# Generated by pormake.
# Topology uoz, (4)-cn, num edge types: 1
# Building blocks:
#     Node 0, Type 0, BuildingBlock: UXUYUI_clean_sbu_0, # of connection points: 4
#     Node 1, Type 0, BuildingBlock: UXUYUI_clean_sbu_0, # of connection points: 4
#     Node 2, Type 0, BuildingBlock: UXUYUI_clean_sbu_0, # of connection points: 4
#     Node 3, Type 0, BuildingBlock: UXUYUI_clean_sbu_0, # of connection points: 4
#     Node 4, Type 0, BuildingBlock: UXUYUI_clean_sbu_0, # of connection points: 4
#     Node 5, Type 0, BuildingBlock: UXUYUI_clean_sbu_0, # of connection points: 4
#     Node 6, Type 0, BuildingBlock: UXUYUI_clean_sbu_0, # of connection points: 4
#     Node 7, Type 0, BuildingBlock: UXUYUI_clean_sbu_0, # of connection points: 4
#     Node 8, Type 0, BuildingBlock: UXUYUI_clean_sbu_0, # of connection points: 4
#     Node 9, Type 0, BuildingBlock: UXUYUI_clean_sbu_0, # of connection points: 4
#     Node 10, Type 0, BuildingBlock: UXUYUI_clean_sbu_0, # of connection points: 4
#     Node 11, Type 0, BuildingBlock: UXUYUI_clean_sbu_0, # of connection points: 4
#     Node 12, Type 0, BuildingBlock: UXUYUI_clean_sbu_0, # of connection points: 4
#     Node 13, Type 0, BuildingBlock: UXUYUI_clean_sbu_0, # of connection points: 4
#     Node 14, Type 0, BuildingBlock: UXUYUI_clean_sbu_0, # of connection points: 4
#     Node 15, Type 0, BuildingBlock: UXUYUI_clean_sbu_0, # of connection points: 4
#     Edge 16, Type (0, 0), BuildingBlock: AJUNOK_clean_linker_0, # of connection points: 2
#     Edge 17, Type (0, 0), BuildingBlock: AJUNOK_clean_linker_0, # of connection points: 2
#     Edge 18, Type (0, 0), BuildingBlock: AJUNOK_clean_linker_0, # of connection points: 2
#     Edge 19, Type (0, 0), BuildingBlock: AJUNOK_clean_linker_0, # of connection points: 2
#     Edge 20, Type (0, 0), BuildingBlock: AJUNOK_clean_linker_0, # of connection points: 2
#     Edge 21, Type (0, 0), BuildingBlock: AJUNOK_clean_linker_0, # of connection points: 2
#     Edge 22, Type (0, 0), BuildingBlock: AJUNOK_clean_linker_0, # of connection points: 2
#     Edge 23, Type (0, 0), BuildingBlock: AJUNOK_clean_linker_0, # of connection points: 2
#     Edge 24, Type (0, 0), BuildingBlock: AJUNOK_clean_linker_0, # of connection points: 2
#     Edge 25, Type (0, 0), BuildingBlock: AJUNOK_clean_linker_0, # of connection points: 2
#     Edge 26, Type (0, 0), BuildingBlock: AJUNOK_clean_linker_0, # of connection points: 2
#     Edge 27, Type (0, 0), BuildingBlock: AJUNOK_clean_linker_0, # of connection points: 2
#     Edge 28, Type (0, 0), BuildingBlock: AJUNOK_clean_linker_0, # of connection points: 2
#     Edge 29, Type (0, 0), BuildingBlock: AJUNOK_clean_linker_0, # of connection points: 2
#     Edge 30, Type (0, 0), BuildingBlock: AJUNOK_clean_linker_0, # of connection points: 2
#     Edge 31, Type (0, 0), BuildingBlock: AJUNOK_clean_linker_0, # of connection points: 2
#     Edge 32, Type (0, 0), BuildingBlock: AJUNOK_clean_linker_0, # of connection points: 2
#     Edge 33, Type (0, 0), BuildingBlock: AJUNOK_clean_linker_0, # of connection points: 2
#     Edge 34, Type (0, 0), BuildingBlock: AJUNOK_clean_linker_0, # of connection points: 2
#     Edge 35, Type (0, 0), BuildingBlock: AJUNOK_clean_linker_0, # of connection points: 2
#     Edge 36, Type (0, 0), BuildingBlock: AJUNOK_clean_linker_0, # of connection points: 2
#     Edge 37, Type (0, 0), BuildingBlock: AJUNOK_clean_linker_0, # of connection points: 2
#     Edge 38, Type (0, 0), BuildingBlock: AJUNOK_clean_linker_0, # of connection points: 2
#     Edge 39, Type (0, 0), BuildingBlock: AJUNOK_clean_linker_0, # of connection points: 2
#     Edge 40, Type (0, 0), BuildingBlock: AJUNOK_clean_linker_0, # of connection points: 2
#     Edge 41, Type (0, 0), BuildingBlock: AJUNOK_clean_linker_0, # of connection points: 2
#     Edge 42, Type (0, 0), BuildingBlock: AJUNOK_clean_linker_0, # of connection points: 2
#     Edge 43, Type (0, 0), BuildingBlock: AJUNOK_clean_linker_0, # of connection points: 2
#     Edge 44, Type (0, 0), BuildingBlock: AJUNOK_clean_linker_0, # of connection points: 2
#     Edge 45, Type (0, 0), BuildingBlock: AJUNOK_clean_linker_0, # of connection points: 2
#     Edge 46, Type (0, 0), BuildingBlock: AJUNOK_clean_linker_0, # of connection points: 2
#     Edge 47, Type (0, 0), BuildingBlock: AJUNOK_clean_linker_0, # of connection points: 2
# Relax obj value: 0.206
# Max RMSD: 0.135
# Mean RMSD: 0.135
data_MOF--net-uoz--node1-UXUYUI_clean_sbu_0--edge1-AJUNOK_clean_linker_0
_symmetry_space_group_name_H-M    P1
_symmetry_Int_Tables_number       1
_symmetry_cell_setting            triclinic
loop_
_symmetry_equiv_pos_as_xyz
'x, y, z'
_cell_length_a     71.033445
_cell_length_b     70.986708
_cell_length_c     27.22629
_cell_angle_alpha  90.04718
_cell_angle_beta   89.958308
_cell_angle_gamma 89.985818
loop_
_atom_site_label
_atom_site_type_symbol
_atom_site_fract_x
_atom_site_fract_y
_atom_site_fract_z
_atom_type_partial_charge
Li0 Li 0.98795 0.59789 0.31487 0.0
Li1 Li 0.02245 0.59886 0.31508 0.0
Li2 Li 1.00467 0.57142 0.27965 0.0
Li3 Li 0.00652 0.57475 0.36871 0.0
C4 C 0.99789 0.61012 0.22426 0.0
N5 N 0.98231 0.63541 0.15848 0.0
C6 C 0.00513 0.62837 0.22018 0.0
C7 C 0.98286 0.60471 0.19423 0.0
C8 C 0.99706 0.64095 0.18683 0.0
C9 C 0.97512 0.6177 0.16145 0.0
C10 C 0.01344 0.61405 0.40819 0.0
C11 C 0.0349 0.61702 0.47638 0.0
N12 N 0.03028 0.63554 0.48054 0.0
C13 C 0.0087 0.63305 0.4136 0.0
C14 C 0.02647 0.6059 0.44021 0.0
C15 C 0.01745 0.64371 0.45021 0.0
C16 C 0.94983 0.60645 0.28957 0.0
N17 N 0.96661 0.61396 0.30352 0.0
C18 C 0.95674 0.64458 0.27743 0.0
C19 C 0.96999 0.63275 0.29948 0.0
C20 C 0.93979 0.63702 0.25949 0.0
C21 C 0.9361 0.61781 0.26762 0.0
H22 H 0.94749 0.59147 0.29287 0.0
H23 H 0.9836 0.6383 0.30971 0.0
C24 C 0.05625 0.60754 0.26789 0.0
N25 N 0.04352 0.61482 0.30014 0.0
C26 C 0.06923 0.61928 0.24435 0.0
C27 C 0.05629 0.64571 0.28897 0.0
C28 C 0.0437 0.63343 0.31214 0.0
C29 C 0.06883 0.63873 0.25343 0.0
H30 H 0.0555 0.5928 0.25803 0.0
H31 H 0.0331 0.63905 0.33648 0.0
C32 C 0.97267 0.55554 0.31311 0.0
N33 N 0.95164 0.52485 0.28288 0.0
C34 C 0.97033 0.54003 0.34413 0.0
C35 C 0.96386 0.5556 0.26721 0.0
C36 C 0.95976 0.52461 0.32809 0.0
C37 C 0.95343 0.53991 0.25241 0.0
C38 C 0.04381 0.56387 0.33844 0.0
C39 C 0.04868 0.5453 0.32691 0.0
C40 C 0.05608 0.57481 0.36664 0.0
C41 C 0.06549 0.53782 0.34505 0.0
C42 C 0.07277 0.56684 0.38402 0.0
N43 N 0.07707 0.54865 0.37305 0.0
C44 C 0.006 0.55837 0.18236 0.0
C45 C 0.00526 0.53455 0.24343 0.0
C46 C 0.00605 0.54485 0.1453 0.0
N47 N 0.0053 0.553 0.23016 0.0
C48 C 0.0054 0.52054 0.20758 0.0
C49 C 0.00556 0.52568 0.15783 0.0
H50 H 0.00649 0.57314 0.173 0.0
H51 H 0.00502 0.53076 0.28189 0.0
C52 C 1.00303 0.56256 0.47217 0.0
N53 N 0.00768 0.55798 0.42509 0.0
C54 C 1.00282 0.54864 0.50892 0.0
C55 C 0.0122 0.52569 0.44822 0.0
C56 C 0.01235 0.53997 0.41297 0.0
C57 C 0.0071 0.52982 0.49682 0.0
H58 H 0.99909 0.57688 0.48104 0.0
H59 H 0.01542 0.53649 0.3752 0.0
O60 O 0.00538 0.59771 0.25761 0.0
O61 O 0.00491 0.60338 0.37273 0.0
O62 O 0.98329 0.57064 0.32793 0.0
O63 O 0.02745 0.57145 0.32067 0.0
H64 H 0.01672 0.6329 0.24278 0.0
H65 H 0.97714 0.59067 0.19627 0.0
H66 H 1.00248 0.65513 0.18364 0.0
H67 H 0.96339 0.6137 0.13837 0.0
H68 H 0.04507 0.6109 0.50125 0.0
H69 H 0.99845 0.63953 0.38961 0.0
H70 H 0.02995 0.59112 0.43741 0.0
H71 H 0.01402 0.65846 0.45454 0.0
H72 H 0.96023 0.65927 0.27179 0.0
H73 H 0.92302 0.61149 0.25561 0.0
H74 H 0.07864 0.61341 0.217 0.0
H75 H 0.05564 0.66064 0.29702 0.0
H76 H 0.9764 0.53993 0.38045 0.0
H77 H 0.96525 0.56752 0.24298 0.0
H78 H 0.95795 0.51249 0.35168 0.0
H79 H 0.94677 0.53971 0.2167 0.0
H80 H 0.03955 0.53671 0.30437 0.0
H81 H 0.0529 0.58939 0.37452 0.0
H82 H 0.06934 0.52342 0.33675 0.0
H83 H 0.08235 0.57515 0.40603 0.0
H84 H 0.00624 0.54931 0.10726 0.0
H85 H 0.00549 0.50589 0.21863 0.0
H86 H 0.9988 0.55241 0.54602 0.0
H87 H 0.01583 0.51147 0.43734 0.0
Li88 Li 0.68441 0.75525 0.61972 0.0
Li89 Li 0.66069 0.77323 0.56925 0.0
Li90 Li 0.66022 0.73937 0.56705 0.0
Li91 Li 0.68581 0.75591 0.53198 0.0
C92 C 0.64429 0.7438 0.64999 0.0
N93 N 0.62076 0.71771 0.69346 0.0
C94 C 0.62494 0.74718 0.65257 0.0
C95 C 0.65171 0.72721 0.6697 0.0
C96 C 0.61327 0.7338 0.67466 0.0
C97 C 0.63957 0.71418 0.69148 0.0
C98 C 0.69186 0.79323 0.60408 0.0
C99 C 0.70986 0.82128 0.62118 0.0
N100 N 0.69887 0.82464 0.66117 0.0
C101 C 0.68075 0.79695 0.64537 0.0
C102 C 0.70654 0.80546 0.59187 0.0
C103 C 0.68452 0.81292 0.67375 0.0
C104 C 0.71929 0.76003 0.66533 0.0
N105 N 0.70118 0.75528 0.67596 0.0
C106 C 0.70938 0.75084 0.76067 0.0
C107 C 0.69599 0.75083 0.72268 0.0
C108 C 0.72827 0.75552 0.75052 0.0
C109 C 0.73308 0.76015 0.70199 0.0
H110 H 0.72307 0.76365 0.62802 0.0
H111 H 0.68152 0.74716 0.73049 0.0
C112 C 0.62598 0.79031 0.55137 0.0
N113 N 0.6445 0.79449 0.5576 0.0
C114 C 0.61385 0.80328 0.52924 0.0
C115 C 0.63992 0.82491 0.52145 0.0
C116 C 0.65155 0.81156 0.5441 0.0
C117 C 0.62092 0.82059 0.51252 0.0
H118 H 0.62091 0.77637 0.56024 0.0
H119 H 0.66644 0.81435 0.5475 0.0
C120 C 0.69984 0.72268 0.54989 0.0
N121 N 0.72581 0.70236 0.49584 0.0
C122 C 0.69407 0.71231 0.50891 0.0
C123 C 0.7188 0.72259 0.56361 0.0
C124 C 0.70742 0.70216 0.48201 0.0
C125 C 0.73171 0.71226 0.53574 0.0
C126 C 0.65608 0.76724 0.47082 0.0
C127 C 0.64075 0.76299 0.44064 0.0
C128 C 0.66744 0.78277 0.45979 0.0
C129 C 0.63701 0.77437 0.39996 0.0
C130 C 0.66323 0.7938 0.41879 0.0
N131 N 0.64822 0.78942 0.38999 0.0
C132 C 0.62613 0.72452 0.5361 0.0
C133 C 0.64825 0.70061 0.55498 0.0
C134 C 0.614 0.71133 0.51501 0.0
N135 N 0.64307 0.71907 0.55436 0.0
C136 C 0.63653 0.68691 0.53399 0.0
C137 C 0.61935 0.69231 0.51245 0.0
H138 H 0.62246 0.7393 0.53569 0.0
H139 H 0.66191 0.69667 0.56917 0.0
C140 C 0.72057 0.76299 0.48689 0.0
N141 N 0.70314 0.75566 0.4795 0.0
C142 C 0.73387 0.76255 0.44924 0.0
C143 C 0.71092 0.74709 0.39731 0.0
C144 C 0.69807 0.74788 0.43586 0.0
C145 C 0.72909 0.75437 0.404 0.0
H146 H 0.72414 0.76899 0.52221 0.0
H147 H 0.68411 0.74208 0.43124 0.0
O148 O 0.65591 0.75642 0.62722 0.0
O149 O 0.68865 0.77763 0.57575 0.0
O150 O 0.68705 0.73309 0.57596 0.0
O151 O 0.65947 0.75658 0.5118 0.0
H152 H 0.61899 0.75997 0.63761 0.0
H153 H 0.66665 0.72432 0.66755 0.0
H154 H 0.59825 0.73619 0.6768 0.0
H155 H 0.64509 0.70123 0.70664 0.0
H156 H 0.72117 0.83087 0.61215 0.0
H157 H 0.66934 0.78769 0.65554 0.0
H158 H 0.71528 0.80275 0.56005 0.0
H159 H 0.67604 0.81598 0.70579 0.0
H160 H 0.70506 0.74693 0.79741 0.0
H161 H 0.74738 0.76398 0.69247 0.0
H162 H 0.59934 0.79934 0.52256 0.0
H163 H 0.64587 0.83816 0.50937 0.0
H164 H 0.67952 0.71246 0.49725 0.0
H165 H 0.72351 0.73045 0.59529 0.0
H166 H 0.70317 0.69423 0.44992 0.0
H167 H 0.74644 0.71214 0.54581 0.0
H168 H 0.63176 0.75108 0.44872 0.0
H169 H 0.67924 0.78644 0.48297 0.0
H170 H 0.62516 0.77127 0.37638 0.0
H171 H 0.67184 0.80591 0.41002 0.0
H172 H 0.60082 0.71608 0.49934 0.0
H173 H 0.64134 0.67245 0.53226 0.0
H174 H 0.7478 0.76825 0.45557 0.0
H175 H 0.7067 0.74093 0.3626 0.0
Li176 Li 0.50608 0.43668 0.7848 0.0
Li177 Li 0.50521 0.43192 0.87525 0.0
Li178 Li 0.52438 0.41061 0.81732 0.0
Li179 Li 0.49029 0.40938 0.81709 0.0
C180 C 0.53642 0.45387 0.81508 0.0
N181 N 0.5532 0.4862 0.77906 0.0
C182 C 0.53615 0.4705 0.84266 0.0
C183 C 0.5452 0.45375 0.76906 0.0
C184 C 0.54474 0.48667 0.82387 0.0
C185 C 0.55358 0.47022 0.7515 0.0
C186 C 0.4652 0.4363 0.82206 0.0
C187 C 0.4339 0.42871 0.85012 0.0
N188 N 0.42685 0.43421 0.80596 0.0
C189 C 0.45765 0.44194 0.77701 0.0
C190 C 0.45324 0.42969 0.85901 0.0
C191 C 0.43823 0.44076 0.76958 0.0
C192 C 0.50412 0.44982 0.68808 0.0
N193 N 0.50416 0.45532 0.73584 0.0
C194 C 0.50089 0.48757 0.71281 0.0
C195 C 0.50223 0.47371 0.74889 0.0
C196 C 0.50114 0.48228 0.66317 0.0
C197 C 0.50277 0.46316 0.65087 0.0
H198 H 0.50505 0.43506 0.67889 0.0
H199 H 0.50179 0.47757 0.7873 0.0
C200 C 0.52105 0.45013 0.95988 0.0
N201 N 0.50474 0.44683 0.93509 0.0
C202 C 0.52176 0.46387 0.99691 0.0
C203 C 0.48863 0.46972 0.9846 0.0
C204 C 0.48863 0.45616 0.94715 0.0
C205 C 0.50546 0.47408 0.00907 0.0
H206 H 0.53377 0.44283 0.94906 0.0
H207 H 0.47593 0.45365 0.92637 0.0
C208 C 0.51452 0.39753 0.7299 0.0
N209 N 0.52963 0.3702 0.66906 0.0
C210 C 0.50889 0.37873 0.73451 0.0
C211 C 0.52795 0.40237 0.69451 0.0
C212 C 0.51666 0.36514 0.70336 0.0
C213 C 0.53538 0.38837 0.66405 0.0
C214 C 0.49727 0.39178 0.90465 0.0
C215 C 0.49819 0.37221 0.89925 0.0
C216 C 0.48615 0.39952 0.94193 0.0
C217 C 0.48792 0.36072 0.93116 0.0
C218 C 0.47604 0.38757 0.97299 0.0
N219 N 0.47713 0.36858 0.96703 0.0
C220 C 0.56218 0.4035 0.78418 0.0
C221 C 0.54481 0.37648 0.8073 0.0
C222 C 0.57586 0.39223 0.76157 0.0
N223 N 0.54662 0.39553 0.80472 0.0
C224 C 0.55817 0.3647 0.78538 0.0
C225 C 0.57356 0.37259 0.76043 0.0
H226 H 0.56351 0.41861 0.78289 0.0
H227 H 0.53226 0.37043 0.82291 0.0
C228 C 0.46522 0.39628 0.74889 0.0
N229 N 0.46906 0.39384 0.79744 0.0
C230 C 0.4521 0.38492 0.72506 0.0
C231 C 0.44593 0.3693 0.80209 0.0
C232 C 0.4593 0.38104 0.82463 0.0
C233 C 0.44254 0.37093 0.75134 0.0
H234 H 0.47283 0.40676 0.72806 0.0
H235 H 0.46207 0.37959 0.86337 0.0
O236 O 0.52785 0.43793 0.83255 0.0
O237 O 0.48424 0.43679 0.82949 0.0
O238 O 0.50724 0.41106 0.76046 0.0
O239 O 0.50747 0.40329 0.87435 0.0
H240 H 0.52921 0.47104 0.87792 0.0
H241 H 0.54506 0.44123 0.74647 0.0
H242 H 0.54459 0.49963 0.84483 0.0
H243 H 0.56027 0.47034 0.71579 0.0
H244 H 0.42449 0.42351 0.87828 0.0
H245 H 0.46668 0.44698 0.74787 0.0
H246 H 0.45883 0.42514 0.89395 0.0
H247 H 0.4322 0.44499 0.73481 0.0
H248 H 0.49953 0.50221 0.72349 0.0
H249 H 0.50321 0.45861 0.61291 0.0
H250 H 0.53499 0.46676 0.01517 0.0
H251 H 0.47579 0.47733 0.99282 0.0
H252 H 0.49892 0.37455 0.76247 0.0
H253 H 0.53278 0.41674 0.69088 0.0
H254 H 0.51248 0.35055 0.7067 0.0
H255 H 0.54574 0.39195 0.63648 0.0
H256 H 0.50654 0.3659 0.87047 0.0
H257 H 0.48532 0.41459 0.9469 0.0
H258 H 0.48845 0.34556 0.92725 0.0
H259 H 0.46735 0.39339 1.00189 0.0
H260 H 0.58778 0.39885 0.74374 0.0
H261 H 0.55583 0.34962 0.78532 0.0
H262 H 0.4497 0.38686 0.6861 0.0
H263 H 0.43884 0.35865 0.82373 0.0
Li264 Li 0.82686 0.25211 0.11718 0.0
Li265 Li 0.85046 0.23387 0.06582 0.0
Li266 Li 0.84943 0.26818 0.06411 0.0
Li267 Li 0.82395 0.25105 0.03008 0.0
C268 C 0.86084 0.24203 0.16282 0.0
N269 N 0.87119 0.22212 0.2457 0.0
C270 C 0.85489 0.2234 0.16906 0.0
C271 C 0.87206 0.25051 0.19869 0.0
C272 C 0.86028 0.21358 0.21121 0.0
C273 C 0.87713 0.24022 0.24036 0.0
C274 C 0.80909 0.21877 0.05491 0.0
C275 C 0.79817 0.19878 0.98911 0.0
N276 N 0.78067 0.19871 0.00938 0.0
C277 C 0.79102 0.21839 0.07524 0.0
C278 C 0.81273 0.20879 0.01165 0.0
C279 C 0.77684 0.2082 0.05162 0.0
C280 C 0.79254 0.25851 0.16333 0.0
N281 N 0.81051 0.2534 0.1745 0.0
C282 C 0.80201 0.25024 0.25947 0.0
C283 C 0.81548 0.24942 0.22168 0.0
C284 C 0.78327 0.25523 0.24867 0.0
C285 C 0.77868 0.25943 0.19976 0.0
H286 H 0.78888 0.26165 0.12566 0.0
H287 H 0.82978 0.24545 0.23015 0.0
C288 C 0.8856 0.21745 0.04822 0.0
N289 N 0.86716 0.21305 0.05492 0.0
C290 C 0.89805 0.20417 0.02864 0.0
C291 C 0.87254 0.1817 0.02566 0.0
C292 C 0.86059 0.1954 0.04565 0.0
C293 C 0.89143 0.18617 0.01584 0.0
H294 H 0.8904 0.23165 0.05545 0.0
H295 H 0.84591 0.19218 0.05164 0.0
C296 C 0.81992 0.28962 0.09887 0.0
N297 N 0.81503 0.32197 0.15397 0.0
C298 C 0.80554 0.30229 0.08723 0.0
C299 C 0.83181 0.2934 0.13858 0.0
C300 C 0.8033 0.31856 0.11551 0.0
C301 C 0.82911 0.30983 0.16596 0.0
C302 C 0.85753 0.25992 0.96971 0.0
C303 C 0.84711 0.2739 0.94589 0.0
C304 C 0.87602 0.25631 0.95483 0.0
C305 C 0.8554 0.2841 0.90771 0.0
C306 C 0.88383 0.26686 0.9166 0.0
N307 N 0.87345 0.28043 0.89405 0.0
C308 C 0.88448 0.28636 0.05171 0.0
C309 C 0.85822 0.30468 0.02733 0.0
C310 C 0.89679 0.29893 0.02857 0.0
N311 N 0.86557 0.28919 0.04966 0.0
C312 C 0.87 0.31753 1.00346 0.0
C313 C 0.88956 0.31451 1.00283 0.0
H314 H 0.88993 0.27366 0.06844 0.0
H315 H 0.84312 0.30625 0.02448 0.0
C316 C 0.78894 0.25821 0.98763 0.0
N317 N 0.80619 0.25064 0.97901 0.0
C318 C 0.77553 0.2586 0.95035 0.0
C319 C 0.79786 0.24312 0.89652 0.0
C320 C 0.81087 0.24311 0.93474 0.0
C321 C 0.78005 0.25112 0.9041 0.0
H322 H 0.78569 0.26398 0.02343 0.0
H323 H 0.82472 0.23715 0.92921 0.0
O324 O 0.8558 0.25204 0.12198 0.0
O325 O 0.82308 0.229 0.07694 0.0
O326 O 0.82208 0.27358 0.07152 0.0
O327 O 0.84987 0.25018 0.00825 0.0
H328 H 0.84616 0.21656 0.14192 0.0
H329 H 0.87676 0.26492 0.19438 0.0
H330 H 0.85577 0.19917 0.21654 0.0
H331 H 0.88579 0.24662 0.26845 0.0
H332 H 0.80076 0.19117 0.95533 0.0
H333 H 0.78796 0.22582 0.10894 0.0
H334 H 0.82654 0.20917 0.99492 0.0
H335 H 0.76278 0.20784 0.0669 0.0
H336 H 0.80614 0.24666 0.29657 0.0
H337 H 0.76449 0.26347 0.18973 0.0
H338 H 0.91245 0.20828 0.02109 0.0
H339 H 0.86695 0.16793 0.01666 0.0
H340 H 0.7962 0.29954 0.05666 0.0
H341 H 0.843 0.28381 0.14831 0.0
H342 H 0.79222 0.32849 0.10691 0.0
H343 H 0.8382 0.31293 0.19678 0.0
H344 H 0.83291 0.27718 0.95748 0.0
H345 H 0.88433 0.2456 0.97283 0.0
H346 H 0.84754 0.29506 0.88927 0.0
H347 H 0.89817 0.2643 0.90496 0.0
H348 H 0.91176 0.29609 0.02917 0.0
H349 H 0.86373 0.32902 0.98309 0.0
H350 H 0.76179 0.26462 0.95752 0.0
H351 H 0.80177 0.23726 0.8612 0.0
Li352 Li 1.00468 0.42703 0.77645 0.0
Li353 Li 1.00187 0.43056 0.86411 0.0
Li354 Li 0.02137 0.40582 0.8332 0.0
Li355 Li 0.98643 0.40246 0.82951 0.0
C356 C 0.03036 0.45155 0.8184 0.0
N357 N 0.04072 0.48875 0.80558 0.0
C358 C 0.01665 0.46563 0.81613 0.0
C359 C 0.04937 0.45641 0.81441 0.0
C360 C 0.02215 0.48435 0.80957 0.0
C361 C 0.05432 0.47529 0.80787 0.0
C362 C 0.96503 0.43987 0.82733 0.0
C363 C 0.93546 0.443 0.8704 0.0
N364 N 0.93282 0.46014 0.84923 0.0
C365 C 0.96197 0.45753 0.80596 0.0
C366 C 0.95163 0.43256 0.85982 0.0
C367 C 0.94563 0.46755 0.81756 0.0
C368 C 0.98863 0.44713 0.69544 0.0
N369 N 0.00519 0.44173 0.71624 0.0
C370 C 0.02226 0.46232 0.66238 0.0
C371 C 0.02188 0.44865 0.69947 0.0
C372 C 0.00533 0.46875 0.6416 0.0
C373 C 0.98837 0.46068 0.65801 0.0
H374 H 0.97553 0.4415 0.70934 0.0
H375 H 0.03491 0.44413 0.71625 0.0
C376 C 0.01812 0.45125 0.93924 0.0
N377 N 1.0012 0.44807 0.91739 0.0
C378 C 0.01941 0.46315 0.97982 0.0
C379 C 0.98589 0.46856 0.97432 0.0
C380 C 0.98524 0.45648 0.93407 0.0
C381 C 1.0031 0.47183 0.99796 0.0
H382 H 0.0306 0.44431 0.92545 0.0
H383 H 0.97196 0.45392 0.91669 0.0
C384 C 0.01682 0.38535 0.75396 0.0
N385 N 0.04095 0.35867 0.71541 0.0
C386 C 0.01226 0.36624 0.75679 0.0
C387 C 0.03355 0.39094 0.73124 0.0
C388 C 0.02468 0.35296 0.73713 0.0
C389 C 0.0456 0.37722 0.71206 0.0
C390 C 1.00267 0.40506 0.93604 0.0
C391 C 0.01947 0.40575 0.9627 0.0
C392 C 0.98545 0.40561 0.96083 0.0
C393 C 0.01873 0.40725 0.01383 0.0
C394 C 0.98531 0.40712 0.01199 0.0
N395 N 1.00182 0.40793 0.0372 0.0
C396 C 0.05999 0.39841 0.85856 0.0
C397 C 0.03909 0.37242 0.86143 0.0
C398 C 0.07434 0.38757 0.87985 0.0
N399 N 0.04276 0.3907 0.85011 0.0
C400 C 0.05303 0.36106 0.88208 0.0
C401 C 0.07086 0.36866 0.89213 0.0
H402 H 0.06236 0.41315 0.8508 0.0
H403 H 0.02505 0.36688 0.85644 0.0
C404 C 0.94851 0.38629 0.83007 0.0
N405 N 0.96704 0.38415 0.84156 0.0
C406 C 0.93496 0.37448 0.85144 0.0
C407 C 0.95996 0.35748 0.89203 0.0
C408 C 0.97295 0.36973 0.87056 0.0
C409 C 0.94066 0.3602 0.88399 0.0
H410 H 0.94413 0.39783 0.80681 0.0
H411 H 0.98774 0.36836 0.87924 0.0
O412 O 0.02531 0.43308 0.82435 0.0
O413 O 0.98075 0.42961 0.81557 0.0
O414 O 0.00509 0.39855 0.77394 0.0
O415 O 1.0031 0.40408 0.88589 0.0
H416 H 1.00193 0.46214 0.8195 0.0
H417 H 0.06018 0.44568 0.81602 0.0
H418 H 0.01165 0.49537 0.80767 0.0
H419 H 0.06897 0.47924 0.80457 0.0
H420 H 0.92507 0.43753 0.89571 0.0
H421 H 0.97207 0.46349 0.78066 0.0
H422 H 0.95391 0.41922 0.87773 0.0
H423 H 0.94313 0.48123 0.8013 0.0
H424 H 0.03565 0.46803 0.65055 0.0
H425 H 0.97497 0.46534 0.64347 0.0
H426 H 0.03294 0.46538 0.99716 0.0
H427 H 0.97308 0.47539 0.98653 0.0
H428 H 0.99935 0.36173 0.7744 0.0
H429 H 0.03727 0.40571 0.72896 0.0
H430 H 0.0214 0.3381 0.73927 0.0
H431 H 0.05866 0.38131 0.69462 0.0
H432 H 0.03292 0.40538 0.94409 0.0
H433 H 0.97233 0.40496 0.94079 0.0
H434 H 0.03162 0.40795 0.03492 0.0
H435 H 0.97208 0.40767 0.03164 0.0
H436 H 0.08787 0.39396 0.88746 0.0
H437 H 0.04963 0.34669 0.89212 0.0
H438 H 0.92019 0.37683 0.84382 0.0
H439 H 0.96492 0.34664 0.91685 0.0
Li440 Li 0.85261 0.73421 0.08469 0.0
Li441 Li 0.82775 0.75208 0.11967 0.0
Li442 Li 0.8308 0.75249 0.03327 0.0
Li443 Li 0.85463 0.7687 0.08781 0.0
C444 C 0.82242 0.71488 0.04614 0.0
N445 N 0.81683 0.68376 0.98688 0.0
C446 C 0.80827 0.7019 0.05737 0.0
C447 C 0.83372 0.71205 0.0047 0.0
C448 C 0.80567 0.68625 0.02699 0.0
C449 C 0.83066 0.69622 0.97522 0.0
C450 C 0.8555 0.74032 0.18448 0.0
C451 C 0.87071 0.73425 0.26207 0.0
N452 N 0.85983 0.71865 0.26804 0.0
C453 C 0.8444 0.72427 0.19155 0.0
C454 C 0.86871 0.7454 0.22013 0.0
C455 C 0.84682 0.7135 0.23397 0.0
C456 C 0.88658 0.71775 0.10925 0.0
N457 N 0.86861 0.71295 0.09743 0.0
C458 C 0.87353 0.68168 0.12785 0.0
C459 C 0.86201 0.69521 0.1055 0.0
C460 C 0.89182 0.68659 0.14267 0.0
C461 C 0.89844 0.70477 0.13216 0.0
H462 H 0.89127 0.7321 0.10381 0.0
H463 H 0.84748 0.69186 0.09776 0.0
C464 C 0.79268 0.74465 0.16256 0.0
N465 N 0.80979 0.75258 0.17061 0.0
C466 C 0.77916 0.74461 0.1997 0.0
C467 C 0.80118 0.76105 0.25232 0.0
C468 C 0.81425 0.76077 0.21421 0.0
C469 C 0.78346 0.75277 0.24532 0.0
H470 H 0.78957 0.7384 0.12724 0.0
H471 H 0.82796 0.76708 0.21931 0.0
C472 C 0.86561 0.76177 0.9899 0.0
N473 N 0.87768 0.78231 0.90968 0.0
C474 C 0.8597 0.78041 0.98368 0.0
C475 C 0.87765 0.75359 0.95533 0.0
C476 C 0.86597 0.79056 0.94289 0.0
C477 C 0.88359 0.7642 0.915 0.0
C478 C 0.81543 0.78597 0.10199 0.0
C479 C 0.79634 0.78609 0.08957 0.0
C480 C 0.82176 0.79693 0.14133 0.0
C481 C 0.78386 0.79709 0.11703 0.0
C482 C 0.80884 0.80775 0.16785 0.0
N483 N 0.79031 0.80759 0.15529 0.0
C484 C 0.79635 0.74879 0.98692 0.0
C485 C 0.81957 0.75747 0.92886 0.0
C486 C 0.78236 0.74918 0.95087 0.0
N487 N 0.81452 0.75311 0.97578 0.0
C488 C 0.80594 0.75803 0.89144 0.0
C489 C 0.78695 0.75413 0.90241 0.0
H490 H 0.79267 0.74512 0.02426 0.0
H491 H 0.83408 0.76064 0.92033 0.0
C492 C 0.88724 0.78257 0.12935 0.0
N493 N 0.87208 0.78847 0.10312 0.0
C494 C 0.89915 0.79559 0.15198 0.0
C495 C 0.88052 0.82069 0.11714 0.0
C496 C 0.86872 0.80713 0.09578 0.0
C497 C 0.89562 0.81498 0.1472 0.0
H498 H 0.88957 0.76766 0.13467 0.0
H499 H 0.85648 0.81151 0.07515 0.0
O500 O 0.82495 0.73028 0.07565 0.0
O501 O 0.85367 0.75092 0.1427 0.0
O502 O 0.85971 0.75146 0.02944 0.0
O503 O 0.82781 0.77495 0.07633 0.0
H504 H 0.79939 0.70392 0.08929 0.0
H505 H 0.8447 0.7219 0.99519 0.0
H506 H 0.79478 0.67609 0.03527 0.0
H507 H 0.83929 0.69386 0.94305 0.0
H508 H 0.88092 0.73799 0.28987 0.0
H509 H 0.83408 0.72008 0.16452 0.0
H510 H 0.87735 0.75781 0.21551 0.0
H511 H 0.83839 0.70101 0.23976 0.0
H512 H 0.86782 0.66789 0.13608 0.0
H513 H 0.91246 0.70909 0.14309 0.0
H514 H 0.76548 0.73843 0.19275 0.0
H515 H 0.80495 0.76746 0.28707 0.0
H516 H 0.85029 0.78697 0.00972 0.0
H517 H 0.88232 0.73917 0.95963 0.0
H518 H 0.8615 0.80498 0.93759 0.0
H519 H 0.89289 0.75804 0.88793 0.0
H520 H 0.79119 0.77774 0.05922 0.0
H521 H 0.83642 0.79678 0.15196 0.0
H522 H 0.76904 0.79725 0.10795 0.0
H523 H 0.81352 0.81618 0.19862 0.0
H524 H 0.76807 0.74551 0.96088 0.0
H525 H 0.81015 0.7618 0.8545 0.0
H526 H 0.91054 0.79044 0.17473 0.0
H527 H 0.87757 0.83546 0.111 0.0
Li528 Li 0.48956 0.60285 0.3312 0.0
Li529 Li 0.52463 0.60204 0.33635 0.0
Li530 Li 0.50656 0.5792 0.28425 0.0
Li531 Li 0.50571 0.57681 0.37141 0.0
C532 C 0.49883 0.62038 0.24986 0.0
N533 N 0.47849 0.64689 0.19799 0.0
C534 C 0.50524 0.63895 0.24695 0.0
C535 C 0.48222 0.61523 0.22596 0.0
C536 C 0.49472 0.65217 0.22066 0.0
C537 C 0.4721 0.62885 0.20004 0.0
C538 C 0.50579 0.60392 0.4384 0.0
C539 C 0.52175 0.60102 0.51615 0.0
N540 N 0.505 0.60309 0.5398 0.0
C541 C 0.48874 0.60606 0.46343 0.0
C542 C 0.52245 0.60142 0.46489 0.0
C543 C 0.48863 0.60559 0.51472 0.0
C544 C 0.45191 0.61264 0.35492 0.0
N545 N 0.46915 0.61972 0.34347 0.0
C546 C 0.46055 0.64992 0.37546 0.0
C547 C 0.47355 0.63804 0.35244 0.0
C548 C 0.44302 0.64275 0.39029 0.0
C549 C 0.43852 0.62401 0.37836 0.0
H550 H 0.44901 0.59786 0.34895 0.0
H551 H 0.48762 0.64308 0.34489 0.0
C552 C 0.56233 0.61047 0.36813 0.0
N553 N 0.54559 0.61778 0.35306 0.0
C554 C 0.57567 0.62198 0.39129 0.0
C555 C 0.5545 0.64837 0.38186 0.0
C556 C 0.54156 0.63636 0.35918 0.0
C557 C 0.57162 0.64112 0.39938 0.0
H558 H 0.56496 0.59553 0.36473 0.0
H559 H 0.52782 0.64163 0.34909 0.0
C560 C 0.47435 0.56103 0.30733 0.0
N561 N 0.45545 0.53099 0.26567 0.0
C562 C 0.47865 0.5426 0.32147 0.0
C563 C 0.46022 0.5642 0.27261 0.0
C564 C 0.46899 0.5276 0.29982 0.0
C565 C 0.45089 0.54882 0.25181 0.0
C566 C 0.54418 0.57035 0.30374 0.0
C567 C 0.54985 0.58249 0.26611 0.0
C568 C 0.55475 0.5542 0.31373 0.0
C569 C 0.56607 0.57828 0.23924 0.0
C570 C 0.57088 0.55048 0.286 0.0
N571 N 0.57616 0.5625 0.24964 0.0
C572 C 0.50318 0.56742 0.1807 0.0
C573 C 0.51163 0.54422 0.23907 0.0
C574 C 0.50316 0.55381 0.14311 0.0
N575 N 0.50724 0.56237 0.22777 0.0
C576 C 0.51142 0.53019 0.20303 0.0
C577 C 0.50711 0.53487 0.15432 0.0
H578 H 0.4998 0.58192 0.17232 0.0
H579 H 0.51501 0.54053 0.27656 0.0
C580 C 0.48732 0.55786 0.4472 0.0
N581 N 0.50431 0.56066 0.42548 0.0
C582 C 0.48583 0.54586 0.48745 0.0
C583 C 0.51939 0.54013 0.48228 0.0
C584 C 0.52023 0.55227 0.44217 0.0
C585 C 0.50198 0.53669 0.50498 0.0
H586 H 0.47498 0.56496 0.43311 0.0
H587 H 0.53353 0.55499 0.42419 0.0
O588 O 0.50872 0.60729 0.27611 0.0
O589 O 0.50613 0.6039 0.38819 0.0
O590 O 0.48383 0.57591 0.32755 0.0
O591 O 0.52821 0.57396 0.33028 0.0
H592 H 0.51819 0.64312 0.26472 0.0
H593 H 0.47718 0.60088 0.22761 0.0
H594 H 0.49946 0.66662 0.21824 0.0
H595 H 0.45916 0.62507 0.18157 0.0
H596 H 0.53452 0.59901 0.53714 0.0
H597 H 0.4757 0.6079 0.4435 0.0
H598 H 0.53574 0.59958 0.44606 0.0
H599 H 0.47553 0.60717 0.53459 0.0
H600 H 0.46462 0.66422 0.38433 0.0
H601 H 0.42507 0.61802 0.38875 0.0
H602 H 0.58877 0.61588 0.40393 0.0
H603 H 0.55074 0.66297 0.3879 0.0
H604 H 0.48955 0.53987 0.34823 0.0
H605 H 0.45647 0.57838 0.26189 0.0
H606 H 0.47232 0.51326 0.31004 0.0
H607 H 0.43999 0.55107 0.22469 0.0
H608 H 0.54189 0.59505 0.25772 0.0
H609 H 0.55047 0.54459 0.34253 0.0
H610 H 0.57064 0.58757 0.21008 0.0
H611 H 0.57919 0.53802 0.29333 0.0
H612 H 0.49971 0.55796 0.10591 0.0
H613 H 0.51468 0.5158 0.21312 0.0
H614 H 0.47225 0.54379 0.50471 0.0
H615 H 0.53211 0.53326 0.4949 0.0
Li616 Li 0.65739 0.27173 0.58319 0.0
Li617 Li 0.68236 0.25382 0.61875 0.0
Li618 Li 0.67926 0.25605 0.52749 0.0
Li619 Li 0.65548 0.23844 0.57955 0.0
C620 C 0.68964 0.29426 0.5796 0.0
N621 N 0.69948 0.33177 0.58734 0.0
C622 C 0.6901 0.30299 0.62561 0.0
C623 C 0.69432 0.30452 0.53757 0.0
C624 C 0.69507 0.32199 0.62873 0.0
C625 C 0.69923 0.3235 0.54225 0.0
C626 C 0.6537 0.24331 0.67976 0.0
C627 C 0.66064 0.2151 0.72578 0.0
N628 N 0.64852 0.2208 0.76149 0.0
C629 C 0.64136 0.2489 0.71704 0.0
C630 C 0.66349 0.22629 0.68425 0.0
C631 C 0.63893 0.23733 0.75803 0.0
C632 C 0.62622 0.28772 0.62639 0.0
N633 N 0.64143 0.29302 0.59941 0.0
C634 C 0.63434 0.32555 0.61426 0.0
C635 C 0.64527 0.31157 0.59154 0.0
C636 C 0.6192 0.32035 0.64474 0.0
C637 C 0.61491 0.30115 0.64942 0.0
H638 H 0.62322 0.27293 0.63146 0.0
H639 H 0.65716 0.31561 0.56923 0.0
C640 C 0.71678 0.24414 0.6624 0.0
N641 N 0.70001 0.25289 0.66968 0.0
C642 C 0.73012 0.24374 0.69996 0.0
C643 C 0.70847 0.26119 0.75152 0.0
C644 C 0.69562 0.26131 0.713 0.0
C645 C 0.72603 0.2525 0.74497 0.0
H646 H 0.71981 0.23763 0.62733 0.0
H647 H 0.68214 0.26817 0.71755 0.0
C648 C 0.63874 0.26919 0.50486 0.0
N649 N 0.61429 0.29663 0.4718 0.0
C650 C 0.61938 0.2672 0.51218 0.0
C651 C 0.64569 0.28505 0.4805 0.0
C652 C 0.60724 0.28125 0.49524 0.0
C653 C 0.63309 0.29879 0.4641 0.0
C654 C 0.68596 0.2173 0.54205 0.0
C655 C 0.67643 0.21517 0.49749 0.0
C656 C 0.69855 0.20339 0.55749 0.0
C657 C 0.67964 0.19908 0.46911 0.0
C658 C 0.70136 0.1875 0.52809 0.0
N659 N 0.69193 0.1857 0.48487 0.0
C660 C 0.71419 0.2524 0.48392 0.0
C661 C 0.69124 0.2601 0.42423 0.0
C662 C 0.72838 0.25236 0.44833 0.0
N663 N 0.69606 0.2563 0.47157 0.0
C664 C 0.70508 0.26027 0.38727 0.0
C665 C 0.72403 0.25657 0.39923 0.0
H666 H 0.71765 0.24932 0.52177 0.0
H667 H 0.67672 0.2631 0.41514 0.0
C668 C 0.6215 0.22357 0.61019 0.0
N669 N 0.63826 0.21792 0.59101 0.0
C670 C 0.60951 0.21064 0.63285 0.0
C671 C 0.63161 0.18594 0.61305 0.0
C672 C 0.64337 0.19944 0.59139 0.0
C673 C 0.61459 0.19153 0.63521 0.0
H674 H 0.61809 0.23841 0.61125 0.0
H675 H 0.65698 0.19523 0.57763 0.0
O676 O 0.68493 0.27567 0.57568 0.0
O677 O 0.6559 0.25439 0.63894 0.0
O678 O 0.65092 0.25594 0.52261 0.0
O679 O 0.68317 0.23295 0.57042 0.0
H680 H 0.68645 0.29524 0.65843 0.0
H681 H 0.69415 0.2979 0.50174 0.0
H682 H 0.69538 0.32898 0.66404 0.0
H683 H 0.70284 0.33165 0.51003 0.0
H684 H 0.66806 0.20188 0.72957 0.0
H685 H 0.63372 0.26205 0.71436 0.0
H686 H 0.67311 0.22166 0.65597 0.0
H687 H 0.62939 0.24148 0.78708 0.0
H688 H 0.63821 0.3402 0.60972 0.0
H689 H 0.60316 0.2965 0.6717 0.0
H690 H 0.74356 0.23693 0.6937 0.0
H691 H 0.70469 0.26774 0.7861 0.0
H692 H 0.6138 0.255 0.53103 0.0
H693 H 0.66067 0.28684 0.47493 0.0
H694 H 0.59222 0.27996 0.50085 0.0
H695 H 0.63827 0.3112 0.44547 0.0
H696 H 0.66666 0.2258 0.48487 0.0
H697 H 0.70604 0.20486 0.59191 0.0
H698 H 0.67236 0.19724 0.43455 0.0
H699 H 0.71104 0.1766 0.53961 0.0
H700 H 0.74263 0.24889 0.45918 0.0
H701 H 0.70106 0.26354 0.34988 0.0
H702 H 0.59692 0.2158 0.65079 0.0
H703 H 0.63612 0.17137 0.61398 0.0
Li704 Li 0.32952 0.25333 0.61512 0.0
Li705 Li 0.35562 0.23628 0.57911 0.0
Li706 Li 0.35531 0.27181 0.58164 0.0
Li707 Li 0.33143 0.25417 0.52783 0.0
C708 C 0.36287 0.25322 0.68165 0.0
N709 N 0.37743 0.25266 0.77587 0.0
C710 C 0.36713 0.23607 0.70443 0.0
C711 C 0.36604 0.27007 0.70699 0.0
C712 C 0.37447 0.23609 0.75201 0.0
C713 C 0.3734 0.26949 0.75452 0.0
C714 C 0.31577 0.22013 0.59395 0.0
C715 C 0.28463 0.20704 0.60313 0.0
N716 N 0.29011 0.19855 0.64552 0.0
C717 C 0.32114 0.21111 0.63735 0.0
C718 C 0.2974 0.21796 0.57645 0.0
C719 C 0.30796 0.20032 0.66299 0.0
C720 C 0.29313 0.25716 0.65404 0.0
N721 N 0.31118 0.25279 0.66629 0.0
C722 C 0.30246 0.24851 0.75016 0.0
C723 C 0.31595 0.24819 0.71311 0.0
C724 C 0.28399 0.25376 0.73877 0.0
C725 C 0.27924 0.25798 0.69011 0.0
H726 H 0.2896 0.26023 0.61628 0.0
H727 H 0.33014 0.24421 0.72195 0.0
C728 C 0.39032 0.22084 0.60422 0.0
N729 N 0.37269 0.21583 0.5899 0.0
C730 C 0.40228 0.20762 0.62591 0.0
C731 C 0.37826 0.18394 0.61436 0.0
C732 C 0.3667 0.19767 0.59304 0.0
C733 C 0.39603 0.18903 0.63291 0.0
H734 H 0.39457 0.23545 0.60214 0.0
H735 H 0.35257 0.19406 0.58162 0.0
C736 C 0.31666 0.28903 0.59498 0.0
N737 N 0.29336 0.31459 0.64176 0.0
C738 C 0.30111 0.29656 0.5704 0.0
C739 C 0.32047 0.2947 0.64314 0.0
C740 C 0.28948 0.30943 0.59472 0.0
C741 C 0.3085 0.30756 0.66623 0.0
C742 C 0.36593 0.24541 0.48135 0.0
C743 C 0.37764 0.25425 0.44719 0.0
C744 C 0.35972 0.22701 0.47267 0.0
C745 C 0.3829 0.24455 0.40466 0.0
C746 C 0.3653 0.21779 0.42971 0.0
N747 N 0.37667 0.22668 0.39687 0.0
C748 C 0.3897 0.28798 0.60702 0.0
C749 C 0.36484 0.31022 0.60386 0.0
C750 C 0.40148 0.30113 0.62971 0.0
N751 N 0.37163 0.29257 0.59571 0.0
C752 C 0.37613 0.32379 0.62681 0.0
C753 C 0.39453 0.31911 0.64131 0.0
H754 H 0.39458 0.27371 0.6012 0.0
H755 H 0.35041 0.31353 0.59485 0.0
C756 C 0.29639 0.25682 0.48291 0.0
N757 N 0.31488 0.25474 0.47096 0.0
C758 C 0.28247 0.25684 0.4466 0.0
C759 C 0.30674 0.25271 0.38553 0.0
C760 C 0.32027 0.25285 0.42318 0.0
C761 C 0.28749 0.25457 0.39708 0.0
H762 H 0.2924 0.25826 0.52106 0.0
H763 H 0.335 0.25139 0.41409 0.0
O764 O 0.3559 0.25349 0.63468 0.0
O765 O 0.32837 0.23117 0.56909 0.0
O766 O 0.32799 0.27611 0.57209 0.0
O767 O 0.36065 0.25476 0.52307 0.0
H768 H 0.36465 0.22285 0.68592 0.0
H769 H 0.36294 0.28351 0.6903 0.0
H770 H 0.37778 0.22292 0.76999 0.0
H771 H 0.37594 0.28245 0.77442 0.0
H772 H 0.27034 0.20532 0.59012 0.0
H773 H 0.33524 0.21272 0.65158 0.0
H774 H 0.29303 0.22461 0.54265 0.0
H775 H 0.31189 0.19343 0.69689 0.0
H776 H 0.30645 0.24502 0.78745 0.0
H777 H 0.26497 0.26179 0.6802 0.0
H778 H 0.41583 0.21218 0.63972 0.0
H779 H 0.37308 0.16966 0.61783 0.0
H780 H 0.29808 0.29258 0.53289 0.0
H781 H 0.33236 0.28896 0.66274 0.0
H782 H 0.27737 0.31531 0.57619 0.0
H783 H 0.3112 0.31191 0.70366 0.0
H784 H 0.38259 0.26848 0.45346 0.0
H785 H 0.35066 0.21991 0.49865 0.0
H786 H 0.39194 0.25123 0.37784 0.0
H787 H 0.36057 0.20357 0.42246 0.0
H788 H 0.41557 0.29697 0.64033 0.0
H789 H 0.37038 0.33764 0.63426 0.0
H790 H 0.26785 0.25824 0.45734 0.0
H791 H 0.31131 0.2513 0.34776 0.0
Li792 Li 0.15947 0.77129 0.08399 0.0
Li793 Li 0.18354 0.75229 0.11872 0.0
Li794 Li 0.18149 0.75461 0.03004 0.0
Li795 Li 0.15606 0.73703 0.08238 0.0
C796 C 0.19291 0.79205 0.06327 0.0
N797 N 0.20484 0.82731 0.03367 0.0
C798 C 0.20242 0.80383 0.09614 0.0
C799 C 0.1897 0.79812 0.0152 0.0
C800 C 0.20827 0.82163 0.08052 0.0
C801 C 0.19578 0.81601 1.00097 0.0
C802 C 0.15542 0.76261 0.1837 0.0
C803 C 0.14103 0.76507 0.26372 0.0
N804 N 0.15126 0.78089 0.27272 0.0
C805 C 0.16587 0.77884 0.19389 0.0
C806 C 0.14295 0.75562 0.21897 0.0
C807 C 0.16354 0.7879 0.23902 0.0
C808 C 0.12577 0.78773 0.11285 0.0
N809 N 0.14355 0.79268 0.09937 0.0
C810 C 0.13803 0.82439 0.12615 0.0
C811 C 0.14975 0.8107 0.10507 0.0
C812 C 0.11974 0.8195 0.14107 0.0
C813 C 0.11357 0.80095 0.13353 0.0
H814 H 0.12135 0.77322 0.10964 0.0
H815 H 0.16399 0.81438 0.09534 0.0
C816 C 0.21805 0.75858 0.16475 0.0
N817 N 0.20102 0.75015 0.17023 0.0
C818 C 0.23126 0.75771 0.20246 0.0
C819 C 0.20927 0.73909 0.25 0.0
C820 C 0.19639 0.74054 0.21166 0.0
C821 C 0.22687 0.74784 0.24552 0.0
H822 H 0.2213 0.76602 0.13115 0.0
H823 H 0.1827 0.734 0.21485 0.0
C824 C 0.13663 0.76368 0.00933 0.0
N825 N 0.10386 0.78138 0.97979 0.0
C826 C 0.11931 0.75449 0.01376 0.0
C827 C 0.1373 0.78175 0.98898 0.0
C828 C 0.1029 0.7637 0.99883 0.0
C829 C 0.12057 0.7905 0.97456 0.0
C830 C 0.19516 0.71866 0.0942 0.0
C831 C 0.2142 0.71799 0.08133 0.0
C832 C 0.18847 0.70716 0.13205 0.0
C833 C 0.22627 0.70593 0.10686 0.0
C834 C 0.20098 0.69528 0.15667 0.0
N835 N 0.21947 0.69494 0.14371 0.0
C836 C 0.21665 0.7573 0.98583 0.0
C837 C 0.19293 0.75258 0.92602 0.0
C838 C 0.23064 0.75723 0.94969 0.0
N839 N 0.19825 0.75473 0.97375 0.0
C840 C 0.20653 0.75268 0.88841 0.0
C841 C 0.22571 0.75475 0.90022 0.0
H842 H 0.2205 0.75935 0.0239 0.0
H843 H 0.17821 0.75074 0.91714 0.0
C844 C 0.12319 0.72312 0.12142 0.0
N845 N 0.13833 0.71723 0.09504 0.0
C846 C 0.11096 0.71012 0.14276 0.0
C847 C 0.1296 0.68501 0.10779 0.0
C848 C 0.14159 0.69858 0.08713 0.0
C849 C 0.11418 0.69074 0.13672 0.0
H850 H 0.12111 0.73801 0.12788 0.0
H851 H 0.15398 0.69422 0.06696 0.0
O852 O 0.18722 0.77454 0.07804 0.0
O853 O 0.15735 0.75357 0.13951 0.0
O854 O 0.15278 0.75495 0.02464 0.0
O855 O 0.18318 0.73074 0.07057 0.0
H856 H 0.20517 0.79931 0.1334 0.0
H857 H 0.18273 0.78907 0.98901 0.0
H858 H 0.21554 0.83093 0.10563 0.0
H859 H 0.19335 0.82089 0.96389 0.0
H860 H 0.13141 0.75983 0.29131 0.0
H861 H 0.17564 0.78442 0.16722 0.0
H862 H 0.13486 0.74299 0.21196 0.0
H863 H 0.17149 0.8005 0.24726 0.0
H864 H 0.14329 0.83856 0.13152 0.0
H865 H 0.09971 0.79651 0.14543 0.0
H866 H 0.24478 0.76459 0.19805 0.0
H867 H 0.20544 0.73154 0.28309 0.0
H868 H 0.11853 0.74038 0.02846 0.0
H869 H 0.15051 0.78909 0.985 0.0
H870 H 0.0894 0.75677 1.00234 0.0
H871 H 0.12088 0.80456 0.95927 0.0
H872 H 0.21963 0.72669 0.05207 0.0
H873 H 0.17386 0.70773 0.14314 0.0
H874 H 0.24105 0.70533 0.0974 0.0
H875 H 0.19602 0.68645 0.18632 0.0
H876 H 0.2452 0.75923 0.96031 0.0
H877 H 0.20215 0.75083 0.85062 0.0
H878 H 0.09962 0.71525 0.16578 0.0
H879 H 0.13262 0.6702 0.10229 0.0
Li880 Li 0.18408 0.25576 0.11713 0.0
Li881 Li 0.16163 0.2745 0.06437 0.0
Li882 Li 0.16163 0.24136 0.06068 0.0
Li883 Li 0.18775 0.25774 0.02635 0.0
C884 C 0.14422 0.24415 0.14231 0.0
N885 N 0.12111 0.21705 0.18313 0.0
C886 C 0.1249 0.24431 0.13267 0.0
C887 C 0.15175 0.23033 0.17307 0.0
C888 C 0.11345 0.23045 0.15355 0.0
C889 C 0.13985 0.21673 0.19329 0.0
C890 C 0.19223 0.29419 0.1039 0.0
C891 C 0.20819 0.32351 0.12031 0.0
N892 N 0.19803 0.32549 0.16236 0.0
C893 C 0.1819 0.29654 0.14721 0.0
C894 C 0.20546 0.30778 0.09026 0.0
C895 C 0.18507 0.31245 0.1763 0.0
C896 C 0.21892 0.25212 0.16106 0.0
N897 N 0.20056 0.2547 0.17366 0.0
C898 C 0.20911 0.25654 0.2588 0.0
C899 C 0.19543 0.25698 0.22149 0.0
C900 C 0.22821 0.2537 0.24675 0.0
C901 C 0.23297 0.2516 0.19696 0.0
H902 H 0.22267 0.25064 0.12273 0.0
H903 H 0.18079 0.25927 0.2307 0.0
C904 C 0.12764 0.29004 0.03907 0.0
N905 N 0.14521 0.29552 0.0527 0.0
C906 C 0.11552 0.30263 0.01578 0.0
C907 C 0.13939 0.32671 0.02262 0.0
C908 C 0.15112 0.3136 0.04605 0.0
C909 C 0.1216 0.32101 0.00552 0.0
H910 H 0.12357 0.27546 0.04289 0.0
H911 H 0.16538 0.31751 0.05539 0.0
C912 C 0.19034 0.21635 0.07025 0.0
N913 N 0.19342 0.17756 0.07254 0.0
C914 C 0.18892 0.20592 0.02685 0.0
C915 C 0.19357 0.20708 0.11473 0.0
C916 C 0.19044 0.18631 0.0288 0.0
C917 C 0.19503 0.18745 0.11515 0.0
C918 C 0.16084 0.2702 0.9639 0.0
C919 C 0.14919 0.26542 0.9244 0.0
C920 C 0.17152 0.28675 0.96153 0.0
C921 C 0.14814 0.27741 0.88381 0.0
C922 C 0.1701 0.29834 0.92028 0.0
N923 N 0.1585 0.2935 0.88263 0.0
C924 C 0.13145 0.22686 0.01071 0.0
C925 C 0.14444 0.20298 0.06074 0.0
C926 C 0.11939 0.21401 0.98834 0.0
N927 N 0.14424 0.22114 0.04462 0.0
C928 C 0.13221 0.1896 0.04001 0.0
C929 C 0.1198 0.19496 1.00207 0.0
H930 H 0.13078 0.24148 1.00027 0.0
H931 H 0.15421 0.19875 0.08906 0.0
C932 C 0.22082 0.26907 0.97721 0.0
N933 N 0.20536 0.25783 0.97526 0.0
C934 C 0.23354 0.2692 0.93819 0.0
C935 C 0.21422 0.24604 0.89663 0.0
C936 C 0.20177 0.24655 0.93606 0.0
C937 C 0.23025 0.25752 0.89754 0.0
H938 H 0.2232 0.27788 0.009 0.0
H939 H 0.18914 0.23807 0.93536 0.0
O940 O 0.1558 0.25719 0.12103 0.0
O941 O 0.1894 0.27877 0.07462 0.0
O942 O 0.189 0.23556 0.06913 0.0
O943 O 0.16162 0.25876 0.00452 0.0
H944 H 0.1188 0.2549 0.10906 0.0
H945 H 0.16666 0.23003 0.18095 0.0
H946 H 0.09849 0.23032 0.14614 0.0
H947 H 0.14552 0.20589 0.21694 0.0
H948 H 0.21838 0.33414 0.11018 0.0
H949 H 0.17156 0.28625 0.15839 0.0
H950 H 0.21349 0.30624 0.0567 0.0
H951 H 0.1772 0.31443 0.20994 0.0
H952 H 0.2048 0.2583 0.29668 0.0
H953 H 0.24749 0.24992 0.18564 0.0
H954 H 0.10181 0.29776 1.0039 0.0
H955 H 0.1446 0.34076 0.01523 0.0
H956 H 0.18641 0.21285 0.99215 0.0
H957 H 0.19498 0.21495 0.14857 0.0
H958 H 0.1892 0.17804 0.99557 0.0
H959 H 0.19745 0.18009 0.14933 0.0
H960 H 0.14101 0.25258 0.92484 0.0
H961 H 0.18075 0.29075 0.99119 0.0
H962 H 0.13908 0.2739 0.85321 0.0
H963 H 0.17819 0.31122 0.91825 0.0
H964 H 0.11008 0.21901 0.95969 0.0
H965 H 0.13252 0.17529 0.05357 0.0
H966 H 0.24592 0.2781 0.93994 0.0
H967 H 0.21131 0.23696 0.86556 0.0
Li968 Li 0.35218 0.7362 0.56569 0.0
Li969 Li 0.3278 0.75378 0.61606 0.0
Li970 Li 0.32471 0.75131 0.52969 0.0
Li971 Li 0.34929 0.77057 0.56111 0.0
C972 C 0.3128 0.71791 0.55599 0.0
N973 N 0.28743 0.69422 0.51002 0.0
C974 C 0.29446 0.71616 0.57401 0.0
C975 C 0.31828 0.70746 0.51484 0.0
C976 C 0.28183 0.70415 0.55019 0.0
C977 C 0.30524 0.6956 0.49205 0.0
C978 C 0.36262 0.74686 0.66198 0.0
C979 C 0.37904 0.74828 0.73938 0.0
N980 N 0.37449 0.72996 0.74791 0.0
C981 C 0.3581 0.72804 0.67147 0.0
C982 C 0.37317 0.75707 0.69612 0.0
C983 C 0.36425 0.71976 0.71514 0.0
C984 C 0.38739 0.72262 0.53935 0.0
N985 N 0.37022 0.71656 0.55466 0.0
C986 C 0.37759 0.68502 0.53005 0.0
C987 C 0.36538 0.69804 0.55206 0.0
C988 C 0.39495 0.69114 0.51093 0.0
C989 C 0.40002 0.71011 0.51731 0.0
H990 H 0.39079 0.73746 0.54146 0.0
H991 H 0.3516 0.69356 0.56421 0.0
C992 C 0.29312 0.75672 0.66227 0.0
N993 N 0.31166 0.75477 0.6737 0.0
C994 C 0.27935 0.75685 0.69901 0.0
C995 C 0.30394 0.7539 0.75953 0.0
C996 C 0.31729 0.75361 0.7214 0.0
C997 C 0.28458 0.75521 0.74859 0.0
H998 H 0.28897 0.75792 0.62417 0.0
H999 H 0.33208 0.75244 0.73006 0.0
C1000 C 0.35524 0.76139 0.465 0.0
N1001 N 0.36529 0.78127 0.38175 0.0
C1002 C 0.34331 0.77532 0.44634 0.0
C1003 C 0.37227 0.75755 0.44122 0.0
C1004 C 0.34863 0.7852 0.40421 0.0
C1005 C 0.3771 0.76777 0.39922 0.0
C1006 C 0.31874 0.79072 0.59439 0.0
C1007 C 0.30422 0.80286 0.58038 0.0
C1008 C 0.3301 0.79537 0.63453 0.0
C1009 C 0.3013 0.81949 0.60678 0.0
C1010 C 0.32672 0.81212 0.66001 0.0
N1011 N 0.31251 0.82374 0.64572 0.0
C1012 C 0.28951 0.75679 0.48681 0.0
C1013 C 0.31131 0.74031 0.43644 0.0
C1014 C 0.27595 0.75604 0.44993 0.0
N1015 N 0.30676 0.74906 0.47926 0.0
C1016 C 0.2981 0.73901 0.39883 0.0
C1017 C 0.28026 0.74705 0.40546 0.0
H1018 H 0.2864 0.76367 0.52134 0.0
H1019 H 0.32523 0.73442 0.43152 0.0
C1020 C 0.38362 0.78833 0.54441 0.0
N1021 N 0.36479 0.7917 0.5444 0.0
C1022 C 0.39588 0.80043 0.51962 0.0
C1023 C 0.36928 0.81984 0.49739 0.0
C1024 C 0.3575 0.80737 0.52276 0.0
C1025 C 0.38865 0.81602 0.49403 0.0
H1026 H 0.38897 0.77554 0.56089 0.0
H1027 H 0.34242 0.80944 0.52186 0.0
O1028 O 0.3253 0.72986 0.57824 0.0
O1029 O 0.35664 0.75544 0.61985 0.0
O1030 O 0.35061 0.75197 0.50719 0.0
O1031 O 0.32163 0.7744 0.5687 0.0
H1032 H 0.29001 0.72392 0.60611 0.0
H1033 H 0.33232 0.70886 0.49986 0.0
H1034 H 0.26757 0.70272 0.56369 0.0
H1035 H 0.30925 0.6876 0.45987 0.0
H1036 H 0.38718 0.75603 0.76619 0.0
H1037 H 0.34987 0.71992 0.64564 0.0
H1038 H 0.37672 0.77167 0.68931 0.0
H1039 H 0.36084 0.70522 0.72302 0.0
H1040 H 0.37299 0.67059 0.52543 0.0
H1041 H 0.41333 0.7154 0.50362 0.0
H1042 H 0.26469 0.75788 0.68848 0.0
H1043 H 0.30878 0.75324 0.79717 0.0
H1044 H 0.33025 0.77875 0.46473 0.0
H1045 H 0.38172 0.74688 0.45514 0.0
H1046 H 0.33959 0.79609 0.38959 0.0
H1047 H 0.39027 0.765 0.38057 0.0
H1048 H 0.29531 0.79946 0.54937 0.0
H1049 H 0.34139 0.7862 0.64607 0.0
H1050 H 0.29012 0.82902 0.59631 0.0
H1051 H 0.33538 0.81588 0.69115 0.0
H1052 H 0.26227 0.7624 0.45595 0.0
H1053 H 0.30188 0.7322 0.36461 0.0
H1054 H 0.41077 0.79719 0.51882 0.0
H1055 H 0.36316 0.83168 0.47807 0.0
Li1056 Li 0.52396 0.09831 0.81098 0.0
Li1057 Li 0.48967 0.09822 0.80912 0.0
Li1058 Li 0.50638 0.07561 0.86609 0.0
Li1059 Li 0.50576 0.07129 0.7763 0.0
C1060 C 0.51599 0.10987 0.90866 0.0
N1061 N 0.53502 0.12002 0.99308 0.0
C1062 C 0.50686 0.12028 0.94517 0.0
C1063 C 0.53479 0.10465 0.91503 0.0
C1064 C 0.51672 0.12527 0.98761 0.0
C1065 C 0.54417 0.10991 0.95796 0.0
C1066 C 0.50045 0.10926 0.71834 0.0
C1067 C 0.47842 0.11627 0.65338 0.0
N1068 N 0.48559 0.13398 0.6501 0.0
C1069 C 0.50768 0.1275 0.71397 0.0
C1070 C 0.48581 0.10355 0.68741 0.0
C1071 C 0.49997 0.13979 0.67935 0.0
C1072 C 0.55815 0.10756 0.76405 0.0
N1073 N 0.54527 0.11409 0.79693 0.0
C1074 C 0.55738 0.1454 0.78888 0.0
C1075 C 0.54501 0.13253 0.81071 0.0
C1076 C 0.57023 0.13912 0.75324 0.0
C1077 C 0.57101 0.11986 0.74215 0.0
H1078 H 0.5576 0.0931 0.75209 0.0
H1079 H 0.53423 0.13751 0.83561 0.0
C1080 C 0.45235 0.10789 0.77883 0.0
N1081 N 0.469 0.1149 0.79541 0.0
C1082 C 0.43926 0.11976 0.75611 0.0
C1083 C 0.46026 0.14597 0.77017 0.0
C1084 C 0.47287 0.13364 0.79299 0.0
C1085 C 0.4434 0.13898 0.7503 0.0
H1086 H 0.44969 0.09293 0.78057 0.0
H1087 H 0.48635 0.1388 0.80568 0.0
C1088 C 0.54461 0.0622 0.8191 0.0
N1089 N 0.57916 0.04432 0.81515 0.0
C1090 C 0.55192 0.05615 0.77406 0.0
C1091 C 0.55482 0.05899 0.86218 0.0
C1092 C 0.56942 0.0472 0.77281 0.0
C1093 C 0.57227 0.04997 0.8594 0.0
C1094 C 0.47319 0.05624 0.80953 0.0
C1095 C 0.47078 0.04109 0.84174 0.0
C1096 C 0.4645 0.05578 0.76348 0.0
C1097 C 0.46011 0.02557 0.82688 0.0
C1098 C 0.45397 0.03999 0.74992 0.0
N1099 N 0.45204 0.02533 0.78162 0.0
C1100 C 0.50121 0.06434 0.96959 0.0
C1101 C 0.51343 0.04188 0.91369 0.0
C1102 C 0.50123 0.05083 0.0074 0.0
N1103 N 0.50719 0.0596 0.92368 0.0
C1104 C 0.51368 0.02804 0.95013 0.0
C1105 C 0.50745 0.03232 0.99779 0.0
H1106 H 0.49606 0.07842 0.97666 0.0
H1107 H 0.51779 0.03832 0.87678 0.0
C1108 C 0.50943 0.05758 0.68044 0.0
N1109 N 0.50663 0.05242 0.72791 0.0
C1110 C 0.51016 0.04395 0.64372 0.0
C1111 C 0.50534 0.01995 0.70561 0.0
C1112 C 0.505 0.03404 0.74127 0.0
C1113 C 0.50796 0.02494 0.65631 0.0
H1114 H 0.5112 0.07227 0.67117 0.0
H1115 H 0.50331 0.03038 0.77955 0.0
O1116 O 0.50637 0.10463 0.86734 0.0
O1117 O 0.50758 0.09711 0.75279 0.0
O1118 O 0.52733 0.07071 0.82122 0.0
O1119 O 0.48378 0.07148 0.82334 0.0
H1120 H 0.49227 0.12438 0.94081 0.0
H1121 H 0.5421 0.09671 0.88708 0.0
H1122 H 0.50982 0.1333 0.01623 0.0
H1123 H 0.55873 0.10597 0.96335 0.0
H1124 H 0.46698 0.11206 0.62957 0.0
H1125 H 0.51899 0.13223 0.73729 0.0
H1126 H 0.48013 0.08948 0.68975 0.0
H1127 H 0.50538 0.15397 0.67587 0.0
H1128 H 0.55635 0.16023 0.79798 0.0
H1129 H 0.58058 0.11461 0.71433 0.0
H1130 H 0.42652 0.11378 0.74082 0.0
H1131 H 0.46394 0.16072 0.76655 0.0
H1132 H 0.54426 0.05852 0.74033 0.0
H1133 H 0.54931 0.06333 0.89747 0.0
H1134 H 0.57527 0.04254 0.73817 0.0
H1135 H 0.58032 0.04742 0.89245 0.0
H1136 H 0.47694 0.04135 0.87798 0.0
H1137 H 0.46608 0.06736 0.73818 0.0
H1138 H 0.45822 0.01373 0.85139 0.0
H1139 H 0.44737 0.03939 0.71417 0.0
H1140 H 0.49598 0.05471 0.04334 0.0
H1141 H 0.51865 0.01405 0.94097 0.0
H1142 H 0.51214 0.0482 0.60585 0.0
H1143 H 0.50371 0.00535 0.71634 0.0
Li1144 Li 1.00366 0.9366 0.29015 0.0
Li1145 Li 0.00628 0.93001 0.37572 0.0
Li1146 Li 0.02356 0.91062 0.31092 0.0
Li1147 Li 0.98906 0.90821 0.31749 0.0
C1148 C 0.03657 0.95285 0.31391 0.0
N1149 N 0.05539 0.98428 0.27926 0.0
C1150 C 0.03774 0.96915 0.34267 0.0
C1151 C 0.04509 0.95256 0.26762 0.0
C1152 C 0.04731 0.98487 0.32452 0.0
C1153 C 0.05448 0.96859 0.25069 0.0
C1154 C 0.97235 0.95039 0.33449 0.0
C1155 C 0.94415 0.96668 0.30929 0.0
N1156 N 0.9511 0.98295 0.32843 0.0
C1157 C 0.97914 0.96727 0.35416 0.0
C1158 C 0.95465 0.95007 0.31215 0.0
C1159 C 0.96822 0.98358 0.35067 0.0
C1160 C 0.99637 0.95082 0.19723 0.0
N1161 N 1.00064 0.95636 0.24363 0.0
C1162 C 1.00255 0.98847 0.21824 0.0
C1163 C 1.00328 0.97484 0.25491 0.0
C1164 C 0.99925 0.98296 0.16956 0.0
C1165 C 0.99568 0.96394 0.15931 0.0
H1166 H 0.99386 0.93615 0.1895 0.0
H1167 H 0.00639 0.97905 0.29203 0.0
C1168 C 0.02343 0.94851 0.45808 0.0
N1169 N 0.00674 0.94245 0.4393 0.0
C1170 C 0.02378 0.96208 0.49558 0.0
C1171 C 0.98981 0.96176 0.49652 0.0
C1172 C 0.99011 0.94814 0.45931 0.0
C1173 C 0.00679 0.96948 0.51377 0.0
H1174 H 0.03648 0.94388 0.4415 0.0
H1175 H 0.97699 0.94314 0.44395 0.0
C1176 C 0.00514 0.89477 0.2335 0.0
N1177 N 0.00696 0.86067 0.18427 0.0
C1178 C 0.00741 0.87793 0.25957 0.0
C1179 C 1.00389 0.89417 0.18224 0.0
C1180 C 0.00827 0.86087 0.23408 0.0
C1181 C 0.00482 0.87682 0.15808 0.0
C1182 C 1.0001 0.89329 0.40962 0.0
C1183 C 0.00947 0.87924 0.43594 0.0
C1184 C 0.9822 0.89912 0.4246 0.0
C1185 C 1.00077 0.87129 0.47703 0.0
C1186 C 0.97398 0.89083 0.46589 0.0
N1187 N 0.98336 0.8772 0.49104 0.0
C1188 C 0.05369 0.88277 0.31657 0.0
C1189 C 0.0501 0.89934 0.24166 0.0
C1190 C 0.06698 0.87072 0.29474 0.0
N1191 N 0.04535 0.89657 0.28954 0.0
C1192 C 0.06311 0.88764 0.21851 0.0
C1193 C 0.07137 0.87281 0.24467 0.0
H1194 H 0.0494 0.88054 0.35424 0.0
H1195 H 0.04287 0.90991 0.22033 0.0
C1196 C 0.9573 0.89803 0.26492 0.0
N1197 N 0.96843 0.89169 0.30203 0.0
C1198 C 0.94411 0.88614 0.24293 0.0
C1199 C 0.95421 0.86116 0.29705 0.0
C1200 C 0.96699 0.87368 0.31881 0.0
C1201 C 0.94272 0.86737 0.25831 0.0
H1202 H 0.95948 0.91201 0.25036 0.0
H1203 H 0.9765 0.8687 0.34695 0.0
O1204 O 0.02718 0.93731 0.33097 0.0
O1205 O 0.98278 0.93421 0.33811 0.0
O1206 O 1.00457 0.91177 0.25765 0.0
O1207 O 0.00848 0.90114 0.36929 0.0
H1208 H 0.03102 0.96987 0.37819 0.0
H1209 H 0.04417 0.94026 0.24456 0.0
H1210 H 0.0482 0.99759 0.3463 0.0
H1211 H 0.06097 0.96857 0.21473 0.0
H1212 H 0.93044 0.96661 0.29202 0.0
H1213 H 0.99288 0.96789 0.37113 0.0
H1214 H 0.94894 0.93712 0.29758 0.0
H1215 H 0.97339 0.99674 0.36546 0.0
H1216 H 0.00484 1.00311 0.22776 0.0
H1217 H 0.99298 0.95917 0.12218 0.0
H1218 H 0.03718 0.96754 0.50809 0.0
H1219 H 0.9764 0.96672 0.5104 0.0
H1220 H 0.00863 0.87795 0.29908 0.0
H1221 H 1.00239 0.90695 0.16107 0.0
H1222 H 0.01002 0.84779 0.25391 0.0
H1223 H 1.00389 0.87621 0.11845 0.0
H1224 H 0.02332 0.87454 0.4247 0.0
H1225 H 0.97463 0.90984 0.40451 0.0
H1226 H 0.00787 0.86041 0.49777 0.0
H1227 H 0.96013 0.89521 0.4779 0.0
H1228 H 0.07305 0.85935 0.316 0.0
H1229 H 0.06622 0.88976 0.17994 0.0
H1230 H 0.93578 0.89128 0.21243 0.0
H1231 H 0.95364 0.84667 0.3094 0.0
Li1232 Li 0.50584 0.92808 0.27447 0.0
Li1233 Li 0.5028 0.93049 0.36244 0.0
Li1234 Li 0.52213 0.90551 0.33264 0.0
Li1235 Li 0.4871 0.90321 0.32644 0.0
C1236 C 0.53395 0.94895 0.34115 0.0
N1237 N 0.54824 0.98166 0.38174 0.0
C1238 C 0.52589 0.96637 0.32977 0.0
C1239 C 0.54941 0.94819 0.37286 0.0
C1240 C 0.53328 0.98274 0.35074 0.0
C1241 C 0.5564 0.96488 0.39308 0.0
C1242 C 0.46859 0.94417 0.31959 0.0
C1243 C 0.43915 0.95489 0.35403 0.0
N1244 N 0.44143 0.97175 0.33111 0.0
C1245 C 0.47061 0.96163 0.29638 0.0
C1246 C 0.4527 0.94078 0.34864 0.0
C1247 C 0.45674 0.97537 0.30265 0.0
C1248 C 0.49133 0.94632 0.18775 0.0
N1249 N 0.50702 0.94324 0.2153 0.0
C1250 C 0.52379 0.96691 0.17015 0.0
C1251 C 0.52322 0.95287 0.20625 0.0
C1252 C 0.50751 0.97118 0.143 0.0
C1253 C 0.49128 0.96026 0.15123 0.0
H1254 H 0.47854 0.93867 0.19593 0.0
H1255 H 0.53554 0.9502 0.22849 0.0
C1256 C 0.51549 0.94433 0.45171 0.0
N1257 N 0.5019 0.94739 0.41742 0.0
C1258 C 0.51702 0.95604 0.49254 0.0
C1259 C 0.4902 0.97365 0.46307 0.0
C1260 C 0.48936 0.96175 0.42243 0.0
C1261 C 0.50428 0.97091 0.49824 0.0
H1262 H 0.52544 0.93298 0.44674 0.0
H1263 H 0.47888 0.96436 0.39495 0.0
C1264 C 0.51825 0.88625 0.25245 0.0
N1265 N 0.54357 0.86009 0.21676 0.0
C1266 C 0.51494 0.86702 0.25917 0.0
C1267 C 0.53436 0.8922 0.22744 0.0
C1268 C 0.52793 0.85401 0.24087 0.0
C1269 C 0.54701 0.87874 0.2097 0.0
C1270 C 0.49847 0.9021 0.43187 0.0
C1271 C 0.51194 0.89654 0.46635 0.0
C1272 C 0.47998 0.90551 0.44701 0.0
C1273 C 0.50669 0.8946 0.51554 0.0
C1274 C 0.47528 0.90339 0.49651 0.0
N1275 N 0.48862 0.89804 0.52948 0.0
C1276 C 0.56122 0.89507 0.34962 0.0
C1277 C 0.53773 0.87271 0.3698 0.0
C1278 C 0.57502 0.88401 0.3726 0.0
N1279 N 0.54291 0.88946 0.34981 0.0
C1280 C 0.55099 0.86123 0.39285 0.0
C1281 C 0.56986 0.86703 0.39566 0.0
H1282 H 0.565 0.90849 0.33365 0.0
H1283 H 0.52305 0.86867 0.36995 0.0
C1284 C 0.4485 0.88962 0.33004 0.0
N1285 N 0.46705 0.88558 0.33676 0.0
C1286 C 0.43463 0.87782 0.35003 0.0
C1287 C 0.45922 0.85741 0.38039 0.0
C1288 C 0.47255 0.86963 0.36037 0.0
C1289 C 0.43999 0.86165 0.37634 0.0
H1290 H 0.44446 0.9024 0.31127 0.0
H1291 H 0.48737 0.86697 0.36612 0.0
O1292 O 0.52654 0.93272 0.32199 0.0
O1293 O 0.48191 0.93042 0.3133 0.0
O1294 O 0.50607 0.89924 0.27152 0.0
O1295 O 0.50338 0.90416 0.38356 0.0
H1296 H 0.5139 0.96722 0.30549 0.0
H1297 H 0.5557 0.93485 0.38262 0.0
H1298 H 0.52708 0.99629 0.34249 0.0
H1299 H 0.56823 0.96448 0.41804 0.0
H1300 H 0.42683 0.95245 0.37653 0.0
H1301 H 0.48281 0.96467 0.27413 0.0
H1302 H 0.45088 0.92749 0.36726 0.0
H1303 H 0.45818 0.98894 0.28498 0.0
H1304 H 0.53677 0.97456 0.16415 0.0
H1305 H 0.47842 0.96302 0.13111 0.0
H1306 H 0.52805 0.95358 0.51923 0.0
H1307 H 0.48027 0.98517 0.46638 0.0
H1308 H 0.50255 0.86223 0.27867 0.0
H1309 H 0.53715 0.90707 0.22229 0.0
H1310 H 0.52561 0.83908 0.24597 0.0
H1311 H 0.5596 0.88313 0.19047 0.0
H1312 H 0.52635 0.89395 0.45535 0.0
H1313 H 0.4694 0.90978 0.42084 0.0
H1314 H 0.51698 0.89039 0.54265 0.0
H1315 H 0.46102 0.90601 0.50872 0.0
H1316 H 0.58936 0.88913 0.37432 0.0
H1317 H 0.54642 0.84818 0.40963 0.0
H1318 H 0.41992 0.88153 0.34607 0.0
H1319 H 0.46396 0.84528 0.4011 0.0
Li1320 Li 0.02303 0.1021 0.83605 0.0
Li1321 Li 0.98797 0.09913 0.83452 0.0
Li1322 Li 0.00684 0.0741 0.86938 0.0
Li1323 Li 0.00565 0.07767 0.78061 0.0
C1324 C 1.0045 0.09992 0.94042 0.0
N1325 N 1.00327 0.09824 0.04181 0.0
C1326 C 0.98732 0.1017 0.96514 0.0
C1327 C 0.02105 0.09739 0.96735 0.0
C1328 C 0.987 0.10081 0.01639 0.0
C1329 C 0.02014 0.09653 0.01855 0.0
C1330 C 0.99835 0.1238 0.7648 0.0
C1331 C 0.97333 0.14319 0.73257 0.0
N1332 N 0.98397 0.1588 0.74067 0.0
C1333 C 0.00911 0.14004 0.77225 0.0
C1334 C 0.98037 0.12537 0.74426 0.0
C1335 C 1.00157 0.1576 0.76001 0.0
C1336 C 0.06079 0.11953 0.8373 0.0
N1337 N 0.04261 0.11974 0.85316 0.0
C1338 C 0.04972 0.144 0.91128 0.0
C1339 C 0.0369 0.13208 0.88834 0.0
C1340 C 0.06874 0.14383 0.89717 0.0
C1341 C 0.07413 0.13167 0.85861 0.0
H1342 H 0.06505 0.10964 0.80915 0.0
H1343 H 0.02235 0.1323 0.89985 0.0
C1344 C 0.94887 0.10897 0.85713 0.0
N1345 N 0.96692 0.11502 0.85122 0.0
C1346 C 0.93569 0.12031 0.88162 0.0
C1347 C 0.95964 0.14415 0.89129 0.0
C1348 C 0.97232 0.13239 0.86696 0.0
C1349 C 0.94125 0.13789 0.90057 0.0
H1350 H 0.94491 0.09499 0.84555 0.0
H1351 H 0.98684 0.13669 0.86317 0.0
C1352 C 0.04448 0.06508 0.8339 0.0
N1353 N 0.07686 0.045 0.85467 0.0
C1354 C 0.04808 0.04801 0.81002 0.0
C1355 C 0.05744 0.07199 0.8681 0.0
C1356 C 0.0645 0.03805 0.82112 0.0
C1357 C 0.0737 0.06162 0.87815 0.0
C1358 C 0.96791 0.06708 0.80499 0.0
C1359 C 0.95469 0.05623 0.83044 0.0
C1360 C 0.96396 0.07307 0.75724 0.0
C1361 C 0.93758 0.05184 0.80789 0.0
C1362 C 0.94671 0.06836 0.73593 0.0
N1363 N 0.93397 0.05795 0.76151 0.0
C1364 C 0.99009 0.05549 0.94626 0.0
C1365 C 0.0218 0.046 0.93506 0.0
C1366 C 0.98843 0.0441 0.98761 0.0
N1367 N 0.00668 0.05651 0.92152 0.0
C1368 C 0.02071 0.03425 0.97586 0.0
C1369 C 1.00397 0.0335 1.00315 0.0
H1370 H 0.97825 0.06391 0.93437 0.0
H1371 H 0.03475 0.04669 0.91471 0.0
C1372 C 0.00954 0.06548 0.67682 0.0
N1373 N 0.00631 0.06081 0.72458 0.0
C1374 C 0.00978 0.05141 0.64036 0.0
C1375 C 1.00342 0.02819 0.70291 0.0
C1376 C 1.00316 0.0426 0.73784 0.0
C1377 C 0.00674 0.03243 0.65335 0.0
H1378 H 0.012 0.08004 0.66703 0.0
H1379 H 1.0006 0.03925 0.77602 0.0
O1380 O 0.0051 0.10047 0.89014 0.0
O1381 O 0.0055 0.10652 0.77726 0.0
O1382 O 0.02856 0.07512 0.82312 0.0
O1383 O 0.98474 0.07143 0.82657 0.0
H1384 H 0.97433 0.10349 0.94508 0.0
H1385 H 0.03446 0.09601 0.94893 0.0
H1386 H 0.9738 0.10209 0.03593 0.0
H1387 H 0.03284 0.09449 0.03979 0.0
H1388 H 0.95937 0.1446 0.71714 0.0
H1389 H 0.02317 0.13914 0.78713 0.0
H1390 H 0.97178 0.11308 0.73804 0.0
H1391 H 0.00973 0.17027 0.76583 0.0
H1392 H 0.04476 0.15297 0.94077 0.0
H1393 H 0.08846 0.13143 0.84513 0.0
H1394 H 0.92161 0.11498 0.88798 0.0
H1395 H 0.9644 0.15776 0.90429 0.0
H1396 H 0.03833 0.0425 0.78318 0.0
H1397 H 0.05491 0.0851 0.88708 0.0
H1398 H 0.06743 0.0248 0.80299 0.0
H1399 H 0.08379 0.06677 0.90469 0.0
H1400 H 0.95759 0.05133 0.86728 0.0
H1401 H 0.97419 0.08107 0.73662 0.0
H1402 H 0.92719 0.04354 0.82725 0.0
H1403 H 0.94348 0.07293 0.69899 0.0
H1404 H 0.97525 0.04381 0.00767 0.0
H1405 H 0.03281 0.0258 0.98584 0.0
H1406 H 0.0126 0.05529 0.60262 0.0
H1407 H 1.00088 0.01382 0.71456 0.0
C1408 C 0.11069 0.66203 0.19025 0.0
C1409 C 0.10226 0.67679 0.16351 0.0
C1410 C 0.09984 0.64969 0.21913 0.0
C1411 C 0.0802 0.65179 0.22276 0.0
H1412 H 0.12583 0.66027 0.18991 0.0
H1413 H 0.1069 0.63866 0.23951 0.0
S1414 S 0.05099 0.68658 0.15568 0.0
N1415 N 0.07281 0.69159 0.13924 0.0
N1416 N 0.05259 0.6687 0.19417 0.0
C1417 C 0.07154 0.6661 0.19519 0.0
C1418 C 0.08252 0.67852 0.16545 0.0
C1419 C 0.57845 0.84938 0.47232 0.0
C1420 C 0.58359 0.85588 0.42526 0.0
C1421 C 0.59071 0.83833 0.50062 0.0
C1422 C 0.6087 0.83342 0.48325 0.0
H1423 H 0.56479 0.85287 0.4875 0.0
H1424 H 0.58605 0.83354 0.53639 0.0
S1425 S 0.62877 0.84602 0.36177 0.0
N1426 N 0.6078 0.85607 0.36212 0.0
N1427 N 0.63089 0.83541 0.41545 0.0
C1428 C 0.61412 0.8399 0.43647 0.0
C1429 C 0.60158 0.85111 0.4075 0.0
C1430 C 0.43641 0.34874 0.68155 0.0
C1431 C 0.42994 0.35763 0.72467 0.0
C1432 C 0.42488 0.33639 0.65484 0.0
C1433 C 0.40632 0.33258 0.6698 0.0
H1434 H 0.4506 0.35123 0.66851 0.0
H1435 H 0.4305 0.32986 0.62196 0.0
S1436 S 0.38262 0.352 0.78034 0.0
N1437 N 0.40377 0.36167 0.78121 0.0
N1438 N 0.3821 0.33836 0.73119 0.0
C1439 C 0.39966 0.34132 0.71291 0.0
C1440 C 0.41147 0.35381 0.74035 0.0
C1441 C 0.89778 0.16458 0.94456 0.0
C1442 C 0.90384 0.17272 0.98904 0.0
C1443 C 0.90979 0.15308 0.91649 0.0
C1444 C 0.92833 0.14931 0.93183 0.0
H1445 H 0.88382 0.16757 0.93059 0.0
H1446 H 0.9047 0.14751 0.88191 0.0
S1447 S 0.95016 0.16522 0.0486 0.0
N1448 N 0.92902 0.1749 0.04905 0.0
N1449 N 0.95151 0.15319 0.9968 0.0
C1450 C 0.93428 0.15678 0.9772 0.0
C1451 C 0.92208 0.16851 0.00562 0.0
C1452 C 0.09348 0.36363 0.96192 0.0
C1453 C 0.08522 0.35709 0.91807 0.0
C1454 C 0.1056 0.3521 0.98959 0.0
C1455 C 0.10984 0.33362 0.97439 0.0
H1456 H 0.09005 0.37752 0.97581 0.0
H1457 H 0.11121 0.35746 0.02385 0.0
S1458 S 0.09402 0.31089 0.85873 0.0
N1459 N 0.08359 0.33168 0.85847 0.0
N1460 N 0.10643 0.31013 0.90994 0.0
C1461 C 0.10237 0.32729 0.92942 0.0
C1462 C 0.09004 0.33898 0.90145 0.0
C1463 C 0.93824 0.83852 0.20672 0.0
C1464 C 0.93037 0.85407 0.23126 0.0
C1465 C 0.92699 0.82625 0.1789 0.0
C1466 C 0.90736 0.82889 0.17496 0.0
H1467 H 0.95328 0.83603 0.20835 0.0
H1468 H 0.93378 0.81465 0.16007 0.0
S1469 S 0.87987 0.86697 0.23544 0.0
N1470 N 0.9019 0.87132 0.2511 0.0
N1471 N 0.88054 0.84791 0.20065 0.0
C1472 C 0.89933 0.84433 0.20004 0.0
C1473 C 0.91088 0.85697 0.22775 0.0
C1474 C 0.41432 0.68461 0.43559 0.0
C1475 C 0.40706 0.67834 0.48093 0.0
C1476 C 0.42567 0.67296 0.40625 0.0
C1477 C 0.43015 0.6545 0.42082 0.0
H1478 H 0.41106 0.69863 0.42238 0.0
H1479 H 0.43094 0.67843 0.37174 0.0
S1480 S 0.4158 0.63163 0.53753 0.0
N1481 N 0.40589 0.65266 0.53983 0.0
N1482 N 0.42714 0.63074 0.4846 0.0
C1483 C 0.42306 0.64804 0.46608 0.0
C1484 C 0.41154 0.65993 0.49609 0.0
C1485 C 0.61171 0.16494 0.69599 0.0
C1486 C 0.60296 0.17786 0.66392 0.0
C1487 C 0.60109 0.15249 0.72505 0.0
C1488 C 0.58133 0.15272 0.72376 0.0
H1489 H 0.6269 0.16462 0.69933 0.0
H1490 H 0.60837 0.14276 0.74907 0.0
S1491 S 0.55144 0.18242 0.64362 0.0
N1492 N 0.57318 0.18896 0.63044 0.0
N1493 N 0.55336 0.16603 0.68633 0.0
C1494 C 0.57237 0.16532 0.69167 0.0
C1495 C 0.58314 0.17779 0.66152 0.0
C1496 C 0.92802 0.32909 0.91275 0.0
C1497 C 0.92673 0.34886 0.91215 0.0
C1498 C 0.91594 0.31817 0.942 0.0
C1499 C 0.90221 0.32658 0.97234 0.0
H1500 H 0.93848 0.322 0.89042 0.0
H1501 H 0.91731 0.30298 0.94056 0.0
S1502 S 0.89393 0.37795 0.98634 0.0
N1503 N 0.91106 0.37647 0.94548 0.0
N1504 N 0.88858 0.35603 1.0011 0.0
C1505 C 0.90084 0.34637 0.97216 0.0
C1506 C 0.91304 0.35747 0.942 0.0
C1507 C 0.43856 0.1623 0.68232 0.0
C1508 C 0.43093 0.15142 0.72068 0.0
C1509 C 0.42716 0.17409 0.65354 0.0
C1510 C 0.40764 0.17551 0.66197 0.0
H1511 H 0.45348 0.16159 0.6742 0.0
H1512 H 0.43368 0.18214 0.62436 0.0
S1513 S 0.38097 0.15086 0.76012 0.0
N1514 N 0.4028 0.14326 0.76666 0.0
N1515 N 0.38138 0.16559 0.71323 0.0
C1516 C 0.39986 0.16475 0.70045 0.0
C1517 C 0.41148 0.15268 0.72959 0.0
C1518 C 0.58953 0.6713 0.40988 0.0
C1519 C 0.58462 0.65342 0.42797 0.0
C1520 C 0.60085 0.68362 0.4373 0.0
C1521 C 0.60765 0.67863 0.48414 0.0
H1522 H 0.58458 0.67583 0.37416 0.0
H1523 H 0.60435 0.69718 0.42152 0.0
S1524 S 0.59798 0.63381 0.54938 0.0
N1525 N 0.58695 0.63153 0.49633 0.0
N1526 N 0.60816 0.65472 0.54793 0.0
C1527 C 0.60288 0.66077 0.50266 0.0
C1528 C 0.59138 0.64817 0.47462 0.0
C1529 C 0.11381 0.843 0.20844 0.0
C1530 C 0.10737 0.83335 0.16645 0.0
C1531 C 0.10203 0.8555 0.23428 0.0
C1532 C 0.08351 0.85899 0.21851 0.0
H1533 H 0.12797 0.84064 0.22187 0.0
H1534 H 0.10751 0.86266 0.26637 0.0
S1535 S 0.05986 0.8373 0.11097 0.0
N1536 N 0.08124 0.82815 0.11051 0.0
N1537 N 0.05918 0.8516 0.15879 0.0
C1538 C 0.07693 0.84944 0.17661 0.0
C1539 C 0.08882 0.83663 0.15067 0.0
C1540 C 0.92236 0.66741 0.24589 0.0
C1541 C 0.9267 0.64901 0.23016 0.0
C1542 C 0.91103 0.67937 0.21746 0.0
C1543 C 0.90351 0.67342 0.17222 0.0
H1544 H 0.92779 0.67263 0.28048 0.0
H1545 H 0.90805 0.69341 0.23112 0.0
S1546 S 0.91132 0.62706 0.11295 0.0
N1547 N 0.9231 0.62574 0.1651 0.0
N1548 N 0.90151 0.64816 0.11236 0.0
C1549 C 0.9076 0.65508 0.1561 0.0
C1550 C 0.91926 0.6429 0.18486 0.0
C1551 C 0.07683 0.17474 0.93693 0.0
C1552 C 0.08244 0.15646 0.923 0.0
C1553 C 0.08876 0.18668 0.96347 0.0
C1554 C 0.10714 0.18119 0.9766 0.0
H1555 H 0.06302 0.18 0.92714 0.0
H1556 H 0.08342 0.20042 0.97382 0.0
S1557 S 0.12903 0.13483 0.9489 0.0
N1558 N 0.10761 0.13322 0.92575 0.0
N1559 N 0.13055 0.1562 0.97257 0.0
C1560 C 0.11308 0.163 0.96263 0.0
C1561 C 0.10071 0.15061 0.93635 0.0
C1562 C 0.60456 0.33117 0.7238 0.0
C1563 C 0.6084 0.33455 0.67377 0.0
C1564 C 0.59372 0.34374 0.7518 0.0
C1565 C 0.58636 0.36032 0.7311 0.0
H1566 H 0.60994 0.31862 0.74153 0.0
H1567 H 0.59098 0.34039 0.78996 0.0
S1568 S 0.59175 0.37557 0.60147 0.0
N1569 N 0.60361 0.35559 0.60453 0.0
N1570 N 0.58342 0.37932 0.65726 0.0
C1571 C 0.59029 0.36404 0.68133 0.0
C1572 C 0.60127 0.35117 0.65269 0.0
C1573 C 0.40086 0.84734 0.46449 0.0
C1574 C 0.40111 0.82754 0.46179 0.0
C1575 C 0.41302 0.85833 0.43549 0.0
C1576 C 0.42585 0.84991 0.40267 0.0
H1577 H 0.39154 0.85439 0.49012 0.0
H1578 H 0.41281 0.87349 0.43995 0.0
S1579 S 0.43027 0.79879 0.37687 0.0
N1580 N 0.41398 0.8001 0.42002 0.0
N1581 N 0.43688 0.82071 0.36607 0.0
C1582 C 0.42571 0.83018 0.39826 0.0
C1583 C 0.41334 0.81902 0.42763 0.0
C1584 C 0.01804 0.51229 0.07958 0.0
C1585 C 0.00521 0.51121 0.11884 0.0
C1586 C 0.01751 0.49924 0.04113 0.0
C1587 C 1.00409 0.4847 0.04052 0.0
H1588 H 0.02852 0.52338 0.0785 0.0
H1589 H 0.02741 0.50079 0.0111 0.0
S1590 S 0.96777 0.47535 0.13535 0.0
N1591 N 0.97885 0.49434 0.15512 0.0
N1592 N 0.97819 0.46945 0.08333 0.0
C1593 C 0.99142 0.48322 0.08001 0.0
C1594 C 0.99193 0.49654 0.11912 0.0
C1595 C 0.76547 0.76965 0.31063 0.0
C1596 C 0.76951 0.75279 0.28557 0.0
C1597 C 0.75242 0.77002 0.34913 0.0
C1598 C 0.74298 0.75357 0.36376 0.0
H1599 H 0.7723 0.78267 0.30003 0.0
H1600 H 0.74952 0.78332 0.36717 0.0
S1601 S 0.74969 0.70561 0.31266 0.0
N1602 N 0.76384 0.71909 0.27978 0.0
N1603 N 0.73922 0.71982 0.35221 0.0
C1604 C 0.74706 0.73658 0.33948 0.0
C1605 C 0.76036 0.73619 0.30033 0.0
C1606 C 0.5132 0.52492 0.58615 0.0
C1607 C 0.50074 0.52329 0.54628 0.0
C1608 C 0.51288 0.51185 0.6246 0.0
C1609 C 0.5002 0.49666 0.62416 0.0
H1610 H 0.52334 0.53631 0.58745 0.0
H1611 H 0.52296 0.51336 0.65421 0.0
S1612 S 0.46434 0.48644 0.52894 0.0
N1613 N 0.4752 0.50552 0.50897 0.0
N1614 N 0.47442 0.4811 0.58177 0.0
C1615 C 0.48743 0.49508 0.58502 0.0
C1616 C 0.48772 0.5084 0.54596 0.0
C1617 C 0.76173 0.23527 0.83787 0.0
C1618 C 0.76632 0.2518 0.86359 0.0
C1619 C 0.74874 0.23562 0.79926 0.0
C1620 C 0.73999 0.25253 0.78511 0.0
H1621 H 0.76804 0.22194 0.84809 0.0
H1622 H 0.74532 0.22253 0.78082 0.0
S1623 S 0.74861 0.29991 0.83803 0.0
N1624 N 0.76204 0.28566 0.87067 0.0
N1625 N 0.7377 0.28638 0.79772 0.0
C1626 C 0.74476 0.26922 0.80997 0.0
C1627 C 0.75792 0.26884 0.84935 0.0
C1628 C 0.25249 0.2398 0.84429 0.0
C1629 C 0.24368 0.2569 0.85648 0.0
C1630 C 0.26552 0.23887 0.80583 0.0
C1631 C 0.26981 0.25494 0.77795 0.0
H1632 H 0.24947 0.22715 0.8651 0.0
H1633 H 0.27224 0.22552 0.79772 0.0
S1634 S 0.25023 0.30288 0.79459 0.0
N1635 N 0.23993 0.29014 0.83767 0.0
N1636 N 0.2643 0.28832 0.7646 0.0
C1637 C 0.26092 0.27204 0.78931 0.0
C1638 C 0.24788 0.27305 0.82891 0.0
C1639 C 0.25948 0.76388 0.34668 0.0
C1640 C 0.26644 0.74679 0.36525 0.0
C1641 C 0.24676 0.76409 0.30749 0.0
C1642 C 0.24042 0.7472 0.2863 0.0
H1643 H 0.26411 0.77717 0.36212 0.0
H1644 H 0.24172 0.77752 0.29394 0.0
S1645 S 0.25425 0.69881 0.32216 0.0
N1646 N 0.26611 0.71262 0.35998 0.0
N1647 N 0.24191 0.713 0.28647 0.0
C1648 C 0.24714 0.73002 0.30481 0.0
C1649 C 0.26027 0.72982 0.34426 0.0
C1650 C 0.49078 0.98619 0.57259 0.0
C1651 C 0.50594 0.98394 0.53996 0.0
C1652 C 0.49178 0.99915 0.61124 0.0
C1653 C 0.50783 0.01044 0.61772 0.0
H1654 H 0.47807 0.97794 0.56798 0.0
H1655 H 0.47975 1.00072 0.63542 0.0
S1656 S 0.55128 0.0097 0.54241 0.0
N1657 N 0.53751 0.99371 0.51685 0.0
N1658 N 0.53928 0.01834 0.58932 0.0
C1659 C 0.52313 0.00819 0.58563 0.0
C1660 C 0.52222 0.99483 0.54674 0.0
C1661 C 0.98722 0.0092 0.05278 0.0
C1662 C 1.00261 0.02146 0.0472 0.0
C1663 C 0.98605 0.99703 0.09302 0.0
C1664 C 1.00019 0.99676 0.1291 0.0
H1665 H 0.97622 0.0087 0.02528 0.0
H1666 H 0.97405 0.98767 0.09574 0.0
S1667 S 0.04304 0.02662 0.1323 0.0
N1668 N 0.03184 0.03325 0.08209 0.0
N1669 N 0.02998 0.00988 0.15696 0.0
C1670 C 0.0155 0.00918 0.12439 0.0
C1671 C 0.01664 0.02163 0.08355 0.0
C1672 C 0.01546 0.501 0.61329 0.0
C1673 C 0.00538 0.48423 0.60437 0.0
C1674 C 0.01562 0.51585 0.57901 0.0
C1675 C 0.00594 0.51441 0.53407 0.0
H1676 H 0.02318 0.50274 0.6473 0.0
H1677 H 0.02367 0.52841 0.58733 0.0
S1678 S 0.97723 0.47364 0.49297 0.0
N1679 N 0.98536 0.46721 0.54725 0.0
N1680 N 0.98561 0.495 0.48309 0.0
C1681 C 0.99572 0.49777 0.52485 0.0
C1682 C 0.99543 0.48275 0.55988 0.0
C1683 C 0.77466 0.74634 0.81778 0.0
C1684 C 0.77196 0.75505 0.86376 0.0
C1685 C 0.7605 0.74652 0.78162 0.0
C1686 C 0.74301 0.75541 0.78983 0.0
H1687 H 0.78771 0.73903 0.80995 0.0
H1688 H 0.76319 0.7394 0.74712 0.0
S1689 S 0.72951 0.7819 0.90201 0.0
N1690 N 0.75085 0.77393 0.91406 0.0
N1691 N 0.72435 0.7742 0.84638 0.0
C1692 C 0.74027 0.76447 0.83527 0.0
C1693 C 0.75469 0.76432 0.87205 0.0
C1694 C 0.49471 0.50409 0.12205 0.0
C1695 C 0.50655 0.51984 0.11602 0.0
C1696 C 0.49431 0.48943 0.08721 0.0
C1697 C 0.50608 0.48974 0.04562 0.0
H1698 H 0.48559 0.50316 0.15387 0.0
H1699 H 0.4849 0.47765 0.09317 0.0
S1700 S 0.53968 0.5277 0.01277 0.0
N1701 N 0.5302 0.53489 0.06497 0.0
N1702 N 0.52975 0.50722 1.00013 0.0
C1703 C 0.51802 0.50537 0.03925 0.0
C1704 C 0.51816 0.52045 0.07422 0.0
C1705 C 0.75082 0.24712 0.27978 0.0
C1706 C 0.7684 0.25583 0.28766 0.0
C1707 C 0.73653 0.2476 0.31561 0.0
C1708 C 0.73918 0.25682 0.3609 0.0
H1709 H 0.74815 0.23964 0.24581 0.0
H1710 H 0.72341 0.24038 0.30808 0.0
S1711 S 0.78193 0.28342 0.3979 0.0
N1712 N 0.78717 0.27496 0.34306 0.0
N1713 N 0.76041 0.27599 0.41009 0.0
C1714 C 0.75657 0.26592 0.36882 0.0
C1715 C 0.77113 0.26538 0.33239 0.0
C1716 C 0.25806 0.26764 0.35791 0.0
C1717 C 0.27259 0.2541 0.35817 0.0
C1718 C 0.24369 0.26728 0.32232 0.0
C1719 C 0.2432 0.25336 0.28545 0.0
H1720 H 0.2579 0.27877 0.38515 0.0
H1721 H 0.23306 0.27822 0.32321 0.0
S1722 S 0.27684 0.21358 0.27266 0.0
N1723 N 0.28485 0.22567 0.32007 0.0
N1724 N 0.25793 0.22493 0.25356 0.0
C1725 C 0.25745 0.23952 0.28589 0.0
C1726 C 0.27209 0.23992 0.32204 0.0
C1727 C 0.2541 0.76709 0.78547 0.0
C1728 C 0.26979 0.7549 0.78807 0.0
C1729 C 0.23979 0.76677 0.82126 0.0
C1730 C 0.24062 0.75439 0.86151 0.0
H1731 H 0.25293 0.77714 0.75574 0.0
H1732 H 0.22814 0.77653 0.81787 0.0
S1733 S 0.27766 0.71858 0.88411 0.0
N1734 N 0.28445 0.72921 0.83317 0.0
N1735 N 0.2579 0.72904 0.90081 0.0
C1736 C 0.25607 0.74203 0.86447 0.0
C1737 C 0.27054 0.74219 0.8278 0.0
C1738 C 0.4998 0.98459 0.05965 0.0
C1739 C 0.50732 0.98714 0.10702 0.0
C1740 C 0.49976 0.99927 0.02499 0.0
C1741 C 0.50707 0.01724 0.03625 0.0
H1742 H 0.49415 0.97102 0.04896 0.0
H1743 H 0.49389 0.99652 0.98899 0.0
S1744 S 0.52776 0.03154 0.15572 0.0
N1745 N 0.52168 0.00931 0.16391 0.0
N1746 N 0.52187 0.03673 0.09865 0.0
C1747 C 0.51437 0.02008 0.08373 0.0
C1748 C 0.51448 0.00509 0.119 0.0
C1749 C 0.01778 1.00051 0.62482 0.0
C1750 C 0.00708 0.01692 0.61613 0.0
C1751 C 0.01776 0.98534 0.59153 0.0
C1752 C 0.00677 0.98579 0.54855 0.0
H1753 H 0.02631 0.99941 0.65767 0.0
H1754 H 0.02618 0.97303 0.59989 0.0
S1755 S 0.97653 0.0255 0.50797 0.0
N1756 N 0.9854 0.0327 0.56082 0.0
N1757 N 0.98536 0.00429 0.49834 0.0
C1758 C 0.99614 1.00216 0.53919 0.0
C1759 C 0.99631 0.01768 0.57284 0.0
loop_
_geom_bond_atom_site_label_1
_geom_bond_atom_site_label_2
_geom_bond_distance
_geom_bond_site_symmetry_2
_ccdc_geom_bond_type
Li0 N17 1.990 . S
Li0 O60 1.919 1_655 S
Li0 O61 1.996 . S
Li0 O62 1.961 . S
Li1 N25 1.990 . S
Li1 O60 2.005 . S
Li1 O61 1.929 1_455 S
Li1 O63 1.961 . S
Li2 N47 1.993 . S
Li2 O60 1.958 1_655 S
Li2 O62 1.988 . S
Li2 O63 1.936 1_655 S
Li3 N53 1.994 . S
Li3 O61 1.958 1_455 S
Li3 O62 1.926 1_455 S
Li3 O63 1.998 . S
C4 C6 1.348 . S
C4 C7 1.356 1_455 S
C4 O60 1.324 . S
N5 C8 1.314 1_655 S
N5 C9 1.279 . S
C6 C4 1.348 . S
C6 C8 1.353 . S
C6 H64 0.929 . S
C7 C4 1.356 1_655 S
C7 C9 1.358 . S
C7 H65 0.930 . S
C8 N5 1.314 1_455 S
C8 C6 1.353 . S
C8 H66 0.930 . S
C9 N5 1.279 . S
C9 C7 1.358 . S
C9 H67 0.930 . S
C10 C13 1.348 1_455 S
C10 C14 1.356 . S
C10 O61 1.324 1_455 S
C11 N12 1.279 . S
C11 C14 1.358 . S
C11 H68 0.930 . S
N12 C11 1.279 . S
N12 C15 1.314 1_455 S
C13 C10 1.348 1_655 S
C13 C15 1.353 . S
C13 H69 0.929 . S
C14 C10 1.356 . S
C14 C11 1.358 . S
C14 H70 0.930 . S
C15 N12 1.314 1_655 S
C15 C13 1.353 . S
C15 H71 0.930 . S
C16 N17 1.314 . S
C16 C21 1.353 . S
C16 H22 0.930 . S
N17 Li0 1.990 . S
N17 C16 1.314 . S
N17 C19 1.279 . S
C18 C19 1.358 . S
C18 C20 1.356 . S
C18 H72 0.930 . S
C19 N17 1.279 . S
C19 C18 1.358 . S
C19 H23 0.930 . S
C20 C18 1.356 . S
C20 C21 1.348 . S
C21 C16 1.353 . S
C21 C20 1.348 . S
C21 H73 0.929 . S
H22 C16 0.930 . S
H23 C19 0.930 . S
C24 N25 1.314 . S
C24 C26 1.353 . S
C24 H30 0.930 . S
N25 Li1 1.990 . S
N25 C24 1.314 . S
N25 C28 1.279 . S
C26 C24 1.353 . S
C26 C29 1.348 . S
C26 H74 0.929 . S
C27 C28 1.358 . S
C27 C29 1.356 . S
C27 H75 0.930 . S
C28 N25 1.279 . S
C28 C27 1.358 . S
C28 H31 0.930 . S
C29 C26 1.348 . S
C29 C27 1.356 . S
H30 C24 0.930 . S
H31 C28 0.930 . S
C32 C34 1.348 . S
C32 C35 1.356 . S
C32 O62 1.325 . S
N33 C36 1.314 . S
N33 C37 1.279 . S
C34 C32 1.348 . S
C34 C36 1.353 . S
C34 H76 0.929 . S
C35 C32 1.356 . S
C35 C37 1.358 . S
C35 H77 0.930 . S
C36 N33 1.314 . S
C36 C34 1.353 . S
C36 H78 0.930 . S
C37 N33 1.279 . S
C37 C35 1.358 . S
C37 H79 0.930 . S
C38 C39 1.348 . S
C38 C40 1.356 . S
C38 O63 1.325 . S
C39 C38 1.348 . S
C39 C41 1.353 . S
C39 H80 0.929 . S
C40 C38 1.356 . S
C40 C42 1.358 . S
C40 H81 0.930 . S
C41 C39 1.353 . S
C41 N43 1.314 . S
C41 H82 0.930 . S
C42 C40 1.358 . S
C42 N43 1.279 . S
C42 H83 0.930 . S
N43 C41 1.314 . S
N43 C42 1.279 . S
C44 C46 1.353 . S
C44 N47 1.314 1_455 S
C44 H50 0.930 . S
C45 N47 1.279 . S
C45 C48 1.358 . S
C45 H51 0.930 . S
C46 C44 1.353 . S
C46 C49 1.348 . S
C46 H84 0.929 . S
N47 Li2 1.993 . S
N47 C44 1.314 1_655 S
N47 C45 1.279 . S
C48 C45 1.358 . S
C48 C49 1.356 1_655 S
C48 H85 0.930 . S
C49 C46 1.348 . S
C49 C48 1.356 1_455 S
H50 C44 0.930 . S
H51 C45 0.930 . S
C52 N53 1.314 1_655 S
C52 C54 1.353 . S
C52 H58 0.930 . S
N53 Li3 1.994 . S
N53 C52 1.314 1_455 S
N53 C56 1.279 . S
C54 C52 1.353 . S
C54 C57 1.348 1_655 S
C54 H86 0.929 . S
C55 C56 1.358 . S
C55 C57 1.356 . S
C55 H87 0.930 . S
C56 N53 1.279 . S
C56 C55 1.358 . S
C56 H59 0.930 . S
C57 C54 1.348 1_455 S
C57 C55 1.356 . S
H58 C52 0.930 . S
H59 C56 0.930 . S
O60 Li0 1.919 1_455 S
O60 Li1 2.005 . S
O60 Li2 1.958 1_455 S
O60 C4 1.324 . S
O61 Li0 1.996 . S
O61 Li1 1.929 1_655 S
O61 Li3 1.958 1_655 S
O61 C10 1.324 1_655 S
O62 Li0 1.961 . S
O62 Li2 1.988 . S
O62 Li3 1.926 1_655 S
O62 C32 1.325 . S
O63 Li1 1.961 . S
O63 Li2 1.936 1_455 S
O63 Li3 1.998 . S
O63 C38 1.325 . S
H64 C6 0.929 . S
H65 C7 0.930 . S
H66 C8 0.930 . S
H67 C9 0.930 . S
H68 C11 0.930 . S
H69 C13 0.929 . S
H70 C14 0.930 . S
H71 C15 0.930 . S
H72 C18 0.930 . S
H73 C21 0.929 . S
H74 C26 0.929 . S
H75 C27 0.930 . S
H76 C34 0.929 . S
H77 C35 0.930 . S
H78 C36 0.930 . S
H79 C37 0.930 . S
H80 C39 0.929 . S
H81 C40 0.930 . S
H82 C41 0.930 . S
H83 C42 0.930 . S
H84 C46 0.929 . S
H85 C48 0.930 . S
H86 C54 0.929 . S
H87 C55 0.930 . S
Li88 N105 1.990 . S
Li88 O148 1.956 . S
Li88 O149 1.970 . S
Li88 O150 1.961 . S
Li89 N113 1.990 . S
Li89 O148 1.970 . S
Li89 O149 1.956 . S
Li89 O151 1.961 . S
Li90 N135 1.990 . S
Li90 O148 1.961 . S
Li90 O150 1.956 . S
Li90 O151 1.970 . S
Li91 N141 1.990 . S
Li91 O149 1.961 . S
Li91 O150 1.970 . S
Li91 O151 1.956 . S
C92 C94 1.348 . S
C92 C95 1.356 . S
C92 O148 1.325 . S
N93 C96 1.314 . S
N93 C97 1.279 . S
C94 C92 1.348 . S
C94 C96 1.353 . S
C94 H152 0.929 . S
C95 C92 1.356 . S
C95 C97 1.358 . S
C95 H153 0.930 . S
C96 N93 1.314 . S
C96 C94 1.353 . S
C96 H154 0.930 . S
C97 N93 1.279 . S
C97 C95 1.358 . S
C97 H155 0.930 . S
C98 C101 1.348 . S
C98 C102 1.356 . S
C98 O149 1.325 . S
C99 N100 1.279 . S
C99 C102 1.358 . S
C99 H156 0.930 . S
N100 C99 1.279 . S
N100 C103 1.314 . S
C101 C98 1.348 . S
C101 C103 1.353 . S
C101 H157 0.929 . S
C102 C98 1.356 . S
C102 C99 1.358 . S
C102 H158 0.930 . S
C103 N100 1.314 . S
C103 C101 1.353 . S
C103 H159 0.930 . S
C104 N105 1.314 . S
C104 C109 1.353 . S
C104 H110 0.930 . S
N105 Li88 1.990 . S
N105 C104 1.314 . S
N105 C107 1.279 . S
C106 C107 1.358 . S
C106 C108 1.356 . S
C106 H160 0.930 . S
C107 N105 1.279 . S
C107 C106 1.358 . S
C107 H111 0.930 . S
C108 C106 1.356 . S
C108 C109 1.348 . S
C109 C104 1.353 . S
C109 C108 1.348 . S
C109 H161 0.929 . S
H110 C104 0.930 . S
H111 C107 0.930 . S
C112 N113 1.314 . S
C112 C114 1.353 . S
C112 H118 0.930 . S
N113 Li89 1.990 . S
N113 C112 1.314 . S
N113 C116 1.279 . S
C114 C112 1.353 . S
C114 C117 1.348 . S
C114 H162 0.929 . S
C115 C116 1.358 . S
C115 C117 1.356 . S
C115 H163 0.930 . S
C116 N113 1.279 . S
C116 C115 1.358 . S
C116 H119 0.930 . S
C117 C114 1.348 . S
C117 C115 1.356 . S
H118 C112 0.930 . S
H119 C116 0.930 . S
C120 C122 1.348 . S
C120 C123 1.356 . S
C120 O150 1.325 . S
N121 C124 1.314 . S
N121 C125 1.279 . S
C122 C120 1.348 . S
C122 C124 1.353 . S
C122 H164 0.929 . S
C123 C120 1.356 . S
C123 C125 1.358 . S
C123 H165 0.930 . S
C124 N121 1.314 . S
C124 C122 1.353 . S
C124 H166 0.930 . S
C125 N121 1.279 . S
C125 C123 1.358 . S
C125 H167 0.930 . S
C126 C127 1.348 . S
C126 C128 1.356 . S
C126 O151 1.325 . S
C127 C126 1.348 . S
C127 C129 1.353 . S
C127 H168 0.929 . S
C128 C126 1.356 . S
C128 C130 1.358 . S
C128 H169 0.930 . S
C129 C127 1.353 . S
C129 N131 1.314 . S
C129 H170 0.930 . S
C130 C128 1.358 . S
C130 N131 1.279 . S
C130 H171 0.930 . S
N131 C129 1.314 . S
N131 C130 1.279 . S
C132 C134 1.353 . S
C132 N135 1.314 . S
C132 H138 0.930 . S
C133 N135 1.279 . S
C133 C136 1.358 . S
C133 H139 0.930 . S
C134 C132 1.353 . S
C134 C137 1.348 . S
C134 H172 0.929 . S
N135 Li90 1.990 . S
N135 C132 1.314 . S
N135 C133 1.279 . S
C136 C133 1.358 . S
C136 C137 1.356 . S
C136 H173 0.930 . S
C137 C134 1.348 . S
C137 C136 1.356 . S
H138 C132 0.930 . S
H139 C133 0.930 . S
C140 N141 1.314 . S
C140 C142 1.353 . S
C140 H146 0.930 . S
N141 Li91 1.990 . S
N141 C140 1.314 . S
N141 C144 1.279 . S
C142 C140 1.353 . S
C142 C145 1.348 . S
C142 H174 0.929 . S
C143 C144 1.358 . S
C143 C145 1.356 . S
C143 H175 0.930 . S
C144 N141 1.279 . S
C144 C143 1.358 . S
C144 H147 0.930 . S
C145 C142 1.348 . S
C145 C143 1.356 . S
H146 C140 0.930 . S
H147 C144 0.930 . S
O148 Li88 1.956 . S
O148 Li89 1.970 . S
O148 Li90 1.961 . S
O148 C92 1.325 . S
O149 Li88 1.970 . S
O149 Li89 1.956 . S
O149 Li91 1.961 . S
O149 C98 1.325 . S
O150 Li88 1.961 . S
O150 Li90 1.956 . S
O150 Li91 1.970 . S
O150 C120 1.325 . S
O151 Li89 1.961 . S
O151 Li90 1.970 . S
O151 Li91 1.956 . S
O151 C126 1.325 . S
H152 C94 0.929 . S
H153 C95 0.930 . S
H154 C96 0.930 . S
H155 C97 0.930 . S
H156 C99 0.930 . S
H157 C101 0.929 . S
H158 C102 0.930 . S
H159 C103 0.930 . S
H160 C106 0.930 . S
H161 C109 0.929 . S
H162 C114 0.929 . S
H163 C115 0.930 . S
H164 C122 0.929 . S
H165 C123 0.930 . S
H166 C124 0.930 . S
H167 C125 0.930 . S
H168 C127 0.929 . S
H169 C128 0.930 . S
H170 C129 0.930 . S
H171 C130 0.930 . S
H172 C134 0.929 . S
H173 C136 0.930 . S
H174 C142 0.929 . S
H175 C143 0.930 . S
Li176 N193 1.990 . S
Li176 O236 1.956 . S
Li176 O237 1.970 . S
Li176 O238 1.961 . S
Li177 N201 1.990 . S
Li177 O236 1.970 . S
Li177 O237 1.956 . S
Li177 O239 1.961 . S
Li178 N223 1.990 . S
Li178 O236 1.961 . S
Li178 O238 1.956 . S
Li178 O239 1.970 . S
Li179 N229 1.990 . S
Li179 O237 1.961 . S
Li179 O238 1.970 . S
Li179 O239 1.956 . S
C180 C182 1.348 . S
C180 C183 1.356 . S
C180 O236 1.325 . S
N181 C184 1.314 . S
N181 C185 1.279 . S
C182 C180 1.348 . S
C182 C184 1.353 . S
C182 H240 0.929 . S
C183 C180 1.356 . S
C183 C185 1.358 . S
C183 H241 0.930 . S
C184 N181 1.314 . S
C184 C182 1.353 . S
C184 H242 0.930 . S
C185 N181 1.279 . S
C185 C183 1.358 . S
C185 H243 0.930 . S
C186 C189 1.348 . S
C186 C190 1.356 . S
C186 O237 1.325 . S
C187 N188 1.279 . S
C187 C190 1.358 . S
C187 H244 0.930 . S
N188 C187 1.279 . S
N188 C191 1.314 . S
C189 C186 1.348 . S
C189 C191 1.353 . S
C189 H245 0.929 . S
C190 C186 1.356 . S
C190 C187 1.358 . S
C190 H246 0.930 . S
C191 N188 1.314 . S
C191 C189 1.353 . S
C191 H247 0.930 . S
C192 N193 1.314 . S
C192 C197 1.353 . S
C192 H198 0.930 . S
N193 Li176 1.990 . S
N193 C192 1.314 . S
N193 C195 1.279 . S
C194 C195 1.358 . S
C194 C196 1.356 . S
C194 H248 0.930 . S
C195 N193 1.279 . S
C195 C194 1.358 . S
C195 H199 0.930 . S
C196 C194 1.356 . S
C196 C197 1.348 . S
C197 C192 1.353 . S
C197 C196 1.348 . S
C197 H249 0.929 . S
H198 C192 0.930 . S
H199 C195 0.930 . S
C200 N201 1.314 . S
C200 C202 1.353 . S
C200 H206 0.930 . S
N201 Li177 1.990 . S
N201 C200 1.314 . S
N201 C204 1.279 . S
C202 C200 1.353 . S
C202 C205 1.348 . S
C202 H250 0.929 . S
C203 C204 1.358 . S
C203 C205 1.356 . S
C203 H251 0.930 . S
C204 N201 1.279 . S
C204 C203 1.358 . S
C204 H207 0.930 . S
C205 C202 1.348 . S
C205 C203 1.356 . S
H206 C200 0.930 . S
H207 C204 0.930 . S
C208 C210 1.348 . S
C208 C211 1.356 . S
C208 O238 1.325 . S
N209 C212 1.314 . S
N209 C213 1.279 . S
C210 C208 1.348 . S
C210 C212 1.353 . S
C210 H252 0.929 . S
C211 C208 1.356 . S
C211 C213 1.358 . S
C211 H253 0.930 . S
C212 N209 1.314 . S
C212 C210 1.353 . S
C212 H254 0.930 . S
C213 N209 1.279 . S
C213 C211 1.358 . S
C213 H255 0.930 . S
C214 C215 1.348 . S
C214 C216 1.356 . S
C214 O239 1.325 . S
C215 C214 1.348 . S
C215 C217 1.353 . S
C215 H256 0.929 . S
C216 C214 1.356 . S
C216 C218 1.358 . S
C216 H257 0.930 . S
C217 C215 1.353 . S
C217 N219 1.314 . S
C217 H258 0.930 . S
C218 C216 1.358 . S
C218 N219 1.279 . S
C218 H259 0.930 . S
N219 C217 1.314 . S
N219 C218 1.279 . S
C220 C222 1.353 . S
C220 N223 1.314 . S
C220 H226 0.930 . S
C221 N223 1.279 . S
C221 C224 1.358 . S
C221 H227 0.930 . S
C222 C220 1.353 . S
C222 C225 1.348 . S
C222 H260 0.929 . S
N223 Li178 1.990 . S
N223 C220 1.314 . S
N223 C221 1.279 . S
C224 C221 1.358 . S
C224 C225 1.356 . S
C224 H261 0.930 . S
C225 C222 1.348 . S
C225 C224 1.356 . S
H226 C220 0.930 . S
H227 C221 0.930 . S
C228 N229 1.314 . S
C228 C230 1.353 . S
C228 H234 0.930 . S
N229 Li179 1.990 . S
N229 C228 1.314 . S
N229 C232 1.279 . S
C230 C228 1.353 . S
C230 C233 1.348 . S
C230 H262 0.929 . S
C231 C232 1.358 . S
C231 C233 1.356 . S
C231 H263 0.930 . S
C232 N229 1.279 . S
C232 C231 1.358 . S
C232 H235 0.930 . S
C233 C230 1.348 . S
C233 C231 1.356 . S
H234 C228 0.930 . S
H235 C232 0.930 . S
O236 Li176 1.956 . S
O236 Li177 1.970 . S
O236 Li178 1.961 . S
O236 C180 1.325 . S
O237 Li176 1.970 . S
O237 Li177 1.956 . S
O237 Li179 1.961 . S
O237 C186 1.325 . S
O238 Li176 1.961 . S
O238 Li178 1.956 . S
O238 Li179 1.970 . S
O238 C208 1.325 . S
O239 Li177 1.961 . S
O239 Li178 1.970 . S
O239 Li179 1.956 . S
O239 C214 1.325 . S
H240 C182 0.929 . S
H241 C183 0.930 . S
H242 C184 0.930 . S
H243 C185 0.930 . S
H244 C187 0.930 . S
H245 C189 0.929 . S
H246 C190 0.930 . S
H247 C191 0.930 . S
H248 C194 0.930 . S
H249 C197 0.929 . S
H250 C202 0.929 . S
H251 C203 0.930 . S
H252 C210 0.929 . S
H253 C211 0.930 . S
H254 C212 0.930 . S
H255 C213 0.930 . S
H256 C215 0.929 . S
H257 C216 0.930 . S
H258 C217 0.930 . S
H259 C218 0.930 . S
H260 C222 0.929 . S
H261 C224 0.930 . S
H262 C230 0.929 . S
H263 C231 0.930 . S
Li264 N281 1.990 . S
Li264 O324 1.956 . S
Li264 O325 1.970 . S
Li264 O326 1.961 . S
Li265 N289 1.990 . S
Li265 O324 1.970 . S
Li265 O325 1.956 . S
Li265 O327 1.961 1_554 S
Li266 N311 1.990 . S
Li266 O324 1.961 . S
Li266 O326 1.956 . S
Li266 O327 1.970 1_554 S
Li267 N317 1.990 . S
Li267 O325 1.961 1_556 S
Li267 O326 1.970 1_556 S
Li267 O327 1.956 . S
C268 C270 1.348 . S
C268 C271 1.356 . S
C268 O324 1.325 . S
N269 C272 1.314 . S
N269 C273 1.279 . S
C270 C268 1.348 . S
C270 C272 1.353 . S
C270 H328 0.929 . S
C271 C268 1.356 . S
C271 C273 1.358 . S
C271 H329 0.930 . S
C272 N269 1.314 . S
C272 C270 1.353 . S
C272 H330 0.930 . S
C273 N269 1.279 . S
C273 C271 1.358 . S
C273 H331 0.930 . S
C274 C277 1.348 . S
C274 C278 1.356 1_554 S
C274 O325 1.325 . S
C275 N276 1.279 1_556 S
C275 C278 1.358 . S
C275 H332 0.930 . S
N276 C275 1.279 1_554 S
N276 C279 1.314 . S
C277 C274 1.348 . S
C277 C279 1.353 . S
C277 H333 0.929 . S
C278 C274 1.356 1_556 S
C278 C275 1.358 . S
C278 H334 0.930 . S
C279 N276 1.314 . S
C279 C277 1.353 . S
C279 H335 0.930 . S
C280 N281 1.314 . S
C280 C285 1.353 . S
C280 H286 0.930 . S
N281 Li264 1.990 . S
N281 C280 1.314 . S
N281 C283 1.279 . S
C282 C283 1.358 . S
C282 C284 1.356 . S
C282 H336 0.930 . S
C283 N281 1.279 . S
C283 C282 1.358 . S
C283 H287 0.930 . S
C284 C282 1.356 . S
C284 C285 1.348 . S
C285 C280 1.353 . S
C285 C284 1.348 . S
C285 H337 0.929 . S
H286 C280 0.930 . S
H287 C283 0.930 . S
C288 N289 1.314 1_556 S
C288 C290 1.353 . S
C288 H294 0.930 . S
N289 Li265 1.990 . S
N289 C288 1.314 1_554 S
N289 C292 1.279 . S
C290 C288 1.353 . S
C290 C293 1.348 . S
C290 H338 0.929 . S
C291 C292 1.358 . S
C291 C293 1.356 1_554 S
C291 H339 0.930 . S
C292 N289 1.279 . S
C292 C291 1.358 . S
C292 H295 0.930 . S
C293 C290 1.348 . S
C293 C291 1.356 1_556 S
H294 C288 0.930 . S
H295 C292 0.930 . S
C296 C298 1.348 1_554 S
C296 C299 1.356 . S
C296 O326 1.325 . S
N297 C300 1.314 . S
N297 C301 1.279 . S
C298 C296 1.348 1_556 S
C298 C300 1.353 1_556 S
C298 H340 0.929 . S
C299 C296 1.356 . S
C299 C301 1.358 . S
C299 H341 0.930 . S
C300 N297 1.314 . S
C300 C298 1.353 1_554 S
C300 H342 0.930 1_554 S
C301 N297 1.279 . S
C301 C299 1.358 . S
C301 H343 0.930 . S
C302 C303 1.348 . S
C302 C304 1.356 . S
C302 O327 1.325 . S
C303 C302 1.348 . S
C303 C305 1.353 . S
C303 H344 0.929 . S
C304 C302 1.356 . S
C304 C306 1.358 . S
C304 H345 0.930 . S
C305 C303 1.353 . S
C305 N307 1.314 . S
C305 H346 0.930 . S
C306 C304 1.358 . S
C306 N307 1.279 . S
C306 H347 0.930 . S
N307 C305 1.314 . S
N307 C306 1.279 . S
C308 C310 1.353 . S
C308 N311 1.314 . S
C308 H314 0.930 . S
C309 N311 1.279 . S
C309 C312 1.358 1_554 S
C309 H315 0.930 . S
C310 C308 1.353 . S
C310 C313 1.348 1_554 S
C310 H348 0.929 . S
N311 Li266 1.990 . S
N311 C308 1.314 . S
N311 C309 1.279 . S
C312 C309 1.358 1_556 S
C312 C313 1.356 . S
C312 H349 0.930 . S
C313 C310 1.348 1_556 S
C313 C312 1.356 . S
H314 C308 0.930 . S
H315 C309 0.930 . S
C316 N317 1.314 . S
C316 C318 1.353 . S
C316 H322 0.930 . S
N317 Li267 1.990 . S
N317 C316 1.314 . S
N317 C320 1.279 . S
C318 C316 1.353 . S
C318 C321 1.348 . S
C318 H350 0.929 . S
C319 C320 1.358 . S
C319 C321 1.356 . S
C319 H351 0.930 . S
C320 N317 1.279 . S
C320 C319 1.358 . S
C320 H323 0.930 . S
C321 C318 1.348 . S
C321 C319 1.356 . S
H322 C316 0.930 . S
H323 C320 0.930 . S
O324 Li264 1.956 . S
O324 Li265 1.970 . S
O324 Li266 1.961 . S
O324 C268 1.325 . S
O325 Li264 1.970 . S
O325 Li265 1.956 . S
O325 Li267 1.961 1_554 S
O325 C274 1.325 . S
O326 Li264 1.961 . S
O326 Li266 1.956 . S
O326 Li267 1.970 1_554 S
O326 C296 1.325 . S
O327 Li265 1.961 1_556 S
O327 Li266 1.970 1_556 S
O327 Li267 1.956 . S
O327 C302 1.325 . S
H328 C270 0.929 . S
H329 C271 0.930 . S
H330 C272 0.930 . S
H331 C273 0.930 . S
H332 C275 0.930 . S
H333 C277 0.929 . S
H334 C278 0.930 . S
H335 C279 0.930 . S
H336 C282 0.930 . S
H337 C285 0.929 . S
H338 C290 0.929 . S
H339 C291 0.930 . S
H340 C298 0.929 . S
H341 C299 0.930 . S
H342 C300 0.930 1_556 S
H343 C301 0.930 . S
H344 C303 0.929 . S
H345 C304 0.930 . S
H346 C305 0.930 . S
H347 C306 0.930 . S
H348 C310 0.929 . S
H349 C312 0.930 . S
H350 C318 0.929 . S
H351 C319 0.930 . S
Li352 N369 1.994 . S
Li352 O412 1.998 . S
Li352 O413 1.926 1_455 S
Li352 O414 1.958 1_455 S
Li353 N377 1.993 . S
Li353 O412 1.936 1_655 S
Li353 O413 1.988 . S
Li353 O415 1.958 1_655 S
Li354 N399 1.990 . S
Li354 O412 1.961 . S
Li354 O414 1.929 1_455 S
Li354 O415 2.005 . S
Li355 N405 1.990 . S
Li355 O413 1.961 . S
Li355 O414 1.996 . S
Li355 O415 1.919 1_655 S
C356 C358 1.348 . S
C356 C359 1.356 . S
C356 O412 1.325 . S
N357 C360 1.314 . S
N357 C361 1.279 . S
C358 C356 1.348 . S
C358 C360 1.353 . S
C358 H416 0.929 . S
C359 C356 1.356 . S
C359 C361 1.358 . S
C359 H417 0.930 . S
C360 N357 1.314 . S
C360 C358 1.353 . S
C360 H418 0.930 . S
C361 N357 1.279 . S
C361 C359 1.358 . S
C361 H419 0.930 . S
C362 C365 1.348 . S
C362 C366 1.356 . S
C362 O413 1.325 . S
C363 N364 1.279 . S
C363 C366 1.358 . S
C363 H420 0.930 . S
N364 C363 1.279 . S
N364 C367 1.314 . S
C365 C362 1.348 . S
C365 C367 1.353 . S
C365 H421 0.929 . S
C366 C362 1.356 . S
C366 C363 1.358 . S
C366 H422 0.930 . S
C367 N364 1.314 . S
C367 C365 1.353 . S
C367 H423 0.930 . S
C368 N369 1.314 1_655 S
C368 C373 1.353 . S
C368 H374 0.930 . S
N369 Li352 1.994 . S
N369 C368 1.314 1_455 S
N369 C371 1.279 . S
C370 C371 1.358 . S
C370 C372 1.356 . S
C370 H424 0.930 . S
C371 N369 1.279 . S
C371 C370 1.358 . S
C371 H375 0.930 . S
C372 C370 1.356 . S
C372 C373 1.348 1_455 S
C373 C368 1.353 . S
C373 C372 1.348 1_655 S
C373 H425 0.929 . S
H374 C368 0.930 . S
H375 C371 0.930 . S
C376 N377 1.314 1_454 S
C376 C378 1.353 . S
C376 H382 0.930 . S
N377 Li353 1.993 . S
N377 C376 1.314 1_656 S
N377 C380 1.279 . S
C378 C376 1.353 . S
C378 C381 1.348 . S
C378 H426 0.929 . S
C379 C380 1.367 . S
C379 C381 1.346 1_656 S
C379 H427 0.931 . S
C380 N377 1.279 . S
C380 C379 1.367 . S
C380 H383 0.930 . S
C381 C378 1.348 . S
C381 C379 1.346 1_454 S
H382 C376 0.930 . S
H383 C380 0.930 . S
C384 C386 1.348 1_455 S
C384 C387 1.356 . S
C384 O414 1.324 1_455 S
N385 C388 1.314 1_455 S
N385 C389 1.279 . S
C386 C384 1.348 1_655 S
C386 C388 1.353 . S
C386 H428 0.929 . S
C387 C384 1.356 . S
C387 C389 1.358 . S
C387 H429 0.930 . S
C388 N385 1.314 1_655 S
C388 C386 1.353 . S
C388 H430 0.930 . S
C389 N385 1.279 . S
C389 C387 1.358 . S
C389 H431 0.930 . S
C390 C391 1.348 . S
C390 C392 1.356 1_456 S
C390 O415 1.324 . S
C391 C390 1.348 . S
C391 C393 1.353 1_556 S
C391 H432 0.929 . S
C392 C390 1.356 1_654 S
C392 C394 1.358 . S
C392 H433 0.930 . S
C393 C391 1.353 1_554 S
C393 N395 1.314 1_455 S
C393 H434 0.930 . S
C394 C392 1.358 . S
C394 N395 1.279 . S
C394 H435 0.930 . S
N395 C393 1.314 1_655 S
N395 C394 1.279 . S
C396 C398 1.353 . S
C396 N399 1.314 . S
C396 H402 0.930 . S
C397 N399 1.279 . S
C397 C400 1.358 . S
C397 H403 0.930 . S
C398 C396 1.353 . S
C398 C401 1.348 . S
C398 H436 0.929 . S
N399 Li354 1.990 . S
N399 C396 1.314 . S
N399 C397 1.279 . S
C400 C397 1.358 . S
C400 C401 1.356 . S
C400 H437 0.930 . S
C401 C398 1.348 . S
C401 C400 1.356 . S
H402 C396 0.930 . S
H403 C397 0.930 . S
C404 N405 1.314 . S
C404 C406 1.353 . S
C404 H410 0.930 . S
N405 Li355 1.990 . S
N405 C404 1.314 . S
N405 C408 1.279 . S
C406 C404 1.353 . S
C406 C409 1.348 . S
C406 H438 0.929 . S
C407 C408 1.358 . S
C407 C409 1.356 . S
C407 H439 0.930 . S
C408 N405 1.279 . S
C408 C407 1.358 . S
C408 H411 0.930 . S
C409 C406 1.348 . S
C409 C407 1.356 . S
H410 C404 0.930 . S
H411 C408 0.930 . S
O412 Li352 1.998 . S
O412 Li353 1.936 1_455 S
O412 Li354 1.961 . S
O412 C356 1.325 . S
O413 Li352 1.926 1_655 S
O413 Li353 1.988 . S
O413 Li355 1.961 . S
O413 C362 1.325 . S
O414 Li352 1.958 1_655 S
O414 Li354 1.929 1_655 S
O414 Li355 1.996 . S
O414 C384 1.324 1_655 S
O415 Li353 1.958 1_455 S
O415 Li354 2.005 . S
O415 Li355 1.919 1_455 S
O415 C390 1.324 . S
H416 C358 0.929 . S
H417 C359 0.930 . S
H418 C360 0.930 . S
H419 C361 0.930 . S
H420 C363 0.930 . S
H421 C365 0.929 . S
H422 C366 0.930 . S
H423 C367 0.930 . S
H424 C370 0.930 . S
H425 C373 0.929 . S
H426 C378 0.929 . S
H427 C379 0.931 . S
H428 C386 0.929 . S
H429 C387 0.930 . S
H430 C388 0.930 . S
H431 C389 0.930 . S
H432 C391 0.929 . S
H433 C392 0.930 . S
H434 C393 0.930 . S
H435 C394 0.930 . S
H436 C398 0.929 . S
H437 C400 0.930 . S
H438 C406 0.929 . S
H439 C407 0.930 . S
Li440 N457 1.990 . S
Li440 O500 1.956 . S
Li440 O501 1.970 . S
Li440 O502 1.961 . S
Li441 N465 1.990 . S
Li441 O500 1.970 . S
Li441 O501 1.956 . S
Li441 O503 1.961 . S
Li442 N487 1.990 . S
Li442 O500 1.961 . S
Li442 O502 1.956 . S
Li442 O503 1.970 . S
Li443 N493 1.990 . S
Li443 O501 1.961 . S
Li443 O502 1.970 . S
Li443 O503 1.956 . S
C444 C446 1.348 . S
C444 C447 1.356 . S
C444 O500 1.325 . S
N445 C448 1.314 . S
N445 C449 1.279 . S
C446 C444 1.348 . S
C446 C448 1.353 . S
C446 H504 0.929 . S
C447 C444 1.356 . S
C447 C449 1.358 . S
C447 H505 0.930 . S
C448 N445 1.314 . S
C448 C446 1.353 . S
C448 H506 0.930 . S
C449 N445 1.279 . S
C449 C447 1.358 . S
C449 H507 0.930 . S
C450 C453 1.348 . S
C450 C454 1.356 . S
C450 O501 1.325 . S
C451 N452 1.279 . S
C451 C454 1.358 . S
C451 H508 0.930 . S
N452 C451 1.279 . S
N452 C455 1.314 . S
C453 C450 1.348 . S
C453 C455 1.353 . S
C453 H509 0.929 . S
C454 C450 1.356 . S
C454 C451 1.358 . S
C454 H510 0.930 . S
C455 N452 1.314 . S
C455 C453 1.353 . S
C455 H511 0.930 . S
C456 N457 1.314 . S
C456 C461 1.353 . S
C456 H462 0.930 . S
N457 Li440 1.990 . S
N457 C456 1.314 . S
N457 C459 1.279 . S
C458 C459 1.358 . S
C458 C460 1.356 . S
C458 H512 0.930 . S
C459 N457 1.279 . S
C459 C458 1.358 . S
C459 H463 0.930 . S
C460 C458 1.356 . S
C460 C461 1.348 . S
C461 C456 1.353 . S
C461 C460 1.348 . S
C461 H513 0.929 . S
H462 C456 0.930 . S
H463 C459 0.930 . S
C464 N465 1.314 . S
C464 C466 1.353 . S
C464 H470 0.930 . S
N465 Li441 1.990 . S
N465 C464 1.314 . S
N465 C468 1.279 . S
C466 C464 1.353 . S
C466 C469 1.348 . S
C466 H514 0.929 . S
C467 C468 1.358 . S
C467 C469 1.356 . S
C467 H515 0.930 . S
C468 N465 1.279 . S
C468 C467 1.358 . S
C468 H471 0.930 . S
C469 C466 1.348 . S
C469 C467 1.356 . S
H470 C464 0.930 . S
H471 C468 0.930 . S
C472 C474 1.348 . S
C472 C475 1.356 . S
C472 O502 1.325 . S
N473 C476 1.314 . S
N473 C477 1.279 . S
C474 C472 1.348 . S
C474 C476 1.353 1_554 S
C474 H516 0.929 . S
C475 C472 1.356 . S
C475 C477 1.358 1_554 S
C475 H517 0.930 . S
C476 N473 1.314 . S
C476 C474 1.353 1_556 S
C476 H518 0.930 . S
C477 N473 1.279 . S
C477 C475 1.358 1_556 S
C477 H519 0.930 . S
C478 C479 1.348 . S
C478 C480 1.356 . S
C478 O503 1.325 . S
C479 C478 1.348 . S
C479 C481 1.353 . S
C479 H520 0.929 . S
C480 C478 1.356 . S
C480 C482 1.358 . S
C480 H521 0.930 . S
C481 C479 1.353 . S
C481 N483 1.314 . S
C481 H522 0.930 . S
C482 C480 1.358 . S
C482 N483 1.279 . S
C482 H523 0.930 . S
N483 C481 1.314 . S
N483 C482 1.279 . S
C484 C486 1.353 . S
C484 N487 1.314 1_556 S
C484 H490 0.930 1_556 S
C485 N487 1.279 1_556 S
C485 C488 1.358 . S
C485 H491 0.930 . S
C486 C484 1.353 . S
C486 C489 1.348 . S
C486 H524 0.929 . S
N487 Li442 1.990 . S
N487 C484 1.314 1_554 S
N487 C485 1.279 1_554 S
C488 C485 1.358 . S
C488 C489 1.356 . S
C488 H525 0.930 . S
C489 C486 1.348 . S
C489 C488 1.356 . S
H490 C484 0.930 1_554 S
H491 C485 0.930 . S
C492 N493 1.314 . S
C492 C494 1.353 . S
C492 H498 0.930 . S
N493 Li443 1.990 . S
N493 C492 1.314 . S
N493 C496 1.279 . S
C494 C492 1.353 . S
C494 C497 1.348 . S
C494 H526 0.929 . S
C495 C496 1.358 . S
C495 C497 1.356 . S
C495 H527 0.930 . S
C496 N493 1.279 . S
C496 C495 1.358 . S
C496 H499 0.930 . S
C497 C494 1.348 . S
C497 C495 1.356 . S
H498 C492 0.930 . S
H499 C496 0.930 . S
O500 Li440 1.956 . S
O500 Li441 1.970 . S
O500 Li442 1.961 . S
O500 C444 1.325 . S
O501 Li440 1.970 . S
O501 Li441 1.956 . S
O501 Li443 1.961 . S
O501 C450 1.325 . S
O502 Li440 1.961 . S
O502 Li442 1.956 . S
O502 Li443 1.970 . S
O502 C472 1.325 . S
O503 Li441 1.961 . S
O503 Li442 1.970 . S
O503 Li443 1.956 . S
O503 C478 1.325 . S
H504 C446 0.929 . S
H505 C447 0.930 . S
H506 C448 0.930 . S
H507 C449 0.930 . S
H508 C451 0.930 . S
H509 C453 0.929 . S
H510 C454 0.930 . S
H511 C455 0.930 . S
H512 C458 0.930 . S
H513 C461 0.929 . S
H514 C466 0.929 . S
H515 C467 0.930 . S
H516 C474 0.929 . S
H517 C475 0.930 . S
H518 C476 0.930 . S
H519 C477 0.930 . S
H520 C479 0.929 . S
H521 C480 0.930 . S
H522 C481 0.930 . S
H523 C482 0.930 . S
H524 C486 0.929 . S
H525 C488 0.930 . S
H526 C494 0.929 . S
H527 C495 0.930 . S
Li528 N545 1.990 . S
Li528 O588 1.956 . S
Li528 O589 1.970 . S
Li528 O590 1.961 . S
Li529 N553 1.990 . S
Li529 O588 1.970 . S
Li529 O589 1.956 . S
Li529 O591 1.961 . S
Li530 N575 1.990 . S
Li530 O588 1.961 . S
Li530 O590 1.956 . S
Li530 O591 1.970 . S
Li531 N581 1.990 . S
Li531 O589 1.961 . S
Li531 O590 1.970 . S
Li531 O591 1.956 . S
C532 C534 1.348 . S
C532 C535 1.356 . S
C532 O588 1.325 . S
N533 C536 1.314 . S
N533 C537 1.279 . S
C534 C532 1.348 . S
C534 C536 1.353 . S
C534 H592 0.929 . S
C535 C532 1.356 . S
C535 C537 1.358 . S
C535 H593 0.930 . S
C536 N533 1.314 . S
C536 C534 1.353 . S
C536 H594 0.930 . S
C537 N533 1.279 . S
C537 C535 1.358 . S
C537 H595 0.930 . S
C538 C541 1.348 . S
C538 C542 1.356 . S
C538 O589 1.325 . S
C539 N540 1.279 . S
C539 C542 1.358 . S
C539 H596 0.930 . S
N540 C539 1.279 . S
N540 C543 1.314 . S
C541 C538 1.348 . S
C541 C543 1.353 . S
C541 H597 0.929 . S
C542 C538 1.356 . S
C542 C539 1.358 . S
C542 H598 0.930 . S
C543 N540 1.314 . S
C543 C541 1.353 . S
C543 H599 0.930 . S
C544 N545 1.314 . S
C544 C549 1.353 . S
C544 H550 0.930 . S
N545 Li528 1.990 . S
N545 C544 1.314 . S
N545 C547 1.279 . S
C546 C547 1.358 . S
C546 C548 1.356 . S
C546 H600 0.930 . S
C547 N545 1.279 . S
C547 C546 1.358 . S
C547 H551 0.930 . S
C548 C546 1.356 . S
C548 C549 1.348 . S
C549 C544 1.353 . S
C549 C548 1.348 . S
C549 H601 0.929 . S
H550 C544 0.930 . S
H551 C547 0.930 . S
C552 N553 1.314 . S
C552 C554 1.353 . S
C552 H558 0.930 . S
N553 Li529 1.990 . S
N553 C552 1.314 . S
N553 C556 1.279 . S
C554 C552 1.353 . S
C554 C557 1.348 . S
C554 H602 0.929 . S
C555 C556 1.358 . S
C555 C557 1.356 . S
C555 H603 0.930 . S
C556 N553 1.279 . S
C556 C555 1.358 . S
C556 H559 0.930 . S
C557 C554 1.348 . S
C557 C555 1.356 . S
H558 C552 0.930 . S
H559 C556 0.930 . S
C560 C562 1.348 . S
C560 C563 1.356 . S
C560 O590 1.325 . S
N561 C564 1.314 . S
N561 C565 1.279 . S
C562 C560 1.348 . S
C562 C564 1.353 . S
C562 H604 0.929 . S
C563 C560 1.356 . S
C563 C565 1.358 . S
C563 H605 0.930 . S
C564 N561 1.314 . S
C564 C562 1.353 . S
C564 H606 0.930 . S
C565 N561 1.279 . S
C565 C563 1.358 . S
C565 H607 0.930 . S
C566 C567 1.348 . S
C566 C568 1.356 . S
C566 O591 1.325 . S
C567 C566 1.348 . S
C567 C569 1.353 . S
C567 H608 0.929 . S
C568 C566 1.356 . S
C568 C570 1.358 . S
C568 H609 0.930 . S
C569 C567 1.353 . S
C569 N571 1.314 . S
C569 H610 0.930 . S
C570 C568 1.358 . S
C570 N571 1.279 . S
C570 H611 0.930 . S
N571 C569 1.314 . S
N571 C570 1.279 . S
C572 C574 1.353 . S
C572 N575 1.314 . S
C572 H578 0.930 . S
C573 N575 1.279 . S
C573 C576 1.358 . S
C573 H579 0.930 . S
C574 C572 1.353 . S
C574 C577 1.348 . S
C574 H612 0.929 . S
N575 Li530 1.990 . S
N575 C572 1.314 . S
N575 C573 1.279 . S
C576 C573 1.358 . S
C576 C577 1.356 . S
C576 H613 0.930 . S
C577 C574 1.348 . S
C577 C576 1.356 . S
H578 C572 0.930 . S
H579 C573 0.930 . S
C580 N581 1.314 . S
C580 C582 1.353 . S
C580 H586 0.930 . S
N581 Li531 1.990 . S
N581 C580 1.314 . S
N581 C584 1.279 . S
C582 C580 1.353 . S
C582 C585 1.348 . S
C582 H614 0.929 . S
C583 C584 1.358 . S
C583 C585 1.356 . S
C583 H615 0.930 . S
C584 N581 1.279 . S
C584 C583 1.358 . S
C584 H587 0.930 . S
C585 C582 1.348 . S
C585 C583 1.356 . S
H586 C580 0.930 . S
H587 C584 0.930 . S
O588 Li528 1.956 . S
O588 Li529 1.970 . S
O588 Li530 1.961 . S
O588 C532 1.325 . S
O589 Li528 1.970 . S
O589 Li529 1.956 . S
O589 Li531 1.961 . S
O589 C538 1.325 . S
O590 Li528 1.961 . S
O590 Li530 1.956 . S
O590 Li531 1.970 . S
O590 C560 1.325 . S
O591 Li529 1.961 . S
O591 Li530 1.970 . S
O591 Li531 1.956 . S
O591 C566 1.325 . S
H592 C534 0.929 . S
H593 C535 0.930 . S
H594 C536 0.930 . S
H595 C537 0.930 . S
H596 C539 0.930 . S
H597 C541 0.929 . S
H598 C542 0.930 . S
H599 C543 0.930 . S
H600 C546 0.930 . S
H601 C549 0.929 . S
H602 C554 0.929 . S
H603 C555 0.930 . S
H604 C562 0.929 . S
H605 C563 0.930 . S
H606 C564 0.930 . S
H607 C565 0.930 . S
H608 C567 0.929 . S
H609 C568 0.930 . S
H610 C569 0.930 . S
H611 C570 0.930 . S
H612 C574 0.929 . S
H613 C576 0.930 . S
H614 C582 0.929 . S
H615 C583 0.930 . S
Li616 N633 1.990 . S
Li616 O676 1.956 . S
Li616 O677 1.970 . S
Li616 O678 1.961 . S
Li617 N641 1.990 . S
Li617 O676 1.970 . S
Li617 O677 1.956 . S
Li617 O679 1.961 . S
Li618 N663 1.990 . S
Li618 O676 1.961 . S
Li618 O678 1.956 . S
Li618 O679 1.970 . S
Li619 N669 1.990 . S
Li619 O677 1.961 . S
Li619 O678 1.970 . S
Li619 O679 1.956 . S
C620 C622 1.348 . S
C620 C623 1.356 . S
C620 O676 1.325 . S
N621 C624 1.314 . S
N621 C625 1.279 . S
C622 C620 1.348 . S
C622 C624 1.353 . S
C622 H680 0.929 . S
C623 C620 1.356 . S
C623 C625 1.358 . S
C623 H681 0.930 . S
C624 N621 1.314 . S
C624 C622 1.353 . S
C624 H682 0.930 . S
C625 N621 1.279 . S
C625 C623 1.358 . S
C625 H683 0.930 . S
C626 C629 1.348 . S
C626 C630 1.356 . S
C626 O677 1.325 . S
C627 N628 1.279 . S
C627 C630 1.358 . S
C627 H684 0.930 . S
N628 C627 1.279 . S
N628 C631 1.314 . S
C629 C626 1.348 . S
C629 C631 1.353 . S
C629 H685 0.929 . S
C630 C626 1.356 . S
C630 C627 1.358 . S
C630 H686 0.930 . S
C631 N628 1.314 . S
C631 C629 1.353 . S
C631 H687 0.930 . S
C632 N633 1.314 . S
C632 C637 1.353 . S
C632 H638 0.930 . S
N633 Li616 1.990 . S
N633 C632 1.314 . S
N633 C635 1.279 . S
C634 C635 1.358 . S
C634 C636 1.356 . S
C634 H688 0.930 . S
C635 N633 1.279 . S
C635 C634 1.358 . S
C635 H639 0.930 . S
C636 C634 1.356 . S
C636 C637 1.348 . S
C637 C632 1.353 . S
C637 C636 1.348 . S
C637 H689 0.929 . S
H638 C632 0.930 . S
H639 C635 0.930 . S
C640 N641 1.314 . S
C640 C642 1.353 . S
C640 H646 0.930 . S
N641 Li617 1.990 . S
N641 C640 1.314 . S
N641 C644 1.279 . S
C642 C640 1.353 . S
C642 C645 1.348 . S
C642 H690 0.929 . S
C643 C644 1.358 . S
C643 C645 1.356 . S
C643 H691 0.930 . S
C644 N641 1.279 . S
C644 C643 1.358 . S
C644 H647 0.930 . S
C645 C642 1.348 . S
C645 C643 1.356 . S
H646 C640 0.930 . S
H647 C644 0.930 . S
C648 C650 1.348 . S
C648 C651 1.356 . S
C648 O678 1.325 . S
N649 C652 1.314 . S
N649 C653 1.279 . S
C650 C648 1.348 . S
C650 C652 1.353 . S
C650 H692 0.929 . S
C651 C648 1.356 . S
C651 C653 1.358 . S
C651 H693 0.930 . S
C652 N649 1.314 . S
C652 C650 1.353 . S
C652 H694 0.930 . S
C653 N649 1.279 . S
C653 C651 1.358 . S
C653 H695 0.930 . S
C654 C655 1.348 . S
C654 C656 1.356 . S
C654 O679 1.325 . S
C655 C654 1.348 . S
C655 C657 1.353 . S
C655 H696 0.929 . S
C656 C654 1.356 . S
C656 C658 1.358 . S
C656 H697 0.930 . S
C657 C655 1.353 . S
C657 N659 1.314 . S
C657 H698 0.930 . S
C658 C656 1.358 . S
C658 N659 1.279 . S
C658 H699 0.930 . S
N659 C657 1.314 . S
N659 C658 1.279 . S
C660 C662 1.353 . S
C660 N663 1.314 . S
C660 H666 0.930 . S
C661 N663 1.279 . S
C661 C664 1.358 . S
C661 H667 0.930 . S
C662 C660 1.353 . S
C662 C665 1.348 . S
C662 H700 0.929 . S
N663 Li618 1.990 . S
N663 C660 1.314 . S
N663 C661 1.279 . S
C664 C661 1.358 . S
C664 C665 1.356 . S
C664 H701 0.930 . S
C665 C662 1.348 . S
C665 C664 1.356 . S
H666 C660 0.930 . S
H667 C661 0.930 . S
C668 N669 1.314 . S
C668 C670 1.353 . S
C668 H674 0.930 . S
N669 Li619 1.990 . S
N669 C668 1.314 . S
N669 C672 1.279 . S
C670 C668 1.353 . S
C670 C673 1.348 . S
C670 H702 0.929 . S
C671 C672 1.358 . S
C671 C673 1.356 . S
C671 H703 0.930 . S
C672 N669 1.279 . S
C672 C671 1.358 . S
C672 H675 0.930 . S
C673 C670 1.348 . S
C673 C671 1.356 . S
H674 C668 0.930 . S
H675 C672 0.930 . S
O676 Li616 1.956 . S
O676 Li617 1.970 . S
O676 Li618 1.961 . S
O676 C620 1.325 . S
O677 Li616 1.970 . S
O677 Li617 1.956 . S
O677 Li619 1.961 . S
O677 C626 1.325 . S
O678 Li616 1.961 . S
O678 Li618 1.956 . S
O678 Li619 1.970 . S
O678 C648 1.325 . S
O679 Li617 1.961 . S
O679 Li618 1.970 . S
O679 Li619 1.956 . S
O679 C654 1.325 . S
H680 C622 0.929 . S
H681 C623 0.930 . S
H682 C624 0.930 . S
H683 C625 0.930 . S
H684 C627 0.930 . S
H685 C629 0.929 . S
H686 C630 0.930 . S
H687 C631 0.930 . S
H688 C634 0.930 . S
H689 C637 0.929 . S
H690 C642 0.929 . S
H691 C643 0.930 . S
H692 C650 0.929 . S
H693 C651 0.930 . S
H694 C652 0.930 . S
H695 C653 0.930 . S
H696 C655 0.929 . S
H697 C656 0.930 . S
H698 C657 0.930 . S
H699 C658 0.930 . S
H700 C662 0.929 . S
H701 C664 0.930 . S
H702 C670 0.929 . S
H703 C671 0.930 . S
Li704 N721 1.990 . S
Li704 O764 1.956 . S
Li704 O765 1.970 . S
Li704 O766 1.961 . S
Li705 N729 1.990 . S
Li705 O764 1.970 . S
Li705 O765 1.956 . S
Li705 O767 1.961 . S
Li706 N751 1.990 . S
Li706 O764 1.961 . S
Li706 O766 1.956 . S
Li706 O767 1.970 . S
Li707 N757 1.990 . S
Li707 O765 1.961 . S
Li707 O766 1.970 . S
Li707 O767 1.956 . S
C708 C710 1.348 . S
C708 C711 1.356 . S
C708 O764 1.325 . S
N709 C712 1.314 . S
N709 C713 1.279 . S
C710 C708 1.348 . S
C710 C712 1.353 . S
C710 H768 0.929 . S
C711 C708 1.356 . S
C711 C713 1.358 . S
C711 H769 0.930 . S
C712 N709 1.314 . S
C712 C710 1.353 . S
C712 H770 0.930 . S
C713 N709 1.279 . S
C713 C711 1.358 . S
C713 H771 0.930 . S
C714 C717 1.348 . S
C714 C718 1.356 . S
C714 O765 1.325 . S
C715 N716 1.279 . S
C715 C718 1.358 . S
C715 H772 0.930 . S
N716 C715 1.279 . S
N716 C719 1.314 . S
C717 C714 1.348 . S
C717 C719 1.353 . S
C717 H773 0.929 . S
C718 C714 1.356 . S
C718 C715 1.358 . S
C718 H774 0.930 . S
C719 N716 1.314 . S
C719 C717 1.353 . S
C719 H775 0.930 . S
C720 N721 1.314 . S
C720 C725 1.353 . S
C720 H726 0.930 . S
N721 Li704 1.990 . S
N721 C720 1.314 . S
N721 C723 1.279 . S
C722 C723 1.358 . S
C722 C724 1.356 . S
C722 H776 0.930 . S
C723 N721 1.279 . S
C723 C722 1.358 . S
C723 H727 0.930 . S
C724 C722 1.356 . S
C724 C725 1.348 . S
C725 C720 1.353 . S
C725 C724 1.348 . S
C725 H777 0.929 . S
H726 C720 0.930 . S
H727 C723 0.930 . S
C728 N729 1.314 . S
C728 C730 1.353 . S
C728 H734 0.930 . S
N729 Li705 1.990 . S
N729 C728 1.314 . S
N729 C732 1.279 . S
C730 C728 1.353 . S
C730 C733 1.348 . S
C730 H778 0.929 . S
C731 C732 1.358 . S
C731 C733 1.356 . S
C731 H779 0.930 . S
C732 N729 1.279 . S
C732 C731 1.358 . S
C732 H735 0.930 . S
C733 C730 1.348 . S
C733 C731 1.356 . S
H734 C728 0.930 . S
H735 C732 0.930 . S
C736 C738 1.348 . S
C736 C739 1.356 . S
C736 O766 1.325 . S
N737 C740 1.314 . S
N737 C741 1.279 . S
C738 C736 1.348 . S
C738 C740 1.353 . S
C738 H780 0.929 . S
C739 C736 1.356 . S
C739 C741 1.358 . S
C739 H781 0.930 . S
C740 N737 1.314 . S
C740 C738 1.353 . S
C740 H782 0.930 . S
C741 N737 1.279 . S
C741 C739 1.358 . S
C741 H783 0.930 . S
C742 C743 1.348 . S
C742 C744 1.356 . S
C742 O767 1.325 . S
C743 C742 1.348 . S
C743 C745 1.353 . S
C743 H784 0.929 . S
C744 C742 1.356 . S
C744 C746 1.358 . S
C744 H785 0.930 . S
C745 C743 1.353 . S
C745 N747 1.314 . S
C745 H786 0.930 . S
C746 C744 1.358 . S
C746 N747 1.279 . S
C746 H787 0.930 . S
N747 C745 1.314 . S
N747 C746 1.279 . S
C748 C750 1.353 . S
C748 N751 1.314 . S
C748 H754 0.930 . S
C749 N751 1.279 . S
C749 C752 1.358 . S
C749 H755 0.930 . S
C750 C748 1.353 . S
C750 C753 1.348 . S
C750 H788 0.929 . S
N751 Li706 1.990 . S
N751 C748 1.314 . S
N751 C749 1.279 . S
C752 C749 1.358 . S
C752 C753 1.356 . S
C752 H789 0.930 . S
C753 C750 1.348 . S
C753 C752 1.356 . S
H754 C748 0.930 . S
H755 C749 0.930 . S
C756 N757 1.314 . S
C756 C758 1.353 . S
C756 H762 0.930 . S
N757 Li707 1.990 . S
N757 C756 1.314 . S
N757 C760 1.279 . S
C758 C756 1.353 . S
C758 C761 1.348 . S
C758 H790 0.929 . S
C759 C760 1.358 . S
C759 C761 1.356 . S
C759 H791 0.930 . S
C760 N757 1.279 . S
C760 C759 1.358 . S
C760 H763 0.930 . S
C761 C758 1.348 . S
C761 C759 1.356 . S
H762 C756 0.930 . S
H763 C760 0.930 . S
O764 Li704 1.956 . S
O764 Li705 1.970 . S
O764 Li706 1.961 . S
O764 C708 1.325 . S
O765 Li704 1.970 . S
O765 Li705 1.956 . S
O765 Li707 1.961 . S
O765 C714 1.325 . S
O766 Li704 1.961 . S
O766 Li706 1.956 . S
O766 Li707 1.970 . S
O766 C736 1.325 . S
O767 Li705 1.961 . S
O767 Li706 1.970 . S
O767 Li707 1.956 . S
O767 C742 1.325 . S
H768 C710 0.929 . S
H769 C711 0.930 . S
H770 C712 0.930 . S
H771 C713 0.930 . S
H772 C715 0.930 . S
H773 C717 0.929 . S
H774 C718 0.930 . S
H775 C719 0.930 . S
H776 C722 0.930 . S
H777 C725 0.929 . S
H778 C730 0.929 . S
H779 C731 0.930 . S
H780 C738 0.929 . S
H781 C739 0.930 . S
H782 C740 0.930 . S
H783 C741 0.930 . S
H784 C743 0.929 . S
H785 C744 0.930 . S
H786 C745 0.930 . S
H787 C746 0.930 . S
H788 C750 0.929 . S
H789 C752 0.930 . S
H790 C758 0.929 . S
H791 C759 0.930 . S
Li792 N809 1.990 . S
Li792 O852 1.956 . S
Li792 O853 1.970 . S
Li792 O854 1.961 . S
Li793 N817 1.990 . S
Li793 O852 1.970 . S
Li793 O853 1.956 . S
Li793 O855 1.961 . S
Li794 N839 1.990 . S
Li794 O852 1.961 . S
Li794 O854 1.956 . S
Li794 O855 1.970 . S
Li795 N845 1.990 . S
Li795 O853 1.961 . S
Li795 O854 1.970 . S
Li795 O855 1.956 . S
C796 C798 1.348 . S
C796 C799 1.356 . S
C796 O852 1.325 . S
N797 C800 1.314 . S
N797 C801 1.279 . S
C798 C796 1.348 . S
C798 C800 1.353 . S
C798 H856 0.929 . S
C799 C796 1.356 . S
C799 C801 1.358 . S
C799 H857 0.930 . S
C800 N797 1.314 . S
C800 C798 1.353 . S
C800 H858 0.930 . S
C801 N797 1.279 . S
C801 C799 1.358 . S
C801 H859 0.930 . S
C802 C805 1.348 . S
C802 C806 1.356 . S
C802 O853 1.325 . S
C803 N804 1.279 . S
C803 C806 1.358 . S
C803 H860 0.930 . S
N804 C803 1.279 . S
N804 C807 1.314 . S
C805 C802 1.348 . S
C805 C807 1.353 . S
C805 H861 0.929 . S
C806 C802 1.356 . S
C806 C803 1.358 . S
C806 H862 0.930 . S
C807 N804 1.314 . S
C807 C805 1.353 . S
C807 H863 0.930 . S
C808 N809 1.314 . S
C808 C813 1.353 . S
C808 H814 0.930 . S
N809 Li792 1.990 . S
N809 C808 1.314 . S
N809 C811 1.279 . S
C810 C811 1.358 . S
C810 C812 1.356 . S
C810 H864 0.930 . S
C811 N809 1.279 . S
C811 C810 1.358 . S
C811 H815 0.930 . S
C812 C810 1.356 . S
C812 C813 1.348 . S
C813 C808 1.353 . S
C813 C812 1.348 . S
C813 H865 0.929 . S
H814 C808 0.930 . S
H815 C811 0.930 . S
C816 N817 1.314 . S
C816 C818 1.353 . S
C816 H822 0.930 . S
N817 Li793 1.990 . S
N817 C816 1.314 . S
N817 C820 1.279 . S
C818 C816 1.353 . S
C818 C821 1.348 . S
C818 H866 0.929 . S
C819 C820 1.358 . S
C819 C821 1.356 . S
C819 H867 0.930 . S
C820 N817 1.279 . S
C820 C819 1.358 . S
C820 H823 0.930 . S
C821 C818 1.348 . S
C821 C819 1.356 . S
H822 C816 0.930 . S
H823 C820 0.930 . S
C824 C826 1.348 . S
C824 C827 1.356 . S
C824 O854 1.325 . S
N825 C828 1.314 . S
N825 C829 1.279 . S
C826 C824 1.348 . S
C826 C828 1.353 1_554 S
C826 H868 0.929 . S
C827 C824 1.356 . S
C827 C829 1.358 1_554 S
C827 H869 0.930 . S
C828 N825 1.314 . S
C828 C826 1.353 1_556 S
C828 H870 0.930 . S
C829 N825 1.279 . S
C829 C827 1.358 1_556 S
C829 H871 0.930 . S
C830 C831 1.348 . S
C830 C832 1.356 . S
C830 O855 1.325 . S
C831 C830 1.348 . S
C831 C833 1.353 . S
C831 H872 0.929 . S
C832 C830 1.356 . S
C832 C834 1.358 . S
C832 H873 0.930 . S
C833 C831 1.353 . S
C833 N835 1.314 . S
C833 H874 0.930 . S
C834 C832 1.358 . S
C834 N835 1.279 . S
C834 H875 0.930 . S
N835 C833 1.314 . S
N835 C834 1.279 . S
C836 C838 1.353 . S
C836 N839 1.314 1_556 S
C836 H842 0.930 1_556 S
C837 N839 1.279 1_556 S
C837 C840 1.358 . S
C837 H843 0.930 . S
C838 C836 1.353 . S
C838 C841 1.348 . S
C838 H876 0.929 . S
N839 Li794 1.990 . S
N839 C836 1.314 1_554 S
N839 C837 1.279 1_554 S
C840 C837 1.358 . S
C840 C841 1.356 . S
C840 H877 0.930 . S
C841 C838 1.348 . S
C841 C840 1.356 . S
H842 C836 0.930 1_554 S
H843 C837 0.930 . S
C844 N845 1.314 . S
C844 C846 1.353 . S
C844 H850 0.930 . S
N845 Li795 1.990 . S
N845 C844 1.314 . S
N845 C848 1.279 . S
C846 C844 1.353 . S
C846 C849 1.348 . S
C846 H878 0.929 . S
C847 C848 1.358 . S
C847 C849 1.356 . S
C847 H879 0.930 . S
C848 N845 1.279 . S
C848 C847 1.358 . S
C848 H851 0.930 . S
C849 C846 1.348 . S
C849 C847 1.356 . S
H850 C844 0.930 . S
H851 C848 0.930 . S
O852 Li792 1.956 . S
O852 Li793 1.970 . S
O852 Li794 1.961 . S
O852 C796 1.325 . S
O853 Li792 1.970 . S
O853 Li793 1.956 . S
O853 Li795 1.961 . S
O853 C802 1.325 . S
O854 Li792 1.961 . S
O854 Li794 1.956 . S
O854 Li795 1.970 . S
O854 C824 1.325 . S
O855 Li793 1.961 . S
O855 Li794 1.970 . S
O855 Li795 1.956 . S
O855 C830 1.325 . S
H856 C798 0.929 . S
H857 C799 0.930 . S
H858 C800 0.930 . S
H859 C801 0.930 . S
H860 C803 0.930 . S
H861 C805 0.929 . S
H862 C806 0.930 . S
H863 C807 0.930 . S
H864 C810 0.930 . S
H865 C813 0.929 . S
H866 C818 0.929 . S
H867 C819 0.930 . S
H868 C826 0.929 . S
H869 C827 0.930 . S
H870 C828 0.930 . S
H871 C829 0.930 . S
H872 C831 0.929 . S
H873 C832 0.930 . S
H874 C833 0.930 . S
H875 C834 0.930 . S
H876 C838 0.929 . S
H877 C840 0.930 . S
H878 C846 0.929 . S
H879 C847 0.930 . S
Li880 N897 1.990 . S
Li880 O940 1.956 . S
Li880 O941 1.970 . S
Li880 O942 1.961 . S
Li881 N905 1.990 . S
Li881 O940 1.970 . S
Li881 O941 1.956 . S
Li881 O943 1.961 1_554 S
Li882 N927 1.990 . S
Li882 O940 1.961 . S
Li882 O942 1.956 . S
Li882 O943 1.970 1_554 S
Li883 N933 1.990 . S
Li883 O941 1.961 1_556 S
Li883 O942 1.970 1_556 S
Li883 O943 1.956 . S
C884 C886 1.348 . S
C884 C887 1.356 . S
C884 O940 1.325 . S
N885 C888 1.314 . S
N885 C889 1.279 . S
C886 C884 1.348 . S
C886 C888 1.353 . S
C886 H944 0.929 . S
C887 C884 1.356 . S
C887 C889 1.358 . S
C887 H945 0.930 . S
C888 N885 1.314 . S
C888 C886 1.353 . S
C888 H946 0.930 . S
C889 N885 1.279 . S
C889 C887 1.358 . S
C889 H947 0.930 . S
C890 C893 1.348 . S
C890 C894 1.356 1_554 S
C890 O941 1.325 . S
C891 N892 1.279 1_556 S
C891 C894 1.358 . S
C891 H948 0.930 . S
N892 C891 1.279 1_554 S
N892 C895 1.314 . S
C893 C890 1.348 . S
C893 C895 1.353 . S
C893 H949 0.929 . S
C894 C890 1.356 1_556 S
C894 C891 1.358 . S
C894 H950 0.930 . S
C895 N892 1.314 . S
C895 C893 1.353 . S
C895 H951 0.930 . S
C896 N897 1.314 . S
C896 C901 1.353 . S
C896 H902 0.930 . S
N897 Li880 1.990 . S
N897 C896 1.314 . S
N897 C899 1.279 . S
C898 C899 1.358 . S
C898 C900 1.356 . S
C898 H952 0.930 . S
C899 N897 1.279 . S
C899 C898 1.358 . S
C899 H903 0.930 . S
C900 C898 1.356 . S
C900 C901 1.348 . S
C901 C896 1.353 . S
C901 C900 1.348 . S
C901 H953 0.929 . S
H902 C896 0.930 . S
H903 C899 0.930 . S
C904 N905 1.314 1_556 S
C904 C906 1.353 . S
C904 H910 0.930 . S
N905 Li881 1.990 . S
N905 C904 1.314 1_554 S
N905 C908 1.279 . S
C906 C904 1.353 . S
C906 C909 1.348 . S
C906 H954 0.929 . S
C907 C908 1.358 . S
C907 C909 1.356 1_554 S
C907 H955 0.930 . S
C908 N905 1.279 . S
C908 C907 1.358 . S
C908 H911 0.930 . S
C909 C906 1.348 . S
C909 C907 1.356 1_556 S
H910 C904 0.930 . S
H911 C908 0.930 . S
C912 C914 1.348 1_554 S
C912 C915 1.356 . S
C912 O942 1.325 . S
N913 C916 1.314 . S
N913 C917 1.279 . S
C914 C912 1.348 1_556 S
C914 C916 1.353 1_556 S
C914 H956 0.929 . S
C915 C912 1.356 . S
C915 C917 1.358 . S
C915 H957 0.930 . S
C916 N913 1.314 . S
C916 C914 1.353 1_554 S
C916 H958 0.930 1_554 S
C917 N913 1.279 . S
C917 C915 1.358 . S
C917 H959 0.930 . S
C918 C919 1.348 . S
C918 C920 1.356 . S
C918 O943 1.325 . S
C919 C918 1.348 . S
C919 C921 1.353 . S
C919 H960 0.929 . S
C920 C918 1.356 . S
C920 C922 1.358 . S
C920 H961 0.930 . S
C921 C919 1.353 . S
C921 N923 1.314 . S
C921 H962 0.930 . S
C922 C920 1.358 . S
C922 N923 1.279 . S
C922 H963 0.930 . S
N923 C921 1.314 . S
N923 C922 1.279 . S
C924 C926 1.353 . S
C924 N927 1.314 . S
C924 H930 0.930 . S
C925 N927 1.279 . S
C925 C928 1.358 1_554 S
C925 H931 0.930 . S
C926 C924 1.353 . S
C926 C929 1.348 1_554 S
C926 H964 0.929 . S
N927 Li882 1.990 . S
N927 C924 1.314 . S
N927 C925 1.279 . S
C928 C925 1.358 1_556 S
C928 C929 1.356 . S
C928 H965 0.930 . S
C929 C926 1.348 1_556 S
C929 C928 1.356 . S
H930 C924 0.930 . S
H931 C925 0.930 . S
C932 N933 1.314 . S
C932 C934 1.353 . S
C932 H938 0.930 . S
N933 Li883 1.990 . S
N933 C932 1.314 . S
N933 C936 1.279 . S
C934 C932 1.353 . S
C934 C937 1.348 . S
C934 H966 0.929 . S
C935 C936 1.358 . S
C935 C937 1.356 . S
C935 H967 0.930 . S
C936 N933 1.279 . S
C936 C935 1.358 . S
C936 H939 0.930 . S
C937 C934 1.348 . S
C937 C935 1.356 . S
H938 C932 0.930 . S
H939 C936 0.930 . S
O940 Li880 1.956 . S
O940 Li881 1.970 . S
O940 Li882 1.961 . S
O940 C884 1.325 . S
O941 Li880 1.970 . S
O941 Li881 1.956 . S
O941 Li883 1.961 1_554 S
O941 C890 1.325 . S
O942 Li880 1.961 . S
O942 Li882 1.956 . S
O942 Li883 1.970 1_554 S
O942 C912 1.325 . S
O943 Li881 1.961 1_556 S
O943 Li882 1.970 1_556 S
O943 Li883 1.956 . S
O943 C918 1.325 . S
H944 C886 0.929 . S
H945 C887 0.930 . S
H946 C888 0.930 . S
H947 C889 0.930 . S
H948 C891 0.930 . S
H949 C893 0.929 . S
H950 C894 0.930 . S
H951 C895 0.930 . S
H952 C898 0.930 . S
H953 C901 0.929 . S
H954 C906 0.929 . S
H955 C907 0.930 . S
H956 C914 0.929 . S
H957 C915 0.930 . S
H958 C916 0.930 1_556 S
H959 C917 0.930 . S
H960 C919 0.929 . S
H961 C920 0.930 . S
H962 C921 0.930 . S
H963 C922 0.930 . S
H964 C926 0.929 . S
H965 C928 0.930 . S
H966 C934 0.929 . S
H967 C935 0.930 . S
Li968 N985 1.990 . S
Li968 O1028 1.956 . S
Li968 O1029 1.970 . S
Li968 O1030 1.961 . S
Li969 N993 1.990 . S
Li969 O1028 1.970 . S
Li969 O1029 1.956 . S
Li969 O1031 1.961 . S
Li970 N1015 1.990 . S
Li970 O1028 1.961 . S
Li970 O1030 1.956 . S
Li970 O1031 1.970 . S
Li971 N1021 1.990 . S
Li971 O1029 1.961 . S
Li971 O1030 1.970 . S
Li971 O1031 1.956 . S
C972 C974 1.348 . S
C972 C975 1.356 . S
C972 O1028 1.325 . S
N973 C976 1.314 . S
N973 C977 1.279 . S
C974 C972 1.348 . S
C974 C976 1.353 . S
C974 H1032 0.929 . S
C975 C972 1.356 . S
C975 C977 1.358 . S
C975 H1033 0.930 . S
C976 N973 1.314 . S
C976 C974 1.353 . S
C976 H1034 0.930 . S
C977 N973 1.279 . S
C977 C975 1.358 . S
C977 H1035 0.930 . S
C978 C981 1.348 . S
C978 C982 1.356 . S
C978 O1029 1.325 . S
C979 N980 1.279 . S
C979 C982 1.358 . S
C979 H1036 0.930 . S
N980 C979 1.279 . S
N980 C983 1.314 . S
C981 C978 1.348 . S
C981 C983 1.353 . S
C981 H1037 0.929 . S
C982 C978 1.356 . S
C982 C979 1.358 . S
C982 H1038 0.930 . S
C983 N980 1.314 . S
C983 C981 1.353 . S
C983 H1039 0.930 . S
C984 N985 1.314 . S
C984 C989 1.353 . S
C984 H990 0.930 . S
N985 Li968 1.990 . S
N985 C984 1.314 . S
N985 C987 1.279 . S
C986 C987 1.358 . S
C986 C988 1.356 . S
C986 H1040 0.930 . S
C987 N985 1.279 . S
C987 C986 1.358 . S
C987 H991 0.930 . S
C988 C986 1.356 . S
C988 C989 1.348 . S
C989 C984 1.353 . S
C989 C988 1.348 . S
C989 H1041 0.929 . S
H990 C984 0.930 . S
H991 C987 0.930 . S
C992 N993 1.314 . S
C992 C994 1.353 . S
C992 H998 0.930 . S
N993 Li969 1.990 . S
N993 C992 1.314 . S
N993 C996 1.279 . S
C994 C992 1.353 . S
C994 C997 1.348 . S
C994 H1042 0.929 . S
C995 C996 1.358 . S
C995 C997 1.356 . S
C995 H1043 0.930 . S
C996 N993 1.279 . S
C996 C995 1.358 . S
C996 H999 0.930 . S
C997 C994 1.348 . S
C997 C995 1.356 . S
H998 C992 0.930 . S
H999 C996 0.930 . S
C1000 C1002 1.348 . S
C1000 C1003 1.356 . S
C1000 O1030 1.325 . S
N1001 C1004 1.314 . S
N1001 C1005 1.279 . S
C1002 C1000 1.348 . S
C1002 C1004 1.353 . S
C1002 H1044 0.929 . S
C1003 C1000 1.356 . S
C1003 C1005 1.358 . S
C1003 H1045 0.930 . S
C1004 N1001 1.314 . S
C1004 C1002 1.353 . S
C1004 H1046 0.930 . S
C1005 N1001 1.279 . S
C1005 C1003 1.358 . S
C1005 H1047 0.930 . S
C1006 C1007 1.348 . S
C1006 C1008 1.356 . S
C1006 O1031 1.325 . S
C1007 C1006 1.348 . S
C1007 C1009 1.353 . S
C1007 H1048 0.929 . S
C1008 C1006 1.356 . S
C1008 C1010 1.358 . S
C1008 H1049 0.930 . S
C1009 C1007 1.353 . S
C1009 N1011 1.314 . S
C1009 H1050 0.930 . S
C1010 C1008 1.358 . S
C1010 N1011 1.279 . S
C1010 H1051 0.930 . S
N1011 C1009 1.314 . S
N1011 C1010 1.279 . S
C1012 C1014 1.353 . S
C1012 N1015 1.314 . S
C1012 H1018 0.930 . S
C1013 N1015 1.279 . S
C1013 C1016 1.358 . S
C1013 H1019 0.930 . S
C1014 C1012 1.353 . S
C1014 C1017 1.348 . S
C1014 H1052 0.929 . S
N1015 Li970 1.990 . S
N1015 C1012 1.314 . S
N1015 C1013 1.279 . S
C1016 C1013 1.358 . S
C1016 C1017 1.356 . S
C1016 H1053 0.930 . S
C1017 C1014 1.348 . S
C1017 C1016 1.356 . S
H1018 C1012 0.930 . S
H1019 C1013 0.930 . S
C1020 N1021 1.314 . S
C1020 C1022 1.353 . S
C1020 H1026 0.930 . S
N1021 Li971 1.990 . S
N1021 C1020 1.314 . S
N1021 C1024 1.279 . S
C1022 C1020 1.353 . S
C1022 C1025 1.348 . S
C1022 H1054 0.929 . S
C1023 C1024 1.358 . S
C1023 C1025 1.356 . S
C1023 H1055 0.930 . S
C1024 N1021 1.279 . S
C1024 C1023 1.358 . S
C1024 H1027 0.930 . S
C1025 C1022 1.348 . S
C1025 C1023 1.356 . S
H1026 C1020 0.930 . S
H1027 C1024 0.930 . S
O1028 Li968 1.956 . S
O1028 Li969 1.970 . S
O1028 Li970 1.961 . S
O1028 C972 1.325 . S
O1029 Li968 1.970 . S
O1029 Li969 1.956 . S
O1029 Li971 1.961 . S
O1029 C978 1.325 . S
O1030 Li968 1.961 . S
O1030 Li970 1.956 . S
O1030 Li971 1.970 . S
O1030 C1000 1.325 . S
O1031 Li969 1.961 . S
O1031 Li970 1.970 . S
O1031 Li971 1.956 . S
O1031 C1006 1.325 . S
H1032 C974 0.929 . S
H1033 C975 0.930 . S
H1034 C976 0.930 . S
H1035 C977 0.930 . S
H1036 C979 0.930 . S
H1037 C981 0.929 . S
H1038 C982 0.930 . S
H1039 C983 0.930 . S
H1040 C986 0.930 . S
H1041 C989 0.929 . S
H1042 C994 0.929 . S
H1043 C995 0.930 . S
H1044 C1002 0.929 . S
H1045 C1003 0.930 . S
H1046 C1004 0.930 . S
H1047 C1005 0.930 . S
H1048 C1007 0.929 . S
H1049 C1008 0.930 . S
H1050 C1009 0.930 . S
H1051 C1010 0.930 . S
H1052 C1014 0.929 . S
H1053 C1016 0.930 . S
H1054 C1022 0.929 . S
H1055 C1023 0.930 . S
Li1056 N1073 1.990 . S
Li1056 O1116 1.956 . S
Li1056 O1117 1.970 . S
Li1056 O1118 1.961 . S
Li1057 N1081 1.990 . S
Li1057 O1116 1.970 . S
Li1057 O1117 1.956 . S
Li1057 O1119 1.961 . S
Li1058 N1103 1.990 . S
Li1058 O1116 1.961 . S
Li1058 O1118 1.956 . S
Li1058 O1119 1.970 . S
Li1059 N1109 1.990 . S
Li1059 O1117 1.961 . S
Li1059 O1118 1.970 . S
Li1059 O1119 1.956 . S
C1060 C1062 1.348 . S
C1060 C1063 1.356 . S
C1060 O1116 1.325 . S
N1061 C1064 1.314 . S
N1061 C1065 1.279 . S
C1062 C1060 1.348 . S
C1062 C1064 1.353 . S
C1062 H1120 0.929 . S
C1063 C1060 1.356 . S
C1063 C1065 1.358 . S
C1063 H1121 0.930 . S
C1064 N1061 1.314 . S
C1064 C1062 1.353 . S
C1064 H1122 0.930 . S
C1065 N1061 1.279 . S
C1065 C1063 1.358 . S
C1065 H1123 0.930 . S
C1066 C1069 1.348 . S
C1066 C1070 1.356 . S
C1066 O1117 1.325 . S
C1067 N1068 1.279 . S
C1067 C1070 1.358 . S
C1067 H1124 0.930 . S
N1068 C1067 1.279 . S
N1068 C1071 1.314 . S
C1069 C1066 1.348 . S
C1069 C1071 1.353 . S
C1069 H1125 0.929 . S
C1070 C1066 1.356 . S
C1070 C1067 1.358 . S
C1070 H1126 0.930 . S
C1071 N1068 1.314 . S
C1071 C1069 1.353 . S
C1071 H1127 0.930 . S
C1072 N1073 1.314 . S
C1072 C1077 1.353 . S
C1072 H1078 0.930 . S
N1073 Li1056 1.990 . S
N1073 C1072 1.314 . S
N1073 C1075 1.279 . S
C1074 C1075 1.358 . S
C1074 C1076 1.356 . S
C1074 H1128 0.930 . S
C1075 N1073 1.279 . S
C1075 C1074 1.358 . S
C1075 H1079 0.930 . S
C1076 C1074 1.356 . S
C1076 C1077 1.348 . S
C1077 C1072 1.353 . S
C1077 C1076 1.348 . S
C1077 H1129 0.929 . S
H1078 C1072 0.930 . S
H1079 C1075 0.930 . S
C1080 N1081 1.314 . S
C1080 C1082 1.353 . S
C1080 H1086 0.930 . S
N1081 Li1057 1.990 . S
N1081 C1080 1.314 . S
N1081 C1084 1.279 . S
C1082 C1080 1.353 . S
C1082 C1085 1.348 . S
C1082 H1130 0.929 . S
C1083 C1084 1.358 . S
C1083 C1085 1.356 . S
C1083 H1131 0.930 . S
C1084 N1081 1.279 . S
C1084 C1083 1.358 . S
C1084 H1087 0.930 . S
C1085 C1082 1.348 . S
C1085 C1083 1.356 . S
H1086 C1080 0.930 . S
H1087 C1084 0.930 . S
C1088 C1090 1.348 . S
C1088 C1091 1.356 . S
C1088 O1118 1.325 . S
N1089 C1092 1.314 . S
N1089 C1093 1.279 . S
C1090 C1088 1.348 . S
C1090 C1092 1.353 . S
C1090 H1132 0.929 . S
C1091 C1088 1.356 . S
C1091 C1093 1.358 . S
C1091 H1133 0.930 . S
C1092 N1089 1.314 . S
C1092 C1090 1.353 . S
C1092 H1134 0.930 . S
C1093 N1089 1.279 . S
C1093 C1091 1.358 . S
C1093 H1135 0.930 . S
C1094 C1095 1.348 . S
C1094 C1096 1.356 . S
C1094 O1119 1.325 . S
C1095 C1094 1.348 . S
C1095 C1097 1.353 . S
C1095 H1136 0.929 . S
C1096 C1094 1.356 . S
C1096 C1098 1.358 . S
C1096 H1137 0.930 . S
C1097 C1095 1.353 . S
C1097 N1099 1.314 . S
C1097 H1138 0.930 . S
C1098 C1096 1.358 . S
C1098 N1099 1.279 . S
C1098 H1139 0.930 . S
N1099 C1097 1.314 . S
N1099 C1098 1.279 . S
C1100 C1102 1.353 . S
C1100 N1103 1.314 . S
C1100 H1106 0.930 . S
C1101 N1103 1.279 . S
C1101 C1104 1.358 . S
C1101 H1107 0.930 . S
C1102 C1100 1.353 . S
C1102 C1105 1.348 . S
C1102 H1140 0.929 . S
N1103 Li1058 1.990 . S
N1103 C1100 1.314 . S
N1103 C1101 1.279 . S
C1104 C1101 1.358 . S
C1104 C1105 1.356 . S
C1104 H1141 0.930 . S
C1105 C1102 1.348 . S
C1105 C1104 1.356 . S
H1106 C1100 0.930 . S
H1107 C1101 0.930 . S
C1108 N1109 1.314 . S
C1108 C1110 1.353 . S
C1108 H1114 0.930 . S
N1109 Li1059 1.990 . S
N1109 C1108 1.314 . S
N1109 C1112 1.279 . S
C1110 C1108 1.353 . S
C1110 C1113 1.348 . S
C1110 H1142 0.929 . S
C1111 C1112 1.358 . S
C1111 C1113 1.356 . S
C1111 H1143 0.930 1_545 S
C1112 N1109 1.279 . S
C1112 C1111 1.358 . S
C1112 H1115 0.930 . S
C1113 C1110 1.348 . S
C1113 C1111 1.356 . S
H1114 C1108 0.930 . S
H1115 C1112 0.930 . S
O1116 Li1056 1.956 . S
O1116 Li1057 1.970 . S
O1116 Li1058 1.961 . S
O1116 C1060 1.325 . S
O1117 Li1056 1.970 . S
O1117 Li1057 1.956 . S
O1117 Li1059 1.961 . S
O1117 C1066 1.325 . S
O1118 Li1056 1.961 . S
O1118 Li1058 1.956 . S
O1118 Li1059 1.970 . S
O1118 C1088 1.325 . S
O1119 Li1057 1.961 . S
O1119 Li1058 1.970 . S
O1119 Li1059 1.956 . S
O1119 C1094 1.325 . S
H1120 C1062 0.929 . S
H1121 C1063 0.930 . S
H1122 C1064 0.930 . S
H1123 C1065 0.930 . S
H1124 C1067 0.930 . S
H1125 C1069 0.929 . S
H1126 C1070 0.930 . S
H1127 C1071 0.930 . S
H1128 C1074 0.930 . S
H1129 C1077 0.929 . S
H1130 C1082 0.929 . S
H1131 C1083 0.930 . S
H1132 C1090 0.929 . S
H1133 C1091 0.930 . S
H1134 C1092 0.930 . S
H1135 C1093 0.930 . S
H1136 C1095 0.929 . S
H1137 C1096 0.930 . S
H1138 C1097 0.930 . S
H1139 C1098 0.930 . S
H1140 C1102 0.929 . S
H1141 C1104 0.930 . S
H1142 C1110 0.929 . S
H1143 C1111 0.930 1_565 S
Li1144 N1161 1.994 . S
Li1144 O1204 1.998 . S
Li1144 O1205 1.926 1_455 S
Li1144 O1206 1.958 1_455 S
Li1145 N1169 1.993 . S
Li1145 O1204 1.936 1_655 S
Li1145 O1205 1.988 . S
Li1145 O1207 1.958 1_655 S
Li1146 N1191 1.990 . S
Li1146 O1204 1.961 . S
Li1146 O1206 1.929 1_455 S
Li1146 O1207 2.005 . S
Li1147 N1197 1.990 . S
Li1147 O1205 1.961 . S
Li1147 O1206 1.996 . S
Li1147 O1207 1.919 1_655 S
C1148 C1150 1.348 . S
C1148 C1151 1.356 . S
C1148 O1204 1.325 . S
N1149 C1152 1.314 . S
N1149 C1153 1.279 . S
C1150 C1148 1.348 . S
C1150 C1152 1.353 . S
C1150 H1208 0.929 . S
C1151 C1148 1.356 . S
C1151 C1153 1.358 . S
C1151 H1209 0.930 . S
C1152 N1149 1.314 . S
C1152 C1150 1.353 . S
C1152 H1210 0.930 . S
C1153 N1149 1.279 . S
C1153 C1151 1.358 . S
C1153 H1211 0.930 . S
C1154 C1157 1.348 . S
C1154 C1158 1.356 . S
C1154 O1205 1.325 . S
C1155 N1156 1.279 . S
C1155 C1158 1.358 . S
C1155 H1212 0.930 . S
N1156 C1155 1.279 . S
N1156 C1159 1.314 . S
C1157 C1154 1.348 . S
C1157 C1159 1.353 . S
C1157 H1213 0.929 . S
C1158 C1154 1.356 . S
C1158 C1155 1.358 . S
C1158 H1214 0.930 . S
C1159 N1156 1.314 . S
C1159 C1157 1.353 . S
C1159 H1215 0.930 . S
C1160 N1161 1.314 1_655 S
C1160 C1165 1.353 . S
C1160 H1166 0.930 . S
N1161 Li1144 1.994 . S
N1161 C1160 1.314 1_455 S
N1161 C1163 1.279 . S
C1162 C1163 1.358 . S
C1162 C1164 1.356 . S
C1162 H1216 0.930 1_565 S
C1163 N1161 1.279 . S
C1163 C1162 1.358 . S
C1163 H1167 0.930 . S
C1164 C1162 1.356 . S
C1164 C1165 1.348 1_455 S
C1165 C1160 1.353 . S
C1165 C1164 1.348 1_655 S
C1165 H1217 0.929 . S
H1166 C1160 0.930 . S
H1167 C1163 0.930 . S
C1168 N1169 1.314 1_455 S
C1168 C1170 1.353 . S
C1168 H1174 0.930 . S
N1169 Li1145 1.993 . S
N1169 C1168 1.314 1_655 S
N1169 C1172 1.279 . S
C1170 C1168 1.353 . S
C1170 C1173 1.348 . S
C1170 H1218 0.929 . S
C1171 C1172 1.358 . S
C1171 C1173 1.356 1_655 S
C1171 H1219 0.930 . S
C1172 N1169 1.279 . S
C1172 C1171 1.358 . S
C1172 H1175 0.930 . S
C1173 C1170 1.348 . S
C1173 C1171 1.356 1_455 S
H1174 C1168 0.930 . S
H1175 C1172 0.930 . S
C1176 C1178 1.348 1_455 S
C1176 C1179 1.356 . S
C1176 O1206 1.324 1_455 S
N1177 C1180 1.314 1_455 S
N1177 C1181 1.279 . S
C1178 C1176 1.348 1_655 S
C1178 C1180 1.353 . S
C1178 H1220 0.929 . S
C1179 C1176 1.356 . S
C1179 C1181 1.358 . S
C1179 H1221 0.930 . S
C1180 N1177 1.314 1_655 S
C1180 C1178 1.353 . S
C1180 H1222 0.930 . S
C1181 N1177 1.279 . S
C1181 C1179 1.358 . S
C1181 H1223 0.930 . S
C1182 C1183 1.348 . S
C1182 C1184 1.356 1_455 S
C1182 O1207 1.324 . S
C1183 C1182 1.348 . S
C1183 C1185 1.353 . S
C1183 H1224 0.929 . S
C1184 C1182 1.356 1_655 S
C1184 C1186 1.358 . S
C1184 H1225 0.930 . S
C1185 C1183 1.353 . S
C1185 N1187 1.314 1_455 S
C1185 H1226 0.930 . S
C1186 C1184 1.358 . S
C1186 N1187 1.279 . S
C1186 H1227 0.930 . S
N1187 C1185 1.314 1_655 S
N1187 C1186 1.279 . S
C1188 C1190 1.353 . S
C1188 N1191 1.314 . S
C1188 H1194 0.930 . S
C1189 N1191 1.279 . S
C1189 C1192 1.358 . S
C1189 H1195 0.930 . S
C1190 C1188 1.353 . S
C1190 C1193 1.348 . S
C1190 H1228 0.929 . S
N1191 Li1146 1.990 . S
N1191 C1188 1.314 . S
N1191 C1189 1.279 . S
C1192 C1189 1.358 . S
C1192 C1193 1.356 . S
C1192 H1229 0.930 . S
C1193 C1190 1.348 . S
C1193 C1192 1.356 . S
H1194 C1188 0.930 . S
H1195 C1189 0.930 . S
C1196 N1197 1.314 . S
C1196 C1198 1.353 . S
C1196 H1202 0.930 . S
N1197 Li1147 1.990 . S
N1197 C1196 1.314 . S
N1197 C1200 1.279 . S
C1198 C1196 1.353 . S
C1198 C1201 1.348 . S
C1198 H1230 0.929 . S
C1199 C1200 1.358 . S
C1199 C1201 1.356 . S
C1199 H1231 0.930 . S
C1200 N1197 1.279 . S
C1200 C1199 1.358 . S
C1200 H1203 0.930 . S
C1201 C1198 1.348 . S
C1201 C1199 1.356 . S
H1202 C1196 0.930 . S
H1203 C1200 0.930 . S
O1204 Li1144 1.998 . S
O1204 Li1145 1.936 1_455 S
O1204 Li1146 1.961 . S
O1204 C1148 1.325 . S
O1205 Li1144 1.926 1_655 S
O1205 Li1145 1.988 . S
O1205 Li1147 1.961 . S
O1205 C1154 1.325 . S
O1206 Li1144 1.958 1_655 S
O1206 Li1146 1.929 1_655 S
O1206 Li1147 1.996 . S
O1206 C1176 1.324 1_655 S
O1207 Li1145 1.958 1_455 S
O1207 Li1146 2.005 . S
O1207 Li1147 1.919 1_455 S
O1207 C1182 1.324 . S
H1208 C1150 0.929 . S
H1209 C1151 0.930 . S
H1210 C1152 0.930 . S
H1211 C1153 0.930 . S
H1212 C1155 0.930 . S
H1213 C1157 0.929 . S
H1214 C1158 0.930 . S
H1215 C1159 0.930 . S
H1216 C1162 0.930 1_545 S
H1217 C1165 0.929 . S
H1218 C1170 0.929 . S
H1219 C1171 0.930 . S
H1220 C1178 0.929 . S
H1221 C1179 0.930 . S
H1222 C1180 0.930 . S
H1223 C1181 0.930 . S
H1224 C1183 0.929 . S
H1225 C1184 0.930 . S
H1226 C1185 0.930 . S
H1227 C1186 0.930 . S
H1228 C1190 0.929 . S
H1229 C1192 0.930 . S
H1230 C1198 0.929 . S
H1231 C1199 0.930 . S
Li1232 N1249 1.990 . S
Li1232 O1292 1.956 . S
Li1232 O1293 1.970 . S
Li1232 O1294 1.961 . S
Li1233 N1257 1.990 . S
Li1233 O1292 1.970 . S
Li1233 O1293 1.956 . S
Li1233 O1295 1.961 . S
Li1234 N1279 1.990 . S
Li1234 O1292 1.961 . S
Li1234 O1294 1.956 . S
Li1234 O1295 1.970 . S
Li1235 N1285 1.990 . S
Li1235 O1293 1.961 . S
Li1235 O1294 1.970 . S
Li1235 O1295 1.956 . S
C1236 C1238 1.348 . S
C1236 C1239 1.356 . S
C1236 O1292 1.325 . S
N1237 C1240 1.314 . S
N1237 C1241 1.279 . S
C1238 C1236 1.348 . S
C1238 C1240 1.353 . S
C1238 H1296 0.929 . S
C1239 C1236 1.356 . S
C1239 C1241 1.358 . S
C1239 H1297 0.930 . S
C1240 N1237 1.314 . S
C1240 C1238 1.353 . S
C1240 H1298 0.930 . S
C1241 N1237 1.279 . S
C1241 C1239 1.358 . S
C1241 H1299 0.930 . S
C1242 C1245 1.348 . S
C1242 C1246 1.356 . S
C1242 O1293 1.325 . S
C1243 N1244 1.279 . S
C1243 C1246 1.358 . S
C1243 H1300 0.930 . S
N1244 C1243 1.279 . S
N1244 C1247 1.314 . S
C1245 C1242 1.348 . S
C1245 C1247 1.353 . S
C1245 H1301 0.929 . S
C1246 C1242 1.356 . S
C1246 C1243 1.358 . S
C1246 H1302 0.930 . S
C1247 N1244 1.314 . S
C1247 C1245 1.353 . S
C1247 H1303 0.930 . S
C1248 N1249 1.314 . S
C1248 C1253 1.353 . S
C1248 H1254 0.930 . S
N1249 Li1232 1.990 . S
N1249 C1248 1.314 . S
N1249 C1251 1.279 . S
C1250 C1251 1.358 . S
C1250 C1252 1.356 . S
C1250 H1304 0.930 . S
C1251 N1249 1.279 . S
C1251 C1250 1.358 . S
C1251 H1255 0.930 . S
C1252 C1250 1.356 . S
C1252 C1253 1.348 . S
C1253 C1248 1.353 . S
C1253 C1252 1.348 . S
C1253 H1305 0.929 . S
H1254 C1248 0.930 . S
H1255 C1251 0.930 . S
C1256 N1257 1.314 . S
C1256 C1258 1.353 . S
C1256 H1262 0.930 . S
N1257 Li1233 1.990 . S
N1257 C1256 1.314 . S
N1257 C1260 1.279 . S
C1258 C1256 1.353 . S
C1258 C1261 1.348 . S
C1258 H1306 0.929 . S
C1259 C1260 1.358 . S
C1259 C1261 1.356 . S
C1259 H1307 0.930 1_565 S
C1260 N1257 1.279 . S
C1260 C1259 1.358 . S
C1260 H1263 0.930 . S
C1261 C1258 1.348 . S
C1261 C1259 1.356 . S
H1262 C1256 0.930 . S
H1263 C1260 0.930 . S
C1264 C1266 1.348 . S
C1264 C1267 1.356 . S
C1264 O1294 1.325 . S
N1265 C1268 1.314 . S
N1265 C1269 1.279 . S
C1266 C1264 1.348 . S
C1266 C1268 1.353 . S
C1266 H1308 0.929 . S
C1267 C1264 1.356 . S
C1267 C1269 1.358 . S
C1267 H1309 0.930 . S
C1268 N1265 1.314 . S
C1268 C1266 1.353 . S
C1268 H1310 0.930 . S
C1269 N1265 1.279 . S
C1269 C1267 1.358 . S
C1269 H1311 0.930 . S
C1270 C1271 1.348 . S
C1270 C1272 1.356 . S
C1270 O1295 1.325 . S
C1271 C1270 1.348 . S
C1271 C1273 1.353 . S
C1271 H1312 0.929 . S
C1272 C1270 1.356 . S
C1272 C1274 1.358 . S
C1272 H1313 0.930 . S
C1273 C1271 1.353 . S
C1273 N1275 1.314 . S
C1273 H1314 0.930 . S
C1274 C1272 1.358 . S
C1274 N1275 1.279 . S
C1274 H1315 0.930 . S
N1275 C1273 1.314 . S
N1275 C1274 1.279 . S
C1276 C1278 1.353 . S
C1276 N1279 1.314 . S
C1276 H1282 0.930 . S
C1277 N1279 1.279 . S
C1277 C1280 1.358 . S
C1277 H1283 0.930 . S
C1278 C1276 1.353 . S
C1278 C1281 1.348 . S
C1278 H1316 0.929 . S
N1279 Li1234 1.990 . S
N1279 C1276 1.314 . S
N1279 C1277 1.279 . S
C1280 C1277 1.358 . S
C1280 C1281 1.356 . S
C1280 H1317 0.930 . S
C1281 C1278 1.348 . S
C1281 C1280 1.356 . S
H1282 C1276 0.930 . S
H1283 C1277 0.930 . S
C1284 N1285 1.314 . S
C1284 C1286 1.353 . S
C1284 H1290 0.930 . S
N1285 Li1235 1.990 . S
N1285 C1284 1.314 . S
N1285 C1288 1.279 . S
C1286 C1284 1.353 . S
C1286 C1289 1.348 . S
C1286 H1318 0.929 . S
C1287 C1288 1.358 . S
C1287 C1289 1.356 . S
C1287 H1319 0.930 . S
C1288 N1285 1.279 . S
C1288 C1287 1.358 . S
C1288 H1291 0.930 . S
C1289 C1286 1.348 . S
C1289 C1287 1.356 . S
H1290 C1284 0.930 . S
H1291 C1288 0.930 . S
O1292 Li1232 1.956 . S
O1292 Li1233 1.970 . S
O1292 Li1234 1.961 . S
O1292 C1236 1.325 . S
O1293 Li1232 1.970 . S
O1293 Li1233 1.956 . S
O1293 Li1235 1.961 . S
O1293 C1242 1.325 . S
O1294 Li1232 1.961 . S
O1294 Li1234 1.956 . S
O1294 Li1235 1.970 . S
O1294 C1264 1.325 . S
O1295 Li1233 1.961 . S
O1295 Li1234 1.970 . S
O1295 Li1235 1.956 . S
O1295 C1270 1.325 . S
H1296 C1238 0.929 . S
H1297 C1239 0.930 . S
H1298 C1240 0.930 . S
H1299 C1241 0.930 . S
H1300 C1243 0.930 . S
H1301 C1245 0.929 . S
H1302 C1246 0.930 . S
H1303 C1247 0.930 . S
H1304 C1250 0.930 . S
H1305 C1253 0.929 . S
H1306 C1258 0.929 . S
H1307 C1259 0.930 1_545 S
H1308 C1266 0.929 . S
H1309 C1267 0.930 . S
H1310 C1268 0.930 . S
H1311 C1269 0.930 . S
H1312 C1271 0.929 . S
H1313 C1272 0.930 . S
H1314 C1273 0.930 . S
H1315 C1274 0.930 . S
H1316 C1278 0.929 . S
H1317 C1280 0.930 . S
H1318 C1286 0.929 . S
H1319 C1287 0.930 . S
Li1320 N1337 1.990 . S
Li1320 O1380 1.929 1_455 S
Li1320 O1381 2.005 . S
Li1320 O1382 1.961 . S
Li1321 N1345 1.990 . S
Li1321 O1380 1.996 . S
Li1321 O1381 1.919 1_655 S
Li1321 O1383 1.961 . S
Li1322 N1367 1.994 . S
Li1322 O1380 1.958 1_455 S
Li1322 O1382 1.998 . S
Li1322 O1383 1.926 1_455 S
Li1323 N1373 1.993 . S
Li1323 O1381 1.958 1_655 S
Li1323 O1382 1.936 1_655 S
Li1323 O1383 1.988 . S
C1324 C1326 1.348 1_455 S
C1324 C1327 1.356 1_556 S
C1324 O1380 1.324 1_455 S
N1325 C1328 1.314 1_455 S
N1325 C1329 1.279 . S
C1326 C1324 1.348 1_655 S
C1326 C1328 1.353 1_556 S
C1326 H1384 0.929 . S
C1327 C1324 1.356 1_554 S
C1327 C1329 1.358 . S
C1327 H1385 0.930 . S
C1328 N1325 1.314 1_655 S
C1328 C1326 1.353 1_554 S
C1328 H1386 0.930 . S
C1329 N1325 1.279 . S
C1329 C1327 1.358 . S
C1329 H1387 0.930 . S
C1330 C1333 1.348 . S
C1330 C1334 1.356 1_455 S
C1330 O1381 1.324 . S
C1331 N1332 1.279 . S
C1331 C1334 1.358 . S
C1331 H1388 0.930 . S
N1332 C1331 1.279 . S
N1332 C1335 1.314 1_655 S
C1333 C1330 1.348 . S
C1333 C1335 1.353 . S
C1333 H1389 0.929 . S
C1334 C1330 1.356 1_655 S
C1334 C1331 1.358 . S
C1334 H1390 0.930 . S
C1335 N1332 1.314 1_455 S
C1335 C1333 1.353 . S
C1335 H1391 0.930 . S
C1336 N1337 1.314 . S
C1336 C1341 1.353 . S
C1336 H1342 0.930 . S
N1337 Li1320 1.990 . S
N1337 C1336 1.314 . S
N1337 C1339 1.279 . S
C1338 C1339 1.358 . S
C1338 C1340 1.356 . S
C1338 H1392 0.930 . S
C1339 N1337 1.279 . S
C1339 C1338 1.358 . S
C1339 H1343 0.930 . S
C1340 C1338 1.356 . S
C1340 C1341 1.348 . S
C1341 C1336 1.353 . S
C1341 C1340 1.348 . S
C1341 H1393 0.929 . S
H1342 C1336 0.930 . S
H1343 C1339 0.930 . S
C1344 N1345 1.314 . S
C1344 C1346 1.353 . S
C1344 H1350 0.930 . S
N1345 Li1321 1.990 . S
N1345 C1344 1.314 . S
N1345 C1348 1.279 . S
C1346 C1344 1.353 . S
C1346 C1349 1.348 . S
C1346 H1394 0.929 . S
C1347 C1348 1.358 . S
C1347 C1349 1.356 . S
C1347 H1395 0.930 . S
C1348 N1345 1.279 . S
C1348 C1347 1.358 . S
C1348 H1351 0.930 . S
C1349 C1346 1.348 . S
C1349 C1347 1.356 . S
H1350 C1344 0.930 . S
H1351 C1348 0.930 . S
C1352 C1354 1.348 . S
C1352 C1355 1.356 . S
C1352 O1382 1.325 . S
N1353 C1356 1.314 . S
N1353 C1357 1.279 . S
C1354 C1352 1.348 . S
C1354 C1356 1.353 . S
C1354 H1396 0.929 . S
C1355 C1352 1.356 . S
C1355 C1357 1.358 . S
C1355 H1397 0.930 . S
C1356 N1353 1.314 . S
C1356 C1354 1.353 . S
C1356 H1398 0.930 . S
C1357 N1353 1.279 . S
C1357 C1355 1.358 . S
C1357 H1399 0.930 . S
C1358 C1359 1.348 . S
C1358 C1360 1.356 . S
C1358 O1383 1.325 . S
C1359 C1358 1.348 . S
C1359 C1361 1.353 . S
C1359 H1400 0.929 . S
C1360 C1358 1.356 . S
C1360 C1362 1.358 . S
C1360 H1401 0.930 . S
C1361 C1359 1.353 . S
C1361 N1363 1.314 . S
C1361 H1402 0.930 . S
C1362 C1360 1.358 . S
C1362 N1363 1.279 . S
C1362 H1403 0.930 . S
N1363 C1361 1.314 . S
N1363 C1362 1.279 . S
C1364 C1366 1.353 . S
C1364 N1367 1.314 1_654 S
C1364 H1370 0.930 . S
C1365 N1367 1.279 . S
C1365 C1368 1.367 . S
C1365 H1371 0.930 . S
C1366 C1364 1.353 . S
C1366 C1369 1.348 1_655 S
C1366 H1404 0.929 . S
N1367 Li1322 1.994 . S
N1367 C1364 1.314 1_456 S
N1367 C1365 1.279 . S
C1368 C1365 1.367 . S
C1368 C1369 1.346 1_556 S
C1368 H1405 0.931 1_545 S
C1369 C1366 1.348 1_455 S
C1369 C1368 1.346 1_554 S
H1370 C1364 0.930 . S
H1371 C1365 0.930 . S
C1372 N1373 1.314 1_455 S
C1372 C1374 1.353 . S
C1372 H1378 0.930 . S
N1373 Li1323 1.993 . S
N1373 C1372 1.314 1_655 S
N1373 C1376 1.279 . S
C1374 C1372 1.353 . S
C1374 C1377 1.348 . S
C1374 H1406 0.929 . S
C1375 C1376 1.358 . S
C1375 C1377 1.356 1_655 S
C1375 H1407 0.930 . S
C1376 N1373 1.279 . S
C1376 C1375 1.358 . S
C1376 H1379 0.930 . S
C1377 C1374 1.348 . S
C1377 C1375 1.356 1_455 S
H1378 C1372 0.930 . S
H1379 C1376 0.930 . S
O1380 Li1320 1.929 1_655 S
O1380 Li1321 1.996 . S
O1380 Li1322 1.958 1_655 S
O1380 C1324 1.324 1_655 S
O1381 Li1320 2.005 . S
O1381 Li1321 1.919 1_455 S
O1381 Li1323 1.958 1_455 S
O1381 C1330 1.324 . S
O1382 Li1320 1.961 . S
O1382 Li1322 1.998 . S
O1382 Li1323 1.936 1_455 S
O1382 C1352 1.325 . S
O1383 Li1321 1.961 . S
O1383 Li1322 1.926 1_655 S
O1383 Li1323 1.988 . S
O1383 C1358 1.325 . S
H1384 C1326 0.929 . S
H1385 C1327 0.930 . S
H1386 C1328 0.930 . S
H1387 C1329 0.930 . S
H1388 C1331 0.930 . S
H1389 C1333 0.929 . S
H1390 C1334 0.930 . S
H1391 C1335 0.930 . S
H1392 C1338 0.930 . S
H1393 C1341 0.929 . S
H1394 C1346 0.929 . S
H1395 C1347 0.930 . S
H1396 C1354 0.929 . S
H1397 C1355 0.930 . S
H1398 C1356 0.930 . S
H1399 C1357 0.930 . S
H1400 C1359 0.929 . S
H1401 C1360 0.930 . S
H1402 C1361 0.930 . S
H1403 C1362 0.930 . S
H1404 C1366 0.929 . S
H1405 C1368 0.931 1_565 S
H1406 C1374 0.929 . S
H1407 C1375 0.930 . S
C1408 C1409 1.369 . S
C1408 C1410 1.419 . S
C1408 H1412 0.930 . S
C1409 C1408 1.369 . S
C1409 C1418 1.429 . S
C1410 C1408 1.419 . S
C1410 C1411 1.363 . S
C1410 H1413 0.929 . S
C1411 C1410 1.363 . S
C1411 C1417 1.428 . S
H1412 C1408 0.930 . S
H1413 C1410 0.929 . S
S1414 N1415 1.613 . S
S1414 N1416 1.610 . S
N1415 S1414 1.613 . S
N1415 C1418 1.350 . S
N1416 S1414 1.610 . S
N1416 C1417 1.351 . S
C1417 C1411 1.428 . S
C1417 N1416 1.351 . S
C1417 C1418 1.434 . S
C1418 C1409 1.429 . S
C1418 N1415 1.350 . S
C1418 C1417 1.434 . S
C1419 C1420 1.369 . S
C1419 C1421 1.419 . S
C1419 H1423 0.930 . S
C1420 C1419 1.369 . S
C1420 C1429 1.429 . S
C1421 C1419 1.419 . S
C1421 C1422 1.363 . S
C1421 H1424 0.929 . S
C1422 C1421 1.363 . S
C1422 C1428 1.428 . S
H1423 C1419 0.930 . S
H1424 C1421 0.929 . S
S1425 N1426 1.613 . S
S1425 N1427 1.610 . S
N1426 S1425 1.613 . S
N1426 C1429 1.350 . S
N1427 S1425 1.610 . S
N1427 C1428 1.351 . S
C1428 C1422 1.428 . S
C1428 N1427 1.351 . S
C1428 C1429 1.434 . S
C1429 C1420 1.429 . S
C1429 N1426 1.350 . S
C1429 C1428 1.434 . S
C1430 C1431 1.369 . S
C1430 C1432 1.419 . S
C1430 H1434 0.930 . S
C1431 C1430 1.369 . S
C1431 C1440 1.429 . S
C1432 C1430 1.419 . S
C1432 C1433 1.363 . S
C1432 H1435 0.929 . S
C1433 C1432 1.363 . S
C1433 C1439 1.428 . S
H1434 C1430 0.930 . S
H1435 C1432 0.929 . S
S1436 N1437 1.613 . S
S1436 N1438 1.610 . S
N1437 S1436 1.613 . S
N1437 C1440 1.350 . S
N1438 S1436 1.610 . S
N1438 C1439 1.351 . S
C1439 C1433 1.428 . S
C1439 N1438 1.351 . S
C1439 C1440 1.434 . S
C1440 C1431 1.429 . S
C1440 N1437 1.350 . S
C1440 C1439 1.434 . S
C1441 C1442 1.369 . S
C1441 C1443 1.419 . S
C1441 H1445 0.930 . S
C1442 C1441 1.369 . S
C1442 C1451 1.429 . S
C1443 C1441 1.419 . S
C1443 C1444 1.363 . S
C1443 H1446 0.929 . S
C1444 C1443 1.363 . S
C1444 C1450 1.428 . S
H1445 C1441 0.930 . S
H1446 C1443 0.929 . S
S1447 N1448 1.613 . S
S1447 N1449 1.610 . S
N1448 S1447 1.613 . S
N1448 C1451 1.350 . S
N1449 S1447 1.610 . S
N1449 C1450 1.351 . S
C1450 C1444 1.428 . S
C1450 N1449 1.351 . S
C1450 C1451 1.434 . S
C1451 C1442 1.429 . S
C1451 N1448 1.350 . S
C1451 C1450 1.434 . S
C1452 C1453 1.369 . S
C1452 C1454 1.419 . S
C1452 H1456 0.930 . S
C1453 C1452 1.369 . S
C1453 C1462 1.429 . S
C1454 C1452 1.419 . S
C1454 C1455 1.363 . S
C1454 H1457 0.929 1_556 S
C1455 C1454 1.363 . S
C1455 C1461 1.428 . S
H1456 C1452 0.930 . S
H1457 C1454 0.929 1_554 S
S1458 N1459 1.613 . S
S1458 N1460 1.610 . S
N1459 S1458 1.613 . S
N1459 C1462 1.350 . S
N1460 S1458 1.610 . S
N1460 C1461 1.351 . S
C1461 C1455 1.428 . S
C1461 N1460 1.351 . S
C1461 C1462 1.434 . S
C1462 C1453 1.429 . S
C1462 N1459 1.350 . S
C1462 C1461 1.434 . S
C1463 C1464 1.369 . S
C1463 C1465 1.419 . S
C1463 H1467 0.930 . S
C1464 C1463 1.369 . S
C1464 C1473 1.429 . S
C1465 C1463 1.419 . S
C1465 C1466 1.363 . S
C1465 H1468 0.929 . S
C1466 C1465 1.363 . S
C1466 C1472 1.428 . S
H1467 C1463 0.930 . S
H1468 C1465 0.929 . S
S1469 N1470 1.613 . S
S1469 N1471 1.610 . S
N1470 S1469 1.613 . S
N1470 C1473 1.350 . S
N1471 S1469 1.610 . S
N1471 C1472 1.351 . S
C1472 C1466 1.428 . S
C1472 N1471 1.351 . S
C1472 C1473 1.434 . S
C1473 C1464 1.429 . S
C1473 N1470 1.350 . S
C1473 C1472 1.434 . S
C1474 C1475 1.369 . S
C1474 C1476 1.419 . S
C1474 H1478 0.930 . S
C1475 C1474 1.369 . S
C1475 C1484 1.429 . S
C1476 C1474 1.419 . S
C1476 C1477 1.363 . S
C1476 H1479 0.929 . S
C1477 C1476 1.363 . S
C1477 C1483 1.428 . S
H1478 C1474 0.930 . S
H1479 C1476 0.929 . S
S1480 N1481 1.613 . S
S1480 N1482 1.610 . S
N1481 S1480 1.613 . S
N1481 C1484 1.350 . S
N1482 S1480 1.610 . S
N1482 C1483 1.351 . S
C1483 C1477 1.428 . S
C1483 N1482 1.351 . S
C1483 C1484 1.434 . S
C1484 C1475 1.429 . S
C1484 N1481 1.350 . S
C1484 C1483 1.434 . S
C1485 C1486 1.369 . S
C1485 C1487 1.419 . S
C1485 H1489 0.930 . S
C1486 C1485 1.369 . S
C1486 C1495 1.429 . S
C1487 C1485 1.419 . S
C1487 C1488 1.363 . S
C1487 H1490 0.929 . S
C1488 C1487 1.363 . S
C1488 C1494 1.428 . S
H1489 C1485 0.930 . S
H1490 C1487 0.929 . S
S1491 N1492 1.613 . S
S1491 N1493 1.610 . S
N1492 S1491 1.613 . S
N1492 C1495 1.350 . S
N1493 S1491 1.610 . S
N1493 C1494 1.351 . S
C1494 C1488 1.428 . S
C1494 N1493 1.351 . S
C1494 C1495 1.434 . S
C1495 C1486 1.429 . S
C1495 N1492 1.350 . S
C1495 C1494 1.434 . S
C1496 C1497 1.369 . S
C1496 C1498 1.419 . S
C1496 H1500 0.930 . S
C1497 C1496 1.369 . S
C1497 C1506 1.429 . S
C1498 C1496 1.419 . S
C1498 C1499 1.363 . S
C1498 H1501 0.929 . S
C1499 C1498 1.363 . S
C1499 C1505 1.428 . S
H1500 C1496 0.930 . S
H1501 C1498 0.929 . S
S1502 N1503 1.613 . S
S1502 N1504 1.610 . S
N1503 S1502 1.613 . S
N1503 C1506 1.350 . S
N1504 S1502 1.610 . S
N1504 C1505 1.351 . S
C1505 C1499 1.428 . S
C1505 N1504 1.351 . S
C1505 C1506 1.434 . S
C1506 C1497 1.429 . S
C1506 N1503 1.350 . S
C1506 C1505 1.434 . S
C1507 C1508 1.369 . S
C1507 C1509 1.419 . S
C1507 H1511 0.930 . S
C1508 C1507 1.369 . S
C1508 C1517 1.429 . S
C1509 C1507 1.419 . S
C1509 C1510 1.363 . S
C1509 H1512 0.929 . S
C1510 C1509 1.363 . S
C1510 C1516 1.428 . S
H1511 C1507 0.930 . S
H1512 C1509 0.929 . S
S1513 N1514 1.613 . S
S1513 N1515 1.610 . S
N1514 S1513 1.613 . S
N1514 C1517 1.350 . S
N1515 S1513 1.610 . S
N1515 C1516 1.351 . S
C1516 C1510 1.428 . S
C1516 N1515 1.351 . S
C1516 C1517 1.434 . S
C1517 C1508 1.429 . S
C1517 N1514 1.350 . S
C1517 C1516 1.434 . S
C1518 C1519 1.369 . S
C1518 C1520 1.419 . S
C1518 H1522 0.930 . S
C1519 C1518 1.369 . S
C1519 C1528 1.429 . S
C1520 C1518 1.419 . S
C1520 C1521 1.363 . S
C1520 H1523 0.929 . S
C1521 C1520 1.363 . S
C1521 C1527 1.428 . S
H1522 C1518 0.930 . S
H1523 C1520 0.929 . S
S1524 N1525 1.613 . S
S1524 N1526 1.610 . S
N1525 S1524 1.613 . S
N1525 C1528 1.350 . S
N1526 S1524 1.610 . S
N1526 C1527 1.351 . S
C1527 C1521 1.428 . S
C1527 N1526 1.351 . S
C1527 C1528 1.434 . S
C1528 C1519 1.429 . S
C1528 N1525 1.350 . S
C1528 C1527 1.434 . S
C1529 C1530 1.369 . S
C1529 C1531 1.419 . S
C1529 H1533 0.930 . S
C1530 C1529 1.369 . S
C1530 C1539 1.429 . S
C1531 C1529 1.419 . S
C1531 C1532 1.363 . S
C1531 H1534 0.929 . S
C1532 C1531 1.363 . S
C1532 C1538 1.428 . S
H1533 C1529 0.930 . S
H1534 C1531 0.929 . S
S1535 N1536 1.613 . S
S1535 N1537 1.610 . S
N1536 S1535 1.613 . S
N1536 C1539 1.350 . S
N1537 S1535 1.610 . S
N1537 C1538 1.351 . S
C1538 C1532 1.428 . S
C1538 N1537 1.351 . S
C1538 C1539 1.434 . S
C1539 C1530 1.429 . S
C1539 N1536 1.350 . S
C1539 C1538 1.434 . S
C1540 C1541 1.369 . S
C1540 C1542 1.419 . S
C1540 H1544 0.930 . S
C1541 C1540 1.369 . S
C1541 C1550 1.429 . S
C1542 C1540 1.419 . S
C1542 C1543 1.363 . S
C1542 H1545 0.929 . S
C1543 C1542 1.363 . S
C1543 C1549 1.428 . S
H1544 C1540 0.930 . S
H1545 C1542 0.929 . S
S1546 N1547 1.613 . S
S1546 N1548 1.610 . S
N1547 S1546 1.613 . S
N1547 C1550 1.350 . S
N1548 S1546 1.610 . S
N1548 C1549 1.351 . S
C1549 C1543 1.428 . S
C1549 N1548 1.351 . S
C1549 C1550 1.434 . S
C1550 C1541 1.429 . S
C1550 N1547 1.350 . S
C1550 C1549 1.434 . S
C1551 C1552 1.369 . S
C1551 C1553 1.419 . S
C1551 H1555 0.930 . S
C1552 C1551 1.369 . S
C1552 C1561 1.429 . S
C1553 C1551 1.419 . S
C1553 C1554 1.363 . S
C1553 H1556 0.929 1_556 S
C1554 C1553 1.363 . S
C1554 C1560 1.428 . S
H1555 C1551 0.930 . S
H1556 C1553 0.929 1_554 S
S1557 N1558 1.613 . S
S1557 N1559 1.610 . S
N1558 S1557 1.613 . S
N1558 C1561 1.350 . S
N1559 S1557 1.610 . S
N1559 C1560 1.351 . S
C1560 C1554 1.428 . S
C1560 N1559 1.351 . S
C1560 C1561 1.434 . S
C1561 C1552 1.429 . S
C1561 N1558 1.350 . S
C1561 C1560 1.434 . S
C1562 C1563 1.369 . S
C1562 C1564 1.419 . S
C1562 H1566 0.930 . S
C1563 C1562 1.369 . S
C1563 C1572 1.429 . S
C1564 C1562 1.419 . S
C1564 C1565 1.363 . S
C1564 H1567 0.929 . S
C1565 C1564 1.363 . S
C1565 C1571 1.428 . S
H1566 C1562 0.930 . S
H1567 C1564 0.929 . S
S1568 N1569 1.613 . S
S1568 N1570 1.610 . S
N1569 S1568 1.613 . S
N1569 C1572 1.350 . S
N1570 S1568 1.610 . S
N1570 C1571 1.351 . S
C1571 C1565 1.428 . S
C1571 N1570 1.351 . S
C1571 C1572 1.434 . S
C1572 C1563 1.429 . S
C1572 N1569 1.350 . S
C1572 C1571 1.434 . S
C1573 C1574 1.369 . S
C1573 C1575 1.419 . S
C1573 H1577 0.930 . S
C1574 C1573 1.369 . S
C1574 C1583 1.429 . S
C1575 C1573 1.419 . S
C1575 C1576 1.363 . S
C1575 H1578 0.929 . S
C1576 C1575 1.363 . S
C1576 C1582 1.428 . S
H1577 C1573 0.930 . S
H1578 C1575 0.929 . S
S1579 N1580 1.613 . S
S1579 N1581 1.610 . S
N1580 S1579 1.613 . S
N1580 C1583 1.350 . S
N1581 S1579 1.610 . S
N1581 C1582 1.351 . S
C1582 C1576 1.428 . S
C1582 N1581 1.351 . S
C1582 C1583 1.434 . S
C1583 C1574 1.429 . S
C1583 N1580 1.350 . S
C1583 C1582 1.434 . S
C1584 C1585 1.384 . S
C1584 C1586 1.419 . S
C1584 H1588 0.930 . S
C1585 C1584 1.384 . S
C1585 C1594 1.414 1_455 S
C1586 C1584 1.419 . S
C1586 C1587 1.379 . S
C1586 H1589 0.929 . S
C1587 C1586 1.379 . S
C1587 C1593 1.413 1_455 S
H1588 C1584 0.930 . S
H1589 C1586 0.929 . S
S1590 N1591 1.613 . S
S1590 N1592 1.610 . S
N1591 S1590 1.613 . S
N1591 C1594 1.350 . S
N1592 S1590 1.610 . S
N1592 C1593 1.351 . S
C1593 C1587 1.413 1_655 S
C1593 N1592 1.351 . S
C1593 C1594 1.434 . S
C1594 C1585 1.414 1_655 S
C1594 N1591 1.350 . S
C1594 C1593 1.434 . S
C1595 C1596 1.369 . S
C1595 C1597 1.419 . S
C1595 H1599 0.930 . S
C1596 C1595 1.369 . S
C1596 C1605 1.429 . S
C1597 C1595 1.419 . S
C1597 C1598 1.363 . S
C1597 H1600 0.929 . S
C1598 C1597 1.363 . S
C1598 C1604 1.428 . S
H1599 C1595 0.930 . S
H1600 C1597 0.929 . S
S1601 N1602 1.613 . S
S1601 N1603 1.610 . S
N1602 S1601 1.613 . S
N1602 C1605 1.350 . S
N1603 S1601 1.610 . S
N1603 C1604 1.351 . S
C1604 C1598 1.428 . S
C1604 N1603 1.351 . S
C1604 C1605 1.434 . S
C1605 C1596 1.429 . S
C1605 N1602 1.350 . S
C1605 C1604 1.434 . S
C1606 C1607 1.369 . S
C1606 C1608 1.419 . S
C1606 H1610 0.930 . S
C1607 C1606 1.369 . S
C1607 C1616 1.429 . S
C1608 C1606 1.419 . S
C1608 C1609 1.363 . S
C1608 H1611 0.929 . S
C1609 C1608 1.363 . S
C1609 C1615 1.428 . S
H1610 C1606 0.930 . S
H1611 C1608 0.929 . S
S1612 N1613 1.613 . S
S1612 N1614 1.610 . S
N1613 S1612 1.613 . S
N1613 C1616 1.350 . S
N1614 S1612 1.610 . S
N1614 C1615 1.351 . S
C1615 C1609 1.428 . S
C1615 N1614 1.351 . S
C1615 C1616 1.434 . S
C1616 C1607 1.429 . S
C1616 N1613 1.350 . S
C1616 C1615 1.434 . S
C1617 C1618 1.369 . S
C1617 C1619 1.419 . S
C1617 H1621 0.930 . S
C1618 C1617 1.369 . S
C1618 C1627 1.429 . S
C1619 C1617 1.419 . S
C1619 C1620 1.363 . S
C1619 H1622 0.929 . S
C1620 C1619 1.363 . S
C1620 C1626 1.428 . S
H1621 C1617 0.930 . S
H1622 C1619 0.929 . S
S1623 N1624 1.613 . S
S1623 N1625 1.610 . S
N1624 S1623 1.613 . S
N1624 C1627 1.350 . S
N1625 S1623 1.610 . S
N1625 C1626 1.351 . S
C1626 C1620 1.428 . S
C1626 N1625 1.351 . S
C1626 C1627 1.434 . S
C1627 C1618 1.429 . S
C1627 N1624 1.350 . S
C1627 C1626 1.434 . S
C1628 C1629 1.369 . S
C1628 C1630 1.419 . S
C1628 H1632 0.930 . S
C1629 C1628 1.369 . S
C1629 C1638 1.429 . S
C1630 C1628 1.419 . S
C1630 C1631 1.363 . S
C1630 H1633 0.929 . S
C1631 C1630 1.363 . S
C1631 C1637 1.428 . S
H1632 C1628 0.930 . S
H1633 C1630 0.929 . S
S1634 N1635 1.613 . S
S1634 N1636 1.610 . S
N1635 S1634 1.613 . S
N1635 C1638 1.350 . S
N1636 S1634 1.610 . S
N1636 C1637 1.351 . S
C1637 C1631 1.428 . S
C1637 N1636 1.351 . S
C1637 C1638 1.434 . S
C1638 C1629 1.429 . S
C1638 N1635 1.350 . S
C1638 C1637 1.434 . S
C1639 C1640 1.369 . S
C1639 C1641 1.419 . S
C1639 H1643 0.930 . S
C1640 C1639 1.369 . S
C1640 C1649 1.429 . S
C1641 C1639 1.419 . S
C1641 C1642 1.363 . S
C1641 H1644 0.929 . S
C1642 C1641 1.363 . S
C1642 C1648 1.428 . S
H1643 C1639 0.930 . S
H1644 C1641 0.929 . S
S1645 N1646 1.613 . S
S1645 N1647 1.610 . S
N1646 S1645 1.613 . S
N1646 C1649 1.350 . S
N1647 S1645 1.610 . S
N1647 C1648 1.351 . S
C1648 C1642 1.428 . S
C1648 N1647 1.351 . S
C1648 C1649 1.434 . S
C1649 C1640 1.429 . S
C1649 N1646 1.350 . S
C1649 C1648 1.434 . S
C1650 C1651 1.369 . S
C1650 C1652 1.419 . S
C1650 H1654 0.930 . S
C1651 C1650 1.369 . S
C1651 C1660 1.429 1_565 S
C1652 C1650 1.419 . S
C1652 C1653 1.363 1_565 S
C1652 H1655 0.929 . S
C1653 C1652 1.363 1_545 S
C1653 C1659 1.428 . S
H1654 C1650 0.930 . S
H1655 C1652 0.929 . S
S1656 N1657 1.613 . S
S1656 N1658 1.610 . S
N1657 S1656 1.613 . S
N1657 C1660 1.350 . S
N1658 S1656 1.610 . S
N1658 C1659 1.351 . S
C1659 C1653 1.428 . S
C1659 N1658 1.351 . S
C1659 C1660 1.434 . S
C1660 C1651 1.429 1_545 S
C1660 N1657 1.350 . S
C1660 C1659 1.434 . S
C1661 C1662 1.375 . S
C1661 C1663 1.419 . S
C1661 H1665 0.930 . S
C1662 C1661 1.375 . S
C1662 C1671 1.423 1_645 S
C1663 C1661 1.419 . S
C1663 C1664 1.369 1_545 S
C1663 H1666 0.929 . S
C1664 C1663 1.369 1_565 S
C1664 C1670 1.423 1_655 S
H1665 C1661 0.930 . S
H1666 C1663 0.929 . S
S1667 N1668 1.613 . S
S1667 N1669 1.610 . S
N1668 S1667 1.613 . S
N1668 C1671 1.350 . S
N1669 S1667 1.610 . S
N1669 C1670 1.351 . S
C1670 C1664 1.423 1_455 S
C1670 N1669 1.351 . S
C1670 C1671 1.434 . S
C1671 C1662 1.423 1_465 S
C1671 N1668 1.350 . S
C1671 C1670 1.434 . S
C1672 C1673 1.364 1_455 S
C1672 C1674 1.419 . S
C1672 H1676 0.930 . S
C1673 C1672 1.364 1_655 S
C1673 C1682 1.434 . S
C1674 C1672 1.419 . S
C1674 C1675 1.357 1_455 S
C1674 H1677 0.929 . S
C1675 C1674 1.357 1_655 S
C1675 C1681 1.434 . S
H1676 C1672 0.930 . S
H1677 C1674 0.929 . S
S1678 N1679 1.613 . S
S1678 N1680 1.610 . S
N1679 S1678 1.613 . S
N1679 C1682 1.350 . S
N1680 S1678 1.610 . S
N1680 C1681 1.351 . S
C1681 C1675 1.434 . S
C1681 N1680 1.351 . S
C1681 C1682 1.434 . S
C1682 C1673 1.434 . S
C1682 N1679 1.350 . S
C1682 C1681 1.434 . S
C1683 C1684 1.369 . S
C1683 C1685 1.419 . S
C1683 H1687 0.930 . S
C1684 C1683 1.369 . S
C1684 C1693 1.429 . S
C1685 C1683 1.419 . S
C1685 C1686 1.363 . S
C1685 H1688 0.929 . S
C1686 C1685 1.363 . S
C1686 C1692 1.428 . S
H1687 C1683 0.930 . S
H1688 C1685 0.929 . S
S1689 N1690 1.613 . S
S1689 N1691 1.610 . S
N1690 S1689 1.613 . S
N1690 C1693 1.350 . S
N1691 S1689 1.610 . S
N1691 C1692 1.351 . S
C1692 C1686 1.428 . S
C1692 N1691 1.351 . S
C1692 C1693 1.434 . S
C1693 C1684 1.429 . S
C1693 N1690 1.350 . S
C1693 C1692 1.434 . S
C1694 C1695 1.369 . S
C1694 C1696 1.419 . S
C1694 H1698 0.930 . S
C1695 C1694 1.369 . S
C1695 C1704 1.429 . S
C1696 C1694 1.419 . S
C1696 C1697 1.363 . S
C1696 H1699 0.929 . S
C1697 C1696 1.363 . S
C1697 C1703 1.428 . S
H1698 C1694 0.930 . S
H1699 C1696 0.929 . S
S1700 N1701 1.613 . S
S1700 N1702 1.610 . S
N1701 S1700 1.613 . S
N1701 C1704 1.350 . S
N1702 S1700 1.610 . S
N1702 C1703 1.351 . S
C1703 C1697 1.428 . S
C1703 N1702 1.351 . S
C1703 C1704 1.434 . S
C1704 C1695 1.429 . S
C1704 N1701 1.350 . S
C1704 C1703 1.434 . S
C1705 C1706 1.369 . S
C1705 C1707 1.419 . S
C1705 H1709 0.930 . S
C1706 C1705 1.369 . S
C1706 C1715 1.429 . S
C1707 C1705 1.419 . S
C1707 C1708 1.363 . S
C1707 H1710 0.929 . S
C1708 C1707 1.363 . S
C1708 C1714 1.428 . S
H1709 C1705 0.930 . S
H1710 C1707 0.929 . S
S1711 N1712 1.613 . S
S1711 N1713 1.610 . S
N1712 S1711 1.613 . S
N1712 C1715 1.350 . S
N1713 S1711 1.610 . S
N1713 C1714 1.351 . S
C1714 C1708 1.428 . S
C1714 N1713 1.351 . S
C1714 C1715 1.434 . S
C1715 C1706 1.429 . S
C1715 N1712 1.350 . S
C1715 C1714 1.434 . S
C1716 C1717 1.369 . S
C1716 C1718 1.419 . S
C1716 H1720 0.930 . S
C1717 C1716 1.369 . S
C1717 C1726 1.429 . S
C1718 C1716 1.419 . S
C1718 C1719 1.363 . S
C1718 H1721 0.929 . S
C1719 C1718 1.363 . S
C1719 C1725 1.428 . S
H1720 C1716 0.930 . S
H1721 C1718 0.929 . S
S1722 N1723 1.613 . S
S1722 N1724 1.610 . S
N1723 S1722 1.613 . S
N1723 C1726 1.350 . S
N1724 S1722 1.610 . S
N1724 C1725 1.351 . S
C1725 C1719 1.428 . S
C1725 N1724 1.351 . S
C1725 C1726 1.434 . S
C1726 C1717 1.429 . S
C1726 N1723 1.350 . S
C1726 C1725 1.434 . S
C1727 C1728 1.369 . S
C1727 C1729 1.419 . S
C1727 H1731 0.930 . S
C1728 C1727 1.369 . S
C1728 C1737 1.429 . S
C1729 C1727 1.419 . S
C1729 C1730 1.363 . S
C1729 H1732 0.929 . S
C1730 C1729 1.363 . S
C1730 C1736 1.428 . S
H1731 C1727 0.930 . S
H1732 C1729 0.929 . S
S1733 N1734 1.613 . S
S1733 N1735 1.610 . S
N1734 S1733 1.613 . S
N1734 C1737 1.350 . S
N1735 S1733 1.610 . S
N1735 C1736 1.351 . S
C1736 C1730 1.428 . S
C1736 N1735 1.351 . S
C1736 C1737 1.434 . S
C1737 C1728 1.429 . S
C1737 N1734 1.350 . S
C1737 C1736 1.434 . S
C1738 C1739 1.369 . S
C1738 C1740 1.414 1_565 S
C1738 H1742 0.930 . S
C1739 C1738 1.369 . S
C1739 C1748 1.393 1_565 S
C1740 C1738 1.414 1_545 S
C1740 C1741 1.368 . S
C1740 H1743 0.928 1_545 S
C1741 C1740 1.368 . S
C1741 C1747 1.428 . S
H1742 C1738 0.930 . S
H1743 C1740 0.928 1_565 S
S1744 N1745 1.613 . S
S1744 N1746 1.610 . S
N1745 S1744 1.613 . S
N1745 C1748 1.358 . S
N1746 S1744 1.610 . S
N1746 C1747 1.351 . S
C1747 C1741 1.428 . S
C1747 N1746 1.351 . S
C1747 C1748 1.468 . S
C1748 C1739 1.393 1_545 S
C1748 N1745 1.358 . S
C1748 C1747 1.468 . S
C1749 C1750 1.368 1_665 S
C1749 C1751 1.418 . S
C1749 H1753 0.930 . S
C1750 C1749 1.368 1_445 S
C1750 C1759 1.428 . S
C1751 C1749 1.418 . S
C1751 C1752 1.362 1_655 S
C1751 H1754 0.930 . S
C1752 C1751 1.362 1_455 S
C1752 C1758 1.429 1_565 S
H1753 C1749 0.930 . S
H1754 C1751 0.930 . S
S1755 N1756 1.613 . S
S1755 N1757 1.610 . S
N1756 S1755 1.613 . S
N1756 C1759 1.350 . S
N1757 S1755 1.610 . S
N1757 C1758 1.353 . S
C1758 C1752 1.429 1_545 S
C1758 N1757 1.353 . S
C1758 C1759 1.435 . S
C1759 C1750 1.428 . S
C1759 N1756 1.350 . S
C1759 C1758 1.435 . S
C1409 C849 1.628 . S
C1411 C29 1.633 . S
C1420 C1281 1.642 . S
C1422 C117 1.628 . S
C1431 C233 1.642 . S
C1433 C753 1.626 . S
C1442 C293 1.625 . S
C1444 C1349 1.643 . S
C1453 C401 1.639 . S
C1455 C909 1.623 . S
C1464 C1201 1.642 . S
C1466 C497 1.631 . S
C1475 C988 1.632 . S
C1477 C548 1.636 . S
C1486 C673 1.625 . S
C1488 C1076 1.639 . S
C1497 C409 1.626 . S
C1499 C313 1.646 . S
C1508 C1085 1.631 . S
C1510 C733 1.639 . S
C1519 C557 1.623 . S
C1521 C137 1.644 . S
C1530 C812 1.643 . S
C1532 C1193 1.619 . S
C1541 C20 1.623 . S
C1543 C460 1.647 . S
C1552 C1340 1.628 . S
C1554 C929 1.638 . S
C1563 C636 1.643 . S
C1565 C225 1.627 . S
C1574 C1025 1.640 . S
C1576 C1289 1.625 . S
C1585 C49 0.694 . S
C1587 C381 0.675 . S
C1596 C469 0.688 . S
C1598 C145 0.699 . S
C1607 C585 0.684 . S
C1609 C196 0.685 . S
C1618 C321 0.689 . S
C1620 C645 0.698 . S
C1629 C937 0.686 . S
C1631 C724 0.698 . S
C1640 C1017 0.696 . S
C1642 C821 0.690 . S
C1651 C1261 0.693 . S
C1653 C1113 0.678 . S
C1662 C1369 0.696 1_655 S
C1664 C1164 0.674 1_655 S
C1673 C372 1.965 1_655 S
C1675 C57 1.960 1_655 S
C1684 C489 1.968 . S
C1686 C108 1.973 . S
C1695 C577 1.964 . S
C1697 C205 1.961 1_554 S
C1706 C284 1.972 . S
C1708 C665 1.969 . S
C1717 C761 1.972 . S
C1719 C900 1.969 . S
C1728 C997 1.972 . S
C1730 C841 1.970 . S
C1739 C1252 1.959 . S
C1741 C1105 1.964 1_554 S
C1750 C1377 1.964 . S
C1752 C1173 1.960 . S
