# Generated by pormake.
# Topology qtz-f, (3)-cn, num edge types: 1
# Building blocks:
#     Node 0, Type 0, BuildingBlock: WUSLED_clean_sbu_0, # of connection points: 3
#     Node 1, Type 0, BuildingBlock: WUSLED_clean_sbu_0, # of connection points: 3
#     Node 2, Type 0, BuildingBlock: WUSLED_clean_sbu_0, # of connection points: 3
#     Node 3, Type 0, BuildingBlock: WUSLED_clean_sbu_0, # of connection points: 3
#     Node 4, Type 0, BuildingBlock: WUSLED_clean_sbu_0, # of connection points: 3
#     Node 5, Type 0, BuildingBlock: WUSLED_clean_sbu_0, # of connection points: 3
#     Node 6, Type 0, BuildingBlock: WUSLED_clean_sbu_0, # of connection points: 3
#     Node 7, Type 0, BuildingBlock: WUSLED_clean_sbu_0, # of connection points: 3
#     Node 8, Type 0, BuildingBlock: WUSLED_clean_sbu_0, # of connection points: 3
#     Node 9, Type 0, BuildingBlock: WUSLED_clean_sbu_0, # of connection points: 3
#     Node 10, Type 0, BuildingBlock: WUSLED_clean_sbu_0, # of connection points: 3
#     Node 11, Type 0, BuildingBlock: WUSLED_clean_sbu_0, # of connection points: 3
#     Edge 12, Type (0, 0), BuildingBlock: OJICUG_clean_linker_0, # of connection points: 2
#     Edge 13, Type (0, 0), BuildingBlock: OJICUG_clean_linker_0, # of connection points: 2
#     Edge 14, Type (0, 0), BuildingBlock: OJICUG_clean_linker_0, # of connection points: 2
#     Edge 15, Type (0, 0), BuildingBlock: OJICUG_clean_linker_0, # of connection points: 2
#     Edge 16, Type (0, 0), BuildingBlock: OJICUG_clean_linker_0, # of connection points: 2
#     Edge 17, Type (0, 0), BuildingBlock: OJICUG_clean_linker_0, # of connection points: 2
#     Edge 18, Type (0, 0), BuildingBlock: OJICUG_clean_linker_0, # of connection points: 2
#     Edge 19, Type (0, 0), BuildingBlock: OJICUG_clean_linker_0, # of connection points: 2
#     Edge 20, Type (0, 0), BuildingBlock: OJICUG_clean_linker_0, # of connection points: 2
#     Edge 21, Type (0, 0), BuildingBlock: OJICUG_clean_linker_0, # of connection points: 2
#     Edge 22, Type (0, 0), BuildingBlock: OJICUG_clean_linker_0, # of connection points: 2
#     Edge 23, Type (0, 0), BuildingBlock: OJICUG_clean_linker_0, # of connection points: 2
#     Edge 24, Type (0, 0), BuildingBlock: OJICUG_clean_linker_0, # of connection points: 2
#     Edge 25, Type (0, 0), BuildingBlock: OJICUG_clean_linker_0, # of connection points: 2
#     Edge 26, Type (0, 0), BuildingBlock: OJICUG_clean_linker_0, # of connection points: 2
#     Edge 27, Type (0, 0), BuildingBlock: OJICUG_clean_linker_0, # of connection points: 2
#     Edge 28, Type (0, 0), BuildingBlock: OJICUG_clean_linker_0, # of connection points: 2
#     Edge 29, Type (0, 0), BuildingBlock: OJICUG_clean_linker_0, # of connection points: 2
# Relax obj value: 0.120
# Max RMSD: 0.088
# Mean RMSD: 0.088
data_MOF--net-qtz-f--node1-WUSLED_clean_sbu_0--edge1-OJICUG_clean_linker_0
_symmetry_space_group_name_H-M    P1
_symmetry_Int_Tables_number       1
_symmetry_cell_setting            triclinic
loop_
_symmetry_equiv_pos_as_xyz
'x, y, z'
_cell_length_a     78.963718
_cell_length_b     78.952638
_cell_length_c     46.871986
_cell_angle_alpha  89.965885
_cell_angle_beta   90.009107
_cell_angle_gamma 120.00683
loop_
_atom_site_label
_atom_site_type_symbol
_atom_site_fract_x
_atom_site_fract_y
_atom_site_fract_z
_atom_type_partial_charge
C0 C 0.08983 0.40436 0.1363 0.0
C1 C 0.08332 0.41344 0.15565 0.0
C2 C 0.05128 0.38395 0.15809 0.0
C3 C 0.06431 0.40333 0.16652 0.0
C4 C 0.05795 0.37483 0.13888 0.0
C5 C 0.07706 0.38498 0.12806 0.0
U6 U 0.1343 0.45324 0.12299 0.0
O7 O 0.16594 0.46391 0.12585 0.0
O8 O 0.15311 0.46623 0.08542 0.0
C9 C 0.1689 0.46883 0.09874 0.0
C10 C 0.1096 0.41549 0.12395 0.0
C11 C 0.18219 0.46407 0.08296 0.0
C12 C 0.18969 0.44943 0.04264 0.0
C13 C 0.176 0.45136 0.05937 0.0
C14 C 0.21571 0.47224 0.07352 0.0
C15 C 0.20978 0.46028 0.04912 0.0
C16 C 0.20208 0.47411 0.09018 0.0
C17 C 0.1305 0.49715 0.15304 0.0
C18 C 0.13276 0.52792 0.13891 0.0
C19 C 0.14138 0.52396 0.18701 0.0
C20 C 0.13719 0.50498 0.18037 0.0
C21 C 0.13881 0.53552 0.16655 0.0
C22 C 0.12862 0.50896 0.13225 0.0
C23 C 0.12335 0.47614 0.14755 0.0
O24 O 0.11113 0.42671 0.10223 0.0
O25 O 0.12384 0.42435 0.14259 0.0
O26 O 0.13209 0.46813 0.16135 0.0
O27 O 0.11906 0.47008 0.12102 0.0
H28 H 0.09293 0.42844 0.16221 0.0
H29 H 0.05983 0.41073 0.1816 0.0
H30 H 0.04827 0.36002 0.13167 0.0
H31 H 0.08178 0.37779 0.11297 0.0
H32 H 0.18466 0.44015 0.02394 0.0
H33 H 0.16072 0.44344 0.05331 0.0
H34 H 0.23102 0.48053 0.0794 0.0
H35 H 0.20721 0.48399 0.10825 0.0
H36 H 0.13034 0.53627 0.12272 0.0
H37 H 0.14623 0.52942 0.2084 0.0
H38 H 0.13859 0.4962 0.19696 0.0
H39 H 0.12325 0.50336 0.11108 0.0
C40 C 0.69527 0.08763 0.47107 0.0
C41 C 0.68073 0.08112 0.49216 0.0
C42 C 0.67763 0.04882 0.49182 0.0
C43 C 0.67209 0.062 0.50252 0.0
C44 C 0.69245 0.0555 0.47095 0.0
C45 C 0.70117 0.07474 0.46063 0.0
U46 U 0.68864 0.13078 0.45939 0.0
O47 O 0.70839 0.16263 0.46281 0.0
O48 O 0.69333 0.14976 0.42237 0.0
C49 C 0.70628 0.16565 0.43578 0.0
C50 C 0.70329 0.10743 0.45898 0.0
C51 C 0.72436 0.17899 0.42011 0.0
C52 C 0.74839 0.18579 0.38274 0.0
C53 C 0.73199 0.17239 0.39848 0.0
C54 C 0.74999 0.21239 0.41051 0.0
C55 C 0.75751 0.20599 0.38843 0.0
C56 C 0.73362 0.19905 0.4261 0.0
C57 C 0.63945 0.1221 0.49182 0.0
C58 C 0.62269 0.14048 0.4839 0.0
C59 C 0.60869 0.11248 0.51564 0.0
C60 C 0.6246 0.1098 0.51066 0.0
C61 C 0.60733 0.12758 0.50188 0.0
C62 C 0.63865 0.13769 0.47876 0.0
C63 C 0.6547 0.11726 0.48499 0.0
O64 O 0.6932 0.10866 0.43758 0.0
O65 O 0.70835 0.1215 0.47782 0.0
O66 O 0.6715 0.12725 0.49831 0.0
O67 O 0.65655 0.11413 0.45795 0.0
H68 H 0.67586 0.09079 0.5004 0.0
H69 H 0.66099 0.05753 0.5189 0.0
H70 H 0.69693 0.04571 0.462 0.0
H71 H 0.71224 0.07944 0.44416 0.0
H72 H 0.75391 0.18033 0.36608 0.0
H73 H 0.72514 0.15696 0.3935 0.0
H74 H 0.75639 0.22783 0.41522 0.0
H75 H 0.72791 0.20448 0.44255 0.0
H76 H 0.62196 0.15219 0.47296 0.0
H77 H 0.59722 0.10249 0.52989 0.0
H78 H 0.62502 0.09773 0.52097 0.0
H79 H 0.65002 0.14732 0.4641 0.0
C80 C 0.61598 0.68989 0.80299 0.0
C81 C 0.60787 0.67596 0.82491 0.0
C82 C 0.63699 0.67271 0.82598 0.0
C83 C 0.61828 0.66754 0.83637 0.0
C84 C 0.64519 0.68693 0.80428 0.0
C85 C 0.63475 0.69542 0.79288 0.0
U86 U 0.56664 0.68475 0.79014 0.0
O87 O 0.55616 0.70584 0.78919 0.0
O88 O 0.55272 0.68798 0.75135 0.0
C89 C 0.55091 0.70235 0.76221 0.0
C90 C 0.60438 0.69769 0.78965 0.0
C91 C 0.55639 0.71945 0.74343 0.0
C92 C 0.5712 0.7546 0.73582 0.0
C93 C 0.56814 0.7388 0.75306 0.0
C94 C 0.55131 0.73207 0.69877 0.0
C95 C 0.56261 0.75143 0.70858 0.0
C96 C 0.5482 0.71631 0.71601 0.0
C97 C 0.52404 0.63894 0.82614 0.0
C98 C 0.48948 0.62183 0.8139 0.0
C99 C 0.50062 0.6123 0.85587 0.0
C100 C 0.51979 0.62697 0.85021 0.0
C101 C 0.48525 0.60928 0.83752 0.0
C102 C 0.50874 0.63656 0.80825 0.0
C103 C 0.54467 0.6526 0.81923 0.0
O104 O 0.59254 0.68669 0.76931 0.0
O105 O 0.59606 0.70419 0.80747 0.0
O106 O 0.5525 0.67016 0.83052 0.0
O107 O 0.54984 0.6527 0.79256 0.0
H108 H 0.59333 0.6714 0.83292 0.0
H109 H 0.61161 0.65689 0.85333 0.0
H110 H 0.65944 0.6911 0.79552 0.0
H111 H 0.64118 0.70601 0.77578 0.0
H112 H 0.58015 0.76932 0.74393 0.0
H113 H 0.57463 0.74175 0.77413 0.0
H114 H 0.54422 0.72902 0.67813 0.0
H115 H 0.53889 0.70157 0.70818 0.0
H116 H 0.47797 0.62006 0.79952 0.0
H117 H 0.49803 0.60277 0.87396 0.0
H118 H 0.53143 0.62853 0.86417 0.0
H119 H 0.51175 0.64572 0.78957 0.0
C120 C 0.9332 0.61052 0.13555 0.0
C121 C 0.93949 0.60213 0.15642 0.0
C122 C 0.97178 0.63136 0.15721 0.0
C123 C 0.9585 0.61246 0.16722 0.0
C124 C 0.96533 0.63981 0.13646 0.0
C125 C 0.94621 0.62945 0.12571 0.0
U126 U 0.88892 0.56128 0.12423 0.0
O127 O 0.85725 0.55042 0.12716 0.0
O128 O 0.86994 0.54724 0.08715 0.0
C129 C 0.85417 0.54484 0.10033 0.0
C130 C 0.91343 0.59907 0.12329 0.0
C131 C 0.84081 0.54925 0.08403 0.0
C132 C 0.83365 0.5646 0.04429 0.0
C133 C 0.84724 0.56265 0.06126 0.0
C134 C 0.80725 0.54035 0.07326 0.0
C135 C 0.81345 0.55311 0.04971 0.0
C136 C 0.82077 0.53844 0.09016 0.0
C137 C 0.89377 0.51897 0.15758 0.0
C138 C 0.87496 0.48425 0.14658 0.0
C139 C 0.89776 0.49555 0.18614 0.0
C140 C 0.9025 0.51478 0.18043 0.0
C141 C 0.88414 0.48004 0.16906 0.0
C142 C 0.87972 0.50358 0.14089 0.0
C143 C 0.90055 0.53958 0.15079 0.0
O144 O 0.91192 0.58737 0.10229 0.0
O145 O 0.89919 0.59061 0.14204 0.0
O146 O 0.89146 0.54752 0.1637 0.0
O147 O 0.90431 0.54457 0.1238 0.0
H148 H 0.9297 0.58748 0.16422 0.0
H149 H 0.96279 0.60559 0.18349 0.0
H150 H 0.9752 0.65423 0.12801 0.0
H151 H 0.94167 0.6361 0.10944 0.0
H152 H 0.8389 0.57451 0.02626 0.0
H153 H 0.86265 0.57117 0.0561 0.0
H154 H 0.79185 0.53154 0.07836 0.0
H155 H 0.81549 0.52804 0.10762 0.0
H156 H 0.86427 0.47265 0.13319 0.0
H157 H 0.90538 0.49296 0.20329 0.0
H158 H 0.91343 0.52649 0.19345 0.0
H159 H 0.87277 0.50655 0.12318 0.0
C160 C 0.32861 0.92845 0.47223 0.0
C161 C 0.34327 0.93491 0.49313 0.0
C162 C 0.34638 0.96721 0.49312 0.0
C163 C 0.35199 0.95401 0.50355 0.0
C164 C 0.33146 0.96059 0.47243 0.0
C165 C 0.32268 0.94136 0.46204 0.0
U166 U 0.33457 0.88482 0.46165 0.0
O167 O 0.31435 0.85302 0.46467 0.0
O168 O 0.33031 0.8659 0.42478 0.0
C169 C 0.3171 0.85001 0.43791 0.0
C170 C 0.32049 0.90864 0.46016 0.0
C171 C 0.2995 0.83656 0.42145 0.0
C172 C 0.27566 0.82977 0.38378 0.0
C173 C 0.2912 0.8432 0.40088 0.0
C174 C 0.2762 0.80303 0.40827 0.0
C175 C 0.26827 0.80952 0.38689 0.0
C176 C 0.29163 0.8164 0.4253 0.0
C177 C 0.38285 0.89238 0.49594 0.0
C178 C 0.40168 0.87641 0.48544 0.0
C179 C 0.41149 0.89978 0.52416 0.0
C180 C 0.39555 0.90233 0.51856 0.0
C181 C 0.41503 0.8872 0.50722 0.0
C182 C 0.3857 0.87905 0.47974 0.0
C183 C 0.368 0.89769 0.48848 0.0
O184 O 0.3308 0.90725 0.43923 0.0
O185 O 0.31492 0.8945 0.47904 0.0
O186 O 0.35096 0.88794 0.50128 0.0
O187 O 0.36666 0.90108 0.46136 0.0
H188 H 0.34817 0.9252 0.50119 0.0
H189 H 0.36317 0.95845 0.51979 0.0
H190 H 0.32692 0.9704 0.46369 0.0
H191 H 0.31151 0.9367 0.44572 0.0
H192 H 0.26992 0.83524 0.36745 0.0
H193 H 0.29704 0.85872 0.39756 0.0
H194 H 0.27064 0.78755 0.41159 0.0
H195 H 0.29776 0.81096 0.4411 0.0
H196 H 0.40411 0.86668 0.472 0.0
H197 H 0.42137 0.90808 0.54131 0.0
H198 H 0.39355 0.91264 0.53132 0.0
H199 H 0.37602 0.87124 0.46215 0.0
C200 C 0.40934 0.32746 0.79969 0.0
C201 C 0.41924 0.34716 0.80807 0.0
C202 C 0.3886 0.34463 0.82362 0.0
C203 C 0.40899 0.35567 0.81976 0.0
C204 C 0.3787 0.32488 0.81501 0.0
C205 C 0.38901 0.31637 0.80317 0.0
U206 U 0.4581 0.33108 0.79047 0.0
O207 O 0.46806 0.30957 0.79411 0.0
O208 O 0.47253 0.32589 0.75418 0.0
C209 C 0.47395 0.31195 0.76742 0.0
C210 C 0.42048 0.31855 0.78831 0.0
C211 C 0.46851 0.29398 0.75097 0.0
C212 C 0.45174 0.27182 0.71145 0.0
C213 C 0.45506 0.28786 0.72832 0.0
C214 C 0.47473 0.26744 0.74024 0.0
C215 C 0.46174 0.26156 0.71698 0.0
C216 C 0.47807 0.28347 0.75698 0.0
C217 C 0.50004 0.37848 0.82535 0.0
C218 C 0.5344 0.39957 0.81349 0.0
C219 C 0.5216 0.40409 0.85802 0.0
C220 C 0.50319 0.38838 0.85133 0.0
C221 C 0.53726 0.41025 0.8388 0.0
C222 C 0.51588 0.38381 0.80674 0.0
C223 C 0.47975 0.36429 0.81728 0.0
O224 O 0.43258 0.32831 0.7674 0.0
O225 O 0.42841 0.3127 0.80778 0.0
O226 O 0.47151 0.34723 0.83021 0.0
O227 O 0.47531 0.36316 0.79006 0.0
H228 H 0.43496 0.35598 0.80566 0.0
H229 H 0.41709 0.37098 0.8256 0.0
H230 H 0.36304 0.31589 0.81791 0.0
H231 H 0.38114 0.3011 0.79702 0.0
H232 H 0.44148 0.26755 0.69391 0.0
H233 H 0.44742 0.29568 0.7233 0.0
H234 H 0.4829 0.26011 0.74492 0.0
H235 H 0.48858 0.288 0.77424 0.0
H236 H 0.54619 0.40404 0.79824 0.0
H237 H 0.52343 0.41186 0.87786 0.0
H238 H 0.49118 0.38448 0.86599 0.0
H239 H 0.51377 0.37634 0.78655 0.0
C240 C 0.61644 0.92952 0.55317 0.0
C241 C 0.60818 0.93588 0.53221 0.0
C242 C 0.63741 0.96817 0.53181 0.0
C243 C 0.61858 0.95494 0.52154 0.0
C244 C 0.64576 0.96163 0.55256 0.0
C245 C 0.63533 0.94247 0.56317 0.0
U246 U 0.56693 0.88579 0.56512 0.0
O247 O 0.55558 0.85402 0.56256 0.0
O248 O 0.55289 0.86708 0.60247 0.0
C249 C 0.5505 0.85122 0.58961 0.0
C250 C 0.60483 0.90979 0.56553 0.0
C251 C 0.55575 0.83842 0.60586 0.0
C252 C 0.57069 0.83179 0.64668 0.0
C253 C 0.56754 0.84489 0.63042 0.0
C254 C 0.5508 0.80577 0.61367 0.0
C255 C 0.56218 0.812 0.63866 0.0
C256 C 0.54761 0.81881 0.59754 0.0
C257 C 0.52566 0.89292 0.53164 0.0
C258 C 0.49085 0.87649 0.54227 0.0
C259 C 0.50423 0.90056 0.50437 0.0
C260 C 0.52277 0.90319 0.5096 0.0
C261 C 0.48815 0.88757 0.52108 0.0
C262 C 0.50955 0.87922 0.54763 0.0
C263 C 0.54587 0.89825 0.53873 0.0
O264 O 0.59335 0.90852 0.58671 0.0
O265 O 0.59607 0.89554 0.54689 0.0
O266 O 0.55307 0.88847 0.52582 0.0
O267 O 0.55085 0.9018 0.56575 0.0
H268 H 0.59356 0.92615 0.52429 0.0
H269 H 0.61179 0.9593 0.50527 0.0
H270 H 0.66013 0.97147 0.56118 0.0
H271 H 0.64188 0.93788 0.57953 0.0
H272 H 0.5797 0.83713 0.66563 0.0
H273 H 0.57406 0.85995 0.63735 0.0
H274 H 0.54376 0.79061 0.60704 0.0
H275 H 0.53833 0.81343 0.57883 0.0
H276 H 0.47871 0.86643 0.55551 0.0
H277 H 0.50254 0.9091 0.48766 0.0
H278 H 0.53503 0.91379 0.49702 0.0
H279 H 0.51153 0.87117 0.56477 0.0
C280 C 0.69547 0.61205 0.88801 0.0
C281 C 0.68051 0.60368 0.86756 0.0
C282 C 0.67746 0.6329 0.86742 0.0
C283 C 0.67169 0.614 0.85728 0.0
C284 C 0.69268 0.64138 0.88765 0.0
C285 C 0.70157 0.63101 0.8979 0.0
U286 U 0.68921 0.56245 0.89886 0.0
O287 O 0.70909 0.55048 0.89563 0.0
O288 O 0.69346 0.54775 0.93571 0.0
C289 C 0.70645 0.54482 0.92244 0.0
C290 C 0.70366 0.60041 0.90001 0.0
C291 C 0.72408 0.54881 0.9387 0.0
C292 C 0.74802 0.56557 0.97636 0.0
C293 C 0.7325 0.56365 0.95939 0.0
C294 C 0.74724 0.53831 0.9515 0.0
C295 C 0.75528 0.55262 0.97301 0.0
C296 C 0.73183 0.53644 0.9346 0.0
C297 C 0.6403 0.52215 0.86561 0.0
C298 C 0.62419 0.4869 0.87223 0.0
C299 C 0.60917 0.50099 0.84275 0.0
C300 C 0.62497 0.51962 0.84783 0.0
C301 C 0.60839 0.48446 0.85533 0.0
C302 C 0.64005 0.50569 0.87749 0.0
C303 C 0.65547 0.54221 0.87266 0.0
O304 O 0.69352 0.58887 0.9212 0.0
O305 O 0.70896 0.59166 0.88108 0.0
O306 O 0.67238 0.5491 0.85962 0.0
O307 O 0.65712 0.54703 0.89975 0.0
H308 H 0.67548 0.589 0.85975 0.0
H309 H 0.66028 0.60711 0.84139 0.0
H310 H 0.69736 0.65582 0.89613 0.0
H311 H 0.71296 0.63764 0.91389 0.0
H312 H 0.75384 0.57669 0.9928 0.0
H313 H 0.72677 0.5734 0.96291 0.0
H314 H 0.7527 0.52833 0.94798 0.0
H315 H 0.7256 0.52494 0.91871 0.0
H316 H 0.62391 0.47439 0.88226 0.0
H317 H 0.59733 0.49953 0.82933 0.0
H318 H 0.62497 0.53217 0.83844 0.0
H319 H 0.6518 0.50742 0.89134 0.0
C320 C 0.09026 0.68968 0.22195 0.0
C321 C 0.08425 0.67515 0.20091 0.0
C322 C 0.05182 0.67176 0.1997 0.0
C323 C 0.06531 0.66637 0.18981 0.0
C324 C 0.058 0.68651 0.22059 0.0
C325 C 0.07705 0.69537 0.23163 0.0
U326 U 0.13435 0.68468 0.23542 0.0
O327 O 0.16606 0.7054 0.23292 0.0
O328 O 0.15294 0.68999 0.2731 0.0
C329 C 0.16887 0.70316 0.25998 0.0
C330 C 0.10992 0.69806 0.23464 0.0
C331 C 0.18225 0.72105 0.27603 0.0
C332 C 0.18962 0.74352 0.31585 0.0
C333 C 0.17595 0.72796 0.29901 0.0
C334 C 0.21585 0.74584 0.28633 0.0
C335 C 0.20978 0.7523 0.3101 0.0
C336 C 0.20225 0.73039 0.26955 0.0
C337 C 0.13005 0.63721 0.20403 0.0
C338 C 0.14191 0.61565 0.21996 0.0
C339 C 0.13168 0.61438 0.17092 0.0
C340 C 0.12741 0.62922 0.17659 0.0
C341 C 0.1386 0.60713 0.19267 0.0
C342 C 0.13772 0.63059 0.22559 0.0
C343 C 0.12312 0.65109 0.20993 0.0
O344 O 0.11117 0.68806 0.25617 0.0
O345 O 0.12433 0.70359 0.21626 0.0
O346 O 0.1322 0.66797 0.19656 0.0
O347 O 0.11884 0.65258 0.23658 0.0
H348 H 0.09419 0.67045 0.19323 0.0
H349 H 0.06123 0.65532 0.17345 0.0
H350 H 0.04797 0.69087 0.22896 0.0
H351 H 0.08136 0.70644 0.24804 0.0
H352 H 0.18448 0.74811 0.33407 0.0
H353 H 0.16058 0.72099 0.30446 0.0
H354 H 0.23122 0.75248 0.28099 0.0
H355 H 0.20745 0.72533 0.25194 0.0
H356 H 0.14744 0.61054 0.23708 0.0
H357 H 0.12872 0.608 0.14978 0.0
H358 H 0.12141 0.63402 0.15969 0.0
H359 H 0.13999 0.63657 0.24695 0.0
C360 C 0.4077 0.08633 0.55504 0.0
C361 C 0.41586 0.08008 0.53379 0.0
C362 C 0.38671 0.04772 0.53357 0.0
C363 C 0.40546 0.06104 0.52309 0.0
C364 C 0.37846 0.05415 0.55461 0.0
C365 C 0.38889 0.07329 0.56528 0.0
U366 U 0.45708 0.13053 0.56568 0.0
O367 O 0.46788 0.16222 0.56347 0.0
O368 O 0.47156 0.14924 0.60282 0.0
C369 C 0.47353 0.16505 0.59029 0.0
C370 C 0.41929 0.10607 0.56734 0.0
C371 C 0.46835 0.17759 0.60724 0.0
C372 C 0.45179 0.18293 0.64711 0.0
C373 C 0.45499 0.17023 0.63001 0.0
C374 C 0.47477 0.21037 0.6184 0.0
C375 C 0.46181 0.20321 0.6417 0.0
C376 C 0.478 0.1977 0.60144 0.0
C377 C 0.49847 0.12461 0.53003 0.0
C378 C 0.53294 0.1386 0.54172 0.0
C379 C 0.51993 0.11953 0.49857 0.0
C380 C 0.50151 0.11692 0.50489 0.0
C381 C 0.53572 0.1299 0.5173 0.0
C382 C 0.51439 0.13591 0.54812 0.0
C383 C 0.47822 0.11877 0.53791 0.0
O384 O 0.43122 0.10748 0.58795 0.0
O385 O 0.42756 0.12036 0.54865 0.0
O386 O 0.47046 0.12824 0.5256 0.0
O387 O 0.4736 0.11497 0.56502 0.0
H388 H 0.43041 0.08989 0.52568 0.0
H389 H 0.41217 0.05676 0.50659 0.0
H390 H 0.36417 0.04425 0.56341 0.0
H391 H 0.38242 0.0778 0.58184 0.0
H392 H 0.44156 0.1769 0.66469 0.0
H393 H 0.44729 0.15474 0.63489 0.0
H394 H 0.48297 0.22588 0.61382 0.0
H395 H 0.48846 0.20372 0.58411 0.0
H396 H 0.54483 0.1466 0.55659 0.0
H397 H 0.52169 0.1129 0.4794 0.0
H398 H 0.48941 0.10819 0.49065 0.0
H399 H 0.51234 0.14198 0.56766 0.0
C400 C 0.33248 0.40576 0.89186 0.0
C401 C 0.35255 0.41516 0.88564 0.0
C402 C 0.34959 0.38423 0.8708 0.0
C403 C 0.36102 0.40451 0.87534 0.0
C404 C 0.32942 0.37487 0.87673 0.0
C405 C 0.32095 0.38556 0.88727 0.0
U406 U 0.33681 0.45497 0.90017 0.0
O407 O 0.31572 0.4654 0.89555 0.0
O408 O 0.33134 0.46948 0.93605 0.0
C409 C 0.31798 0.47147 0.92213 0.0
C410 C 0.3237 0.41724 0.90238 0.0
C411 C 0.30007 0.46694 0.93804 0.0
C412 C 0.27576 0.44922 0.97488 0.0
C413 C 0.29147 0.45159 0.95794 0.0
C414 C 0.27674 0.47705 0.95147 0.0
C415 C 0.26853 0.46224 0.97227 0.0
C416 C 0.29233 0.47936 0.93459 0.0
C417 C 0.38442 0.49715 0.8676 0.0
C418 C 0.39989 0.53198 0.87758 0.0
C419 C 0.41211 0.52039 0.83933 0.0
C420 C 0.39768 0.50118 0.84527 0.0
C421 C 0.4136 0.53604 0.85562 0.0
C422 C 0.38538 0.51267 0.8835 0.0
C423 C 0.37058 0.47658 0.87462 0.0
O424 O 0.33315 0.4292 0.92356 0.0
O425 O 0.31848 0.4254 0.8824 0.0
O426 O 0.35377 0.46842 0.86105 0.0
O427 O 0.3689 0.47186 0.90178 0.0
H428 H 0.36168 0.4308 0.88866 0.0
H429 H 0.37652 0.41223 0.87053 0.0
H430 H 0.32024 0.35926 0.87357 0.0
H431 H 0.30541 0.37807 0.89178 0.0
H432 H 0.2698 0.43771 0.99076 0.0
H433 H 0.29723 0.44181 0.96094 0.0
H434 H 0.27132 0.48711 0.94856 0.0
H435 H 0.29871 0.49125 0.91931 0.0
H436 H 0.4005 0.54369 0.89035 0.0
H437 H 0.42258 0.52287 0.82262 0.0
H438 H 0.3972 0.48937 0.83286 0.0
H439 H 0.37519 0.50983 0.90079 0.0
C440 C 0.93326 0.32702 0.22433 0.0
C441 C 0.93873 0.34025 0.20151 0.0
C442 C 0.97142 0.34425 0.20123 0.0
C443 C 0.95755 0.3487 0.19 0.0
C444 C 0.96575 0.33072 0.22385 0.0
C445 C 0.94683 0.3222 0.23531 0.0
U446 U 0.88909 0.33222 0.23633 0.0
O447 O 0.85751 0.31119 0.23765 0.0
O448 O 0.87205 0.32967 0.27496 0.0
C449 C 0.85581 0.3152 0.26439 0.0
C450 C 0.91388 0.3193 0.23772 0.0
C451 C 0.84417 0.29847 0.28368 0.0
C452 C 0.82652 0.26354 0.2942 0.0
C453 C 0.83918 0.2792 0.27664 0.0
C454 C 0.82412 0.2862 0.32641 0.0
C455 C 0.81867 0.26684 0.31917 0.0
C456 C 0.83667 0.30179 0.30885 0.0
C457 C 0.89231 0.37755 0.19885 0.0
C458 C 0.8742 0.39414 0.21009 0.0
C459 C 0.89599 0.40445 0.16934 0.0
C460 C 0.90055 0.38986 0.17525 0.0
C461 C 0.88304 0.40704 0.18697 0.0
C462 C 0.87881 0.37949 0.21599 0.0
C463 C 0.89929 0.36397 0.20619 0.0
O464 O 0.91306 0.33056 0.25766 0.0
O465 O 0.899 0.3125 0.21997 0.0
O466 O 0.88947 0.34626 0.19543 0.0
O467 O 0.90446 0.36423 0.2329 0.0
H468 H 0.92851 0.34428 0.19283 0.0
H469 H 0.96125 0.35879 0.17233 0.0
H470 H 0.97608 0.32712 0.23326 0.0
H471 H 0.94294 0.31217 0.2531 0.0
H472 H 0.82278 0.24884 0.28814 0.0
H473 H 0.84475 0.27618 0.25735 0.0
H474 H 0.81815 0.2893 0.34519 0.0
H475 H 0.84014 0.31647 0.3146 0.0
H476 H 0.864 0.39557 0.22391 0.0
H477 H 0.90333 0.41426 0.15166 0.0
H478 H 0.91108 0.38863 0.16188 0.0
H479 H 0.87225 0.37005 0.23431 0.0
C480 C 0.23664 0.44343 0.99919 0.0
C481 C 0.25335 0.46131 0.99211 0.0
H482 H 0.20964 0.42901 0.02266 0.0
C483 C 0.25559 0.47862 1.00414 0.0
H484 H 0.23446 0.42985 0.99018 0.0
C485 C 0.2415 0.47814 0.02262 0.0
C486 C 0.22471 0.46034 0.02961 0.0
H487 H 0.26839 0.49262 0.99945 0.0
H488 H 0.24367 0.49183 0.03117 0.0
C489 C 0.22238 0.44297 0.01761 0.0
C490 C 0.77422 0.2186 0.34101 0.0
C491 C 0.77426 0.22053 0.37085 0.0
H492 H 0.78804 0.23171 0.30131 0.0
C493 C 0.78987 0.23711 0.38363 0.0
H494 H 0.76234 0.20614 0.33041 0.0
C495 C 0.80461 0.25177 0.36695 0.0
C496 C 0.80415 0.25025 0.33703 0.0
H497 H 0.7906 0.2389 0.40658 0.0
H498 H 0.81627 0.26444 0.37752 0.0
C499 C 0.78898 0.23329 0.3243 0.0
C500 C 0.56282 0.79797 0.68669 0.0
C501 C 0.56427 0.79762 0.65681 0.0
H502 H 0.56097 0.78367 0.72637 0.0
C503 C 0.56657 0.78269 0.64432 0.0
H504 H 0.5608 0.8091 0.69703 0.0
C505 C 0.56668 0.7681 0.66115 0.0
C506 C 0.56449 0.76803 0.69095 0.0
H507 H 0.5681 0.78216 0.62142 0.0
H508 H 0.56828 0.75673 0.65077 0.0
C509 C 0.56293 0.78337 0.70355 0.0
C510 C 0.78684 0.57089 1.00087 0.0
C511 C 0.77036 0.55314 0.99271 0.0
H512 H 0.81348 0.58488 0.02518 0.0
C513 C 0.76823 0.53557 1.00356 0.0
H514 H 0.78895 0.58467 0.99278 0.0
C515 C 0.78219 0.53569 0.02196 0.0
C516 C 0.79872 0.55338 0.03009 0.0
H517 H 0.75561 0.52164 0.99804 0.0
H518 H 0.78011 0.52183 0.0296 0.0
C519 C 0.80095 0.57101 0.01923 0.0
C520 C 0.22248 0.78261 0.3408 0.0
C521 C 0.22462 0.76723 0.32967 0.0
H522 H 0.23464 0.80816 0.36749 0.0
C523 C 0.24115 0.76599 0.33752 0.0
H524 H 0.20995 0.78401 0.33506 0.0
C525 C 0.25519 0.77971 0.35595 0.0
C526 C 0.25314 0.79512 0.36709 0.0
H527 H 0.24316 0.75421 0.32967 0.0
H528 H 0.26779 0.77833 0.36128 0.0
C529 C 0.23668 0.79651 0.35917 0.0
C530 C 0.45927 0.22883 0.70891 0.0
C531 C 0.45962 0.24555 0.69776 0.0
H532 H 0.45971 0.20243 0.70011 0.0
C533 C 0.45921 0.24745 0.66796 0.0
H534 H 0.45933 0.22676 0.73175 0.0
C535 C 0.45925 0.2334 0.64981 0.0
C536 C 0.45967 0.21706 0.66096 0.0
H537 H 0.45961 0.26019 0.65859 0.0
H538 H 0.45929 0.23552 0.62697 0.0
C539 C 0.45927 0.21475 0.69075 0.0
C540 C 0.13378 0.5744 0.20715 0.0
C541 C 0.14086 0.58979 0.18728 0.0
H542 H 0.12734 0.54522 0.21608 0.0
C543 C 0.1487 0.58778 0.16141 0.0
H544 H 0.12739 0.57534 0.22711 0.0
C545 C 0.14874 0.57048 0.15509 0.0
C546 C 0.1409 0.55476 0.17446 0.0
H547 H 0.15453 0.59948 0.14582 0.0
H548 H 0.15466 0.56932 0.13481 0.0
C549 C 0.13377 0.55709 0.20081 0.0
C550 C 0.55374 0.1123 0.50577 0.0
C551 C 0.55433 0.12991 0.5126 0.0
H552 H 0.56996 0.09789 0.49692 0.0
C553 C 0.57262 0.14705 0.51545 0.0
H554 H 0.5399 0.09881 0.50378 0.0
C555 C 0.58996 0.14652 0.51141 0.0
C556 C 0.58926 0.12878 0.50502 0.0
H557 H 0.57348 0.16083 0.52063 0.0
H558 H 0.60389 0.15985 0.51385 0.0
C559 C 0.57096 0.11174 0.5021 0.0
C560 C 0.45444 0.5806 0.81864 0.0
C561 C 0.46533 0.59211 0.84195 0.0
H562 H 0.42938 0.55414 0.80461 0.0
C563 C 0.45782 0.58601 0.86963 0.0
H564 H 0.45978 0.58475 0.79703 0.0
C565 C 0.44051 0.56827 0.874 0.0
C566 C 0.43025 0.55621 0.85078 0.0
H567 H 0.46565 0.59468 0.88805 0.0
H568 H 0.43573 0.56358 0.89569 0.0
C569 C 0.4371 0.56289 0.82301 0.0
C570 C 0.8794 0.43054 0.15468 0.0
C571 C 0.88016 0.42412 0.18241 0.0
H572 H 0.88013 0.45318 0.12868 0.0
C573 C 0.88002 0.43523 0.20575 0.0
H574 H 0.87917 0.42218 0.13622 0.0
C575 C 0.88027 0.45288 0.20143 0.0
C576 C 0.88074 0.4599 0.17367 0.0
H577 H 0.88071 0.43083 0.2274 0.0
H578 H 0.8807 0.46133 0.21988 0.0
C579 C 0.87971 0.44823 0.15035 0.0
C580 C 0.46886 0.90458 0.51645 0.0
C581 C 0.46916 0.88697 0.51772 0.0
H582 H 0.45162 0.91837 0.51205 0.0
C583 C 0.4514 0.86917 0.51572 0.0
H584 H 0.48227 0.91852 0.51823 0.0
C585 C 0.43371 0.86909 0.51205 0.0
C586 C 0.43351 0.88679 0.51092 0.0
H587 H 0.45125 0.85539 0.51658 0.0
H588 H 0.42021 0.85523 0.51043 0.0
C589 C 0.45128 0.9045 0.51317 0.0
C590 C 0.59139 0.44839 0.84411 0.0
C591 C 0.59047 0.46507 0.8521 0.0
H592 H 0.57518 0.41783 0.83332 0.0
C593 C 0.57209 0.46337 0.85645 0.0
H594 H 0.60539 0.44933 0.84055 0.0
C595 C 0.55498 0.44551 0.85253 0.0
C596 C 0.55577 0.42887 0.84401 0.0
H597 H 0.57092 0.47593 0.86289 0.0
H598 H 0.54106 0.44485 0.85558 0.0
C599 C 0.57416 0.43045 0.83982 0.0
C600 C 0.02135 0.35361 0.17627 0.0
C601 C 0.03075 0.37356 0.16889 0.0
H602 H 0.99531 0.32868 0.19199 0.0
C603 C 0.02038 0.38365 0.17205 0.0
H604 H 0.02893 0.34542 0.17434 0.0
C605 C 1.00124 0.37414 0.1825 0.0
C606 C 0.99183 0.35422 0.18996 0.0
H607 H 0.027 0.39893 0.16624 0.0
H608 H 0.9939 0.38253 0.18506 0.0
C609 C 1.00214 0.34406 0.18671 0.0
C610 C 0.64723 0.01812 0.50692 0.0
C611 C 0.66751 0.02811 0.50189 0.0
H612 H 0.62203 0.99177 0.52069 0.0
C613 C 0.67788 0.01816 0.50666 0.0
H614 H 0.63868 0.02517 0.50311 0.0
C615 C 0.6682 0.99876 0.51639 0.0
C616 C 0.64792 0.98883 0.52148 0.0
H617 H 0.69352 0.02543 0.50323 0.0
H618 H 0.67659 0.99149 0.51964 0.0
C619 C 0.6376 0.99881 0.51665 0.0
C620 C 0.63716 0.6426 0.84307 0.0
C621 C 0.6475 0.66276 0.83706 0.0
H622 H 0.63832 0.61758 0.85773 0.0
C623 C 0.66787 0.67314 0.84146 0.0
H624 H 0.62152 0.63405 0.83961 0.0
C625 C 0.67761 0.66356 0.85152 0.0
C626 C 0.66723 0.64337 0.85731 0.0
H627 H 0.67628 0.6887 0.83731 0.0
H628 H 0.69332 0.67193 0.85432 0.0
C629 C 0.64686 0.63307 0.85311 0.0
C630 C 1.00235 0.63167 0.17311 0.0
C631 C 0.99233 0.64191 0.16795 0.0
H632 H 0.02858 0.63284 0.18756 0.0
C633 C 1.0021 0.66217 0.17323 0.0
H634 H 0.99546 0.61613 0.16893 0.0
C635 C 0.02134 0.67188 0.18355 0.0
C636 C 0.03132 0.66158 0.18876 0.0
H637 H 0.99479 0.67051 0.16974 0.0
H638 H 0.02847 0.68751 0.18715 0.0
C639 C 0.02152 0.64134 0.18344 0.0
C640 C 0.38651 0.01718 0.5179 0.0
C641 C 0.37619 0.0271 0.52312 0.0
H642 H 0.38539 0.99088 0.50395 0.0
C643 C 0.35587 0.01715 0.51831 0.0
H644 H 0.4021 0.02423 0.52171 0.0
C645 C 0.34617 0.99779 0.50845 0.0
C646 C 0.35654 0.98789 0.50329 0.0
H647 H 0.34747 0.02439 0.52186 0.0
H648 H 0.3305 0.9905 0.50523 0.0
C649 C 0.37685 0.9979 0.50806 0.0
C650 C 0.35945 0.34966 0.82648 0.0
C651 C 0.3779 0.35382 0.8367 0.0
H652 H 0.33608 0.35605 0.82909 0.0
C653 C 0.3864 0.36731 0.85917 0.0
H654 H 0.35254 0.3395 0.80905 0.0
C655 C 0.37703 0.37685 0.87048 0.0
C656 C 0.35885 0.37309 0.85979 0.0
H657 H 0.40035 0.37055 0.86809 0.0
H658 H 0.38407 0.38721 0.88768 0.0
C659 C 0.35001 0.35916 0.83794 0.0
loop_
_geom_bond_atom_site_label_1
_geom_bond_atom_site_label_2
_geom_bond_distance
_geom_bond_site_symmetry_2
_ccdc_geom_bond_type
C0 C1 1.264 . S
C0 C5 1.479 . S
C0 C10 1.465 . S
C1 C0 1.264 . S
C1 C3 1.339 . S
C1 H28 0.931 . S
C2 C3 1.395 . S
C2 C4 1.320 . S
C3 C1 1.339 . S
C3 C2 1.395 . S
C3 H29 0.929 . S
C4 C2 1.320 . S
C4 C5 1.405 . S
C4 H30 0.930 . S
C5 C0 1.479 . S
C5 C4 1.405 . S
C5 H31 0.931 . S
U6 O7 2.454 . S
U6 O8 2.458 . S
U6 C9 2.984 . S
U6 C10 2.847 . S
U6 C23 2.882 . S
U6 O24 2.441 . S
U6 O25 2.420 . S
U6 O26 2.455 . S
U6 O27 2.449 . S
O7 U6 2.454 . S
O7 C9 1.353 . S
O8 U6 2.458 . S
O8 C9 1.286 . S
C9 U6 2.984 . S
C9 O7 1.353 . S
C9 O8 1.286 . S
C9 C11 1.363 . S
C10 C0 1.465 . S
C10 U6 2.847 . S
C10 O24 1.249 . S
C10 O25 1.202 . S
C11 C9 1.363 . S
C11 C13 1.408 . S
C11 C16 1.342 . S
C12 C13 1.310 . S
C12 C15 1.461 . S
C12 H32 0.932 . S
C13 C11 1.408 . S
C13 C12 1.310 . S
C13 H33 0.930 . S
C14 C15 1.474 . S
C14 C16 1.285 . S
C14 H34 0.929 . S
C15 C12 1.461 . S
C15 C14 1.474 . S
C16 C11 1.342 . S
C16 C14 1.285 . S
C16 H35 0.930 . S
C17 C20 1.424 . S
C17 C22 1.245 . S
C17 C23 1.428 . S
C18 C21 1.260 . S
C18 C22 1.477 . S
C18 H36 0.932 . S
C19 C20 1.384 . S
C19 C21 1.479 . S
C19 H37 0.929 . S
C20 C17 1.424 . S
C20 C19 1.384 . S
C20 H38 0.928 . S
C21 C18 1.260 . S
C21 C19 1.479 . S
C22 C17 1.245 . S
C22 C18 1.477 . S
C22 H39 0.932 . S
C23 U6 2.882 . S
C23 C17 1.428 . S
C23 O26 1.301 . S
C23 O27 1.282 . S
O24 U6 2.441 . S
O24 C10 1.249 . S
O25 U6 2.420 . S
O25 C10 1.202 . S
O26 U6 2.455 . S
O26 C23 1.301 . S
O27 U6 2.449 . S
O27 C23 1.282 . S
H28 C1 0.931 . S
H29 C3 0.929 . S
H30 C4 0.930 . S
H31 C5 0.931 . S
H32 C12 0.932 . S
H33 C13 0.930 . S
H34 C14 0.929 . S
H35 C16 0.930 . S
H36 C18 0.932 . S
H37 C19 0.929 . S
H38 C20 0.928 . S
H39 C22 0.932 . S
C40 C41 1.264 . S
C40 C45 1.479 . S
C40 C50 1.465 . S
C41 C40 1.264 . S
C41 C43 1.339 . S
C41 H68 0.931 . S
C42 C43 1.395 . S
C42 C44 1.320 . S
C43 C41 1.339 . S
C43 C42 1.395 . S
C43 H69 0.929 . S
C44 C42 1.320 . S
C44 C45 1.405 . S
C44 H70 0.930 . S
C45 C40 1.479 . S
C45 C44 1.405 . S
C45 H71 0.931 . S
U46 O47 2.454 . S
U46 O48 2.458 . S
U46 C49 2.984 . S
U46 C50 2.847 . S
U46 C63 2.882 . S
U46 O64 2.441 . S
U46 O65 2.420 . S
U46 O66 2.455 . S
U46 O67 2.449 . S
O47 U46 2.454 . S
O47 C49 1.353 . S
O48 U46 2.458 . S
O48 C49 1.286 . S
C49 U46 2.984 . S
C49 O47 1.353 . S
C49 O48 1.286 . S
C49 C51 1.363 . S
C50 C40 1.465 . S
C50 U46 2.847 . S
C50 O64 1.249 . S
C50 O65 1.202 . S
C51 C49 1.363 . S
C51 C53 1.408 . S
C51 C56 1.342 . S
C52 C53 1.310 . S
C52 C55 1.461 . S
C52 H72 0.932 . S
C53 C51 1.408 . S
C53 C52 1.310 . S
C53 H73 0.930 . S
C54 C55 1.474 . S
C54 C56 1.285 . S
C54 H74 0.929 . S
C55 C52 1.461 . S
C55 C54 1.474 . S
C56 C51 1.342 . S
C56 C54 1.285 . S
C56 H75 0.930 . S
C57 C60 1.424 . S
C57 C62 1.245 . S
C57 C63 1.428 . S
C58 C61 1.260 . S
C58 C62 1.477 . S
C58 H76 0.932 . S
C59 C60 1.384 . S
C59 C61 1.479 . S
C59 H77 0.929 . S
C60 C57 1.424 . S
C60 C59 1.384 . S
C60 H78 0.928 . S
C61 C58 1.260 . S
C61 C59 1.479 . S
C62 C57 1.245 . S
C62 C58 1.477 . S
C62 H79 0.932 . S
C63 U46 2.882 . S
C63 C57 1.428 . S
C63 O66 1.301 . S
C63 O67 1.282 . S
O64 U46 2.441 . S
O64 C50 1.249 . S
O65 U46 2.420 . S
O65 C50 1.202 . S
O66 U46 2.455 . S
O66 C63 1.301 . S
O67 U46 2.449 . S
O67 C63 1.282 . S
H68 C41 0.931 . S
H69 C43 0.929 . S
H70 C44 0.930 . S
H71 C45 0.931 . S
H72 C52 0.932 . S
H73 C53 0.930 . S
H74 C54 0.929 . S
H75 C56 0.930 . S
H76 C58 0.932 . S
H77 C59 0.929 . S
H78 C60 0.928 . S
H79 C62 0.932 . S
C80 C81 1.264 . S
C80 C85 1.479 . S
C80 C90 1.465 . S
C81 C80 1.264 . S
C81 C83 1.339 . S
C81 H108 0.931 . S
C82 C83 1.395 . S
C82 C84 1.320 . S
C83 C81 1.339 . S
C83 C82 1.395 . S
C83 H109 0.929 . S
C84 C82 1.320 . S
C84 C85 1.405 . S
C84 H110 0.930 . S
C85 C80 1.479 . S
C85 C84 1.405 . S
C85 H111 0.931 . S
U86 O87 2.454 . S
U86 O88 2.458 . S
U86 C89 2.984 . S
U86 C90 2.847 . S
U86 C103 2.882 . S
U86 O104 2.441 . S
U86 O105 2.420 . S
U86 O106 2.455 . S
U86 O107 2.449 . S
O87 U86 2.454 . S
O87 C89 1.353 . S
O88 U86 2.458 . S
O88 C89 1.286 . S
C89 U86 2.984 . S
C89 O87 1.353 . S
C89 O88 1.286 . S
C89 C91 1.363 . S
C90 C80 1.465 . S
C90 U86 2.847 . S
C90 O104 1.249 . S
C90 O105 1.202 . S
C91 C89 1.363 . S
C91 C93 1.408 . S
C91 C96 1.342 . S
C92 C93 1.310 . S
C92 C95 1.461 . S
C92 H112 0.932 . S
C93 C91 1.408 . S
C93 C92 1.310 . S
C93 H113 0.930 . S
C94 C95 1.474 . S
C94 C96 1.285 . S
C94 H114 0.929 . S
C95 C92 1.461 . S
C95 C94 1.474 . S
C96 C91 1.342 . S
C96 C94 1.285 . S
C96 H115 0.930 . S
C97 C100 1.424 . S
C97 C102 1.245 . S
C97 C103 1.428 . S
C98 C101 1.260 . S
C98 C102 1.477 . S
C98 H116 0.932 . S
C99 C100 1.384 . S
C99 C101 1.479 . S
C99 H117 0.929 . S
C100 C97 1.424 . S
C100 C99 1.384 . S
C100 H118 0.928 . S
C101 C98 1.260 . S
C101 C99 1.479 . S
C102 C97 1.245 . S
C102 C98 1.477 . S
C102 H119 0.932 . S
C103 U86 2.882 . S
C103 C97 1.428 . S
C103 O106 1.301 . S
C103 O107 1.282 . S
O104 U86 2.441 . S
O104 C90 1.249 . S
O105 U86 2.420 . S
O105 C90 1.202 . S
O106 U86 2.455 . S
O106 C103 1.301 . S
O107 U86 2.449 . S
O107 C103 1.282 . S
H108 C81 0.931 . S
H109 C83 0.929 . S
H110 C84 0.930 . S
H111 C85 0.931 . S
H112 C92 0.932 . S
H113 C93 0.930 . S
H114 C94 0.929 . S
H115 C96 0.930 . S
H116 C98 0.932 . S
H117 C99 0.929 . S
H118 C100 0.928 . S
H119 C102 0.932 . S
C120 C121 1.264 . S
C120 C125 1.479 . S
C120 C130 1.465 . S
C121 C120 1.264 . S
C121 C123 1.339 . S
C121 H148 0.931 . S
C122 C123 1.395 . S
C122 C124 1.320 . S
C123 C121 1.339 . S
C123 C122 1.395 . S
C123 H149 0.929 . S
C124 C122 1.320 . S
C124 C125 1.405 . S
C124 H150 0.930 . S
C125 C120 1.479 . S
C125 C124 1.405 . S
C125 H151 0.931 . S
U126 O127 2.454 . S
U126 O128 2.458 . S
U126 C129 2.984 . S
U126 C130 2.847 . S
U126 C143 2.882 . S
U126 O144 2.441 . S
U126 O145 2.420 . S
U126 O146 2.455 . S
U126 O147 2.449 . S
O127 U126 2.454 . S
O127 C129 1.353 . S
O128 U126 2.458 . S
O128 C129 1.286 . S
C129 U126 2.984 . S
C129 O127 1.353 . S
C129 O128 1.286 . S
C129 C131 1.363 . S
C130 C120 1.465 . S
C130 U126 2.847 . S
C130 O144 1.249 . S
C130 O145 1.202 . S
C131 C129 1.363 . S
C131 C133 1.408 . S
C131 C136 1.342 . S
C132 C133 1.310 . S
C132 C135 1.461 . S
C132 H152 0.932 . S
C133 C131 1.408 . S
C133 C132 1.310 . S
C133 H153 0.930 . S
C134 C135 1.474 . S
C134 C136 1.285 . S
C134 H154 0.929 . S
C135 C132 1.461 . S
C135 C134 1.474 . S
C136 C131 1.342 . S
C136 C134 1.285 . S
C136 H155 0.930 . S
C137 C140 1.424 . S
C137 C142 1.245 . S
C137 C143 1.428 . S
C138 C141 1.260 . S
C138 C142 1.477 . S
C138 H156 0.932 . S
C139 C140 1.384 . S
C139 C141 1.479 . S
C139 H157 0.929 . S
C140 C137 1.424 . S
C140 C139 1.384 . S
C140 H158 0.928 . S
C141 C138 1.260 . S
C141 C139 1.479 . S
C142 C137 1.245 . S
C142 C138 1.477 . S
C142 H159 0.932 . S
C143 U126 2.882 . S
C143 C137 1.428 . S
C143 O146 1.301 . S
C143 O147 1.282 . S
O144 U126 2.441 . S
O144 C130 1.249 . S
O145 U126 2.420 . S
O145 C130 1.202 . S
O146 U126 2.455 . S
O146 C143 1.301 . S
O147 U126 2.449 . S
O147 C143 1.282 . S
H148 C121 0.931 . S
H149 C123 0.929 . S
H150 C124 0.930 . S
H151 C125 0.931 . S
H152 C132 0.932 . S
H153 C133 0.930 . S
H154 C134 0.929 . S
H155 C136 0.930 . S
H156 C138 0.932 . S
H157 C139 0.929 . S
H158 C140 0.928 . S
H159 C142 0.932 . S
C160 C161 1.264 . S
C160 C165 1.479 . S
C160 C170 1.465 . S
C161 C160 1.264 . S
C161 C163 1.339 . S
C161 H188 0.931 . S
C162 C163 1.395 . S
C162 C164 1.320 . S
C163 C161 1.339 . S
C163 C162 1.395 . S
C163 H189 0.929 . S
C164 C162 1.320 . S
C164 C165 1.405 . S
C164 H190 0.930 . S
C165 C160 1.479 . S
C165 C164 1.405 . S
C165 H191 0.931 . S
U166 O167 2.454 . S
U166 O168 2.458 . S
U166 C169 2.984 . S
U166 C170 2.847 . S
U166 C183 2.882 . S
U166 O184 2.441 . S
U166 O185 2.420 . S
U166 O186 2.455 . S
U166 O187 2.449 . S
O167 U166 2.454 . S
O167 C169 1.353 . S
O168 U166 2.458 . S
O168 C169 1.286 . S
C169 U166 2.984 . S
C169 O167 1.353 . S
C169 O168 1.286 . S
C169 C171 1.363 . S
C170 C160 1.465 . S
C170 U166 2.847 . S
C170 O184 1.249 . S
C170 O185 1.202 . S
C171 C169 1.363 . S
C171 C173 1.408 . S
C171 C176 1.342 . S
C172 C173 1.310 . S
C172 C175 1.461 . S
C172 H192 0.932 . S
C173 C171 1.408 . S
C173 C172 1.310 . S
C173 H193 0.930 . S
C174 C175 1.474 . S
C174 C176 1.285 . S
C174 H194 0.929 . S
C175 C172 1.461 . S
C175 C174 1.474 . S
C176 C171 1.342 . S
C176 C174 1.285 . S
C176 H195 0.930 . S
C177 C180 1.424 . S
C177 C182 1.245 . S
C177 C183 1.428 . S
C178 C181 1.260 . S
C178 C182 1.477 . S
C178 H196 0.932 . S
C179 C180 1.384 . S
C179 C181 1.479 . S
C179 H197 0.929 . S
C180 C177 1.424 . S
C180 C179 1.384 . S
C180 H198 0.928 . S
C181 C178 1.260 . S
C181 C179 1.479 . S
C182 C177 1.245 . S
C182 C178 1.477 . S
C182 H199 0.932 . S
C183 U166 2.882 . S
C183 C177 1.428 . S
C183 O186 1.301 . S
C183 O187 1.282 . S
O184 U166 2.441 . S
O184 C170 1.249 . S
O185 U166 2.420 . S
O185 C170 1.202 . S
O186 U166 2.455 . S
O186 C183 1.301 . S
O187 U166 2.449 . S
O187 C183 1.282 . S
H188 C161 0.931 . S
H189 C163 0.929 . S
H190 C164 0.930 . S
H191 C165 0.931 . S
H192 C172 0.932 . S
H193 C173 0.930 . S
H194 C174 0.929 . S
H195 C176 0.930 . S
H196 C178 0.932 . S
H197 C179 0.929 . S
H198 C180 0.928 . S
H199 C182 0.932 . S
C200 C201 1.264 . S
C200 C205 1.479 . S
C200 C210 1.465 . S
C201 C200 1.264 . S
C201 C203 1.339 . S
C201 H228 0.931 . S
C202 C203 1.395 . S
C202 C204 1.320 . S
C203 C201 1.339 . S
C203 C202 1.395 . S
C203 H229 0.929 . S
C204 C202 1.320 . S
C204 C205 1.405 . S
C204 H230 0.930 . S
C205 C200 1.479 . S
C205 C204 1.405 . S
C205 H231 0.931 . S
U206 O207 2.454 . S
U206 O208 2.458 . S
U206 C209 2.984 . S
U206 C210 2.847 . S
U206 C223 2.882 . S
U206 O224 2.441 . S
U206 O225 2.420 . S
U206 O226 2.455 . S
U206 O227 2.449 . S
O207 U206 2.454 . S
O207 C209 1.353 . S
O208 U206 2.458 . S
O208 C209 1.286 . S
C209 U206 2.984 . S
C209 O207 1.353 . S
C209 O208 1.286 . S
C209 C211 1.363 . S
C210 C200 1.465 . S
C210 U206 2.847 . S
C210 O224 1.249 . S
C210 O225 1.202 . S
C211 C209 1.363 . S
C211 C213 1.408 . S
C211 C216 1.342 . S
C212 C213 1.310 . S
C212 C215 1.461 . S
C212 H232 0.932 . S
C213 C211 1.408 . S
C213 C212 1.310 . S
C213 H233 0.930 . S
C214 C215 1.474 . S
C214 C216 1.285 . S
C214 H234 0.929 . S
C215 C212 1.461 . S
C215 C214 1.474 . S
C216 C211 1.342 . S
C216 C214 1.285 . S
C216 H235 0.930 . S
C217 C220 1.424 . S
C217 C222 1.245 . S
C217 C223 1.428 . S
C218 C221 1.260 . S
C218 C222 1.477 . S
C218 H236 0.932 . S
C219 C220 1.384 . S
C219 C221 1.479 . S
C219 H237 0.929 . S
C220 C217 1.424 . S
C220 C219 1.384 . S
C220 H238 0.928 . S
C221 C218 1.260 . S
C221 C219 1.479 . S
C222 C217 1.245 . S
C222 C218 1.477 . S
C222 H239 0.932 . S
C223 U206 2.882 . S
C223 C217 1.428 . S
C223 O226 1.301 . S
C223 O227 1.282 . S
O224 U206 2.441 . S
O224 C210 1.249 . S
O225 U206 2.420 . S
O225 C210 1.202 . S
O226 U206 2.455 . S
O226 C223 1.301 . S
O227 U206 2.449 . S
O227 C223 1.282 . S
H228 C201 0.931 . S
H229 C203 0.929 . S
H230 C204 0.930 . S
H231 C205 0.931 . S
H232 C212 0.932 . S
H233 C213 0.930 . S
H234 C214 0.929 . S
H235 C216 0.930 . S
H236 C218 0.932 . S
H237 C219 0.929 . S
H238 C220 0.928 . S
H239 C222 0.932 . S
C240 C241 1.264 . S
C240 C245 1.479 . S
C240 C250 1.465 . S
C241 C240 1.264 . S
C241 C243 1.339 . S
C241 H268 0.931 . S
C242 C243 1.395 . S
C242 C244 1.320 . S
C243 C241 1.339 . S
C243 C242 1.395 . S
C243 H269 0.929 . S
C244 C242 1.320 . S
C244 C245 1.405 . S
C244 H270 0.930 . S
C245 C240 1.479 . S
C245 C244 1.405 . S
C245 H271 0.931 . S
U246 O247 2.454 . S
U246 O248 2.458 . S
U246 C249 2.984 . S
U246 C250 2.847 . S
U246 C263 2.882 . S
U246 O264 2.441 . S
U246 O265 2.420 . S
U246 O266 2.455 . S
U246 O267 2.449 . S
O247 U246 2.454 . S
O247 C249 1.353 . S
O248 U246 2.458 . S
O248 C249 1.286 . S
C249 U246 2.984 . S
C249 O247 1.353 . S
C249 O248 1.286 . S
C249 C251 1.363 . S
C250 C240 1.465 . S
C250 U246 2.847 . S
C250 O264 1.249 . S
C250 O265 1.202 . S
C251 C249 1.363 . S
C251 C253 1.408 . S
C251 C256 1.342 . S
C252 C253 1.310 . S
C252 C255 1.461 . S
C252 H272 0.932 . S
C253 C251 1.408 . S
C253 C252 1.310 . S
C253 H273 0.930 . S
C254 C255 1.474 . S
C254 C256 1.285 . S
C254 H274 0.929 . S
C255 C252 1.461 . S
C255 C254 1.474 . S
C256 C251 1.342 . S
C256 C254 1.285 . S
C256 H275 0.930 . S
C257 C260 1.424 . S
C257 C262 1.245 . S
C257 C263 1.428 . S
C258 C261 1.260 . S
C258 C262 1.477 . S
C258 H276 0.932 . S
C259 C260 1.384 . S
C259 C261 1.479 . S
C259 H277 0.929 . S
C260 C257 1.424 . S
C260 C259 1.384 . S
C260 H278 0.928 . S
C261 C258 1.260 . S
C261 C259 1.479 . S
C262 C257 1.245 . S
C262 C258 1.477 . S
C262 H279 0.932 . S
C263 U246 2.882 . S
C263 C257 1.428 . S
C263 O266 1.301 . S
C263 O267 1.282 . S
O264 U246 2.441 . S
O264 C250 1.249 . S
O265 U246 2.420 . S
O265 C250 1.202 . S
O266 U246 2.455 . S
O266 C263 1.301 . S
O267 U246 2.449 . S
O267 C263 1.282 . S
H268 C241 0.931 . S
H269 C243 0.929 . S
H270 C244 0.930 . S
H271 C245 0.931 . S
H272 C252 0.932 . S
H273 C253 0.930 . S
H274 C254 0.929 . S
H275 C256 0.930 . S
H276 C258 0.932 . S
H277 C259 0.929 . S
H278 C260 0.928 . S
H279 C262 0.932 . S
C280 C281 1.264 . S
C280 C285 1.479 . S
C280 C290 1.465 . S
C281 C280 1.264 . S
C281 C283 1.339 . S
C281 H308 0.931 . S
C282 C283 1.395 . S
C282 C284 1.320 . S
C283 C281 1.339 . S
C283 C282 1.395 . S
C283 H309 0.929 . S
C284 C282 1.320 . S
C284 C285 1.405 . S
C284 H310 0.930 . S
C285 C280 1.479 . S
C285 C284 1.405 . S
C285 H311 0.931 . S
U286 O287 2.454 . S
U286 O288 2.458 . S
U286 C289 2.984 . S
U286 C290 2.847 . S
U286 C303 2.882 . S
U286 O304 2.441 . S
U286 O305 2.420 . S
U286 O306 2.455 . S
U286 O307 2.449 . S
O287 U286 2.454 . S
O287 C289 1.353 . S
O288 U286 2.458 . S
O288 C289 1.286 . S
C289 U286 2.984 . S
C289 O287 1.353 . S
C289 O288 1.286 . S
C289 C291 1.363 . S
C290 C280 1.465 . S
C290 U286 2.847 . S
C290 O304 1.249 . S
C290 O305 1.202 . S
C291 C289 1.363 . S
C291 C293 1.408 . S
C291 C296 1.342 . S
C292 C293 1.310 . S
C292 C295 1.461 . S
C292 H312 0.932 . S
C293 C291 1.408 . S
C293 C292 1.310 . S
C293 H313 0.930 . S
C294 C295 1.474 . S
C294 C296 1.285 . S
C294 H314 0.929 . S
C295 C292 1.461 . S
C295 C294 1.474 . S
C296 C291 1.342 . S
C296 C294 1.285 . S
C296 H315 0.930 . S
C297 C300 1.424 . S
C297 C302 1.245 . S
C297 C303 1.428 . S
C298 C301 1.260 . S
C298 C302 1.477 . S
C298 H316 0.932 . S
C299 C300 1.384 . S
C299 C301 1.479 . S
C299 H317 0.929 . S
C300 C297 1.424 . S
C300 C299 1.384 . S
C300 H318 0.928 . S
C301 C298 1.260 . S
C301 C299 1.479 . S
C302 C297 1.245 . S
C302 C298 1.477 . S
C302 H319 0.932 . S
C303 U286 2.882 . S
C303 C297 1.428 . S
C303 O306 1.301 . S
C303 O307 1.282 . S
O304 U286 2.441 . S
O304 C290 1.249 . S
O305 U286 2.420 . S
O305 C290 1.202 . S
O306 U286 2.455 . S
O306 C303 1.301 . S
O307 U286 2.449 . S
O307 C303 1.282 . S
H308 C281 0.931 . S
H309 C283 0.929 . S
H310 C284 0.930 . S
H311 C285 0.931 . S
H312 C292 0.932 . S
H313 C293 0.930 . S
H314 C294 0.929 . S
H315 C296 0.930 . S
H316 C298 0.932 . S
H317 C299 0.929 . S
H318 C300 0.928 . S
H319 C302 0.932 . S
C320 C321 1.264 . S
C320 C325 1.479 . S
C320 C330 1.465 . S
C321 C320 1.264 . S
C321 C323 1.339 . S
C321 H348 0.931 . S
C322 C323 1.395 . S
C322 C324 1.320 . S
C323 C321 1.339 . S
C323 C322 1.395 . S
C323 H349 0.929 . S
C324 C322 1.320 . S
C324 C325 1.405 . S
C324 H350 0.930 . S
C325 C320 1.479 . S
C325 C324 1.405 . S
C325 H351 0.931 . S
U326 O327 2.454 . S
U326 O328 2.458 . S
U326 C329 2.984 . S
U326 C330 2.847 . S
U326 C343 2.882 . S
U326 O344 2.441 . S
U326 O345 2.420 . S
U326 O346 2.455 . S
U326 O347 2.449 . S
O327 U326 2.454 . S
O327 C329 1.353 . S
O328 U326 2.458 . S
O328 C329 1.286 . S
C329 U326 2.984 . S
C329 O327 1.353 . S
C329 O328 1.286 . S
C329 C331 1.363 . S
C330 C320 1.465 . S
C330 U326 2.847 . S
C330 O344 1.249 . S
C330 O345 1.202 . S
C331 C329 1.363 . S
C331 C333 1.408 . S
C331 C336 1.342 . S
C332 C333 1.310 . S
C332 C335 1.461 . S
C332 H352 0.932 . S
C333 C331 1.408 . S
C333 C332 1.310 . S
C333 H353 0.930 . S
C334 C335 1.474 . S
C334 C336 1.285 . S
C334 H354 0.929 . S
C335 C332 1.461 . S
C335 C334 1.474 . S
C336 C331 1.342 . S
C336 C334 1.285 . S
C336 H355 0.930 . S
C337 C340 1.424 . S
C337 C342 1.245 . S
C337 C343 1.428 . S
C338 C341 1.260 . S
C338 C342 1.477 . S
C338 H356 0.932 . S
C339 C340 1.384 . S
C339 C341 1.479 . S
C339 H357 0.929 . S
C340 C337 1.424 . S
C340 C339 1.384 . S
C340 H358 0.928 . S
C341 C338 1.260 . S
C341 C339 1.479 . S
C342 C337 1.245 . S
C342 C338 1.477 . S
C342 H359 0.932 . S
C343 U326 2.882 . S
C343 C337 1.428 . S
C343 O346 1.301 . S
C343 O347 1.282 . S
O344 U326 2.441 . S
O344 C330 1.249 . S
O345 U326 2.420 . S
O345 C330 1.202 . S
O346 U326 2.455 . S
O346 C343 1.301 . S
O347 U326 2.449 . S
O347 C343 1.282 . S
H348 C321 0.931 . S
H349 C323 0.929 . S
H350 C324 0.930 . S
H351 C325 0.931 . S
H352 C332 0.932 . S
H353 C333 0.930 . S
H354 C334 0.929 . S
H355 C336 0.930 . S
H356 C338 0.932 . S
H357 C339 0.929 . S
H358 C340 0.928 . S
H359 C342 0.932 . S
C360 C361 1.264 . S
C360 C365 1.479 . S
C360 C370 1.465 . S
C361 C360 1.264 . S
C361 C363 1.339 . S
C361 H388 0.931 . S
C362 C363 1.395 . S
C362 C364 1.320 . S
C363 C361 1.339 . S
C363 C362 1.395 . S
C363 H389 0.929 . S
C364 C362 1.320 . S
C364 C365 1.405 . S
C364 H390 0.930 . S
C365 C360 1.479 . S
C365 C364 1.405 . S
C365 H391 0.931 . S
U366 O367 2.454 . S
U366 O368 2.458 . S
U366 C369 2.984 . S
U366 C370 2.847 . S
U366 C383 2.882 . S
U366 O384 2.441 . S
U366 O385 2.420 . S
U366 O386 2.455 . S
U366 O387 2.449 . S
O367 U366 2.454 . S
O367 C369 1.353 . S
O368 U366 2.458 . S
O368 C369 1.286 . S
C369 U366 2.984 . S
C369 O367 1.353 . S
C369 O368 1.286 . S
C369 C371 1.363 . S
C370 C360 1.465 . S
C370 U366 2.847 . S
C370 O384 1.249 . S
C370 O385 1.202 . S
C371 C369 1.363 . S
C371 C373 1.408 . S
C371 C376 1.342 . S
C372 C373 1.310 . S
C372 C375 1.461 . S
C372 H392 0.932 . S
C373 C371 1.408 . S
C373 C372 1.310 . S
C373 H393 0.930 . S
C374 C375 1.474 . S
C374 C376 1.285 . S
C374 H394 0.929 . S
C375 C372 1.461 . S
C375 C374 1.474 . S
C376 C371 1.342 . S
C376 C374 1.285 . S
C376 H395 0.930 . S
C377 C380 1.424 . S
C377 C382 1.245 . S
C377 C383 1.428 . S
C378 C381 1.260 . S
C378 C382 1.477 . S
C378 H396 0.932 . S
C379 C380 1.384 . S
C379 C381 1.479 . S
C379 H397 0.929 . S
C380 C377 1.424 . S
C380 C379 1.384 . S
C380 H398 0.928 . S
C381 C378 1.260 . S
C381 C379 1.479 . S
C382 C377 1.245 . S
C382 C378 1.477 . S
C382 H399 0.932 . S
C383 U366 2.882 . S
C383 C377 1.428 . S
C383 O386 1.301 . S
C383 O387 1.282 . S
O384 U366 2.441 . S
O384 C370 1.249 . S
O385 U366 2.420 . S
O385 C370 1.202 . S
O386 U366 2.455 . S
O386 C383 1.301 . S
O387 U366 2.449 . S
O387 C383 1.282 . S
H388 C361 0.931 . S
H389 C363 0.929 . S
H390 C364 0.930 . S
H391 C365 0.931 . S
H392 C372 0.932 . S
H393 C373 0.930 . S
H394 C374 0.929 . S
H395 C376 0.930 . S
H396 C378 0.932 . S
H397 C379 0.929 . S
H398 C380 0.928 . S
H399 C382 0.932 . S
C400 C401 1.264 . S
C400 C405 1.479 . S
C400 C410 1.465 . S
C401 C400 1.264 . S
C401 C403 1.339 . S
C401 H428 0.931 . S
C402 C403 1.395 . S
C402 C404 1.320 . S
C403 C401 1.339 . S
C403 C402 1.395 . S
C403 H429 0.929 . S
C404 C402 1.320 . S
C404 C405 1.405 . S
C404 H430 0.930 . S
C405 C400 1.479 . S
C405 C404 1.405 . S
C405 H431 0.931 . S
U406 O407 2.454 . S
U406 O408 2.458 . S
U406 C409 2.984 . S
U406 C410 2.847 . S
U406 C423 2.882 . S
U406 O424 2.441 . S
U406 O425 2.420 . S
U406 O426 2.455 . S
U406 O427 2.449 . S
O407 U406 2.454 . S
O407 C409 1.353 . S
O408 U406 2.458 . S
O408 C409 1.286 . S
C409 U406 2.984 . S
C409 O407 1.353 . S
C409 O408 1.286 . S
C409 C411 1.363 . S
C410 C400 1.465 . S
C410 U406 2.847 . S
C410 O424 1.249 . S
C410 O425 1.202 . S
C411 C409 1.363 . S
C411 C413 1.408 . S
C411 C416 1.342 . S
C412 C413 1.310 . S
C412 C415 1.461 . S
C412 H432 0.932 . S
C413 C411 1.408 . S
C413 C412 1.310 . S
C413 H433 0.930 . S
C414 C415 1.474 . S
C414 C416 1.285 . S
C414 H434 0.929 . S
C415 C412 1.461 . S
C415 C414 1.474 . S
C416 C411 1.342 . S
C416 C414 1.285 . S
C416 H435 0.930 . S
C417 C420 1.424 . S
C417 C422 1.245 . S
C417 C423 1.428 . S
C418 C421 1.260 . S
C418 C422 1.477 . S
C418 H436 0.932 . S
C419 C420 1.384 . S
C419 C421 1.479 . S
C419 H437 0.929 . S
C420 C417 1.424 . S
C420 C419 1.384 . S
C420 H438 0.928 . S
C421 C418 1.260 . S
C421 C419 1.479 . S
C422 C417 1.245 . S
C422 C418 1.477 . S
C422 H439 0.932 . S
C423 U406 2.882 . S
C423 C417 1.428 . S
C423 O426 1.301 . S
C423 O427 1.282 . S
O424 U406 2.441 . S
O424 C410 1.249 . S
O425 U406 2.420 . S
O425 C410 1.202 . S
O426 U406 2.455 . S
O426 C423 1.301 . S
O427 U406 2.449 . S
O427 C423 1.282 . S
H428 C401 0.931 . S
H429 C403 0.929 . S
H430 C404 0.930 . S
H431 C405 0.931 . S
H432 C412 0.932 . S
H433 C413 0.930 . S
H434 C414 0.929 . S
H435 C416 0.930 . S
H436 C418 0.932 . S
H437 C419 0.929 . S
H438 C420 0.928 . S
H439 C422 0.932 . S
C440 C441 1.264 . S
C440 C445 1.479 . S
C440 C450 1.465 . S
C441 C440 1.264 . S
C441 C443 1.339 . S
C441 H468 0.931 . S
C442 C443 1.395 . S
C442 C444 1.320 . S
C443 C441 1.339 . S
C443 C442 1.395 . S
C443 H469 0.929 . S
C444 C442 1.320 . S
C444 C445 1.405 . S
C444 H470 0.930 . S
C445 C440 1.479 . S
C445 C444 1.405 . S
C445 H471 0.931 . S
U446 O447 2.454 . S
U446 O448 2.458 . S
U446 C449 2.984 . S
U446 C450 2.847 . S
U446 C463 2.882 . S
U446 O464 2.441 . S
U446 O465 2.420 . S
U446 O466 2.455 . S
U446 O467 2.449 . S
O447 U446 2.454 . S
O447 C449 1.353 . S
O448 U446 2.458 . S
O448 C449 1.286 . S
C449 U446 2.984 . S
C449 O447 1.353 . S
C449 O448 1.286 . S
C449 C451 1.363 . S
C450 C440 1.465 . S
C450 U446 2.847 . S
C450 O464 1.249 . S
C450 O465 1.202 . S
C451 C449 1.363 . S
C451 C453 1.408 . S
C451 C456 1.342 . S
C452 C453 1.310 . S
C452 C455 1.461 . S
C452 H472 0.932 . S
C453 C451 1.408 . S
C453 C452 1.310 . S
C453 H473 0.930 . S
C454 C455 1.474 . S
C454 C456 1.285 . S
C454 H474 0.929 . S
C455 C452 1.461 . S
C455 C454 1.474 . S
C456 C451 1.342 . S
C456 C454 1.285 . S
C456 H475 0.930 . S
C457 C460 1.424 . S
C457 C462 1.245 . S
C457 C463 1.428 . S
C458 C461 1.260 . S
C458 C462 1.477 . S
C458 H476 0.932 . S
C459 C460 1.384 . S
C459 C461 1.479 . S
C459 H477 0.929 . S
C460 C457 1.424 . S
C460 C459 1.384 . S
C460 H478 0.928 . S
C461 C458 1.260 . S
C461 C459 1.479 . S
C462 C457 1.245 . S
C462 C458 1.477 . S
C462 H479 0.932 . S
C463 U446 2.882 . S
C463 C457 1.428 . S
C463 O466 1.301 . S
C463 O467 1.282 . S
O464 U446 2.441 . S
O464 C450 1.249 . S
O465 U446 2.420 . S
O465 C450 1.202 . S
O466 U446 2.455 . S
O466 C463 1.301 . S
O467 U446 2.449 . S
O467 C463 1.282 . S
H468 C441 0.931 . S
H469 C443 0.929 . S
H470 C444 0.930 . S
H471 C445 0.931 . S
H472 C452 0.932 . S
H473 C453 0.930 . S
H474 C454 0.929 . S
H475 C456 0.930 . S
H476 C458 0.932 . S
H477 C459 0.929 . S
H478 C460 0.928 . S
H479 C462 0.932 . S
C480 C481 1.387 . S
C480 H484 0.950 . S
C480 C489 1.390 1_556 S
C481 C480 1.387 . S
C481 C483 1.387 . S
H482 C489 0.950 . S
C483 C481 1.387 . S
C483 C485 1.390 1_556 S
C483 H487 0.950 . S
H484 C480 0.950 . S
C485 C483 1.390 1_554 S
C485 C486 1.387 . S
C485 H488 0.950 . S
C486 C485 1.387 . S
C486 C489 1.387 . S
H487 C483 0.950 . S
H488 C485 0.950 . S
C489 C480 1.390 1_554 S
C489 H482 0.950 . S
C489 C486 1.387 . S
C490 C491 1.387 . S
C490 H494 0.950 . S
C490 C499 1.390 . S
C491 C490 1.387 . S
C491 C493 1.387 . S
H492 C499 0.950 . S
C493 C491 1.387 . S
C493 C495 1.390 . S
C493 H497 0.950 . S
H494 C490 0.950 . S
C495 C493 1.390 . S
C495 C496 1.387 . S
C495 H498 0.950 . S
C496 C495 1.387 . S
C496 C499 1.387 . S
H497 C493 0.950 . S
H498 C495 0.950 . S
C499 C490 1.390 . S
C499 H492 0.950 . S
C499 C496 1.387 . S
C500 C501 1.387 . S
C500 H504 0.950 . S
C500 C509 1.390 . S
C501 C500 1.387 . S
C501 C503 1.387 . S
H502 C509 0.950 . S
C503 C501 1.387 . S
C503 C505 1.390 . S
C503 H507 0.950 . S
H504 C500 0.950 . S
C505 C503 1.390 . S
C505 C506 1.387 . S
C505 H508 0.950 . S
C506 C505 1.387 . S
C506 C509 1.387 . S
H507 C503 0.950 . S
H508 C505 0.950 . S
C509 C500 1.390 . S
C509 H502 0.950 . S
C509 C506 1.387 . S
C510 C511 1.387 . S
C510 H514 0.950 . S
C510 C519 1.390 1_556 S
C511 C510 1.387 . S
C511 C513 1.387 . S
H512 C519 0.950 . S
C513 C511 1.387 . S
C513 C515 1.390 1_556 S
C513 H517 0.950 . S
H514 C510 0.950 . S
C515 C513 1.390 1_554 S
C515 C516 1.387 . S
C515 H518 0.950 . S
C516 C515 1.387 . S
C516 C519 1.387 . S
H517 C513 0.950 . S
H518 C515 0.950 . S
C519 C510 1.390 1_554 S
C519 H512 0.950 . S
C519 C516 1.387 . S
C520 C521 1.387 . S
C520 H524 0.950 . S
C520 C529 1.390 . S
C521 C520 1.387 . S
C521 C523 1.387 . S
H522 C529 0.950 . S
C523 C521 1.387 . S
C523 C525 1.390 . S
C523 H527 0.950 . S
H524 C520 0.950 . S
C525 C523 1.390 . S
C525 C526 1.387 . S
C525 H528 0.950 . S
C526 C525 1.387 . S
C526 C529 1.387 . S
H527 C523 0.950 . S
H528 C525 0.950 . S
C529 C520 1.390 . S
C529 H522 0.950 . S
C529 C526 1.387 . S
C530 C531 1.387 . S
C530 H534 0.950 . S
C530 C539 1.390 . S
C531 C530 1.387 . S
C531 C533 1.387 . S
H532 C539 0.950 . S
C533 C531 1.387 . S
C533 C535 1.390 . S
C533 H537 0.950 . S
H534 C530 0.950 . S
C535 C533 1.390 . S
C535 C536 1.387 . S
C535 H538 0.950 . S
C536 C535 1.387 . S
C536 C539 1.387 . S
H537 C533 0.950 . S
H538 C535 0.950 . S
C539 C530 1.390 . S
C539 H532 0.950 . S
C539 C536 1.387 . S
C540 C541 1.387 . S
C540 H544 0.950 . S
C540 C549 1.390 . S
C541 C540 1.387 . S
C541 C543 1.387 . S
H542 C549 0.950 . S
C543 C541 1.387 . S
C543 C545 1.390 . S
C543 H547 0.950 . S
H544 C540 0.950 . S
C545 C543 1.390 . S
C545 C546 1.387 . S
C545 H548 0.950 . S
C546 C545 1.387 . S
C546 C549 1.387 . S
H547 C543 0.950 . S
H548 C545 0.950 . S
C549 C540 1.390 . S
C549 H542 0.950 . S
C549 C546 1.387 . S
C550 C551 1.387 . S
C550 H554 0.950 . S
C550 C559 1.390 . S
C551 C550 1.387 . S
C551 C553 1.387 . S
H552 C559 0.950 . S
C553 C551 1.387 . S
C553 C555 1.390 . S
C553 H557 0.950 . S
H554 C550 0.950 . S
C555 C553 1.390 . S
C555 C556 1.387 . S
C555 H558 0.950 . S
C556 C555 1.387 . S
C556 C559 1.387 . S
H557 C553 0.950 . S
H558 C555 0.950 . S
C559 C550 1.390 . S
C559 H552 0.950 . S
C559 C556 1.387 . S
C560 C561 1.387 . S
C560 H564 0.950 . S
C560 C569 1.390 . S
C561 C560 1.387 . S
C561 C563 1.387 . S
H562 C569 0.950 . S
C563 C561 1.387 . S
C563 C565 1.390 . S
C563 H567 0.950 . S
H564 C560 0.950 . S
C565 C563 1.390 . S
C565 C566 1.387 . S
C565 H568 0.950 . S
C566 C565 1.387 . S
C566 C569 1.387 . S
H567 C563 0.950 . S
H568 C565 0.950 . S
C569 C560 1.390 . S
C569 H562 0.950 . S
C569 C566 1.387 . S
C570 C571 1.387 . S
C570 H574 0.950 . S
C570 C579 1.390 . S
C571 C570 1.387 . S
C571 C573 1.387 . S
H572 C579 0.950 . S
C573 C571 1.387 . S
C573 C575 1.390 . S
C573 H577 0.950 . S
H574 C570 0.950 . S
C575 C573 1.390 . S
C575 C576 1.387 . S
C575 H578 0.950 . S
C576 C575 1.387 . S
C576 C579 1.387 . S
H577 C573 0.950 . S
H578 C575 0.950 . S
C579 C570 1.390 . S
C579 H572 0.950 . S
C579 C576 1.387 . S
C580 C581 1.387 . S
C580 H584 0.950 . S
C580 C589 1.390 . S
C581 C580 1.387 . S
C581 C583 1.387 . S
H582 C589 0.950 . S
C583 C581 1.387 . S
C583 C585 1.390 . S
C583 H587 0.950 . S
H584 C580 0.950 . S
C585 C583 1.390 . S
C585 C586 1.387 . S
C585 H588 0.950 . S
C586 C585 1.387 . S
C586 C589 1.387 . S
H587 C583 0.950 . S
H588 C585 0.950 . S
C589 C580 1.390 . S
C589 H582 0.950 . S
C589 C586 1.387 . S
C590 C591 1.387 . S
C590 H594 0.950 . S
C590 C599 1.390 . S
C591 C590 1.387 . S
C591 C593 1.387 . S
H592 C599 0.950 . S
C593 C591 1.387 . S
C593 C595 1.390 . S
C593 H597 0.950 . S
H594 C590 0.950 . S
C595 C593 1.390 . S
C595 C596 1.387 . S
C595 H598 0.950 . S
C596 C595 1.387 . S
C596 C599 1.387 . S
H597 C593 0.950 . S
H598 C595 0.950 . S
C599 C590 1.390 . S
C599 H592 0.950 . S
C599 C596 1.387 . S
C600 C601 1.387 . S
C600 H604 0.950 . S
C600 C609 1.390 1_455 S
C601 C600 1.387 . S
C601 C603 1.387 . S
H602 C609 0.950 . S
C603 C601 1.387 . S
C603 C605 1.390 1_455 S
C603 H607 0.950 . S
H604 C600 0.950 . S
C605 C603 1.390 1_655 S
C605 C606 1.387 . S
C605 H608 0.950 . S
C606 C605 1.387 . S
C606 C609 1.387 . S
H607 C603 0.950 . S
H608 C605 0.950 . S
C609 C600 1.390 1_655 S
C609 H602 0.950 . S
C609 C606 1.387 . S
C610 C611 1.387 . S
C610 H614 0.950 . S
C610 C619 1.390 1_545 S
C611 C610 1.387 . S
C611 C613 1.387 . S
H612 C619 0.950 . S
C613 C611 1.387 . S
C613 C615 1.390 1_545 S
C613 H617 0.950 . S
H614 C610 0.950 . S
C615 C613 1.390 1_565 S
C615 C616 1.387 . S
C615 H618 0.950 . S
C616 C615 1.387 . S
C616 C619 1.387 . S
H617 C613 0.950 . S
H618 C615 0.950 . S
C619 C610 1.390 1_565 S
C619 H612 0.950 . S
C619 C616 1.387 . S
C620 C621 1.387 . S
C620 H624 0.950 . S
C620 C629 1.390 . S
C621 C620 1.387 . S
C621 C623 1.387 . S
H622 C629 0.950 . S
C623 C621 1.387 . S
C623 C625 1.390 . S
C623 H627 0.950 . S
H624 C620 0.950 . S
C625 C623 1.390 . S
C625 C626 1.387 . S
C625 H628 0.950 . S
C626 C625 1.387 . S
C626 C629 1.387 . S
H627 C623 0.950 . S
H628 C625 0.950 . S
C629 C620 1.390 . S
C629 H622 0.950 . S
C629 C626 1.387 . S
C630 C631 1.387 . S
C630 H634 0.950 . S
C630 C639 1.390 1_655 S
C631 C630 1.387 . S
C631 C633 1.387 . S
H632 C639 0.950 . S
C633 C631 1.387 . S
C633 C635 1.390 1_655 S
C633 H637 0.950 . S
H634 C630 0.950 . S
C635 C633 1.390 1_455 S
C635 C636 1.387 . S
C635 H638 0.950 . S
C636 C635 1.387 . S
C636 C639 1.387 . S
H637 C633 0.950 . S
H638 C635 0.950 . S
C639 C630 1.390 1_455 S
C639 H632 0.950 . S
C639 C636 1.387 . S
C640 C641 1.387 . S
C640 H644 0.950 . S
C640 C649 1.390 1_545 S
C641 C640 1.387 . S
C641 C643 1.387 . S
H642 C649 0.950 . S
C643 C641 1.387 . S
C643 C645 1.390 1_545 S
C643 H647 0.950 . S
H644 C640 0.950 . S
C645 C643 1.390 1_565 S
C645 C646 1.387 . S
C645 H648 0.950 . S
C646 C645 1.387 . S
C646 C649 1.387 . S
H647 C643 0.950 . S
H648 C645 0.950 . S
C649 C640 1.390 1_565 S
C649 H642 0.950 . S
C649 C646 1.387 . S
C650 C651 1.387 . S
C650 H654 0.950 . S
C650 C659 1.390 . S
C651 C650 1.387 . S
C651 C653 1.387 . S
H652 C659 0.950 . S
C653 C651 1.387 . S
C653 C655 1.390 . S
C653 H657 0.950 . S
H654 C650 0.950 . S
C655 C653 1.390 . S
C655 C656 1.387 . S
C655 H658 0.950 . S
C656 C655 1.387 . S
C656 C659 1.387 . S
H657 C653 0.950 . S
H658 C655 0.950 . S
C659 C650 1.390 . S
C659 H652 0.950 . S
C659 C656 1.387 . S
C481 C415 2.581 . S
C486 C15 2.581 . S
C491 C55 2.581 . S
C496 C455 2.580 . S
C501 C255 2.580 . S
C506 C95 2.580 . S
C511 C295 2.581 . S
C516 C135 2.581 . S
C521 C335 2.581 . S
C526 C175 2.581 . S
C531 C215 2.579 . S
C536 C375 2.580 . S
C541 C341 2.547 . S
C546 C21 2.547 . S
C551 C381 2.547 . S
C556 C61 2.547 . S
C561 C101 2.548 . S
C566 C421 2.547 . S
C571 C461 2.548 . S
C576 C141 2.549 . S
C581 C261 2.547 . S
C586 C181 2.547 . S
C591 C301 2.549 . S
C596 C221 2.549 . S
C601 C2 2.354 . S
C606 C442 2.354 . S
C611 C42 2.356 . S
C616 C242 2.356 . S
C621 C82 2.356 . S
C626 C282 2.356 . S
C631 C122 2.356 . S
C636 C322 2.356 . S
C641 C362 2.356 . S
C646 C162 2.356 . S
C651 C202 2.354 . S
C656 C402 2.354 . S
