# Generated by pormake.
# Topology utc, (3)-cn, num edge types: 1
# Building blocks:
#     Node 0, Type 0, BuildingBlock: OLANEW_clean_sbu_2, # of connection points: 3
#     Node 1, Type 0, BuildingBlock: OLANEW_clean_sbu_2, # of connection points: 3
#     Node 2, Type 0, BuildingBlock: OLANEW_clean_sbu_2, # of connection points: 3
#     Node 3, Type 0, BuildingBlock: OLANEW_clean_sbu_2, # of connection points: 3
#     Node 4, Type 0, BuildingBlock: OLANEW_clean_sbu_2, # of connection points: 3
#     Node 5, Type 0, BuildingBlock: OLANEW_clean_sbu_2, # of connection points: 3
#     Node 6, Type 0, BuildingBlock: OLANEW_clean_sbu_2, # of connection points: 3
#     Node 7, Type 0, BuildingBlock: OLANEW_clean_sbu_2, # of connection points: 3
#     Node 8, Type 0, BuildingBlock: OLANEW_clean_sbu_2, # of connection points: 3
#     Node 9, Type 0, BuildingBlock: OLANEW_clean_sbu_2, # of connection points: 3
#     Node 10, Type 0, BuildingBlock: OLANEW_clean_sbu_2, # of connection points: 3
#     Node 11, Type 0, BuildingBlock: OLANEW_clean_sbu_2, # of connection points: 3
#     Node 12, Type 0, BuildingBlock: OLANEW_clean_sbu_2, # of connection points: 3
#     Node 13, Type 0, BuildingBlock: OLANEW_clean_sbu_2, # of connection points: 3
#     Node 14, Type 0, BuildingBlock: OLANEW_clean_sbu_2, # of connection points: 3
#     Node 15, Type 0, BuildingBlock: OLANEW_clean_sbu_2, # of connection points: 3
#     Node 16, Type 0, BuildingBlock: OLANEW_clean_sbu_2, # of connection points: 3
#     Node 17, Type 0, BuildingBlock: OLANEW_clean_sbu_2, # of connection points: 3
#     Node 18, Type 0, BuildingBlock: OLANEW_clean_sbu_2, # of connection points: 3
#     Node 19, Type 0, BuildingBlock: OLANEW_clean_sbu_2, # of connection points: 3
#     Node 20, Type 0, BuildingBlock: OLANEW_clean_sbu_2, # of connection points: 3
#     Node 21, Type 0, BuildingBlock: OLANEW_clean_sbu_2, # of connection points: 3
#     Node 22, Type 0, BuildingBlock: OLANEW_clean_sbu_2, # of connection points: 3
#     Node 23, Type 0, BuildingBlock: OLANEW_clean_sbu_2, # of connection points: 3
#     Node 24, Type 0, BuildingBlock: OLANEW_clean_sbu_2, # of connection points: 3
#     Node 25, Type 0, BuildingBlock: OLANEW_clean_sbu_2, # of connection points: 3
#     Node 26, Type 0, BuildingBlock: OLANEW_clean_sbu_2, # of connection points: 3
#     Node 27, Type 0, BuildingBlock: OLANEW_clean_sbu_2, # of connection points: 3
#     Node 28, Type 0, BuildingBlock: OLANEW_clean_sbu_2, # of connection points: 3
#     Node 29, Type 0, BuildingBlock: OLANEW_clean_sbu_2, # of connection points: 3
#     Node 30, Type 0, BuildingBlock: OLANEW_clean_sbu_2, # of connection points: 3
#     Node 31, Type 0, BuildingBlock: OLANEW_clean_sbu_2, # of connection points: 3
#     Node 32, Type 0, BuildingBlock: OLANEW_clean_sbu_2, # of connection points: 3
#     Node 33, Type 0, BuildingBlock: OLANEW_clean_sbu_2, # of connection points: 3
#     Node 34, Type 0, BuildingBlock: OLANEW_clean_sbu_2, # of connection points: 3
#     Node 35, Type 0, BuildingBlock: OLANEW_clean_sbu_2, # of connection points: 3
#     Node 36, Type 0, BuildingBlock: OLANEW_clean_sbu_2, # of connection points: 3
#     Node 37, Type 0, BuildingBlock: OLANEW_clean_sbu_2, # of connection points: 3
#     Node 38, Type 0, BuildingBlock: OLANEW_clean_sbu_2, # of connection points: 3
#     Node 39, Type 0, BuildingBlock: OLANEW_clean_sbu_2, # of connection points: 3
#     Node 40, Type 0, BuildingBlock: OLANEW_clean_sbu_2, # of connection points: 3
#     Node 41, Type 0, BuildingBlock: OLANEW_clean_sbu_2, # of connection points: 3
#     Node 42, Type 0, BuildingBlock: OLANEW_clean_sbu_2, # of connection points: 3
#     Node 43, Type 0, BuildingBlock: OLANEW_clean_sbu_2, # of connection points: 3
#     Node 44, Type 0, BuildingBlock: OLANEW_clean_sbu_2, # of connection points: 3
#     Node 45, Type 0, BuildingBlock: OLANEW_clean_sbu_2, # of connection points: 3
#     Node 46, Type 0, BuildingBlock: OLANEW_clean_sbu_2, # of connection points: 3
#     Node 47, Type 0, BuildingBlock: OLANEW_clean_sbu_2, # of connection points: 3
#     Edge 48, Type (0, 0), BuildingBlock: KIFKEQ_clean_linker_1, # of connection points: 2
#     Edge 49, Type (0, 0), BuildingBlock: KIFKEQ_clean_linker_1, # of connection points: 2
#     Edge 50, Type (0, 0), BuildingBlock: KIFKEQ_clean_linker_1, # of connection points: 2
#     Edge 51, Type (0, 0), BuildingBlock: KIFKEQ_clean_linker_1, # of connection points: 2
#     Edge 52, Type (0, 0), BuildingBlock: KIFKEQ_clean_linker_1, # of connection points: 2
#     Edge 53, Type (0, 0), BuildingBlock: KIFKEQ_clean_linker_1, # of connection points: 2
#     Edge 54, Type (0, 0), BuildingBlock: KIFKEQ_clean_linker_1, # of connection points: 2
#     Edge 55, Type (0, 0), BuildingBlock: KIFKEQ_clean_linker_1, # of connection points: 2
#     Edge 56, Type (0, 0), BuildingBlock: KIFKEQ_clean_linker_1, # of connection points: 2
#     Edge 57, Type (0, 0), BuildingBlock: KIFKEQ_clean_linker_1, # of connection points: 2
#     Edge 58, Type (0, 0), BuildingBlock: KIFKEQ_clean_linker_1, # of connection points: 2
#     Edge 59, Type (0, 0), BuildingBlock: KIFKEQ_clean_linker_1, # of connection points: 2
#     Edge 60, Type (0, 0), BuildingBlock: KIFKEQ_clean_linker_1, # of connection points: 2
#     Edge 61, Type (0, 0), BuildingBlock: KIFKEQ_clean_linker_1, # of connection points: 2
#     Edge 62, Type (0, 0), BuildingBlock: KIFKEQ_clean_linker_1, # of connection points: 2
#     Edge 63, Type (0, 0), BuildingBlock: KIFKEQ_clean_linker_1, # of connection points: 2
#     Edge 64, Type (0, 0), BuildingBlock: KIFKEQ_clean_linker_1, # of connection points: 2
#     Edge 65, Type (0, 0), BuildingBlock: KIFKEQ_clean_linker_1, # of connection points: 2
#     Edge 66, Type (0, 0), BuildingBlock: KIFKEQ_clean_linker_1, # of connection points: 2
#     Edge 67, Type (0, 0), BuildingBlock: KIFKEQ_clean_linker_1, # of connection points: 2
#     Edge 68, Type (0, 0), BuildingBlock: KIFKEQ_clean_linker_1, # of connection points: 2
#     Edge 69, Type (0, 0), BuildingBlock: KIFKEQ_clean_linker_1, # of connection points: 2
#     Edge 70, Type (0, 0), BuildingBlock: KIFKEQ_clean_linker_1, # of connection points: 2
#     Edge 71, Type (0, 0), BuildingBlock: KIFKEQ_clean_linker_1, # of connection points: 2
#     Edge 72, Type (0, 0), BuildingBlock: KIFKEQ_clean_linker_1, # of connection points: 2
#     Edge 73, Type (0, 0), BuildingBlock: KIFKEQ_clean_linker_1, # of connection points: 2
#     Edge 74, Type (0, 0), BuildingBlock: KIFKEQ_clean_linker_1, # of connection points: 2
#     Edge 75, Type (0, 0), BuildingBlock: KIFKEQ_clean_linker_1, # of connection points: 2
#     Edge 76, Type (0, 0), BuildingBlock: KIFKEQ_clean_linker_1, # of connection points: 2
#     Edge 77, Type (0, 0), BuildingBlock: KIFKEQ_clean_linker_1, # of connection points: 2
#     Edge 78, Type (0, 0), BuildingBlock: KIFKEQ_clean_linker_1, # of connection points: 2
#     Edge 79, Type (0, 0), BuildingBlock: KIFKEQ_clean_linker_1, # of connection points: 2
#     Edge 80, Type (0, 0), BuildingBlock: KIFKEQ_clean_linker_1, # of connection points: 2
#     Edge 81, Type (0, 0), BuildingBlock: KIFKEQ_clean_linker_1, # of connection points: 2
#     Edge 82, Type (0, 0), BuildingBlock: KIFKEQ_clean_linker_1, # of connection points: 2
#     Edge 83, Type (0, 0), BuildingBlock: KIFKEQ_clean_linker_1, # of connection points: 2
#     Edge 84, Type (0, 0), BuildingBlock: KIFKEQ_clean_linker_1, # of connection points: 2
#     Edge 85, Type (0, 0), BuildingBlock: KIFKEQ_clean_linker_1, # of connection points: 2
#     Edge 86, Type (0, 0), BuildingBlock: KIFKEQ_clean_linker_1, # of connection points: 2
#     Edge 87, Type (0, 0), BuildingBlock: KIFKEQ_clean_linker_1, # of connection points: 2
#     Edge 88, Type (0, 0), BuildingBlock: KIFKEQ_clean_linker_1, # of connection points: 2
#     Edge 89, Type (0, 0), BuildingBlock: KIFKEQ_clean_linker_1, # of connection points: 2
#     Edge 90, Type (0, 0), BuildingBlock: KIFKEQ_clean_linker_1, # of connection points: 2
#     Edge 91, Type (0, 0), BuildingBlock: KIFKEQ_clean_linker_1, # of connection points: 2
#     Edge 92, Type (0, 0), BuildingBlock: KIFKEQ_clean_linker_1, # of connection points: 2
#     Edge 93, Type (0, 0), BuildingBlock: KIFKEQ_clean_linker_1, # of connection points: 2
#     Edge 94, Type (0, 0), BuildingBlock: KIFKEQ_clean_linker_1, # of connection points: 2
#     Edge 95, Type (0, 0), BuildingBlock: KIFKEQ_clean_linker_1, # of connection points: 2
#     Edge 96, Type (0, 0), BuildingBlock: KIFKEQ_clean_linker_1, # of connection points: 2
#     Edge 97, Type (0, 0), BuildingBlock: KIFKEQ_clean_linker_1, # of connection points: 2
#     Edge 98, Type (0, 0), BuildingBlock: KIFKEQ_clean_linker_1, # of connection points: 2
#     Edge 99, Type (0, 0), BuildingBlock: KIFKEQ_clean_linker_1, # of connection points: 2
#     Edge 100, Type (0, 0), BuildingBlock: KIFKEQ_clean_linker_1, # of connection points: 2
#     Edge 101, Type (0, 0), BuildingBlock: KIFKEQ_clean_linker_1, # of connection points: 2
#     Edge 102, Type (0, 0), BuildingBlock: KIFKEQ_clean_linker_1, # of connection points: 2
#     Edge 103, Type (0, 0), BuildingBlock: KIFKEQ_clean_linker_1, # of connection points: 2
#     Edge 104, Type (0, 0), BuildingBlock: KIFKEQ_clean_linker_1, # of connection points: 2
#     Edge 105, Type (0, 0), BuildingBlock: KIFKEQ_clean_linker_1, # of connection points: 2
#     Edge 106, Type (0, 0), BuildingBlock: KIFKEQ_clean_linker_1, # of connection points: 2
#     Edge 107, Type (0, 0), BuildingBlock: KIFKEQ_clean_linker_1, # of connection points: 2
#     Edge 108, Type (0, 0), BuildingBlock: KIFKEQ_clean_linker_1, # of connection points: 2
#     Edge 109, Type (0, 0), BuildingBlock: KIFKEQ_clean_linker_1, # of connection points: 2
#     Edge 110, Type (0, 0), BuildingBlock: KIFKEQ_clean_linker_1, # of connection points: 2
#     Edge 111, Type (0, 0), BuildingBlock: KIFKEQ_clean_linker_1, # of connection points: 2
#     Edge 112, Type (0, 0), BuildingBlock: KIFKEQ_clean_linker_1, # of connection points: 2
#     Edge 113, Type (0, 0), BuildingBlock: KIFKEQ_clean_linker_1, # of connection points: 2
#     Edge 114, Type (0, 0), BuildingBlock: KIFKEQ_clean_linker_1, # of connection points: 2
#     Edge 115, Type (0, 0), BuildingBlock: KIFKEQ_clean_linker_1, # of connection points: 2
#     Edge 116, Type (0, 0), BuildingBlock: KIFKEQ_clean_linker_1, # of connection points: 2
#     Edge 117, Type (0, 0), BuildingBlock: KIFKEQ_clean_linker_1, # of connection points: 2
#     Edge 118, Type (0, 0), BuildingBlock: KIFKEQ_clean_linker_1, # of connection points: 2
#     Edge 119, Type (0, 0), BuildingBlock: KIFKEQ_clean_linker_1, # of connection points: 2
# Relax obj value: 0.001
# Max RMSD: 0.038
# Mean RMSD: 0.038
data_MOF--net-utc--node1-OLANEW_clean_sbu_2--edge1-KIFKEQ_clean_linker_1
_symmetry_space_group_name_H-M    P1
_symmetry_Int_Tables_number       1
_symmetry_cell_setting            triclinic
loop_
_symmetry_equiv_pos_as_xyz
'x, y, z'
_cell_length_a     85.499509
_cell_length_b     85.387932
_cell_length_c     85.466004
_cell_angle_alpha  89.847683
_cell_angle_beta   89.979148
_cell_angle_gamma 89.910369
loop_
_atom_site_label
_atom_site_type_symbol
_atom_site_fract_x
_atom_site_fract_y
_atom_site_fract_z
_atom_type_partial_charge
O0 O 0.03271 0.12759 0.28536 0.0
Cd1 Cd 0.04137 0.13959 0.3099 0.0
O2 O 0.03301 0.14984 0.27234 0.0
Cd3 Cd 0.03806 0.16431 0.2927 0.0
O4 O 0.02882 0.18471 0.30495 0.0
C5 C 0.01398 0.18575 0.30475 0.0
O6 O 0.00592 0.17432 0.29839 0.0
C7 C 0.03071 0.13514 0.27266 0.0
C8 C 0.0675 0.12543 0.32364 0.0
O9 O 0.0537 0.12003 0.32593 0.0
O10 O 0.06898 0.13736 0.31463 0.0
O11 O 0.09375 0.77968 0.54014 0.0
Cd12 Cd 0.08021 0.79517 0.56017 0.0
O13 O 0.07856 0.78817 0.52115 0.0
Cd14 Cd 0.06102 0.79659 0.53765 0.0
O15 O 0.03923 0.78778 0.54766 0.0
C16 C 0.03981 0.77436 0.55412 0.0
O17 O 0.05346 0.76742 0.55557 0.0
C18 C 0.09038 0.78032 0.52565 0.0
C19 C 0.09833 0.81925 0.57298 0.0
O20 O 0.09812 0.80555 0.57916 0.0
O21 O 0.09014 0.82151 0.56061 0.0
O22 O 0.45039 0.8452 0.78904 0.0
Cd23 Cd 0.43508 0.83219 0.80959 0.0
O24 O 0.44139 0.82982 0.77051 0.0
Cd25 Cd 0.43219 0.81305 0.78743 0.0
O26 O 0.43884 0.79106 0.79872 0.0
C27 C 0.45134 0.79099 0.80678 0.0
O28 O 0.45871 0.80428 0.80904 0.0
C29 C 0.44955 0.84154 0.77463 0.0
C30 C 0.41161 0.85089 0.82275 0.0
O31 O 0.42539 0.85043 0.82865 0.0
O32 O 0.40898 0.84269 0.81049 0.0
O33 O 0.38756 0.18705 0.03228 0.0
Cd34 Cd 0.39968 0.17305 0.05424 0.0
O35 O 0.40497 0.206 0.03351 0.0
Cd36 Cd 0.41945 0.19838 0.05311 0.0
O37 O 0.44097 0.20844 0.06248 0.0
C38 C 0.44193 0.22317 0.06042 0.0
O39 O 0.42996 0.23053 0.05413 0.0
C40 C 0.39302 0.19993 0.02712 0.0
C41 C 0.38047 0.15037 0.06806 0.0
O42 O 0.38062 0.1645 0.07309 0.0
O43 O 0.38923 0.14701 0.05637 0.0
O44 O 0.02711 0.84594 0.18934 0.0
Cd45 Cd 0.04064 0.8333 0.16743 0.0
O46 O 0.03555 0.82945 0.20727 0.0
Cd47 Cd 0.04343 0.81284 0.18961 0.0
O48 O 0.03489 0.79112 0.17925 0.0
C49 C 0.02141 0.79155 0.17298 0.0
O50 O 0.01418 0.80511 0.17187 0.0
C51 C 0.02799 0.84176 0.20362 0.0
C52 C 0.06669 0.84984 0.15644 0.0
O53 O 0.05286 0.85323 0.15175 0.0
O54 O 0.06822 0.83877 0.16649 0.0
O55 O 0.36996 0.79376 0.43456 0.0
Cd56 Cd 0.38132 0.81193 0.41545 0.0
O57 O 0.39469 0.78928 0.43923 0.0
Cd58 Cd 0.41422 0.77595 0.44891 0.0
O59 O 0.43547 0.76241 0.45284 0.0
C60 C 0.43709 0.74921 0.4462 0.0
O61 O 0.42565 0.74382 0.43748 0.0
C62 C 0.38041 0.78637 0.44216 0.0
C63 C 0.3618 0.83429 0.40176 0.0
O64 O 0.36357 0.82074 0.39557 0.0
O65 O 0.36879 0.83703 0.41473 0.0
O66 O 0.43961 0.12942 0.69775 0.0
Cd67 Cd 0.42631 0.1418 0.67546 0.0
O68 O 0.44284 0.15213 0.70941 0.0
Cd69 Cd 0.43592 0.16674 0.6896 0.0
O70 O 0.44478 0.18724 0.67711 0.0
C71 C 0.45962 0.18821 0.67681 0.0
O72 O 0.46787 0.17671 0.6829 0.0
C73 C 0.44421 0.13731 0.70949 0.0
C74 C 0.40306 0.1236 0.66135 0.0
O75 O 0.41725 0.12313 0.65653 0.0
O76 O 0.39991 0.13246 0.67304 0.0
O77 O 0.09492 0.19184 0.94767 0.0
Cd78 Cd 0.08303 0.1789 0.92502 0.0
O79 O 0.0719 0.19796 0.9575 0.0
Cd80 Cd 0.05753 0.1917 0.93739 0.0
O81 O 0.03656 0.20134 0.92637 0.0
C82 C 0.03734 0.21538 0.92142 0.0
O83 O 0.0509 0.2226 0.92182 0.0
C84 C 0.08672 0.19773 0.95862 0.0
C85 C 0.10213 0.15641 0.91072 0.0
O86 O 0.10219 0.17071 0.90611 0.0
O87 O 0.09322 0.15279 0.92223 0.0
O88 O 0.28663 0.02852 0.13363 0.0
Cd89 Cd 0.30729 0.04391 0.14625 0.0
O90 O 0.26764 0.04005 0.1466 0.0
Cd91 Cd 0.28434 0.04929 0.16345 0.0
O92 O 0.29411 0.03895 0.18469 0.0
C93 C 0.29349 0.02407 0.18483 0.0
O94 O 0.28813 0.01687 0.17236 0.0
C95 C 0.27208 0.03047 0.13613 0.0
C96 C 0.32125 0.06642 0.12694 0.0
O97 O 0.3268 0.05249 0.12792 0.0
O98 O 0.30895 0.06963 0.13489 0.0
O99 O 0.19812 0.04836 0.38697 0.0
Cd100 Cd 0.18492 0.06965 0.40081 0.0
O101 O 0.19307 0.0303 0.40464 0.0
Cd102 Cd 0.18666 0.04753 0.42231 0.0
O103 O 0.19619 0.05661 0.44418 0.0
C104 C 0.20996 0.06219 0.44367 0.0
O105 O 0.21695 0.0634 0.43002 0.0
C106 C 0.19857 0.03413 0.39136 0.0
C107 C 0.15957 0.08106 0.38352 0.0
O108 O 0.17347 0.0861 0.38108 0.0
O109 O 0.15762 0.07065 0.39418 0.0
O110 O 0.18733 0.94727 0.63226 0.0
Cd111 Cd 0.16646 0.93258 0.64543 0.0
O112 O 0.20526 0.93967 0.64911 0.0
Cd113 Cd 0.18783 0.93181 0.66601 0.0
O114 O 0.17711 0.94031 0.68758 0.0
C115 C 0.17071 0.95376 0.68705 0.0
O116 O 0.16972 0.96099 0.67349 0.0
C117 C 0.20157 0.94687 0.63661 0.0
C118 C 0.15359 0.90843 0.62746 0.0
O119 O 0.14779 0.92228 0.62714 0.0
O120 O 0.16561 0.90604 0.63611 0.0
O121 O 0.28749 0.94438 0.88293 0.0
Cd122 Cd 0.30072 0.9225 0.89607 0.0
O123 O 0.28217 0.95608 0.90523 0.0
Cd124 Cd 0.28864 0.93675 0.92068 0.0
O125 O 0.2793 0.92559 0.94172 0.0
C126 C 0.26444 0.92568 0.94257 0.0
O127 O 0.25645 0.93134 0.9307 0.0
C128 C 0.28194 0.95603 0.89036 0.0
C129 C 0.32445 0.90866 0.8782 0.0
O130 O 0.31037 0.90355 0.87767 0.0
O131 O 0.32728 0.92044 0.88703 0.0
O132 O 0.28414 0.96281 0.33449 0.0
Cd133 Cd 0.30411 0.94767 0.32067 0.0
O134 O 0.26447 0.94897 0.32543 0.0
Cd135 Cd 0.27974 0.9399 0.30714 0.0
O136 O 0.29006 0.94959 0.28584 0.0
C137 C 0.2903 0.96448 0.28562 0.0
O138 O 0.28524 0.97207 0.29799 0.0
C139 C 0.2696 0.95965 0.33441 0.0
C140 C 0.31492 0.92289 0.33914 0.0
O141 O 0.32155 0.93634 0.3395 0.0
O142 O 0.30319 0.92113 0.32998 0.0
O143 O 0.27822 0.03666 0.59384 0.0
Cd144 Cd 0.29387 0.05725 0.58131 0.0
O145 O 0.2867 0.01835 0.57787 0.0
Cd146 Cd 0.29539 0.03568 0.56124 0.0
O147 O 0.28704 0.04753 0.54017 0.0
C148 C 0.27396 0.05455 0.54117 0.0
O149 O 0.26708 0.05539 0.5549 0.0
C150 C 0.27879 0.02233 0.58983 0.0
C151 C 0.31705 0.06989 0.60066 0.0
O152 O 0.30334 0.07596 0.6 0.0
O153 O 0.31975 0.05772 0.59232 0.0
O154 O 0.19736 0.03688 0.84443 0.0
Cd155 Cd 0.17575 0.05084 0.83166 0.0
O156 O 0.20811 0.03035 0.82195 0.0
Cd157 Cd 0.1889 0.03743 0.80667 0.0
O158 O 0.17759 0.02905 0.78535 0.0
C159 C 0.17113 0.01566 0.78589 0.0
O160 O 0.17034 0.00833 0.79941 0.0
C161 C 0.20848 0.03055 0.83681 0.0
C162 C 0.16136 0.07332 0.85069 0.0
O163 O 0.15629 0.05921 0.85017 0.0
O164 O 0.17335 0.07677 0.84235 0.0
O165 O 0.19952 0.93483 0.10098 0.0
Cd166 Cd 0.18721 0.9115 0.08974 0.0
O167 O 0.19092 0.95106 0.08289 0.0
Cd168 Cd 0.18409 0.93191 0.06753 0.0
O169 O 0.19422 0.92177 0.04639 0.0
C170 C 0.20898 0.92344 0.04547 0.0
O171 O 0.21636 0.92994 0.05726 0.0
C172 C 0.19826 0.94869 0.09561 0.0
C173 C 0.16091 0.90078 0.10607 0.0
O174 O 0.17476 0.8969 0.11033 0.0
O175 O 0.15948 0.90993 0.09424 0.0
O176 O 0.1279 0.28391 0.03898 0.0
Cd177 Cd 0.14055 0.30612 0.05195 0.0
O178 O 0.15023 0.27124 0.03692 0.0
Cd179 Cd 0.165 0.29089 0.04363 0.0
O180 O 0.18536 0.30301 0.03413 0.0
C181 C 0.18606 0.30285 0.01927 0.0
O182 O 0.17441 0.2966 0.01146 0.0
C183 C 0.13549 0.2717 0.03503 0.0
C184 C 0.1221 0.32101 0.07451 0.0
O185 O 0.12209 0.32565 0.06024 0.0
O186 O 0.13064 0.30917 0.07808 0.0
O187 O 0.63401 0.18895 0.95176 0.0
Cd188 Cd 0.64592 0.16656 0.9383 0.0
O189 O 0.65223 0.20572 0.94476 0.0
Cd190 Cd 0.66821 0.18728 0.93724 0.0
O191 O 0.68991 0.17642 0.94533 0.0
C192 C 0.68971 0.16995 0.95875 0.0
O193 O 0.67633 0.16893 0.96625 0.0
C194 C 0.63928 0.20288 0.95147 0.0
C195 C 0.62844 0.15554 0.91291 0.0
O196 O 0.62554 0.15095 0.9269 0.0
O197 O 0.63948 0.1655 0.91091 0.0
O198 O 0.0297 0.38898 0.19426 0.0
Cd199 Cd 0.05136 0.40184 0.18057 0.0
O200 O 0.01844 0.41142 0.20011 0.0
Cd201 Cd 0.03773 0.42663 0.19319 0.0
O202 O 0.04954 0.44756 0.20181 0.0
C203 C 0.05604 0.44665 0.21516 0.0
O204 O 0.05656 0.43299 0.22226 0.0
C205 C 0.01832 0.39653 0.20019 0.0
C206 C 0.06535 0.3828 0.15791 0.0
O207 O 0.07052 0.38311 0.17199 0.0
O208 O 0.0535 0.39139 0.15458 0.0
O209 O 0.84815 0.79654 0.45129 0.0
Cd210 Cd 0.83602 0.81911 0.43825 0.0
O211 O 0.83293 0.77885 0.44053 0.0
Cd212 Cd 0.81667 0.7969 0.43263 0.0
O213 O 0.79514 0.80799 0.44079 0.0
C214 C 0.7956 0.81481 0.45399 0.0
O215 O 0.80911 0.81602 0.4612 0.0
C216 C 0.84449 0.78226 0.44922 0.0
C217 C 0.85233 0.82967 0.41187 0.0
O218 O 0.85621 0.83407 0.42566 0.0
O219 O 0.84087 0.82011 0.41054 0.0
O220 O 0.94448 0.09638 0.19277 0.0
Cd221 Cd 0.91974 0.08567 0.18303 0.0
O222 O 0.95412 0.07312 0.19847 0.0
Cd223 Cd 0.93333 0.05924 0.19338 0.0
O224 O 0.92174 0.03817 0.2021 0.0
C225 C 0.91632 0.03847 0.21596 0.0
O226 O 0.91663 0.05174 0.22371 0.0
C227 C 0.95564 0.08791 0.19788 0.0
C228 C 0.90713 0.10178 0.15737 0.0
O229 O 0.90462 0.10642 0.17139 0.0
O230 O 0.91579 0.08966 0.15544 0.0
O231 O 0.35026 0.68621 0.51258 0.0
Cd232 Cd 0.33915 0.66379 0.5268 0.0
O233 O 0.33925 0.70415 0.52736 0.0
Cd234 Cd 0.32305 0.68672 0.53659 0.0
O235 O 0.30073 0.67742 0.52839 0.0
C236 C 0.29915 0.67794 0.5136 0.0
O237 O 0.31098 0.68291 0.50511 0.0
C238 C 0.34844 0.70053 0.51625 0.0
C239 C 0.35575 0.65479 0.55362 0.0
O240 O 0.35969 0.64981 0.54004 0.0
O241 O 0.34413 0.66424 0.55452 0.0
O242 O 0.04234 0.59823 0.28293 0.0
Cd243 Cd 0.06278 0.58473 0.298 0.0
O244 O 0.02366 0.58283 0.29167 0.0
Cd245 Cd 0.04048 0.56558 0.30015 0.0
O246 O 0.05109 0.54393 0.29167 0.0
C247 C 0.05775 0.54454 0.27838 0.0
O248 O 0.05905 0.55818 0.27135 0.0
C249 C 0.0279 0.5947 0.28374 0.0
C250 C 0.07562 0.6025 0.3223 0.0
O251 O 0.08163 0.60268 0.30856 0.0
O252 O 0.06338 0.59411 0.3245 0.0
O253 O 0.45008 0.3841 0.78674 0.0
Cd254 Cd 0.42807 0.39647 0.80032 0.0
O255 O 0.46193 0.40665 0.78298 0.0
Cd256 Cd 0.44239 0.42148 0.79008 0.0
O257 O 0.42995 0.44223 0.78169 0.0
C258 C 0.42875 0.44315 0.76689 0.0
O259 O 0.43395 0.43143 0.75839 0.0
C260 C 0.46183 0.39181 0.78184 0.0
C261 C 0.41347 0.37681 0.8221 0.0
O262 O 0.40879 0.37747 0.80787 0.0
O263 O 0.42516 0.38534 0.826 0.0
O264 O 0.53285 0.63373 0.78047 0.0
Cd265 Cd 0.54315 0.64421 0.80508 0.0
O266 O 0.52868 0.65708 0.77031 0.0
Cd267 Cd 0.53389 0.67069 0.79123 0.0
O268 O 0.52483 0.69137 0.80321 0.0
C269 C 0.51089 0.69076 0.80836 0.0
O270 O 0.5033 0.67741 0.80756 0.0
C271 C 0.52842 0.64225 0.76906 0.0
C272 C 0.56819 0.62702 0.81745 0.0
O273 O 0.554 0.62313 0.8203 0.0
O274 O 0.57057 0.63892 0.8086 0.0
O275 O 0.59804 0.2808 0.04051 0.0
Cd276 Cd 0.58545 0.29632 0.06112 0.0
O277 O 0.58367 0.29105 0.02174 0.0
Cd278 Cd 0.56707 0.30029 0.03875 0.0
O279 O 0.54603 0.29197 0.05064 0.0
C280 C 0.54515 0.27714 0.05163 0.0
O281 O 0.5569 0.2687 0.04642 0.0
C282 C 0.59483 0.28216 0.02602 0.0
C283 C 0.60437 0.31986 0.0737 0.0
O284 O 0.60399 0.30613 0.07979 0.0
O285 O 0.59599 0.3224 0.06152 0.0
O286 O 0.94178 0.34935 0.28717 0.0
Cd287 Cd 0.92939 0.3359 0.30928 0.0
O288 O 0.94465 0.3274 0.27406 0.0
Cd289 Cd 0.93834 0.31189 0.29336 0.0
O290 O 0.94713 0.29097 0.30517 0.0
C291 C 0.96196 0.28993 0.30549 0.0
O292 O 0.97025 0.30161 0.29987 0.0
C293 C 0.94596 0.3422 0.27481 0.0
C294 C 0.90576 0.35347 0.32355 0.0
O295 O 0.91995 0.35422 0.32835 0.0
O296 O 0.90278 0.34453 0.3119 0.0
O297 O 0.88787 0.70249 0.53623 0.0
Cd298 Cd 0.90137 0.687 0.55632 0.0
O299 O 0.90455 0.69591 0.51778 0.0
Cd300 Cd 0.92183 0.68782 0.53474 0.0
O301 O 0.94316 0.69674 0.54556 0.0
C302 C 0.94226 0.71015 0.55195 0.0
O303 O 0.92853 0.71703 0.55282 0.0
C304 C 0.892 0.70274 0.52192 0.0
C305 C 0.88253 0.66387 0.56989 0.0
O306 O 0.88341 0.67761 0.57582 0.0
O307 O 0.89045 0.66109 0.55746 0.0
O308 O 0.53663 0.35075 0.69114 0.0
Cd309 Cd 0.54665 0.33968 0.66669 0.0
O310 O 0.53259 0.32769 0.70197 0.0
Cd311 Cd 0.53755 0.31358 0.68131 0.0
O312 O 0.52767 0.29271 0.67041 0.0
C313 C 0.51287 0.29174 0.67153 0.0
O314 O 0.50518 0.30346 0.67786 0.0
C315 C 0.53234 0.34254 0.70283 0.0
C316 C 0.57192 0.35635 0.65423 0.0
O317 O 0.55779 0.36045 0.65133 0.0
O318 O 0.57413 0.34445 0.66314 0.0
O319 O 0.88638 0.27995 0.94243 0.0
Cd320 Cd 0.89971 0.29607 0.92275 0.0
O321 O 0.90066 0.28887 0.96185 0.0
Cd322 Cd 0.91802 0.29822 0.94564 0.0
O323 O 0.93963 0.29076 0.93424 0.0
C324 C 0.93911 0.27817 0.92634 0.0
O325 O 0.92554 0.27124 0.92441 0.0
C326 C 0.88932 0.28058 0.95702 0.0
C327 C 0.88058 0.31919 0.90951 0.0
O328 O 0.88176 0.30559 0.90331 0.0
O329 O 0.88833 0.32182 0.92207 0.0
O330 O 0.95269 0.63818 0.19282 0.0
Cd331 Cd 0.93743 0.65102 0.17211 0.0
O332 O 0.94541 0.65523 0.21066 0.0
Cd333 Cd 0.93734 0.67199 0.19313 0.0
O334 O 0.94577 0.69344 0.18202 0.0
C335 C 0.9591 0.69279 0.17545 0.0
O336 O 0.96624 0.67918 0.17456 0.0
C337 C 0.95254 0.64269 0.207 0.0
C338 C 0.91395 0.63208 0.15938 0.0
O339 O 0.92769 0.63247 0.15339 0.0
O340 O 0.91135 0.6405 0.17151 0.0
O341 O 0.60674 0.69269 0.44809 0.0
Cd342 Cd 0.59263 0.6814 0.42585 0.0
O343 O 0.58814 0.68749 0.4651 0.0
Cd344 Cd 0.57114 0.67947 0.44794 0.0
O345 O 0.54703 0.68634 0.4432 0.0
C346 C 0.54072 0.69319 0.45478 0.0
O347 O 0.54886 0.6947 0.46773 0.0
C348 C 0.60158 0.69302 0.46205 0.0
C349 C 0.60743 0.65576 0.41191 0.0
O350 O 0.61119 0.66981 0.4082 0.0
O351 O 0.59687 0.65382 0.42238 0.0
O352 O 0.78567 0.54226 0.63061 0.0
Cd353 Cd 0.80782 0.55511 0.64347 0.0
O354 O 0.77377 0.53818 0.65309 0.0
Cd355 Cd 0.79335 0.54453 0.66814 0.0
O356 O 0.80466 0.53464 0.68884 0.0
C357 C 0.80456 0.51975 0.68932 0.0
O358 O 0.79888 0.51209 0.67728 0.0
C359 C 0.77385 0.53737 0.63824 0.0
C360 C 0.82226 0.57835 0.62541 0.0
O361 O 0.827 0.5641 0.62496 0.0
O362 O 0.81056 0.58157 0.63422 0.0
O363 O 0.69347 0.53492 0.87831 0.0
Cd364 Cd 0.68327 0.55969 0.88861 0.0
O365 O 0.69784 0.52513 0.90176 0.0
Cd366 Cd 0.69252 0.54625 0.91505 0.0
O367 O 0.7021 0.55813 0.9355 0.0
C368 C 0.7169 0.55717 0.93668 0.0
O369 O 0.72475 0.55038 0.92534 0.0
C370 C 0.69802 0.52365 0.88697 0.0
C371 C 0.65816 0.5721 0.87158 0.0
O372 O 0.67233 0.57482 0.86753 0.0
O373 O 0.65584 0.56333 0.88356 0.0
O374 O 0.69835 0.44435 0.13347 0.0
Cd375 Cd 0.67593 0.43126 0.14572 0.0
O376 O 0.70889 0.44954 0.15637 0.0
Cd377 Cd 0.68886 0.44301 0.1708 0.0
O378 O 0.67696 0.45257 0.19129 0.0
C379 C 0.67737 0.46743 0.1921 0.0
O380 O 0.68373 0.47528 0.18048 0.0
C381 C 0.70959 0.44985 0.14152 0.0
C382 C 0.66247 0.40749 0.12769 0.0
O383 O 0.65748 0.42163 0.12683 0.0
O384 O 0.67398 0.40463 0.13688 0.0
O385 O 0.78057 0.44271 0.38664 0.0
Cd386 Cd 0.79603 0.42282 0.40046 0.0
O387 O 0.78916 0.46203 0.40125 0.0
Cd388 Cd 0.79867 0.44572 0.41847 0.0
O389 O 0.79171 0.43376 0.43996 0.0
C390 C 0.7791 0.4259 0.43952 0.0
O391 O 0.77184 0.42437 0.42606 0.0
C392 C 0.78111 0.45728 0.3897 0.0
C393 C 0.81933 0.40918 0.38202 0.0
O394 O 0.80562 0.40318 0.38287 0.0
O395 O 0.82197 0.42174 0.38976 0.0
O396 O 0.78293 0.44086 0.84895 0.0
Cd397 Cd 0.80567 0.42839 0.83664 0.0
O398 O 0.77105 0.44365 0.82628 0.0
Cd399 Cd 0.79113 0.43761 0.81174 0.0
O400 O 0.80311 0.44774 0.79154 0.0
C401 C 0.80262 0.46262 0.79104 0.0
O402 O 0.79614 0.47014 0.80279 0.0
C403 C 0.77098 0.44501 0.84108 0.0
C404 C 0.81993 0.40504 0.85473 0.0
O405 O 0.82444 0.41933 0.85554 0.0
O406 O 0.80852 0.40183 0.84556 0.0
O407 O 0.79038 0.53634 0.10028 0.0
Cd408 Cd 0.80352 0.55863 0.08776 0.0
O409 O 0.78594 0.52515 0.07754 0.0
Cd410 Cd 0.79277 0.5449 0.06282 0.0
O411 O 0.78402 0.55667 0.04186 0.0
C412 C 0.76919 0.55685 0.04073 0.0
O413 O 0.76088 0.55113 0.05235 0.0
C414 C 0.78522 0.52483 0.0924 0.0
C415 C 0.82706 0.57256 0.10573 0.0
O416 O 0.8129 0.57748 0.10637 0.0
O417 O 0.83004 0.56088 0.09682 0.0
O418 O 0.68521 0.52495 0.34616 0.0
Cd419 Cd 0.66224 0.53799 0.33494 0.0
O420 O 0.70258 0.53847 0.33285 0.0
Cd421 Cd 0.68431 0.54654 0.31696 0.0
O422 O 0.6738 0.53718 0.29568 0.0
C423 C 0.67417 0.52231 0.29493 0.0
O424 O 0.67966 0.51444 0.30697 0.0
C425 C 0.69941 0.52832 0.34328 0.0
C426 C 0.6522 0.56358 0.35267 0.0
O427 O 0.64794 0.5496 0.3561 0.0
O428 O 0.66129 0.56549 0.34089 0.0
O429 O 0.6982 0.44795 0.59644 0.0
Cd430 Cd 0.68805 0.4237 0.58502 0.0
O431 O 0.70189 0.45918 0.57353 0.0
Cd432 Cd 0.69642 0.43876 0.55927 0.0
O433 O 0.7051 0.42708 0.5383 0.0
C434 C 0.71877 0.42124 0.53884 0.0
O435 O 0.72626 0.42116 0.55226 0.0
C436 C 0.7024 0.45977 0.58837 0.0
C437 C 0.66275 0.41092 0.6014 0.0
O438 O 0.67687 0.40792 0.60545 0.0
O439 O 0.66057 0.4201 0.58971 0.0
O440 O 0.6415 0.78141 0.54097 0.0
Cd441 Cd 0.65237 0.8046 0.55387 0.0
O442 O 0.66473 0.77445 0.53227 0.0
Cd443 Cd 0.67789 0.7952 0.53905 0.0
O444 O 0.69837 0.80767 0.53025 0.0
C445 C 0.69743 0.81365 0.51664 0.0
O446 O 0.6839 0.81337 0.50936 0.0
C447 C 0.65018 0.77175 0.53369 0.0
C448 C 0.63303 0.81797 0.57669 0.0
O449 O 0.6325 0.82262 0.56242 0.0
O450 O 0.6425 0.80682 0.58012 0.0
O451 O 0.13507 0.68928 0.45139 0.0
Cd452 Cd 0.14842 0.66858 0.43664 0.0
O453 O 0.15322 0.70672 0.44599 0.0
Cd454 Cd 0.17024 0.68909 0.43881 0.0
O455 O 0.19202 0.67923 0.44793 0.0
C456 C 0.19369 0.68087 0.46262 0.0
O457 O 0.18228 0.68738 0.47063 0.0
C458 C 0.14003 0.70331 0.45195 0.0
C459 C 0.13054 0.65602 0.41225 0.0
O460 O 0.13021 0.65 0.42601 0.0
O461 O 0.13917 0.66809 0.41006 0.0
O462 O 0.54096 0.88375 0.69937 0.0
Cd463 Cd 0.56176 0.89633 0.68407 0.0
O464 O 0.52281 0.89974 0.69047 0.0
Cd465 Cd 0.54017 0.91623 0.68164 0.0
O466 O 0.55151 0.93768 0.68961 0.0
C467 C 0.55309 0.93856 0.70438 0.0
O468 O 0.54885 0.92651 0.71298 0.0
C469 C 0.52665 0.88781 0.69854 0.0
C470 C 0.57527 0.87701 0.66133 0.0
O471 O 0.58098 0.87782 0.67517 0.0
O472 O 0.56303 0.88517 0.65829 0.0
O473 O 0.34706 0.27715 0.93842 0.0
Cd474 Cd 0.33412 0.29813 0.92365 0.0
O475 O 0.32511 0.27118 0.95047 0.0
Cd476 Cd 0.31059 0.29036 0.94185 0.0
O477 O 0.28982 0.30246 0.95048 0.0
C478 C 0.28904 0.30302 0.96533 0.0
O479 O 0.30084 0.29749 0.97352 0.0
C480 C 0.33952 0.26852 0.94794 0.0
C481 C 0.35348 0.31356 0.90221 0.0
O482 O 0.35206 0.31848 0.9163 0.0
O483 O 0.34593 0.30121 0.89833 0.0
O484 O 0.44182 0.6057 0.68828 0.0
Cd485 Cd 0.41731 0.59497 0.678 0.0
O486 O 0.45214 0.58245 0.69261 0.0
Cd487 Cd 0.43137 0.56853 0.68762 0.0
O488 O 0.42098 0.54771 0.69827 0.0
C489 C 0.4233 0.54664 0.71293 0.0
O490 O 0.43048 0.55821 0.72005 0.0
C491 C 0.45328 0.59729 0.69277 0.0
C492 C 0.40638 0.60974 0.65082 0.0
O493 O 0.4032 0.61523 0.6644 0.0
O494 O 0.41491 0.59741 0.65006 0.0
O495 O 0.84585 0.1864 0.02782 0.0
Cd496 Cd 0.83352 0.16395 0.0408 0.0
O497 O 0.82763 0.20331 0.03458 0.0
Cd498 Cd 0.81125 0.18494 0.04136 0.0
O499 O 0.78955 0.17458 0.03276 0.0
C500 C 0.7898 0.16875 0.01909 0.0
O501 O 0.8032 0.16805 0.01158 0.0
C502 C 0.84073 0.2004 0.02817 0.0
C503 C 0.85095 0.15231 0.06603 0.0
O504 O 0.85381 0.14795 0.05198 0.0
O505 O 0.83994 0.16228 0.06818 0.0
O506 O 0.53607 0.10037 0.7852 0.0
Cd507 Cd 0.56126 0.09031 0.79466 0.0
O508 O 0.5271 0.0769 0.77956 0.0
Cd509 Cd 0.54845 0.06359 0.78393 0.0
O510 O 0.55907 0.04306 0.77298 0.0
C511 C 0.55626 0.04197 0.75842 0.0
O512 O 0.54849 0.05335 0.75154 0.0
C513 C 0.5251 0.09163 0.78024 0.0
C514 C 0.57336 0.10612 0.82066 0.0
O515 O 0.57567 0.11122 0.80673 0.0
O516 O 0.56512 0.0937 0.82233 0.0
O517 O 0.93608 0.88314 0.27762 0.0
Cd518 Cd 0.91369 0.89553 0.2906 0.0
O519 O 0.95373 0.89926 0.28707 0.0
Cd520 Cd 0.93576 0.91556 0.29504 0.0
O521 O 0.92463 0.93744 0.2878 0.0
C522 C 0.91739 0.93752 0.2748 0.0
O523 O 0.91579 0.92426 0.2672 0.0
C524 C 0.95032 0.88721 0.27907 0.0
C525 C 0.90283 0.87933 0.31695 0.0
O526 O 0.89841 0.87552 0.30314 0.0
O527 O 0.91256 0.89065 0.3183 0.0
H528 H 0.96069 0.11889 0.20449 0.0
H529 H 0.98249 0.07328 0.20731 0.0
H530 H 0.98176 0.12985 0.22017 0.0
H531 H 0.00375 0.08432 0.22268 0.0
H532 H 0.02094 0.10474 0.27014 0.0
H533 H 0.00532 0.09342 0.24928 0.0
H534 H 0.00913 0.13646 0.22285 0.0
H535 H 0.0245 0.14793 0.2439 0.0
C536 C 0.97017 0.11127 0.20812 0.0
C537 C 0.96977 0.09517 0.20483 0.0
C538 C 0.98232 0.11757 0.21707 0.0
C539 C -0.00563 0.10792 0.22287 0.0
C540 C -0.00551 0.09202 0.21868 0.0
C541 C 0.98233 0.08571 0.20979 0.0
C542 C 0.01872 0.1117 0.25976 0.0
C543 C 0.02382 0.12731 0.25881 0.0
C544 C 0.0098 0.10518 0.24773 0.0
C545 C 0.00581 0.11409 0.23443 0.0
C546 C 0.01174 0.12938 0.23305 0.0
C547 C 0.02065 0.13591 0.24509 0.0
H548 H 0.14301 0.73516 0.45014 0.0
H549 H 0.11801 0.69858 0.47458 0.0
H550 H 0.13128 0.75473 0.46747 0.0
H551 H 0.10657 0.71813 0.49202 0.0
H552 H 0.10881 0.75493 0.53175 0.0
H553 H 0.12013 0.73672 0.51287 0.0
H554 H 0.10267 0.76514 0.47488 0.0
H555 H 0.09103 0.7833 0.49375 0.0
C556 C 0.13489 0.73132 0.45908 0.0
C557 C 0.13144 0.71532 0.46101 0.0
C558 C 0.1282 0.74251 0.46897 0.0
C559 C 0.1182 0.73787 0.48115 0.0
C560 C 0.1144 0.72196 0.48281 0.0
C561 C 0.12084 0.7108 0.47274 0.0
C562 C 0.10755 0.75743 0.51938 0.0
C563 C 0.099 0.77054 0.51424 0.0
C564 C 0.11391 0.74693 0.5086 0.0
C565 C 0.1121 0.74948 0.49246 0.0
C566 C 0.10418 0.76294 0.48727 0.0
C567 C 0.09755 0.7733 0.49807 0.0
H568 H 0.49478 0.88958 0.69591 0.0
H569 H 0.53155 0.86828 0.7234 0.0
H570 H 0.47524 0.87885 0.71391 0.0
H571 H 0.51202 0.85778 0.74142 0.0
H572 H 0.47458 0.86059 0.78002 0.0
H573 H 0.49281 0.87125 0.76076 0.0
H574 H 0.4652 0.85152 0.72345 0.0
H575 H 0.44699 0.84064 0.74271 0.0
C576 C 0.49868 0.88248 0.70568 0.0
C577 C 0.51472 0.8798 0.70824 0.0
C578 C 0.4875 0.87636 0.71596 0.0
C579 C 0.49216 0.86767 0.72913 0.0
C580 C 0.50814 0.86462 0.73146 0.0
C581 C 0.5193 0.87052 0.72106 0.0
C582 C 0.47226 0.85869 0.76771 0.0
C583 C 0.45936 0.84972 0.7629 0.0
C584 C 0.48277 0.86467 0.75671 0.0
C585 C 0.48048 0.86204 0.74065 0.0
C586 C 0.46722 0.8537 0.73577 0.0
C587 C 0.45683 0.84748 0.74679 0.0
H588 H 0.37069 0.26068 0.9478 0.0
H589 H 0.32642 0.24813 0.96879 0.0
H590 H 0.38398 0.24209 0.96503 0.0
H591 H 0.3397 0.22994 0.98617 0.0
H592 H 0.36691 0.19137 0.01036 0.0
H593 H 0.35445 0.20585 0.98899 0.0
H594 H 0.3898 0.24177 -0.00736 0.0
H595 H 0.40235 0.22727 0.01358 0.0
C596 C 0.36377 0.25386 0.95596 0.0
C597 C 0.34751 0.25604 0.95701 0.0
C598 C 0.37139 0.24327 0.9659 0.0
C599 C 0.36292 0.23463 0.9771 0.0
C600 C 0.34659 0.23627 0.97761 0.0
C601 C 0.33898 0.24683 0.96769 0.0
C602 C 0.37207 0.20229 0.0065 0.0
C603 C 0.38558 0.20818 0.01376 0.0
C604 C 0.36491 0.21062 -0.00571 0.0
C605 C 0.37114 0.22497 0.98908 0.0
C606 C 0.38482 0.23064 -0.00386 0.0
C607 C 0.39195 0.22236 0.0083 0.0
H608 H 0.94635 0.86725 0.25456 0.0
H609 H 0.98216 0.88929 0.28257 0.0
H610 H 0.96642 0.85702 0.23705 0.0
H611 H 0.00227 0.87871 0.26506 0.0
H612 H 0.03042 0.83947 0.23556 0.0
H613 H 0.01237 0.8502 0.2551 0.0
H614 H 0.98594 0.87268 0.21836 0.0
H615 H 0.00401 0.86229 0.19887 0.0
C616 C 0.95851 0.86968 0.25716 0.0
C617 C 0.96265 0.87915 0.26993 0.0
C618 C 0.96997 0.86392 0.24706 0.0
C619 C 0.98583 0.86726 0.24964 0.0
C620 C -0.0099 0.87602 0.26283 0.0
C621 C 0.97859 0.88205 0.27282 0.0
C622 C 0.02092 0.84693 0.23168 0.0
C623 C 0.01862 0.84998 0.21565 0.0
C624 C 0.01062 0.85304 0.24286 0.0
C625 C -0.0023 0.86206 0.23816 0.0
C626 C -0.00427 0.86559 0.22223 0.0
C627 C 0.00615 0.85973 0.2111 0.0
H628 H 0.35915 0.69789 0.48634 0.0
H629 H 0.35298 0.73141 0.52365 0.0
H630 H 0.36721 0.71898 0.46876 0.0
H631 H 0.36146 0.75246 0.50603 0.0
H632 H 0.39421 0.78026 0.47025 0.0
H633 H 0.38763 0.7594 0.4889 0.0
H634 H 0.35045 0.74408 0.45847 0.0
H635 H 0.35684 0.76511 0.43995 0.0
C636 C 0.35981 0.7097 0.49089 0.0
C637 C 0.35541 0.71299 0.50639 0.0
C638 C 0.36431 0.72176 0.48077 0.0
C639 C 0.36482 0.7373 0.48605 0.0
C640 C 0.36115 0.74054 0.50172 0.0
C641 C 0.35631 0.72851 0.51177 0.0
C642 C 0.38468 0.77238 0.46755 0.0
C643 C 0.37613 0.77414 0.45361 0.0
C644 C 0.38087 0.76056 0.47824 0.0
C645 C 0.36864 0.75012 0.47501 0.0
C646 C 0.36003 0.75193 0.46112 0.0
C647 C 0.36362 0.76397 0.4506 0.0
H648 H 0.51906 0.12245 0.77355 0.0
H649 H 0.49844 0.07633 0.77157 0.0
H650 H 0.49718 0.13293 0.75859 0.0
H651 H 0.47634 0.08689 0.75698 0.0
H652 H 0.45511 0.10716 0.71112 0.0
H653 H 0.47261 0.09611 0.73073 0.0
H654 H 0.46985 0.13903 0.75728 0.0
H655 H 0.45269 0.15023 0.73744 0.0
C656 C 0.50968 0.11461 0.77025 0.0
C657 C 0.51061 0.09852 0.77361 0.0
C658 C 0.49707 0.12063 0.7617 0.0
C659 C 0.48505 0.11072 0.7564 0.0
C660 C 0.48554 0.0948 0.76058 0.0
C661 C 0.49818 0.08877 0.76905 0.0
C662 C 0.45801 0.11414 0.72127 0.0
C663 C 0.45264 0.12964 0.7226 0.0
C664 C 0.46802 0.10779 0.73258 0.0
C665 C 0.4728 0.11674 0.74554 0.0
C666 C 0.46667 0.13192 0.7473 0.0
C667 C 0.45675 0.1383 0.73596 0.0
H668 H 0.11768 0.20516 0.96249 0.0
H669 H 0.07265 0.20831 0.98526 0.0
H670 H 0.12909 0.22132 0.98298 0.0
H671 H 0.08413 0.22411 0.00592 0.0
H672 H 0.10523 0.2704 0.0246 0.0
H673 H 0.0936 0.25054 0.00787 0.0
H674 H 0.13627 0.22343 0.01018 0.0
H675 H 0.14803 0.24348 0.02661 0.0
C676 C 0.11028 0.20902 0.97202 0.0
C677 C 0.09422 0.20558 0.97213 0.0
C678 C 0.11684 0.21825 0.98383 0.0
C679 C 0.10749 0.22416 -0.00397 0.0
C680 C 0.0916 0.22003 -0.00347 0.0
C681 C 0.08504 0.21088 0.98472 0.0
C682 C 0.11205 0.2601 0.02174 0.0
C683 C 0.12761 0.25862 0.02684 0.0
C684 C 0.10536 0.24865 0.01219 0.0
C685 C 0.11405 0.23543 0.00756 0.0
C686 C 0.12935 0.2336 0.01328 0.0
C687 C 0.13605 0.24506 0.02279 0.0
H688 H 0.24017 0.03376 0.13536 0.0
H689 H 0.27773 0.00356 0.11997 0.0
H690 H 0.22104 0.01464 0.12594 0.0
H691 H 0.25863 0.98449 0.11082 0.0
H692 H 0.22138 0.94656 0.1175 0.0
H693 H 0.23861 0.9674 0.12652 0.0
H694 H 0.21254 0.00111 0.0993 0.0
H695 H 0.19532 0.9802 0.09001 0.0
C696 C 0.24434 0.02317 0.12979 0.0
C697 C 0.26048 0.02016 0.12846 0.0
C698 C 0.23339 0.01225 0.12442 0.0
C699 C 0.2384 -0.00197 0.11788 0.0
C700 C 0.25449 -0.00472 0.11604 0.0
C701 C 0.26541 0.00628 0.12115 0.0
C702 C 0.21913 0.95843 0.1136 0.0
C703 C 0.20701 0.9617 0.10296 0.0
C704 C 0.22909 0.97033 0.11867 0.0
C705 C 0.227 0.98579 0.11342 0.0
C706 C 0.21439 0.98926 0.10348 0.0
C707 C 0.20456 0.9773 0.09819 0.0
H708 H 0.27578 0.98714 0.34925 0.0
H709 H 0.23849 0.95424 0.34022 0.0
H710 H 0.25732 0.00448 0.3623 0.0
H711 H 0.22 0.97169 0.35351 0.0
H712 H 0.19909 0.00225 0.39527 0.0
H713 H 0.21562 0.98335 0.3815 0.0
H714 H 0.23372 0.0205 0.35238 0.0
H715 H 0.21721 0.03938 0.36596 0.0
C716 C 0.26368 0.98352 0.35019 0.0
C717 C 0.2586 0.96933 0.34365 0.0
C718 C 0.2531 -0.00648 0.35756 0.0
C719 C 0.23723 0.98949 0.35873 0.0
C720 C 0.23219 0.97506 0.35272 0.0
C721 C 0.24276 0.96511 0.34513 0.0
C722 C 0.20643 0.00635 0.38578 0.0
C723 C 0.20691 0.02234 0.38178 0.0
C724 C 0.21585 -0.00448 0.3779 0.0
C725 C 0.22606 0.00053 0.36604 0.0
C726 C 0.2261 0.01639 0.36164 0.0
C727 C 0.21656 0.02716 0.36936 0.0
H728 H 0.2537 0.02768 0.6088 0.0
H729 H 0.28134 0.99038 0.58873 0.0
H730 H 0.23543 0.0084 0.61933 0.0
H731 H 0.26311 0.97108 0.59955 0.0
H732 H 0.23342 0.94422 0.6386 0.0
H733 H 0.25301 0.96195 0.6275 0.0
H734 H 0.21636 0.98875 0.60529 0.0
H735 H 0.19677 0.97096 0.61611 0.0
C736 C 0.25603 0.01537 0.60685 0.0
C737 C 0.26895 0.01056 0.5979 0.0
C738 C 0.24549 0.00436 0.61276 0.0
C739 C 0.2478 0.9883 0.61008 0.0
C740 C 0.26107 0.9834 0.60174 0.0
C741 C 0.27148 -0.00555 0.59557 0.0
C742 C 0.22956 0.95375 0.63115 0.0
C743 C 0.21354 0.95621 0.62826 0.0
C744 C 0.24077 0.96387 0.62482 0.0
C745 C 0.23614 0.97679 0.61573 0.0
C746 C 0.22019 0.97896 0.61243 0.0
C747 C 0.20901 0.9687 0.61852 0.0
H748 H 0.23566 0.01935 0.82427 0.0
H749 H 0.21037 0.02286 0.86791 0.0
H750 H 0.25545 0.00326 0.837 0.0
H751 H 0.22993 0.00636 0.88055 0.0
H752 H 0.27213 0.984 0.90234 0.0
H753 H 0.25633 0.00397 0.88948 0.0
H754 H 0.25726 0.97706 0.84673 0.0
H755 H 0.27346 0.95731 0.85947 0.0
C756 C 0.23436 0.01677 0.83662 0.0
C757 C 0.22135 0.0223 0.84505 0.0
C758 C 0.24568 0.00745 0.84389 0.0
C759 C 0.24423 0.00335 0.85976 0.0
C760 C 0.23154 0.00941 0.86835 0.0
C761 C 0.22026 0.01883 0.86108 0.0
C762 C 0.26914 0.98244 0.89013 0.0
C763 C 0.27397 0.96899 0.88196 0.0
C764 C 0.25998 -0.00614 0.88278 0.0
C765 C 0.25535 -0.00792 0.86711 0.0
C766 C 0.26073 0.97892 0.85877 0.0
C767 C 0.26998 0.96754 0.86609 0.0
H768 H 0.64365 0.23459 0.94926 0.0
H769 H 0.6174 0.19941 0.97445 0.0
H770 H 0.63321 0.2548 0.9667 0.0
H771 H 0.60726 0.21956 -0.00806 0.0
H772 H 0.61208 0.25584 0.03158 0.0
H773 H 0.62213 0.23726 0.01239 0.0
H774 H 0.60548 0.26682 0.9749 0.0
H775 H 0.59512 0.2854 -0.0059 0.0
C776 C 0.63552 0.2312 0.95837 0.0
C777 C 0.63138 0.21539 0.9605 0.0
C778 C 0.62956 0.24276 0.96833 0.0
C779 C 0.61962 0.23867 0.98074 0.0
C780 C 0.61507 0.22297 0.98255 0.0
C781 C 0.62078 0.21147 0.97245 0.0
C782 C 0.61073 0.25852 0.01926 0.0
C783 C 0.60276 0.27208 0.01437 0.0
C784 C 0.61636 0.24781 0.00829 0.0
C785 C 0.6144 0.25055 -0.00779 0.0
C786 C 0.6071 0.26444 0.98725 0.0
C787 C 0.60119 0.27505 -0.00176 0.0
H788 H 0.95481 0.373 0.27394 0.0
H789 H 0.95481 0.33067 0.24633 0.0
H790 H 0.97058 0.38596 0.25404 0.0
H791 H 0.97026 0.34376 0.22626 0.0
H792 H 0.01642 0.36531 0.20742 0.0
H793 H -0.00304 0.35249 0.22386 0.0
H794 H 0.97156 0.39609 0.22775 0.0
H795 H -0.00879 0.409 0.21166 0.0
C796 C 0.95791 0.36655 0.26349 0.0
C797 C 0.95366 0.35076 0.26182 0.0
C798 C 0.96691 0.374 0.25203 0.0
C799 C 0.97181 0.36586 0.23859 0.0
C800 C 0.96694 0.35028 0.23659 0.0
C801 C 0.95798 0.34282 0.24807 0.0
C802 C 0.00657 0.37211 0.2116 0.0
C803 C 0.00547 0.38821 0.20835 0.0
C804 C -0.00464 0.36474 0.22098 0.0
C805 C 0.98275 0.37329 0.22725 0.0
C806 C 0.98127 0.38923 0.22337 0.0
C807 C -0.00749 0.3966 0.21406 0.0
H808 H 0.86327 0.78585 0.4747 0.0
H809 H 0.84344 0.75049 0.44457 0.0
H810 H 0.87374 0.76541 0.49171 0.0
H811 H 0.85423 0.73 0.46159 0.0
H812 H 0.89394 0.7019 0.48994 0.0
H813 H 0.88242 0.72047 0.47133 0.0
H814 H 0.85954 0.74445 0.50938 0.0
H815 H 0.87079 0.72584 0.52798 0.0
C816 C 0.86135 0.77373 0.47156 0.0
C817 C 0.85248 0.7698 0.45829 0.0
C818 C 0.86723 0.76204 0.48139 0.0
C819 C 0.86461 0.74618 0.47803 0.0
C820 C 0.85636 0.74217 0.46442 0.0
C821 C 0.85021 0.75389 0.45471 0.0
C822 C 0.88624 0.71098 0.49431 0.0
C823 C 0.88333 0.71244 0.51045 0.0
C824 C 0.87966 0.72157 0.48365 0.0
C825 C 0.87028 0.73396 0.48898 0.0
C826 C 0.86689 0.73508 0.50502 0.0
C827 C 0.87324 0.72436 0.51563 0.0
H828 H 0.95032 0.64492 0.23887 0.0
H829 H 0.97647 0.62208 0.20212 0.0
H830 H 0.96811 0.63373 0.25838 0.0
H831 H -0.00569 0.61116 0.22162 0.0
H832 H 0.03348 0.61374 0.25867 0.0
H833 H 0.0143 0.62476 0.24054 0.0
H834 H 0.97683 0.60573 0.26853 0.0
H835 H -0.004 0.59443 0.28662 0.0
C836 C 0.95975 0.63739 0.23497 0.0
C837 C 0.96201 0.6344 0.21895 0.0
C838 C 0.9699 0.631 0.24614 0.0
C839 C 0.98265 0.62176 0.24146 0.0
C840 C 0.98466 0.61842 0.2255 0.0
C841 C 0.97436 0.62456 0.21437 0.0
C842 C 0.02116 0.61207 0.2611 0.0
C843 C 0.01626 0.60318 0.27406 0.0
C844 C 0.0102 0.61826 0.25065 0.0
C845 C -0.00587 0.61592 0.25308 0.0
C846 C 0.98917 0.60767 0.26641 0.0
C847 C 0.00014 0.60123 0.27673 0.0
H848 H 0.52381 0.3286 0.73038 0.0
H849 H 0.52509 0.37351 0.70697 0.0
H850 H 0.50916 0.3402 0.75188 0.0
H851 H 0.51011 0.385 0.72827 0.0
H852 H 0.48954 0.40448 0.77214 0.0
H853 H 0.50919 0.39254 0.75532 0.0
H854 H 0.48278 0.34943 0.75517 0.0
H855 H 0.46334 0.36124 0.77231 0.0
C856 C 0.52112 0.34099 0.72988 0.0
C857 C 0.52551 0.35009 0.71686 0.0
C858 C 0.51263 0.34761 0.74218 0.0
C859 C 0.50828 0.36348 0.74174 0.0
C860 C 0.51337 0.37277 0.7291 0.0
C861 C 0.52192 0.36616 0.71682 0.0
C862 C 0.48804 0.39237 0.76872 0.0
C863 C 0.47477 0.38386 0.77346 0.0
C864 C 0.49927 0.38556 0.75899 0.0
C865 C 0.49749 0.37009 0.75372 0.0
C866 C 0.48462 0.36133 0.75911 0.0
C867 C 0.47341 0.36813 0.7689 0.0
H868 H 0.52002 0.61166 0.76462 0.0
H869 H 0.52042 0.65681 0.74167 0.0
H870 H 0.50424 0.60111 0.74345 0.0
H871 H 0.505 0.64615 0.72026 0.0
H872 H 0.45734 0.62788 0.70139 0.0
H873 H 0.47821 0.63852 0.71749 0.0
H874 H 0.50192 0.59379 0.71654 0.0
H875 H 0.4808 0.58303 0.70079 0.0
C876 C 0.51707 0.61924 0.75487 0.0
C877 C 0.52132 0.63513 0.75496 0.0
C878 C 0.50806 0.61317 0.74266 0.0
C879 C 0.50317 0.62283 0.7302 0.0
C880 C 0.50827 0.63847 0.72982 0.0
C881 C 0.5172 0.64455 0.74207 0.0
C882 C 0.46714 0.6204 0.70435 0.0
C883 C 0.46728 0.60455 0.69997 0.0
C884 C 0.47918 0.62652 0.71355 0.0
C885 C 0.49169 0.61696 0.7185 0.0
C886 C 0.49231 0.60139 0.71323 0.0
C887 C 0.48023 0.59525 0.70411 0.0
H888 H 0.83676 0.23213 0.03085 0.0
H889 H 0.86319 0.19705 0.00576 0.0
H890 H 0.84816 0.25256 0.01422 0.0
H891 H 0.87427 0.21744 0.98906 0.0
H892 H 0.87153 0.25503 0.9502 0.0
H893 H 0.86034 0.23618 0.96856 0.0
H894 H 0.87663 0.26398 0.00734 0.0
H895 H 0.88814 0.28281 0.98898 0.0
C896 C 0.84512 0.2288 0.02193 0.0
C897 C 0.84905 0.21296 0.01959 0.0
C898 C 0.85162 0.24049 0.01244 0.0
C899 C 0.86191 0.23651 0.00028 0.0
C900 C 0.86621 0.22077 -0.00174 0.0
C901 C 0.85995 0.20913 0.0079 0.0
C902 C 0.87257 0.25726 0.96262 0.0
C903 C 0.88077 0.27039 0.96813 0.0
C904 C 0.86627 0.24641 0.97311 0.0
C905 C 0.86779 0.24858 0.98932 0.0
C906 C 0.87533 0.26206 -0.00512 0.0
C907 C 0.8819 0.2728 0.98438 0.0
H908 H 0.66594 0.74807 0.51917 0.0
H909 H 0.61921 0.76404 0.53014 0.0
H910 H 0.65513 0.72685 0.50364 0.0
H911 H 0.6084 0.7429 0.51433 0.0
H912 H 0.59297 0.69742 0.49257 0.0
H913 H 0.60524 0.71453 0.51174 0.0
H914 H 0.6418 0.7254 0.47857 0.0
H915 H 0.6297 0.70813 0.45947 0.0
C916 C 0.65334 0.74699 0.51838 0.0
C917 C 0.64344 0.75786 0.5258 0.0
C918 C 0.64716 0.73485 0.5094 0.0
C919 C 0.63092 0.73326 0.50761 0.0
C920 C 0.62098 0.74371 0.51558 0.0
C921 C 0.62717 0.75588 0.52459 0.0
C922 C 0.60378 0.70325 0.48944 0.0
C923 C 0.6103 0.70147 0.47442 0.0
C924 C 0.61073 0.71315 0.50041 0.0
C925 C 0.6244 0.72145 0.49665 0.0
C926 C 0.63134 0.71908 0.48191 0.0
C927 C 0.62437 0.7092 0.47092 0.0
H928 H 0.746 0.52795 0.6508 0.0
H929 H 0.77222 0.52829 0.60755 0.0
H930 H 0.7262 0.51148 0.63873 0.0
H931 H 0.75259 0.51149 0.5956 0.0
H932 H 0.71115 0.4874 0.57471 0.0
H933 H 0.72608 0.50861 0.58645 0.0
H934 H 0.72515 0.48445 0.63093 0.0
H935 H 0.70991 0.46344 0.6193 0.0
C936 C 0.74747 0.52465 0.63866 0.0
C937 C 0.76079 0.52932 0.63018 0.0
C938 C 0.73614 0.51512 0.63177 0.0
C939 C 0.73787 0.50999 0.61626 0.0
C940 C 0.75079 0.51533 0.60753 0.0
C941 C 0.7621 0.52492 0.61441 0.0
C942 C 0.7139 0.48673 0.58706 0.0
C943 C 0.70944 0.47363 0.59604 0.0
C944 C 0.72256 0.49885 0.59376 0.0
C945 C 0.72698 0.49817 0.60958 0.0
C946 C 0.72183 0.48546 0.61874 0.0
C947 C 0.71313 0.47334 0.61205 0.0
H948 H 0.74288 0.453 0.82807 0.0
H949 H 0.76889 0.45535 0.87134 0.0
H950 H 0.72258 0.46955 0.83929 0.0
H951 H 0.74878 0.47223 0.88242 0.0
H952 H 0.70706 0.49682 0.90202 0.0
H953 H 0.72225 0.47517 0.89138 0.0
H954 H 0.72087 0.49691 0.84568 0.0
H955 H 0.70536 0.51835 0.85623 0.0
C956 C 0.74419 0.4569 0.84005 0.0
C957 C 0.75761 0.45298 0.84875 0.0
C958 C 0.73258 0.46648 0.84644 0.0
C959 C 0.73412 0.47241 0.86168 0.0
C960 C 0.74712 0.46778 0.87069 0.0
C961 C 0.75871 0.45813 0.86431 0.0
C962 C 0.70976 0.49686 0.88964 0.0
C963 C 0.70511 0.50942 0.88 0.0
C964 C 0.71857 0.48448 0.88357 0.0
C965 C 0.72297 0.48437 0.86772 0.0
C966 C 0.71759 0.49651 0.85792 0.0
C967 C 0.70873 0.50887 0.86398 0.0
H968 H 0.77594 0.52258 0.12302 0.0
H969 H 0.77578 0.49727 0.0793 0.0
H970 H 0.75933 0.50254 0.13467 0.0
H971 H 0.75954 0.47702 0.09107 0.0
H972 H 0.71256 0.45835 0.11071 0.0
H973 H 0.73276 0.47481 0.09915 0.0
H974 H 0.75712 0.47593 0.14343 0.0
H975 H 0.73671 0.45983 0.15509 0.0
C976 C 0.77263 0.51258 0.11599 0.0
C977 C 0.77707 0.51162 0.10019 0.0
C978 C 0.76315 0.50103 0.12268 0.0
C979 C 0.75796 0.4882 0.11376 0.0
C980 C 0.76304 0.48688 0.09819 0.0
C981 C 0.77245 0.49846 0.09148 0.0
C982 C 0.72234 0.46191 0.11792 0.0
C983 C 0.72292 0.45789 0.13386 0.0
C984 C 0.73398 0.47132 0.11128 0.0
C985 C 0.74652 0.47684 0.1204 0.0
C986 C 0.74748 0.47216 0.13615 0.0
C987 C 0.73581 0.46283 0.1428 0.0
H988 H 0.731 0.53401 0.34237 0.0
H989 H 0.69663 0.50196 0.36112 0.0
H990 H 0.75196 0.51734 0.35269 0.0
H991 H 0.71752 0.48538 0.37123 0.0
H992 H 0.75763 0.45046 0.36919 0.0
H993 H 0.73855 0.46853 0.358 0.0
H994 H 0.76235 0.50743 0.37956 0.0
H995 H 0.78148 0.48935 0.39092 0.0
C996 C 0.72791 0.52352 0.3488 0.0
C997 C 0.71214 0.5193 0.35089 0.0
C998 C 0.7399 0.514 0.35469 0.0
C999 C 0.73633 0.49998 0.36255 0.0
C1000 C 0.72059 0.49599 0.36498 0.0
C1001 C 0.70863 0.50558 0.35931 0.0
C1002 C 0.75897 0.46288 0.37137 0.0
C1003 C 0.77102 0.46845 0.38105 0.0
C1004 C 0.74796 0.4732 0.36506 0.0
C1005 C 0.74887 0.48934 0.3681 0.0
C1006 C 0.76139 0.49504 0.37705 0.0
C1007 C 0.77231 0.48468 0.38355 0.0
H1008 H 0.16046 0.09797 0.35636 0.0
H1009 H 0.12841 0.07779 0.38984 0.0
H1010 H 0.13848 0.10787 0.34115 0.0
H1011 H 0.10641 0.08831 0.37508 0.0
H1012 H 0.06927 0.09708 0.33846 0.0
H1013 H 0.09161 0.08582 0.35214 0.0
H1014 H 0.11886 0.12702 0.34107 0.0
H1015 H 0.09672 0.13788 0.32679 0.0
C1016 C 0.1487 0.09576 0.36054 0.0
C1017 C 0.14618 0.0871 0.37431 0.0
C1018 C 0.13607 0.10152 0.35186 0.0
C1019 C 0.12058 0.09897 0.35685 0.0
C1020 C 0.11811 0.09029 0.37067 0.0
C1021 C 0.13074 0.08434 0.37922 0.0
C1022 C 0.08008 0.10368 0.33888 0.0
C1023 C 0.08123 0.11837 0.33154 0.0
C1024 C 0.09288 0.09727 0.34684 0.0
C1025 C 0.1071 0.10551 0.34784 0.0
C1026 C 0.10823 0.12018 0.34037 0.0
C1027 C 0.09549 0.12648 0.33223 0.0
H1028 H 0.11501 0.81863 0.60027 0.0
H1029 H 0.10216 0.84913 0.56196 0.0
H1030 H 0.12885 0.84016 0.61273 0.0
H1031 H 0.11637 0.87059 0.57422 0.0
H1032 H 0.12686 0.90934 0.60991 0.0
H1033 H 0.11421 0.88779 0.59628 0.0
H1034 H 0.15144 0.85669 0.61074 0.0
H1035 H 0.16387 0.87818 0.62474 0.0
C1036 C 0.11527 0.82989 0.59442 0.0
C1037 C 0.10742 0.83216 0.58014 0.0
C1038 C 0.1233 0.84224 0.60153 0.0
C1039 C 0.12373 0.85716 0.59451 0.0
C1040 C 0.11609 0.85934 0.58009 0.0
C1041 C 0.10802 0.847 0.573 0.0
C1042 C 0.13239 0.89793 0.61013 0.0
C1043 C 0.14635 0.89549 0.61847 0.0
C1044 C 0.12517 0.88556 0.60223 0.0
C1045 C 0.13177 0.87045 0.60241 0.0
C1046 C 0.14589 0.8681 0.61054 0.0
C1047 C 0.15308 0.88045 0.61849 0.0
H1048 H 0.38178 0.85564 0.8121 0.0
H1049 H 0.41288 0.86733 0.85013 0.0
H1050 H 0.36083 0.87039 0.82467 0.0
H1051 H 0.39184 0.88168 0.86292 0.0
H1052 H 0.35498 0.91785 0.87545 0.0
H1053 H 0.37599 0.90477 0.86128 0.0
H1054 H 0.34372 0.86869 0.8468 0.0
H1055 H 0.32264 0.88202 0.8606 0.0
C1056 C 0.38415 0.86135 0.82315 0.0
C1057 C 0.39901 0.86029 0.83012 0.0
C1058 C 0.3721 0.86973 0.83042 0.0
C1059 C 0.37459 0.8772 0.84485 0.0
C1060 C 0.38953 0.87628 0.85171 0.0
C1061 C 0.40159 0.86796 0.84441 0.0
C1062 C 0.35235 0.90717 0.86918 0.0
C1063 C 0.33713 0.90097 0.86918 0.0
C1064 C 0.36443 0.8996 0.86112 0.0
C1065 C 0.3616 0.88562 0.85292 0.0
C1066 C 0.34631 0.87954 0.85279 0.0
C1067 C 0.33422 0.88714 0.86079 0.0
H1068 H 0.36263 0.15332 0.09447 0.0
H1069 H 0.37648 0.11985 0.05925 0.0
H1070 H 0.34784 0.133 0.10797 0.0
H1071 H 0.36134 0.09961 0.07252 0.0
H1072 H 0.34866 0.06379 0.11065 0.0
H1073 H 0.36226 0.08408 0.09593 0.0
H1074 H 0.32504 0.11673 0.10634 0.0
H1075 H 0.31164 0.09653 0.12143 0.0
C1076 C 0.36239 0.14166 0.08951 0.0
C1077 C 0.37079 0.1382 0.07581 0.0
C1078 C 0.35382 0.13001 0.09721 0.0
C1079 C 0.3534 0.11463 0.09137 0.0
C1080 C 0.36159 0.11126 0.0775 0.0
C1081 C 0.37021 0.12289 0.06983 0.0
C1082 C 0.34333 0.07528 0.10974 0.0
C1083 C 0.32908 0.07854 0.11727 0.0
C1084 C 0.3511 0.08691 0.10121 0.0
C1085 C 0.34479 0.10208 0.09994 0.0
C1086 C 0.33038 0.10526 0.10726 0.0
C1087 C 0.32264 0.09364 0.11584 0.0
H1088 H 0.15978 0.88636 0.13464 0.0
H1089 H 0.1306 0.90084 0.09599 0.0
H1090 H 0.13706 0.87519 0.14773 0.0
H1091 H 0.108 0.88902 0.10864 0.0
H1092 H 0.06724 0.8774 0.1401 0.0
H1093 H 0.08986 0.89072 0.12901 0.0
H1094 H 0.11993 0.85393 0.14666 0.0
H1095 H 0.09738 0.84109 0.15837 0.0
C1096 C 0.1485 0.8871 0.12891 0.0
C1097 C 0.14699 0.89447 0.11427 0.0
C1098 C 0.13546 0.88058 0.13636 0.0
C1099 C 0.1206 0.88107 0.12926 0.0
C1100 C 0.11913 0.88861 0.11465 0.0
C1101 C 0.13213 0.89533 0.10732 0.0
C1102 C 0.07871 0.87223 0.14169 0.0
C1103 C 0.08051 0.85818 0.15011 0.0
C1104 C 0.0917 0.87981 0.13523 0.0
C1105 C 0.10681 0.87341 0.13681 0.0
C1106 C 0.10857 0.8594 0.14538 0.0
C1107 C 0.0956 0.85195 0.15203 0.0
H1108 H 0.34745 0.83275 0.3732 0.0
H1109 H 0.35601 0.86409 0.41186 0.0
H1110 H 0.33519 0.85406 0.35866 0.0
H1111 H 0.34344 0.88532 0.39745 0.0
H1112 H 0.33981 0.92297 0.35916 0.0
H1113 H 0.34972 0.90134 0.37492 0.0
H1114 H 0.31284 0.87159 0.35746 0.0
H1115 H 0.3031 0.89319 0.3414 0.0
C1116 C 0.3465 0.84413 0.3787 0.0
C1117 C 0.35281 0.84674 0.39365 0.0
C1118 C 0.33941 0.85634 0.37038 0.0
C1119 C 0.33844 0.87145 0.37683 0.0
C1120 C 0.34425 0.8739 0.39202 0.0
C1121 C 0.35136 0.8617 0.40033 0.0
C1122 C 0.33378 0.91183 0.3587 0.0
C1123 C 0.32069 0.9098 0.34898 0.0
C1124 C 0.3394 0.89945 0.36783 0.0
C1125 C 0.33205 0.88473 0.3675 0.0
C1126 C 0.31887 0.88273 0.35787 0.0
C1127 C 0.31325 0.89513 0.34871 0.0
H1128 H 0.34663 0.05875 0.60595 0.0
H1129 H 0.31565 0.09703 0.61751 0.0
H1130 H 0.3673 0.07076 0.62146 0.0
H1131 H 0.33642 0.10926 0.63263 0.0
H1132 H 0.37232 0.12083 0.66984 0.0
H1133 H 0.35157 0.107 0.65606 0.0
H1134 H 0.38471 0.09269 0.62066 0.0
H1135 H 0.40551 0.10614 0.63468 0.0
C1136 C 0.34423 0.06974 0.61179 0.0
C1137 C 0.32948 0.07693 0.61047 0.0
C1138 C 0.35612 0.07668 0.62061 0.0
C1139 C 0.35358 0.09103 0.62829 0.0
C1140 C 0.33875 0.09811 0.62709 0.0
C1141 C 0.32685 0.09114 0.61833 0.0
C1142 C 0.37519 0.11465 0.65917 0.0
C1143 C 0.39058 0.11462 0.65335 0.0
C1144 C 0.36327 0.10679 0.6512 0.0
C1145 C 0.36641 0.09877 0.63718 0.0
C1146 C 0.38187 0.09855 0.63152 0.0
C1147 C 0.3938 0.10635 0.63952 0.0
H1148 H 0.11971 0.15981 0.88419 0.0
H1149 H 0.1062 0.12571 0.91906 0.0
H1150 H 0.13438 0.13973 0.87027 0.0
H1151 H 0.12127 0.10571 0.90541 0.0
H1152 H 0.1341 0.07039 0.86717 0.0
H1153 H 0.1204 0.09046 0.88205 0.0
H1154 H 0.15713 0.1235 0.87129 0.0
H1155 H 0.17058 0.10353 0.856 0.0
C1156 C 0.12001 0.14806 0.88899 0.0
C1157 C 0.11173 0.14436 0.90271 0.0
C1158 C 0.12851 0.13654 0.88104 0.0
C1159 C 0.12902 0.12104 0.88668 0.0
C1160 C 0.12094 0.11744 0.90058 0.0
C1161 C 0.11237 0.12894 0.90847 0.0
C1162 C 0.13928 0.08192 0.86802 0.0
C1163 C 0.15341 0.08536 0.86034 0.0
C1164 C 0.13147 0.09343 0.87665 0.0
C1165 C 0.13763 0.10865 0.87789 0.0
C1166 C 0.1519 0.112 0.87039 0.0
C1167 C 0.15967 0.10051 0.8617 0.0
H1168 H 0.05579 0.37783 0.12779 0.0
H1169 H 0.09226 0.36566 0.16063 0.0
H1170 H 0.06866 0.36217 0.10774 0.0
H1171 H 0.10539 0.3504 0.14047 0.0
H1172 H 0.11804 0.3128 0.10521 0.0
H1173 H 0.10361 0.32698 0.1253 0.0
H1174 H 0.09134 0.36256 0.09138 0.0
H1175 H 0.10538 0.34813 0.07122 0.0
C1176 C 0.06658 0.37184 0.13072 0.0
C1177 C 0.073 0.37301 0.14581 0.0
C1178 C 0.07402 0.36293 0.11919 0.0
C1179 C 0.08811 0.35503 0.12244 0.0
C1180 C 0.09444 0.35612 0.13759 0.0
C1181 C 0.08696 0.36496 0.14914 0.0
C1182 C 0.11219 0.32361 0.10203 0.0
C1183 C 0.11288 0.32934 0.08661 0.0
C1184 C 0.10399 0.3318 0.11358 0.0
C1185 C 0.09634 0.34597 0.11001 0.0
C1186 C 0.09689 0.35159 0.09453 0.0
C1187 C 0.10503 0.34335 0.08297 0.0
H1188 H 0.57573 0.09515 0.85063 0.0
H1189 H 0.58698 0.13507 0.82164 0.0
H1190 H 0.58858 0.10751 0.87277 0.0
H1191 H 0.59925 0.14781 0.84395 0.0
H1192 H 0.63547 0.15818 0.88181 0.0
H1193 H 0.6217 0.14665 0.85976 0.0
H1194 H 0.58714 0.12759 0.89144 0.0
H1195 H 0.60135 0.13857 0.91352 0.0
C1196 C 0.58077 0.10667 0.84904 0.0
C1197 C 0.58038 0.11409 0.83435 0.0
C1198 C 0.58807 0.11384 0.86179 0.0
C1199 C 0.59502 0.12871 0.86023 0.0
C1200 C 0.59432 0.13624 0.84557 0.0
C1201 C 0.58717 0.12899 0.83278 0.0
C1202 C 0.6249 0.15157 0.88405 0.0
C1203 C 0.61955 0.14924 0.89943 0.0
C1204 C 0.61691 0.14502 0.87138 0.0
C1205 C 0.60326 0.13612 0.87373 0.0
C1206 C 0.59776 0.13409 0.88914 0.0
C1207 C 0.60585 0.14048 0.90182 0.0
H1208 H 0.88047 0.84475 0.41076 0.0
H1209 H 0.84276 0.82858 0.38141 0.0
H1210 H 0.89364 0.85561 0.38792 0.0
H1211 H 0.85546 0.84009 0.35865 0.0
H1212 H 0.88728 0.8514 0.31805 0.0
H1213 H 0.87617 0.83841 0.34089 0.0
H1214 H 0.89229 0.87637 0.37013 0.0
H1215 H 0.90402 0.88889 0.34739 0.0
C1216 C 0.87496 0.84358 0.39942 0.0
C1217 C 0.86057 0.83582 0.3979 0.0
C1218 C 0.88246 0.84991 0.3863 0.0
C1219 C 0.87563 0.84886 0.37135 0.0
C1220 C 0.86126 0.84094 0.36986 0.0
C1221 C 0.8539 0.8344 0.38295 0.0
C1222 C 0.88853 0.8569 0.32939 0.0
C1223 C 0.89652 0.87118 0.33091 0.0
C1224 C 0.88205 0.84951 0.34251 0.0
C1225 C 0.8832 0.85633 0.35745 0.0
C1226 C 0.89135 0.87057 0.35892 0.0
C1227 C 0.89802 0.87783 0.34584 0.0
H1228 H 0.87825 0.13564 0.06512 0.0
H1229 H 0.84386 0.15414 0.09716 0.0
H1230 H 0.89268 0.1244 0.087 0.0
H1231 H 0.85784 0.14232 0.11902 0.0
H1232 H 0.89284 0.13045 0.1569 0.0
H1233 H 0.88024 0.14344 0.13483 0.0
H1234 H 0.89171 0.10397 0.10534 0.0
H1235 H 0.9049 0.09139 0.12725 0.0
C1236 C 0.87373 0.13724 0.07685 0.0
C1237 C 0.8599 0.14577 0.07939 0.0
C1238 C 0.88195 0.13069 0.08942 0.0
C1239 C 0.87644 0.13233 0.10486 0.0
C1240 C 0.86264 0.14099 0.10737 0.0
C1241 C 0.85453 0.14771 0.09481 0.0
C1242 C 0.89274 0.12461 0.14567 0.0
C1243 C 0.89987 0.10989 0.14383 0.0
C1244 C 0.88541 0.132 0.13301 0.0
C1245 C 0.88484 0.12477 0.11823 0.0
C1246 C 0.89211 0.11007 0.11642 0.0
C1247 C 0.89961 0.10278 0.12903 0.0
H1248 H 0.40615 0.59791 0.62115 0.0
H1249 H 0.39209 0.6383 0.64803 0.0
H1250 H 0.39442 0.60937 0.59784 0.0
H1251 H 0.38092 0.65014 0.62458 0.0
H1252 H 0.34677 0.65833 0.58411 0.0
H1253 H 0.35952 0.64794 0.60741 0.0
H1254 H 0.39661 0.62903 0.57867 0.0
H1255 H 0.38346 0.63886 0.55535 0.0
C1256 C 0.40073 0.60935 0.62204 0.0
C1257 C 0.40001 0.61716 0.63646 0.0
C1258 C 0.39407 0.616 0.60862 0.0
C1259 C 0.38667 0.63073 0.60924 0.0
C1260 C 0.38624 0.63866 0.62366 0.0
C1261 C 0.39275 0.63193 0.63711 0.0
C1262 C 0.35769 0.65201 0.58279 0.0
C1263 C 0.36406 0.64936 0.56787 0.0
C1264 C 0.36507 0.64612 0.59618 0.0
C1265 C 0.37912 0.63756 0.59501 0.0
C1266 C 0.38566 0.63526 0.58006 0.0
C1267 C 0.37818 0.641 0.56667 0.0
H1268 H 0.11314 0.62917 0.41268 0.0
H1269 H 0.12763 0.66692 0.38224 0.0
H1270 H 0.09941 0.61694 0.39096 0.0
H1271 H 0.11353 0.65492 0.36059 0.0
H1272 H 0.1028 0.61933 0.32184 0.0
H1273 H 0.1154 0.63272 0.34357 0.0
H1274 H 0.07723 0.6194 0.37396 0.0
H1275 H 0.06485 0.60564 0.3523 0.0
C1276 C 0.11327 0.63495 0.40139 0.0
C1277 C 0.12154 0.649 0.3992 0.0
C1278 C 0.1053 0.62798 0.38893 0.0
C1279 C 0.10536 0.63491 0.37397 0.0
C1280 C 0.11343 0.64911 0.37187 0.0
C1281 C 0.12144 0.65605 0.38432 0.0
C1282 C 0.09705 0.61932 0.33314 0.0
C1283 C 0.08284 0.61136 0.33534 0.0
C1284 C 0.10424 0.62708 0.3456 0.0
C1285 C 0.09737 0.62714 0.36056 0.0
C1286 C 0.083 0.6194 0.36267 0.0
C1287 C 0.07584 0.61158 0.35022 0.0
H1288 H 0.38723 0.35907 0.81789 0.0
H1289 H 0.42146 0.37187 0.85273 0.0
H1290 H 0.37337 0.34342 0.83729 0.0
H1291 H 0.40783 0.35588 0.87206 0.0
H1292 H 0.36907 0.34119 0.9063 0.0
H1293 H 0.38397 0.35592 0.88695 0.0
H1294 H 0.37511 0.31988 0.85269 0.0
H1295 H 0.35985 0.30535 0.87194 0.0
C1296 C 0.39188 0.35843 0.82966 0.0
C1297 C 0.40543 0.36677 0.83376 0.0
C1298 C 0.38398 0.34937 0.84078 0.0
C1299 C 0.38946 0.34838 0.85627 0.0
C1300 C 0.40314 0.35656 0.86031 0.0
C1301 C 0.41102 0.36566 0.84919 0.0
C1302 C 0.37035 0.33637 0.89466 0.0
C1303 C 0.36322 0.32211 0.89066 0.0
C1304 C 0.37898 0.34478 0.88357 0.0
C1305 C 0.38074 0.33912 0.86822 0.0
C1306 C 0.3738 0.32472 0.86432 0.0
C1307 C 0.36513 0.31633 0.87539 0.0
H1308 H 0.59904 0.63536 0.81808 0.0
H1309 H 0.56729 0.59891 0.83283 0.0
H1310 H 0.62059 0.62167 0.83076 0.0
H1311 H 0.58894 0.58484 0.84498 0.0
H1312 H 0.6274 0.57303 0.88024 0.0
H1313 H 0.60583 0.58589 0.86676 0.0
H1314 H 0.63725 0.59967 0.82955 0.0
H1315 H 0.65892 0.58733 0.84341 0.0
C1316 C 0.59669 0.62432 0.82387 0.0
C1317 C 0.58143 0.61826 0.82449 0.0
C1318 C 0.60909 0.61638 0.83108 0.0
C1319 C 0.60657 0.6021 0.83895 0.0
C1320 C 0.59131 0.59593 0.8393 0.0
C1321 C 0.57889 0.60395 0.83223 0.0
C1322 C 0.62968 0.57876 0.86916 0.0
C1323 C 0.64489 0.5792 0.86293 0.0
C1324 C 0.61728 0.58607 0.86135 0.0
C1325 C 0.61973 0.59388 0.84703 0.0
C1326 C 0.63492 0.59404 0.84068 0.0
C1327 C 0.64736 0.58687 0.84858 0.0
H1328 H 0.62096 0.31889 0.10103 0.0
H1329 H 0.60923 0.3495 0.06244 0.0
H1330 H 0.63547 0.34004 0.11336 0.0
H1331 H 0.62415 0.37055 0.07454 0.0
H1332 H 0.63604 0.40928 0.10976 0.0
H1333 H 0.62269 0.38808 0.09625 0.0
H1334 H 0.65852 0.35571 0.1115 0.0
H1335 H 0.6716 0.37685 0.12541 0.0
C1336 C 0.62162 0.33009 0.09509 0.0
C1337 C 0.61388 0.33251 0.08077 0.0
C1338 C 0.63003 0.34222 0.10212 0.0
C1339 C 0.631 0.35706 0.09497 0.0
C1340 C 0.62347 0.35937 0.08051 0.0
C1341 C 0.61498 0.34726 0.07351 0.0
C1342 C 0.64111 0.39765 0.11017 0.0
C1343 C 0.65486 0.39476 0.11872 0.0
C1344 C 0.63349 0.38549 0.10234 0.0
C1345 C 0.63948 0.37013 0.10279 0.0
C1346 C 0.65341 0.36732 0.1111 0.0
C1347 C 0.66098 0.37947 0.119 0.0
H1348 H 0.81802 0.38133 0.36637 0.0
H1349 H 0.84895 0.41996 0.37651 0.0
H1350 H 0.83888 0.3684 0.3519 0.0
H1351 H 0.86971 0.40723 0.36165 0.0
H1352 H 0.90798 0.37139 0.34992 0.0
H1353 H 0.88705 0.38518 0.3635 0.0
H1354 H 0.85414 0.36988 0.32837 0.0
H1355 H 0.875 0.35573 0.31504 0.0
C1356 C 0.82923 0.38714 0.36539 0.0
C1357 C 0.83183 0.40166 0.37264 0.0
C1358 C 0.84118 0.37976 0.357 0.0
C1359 C 0.85601 0.38675 0.3556 0.0
C1360 C 0.85852 0.40139 0.36268 0.0
C1361 C 0.84658 0.40874 0.37113 0.0
C1362 C 0.89629 0.37101 0.34506 0.0
C1363 C 0.89316 0.36241 0.33142 0.0
C1364 C 0.88429 0.379 0.35281 0.0
C1365 C 0.86887 0.37864 0.34706 0.0
C1366 C 0.86581 0.37022 0.33328 0.0
C1367 C 0.8778 0.36217 0.32557 0.0
H1368 H 0.81404 0.60922 0.62266 0.0
H1369 H 0.84882 0.57566 0.60776 0.0
H1370 H 0.82781 0.62984 0.60852 0.0
H1371 H 0.86283 0.59634 0.59399 0.0
H1372 H 0.87699 0.63418 0.55926 0.0
H1373 H 0.86168 0.61363 0.57186 0.0
H1374 H 0.85142 0.64485 0.61025 0.0
H1375 H 0.86636 0.66549 0.59745 0.0
C1376 C 0.82463 0.60624 0.61637 0.0
C1377 C 0.83034 0.59079 0.61636 0.0
C1378 C 0.8326 0.61809 0.60834 0.0
C1379 C 0.84649 0.6148 0.60015 0.0
C1380 C 0.85207 0.59929 0.59999 0.0
C1381 C 0.84407 0.58743 0.60797 0.0
C1382 C 0.87141 0.63668 0.57036 0.0
C1383 C 0.87292 0.65148 0.57735 0.0
C1384 C 0.8627 0.62486 0.57764 0.0
C1385 C 0.85533 0.62754 0.59211 0.0
C1386 C 0.85674 0.64241 0.59901 0.0
C1387 C 0.86539 0.65424 0.59171 0.0
H1388 H 0.63207 0.41041 0.59245 0.0
H1389 H 0.66318 0.39503 0.62922 0.0
H1390 H 0.61029 0.39752 0.60551 0.0
H1391 H 0.6413 0.38268 0.64267 0.0
H1392 H 0.60264 0.34747 0.65352 0.0
H1393 H 0.62441 0.36097 0.64106 0.0
H1394 H 0.59328 0.39846 0.62718 0.0
H1395 H 0.57141 0.38459 0.63909 0.0
C1396 C 0.63422 0.40443 0.60343 0.0
C1397 C 0.64937 0.4037 0.60976 0.0
C1398 C 0.6217 0.3971 0.611 0.0
C1399 C 0.62397 0.389 0.62519 0.0
C1400 C 0.63912 0.38853 0.63164 0.0
C1401 C 0.65167 0.39572 0.62397 0.0
C1402 C 0.60046 0.35862 0.64784 0.0
C1403 C 0.58528 0.36493 0.64725 0.0
C1404 C 0.61297 0.36643 0.64076 0.0
C1405 C 0.61067 0.38085 0.63306 0.0
C1406 C 0.59549 0.38726 0.63272 0.0
C1407 C 0.58294 0.37936 0.63965 0.0
H1408 H 0.87435 0.34854 0.92073 0.0
H1409 H 0.86483 0.31794 0.88171 0.0
H1410 H 0.85887 0.36915 0.90836 0.0
H1411 H 0.84974 0.33866 0.86915 0.0
H1412 H 0.81208 0.37405 0.85679 0.0
H1413 H 0.82588 0.35332 0.8708 0.0
H1414 H 0.8601 0.38693 0.88664 0.0
H1415 H 0.84605 0.40771 0.873 0.0
C1416 C 0.86897 0.34622 0.9095 0.0
C1417 C 0.87084 0.3316 0.9022 0.0
C1418 C 0.86017 0.35807 0.90236 0.0
C1419 C 0.85307 0.35561 0.88772 0.0
C1420 C 0.85483 0.34091 0.88052 0.0
C1421 C 0.86358 0.32905 0.88769 0.0
C1422 C 0.8225 0.37703 0.86334 0.0
C1423 C 0.82797 0.39254 0.86375 0.0
C1424 C 0.83048 0.36512 0.8713 0.0
C1425 C 0.84417 0.3684 0.87981 0.0
C1426 C 0.8495 0.38398 0.88039 0.0
C1427 C 0.84148 0.3959 0.87248 0.0
H1428 H 0.9151 0.61526 0.13222 0.0
H1429 H 0.88431 0.62723 0.17046 0.0
H1430 H 0.89412 0.60046 0.11996 0.0
H1431 H 0.86343 0.61203 0.15843 0.0
H1432 H 0.82497 0.59928 0.12319 0.0
H1433 H 0.84598 0.61305 0.13658 0.0
H1434 H 0.87868 0.57725 0.12213 0.0
H1435 H 0.85773 0.56373 0.10835 0.0
C1436 C 0.90389 0.61461 0.1381 0.0
C1437 C 0.90138 0.62248 0.1523 0.0
C1438 C 0.89187 0.60602 0.13111 0.0
C1439 C 0.87703 0.60503 0.13818 0.0
C1440 C 0.87461 0.61272 0.15252 0.0
C1441 C 0.88662 0.62137 0.15947 0.0
C1442 C 0.83663 0.5943 0.12293 0.0
C1443 C 0.83967 0.58043 0.11464 0.0
C1444 C 0.84868 0.60216 0.13069 0.0
C1445 C 0.86408 0.5963 0.13043 0.0
C1446 C 0.86704 0.58225 0.12237 0.0
C1447 C 0.855 0.57444 0.11455 0.0
H1448 H 0.59726 0.62548 0.41163 0.0
H1449 H 0.63407 0.65537 0.39421 0.0
H1450 H 0.60841 0.60342 0.39754 0.0
H1451 H 0.64575 0.63314 0.3807 0.0
H1452 H 0.65292 0.59455 0.34455 0.0
H1453 H 0.64247 0.61667 0.35913 0.0
H1454 H 0.62888 0.58535 0.39658 0.0
H1455 H 0.63864 0.5632 0.38159 0.0
C1456 C 0.60788 0.62728 0.40496 0.0
C1457 C 0.61476 0.64218 0.40401 0.0
C1458 C 0.61437 0.61459 0.39693 0.0
C1459 C 0.62804 0.6164 0.38793 0.0
C1460 C 0.63507 0.6313 0.38724 0.0
C1461 C 0.62844 0.64405 0.39509 0.0
C1462 C 0.64772 0.59242 0.35591 0.0
C1463 C 0.64653 0.57712 0.36188 0.0
C1464 C 0.6418 0.60513 0.36436 0.0
C1465 C 0.63475 0.60289 0.37909 0.0
C1466 C 0.6339 0.58757 0.38516 0.0
C1467 C 0.6396 0.57484 0.37661 0.0
H1468 H 0.5649 0.87125 0.63159 0.0
H1469 H 0.60283 0.86087 0.66336 0.0
H1470 H 0.57782 0.85601 0.61124 0.0
H1471 H 0.61598 0.84605 0.64291 0.0
H1472 H 0.62991 0.80938 0.60739 0.0
H1473 H 0.61503 0.82261 0.6278 0.0
H1474 H 0.59996 0.85743 0.59422 0.0
H1475 H 0.61445 0.84392 0.57375 0.0
C1476 C 0.576 0.86572 0.63423 0.0
C1477 C 0.58284 0.8673 0.6491 0.0
C1478 C 0.58347 0.85706 0.62252 0.0
C1479 C 0.598 0.84982 0.62537 0.0
C1480 C 0.60471 0.85125 0.64033 0.0
C1481 C 0.59721 0.85984 0.65206 0.0
C1482 C 0.62333 0.8198 0.60435 0.0
C1483 C 0.6234 0.82561 0.58894 0.0
C1484 C 0.61487 0.82746 0.61608 0.0
C1485 C 0.60634 0.84117 0.61272 0.0
C1486 C 0.60621 0.8468 0.59722 0.0
C1487 C 0.61461 0.83909 0.58548 0.0
H1488 H 0.9487 0.26346 0.31798 0.0
H1489 H -0.00706 0.28282 0.30307 0.0
H1490 H 0.96123 0.23808 0.32209 0.0
H1491 H 0.00527 0.25748 0.30655 0.0
H1492 H 0.02677 0.21172 0.31855 0.0
H1493 H 0.0141 0.23695 0.32302 0.0
H1494 H 0.97065 0.21818 0.3053 0.0
H1495 H 0.98311 0.19297 0.30146 0.0
C1496 C 0.96112 0.26234 0.31572 0.0
C1497 C 0.96977 0.27511 0.31001 0.0
C1498 C 0.96829 0.24777 0.31799 0.0
C1499 C 0.98425 0.24563 0.31448 0.0
C1500 C -0.00697 0.25866 0.30957 0.0
C1501 C 0.9859 0.27322 0.30743 0.0
C1502 C 0.01445 0.21294 0.31589 0.0
C1503 C 0.00601 0.20039 0.30947 0.0
C1504 C 0.00719 0.22742 0.31836 0.0
C1505 C -0.00862 0.2297 0.31435 0.0
C1506 C 0.98278 0.21687 0.30872 0.0
C1507 C -0.01001 0.20239 0.30638 0.0
H1508 H 0.00957 0.78366 0.54904 0.0
H1509 H 0.03712 0.74528 0.5673 0.0
H1510 H 0.98602 0.76786 0.5515 0.0
H1511 H 0.01349 0.72959 0.57008 0.0
H1512 H 0.97271 0.70089 0.54835 0.0
H1513 H -0.0039 0.71671 0.55187 0.0
H1514 H 0.96773 0.75497 0.56888 0.0
H1515 H 0.94428 0.73925 0.56504 0.0
C1516 C 0.01057 0.77197 0.55387 0.0
C1517 C 0.02526 0.76569 0.5578 0.0
C1518 C -0.00296 0.76291 0.55537 0.0
C1519 C -0.00212 0.74739 0.56087 0.0
C1520 C 0.01247 0.7414 0.56555 0.0
C1521 C 0.02601 0.75045 0.56403 0.0
C1522 C 0.97147 0.71259 0.55306 0.0
C1523 C 0.9566 0.71885 0.55625 0.0
C1524 C 0.98491 0.72165 0.55516 0.0
C1525 C 0.98379 0.73717 0.56054 0.0
C1526 C 0.96898 0.74315 0.56447 0.0
C1527 C 0.95554 0.7341 0.56235 0.0
H1528 H 0.44128 0.76126 0.80049 0.0
H1529 H 0.47841 0.78677 0.82331 0.0
H1530 H 0.45563 0.73694 0.80437 0.0
H1531 H 0.49261 0.76235 0.82752 0.0
H1532 H 0.52181 0.72086 0.80743 0.0
H1533 H 0.50673 0.74483 0.81044 0.0
H1534 H 0.46583 0.71763 0.82237 0.0
H1535 H 0.48085 0.69359 0.81898 0.0
C1536 C 0.45235 0.76164 0.80664 0.0
C1537 C 0.45878 0.77599 0.8114 0.0
C1538 C 0.46056 0.74766 0.80895 0.0
C1539 C 0.47536 0.74769 0.81613 0.0
C1540 C 0.48137 0.76194 0.8217 0.0
C1541 C 0.47318 0.77594 0.81936 0.0
C1542 C 0.50967 0.71998 0.81095 0.0
C1543 C 0.50249 0.70529 0.81276 0.0
C1544 C 0.50102 0.73375 0.81277 0.0
C1545 C 0.485 0.73317 0.8165 0.0
C1546 C 0.47806 0.71849 0.81921 0.0
C1547 C 0.48671 0.70471 0.81736 0.0
H1548 H 0.51873 0.29068 0.06388 0.0
H1549 H 0.53852 0.24595 0.051 0.0
H1550 H 0.49386 0.27793 0.06974 0.0
H1551 H 0.51366 0.23334 0.05625 0.0
H1552 H 0.46924 0.21182 0.07302 0.0
H1553 H 0.4944 0.22522 0.07455 0.0
H1554 H 0.47336 0.26686 0.05476 0.0
H1555 H 0.44827 0.25372 0.05379 0.0
C1556 C 0.51781 0.27812 0.0624 0.0
C1557 C 0.53056 0.26936 0.05683 0.0
C1558 C 0.50353 0.27081 0.06568 0.0
C1559 C 0.50166 0.2546 0.06333 0.0
C1560 C 0.51466 0.24579 0.0584 0.0
C1561 C 0.52893 0.25307 0.05526 0.0
C1562 C 0.46997 0.22392 0.06924 0.0
C1563 C 0.45678 0.23164 0.06314 0.0
C1564 C 0.48441 0.23158 0.07003 0.0
C1565 C 0.48599 0.2471 0.06463 0.0
C1566 C 0.4726 0.255 0.05921 0.0
C1567 C 0.45818 0.24739 0.05853 0.0
H1568 H 0.03131 0.76139 0.1776 0.0
H1569 H -0.00769 0.7885 0.1601 0.0
H1570 H 0.01593 0.73757 0.17513 0.0
H1571 H 0.97704 0.7646 0.1573 0.0
H1572 H 0.94933 0.72309 0.17919 0.0
H1573 H 0.96466 0.7468 0.17551 0.0
H1574 H 0.00318 0.71917 0.15789 0.0
H1575 H 0.98796 0.69539 0.16191 0.0
C1576 C 0.01957 0.76224 0.17292 0.0
C1577 C 0.01299 0.77688 0.16922 0.0
C1578 C 0.01076 0.74855 0.17142 0.0
C1579 C -0.00482 0.74917 0.16614 0.0
C1580 C 0.9889 0.76373 0.16166 0.0
C1581 C -0.0023 0.77743 0.16319 0.0
C1582 C 0.96098 0.72208 0.17431 0.0
C1583 C 0.96747 0.70732 0.17102 0.0
C1584 C 0.96976 0.7357 0.17211 0.0
C1585 C 0.98523 0.73489 0.16653 0.0
C1586 C -0.00859 0.72019 0.16247 0.0
C1587 C 0.98264 0.70656 0.16469 0.0
H1588 H 0.44416 0.72039 0.43413 0.0
H1589 H 0.46358 0.75801 0.46169 0.0
H1590 H 0.46878 0.70605 0.43634 0.0
H1591 H 0.48822 0.74385 0.4636 0.0
H1592 H 0.52444 0.70799 0.4778 0.0
H1593 H 0.49908 0.72074 0.47591 0.0
H1594 H 0.49592 0.70744 0.42727 0.0
H1595 H 0.52129 0.69434 0.42924 0.0
C1596 C 0.45367 0.72561 0.44065 0.0
C1597 C 0.45189 0.74033 0.44777 0.0
C1598 C 0.46781 0.71743 0.44182 0.0
C1599 C 0.48045 0.72379 0.45016 0.0
C1600 C 0.47863 0.7385 0.4573 0.0
C1601 C 0.46452 0.74666 0.45614 0.0
C1602 C 0.51832 0.70768 0.4667 0.0
C1603 C 0.52492 0.70019 0.45364 0.0
C1604 C 0.50381 0.71509 0.46561 0.0
C1605 C 0.49553 0.71522 0.45141 0.0
C1606 C 0.50195 0.70743 0.43841 0.0
C1607 C 0.51651 0.69999 0.43952 0.0
H1608 H 0.48205 0.28512 0.67617 0.0
H1609 H 0.52499 0.26486 0.65877 0.0
H1610 H 0.46921 0.25992 0.67398 0.0
H1611 H 0.51192 0.23962 0.65601 0.0
H1612 H 0.49069 0.19504 0.67854 0.0
H1613 H 0.50324 0.22004 0.67377 0.0
H1614 H 0.45914 0.23943 0.65824 0.0
H1615 H 0.44641 0.21441 0.66361 0.0
C1616 C 0.48868 0.27535 0.67155 0.0
C1617 C 0.50462 0.27696 0.66786 0.0
C1618 C 0.48125 0.26087 0.67017 0.0
C1619 C 0.48954 0.24765 0.66493 0.0
C1620 C 0.50526 0.24948 0.66037 0.0
C1621 C 0.51273 0.26397 0.66186 0.0
C1622 C 0.48367 0.20455 0.67391 0.0
C1623 C 0.46749 0.20278 0.67167 0.0
C1624 C 0.49093 0.21891 0.67104 0.0
C1625 C 0.4822 0.23185 0.66573 0.0
C1626 C 0.46616 0.22981 0.66262 0.0
C1627 C 0.45887 0.21544 0.66561 0.0
H1628 H 0.94197 0.25091 0.90988 0.0
H1629 H 0.96929 0.28721 0.93195 0.0
H1630 H 0.96577 0.23592 0.90503 0.0
H1631 H -0.00701 0.27208 0.92743 0.0
H1632 H 0.03499 0.24563 0.91114 0.0
H1633 H 0.01132 0.26141 0.90877 0.0
H1634 H 0.98343 0.22119 0.9215 0.0
H1635 H 0.00702 0.20534 0.92352 0.0
C1636 C 0.95307 0.25579 0.91354 0.0
C1637 C 0.95371 0.27019 0.92145 0.0
C1638 C 0.9667 0.24714 0.91084 0.0
C1639 C 0.98128 0.2527 0.91599 0.0
C1640 C 0.98199 0.26749 0.92317 0.0
C1641 C 0.96837 0.27615 0.92584 0.0
C1642 C 0.02378 0.24008 0.91317 0.0
C1643 C 0.02291 0.22426 0.91768 0.0
C1644 C 0.01022 0.24917 0.9119 0.0
C1645 C -0.00452 0.24263 0.91512 0.0
C1646 C -0.00544 0.22659 0.91879 0.0
C1647 C 0.00812 0.2175 0.92003 0.0
H1648 H 0.30241 0.95294 0.25822 0.0
H1649 H 0.28761 -0.00415 0.28048 0.0
H1650 H 0.30684 0.96725 0.23385 0.0
H1651 H 0.29139 0.00997 0.25613 0.0
H1652 H 0.30571 0.0347 0.21251 0.0
H1653 H 0.30856 0.02011 0.23695 0.0
H1654 H 0.29098 0.97855 0.21418 0.0
H1655 H 0.28876 -0.00709 0.18977 0.0
C1656 C 0.30019 0.96543 0.25794 0.0
C1657 C 0.29452 0.97322 0.27125 0.0
C1658 C 0.30264 0.97363 0.24395 0.0
C1659 C 0.29934 0.98977 0.24293 0.0
C1660 C 0.29428 -0.00238 0.25647 0.0
C1661 C 0.29197 0.98947 0.27045 0.0
C1662 C 0.30269 0.02239 0.2127 0.0
C1663 C 0.29687 0.01502 0.19924 0.0
C1664 C 0.30423 0.01403 0.22673 0.0
C1665 C 0.29985 -0.00184 0.22763 0.0
C1666 C 0.29467 -0.00933 0.21395 0.0
C1667 C 0.29327 -0.00103 0.19993 0.0
H1668 H 0.24561 0.0693 0.53936 0.0
H1669 H 0.28302 0.05105 0.51066 0.0
H1670 H 0.23014 0.07446 0.51596 0.0
H1671 H 0.26742 0.05589 0.48732 0.0
H1672 H 0.23968 0.07358 0.44651 0.0
H1673 H 0.25551 0.07504 0.47018 0.0
H1674 H 0.21637 0.05821 0.49741 0.0
H1675 H 0.20046 0.05709 0.47384 0.0
C1676 C 0.25061 0.06654 0.52805 0.0
C1677 C 0.26551 0.05962 0.52689 0.0
C1678 C 0.24169 0.06942 0.51464 0.0
C1679 C 0.24745 0.06545 0.49976 0.0
C1680 C 0.26266 0.05924 0.49857 0.0
C1681 C 0.2716 0.05638 0.51197 0.0
C1682 C 0.23437 0.07043 0.45759 0.0
C1683 C 0.21884 0.06508 0.45826 0.0
C1684 C 0.24349 0.07118 0.47114 0.0
C1685 C 0.23728 0.06659 0.48568 0.0
C1686 C 0.2215 0.06198 0.48645 0.0
C1687 C 0.21238 0.06126 0.4729 0.0
H1688 H 0.15766 0.98679 0.78301 0.0
H1689 H 0.17511 0.02569 0.75571 0.0
H1690 H 0.15405 0.97167 0.75913 0.0
H1691 H 0.17185 0.01046 0.73191 0.0
H1692 H 0.15757 0.98282 0.68993 0.0
H1693 H 0.15415 -0.00198 0.71379 0.0
H1694 H 0.1717 0.95908 0.74102 0.0
H1695 H 0.17478 0.94378 0.71724 0.0
C1696 C 0.16056 -0.0078 0.77191 0.0
C1697 C 0.16683 0.0074 0.77129 0.0
C1698 C 0.15857 0.98348 0.75822 0.0
C1699 C 0.16282 0.98977 0.74361 0.0
C1700 C 0.16832 0.00528 0.74293 0.0
C1701 C 0.17027 0.01401 0.75661 0.0
C1702 C 0.16046 0.97741 0.70103 0.0
C1703 C 0.1666 0.96213 0.70166 0.0
C1704 C 0.15858 0.98617 0.7147 0.0
C1705 C 0.16279 0.97985 0.72932 0.0
C1706 C 0.16818 0.96428 0.73 0.0
C1707 C 0.17004 0.95551 0.71633 0.0
H1708 H 0.19761 0.91004 0.01862 0.0
H1709 H 0.2397 0.92899 0.03911 0.0
H1710 H 0.21123 0.90694 -0.0063 0.0
H1711 H 0.25309 0.92642 0.01423 0.0
H1712 H 0.27716 0.91399 0.96968 0.0
H1713 H 0.26391 0.90984 -0.00535 0.0
H1714 H 0.22016 0.92418 0.97367 0.0
H1715 H 0.23324 0.92778 0.94873 0.0
C1716 C 0.20979 0.91343 0.01785 0.0
C1717 C 0.21752 0.91989 0.03082 0.0
C1718 C 0.21758 0.91174 0.00354 0.0
C1719 C 0.23324 0.91656 0.00188 0.0
C1720 C 0.24112 0.92239 0.01507 0.0
C1721 C 0.23337 0.92398 0.02936 0.0
C1722 C 0.26466 0.91601 0.97037 0.0
C1723 C 0.25629 0.92137 0.95725 0.0
C1724 C 0.25708 0.91372 0.9847 0.0
C1725 C 0.24097 0.91682 0.98625 0.0
C1726 C 0.23251 0.92148 0.97292 0.0
C1727 C 0.24007 0.92368 0.9586 0.0
H1728 H 0.21228 0.31676 0.03142 0.0
H1729 H 0.19263 0.2993 0.9883 0.0
H1730 H 0.2372 0.32116 0.01819 0.0
H1731 H 0.21754 0.30305 0.9753 0.0
H1732 H 0.26236 0.31534 0.95233 0.0
H1733 H 0.23726 0.31963 0.96527 0.0
H1734 H 0.2575 0.30468 0.00921 0.0
H1735 H 0.28255 0.30104 -0.00354 0.0
C1736 C 0.21323 0.314 0.0191 0.0
C1737 C 0.20053 0.3075 0.01097 0.0
C1738 C 0.22754 0.31643 0.01152 0.0
C1739 C 0.22949 0.31228 -0.0043 0.0
C1740 C 0.21649 0.30657 0.98742 0.0
C1741 C 0.20218 0.30429 -0.00506 0.0
C1742 C 0.26148 0.31325 0.96481 0.0
C1743 C 0.2744 0.30767 0.97332 0.0
C1744 C 0.24708 0.31563 0.97222 0.0
C1745 C 0.24525 0.31233 0.98827 0.0
C1746 C 0.25843 0.30754 -0.00311 0.0
C1747 C 0.27283 0.30532 0.98953 0.0
H1748 H 0.69326 0.15626 0.98748 0.0
H1749 H 0.71965 0.17449 0.94835 0.0
H1750 H 0.71744 0.15266 0.00216 0.0
H1751 H 0.74375 0.17125 0.96315 0.0
H1752 H 0.78636 0.15644 0.9898 0.0
H1753 H 0.76221 0.15342 0.97496 0.0
H1754 H 0.73575 0.17004 0.01469 0.0
H1755 H 0.75982 0.1727 0.02963 0.0
C1756 C 0.70423 0.15935 0.98194 0.0
C1757 C 0.7045 0.1658 0.96678 0.0
C1758 C 0.71809 0.15737 -0.0096 0.0
C1759 C 0.73254 0.16182 0.98392 0.0
C1760 C 0.73286 0.16755 0.96847 0.0
C1761 C 0.71901 0.16949 0.95999 0.0
C1762 C 0.77536 0.15922 -0.00455 0.0
C1763 C 0.77504 0.16495 0.01086 0.0
C1764 C 0.76153 0.15757 0.9869 0.0
C1765 C 0.74704 0.16163 -0.00644 0.0
C1766 C 0.74667 0.16665 0.00923 0.0
C1767 C 0.7605 0.16826 0.01779 0.0
H1768 H 0.05284 0.47708 0.20555 0.0
H1769 H 0.06945 0.44877 0.24411 0.0
H1770 H 0.05652 0.50058 0.22115 0.0
H1771 H 0.07348 0.47234 0.25961 0.0
H1772 H 0.05311 0.51426 0.28788 0.0
H1773 H 0.05601 0.49063 0.27229 0.0
H1774 H 0.07452 0.51813 0.23404 0.0
H1775 H 0.0713 0.54185 0.24953 0.0
C1776 C 0.05759 0.47589 0.21724 0.0
C1777 C 0.06066 0.46103 0.22365 0.0
C1778 C 0.05979 0.48939 0.22618 0.0
C1779 C 0.06516 0.48835 0.24171 0.0
C1780 C 0.06906 0.47354 0.24779 0.0
C1781 C 0.06684 0.46003 0.23886 0.0
C1782 C 0.05803 0.51526 0.27624 0.0
C1783 C 0.06179 0.52997 0.26989 0.0
C1784 C 0.05978 0.50167 0.26731 0.0
C1785 C 0.06537 0.50249 0.25185 0.0
C1786 C 0.06993 0.51712 0.24581 0.0
C1787 C 0.06816 0.53071 0.25474 0.0
H1788 H 0.69952 0.82632 0.4873 0.0
H1789 H 0.72779 0.81147 0.52655 0.0
H1790 H 0.72312 0.83036 0.4718 0.0
H1791 H 0.75131 0.81513 0.51096 0.0
H1792 H 0.79256 0.82925 0.48234 0.0
H1793 H 0.7687 0.83279 0.49755 0.0
H1794 H 0.74173 0.81294 0.45975 0.0
H1795 H 0.76549 0.80978 0.44441 0.0
C1796 C 0.71077 0.8241 0.49269 0.0
C1797 C 0.71176 0.8184 0.50811 0.0
C1798 C 0.7243 0.82633 0.48377 0.0
C1799 C 0.73911 0.82289 0.49005 0.0
C1800 C 0.74012 0.81804 0.50576 0.0
C1801 C 0.7266 0.81585 0.5147 0.0
C1802 C 0.7815 0.82589 0.47716 0.0
C1803 C 0.78095 0.81908 0.46222 0.0
C1804 C 0.76783 0.82784 0.48593 0.0
C1805 C 0.75331 0.823 0.47997 0.0
C1806 C 0.75268 0.81696 0.46468 0.0
C1807 C 0.76634 0.81505 0.45589 0.0
H1808 H 0.90227 0.94174 0.24692 0.0
H1809 H 0.92278 0.96725 0.28537 0.0
H1810 H 0.89836 0.96624 0.23273 0.0
H1811 H 0.91923 -0.00835 0.27105 0.0
H1812 H 0.90479 0.03502 0.24561 0.0
H1813 H 0.90143 0.01072 0.26027 0.0
H1814 H 0.91554 0.9843 0.21957 0.0
H1815 H 0.91851 0.00852 0.20483 0.0
C1816 C 0.90579 0.95258 0.25243 0.0
C1817 C 0.91299 0.95251 0.26722 0.0
C1818 C 0.90362 0.96662 0.24425 0.0
C1819 C 0.90863 0.98091 0.25066 0.0
C1820 C 0.91508 0.9809 0.2658 0.0
C1821 C 0.91721 0.96687 0.274 0.0
C1822 C 0.90691 0.02401 0.23971 0.0
C1823 C 0.91208 0.02373 0.22409 0.0
C1824 C 0.90508 0.01008 0.24815 0.0
C1825 C 0.90839 -0.00444 0.24117 0.0
C1826 C 0.91274 -0.00475 0.22529 0.0
C1827 C 0.91453 0.00917 0.21684 0.0
H1828 H 0.27199 0.66775 0.52739 0.0
H1829 H 0.29169 0.68118 0.48277 0.0
H1830 H 0.24629 0.66522 0.51519 0.0
H1831 H 0.26608 0.67919 0.47075 0.0
H1832 H 0.21972 0.66694 0.44997 0.0
H1833 H 0.24508 0.66293 0.46248 0.0
H1834 H 0.22696 0.68276 0.50531 0.0
H1835 H 0.20161 0.68624 0.49302 0.0
C1836 C 0.27087 0.67005 0.51497 0.0
C1837 C 0.28387 0.67479 0.50609 0.0
C1838 C 0.25612 0.6687 0.50799 0.0
C1839 C 0.25405 0.67212 0.49199 0.0
C1840 C 0.26721 0.67625 0.48303 0.0
C1841 C 0.28193 0.67751 0.48998 0.0
C1842 C 0.22111 0.67024 0.46212 0.0
C1843 C 0.20867 0.67703 0.47045 0.0
C1844 C 0.23568 0.66802 0.46928 0.0
C1845 C 0.23814 0.67263 0.48489 0.0
C1846 C 0.22549 0.67887 0.49335 0.0
C1847 C 0.21094 0.68098 0.48624 0.0
H1848 H 0.42852 0.44971 0.73566 0.0
H1849 H 0.41753 0.4699 0.78066 0.0
H1850 H 0.42386 0.47481 0.72316 0.0
H1851 H 0.41228 0.49503 0.76802 0.0
H1852 H 0.43017 0.5399 0.74333 0.0
H1853 H 0.42809 0.51483 0.75656 0.0
H1854 H 0.40626 0.49501 0.71553 0.0
H1855 H 0.40889 0.52011 0.70203 0.0
C1856 C 0.42478 0.45944 0.74287 0.0
C1857 C 0.42361 0.45785 0.7592 0.0
C1858 C 0.42197 0.47386 0.73565 0.0
C1859 C 0.41781 0.48704 0.74457 0.0
C1860 C 0.41576 0.48521 0.76082 0.0
C1861 C 0.41868 0.47078 0.76806 0.0
C1862 C 0.42474 0.53027 0.73716 0.0
C1863 C 0.41989 0.53196 0.72154 0.0
C1864 C 0.42342 0.51587 0.74482 0.0
C1865 C 0.4171 0.50281 0.7371 0.0
C1866 C 0.41146 0.50474 0.72174 0.0
C1867 C 0.41288 0.51915 0.71402 0.0
H1868 H 0.81648 0.45106 0.76449 0.0
H1869 H 0.79912 0.49381 0.7852 0.0
H1870 H 0.82103 0.46496 0.73991 0.0
H1871 H 0.80308 0.50749 0.76063 0.0
H1872 H 0.81658 0.53165 0.71658 0.0
H1873 H 0.82018 0.51786 0.74138 0.0
H1874 H 0.80475 0.47487 0.71972 0.0
H1875 H 0.80175 0.48847 0.69496 0.0
C1876 C 0.81377 0.46344 0.76384 0.0
C1877 C 0.80727 0.47128 0.77675 0.0
C1878 C 0.81629 0.4714 0.74973 0.0
C1879 C 0.81227 0.48733 0.74819 0.0
C1880 C 0.80651 0.49529 0.76137 0.0
C1881 C 0.80411 0.48739 0.77548 0.0
C1882 C 0.81423 0.5192 0.71708 0.0
C1883 C 0.80871 0.5112 0.70384 0.0
C1884 C 0.8162 0.5113 0.73131 0.0
C1885 C 0.81259 0.49526 0.73264 0.0
C1886 C 0.80784 0.48715 0.71916 0.0
C1887 C 0.80599 0.49501 0.70494 0.0
H1888 H 0.70444 0.57113 0.96277 0.0
H1889 H 0.74768 0.55301 0.94382 0.0
H1890 H 0.71725 0.57515 0.98796 0.0
H1891 H 0.76026 0.55645 0.96899 0.0
H1892 H 0.78256 0.56901 0.01416 0.0
H1893 H 0.77004 0.5732 0.98882 0.0
H1894 H 0.72584 0.55835 0.00841 0.0
H1895 H 0.73818 0.55475 0.0337 0.0
C1896 C 0.71671 0.56815 0.96393 0.0
C1897 C 0.72498 0.56158 0.95134 0.0
C1898 C 0.72403 0.57036 0.97839 0.0
C1899 C 0.73976 0.56597 0.9806 0.0
C1900 C 0.74821 0.56016 0.96774 0.0
C1901 C 0.74093 0.55805 0.95328 0.0
C1902 C 0.77012 0.56691 0.01309 0.0
C1903 C 0.76141 0.56137 0.0259 0.0
C1904 C 0.76295 0.56923 -0.00145 0.0
C1905 C 0.74694 0.56595 -0.00352 0.0
C1906 C 0.73813 0.56118 0.00954 0.0
C1907 C 0.74526 0.55898 0.02407 0.0
H1908 H 0.66224 0.53463 0.26773 0.0
H1909 H 0.67785 0.49125 0.28872 0.0
H1910 H 0.65912 0.52133 0.24267 0.0
H1911 H 0.67532 0.47816 0.26371 0.0
H1912 H 0.66388 0.45512 0.21854 0.0
H1913 H 0.65922 0.46841 0.24337 0.0
H1914 H 0.67641 0.51161 0.22329 0.0
H1915 H 0.68048 0.49851 0.19847 0.0
C1916 C 0.66488 0.52224 0.26703 0.0
C1917 C 0.67045 0.51404 0.28018 0.0
C1918 C 0.66318 0.51462 0.25265 0.0
C1919 C 0.66712 0.49868 0.25108 0.0
C1920 C 0.67198 0.49037 0.26445 0.0
C1921 C 0.67356 0.49794 0.27882 0.0
C1922 C 0.6664 0.46751 0.21938 0.0
C1923 C 0.67271 0.47571 0.20658 0.0
C1924 C 0.66382 0.47512 0.23364 0.0
C1925 C 0.66759 0.49107 0.23542 0.0
C1926 C 0.67318 0.49939 0.22236 0.0
C1927 C 0.67564 0.49182 0.20811 0.0
H1928 H 0.74844 0.40963 0.53581 0.0
H1929 H 0.70811 0.42379 0.50876 0.0
H1930 H 0.76357 0.40687 0.51179 0.0
H1931 H 0.72331 0.42137 0.48483 0.0
H1932 H 0.75165 0.4098 0.44263 0.0
H1933 H 0.73714 0.40468 0.46666 0.0
H1934 H 0.7744 0.42564 0.49354 0.0
H1935 H 0.78904 0.43043 0.46959 0.0
C1936 C 0.74273 0.41195 0.52473 0.0
C1937 C 0.72712 0.41712 0.52422 0.0
C1938 C 0.75144 0.41045 0.51097 0.0
C1939 C 0.74473 0.41408 0.49639 0.0
C1940 C 0.72883 0.41834 0.49583 0.0
C1941 C 0.72012 0.41982 0.50958 0.0
C1942 C 0.75688 0.41307 0.45369 0.0
C1943 C 0.77143 0.42069 0.45418 0.0
C1944 C 0.74851 0.4102 0.46746 0.0
C1945 C 0.75452 0.4149 0.48202 0.0
C1946 C 0.76947 0.42173 0.48256 0.0
C1947 C 0.77785 0.42457 0.4688 0.0
H1948 H 0.55373 0.94495 0.73559 0.0
H1949 H 0.56271 0.96586 0.69039 0.0
H1950 H 0.55768 0.97013 0.74805 0.0
H1951 H 0.56726 -0.00892 0.70295 0.0
H1952 H 0.54864 0.03518 0.72825 0.0
H1953 H 0.5511 0.01027 0.71492 0.0
H1954 H 0.57476 -0.00917 0.75525 0.0
H1955 H 0.57176 0.01576 0.76886 0.0
C1956 C 0.55687 0.95487 0.72832 0.0
C1957 C 0.55769 0.95343 0.71196 0.0
C1958 C 0.55927 0.96933 0.7355 0.0
C1959 C 0.56268 0.98272 0.72652 0.0
C1960 C 0.56435 0.98109 0.71021 0.0
C1961 C 0.56183 0.96661 0.70301 0.0
C1962 C 0.55455 0.02567 0.73424 0.0
C1963 C 0.55983 0.02741 0.7497 0.0
C1964 C 0.55608 0.01137 0.72652 0.0
C1965 C 0.56304 -0.00155 0.73402 0.0
C1966 C 0.56908 0.00044 0.74921 0.0
C1967 C 0.56745 0.01476 0.75699 0.0
loop_
_geom_bond_atom_site_label_1
_geom_bond_atom_site_label_2
_geom_bond_distance
_geom_bond_site_symmetry_2
_ccdc_geom_bond_type
O0 Cd1 2.300 . S
O0 C7 1.275 . S
Cd1 O0 2.300 . S
Cd1 O9 2.381 . S
Cd1 O10 2.378 . S
O2 Cd3 2.385 . S
O2 C7 1.255 . S
Cd3 O2 2.385 . S
Cd3 O4 2.317 . S
O4 Cd3 2.317 . S
O4 C5 1.232 . S
C5 O4 1.232 . S
C5 O6 1.218 . S
O6 C5 1.218 . S
C7 O0 1.275 . S
C7 O2 1.255 . S
C8 O9 1.258 . S
C8 O10 1.256 . S
O9 Cd1 2.381 . S
O9 C8 1.258 . S
O10 Cd1 2.378 . S
O10 C8 1.256 . S
O11 Cd12 2.300 . S
O11 C18 1.275 . S
Cd12 O11 2.300 . S
Cd12 O20 2.381 . S
Cd12 O21 2.378 . S
O13 Cd14 2.385 . S
O13 C18 1.255 . S
Cd14 O13 2.385 . S
Cd14 O15 2.317 . S
O15 Cd14 2.317 . S
O15 C16 1.232 . S
C16 O15 1.232 . S
C16 O17 1.218 . S
O17 C16 1.218 . S
C18 O11 1.275 . S
C18 O13 1.255 . S
C19 O20 1.258 . S
C19 O21 1.256 . S
O20 Cd12 2.381 . S
O20 C19 1.258 . S
O21 Cd12 2.378 . S
O21 C19 1.256 . S
O22 Cd23 2.300 . S
O22 C29 1.275 . S
Cd23 O22 2.300 . S
Cd23 O31 2.381 . S
Cd23 O32 2.378 . S
O24 Cd25 2.385 . S
O24 C29 1.255 . S
Cd25 O24 2.385 . S
Cd25 O26 2.317 . S
O26 Cd25 2.317 . S
O26 C27 1.232 . S
C27 O26 1.232 . S
C27 O28 1.218 . S
O28 C27 1.218 . S
C29 O22 1.275 . S
C29 O24 1.255 . S
C30 O31 1.258 . S
C30 O32 1.256 . S
O31 Cd23 2.381 . S
O31 C30 1.258 . S
O32 Cd23 2.378 . S
O32 C30 1.256 . S
O33 Cd34 2.300 . S
O33 C40 1.275 . S
Cd34 O33 2.300 . S
Cd34 O42 2.381 . S
Cd34 O43 2.378 . S
O35 Cd36 2.385 . S
O35 C40 1.255 . S
Cd36 O35 2.385 . S
Cd36 O37 2.317 . S
O37 Cd36 2.317 . S
O37 C38 1.232 . S
C38 O37 1.232 . S
C38 O39 1.218 . S
O39 C38 1.218 . S
C40 O33 1.275 . S
C40 O35 1.255 . S
C41 O42 1.258 . S
C41 O43 1.256 . S
O42 Cd34 2.381 . S
O42 C41 1.258 . S
O43 Cd34 2.378 . S
O43 C41 1.256 . S
O44 Cd45 2.300 . S
O44 C51 1.275 . S
Cd45 O44 2.300 . S
Cd45 O53 2.381 . S
Cd45 O54 2.378 . S
O46 Cd47 2.385 . S
O46 C51 1.255 . S
Cd47 O46 2.385 . S
Cd47 O48 2.317 . S
O48 Cd47 2.317 . S
O48 C49 1.232 . S
C49 O48 1.232 . S
C49 O50 1.218 . S
O50 C49 1.218 . S
C51 O44 1.275 . S
C51 O46 1.255 . S
C52 O53 1.258 . S
C52 O54 1.256 . S
O53 Cd45 2.381 . S
O53 C52 1.258 . S
O54 Cd45 2.378 . S
O54 C52 1.256 . S
O55 Cd56 2.300 . S
O55 C62 1.275 . S
Cd56 O55 2.300 . S
Cd56 O64 2.381 . S
Cd56 O65 2.378 . S
O57 Cd58 2.385 . S
O57 C62 1.255 . S
Cd58 O57 2.385 . S
Cd58 O59 2.317 . S
O59 Cd58 2.317 . S
O59 C60 1.232 . S
C60 O59 1.232 . S
C60 O61 1.218 . S
O61 C60 1.218 . S
C62 O55 1.275 . S
C62 O57 1.255 . S
C63 O64 1.258 . S
C63 O65 1.256 . S
O64 Cd56 2.381 . S
O64 C63 1.258 . S
O65 Cd56 2.378 . S
O65 C63 1.256 . S
O66 Cd67 2.300 . S
O66 C73 1.275 . S
Cd67 O66 2.300 . S
Cd67 O75 2.381 . S
Cd67 O76 2.378 . S
O68 Cd69 2.385 . S
O68 C73 1.255 . S
Cd69 O68 2.385 . S
Cd69 O70 2.317 . S
O70 Cd69 2.317 . S
O70 C71 1.232 . S
C71 O70 1.232 . S
C71 O72 1.218 . S
O72 C71 1.218 . S
C73 O66 1.275 . S
C73 O68 1.255 . S
C74 O75 1.258 . S
C74 O76 1.256 . S
O75 Cd67 2.381 . S
O75 C74 1.258 . S
O76 Cd67 2.378 . S
O76 C74 1.256 . S
O77 Cd78 2.300 . S
O77 C84 1.275 . S
Cd78 O77 2.300 . S
Cd78 O86 2.381 . S
Cd78 O87 2.378 . S
O79 Cd80 2.385 . S
O79 C84 1.255 . S
Cd80 O79 2.385 . S
Cd80 O81 2.317 . S
O81 Cd80 2.317 . S
O81 C82 1.232 . S
C82 O81 1.232 . S
C82 O83 1.218 . S
O83 C82 1.218 . S
C84 O77 1.275 . S
C84 O79 1.255 . S
C85 O86 1.258 . S
C85 O87 1.256 . S
O86 Cd78 2.381 . S
O86 C85 1.258 . S
O87 Cd78 2.378 . S
O87 C85 1.256 . S
O88 Cd89 2.300 . S
O88 C95 1.275 . S
Cd89 O88 2.300 . S
Cd89 O97 2.381 . S
Cd89 O98 2.378 . S
O90 Cd91 2.385 . S
O90 C95 1.255 . S
Cd91 O90 2.385 . S
Cd91 O92 2.317 . S
O92 Cd91 2.317 . S
O92 C93 1.232 . S
C93 O92 1.232 . S
C93 O94 1.218 . S
O94 C93 1.218 . S
C95 O88 1.275 . S
C95 O90 1.255 . S
C96 O97 1.258 . S
C96 O98 1.256 . S
O97 Cd89 2.381 . S
O97 C96 1.258 . S
O98 Cd89 2.378 . S
O98 C96 1.256 . S
O99 Cd100 2.300 . S
O99 C106 1.275 . S
Cd100 O99 2.300 . S
Cd100 O108 2.381 . S
Cd100 O109 2.378 . S
O101 Cd102 2.385 . S
O101 C106 1.255 . S
Cd102 O101 2.385 . S
Cd102 O103 2.317 . S
O103 Cd102 2.317 . S
O103 C104 1.232 . S
C104 O103 1.232 . S
C104 O105 1.218 . S
O105 C104 1.218 . S
C106 O99 1.275 . S
C106 O101 1.255 . S
C107 O108 1.258 . S
C107 O109 1.256 . S
O108 Cd100 2.381 . S
O108 C107 1.258 . S
O109 Cd100 2.378 . S
O109 C107 1.256 . S
O110 Cd111 2.300 . S
O110 C117 1.275 . S
Cd111 O110 2.300 . S
Cd111 O119 2.381 . S
Cd111 O120 2.378 . S
O112 Cd113 2.385 . S
O112 C117 1.255 . S
Cd113 O112 2.385 . S
Cd113 O114 2.317 . S
O114 Cd113 2.317 . S
O114 C115 1.232 . S
C115 O114 1.232 . S
C115 O116 1.218 . S
O116 C115 1.218 . S
C117 O110 1.275 . S
C117 O112 1.255 . S
C118 O119 1.258 . S
C118 O120 1.256 . S
O119 Cd111 2.381 . S
O119 C118 1.258 . S
O120 Cd111 2.378 . S
O120 C118 1.256 . S
O121 Cd122 2.300 . S
O121 C128 1.275 . S
Cd122 O121 2.300 . S
Cd122 O130 2.381 . S
Cd122 O131 2.378 . S
O123 Cd124 2.385 . S
O123 C128 1.255 . S
Cd124 O123 2.385 . S
Cd124 O125 2.317 . S
O125 Cd124 2.317 . S
O125 C126 1.232 . S
C126 O125 1.232 . S
C126 O127 1.218 . S
O127 C126 1.218 . S
C128 O121 1.275 . S
C128 O123 1.255 . S
C129 O130 1.258 . S
C129 O131 1.256 . S
O130 Cd122 2.381 . S
O130 C129 1.258 . S
O131 Cd122 2.378 . S
O131 C129 1.256 . S
O132 Cd133 2.300 . S
O132 C139 1.275 . S
Cd133 O132 2.300 . S
Cd133 O141 2.381 . S
Cd133 O142 2.378 . S
O134 Cd135 2.385 . S
O134 C139 1.255 . S
Cd135 O134 2.385 . S
Cd135 O136 2.317 . S
O136 Cd135 2.317 . S
O136 C137 1.232 . S
C137 O136 1.232 . S
C137 O138 1.218 . S
O138 C137 1.218 . S
C139 O132 1.275 . S
C139 O134 1.255 . S
C140 O141 1.258 . S
C140 O142 1.256 . S
O141 Cd133 2.381 . S
O141 C140 1.258 . S
O142 Cd133 2.378 . S
O142 C140 1.256 . S
O143 Cd144 2.300 . S
O143 C150 1.275 . S
Cd144 O143 2.300 . S
Cd144 O152 2.381 . S
Cd144 O153 2.378 . S
O145 Cd146 2.385 . S
O145 C150 1.255 . S
Cd146 O145 2.385 . S
Cd146 O147 2.317 . S
O147 Cd146 2.317 . S
O147 C148 1.232 . S
C148 O147 1.232 . S
C148 O149 1.218 . S
O149 C148 1.218 . S
C150 O143 1.275 . S
C150 O145 1.255 . S
C151 O152 1.258 . S
C151 O153 1.256 . S
O152 Cd144 2.381 . S
O152 C151 1.258 . S
O153 Cd144 2.378 . S
O153 C151 1.256 . S
O154 Cd155 2.300 . S
O154 C161 1.275 . S
Cd155 O154 2.300 . S
Cd155 O163 2.381 . S
Cd155 O164 2.378 . S
O156 Cd157 2.385 . S
O156 C161 1.255 . S
Cd157 O156 2.385 . S
Cd157 O158 2.317 . S
O158 Cd157 2.317 . S
O158 C159 1.232 . S
C159 O158 1.232 . S
C159 O160 1.218 . S
O160 C159 1.218 . S
C161 O154 1.275 . S
C161 O156 1.255 . S
C162 O163 1.258 . S
C162 O164 1.256 . S
O163 Cd155 2.381 . S
O163 C162 1.258 . S
O164 Cd155 2.378 . S
O164 C162 1.256 . S
O165 Cd166 2.300 . S
O165 C172 1.275 . S
Cd166 O165 2.300 . S
Cd166 O174 2.381 . S
Cd166 O175 2.378 . S
O167 Cd168 2.385 . S
O167 C172 1.255 . S
Cd168 O167 2.385 . S
Cd168 O169 2.317 . S
O169 Cd168 2.317 . S
O169 C170 1.232 . S
C170 O169 1.232 . S
C170 O171 1.218 . S
O171 C170 1.218 . S
C172 O165 1.275 . S
C172 O167 1.255 . S
C173 O174 1.258 . S
C173 O175 1.256 . S
O174 Cd166 2.381 . S
O174 C173 1.258 . S
O175 Cd166 2.378 . S
O175 C173 1.256 . S
O176 Cd177 2.300 . S
O176 C183 1.275 . S
Cd177 O176 2.300 . S
Cd177 O185 2.381 . S
Cd177 O186 2.378 . S
O178 Cd179 2.385 . S
O178 C183 1.255 . S
Cd179 O178 2.385 . S
Cd179 O180 2.317 . S
O180 Cd179 2.317 . S
O180 C181 1.232 . S
C181 O180 1.232 . S
C181 O182 1.218 . S
O182 C181 1.218 . S
C183 O176 1.275 . S
C183 O178 1.255 . S
C184 O185 1.258 . S
C184 O186 1.256 . S
O185 Cd177 2.381 . S
O185 C184 1.258 . S
O186 Cd177 2.378 . S
O186 C184 1.256 . S
O187 Cd188 2.300 . S
O187 C194 1.275 . S
Cd188 O187 2.300 . S
Cd188 O196 2.381 . S
Cd188 O197 2.378 . S
O189 Cd190 2.385 . S
O189 C194 1.255 . S
Cd190 O189 2.385 . S
Cd190 O191 2.317 . S
O191 Cd190 2.317 . S
O191 C192 1.232 . S
C192 O191 1.232 . S
C192 O193 1.218 . S
O193 C192 1.218 . S
C194 O187 1.275 . S
C194 O189 1.255 . S
C195 O196 1.258 . S
C195 O197 1.256 . S
O196 Cd188 2.381 . S
O196 C195 1.258 . S
O197 Cd188 2.378 . S
O197 C195 1.256 . S
O198 Cd199 2.300 . S
O198 C205 1.275 . S
Cd199 O198 2.300 . S
Cd199 O207 2.381 . S
Cd199 O208 2.378 . S
O200 Cd201 2.385 . S
O200 C205 1.255 . S
Cd201 O200 2.385 . S
Cd201 O202 2.317 . S
O202 Cd201 2.317 . S
O202 C203 1.232 . S
C203 O202 1.232 . S
C203 O204 1.218 . S
O204 C203 1.218 . S
C205 O198 1.275 . S
C205 O200 1.255 . S
C206 O207 1.258 . S
C206 O208 1.256 . S
O207 Cd199 2.381 . S
O207 C206 1.258 . S
O208 Cd199 2.378 . S
O208 C206 1.256 . S
O209 Cd210 2.300 . S
O209 C216 1.275 . S
Cd210 O209 2.300 . S
Cd210 O218 2.381 . S
Cd210 O219 2.378 . S
O211 Cd212 2.385 . S
O211 C216 1.255 . S
Cd212 O211 2.385 . S
Cd212 O213 2.317 . S
O213 Cd212 2.317 . S
O213 C214 1.232 . S
C214 O213 1.232 . S
C214 O215 1.218 . S
O215 C214 1.218 . S
C216 O209 1.275 . S
C216 O211 1.255 . S
C217 O218 1.258 . S
C217 O219 1.256 . S
O218 Cd210 2.381 . S
O218 C217 1.258 . S
O219 Cd210 2.378 . S
O219 C217 1.256 . S
O220 Cd221 2.300 . S
O220 C227 1.275 . S
Cd221 O220 2.300 . S
Cd221 O229 2.381 . S
Cd221 O230 2.378 . S
O222 Cd223 2.385 . S
O222 C227 1.255 . S
Cd223 O222 2.385 . S
Cd223 O224 2.317 . S
O224 Cd223 2.317 . S
O224 C225 1.232 . S
C225 O224 1.232 . S
C225 O226 1.218 . S
O226 C225 1.218 . S
C227 O220 1.275 . S
C227 O222 1.255 . S
C228 O229 1.258 . S
C228 O230 1.256 . S
O229 Cd221 2.381 . S
O229 C228 1.258 . S
O230 Cd221 2.378 . S
O230 C228 1.256 . S
O231 Cd232 2.300 . S
O231 C238 1.275 . S
Cd232 O231 2.300 . S
Cd232 O240 2.381 . S
Cd232 O241 2.378 . S
O233 Cd234 2.385 . S
O233 C238 1.255 . S
Cd234 O233 2.385 . S
Cd234 O235 2.317 . S
O235 Cd234 2.317 . S
O235 C236 1.232 . S
C236 O235 1.232 . S
C236 O237 1.218 . S
O237 C236 1.218 . S
C238 O231 1.275 . S
C238 O233 1.255 . S
C239 O240 1.258 . S
C239 O241 1.256 . S
O240 Cd232 2.381 . S
O240 C239 1.258 . S
O241 Cd232 2.378 . S
O241 C239 1.256 . S
O242 Cd243 2.300 . S
O242 C249 1.275 . S
Cd243 O242 2.300 . S
Cd243 O251 2.381 . S
Cd243 O252 2.378 . S
O244 Cd245 2.385 . S
O244 C249 1.255 . S
Cd245 O244 2.385 . S
Cd245 O246 2.317 . S
O246 Cd245 2.317 . S
O246 C247 1.232 . S
C247 O246 1.232 . S
C247 O248 1.218 . S
O248 C247 1.218 . S
C249 O242 1.275 . S
C249 O244 1.255 . S
C250 O251 1.258 . S
C250 O252 1.256 . S
O251 Cd243 2.381 . S
O251 C250 1.258 . S
O252 Cd243 2.378 . S
O252 C250 1.256 . S
O253 Cd254 2.300 . S
O253 C260 1.275 . S
Cd254 O253 2.300 . S
Cd254 O262 2.381 . S
Cd254 O263 2.378 . S
O255 Cd256 2.385 . S
O255 C260 1.255 . S
Cd256 O255 2.385 . S
Cd256 O257 2.317 . S
O257 Cd256 2.317 . S
O257 C258 1.232 . S
C258 O257 1.232 . S
C258 O259 1.218 . S
O259 C258 1.218 . S
C260 O253 1.275 . S
C260 O255 1.255 . S
C261 O262 1.258 . S
C261 O263 1.256 . S
O262 Cd254 2.381 . S
O262 C261 1.258 . S
O263 Cd254 2.378 . S
O263 C261 1.256 . S
O264 Cd265 2.300 . S
O264 C271 1.275 . S
Cd265 O264 2.300 . S
Cd265 O273 2.381 . S
Cd265 O274 2.378 . S
O266 Cd267 2.385 . S
O266 C271 1.255 . S
Cd267 O266 2.385 . S
Cd267 O268 2.317 . S
O268 Cd267 2.317 . S
O268 C269 1.232 . S
C269 O268 1.232 . S
C269 O270 1.218 . S
O270 C269 1.218 . S
C271 O264 1.275 . S
C271 O266 1.255 . S
C272 O273 1.258 . S
C272 O274 1.256 . S
O273 Cd265 2.381 . S
O273 C272 1.258 . S
O274 Cd265 2.378 . S
O274 C272 1.256 . S
O275 Cd276 2.300 . S
O275 C282 1.275 . S
Cd276 O275 2.300 . S
Cd276 O284 2.381 . S
Cd276 O285 2.378 . S
O277 Cd278 2.385 . S
O277 C282 1.255 . S
Cd278 O277 2.385 . S
Cd278 O279 2.317 . S
O279 Cd278 2.317 . S
O279 C280 1.232 . S
C280 O279 1.232 . S
C280 O281 1.218 . S
O281 C280 1.218 . S
C282 O275 1.275 . S
C282 O277 1.255 . S
C283 O284 1.258 . S
C283 O285 1.256 . S
O284 Cd276 2.381 . S
O284 C283 1.258 . S
O285 Cd276 2.378 . S
O285 C283 1.256 . S
O286 Cd287 2.300 . S
O286 C293 1.275 . S
Cd287 O286 2.300 . S
Cd287 O295 2.381 . S
Cd287 O296 2.378 . S
O288 Cd289 2.385 . S
O288 C293 1.255 . S
Cd289 O288 2.385 . S
Cd289 O290 2.317 . S
O290 Cd289 2.317 . S
O290 C291 1.232 . S
C291 O290 1.232 . S
C291 O292 1.218 . S
O292 C291 1.218 . S
C293 O286 1.275 . S
C293 O288 1.255 . S
C294 O295 1.258 . S
C294 O296 1.256 . S
O295 Cd287 2.381 . S
O295 C294 1.258 . S
O296 Cd287 2.378 . S
O296 C294 1.256 . S
O297 Cd298 2.300 . S
O297 C304 1.275 . S
Cd298 O297 2.300 . S
Cd298 O306 2.381 . S
Cd298 O307 2.378 . S
O299 Cd300 2.385 . S
O299 C304 1.255 . S
Cd300 O299 2.385 . S
Cd300 O301 2.317 . S
O301 Cd300 2.317 . S
O301 C302 1.232 . S
C302 O301 1.232 . S
C302 O303 1.218 . S
O303 C302 1.218 . S
C304 O297 1.275 . S
C304 O299 1.255 . S
C305 O306 1.258 . S
C305 O307 1.256 . S
O306 Cd298 2.381 . S
O306 C305 1.258 . S
O307 Cd298 2.378 . S
O307 C305 1.256 . S
O308 Cd309 2.300 . S
O308 C315 1.275 . S
Cd309 O308 2.300 . S
Cd309 O317 2.381 . S
Cd309 O318 2.378 . S
O310 Cd311 2.385 . S
O310 C315 1.255 . S
Cd311 O310 2.385 . S
Cd311 O312 2.317 . S
O312 Cd311 2.317 . S
O312 C313 1.232 . S
C313 O312 1.232 . S
C313 O314 1.218 . S
O314 C313 1.218 . S
C315 O308 1.275 . S
C315 O310 1.255 . S
C316 O317 1.258 . S
C316 O318 1.256 . S
O317 Cd309 2.381 . S
O317 C316 1.258 . S
O318 Cd309 2.378 . S
O318 C316 1.256 . S
O319 Cd320 2.300 . S
O319 C326 1.275 . S
Cd320 O319 2.300 . S
Cd320 O328 2.381 . S
Cd320 O329 2.378 . S
O321 Cd322 2.385 . S
O321 C326 1.255 . S
Cd322 O321 2.385 . S
Cd322 O323 2.317 . S
O323 Cd322 2.317 . S
O323 C324 1.232 . S
C324 O323 1.232 . S
C324 O325 1.218 . S
O325 C324 1.218 . S
C326 O319 1.275 . S
C326 O321 1.255 . S
C327 O328 1.258 . S
C327 O329 1.256 . S
O328 Cd320 2.381 . S
O328 C327 1.258 . S
O329 Cd320 2.378 . S
O329 C327 1.256 . S
O330 Cd331 2.300 . S
O330 C337 1.275 . S
Cd331 O330 2.300 . S
Cd331 O339 2.381 . S
Cd331 O340 2.378 . S
O332 Cd333 2.385 . S
O332 C337 1.255 . S
Cd333 O332 2.385 . S
Cd333 O334 2.317 . S
O334 Cd333 2.317 . S
O334 C335 1.232 . S
C335 O334 1.232 . S
C335 O336 1.218 . S
O336 C335 1.218 . S
C337 O330 1.275 . S
C337 O332 1.255 . S
C338 O339 1.258 . S
C338 O340 1.256 . S
O339 Cd331 2.381 . S
O339 C338 1.258 . S
O340 Cd331 2.378 . S
O340 C338 1.256 . S
O341 Cd342 2.300 . S
O341 C348 1.275 . S
Cd342 O341 2.300 . S
Cd342 O350 2.381 . S
Cd342 O351 2.378 . S
O343 Cd344 2.385 . S
O343 C348 1.255 . S
Cd344 O343 2.385 . S
Cd344 O345 2.317 . S
O345 Cd344 2.317 . S
O345 C346 1.232 . S
C346 O345 1.232 . S
C346 O347 1.218 . S
O347 C346 1.218 . S
C348 O341 1.275 . S
C348 O343 1.255 . S
C349 O350 1.258 . S
C349 O351 1.256 . S
O350 Cd342 2.381 . S
O350 C349 1.258 . S
O351 Cd342 2.378 . S
O351 C349 1.256 . S
O352 Cd353 2.300 . S
O352 C359 1.275 . S
Cd353 O352 2.300 . S
Cd353 O361 2.381 . S
Cd353 O362 2.378 . S
O354 Cd355 2.385 . S
O354 C359 1.255 . S
Cd355 O354 2.385 . S
Cd355 O356 2.317 . S
O356 Cd355 2.317 . S
O356 C357 1.232 . S
C357 O356 1.232 . S
C357 O358 1.218 . S
O358 C357 1.218 . S
C359 O352 1.275 . S
C359 O354 1.255 . S
C360 O361 1.258 . S
C360 O362 1.256 . S
O361 Cd353 2.381 . S
O361 C360 1.258 . S
O362 Cd353 2.378 . S
O362 C360 1.256 . S
O363 Cd364 2.300 . S
O363 C370 1.275 . S
Cd364 O363 2.300 . S
Cd364 O372 2.381 . S
Cd364 O373 2.378 . S
O365 Cd366 2.385 . S
O365 C370 1.255 . S
Cd366 O365 2.385 . S
Cd366 O367 2.317 . S
O367 Cd366 2.317 . S
O367 C368 1.232 . S
C368 O367 1.232 . S
C368 O369 1.218 . S
O369 C368 1.218 . S
C370 O363 1.275 . S
C370 O365 1.255 . S
C371 O372 1.258 . S
C371 O373 1.256 . S
O372 Cd364 2.381 . S
O372 C371 1.258 . S
O373 Cd364 2.378 . S
O373 C371 1.256 . S
O374 Cd375 2.300 . S
O374 C381 1.275 . S
Cd375 O374 2.300 . S
Cd375 O383 2.381 . S
Cd375 O384 2.378 . S
O376 Cd377 2.385 . S
O376 C381 1.255 . S
Cd377 O376 2.385 . S
Cd377 O378 2.317 . S
O378 Cd377 2.317 . S
O378 C379 1.232 . S
C379 O378 1.232 . S
C379 O380 1.218 . S
O380 C379 1.218 . S
C381 O374 1.275 . S
C381 O376 1.255 . S
C382 O383 1.258 . S
C382 O384 1.256 . S
O383 Cd375 2.381 . S
O383 C382 1.258 . S
O384 Cd375 2.378 . S
O384 C382 1.256 . S
O385 Cd386 2.300 . S
O385 C392 1.275 . S
Cd386 O385 2.300 . S
Cd386 O394 2.381 . S
Cd386 O395 2.378 . S
O387 Cd388 2.385 . S
O387 C392 1.255 . S
Cd388 O387 2.385 . S
Cd388 O389 2.317 . S
O389 Cd388 2.317 . S
O389 C390 1.232 . S
C390 O389 1.232 . S
C390 O391 1.218 . S
O391 C390 1.218 . S
C392 O385 1.275 . S
C392 O387 1.255 . S
C393 O394 1.258 . S
C393 O395 1.256 . S
O394 Cd386 2.381 . S
O394 C393 1.258 . S
O395 Cd386 2.378 . S
O395 C393 1.256 . S
O396 Cd397 2.300 . S
O396 C403 1.275 . S
Cd397 O396 2.300 . S
Cd397 O405 2.381 . S
Cd397 O406 2.378 . S
O398 Cd399 2.385 . S
O398 C403 1.255 . S
Cd399 O398 2.385 . S
Cd399 O400 2.317 . S
O400 Cd399 2.317 . S
O400 C401 1.232 . S
C401 O400 1.232 . S
C401 O402 1.218 . S
O402 C401 1.218 . S
C403 O396 1.275 . S
C403 O398 1.255 . S
C404 O405 1.258 . S
C404 O406 1.256 . S
O405 Cd397 2.381 . S
O405 C404 1.258 . S
O406 Cd397 2.378 . S
O406 C404 1.256 . S
O407 Cd408 2.300 . S
O407 C414 1.275 . S
Cd408 O407 2.300 . S
Cd408 O416 2.381 . S
Cd408 O417 2.378 . S
O409 Cd410 2.385 . S
O409 C414 1.255 . S
Cd410 O409 2.385 . S
Cd410 O411 2.317 . S
O411 Cd410 2.317 . S
O411 C412 1.232 . S
C412 O411 1.232 . S
C412 O413 1.218 . S
O413 C412 1.218 . S
C414 O407 1.275 . S
C414 O409 1.255 . S
C415 O416 1.258 . S
C415 O417 1.256 . S
O416 Cd408 2.381 . S
O416 C415 1.258 . S
O417 Cd408 2.378 . S
O417 C415 1.256 . S
O418 Cd419 2.300 . S
O418 C425 1.275 . S
Cd419 O418 2.300 . S
Cd419 O427 2.381 . S
Cd419 O428 2.378 . S
O420 Cd421 2.385 . S
O420 C425 1.255 . S
Cd421 O420 2.385 . S
Cd421 O422 2.317 . S
O422 Cd421 2.317 . S
O422 C423 1.232 . S
C423 O422 1.232 . S
C423 O424 1.218 . S
O424 C423 1.218 . S
C425 O418 1.275 . S
C425 O420 1.255 . S
C426 O427 1.258 . S
C426 O428 1.256 . S
O427 Cd419 2.381 . S
O427 C426 1.258 . S
O428 Cd419 2.378 . S
O428 C426 1.256 . S
O429 Cd430 2.300 . S
O429 C436 1.275 . S
Cd430 O429 2.300 . S
Cd430 O438 2.381 . S
Cd430 O439 2.378 . S
O431 Cd432 2.385 . S
O431 C436 1.255 . S
Cd432 O431 2.385 . S
Cd432 O433 2.317 . S
O433 Cd432 2.317 . S
O433 C434 1.232 . S
C434 O433 1.232 . S
C434 O435 1.218 . S
O435 C434 1.218 . S
C436 O429 1.275 . S
C436 O431 1.255 . S
C437 O438 1.258 . S
C437 O439 1.256 . S
O438 Cd430 2.381 . S
O438 C437 1.258 . S
O439 Cd430 2.378 . S
O439 C437 1.256 . S
O440 Cd441 2.300 . S
O440 C447 1.275 . S
Cd441 O440 2.300 . S
Cd441 O449 2.381 . S
Cd441 O450 2.378 . S
O442 Cd443 2.385 . S
O442 C447 1.255 . S
Cd443 O442 2.385 . S
Cd443 O444 2.317 . S
O444 Cd443 2.317 . S
O444 C445 1.232 . S
C445 O444 1.232 . S
C445 O446 1.218 . S
O446 C445 1.218 . S
C447 O440 1.275 . S
C447 O442 1.255 . S
C448 O449 1.258 . S
C448 O450 1.256 . S
O449 Cd441 2.381 . S
O449 C448 1.258 . S
O450 Cd441 2.378 . S
O450 C448 1.256 . S
O451 Cd452 2.300 . S
O451 C458 1.275 . S
Cd452 O451 2.300 . S
Cd452 O460 2.381 . S
Cd452 O461 2.378 . S
O453 Cd454 2.385 . S
O453 C458 1.255 . S
Cd454 O453 2.385 . S
Cd454 O455 2.317 . S
O455 Cd454 2.317 . S
O455 C456 1.232 . S
C456 O455 1.232 . S
C456 O457 1.218 . S
O457 C456 1.218 . S
C458 O451 1.275 . S
C458 O453 1.255 . S
C459 O460 1.258 . S
C459 O461 1.256 . S
O460 Cd452 2.381 . S
O460 C459 1.258 . S
O461 Cd452 2.378 . S
O461 C459 1.256 . S
O462 Cd463 2.300 . S
O462 C469 1.275 . S
Cd463 O462 2.300 . S
Cd463 O471 2.381 . S
Cd463 O472 2.378 . S
O464 Cd465 2.385 . S
O464 C469 1.255 . S
Cd465 O464 2.385 . S
Cd465 O466 2.317 . S
O466 Cd465 2.317 . S
O466 C467 1.232 . S
C467 O466 1.232 . S
C467 O468 1.218 . S
O468 C467 1.218 . S
C469 O462 1.275 . S
C469 O464 1.255 . S
C470 O471 1.258 . S
C470 O472 1.256 . S
O471 Cd463 2.381 . S
O471 C470 1.258 . S
O472 Cd463 2.378 . S
O472 C470 1.256 . S
O473 Cd474 2.300 . S
O473 C480 1.275 . S
Cd474 O473 2.300 . S
Cd474 O482 2.381 . S
Cd474 O483 2.378 . S
O475 Cd476 2.385 . S
O475 C480 1.255 . S
Cd476 O475 2.385 . S
Cd476 O477 2.317 . S
O477 Cd476 2.317 . S
O477 C478 1.232 . S
C478 O477 1.232 . S
C478 O479 1.218 . S
O479 C478 1.218 . S
C480 O473 1.275 . S
C480 O475 1.255 . S
C481 O482 1.258 . S
C481 O483 1.256 . S
O482 Cd474 2.381 . S
O482 C481 1.258 . S
O483 Cd474 2.378 . S
O483 C481 1.256 . S
O484 Cd485 2.300 . S
O484 C491 1.275 . S
Cd485 O484 2.300 . S
Cd485 O493 2.381 . S
Cd485 O494 2.378 . S
O486 Cd487 2.385 . S
O486 C491 1.255 . S
Cd487 O486 2.385 . S
Cd487 O488 2.317 . S
O488 Cd487 2.317 . S
O488 C489 1.232 . S
C489 O488 1.232 . S
C489 O490 1.218 . S
O490 C489 1.218 . S
C491 O484 1.275 . S
C491 O486 1.255 . S
C492 O493 1.258 . S
C492 O494 1.256 . S
O493 Cd485 2.381 . S
O493 C492 1.258 . S
O494 Cd485 2.378 . S
O494 C492 1.256 . S
O495 Cd496 2.300 . S
O495 C502 1.275 . S
Cd496 O495 2.300 . S
Cd496 O504 2.381 . S
Cd496 O505 2.378 . S
O497 Cd498 2.385 . S
O497 C502 1.255 . S
Cd498 O497 2.385 . S
Cd498 O499 2.317 . S
O499 Cd498 2.317 . S
O499 C500 1.232 . S
C500 O499 1.232 . S
C500 O501 1.218 . S
O501 C500 1.218 . S
C502 O495 1.275 . S
C502 O497 1.255 . S
C503 O504 1.258 . S
C503 O505 1.256 . S
O504 Cd496 2.381 . S
O504 C503 1.258 . S
O505 Cd496 2.378 . S
O505 C503 1.256 . S
O506 Cd507 2.300 . S
O506 C513 1.275 . S
Cd507 O506 2.300 . S
Cd507 O515 2.381 . S
Cd507 O516 2.378 . S
O508 Cd509 2.385 . S
O508 C513 1.255 . S
Cd509 O508 2.385 . S
Cd509 O510 2.317 . S
O510 Cd509 2.317 . S
O510 C511 1.232 . S
C511 O510 1.232 . S
C511 O512 1.218 . S
O512 C511 1.218 . S
C513 O506 1.275 . S
C513 O508 1.255 . S
C514 O515 1.258 . S
C514 O516 1.256 . S
O515 Cd507 2.381 . S
O515 C514 1.258 . S
O516 Cd507 2.378 . S
O516 C514 1.256 . S
O517 Cd518 2.300 . S
O517 C524 1.275 . S
Cd518 O517 2.300 . S
Cd518 O526 2.381 . S
Cd518 O527 2.378 . S
O519 Cd520 2.385 . S
O519 C524 1.255 . S
Cd520 O519 2.385 . S
Cd520 O521 2.317 . S
O521 Cd520 2.317 . S
O521 C522 1.232 . S
C522 O521 1.232 . S
C522 O523 1.218 . S
O523 C522 1.218 . S
C524 O517 1.275 . S
C524 O519 1.255 . S
C525 O526 1.258 . S
C525 O527 1.256 . S
O526 Cd518 2.381 . S
O526 C525 1.258 . S
O527 Cd518 2.378 . S
O527 C525 1.256 . S
H528 C536 0.950 . S
H529 C541 0.950 . S
H530 C538 0.950 . S
H531 C540 0.950 . S
H532 C542 0.950 . S
H533 C544 0.950 . S
H534 C546 0.950 . S
H535 C547 0.950 . S
C536 H528 0.950 . S
C536 C537 1.386 . S
C536 C538 1.391 . S
C537 C536 1.386 . S
C537 C541 1.393 . S
C538 H530 0.950 . S
C538 C536 1.391 . S
C538 C539 1.400 . S
C539 C538 1.400 . S
C539 C540 1.398 . S
C539 C545 1.491 1_655 S
C540 H531 0.950 . S
C540 C539 1.398 . S
C540 C541 1.391 . S
C541 H529 0.950 . S
C541 C537 1.393 . S
C541 C540 1.391 . S
C542 H532 0.950 . S
C542 C543 1.386 . S
C542 C544 1.391 . S
C543 C542 1.386 . S
C543 C547 1.393 . S
C544 H533 0.950 . S
C544 C542 1.391 . S
C544 C545 1.400 . S
C545 C539 1.491 1_455 S
C545 C544 1.400 . S
C545 C546 1.398 . S
C546 H534 0.950 . S
C546 C545 1.398 . S
C546 C547 1.391 . S
C547 H535 0.950 . S
C547 C543 1.393 . S
C547 C546 1.391 . S
H548 C556 0.950 . S
H549 C561 0.950 . S
H550 C558 0.950 . S
H551 C560 0.950 . S
H552 C562 0.950 . S
H553 C564 0.950 . S
H554 C566 0.950 . S
H555 C567 0.950 . S
C556 H548 0.950 . S
C556 C557 1.386 . S
C556 C558 1.391 . S
C557 C556 1.386 . S
C557 C561 1.393 . S
C558 H550 0.950 . S
C558 C556 1.391 . S
C558 C559 1.400 . S
C559 C558 1.400 . S
C559 C560 1.398 . S
C559 C565 1.491 . S
C560 H551 0.950 . S
C560 C559 1.398 . S
C560 C561 1.391 . S
C561 H549 0.950 . S
C561 C557 1.393 . S
C561 C560 1.391 . S
C562 H552 0.950 . S
C562 C563 1.386 . S
C562 C564 1.391 . S
C563 C562 1.386 . S
C563 C567 1.393 . S
C564 H553 0.950 . S
C564 C562 1.391 . S
C564 C565 1.400 . S
C565 C559 1.491 . S
C565 C564 1.400 . S
C565 C566 1.398 . S
C566 H554 0.950 . S
C566 C565 1.398 . S
C566 C567 1.391 . S
C567 H555 0.950 . S
C567 C563 1.393 . S
C567 C566 1.391 . S
H568 C576 0.950 . S
H569 C581 0.950 . S
H570 C578 0.950 . S
H571 C580 0.950 . S
H572 C582 0.950 . S
H573 C584 0.950 . S
H574 C586 0.950 . S
H575 C587 0.950 . S
C576 H568 0.950 . S
C576 C577 1.386 . S
C576 C578 1.391 . S
C577 C576 1.386 . S
C577 C581 1.393 . S
C578 H570 0.950 . S
C578 C576 1.391 . S
C578 C579 1.400 . S
C579 C578 1.400 . S
C579 C580 1.398 . S
C579 C585 1.491 . S
C580 H571 0.950 . S
C580 C579 1.398 . S
C580 C581 1.391 . S
C581 H569 0.950 . S
C581 C577 1.393 . S
C581 C580 1.391 . S
C582 H572 0.950 . S
C582 C583 1.386 . S
C582 C584 1.391 . S
C583 C582 1.386 . S
C583 C587 1.393 . S
C584 H573 0.950 . S
C584 C582 1.391 . S
C584 C585 1.400 . S
C585 C579 1.491 . S
C585 C584 1.400 . S
C585 C586 1.398 . S
C586 H574 0.950 . S
C586 C585 1.398 . S
C586 C587 1.391 . S
C587 H575 0.950 . S
C587 C583 1.393 . S
C587 C586 1.391 . S
H588 C596 0.950 . S
H589 C601 0.950 . S
H590 C598 0.920 1_554 S
H591 C600 0.950 . S
H592 C602 0.950 . S
H593 C604 0.950 . S
H594 C606 0.950 . S
H595 C607 0.950 . S
C596 H588 0.950 . S
C596 C597 1.386 . S
C596 C598 1.391 . S
C597 C596 1.386 . S
C597 C601 1.393 . S
C598 H590 0.920 1_556 S
C598 C596 1.391 . S
C598 C599 1.400 . S
C599 C598 1.400 . S
C599 C600 1.398 . S
C599 C605 1.491 1_556 S
C600 H591 0.950 . S
C600 C599 1.398 . S
C600 C601 1.391 . S
C601 H589 0.950 . S
C601 C597 1.393 . S
C601 C600 1.391 . S
C602 H592 0.950 . S
C602 C603 1.386 . S
C602 C604 1.391 . S
C603 C602 1.386 . S
C603 C607 1.393 . S
C604 H593 0.950 . S
C604 C602 1.391 . S
C604 C605 1.400 . S
C605 C599 1.491 1_554 S
C605 C604 1.400 . S
C605 C606 1.398 . S
C606 H594 0.950 . S
C606 C605 1.398 . S
C606 C607 1.391 . S
C607 H595 0.950 . S
C607 C603 1.393 . S
C607 C606 1.391 . S
H608 C616 0.950 . S
H609 C621 0.950 . S
H610 C618 0.950 . S
H611 C620 0.950 1_455 S
H612 C622 0.950 . S
H613 C624 0.950 . S
H614 C626 0.950 . S
H615 C627 0.950 . S
C616 H608 0.950 . S
C616 C617 1.386 . S
C616 C618 1.391 . S
C617 C616 1.386 . S
C617 C621 1.393 . S
C618 H610 0.950 . S
C618 C616 1.391 . S
C618 C619 1.400 . S
C619 C618 1.400 . S
C619 C620 1.398 . S
C619 C625 1.491 1_655 S
C620 H611 0.950 1_655 S
C620 C619 1.398 . S
C620 C621 1.391 . S
C621 H609 0.950 . S
C621 C617 1.393 . S
C621 C620 1.391 . S
C622 H612 0.950 . S
C622 C623 1.386 . S
C622 C624 1.391 . S
C623 C622 1.386 . S
C623 C627 1.393 . S
C624 H613 0.950 . S
C624 C622 1.391 . S
C624 C625 1.400 . S
C625 C619 1.491 1_455 S
C625 C624 1.400 . S
C625 C626 1.398 1_455 S
C626 H614 0.950 . S
C626 C625 1.398 1_655 S
C626 C627 1.391 1_655 S
C627 H615 0.950 . S
C627 C623 1.393 . S
C627 C626 1.391 1_455 S
H628 C636 0.950 . S
H629 C641 0.950 . S
H630 C638 0.950 . S
H631 C640 0.950 . S
H632 C642 0.950 . S
H633 C644 0.950 . S
H634 C646 0.950 . S
H635 C647 0.950 . S
C636 H628 0.950 . S
C636 C637 1.386 . S
C636 C638 1.391 . S
C637 C636 1.386 . S
C637 C641 1.393 . S
C638 H630 0.950 . S
C638 C636 1.391 . S
C638 C639 1.400 . S
C639 C638 1.400 . S
C639 C640 1.398 . S
C639 C645 1.491 . S
C640 H631 0.950 . S
C640 C639 1.398 . S
C640 C641 1.391 . S
C641 H629 0.950 . S
C641 C637 1.393 . S
C641 C640 1.391 . S
C642 H632 0.950 . S
C642 C643 1.386 . S
C642 C644 1.391 . S
C643 C642 1.386 . S
C643 C647 1.393 . S
C644 H633 0.950 . S
C644 C642 1.391 . S
C644 C645 1.400 . S
C645 C639 1.491 . S
C645 C644 1.400 . S
C645 C646 1.398 . S
C646 H634 0.950 . S
C646 C645 1.398 . S
C646 C647 1.391 . S
C647 H635 0.950 . S
C647 C643 1.393 . S
C647 C646 1.391 . S
H648 C656 0.950 . S
H649 C661 0.950 . S
H650 C658 0.950 . S
H651 C660 0.950 . S
H652 C662 0.950 . S
H653 C664 0.950 . S
H654 C666 0.950 . S
H655 C667 0.950 . S
C656 H648 0.950 . S
C656 C657 1.386 . S
C656 C658 1.391 . S
C657 C656 1.386 . S
C657 C661 1.393 . S
C658 H650 0.950 . S
C658 C656 1.391 . S
C658 C659 1.400 . S
C659 C658 1.400 . S
C659 C660 1.398 . S
C659 C665 1.491 . S
C660 H651 0.950 . S
C660 C659 1.398 . S
C660 C661 1.391 . S
C661 H649 0.950 . S
C661 C657 1.393 . S
C661 C660 1.391 . S
C662 H652 0.950 . S
C662 C663 1.386 . S
C662 C664 1.391 . S
C663 C662 1.386 . S
C663 C667 1.393 . S
C664 H653 0.950 . S
C664 C662 1.391 . S
C664 C665 1.400 . S
C665 C659 1.491 . S
C665 C664 1.400 . S
C665 C666 1.398 . S
C666 H654 0.950 . S
C666 C665 1.398 . S
C666 C667 1.391 . S
C667 H655 0.950 . S
C667 C663 1.393 . S
C667 C666 1.391 . S
H668 C676 0.950 . S
H669 C681 0.950 . S
H670 C678 0.950 . S
H671 C680 0.950 . S
H672 C682 0.950 . S
H673 C684 0.950 . S
H674 C686 0.950 1_556 S
H675 C687 0.950 . S
C676 H668 0.950 . S
C676 C677 1.386 . S
C676 C678 1.391 . S
C677 C676 1.386 . S
C677 C681 1.393 . S
C678 H670 0.950 . S
C678 C676 1.391 . S
C678 C679 1.400 . S
C679 C678 1.400 . S
C679 C680 1.398 . S
C679 C685 1.491 1_556 S
C680 H671 0.950 . S
C680 C679 1.398 . S
C680 C681 1.391 . S
C681 H669 0.950 . S
C681 C677 1.393 . S
C681 C680 1.391 . S
C682 H672 0.950 . S
C682 C683 1.386 . S
C682 C684 1.391 . S
C683 C682 1.386 . S
C683 C687 1.393 . S
C684 H673 0.950 . S
C684 C682 1.391 . S
C684 C685 1.400 . S
C685 C679 1.491 1_554 S
C685 C684 1.400 . S
C685 C686 1.398 . S
C686 H674 0.950 1_554 S
C686 C685 1.398 . S
C686 C687 1.391 . S
C687 H675 0.950 . S
C687 C683 1.393 . S
C687 C686 1.391 . S
H688 C696 0.950 . S
H689 C701 0.950 . S
H690 C698 0.950 . S
H691 C700 0.950 . S
H692 C702 0.950 . S
H693 C704 0.950 . S
H694 C706 0.950 1_545 S
H695 C707 0.950 . S
C696 H688 0.950 . S
C696 C697 1.386 . S
C696 C698 1.391 . S
C697 C696 1.386 . S
C697 C701 1.393 . S
C698 H690 0.950 . S
C698 C696 1.391 . S
C698 C699 1.400 . S
C699 C698 1.400 . S
C699 C700 1.398 1_545 S
C699 C705 1.491 1_545 S
C700 H691 0.950 . S
C700 C699 1.398 1_565 S
C700 C701 1.391 1_565 S
C701 H689 0.950 . S
C701 C697 1.393 . S
C701 C700 1.391 1_545 S
C702 H692 0.950 . S
C702 C703 1.386 . S
C702 C704 1.391 . S
C703 C702 1.386 . S
C703 C707 1.393 . S
C704 H693 0.950 . S
C704 C702 1.391 . S
C704 C705 1.400 . S
C705 C699 1.491 1_565 S
C705 C704 1.400 . S
C705 C706 1.398 . S
C706 H694 0.950 1_565 S
C706 C705 1.398 . S
C706 C707 1.391 . S
C707 H695 0.950 . S
C707 C703 1.393 . S
C707 C706 1.391 . S
H708 C716 0.950 . S
H709 C721 0.950 . S
H710 C718 0.950 . S
H711 C720 0.950 . S
H712 C722 0.950 . S
H713 C724 0.950 1_565 S
H714 C726 0.950 . S
H715 C727 0.950 . S
C716 H708 0.950 . S
C716 C717 1.386 . S
C716 C718 1.391 1_565 S
C717 C716 1.386 . S
C717 C721 1.393 . S
C718 H710 0.950 . S
C718 C716 1.391 1_545 S
C718 C719 1.400 1_545 S
C719 C718 1.400 1_565 S
C719 C720 1.398 . S
C719 C725 1.491 1_565 S
C720 H711 0.950 . S
C720 C719 1.398 . S
C720 C721 1.391 . S
C721 H709 0.950 . S
C721 C717 1.393 . S
C721 C720 1.391 . S
C722 H712 0.950 . S
C722 C723 1.386 . S
C722 C724 1.391 . S
C723 C722 1.386 . S
C723 C727 1.393 . S
C724 H713 0.950 1_545 S
C724 C722 1.391 . S
C724 C725 1.400 . S
C725 C719 1.491 1_545 S
C725 C724 1.400 . S
C725 C726 1.398 . S
C726 H714 0.950 . S
C726 C725 1.398 . S
C726 C727 1.391 . S
C727 H715 0.950 . S
C727 C723 1.393 . S
C727 C726 1.391 . S
H728 C736 0.950 . S
H729 C741 0.950 . S
H730 C738 0.950 . S
H731 C740 0.950 1_565 S
H732 C742 0.950 . S
H733 C744 0.950 . S
H734 C746 0.950 . S
H735 C747 0.950 . S
C736 H728 0.950 . S
C736 C737 1.386 . S
C736 C738 1.391 . S
C737 C736 1.386 . S
C737 C741 1.393 . S
C738 H730 0.950 . S
C738 C736 1.391 . S
C738 C739 1.400 . S
C739 C738 1.400 . S
C739 C740 1.398 . S
C739 C745 1.491 1_545 S
C740 H731 0.950 1_545 S
C740 C739 1.398 . S
C740 C741 1.391 . S
C741 H729 0.950 . S
C741 C737 1.393 . S
C741 C740 1.391 . S
C742 H732 0.950 . S
C742 C743 1.386 . S
C742 C744 1.391 . S
C743 C742 1.386 . S
C743 C747 1.393 . S
C744 H733 0.950 . S
C744 C742 1.391 . S
C744 C745 1.400 . S
C745 C739 1.491 1_565 S
C745 C744 1.400 . S
C745 C746 1.398 1_565 S
C746 H734 0.950 . S
C746 C745 1.398 1_545 S
C746 C747 1.391 1_545 S
C747 H735 0.950 . S
C747 C743 1.393 . S
C747 C746 1.391 1_565 S
H748 C756 0.950 . S
H749 C761 0.950 . S
H750 C758 0.950 . S
H751 C760 0.950 . S
H752 C762 0.950 . S
H753 C764 0.950 1_545 S
H754 C766 0.950 . S
H755 C767 0.950 . S
C756 H748 0.950 . S
C756 C757 1.386 . S
C756 C758 1.391 1_545 S
C757 C756 1.386 . S
C757 C761 1.393 . S
C758 H750 0.950 . S
C758 C756 1.391 1_565 S
C758 C759 1.400 1_565 S
C759 C758 1.400 1_545 S
C759 C760 1.398 . S
C759 C765 1.491 1_545 S
C760 H751 0.950 . S
C760 C759 1.398 . S
C760 C761 1.391 . S
C761 H749 0.950 . S
C761 C757 1.393 . S
C761 C760 1.391 . S
C762 H752 0.950 . S
C762 C763 1.386 . S
C762 C764 1.391 . S
C763 C762 1.386 . S
C763 C767 1.393 . S
C764 H753 0.950 1_565 S
C764 C762 1.391 . S
C764 C765 1.400 . S
C765 C759 1.491 1_565 S
C765 C764 1.400 . S
C765 C766 1.398 . S
C766 H754 0.950 . S
C766 C765 1.398 . S
C766 C767 1.391 . S
C767 H755 0.950 . S
C767 C763 1.393 . S
C767 C766 1.391 . S
H768 C776 0.950 . S
H769 C781 0.950 . S
H770 C778 0.950 . S
H771 C780 0.950 . S
H772 C782 0.950 . S
H773 C784 0.950 . S
H774 C786 0.950 1_556 S
H775 C787 0.950 . S
C776 H768 0.950 . S
C776 C777 1.386 . S
C776 C778 1.391 . S
C777 C776 1.386 . S
C777 C781 1.393 . S
C778 H770 0.950 . S
C778 C776 1.391 . S
C778 C779 1.400 . S
C779 C778 1.400 . S
C779 C780 1.398 1_556 S
C779 C785 1.491 1_556 S
C780 H771 0.950 . S
C780 C779 1.398 1_554 S
C780 C781 1.391 1_554 S
C781 H769 0.950 . S
C781 C777 1.393 . S
C781 C780 1.391 1_556 S
C782 H772 0.950 . S
C782 C783 1.386 . S
C782 C784 1.391 . S
C783 C782 1.386 . S
C783 C787 1.393 . S
C784 H773 0.950 . S
C784 C782 1.391 . S
C784 C785 1.400 . S
C785 C779 1.491 1_554 S
C785 C784 1.400 . S
C785 C786 1.398 . S
C786 H774 0.950 1_554 S
C786 C785 1.398 . S
C786 C787 1.391 . S
C787 H775 0.950 . S
C787 C783 1.393 . S
C787 C786 1.391 . S
H788 C796 0.950 . S
H789 C801 0.950 . S
H790 C798 0.950 . S
H791 C800 0.993 . S
H792 C802 0.950 . S
H793 C804 0.950 . S
H794 C806 0.950 1_655 S
H795 C807 0.950 . S
C796 H788 0.950 . S
C796 C797 1.386 . S
C796 C798 1.391 . S
C797 C796 1.386 . S
C797 C801 1.393 . S
C798 H790 0.950 . S
C798 C796 1.391 . S
C798 C799 1.400 . S
C799 C798 1.400 . S
C799 C800 1.391 1_655 S
C799 C805 1.491 1_655 S
C800 H791 0.993 . S
C800 C799 1.391 1_455 S
C800 C801 1.358 1_455 S
C801 H789 0.950 . S
C801 C797 1.393 . S
C801 C800 1.358 1_655 S
C802 H792 0.950 . S
C802 C803 1.386 . S
C802 C804 1.391 . S
C803 C802 1.386 . S
C803 C807 1.393 . S
C804 H793 0.950 . S
C804 C802 1.391 . S
C804 C805 1.400 . S
C805 C799 1.491 1_455 S
C805 C804 1.400 . S
C805 C806 1.398 . S
C806 H794 0.950 1_455 S
C806 C805 1.398 . S
C806 C807 1.391 . S
C807 H795 0.950 . S
C807 C803 1.393 . S
C807 C806 1.391 . S
H808 C816 0.950 . S
H809 C821 0.950 . S
H810 C818 0.950 . S
H811 C820 0.950 . S
H812 C822 0.950 . S
H813 C824 0.950 . S
H814 C826 0.950 . S
H815 C827 0.950 . S
C816 H808 0.950 . S
C816 C817 1.386 . S
C816 C818 1.391 . S
C817 C816 1.386 . S
C817 C821 1.393 . S
C818 H810 0.950 . S
C818 C816 1.391 . S
C818 C819 1.400 . S
C819 C818 1.400 . S
C819 C820 1.398 . S
C819 C825 1.491 . S
C820 H811 0.950 . S
C820 C819 1.398 . S
C820 C821 1.391 . S
C821 H809 0.950 . S
C821 C817 1.393 . S
C821 C820 1.391 . S
C822 H812 0.950 . S
C822 C823 1.386 . S
C822 C824 1.391 . S
C823 C822 1.386 . S
C823 C827 1.393 . S
C824 H813 0.950 . S
C824 C822 1.391 . S
C824 C825 1.400 . S
C825 C819 1.491 . S
C825 C824 1.400 . S
C825 C826 1.398 . S
C826 H814 0.950 . S
C826 C825 1.398 . S
C826 C827 1.391 . S
C827 H815 0.950 . S
C827 C823 1.393 . S
C827 C826 1.391 . S
H828 C836 0.950 . S
H829 C841 0.950 . S
H830 C838 0.950 . S
H831 C840 0.950 . S
H832 C842 0.950 . S
H833 C844 0.950 . S
H834 C846 0.950 1_655 S
H835 C847 0.950 . S
C836 H828 0.950 . S
C836 C837 1.386 . S
C836 C838 1.391 . S
C837 C836 1.386 . S
C837 C841 1.393 . S
C838 H830 0.950 . S
C838 C836 1.391 . S
C838 C839 1.400 . S
C839 C838 1.400 . S
C839 C840 1.398 1_655 S
C839 C845 1.491 1_655 S
C840 H831 0.950 . S
C840 C839 1.398 1_455 S
C840 C841 1.391 1_455 S
C841 H829 0.950 . S
C841 C837 1.393 . S
C841 C840 1.391 1_655 S
C842 H832 0.950 . S
C842 C843 1.386 . S
C842 C844 1.391 . S
C843 C842 1.386 . S
C843 C847 1.393 . S
C844 H833 0.950 . S
C844 C842 1.391 . S
C844 C845 1.400 . S
C845 C839 1.491 1_455 S
C845 C844 1.400 . S
C845 C846 1.398 . S
C846 H834 0.950 1_455 S
C846 C845 1.398 . S
C846 C847 1.391 . S
C847 H835 0.950 . S
C847 C843 1.393 . S
C847 C846 1.391 . S
H848 C856 0.950 . S
H849 C861 0.950 . S
H850 C858 0.950 . S
H851 C860 0.950 . S
H852 C862 0.950 . S
H853 C864 0.950 . S
H854 C866 0.950 . S
H855 C867 0.950 . S
C856 H848 0.950 . S
C856 C857 1.386 . S
C856 C858 1.391 . S
C857 C856 1.386 . S
C857 C861 1.393 . S
C858 H850 0.950 . S
C858 C856 1.391 . S
C858 C859 1.400 . S
C859 C858 1.400 . S
C859 C860 1.398 . S
C859 C865 1.491 . S
C860 H851 0.950 . S
C860 C859 1.398 . S
C860 C861 1.391 . S
C861 H849 0.950 . S
C861 C857 1.393 . S
C861 C860 1.391 . S
C862 H852 0.950 . S
C862 C863 1.386 . S
C862 C864 1.391 . S
C863 C862 1.386 . S
C863 C867 1.393 . S
C864 H853 0.950 . S
C864 C862 1.391 . S
C864 C865 1.400 . S
C865 C859 1.491 . S
C865 C864 1.400 . S
C865 C866 1.398 . S
C866 H854 0.950 . S
C866 C865 1.398 . S
C866 C867 1.391 . S
C867 H855 0.950 . S
C867 C863 1.393 . S
C867 C866 1.391 . S
H868 C876 0.950 . S
H869 C881 0.950 . S
H870 C878 0.950 . S
H871 C880 0.950 . S
H872 C882 0.950 . S
H873 C884 0.950 . S
H874 C886 0.950 . S
H875 C887 0.950 . S
C876 H868 0.950 . S
C876 C877 1.386 . S
C876 C878 1.391 . S
C877 C876 1.386 . S
C877 C881 1.393 . S
C878 H870 0.950 . S
C878 C876 1.391 . S
C878 C879 1.400 . S
C879 C878 1.400 . S
C879 C880 1.398 . S
C879 C885 1.491 . S
C880 H871 0.950 . S
C880 C879 1.398 . S
C880 C881 1.391 . S
C881 H869 0.950 . S
C881 C877 1.393 . S
C881 C880 1.391 . S
C882 H872 0.950 . S
C882 C883 1.386 . S
C882 C884 1.391 . S
C883 C882 1.386 . S
C883 C887 1.393 . S
C884 H873 0.950 . S
C884 C882 1.391 . S
C884 C885 1.400 . S
C885 C879 1.491 . S
C885 C884 1.400 . S
C885 C886 1.398 . S
C886 H874 0.950 . S
C886 C885 1.398 . S
C886 C887 1.391 . S
C887 H875 0.950 . S
C887 C883 1.393 . S
C887 C886 1.391 . S
H888 C896 0.950 . S
H889 C901 0.950 . S
H890 C898 0.950 . S
H891 C900 0.950 . S
H892 C902 0.950 . S
H893 C904 0.950 . S
H894 C906 0.950 1_554 S
H895 C907 0.950 . S
C896 H888 0.950 . S
C896 C897 1.386 . S
C896 C898 1.391 . S
C897 C896 1.386 . S
C897 C901 1.393 . S
C898 H890 0.950 . S
C898 C896 1.391 . S
C898 C899 1.400 . S
C899 C898 1.400 . S
C899 C900 1.398 1_554 S
C899 C905 1.491 1_554 S
C900 H891 0.950 . S
C900 C899 1.398 1_556 S
C900 C901 1.391 1_556 S
C901 H889 0.950 . S
C901 C897 1.393 . S
C901 C900 1.391 1_554 S
C902 H892 0.950 . S
C902 C903 1.386 . S
C902 C904 1.391 . S
C903 C902 1.386 . S
C903 C907 1.393 . S
C904 H893 0.950 . S
C904 C902 1.391 . S
C904 C905 1.400 . S
C905 C899 1.491 1_556 S
C905 C904 1.400 . S
C905 C906 1.398 . S
C906 H894 0.950 1_556 S
C906 C905 1.398 . S
C906 C907 1.391 . S
C907 H895 0.950 . S
C907 C903 1.393 . S
C907 C906 1.391 . S
H908 C916 0.950 . S
H909 C921 0.950 . S
H910 C918 0.950 . S
H911 C920 0.950 . S
H912 C922 0.950 . S
H913 C924 0.950 . S
H914 C926 0.950 . S
H915 C927 0.950 . S
C916 H908 0.950 . S
C916 C917 1.386 . S
C916 C918 1.391 . S
C917 C916 1.386 . S
C917 C921 1.393 . S
C918 H910 0.950 . S
C918 C916 1.391 . S
C918 C919 1.400 . S
C919 C918 1.400 . S
C919 C920 1.398 . S
C919 C925 1.491 . S
C920 H911 0.950 . S
C920 C919 1.398 . S
C920 C921 1.391 . S
C921 H909 0.950 . S
C921 C917 1.393 . S
C921 C920 1.391 . S
C922 H912 0.950 . S
C922 C923 1.386 . S
C922 C924 1.391 . S
C923 C922 1.386 . S
C923 C927 1.393 . S
C924 H913 0.950 . S
C924 C922 1.391 . S
C924 C925 1.400 . S
C925 C919 1.491 . S
C925 C924 1.400 . S
C925 C926 1.398 . S
C926 H914 0.950 . S
C926 C925 1.398 . S
C926 C927 1.391 . S
C927 H915 0.950 . S
C927 C923 1.393 . S
C927 C926 1.391 . S
H928 C936 0.950 . S
H929 C941 0.950 . S
H930 C938 0.950 . S
H931 C940 0.950 . S
H932 C942 0.950 . S
H933 C944 0.950 . S
H934 C946 0.950 . S
H935 C947 0.950 . S
C936 H928 0.950 . S
C936 C937 1.386 . S
C936 C938 1.391 . S
C937 C936 1.386 . S
C937 C941 1.393 . S
C938 H930 0.950 . S
C938 C936 1.391 . S
C938 C939 1.400 . S
C939 C938 1.400 . S
C939 C940 1.398 . S
C939 C945 1.491 . S
C940 H931 0.950 . S
C940 C939 1.398 . S
C940 C941 1.391 . S
C941 H929 0.950 . S
C941 C937 1.393 . S
C941 C940 1.391 . S
C942 H932 0.950 . S
C942 C943 1.386 . S
C942 C944 1.391 . S
C943 C942 1.386 . S
C943 C947 1.393 . S
C944 H933 0.950 . S
C944 C942 1.391 . S
C944 C945 1.400 . S
C945 C939 1.491 . S
C945 C944 1.400 . S
C945 C946 1.398 . S
C946 H934 0.950 . S
C946 C945 1.398 . S
C946 C947 1.391 . S
C947 H935 0.950 . S
C947 C943 1.393 . S
C947 C946 1.391 . S
H948 C956 0.950 . S
H949 C961 0.950 . S
H950 C958 0.950 . S
H951 C960 0.950 . S
H952 C962 0.950 . S
H953 C964 0.950 . S
H954 C966 0.950 . S
H955 C967 0.950 . S
C956 H948 0.950 . S
C956 C957 1.386 . S
C956 C958 1.391 . S
C957 C956 1.386 . S
C957 C961 1.393 . S
C958 H950 0.950 . S
C958 C956 1.391 . S
C958 C959 1.400 . S
C959 C958 1.400 . S
C959 C960 1.398 . S
C959 C965 1.491 . S
C960 H951 0.950 . S
C960 C959 1.398 . S
C960 C961 1.391 . S
C961 H949 0.950 . S
C961 C957 1.393 . S
C961 C960 1.391 . S
C962 H952 0.950 . S
C962 C963 1.386 . S
C962 C964 1.391 . S
C963 C962 1.386 . S
C963 C967 1.393 . S
C964 H953 0.950 . S
C964 C962 1.391 . S
C964 C965 1.400 . S
C965 C959 1.491 . S
C965 C964 1.400 . S
C965 C966 1.398 . S
C966 H954 0.950 . S
C966 C965 1.398 . S
C966 C967 1.391 . S
C967 H955 0.950 . S
C967 C963 1.393 . S
C967 C966 1.391 . S
H968 C976 0.950 . S
H969 C981 0.950 . S
H970 C978 0.950 . S
H971 C980 0.950 . S
H972 C982 0.950 . S
H973 C984 0.950 . S
H974 C986 0.950 . S
H975 C987 0.950 . S
C976 H968 0.950 . S
C976 C977 1.386 . S
C976 C978 1.391 . S
C977 C976 1.386 . S
C977 C981 1.393 . S
C978 H970 0.950 . S
C978 C976 1.391 . S
C978 C979 1.400 . S
C979 C978 1.400 . S
C979 C980 1.398 . S
C979 C985 1.491 . S
C980 H971 0.950 . S
C980 C979 1.398 . S
C980 C981 1.391 . S
C981 H969 0.950 . S
C981 C977 1.393 . S
C981 C980 1.391 . S
C982 H972 0.950 . S
C982 C983 1.386 . S
C982 C984 1.391 . S
C983 C982 1.386 . S
C983 C987 1.393 . S
C984 H973 0.950 . S
C984 C982 1.391 . S
C984 C985 1.400 . S
C985 C979 1.491 . S
C985 C984 1.400 . S
C985 C986 1.398 . S
C986 H974 0.950 . S
C986 C985 1.398 . S
C986 C987 1.391 . S
C987 H975 0.950 . S
C987 C983 1.393 . S
C987 C986 1.391 . S
H988 C996 0.950 . S
H989 C1001 0.950 . S
H990 C998 0.950 . S
H991 C1000 0.950 . S
H992 C1002 0.950 . S
H993 C1004 0.950 . S
H994 C1006 0.950 . S
H995 C1007 0.950 . S
C996 H988 0.950 . S
C996 C997 1.386 . S
C996 C998 1.391 . S
C997 C996 1.386 . S
C997 C1001 1.393 . S
C998 H990 0.950 . S
C998 C996 1.391 . S
C998 C999 1.400 . S
C999 C998 1.400 . S
C999 C1000 1.398 . S
C999 C1005 1.491 . S
C1000 H991 0.950 . S
C1000 C999 1.398 . S
C1000 C1001 1.391 . S
C1001 H989 0.950 . S
C1001 C997 1.393 . S
C1001 C1000 1.391 . S
C1002 H992 0.950 . S
C1002 C1003 1.386 . S
C1002 C1004 1.391 . S
C1003 C1002 1.386 . S
C1003 C1007 1.393 . S
C1004 H993 0.950 . S
C1004 C1002 1.391 . S
C1004 C1005 1.400 . S
C1005 C999 1.491 . S
C1005 C1004 1.400 . S
C1005 C1006 1.398 . S
C1006 H994 0.950 . S
C1006 C1005 1.398 . S
C1006 C1007 1.391 . S
C1007 H995 0.950 . S
C1007 C1003 1.393 . S
C1007 C1006 1.391 . S
H1008 C1016 0.950 . S
H1009 C1021 0.950 . S
H1010 C1018 0.950 . S
H1011 C1020 0.950 . S
H1012 C1022 0.950 . S
H1013 C1024 0.950 . S
H1014 C1026 0.950 . S
H1015 C1027 0.950 . S
C1016 H1008 0.950 . S
C1016 C1017 1.386 . S
C1016 C1018 1.391 . S
C1017 C1016 1.386 . S
C1017 C1021 1.393 . S
C1018 H1010 0.950 . S
C1018 C1016 1.391 . S
C1018 C1019 1.400 . S
C1019 C1018 1.400 . S
C1019 C1020 1.398 . S
C1019 C1025 1.491 . S
C1020 H1011 0.950 . S
C1020 C1019 1.398 . S
C1020 C1021 1.391 . S
C1021 H1009 0.950 . S
C1021 C1017 1.393 . S
C1021 C1020 1.391 . S
C1022 H1012 0.950 . S
C1022 C1023 1.386 . S
C1022 C1024 1.391 . S
C1023 C1022 1.386 . S
C1023 C1027 1.393 . S
C1024 H1013 0.950 . S
C1024 C1022 1.391 . S
C1024 C1025 1.400 . S
C1025 C1019 1.491 . S
C1025 C1024 1.400 . S
C1025 C1026 1.398 . S
C1026 H1014 0.950 . S
C1026 C1025 1.398 . S
C1026 C1027 1.391 . S
C1027 H1015 0.950 . S
C1027 C1023 1.393 . S
C1027 C1026 1.391 . S
H1028 C1036 0.950 . S
H1029 C1041 0.950 . S
H1030 C1038 0.950 . S
H1031 C1040 0.950 . S
H1032 C1042 0.950 . S
H1033 C1044 0.950 . S
H1034 C1046 0.950 . S
H1035 C1047 0.950 . S
C1036 H1028 0.950 . S
C1036 C1037 1.386 . S
C1036 C1038 1.391 . S
C1037 C1036 1.386 . S
C1037 C1041 1.393 . S
C1038 H1030 0.950 . S
C1038 C1036 1.391 . S
C1038 C1039 1.400 . S
C1039 C1038 1.400 . S
C1039 C1040 1.398 . S
C1039 C1045 1.491 . S
C1040 H1031 0.950 . S
C1040 C1039 1.398 . S
C1040 C1041 1.391 . S
C1041 H1029 0.950 . S
C1041 C1037 1.393 . S
C1041 C1040 1.391 . S
C1042 H1032 0.950 . S
C1042 C1043 1.386 . S
C1042 C1044 1.391 . S
C1043 C1042 1.386 . S
C1043 C1047 1.393 . S
C1044 H1033 0.950 . S
C1044 C1042 1.391 . S
C1044 C1045 1.400 . S
C1045 C1039 1.491 . S
C1045 C1044 1.400 . S
C1045 C1046 1.398 . S
C1046 H1034 0.950 . S
C1046 C1045 1.398 . S
C1046 C1047 1.391 . S
C1047 H1035 0.950 . S
C1047 C1043 1.393 . S
C1047 C1046 1.391 . S
H1048 C1056 0.950 . S
H1049 C1061 0.950 . S
H1050 C1058 0.950 . S
H1051 C1060 0.950 . S
H1052 C1062 0.950 . S
H1053 C1064 0.950 . S
H1054 C1066 0.950 . S
H1055 C1067 0.950 . S
C1056 H1048 0.950 . S
C1056 C1057 1.386 . S
C1056 C1058 1.391 . S
C1057 C1056 1.386 . S
C1057 C1061 1.393 . S
C1058 H1050 0.950 . S
C1058 C1056 1.391 . S
C1058 C1059 1.400 . S
C1059 C1058 1.400 . S
C1059 C1060 1.398 . S
C1059 C1065 1.491 . S
C1060 H1051 0.950 . S
C1060 C1059 1.398 . S
C1060 C1061 1.391 . S
C1061 H1049 0.950 . S
C1061 C1057 1.393 . S
C1061 C1060 1.391 . S
C1062 H1052 0.950 . S
C1062 C1063 1.386 . S
C1062 C1064 1.391 . S
C1063 C1062 1.386 . S
C1063 C1067 1.393 . S
C1064 H1053 0.950 . S
C1064 C1062 1.391 . S
C1064 C1065 1.400 . S
C1065 C1059 1.491 . S
C1065 C1064 1.400 . S
C1065 C1066 1.398 . S
C1066 H1054 0.950 . S
C1066 C1065 1.398 . S
C1066 C1067 1.391 . S
C1067 H1055 0.950 . S
C1067 C1063 1.393 . S
C1067 C1066 1.391 . S
H1068 C1076 0.950 . S
H1069 C1081 0.950 . S
H1070 C1078 0.950 . S
H1071 C1080 0.950 . S
H1072 C1082 0.950 . S
H1073 C1084 0.950 . S
H1074 C1086 0.950 . S
H1075 C1087 0.950 . S
C1076 H1068 0.950 . S
C1076 C1077 1.386 . S
C1076 C1078 1.391 . S
C1077 C1076 1.386 . S
C1077 C1081 1.393 . S
C1078 H1070 0.950 . S
C1078 C1076 1.391 . S
C1078 C1079 1.400 . S
C1079 C1078 1.400 . S
C1079 C1080 1.398 . S
C1079 C1085 1.491 . S
C1080 H1071 0.950 . S
C1080 C1079 1.398 . S
C1080 C1081 1.391 . S
C1081 H1069 0.950 . S
C1081 C1077 1.393 . S
C1081 C1080 1.391 . S
C1082 H1072 0.950 . S
C1082 C1083 1.386 . S
C1082 C1084 1.391 . S
C1083 C1082 1.386 . S
C1083 C1087 1.393 . S
C1084 H1073 0.950 . S
C1084 C1082 1.391 . S
C1084 C1085 1.400 . S
C1085 C1079 1.491 . S
C1085 C1084 1.400 . S
C1085 C1086 1.398 . S
C1086 H1074 0.950 . S
C1086 C1085 1.398 . S
C1086 C1087 1.391 . S
C1087 H1075 0.950 . S
C1087 C1083 1.393 . S
C1087 C1086 1.391 . S
H1088 C1096 0.950 . S
H1089 C1101 0.950 . S
H1090 C1098 0.950 . S
H1091 C1100 0.950 . S
H1092 C1102 0.950 . S
H1093 C1104 0.950 . S
H1094 C1106 0.950 . S
H1095 C1107 0.950 . S
C1096 H1088 0.950 . S
C1096 C1097 1.386 . S
C1096 C1098 1.391 . S
C1097 C1096 1.386 . S
C1097 C1101 1.393 . S
C1098 H1090 0.950 . S
C1098 C1096 1.391 . S
C1098 C1099 1.400 . S
C1099 C1098 1.400 . S
C1099 C1100 1.398 . S
C1099 C1105 1.491 . S
C1100 H1091 0.950 . S
C1100 C1099 1.398 . S
C1100 C1101 1.391 . S
C1101 H1089 0.950 . S
C1101 C1097 1.393 . S
C1101 C1100 1.391 . S
C1102 H1092 0.950 . S
C1102 C1103 1.386 . S
C1102 C1104 1.391 . S
C1103 C1102 1.386 . S
C1103 C1107 1.393 . S
C1104 H1093 0.950 . S
C1104 C1102 1.391 . S
C1104 C1105 1.400 . S
C1105 C1099 1.491 . S
C1105 C1104 1.400 . S
C1105 C1106 1.398 . S
C1106 H1094 0.950 . S
C1106 C1105 1.398 . S
C1106 C1107 1.391 . S
C1107 H1095 0.950 . S
C1107 C1103 1.393 . S
C1107 C1106 1.391 . S
H1108 C1116 0.950 . S
H1109 C1121 0.950 . S
H1110 C1118 0.950 . S
H1111 C1120 0.950 . S
H1112 C1122 0.950 . S
H1113 C1124 0.950 . S
H1114 C1126 0.950 . S
H1115 C1127 0.950 . S
C1116 H1108 0.950 . S
C1116 C1117 1.386 . S
C1116 C1118 1.391 . S
C1117 C1116 1.386 . S
C1117 C1121 1.393 . S
C1118 H1110 0.950 . S
C1118 C1116 1.391 . S
C1118 C1119 1.400 . S
C1119 C1118 1.400 . S
C1119 C1120 1.398 . S
C1119 C1125 1.491 . S
C1120 H1111 0.950 . S
C1120 C1119 1.398 . S
C1120 C1121 1.391 . S
C1121 H1109 0.950 . S
C1121 C1117 1.393 . S
C1121 C1120 1.391 . S
C1122 H1112 0.950 . S
C1122 C1123 1.386 . S
C1122 C1124 1.391 . S
C1123 C1122 1.386 . S
C1123 C1127 1.393 . S
C1124 H1113 0.950 . S
C1124 C1122 1.391 . S
C1124 C1125 1.400 . S
C1125 C1119 1.491 . S
C1125 C1124 1.400 . S
C1125 C1126 1.398 . S
C1126 H1114 0.950 . S
C1126 C1125 1.398 . S
C1126 C1127 1.391 . S
C1127 H1115 0.950 . S
C1127 C1123 1.393 . S
C1127 C1126 1.391 . S
H1128 C1136 0.950 . S
H1129 C1141 0.950 . S
H1130 C1138 0.950 . S
H1131 C1140 0.950 . S
H1132 C1142 0.950 . S
H1133 C1144 0.950 . S
H1134 C1146 0.950 . S
H1135 C1147 0.950 . S
C1136 H1128 0.950 . S
C1136 C1137 1.386 . S
C1136 C1138 1.391 . S
C1137 C1136 1.386 . S
C1137 C1141 1.393 . S
C1138 H1130 0.950 . S
C1138 C1136 1.391 . S
C1138 C1139 1.400 . S
C1139 C1138 1.400 . S
C1139 C1140 1.398 . S
C1139 C1145 1.491 . S
C1140 H1131 0.950 . S
C1140 C1139 1.398 . S
C1140 C1141 1.391 . S
C1141 H1129 0.950 . S
C1141 C1137 1.393 . S
C1141 C1140 1.391 . S
C1142 H1132 0.950 . S
C1142 C1143 1.386 . S
C1142 C1144 1.391 . S
C1143 C1142 1.386 . S
C1143 C1147 1.393 . S
C1144 H1133 0.950 . S
C1144 C1142 1.391 . S
C1144 C1145 1.400 . S
C1145 C1139 1.491 . S
C1145 C1144 1.400 . S
C1145 C1146 1.398 . S
C1146 H1134 0.950 . S
C1146 C1145 1.398 . S
C1146 C1147 1.391 . S
C1147 H1135 0.950 . S
C1147 C1143 1.393 . S
C1147 C1146 1.391 . S
H1148 C1156 0.950 . S
H1149 C1161 0.950 . S
H1150 C1158 0.950 . S
H1151 C1160 0.950 . S
H1152 C1162 0.950 . S
H1153 C1164 0.950 . S
H1154 C1166 0.950 . S
H1155 C1167 0.950 . S
C1156 H1148 0.950 . S
C1156 C1157 1.386 . S
C1156 C1158 1.391 . S
C1157 C1156 1.386 . S
C1157 C1161 1.393 . S
C1158 H1150 0.950 . S
C1158 C1156 1.391 . S
C1158 C1159 1.400 . S
C1159 C1158 1.400 . S
C1159 C1160 1.398 . S
C1159 C1165 1.491 . S
C1160 H1151 0.950 . S
C1160 C1159 1.398 . S
C1160 C1161 1.391 . S
C1161 H1149 0.950 . S
C1161 C1157 1.393 . S
C1161 C1160 1.391 . S
C1162 H1152 0.950 . S
C1162 C1163 1.386 . S
C1162 C1164 1.391 . S
C1163 C1162 1.386 . S
C1163 C1167 1.393 . S
C1164 H1153 0.950 . S
C1164 C1162 1.391 . S
C1164 C1165 1.400 . S
C1165 C1159 1.491 . S
C1165 C1164 1.400 . S
C1165 C1166 1.398 . S
C1166 H1154 0.950 . S
C1166 C1165 1.398 . S
C1166 C1167 1.391 . S
C1167 H1155 0.950 . S
C1167 C1163 1.393 . S
C1167 C1166 1.391 . S
H1168 C1176 0.950 . S
H1169 C1181 0.950 . S
H1170 C1178 0.950 . S
H1171 C1180 0.950 . S
H1172 C1182 0.950 . S
H1173 C1184 0.950 . S
H1174 C1186 0.950 . S
H1175 C1187 0.950 . S
C1176 H1168 0.950 . S
C1176 C1177 1.386 . S
C1176 C1178 1.391 . S
C1177 C1176 1.386 . S
C1177 C1181 1.393 . S
C1178 H1170 0.950 . S
C1178 C1176 1.391 . S
C1178 C1179 1.400 . S
C1179 C1178 1.400 . S
C1179 C1180 1.398 . S
C1179 C1185 1.491 . S
C1180 H1171 0.950 . S
C1180 C1179 1.398 . S
C1180 C1181 1.391 . S
C1181 H1169 0.950 . S
C1181 C1177 1.393 . S
C1181 C1180 1.391 . S
C1182 H1172 0.950 . S
C1182 C1183 1.386 . S
C1182 C1184 1.391 . S
C1183 C1182 1.386 . S
C1183 C1187 1.393 . S
C1184 H1173 0.950 . S
C1184 C1182 1.391 . S
C1184 C1185 1.400 . S
C1185 C1179 1.491 . S
C1185 C1184 1.400 . S
C1185 C1186 1.398 . S
C1186 H1174 0.950 . S
C1186 C1185 1.398 . S
C1186 C1187 1.391 . S
C1187 H1175 0.950 . S
C1187 C1183 1.393 . S
C1187 C1186 1.391 . S
H1188 C1196 0.950 . S
H1189 C1201 0.950 . S
H1190 C1198 0.950 . S
H1191 C1200 0.950 . S
H1192 C1202 0.950 . S
H1193 C1204 0.950 . S
H1194 C1206 0.950 . S
H1195 C1207 0.950 . S
C1196 H1188 0.950 . S
C1196 C1197 1.386 . S
C1196 C1198 1.391 . S
C1197 C1196 1.386 . S
C1197 C1201 1.393 . S
C1198 H1190 0.950 . S
C1198 C1196 1.391 . S
C1198 C1199 1.400 . S
C1199 C1198 1.400 . S
C1199 C1200 1.398 . S
C1199 C1205 1.491 . S
C1200 H1191 0.950 . S
C1200 C1199 1.398 . S
C1200 C1201 1.391 . S
C1201 H1189 0.950 . S
C1201 C1197 1.393 . S
C1201 C1200 1.391 . S
C1202 H1192 0.950 . S
C1202 C1203 1.386 . S
C1202 C1204 1.391 . S
C1203 C1202 1.386 . S
C1203 C1207 1.393 . S
C1204 H1193 0.950 . S
C1204 C1202 1.391 . S
C1204 C1205 1.400 . S
C1205 C1199 1.491 . S
C1205 C1204 1.400 . S
C1205 C1206 1.398 . S
C1206 H1194 0.950 . S
C1206 C1205 1.398 . S
C1206 C1207 1.391 . S
C1207 H1195 0.950 . S
C1207 C1203 1.393 . S
C1207 C1206 1.391 . S
H1208 C1216 0.950 . S
H1209 C1221 0.950 . S
H1210 C1218 0.950 . S
H1211 C1220 0.950 . S
H1212 C1222 0.950 . S
H1213 C1224 0.950 . S
H1214 C1226 0.950 . S
H1215 C1227 0.950 . S
C1216 H1208 0.950 . S
C1216 C1217 1.386 . S
C1216 C1218 1.391 . S
C1217 C1216 1.386 . S
C1217 C1221 1.393 . S
C1218 H1210 0.950 . S
C1218 C1216 1.391 . S
C1218 C1219 1.400 . S
C1219 C1218 1.400 . S
C1219 C1220 1.398 . S
C1219 C1225 1.491 . S
C1220 H1211 0.950 . S
C1220 C1219 1.398 . S
C1220 C1221 1.391 . S
C1221 H1209 0.950 . S
C1221 C1217 1.393 . S
C1221 C1220 1.391 . S
C1222 H1212 0.950 . S
C1222 C1223 1.386 . S
C1222 C1224 1.391 . S
C1223 C1222 1.386 . S
C1223 C1227 1.393 . S
C1224 H1213 0.950 . S
C1224 C1222 1.391 . S
C1224 C1225 1.400 . S
C1225 C1219 1.491 . S
C1225 C1224 1.400 . S
C1225 C1226 1.398 . S
C1226 H1214 0.950 . S
C1226 C1225 1.398 . S
C1226 C1227 1.391 . S
C1227 H1215 0.950 . S
C1227 C1223 1.393 . S
C1227 C1226 1.391 . S
H1228 C1236 0.950 . S
H1229 C1241 0.950 . S
H1230 C1238 0.950 . S
H1231 C1240 0.950 . S
H1232 C1242 0.950 . S
H1233 C1244 0.950 . S
H1234 C1246 0.950 . S
H1235 C1247 0.950 . S
C1236 H1228 0.950 . S
C1236 C1237 1.386 . S
C1236 C1238 1.391 . S
C1237 C1236 1.386 . S
C1237 C1241 1.393 . S
C1238 H1230 0.950 . S
C1238 C1236 1.391 . S
C1238 C1239 1.400 . S
C1239 C1238 1.400 . S
C1239 C1240 1.398 . S
C1239 C1245 1.491 . S
C1240 H1231 0.950 . S
C1240 C1239 1.398 . S
C1240 C1241 1.391 . S
C1241 H1229 0.950 . S
C1241 C1237 1.393 . S
C1241 C1240 1.391 . S
C1242 H1232 0.950 . S
C1242 C1243 1.386 . S
C1242 C1244 1.391 . S
C1243 C1242 1.386 . S
C1243 C1247 1.393 . S
C1244 H1233 0.950 . S
C1244 C1242 1.391 . S
C1244 C1245 1.400 . S
C1245 C1239 1.491 . S
C1245 C1244 1.400 . S
C1245 C1246 1.398 . S
C1246 H1234 0.950 . S
C1246 C1245 1.398 . S
C1246 C1247 1.391 . S
C1247 H1235 0.950 . S
C1247 C1243 1.393 . S
C1247 C1246 1.391 . S
H1248 C1256 0.950 . S
H1249 C1261 0.950 . S
H1250 C1258 0.950 . S
H1251 C1260 0.950 . S
H1252 C1262 0.950 . S
H1253 C1264 0.950 . S
H1254 C1266 0.950 . S
H1255 C1267 0.950 . S
C1256 H1248 0.950 . S
C1256 C1257 1.386 . S
C1256 C1258 1.391 . S
C1257 C1256 1.386 . S
C1257 C1261 1.393 . S
C1258 H1250 0.950 . S
C1258 C1256 1.391 . S
C1258 C1259 1.400 . S
C1259 C1258 1.400 . S
C1259 C1260 1.398 . S
C1259 C1265 1.491 . S
C1260 H1251 0.950 . S
C1260 C1259 1.398 . S
C1260 C1261 1.391 . S
C1261 H1249 0.950 . S
C1261 C1257 1.393 . S
C1261 C1260 1.391 . S
C1262 H1252 0.950 . S
C1262 C1263 1.386 . S
C1262 C1264 1.391 . S
C1263 C1262 1.386 . S
C1263 C1267 1.393 . S
C1264 H1253 0.950 . S
C1264 C1262 1.391 . S
C1264 C1265 1.400 . S
C1265 C1259 1.491 . S
C1265 C1264 1.400 . S
C1265 C1266 1.398 . S
C1266 H1254 0.950 . S
C1266 C1265 1.398 . S
C1266 C1267 1.391 . S
C1267 H1255 0.950 . S
C1267 C1263 1.393 . S
C1267 C1266 1.391 . S
H1268 C1276 0.950 . S
H1269 C1281 0.950 . S
H1270 C1278 0.950 . S
H1271 C1280 0.950 . S
H1272 C1282 0.950 . S
H1273 C1284 0.950 . S
H1274 C1286 0.950 . S
H1275 C1287 0.950 . S
C1276 H1268 0.950 . S
C1276 C1277 1.386 . S
C1276 C1278 1.391 . S
C1277 C1276 1.386 . S
C1277 C1281 1.393 . S
C1278 H1270 0.950 . S
C1278 C1276 1.391 . S
C1278 C1279 1.400 . S
C1279 C1278 1.400 . S
C1279 C1280 1.398 . S
C1279 C1285 1.491 . S
C1280 H1271 0.950 . S
C1280 C1279 1.398 . S
C1280 C1281 1.391 . S
C1281 H1269 0.950 . S
C1281 C1277 1.393 . S
C1281 C1280 1.391 . S
C1282 H1272 0.950 . S
C1282 C1283 1.386 . S
C1282 C1284 1.391 . S
C1283 C1282 1.386 . S
C1283 C1287 1.393 . S
C1284 H1273 0.950 . S
C1284 C1282 1.391 . S
C1284 C1285 1.400 . S
C1285 C1279 1.491 . S
C1285 C1284 1.400 . S
C1285 C1286 1.398 . S
C1286 H1274 0.950 . S
C1286 C1285 1.398 . S
C1286 C1287 1.391 . S
C1287 H1275 0.950 . S
C1287 C1283 1.393 . S
C1287 C1286 1.391 . S
H1288 C1296 0.950 . S
H1289 C1301 0.950 . S
H1290 C1298 0.950 . S
H1291 C1300 0.950 . S
H1292 C1302 0.950 . S
H1293 C1304 0.950 . S
H1294 C1306 0.950 . S
H1295 C1307 0.950 . S
C1296 H1288 0.950 . S
C1296 C1297 1.386 . S
C1296 C1298 1.391 . S
C1297 C1296 1.386 . S
C1297 C1301 1.393 . S
C1298 H1290 0.950 . S
C1298 C1296 1.391 . S
C1298 C1299 1.400 . S
C1299 C1298 1.400 . S
C1299 C1300 1.398 . S
C1299 C1305 1.491 . S
C1300 H1291 0.950 . S
C1300 C1299 1.398 . S
C1300 C1301 1.391 . S
C1301 H1289 0.950 . S
C1301 C1297 1.393 . S
C1301 C1300 1.391 . S
C1302 H1292 0.950 . S
C1302 C1303 1.386 . S
C1302 C1304 1.391 . S
C1303 C1302 1.386 . S
C1303 C1307 1.393 . S
C1304 H1293 0.950 . S
C1304 C1302 1.391 . S
C1304 C1305 1.400 . S
C1305 C1299 1.491 . S
C1305 C1304 1.400 . S
C1305 C1306 1.398 . S
C1306 H1294 0.950 . S
C1306 C1305 1.398 . S
C1306 C1307 1.391 . S
C1307 H1295 0.950 . S
C1307 C1303 1.393 . S
C1307 C1306 1.391 . S
H1308 C1316 0.950 . S
H1309 C1321 0.950 . S
H1310 C1318 0.950 . S
H1311 C1320 0.950 . S
H1312 C1322 0.950 . S
H1313 C1324 0.950 . S
H1314 C1326 0.950 . S
H1315 C1327 0.950 . S
C1316 H1308 0.950 . S
C1316 C1317 1.386 . S
C1316 C1318 1.391 . S
C1317 C1316 1.386 . S
C1317 C1321 1.393 . S
C1318 H1310 0.950 . S
C1318 C1316 1.391 . S
C1318 C1319 1.400 . S
C1319 C1318 1.400 . S
C1319 C1320 1.398 . S
C1319 C1325 1.491 . S
C1320 H1311 0.950 . S
C1320 C1319 1.398 . S
C1320 C1321 1.391 . S
C1321 H1309 0.950 . S
C1321 C1317 1.393 . S
C1321 C1320 1.391 . S
C1322 H1312 0.950 . S
C1322 C1323 1.386 . S
C1322 C1324 1.391 . S
C1323 C1322 1.386 . S
C1323 C1327 1.393 . S
C1324 H1313 0.950 . S
C1324 C1322 1.391 . S
C1324 C1325 1.400 . S
C1325 C1319 1.491 . S
C1325 C1324 1.400 . S
C1325 C1326 1.398 . S
C1326 H1314 0.950 . S
C1326 C1325 1.398 . S
C1326 C1327 1.391 . S
C1327 H1315 0.950 . S
C1327 C1323 1.393 . S
C1327 C1326 1.391 . S
H1328 C1336 0.950 . S
H1329 C1341 0.950 . S
H1330 C1338 0.950 . S
H1331 C1340 0.950 . S
H1332 C1342 0.950 . S
H1333 C1344 0.950 . S
H1334 C1346 0.950 . S
H1335 C1347 0.950 . S
C1336 H1328 0.950 . S
C1336 C1337 1.386 . S
C1336 C1338 1.391 . S
C1337 C1336 1.386 . S
C1337 C1341 1.393 . S
C1338 H1330 0.950 . S
C1338 C1336 1.391 . S
C1338 C1339 1.400 . S
C1339 C1338 1.400 . S
C1339 C1340 1.398 . S
C1339 C1345 1.491 . S
C1340 H1331 0.950 . S
C1340 C1339 1.398 . S
C1340 C1341 1.391 . S
C1341 H1329 0.950 . S
C1341 C1337 1.393 . S
C1341 C1340 1.391 . S
C1342 H1332 0.950 . S
C1342 C1343 1.386 . S
C1342 C1344 1.391 . S
C1343 C1342 1.386 . S
C1343 C1347 1.393 . S
C1344 H1333 0.950 . S
C1344 C1342 1.391 . S
C1344 C1345 1.400 . S
C1345 C1339 1.491 . S
C1345 C1344 1.400 . S
C1345 C1346 1.398 . S
C1346 H1334 0.950 . S
C1346 C1345 1.398 . S
C1346 C1347 1.391 . S
C1347 H1335 0.950 . S
C1347 C1343 1.393 . S
C1347 C1346 1.391 . S
H1348 C1356 0.950 . S
H1349 C1361 0.950 . S
H1350 C1358 0.950 . S
H1351 C1360 0.950 . S
H1352 C1362 0.950 . S
H1353 C1364 0.950 . S
H1354 C1366 0.950 . S
H1355 C1367 0.950 . S
C1356 H1348 0.950 . S
C1356 C1357 1.386 . S
C1356 C1358 1.391 . S
C1357 C1356 1.386 . S
C1357 C1361 1.393 . S
C1358 H1350 0.950 . S
C1358 C1356 1.391 . S
C1358 C1359 1.400 . S
C1359 C1358 1.400 . S
C1359 C1360 1.398 . S
C1359 C1365 1.491 . S
C1360 H1351 0.950 . S
C1360 C1359 1.398 . S
C1360 C1361 1.391 . S
C1361 H1349 0.950 . S
C1361 C1357 1.393 . S
C1361 C1360 1.391 . S
C1362 H1352 0.950 . S
C1362 C1363 1.386 . S
C1362 C1364 1.391 . S
C1363 C1362 1.386 . S
C1363 C1367 1.393 . S
C1364 H1353 0.950 . S
C1364 C1362 1.391 . S
C1364 C1365 1.400 . S
C1365 C1359 1.491 . S
C1365 C1364 1.400 . S
C1365 C1366 1.398 . S
C1366 H1354 0.950 . S
C1366 C1365 1.398 . S
C1366 C1367 1.391 . S
C1367 H1355 0.950 . S
C1367 C1363 1.393 . S
C1367 C1366 1.391 . S
H1368 C1376 0.950 . S
H1369 C1381 0.950 . S
H1370 C1378 0.950 . S
H1371 C1380 0.950 . S
H1372 C1382 0.950 . S
H1373 C1384 0.950 . S
H1374 C1386 0.950 . S
H1375 C1387 0.950 . S
C1376 H1368 0.950 . S
C1376 C1377 1.386 . S
C1376 C1378 1.391 . S
C1377 C1376 1.386 . S
C1377 C1381 1.393 . S
C1378 H1370 0.950 . S
C1378 C1376 1.391 . S
C1378 C1379 1.400 . S
C1379 C1378 1.400 . S
C1379 C1380 1.398 . S
C1379 C1385 1.491 . S
C1380 H1371 0.950 . S
C1380 C1379 1.398 . S
C1380 C1381 1.391 . S
C1381 H1369 0.950 . S
C1381 C1377 1.393 . S
C1381 C1380 1.391 . S
C1382 H1372 0.950 . S
C1382 C1383 1.386 . S
C1382 C1384 1.391 . S
C1383 C1382 1.386 . S
C1383 C1387 1.393 . S
C1384 H1373 0.950 . S
C1384 C1382 1.391 . S
C1384 C1385 1.400 . S
C1385 C1379 1.491 . S
C1385 C1384 1.400 . S
C1385 C1386 1.398 . S
C1386 H1374 0.950 . S
C1386 C1385 1.398 . S
C1386 C1387 1.391 . S
C1387 H1375 0.950 . S
C1387 C1383 1.393 . S
C1387 C1386 1.391 . S
H1388 C1396 0.950 . S
H1389 C1401 0.950 . S
H1390 C1398 0.950 . S
H1391 C1400 0.950 . S
H1392 C1402 0.950 . S
H1393 C1404 0.950 . S
H1394 C1406 0.950 . S
H1395 C1407 0.950 . S
C1396 H1388 0.950 . S
C1396 C1397 1.386 . S
C1396 C1398 1.391 . S
C1397 C1396 1.386 . S
C1397 C1401 1.393 . S
C1398 H1390 0.950 . S
C1398 C1396 1.391 . S
C1398 C1399 1.400 . S
C1399 C1398 1.400 . S
C1399 C1400 1.398 . S
C1399 C1405 1.491 . S
C1400 H1391 0.950 . S
C1400 C1399 1.398 . S
C1400 C1401 1.391 . S
C1401 H1389 0.950 . S
C1401 C1397 1.393 . S
C1401 C1400 1.391 . S
C1402 H1392 0.950 . S
C1402 C1403 1.386 . S
C1402 C1404 1.391 . S
C1403 C1402 1.386 . S
C1403 C1407 1.393 . S
C1404 H1393 0.950 . S
C1404 C1402 1.391 . S
C1404 C1405 1.400 . S
C1405 C1399 1.491 . S
C1405 C1404 1.400 . S
C1405 C1406 1.398 . S
C1406 H1394 0.950 . S
C1406 C1405 1.398 . S
C1406 C1407 1.391 . S
C1407 H1395 0.950 . S
C1407 C1403 1.393 . S
C1407 C1406 1.391 . S
H1408 C1416 0.950 . S
H1409 C1421 0.950 . S
H1410 C1418 0.950 . S
H1411 C1420 0.950 . S
H1412 C1422 0.950 . S
H1413 C1424 0.950 . S
H1414 C1426 0.950 . S
H1415 C1427 0.950 . S
C1416 H1408 0.950 . S
C1416 C1417 1.386 . S
C1416 C1418 1.391 . S
C1417 C1416 1.386 . S
C1417 C1421 1.393 . S
C1418 H1410 0.950 . S
C1418 C1416 1.391 . S
C1418 C1419 1.400 . S
C1419 C1418 1.400 . S
C1419 C1420 1.398 . S
C1419 C1425 1.491 . S
C1420 H1411 0.950 . S
C1420 C1419 1.398 . S
C1420 C1421 1.391 . S
C1421 H1409 0.950 . S
C1421 C1417 1.393 . S
C1421 C1420 1.391 . S
C1422 H1412 0.950 . S
C1422 C1423 1.386 . S
C1422 C1424 1.391 . S
C1423 C1422 1.386 . S
C1423 C1427 1.393 . S
C1424 H1413 0.950 . S
C1424 C1422 1.391 . S
C1424 C1425 1.400 . S
C1425 C1419 1.491 . S
C1425 C1424 1.400 . S
C1425 C1426 1.398 . S
C1426 H1414 0.950 . S
C1426 C1425 1.398 . S
C1426 C1427 1.391 . S
C1427 H1415 0.950 . S
C1427 C1423 1.393 . S
C1427 C1426 1.391 . S
H1428 C1436 0.950 . S
H1429 C1441 0.950 . S
H1430 C1438 0.950 . S
H1431 C1440 0.950 . S
H1432 C1442 0.950 . S
H1433 C1444 0.950 . S
H1434 C1446 0.950 . S
H1435 C1447 0.950 . S
C1436 H1428 0.950 . S
C1436 C1437 1.386 . S
C1436 C1438 1.391 . S
C1437 C1436 1.386 . S
C1437 C1441 1.393 . S
C1438 H1430 0.950 . S
C1438 C1436 1.391 . S
C1438 C1439 1.400 . S
C1439 C1438 1.400 . S
C1439 C1440 1.398 . S
C1439 C1445 1.491 . S
C1440 H1431 0.950 . S
C1440 C1439 1.398 . S
C1440 C1441 1.391 . S
C1441 H1429 0.950 . S
C1441 C1437 1.393 . S
C1441 C1440 1.391 . S
C1442 H1432 0.950 . S
C1442 C1443 1.386 . S
C1442 C1444 1.391 . S
C1443 C1442 1.386 . S
C1443 C1447 1.393 . S
C1444 H1433 0.950 . S
C1444 C1442 1.391 . S
C1444 C1445 1.400 . S
C1445 C1439 1.491 . S
C1445 C1444 1.400 . S
C1445 C1446 1.398 . S
C1446 H1434 0.950 . S
C1446 C1445 1.398 . S
C1446 C1447 1.391 . S
C1447 H1435 0.950 . S
C1447 C1443 1.393 . S
C1447 C1446 1.391 . S
H1448 C1456 0.950 . S
H1449 C1461 0.950 . S
H1450 C1458 0.950 . S
H1451 C1460 0.950 . S
H1452 C1462 0.950 . S
H1453 C1464 0.950 . S
H1454 C1466 0.950 . S
H1455 C1467 0.950 . S
C1456 H1448 0.950 . S
C1456 C1457 1.386 . S
C1456 C1458 1.391 . S
C1457 C1456 1.386 . S
C1457 C1461 1.393 . S
C1458 H1450 0.950 . S
C1458 C1456 1.391 . S
C1458 C1459 1.400 . S
C1459 C1458 1.400 . S
C1459 C1460 1.398 . S
C1459 C1465 1.491 . S
C1460 H1451 0.950 . S
C1460 C1459 1.398 . S
C1460 C1461 1.391 . S
C1461 H1449 0.950 . S
C1461 C1457 1.393 . S
C1461 C1460 1.391 . S
C1462 H1452 0.950 . S
C1462 C1463 1.386 . S
C1462 C1464 1.391 . S
C1463 C1462 1.386 . S
C1463 C1467 1.393 . S
C1464 H1453 0.950 . S
C1464 C1462 1.391 . S
C1464 C1465 1.400 . S
C1465 C1459 1.491 . S
C1465 C1464 1.400 . S
C1465 C1466 1.398 . S
C1466 H1454 0.950 . S
C1466 C1465 1.398 . S
C1466 C1467 1.391 . S
C1467 H1455 0.950 . S
C1467 C1463 1.393 . S
C1467 C1466 1.391 . S
H1468 C1476 0.950 . S
H1469 C1481 0.950 . S
H1470 C1478 0.950 . S
H1471 C1480 0.950 . S
H1472 C1482 0.950 . S
H1473 C1484 0.950 . S
H1474 C1486 0.950 . S
H1475 C1487 0.950 . S
C1476 H1468 0.950 . S
C1476 C1477 1.386 . S
C1476 C1478 1.391 . S
C1477 C1476 1.386 . S
C1477 C1481 1.393 . S
C1478 H1470 0.950 . S
C1478 C1476 1.391 . S
C1478 C1479 1.400 . S
C1479 C1478 1.400 . S
C1479 C1480 1.398 . S
C1479 C1485 1.491 . S
C1480 H1471 0.950 . S
C1480 C1479 1.398 . S
C1480 C1481 1.391 . S
C1481 H1469 0.950 . S
C1481 C1477 1.393 . S
C1481 C1480 1.391 . S
C1482 H1472 0.950 . S
C1482 C1483 1.386 . S
C1482 C1484 1.391 . S
C1483 C1482 1.386 . S
C1483 C1487 1.393 . S
C1484 H1473 0.950 . S
C1484 C1482 1.391 . S
C1484 C1485 1.400 . S
C1485 C1479 1.491 . S
C1485 C1484 1.400 . S
C1485 C1486 1.398 . S
C1486 H1474 0.950 . S
C1486 C1485 1.398 . S
C1486 C1487 1.391 . S
C1487 H1475 0.950 . S
C1487 C1483 1.393 . S
C1487 C1486 1.391 . S
H1488 C1496 0.950 . S
H1489 C1501 0.950 . S
H1490 C1498 0.950 . S
H1491 C1500 0.950 . S
H1492 C1502 0.950 . S
H1493 C1504 0.950 . S
H1494 C1506 0.950 . S
H1495 C1507 0.950 . S
C1496 H1488 0.950 . S
C1496 C1497 1.386 . S
C1496 C1498 1.391 . S
C1497 C1496 1.386 . S
C1497 C1501 1.393 . S
C1498 H1490 0.950 . S
C1498 C1496 1.391 . S
C1498 C1499 1.400 . S
C1499 C1498 1.400 . S
C1499 C1500 1.398 1_655 S
C1499 C1505 1.491 1_655 S
C1500 H1491 0.950 . S
C1500 C1499 1.398 1_455 S
C1500 C1501 1.391 1_455 S
C1501 H1489 0.950 . S
C1501 C1497 1.393 . S
C1501 C1500 1.391 1_655 S
C1502 H1492 0.950 . S
C1502 C1503 1.386 . S
C1502 C1504 1.391 . S
C1503 C1502 1.386 . S
C1503 C1507 1.393 . S
C1504 H1493 0.950 . S
C1504 C1502 1.391 . S
C1504 C1505 1.400 . S
C1505 C1499 1.491 1_455 S
C1505 C1504 1.400 . S
C1505 C1506 1.398 1_455 S
C1506 H1494 0.950 . S
C1506 C1505 1.398 1_655 S
C1506 C1507 1.391 1_655 S
C1507 H1495 0.950 . S
C1507 C1503 1.393 . S
C1507 C1506 1.391 1_455 S
H1508 C1516 0.950 . S
H1509 C1521 0.950 . S
H1510 C1518 1.003 . S
H1511 C1520 0.950 . S
H1512 C1522 0.950 . S
H1513 C1524 0.950 . S
H1514 C1526 0.950 . S
H1515 C1527 0.950 . S
C1516 H1508 0.950 . S
C1516 C1517 1.386 . S
C1516 C1518 1.391 . S
C1517 C1516 1.386 . S
C1517 C1521 1.393 . S
C1518 H1510 1.003 . S
C1518 C1516 1.391 . S
C1518 C1519 1.400 . S
C1519 C1518 1.400 . S
C1519 C1520 1.398 . S
C1519 C1525 1.491 1_455 S
C1520 H1511 0.950 . S
C1520 C1519 1.398 . S
C1520 C1521 1.391 . S
C1521 H1509 0.950 . S
C1521 C1517 1.393 . S
C1521 C1520 1.391 . S
C1522 H1512 0.950 . S
C1522 C1523 1.386 . S
C1522 C1524 1.391 . S
C1523 C1522 1.386 . S
C1523 C1527 1.393 . S
C1524 H1513 0.950 . S
C1524 C1522 1.391 . S
C1524 C1525 1.400 . S
C1525 C1519 1.491 1_655 S
C1525 C1524 1.400 . S
C1525 C1526 1.398 . S
C1526 H1514 0.950 . S
C1526 C1525 1.398 . S
C1526 C1527 1.391 . S
C1527 H1515 0.950 . S
C1527 C1523 1.393 . S
C1527 C1526 1.391 . S
H1528 C1536 0.950 . S
H1529 C1541 0.950 . S
H1530 C1538 0.950 . S
H1531 C1540 0.950 . S
H1532 C1542 0.950 . S
H1533 C1544 0.950 . S
H1534 C1546 0.950 . S
H1535 C1547 0.950 . S
C1536 H1528 0.950 . S
C1536 C1537 1.386 . S
C1536 C1538 1.391 . S
C1537 C1536 1.386 . S
C1537 C1541 1.393 . S
C1538 H1530 0.950 . S
C1538 C1536 1.391 . S
C1538 C1539 1.400 . S
C1539 C1538 1.400 . S
C1539 C1540 1.398 . S
C1539 C1545 1.491 . S
C1540 H1531 0.950 . S
C1540 C1539 1.398 . S
C1540 C1541 1.391 . S
C1541 H1529 0.950 . S
C1541 C1537 1.393 . S
C1541 C1540 1.391 . S
C1542 H1532 0.950 . S
C1542 C1543 1.386 . S
C1542 C1544 1.391 . S
C1543 C1542 1.386 . S
C1543 C1547 1.393 . S
C1544 H1533 0.950 . S
C1544 C1542 1.391 . S
C1544 C1545 1.400 . S
C1545 C1539 1.491 . S
C1545 C1544 1.400 . S
C1545 C1546 1.398 . S
C1546 H1534 0.950 . S
C1546 C1545 1.398 . S
C1546 C1547 1.391 . S
C1547 H1535 0.950 . S
C1547 C1543 1.393 . S
C1547 C1546 1.391 . S
H1548 C1556 0.950 . S
H1549 C1561 0.950 . S
H1550 C1558 0.950 . S
H1551 C1560 0.950 . S
H1552 C1562 0.950 . S
H1553 C1564 0.950 . S
H1554 C1566 0.950 . S
H1555 C1567 0.950 . S
C1556 H1548 0.950 . S
C1556 C1557 1.386 . S
C1556 C1558 1.391 . S
C1557 C1556 1.386 . S
C1557 C1561 1.393 . S
C1558 H1550 0.950 . S
C1558 C1556 1.391 . S
C1558 C1559 1.400 . S
C1559 C1558 1.400 . S
C1559 C1560 1.398 . S
C1559 C1565 1.491 . S
C1560 H1551 0.950 . S
C1560 C1559 1.398 . S
C1560 C1561 1.391 . S
C1561 H1549 0.950 . S
C1561 C1557 1.393 . S
C1561 C1560 1.391 . S
C1562 H1552 0.950 . S
C1562 C1563 1.386 . S
C1562 C1564 1.391 . S
C1563 C1562 1.386 . S
C1563 C1567 1.393 . S
C1564 H1553 0.950 . S
C1564 C1562 1.391 . S
C1564 C1565 1.400 . S
C1565 C1559 1.491 . S
C1565 C1564 1.400 . S
C1565 C1566 1.398 . S
C1566 H1554 0.950 . S
C1566 C1565 1.398 . S
C1566 C1567 1.391 . S
C1567 H1555 0.950 . S
C1567 C1563 1.393 . S
C1567 C1566 1.391 . S
H1568 C1576 0.950 . S
H1569 C1581 0.950 . S
H1570 C1578 0.950 . S
H1571 C1580 0.950 1_655 S
H1572 C1582 0.950 . S
H1573 C1584 0.950 . S
H1574 C1586 0.950 1_455 S
H1575 C1587 0.950 . S
C1576 H1568 0.950 . S
C1576 C1577 1.386 . S
C1576 C1578 1.391 . S
C1577 C1576 1.386 . S
C1577 C1581 1.393 . S
C1578 H1570 0.950 . S
C1578 C1576 1.391 . S
C1578 C1579 1.400 . S
C1579 C1578 1.400 . S
C1579 C1580 1.398 . S
C1579 C1585 1.491 1_455 S
C1580 H1571 0.950 1_455 S
C1580 C1579 1.398 . S
C1580 C1581 1.391 . S
C1581 H1569 0.950 . S
C1581 C1577 1.393 . S
C1581 C1580 1.391 . S
C1582 H1572 0.950 . S
C1582 C1583 1.386 . S
C1582 C1584 1.391 . S
C1583 C1582 1.386 . S
C1583 C1587 1.393 . S
C1584 H1573 0.950 . S
C1584 C1582 1.391 . S
C1584 C1585 1.400 . S
C1585 C1579 1.491 1_655 S
C1585 C1584 1.400 . S
C1585 C1586 1.398 . S
C1586 H1574 0.950 1_655 S
C1586 C1585 1.398 . S
C1586 C1587 1.391 . S
C1587 H1575 0.950 . S
C1587 C1583 1.393 . S
C1587 C1586 1.391 . S
H1588 C1596 0.950 . S
H1589 C1601 0.950 . S
H1590 C1598 0.950 . S
H1591 C1600 0.950 . S
H1592 C1602 0.950 . S
H1593 C1604 0.950 . S
H1594 C1606 0.950 . S
H1595 C1607 0.950 . S
C1596 H1588 0.950 . S
C1596 C1597 1.386 . S
C1596 C1598 1.391 . S
C1597 C1596 1.386 . S
C1597 C1601 1.393 . S
C1598 H1590 0.950 . S
C1598 C1596 1.391 . S
C1598 C1599 1.400 . S
C1599 C1598 1.400 . S
C1599 C1600 1.398 . S
C1599 C1605 1.491 . S
C1600 H1591 0.950 . S
C1600 C1599 1.398 . S
C1600 C1601 1.391 . S
C1601 H1589 0.950 . S
C1601 C1597 1.393 . S
C1601 C1600 1.391 . S
C1602 H1592 0.950 . S
C1602 C1603 1.386 . S
C1602 C1604 1.391 . S
C1603 C1602 1.386 . S
C1603 C1607 1.393 . S
C1604 H1593 0.950 . S
C1604 C1602 1.391 . S
C1604 C1605 1.400 . S
C1605 C1599 1.491 . S
C1605 C1604 1.400 . S
C1605 C1606 1.398 . S
C1606 H1594 0.950 . S
C1606 C1605 1.398 . S
C1606 C1607 1.391 . S
C1607 H1595 0.950 . S
C1607 C1603 1.393 . S
C1607 C1606 1.391 . S
H1608 C1616 0.950 . S
H1609 C1621 0.950 . S
H1610 C1618 0.950 . S
H1611 C1620 0.950 . S
H1612 C1622 0.950 . S
H1613 C1624 0.950 . S
H1614 C1626 0.950 . S
H1615 C1627 0.950 . S
C1616 H1608 0.950 . S
C1616 C1617 1.386 . S
C1616 C1618 1.391 . S
C1617 C1616 1.386 . S
C1617 C1621 1.393 . S
C1618 H1610 0.950 . S
C1618 C1616 1.391 . S
C1618 C1619 1.400 . S
C1619 C1618 1.400 . S
C1619 C1620 1.398 . S
C1619 C1625 1.491 . S
C1620 H1611 0.950 . S
C1620 C1619 1.398 . S
C1620 C1621 1.391 . S
C1621 H1609 0.950 . S
C1621 C1617 1.393 . S
C1621 C1620 1.391 . S
C1622 H1612 0.950 . S
C1622 C1623 1.386 . S
C1622 C1624 1.391 . S
C1623 C1622 1.386 . S
C1623 C1627 1.393 . S
C1624 H1613 0.950 . S
C1624 C1622 1.391 . S
C1624 C1625 1.400 . S
C1625 C1619 1.491 . S
C1625 C1624 1.400 . S
C1625 C1626 1.398 . S
C1626 H1614 0.950 . S
C1626 C1625 1.398 . S
C1626 C1627 1.391 . S
C1627 H1615 0.950 . S
C1627 C1623 1.393 . S
C1627 C1626 1.391 . S
H1628 C1636 0.950 . S
H1629 C1641 0.950 . S
H1630 C1638 0.950 . S
H1631 C1640 1.001 . S
H1632 C1642 0.950 . S
H1633 C1644 0.950 . S
H1634 C1646 1.006 . S
H1635 C1647 0.950 . S
C1636 H1628 0.950 . S
C1636 C1637 1.386 . S
C1636 C1638 1.391 . S
C1637 C1636 1.386 . S
C1637 C1641 1.393 . S
C1638 H1630 0.950 . S
C1638 C1636 1.391 . S
C1638 C1639 1.400 . S
C1639 C1638 1.400 . S
C1639 C1640 1.398 . S
C1639 C1645 1.491 1_655 S
C1640 H1631 1.001 . S
C1640 C1639 1.398 . S
C1640 C1641 1.391 . S
C1641 H1629 0.950 . S
C1641 C1637 1.393 . S
C1641 C1640 1.391 . S
C1642 H1632 0.950 . S
C1642 C1643 1.386 . S
C1642 C1644 1.391 . S
C1643 C1642 1.386 . S
C1643 C1647 1.393 . S
C1644 H1633 0.950 . S
C1644 C1642 1.391 . S
C1644 C1645 1.400 . S
C1645 C1639 1.491 1_455 S
C1645 C1644 1.400 . S
C1645 C1646 1.398 . S
C1646 H1634 1.006 . S
C1646 C1645 1.398 . S
C1646 C1647 1.391 . S
C1647 H1635 0.950 . S
C1647 C1643 1.393 . S
C1647 C1646 1.391 . S
H1648 C1656 0.950 . S
H1649 C1661 0.983 . S
H1650 C1658 0.950 . S
H1651 C1660 0.950 . S
H1652 C1662 0.950 . S
H1653 C1664 0.950 . S
H1654 C1666 0.950 . S
H1655 C1667 0.987 . S
C1656 H1648 0.950 . S
C1656 C1657 1.386 . S
C1656 C1658 1.391 . S
C1657 C1656 1.386 . S
C1657 C1661 1.393 . S
C1658 H1650 0.950 . S
C1658 C1656 1.391 . S
C1658 C1659 1.400 . S
C1659 C1658 1.400 . S
C1659 C1660 1.398 1_565 S
C1659 C1665 1.491 1_565 S
C1660 H1651 0.950 . S
C1660 C1659 1.398 1_545 S
C1660 C1661 1.391 1_545 S
C1661 H1649 0.983 . S
C1661 C1657 1.393 . S
C1661 C1660 1.391 1_565 S
C1662 H1652 0.950 . S
C1662 C1663 1.386 . S
C1662 C1664 1.391 . S
C1663 C1662 1.386 . S
C1663 C1667 1.393 . S
C1664 H1653 0.950 . S
C1664 C1662 1.391 . S
C1664 C1665 1.400 . S
C1665 C1659 1.491 1_545 S
C1665 C1664 1.400 . S
C1665 C1666 1.398 1_545 S
C1666 H1654 0.950 . S
C1666 C1665 1.398 1_565 S
C1666 C1667 1.391 1_565 S
C1667 H1655 0.987 . S
C1667 C1663 1.393 . S
C1667 C1666 1.391 1_545 S
H1668 C1676 0.950 . S
H1669 C1681 0.950 . S
H1670 C1678 0.950 . S
H1671 C1680 0.950 . S
H1672 C1682 0.950 . S
H1673 C1684 0.950 . S
H1674 C1686 0.950 . S
H1675 C1687 0.950 . S
C1676 H1668 0.950 . S
C1676 C1677 1.386 . S
C1676 C1678 1.391 . S
C1677 C1676 1.386 . S
C1677 C1681 1.393 . S
C1678 H1670 0.950 . S
C1678 C1676 1.391 . S
C1678 C1679 1.400 . S
C1679 C1678 1.400 . S
C1679 C1680 1.398 . S
C1679 C1685 1.491 . S
C1680 H1671 0.950 . S
C1680 C1679 1.398 . S
C1680 C1681 1.391 . S
C1681 H1669 0.950 . S
C1681 C1677 1.393 . S
C1681 C1680 1.391 . S
C1682 H1672 0.950 . S
C1682 C1683 1.386 . S
C1682 C1684 1.391 . S
C1683 C1682 1.386 . S
C1683 C1687 1.393 . S
C1684 H1673 0.950 . S
C1684 C1682 1.391 . S
C1684 C1685 1.400 . S
C1685 C1679 1.491 . S
C1685 C1684 1.400 . S
C1685 C1686 1.398 . S
C1686 H1674 0.950 . S
C1686 C1685 1.398 . S
C1686 C1687 1.391 . S
C1687 H1675 0.950 . S
C1687 C1683 1.393 . S
C1687 C1686 1.391 . S
H1688 C1696 0.950 . S
H1689 C1701 0.950 . S
H1690 C1698 0.950 1_565 S
H1691 C1700 0.950 . S
H1692 C1702 0.950 . S
H1693 C1704 0.950 1_545 S
H1694 C1706 0.950 . S
H1695 C1707 0.950 . S
C1696 H1688 0.950 . S
C1696 C1697 1.386 . S
C1696 C1698 1.391 . S
C1697 C1696 1.386 . S
C1697 C1701 1.393 . S
C1698 H1690 0.950 1_545 S
C1698 C1696 1.391 . S
C1698 C1699 1.400 . S
C1699 C1698 1.400 . S
C1699 C1700 1.398 . S
C1699 C1705 1.491 1_545 S
C1700 H1691 0.950 . S
C1700 C1699 1.398 . S
C1700 C1701 1.391 . S
C1701 H1689 0.950 . S
C1701 C1697 1.393 . S
C1701 C1700 1.391 . S
C1702 H1692 0.950 . S
C1702 C1703 1.386 . S
C1702 C1704 1.391 . S
C1703 C1702 1.386 . S
C1703 C1707 1.393 . S
C1704 H1693 0.950 1_565 S
C1704 C1702 1.391 . S
C1704 C1705 1.400 . S
C1705 C1699 1.491 1_565 S
C1705 C1704 1.400 . S
C1705 C1706 1.398 . S
C1706 H1694 0.950 . S
C1706 C1705 1.398 . S
C1706 C1707 1.391 . S
C1707 H1695 0.950 . S
C1707 C1703 1.393 . S
C1707 C1706 1.391 . S
H1708 C1716 0.950 . S
H1709 C1721 0.950 . S
H1710 C1718 0.950 . S
H1711 C1720 0.950 . S
H1712 C1722 0.950 . S
H1713 C1724 0.950 . S
H1714 C1726 0.950 . S
H1715 C1727 0.950 . S
C1716 H1708 0.950 . S
C1716 C1717 1.386 . S
C1716 C1718 1.391 . S
C1717 C1716 1.386 . S
C1717 C1721 1.393 . S
C1718 H1710 0.950 . S
C1718 C1716 1.391 . S
C1718 C1719 1.400 . S
C1719 C1718 1.400 . S
C1719 C1720 1.398 . S
C1719 C1725 1.491 1_554 S
C1720 H1711 0.950 . S
C1720 C1719 1.398 . S
C1720 C1721 1.391 . S
C1721 H1709 0.950 . S
C1721 C1717 1.393 . S
C1721 C1720 1.391 . S
C1722 H1712 0.950 . S
C1722 C1723 1.386 . S
C1722 C1724 1.391 . S
C1723 C1722 1.386 . S
C1723 C1727 1.393 . S
C1724 H1713 0.950 . S
C1724 C1722 1.391 . S
C1724 C1725 1.400 . S
C1725 C1719 1.491 1_556 S
C1725 C1724 1.400 . S
C1725 C1726 1.398 . S
C1726 H1714 0.950 . S
C1726 C1725 1.398 . S
C1726 C1727 1.391 . S
C1727 H1715 0.950 . S
C1727 C1723 1.393 . S
C1727 C1726 1.391 . S
H1728 C1736 0.950 . S
H1729 C1741 0.950 . S
H1730 C1738 0.950 . S
H1731 C1740 0.950 . S
H1732 C1742 0.950 . S
H1733 C1744 0.950 . S
H1734 C1746 0.950 . S
H1735 C1747 0.950 . S
C1736 H1728 0.950 . S
C1736 C1737 1.386 . S
C1736 C1738 1.391 . S
C1737 C1736 1.386 . S
C1737 C1741 1.393 . S
C1738 H1730 0.950 . S
C1738 C1736 1.391 . S
C1738 C1739 1.400 . S
C1739 C1738 1.400 . S
C1739 C1740 1.398 1_554 S
C1739 C1745 1.491 1_554 S
C1740 H1731 0.950 . S
C1740 C1739 1.398 1_556 S
C1740 C1741 1.391 1_556 S
C1741 H1729 0.950 . S
C1741 C1737 1.393 . S
C1741 C1740 1.391 1_554 S
C1742 H1732 0.950 . S
C1742 C1743 1.386 . S
C1742 C1744 1.391 . S
C1743 C1742 1.386 . S
C1743 C1747 1.393 . S
C1744 H1733 0.950 . S
C1744 C1742 1.391 . S
C1744 C1745 1.400 . S
C1745 C1739 1.491 1_556 S
C1745 C1744 1.400 . S
C1745 C1746 1.398 1_556 S
C1746 H1734 0.950 . S
C1746 C1745 1.398 1_554 S
C1746 C1747 1.391 1_554 S
C1747 H1735 0.950 . S
C1747 C1743 1.393 . S
C1747 C1746 1.391 1_556 S
H1748 C1756 0.950 . S
H1749 C1761 0.950 . S
H1750 C1758 0.950 1_554 S
H1751 C1760 0.950 . S
H1752 C1762 0.950 . S
H1753 C1764 0.950 1_556 S
H1754 C1766 0.950 . S
H1755 C1767 0.950 . S
C1756 H1748 0.950 . S
C1756 C1757 1.386 . S
C1756 C1758 1.391 . S
C1757 C1756 1.386 . S
C1757 C1761 1.393 . S
C1758 H1750 0.950 1_556 S
C1758 C1756 1.391 . S
C1758 C1759 1.400 . S
C1759 C1758 1.400 . S
C1759 C1760 1.398 . S
C1759 C1765 1.491 1_556 S
C1760 H1751 0.950 . S
C1760 C1759 1.398 . S
C1760 C1761 1.391 . S
C1761 H1749 0.950 . S
C1761 C1757 1.393 . S
C1761 C1760 1.391 . S
C1762 H1752 0.950 . S
C1762 C1763 1.386 . S
C1762 C1764 1.391 . S
C1763 C1762 1.386 . S
C1763 C1767 1.393 . S
C1764 H1753 0.950 1_554 S
C1764 C1762 1.391 . S
C1764 C1765 1.400 . S
C1765 C1759 1.491 1_554 S
C1765 C1764 1.400 . S
C1765 C1766 1.398 . S
C1766 H1754 0.950 . S
C1766 C1765 1.398 . S
C1766 C1767 1.391 . S
C1767 H1755 0.950 . S
C1767 C1763 1.393 . S
C1767 C1766 1.391 . S
H1768 C1776 0.950 . S
H1769 C1781 0.950 . S
H1770 C1778 0.950 . S
H1771 C1780 0.950 . S
H1772 C1782 0.950 . S
H1773 C1784 0.950 . S
H1774 C1786 0.950 . S
H1775 C1787 0.950 . S
C1776 H1768 0.950 . S
C1776 C1777 1.386 . S
C1776 C1778 1.391 . S
C1777 C1776 1.386 . S
C1777 C1781 1.393 . S
C1778 H1770 0.950 . S
C1778 C1776 1.391 . S
C1778 C1779 1.400 . S
C1779 C1778 1.400 . S
C1779 C1780 1.398 . S
C1779 C1785 1.491 . S
C1780 H1771 0.950 . S
C1780 C1779 1.398 . S
C1780 C1781 1.391 . S
C1781 H1769 0.950 . S
C1781 C1777 1.393 . S
C1781 C1780 1.391 . S
C1782 H1772 0.950 . S
C1782 C1783 1.386 . S
C1782 C1784 1.391 . S
C1783 C1782 1.386 . S
C1783 C1787 1.393 . S
C1784 H1773 0.950 . S
C1784 C1782 1.391 . S
C1784 C1785 1.400 . S
C1785 C1779 1.491 . S
C1785 C1784 1.400 . S
C1785 C1786 1.398 . S
C1786 H1774 0.950 . S
C1786 C1785 1.398 . S
C1786 C1787 1.391 . S
C1787 H1775 0.950 . S
C1787 C1783 1.393 . S
C1787 C1786 1.391 . S
H1788 C1796 0.950 . S
H1789 C1801 0.950 . S
H1790 C1798 0.950 . S
H1791 C1800 0.950 . S
H1792 C1802 0.950 . S
H1793 C1804 0.950 . S
H1794 C1806 0.950 . S
H1795 C1807 0.950 . S
C1796 H1788 0.950 . S
C1796 C1797 1.386 . S
C1796 C1798 1.391 . S
C1797 C1796 1.386 . S
C1797 C1801 1.393 . S
C1798 H1790 0.950 . S
C1798 C1796 1.391 . S
C1798 C1799 1.400 . S
C1799 C1798 1.400 . S
C1799 C1800 1.398 . S
C1799 C1805 1.491 . S
C1800 H1791 0.950 . S
C1800 C1799 1.398 . S
C1800 C1801 1.391 . S
C1801 H1789 0.950 . S
C1801 C1797 1.393 . S
C1801 C1800 1.391 . S
C1802 H1792 0.950 . S
C1802 C1803 1.386 . S
C1802 C1804 1.391 . S
C1803 C1802 1.386 . S
C1803 C1807 1.393 . S
C1804 H1793 0.950 . S
C1804 C1802 1.391 . S
C1804 C1805 1.400 . S
C1805 C1799 1.491 . S
C1805 C1804 1.400 . S
C1805 C1806 1.398 . S
C1806 H1794 0.950 . S
C1806 C1805 1.398 . S
C1806 C1807 1.391 . S
C1807 H1795 0.950 . S
C1807 C1803 1.393 . S
C1807 C1806 1.391 . S
H1808 C1816 0.950 . S
H1809 C1821 0.950 . S
H1810 C1818 0.950 . S
H1811 C1820 0.985 . S
H1812 C1822 0.950 . S
H1813 C1824 0.950 . S
H1814 C1826 0.990 . S
H1815 C1827 0.950 . S
C1816 H1808 0.950 . S
C1816 C1817 1.386 . S
C1816 C1818 1.391 . S
C1817 C1816 1.386 . S
C1817 C1821 1.393 . S
C1818 H1810 0.950 . S
C1818 C1816 1.391 . S
C1818 C1819 1.400 . S
C1819 C1818 1.400 . S
C1819 C1820 1.398 . S
C1819 C1825 1.491 1_565 S
C1820 H1811 0.985 . S
C1820 C1819 1.398 . S
C1820 C1821 1.391 . S
C1821 H1809 0.950 . S
C1821 C1817 1.393 . S
C1821 C1820 1.391 . S
C1822 H1812 0.950 . S
C1822 C1823 1.386 . S
C1822 C1824 1.391 . S
C1823 C1822 1.386 . S
C1823 C1827 1.393 . S
C1824 H1813 0.950 . S
C1824 C1822 1.391 . S
C1824 C1825 1.400 . S
C1825 C1819 1.491 1_545 S
C1825 C1824 1.400 . S
C1825 C1826 1.398 . S
C1826 H1814 0.990 . S
C1826 C1825 1.398 . S
C1826 C1827 1.391 . S
C1827 H1815 0.950 . S
C1827 C1823 1.393 . S
C1827 C1826 1.391 . S
H1828 C1836 0.950 . S
H1829 C1841 0.950 . S
H1830 C1838 0.950 . S
H1831 C1840 0.950 . S
H1832 C1842 0.950 . S
H1833 C1844 0.950 . S
H1834 C1846 0.950 . S
H1835 C1847 0.950 . S
C1836 H1828 0.950 . S
C1836 C1837 1.386 . S
C1836 C1838 1.391 . S
C1837 C1836 1.386 . S
C1837 C1841 1.393 . S
C1838 H1830 0.950 . S
C1838 C1836 1.391 . S
C1838 C1839 1.400 . S
C1839 C1838 1.400 . S
C1839 C1840 1.398 . S
C1839 C1845 1.491 . S
C1840 H1831 0.950 . S
C1840 C1839 1.398 . S
C1840 C1841 1.391 . S
C1841 H1829 0.950 . S
C1841 C1837 1.393 . S
C1841 C1840 1.391 . S
C1842 H1832 0.950 . S
C1842 C1843 1.386 . S
C1842 C1844 1.391 . S
C1843 C1842 1.386 . S
C1843 C1847 1.393 . S
C1844 H1833 0.950 . S
C1844 C1842 1.391 . S
C1844 C1845 1.400 . S
C1845 C1839 1.491 . S
C1845 C1844 1.400 . S
C1845 C1846 1.398 . S
C1846 H1834 0.950 . S
C1846 C1845 1.398 . S
C1846 C1847 1.391 . S
C1847 H1835 0.950 . S
C1847 C1843 1.393 . S
C1847 C1846 1.391 . S
H1848 C1856 0.950 . S
H1849 C1861 0.950 . S
H1850 C1858 0.950 . S
H1851 C1860 0.950 . S
H1852 C1862 0.950 . S
H1853 C1864 0.950 . S
H1854 C1866 0.950 . S
H1855 C1867 0.950 . S
C1856 H1848 0.950 . S
C1856 C1857 1.386 . S
C1856 C1858 1.391 . S
C1857 C1856 1.386 . S
C1857 C1861 1.393 . S
C1858 H1850 0.950 . S
C1858 C1856 1.391 . S
C1858 C1859 1.400 . S
C1859 C1858 1.400 . S
C1859 C1860 1.398 . S
C1859 C1865 1.491 . S
C1860 H1851 0.950 . S
C1860 C1859 1.398 . S
C1860 C1861 1.391 . S
C1861 H1849 0.950 . S
C1861 C1857 1.393 . S
C1861 C1860 1.391 . S
C1862 H1852 0.950 . S
C1862 C1863 1.386 . S
C1862 C1864 1.391 . S
C1863 C1862 1.386 . S
C1863 C1867 1.393 . S
C1864 H1853 0.950 . S
C1864 C1862 1.391 . S
C1864 C1865 1.400 . S
C1865 C1859 1.491 . S
C1865 C1864 1.400 . S
C1865 C1866 1.398 . S
C1866 H1854 0.950 . S
C1866 C1865 1.398 . S
C1866 C1867 1.391 . S
C1867 H1855 0.950 . S
C1867 C1863 1.393 . S
C1867 C1866 1.391 . S
H1868 C1876 0.950 . S
H1869 C1881 0.950 . S
H1870 C1878 0.950 . S
H1871 C1880 0.950 . S
H1872 C1882 0.950 . S
H1873 C1884 0.950 . S
H1874 C1886 0.950 . S
H1875 C1887 0.950 . S
C1876 H1868 0.950 . S
C1876 C1877 1.386 . S
C1876 C1878 1.391 . S
C1877 C1876 1.386 . S
C1877 C1881 1.393 . S
C1878 H1870 0.950 . S
C1878 C1876 1.391 . S
C1878 C1879 1.400 . S
C1879 C1878 1.400 . S
C1879 C1880 1.398 . S
C1879 C1885 1.491 . S
C1880 H1871 0.950 . S
C1880 C1879 1.398 . S
C1880 C1881 1.391 . S
C1881 H1869 0.950 . S
C1881 C1877 1.393 . S
C1881 C1880 1.391 . S
C1882 H1872 0.950 . S
C1882 C1883 1.386 . S
C1882 C1884 1.391 . S
C1883 C1882 1.386 . S
C1883 C1887 1.393 . S
C1884 H1873 0.950 . S
C1884 C1882 1.391 . S
C1884 C1885 1.400 . S
C1885 C1879 1.491 . S
C1885 C1884 1.400 . S
C1885 C1886 1.398 . S
C1886 H1874 0.950 . S
C1886 C1885 1.398 . S
C1886 C1887 1.391 . S
C1887 H1875 0.950 . S
C1887 C1883 1.393 . S
C1887 C1886 1.391 . S
H1888 C1896 0.950 . S
H1889 C1901 0.950 . S
H1890 C1898 0.950 1_554 S
H1891 C1900 0.950 . S
H1892 C1902 0.950 . S
H1893 C1904 0.950 1_556 S
H1894 C1906 0.950 . S
H1895 C1907 0.950 . S
C1896 H1888 0.950 . S
C1896 C1897 1.386 . S
C1896 C1898 1.391 . S
C1897 C1896 1.386 . S
C1897 C1901 1.393 . S
C1898 H1890 0.950 1_556 S
C1898 C1896 1.391 . S
C1898 C1899 1.400 . S
C1899 C1898 1.400 . S
C1899 C1900 1.398 . S
C1899 C1905 1.491 1_556 S
C1900 H1891 0.950 . S
C1900 C1899 1.398 . S
C1900 C1901 1.391 . S
C1901 H1889 0.950 . S
C1901 C1897 1.393 . S
C1901 C1900 1.391 . S
C1902 H1892 0.950 . S
C1902 C1903 1.386 . S
C1902 C1904 1.391 . S
C1903 C1902 1.386 . S
C1903 C1907 1.393 . S
C1904 H1893 0.950 1_554 S
C1904 C1902 1.391 . S
C1904 C1905 1.400 . S
C1905 C1899 1.491 1_554 S
C1905 C1904 1.400 . S
C1905 C1906 1.398 . S
C1906 H1894 0.950 . S
C1906 C1905 1.398 . S
C1906 C1907 1.391 . S
C1907 H1895 0.950 . S
C1907 C1903 1.393 . S
C1907 C1906 1.391 . S
H1908 C1916 0.950 . S
H1909 C1921 0.950 . S
H1910 C1918 0.950 . S
H1911 C1920 0.950 . S
H1912 C1922 0.950 . S
H1913 C1924 0.950 . S
H1914 C1926 0.950 . S
H1915 C1927 0.950 . S
C1916 H1908 0.950 . S
C1916 C1917 1.386 . S
C1916 C1918 1.391 . S
C1917 C1916 1.386 . S
C1917 C1921 1.393 . S
C1918 H1910 0.950 . S
C1918 C1916 1.391 . S
C1918 C1919 1.400 . S
C1919 C1918 1.400 . S
C1919 C1920 1.398 . S
C1919 C1925 1.491 . S
C1920 H1911 0.950 . S
C1920 C1919 1.398 . S
C1920 C1921 1.391 . S
C1921 H1909 0.950 . S
C1921 C1917 1.393 . S
C1921 C1920 1.391 . S
C1922 H1912 0.950 . S
C1922 C1923 1.386 . S
C1922 C1924 1.391 . S
C1923 C1922 1.386 . S
C1923 C1927 1.393 . S
C1924 H1913 0.950 . S
C1924 C1922 1.391 . S
C1924 C1925 1.400 . S
C1925 C1919 1.491 . S
C1925 C1924 1.400 . S
C1925 C1926 1.398 . S
C1926 H1914 0.950 . S
C1926 C1925 1.398 . S
C1926 C1927 1.391 . S
C1927 H1915 0.950 . S
C1927 C1923 1.393 . S
C1927 C1926 1.391 . S
H1928 C1936 0.950 . S
H1929 C1941 0.950 . S
H1930 C1938 0.950 . S
H1931 C1940 0.950 . S
H1932 C1942 0.950 . S
H1933 C1944 0.950 . S
H1934 C1946 0.950 . S
H1935 C1947 0.950 . S
C1936 H1928 0.950 . S
C1936 C1937 1.386 . S
C1936 C1938 1.391 . S
C1937 C1936 1.386 . S
C1937 C1941 1.393 . S
C1938 H1930 0.950 . S
C1938 C1936 1.391 . S
C1938 C1939 1.400 . S
C1939 C1938 1.400 . S
C1939 C1940 1.398 . S
C1939 C1945 1.491 . S
C1940 H1931 0.950 . S
C1940 C1939 1.398 . S
C1940 C1941 1.391 . S
C1941 H1929 0.950 . S
C1941 C1937 1.393 . S
C1941 C1940 1.391 . S
C1942 H1932 0.950 . S
C1942 C1943 1.386 . S
C1942 C1944 1.391 . S
C1943 C1942 1.386 . S
C1943 C1947 1.393 . S
C1944 H1933 0.950 . S
C1944 C1942 1.391 . S
C1944 C1945 1.400 . S
C1945 C1939 1.491 . S
C1945 C1944 1.400 . S
C1945 C1946 1.398 . S
C1946 H1934 0.950 . S
C1946 C1945 1.398 . S
C1946 C1947 1.391 . S
C1947 H1935 0.950 . S
C1947 C1943 1.393 . S
C1947 C1946 1.391 . S
H1948 C1956 0.950 . S
H1949 C1961 0.950 . S
H1950 C1958 0.950 . S
H1951 C1960 0.950 1_545 S
H1952 C1962 0.950 . S
H1953 C1964 0.950 . S
H1954 C1966 0.950 1_565 S
H1955 C1967 0.950 . S
C1956 H1948 0.950 . S
C1956 C1957 1.386 . S
C1956 C1958 1.391 . S
C1957 C1956 1.386 . S
C1957 C1961 1.393 . S
C1958 H1950 0.950 . S
C1958 C1956 1.391 . S
C1958 C1959 1.400 . S
C1959 C1958 1.400 . S
C1959 C1960 1.398 . S
C1959 C1965 1.491 1_565 S
C1960 H1951 0.950 1_565 S
C1960 C1959 1.398 . S
C1960 C1961 1.391 . S
C1961 H1949 0.950 . S
C1961 C1957 1.393 . S
C1961 C1960 1.391 . S
C1962 H1952 0.950 . S
C1962 C1963 1.386 . S
C1962 C1964 1.391 . S
C1963 C1962 1.386 . S
C1963 C1967 1.393 . S
C1964 H1953 0.950 . S
C1964 C1962 1.391 . S
C1964 C1965 1.400 . S
C1965 C1959 1.491 1_545 S
C1965 C1964 1.400 . S
C1965 C1966 1.398 . S
C1966 H1954 0.950 1_545 S
C1966 C1965 1.398 . S
C1966 C1967 1.391 . S
C1967 H1955 0.950 . S
C1967 C1963 1.393 . S
C1967 C1966 1.391 . S
C537 C227 1.455 . S
C543 C7 1.440 . S
C557 C458 1.443 . S
C563 C18 1.446 . S
C577 C469 1.448 . S
C583 C29 1.442 . S
C597 C480 1.459 . S
C603 C40 1.448 . S
C617 C524 1.457 . S
C623 C51 1.453 . S
C637 C238 1.450 . S
C643 C62 1.458 . S
C657 C513 1.453 . S
C663 C73 1.439 . S
C677 C84 1.459 . S
C683 C183 1.442 . S
C697 C95 1.451 . S
C703 C172 1.440 . S
C717 C139 1.446 . S
C723 C106 1.460 . S
C737 C150 1.452 . S
C743 C117 1.458 . S
C757 C161 1.444 . S
C763 C128 1.460 . S
C777 C194 1.450 . S
C783 C282 1.440 . S
C797 C293 1.457 . S
C803 C205 1.440 . S
C817 C216 1.450 . S
C823 C304 1.459 . S
C837 C337 1.451 . S
C843 C249 1.440 . S
C857 C315 1.440 . S
C863 C260 1.452 . S
C877 C271 1.452 . S
C883 C491 1.440 . S
C897 C502 1.451 . S
C903 C326 1.440 . S
C917 C447 1.439 . S
C923 C348 1.455 . S
C937 C359 1.443 . S
C943 C436 1.459 . S
C957 C403 1.442 . S
C963 C370 1.459 . S
C977 C414 1.460 . S
C983 C381 1.446 . S
C997 C425 1.442 . S
C1003 C392 1.448 . S
C1017 C107 1.537 . S
C1023 C8 1.541 . S
C1037 C19 1.540 . S
C1043 C118 1.543 . S
C1057 C30 1.540 . S
C1063 C129 1.537 . S
C1077 C41 1.538 . S
C1083 C96 1.540 . S
C1097 C173 1.537 . S
C1103 C52 1.543 . S
C1117 C63 1.538 . S
C1123 C140 1.538 . S
C1137 C151 1.539 . S
C1143 C74 1.537 . S
C1157 C85 1.537 . S
C1163 C162 1.539 . S
C1177 C206 1.541 . S
C1183 C184 1.537 . S
C1197 C514 1.544 . S
C1203 C195 1.538 . S
C1217 C217 1.537 . S
C1223 C525 1.543 . S
C1237 C503 1.538 . S
C1243 C228 1.543 . S
C1257 C492 1.542 . S
C1263 C239 1.537 . S
C1277 C459 1.538 . S
C1283 C250 1.543 . S
C1297 C261 1.537 . S
C1303 C481 1.539 . S
C1317 C272 1.543 . S
C1323 C371 1.537 . S
C1337 C283 1.537 . S
C1343 C382 1.539 . S
C1357 C393 1.539 . S
C1363 C294 1.543 . S
C1377 C360 1.538 . S
C1383 C305 1.538 . S
C1397 C437 1.543 . S
C1403 C316 1.537 . S
C1417 C327 1.540 . S
C1423 C404 1.537 . S
C1437 C338 1.538 . S
C1443 C415 1.539 . S
C1457 C349 1.543 . S
C1463 C426 1.538 . S
C1477 C470 1.540 . S
C1483 C448 1.537 . S
C1497 C291 1.281 . S
C1503 C5 1.320 . S
C1517 C16 1.289 . S
C1523 C302 1.317 . S
C1537 C27 1.300 . S
C1543 C269 1.310 . S
C1557 C280 1.274 . S
C1563 C38 1.319 . S
C1577 C49 1.298 . S
C1583 C335 1.311 . S
C1597 C60 1.306 . S
C1603 C346 1.277 . S
C1617 C313 1.313 . S
C1623 C71 1.274 . S
C1637 C324 1.303 . S
C1643 C82 1.278 . S
C1657 C137 1.275 . S
C1663 C93 1.319 . S
C1677 C148 1.318 . S
C1683 C104 1.287 . S
C1697 C159 1.303 . S
C1703 C115 1.278 . S
C1717 C170 1.282 . S
C1723 C126 1.297 . S
C1737 C181 1.282 . S
C1743 C478 1.320 . S
C1757 C192 1.300 . S
C1763 C500 1.280 . S
C1777 C203 1.286 . S
C1783 C247 1.319 . S
C1797 C445 1.302 . S
C1803 C214 1.279 . S
C1817 C522 1.320 . S
C1823 C225 1.283 . S
C1837 C236 1.279 . S
C1843 C456 1.321 . S
C1857 C258 1.289 . S
C1863 C489 1.290 . S
C1877 C401 1.274 . S
C1883 C357 1.313 . S
C1897 C368 1.278 . S
C1903 C412 1.321 . S
C1917 C423 1.279 . S
C1923 C379 1.301 . S
C1937 C434 1.304 . S
C1943 C390 1.277 . S
C1957 C467 1.311 . S
C1963 C511 1.274 . S
