# Generated by pormake.
# Topology lta, (4)-cn, num edge types: 1
# Building blocks:
#     Node 0, Type 0, BuildingBlock: ICAMEG_clean_sbu_1, # of connection points: 4
#     Node 1, Type 0, BuildingBlock: ICAMEG_clean_sbu_1, # of connection points: 4
#     Node 2, Type 0, BuildingBlock: ICAMEG_clean_sbu_1, # of connection points: 4
#     Node 3, Type 0, BuildingBlock: ICAMEG_clean_sbu_1, # of connection points: 4
#     Node 4, Type 0, BuildingBlock: ICAMEG_clean_sbu_1, # of connection points: 4
#     Node 5, Type 0, BuildingBlock: ICAMEG_clean_sbu_1, # of connection points: 4
#     Node 6, Type 0, BuildingBlock: ICAMEG_clean_sbu_1, # of connection points: 4
#     Node 7, Type 0, BuildingBlock: ICAMEG_clean_sbu_1, # of connection points: 4
#     Node 8, Type 0, BuildingBlock: ICAMEG_clean_sbu_1, # of connection points: 4
#     Node 9, Type 0, BuildingBlock: ICAMEG_clean_sbu_1, # of connection points: 4
#     Node 10, Type 0, BuildingBlock: ICAMEG_clean_sbu_1, # of connection points: 4
#     Node 11, Type 0, BuildingBlock: ICAMEG_clean_sbu_1, # of connection points: 4
#     Node 12, Type 0, BuildingBlock: ICAMEG_clean_sbu_1, # of connection points: 4
#     Node 13, Type 0, BuildingBlock: ICAMEG_clean_sbu_1, # of connection points: 4
#     Node 14, Type 0, BuildingBlock: ICAMEG_clean_sbu_1, # of connection points: 4
#     Node 15, Type 0, BuildingBlock: ICAMEG_clean_sbu_1, # of connection points: 4
#     Node 16, Type 0, BuildingBlock: ICAMEG_clean_sbu_1, # of connection points: 4
#     Node 17, Type 0, BuildingBlock: ICAMEG_clean_sbu_1, # of connection points: 4
#     Node 18, Type 0, BuildingBlock: ICAMEG_clean_sbu_1, # of connection points: 4
#     Node 19, Type 0, BuildingBlock: ICAMEG_clean_sbu_1, # of connection points: 4
#     Node 20, Type 0, BuildingBlock: ICAMEG_clean_sbu_1, # of connection points: 4
#     Node 21, Type 0, BuildingBlock: ICAMEG_clean_sbu_1, # of connection points: 4
#     Node 22, Type 0, BuildingBlock: ICAMEG_clean_sbu_1, # of connection points: 4
#     Node 23, Type 0, BuildingBlock: ICAMEG_clean_sbu_1, # of connection points: 4
#     Edge 24, Type (0, 0), BuildingBlock: CIFDUS_clean_linker_0, # of connection points: 2
#     Edge 25, Type (0, 0), BuildingBlock: CIFDUS_clean_linker_0, # of connection points: 2
#     Edge 26, Type (0, 0), BuildingBlock: CIFDUS_clean_linker_0, # of connection points: 2
#     Edge 27, Type (0, 0), BuildingBlock: CIFDUS_clean_linker_0, # of connection points: 2
#     Edge 28, Type (0, 0), BuildingBlock: CIFDUS_clean_linker_0, # of connection points: 2
#     Edge 29, Type (0, 0), BuildingBlock: CIFDUS_clean_linker_0, # of connection points: 2
#     Edge 30, Type (0, 0), BuildingBlock: CIFDUS_clean_linker_0, # of connection points: 2
#     Edge 31, Type (0, 0), BuildingBlock: CIFDUS_clean_linker_0, # of connection points: 2
#     Edge 32, Type (0, 0), BuildingBlock: CIFDUS_clean_linker_0, # of connection points: 2
#     Edge 33, Type (0, 0), BuildingBlock: CIFDUS_clean_linker_0, # of connection points: 2
#     Edge 34, Type (0, 0), BuildingBlock: CIFDUS_clean_linker_0, # of connection points: 2
#     Edge 35, Type (0, 0), BuildingBlock: CIFDUS_clean_linker_0, # of connection points: 2
#     Edge 36, Type (0, 0), BuildingBlock: CIFDUS_clean_linker_0, # of connection points: 2
#     Edge 37, Type (0, 0), BuildingBlock: CIFDUS_clean_linker_0, # of connection points: 2
#     Edge 38, Type (0, 0), BuildingBlock: CIFDUS_clean_linker_0, # of connection points: 2
#     Edge 39, Type (0, 0), BuildingBlock: CIFDUS_clean_linker_0, # of connection points: 2
#     Edge 40, Type (0, 0), BuildingBlock: CIFDUS_clean_linker_0, # of connection points: 2
#     Edge 41, Type (0, 0), BuildingBlock: CIFDUS_clean_linker_0, # of connection points: 2
#     Edge 42, Type (0, 0), BuildingBlock: CIFDUS_clean_linker_0, # of connection points: 2
#     Edge 43, Type (0, 0), BuildingBlock: CIFDUS_clean_linker_0, # of connection points: 2
#     Edge 44, Type (0, 0), BuildingBlock: CIFDUS_clean_linker_0, # of connection points: 2
#     Edge 45, Type (0, 0), BuildingBlock: CIFDUS_clean_linker_0, # of connection points: 2
#     Edge 46, Type (0, 0), BuildingBlock: CIFDUS_clean_linker_0, # of connection points: 2
#     Edge 47, Type (0, 0), BuildingBlock: CIFDUS_clean_linker_0, # of connection points: 2
#     Edge 48, Type (0, 0), BuildingBlock: CIFDUS_clean_linker_0, # of connection points: 2
#     Edge 49, Type (0, 0), BuildingBlock: CIFDUS_clean_linker_0, # of connection points: 2
#     Edge 50, Type (0, 0), BuildingBlock: CIFDUS_clean_linker_0, # of connection points: 2
#     Edge 51, Type (0, 0), BuildingBlock: CIFDUS_clean_linker_0, # of connection points: 2
#     Edge 52, Type (0, 0), BuildingBlock: CIFDUS_clean_linker_0, # of connection points: 2
#     Edge 53, Type (0, 0), BuildingBlock: CIFDUS_clean_linker_0, # of connection points: 2
#     Edge 54, Type (0, 0), BuildingBlock: CIFDUS_clean_linker_0, # of connection points: 2
#     Edge 55, Type (0, 0), BuildingBlock: CIFDUS_clean_linker_0, # of connection points: 2
#     Edge 56, Type (0, 0), BuildingBlock: CIFDUS_clean_linker_0, # of connection points: 2
#     Edge 57, Type (0, 0), BuildingBlock: CIFDUS_clean_linker_0, # of connection points: 2
#     Edge 58, Type (0, 0), BuildingBlock: CIFDUS_clean_linker_0, # of connection points: 2
#     Edge 59, Type (0, 0), BuildingBlock: CIFDUS_clean_linker_0, # of connection points: 2
#     Edge 60, Type (0, 0), BuildingBlock: CIFDUS_clean_linker_0, # of connection points: 2
#     Edge 61, Type (0, 0), BuildingBlock: CIFDUS_clean_linker_0, # of connection points: 2
#     Edge 62, Type (0, 0), BuildingBlock: CIFDUS_clean_linker_0, # of connection points: 2
#     Edge 63, Type (0, 0), BuildingBlock: CIFDUS_clean_linker_0, # of connection points: 2
#     Edge 64, Type (0, 0), BuildingBlock: CIFDUS_clean_linker_0, # of connection points: 2
#     Edge 65, Type (0, 0), BuildingBlock: CIFDUS_clean_linker_0, # of connection points: 2
#     Edge 66, Type (0, 0), BuildingBlock: CIFDUS_clean_linker_0, # of connection points: 2
#     Edge 67, Type (0, 0), BuildingBlock: CIFDUS_clean_linker_0, # of connection points: 2
#     Edge 68, Type (0, 0), BuildingBlock: CIFDUS_clean_linker_0, # of connection points: 2
#     Edge 69, Type (0, 0), BuildingBlock: CIFDUS_clean_linker_0, # of connection points: 2
#     Edge 70, Type (0, 0), BuildingBlock: CIFDUS_clean_linker_0, # of connection points: 2
#     Edge 71, Type (0, 0), BuildingBlock: CIFDUS_clean_linker_0, # of connection points: 2
# Relax obj value: 0.361
# Max RMSD: 0.250
# Mean RMSD: 0.250
data_MOF--net-lta--node1-ICAMEG_clean_sbu_1--edge1-CIFDUS_clean_linker_0
_symmetry_space_group_name_H-M    P1
_symmetry_Int_Tables_number       1
_symmetry_cell_setting            triclinic
loop_
_symmetry_equiv_pos_as_xyz
'x, y, z'
_cell_length_a     52.787099
_cell_length_b     52.811397
_cell_length_c     52.795756
_cell_angle_alpha  90.040034
_cell_angle_beta   89.970431
_cell_angle_gamma 89.966149
loop_
_atom_site_label
_atom_site_type_symbol
_atom_site_fract_x
_atom_site_fract_y
_atom_site_fract_z
_atom_type_partial_charge
Co0 Co 0.1269 0.35244 0.48433 0.0
Co1 Co 0.13003 0.29581 0.51475 0.0
O2 O 0.14164 0.31867 0.48779 0.0
C3 C 0.11677 0.35531 0.42913 0.0
O4 O 0.0925 0.35594 0.43455 0.0
C5 C 0.18661 0.2898 0.51393 0.0
O6 O 0.18926 0.31425 0.51041 0.0
O7 O 0.13913 0.3216 0.54095 0.0
O8 O 0.1213 0.35496 0.5217 0.0
H9 H 0.08397 0.27332 0.59502 0.0
H10 H 0.17727 0.3429 0.46128 0.0
O11 O 0.13284 0.35109 0.44669 0.0
H12 H 0.19086 0.41204 0.5226 0.0
H13 H 0.12033 0.44154 0.45027 0.0
H14 H 0.08136 0.37735 0.50568 0.0
H15 H 0.14839 0.3936 0.51674 0.0
H16 H 0.14011 0.39952 0.45539 0.0
O17 O 0.16465 0.28022 0.51668 0.0
H18 H 0.09806 0.30164 0.56072 0.0
H19 H 0.13877 0.24122 0.52647 0.0
H20 H 0.06113 0.4191 0.50131 0.0
H21 H 0.21999 0.36111 0.46624 0.0
H22 H 0.08049 0.45146 0.47344 0.0
H23 H 0.22702 0.39587 0.49716 0.0
O24 O 0.0927 0.33687 0.48074 0.0
H25 H 0.14408 0.24409 0.43602 0.0
H26 H 0.08421 0.26415 0.50492 0.0
H27 H 0.0719 0.23343 0.47197 0.0
H28 H 0.10198 0.22314 0.43726 0.0
H29 H 0.15553 0.27491 0.46922 0.0
H30 H 0.1253 0.21231 0.56054 0.0
H31 H 0.0976 0.22829 0.59509 0.0
O32 O 0.09475 0.31011 0.51352 0.0
C33 C 0.12946 0.34376 0.54149 0.0
C34 C 0.096 0.26612 0.58005 0.0
C35 C 0.11922 0.23189 0.56072 0.0
N36 N 0.11914 0.2731 0.54152 0.0
C37 C 0.10401 0.28206 0.56053 0.0
C38 C 0.12686 0.24838 0.54151 0.0
C39 C 0.10367 0.24086 0.58009 0.0
C40 C 0.1801 0.35823 0.47455 0.0
N41 N 0.16031 0.36723 0.48861 0.0
C42 C 0.20437 0.36838 0.47737 0.0
C43 C 0.20831 0.38785 0.49476 0.0
C44 C 0.18804 0.3969 0.50906 0.0
C45 C 0.16404 0.3863 0.50573 0.0
C46 C 0.11166 0.42753 0.46247 0.0
C47 C 0.09001 0.39131 0.49351 0.0
C48 C 0.12274 0.40368 0.46538 0.0
N49 N 0.11185 0.38587 0.4807 0.0
C50 C 0.07844 0.41495 0.49112 0.0
C51 C 0.08935 0.43312 0.47545 0.0
C52 C 0.08215 0.32328 0.49767 0.0
C53 C 0.13084 0.24835 0.4511 0.0
C54 C 0.09738 0.25986 0.48982 0.0
C55 C 0.09032 0.2424 0.47125 0.0
C56 C 0.10721 0.23663 0.45179 0.0
N57 N 0.12065 0.2712 0.48909 0.0
C58 C 0.13725 0.26573 0.46999 0.0
Co59 Co 0.6484 0.12425 0.48661 0.0
Co60 Co 0.71167 0.12528 0.50513 0.0
O61 O 0.68354 0.13652 0.48322 0.0
C62 C 0.6581 0.12616 0.42973 0.0
O63 O 0.68122 0.13477 0.43242 0.0
C64 C 0.71565 0.18233 0.50649 0.0
O65 O 0.69096 0.18483 0.50502 0.0
O66 O 0.69135 0.13177 0.53644 0.0
O67 O 0.65099 0.12616 0.52402 0.0
H68 H 0.7501 0.07597 0.57683 0.0
H69 H 0.65968 0.17031 0.45522 0.0
O70 O 0.6441 0.12154 0.44886 0.0
H71 H 0.59765 0.19814 0.51912 0.0
H72 H 0.55576 0.11929 0.46391 0.0
H73 H 0.6227 0.08792 0.521 0.0
H74 H 0.61261 0.15399 0.51838 0.0
H75 H 0.59969 0.13454 0.45962 0.0
O76 O 0.72577 0.16045 0.50694 0.0
H77 H 0.71559 0.09033 0.5488 0.0
H78 H 0.76714 0.13663 0.50794 0.0
H79 H 0.5789 0.07254 0.52626 0.0
H80 H 0.64486 0.21437 0.45497 0.0
H81 H 0.54508 0.08822 0.49757 0.0
H82 H 0.61364 0.22868 0.48714 0.0
O83 O 0.65987 0.08822 0.48729 0.0
H84 H 0.74776 0.14762 0.41992 0.0
H85 H 0.74513 0.08328 0.48739 0.0
H86 H 0.77019 0.07503 0.44882 0.0
H87 H 0.77169 0.10742 0.41475 0.0
H88 H 0.7225 0.15473 0.45858 0.0
H89 H 0.8021 0.12303 0.53571 0.0
H90 H 0.79372 0.09238 0.57038 0.0
O91 O 0.69918 0.08957 0.50362 0.0
C92 C 0.66768 0.13011 0.54089 0.0
C93 C 0.754 0.08929 0.56175 0.0
C94 C 0.78318 0.11574 0.53871 0.0
N95 N 0.73934 0.11422 0.52668 0.0
C96 C 0.73456 0.09744 0.54578 0.0
C97 C 0.76327 0.12345 0.5231 0.0
C98 C 0.77847 0.09852 0.55814 0.0
C99 C 0.64571 0.17602 0.46891 0.0
N100 N 0.63666 0.15922 0.48637 0.0
C101 C 0.63755 0.20119 0.46885 0.0
C102 C 0.6201 0.20922 0.48694 0.0
C103 C 0.61113 0.19211 0.50488 0.0
C104 C 0.61972 0.1671 0.50436 0.0
C105 C 0.57033 0.11233 0.47655 0.0
C106 C 0.60807 0.09495 0.50852 0.0
C107 C 0.59528 0.12081 0.47413 0.0
N108 N 0.61377 0.1122 0.49011 0.0
C109 C 0.58331 0.08611 0.51155 0.0
C110 C 0.56434 0.0949 0.49543 0.0
C111 C 0.67979 0.07749 0.49574 0.0
C112 C 0.74713 0.13328 0.43454 0.0
C113 C 0.74516 0.09711 0.47237 0.0
C114 C 0.75964 0.09251 0.45071 0.0
C115 C 0.76053 0.11072 0.43165 0.0
N116 N 0.73182 0.11914 0.47495 0.0
C117 C 0.73287 0.13721 0.45648 0.0
Co118 Co 0.87482 0.65337 0.48595 0.0
Co119 Co 0.89079 0.71436 0.50358 0.0
O120 O 0.87213 0.69008 0.48253 0.0
C121 C 0.88891 0.65704 0.43124 0.0
O122 O 0.90799 0.6718 0.43725 0.0
C123 C 0.83681 0.73145 0.50697 0.0
O124 O 0.82969 0.70775 0.50923 0.0
O125 O 0.88018 0.69705 0.53561 0.0
O126 O 0.87574 0.65639 0.52353 0.0
H127 H 0.95099 0.74178 0.57214 0.0
H128 H 0.83345 0.67521 0.45497 0.0
O129 O 0.87361 0.64928 0.44821 0.0
H130 H 0.79084 0.62596 0.52189 0.0
H131 H 0.85434 0.56274 0.46399 0.0
H132 H 0.90501 0.6191 0.51856 0.0
H133 H 0.83748 0.62761 0.51962 0.0
H134 H 0.85068 0.60916 0.46005 0.0
O135 O 0.86023 0.73698 0.50495 0.0
H136 H 0.92767 0.71101 0.54592 0.0
H137 H 0.89343 0.77078 0.50459 0.0
H138 H 0.90891 0.57283 0.52341 0.0
H139 H 0.78674 0.67385 0.45634 0.0
H140 H 0.88346 0.54433 0.49607 0.0
H141 H 0.76514 0.64916 0.49005 0.0
O142 O 0.91262 0.65505 0.48488 0.0
H143 H 0.87807 0.7521 0.41714 0.0
H144 H 0.94053 0.73222 0.48365 0.0
H145 H 0.9548 0.75245 0.44406 0.0
H146 H 0.92345 0.76259 0.41049 0.0
H147 H 0.86465 0.73167 0.45694 0.0
H148 H 0.91618 0.80228 0.53046 0.0
H149 H 0.94527 0.78785 0.56449 0.0
O150 O 0.92176 0.69265 0.5027 0.0
C151 C 0.87673 0.67359 0.54044 0.0
C152 C 0.93831 0.74833 0.55742 0.0
C153 C 0.91876 0.78227 0.53404 0.0
N154 N 0.90904 0.73901 0.5239 0.0
C155 C 0.92504 0.73095 0.54254 0.0
C156 C 0.90582 0.76432 0.51954 0.0
C157 C 0.9351 0.77416 0.55312 0.0
C158 C 0.82417 0.66426 0.46956 0.0
N159 N 0.83815 0.65153 0.48721 0.0
C160 C 0.79772 0.66363 0.4703 0.0
C161 C 0.78562 0.64981 0.48924 0.0
C162 C 0.80002 0.63681 0.50713 0.0
C163 C 0.82643 0.6379 0.50582 0.0
C164 C 0.86547 0.57498 0.47608 0.0
C165 C 0.89372 0.60683 0.50668 0.0
C166 C 0.86355 0.60128 0.47389 0.0
N167 N 0.87748 0.61684 0.48919 0.0
C168 C 0.89608 0.58064 0.50946 0.0
C169 C 0.88182 0.56465 0.49406 0.0
C170 C 0.92823 0.67105 0.49407 0.0
C171 C 0.8919 0.74785 0.43166 0.0
C172 C 0.92678 0.73651 0.46911 0.0
C173 C 0.93497 0.74801 0.44675 0.0
C174 C 0.91737 0.7537 0.42793 0.0
N175 N 0.90175 0.73093 0.47268 0.0
C176 C 0.88439 0.73636 0.45427 0.0
Co177 Co 0.35921 0.86702 0.48728 0.0
Co178 Co 0.29551 0.87874 0.4971 0.0
O179 O 0.3234 0.86061 0.48075 0.0
C180 C 0.35834 0.87357 0.43101 0.0
O181 O 0.34173 0.89198 0.43316 0.0
C182 C 0.28413 0.82433 0.5065 0.0
O183 O 0.30779 0.82111 0.51344 0.0
O184 O 0.31062 0.8738 0.53157 0.0
O185 O 0.35251 0.87131 0.52393 0.0
H186 H 0.25674 0.94268 0.55606 0.0
H187 H 0.34363 0.82087 0.45922 0.0
O188 O 0.36674 0.86224 0.45054 0.0
H189 H 0.38945 0.78993 0.53447 0.0
H190 H 0.45278 0.85261 0.47483 0.0
H191 H 0.388 0.90274 0.51983 0.0
H192 H 0.38453 0.83572 0.52687 0.0
H193 H 0.40733 0.84456 0.46767 0.0
O194 O 0.27621 0.84624 0.50026 0.0
H195 H 0.29179 0.91983 0.53522 0.0
H196 H 0.23915 0.87552 0.49356 0.0
H197 H 0.43326 0.91106 0.52791 0.0
H198 H 0.34834 0.77489 0.46594 0.0
H199 H 0.466 0.88596 0.50524 0.0
H200 H 0.3713 0.75915 0.50385 0.0
O201 O 0.3546 0.90432 0.48241 0.0
H202 H 0.26915 0.85181 0.40967 0.0
H203 H 0.27221 0.9227 0.47035 0.0
H204 H 0.25457 0.92976 0.4277 0.0
H205 H 0.2529 0.8941 0.39703 0.0
H206 H 0.28692 0.84573 0.45243 0.0
H207 H 0.20353 0.89768 0.51417 0.0
H208 H 0.21223 0.93162 0.54558 0.0
O209 O 0.31405 0.9115 0.4937 0.0
C210 C 0.33364 0.87265 0.53885 0.0
C211 C 0.2527 0.92796 0.54237 0.0
C212 C 0.22284 0.90268 0.51889 0.0
N213 N 0.26753 0.89644 0.51312 0.0
C214 C 0.27247 0.91501 0.53046 0.0
C215 C 0.24309 0.89012 0.50736 0.0
C216 C 0.22774 0.92173 0.53649 0.0
C217 C 0.35386 0.81417 0.47563 0.0
N218 N 0.36384 0.83096 0.4926 0.0
C219 C 0.35638 0.78811 0.47939 0.0
C220 C 0.36924 0.77929 0.50068 0.0
C221 C 0.37941 0.79654 0.51788 0.0
C222 C 0.3765 0.82246 0.51351 0.0
C223 C 0.43869 0.86366 0.48483 0.0
C224 C 0.40212 0.8916 0.51004 0.0
C225 C 0.4129 0.85927 0.48078 0.0
N226 N 0.39499 0.87313 0.49336 0.0
C227 C 0.42773 0.89645 0.51464 0.0
C228 C 0.4461 0.88237 0.50191 0.0
C229 C 0.33606 0.91916 0.48722 0.0
C230 C 0.26981 0.86751 0.42285 0.0
C231 C 0.27184 0.90721 0.45702 0.0
C232 C 0.26168 0.91126 0.43294 0.0
C233 C 0.26072 0.89124 0.41576 0.0
N234 N 0.28078 0.88391 0.46382 0.0
C235 C 0.27982 0.86417 0.4471 0.0
Co236 Co 0.12801 0.64718 0.51103 0.0
Co237 Co 0.11721 0.70788 0.49257 0.0
O238 O 0.1357 0.68332 0.51342 0.0
C239 C 0.12669 0.64874 0.5682 0.0
O240 O 0.1057 0.66209 0.56811 0.0
C241 C 0.17142 0.72441 0.48916 0.0
O242 O 0.17863 0.70069 0.48753 0.0
O243 O 0.12801 0.68963 0.46126 0.0
O244 O 0.11894 0.65031 0.47432 0.0
H245 H 0.05893 0.73444 0.42217 0.0
H246 H 0.17788 0.66264 0.53172 0.0
O247 O 0.13754 0.6427 0.5475 0.0
H248 H 0.19741 0.6093 0.45752 0.0
H249 H 0.1415 0.55454 0.52967 0.0
H250 H 0.08707 0.61719 0.48686 0.0
H251 H 0.15313 0.61742 0.46994 0.0
H252 H 0.15167 0.60007 0.53168 0.0
O253 O 0.14801 0.72998 0.49081 0.0
H254 H 0.08165 0.70394 0.44925 0.0
H255 H 0.11469 0.76434 0.49086 0.0
H256 H 0.07653 0.57182 0.48396 0.0
H257 H 0.22247 0.65467 0.52019 0.0
H258 H 0.10384 0.54014 0.50541 0.0
H259 H 0.23246 0.62791 0.48278 0.0
O260 O 0.09221 0.65427 0.52022 0.0
H261 H 0.13072 0.74585 0.57879 0.0
H262 H 0.06799 0.72812 0.51193 0.0
H263 H 0.05426 0.74915 0.5513 0.0
H264 H 0.08575 0.75823 0.58505 0.0
H265 H 0.1436 0.7246 0.53919 0.0
H266 H 0.09251 0.79549 0.46407 0.0
H267 H 0.06431 0.78059 0.4295 0.0
O268 O 0.08529 0.68706 0.4941 0.0
C269 C 0.12338 0.66636 0.45685 0.0
C270 C 0.07113 0.74117 0.4372 0.0
C271 C 0.09001 0.77543 0.4607 0.0
N272 N 0.09941 0.73232 0.47169 0.0
C273 C 0.08401 0.72398 0.45264 0.0
C274 C 0.10258 0.75769 0.47576 0.0
C275 C 0.07417 0.76706 0.44131 0.0
C276 C 0.18208 0.65076 0.51557 0.0
N277 N 0.16291 0.64051 0.50155 0.0
C278 C 0.20737 0.64641 0.50907 0.0
C279 C 0.21296 0.63143 0.48805 0.0
C280 C 0.1933 0.62101 0.47385 0.0
C281 C 0.16825 0.62576 0.48093 0.0
C282 C 0.1295 0.56817 0.52016 0.0
C283 C 0.09916 0.60354 0.49614 0.0
C284 C 0.1351 0.594 0.52131 0.0
N285 N 0.12007 0.61131 0.50927 0.0
C286 C 0.09304 0.57786 0.49449 0.0
C287 C 0.10836 0.5601 0.50658 0.0
C288 C 0.07746 0.66933 0.50852 0.0
C289 C 0.11684 0.74206 0.56419 0.0
C290 C 0.08181 0.73194 0.52654 0.0
C291 C 0.07392 0.7439 0.54878 0.0
C292 C 0.0916 0.74899 0.56771 0.0
N293 N 0.10662 0.72526 0.5232 0.0
C294 C 0.12403 0.73011 0.5417 0.0
Co295 Co 0.3556 0.11604 0.5047 0.0
Co296 Co 0.29132 0.11665 0.49397 0.0
O297 O 0.3212 0.1268 0.51382 0.0
C298 C 0.35512 0.11542 0.56257 0.0
O299 O 0.33227 0.12496 0.56459 0.0
C300 C 0.28154 0.17287 0.49825 0.0
O301 O 0.30366 0.17822 0.48819 0.0
O302 O 0.30671 0.13032 0.46216 0.0
O303 O 0.34752 0.11966 0.46815 0.0
H304 H 0.24598 0.07749 0.41998 0.0
H305 H 0.3461 0.16093 0.53837 0.0
O306 O 0.36542 0.11156 0.54108 0.0
H307 H 0.40041 0.19233 0.46938 0.0
H308 H 0.45063 0.11197 0.51348 0.0
H309 H 0.3765 0.08172 0.46539 0.0
H310 H 0.38719 0.14768 0.47049 0.0
H311 H 0.40759 0.12641 0.52465 0.0
O312 O 0.27477 0.14995 0.50141 0.0
H313 H 0.28326 0.08995 0.44517 0.0
H314 H 0.23549 0.12282 0.501 0.0
H315 H 0.41923 0.06706 0.45342 0.0
H316 H 0.35915 0.20553 0.5382 0.0
H317 H 0.45662 0.08207 0.47764 0.0
H318 H 0.38652 0.22163 0.50351 0.0
O319 O 0.34481 0.0799 0.50404 0.0
H320 H 0.26594 0.11942 0.5857 0.0
H321 H 0.26609 0.0679 0.50782 0.0
H322 H 0.24787 0.05024 0.54698 0.0
H323 H 0.24764 0.0761 0.5863 0.0
H324 H 0.28427 0.1362 0.54616 0.0
H325 H 0.1977 0.11092 0.47631 0.0
H326 H 0.20281 0.08799 0.43553 0.0
O327 O 0.30634 0.08268 0.48644 0.0
C328 C 0.32934 0.12721 0.45426 0.0
C329 C 0.2435 0.08745 0.43774 0.0
C330 C 0.21642 0.10624 0.46933 0.0
N331 N 0.2616 0.10704 0.47457 0.0
C332 C 0.26455 0.09453 0.45211 0.0
C333 C 0.2379 0.11301 0.48319 0.0
C334 C 0.21929 0.09336 0.44646 0.0
C335 C 0.35841 0.16744 0.52352 0.0
N336 N 0.3664 0.15131 0.50492 0.0
C337 C 0.36558 0.19289 0.52338 0.0
C338 C 0.38088 0.20193 0.50389 0.0
C339 C 0.38869 0.18551 0.48476 0.0
C340 C 0.38115 0.16019 0.48554 0.0
C341 C 0.43446 0.10528 0.5028 0.0
C342 C 0.3927 0.08854 0.47588 0.0
C343 C 0.41004 0.11332 0.50909 0.0
N344 N 0.38954 0.10504 0.49559 0.0
C345 C 0.41685 0.08011 0.46906 0.0
C346 C 0.43783 0.08855 0.48265 0.0
C347 C 0.32562 0.06989 0.49337 0.0
C348 C 0.26595 0.10795 0.5687 0.0
C349 C 0.26637 0.07915 0.52489 0.0
C350 C 0.25587 0.06911 0.54699 0.0
C351 C 0.25571 0.08364 0.56903 0.0
N352 N 0.27646 0.10298 0.52472 0.0
C353 C 0.27628 0.11736 0.54624 0.0
Co354 Co 0.88426 0.35446 0.5128 0.0
Co355 Co 0.88642 0.29267 0.49363 0.0
O356 O 0.87422 0.31906 0.51695 0.0
C357 C 0.88021 0.34704 0.57012 0.0
O358 O 0.87171 0.32378 0.56836 0.0
C359 C 0.83088 0.28009 0.49679 0.0
O360 O 0.82478 0.30326 0.49011 0.0
O361 O 0.87199 0.3113 0.46414 0.0
O362 O 0.88377 0.35072 0.4751 0.0
H363 H 0.92835 0.25897 0.41496 0.0
H364 H 0.83727 0.3403 0.54156 0.0
O365 O 0.88548 0.36005 0.55047 0.0
H366 H 0.8094 0.40104 0.47659 0.0
H367 H 0.88403 0.44777 0.53296 0.0
H368 H 0.92083 0.38077 0.47917 0.0
H369 H 0.85427 0.38882 0.47977 0.0
H370 H 0.87053 0.40335 0.53785 0.0
O371 O 0.85404 0.27359 0.49865 0.0
H372 H 0.91382 0.29212 0.44447 0.0
H373 H 0.88334 0.23626 0.49359 0.0
H374 H 0.9346 0.42502 0.47342 0.0
H375 H 0.79239 0.35227 0.53931 0.0
H376 H 0.91615 0.45888 0.50043 0.0
H377 H 0.77807 0.38286 0.50661 0.0
O378 O 0.92057 0.3443 0.51385 0.0
H379 H 0.8855 0.25548 0.58125 0.0
H380 H 0.93694 0.26966 0.50458 0.0
H381 H 0.95592 0.24786 0.54122 0.0
H382 H 0.93012 0.24057 0.57989 0.0
H383 H 0.86736 0.27746 0.54427 0.0
H384 H 0.89737 0.20249 0.46453 0.0
H385 H 0.92013 0.21375 0.42492 0.0
O386 O 0.91947 0.31059 0.48807 0.0
C387 C 0.87608 0.33453 0.45893 0.0
C388 C 0.91846 0.25381 0.43217 0.0
C389 C 0.90105 0.22212 0.45997 0.0
N390 N 0.89776 0.26619 0.47075 0.0
C391 C 0.91021 0.27253 0.44896 0.0
C392 C 0.89308 0.24135 0.47631 0.0
C393 C 0.91384 0.22845 0.43776 0.0
C394 C 0.83151 0.35402 0.52769 0.0
N395 N 0.84873 0.36436 0.51139 0.0
C396 C 0.8059 0.36057 0.52632 0.0
C397 C 0.79786 0.37767 0.50793 0.0
C398 C 0.81542 0.38789 0.49111 0.0
C399 C 0.84086 0.3809 0.49306 0.0
C400 C 0.89218 0.43319 0.52105 0.0
C401 C 0.91261 0.39541 0.49091 0.0
C402 C 0.88469 0.40798 0.5238 0.0
N403 N 0.89478 0.38947 0.50871 0.0
C404 C 0.92053 0.42043 0.48761 0.0
C405 C 0.91019 0.43941 0.50279 0.0
C406 C 0.93138 0.32819 0.49948 0.0
C407 C 0.89694 0.25853 0.5645 0.0
C408 C 0.92563 0.26675 0.5214 0.0
C409 C 0.93646 0.2543 0.54205 0.0
C410 C 0.92198 0.2502 0.56374 0.0
N411 N 0.90106 0.27492 0.5223 0.0
C412 C 0.88675 0.27093 0.54348 0.0
Co413 Co 0.64748 0.87568 0.51237 0.0
Co414 Co 0.7106 0.88495 0.49901 0.0
O415 O 0.68331 0.86804 0.51745 0.0
C416 C 0.64654 0.88287 0.56907 0.0
O417 O 0.65953 0.90399 0.56741 0.0
C418 C 0.72224 0.83009 0.49235 0.0
O419 O 0.69848 0.82645 0.48595 0.0
O420 O 0.69425 0.8774 0.46567 0.0
O421 O 0.65283 0.88055 0.4754 0.0
H422 H 0.74739 0.94426 0.43432 0.0
H423 H 0.6627 0.82841 0.53871 0.0
O424 O 0.64116 0.8701 0.54933 0.0
H425 H 0.6127 0.80069 0.46485 0.0
H426 H 0.55401 0.8637 0.52778 0.0
H427 H 0.61865 0.91335 0.48217 0.0
H428 H 0.61952 0.84611 0.4732 0.0
H429 H 0.59944 0.85416 0.53312 0.0
O430 O 0.73005 0.85231 0.4976 0.0
H431 H 0.71306 0.92293 0.4577 0.0
H432 H 0.76702 0.8823 0.50134 0.0
H433 H 0.5734 0.92322 0.47594 0.0
H434 H 0.65609 0.78278 0.53124 0.0
H435 H 0.54072 0.8983 0.49884 0.0
H436 H 0.63101 0.76866 0.49403 0.0
O437 O 0.6536 0.91267 0.51773 0.0
H438 H 0.74118 0.86465 0.58681 0.0
H439 H 0.73277 0.93148 0.5222 0.0
H440 H 0.75195 0.94177 0.56351 0.0
H441 H 0.75633 0.90819 0.59614 0.0
H442 H 0.72189 0.85526 0.54531 0.0
H443 H 0.80195 0.90298 0.47826 0.0
H444 H 0.79223 0.9343 0.44455 0.0
O445 O 0.69207 0.9179 0.50032 0.0
C446 C 0.67092 0.87894 0.45952 0.0
C447 C 0.75188 0.93067 0.44899 0.0
C448 C 0.7825 0.90748 0.47362 0.0
N449 N 0.73801 0.90143 0.4809 0.0
C450 C 0.73251 0.91856 0.46231 0.0
C451 C 0.76263 0.89575 0.48656 0.0
C452 C 0.77703 0.92506 0.45472 0.0
C453 C 0.65156 0.82242 0.52261 0.0
N454 N 0.64147 0.83991 0.50644 0.0
C455 C 0.64796 0.79655 0.51843 0.0
C456 C 0.63392 0.78864 0.49753 0.0
C457 C 0.62366 0.8066 0.48114 0.0
C458 C 0.62765 0.83229 0.48592 0.0
C459 C 0.56807 0.87465 0.51765 0.0
C460 C 0.60455 0.90231 0.49208 0.0
C461 C 0.59384 0.86941 0.52067 0.0
N462 N 0.61171 0.8831 0.50786 0.0
C463 C 0.57895 0.90804 0.48854 0.0
C464 C 0.56062 0.89407 0.50141 0.0
C465 C 0.67139 0.92672 0.50925 0.0
C466 C 0.73942 0.87943 0.57273 0.0
C467 C 0.73448 0.91681 0.53633 0.0
C468 C 0.74543 0.92272 0.55967 0.0
C469 C 0.7479 0.90387 0.57796 0.0
N470 N 0.72629 0.89277 0.5313 0.0
C471 C 0.72858 0.87421 0.54917 0.0
Co472 Co 0.49233 0.12732 0.36093 0.0
Co473 Co 0.5067 0.12299 0.29776 0.0
O474 O 0.4886 0.13873 0.32596 0.0
C475 C 0.43556 0.12833 0.35778 0.0
O476 O 0.43591 0.11104 0.3399 0.0
C477 C 0.51672 0.17827 0.29004 0.0
O478 O 0.52424 0.18022 0.31366 0.0
O479 O 0.53994 0.12756 0.31546 0.0
O480 O 0.52848 0.11844 0.35539 0.0
H481 H 0.5696 0.06359 0.25799 0.0
H482 H 0.4715 0.17849 0.35056 0.0
O483 O 0.45611 0.13635 0.36752 0.0
H484 H 0.54794 0.19279 0.4023 0.0
H485 H 0.47744 0.13281 0.45506 0.0
H486 H 0.51824 0.08434 0.3864 0.0
H487 H 0.53464 0.14947 0.39112 0.0
H488 H 0.47316 0.14646 0.41061 0.0
O489 O 0.5101 0.15687 0.2811 0.0
H490 H 0.54609 0.08322 0.29331 0.0
H491 H 0.50633 0.13036 0.24167 0.0
H492 H 0.52339 0.07031 0.43062 0.0
H493 H 0.48397 0.22213 0.36156 0.0
H494 H 0.50302 0.09469 0.46533 0.0
H495 H 0.52248 0.2295 0.38754 0.0
O496 O 0.48302 0.09204 0.3511 0.0
H497 H 0.42057 0.15027 0.26774 0.0
H498 H 0.48232 0.08022 0.27005 0.0
H499 H 0.44112 0.07385 0.24899 0.0
H500 H 0.40993 0.10907 0.2477 0.0
H501 H 0.46192 0.15574 0.28878 0.0
H502 H 0.52959 0.11143 0.20583 0.0
H503 H 0.5614 0.07771 0.21387 0.0
O504 O 0.50278 0.08855 0.31337 0.0
C505 C 0.54514 0.12152 0.33826 0.0
C506 C 0.55573 0.07823 0.25424 0.0
C507 C 0.53331 0.1051 0.22497 0.0
N508 N 0.52476 0.10781 0.26956 0.0
C509 C 0.54232 0.08936 0.27415 0.0
C510 C 0.52026 0.11581 0.24535 0.0
C511 C 0.55115 0.08617 0.22949 0.0
C512 C 0.48813 0.18153 0.3621 0.0
N513 N 0.50222 0.16144 0.37031 0.0
C514 C 0.49516 0.20629 0.36817 0.0
C515 C 0.5168 0.21041 0.38272 0.0
C516 C 0.53109 0.18983 0.39099 0.0
C517 C 0.52349 0.16533 0.38455 0.0
C518 C 0.48647 0.12207 0.4401 0.0
C519 C 0.5093 0.09505 0.40137 0.0
C520 C 0.484 0.12962 0.41486 0.0
N521 N 0.49547 0.11623 0.39587 0.0
C522 C 0.51226 0.087 0.42639 0.0
C523 C 0.5008 0.10067 0.44585 0.0
C524 C 0.49147 0.079 0.33253 0.0
C525 C 0.43401 0.13479 0.26817 0.0
C526 C 0.46879 0.09558 0.26968 0.0
C527 C 0.44552 0.09189 0.25766 0.0
C528 C 0.42804 0.11166 0.25694 0.0
N529 N 0.47451 0.11831 0.28066 0.0
C530 C 0.45746 0.13778 0.28002 0.0
Co531 Co 0.86162 0.4964 0.35837 0.0
Co532 Co 0.87634 0.51055 0.29608 0.0
O533 O 0.8572 0.49158 0.32174 0.0
C534 C 0.8698 0.43999 0.35801 0.0
O535 O 0.8902 0.44242 0.34398 0.0
C536 C 0.82205 0.51459 0.27869 0.0
O537 O 0.81403 0.51521 0.3022 0.0
O538 O 0.8676 0.54356 0.31257 0.0
O539 O 0.86582 0.53346 0.35391 0.0
H540 H 0.93887 0.57595 0.26674 0.0
H541 H 0.81665 0.46831 0.33974 0.0
O542 O 0.85673 0.4593 0.36412 0.0
H543 H 0.78242 0.54131 0.38697 0.0
H544 H 0.84249 0.47917 0.45025 0.0
H545 H 0.89573 0.52742 0.3906 0.0
H546 H 0.82853 0.53473 0.38356 0.0
H547 H 0.83656 0.47464 0.40417 0.0
O548 O 0.84565 0.51324 0.27383 0.0
H549 H 0.91462 0.55146 0.29826 0.0
H550 H 0.87842 0.51023 0.23942 0.0
H551 H 0.90199 0.53284 0.4366 0.0
H552 H 0.77037 0.47395 0.34304 0.0
H553 H 0.8754 0.50837 0.46673 0.0
H554 H 0.75299 0.51074 0.36668 0.0
O555 O 0.89915 0.49199 0.35551 0.0
H556 H 0.85768 0.42306 0.26358 0.0
H557 H 0.92346 0.48845 0.27389 0.0
H558 H 0.93471 0.44748 0.25448 0.0
H559 H 0.90165 0.41444 0.24917 0.0
H560 H 0.84738 0.46421 0.28317 0.0
H561 H 0.90203 0.53449 0.20728 0.0
H562 H 0.93262 0.56752 0.22087 0.0
O563 O 0.90789 0.50775 0.31686 0.0
C564 C 0.86613 0.54947 0.33595 0.0
C565 C 0.92564 0.56156 0.26058 0.0
C566 C 0.90493 0.53832 0.2272 0.0
N567 N 0.89521 0.52935 0.27072 0.0
C568 C 0.91191 0.54758 0.27834 0.0
C569 C 0.89152 0.52472 0.2455 0.0
C570 C 0.9221 0.55684 0.23485 0.0
C571 C 0.80922 0.48422 0.35029 0.0
N572 N 0.82529 0.50118 0.36141 0.0
C573 C 0.783 0.48737 0.352 0.0
C574 C 0.77326 0.50804 0.36523 0.0
C575 C 0.78976 0.52522 0.37659 0.0
C576 C 0.81587 0.52146 0.37449 0.0
C577 C 0.85422 0.48987 0.43729 0.0
C578 C 0.88392 0.51691 0.4036 0.0
C579 C 0.85102 0.48732 0.41116 0.0
N580 N 0.86579 0.50076 0.39466 0.0
C581 C 0.88761 0.52 0.42963 0.0
C582 C 0.87267 0.5063 0.44653 0.0
C583 C 0.91468 0.49917 0.33841 0.0
C584 C 0.87227 0.43727 0.26585 0.0
C585 C 0.90907 0.47406 0.27193 0.0
C586 C 0.9155 0.45095 0.26078 0.0
C587 C 0.89694 0.43244 0.25778 0.0
N588 N 0.88487 0.47862 0.27993 0.0
C589 C 0.86654 0.46062 0.27692 0.0
Co590 Co 0.51361 0.87688 0.35126 0.0
Co591 Co 0.49904 0.88988 0.28922 0.0
O592 O 0.51882 0.87198 0.31497 0.0
C593 C 0.56998 0.88642 0.35457 0.0
O594 O 0.56761 0.90899 0.34444 0.0
C595 C 0.49577 0.83582 0.27322 0.0
O596 O 0.49016 0.82979 0.29668 0.0
O597 O 0.46654 0.8787 0.30494 0.0
O598 O 0.47638 0.88077 0.34636 0.0
H599 H 0.42978 0.94695 0.25744 0.0
H600 H 0.5414 0.83167 0.33265 0.0
O601 O 0.55079 0.87206 0.35722 0.0
H602 H 0.46921 0.79816 0.38154 0.0
H603 H 0.52965 0.8594 0.44374 0.0
H604 H 0.48227 0.91162 0.38251 0.0
H605 H 0.47588 0.8442 0.37767 0.0
H606 H 0.53518 0.85294 0.3978 0.0
O607 O 0.49962 0.85888 0.26723 0.0
H608 H 0.45487 0.92465 0.28989 0.0
H609 H 0.50139 0.89219 0.23282 0.0
H610 H 0.47585 0.91837 0.4283 0.0
H611 H 0.53563 0.78547 0.33629 0.0
H612 H 0.49965 0.89216 0.45927 0.0
H613 H 0.49925 0.76844 0.36079 0.0
O614 O 0.51769 0.91429 0.34746 0.0
H615 H 0.58767 0.87829 0.2564 0.0
H616 H 0.51885 0.93969 0.27141 0.0
H617 H 0.55916 0.95437 0.25295 0.0
H618 H 0.5939 0.92355 0.24526 0.0
H619 H 0.5471 0.86445 0.27502 0.0
H620 H 0.47665 0.91392 0.1997 0.0
H621 H 0.44062 0.94163 0.21195 0.0
O622 O 0.49811 0.92135 0.31038 0.0
C623 C 0.46048 0.87887 0.32832 0.0
C624 C 0.44546 0.93497 0.25186 0.0
C625 C 0.47175 0.9164 0.21946 0.0
N626 N 0.47963 0.90723 0.26329 0.0
C627 C 0.45976 0.92233 0.27016 0.0
C628 C 0.48563 0.90408 0.23829 0.0
C629 C 0.45154 0.93196 0.22634 0.0
C630 C 0.52566 0.8244 0.34353 0.0
N631 N 0.50899 0.84062 0.35491 0.0
C632 C 0.52243 0.79822 0.34545 0.0
C633 C 0.502 0.78868 0.35917 0.0
C634 C 0.48513 0.80534 0.3708 0.0
C635 C 0.48895 0.8314 0.36847 0.0
C636 C 0.51913 0.8709 0.43043 0.0
C637 C 0.49258 0.90001 0.39585 0.0
C638 C 0.52226 0.86741 0.40437 0.0
N639 N 0.50896 0.8818 0.38744 0.0
C640 C 0.48892 0.90398 0.42177 0.0
C641 C 0.5023 0.88929 0.43913 0.0
C642 C 0.50754 0.92911 0.33126 0.0
C643 C 0.57265 0.89188 0.25959 0.0
C644 C 0.5339 0.92617 0.2682 0.0
C645 C 0.55667 0.93459 0.25769 0.0
C646 C 0.57614 0.91729 0.25337 0.0
N647 N 0.53058 0.9012 0.27415 0.0
C648 C 0.54962 0.88414 0.27006 0.0
Co649 Co 0.11369 0.51076 0.35146 0.0
Co650 Co 0.10943 0.49662 0.28766 0.0
O651 O 0.12187 0.51767 0.31582 0.0
C652 C 0.11077 0.56865 0.34769 0.0
O653 O 0.11841 0.57001 0.32408 0.0
C654 C 0.16536 0.49953 0.27563 0.0
O655 O 0.17129 0.49455 0.29927 0.0
O656 O 0.12218 0.46491 0.30411 0.0
O657 O 0.11731 0.4738 0.34552 0.0
H658 H 0.06433 0.42245 0.24853 0.0
H659 H 0.15641 0.54543 0.33749 0.0
O660 O 0.10897 0.54758 0.35925 0.0
H661 H 0.19443 0.47941 0.39122 0.0
H662 H 0.11666 0.52752 0.44528 0.0
H663 H 0.08178 0.47275 0.37808 0.0
H664 H 0.14881 0.47865 0.38155 0.0
H665 H 0.12812 0.53455 0.40059 0.0
O666 O 0.14223 0.50095 0.26891 0.0
H667 H 0.07996 0.44895 0.28365 0.0
H668 H 0.11242 0.50056 0.23131 0.0
H669 H 0.07016 0.46479 0.42268 0.0
H670 H 0.20193 0.54713 0.34697 0.0
H671 H 0.08738 0.49266 0.45655 0.0
H672 H 0.22134 0.51392 0.374 0.0
O673 O 0.07664 0.50881 0.3437 0.0
H674 H 0.11549 0.58627 0.2564 0.0
H675 H 0.05983 0.51183 0.26506 0.0
H676 H 0.04317 0.55077 0.24547 0.0
H677 H 0.0711 0.58833 0.24094 0.0
H678 H 0.13129 0.54704 0.27619 0.0
H679 H 0.09736 0.47454 0.19559 0.0
H680 H 0.07305 0.43519 0.20409 0.0
O681 O 0.07618 0.49182 0.30484 0.0
C682 C 0.12187 0.45852 0.32744 0.0
C683 C 0.07495 0.43952 0.24457 0.0
C684 C 0.09351 0.46874 0.21487 0.0
N685 N 0.09723 0.4762 0.2596 0.0
C686 C 0.08386 0.45459 0.2644 0.0
C687 C 0.10211 0.48333 0.23519 0.0
C688 C 0.07985 0.44668 0.21965 0.0
C689 C 0.16443 0.53121 0.34965 0.0
N690 N 0.14966 0.51235 0.35939 0.0
C691 C 0.19037 0.53213 0.35479 0.0
C692 C 0.20126 0.51346 0.3699 0.0
C693 C 0.18618 0.49411 0.37956 0.0
C694 C 0.16032 0.4938 0.37401 0.0
C695 C 0.109 0.51534 0.43067 0.0
C696 C 0.08964 0.48465 0.39278 0.0
C697 C 0.11536 0.51926 0.40531 0.0
N698 N 0.10567 0.50403 0.38672 0.0
C699 C 0.08291 0.48013 0.41797 0.0
C700 C 0.0926 0.4957 0.43698 0.0
C701 C 0.06503 0.4986 0.32514 0.0
C702 C 0.10314 0.57002 0.25823 0.0
C703 C 0.07205 0.52815 0.26338 0.0
C704 C 0.06254 0.55012 0.25215 0.0
C705 C 0.07822 0.57118 0.24959 0.0
N706 N 0.09653 0.52716 0.2718 0.0
C707 C 0.11201 0.54773 0.26935 0.0
Co708 Co 0.49033 0.8725 0.64545 0.0
Co709 Co 0.50172 0.88286 0.70905 0.0
O710 O 0.48435 0.86562 0.68127 0.0
C711 C 0.43378 0.88109 0.64328 0.0
O712 O 0.43564 0.90258 0.65565 0.0
C713 C 0.51012 0.82811 0.71984 0.0
O714 O 0.51713 0.8249 0.69619 0.0
O715 O 0.53572 0.87696 0.69324 0.0
O716 O 0.52717 0.87639 0.65147 0.0
H717 H 0.56337 0.94433 0.74747 0.0
H718 H 0.46241 0.82627 0.66109 0.0
O719 O 0.45335 0.8678 0.63856 0.0
H720 H 0.5364 0.79556 0.61295 0.0
H721 H 0.4761 0.8594 0.55197 0.0
H722 H 0.52277 0.90819 0.61649 0.0
H723 H 0.52915 0.84132 0.61872 0.0
H724 H 0.46957 0.85095 0.59742 0.0
O725 O 0.50417 0.85007 0.72788 0.0
H726 H 0.54119 0.92263 0.71255 0.0
H727 H 0.49908 0.87904 0.76543 0.0
H728 H 0.5302 0.91693 0.57121 0.0
H729 H 0.46879 0.78033 0.65555 0.0
H730 H 0.50673 0.89248 0.53859 0.0
H731 H 0.50606 0.7647 0.6314 0.0
O732 O 0.48601 0.90978 0.65081 0.0
H733 H 0.41404 0.85844 0.73701 0.0
H734 H 0.47681 0.92739 0.73339 0.0
H735 H 0.43479 0.93558 0.75211 0.0
H736 H 0.40308 0.9009 0.75408 0.0
H737 H 0.45619 0.85123 0.71815 0.0
H738 H 0.52102 0.90006 0.8009 0.0
H739 H 0.55334 0.93305 0.79202 0.0
O740 O 0.49907 0.91593 0.69098 0.0
C741 C 0.54251 0.87659 0.67004 0.0
C742 C 0.54929 0.93002 0.75158 0.0
C743 C 0.52555 0.90514 0.78157 0.0
N744 N 0.51878 0.89967 0.73693 0.0
C745 C 0.53662 0.91772 0.73189 0.0
C746 C 0.51326 0.89323 0.7614 0.0
C747 C 0.54367 0.92367 0.77657 0.0
C748 C 0.47854 0.81963 0.65035 0.0
N749 N 0.49534 0.83647 0.64019 0.0
C750 C 0.48211 0.79359 0.64736 0.0
C751 C 0.50304 0.78483 0.63384 0.0
C752 C 0.52008 0.80212 0.6235 0.0
C753 C 0.51591 0.82802 0.62688 0.0
C754 C 0.48644 0.87018 0.566 0.0
C755 C 0.51257 0.89738 0.60243 0.0
C756 C 0.48274 0.86557 0.5918 0.0
N757 N 0.49578 0.87907 0.60965 0.0
C758 C 0.51682 0.90245 0.5768 0.0
C759 C 0.50363 0.88874 0.55851 0.0
C760 C 0.49203 0.92415 0.66936 0.0
C761 C 0.42768 0.87372 0.73622 0.0
C762 C 0.463 0.91234 0.73386 0.0
C763 C 0.43929 0.91702 0.74464 0.0
C764 C 0.42153 0.89755 0.74577 0.0
N765 N 0.46889 0.88895 0.72448 0.0
C766 C 0.45158 0.86974 0.72558 0.0
Co767 Co 0.13258 0.49477 0.65008 0.0
Co768 Co 0.12478 0.50977 0.71353 0.0
O769 O 0.1399 0.48956 0.68607 0.0
C770 C 0.13486 0.43731 0.65633 0.0
O771 O 0.14155 0.43824 0.68023 0.0
C772 C 0.18035 0.51423 0.72306 0.0
O773 O 0.18347 0.52033 0.69915 0.0
O774 O 0.1333 0.54244 0.69624 0.0
O775 O 0.13346 0.53194 0.65496 0.0
H776 H 0.06982 0.57809 0.75074 0.0
H777 H 0.17768 0.46448 0.66718 0.0
O778 O 0.13105 0.45737 0.64346 0.0
H779 H 0.21176 0.53038 0.61078 0.0
H780 H 0.13996 0.47689 0.55657 0.0
H781 H 0.09915 0.53 0.62175 0.0
H782 H 0.16598 0.52793 0.61925 0.0
H783 H 0.14968 0.47059 0.60181 0.0
O784 O 0.15819 0.51004 0.73169 0.0
H785 H 0.08882 0.5529 0.71627 0.0
H786 H 0.12944 0.50876 0.76984 0.0
H787 H 0.08924 0.53723 0.57667 0.0
H788 H 0.2234 0.466 0.65893 0.0
H789 H 0.10965 0.51048 0.54375 0.0
H790 H 0.24086 0.49916 0.63056 0.0
O791 O 0.09536 0.49445 0.65673 0.0
H792 H 0.14252 0.42286 0.7481 0.0
H793 H 0.0777 0.48917 0.73708 0.0
H794 H 0.06623 0.44922 0.75827 0.0
H795 H 0.0988 0.41574 0.76399 0.0
H796 H 0.15305 0.46296 0.72667 0.0
H797 H 0.11107 0.53362 0.80488 0.0
H798 H 0.08095 0.5685 0.79544 0.0
O799 O 0.09107 0.50968 0.69624 0.0
C800 C 0.13463 0.54809 0.67279 0.0
C801 C 0.0829 0.56291 0.75511 0.0
C802 C 0.10608 0.53798 0.78549 0.0
N803 N 0.11017 0.52934 0.74102 0.0
C804 C 0.09369 0.54856 0.73566 0.0
C805 C 0.11649 0.52402 0.76555 0.0
C806 C 0.08916 0.55754 0.78018 0.0
C807 C 0.18481 0.47858 0.65437 0.0
N808 N 0.16884 0.49559 0.64319 0.0
C809 C 0.21089 0.47953 0.64996 0.0
C810 C 0.22068 0.49818 0.6341 0.0
C811 C 0.20438 0.51568 0.623 0.0
C812 C 0.17842 0.51415 0.62787 0.0
C813 C 0.13096 0.48867 0.57075 0.0
C814 C 0.10828 0.51843 0.60752 0.0
C815 C 0.13631 0.48512 0.59641 0.0
N816 N 0.12511 0.50002 0.61442 0.0
C817 C 0.10252 0.52256 0.58203 0.0
C818 C 0.11397 0.50754 0.56356 0.0
C819 C 0.08181 0.50253 0.67508 0.0
C820 C 0.12816 0.4373 0.74572 0.0
C821 C 0.09189 0.4746 0.7392 0.0
C822 C 0.08533 0.45206 0.75136 0.0
C823 C 0.10362 0.4333 0.7546 0.0
N824 N 0.11599 0.47837 0.73049 0.0
C825 C 0.13403 0.46008 0.73366 0.0
Co826 Co 0.5191 0.11901 0.65028 0.0
Co827 Co 0.49373 0.12386 0.71025 0.0
O828 O 0.51943 0.1327 0.68484 0.0
C829 C 0.57136 0.09907 0.6456 0.0
O830 O 0.56133 0.07635 0.64453 0.0
C831 C 0.49763 0.18075 0.71453 0.0
O832 O 0.50144 0.18295 0.69007 0.0
O833 O 0.46582 0.13361 0.68657 0.0
O834 O 0.48138 0.11958 0.64948 0.0
H835 H 0.41334 0.08302 0.74073 0.0
H836 H 0.55104 0.16402 0.66081 0.0
O837 O 0.55728 0.11821 0.65019 0.0
H838 H 0.48966 0.19179 0.59615 0.0
H839 H 0.54945 0.11242 0.55991 0.0
H840 H 0.48944 0.07945 0.62343 0.0
H841 H 0.4889 0.14801 0.6123 0.0
H842 H 0.54886 0.12975 0.60328 0.0
O843 O 0.49436 0.15906 0.72452 0.0
H844 H 0.44611 0.09412 0.70934 0.0
H845 H 0.48665 0.13541 0.76524 0.0
H846 H 0.48918 0.06178 0.5802 0.0
H847 H 0.55275 0.20787 0.64485 0.0
H848 H 0.5194 0.07824 0.54809 0.0
H849 H 0.52184 0.22203 0.61234 0.0
O850 O 0.51733 0.08377 0.66356 0.0
H851 H 0.57731 0.1361 0.75404 0.0
H852 H 0.5036 0.07972 0.74428 0.0
H853 H 0.53843 0.06722 0.77273 0.0
H854 H 0.57561 0.09558 0.77784 0.0
H855 H 0.54217 0.14765 0.72552 0.0
H856 H 0.45417 0.125 0.79714 0.0
H857 H 0.41725 0.09852 0.78498 0.0
O858 O 0.49229 0.0881 0.6976 0.0
C859 C 0.46317 0.12716 0.66342 0.0
C860 C 0.42937 0.09453 0.74627 0.0
C861 C 0.45226 0.11812 0.77792 0.0
N862 N 0.46834 0.11531 0.73545 0.0
C863 C 0.44802 0.10083 0.72859 0.0
C864 C 0.47055 0.12403 0.75974 0.0
C865 C 0.43156 0.10325 0.77109 0.0
C866 C 0.53771 0.16996 0.64645 0.0
N867 N 0.51997 0.15343 0.63743 0.0
C868 C 0.53869 0.19484 0.63758 0.0
C869 C 0.52131 0.20279 0.61938 0.0
C870 C 0.50323 0.18585 0.61031 0.0
C871 C 0.50282 0.1611 0.61962 0.0
C872 C 0.53618 0.10511 0.57372 0.0
C873 C 0.50255 0.08681 0.60956 0.0
C874 C 0.53578 0.11481 0.59834 0.0
N875 N 0.51911 0.10564 0.61593 0.0
C876 C 0.50235 0.07669 0.58511 0.0
C877 C 0.51931 0.08592 0.5671 0.0
C878 C 0.50342 0.07452 0.68097 0.0
C879 C 0.56122 0.12357 0.75197 0.0
C880 C 0.51981 0.09199 0.74616 0.0
C881 C 0.53943 0.0849 0.76242 0.0
C882 C 0.56027 0.10083 0.7653 0.0
N883 N 0.52087 0.11433 0.73316 0.0
C884 C 0.54124 0.13004 0.73589 0.0
Co885 Co 0.88449 0.51521 0.65046 0.0
Co886 Co 0.88365 0.49147 0.71128 0.0
O887 O 0.87043 0.51411 0.6849 0.0
C888 C 0.89151 0.57061 0.64342 0.0
O889 O 0.91604 0.56657 0.64268 0.0
C890 C 0.82645 0.49271 0.71961 0.0
O891 O 0.82266 0.50553 0.6987 0.0
O892 O 0.87988 0.4615 0.68817 0.0
O893 O 0.8924 0.47842 0.65124 0.0
H894 H 0.93957 0.42162 0.74366 0.0
H895 H 0.83315 0.53707 0.65828 0.0
O896 O 0.8765 0.55245 0.64877 0.0
H897 H 0.82143 0.46746 0.59713 0.0
H898 H 0.88566 0.54231 0.55888 0.0
H899 H 0.92916 0.49254 0.62476 0.0
H900 H 0.86384 0.47736 0.61385 0.0
H901 H 0.86849 0.54022 0.60222 0.0
O902 O 0.84867 0.48521 0.72552 0.0
H903 H 0.92264 0.45113 0.71168 0.0
H904 H 0.87263 0.48277 0.76627 0.0
H905 H 0.94698 0.49399 0.58162 0.0
H906 H 0.79047 0.52808 0.64167 0.0
H907 H 0.92519 0.51907 0.5483 0.0
H908 H 0.78436 0.49297 0.61095 0.0
O909 O 0.91908 0.52187 0.66423 0.0
H910 H 0.85724 0.57438 0.75063 0.0
H911 H 0.92323 0.50844 0.74782 0.0
H912 H 0.92895 0.54542 0.77566 0.0
H913 H 0.89572 0.57869 0.77733 0.0
H914 H 0.85252 0.53738 0.72278 0.0
H915 H 0.88877 0.45337 0.79872 0.0
H916 H 0.92258 0.4226 0.78754 0.0
O917 O 0.91929 0.4973 0.69905 0.0
C918 C 0.88769 0.45949 0.66537 0.0
C919 C 0.92487 0.43497 0.74878 0.0
C920 C 0.89632 0.45275 0.77966 0.0
N921 N 0.89673 0.46873 0.73708 0.0
C922 C 0.91526 0.45178 0.73076 0.0
C923 C 0.88716 0.46927 0.76115 0.0
C924 C 0.91531 0.43551 0.77338 0.0
C925 C 0.83072 0.5219 0.64477 0.0
N926 N 0.85101 0.50774 0.63715 0.0
C927 C 0.80647 0.51683 0.63549 0.0
C928 C 0.80305 0.49711 0.61828 0.0
C929 C 0.82383 0.48277 0.61055 0.0
C930 C 0.8478 0.48838 0.62023 0.0
C931 C 0.89543 0.53146 0.57326 0.0
C932 C 0.91972 0.50367 0.61047 0.0
C933 C 0.88587 0.53031 0.5979 0.0
N934 N 0.89809 0.51667 0.61622 0.0
C935 C 0.92983 0.50434 0.58602 0.0
C936 C 0.91759 0.51839 0.56733 0.0
C937 C 0.93057 0.51085 0.68244 0.0
C938 C 0.87182 0.55997 0.75015 0.0
C939 C 0.90878 0.52289 0.74824 0.0
C940 C 0.91207 0.54376 0.76415 0.0
C941 C 0.89342 0.5624 0.7651 0.0
N942 N 0.88748 0.52051 0.73371 0.0
C943 C 0.8692 0.53883 0.73445 0.0
Co944 Co 0.35611 0.48744 0.13245 0.0
Co945 Co 0.29585 0.5101 0.12634 0.0
O946 O 0.32033 0.48681 0.14182 0.0
C947 C 0.35063 0.4313 0.12526 0.0
O948 O 0.33482 0.43495 0.10642 0.0
C949 C 0.2843 0.51327 0.18178 0.0
O950 O 0.30863 0.51554 0.18635 0.0
O951 O 0.3166 0.54 0.1367 0.0
O952 O 0.35495 0.52475 0.1266 0.0
H953 H 0.26885 0.58423 0.07312 0.0
H954 H 0.34132 0.46334 0.18089 0.0
O955 O 0.35875 0.44998 0.13821 0.0
H956 H 0.39984 0.53219 0.20444 0.0
H957 H 0.44783 0.46198 0.14014 0.0
H958 H 0.38603 0.51307 0.09225 0.0
H959 H 0.38935 0.52423 0.15963 0.0
H960 H 0.40268 0.46199 0.15212 0.0
O961 O 0.27638 0.51145 0.15904 0.0
H962 H 0.29947 0.55463 0.09225 0.0
H963 H 0.23959 0.51512 0.12866 0.0
H964 H 0.43111 0.51401 0.07998 0.0
H965 H 0.35153 0.47045 0.22594 0.0
H966 H 0.46236 0.48832 0.10399 0.0
H967 H 0.38093 0.50515 0.23795 0.0
O968 O 0.34697 0.48208 0.0963 0.0
H969 H 0.25338 0.42593 0.13918 0.0
H970 H 0.27135 0.49409 0.07796 0.0
H971 H 0.2469 0.45677 0.06424 0.0
H972 H 0.23769 0.42239 0.09497 0.0
H973 H 0.27798 0.46349 0.15205 0.0
H974 H 0.20834 0.54446 0.11012 0.0
H975 H 0.22291 0.57926 0.08204 0.0
O976 O 0.31422 0.50906 0.09293 0.0
C977 C 0.33995 0.54306 0.13133 0.0
C978 C 0.26226 0.56912 0.0853 0.0
C979 C 0.2283 0.54682 0.10609 0.0
N980 N 0.27134 0.53311 0.1115 0.0
C981 C 0.27951 0.55226 0.09615 0.0
C982 C 0.2461 0.53032 0.11661 0.0
C983 C 0.23649 0.56633 0.09032 0.0
C984 C 0.35433 0.47831 0.18597 0.0
N985 N 0.36479 0.49328 0.16766 0.0
C986 C 0.35995 0.48232 0.21151 0.0
C987 C 0.37641 0.50181 0.21824 0.0
C988 C 0.38701 0.51701 0.19944 0.0
C989 C 0.38094 0.51246 0.1741 0.0
C990 C 0.4344 0.47331 0.12957 0.0
C991 C 0.39952 0.50197 0.10291 0.0
C992 C 0.40877 0.47331 0.1362 0.0
N993 N 0.3917 0.48764 0.12299 0.0
C994 C 0.42502 0.50251 0.09582 0.0
C995 C 0.44254 0.48808 0.10928 0.0
C996 C 0.33147 0.49516 0.08318 0.0
C997 C 0.25721 0.44082 0.12563 0.0
C998 C 0.2675 0.47918 0.09144 0.0
C999 C 0.25359 0.45811 0.08356 0.0
C1000 C 0.24843 0.43883 0.10082 0.0
N1001 N 0.27597 0.48104 0.11584 0.0
C1002 C 0.27106 0.46217 0.13283 0.0
Co1003 Co 0.35469 0.52254 0.88543 0.0
Co1004 Co 0.29522 0.49805 0.89079 0.0
O1005 O 0.31917 0.52173 0.87459 0.0
C1006 C 0.34321 0.57773 0.87162 0.0
O1007 O 0.32028 0.57355 0.86302 0.0
C1008 C 0.28117 0.49696 0.83526 0.0
O1009 O 0.30492 0.49997 0.82858 0.0
O1010 O 0.31685 0.46873 0.88055 0.0
O1011 O 0.35409 0.48535 0.89229 0.0
H1012 H 0.27102 0.42352 0.94482 0.0
H1013 H 0.3409 0.54241 0.8341 0.0
O1014 O 0.35719 0.55989 0.87982 0.0
H1015 H 0.4053 0.47667 0.81885 0.0
H1016 H 0.44597 0.55041 0.88212 0.0
H1017 H 0.38291 0.49911 0.9281 0.0
H1018 H 0.39133 0.48649 0.86226 0.0
H1019 H 0.4017 0.54838 0.86736 0.0
O1020 O 0.27513 0.49542 0.85858 0.0
H1021 H 0.30053 0.45377 0.92503 0.0
H1022 H 0.239 0.49183 0.88982 0.0
H1023 H 0.42707 0.50028 0.94325 0.0
H1024 H 0.35464 0.53357 0.79052 0.0
H1025 H 0.45894 0.52614 0.92023 0.0
H1026 H 0.38706 0.5004 0.78258 0.0
O1027 O 0.34361 0.52963 0.92067 0.0
H1028 H 0.24997 0.58066 0.87708 0.0
H1029 H 0.27071 0.51418 0.93925 0.0
H1030 H 0.2453 0.551 0.95263 0.0
H1031 H 0.23469 0.58454 0.92142 0.0
H1032 H 0.27556 0.54363 0.86456 0.0
H1033 H 0.20885 0.46184 0.90906 0.0
H1034 H 0.2248 0.42743 0.93687 0.0
O1035 O 0.31368 0.49987 0.92412 0.0
C1036 C 0.34003 0.46647 0.88699 0.0
C1037 C 0.26383 0.43845 0.93276 0.0
C1038 C 0.22894 0.45993 0.91266 0.0
N1039 N 0.27153 0.47459 0.90628 0.0
C1040 C 0.28045 0.45566 0.92151 0.0
C1041 C 0.24612 0.4768 0.90174 0.0
C1042 C 0.2379 0.44064 0.92828 0.0
C1043 C 0.35533 0.52838 0.83102 0.0
N1044 N 0.36557 0.51542 0.85092 0.0
C1045 C 0.36291 0.52325 0.80618 0.0
C1046 C 0.38104 0.50459 0.80173 0.0
C1047 C 0.39126 0.49127 0.82206 0.0
C1048 C 0.38322 0.49691 0.84663 0.0
C1049 C 0.43227 0.53903 0.89227 0.0
C1050 C 0.39669 0.51021 0.91783 0.0
C1051 C 0.40714 0.53786 0.88405 0.0
N1052 N 0.38972 0.52349 0.89675 0.0
C1053 C 0.42167 0.51088 0.92656 0.0
C1054 C 0.43954 0.5254 0.91366 0.0
C1055 C 0.3292 0.51557 0.93388 0.0
C1056 C 0.25442 0.56614 0.89084 0.0
C1057 C 0.2663 0.52874 0.92557 0.0
C1058 C 0.25183 0.54952 0.93325 0.0
C1059 C 0.24588 0.56833 0.91573 0.0
N1060 N 0.27458 0.52671 0.9011 0.0
C1061 C 0.26885 0.5451 0.88384 0.0
Co1062 Co 0.48695 0.35267 0.88684 0.0
Co1063 Co 0.50114 0.28922 0.88643 0.0
O1064 O 0.48045 0.318 0.87518 0.0
C1065 C 0.42946 0.34888 0.88216 0.0
O1066 O 0.43004 0.3258 0.873 0.0
C1067 C 0.50198 0.27862 0.83007 0.0
O1068 O 0.51288 0.30044 0.82527 0.0
O1069 O 0.53265 0.30637 0.87448 0.0
O1070 O 0.52419 0.34646 0.88619 0.0
H1071 H 0.57523 0.24781 0.9295 0.0
H1072 H 0.45776 0.34188 0.83912 0.0
O1073 O 0.44973 0.36058 0.88813 0.0
H1074 H 0.52632 0.39984 0.81401 0.0
H1075 H 0.47298 0.44705 0.8902 0.0
H1076 H 0.52217 0.37536 0.92432 0.0
H1077 H 0.52208 0.38615 0.85833 0.0
H1078 H 0.46514 0.40357 0.87507 0.0
O1079 O 0.49642 0.27241 0.85272 0.0
H1080 H 0.54878 0.28372 0.91569 0.0
H1081 H 0.4975 0.23316 0.87985 0.0
H1082 H 0.53083 0.41859 0.93974 0.0
H1083 H 0.46109 0.35536 0.79477 0.0
H1084 H 0.50618 0.45481 0.92261 0.0
H1085 H 0.49558 0.38457 0.78183 0.0
O1086 O 0.48531 0.34157 0.9229 0.0
H1087 H 0.41132 0.25868 0.87855 0.0
H1088 H 0.48594 0.26331 0.93442 0.0
H1089 H 0.44693 0.24292 0.94991 0.0
H1090 H 0.40925 0.24044 0.92186 0.0
H1091 H 0.45065 0.27919 0.86397 0.0
H1092 H 0.52353 0.19672 0.89308 0.0
H1093 H 0.56265 0.20392 0.91819 0.0
O1094 O 0.50597 0.3046 0.92077 0.0
C1095 C 0.53932 0.32917 0.87882 0.0
C1096 C 0.5582 0.24442 0.91861 0.0
C1097 C 0.5292 0.21575 0.89814 0.0
N1098 N 0.52156 0.26057 0.89707 0.0
C1099 C 0.54312 0.26469 0.91077 0.0
C1100 C 0.51458 0.23648 0.89063 0.0
C1101 C 0.55114 0.2198 0.91224 0.0
C1102 C 0.47246 0.35499 0.83399 0.0
N1103 N 0.48916 0.36375 0.8517 0.0
C1104 C 0.47441 0.3624 0.80867 0.0
C1105 C 0.4938 0.37873 0.8014 0.0
C1106 C 0.51102 0.38732 0.81943 0.0
C1107 C 0.50845 0.37952 0.84456 0.0
C1108 C 0.48389 0.43143 0.89777 0.0
C1109 C 0.51144 0.39103 0.91668 0.0
C1110 C 0.47946 0.40674 0.88936 0.0
N1111 N 0.4933 0.38693 0.89868 0.0
C1112 C 0.51638 0.41546 0.92554 0.0
C1113 C 0.50252 0.43577 0.91595 0.0
C1114 C 0.49694 0.32318 0.93334 0.0
C1115 C 0.42759 0.25969 0.89098 0.0
C1116 C 0.46956 0.26263 0.92223 0.0
C1117 C 0.44755 0.2509 0.93104 0.0
C1118 C 0.42643 0.24948 0.91528 0.0
N1119 N 0.47053 0.2727 0.89841 0.0
C1120 C 0.44993 0.27127 0.88282 0.0
Co1121 Co 0.63989 0.49061 0.86659 0.0
Co1122 Co 0.70406 0.49921 0.87546 0.0
O1123 O 0.67522 0.48356 0.85835 0.0
C1124 C 0.63942 0.43406 0.87137 0.0
O1125 O 0.65673 0.43515 0.8892 0.0
C1126 C 0.71479 0.50953 0.82087 0.0
O1127 O 0.69201 0.51931 0.81872 0.0
O1128 O 0.68956 0.53406 0.87083 0.0
O1129 O 0.64751 0.52695 0.87182 0.0
H1130 H 0.74666 0.55724 0.93773 0.0
H1131 H 0.65298 0.46393 0.81885 0.0
O1132 O 0.63131 0.45419 0.8609 0.0
H1133 H 0.60736 0.54108 0.79257 0.0
H1134 H 0.54563 0.48038 0.85603 0.0
H1135 H 0.61333 0.52237 0.90476 0.0
H1136 H 0.6141 0.53179 0.83783 0.0
H1137 H 0.59053 0.47288 0.84554 0.0
O1138 O 0.72248 0.50138 0.84223 0.0
H1139 H 0.71028 0.53746 0.91615 0.0
H1140 H 0.76013 0.49391 0.87036 0.0
H1141 H 0.56862 0.53076 0.91556 0.0
H1142 H 0.64644 0.47236 0.77337 0.0
H1143 H 0.53443 0.50948 0.89123 0.0
H1144 H 0.62355 0.51121 0.75998 0.0
O1145 O 0.64606 0.48446 0.90351 0.0
H1146 H 0.72758 0.41101 0.84838 0.0
H1147 H 0.72727 0.4719 0.91915 0.0
H1148 H 0.74394 0.42884 0.92601 0.0
H1149 H 0.74423 0.39805 0.89042 0.0
H1150 H 0.71082 0.45419 0.84247 0.0
H1151 H 0.79706 0.51341 0.89126 0.0
H1152 H 0.79044 0.54524 0.92529 0.0
O1153 O 0.6865 0.49677 0.90893 0.0
C1154 C 0.66658 0.54165 0.87172 0.0
C1155 C 0.74979 0.54336 0.92295 0.0
C1156 C 0.77808 0.5188 0.89685 0.0
N1157 N 0.73305 0.51449 0.89208 0.0
C1158 C 0.72926 0.53206 0.9107 0.0
C1159 C 0.75709 0.50789 0.88501 0.0
C1160 C 0.77435 0.53664 0.91595 0.0
C1161 C 0.64281 0.48076 0.81317 0.0
N1162 N 0.63385 0.49729 0.83097 0.0
C1163 C 0.63924 0.48548 0.78739 0.0
C1164 C 0.62642 0.5073 0.77989 0.0
C1165 C 0.61734 0.52407 0.79816 0.0
C1166 C 0.62127 0.51874 0.82376 0.0
C1167 C 0.56037 0.48971 0.86679 0.0
C1168 C 0.59856 0.51325 0.89392 0.0
C1169 C 0.58584 0.48547 0.861 0.0
N1170 N 0.60457 0.4972 0.87451 0.0
C1171 C 0.57328 0.518 0.90019 0.0
C1172 C 0.5541 0.50608 0.88653 0.0
C1173 C 0.66497 0.48996 0.91762 0.0
C1174 C 0.72755 0.42424 0.86404 0.0
C1175 C 0.7271 0.45856 0.90367 0.0
C1176 C 0.73669 0.43423 0.90762 0.0
C1177 C 0.73687 0.41698 0.88763 0.0
N1178 N 0.71798 0.46555 0.88049 0.0
C1179 C 0.71813 0.44874 0.8608 0.0
Co1180 Co 0.5124 0.65415 0.88106 0.0
Co1181 Co 0.48842 0.71364 0.88738 0.0
O1182 O 0.51314 0.69016 0.87251 0.0
C1183 C 0.56675 0.64449 0.89236 0.0
O1184 O 0.56014 0.64 0.91591 0.0
C1185 C 0.49038 0.72877 0.83264 0.0
O1186 O 0.49079 0.70487 0.82582 0.0
O1187 O 0.46002 0.69299 0.87347 0.0
O1188 O 0.47464 0.65484 0.88508 0.0
H1189 H 0.40939 0.73685 0.93526 0.0
H1190 H 0.5385 0.67 0.83392 0.0
O1191 O 0.55027 0.65251 0.87659 0.0
H1192 H 0.47141 0.61121 0.80634 0.0
H1193 H 0.5373 0.56232 0.87197 0.0
H1194 H 0.48582 0.62372 0.92007 0.0
H1195 H 0.47715 0.62108 0.85161 0.0
H1196 H 0.53792 0.60766 0.86084 0.0
O1197 O 0.48923 0.73482 0.85596 0.0
H1198 H 0.44106 0.70769 0.91717 0.0
H1199 H 0.48287 0.76989 0.88802 0.0
H1200 H 0.48431 0.57851 0.93154 0.0
H1201 H 0.53368 0.66033 0.78847 0.0
H1202 H 0.51018 0.54748 0.90748 0.0
H1203 H 0.49987 0.6308 0.77441 0.0
O1204 O 0.51605 0.66297 0.91762 0.0
H1205 H 0.57259 0.75787 0.88354 0.0
H1206 H 0.50002 0.7359 0.93811 0.0
H1207 H 0.53564 0.76023 0.95597 0.0
H1208 H 0.57223 0.77146 0.92859 0.0
H1209 H 0.53668 0.73332 0.86651 0.0
H1210 H 0.45151 0.79973 0.90561 0.0
H1211 H 0.41449 0.78325 0.92951 0.0
O1212 O 0.4869 0.69372 0.9197 0.0
C1213 C 0.45669 0.66958 0.87836 0.0
C1214 C 0.42545 0.74427 0.92491 0.0
C1215 C 0.44907 0.77955 0.90823 0.0
N1216 N 0.46384 0.73705 0.90158 0.0
C1217 C 0.44348 0.72784 0.91464 0.0
C1218 C 0.46672 0.76255 0.89824 0.0
C1219 C 0.42831 0.7703 0.92166 0.0
C1220 C 0.52393 0.65692 0.82798 0.0
N1221 N 0.50822 0.64604 0.84543 0.0
C1222 C 0.52121 0.65161 0.80221 0.0
C1223 C 0.50221 0.63507 0.79433 0.0
C1224 C 0.48622 0.62409 0.81223 0.0
C1225 C 0.48951 0.62984 0.83784 0.0
C1226 C 0.52594 0.57567 0.88262 0.0
C1227 C 0.49713 0.61035 0.90945 0.0
C1228 C 0.52629 0.60139 0.87647 0.0
N1229 N 0.51197 0.61838 0.88982 0.0
C1230 C 0.49621 0.58476 0.91606 0.0
C1231 C 0.51074 0.56735 0.90254 0.0
C1232 C 0.50094 0.67706 0.93012 0.0
C1233 C 0.55673 0.75315 0.89564 0.0
C1234 C 0.51592 0.74061 0.92608 0.0
C1235 C 0.53601 0.75445 0.9363 0.0
C1236 C 0.55652 0.76075 0.92092 0.0
N1237 N 0.51621 0.73331 0.90123 0.0
C1238 C 0.53631 0.73932 0.88608 0.0
Co1239 Co 0.64642 0.50443 0.11507 0.0
Co1240 Co 0.71018 0.493 0.11659 0.0
O1241 O 0.68043 0.512 0.12746 0.0
C1242 C 0.6482 0.56029 0.10653 0.0
O1243 O 0.66716 0.55734 0.09068 0.0
C1244 C 0.71552 0.49268 0.17301 0.0
O1245 O 0.69201 0.48479 0.17492 0.0
O1246 O 0.69365 0.46048 0.12671 0.0
O1247 O 0.65392 0.46751 0.11316 0.0
H1248 H 0.75568 0.42246 0.07172 0.0
H1249 H 0.65302 0.53429 0.16229 0.0
O1250 O 0.63798 0.54128 0.11721 0.0
H1251 H 0.60338 0.45921 0.18714 0.0
H1252 H 0.55156 0.51478 0.11351 0.0
H1253 H 0.62473 0.47072 0.07555 0.0
H1254 H 0.61651 0.46531 0.14277 0.0
H1255 H 0.59495 0.52369 0.12836 0.0
O1256 O 0.72527 0.49656 0.15128 0.0
H1257 H 0.71838 0.44718 0.08523 0.0
H1258 H 0.76577 0.49787 0.12591 0.0
H1259 H 0.58165 0.46108 0.06031 0.0
H1260 H 0.63998 0.52908 0.20685 0.0
H1261 H 0.54468 0.48313 0.07939 0.0
H1262 H 0.61505 0.49128 0.21954 0.0
O1263 O 0.65785 0.50794 0.07921 0.0
H1264 H 0.73428 0.58417 0.12902 0.0
H1265 H 0.7392 0.51091 0.07138 0.0
H1266 H 0.75824 0.55151 0.05848 0.0
H1267 H 0.7559 0.58852 0.08745 0.0
H1268 H 0.71525 0.54325 0.14099 0.0
H1269 H 0.80355 0.47354 0.11307 0.0
H1270 H 0.79864 0.4356 0.08567 0.0
O1271 O 0.6962 0.48957 0.08133 0.0
C1272 C 0.6715 0.45289 0.1208 0.0
C1273 C 0.75807 0.43899 0.0836 0.0
C1274 C 0.78493 0.46763 0.10685 0.0
N1275 N 0.7399 0.47402 0.10621 0.0
C1276 C 0.73702 0.4531 0.09126 0.0
C1277 C 0.76346 0.48128 0.11413 0.0
C1278 C 0.78216 0.44636 0.09146 0.0
C1279 C 0.64194 0.51792 0.16761 0.0
N1280 N 0.63544 0.50021 0.14991 0.0
C1281 C 0.63471 0.51502 0.19289 0.0
C1282 C 0.62076 0.49379 0.20001 0.0
C1283 C 0.61421 0.47578 0.18185 0.0
C1284 C 0.62177 0.47931 0.15675 0.0
C1285 C 0.56751 0.50503 0.10507 0.0
C1286 C 0.60875 0.48037 0.08398 0.0
C1287 C 0.59214 0.51006 0.11333 0.0
N1288 N 0.61237 0.49764 0.10292 0.0
C1289 C 0.5844 0.47486 0.07524 0.0
C1290 C 0.56366 0.48726 0.08593 0.0
C1291 C 0.67728 0.49797 0.06873 0.0
C1292 C 0.73541 0.5682 0.11622 0.0
C1293 C 0.73787 0.52696 0.08394 0.0
C1294 C 0.74881 0.54988 0.07661 0.0
C1295 C 0.74752 0.57063 0.09289 0.0
N1296 N 0.726 0.52472 0.10683 0.0
C1297 C 0.7247 0.54496 0.12291 0.0
Co1298 Co 0.49005 0.64441 0.12756 0.0
Co1299 Co 0.5137 0.70459 0.12541 0.0
O1300 O 0.48858 0.68 0.13785 0.0
C1301 C 0.4335 0.6557 0.13305 0.0
O1302 O 0.4369 0.67874 0.14172 0.0
C1303 C 0.51071 0.71627 0.18075 0.0
O1304 O 0.51324 0.69204 0.18571 0.0
O1305 O 0.54175 0.68373 0.1396 0.0
O1306 O 0.52792 0.64538 0.12736 0.0
H1307 H 0.59451 0.73179 0.08297 0.0
H1308 H 0.46321 0.66015 0.17524 0.0
O1309 O 0.45215 0.64155 0.12711 0.0
H1310 H 0.52396 0.59439 0.20124 0.0
H1311 H 0.46301 0.55283 0.12711 0.0
H1312 H 0.52113 0.61596 0.09026 0.0
H1313 H 0.52107 0.60747 0.15661 0.0
H1314 H 0.46171 0.59733 0.14124 0.0
O1315 O 0.51071 0.72401 0.15791 0.0
H1316 H 0.56259 0.70111 0.09777 0.0
H1317 H 0.5181 0.76084 0.12825 0.0
H1318 H 0.52338 0.57155 0.07593 0.0
H1319 H 0.46515 0.64737 0.21987 0.0
H1320 H 0.49415 0.53964 0.09438 0.0
H1321 H 0.49574 0.61425 0.23326 0.0
O1322 O 0.48899 0.65488 0.09143 0.0
H1323 H 0.4291 0.74825 0.12735 0.0
H1324 H 0.50402 0.72857 0.07509 0.0
H1325 H 0.46891 0.75314 0.05659 0.0
H1326 H 0.43112 0.7632 0.08279 0.0
H1327 H 0.46455 0.72349 0.14503 0.0
H1328 H 0.54963 0.79216 0.11397 0.0
H1329 H 0.58813 0.7777 0.09106 0.0
O1330 O 0.51746 0.68631 0.09221 0.0
C1331 C 0.54522 0.66023 0.13528 0.0
C1332 C 0.5778 0.73833 0.0929 0.0
C1333 C 0.55263 0.77221 0.11033 0.0
N1334 N 0.53847 0.72915 0.11381 0.0
C1335 C 0.55964 0.72104 0.1013 0.0
C1336 C 0.53488 0.75437 0.11845 0.0
C1337 C 0.57422 0.76408 0.09746 0.0
C1338 C 0.4761 0.64535 0.18057 0.0
N1339 N 0.49141 0.63412 0.16297 0.0
C1340 C 0.47733 0.63834 0.20605 0.0
C1341 C 0.49454 0.61982 0.21357 0.0
C1342 C 0.51036 0.60867 0.19562 0.0
C1343 C 0.50858 0.61616 0.17033 0.0
C1344 C 0.47588 0.56655 0.11897 0.0
C1345 C 0.50847 0.60217 0.09852 0.0
C1346 C 0.47516 0.59182 0.12681 0.0
N1347 N 0.49143 0.60925 0.11669 0.0
C1348 C 0.50977 0.57705 0.09027 0.0
C1349 C 0.49336 0.55916 0.1006 0.0
C1350 C 0.5044 0.66979 0.08043 0.0
C1351 C 0.44547 0.74401 0.11574 0.0
C1352 C 0.48758 0.7327 0.08658 0.0
C1353 C 0.46779 0.74671 0.07602 0.0
C1354 C 0.4466 0.75237 0.09074 0.0
N1355 N 0.48632 0.72454 0.11113 0.0
C1356 C 0.46562 0.73003 0.12567 0.0
Co1357 Co 0.51954 0.35713 0.1355 0.0
Co1358 Co 0.49743 0.29604 0.12532 0.0
O1359 O 0.52136 0.32031 0.14026 0.0
C1360 C 0.57169 0.34864 0.11499 0.0
O1361 O 0.56255 0.33304 0.09792 0.0
C1362 C 0.499 0.28186 0.18075 0.0
O1363 O 0.50325 0.30542 0.18739 0.0
O1364 O 0.46755 0.31656 0.13663 0.0
O1365 O 0.48226 0.35642 0.14015 0.0
H1366 H 0.42202 0.27085 0.07306 0.0
H1367 H 0.5551 0.33603 0.17352 0.0
O1368 O 0.55718 0.35883 0.13134 0.0
H1369 H 0.49755 0.3918 0.22162 0.0
H1370 H 0.54994 0.44701 0.14613 0.0
H1371 H 0.48481 0.39186 0.10819 0.0
H1372 H 0.49284 0.38698 0.1754 0.0
H1373 H 0.55121 0.40079 0.15275 0.0
O1374 O 0.49608 0.27597 0.15753 0.0
H1375 H 0.4525 0.30071 0.09206 0.0
H1376 H 0.49168 0.23971 0.12691 0.0
H1377 H 0.48253 0.43804 0.10157 0.0
H1378 H 0.56071 0.34057 0.21969 0.0
H1379 H 0.5153 0.46593 0.12054 0.0
H1380 H 0.53173 0.36854 0.24406 0.0
O1381 O 0.51507 0.35345 0.09796 0.0
H1382 H 0.58258 0.25477 0.13598 0.0
H1383 H 0.51135 0.26931 0.07743 0.0
H1384 H 0.54846 0.24495 0.06283 0.0
H1385 H 0.58441 0.23748 0.09225 0.0
H1386 H 0.54524 0.27932 0.14963 0.0
H1387 H 0.46145 0.20924 0.10854 0.0
H1388 H 0.42638 0.22475 0.08129 0.0
O1389 O 0.49848 0.31461 0.09251 0.0
C1390 C 0.4645 0.34016 0.1409 0.0
C1391 C 0.43725 0.26385 0.08486 0.0
C1392 C 0.45935 0.22928 0.10481 0.0
N1393 N 0.4739 0.27198 0.1105 0.0
C1394 C 0.4546 0.28067 0.09562 0.0
C1395 C 0.47634 0.24665 0.11525 0.0
C1396 C 0.43969 0.23799 0.08951 0.0
C1397 C 0.54256 0.34841 0.18397 0.0
N1398 N 0.52364 0.36119 0.17179 0.0
C1399 C 0.54577 0.35083 0.21012 0.0
C1400 C 0.52947 0.36649 0.22379 0.0
C1401 C 0.51027 0.37952 0.21121 0.0
C1402 C 0.50763 0.37663 0.18506 0.0
C1403 C 0.53551 0.43505 0.13783 0.0
C1404 C 0.499 0.40388 0.11673 0.0
C1405 C 0.53617 0.40884 0.14143 0.0
N1406 N 0.51802 0.39361 0.13098 0.0
C1407 C 0.49767 0.43002 0.11283 0.0
C1408 C 0.51607 0.44566 0.12346 0.0
C1409 C 0.50596 0.33592 0.08402 0.0
C1410 C 0.56706 0.25794 0.12297 0.0
C1411 C 0.52705 0.26643 0.0902 0.0
C1412 C 0.54795 0.25247 0.0819 0.0
C1413 C 0.56809 0.24826 0.09843 0.0
N1414 N 0.52622 0.27596 0.11426 0.0
C1415 C 0.54585 0.27181 0.1306 0.0
H1416 H 0.15888 0.43524 0.35382 0.0
H1417 H 0.08577 0.42324 0.31984 0.0
H1418 H 0.07896 0.38613 0.34649 0.0
H1419 H 0.09009 0.36323 0.3856 0.0
H1420 H 0.16365 0.375 0.41929 0.0
H1421 H 0.17417 0.40556 0.38647 0.0
C1422 C 0.14206 0.42368 0.35142 0.0
C1423 C 0.12299 0.4317 0.33472 0.0
C1424 C 0.13806 0.40268 0.36727 0.0
C1425 C 0.10098 0.41703 0.33209 0.0
C1426 C 0.09689 0.39606 0.3477 0.0
C1427 C 0.10871 0.3719 0.38532 0.0
C1428 C 0.12571 0.36732 0.40532 0.0
C1429 C 0.11472 0.38957 0.3663 0.0
C1430 C 0.14997 0.37837 0.40438 0.0
C1431 C 0.15602 0.39602 0.38564 0.0
H1432 H 0.63209 0.08826 0.40814 0.0
H1433 H 0.65505 0.16562 0.39683 0.0
H1434 H 0.62411 0.17014 0.36246 0.0
H1435 H 0.58494 0.15413 0.3418 0.0
H1436 H 0.56241 0.07672 0.35411 0.0
H1437 H 0.59911 0.06979 0.38129 0.0
C1438 C 0.6309 0.10578 0.39746 0.0
C1439 C 0.64563 0.12657 0.40484 0.0
C1440 C 0.613 0.10822 0.378 0.0
C1441 C 0.64398 0.1493 0.39116 0.0
C1442 C 0.62612 0.15194 0.37171 0.0
C1443 C 0.58886 0.1355 0.3495 0.0
C1444 C 0.57125 0.11589 0.34598 0.0
C1445 C 0.60975 0.13184 0.36572 0.0
C1446 C 0.57599 0.09194 0.35648 0.0
C1447 C 0.59678 0.08806 0.37224 0.0
H1448 H 0.8472 0.63922 0.4075 0.0
H1449 H 0.92808 0.6467 0.399 0.0
H1450 H 0.92742 0.61681 0.36357 0.0
H1451 H 0.90485 0.58239 0.3411 0.0
H1452 H 0.82428 0.57441 0.35081 0.0
H1453 H 0.82358 0.61096 0.37922 0.0
C1454 C 0.86457 0.63484 0.39741 0.0
C1455 C 0.88769 0.64482 0.40606 0.0
C1456 C 0.86407 0.61741 0.37733 0.0
C1457 C 0.91004 0.63923 0.39271 0.0
C1458 C 0.9097 0.62198 0.37256 0.0
C1459 C 0.88705 0.58953 0.3485 0.0
C1460 C 0.86459 0.57607 0.34379 0.0
C1461 C 0.88698 0.6101 0.36547 0.0
C1462 C 0.84167 0.58484 0.35397 0.0
C1463 C 0.84134 0.60551 0.37045 0.0
H1464 H 0.36559 0.90518 0.39074 0.0
H1465 H 0.37916 0.82896 0.41683 0.0
H1466 H 0.40857 0.82176 0.382 0.0
H1467 H 0.43653 0.83985 0.34984 0.0
H1468 H 0.42618 0.91701 0.32594 0.0
H1469 H 0.38892 0.92096 0.35332 0.0
C1470 C 0.37437 0.88677 0.38826 0.0
C1471 C 0.37057 0.86778 0.40652 0.0
C1472 C 0.39198 0.883 0.36857 0.0
C1473 C 0.38211 0.844 0.40319 0.0
C1474 C 0.39896 0.83986 0.3833 0.0
C1475 C 0.42544 0.85715 0.34995 0.0
C1476 C 0.4338 0.87804 0.33593 0.0
C1477 C 0.40496 0.8596 0.36667 0.0
C1478 C 0.41967 0.90054 0.33627 0.0
C1479 C 0.39864 0.90291 0.35226 0.0
H1480 H 0.17026 0.57001 0.64416 0.0
H1481 H 0.09908 0.58436 0.68124 0.0
H1482 H 0.09173 0.62099 0.65372 0.0
H1483 H 0.10164 0.64276 0.61337 0.0
H1484 H 0.17243 0.62642 0.57568 0.0
H1485 H 0.18395 0.59705 0.60918 0.0
C1486 C 0.15368 0.58187 0.64687 0.0
C1487 C 0.13526 0.57467 0.66461 0.0
C1488 C 0.14921 0.60217 0.63037 0.0
C1489 C 0.11369 0.58987 0.66793 0.0
C1490 C 0.10931 0.61054 0.65188 0.0
C1491 C 0.1199 0.63335 0.61289 0.0
C1492 C 0.13585 0.63637 0.5917 0.0
C1493 C 0.12631 0.616 0.63213 0.0
C1494 C 0.15954 0.62412 0.59149 0.0
C1495 C 0.16619 0.60726 0.61066 0.0
H1496 H 0.36185 0.14629 0.60362 0.0
H1497 H 0.38476 0.07501 0.57087 0.0
H1498 H 0.41849 0.07096 0.6021 0.0
H1499 H 0.44489 0.09025 0.63436 0.0
H1500 H 0.42485 0.16253 0.66642 0.0
H1501 H 0.38626 0.16359 0.64024 0.0
C1502 C 0.37379 0.12957 0.60394 0.0
C1503 C 0.37093 0.11093 0.58508 0.0
C1504 C 0.39381 0.12779 0.62152 0.0
C1505 C 0.3867 0.08953 0.58527 0.0
C1506 C 0.40604 0.08728 0.603 0.0
C1507 C 0.43191 0.10612 0.63582 0.0
C1508 C 0.43779 0.12649 0.65183 0.0
C1509 C 0.41034 0.10672 0.6205 0.0
C1510 C 0.42064 0.14668 0.65409 0.0
C1511 C 0.39872 0.14732 0.63902 0.0
H1512 H 0.85644 0.41805 0.66228 0.0
H1513 H 0.93046 0.44586 0.64185 0.0
H1514 H 0.93623 0.41073 0.61253 0.0
H1515 H 0.91747 0.37665 0.58759 0.0
H1516 H 0.84362 0.34799 0.60682 0.0
H1517 H 0.84056 0.37847 0.64187 0.0
C1518 C 0.87413 0.41578 0.65206 0.0
C1519 C 0.89295 0.43453 0.65402 0.0
C1520 C 0.87715 0.39563 0.63471 0.0
C1521 C 0.91569 0.43167 0.64048 0.0
C1522 C 0.91896 0.41168 0.62361 0.0
C1523 C 0.90104 0.37664 0.59995 0.0
C1524 C 0.88078 0.36032 0.59469 0.0
C1525 C 0.8994 0.39424 0.61977 0.0
C1526 C 0.85953 0.36033 0.61072 0.0
C1527 C 0.8577 0.37791 0.63059 0.0
H1528 H 0.56945 0.84035 0.64716 0.0
H1529 H 0.5742 0.91664 0.67531 0.0
H1530 H 0.61131 0.92456 0.64851 0.0
H1531 H 0.63604 0.91226 0.61058 0.0
H1532 H 0.62884 0.83627 0.58124 0.0
H1533 H 0.59939 0.82562 0.61503 0.0
C1534 C 0.57937 0.85831 0.64818 0.0
C1535 C 0.56939 0.87784 0.66315 0.0
C1536 C 0.59988 0.86295 0.63197 0.0
C1537 C 0.58197 0.90122 0.6642 0.0
C1538 C 0.60289 0.90585 0.64855 0.0
C1539 C 0.62863 0.89318 0.61207 0.0
C1540 C 0.63421 0.87527 0.5931 0.0
C1541 C 0.61113 0.88727 0.63134 0.0
C1542 C 0.6245 0.85057 0.59533 0.0
C1543 C 0.60762 0.84442 0.61465 0.0
H1544 H 0.35555 0.16608 0.43545 0.0
H1545 H 0.32066 0.09545 0.41491 0.0
H1546 H 0.3491 0.09149 0.37848 0.0
H1547 H 0.39024 0.1032 0.35927 0.0
H1548 H 0.42715 0.17203 0.38332 0.0
H1549 H 0.39184 0.1817 0.41139 0.0
C1550 C 0.35342 0.15051 0.4222 0.0
C1551 C 0.33603 0.1312 0.4276 0.0
C1552 C 0.3709 0.14763 0.40239 0.0
C1553 C 0.3336 0.11081 0.41073 0.0
C1554 C 0.35026 0.10829 0.39022 0.0
C1555 C 0.39013 0.12068 0.37006 0.0
C1556 C 0.41149 0.13662 0.36958 0.0
C1557 C 0.36999 0.1258 0.38684 0.0
C1558 C 0.41112 0.15922 0.38368 0.0
C1559 C 0.39092 0.1648 0.39975 0.0
H1560 H 0.83714 0.35969 0.43819 0.0
H1561 H 0.91237 0.33226 0.42293 0.0
H1562 H 0.91576 0.36041 0.38635 0.0
H1563 H 0.90037 0.39855 0.36422 0.0
H1564 H 0.82574 0.42731 0.38143 0.0
H1565 H 0.81893 0.39294 0.41133 0.0
C1566 C 0.85376 0.35914 0.4261 0.0
C1567 C 0.87425 0.34365 0.43278 0.0
C1568 C 0.85592 0.37615 0.40577 0.0
C1569 C 0.89608 0.34352 0.4176 0.0
C1570 C 0.89818 0.35995 0.39694 0.0
C1571 C 0.88236 0.39686 0.37395 0.0
C1572 C 0.86384 0.41579 0.37095 0.0
C1573 C 0.87868 0.37722 0.3916 0.0
C1574 C 0.84054 0.41326 0.38369 0.0
C1575 C 0.83658 0.39359 0.40085 0.0
H1576 H 0.61108 0.91586 0.36643 0.0
H1577 H 0.58221 0.83957 0.37204 0.0
H1578 H 0.61553 0.82874 0.4019 0.0
H1579 H 0.64746 0.84313 0.43232 0.0
H1580 H 0.67543 0.91952 0.42857 0.0
H1581 H 0.64862 0.92794 0.39166 0.0
C1582 C 0.61252 0.89669 0.37362 0.0
C1583 C 0.59378 0.87877 0.36742 0.0
C1584 C 0.63161 0.8906 0.39124 0.0
C1585 C 0.59606 0.85392 0.37682 0.0
C1586 C 0.61514 0.84766 0.39395 0.0
C1587 C 0.64842 0.86124 0.42267 0.0
C1588 C 0.66346 0.88061 0.43281 0.0
C1589 C 0.63226 0.86614 0.40216 0.0
C1590 C 0.66435 0.90419 0.42063 0.0
C1591 C 0.64869 0.90911 0.39981 0.0
H1592 H 0.08534 0.63908 0.43805 0.0
H1593 H 0.15717 0.67186 0.41777 0.0
H1594 H 0.15767 0.647 0.37834 0.0
H1595 H 0.14071 0.61043 0.35374 0.0
H1596 H 0.06985 0.57688 0.37656 0.0
H1597 H 0.06554 0.6078 0.41058 0.0
C1598 C 0.10077 0.64124 0.42462 0.0
C1599 C 0.12125 0.65701 0.43067 0.0
C1600 C 0.1011 0.62658 0.40253 0.0
C1601 C 0.14115 0.65987 0.41328 0.0
C1602 C 0.14151 0.64548 0.39091 0.0
C1603 C 0.12394 0.61061 0.36562 0.0
C1604 C 0.10556 0.59154 0.36273 0.0
C1605 C 0.12203 0.62801 0.38583 0.0
C1606 C 0.08413 0.5915 0.37848 0.0
C1607 C 0.08176 0.60903 0.39803 0.0
H1608 H 0.35568 0.83697 0.56713 0.0
H1609 H 0.32829 0.91366 0.56935 0.0
H1610 H 0.35493 0.9225 0.60634 0.0
H1611 H 0.39267 0.91064 0.63159 0.0
H1612 H 0.42115 0.83412 0.62695 0.0
H1613 H 0.38741 0.82288 0.59772 0.0
C1614 C 0.35475 0.85524 0.5765 0.0
C1615 C 0.34008 0.8746 0.56581 0.0
C1616 C 0.37089 0.86039 0.59694 0.0
C1617 C 0.33916 0.89837 0.57767 0.0
C1618 C 0.35474 0.90352 0.59852 0.0
C1619 C 0.391 0.89134 0.62478 0.0
C1620 C 0.40975 0.87342 0.63101 0.0
C1621 C 0.37173 0.88505 0.60741 0.0
C1622 C 0.40727 0.84843 0.62209 0.0
C1623 C 0.38796 0.84194 0.60534 0.0
H1624 H 0.09889 0.42199 0.62438 0.0
H1625 H 0.17038 0.3995 0.65642 0.0
H1626 H 0.1741 0.36535 0.62496 0.0
H1627 H 0.15955 0.34635 0.58409 0.0
H1628 H 0.08776 0.37029 0.55316 0.0
H1629 H 0.08141 0.39902 0.58849 0.0
C1630 C 0.11493 0.40912 0.62486 0.0
C1631 C 0.13435 0.41315 0.64245 0.0
C1632 C 0.11703 0.38999 0.60664 0.0
C1633 C 0.15509 0.3965 0.64308 0.0
C1634 C 0.15733 0.37718 0.62493 0.0
C1635 C 0.14232 0.35744 0.58553 0.0
C1636 C 0.12445 0.35669 0.56577 0.0
C1637 C 0.13882 0.37435 0.60598 0.0
C1638 C 0.10209 0.37104 0.56783 0.0
C1639 C 0.09837 0.38745 0.58805 0.0
H1640 H 0.59182 0.14333 0.62871 0.0
H1641 H 0.60778 0.06353 0.63642 0.0
H1642 H 0.6439 0.06768 0.60788 0.0
H1643 H 0.6652 0.09207 0.57434 0.0
H1644 H 0.6465 0.17066 0.56375 0.0
H1645 H 0.61757 0.16915 0.59999 0.0
C1646 C 0.60363 0.12698 0.62478 0.0
C1647 C 0.5968 0.10305 0.63437 0.0
C1648 C 0.62381 0.12931 0.60757 0.0
C1649 C 0.61239 0.08211 0.62906 0.0
C1650 C 0.63302 0.08444 0.61263 0.0
C1651 C 0.65562 0.10907 0.58082 0.0
C1652 C 0.6582 0.13156 0.56694 0.0
C1653 C 0.63813 0.10766 0.60084 0.0
C1654 C 0.64513 0.15335 0.57469 0.0
C1655 C 0.62836 0.15236 0.59516 0.0
H1656 H 0.91534 0.61558 0.63444 0.0
H1657 H 0.84407 0.57696 0.62377 0.0
H1658 H 0.83093 0.6089 0.59328 0.0
H1659 H 0.84311 0.64299 0.56392 0.0
H1660 H 0.9136 0.68236 0.57521 0.0
H1661 H 0.92327 0.65554 0.61155 0.0
C1662 C 0.89666 0.61454 0.62597 0.0
C1663 C 0.88106 0.59351 0.63092 0.0
C1664 C 0.88909 0.63308 0.60839 0.0
C1665 C 0.85668 0.59272 0.62013 0.0
C1666 C 0.84914 0.61094 0.60253 0.0
C1667 C 0.86012 0.64627 0.57496 0.0
C1668 C 0.87769 0.6645 0.56682 0.0
C1669 C 0.86567 0.63052 0.59567 0.0
C1670 C 0.89966 0.66865 0.58121 0.0
C1671 C 0.90537 0.65303 0.60183 0.0
H1672 H 0.37838 0.41575 0.16543 0.0
H1673 H 0.35339 0.39195 0.09136 0.0
H1674 H 0.38415 0.3573 0.09186 0.0
H1675 H 0.4235 0.33913 0.10999 0.0
H1676 H 0.4497 0.36543 0.18264 0.0
H1677 H 0.41306 0.39345 0.18627 0.0
C1678 C 0.37922 0.40263 0.14962 0.0
C1679 C 0.36391 0.40673 0.12821 0.0
C1680 C 0.39744 0.38328 0.14972 0.0
C1681 C 0.36501 0.38934 0.10805 0.0
C1682 C 0.38278 0.36961 0.10824 0.0
C1683 C 0.42053 0.35028 0.127 0.0
C1684 C 0.43908 0.35027 0.14609 0.0
C1685 C 0.39985 0.36711 0.12848 0.0
C1686 C 0.43552 0.36517 0.16781 0.0
C1687 C 0.41469 0.3813 0.16979 0.0
H1688 H 0.42001 0.66202 0.84245 0.0
H1689 H 0.43668 0.65387 0.92191 0.0
H1690 H 0.39862 0.62855 0.92793 0.0
H1691 H 0.36551 0.60252 0.90932 0.0
H1692 H 0.34943 0.60738 0.8296 0.0
H1693 H 0.38173 0.64055 0.82482 0.0
C1694 C 0.41469 0.65534 0.86114 0.0
C1695 C 0.43089 0.65977 0.8818 0.0
C1696 C 0.39303 0.64001 0.86429 0.0
C1697 C 0.42428 0.65074 0.90588 0.0
C1698 C 0.40263 0.63616 0.90929 0.0
C1699 C 0.36844 0.61161 0.89111 0.0
C1700 C 0.3552 0.60278 0.86988 0.0
C1701 C 0.38751 0.62981 0.88847 0.0
C1702 C 0.35921 0.61428 0.84626 0.0
C1703 C 0.37794 0.63294 0.8435 0.0
H1704 H 0.41396 0.38065 0.91848 0.0
H1705 H 0.39271 0.35074 0.84566 0.0
H1706 H 0.35948 0.3831 0.84177 0.0
H1707 H 0.34133 0.42421 0.85658 0.0
H1708 H 0.36393 0.4532 0.92953 0.0
H1709 H 0.39134 0.41677 0.93616 0.0
C1710 C 0.40156 0.38083 0.90208 0.0
C1711 C 0.40574 0.3636 0.88234 0.0
C1712 C 0.38288 0.39953 0.89993 0.0
C1713 C 0.38963 0.36383 0.86118 0.0
C1714 C 0.37082 0.38246 0.85886 0.0
C1715 C 0.35169 0.42202 0.87417 0.0
C1716 C 0.35095 0.4414 0.89242 0.0
C1717 C 0.3679 0.40104 0.87773 0.0
C1718 C 0.36452 0.43857 0.91513 0.0
C1719 C 0.38023 0.4178 0.91892 0.0
H1720 H 0.6352 0.39147 0.90058 0.0
H1721 H 0.61375 0.42306 0.82832 0.0
H1722 H 0.58423 0.38835 0.8214 0.0
H1723 H 0.55887 0.35405 0.8394 0.0
H1724 H 0.57727 0.32434 0.91295 0.0
H1725 H 0.61412 0.35243 0.91555 0.0
C1726 C 0.62461 0.39031 0.88302 0.0
C1727 C 0.62634 0.41005 0.86521 0.0
C1728 C 0.60706 0.37055 0.87942 0.0
C1729 C 0.61247 0.40832 0.84253 0.0
C1730 C 0.59556 0.38846 0.83852 0.0
C1731 C 0.57168 0.35301 0.85544 0.0
C1732 C 0.56575 0.33707 0.87579 0.0
C1733 C 0.59189 0.37014 0.85731 0.0
C1734 C 0.58195 0.33613 0.89683 0.0
C1735 C 0.60273 0.35252 0.89848 0.0
H1736 H 0.64379 0.57311 0.83884 0.0
H1737 H 0.6733 0.56856 0.91466 0.0
H1738 H 0.64662 0.60419 0.92761 0.0
H1739 H 0.60843 0.62986 0.91928 0.0
H1740 H 0.57883 0.6339 0.84317 0.0
H1741 H 0.61216 0.60568 0.82834 0.0
C1742 C 0.64528 0.58084 0.85783 0.0
C1743 C 0.66057 0.5685 0.87574 0.0
C1744 C 0.6293 0.6008 0.86526 0.0
C1745 C 0.66205 0.57819 0.90045 0.0
C1746 C 0.64642 0.59825 0.90796 0.0
C1747 C 0.60971 0.62515 0.89933 0.0
C1748 C 0.59075 0.63353 0.88254 0.0
C1749 C 0.62894 0.60871 0.89086 0.0
C1750 C 0.59294 0.62756 0.85664 0.0
C1751 C 0.61198 0.61127 0.8481 0.0
H1752 H 0.62606 0.57738 0.14924 0.0
H1753 H 0.6436 0.599 0.0725 0.0
H1754 H 0.61605 0.63617 0.07649 0.0
H1755 H 0.5813 0.65766 0.09943 0.0
H1756 H 0.56357 0.63535 0.17582 0.0
H1757 H 0.59725 0.60352 0.17469 0.0
C1758 C 0.62428 0.59058 0.1336 0.0
C1759 C 0.63643 0.58534 0.11048 0.0
C1760 C 0.60837 0.61171 0.13603 0.0
C1761 C 0.63433 0.60266 0.09044 0.0
C1762 C 0.61848 0.62381 0.09269 0.0
C1763 C 0.58574 0.64665 0.11619 0.0
C1764 C 0.57043 0.64897 0.13784 0.0
C1765 C 0.60467 0.62795 0.11507 0.0
C1766 C 0.57556 0.6341 0.1592 0.0
C1767 C 0.59456 0.61571 0.1584 0.0
H1768 H 0.34557 0.58327 0.1637 0.0
H1769 H 0.35792 0.55867 0.08682 0.0
H1770 H 0.3852 0.59502 0.07896 0.0
H1771 H 0.41151 0.62888 0.09617 0.0
H1772 H 0.40079 0.65385 0.17304 0.0
H1773 H 0.36663 0.62281 0.1787 0.0
C1774 C 0.35353 0.58653 0.14505 0.0
C1775 C 0.34991 0.56845 0.12585 0.0
C1776 C 0.36976 0.60733 0.1408 0.0
C1777 C 0.36055 0.57247 0.10181 0.0
C1778 C 0.37625 0.59314 0.09735 0.0
C1779 C 0.40101 0.6281 0.11385 0.0
C1780 C 0.40848 0.64348 0.13414 0.0
C1781 C 0.38188 0.61 0.117 0.0
C1782 C 0.39504 0.64232 0.15707 0.0
C1783 C 0.37575 0.62436 0.16038 0.0
H1784 H 0.6604 0.41915 0.08445 0.0
H1785 H 0.6634 0.42918 0.1653 0.0
H1786 H 0.63463 0.39332 0.17116 0.0
H1787 H 0.60201 0.36571 0.15256 0.0
H1788 H 0.59852 0.35612 0.07152 0.0
H1789 H 0.63456 0.38473 0.06632 0.0
C1790 C 0.65572 0.41256 0.10335 0.0
C1791 C 0.66407 0.42643 0.12446 0.0
C1792 C 0.63869 0.39239 0.10644 0.0
C1793 C 0.65755 0.41833 0.14889 0.0
C1794 C 0.64078 0.39812 0.15217 0.0
C1795 C 0.60971 0.36927 0.13383 0.0
C1796 C 0.59745 0.3592 0.11241 0.0
C1797 C 0.63022 0.38594 0.13101 0.0
C1798 C 0.60765 0.36368 0.08827 0.0
C1799 C 0.62812 0.38022 0.08529 0.0
H1800 H 0.04492 0.32745 0.46207 0.0
H1801 H 0.05773 0.32434 0.54267 0.0
H1802 H 0.01232 0.32794 0.55054 0.0
H1803 H 0.96859 0.33038 0.53457 0.0
H1804 H 0.95521 0.32909 0.45413 0.0
H1805 H 1.00093 0.32903 0.44603 0.0
C1806 C 0.03767 0.32763 0.4813 0.0
C1807 C 0.05456 0.32549 0.50173 0.0
C1808 C 0.0114 0.329 0.48571 0.0
C1809 C 0.04502 0.32561 0.5266 0.0
C1810 C 0.01908 0.32781 0.53115 0.0
C1811 C 0.97582 0.33041 0.51533 0.0
C1812 C 0.95881 0.33005 0.49496 0.0
C1813 C 0.00205 0.32932 0.51087 0.0
C1814 C 0.96815 0.3295 0.47005 0.0
C1815 C 0.99423 0.32941 0.46544 0.0
H1816 H 0.64195 0.04353 0.50679 0.0
H1817 H 0.72079 0.04839 0.48589 0.0
H1818 H 0.72499 0.00277 0.48873 0.0
H1819 H 0.70689 0.96167 0.49733 0.0
H1820 H 0.62842 0.95494 0.51937 0.0
H1821 H 0.6235 1.00103 0.51606 0.0
C1822 C 0.65995 0.0345 0.50271 0.0
C1823 C 0.68111 0.04946 0.49624 0.0
C1824 C 0.66236 0.00794 0.50477 0.0
C1825 C 0.70435 0.03751 0.49123 0.0
C1826 C 0.70676 0.01133 0.49278 0.0
C1827 C 0.68864 0.9701 0.50157 0.0
C1828 C 0.6681 0.9547 0.50869 0.0
C1829 C 0.68599 0.99641 0.49969 0.0
C1830 C 0.64465 0.96627 0.51401 0.0
C1831 C 0.6418 0.99264 0.512 0.0
H1832 H 0.96174 0.6826 0.53084 0.0
H1833 H 0.95574 0.64566 0.45827 0.0
H1834 H 0.00189 0.64018 0.45698 0.0
H1835 H 0.04426 0.64937 0.47512 0.0
H1836 H 0.04962 0.68478 0.54843 0.0
H1837 H 0.00333 0.68741 0.551 0.0
C1838 C 0.97055 0.67318 0.51484 0.0
C1839 C 0.95551 0.66485 0.49451 0.0
C1840 C 0.99691 0.6699 0.51442 0.0
C1841 C 0.96701 0.65224 0.47411 0.0
C1842 C 0.99336 0.64922 0.47333 0.0
C1843 C 0.03511 0.65712 0.49182 0.0
C1844 C 0.04999 0.66676 0.51166 0.0
C1845 C 0.00853 0.65841 0.49317 0.0
C1846 C 0.0383 0.67702 0.53316 0.0
C1847 C 0.01193 0.67867 0.53453 0.0
H1848 H 0.36394 0.03502 0.49989 0.0
H1849 H 0.28585 0.04198 0.47612 0.0
H1850 H 0.28291 0.99651 0.47116 0.0
H1851 H 0.30136 0.95465 0.47533 0.0
H1852 H 0.37956 0.94609 0.49702 0.0
H1853 H 0.38372 0.99227 0.50053 0.0
C1854 C 0.34631 0.02659 0.49358 0.0
C1855 C 0.325 0.04208 0.48901 0.0
C1856 C 0.34475 1.00012 0.49025 0.0
C1857 C 0.30247 0.03074 0.48033 0.0
C1858 C 0.30073 0.00462 0.47734 0.0
C1859 C 0.31938 0.9628 0.48068 0.0
C1860 C 0.33999 0.94692 0.48617 0.0
C1861 C 0.32159 0.98915 0.48257 0.0
C1862 C 0.36337 0.95791 0.49265 0.0
C1863 C 0.3657 0.9843 0.49482 0.0
H1864 H 0.47905 0.96402 0.30662 0.0
H1865 H 0.53197 0.95635 0.36846 0.0
H1866 H 0.5299 0.0021 0.37599 0.0
H1867 H 0.51487 0.04478 0.36307 0.0
H1868 H 0.46208 0.05141 0.30123 0.0
H1869 H 0.46213 0.00549 0.29569 0.0
C1870 C 0.49017 0.97222 0.32181 0.0
C1871 C 0.5059 0.95669 0.33675 0.0
C1872 C 0.48881 0.9984 0.32606 0.0
C1873 C 0.51982 0.9678 0.35655 0.0
C1874 C 0.51863 0.99399 0.36088 0.0
C1875 C 0.50296 0.03602 0.34884 0.0
C1876 C 0.48838 0.05131 0.33261 0.0
C1877 C 0.50337 0.00953 0.34558 0.0
C1878 C 0.47345 0.03993 0.31384 0.0
C1879 C 0.47353 0.01371 0.31066 0.0
H1880 H 0.94893 0.47792 0.30766 0.0
H1881 H 0.94215 0.51611 0.37931 0.0
H1882 H 0.98862 0.5185 0.38255 0.0
H1883 H 0.03119 0.51265 0.3627 0.0
H1884 H 0.03578 0.47479 0.29014 0.0
H1885 H 0.9903 0.46973 0.28944 0.0
C1886 C 0.9576 0.4868 0.32394 0.0
C1887 C 0.94223 0.49719 0.34294 0.0
C1888 C 0.98402 0.48841 0.32538 0.0
C1889 C 0.95368 0.50792 0.36443 0.0
C1890 C 0.98021 0.50947 0.36615 0.0
C1891 C 0.02224 0.50318 0.34683 0.0
C1892 C 0.03714 0.49449 0.32636 0.0
C1893 C 0.99562 0.50027 0.34639 0.0
C1894 C 0.02507 0.48202 0.30608 0.0
C1895 C 0.99892 0.479 0.30561 0.0
H1896 H 0.48176 0.95968 0.70461 0.0
H1897 H 0.50307 0.95115 0.62629 0.0
H1898 H 0.5092 0.99708 0.62286 0.0
H1899 H 0.51051 0.03947 0.64316 0.0
H1900 H 0.48616 0.04693 0.72095 0.0
H1901 H 0.47965 0.00156 0.72364 0.0
C1902 C 0.48758 0.96781 0.68673 0.0
C1903 C 0.49218 0.95197 0.66584 0.0
C1904 C 0.49091 0.99405 0.68492 0.0
C1905 C 0.49933 0.96293 0.64266 0.0
C1906 C 0.50303 0.98917 0.64076 0.0
C1907 C 0.50383 0.03117 0.6607 0.0
C1908 C 0.49941 0.04671 0.682 0.0
C1909 C 0.49928 0.00489 0.66194 0.0
C1910 C 0.49023 0.03558 0.70439 0.0
C1911 C 0.48631 0.00955 0.70594 0.0
H1912 H 0.96567 0.50726 0.64441 0.0
H1913 H 0.95841 0.51856 0.72492 0.0
H1914 H 0.00425 0.5175 0.72963 0.0
H1915 H 0.04629 0.51175 0.71134 0.0
H1916 H 0.05424 0.49763 0.63116 0.0
H1917 H 0.00834 0.50121 0.62589 0.0
C1918 C 0.97413 0.50967 0.66292 0.0
C1919 C 0.95852 0.51285 0.68433 0.0
C1920 C 1.00067 0.50827 0.66559 0.0
C1921 C 0.96986 0.51581 0.7082 0.0
C1922 C 0.99614 0.51523 0.71091 0.0
C1923 C 0.0381 0.50936 0.69266 0.0
C1924 C 0.05386 0.50424 0.67173 0.0
C1925 C 0.01171 0.51108 0.68981 0.0
C1926 C 0.04267 0.50136 0.6477 0.0
C1927 C 0.01638 0.50351 0.64463 0.0
H1928 H 0.33417 0.47566 0.96534 0.0
H1929 H 0.3289 0.55707 0.96432 0.0
H1930 H 0.3291 0.55799 0.01079 0.0
H1931 H 0.32916 0.53531 0.05163 0.0
H1932 H 0.33854 0.45424 0.05264 0.0
H1933 H 0.33854 0.45335 0.00619 0.0
C1934 C 0.33322 0.49356 0.9754 0.0
C1935 C 0.33129 0.51627 0.96167 0.0
C1936 C 0.33407 0.49393 0.00199 0.0
C1937 C 0.33042 0.53942 0.97466 0.0
C1938 C 0.33045 0.53992 1.00115 0.0
C1939 C 0.33136 0.51751 0.0416 0.0
C1940 C 0.33362 0.49483 0.05535 0.0
C1941 C 0.33202 0.51727 0.015 0.0
C1942 C 0.33681 0.47189 0.04233 0.0
C1943 C 0.33671 0.47139 0.01584 0.0
H1944 H 0.48802 0.36139 0.96803 0.0
H1945 H 0.51513 0.28432 0.96177 0.0
H1946 H 0.5208 0.28222 0.00716 0.0
H1947 H 0.51764 0.30139 0.04872 0.0
H1948 H 0.49233 0.37843 0.05698 0.0
H1949 H 0.48704 0.38168 0.01075 0.0
C1950 C 0.49509 0.34413 0.97662 0.0
C1951 C 0.5006 0.32289 0.96129 0.0
C1952 C 0.49887 0.34309 0.0031 0.0
C1953 C 0.51025 0.30087 0.97285 0.0
C1954 C 0.51366 0.29962 0.99893 0.0
C1955 C 0.51079 0.31884 0.04048 0.0
C1956 C 0.50493 0.33943 0.05623 0.0
C1957 C 0.50788 0.32047 0.0142 0.0
C1958 C 0.49692 0.36227 0.04519 0.0
C1959 C 0.49376 0.36405 0.0188 0.0
H1960 H 0.70215 0.48582 0.95262 0.0
H1961 H 0.62116 0.49397 0.94579 0.0
H1962 H 0.61758 0.49795 0.99196 0.0
H1963 H 0.63803 0.50042 0.03438 0.0
H1964 H 0.7189 0.48885 0.03971 0.0
H1965 H 0.72185 0.48515 0.99409 0.0
C1966 C 0.68363 0.48823 0.9611 0.0
C1967 C 0.662 0.48966 0.94563 0.0
C1968 C 0.68171 0.49023 0.98751 0.0
C1969 C 0.63816 0.49268 0.95719 0.0
C1970 C 0.63612 0.49512 0.98361 0.0
C1971 C 0.65629 0.49719 0.02554 0.0
C1972 C 0.67829 0.49556 0.04066 0.0
C1973 C 0.65785 0.4942 0.99899 0.0
C1974 C 0.70169 0.49077 0.02879 0.0
C1975 C 0.70343 0.48846 0.00257 0.0
H1976 H 0.53755 0.66913 0.96557 0.0
H1977 H 0.45682 0.67683 0.95604 0.0
H1978 H 0.45046 0.67247 0.00159 0.0
H1979 H 0.46797 0.66906 0.04458 0.0
H1980 H 0.54887 0.66702 0.05492 0.0
H1981 H 0.5552 0.66651 0.00891 0.0
C1982 C 0.51862 0.66953 0.97355 0.0
C1983 C 0.49767 0.67297 0.95755 0.0
C1984 C 0.51518 0.66818 0.99997 0.0
C1985 C 0.47321 0.67402 0.96804 0.0
C1986 C 0.46956 0.67159 0.99408 0.0
C1987 C 0.48692 0.66817 0.03664 0.0
C1988 C 0.50792 0.66781 0.05286 0.0
C1989 C 0.4904 0.669 0.01027 0.0
C1990 C 0.53246 0.66724 0.04259 0.0
C1991 C 0.53607 0.66697 0.01635 0.0
H1992 H 0.18857 0.24099 0.52906 0.0
H1993 H 0.2342 0.29938 0.49477 0.0
H1994 H 0.2685 0.26875 0.48788 0.0
H1995 H 0.28426 0.2243 0.48909 0.0
H1996 H 0.23729 0.16691 0.5237 0.0
H1997 H 0.20497 0.1982 0.53283 0.0
C1998 C 0.20606 0.24715 0.52021 0.0
C1999 C 0.20869 0.27242 0.51227 0.0
C2000 C 0.22549 0.22949 0.51615 0.0
C2001 C 0.23166 0.28004 0.50112 0.0
C2002 C 0.25123 0.26248 0.49705 0.0
C2003 C 0.26706 0.21872 0.49881 0.0
C2004 C 0.26323 0.1931 0.50534 0.0
C2005 C 0.2482 0.23699 0.50409 0.0
C2006 C 0.24079 0.18632 0.51808 0.0
C2007 C 0.22219 0.20424 0.52341 0.0
H2008 H 0.76503 0.18344 0.51938 0.0
H2009 H 0.70475 0.23148 0.49238 0.0
H2010 H 0.73479 0.26671 0.48789 0.0
H2011 H 0.77914 0.28294 0.48937 0.0
H2012 H 0.83838 0.23317 0.5162 0.0
H2013 H 0.80778 0.19966 0.52281 0.0
C2014 C 0.75832 0.2016 0.51254 0.0
C2015 C 0.7327 0.20469 0.50599 0.0
C2016 C 0.77563 0.2215 0.50979 0.0
C2017 C 0.72438 0.22855 0.49757 0.0
C2018 C 0.7416 0.24866 0.49488 0.0
C2019 C 0.78528 0.26481 0.4968 0.0
C2020 C 0.81118 0.26064 0.50198 0.0
C2021 C 0.76742 0.24525 0.50058 0.0
C2022 C 0.81872 0.237 0.51173 0.0
C2023 C 0.8012 0.21772 0.5156 0.0
H2024 H 0.78559 0.72802 0.4985 0.0
H2025 H 0.8455 0.78183 0.51278 0.0
H2026 H 0.8155 0.81663 0.50951 0.0
H2027 H 0.77265 0.83213 0.50214 0.0
H2028 H 0.71219 0.77926 0.48707 0.0
H2029 H 0.74198 0.7439 0.49103 0.0
C2030 C 0.79202 0.74735 0.50105 0.0
C2031 C 0.81783 0.75221 0.5059 0.0
C2032 C 0.7746 0.76752 0.49887 0.0
C2033 C 0.82584 0.77744 0.50894 0.0
C2034 C 0.80867 0.79743 0.50708 0.0
C2035 C 0.76589 0.8129 0.49969 0.0
C2036 C 0.74016 0.80845 0.49426 0.0
C2037 C 0.78307 0.79273 0.50193 0.0
C2038 C 0.73189 0.78332 0.49116 0.0
C2039 C 0.74892 0.76306 0.49348 0.0
H2040 H 0.22218 0.72153 0.50016 0.0
H2041 H 0.16277 0.77435 0.48083 0.0
H2042 H 0.19224 0.80949 0.48469 0.0
H2043 H 0.23435 0.82556 0.49411 0.0
H2044 H 0.29439 0.77381 0.5141 0.0
H2045 H 0.2652 0.73803 0.50955 0.0
C2046 C 0.21578 0.74071 0.4966 0.0
C2047 C 0.19025 0.74523 0.49021 0.0
C2048 C 0.23287 0.76109 0.49916 0.0
C2049 C 0.18223 0.77026 0.48589 0.0
C2050 C 0.19908 0.79044 0.48809 0.0
C2051 C 0.24116 0.80649 0.49754 0.0
C2052 C 0.26656 0.80246 0.50454 0.0
C2053 C 0.22435 0.78611 0.49488 0.0
C2054 C 0.27491 0.77753 0.50883 0.0
C2055 C 0.25824 0.75704 0.50615 0.0
H2056 H 0.49599 0.18054 0.24328 0.0
H2057 H 0.53273 0.2271 0.2995 0.0
H2058 H 0.52951 0.26385 0.27125 0.0
H2059 H 0.51719 0.28238 0.22966 0.0
H2060 H 0.48048 0.23443 0.17443 0.0
H2061 H 0.48271 0.19877 0.2033 0.0
C2062 C 0.5034 0.19867 0.24947 0.0
C2063 C 0.51481 0.20093 0.27344 0.0
C2064 C 0.50143 0.21958 0.23325 0.0
C2065 C 0.52397 0.22474 0.2811 0.0
C2066 C 0.5221 0.24578 0.26495 0.0
C2067 C 0.50947 0.26418 0.22409 0.0
C2068 C 0.49882 0.26115 0.19977 0.0
C2069 C 0.51096 0.2434 0.24087 0.0
C2070 C 0.48901 0.23737 0.19286 0.0
C2071 C 0.49024 0.21687 0.20938 0.0
H2072 H 0.77146 0.50217 0.27913 0.0
H2073 H 0.83223 0.5254 0.22953 0.0
H2074 H 0.80455 0.52128 0.19301 0.0
H2075 H 0.76395 0.50961 0.17468 0.0
H2076 H 0.70264 0.48551 0.22307 0.0
H2077 H 0.72959 0.49153 0.26039 0.0
C2078 C 0.77851 0.50658 0.26035 0.0
C2079 C 0.80398 0.51399 0.25715 0.0
C2080 C 0.76246 0.50387 0.23913 0.0
C2081 C 0.81284 0.51947 0.23263 0.0
C2082 C 0.797 0.51713 0.21165 0.0
C2083 C 0.75634 0.50568 0.19336 0.0
C2084 C 0.73129 0.49694 0.19596 0.0
C2085 C 0.77192 0.50904 0.21462 0.0
C2086 C 0.72187 0.49214 0.22043 0.0
C2087 C 0.73729 0.4956 0.2418 0.0
H2088 H 0.50817 0.76732 0.17616 0.0
H2089 H 0.50625 0.70772 0.23201 0.0
H2090 H 0.50095 0.73929 0.26566 0.0
H2091 H 0.49711 0.78415 0.27916 0.0
H2092 H 0.4998 0.84298 0.22239 0.0
H2093 H 0.50449 0.81132 0.18928 0.0
C2094 C 0.5066 0.7611 0.19566 0.0
C2095 C 0.50764 0.73511 0.20147 0.0
C2096 C 0.50365 0.77928 0.21483 0.0
C2097 C 0.50558 0.72758 0.22694 0.0
C2098 C 0.50251 0.74564 0.2462 0.0
C2099 C 0.49862 0.79001 0.25953 0.0
C2100 C 0.49807 0.81599 0.25337 0.0
C2101 C 0.50153 0.77159 0.24038 0.0
C2102 C 0.50022 0.82321 0.22781 0.0
C2103 C 0.5029 0.80509 0.20878 0.0
H2104 H 0.21742 0.50078 0.28121 0.0
H2105 H 0.15804 0.50663 0.22519 0.0
H2106 H 0.18926 0.51178 0.19199 0.0
H2107 H 0.23311 0.51399 0.17818 0.0
H2108 H 0.2935 0.50878 0.23294 0.0
H2109 H 0.26231 0.50422 0.26708 0.0
C2110 C 0.21134 0.5032 0.26175 0.0
C2111 C 0.18525 0.50315 0.2559 0.0
C2112 C 0.22959 0.50633 0.24239 0.0
C2113 C 0.17783 0.50648 0.23049 0.0
C2114 C 0.19573 0.50946 0.21133 0.0
C2115 C 0.23957 0.51191 0.19757 0.0
C2116 C 0.26568 0.51167 0.20289 0.0
C2117 C 0.22161 0.50931 0.21701 0.0
C2118 C 0.27353 0.5091 0.22823 0.0
C2119 C 0.25568 0.50641 0.24778 0.0
H2120 H 0.50389 0.72561 0.78238 0.0
H2121 H 0.48061 0.77861 0.84028 0.0
H2122 H 0.48492 0.81346 0.81069 0.0
H2123 H 0.49566 0.82933 0.76897 0.0
H2124 H 0.51921 0.77763 0.71015 0.0
H2125 H 0.51449 0.74197 0.7395 0.0
C2126 C 0.49962 0.74476 0.78842 0.0
C2127 C 0.49199 0.74938 0.81361 0.0
C2128 C 0.50231 0.76503 0.77122 0.0
C2129 C 0.48666 0.77439 0.82114 0.0
C2130 C 0.4891 0.79443 0.80421 0.0
C2131 C 0.49985 0.8103 0.76245 0.0
C2132 C 0.5079 0.80624 0.73737 0.0
C2133 C 0.49705 0.79001 0.77931 0.0
C2134 C 0.5131 0.78136 0.72938 0.0
C2135 C 0.51034 0.76094 0.74615 0.0
H2136 H 0.28347 0.51061 0.78497 0.0
H2137 H 0.23204 0.48356 0.84257 0.0
H2138 H 0.19687 0.48637 0.81308 0.0
H2139 H 0.18012 0.49758 0.77164 0.0
H2140 H 0.23049 0.52466 0.71325 0.0
H2141 H 0.26649 0.5207 0.74227 0.0
C2142 C 0.26461 0.50512 0.79098 0.0
C2143 C 0.26052 0.497 0.8161 0.0
C2144 C 0.24416 0.50693 0.77382 0.0
C2145 C 0.23586 0.49006 0.82351 0.0
C2146 C 0.21564 0.49165 0.80662 0.0
C2147 C 0.19894 0.50267 0.76515 0.0
C2148 C 0.20248 0.51161 0.7403 0.0
C2149 C 0.21949 0.50031 0.78186 0.0
C2150 C 0.22713 0.51784 0.7323 0.0
C2151 C 0.24776 0.51556 0.7489 0.0
H2152 H 0.47786 0.18415 0.76149 0.0
H2153 H 0.51868 0.22775 0.70583 0.0
H2154 H 0.52272 0.2628 0.73618 0.0
H2155 H 0.51679 0.27985 0.77985 0.0
H2156 H 0.47551 0.23483 0.83436 0.0
H2157 H 0.46964 0.20171 0.80315 0.0
C2158 C 0.4876 0.20133 0.75587 0.0
C2159 C 0.49819 0.20318 0.73151 0.0
C2160 C 0.48991 0.22119 0.77334 0.0
C2161 C 0.51035 0.2258 0.72448 0.0
C2162 C 0.51276 0.24581 0.74188 0.0
C2163 C 0.50633 0.2629 0.78479 0.0
C2164 C 0.49692 0.25986 0.80964 0.0
C2165 C 0.50294 0.24357 0.76657 0.0
C2166 C 0.48329 0.23774 0.81559 0.0
C2167 C 0.47984 0.21868 0.79771 0.0
H2168 H 0.75785 0.4817 0.81681 0.0
H2169 H 0.71001 0.5327 0.77454 0.0
H2170 H 0.73936 0.53064 0.73863 0.0
H2171 H 0.77993 0.51604 0.72012 0.0
H2172 H 0.827 0.46461 0.7629 0.0
H2173 H 0.79652 0.46504 0.79749 0.0
C2174 C 0.75377 0.49239 0.79975 0.0
C2175 C 0.73187 0.50759 0.79854 0.0
C2176 C 0.77061 0.49101 0.77917 0.0
C2177 C 0.72677 0.52095 0.77608 0.0
C2178 C 0.74356 0.51978 0.75552 0.0
C2179 C 0.78336 0.50464 0.73685 0.0
C2180 C 0.80595 0.49048 0.73886 0.0
C2181 C 0.76572 0.50507 0.75694 0.0
C2182 C 0.80998 0.47587 0.76079 0.0
C2183 C 0.79255 0.47612 0.78068 0.0
loop_
_geom_bond_atom_site_label_1
_geom_bond_atom_site_label_2
_geom_bond_distance
_geom_bond_site_symmetry_2
_ccdc_geom_bond_type
Co0 O2 2.143 . S
Co0 O8 2.074 . S
Co0 O11 2.093 . S
Co0 O24 2.097 . S
Co0 N41 2.151 . S
Co0 N49 2.214 . S
Co1 O2 2.160 . S
Co1 O7 2.058 . S
Co1 O17 2.057 . S
Co1 O32 2.037 . S
Co1 N36 2.145 . S
Co1 N57 2.257 . S
O2 Co0 2.143 . S
O2 Co1 2.160 . S
C3 O4 1.278 . S
C3 O11 1.224 . S
O4 C3 1.278 . S
C5 O6 1.245 . S
C5 O17 1.232 . S
O6 C5 1.245 . S
O7 Co1 2.058 . S
O7 C33 1.269 . S
O8 Co0 2.074 . S
O8 C33 1.257 . S
H9 C34 0.930 . S
H10 C40 0.930 . S
O11 Co0 2.093 . S
O11 C3 1.224 . S
H12 C44 0.929 . S
H13 C46 0.930 . S
H14 C47 0.930 . S
H15 C45 0.929 . S
H16 C48 0.928 . S
O17 Co1 2.057 . S
O17 C5 1.232 . S
H18 C37 0.929 . S
H19 C38 0.929 . S
H20 C50 0.931 . S
H21 C42 0.929 . S
H22 C51 0.930 . S
H23 C43 0.931 . S
O24 Co0 2.097 . S
O24 C52 1.214 . S
H25 C53 0.929 . S
H26 C54 0.929 . S
H27 C55 0.930 . S
H28 C56 0.929 . S
H29 C58 0.930 . S
H30 C35 0.930 . S
H31 C39 0.930 . S
O32 Co1 2.037 . S
O32 C52 1.234 . S
C33 O7 1.269 . S
C33 O8 1.257 . S
C34 H9 0.930 . S
C34 C37 1.388 . S
C34 C39 1.418 . S
C35 H30 0.930 . S
C35 C38 1.404 . S
C35 C39 1.353 . S
N36 Co1 2.145 . S
N36 C37 1.397 . S
N36 C38 1.334 . S
C37 H18 0.929 . S
C37 C34 1.388 . S
C37 N36 1.397 . S
C38 H19 0.929 . S
C38 C35 1.404 . S
C38 N36 1.334 . S
C39 H31 0.930 . S
C39 C34 1.418 . S
C39 C35 1.353 . S
C40 H10 0.930 . S
C40 N41 1.330 . S
C40 C42 1.446 . S
N41 Co0 2.151 . S
N41 C40 1.330 . S
N41 C45 1.418 . S
C42 H21 0.929 . S
C42 C40 1.446 . S
C42 C43 1.332 . S
C43 H23 0.931 . S
C43 C42 1.332 . S
C43 C44 1.267 . S
C44 H12 0.929 . S
C44 C43 1.267 . S
C44 C45 1.251 . S
C45 H15 0.929 . S
C45 N41 1.418 . S
C45 C44 1.251 . S
C46 H13 0.930 . S
C46 C48 1.406 . S
C46 C51 1.261 . S
C47 H14 0.930 . S
C47 N49 1.325 . S
C47 C50 1.357 . S
C48 H16 0.928 . S
C48 C46 1.406 . S
C48 N49 1.261 . S
N49 Co0 2.214 . S
N49 C47 1.325 . S
N49 C48 1.261 . S
C50 H20 0.931 . S
C50 C47 1.357 . S
C50 C51 1.312 . S
C51 H22 0.930 . S
C51 C46 1.261 . S
C51 C50 1.312 . S
C52 O24 1.214 . S
C52 O32 1.234 . S
C53 H25 0.929 . S
C53 C56 1.391 . S
C53 C58 1.391 . S
C54 H26 0.929 . S
C54 C55 1.390 . S
C54 N57 1.391 . S
C55 H27 0.930 . S
C55 C54 1.390 . S
C55 C56 1.392 . S
C56 H28 0.929 . S
C56 C53 1.391 . S
C56 C55 1.392 . S
N57 Co1 2.257 . S
N57 C54 1.391 . S
N57 C58 1.388 . S
C58 H29 0.930 . S
C58 C53 1.391 . S
C58 N57 1.388 . S
Co59 O61 2.143 . S
Co59 O67 2.074 . S
Co59 O70 2.093 . S
Co59 O83 2.097 . S
Co59 N100 2.151 . S
Co59 N108 2.214 . S
Co60 O61 2.160 . S
Co60 O66 2.058 . S
Co60 O76 2.057 . S
Co60 O91 2.037 . S
Co60 N95 2.145 . S
Co60 N116 2.257 . S
O61 Co59 2.143 . S
O61 Co60 2.160 . S
C62 O63 1.278 . S
C62 O70 1.224 . S
O63 C62 1.278 . S
C64 O65 1.245 . S
C64 O76 1.232 . S
O65 C64 1.245 . S
O66 Co60 2.058 . S
O66 C92 1.269 . S
O67 Co59 2.074 . S
O67 C92 1.257 . S
H68 C93 0.930 . S
H69 C99 0.930 . S
O70 Co59 2.093 . S
O70 C62 1.224 . S
H71 C103 0.929 . S
H72 C105 0.930 . S
H73 C106 0.930 . S
H74 C104 0.929 . S
H75 C107 0.928 . S
O76 Co60 2.057 . S
O76 C64 1.232 . S
H77 C96 0.929 . S
H78 C97 0.929 . S
H79 C109 0.931 . S
H80 C101 0.929 . S
H81 C110 0.930 . S
H82 C102 0.931 . S
O83 Co59 2.097 . S
O83 C111 1.214 . S
H84 C112 0.929 . S
H85 C113 0.929 . S
H86 C114 0.930 . S
H87 C115 0.929 . S
H88 C117 0.930 . S
H89 C94 0.930 . S
H90 C98 0.930 . S
O91 Co60 2.037 . S
O91 C111 1.234 . S
C92 O66 1.269 . S
C92 O67 1.257 . S
C93 H68 0.930 . S
C93 C96 1.388 . S
C93 C98 1.418 . S
C94 H89 0.930 . S
C94 C97 1.404 . S
C94 C98 1.353 . S
N95 Co60 2.145 . S
N95 C96 1.397 . S
N95 C97 1.334 . S
C96 H77 0.929 . S
C96 C93 1.388 . S
C96 N95 1.397 . S
C97 H78 0.929 . S
C97 C94 1.404 . S
C97 N95 1.334 . S
C98 H90 0.930 . S
C98 C93 1.418 . S
C98 C94 1.353 . S
C99 H69 0.930 . S
C99 N100 1.330 . S
C99 C101 1.446 . S
N100 Co59 2.151 . S
N100 C99 1.330 . S
N100 C104 1.418 . S
C101 H80 0.929 . S
C101 C99 1.446 . S
C101 C102 1.332 . S
C102 H82 0.931 . S
C102 C101 1.332 . S
C102 C103 1.267 . S
C103 H71 0.929 . S
C103 C102 1.267 . S
C103 C104 1.251 . S
C104 H74 0.929 . S
C104 N100 1.418 . S
C104 C103 1.251 . S
C105 H72 0.930 . S
C105 C107 1.406 . S
C105 C110 1.261 . S
C106 H73 0.930 . S
C106 N108 1.325 . S
C106 C109 1.357 . S
C107 H75 0.928 . S
C107 C105 1.406 . S
C107 N108 1.261 . S
N108 Co59 2.214 . S
N108 C106 1.325 . S
N108 C107 1.261 . S
C109 H79 0.931 . S
C109 C106 1.357 . S
C109 C110 1.312 . S
C110 H81 0.930 . S
C110 C105 1.261 . S
C110 C109 1.312 . S
C111 O83 1.214 . S
C111 O91 1.234 . S
C112 H84 0.929 . S
C112 C115 1.391 . S
C112 C117 1.391 . S
C113 H85 0.929 . S
C113 C114 1.390 . S
C113 N116 1.391 . S
C114 H86 0.930 . S
C114 C113 1.390 . S
C114 C115 1.392 . S
C115 H87 0.929 . S
C115 C112 1.391 . S
C115 C114 1.392 . S
N116 Co60 2.257 . S
N116 C113 1.391 . S
N116 C117 1.388 . S
C117 H88 0.930 . S
C117 C112 1.391 . S
C117 N116 1.388 . S
Co118 O120 2.143 . S
Co118 O126 2.074 . S
Co118 O129 2.093 . S
Co118 O142 2.097 . S
Co118 N159 2.151 . S
Co118 N167 2.214 . S
Co119 O120 2.160 . S
Co119 O125 2.058 . S
Co119 O135 2.057 . S
Co119 O150 2.037 . S
Co119 N154 2.145 . S
Co119 N175 2.257 . S
O120 Co118 2.143 . S
O120 Co119 2.160 . S
C121 O122 1.278 . S
C121 O129 1.224 . S
O122 C121 1.278 . S
C123 O124 1.245 . S
C123 O135 1.232 . S
O124 C123 1.245 . S
O125 Co119 2.058 . S
O125 C151 1.269 . S
O126 Co118 2.074 . S
O126 C151 1.257 . S
H127 C152 0.930 . S
H128 C158 0.930 . S
O129 Co118 2.093 . S
O129 C121 1.224 . S
H130 C162 0.929 . S
H131 C164 0.930 . S
H132 C165 0.930 . S
H133 C163 0.929 . S
H134 C166 0.928 . S
O135 Co119 2.057 . S
O135 C123 1.232 . S
H136 C155 0.929 . S
H137 C156 0.929 . S
H138 C168 0.931 . S
H139 C160 0.929 . S
H140 C169 0.930 . S
H141 C161 0.931 . S
O142 Co118 2.097 . S
O142 C170 1.214 . S
H143 C171 0.929 . S
H144 C172 0.929 . S
H145 C173 0.930 . S
H146 C174 0.929 . S
H147 C176 0.930 . S
H148 C153 0.930 . S
H149 C157 0.930 . S
O150 Co119 2.037 . S
O150 C170 1.234 . S
C151 O125 1.269 . S
C151 O126 1.257 . S
C152 H127 0.930 . S
C152 C155 1.388 . S
C152 C157 1.418 . S
C153 H148 0.930 . S
C153 C156 1.404 . S
C153 C157 1.353 . S
N154 Co119 2.145 . S
N154 C155 1.397 . S
N154 C156 1.334 . S
C155 H136 0.929 . S
C155 C152 1.388 . S
C155 N154 1.397 . S
C156 H137 0.929 . S
C156 C153 1.404 . S
C156 N154 1.334 . S
C157 H149 0.930 . S
C157 C152 1.418 . S
C157 C153 1.353 . S
C158 H128 0.930 . S
C158 N159 1.330 . S
C158 C160 1.446 . S
N159 Co118 2.151 . S
N159 C158 1.330 . S
N159 C163 1.418 . S
C160 H139 0.929 . S
C160 C158 1.446 . S
C160 C161 1.332 . S
C161 H141 0.931 . S
C161 C160 1.332 . S
C161 C162 1.267 . S
C162 H130 0.929 . S
C162 C161 1.267 . S
C162 C163 1.251 . S
C163 H133 0.929 . S
C163 N159 1.418 . S
C163 C162 1.251 . S
C164 H131 0.930 . S
C164 C166 1.406 . S
C164 C169 1.261 . S
C165 H132 0.930 . S
C165 N167 1.325 . S
C165 C168 1.357 . S
C166 H134 0.928 . S
C166 C164 1.406 . S
C166 N167 1.261 . S
N167 Co118 2.214 . S
N167 C165 1.325 . S
N167 C166 1.261 . S
C168 H138 0.931 . S
C168 C165 1.357 . S
C168 C169 1.312 . S
C169 H140 0.930 . S
C169 C164 1.261 . S
C169 C168 1.312 . S
C170 O142 1.214 . S
C170 O150 1.234 . S
C171 H143 0.929 . S
C171 C174 1.391 . S
C171 C176 1.391 . S
C172 H144 0.929 . S
C172 C173 1.390 . S
C172 N175 1.391 . S
C173 H145 0.930 . S
C173 C172 1.390 . S
C173 C174 1.392 . S
C174 H146 0.929 . S
C174 C171 1.391 . S
C174 C173 1.392 . S
N175 Co119 2.257 . S
N175 C172 1.391 . S
N175 C176 1.388 . S
C176 H147 0.930 . S
C176 C171 1.391 . S
C176 N175 1.388 . S
Co177 O179 2.143 . S
Co177 O185 2.074 . S
Co177 O188 2.093 . S
Co177 O201 2.097 . S
Co177 N218 2.151 . S
Co177 N226 2.214 . S
Co178 O179 2.160 . S
Co178 O184 2.058 . S
Co178 O194 2.057 . S
Co178 O209 2.037 . S
Co178 N213 2.145 . S
Co178 N234 2.257 . S
O179 Co177 2.143 . S
O179 Co178 2.160 . S
C180 O181 1.278 . S
C180 O188 1.224 . S
O181 C180 1.278 . S
C182 O183 1.245 . S
C182 O194 1.232 . S
O183 C182 1.245 . S
O184 Co178 2.058 . S
O184 C210 1.269 . S
O185 Co177 2.074 . S
O185 C210 1.257 . S
H186 C211 0.930 . S
H187 C217 0.930 . S
O188 Co177 2.093 . S
O188 C180 1.224 . S
H189 C221 0.929 . S
H190 C223 0.930 . S
H191 C224 0.930 . S
H192 C222 0.929 . S
H193 C225 0.928 . S
O194 Co178 2.057 . S
O194 C182 1.232 . S
H195 C214 0.929 . S
H196 C215 0.929 . S
H197 C227 0.931 . S
H198 C219 0.929 . S
H199 C228 0.930 . S
H200 C220 0.931 . S
O201 Co177 2.097 . S
O201 C229 1.214 . S
H202 C230 0.929 . S
H203 C231 0.929 . S
H204 C232 0.930 . S
H205 C233 0.929 . S
H206 C235 0.930 . S
H207 C212 0.930 . S
H208 C216 0.930 . S
O209 Co178 2.037 . S
O209 C229 1.234 . S
C210 O184 1.269 . S
C210 O185 1.257 . S
C211 H186 0.930 . S
C211 C214 1.388 . S
C211 C216 1.418 . S
C212 H207 0.930 . S
C212 C215 1.404 . S
C212 C216 1.353 . S
N213 Co178 2.145 . S
N213 C214 1.397 . S
N213 C215 1.334 . S
C214 H195 0.929 . S
C214 C211 1.388 . S
C214 N213 1.397 . S
C215 H196 0.929 . S
C215 C212 1.404 . S
C215 N213 1.334 . S
C216 H208 0.930 . S
C216 C211 1.418 . S
C216 C212 1.353 . S
C217 H187 0.930 . S
C217 N218 1.330 . S
C217 C219 1.446 . S
N218 Co177 2.151 . S
N218 C217 1.330 . S
N218 C222 1.418 . S
C219 H198 0.929 . S
C219 C217 1.446 . S
C219 C220 1.332 . S
C220 H200 0.931 . S
C220 C219 1.332 . S
C220 C221 1.267 . S
C221 H189 0.929 . S
C221 C220 1.267 . S
C221 C222 1.251 . S
C222 H192 0.929 . S
C222 N218 1.418 . S
C222 C221 1.251 . S
C223 H190 0.930 . S
C223 C225 1.406 . S
C223 C228 1.261 . S
C224 H191 0.930 . S
C224 N226 1.325 . S
C224 C227 1.357 . S
C225 H193 0.928 . S
C225 C223 1.406 . S
C225 N226 1.261 . S
N226 Co177 2.214 . S
N226 C224 1.325 . S
N226 C225 1.261 . S
C227 H197 0.931 . S
C227 C224 1.357 . S
C227 C228 1.312 . S
C228 H199 0.930 . S
C228 C223 1.261 . S
C228 C227 1.312 . S
C229 O201 1.214 . S
C229 O209 1.234 . S
C230 H202 0.929 . S
C230 C233 1.391 . S
C230 C235 1.391 . S
C231 H203 0.929 . S
C231 C232 1.390 . S
C231 N234 1.391 . S
C232 H204 0.930 . S
C232 C231 1.390 . S
C232 C233 1.392 . S
C233 H205 0.929 . S
C233 C230 1.391 . S
C233 C232 1.392 . S
N234 Co178 2.257 . S
N234 C231 1.391 . S
N234 C235 1.388 . S
C235 H206 0.930 . S
C235 C230 1.391 . S
C235 N234 1.388 . S
Co236 O238 2.143 . S
Co236 O244 2.074 . S
Co236 O247 2.093 . S
Co236 O260 2.097 . S
Co236 N277 2.151 . S
Co236 N285 2.214 . S
Co237 O238 2.160 . S
Co237 O243 2.058 . S
Co237 O253 2.057 . S
Co237 O268 2.037 . S
Co237 N272 2.145 . S
Co237 N293 2.257 . S
O238 Co236 2.143 . S
O238 Co237 2.160 . S
C239 O240 1.278 . S
C239 O247 1.224 . S
O240 C239 1.278 . S
C241 O242 1.245 . S
C241 O253 1.232 . S
O242 C241 1.245 . S
O243 Co237 2.058 . S
O243 C269 1.269 . S
O244 Co236 2.074 . S
O244 C269 1.257 . S
H245 C270 0.930 . S
H246 C276 0.930 . S
O247 Co236 2.093 . S
O247 C239 1.224 . S
H248 C280 0.929 . S
H249 C282 0.930 . S
H250 C283 0.930 . S
H251 C281 0.929 . S
H252 C284 0.928 . S
O253 Co237 2.057 . S
O253 C241 1.232 . S
H254 C273 0.929 . S
H255 C274 0.929 . S
H256 C286 0.931 . S
H257 C278 0.929 . S
H258 C287 0.930 . S
H259 C279 0.931 . S
O260 Co236 2.097 . S
O260 C288 1.214 . S
H261 C289 0.929 . S
H262 C290 0.929 . S
H263 C291 0.930 . S
H264 C292 0.929 . S
H265 C294 0.930 . S
H266 C271 0.930 . S
H267 C275 0.930 . S
O268 Co237 2.037 . S
O268 C288 1.234 . S
C269 O243 1.269 . S
C269 O244 1.257 . S
C270 H245 0.930 . S
C270 C273 1.388 . S
C270 C275 1.418 . S
C271 H266 0.930 . S
C271 C274 1.404 . S
C271 C275 1.353 . S
N272 Co237 2.145 . S
N272 C273 1.397 . S
N272 C274 1.334 . S
C273 H254 0.929 . S
C273 C270 1.388 . S
C273 N272 1.397 . S
C274 H255 0.929 . S
C274 C271 1.404 . S
C274 N272 1.334 . S
C275 H267 0.930 . S
C275 C270 1.418 . S
C275 C271 1.353 . S
C276 H246 0.930 . S
C276 N277 1.330 . S
C276 C278 1.446 . S
N277 Co236 2.151 . S
N277 C276 1.330 . S
N277 C281 1.418 . S
C278 H257 0.929 . S
C278 C276 1.446 . S
C278 C279 1.332 . S
C279 H259 0.931 . S
C279 C278 1.332 . S
C279 C280 1.267 . S
C280 H248 0.929 . S
C280 C279 1.267 . S
C280 C281 1.251 . S
C281 H251 0.929 . S
C281 N277 1.418 . S
C281 C280 1.251 . S
C282 H249 0.930 . S
C282 C284 1.406 . S
C282 C287 1.261 . S
C283 H250 0.930 . S
C283 N285 1.325 . S
C283 C286 1.357 . S
C284 H252 0.928 . S
C284 C282 1.406 . S
C284 N285 1.261 . S
N285 Co236 2.214 . S
N285 C283 1.325 . S
N285 C284 1.261 . S
C286 H256 0.931 . S
C286 C283 1.357 . S
C286 C287 1.312 . S
C287 H258 0.930 . S
C287 C282 1.261 . S
C287 C286 1.312 . S
C288 O260 1.214 . S
C288 O268 1.234 . S
C289 H261 0.929 . S
C289 C292 1.391 . S
C289 C294 1.391 . S
C290 H262 0.929 . S
C290 C291 1.390 . S
C290 N293 1.391 . S
C291 H263 0.930 . S
C291 C290 1.390 . S
C291 C292 1.392 . S
C292 H264 0.929 . S
C292 C289 1.391 . S
C292 C291 1.392 . S
N293 Co237 2.257 . S
N293 C290 1.391 . S
N293 C294 1.388 . S
C294 H265 0.930 . S
C294 C289 1.391 . S
C294 N293 1.388 . S
Co295 O297 2.143 . S
Co295 O303 2.074 . S
Co295 O306 2.093 . S
Co295 O319 2.097 . S
Co295 N336 2.151 . S
Co295 N344 2.214 . S
Co296 O297 2.160 . S
Co296 O302 2.058 . S
Co296 O312 2.057 . S
Co296 O327 2.037 . S
Co296 N331 2.145 . S
Co296 N352 2.257 . S
O297 Co295 2.143 . S
O297 Co296 2.160 . S
C298 O299 1.278 . S
C298 O306 1.224 . S
O299 C298 1.278 . S
C300 O301 1.245 . S
C300 O312 1.232 . S
O301 C300 1.245 . S
O302 Co296 2.058 . S
O302 C328 1.269 . S
O303 Co295 2.074 . S
O303 C328 1.257 . S
H304 C329 0.930 . S
H305 C335 0.930 . S
O306 Co295 2.093 . S
O306 C298 1.224 . S
H307 C339 0.929 . S
H308 C341 0.930 . S
H309 C342 0.930 . S
H310 C340 0.929 . S
H311 C343 0.928 . S
O312 Co296 2.057 . S
O312 C300 1.232 . S
H313 C332 0.929 . S
H314 C333 0.929 . S
H315 C345 0.931 . S
H316 C337 0.929 . S
H317 C346 0.930 . S
H318 C338 0.931 . S
O319 Co295 2.097 . S
O319 C347 1.214 . S
H320 C348 0.929 . S
H321 C349 0.929 . S
H322 C350 0.930 . S
H323 C351 0.929 . S
H324 C353 0.930 . S
H325 C330 0.930 . S
H326 C334 0.930 . S
O327 Co296 2.037 . S
O327 C347 1.234 . S
C328 O302 1.269 . S
C328 O303 1.257 . S
C329 H304 0.930 . S
C329 C332 1.388 . S
C329 C334 1.418 . S
C330 H325 0.930 . S
C330 C333 1.404 . S
C330 C334 1.353 . S
N331 Co296 2.145 . S
N331 C332 1.397 . S
N331 C333 1.334 . S
C332 H313 0.929 . S
C332 C329 1.388 . S
C332 N331 1.397 . S
C333 H314 0.929 . S
C333 C330 1.404 . S
C333 N331 1.334 . S
C334 H326 0.930 . S
C334 C329 1.418 . S
C334 C330 1.353 . S
C335 H305 0.930 . S
C335 N336 1.330 . S
C335 C337 1.446 . S
N336 Co295 2.151 . S
N336 C335 1.330 . S
N336 C340 1.418 . S
C337 H316 0.929 . S
C337 C335 1.446 . S
C337 C338 1.332 . S
C338 H318 0.931 . S
C338 C337 1.332 . S
C338 C339 1.267 . S
C339 H307 0.929 . S
C339 C338 1.267 . S
C339 C340 1.251 . S
C340 H310 0.929 . S
C340 N336 1.418 . S
C340 C339 1.251 . S
C341 H308 0.930 . S
C341 C343 1.406 . S
C341 C346 1.261 . S
C342 H309 0.930 . S
C342 N344 1.325 . S
C342 C345 1.357 . S
C343 H311 0.928 . S
C343 C341 1.406 . S
C343 N344 1.261 . S
N344 Co295 2.214 . S
N344 C342 1.325 . S
N344 C343 1.261 . S
C345 H315 0.931 . S
C345 C342 1.357 . S
C345 C346 1.312 . S
C346 H317 0.930 . S
C346 C341 1.261 . S
C346 C345 1.312 . S
C347 O319 1.214 . S
C347 O327 1.234 . S
C348 H320 0.929 . S
C348 C351 1.391 . S
C348 C353 1.391 . S
C349 H321 0.929 . S
C349 C350 1.390 . S
C349 N352 1.391 . S
C350 H322 0.930 . S
C350 C349 1.390 . S
C350 C351 1.392 . S
C351 H323 0.929 . S
C351 C348 1.391 . S
C351 C350 1.392 . S
N352 Co296 2.257 . S
N352 C349 1.391 . S
N352 C353 1.388 . S
C353 H324 0.930 . S
C353 C348 1.391 . S
C353 N352 1.388 . S
Co354 O356 2.143 . S
Co354 O362 2.074 . S
Co354 O365 2.093 . S
Co354 O378 2.097 . S
Co354 N395 2.151 . S
Co354 N403 2.214 . S
Co355 O356 2.160 . S
Co355 O361 2.058 . S
Co355 O371 2.057 . S
Co355 O386 2.037 . S
Co355 N390 2.145 . S
Co355 N411 2.257 . S
O356 Co354 2.143 . S
O356 Co355 2.160 . S
C357 O358 1.278 . S
C357 O365 1.224 . S
O358 C357 1.278 . S
C359 O360 1.245 . S
C359 O371 1.232 . S
O360 C359 1.245 . S
O361 Co355 2.058 . S
O361 C387 1.269 . S
O362 Co354 2.074 . S
O362 C387 1.257 . S
H363 C388 0.930 . S
H364 C394 0.930 . S
O365 Co354 2.093 . S
O365 C357 1.224 . S
H366 C398 0.929 . S
H367 C400 0.930 . S
H368 C401 0.930 . S
H369 C399 0.929 . S
H370 C402 0.928 . S
O371 Co355 2.057 . S
O371 C359 1.232 . S
H372 C391 0.929 . S
H373 C392 0.929 . S
H374 C404 0.931 . S
H375 C396 0.929 . S
H376 C405 0.930 . S
H377 C397 0.931 . S
O378 Co354 2.097 . S
O378 C406 1.214 . S
H379 C407 0.929 . S
H380 C408 0.929 . S
H381 C409 0.930 . S
H382 C410 0.929 . S
H383 C412 0.930 . S
H384 C389 0.930 . S
H385 C393 0.930 . S
O386 Co355 2.037 . S
O386 C406 1.234 . S
C387 O361 1.269 . S
C387 O362 1.257 . S
C388 H363 0.930 . S
C388 C391 1.388 . S
C388 C393 1.418 . S
C389 H384 0.930 . S
C389 C392 1.404 . S
C389 C393 1.353 . S
N390 Co355 2.145 . S
N390 C391 1.397 . S
N390 C392 1.334 . S
C391 H372 0.929 . S
C391 C388 1.388 . S
C391 N390 1.397 . S
C392 H373 0.929 . S
C392 C389 1.404 . S
C392 N390 1.334 . S
C393 H385 0.930 . S
C393 C388 1.418 . S
C393 C389 1.353 . S
C394 H364 0.930 . S
C394 N395 1.330 . S
C394 C396 1.446 . S
N395 Co354 2.151 . S
N395 C394 1.330 . S
N395 C399 1.418 . S
C396 H375 0.929 . S
C396 C394 1.446 . S
C396 C397 1.332 . S
C397 H377 0.931 . S
C397 C396 1.332 . S
C397 C398 1.267 . S
C398 H366 0.929 . S
C398 C397 1.267 . S
C398 C399 1.251 . S
C399 H369 0.929 . S
C399 N395 1.418 . S
C399 C398 1.251 . S
C400 H367 0.930 . S
C400 C402 1.406 . S
C400 C405 1.261 . S
C401 H368 0.930 . S
C401 N403 1.325 . S
C401 C404 1.357 . S
C402 H370 0.928 . S
C402 C400 1.406 . S
C402 N403 1.261 . S
N403 Co354 2.214 . S
N403 C401 1.325 . S
N403 C402 1.261 . S
C404 H374 0.931 . S
C404 C401 1.357 . S
C404 C405 1.312 . S
C405 H376 0.930 . S
C405 C400 1.261 . S
C405 C404 1.312 . S
C406 O378 1.214 . S
C406 O386 1.234 . S
C407 H379 0.929 . S
C407 C410 1.391 . S
C407 C412 1.391 . S
C408 H380 0.929 . S
C408 C409 1.390 . S
C408 N411 1.391 . S
C409 H381 0.930 . S
C409 C408 1.390 . S
C409 C410 1.392 . S
C410 H382 0.929 . S
C410 C407 1.391 . S
C410 C409 1.392 . S
N411 Co355 2.257 . S
N411 C408 1.391 . S
N411 C412 1.388 . S
C412 H383 0.930 . S
C412 C407 1.391 . S
C412 N411 1.388 . S
Co413 O415 2.143 . S
Co413 O421 2.074 . S
Co413 O424 2.093 . S
Co413 O437 2.097 . S
Co413 N454 2.151 . S
Co413 N462 2.214 . S
Co414 O415 2.160 . S
Co414 O420 2.058 . S
Co414 O430 2.057 . S
Co414 O445 2.037 . S
Co414 N449 2.145 . S
Co414 N470 2.257 . S
O415 Co413 2.143 . S
O415 Co414 2.160 . S
C416 O417 1.278 . S
C416 O424 1.224 . S
O417 C416 1.278 . S
C418 O419 1.245 . S
C418 O430 1.232 . S
O419 C418 1.245 . S
O420 Co414 2.058 . S
O420 C446 1.269 . S
O421 Co413 2.074 . S
O421 C446 1.257 . S
H422 C447 0.930 . S
H423 C453 0.930 . S
O424 Co413 2.093 . S
O424 C416 1.224 . S
H425 C457 0.929 . S
H426 C459 0.930 . S
H427 C460 0.930 . S
H428 C458 0.929 . S
H429 C461 0.928 . S
O430 Co414 2.057 . S
O430 C418 1.232 . S
H431 C450 0.929 . S
H432 C451 0.929 . S
H433 C463 0.931 . S
H434 C455 0.929 . S
H435 C464 0.930 . S
H436 C456 0.931 . S
O437 Co413 2.097 . S
O437 C465 1.214 . S
H438 C466 0.929 . S
H439 C467 0.929 . S
H440 C468 0.930 . S
H441 C469 0.929 . S
H442 C471 0.930 . S
H443 C448 0.930 . S
H444 C452 0.930 . S
O445 Co414 2.037 . S
O445 C465 1.234 . S
C446 O420 1.269 . S
C446 O421 1.257 . S
C447 H422 0.930 . S
C447 C450 1.388 . S
C447 C452 1.418 . S
C448 H443 0.930 . S
C448 C451 1.404 . S
C448 C452 1.353 . S
N449 Co414 2.145 . S
N449 C450 1.397 . S
N449 C451 1.334 . S
C450 H431 0.929 . S
C450 C447 1.388 . S
C450 N449 1.397 . S
C451 H432 0.929 . S
C451 C448 1.404 . S
C451 N449 1.334 . S
C452 H444 0.930 . S
C452 C447 1.418 . S
C452 C448 1.353 . S
C453 H423 0.930 . S
C453 N454 1.330 . S
C453 C455 1.446 . S
N454 Co413 2.151 . S
N454 C453 1.330 . S
N454 C458 1.418 . S
C455 H434 0.929 . S
C455 C453 1.446 . S
C455 C456 1.332 . S
C456 H436 0.931 . S
C456 C455 1.332 . S
C456 C457 1.267 . S
C457 H425 0.929 . S
C457 C456 1.267 . S
C457 C458 1.251 . S
C458 H428 0.929 . S
C458 N454 1.418 . S
C458 C457 1.251 . S
C459 H426 0.930 . S
C459 C461 1.406 . S
C459 C464 1.261 . S
C460 H427 0.930 . S
C460 N462 1.325 . S
C460 C463 1.357 . S
C461 H429 0.928 . S
C461 C459 1.406 . S
C461 N462 1.261 . S
N462 Co413 2.214 . S
N462 C460 1.325 . S
N462 C461 1.261 . S
C463 H433 0.931 . S
C463 C460 1.357 . S
C463 C464 1.312 . S
C464 H435 0.930 . S
C464 C459 1.261 . S
C464 C463 1.312 . S
C465 O437 1.214 . S
C465 O445 1.234 . S
C466 H438 0.929 . S
C466 C469 1.391 . S
C466 C471 1.391 . S
C467 H439 0.929 . S
C467 C468 1.390 . S
C467 N470 1.391 . S
C468 H440 0.930 . S
C468 C467 1.390 . S
C468 C469 1.392 . S
C469 H441 0.929 . S
C469 C466 1.391 . S
C469 C468 1.392 . S
N470 Co414 2.257 . S
N470 C467 1.391 . S
N470 C471 1.388 . S
C471 H442 0.930 . S
C471 C466 1.391 . S
C471 N470 1.388 . S
Co472 O474 2.143 . S
Co472 O480 2.074 . S
Co472 O483 2.093 . S
Co472 O496 2.097 . S
Co472 N513 2.151 . S
Co472 N521 2.214 . S
Co473 O474 2.160 . S
Co473 O479 2.058 . S
Co473 O489 2.057 . S
Co473 O504 2.037 . S
Co473 N508 2.145 . S
Co473 N529 2.257 . S
O474 Co472 2.143 . S
O474 Co473 2.160 . S
C475 O476 1.278 . S
C475 O483 1.224 . S
O476 C475 1.278 . S
C477 O478 1.245 . S
C477 O489 1.232 . S
O478 C477 1.245 . S
O479 Co473 2.058 . S
O479 C505 1.269 . S
O480 Co472 2.074 . S
O480 C505 1.257 . S
H481 C506 0.930 . S
H482 C512 0.930 . S
O483 Co472 2.093 . S
O483 C475 1.224 . S
H484 C516 0.929 . S
H485 C518 0.930 . S
H486 C519 0.930 . S
H487 C517 0.929 . S
H488 C520 0.928 . S
O489 Co473 2.057 . S
O489 C477 1.232 . S
H490 C509 0.929 . S
H491 C510 0.929 . S
H492 C522 0.931 . S
H493 C514 0.929 . S
H494 C523 0.930 . S
H495 C515 0.931 . S
O496 Co472 2.097 . S
O496 C524 1.214 . S
H497 C525 0.929 . S
H498 C526 0.929 . S
H499 C527 0.930 . S
H500 C528 0.929 . S
H501 C530 0.930 . S
H502 C507 0.930 . S
H503 C511 0.930 . S
O504 Co473 2.037 . S
O504 C524 1.234 . S
C505 O479 1.269 . S
C505 O480 1.257 . S
C506 H481 0.930 . S
C506 C509 1.388 . S
C506 C511 1.418 . S
C507 H502 0.930 . S
C507 C510 1.404 . S
C507 C511 1.353 . S
N508 Co473 2.145 . S
N508 C509 1.397 . S
N508 C510 1.334 . S
C509 H490 0.929 . S
C509 C506 1.388 . S
C509 N508 1.397 . S
C510 H491 0.929 . S
C510 C507 1.404 . S
C510 N508 1.334 . S
C511 H503 0.930 . S
C511 C506 1.418 . S
C511 C507 1.353 . S
C512 H482 0.930 . S
C512 N513 1.330 . S
C512 C514 1.446 . S
N513 Co472 2.151 . S
N513 C512 1.330 . S
N513 C517 1.418 . S
C514 H493 0.929 . S
C514 C512 1.446 . S
C514 C515 1.332 . S
C515 H495 0.931 . S
C515 C514 1.332 . S
C515 C516 1.267 . S
C516 H484 0.929 . S
C516 C515 1.267 . S
C516 C517 1.251 . S
C517 H487 0.929 . S
C517 N513 1.418 . S
C517 C516 1.251 . S
C518 H485 0.930 . S
C518 C520 1.406 . S
C518 C523 1.261 . S
C519 H486 0.930 . S
C519 N521 1.325 . S
C519 C522 1.357 . S
C520 H488 0.928 . S
C520 C518 1.406 . S
C520 N521 1.261 . S
N521 Co472 2.214 . S
N521 C519 1.325 . S
N521 C520 1.261 . S
C522 H492 0.931 . S
C522 C519 1.357 . S
C522 C523 1.312 . S
C523 H494 0.930 . S
C523 C518 1.261 . S
C523 C522 1.312 . S
C524 O496 1.214 . S
C524 O504 1.234 . S
C525 H497 0.929 . S
C525 C528 1.391 . S
C525 C530 1.391 . S
C526 H498 0.929 . S
C526 C527 1.390 . S
C526 N529 1.391 . S
C527 H499 0.930 . S
C527 C526 1.390 . S
C527 C528 1.392 . S
C528 H500 0.929 . S
C528 C525 1.391 . S
C528 C527 1.392 . S
N529 Co473 2.257 . S
N529 C526 1.391 . S
N529 C530 1.388 . S
C530 H501 0.930 . S
C530 C525 1.391 . S
C530 N529 1.388 . S
Co531 O533 2.143 . S
Co531 O539 2.074 . S
Co531 O542 2.093 . S
Co531 O555 2.097 . S
Co531 N572 2.151 . S
Co531 N580 2.214 . S
Co532 O533 2.160 . S
Co532 O538 2.058 . S
Co532 O548 2.057 . S
Co532 O563 2.037 . S
Co532 N567 2.145 . S
Co532 N588 2.257 . S
O533 Co531 2.143 . S
O533 Co532 2.160 . S
C534 O535 1.278 . S
C534 O542 1.224 . S
O535 C534 1.278 . S
C536 O537 1.245 . S
C536 O548 1.232 . S
O537 C536 1.245 . S
O538 Co532 2.058 . S
O538 C564 1.269 . S
O539 Co531 2.074 . S
O539 C564 1.257 . S
H540 C565 0.930 . S
H541 C571 0.930 . S
O542 Co531 2.093 . S
O542 C534 1.224 . S
H543 C575 0.929 . S
H544 C577 0.930 . S
H545 C578 0.930 . S
H546 C576 0.929 . S
H547 C579 0.928 . S
O548 Co532 2.057 . S
O548 C536 1.232 . S
H549 C568 0.929 . S
H550 C569 0.929 . S
H551 C581 0.931 . S
H552 C573 0.929 . S
H553 C582 0.930 . S
H554 C574 0.931 . S
O555 Co531 2.097 . S
O555 C583 1.214 . S
H556 C584 0.929 . S
H557 C585 0.929 . S
H558 C586 0.930 . S
H559 C587 0.929 . S
H560 C589 0.930 . S
H561 C566 0.930 . S
H562 C570 0.930 . S
O563 Co532 2.037 . S
O563 C583 1.234 . S
C564 O538 1.269 . S
C564 O539 1.257 . S
C565 H540 0.930 . S
C565 C568 1.388 . S
C565 C570 1.418 . S
C566 H561 0.930 . S
C566 C569 1.404 . S
C566 C570 1.353 . S
N567 Co532 2.145 . S
N567 C568 1.397 . S
N567 C569 1.334 . S
C568 H549 0.929 . S
C568 C565 1.388 . S
C568 N567 1.397 . S
C569 H550 0.929 . S
C569 C566 1.404 . S
C569 N567 1.334 . S
C570 H562 0.930 . S
C570 C565 1.418 . S
C570 C566 1.353 . S
C571 H541 0.930 . S
C571 N572 1.330 . S
C571 C573 1.446 . S
N572 Co531 2.151 . S
N572 C571 1.330 . S
N572 C576 1.418 . S
C573 H552 0.929 . S
C573 C571 1.446 . S
C573 C574 1.332 . S
C574 H554 0.931 . S
C574 C573 1.332 . S
C574 C575 1.267 . S
C575 H543 0.929 . S
C575 C574 1.267 . S
C575 C576 1.251 . S
C576 H546 0.929 . S
C576 N572 1.418 . S
C576 C575 1.251 . S
C577 H544 0.930 . S
C577 C579 1.406 . S
C577 C582 1.261 . S
C578 H545 0.930 . S
C578 N580 1.325 . S
C578 C581 1.357 . S
C579 H547 0.928 . S
C579 C577 1.406 . S
C579 N580 1.261 . S
N580 Co531 2.214 . S
N580 C578 1.325 . S
N580 C579 1.261 . S
C581 H551 0.931 . S
C581 C578 1.357 . S
C581 C582 1.312 . S
C582 H553 0.930 . S
C582 C577 1.261 . S
C582 C581 1.312 . S
C583 O555 1.214 . S
C583 O563 1.234 . S
C584 H556 0.929 . S
C584 C587 1.391 . S
C584 C589 1.391 . S
C585 H557 0.929 . S
C585 C586 1.390 . S
C585 N588 1.391 . S
C586 H558 0.930 . S
C586 C585 1.390 . S
C586 C587 1.392 . S
C587 H559 0.929 . S
C587 C584 1.391 . S
C587 C586 1.392 . S
N588 Co532 2.257 . S
N588 C585 1.391 . S
N588 C589 1.388 . S
C589 H560 0.930 . S
C589 C584 1.391 . S
C589 N588 1.388 . S
Co590 O592 2.143 . S
Co590 O598 2.074 . S
Co590 O601 2.093 . S
Co590 O614 2.097 . S
Co590 N631 2.151 . S
Co590 N639 2.214 . S
Co591 O592 2.160 . S
Co591 O597 2.058 . S
Co591 O607 2.057 . S
Co591 O622 2.037 . S
Co591 N626 2.145 . S
Co591 N647 2.257 . S
O592 Co590 2.143 . S
O592 Co591 2.160 . S
C593 O594 1.278 . S
C593 O601 1.224 . S
O594 C593 1.278 . S
C595 O596 1.245 . S
C595 O607 1.232 . S
O596 C595 1.245 . S
O597 Co591 2.058 . S
O597 C623 1.269 . S
O598 Co590 2.074 . S
O598 C623 1.257 . S
H599 C624 0.930 . S
H600 C630 0.930 . S
O601 Co590 2.093 . S
O601 C593 1.224 . S
H602 C634 0.929 . S
H603 C636 0.930 . S
H604 C637 0.930 . S
H605 C635 0.929 . S
H606 C638 0.928 . S
O607 Co591 2.057 . S
O607 C595 1.232 . S
H608 C627 0.929 . S
H609 C628 0.929 . S
H610 C640 0.931 . S
H611 C632 0.929 . S
H612 C641 0.930 . S
H613 C633 0.931 . S
O614 Co590 2.097 . S
O614 C642 1.214 . S
H615 C643 0.929 . S
H616 C644 0.929 . S
H617 C645 0.930 . S
H618 C646 0.929 . S
H619 C648 0.930 . S
H620 C625 0.930 . S
H621 C629 0.930 . S
O622 Co591 2.037 . S
O622 C642 1.234 . S
C623 O597 1.269 . S
C623 O598 1.257 . S
C624 H599 0.930 . S
C624 C627 1.388 . S
C624 C629 1.418 . S
C625 H620 0.930 . S
C625 C628 1.404 . S
C625 C629 1.353 . S
N626 Co591 2.145 . S
N626 C627 1.397 . S
N626 C628 1.334 . S
C627 H608 0.929 . S
C627 C624 1.388 . S
C627 N626 1.397 . S
C628 H609 0.929 . S
C628 C625 1.404 . S
C628 N626 1.334 . S
C629 H621 0.930 . S
C629 C624 1.418 . S
C629 C625 1.353 . S
C630 H600 0.930 . S
C630 N631 1.330 . S
C630 C632 1.446 . S
N631 Co590 2.151 . S
N631 C630 1.330 . S
N631 C635 1.418 . S
C632 H611 0.929 . S
C632 C630 1.446 . S
C632 C633 1.332 . S
C633 H613 0.931 . S
C633 C632 1.332 . S
C633 C634 1.267 . S
C634 H602 0.929 . S
C634 C633 1.267 . S
C634 C635 1.251 . S
C635 H605 0.929 . S
C635 N631 1.418 . S
C635 C634 1.251 . S
C636 H603 0.930 . S
C636 C638 1.406 . S
C636 C641 1.261 . S
C637 H604 0.930 . S
C637 N639 1.325 . S
C637 C640 1.357 . S
C638 H606 0.928 . S
C638 C636 1.406 . S
C638 N639 1.261 . S
N639 Co590 2.214 . S
N639 C637 1.325 . S
N639 C638 1.261 . S
C640 H610 0.931 . S
C640 C637 1.357 . S
C640 C641 1.312 . S
C641 H612 0.930 . S
C641 C636 1.261 . S
C641 C640 1.312 . S
C642 O614 1.214 . S
C642 O622 1.234 . S
C643 H615 0.929 . S
C643 C646 1.391 . S
C643 C648 1.391 . S
C644 H616 0.929 . S
C644 C645 1.390 . S
C644 N647 1.391 . S
C645 H617 0.930 . S
C645 C644 1.390 . S
C645 C646 1.392 . S
C646 H618 0.929 . S
C646 C643 1.391 . S
C646 C645 1.392 . S
N647 Co591 2.257 . S
N647 C644 1.391 . S
N647 C648 1.388 . S
C648 H619 0.930 . S
C648 C643 1.391 . S
C648 N647 1.388 . S
Co649 O651 2.143 . S
Co649 O657 2.074 . S
Co649 O660 2.093 . S
Co649 O673 2.097 . S
Co649 N690 2.151 . S
Co649 N698 2.214 . S
Co650 O651 2.160 . S
Co650 O656 2.058 . S
Co650 O666 2.057 . S
Co650 O681 2.037 . S
Co650 N685 2.145 . S
Co650 N706 2.257 . S
O651 Co649 2.143 . S
O651 Co650 2.160 . S
C652 O653 1.278 . S
C652 O660 1.224 . S
O653 C652 1.278 . S
C654 O655 1.245 . S
C654 O666 1.232 . S
O655 C654 1.245 . S
O656 Co650 2.058 . S
O656 C682 1.269 . S
O657 Co649 2.074 . S
O657 C682 1.257 . S
H658 C683 0.930 . S
H659 C689 0.930 . S
O660 Co649 2.093 . S
O660 C652 1.224 . S
H661 C693 0.929 . S
H662 C695 0.930 . S
H663 C696 0.930 . S
H664 C694 0.929 . S
H665 C697 0.928 . S
O666 Co650 2.057 . S
O666 C654 1.232 . S
H667 C686 0.929 . S
H668 C687 0.929 . S
H669 C699 0.931 . S
H670 C691 0.929 . S
H671 C700 0.930 . S
H672 C692 0.931 . S
O673 Co649 2.097 . S
O673 C701 1.214 . S
H674 C702 0.929 . S
H675 C703 0.929 . S
H676 C704 0.930 . S
H677 C705 0.929 . S
H678 C707 0.930 . S
H679 C684 0.930 . S
H680 C688 0.930 . S
O681 Co650 2.037 . S
O681 C701 1.234 . S
C682 O656 1.269 . S
C682 O657 1.257 . S
C683 H658 0.930 . S
C683 C686 1.388 . S
C683 C688 1.418 . S
C684 H679 0.930 . S
C684 C687 1.404 . S
C684 C688 1.353 . S
N685 Co650 2.145 . S
N685 C686 1.397 . S
N685 C687 1.334 . S
C686 H667 0.929 . S
C686 C683 1.388 . S
C686 N685 1.397 . S
C687 H668 0.929 . S
C687 C684 1.404 . S
C687 N685 1.334 . S
C688 H680 0.930 . S
C688 C683 1.418 . S
C688 C684 1.353 . S
C689 H659 0.930 . S
C689 N690 1.330 . S
C689 C691 1.446 . S
N690 Co649 2.151 . S
N690 C689 1.330 . S
N690 C694 1.418 . S
C691 H670 0.929 . S
C691 C689 1.446 . S
C691 C692 1.332 . S
C692 H672 0.931 . S
C692 C691 1.332 . S
C692 C693 1.267 . S
C693 H661 0.929 . S
C693 C692 1.267 . S
C693 C694 1.251 . S
C694 H664 0.929 . S
C694 N690 1.418 . S
C694 C693 1.251 . S
C695 H662 0.930 . S
C695 C697 1.406 . S
C695 C700 1.261 . S
C696 H663 0.930 . S
C696 N698 1.325 . S
C696 C699 1.357 . S
C697 H665 0.928 . S
C697 C695 1.406 . S
C697 N698 1.261 . S
N698 Co649 2.214 . S
N698 C696 1.325 . S
N698 C697 1.261 . S
C699 H669 0.931 . S
C699 C696 1.357 . S
C699 C700 1.312 . S
C700 H671 0.930 . S
C700 C695 1.261 . S
C700 C699 1.312 . S
C701 O673 1.214 . S
C701 O681 1.234 . S
C702 H674 0.929 . S
C702 C705 1.391 . S
C702 C707 1.391 . S
C703 H675 0.929 . S
C703 C704 1.390 . S
C703 N706 1.391 . S
C704 H676 0.930 . S
C704 C703 1.390 . S
C704 C705 1.392 . S
C705 H677 0.929 . S
C705 C702 1.391 . S
C705 C704 1.392 . S
N706 Co650 2.257 . S
N706 C703 1.391 . S
N706 C707 1.388 . S
C707 H678 0.930 . S
C707 C702 1.391 . S
C707 N706 1.388 . S
Co708 O710 2.143 . S
Co708 O716 2.074 . S
Co708 O719 2.093 . S
Co708 O732 2.097 . S
Co708 N749 2.151 . S
Co708 N757 2.214 . S
Co709 O710 2.160 . S
Co709 O715 2.058 . S
Co709 O725 2.057 . S
Co709 O740 2.037 . S
Co709 N744 2.145 . S
Co709 N765 2.257 . S
O710 Co708 2.143 . S
O710 Co709 2.160 . S
C711 O712 1.278 . S
C711 O719 1.224 . S
O712 C711 1.278 . S
C713 O714 1.245 . S
C713 O725 1.232 . S
O714 C713 1.245 . S
O715 Co709 2.058 . S
O715 C741 1.269 . S
O716 Co708 2.074 . S
O716 C741 1.257 . S
H717 C742 0.930 . S
H718 C748 0.930 . S
O719 Co708 2.093 . S
O719 C711 1.224 . S
H720 C752 0.929 . S
H721 C754 0.930 . S
H722 C755 0.930 . S
H723 C753 0.929 . S
H724 C756 0.928 . S
O725 Co709 2.057 . S
O725 C713 1.232 . S
H726 C745 0.929 . S
H727 C746 0.929 . S
H728 C758 0.931 . S
H729 C750 0.929 . S
H730 C759 0.930 . S
H731 C751 0.931 . S
O732 Co708 2.097 . S
O732 C760 1.214 . S
H733 C761 0.929 . S
H734 C762 0.929 . S
H735 C763 0.930 . S
H736 C764 0.929 . S
H737 C766 0.930 . S
H738 C743 0.930 . S
H739 C747 0.930 . S
O740 Co709 2.037 . S
O740 C760 1.234 . S
C741 O715 1.269 . S
C741 O716 1.257 . S
C742 H717 0.930 . S
C742 C745 1.388 . S
C742 C747 1.418 . S
C743 H738 0.930 . S
C743 C746 1.404 . S
C743 C747 1.353 . S
N744 Co709 2.145 . S
N744 C745 1.397 . S
N744 C746 1.334 . S
C745 H726 0.929 . S
C745 C742 1.388 . S
C745 N744 1.397 . S
C746 H727 0.929 . S
C746 C743 1.404 . S
C746 N744 1.334 . S
C747 H739 0.930 . S
C747 C742 1.418 . S
C747 C743 1.353 . S
C748 H718 0.930 . S
C748 N749 1.330 . S
C748 C750 1.446 . S
N749 Co708 2.151 . S
N749 C748 1.330 . S
N749 C753 1.418 . S
C750 H729 0.929 . S
C750 C748 1.446 . S
C750 C751 1.332 . S
C751 H731 0.931 . S
C751 C750 1.332 . S
C751 C752 1.267 . S
C752 H720 0.929 . S
C752 C751 1.267 . S
C752 C753 1.251 . S
C753 H723 0.929 . S
C753 N749 1.418 . S
C753 C752 1.251 . S
C754 H721 0.930 . S
C754 C756 1.406 . S
C754 C759 1.261 . S
C755 H722 0.930 . S
C755 N757 1.325 . S
C755 C758 1.357 . S
C756 H724 0.928 . S
C756 C754 1.406 . S
C756 N757 1.261 . S
N757 Co708 2.214 . S
N757 C755 1.325 . S
N757 C756 1.261 . S
C758 H728 0.931 . S
C758 C755 1.357 . S
C758 C759 1.312 . S
C759 H730 0.930 . S
C759 C754 1.261 . S
C759 C758 1.312 . S
C760 O732 1.214 . S
C760 O740 1.234 . S
C761 H733 0.929 . S
C761 C764 1.391 . S
C761 C766 1.391 . S
C762 H734 0.929 . S
C762 C763 1.390 . S
C762 N765 1.391 . S
C763 H735 0.930 . S
C763 C762 1.390 . S
C763 C764 1.392 . S
C764 H736 0.929 . S
C764 C761 1.391 . S
C764 C763 1.392 . S
N765 Co709 2.257 . S
N765 C762 1.391 . S
N765 C766 1.388 . S
C766 H737 0.930 . S
C766 C761 1.391 . S
C766 N765 1.388 . S
Co767 O769 2.143 . S
Co767 O775 2.074 . S
Co767 O778 2.093 . S
Co767 O791 2.097 . S
Co767 N808 2.151 . S
Co767 N816 2.214 . S
Co768 O769 2.160 . S
Co768 O774 2.058 . S
Co768 O784 2.057 . S
Co768 O799 2.037 . S
Co768 N803 2.145 . S
Co768 N824 2.257 . S
O769 Co767 2.143 . S
O769 Co768 2.160 . S
C770 O771 1.278 . S
C770 O778 1.224 . S
O771 C770 1.278 . S
C772 O773 1.245 . S
C772 O784 1.232 . S
O773 C772 1.245 . S
O774 Co768 2.058 . S
O774 C800 1.269 . S
O775 Co767 2.074 . S
O775 C800 1.257 . S
H776 C801 0.930 . S
H777 C807 0.930 . S
O778 Co767 2.093 . S
O778 C770 1.224 . S
H779 C811 0.929 . S
H780 C813 0.930 . S
H781 C814 0.930 . S
H782 C812 0.929 . S
H783 C815 0.928 . S
O784 Co768 2.057 . S
O784 C772 1.232 . S
H785 C804 0.929 . S
H786 C805 0.929 . S
H787 C817 0.931 . S
H788 C809 0.929 . S
H789 C818 0.930 . S
H790 C810 0.931 . S
O791 Co767 2.097 . S
O791 C819 1.214 . S
H792 C820 0.929 . S
H793 C821 0.929 . S
H794 C822 0.930 . S
H795 C823 0.929 . S
H796 C825 0.930 . S
H797 C802 0.930 . S
H798 C806 0.930 . S
O799 Co768 2.037 . S
O799 C819 1.234 . S
C800 O774 1.269 . S
C800 O775 1.257 . S
C801 H776 0.930 . S
C801 C804 1.388 . S
C801 C806 1.418 . S
C802 H797 0.930 . S
C802 C805 1.404 . S
C802 C806 1.353 . S
N803 Co768 2.145 . S
N803 C804 1.397 . S
N803 C805 1.334 . S
C804 H785 0.929 . S
C804 C801 1.388 . S
C804 N803 1.397 . S
C805 H786 0.929 . S
C805 C802 1.404 . S
C805 N803 1.334 . S
C806 H798 0.930 . S
C806 C801 1.418 . S
C806 C802 1.353 . S
C807 H777 0.930 . S
C807 N808 1.330 . S
C807 C809 1.446 . S
N808 Co767 2.151 . S
N808 C807 1.330 . S
N808 C812 1.418 . S
C809 H788 0.929 . S
C809 C807 1.446 . S
C809 C810 1.332 . S
C810 H790 0.931 . S
C810 C809 1.332 . S
C810 C811 1.267 . S
C811 H779 0.929 . S
C811 C810 1.267 . S
C811 C812 1.251 . S
C812 H782 0.929 . S
C812 N808 1.418 . S
C812 C811 1.251 . S
C813 H780 0.930 . S
C813 C815 1.406 . S
C813 C818 1.261 . S
C814 H781 0.930 . S
C814 N816 1.325 . S
C814 C817 1.357 . S
C815 H783 0.928 . S
C815 C813 1.406 . S
C815 N816 1.261 . S
N816 Co767 2.214 . S
N816 C814 1.325 . S
N816 C815 1.261 . S
C817 H787 0.931 . S
C817 C814 1.357 . S
C817 C818 1.312 . S
C818 H789 0.930 . S
C818 C813 1.261 . S
C818 C817 1.312 . S
C819 O791 1.214 . S
C819 O799 1.234 . S
C820 H792 0.929 . S
C820 C823 1.391 . S
C820 C825 1.391 . S
C821 H793 0.929 . S
C821 C822 1.390 . S
C821 N824 1.391 . S
C822 H794 0.930 . S
C822 C821 1.390 . S
C822 C823 1.392 . S
C823 H795 0.929 . S
C823 C820 1.391 . S
C823 C822 1.392 . S
N824 Co768 2.257 . S
N824 C821 1.391 . S
N824 C825 1.388 . S
C825 H796 0.930 . S
C825 C820 1.391 . S
C825 N824 1.388 . S
Co826 O828 2.143 . S
Co826 O834 2.074 . S
Co826 O837 2.093 . S
Co826 O850 2.097 . S
Co826 N867 2.151 . S
Co826 N875 2.214 . S
Co827 O828 2.160 . S
Co827 O833 2.058 . S
Co827 O843 2.057 . S
Co827 O858 2.037 . S
Co827 N862 2.145 . S
Co827 N883 2.257 . S
O828 Co826 2.143 . S
O828 Co827 2.160 . S
C829 O830 1.278 . S
C829 O837 1.224 . S
O830 C829 1.278 . S
C831 O832 1.245 . S
C831 O843 1.232 . S
O832 C831 1.245 . S
O833 Co827 2.058 . S
O833 C859 1.269 . S
O834 Co826 2.074 . S
O834 C859 1.257 . S
H835 C860 0.930 . S
H836 C866 0.930 . S
O837 Co826 2.093 . S
O837 C829 1.224 . S
H838 C870 0.929 . S
H839 C872 0.930 . S
H840 C873 0.930 . S
H841 C871 0.929 . S
H842 C874 0.928 . S
O843 Co827 2.057 . S
O843 C831 1.232 . S
H844 C863 0.929 . S
H845 C864 0.929 . S
H846 C876 0.931 . S
H847 C868 0.929 . S
H848 C877 0.930 . S
H849 C869 0.931 . S
O850 Co826 2.097 . S
O850 C878 1.214 . S
H851 C879 0.929 . S
H852 C880 0.929 . S
H853 C881 0.930 . S
H854 C882 0.929 . S
H855 C884 0.930 . S
H856 C861 0.930 . S
H857 C865 0.930 . S
O858 Co827 2.037 . S
O858 C878 1.234 . S
C859 O833 1.269 . S
C859 O834 1.257 . S
C860 H835 0.930 . S
C860 C863 1.388 . S
C860 C865 1.418 . S
C861 H856 0.930 . S
C861 C864 1.404 . S
C861 C865 1.353 . S
N862 Co827 2.145 . S
N862 C863 1.397 . S
N862 C864 1.334 . S
C863 H844 0.929 . S
C863 C860 1.388 . S
C863 N862 1.397 . S
C864 H845 0.929 . S
C864 C861 1.404 . S
C864 N862 1.334 . S
C865 H857 0.930 . S
C865 C860 1.418 . S
C865 C861 1.353 . S
C866 H836 0.930 . S
C866 N867 1.330 . S
C866 C868 1.446 . S
N867 Co826 2.151 . S
N867 C866 1.330 . S
N867 C871 1.418 . S
C868 H847 0.929 . S
C868 C866 1.446 . S
C868 C869 1.332 . S
C869 H849 0.931 . S
C869 C868 1.332 . S
C869 C870 1.267 . S
C870 H838 0.929 . S
C870 C869 1.267 . S
C870 C871 1.251 . S
C871 H841 0.929 . S
C871 N867 1.418 . S
C871 C870 1.251 . S
C872 H839 0.930 . S
C872 C874 1.406 . S
C872 C877 1.261 . S
C873 H840 0.930 . S
C873 N875 1.325 . S
C873 C876 1.357 . S
C874 H842 0.928 . S
C874 C872 1.406 . S
C874 N875 1.261 . S
N875 Co826 2.214 . S
N875 C873 1.325 . S
N875 C874 1.261 . S
C876 H846 0.931 . S
C876 C873 1.357 . S
C876 C877 1.312 . S
C877 H848 0.930 . S
C877 C872 1.261 . S
C877 C876 1.312 . S
C878 O850 1.214 . S
C878 O858 1.234 . S
C879 H851 0.929 . S
C879 C882 1.391 . S
C879 C884 1.391 . S
C880 H852 0.929 . S
C880 C881 1.390 . S
C880 N883 1.391 . S
C881 H853 0.930 . S
C881 C880 1.390 . S
C881 C882 1.392 . S
C882 H854 0.929 . S
C882 C879 1.391 . S
C882 C881 1.392 . S
N883 Co827 2.257 . S
N883 C880 1.391 . S
N883 C884 1.388 . S
C884 H855 0.930 . S
C884 C879 1.391 . S
C884 N883 1.388 . S
Co885 O887 2.143 . S
Co885 O893 2.074 . S
Co885 O896 2.093 . S
Co885 O909 2.097 . S
Co885 N926 2.151 . S
Co885 N934 2.214 . S
Co886 O887 2.160 . S
Co886 O892 2.058 . S
Co886 O902 2.057 . S
Co886 O917 2.037 . S
Co886 N921 2.145 . S
Co886 N942 2.257 . S
O887 Co885 2.143 . S
O887 Co886 2.160 . S
C888 O889 1.278 . S
C888 O896 1.224 . S
O889 C888 1.278 . S
C890 O891 1.245 . S
C890 O902 1.232 . S
O891 C890 1.245 . S
O892 Co886 2.058 . S
O892 C918 1.269 . S
O893 Co885 2.074 . S
O893 C918 1.257 . S
H894 C919 0.930 . S
H895 C925 0.930 . S
O896 Co885 2.093 . S
O896 C888 1.224 . S
H897 C929 0.929 . S
H898 C931 0.930 . S
H899 C932 0.930 . S
H900 C930 0.929 . S
H901 C933 0.928 . S
O902 Co886 2.057 . S
O902 C890 1.232 . S
H903 C922 0.929 . S
H904 C923 0.929 . S
H905 C935 0.931 . S
H906 C927 0.929 . S
H907 C936 0.930 . S
H908 C928 0.931 . S
O909 Co885 2.097 . S
O909 C937 1.214 . S
H910 C938 0.929 . S
H911 C939 0.929 . S
H912 C940 0.930 . S
H913 C941 0.929 . S
H914 C943 0.930 . S
H915 C920 0.930 . S
H916 C924 0.930 . S
O917 Co886 2.037 . S
O917 C937 1.234 . S
C918 O892 1.269 . S
C918 O893 1.257 . S
C919 H894 0.930 . S
C919 C922 1.388 . S
C919 C924 1.418 . S
C920 H915 0.930 . S
C920 C923 1.404 . S
C920 C924 1.353 . S
N921 Co886 2.145 . S
N921 C922 1.397 . S
N921 C923 1.334 . S
C922 H903 0.929 . S
C922 C919 1.388 . S
C922 N921 1.397 . S
C923 H904 0.929 . S
C923 C920 1.404 . S
C923 N921 1.334 . S
C924 H916 0.930 . S
C924 C919 1.418 . S
C924 C920 1.353 . S
C925 H895 0.930 . S
C925 N926 1.330 . S
C925 C927 1.446 . S
N926 Co885 2.151 . S
N926 C925 1.330 . S
N926 C930 1.418 . S
C927 H906 0.929 . S
C927 C925 1.446 . S
C927 C928 1.332 . S
C928 H908 0.931 . S
C928 C927 1.332 . S
C928 C929 1.267 . S
C929 H897 0.929 . S
C929 C928 1.267 . S
C929 C930 1.251 . S
C930 H900 0.929 . S
C930 N926 1.418 . S
C930 C929 1.251 . S
C931 H898 0.930 . S
C931 C933 1.406 . S
C931 C936 1.261 . S
C932 H899 0.930 . S
C932 N934 1.325 . S
C932 C935 1.357 . S
C933 H901 0.928 . S
C933 C931 1.406 . S
C933 N934 1.261 . S
N934 Co885 2.214 . S
N934 C932 1.325 . S
N934 C933 1.261 . S
C935 H905 0.931 . S
C935 C932 1.357 . S
C935 C936 1.312 . S
C936 H907 0.930 . S
C936 C931 1.261 . S
C936 C935 1.312 . S
C937 O909 1.214 . S
C937 O917 1.234 . S
C938 H910 0.929 . S
C938 C941 1.391 . S
C938 C943 1.391 . S
C939 H911 0.929 . S
C939 C940 1.390 . S
C939 N942 1.391 . S
C940 H912 0.930 . S
C940 C939 1.390 . S
C940 C941 1.392 . S
C941 H913 0.929 . S
C941 C938 1.391 . S
C941 C940 1.392 . S
N942 Co886 2.257 . S
N942 C939 1.391 . S
N942 C943 1.388 . S
C943 H914 0.930 . S
C943 C938 1.391 . S
C943 N942 1.388 . S
Co944 O946 2.143 . S
Co944 O952 2.074 . S
Co944 O955 2.093 . S
Co944 O968 2.097 . S
Co944 N985 2.151 . S
Co944 N993 2.214 . S
Co945 O946 2.160 . S
Co945 O951 2.058 . S
Co945 O961 2.057 . S
Co945 O976 2.037 . S
Co945 N980 2.145 . S
Co945 N1001 2.257 . S
O946 Co944 2.143 . S
O946 Co945 2.160 . S
C947 O948 1.278 . S
C947 O955 1.224 . S
O948 C947 1.278 . S
C949 O950 1.245 . S
C949 O961 1.232 . S
O950 C949 1.245 . S
O951 Co945 2.058 . S
O951 C977 1.269 . S
O952 Co944 2.074 . S
O952 C977 1.257 . S
H953 C978 0.930 . S
H954 C984 0.930 . S
O955 Co944 2.093 . S
O955 C947 1.224 . S
H956 C988 0.929 . S
H957 C990 0.930 . S
H958 C991 0.930 . S
H959 C989 0.929 . S
H960 C992 0.928 . S
O961 Co945 2.057 . S
O961 C949 1.232 . S
H962 C981 0.929 . S
H963 C982 0.929 . S
H964 C994 0.931 . S
H965 C986 0.929 . S
H966 C995 0.930 . S
H967 C987 0.931 . S
O968 Co944 2.097 . S
O968 C996 1.214 . S
H969 C997 0.929 . S
H970 C998 0.929 . S
H971 C999 0.930 . S
H972 C1000 0.929 . S
H973 C1002 0.930 . S
H974 C979 0.930 . S
H975 C983 0.930 . S
O976 Co945 2.037 . S
O976 C996 1.234 . S
C977 O951 1.269 . S
C977 O952 1.257 . S
C978 H953 0.930 . S
C978 C981 1.388 . S
C978 C983 1.418 . S
C979 H974 0.930 . S
C979 C982 1.404 . S
C979 C983 1.353 . S
N980 Co945 2.145 . S
N980 C981 1.397 . S
N980 C982 1.334 . S
C981 H962 0.929 . S
C981 C978 1.388 . S
C981 N980 1.397 . S
C982 H963 0.929 . S
C982 C979 1.404 . S
C982 N980 1.334 . S
C983 H975 0.930 . S
C983 C978 1.418 . S
C983 C979 1.353 . S
C984 H954 0.930 . S
C984 N985 1.330 . S
C984 C986 1.446 . S
N985 Co944 2.151 . S
N985 C984 1.330 . S
N985 C989 1.418 . S
C986 H965 0.929 . S
C986 C984 1.446 . S
C986 C987 1.332 . S
C987 H967 0.931 . S
C987 C986 1.332 . S
C987 C988 1.267 . S
C988 H956 0.929 . S
C988 C987 1.267 . S
C988 C989 1.251 . S
C989 H959 0.929 . S
C989 N985 1.418 . S
C989 C988 1.251 . S
C990 H957 0.930 . S
C990 C992 1.406 . S
C990 C995 1.261 . S
C991 H958 0.930 . S
C991 N993 1.325 . S
C991 C994 1.357 . S
C992 H960 0.928 . S
C992 C990 1.406 . S
C992 N993 1.261 . S
N993 Co944 2.214 . S
N993 C991 1.325 . S
N993 C992 1.261 . S
C994 H964 0.931 . S
C994 C991 1.357 . S
C994 C995 1.312 . S
C995 H966 0.930 . S
C995 C990 1.261 . S
C995 C994 1.312 . S
C996 O968 1.214 . S
C996 O976 1.234 . S
C997 H969 0.929 . S
C997 C1000 1.391 . S
C997 C1002 1.391 . S
C998 H970 0.929 . S
C998 C999 1.390 . S
C998 N1001 1.391 . S
C999 H971 0.930 . S
C999 C998 1.390 . S
C999 C1000 1.392 . S
C1000 H972 0.929 . S
C1000 C997 1.391 . S
C1000 C999 1.392 . S
N1001 Co945 2.257 . S
N1001 C998 1.391 . S
N1001 C1002 1.388 . S
C1002 H973 0.930 . S
C1002 C997 1.391 . S
C1002 N1001 1.388 . S
Co1003 O1005 2.143 . S
Co1003 O1011 2.074 . S
Co1003 O1014 2.093 . S
Co1003 O1027 2.097 . S
Co1003 N1044 2.151 . S
Co1003 N1052 2.214 . S
Co1004 O1005 2.160 . S
Co1004 O1010 2.058 . S
Co1004 O1020 2.057 . S
Co1004 O1035 2.037 . S
Co1004 N1039 2.145 . S
Co1004 N1060 2.257 . S
O1005 Co1003 2.143 . S
O1005 Co1004 2.160 . S
C1006 O1007 1.278 . S
C1006 O1014 1.224 . S
O1007 C1006 1.278 . S
C1008 O1009 1.245 . S
C1008 O1020 1.232 . S
O1009 C1008 1.245 . S
O1010 Co1004 2.058 . S
O1010 C1036 1.269 . S
O1011 Co1003 2.074 . S
O1011 C1036 1.257 . S
H1012 C1037 0.930 . S
H1013 C1043 0.930 . S
O1014 Co1003 2.093 . S
O1014 C1006 1.224 . S
H1015 C1047 0.929 . S
H1016 C1049 0.930 . S
H1017 C1050 0.930 . S
H1018 C1048 0.929 . S
H1019 C1051 0.928 . S
O1020 Co1004 2.057 . S
O1020 C1008 1.232 . S
H1021 C1040 0.929 . S
H1022 C1041 0.929 . S
H1023 C1053 0.931 . S
H1024 C1045 0.929 . S
H1025 C1054 0.930 . S
H1026 C1046 0.931 . S
O1027 Co1003 2.097 . S
O1027 C1055 1.214 . S
H1028 C1056 0.929 . S
H1029 C1057 0.929 . S
H1030 C1058 0.930 . S
H1031 C1059 0.929 . S
H1032 C1061 0.930 . S
H1033 C1038 0.930 . S
H1034 C1042 0.930 . S
O1035 Co1004 2.037 . S
O1035 C1055 1.234 . S
C1036 O1010 1.269 . S
C1036 O1011 1.257 . S
C1037 H1012 0.930 . S
C1037 C1040 1.388 . S
C1037 C1042 1.418 . S
C1038 H1033 0.930 . S
C1038 C1041 1.404 . S
C1038 C1042 1.353 . S
N1039 Co1004 2.145 . S
N1039 C1040 1.397 . S
N1039 C1041 1.334 . S
C1040 H1021 0.929 . S
C1040 C1037 1.388 . S
C1040 N1039 1.397 . S
C1041 H1022 0.929 . S
C1041 C1038 1.404 . S
C1041 N1039 1.334 . S
C1042 H1034 0.930 . S
C1042 C1037 1.418 . S
C1042 C1038 1.353 . S
C1043 H1013 0.930 . S
C1043 N1044 1.330 . S
C1043 C1045 1.446 . S
N1044 Co1003 2.151 . S
N1044 C1043 1.330 . S
N1044 C1048 1.418 . S
C1045 H1024 0.929 . S
C1045 C1043 1.446 . S
C1045 C1046 1.332 . S
C1046 H1026 0.931 . S
C1046 C1045 1.332 . S
C1046 C1047 1.267 . S
C1047 H1015 0.929 . S
C1047 C1046 1.267 . S
C1047 C1048 1.251 . S
C1048 H1018 0.929 . S
C1048 N1044 1.418 . S
C1048 C1047 1.251 . S
C1049 H1016 0.930 . S
C1049 C1051 1.406 . S
C1049 C1054 1.261 . S
C1050 H1017 0.930 . S
C1050 N1052 1.325 . S
C1050 C1053 1.357 . S
C1051 H1019 0.928 . S
C1051 C1049 1.406 . S
C1051 N1052 1.261 . S
N1052 Co1003 2.214 . S
N1052 C1050 1.325 . S
N1052 C1051 1.261 . S
C1053 H1023 0.931 . S
C1053 C1050 1.357 . S
C1053 C1054 1.312 . S
C1054 H1025 0.930 . S
C1054 C1049 1.261 . S
C1054 C1053 1.312 . S
C1055 O1027 1.214 . S
C1055 O1035 1.234 . S
C1056 H1028 0.929 . S
C1056 C1059 1.391 . S
C1056 C1061 1.391 . S
C1057 H1029 0.929 . S
C1057 C1058 1.390 . S
C1057 N1060 1.391 . S
C1058 H1030 0.930 . S
C1058 C1057 1.390 . S
C1058 C1059 1.392 . S
C1059 H1031 0.929 . S
C1059 C1056 1.391 . S
C1059 C1058 1.392 . S
N1060 Co1004 2.257 . S
N1060 C1057 1.391 . S
N1060 C1061 1.388 . S
C1061 H1032 0.930 . S
C1061 C1056 1.391 . S
C1061 N1060 1.388 . S
Co1062 O1064 2.143 . S
Co1062 O1070 2.074 . S
Co1062 O1073 2.093 . S
Co1062 O1086 2.097 . S
Co1062 N1103 2.151 . S
Co1062 N1111 2.214 . S
Co1063 O1064 2.160 . S
Co1063 O1069 2.058 . S
Co1063 O1079 2.057 . S
Co1063 O1094 2.037 . S
Co1063 N1098 2.145 . S
Co1063 N1119 2.257 . S
O1064 Co1062 2.143 . S
O1064 Co1063 2.160 . S
C1065 O1066 1.278 . S
C1065 O1073 1.224 . S
O1066 C1065 1.278 . S
C1067 O1068 1.245 . S
C1067 O1079 1.232 . S
O1068 C1067 1.245 . S
O1069 Co1063 2.058 . S
O1069 C1095 1.269 . S
O1070 Co1062 2.074 . S
O1070 C1095 1.257 . S
H1071 C1096 0.930 . S
H1072 C1102 0.930 . S
O1073 Co1062 2.093 . S
O1073 C1065 1.224 . S
H1074 C1106 0.929 . S
H1075 C1108 0.930 . S
H1076 C1109 0.930 . S
H1077 C1107 0.929 . S
H1078 C1110 0.928 . S
O1079 Co1063 2.057 . S
O1079 C1067 1.232 . S
H1080 C1099 0.929 . S
H1081 C1100 0.929 . S
H1082 C1112 0.931 . S
H1083 C1104 0.929 . S
H1084 C1113 0.930 . S
H1085 C1105 0.931 . S
O1086 Co1062 2.097 . S
O1086 C1114 1.214 . S
H1087 C1115 0.929 . S
H1088 C1116 0.929 . S
H1089 C1117 0.930 . S
H1090 C1118 0.929 . S
H1091 C1120 0.930 . S
H1092 C1097 0.930 . S
H1093 C1101 0.930 . S
O1094 Co1063 2.037 . S
O1094 C1114 1.234 . S
C1095 O1069 1.269 . S
C1095 O1070 1.257 . S
C1096 H1071 0.930 . S
C1096 C1099 1.388 . S
C1096 C1101 1.418 . S
C1097 H1092 0.930 . S
C1097 C1100 1.404 . S
C1097 C1101 1.353 . S
N1098 Co1063 2.145 . S
N1098 C1099 1.397 . S
N1098 C1100 1.334 . S
C1099 H1080 0.929 . S
C1099 C1096 1.388 . S
C1099 N1098 1.397 . S
C1100 H1081 0.929 . S
C1100 C1097 1.404 . S
C1100 N1098 1.334 . S
C1101 H1093 0.930 . S
C1101 C1096 1.418 . S
C1101 C1097 1.353 . S
C1102 H1072 0.930 . S
C1102 N1103 1.330 . S
C1102 C1104 1.446 . S
N1103 Co1062 2.151 . S
N1103 C1102 1.330 . S
N1103 C1107 1.418 . S
C1104 H1083 0.929 . S
C1104 C1102 1.446 . S
C1104 C1105 1.332 . S
C1105 H1085 0.931 . S
C1105 C1104 1.332 . S
C1105 C1106 1.267 . S
C1106 H1074 0.929 . S
C1106 C1105 1.267 . S
C1106 C1107 1.251 . S
C1107 H1077 0.929 . S
C1107 N1103 1.418 . S
C1107 C1106 1.251 . S
C1108 H1075 0.930 . S
C1108 C1110 1.406 . S
C1108 C1113 1.261 . S
C1109 H1076 0.930 . S
C1109 N1111 1.325 . S
C1109 C1112 1.357 . S
C1110 H1078 0.928 . S
C1110 C1108 1.406 . S
C1110 N1111 1.261 . S
N1111 Co1062 2.214 . S
N1111 C1109 1.325 . S
N1111 C1110 1.261 . S
C1112 H1082 0.931 . S
C1112 C1109 1.357 . S
C1112 C1113 1.312 . S
C1113 H1084 0.930 . S
C1113 C1108 1.261 . S
C1113 C1112 1.312 . S
C1114 O1086 1.214 . S
C1114 O1094 1.234 . S
C1115 H1087 0.929 . S
C1115 C1118 1.391 . S
C1115 C1120 1.391 . S
C1116 H1088 0.929 . S
C1116 C1117 1.390 . S
C1116 N1119 1.391 . S
C1117 H1089 0.930 . S
C1117 C1116 1.390 . S
C1117 C1118 1.392 . S
C1118 H1090 0.929 . S
C1118 C1115 1.391 . S
C1118 C1117 1.392 . S
N1119 Co1063 2.257 . S
N1119 C1116 1.391 . S
N1119 C1120 1.388 . S
C1120 H1091 0.930 . S
C1120 C1115 1.391 . S
C1120 N1119 1.388 . S
Co1121 O1123 2.143 . S
Co1121 O1129 2.074 . S
Co1121 O1132 2.093 . S
Co1121 O1145 2.097 . S
Co1121 N1162 2.151 . S
Co1121 N1170 2.214 . S
Co1122 O1123 2.160 . S
Co1122 O1128 2.058 . S
Co1122 O1138 2.057 . S
Co1122 O1153 2.037 . S
Co1122 N1157 2.145 . S
Co1122 N1178 2.257 . S
O1123 Co1121 2.143 . S
O1123 Co1122 2.160 . S
C1124 O1125 1.278 . S
C1124 O1132 1.224 . S
O1125 C1124 1.278 . S
C1126 O1127 1.245 . S
C1126 O1138 1.232 . S
O1127 C1126 1.245 . S
O1128 Co1122 2.058 . S
O1128 C1154 1.269 . S
O1129 Co1121 2.074 . S
O1129 C1154 1.257 . S
H1130 C1155 0.930 . S
H1131 C1161 0.930 . S
O1132 Co1121 2.093 . S
O1132 C1124 1.224 . S
H1133 C1165 0.929 . S
H1134 C1167 0.930 . S
H1135 C1168 0.930 . S
H1136 C1166 0.929 . S
H1137 C1169 0.928 . S
O1138 Co1122 2.057 . S
O1138 C1126 1.232 . S
H1139 C1158 0.929 . S
H1140 C1159 0.929 . S
H1141 C1171 0.931 . S
H1142 C1163 0.929 . S
H1143 C1172 0.930 . S
H1144 C1164 0.931 . S
O1145 Co1121 2.097 . S
O1145 C1173 1.214 . S
H1146 C1174 0.929 . S
H1147 C1175 0.929 . S
H1148 C1176 0.930 . S
H1149 C1177 0.929 . S
H1150 C1179 0.930 . S
H1151 C1156 0.930 . S
H1152 C1160 0.930 . S
O1153 Co1122 2.037 . S
O1153 C1173 1.234 . S
C1154 O1128 1.269 . S
C1154 O1129 1.257 . S
C1155 H1130 0.930 . S
C1155 C1158 1.388 . S
C1155 C1160 1.418 . S
C1156 H1151 0.930 . S
C1156 C1159 1.404 . S
C1156 C1160 1.353 . S
N1157 Co1122 2.145 . S
N1157 C1158 1.397 . S
N1157 C1159 1.334 . S
C1158 H1139 0.929 . S
C1158 C1155 1.388 . S
C1158 N1157 1.397 . S
C1159 H1140 0.929 . S
C1159 C1156 1.404 . S
C1159 N1157 1.334 . S
C1160 H1152 0.930 . S
C1160 C1155 1.418 . S
C1160 C1156 1.353 . S
C1161 H1131 0.930 . S
C1161 N1162 1.330 . S
C1161 C1163 1.446 . S
N1162 Co1121 2.151 . S
N1162 C1161 1.330 . S
N1162 C1166 1.418 . S
C1163 H1142 0.929 . S
C1163 C1161 1.446 . S
C1163 C1164 1.332 . S
C1164 H1144 0.931 . S
C1164 C1163 1.332 . S
C1164 C1165 1.267 . S
C1165 H1133 0.929 . S
C1165 C1164 1.267 . S
C1165 C1166 1.251 . S
C1166 H1136 0.929 . S
C1166 N1162 1.418 . S
C1166 C1165 1.251 . S
C1167 H1134 0.930 . S
C1167 C1169 1.406 . S
C1167 C1172 1.261 . S
C1168 H1135 0.930 . S
C1168 N1170 1.325 . S
C1168 C1171 1.357 . S
C1169 H1137 0.928 . S
C1169 C1167 1.406 . S
C1169 N1170 1.261 . S
N1170 Co1121 2.214 . S
N1170 C1168 1.325 . S
N1170 C1169 1.261 . S
C1171 H1141 0.931 . S
C1171 C1168 1.357 . S
C1171 C1172 1.312 . S
C1172 H1143 0.930 . S
C1172 C1167 1.261 . S
C1172 C1171 1.312 . S
C1173 O1145 1.214 . S
C1173 O1153 1.234 . S
C1174 H1146 0.929 . S
C1174 C1177 1.391 . S
C1174 C1179 1.391 . S
C1175 H1147 0.929 . S
C1175 C1176 1.390 . S
C1175 N1178 1.391 . S
C1176 H1148 0.930 . S
C1176 C1175 1.390 . S
C1176 C1177 1.392 . S
C1177 H1149 0.929 . S
C1177 C1174 1.391 . S
C1177 C1176 1.392 . S
N1178 Co1122 2.257 . S
N1178 C1175 1.391 . S
N1178 C1179 1.388 . S
C1179 H1150 0.930 . S
C1179 C1174 1.391 . S
C1179 N1178 1.388 . S
Co1180 O1182 2.143 . S
Co1180 O1188 2.074 . S
Co1180 O1191 2.093 . S
Co1180 O1204 2.097 . S
Co1180 N1221 2.151 . S
Co1180 N1229 2.214 . S
Co1181 O1182 2.160 . S
Co1181 O1187 2.058 . S
Co1181 O1197 2.057 . S
Co1181 O1212 2.037 . S
Co1181 N1216 2.145 . S
Co1181 N1237 2.257 . S
O1182 Co1180 2.143 . S
O1182 Co1181 2.160 . S
C1183 O1184 1.278 . S
C1183 O1191 1.224 . S
O1184 C1183 1.278 . S
C1185 O1186 1.245 . S
C1185 O1197 1.232 . S
O1186 C1185 1.245 . S
O1187 Co1181 2.058 . S
O1187 C1213 1.269 . S
O1188 Co1180 2.074 . S
O1188 C1213 1.257 . S
H1189 C1214 0.930 . S
H1190 C1220 0.930 . S
O1191 Co1180 2.093 . S
O1191 C1183 1.224 . S
H1192 C1224 0.929 . S
H1193 C1226 0.930 . S
H1194 C1227 0.930 . S
H1195 C1225 0.929 . S
H1196 C1228 0.928 . S
O1197 Co1181 2.057 . S
O1197 C1185 1.232 . S
H1198 C1217 0.929 . S
H1199 C1218 0.929 . S
H1200 C1230 0.931 . S
H1201 C1222 0.929 . S
H1202 C1231 0.930 . S
H1203 C1223 0.931 . S
O1204 Co1180 2.097 . S
O1204 C1232 1.214 . S
H1205 C1233 0.929 . S
H1206 C1234 0.929 . S
H1207 C1235 0.930 . S
H1208 C1236 0.929 . S
H1209 C1238 0.930 . S
H1210 C1215 0.930 . S
H1211 C1219 0.930 . S
O1212 Co1181 2.037 . S
O1212 C1232 1.234 . S
C1213 O1187 1.269 . S
C1213 O1188 1.257 . S
C1214 H1189 0.930 . S
C1214 C1217 1.388 . S
C1214 C1219 1.418 . S
C1215 H1210 0.930 . S
C1215 C1218 1.404 . S
C1215 C1219 1.353 . S
N1216 Co1181 2.145 . S
N1216 C1217 1.397 . S
N1216 C1218 1.334 . S
C1217 H1198 0.929 . S
C1217 C1214 1.388 . S
C1217 N1216 1.397 . S
C1218 H1199 0.929 . S
C1218 C1215 1.404 . S
C1218 N1216 1.334 . S
C1219 H1211 0.930 . S
C1219 C1214 1.418 . S
C1219 C1215 1.353 . S
C1220 H1190 0.930 . S
C1220 N1221 1.330 . S
C1220 C1222 1.446 . S
N1221 Co1180 2.151 . S
N1221 C1220 1.330 . S
N1221 C1225 1.418 . S
C1222 H1201 0.929 . S
C1222 C1220 1.446 . S
C1222 C1223 1.332 . S
C1223 H1203 0.931 . S
C1223 C1222 1.332 . S
C1223 C1224 1.267 . S
C1224 H1192 0.929 . S
C1224 C1223 1.267 . S
C1224 C1225 1.251 . S
C1225 H1195 0.929 . S
C1225 N1221 1.418 . S
C1225 C1224 1.251 . S
C1226 H1193 0.930 . S
C1226 C1228 1.406 . S
C1226 C1231 1.261 . S
C1227 H1194 0.930 . S
C1227 N1229 1.325 . S
C1227 C1230 1.357 . S
C1228 H1196 0.928 . S
C1228 C1226 1.406 . S
C1228 N1229 1.261 . S
N1229 Co1180 2.214 . S
N1229 C1227 1.325 . S
N1229 C1228 1.261 . S
C1230 H1200 0.931 . S
C1230 C1227 1.357 . S
C1230 C1231 1.312 . S
C1231 H1202 0.930 . S
C1231 C1226 1.261 . S
C1231 C1230 1.312 . S
C1232 O1204 1.214 . S
C1232 O1212 1.234 . S
C1233 H1205 0.929 . S
C1233 C1236 1.391 . S
C1233 C1238 1.391 . S
C1234 H1206 0.929 . S
C1234 C1235 1.390 . S
C1234 N1237 1.391 . S
C1235 H1207 0.930 . S
C1235 C1234 1.390 . S
C1235 C1236 1.392 . S
C1236 H1208 0.929 . S
C1236 C1233 1.391 . S
C1236 C1235 1.392 . S
N1237 Co1181 2.257 . S
N1237 C1234 1.391 . S
N1237 C1238 1.388 . S
C1238 H1209 0.930 . S
C1238 C1233 1.391 . S
C1238 N1237 1.388 . S
Co1239 O1241 2.143 . S
Co1239 O1247 2.074 . S
Co1239 O1250 2.093 . S
Co1239 O1263 2.097 . S
Co1239 N1280 2.151 . S
Co1239 N1288 2.214 . S
Co1240 O1241 2.160 . S
Co1240 O1246 2.058 . S
Co1240 O1256 2.057 . S
Co1240 O1271 2.037 . S
Co1240 N1275 2.145 . S
Co1240 N1296 2.257 . S
O1241 Co1239 2.143 . S
O1241 Co1240 2.160 . S
C1242 O1243 1.278 . S
C1242 O1250 1.224 . S
O1243 C1242 1.278 . S
C1244 O1245 1.245 . S
C1244 O1256 1.232 . S
O1245 C1244 1.245 . S
O1246 Co1240 2.058 . S
O1246 C1272 1.269 . S
O1247 Co1239 2.074 . S
O1247 C1272 1.257 . S
H1248 C1273 0.930 . S
H1249 C1279 0.930 . S
O1250 Co1239 2.093 . S
O1250 C1242 1.224 . S
H1251 C1283 0.929 . S
H1252 C1285 0.930 . S
H1253 C1286 0.930 . S
H1254 C1284 0.929 . S
H1255 C1287 0.928 . S
O1256 Co1240 2.057 . S
O1256 C1244 1.232 . S
H1257 C1276 0.929 . S
H1258 C1277 0.929 . S
H1259 C1289 0.931 . S
H1260 C1281 0.929 . S
H1261 C1290 0.930 . S
H1262 C1282 0.931 . S
O1263 Co1239 2.097 . S
O1263 C1291 1.214 . S
H1264 C1292 0.929 . S
H1265 C1293 0.929 . S
H1266 C1294 0.930 . S
H1267 C1295 0.929 . S
H1268 C1297 0.930 . S
H1269 C1274 0.930 . S
H1270 C1278 0.930 . S
O1271 Co1240 2.037 . S
O1271 C1291 1.234 . S
C1272 O1246 1.269 . S
C1272 O1247 1.257 . S
C1273 H1248 0.930 . S
C1273 C1276 1.388 . S
C1273 C1278 1.418 . S
C1274 H1269 0.930 . S
C1274 C1277 1.404 . S
C1274 C1278 1.353 . S
N1275 Co1240 2.145 . S
N1275 C1276 1.397 . S
N1275 C1277 1.334 . S
C1276 H1257 0.929 . S
C1276 C1273 1.388 . S
C1276 N1275 1.397 . S
C1277 H1258 0.929 . S
C1277 C1274 1.404 . S
C1277 N1275 1.334 . S
C1278 H1270 0.930 . S
C1278 C1273 1.418 . S
C1278 C1274 1.353 . S
C1279 H1249 0.930 . S
C1279 N1280 1.330 . S
C1279 C1281 1.446 . S
N1280 Co1239 2.151 . S
N1280 C1279 1.330 . S
N1280 C1284 1.418 . S
C1281 H1260 0.929 . S
C1281 C1279 1.446 . S
C1281 C1282 1.332 . S
C1282 H1262 0.931 . S
C1282 C1281 1.332 . S
C1282 C1283 1.267 . S
C1283 H1251 0.929 . S
C1283 C1282 1.267 . S
C1283 C1284 1.251 . S
C1284 H1254 0.929 . S
C1284 N1280 1.418 . S
C1284 C1283 1.251 . S
C1285 H1252 0.930 . S
C1285 C1287 1.406 . S
C1285 C1290 1.261 . S
C1286 H1253 0.930 . S
C1286 N1288 1.325 . S
C1286 C1289 1.357 . S
C1287 H1255 0.928 . S
C1287 C1285 1.406 . S
C1287 N1288 1.261 . S
N1288 Co1239 2.214 . S
N1288 C1286 1.325 . S
N1288 C1287 1.261 . S
C1289 H1259 0.931 . S
C1289 C1286 1.357 . S
C1289 C1290 1.312 . S
C1290 H1261 0.930 . S
C1290 C1285 1.261 . S
C1290 C1289 1.312 . S
C1291 O1263 1.214 . S
C1291 O1271 1.234 . S
C1292 H1264 0.929 . S
C1292 C1295 1.391 . S
C1292 C1297 1.391 . S
C1293 H1265 0.929 . S
C1293 C1294 1.390 . S
C1293 N1296 1.391 . S
C1294 H1266 0.930 . S
C1294 C1293 1.390 . S
C1294 C1295 1.392 . S
C1295 H1267 0.929 . S
C1295 C1292 1.391 . S
C1295 C1294 1.392 . S
N1296 Co1240 2.257 . S
N1296 C1293 1.391 . S
N1296 C1297 1.388 . S
C1297 H1268 0.930 . S
C1297 C1292 1.391 . S
C1297 N1296 1.388 . S
Co1298 O1300 2.143 . S
Co1298 O1306 2.074 . S
Co1298 O1309 2.093 . S
Co1298 O1322 2.097 . S
Co1298 N1339 2.151 . S
Co1298 N1347 2.214 . S
Co1299 O1300 2.160 . S
Co1299 O1305 2.058 . S
Co1299 O1315 2.057 . S
Co1299 O1330 2.037 . S
Co1299 N1334 2.145 . S
Co1299 N1355 2.257 . S
O1300 Co1298 2.143 . S
O1300 Co1299 2.160 . S
C1301 O1302 1.278 . S
C1301 O1309 1.224 . S
O1302 C1301 1.278 . S
C1303 O1304 1.245 . S
C1303 O1315 1.232 . S
O1304 C1303 1.245 . S
O1305 Co1299 2.058 . S
O1305 C1331 1.269 . S
O1306 Co1298 2.074 . S
O1306 C1331 1.257 . S
H1307 C1332 0.930 . S
H1308 C1338 0.930 . S
O1309 Co1298 2.093 . S
O1309 C1301 1.224 . S
H1310 C1342 0.929 . S
H1311 C1344 0.930 . S
H1312 C1345 0.930 . S
H1313 C1343 0.929 . S
H1314 C1346 0.928 . S
O1315 Co1299 2.057 . S
O1315 C1303 1.232 . S
H1316 C1335 0.929 . S
H1317 C1336 0.929 . S
H1318 C1348 0.931 . S
H1319 C1340 0.929 . S
H1320 C1349 0.930 . S
H1321 C1341 0.931 . S
O1322 Co1298 2.097 . S
O1322 C1350 1.214 . S
H1323 C1351 0.929 . S
H1324 C1352 0.929 . S
H1325 C1353 0.930 . S
H1326 C1354 0.929 . S
H1327 C1356 0.930 . S
H1328 C1333 0.930 . S
H1329 C1337 0.930 . S
O1330 Co1299 2.037 . S
O1330 C1350 1.234 . S
C1331 O1305 1.269 . S
C1331 O1306 1.257 . S
C1332 H1307 0.930 . S
C1332 C1335 1.388 . S
C1332 C1337 1.418 . S
C1333 H1328 0.930 . S
C1333 C1336 1.404 . S
C1333 C1337 1.353 . S
N1334 Co1299 2.145 . S
N1334 C1335 1.397 . S
N1334 C1336 1.334 . S
C1335 H1316 0.929 . S
C1335 C1332 1.388 . S
C1335 N1334 1.397 . S
C1336 H1317 0.929 . S
C1336 C1333 1.404 . S
C1336 N1334 1.334 . S
C1337 H1329 0.930 . S
C1337 C1332 1.418 . S
C1337 C1333 1.353 . S
C1338 H1308 0.930 . S
C1338 N1339 1.330 . S
C1338 C1340 1.446 . S
N1339 Co1298 2.151 . S
N1339 C1338 1.330 . S
N1339 C1343 1.418 . S
C1340 H1319 0.929 . S
C1340 C1338 1.446 . S
C1340 C1341 1.332 . S
C1341 H1321 0.931 . S
C1341 C1340 1.332 . S
C1341 C1342 1.267 . S
C1342 H1310 0.929 . S
C1342 C1341 1.267 . S
C1342 C1343 1.251 . S
C1343 H1313 0.929 . S
C1343 N1339 1.418 . S
C1343 C1342 1.251 . S
C1344 H1311 0.930 . S
C1344 C1346 1.406 . S
C1344 C1349 1.261 . S
C1345 H1312 0.930 . S
C1345 N1347 1.325 . S
C1345 C1348 1.357 . S
C1346 H1314 0.928 . S
C1346 C1344 1.406 . S
C1346 N1347 1.261 . S
N1347 Co1298 2.214 . S
N1347 C1345 1.325 . S
N1347 C1346 1.261 . S
C1348 H1318 0.931 . S
C1348 C1345 1.357 . S
C1348 C1349 1.312 . S
C1349 H1320 0.930 . S
C1349 C1344 1.261 . S
C1349 C1348 1.312 . S
C1350 O1322 1.214 . S
C1350 O1330 1.234 . S
C1351 H1323 0.929 . S
C1351 C1354 1.391 . S
C1351 C1356 1.391 . S
C1352 H1324 0.929 . S
C1352 C1353 1.390 . S
C1352 N1355 1.391 . S
C1353 H1325 0.930 . S
C1353 C1352 1.390 . S
C1353 C1354 1.392 . S
C1354 H1326 0.929 . S
C1354 C1351 1.391 . S
C1354 C1353 1.392 . S
N1355 Co1299 2.257 . S
N1355 C1352 1.391 . S
N1355 C1356 1.388 . S
C1356 H1327 0.930 . S
C1356 C1351 1.391 . S
C1356 N1355 1.388 . S
Co1357 O1359 2.143 . S
Co1357 O1365 2.074 . S
Co1357 O1368 2.093 . S
Co1357 O1381 2.097 . S
Co1357 N1398 2.151 . S
Co1357 N1406 2.214 . S
Co1358 O1359 2.160 . S
Co1358 O1364 2.058 . S
Co1358 O1374 2.057 . S
Co1358 O1389 2.037 . S
Co1358 N1393 2.145 . S
Co1358 N1414 2.257 . S
O1359 Co1357 2.143 . S
O1359 Co1358 2.160 . S
C1360 O1361 1.278 . S
C1360 O1368 1.224 . S
O1361 C1360 1.278 . S
C1362 O1363 1.245 . S
C1362 O1374 1.232 . S
O1363 C1362 1.245 . S
O1364 Co1358 2.058 . S
O1364 C1390 1.269 . S
O1365 Co1357 2.074 . S
O1365 C1390 1.257 . S
H1366 C1391 0.930 . S
H1367 C1397 0.930 . S
O1368 Co1357 2.093 . S
O1368 C1360 1.224 . S
H1369 C1401 0.929 . S
H1370 C1403 0.930 . S
H1371 C1404 0.930 . S
H1372 C1402 0.929 . S
H1373 C1405 0.928 . S
O1374 Co1358 2.057 . S
O1374 C1362 1.232 . S
H1375 C1394 0.929 . S
H1376 C1395 0.929 . S
H1377 C1407 0.931 . S
H1378 C1399 0.929 . S
H1379 C1408 0.930 . S
H1380 C1400 0.931 . S
O1381 Co1357 2.097 . S
O1381 C1409 1.214 . S
H1382 C1410 0.929 . S
H1383 C1411 0.929 . S
H1384 C1412 0.930 . S
H1385 C1413 0.929 . S
H1386 C1415 0.930 . S
H1387 C1392 0.930 . S
H1388 C1396 0.930 . S
O1389 Co1358 2.037 . S
O1389 C1409 1.234 . S
C1390 O1364 1.269 . S
C1390 O1365 1.257 . S
C1391 H1366 0.930 . S
C1391 C1394 1.388 . S
C1391 C1396 1.418 . S
C1392 H1387 0.930 . S
C1392 C1395 1.404 . S
C1392 C1396 1.353 . S
N1393 Co1358 2.145 . S
N1393 C1394 1.397 . S
N1393 C1395 1.334 . S
C1394 H1375 0.929 . S
C1394 C1391 1.388 . S
C1394 N1393 1.397 . S
C1395 H1376 0.929 . S
C1395 C1392 1.404 . S
C1395 N1393 1.334 . S
C1396 H1388 0.930 . S
C1396 C1391 1.418 . S
C1396 C1392 1.353 . S
C1397 H1367 0.930 . S
C1397 N1398 1.330 . S
C1397 C1399 1.446 . S
N1398 Co1357 2.151 . S
N1398 C1397 1.330 . S
N1398 C1402 1.418 . S
C1399 H1378 0.929 . S
C1399 C1397 1.446 . S
C1399 C1400 1.332 . S
C1400 H1380 0.931 . S
C1400 C1399 1.332 . S
C1400 C1401 1.267 . S
C1401 H1369 0.929 . S
C1401 C1400 1.267 . S
C1401 C1402 1.251 . S
C1402 H1372 0.929 . S
C1402 N1398 1.418 . S
C1402 C1401 1.251 . S
C1403 H1370 0.930 . S
C1403 C1405 1.406 . S
C1403 C1408 1.261 . S
C1404 H1371 0.930 . S
C1404 N1406 1.325 . S
C1404 C1407 1.357 . S
C1405 H1373 0.928 . S
C1405 C1403 1.406 . S
C1405 N1406 1.261 . S
N1406 Co1357 2.214 . S
N1406 C1404 1.325 . S
N1406 C1405 1.261 . S
C1407 H1377 0.931 . S
C1407 C1404 1.357 . S
C1407 C1408 1.312 . S
C1408 H1379 0.930 . S
C1408 C1403 1.261 . S
C1408 C1407 1.312 . S
C1409 O1381 1.214 . S
C1409 O1389 1.234 . S
C1410 H1382 0.929 . S
C1410 C1413 1.391 . S
C1410 C1415 1.391 . S
C1411 H1383 0.929 . S
C1411 C1412 1.390 . S
C1411 N1414 1.391 . S
C1412 H1384 0.930 . S
C1412 C1411 1.390 . S
C1412 C1413 1.392 . S
C1413 H1385 0.929 . S
C1413 C1410 1.391 . S
C1413 C1412 1.392 . S
N1414 Co1358 2.257 . S
N1414 C1411 1.391 . S
N1414 C1415 1.388 . S
C1415 H1386 0.930 . S
C1415 C1410 1.391 . S
C1415 N1414 1.388 . S
H1416 C1422 0.930 . S
H1417 C1425 0.930 . S
H1418 C1426 0.930 . S
H1419 C1427 0.930 . S
H1420 C1430 0.930 . S
H1421 C1431 0.930 . S
C1422 H1416 0.930 . S
C1422 C1423 1.355 . S
C1422 C1424 1.415 . S
C1423 C1422 1.355 . S
C1423 C1425 1.419 . S
C1424 C1422 1.415 . S
C1424 C1429 1.425 . S
C1424 C1431 1.409 . S
C1425 H1417 0.930 . S
C1425 C1423 1.419 . S
C1425 C1426 1.362 . S
C1426 H1418 0.930 . S
C1426 C1425 1.362 . S
C1426 C1429 1.409 . S
C1427 H1419 0.930 . S
C1427 C1428 1.355 . S
C1427 C1429 1.415 . S
C1428 C1427 1.355 . S
C1428 C1430 1.419 . S
C1429 C1424 1.425 . S
C1429 C1426 1.409 . S
C1429 C1427 1.415 . S
C1430 H1420 0.930 . S
C1430 C1428 1.419 . S
C1430 C1431 1.362 . S
C1431 H1421 0.930 . S
C1431 C1424 1.409 . S
C1431 C1430 1.362 . S
H1432 C1438 0.930 . S
H1433 C1441 0.930 . S
H1434 C1442 0.930 . S
H1435 C1443 0.930 . S
H1436 C1446 0.930 . S
H1437 C1447 0.930 . S
C1438 H1432 0.930 . S
C1438 C1439 1.355 . S
C1438 C1440 1.415 . S
C1439 C1438 1.355 . S
C1439 C1441 1.419 . S
C1440 C1438 1.415 . S
C1440 C1445 1.425 . S
C1440 C1447 1.409 . S
C1441 H1433 0.930 . S
C1441 C1439 1.419 . S
C1441 C1442 1.362 . S
C1442 H1434 0.930 . S
C1442 C1441 1.362 . S
C1442 C1445 1.409 . S
C1443 H1435 0.930 . S
C1443 C1444 1.355 . S
C1443 C1445 1.415 . S
C1444 C1443 1.355 . S
C1444 C1446 1.419 . S
C1445 C1440 1.425 . S
C1445 C1442 1.409 . S
C1445 C1443 1.415 . S
C1446 H1436 0.930 . S
C1446 C1444 1.419 . S
C1446 C1447 1.362 . S
C1447 H1437 0.930 . S
C1447 C1440 1.409 . S
C1447 C1446 1.362 . S
H1448 C1454 0.930 . S
H1449 C1457 0.930 . S
H1450 C1458 0.930 . S
H1451 C1459 0.930 . S
H1452 C1462 0.930 . S
H1453 C1463 0.930 . S
C1454 H1448 0.930 . S
C1454 C1455 1.355 . S
C1454 C1456 1.415 . S
C1455 C1454 1.355 . S
C1455 C1457 1.419 . S
C1456 C1454 1.415 . S
C1456 C1461 1.425 . S
C1456 C1463 1.409 . S
C1457 H1449 0.930 . S
C1457 C1455 1.419 . S
C1457 C1458 1.362 . S
C1458 H1450 0.930 . S
C1458 C1457 1.362 . S
C1458 C1461 1.409 . S
C1459 H1451 0.930 . S
C1459 C1460 1.355 . S
C1459 C1461 1.415 . S
C1460 C1459 1.355 . S
C1460 C1462 1.419 . S
C1461 C1456 1.425 . S
C1461 C1458 1.409 . S
C1461 C1459 1.415 . S
C1462 H1452 0.930 . S
C1462 C1460 1.419 . S
C1462 C1463 1.362 . S
C1463 H1453 0.930 . S
C1463 C1456 1.409 . S
C1463 C1462 1.362 . S
H1464 C1470 0.930 . S
H1465 C1473 0.930 . S
H1466 C1474 0.930 . S
H1467 C1475 0.930 . S
H1468 C1478 0.930 . S
H1469 C1479 0.930 . S
C1470 H1464 0.930 . S
C1470 C1471 1.355 . S
C1470 C1472 1.415 . S
C1471 C1470 1.355 . S
C1471 C1473 1.419 . S
C1472 C1470 1.415 . S
C1472 C1477 1.425 . S
C1472 C1479 1.409 . S
C1473 H1465 0.930 . S
C1473 C1471 1.419 . S
C1473 C1474 1.362 . S
C1474 H1466 0.930 . S
C1474 C1473 1.362 . S
C1474 C1477 1.409 . S
C1475 H1467 0.930 . S
C1475 C1476 1.355 . S
C1475 C1477 1.415 . S
C1476 C1475 1.355 . S
C1476 C1478 1.419 . S
C1477 C1472 1.425 . S
C1477 C1474 1.409 . S
C1477 C1475 1.415 . S
C1478 H1468 0.930 . S
C1478 C1476 1.419 . S
C1478 C1479 1.362 . S
C1479 H1469 0.930 . S
C1479 C1472 1.409 . S
C1479 C1478 1.362 . S
H1480 C1486 0.930 . S
H1481 C1489 0.930 . S
H1482 C1490 0.930 . S
H1483 C1491 0.930 . S
H1484 C1494 0.930 . S
H1485 C1495 0.930 . S
C1486 H1480 0.930 . S
C1486 C1487 1.355 . S
C1486 C1488 1.415 . S
C1487 C1486 1.355 . S
C1487 C1489 1.419 . S
C1488 C1486 1.415 . S
C1488 C1493 1.425 . S
C1488 C1495 1.409 . S
C1489 H1481 0.930 . S
C1489 C1487 1.419 . S
C1489 C1490 1.362 . S
C1490 H1482 0.930 . S
C1490 C1489 1.362 . S
C1490 C1493 1.409 . S
C1491 H1483 0.930 . S
C1491 C1492 1.355 . S
C1491 C1493 1.415 . S
C1492 C1491 1.355 . S
C1492 C1494 1.419 . S
C1493 C1488 1.425 . S
C1493 C1490 1.409 . S
C1493 C1491 1.415 . S
C1494 H1484 0.930 . S
C1494 C1492 1.419 . S
C1494 C1495 1.362 . S
C1495 H1485 0.930 . S
C1495 C1488 1.409 . S
C1495 C1494 1.362 . S
H1496 C1502 0.930 . S
H1497 C1505 0.930 . S
H1498 C1506 0.930 . S
H1499 C1507 0.930 . S
H1500 C1510 0.930 . S
H1501 C1511 0.930 . S
C1502 H1496 0.930 . S
C1502 C1503 1.355 . S
C1502 C1504 1.415 . S
C1503 C1502 1.355 . S
C1503 C1505 1.419 . S
C1504 C1502 1.415 . S
C1504 C1509 1.425 . S
C1504 C1511 1.409 . S
C1505 H1497 0.930 . S
C1505 C1503 1.419 . S
C1505 C1506 1.362 . S
C1506 H1498 0.930 . S
C1506 C1505 1.362 . S
C1506 C1509 1.409 . S
C1507 H1499 0.930 . S
C1507 C1508 1.355 . S
C1507 C1509 1.415 . S
C1508 C1507 1.355 . S
C1508 C1510 1.419 . S
C1509 C1504 1.425 . S
C1509 C1506 1.409 . S
C1509 C1507 1.415 . S
C1510 H1500 0.930 . S
C1510 C1508 1.419 . S
C1510 C1511 1.362 . S
C1511 H1501 0.930 . S
C1511 C1504 1.409 . S
C1511 C1510 1.362 . S
H1512 C1518 0.930 . S
H1513 C1521 0.930 . S
H1514 C1522 0.930 . S
H1515 C1523 0.930 . S
H1516 C1526 0.930 . S
H1517 C1527 0.930 . S
C1518 H1512 0.930 . S
C1518 C1519 1.355 . S
C1518 C1520 1.415 . S
C1519 C1518 1.355 . S
C1519 C1521 1.419 . S
C1520 C1518 1.415 . S
C1520 C1525 1.425 . S
C1520 C1527 1.409 . S
C1521 H1513 0.930 . S
C1521 C1519 1.419 . S
C1521 C1522 1.362 . S
C1522 H1514 0.930 . S
C1522 C1521 1.362 . S
C1522 C1525 1.409 . S
C1523 H1515 0.930 . S
C1523 C1524 1.355 . S
C1523 C1525 1.415 . S
C1524 C1523 1.355 . S
C1524 C1526 1.419 . S
C1525 C1520 1.425 . S
C1525 C1522 1.409 . S
C1525 C1523 1.415 . S
C1526 H1516 0.930 . S
C1526 C1524 1.419 . S
C1526 C1527 1.362 . S
C1527 H1517 0.930 . S
C1527 C1520 1.409 . S
C1527 C1526 1.362 . S
H1528 C1534 0.930 . S
H1529 C1537 0.930 . S
H1530 C1538 0.930 . S
H1531 C1539 0.930 . S
H1532 C1542 0.930 . S
H1533 C1543 0.930 . S
C1534 H1528 0.930 . S
C1534 C1535 1.355 . S
C1534 C1536 1.415 . S
C1535 C1534 1.355 . S
C1535 C1537 1.419 . S
C1536 C1534 1.415 . S
C1536 C1541 1.425 . S
C1536 C1543 1.409 . S
C1537 H1529 0.930 . S
C1537 C1535 1.419 . S
C1537 C1538 1.362 . S
C1538 H1530 0.930 . S
C1538 C1537 1.362 . S
C1538 C1541 1.409 . S
C1539 H1531 0.930 . S
C1539 C1540 1.355 . S
C1539 C1541 1.415 . S
C1540 C1539 1.355 . S
C1540 C1542 1.419 . S
C1541 C1536 1.425 . S
C1541 C1538 1.409 . S
C1541 C1539 1.415 . S
C1542 H1532 0.930 . S
C1542 C1540 1.419 . S
C1542 C1543 1.362 . S
C1543 H1533 0.930 . S
C1543 C1536 1.409 . S
C1543 C1542 1.362 . S
H1544 C1550 0.930 . S
H1545 C1553 0.930 . S
H1546 C1554 0.930 . S
H1547 C1555 0.930 . S
H1548 C1558 0.930 . S
H1549 C1559 0.930 . S
C1550 H1544 0.930 . S
C1550 C1551 1.355 . S
C1550 C1552 1.415 . S
C1551 C1550 1.355 . S
C1551 C1553 1.419 . S
C1552 C1550 1.415 . S
C1552 C1557 1.425 . S
C1552 C1559 1.409 . S
C1553 H1545 0.930 . S
C1553 C1551 1.419 . S
C1553 C1554 1.362 . S
C1554 H1546 0.930 . S
C1554 C1553 1.362 . S
C1554 C1557 1.409 . S
C1555 H1547 0.930 . S
C1555 C1556 1.355 . S
C1555 C1557 1.415 . S
C1556 C1555 1.355 . S
C1556 C1558 1.419 . S
C1557 C1552 1.425 . S
C1557 C1554 1.409 . S
C1557 C1555 1.415 . S
C1558 H1548 0.930 . S
C1558 C1556 1.419 . S
C1558 C1559 1.362 . S
C1559 H1549 0.930 . S
C1559 C1552 1.409 . S
C1559 C1558 1.362 . S
H1560 C1566 0.930 . S
H1561 C1569 0.930 . S
H1562 C1570 0.930 . S
H1563 C1571 0.930 . S
H1564 C1574 0.930 . S
H1565 C1575 0.930 . S
C1566 H1560 0.930 . S
C1566 C1567 1.355 . S
C1566 C1568 1.415 . S
C1567 C1566 1.355 . S
C1567 C1569 1.419 . S
C1568 C1566 1.415 . S
C1568 C1573 1.425 . S
C1568 C1575 1.409 . S
C1569 H1561 0.930 . S
C1569 C1567 1.419 . S
C1569 C1570 1.362 . S
C1570 H1562 0.930 . S
C1570 C1569 1.362 . S
C1570 C1573 1.409 . S
C1571 H1563 0.930 . S
C1571 C1572 1.355 . S
C1571 C1573 1.415 . S
C1572 C1571 1.355 . S
C1572 C1574 1.419 . S
C1573 C1568 1.425 . S
C1573 C1570 1.409 . S
C1573 C1571 1.415 . S
C1574 H1564 0.930 . S
C1574 C1572 1.419 . S
C1574 C1575 1.362 . S
C1575 H1565 0.930 . S
C1575 C1568 1.409 . S
C1575 C1574 1.362 . S
H1576 C1582 0.930 . S
H1577 C1585 0.930 . S
H1578 C1586 0.930 . S
H1579 C1587 0.930 . S
H1580 C1590 0.930 . S
H1581 C1591 0.930 . S
C1582 H1576 0.930 . S
C1582 C1583 1.355 . S
C1582 C1584 1.415 . S
C1583 C1582 1.355 . S
C1583 C1585 1.419 . S
C1584 C1582 1.415 . S
C1584 C1589 1.425 . S
C1584 C1591 1.409 . S
C1585 H1577 0.930 . S
C1585 C1583 1.419 . S
C1585 C1586 1.362 . S
C1586 H1578 0.930 . S
C1586 C1585 1.362 . S
C1586 C1589 1.409 . S
C1587 H1579 0.930 . S
C1587 C1588 1.355 . S
C1587 C1589 1.415 . S
C1588 C1587 1.355 . S
C1588 C1590 1.419 . S
C1589 C1584 1.425 . S
C1589 C1586 1.409 . S
C1589 C1587 1.415 . S
C1590 H1580 0.930 . S
C1590 C1588 1.419 . S
C1590 C1591 1.362 . S
C1591 H1581 0.930 . S
C1591 C1584 1.409 . S
C1591 C1590 1.362 . S
H1592 C1598 0.930 . S
H1593 C1601 0.930 . S
H1594 C1602 0.930 . S
H1595 C1603 0.930 . S
H1596 C1606 0.930 . S
H1597 C1607 0.930 . S
C1598 H1592 0.930 . S
C1598 C1599 1.355 . S
C1598 C1600 1.415 . S
C1599 C1598 1.355 . S
C1599 C1601 1.419 . S
C1600 C1598 1.415 . S
C1600 C1605 1.425 . S
C1600 C1607 1.409 . S
C1601 H1593 0.930 . S
C1601 C1599 1.419 . S
C1601 C1602 1.362 . S
C1602 H1594 0.930 . S
C1602 C1601 1.362 . S
C1602 C1605 1.409 . S
C1603 H1595 0.930 . S
C1603 C1604 1.355 . S
C1603 C1605 1.415 . S
C1604 C1603 1.355 . S
C1604 C1606 1.419 . S
C1605 C1600 1.425 . S
C1605 C1602 1.409 . S
C1605 C1603 1.415 . S
C1606 H1596 0.930 . S
C1606 C1604 1.419 . S
C1606 C1607 1.362 . S
C1607 H1597 0.930 . S
C1607 C1600 1.409 . S
C1607 C1606 1.362 . S
H1608 C1614 0.930 . S
H1609 C1617 0.930 . S
H1610 C1618 0.930 . S
H1611 C1619 0.930 . S
H1612 C1622 0.930 . S
H1613 C1623 0.930 . S
C1614 H1608 0.930 . S
C1614 C1615 1.355 . S
C1614 C1616 1.415 . S
C1615 C1614 1.355 . S
C1615 C1617 1.419 . S
C1616 C1614 1.415 . S
C1616 C1621 1.425 . S
C1616 C1623 1.409 . S
C1617 H1609 0.930 . S
C1617 C1615 1.419 . S
C1617 C1618 1.362 . S
C1618 H1610 0.930 . S
C1618 C1617 1.362 . S
C1618 C1621 1.409 . S
C1619 H1611 0.930 . S
C1619 C1620 1.355 . S
C1619 C1621 1.415 . S
C1620 C1619 1.355 . S
C1620 C1622 1.419 . S
C1621 C1616 1.425 . S
C1621 C1618 1.409 . S
C1621 C1619 1.415 . S
C1622 H1612 0.930 . S
C1622 C1620 1.419 . S
C1622 C1623 1.362 . S
C1623 H1613 0.930 . S
C1623 C1616 1.409 . S
C1623 C1622 1.362 . S
H1624 C1630 0.930 . S
H1625 C1633 0.930 . S
H1626 C1634 0.930 . S
H1627 C1635 0.930 . S
H1628 C1638 0.930 . S
H1629 C1639 0.930 . S
C1630 H1624 0.930 . S
C1630 C1631 1.355 . S
C1630 C1632 1.415 . S
C1631 C1630 1.355 . S
C1631 C1633 1.419 . S
C1632 C1630 1.415 . S
C1632 C1637 1.425 . S
C1632 C1639 1.409 . S
C1633 H1625 0.930 . S
C1633 C1631 1.419 . S
C1633 C1634 1.362 . S
C1634 H1626 0.930 . S
C1634 C1633 1.362 . S
C1634 C1637 1.409 . S
C1635 H1627 0.930 . S
C1635 C1636 1.355 . S
C1635 C1637 1.415 . S
C1636 C1635 1.355 . S
C1636 C1638 1.419 . S
C1637 C1632 1.425 . S
C1637 C1634 1.409 . S
C1637 C1635 1.415 . S
C1638 H1628 0.930 . S
C1638 C1636 1.419 . S
C1638 C1639 1.362 . S
C1639 H1629 0.930 . S
C1639 C1632 1.409 . S
C1639 C1638 1.362 . S
H1640 C1646 0.930 . S
H1641 C1649 0.930 . S
H1642 C1650 0.930 . S
H1643 C1651 0.930 . S
H1644 C1654 0.930 . S
H1645 C1655 0.930 . S
C1646 H1640 0.930 . S
C1646 C1647 1.355 . S
C1646 C1648 1.415 . S
C1647 C1646 1.355 . S
C1647 C1649 1.419 . S
C1648 C1646 1.415 . S
C1648 C1653 1.425 . S
C1648 C1655 1.409 . S
C1649 H1641 0.930 . S
C1649 C1647 1.419 . S
C1649 C1650 1.362 . S
C1650 H1642 0.930 . S
C1650 C1649 1.362 . S
C1650 C1653 1.409 . S
C1651 H1643 0.930 . S
C1651 C1652 1.355 . S
C1651 C1653 1.415 . S
C1652 C1651 1.355 . S
C1652 C1654 1.419 . S
C1653 C1648 1.425 . S
C1653 C1650 1.409 . S
C1653 C1651 1.415 . S
C1654 H1644 0.930 . S
C1654 C1652 1.419 . S
C1654 C1655 1.362 . S
C1655 H1645 0.930 . S
C1655 C1648 1.409 . S
C1655 C1654 1.362 . S
H1656 C1662 0.930 . S
H1657 C1665 0.930 . S
H1658 C1666 0.930 . S
H1659 C1667 0.930 . S
H1660 C1670 0.930 . S
H1661 C1671 0.930 . S
C1662 H1656 0.930 . S
C1662 C1663 1.355 . S
C1662 C1664 1.415 . S
C1663 C1662 1.355 . S
C1663 C1665 1.419 . S
C1664 C1662 1.415 . S
C1664 C1669 1.425 . S
C1664 C1671 1.409 . S
C1665 H1657 0.930 . S
C1665 C1663 1.419 . S
C1665 C1666 1.362 . S
C1666 H1658 0.930 . S
C1666 C1665 1.362 . S
C1666 C1669 1.409 . S
C1667 H1659 0.930 . S
C1667 C1668 1.355 . S
C1667 C1669 1.415 . S
C1668 C1667 1.355 . S
C1668 C1670 1.419 . S
C1669 C1664 1.425 . S
C1669 C1666 1.409 . S
C1669 C1667 1.415 . S
C1670 H1660 0.930 . S
C1670 C1668 1.419 . S
C1670 C1671 1.362 . S
C1671 H1661 0.930 . S
C1671 C1664 1.409 . S
C1671 C1670 1.362 . S
H1672 C1678 0.930 . S
H1673 C1681 0.930 . S
H1674 C1682 0.930 . S
H1675 C1683 0.930 . S
H1676 C1686 0.930 . S
H1677 C1687 0.930 . S
C1678 H1672 0.930 . S
C1678 C1679 1.355 . S
C1678 C1680 1.415 . S
C1679 C1678 1.355 . S
C1679 C1681 1.419 . S
C1680 C1678 1.415 . S
C1680 C1685 1.425 . S
C1680 C1687 1.409 . S
C1681 H1673 0.930 . S
C1681 C1679 1.419 . S
C1681 C1682 1.362 . S
C1682 H1674 0.930 . S
C1682 C1681 1.362 . S
C1682 C1685 1.409 . S
C1683 H1675 0.930 . S
C1683 C1684 1.355 . S
C1683 C1685 1.415 . S
C1684 C1683 1.355 . S
C1684 C1686 1.419 . S
C1685 C1680 1.425 . S
C1685 C1682 1.409 . S
C1685 C1683 1.415 . S
C1686 H1676 0.930 . S
C1686 C1684 1.419 . S
C1686 C1687 1.362 . S
C1687 H1677 0.930 . S
C1687 C1680 1.409 . S
C1687 C1686 1.362 . S
H1688 C1694 0.930 . S
H1689 C1697 0.930 . S
H1690 C1698 0.930 . S
H1691 C1699 0.930 . S
H1692 C1702 0.930 . S
H1693 C1703 0.930 . S
C1694 H1688 0.930 . S
C1694 C1695 1.355 . S
C1694 C1696 1.415 . S
C1695 C1694 1.355 . S
C1695 C1697 1.419 . S
C1696 C1694 1.415 . S
C1696 C1701 1.425 . S
C1696 C1703 1.409 . S
C1697 H1689 0.930 . S
C1697 C1695 1.419 . S
C1697 C1698 1.362 . S
C1698 H1690 0.930 . S
C1698 C1697 1.362 . S
C1698 C1701 1.409 . S
C1699 H1691 0.930 . S
C1699 C1700 1.355 . S
C1699 C1701 1.415 . S
C1700 C1699 1.355 . S
C1700 C1702 1.419 . S
C1701 C1696 1.425 . S
C1701 C1698 1.409 . S
C1701 C1699 1.415 . S
C1702 H1692 0.930 . S
C1702 C1700 1.419 . S
C1702 C1703 1.362 . S
C1703 H1693 0.930 . S
C1703 C1696 1.409 . S
C1703 C1702 1.362 . S
H1704 C1710 0.930 . S
H1705 C1713 0.930 . S
H1706 C1714 0.930 . S
H1707 C1715 0.930 . S
H1708 C1718 0.930 . S
H1709 C1719 0.930 . S
C1710 H1704 0.930 . S
C1710 C1711 1.355 . S
C1710 C1712 1.415 . S
C1711 C1710 1.355 . S
C1711 C1713 1.419 . S
C1712 C1710 1.415 . S
C1712 C1717 1.425 . S
C1712 C1719 1.409 . S
C1713 H1705 0.930 . S
C1713 C1711 1.419 . S
C1713 C1714 1.362 . S
C1714 H1706 0.930 . S
C1714 C1713 1.362 . S
C1714 C1717 1.409 . S
C1715 H1707 0.930 . S
C1715 C1716 1.355 . S
C1715 C1717 1.415 . S
C1716 C1715 1.355 . S
C1716 C1718 1.419 . S
C1717 C1712 1.425 . S
C1717 C1714 1.409 . S
C1717 C1715 1.415 . S
C1718 H1708 0.930 . S
C1718 C1716 1.419 . S
C1718 C1719 1.362 . S
C1719 H1709 0.930 . S
C1719 C1712 1.409 . S
C1719 C1718 1.362 . S
H1720 C1726 0.930 . S
H1721 C1729 0.930 . S
H1722 C1730 0.930 . S
H1723 C1731 0.930 . S
H1724 C1734 0.930 . S
H1725 C1735 0.930 . S
C1726 H1720 0.930 . S
C1726 C1727 1.355 . S
C1726 C1728 1.415 . S
C1727 C1726 1.355 . S
C1727 C1729 1.419 . S
C1728 C1726 1.415 . S
C1728 C1733 1.425 . S
C1728 C1735 1.409 . S
C1729 H1721 0.930 . S
C1729 C1727 1.419 . S
C1729 C1730 1.362 . S
C1730 H1722 0.930 . S
C1730 C1729 1.362 . S
C1730 C1733 1.409 . S
C1731 H1723 0.930 . S
C1731 C1732 1.355 . S
C1731 C1733 1.415 . S
C1732 C1731 1.355 . S
C1732 C1734 1.419 . S
C1733 C1728 1.425 . S
C1733 C1730 1.409 . S
C1733 C1731 1.415 . S
C1734 H1724 0.930 . S
C1734 C1732 1.419 . S
C1734 C1735 1.362 . S
C1735 H1725 0.930 . S
C1735 C1728 1.409 . S
C1735 C1734 1.362 . S
H1736 C1742 0.930 . S
H1737 C1745 0.930 . S
H1738 C1746 0.930 . S
H1739 C1747 0.930 . S
H1740 C1750 0.930 . S
H1741 C1751 0.930 . S
C1742 H1736 0.930 . S
C1742 C1743 1.355 . S
C1742 C1744 1.415 . S
C1743 C1742 1.355 . S
C1743 C1745 1.419 . S
C1744 C1742 1.415 . S
C1744 C1749 1.425 . S
C1744 C1751 1.409 . S
C1745 H1737 0.930 . S
C1745 C1743 1.419 . S
C1745 C1746 1.362 . S
C1746 H1738 0.930 . S
C1746 C1745 1.362 . S
C1746 C1749 1.409 . S
C1747 H1739 0.930 . S
C1747 C1748 1.355 . S
C1747 C1749 1.415 . S
C1748 C1747 1.355 . S
C1748 C1750 1.419 . S
C1749 C1744 1.425 . S
C1749 C1746 1.409 . S
C1749 C1747 1.415 . S
C1750 H1740 0.930 . S
C1750 C1748 1.419 . S
C1750 C1751 1.362 . S
C1751 H1741 0.930 . S
C1751 C1744 1.409 . S
C1751 C1750 1.362 . S
H1752 C1758 0.930 . S
H1753 C1761 0.930 . S
H1754 C1762 0.930 . S
H1755 C1763 0.930 . S
H1756 C1766 0.930 . S
H1757 C1767 0.930 . S
C1758 H1752 0.930 . S
C1758 C1759 1.355 . S
C1758 C1760 1.415 . S
C1759 C1758 1.355 . S
C1759 C1761 1.419 . S
C1760 C1758 1.415 . S
C1760 C1765 1.425 . S
C1760 C1767 1.409 . S
C1761 H1753 0.930 . S
C1761 C1759 1.419 . S
C1761 C1762 1.362 . S
C1762 H1754 0.930 . S
C1762 C1761 1.362 . S
C1762 C1765 1.409 . S
C1763 H1755 0.930 . S
C1763 C1764 1.355 . S
C1763 C1765 1.415 . S
C1764 C1763 1.355 . S
C1764 C1766 1.419 . S
C1765 C1760 1.425 . S
C1765 C1762 1.409 . S
C1765 C1763 1.415 . S
C1766 H1756 0.930 . S
C1766 C1764 1.419 . S
C1766 C1767 1.362 . S
C1767 H1757 0.930 . S
C1767 C1760 1.409 . S
C1767 C1766 1.362 . S
H1768 C1774 0.930 . S
H1769 C1777 0.930 . S
H1770 C1778 0.930 . S
H1771 C1779 0.930 . S
H1772 C1782 0.930 . S
H1773 C1783 0.930 . S
C1774 H1768 0.930 . S
C1774 C1775 1.355 . S
C1774 C1776 1.415 . S
C1775 C1774 1.355 . S
C1775 C1777 1.419 . S
C1776 C1774 1.415 . S
C1776 C1781 1.425 . S
C1776 C1783 1.409 . S
C1777 H1769 0.930 . S
C1777 C1775 1.419 . S
C1777 C1778 1.362 . S
C1778 H1770 0.930 . S
C1778 C1777 1.362 . S
C1778 C1781 1.409 . S
C1779 H1771 0.930 . S
C1779 C1780 1.355 . S
C1779 C1781 1.415 . S
C1780 C1779 1.355 . S
C1780 C1782 1.419 . S
C1781 C1776 1.425 . S
C1781 C1778 1.409 . S
C1781 C1779 1.415 . S
C1782 H1772 0.930 . S
C1782 C1780 1.419 . S
C1782 C1783 1.362 . S
C1783 H1773 0.930 . S
C1783 C1776 1.409 . S
C1783 C1782 1.362 . S
H1784 C1790 0.930 . S
H1785 C1793 0.930 . S
H1786 C1794 0.930 . S
H1787 C1795 0.930 . S
H1788 C1798 0.930 . S
H1789 C1799 0.930 . S
C1790 H1784 0.930 . S
C1790 C1791 1.355 . S
C1790 C1792 1.415 . S
C1791 C1790 1.355 . S
C1791 C1793 1.419 . S
C1792 C1790 1.415 . S
C1792 C1797 1.425 . S
C1792 C1799 1.409 . S
C1793 H1785 0.930 . S
C1793 C1791 1.419 . S
C1793 C1794 1.362 . S
C1794 H1786 0.930 . S
C1794 C1793 1.362 . S
C1794 C1797 1.409 . S
C1795 H1787 0.930 . S
C1795 C1796 1.355 . S
C1795 C1797 1.415 . S
C1796 C1795 1.355 . S
C1796 C1798 1.419 . S
C1797 C1792 1.425 . S
C1797 C1794 1.409 . S
C1797 C1795 1.415 . S
C1798 H1788 0.930 . S
C1798 C1796 1.419 . S
C1798 C1799 1.362 . S
C1799 H1789 0.930 . S
C1799 C1792 1.409 . S
C1799 C1798 1.362 . S
H1800 C1806 0.930 . S
H1801 C1809 0.930 . S
H1802 C1810 0.930 . S
H1803 C1811 0.930 . S
H1804 C1814 0.930 . S
H1805 C1815 0.930 . S
C1806 H1800 0.930 . S
C1806 C1807 1.355 . S
C1806 C1808 1.415 . S
C1807 C1806 1.355 . S
C1807 C1809 1.419 . S
C1808 C1806 1.415 . S
C1808 C1813 1.425 1_455 S
C1808 C1815 1.409 1_455 S
C1809 H1801 0.930 . S
C1809 C1807 1.419 . S
C1809 C1810 1.362 . S
C1810 H1802 0.930 . S
C1810 C1809 1.362 . S
C1810 C1813 1.409 1_455 S
C1811 H1803 0.930 . S
C1811 C1812 1.355 . S
C1811 C1813 1.415 . S
C1812 C1811 1.355 . S
C1812 C1814 1.419 . S
C1813 C1808 1.425 1_655 S
C1813 C1810 1.409 1_655 S
C1813 C1811 1.415 . S
C1814 H1804 0.930 . S
C1814 C1812 1.419 . S
C1814 C1815 1.362 . S
C1815 H1805 0.930 . S
C1815 C1808 1.409 1_655 S
C1815 C1814 1.362 . S
H1816 C1822 0.930 . S
H1817 C1825 0.930 . S
H1818 C1826 0.930 . S
H1819 C1827 0.930 . S
H1820 C1830 0.930 . S
H1821 C1831 0.930 . S
C1822 H1816 0.930 . S
C1822 C1823 1.355 . S
C1822 C1824 1.415 . S
C1823 C1822 1.355 . S
C1823 C1825 1.419 . S
C1824 C1822 1.415 . S
C1824 C1829 1.425 1_545 S
C1824 C1831 1.409 1_545 S
C1825 H1817 0.930 . S
C1825 C1823 1.419 . S
C1825 C1826 1.362 . S
C1826 H1818 0.930 . S
C1826 C1825 1.362 . S
C1826 C1829 1.409 1_545 S
C1827 H1819 0.930 . S
C1827 C1828 1.355 . S
C1827 C1829 1.415 . S
C1828 C1827 1.355 . S
C1828 C1830 1.419 . S
C1829 C1824 1.425 1_565 S
C1829 C1826 1.409 1_565 S
C1829 C1827 1.415 . S
C1830 H1820 0.930 . S
C1830 C1828 1.419 . S
C1830 C1831 1.362 . S
C1831 H1821 0.930 . S
C1831 C1824 1.409 1_565 S
C1831 C1830 1.362 . S
H1832 C1838 0.930 . S
H1833 C1841 0.930 . S
H1834 C1842 0.930 . S
H1835 C1843 0.930 . S
H1836 C1846 0.930 . S
H1837 C1847 0.930 . S
C1838 H1832 0.930 . S
C1838 C1839 1.355 . S
C1838 C1840 1.415 . S
C1839 C1838 1.355 . S
C1839 C1841 1.419 . S
C1840 C1838 1.415 . S
C1840 C1845 1.425 1_655 S
C1840 C1847 1.409 1_655 S
C1841 H1833 0.930 . S
C1841 C1839 1.419 . S
C1841 C1842 1.362 . S
C1842 H1834 0.930 . S
C1842 C1841 1.362 . S
C1842 C1845 1.409 1_655 S
C1843 H1835 0.930 . S
C1843 C1844 1.355 . S
C1843 C1845 1.415 . S
C1844 C1843 1.355 . S
C1844 C1846 1.419 . S
C1845 C1840 1.425 1_455 S
C1845 C1842 1.409 1_455 S
C1845 C1843 1.415 . S
C1846 H1836 0.930 . S
C1846 C1844 1.419 . S
C1846 C1847 1.362 . S
C1847 H1837 0.930 . S
C1847 C1840 1.409 1_455 S
C1847 C1846 1.362 . S
H1848 C1854 0.930 . S
H1849 C1857 0.930 . S
H1850 C1858 0.930 . S
H1851 C1859 0.930 . S
H1852 C1862 0.930 . S
H1853 C1863 0.930 . S
C1854 H1848 0.930 . S
C1854 C1855 1.355 . S
C1854 C1856 1.415 . S
C1855 C1854 1.355 . S
C1855 C1857 1.419 . S
C1856 C1854 1.415 . S
C1856 C1861 1.425 1_545 S
C1856 C1863 1.409 1_545 S
C1857 H1849 0.930 . S
C1857 C1855 1.419 . S
C1857 C1858 1.362 . S
C1858 H1850 0.930 . S
C1858 C1857 1.362 . S
C1858 C1861 1.409 1_545 S
C1859 H1851 0.930 . S
C1859 C1860 1.355 . S
C1859 C1861 1.415 . S
C1860 C1859 1.355 . S
C1860 C1862 1.419 . S
C1861 C1856 1.425 1_565 S
C1861 C1858 1.409 1_565 S
C1861 C1859 1.415 . S
C1862 H1852 0.930 . S
C1862 C1860 1.419 . S
C1862 C1863 1.362 . S
C1863 H1853 0.930 . S
C1863 C1856 1.409 1_565 S
C1863 C1862 1.362 . S
H1864 C1870 0.930 . S
H1865 C1873 0.930 . S
H1866 C1874 0.930 . S
H1867 C1875 0.930 . S
H1868 C1878 0.930 . S
H1869 C1879 0.930 . S
C1870 H1864 0.930 . S
C1870 C1871 1.355 . S
C1870 C1872 1.415 . S
C1871 C1870 1.355 . S
C1871 C1873 1.419 . S
C1872 C1870 1.415 . S
C1872 C1877 1.425 1_565 S
C1872 C1879 1.409 1_565 S
C1873 H1865 0.930 . S
C1873 C1871 1.419 . S
C1873 C1874 1.362 . S
C1874 H1866 0.930 . S
C1874 C1873 1.362 . S
C1874 C1877 1.409 1_565 S
C1875 H1867 0.930 . S
C1875 C1876 1.355 . S
C1875 C1877 1.415 . S
C1876 C1875 1.355 . S
C1876 C1878 1.419 . S
C1877 C1872 1.425 1_545 S
C1877 C1874 1.409 1_545 S
C1877 C1875 1.415 . S
C1878 H1868 0.930 . S
C1878 C1876 1.419 . S
C1878 C1879 1.362 . S
C1879 H1869 0.930 . S
C1879 C1872 1.409 1_545 S
C1879 C1878 1.362 . S
H1880 C1886 0.930 . S
H1881 C1889 0.930 . S
H1882 C1890 0.930 . S
H1883 C1891 0.930 . S
H1884 C1894 0.930 . S
H1885 C1895 0.930 . S
C1886 H1880 0.930 . S
C1886 C1887 1.355 . S
C1886 C1888 1.415 . S
C1887 C1886 1.355 . S
C1887 C1889 1.419 . S
C1888 C1886 1.415 . S
C1888 C1893 1.425 1_655 S
C1888 C1895 1.409 1_655 S
C1889 H1881 0.930 . S
C1889 C1887 1.419 . S
C1889 C1890 1.362 . S
C1890 H1882 0.930 . S
C1890 C1889 1.362 . S
C1890 C1893 1.409 1_655 S
C1891 H1883 0.930 . S
C1891 C1892 1.355 . S
C1891 C1893 1.415 . S
C1892 C1891 1.355 . S
C1892 C1894 1.419 . S
C1893 C1888 1.425 1_455 S
C1893 C1890 1.409 1_455 S
C1893 C1891 1.415 . S
C1894 H1884 0.930 . S
C1894 C1892 1.419 . S
C1894 C1895 1.362 . S
C1895 H1885 0.930 . S
C1895 C1888 1.409 1_455 S
C1895 C1894 1.362 . S
H1896 C1902 0.930 . S
H1897 C1905 0.930 . S
H1898 C1906 0.930 . S
H1899 C1907 0.930 . S
H1900 C1910 0.930 . S
H1901 C1911 0.930 . S
C1902 H1896 0.930 . S
C1902 C1903 1.355 . S
C1902 C1904 1.415 . S
C1903 C1902 1.355 . S
C1903 C1905 1.419 . S
C1904 C1902 1.415 . S
C1904 C1909 1.425 1_565 S
C1904 C1911 1.409 1_565 S
C1905 H1897 0.930 . S
C1905 C1903 1.419 . S
C1905 C1906 1.362 . S
C1906 H1898 0.930 . S
C1906 C1905 1.362 . S
C1906 C1909 1.409 1_565 S
C1907 H1899 0.930 . S
C1907 C1908 1.355 . S
C1907 C1909 1.415 . S
C1908 C1907 1.355 . S
C1908 C1910 1.419 . S
C1909 C1904 1.425 1_545 S
C1909 C1906 1.409 1_545 S
C1909 C1907 1.415 . S
C1910 H1900 0.930 . S
C1910 C1908 1.419 . S
C1910 C1911 1.362 . S
C1911 H1901 0.930 . S
C1911 C1904 1.409 1_545 S
C1911 C1910 1.362 . S
H1912 C1918 0.930 . S
H1913 C1921 0.930 . S
H1914 C1922 0.930 . S
H1915 C1923 0.930 . S
H1916 C1926 0.930 . S
H1917 C1927 0.930 . S
C1918 H1912 0.930 . S
C1918 C1919 1.355 . S
C1918 C1920 1.415 . S
C1919 C1918 1.355 . S
C1919 C1921 1.419 . S
C1920 C1918 1.415 . S
C1920 C1925 1.425 1_655 S
C1920 C1927 1.409 1_655 S
C1921 H1913 0.930 . S
C1921 C1919 1.419 . S
C1921 C1922 1.362 . S
C1922 H1914 0.930 . S
C1922 C1921 1.362 . S
C1922 C1925 1.409 1_655 S
C1923 H1915 0.930 . S
C1923 C1924 1.355 . S
C1923 C1925 1.415 . S
C1924 C1923 1.355 . S
C1924 C1926 1.419 . S
C1925 C1920 1.425 1_455 S
C1925 C1922 1.409 1_455 S
C1925 C1923 1.415 . S
C1926 H1916 0.930 . S
C1926 C1924 1.419 . S
C1926 C1927 1.362 . S
C1927 H1917 0.930 . S
C1927 C1920 1.409 1_455 S
C1927 C1926 1.362 . S
H1928 C1934 0.930 . S
H1929 C1937 0.930 . S
H1930 C1938 0.930 . S
H1931 C1939 0.930 . S
H1932 C1942 0.930 . S
H1933 C1943 0.930 . S
C1934 H1928 0.930 . S
C1934 C1935 1.355 . S
C1934 C1936 1.415 . S
C1935 C1934 1.355 . S
C1935 C1937 1.419 . S
C1936 C1934 1.415 . S
C1936 C1941 1.425 1_556 S
C1936 C1943 1.409 1_556 S
C1937 H1929 0.930 . S
C1937 C1935 1.419 . S
C1937 C1938 1.362 . S
C1938 H1930 0.930 . S
C1938 C1937 1.362 . S
C1938 C1941 1.409 1_556 S
C1939 H1931 0.930 . S
C1939 C1940 1.355 . S
C1939 C1941 1.415 . S
C1940 C1939 1.355 . S
C1940 C1942 1.419 . S
C1941 C1936 1.425 1_554 S
C1941 C1938 1.409 1_554 S
C1941 C1939 1.415 . S
C1942 H1932 0.930 . S
C1942 C1940 1.419 . S
C1942 C1943 1.362 . S
C1943 H1933 0.930 . S
C1943 C1936 1.409 1_554 S
C1943 C1942 1.362 . S
H1944 C1950 0.930 . S
H1945 C1953 0.930 . S
H1946 C1954 0.930 . S
H1947 C1955 0.930 . S
H1948 C1958 0.930 . S
H1949 C1959 0.930 . S
C1950 H1944 0.930 . S
C1950 C1951 1.355 . S
C1950 C1952 1.415 . S
C1951 C1950 1.355 . S
C1951 C1953 1.419 . S
C1952 C1950 1.415 . S
C1952 C1957 1.425 1_556 S
C1952 C1959 1.409 1_556 S
C1953 H1945 0.930 . S
C1953 C1951 1.419 . S
C1953 C1954 1.362 . S
C1954 H1946 0.930 . S
C1954 C1953 1.362 . S
C1954 C1957 1.409 1_556 S
C1955 H1947 0.930 . S
C1955 C1956 1.355 . S
C1955 C1957 1.415 . S
C1956 C1955 1.355 . S
C1956 C1958 1.419 . S
C1957 C1952 1.425 1_554 S
C1957 C1954 1.409 1_554 S
C1957 C1955 1.415 . S
C1958 H1948 0.930 . S
C1958 C1956 1.419 . S
C1958 C1959 1.362 . S
C1959 H1949 0.930 . S
C1959 C1952 1.409 1_554 S
C1959 C1958 1.362 . S
H1960 C1966 0.930 . S
H1961 C1969 0.930 . S
H1962 C1970 0.930 . S
H1963 C1971 0.930 . S
H1964 C1974 0.930 . S
H1965 C1975 0.930 . S
C1966 H1960 0.930 . S
C1966 C1967 1.355 . S
C1966 C1968 1.415 . S
C1967 C1966 1.355 . S
C1967 C1969 1.419 . S
C1968 C1966 1.415 . S
C1968 C1973 1.425 1_556 S
C1968 C1975 1.409 1_556 S
C1969 H1961 0.930 . S
C1969 C1967 1.419 . S
C1969 C1970 1.362 . S
C1970 H1962 0.930 . S
C1970 C1969 1.362 . S
C1970 C1973 1.409 1_556 S
C1971 H1963 0.930 . S
C1971 C1972 1.355 . S
C1971 C1973 1.415 . S
C1972 C1971 1.355 . S
C1972 C1974 1.419 . S
C1973 C1968 1.425 1_554 S
C1973 C1970 1.409 1_554 S
C1973 C1971 1.415 . S
C1974 H1964 0.930 . S
C1974 C1972 1.419 . S
C1974 C1975 1.362 . S
C1975 H1965 0.930 . S
C1975 C1968 1.409 1_554 S
C1975 C1974 1.362 . S
H1976 C1982 0.930 . S
H1977 C1985 0.930 . S
H1978 C1986 0.930 . S
H1979 C1987 0.930 . S
H1980 C1990 0.930 . S
H1981 C1991 0.930 . S
C1982 H1976 0.930 . S
C1982 C1983 1.355 . S
C1982 C1984 1.415 . S
C1983 C1982 1.355 . S
C1983 C1985 1.419 . S
C1984 C1982 1.415 . S
C1984 C1989 1.425 1_556 S
C1984 C1991 1.409 1_556 S
C1985 H1977 0.930 . S
C1985 C1983 1.419 . S
C1985 C1986 1.362 . S
C1986 H1978 0.930 . S
C1986 C1985 1.362 . S
C1986 C1989 1.409 1_556 S
C1987 H1979 0.930 . S
C1987 C1988 1.355 . S
C1987 C1989 1.415 . S
C1988 C1987 1.355 . S
C1988 C1990 1.419 . S
C1989 C1984 1.425 1_554 S
C1989 C1986 1.409 1_554 S
C1989 C1987 1.415 . S
C1990 H1980 0.930 . S
C1990 C1988 1.419 . S
C1990 C1991 1.362 . S
C1991 H1981 0.930 . S
C1991 C1984 1.409 1_554 S
C1991 C1990 1.362 . S
H1992 C1998 0.930 . S
H1993 C2001 0.930 . S
H1994 C2002 0.930 . S
H1995 C2003 0.930 . S
H1996 C2006 0.930 . S
H1997 C2007 0.930 . S
C1998 H1992 0.930 . S
C1998 C1999 1.355 . S
C1998 C2000 1.415 . S
C1999 C1998 1.355 . S
C1999 C2001 1.419 . S
C2000 C1998 1.415 . S
C2000 C2005 1.425 . S
C2000 C2007 1.409 . S
C2001 H1993 0.930 . S
C2001 C1999 1.419 . S
C2001 C2002 1.362 . S
C2002 H1994 0.930 . S
C2002 C2001 1.362 . S
C2002 C2005 1.409 . S
C2003 H1995 0.930 . S
C2003 C2004 1.355 . S
C2003 C2005 1.415 . S
C2004 C2003 1.355 . S
C2004 C2006 1.419 . S
C2005 C2000 1.425 . S
C2005 C2002 1.409 . S
C2005 C2003 1.415 . S
C2006 H1996 0.930 . S
C2006 C2004 1.419 . S
C2006 C2007 1.362 . S
C2007 H1997 0.930 . S
C2007 C2000 1.409 . S
C2007 C2006 1.362 . S
H2008 C2014 0.930 . S
H2009 C2017 0.930 . S
H2010 C2018 0.930 . S
H2011 C2019 0.930 . S
H2012 C2022 0.930 . S
H2013 C2023 0.930 . S
C2014 H2008 0.930 . S
C2014 C2015 1.355 . S
C2014 C2016 1.415 . S
C2015 C2014 1.355 . S
C2015 C2017 1.419 . S
C2016 C2014 1.415 . S
C2016 C2021 1.425 . S
C2016 C2023 1.409 . S
C2017 H2009 0.930 . S
C2017 C2015 1.419 . S
C2017 C2018 1.362 . S
C2018 H2010 0.930 . S
C2018 C2017 1.362 . S
C2018 C2021 1.409 . S
C2019 H2011 0.930 . S
C2019 C2020 1.355 . S
C2019 C2021 1.415 . S
C2020 C2019 1.355 . S
C2020 C2022 1.419 . S
C2021 C2016 1.425 . S
C2021 C2018 1.409 . S
C2021 C2019 1.415 . S
C2022 H2012 0.930 . S
C2022 C2020 1.419 . S
C2022 C2023 1.362 . S
C2023 H2013 0.930 . S
C2023 C2016 1.409 . S
C2023 C2022 1.362 . S
H2024 C2030 0.930 . S
H2025 C2033 0.930 . S
H2026 C2034 0.930 . S
H2027 C2035 0.930 . S
H2028 C2038 0.930 . S
H2029 C2039 0.930 . S
C2030 H2024 0.930 . S
C2030 C2031 1.355 . S
C2030 C2032 1.415 . S
C2031 C2030 1.355 . S
C2031 C2033 1.419 . S
C2032 C2030 1.415 . S
C2032 C2037 1.425 . S
C2032 C2039 1.409 . S
C2033 H2025 0.930 . S
C2033 C2031 1.419 . S
C2033 C2034 1.362 . S
C2034 H2026 0.930 . S
C2034 C2033 1.362 . S
C2034 C2037 1.409 . S
C2035 H2027 0.930 . S
C2035 C2036 1.355 . S
C2035 C2037 1.415 . S
C2036 C2035 1.355 . S
C2036 C2038 1.419 . S
C2037 C2032 1.425 . S
C2037 C2034 1.409 . S
C2037 C2035 1.415 . S
C2038 H2028 0.930 . S
C2038 C2036 1.419 . S
C2038 C2039 1.362 . S
C2039 H2029 0.930 . S
C2039 C2032 1.409 . S
C2039 C2038 1.362 . S
H2040 C2046 0.930 . S
H2041 C2049 0.930 . S
H2042 C2050 0.930 . S
H2043 C2051 0.930 . S
H2044 C2054 0.930 . S
H2045 C2055 0.930 . S
C2046 H2040 0.930 . S
C2046 C2047 1.355 . S
C2046 C2048 1.415 . S
C2047 C2046 1.355 . S
C2047 C2049 1.419 . S
C2048 C2046 1.415 . S
C2048 C2053 1.425 . S
C2048 C2055 1.409 . S
C2049 H2041 0.930 . S
C2049 C2047 1.419 . S
C2049 C2050 1.362 . S
C2050 H2042 0.930 . S
C2050 C2049 1.362 . S
C2050 C2053 1.409 . S
C2051 H2043 0.930 . S
C2051 C2052 1.355 . S
C2051 C2053 1.415 . S
C2052 C2051 1.355 . S
C2052 C2054 1.419 . S
C2053 C2048 1.425 . S
C2053 C2050 1.409 . S
C2053 C2051 1.415 . S
C2054 H2044 0.930 . S
C2054 C2052 1.419 . S
C2054 C2055 1.362 . S
C2055 H2045 0.930 . S
C2055 C2048 1.409 . S
C2055 C2054 1.362 . S
H2056 C2062 0.930 . S
H2057 C2065 0.930 . S
H2058 C2066 0.930 . S
H2059 C2067 0.930 . S
H2060 C2070 0.930 . S
H2061 C2071 0.930 . S
C2062 H2056 0.930 . S
C2062 C2063 1.355 . S
C2062 C2064 1.415 . S
C2063 C2062 1.355 . S
C2063 C2065 1.419 . S
C2064 C2062 1.415 . S
C2064 C2069 1.425 . S
C2064 C2071 1.409 . S
C2065 H2057 0.930 . S
C2065 C2063 1.419 . S
C2065 C2066 1.362 . S
C2066 H2058 0.930 . S
C2066 C2065 1.362 . S
C2066 C2069 1.409 . S
C2067 H2059 0.930 . S
C2067 C2068 1.355 . S
C2067 C2069 1.415 . S
C2068 C2067 1.355 . S
C2068 C2070 1.419 . S
C2069 C2064 1.425 . S
C2069 C2066 1.409 . S
C2069 C2067 1.415 . S
C2070 H2060 0.930 . S
C2070 C2068 1.419 . S
C2070 C2071 1.362 . S
C2071 H2061 0.930 . S
C2071 C2064 1.409 . S
C2071 C2070 1.362 . S
H2072 C2078 0.930 . S
H2073 C2081 0.930 . S
H2074 C2082 0.930 . S
H2075 C2083 0.930 . S
H2076 C2086 0.930 . S
H2077 C2087 0.930 . S
C2078 H2072 0.930 . S
C2078 C2079 1.355 . S
C2078 C2080 1.415 . S
C2079 C2078 1.355 . S
C2079 C2081 1.419 . S
C2080 C2078 1.415 . S
C2080 C2085 1.425 . S
C2080 C2087 1.409 . S
C2081 H2073 0.930 . S
C2081 C2079 1.419 . S
C2081 C2082 1.362 . S
C2082 H2074 0.930 . S
C2082 C2081 1.362 . S
C2082 C2085 1.409 . S
C2083 H2075 0.930 . S
C2083 C2084 1.355 . S
C2083 C2085 1.415 . S
C2084 C2083 1.355 . S
C2084 C2086 1.419 . S
C2085 C2080 1.425 . S
C2085 C2082 1.409 . S
C2085 C2083 1.415 . S
C2086 H2076 0.930 . S
C2086 C2084 1.419 . S
C2086 C2087 1.362 . S
C2087 H2077 0.930 . S
C2087 C2080 1.409 . S
C2087 C2086 1.362 . S
H2088 C2094 0.930 . S
H2089 C2097 0.930 . S
H2090 C2098 0.930 . S
H2091 C2099 0.930 . S
H2092 C2102 0.930 . S
H2093 C2103 0.930 . S
C2094 H2088 0.930 . S
C2094 C2095 1.355 . S
C2094 C2096 1.415 . S
C2095 C2094 1.355 . S
C2095 C2097 1.419 . S
C2096 C2094 1.415 . S
C2096 C2101 1.425 . S
C2096 C2103 1.409 . S
C2097 H2089 0.930 . S
C2097 C2095 1.419 . S
C2097 C2098 1.362 . S
C2098 H2090 0.930 . S
C2098 C2097 1.362 . S
C2098 C2101 1.409 . S
C2099 H2091 0.930 . S
C2099 C2100 1.355 . S
C2099 C2101 1.415 . S
C2100 C2099 1.355 . S
C2100 C2102 1.419 . S
C2101 C2096 1.425 . S
C2101 C2098 1.409 . S
C2101 C2099 1.415 . S
C2102 H2092 0.930 . S
C2102 C2100 1.419 . S
C2102 C2103 1.362 . S
C2103 H2093 0.930 . S
C2103 C2096 1.409 . S
C2103 C2102 1.362 . S
H2104 C2110 0.930 . S
H2105 C2113 0.930 . S
H2106 C2114 0.930 . S
H2107 C2115 0.930 . S
H2108 C2118 0.930 . S
H2109 C2119 0.930 . S
C2110 H2104 0.930 . S
C2110 C2111 1.355 . S
C2110 C2112 1.415 . S
C2111 C2110 1.355 . S
C2111 C2113 1.419 . S
C2112 C2110 1.415 . S
C2112 C2117 1.425 . S
C2112 C2119 1.409 . S
C2113 H2105 0.930 . S
C2113 C2111 1.419 . S
C2113 C2114 1.362 . S
C2114 H2106 0.930 . S
C2114 C2113 1.362 . S
C2114 C2117 1.409 . S
C2115 H2107 0.930 . S
C2115 C2116 1.355 . S
C2115 C2117 1.415 . S
C2116 C2115 1.355 . S
C2116 C2118 1.419 . S
C2117 C2112 1.425 . S
C2117 C2114 1.409 . S
C2117 C2115 1.415 . S
C2118 H2108 0.930 . S
C2118 C2116 1.419 . S
C2118 C2119 1.362 . S
C2119 H2109 0.930 . S
C2119 C2112 1.409 . S
C2119 C2118 1.362 . S
H2120 C2126 0.930 . S
H2121 C2129 0.930 . S
H2122 C2130 0.930 . S
H2123 C2131 0.930 . S
H2124 C2134 0.930 . S
H2125 C2135 0.930 . S
C2126 H2120 0.930 . S
C2126 C2127 1.355 . S
C2126 C2128 1.415 . S
C2127 C2126 1.355 . S
C2127 C2129 1.419 . S
C2128 C2126 1.415 . S
C2128 C2133 1.425 . S
C2128 C2135 1.409 . S
C2129 H2121 0.930 . S
C2129 C2127 1.419 . S
C2129 C2130 1.362 . S
C2130 H2122 0.930 . S
C2130 C2129 1.362 . S
C2130 C2133 1.409 . S
C2131 H2123 0.930 . S
C2131 C2132 1.355 . S
C2131 C2133 1.415 . S
C2132 C2131 1.355 . S
C2132 C2134 1.419 . S
C2133 C2128 1.425 . S
C2133 C2130 1.409 . S
C2133 C2131 1.415 . S
C2134 H2124 0.930 . S
C2134 C2132 1.419 . S
C2134 C2135 1.362 . S
C2135 H2125 0.930 . S
C2135 C2128 1.409 . S
C2135 C2134 1.362 . S
H2136 C2142 0.930 . S
H2137 C2145 0.930 . S
H2138 C2146 0.930 . S
H2139 C2147 0.930 . S
H2140 C2150 0.930 . S
H2141 C2151 0.930 . S
C2142 H2136 0.930 . S
C2142 C2143 1.355 . S
C2142 C2144 1.415 . S
C2143 C2142 1.355 . S
C2143 C2145 1.419 . S
C2144 C2142 1.415 . S
C2144 C2149 1.425 . S
C2144 C2151 1.409 . S
C2145 H2137 0.930 . S
C2145 C2143 1.419 . S
C2145 C2146 1.362 . S
C2146 H2138 0.930 . S
C2146 C2145 1.362 . S
C2146 C2149 1.409 . S
C2147 H2139 0.930 . S
C2147 C2148 1.355 . S
C2147 C2149 1.415 . S
C2148 C2147 1.355 . S
C2148 C2150 1.419 . S
C2149 C2144 1.425 . S
C2149 C2146 1.409 . S
C2149 C2147 1.415 . S
C2150 H2140 0.930 . S
C2150 C2148 1.419 . S
C2150 C2151 1.362 . S
C2151 H2141 0.930 . S
C2151 C2144 1.409 . S
C2151 C2150 1.362 . S
H2152 C2158 0.930 . S
H2153 C2161 0.930 . S
H2154 C2162 0.930 . S
H2155 C2163 0.930 . S
H2156 C2166 0.930 . S
H2157 C2167 0.930 . S
C2158 H2152 0.930 . S
C2158 C2159 1.355 . S
C2158 C2160 1.415 . S
C2159 C2158 1.355 . S
C2159 C2161 1.419 . S
C2160 C2158 1.415 . S
C2160 C2165 1.425 . S
C2160 C2167 1.409 . S
C2161 H2153 0.930 . S
C2161 C2159 1.419 . S
C2161 C2162 1.362 . S
C2162 H2154 0.930 . S
C2162 C2161 1.362 . S
C2162 C2165 1.409 . S
C2163 H2155 0.930 . S
C2163 C2164 1.355 . S
C2163 C2165 1.415 . S
C2164 C2163 1.355 . S
C2164 C2166 1.419 . S
C2165 C2160 1.425 . S
C2165 C2162 1.409 . S
C2165 C2163 1.415 . S
C2166 H2156 0.930 . S
C2166 C2164 1.419 . S
C2166 C2167 1.362 . S
C2167 H2157 0.930 . S
C2167 C2160 1.409 . S
C2167 C2166 1.362 . S
H2168 C2174 0.930 . S
H2169 C2177 0.930 . S
H2170 C2178 0.930 . S
H2171 C2179 0.930 . S
H2172 C2182 0.930 . S
H2173 C2183 0.930 . S
C2174 H2168 0.930 . S
C2174 C2175 1.355 . S
C2174 C2176 1.415 . S
C2175 C2174 1.355 . S
C2175 C2177 1.419 . S
C2176 C2174 1.415 . S
C2176 C2181 1.425 . S
C2176 C2183 1.409 . S
C2177 H2169 0.930 . S
C2177 C2175 1.419 . S
C2177 C2178 1.362 . S
C2178 H2170 0.930 . S
C2178 C2177 1.362 . S
C2178 C2181 1.409 . S
C2179 H2171 0.930 . S
C2179 C2180 1.355 . S
C2179 C2181 1.415 . S
C2180 C2179 1.355 . S
C2180 C2182 1.419 . S
C2181 C2176 1.425 . S
C2181 C2178 1.409 . S
C2181 C2179 1.415 . S
C2182 H2172 0.930 . S
C2182 C2180 1.419 . S
C2182 C2183 1.362 . S
C2183 H2173 0.930 . S
C2183 C2176 1.409 . S
C2183 C2182 1.362 . S
C1423 C682 1.616 . S
C1428 C3 1.489 . S
C1439 C62 1.569 . S
C1444 C505 1.580 . S
C1455 C121 1.546 . S
C1460 C564 1.584 . S
C1471 C180 1.498 . S
C1476 C623 1.617 . S
C1487 C800 1.615 . S
C1492 C239 1.489 . S
C1503 C298 1.489 . S
C1508 C859 1.614 . S
C1519 C918 1.610 . S
C1524 C357 1.522 . S
C1535 C741 1.616 . S
C1540 C416 1.499 . S
C1551 C328 1.609 . S
C1556 C475 1.523 . S
C1567 C387 1.617 . S
C1572 C534 1.490 . S
C1583 C593 1.516 . S
C1588 C446 1.612 . S
C1599 C269 1.606 . S
C1604 C652 1.499 . S
C1615 C210 1.615 . S
C1620 C711 1.489 . S
C1631 C770 1.563 . S
C1636 C33 1.589 . S
C1647 C829 1.515 . S
C1652 C92 1.597 . S
C1663 C888 1.504 . S
C1668 C151 1.615 . S
C1679 C947 1.544 . S
C1684 C1390 1.585 . S
C1695 C1213 1.584 . S
C1700 C1006 1.569 . S
C1711 C1065 1.564 . S
C1716 C1036 1.580 . S
C1727 C1124 1.514 . S
C1732 C1095 1.612 . S
C1743 C1154 1.617 . S
C1748 C1183 1.495 . S
C1759 C1242 1.551 . S
C1764 C1331 1.583 . S
C1775 C977 1.610 . S
C1780 C1301 1.520 . S
C1791 C1272 1.584 . S
C1796 C1360 1.546 . S
C1807 C52 1.627 . S
C1812 C406 1.628 . S
C1823 C111 1.625 . S
C1828 C465 1.624 . S
C1839 C170 1.624 . S
C1844 C288 1.624 . S
C1855 C347 1.628 . S
C1860 C229 1.628 . S
C1871 C642 1.625 . S
C1876 C524 1.626 . S
C1887 C583 1.628 . S
C1892 C701 1.628 . S
C1903 C760 1.627 . S
C1908 C878 1.628 . S
C1919 C937 1.627 . S
C1924 C819 1.626 . S
C1935 C1055 1.625 . S
C1940 C996 1.625 . S
C1951 C1114 1.628 . S
C1956 C1409 1.628 . S
C1967 C1173 1.625 . S
C1972 C1291 1.626 . S
C1983 C1232 1.628 . S
C1988 C1350 1.628 . S
C1999 C5 1.184 . S
C2004 C300 1.172 . S
C2015 C64 1.191 . S
C2020 C359 1.180 . S
C2031 C123 1.173 . S
C2036 C418 1.185 . S
C2047 C241 1.166 . S
C2052 C182 1.176 . S
C2063 C477 1.161 . S
C2068 C1362 1.164 . S
C2079 C536 1.190 . S
C2084 C1244 1.198 . S
C2095 C1303 1.181 . S
C2100 C595 1.170 . S
C2111 C654 1.177 . S
C2116 C949 1.188 . S
C2127 C1185 1.185 . S
C2132 C713 1.195 . S
C2143 C1008 1.192 . S
C2148 C772 1.199 . S
C2159 C831 1.192 . S
C2164 C1067 1.181 . S
C2175 C1126 1.163 . S
C2180 C890 1.161 . S
