# Generated by pormake.
# Topology sxc, (6)-cn, num edge types: 1
# Building blocks:
#     Node 0, Type 0, BuildingBlock: KUMBUR_clean_sbu_0, # of connection points: 6
#     Node 1, Type 0, BuildingBlock: KUMBUR_clean_sbu_0, # of connection points: 6
#     Node 2, Type 0, BuildingBlock: KUMBUR_clean_sbu_0, # of connection points: 6
#     Edge 3, Type (0, 0), BuildingBlock: FUNLAD_clean_linker_1, # of connection points: 2
#     Edge 4, Type (0, 0), BuildingBlock: FUNLAD_clean_linker_1, # of connection points: 2
#     Edge 5, Type (0, 0), BuildingBlock: FUNLAD_clean_linker_1, # of connection points: 2
#     Edge 6, Type (0, 0), BuildingBlock: FUNLAD_clean_linker_1, # of connection points: 2
#     Edge 7, Type (0, 0), BuildingBlock: FUNLAD_clean_linker_1, # of connection points: 2
#     Edge 8, Type (0, 0), BuildingBlock: FUNLAD_clean_linker_1, # of connection points: 2
#     Edge 9, Type (0, 0), BuildingBlock: FUNLAD_clean_linker_1, # of connection points: 2
#     Edge 10, Type (0, 0), BuildingBlock: FUNLAD_clean_linker_1, # of connection points: 2
#     Edge 11, Type (0, 0), BuildingBlock: FUNLAD_clean_linker_1, # of connection points: 2
# Relax obj value: 0.205
# Max RMSD: 0.148
# Mean RMSD: 0.128
data_MOF--net-sxc--node1-KUMBUR_clean_sbu_0--edge1-FUNLAD_clean_linker_1
_symmetry_space_group_name_H-M    P1
_symmetry_Int_Tables_number       1
_symmetry_cell_setting            triclinic
loop_
_symmetry_equiv_pos_as_xyz
'x, y, z'
_cell_length_a     15.417498
_cell_length_b     16.450944
_cell_length_c     46.574509
_cell_angle_alpha  110.4884
_cell_angle_beta   97.494644
_cell_angle_gamma 93.643357
loop_
_atom_site_label
_atom_site_type_symbol
_atom_site_fract_x
_atom_site_fract_y
_atom_site_fract_z
_atom_type_partial_charge
Tb0 Tb 0.23088 0.20791 0.00417 0.0
C1 C 0.90691 0.12505 0.91852 0.0
C2 C 0.82847 0.25255 0.92837 0.0
C3 C 0.79402 0.1327 0.87832 0.0
C4 C 0.89385 0.20726 0.93799 0.0
C5 C 0.85779 1.08694 0.8884 0.0
C6 C 0.77907 0.21512 0.89832 0.0
C7 C 0.93648 0.96025 0.88103 0.0
N8 N 0.9682 1.08247 0.92931 0.0
C9 C 0.98263 1.00023 0.9113 0.0
C10 C 0.87374 1.00375 0.86952 0.0
Tb11 Tb 1.03326 0.15136 0.98001 0.0
N12 N 0.94262 0.24103 0.96688 0.0
C13 C 0.92548 0.31717 -0.01192 0.0
C14 C 0.81301 0.3327 0.94959 0.0
C15 C 0.86102 0.36456 0.97971 0.0
H16 H 1.03047 0.96635 0.92042 0.0
H17 H 0.84793 0.42524 -0.00345 0.0
H18 H 0.72854 0.24893 0.89044 0.0
H19 H 0.9488 0.89573 0.86668 0.0
H20 H 0.96068 0.3406 0.01163 0.0
H21 H 0.43099 0.96048 0.01396 0.0
H22 H 0.76289 0.36939 0.94322 0.0
H23 H 0.20853 0.40394 0.05269 0.0
H24 H 0.31335 1.02127 -0.01114 0.0
H25 H 0.28263 0.50562 0.1046 0.0
H26 H 0.75522 1.10449 0.85527 0.0
H27 H 0.51243 1.04937 0.06628 0.0
H28 H 0.53819 0.19287 0.11192 0.0
H29 H 0.83756 0.97229 0.84615 0.0
H30 H 0.49899 0.34188 0.13638 0.0
N31 N 0.32406 0.1396 0.02763 0.0
C32 C 0.34588 1.05849 0.01229 0.0
C33 C 0.45975 1.0754 0.05569 0.0
C34 C 0.43908 0.15997 0.07077 0.0
C35 C 0.41339 1.02472 0.02622 0.0
C36 C 0.37089 0.19079 0.05572 0.0
H37 H 0.40321 0.45937 0.13388 0.0
N38 N 0.28568 0.30191 0.05327 0.0
C39 C 0.30254 0.44098 0.09483 0.0
C40 C 0.35097 0.27521 0.06907 0.0
C41 C 0.26034 0.38333 0.06563 0.0
C42 C 0.37071 0.41464 0.11128 0.0
C43 C 0.39559 0.33062 0.09843 0.0
O44 O 0.30926 0.31871 0.00556 0.0
O45 O 0.12225 0.27804 -0.00415 0.0
O46 O 0.08557 0.15655 0.93904 0.0
O47 O 0.22405 0.12854 0.9548 0.0
O48 O 0.12296 0.27924 -0.00451 0.0
O49 O 0.33673 0.18971 0.979 0.0
O50 O 0.95698 1.03313 0.97244 0.0
O51 O 0.14208 1.08073 -0.01231 0.0
O52 O 0.18259 0.19621 0.04469 0.0
O53 O 1.04338 0.2252 0.03021 0.0
O54 O 0.1413 1.07936 -0.01192 0.0
O55 O 0.9299 0.15351 0.00564 0.0
C56 C 0.1315 0.33173 0.9805 0.0
C57 C 0.45788 0.30084 0.00312 0.0
C58 C 0.57911 0.41788 0.02143 0.0
C59 C 0.48969 0.38849 0.01057 0.0
C60 C 0.63752 0.35954 0.02562 0.0
C61 C 0.51627 0.24278 0.00789 0.0
C62 C 0.60562 0.27249 0.01936 0.0
C63 C 0.16341 0.13319 0.93294 0.0
C64 C 0.36417 0.27292 -0.01022 0.0
C65 C 0.46322 0.3002 0.11383 0.0
C66 C 0.48529 0.21519 0.09994 0.0
C67 C 0.13326 1.0254 0.00246 0.0
C68 C 0.80914 1.04539 0.97767 0.0
C69 C 0.7761 0.95769 0.96919 0.0
C70 C 0.68642 0.92996 0.95821 0.0
C71 C 0.62923 0.99011 0.9548 0.0
C72 C 0.75196 1.10541 0.97384 0.0
C73 C 0.66247 1.07738 0.96212 0.0
C74 C 0.10473 0.21745 0.05137 0.0
C75 C 0.90314 1.07095 -0.00933 0.0
H76 H 0.44516 0.43349 0.00663 0.0
H77 H 0.7072 0.3812 0.03357 0.0
H78 H 0.4934 0.1747 0.00251 0.0
H79 H 0.65048 0.22761 0.02289 0.0
H80 H 0.81988 0.91129 0.97241 0.0
H81 H 0.55941 0.9697 0.94668 0.0
H82 H 0.77589 0.17363 0.9801 0.0
H83 H 0.61855 0.12368 0.95922 0.0
Tb84 Tb 0.22009 0.3276 0.34579 0.0
C85 C 1.01466 1.0122 0.27999 0.0
C86 C 0.91633 0.99829 0.31496 0.0
C87 C 0.86098 0.95207 0.25984 0.0
C88 C 1.0005 1.02373 0.30973 0.0
C89 C 0.94582 0.97231 0.25454 0.0
C90 C 0.84618 0.96532 0.29004 0.0
C91 C 1.0528 0.95806 0.22035 0.0
N92 N 0.09786 1.03103 0.27567 0.0
C93 C 0.11861 0.99658 0.24626 0.0
C94 C 0.96543 0.94851 0.22445 0.0
Tb95 Tb 0.20072 1.09866 0.32039 0.0
N96 N 1.06995 1.05601 0.33337 0.0
C97 C 1.06038 1.05582 0.36222 0.0
C98 C 0.9055 1.00484 0.34496 0.0
C99 C 0.97822 1.03242 0.36856 0.0
H100 H 0.18617 1.00043 0.24241 0.0
H101 H 0.97117 1.03537 0.39169 0.0
H102 H 0.78093 0.94713 0.29375 0.0
H103 H 1.06983 0.93472 0.19725 0.0
H104 H 0.11507 1.07195 0.38071 0.0
H105 H 0.36753 0.41438 0.25865 0.0
H106 H 0.84202 0.98641 0.34993 0.0
H107 H 0.30159 0.3971 0.42347 0.0
H108 H 0.24635 0.38093 0.28276 0.0
H109 H 0.44504 0.43795 0.45635 0.0
H110 H 0.80715 0.92296 0.24063 0.0
H111 H 0.52031 0.44177 0.28649 0.0
H112 H 0.62284 0.46121 0.33523 0.0
H113 H 0.91456 0.91768 0.20435 0.0
H114 H 0.64409 0.46712 0.38913 0.0
N115 N 0.32794 0.37272 0.32236 0.0
C116 C 0.31208 0.38495 0.29453 0.0
C117 C 0.46698 0.42351 0.29687 0.0
C118 C 0.48229 0.42105 0.32674 0.0
C119 C 0.38108 0.40736 0.28101 0.0
C120 C 0.41035 0.39662 0.33921 0.0
H121 H 0.57847 0.45862 0.43444 0.0
N122 N 0.35132 0.37745 0.38079 0.0
C123 C 0.44027 0.42478 0.4317 0.0
C124 C 0.42252 0.39874 0.36934 0.0
C125 C 0.35845 0.39809 0.41234 0.0
C126 C 0.51521 0.43706 0.41934 0.0
C127 C 0.50665 0.42685 0.38803 0.0
O128 O 0.17243 0.41911 0.38286 0.0
O129 O 0.13153 0.21212 0.34044 0.0
O130 O 0.20948 0.14402 0.28135 0.0
O131 O 0.16596 0.28309 0.29643 0.0
O132 O 1.07969 0.30494 0.32547 0.0
O133 O 0.20722 0.45293 0.34498 0.0
O134 O 0.27556 1.00714 0.29354 0.0
O135 O 0.28947 0.21434 0.32616 0.0
O136 O 0.21013 0.28634 0.38545 0.0
O137 O 0.23603 0.14078 0.37069 0.0
O138 O 0.33851 0.12564 0.34362 0.0
O139 O 0.20362 0.97753 0.32592 0.0
C140 C 1.05928 0.23247 0.32928 0.0
C141 C 0.08876 0.51872 0.36793 0.0
C142 C 1.00138 0.60928 0.34659 0.0
C143 C 1.07522 0.56428 0.3476 0.0
C144 C 0.93765 0.60448 0.365 0.0
C145 C 1.02542 0.51642 0.38688 0.0
C146 C 0.94984 0.55837 0.38511 0.0
C147 C 0.17762 0.20944 0.2748 0.0
C148 C 0.17062 0.47718 0.3698 0.0
C149 C 0.57895 0.44688 0.37525 0.0
C150 C 0.56683 0.4437 0.34461 0.0
C151 C 0.36041 0.19566 0.33866 0.0
C152 C 0.34448 0.92854 0.32209 0.0
C153 C 0.35621 0.93217 0.35302 0.0
C154 C 0.43316 0.90764 0.36593 0.0
C155 C 0.50097 0.8847 0.34831 0.0
C156 C 0.41213 0.90288 0.30453 0.0
C157 C 0.49025 0.88204 0.31773 0.0
C158 C 0.2293 0.21692 0.39201 0.0
C159 C 0.26376 0.95452 0.30839 0.0
H160 H 0.12159 0.56323 0.3321 0.0
H161 H 0.87913 0.63722 0.36409 0.0
H162 H 1.03401 0.48218 0.40294 0.0
H163 H 0.90087 0.55561 0.39953 0.0
H164 H 0.30566 0.95399 0.36715 0.0
H165 H 0.5612 0.86653 0.35795 0.0
H166 H 0.405 0.90007 0.28074 0.0
H167 H 0.54241 0.86312 0.30412 0.0
Tb168 Tb 0.17976 0.9907 0.63266 0.0
C169 C 1.0295 0.29638 0.68152 0.0
C170 C 0.99738 0.36643 0.64429 0.0
C171 C 0.88985 0.35573 0.67686 0.0
C172 C 1.05317 0.32061 0.65805 0.0
C173 C 0.94927 0.31743 0.69228 0.0
C174 C 0.91374 0.37982 0.65271 0.0
C175 C 0.9955 0.26731 0.73394 0.0
N176 N 0.08716 0.25595 0.69487 0.0
C177 C 1.07292 0.24558 0.7219 0.0
C178 C 0.93242 0.30165 0.71869 0.0
Tb179 Tb 0.21191 0.21987 0.67257 0.0
N180 N 0.13474 0.30711 0.65097 0.0
C181 C 0.16922 0.3504 0.6338 0.0
C182 C 1.02913 0.40141 0.6238 0.0
C183 C 0.11642 0.39544 0.61923 0.0
H184 H 0.12124 0.22304 0.73517 0.0
H185 H 0.14344 0.4262 0.60473 0.0
H186 H 0.86905 0.41286 0.64186 0.0
H187 H 0.98479 0.25789 0.75514 0.0
H188 H 0.23756 0.34898 0.63077 0.0
H189 H 0.34137 0.83053 0.70628 0.0
H190 H 0.98854 0.43723 0.61283 0.0
H191 H 0.22045 0.9769 0.56128 0.0
H192 H 0.21744 0.88613 0.68424 0.0
H193 H 0.34205 0.95076 0.53228 0.0
H194 H 0.82686 0.37 0.6842 0.0
H195 H 0.4803 0.82197 0.68489 0.0
H196 H 0.56269 0.83786 0.64394 0.0
H197 H 0.87242 0.31838 0.72803 0.0
H198 H 0.56152 0.86701 0.59564 0.0
N199 N 0.28728 0.92341 0.65285 0.0
C200 C 0.27857 0.88933 0.67555 0.0
C201 C 0.42643 0.84941 0.67554 0.0
C202 C 0.43178 0.87444 0.65006 0.0
C203 C 0.34845 0.85466 0.68777 0.0
C204 C 0.3596 0.90994 0.63875 0.0
H205 H 0.47784 0.90476 0.55314 0.0
N206 N 0.28911 0.96155 0.60183 0.0
C207 C 0.34921 0.94645 0.55513 0.0
C208 C 0.36001 0.92849 0.61213 0.0
C209 C 0.28083 0.96466 0.57253 0.0
C210 C 0.42542 0.92005 0.56687 0.0
C211 C 0.43138 0.90985 0.59554 0.0
O212 O 0.10821 0.91886 0.58829 0.0
O213 O 0.11273 1.10842 0.64631 0.0
O214 O 0.22421 0.15287 0.70614 0.0
O215 O 0.16396 1.00794 0.67999 0.0
O216 O 1.05329 0.99837 0.65009 0.0
O217 O 0.13079 0.85987 0.62266 0.0
O218 O 0.27767 0.27351 0.71884 0.0
O219 O 0.2788 1.10216 0.65945 0.0
O220 O 0.14657 1.05828 0.60022 0.0
O221 O 0.22249 0.19706 0.62403 0.0
O222 O 0.33736 0.21136 0.6547 0.0
O223 O 0.27434 0.34875 0.68943 0.0
C224 C 1.04315 1.07816 0.65328 0.0
C225 C 0.99254 0.82015 0.58917 0.0
C226 C 0.86137 0.76849 0.60472 0.0
C227 C 0.95097 0.80017 0.61138 0.0
C228 C 0.812 0.7595 0.57599 0.0
C229 C 0.94249 0.81038 0.56044 0.0
C230 C 0.85254 0.78094 0.55405 0.0
C231 C 0.19379 1.07519 0.70559 0.0
C232 C 0.08736 0.85198 0.59573 0.0
C233 C 0.50531 0.87949 0.60766 0.0
C234 C 0.50588 0.86272 0.63509 0.0
C235 C 0.34798 0.13207 0.65212 0.0
C236 C 0.4052 0.36929 0.72544 0.0
C237 C 0.45631 0.39538 0.70664 0.0
C238 C 0.5463 0.42396 0.71681 0.0
C239 C 0.58655 0.42336 0.74555 0.0
C240 C 0.44621 0.36891 0.75416 0.0
C241 C 0.53658 0.39511 0.76398 0.0
C242 C 0.18201 0.13217 0.5992 0.0
C243 C 0.30922 0.34437 0.7157 0.0
H244 H 0.98849 0.80707 0.63365 0.0
H245 H 0.74232 0.73627 0.57059 0.0
H246 H 0.97294 0.82581 0.543 0.0
H247 H 0.81432 0.77415 0.53196 0.0
H248 H 0.42578 0.39652 0.68447 0.0
H249 H 0.65627 0.44444 0.75364 0.0
H250 H 0.40827 0.34876 0.76904 0.0
H251 H 0.56776 0.39446 0.7861 0.0
H252 H 0.09057 0.45497 0.01446 0.0
C253 C 0.112 0.42778 -0.00791 0.0
H254 H 0.15415 0.45266 0.9545 0.0
H255 H 0.96957 0.82015 -0.00962 0.0
H256 H 0.83113 0.72964 0.9808 0.0
H257 H 0.82726 0.5735 0.9735 0.0
H258 H 0.96285 0.50633 0.97571 0.0
C259 C 0.12938 0.4826 0.97614 0.0
C260 C 0.1296 0.58384 0.98625 0.0
C261 C 1.05079 0.62478 0.98517 0.0
C262 C 1.05303 0.71679 -0.01062 0.0
C263 C 0.97219 0.75242 -0.01216 0.0
C264 C 0.89207 0.701 0.98221 0.0
C265 C 0.88997 0.61296 0.97801 0.0
C266 C 0.96807 0.57509 0.97936 0.0
H267 H 0.16941 0.90267 0.9668 0.0
C268 C 0.15043 0.92884 -0.01038 0.0
H269 H 0.1124 0.90191 0.02742 0.0
H270 H 0.29411 0.53529 -0.00979 0.0
H271 H 0.43226 0.62522 -0.00117 0.0
H272 H 0.43592 0.7807 0.00523 0.0
H273 H 0.30042 0.84804 0.00319 0.0
C274 C 0.13458 0.87279 0.00523 0.0
C275 C 0.13387 0.77144 -0.00563 0.0
C276 C 0.2126 0.73029 -0.00493 0.0
C277 C 0.21042 0.63843 -0.00894 0.0
C278 C 0.2913 0.60282 -0.0075 0.0
C279 C 0.3713 0.65391 -0.00244 0.0
C280 C 0.37329 0.74162 0.00128 0.0
C281 C 0.29522 0.77961 0.00016 0.0
H282 H 0.45913 0.2406 0.31441 0.0
C283 C 0.45184 0.21153 0.33166 0.0
H284 H 0.51629 0.15638 0.36178 0.0
H285 H 0.8187 0.13996 0.26874 0.0
H286 H 0.70421 1.05567 0.22593 0.0
H287 H 0.55119 1.03349 0.2342 0.0
H288 H 0.51117 1.09642 0.28523 0.0
C289 C 0.52466 0.18591 0.34464 0.0
C290 C 0.61888 0.20027 0.33871 0.0
C291 C 0.64269 0.16236 0.30871 0.0
C292 C 0.73256 0.17343 0.30404 0.0
C293 C 0.75243 0.13451 0.27371 0.0
C294 C 0.68733 1.08536 0.24888 0.0
C295 C 0.60115 1.07293 0.25354 0.0
C296 C 0.57886 1.11031 0.283 0.0
H297 H 0.96228 0.1819 0.35265 0.0
C298 C 0.9684 0.21252 0.33581 0.0
H299 H 0.90124 0.26803 0.30631 0.0
H300 H 0.60255 0.27611 0.39975 0.0
H301 H 0.7174 0.3587 0.44263 0.0
H302 H 0.86994 0.38287 0.43421 0.0
H303 H 0.90907 0.3233 0.38297 0.0
C304 C 0.89447 0.23733 0.32324 0.0
C305 C 0.80101 0.22063 0.32934 0.0
C306 C 0.77744 0.25768 0.35941 0.0
C307 C 0.68768 0.24607 0.36412 0.0
C308 C 0.66843 0.28282 0.39463 0.0
C309 C 0.73382 0.33083 0.41954 0.0
C310 C 0.81974 0.34434 0.4148 0.0
C311 C 0.8415 0.3089 0.38519 0.0
H312 H 0.8438 0.78142 0.65236 0.0
C313 C 0.82211 0.74258 0.62788 0.0
H314 H 0.75057 0.62562 0.59546 0.0
H315 H 0.81288 0.54781 0.72723 0.0
H316 H 0.96904 0.56395 0.72483 0.0
H317 H 1.02195 0.60775 0.68403 0.0
H318 H 0.91955 0.63752 0.64592 0.0
C319 C 0.77093 0.66651 0.61978 0.0
C320 C 0.74007 0.63604 0.64359 0.0
C321 C 0.80117 0.61562 0.66496 0.0
C322 C 0.77055 0.58721 0.68778 0.0
C323 C 0.83267 0.56917 0.70932 0.0
C324 C 0.92249 0.57821 0.70822 0.0
C325 C 0.95229 0.60304 0.68529 0.0
C326 C 0.89265 0.62071 0.66368 0.0
H327 H 0.57786 0.4258 0.67225 0.0
C328 C 0.59493 0.45776 0.69735 0.0
H329 H 0.662 0.56947 0.73414 0.0
H330 H 0.60619 0.67118 0.60638 0.0
H331 H 0.45087 0.66039 0.61025 0.0
H332 H 0.39856 0.61571 0.65095 0.0
H333 H 0.50097 0.57962 0.68752 0.0
C334 C 0.64641 0.53456 0.70919 0.0
C335 C 0.67907 0.57565 0.68825 0.0
C336 C 0.61839 0.59941 0.66771 0.0
C337 C 0.64883 0.62797 0.64494 0.0
C338 C 0.58672 0.6492 0.6242 0.0
C339 C 0.49733 0.64357 0.62621 0.0
C340 C 0.46785 0.61824 0.64907 0.0
C341 C 0.52736 0.59684 0.66974 0.0
H342 H 0.93921 0.15271 0.63934 0.0
C343 C 0.95202 1.10639 0.65071 0.0
H344 H 0.8978 1.02393 0.6713 0.0
H345 H 0.55302 0.1961 0.70678 0.0
H346 H 0.63825 0.22211 0.75719 0.0
H347 H 0.79017 0.18405 0.76209 0.0
H348 H 0.85897 0.12244 0.71663 0.0
C349 C 0.88362 1.07015 0.6599 0.0
C350 C 0.78826 1.09049 0.65637 0.0
C351 C 0.7454 0.12121 0.68291 0.0
C352 C 0.65503 0.13874 0.67996 0.0
C353 C 0.61877 0.17694 0.70735 0.0
C354 C 0.66736 0.19304 0.73655 0.0
C355 C 0.75299 0.17185 0.73931 0.0
C356 C 0.79175 0.13643 0.71295 0.0
H357 H 0.45311 1.06229 0.66826 0.0
C358 C 0.43995 1.10624 0.65595 0.0
H359 H 0.49425 0.1853 0.63418 0.0
H360 H 0.83947 1.01459 0.59997 0.0
H361 H 0.7528 0.9828 0.54945 0.0
H362 H 0.59972 1.01628 0.54423 0.0
H363 H 0.53154 1.08247 0.58965 0.0
C364 C 0.50857 0.14128 0.6465 0.0
C365 C 0.60387 0.12058 0.65021 0.0
C366 C 0.64637 1.08834 0.62362 0.0
C367 C 0.73698 1.07164 0.62663 0.0
C368 C 0.77327 1.03258 0.59931 0.0
C369 C 0.72391 1.0132 0.57004 0.0
C370 C 0.63762 1.03227 0.56713 0.0
C371 C 0.59921 1.06986 0.59345 0.0
H372 H 0.6938 0.78888 0.94216 0.0
C373 C 0.65464 0.83962 0.95373 0.0
H374 H 0.56961 0.87704 0.98675 0.0
H375 H 0.55849 0.44708 0.95366 0.0
H376 H 0.45609 0.43262 0.90753 0.0
H377 H 0.42413 0.56196 0.89457 0.0
H378 H 0.4945 0.70698 0.92793 0.0
C379 C 0.6016 0.82424 0.97229 0.0
C380 C 0.61221 0.7474 0.98145 0.0
C381 C 0.57152 0.66354 0.96159 0.0
C382 C 0.58988 0.58927 0.96913 0.0
C383 C 0.54727 0.506 0.94909 0.0
C384 C 0.48825 0.4967 0.92251 0.0
C385 C 0.4703 0.56953 0.9152 0.0
C386 C 0.51133 0.6522 0.93443 0.0
H387 H 0.57101 0.55888 0.03715 0.0
C388 C 0.60934 0.50796 0.02512 0.0
H389 H 0.6902 0.46932 -0.0092 0.0
H390 H 0.70111 0.90004 0.02466 0.0
H391 H 0.80363 0.91461 0.07077 0.0
H392 H 0.83642 0.78522 0.08357 0.0
H393 H 0.76655 0.64008 0.05013 0.0
C394 C 0.6597 0.52256 0.00569 0.0
C395 C 0.64836 0.59956 -0.00332 0.0
C396 C 0.68901 0.68347 0.01656 0.0
C397 C 0.67046 0.75774 0.00905 0.0
C398 C 0.71271 0.8411 0.02916 0.0
C399 C 0.77178 0.85045 0.05574 0.0
C400 C 0.79016 0.7776 0.06295 0.0
C401 C 0.74939 0.69486 0.04368 0.0
H402 H 0.92502 0.64528 0.31021 0.0
C403 C 0.98839 0.65774 0.32517 0.0
H404 H 1.03443 0.74927 0.30701 0.0
H405 H 0.42988 0.72405 0.36829 0.0
H406 H 0.42714 0.61125 0.31774 0.0
H407 H 0.29167 0.56543 0.27894 0.0
H408 H 0.157 0.63082 0.29047 0.0
C409 C 1.04956 0.71806 0.32382 0.0
C410 C 0.13378 0.7509 0.34616 0.0
C411 C 0.21333 0.71825 0.33769 0.0
C412 C 0.2928 0.74798 0.3594 0.0
C413 C 0.36904 0.70692 0.3519 0.0
C414 C 0.36816 0.64179 0.3231 0.0
C415 C 0.29181 0.61622 0.30118 0.0
C416 C 0.2152 0.65426 0.30812 0.0
H417 H 0.50574 0.92991 0.41276 0.0
C418 C 0.44301 0.9035 0.39752 0.0
H419 H 0.39435 0.8644 0.43121 0.0
H420 H 0.99263 0.82499 0.37038 0.0
H421 H 0.99589 0.93433 0.42161 0.0
H422 H 0.13594 0.99334 0.45768 0.0
H423 H 0.2738 0.94311 0.4429 0.0
C424 C 0.38103 0.86333 0.40759 0.0
C425 C 0.29491 0.81783 0.38803 0.0
C426 C 0.21519 0.84891 0.39691 0.0
C427 C 0.13439 0.81499 0.37601 0.0
C428 C 1.05577 0.84765 0.3854 0.0
C429 C 1.05675 0.91083 0.41468 0.0
C430 C 0.13566 0.94425 0.43498 0.0
C431 C 0.21429 0.91455 0.42622 0.0
H432 H 0.19046 0.14891 0.22543 0.0
C433 C 0.16391 0.20217 0.24192 0.0
H434 H 0.09428 0.31184 0.24814 0.0
H435 H 0.19898 0.38068 0.13097 0.0
H436 H 0.25354 0.51831 0.17292 0.0
H437 H 0.24317 0.53673 0.22702 0.0
H438 H 0.18049 0.41709 0.2399 0.0
C439 C 0.1207 0.25819 0.2318 0.0
C440 C 0.11407 0.25236 0.19879 0.0
C441 C 0.15076 0.32363 0.19196 0.0
C442 C 0.15644 0.31356 0.16067 0.0
C443 C 0.19424 0.3849 0.15437 0.0
C444 C 0.22536 0.46426 0.17821 0.0
C445 C 0.21972 0.47443 0.20875 0.0
C446 C 0.18347 0.40513 0.21575 0.0
H447 H 1.02286 0.25455 0.08862 0.0
C448 C 0.08577 0.2329 0.08299 0.0
H449 H 0.20654 0.19673 0.09916 0.0
H450 H 1.01503 0.11349 0.20267 0.0
H451 H 0.95205 0.97972 0.15989 0.0
H452 H 0.97027 0.95937 0.10608 0.0
H453 H 1.04933 1.07368 0.09452 0.0
C454 C 0.14345 0.21854 0.10446 0.0
C455 C 0.12508 0.23297 0.13631 0.0
C456 C 0.08161 0.16448 0.14277 0.0
C457 C 1.07442 0.17481 0.17399 0.0
C458 C 1.02617 1.10727 0.17958 0.0
C459 C 0.98901 1.03058 0.15522 0.0
C460 C 0.99896 1.01924 0.12488 0.0
C461 C 1.04461 1.08523 0.11858 0.0
H462 H 0.22395 0.28713 0.44144 0.0
C463 C 0.23283 0.22421 0.42461 0.0
H464 H 0.25225 1.09307 0.4178 0.0
H465 H 0.38743 0.16467 0.55964 0.0
H466 H 0.51895 0.12675 0.53723 0.0
H467 H 0.52247 1.10266 0.48209 0.0
H468 H 0.39488 0.11992 0.44926 0.0
C469 C 0.24095 0.15609 0.43392 0.0
C470 C 0.23669 0.16574 0.4667 0.0
C471 C 0.31156 0.15461 0.48548 0.0
C472 C 0.30942 0.16787 0.51724 0.0
C473 C 0.38528 0.15619 0.53544 0.0
C474 C 0.46122 0.13362 0.5228 0.0
C475 C 0.46329 0.12057 0.4918 0.0
C476 C 0.38956 0.13082 0.47323 0.0
H477 H 0.13299 1.08974 0.54912 0.0
C478 C 0.17621 0.13961 0.56841 0.0
H479 H 0.27629 0.24533 0.58131 0.0
H480 H 1.07606 0.17708 0.43591 0.0
H481 H 0.9465 0.22199 0.45882 0.0
H482 H 0.94742 0.25805 0.51497 0.0
H483 H 1.07738 0.24707 0.54829 0.0
C484 C 0.22847 0.19865 0.56269 0.0
C485 C 0.23214 0.19165 0.53011 0.0
C486 C 0.15732 0.20318 0.51134 0.0
C487 C 0.15864 0.18761 0.47939 0.0
C488 C 0.08056 0.19282 0.46066 0.0
C489 C 1.0053 0.21772 0.47347 0.0
C490 C 1.00569 0.23761 0.50503 0.0
C491 C 0.08056 0.23048 0.52386 0.0
H492 H 0.13205 1.01768 0.7351 0.0
C493 C 0.1849 1.06487 0.73525 0.0
H494 H 0.28884 0.16145 0.76196 0.0
H495 H 0.14418 0.28677 0.88794 0.0
H496 H 0.16785 0.41996 0.87747 0.0
H497 H 0.20981 0.41611 0.82772 0.0
H498 H 0.22989 0.27976 0.78849 0.0
C499 C 0.2359 0.11486 0.76215 0.0
C500 C 0.21452 0.11669 0.79274 0.0
C501 C 0.20065 0.19739 0.81513 0.0
C502 C 0.17399 0.19951 0.84348 0.0
C503 C 0.16296 0.28113 0.86579 0.0
C504 C 0.17639 0.35823 0.86011 0.0
C505 C 0.20017 0.35606 0.83214 0.0
C506 C 0.21183 0.27692 0.8098 0.0
H507 H 0.25095 1.09789 0.89773 0.0
C508 C 0.18534 0.11489 0.9016 0.0
H509 H 1.06528 0.14531 0.8826 0.0
H510 H 0.25475 0.95415 0.75862 0.0
H511 H 0.22707 0.82069 0.76868 0.0
H512 H 0.16466 0.82242 0.81503 0.0
H513 H 0.13193 0.95825 0.85205 0.0
C514 C 0.12961 0.12451 0.87866 0.0
C515 C 0.1592 0.12099 0.84915 0.0
C516 C 0.17397 1.04055 0.82705 0.0
C517 C 0.20467 1.03877 0.79933 0.0
C518 C 0.22589 0.95854 0.77898 0.0
C519 C 0.21136 0.88154 0.78469 0.0
C520 C 0.17661 0.88257 0.81086 0.0
C521 C 0.15838 0.96102 0.83196 0.0
loop_
_geom_bond_atom_site_label_1
_geom_bond_atom_site_label_2
_geom_bond_distance
_geom_bond_site_symmetry_2
_ccdc_geom_bond_type
Tb0 N31 2.660 1_554 S
Tb0 N38 2.600 . S
Tb0 O44 2.546 . S
Tb0 O45 2.610 1_455 S
Tb0 O47 2.320 1_554 S
Tb0 O48 2.552 . S
Tb0 O49 2.413 . S
Tb0 O51 2.362 . S
Tb0 O52 2.421 . S
Tb0 C64 2.833 . S
C1 C4 1.432 1_556 S
C1 C5 1.414 . S
C1 N8 1.359 . S
C2 C4 1.417 . S
C2 C6 1.432 1_554 S
C2 C14 1.410 . S
C3 C5 1.444 . S
C3 C6 1.317 . S
C3 H26 0.929 . S
C4 C1 1.432 1_554 S
C4 C2 1.417 . S
C4 N12 1.360 . S
C5 C1 1.414 . S
C5 C3 1.444 . S
C5 C10 1.385 . S
C6 C2 1.432 1_556 S
C6 C3 1.317 . S
C6 H18 0.930 1_556 S
C7 C9 1.392 . S
C7 C10 1.370 . S
C7 H19 0.931 1_545 S
N8 C1 1.359 . S
N8 C9 1.327 . S
N8 Tb11 2.600 . S
C9 C7 1.392 . S
C9 N8 1.327 . S
C9 H16 0.930 1_545 S
C10 C5 1.385 . S
C10 C7 1.370 . S
C10 H29 0.930 . S
Tb11 N8 2.600 . S
Tb11 N12 2.660 1_556 S
Tb11 O45 2.362 1_556 S
Tb11 O46 2.421 . S
Tb11 O50 2.546 1_545 S
Tb11 O51 2.610 1_656 S
Tb11 O53 2.320 1_556 S
Tb11 O54 2.552 1_545 S
Tb11 O55 2.413 1_546 S
Tb11 C75 2.833 1_545 S
N12 C4 1.360 . S
N12 Tb11 2.660 1_554 S
N12 C13 1.305 . S
C13 N12 1.305 . S
C13 C15 1.407 . S
C13 H20 0.930 . S
C14 C2 1.410 . S
C14 C15 1.345 . S
C14 H22 0.930 . S
C15 C13 1.407 . S
C15 C14 1.345 . S
C15 H17 0.930 . S
H16 C9 0.930 1_565 S
H17 C15 0.930 . S
H18 C6 0.930 1_554 S
H19 C7 0.931 1_565 S
H20 C13 0.930 . S
H21 C35 0.930 . S
H22 C14 0.930 . S
H23 C41 0.930 . S
H24 C32 0.924 1_545 S
H25 C39 0.931 . S
H26 C3 0.929 . S
H27 C33 0.930 . S
H28 C66 0.930 . S
H29 C10 0.930 . S
H30 C65 0.929 . S
N31 Tb0 2.660 1_556 S
N31 C32 1.305 1_545 S
N31 C36 1.360 1_556 S
C32 H24 0.924 1_565 S
C32 N31 1.305 1_565 S
C32 C35 1.407 . S
C33 H27 0.930 . S
C33 C34 1.410 1_556 S
C33 C35 1.345 . S
C34 C33 1.410 1_554 S
C34 C36 1.417 1_565 S
C34 C66 1.432 . S
C35 H21 0.930 . S
C35 C32 1.407 . S
C35 C33 1.345 . S
C36 N31 1.360 1_554 S
C36 C34 1.417 1_545 S
C36 C40 1.432 . S
H37 C42 0.930 . S
N38 Tb0 2.600 . S
N38 C40 1.359 . S
N38 C41 1.327 . S
C39 H25 0.931 . S
C39 C41 1.392 . S
C39 C42 1.370 . S
C40 C36 1.432 . S
C40 N38 1.359 . S
C40 C43 1.414 . S
C41 H23 0.930 . S
C41 N38 1.327 . S
C41 C39 1.392 . S
C42 H37 0.930 . S
C42 C39 1.370 . S
C42 C43 1.385 . S
C43 C40 1.414 . S
C43 C42 1.385 . S
C43 C65 1.444 . S
O44 Tb0 2.546 . S
O44 C64 1.251 . S
O45 Tb0 2.610 1_655 S
O45 Tb11 2.362 1_554 S
O45 C56 1.283 1_655 S
O46 Tb11 2.421 . S
O46 C63 1.262 1_655 S
O47 Tb0 2.320 1_556 S
O47 C63 1.260 . S
O48 Tb0 2.552 . S
O48 C56 1.243 . S
O49 Tb0 2.413 . S
O49 C64 1.256 . S
O50 Tb11 2.546 1_565 S
O50 C75 1.251 . S
O51 Tb0 2.362 . S
O51 Tb11 2.610 1_454 S
O51 C67 1.283 1_445 S
O52 Tb0 2.421 . S
O52 C74 1.262 1_455 S
O53 Tb11 2.320 1_554 S
O53 C74 1.260 . S
O54 Tb11 2.552 1_565 S
O54 C67 1.243 1_556 S
O55 Tb11 2.413 1_564 S
O55 C75 1.256 1_554 S
C56 O45 1.283 1_455 S
C56 O48 1.243 . S
C57 C59 1.382 . S
C57 C61 1.393 . S
C57 C64 1.500 . S
C58 C59 1.400 . S
C58 C60 1.384 . S
C59 C57 1.382 . S
C59 C58 1.400 . S
C59 H76 0.930 1_554 S
C60 C58 1.384 . S
C60 C62 1.392 . S
C60 H77 0.931 . S
C61 C57 1.393 . S
C61 C62 1.401 . S
C61 H78 0.930 . S
C62 C60 1.392 . S
C62 C61 1.401 . S
C62 H79 0.930 . S
C63 O46 1.262 1_455 S
C63 O47 1.260 . S
C64 Tb0 2.833 . S
C64 O44 1.251 . S
C64 O49 1.256 . S
C64 C57 1.500 . S
C65 H30 0.929 . S
C65 C43 1.444 . S
C65 C66 1.317 1_545 S
C66 H28 0.930 . S
C66 C34 1.432 . S
C66 C65 1.317 1_565 S
C67 O51 1.283 1_665 S
C67 O54 1.243 1_554 S
C68 C69 1.382 1_556 S
C68 C72 1.393 . S
C68 C75 1.500 . S
C69 C68 1.382 1_554 S
C69 C70 1.400 . S
C69 H80 0.930 . S
C70 C69 1.400 . S
C70 C71 1.384 1_554 S
C71 C70 1.384 1_556 S
C71 C73 1.392 . S
C71 H81 0.931 . S
C72 C68 1.393 . S
C72 C73 1.401 . S
C72 H82 0.930 . S
C73 C71 1.392 . S
C73 C72 1.401 . S
C73 H83 0.930 . S
C74 O52 1.262 1_655 S
C74 O53 1.260 . S
C75 Tb11 2.833 1_565 S
C75 O50 1.251 . S
C75 O55 1.256 1_556 S
C75 C68 1.500 . S
H76 C59 0.930 1_556 S
H77 C60 0.931 . S
H78 C61 0.930 . S
H79 C62 0.930 . S
H80 C69 0.930 . S
H81 C71 0.931 . S
H82 C72 0.930 . S
H83 C73 0.930 . S
Tb84 N115 2.660 . S
Tb84 N122 2.600 . S
Tb84 O128 2.546 . S
Tb84 O129 2.610 . S
Tb84 O131 2.320 . S
Tb84 O132 2.552 . S
Tb84 O133 2.413 . S
Tb84 O135 2.362 . S
Tb84 O136 2.421 . S
Tb84 C148 2.833 . S
C85 C88 1.432 . S
C85 C89 1.414 . S
C85 N92 1.359 . S
C86 C88 1.417 . S
C86 C90 1.432 . S
C86 C98 1.410 . S
C87 C89 1.444 . S
C87 C90 1.317 . S
C87 H110 0.929 . S
C88 C85 1.432 . S
C88 C86 1.417 . S
C88 N96 1.360 . S
C89 C85 1.414 . S
C89 C87 1.444 . S
C89 C94 1.385 . S
C90 C86 1.432 . S
C90 C87 1.317 . S
C90 H102 0.930 . S
C91 C93 1.392 . S
C91 C94 1.370 . S
C91 H103 0.931 . S
N92 C85 1.359 . S
N92 C93 1.327 . S
N92 Tb95 2.600 1_655 S
C93 C91 1.392 . S
C93 N92 1.327 . S
C93 H100 0.930 1_655 S
C94 C89 1.385 . S
C94 C91 1.370 . S
C94 H113 0.930 . S
Tb95 N92 2.600 1_455 S
Tb95 N96 2.660 1_455 S
Tb95 O129 2.362 1_565 S
Tb95 O130 2.421 1_565 S
Tb95 O134 2.546 . S
Tb95 O135 2.610 1_565 S
Tb95 O137 2.320 1_565 S
Tb95 O138 2.552 . S
Tb95 O139 2.413 . S
Tb95 C159 2.833 . S
N96 C88 1.360 . S
N96 Tb95 2.660 1_655 S
N96 C97 1.305 . S
C97 N96 1.305 . S
C97 C99 1.407 . S
C97 H104 0.930 1_565 S
C98 C86 1.410 . S
C98 C99 1.345 . S
C98 H106 0.930 . S
C99 C97 1.407 . S
C99 C98 1.345 . S
C99 H101 0.930 . S
H100 C93 0.930 1_455 S
H101 C99 0.930 . S
H102 C90 0.930 . S
H103 C91 0.931 . S
H104 C97 0.930 1_545 S
H105 C119 0.930 . S
H106 C98 0.930 . S
H107 C125 0.930 . S
H108 C116 0.930 . S
H109 C123 0.931 . S
H110 C87 0.929 . S
H111 C117 0.930 . S
H112 C150 0.930 . S
H113 C94 0.930 . S
H114 C149 0.929 . S
N115 Tb84 2.660 . S
N115 C116 1.305 . S
N115 C120 1.360 . S
C116 H108 0.930 . S
C116 N115 1.305 . S
C116 C119 1.407 . S
C117 H111 0.930 . S
C117 C118 1.410 . S
C117 C119 1.345 . S
C118 C117 1.410 . S
C118 C120 1.417 . S
C118 C150 1.432 . S
C119 H105 0.930 . S
C119 C116 1.407 . S
C119 C117 1.345 . S
C120 N115 1.360 . S
C120 C118 1.417 . S
C120 C124 1.432 . S
H121 C126 0.930 . S
N122 Tb84 2.600 . S
N122 C124 1.359 . S
N122 C125 1.327 . S
C123 H109 0.931 . S
C123 C125 1.392 . S
C123 C126 1.370 . S
C124 C120 1.432 . S
C124 N122 1.359 . S
C124 C127 1.414 . S
C125 H107 0.930 . S
C125 N122 1.327 . S
C125 C123 1.392 . S
C126 H121 0.930 . S
C126 C123 1.370 . S
C126 C127 1.385 . S
C127 C124 1.414 . S
C127 C126 1.385 . S
C127 C149 1.444 . S
O128 Tb84 2.546 . S
O128 C148 1.251 . S
O129 Tb84 2.610 . S
O129 Tb95 2.362 1_545 S
O129 C140 1.283 . S
O130 Tb95 2.421 1_545 S
O130 C147 1.262 . S
O131 Tb84 2.320 . S
O131 C147 1.260 . S
O132 Tb84 2.552 . S
O132 C140 1.243 . S
O133 Tb84 2.413 . S
O133 C148 1.256 . S
O134 Tb95 2.546 . S
O134 C159 1.251 . S
O135 Tb84 2.362 . S
O135 Tb95 2.610 1_545 S
O135 C151 1.283 . S
O136 Tb84 2.421 . S
O136 C158 1.262 . S
O137 Tb95 2.320 1_545 S
O137 C158 1.260 . S
O138 Tb95 2.552 . S
O138 C151 1.243 1_565 S
O139 Tb95 2.413 . S
O139 C159 1.256 . S
C140 O129 1.283 . S
C140 O132 1.243 . S
C141 C143 1.382 . S
C141 C145 1.393 . S
C141 C148 1.500 . S
C142 C143 1.400 . S
C142 C144 1.384 . S
C143 C141 1.382 . S
C143 C142 1.400 . S
C143 H160 0.930 . S
C144 C142 1.384 . S
C144 C146 1.392 . S
C144 H161 0.931 . S
C145 C141 1.393 . S
C145 C146 1.401 . S
C145 H162 0.930 . S
C146 C144 1.392 . S
C146 C145 1.401 . S
C146 H163 0.930 . S
C147 O130 1.262 . S
C147 O131 1.260 . S
C148 Tb84 2.833 . S
C148 O128 1.251 . S
C148 O133 1.256 . S
C148 C141 1.500 . S
C149 H114 0.929 . S
C149 C127 1.444 . S
C149 C150 1.317 . S
C150 H112 0.930 . S
C150 C118 1.432 . S
C150 C149 1.317 . S
C151 O135 1.283 . S
C151 O138 1.243 1_545 S
C152 C153 1.382 . S
C152 C156 1.393 . S
C152 C159 1.500 . S
C153 C152 1.382 . S
C153 C154 1.400 . S
C153 H164 0.930 . S
C154 C153 1.400 . S
C154 C155 1.384 . S
C155 C154 1.384 . S
C155 C157 1.392 . S
C155 H165 0.931 . S
C156 C152 1.393 . S
C156 C157 1.401 . S
C156 H166 0.930 . S
C157 C155 1.392 . S
C157 C156 1.401 . S
C157 H167 0.930 . S
C158 O136 1.262 . S
C158 O137 1.260 . S
C159 Tb95 2.833 . S
C159 O134 1.251 . S
C159 O139 1.256 . S
C159 C152 1.500 . S
H160 C143 0.930 . S
H161 C144 0.931 . S
H162 C145 0.930 . S
H163 C146 0.930 . S
H164 C153 0.930 . S
H165 C155 0.931 . S
H166 C156 0.930 . S
H167 C157 0.930 . S
Tb168 N199 2.660 . S
Tb168 N206 2.600 . S
Tb168 O212 2.546 . S
Tb168 O213 2.610 1_565 S
Tb168 O215 2.320 . S
Tb168 O216 2.552 1_455 S
Tb168 O217 2.413 . S
Tb168 O219 2.362 . S
Tb168 O220 2.421 . S
Tb168 C232 2.833 . S
C169 C172 1.432 . S
C169 C173 1.414 . S
C169 N176 1.359 . S
C170 C172 1.417 . S
C170 C174 1.432 1_455 S
C170 C182 1.410 1_455 S
C171 C173 1.444 . S
C171 C174 1.317 1_455 S
C171 H194 0.929 . S
C172 C169 1.432 . S
C172 C170 1.417 . S
C172 N180 1.360 . S
C173 C169 1.414 . S
C173 C171 1.444 . S
C173 C178 1.385 . S
C174 C170 1.432 1_655 S
C174 C171 1.317 1_655 S
C174 H186 0.930 . S
C175 C177 1.392 . S
C175 C178 1.370 . S
C175 H187 0.931 . S
N176 C169 1.359 . S
N176 C177 1.327 . S
N176 Tb179 2.600 . S
C177 C175 1.392 . S
C177 N176 1.327 . S
C177 H184 0.930 . S
C178 C173 1.385 . S
C178 C175 1.370 . S
C178 H197 0.930 . S
Tb179 N176 2.600 . S
Tb179 N180 2.660 . S
Tb179 O213 2.362 . S
Tb179 O214 2.421 . S
Tb179 O218 2.546 . S
Tb179 O219 2.610 1_545 S
Tb179 O221 2.320 . S
Tb179 O222 2.552 . S
Tb179 O223 2.413 . S
Tb179 C243 2.833 . S
N180 C172 1.360 . S
N180 Tb179 2.660 . S
N180 C181 1.305 . S
C181 N180 1.305 . S
C181 C183 1.407 . S
C181 H188 0.930 . S
C182 C170 1.410 1_655 S
C182 C183 1.345 1_655 S
C182 H190 0.930 . S
C183 C181 1.407 . S
C183 C182 1.345 1_455 S
C183 H185 0.930 1_455 S
H184 C177 0.930 . S
H185 C183 0.930 1_655 S
H186 C174 0.930 . S
H187 C175 0.931 . S
H188 C181 0.930 . S
H189 C203 0.930 . S
H190 C182 0.930 . S
H191 C209 0.930 . S
H192 C200 0.930 . S
H193 C207 0.931 . S
H194 C171 0.929 . S
H195 C201 0.930 . S
H196 C234 0.930 . S
H197 C178 0.930 . S
H198 C233 0.929 . S
N199 Tb168 2.660 . S
N199 C200 1.305 . S
N199 C204 1.360 . S
C200 H192 0.930 . S
C200 N199 1.305 . S
C200 C203 1.407 . S
C201 H195 0.930 . S
C201 C202 1.410 . S
C201 C203 1.345 . S
C202 C201 1.410 . S
C202 C204 1.417 . S
C202 C234 1.432 . S
C203 H189 0.930 . S
C203 C200 1.407 . S
C203 C201 1.345 . S
C204 N199 1.360 . S
C204 C202 1.417 . S
C204 C208 1.432 . S
H205 C210 0.930 . S
N206 Tb168 2.600 . S
N206 C208 1.359 . S
N206 C209 1.327 . S
C207 H193 0.931 . S
C207 C209 1.392 . S
C207 C210 1.370 . S
C208 C204 1.432 . S
C208 N206 1.359 . S
C208 C211 1.414 . S
C209 H191 0.930 . S
C209 N206 1.327 . S
C209 C207 1.392 . S
C210 H205 0.930 . S
C210 C207 1.370 . S
C210 C211 1.385 . S
C211 C208 1.414 . S
C211 C210 1.385 . S
C211 C233 1.444 . S
O212 Tb168 2.546 . S
O212 C232 1.251 . S
O213 Tb168 2.610 1_545 S
O213 Tb179 2.362 . S
O213 C224 1.283 1_545 S
O214 Tb179 2.421 . S
O214 C231 1.262 . S
O215 Tb168 2.320 . S
O215 C231 1.260 1_565 S
O216 Tb168 2.552 1_655 S
O216 C224 1.243 1_655 S
O217 Tb168 2.413 . S
O217 C232 1.256 . S
O218 Tb179 2.546 . S
O218 C243 1.251 . S
O219 Tb168 2.362 . S
O219 Tb179 2.610 1_565 S
O219 C235 1.283 1_565 S
O220 Tb168 2.421 . S
O220 C242 1.262 . S
O221 Tb179 2.320 . S
O221 C242 1.260 1_545 S
O222 Tb179 2.552 . S
O222 C235 1.243 . S
O223 Tb179 2.413 . S
O223 C243 1.256 . S
C224 O213 1.283 1_565 S
C224 O216 1.243 1_455 S
C225 C227 1.382 . S
C225 C229 1.393 . S
C225 C232 1.500 1_655 S
C226 C227 1.400 . S
C226 C228 1.384 . S
C227 C225 1.382 . S
C227 C226 1.400 . S
C227 H244 0.930 . S
C228 C226 1.384 . S
C228 C230 1.392 . S
C228 H245 0.931 . S
C229 C225 1.393 . S
C229 C230 1.401 . S
C229 H246 0.930 . S
C230 C228 1.392 . S
C230 C229 1.401 . S
C230 H247 0.930 . S
C231 O214 1.262 . S
C231 O215 1.260 1_545 S
C232 Tb168 2.833 . S
C232 O212 1.251 . S
C232 O217 1.256 . S
C232 C225 1.500 1_455 S
C233 H198 0.929 . S
C233 C211 1.444 . S
C233 C234 1.317 . S
C234 H196 0.930 . S
C234 C202 1.432 . S
C234 C233 1.317 . S
C235 O219 1.283 1_545 S
C235 O222 1.243 . S
C236 C237 1.382 . S
C236 C240 1.393 . S
C236 C243 1.500 . S
C237 C236 1.382 . S
C237 C238 1.400 . S
C237 H248 0.930 . S
C238 C237 1.400 . S
C238 C239 1.384 . S
C239 C238 1.384 . S
C239 C241 1.392 . S
C239 H249 0.931 . S
C240 C236 1.393 . S
C240 C241 1.401 . S
C240 H250 0.930 . S
C241 C239 1.392 . S
C241 C240 1.401 . S
C241 H251 0.930 . S
C242 O220 1.262 . S
C242 O221 1.260 1_565 S
C243 Tb179 2.833 . S
C243 O218 1.251 . S
C243 O223 1.256 . S
C243 C236 1.500 . S
H244 C227 0.930 . S
H245 C228 0.931 . S
H246 C229 0.930 . S
H247 C230 0.930 . S
H248 C237 0.930 . S
H249 C239 0.931 . S
H250 C240 0.930 . S
H251 C241 0.930 . S
H252 C253 0.939 1_455 S
C253 H252 0.939 1_655 S
C253 C259 1.275 . S
H254 C259 0.950 . S
H255 C263 0.949 . S
H256 C264 0.950 . S
H257 C265 0.951 . S
H258 C266 0.951 . S
C259 C253 1.275 . S
C259 H254 0.950 . S
C259 C260 1.478 . S
C260 C259 1.478 . S
C260 C261 1.397 . S
C260 C277 1.394 1_654 S
C261 C260 1.397 . S
C261 C262 1.438 . S
C261 C266 1.429 . S
C262 C261 1.438 . S
C262 C263 1.428 . S
C262 C275 1.394 1_655 S
C263 H255 0.949 . S
C263 C262 1.428 . S
C263 C264 1.345 . S
C264 H256 0.950 . S
C264 C263 1.345 . S
C264 C265 1.424 . S
C265 H257 0.951 . S
C265 C264 1.424 . S
C265 C266 1.347 . S
C266 H258 0.951 . S
C266 C261 1.429 . S
C266 C265 1.347 . S
H267 C268 0.951 1_655 S
C268 H267 0.951 1_455 S
C268 C274 1.265 . S
H269 C274 0.950 . S
H270 C278 0.949 . S
H271 C279 0.950 . S
H272 C280 0.951 . S
H273 C281 0.951 . S
C274 C268 1.265 . S
C274 H269 0.950 . S
C274 C275 1.478 . S
C275 C262 1.394 1_455 S
C275 C274 1.478 . S
C275 C276 1.397 1_554 S
C276 C275 1.397 1_556 S
C276 C277 1.438 . S
C276 C281 1.429 . S
C277 C260 1.394 1_456 S
C277 C276 1.438 . S
C277 C278 1.428 . S
C278 H270 0.949 . S
C278 C277 1.428 . S
C278 C279 1.345 . S
C279 H271 0.950 . S
C279 C278 1.345 . S
C279 C280 1.424 . S
C280 H272 0.951 . S
C280 C279 1.424 . S
C280 C281 1.347 . S
C281 H273 0.951 . S
C281 C276 1.429 . S
C281 C280 1.347 . S
H282 C283 0.951 . S
C283 H282 0.951 . S
C283 C289 1.265 . S
H284 C289 0.950 . S
H285 C293 0.949 . S
H286 C294 0.950 . S
H287 C295 0.951 . S
H288 C296 0.951 . S
C289 C283 1.265 . S
C289 H284 0.950 . S
C289 C290 1.478 . S
C290 C289 1.478 . S
C290 C291 1.397 . S
C290 C307 1.394 . S
C291 C290 1.397 . S
C291 C292 1.438 . S
C291 C296 1.429 1_545 S
C292 C291 1.438 . S
C292 C293 1.428 1_545 S
C292 C305 1.394 . S
C293 H285 0.949 . S
C293 C292 1.428 1_565 S
C293 C294 1.345 . S
C294 H286 0.950 . S
C294 C293 1.345 . S
C294 C295 1.424 . S
C295 H287 0.951 . S
C295 C294 1.424 . S
C295 C296 1.347 . S
C296 H288 0.951 . S
C296 C291 1.429 1_565 S
C296 C295 1.347 . S
H297 C298 0.951 . S
C298 H297 0.951 . S
C298 C304 1.265 . S
H299 C304 0.950 . S
H300 C308 0.949 . S
H301 C309 0.950 . S
H302 C310 0.951 . S
H303 C311 0.951 . S
C304 C298 1.265 . S
C304 H299 0.950 . S
C304 C305 1.478 . S
C305 C292 1.394 . S
C305 C304 1.478 . S
C305 C306 1.397 . S
C306 C305 1.397 . S
C306 C307 1.438 . S
C306 C311 1.429 . S
C307 C290 1.394 . S
C307 C306 1.438 . S
C307 C308 1.428 . S
C308 H300 0.949 . S
C308 C307 1.428 . S
C308 C309 1.345 . S
C309 H301 0.950 . S
C309 C308 1.345 . S
C309 C310 1.424 . S
C310 H302 0.951 . S
C310 C309 1.424 . S
C310 C311 1.347 . S
C311 H303 0.951 . S
C311 C306 1.429 . S
C311 C310 1.347 . S
H312 C313 0.951 . S
C313 H312 0.951 . S
C313 C319 1.265 . S
H314 C319 0.950 . S
H315 C323 0.949 . S
H316 C324 0.950 . S
H317 C325 0.951 . S
H318 C326 0.951 . S
C319 C313 1.265 . S
C319 H314 0.950 . S
C319 C320 1.478 . S
C320 C319 1.478 . S
C320 C321 1.397 . S
C320 C337 1.394 . S
C321 C320 1.397 . S
C321 C322 1.438 . S
C321 C326 1.429 . S
C322 C321 1.438 . S
C322 C323 1.428 . S
C322 C335 1.394 . S
C323 H315 0.949 . S
C323 C322 1.428 . S
C323 C324 1.345 . S
C324 H316 0.950 . S
C324 C323 1.345 . S
C324 C325 1.424 . S
C325 H317 0.951 . S
C325 C324 1.424 . S
C325 C326 1.347 . S
C326 H318 0.951 . S
C326 C321 1.429 . S
C326 C325 1.347 . S
H327 C328 0.951 . S
C328 H327 0.951 . S
C328 C334 1.265 . S
H329 C334 0.950 . S
H330 C338 0.949 . S
H331 C339 0.950 . S
H332 C340 0.951 . S
H333 C341 0.951 . S
C334 C328 1.265 . S
C334 H329 0.950 . S
C334 C335 1.478 . S
C335 C322 1.394 . S
C335 C334 1.478 . S
C335 C336 1.397 . S
C336 C335 1.397 . S
C336 C337 1.438 . S
C336 C341 1.429 . S
C337 C320 1.394 . S
C337 C336 1.438 . S
C337 C338 1.428 . S
C338 H330 0.949 . S
C338 C337 1.428 . S
C338 C339 1.345 . S
C339 H331 0.950 . S
C339 C338 1.345 . S
C339 C340 1.424 . S
C340 H332 0.951 . S
C340 C339 1.424 . S
C340 C341 1.347 . S
C341 H333 0.951 . S
C341 C336 1.429 . S
C341 C340 1.347 . S
H342 C343 0.951 . S
C343 H342 0.951 . S
C343 C349 1.265 1_545 S
H344 C349 0.950 . S
H345 C353 0.949 . S
H346 C354 0.950 . S
H347 C355 0.951 . S
H348 C356 0.951 . S
C349 C343 1.265 1_565 S
C349 H344 0.950 . S
C349 C350 1.478 . S
C350 C349 1.478 . S
C350 C351 1.397 1_565 S
C350 C367 1.394 . S
C351 C350 1.397 1_545 S
C351 C352 1.438 . S
C351 C356 1.429 . S
C352 C351 1.438 . S
C352 C353 1.428 . S
C352 C365 1.394 . S
C353 H345 0.949 . S
C353 C352 1.428 . S
C353 C354 1.345 . S
C354 H346 0.950 . S
C354 C353 1.345 . S
C354 C355 1.424 . S
C355 H347 0.951 . S
C355 C354 1.424 . S
C355 C356 1.347 . S
C356 H348 0.951 . S
C356 C351 1.429 . S
C356 C355 1.347 . S
H357 C358 0.951 . S
C358 H357 0.951 . S
C358 C364 1.265 1_565 S
H359 C364 0.950 . S
H360 C368 0.949 . S
H361 C369 0.950 . S
H362 C370 0.951 . S
H363 C371 0.951 . S
C364 C358 1.265 1_545 S
C364 H359 0.950 . S
C364 C365 1.478 . S
C365 C352 1.394 . S
C365 C364 1.478 . S
C365 C366 1.397 1_545 S
C366 C365 1.397 1_565 S
C366 C367 1.438 . S
C366 C371 1.429 . S
C367 C350 1.394 . S
C367 C366 1.438 . S
C367 C368 1.428 . S
C368 H360 0.949 . S
C368 C367 1.428 . S
C368 C369 1.345 . S
C369 H361 0.950 . S
C369 C368 1.345 . S
C369 C370 1.424 . S
C370 H362 0.951 . S
C370 C369 1.424 . S
C370 C371 1.347 . S
C371 H363 0.951 . S
C371 C366 1.429 . S
C371 C370 1.347 . S
H372 C373 0.951 . S
C373 H372 0.951 . S
C373 C379 1.265 . S
H374 C379 0.950 . S
H375 C383 0.949 . S
H376 C384 0.950 . S
H377 C385 0.951 . S
H378 C386 0.951 . S
C379 C373 1.265 . S
C379 H374 0.950 . S
C379 C380 1.478 . S
C380 C379 1.478 . S
C380 C381 1.397 1_554 S
C380 C397 1.394 . S
C381 C380 1.397 1_556 S
C381 C382 1.438 . S
C381 C386 1.429 . S
C382 C381 1.438 . S
C382 C383 1.428 . S
C382 C395 1.394 1_556 S
C383 H375 0.949 . S
C383 C382 1.428 . S
C383 C384 1.345 . S
C384 H376 0.950 . S
C384 C383 1.345 . S
C384 C385 1.424 . S
C385 H377 0.951 . S
C385 C384 1.424 . S
C385 C386 1.347 . S
C386 H378 0.951 . S
C386 C381 1.429 . S
C386 C385 1.347 . S
H387 C388 0.943 1_556 S
C388 H387 0.943 1_554 S
C388 C394 1.262 . S
H389 C394 0.950 . S
H390 C398 0.949 . S
H391 C399 0.950 . S
H392 C400 0.951 . S
H393 C401 0.951 . S
C394 C388 1.262 . S
C394 H389 0.950 . S
C394 C395 1.478 . S
C395 C382 1.394 1_554 S
C395 C394 1.478 . S
C395 C396 1.397 . S
C396 C395 1.397 . S
C396 C397 1.438 . S
C396 C401 1.429 . S
C397 C380 1.394 . S
C397 C396 1.438 . S
C397 C398 1.428 . S
C398 H390 0.949 . S
C398 C397 1.428 . S
C398 C399 1.345 . S
C399 H391 0.950 . S
C399 C398 1.345 . S
C399 C400 1.424 . S
C400 H392 0.951 . S
C400 C399 1.424 . S
C400 C401 1.347 . S
C401 H393 0.951 . S
C401 C396 1.429 . S
C401 C400 1.347 . S
H402 C403 0.951 1_655 S
C403 H402 0.951 1_455 S
C403 C409 1.265 . S
H404 C409 0.950 . S
H405 C413 0.949 . S
H406 C414 0.950 . S
H407 C415 0.951 . S
H408 C416 0.951 . S
C409 C403 1.265 . S
C409 H404 0.950 . S
C409 C410 1.478 . S
C410 C409 1.478 . S
C410 C411 1.397 . S
C410 C427 1.394 . S
C411 C410 1.397 . S
C411 C412 1.438 . S
C411 C416 1.429 . S
C412 C411 1.438 . S
C412 C413 1.428 . S
C412 C425 1.394 . S
C413 H405 0.949 . S
C413 C412 1.428 . S
C413 C414 1.345 . S
C414 H406 0.950 . S
C414 C413 1.345 . S
C414 C415 1.424 . S
C415 H407 0.951 . S
C415 C414 1.424 . S
C415 C416 1.347 . S
C416 H408 0.951 . S
C416 C411 1.429 . S
C416 C415 1.347 . S
H417 C418 0.951 . S
C418 H417 0.951 . S
C418 C424 1.265 . S
H419 C424 0.950 . S
H420 C428 0.949 . S
H421 C429 0.950 . S
H422 C430 0.951 . S
H423 C431 0.951 . S
C424 C418 1.265 . S
C424 H419 0.950 . S
C424 C425 1.478 . S
C425 C412 1.394 . S
C425 C424 1.478 . S
C425 C426 1.397 . S
C426 C425 1.397 . S
C426 C427 1.438 . S
C426 C431 1.429 . S
C427 C410 1.394 . S
C427 C426 1.438 . S
C427 C428 1.428 . S
C428 H420 0.949 . S
C428 C427 1.428 . S
C428 C429 1.345 . S
C429 H421 0.950 . S
C429 C428 1.345 . S
C429 C430 1.424 . S
C430 H422 0.951 . S
C430 C429 1.424 . S
C430 C431 1.347 . S
C431 H423 0.951 . S
C431 C426 1.429 . S
C431 C430 1.347 . S
H432 C433 0.951 . S
C433 H432 0.951 . S
C433 C439 1.265 . S
H434 C439 0.948 . S
H435 C443 0.949 . S
H436 C444 0.950 . S
H437 C445 0.951 . S
H438 C446 0.951 . S
C439 C433 1.265 . S
C439 H434 0.948 . S
C439 C440 1.478 . S
C440 C439 1.478 . S
C440 C441 1.397 . S
C440 C457 1.394 . S
C441 C440 1.397 . S
C441 C442 1.438 . S
C441 C446 1.429 . S
C442 C441 1.438 . S
C442 C443 1.428 . S
C442 C455 1.394 . S
C443 H435 0.949 . S
C443 C442 1.428 . S
C443 C444 1.345 . S
C444 H436 0.950 . S
C444 C443 1.345 . S
C444 C445 1.424 . S
C445 H437 0.951 . S
C445 C444 1.424 . S
C445 C446 1.347 . S
C446 H438 0.951 . S
C446 C441 1.429 . S
C446 C445 1.347 . S
H447 C448 0.951 . S
C448 H447 0.951 . S
C448 C454 1.265 1_655 S
H449 C454 0.950 . S
H450 C458 0.949 . S
H451 C459 0.950 . S
H452 C460 0.951 . S
H453 C461 0.951 . S
C454 C448 1.265 1_455 S
C454 H449 0.950 . S
C454 C455 1.478 . S
C455 C442 1.394 . S
C455 C454 1.478 . S
C455 C456 1.397 . S
C456 C455 1.397 . S
C456 C457 1.438 . S
C456 C461 1.429 1_545 S
C457 C440 1.394 . S
C457 C456 1.438 . S
C457 C458 1.428 1_545 S
C458 H450 0.949 . S
C458 C457 1.428 1_565 S
C458 C459 1.345 . S
C459 H451 0.950 . S
C459 C458 1.345 . S
C459 C460 1.424 . S
C460 H452 0.951 . S
C460 C459 1.424 . S
C460 C461 1.347 . S
C461 H453 0.951 . S
C461 C456 1.429 1_565 S
C461 C460 1.347 . S
H462 C463 0.951 . S
C463 H462 0.951 . S
C463 C469 1.265 . S
H464 C469 0.950 . S
H465 C473 0.949 . S
H466 C474 0.950 . S
H467 C475 0.951 . S
H468 C476 0.951 . S
C469 C463 1.265 . S
C469 H464 0.950 . S
C469 C470 1.478 . S
C470 C469 1.478 . S
C470 C471 1.397 . S
C470 C487 1.394 . S
C471 C470 1.397 . S
C471 C472 1.438 . S
C471 C476 1.429 . S
C472 C471 1.438 . S
C472 C473 1.428 . S
C472 C485 1.394 . S
C473 H465 0.949 . S
C473 C472 1.428 . S
C473 C474 1.345 . S
C474 H466 0.950 . S
C474 C473 1.345 . S
C474 C475 1.424 . S
C475 H467 0.951 . S
C475 C474 1.424 . S
C475 C476 1.347 . S
C476 H468 0.951 . S
C476 C471 1.429 . S
C476 C475 1.347 . S
H477 C478 0.951 . S
C478 H477 0.951 . S
C478 C484 1.265 1_565 S
H479 C484 0.950 . S
H480 C488 0.949 . S
H481 C489 0.950 . S
H482 C490 0.951 . S
H483 C491 0.951 . S
C484 C478 1.265 1_545 S
C484 H479 0.950 . S
C484 C485 1.478 . S
C485 C472 1.394 . S
C485 C484 1.478 . S
C485 C486 1.397 . S
C486 C485 1.397 . S
C486 C487 1.438 . S
C486 C491 1.429 . S
C487 C470 1.394 . S
C487 C486 1.438 . S
C487 C488 1.428 . S
C488 H480 0.949 . S
C488 C487 1.428 . S
C488 C489 1.345 1_455 S
C489 H481 0.950 . S
C489 C488 1.345 1_655 S
C489 C490 1.424 . S
C490 H482 0.951 . S
C490 C489 1.424 . S
C490 C491 1.347 1_655 S
C491 H483 0.951 . S
C491 C486 1.429 . S
C491 C490 1.347 1_455 S
H492 C493 0.951 . S
C493 H492 0.951 . S
C493 C499 1.265 . S
H494 C499 0.950 . S
H495 C503 0.949 . S
H496 C504 0.950 . S
H497 C505 0.951 . S
H498 C506 0.951 . S
C499 C493 1.265 . S
C499 H494 0.950 . S
C499 C500 1.478 . S
C500 C499 1.478 . S
C500 C501 1.397 . S
C500 C517 1.394 1_545 S
C501 C500 1.397 . S
C501 C502 1.438 . S
C501 C506 1.429 . S
C502 C501 1.438 . S
C502 C503 1.428 . S
C502 C515 1.394 . S
C503 H495 0.949 . S
C503 C502 1.428 . S
C503 C504 1.345 . S
C504 H496 0.950 . S
C504 C503 1.345 . S
C504 C505 1.424 . S
C505 H497 0.951 . S
C505 C504 1.424 . S
C505 C506 1.347 . S
C506 H498 0.951 . S
C506 C501 1.429 . S
C506 C505 1.347 . S
H507 C508 0.951 . S
C508 H507 0.951 . S
C508 C514 1.265 . S
H509 C514 0.949 1_655 S
H510 C518 0.949 . S
H511 C519 0.950 . S
H512 C520 0.951 . S
H513 C521 0.951 . S
C514 C508 1.265 . S
C514 H509 0.949 1_455 S
C514 C515 1.478 . S
C515 C502 1.394 . S
C515 C514 1.478 . S
C515 C516 1.397 1_545 S
C516 C515 1.397 1_565 S
C516 C517 1.438 . S
C516 C521 1.429 1_455 S
C517 C500 1.394 1_565 S
C517 C516 1.438 . S
C517 C518 1.428 . S
C518 H510 0.949 . S
C518 C517 1.428 . S
C518 C519 1.345 1_455 S
C519 H511 0.950 . S
C519 C518 1.345 1_655 S
C519 C520 1.424 . S
C520 H512 0.951 . S
C520 C519 1.424 . S
C520 C521 1.347 . S
C521 H513 0.951 . S
C521 C516 1.429 1_655 S
C521 C520 1.347 . S
C253 C56 4.237 1_655 S
C268 C67 4.241 1_455 S
C283 C151 2.702 . S
C298 C140 2.702 1_655 S
C313 C226 0.718 . S
C328 C238 0.718 . S
C343 C224 2.611 1_645 S
C358 C235 2.611 1_565 S
C373 C70 0.820 . S
C388 C58 0.843 . S
C403 C142 1.331 . S
C418 C154 1.331 . S
C433 C147 1.524 . S
C448 C74 1.571 . S
C463 C158 1.570 . S
C478 C242 1.588 . S
C493 C231 1.636 . S
C508 C63 1.541 . S
