# Generated by pormake.
# Topology snk, (6)-cn, num edge types: 1
# Building blocks:
#     Node 0, Type 0, BuildingBlock: KUMBUR_clean_sbu_1, # of connection points: 6
#     Node 1, Type 0, BuildingBlock: KUMBUR_clean_sbu_1, # of connection points: 6
#     Node 2, Type 0, BuildingBlock: KUMBUR_clean_sbu_1, # of connection points: 6
#     Node 3, Type 0, BuildingBlock: KUMBUR_clean_sbu_1, # of connection points: 6
#     Node 4, Type 0, BuildingBlock: KUMBUR_clean_sbu_1, # of connection points: 6
#     Node 5, Type 0, BuildingBlock: KUMBUR_clean_sbu_1, # of connection points: 6
#     Node 6, Type 0, BuildingBlock: KUMBUR_clean_sbu_1, # of connection points: 6
#     Node 7, Type 0, BuildingBlock: KUMBUR_clean_sbu_1, # of connection points: 6
#     Edge 8, Type (0, 0), BuildingBlock: XUDNAN_clean_linker_2, # of connection points: 2
#     Edge 9, Type (0, 0), BuildingBlock: XUDNAN_clean_linker_2, # of connection points: 2
#     Edge 10, Type (0, 0), BuildingBlock: XUDNAN_clean_linker_2, # of connection points: 2
#     Edge 11, Type (0, 0), BuildingBlock: XUDNAN_clean_linker_2, # of connection points: 2
#     Edge 12, Type (0, 0), BuildingBlock: XUDNAN_clean_linker_2, # of connection points: 2
#     Edge 13, Type (0, 0), BuildingBlock: XUDNAN_clean_linker_2, # of connection points: 2
#     Edge 14, Type (0, 0), BuildingBlock: XUDNAN_clean_linker_2, # of connection points: 2
#     Edge 15, Type (0, 0), BuildingBlock: XUDNAN_clean_linker_2, # of connection points: 2
#     Edge 16, Type (0, 0), BuildingBlock: XUDNAN_clean_linker_2, # of connection points: 2
#     Edge 17, Type (0, 0), BuildingBlock: XUDNAN_clean_linker_2, # of connection points: 2
#     Edge 18, Type (0, 0), BuildingBlock: XUDNAN_clean_linker_2, # of connection points: 2
#     Edge 19, Type (0, 0), BuildingBlock: XUDNAN_clean_linker_2, # of connection points: 2
#     Edge 20, Type (0, 0), BuildingBlock: XUDNAN_clean_linker_2, # of connection points: 2
#     Edge 21, Type (0, 0), BuildingBlock: XUDNAN_clean_linker_2, # of connection points: 2
#     Edge 22, Type (0, 0), BuildingBlock: XUDNAN_clean_linker_2, # of connection points: 2
#     Edge 23, Type (0, 0), BuildingBlock: XUDNAN_clean_linker_2, # of connection points: 2
#     Edge 24, Type (0, 0), BuildingBlock: XUDNAN_clean_linker_2, # of connection points: 2
#     Edge 25, Type (0, 0), BuildingBlock: XUDNAN_clean_linker_2, # of connection points: 2
#     Edge 26, Type (0, 0), BuildingBlock: XUDNAN_clean_linker_2, # of connection points: 2
#     Edge 27, Type (0, 0), BuildingBlock: XUDNAN_clean_linker_2, # of connection points: 2
#     Edge 28, Type (0, 0), BuildingBlock: XUDNAN_clean_linker_2, # of connection points: 2
#     Edge 29, Type (0, 0), BuildingBlock: XUDNAN_clean_linker_2, # of connection points: 2
#     Edge 30, Type (0, 0), BuildingBlock: XUDNAN_clean_linker_2, # of connection points: 2
#     Edge 31, Type (0, 0), BuildingBlock: XUDNAN_clean_linker_2, # of connection points: 2
# Relax obj value: 0.008
# Max RMSD: 0.072
# Mean RMSD: 0.071
data_MOF--net-snk--node1-KUMBUR_clean_sbu_1--edge1-XUDNAN_clean_linker_2
_symmetry_space_group_name_H-M    P1
_symmetry_Int_Tables_number       1
_symmetry_cell_setting            triclinic
loop_
_symmetry_equiv_pos_as_xyz
'x, y, z'
_cell_length_a     38.075081
_cell_length_b     38.046585
_cell_length_c     24.620589
_cell_angle_alpha  90.38307
_cell_angle_beta   89.956432
_cell_angle_gamma 89.947666
loop_
_atom_site_label
_atom_site_type_symbol
_atom_site_fract_x
_atom_site_fract_y
_atom_site_fract_z
_atom_type_partial_charge
Tb0 Tb 1.00327 0.03735 0.58407 0.0
C1 C 0.02143 0.897 0.43745 0.0
N2 N 0.04403 0.92414 0.44526 0.0
C3 C 0.09236 0.88378 0.44919 0.0
C4 C 0.03332 0.86193 0.43629 0.0
C5 C 0.07926 0.91816 0.44986 0.0
C6 C 0.06927 0.85551 0.44291 0.0
C7 C 0.9619 0.87746 0.41968 0.0
C8 C 0.9863 0.90456 0.42934 0.0
C9 C 0.97342 0.84236 0.41947 0.0
C10 C 0.00905 0.8346 0.42783 0.0
Tb11 Tb 0.0195 0.97885 0.44673 0.0
N12 N 0.97603 0.93873 0.43167 0.0
C13 C 0.92678 0.88657 0.41029 0.0
C14 C 0.94226 0.948 0.41941 0.0
C15 C 0.91701 0.92202 0.40955 0.0
H16 H 0.09731 0.93997 0.45346 0.0
H17 H 0.89007 0.92933 0.40131 0.0
H18 H 0.95755 0.10688 0.54671 0.0
H19 H 0.13772 0.02348 0.65575 0.0
H20 H 0.93474 0.97538 0.41864 0.0
H21 H 0.90716 0.86652 0.40278 0.0
H22 H 0.07687 1.00459 0.64309 0.0
H23 H 0.12028 0.87912 0.45298 0.0
H24 H 0.95506 0.82106 0.41248 0.0
H25 H 0.01762 0.80744 0.42705 0.0
H26 H 0.96879 0.16982 0.52937 0.0
H27 H 0.07952 0.82893 0.44223 0.0
H28 H 0.15547 0.08386 0.63145 0.0
N29 N 0.0104 0.09588 0.56869 0.0
C30 C 0.04305 0.10901 0.57812 0.0
C31 C 0.98992 0.15296 0.54285 0.0
C32 C 0.05074 0.14461 0.56824 0.0
C33 C 0.98366 0.11732 0.55249 0.0
C34 C 0.02366 0.16663 0.55038 0.0
N35 N 0.06071 0.05163 0.60327 0.0
C36 C 0.08441 0.03 0.62814 0.0
C37 C 0.10355 0.09854 0.60388 0.0
C38 C 0.06916 0.08602 0.59499 0.0
C39 C 0.12876 0.07529 0.62401 0.0
C40 C 0.11892 0.0411 0.63732 0.0
H41 H 0.0285 0.19416 0.54231 0.0
H42 H 0.09171 0.18411 0.56787 0.0
H43 H 0.13788 0.14387 0.59952 0.0
O44 O 0.00922 0.03589 0.66988 0.0
O45 O 0.02342 0.05935 0.50757 0.0
O46 O 0.0594 0.01791 0.4695 0.0
O47 O 0.96513 0.06273 0.63268 0.0
O48 O 0.02748 0.98508 0.59034 0.0
O49 O 0.05919 0.9799 0.51121 0.0
O50 O 1.00285 0.99992 0.37247 0.0
O51 O 0.9841 0.95568 0.50769 0.0
O52 O 0.96582 0.9936 0.57776 0.0
O53 O 0.04871 0.96725 0.37566 0.0
O54 O 0.98301 0.02337 0.444 0.0
O55 O 0.95848 0.03984 0.52739 0.0
C56 C 0.05184 0.05092 0.48018 0.0
C57 C 0.96752 0.06491 0.73184 0.0
C58 C 0.97083 0.06438 0.83158 0.0
C59 C 0.94189 0.08736 0.83349 0.0
C60 C 0.93863 0.0878 0.73539 0.0
C61 C 0.92596 0.09886 0.78582 0.0
C62 C 0.98348 0.05304 0.78029 0.0
C63 C 0.05175 0.96933 0.56064 0.0
C64 C 0.98102 0.05449 0.67746 0.0
C65 C 0.08518 0.15689 0.57564 0.0
C66 C 0.11151 0.13392 0.59342 0.0
C67 C 0.9644 0.96365 0.55032 0.0
C68 C 0.04489 0.00897 0.30409 0.0
C69 C 0.04815 0.03022 0.21033 0.0
C70 C 0.07128 0.0568 0.22788 0.0
C71 C 0.06845 0.03522 0.32016 0.0
C72 C 0.035 1.00634 0.24903 0.0
C73 C 0.08131 0.05919 0.28236 0.0
C74 C 0.95948 0.04046 0.47364 0.0
C75 C 0.02834 0.98586 0.34463 0.0
H76 H 0.93115 0.09611 0.87204 0.0
H77 H 0.92587 0.09741 0.69908 0.0
H78 H 0.90365 0.11647 0.78798 0.0
H79 H 1.00589 0.03552 0.77814 0.0
H80 H 0.08198 0.07553 0.19936 0.0
H81 H 0.07655 0.03723 0.36198 0.0
H82 H 0.01641 0.98627 0.23664 0.0
H83 H 0.09893 0.07987 0.29534 0.0
Tb84 Tb 0.23808 0.75335 0.8388 0.0
C85 C 0.36333 0.72192 0.70196 0.0
N86 N 0.35149 0.75516 0.71103 0.0
C87 C 0.41007 0.7747 0.73011 0.0
C88 C 0.39907 0.71346 0.70889 0.0
C89 C 0.37424 0.78174 0.72375 0.0
C90 C 0.4225 0.74037 0.72309 0.0
C91 C 0.35052 0.66135 0.67841 0.0
C92 C 0.33914 0.69623 0.68729 0.0
C93 C 0.38597 0.65255 0.68669 0.0
C94 C 0.41019 0.67855 0.70176 0.0
Tb95 Tb 0.29311 0.7641 0.69725 0.0
N96 N 0.3049 0.70568 0.67972 0.0
C97 C 0.3262 0.63654 0.65988 0.0
C98 C 0.28224 0.68225 0.65596 0.0
C99 C 0.29212 0.64723 0.64752 0.0
H100 H 0.36453 0.8082 0.72978 0.0
H101 H 0.27364 0.6287 0.63013 0.0
H102 H 0.19301 0.67895 0.82475 0.0
H103 H 0.19902 0.88324 0.90329 0.0
H104 H 0.25685 0.69021 0.64132 0.0
H105 H 0.33388 0.60948 0.65261 0.0
H106 H 0.24114 0.83646 0.87795 0.0
H107 H 0.428 0.79566 0.74087 0.0
H108 H 0.39506 0.62583 0.68048 0.0
H109 H 0.4375 0.67143 0.70739 0.0
H110 H 0.13076 0.66097 0.82243 0.0
H111 H 0.4502 0.73493 0.72868 0.0
H112 H 0.13516 0.87097 0.90272 0.0
N113 N 0.18154 0.73307 0.83828 0.0
C114 C 0.1563 0.75715 0.85011 0.0
C115 C 0.13755 0.6882 0.82983 0.0
C116 C 0.12048 0.74793 0.85097 0.0
C117 C 0.17279 0.69859 0.83036 0.0
C118 C 0.11123 0.71305 0.83964 0.0
N119 N 0.20144 0.79862 0.86131 0.0
C120 C 0.21335 0.83097 0.87704 0.0
C121 C 0.14166 0.81669 0.87759 0.0
C122 C 0.16665 0.79093 0.86338 0.0
C123 C 0.15352 0.85039 0.8915 0.0
C124 C 0.18956 0.85745 0.8917 0.0
H125 H 0.08398 0.70489 0.83967 0.0
H126 H 0.06754 0.76712 0.86471 0.0
H127 H 0.08612 0.82739 0.88796 0.0
O128 O 0.26116 0.76411 0.91545 0.0
O129 O 0.21468 0.79092 0.78093 0.0
O130 O 0.24393 0.79456 0.69692 0.0
O131 O 0.22788 0.71933 0.90358 0.0
O132 O 0.2828 0.79053 0.83849 0.0
O133 O 0.29132 0.81079 0.74992 0.0
O134 O 0.2962 0.75819 0.6119 0.0
O135 O 0.31816 0.74876 0.77461 0.0
O136 O 0.27612 0.71431 0.81124 0.0
O137 O 0.31712 0.80377 0.65157 0.0
O138 O 0.24089 0.74027 0.6919 0.0
O139 O 0.23775 0.71312 0.77441 0.0
C140 C 0.21812 0.8029 0.73076 0.0
C141 C 0.22415 0.74763 0.98903 0.0
C142 C 0.22255 0.76266 0.08615 0.0
C143 C 0.1856 0.7613 0.08419 0.0
C144 C 0.18725 0.7465 0.98882 0.0
C145 C 0.16822 0.75352 0.03589 0.0
C146 C 0.24173 0.75581 0.03793 0.0
C147 C 0.29445 0.81399 0.80322 0.0
C148 C 0.24414 0.73877 0.93905 0.0
C149 C 0.09524 0.77362 0.86409 0.0
C150 C 0.10582 0.80793 0.87746 0.0
C151 C 0.30918 0.72272 0.80646 0.0
C152 C 0.2952 0.81152 0.5623 0.0
C153 C 0.2813 0.82096 0.46613 0.0
C154 C 0.27142 0.85571 0.47908 0.0
C155 C 0.28467 0.84618 0.57394 0.0
C156 C 0.29329 0.79903 0.50836 0.0
C157 C 0.27305 0.86807 0.53249 0.0
C158 C 0.22483 0.71918 0.72589 0.0
C159 C 0.31025 0.78893 0.60519 0.0
H160 H 0.16991 0.76539 0.12038 0.0
H161 H 0.17291 0.73946 0.9526 0.0
H162 H 0.13982 0.75227 0.03517 0.0
H163 H 0.27017 0.75671 0.03832 0.0
H164 H 0.26291 0.87369 0.44783 0.0
H165 H 0.28585 0.85664 0.61493 0.0
H166 H 0.30111 0.77221 0.49951 0.0
H167 H 0.26539 0.89485 0.54177 0.0
Tb168 Tb 0.50953 0.98825 0.08252 0.0
C169 C 0.57059 0.10684 0.96273 0.0
N170 N 0.53554 0.10077 0.95909 0.0
C171 C 0.52353 0.16182 0.97447 0.0
C172 C 0.58352 0.14073 0.97442 0.0
C173 C 0.51194 0.12765 0.96325 0.0
C174 C 0.55945 0.16835 0.98058 0.0
C175 C 0.63001 0.08416 0.95862 0.0
C176 C 0.59343 0.07869 0.9556 0.0
C177 C 0.64305 0.11771 0.97173 0.0
C178 C 0.61986 0.1459 0.97976 0.0
Tb179 Tb 0.51948 0.04428 0.94292 0.0
N180 N 0.57984 0.04641 0.94355 0.0
C181 C 0.65241 0.05607 0.94643 0.0
C182 C 0.60171 0.02029 0.92557 0.0
C183 C 0.63818 0.02431 0.92835 0.0
H184 H 0.48417 0.12266 0.95847 0.0
H185 H 0.65529 1.00326 0.91503 0.0
H186 H 0.5903 0.9572 0.10011 0.0
H187 H 0.38542 0.92618 0.12564 0.0
H188 H 0.59155 0.99683 0.90676 0.0
H189 H 0.68068 0.05918 0.94808 0.0
H190 H 0.42622 0.97645 0.11424 0.0
H191 H 0.50477 0.18307 0.97857 0.0
H192 H 0.67107 0.12229 0.97458 0.0
H193 H 0.63033 0.17167 0.98935 0.0
H194 H 0.61918 0.89895 0.102 0.0
H195 H 0.56833 0.19479 0.98968 0.0
H196 H 0.4075 0.86522 0.11535 0.0
N197 N 0.53899 0.93609 0.08992 0.0
C198 C 0.51889 0.90672 0.08943 0.0
C199 C 0.59094 0.90076 0.09796 0.0
C200 C 0.53405 0.87296 0.09121 0.0
C201 C 0.57451 0.93367 0.09696 0.0
C202 C 0.57068 0.87024 0.09393 0.0
N203 N 0.47004 0.94397 0.09519 0.0
C204 C 0.4358 0.94983 0.10951 0.0
C205 C 0.46097 0.88141 0.09909 0.0
C206 C 0.48298 0.91082 0.09277 0.0
C207 C 0.42529 0.88712 0.10986 0.0
C208 C 0.41276 0.9215 0.11592 0.0
H209 H 0.58344 0.84479 0.09523 0.0
H210 H 0.52323 0.81704 0.09375 0.0
H211 H 0.45908 0.82448 0.10103 0.0
O212 O 0.50523 0.02755 0.14302 0.0
O213 O 0.46857 0.97497 0.02236 0.0
O214 O 0.48114 1.00161 0.93901 0.0
O215 O 0.51401 0.97359 0.16421 0.0
O216 O 0.46803 0.02804 0.06928 0.0
O217 O 0.47194 0.05951 0.987 0.0
O218 O 0.53871 0.05262 0.86398 0.0
O219 O 0.52733 0.06481 0.02577 0.0
O220 O 0.55602 0.02057 0.06767 0.0
O221 O 0.4853 0.06438 0.88307 0.0
O222 O 0.53221 0.9884 0.93848 0.0
O223 O 0.55264 0.98247 0.02417 0.0
C224 C 0.46277 0.98026 0.97014 0.0
C225 C 0.53911 0.01624 0.22102 0.0
C226 C 0.55504 0.03436 0.31285 0.0
C227 C 0.59066 0.02982 0.29953 0.0
C228 C 0.57479 0.01221 0.20817 0.0
C229 C 0.60038 0.01885 0.24743 0.0
C230 C 0.52933 0.02781 0.27311 0.0
C231 C 0.45697 0.05208 0.03426 0.0
C232 C 0.51189 1.00571 0.18209 0.0
C233 C 0.51214 0.84327 0.09306 0.0
C234 C 0.4756 0.8475 0.09719 0.0
C235 C 0.55213 0.05423 0.05883 0.0
C236 C 0.49763 0.03954 0.79668 0.0
C237 C 0.49607 0.03032 0.69856 0.0
C238 C 0.48377 0.99597 0.70677 0.0
C239 C 0.4864 1.0047 0.80369 0.0
C240 C 0.50232 0.0524 0.7437 0.0
C241 C 0.47882 0.98335 0.75911 0.0
C242 C 0.54723 0.96916 0.97574 0.0
C243 C 0.50825 0.06075 0.84432 0.0
H244 H 0.61091 0.03437 0.32964 0.0
H245 H 0.58277 1.0031 0.16833 0.0
H246 H 0.62777 0.01464 0.23791 0.0
H247 H 0.50172 0.03017 0.28341 0.0
H248 H 0.47865 0.97866 0.67255 0.0
H249 H 0.48438 0.99345 0.84343 0.0
H250 H 0.51237 0.07874 0.73768 0.0
H251 H 0.47003 0.9566 0.76519 0.0
Tb252 Tb 0.22114 0.2677 0.19229 0.0
C253 C 0.35866 0.22763 0.34297 0.0
N254 N 0.32653 0.21249 0.3393 0.0
C255 C 0.35199 0.15563 0.35317 0.0
C256 C 0.38908 0.2072 0.3507 0.0
C257 C 0.32255 0.1771 0.34549 0.0
C258 C 0.38545 0.17071 0.35524 0.0
C259 C 0.39326 0.28093 0.34874 0.0
C260 C 0.36065 0.26392 0.34224 0.0
C261 C 0.42396 0.26071 0.35409 0.0
C262 C 0.42187 0.2239 0.35515 0.0
Tb263 Tb 0.28062 0.24941 0.32459 0.0
N264 N 0.33035 0.28249 0.3375 0.0
C265 C 0.3939 0.3177 0.35096 0.0
C266 C 0.33067 0.31838 0.34245 0.0
C267 C 0.36242 0.33647 0.34836 0.0
H268 H 0.29663 0.16551 0.3439 0.0
H269 H 0.36259 0.36489 0.35065 0.0
H270 H 0.16104 0.33076 0.20076 0.0
H271 H 0.20856 0.12727 0.15537 0.0
H272 H 0.30662 0.33317 0.33916 0.0
H273 H 0.41844 0.33179 0.35571 0.0
H274 H 0.23968 0.18341 0.15805 0.0
H275 H 0.34887 0.1275 0.35726 0.0
H276 H 0.44932 0.27328 0.35869 0.0
H277 H 0.44564 0.20866 0.3606 0.0
H278 H 0.09668 0.33477 0.21063 0.0
H279 H 0.40819 0.15404 0.36125 0.0
H280 H 0.14448 0.12548 0.17143 0.0
N281 N 0.16172 0.27487 0.19735 0.0
C282 C 0.14228 0.24502 0.19458 0.0
C283 C 0.10918 0.30932 0.20662 0.0
C284 C 0.10538 0.24608 0.19942 0.0
C285 C 0.1457 0.3069 0.20179 0.0
C286 C 0.08893 0.27875 0.20596 0.0
N287 N 0.19518 0.21347 0.1822 0.0
C288 C 0.21244 0.18322 0.16845 0.0
C289 C 0.14022 0.1817 0.18381 0.0
C290 C 0.15953 0.21329 0.18688 0.0
C291 C 0.15832 0.15031 0.17403 0.0
C292 C 0.1945 0.1512 0.16534 0.0
H293 H 0.06064 0.28068 0.2098 0.0
H294 H 0.05781 0.21486 0.20159 0.0
H295 H 0.08833 0.15844 0.18797 0.0
O296 O 0.22965 0.25457 0.11012 0.0
O297 O 0.19954 0.24807 0.26939 0.0
O298 O 0.24186 0.21068 0.2987 0.0
O299 O 0.2048 0.30335 0.13217 0.0
O300 O 0.27168 0.24029 0.18393 0.0
O301 O 0.28159 0.20819 0.26146 0.0
O302 O 0.24159 0.25697 0.3841 0.0
O303 O 0.30518 0.28061 0.26025 0.0
O304 O 0.26362 0.30641 0.20317 0.0
O305 O 0.29171 0.23493 0.40529 0.0
O306 O 0.25013 0.29878 0.32632 0.0
O307 O 0.21557 0.31158 0.24969 0.0
C308 C 0.20873 0.21949 0.29546 0.0
C309 C 0.18965 0.27796 0.04655 0.0
C310 C 0.18086 0.26882 0.94904 0.0
C311 C 0.14442 0.27177 0.95691 0.0
C312 C 0.15314 0.28058 0.05349 0.0
C313 C 0.13072 0.27735 1.00889 0.0
C314 C 0.20333 0.27166 0.99424 0.0
C315 C 0.28739 0.2144 0.20957 0.0
C316 C 0.21421 0.28274 0.0924 0.0
C317 C 0.08615 0.21461 0.19754 0.0
C318 C 0.10354 0.18249 0.18984 0.0
C319 C 0.29578 0.30338 0.22269 0.0
C320 C 0.26385 0.27057 0.4709 0.0
C321 C 0.25487 0.28277 0.56752 0.0
C322 C 0.26552 0.31768 0.55902 0.0
C323 C 0.27498 0.30532 0.4638 0.0
C324 C 0.2542 0.25914 0.5231 0.0
C325 C 0.27567 0.32877 0.50749 0.0
C326 C 0.22692 0.31806 0.29962 0.0
C327 C 0.26185 0.24666 0.42365 0.0
H328 H 0.12654 0.26953 0.92286 0.0
H329 H 0.14183 0.28547 0.09302 0.0
H330 H 0.1026 0.27948 1.01458 0.0
H331 H 0.23153 0.2699 0.98852 0.0
H332 H 0.26653 0.33628 0.5925 0.0
H333 H 0.28296 0.31429 0.42433 0.0
H334 H 0.24569 0.23225 0.52895 0.0
H335 H 0.28411 0.35561 0.50139 0.0
Tb336 Tb 0.72971 0.2581 0.34394 0.0
C337 C 0.8644 0.2591 0.18471 0.0
N338 N 0.84261 0.28505 0.20248 0.0
C339 C 0.89176 0.32395 0.21289 0.0
C340 C 0.90098 0.26434 0.1814 0.0
C341 C 0.8556 0.3176 0.21482 0.0
C342 C 0.91459 0.29714 0.19647 0.0
C343 C 0.87134 0.19968 0.14984 0.0
C344 C 0.84983 0.22729 0.16885 0.0
C345 C 0.90785 0.20464 0.14683 0.0
C346 C 0.92263 0.23688 0.16263 0.0
Tb347 Tb 0.78419 0.27157 0.20201 0.0
N348 N 0.81458 0.223 0.17445 0.0
C349 C 0.85549 0.16784 0.13503 0.0
C350 C 0.79881 0.19246 0.15828 0.0
C351 C 0.81905 0.16431 0.13898 0.0
H352 H 0.8381 0.33895 0.22531 0.0
H353 H 0.8065 0.13998 0.12686 0.0
H354 H 0.66114 0.20847 0.31435 0.0
H355 H 0.74134 0.39429 0.40985 0.0
H356 H 0.77067 0.18973 0.15989 0.0
H357 H 0.8711 0.14595 0.12025 0.0
H358 H 0.76315 0.33494 0.39205 0.0
H359 H 0.90196 0.34965 0.22342 0.0
H360 H 0.92487 0.18371 0.13246 0.0
H361 H 0.95082 0.24037 0.15991 0.0
H362 H 0.59664 0.21554 0.31054 0.0
H363 H 0.94256 0.30222 0.19462 0.0
H364 H 0.67803 0.40733 0.40106 0.0
N365 N 0.67042 0.26177 0.33628 0.0
C366 C 0.65616 0.29334 0.35023 0.0
C367 C 0.61308 0.23766 0.32149 0.0
C368 C 0.6195 0.29852 0.34885 0.0
C369 C 0.64959 0.23383 0.32312 0.0
C370 C 0.59795 0.27017 0.33425 0.0
N371 N 0.71401 0.31495 0.36419 0.0
C372 C 0.73612 0.34043 0.38339 0.0
C373 C 0.66466 0.35437 0.37599 0.0
C374 C 0.67864 0.32096 0.36332 0.0
C375 C 0.68772 0.38129 0.39104 0.0
C376 C 0.72351 0.37411 0.39559 0.0
H377 H 0.56967 0.27311 0.3326 0.0
H378 H 0.57756 0.33646 0.35964 0.0
H379 H 0.61701 0.38528 0.38363 0.0
O380 O 0.73032 0.26457 0.42928 0.0
O381 O 0.70426 0.28092 0.27139 0.0
O382 O 0.74828 0.31223 0.23183 0.0
O383 O 0.70785 0.21858 0.39252 0.0
O384 O 0.78233 0.28159 0.34994 0.0
O385 O 0.78714 0.31018 0.26842 0.0
O386 O 0.76235 0.26528 0.12341 0.0
O387 O 0.80695 0.23214 0.25762 0.0
O388 O 0.77622 0.22442 0.33945 0.0
O389 O 0.7975 0.30777 0.14149 0.0
O390 O 0.73576 0.24005 0.20042 0.0
O391 O 0.72769 0.21409 0.28509 0.0
C392 C 0.71474 0.30636 0.23914 0.0
C393 C 0.73161 0.21208 0.48125 0.0
C394 C 0.74663 0.20436 0.5775 0.0
C395 C 0.7552 0.16907 0.56616 0.0
C396 C 0.74053 0.17677 0.47133 0.0
C397 C 0.75215 0.15551 0.5136 0.0
C398 C 0.73484 0.22573 0.53443 0.0
C399 C 0.79929 0.30273 0.31693 0.0
C400 C 0.71611 0.23407 0.43792 0.0
C401 C 0.60564 0.33188 0.36081 0.0
C402 C 0.62815 0.35973 0.37423 0.0
C403 C 0.80241 0.21749 0.30585 0.0
C404 C 0.80192 0.28263 0.05347 0.0
C405 C 0.8046 0.26682 0.95662 0.0
C406 C 0.84145 0.26944 0.95897 0.0
C407 C 0.83875 0.28545 0.05392 0.0
C408 C 0.78494 0.27334 1.00449 0.0
C409 C 0.85826 0.27855 1.00723 0.0
C410 C 0.72252 0.21541 0.232 0.0
C411 C 0.78126 0.29057 0.1033 0.0
H412 H 0.76353 0.15154 0.59815 0.0
H413 H 0.738 0.16532 0.43113 0.0
H414 H 0.75849 0.12822 0.50574 0.0
H415 H 0.72793 0.25294 0.54214 0.0
H416 H 0.85742 0.26545 0.92304 0.0
H417 H 0.85267 0.29358 0.09005 0.0
H418 H 0.75656 0.27132 1.00373 0.0
H419 H 0.88659 0.28092 1.00822 0.0
Tb420 Tb 0.73529 0.75671 0.7009 0.0
C421 C 0.86765 0.79171 0.82977 0.0
N422 N 0.8499 0.76069 0.82989 0.0
C423 C 0.90403 0.72912 0.81929 0.0
C424 C 0.90434 0.79263 0.82239 0.0
C425 C 0.8676 0.72956 0.82647 0.0
C426 C 0.92247 0.76079 0.81679 0.0
C427 C 0.86599 0.85536 0.83415 0.0
C428 C 0.84866 0.82264 0.83612 0.0
C429 C 0.90255 0.85645 0.82661 0.0
C430 C 0.92168 0.82517 0.82087 0.0
Tb431 Tb 0.79071 0.7644 0.84287 0.0
N432 N 0.81309 0.82058 0.84181 0.0
C433 C 0.84601 0.88605 0.83905 0.0
C434 C 0.79361 0.85061 0.84642 0.0
C435 C 0.80968 0.88364 0.84513 0.0
H436 H 0.85385 0.705 0.83051 0.0
H437 H 0.79396 0.90726 0.84862 0.0
H438 H 0.67754 0.82166 0.68322 0.0
H439 H 0.72267 0.61821 0.65683 0.0
H440 H 0.76574 0.8497 0.85068 0.0
H441 H 0.85831 0.9117 0.83778 0.0
H442 H 0.75449 0.6741 0.6707 0.0
H443 H 0.9179 0.70435 0.81616 0.0
H444 H 0.91625 0.88137 0.82491 0.0
H445 H 0.94987 0.82642 0.8151 0.0
H446 H 0.6132 0.82777 0.67439 0.0
H447 H 0.9507 0.76036 0.8112 0.0
H448 H 0.65767 0.61737 0.65976 0.0
N449 N 0.67614 0.76583 0.68947 0.0
C450 C 0.65593 0.73656 0.68607 0.0
C451 C 0.62486 0.80193 0.67804 0.0
C452 C 0.61916 0.73874 0.68051 0.0
C453 C 0.66129 0.79835 0.68324 0.0
C454 C 0.60362 0.77202 0.67771 0.0
N455 N 0.70818 0.70402 0.68504 0.0
C456 C 0.72624 0.67385 0.67315 0.0
C457 C 0.65322 0.67335 0.67481 0.0
C458 C 0.67259 0.70442 0.68329 0.0
C459 C 0.67156 0.64184 0.6666 0.0
C460 C 0.70825 0.64222 0.66489 0.0
H461 H 0.57544 0.77486 0.6734 0.0
H462 H 0.57102 0.70878 0.67191 0.0
H463 H 0.60094 0.65139 0.66694 0.0
O464 O 0.76682 0.74652 0.63161 0.0
O465 O 0.7237 0.71661 0.76278 0.0
O466 O 0.73773 0.7418 0.84622 0.0
O467 O 0.72278 0.78109 0.62705 0.0
O468 O 0.78599 0.72962 0.71053 0.0
O469 O 0.79182 0.7132 0.80055 0.0
O470 O 0.79151 0.78245 0.92373 0.0
O471 O 0.81179 0.77999 0.76381 0.0
O472 O 0.76411 0.80426 0.72398 0.0
O473 O 0.80669 0.72949 0.90466 0.0
O474 O 0.74052 0.79316 0.84505 0.0
O475 O 0.71513 0.79724 0.75802 0.0
C476 C 0.71845 0.72093 0.81527 0.0
C477 C 0.73556 0.74803 0.54823 0.0
C478 C 0.74504 0.73615 0.45138 0.0
C479 C 0.71172 0.72036 0.44881 0.0
C480 C 0.70245 0.73197 0.54445 0.0
C481 C 0.69074 0.71813 0.49512 0.0
C482 C 0.75699 0.74972 0.50161 0.0
C483 C 0.79694 0.70756 0.74803 0.0
C484 C 0.74694 0.76484 0.59962 0.0
C485 C 0.59936 0.70771 0.67553 0.0
C486 C 0.61639 0.67503 0.67264 0.0
C487 C 0.79815 0.80303 0.73073 0.0
C488 C 0.82991 0.75515 0.98569 0.0
C489 C 0.84561 0.75307 0.08239 0.0
C490 C 0.87999 0.7633 0.06839 0.0
C491 C 0.86443 0.76487 0.97317 0.0
C492 C 0.82063 0.74915 0.04032 0.0
C493 C 0.88926 0.76891 1.01429 0.0
C494 C 0.71625 0.80456 0.81086 0.0
C495 C 0.80271 0.75282 0.94311 0.0
H496 H 0.70203 0.70938 0.41097 0.0
H497 H 0.68533 0.73064 0.57934 0.0
H498 H 0.66513 0.70588 0.49267 0.0
H499 H 0.78245 0.76237 0.50408 0.0
H500 H 0.89977 0.76756 0.0993 0.0
H501 H 0.87222 0.76972 0.9319 0.0
H502 H 0.79398 0.74129 0.04983 0.0
H503 H 0.91578 0.77678 1.00423 0.0
Tb504 Tb 0.50034 0.538 0.09352 0.0
C505 C 0.46478 0.41441 0.95961 0.0
N506 N 0.49845 0.42543 0.96625 0.0
C507 C 0.51659 0.36678 0.98737 0.0
C508 C 0.4554 0.37916 0.96899 0.0
C509 C 0.52456 0.40214 0.97828 0.0
C510 C 0.48183 0.35528 0.98317 0.0
C511 C 0.40417 0.42869 0.9394 0.0
C512 C 0.43952 0.43905 0.94539 0.0
C513 C 0.39451 0.39374 0.9499 0.0
C514 C 0.42006 0.36904 0.96462 0.0
Tb515 Tb 0.50858 0.48333 0.95057 0.0
N516 N 0.44973 0.47291 0.9366 0.0
C517 C 0.37971 0.45355 0.92186 0.0
C518 C 0.42646 0.49617 0.91443 0.0
C519 C 0.39108 0.48718 0.90813 0.0
H520 H 0.55148 0.41088 0.98122 0.0
H521 H 0.37273 0.50597 0.89152 0.0
H522 H 0.41911 0.57029 0.09028 0.0
H523 H 0.6221 0.5954 0.16032 0.0
H524 H 0.4349 0.52131 0.89952 0.0
H525 H 0.3523 0.44665 0.91667 0.0
H526 H 0.58218 0.54679 0.13356 0.0
H527 H 0.53723 0.34845 0.99777 0.0
H528 H 0.36742 0.38543 0.94599 0.0
H529 H 0.41224 0.34215 0.97228 0.0
H530 H 0.39127 0.629 0.09202 0.0
H531 H 0.47569 0.32795 0.99078 0.0
H532 H 0.60042 0.65681 0.16059 0.0
N533 N 0.47104 0.59036 0.09851 0.0
C534 C 0.49114 0.61903 0.10891 0.0
C535 C 0.41945 0.62659 0.09647 0.0
C536 C 0.47633 0.65292 0.11226 0.0
C537 C 0.43535 0.59342 0.09493 0.0
C538 C 0.44008 0.65654 0.1045 0.0
N539 N 0.53933 0.58081 0.11663 0.0
C540 C 0.57279 0.57363 0.13331 0.0
C541 C 0.54789 0.64245 0.13502 0.0
C542 C 0.52635 0.61396 0.11977 0.0
C543 C 0.58294 0.63565 0.14875 0.0
C544 C 0.59531 0.60102 0.14855 0.0
H545 H 0.42766 0.68216 0.10639 0.0
H546 H 0.48713 0.70809 0.12732 0.0
H547 H 0.54984 0.69887 0.14749 0.0
O548 O 0.50745 0.50163 0.15698 0.0
O549 O 0.54201 0.55686 0.03805 0.0
O550 O 0.53832 0.53291 0.94978 0.0
O551 O 0.48363 0.55183 0.17233 0.0
O552 O 0.54062 0.49684 0.08799 0.0
O553 O 0.5561 0.47652 1.00085 0.0
O554 O 0.49726 0.47556 0.86746 0.0
O555 O 0.49249 0.46214 0.03052 0.0
O556 O 0.45726 0.50313 0.06992 0.0
O557 O 0.54802 0.46295 0.89898 0.0
O558 O 0.48735 0.53689 0.94621 0.0
O559 O 0.46069 0.5396 0.02909 0.0
C560 C 0.55093 0.5556 0.98588 0.0
C561 C 0.46966 0.50633 0.23333 0.0
C562 C 0.45845 0.48613 0.32621 0.0
C563 C 0.42384 0.47789 0.31066 0.0
C564 C 0.43509 0.4979 0.21898 0.0
C565 C 0.41232 0.48397 0.25767 0.0
C566 C 0.48123 0.50064 0.28705 0.0
C567 C 0.56056 0.47832 0.05424 0.0
C568 C 0.49362 0.5223 0.19353 0.0
C569 C 0.49794 0.68177 0.12495 0.0
C570 C 0.53364 0.67652 0.13654 0.0
C571 C 0.46361 0.47022 0.05728 0.0
C572 C 0.54475 0.48052 0.80587 0.0
C573 C 0.54361 0.48867 0.70663 0.0
C574 C 0.5758 0.50668 0.71058 0.0
C575 C 0.57693 0.49844 0.80815 0.0
C576 C 0.52821 0.47579 0.75496 0.0
C577 C 0.59219 0.51147 0.76083 0.0
C578 C 0.46733 0.55345 0.9816 0.0
C579 C 0.52879 0.46524 0.85547 0.0
H580 H 0.40541 0.46731 0.33981 0.0
H581 H 0.42563 0.50255 0.17817 0.0
H582 H 0.38545 0.47827 0.24679 0.0
H583 H 0.50799 0.50722 0.29814 0.0
H584 H 0.58895 0.51632 0.67465 0.0
H585 H 0.59056 0.50199 0.84634 0.0
H586 H 0.50335 0.46199 0.75318 0.0
H587 H 0.61719 0.52493 0.76298 0.0
Tb588 Tb 0.01934 0.47715 0.59288 0.0
C589 C 0.9998 0.61706 0.44774 0.0
N590 N 0.97746 0.58925 0.45008 0.0
C591 C 0.92814 0.62771 0.43878 0.0
C592 C 0.987 0.65159 0.44206 0.0
C593 C 0.94208 0.59388 0.44442 0.0
C594 C 0.95065 0.65672 0.43826 0.0
C595 C 0.05976 0.63863 0.44421 0.0
C596 C 0.03575 0.61063 0.44853 0.0
C597 C 0.04712 0.67324 0.44033 0.0
C598 C 0.01084 0.67969 0.43923 0.0
Tb599 Tb 1.00355 0.53599 0.46138 0.0
N600 N 0.04712 0.57683 0.45343 0.0
C601 C 0.09573 0.63095 0.44341 0.0
C602 C 0.08207 0.56902 0.44939 0.0
C603 C 0.10688 0.59597 0.44534 0.0
H604 H 0.9247 0.5714 0.44453 0.0
H605 H 0.1346 0.58975 0.44355 0.0
H606 H 0.09183 0.42915 0.57571 0.0
H607 H 0.88245 0.4415 0.61326 0.0
H608 H 0.09102 0.5422 0.45022 0.0
H609 H 0.11504 0.65173 0.44029 0.0
H610 H 0.9325 0.48217 0.61153 0.0
H611 H 0.90007 0.6314 0.43498 0.0
H612 H 0.06517 0.69514 0.43739 0.0
H613 H 1.00152 0.70647 0.43529 0.0
H614 H 0.10644 0.36678 0.56012 0.0
H615 H 0.93975 0.68286 0.43391 0.0
H616 H 0.89217 0.37775 0.59982 0.0
N617 N 0.03674 0.42024 0.5805 0.0
C618 C 0.01062 0.39591 0.58169 0.0
C619 C 0.07935 0.37465 0.56574 0.0
C620 C 0.01784 0.35989 0.57397 0.0
C621 C 0.0709 0.41009 0.57374 0.0
C622 C 0.0527 0.34944 0.56558 0.0
N623 N 0.97041 0.44242 0.59604 0.0
C624 C 0.93727 0.45469 0.60537 0.0
C625 C 0.94852 0.38298 0.59115 0.0
C626 C 0.9764 0.4073 0.59039 0.0
C627 C 0.91435 0.39556 0.59915 0.0
C628 C 0.90875 0.43155 0.60659 0.0
H629 H 0.05934 0.32201 0.55944 0.0
H630 H 0.99515 0.30775 0.56876 0.0
H631 H 0.93446 0.32798 0.58359 0.0
O632 O 1.00331 0.4885 0.67302 0.0
O633 O 0.99839 0.45594 0.51515 0.0
O634 O 0.96243 0.49817 0.48011 0.0
O635 O 0.04949 0.45751 0.65767 0.0
O636 O 0.98537 0.52348 0.60156 0.0
O637 O 0.95914 0.53781 0.5192 0.0
O638 O 0.01183 0.5029 0.39307 0.0
O639 O 0.03029 0.56192 0.53019 0.0
O640 O 0.05642 0.52124 0.5875 0.0
O641 O 0.98917 0.55422 0.38432 0.0
O642 O 0.04428 0.49452 0.45859 0.0
O643 O 0.06673 0.48524 0.54474 0.0
C644 C 0.97037 0.46499 0.487 0.0
C645 C 0.0185 0.44671 0.7397 0.0
C646 C 1.00687 0.43905 0.83693 0.0
C647 C 1.00126 0.40298 0.82718 0.0
C648 C 0.01289 0.41067 0.73126 0.0
C649 C 1.00415 0.38904 0.77475 0.0
C650 C 0.01528 0.46078 0.7925 0.0
C651 C 0.961 0.53963 0.57296 0.0
C652 C 0.02844 0.47009 0.69459 0.0
C653 C 0.99013 0.33554 0.57477 0.0
C654 C 0.95557 0.34706 0.58331 0.0
C655 C 0.05156 0.55367 0.57042 0.0
C656 C 0.97362 0.51248 0.31808 0.0
C657 C 0.96249 0.49793 0.22251 0.0
C658 C 0.92633 0.49653 0.2342 0.0
C659 C 0.93751 0.5107 0.32878 0.0
C660 C 0.98601 0.50571 0.26521 0.0
C661 C 0.91406 0.50295 0.28682 0.0
C662 C 0.06859 0.48222 0.49159 0.0
C663 C 0.9983 0.52551 0.35951 0.0
H664 H 0.99539 0.38529 0.86022 0.0
H665 H 0.01564 0.3991 0.69137 0.0
H666 H 1.00003 0.36121 0.7679 0.0
H667 H 0.01932 0.48871 0.79878 0.0
H668 H 0.90731 0.49164 0.20237 0.0
H669 H 0.92742 0.51644 0.36904 0.0
H670 H 0.01397 0.50726 0.25729 0.0
H671 H 0.88613 0.50296 0.29462 0.0
H672 H 0.1227 0.05509 0.45343 0.0
H673 H 0.02407 0.11197 0.44389 0.0
H674 H 0.0538 0.16061 0.39765 0.0
H675 H 0.17609 0.13294 0.47909 0.0
H676 H 0.21312 0.11774 0.43975 0.0
H677 H 0.18451 0.0865 0.47216 0.0
H678 H 0.17247 0.05554 0.37923 0.0
H679 H 0.20259 0.08602 0.34846 0.0
H680 H 0.15872 0.08178 0.32235 0.0
H681 H 0.09304 0.20304 0.35235 0.0
H682 H 0.14009 0.23752 0.31032 0.0
H683 H 0.21485 0.15447 0.34579 0.0
C684 C 0.10747 0.07775 0.44123 0.0
C685 C 0.07093 0.07958 0.45201 0.0
C686 C 0.05198 0.10987 0.43614 0.0
C687 C 0.06864 0.13769 0.40968 0.0
C688 C 0.10449 0.13512 0.3994 0.0
C689 C 0.12385 0.10607 0.41465 0.0
C690 C 0.16233 0.11081 0.39941 0.0
C691 C 0.18538 0.11207 0.45065 0.0
C692 C 0.17471 0.0818 0.36004 0.0
C693 C 0.16116 0.14648 0.37177 0.0
C694 C 0.12749 0.16001 0.3729 0.0
C695 C 0.11949 0.19264 0.3509 0.0
C696 C 0.14648 0.21198 0.32669 0.0
C697 C 0.18119 0.19858 0.32364 0.0
C698 C 0.1886 0.16541 0.34707 0.0
H699 H 0.12202 0.95019 0.54772 0.0
H700 H 0.02626 0.92288 0.6332 0.0
H701 H 0.05814 0.87703 0.68332 0.0
H702 H 0.15504 0.85914 0.53743 0.0
H703 H 0.20029 0.87067 0.54784 0.0
H704 H 0.17104 0.90139 0.51562 0.0
H705 H 0.18532 0.94918 0.58682 0.0
H706 H 0.21578 0.91963 0.61895 0.0
H707 H 0.18083 0.93945 0.65805 0.0
H708 H 0.0998 0.83531 0.72612 0.0
H709 H 0.149 0.7997 0.7589 0.0
H710 H 0.21981 0.85366 0.64973 0.0
C711 C 0.10772 0.93405 0.57622 0.0
C712 C 0.07151 0.94002 0.58628 0.0
C713 C 0.05393 0.91887 0.62484 0.0
C714 C 0.0718 0.89266 0.65346 0.0
C715 C 0.10745 0.88772 0.64332 0.0
C716 C 0.12532 0.90758 0.6055 0.0
C717 C 0.16389 0.89693 0.6036 0.0
C718 C 0.1731 0.88114 0.54777 0.0
C719 C 0.18787 0.92816 0.61771 0.0
C720 C 0.16503 0.86896 0.64755 0.0
C721 C 0.13197 0.86391 0.66927 0.0
C722 C 0.12589 0.83941 0.70992 0.0
C723 C 0.15428 0.81969 0.72923 0.0
C724 C 0.18873 0.82473 0.709 0.0
C725 C 0.19396 0.84946 0.6668 0.0
H726 H 0.33304 0.81896 0.8983 0.0
H727 H 0.30416 0.87728 0.75412 0.0
H728 H 0.34116 0.92678 0.78463 0.0
H729 H 0.33667 0.89467 0.99081 0.0
H730 H 0.37412 0.8785 0.0275 0.0
H731 H 0.34394 0.848 0.99655 0.0
H732 H 0.39495 0.81891 0.94318 0.0
H733 H 0.42547 0.849 0.97442 0.0
H734 H 0.42295 0.84575 0.90143 0.0
H735 H 0.38165 0.96956 0.82914 0.0
H736 H 0.42588 1.00197 0.88197 0.0
H737 H 0.43258 0.91557 0.99571 0.0
C738 C 0.33413 0.84236 0.87357 0.0
C739 C 0.31535 0.84431 0.82392 0.0
C740 C 0.31813 0.87514 0.79227 0.0
C741 C 0.33905 0.90347 0.80935 0.0
C742 C 0.3574 0.90063 0.8581 0.0
C743 C 0.35541 0.87084 0.88969 0.0
C744 C 0.37911 0.87424 0.93924 0.0
C745 C 0.35715 0.87382 0.99163 0.0
C746 C 0.40729 0.84525 0.93956 0.0
C747 C 0.39528 0.91027 0.92989 0.0
C748 C 0.38185 0.9251 0.88318 0.0
C749 C 0.39251 0.95809 0.86556 0.0
C750 C 0.41798 0.9762 0.89574 0.0
C751 C 0.43334 0.96124 0.94272 0.0
C752 C 0.42129 0.92794 0.96039 0.0
H753 H 0.42895 0.06255 0.13729 0.0
H754 H 0.41698 0.09394 0.96892 0.0
H755 H 0.3717 0.13667 0.99619 0.0
H756 H 0.3355 0.07211 0.17587 0.0
H757 H 0.34564 0.08944 0.24236 0.0
H758 H 0.37546 0.05918 0.20956 0.0
H759 H 0.42587 0.10433 0.22064 0.0
H760 H 0.39606 0.13466 0.25301 0.0
H761 H 0.42048 0.14805 0.19401 0.0
H762 H 0.33148 0.17889 0.0409 0.0
H763 H 0.29559 0.21648 0.09966 0.0
H764 H 0.33068 0.15816 0.24071 0.0
C765 C 0.41628 0.07786 0.10598 0.0
C766 C 0.42667 0.07464 0.05073 0.0
C767 C 0.40974 0.09576 1.01139 0.0
C768 C 0.38388 0.12019 0.02649 0.0
C769 C 0.37493 0.12329 0.08118 0.0
C770 C 0.39026 0.10257 0.1204 0.0
C771 C 0.37653 0.11249 0.17661 0.0
C772 C 0.35712 0.08145 0.20263 0.0
C773 C 0.40654 0.12566 0.21321 0.0
C774 C 0.35129 0.14214 0.16268 0.0
C775 C 0.35104 0.14781 0.10732 0.0
C776 C 0.33117 0.17445 0.08427 0.0
C777 C 0.31084 0.19583 0.11842 0.0
C778 C 0.30996 0.1906 0.17553 0.0
C779 C 0.33053 0.1631 0.19769 0.0
H780 H 0.90261 0.96912 0.61066 0.0
H781 H 0.97489 0.89316 0.54028 0.0
H782 H 0.93796 0.84489 0.57311 0.0
H783 H 0.88425 0.91912 0.73212 0.0
H784 H 0.83863 0.93169 0.73518 0.0
H785 H 0.87026 0.96061 0.70452 0.0
H786 H 0.83301 0.96118 0.61637 0.0
H787 H 0.80165 0.93182 0.64685 0.0
H788 H 0.82226 0.92017 0.58328 0.0
H789 H 0.89573 0.80442 0.61747 0.0
H790 H 0.84982 0.7741 0.67025 0.0
H791 H 0.80273 0.87448 0.71191 0.0
C792 C 0.91051 0.94232 0.60199 0.0
C793 C 0.94133 0.93511 0.5714 0.0
C794 C 0.95087 0.89959 0.56166 0.0
C795 C 0.93019 0.87184 0.58072 0.0
C796 C 0.89988 0.87975 0.61001 0.0
C797 C 0.88996 0.91404 0.62083 0.0
C798 C 0.85636 0.91486 0.65446 0.0
C799 C 0.86278 0.93262 0.70986 0.0
C800 C 0.82655 0.93309 0.62337 0.0
C801 C 0.84913 0.87574 0.66083 0.0
C802 C 0.8748 0.85609 0.63496 0.0
C803 C 0.87521 0.8195 0.63722 0.0
C804 C 0.84898 0.80249 0.66712 0.0
C805 C 0.82228 0.82188 0.69383 0.0
C806 C 0.82218 0.85901 0.69028 0.0
H807 H 0.89261 0.06881 0.49492 0.0
H808 H 0.98164 0.07537 0.38484 0.0
H809 H 0.95184 0.12133 0.33345 0.0
H810 H 0.82651 0.07984 0.39151 0.0
H811 H 0.79743 0.10689 0.43158 0.0
H812 H 0.82559 0.07538 0.46436 0.0
H813 H 0.85161 0.1239 0.52476 0.0
H814 H 0.82487 0.15701 0.49293 0.0
H815 H 0.87182 0.1618 0.49425 0.0
H816 H 0.91458 0.16768 0.29477 0.0
H817 H 0.86924 0.20921 0.26665 0.0
H818 H 0.80009 0.17116 0.39317 0.0
C819 C 0.9057 0.08 0.46003 0.0
C820 C 0.93952 0.0681 0.44402 0.0
C821 C 0.95567 0.08347 0.39792 0.0
C822 C 0.93904 0.1099 0.36838 0.0
C823 C 0.90581 0.12077 0.38462 0.0
C824 C 0.889 0.10628 0.42893 0.0
C825 C 0.85266 0.12257 0.43577 0.0
C826 C 0.82384 0.09449 0.43053 0.0
C827 C 0.85007 0.14246 0.49018 0.0
C828 C 0.85179 0.14791 0.38804 0.0
C829 C 0.88308 0.14664 0.35986 0.0
C830 C 0.88957 0.16827 0.31566 0.0
C831 C 0.8632 0.1915 0.29912 0.0
C832 C 0.8301 0.19257 0.32531 0.0
C833 C 0.82467 0.17064 0.37116 0.0
H834 H 0.71969 0.14436 0.20554 0.0
H835 H 0.65954 0.241 0.20289 0.0
H836 H 0.6088 0.2092 0.16452 0.0
H837 H 0.68644 0.11529 0.0746 0.0
H838 H 0.68576 0.06915 0.09062 0.0
H839 H 0.71724 0.09782 0.12289 0.0
H840 H 0.69554 0.0804 0.21872 0.0
H841 H 0.66599 0.05001 0.18621 0.0
H842 H 0.64922 0.08234 0.23372 0.0
H843 H 0.56445 0.16759 0.1283 0.0
H844 H 0.53048 0.11991 0.08573 0.0
H845 H 0.61949 0.04947 0.10235 0.0
C846 C 0.69559 0.15851 0.19746 0.0
C847 C 0.69293 0.19493 0.20897 0.0
C848 C 0.66166 0.213 0.19573 0.0
C849 C 0.63274 0.19513 0.17386 0.0
C850 C 0.63583 0.15922 0.16355 0.0
C851 C 0.66662 0.14114 0.17371 0.0
C852 C 0.66356 0.10322 0.15404 0.0
C853 C 0.68981 0.09593 0.10779 0.0
C854 C 0.66885 0.07747 0.20106 0.0
C855 C 0.62587 0.10258 0.13326 0.0
C856 C 0.61055 0.13532 0.13936 0.0
C857 C 0.57619 0.14188 0.12307 0.0
C858 C 0.55708 0.11455 0.09887 0.0
C859 C 0.57228 0.08097 0.09037 0.0
C860 C 0.60705 0.07477 0.10868 0.0
H861 H 0.71557 0.85457 0.89467 0.0
H862 H 0.64714 0.79527 0.78785 0.0
H863 H 0.59609 0.82823 0.82263 0.0
H864 H 0.6531 0.85856 1.00893 0.0
H865 H 0.6669 0.9021 0.02874 0.0
H866 H 0.69758 0.87258 0.99633 0.0
H867 H 0.7094 0.91951 0.92191 0.0
H868 H 0.67896 0.94849 0.95566 0.0
H869 H 0.67276 0.93749 0.88492 0.0
H870 H 0.55307 0.87043 0.86423 0.0
H871 H 0.52092 0.91862 0.9102 0.0
H872 H 0.61615 0.94931 0.99426 0.0
C873 C 0.69007 0.84885 0.87773 0.0
C874 C 0.68588 0.82411 0.83483 0.0
C875 C 0.65148 0.81621 0.81679 0.0
C876 C 0.62215 0.83416 0.83759 0.0
C877 C 0.62737 0.85945 0.87795 0.0
C878 C 0.66039 0.86657 0.89835 0.0
C879 C 0.65869 0.89542 0.94135 0.0
C880 C 0.66972 0.88129 0.99715 0.0
C881 C 0.68128 0.92711 0.92492 0.0
C882 C 0.61974 0.90425 0.94043 0.0
C883 C 0.60215 0.88276 0.90402 0.0
C884 C 0.56644 0.88703 0.89346 0.0
C885 C 0.54839 0.91442 0.91976 0.0
C886 C 0.56585 0.93716 0.95651 0.0
C887 C 0.6019 0.93159 0.96768 0.0
H888 H 0.59202 0.55768 0.89152 0.0
H889 H 0.56066 0.62045 0.03042 0.0
H890 H 0.59784 0.66864 1.00017 0.0
H891 H 0.68151 0.58602 0.88459 0.0
H892 H 0.68334 0.58851 0.81154 0.0
H893 H 0.65355 0.55829 0.84364 0.0
H894 H 0.60042 0.58654 0.79267 0.0
H895 H 0.63132 0.61498 0.75932 0.0
H896 H 0.59465 0.63348 0.79595 0.0
H897 H 0.63901 0.70971 0.9576 0.0
H898 H 0.68314 0.74196 0.90502 0.0
H899 H 0.68892 0.65564 0.789 0.0
C900 C 0.5931 0.5815 0.91559 0.0
C901 C 0.57408 0.58444 0.96518 0.0
C902 C 0.57596 0.6165 0.99444 0.0
C903 C 0.5967 0.64448 0.97679 0.0
C904 C 0.61541 0.64057 0.92868 0.0
C905 C 0.6138 0.6101 0.89804 0.0
C906 C 0.63692 0.61337 0.84768 0.0
C907 C 0.66553 0.58484 0.84684 0.0
C908 C 0.61449 0.61201 0.79583 0.0
C909 C 0.65257 0.6499 0.8562 0.0
C910 C 0.6392 0.66506 0.903 0.0
C911 C 0.64967 0.6982 0.9208 0.0
C912 C 0.67494 0.71627 0.89067 0.0
C913 C 0.68977 0.70137 0.84299 0.0
C914 C 0.67792 0.66787 0.825 0.0
H915 H 0.72396 0.36226 0.16666 0.0
H916 H 0.64377 0.29799 0.24232 0.0
H917 H 0.59801 0.33532 0.20415 0.0
H918 H 0.6811 0.44576 0.17636 0.0
H919 H 0.6927 0.46055 0.1093 0.0
H920 H 0.7205 0.42964 0.14402 0.0
H921 H 0.71546 0.38629 0.06298 0.0
H922 H 0.68776 0.41716 0.02785 0.0
H923 H 0.67262 0.37297 0.03952 0.0
H924 H 0.56137 0.3827 0.16885 0.0
H925 H 0.53348 0.43222 0.12269 0.0
H926 H 0.63306 0.46148 0.05091 0.0
C927 C 0.69675 0.35609 0.17511 0.0
C928 C 0.68774 0.32798 0.21039 0.0
C929 C 0.65175 0.32029 0.21859 0.0
C930 C 0.62535 0.34117 0.19623 0.0
C931 C 0.63499 0.36909 0.16333 0.0
C932 C 0.66963 0.37613 0.1511 0.0
C933 C 0.67187 0.40697 0.11173 0.0
C934 C 0.69279 0.43754 0.13686 0.0
C935 C 0.68788 0.39514 0.05728 0.0
C936 C 0.63312 0.41655 0.10533 0.0
C937 C 0.61271 0.39437 0.13646 0.0
C938 C 0.57681 0.39937 0.14259 0.0
C939 C 0.56107 0.42742 0.11572 0.0
C940 C 0.5805 0.44958 0.08097 0.0
C941 C 0.61726 0.44417 0.07565 0.0
H942 H 0.9031 0.46831 0.44304 0.0
H943 H 0.99102 0.39742 0.46735 0.0
H944 H 0.95715 0.34906 0.4265 0.0
H945 H 0.83528 0.40388 0.47187 0.0
H946 H 0.80536 0.42029 0.42129 0.0
H947 H 0.83631 0.44961 0.4533 0.0
H948 H 0.85902 0.46706 0.35948 0.0
H949 H 0.82957 0.43705 0.32586 0.0
H950 H 0.87616 0.43401 0.31345 0.0
H951 H 0.9129 0.30714 0.38684 0.0
H952 H 0.86217 0.27579 0.34624 0.0
H953 H 0.80428 0.37373 0.33941 0.0
C954 C 0.91529 0.44268 0.43933 0.0
C955 C 0.94973 0.43675 0.45922 0.0
C956 C 0.96457 0.4027 0.45354 0.0
C957 C 0.94555 0.37496 0.43005 0.0
C958 C 0.91164 0.38149 0.41155 0.0
C959 C 0.89663 0.41452 0.41553 0.0
C960 C 0.85951 0.41409 0.39265 0.0
C961 C 0.83252 0.42246 0.43745 0.0
C962 C 0.8559 0.43956 0.34492 0.0
C963 C 0.85649 0.37607 0.3739 0.0
C964 C 0.88664 0.35755 0.3863 0.0
C965 C 0.88934 0.32148 0.37635 0.0
C966 C 0.86046 0.30388 0.35338 0.0
C967 C 0.82963 0.32241 0.33931 0.0
C968 C 0.82779 0.35906 0.34916 0.0
H969 H 0.82668 0.69607 0.64719 0.0
H970 H 0.81797 0.65053 0.80791 0.0
H971 H 0.85707 0.60199 0.77922 0.0
H972 H 0.82682 0.61315 0.57243 0.0
H973 H 0.85802 0.62801 0.52251 0.0
H974 H 0.82898 0.65907 0.55513 0.0
H975 H 0.88236 0.69608 0.58622 0.0
H976 H 0.9116 0.66526 0.55361 0.0
H977 H 0.91689 0.6755 0.62472 0.0
H978 H 0.90007 0.56058 0.73506 0.0
H979 H 0.94151 0.52748 0.67802 0.0
H980 H 0.92019 0.59754 0.54388 0.0
C981 C 0.83273 0.67578 0.67638 0.0
C982 C 0.81939 0.67744 0.73022 0.0
C983 C 0.82808 0.6502 0.76678 0.0
C984 C 0.85021 0.62242 0.75076 0.0
C985 C 0.86315 0.62186 0.69771 0.0
C986 C 0.85454 0.64767 0.66089 0.0
C987 C 0.87228 0.64096 0.60641 0.0
C988 C 0.84488 0.63494 0.56146 0.0
C989 C 0.89727 0.67125 0.59191 0.0
C990 C 0.89248 0.60745 0.61852 0.0
C991 C 0.8869 0.59708 0.67151 0.0
C992 C 0.90415 0.56817 0.69324 0.0
C993 C 0.92775 0.54946 0.66019 0.0
C994 C 0.9338 0.55911 0.60529 0.0
C995 C 0.9156 0.58855 0.5845 0.0
H996 H 0.29269 0.369 0.17272 0.0
H997 H 0.3646 0.28529 0.21724 0.0
H998 H 0.41374 0.31846 0.17855 0.0
H999 H 0.33754 0.39323 0.04494 0.0
H1000 H 0.33024 0.43969 0.05429 0.0
H1001 H 0.29943 0.40848 0.08163 0.0
H1002 H 0.30652 0.43727 0.17457 0.0
H1003 H 0.34002 0.46736 0.15219 0.0
H1004 H 0.34862 0.43754 0.20743 0.0
H1005 H 0.45469 0.35804 0.13104 0.0
H1006 H 0.4871 0.40572 0.08746 0.0
H1007 H 0.39234 0.46883 0.08187 0.0
C1008 C 0.31874 0.3576 0.17377 0.0
C1009 C 0.32463 0.32441 0.19811 0.0
C1010 C 0.35925 0.31066 0.19929 0.0
C1011 C 0.38744 0.32921 0.17701 0.0
C1012 C 0.3809 0.36178 0.15375 0.0
C1013 C 0.34758 0.37613 0.15212 0.0
C1014 C 0.34868 0.41267 0.12717 0.0
C1015 C 0.32772 0.41357 0.07385 0.0
C1016 C 0.3352 0.44043 0.1677 0.0
C1017 C 0.38789 0.41671 0.11629 0.0
C1018 C 0.40558 0.38646 0.13062 0.0
C1019 C 0.44132 0.38225 0.12098 0.0
C1020 C 0.45969 0.40977 0.09658 0.0
C1021 C 0.44282 0.44173 0.08326 0.0
C1022 C 0.40625 0.44515 0.09316 0.0
H1023 H 0.39585 0.56265 0.97129 0.0
H1024 H 0.49593 0.6144 0.94763 0.0
H1025 H 0.4655 0.66567 0.9079 0.0
H1026 H 0.36024 0.58723 0.84594 0.0
H1027 H 0.31583 0.59407 0.86922 0.0
H1028 H 0.34391 0.56358 0.90396 0.0
H1029 H 0.33445 0.59618 0.99488 0.0
H1030 H 0.30542 0.6266 0.96142 0.0
H1031 H 0.34269 0.64275 0.99917 0.0
H1032 H 0.42461 0.71022 0.86772 0.0
H1033 H 0.37704 0.74317 0.82356 0.0
H1034 H 0.3034 0.66038 0.86359 0.0
C1035 C 0.41113 0.58518 0.95873 0.0
C1036 C 0.44817 0.585 0.96308 0.0
C1037 C 0.46753 0.61435 0.94498 0.0
C1038 C 0.45044 0.64355 0.92252 0.0
C1039 C 0.41395 0.64276 0.91763 0.0
C1040 C 0.39446 0.61428 0.9349 0.0
C1041 C 0.35591 0.61891 0.92042 0.0
C1042 C 0.34326 0.58918 0.8826 0.0
C1043 C 0.33327 0.62125 0.97205 0.0
C1044 C 0.35693 0.65394 0.89115 0.0
C1045 C 0.39058 0.66753 0.89117 0.0
C1046 C 0.39825 0.69962 0.86702 0.0
C1047 C 0.37105 0.71801 0.84138 0.0
C1048 C 0.33664 0.70398 0.83831 0.0
C1049 C 0.32946 0.67174 0.86463 0.0
H1050 H 0.21257 0.64742 0.72812 0.0
H1051 H 0.16859 0.74642 0.67468 0.0
H1052 H 0.11828 0.71492 0.63397 0.0
H1053 H 0.19038 0.5992 0.60835 0.0
H1054 H 0.18011 0.55881 0.64275 0.0
H1055 H 0.2112 0.58911 0.67212 0.0
H1056 H 0.17454 0.59166 0.76084 0.0
H1057 H 0.1435 0.56113 0.73177 0.0
H1058 H 0.12862 0.60303 0.75754 0.0
H1059 H 0.07381 0.67326 0.59698 0.0
H1060 H 0.03846 0.62396 0.5628 0.0
H1061 H 0.11186 0.55015 0.63449 0.0
C1062 C 0.19194 0.66234 0.70864 0.0
C1063 C 0.19406 0.69941 0.70515 0.0
C1064 C 0.16721 0.71808 0.6781 0.0
C1065 C 0.13854 0.70041 0.65497 0.0
C1066 C 0.13725 0.66388 0.65853 0.0
C1067 C 0.16322 0.64494 0.68446 0.0
C1068 C 0.15623 0.60566 0.67949 0.0
C1069 C 0.18627 0.5871 0.64885 0.0
C1070 C 0.15038 0.58941 0.73576 0.0
C1071 C 0.12251 0.60555 0.64631 0.0
C1072 C 0.11199 0.63953 0.63526 0.0
C1073 C 0.08188 0.64654 0.60519 0.0
C1074 C 0.06209 0.61819 0.58547 0.0
C1075 C 0.07255 0.58294 0.59482 0.0
C1076 C 0.10307 0.57668 0.62639 0.0
H1077 H 0.15957 0.34364 0.29178 0.0
H1078 H 0.257 0.36012 0.37858 0.0
H1079 H 0.2278 0.40455 0.43662 0.0
H1080 H 0.1319 0.4362 0.29176 0.0
H1081 H 0.08618 0.42501 0.2995 0.0
H1082 H 0.11546 0.39534 0.2644 0.0
H1083 H 0.09755 0.34547 0.32994 0.0
H1084 H 0.06854 0.37506 0.36558 0.0
H1085 H 0.10234 0.352 0.40217 0.0
H1086 H 0.18589 0.44472 0.48951 0.0
H1087 H 0.13656 0.47942 0.52812 0.0
H1088 H 0.06796 0.4397 0.40147 0.0
C1089 C 0.17528 0.35739 0.3213 0.0
C1090 C 0.21088 0.34829 0.32983 0.0
C1091 C 0.2297 0.36608 0.37136 0.0
C1092 C 0.21331 0.39163 0.40439 0.0
C1093 C 0.17803 0.39955 0.39511 0.0
C1094 C 0.15939 0.38322 0.35401 0.0
C1095 C 0.12157 0.39581 0.35286 0.0
C1096 C 0.1133 0.41419 0.29893 0.0
C1097 C 0.09601 0.36526 0.36326 0.0
C1098 C 0.12171 0.4217 0.39995 0.0
C1099 C 0.15443 0.42331 0.42416 0.0
C1100 C 0.16034 0.44401 0.47031 0.0
C1101 C 0.13219 0.46357 0.49205 0.0
C1102 C 0.09861 0.46263 0.4674 0.0
C1103 C 0.09353 0.44153 0.42054 0.0
H1104 H 0.98687 0.1041 0.92179 0.0
H1105 H 0.99043 0.99726 0.85952 0.0
H1106 H 0.01133 0.97662 0.94913 0.0
H1107 H 0.06468 0.09792 1.00773 0.0
H1108 H 0.04604 0.12527 0.06042 0.0
H1109 H 0.03315 0.13147 0.99075 0.0
H1110 H 0.9679 0.12333 1.0179 0.0
H1111 H 0.98061 0.11689 0.08754 0.0
H1112 H 0.95475 0.08402 0.05294 0.0
H1113 H 0.02798 0.96739 0.04857 0.0
H1114 H 0.04347 0.97101 0.14613 0.0
H1115 H 0.02931 0.0841 0.14224 0.0
C1116 C 0.99224 0.07636 0.92685 0.0
C1117 C 0.98691 0.05226 0.88354 0.0
C1118 C 0.99462 0.01625 0.89182 0.0
C1119 C 1.00628 1.00428 0.94273 0.0
C1120 C 0.01045 0.02868 0.98487 0.0
C1121 C 1.00407 0.06406 0.97716 0.0
C1122 C 0.01026 0.08495 0.02895 0.0
C1123 C 0.04032 0.11146 0.0215 0.0
C1124 C 0.97636 0.10337 0.04794 0.0
C1125 C 0.02068 0.0558 0.06735 0.0
C1126 C 0.02056 0.02349 0.04132 0.0
C1127 C 0.02839 0.99261 0.06913 0.0
C1128 C 0.03692 0.99489 0.12467 0.0
C1129 C 0.03777 0.02782 0.15192 0.0
C1130 C 0.0294 0.05856 0.12254 0.0
H1131 H 0.23171 0.83713 0.38881 0.0
H1132 H 0.32664 0.77576 0.41246 0.0
H1133 H 0.32356 0.75557 0.31701 0.0
H1134 H 0.18756 0.77757 0.30123 0.0
H1135 H 0.1691 0.81144 0.25908 0.0
H1136 H 0.17884 0.8206 0.32928 0.0
H1137 H 0.2178 0.87315 0.30062 0.0
H1138 H 0.20823 0.86412 0.23027 0.0
H1139 H 0.25317 0.86606 0.25305 0.0
H1140 H 0.30893 0.74115 0.21801 0.0
H1141 H 0.28346 0.73314 0.12638 0.0
H1142 H 0.20145 0.80823 0.16706 0.0
C1143 C 0.25222 0.81982 0.37403 0.0
C1144 C 0.27944 0.80813 0.40864 0.0
C1145 C 0.30516 0.78476 0.38736 0.0
C1146 C 0.30384 0.77338 0.33292 0.0
C1147 C 0.27682 0.78579 0.29996 0.0
C1148 C 0.25156 0.80859 0.31982 0.0
C1149 C 0.22516 0.8181 0.2764 0.0
C1150 C 0.18797 0.80621 0.29247 0.0
C1151 C 0.22617 0.8577 0.26438 0.0
C1152 C 0.23923 0.79678 0.22905 0.0
C1153 C 0.26904 0.77829 0.24322 0.0
C1154 C 0.28577 0.75579 0.2064 0.0
C1155 C 0.27126 0.75163 0.15419 0.0
C1156 C 0.24032 0.76994 0.13915 0.0
C1157 C 0.22478 0.79337 0.17712 0.0
H1158 H 0.54116 0.99839 0.62905 0.0
H1159 H 0.46939 0.0864 0.64246 0.0
H1160 H 0.47882 0.09972 0.54481 0.0
H1161 H 0.60269 0.0396 0.53351 0.0
H1162 H 0.61052 0.99879 0.49787 0.0
H1163 H 0.59986 0.99846 0.56918 0.0
H1164 H 0.54779 0.95639 0.54964 0.0
H1165 H 0.55809 0.95677 0.47833 0.0
H1166 H 0.51474 0.96902 0.50111 0.0
H1167 H 0.49151 0.09853 0.44288 0.0
H1168 H 0.51025 0.08631 0.348 0.0
H1169 H 0.57549 1.00064 0.40443 0.0
C1170 C 0.52792 0.02083 0.61152 0.0
C1171 C 0.50458 0.04146 0.64276 0.0
C1172 C 0.48757 0.07056 0.6189 0.0
C1173 C 0.4927 0.07816 0.56361 0.0
C1174 C 0.51533 0.05668 0.53345 0.0
C1175 C 0.53307 0.02895 0.55694 0.0
C1176 C 0.55512 0.00911 0.51588 0.0
C1177 C 0.59437 0.01166 0.52996 0.0
C1178 C 0.5432 0.97056 0.51096 0.0
C1179 C 0.54655 0.02949 0.46515 0.0
C1180 C 0.52348 0.05678 0.47583 0.0
C1181 C 0.51008 0.07766 0.4343 0.0
C1182 C 0.52069 0.07048 0.38065 0.0
C1183 C 0.54468 0.04293 0.36932 0.0
C1184 C 0.55779 0.0224 0.41223 0.0
H1185 H 0.16611 0.3073 0.85859 0.0
H1186 H 0.22839 0.21929 0.91452 0.0
H1187 H 0.25163 0.2106 0.82124 0.0
H1188 H 0.1443 0.27275 0.72562 0.0
H1189 H 0.14846 0.31473 0.69274 0.0
H1190 H 0.1356 0.3127 0.76308 0.0
H1191 H 0.18736 0.35365 0.78931 0.0
H1192 H 0.20023 0.35594 0.71906 0.0
H1193 H 0.23141 0.34177 0.76946 0.0
H1194 H 0.26757 0.21162 0.7206 0.0
H1195 H 0.27944 0.22607 0.62419 0.0
H1196 H 0.20849 0.31493 0.6364 0.0
C1197 C 0.18439 0.286 0.85102 0.0
C1198 C 0.19525 0.26372 0.89348 0.0
C1199 C 0.21979 0.23661 0.88241 0.0
C1200 C 0.23293 0.23138 0.82957 0.0
C1201 C 0.22153 0.25374 0.78847 0.0
C1202 C 0.19811 0.28077 0.79883 0.0
C1203 C 0.19147 0.30242 0.7485 0.0
C1204 C 0.15265 0.30052 0.73149 0.0
C1205 C 0.20334 0.3407 0.75711 0.0
C1206 C 0.21481 0.28343 0.70809 0.0
C1207 C 0.23161 0.25513 0.73157 0.0
C1208 C 0.25455 0.23374 0.70188 0.0
C1209 C 0.26099 0.24197 0.64715 0.0
C1210 C 0.24491 0.27158 0.62306 0.0
C1211 C 0.22123 0.2922 0.65392 0.0
H1212 H 0.82665 0.22072 0.87683 0.0
H1213 H 0.74392 0.29552 0.91499 0.0
H1214 H 0.71908 0.28679 0.82315 0.0
H1215 H 0.8411 0.24945 0.74231 0.0
H1216 H 0.84975 0.20615 0.71529 0.0
H1217 H 0.85908 0.21584 0.78547 0.0
H1218 H 0.81966 0.16396 0.81523 0.0
H1219 H 0.81035 0.15396 0.7451 0.0
H1220 H 0.77481 0.16185 0.79203 0.0
H1221 H 0.70517 0.272 0.72454 0.0
H1222 H 0.70208 0.25086 0.62962 0.0
H1223 H 0.79641 0.18888 0.65515 0.0
C1224 C 0.80324 0.23527 0.86613 0.0
C1225 C 0.7873 0.25888 0.90346 0.0
C1226 C 0.75638 0.2769 0.88766 0.0
C1227 C 0.74222 0.27232 0.83533 0.0
C1228 C 0.75924 0.24961 0.79917 0.0
C1229 C 0.78898 0.23124 0.81408 0.0
C1230 C 0.80309 0.20935 0.76724 0.0
C1231 C 0.84046 0.22091 0.75167 0.0
C1232 C 0.80189 0.16995 0.78072 0.0
C1233 C 0.77686 0.21854 0.72335 0.0
C1234 C 0.75165 0.24164 0.74253 0.0
C1235 C 0.7248 0.25391 0.70915 0.0
C1236 C 0.72348 0.242 0.655 0.0
C1237 C 0.74899 0.21816 0.63442 0.0
C1238 C 0.77612 0.20664 0.66942 0.0
H1239 H 0.7251 0.75867 0.3503 0.0
H1240 H 0.81418 0.71768 0.4395 0.0
H1241 H 0.8493 0.71686 0.35477 0.0
H1242 H 0.73781 0.70922 0.22828 0.0
H1243 H 0.72525 0.74443 0.18366 0.0
H1244 H 0.70735 0.74245 0.2513 0.0
H1245 H 0.72994 0.80541 0.27134 0.0
H1246 H 0.74762 0.80772 0.20359 0.0
H1247 H 0.77575 0.8154 0.26131 0.0
H1248 H 0.87336 0.7173 0.25922 0.0
H1249 H 0.88683 0.72392 0.16205 0.0
H1250 H 0.78298 0.76801 0.13556 0.0
C1251 C 0.75205 0.74962 0.35196 0.0
C1252 C 0.76695 0.73813 0.40143 0.0
C1253 C 0.80238 0.72683 0.40214 0.0
C1254 C 0.82241 0.72607 0.35417 0.0
C1255 C 0.80674 0.73709 0.30594 0.0
C1256 C 0.77251 0.74912 0.30462 0.0
C1257 C 0.7621 0.76004 0.24767 0.0
C1258 C 0.73131 0.73769 0.22649 0.0
C1259 C 0.75335 0.79948 0.24589 0.0
C1260 C 0.79569 0.75188 0.21693 0.0
C1261 C 0.82101 0.73849 0.25127 0.0
C1262 C 0.8539 0.72827 0.23214 0.0
C1263 C 0.86136 0.73237 0.17672 0.0
C1264 C 0.83624 0.74701 0.1407 0.0
C1265 C 0.80281 0.75654 0.16147 0.0
H1266 H 0.5423 0.53273 0.61726 0.0
H1267 H 0.50811 0.42977 0.67107 0.0
H1268 H 0.48327 0.41808 0.58027 0.0
H1269 H 0.46833 0.55123 0.5308 0.0
H1270 H 0.49435 0.57255 0.47949 0.0
H1271 H 0.50851 0.57331 0.54927 0.0
H1272 H 0.56817 0.54613 0.52073 0.0
H1273 H 0.55414 0.54513 0.45087 0.0
H1274 H 0.56884 0.50533 0.48307 0.0
H1275 H 0.46265 0.41708 0.48286 0.0
H1276 H 0.44687 0.42734 0.38701 0.0
H1277 H 0.49607 0.53006 0.3948 0.0
C1278 C 0.52979 0.50759 0.6101 0.0
C1279 C 0.52718 0.48225 0.65202 0.0
C1280 C 0.51001 0.44997 0.64047 0.0
C1281 C 0.49606 0.44292 0.58868 0.0
C1282 C 0.49948 0.46829 0.54839 0.0
C1283 C 0.51588 0.50001 0.55848 0.0
C1284 C 0.51625 0.52271 0.50791 0.0
C1285 C 0.49563 0.55697 0.51745 0.0
C1286 C 0.5541 0.53026 0.48957 0.0
C1287 C 0.49752 0.49878 0.46773 0.0
C1288 C 0.48802 0.46754 0.49203 0.0
C1289 C 0.46995 0.44146 0.46351 0.0
C1290 C 0.46101 0.44758 0.40905 0.0
C1291 C 0.47017 0.47951 0.3832 0.0
C1292 C 0.48903 0.50524 0.41308 0.0
H1293 H 0.96101 0.42075 0.91904 0.0
H1294 H 0.0487 0.48988 0.88362 0.0
H1295 H 0.04673 0.51255 0.97765 0.0
H1296 H 0.91434 0.47964 1.00846 0.0
H1297 H 0.90064 0.44539 0.05404 0.0
H1298 H 0.90814 0.43546 0.98335 0.0
H1299 H 0.95248 0.38688 1.0102 0.0
H1300 H 0.94513 0.3967 0.08096 0.0
H1301 H 0.98903 0.39786 0.0536 0.0
H1302 H 0.03559 0.52737 0.07626 0.0
H1303 H 0.01573 0.53365 0.17115 0.0
H1304 H 0.93769 0.45223 0.14376 0.0
C1305 C 0.98 0.4405 0.93096 0.0
C1306 C 1.00495 0.45355 0.89344 0.0
C1307 C 0.02889 0.47983 0.91097 0.0
C1308 C 0.02818 0.4927 0.96455 0.0
C1309 C 1.00348 0.479 1.00042 0.0
C1310 C 0.97982 0.45348 0.98436 0.0
C1311 C 0.95618 0.44285 0.03105 0.0
C1312 C 0.91754 0.45135 1.01846 0.0
C1313 C 0.96101 0.40376 0.04475 0.0
C1314 C 0.9703 0.46634 0.07592 0.0
C1315 C 0.99752 0.48704 0.0574 0.0
C1316 C 0.01444 0.51111 0.09128 0.0
C1317 C 1.00315 0.51424 0.1454 0.0
C1318 C 0.97525 0.49329 0.16548 0.0
C1319 C 0.95886 0.46892 0.12991 0.0
loop_
_geom_bond_atom_site_label_1
_geom_bond_atom_site_label_2
_geom_bond_distance
_geom_bond_site_symmetry_2
_ccdc_geom_bond_type
Tb0 N29 2.619 . S
Tb0 N35 2.547 1_655 S
Tb0 O44 2.460 1_655 S
Tb0 O45 2.371 1_655 S
Tb0 O47 2.444 . S
Tb0 O48 2.289 1_645 S
Tb0 O52 2.367 1_545 S
Tb0 O55 2.416 . S
Tb0 C64 2.809 . S
C1 N2 1.379 1_655 S
C1 C4 1.416 . S
C1 C8 1.424 . S
N2 C1 1.379 1_455 S
N2 C5 1.334 . S
N2 Tb11 2.617 . S
C3 C5 1.390 . S
C3 C6 1.339 . S
C3 H23 0.930 . S
C4 C1 1.416 . S
C4 C6 1.416 1_655 S
C4 C10 1.448 . S
C5 N2 1.334 . S
C5 C3 1.390 . S
C5 H16 0.930 . S
C6 C3 1.339 . S
C6 C4 1.416 1_455 S
C6 H27 0.930 . S
C7 C8 1.413 . S
C7 C9 1.427 . S
C7 C13 1.416 . S
C8 C1 1.424 . S
C8 C7 1.413 . S
C8 N12 1.361 . S
C9 C7 1.427 . S
C9 C10 1.328 . S
C9 H24 0.929 . S
C10 C4 1.448 . S
C10 C9 1.328 . S
C10 H25 0.930 . S
Tb11 N2 2.617 . S
Tb11 N12 2.572 1_455 S
Tb11 O46 2.349 1_565 S
Tb11 O49 2.393 . S
Tb11 O50 2.465 1_455 S
Tb11 O51 2.387 1_455 S
Tb11 O53 2.428 . S
Tb11 O54 2.308 1_465 S
Tb11 C75 2.802 . S
N12 C8 1.361 . S
N12 Tb11 2.572 1_655 S
N12 C14 1.340 . S
C13 C7 1.416 . S
C13 C15 1.332 . S
C13 H21 0.931 . S
C14 N12 1.340 . S
C14 C15 1.407 . S
C14 H20 0.930 . S
C15 C13 1.332 . S
C15 C14 1.407 . S
C15 H17 0.929 . S
H16 C5 0.930 . S
H17 C15 0.929 . S
H18 C33 0.930 . S
H19 C40 0.929 . S
H20 C14 0.930 . S
H21 C13 0.931 . S
H22 C36 0.930 . S
H23 C3 0.930 . S
H24 C9 0.929 . S
H25 C10 0.930 . S
H26 C31 0.930 . S
H27 C6 0.930 . S
H28 C39 0.931 . S
N29 Tb0 2.619 . S
N29 C30 1.379 1_655 S
N29 C33 1.334 . S
C30 N29 1.379 1_455 S
C30 C32 1.416 . S
C30 C38 1.424 . S
C31 H26 0.930 . S
C31 C33 1.390 . S
C31 C34 1.339 . S
C32 C30 1.416 . S
C32 C34 1.416 1_455 S
C32 C65 1.448 . S
C33 H18 0.930 . S
C33 N29 1.334 . S
C33 C31 1.390 . S
C34 C31 1.339 . S
C34 C32 1.416 1_655 S
C34 H41 0.930 . S
N35 Tb0 2.547 1_455 S
N35 C36 1.340 . S
N35 C38 1.361 . S
C36 H22 0.930 . S
C36 N35 1.340 . S
C36 C40 1.407 . S
C37 C38 1.413 . S
C37 C39 1.416 . S
C37 C66 1.427 . S
C38 C30 1.424 . S
C38 N35 1.361 . S
C38 C37 1.413 . S
C39 H28 0.931 . S
C39 C37 1.416 . S
C39 C40 1.332 . S
C40 H19 0.929 . S
C40 C36 1.407 . S
C40 C39 1.332 . S
H41 C34 0.930 . S
H42 C65 0.930 . S
H43 C66 0.929 . S
O44 Tb0 2.460 1_455 S
O44 C64 1.264 1_455 S
O45 Tb0 2.371 1_455 S
O45 C56 1.264 . S
O46 Tb11 2.349 1_545 S
O46 C56 1.243 . S
O47 Tb0 2.444 . S
O47 C64 1.256 . S
O48 Tb0 2.289 1_465 S
O48 C63 1.266 . S
O49 Tb11 2.393 . S
O49 C63 1.248 . S
O50 Tb11 2.465 1_655 S
O50 C75 1.264 1_655 S
O51 Tb11 2.387 1_655 S
O51 C67 1.264 . S
O52 Tb0 2.367 1_565 S
O52 C67 1.243 . S
O53 Tb11 2.428 . S
O53 C75 1.256 . S
O54 Tb11 2.308 1_645 S
O54 C74 1.266 . S
O55 Tb0 2.416 . S
O55 C74 1.248 . S
C56 O45 1.264 . S
C56 O46 1.243 . S
C57 C60 1.399 . S
C57 C62 1.383 . S
C57 C64 1.496 . S
C58 C59 1.399 . S
C58 C62 1.389 . S
C59 C58 1.399 . S
C59 C61 1.380 . S
C59 H76 0.929 . S
C60 C57 1.399 . S
C60 C61 1.392 . S
C60 H77 0.929 . S
C61 C59 1.380 . S
C61 C60 1.392 . S
C61 H78 0.929 . S
C62 C57 1.383 . S
C62 C58 1.389 . S
C62 H79 0.931 1_645 S
C63 O48 1.266 . S
C63 O49 1.248 . S
C64 Tb0 2.809 . S
C64 O44 1.264 1_655 S
C64 O47 1.256 . S
C64 C57 1.496 . S
C65 C32 1.448 . S
C65 H42 0.930 . S
C65 C66 1.328 . S
C66 C37 1.427 . S
C66 H43 0.929 . S
C66 C65 1.328 . S
C67 O51 1.264 . S
C67 O52 1.243 . S
C68 C71 1.399 . S
C68 C72 1.383 . S
C68 C75 1.496 . S
C69 C70 1.399 . S
C69 C72 1.389 . S
C70 C69 1.399 . S
C70 C73 1.380 . S
C70 H80 0.929 . S
C71 C68 1.399 . S
C71 C73 1.392 . S
C71 H81 0.929 . S
C72 C68 1.383 . S
C72 C69 1.389 . S
C72 H82 0.931 1_465 S
C73 C70 1.380 . S
C73 C71 1.392 . S
C73 H83 0.929 . S
C74 O54 1.266 . S
C74 O55 1.248 . S
C75 Tb11 2.802 . S
C75 O50 1.264 1_455 S
C75 O53 1.256 . S
C75 C68 1.496 . S
H76 C59 0.929 . S
H77 C60 0.929 . S
H78 C61 0.929 . S
H79 C62 0.931 1_465 S
H80 C70 0.929 . S
H81 C71 0.929 . S
H82 C72 0.931 1_645 S
H83 C73 0.929 . S
Tb84 N113 2.617 . S
Tb84 N119 2.572 . S
Tb84 O128 2.465 . S
Tb84 O129 2.387 . S
Tb84 O131 2.428 . S
Tb84 O132 2.308 . S
Tb84 O136 2.349 . S
Tb84 O139 2.393 . S
Tb84 C148 2.802 . S
C85 N86 1.379 . S
C85 C88 1.416 . S
C85 C92 1.424 . S
N86 C85 1.379 . S
N86 C89 1.334 . S
N86 Tb95 2.617 . S
C87 C89 1.390 . S
C87 C90 1.339 . S
C87 H107 0.930 . S
C88 C85 1.416 . S
C88 C90 1.416 . S
C88 C94 1.448 . S
C89 N86 1.334 . S
C89 C87 1.390 . S
C89 H100 0.930 . S
C90 C87 1.339 . S
C90 C88 1.416 . S
C90 H111 0.930 . S
C91 C92 1.413 . S
C91 C93 1.427 . S
C91 C97 1.416 . S
C92 C85 1.424 . S
C92 C91 1.413 . S
C92 N96 1.361 . S
C93 C91 1.427 . S
C93 C94 1.328 . S
C93 H108 0.929 . S
C94 C88 1.448 . S
C94 C93 1.328 . S
C94 H109 0.930 . S
Tb95 N86 2.617 . S
Tb95 N96 2.572 . S
Tb95 O130 2.349 . S
Tb95 O133 2.393 . S
Tb95 O134 2.465 . S
Tb95 O135 2.387 . S
Tb95 O137 2.428 . S
Tb95 O138 2.308 . S
Tb95 C159 2.802 . S
N96 C92 1.361 . S
N96 Tb95 2.572 . S
N96 C98 1.340 . S
C97 C91 1.416 . S
C97 C99 1.332 . S
C97 H105 0.931 . S
C98 N96 1.340 . S
C98 C99 1.407 . S
C98 H104 0.930 . S
C99 C97 1.332 . S
C99 C98 1.407 . S
C99 H101 0.929 . S
H100 C89 0.930 . S
H101 C99 0.929 . S
H102 C117 0.930 . S
H103 C124 0.929 . S
H104 C98 0.930 . S
H105 C97 0.931 . S
H106 C120 0.930 . S
H107 C87 0.930 . S
H108 C93 0.929 . S
H109 C94 0.930 . S
H110 C115 0.930 . S
H111 C90 0.930 . S
H112 C123 0.931 . S
N113 Tb84 2.617 . S
N113 C114 1.379 . S
N113 C117 1.334 . S
C114 N113 1.379 . S
C114 C116 1.416 . S
C114 C122 1.424 . S
C115 H110 0.930 . S
C115 C117 1.390 . S
C115 C118 1.339 . S
C116 C114 1.416 . S
C116 C118 1.416 . S
C116 C149 1.448 . S
C117 H102 0.930 . S
C117 N113 1.334 . S
C117 C115 1.390 . S
C118 C115 1.339 . S
C118 C116 1.416 . S
C118 H125 0.930 . S
N119 Tb84 2.572 . S
N119 C120 1.340 . S
N119 C122 1.361 . S
C120 H106 0.930 . S
C120 N119 1.340 . S
C120 C124 1.407 . S
C121 C122 1.413 . S
C121 C123 1.416 . S
C121 C150 1.427 . S
C122 C114 1.424 . S
C122 N119 1.361 . S
C122 C121 1.413 . S
C123 H112 0.931 . S
C123 C121 1.416 . S
C123 C124 1.332 . S
C124 H103 0.929 . S
C124 C120 1.407 . S
C124 C123 1.332 . S
H125 C118 0.930 . S
H126 C149 0.930 . S
H127 C150 0.929 . S
O128 Tb84 2.465 . S
O128 C148 1.264 . S
O129 Tb84 2.387 . S
O129 C140 1.264 . S
O130 Tb95 2.349 . S
O130 C140 1.243 . S
O131 Tb84 2.428 . S
O131 C148 1.256 . S
O132 Tb84 2.308 . S
O132 C147 1.266 . S
O133 Tb95 2.393 . S
O133 C147 1.248 . S
O134 Tb95 2.465 . S
O134 C159 1.264 . S
O135 Tb95 2.387 . S
O135 C151 1.264 . S
O136 Tb84 2.349 . S
O136 C151 1.243 . S
O137 Tb95 2.428 . S
O137 C159 1.256 . S
O138 Tb95 2.308 . S
O138 C158 1.266 . S
O139 Tb84 2.393 . S
O139 C158 1.248 . S
C140 O129 1.264 . S
C140 O130 1.243 . S
C141 C144 1.399 1_556 S
C141 C146 1.383 1_556 S
C141 C148 1.496 . S
C142 C143 1.399 . S
C142 C146 1.389 . S
C143 C142 1.399 . S
C143 C145 1.380 . S
C143 H160 0.929 . S
C144 C141 1.399 1_554 S
C144 C145 1.392 . S
C144 H161 0.929 1_554 S
C145 C143 1.380 . S
C145 C144 1.392 . S
C145 H162 0.929 . S
C146 C141 1.383 1_554 S
C146 C142 1.389 . S
C146 H163 0.935 . S
C147 O132 1.266 . S
C147 O133 1.248 . S
C148 Tb84 2.802 . S
C148 O128 1.264 . S
C148 O131 1.256 . S
C148 C141 1.496 . S
C149 C116 1.448 . S
C149 H126 0.930 . S
C149 C150 1.328 . S
C150 C121 1.427 . S
C150 H127 0.929 . S
C150 C149 1.328 . S
C151 O135 1.264 . S
C151 O136 1.243 . S
C152 C155 1.399 . S
C152 C156 1.383 . S
C152 C159 1.496 . S
C153 C154 1.399 . S
C153 C156 1.389 . S
C154 C153 1.399 . S
C154 C157 1.380 . S
C154 H164 0.929 . S
C155 C152 1.399 . S
C155 C157 1.392 . S
C155 H165 0.929 . S
C156 C152 1.383 . S
C156 C153 1.389 . S
C156 H166 0.931 . S
C157 C154 1.380 . S
C157 C155 1.392 . S
C157 H167 0.929 . S
C158 O138 1.266 . S
C158 O139 1.248 . S
C159 Tb95 2.802 . S
C159 O134 1.264 . S
C159 O137 1.256 . S
C159 C152 1.496 . S
H160 C143 0.929 . S
H161 C144 0.929 1_556 S
H162 C145 0.929 . S
H163 C146 0.935 . S
H164 C154 0.929 . S
H165 C155 0.929 . S
H166 C156 0.931 . S
H167 C157 0.929 . S
Tb168 N197 2.617 . S
Tb168 N203 2.572 . S
Tb168 O212 2.465 . S
Tb168 O213 2.387 1_554 S
Tb168 O215 2.428 . S
Tb168 O216 2.308 1_565 S
Tb168 O220 2.349 1_565 S
Tb168 O223 2.393 . S
Tb168 C232 2.802 . S
C169 N170 1.379 . S
C169 C172 1.416 . S
C169 C176 1.424 . S
N170 C169 1.379 . S
N170 C173 1.334 . S
N170 Tb179 2.617 . S
C171 C173 1.390 . S
C171 C174 1.339 . S
C171 H191 0.930 . S
C172 C169 1.416 . S
C172 C174 1.416 . S
C172 C178 1.448 . S
C173 N170 1.334 . S
C173 C171 1.390 . S
C173 H184 0.930 . S
C174 C171 1.339 . S
C174 C172 1.416 . S
C174 H195 0.930 . S
C175 C176 1.413 . S
C175 C177 1.427 . S
C175 C181 1.416 . S
C176 C169 1.424 . S
C176 C175 1.413 . S
C176 N180 1.361 . S
C177 C175 1.427 . S
C177 C178 1.328 . S
C177 H192 0.929 . S
C178 C172 1.448 . S
C178 C177 1.328 . S
C178 H193 0.930 . S
Tb179 N170 2.617 . S
Tb179 N180 2.572 . S
Tb179 O214 2.349 1_545 S
Tb179 O217 2.393 . S
Tb179 O218 2.465 . S
Tb179 O219 2.387 1_556 S
Tb179 O221 2.428 . S
Tb179 O222 2.308 1_545 S
Tb179 C243 2.802 . S
N180 C176 1.361 . S
N180 Tb179 2.572 . S
N180 C182 1.340 . S
C181 C175 1.416 . S
C181 C183 1.332 . S
C181 H189 0.931 . S
C182 N180 1.340 . S
C182 C183 1.407 . S
C182 H188 0.930 . S
C183 C181 1.332 . S
C183 C182 1.407 . S
C183 H185 0.929 . S
H184 C173 0.930 . S
H185 C183 0.929 . S
H186 C201 0.930 . S
H187 C208 0.929 . S
H188 C182 0.930 . S
H189 C181 0.931 . S
H190 C204 0.930 . S
H191 C171 0.930 . S
H192 C177 0.929 . S
H193 C178 0.930 . S
H194 C199 0.930 . S
H195 C174 0.930 . S
H196 C207 0.931 . S
N197 Tb168 2.617 . S
N197 C198 1.379 . S
N197 C201 1.334 . S
C198 N197 1.379 . S
C198 C200 1.416 . S
C198 C206 1.424 . S
C199 H194 0.930 . S
C199 C201 1.390 . S
C199 C202 1.339 . S
C200 C198 1.416 . S
C200 C202 1.416 . S
C200 C233 1.448 . S
C201 H186 0.930 . S
C201 N197 1.334 . S
C201 C199 1.390 . S
C202 C199 1.339 . S
C202 C200 1.416 . S
C202 H209 0.930 . S
N203 Tb168 2.572 . S
N203 C204 1.340 . S
N203 C206 1.361 . S
C204 H190 0.930 . S
C204 N203 1.340 . S
C204 C208 1.407 . S
C205 C206 1.413 . S
C205 C207 1.416 . S
C205 C234 1.427 . S
C206 C198 1.424 . S
C206 N203 1.361 . S
C206 C205 1.413 . S
C207 H196 0.931 . S
C207 C205 1.416 . S
C207 C208 1.332 . S
C208 H187 0.929 . S
C208 C204 1.407 . S
C208 C207 1.332 . S
H209 C202 0.930 . S
H210 C233 0.930 . S
H211 C234 0.929 . S
O212 Tb168 2.465 . S
O212 C232 1.264 . S
O213 Tb168 2.387 1_556 S
O213 C224 1.264 . S
O214 Tb179 2.349 1_565 S
O214 C224 1.243 . S
O215 Tb168 2.428 . S
O215 C232 1.256 . S
O216 Tb168 2.308 1_545 S
O216 C231 1.266 . S
O217 Tb179 2.393 . S
O217 C231 1.248 1_556 S
O218 Tb179 2.465 . S
O218 C243 1.264 . S
O219 Tb179 2.387 1_554 S
O219 C235 1.264 . S
O220 Tb168 2.349 1_545 S
O220 C235 1.243 . S
O221 Tb179 2.428 . S
O221 C243 1.256 . S
O222 Tb179 2.308 1_565 S
O222 C242 1.266 . S
O223 Tb168 2.393 . S
O223 C242 1.248 1_554 S
C224 O213 1.264 . S
C224 O214 1.243 . S
C225 C228 1.399 . S
C225 C230 1.383 . S
C225 C232 1.496 . S
C226 C227 1.399 . S
C226 C230 1.389 . S
C227 C226 1.399 . S
C227 C229 1.380 . S
C227 H244 0.929 . S
C228 C225 1.399 . S
C228 C229 1.392 . S
C228 H245 0.929 . S
C229 C227 1.380 . S
C229 C228 1.392 . S
C229 H246 0.929 . S
C230 C225 1.383 . S
C230 C226 1.389 . S
C230 H247 0.931 1_565 S
C231 O216 1.266 . S
C231 O217 1.248 1_554 S
C232 Tb168 2.802 . S
C232 O212 1.264 . S
C232 O215 1.256 . S
C232 C225 1.496 . S
C233 C200 1.448 . S
C233 H210 0.930 . S
C233 C234 1.328 . S
C234 C205 1.427 . S
C234 H211 0.929 . S
C234 C233 1.328 . S
C235 O219 1.264 . S
C235 O220 1.243 . S
C236 C239 1.399 . S
C236 C240 1.383 . S
C236 C243 1.496 . S
C237 C238 1.399 . S
C237 C240 1.389 . S
C238 C237 1.399 . S
C238 C241 1.380 . S
C238 H248 0.929 . S
C239 C236 1.399 . S
C239 C241 1.392 . S
C239 H249 0.929 . S
C240 C236 1.383 . S
C240 C237 1.389 . S
C240 H250 0.931 1_545 S
C241 C238 1.380 . S
C241 C239 1.392 . S
C241 H251 0.929 . S
C242 O222 1.266 . S
C242 O223 1.248 1_556 S
C243 Tb179 2.802 . S
C243 O218 1.264 . S
C243 O221 1.256 . S
C243 C236 1.496 . S
H244 C227 0.929 . S
H245 C228 0.929 . S
H246 C229 0.929 . S
H247 C230 0.931 1_545 S
H248 C238 0.929 . S
H249 C239 0.929 . S
H250 C240 0.931 1_565 S
H251 C241 0.929 . S
Tb252 N281 2.617 . S
Tb252 N287 2.572 . S
Tb252 O296 2.465 . S
Tb252 O297 2.387 . S
Tb252 O299 2.428 . S
Tb252 O300 2.308 . S
Tb252 O304 2.349 . S
Tb252 O307 2.393 . S
Tb252 C316 2.802 . S
C253 N254 1.379 . S
C253 C256 1.416 . S
C253 C260 1.424 . S
N254 C253 1.379 . S
N254 C257 1.334 . S
N254 Tb263 2.617 . S
C255 C257 1.390 . S
C255 C258 1.339 . S
C255 H275 0.930 . S
C256 C253 1.416 . S
C256 C258 1.416 . S
C256 C262 1.448 . S
C257 N254 1.334 . S
C257 C255 1.390 . S
C257 H268 0.930 . S
C258 C255 1.339 . S
C258 C256 1.416 . S
C258 H279 0.930 . S
C259 C260 1.413 . S
C259 C261 1.427 . S
C259 C265 1.416 . S
C260 C253 1.424 . S
C260 C259 1.413 . S
C260 N264 1.361 . S
C261 C259 1.427 . S
C261 C262 1.328 . S
C261 H276 0.929 . S
C262 C256 1.448 . S
C262 C261 1.328 . S
C262 H277 0.930 . S
Tb263 N254 2.617 . S
Tb263 N264 2.572 . S
Tb263 O298 2.349 . S
Tb263 O301 2.393 . S
Tb263 O302 2.465 . S
Tb263 O303 2.387 . S
Tb263 O305 2.428 . S
Tb263 O306 2.308 . S
Tb263 C327 2.802 . S
N264 C260 1.361 . S
N264 Tb263 2.572 . S
N264 C266 1.340 . S
C265 C259 1.416 . S
C265 C267 1.332 . S
C265 H273 0.931 . S
C266 N264 1.340 . S
C266 C267 1.407 . S
C266 H272 0.930 . S
C267 C265 1.332 . S
C267 C266 1.407 . S
C267 H269 0.929 . S
H268 C257 0.930 . S
H269 C267 0.929 . S
H270 C285 0.930 . S
H271 C292 0.929 . S
H272 C266 0.930 . S
H273 C265 0.931 . S
H274 C288 0.930 . S
H275 C255 0.930 . S
H276 C261 0.929 . S
H277 C262 0.930 . S
H278 C283 0.930 . S
H279 C258 0.930 . S
H280 C291 0.931 . S
N281 Tb252 2.617 . S
N281 C282 1.379 . S
N281 C285 1.334 . S
C282 N281 1.379 . S
C282 C284 1.416 . S
C282 C290 1.424 . S
C283 H278 0.930 . S
C283 C285 1.390 . S
C283 C286 1.339 . S
C284 C282 1.416 . S
C284 C286 1.416 . S
C284 C317 1.448 . S
C285 H270 0.930 . S
C285 N281 1.334 . S
C285 C283 1.390 . S
C286 C283 1.339 . S
C286 C284 1.416 . S
C286 H293 0.930 . S
N287 Tb252 2.572 . S
N287 C288 1.340 . S
N287 C290 1.361 . S
C288 H274 0.930 . S
C288 N287 1.340 . S
C288 C292 1.407 . S
C289 C290 1.413 . S
C289 C291 1.416 . S
C289 C318 1.427 . S
C290 C282 1.424 . S
C290 N287 1.361 . S
C290 C289 1.413 . S
C291 H280 0.931 . S
C291 C289 1.416 . S
C291 C292 1.332 . S
C292 H271 0.929 . S
C292 C288 1.407 . S
C292 C291 1.332 . S
H293 C286 0.930 . S
H294 C317 0.930 . S
H295 C318 0.929 . S
O296 Tb252 2.465 . S
O296 C316 1.264 . S
O297 Tb252 2.387 . S
O297 C308 1.264 . S
O298 Tb263 2.349 . S
O298 C308 1.243 . S
O299 Tb252 2.428 . S
O299 C316 1.256 . S
O300 Tb252 2.308 . S
O300 C315 1.266 . S
O301 Tb263 2.393 . S
O301 C315 1.248 . S
O302 Tb263 2.465 . S
O302 C327 1.264 . S
O303 Tb263 2.387 . S
O303 C319 1.264 . S
O304 Tb252 2.349 . S
O304 C319 1.243 . S
O305 Tb263 2.428 . S
O305 C327 1.256 . S
O306 Tb263 2.308 . S
O306 C326 1.266 . S
O307 Tb252 2.393 . S
O307 C326 1.248 . S
C308 O297 1.264 . S
C308 O298 1.243 . S
C309 C312 1.399 1_554 S
C309 C314 1.383 1_554 S
C309 C316 1.496 . S
C310 C311 1.399 . S
C310 C314 1.389 . S
C311 C310 1.399 . S
C311 C313 1.380 . S
C311 H328 0.929 . S
C312 C309 1.399 1_556 S
C312 C313 1.392 . S
C312 H329 0.929 1_556 S
C313 C311 1.380 . S
C313 C312 1.392 . S
C313 H330 0.929 . S
C314 C309 1.383 1_556 S
C314 C310 1.389 . S
C314 H331 0.935 . S
C315 O300 1.266 . S
C315 O301 1.248 . S
C316 Tb252 2.802 . S
C316 O296 1.264 . S
C316 O299 1.256 . S
C316 C309 1.496 . S
C317 C284 1.448 . S
C317 H294 0.930 . S
C317 C318 1.328 . S
C318 C289 1.427 . S
C318 H295 0.929 . S
C318 C317 1.328 . S
C319 O303 1.264 . S
C319 O304 1.243 . S
C320 C323 1.399 . S
C320 C324 1.383 . S
C320 C327 1.496 . S
C321 C322 1.399 . S
C321 C324 1.389 . S
C322 C321 1.399 . S
C322 C325 1.380 . S
C322 H332 0.929 . S
C323 C320 1.399 . S
C323 C325 1.392 . S
C323 H333 0.929 . S
C324 C320 1.383 . S
C324 C321 1.389 . S
C324 H334 0.931 . S
C325 C322 1.380 . S
C325 C323 1.392 . S
C325 H335 0.929 . S
C326 O306 1.266 . S
C326 O307 1.248 . S
C327 Tb263 2.802 . S
C327 O302 1.264 . S
C327 O305 1.256 . S
C327 C320 1.496 . S
H328 C311 0.929 . S
H329 C312 0.929 1_554 S
H330 C313 0.929 . S
H331 C314 0.935 . S
H332 C322 0.929 . S
H333 C323 0.929 . S
H334 C324 0.931 . S
H335 C325 0.929 . S
Tb336 N365 2.617 . S
Tb336 N371 2.572 . S
Tb336 O380 2.465 . S
Tb336 O381 2.387 . S
Tb336 O383 2.428 . S
Tb336 O384 2.308 . S
Tb336 O388 2.349 . S
Tb336 O391 2.393 . S
Tb336 C400 2.802 . S
C337 N338 1.379 . S
C337 C340 1.416 . S
C337 C344 1.424 . S
N338 C337 1.379 . S
N338 C341 1.334 . S
N338 Tb347 2.617 . S
C339 C341 1.390 . S
C339 C342 1.339 . S
C339 H359 0.930 . S
C340 C337 1.416 . S
C340 C342 1.416 . S
C340 C346 1.448 . S
C341 N338 1.334 . S
C341 C339 1.390 . S
C341 H352 0.930 . S
C342 C339 1.339 . S
C342 C340 1.416 . S
C342 H363 0.930 . S
C343 C344 1.413 . S
C343 C345 1.427 . S
C343 C349 1.416 . S
C344 C337 1.424 . S
C344 C343 1.413 . S
C344 N348 1.361 . S
C345 C343 1.427 . S
C345 C346 1.328 . S
C345 H360 0.929 . S
C346 C340 1.448 . S
C346 C345 1.328 . S
C346 H361 0.930 . S
Tb347 N338 2.617 . S
Tb347 N348 2.572 . S
Tb347 O382 2.349 . S
Tb347 O385 2.393 . S
Tb347 O386 2.465 . S
Tb347 O387 2.387 . S
Tb347 O389 2.428 . S
Tb347 O390 2.308 . S
Tb347 C411 2.802 . S
N348 C344 1.361 . S
N348 Tb347 2.572 . S
N348 C350 1.340 . S
C349 C343 1.416 . S
C349 C351 1.332 . S
C349 H357 0.931 . S
C350 N348 1.340 . S
C350 C351 1.407 . S
C350 H356 0.930 . S
C351 C349 1.332 . S
C351 C350 1.407 . S
C351 H353 0.929 . S
H352 C341 0.930 . S
H353 C351 0.929 . S
H354 C369 0.930 . S
H355 C376 0.929 . S
H356 C350 0.930 . S
H357 C349 0.931 . S
H358 C372 0.930 . S
H359 C339 0.930 . S
H360 C345 0.929 . S
H361 C346 0.930 . S
H362 C367 0.930 . S
H363 C342 0.930 . S
H364 C375 0.931 . S
N365 Tb336 2.617 . S
N365 C366 1.379 . S
N365 C369 1.334 . S
C366 N365 1.379 . S
C366 C368 1.416 . S
C366 C374 1.424 . S
C367 H362 0.930 . S
C367 C369 1.390 . S
C367 C370 1.339 . S
C368 C366 1.416 . S
C368 C370 1.416 . S
C368 C401 1.448 . S
C369 H354 0.930 . S
C369 N365 1.334 . S
C369 C367 1.390 . S
C370 C367 1.339 . S
C370 C368 1.416 . S
C370 H377 0.930 . S
N371 Tb336 2.572 . S
N371 C372 1.340 . S
N371 C374 1.361 . S
C372 H358 0.930 . S
C372 N371 1.340 . S
C372 C376 1.407 . S
C373 C374 1.413 . S
C373 C375 1.416 . S
C373 C402 1.427 . S
C374 C366 1.424 . S
C374 N371 1.361 . S
C374 C373 1.413 . S
C375 H364 0.931 . S
C375 C373 1.416 . S
C375 C376 1.332 . S
C376 H355 0.929 . S
C376 C372 1.407 . S
C376 C375 1.332 . S
H377 C370 0.930 . S
H378 C401 0.930 . S
H379 C402 0.929 . S
O380 Tb336 2.465 . S
O380 C400 1.264 . S
O381 Tb336 2.387 . S
O381 C392 1.264 . S
O382 Tb347 2.349 . S
O382 C392 1.243 . S
O383 Tb336 2.428 . S
O383 C400 1.256 . S
O384 Tb336 2.308 . S
O384 C399 1.266 . S
O385 Tb347 2.393 . S
O385 C399 1.248 . S
O386 Tb347 2.465 . S
O386 C411 1.264 . S
O387 Tb347 2.387 . S
O387 C403 1.264 . S
O388 Tb336 2.349 . S
O388 C403 1.243 . S
O389 Tb347 2.428 . S
O389 C411 1.256 . S
O390 Tb347 2.308 . S
O390 C410 1.266 . S
O391 Tb336 2.393 . S
O391 C410 1.248 . S
C392 O381 1.264 . S
C392 O382 1.243 . S
C393 C396 1.399 . S
C393 C398 1.383 . S
C393 C400 1.496 . S
C394 C395 1.399 . S
C394 C398 1.389 . S
C395 C394 1.399 . S
C395 C397 1.380 . S
C395 H412 0.929 . S
C396 C393 1.399 . S
C396 C397 1.392 . S
C396 H413 0.929 . S
C397 C395 1.380 . S
C397 C396 1.392 . S
C397 H414 0.929 . S
C398 C393 1.383 . S
C398 C394 1.389 . S
C398 H415 0.931 . S
C399 O384 1.266 . S
C399 O385 1.248 . S
C400 Tb336 2.802 . S
C400 O380 1.264 . S
C400 O383 1.256 . S
C400 C393 1.496 . S
C401 C368 1.448 . S
C401 H378 0.930 . S
C401 C402 1.328 . S
C402 C373 1.427 . S
C402 H379 0.929 . S
C402 C401 1.328 . S
C403 O387 1.264 . S
C403 O388 1.243 . S
C404 C407 1.399 1_554 S
C404 C408 1.383 1_554 S
C404 C411 1.496 . S
C405 C406 1.399 . S
C405 C408 1.389 . S
C406 C405 1.399 . S
C406 C409 1.380 . S
C406 H416 0.929 . S
C407 C404 1.399 1_556 S
C407 C409 1.392 . S
C407 H417 0.929 1_556 S
C408 C404 1.383 1_556 S
C408 C405 1.389 . S
C408 H418 0.935 . S
C409 C406 1.380 . S
C409 C407 1.392 . S
C409 H419 0.929 . S
C410 O390 1.266 . S
C410 O391 1.248 . S
C411 Tb347 2.802 . S
C411 O386 1.264 . S
C411 O389 1.256 . S
C411 C404 1.496 . S
H412 C395 0.929 . S
H413 C396 0.929 . S
H414 C397 0.929 . S
H415 C398 0.931 . S
H416 C406 0.929 . S
H417 C407 0.929 1_554 S
H418 C408 0.935 . S
H419 C409 0.929 . S
Tb420 N449 2.617 . S
Tb420 N455 2.572 . S
Tb420 O464 2.465 . S
Tb420 O465 2.387 . S
Tb420 O467 2.428 . S
Tb420 O468 2.308 . S
Tb420 O472 2.349 . S
Tb420 O475 2.393 . S
Tb420 C484 2.802 . S
C421 N422 1.379 . S
C421 C424 1.416 . S
C421 C428 1.424 . S
N422 C421 1.379 . S
N422 C425 1.334 . S
N422 Tb431 2.617 . S
C423 C425 1.390 . S
C423 C426 1.339 . S
C423 H443 0.930 . S
C424 C421 1.416 . S
C424 C426 1.416 . S
C424 C430 1.448 . S
C425 N422 1.334 . S
C425 C423 1.390 . S
C425 H436 0.930 . S
C426 C423 1.339 . S
C426 C424 1.416 . S
C426 H447 0.930 . S
C427 C428 1.413 . S
C427 C429 1.427 . S
C427 C433 1.416 . S
C428 C421 1.424 . S
C428 C427 1.413 . S
C428 N432 1.361 . S
C429 C427 1.427 . S
C429 C430 1.328 . S
C429 H444 0.929 . S
C430 C424 1.448 . S
C430 C429 1.328 . S
C430 H445 0.930 . S
Tb431 N422 2.617 . S
Tb431 N432 2.572 . S
Tb431 O466 2.349 . S
Tb431 O469 2.393 . S
Tb431 O470 2.465 . S
Tb431 O471 2.387 . S
Tb431 O473 2.428 . S
Tb431 O474 2.308 . S
Tb431 C495 2.802 . S
N432 C428 1.361 . S
N432 Tb431 2.572 . S
N432 C434 1.340 . S
C433 C427 1.416 . S
C433 C435 1.332 . S
C433 H441 0.931 . S
C434 N432 1.340 . S
C434 C435 1.407 . S
C434 H440 0.930 . S
C435 C433 1.332 . S
C435 C434 1.407 . S
C435 H437 0.929 . S
H436 C425 0.930 . S
H437 C435 0.929 . S
H438 C453 0.930 . S
H439 C460 0.929 . S
H440 C434 0.930 . S
H441 C433 0.931 . S
H442 C456 0.930 . S
H443 C423 0.930 . S
H444 C429 0.929 . S
H445 C430 0.930 . S
H446 C451 0.930 . S
H447 C426 0.930 . S
H448 C459 0.931 . S
N449 Tb420 2.617 . S
N449 C450 1.379 . S
N449 C453 1.334 . S
C450 N449 1.379 . S
C450 C452 1.416 . S
C450 C458 1.424 . S
C451 H446 0.930 . S
C451 C453 1.390 . S
C451 C454 1.339 . S
C452 C450 1.416 . S
C452 C454 1.416 . S
C452 C485 1.448 . S
C453 H438 0.930 . S
C453 N449 1.334 . S
C453 C451 1.390 . S
C454 C451 1.339 . S
C454 C452 1.416 . S
C454 H461 0.930 . S
N455 Tb420 2.572 . S
N455 C456 1.340 . S
N455 C458 1.361 . S
C456 H442 0.930 . S
C456 N455 1.340 . S
C456 C460 1.407 . S
C457 C458 1.413 . S
C457 C459 1.416 . S
C457 C486 1.427 . S
C458 C450 1.424 . S
C458 N455 1.361 . S
C458 C457 1.413 . S
C459 H448 0.931 . S
C459 C457 1.416 . S
C459 C460 1.332 . S
C460 H439 0.929 . S
C460 C456 1.407 . S
C460 C459 1.332 . S
H461 C454 0.930 . S
H462 C485 0.930 . S
H463 C486 0.929 . S
O464 Tb420 2.465 . S
O464 C484 1.264 . S
O465 Tb420 2.387 . S
O465 C476 1.264 . S
O466 Tb431 2.349 . S
O466 C476 1.243 . S
O467 Tb420 2.428 . S
O467 C484 1.256 . S
O468 Tb420 2.308 . S
O468 C483 1.266 . S
O469 Tb431 2.393 . S
O469 C483 1.248 . S
O470 Tb431 2.465 . S
O470 C495 1.264 . S
O471 Tb431 2.387 . S
O471 C487 1.264 . S
O472 Tb420 2.349 . S
O472 C487 1.243 . S
O473 Tb431 2.428 . S
O473 C495 1.256 . S
O474 Tb431 2.308 . S
O474 C494 1.266 . S
O475 Tb420 2.393 . S
O475 C494 1.248 . S
C476 O465 1.264 . S
C476 O466 1.243 . S
C477 C480 1.399 . S
C477 C482 1.383 . S
C477 C484 1.496 . S
C478 C479 1.399 . S
C478 C482 1.389 . S
C479 C478 1.399 . S
C479 C481 1.380 . S
C479 H496 0.929 . S
C480 C477 1.399 . S
C480 C481 1.392 . S
C480 H497 0.929 . S
C481 C479 1.380 . S
C481 C480 1.392 . S
C481 H498 0.929 . S
C482 C477 1.383 . S
C482 C478 1.389 . S
C482 H499 0.931 . S
C483 O468 1.266 . S
C483 O469 1.248 . S
C484 Tb420 2.802 . S
C484 O464 1.264 . S
C484 O467 1.256 . S
C484 C477 1.496 . S
C485 C452 1.448 . S
C485 H462 0.930 . S
C485 C486 1.328 . S
C486 C457 1.427 . S
C486 H463 0.929 . S
C486 C485 1.328 . S
C487 O471 1.264 . S
C487 O472 1.243 . S
C488 C491 1.399 1_556 S
C488 C492 1.383 1_556 S
C488 C495 1.496 . S
C489 C490 1.399 . S
C489 C492 1.389 . S
C490 C489 1.399 . S
C490 C493 1.380 . S
C490 H500 0.929 . S
C491 C488 1.399 1_554 S
C491 C493 1.392 . S
C491 H501 0.929 1_554 S
C492 C488 1.383 1_554 S
C492 C489 1.389 . S
C492 H502 0.935 . S
C493 C490 1.380 . S
C493 C491 1.392 . S
C493 H503 0.929 . S
C494 O474 1.266 . S
C494 O475 1.248 . S
C495 Tb431 2.802 . S
C495 O470 1.264 . S
C495 O473 1.256 . S
C495 C488 1.496 . S
H496 C479 0.929 . S
H497 C480 0.929 . S
H498 C481 0.929 . S
H499 C482 0.931 . S
H500 C490 0.929 . S
H501 C491 0.929 1_556 S
H502 C492 0.935 . S
H503 C493 0.929 . S
Tb504 N533 2.617 . S
Tb504 N539 2.572 . S
Tb504 O548 2.465 . S
Tb504 O549 2.387 1_554 S
Tb504 O551 2.428 . S
Tb504 O552 2.308 . S
Tb504 O556 2.349 . S
Tb504 O559 2.393 . S
Tb504 C568 2.802 . S
C505 N506 1.379 . S
C505 C508 1.416 . S
C505 C512 1.424 . S
N506 C505 1.379 . S
N506 C509 1.334 . S
N506 Tb515 2.617 . S
C507 C509 1.390 . S
C507 C510 1.339 . S
C507 H527 0.930 . S
C508 C505 1.416 . S
C508 C510 1.416 . S
C508 C514 1.448 . S
C509 N506 1.334 . S
C509 C507 1.390 . S
C509 H520 0.930 . S
C510 C507 1.339 . S
C510 C508 1.416 . S
C510 H531 0.930 . S
C511 C512 1.413 . S
C511 C513 1.427 . S
C511 C517 1.416 . S
C512 C505 1.424 . S
C512 C511 1.413 . S
C512 N516 1.361 . S
C513 C511 1.427 . S
C513 C514 1.328 . S
C513 H528 0.929 . S
C514 C508 1.448 . S
C514 C513 1.328 . S
C514 H529 0.930 . S
Tb515 N506 2.617 . S
Tb515 N516 2.572 . S
Tb515 O550 2.349 . S
Tb515 O553 2.393 . S
Tb515 O554 2.465 . S
Tb515 O555 2.387 1_556 S
Tb515 O557 2.428 . S
Tb515 O558 2.308 . S
Tb515 C579 2.802 . S
N516 C512 1.361 . S
N516 Tb515 2.572 . S
N516 C518 1.340 . S
C517 C511 1.416 . S
C517 C519 1.332 . S
C517 H525 0.931 . S
C518 N516 1.340 . S
C518 C519 1.407 . S
C518 H524 0.930 . S
C519 C517 1.332 . S
C519 C518 1.407 . S
C519 H521 0.929 . S
H520 C509 0.930 . S
H521 C519 0.929 . S
H522 C537 0.930 . S
H523 C544 0.929 . S
H524 C518 0.930 . S
H525 C517 0.931 . S
H526 C540 0.930 . S
H527 C507 0.930 . S
H528 C513 0.929 . S
H529 C514 0.930 . S
H530 C535 0.930 . S
H531 C510 0.930 . S
H532 C543 0.931 . S
N533 Tb504 2.617 . S
N533 C534 1.379 . S
N533 C537 1.334 . S
C534 N533 1.379 . S
C534 C536 1.416 . S
C534 C542 1.424 . S
C535 H530 0.930 . S
C535 C537 1.390 . S
C535 C538 1.339 . S
C536 C534 1.416 . S
C536 C538 1.416 . S
C536 C569 1.448 . S
C537 H522 0.930 . S
C537 N533 1.334 . S
C537 C535 1.390 . S
C538 C535 1.339 . S
C538 C536 1.416 . S
C538 H545 0.930 . S
N539 Tb504 2.572 . S
N539 C540 1.340 . S
N539 C542 1.361 . S
C540 H526 0.930 . S
C540 N539 1.340 . S
C540 C544 1.407 . S
C541 C542 1.413 . S
C541 C543 1.416 . S
C541 C570 1.427 . S
C542 C534 1.424 . S
C542 N539 1.361 . S
C542 C541 1.413 . S
C543 H532 0.931 . S
C543 C541 1.416 . S
C543 C544 1.332 . S
C544 H523 0.929 . S
C544 C540 1.407 . S
C544 C543 1.332 . S
H545 C538 0.930 . S
H546 C569 0.930 . S
H547 C570 0.929 . S
O548 Tb504 2.465 . S
O548 C568 1.264 . S
O549 Tb504 2.387 1_556 S
O549 C560 1.264 . S
O550 Tb515 2.349 . S
O550 C560 1.243 . S
O551 Tb504 2.428 . S
O551 C568 1.256 . S
O552 Tb504 2.308 . S
O552 C567 1.266 . S
O553 Tb515 2.393 . S
O553 C567 1.248 1_556 S
O554 Tb515 2.465 . S
O554 C579 1.264 . S
O555 Tb515 2.387 1_554 S
O555 C571 1.264 . S
O556 Tb504 2.349 . S
O556 C571 1.243 . S
O557 Tb515 2.428 . S
O557 C579 1.256 . S
O558 Tb515 2.308 . S
O558 C578 1.266 . S
O559 Tb504 2.393 . S
O559 C578 1.248 1_554 S
C560 O549 1.264 . S
C560 O550 1.243 . S
C561 C564 1.399 . S
C561 C566 1.383 . S
C561 C568 1.496 . S
C562 C563 1.399 . S
C562 C566 1.389 . S
C563 C562 1.399 . S
C563 C565 1.380 . S
C563 H580 0.929 . S
C564 C561 1.399 . S
C564 C565 1.392 . S
C564 H581 0.929 . S
C565 C563 1.380 . S
C565 C564 1.392 . S
C565 H582 0.929 . S
C566 C561 1.383 . S
C566 C562 1.389 . S
C566 H583 0.931 . S
C567 O552 1.266 . S
C567 O553 1.248 1_554 S
C568 Tb504 2.802 . S
C568 O548 1.264 . S
C568 O551 1.256 . S
C568 C561 1.496 . S
C569 C536 1.448 . S
C569 H546 0.930 . S
C569 C570 1.328 . S
C570 C541 1.427 . S
C570 H547 0.929 . S
C570 C569 1.328 . S
C571 O555 1.264 . S
C571 O556 1.243 . S
C572 C575 1.399 . S
C572 C576 1.383 . S
C572 C579 1.496 . S
C573 C574 1.399 . S
C573 C576 1.389 . S
C574 C573 1.399 . S
C574 C577 1.380 . S
C574 H584 0.929 . S
C575 C572 1.399 . S
C575 C577 1.392 . S
C575 H585 0.929 . S
C576 C572 1.383 . S
C576 C573 1.389 . S
C576 H586 0.931 . S
C577 C574 1.380 . S
C577 C575 1.392 . S
C577 H587 0.929 . S
C578 O558 1.266 . S
C578 O559 1.248 1_556 S
C579 Tb515 2.802 . S
C579 O554 1.264 . S
C579 O557 1.256 . S
C579 C572 1.496 . S
H580 C563 0.929 . S
H581 C564 0.929 . S
H582 C565 0.929 . S
H583 C566 0.931 . S
H584 C574 0.929 . S
H585 C575 0.929 . S
H586 C576 0.931 . S
H587 C577 0.929 . S
Tb588 N617 2.617 . S
Tb588 N623 2.572 1_455 S
Tb588 O632 2.465 1_455 S
Tb588 O633 2.387 1_455 S
Tb588 O635 2.428 . S
Tb588 O636 2.308 1_455 S
Tb588 O640 2.349 . S
Tb588 O643 2.393 . S
Tb588 C652 2.802 . S
C589 N590 1.379 1_455 S
C589 C592 1.416 . S
C589 C596 1.424 . S
N590 C589 1.379 1_655 S
N590 C593 1.334 . S
N590 Tb599 2.619 . S
C591 C593 1.390 . S
C591 C594 1.339 . S
C591 H611 0.930 . S
C592 C589 1.416 . S
C592 C594 1.416 1_455 S
C592 C598 1.448 . S
C593 N590 1.334 . S
C593 C591 1.390 . S
C593 H604 0.930 . S
C594 C591 1.339 . S
C594 C592 1.416 1_655 S
C594 H615 0.930 . S
C595 C596 1.413 . S
C595 C597 1.427 . S
C595 C601 1.416 . S
C596 C589 1.424 . S
C596 C595 1.413 . S
C596 N600 1.361 . S
C597 C595 1.427 . S
C597 C598 1.328 . S
C597 H612 0.929 . S
C598 C592 1.448 . S
C598 C597 1.328 . S
C598 H613 0.930 . S
Tb599 N590 2.619 . S
Tb599 N600 2.547 1_655 S
Tb599 O634 2.367 . S
Tb599 O637 2.416 . S
Tb599 O638 2.460 1_655 S
Tb599 O639 2.371 1_655 S
Tb599 O641 2.443 . S
Tb599 O642 2.289 1_655 S
Tb599 C663 2.808 . S
N600 C596 1.361 . S
N600 Tb599 2.547 1_455 S
N600 C602 1.340 . S
C601 C595 1.416 . S
C601 C603 1.332 . S
C601 H609 0.931 . S
C602 N600 1.340 . S
C602 C603 1.407 . S
C602 H608 0.930 . S
C603 C601 1.332 . S
C603 C602 1.407 . S
C603 H605 0.929 . S
H604 C593 0.930 . S
H605 C603 0.929 . S
H606 C621 0.930 . S
H607 C628 0.929 . S
H608 C602 0.930 . S
H609 C601 0.931 . S
H610 C624 0.930 . S
H611 C591 0.930 . S
H612 C597 0.929 . S
H613 C598 0.930 . S
H614 C619 0.930 . S
H615 C594 0.930 . S
H616 C627 0.931 . S
N617 Tb588 2.617 . S
N617 C618 1.379 1_455 S
N617 C621 1.334 . S
C618 N617 1.379 1_655 S
C618 C620 1.416 . S
C618 C626 1.424 . S
C619 H614 0.930 . S
C619 C621 1.390 . S
C619 C622 1.339 . S
C620 C618 1.416 . S
C620 C622 1.416 1_655 S
C620 C653 1.448 . S
C621 H606 0.930 . S
C621 N617 1.334 . S
C621 C619 1.390 . S
C622 C619 1.339 . S
C622 C620 1.416 1_455 S
C622 H629 0.930 . S
N623 Tb588 2.572 1_655 S
N623 C624 1.340 . S
N623 C626 1.361 . S
C624 H610 0.930 . S
C624 N623 1.340 . S
C624 C628 1.407 . S
C625 C626 1.413 . S
C625 C627 1.416 . S
C625 C654 1.427 . S
C626 C618 1.424 . S
C626 N623 1.361 . S
C626 C625 1.413 . S
C627 H616 0.931 . S
C627 C625 1.416 . S
C627 C628 1.332 . S
C628 H607 0.929 . S
C628 C624 1.407 . S
C628 C627 1.332 . S
H629 C622 0.930 . S
H630 C653 0.930 . S
H631 C654 0.929 . S
O632 Tb588 2.465 1_655 S
O632 C652 1.264 1_655 S
O633 Tb588 2.387 1_655 S
O633 C644 1.264 . S
O634 Tb599 2.367 . S
O634 C644 1.243 . S
O635 Tb588 2.428 . S
O635 C652 1.256 . S
O636 Tb588 2.308 1_655 S
O636 C651 1.266 . S
O637 Tb599 2.416 . S
O637 C651 1.248 . S
O638 Tb599 2.460 1_455 S
O638 C663 1.264 1_455 S
O639 Tb599 2.371 1_455 S
O639 C655 1.264 . S
O640 Tb588 2.349 . S
O640 C655 1.243 . S
O641 Tb599 2.443 . S
O641 C663 1.256 . S
O642 Tb599 2.289 1_455 S
O642 C662 1.266 . S
O643 Tb588 2.393 . S
O643 C662 1.248 . S
C644 O633 1.264 . S
C644 O634 1.243 . S
C645 C648 1.399 . S
C645 C650 1.383 . S
C645 C652 1.496 . S
C646 C647 1.399 . S
C646 C650 1.389 . S
C647 C646 1.399 . S
C647 C649 1.380 . S
C647 H664 0.929 . S
C648 C645 1.399 . S
C648 C649 1.392 . S
C648 H665 0.929 . S
C649 C647 1.380 . S
C649 C648 1.392 . S
C649 H666 0.929 . S
C650 C645 1.383 . S
C650 C646 1.389 . S
C650 H667 0.931 1_455 S
C651 O636 1.266 . S
C651 O637 1.248 . S
C652 Tb588 2.802 . S
C652 O632 1.264 1_455 S
C652 O635 1.256 . S
C652 C645 1.496 . S
C653 C620 1.448 . S
C653 H630 0.930 . S
C653 C654 1.328 . S
C654 C625 1.427 . S
C654 H631 0.929 . S
C654 C653 1.328 . S
C655 O639 1.264 . S
C655 O640 1.243 . S
C656 C659 1.399 . S
C656 C660 1.383 . S
C656 C663 1.496 . S
C657 C658 1.399 . S
C657 C660 1.389 . S
C658 C657 1.399 . S
C658 C661 1.380 . S
C658 H668 0.929 . S
C659 C656 1.399 . S
C659 C661 1.392 . S
C659 H669 0.929 . S
C660 C656 1.383 . S
C660 C657 1.389 . S
C660 H670 0.931 1_655 S
C661 C658 1.380 . S
C661 C659 1.392 . S
C661 H671 0.929 . S
C662 O642 1.266 . S
C662 O643 1.248 . S
C663 Tb599 2.808 . S
C663 O638 1.264 1_655 S
C663 O641 1.256 . S
C663 C656 1.496 . S
H664 C647 0.929 . S
H665 C648 0.929 . S
H666 C649 0.929 . S
H667 C650 0.931 1_655 S
H668 C658 0.929 . S
H669 C659 0.929 . S
H670 C660 0.931 1_455 S
H671 C661 0.929 . S
H672 C684 0.930 . S
H673 C686 0.930 . S
H674 C687 0.930 . S
H675 C691 0.959 . S
H676 C691 0.959 . S
H677 C691 0.961 . S
H678 C692 0.960 . S
H679 C692 0.961 . S
H680 C692 0.959 . S
H681 C695 0.929 . S
H682 C696 0.931 . S
H683 C698 0.930 . S
C684 H672 0.930 . S
C684 C685 1.399 . S
C684 C689 1.399 . S
C685 C684 1.399 . S
C685 C686 1.376 . S
C686 H673 0.930 . S
C686 C685 1.376 . S
C686 C687 1.388 . S
C687 H674 0.930 . S
C687 C686 1.388 . S
C687 C688 1.390 . S
C688 C687 1.390 . S
C688 C689 1.394 . S
C688 C694 1.465 . S
C689 C684 1.399 . S
C689 C688 1.394 . S
C689 C690 1.516 . S
C690 C689 1.516 . S
C690 C691 1.502 . S
C690 C692 1.561 . S
C690 C693 1.526 . S
C691 H675 0.959 . S
C691 H676 0.959 . S
C691 H677 0.961 . S
C691 C690 1.502 . S
C692 H678 0.960 . S
C692 H679 0.961 . S
C692 H680 0.959 . S
C692 C690 1.561 . S
C693 C690 1.526 . S
C693 C694 1.396 . S
C693 C698 1.390 . S
C694 C688 1.465 . S
C694 C693 1.396 . S
C694 C695 1.399 . S
C695 H681 0.929 . S
C695 C694 1.399 . S
C695 C696 1.385 . S
C696 H682 0.931 . S
C696 C695 1.385 . S
C696 C697 1.389 . S
C697 C696 1.389 . S
C697 C698 1.387 . S
C698 H683 0.930 . S
C698 C693 1.390 . S
C698 C697 1.387 . S
H699 C711 0.930 . S
H700 C713 0.930 . S
H701 C714 0.930 . S
H702 C718 0.959 . S
H703 C718 0.959 . S
H704 C718 0.961 . S
H705 C719 0.960 . S
H706 C719 0.961 . S
H707 C719 0.959 . S
H708 C722 0.929 . S
H709 C723 0.931 . S
H710 C725 0.930 . S
C711 H699 0.930 . S
C711 C712 1.399 . S
C711 C716 1.399 . S
C712 C711 1.399 . S
C712 C713 1.376 . S
C713 H700 0.930 . S
C713 C712 1.376 . S
C713 C714 1.388 . S
C714 H701 0.930 . S
C714 C713 1.388 . S
C714 C715 1.390 . S
C715 C714 1.390 . S
C715 C716 1.394 . S
C715 C721 1.465 . S
C716 C711 1.399 . S
C716 C715 1.394 . S
C716 C717 1.516 . S
C717 C716 1.516 . S
C717 C718 1.502 . S
C717 C719 1.561 . S
C717 C720 1.526 . S
C718 H702 0.959 . S
C718 H703 0.959 . S
C718 H704 0.961 . S
C718 C717 1.502 . S
C719 H705 0.960 . S
C719 H706 0.961 . S
C719 H707 0.959 . S
C719 C717 1.561 . S
C720 C717 1.526 . S
C720 C721 1.396 . S
C720 C725 1.390 . S
C721 C715 1.465 . S
C721 C720 1.396 . S
C721 C722 1.399 . S
C722 H708 0.929 . S
C722 C721 1.399 . S
C722 C723 1.385 . S
C723 H709 0.931 . S
C723 C722 1.385 . S
C723 C724 1.389 . S
C724 C723 1.389 . S
C724 C725 1.387 . S
C725 H710 0.930 . S
C725 C720 1.390 . S
C725 C724 1.387 . S
H726 C738 0.930 . S
H727 C740 0.930 . S
H728 C741 0.930 . S
H729 C745 0.959 . S
H730 C745 0.959 . S
H731 C745 0.961 . S
H732 C746 0.960 . S
H733 C746 0.961 . S
H734 C746 0.959 . S
H735 C749 0.929 . S
H736 C750 0.931 . S
H737 C752 0.930 . S
C738 H726 0.930 . S
C738 C739 1.399 . S
C738 C743 1.399 . S
C739 C738 1.399 . S
C739 C740 1.376 . S
C740 H727 0.930 . S
C740 C739 1.376 . S
C740 C741 1.388 . S
C741 H728 0.930 . S
C741 C740 1.388 . S
C741 C742 1.390 . S
C742 C741 1.390 . S
C742 C743 1.394 . S
C742 C748 1.465 . S
C743 C738 1.399 . S
C743 C742 1.394 . S
C743 C744 1.516 . S
C744 C743 1.516 . S
C744 C745 1.502 . S
C744 C746 1.561 . S
C744 C747 1.526 . S
C745 H729 0.959 . S
C745 H730 0.959 . S
C745 H731 0.961 . S
C745 C744 1.502 . S
C746 H732 0.960 . S
C746 H733 0.961 . S
C746 H734 0.959 . S
C746 C744 1.561 . S
C747 C744 1.526 . S
C747 C748 1.396 . S
C747 C752 1.390 . S
C748 C742 1.465 . S
C748 C747 1.396 . S
C748 C749 1.399 . S
C749 H735 0.929 . S
C749 C748 1.399 . S
C749 C750 1.385 . S
C750 H736 0.931 . S
C750 C749 1.385 . S
C750 C751 1.389 . S
C751 C750 1.389 . S
C751 C752 1.387 . S
C752 H737 0.930 . S
C752 C747 1.390 . S
C752 C751 1.387 . S
H753 C765 0.930 . S
H754 C767 0.930 1_556 S
H755 C768 0.930 . S
H756 C772 0.959 . S
H757 C772 0.959 . S
H758 C772 0.961 . S
H759 C773 0.960 . S
H760 C773 0.961 . S
H761 C773 0.959 . S
H762 C776 0.929 . S
H763 C777 0.931 . S
H764 C779 0.930 . S
C765 H753 0.930 . S
C765 C766 1.399 . S
C765 C770 1.399 . S
C766 C765 1.399 . S
C766 C767 1.376 . S
C767 H754 0.930 1_554 S
C767 C766 1.376 . S
C767 C768 1.388 . S
C768 H755 0.930 . S
C768 C767 1.388 . S
C768 C769 1.390 . S
C769 C768 1.390 . S
C769 C770 1.394 . S
C769 C775 1.465 . S
C770 C765 1.399 . S
C770 C769 1.394 . S
C770 C771 1.516 . S
C771 C770 1.516 . S
C771 C772 1.502 . S
C771 C773 1.561 . S
C771 C774 1.526 . S
C772 H756 0.959 . S
C772 H757 0.959 . S
C772 H758 0.961 . S
C772 C771 1.502 . S
C773 H759 0.960 . S
C773 H760 0.961 . S
C773 H761 0.959 . S
C773 C771 1.561 . S
C774 C771 1.526 . S
C774 C775 1.396 . S
C774 C779 1.390 . S
C775 C769 1.465 . S
C775 C774 1.396 . S
C775 C776 1.399 . S
C776 H762 0.929 . S
C776 C775 1.399 . S
C776 C777 1.385 . S
C777 H763 0.931 . S
C777 C776 1.385 . S
C777 C778 1.389 . S
C778 C777 1.389 . S
C778 C779 1.387 . S
C779 H764 0.930 . S
C779 C774 1.390 . S
C779 C778 1.387 . S
H780 C792 0.930 . S
H781 C794 0.930 . S
H782 C795 0.930 . S
H783 C799 0.959 . S
H784 C799 0.959 . S
H785 C799 0.961 . S
H786 C800 0.960 . S
H787 C800 0.961 . S
H788 C800 0.959 . S
H789 C803 0.929 . S
H790 C804 0.931 . S
H791 C806 0.930 . S
C792 H780 0.930 . S
C792 C793 1.399 . S
C792 C797 1.399 . S
C793 C792 1.399 . S
C793 C794 1.376 . S
C794 H781 0.930 . S
C794 C793 1.376 . S
C794 C795 1.388 . S
C795 H782 0.930 . S
C795 C794 1.388 . S
C795 C796 1.390 . S
C796 C795 1.390 . S
C796 C797 1.394 . S
C796 C802 1.465 . S
C797 C792 1.399 . S
C797 C796 1.394 . S
C797 C798 1.516 . S
C798 C797 1.516 . S
C798 C799 1.502 . S
C798 C800 1.561 . S
C798 C801 1.526 . S
C799 H783 0.959 . S
C799 H784 0.959 . S
C799 H785 0.961 . S
C799 C798 1.502 . S
C800 H786 0.960 . S
C800 H787 0.961 . S
C800 H788 0.959 . S
C800 C798 1.561 . S
C801 C798 1.526 . S
C801 C802 1.396 . S
C801 C806 1.390 . S
C802 C796 1.465 . S
C802 C801 1.396 . S
C802 C803 1.399 . S
C803 H789 0.929 . S
C803 C802 1.399 . S
C803 C804 1.385 . S
C804 H790 0.931 . S
C804 C803 1.385 . S
C804 C805 1.389 . S
C805 C804 1.389 . S
C805 C806 1.387 . S
C806 H791 0.930 . S
C806 C801 1.390 . S
C806 C805 1.387 . S
H807 C819 0.930 . S
H808 C821 0.930 . S
H809 C822 0.930 . S
H810 C826 0.959 . S
H811 C826 0.959 . S
H812 C826 0.961 . S
H813 C827 0.960 . S
H814 C827 0.961 . S
H815 C827 0.959 . S
H816 C830 0.929 . S
H817 C831 0.931 . S
H818 C833 0.930 . S
C819 H807 0.930 . S
C819 C820 1.399 . S
C819 C824 1.399 . S
C820 C819 1.399 . S
C820 C821 1.376 . S
C821 H808 0.930 . S
C821 C820 1.376 . S
C821 C822 1.388 . S
C822 H809 0.930 . S
C822 C821 1.388 . S
C822 C823 1.390 . S
C823 C822 1.390 . S
C823 C824 1.394 . S
C823 C829 1.465 . S
C824 C819 1.399 . S
C824 C823 1.394 . S
C824 C825 1.516 . S
C825 C824 1.516 . S
C825 C826 1.502 . S
C825 C827 1.561 . S
C825 C828 1.526 . S
C826 H810 0.959 . S
C826 H811 0.959 . S
C826 H812 0.961 . S
C826 C825 1.502 . S
C827 H813 0.960 . S
C827 H814 0.961 . S
C827 H815 0.959 . S
C827 C825 1.561 . S
C828 C825 1.526 . S
C828 C829 1.396 . S
C828 C833 1.390 . S
C829 C823 1.465 . S
C829 C828 1.396 . S
C829 C830 1.399 . S
C830 H816 0.929 . S
C830 C829 1.399 . S
C830 C831 1.385 . S
C831 H817 0.931 . S
C831 C830 1.385 . S
C831 C832 1.389 . S
C832 C831 1.389 . S
C832 C833 1.387 . S
C833 H818 0.930 . S
C833 C828 1.390 . S
C833 C832 1.387 . S
H834 C846 0.930 . S
H835 C848 0.930 . S
H836 C849 0.930 . S
H837 C853 0.959 . S
H838 C853 0.959 . S
H839 C853 0.961 . S
H840 C854 0.960 . S
H841 C854 0.961 . S
H842 C854 0.959 . S
H843 C857 0.929 . S
H844 C858 0.947 . S
H845 C860 0.930 . S
C846 H834 0.930 . S
C846 C847 1.399 . S
C846 C851 1.399 . S
C847 C846 1.399 . S
C847 C848 1.376 . S
C848 H835 0.930 . S
C848 C847 1.376 . S
C848 C849 1.388 . S
C849 H836 0.930 . S
C849 C848 1.388 . S
C849 C850 1.390 . S
C850 C849 1.390 . S
C850 C851 1.394 . S
C850 C856 1.465 . S
C851 C846 1.399 . S
C851 C850 1.394 . S
C851 C852 1.516 . S
C852 C851 1.516 . S
C852 C853 1.502 . S
C852 C854 1.561 . S
C852 C855 1.526 . S
C853 H837 0.959 . S
C853 H838 0.959 . S
C853 H839 0.961 . S
C853 C852 1.502 . S
C854 H840 0.960 . S
C854 H841 0.961 . S
C854 H842 0.959 . S
C854 C852 1.561 . S
C855 C852 1.526 . S
C855 C856 1.396 . S
C855 C860 1.390 . S
C856 C850 1.465 . S
C856 C855 1.396 . S
C856 C857 1.399 . S
C857 H843 0.929 . S
C857 C856 1.399 . S
C857 C858 1.385 . S
C858 H844 0.947 . S
C858 C857 1.385 . S
C858 C859 1.389 . S
C859 C858 1.389 . S
C859 C860 1.387 . S
C860 H845 0.930 . S
C860 C855 1.390 . S
C860 C859 1.387 . S
H861 C873 0.930 . S
H862 C875 0.930 . S
H863 C876 0.930 . S
H864 C880 0.959 . S
H865 C880 0.959 . S
H866 C880 0.961 . S
H867 C881 0.960 . S
H868 C881 0.961 . S
H869 C881 0.959 . S
H870 C884 0.929 . S
H871 C885 0.931 . S
H872 C887 0.930 . S
C873 H861 0.930 . S
C873 C874 1.399 . S
C873 C878 1.399 . S
C874 C873 1.399 . S
C874 C875 1.376 . S
C875 H862 0.930 . S
C875 C874 1.376 . S
C875 C876 1.388 . S
C876 H863 0.930 . S
C876 C875 1.388 . S
C876 C877 1.390 . S
C877 C876 1.390 . S
C877 C878 1.394 . S
C877 C883 1.465 . S
C878 C873 1.399 . S
C878 C877 1.394 . S
C878 C879 1.516 . S
C879 C878 1.516 . S
C879 C880 1.502 . S
C879 C881 1.561 . S
C879 C882 1.526 . S
C880 H864 0.959 . S
C880 H865 0.959 . S
C880 H866 0.961 . S
C880 C879 1.502 . S
C881 H867 0.960 . S
C881 H868 0.961 . S
C881 H869 0.959 . S
C881 C879 1.561 . S
C882 C879 1.526 . S
C882 C883 1.396 . S
C882 C887 1.390 . S
C883 C877 1.465 . S
C883 C882 1.396 . S
C883 C884 1.399 . S
C884 H870 0.929 . S
C884 C883 1.399 . S
C884 C885 1.385 . S
C885 H871 0.931 . S
C885 C884 1.385 . S
C885 C886 1.389 . S
C886 C885 1.389 . S
C886 C887 1.387 . S
C887 H872 0.930 . S
C887 C882 1.390 . S
C887 C886 1.387 . S
H888 C900 0.930 . S
H889 C902 0.930 . S
H890 C903 0.930 . S
H891 C907 0.959 . S
H892 C907 0.959 . S
H893 C907 0.961 . S
H894 C908 0.960 . S
H895 C908 0.961 . S
H896 C908 0.959 . S
H897 C911 0.929 . S
H898 C912 0.931 . S
H899 C914 0.930 . S
C900 H888 0.930 . S
C900 C901 1.399 . S
C900 C905 1.399 . S
C901 C900 1.399 . S
C901 C902 1.376 . S
C902 H889 0.930 . S
C902 C901 1.376 . S
C902 C903 1.388 . S
C903 H890 0.930 . S
C903 C902 1.388 . S
C903 C904 1.390 . S
C904 C903 1.390 . S
C904 C905 1.394 . S
C904 C910 1.465 . S
C905 C900 1.399 . S
C905 C904 1.394 . S
C905 C906 1.516 . S
C906 C905 1.516 . S
C906 C907 1.502 . S
C906 C908 1.561 . S
C906 C909 1.526 . S
C907 H891 0.959 . S
C907 H892 0.959 . S
C907 H893 0.961 . S
C907 C906 1.502 . S
C908 H894 0.960 . S
C908 H895 0.961 . S
C908 H896 0.959 . S
C908 C906 1.561 . S
C909 C906 1.526 . S
C909 C910 1.396 . S
C909 C914 1.390 . S
C910 C904 1.465 . S
C910 C909 1.396 . S
C910 C911 1.399 . S
C911 H897 0.929 . S
C911 C910 1.399 . S
C911 C912 1.385 . S
C912 H898 0.931 . S
C912 C911 1.385 . S
C912 C913 1.389 . S
C913 C912 1.389 . S
C913 C914 1.387 . S
C914 H899 0.930 . S
C914 C909 1.390 . S
C914 C913 1.387 . S
H915 C927 0.930 . S
H916 C929 0.930 . S
H917 C930 0.930 . S
H918 C934 0.959 . S
H919 C934 0.959 . S
H920 C934 0.961 . S
H921 C935 0.960 . S
H922 C935 0.961 1_556 S
H923 C935 0.959 . S
H924 C938 0.929 . S
H925 C939 0.931 . S
H926 C941 0.930 . S
C927 H915 0.930 . S
C927 C928 1.399 . S
C927 C932 1.399 . S
C928 C927 1.399 . S
C928 C929 1.376 . S
C929 H916 0.930 . S
C929 C928 1.376 . S
C929 C930 1.388 . S
C930 H917 0.930 . S
C930 C929 1.388 . S
C930 C931 1.390 . S
C931 C930 1.390 . S
C931 C932 1.394 . S
C931 C937 1.465 . S
C932 C927 1.399 . S
C932 C931 1.394 . S
C932 C933 1.516 . S
C933 C932 1.516 . S
C933 C934 1.502 . S
C933 C935 1.561 . S
C933 C936 1.526 . S
C934 H918 0.959 . S
C934 H919 0.959 . S
C934 H920 0.961 . S
C934 C933 1.502 . S
C935 H921 0.960 . S
C935 H922 0.961 1_554 S
C935 H923 0.959 . S
C935 C933 1.561 . S
C936 C933 1.526 . S
C936 C937 1.396 . S
C936 C941 1.390 . S
C937 C931 1.465 . S
C937 C936 1.396 . S
C937 C938 1.399 . S
C938 H924 0.929 . S
C938 C937 1.399 . S
C938 C939 1.385 . S
C939 H925 0.931 . S
C939 C938 1.385 . S
C939 C940 1.389 . S
C940 C939 1.389 . S
C940 C941 1.387 . S
C941 H926 0.930 . S
C941 C936 1.390 . S
C941 C940 1.387 . S
H942 C954 0.930 . S
H943 C956 0.930 . S
H944 C957 0.930 . S
H945 C961 0.959 . S
H946 C961 0.959 . S
H947 C961 0.961 . S
H948 C962 0.960 . S
H949 C962 0.961 . S
H950 C962 0.959 . S
H951 C965 0.929 . S
H952 C966 0.931 . S
H953 C968 0.930 . S
C954 H942 0.930 . S
C954 C955 1.399 . S
C954 C959 1.399 . S
C955 C954 1.399 . S
C955 C956 1.376 . S
C956 H943 0.930 . S
C956 C955 1.376 . S
C956 C957 1.388 . S
C957 H944 0.930 . S
C957 C956 1.388 . S
C957 C958 1.390 . S
C958 C957 1.390 . S
C958 C959 1.394 . S
C958 C964 1.465 . S
C959 C954 1.399 . S
C959 C958 1.394 . S
C959 C960 1.516 . S
C960 C959 1.516 . S
C960 C961 1.502 . S
C960 C962 1.561 . S
C960 C963 1.526 . S
C961 H945 0.959 . S
C961 H946 0.959 . S
C961 H947 0.961 . S
C961 C960 1.502 . S
C962 H948 0.960 . S
C962 H949 0.961 . S
C962 H950 0.959 . S
C962 C960 1.561 . S
C963 C960 1.526 . S
C963 C964 1.396 . S
C963 C968 1.390 . S
C964 C958 1.465 . S
C964 C963 1.396 . S
C964 C965 1.399 . S
C965 H951 0.929 . S
C965 C964 1.399 . S
C965 C966 1.385 . S
C966 H952 0.931 . S
C966 C965 1.385 . S
C966 C967 1.389 . S
C967 C966 1.389 . S
C967 C968 1.387 . S
C968 H953 0.930 . S
C968 C963 1.390 . S
C968 C967 1.387 . S
H969 C981 0.930 . S
H970 C983 0.930 . S
H971 C984 0.930 . S
H972 C988 0.959 . S
H973 C988 0.959 . S
H974 C988 0.961 . S
H975 C989 0.960 . S
H976 C989 0.961 . S
H977 C989 0.959 . S
H978 C992 0.929 . S
H979 C993 0.931 . S
H980 C995 0.930 . S
C981 H969 0.930 . S
C981 C982 1.399 . S
C981 C986 1.399 . S
C982 C981 1.399 . S
C982 C983 1.376 . S
C983 H970 0.930 . S
C983 C982 1.376 . S
C983 C984 1.388 . S
C984 H971 0.930 . S
C984 C983 1.388 . S
C984 C985 1.390 . S
C985 C984 1.390 . S
C985 C986 1.394 . S
C985 C991 1.465 . S
C986 C981 1.399 . S
C986 C985 1.394 . S
C986 C987 1.516 . S
C987 C986 1.516 . S
C987 C988 1.502 . S
C987 C989 1.561 . S
C987 C990 1.526 . S
C988 H972 0.959 . S
C988 H973 0.959 . S
C988 H974 0.961 . S
C988 C987 1.502 . S
C989 H975 0.960 . S
C989 H976 0.961 . S
C989 H977 0.959 . S
C989 C987 1.561 . S
C990 C987 1.526 . S
C990 C991 1.396 . S
C990 C995 1.390 . S
C991 C985 1.465 . S
C991 C990 1.396 . S
C991 C992 1.399 . S
C992 H978 0.929 . S
C992 C991 1.399 . S
C992 C993 1.385 . S
C993 H979 0.931 . S
C993 C992 1.385 . S
C993 C994 1.389 . S
C994 C993 1.389 . S
C994 C995 1.387 . S
C995 H980 0.930 . S
C995 C990 1.390 . S
C995 C994 1.387 . S
H996 C1008 0.930 . S
H997 C1010 0.930 . S
H998 C1011 0.930 . S
H999 C1015 0.959 . S
H1000 C1015 0.959 . S
H1001 C1015 0.961 . S
H1002 C1016 0.960 . S
H1003 C1016 0.961 . S
H1004 C1016 0.959 . S
H1005 C1019 0.929 . S
H1006 C1020 0.931 . S
H1007 C1022 0.930 . S
C1008 H996 0.930 . S
C1008 C1009 1.399 . S
C1008 C1013 1.399 . S
C1009 C1008 1.399 . S
C1009 C1010 1.376 . S
C1010 H997 0.930 . S
C1010 C1009 1.376 . S
C1010 C1011 1.388 . S
C1011 H998 0.930 . S
C1011 C1010 1.388 . S
C1011 C1012 1.390 . S
C1012 C1011 1.390 . S
C1012 C1013 1.394 . S
C1012 C1018 1.465 . S
C1013 C1008 1.399 . S
C1013 C1012 1.394 . S
C1013 C1014 1.516 . S
C1014 C1013 1.516 . S
C1014 C1015 1.502 . S
C1014 C1016 1.561 . S
C1014 C1017 1.526 . S
C1015 H999 0.959 . S
C1015 H1000 0.959 . S
C1015 H1001 0.961 . S
C1015 C1014 1.502 . S
C1016 H1002 0.960 . S
C1016 H1003 0.961 . S
C1016 H1004 0.959 . S
C1016 C1014 1.561 . S
C1017 C1014 1.526 . S
C1017 C1018 1.396 . S
C1017 C1022 1.390 . S
C1018 C1012 1.465 . S
C1018 C1017 1.396 . S
C1018 C1019 1.399 . S
C1019 H1005 0.929 . S
C1019 C1018 1.399 . S
C1019 C1020 1.385 . S
C1020 H1006 0.931 . S
C1020 C1019 1.385 . S
C1020 C1021 1.389 . S
C1021 C1020 1.389 . S
C1021 C1022 1.387 . S
C1022 H1007 0.930 . S
C1022 C1017 1.390 . S
C1022 C1021 1.387 . S
H1023 C1035 0.930 . S
H1024 C1037 0.930 . S
H1025 C1038 0.930 . S
H1026 C1042 0.959 . S
H1027 C1042 0.959 . S
H1028 C1042 0.961 . S
H1029 C1043 0.960 1_554 S
H1030 C1043 0.961 . S
H1031 C1043 0.959 . S
H1032 C1046 0.929 . S
H1033 C1047 0.931 . S
H1034 C1049 0.930 . S
C1035 H1023 0.930 . S
C1035 C1036 1.399 . S
C1035 C1040 1.399 . S
C1036 C1035 1.399 . S
C1036 C1037 1.376 . S
C1037 H1024 0.930 . S
C1037 C1036 1.376 . S
C1037 C1038 1.388 . S
C1038 H1025 0.930 . S
C1038 C1037 1.388 . S
C1038 C1039 1.390 . S
C1039 C1038 1.390 . S
C1039 C1040 1.394 . S
C1039 C1045 1.465 . S
C1040 C1035 1.399 . S
C1040 C1039 1.394 . S
C1040 C1041 1.516 . S
C1041 C1040 1.516 . S
C1041 C1042 1.502 . S
C1041 C1043 1.561 . S
C1041 C1044 1.526 . S
C1042 H1026 0.959 . S
C1042 H1027 0.959 . S
C1042 H1028 0.961 . S
C1042 C1041 1.502 . S
C1043 H1029 0.960 1_556 S
C1043 H1030 0.961 . S
C1043 H1031 0.959 . S
C1043 C1041 1.561 . S
C1044 C1041 1.526 . S
C1044 C1045 1.396 . S
C1044 C1049 1.390 . S
C1045 C1039 1.465 . S
C1045 C1044 1.396 . S
C1045 C1046 1.399 . S
C1046 H1032 0.929 . S
C1046 C1045 1.399 . S
C1046 C1047 1.385 . S
C1047 H1033 0.931 . S
C1047 C1046 1.385 . S
C1047 C1048 1.389 . S
C1048 C1047 1.389 . S
C1048 C1049 1.387 . S
C1049 H1034 0.930 . S
C1049 C1044 1.390 . S
C1049 C1048 1.387 . S
H1050 C1062 0.930 . S
H1051 C1064 0.930 . S
H1052 C1065 0.930 . S
H1053 C1069 0.959 . S
H1054 C1069 0.959 . S
H1055 C1069 0.961 . S
H1056 C1070 0.960 . S
H1057 C1070 0.961 . S
H1058 C1070 0.959 . S
H1059 C1073 0.929 . S
H1060 C1074 0.931 . S
H1061 C1076 0.930 . S
C1062 H1050 0.930 . S
C1062 C1063 1.399 . S
C1062 C1067 1.399 . S
C1063 C1062 1.399 . S
C1063 C1064 1.376 . S
C1064 H1051 0.930 . S
C1064 C1063 1.376 . S
C1064 C1065 1.388 . S
C1065 H1052 0.930 . S
C1065 C1064 1.388 . S
C1065 C1066 1.390 . S
C1066 C1065 1.390 . S
C1066 C1067 1.394 . S
C1066 C1072 1.465 . S
C1067 C1062 1.399 . S
C1067 C1066 1.394 . S
C1067 C1068 1.516 . S
C1068 C1067 1.516 . S
C1068 C1069 1.502 . S
C1068 C1070 1.561 . S
C1068 C1071 1.526 . S
C1069 H1053 0.959 . S
C1069 H1054 0.959 . S
C1069 H1055 0.961 . S
C1069 C1068 1.502 . S
C1070 H1056 0.960 . S
C1070 H1057 0.961 . S
C1070 H1058 0.959 . S
C1070 C1068 1.561 . S
C1071 C1068 1.526 . S
C1071 C1072 1.396 . S
C1071 C1076 1.390 . S
C1072 C1066 1.465 . S
C1072 C1071 1.396 . S
C1072 C1073 1.399 . S
C1073 H1059 0.929 . S
C1073 C1072 1.399 . S
C1073 C1074 1.385 . S
C1074 H1060 0.931 . S
C1074 C1073 1.385 . S
C1074 C1075 1.389 . S
C1075 C1074 1.389 . S
C1075 C1076 1.387 . S
C1076 H1061 0.930 . S
C1076 C1071 1.390 . S
C1076 C1075 1.387 . S
H1077 C1089 0.930 . S
H1078 C1091 0.930 . S
H1079 C1092 0.930 . S
H1080 C1096 0.959 . S
H1081 C1096 0.959 . S
H1082 C1096 0.961 . S
H1083 C1097 0.960 . S
H1084 C1097 0.961 . S
H1085 C1097 0.959 . S
H1086 C1100 0.929 . S
H1087 C1101 0.931 . S
H1088 C1103 0.930 . S
C1089 H1077 0.930 . S
C1089 C1090 1.399 . S
C1089 C1094 1.399 . S
C1090 C1089 1.399 . S
C1090 C1091 1.376 . S
C1091 H1078 0.930 . S
C1091 C1090 1.376 . S
C1091 C1092 1.388 . S
C1092 H1079 0.930 . S
C1092 C1091 1.388 . S
C1092 C1093 1.390 . S
C1093 C1092 1.390 . S
C1093 C1094 1.394 . S
C1093 C1099 1.465 . S
C1094 C1089 1.399 . S
C1094 C1093 1.394 . S
C1094 C1095 1.516 . S
C1095 C1094 1.516 . S
C1095 C1096 1.502 . S
C1095 C1097 1.561 . S
C1095 C1098 1.526 . S
C1096 H1080 0.959 . S
C1096 H1081 0.959 . S
C1096 H1082 0.961 . S
C1096 C1095 1.502 . S
C1097 H1083 0.960 . S
C1097 H1084 0.961 . S
C1097 H1085 0.959 . S
C1097 C1095 1.561 . S
C1098 C1095 1.526 . S
C1098 C1099 1.396 . S
C1098 C1103 1.390 . S
C1099 C1093 1.465 . S
C1099 C1098 1.396 . S
C1099 C1100 1.399 . S
C1100 H1086 0.929 . S
C1100 C1099 1.399 . S
C1100 C1101 1.385 . S
C1101 H1087 0.931 . S
C1101 C1100 1.385 . S
C1101 C1102 1.389 . S
C1102 C1101 1.389 . S
C1102 C1103 1.387 . S
C1103 H1088 0.930 . S
C1103 C1098 1.390 . S
C1103 C1102 1.387 . S
H1104 C1116 0.930 . S
H1105 C1118 0.930 . S
H1106 C1119 0.930 . S
H1107 C1123 0.960 . S
H1108 C1123 0.959 1_554 S
H1109 C1123 0.961 . S
H1110 C1124 0.960 . S
H1111 C1124 0.962 1_554 S
H1112 C1124 0.960 . S
H1113 C1127 0.929 . S
H1114 C1128 0.931 . S
H1115 C1130 0.930 . S
C1116 H1104 0.930 . S
C1116 C1117 1.399 1_445 S
C1116 C1121 1.399 . S
C1117 C1116 1.399 1_665 S
C1117 C1118 1.376 . S
C1118 H1105 0.930 . S
C1118 C1117 1.376 . S
C1118 C1119 1.388 . S
C1119 H1106 0.930 . S
C1119 C1118 1.388 . S
C1119 C1120 1.390 . S
C1120 C1119 1.390 . S
C1120 C1121 1.394 1_665 S
C1120 C1126 1.465 1_556 S
C1121 C1116 1.399 . S
C1121 C1120 1.394 1_445 S
C1121 C1122 1.516 . S
C1122 C1121 1.516 . S
C1122 C1123 1.502 . S
C1122 C1124 1.561 1_455 S
C1122 C1125 1.526 1_556 S
C1123 H1107 0.960 . S
C1123 H1108 0.959 1_556 S
C1123 H1109 0.961 . S
C1123 C1122 1.502 . S
C1124 H1110 0.960 . S
C1124 H1111 0.962 1_556 S
C1124 H1112 0.960 . S
C1124 C1122 1.561 1_655 S
C1125 C1122 1.526 1_554 S
C1125 C1126 1.396 1_445 S
C1125 C1130 1.390 . S
C1126 C1120 1.465 1_554 S
C1126 C1125 1.396 1_665 S
C1126 C1127 1.399 . S
C1127 H1113 0.929 . S
C1127 C1126 1.399 . S
C1127 C1128 1.385 . S
C1128 H1114 0.931 . S
C1128 C1127 1.385 . S
C1128 C1129 1.388 1_565 S
C1129 C1128 1.388 1_545 S
C1129 C1130 1.388 1_655 S
C1130 H1115 0.930 . S
C1130 C1125 1.390 . S
C1130 C1129 1.388 1_455 S
H1131 C1143 0.930 . S
H1132 C1145 0.930 . S
H1133 C1146 0.930 . S
H1134 C1150 0.959 . S
H1135 C1150 0.959 . S
H1136 C1150 0.961 . S
H1137 C1151 0.960 . S
H1138 C1151 0.961 . S
H1139 C1151 0.959 . S
H1140 C1154 0.929 . S
H1141 C1155 0.931 . S
H1142 C1157 0.930 . S
C1143 H1131 0.930 . S
C1143 C1144 1.399 . S
C1143 C1148 1.399 . S
C1144 C1143 1.399 . S
C1144 C1145 1.376 . S
C1145 H1132 0.930 . S
C1145 C1144 1.376 . S
C1145 C1146 1.388 . S
C1146 H1133 0.930 . S
C1146 C1145 1.388 . S
C1146 C1147 1.390 . S
C1147 C1146 1.390 . S
C1147 C1148 1.394 . S
C1147 C1153 1.465 . S
C1148 C1143 1.399 . S
C1148 C1147 1.394 . S
C1148 C1149 1.516 . S
C1149 C1148 1.516 . S
C1149 C1150 1.502 . S
C1149 C1151 1.561 . S
C1149 C1152 1.526 . S
C1150 H1134 0.959 . S
C1150 H1135 0.959 . S
C1150 H1136 0.961 . S
C1150 C1149 1.502 . S
C1151 H1137 0.960 . S
C1151 H1138 0.961 . S
C1151 H1139 0.959 . S
C1151 C1149 1.561 . S
C1152 C1149 1.526 . S
C1152 C1153 1.396 . S
C1152 C1157 1.390 . S
C1153 C1147 1.465 . S
C1153 C1152 1.396 . S
C1153 C1154 1.399 . S
C1154 H1140 0.929 . S
C1154 C1153 1.399 . S
C1154 C1155 1.385 . S
C1155 H1141 0.931 . S
C1155 C1154 1.385 . S
C1155 C1156 1.389 . S
C1156 C1155 1.389 . S
C1156 C1157 1.387 . S
C1157 H1142 0.930 . S
C1157 C1152 1.390 . S
C1157 C1156 1.387 . S
H1158 C1170 0.930 . S
H1159 C1172 0.930 . S
H1160 C1173 0.930 . S
H1161 C1177 0.959 . S
H1162 C1177 0.959 . S
H1163 C1177 0.961 . S
H1164 C1178 0.960 . S
H1165 C1178 0.961 . S
H1166 C1178 0.959 . S
H1167 C1181 0.929 . S
H1168 C1182 0.931 . S
H1169 C1184 0.930 . S
C1170 H1158 0.930 . S
C1170 C1171 1.399 . S
C1170 C1175 1.399 . S
C1171 C1170 1.399 . S
C1171 C1172 1.376 1_565 S
C1172 H1159 0.930 . S
C1172 C1171 1.376 1_545 S
C1172 C1173 1.388 . S
C1173 H1160 0.930 . S
C1173 C1172 1.388 . S
C1173 C1174 1.390 . S
C1174 C1173 1.390 . S
C1174 C1175 1.394 1_545 S
C1174 C1180 1.465 . S
C1175 C1170 1.399 . S
C1175 C1174 1.394 1_565 S
C1175 C1176 1.516 . S
C1176 C1175 1.516 . S
C1176 C1177 1.502 . S
C1176 C1178 1.561 . S
C1176 C1179 1.526 . S
C1177 H1161 0.959 . S
C1177 H1162 0.959 . S
C1177 H1163 0.961 . S
C1177 C1176 1.502 . S
C1178 H1164 0.960 . S
C1178 H1165 0.961 . S
C1178 H1166 0.959 . S
C1178 C1176 1.561 . S
C1179 C1176 1.526 . S
C1179 C1180 1.396 1_565 S
C1179 C1184 1.390 . S
C1180 C1174 1.465 . S
C1180 C1179 1.396 1_545 S
C1180 C1181 1.399 . S
C1181 H1167 0.929 . S
C1181 C1180 1.399 . S
C1181 C1182 1.385 . S
C1182 H1168 0.931 . S
C1182 C1181 1.385 . S
C1182 C1183 1.389 . S
C1183 C1182 1.389 . S
C1183 C1184 1.387 1_545 S
C1184 H1169 0.930 . S
C1184 C1179 1.390 . S
C1184 C1183 1.387 1_565 S
H1185 C1197 0.930 . S
H1186 C1199 0.930 . S
H1187 C1200 0.930 . S
H1188 C1204 0.959 . S
H1189 C1204 0.959 . S
H1190 C1204 0.961 . S
H1191 C1205 0.960 . S
H1192 C1205 0.961 . S
H1193 C1205 0.959 . S
H1194 C1208 0.929 . S
H1195 C1209 0.931 . S
H1196 C1211 0.930 . S
C1197 H1185 0.930 . S
C1197 C1198 1.399 . S
C1197 C1202 1.399 . S
C1198 C1197 1.399 . S
C1198 C1199 1.376 . S
C1199 H1186 0.930 . S
C1199 C1198 1.376 . S
C1199 C1200 1.388 . S
C1200 H1187 0.930 . S
C1200 C1199 1.388 . S
C1200 C1201 1.390 . S
C1201 C1200 1.390 . S
C1201 C1202 1.394 . S
C1201 C1207 1.465 . S
C1202 C1197 1.399 . S
C1202 C1201 1.394 . S
C1202 C1203 1.516 . S
C1203 C1202 1.516 . S
C1203 C1204 1.502 . S
C1203 C1205 1.561 . S
C1203 C1206 1.526 . S
C1204 H1188 0.959 . S
C1204 H1189 0.959 . S
C1204 H1190 0.961 . S
C1204 C1203 1.502 . S
C1205 H1191 0.960 . S
C1205 H1192 0.961 . S
C1205 H1193 0.959 . S
C1205 C1203 1.561 . S
C1206 C1203 1.526 . S
C1206 C1207 1.396 . S
C1206 C1211 1.390 . S
C1207 C1201 1.465 . S
C1207 C1206 1.396 . S
C1207 C1208 1.399 . S
C1208 H1194 0.929 . S
C1208 C1207 1.399 . S
C1208 C1209 1.385 . S
C1209 H1195 0.931 . S
C1209 C1208 1.385 . S
C1209 C1210 1.389 . S
C1210 C1209 1.389 . S
C1210 C1211 1.387 . S
C1211 H1196 0.930 . S
C1211 C1206 1.390 . S
C1211 C1210 1.387 . S
H1212 C1224 0.930 . S
H1213 C1226 0.930 . S
H1214 C1227 0.930 . S
H1215 C1231 0.959 . S
H1216 C1231 0.959 . S
H1217 C1231 0.961 . S
H1218 C1232 0.960 . S
H1219 C1232 0.961 . S
H1220 C1232 0.959 . S
H1221 C1235 0.929 . S
H1222 C1236 0.931 . S
H1223 C1238 0.930 . S
C1224 H1212 0.930 . S
C1224 C1225 1.399 . S
C1224 C1229 1.399 . S
C1225 C1224 1.399 . S
C1225 C1226 1.376 . S
C1226 H1213 0.930 . S
C1226 C1225 1.376 . S
C1226 C1227 1.388 . S
C1227 H1214 0.930 . S
C1227 C1226 1.388 . S
C1227 C1228 1.390 . S
C1228 C1227 1.390 . S
C1228 C1229 1.394 . S
C1228 C1234 1.465 . S
C1229 C1224 1.399 . S
C1229 C1228 1.394 . S
C1229 C1230 1.516 . S
C1230 C1229 1.516 . S
C1230 C1231 1.502 . S
C1230 C1232 1.561 . S
C1230 C1233 1.526 . S
C1231 H1215 0.959 . S
C1231 H1216 0.959 . S
C1231 H1217 0.961 . S
C1231 C1230 1.502 . S
C1232 H1218 0.960 . S
C1232 H1219 0.961 . S
C1232 H1220 0.959 . S
C1232 C1230 1.561 . S
C1233 C1230 1.526 . S
C1233 C1234 1.396 . S
C1233 C1238 1.390 . S
C1234 C1228 1.465 . S
C1234 C1233 1.396 . S
C1234 C1235 1.399 . S
C1235 H1221 0.929 . S
C1235 C1234 1.399 . S
C1235 C1236 1.385 . S
C1236 H1222 0.931 . S
C1236 C1235 1.385 . S
C1236 C1237 1.389 . S
C1237 C1236 1.389 . S
C1237 C1238 1.387 . S
C1238 H1223 0.930 . S
C1238 C1233 1.390 . S
C1238 C1237 1.387 . S
H1239 C1251 0.930 . S
H1240 C1253 0.930 . S
H1241 C1254 0.930 . S
H1242 C1258 0.959 . S
H1243 C1258 0.959 . S
H1244 C1258 0.961 . S
H1245 C1259 0.960 . S
H1246 C1259 0.961 . S
H1247 C1259 0.959 . S
H1248 C1262 0.929 . S
H1249 C1263 0.931 . S
H1250 C1265 0.930 . S
C1251 H1239 0.930 . S
C1251 C1252 1.399 . S
C1251 C1256 1.399 . S
C1252 C1251 1.399 . S
C1252 C1253 1.376 . S
C1253 H1240 0.930 . S
C1253 C1252 1.376 . S
C1253 C1254 1.388 . S
C1254 H1241 0.930 . S
C1254 C1253 1.388 . S
C1254 C1255 1.390 . S
C1255 C1254 1.390 . S
C1255 C1256 1.394 . S
C1255 C1261 1.465 . S
C1256 C1251 1.399 . S
C1256 C1255 1.394 . S
C1256 C1257 1.516 . S
C1257 C1256 1.516 . S
C1257 C1258 1.502 . S
C1257 C1259 1.561 . S
C1257 C1260 1.526 . S
C1258 H1242 0.959 . S
C1258 H1243 0.959 . S
C1258 H1244 0.961 . S
C1258 C1257 1.502 . S
C1259 H1245 0.960 . S
C1259 H1246 0.961 . S
C1259 H1247 0.959 . S
C1259 C1257 1.561 . S
C1260 C1257 1.526 . S
C1260 C1261 1.396 . S
C1260 C1265 1.390 . S
C1261 C1255 1.465 . S
C1261 C1260 1.396 . S
C1261 C1262 1.399 . S
C1262 H1248 0.929 . S
C1262 C1261 1.399 . S
C1262 C1263 1.385 . S
C1263 H1249 0.931 . S
C1263 C1262 1.385 . S
C1263 C1264 1.389 . S
C1264 C1263 1.389 . S
C1264 C1265 1.387 . S
C1265 H1250 0.930 . S
C1265 C1260 1.390 . S
C1265 C1264 1.387 . S
H1266 C1278 0.930 . S
H1267 C1280 0.930 . S
H1268 C1281 0.930 . S
H1269 C1285 0.959 . S
H1270 C1285 0.959 . S
H1271 C1285 0.961 . S
H1272 C1286 0.960 . S
H1273 C1286 0.961 . S
H1274 C1286 0.959 . S
H1275 C1289 0.929 . S
H1276 C1290 0.931 . S
H1277 C1292 0.930 . S
C1278 H1266 0.930 . S
C1278 C1279 1.399 . S
C1278 C1283 1.399 . S
C1279 C1278 1.399 . S
C1279 C1280 1.376 . S
C1280 H1267 0.930 . S
C1280 C1279 1.376 . S
C1280 C1281 1.388 . S
C1281 H1268 0.930 . S
C1281 C1280 1.388 . S
C1281 C1282 1.390 . S
C1282 C1281 1.390 . S
C1282 C1283 1.394 . S
C1282 C1288 1.465 . S
C1283 C1278 1.399 . S
C1283 C1282 1.394 . S
C1283 C1284 1.516 . S
C1284 C1283 1.516 . S
C1284 C1285 1.502 . S
C1284 C1286 1.561 . S
C1284 C1287 1.526 . S
C1285 H1269 0.959 . S
C1285 H1270 0.959 . S
C1285 H1271 0.961 . S
C1285 C1284 1.502 . S
C1286 H1272 0.960 . S
C1286 H1273 0.961 . S
C1286 H1274 0.959 . S
C1286 C1284 1.561 . S
C1287 C1284 1.526 . S
C1287 C1288 1.396 . S
C1287 C1292 1.390 . S
C1288 C1282 1.465 . S
C1288 C1287 1.396 . S
C1288 C1289 1.399 . S
C1289 H1275 0.929 . S
C1289 C1288 1.399 . S
C1289 C1290 1.385 . S
C1290 H1276 0.931 . S
C1290 C1289 1.385 . S
C1290 C1291 1.389 . S
C1291 C1290 1.389 . S
C1291 C1292 1.387 . S
C1292 H1277 0.930 . S
C1292 C1287 1.390 . S
C1292 C1291 1.387 . S
H1293 C1305 0.930 . S
H1294 C1307 0.930 . S
H1295 C1308 0.930 . S
H1296 C1312 0.959 . S
H1297 C1312 0.959 1_554 S
H1298 C1312 0.961 . S
H1299 C1313 0.960 . S
H1300 C1313 0.961 1_554 S
H1301 C1313 0.959 . S
H1302 C1316 0.929 . S
H1303 C1317 0.931 . S
H1304 C1319 0.930 . S
C1305 H1293 0.930 . S
C1305 C1306 1.399 1_655 S
C1305 C1310 1.399 . S
C1306 C1305 1.399 1_455 S
C1306 C1307 1.376 . S
C1307 H1294 0.930 . S
C1307 C1306 1.376 . S
C1307 C1308 1.388 . S
C1308 H1295 0.930 . S
C1308 C1307 1.388 . S
C1308 C1309 1.390 . S
C1309 C1308 1.390 . S
C1309 C1310 1.394 1_455 S
C1309 C1315 1.465 1_556 S
C1310 C1305 1.399 . S
C1310 C1309 1.394 1_655 S
C1310 C1311 1.516 . S
C1311 C1310 1.516 . S
C1311 C1312 1.502 . S
C1311 C1313 1.561 1_655 S
C1311 C1314 1.526 1_556 S
C1312 H1296 0.959 . S
C1312 H1297 0.959 1_556 S
C1312 H1298 0.961 . S
C1312 C1311 1.502 . S
C1313 H1299 0.960 . S
C1313 H1300 0.961 1_556 S
C1313 H1301 0.959 . S
C1313 C1311 1.561 1_455 S
C1314 C1311 1.526 1_554 S
C1314 C1315 1.396 1_655 S
C1314 C1319 1.390 . S
C1315 C1309 1.465 1_554 S
C1315 C1314 1.396 1_455 S
C1315 C1316 1.399 . S
C1316 H1302 0.929 . S
C1316 C1315 1.399 . S
C1316 C1317 1.385 . S
C1317 H1303 0.931 . S
C1317 C1316 1.385 . S
C1317 C1318 1.386 1_455 S
C1318 C1317 1.386 1_655 S
C1318 C1319 1.389 . S
C1319 H1304 0.930 . S
C1319 C1314 1.390 . S
C1319 C1318 1.389 . S
C685 C56 1.477 . S
C697 C308 1.475 . S
C712 C63 1.507 . S
C724 C140 1.484 . S
C739 C147 1.477 . S
C751 C224 1.511 . S
C766 C231 1.472 . S
C778 C315 1.505 . S
C793 C67 1.500 . S
C805 C487 1.489 . S
C820 C74 1.508 . S
C832 C403 1.494 . S
C847 C410 1.501 . S
C859 C235 1.485 . S
C874 C494 1.470 . S
C886 C242 1.510 . S
C901 C560 1.484 . S
C913 C476 1.481 . S
C928 C392 1.487 . S
C940 C567 1.508 . S
C955 C644 1.483 . S
C967 C399 1.508 . S
C982 C483 1.474 . S
C994 C651 1.510 . S
C1009 C319 1.495 . S
C1021 C571 1.480 . S
C1036 C578 1.508 . S
C1048 C151 1.495 . S
C1063 C158 1.500 . S
C1075 C655 1.484 . S
C1090 C326 1.505 . S
C1102 C662 1.469 . S
C1117 C58 1.343 1_565 S
C1129 C69 1.328 1_645 S
C1144 C153 1.330 . S
C1156 C142 1.327 . S
C1171 C237 1.277 1_565 S
C1183 C226 1.407 1_545 S
C1198 C310 1.405 . S
C1210 C321 1.276 . S
C1225 C405 1.355 . S
C1237 C394 1.343 . S
C1252 C478 1.405 . S
C1264 C489 1.278 . S
C1279 C573 1.278 . S
C1291 C562 1.407 . S
C1306 C646 1.356 . S
C1318 C657 1.318 . S
