# Generated by pormake.
# Topology smk, (6)-cn, num edge types: 1
# Building blocks:
#     Node 0, Type 0, BuildingBlock: UKALOJ_clean_sbu_0, # of connection points: 6
#     Node 1, Type 0, BuildingBlock: UKALOJ_clean_sbu_0, # of connection points: 6
#     Node 2, Type 0, BuildingBlock: UKALOJ_clean_sbu_0, # of connection points: 6
#     Node 3, Type 0, BuildingBlock: UKALOJ_clean_sbu_0, # of connection points: 6
#     Node 4, Type 0, BuildingBlock: UKALOJ_clean_sbu_0, # of connection points: 6
#     Node 5, Type 0, BuildingBlock: UKALOJ_clean_sbu_0, # of connection points: 6
#     Edge 6, Type (0, 0), BuildingBlock: OJICUG_clean_linker_0, # of connection points: 2
#     Edge 7, Type (0, 0), BuildingBlock: OJICUG_clean_linker_0, # of connection points: 2
#     Edge 8, Type (0, 0), BuildingBlock: OJICUG_clean_linker_0, # of connection points: 2
#     Edge 9, Type (0, 0), BuildingBlock: OJICUG_clean_linker_0, # of connection points: 2
#     Edge 10, Type (0, 0), BuildingBlock: OJICUG_clean_linker_0, # of connection points: 2
#     Edge 11, Type (0, 0), BuildingBlock: OJICUG_clean_linker_0, # of connection points: 2
#     Edge 12, Type (0, 0), BuildingBlock: OJICUG_clean_linker_0, # of connection points: 2
#     Edge 13, Type (0, 0), BuildingBlock: OJICUG_clean_linker_0, # of connection points: 2
#     Edge 14, Type (0, 0), BuildingBlock: OJICUG_clean_linker_0, # of connection points: 2
#     Edge 15, Type (0, 0), BuildingBlock: OJICUG_clean_linker_0, # of connection points: 2
#     Edge 16, Type (0, 0), BuildingBlock: OJICUG_clean_linker_0, # of connection points: 2
#     Edge 17, Type (0, 0), BuildingBlock: OJICUG_clean_linker_0, # of connection points: 2
#     Edge 18, Type (0, 0), BuildingBlock: OJICUG_clean_linker_0, # of connection points: 2
#     Edge 19, Type (0, 0), BuildingBlock: OJICUG_clean_linker_0, # of connection points: 2
#     Edge 20, Type (0, 0), BuildingBlock: OJICUG_clean_linker_0, # of connection points: 2
#     Edge 21, Type (0, 0), BuildingBlock: OJICUG_clean_linker_0, # of connection points: 2
#     Edge 22, Type (0, 0), BuildingBlock: OJICUG_clean_linker_0, # of connection points: 2
#     Edge 23, Type (0, 0), BuildingBlock: OJICUG_clean_linker_0, # of connection points: 2
# Relax obj value: 0.274
# Max RMSD: 0.205
# Mean RMSD: 0.205
data_MOF--net-smk--node1-UKALOJ_clean_sbu_0--edge1-OJICUG_clean_linker_0
_symmetry_space_group_name_H-M    P1
_symmetry_Int_Tables_number       1
_symmetry_cell_setting            triclinic
loop_
_symmetry_equiv_pos_as_xyz
'x, y, z'
_cell_length_a     35.929579
_cell_length_b     35.921746
_cell_length_c     11.2766
_cell_angle_alpha  89.928902
_cell_angle_beta   90.036423
_cell_angle_gamma 119.9173
loop_
_atom_site_label
_atom_site_type_symbol
_atom_site_fract_x
_atom_site_fract_y
_atom_site_fract_z
_atom_type_partial_charge
Zn0 Zn 0.42639 0.22325 0.49749 0.0
O1 O 0.37949 0.1568 0.50209 0.0
C2 C 0.45398 0.21785 0.74229 0.0
Zn3 Zn 0.48062 0.20925 0.49898 0.0
C4 C 0.39268 0.1299 0.49693 0.0
O5 O 0.43281 0.14349 0.49856 0.0
C6 C 0.51369 0.30221 0.47953 0.0
O7 O 0.48065 0.20812 0.31131 0.0
O8 O 0.42636 0.22047 0.31105 0.0
N9 N 0.52699 0.19119 0.51414 0.0
C10 C 0.56761 0.2123 0.5565 0.0
C11 C 0.54728 0.14556 0.55982 0.0
N12 N 0.51473 0.14977 0.51563 0.0
N13 N 0.5807 0.18428 0.58837 0.0
C14 C 0.37496 0.26869 0.5628 0.0
C15 C 0.32212 0.24114 0.4427 0.0
N16 N 0.37915 0.23979 0.49609 0.0
N17 N 0.34627 0.22269 0.42161 0.0
N18 N 0.33945 0.27011 0.53091 0.0
H19 H 0.39066 0.26991 0.74549 0.0
H20 H 0.40184 0.32098 0.6916 0.0
H21 H 0.4365 0.3002 0.65205 0.0
C22 C 0.40279 0.29165 0.66774 0.0
C23 C 0.59544 0.26025 0.55705 0.0
H24 H 0.59256 0.27336 0.47069 0.0
H25 H 0.62982 0.27041 0.56896 0.0
H26 H 0.58496 0.274 0.62904 0.0
O27 O 0.52629 0.27515 0.49248 0.0
O28 O 0.47375 0.28939 0.48278 0.0
C29 C 0.45334 0.21407 0.25448 0.0
O30 O 0.42755 0.22485 0.68553 0.0
O31 O 0.48007 0.21059 0.68521 0.0
Zn32 Zn 0.219 0.41852 0.6615 0.0
O33 O 0.23879 0.37175 0.66645 0.0
C34 C 0.2519 0.4463 0.9063 0.0
Zn35 Zn 0.28709 0.47279 0.66302 0.0
C36 C 0.27884 0.38492 0.66212 0.0
O37 O 0.3053 0.42507 0.66376 0.0
C38 C 0.22697 0.50571 0.64277 0.0
O39 O 0.28826 0.47259 0.47527 0.0
O40 O 0.22171 0.41839 0.4751 0.0
N41 N 0.35134 0.51934 0.67771 0.0
C42 C 0.37058 0.55971 0.72178 0.0
C43 C 0.41745 0.53992 0.72074 0.0
N44 N 0.38078 0.50741 0.67652 0.0
N45 N 0.41182 0.57297 0.75201 0.0
C46 C 0.12231 0.36685 0.72747 0.0
C47 C 0.09723 0.31387 0.60797 0.0
N48 N 0.15538 0.37112 0.66055 0.0
N49 N 0.13973 0.33814 0.58645 0.0
N50 N 0.08552 0.3312 0.6961 0.0
H51 H 0.13678 0.38274 0.90999 0.0
H52 H 0.09679 0.39377 0.85604 0.0
H53 H 0.1521 0.42848 0.81608 0.0
C54 C 0.12708 0.39476 0.83213 0.0
C55 C 0.35001 0.58718 0.72548 0.0
H56 H 0.33422 0.58505 0.63931 0.0
H57 H 0.37382 0.62151 0.73968 0.0
H58 H 0.32557 0.57572 0.79707 0.0
O59 O 0.2666 0.51834 0.65554 0.0
O60 O 0.19995 0.46577 0.64642 0.0
C61 C 0.25506 0.44532 0.41849 0.0
O62 O 0.2186 0.41978 0.84959 0.0
O63 O 0.28516 0.47247 0.84918 0.0
Zn64 Zn 0.81706 0.211 0.82989 0.0
O65 O 0.88354 0.23044 0.83411 0.0
C66 C 0.82239 0.24396 0.07457 0.0
Zn67 Zn 0.83101 0.2792 0.83114 0.0
C68 C 0.9104 0.27049 0.82945 0.0
O69 O 0.89674 0.29702 0.83131 0.0
C70 C 0.73808 0.2195 0.81186 0.0
O71 O 0.8323 0.28039 0.64341 0.0
O72 O 0.81976 0.21371 0.64347 0.0
N73 N 0.849 0.34358 0.84595 0.0
C74 C 0.82786 0.36305 0.88857 0.0
C75 C 0.89455 0.4094 0.89127 0.0
N76 N 0.8904 0.3727 0.84706 0.0
N77 N 0.85584 0.40411 0.92021 0.0
C78 C 0.77168 0.11421 0.89584 0.0
C79 C 0.7991 0.08881 0.77559 0.0
N80 N 0.80056 0.14724 0.82889 0.0
N81 N 0.81757 0.13137 0.75433 0.0
N82 N 0.77019 0.07726 0.86401 0.0
H83 H 0.77062 0.12883 0.07839 0.0
H84 H 0.71954 0.08893 0.02524 0.0
H85 H 0.74015 0.14429 -0.01495 0.0
C86 C 0.74879 0.11916 0.0009 0.0
C87 C 0.77992 0.34297 0.88954 0.0
H88 H 0.76679 0.32713 0.80317 0.0
H89 H 0.76968 0.36714 0.90184 0.0
H90 H 0.76626 0.31867 -0.03857 0.0
O91 O 0.76515 0.2591 0.82424 0.0
O92 O 0.75088 0.19232 0.81556 0.0
C93 C 0.82626 0.24711 0.58675 0.0
O94 O 0.81555 0.21059 0.01798 0.0
O95 O 0.8295 0.27725 0.01732 0.0
Zn96 Zn 0.62112 0.80866 -0.00457 0.0
O97 O 0.66808 0.87507 -0.0 0.0
C98 C 0.59344 0.81395 0.24016 0.0
Zn99 Zn 0.56702 0.82287 -0.00323 0.0
C100 C 0.65504 0.9021 -0.00449 0.0
O101 O 0.61492 0.88863 -0.0028 0.0
C102 C 0.5338 0.72984 -0.023 0.0
O103 O 0.56721 0.82428 0.80903 0.0
O104 O 0.62123 0.81152 0.80901 0.0
N105 N 0.52067 0.84097 0.01159 0.0
C106 C 0.48018 0.81993 0.05488 0.0
C107 C 0.50036 0.88665 0.05599 0.0
N108 N 0.53285 0.88237 0.01172 0.0
N109 N 0.46709 0.848 0.08596 0.0
C110 C 0.6725 0.76315 0.06132 0.0
C111 C 0.72541 0.79077 0.94147 0.0
N112 N 0.66834 0.79208 -0.00561 0.0
N113 N 0.70127 0.80921 0.92007 0.0
N114 N 0.70804 0.76176 0.02973 0.0
H115 H 0.65671 0.76183 0.24391 0.0
H116 H 0.64551 0.71078 0.19016 0.0
H117 H 0.61092 0.73164 0.1503 0.0
C118 C 0.64461 0.74014 0.16618 0.0
C119 C 0.45246 0.77198 0.05704 0.0
H120 H 0.45491 0.75863 -0.02925 0.0
H121 H 0.41812 0.76173 0.0702 0.0
H122 H 0.4634 0.7585 0.12879 0.0
O123 O 0.52129 0.75698 -0.01042 0.0
O124 O 0.57371 0.74255 -0.01924 0.0
C125 C 0.5944 0.81815 0.75232 0.0
O126 O 0.6199 0.80699 0.18352 0.0
O127 O 0.56736 0.82122 0.18296 0.0
Zn128 Zn 0.76027 0.55903 0.16375 0.0
O129 O 0.75902 0.55921 -0.02398 0.0
C130 C 0.82026 0.52595 0.14415 0.0
Zn131 Zn 0.8284 0.61322 0.1622 0.0
C132 C 0.79226 0.58641 0.9192 0.0
O133 O 0.82564 0.61325 -0.02422 0.0
C134 C 0.79554 0.58553 0.40704 0.0
O135 O 0.8087 0.66009 0.16651 0.0
O136 O 0.74217 0.60682 0.16415 0.0
N137 N 0.89204 0.66054 0.16076 0.0
C138 C 0.92517 0.66483 0.22758 0.0
C139 C 0.95021 0.7176 0.10706 0.0
N140 N 0.90768 0.69338 0.08602 0.0
N141 N 0.96197 0.70036 0.1955 0.0
C142 C 0.67673 0.47224 0.22325 0.0
C143 C 0.62997 0.49218 0.22232 0.0
N144 N 0.69599 0.5126 0.17882 0.0
N145 N 0.66663 0.52462 0.17771 0.0
N146 N 0.63554 0.45909 0.25378 0.0
H147 H 0.71288 0.44677 0.14073 0.0
H148 H 0.67333 0.41037 0.24147 0.0
H149 H 0.72169 0.4561 0.29842 0.0
C150 C 0.6972 0.44469 0.22699 0.0
C151 C 0.92043 0.63706 0.33276 0.0
H152 H 0.91063 0.64911 0.41022 0.0
H153 H 0.95077 0.63819 0.35708 0.0
H154 H 0.89548 0.6033 0.31704 0.0
O155 O 0.82886 0.61206 0.35029 0.0
O156 O 0.76228 0.55938 0.34994 0.0
C157 C 0.76865 0.64696 0.16219 0.0
O158 O 0.78064 0.5134 0.15657 0.0
O159 O 0.84735 0.56588 0.14788 0.0
Zn160 Zn 0.23078 0.82106 0.32695 0.0
O161 O 0.16417 0.8012 0.33032 0.0
C162 C 0.22529 0.78776 0.57193 0.0
Zn163 Zn 0.21681 0.75287 0.32887 0.0
C164 C 0.13731 0.76116 0.32681 0.0
O165 O 0.15098 0.73465 0.32962 0.0
C166 C 0.30983 0.81282 0.30956 0.0
O167 O 0.21544 0.75216 0.14109 0.0
O168 O 0.22858 0.81907 0.14051 0.0
N169 N 0.19915 0.68855 0.34267 0.0
C170 C 0.22014 0.66923 0.38769 0.0
C171 C 0.15364 0.62229 0.38393 0.0
N172 N 0.15788 0.65908 0.33978 0.0
N173 N 0.19215 0.62788 0.41685 0.0
C174 C 0.27972 0.91868 0.38261 0.0
C175 C 0.2413 0.94117 0.29985 0.0
N176 N 0.24663 0.88461 0.32915 0.0
N177 N 0.22275 0.89866 0.278 0.0
N178 N 0.27723 0.95461 0.36503 0.0
H179 H 0.32408 0.94029 0.53004 0.0
H180 H 0.34118 0.92332 0.40084 0.0
H181 H 0.30111 0.8842 0.49636 0.0
C182 C 0.31315 0.91636 0.45729 0.0
C183 C 0.2681 0.68984 0.3933 0.0
H184 H 0.28207 0.70558 0.30733 0.0
H185 H 0.27866 0.66607 0.40876 0.0
H186 H 0.28069 0.71432 0.46475 0.0
O187 O 0.28275 0.77319 0.32139 0.0
O188 O 0.297 0.83996 0.31352 0.0
C189 C 0.22184 0.78556 0.08411 0.0
O190 O 0.23177 0.82096 0.51493 0.0
O191 O 0.21842 0.75451 0.51513 0.0
C192 C 0.48466 0.21056 0.05923 0.0
C193 C 0.45335 0.21457 0.12346 0.0
H194 H 0.50958 0.20875 0.8885 0.0
C195 C 0.42234 0.21982 0.06128 0.0
H196 H 0.50906 0.2066 0.10447 0.0
C197 C 0.42261 0.22104 0.93756 0.0
C198 C 0.45397 0.21718 0.8733 0.0
H199 H 0.39772 0.22294 0.10808 0.0
H200 H 0.39802 0.22469 0.8925 0.0
C201 C 0.48497 0.21188 0.93543 0.0
C202 C 0.21844 0.41436 0.22533 0.0
C203 C 0.25459 0.4454 0.28746 0.0
H204 H 0.18933 0.39011 0.05659 0.0
C205 C 0.28976 0.47684 0.22319 0.0
H206 H 0.1908 0.38964 0.27216 0.0
C207 C 0.28874 0.47727 0.09939 0.0
C208 C 0.25255 0.44623 0.03732 0.0
H209 H 0.31803 0.50128 0.26839 0.0
H210 H 0.31636 0.50197 0.05244 0.0
C211 C 0.21747 0.41473 0.10162 0.0
C212 C 0.82832 0.28089 0.2675 0.0
C213 C 0.82308 0.24462 0.20558 0.0
H214 H 0.83358 0.31024 0.43637 0.0
C215 C 0.81933 0.20944 0.27004 0.0
H216 H 0.83137 0.30859 0.22042 0.0
C217 C 0.82058 0.2104 0.39375 0.0
C218 C 0.82577 0.24663 0.45572 0.0
H219 H 0.81574 0.18123 0.22514 0.0
H220 H 0.81754 0.18269 0.44071 0.0
C221 C 0.82967 0.2819 0.3913 0.0
C222 C 0.62487 0.81082 0.43556 0.0
C223 C 0.5935 0.81467 0.37117 0.0
H224 H 0.64986 0.80905 0.60615 0.0
C225 C 0.56259 0.82012 0.43316 0.0
H226 H 0.6494 0.80706 0.3906 0.0
C227 C 0.56302 0.82159 0.55695 0.0
C228 C 0.59433 0.81759 0.6213 0.0
H229 H 0.53799 0.82326 0.38615 0.0
H230 H 0.53868 0.82565 0.60208 0.0
C231 C 0.62525 0.81219 0.55926 0.0
C232 C 0.75861 0.5546 0.60014 0.0
C233 C 0.79486 0.58558 0.53805 0.0
H234 H 0.72924 0.53061 0.76914 0.0
C235 C 0.82997 0.61699 0.60233 0.0
H236 H 0.73096 0.52996 0.5532 0.0
C237 C 0.82897 0.61734 0.72603 0.0
C238 C 0.79276 0.58636 0.78818 0.0
H239 H 0.85817 0.64157 0.5573 0.0
H240 H 0.85663 0.64199 0.77285 0.0
C241 C 0.75756 0.555 0.72393 0.0
C242 C 0.21558 0.74949 0.88928 0.0
C243 C 0.22242 0.78594 -0.04694 0.0
H244 H 0.21127 0.72152 0.71895 0.0
C245 C 0.23058 0.82315 0.89042 0.0
H246 H 0.20933 0.72037 0.93485 0.0
C247 C 0.23179 0.82386 0.76666 0.0
C248 C 0.22483 0.78737 0.70291 0.0
H249 H 0.23614 0.85185 0.93689 0.0
H250 H 0.2381 0.853 0.72106 0.0
C251 C 0.21677 0.7502 0.7655 0.0
C252 C 0.31771 0.06685 0.47735 0.0
C253 C 0.36243 0.08382 0.47347 0.0
H254 H 0.25543 1.01189 0.44636 0.0
C255 C 0.37845 0.05728 0.43493 0.0
H256 H 0.30434 0.08659 0.50528 0.0
C257 C 0.3506 1.01517 0.39897 0.0
C258 C 0.30595 0.99798 0.40372 0.0
H259 H 0.41269 0.06949 0.42809 0.0
H260 H 0.36417 0.99653 0.3641 0.0
C261 C 0.28975 0.02429 0.44289 0.0
C262 C 0.28143 0.28204 0.60376 0.0
C263 C 0.32456 0.29835 0.57162 0.0
H264 H 0.23302 0.29654 0.66023 0.0
C265 C 0.35252 0.34288 0.57305 0.0
H266 H 0.25924 0.24777 0.6015 0.0
C267 C 0.33801 0.37065 0.60837 0.0
C268 C 0.29477 0.3546 0.63998 0.0
H269 H 0.38546 0.35627 0.54389 0.0
H270 H 0.36045 0.40487 0.60654 0.0
C271 C 0.26662 0.30991 0.63787 0.0
C272 C 0.98354 0.32959 0.77424 0.0
C273 C 0.95655 0.28638 0.80655 0.0
H274 H 0.0451 0.37703 0.70868 0.0
C275 C 0.9732 0.25827 0.80444 0.0
H276 H 0.97167 0.35201 0.77235 0.0
C277 C 1.01582 0.27311 0.7698 0.0
C278 C 0.04244 0.31623 0.73708 0.0
H279 H 0.95313 0.22469 0.8273 0.0
H280 H 0.028 0.25096 0.76765 0.0
C281 C 0.02573 0.34412 0.73835 0.0
C282 C 0.73012 0.96456 -0.02911 0.0
C283 C 0.68545 0.94826 -0.02677 0.0
H284 H 0.79231 0.01908 0.93429 0.0
C285 C 0.66953 0.97563 0.94179 0.0
H286 H 0.7434 0.9442 -0.00687 0.0
C287 C 0.69738 0.01785 0.90642 0.0
C288 C 0.74188 0.03419 0.90477 0.0
H289 H 0.63532 0.96403 0.94015 0.0
H290 H 0.68406 0.03753 0.87741 0.0
C291 C 0.75807 1.00719 0.93672 0.0
C292 C 0.78089 0.72198 0.1374 0.0
C293 C 0.75274 0.67729 0.13969 0.0
H294 H 0.78825 0.78411 0.10062 0.0
C295 C 0.70951 0.66124 0.10797 0.0
H296 H 0.81448 0.73535 0.15985 0.0
C297 C 0.69499 0.689 0.07235 0.0
C298 C 0.72293 0.73353 0.07075 0.0
H299 H 0.68707 0.62701 0.10627 0.0
H300 H 0.66206 0.6756 0.04307 0.0
C301 C 0.76606 0.74985 0.10301 0.0
C302 C 0.03185 0.75852 0.26762 0.0
C303 C 1.00509 0.71532 0.23615 0.0
H304 H 0.0947 0.80703 0.32357 0.0
C305 C 1.02173 0.68737 0.23813 0.0
H306 H 1.01973 0.78072 0.2649 0.0
C307 C 0.064 0.70194 0.27344 0.0
C308 C 0.09111 0.74523 0.30444 0.0
H309 H 1.00225 0.65438 0.20942 0.0
H310 H 0.07582 0.67948 0.27209 0.0
C311 C 0.07453 0.7734 0.30169 0.0
C312 C 0.53074 0.36582 0.35351 0.0
C313 C 0.54428 0.34593 0.43697 0.0
H314 H 0.54961 0.41674 0.227 0.0
C315 C 0.58807 0.36542 0.46527 0.0
H316 H 0.49718 0.35136 0.32921 0.0
C317 C 0.61791 0.4033 0.40824 0.0
C318 C 0.6048 0.42131 0.31776 0.0
H319 H 0.59931 0.35101 0.53016 0.0
H320 H 0.65128 0.41819 0.43424 0.0
C321 C 0.56073 0.40298 0.2941 0.0
C322 C 0.23761 0.57997 0.62965 0.0
C323 C 0.21377 0.53628 0.60003 0.0
H324 H 0.24768 0.64318 0.5997 0.0
C325 C 0.18086 0.52291 0.51522 0.0
H326 H 0.26285 0.59106 0.69559 0.0
C327 C 0.17376 0.553 0.45582 0.0
C328 C 0.19905 0.59701 0.48088 0.0
H329 H 0.16216 0.48943 0.48989 0.0
H330 H 0.14931 0.54204 0.38765 0.0
C331 C 0.22959 0.6099 0.57268 0.0
C332 C 0.67516 0.23124 0.79673 0.0
C333 C 0.69429 0.20644 0.7699 0.0
H334 H 0.62263 0.24211 0.76496 0.0
C335 C 0.67394 0.17251 0.68843 0.0
H336 H 0.6899 0.25727 0.86015 0.0
C337 C 0.63665 0.16527 0.62951 0.0
C338 C 0.61867 0.19147 0.65163 0.0
H339 H 0.6881 0.15301 0.66529 0.0
H340 H 0.62249 0.13993 0.56397 0.0
C341 C 0.6372 0.22319 0.74013 0.0
C342 C 0.51666 0.66631 0.85098 0.0
C343 C 0.50317 0.68617 0.93445 0.0
H344 H 0.49773 0.6154 0.7247 0.0
C345 C 0.45938 0.66669 -0.03714 0.0
H346 H 0.55021 0.68077 0.82657 0.0
C347 C 0.42952 0.6288 0.90605 0.0
C348 C 0.44258 0.61079 0.81563 0.0
H349 H 0.44818 0.68107 0.02776 0.0
H350 H 0.39616 0.6139 0.93222 0.0
C351 C 0.48664 0.62915 0.79177 0.0
C352 C 0.8673 0.50892 0.02026 0.0
C353 C 0.83345 0.49531 0.10209 0.0
H354 H 0.89989 0.49015 0.89542 0.0
C355 C 0.80882 0.45142 0.1292 0.0
H356 H 0.88667 0.54255 -0.0031 0.0
C357 C 0.81697 0.42159 0.0725 0.0
C358 C 0.8486 0.43482 -0.01636 0.0
H359 H 0.78286 0.44011 0.19289 0.0
H360 H 0.79819 0.38813 0.09753 0.0
C361 C 0.87463 0.47895 -0.03875 0.0
C362 C 0.41107 0.86695 0.12649 0.0
C363 C 0.42922 0.84094 0.14949 0.0
H364 H 0.35949 0.87905 0.16165 0.0
C365 C 0.41094 0.8095 0.23896 0.0
H366 H 0.42505 0.89208 0.06022 0.0
C367 C 0.37297 0.80143 0.29552 0.0
C368 C 0.35364 0.82599 0.26775 0.0
H369 H 0.42567 0.79078 0.26451 0.0
H370 H 0.35838 0.77557 0.35963 0.0
C371 C 0.3738 0.85973 0.18546 0.0
loop_
_geom_bond_atom_site_label_1
_geom_bond_atom_site_label_2
_geom_bond_distance
_geom_bond_site_symmetry_2
_ccdc_geom_bond_type
Zn0 O1 2.055 . S
Zn0 O8 2.046 . S
Zn0 N16 2.036 . S
Zn0 O28 2.053 . S
Zn0 O30 2.066 . S
O1 Zn0 2.055 . S
O1 C4 1.259 . S
C2 O30 1.256 . S
C2 O31 1.244 . S
Zn3 O5 2.046 . S
Zn3 O7 2.055 . S
Zn3 N9 2.036 . S
Zn3 O27 2.066 . S
Zn3 O31 2.053 . S
C4 O1 1.259 . S
C4 O5 1.254 . S
O5 Zn3 2.046 . S
O5 C4 1.254 . S
C6 O27 1.256 . S
C6 O28 1.244 . S
O7 Zn3 2.055 . S
O7 C29 1.259 . S
O8 Zn0 2.046 . S
O8 C29 1.254 . S
N9 Zn3 2.036 . S
N9 C10 1.298 . S
N9 N12 1.398 . S
C10 N9 1.298 . S
C10 N13 1.367 . S
C10 C23 1.481 . S
C11 N12 1.299 . S
C11 N13 1.379 . S
N12 N9 1.398 . S
N12 C11 1.299 . S
N13 C10 1.367 . S
N13 C11 1.379 . S
C14 N16 1.298 . S
C14 N18 1.367 . S
C14 C22 1.481 . S
C15 N17 1.299 . S
C15 N18 1.379 . S
N16 Zn0 2.036 . S
N16 C14 1.298 . S
N16 N17 1.398 . S
N17 C15 1.299 . S
N17 N16 1.398 . S
N18 C14 1.367 . S
N18 C15 1.379 . S
H19 C22 0.980 . S
H20 C22 0.981 . S
H21 C22 0.981 . S
C22 C14 1.481 . S
C22 H19 0.980 . S
C22 H20 0.981 . S
C22 H21 0.981 . S
C23 C10 1.481 . S
C23 H24 0.980 . S
C23 H25 0.981 . S
C23 H26 0.981 . S
H24 C23 0.980 . S
H25 C23 0.981 . S
H26 C23 0.981 . S
O27 Zn3 2.066 . S
O27 C6 1.256 . S
O28 Zn0 2.053 . S
O28 C6 1.244 . S
C29 O7 1.259 . S
C29 O8 1.254 . S
O30 Zn0 2.066 . S
O30 C2 1.256 . S
O31 C2 1.244 . S
O31 Zn3 2.053 . S
Zn32 O33 2.055 . S
Zn32 O40 2.046 . S
Zn32 N48 2.036 . S
Zn32 O60 2.053 . S
Zn32 O62 2.066 . S
O33 Zn32 2.055 . S
O33 C36 1.259 . S
C34 O62 1.256 . S
C34 O63 1.244 . S
Zn35 O37 2.046 . S
Zn35 O39 2.055 . S
Zn35 N41 2.036 . S
Zn35 O59 2.066 . S
Zn35 O63 2.053 . S
C36 O33 1.259 . S
C36 O37 1.254 . S
O37 Zn35 2.046 . S
O37 C36 1.254 . S
C38 O59 1.256 . S
C38 O60 1.244 . S
O39 Zn35 2.055 . S
O39 C61 1.259 . S
O40 Zn32 2.046 . S
O40 C61 1.254 . S
N41 Zn35 2.036 . S
N41 C42 1.298 . S
N41 N44 1.398 . S
C42 N41 1.298 . S
C42 N45 1.367 . S
C42 C55 1.481 . S
C43 N44 1.299 . S
C43 N45 1.379 . S
N44 N41 1.398 . S
N44 C43 1.299 . S
N45 C42 1.367 . S
N45 C43 1.379 . S
C46 N48 1.298 . S
C46 N50 1.367 . S
C46 C54 1.481 . S
C47 N49 1.299 . S
C47 N50 1.379 . S
N48 Zn32 2.036 . S
N48 C46 1.298 . S
N48 N49 1.398 . S
N49 C47 1.299 . S
N49 N48 1.398 . S
N50 C46 1.367 . S
N50 C47 1.379 . S
H51 C54 0.980 . S
H52 C54 0.981 . S
H53 C54 0.981 . S
C54 C46 1.481 . S
C54 H51 0.980 . S
C54 H52 0.981 . S
C54 H53 0.981 . S
C55 C42 1.481 . S
C55 H56 0.980 . S
C55 H57 0.981 . S
C55 H58 0.981 . S
H56 C55 0.980 . S
H57 C55 0.981 . S
H58 C55 0.981 . S
O59 Zn35 2.066 . S
O59 C38 1.256 . S
O60 Zn32 2.053 . S
O60 C38 1.244 . S
C61 O39 1.259 . S
C61 O40 1.254 . S
O62 Zn32 2.066 . S
O62 C34 1.256 . S
O63 C34 1.244 . S
O63 Zn35 2.053 . S
Zn64 O65 2.055 . S
Zn64 O72 2.046 . S
Zn64 N80 2.036 . S
Zn64 O92 2.053 . S
Zn64 O94 2.066 1_556 S
O65 Zn64 2.055 . S
O65 C68 1.259 . S
C66 O94 1.256 . S
C66 O95 1.244 . S
Zn67 O69 2.046 . S
Zn67 O71 2.055 . S
Zn67 N73 2.036 . S
Zn67 O91 2.066 . S
Zn67 O95 2.053 1_556 S
C68 O65 1.259 . S
C68 O69 1.254 . S
O69 Zn67 2.046 . S
O69 C68 1.254 . S
C70 O91 1.256 . S
C70 O92 1.244 . S
O71 Zn67 2.055 . S
O71 C93 1.259 . S
O72 Zn64 2.046 . S
O72 C93 1.254 . S
N73 Zn67 2.036 . S
N73 C74 1.298 . S
N73 N76 1.398 1_556 S
C74 N73 1.298 . S
C74 N77 1.367 . S
C74 C87 1.481 . S
C75 N76 1.299 . S
C75 N77 1.379 1_554 S
N76 N73 1.398 1_554 S
N76 C75 1.299 . S
N77 C74 1.367 . S
N77 C75 1.379 1_556 S
C78 N80 1.298 . S
C78 N82 1.367 . S
C78 C86 1.481 . S
C79 N81 1.299 . S
C79 N82 1.379 . S
N80 Zn64 2.036 . S
N80 C78 1.298 . S
N80 N81 1.398 . S
N81 C79 1.299 . S
N81 N80 1.398 . S
N82 C78 1.367 . S
N82 C79 1.379 . S
H83 C86 0.980 . S
H84 C86 0.981 . S
H85 C86 0.981 1_554 S
C86 C78 1.481 . S
C86 H83 0.980 . S
C86 H84 0.981 . S
C86 H85 0.981 1_556 S
C87 C74 1.481 . S
C87 H88 0.980 . S
C87 H89 0.981 . S
C87 H90 0.981 . S
H88 C87 0.980 . S
H89 C87 0.981 . S
H90 C87 0.981 . S
O91 Zn67 2.066 . S
O91 C70 1.256 . S
O92 Zn64 2.053 . S
O92 C70 1.244 . S
C93 O71 1.259 . S
C93 O72 1.254 . S
O94 Zn64 2.066 1_554 S
O94 C66 1.256 . S
O95 C66 1.244 . S
O95 Zn67 2.053 1_554 S
Zn96 O97 2.055 . S
Zn96 O104 2.046 1_554 S
Zn96 N112 2.036 . S
Zn96 O124 2.053 . S
Zn96 O126 2.066 . S
O97 Zn96 2.055 . S
O97 C100 1.259 . S
C98 O126 1.256 . S
C98 O127 1.244 . S
Zn99 O101 2.046 . S
Zn99 O103 2.055 1_554 S
Zn99 N105 2.036 . S
Zn99 O123 2.066 . S
Zn99 O127 2.053 . S
C100 O97 1.259 . S
C100 O101 1.254 . S
O101 Zn99 2.046 . S
O101 C100 1.254 . S
C102 O123 1.256 . S
C102 O124 1.244 . S
O103 Zn99 2.055 1_556 S
O103 C125 1.259 . S
O104 Zn96 2.046 1_556 S
O104 C125 1.254 . S
N105 Zn99 2.036 . S
N105 C106 1.298 . S
N105 N108 1.398 . S
C106 N105 1.298 . S
C106 N109 1.367 . S
C106 C119 1.481 1_554 S
C107 N108 1.299 . S
C107 N109 1.379 . S
N108 N105 1.398 . S
N108 C107 1.299 . S
N109 C106 1.367 . S
N109 C107 1.379 . S
C110 N112 1.298 . S
C110 N114 1.367 . S
C110 C118 1.481 . S
C111 N113 1.299 1_554 S
C111 N114 1.379 . S
N112 Zn96 2.036 . S
N112 C110 1.298 . S
N112 N113 1.398 1_554 S
N113 C111 1.299 1_556 S
N113 N112 1.398 1_556 S
N114 C110 1.367 . S
N114 C111 1.379 . S
H115 C118 0.980 . S
H116 C118 0.981 . S
H117 C118 0.981 . S
C118 C110 1.481 . S
C118 H115 0.980 . S
C118 H116 0.981 . S
C118 H117 0.981 . S
C119 C106 1.481 1_556 S
C119 H120 0.980 . S
C119 H121 0.981 . S
C119 H122 0.981 . S
H120 C119 0.980 . S
H121 C119 0.981 . S
H122 C119 0.981 . S
O123 Zn99 2.066 . S
O123 C102 1.256 . S
O124 Zn96 2.053 . S
O124 C102 1.244 . S
C125 O103 1.259 . S
C125 O104 1.254 . S
O126 Zn96 2.066 . S
O126 C98 1.256 . S
O127 C98 1.244 . S
O127 Zn99 2.053 . S
Zn128 O129 2.055 . S
Zn128 O136 2.046 . S
Zn128 N144 2.036 . S
Zn128 O156 2.053 . S
Zn128 O158 2.066 . S
O129 Zn128 2.055 . S
O129 C132 1.259 1_554 S
C130 O158 1.256 . S
C130 O159 1.244 . S
Zn131 O133 2.046 . S
Zn131 O135 2.055 . S
Zn131 N137 2.036 . S
Zn131 O155 2.066 . S
Zn131 O159 2.053 . S
C132 O129 1.259 1_556 S
C132 O133 1.254 1_556 S
O133 Zn131 2.046 . S
O133 C132 1.254 1_554 S
C134 O155 1.256 . S
C134 O156 1.244 . S
O135 Zn131 2.055 . S
O135 C157 1.259 . S
O136 Zn128 2.046 . S
O136 C157 1.254 . S
N137 Zn131 2.036 . S
N137 C138 1.298 . S
N137 N140 1.398 . S
C138 N137 1.298 . S
C138 N141 1.367 . S
C138 C151 1.481 . S
C139 N140 1.299 . S
C139 N141 1.379 . S
N140 N137 1.398 . S
N140 C139 1.299 . S
N141 C138 1.367 . S
N141 C139 1.379 . S
C142 N144 1.298 . S
C142 N146 1.367 . S
C142 C150 1.481 . S
C143 N145 1.299 . S
C143 N146 1.379 . S
N144 Zn128 2.036 . S
N144 C142 1.298 . S
N144 N145 1.398 . S
N145 C143 1.299 . S
N145 N144 1.398 . S
N146 C142 1.367 . S
N146 C143 1.379 . S
H147 C150 0.980 . S
H148 C150 0.981 . S
H149 C150 0.981 . S
C150 C142 1.481 . S
C150 H147 0.980 . S
C150 H148 0.981 . S
C150 H149 0.981 . S
C151 C138 1.481 . S
C151 H152 0.980 . S
C151 H153 0.981 . S
C151 H154 0.981 . S
H152 C151 0.980 . S
H153 C151 0.981 . S
H154 C151 0.981 . S
O155 Zn131 2.066 . S
O155 C134 1.256 . S
O156 Zn128 2.053 . S
O156 C134 1.244 . S
C157 O135 1.259 . S
C157 O136 1.254 . S
O158 Zn128 2.066 . S
O158 C130 1.256 . S
O159 C130 1.244 . S
O159 Zn131 2.053 . S
Zn160 O161 2.055 . S
Zn160 O168 2.046 . S
Zn160 N176 2.036 . S
Zn160 O188 2.053 . S
Zn160 O190 2.066 . S
O161 Zn160 2.055 . S
O161 C164 1.259 . S
C162 O190 1.256 . S
C162 O191 1.244 . S
Zn163 O165 2.046 . S
Zn163 O167 2.055 . S
Zn163 N169 2.036 . S
Zn163 O187 2.066 . S
Zn163 O191 2.053 . S
C164 O161 1.259 . S
C164 O165 1.254 . S
O165 Zn163 2.046 . S
O165 C164 1.254 . S
C166 O187 1.256 . S
C166 O188 1.244 . S
O167 Zn163 2.055 . S
O167 C189 1.259 . S
O168 Zn160 2.046 . S
O168 C189 1.254 . S
N169 Zn163 2.036 . S
N169 C170 1.298 . S
N169 N172 1.398 . S
C170 N169 1.298 . S
C170 N173 1.367 . S
C170 C183 1.481 . S
C171 N172 1.299 . S
C171 N173 1.379 . S
N172 N169 1.398 . S
N172 C171 1.299 . S
N173 C170 1.367 . S
N173 C171 1.379 . S
C174 N176 1.298 . S
C174 N178 1.367 . S
C174 C182 1.481 . S
C175 N177 1.299 . S
C175 N178 1.379 . S
N176 Zn160 2.036 . S
N176 C174 1.298 . S
N176 N177 1.398 . S
N177 C175 1.299 . S
N177 N176 1.398 . S
N178 C174 1.367 . S
N178 C175 1.379 . S
H179 C182 0.980 . S
H180 C182 0.981 . S
H181 C182 0.981 . S
C182 C174 1.481 . S
C182 H179 0.980 . S
C182 H180 0.981 . S
C182 H181 0.981 . S
C183 C170 1.481 . S
C183 H184 0.980 . S
C183 H185 0.981 . S
C183 H186 0.981 . S
H184 C183 0.980 . S
H185 C183 0.981 . S
H186 C183 0.981 . S
O187 Zn163 2.066 . S
O187 C166 1.256 . S
O188 Zn160 2.053 . S
O188 C166 1.244 . S
C189 O167 1.259 . S
C189 O168 1.254 . S
O190 Zn160 2.066 . S
O190 C162 1.256 . S
O191 C162 1.244 . S
O191 Zn163 2.053 . S
C192 C193 1.387 . S
C192 H196 0.950 . S
C192 C201 1.390 1_554 S
C193 C192 1.387 . S
C193 C195 1.387 . S
H194 C201 0.950 . S
C195 C193 1.387 . S
C195 C197 1.390 . S
C195 H199 0.950 . S
H196 C192 0.950 . S
C197 C195 1.390 . S
C197 C198 1.387 1_554 S
C197 H200 0.950 1_554 S
C198 C197 1.387 1_556 S
C198 C201 1.387 . S
H199 C195 0.950 . S
H200 C197 0.950 1_556 S
C201 C192 1.390 1_556 S
C201 H194 0.950 . S
C201 C198 1.387 . S
C202 C203 1.387 . S
C202 H206 0.950 . S
C202 C211 1.390 . S
C203 C202 1.387 . S
C203 C205 1.387 . S
H204 C211 0.950 . S
C205 C203 1.387 . S
C205 C207 1.390 . S
C205 H209 0.950 . S
H206 C202 0.950 . S
C207 C205 1.390 . S
C207 C208 1.387 . S
C207 H210 0.950 . S
C208 C207 1.387 . S
C208 C211 1.387 . S
H209 C205 0.950 . S
H210 C207 0.950 . S
C211 C202 1.390 . S
C211 H204 0.950 . S
C211 C208 1.387 . S
C212 C213 1.387 . S
C212 H216 0.950 . S
C212 C221 1.390 . S
C213 C212 1.387 . S
C213 C215 1.387 . S
H214 C221 0.950 . S
C215 C213 1.387 . S
C215 C217 1.390 . S
C215 H219 0.950 . S
H216 C212 0.950 . S
C217 C215 1.390 . S
C217 C218 1.387 . S
C217 H220 0.950 . S
C218 C217 1.387 . S
C218 C221 1.387 . S
H219 C215 0.950 . S
H220 C217 0.950 . S
C221 C212 1.390 . S
C221 H214 0.950 . S
C221 C218 1.387 . S
C222 C223 1.387 . S
C222 H226 0.950 . S
C222 C231 1.390 . S
C223 C222 1.387 . S
C223 C225 1.387 . S
H224 C231 0.950 . S
C225 C223 1.387 . S
C225 C227 1.390 . S
C225 H229 0.950 . S
H226 C222 0.950 . S
C227 C225 1.390 . S
C227 C228 1.387 . S
C227 H230 0.950 . S
C228 C227 1.387 . S
C228 C231 1.387 . S
H229 C225 0.950 . S
H230 C227 0.950 . S
C231 C222 1.390 . S
C231 H224 0.950 . S
C231 C228 1.387 . S
C232 C233 1.387 . S
C232 H236 0.950 . S
C232 C241 1.390 . S
C233 C232 1.387 . S
C233 C235 1.387 . S
H234 C241 0.950 . S
C235 C233 1.387 . S
C235 C237 1.390 . S
C235 H239 0.950 . S
H236 C232 0.950 . S
C237 C235 1.390 . S
C237 C238 1.387 . S
C237 H240 0.950 . S
C238 C237 1.387 . S
C238 C241 1.387 . S
H239 C235 0.950 . S
H240 C237 0.950 . S
C241 C232 1.390 . S
C241 H234 0.950 . S
C241 C238 1.387 . S
C242 C243 1.387 1_556 S
C242 H246 0.950 . S
C242 C251 1.390 . S
C243 C242 1.387 1_554 S
C243 C245 1.387 1_554 S
H244 C251 0.950 . S
C245 C243 1.387 1_556 S
C245 C247 1.390 . S
C245 H249 0.950 1_556 S
H246 C242 0.950 . S
C247 C245 1.390 . S
C247 C248 1.387 . S
C247 H250 0.950 . S
C248 C247 1.387 . S
C248 C251 1.387 . S
H249 C245 0.950 1_554 S
H250 C247 0.950 . S
C251 C242 1.390 . S
C251 H244 0.950 . S
C251 C248 1.387 . S
C252 C253 1.387 . S
C252 H256 0.950 . S
C252 C261 1.390 . S
C253 C252 1.387 . S
C253 C255 1.387 . S
H254 C261 0.950 . S
C255 C253 1.387 . S
C255 C257 1.390 . S
C255 H259 0.950 . S
H256 C252 0.950 . S
C257 C255 1.390 . S
C257 C258 1.387 . S
C257 H260 0.950 1_545 S
C258 C257 1.387 . S
C258 C261 1.387 . S
H259 C255 0.950 . S
H260 C257 0.950 1_565 S
C261 C252 1.390 . S
C261 H254 0.950 . S
C261 C258 1.387 . S
C262 C263 1.387 . S
C262 H266 0.950 . S
C262 C271 1.390 . S
C263 C262 1.387 . S
C263 C265 1.387 . S
H264 C271 0.950 . S
C265 C263 1.387 . S
C265 C267 1.390 . S
C265 H269 0.950 . S
H266 C262 0.950 . S
C267 C265 1.390 . S
C267 C268 1.387 . S
C267 H270 0.950 . S
C268 C267 1.387 . S
C268 C271 1.387 . S
H269 C265 0.950 . S
H270 C267 0.950 . S
C271 C262 1.390 . S
C271 H264 0.950 . S
C271 C268 1.387 . S
C272 C273 1.387 . S
C272 H276 0.950 1_556 S
C272 C281 1.390 . S
C273 C272 1.387 . S
C273 C275 1.387 . S
H274 C281 0.950 1_455 S
C275 C273 1.387 . S
C275 C277 1.390 . S
C275 H279 0.950 . S
H276 C272 0.950 1_554 S
C277 C275 1.390 . S
C277 C278 1.387 . S
C277 H280 0.950 . S
C278 C277 1.387 . S
C278 C281 1.387 . S
H279 C275 0.950 . S
H280 C277 0.950 . S
C281 C272 1.390 . S
C281 H274 0.950 1_655 S
C281 C278 1.387 . S
C282 C283 1.387 1_556 S
C282 H286 0.950 . S
C282 C291 1.390 . S
C283 C282 1.387 1_554 S
C283 C285 1.387 . S
H284 C291 0.950 . S
C285 C283 1.387 . S
C285 C287 1.390 . S
C285 H289 0.950 . S
H286 C282 0.950 . S
C287 C285 1.390 . S
C287 C288 1.387 1_554 S
C287 H290 0.950 1_565 S
C288 C287 1.387 1_556 S
C288 C291 1.387 . S
H289 C285 0.950 . S
H290 C287 0.950 1_545 S
C291 C282 1.390 . S
C291 H284 0.950 . S
C291 C288 1.387 . S
C292 C293 1.387 . S
C292 H296 0.950 . S
C292 C301 1.390 . S
C293 C292 1.387 . S
C293 C295 1.387 . S
H294 C301 0.950 1_556 S
C295 C293 1.387 . S
C295 C297 1.390 . S
C295 H299 0.950 . S
H296 C292 0.950 . S
C297 C295 1.390 . S
C297 C298 1.387 . S
C297 H300 0.950 . S
C298 C297 1.387 . S
C298 C301 1.387 . S
H299 C295 0.950 . S
H300 C297 0.950 . S
C301 C292 1.390 . S
C301 H294 0.950 1_554 S
C301 C298 1.387 . S
C302 C303 1.387 . S
C302 H306 0.950 . S
C302 C311 1.390 . S
C303 C302 1.387 . S
C303 C305 1.387 . S
H304 C311 0.950 . S
C305 C303 1.387 . S
C305 C307 1.390 . S
C305 H309 0.950 1_455 S
H306 C302 0.950 . S
C307 C305 1.390 . S
C307 C308 1.387 . S
C307 H310 0.950 . S
C308 C307 1.387 . S
C308 C311 1.387 . S
H309 C305 0.950 1_655 S
H310 C307 0.950 . S
C311 C302 1.390 . S
C311 H304 0.950 . S
C311 C308 1.387 . S
C312 C313 1.387 . S
C312 H316 0.950 . S
C312 C321 1.390 . S
C313 C312 1.387 . S
C313 C315 1.387 . S
H314 C321 0.950 . S
C315 C313 1.387 . S
C315 C317 1.390 . S
C315 H319 0.950 . S
H316 C312 0.950 . S
C317 C315 1.390 . S
C317 C318 1.387 . S
C317 H320 0.950 . S
C318 C317 1.387 . S
C318 C321 1.387 . S
H319 C315 0.950 . S
H320 C317 0.950 . S
C321 C312 1.390 . S
C321 H314 0.950 . S
C321 C318 1.387 . S
C322 C323 1.387 . S
C322 H326 0.950 . S
C322 C331 1.390 . S
C323 C322 1.387 . S
C323 C325 1.387 . S
H324 C331 0.950 . S
C325 C323 1.387 . S
C325 C327 1.390 . S
C325 H329 0.950 . S
H326 C322 0.950 . S
C327 C325 1.390 . S
C327 C328 1.387 . S
C327 H330 0.950 . S
C328 C327 1.387 . S
C328 C331 1.387 . S
H329 C325 0.950 . S
H330 C327 0.950 . S
C331 C322 1.390 . S
C331 H324 0.950 . S
C331 C328 1.387 . S
C332 C333 1.387 . S
C332 H336 0.950 . S
C332 C341 1.390 . S
C333 C332 1.387 . S
C333 C335 1.387 . S
H334 C341 0.950 . S
C335 C333 1.387 . S
C335 C337 1.390 . S
C335 H339 0.950 . S
H336 C332 0.950 . S
C337 C335 1.390 . S
C337 C338 1.387 . S
C337 H340 0.950 . S
C338 C337 1.387 . S
C338 C341 1.387 . S
H339 C335 0.950 . S
H340 C337 0.950 . S
C341 C332 1.390 . S
C341 H334 0.950 . S
C341 C338 1.387 . S
C342 C343 1.387 1_554 S
C342 H346 0.950 . S
C342 C351 1.390 1_554 S
C343 C342 1.387 1_556 S
C343 C345 1.387 . S
H344 C351 0.950 . S
C345 C343 1.387 . S
C345 C347 1.390 . S
C345 H349 0.950 . S
H346 C342 0.950 . S
C347 C345 1.390 . S
C347 C348 1.387 . S
C347 H350 0.950 . S
C348 C347 1.387 . S
C348 C351 1.387 . S
H349 C345 0.950 . S
H350 C347 0.950 . S
C351 C342 1.390 1_556 S
C351 H344 0.950 . S
C351 C348 1.387 . S
C352 C353 1.387 . S
C352 H356 0.950 1_554 S
C352 C361 1.390 1_554 S
C353 C352 1.387 . S
C353 C355 1.387 . S
H354 C361 0.950 . S
C355 C353 1.387 . S
C355 C357 1.390 . S
C355 H359 0.950 . S
H356 C352 0.950 1_556 S
C357 C355 1.390 . S
C357 C358 1.387 1_554 S
C357 H360 0.950 . S
C358 C357 1.387 1_556 S
C358 C361 1.387 . S
H359 C355 0.950 . S
H360 C357 0.950 . S
C361 C352 1.390 1_556 S
C361 H354 0.950 . S
C361 C358 1.387 . S
C362 C363 1.387 . S
C362 H366 0.950 . S
C362 C371 1.390 . S
C363 C362 1.387 . S
C363 C365 1.387 . S
H364 C371 0.950 . S
C365 C363 1.387 . S
C365 C367 1.390 . S
C365 H369 0.950 . S
H366 C362 0.950 . S
C367 C365 1.390 . S
C367 C368 1.387 . S
C367 H370 0.950 . S
C368 C367 1.387 . S
C368 C371 1.387 . S
H369 C365 0.950 . S
H370 C367 0.950 . S
C371 C362 1.390 . S
C371 H364 0.950 . S
C371 C368 1.387 . S
C193 C29 1.171 . S
C198 C2 1.179 . S
C203 C61 1.172 . S
C208 C34 1.180 1_554 S
C213 C66 1.180 . S
C218 C93 1.172 . S
C223 C98 1.181 . S
C228 C125 1.173 . S
C233 C134 1.181 . S
C238 C132 1.173 . S
C243 C189 1.174 . S
C248 C162 1.181 . S
C253 C4 1.568 . S
C258 N178 1.546 1_545 S
C263 N18 1.546 . S
C268 C36 1.567 . S
C273 C68 1.565 . S
C278 N50 1.549 1_655 S
C283 C100 1.567 . S
C288 N82 1.546 1_565 S
C293 C157 1.567 . S
C298 N114 1.546 . S
C303 N141 1.547 1_455 S
C308 C164 1.568 . S
C313 C6 1.869 . S
C318 N146 1.744 . S
C323 C38 1.870 . S
C328 N173 1.746 . S
C333 C70 1.870 . S
C338 N13 1.746 . S
C343 C102 1.869 1_556 S
C348 N45 1.744 . S
C353 C130 1.869 . S
C358 N77 1.744 . S
C363 N109 1.743 . S
C368 C166 1.869 . S
