# Generated by pormake.
# Topology cbo, (4)-cn, num edge types: 1
# Building blocks:
#     Node 0, Type 0, BuildingBlock: NAHDIM_clean_sbu_0, # of connection points: 4
#     Node 1, Type 0, BuildingBlock: NAHDIM_clean_sbu_0, # of connection points: 4
#     Node 2, Type 0, BuildingBlock: NAHDIM_clean_sbu_0, # of connection points: 4
#     Node 3, Type 0, BuildingBlock: NAHDIM_clean_sbu_0, # of connection points: 4
#     Node 4, Type 0, BuildingBlock: NAHDIM_clean_sbu_0, # of connection points: 4
#     Node 5, Type 0, BuildingBlock: NAHDIM_clean_sbu_0, # of connection points: 4
#     Node 6, Type 0, BuildingBlock: NAHDIM_clean_sbu_0, # of connection points: 4
#     Node 7, Type 0, BuildingBlock: NAHDIM_clean_sbu_0, # of connection points: 4
#     Node 8, Type 0, BuildingBlock: NAHDIM_clean_sbu_0, # of connection points: 4
#     Node 9, Type 0, BuildingBlock: NAHDIM_clean_sbu_0, # of connection points: 4
#     Node 10, Type 0, BuildingBlock: NAHDIM_clean_sbu_0, # of connection points: 4
#     Node 11, Type 0, BuildingBlock: NAHDIM_clean_sbu_0, # of connection points: 4
#     Node 12, Type 0, BuildingBlock: NAHDIM_clean_sbu_0, # of connection points: 4
#     Node 13, Type 0, BuildingBlock: NAHDIM_clean_sbu_0, # of connection points: 4
#     Node 14, Type 0, BuildingBlock: NAHDIM_clean_sbu_0, # of connection points: 4
#     Node 15, Type 0, BuildingBlock: NAHDIM_clean_sbu_0, # of connection points: 4
#     Node 16, Type 0, BuildingBlock: NAHDIM_clean_sbu_0, # of connection points: 4
#     Node 17, Type 0, BuildingBlock: NAHDIM_clean_sbu_0, # of connection points: 4
#     Node 18, Type 0, BuildingBlock: NAHDIM_clean_sbu_0, # of connection points: 4
#     Node 19, Type 0, BuildingBlock: NAHDIM_clean_sbu_0, # of connection points: 4
#     Node 20, Type 0, BuildingBlock: NAHDIM_clean_sbu_0, # of connection points: 4
#     Node 21, Type 0, BuildingBlock: NAHDIM_clean_sbu_0, # of connection points: 4
#     Node 22, Type 0, BuildingBlock: NAHDIM_clean_sbu_0, # of connection points: 4
#     Node 23, Type 0, BuildingBlock: NAHDIM_clean_sbu_0, # of connection points: 4
#     Edge 24, Type (0, 0), BuildingBlock: MIFKUJ_clean_linker_0, # of connection points: 2
#     Edge 25, Type (0, 0), BuildingBlock: MIFKUJ_clean_linker_0, # of connection points: 2
#     Edge 26, Type (0, 0), BuildingBlock: MIFKUJ_clean_linker_0, # of connection points: 2
#     Edge 27, Type (0, 0), BuildingBlock: MIFKUJ_clean_linker_0, # of connection points: 2
#     Edge 28, Type (0, 0), BuildingBlock: MIFKUJ_clean_linker_0, # of connection points: 2
#     Edge 29, Type (0, 0), BuildingBlock: MIFKUJ_clean_linker_0, # of connection points: 2
#     Edge 30, Type (0, 0), BuildingBlock: MIFKUJ_clean_linker_0, # of connection points: 2
#     Edge 31, Type (0, 0), BuildingBlock: MIFKUJ_clean_linker_0, # of connection points: 2
#     Edge 32, Type (0, 0), BuildingBlock: MIFKUJ_clean_linker_0, # of connection points: 2
#     Edge 33, Type (0, 0), BuildingBlock: MIFKUJ_clean_linker_0, # of connection points: 2
#     Edge 34, Type (0, 0), BuildingBlock: MIFKUJ_clean_linker_0, # of connection points: 2
#     Edge 35, Type (0, 0), BuildingBlock: MIFKUJ_clean_linker_0, # of connection points: 2
#     Edge 36, Type (0, 0), BuildingBlock: MIFKUJ_clean_linker_0, # of connection points: 2
#     Edge 37, Type (0, 0), BuildingBlock: MIFKUJ_clean_linker_0, # of connection points: 2
#     Edge 38, Type (0, 0), BuildingBlock: MIFKUJ_clean_linker_0, # of connection points: 2
#     Edge 39, Type (0, 0), BuildingBlock: MIFKUJ_clean_linker_0, # of connection points: 2
#     Edge 40, Type (0, 0), BuildingBlock: MIFKUJ_clean_linker_0, # of connection points: 2
#     Edge 41, Type (0, 0), BuildingBlock: MIFKUJ_clean_linker_0, # of connection points: 2
#     Edge 42, Type (0, 0), BuildingBlock: MIFKUJ_clean_linker_0, # of connection points: 2
#     Edge 43, Type (0, 0), BuildingBlock: MIFKUJ_clean_linker_0, # of connection points: 2
#     Edge 44, Type (0, 0), BuildingBlock: MIFKUJ_clean_linker_0, # of connection points: 2
#     Edge 45, Type (0, 0), BuildingBlock: MIFKUJ_clean_linker_0, # of connection points: 2
#     Edge 46, Type (0, 0), BuildingBlock: MIFKUJ_clean_linker_0, # of connection points: 2
#     Edge 47, Type (0, 0), BuildingBlock: MIFKUJ_clean_linker_0, # of connection points: 2
#     Edge 48, Type (0, 0), BuildingBlock: MIFKUJ_clean_linker_0, # of connection points: 2
#     Edge 49, Type (0, 0), BuildingBlock: MIFKUJ_clean_linker_0, # of connection points: 2
#     Edge 50, Type (0, 0), BuildingBlock: MIFKUJ_clean_linker_0, # of connection points: 2
#     Edge 51, Type (0, 0), BuildingBlock: MIFKUJ_clean_linker_0, # of connection points: 2
#     Edge 52, Type (0, 0), BuildingBlock: MIFKUJ_clean_linker_0, # of connection points: 2
#     Edge 53, Type (0, 0), BuildingBlock: MIFKUJ_clean_linker_0, # of connection points: 2
#     Edge 54, Type (0, 0), BuildingBlock: MIFKUJ_clean_linker_0, # of connection points: 2
#     Edge 55, Type (0, 0), BuildingBlock: MIFKUJ_clean_linker_0, # of connection points: 2
#     Edge 56, Type (0, 0), BuildingBlock: MIFKUJ_clean_linker_0, # of connection points: 2
#     Edge 57, Type (0, 0), BuildingBlock: MIFKUJ_clean_linker_0, # of connection points: 2
#     Edge 58, Type (0, 0), BuildingBlock: MIFKUJ_clean_linker_0, # of connection points: 2
#     Edge 59, Type (0, 0), BuildingBlock: MIFKUJ_clean_linker_0, # of connection points: 2
#     Edge 60, Type (0, 0), BuildingBlock: MIFKUJ_clean_linker_0, # of connection points: 2
#     Edge 61, Type (0, 0), BuildingBlock: MIFKUJ_clean_linker_0, # of connection points: 2
#     Edge 62, Type (0, 0), BuildingBlock: MIFKUJ_clean_linker_0, # of connection points: 2
#     Edge 63, Type (0, 0), BuildingBlock: MIFKUJ_clean_linker_0, # of connection points: 2
#     Edge 64, Type (0, 0), BuildingBlock: MIFKUJ_clean_linker_0, # of connection points: 2
#     Edge 65, Type (0, 0), BuildingBlock: MIFKUJ_clean_linker_0, # of connection points: 2
#     Edge 66, Type (0, 0), BuildingBlock: MIFKUJ_clean_linker_0, # of connection points: 2
#     Edge 67, Type (0, 0), BuildingBlock: MIFKUJ_clean_linker_0, # of connection points: 2
#     Edge 68, Type (0, 0), BuildingBlock: MIFKUJ_clean_linker_0, # of connection points: 2
#     Edge 69, Type (0, 0), BuildingBlock: MIFKUJ_clean_linker_0, # of connection points: 2
#     Edge 70, Type (0, 0), BuildingBlock: MIFKUJ_clean_linker_0, # of connection points: 2
#     Edge 71, Type (0, 0), BuildingBlock: MIFKUJ_clean_linker_0, # of connection points: 2
# Relax obj value: 0.275
# Max RMSD: 0.280
# Mean RMSD: 0.265
data_MOF--net-cbo--node1-NAHDIM_clean_sbu_0--edge1-MIFKUJ_clean_linker_0
_symmetry_space_group_name_H-M    P1
_symmetry_Int_Tables_number       1
_symmetry_cell_setting            triclinic
loop_
_symmetry_equiv_pos_as_xyz
'x, y, z'
_cell_length_a     66.749918
_cell_length_b     64.11873
_cell_length_c     65.420571
_cell_angle_alpha  89.978894
_cell_angle_beta   89.995972
_cell_angle_gamma 90.009894
loop_
_atom_site_label
_atom_site_type_symbol
_atom_site_fract_x
_atom_site_fract_y
_atom_site_fract_z
_atom_type_partial_charge
C0 C 0.01817 0.18055 0.29266 0.0
O1 O 0.01938 0.19955 0.28523 0.0
O2 O 0.06131 0.20552 0.2744 0.0
Zn3 Zn 0.06023 0.18685 0.29912 0.0
O4 O 0.06661 0.20139 0.32554 0.0
C5 C 0.08046 0.1476 0.28825 0.0
O6 O 0.06292 0.14118 0.28166 0.0
O7 O 0.03374 0.1721 0.30013 0.0
C8 C 0.08477 0.20697 0.32772 0.0
O9 O 0.09711 0.20495 0.31219 0.0
C10 C 0.06691 0.22444 0.27379 0.0
O11 O 0.07186 0.23409 0.29075 0.0
O12 O 0.08214 0.16576 0.29577 0.0
C13 C 0.47232 0.80529 0.78817 0.0
O14 O 0.46996 0.79146 0.77356 0.0
O15 O 0.43152 0.77361 0.77507 0.0
Zn16 Zn 0.43287 0.79136 0.80027 0.0
O17 O 0.42754 0.7759 0.82645 0.0
C18 C 0.40851 0.82595 0.78459 0.0
O19 O 0.42293 0.8288 0.77121 0.0
O20 O 0.45864 0.80751 0.80151 0.0
C21 C 0.40929 0.77116 0.82961 0.0
O22 O 0.39626 0.77403 0.81481 0.0
C23 C 0.42444 0.75531 0.77341 0.0
O24 O 0.41861 0.74523 0.78984 0.0
O25 O 0.41019 0.81168 0.79794 0.0
C26 C 0.51866 0.31275 0.68949 0.0
O27 O 0.51983 0.2931 0.68395 0.0
O28 O 0.56553 0.28528 0.70808 0.0
Zn29 Zn 0.56169 0.30973 0.6892 0.0
O30 O 0.56663 0.30217 0.65995 0.0
C31 C 0.58308 0.33925 0.71427 0.0
O32 O 0.56806 0.33613 0.72689 0.0
O33 O 0.53468 0.32297 0.69251 0.0
C34 C 0.58306 0.29324 0.65554 0.0
O35 O 0.5952 0.28781 0.67043 0.0
C36 C 0.55576 0.28386 0.7247 0.0
O37 O 0.54121 0.29716 0.72825 0.0
O38 O 0.58307 0.33019 0.69701 0.0
C39 C 0.9763 0.67419 0.18856 0.0
O40 O 0.97351 0.69407 0.19253 0.0
O41 O 0.92968 0.68719 0.2161 0.0
Zn42 Zn 0.9333 0.67333 0.18884 0.0
O43 O 0.92522 0.69171 0.16553 0.0
C44 C 0.90803 0.64038 0.20387 0.0
O45 O 0.91619 0.64541 0.22147 0.0
O46 O 0.96119 0.66246 0.18598 0.0
C47 C 0.90726 0.69828 0.16609 0.0
O48 O 0.89663 0.69504 0.1827 0.0
C49 C 0.92924 0.70654 0.22018 0.0
O50 O 0.93206 0.72021 0.2055 0.0
O51 O 0.9139 0.64952 0.18774 0.0
C52 C 0.34145 0.06253 0.21913 0.0
O53 O 0.33849 0.04935 0.20406 0.0
O54 O 0.29456 0.09268 0.19598 0.0
Zn55 Zn 0.29905 0.06843 0.21478 0.0
O56 O 0.29706 0.04248 0.19777 0.0
C57 C 0.26589 0.05426 0.24044 0.0
O58 O 0.26933 0.03591 0.23224 0.0
O59 O 0.32648 0.07174 0.22703 0.0
C60 C 0.28161 0.03923 0.18687 0.0
O61 O 0.26672 0.05262 0.18746 0.0
C62 C 0.30681 0.09736 0.18183 0.0
O63 O 0.32306 0.08607 0.17938 0.0
O64 O 0.27725 0.06952 0.23601 0.0
C65 C 0.16485 0.91451 0.7307 0.0
O66 O 0.17744 0.8989 0.72865 0.0
O67 O 0.20057 0.91042 0.69412 0.0
Zn68 Zn 0.19793 0.93499 0.71301 0.0
O69 O 0.20085 0.96133 0.69678 0.0
C70 C 0.22113 0.9247 0.75027 0.0
O71 O 0.20439 0.91743 0.75805 0.0
O72 O 0.17065 0.93278 0.72598 0.0
C73 C 0.21744 0.96426 0.68767 0.0
O74 O 0.23165 0.9502 0.68948 0.0
C75 C 0.19735 0.91078 0.67499 0.0
O76 O 0.19226 0.92836 0.66609 0.0
O77 O 0.22095 0.93314 0.73271 0.0
C78 C 0.84857 0.43228 0.78817 0.0
O79 O 0.84684 0.44457 0.80413 0.0
O80 O 0.80797 0.40608 0.81851 0.0
Zn81 Zn 0.80738 0.42796 0.79652 0.0
O82 O 0.80584 0.45636 0.80936 0.0
C83 C 0.76619 0.4265 0.7891 0.0
O84 O 0.76688 0.43365 0.8079 0.0
O85 O 0.83284 0.42416 0.78065 0.0
C86 C 0.79897 0.47204 0.7998 0.0
O87 O 0.79345 0.46994 0.78064 0.0
C88 C 0.80263 0.40916 0.8369 0.0
O89 O 0.79642 0.42775 0.84246 0.0
O90 O 0.78255 0.42291 0.77979 0.0
C91 C 0.65122 0.55917 0.28473 0.0
O92 O 0.65611 0.54759 0.30053 0.0
O93 O 0.7005 0.5878 0.30019 0.0
Zn94 Zn 0.69381 0.56358 0.28184 0.0
O95 O 0.69874 0.5365 0.29658 0.0
C96 C 0.71589 0.58261 0.24958 0.0
O97 O 0.70664 0.59924 0.25656 0.0
O98 O 0.66502 0.56683 0.27367 0.0
C99 C 0.71283 0.53508 0.30958 0.0
O100 O 0.7241 0.55143 0.31332 0.0
C101 C 0.69456 0.58922 0.31859 0.0
O102 O 0.68375 0.57412 0.32651 0.0
O103 O 0.71203 0.56498 0.25753 0.0
C104 C 0.18559 0.26774 0.01485 0.0
O105 O 0.20508 0.26539 0.01641 0.0
O106 O 0.21469 0.26371 0.05982 0.0
Zn107 Zn 0.1898 0.28088 0.05657 0.0
O108 O 0.19595 0.31142 0.05809 0.0
C109 C 0.15358 0.27111 0.08035 0.0
O110 O 0.14405 0.27119 0.06278 0.0
O111 O 0.17576 0.27414 0.03024 0.0
C112 C 0.18118 0.3238 0.05657 0.0
O113 O 0.16336 0.31608 0.05263 0.0
C114 C 0.22559 0.26675 0.07545 0.0
O115 O 0.22093 0.28197 0.08803 0.0
O116 O 0.17233 0.27448 0.08072 0.0
C117 C 0.6755 0.23674 0.97925 0.0
O118 O 0.69088 0.2491 0.97608 0.0
O119 O 0.70801 0.24158 0.93749 0.0
Zn120 Zn 0.68488 0.2215 0.93856 0.0
O121 O 0.69314 0.19159 0.93413 0.0
C122 C 0.67289 0.2327 0.89806 0.0
O123 O 0.69238 0.23277 0.89533 0.0
O124 O 0.67034 0.22389 0.96543 0.0
C125 C 0.70594 0.18576 0.92092 0.0
O126 O 0.71565 0.19984 0.91022 0.0
C127 C 0.72641 0.23797 0.94099 0.0
O128 O 0.73226 0.21914 0.94614 0.0
O129 O 0.66589 0.22882 0.91573 0.0
C130 C 0.8403 0.79013 0.46981 0.0
O131 O 0.84916 0.80101 0.45538 0.0
O132 O 0.79151 0.75933 0.43421 0.0
Zn133 Zn 0.81256 0.78146 0.43747 0.0
O134 O 0.80209 0.80999 0.43068 0.0
C135 C 0.83814 0.75654 0.41194 0.0
O136 O 0.82967 0.74118 0.42205 0.0
O137 O 0.82417 0.78048 0.4657 0.0
C138 C 0.79684 0.81306 0.41225 0.0
O139 O 0.79731 0.79735 0.39936 0.0
C140 C 0.773 0.76198 0.43051 0.0
O141 O 0.76564 0.78096 0.42987 0.0
O142 O 0.8338 0.77522 0.41662 0.0
C143 C 0.30851 0.73319 0.51762 0.0
O144 O 0.30129 0.75064 0.52515 0.0
O145 O 0.27204 0.73521 0.55871 0.0
Zn146 Zn 0.29662 0.71707 0.55667 0.0
O147 O 0.29174 0.68779 0.56677 0.0
C148 C 0.3142 0.74235 0.58883 0.0
O149 O 0.29623 0.75065 0.58971 0.0
O150 O 0.30758 0.71663 0.52824 0.0
C151 C 0.29106 0.68515 0.58604 0.0
O152 O 0.29198 0.70153 0.59805 0.0
C153 C 0.25602 0.72984 0.56779 0.0
O154 O 0.25409 0.71062 0.57442 0.0
O155 O 0.31793 0.7287 0.57527 0.0
C156 C 0.96777 0.83505 0.71464 0.0
O157 O 0.96679 0.81463 0.71589 0.0
O158 O 0.92587 0.80818 0.73184 0.0
Zn159 Zn 0.92609 0.82927 0.70894 0.0
O160 O 0.92316 0.81665 0.68088 0.0
C161 C 0.88729 0.84154 0.72251 0.0
O162 O 0.88716 0.82189 0.72818 0.0
O163 O 0.95186 0.84528 0.71102 0.0
C164 C 0.90822 0.80521 0.67646 0.0
O165 O 0.89524 0.8005 0.69082 0.0
C166 C 0.92565 0.78836 0.73151 0.0
O167 O 0.92619 0.77845 0.71396 0.0
O168 O 0.90275 0.8488 0.71364 0.0
C169 C 0.52788 0.17036 0.22113 0.0
O170 O 0.53458 0.18066 0.23707 0.0
O171 O 0.56781 0.20409 0.22776 0.0
Zn172 Zn 0.5649 0.18468 0.20381 0.0
O173 O 0.56954 0.19936 0.17704 0.0
C174 C 0.59868 0.15693 0.1941 0.0
O175 O 0.59695 0.16389 0.1753 0.0
O176 O 0.53815 0.1702 0.20476 0.0
C177 C 0.58531 0.21029 0.17503 0.0
O178 O 0.59741 0.2124 0.19074 0.0
C179 C 0.56796 0.22388 0.22861 0.0
O180 O 0.56545 0.23492 0.2119 0.0
O181 O 0.58651 0.16317 0.20775 0.0
C182 C 0.46412 0.66743 0.2833 0.0
O183 O 0.45884 0.67859 0.26735 0.0
O184 O 0.42266 0.70059 0.27566 0.0
Zn185 Zn 0.42608 0.68142 0.29968 0.0
O186 O 0.42233 0.69643 0.32646 0.0
C187 C 0.3873 0.6618 0.30534 0.0
O188 O 0.38366 0.67841 0.31646 0.0
O189 O 0.4527 0.66679 0.29883 0.0
C190 C 0.41205 0.71304 0.32819 0.0
O191 O 0.40452 0.72173 0.31172 0.0
C192 C 0.43013 0.71863 0.27317 0.0
O193 O 0.44179 0.7266 0.28734 0.0
O194 O 0.40444 0.65963 0.29712 0.0
C195 C 0.02944 0.3146 0.78363 0.0
O196 O 0.03114 0.29826 0.77164 0.0
O197 O 0.07187 0.2873 0.76794 0.0
Zn198 Zn 0.0703 0.30433 0.79364 0.0
O199 O 0.07574 0.28739 0.81887 0.0
C200 C 0.09297 0.33997 0.77913 0.0
O201 O 0.07751 0.34276 0.76699 0.0
O202 O 0.0441 0.31973 0.79497 0.0
C203 C 0.0932 0.27955 0.81991 0.0
O204 O 0.10523 0.28151 0.80412 0.0
C205 C 0.07268 0.26758 0.76634 0.0
O206 O 0.07198 0.25593 0.78284 0.0
O207 O 0.09271 0.32504 0.79188 0.0
C208 C 0.70201 0.97698 0.84314 0.0
O209 O 0.71799 0.96804 0.83538 0.0
O210 O 0.70526 0.93169 0.81179 0.0
Zn211 Zn 0.68252 0.93867 0.8307 0.0
O212 O 0.65596 0.93494 0.81685 0.0
C213 C 0.6996 0.91387 0.86264 0.0
O214 O 0.7153 0.92558 0.85874 0.0
O215 O 0.68533 0.96742 0.84272 0.0
C216 C 0.65404 0.92089 0.8033 0.0
O217 O 0.66998 0.91053 0.7973 0.0
C218 C 0.71158 0.94158 0.79625 0.0
O219 O 0.70277 0.95902 0.79073 0.0
O220 O 0.68341 0.91724 0.85301 0.0
C221 C 0.7923 0.01439 0.3184 0.0
O222 O 0.78643 0.01587 0.29929 0.0
O223 O 0.77594 0.06214 0.29521 0.0
Zn224 Zn 0.80038 0.05795 0.31275 0.0
O225 O 0.82601 0.06114 0.29707 0.0
C226 C 0.79172 0.08241 0.34988 0.0
O227 O 0.78036 0.06676 0.35568 0.0
O228 O 0.79912 0.03046 0.32736 0.0
C229 C 0.82886 0.07904 0.28923 0.0
O230 O 0.81424 0.09275 0.28985 0.0
C231 C 0.7755 0.06247 0.27579 0.0
O232 O 0.79203 0.05908 0.26542 0.0
O233 O 0.80103 0.08136 0.333 0.0
C234 C 0.18923 0.52709 0.14673 0.0
O235 O 0.17366 0.53958 0.14569 0.0
O236 O 0.22472 0.55899 0.19485 0.0
Zn237 Zn 0.20526 0.56032 0.17132 0.0
O238 O 0.17752 0.56886 0.18031 0.0
C239 C 0.22603 0.59699 0.15734 0.0
O240 O 0.23246 0.59705 0.17631 0.0
O241 O 0.20445 0.53266 0.15703 0.0
C242 C 0.17444 0.58786 0.18492 0.0
O243 O 0.18964 0.60086 0.18516 0.0
C244 C 0.22092 0.56437 0.21314 0.0
O245 O 0.20263 0.56994 0.21811 0.0
O246 O 0.21471 0.58226 0.15135 0.0
C247 C 0.30082 0.48193 0.67764 0.0
O248 O 0.29978 0.47976 0.69758 0.0
O249 O 0.27546 0.43792 0.69966 0.0
Zn250 Zn 0.29776 0.43749 0.67897 0.0
O251 O 0.32385 0.42781 0.69106 0.0
C252 C 0.27549 0.40503 0.65827 0.0
O253 O 0.26292 0.40778 0.67348 0.0
O254 O 0.30059 0.46579 0.66641 0.0
C255 C 0.32564 0.40833 0.69428 0.0
O256 O 0.31012 0.39615 0.69116 0.0
C257 C 0.27665 0.43152 0.718 0.0
O258 O 0.29403 0.42539 0.72523 0.0
O259 O 0.29089 0.41662 0.65697 0.0
C260 C 0.8033 0.69635 0.97611 0.0
O261 O 0.78425 0.701 0.97392 0.0
O262 O 0.78317 0.71785 0.93067 0.0
Zn263 Zn 0.80157 0.69315 0.93235 0.0
O264 O 0.78833 0.66634 0.92436 0.0
C265 C 0.83547 0.71305 0.91334 0.0
O266 O 0.83402 0.72564 0.92912 0.0
O267 O 0.8136 0.69176 0.96041 0.0
C268 C 0.78121 0.66532 0.90638 0.0
O269 O 0.78091 0.6823 0.89512 0.0
C270 C 0.76415 0.71792 0.93118 0.0
O271 O 0.75438 0.70022 0.93299 0.0
O272 O 0.82341 0.69782 0.91185 0.0
C273 C 0.32203 0.81369 0.02195 0.0
O274 O 0.30406 0.82203 0.02117 0.0
O275 O 0.29267 0.79445 0.06975 0.0
Zn276 Zn 0.31538 0.81475 0.06557 0.0
O277 O 0.3067 0.84456 0.06811 0.0
C278 C 0.32841 0.81371 0.10659 0.0
O279 O 0.31036 0.8215 0.10901 0.0
O280 O 0.32976 0.80958 0.03921 0.0
C281 C 0.28893 0.85059 0.07173 0.0
O282 O 0.27436 0.83682 0.0722 0.0
C283 C 0.28722 0.78056 0.05705 0.0
O284 O 0.29566 0.77982 0.03895 0.0
O285 O 0.33448 0.80951 0.08864 0.0
C286 C 0.191 0.19508 0.51611 0.0
O287 O 0.20868 0.2039 0.51789 0.0
O288 O 0.21442 0.21132 0.56149 0.0
Zn289 Zn 0.19679 0.18606 0.55886 0.0
O290 O 0.21121 0.15929 0.56491 0.0
C291 C 0.16443 0.20536 0.58012 0.0
O292 O 0.16667 0.2192 0.56547 0.0
O293 O 0.1834 0.18585 0.53144 0.0
C294 C 0.2167 0.1568 0.58335 0.0
O295 O 0.21402 0.17217 0.59636 0.0
C296 C 0.23313 0.21194 0.56498 0.0
O297 O 0.2433 0.19448 0.56651 0.0
O298 O 0.17549 0.18926 0.58019 0.0
C299 C 0.67682 0.31394 0.4601 0.0
O300 O 0.66805 0.32204 0.44396 0.0
O301 O 0.72821 0.28131 0.43242 0.0
Zn302 Zn 0.70743 0.30394 0.43089 0.0
O303 O 0.71845 0.33185 0.4219 0.0
C304 C 0.69063 0.28261 0.39588 0.0
O305 O 0.70887 0.27509 0.39438 0.0
O306 O 0.69415 0.30598 0.45826 0.0
C307 C 0.72148 0.33459 0.40289 0.0
O308 O 0.71889 0.31886 0.39034 0.0
C309 C 0.74586 0.28182 0.42519 0.0
O310 O 0.75249 0.29903 0.41664 0.0
O311 O 0.68643 0.29501 0.41042 0.0
H312 H 0.11398 0.261 0.08565 0.0
H313 H 0.09642 0.2551 0.118 0.0
H314 H 0.15097 0.26782 0.15113 0.0
H315 H 0.16866 0.27331 0.11901 0.0
H316 H 0.13348 0.23433 0.16596 0.0
H317 H 0.11271 0.30369 0.14823 0.0
H318 H 0.09819 0.33104 0.12624 0.0
H319 H 0.04197 0.29847 0.12542 0.0
H320 H 0.05625 0.27077 0.14719 0.0
H321 H 0.0951 0.25377 0.26491 0.0
H322 H 0.10657 0.26413 0.23081 0.0
H323 H 0.05991 0.227 0.20341 0.0
H324 H 0.04872 0.21601 0.23746 0.0
H325 H 0.07163 0.27244 0.1855 0.0
H326 H 0.09414 0.20194 0.20191 0.0
H327 H 0.109 0.1759 0.22514 0.0
H328 H 0.16282 0.21239 0.22904 0.0
H329 H 0.14804 0.23891 0.20618 0.0
C330 C 0.12222 0.26255 0.09983 0.0
C331 C 0.14272 0.2676 0.09975 0.0
C332 C 0.11214 0.25928 0.11831 0.0
C333 C 0.12235 0.26121 0.13699 0.0
C334 C 0.1428 0.26622 0.1369 0.0
C335 C 0.15288 0.26938 0.11849 0.0
C336 C 0.11195 0.25759 0.15671 0.0
C337 C 0.12006 0.24282 0.17023 0.0
C338 C 0.09424 0.2684 0.16221 0.0
C339 C 0.08561 0.28504 0.14915 0.0
C340 C 0.0973 0.30227 0.14322 0.0
C341 C 0.0891 0.31785 0.13082 0.0
C342 C 0.06919 0.31646 0.12439 0.0
C343 C 0.05741 0.29951 0.13039 0.0
C344 C 0.06554 0.28387 0.14276 0.0
C345 C 0.08696 0.24825 0.25165 0.0
C346 C 0.07113 0.23398 0.25376 0.0
C347 C 0.09354 0.25415 0.23222 0.0
C348 C 0.08408 0.24623 0.21473 0.0
C349 C 0.0673 0.23328 0.2168 0.0
C350 C 0.061 0.22698 0.23621 0.0
C351 C 0.09329 0.24936 0.19449 0.0
C352 C 0.08499 0.26397 0.18101 0.0
C353 C 0.11089 0.23852 0.189 0.0
C354 C 0.11989 0.22253 0.20257 0.0
C355 C 0.10905 0.20453 0.20792 0.0
C356 C 0.11747 0.18966 0.22097 0.0
C357 C 0.13683 0.1925 0.22859 0.0
C358 C 0.14781 0.21022 0.22315 0.0
C359 C 0.13941 0.22518 0.21016 0.0
H360 H 0.14334 0.18094 0.23867 0.0
H361 H 0.06287 0.32854 0.1148 0.0
H362 H 0.43953 0.76798 0.73682 0.0
H363 H 0.42413 0.76296 0.70333 0.0
H364 H 0.38004 0.72209 0.73018 0.0
H365 H 0.39565 0.72665 0.7637 0.0
H366 H 0.38836 0.71044 0.69147 0.0
H367 H 0.37012 0.77268 0.72691 0.0
H368 H 0.37634 0.80543 0.74564 0.0
H369 H 0.40576 0.83111 0.69297 0.0
H370 H 0.40001 0.79837 0.67403 0.0
H371 H 0.30813 0.76402 0.62422 0.0
H372 H 0.32979 0.76469 0.65426 0.0
H373 H 0.37441 0.72906 0.62175 0.0
H374 H 0.35263 0.72787 0.59177 0.0
H375 H 0.36544 0.77847 0.6637 0.0
H376 H 0.39538 0.69394 0.65387 0.0
H377 H 0.38442 0.66062 0.63863 0.0
H378 H 0.3229 0.67878 0.64568 0.0
H379 H 0.33347 0.71209 0.66109 0.0
C380 C 0.42691 0.75743 0.73549 0.0
C381 C 0.41855 0.74799 0.75291 0.0
C382 C 0.41811 0.75463 0.71637 0.0
C383 C 0.40065 0.74262 0.71442 0.0
C384 C 0.39344 0.73154 0.73141 0.0
C385 C 0.40238 0.73416 0.75056 0.0
C386 C 0.38858 0.74376 0.69548 0.0
C387 C 0.38349 0.72529 0.68527 0.0
C388 C 0.38159 0.76314 0.68788 0.0
C389 C 0.38481 0.78299 0.69911 0.0
C390 C 0.37803 0.78526 0.71936 0.0
C391 C 0.38147 0.80382 0.73002 0.0
C392 C 0.39149 0.82032 0.72052 0.0
C393 C 0.39803 0.8183 0.70032 0.0
C394 C 0.39468 0.79975 0.68961 0.0
C395 C 0.32267 0.75657 0.62334 0.0
C396 C 0.32857 0.74569 0.60569 0.0
C397 C 0.33504 0.75698 0.64054 0.0
C398 C 0.35353 0.74658 0.64037 0.0
C399 C 0.36 0.73681 0.62235 0.0
C400 C 0.34758 0.73625 0.60519 0.0
C401 C 0.36558 0.74516 0.65934 0.0
C402 C 0.37056 0.76361 0.66967 0.0
C403 C 0.37174 0.72571 0.66749 0.0
C404 C 0.36525 0.7056 0.65841 0.0
C405 C 0.37952 0.69079 0.6522 0.0
C406 C 0.37337 0.67192 0.64351 0.0
C407 C 0.35297 0.66763 0.64109 0.0
C408 C 0.33868 0.68217 0.64743 0.0
C409 C 0.34475 0.70106 0.65612 0.0
H410 H 0.34823 0.65302 0.63435 0.0
H411 H 0.39414 0.83467 0.72878 0.0
H412 H 0.54005 0.27903 0.76296 0.0
H413 H 0.55728 0.26503 0.79289 0.0
H414 H 0.60687 0.24613 0.75491 0.0
H415 H 0.58967 0.25984 0.72483 0.0
H416 H 0.60141 0.21924 0.78706 0.0
H417 H 0.60673 0.2919 0.77479 0.0
H418 H 0.59529 0.32777 0.76863 0.0
H419 H 0.56758 0.32918 0.82784 0.0
H420 H 0.57845 0.29297 0.83417 0.0
H421 H 0.68243 0.2318 0.85755 0.0
H422 H 0.65984 0.23624 0.82843 0.0
H423 H 0.61027 0.2458 0.86962 0.0
H424 H 0.6327 0.24104 0.89893 0.0
H425 H 0.61474 0.2762 0.83663 0.0
H426 H 0.61197 0.20171 0.84794 0.0
H427 H 0.62688 0.16685 0.85257 0.0
H428 H 0.65425 0.17098 0.7933 0.0
H429 H 0.63974 0.20602 0.78845 0.0
C430 C 0.55437 0.27138 0.76086 0.0
C431 C 0.56369 0.27096 0.74159 0.0
C432 C 0.56419 0.2634 0.77799 0.0
C433 C 0.58353 0.255 0.77614 0.0
C434 C 0.592 0.25266 0.75666 0.0
C435 C 0.58216 0.26059 0.73949 0.0
C436 C 0.59593 0.25143 0.79457 0.0
C437 C 0.60436 0.23168 0.79788 0.0
C438 C 0.59987 0.26778 0.8086 0.0
C439 C 0.59315 0.28955 0.80483 0.0
C440 C 0.59791 0.29969 0.78638 0.0
C441 C 0.59156 0.32014 0.78287 0.0
C442 C 0.58064 0.33076 0.79779 0.0
C443 C 0.57602 0.32092 0.81627 0.0
C444 C 0.58226 0.30041 0.81982 0.0
C445 C 0.66673 0.23487 0.86044 0.0
C446 C 0.65932 0.23604 0.88053 0.0
C447 C 0.65386 0.2373 0.84379 0.0
C448 C 0.63342 0.24117 0.84695 0.0
C449 C 0.62601 0.24274 0.86695 0.0
C450 C 0.63883 0.23999 0.88363 0.0
C451 C 0.61986 0.24394 0.8293 0.0
C452 C 0.61145 0.26367 0.82601 0.0
C453 C 0.61633 0.22773 0.81509 0.0
C454 C 0.62491 0.20657 0.81791 0.0
C455 C 0.6213 0.19526 0.83596 0.0
C456 C 0.62966 0.17545 0.83862 0.0
C457 C 0.64154 0.16672 0.82326 0.0
C458 C 0.64505 0.17777 0.80519 0.0
C459 C 0.63675 0.19759 0.80247 0.0
H460 H 0.648 0.15139 0.82535 0.0
H461 H 0.57582 0.34664 0.79507 0.0
H462 H 0.92267 0.6818 0.25336 0.0
H463 H 0.90979 0.6921 0.28667 0.0
H464 H 0.90962 0.75654 0.26778 0.0
H465 H 0.92268 0.74637 0.23416 0.0
H466 H 0.92298 0.75029 0.30853 0.0
H467 H 0.86749 0.73147 0.26568 0.0
H468 H 0.84893 0.70881 0.24184 0.0
H469 H 0.84691 0.66039 0.28714 0.0
H470 H 0.86574 0.68265 0.31116 0.0
H471 H 0.85479 0.78471 0.38553 0.0
H472 H 0.87282 0.77737 0.35389 0.0
H473 H 0.86808 0.71133 0.36568 0.0
H474 H 0.84963 0.71852 0.39715 0.0
H475 H 0.85727 0.71985 0.32784 0.0
H476 H 0.91298 0.73806 0.37064 0.0
H477 H 0.9323 0.7601 0.39442 0.0
H478 H 0.93432 0.80907 0.34968 0.0
H479 H 0.91478 0.78742 0.32571 0.0
C480 C 0.92011 0.69821 0.25627 0.0
C481 C 0.9235 0.71326 0.241 0.0
C482 C 0.91272 0.70405 0.27534 0.0
C483 C 0.90848 0.72502 0.27953 0.0
C484 C 0.91275 0.74025 0.26475 0.0
C485 C 0.92016 0.73441 0.24557 0.0
C486 C 0.89854 0.73069 0.29897 0.0
C487 C 0.90849 0.74391 0.31269 0.0
C488 C 0.87982 0.72198 0.30446 0.0
C489 C 0.8682 0.70867 0.29016 0.0
C490 C 0.86321 0.71594 0.27051 0.0
C491 C 0.85263 0.70317 0.25697 0.0
C492 C 0.84679 0.68315 0.26295 0.0
C493 C 0.85146 0.67589 0.28252 0.0
C494 C 0.86208 0.68859 0.29611 0.0
C495 C 0.85779 0.76862 0.38154 0.0
C496 C 0.85078 0.75219 0.39387 0.0
C497 C 0.86817 0.76446 0.36346 0.0
C498 C 0.87195 0.7438 0.35749 0.0
C499 C 0.86534 0.72739 0.37001 0.0
C500 C 0.85487 0.73153 0.38803 0.0
C501 C 0.88181 0.73925 0.33768 0.0
C502 C 0.87177 0.72628 0.32377 0.0
C503 C 0.90045 0.74816 0.33209 0.0
C504 C 0.91224 0.76119 0.34646 0.0
C505 C 0.9174 0.75359 0.36593 0.0
C506 C 0.92842 0.766 0.37943 0.0
C507 C 0.93449 0.78599 0.37358 0.0
C508 C 0.92959 0.79359 0.3542 0.0
C509 C 0.91856 0.78125 0.34064 0.0
H510 H 0.94302 0.79557 0.38406 0.0
H511 H 0.83862 0.67328 0.25244 0.0
H512 H 0.25697 0.08739 0.26494 0.0
H513 H 0.22396 0.09723 0.2779 0.0
H514 H 0.19884 0.04066 0.25312 0.0
H515 H 0.23189 0.03055 0.24028 0.0
H516 H 0.18045 0.07775 0.23937 0.0
H517 H 0.19904 0.04564 0.30261 0.0
H518 H 0.22082 0.03856 0.33225 0.0
H519 H 0.21735 0.10289 0.35011 0.0
H520 H 0.19579 0.11044 0.32041 0.0
H521 H 0.08327 0.10852 0.27146 0.0
H522 H 0.11355 0.08736 0.26743 0.0
H523 H 0.14842 0.13538 0.29691 0.0
H524 H 0.11833 0.15641 0.30127 0.0
H525 H 0.16009 0.09764 0.30965 0.0
H526 H 0.14786 0.13167 0.24544 0.0
H527 H 0.12825 0.1417 0.21505 0.0
H528 H 0.12204 0.07726 0.19838 0.0
H529 H 0.1415 0.06682 0.22881 0.0
C530 C 0.24452 0.0768 0.26267 0.0
C531 C 0.24698 0.05827 0.25148 0.0
C532 C 0.22569 0.08241 0.27015 0.0
C533 C 0.209 0.06966 0.26644 0.0
C534 C 0.21158 0.05066 0.25616 0.0
C535 C 0.23048 0.04489 0.24891 0.0
C536 C 0.18867 0.07742 0.27121 0.0
C537 C 0.17576 0.08161 0.2548 0.0
C538 C 0.18296 0.08311 0.29125 0.0
C539 C 0.1959 0.07863 0.30918 0.0
C540 C 0.20305 0.05832 0.31276 0.0
C541 C 0.21534 0.05421 0.32959 0.0
C542 C 0.22049 0.07027 0.34303 0.0
C543 C 0.21335 0.09046 0.33968 0.0
C544 C 0.20107 0.09466 0.32286 0.0
C545 C 0.09736 0.1145 0.27721 0.0
C546 C 0.09841 0.13422 0.28653 0.0
C547 C 0.11465 0.10241 0.27487 0.0
C548 C 0.13325 0.10989 0.28172 0.0
C549 C 0.13421 0.12928 0.29156 0.0
C550 C 0.11699 0.14134 0.29392 0.0
C551 C 0.15195 0.09811 0.27778 0.0
C552 C 0.16459 0.09332 0.29429 0.0
C553 C 0.15766 0.09225 0.25777 0.0
C554 C 0.14589 0.09845 0.23953 0.0
C555 C 0.14216 0.11963 0.23539 0.0
C556 C 0.13111 0.12539 0.21815 0.0
C557 C 0.12382 0.11012 0.20485 0.0
C558 C 0.12764 0.08906 0.20873 0.0
C559 C 0.1387 0.08321 0.22596 0.0
H560 H 0.11527 0.11462 0.1915 0.0
H561 H 0.23 0.06706 0.35606 0.0
H562 H 0.40086 0.86075 0.7615 0.0
H563 H 0.36936 0.88032 0.75948 0.0
H564 H 0.34257 0.83851 0.80332 0.0
H565 H 0.37385 0.81899 0.80551 0.0
H566 H 0.31924 0.84473 0.76859 0.0
H567 H 0.35488 0.88537 0.8185 0.0
H568 H 0.38339 0.9057 0.8318 0.0
H569 H 0.37681 0.94974 0.78279 0.0
H570 H 0.34842 0.92949 0.76902 0.0
H571 H 0.22854 0.89768 0.7818 0.0
H572 H 0.2612 0.88392 0.79208 0.0
H573 H 0.29041 0.92587 0.75001 0.0
H574 H 0.25792 0.93981 0.73974 0.0
H575 H 0.31256 0.91992 0.78528 0.0
H576 H 0.2783 0.87954 0.73453 0.0
H577 H 0.24987 0.85979 0.7203 0.0
H578 H 0.25481 0.81499 0.76883 0.0
H579 H 0.28283 0.83492 0.78381 0.0
C580 C 0.38829 0.85581 0.77078 0.0
C581 C 0.38986 0.83835 0.78367 0.0
C582 C 0.37035 0.86703 0.76967 0.0
C583 C 0.35372 0.86089 0.78135 0.0
C584 C 0.35526 0.8435 0.79422 0.0
C585 C 0.37319 0.83241 0.79548 0.0
C586 C 0.33443 0.87211 0.77968 0.0
C587 C 0.31769 0.86108 0.77255 0.0
C588 C 0.33261 0.89357 0.78435 0.0
C589 C 0.34966 0.90579 0.79262 0.0
C590 C 0.35963 0.89928 0.81045 0.0
C591 C 0.37574 0.91081 0.8181 0.0
C592 C 0.38195 0.92897 0.80811 0.0
C593 C 0.37201 0.93566 0.79049 0.0
C594 C 0.35589 0.92417 0.78277 0.0
C595 C 0.24193 0.90437 0.77513 0.0
C596 C 0.24064 0.91957 0.7597 0.0
C597 C 0.26057 0.89645 0.78098 0.0
C598 C 0.27815 0.90363 0.7715 0.0
C599 C 0.27701 0.92007 0.75743 0.0
C600 C 0.2584 0.92793 0.75152 0.0
C601 C 0.29735 0.89247 0.77438 0.0
C602 C 0.31408 0.90352 0.78154 0.0
C603 C 0.29924 0.87103 0.76954 0.0
C604 C 0.2825 0.85889 0.76046 0.0
C605 C 0.27318 0.86561 0.74232 0.0
C606 C 0.25713 0.85439 0.73412 0.0
C607 C 0.25054 0.83614 0.74365 0.0
C608 C 0.25993 0.82914 0.76147 0.0
C609 C 0.27585 0.84044 0.76987 0.0
H610 H 0.23819 0.8274 0.7372 0.0
H611 H 0.39442 0.93788 0.81406 0.0
H612 H 0.75901 0.40968 0.75124 0.0
H613 H 0.7267 0.39841 0.73737 0.0
H614 H 0.69705 0.42026 0.7919 0.0
H615 H 0.72916 0.43144 0.80589 0.0
H616 H 0.68701 0.38045 0.78264 0.0
H617 H 0.69127 0.44598 0.74743 0.0
H618 H 0.70706 0.47267 0.72558 0.0
H619 H 0.70872 0.42945 0.67549 0.0
H620 H 0.6932 0.40238 0.69714 0.0
H621 H 0.58773 0.3619 0.7494 0.0
H622 H 0.61805 0.3795 0.76134 0.0
H623 H 0.64872 0.36162 0.706 0.0
H624 H 0.61848 0.34415 0.69389 0.0
H625 H 0.65771 0.40073 0.71585 0.0
H626 H 0.65682 0.3347 0.75067 0.0
H627 H 0.64423 0.30624 0.77255 0.0
H628 H 0.63781 0.34893 0.82267 0.0
H629 H 0.65039 0.37766 0.80107 0.0
C630 C 0.74558 0.4123 0.76016 0.0
C631 C 0.74666 0.42133 0.77972 0.0
C632 C 0.72713 0.40593 0.75219 0.0
C633 C 0.70949 0.40856 0.7636 0.0
C634 C 0.71049 0.41807 0.78287 0.0
C635 C 0.72888 0.42446 0.79082 0.0
C636 C 0.69017 0.40013 0.75615 0.0
C637 C 0.6804 0.38517 0.7682 0.0
C638 C 0.68194 0.40582 0.73703 0.0
C639 C 0.69124 0.42209 0.72397 0.0
C640 C 0.69516 0.4421 0.73181 0.0
C641 C 0.70403 0.45731 0.71945 0.0
C642 C 0.70893 0.45274 0.69918 0.0
C643 C 0.70493 0.43296 0.69121 0.0
C644 C 0.69608 0.41768 0.70351 0.0
C645 C 0.6009 0.3618 0.73973 0.0
C646 C 0.60076 0.35145 0.72079 0.0
C647 C 0.61823 0.3718 0.74661 0.0
C648 C 0.63573 0.37158 0.73469 0.0
C649 C 0.6354 0.36193 0.71546 0.0
C650 C 0.61809 0.35193 0.70858 0.0
C651 C 0.65452 0.38107 0.74239 0.0
C652 C 0.66423 0.39617 0.73037 0.0
C653 C 0.66284 0.37537 0.76148 0.0
C654 C 0.65437 0.35836 0.7742 0.0
C655 C 0.65252 0.33806 0.76629 0.0
C656 C 0.6455 0.32186 0.77868 0.0
C657 C 0.64029 0.32577 0.79901 0.0
C658 C 0.64192 0.34591 0.80694 0.0
C659 C 0.64903 0.36215 0.79465 0.0
H660 H 0.63495 0.31319 0.80862 0.0
H661 H 0.71579 0.46454 0.68964 0.0
H662 H 0.88684 0.62499 0.23614 0.0
H663 H 0.85438 0.60779 0.23513 0.0
H664 H 0.85591 0.6081 0.16916 0.0
H665 H 0.88823 0.626 0.17006 0.0
H666 H 0.82221 0.62223 0.18078 0.0
H667 H 0.85782 0.56133 0.19708 0.0
H668 H 0.88246 0.53891 0.21455 0.0
H669 H 0.85165 0.54775 0.2715 0.0
H670 H 0.82699 0.57048 0.25446 0.0
H671 H 0.73613 0.55164 0.22957 0.0
H672 H 0.76789 0.55488 0.21122 0.0
H673 H 0.76666 0.62154 0.2205 0.0
H674 H 0.7347 0.61847 0.23806 0.0
H675 H 0.80062 0.56541 0.22721 0.0
H676 H 0.79524 0.64794 0.18814 0.0
H677 H 0.77115 0.66792 0.16739 0.0
H678 H 0.74171 0.61117 0.14977 0.0
H679 H 0.76581 0.59077 0.17014 0.0
C680 C 0.8805 0.62102 0.2214 0.0
C681 C 0.89008 0.62693 0.20319 0.0
C682 C 0.86195 0.61103 0.22084 0.0
C683 C 0.85276 0.60639 0.20206 0.0
C684 C 0.86272 0.61146 0.18382 0.0
C685 C 0.88121 0.62165 0.18437 0.0
C686 C 0.83192 0.59837 0.20171 0.0
C687 C 0.81746 0.60963 0.1907 0.0
C688 C 0.82582 0.58142 0.21406 0.0
C689 C 0.84056 0.56767 0.22446 0.0
C690 C 0.85635 0.55859 0.21335 0.0
C691 C 0.87033 0.54581 0.22318 0.0
C692 C 0.86863 0.54192 0.24412 0.0
C693 C 0.85294 0.55077 0.25527 0.0
C694 C 0.83893 0.56357 0.24552 0.0
C695 C 0.7424 0.56704 0.2272 0.0
C696 C 0.73302 0.58478 0.23543 0.0
C697 C 0.76056 0.56887 0.21672 0.0
C698 C 0.76972 0.58845 0.2144 0.0
C699 C 0.75978 0.60629 0.22165 0.0
C700 C 0.74151 0.6045 0.23187 0.0
C701 C 0.79076 0.59009 0.20717 0.0
C702 C 0.8053 0.57764 0.2168 0.0
C703 C 0.79693 0.60557 0.19308 0.0
C704 C 0.78231 0.6178 0.18081 0.0
C705 C 0.7837 0.63968 0.17977 0.0
C706 C 0.77002 0.65109 0.16808 0.0
C707 C 0.75489 0.64083 0.1573 0.0
C708 C 0.75341 0.61911 0.15818 0.0
C709 C 0.76706 0.60761 0.16983 0.0
H710 H 0.74432 0.6497 0.14825 0.0
H711 H 0.87947 0.53203 0.2517 0.0
H712 H 0.27366 0.12218 0.18171 0.0
H713 H 0.2659 0.15067 0.15835 0.0
H714 H 0.32212 0.14118 0.12723 0.0
H715 H 0.33016 0.11257 0.15073 0.0
H716 H 0.31373 0.18306 0.13374 0.0
H717 H 0.28168 0.12385 0.10472 0.0
H718 H 0.26095 0.09202 0.10468 0.0
H719 H 0.20968 0.12773 0.12325 0.0
H720 H 0.23017 0.15975 0.1237 0.0
H721 H 0.23825 0.23299 0.0534 0.0
H722 H 0.25938 0.20439 0.06544 0.0
H723 H 0.26837 0.23659 0.12262 0.0
H724 H 0.24766 0.26536 0.11057 0.0
H725 H 0.24948 0.18031 0.09569 0.0
H726 H 0.31044 0.22084 0.14608 0.0
H727 H 0.33225 0.25184 0.14459 0.0
H728 H 0.32807 0.25225 0.0791 0.0
H729 H 0.30647 0.22107 0.08015 0.0
C730 C 0.28444 0.12613 0.16995 0.0
C731 C 0.30248 0.11501 0.16799 0.0
C732 C 0.27995 0.14239 0.15658 0.0
C733 C 0.29333 0.14782 0.14093 0.0
C734 C 0.31159 0.13715 0.13919 0.0
C735 C 0.3161 0.12078 0.15257 0.0
C736 C 0.28787 0.16449 0.12631 0.0
C737 C 0.29978 0.18249 0.12526 0.0
C738 C 0.26998 0.16337 0.1148 0.0
C739 C 0.2575 0.14419 0.11434 0.0
C740 C 0.26601 0.1249 0.10891 0.0
C741 C 0.2543 0.10683 0.1088 0.0
C742 C 0.23402 0.10785 0.11398 0.0
C743 C 0.2254 0.12697 0.11924 0.0
C744 C 0.23705 0.14509 0.11939 0.0
C745 C 0.24512 0.23421 0.06835 0.0
C746 C 0.24108 0.25133 0.08114 0.0
C747 C 0.25719 0.21784 0.07521 0.0
C748 C 0.26547 0.21833 0.09492 0.0
C749 C 0.26242 0.23598 0.10723 0.0
C750 C 0.25044 0.25239 0.10036 0.0
C751 C 0.27489 0.1994 0.10372 0.0
C752 C 0.26366 0.18089 0.10377 0.0
C753 C 0.29356 0.19999 0.11399 0.0
C754 C 0.30671 0.21866 0.11322 0.0
C755 C 0.31426 0.22745 0.13134 0.0
C756 C 0.32657 0.24508 0.13058 0.0
C757 C 0.3315 0.25403 0.11177 0.0
C758 C 0.32418 0.24534 0.09367 0.0
C759 C 0.31187 0.22771 0.09434 0.0
H760 H 0.34103 0.26768 0.11121 0.0
H761 H 0.22498 0.09383 0.1139 0.0
H762 H 0.78347 0.40743 0.87374 0.0
H763 H 0.77884 0.37692 0.89549 0.0
H764 H 0.81558 0.34038 0.85469 0.0
H765 H 0.81977 0.37075 0.83251 0.0
H766 H 0.78271 0.32069 0.86174 0.0
H767 H 0.831 0.35271 0.90441 0.0
H768 H 0.84738 0.38086 0.92387 0.0
H769 H 0.79562 0.38619 0.96248 0.0
H770 H 0.77878 0.35827 0.94307 0.0
H771 H 0.76442 0.23371 0.92618 0.0
H772 H 0.78589 0.26175 0.91296 0.0
H773 H 0.74282 0.30746 0.93312 0.0
H774 H 0.72114 0.27958 0.94584 0.0
H775 H 0.78584 0.3192 0.93752 0.0
H776 H 0.7362 0.29252 0.88884 0.0
H777 H 0.72018 0.26394 0.86961 0.0
H778 H 0.77678 0.24824 0.84244 0.0
H779 H 0.79318 0.27654 0.86183 0.0
C780 C 0.79083 0.393 0.86956 0.0
C781 C 0.80184 0.39145 0.85133 0.0
C782 C 0.78829 0.37557 0.8821 0.0
C783 C 0.79702 0.35635 0.87685 0.0
C784 C 0.8087 0.35502 0.85906 0.0
C785 C 0.81106 0.37239 0.84639 0.0
C786 C 0.79218 0.3373 0.88877 0.0
C787 C 0.78395 0.32022 0.87827 0.0
C788 C 0.79352 0.33667 0.91038 0.0
C789 C 0.80357 0.35345 0.92218 0.0
C790 C 0.82304 0.35998 0.91695 0.0
C791 C 0.83242 0.37588 0.928 0.0
C792 C 0.82253 0.38532 0.94438 0.0
C793 C 0.80326 0.37885 0.94979 0.0
C794 C 0.7938 0.36296 0.93879 0.0
C795 C 0.75984 0.24977 0.92828 0.0
C796 C 0.74109 0.25455 0.93682 0.0
C797 C 0.77209 0.26573 0.92075 0.0
C798 C 0.76585 0.28659 0.92207 0.0
C799 C 0.74789 0.29144 0.93209 0.0
C800 C 0.73549 0.27552 0.9392 0.0
C801 C 0.77623 0.30309 0.91042 0.0
C802 C 0.78528 0.31962 0.92096 0.0
C803 C 0.77584 0.30322 0.88883 0.0
C804 C 0.76595 0.28644 0.87697 0.0
C805 C 0.74525 0.28285 0.8789 0.0
C806 C 0.7361 0.26673 0.86796 0.0
C807 C 0.74747 0.25423 0.85486 0.0
C808 C 0.768 0.25789 0.85263 0.0
C809 C 0.77723 0.27397 0.86359 0.0
H810 H 0.74036 0.24176 0.8464 0.0
H811 H 0.82982 0.39764 0.95291 0.0
H812 H 0.78266 0.7208 0.43341 0.0
H813 H 0.76604 0.69162 0.41657 0.0
H814 H 0.71996 0.73304 0.39447 0.0
H815 H 0.73637 0.76241 0.41158 0.0
H816 H 0.70487 0.69443 0.40442 0.0
H817 H 0.7584 0.72293 0.36455 0.0
H818 H 0.7929 0.73508 0.3582 0.0
H819 H 0.81536 0.67357 0.37028 0.0
H820 H 0.781 0.66112 0.37707 0.0
H821 H 0.71093 0.62574 0.30526 0.0
H822 H 0.72094 0.65578 0.32573 0.0
H823 H 0.70184 0.62394 0.38052 0.0
H824 H 0.69119 0.59405 0.36001 0.0
H825 H 0.7483 0.65956 0.3532 0.0
H826 H 0.68746 0.65903 0.41654 0.0
H827 H 0.65189 0.64947 0.42073 0.0
H828 H 0.64183 0.65947 0.35665 0.0
H829 H 0.67726 0.66934 0.35212 0.0
C830 C 0.76878 0.72368 0.4253 0.0
C831 C 0.76099 0.74397 0.42355 0.0
C832 C 0.75932 0.70697 0.41567 0.0
C833 C 0.74203 0.71028 0.40394 0.0
C834 C 0.73337 0.73021 0.40339 0.0
C835 C 0.74278 0.74697 0.41315 0.0
C836 C 0.73419 0.69339 0.39076 0.0
C837 C 0.71432 0.68673 0.39324 0.0
C838 C 0.74644 0.68378 0.37583 0.0
C839 C 0.76713 0.69114 0.37151 0.0
C840 C 0.7707 0.71202 0.366 0.0
C841 C 0.79023 0.71896 0.36231 0.0
C842 C 0.80632 0.70511 0.36387 0.0
C843 C 0.80289 0.68428 0.3691 0.0
C844 C 0.78339 0.67727 0.37286 0.0
C845 C 0.70874 0.62517 0.32166 0.0
C846 C 0.70025 0.60753 0.33103 0.0
C847 C 0.71451 0.64235 0.33335 0.0
C848 C 0.71201 0.64221 0.35465 0.0
C849 C 0.70356 0.62459 0.36407 0.0
C850 C 0.69757 0.60746 0.35234 0.0
C851 C 0.71897 0.66023 0.367 0.0
C852 C 0.73876 0.66715 0.36437 0.0
C853 C 0.70647 0.6704 0.38139 0.0
C854 C 0.68507 0.66472 0.38398 0.0
C855 C 0.67764 0.65926 0.40336 0.0
C856 C 0.6575 0.65378 0.40579 0.0
C857 C 0.64462 0.6538 0.38895 0.0
C858 C 0.65184 0.65938 0.36966 0.0
C859 C 0.67195 0.66489 0.36715 0.0
H860 H 0.62905 0.64953 0.39086 0.0
H861 H 0.82142 0.71051 0.36097 0.0
H862 H 0.19733 0.87088 0.68923 0.0
H863 H 0.20194 0.83886 0.66967 0.0
H864 H 0.20748 0.87487 0.61419 0.0
H865 H 0.20204 0.90699 0.63364 0.0
H866 H 0.18711 0.84138 0.60634 0.0
H867 H 0.24914 0.85499 0.64023 0.0
H868 H 0.27243 0.86203 0.66867 0.0
H869 H 0.25554 0.80438 0.69728 0.0
H870 H 0.23197 0.79708 0.66909 0.0
H871 H 0.25136 0.76913 0.55244 0.0
H872 H 0.23458 0.79844 0.5692 0.0
H873 H 0.21393 0.75736 0.61695 0.0
H874 H 0.23029 0.72789 0.60012 0.0
H875 H 0.23979 0.79194 0.62897 0.0
H876 H 0.17995 0.77784 0.59074 0.0
H877 H 0.16025 0.77139 0.5595 0.0
H878 H 0.17695 0.83154 0.53619 0.0
H879 H 0.19701 0.83823 0.56717 0.0
C880 C 0.19947 0.87198 0.67285 0.0
C881 C 0.19952 0.89144 0.66296 0.0
C882 C 0.20216 0.85366 0.66169 0.0
C883 C 0.20546 0.85447 0.64051 0.0
C884 C 0.205 0.87386 0.63052 0.0
C885 C 0.20196 0.8922 0.64165 0.0
C886 C 0.2099 0.83513 0.6289 0.0
C887 C 0.19876 0.83067 0.6112 0.0
C888 C 0.22492 0.82098 0.63536 0.0
C889 C 0.23865 0.82559 0.65264 0.0
C890 C 0.25024 0.84392 0.65269 0.0
C891 C 0.26353 0.84792 0.66872 0.0
C892 C 0.26549 0.83364 0.68473 0.0
C893 C 0.25404 0.8154 0.68483 0.0
C894 C 0.24071 0.81132 0.66883 0.0
C895 C 0.24272 0.76623 0.56617 0.0
C896 C 0.24227 0.74626 0.57506 0.0
C897 C 0.23312 0.78296 0.57569 0.0
C898 C 0.22312 0.78 0.59431 0.0
C899 C 0.22155 0.75987 0.60254 0.0
C900 C 0.23086 0.74306 0.59285 0.0
C901 C 0.217 0.79825 0.60656 0.0
C902 C 0.22797 0.80255 0.62432 0.0
C903 C 0.20221 0.81242 0.59986 0.0
C904 C 0.19014 0.80845 0.58121 0.0
C905 C 0.17959 0.78961 0.57887 0.0
C906 C 0.16832 0.78594 0.56123 0.0
C907 C 0.16739 0.80103 0.54585 0.0
C908 C 0.1777 0.81986 0.54811 0.0
C909 C 0.189 0.82361 0.56572 0.0
H910 H 0.15865 0.79815 0.5322 0.0
H911 H 0.27593 0.83668 0.69703 0.0
H912 H 0.84159 0.69047 0.87843 0.0
H913 H 0.86181 0.70032 0.84885 0.0
H914 H 0.88129 0.75586 0.8803 0.0
H915 H 0.86094 0.74626 0.9099 0.0
H916 H 0.86591 0.76434 0.8431 0.0
H917 H 0.91376 0.71594 0.8708 0.0
H918 H 0.92507 0.68202 0.88431 0.0
H919 H 0.90966 0.65253 0.82753 0.0
H920 H 0.898 0.68624 0.81377 0.0
H921 H 0.93121 0.80297 0.77008 0.0
H922 H 0.9205 0.78678 0.80197 0.0
H923 H 0.90095 0.73229 0.76887 0.0
H924 H 0.91202 0.74831 0.73672 0.0
H925 H 0.91712 0.72221 0.80676 0.0
H926 H 0.86707 0.76812 0.7799 0.0
H927 H 0.85369 0.80081 0.76566 0.0
H928 H 0.87119 0.8336 0.82006 0.0
H929 H 0.88475 0.80104 0.83457 0.0
C930 C 0.8504 0.70464 0.87919 0.0
C931 C 0.84952 0.71769 0.89646 0.0
C932 C 0.86205 0.71018 0.8623 0.0
C933 C 0.87311 0.72878 0.86241 0.0
C934 C 0.87285 0.74143 0.87992 0.0
C935 C 0.86123 0.73591 0.89683 0.0
C936 C 0.88335 0.73608 0.84363 0.0
C937 C 0.87739 0.75529 0.8354 0.0
C938 C 0.8977 0.72385 0.83312 0.0
C939 C 0.90484 0.70359 0.84132 0.0
C940 C 0.91264 0.7022 0.86125 0.0
C941 C 0.91914 0.68301 0.86894 0.0
C942 C 0.91804 0.66512 0.8568 0.0
C943 C 0.91049 0.6664 0.83692 0.0
C944 C 0.90396 0.68554 0.82916 0.0
C945 C 0.92494 0.78739 0.76958 0.0
C946 C 0.92217 0.77703 0.75086 0.0
C947 C 0.91883 0.77817 0.78783 0.0
C948 C 0.90956 0.75854 0.78771 0.0
C949 C 0.90801 0.7475 0.76925 0.0
C950 C 0.9143 0.75668 0.75091 0.0
C951 C 0.8999 0.75061 0.80656 0.0
C952 C 0.90579 0.73128 0.81465 0.0
C953 C 0.88524 0.76256 0.81689 0.0
C954 C 0.87711 0.7822 0.80823 0.0
C955 C 0.8682 0.78234 0.78875 0.0
C956 C 0.86056 0.80087 0.78063 0.0
C957 C 0.86168 0.81937 0.79187 0.0
C958 C 0.87036 0.81932 0.81131 0.0
C959 C 0.87799 0.80081 0.81952 0.0
H960 H 0.85577 0.8337 0.78555 0.0
H961 H 0.92307 0.65028 0.86279 0.0
H962 H 0.56339 0.2085 0.26695 0.0
H963 H 0.57914 0.22127 0.29818 0.0
H964 H 0.6033 0.27373 0.26496 0.0
H965 H 0.587 0.26131 0.23373 0.0
H966 H 0.61742 0.22263 0.30302 0.0
H967 H 0.6153 0.31302 0.29799 0.0
H968 H 0.59236 0.34081 0.28652 0.0
H969 H 0.54196 0.30042 0.2964 0.0
H970 H 0.56457 0.27249 0.30818 0.0
H971 H 0.69716 0.26544 0.35842 0.0
H972 H 0.67249 0.25756 0.33206 0.0
H973 H 0.62535 0.28074 0.37107 0.0
H974 H 0.65014 0.2892 0.39741 0.0
H975 H 0.61959 0.29359 0.33308 0.0
H976 H 0.63345 0.22775 0.36494 0.0
H977 H 0.6545 0.19897 0.37777 0.0
H978 H 0.67726 0.18847 0.31724 0.0
H979 H 0.65664 0.21747 0.30414 0.0
C980 C 0.57165 0.22305 0.26643 0.0
C981 C 0.57413 0.23385 0.24791 0.0
C982 C 0.58067 0.2303 0.28427 0.0
C983 C 0.5925 0.24838 0.28392 0.0
C984 C 0.59404 0.25988 0.26568 0.0
C985 C 0.58475 0.25276 0.24783 0.0
C986 C 0.60505 0.25367 0.30189 0.0
C987 C 0.61775 0.23813 0.30966 0.0
C988 C 0.60543 0.27383 0.31067 0.0
C989 C 0.59167 0.2906 0.3038 0.0
C990 C 0.59932 0.3101 0.2978 0.0
C991 C 0.58637 0.32587 0.29123 0.0
C992 C 0.56572 0.32237 0.29068 0.0
C993 C 0.55796 0.30309 0.29676 0.0
C994 C 0.57085 0.28727 0.30335 0.0
C995 C 0.68154 0.26875 0.36147 0.0
C996 C 0.67556 0.2777 0.38008 0.0
C997 C 0.66744 0.26424 0.34638 0.0
C998 C 0.64703 0.26823 0.34973 0.0
C999 C 0.64102 0.27747 0.36819 0.0
C1000 C 0.65518 0.28222 0.38324 0.0
C1001 C 0.63202 0.26258 0.33398 0.0
C1002 C 0.61902 0.27805 0.32655 0.0
C1003 C 0.63106 0.24223 0.32569 0.0
C1004 C 0.64357 0.22485 0.33358 0.0
C1005 C 0.64306 0.21941 0.3544 0.0
C1006 C 0.65491 0.20305 0.36172 0.0
C1007 C 0.66724 0.19192 0.34834 0.0
C1008 C 0.66772 0.19711 0.3276 0.0
C1009 C 0.65595 0.2135 0.32022 0.0
H1010 H 0.67638 0.17925 0.35403 0.0
H1011 H 0.55572 0.33459 0.28557 0.0
H1012 H 0.43105 0.76114 0.2688 0.0
H1013 H 0.41564 0.7816 0.24127 0.0
H1014 H 0.39975 0.72474 0.20996 0.0
H1015 H 0.41457 0.70431 0.23751 0.0
H1016 H 0.41984 0.78573 0.20017 0.0
H1017 H 0.35324 0.72835 0.19157 0.0
H1018 H 0.33482 0.70272 0.21252 0.0
H1019 H 0.35092 0.73603 0.26703 0.0
H1020 H 0.36913 0.76205 0.24639 0.0
H1021 H 0.36613 0.79699 0.10704 0.0
H1022 H 0.38539 0.78585 0.13687 0.0
H1023 H 0.33825 0.80768 0.17658 0.0
H1024 H 0.3188 0.8187 0.14685 0.0
H1025 H 0.34866 0.76882 0.18574 0.0
H1026 H 0.38251 0.83304 0.17518 0.0
H1027 H 0.40037 0.8603 0.15581 0.0
H1028 H 0.44797 0.8173 0.14271 0.0
H1029 H 0.43026 0.78968 0.16175 0.0
C1030 C 0.42452 0.75305 0.25588 0.0
C1031 C 0.42372 0.73115 0.25542 0.0
C1032 C 0.41575 0.76474 0.24019 0.0
C1033 C 0.40617 0.75465 0.22383 0.0
C1034 C 0.40665 0.73281 0.22269 0.0
C1035 C 0.41516 0.72117 0.23842 0.0
C1036 C 0.39456 0.76669 0.20858 0.0
C1037 C 0.40427 0.78211 0.19701 0.0
C1038 C 0.37408 0.76232 0.20488 0.0
C1039 C 0.36268 0.74707 0.21742 0.0
C1040 C 0.35273 0.73029 0.20802 0.0
C1041 C 0.34234 0.71568 0.21984 0.0
C1042 C 0.34175 0.71771 0.24109 0.0
C1043 C 0.35144 0.73444 0.25056 0.0
C1044 C 0.3618 0.74912 0.23881 0.0
C1045 C 0.35995 0.79964 0.12213 0.0
C1046 C 0.34087 0.8086 0.12458 0.0
C1047 C 0.37103 0.79338 0.13916 0.0
C1048 C 0.36329 0.79604 0.15894 0.0
C1049 C 0.34449 0.80549 0.16145 0.0
C1050 C 0.33341 0.81178 0.14443 0.0
C1051 C 0.37407 0.78745 0.17684 0.0
C1052 C 0.36418 0.77262 0.18895 0.0
C1053 C 0.39422 0.79267 0.18123 0.0
C1054 C 0.40497 0.80923 0.16977 0.0
C1055 C 0.39671 0.82934 0.16803 0.0
C1056 C 0.40682 0.84487 0.15714 0.0
C1057 C 0.42528 0.84052 0.148 0.0
C1058 C 0.43367 0.82064 0.14978 0.0
C1059 C 0.42361 0.80505 0.16065 0.0
H1060 H 0.43308 0.85256 0.13957 0.0
H1061 H 0.33376 0.70634 0.25022 0.0
H1062 H 0.15748 0.18066 0.61347 0.0
H1063 H 0.13746 0.18912 0.64359 0.0
H1064 H 0.12033 0.24762 0.61609 0.0
H1065 H 0.14049 0.2394 0.58597 0.0
H1066 H 0.13484 0.25279 0.65412 0.0
H1067 H 0.0865 0.20829 0.62173 0.0
H1068 H 0.07437 0.17607 0.6053 0.0
H1069 H 0.08766 0.14131 0.65975 0.0
H1070 H 0.10014 0.17328 0.67641 0.0
H1071 H 0.06846 0.28614 0.7292 0.0
H1072 H 0.07972 0.27296 0.69619 0.0
H1073 H 0.09778 0.21519 0.72453 0.0
H1074 H 0.08617 0.22816 0.75773 0.0
H1075 H 0.08197 0.20906 0.68594 0.0
H1076 H 0.1317 0.25226 0.71769 0.0
H1077 H 0.14439 0.28394 0.73469 0.0
H1078 H 0.12961 0.32037 0.68171 0.0
H1079 H 0.11654 0.28894 0.66451 0.0
C1080 C 0.14924 0.19521 0.61369 0.0
C1081 C 0.15067 0.20943 0.59737 0.0
C1082 C 0.13773 0.19997 0.63089 0.0
C1083 C 0.12734 0.21896 0.63203 0.0
C1084 C 0.12825 0.23288 0.6155 0.0
C1085 C 0.13975 0.22814 0.59829 0.0
C1086 C 0.11687 0.22504 0.65107 0.0
C1087 C 0.12302 0.24341 0.66086 0.0
C1088 C 0.10197 0.2124 0.66023 0.0
C1089 C 0.09443 0.19316 0.65025 0.0
C1090 C 0.087 0.19375 0.63014 0.0
C1091 C 0.08003 0.17553 0.6208 0.0
C1092 C 0.08029 0.15665 0.63146 0.0
C1093 C 0.08749 0.15595 0.6515 0.0
C1094 C 0.09449 0.17411 0.66091 0.0
C1095 C 0.07455 0.2705 0.72839 0.0
C1096 C 0.07673 0.25829 0.74611 0.0
C1097 C 0.08098 0.263 0.70952 0.0
C1098 C 0.08996 0.24329 0.70803 0.0
C1099 C 0.09097 0.2305 0.72541 0.0
C1100 C 0.08437 0.23794 0.74435 0.0
C1101 C 0.09978 0.23691 0.68874 0.0
C1102 C 0.09367 0.21847 0.67904 0.0
C1103 C 0.11487 0.24938 0.67968 0.0
C1104 C 0.12296 0.26828 0.68989 0.0
C1105 C 0.13103 0.26705 0.70972 0.0
C1106 C 0.1383 0.28496 0.71939 0.0
C1107 C 0.13776 0.30417 0.70931 0.0
C1108 C 0.12999 0.30549 0.68951 0.0
C1109 C 0.12266 0.28763 0.67979 0.0
H1110 H 0.14339 0.31802 0.71683 0.0
H1111 H 0.07489 0.14256 0.6242 0.0
H1112 H 0.73398 0.96142 0.76675 0.0
H1113 H 0.76521 0.94895 0.75113 0.0
H1114 H 0.76072 0.89184 0.78573 0.0
H1115 H 0.72996 0.90417 0.80149 0.0
H1116 H 0.79711 0.90833 0.78914 0.0
H1117 H 0.75011 0.89398 0.73445 0.0
H1118 H 0.72466 0.90322 0.70866 0.0
H1119 H 0.76604 0.94547 0.68017 0.0
H1120 H 0.79167 0.93667 0.70597 0.0
H1121 H 0.85367 0.83065 0.74326 0.0
H1122 H 0.82558 0.85275 0.75283 0.0
H1123 H 0.85265 0.90476 0.72146 0.0
H1124 H 0.88131 0.88266 0.71204 0.0
H1125 H 0.80854 0.89785 0.7149 0.0
H1126 H 0.85698 0.90797 0.76788 0.0
H1127 H 0.88206 0.897 0.79337 0.0
H1128 H 0.83732 0.86129 0.82499 0.0
H1129 H 0.81202 0.87177 0.79949 0.0
C1130 C 0.7396 0.94614 0.77087 0.0
C1131 C 0.72957 0.93384 0.78545 0.0
C1132 C 0.75741 0.93904 0.76192 0.0
C1133 C 0.7653 0.91949 0.76732 0.0
C1134 C 0.755 0.90705 0.78147 0.0
C1135 C 0.73736 0.91413 0.79044 0.0
C1136 C 0.78462 0.91193 0.75897 0.0
C1137 C 0.79956 0.90603 0.7729 0.0
C1138 C 0.78811 0.90956 0.73774 0.0
C1139 C 0.7727 0.91489 0.72229 0.0
C1140 C 0.75371 0.90539 0.7228 0.0
C1141 C 0.73927 0.91051 0.70816 0.0
C1142 C 0.7437 0.92498 0.69283 0.0
C1143 C 0.76261 0.93431 0.69208 0.0
C1144 C 0.7771 0.92926 0.7067 0.0
C1145 C 0.85375 0.84676 0.73837 0.0
C1146 C 0.86986 0.85495 0.72713 0.0
C1147 C 0.83763 0.85935 0.7438 0.0
C1148 C 0.83717 0.88037 0.73795 0.0
C1149 C 0.85282 0.88854 0.7261 0.0
C1150 C 0.86917 0.87593 0.72082 0.0
C1151 C 0.82055 0.89366 0.74517 0.0
C1152 C 0.8062 0.90063 0.73108 0.0
C1153 C 0.81747 0.89693 0.76628 0.0
C1154 C 0.83262 0.8906 0.78171 0.0
C1155 C 0.85251 0.89765 0.78018 0.0
C1156 C 0.86677 0.89155 0.79464 0.0
C1157 C 0.86128 0.87849 0.8108 0.0
C1158 C 0.84153 0.87147 0.8125 0.0
C1159 C 0.82722 0.87749 0.79805 0.0
H1160 H 0.87233 0.87383 0.82201 0.0
H1161 H 0.73251 0.92892 0.6815 0.0
H1162 H 0.6037 0.13545 0.22969 0.0
H1163 H 0.63356 0.1169 0.24114 0.0
H1164 H 0.66274 0.13056 0.18383 0.0
H1165 H 0.63266 0.14883 0.17203 0.0
H1166 H 0.67151 0.09148 0.1968 0.0
H1167 H 0.67185 0.16018 0.22537 0.0
H1168 H 0.65796 0.19026 0.24409 0.0
H1169 H 0.65311 0.15308 0.29846 0.0
H1170 H 0.66663 0.12264 0.27996 0.0
H1171 H 0.77081 0.07416 0.23579 0.0
H1172 H 0.74045 0.08781 0.21964 0.0
H1173 H 0.7077 0.07807 0.27571 0.0
H1174 H 0.738 0.06491 0.29205 0.0
H1175 H 0.70168 0.11608 0.26178 0.0
H1176 H 0.70086 0.04699 0.23253 0.0
H1177 H 0.71486 0.01723 0.2134 0.0
H1178 H 0.72148 0.05579 0.16015 0.0
H1179 H 0.70775 0.08585 0.17904 0.0
C1180 C 0.61638 0.13433 0.21942 0.0
C1181 C 0.6159 0.14378 0.20003 0.0
C1182 C 0.63346 0.12377 0.22601 0.0
C1183 C 0.65051 0.12273 0.2135 0.0
C1184 C 0.64976 0.13127 0.19375 0.0
C1185 C 0.63258 0.14171 0.18705 0.0
C1186 C 0.66933 0.11359 0.22148 0.0
C1187 C 0.67827 0.097 0.21088 0.0
C1188 C 0.67801 0.1207 0.23996 0.0
C1189 C 0.67007 0.13906 0.2512 0.0
C1190 C 0.66768 0.15836 0.24128 0.0
C1191 C 0.65988 0.17548 0.25185 0.0
C1192 C 0.65458 0.17355 0.27242 0.0
C1193 C 0.65717 0.15453 0.2825 0.0
C1194 C 0.66491 0.13734 0.27198 0.0
C1195 C 0.75707 0.07467 0.24458 0.0
C1196 C 0.75682 0.06856 0.26523 0.0
C1197 C 0.73971 0.08242 0.23531 0.0
C1198 C 0.72177 0.0839 0.24645 0.0
C1199 C 0.72139 0.07716 0.26685 0.0
C1200 C 0.73872 0.0696 0.27616 0.0
C1201 C 0.70366 0.0936 0.23738 0.0
C1202 C 0.69492 0.11049 0.24772 0.0
C1203 C 0.69528 0.08681 0.21865 0.0
C1204 C 0.70346 0.06872 0.20727 0.0
C1205 C 0.70544 0.04916 0.21679 0.0
C1206 C 0.7133 0.03223 0.20598 0.0
C1207 C 0.71911 0.03463 0.18559 0.0
C1208 C 0.71701 0.05395 0.17595 0.0
C1209 C 0.70917 0.07094 0.18669 0.0
H1210 H 0.7252 0.0215 0.17725 0.0
H1211 H 0.64848 0.1868 0.28056 0.0
H1212 H 0.38961 0.62583 0.28301 0.0
H1213 H 0.36183 0.60379 0.27181 0.0
H1214 H 0.32037 0.64227 0.30548 0.0
H1215 H 0.34805 0.66428 0.3169 0.0
H1216 H 0.31007 0.60063 0.30717 0.0
H1217 H 0.32785 0.65178 0.25653 0.0
H1218 H 0.35096 0.67047 0.23353 0.0
H1219 H 0.36378 0.61341 0.20181 0.0
H1220 H 0.34107 0.59426 0.22495 0.0
H1221 H 0.2206 0.58672 0.24873 0.0
H1222 H 0.24964 0.59767 0.26873 0.0
H1223 H 0.28821 0.56083 0.23003 0.0
H1224 H 0.25931 0.55026 0.20964 0.0
H1225 H 0.30099 0.59936 0.23191 0.0
H1226 H 0.27998 0.54874 0.28149 0.0
H1227 H 0.25625 0.53116 0.30469 0.0
H1228 H 0.24815 0.58816 0.33812 0.0
H1229 H 0.27163 0.60616 0.31495 0.0
C1230 C 0.37463 0.62943 0.28829 0.0
C1231 C 0.371 0.64696 0.30064 0.0
C1232 C 0.35878 0.61682 0.28188 0.0
C1233 C 0.33904 0.6216 0.28759 0.0
C1234 C 0.3355 0.63833 0.3009 0.0
C1235 C 0.35135 0.65094 0.30735 0.0
C1236 C 0.32197 0.61046 0.27814 0.0
C1237 C 0.30797 0.60038 0.29072 0.0
C1238 C 0.31943 0.61001 0.25668 0.0
C1239 C 0.33294 0.62154 0.24262 0.0
C1240 C 0.33572 0.64318 0.24476 0.0
C1241 C 0.34872 0.65387 0.23168 0.0
C1242 C 0.35884 0.64314 0.21623 0.0
C1243 C 0.35595 0.6217 0.21381 0.0
C1244 C 0.34303 0.61091 0.22691 0.0
C1245 C 0.2352 0.58056 0.24476 0.0
C1246 C 0.2377 0.56779 0.22749 0.0
C1247 C 0.2518 0.58678 0.25627 0.0
C1248 C 0.27112 0.58005 0.2509 0.0
C1249 C 0.27345 0.56628 0.2344 0.0
C1250 C 0.25691 0.56023 0.22278 0.0
C1251 C 0.28903 0.5892 0.26088 0.0
C1252 C 0.30317 0.59918 0.24835 0.0
C1253 C 0.29153 0.58966 0.28237 0.0
C1254 C 0.27746 0.57884 0.29637 0.0
C1255 C 0.27303 0.55757 0.29369 0.0
C1256 C 0.25964 0.54752 0.30686 0.0
C1257 C 0.25067 0.55854 0.32284 0.0
C1258 C 0.2551 0.57964 0.32572 0.0
C1259 C 0.26847 0.58977 0.3126 0.0
H1260 H 0.2403 0.55074 0.33301 0.0
H1261 H 0.36889 0.65145 0.20611 0.0
H1262 H 0.27215 0.40881 0.75312 0.0
H1263 H 0.24063 0.39692 0.76823 0.0
H1264 H 0.20751 0.43276 0.72384 0.0
H1265 H 0.23889 0.44478 0.70866 0.0
H1266 H 0.18938 0.4328 0.76223 0.0
H1267 H 0.21633 0.38413 0.71359 0.0
H1268 H 0.24227 0.36138 0.69864 0.0
H1269 H 0.24437 0.32553 0.75405 0.0
H1270 H 0.21865 0.3483 0.76946 0.0
H1271 H 0.09877 0.37364 0.75403 0.0
H1272 H 0.13001 0.39277 0.74834 0.0
H1273 H 0.15974 0.35428 0.79311 0.0
H1274 H 0.12867 0.33508 0.79889 0.0
H1275 H 0.18006 0.35619 0.75685 0.0
H1276 H 0.14996 0.40406 0.80407 0.0
H1277 H 0.1233 0.4269 0.81745 0.0
H1278 H 0.12607 0.46421 0.76301 0.0
H1279 H 0.15255 0.44141 0.74916 0.0
C1280 C 0.25818 0.41455 0.74686 0.0
C1281 C 0.258 0.4275 0.72952 0.0
C1282 C 0.2402 0.4077 0.75548 0.0
C1283 C 0.2218 0.41373 0.74693 0.0
C1284 C 0.22157 0.4279 0.73062 0.0
C1285 C 0.23952 0.43467 0.72192 0.0
C1286 C 0.20294 0.40365 0.75353 0.0
C1287 C 0.18726 0.41607 0.76099 0.0
C1288 C 0.20031 0.38181 0.752 0.0
C1289 C 0.21575 0.36807 0.74277 0.0
C1290 C 0.22246 0.37151 0.72265 0.0
C1291 C 0.23709 0.3586 0.71408 0.0
C1292 C 0.245 0.34206 0.72541 0.0
C1293 C 0.23825 0.33838 0.74531 0.0
C1294 C 0.22365 0.35128 0.75397 0.0
C1295 C 0.11189 0.36941 0.76284 0.0
C1296 C 0.11125 0.35279 0.77685 0.0
C1297 C 0.1297 0.38041 0.75963 0.0
C1298 C 0.14714 0.37498 0.77038 0.0
C1299 C 0.14643 0.35871 0.78468 0.0
C1300 C 0.12864 0.34779 0.78798 0.0
C1301 C 0.16646 0.38529 0.76572 0.0
C1302 C 0.18222 0.37289 0.75842 0.0
C1303 C 0.16903 0.40714 0.7672 0.0
C1304 C 0.15312 0.4209 0.7755 0.0
C1305 C 0.14477 0.41703 0.79487 0.0
C1306 C 0.12971 0.42999 0.80256 0.0
C1307 C 0.12296 0.44696 0.79107 0.0
C1308 C 0.13129 0.45104 0.77189 0.0
C1309 C 0.14634 0.43812 0.76412 0.0
H1310 H 0.1113 0.45698 0.79705 0.0
H1311 H 0.2563 0.33207 0.71876 0.0
H1312 H 0.72367 0.72428 0.92677 0.0
H1313 H 0.70653 0.75763 0.92113 0.0
H1314 H 0.76311 0.78989 0.92512 0.0
H1315 H 0.78023 0.75692 0.93093 0.0
H1316 H 0.73367 0.81107 0.94489 0.0
H1317 H 0.74329 0.77675 0.87918 0.0
H1318 H 0.73897 0.74795 0.85457 0.0
H1319 H 0.67505 0.7543 0.8586 0.0
H1320 H 0.67901 0.78298 0.88345 0.0
H1321 H 0.73262 0.90091 0.88371 0.0
H1322 H 0.73717 0.86788 0.90155 0.0
H1323 H 0.67561 0.85153 0.88938 0.0
H1324 H 0.67099 0.8845 0.87118 0.0
H1325 H 0.70009 0.82112 0.87797 0.0
H1326 H 0.69128 0.86079 0.93844 0.0
H1327 H 0.69617 0.89007 0.96233 0.0
H1328 H 0.75842 0.87433 0.96819 0.0
H1329 H 0.754 0.84513 0.9441 0.0
C1330 C 0.73241 0.73851 0.92664 0.0
C1331 C 0.75333 0.73793 0.9291 0.0
C1332 C 0.7226 0.75753 0.92341 0.0
C1333 C 0.73359 0.7762 0.92257 0.0
C1334 C 0.75434 0.77568 0.92577 0.0
C1335 C 0.76412 0.75677 0.92895 0.0
C1336 C 0.72395 0.79625 0.91709 0.0
C1337 C 0.7263 0.81333 0.93028 0.0
C1338 C 0.7138 0.79899 0.8983 0.0
C1339 C 0.71144 0.78179 0.88336 0.0
C1340 C 0.72832 0.77188 0.87494 0.0
C1341 C 0.72594 0.75561 0.86093 0.0
C1342 C 0.70675 0.74925 0.85508 0.0
C1343 C 0.6899 0.7592 0.86319 0.0
C1344 C 0.6922 0.77546 0.87723 0.0
C1345 C 0.71993 0.89048 0.88512 0.0
C1346 C 0.70149 0.89528 0.8759 0.0
C1347 C 0.72252 0.87162 0.89545 0.0
C1348 C 0.70668 0.85728 0.89694 0.0
C1349 C 0.68802 0.86239 0.88845 0.0
C1350 C 0.68541 0.88126 0.87809 0.0
C1351 C 0.71037 0.83621 0.9055 0.0
C1352 C 0.70693 0.81888 0.89286 0.0
C1353 C 0.71955 0.83329 0.92478 0.0
C1354 C 0.72231 0.85081 0.93936 0.0
C1355 C 0.70605 0.86365 0.9447 0.0
C1356 C 0.70873 0.88023 0.95831 0.0
C1357 C 0.7276 0.88408 0.96675 0.0
C1358 C 0.74382 0.87133 0.96164 0.0
C1359 C 0.74122 0.85474 0.94804 0.0
H1360 H 0.72965 0.89692 0.97728 0.0
H1361 H 0.70493 0.73666 0.84422 0.0
H1362 H 0.21936 0.60046 0.11611 0.0
H1363 H 0.22439 0.63146 0.09469 0.0
H1364 H 0.24583 0.66549 0.14715 0.0
H1365 H 0.24113 0.6347 0.16855 0.0
H1366 H 0.21606 0.68683 0.12314 0.0
H1367 H 0.27864 0.64813 0.11539 0.0
H1368 H 0.29843 0.61711 0.10597 0.0
H1369 H 0.27498 0.61982 0.0449 0.0
H1370 H 0.25483 0.65072 0.05407 0.0
H1371 H 0.27393 0.77285 0.09574 0.0
H1372 H 0.2573 0.74159 0.10807 0.0
H1373 H 0.25381 0.71795 0.0464 0.0
H1374 H 0.27124 0.74905 0.03397 0.0
H1375 H 0.26851 0.68954 0.06949 0.0
H1376 H 0.21074 0.73169 0.07468 0.0
H1377 H 0.19023 0.76245 0.08319 0.0
H1378 H 0.20219 0.75318 0.14703 0.0
H1379 H 0.22302 0.72253 0.13892 0.0
C1380 C 0.22524 0.61453 0.12304 0.0
C1381 C 0.22991 0.61513 0.144 0.0
C1382 C 0.22806 0.63219 0.1108 0.0
C1383 C 0.23538 0.65071 0.11942 0.0
C1384 C 0.24004 0.65134 0.14029 0.0
C1385 C 0.23749 0.63368 0.15244 0.0
C1386 C 0.23855 0.66954 0.10681 0.0
C1387 C 0.22753 0.68754 0.11141 0.0
C1388 C 0.25292 0.67007 0.09097 0.0
C1389 C 0.26504 0.65154 0.08548 0.0
C1390 C 0.27756 0.64198 0.10001 0.0
C1391 C 0.28887 0.62446 0.09471 0.0
C1392 C 0.28791 0.61645 0.07487 0.0
C1393 C 0.27567 0.626 0.06027 0.0
C1394 C 0.26431 0.64353 0.06551 0.0
C1395 C 0.26929 0.76123 0.0847 0.0
C1396 C 0.27406 0.76337 0.06388 0.0
C1397 C 0.25961 0.74336 0.09178 0.0
C1398 C 0.2541 0.72743 0.07816 0.0
C1399 C 0.25793 0.73002 0.0572 0.0
C1400 C 0.26785 0.74782 0.05011 0.0
C1401 C 0.24646 0.7073 0.08623 0.0
C1402 C 0.25664 0.68893 0.08081 0.0
C1403 C 0.2311 0.7064 0.10114 0.0
C1404 C 0.21854 0.72483 0.10616 0.0
C1405 C 0.20912 0.73628 0.09053 0.0
C1406 C 0.19741 0.75369 0.09529 0.0
C1407 C 0.19493 0.75978 0.11563 0.0
C1408 C 0.20412 0.74844 0.13127 0.0
C1409 C 0.21585 0.73102 0.12661 0.0
H1410 H 0.18586 0.77327 0.11928 0.0
H1411 H 0.29668 0.60288 0.07078 0.0
H1412 H 0.24649 0.37512 0.65965 0.0
H1413 H 0.24492 0.34293 0.63987 0.0
H1414 H 0.29786 0.36109 0.60653 0.0
H1415 H 0.29958 0.39351 0.62627 0.0
H1416 H 0.26869 0.34297 0.58168 0.0
H1417 H 0.30411 0.32745 0.64285 0.0
H1418 H 0.3102 0.32784 0.68002 0.0
H1419 H 0.25615 0.29295 0.68995 0.0
H1420 H 0.24959 0.29259 0.65283 0.0
H1421 H 0.27055 0.21926 0.5808 0.0
H1422 H 0.2842 0.25283 0.59209 0.0
H1423 H 0.23057 0.28378 0.57125 0.0
H1424 H 0.217 0.25057 0.55976 0.0
H1425 H 0.26895 0.27692 0.6213 0.0
H1426 H 0.23998 0.33289 0.55737 0.0
H1427 H 0.23587 0.33275 0.51991 0.0
H1428 H 0.2819 0.28632 0.51446 0.0
H1429 H 0.2865 0.28638 0.55185 0.0
C1430 C 0.25769 0.37243 0.64796 0.0
C1431 C 0.27325 0.3868 0.64464 0.0
C1432 C 0.2568 0.35399 0.63673 0.0
C1433 C 0.27146 0.34953 0.62199 0.0
C1434 C 0.28648 0.36424 0.61792 0.0
C1435 C 0.28743 0.38272 0.62922 0.0
C1436 C 0.27135 0.3291 0.61152 0.0
C1437 C 0.26887 0.32849 0.59025 0.0
C1438 C 0.27228 0.31026 0.62272 0.0
C1439 C 0.27632 0.31007 0.64505 0.0
C1440 C 0.29347 0.31994 0.65296 0.0
C1441 C 0.29702 0.32014 0.67402 0.0
C1442 C 0.28358 0.31041 0.68733 0.0
C1443 C 0.26657 0.30044 0.67961 0.0
C1444 C 0.26295 0.3002 0.65855 0.0
C1445 C 0.26185 0.23328 0.57827 0.0
C1446 C 0.24265 0.23225 0.5695 0.0
C1447 C 0.26965 0.25242 0.58478 0.0
C1448 C 0.25846 0.27081 0.5824 0.0
C1449 C 0.23963 0.26986 0.57294 0.0
C1450 C 0.23182 0.25081 0.5665 0.0
C1451 C 0.26538 0.29073 0.59147 0.0
C1452 C 0.26913 0.2913 0.61257 0.0
C1453 C 0.26598 0.30947 0.58002 0.0
C1454 C 0.2635 0.30957 0.55746 0.0
C1455 C 0.24932 0.32274 0.54818 0.0
C1456 C 0.24688 0.32266 0.52695 0.0
C1457 C 0.25859 0.30951 0.51482 0.0
C1458 C 0.2728 0.29645 0.52388 0.0
C1459 C 0.2753 0.29648 0.5451 0.0
H1460 H 0.25666 0.30945 0.49839 0.0
H1461 H 0.28636 0.31057 0.70363 0.0
H1462 H 0.77997 0.27457 0.40299 0.0
H1463 H 0.79438 0.24057 0.39455 0.0
H1464 H 0.75135 0.21042 0.43388 0.0
H1465 H 0.737 0.24426 0.44257 0.0
H1466 H 0.78777 0.19024 0.43452 0.0
H1467 H 0.74017 0.21572 0.38514 0.0
H1468 H 0.7261 0.24127 0.36093 0.0
H1469 H 0.78028 0.23927 0.32557 0.0
H1470 H 0.79476 0.21382 0.34976 0.0
H1471 H 0.77051 0.09253 0.3844 0.0
H1472 H 0.76925 0.1265 0.40144 0.0
H1473 H 0.81335 0.15045 0.35933 0.0
H1474 H 0.81465 0.11673 0.34218 0.0
H1475 H 0.7801 0.17443 0.36068 0.0
H1476 H 0.82522 0.14366 0.40894 0.0
H1477 H 0.83699 0.11701 0.43331 0.0
H1478 H 0.78528 0.12756 0.47096 0.0
H1479 H 0.77304 0.15408 0.44666 0.0
C1480 C 0.77389 0.26076 0.41024 0.0
C1481 C 0.75712 0.26207 0.42317 0.0
C1482 C 0.78212 0.24135 0.40538 0.0
C1483 C 0.77369 0.22299 0.41334 0.0
C1484 C 0.75804 0.2244 0.42754 0.0
C1485 C 0.74978 0.24376 0.43239 0.0
C1486 C 0.77939 0.20235 0.40503 0.0
C1487 C 0.78609 0.18671 0.41839 0.0
C1488 C 0.77728 0.19785 0.38397 0.0
C1489 C 0.76863 0.21309 0.36938 0.0
C1490 C 0.74914 0.22086 0.37229 0.0
C1491 C 0.74108 0.2353 0.35856 0.0
C1492 C 0.75231 0.24196 0.34176 0.0
C1493 C 0.77161 0.23413 0.33862 0.0
C1494 C 0.77975 0.21969 0.35232 0.0
C1495 C 0.78016 0.10493 0.37898 0.0
C1496 C 0.7925 0.10199 0.36181 0.0
C1497 C 0.7795 0.1243 0.38879 0.0
C1498 C 0.79124 0.14096 0.38165 0.0
C1499 C 0.80415 0.13779 0.36505 0.0
C1500 C 0.80484 0.11849 0.35526 0.0
C1501 C 0.78861 0.1622 0.39012 0.0
C1502 C 0.78224 0.17797 0.37675 0.0
C1503 C 0.79079 0.16664 0.41119 0.0
C1504 C 0.79813 0.15075 0.42588 0.0
C1505 C 0.81627 0.14019 0.42233 0.0
C1506 C 0.82304 0.12512 0.43615 0.0
C1507 C 0.81187 0.12057 0.45365 0.0
C1508 C 0.79392 0.1311 0.45739 0.0
C1509 C 0.78707 0.14617 0.44361 0.0
H1510 H 0.81714 0.1089 0.46433 0.0
H1511 H 0.74604 0.25314 0.33114 0.0
H1512 H 0.20288 0.21308 0.48018 0.0
H1513 H 0.18292 0.21805 0.44924 0.0
H1514 H 0.13268 0.18761 0.47812 0.0
H1515 H 0.15263 0.18219 0.50894 0.0
H1516 H 0.13717 0.17412 0.44022 0.0
H1517 H 0.13441 0.2409 0.47281 0.0
H1518 H 0.14816 0.27249 0.48907 0.0
H1519 H 0.17958 0.28775 0.43378 0.0
H1520 H 0.16624 0.25607 0.41727 0.0
H1521 H 0.06677 0.2012 0.36488 0.0
H1522 H 0.0829 0.20297 0.39842 0.0
H1523 H 0.1372 0.22543 0.37029 0.0
H1524 H 0.12125 0.22367 0.33671 0.0
H1525 H 0.12891 0.24406 0.40875 0.0
H1526 H 0.13359 0.17597 0.37741 0.0
H1527 H 0.11979 0.14442 0.36107 0.0
H1528 H 0.08452 0.13188 0.41458 0.0
H1529 H 0.09788 0.16357 0.43111 0.0
C1530 C 0.18761 0.20737 0.47992 0.0
C1531 C 0.17933 0.19728 0.49703 0.0
C1532 C 0.17618 0.21036 0.46228 0.0
C1533 C 0.15621 0.20351 0.46151 0.0
C1534 C 0.14804 0.19309 0.47842 0.0
C1535 C 0.15947 0.19001 0.49602 0.0
C1536 C 0.14391 0.20688 0.44293 0.0
C1537 C 0.13509 0.18948 0.43357 0.0
C1538 C 0.1415 0.22687 0.43402 0.0
C1539 C 0.14946 0.24601 0.44386 0.0
C1540 C 0.14436 0.25091 0.46417 0.0
C1541 C 0.15207 0.26885 0.47342 0.0
C1542 C 0.16477 0.2821 0.46248 0.0
C1543 C 0.16976 0.27746 0.44224 0.0
C1544 C 0.16211 0.25953 0.43292 0.0
C1545 C 0.08197 0.20701 0.36588 0.0
C1546 C 0.09285 0.21202 0.34814 0.0
C1547 C 0.09117 0.20795 0.38504 0.0
C1548 C 0.1113 0.21404 0.38672 0.0
C1549 C 0.12166 0.22064 0.36925 0.0
C1550 C 0.11255 0.21954 0.35008 0.0
C1551 C 0.12222 0.21133 0.4062 0.0
C1552 C 0.13084 0.22879 0.41562 0.0
C1553 C 0.12444 0.19142 0.41522 0.0
C1554 C 0.11654 0.17226 0.40539 0.0
C1555 C 0.12276 0.16658 0.38562 0.0
C1556 C 0.11504 0.14866 0.37634 0.0
C1557 C 0.10124 0.13619 0.38676 0.0
C1558 C 0.09518 0.14158 0.40651 0.0
C1559 C 0.10282 0.15951 0.41585 0.0
H1560 H 0.09529 0.12232 0.37955 0.0
H1561 H 0.17073 0.29597 0.46968 0.0
H1562 H 0.30625 0.8098 0.98361 0.0
H1563 H 0.32327 0.79726 0.95282 0.0
H1564 H 0.37821 0.79045 0.98686 0.0
H1565 H 0.3613 0.80279 0.01776 0.0
H1566 H 0.38236 0.81121 0.94881 0.0
H1567 H 0.35416 0.74837 0.97634 0.0
H1568 H 0.32709 0.72638 0.99024 0.0
H1569 H 0.29438 0.73244 0.93404 0.0
H1570 H 0.32112 0.75476 0.91991 0.0
H1571 H 0.43148 0.76718 0.8647 0.0
H1572 H 0.41877 0.76818 0.89976 0.0
H1573 H 0.35812 0.76804 0.87695 0.0
H1574 H 0.37062 0.76635 0.84205 0.0
H1575 H 0.35955 0.74782 0.91199 0.0
H1576 H 0.38343 0.81393 0.88633 0.0
H1577 H 0.40844 0.83798 0.87164 0.0
H1578 H 0.44695 0.82794 0.92329 0.0
H1579 H 0.42225 0.8036 0.93816 0.0
C1580 C 0.32197 0.80573 0.98452 0.0
C1581 C 0.33245 0.80725 0.00309 0.0
C1582 C 0.33162 0.79845 0.96698 0.0
C1583 C 0.3519 0.79274 0.9677 0.0
C1584 C 0.36252 0.79469 0.98608 0.0
C1585 C 0.35283 0.80173 0.00368 0.0
C1586 C 0.3621 0.7851 0.94913 0.0
C1587 C 0.37768 0.79712 0.94095 0.0
C1588 C 0.35561 0.76698 0.93874 0.0
C1589 C 0.33959 0.75339 0.94712 0.0
C1590 C 0.34113 0.74516 0.967 0.0
C1591 C 0.32585 0.73261 0.97491 0.0
C1592 C 0.30901 0.72805 0.96304 0.0
C1593 C 0.30743 0.73599 0.94322 0.0
C1594 C 0.32265 0.74858 0.93524 0.0
C1595 C 0.41545 0.7668 0.86718 0.0
C1596 C 0.40206 0.76711 0.85059 0.0
C1597 C 0.4082 0.76747 0.88722 0.0
C1598 C 0.38751 0.76877 0.89092 0.0
C1599 C 0.37415 0.76721 0.87445 0.0
C1600 C 0.38135 0.76632 0.85447 0.0
C1601 C 0.37971 0.77407 0.91149 0.0
C1602 C 0.36452 0.76169 0.92003 0.0
C1603 C 0.38632 0.79208 0.92208 0.0
C1604 C 0.40113 0.80677 0.91322 0.0
C1605 C 0.3973 0.81675 0.89448 0.0
C1606 C 0.4114 0.83044 0.88613 0.0
C1607 C 0.4293 0.83443 0.89649 0.0
C1608 C 0.4331 0.82479 0.91526 0.0
C1609 C 0.41906 0.81105 0.92366 0.0
H1610 H 0.4402 0.84504 0.89001 0.0
H1611 H 0.2972 0.71833 0.9692 0.0
H1612 H 0.68943 0.29485 0.49512 0.0
H1613 H 0.67076 0.29024 0.52686 0.0
H1614 H 0.62105 0.32453 0.50146 0.0
H1615 H 0.63969 0.32934 0.46956 0.0
H1616 H 0.62952 0.33608 0.54097 0.0
H1617 H 0.61807 0.27296 0.50405 0.0
H1618 H 0.62741 0.2417 0.48431 0.0
H1619 H 0.66134 0.21871 0.53532 0.0
H1620 H 0.65244 0.25001 0.55528 0.0
H1621 H 0.56407 0.30831 0.62153 0.0
H1622 H 0.57743 0.31025 0.58679 0.0
H1623 H 0.63055 0.27745 0.60615 0.0
H1624 H 0.6173 0.27532 0.64091 0.0
H1625 H 0.61755 0.26483 0.56809 0.0
H1626 H 0.63127 0.32912 0.60375 0.0
H1627 H 0.62237 0.36051 0.62353 0.0
H1628 H 0.58435 0.3813 0.57465 0.0
H1629 H 0.59281 0.34984 0.5547 0.0
C1630 C 0.67457 0.30152 0.49627 0.0
C1631 C 0.666 0.31238 0.47977 0.0
C1632 C 0.66388 0.29876 0.5144 0.0
C1633 C 0.64441 0.30675 0.51636 0.0
C1634 C 0.63602 0.31814 0.50017 0.0
C1635 C 0.64669 0.32086 0.48197 0.0
C1636 C 0.63292 0.30317 0.53539 0.0
C1637 C 0.62657 0.32051 0.54672 0.0
C1638 C 0.62941 0.28283 0.54302 0.0
C1639 C 0.63472 0.26393 0.5311 0.0
C1640 C 0.62765 0.26132 0.51101 0.0
C1641 C 0.63285 0.24358 0.49979 0.0
C1642 C 0.645 0.22825 0.50854 0.0
C1643 C 0.65194 0.23061 0.52856 0.0
C1644 C 0.64681 0.24834 0.53984 0.0
C1645 C 0.57846 0.30121 0.61835 0.0
C1646 C 0.58973 0.29185 0.63403 0.0
C1647 C 0.58609 0.30241 0.5985 0.0
C1648 C 0.6051 0.29428 0.59402 0.0
C1649 C 0.61587 0.28388 0.60935 0.0
C1650 C 0.60829 0.28273 0.62921 0.0
C1651 C 0.61435 0.29774 0.57374 0.0
C1652 C 0.6203 0.28039 0.5622 0.0
C1653 C 0.61752 0.31806 0.56591 0.0
C1654 C 0.61248 0.33702 0.57784 0.0
C1655 C 0.62088 0.3403 0.5973 0.0
C1656 C 0.61594 0.35811 0.60852 0.0
C1657 C 0.60276 0.37286 0.60038 0.0
C1658 C 0.59453 0.36984 0.58096 0.0
C1659 C 0.5994 0.35203 0.56968 0.0
H1660 H 0.59896 0.38665 0.60909 0.0
H1661 H 0.649 0.21452 0.49983 0.0
H1662 H 0.86929 0.7136 0.16204 0.0
H1663 H 0.85053 0.71811 0.13027 0.0
H1664 H 0.90326 0.70202 0.09556 0.0
H1665 H 0.92225 0.69796 0.12719 0.0
H1666 H 0.88206 0.73144 0.07632 0.0
H1667 H 0.86816 0.66534 0.1092 0.0
H1668 H 0.85694 0.64262 0.13743 0.0
H1669 H 0.79877 0.67113 0.13584 0.0
H1670 H 0.80974 0.69429 0.10786 0.0
H1671 H 0.84266 0.68957 0.98539 0.0
H1672 H 0.85908 0.69395 0.01844 0.0
H1673 H 0.80264 0.71135 0.04565 0.0
H1674 H 0.78599 0.70679 0.01262 0.0
H1675 H 0.82343 0.68431 0.06958 0.0
H1676 H 0.83657 0.74839 0.03469 0.0
H1677 H 0.84769 0.77047 0.00599 0.0
H1678 H 0.9071 0.7453 0.01089 0.0
H1679 H 0.89626 0.72283 0.03945 0.0
C1680 C 0.87702 0.71146 0.14763 0.0
C1681 C 0.89718 0.70511 0.14713 0.0
C1682 C 0.86624 0.71394 0.1295 0.0
C1683 C 0.87537 0.70986 0.1106 0.0
C1684 C 0.89588 0.70509 0.11 0.0
C1685 C 0.90672 0.70277 0.12811 0.0
C1686 C 0.86335 0.70893 0.09159 0.0
C1687 C 0.86931 0.72105 0.0748 0.0
C1688 C 0.84644 0.69568 0.08977 0.0
C1689 C 0.83985 0.68172 0.10659 0.0
C1690 C 0.85303 0.66689 0.11499 0.0
C1691 C 0.84671 0.65392 0.13093 0.0
C1692 C 0.82717 0.65548 0.13845 0.0
C1693 C 0.81391 0.66998 0.13004 0.0
C1694 C 0.82017 0.68304 0.11415 0.0
C1695 C 0.8337 0.69425 -0.0016 0.0
C1696 C 0.81303 0.69792 0.99636 0.0
C1697 C 0.84313 0.69686 0.01725 0.0
C1698 C 0.83213 0.70331 0.0344 0.0
C1699 C 0.81141 0.70648 0.03256 0.0
C1700 C 0.80194 0.70387 0.01368 0.0
C1701 C 0.84231 0.7066 0.05425 0.0
C1702 C 0.83602 0.69489 0.07117 0.0
C1703 C 0.85893 0.72018 0.05618 0.0
C1704 C 0.86555 0.7338 0.03912 0.0
C1705 C 0.85197 0.74745 0.02956 0.0
C1706 C 0.85823 0.76005 0.01333 0.0
C1707 C 0.87808 0.75925 0.00659 0.0
C1708 C 0.89172 0.74589 0.01612 0.0
C1709 C 0.88554 0.73323 0.03235 0.0
H1710 H 0.88289 0.76902 0.99402 0.0
H1711 H 0.82228 0.64541 0.15075 0.0
H1712 H 0.37618 0.05241 0.19948 0.0
H1713 H 0.40894 0.0685 0.20401 0.0
H1714 H 0.38613 0.1044 0.25472 0.0
H1715 H 0.35307 0.08876 0.2499 0.0
H1716 H 0.40387 0.12897 0.22876 0.0
H1717 H 0.4218 0.06523 0.26122 0.0
H1718 H 0.42493 0.02717 0.26548 0.0
H1719 H 0.46197 0.02389 0.21191 0.0
H1720 H 0.45883 0.06191 0.20715 0.0
H1721 H 0.49974 0.17234 0.2513 0.0
H1722 H 0.46884 0.15206 0.2541 0.0
H1723 H 0.48259 0.12087 0.19741 0.0
H1724 H 0.51352 0.14119 0.19439 0.0
H1725 H 0.47003 0.09374 0.22943 0.0
H1726 H 0.44939 0.15748 0.19618 0.0
H1727 H 0.44634 0.19564 0.1927 0.0
H1728 H 0.41435 0.19859 0.24957 0.0
H1729 H 0.41746 0.16044 0.25353 0.0
C1730 C 0.3782 0.06341 0.21187 0.0
C1731 C 0.36198 0.06945 0.22422 0.0
C1732 C 0.39701 0.07254 0.21451 0.0
C1733 C 0.40004 0.08762 0.22976 0.0
C1734 C 0.38412 0.09285 0.24281 0.0
C1735 C 0.36525 0.08385 0.24007 0.0
C1736 C 0.41915 0.09939 0.23068 0.0
C1737 C 0.41831 0.12123 0.22936 0.0
C1738 C 0.43803 0.08932 0.23096 0.0
C1739 C 0.43994 0.06642 0.23374 0.0
C1740 C 0.43048 0.05638 0.25024 0.0
C1741 C 0.43228 0.03481 0.25277 0.0
C1742 C 0.4436 0.02311 0.23895 0.0
C1743 C 0.45319 0.03297 0.2226 0.0
C1744 C 0.45142 0.05453 0.21999 0.0
C1745 C 0.49619 0.16119 0.2394 0.0
C1746 C 0.50902 0.15841 0.22258 0.0
C1747 C 0.47854 0.14963 0.24104 0.0
C1748 C 0.47348 0.13504 0.22594 0.0
C1749 C 0.48632 0.13206 0.20923 0.0
C1750 C 0.50389 0.14376 0.20747 0.0
C1751 C 0.45458 0.12313 0.22741 0.0
C1752 C 0.45551 0.10134 0.2291 0.0
C1753 C 0.43577 0.13322 0.22764 0.0
C1754 C 0.43386 0.15614 0.22526 0.0
C1755 C 0.44187 0.16629 0.20804 0.0
C1756 C 0.44009 0.18791 0.20596 0.0
C1757 C 0.43021 0.19954 0.22094 0.0
C1758 C 0.42203 0.18956 0.238 0.0
C1759 C 0.42378 0.16794 0.24016 0.0
H1760 H 0.42885 0.21628 0.2193 0.0
H1761 H 0.44499 0.00642 0.24093 0.0
H1762 H 0.9751 0.8771 0.71353 0.0
H1763 H 0.00682 0.8949 0.7205 0.0
H1764 H 0.03537 0.83554 0.73121 0.0
H1765 H 0.00378 0.81766 0.72448 0.0
H1766 H 0.04553 0.86418 0.7602 0.0
H1767 H 0.04144 0.8608 0.68631 0.0
H1768 H 0.02569 0.86719 0.65278 0.0
H1769 H 0.02643 0.93315 0.66411 0.0
H1770 H 0.04197 0.92711 0.69784 0.0
H1771 H 0.14833 0.87743 0.74195 0.0
H1772 H 0.11289 0.86882 0.74417 0.0
H1773 H 0.09754 0.93303 0.73211 0.0
H1774 H 0.13318 0.94175 0.72951 0.0
H1775 H 0.07818 0.90751 0.70693 0.0
H1776 H 0.08738 0.91092 0.77878 0.0
H1777 H 0.10362 0.90426 0.81199 0.0
H1778 H 0.0936 0.83852 0.80485 0.0
H1779 H 0.07755 0.84473 0.77145 0.0
C1780 C 0.98814 0.86784 0.71734 0.0
C1781 C 0.98694 0.84595 0.71837 0.0
C1782 C 0.00624 0.87803 0.72131 0.0
C1783 C 0.02344 0.86652 0.72629 0.0
C1784 C 0.02224 0.84471 0.72747 0.0
C1785 C 0.00419 0.83452 0.7235 0.0
C1786 C 0.04289 0.87701 0.72991 0.0
C1787 C 0.05275 0.87359 0.74855 0.0
C1788 C 0.05194 0.88986 0.71495 0.0
C1789 C 0.04263 0.89349 0.69468 0.0
C1790 C 0.03809 0.87665 0.68172 0.0
C1791 C 0.02923 0.88021 0.66267 0.0
C1792 C 0.025 0.90056 0.65635 0.0
C1793 C 0.02968 0.9174 0.66904 0.0
C1794 C 0.03851 0.91392 0.68812 0.0
C1795 C 0.13746 0.88984 0.74014 0.0
C1796 C 0.14357 0.91025 0.73539 0.0
C1797 C 0.11717 0.8849 0.74155 0.0
C1798 C 0.10254 0.9003 0.73843 0.0
C1799 C 0.10859 0.92091 0.7346 0.0
C1800 C 0.12895 0.92588 0.73318 0.0
C1801 C 0.08114 0.89427 0.73707 0.0
C1802 C 0.07086 0.89849 0.71881 0.0
C1803 C 0.07173 0.88215 0.7524 0.0
C1804 C 0.08135 0.8783 0.77253 0.0
C1805 C 0.08876 0.89502 0.78421 0.0
C1806 C 0.09791 0.89133 0.80309 0.0
C1807 C 0.09966 0.87097 0.81051 0.0
C1808 C 0.09223 0.85427 0.79908 0.0
C1809 C 0.08307 0.85788 0.78019 0.0
H1810 H 0.10675 0.86815 0.82513 0.0
H1811 H 0.01815 0.90329 0.64159 0.0
H1812 H 0.99573 0.30835 0.76071 0.0
H1813 H 0.96604 0.33055 0.75881 0.0
H1814 H 0.99224 0.37264 0.80276 0.0
H1815 H 0.02187 0.35039 0.80498 0.0
H1816 H 0.95378 0.36456 0.81158 0.0
H1817 H 0.99112 0.38487 0.75204 0.0
H1818 H 0.00932 0.37907 0.71974 0.0
H1819 H 0.95623 0.35325 0.69266 0.0
H1820 H 0.93777 0.35864 0.72491 0.0
H1821 H 0.88493 0.44551 0.80206 0.0
H1822 H 0.91707 0.42789 0.79783 0.0
H1823 H 0.88969 0.38355 0.7569 0.0
H1824 H 0.85744 0.4012 0.76087 0.0
H1825 H 0.92905 0.39348 0.74584 0.0
H1826 H 0.89232 0.37136 0.80528 0.0
H1827 H 0.8737 0.37665 0.83742 0.0
H1828 H 0.92555 0.40504 0.86456 0.0
H1829 H 0.94438 0.40021 0.83244 0.0
C1830 C 0.99517 0.3223 0.77001 0.0
C1831 C 0.01117 0.32762 0.78298 0.0
C1832 C 0.97824 0.33504 0.7688 0.0
C1833 C 0.97707 0.3534 0.78042 0.0
C1834 C 0.99289 0.35858 0.79361 0.0
C1835 C 0.0098 0.34584 0.79485 0.0
C1836 C 0.95917 0.36698 0.77919 0.0
C1837 C 0.94858 0.37115 0.79725 0.0
C1838 C 0.95209 0.37512 0.7604 0.0
C1839 C 0.96312 0.37199 0.74095 0.0
C1840 C 0.98336 0.37781 0.73925 0.0
C1841 C 0.99372 0.37462 0.72094 0.0
C1842 C 0.98395 0.36575 0.70417 0.0
C1843 C 0.96378 0.3601 0.70566 0.0
C1844 C 0.95336 0.36324 0.72395 0.0
C1845 C 0.8858 0.43231 0.79178 0.0
C1846 C 0.86856 0.42452 0.78209 0.0
C1847 C 0.90418 0.42224 0.78941 0.0
C1848 C 0.9056 0.40418 0.77741 0.0
C1849 C 0.88884 0.39741 0.76632 0.0
C1850 C 0.87042 0.40751 0.76865 0.0
C1851 C 0.92387 0.39115 0.77824 0.0
C1852 C 0.93441 0.38699 0.76015 0.0
C1853 C 0.93091 0.3829 0.79699 0.0
C1854 C 0.91969 0.38562 0.81639 0.0
C1855 C 0.8997 0.37887 0.81805 0.0
C1856 C 0.88911 0.38177 0.83627 0.0
C1857 C 0.89842 0.39122 0.85301 0.0
C1858 C 0.91835 0.39775 0.85157 0.0
C1859 C 0.92899 0.39493 0.83337 0.0
H1860 H 0.8902 0.39345 0.8671 0.0
H1861 H 0.99199 0.36329 0.69001 0.0
H1862 H 0.47567 0.63701 0.31003 0.0
H1863 H 0.50611 0.61599 0.30891 0.0
H1864 H 0.52536 0.64893 0.25482 0.0
H1865 H 0.49459 0.66962 0.25548 0.0
H1866 H 0.53217 0.60867 0.25058 0.0
H1867 H 0.54518 0.65959 0.30277 0.0
H1868 H 0.53853 0.67938 0.33437 0.0
H1869 H 0.53946 0.62259 0.36917 0.0
H1870 H 0.54586 0.60242 0.33772 0.0
H1871 H 0.63649 0.58536 0.25535 0.0
H1872 H 0.60299 0.60048 0.25368 0.0
H1873 H 0.58496 0.56362 0.30571 0.0
H1874 H 0.61854 0.54858 0.30767 0.0
H1875 H 0.57675 0.60426 0.31109 0.0
H1876 H 0.56606 0.55371 0.25822 0.0
H1877 H 0.5736 0.53483 0.22631 0.0
H1878 H 0.56944 0.59199 0.19236 0.0
H1879 H 0.56215 0.61128 0.22412 0.0
C1880 C 0.4864 0.63984 0.29793 0.0
C1881 C 0.48278 0.65506 0.2829 0.0
C1882 C 0.50383 0.62783 0.29733 0.0
C1883 C 0.51815 0.63108 0.28194 0.0
C1884 C 0.51451 0.64616 0.26684 0.0
C1885 C 0.49696 0.65803 0.26729 0.0
C1886 C 0.53695 0.61877 0.28162 0.0
C1887 C 0.54204 0.60788 0.26373 0.0
C1888 C 0.5496 0.61737 0.29893 0.0
C1889 C 0.5458 0.62948 0.31786 0.0
C1890 C 0.54382 0.6513 0.31714 0.0
C1891 C 0.54012 0.66259 0.33503 0.0
C1892 C 0.53852 0.65224 0.35376 0.0
C1893 C 0.54067 0.63058 0.35464 0.0
C1894 C 0.54435 0.61922 0.3368 0.0
C1895 C 0.62531 0.58017 0.26623 0.0
C1896 C 0.63023 0.56588 0.28175 0.0
C1897 C 0.60613 0.58878 0.26519 0.0
C1898 C 0.59148 0.58314 0.27955 0.0
C1899 C 0.59608 0.5682 0.29451 0.0
C1900 C 0.61527 0.55959 0.29557 0.0
C1901 C 0.57199 0.59417 0.28006 0.0
C1902 C 0.5668 0.6049 0.29798 0.0
C1903 C 0.55938 0.59555 0.26273 0.0
C1904 C 0.56372 0.58397 0.24359 0.0
C1905 C 0.56691 0.56229 0.24398 0.0
C1906 C 0.57111 0.55151 0.22591 0.0
C1907 C 0.57204 0.56221 0.20733 0.0
C1908 C 0.56873 0.58372 0.20677 0.0
C1909 C 0.56454 0.59458 0.2248 0.0
H1910 H 0.57529 0.55384 0.19336 0.0
H1911 H 0.53565 0.661 0.36759 0.0
H1912 H 0.21537 0.34434 0.0679 0.0
H1913 H 0.21811 0.38011 0.08052 0.0
H1914 H 0.15488 0.38928 0.07025 0.0
H1915 H 0.15204 0.35367 0.05733 0.0
H1916 H 0.17636 0.42371 0.05991 0.0
H1917 H 0.17173 0.37657 0.11712 0.0
H1918 H 0.18175 0.34631 0.13803 0.0
H1919 H 0.24007 0.37314 0.14682 0.0
H1920 H 0.23047 0.40344 0.1257 0.0
H1921 H 0.15787 0.50838 0.12708 0.0
H1922 H 0.15783 0.47477 0.10948 0.0
H1923 H 0.22043 0.46668 0.12391 0.0
H1924 H 0.22046 0.5 0.14197 0.0
H1925 H 0.20053 0.432 0.13118 0.0
H1926 H 0.20445 0.48024 0.07521 0.0
H1927 H 0.1941 0.51046 0.05443 0.0
H1928 H 0.13697 0.4818 0.04341 0.0
H1929 H 0.14688 0.45151 0.06436 0.0
C1930 C 0.2021 0.35405 0.06805 0.0
C1931 C 0.18344 0.3461 0.06181 0.0
C1932 C 0.20368 0.37446 0.07534 0.0
C1933 C 0.18662 0.3872 0.07664 0.0
C1934 C 0.16821 0.37967 0.06943 0.0
C1935 C 0.16661 0.35929 0.0621 0.0
C1936 C 0.18769 0.40792 0.08656 0.0
C1937 C 0.18149 0.42554 0.07555 0.0
C1938 C 0.19471 0.41029 0.10684 0.0
C1939 C 0.20046 0.39216 0.11966 0.0
C1940 C 0.18674 0.37594 0.12339 0.0
C1941 C 0.19234 0.35879 0.13529 0.0
C1942 C 0.21156 0.35777 0.1437 0.0
C1943 C 0.2252 0.37393 0.14027 0.0
C1944 C 0.21969 0.3911 0.12834 0.0
C1945 C 0.17164 0.49947 0.12646 0.0
C1946 C 0.18917 0.50686 0.1359 0.0
C1947 C 0.17162 0.48032 0.1163 0.0
C1948 C 0.1892 0.46835 0.11512 0.0
C1949 C 0.2067 0.47567 0.12459 0.0
C1950 C 0.2067 0.49474 0.13489 0.0
C1951 C 0.18923 0.4479 0.10455 0.0
C1952 C 0.19557 0.43026 0.11548 0.0
C1953 C 0.18231 0.44555 0.08421 0.0
C1954 C 0.17636 0.46369 0.0715 0.0
C1955 C 0.18963 0.48044 0.06848 0.0
C1956 C 0.18385 0.49758 0.05664 0.0
C1957 C 0.16487 0.49807 0.04764 0.0
C1958 C 0.15166 0.4814 0.0504 0.0
C1959 C 0.15736 0.46424 0.06224 0.0
H1960 H 0.16042 0.51135 0.03849 0.0
H1961 H 0.21586 0.34449 0.15291 0.0
H1962 H 0.67537 0.99569 0.8689 0.0
H1963 H 0.67764 0.03047 0.8839 0.0
H1964 H 0.73369 0.04074 0.85255 0.0
H1965 H 0.73189 0.00559 0.83816 0.0
H1966 H 0.73639 0.05562 0.88925 0.0
H1967 H 0.6883 0.06205 0.83546 0.0
H1968 H 0.65803 0.05332 0.81561 0.0
H1969 H 0.62122 0.0661 0.86796 0.0
H1970 H 0.6513 0.07464 0.88821 0.0
H1971 H 0.73335 0.16758 0.89547 0.0
H1972 H 0.73439 0.13113 0.88443 0.0
H1973 H 0.68426 0.11705 0.92367 0.0
H1974 H 0.68314 0.15337 0.93487 0.0
H1975 H 0.679 0.10438 0.88318 0.0
H1976 H 0.72886 0.09929 0.93624 0.0
H1977 H 0.75987 0.10926 0.95422 0.0
H1978 H 0.7943 0.09564 0.90042 0.0
H1979 H 0.76345 0.08586 0.88201 0.0
C1980 C 0.68818 0.00536 0.8652 0.0
C1981 C 0.7034 0.99799 0.85226 0.0
C1982 C 0.68943 0.02528 0.87372 0.0
C1983 C 0.70566 0.03839 0.86905 0.0
C1984 C 0.72101 0.03092 0.85635 0.0
C1985 C 0.71994 0.01086 0.84809 0.0
C1986 C 0.70655 0.05992 0.87735 0.0
C1987 C 0.72393 0.06636 0.88769 0.0
C1988 C 0.6902 0.07388 0.87556 0.0
C1989 C 0.67207 0.06878 0.86341 0.0
C1990 C 0.67376 0.06285 0.84278 0.0
C1991 C 0.65664 0.05796 0.83145 0.0
C1992 C 0.63772 0.0591 0.84053 0.0
C1993 C 0.63589 0.06519 0.86095 0.0
C1994 C 0.65297 0.07008 0.87236 0.0
C1995 C 0.72272 0.15667 0.90197 0.0
C1996 C 0.7081 0.16338 0.91597 0.0
C1997 C 0.72338 0.13585 0.89568 0.0
C1998 C 0.7094 0.12145 0.90326 0.0
C1999 C 0.69516 0.12797 0.91766 0.0
C2000 C 0.69459 0.14872 0.92408 0.0
C2001 C 0.70873 0.09994 0.89516 0.0
C2002 C 0.69141 0.09357 0.88477 0.0
C2003 C 0.72524 0.08622 0.89661 0.0
C2004 C 0.74381 0.09203 0.90769 0.0
C2005 C 0.74302 0.09859 0.92818 0.0
C2006 C 0.76058 0.10418 0.93847 0.0
C2007 C 0.77904 0.10314 0.92846 0.0
C2008 C 0.77999 0.09646 0.90815 0.0
C2009 C 0.76247 0.09087 0.89779 0.0
H2010 H 0.79262 0.10746 0.93645 0.0
H2011 H 0.62448 0.05531 0.83173 0.0
H2012 H 0.77939 0.97688 0.30353 0.0
H2013 H 0.77737 0.94368 0.32174 0.0
H2014 H 0.7996 0.97326 0.37645 0.0
H2015 H 0.80197 0.00647 0.35827 0.0
H2016 H 0.81849 0.93741 0.36962 0.0
H2017 H 0.75025 0.95981 0.37197 0.0
H2018 H 0.71821 0.97266 0.35808 0.0
H2019 H 0.71298 0.91775 0.32091 0.0
H2020 H 0.74514 0.90469 0.33436 0.0
H2021 H 0.80069 0.84994 0.43296 0.0
H2022 H 0.79684 0.88517 0.41914 0.0
H2023 H 0.77907 0.85949 0.36097 0.0
H2024 H 0.78279 0.82424 0.37465 0.0
H2025 H 0.75675 0.89433 0.37177 0.0
H2026 H 0.82611 0.87353 0.36756 0.0
H2027 H 0.85819 0.86065 0.38135 0.0
H2028 H 0.86108 0.91298 0.42219 0.0
H2029 H 0.82884 0.92601 0.40883 0.0
C2030 C 0.7838 0.97635 0.31945 0.0
C2031 C 0.79085 0.99431 0.32945 0.0
C2032 C 0.78252 0.95738 0.32988 0.0
C2033 C 0.7881 0.95606 0.35053 0.0
C2034 C 0.79517 0.97396 0.36054 0.0
C2035 C 0.7965 0.99292 0.35011 0.0
C2036 C 0.78725 0.93583 0.36147 0.0
C2037 C 0.80489 0.92818 0.37041 0.0
C2038 C 0.7696 0.92359 0.36214 0.0
C2039 C 0.75021 0.93136 0.35405 0.0
C2040 C 0.74235 0.95055 0.36071 0.0
C2041 C 0.72415 0.95785 0.35294 0.0
C2042 C 0.71359 0.94605 0.33858 0.0
C2043 C 0.72119 0.92688 0.33201 0.0
C2044 C 0.73939 0.91951 0.33973 0.0
C2045 C 0.79568 0.85178 0.41732 0.0
C2046 C 0.79224 0.8343 0.40482 0.0
C2047 C 0.79354 0.87192 0.40944 0.0
C2048 C 0.78792 0.87489 0.38897 0.0
C2049 C 0.78346 0.8575 0.3768 0.0
C2050 C 0.78568 0.83738 0.38462 0.0
C2051 C 0.78798 0.89599 0.3798 0.0
C2052 C 0.77025 0.90373 0.37115 0.0
C2053 C 0.80553 0.90835 0.3794 0.0
C2054 C 0.82496 0.90061 0.38736 0.0
C2055 C 0.83351 0.88219 0.3796 0.0
C2056 C 0.85173 0.87488 0.38732 0.0
C2057 C 0.86163 0.88596 0.40268 0.0
C2058 C 0.85337 0.9044 0.41032 0.0
C2059 C 0.83513 0.91176 0.40267 0.0
H2060 H 0.87574 0.88028 0.40864 0.0
H2061 H 0.6995 0.95173 0.33259 0.0
H2062 H 0.30216 0.4916 0.63698 0.0
H2063 H 0.30086 0.52618 0.62144 0.0
H2064 H 0.2989 0.5543 0.68131 0.0
H2065 H 0.29992 0.5197 0.69703 0.0
H2066 H 0.27091 0.57061 0.65636 0.0
H2067 H 0.3413 0.55634 0.65274 0.0
H2068 H 0.37147 0.53594 0.64422 0.0
H2069 H 0.35609 0.53834 0.58053 0.0
H2070 H 0.32566 0.55852 0.5887 0.0
H2071 H 0.28971 0.67488 0.62641 0.0
H2072 H 0.29136 0.64017 0.64152 0.0
H2073 H 0.29293 0.61279 0.5813 0.0
H2074 H 0.29172 0.64763 0.56599 0.0
H2075 H 0.32105 0.59601 0.60618 0.0
H2076 H 0.25065 0.61049 0.60994 0.0
H2077 H 0.22062 0.63106 0.61863 0.0
H2078 H 0.2362 0.62837 0.68226 0.0
H2079 H 0.26648 0.60803 0.67392 0.0
C2080 C 0.30158 0.50513 0.64687 0.0
C2081 C 0.30113 0.50291 0.66826 0.0
C2082 C 0.30092 0.52489 0.63795 0.0
C2083 C 0.29994 0.5428 0.65022 0.0
C2084 C 0.29965 0.54065 0.67157 0.0
C2085 C 0.3003 0.52088 0.68052 0.0
C2086 C 0.29855 0.56373 0.64076 0.0
C2087 C 0.28202 0.5763 0.64561 0.0
C2088 C 0.31278 0.57087 0.62633 0.0
C2089 C 0.33109 0.55876 0.62136 0.0
C2090 C 0.34426 0.55237 0.63694 0.0
C2091 C 0.36143 0.54088 0.63216 0.0
C2092 C 0.36567 0.5358 0.61185 0.0
C2093 C 0.35277 0.54226 0.59626 0.0
C2094 C 0.33557 0.55374 0.60095 0.0
C2095 C 0.2903 0.6615 0.61634 0.0
C2096 C 0.29059 0.66401 0.59499 0.0
C2097 C 0.29116 0.64165 0.62502 0.0
C2098 C 0.29208 0.62391 0.61253 0.0
C2099 C 0.29221 0.62631 0.5912 0.0
C2100 C 0.29142 0.6462 0.58249 0.0
C2101 C 0.29342 0.60288 0.6218 0.0
C2102 C 0.30993 0.5903 0.61691 0.0
C2103 C 0.27918 0.59573 0.63621 0.0
C2104 C 0.26093 0.60789 0.64128 0.0
C2105 C 0.24775 0.61442 0.62577 0.0
C2106 C 0.23067 0.62602 0.63063 0.0
C2107 C 0.22653 0.63106 0.65098 0.0
C2108 C 0.23944 0.62447 0.6665 0.0
C2109 C 0.25655 0.61289 0.66172 0.0
H2110 H 0.2133 0.64004 0.65471 0.0
H2111 H 0.37897 0.52691 0.60819 0.0
H2112 H 0.82713 0.7669 0.50215 0.0
H2113 H 0.84062 0.76618 0.53683 0.0
H2114 H 0.88601 0.81071 0.51951 0.0
H2115 H 0.87283 0.81125 0.48462 0.0
H2116 H 0.90134 0.78022 0.54363 0.0
H2117 H 0.84435 0.82633 0.54509 0.0
H2118 H 0.80905 0.83615 0.53948 0.0
H2119 H 0.78995 0.78684 0.57941 0.0
H2120 H 0.82514 0.77656 0.58506 0.0
H2121 H 0.92715 0.81929 0.64203 0.0
H2122 H 0.91749 0.813 0.60658 0.0
H2123 H 0.87068 0.77141 0.62683 0.0
H2124 H 0.87991 0.77808 0.66236 0.0
H2125 H 0.85621 0.79862 0.6011 0.0
H2126 H 0.91343 0.75366 0.60136 0.0
H2127 H 0.94873 0.74393 0.607 0.0
H2128 H 0.96758 0.79074 0.56418 0.0
H2129 H 0.9324 0.80096 0.55848 0.0
C2130 C 0.84002 0.77651 0.50568 0.0
C2131 C 0.84881 0.78927 0.49067 0.0
C2132 C 0.84769 0.77609 0.52552 0.0
C2133 C 0.86415 0.7886 0.53081 0.0
C2134 C 0.87328 0.80096 0.51575 0.0
C2135 C 0.86567 0.80131 0.49584 0.0
C2136 C 0.87143 0.78928 0.55219 0.0
C2137 C 0.89156 0.78443 0.55621 0.0
C2138 C 0.85852 0.7943 0.56862 0.0
C2139 C 0.83736 0.80055 0.56533 0.0
C2140 C 0.83261 0.81749 0.55256 0.0
C2141 C 0.81263 0.82315 0.54939 0.0
C2142 C 0.79726 0.81209 0.55904 0.0
C2143 C 0.80186 0.79538 0.57193 0.0
C2144 C 0.82182 0.78963 0.57513 0.0
C2145 C 0.915 0.80854 0.63894 0.0
C2146 C 0.9042 0.79929 0.65501 0.0
C2147 C 0.90955 0.80488 0.61863 0.0
C2148 C 0.89342 0.79164 0.61401 0.0
C2149 C 0.88314 0.78173 0.63003 0.0
C2150 C 0.88846 0.78553 0.65033 0.0
C2151 C 0.88618 0.7895 0.59267 0.0
C2152 C 0.86602 0.79419 0.58861 0.0
C2153 C 0.89909 0.78432 0.57626 0.0
C2154 C 0.92027 0.77819 0.57963 0.0
C2155 C 0.92511 0.76199 0.59326 0.0
C2156 C 0.9451 0.75637 0.59645 0.0
C2157 C 0.96039 0.76674 0.58599 0.0
C2158 C 0.95572 0.78273 0.57228 0.0
C2159 C 0.93575 0.78843 0.56905 0.0
H2160 H 0.97586 0.76236 0.58848 0.0
H2161 H 0.7818 0.81649 0.55656 0.0
H2162 H 0.6414 0.2156 0.98965 0.0
H2163 H 0.62428 0.21554 0.02266 0.0
H2164 H 0.66774 0.25903 0.04639 0.0
H2165 H 0.68503 0.25917 0.01342 0.0
H2166 H 0.66187 0.22524 0.07154 0.0
H2167 H 0.62128 0.27546 0.03611 0.0
H2168 H 0.60042 0.2885 0.00774 0.0
H2169 H 0.55828 0.23891 0.01767 0.0
H2170 H 0.57903 0.2254 0.04592 0.0
H2171 H 0.61485 0.23829 0.16633 0.0
H2172 H 0.62805 0.24738 0.13265 0.0
H2173 H 0.5835 0.20821 0.1042 0.0
H2174 H 0.56984 0.19953 0.1378 0.0
H2175 H 0.58996 0.2421 0.08151 0.0
H2176 H 0.63054 0.18997 0.11404 0.0
H2177 H 0.65095 0.17503 0.14184 0.0
H2178 H 0.69281 0.22559 0.13637 0.0
H2179 H 0.67246 0.24102 0.10873 0.0
C2180 C 0.64726 0.22526 0.00184 0.0
C2181 C 0.66461 0.23735 -0.00107 0.0
C2182 C 0.63739 0.22529 0.02065 0.0
C2183 C 0.64466 0.23741 0.03689 0.0
C2184 C 0.66187 0.24961 0.034 0.0
C2185 C 0.67171 0.24969 0.01516 0.0
C2186 C 0.63491 0.23647 0.05719 0.0
C2187 C 0.64625 0.22931 0.07381 0.0
C2188 C 0.61437 0.24115 0.05995 0.0
C2189 C 0.60181 0.24932 0.04303 0.0
C2190 C 0.60764 0.26724 0.03215 0.0
C2191 C 0.59583 0.27474 0.0161 0.0
C2192 C 0.57806 0.26451 0.01088 0.0
C2193 C 0.57205 0.24681 0.02172 0.0
C2194 C 0.58383 0.23924 0.03777 0.0
C2195 C 0.60767 0.23186 0.15289 0.0
C2196 C 0.59148 0.21799 0.15471 0.0
C2197 C 0.61526 0.23703 0.13366 0.0
C2198 C 0.60704 0.2281 0.11595 0.0
C2199 C 0.59012 0.21521 0.11767 0.0
C2200 C 0.58236 0.21023 0.13689 0.0
C2201 C 0.61695 0.23091 0.09586 0.0
C2202 C 0.60564 0.23828 0.07927 0.0
C2203 C 0.63748 0.22613 0.09302 0.0
C2204 C 0.64987 0.21676 0.10947 0.0
C2205 C 0.64403 0.19798 0.11886 0.0
C2206 C 0.65559 0.18941 0.13458 0.0
C2207 C 0.67314 0.19939 0.1409 0.0
C2208 C 0.67919 0.21791 0.13148 0.0
C2209 C 0.66766 0.22656 0.11578 0.0
H2210 H 0.68207 0.19274 0.15308 0.0
H2211 H 0.56893 0.27034 -0.00155 0.0
H2212 H 0.41809 0.69343 0.36471 0.0
H2213 H 0.40146 0.70095 0.39708 0.0
H2214 H 0.37376 0.75529 0.37049 0.0
H2215 H 0.39022 0.74781 0.33782 0.0
H2216 H 0.38778 0.75888 0.4141 0.0
H2217 H 0.34609 0.71759 0.36943 0.0
H2218 H 0.3398 0.68848 0.34571 0.0
H2219 H 0.35532 0.64455 0.39268 0.0
H2220 H 0.36192 0.67349 0.41664 0.0
H2221 H 0.31024 0.7645 0.48919 0.0
H2222 H 0.32838 0.76431 0.45667 0.0
H2223 H 0.3487 0.70163 0.46883 0.0
H2224 H 0.33021 0.70148 0.50094 0.0
H2225 H 0.33722 0.70468 0.43084 0.0
H2226 H 0.37921 0.74541 0.47564 0.0
H2227 H 0.38692 0.77423 0.49933 0.0
H2228 H 0.37214 0.81884 0.45273 0.0
H2229 H 0.36408 0.79026 0.42885 0.0
C2230 C 0.40883 0.70725 0.3658 0.0
C2231 C 0.40524 0.71987 0.34861 0.0
C2232 C 0.39935 0.71151 0.38432 0.0
C2233 C 0.38627 0.72851 0.386 0.0
C2234 C 0.38383 0.74208 0.36939 0.0
C2235 C 0.39318 0.73773 0.35076 0.0
C2236 C 0.37347 0.73054 0.40428 0.0
C2237 C 0.37651 0.74725 0.4177 0.0
C2238 C 0.35902 0.71516 0.40895 0.0
C2239 C 0.35466 0.6977 0.39476 0.0
C2240 C 0.34829 0.70172 0.37465 0.0
C2241 C 0.34466 0.68525 0.36117 0.0
C2242 C 0.34724 0.66466 0.36765 0.0
C2243 C 0.35336 0.66051 0.38767 0.0
C2244 C 0.35701 0.67694 0.40123 0.0
C2245 C 0.31852 0.75066 0.48488 0.0
C2246 C 0.31882 0.73302 0.49764 0.0
C2247 C 0.32897 0.75062 0.46635 0.0
C2248 C 0.34013 0.73306 0.46045 0.0
C2249 C 0.3402 0.71535 0.47306 0.0
C2250 C 0.32962 0.71531 0.49144 0.0
C2251 C 0.35169 0.73288 0.4411 0.0
C2252 C 0.34838 0.71646 0.42733 0.0
C2253 C 0.36594 0.74852 0.43622 0.0
C2254 C 0.37084 0.7657 0.45054 0.0
C2255 C 0.37746 0.76137 0.4705 0.0
C2256 C 0.38192 0.77766 0.48395 0.0
C2257 C 0.37996 0.79835 0.47756 0.0
C2258 C 0.37361 0.8028 0.45768 0.0
C2259 C 0.36911 0.78656 0.44417 0.0
H2260 H 0.38342 0.81094 0.48799 0.0
H2261 H 0.34444 0.65192 0.35717 0.0
H2262 H 0.20237 0.25529 0.97877 0.0
H2263 H 0.18586 0.25177 0.94563 0.0
H2264 H 0.12933 0.26856 0.973 0.0
H2265 H 0.14567 0.2719 0.0063 0.0
H2266 H 0.12517 0.23703 0.94475 0.0
H2267 H 0.15568 0.30482 0.94883 0.0
H2268 H 0.18328 0.32972 0.95447 0.0
H2269 H 0.21659 0.30181 0.90543 0.0
H2270 H 0.18927 0.27653 0.8997 0.0
H2271 H 0.07424 0.27804 0.85706 0.0
H2272 H 0.08939 0.26986 0.89013 0.0
H2273 H 0.14499 0.25447 0.86009 0.0
H2274 H 0.13006 0.26276 0.82703 0.0
H2275 H 0.15017 0.28319 0.88946 0.0
H2276 H 0.11769 0.21697 0.88364 0.0
H2277 H 0.08946 0.19284 0.87813 0.0
H2278 H 0.05899 0.2185 0.93016 0.0
H2279 H 0.08693 0.24302 0.93582 0.0
C2280 C 0.1864 0.25806 0.97781 0.0
C2281 C 0.17537 0.2641 0.99512 0.0
C2282 C 0.17699 0.25605 0.95885 0.0
C2283 C 0.15643 0.26016 0.95685 0.0
C2284 C 0.14522 0.26533 0.97425 0.0
C2285 C 0.15461 0.26734 0.99323 0.0
C2286 C 0.14691 0.26035 0.93641 0.0
C2287 C 0.13049 0.24722 0.93267 0.0
C2288 C 0.15411 0.27342 0.92061 0.0
C2289 C 0.17054 0.28863 0.924 0.0
C2290 C 0.16896 0.30388 0.93937 0.0
C2291 C 0.18454 0.31808 0.94256 0.0
C2292 C 0.2017 0.31731 0.93035 0.0
C2293 C 0.2033 0.30236 0.9149 0.0
C2294 C 0.18777 0.2881 0.91167 0.0
C2295 C 0.08956 0.2725 0.85745 0.0
C2296 C 0.10102 0.27128 0.83944 0.0
C2297 C 0.09818 0.26775 0.87636 0.0
C2298 C 0.11833 0.26158 0.87755 0.0
C2299 C 0.12944 0.25927 0.8595 0.0
C2300 C 0.12085 0.264 0.84061 0.0
C2301 C 0.12843 0.25976 0.89763 0.0
C2302 C 0.14493 0.27277 0.90139 0.0
C2303 C 0.12119 0.24667 0.9134 0.0
C2304 C 0.10434 0.23197 0.91004 0.0
C2305 C 0.1049 0.21761 0.8938 0.0
C2306 C 0.08896 0.20383 0.89067 0.0
C2307 C 0.07242 0.20417 0.90376 0.0
C2308 C 0.0718 0.21827 0.92003 0.0
C2309 C 0.0877 0.2321 0.92321 0.0
H2310 H 0.0601 0.19348 0.90132 0.0
H2311 H 0.21375 0.32833 0.93284 0.0
H2312 H 0.61792 0.93379 0.81842 0.0
H2313 H 0.58537 0.91724 0.8131 0.0
H2314 H 0.61185 0.87489 0.76963 0.0
H2315 H 0.64452 0.89133 0.77482 0.0
H2316 H 0.57263 0.88827 0.75884 0.0
H2317 H 0.60855 0.85922 0.81635 0.0
H2318 H 0.62685 0.86124 0.84904 0.0
H2319 H 0.57526 0.88836 0.87786 0.0
H2320 H 0.55676 0.8868 0.84523 0.0
H2321 H 0.50544 0.80288 0.76372 0.0
H2322 H 0.53491 0.82545 0.76423 0.0
H2323 H 0.50918 0.86094 0.81373 0.0
H2324 H 0.47984 0.83816 0.81363 0.0
H2325 H 0.54718 0.85289 0.82117 0.0
H2326 H 0.51023 0.88 0.76445 0.0
H2327 H 0.49185 0.87849 0.73179 0.0
H2328 H 0.54458 0.85576 0.70151 0.0
H2329 H 0.56321 0.85685 0.73406 0.0
C2330 C 0.61678 0.92126 0.8074 0.0
C2331 C 0.63387 0.91365 0.79727 0.0
C2332 C 0.59817 0.91181 0.80441 0.0
C2333 C 0.59634 0.89467 0.79122 0.0
C2334 C 0.61302 0.88807 0.77992 0.0
C2335 C 0.63167 0.89743 0.78297 0.0
C2336 C 0.57765 0.88232 0.79081 0.0
C2337 C 0.56709 0.88039 0.77239 0.0
C2338 C 0.57032 0.87239 0.80862 0.0
C2339 C 0.58135 0.87311 0.82831 0.0
C2340 C 0.60116 0.86577 0.82962 0.0
C2341 C 0.61157 0.86681 0.84814 0.0
C2342 C 0.60225 0.87498 0.8655 0.0
C2343 C 0.58248 0.88207 0.86439 0.0
C2344 C 0.57202 0.8811 0.84589 0.0
C2345 C 0.50604 0.81549 0.77472 0.0
C2346 C 0.49029 0.81874 0.78862 0.0
C2347 C 0.52284 0.82846 0.7749 0.0
C2348 C 0.52411 0.84508 0.78881 0.0
C2349 C 0.50848 0.84825 0.80282 0.0
C2350 C 0.49173 0.83521 0.80274 0.0
C2351 C 0.54199 0.85878 0.78916 0.0
C2352 C 0.55251 0.8609 0.8076 0.0
C2353 C 0.54919 0.86892 0.77137 0.0
C2354 C 0.53806 0.86833 0.75174 0.0
C2355 C 0.51787 0.87453 0.75086 0.0
C2356 C 0.50741 0.87377 0.73236 0.0
C2357 C 0.51703 0.86699 0.7146 0.0
C2358 C 0.53714 0.86099 0.71529 0.0
C2359 C 0.54766 0.86169 0.73375 0.0
H2360 H 0.50891 0.86641 0.70029 0.0
H2361 H 0.61032 0.87577 0.87982 0.0
H2362 H 0.86414 0.05784 0.29423 0.0
H2363 H 0.89796 0.07211 0.2909 0.0
H2364 H 0.87349 0.12986 0.2681 0.0
H2365 H 0.83966 0.11572 0.27125 0.0
H2366 H 0.90934 0.11923 0.24918 0.0
H2367 H 0.88216 0.12559 0.31732 0.0
H2368 H 0.8669 0.1122 0.34905 0.0
H2369 H 0.91782 0.07251 0.35884 0.0
H2370 H 0.93324 0.08545 0.32697 0.0
H2371 H 0.98232 0.1938 0.27724 0.0
H2372 H 0.95149 0.17363 0.27355 0.0
H2373 H 0.98048 0.12013 0.30047 0.0
H2374 H 0.01131 0.14027 0.30449 0.0
H2375 H 0.94378 0.12587 0.31612 0.0
H2376 H 0.97251 0.12245 0.24918 0.0
H2377 H 0.98746 0.1365 0.21758 0.0
H2378 H 0.93374 0.17123 0.20553 0.0
H2379 H 0.91856 0.15761 0.23723 0.0
C2380 C 0.86596 0.07339 0.28804 0.0
C2381 C 0.84921 0.08579 0.28331 0.0
C2382 C 0.88529 0.08153 0.28621 0.0
C2383 C 0.88814 0.10215 0.27961 0.0
C2384 C 0.87157 0.11394 0.27331 0.0
C2385 C 0.85225 0.10585 0.27519 0.0
C2386 C 0.90801 0.11223 0.28133 0.0
C2387 C 0.91687 0.12078 0.2638 0.0
C2388 C 0.9179 0.11395 0.30039 0.0
C2389 C 0.90874 0.1063 0.31965 0.0
C2390 C 0.89002 0.11389 0.32616 0.0
C2391 C 0.88136 0.1064 0.34418 0.0
C2392 C 0.89136 0.09147 0.35593 0.0
C2393 C 0.91008 0.08405 0.34971 0.0
C2394 C 0.91879 0.09145 0.33167 0.0
C2395 C 0.98214 0.17776 0.28242 0.0
C2396 C -0.00072 0.16863 0.29112 0.0
C2397 C 0.96454 0.16621 0.28018 0.0
C2398 C 0.9638 0.14528 0.28643 0.0
C2399 C 0.98077 0.13623 0.29545 0.0
C2400 C -0.00163 0.14777 0.29774 0.0
C2401 C 0.94517 0.13299 0.28396 0.0
C2402 C 0.93646 0.12408 0.30141 0.0
C2403 C 0.93543 0.13102 0.26483 0.0
C2404 C 0.94446 0.13913 0.24567 0.0
C2405 C 0.96393 0.1332 0.23987 0.0
C2406 C 0.97244 0.14107 0.22193 0.0
C2407 C 0.96157 0.15478 0.20958 0.0
C2408 C 0.94215 0.16061 0.21512 0.0
C2409 C 0.93357 0.1528 0.23306 0.0
H2410 H 0.96819 0.16086 0.1957 0.0
H2411 H 0.88463 0.08569 0.36988 0.0
H2412 H 0.16307 0.6279 0.1927 0.0
H2413 H 0.1291 0.64162 0.1949 0.0
H2414 H 0.10527 0.57962 0.1868 0.0
H2415 H 0.13933 0.56574 0.18415 0.0
H2416 H 0.08735 0.60687 0.16188 0.0
H2417 H 0.1031 0.60433 0.23332 0.0
H2418 H 0.12326 0.61103 0.26421 0.0
H2419 H 0.11757 0.67703 0.25473 0.0
H2420 H 0.0976 0.67073 0.22362 0.0
H2421 H 0.98668 0.63329 0.18396 0.0
H2422 H 0.02023 0.61827 0.18444 0.0
H2423 H 0.04566 0.6796 0.19242 0.0
H2424 H 0.01202 0.69478 0.19236 0.0
H2425 H 0.06248 0.65201 0.21799 0.0
H2426 H 0.04773 0.65475 0.14623 0.0
H2427 H 0.02782 0.64837 0.11511 0.0
H2428 H 0.03192 0.5823 0.12498 0.0
H2429 H 0.05164 0.5883 0.15634 0.0
C2430 C 0.15063 0.61711 0.19161 0.0
C2431 C 0.1539 0.59572 0.18822 0.0
C2432 C 0.13121 0.62498 0.19296 0.0
C2433 C 0.11466 0.61162 0.19119 0.0
C2434 C 0.11785 0.59019 0.18822 0.0
C2435 C 0.13731 0.58229 0.18679 0.0
C2436 C 0.09407 0.62022 0.19131 0.0
C2437 C 0.08177 0.61644 0.17432 0.0
C2438 C 0.08705 0.63321 0.20726 0.0
C2439 C 0.09899 0.63704 0.22603 0.0
C2440 C 0.10627 0.62027 0.23773 0.0
C2441 C 0.11764 0.624 0.2553 0.0
C2442 C 0.12173 0.64444 0.2614 0.0
C2443 C 0.11441 0.6612 0.24998 0.0
C2444 C 0.10304 0.65756 0.23239 0.0
C2445 C -0.00061 0.64363 0.18572 0.0
C2446 C 0.99669 0.66525 0.18807 0.0
C2447 C 0.01857 0.63501 0.18593 0.0
C2448 C 0.03544 0.64785 0.18825 0.0
C2449 C 0.03282 0.66943 0.1906 0.0
C2450 C 0.0136 0.67808 0.19049 0.0
C2451 C 0.05579 0.63866 0.18856 0.0
C2452 C 0.06804 0.64236 0.20561 0.0
C2453 C 0.06279 0.62563 0.17263 0.0
C2454 C 0.05099 0.62199 0.15374 0.0
C2455 C 0.04425 0.63887 0.14186 0.0
C2456 C 0.03303 0.63532 0.12415 0.0
C2457 C 0.02856 0.61495 0.1181 0.0
C2458 C 0.03537 0.59807 0.12971 0.0
C2459 C 0.04658 0.60154 0.14743 0.0
H2460 H 0.01987 0.61223 0.10439 0.0
H2461 H 0.13054 0.64729 0.27501 0.0
H2462 H 0.33537 0.36709 0.69595 0.0
H2463 H 0.36862 0.35191 0.6995 0.0
H2464 H 0.39394 0.41335 0.70708 0.0
H2465 H 0.36065 0.42877 0.70297 0.0
H2466 H 0.41406 0.39256 0.67954 0.0
H2467 H 0.39163 0.37757 0.74719 0.0
H2468 H 0.36869 0.36442 0.77377 0.0
H2469 H 0.37382 0.30246 0.74945 0.0
H2470 H 0.39658 0.31528 0.72254 0.0
H2471 H 0.51135 0.3533 0.69988 0.0
H2472 H 0.47886 0.37015 0.7045 0.0
H2473 H 0.44901 0.31215 0.6908 0.0
H2474 H 0.48149 0.29506 0.68627 0.0
H2475 H 0.43221 0.33267 0.72386 0.0
H2476 H 0.45247 0.34861 0.6548 0.0
H2477 H 0.47541 0.36189 0.62827 0.0
H2478 H 0.47428 0.4226 0.65595 0.0
H2479 H 0.45153 0.40959 0.68282 0.0
C2480 C 0.34794 0.37739 0.6987 0.0
C2481 C 0.34539 0.39915 0.69908 0.0
C2482 C 0.36697 0.36866 0.70083 0.0
C2483 C 0.38378 0.38147 0.70373 0.0
C2484 C 0.38117 0.40317 0.70486 0.0
C2485 C 0.36215 0.41195 0.70255 0.0
C2486 C 0.40418 0.3723 0.70384 0.0
C2487 C 0.41814 0.37976 0.68955 0.0
C2488 C 0.40936 0.35523 0.71653 0.0
C2489 C 0.39571 0.34743 0.73275 0.0
C2490 C 0.38776 0.36117 0.74741 0.0
C2491 C 0.3748 0.35376 0.76256 0.0
C2492 C 0.36977 0.33262 0.76328 0.0
C2493 C 0.37772 0.31883 0.74887 0.0
C2494 C 0.39068 0.32616 0.73369 0.0
C2495 C 0.49789 0.34409 0.69788 0.0
C2496 C 0.49899 0.32286 0.69257 0.0
C2497 C 0.47934 0.35376 0.70051 0.0
C2498 C 0.46157 0.34243 0.69782 0.0
C2499 C 0.46259 0.32115 0.69295 0.0
C2500 C 0.48115 0.31145 0.69026 0.0
C2501 C 0.44189 0.35291 0.69953 0.0
C2502 C 0.42811 0.34565 0.71407 0.0
C2503 C 0.43687 0.37021 0.68714 0.0
C2504 C 0.45047 0.37807 0.67094 0.0
C2505 C 0.45724 0.36475 0.65533 0.0
C2506 C 0.47019 0.37224 0.64021 0.0
C2507 C 0.47635 0.39306 0.64046 0.0
C2508 C 0.46952 0.40646 0.65579 0.0
C2509 C 0.45659 0.39905 0.67096 0.0
H2510 H 0.48637 0.39883 0.62874 0.0
H2511 H 0.35973 0.32692 0.77501 0.0
H2512 H 0.78666 0.62671 0.92325 0.0
H2513 H 0.78618 0.59327 0.90539 0.0
H2514 H 0.76654 0.62394 0.85026 0.0
H2515 H 0.76691 0.65752 0.86798 0.0
H2516 H 0.74892 0.58425 0.85617 0.0
H2517 H 0.81399 0.61645 0.85533 0.0
H2518 H 0.84362 0.63321 0.87074 0.0
H2519 H 0.8548 0.57827 0.90652 0.0
H2520 H 0.82503 0.5613 0.89155 0.0
H2521 H 0.78325 0.50834 0.78466 0.0
H2522 H 0.77744 0.54093 0.80318 0.0
H2523 H 0.80184 0.51337 0.85795 0.0
H2524 H 0.80796 0.4809 0.83955 0.0
H2525 H 0.81633 0.55181 0.85191 0.0
H2526 H 0.75151 0.51913 0.85183 0.0
H2527 H 0.72196 0.50255 0.8361 0.0
H2528 H 0.71034 0.55826 0.80163 0.0
H2529 H 0.74002 0.57507 0.81694 0.0
C2530 C 0.78181 0.62633 0.90745 0.0
C2531 C 0.77712 0.64482 0.89693 0.0
C2532 C 0.78159 0.6072 0.89727 0.0
C2533 C 0.77667 0.60625 0.87645 0.0
C2534 C 0.77046 0.62441 0.86632 0.0
C2535 C 0.77075 0.64358 0.87647 0.0
C2536 C 0.77994 0.58679 0.86481 0.0
C2537 C 0.76366 0.57722 0.85505 0.0
C2538 C 0.79917 0.57759 0.86357 0.0
C2539 C 0.81716 0.58769 0.87249 0.0
C2540 C 0.82267 0.60801 0.86661 0.0
C2541 C 0.8395 0.61753 0.87524 0.0
C2542 C 0.85105 0.60683 0.88964 0.0
C2543 C 0.84582 0.58656 0.8954 0.0
C2544 C 0.82897 0.57697 0.88684 0.0
C2545 C 0.78744 0.50924 0.80063 0.0
C2546 C 0.79604 0.49203 0.81064 0.0
C2547 C 0.78399 0.52783 0.81121 0.0
C2548 C 0.78897 0.52946 0.832 0.0
C2549 C 0.79784 0.51241 0.84193 0.0
C2550 C 0.80131 0.49386 0.83138 0.0
C2551 C 0.78526 0.54902 0.84342 0.0
C2552 C 0.80153 0.55873 0.85307 0.0
C2553 C 0.76603 0.55831 0.84449 0.0
C2554 C 0.7481 0.54828 0.83538 0.0
C2555 C 0.74274 0.52779 0.84077 0.0
C2556 C 0.72596 0.51836 0.83195 0.0
C2557 C 0.71431 0.52933 0.81783 0.0
C2558 C 0.71939 0.54977 0.81255 0.0
C2559 C 0.73619 0.55926 0.8213 0.0
H2560 H 0.70132 0.522 0.81102 0.0
H2561 H 0.86408 0.61423 0.8963 0.0
H2562 H 0.25337 0.86914 0.08249 0.0
H2563 H 0.24911 0.90286 0.0997 0.0
H2564 H 0.31265 0.91401 0.09525 0.0
H2565 H 0.31707 0.88073 0.0779 0.0
H2566 H 0.29553 0.91498 0.13601 0.0
H2567 H 0.28477 0.94225 0.06765 0.0
H2568 H 0.26754 0.94402 0.03436 0.0
H2569 H 0.212 0.95777 0.06459 0.0
H2570 H 0.22885 0.95578 0.09811 0.0
H2571 H 0.31247 0.01482 0.17404 0.0
H2572 H 0.31073 0.9838 0.15259 0.0
H2573 H 0.24642 0.98996 0.14911 0.0
H2574 H 0.24819 0.02165 0.16996 0.0
H2575 H 0.2601 0.97897 0.1134 0.0
H2576 H 0.2691 0.9535 0.18098 0.0
H2577 H 0.28432 0.95071 0.21522 0.0
H2578 H 0.34004 0.93158 0.18833 0.0
H2579 H 0.32525 0.93454 0.1539 0.0
C2580 C 0.26636 0.87898 0.0848 0.0
C2581 C 0.28558 0.87215 0.07901 0.0
C2582 C 0.26389 0.89821 0.0946 0.0
C2583 C 0.2806 0.91076 0.09881 0.0
C2584 C 0.2996 0.90445 0.09217 0.0
C2585 C 0.30206 0.88542 0.08222 0.0
C2586 C 0.27878 0.9295 0.11178 0.0
C2587 C 0.28796 0.92907 0.13103 0.0
C2588 C 0.26813 0.94743 0.10554 0.0
C2589 C 0.25802 0.94861 0.0854 0.0
C2590 C 0.26884 0.94543 0.06722 0.0
C2591 C 0.25915 0.94653 0.0483 0.0
C2592 C 0.23867 0.95094 0.04736 0.0
C2593 C 0.22785 0.95432 0.06534 0.0
C2594 C 0.23746 0.95322 0.0843 0.0
C2595 C 0.29795 0.00957 0.16872 0.0
C2596 C 0.28044 0.02053 0.17381 0.0
C2597 C 0.29696 0.99179 0.15652 0.0
C2598 C 0.27839 0.98427 0.1496 0.0
C2599 C 0.26089 0.99542 0.15435 0.0
C2600 C 0.26192 0.01346 0.1663 0.0
C2601 C 0.2774 0.96472 0.13751 0.0
C2602 C 0.26758 0.96488 0.11851 0.0
C2603 C 0.28714 0.94631 0.14414 0.0
C2604 C 0.2961 0.9444 0.16484 0.0
C2605 C 0.28464 0.94884 0.18236 0.0
C2606 C 0.29319 0.94721 0.2018 0.0
C2607 C 0.31315 0.94102 0.20394 0.0
C2608 C 0.32459 0.93639 0.18664 0.0
C2609 C 0.31612 0.93802 0.16716 0.0
H2610 H 0.31974 0.93977 0.21901 0.0
H2611 H 0.2312 0.95179 0.0327 0.0
H2612 H 0.19149 0.99656 0.68133 0.0
H2613 H 0.19643 0.02704 0.65955 0.0
H2614 H 0.25499 0.00444 0.64257 0.0
H2615 H 0.25031 0.97401 0.66463 0.0
H2616 H 0.25627 0.04509 0.65053 0.0
H2617 H 0.21663 0.00068 0.60905 0.0
H2618 H 0.18858 0.97719 0.60062 0.0
H2619 H 0.14671 0.02689 0.61108 0.0
H2620 H 0.1745 0.05061 0.61988 0.0
H2621 H 0.22138 0.1208 0.56128 0.0
H2622 H 0.22793 0.08583 0.5747 0.0
H2623 H 0.23281 0.11115 0.63561 0.0
H2624 H 0.22676 0.14603 0.62232 0.0
H2625 H 0.20479 0.06515 0.59948 0.0
H2626 H 0.26139 0.08162 0.66571 0.0
H2627 H 0.29102 0.10364 0.67208 0.0
H2628 H 0.30236 0.10722 0.60757 0.0
H2629 H 0.27297 0.08497 0.60081 0.0
C2630 C 0.20543 0.99805 0.67297 0.0
C2631 C 0.22049 0.98284 0.67466 0.0
C2632 C 0.20819 0.01543 0.66045 0.0
C2633 C 0.22596 0.01784 0.64921 0.0
C2634 C 0.24114 0.00283 0.65106 0.0
C2635 C 0.23841 0.98545 0.66365 0.0
C2636 C 0.22869 0.03625 0.63582 0.0
C2637 C 0.24511 0.04945 0.63926 0.0
C2638 C 0.21445 0.04155 0.62066 0.0
C2639 C 0.19766 0.02739 0.61524 0.0
C2640 C 0.20143 0.00657 0.60968 0.0
C2641 C 0.18558 0.99322 0.60482 0.0
C2642 C 0.16587 0.00054 0.60534 0.0
C2643 C 0.16198 0.02124 0.61068 0.0
C2644 C 0.17779 0.03466 0.61558 0.0
C2645 C 0.22427 0.11896 0.57747 0.0
C2646 C 0.22341 0.13617 0.59076 0.0
C2647 C 0.22796 0.09896 0.58512 0.0
C2648 C 0.23094 0.09586 0.60615 0.0
C2649 C 0.23092 0.11316 0.61928 0.0
C2650 C 0.22731 0.13312 0.61166 0.0
C2651 C 0.23195 0.07449 0.61478 0.0
C2652 C 0.21618 0.0607 0.61047 0.0
C2653 C 0.24703 0.06847 0.6288 0.0
C2654 C 0.26487 0.08172 0.63276 0.0
C2655 C 0.27026 0.087 0.65288 0.0
C2656 C 0.287 0.09955 0.65656 0.0
C2657 C 0.29854 0.10686 0.64024 0.0
C2658 C 0.29337 0.1016 0.6202 0.0
C2659 C 0.27665 0.08905 0.61643 0.0
H2660 H 0.31149 0.11658 0.64312 0.0
H2661 H 0.15361 0.99017 0.60158 0.0
H2662 H 0.73314 0.36976 0.42365 0.0
H2663 H 0.73681 0.40505 0.40974 0.0
H2664 H 0.72134 0.38213 0.34974 0.0
H2665 H 0.7186 0.34694 0.36328 0.0
H2666 H 0.74857 0.40967 0.34554 0.0
H2667 H 0.68659 0.40641 0.38349 0.0
H2668 H 0.66553 0.40065 0.41396 0.0
H2669 H 0.69766 0.44848 0.44615 0.0
H2670 H 0.71907 0.45434 0.41592 0.0
H2671 H 0.70056 0.49614 0.29842 0.0
H2672 H 0.70691 0.46325 0.31629 0.0
H2673 H 0.73928 0.4963 0.36322 0.0
H2674 H 0.73337 0.52929 0.34521 0.0
H2675 H 0.70787 0.46609 0.37665 0.0
H2676 H 0.76669 0.47157 0.33446 0.0
H2677 H 0.78475 0.47713 0.30203 0.0
H2678 H 0.75482 0.42435 0.27561 0.0
H2679 H 0.73635 0.41866 0.30779 0.0
C2680 C 0.73078 0.37226 0.40745 0.0
C2681 C 0.72545 0.35561 0.39458 0.0
C2682 C 0.73276 0.39244 0.39954 0.0
C2683 C 0.72897 0.39635 0.37875 0.0
C2684 C 0.72436 0.37957 0.36581 0.0
C2685 C 0.72273 0.35941 0.37361 0.0
C2686 C 0.72887 0.4179 0.37039 0.0
C2687 C 0.7396 0.42195 0.35235 0.0
C2688 C 0.71745 0.43412 0.3794 0.0
C2689 C 0.70458 0.43063 0.39756 0.0
C2690 C 0.68925 0.41559 0.39712 0.0
C2691 C 0.67724 0.41232 0.41433 0.0
C2692 C 0.6803 0.42414 0.432 0.0
C2693 C 0.69534 0.4393 0.43247 0.0
C2694 C 0.70741 0.44261 0.41531 0.0
C2695 C 0.70904 0.49641 0.31253 0.0
C2696 C 0.71651 0.51525 0.32041 0.0
C2697 C 0.7127 0.47764 0.32266 0.0
C2698 C 0.72363 0.47744 0.34097 0.0
C2699 C 0.73087 0.49622 0.34906 0.0
C2700 C 0.72753 0.51498 0.33874 0.0
C2701 C 0.72717 0.45752 0.3517 0.0
C2702 C 0.71708 0.45384 0.37013 0.0
C2703 C 0.7388 0.44152 0.34282 0.0
C2704 C 0.75002 0.4448 0.32349 0.0
C2705 C 0.76384 0.46126 0.32168 0.0
C2706 C 0.77417 0.46441 0.30335 0.0
C2707 C 0.77091 0.45113 0.28675 0.0
C2708 C 0.75733 0.43463 0.28847 0.0
C2709 C 0.74694 0.43142 0.30676 0.0
H2710 H 0.77893 0.4536 0.27258 0.0
H2711 H 0.67098 0.42159 0.44531 0.0
loop_
_geom_bond_atom_site_label_1
_geom_bond_atom_site_label_2
_geom_bond_distance
_geom_bond_site_symmetry_2
_ccdc_geom_bond_type
C0 O1 1.160 . S
C0 O7 1.185 . S
O1 C0 1.160 . S
O2 Zn3 1.899 . S
O2 C10 1.284 . S
Zn3 O2 1.899 . S
Zn3 O4 2.032 . S
Zn3 O7 2.086 . S
Zn3 O12 1.977 . S
O4 Zn3 2.032 . S
O4 C8 1.278 . S
C5 O6 1.203 . S
C5 O12 1.267 . S
O6 C5 1.203 . S
O7 C0 1.185 . S
O7 Zn3 2.086 . S
C8 O4 1.278 . S
C8 O9 1.211 . S
O9 C8 1.211 . S
C10 O2 1.284 . S
C10 O11 1.273 . S
O11 C10 1.273 . S
O12 Zn3 1.977 . S
O12 C5 1.267 . S
C13 O14 1.160 . S
C13 O20 1.185 . S
O14 C13 1.160 . S
O15 Zn16 1.899 . S
O15 C23 1.284 . S
Zn16 O15 1.899 . S
Zn16 O17 2.032 . S
Zn16 O20 2.086 . S
Zn16 O25 1.977 . S
O17 Zn16 2.032 . S
O17 C21 1.278 . S
C18 O19 1.203 . S
C18 O25 1.267 . S
O19 C18 1.203 . S
O20 C13 1.185 . S
O20 Zn16 2.086 . S
C21 O17 1.278 . S
C21 O22 1.211 . S
O22 C21 1.211 . S
C23 O15 1.284 . S
C23 O24 1.273 . S
O24 C23 1.273 . S
O25 Zn16 1.977 . S
O25 C18 1.267 . S
C26 O27 1.160 . S
C26 O33 1.185 . S
O27 C26 1.160 . S
O28 Zn29 1.899 . S
O28 C36 1.284 . S
Zn29 O28 1.899 . S
Zn29 O30 2.032 . S
Zn29 O33 2.086 . S
Zn29 O38 1.977 . S
O30 Zn29 2.032 . S
O30 C34 1.278 . S
C31 O32 1.203 . S
C31 O38 1.267 . S
O32 C31 1.203 . S
O33 C26 1.185 . S
O33 Zn29 2.086 . S
C34 O30 1.278 . S
C34 O35 1.211 . S
O35 C34 1.211 . S
C36 O28 1.284 . S
C36 O37 1.273 . S
O37 C36 1.273 . S
O38 Zn29 1.977 . S
O38 C31 1.267 . S
C39 O40 1.160 . S
C39 O46 1.185 . S
O40 C39 1.160 . S
O41 Zn42 1.899 . S
O41 C49 1.284 . S
Zn42 O41 1.899 . S
Zn42 O43 2.032 . S
Zn42 O46 2.086 . S
Zn42 O51 1.977 . S
O43 Zn42 2.032 . S
O43 C47 1.278 . S
C44 O45 1.203 . S
C44 O51 1.267 . S
O45 C44 1.203 . S
O46 C39 1.185 . S
O46 Zn42 2.086 . S
C47 O43 1.278 . S
C47 O48 1.211 . S
O48 C47 1.211 . S
C49 O41 1.284 . S
C49 O50 1.273 . S
O50 C49 1.273 . S
O51 Zn42 1.977 . S
O51 C44 1.267 . S
C52 O53 1.160 . S
C52 O59 1.185 . S
O53 C52 1.160 . S
O54 Zn55 1.899 . S
O54 C62 1.284 . S
Zn55 O54 1.899 . S
Zn55 O56 2.032 . S
Zn55 O59 2.086 . S
Zn55 O64 1.977 . S
O56 Zn55 2.032 . S
O56 C60 1.278 . S
C57 O58 1.203 . S
C57 O64 1.267 . S
O58 C57 1.203 . S
O59 C52 1.185 . S
O59 Zn55 2.086 . S
C60 O56 1.278 . S
C60 O61 1.211 . S
O61 C60 1.211 . S
C62 O54 1.284 . S
C62 O63 1.273 . S
O63 C62 1.273 . S
O64 Zn55 1.977 . S
O64 C57 1.267 . S
C65 O66 1.160 . S
C65 O72 1.185 . S
O66 C65 1.160 . S
O67 Zn68 1.899 . S
O67 C75 1.284 . S
Zn68 O67 1.899 . S
Zn68 O69 2.032 . S
Zn68 O72 2.086 . S
Zn68 O77 1.977 . S
O69 Zn68 2.032 . S
O69 C73 1.278 . S
C70 O71 1.203 . S
C70 O77 1.267 . S
O71 C70 1.203 . S
O72 C65 1.185 . S
O72 Zn68 2.086 . S
C73 O69 1.278 . S
C73 O74 1.211 . S
O74 C73 1.211 . S
C75 O67 1.284 . S
C75 O76 1.273 . S
O76 C75 1.273 . S
O77 Zn68 1.977 . S
O77 C70 1.267 . S
C78 O79 1.160 . S
C78 O85 1.185 . S
O79 C78 1.160 . S
O80 Zn81 1.899 . S
O80 C88 1.284 . S
Zn81 O80 1.899 . S
Zn81 O82 2.032 . S
Zn81 O85 2.086 . S
Zn81 O90 1.977 . S
O82 Zn81 2.032 . S
O82 C86 1.278 . S
C83 O84 1.203 . S
C83 O90 1.267 . S
O84 C83 1.203 . S
O85 C78 1.185 . S
O85 Zn81 2.086 . S
C86 O82 1.278 . S
C86 O87 1.211 . S
O87 C86 1.211 . S
C88 O80 1.284 . S
C88 O89 1.273 . S
O89 C88 1.273 . S
O90 Zn81 1.977 . S
O90 C83 1.267 . S
C91 O92 1.160 . S
C91 O98 1.185 . S
O92 C91 1.160 . S
O93 Zn94 1.899 . S
O93 C101 1.284 . S
Zn94 O93 1.899 . S
Zn94 O95 2.032 . S
Zn94 O98 2.086 . S
Zn94 O103 1.977 . S
O95 Zn94 2.032 . S
O95 C99 1.278 . S
C96 O97 1.203 . S
C96 O103 1.267 . S
O97 C96 1.203 . S
O98 C91 1.185 . S
O98 Zn94 2.086 . S
C99 O95 1.278 . S
C99 O100 1.211 . S
O100 C99 1.211 . S
C101 O93 1.284 . S
C101 O102 1.273 . S
O102 C101 1.273 . S
O103 Zn94 1.977 . S
O103 C96 1.267 . S
C104 O105 1.160 . S
C104 O111 1.185 . S
O105 C104 1.160 . S
O106 Zn107 1.899 . S
O106 C114 1.284 . S
Zn107 O106 1.899 . S
Zn107 O108 2.032 . S
Zn107 O111 2.086 . S
Zn107 O116 1.977 . S
O108 Zn107 2.032 . S
O108 C112 1.278 . S
C109 O110 1.203 . S
C109 O116 1.267 . S
O110 C109 1.203 . S
O111 C104 1.185 . S
O111 Zn107 2.086 . S
C112 O108 1.278 . S
C112 O113 1.211 . S
O113 C112 1.211 . S
C114 O106 1.284 . S
C114 O115 1.273 . S
O115 C114 1.273 . S
O116 Zn107 1.977 . S
O116 C109 1.267 . S
C117 O118 1.160 . S
C117 O124 1.185 . S
O118 C117 1.160 . S
O119 Zn120 1.899 . S
O119 C127 1.284 . S
Zn120 O119 1.899 . S
Zn120 O121 2.032 . S
Zn120 O124 2.086 . S
Zn120 O129 1.977 . S
O121 Zn120 2.032 . S
O121 C125 1.278 . S
C122 O123 1.203 . S
C122 O129 1.267 . S
O123 C122 1.203 . S
O124 C117 1.185 . S
O124 Zn120 2.086 . S
C125 O121 1.278 . S
C125 O126 1.211 . S
O126 C125 1.211 . S
C127 O119 1.284 . S
C127 O128 1.273 . S
O128 C127 1.273 . S
O129 Zn120 1.977 . S
O129 C122 1.267 . S
C130 O131 1.160 . S
C130 O137 1.185 . S
O131 C130 1.160 . S
O132 Zn133 1.899 . S
O132 C140 1.284 . S
Zn133 O132 1.899 . S
Zn133 O134 2.032 . S
Zn133 O137 2.086 . S
Zn133 O142 1.977 . S
O134 Zn133 2.032 . S
O134 C138 1.278 . S
C135 O136 1.203 . S
C135 O142 1.267 . S
O136 C135 1.203 . S
O137 C130 1.185 . S
O137 Zn133 2.086 . S
C138 O134 1.278 . S
C138 O139 1.211 . S
O139 C138 1.211 . S
C140 O132 1.284 . S
C140 O141 1.273 . S
O141 C140 1.273 . S
O142 Zn133 1.977 . S
O142 C135 1.267 . S
C143 O144 1.160 . S
C143 O150 1.185 . S
O144 C143 1.160 . S
O145 Zn146 1.899 . S
O145 C153 1.284 . S
Zn146 O145 1.899 . S
Zn146 O147 2.032 . S
Zn146 O150 2.086 . S
Zn146 O155 1.977 . S
O147 Zn146 2.032 . S
O147 C151 1.278 . S
C148 O149 1.203 . S
C148 O155 1.267 . S
O149 C148 1.203 . S
O150 C143 1.185 . S
O150 Zn146 2.086 . S
C151 O147 1.278 . S
C151 O152 1.211 . S
O152 C151 1.211 . S
C153 O145 1.284 . S
C153 O154 1.273 . S
O154 C153 1.273 . S
O155 Zn146 1.977 . S
O155 C148 1.267 . S
C156 O157 1.160 . S
C156 O163 1.185 . S
O157 C156 1.160 . S
O158 Zn159 1.899 . S
O158 C166 1.284 . S
Zn159 O158 1.899 . S
Zn159 O160 2.032 . S
Zn159 O163 2.086 . S
Zn159 O168 1.977 . S
O160 Zn159 2.032 . S
O160 C164 1.278 . S
C161 O162 1.203 . S
C161 O168 1.267 . S
O162 C161 1.203 . S
O163 C156 1.185 . S
O163 Zn159 2.086 . S
C164 O160 1.278 . S
C164 O165 1.211 . S
O165 C164 1.211 . S
C166 O158 1.284 . S
C166 O167 1.273 . S
O167 C166 1.273 . S
O168 Zn159 1.977 . S
O168 C161 1.267 . S
C169 O170 1.160 . S
C169 O176 1.185 . S
O170 C169 1.160 . S
O171 Zn172 1.899 . S
O171 C179 1.284 . S
Zn172 O171 1.899 . S
Zn172 O173 2.032 . S
Zn172 O176 2.086 . S
Zn172 O181 1.977 . S
O173 Zn172 2.032 . S
O173 C177 1.278 . S
C174 O175 1.203 . S
C174 O181 1.267 . S
O175 C174 1.203 . S
O176 C169 1.185 . S
O176 Zn172 2.086 . S
C177 O173 1.278 . S
C177 O178 1.211 . S
O178 C177 1.211 . S
C179 O171 1.284 . S
C179 O180 1.273 . S
O180 C179 1.273 . S
O181 Zn172 1.977 . S
O181 C174 1.267 . S
C182 O183 1.160 . S
C182 O189 1.185 . S
O183 C182 1.160 . S
O184 Zn185 1.899 . S
O184 C192 1.284 . S
Zn185 O184 1.899 . S
Zn185 O186 2.032 . S
Zn185 O189 2.086 . S
Zn185 O194 1.977 . S
O186 Zn185 2.032 . S
O186 C190 1.278 . S
C187 O188 1.203 . S
C187 O194 1.267 . S
O188 C187 1.203 . S
O189 C182 1.185 . S
O189 Zn185 2.086 . S
C190 O186 1.278 . S
C190 O191 1.211 . S
O191 C190 1.211 . S
C192 O184 1.284 . S
C192 O193 1.273 . S
O193 C192 1.273 . S
O194 Zn185 1.977 . S
O194 C187 1.267 . S
C195 O196 1.160 . S
C195 O202 1.185 . S
O196 C195 1.160 . S
O197 Zn198 1.899 . S
O197 C205 1.284 . S
Zn198 O197 1.899 . S
Zn198 O199 2.032 . S
Zn198 O202 2.086 . S
Zn198 O207 1.977 . S
O199 Zn198 2.032 . S
O199 C203 1.278 . S
C200 O201 1.203 . S
C200 O207 1.267 . S
O201 C200 1.203 . S
O202 C195 1.185 . S
O202 Zn198 2.086 . S
C203 O199 1.278 . S
C203 O204 1.211 . S
O204 C203 1.211 . S
C205 O197 1.284 . S
C205 O206 1.273 . S
O206 C205 1.273 . S
O207 Zn198 1.977 . S
O207 C200 1.267 . S
C208 O209 1.160 . S
C208 O215 1.185 . S
O209 C208 1.160 . S
O210 Zn211 1.899 . S
O210 C218 1.284 . S
Zn211 O210 1.899 . S
Zn211 O212 2.032 . S
Zn211 O215 2.086 . S
Zn211 O220 1.977 . S
O212 Zn211 2.032 . S
O212 C216 1.278 . S
C213 O214 1.203 . S
C213 O220 1.267 . S
O214 C213 1.203 . S
O215 C208 1.185 . S
O215 Zn211 2.086 . S
C216 O212 1.278 . S
C216 O217 1.211 . S
O217 C216 1.211 . S
C218 O210 1.284 . S
C218 O219 1.273 . S
O219 C218 1.273 . S
O220 Zn211 1.977 . S
O220 C213 1.267 . S
C221 O222 1.160 . S
C221 O228 1.185 . S
O222 C221 1.160 . S
O223 Zn224 1.899 . S
O223 C231 1.284 . S
Zn224 O223 1.899 . S
Zn224 O225 2.032 . S
Zn224 O228 2.086 . S
Zn224 O233 1.977 . S
O225 Zn224 2.032 . S
O225 C229 1.278 . S
C226 O227 1.203 . S
C226 O233 1.267 . S
O227 C226 1.203 . S
O228 C221 1.185 . S
O228 Zn224 2.086 . S
C229 O225 1.278 . S
C229 O230 1.211 . S
O230 C229 1.211 . S
C231 O223 1.284 . S
C231 O232 1.273 . S
O232 C231 1.273 . S
O233 Zn224 1.977 . S
O233 C226 1.267 . S
C234 O235 1.160 . S
C234 O241 1.185 . S
O235 C234 1.160 . S
O236 Zn237 1.899 . S
O236 C244 1.284 . S
Zn237 O236 1.899 . S
Zn237 O238 2.032 . S
Zn237 O241 2.086 . S
Zn237 O246 1.977 . S
O238 Zn237 2.032 . S
O238 C242 1.278 . S
C239 O240 1.203 . S
C239 O246 1.267 . S
O240 C239 1.203 . S
O241 C234 1.185 . S
O241 Zn237 2.086 . S
C242 O238 1.278 . S
C242 O243 1.211 . S
O243 C242 1.211 . S
C244 O236 1.284 . S
C244 O245 1.273 . S
O245 C244 1.273 . S
O246 Zn237 1.977 . S
O246 C239 1.267 . S
C247 O248 1.160 . S
C247 O254 1.185 . S
O248 C247 1.160 . S
O249 Zn250 1.899 . S
O249 C257 1.284 . S
Zn250 O249 1.899 . S
Zn250 O251 2.032 . S
Zn250 O254 2.086 . S
Zn250 O259 1.977 . S
O251 Zn250 2.032 . S
O251 C255 1.278 . S
C252 O253 1.203 . S
C252 O259 1.267 . S
O253 C252 1.203 . S
O254 C247 1.185 . S
O254 Zn250 2.086 . S
C255 O251 1.278 . S
C255 O256 1.211 . S
O256 C255 1.211 . S
C257 O249 1.284 . S
C257 O258 1.273 . S
O258 C257 1.273 . S
O259 Zn250 1.977 . S
O259 C252 1.267 . S
C260 O261 1.160 . S
C260 O267 1.185 . S
O261 C260 1.160 . S
O262 Zn263 1.899 . S
O262 C270 1.284 . S
Zn263 O262 1.899 . S
Zn263 O264 2.032 . S
Zn263 O267 2.086 . S
Zn263 O272 1.977 . S
O264 Zn263 2.032 . S
O264 C268 1.278 . S
C265 O266 1.203 . S
C265 O272 1.267 . S
O266 C265 1.203 . S
O267 C260 1.185 . S
O267 Zn263 2.086 . S
C268 O264 1.278 . S
C268 O269 1.211 . S
O269 C268 1.211 . S
C270 O262 1.284 . S
C270 O271 1.273 . S
O271 C270 1.273 . S
O272 Zn263 1.977 . S
O272 C265 1.267 . S
C273 O274 1.160 . S
C273 O280 1.185 . S
O274 C273 1.160 . S
O275 Zn276 1.899 . S
O275 C283 1.284 . S
Zn276 O275 1.899 . S
Zn276 O277 2.032 . S
Zn276 O280 2.086 . S
Zn276 O285 1.977 . S
O277 Zn276 2.032 . S
O277 C281 1.278 . S
C278 O279 1.203 . S
C278 O285 1.267 . S
O279 C278 1.203 . S
O280 C273 1.185 . S
O280 Zn276 2.086 . S
C281 O277 1.278 . S
C281 O282 1.211 . S
O282 C281 1.211 . S
C283 O275 1.284 . S
C283 O284 1.273 . S
O284 C283 1.273 . S
O285 Zn276 1.977 . S
O285 C278 1.267 . S
C286 O287 1.160 . S
C286 O293 1.185 . S
O287 C286 1.160 . S
O288 Zn289 1.899 . S
O288 C296 1.284 . S
Zn289 O288 1.899 . S
Zn289 O290 2.032 . S
Zn289 O293 2.086 . S
Zn289 O298 1.977 . S
O290 Zn289 2.032 . S
O290 C294 1.278 . S
C291 O292 1.203 . S
C291 O298 1.267 . S
O292 C291 1.203 . S
O293 C286 1.185 . S
O293 Zn289 2.086 . S
C294 O290 1.278 . S
C294 O295 1.211 . S
O295 C294 1.211 . S
C296 O288 1.284 . S
C296 O297 1.273 . S
O297 C296 1.273 . S
O298 Zn289 1.977 . S
O298 C291 1.267 . S
C299 O300 1.160 . S
C299 O306 1.185 . S
O300 C299 1.160 . S
O301 Zn302 1.899 . S
O301 C309 1.284 . S
Zn302 O301 1.899 . S
Zn302 O303 2.032 . S
Zn302 O306 2.086 . S
Zn302 O311 1.977 . S
O303 Zn302 2.032 . S
O303 C307 1.278 . S
C304 O305 1.203 . S
C304 O311 1.267 . S
O305 C304 1.203 . S
O306 C299 1.185 . S
O306 Zn302 2.086 . S
C307 O303 1.278 . S
C307 O308 1.211 . S
O308 C307 1.211 . S
C309 O301 1.284 . S
C309 O310 1.273 . S
O310 C309 1.273 . S
O311 Zn302 1.977 . S
O311 C304 1.267 . S
H312 C330 0.951 . S
H313 C332 0.951 . S
H314 C334 0.950 . S
H315 C335 0.950 . S
H316 C337 0.950 . S
H317 C340 0.950 . S
H318 C341 0.950 . S
H319 C343 0.950 . S
H320 C344 0.950 . S
H321 C345 0.951 . S
H322 C347 0.951 . S
H323 C349 0.950 . S
H324 C350 0.950 . S
H325 C352 0.950 . S
H326 C355 0.950 . S
H327 C356 0.950 . S
H328 C358 0.950 . S
H329 C359 0.950 . S
C330 H312 0.951 . S
C330 C331 1.366 . S
C330 C332 1.388 . S
C331 C330 1.366 . S
C331 C335 1.385 . S
C332 H313 0.951 . S
C332 C330 1.388 . S
C332 C333 1.366 . S
C333 C332 1.366 . S
C333 C334 1.414 . S
C333 C336 1.499 . S
C334 H314 0.950 . S
C334 C333 1.414 . S
C334 C335 1.374 . S
C335 H315 0.950 . S
C335 C331 1.385 . S
C335 C334 1.374 . S
C336 C333 1.499 . S
C336 C337 1.373 . S
C336 C338 1.389 . S
C337 H316 0.950 . S
C337 C336 1.373 . S
C337 C353 1.377 . S
C338 C336 1.389 . S
C338 C339 1.524 . S
C338 C352 1.377 . S
C339 C338 1.524 . S
C339 C340 1.397 . S
C339 C344 1.363 . S
C340 H317 0.950 . S
C340 C339 1.397 . S
C340 C341 1.334 . S
C341 H318 0.950 . S
C341 C340 1.334 . S
C341 C342 1.287 . S
C342 C341 1.287 . S
C342 C343 1.524 . S
C342 H361 0.913 . S
C343 H319 0.950 . S
C343 C342 1.524 . S
C343 C344 1.415 . S
C344 H320 0.950 . S
C344 C339 1.363 . S
C344 C343 1.415 . S
C345 H321 0.951 . S
C345 C346 1.366 . S
C345 C347 1.388 . S
C346 C345 1.366 . S
C346 C350 1.385 . S
C347 H322 0.951 . S
C347 C345 1.388 . S
C347 C348 1.366 . S
C348 C347 1.366 . S
C348 C349 1.414 . S
C348 C351 1.499 . S
C349 H323 0.950 . S
C349 C348 1.414 . S
C349 C350 1.374 . S
C350 H324 0.950 . S
C350 C346 1.385 . S
C350 C349 1.374 . S
C351 C348 1.499 . S
C351 C352 1.373 . S
C351 C353 1.389 . S
C352 H325 0.950 . S
C352 C338 1.377 . S
C352 C351 1.373 . S
C353 C337 1.377 . S
C353 C351 1.389 . S
C353 C354 1.524 . S
C354 C353 1.524 . S
C354 C355 1.397 . S
C354 C359 1.363 . S
C355 H326 0.950 . S
C355 C354 1.397 . S
C355 C356 1.334 . S
C356 H327 0.950 . S
C356 C355 1.334 . S
C356 C357 1.287 . S
C357 C356 1.287 . S
C357 C358 1.524 . S
C357 H360 0.999 . S
C358 H328 0.950 . S
C358 C357 1.524 . S
C358 C359 1.415 . S
C359 H329 0.950 . S
C359 C354 1.363 . S
C359 C358 1.415 . S
H360 C357 0.999 . S
H361 C342 0.913 . S
H362 C380 0.951 . S
H363 C382 0.951 . S
H364 C384 0.950 . S
H365 C385 0.950 . S
H366 C387 0.950 . S
H367 C390 0.950 . S
H368 C391 0.950 . S
H369 C393 0.950 . S
H370 C394 0.950 . S
H371 C395 0.951 . S
H372 C397 0.951 . S
H373 C399 0.950 . S
H374 C400 0.950 . S
H375 C402 0.950 . S
H376 C405 0.950 . S
H377 C406 0.950 . S
H378 C408 0.950 . S
H379 C409 0.950 . S
C380 H362 0.951 . S
C380 C381 1.366 . S
C380 C382 1.388 . S
C381 C380 1.366 . S
C381 C385 1.385 . S
C382 H363 0.951 . S
C382 C380 1.388 . S
C382 C383 1.366 . S
C383 C382 1.366 . S
C383 C384 1.414 . S
C383 C386 1.499 . S
C384 H364 0.950 . S
C384 C383 1.414 . S
C384 C385 1.374 . S
C385 H365 0.950 . S
C385 C381 1.385 . S
C385 C384 1.374 . S
C386 C383 1.499 . S
C386 C387 1.373 . S
C386 C388 1.389 . S
C387 H366 0.950 . S
C387 C386 1.373 . S
C387 C403 1.377 . S
C388 C386 1.389 . S
C388 C389 1.524 . S
C388 C402 1.377 . S
C389 C388 1.524 . S
C389 C390 1.397 . S
C389 C394 1.363 . S
C390 H367 0.950 . S
C390 C389 1.397 . S
C390 C391 1.334 . S
C391 H368 0.950 . S
C391 C390 1.334 . S
C391 C392 1.287 . S
C392 C391 1.287 . S
C392 C393 1.524 . S
C392 H411 0.913 . S
C393 H369 0.950 . S
C393 C392 1.524 . S
C393 C394 1.415 . S
C394 H370 0.950 . S
C394 C389 1.363 . S
C394 C393 1.415 . S
C395 H371 0.951 . S
C395 C396 1.366 . S
C395 C397 1.388 . S
C396 C395 1.366 . S
C396 C400 1.385 . S
C397 H372 0.951 . S
C397 C395 1.388 . S
C397 C398 1.366 . S
C398 C397 1.366 . S
C398 C399 1.414 . S
C398 C401 1.499 . S
C399 H373 0.950 . S
C399 C398 1.414 . S
C399 C400 1.374 . S
C400 H374 0.950 . S
C400 C396 1.385 . S
C400 C399 1.374 . S
C401 C398 1.499 . S
C401 C402 1.373 . S
C401 C403 1.389 . S
C402 H375 0.950 . S
C402 C388 1.377 . S
C402 C401 1.373 . S
C403 C387 1.377 . S
C403 C401 1.389 . S
C403 C404 1.524 . S
C404 C403 1.524 . S
C404 C405 1.397 . S
C404 C409 1.363 . S
C405 H376 0.950 . S
C405 C404 1.397 . S
C405 C406 1.334 . S
C406 H377 0.950 . S
C406 C405 1.334 . S
C406 C407 1.287 . S
C407 C406 1.287 . S
C407 C408 1.524 . S
C407 H410 0.999 . S
C408 H378 0.950 . S
C408 C407 1.524 . S
C408 C409 1.415 . S
C409 H379 0.950 . S
C409 C404 1.363 . S
C409 C408 1.415 . S
H410 C407 0.999 . S
H411 C392 0.913 . S
H412 C430 0.951 . S
H413 C432 0.951 . S
H414 C434 0.950 . S
H415 C435 0.950 . S
H416 C437 0.950 . S
H417 C440 0.950 . S
H418 C441 0.950 . S
H419 C443 0.950 . S
H420 C444 0.950 . S
H421 C445 0.951 . S
H422 C447 0.951 . S
H423 C449 0.950 . S
H424 C450 0.950 . S
H425 C452 0.950 . S
H426 C455 0.950 . S
H427 C456 0.950 . S
H428 C458 0.950 . S
H429 C459 0.950 . S
C430 H412 0.951 . S
C430 C431 1.366 . S
C430 C432 1.388 . S
C431 C430 1.366 . S
C431 C435 1.385 . S
C432 H413 0.951 . S
C432 C430 1.388 . S
C432 C433 1.366 . S
C433 C432 1.366 . S
C433 C434 1.414 . S
C433 C436 1.499 . S
C434 H414 0.950 . S
C434 C433 1.414 . S
C434 C435 1.374 . S
C435 H415 0.950 . S
C435 C431 1.385 . S
C435 C434 1.374 . S
C436 C433 1.499 . S
C436 C437 1.373 . S
C436 C438 1.389 . S
C437 H416 0.950 . S
C437 C436 1.373 . S
C437 C453 1.377 . S
C438 C436 1.389 . S
C438 C439 1.524 . S
C438 C452 1.377 . S
C439 C438 1.524 . S
C439 C440 1.397 . S
C439 C444 1.363 . S
C440 H417 0.950 . S
C440 C439 1.397 . S
C440 C441 1.334 . S
C441 H418 0.950 . S
C441 C440 1.334 . S
C441 C442 1.287 . S
C442 C441 1.287 . S
C442 C443 1.524 . S
C442 H461 0.913 . S
C443 H419 0.950 . S
C443 C442 1.524 . S
C443 C444 1.415 . S
C444 H420 0.950 . S
C444 C439 1.363 . S
C444 C443 1.415 . S
C445 H421 0.951 . S
C445 C446 1.366 . S
C445 C447 1.388 . S
C446 C445 1.366 . S
C446 C450 1.385 . S
C447 H422 0.951 . S
C447 C445 1.388 . S
C447 C448 1.366 . S
C448 C447 1.366 . S
C448 C449 1.414 . S
C448 C451 1.499 . S
C449 H423 0.950 . S
C449 C448 1.414 . S
C449 C450 1.374 . S
C450 H424 0.950 . S
C450 C446 1.385 . S
C450 C449 1.374 . S
C451 C448 1.499 . S
C451 C452 1.373 . S
C451 C453 1.389 . S
C452 H425 0.950 . S
C452 C438 1.377 . S
C452 C451 1.373 . S
C453 C437 1.377 . S
C453 C451 1.389 . S
C453 C454 1.524 . S
C454 C453 1.524 . S
C454 C455 1.397 . S
C454 C459 1.363 . S
C455 H426 0.950 . S
C455 C454 1.397 . S
C455 C456 1.334 . S
C456 H427 0.950 . S
C456 C455 1.334 . S
C456 C457 1.287 . S
C457 C456 1.287 . S
C457 C458 1.524 . S
C457 H460 0.999 . S
C458 H428 0.950 . S
C458 C457 1.524 . S
C458 C459 1.415 . S
C459 H429 0.950 . S
C459 C454 1.363 . S
C459 C458 1.415 . S
H460 C457 0.999 . S
H461 C442 0.913 . S
H462 C480 0.951 . S
H463 C482 0.951 . S
H464 C484 0.950 . S
H465 C485 0.950 . S
H466 C487 0.950 . S
H467 C490 0.950 . S
H468 C491 0.950 . S
H469 C493 0.950 . S
H470 C494 0.950 . S
H471 C495 0.951 . S
H472 C497 0.951 . S
H473 C499 0.950 . S
H474 C500 0.950 . S
H475 C502 0.950 . S
H476 C505 0.950 . S
H477 C506 0.950 . S
H478 C508 0.950 . S
H479 C509 0.950 . S
C480 H462 0.951 . S
C480 C481 1.366 . S
C480 C482 1.388 . S
C481 C480 1.366 . S
C481 C485 1.385 . S
C482 H463 0.951 . S
C482 C480 1.388 . S
C482 C483 1.366 . S
C483 C482 1.366 . S
C483 C484 1.414 . S
C483 C486 1.499 . S
C484 H464 0.950 . S
C484 C483 1.414 . S
C484 C485 1.374 . S
C485 H465 0.950 . S
C485 C481 1.385 . S
C485 C484 1.374 . S
C486 C483 1.499 . S
C486 C487 1.373 . S
C486 C488 1.389 . S
C487 H466 0.950 . S
C487 C486 1.373 . S
C487 C503 1.377 . S
C488 C486 1.389 . S
C488 C489 1.524 . S
C488 C502 1.377 . S
C489 C488 1.524 . S
C489 C490 1.397 . S
C489 C494 1.363 . S
C490 H467 0.950 . S
C490 C489 1.397 . S
C490 C491 1.334 . S
C491 H468 0.950 . S
C491 C490 1.334 . S
C491 C492 1.287 . S
C492 C491 1.287 . S
C492 C493 1.524 . S
C492 H511 0.913 . S
C493 H469 0.950 . S
C493 C492 1.524 . S
C493 C494 1.415 . S
C494 H470 0.950 . S
C494 C489 1.363 . S
C494 C493 1.415 . S
C495 H471 0.951 . S
C495 C496 1.366 . S
C495 C497 1.388 . S
C496 C495 1.366 . S
C496 C500 1.385 . S
C497 H472 0.951 . S
C497 C495 1.388 . S
C497 C498 1.366 . S
C498 C497 1.366 . S
C498 C499 1.414 . S
C498 C501 1.499 . S
C499 H473 0.950 . S
C499 C498 1.414 . S
C499 C500 1.374 . S
C500 H474 0.950 . S
C500 C496 1.385 . S
C500 C499 1.374 . S
C501 C498 1.499 . S
C501 C502 1.373 . S
C501 C503 1.389 . S
C502 H475 0.950 . S
C502 C488 1.377 . S
C502 C501 1.373 . S
C503 C487 1.377 . S
C503 C501 1.389 . S
C503 C504 1.524 . S
C504 C503 1.524 . S
C504 C505 1.397 . S
C504 C509 1.363 . S
C505 H476 0.950 . S
C505 C504 1.397 . S
C505 C506 1.334 . S
C506 H477 0.950 . S
C506 C505 1.334 . S
C506 C507 1.287 . S
C507 C506 1.287 . S
C507 C508 1.524 . S
C507 H510 0.999 . S
C508 H478 0.950 . S
C508 C507 1.524 . S
C508 C509 1.415 . S
C509 H479 0.950 . S
C509 C504 1.363 . S
C509 C508 1.415 . S
H510 C507 0.999 . S
H511 C492 0.913 . S
H512 C530 0.951 . S
H513 C532 0.951 . S
H514 C534 0.950 . S
H515 C535 0.950 . S
H516 C537 0.950 . S
H517 C540 0.950 . S
H518 C541 0.950 . S
H519 C543 0.950 . S
H520 C544 0.950 . S
H521 C545 0.951 . S
H522 C547 0.951 . S
H523 C549 0.950 . S
H524 C550 0.950 . S
H525 C552 0.950 . S
H526 C555 0.950 . S
H527 C556 0.950 . S
H528 C558 0.950 . S
H529 C559 0.950 . S
C530 H512 0.951 . S
C530 C531 1.366 . S
C530 C532 1.388 . S
C531 C530 1.366 . S
C531 C535 1.385 . S
C532 H513 0.951 . S
C532 C530 1.388 . S
C532 C533 1.366 . S
C533 C532 1.366 . S
C533 C534 1.414 . S
C533 C536 1.499 . S
C534 H514 0.950 . S
C534 C533 1.414 . S
C534 C535 1.374 . S
C535 H515 0.950 . S
C535 C531 1.385 . S
C535 C534 1.374 . S
C536 C533 1.499 . S
C536 C537 1.373 . S
C536 C538 1.389 . S
C537 H516 0.950 . S
C537 C536 1.373 . S
C537 C553 1.377 . S
C538 C536 1.389 . S
C538 C539 1.524 . S
C538 C552 1.377 . S
C539 C538 1.524 . S
C539 C540 1.397 . S
C539 C544 1.363 . S
C540 H517 0.950 . S
C540 C539 1.397 . S
C540 C541 1.334 . S
C541 H518 0.950 . S
C541 C540 1.334 . S
C541 C542 1.287 . S
C542 C541 1.287 . S
C542 C543 1.524 . S
C542 H561 0.913 . S
C543 H519 0.950 . S
C543 C542 1.524 . S
C543 C544 1.415 . S
C544 H520 0.950 . S
C544 C539 1.363 . S
C544 C543 1.415 . S
C545 H521 0.951 . S
C545 C546 1.366 . S
C545 C547 1.388 . S
C546 C545 1.366 . S
C546 C550 1.385 . S
C547 H522 0.951 . S
C547 C545 1.388 . S
C547 C548 1.366 . S
C548 C547 1.366 . S
C548 C549 1.414 . S
C548 C551 1.499 . S
C549 H523 0.950 . S
C549 C548 1.414 . S
C549 C550 1.374 . S
C550 H524 0.950 . S
C550 C546 1.385 . S
C550 C549 1.374 . S
C551 C548 1.499 . S
C551 C552 1.373 . S
C551 C553 1.389 . S
C552 H525 0.950 . S
C552 C538 1.377 . S
C552 C551 1.373 . S
C553 C537 1.377 . S
C553 C551 1.389 . S
C553 C554 1.524 . S
C554 C553 1.524 . S
C554 C555 1.397 . S
C554 C559 1.363 . S
C555 H526 0.950 . S
C555 C554 1.397 . S
C555 C556 1.334 . S
C556 H527 0.950 . S
C556 C555 1.334 . S
C556 C557 1.287 . S
C557 C556 1.287 . S
C557 C558 1.524 . S
C557 H560 0.999 . S
C558 H528 0.950 . S
C558 C557 1.524 . S
C558 C559 1.415 . S
C559 H529 0.950 . S
C559 C554 1.363 . S
C559 C558 1.415 . S
H560 C557 0.999 . S
H561 C542 0.913 . S
H562 C580 0.951 . S
H563 C582 0.951 . S
H564 C584 0.950 . S
H565 C585 0.950 . S
H566 C587 0.950 . S
H567 C590 0.950 . S
H568 C591 0.950 . S
H569 C593 0.950 . S
H570 C594 0.950 . S
H571 C595 0.951 . S
H572 C597 0.951 . S
H573 C599 0.950 . S
H574 C600 0.950 . S
H575 C602 0.950 . S
H576 C605 0.950 . S
H577 C606 0.950 . S
H578 C608 0.950 . S
H579 C609 0.950 . S
C580 H562 0.951 . S
C580 C581 1.366 . S
C580 C582 1.388 . S
C581 C580 1.366 . S
C581 C585 1.385 . S
C582 H563 0.951 . S
C582 C580 1.388 . S
C582 C583 1.366 . S
C583 C582 1.366 . S
C583 C584 1.414 . S
C583 C586 1.499 . S
C584 H564 0.950 . S
C584 C583 1.414 . S
C584 C585 1.374 . S
C585 H565 0.950 . S
C585 C581 1.385 . S
C585 C584 1.374 . S
C586 C583 1.499 . S
C586 C587 1.373 . S
C586 C588 1.389 . S
C587 H566 0.950 . S
C587 C586 1.373 . S
C587 C603 1.377 . S
C588 C586 1.389 . S
C588 C589 1.524 . S
C588 C602 1.377 . S
C589 C588 1.524 . S
C589 C590 1.397 . S
C589 C594 1.363 . S
C590 H567 0.950 . S
C590 C589 1.397 . S
C590 C591 1.334 . S
C591 H568 0.950 . S
C591 C590 1.334 . S
C591 C592 1.287 . S
C592 C591 1.287 . S
C592 C593 1.524 . S
C592 H611 0.913 . S
C593 H569 0.950 . S
C593 C592 1.524 . S
C593 C594 1.415 . S
C594 H570 0.950 . S
C594 C589 1.363 . S
C594 C593 1.415 . S
C595 H571 0.951 . S
C595 C596 1.366 . S
C595 C597 1.388 . S
C596 C595 1.366 . S
C596 C600 1.385 . S
C597 H572 0.951 . S
C597 C595 1.388 . S
C597 C598 1.366 . S
C598 C597 1.366 . S
C598 C599 1.414 . S
C598 C601 1.499 . S
C599 H573 0.950 . S
C599 C598 1.414 . S
C599 C600 1.374 . S
C600 H574 0.950 . S
C600 C596 1.385 . S
C600 C599 1.374 . S
C601 C598 1.499 . S
C601 C602 1.373 . S
C601 C603 1.389 . S
C602 H575 0.950 . S
C602 C588 1.377 . S
C602 C601 1.373 . S
C603 C587 1.377 . S
C603 C601 1.389 . S
C603 C604 1.524 . S
C604 C603 1.524 . S
C604 C605 1.397 . S
C604 C609 1.363 . S
C605 H576 0.950 . S
C605 C604 1.397 . S
C605 C606 1.334 . S
C606 H577 0.950 . S
C606 C605 1.334 . S
C606 C607 1.287 . S
C607 C606 1.287 . S
C607 C608 1.524 . S
C607 H610 0.999 . S
C608 H578 0.950 . S
C608 C607 1.524 . S
C608 C609 1.415 . S
C609 H579 0.950 . S
C609 C604 1.363 . S
C609 C608 1.415 . S
H610 C607 0.999 . S
H611 C592 0.913 . S
H612 C630 0.951 . S
H613 C632 0.951 . S
H614 C634 0.950 . S
H615 C635 0.950 . S
H616 C637 0.950 . S
H617 C640 0.950 . S
H618 C641 0.950 . S
H619 C643 0.950 . S
H620 C644 0.950 . S
H621 C645 0.951 . S
H622 C647 0.951 . S
H623 C649 0.950 . S
H624 C650 0.950 . S
H625 C652 0.950 . S
H626 C655 0.950 . S
H627 C656 0.950 . S
H628 C658 0.950 . S
H629 C659 0.950 . S
C630 H612 0.951 . S
C630 C631 1.366 . S
C630 C632 1.388 . S
C631 C630 1.366 . S
C631 C635 1.385 . S
C632 H613 0.951 . S
C632 C630 1.388 . S
C632 C633 1.366 . S
C633 C632 1.366 . S
C633 C634 1.414 . S
C633 C636 1.499 . S
C634 H614 0.950 . S
C634 C633 1.414 . S
C634 C635 1.374 . S
C635 H615 0.950 . S
C635 C631 1.385 . S
C635 C634 1.374 . S
C636 C633 1.499 . S
C636 C637 1.373 . S
C636 C638 1.389 . S
C637 H616 0.950 . S
C637 C636 1.373 . S
C637 C653 1.377 . S
C638 C636 1.389 . S
C638 C639 1.524 . S
C638 C652 1.377 . S
C639 C638 1.524 . S
C639 C640 1.397 . S
C639 C644 1.363 . S
C640 H617 0.950 . S
C640 C639 1.397 . S
C640 C641 1.334 . S
C641 H618 0.950 . S
C641 C640 1.334 . S
C641 C642 1.287 . S
C642 C641 1.287 . S
C642 C643 1.524 . S
C642 H661 0.913 . S
C643 H619 0.950 . S
C643 C642 1.524 . S
C643 C644 1.415 . S
C644 H620 0.950 . S
C644 C639 1.363 . S
C644 C643 1.415 . S
C645 H621 0.951 . S
C645 C646 1.366 . S
C645 C647 1.388 . S
C646 C645 1.366 . S
C646 C650 1.385 . S
C647 H622 0.951 . S
C647 C645 1.388 . S
C647 C648 1.366 . S
C648 C647 1.366 . S
C648 C649 1.414 . S
C648 C651 1.499 . S
C649 H623 0.950 . S
C649 C648 1.414 . S
C649 C650 1.374 . S
C650 H624 0.950 . S
C650 C646 1.385 . S
C650 C649 1.374 . S
C651 C648 1.499 . S
C651 C652 1.373 . S
C651 C653 1.389 . S
C652 H625 0.950 . S
C652 C638 1.377 . S
C652 C651 1.373 . S
C653 C637 1.377 . S
C653 C651 1.389 . S
C653 C654 1.524 . S
C654 C653 1.524 . S
C654 C655 1.397 . S
C654 C659 1.363 . S
C655 H626 0.950 . S
C655 C654 1.397 . S
C655 C656 1.334 . S
C656 H627 0.950 . S
C656 C655 1.334 . S
C656 C657 1.287 . S
C657 C656 1.287 . S
C657 C658 1.524 . S
C657 H660 0.999 . S
C658 H628 0.950 . S
C658 C657 1.524 . S
C658 C659 1.415 . S
C659 H629 0.950 . S
C659 C654 1.363 . S
C659 C658 1.415 . S
H660 C657 0.999 . S
H661 C642 0.913 . S
H662 C680 0.951 . S
H663 C682 0.951 . S
H664 C684 0.950 . S
H665 C685 0.950 . S
H666 C687 0.950 . S
H667 C690 0.950 . S
H668 C691 0.950 . S
H669 C693 0.950 . S
H670 C694 0.950 . S
H671 C695 0.951 . S
H672 C697 0.951 . S
H673 C699 0.950 . S
H674 C700 0.950 . S
H675 C702 0.950 . S
H676 C705 0.950 . S
H677 C706 0.950 . S
H678 C708 0.950 . S
H679 C709 0.950 . S
C680 H662 0.951 . S
C680 C681 1.366 . S
C680 C682 1.388 . S
C681 C680 1.366 . S
C681 C685 1.385 . S
C682 H663 0.951 . S
C682 C680 1.388 . S
C682 C683 1.366 . S
C683 C682 1.366 . S
C683 C684 1.414 . S
C683 C686 1.499 . S
C684 H664 0.950 . S
C684 C683 1.414 . S
C684 C685 1.374 . S
C685 H665 0.950 . S
C685 C681 1.385 . S
C685 C684 1.374 . S
C686 C683 1.499 . S
C686 C687 1.373 . S
C686 C688 1.389 . S
C687 H666 0.950 . S
C687 C686 1.373 . S
C687 C703 1.377 . S
C688 C686 1.389 . S
C688 C689 1.524 . S
C688 C702 1.377 . S
C689 C688 1.524 . S
C689 C690 1.397 . S
C689 C694 1.363 . S
C690 H667 0.950 . S
C690 C689 1.397 . S
C690 C691 1.334 . S
C691 H668 0.950 . S
C691 C690 1.334 . S
C691 C692 1.287 . S
C692 C691 1.287 . S
C692 C693 1.524 . S
C692 H711 0.913 . S
C693 H669 0.950 . S
C693 C692 1.524 . S
C693 C694 1.415 . S
C694 H670 0.950 . S
C694 C689 1.363 . S
C694 C693 1.415 . S
C695 H671 0.951 . S
C695 C696 1.366 . S
C695 C697 1.388 . S
C696 C695 1.366 . S
C696 C700 1.385 . S
C697 H672 0.951 . S
C697 C695 1.388 . S
C697 C698 1.366 . S
C698 C697 1.366 . S
C698 C699 1.414 . S
C698 C701 1.499 . S
C699 H673 0.950 . S
C699 C698 1.414 . S
C699 C700 1.374 . S
C700 H674 0.950 . S
C700 C696 1.385 . S
C700 C699 1.374 . S
C701 C698 1.499 . S
C701 C702 1.373 . S
C701 C703 1.389 . S
C702 H675 0.950 . S
C702 C688 1.377 . S
C702 C701 1.373 . S
C703 C687 1.377 . S
C703 C701 1.389 . S
C703 C704 1.524 . S
C704 C703 1.524 . S
C704 C705 1.397 . S
C704 C709 1.363 . S
C705 H676 0.950 . S
C705 C704 1.397 . S
C705 C706 1.334 . S
C706 H677 0.950 . S
C706 C705 1.334 . S
C706 C707 1.287 . S
C707 C706 1.287 . S
C707 C708 1.524 . S
C707 H710 0.999 . S
C708 H678 0.950 . S
C708 C707 1.524 . S
C708 C709 1.415 . S
C709 H679 0.950 . S
C709 C704 1.363 . S
C709 C708 1.415 . S
H710 C707 0.999 . S
H711 C692 0.913 . S
H712 C730 0.951 . S
H713 C732 0.951 . S
H714 C734 0.950 . S
H715 C735 0.950 . S
H716 C737 0.950 . S
H717 C740 0.950 . S
H718 C741 0.950 . S
H719 C743 0.950 . S
H720 C744 0.950 . S
H721 C745 0.951 . S
H722 C747 0.951 . S
H723 C749 0.950 . S
H724 C750 0.950 . S
H725 C752 0.950 . S
H726 C755 0.950 . S
H727 C756 0.950 . S
H728 C758 0.950 . S
H729 C759 0.950 . S
C730 H712 0.951 . S
C730 C731 1.366 . S
C730 C732 1.388 . S
C731 C730 1.366 . S
C731 C735 1.385 . S
C732 H713 0.951 . S
C732 C730 1.388 . S
C732 C733 1.366 . S
C733 C732 1.366 . S
C733 C734 1.414 . S
C733 C736 1.499 . S
C734 H714 0.950 . S
C734 C733 1.414 . S
C734 C735 1.374 . S
C735 H715 0.950 . S
C735 C731 1.385 . S
C735 C734 1.374 . S
C736 C733 1.499 . S
C736 C737 1.373 . S
C736 C738 1.389 . S
C737 H716 0.950 . S
C737 C736 1.373 . S
C737 C753 1.377 . S
C738 C736 1.389 . S
C738 C739 1.524 . S
C738 C752 1.377 . S
C739 C738 1.524 . S
C739 C740 1.397 . S
C739 C744 1.363 . S
C740 H717 0.950 . S
C740 C739 1.397 . S
C740 C741 1.334 . S
C741 H718 0.950 . S
C741 C740 1.334 . S
C741 C742 1.287 . S
C742 C741 1.287 . S
C742 C743 1.524 . S
C742 H761 0.913 . S
C743 H719 0.950 . S
C743 C742 1.524 . S
C743 C744 1.415 . S
C744 H720 0.950 . S
C744 C739 1.363 . S
C744 C743 1.415 . S
C745 H721 0.951 . S
C745 C746 1.366 . S
C745 C747 1.388 . S
C746 C745 1.366 . S
C746 C750 1.385 . S
C747 H722 0.951 . S
C747 C745 1.388 . S
C747 C748 1.366 . S
C748 C747 1.366 . S
C748 C749 1.414 . S
C748 C751 1.499 . S
C749 H723 0.950 . S
C749 C748 1.414 . S
C749 C750 1.374 . S
C750 H724 0.950 . S
C750 C746 1.385 . S
C750 C749 1.374 . S
C751 C748 1.499 . S
C751 C752 1.373 . S
C751 C753 1.389 . S
C752 H725 0.950 . S
C752 C738 1.377 . S
C752 C751 1.373 . S
C753 C737 1.377 . S
C753 C751 1.389 . S
C753 C754 1.524 . S
C754 C753 1.524 . S
C754 C755 1.397 . S
C754 C759 1.363 . S
C755 H726 0.950 . S
C755 C754 1.397 . S
C755 C756 1.334 . S
C756 H727 0.950 . S
C756 C755 1.334 . S
C756 C757 1.287 . S
C757 C756 1.287 . S
C757 C758 1.524 . S
C757 H760 0.999 . S
C758 H728 0.950 . S
C758 C757 1.524 . S
C758 C759 1.415 . S
C759 H729 0.950 . S
C759 C754 1.363 . S
C759 C758 1.415 . S
H760 C757 0.999 . S
H761 C742 0.913 . S
H762 C780 0.951 . S
H763 C782 0.951 . S
H764 C784 0.950 . S
H765 C785 0.950 . S
H766 C787 0.950 . S
H767 C790 0.950 . S
H768 C791 0.950 . S
H769 C793 0.950 . S
H770 C794 0.950 . S
H771 C795 0.951 . S
H772 C797 0.951 . S
H773 C799 0.950 . S
H774 C800 0.950 . S
H775 C802 0.950 . S
H776 C805 0.950 . S
H777 C806 0.950 . S
H778 C808 0.950 . S
H779 C809 0.950 . S
C780 H762 0.951 . S
C780 C781 1.366 . S
C780 C782 1.388 . S
C781 C780 1.366 . S
C781 C785 1.385 . S
C782 H763 0.951 . S
C782 C780 1.388 . S
C782 C783 1.366 . S
C783 C782 1.366 . S
C783 C784 1.414 . S
C783 C786 1.499 . S
C784 H764 0.950 . S
C784 C783 1.414 . S
C784 C785 1.374 . S
C785 H765 0.950 . S
C785 C781 1.385 . S
C785 C784 1.374 . S
C786 C783 1.499 . S
C786 C787 1.373 . S
C786 C788 1.389 . S
C787 H766 0.950 . S
C787 C786 1.373 . S
C787 C803 1.377 . S
C788 C786 1.389 . S
C788 C789 1.524 . S
C788 C802 1.377 . S
C789 C788 1.524 . S
C789 C790 1.397 . S
C789 C794 1.363 . S
C790 H767 0.950 . S
C790 C789 1.397 . S
C790 C791 1.334 . S
C791 H768 0.950 . S
C791 C790 1.334 . S
C791 C792 1.287 . S
C792 C791 1.287 . S
C792 C793 1.524 . S
C792 H811 0.913 . S
C793 H769 0.950 . S
C793 C792 1.524 . S
C793 C794 1.415 . S
C794 H770 0.950 . S
C794 C789 1.363 . S
C794 C793 1.415 . S
C795 H771 0.951 . S
C795 C796 1.366 . S
C795 C797 1.388 . S
C796 C795 1.366 . S
C796 C800 1.385 . S
C797 H772 0.951 . S
C797 C795 1.388 . S
C797 C798 1.366 . S
C798 C797 1.366 . S
C798 C799 1.414 . S
C798 C801 1.499 . S
C799 H773 0.950 . S
C799 C798 1.414 . S
C799 C800 1.374 . S
C800 H774 0.950 . S
C800 C796 1.385 . S
C800 C799 1.374 . S
C801 C798 1.499 . S
C801 C802 1.373 . S
C801 C803 1.389 . S
C802 H775 0.950 . S
C802 C788 1.377 . S
C802 C801 1.373 . S
C803 C787 1.377 . S
C803 C801 1.389 . S
C803 C804 1.524 . S
C804 C803 1.524 . S
C804 C805 1.397 . S
C804 C809 1.363 . S
C805 H776 0.950 . S
C805 C804 1.397 . S
C805 C806 1.334 . S
C806 H777 0.950 . S
C806 C805 1.334 . S
C806 C807 1.287 . S
C807 C806 1.287 . S
C807 C808 1.524 . S
C807 H810 0.999 . S
C808 H778 0.950 . S
C808 C807 1.524 . S
C808 C809 1.415 . S
C809 H779 0.950 . S
C809 C804 1.363 . S
C809 C808 1.415 . S
H810 C807 0.999 . S
H811 C792 0.913 . S
H812 C830 0.951 . S
H813 C832 0.951 . S
H814 C834 0.950 . S
H815 C835 0.950 . S
H816 C837 0.950 . S
H817 C840 0.950 . S
H818 C841 0.950 . S
H819 C843 0.950 . S
H820 C844 0.950 . S
H821 C845 0.951 . S
H822 C847 0.951 . S
H823 C849 0.950 . S
H824 C850 0.950 . S
H825 C852 0.950 . S
H826 C855 0.950 . S
H827 C856 0.950 . S
H828 C858 0.950 . S
H829 C859 0.950 . S
C830 H812 0.951 . S
C830 C831 1.366 . S
C830 C832 1.388 . S
C831 C830 1.366 . S
C831 C835 1.385 . S
C832 H813 0.951 . S
C832 C830 1.388 . S
C832 C833 1.366 . S
C833 C832 1.366 . S
C833 C834 1.414 . S
C833 C836 1.499 . S
C834 H814 0.950 . S
C834 C833 1.414 . S
C834 C835 1.374 . S
C835 H815 0.950 . S
C835 C831 1.385 . S
C835 C834 1.374 . S
C836 C833 1.499 . S
C836 C837 1.373 . S
C836 C838 1.389 . S
C837 H816 0.950 . S
C837 C836 1.373 . S
C837 C853 1.377 . S
C838 C836 1.389 . S
C838 C839 1.524 . S
C838 C852 1.377 . S
C839 C838 1.524 . S
C839 C840 1.397 . S
C839 C844 1.363 . S
C840 H817 0.950 . S
C840 C839 1.397 . S
C840 C841 1.334 . S
C841 H818 0.950 . S
C841 C840 1.334 . S
C841 C842 1.287 . S
C842 C841 1.287 . S
C842 C843 1.524 . S
C842 H861 0.913 . S
C843 H819 0.950 . S
C843 C842 1.524 . S
C843 C844 1.415 . S
C844 H820 0.950 . S
C844 C839 1.363 . S
C844 C843 1.415 . S
C845 H821 0.951 . S
C845 C846 1.366 . S
C845 C847 1.388 . S
C846 C845 1.366 . S
C846 C850 1.385 . S
C847 H822 0.951 . S
C847 C845 1.388 . S
C847 C848 1.366 . S
C848 C847 1.366 . S
C848 C849 1.414 . S
C848 C851 1.499 . S
C849 H823 0.950 . S
C849 C848 1.414 . S
C849 C850 1.374 . S
C850 H824 0.950 . S
C850 C846 1.385 . S
C850 C849 1.374 . S
C851 C848 1.499 . S
C851 C852 1.373 . S
C851 C853 1.389 . S
C852 H825 0.950 . S
C852 C838 1.377 . S
C852 C851 1.373 . S
C853 C837 1.377 . S
C853 C851 1.389 . S
C853 C854 1.524 . S
C854 C853 1.524 . S
C854 C855 1.397 . S
C854 C859 1.363 . S
C855 H826 0.950 . S
C855 C854 1.397 . S
C855 C856 1.334 . S
C856 H827 0.950 . S
C856 C855 1.334 . S
C856 C857 1.287 . S
C857 C856 1.287 . S
C857 C858 1.524 . S
C857 H860 0.999 . S
C858 H828 0.950 . S
C858 C857 1.524 . S
C858 C859 1.415 . S
C859 H829 0.950 . S
C859 C854 1.363 . S
C859 C858 1.415 . S
H860 C857 0.999 . S
H861 C842 0.913 . S
H862 C880 0.951 . S
H863 C882 0.951 . S
H864 C884 0.950 . S
H865 C885 0.950 . S
H866 C887 0.950 . S
H867 C890 0.950 . S
H868 C891 0.950 . S
H869 C893 0.950 . S
H870 C894 0.950 . S
H871 C895 0.951 . S
H872 C897 0.951 . S
H873 C899 0.950 . S
H874 C900 0.950 . S
H875 C902 0.950 . S
H876 C905 0.950 . S
H877 C906 0.950 . S
H878 C908 0.950 . S
H879 C909 0.950 . S
C880 H862 0.951 . S
C880 C881 1.366 . S
C880 C882 1.388 . S
C881 C880 1.366 . S
C881 C885 1.385 . S
C882 H863 0.951 . S
C882 C880 1.388 . S
C882 C883 1.366 . S
C883 C882 1.366 . S
C883 C884 1.414 . S
C883 C886 1.499 . S
C884 H864 0.950 . S
C884 C883 1.414 . S
C884 C885 1.374 . S
C885 H865 0.950 . S
C885 C881 1.385 . S
C885 C884 1.374 . S
C886 C883 1.499 . S
C886 C887 1.373 . S
C886 C888 1.389 . S
C887 H866 0.950 . S
C887 C886 1.373 . S
C887 C903 1.377 . S
C888 C886 1.389 . S
C888 C889 1.524 . S
C888 C902 1.377 . S
C889 C888 1.524 . S
C889 C890 1.397 . S
C889 C894 1.363 . S
C890 H867 0.950 . S
C890 C889 1.397 . S
C890 C891 1.334 . S
C891 H868 0.950 . S
C891 C890 1.334 . S
C891 C892 1.287 . S
C892 C891 1.287 . S
C892 C893 1.524 . S
C892 H911 0.913 . S
C893 H869 0.950 . S
C893 C892 1.524 . S
C893 C894 1.415 . S
C894 H870 0.950 . S
C894 C889 1.363 . S
C894 C893 1.415 . S
C895 H871 0.951 . S
C895 C896 1.366 . S
C895 C897 1.388 . S
C896 C895 1.366 . S
C896 C900 1.385 . S
C897 H872 0.951 . S
C897 C895 1.388 . S
C897 C898 1.366 . S
C898 C897 1.366 . S
C898 C899 1.414 . S
C898 C901 1.499 . S
C899 H873 0.950 . S
C899 C898 1.414 . S
C899 C900 1.374 . S
C900 H874 0.950 . S
C900 C896 1.385 . S
C900 C899 1.374 . S
C901 C898 1.499 . S
C901 C902 1.373 . S
C901 C903 1.389 . S
C902 H875 0.950 . S
C902 C888 1.377 . S
C902 C901 1.373 . S
C903 C887 1.377 . S
C903 C901 1.389 . S
C903 C904 1.524 . S
C904 C903 1.524 . S
C904 C905 1.397 . S
C904 C909 1.363 . S
C905 H876 0.950 . S
C905 C904 1.397 . S
C905 C906 1.334 . S
C906 H877 0.950 . S
C906 C905 1.334 . S
C906 C907 1.287 . S
C907 C906 1.287 . S
C907 C908 1.524 . S
C907 H910 0.999 . S
C908 H878 0.950 . S
C908 C907 1.524 . S
C908 C909 1.415 . S
C909 H879 0.950 . S
C909 C904 1.363 . S
C909 C908 1.415 . S
H910 C907 0.999 . S
H911 C892 0.913 . S
H912 C930 0.951 . S
H913 C932 0.951 . S
H914 C934 0.950 . S
H915 C935 0.950 . S
H916 C937 0.950 . S
H917 C940 0.950 . S
H918 C941 0.950 . S
H919 C943 0.950 . S
H920 C944 0.950 . S
H921 C945 0.951 . S
H922 C947 0.951 . S
H923 C949 0.950 . S
H924 C950 0.950 . S
H925 C952 0.950 . S
H926 C955 0.950 . S
H927 C956 0.950 . S
H928 C958 0.950 . S
H929 C959 0.950 . S
C930 H912 0.951 . S
C930 C931 1.366 . S
C930 C932 1.388 . S
C931 C930 1.366 . S
C931 C935 1.385 . S
C932 H913 0.951 . S
C932 C930 1.388 . S
C932 C933 1.366 . S
C933 C932 1.366 . S
C933 C934 1.414 . S
C933 C936 1.499 . S
C934 H914 0.950 . S
C934 C933 1.414 . S
C934 C935 1.374 . S
C935 H915 0.950 . S
C935 C931 1.385 . S
C935 C934 1.374 . S
C936 C933 1.499 . S
C936 C937 1.373 . S
C936 C938 1.389 . S
C937 H916 0.950 . S
C937 C936 1.373 . S
C937 C953 1.377 . S
C938 C936 1.389 . S
C938 C939 1.524 . S
C938 C952 1.377 . S
C939 C938 1.524 . S
C939 C940 1.397 . S
C939 C944 1.363 . S
C940 H917 0.950 . S
C940 C939 1.397 . S
C940 C941 1.334 . S
C941 H918 0.950 . S
C941 C940 1.334 . S
C941 C942 1.287 . S
C942 C941 1.287 . S
C942 C943 1.524 . S
C942 H961 0.913 . S
C943 H919 0.950 . S
C943 C942 1.524 . S
C943 C944 1.415 . S
C944 H920 0.950 . S
C944 C939 1.363 . S
C944 C943 1.415 . S
C945 H921 0.951 . S
C945 C946 1.366 . S
C945 C947 1.388 . S
C946 C945 1.366 . S
C946 C950 1.385 . S
C947 H922 0.951 . S
C947 C945 1.388 . S
C947 C948 1.366 . S
C948 C947 1.366 . S
C948 C949 1.414 . S
C948 C951 1.499 . S
C949 H923 0.950 . S
C949 C948 1.414 . S
C949 C950 1.374 . S
C950 H924 0.950 . S
C950 C946 1.385 . S
C950 C949 1.374 . S
C951 C948 1.499 . S
C951 C952 1.373 . S
C951 C953 1.389 . S
C952 H925 0.950 . S
C952 C938 1.377 . S
C952 C951 1.373 . S
C953 C937 1.377 . S
C953 C951 1.389 . S
C953 C954 1.524 . S
C954 C953 1.524 . S
C954 C955 1.397 . S
C954 C959 1.363 . S
C955 H926 0.950 . S
C955 C954 1.397 . S
C955 C956 1.334 . S
C956 H927 0.950 . S
C956 C955 1.334 . S
C956 C957 1.287 . S
C957 C956 1.287 . S
C957 C958 1.524 . S
C957 H960 0.999 . S
C958 H928 0.950 . S
C958 C957 1.524 . S
C958 C959 1.415 . S
C959 H929 0.950 . S
C959 C954 1.363 . S
C959 C958 1.415 . S
H960 C957 0.999 . S
H961 C942 0.913 . S
H962 C980 0.951 . S
H963 C982 0.951 . S
H964 C984 0.950 . S
H965 C985 0.950 . S
H966 C987 0.950 . S
H967 C990 0.950 . S
H968 C991 0.950 . S
H969 C993 0.950 . S
H970 C994 0.950 . S
H971 C995 0.951 . S
H972 C997 0.951 . S
H973 C999 0.950 . S
H974 C1000 0.950 . S
H975 C1002 0.950 . S
H976 C1005 0.950 . S
H977 C1006 0.950 . S
H978 C1008 0.950 . S
H979 C1009 0.950 . S
C980 H962 0.951 . S
C980 C981 1.366 . S
C980 C982 1.388 . S
C981 C980 1.366 . S
C981 C985 1.385 . S
C982 H963 0.951 . S
C982 C980 1.388 . S
C982 C983 1.366 . S
C983 C982 1.366 . S
C983 C984 1.414 . S
C983 C986 1.499 . S
C984 H964 0.950 . S
C984 C983 1.414 . S
C984 C985 1.374 . S
C985 H965 0.950 . S
C985 C981 1.385 . S
C985 C984 1.374 . S
C986 C983 1.499 . S
C986 C987 1.373 . S
C986 C988 1.389 . S
C987 H966 0.950 . S
C987 C986 1.373 . S
C987 C1003 1.377 . S
C988 C986 1.389 . S
C988 C989 1.524 . S
C988 C1002 1.377 . S
C989 C988 1.524 . S
C989 C990 1.397 . S
C989 C994 1.363 . S
C990 H967 0.950 . S
C990 C989 1.397 . S
C990 C991 1.334 . S
C991 H968 0.950 . S
C991 C990 1.334 . S
C991 C992 1.287 . S
C992 C991 1.287 . S
C992 C993 1.524 . S
C992 H1011 0.913 . S
C993 H969 0.950 . S
C993 C992 1.524 . S
C993 C994 1.415 . S
C994 H970 0.950 . S
C994 C989 1.363 . S
C994 C993 1.415 . S
C995 H971 0.951 . S
C995 C996 1.366 . S
C995 C997 1.388 . S
C996 C995 1.366 . S
C996 C1000 1.385 . S
C997 H972 0.951 . S
C997 C995 1.388 . S
C997 C998 1.366 . S
C998 C997 1.366 . S
C998 C999 1.414 . S
C998 C1001 1.499 . S
C999 H973 0.950 . S
C999 C998 1.414 . S
C999 C1000 1.374 . S
C1000 H974 0.950 . S
C1000 C996 1.385 . S
C1000 C999 1.374 . S
C1001 C998 1.499 . S
C1001 C1002 1.373 . S
C1001 C1003 1.389 . S
C1002 H975 0.950 . S
C1002 C988 1.377 . S
C1002 C1001 1.373 . S
C1003 C987 1.377 . S
C1003 C1001 1.389 . S
C1003 C1004 1.524 . S
C1004 C1003 1.524 . S
C1004 C1005 1.397 . S
C1004 C1009 1.363 . S
C1005 H976 0.950 . S
C1005 C1004 1.397 . S
C1005 C1006 1.334 . S
C1006 H977 0.950 . S
C1006 C1005 1.334 . S
C1006 C1007 1.287 . S
C1007 C1006 1.287 . S
C1007 C1008 1.524 . S
C1007 H1010 0.999 . S
C1008 H978 0.950 . S
C1008 C1007 1.524 . S
C1008 C1009 1.415 . S
C1009 H979 0.950 . S
C1009 C1004 1.363 . S
C1009 C1008 1.415 . S
H1010 C1007 0.999 . S
H1011 C992 0.913 . S
H1012 C1030 0.951 . S
H1013 C1032 0.951 . S
H1014 C1034 0.950 . S
H1015 C1035 0.950 . S
H1016 C1037 0.950 . S
H1017 C1040 0.950 . S
H1018 C1041 0.950 . S
H1019 C1043 0.950 . S
H1020 C1044 0.950 . S
H1021 C1045 0.951 . S
H1022 C1047 0.951 . S
H1023 C1049 0.950 . S
H1024 C1050 0.950 . S
H1025 C1052 0.950 . S
H1026 C1055 0.950 . S
H1027 C1056 0.950 . S
H1028 C1058 0.950 . S
H1029 C1059 0.950 . S
C1030 H1012 0.951 . S
C1030 C1031 1.366 . S
C1030 C1032 1.388 . S
C1031 C1030 1.366 . S
C1031 C1035 1.385 . S
C1032 H1013 0.951 . S
C1032 C1030 1.388 . S
C1032 C1033 1.366 . S
C1033 C1032 1.366 . S
C1033 C1034 1.414 . S
C1033 C1036 1.499 . S
C1034 H1014 0.950 . S
C1034 C1033 1.414 . S
C1034 C1035 1.374 . S
C1035 H1015 0.950 . S
C1035 C1031 1.385 . S
C1035 C1034 1.374 . S
C1036 C1033 1.499 . S
C1036 C1037 1.373 . S
C1036 C1038 1.389 . S
C1037 H1016 0.950 . S
C1037 C1036 1.373 . S
C1037 C1053 1.377 . S
C1038 C1036 1.389 . S
C1038 C1039 1.524 . S
C1038 C1052 1.377 . S
C1039 C1038 1.524 . S
C1039 C1040 1.397 . S
C1039 C1044 1.363 . S
C1040 H1017 0.950 . S
C1040 C1039 1.397 . S
C1040 C1041 1.334 . S
C1041 H1018 0.950 . S
C1041 C1040 1.334 . S
C1041 C1042 1.287 . S
C1042 C1041 1.287 . S
C1042 C1043 1.524 . S
C1042 H1061 0.913 . S
C1043 H1019 0.950 . S
C1043 C1042 1.524 . S
C1043 C1044 1.415 . S
C1044 H1020 0.950 . S
C1044 C1039 1.363 . S
C1044 C1043 1.415 . S
C1045 H1021 0.951 . S
C1045 C1046 1.366 . S
C1045 C1047 1.388 . S
C1046 C1045 1.366 . S
C1046 C1050 1.385 . S
C1047 H1022 0.951 . S
C1047 C1045 1.388 . S
C1047 C1048 1.366 . S
C1048 C1047 1.366 . S
C1048 C1049 1.414 . S
C1048 C1051 1.499 . S
C1049 H1023 0.950 . S
C1049 C1048 1.414 . S
C1049 C1050 1.374 . S
C1050 H1024 0.950 . S
C1050 C1046 1.385 . S
C1050 C1049 1.374 . S
C1051 C1048 1.499 . S
C1051 C1052 1.373 . S
C1051 C1053 1.389 . S
C1052 H1025 0.950 . S
C1052 C1038 1.377 . S
C1052 C1051 1.373 . S
C1053 C1037 1.377 . S
C1053 C1051 1.389 . S
C1053 C1054 1.524 . S
C1054 C1053 1.524 . S
C1054 C1055 1.397 . S
C1054 C1059 1.363 . S
C1055 H1026 0.950 . S
C1055 C1054 1.397 . S
C1055 C1056 1.334 . S
C1056 H1027 0.950 . S
C1056 C1055 1.334 . S
C1056 C1057 1.287 . S
C1057 C1056 1.287 . S
C1057 C1058 1.524 . S
C1057 H1060 0.999 . S
C1058 H1028 0.950 . S
C1058 C1057 1.524 . S
C1058 C1059 1.415 . S
C1059 H1029 0.950 . S
C1059 C1054 1.363 . S
C1059 C1058 1.415 . S
H1060 C1057 0.999 . S
H1061 C1042 0.913 . S
H1062 C1080 0.951 . S
H1063 C1082 0.951 . S
H1064 C1084 0.950 . S
H1065 C1085 0.950 . S
H1066 C1087 0.950 . S
H1067 C1090 0.950 . S
H1068 C1091 0.950 . S
H1069 C1093 0.950 . S
H1070 C1094 0.950 . S
H1071 C1095 0.951 . S
H1072 C1097 0.951 . S
H1073 C1099 0.950 . S
H1074 C1100 0.950 . S
H1075 C1102 0.950 . S
H1076 C1105 0.950 . S
H1077 C1106 0.950 . S
H1078 C1108 0.950 . S
H1079 C1109 0.950 . S
C1080 H1062 0.951 . S
C1080 C1081 1.366 . S
C1080 C1082 1.388 . S
C1081 C1080 1.366 . S
C1081 C1085 1.385 . S
C1082 H1063 0.951 . S
C1082 C1080 1.388 . S
C1082 C1083 1.366 . S
C1083 C1082 1.366 . S
C1083 C1084 1.414 . S
C1083 C1086 1.499 . S
C1084 H1064 0.950 . S
C1084 C1083 1.414 . S
C1084 C1085 1.374 . S
C1085 H1065 0.950 . S
C1085 C1081 1.385 . S
C1085 C1084 1.374 . S
C1086 C1083 1.499 . S
C1086 C1087 1.373 . S
C1086 C1088 1.389 . S
C1087 H1066 0.950 . S
C1087 C1086 1.373 . S
C1087 C1103 1.377 . S
C1088 C1086 1.389 . S
C1088 C1089 1.524 . S
C1088 C1102 1.377 . S
C1089 C1088 1.524 . S
C1089 C1090 1.397 . S
C1089 C1094 1.363 . S
C1090 H1067 0.950 . S
C1090 C1089 1.397 . S
C1090 C1091 1.334 . S
C1091 H1068 0.950 . S
C1091 C1090 1.334 . S
C1091 C1092 1.287 . S
C1092 C1091 1.287 . S
C1092 C1093 1.524 . S
C1092 H1111 0.913 . S
C1093 H1069 0.950 . S
C1093 C1092 1.524 . S
C1093 C1094 1.415 . S
C1094 H1070 0.950 . S
C1094 C1089 1.363 . S
C1094 C1093 1.415 . S
C1095 H1071 0.951 . S
C1095 C1096 1.366 . S
C1095 C1097 1.388 . S
C1096 C1095 1.366 . S
C1096 C1100 1.385 . S
C1097 H1072 0.951 . S
C1097 C1095 1.388 . S
C1097 C1098 1.366 . S
C1098 C1097 1.366 . S
C1098 C1099 1.414 . S
C1098 C1101 1.499 . S
C1099 H1073 0.950 . S
C1099 C1098 1.414 . S
C1099 C1100 1.374 . S
C1100 H1074 0.950 . S
C1100 C1096 1.385 . S
C1100 C1099 1.374 . S
C1101 C1098 1.499 . S
C1101 C1102 1.373 . S
C1101 C1103 1.389 . S
C1102 H1075 0.950 . S
C1102 C1088 1.377 . S
C1102 C1101 1.373 . S
C1103 C1087 1.377 . S
C1103 C1101 1.389 . S
C1103 C1104 1.524 . S
C1104 C1103 1.524 . S
C1104 C1105 1.397 . S
C1104 C1109 1.363 . S
C1105 H1076 0.950 . S
C1105 C1104 1.397 . S
C1105 C1106 1.334 . S
C1106 H1077 0.950 . S
C1106 C1105 1.334 . S
C1106 C1107 1.287 . S
C1107 C1106 1.287 . S
C1107 C1108 1.524 . S
C1107 H1110 0.999 . S
C1108 H1078 0.950 . S
C1108 C1107 1.524 . S
C1108 C1109 1.415 . S
C1109 H1079 0.950 . S
C1109 C1104 1.363 . S
C1109 C1108 1.415 . S
H1110 C1107 0.999 . S
H1111 C1092 0.913 . S
H1112 C1130 0.951 . S
H1113 C1132 0.951 . S
H1114 C1134 0.950 . S
H1115 C1135 0.950 . S
H1116 C1137 0.950 . S
H1117 C1140 0.950 . S
H1118 C1141 0.950 . S
H1119 C1143 0.950 . S
H1120 C1144 0.950 . S
H1121 C1145 0.951 . S
H1122 C1147 0.951 . S
H1123 C1149 0.950 . S
H1124 C1150 0.950 . S
H1125 C1152 0.950 . S
H1126 C1155 0.950 . S
H1127 C1156 0.950 . S
H1128 C1158 0.950 . S
H1129 C1159 0.950 . S
C1130 H1112 0.951 . S
C1130 C1131 1.366 . S
C1130 C1132 1.388 . S
C1131 C1130 1.366 . S
C1131 C1135 1.385 . S
C1132 H1113 0.951 . S
C1132 C1130 1.388 . S
C1132 C1133 1.366 . S
C1133 C1132 1.366 . S
C1133 C1134 1.414 . S
C1133 C1136 1.499 . S
C1134 H1114 0.950 . S
C1134 C1133 1.414 . S
C1134 C1135 1.374 . S
C1135 H1115 0.950 . S
C1135 C1131 1.385 . S
C1135 C1134 1.374 . S
C1136 C1133 1.499 . S
C1136 C1137 1.373 . S
C1136 C1138 1.389 . S
C1137 H1116 0.950 . S
C1137 C1136 1.373 . S
C1137 C1153 1.377 . S
C1138 C1136 1.389 . S
C1138 C1139 1.524 . S
C1138 C1152 1.377 . S
C1139 C1138 1.524 . S
C1139 C1140 1.397 . S
C1139 C1144 1.363 . S
C1140 H1117 0.950 . S
C1140 C1139 1.397 . S
C1140 C1141 1.334 . S
C1141 H1118 0.950 . S
C1141 C1140 1.334 . S
C1141 C1142 1.287 . S
C1142 C1141 1.287 . S
C1142 C1143 1.524 . S
C1142 H1161 0.913 . S
C1143 H1119 0.950 . S
C1143 C1142 1.524 . S
C1143 C1144 1.415 . S
C1144 H1120 0.950 . S
C1144 C1139 1.363 . S
C1144 C1143 1.415 . S
C1145 H1121 0.951 . S
C1145 C1146 1.366 . S
C1145 C1147 1.388 . S
C1146 C1145 1.366 . S
C1146 C1150 1.385 . S
C1147 H1122 0.951 . S
C1147 C1145 1.388 . S
C1147 C1148 1.366 . S
C1148 C1147 1.366 . S
C1148 C1149 1.414 . S
C1148 C1151 1.499 . S
C1149 H1123 0.950 . S
C1149 C1148 1.414 . S
C1149 C1150 1.374 . S
C1150 H1124 0.950 . S
C1150 C1146 1.385 . S
C1150 C1149 1.374 . S
C1151 C1148 1.499 . S
C1151 C1152 1.373 . S
C1151 C1153 1.389 . S
C1152 H1125 0.950 . S
C1152 C1138 1.377 . S
C1152 C1151 1.373 . S
C1153 C1137 1.377 . S
C1153 C1151 1.389 . S
C1153 C1154 1.524 . S
C1154 C1153 1.524 . S
C1154 C1155 1.397 . S
C1154 C1159 1.363 . S
C1155 H1126 0.950 . S
C1155 C1154 1.397 . S
C1155 C1156 1.334 . S
C1156 H1127 0.950 . S
C1156 C1155 1.334 . S
C1156 C1157 1.287 . S
C1157 C1156 1.287 . S
C1157 C1158 1.524 . S
C1157 H1160 0.999 . S
C1158 H1128 0.950 . S
C1158 C1157 1.524 . S
C1158 C1159 1.415 . S
C1159 H1129 0.950 . S
C1159 C1154 1.363 . S
C1159 C1158 1.415 . S
H1160 C1157 0.999 . S
H1161 C1142 0.913 . S
H1162 C1180 0.951 . S
H1163 C1182 0.951 . S
H1164 C1184 0.950 . S
H1165 C1185 0.950 . S
H1166 C1187 0.950 . S
H1167 C1190 0.950 . S
H1168 C1191 0.950 . S
H1169 C1193 0.950 . S
H1170 C1194 0.950 . S
H1171 C1195 0.951 . S
H1172 C1197 0.951 . S
H1173 C1199 0.950 . S
H1174 C1200 0.950 . S
H1175 C1202 0.950 . S
H1176 C1205 0.950 . S
H1177 C1206 0.950 . S
H1178 C1208 0.950 . S
H1179 C1209 0.950 . S
C1180 H1162 0.951 . S
C1180 C1181 1.366 . S
C1180 C1182 1.388 . S
C1181 C1180 1.366 . S
C1181 C1185 1.385 . S
C1182 H1163 0.951 . S
C1182 C1180 1.388 . S
C1182 C1183 1.366 . S
C1183 C1182 1.366 . S
C1183 C1184 1.414 . S
C1183 C1186 1.499 . S
C1184 H1164 0.950 . S
C1184 C1183 1.414 . S
C1184 C1185 1.374 . S
C1185 H1165 0.950 . S
C1185 C1181 1.385 . S
C1185 C1184 1.374 . S
C1186 C1183 1.499 . S
C1186 C1187 1.373 . S
C1186 C1188 1.389 . S
C1187 H1166 0.950 . S
C1187 C1186 1.373 . S
C1187 C1203 1.377 . S
C1188 C1186 1.389 . S
C1188 C1189 1.524 . S
C1188 C1202 1.377 . S
C1189 C1188 1.524 . S
C1189 C1190 1.397 . S
C1189 C1194 1.363 . S
C1190 H1167 0.950 . S
C1190 C1189 1.397 . S
C1190 C1191 1.334 . S
C1191 H1168 0.950 . S
C1191 C1190 1.334 . S
C1191 C1192 1.287 . S
C1192 C1191 1.287 . S
C1192 C1193 1.524 . S
C1192 H1211 0.913 . S
C1193 H1169 0.950 . S
C1193 C1192 1.524 . S
C1193 C1194 1.415 . S
C1194 H1170 0.950 . S
C1194 C1189 1.363 . S
C1194 C1193 1.415 . S
C1195 H1171 0.951 . S
C1195 C1196 1.366 . S
C1195 C1197 1.388 . S
C1196 C1195 1.366 . S
C1196 C1200 1.385 . S
C1197 H1172 0.951 . S
C1197 C1195 1.388 . S
C1197 C1198 1.366 . S
C1198 C1197 1.366 . S
C1198 C1199 1.414 . S
C1198 C1201 1.499 . S
C1199 H1173 0.950 . S
C1199 C1198 1.414 . S
C1199 C1200 1.374 . S
C1200 H1174 0.950 . S
C1200 C1196 1.385 . S
C1200 C1199 1.374 . S
C1201 C1198 1.499 . S
C1201 C1202 1.373 . S
C1201 C1203 1.389 . S
C1202 H1175 0.950 . S
C1202 C1188 1.377 . S
C1202 C1201 1.373 . S
C1203 C1187 1.377 . S
C1203 C1201 1.389 . S
C1203 C1204 1.524 . S
C1204 C1203 1.524 . S
C1204 C1205 1.397 . S
C1204 C1209 1.363 . S
C1205 H1176 0.950 . S
C1205 C1204 1.397 . S
C1205 C1206 1.334 . S
C1206 H1177 0.950 . S
C1206 C1205 1.334 . S
C1206 C1207 1.287 . S
C1207 C1206 1.287 . S
C1207 C1208 1.524 . S
C1207 H1210 0.999 . S
C1208 H1178 0.950 . S
C1208 C1207 1.524 . S
C1208 C1209 1.415 . S
C1209 H1179 0.950 . S
C1209 C1204 1.363 . S
C1209 C1208 1.415 . S
H1210 C1207 0.999 . S
H1211 C1192 0.913 . S
H1212 C1230 0.951 . S
H1213 C1232 0.951 . S
H1214 C1234 0.950 . S
H1215 C1235 0.950 . S
H1216 C1237 0.950 . S
H1217 C1240 0.950 . S
H1218 C1241 0.950 . S
H1219 C1243 0.950 . S
H1220 C1244 0.950 . S
H1221 C1245 0.951 . S
H1222 C1247 0.951 . S
H1223 C1249 0.950 . S
H1224 C1250 0.950 . S
H1225 C1252 0.950 . S
H1226 C1255 0.950 . S
H1227 C1256 0.950 . S
H1228 C1258 0.950 . S
H1229 C1259 0.950 . S
C1230 H1212 0.951 . S
C1230 C1231 1.366 . S
C1230 C1232 1.388 . S
C1231 C1230 1.366 . S
C1231 C1235 1.385 . S
C1232 H1213 0.951 . S
C1232 C1230 1.388 . S
C1232 C1233 1.366 . S
C1233 C1232 1.366 . S
C1233 C1234 1.414 . S
C1233 C1236 1.499 . S
C1234 H1214 0.950 . S
C1234 C1233 1.414 . S
C1234 C1235 1.374 . S
C1235 H1215 0.950 . S
C1235 C1231 1.385 . S
C1235 C1234 1.374 . S
C1236 C1233 1.499 . S
C1236 C1237 1.373 . S
C1236 C1238 1.389 . S
C1237 H1216 0.950 . S
C1237 C1236 1.373 . S
C1237 C1253 1.377 . S
C1238 C1236 1.389 . S
C1238 C1239 1.524 . S
C1238 C1252 1.377 . S
C1239 C1238 1.524 . S
C1239 C1240 1.397 . S
C1239 C1244 1.363 . S
C1240 H1217 0.950 . S
C1240 C1239 1.397 . S
C1240 C1241 1.334 . S
C1241 H1218 0.950 . S
C1241 C1240 1.334 . S
C1241 C1242 1.287 . S
C1242 C1241 1.287 . S
C1242 C1243 1.524 . S
C1242 H1261 0.913 . S
C1243 H1219 0.950 . S
C1243 C1242 1.524 . S
C1243 C1244 1.415 . S
C1244 H1220 0.950 . S
C1244 C1239 1.363 . S
C1244 C1243 1.415 . S
C1245 H1221 0.951 . S
C1245 C1246 1.366 . S
C1245 C1247 1.388 . S
C1246 C1245 1.366 . S
C1246 C1250 1.385 . S
C1247 H1222 0.951 . S
C1247 C1245 1.388 . S
C1247 C1248 1.366 . S
C1248 C1247 1.366 . S
C1248 C1249 1.414 . S
C1248 C1251 1.499 . S
C1249 H1223 0.950 . S
C1249 C1248 1.414 . S
C1249 C1250 1.374 . S
C1250 H1224 0.950 . S
C1250 C1246 1.385 . S
C1250 C1249 1.374 . S
C1251 C1248 1.499 . S
C1251 C1252 1.373 . S
C1251 C1253 1.389 . S
C1252 H1225 0.950 . S
C1252 C1238 1.377 . S
C1252 C1251 1.373 . S
C1253 C1237 1.377 . S
C1253 C1251 1.389 . S
C1253 C1254 1.524 . S
C1254 C1253 1.524 . S
C1254 C1255 1.397 . S
C1254 C1259 1.363 . S
C1255 H1226 0.950 . S
C1255 C1254 1.397 . S
C1255 C1256 1.334 . S
C1256 H1227 0.950 . S
C1256 C1255 1.334 . S
C1256 C1257 1.287 . S
C1257 C1256 1.287 . S
C1257 C1258 1.524 . S
C1257 H1260 0.999 . S
C1258 H1228 0.950 . S
C1258 C1257 1.524 . S
C1258 C1259 1.415 . S
C1259 H1229 0.950 . S
C1259 C1254 1.363 . S
C1259 C1258 1.415 . S
H1260 C1257 0.999 . S
H1261 C1242 0.913 . S
H1262 C1280 0.951 . S
H1263 C1282 0.951 . S
H1264 C1284 0.950 . S
H1265 C1285 0.950 . S
H1266 C1287 0.950 . S
H1267 C1290 0.950 . S
H1268 C1291 0.950 . S
H1269 C1293 0.950 . S
H1270 C1294 0.950 . S
H1271 C1295 0.951 . S
H1272 C1297 0.951 . S
H1273 C1299 0.950 . S
H1274 C1300 0.950 . S
H1275 C1302 0.950 . S
H1276 C1305 0.950 . S
H1277 C1306 0.950 . S
H1278 C1308 0.950 . S
H1279 C1309 0.950 . S
C1280 H1262 0.951 . S
C1280 C1281 1.366 . S
C1280 C1282 1.388 . S
C1281 C1280 1.366 . S
C1281 C1285 1.385 . S
C1282 H1263 0.951 . S
C1282 C1280 1.388 . S
C1282 C1283 1.366 . S
C1283 C1282 1.366 . S
C1283 C1284 1.414 . S
C1283 C1286 1.499 . S
C1284 H1264 0.950 . S
C1284 C1283 1.414 . S
C1284 C1285 1.374 . S
C1285 H1265 0.950 . S
C1285 C1281 1.385 . S
C1285 C1284 1.374 . S
C1286 C1283 1.499 . S
C1286 C1287 1.373 . S
C1286 C1288 1.389 . S
C1287 H1266 0.950 . S
C1287 C1286 1.373 . S
C1287 C1303 1.377 . S
C1288 C1286 1.389 . S
C1288 C1289 1.524 . S
C1288 C1302 1.377 . S
C1289 C1288 1.524 . S
C1289 C1290 1.397 . S
C1289 C1294 1.363 . S
C1290 H1267 0.950 . S
C1290 C1289 1.397 . S
C1290 C1291 1.334 . S
C1291 H1268 0.950 . S
C1291 C1290 1.334 . S
C1291 C1292 1.287 . S
C1292 C1291 1.287 . S
C1292 C1293 1.524 . S
C1292 H1311 0.913 . S
C1293 H1269 0.950 . S
C1293 C1292 1.524 . S
C1293 C1294 1.415 . S
C1294 H1270 0.950 . S
C1294 C1289 1.363 . S
C1294 C1293 1.415 . S
C1295 H1271 0.951 . S
C1295 C1296 1.366 . S
C1295 C1297 1.388 . S
C1296 C1295 1.366 . S
C1296 C1300 1.385 . S
C1297 H1272 0.951 . S
C1297 C1295 1.388 . S
C1297 C1298 1.366 . S
C1298 C1297 1.366 . S
C1298 C1299 1.414 . S
C1298 C1301 1.499 . S
C1299 H1273 0.950 . S
C1299 C1298 1.414 . S
C1299 C1300 1.374 . S
C1300 H1274 0.950 . S
C1300 C1296 1.385 . S
C1300 C1299 1.374 . S
C1301 C1298 1.499 . S
C1301 C1302 1.373 . S
C1301 C1303 1.389 . S
C1302 H1275 0.950 . S
C1302 C1288 1.377 . S
C1302 C1301 1.373 . S
C1303 C1287 1.377 . S
C1303 C1301 1.389 . S
C1303 C1304 1.524 . S
C1304 C1303 1.524 . S
C1304 C1305 1.397 . S
C1304 C1309 1.363 . S
C1305 H1276 0.950 . S
C1305 C1304 1.397 . S
C1305 C1306 1.334 . S
C1306 H1277 0.950 . S
C1306 C1305 1.334 . S
C1306 C1307 1.287 . S
C1307 C1306 1.287 . S
C1307 C1308 1.524 . S
C1307 H1310 0.999 . S
C1308 H1278 0.950 . S
C1308 C1307 1.524 . S
C1308 C1309 1.415 . S
C1309 H1279 0.950 . S
C1309 C1304 1.363 . S
C1309 C1308 1.415 . S
H1310 C1307 0.999 . S
H1311 C1292 0.913 . S
H1312 C1330 0.951 . S
H1313 C1332 0.951 . S
H1314 C1334 0.950 . S
H1315 C1335 0.950 . S
H1316 C1337 0.950 . S
H1317 C1340 0.950 . S
H1318 C1341 0.950 . S
H1319 C1343 0.950 . S
H1320 C1344 0.950 . S
H1321 C1345 0.951 . S
H1322 C1347 0.951 . S
H1323 C1349 0.950 . S
H1324 C1350 0.950 . S
H1325 C1352 0.950 . S
H1326 C1355 0.950 . S
H1327 C1356 0.950 . S
H1328 C1358 0.950 . S
H1329 C1359 0.950 . S
C1330 H1312 0.951 . S
C1330 C1331 1.366 . S
C1330 C1332 1.388 . S
C1331 C1330 1.366 . S
C1331 C1335 1.385 . S
C1332 H1313 0.951 . S
C1332 C1330 1.388 . S
C1332 C1333 1.366 . S
C1333 C1332 1.366 . S
C1333 C1334 1.414 . S
C1333 C1336 1.499 . S
C1334 H1314 0.950 . S
C1334 C1333 1.414 . S
C1334 C1335 1.374 . S
C1335 H1315 0.950 . S
C1335 C1331 1.385 . S
C1335 C1334 1.374 . S
C1336 C1333 1.499 . S
C1336 C1337 1.373 . S
C1336 C1338 1.389 . S
C1337 H1316 0.950 . S
C1337 C1336 1.373 . S
C1337 C1353 1.377 . S
C1338 C1336 1.389 . S
C1338 C1339 1.524 . S
C1338 C1352 1.377 . S
C1339 C1338 1.524 . S
C1339 C1340 1.397 . S
C1339 C1344 1.363 . S
C1340 H1317 0.950 . S
C1340 C1339 1.397 . S
C1340 C1341 1.334 . S
C1341 H1318 0.950 . S
C1341 C1340 1.334 . S
C1341 C1342 1.287 . S
C1342 C1341 1.287 . S
C1342 C1343 1.524 . S
C1342 H1361 0.913 . S
C1343 H1319 0.950 . S
C1343 C1342 1.524 . S
C1343 C1344 1.415 . S
C1344 H1320 0.950 . S
C1344 C1339 1.363 . S
C1344 C1343 1.415 . S
C1345 H1321 0.951 . S
C1345 C1346 1.366 . S
C1345 C1347 1.388 . S
C1346 C1345 1.366 . S
C1346 C1350 1.385 . S
C1347 H1322 0.951 . S
C1347 C1345 1.388 . S
C1347 C1348 1.366 . S
C1348 C1347 1.366 . S
C1348 C1349 1.414 . S
C1348 C1351 1.499 . S
C1349 H1323 0.950 . S
C1349 C1348 1.414 . S
C1349 C1350 1.374 . S
C1350 H1324 0.950 . S
C1350 C1346 1.385 . S
C1350 C1349 1.374 . S
C1351 C1348 1.499 . S
C1351 C1352 1.373 . S
C1351 C1353 1.389 . S
C1352 H1325 0.950 . S
C1352 C1338 1.377 . S
C1352 C1351 1.373 . S
C1353 C1337 1.377 . S
C1353 C1351 1.389 . S
C1353 C1354 1.524 . S
C1354 C1353 1.524 . S
C1354 C1355 1.397 . S
C1354 C1359 1.363 . S
C1355 H1326 0.950 . S
C1355 C1354 1.397 . S
C1355 C1356 1.334 . S
C1356 H1327 0.950 . S
C1356 C1355 1.334 . S
C1356 C1357 1.287 . S
C1357 C1356 1.287 . S
C1357 C1358 1.524 . S
C1357 H1360 0.999 . S
C1358 H1328 0.950 . S
C1358 C1357 1.524 . S
C1358 C1359 1.415 . S
C1359 H1329 0.950 . S
C1359 C1354 1.363 . S
C1359 C1358 1.415 . S
H1360 C1357 0.999 . S
H1361 C1342 0.913 . S
H1362 C1380 0.951 . S
H1363 C1382 0.951 . S
H1364 C1384 0.950 . S
H1365 C1385 0.950 . S
H1366 C1387 0.950 . S
H1367 C1390 0.950 . S
H1368 C1391 0.950 . S
H1369 C1393 0.950 . S
H1370 C1394 0.950 . S
H1371 C1395 0.951 . S
H1372 C1397 0.951 . S
H1373 C1399 0.950 . S
H1374 C1400 0.950 . S
H1375 C1402 0.950 . S
H1376 C1405 0.950 . S
H1377 C1406 0.950 . S
H1378 C1408 0.950 . S
H1379 C1409 0.950 . S
C1380 H1362 0.951 . S
C1380 C1381 1.366 . S
C1380 C1382 1.388 . S
C1381 C1380 1.366 . S
C1381 C1385 1.385 . S
C1382 H1363 0.951 . S
C1382 C1380 1.388 . S
C1382 C1383 1.366 . S
C1383 C1382 1.366 . S
C1383 C1384 1.414 . S
C1383 C1386 1.499 . S
C1384 H1364 0.950 . S
C1384 C1383 1.414 . S
C1384 C1385 1.374 . S
C1385 H1365 0.950 . S
C1385 C1381 1.385 . S
C1385 C1384 1.374 . S
C1386 C1383 1.499 . S
C1386 C1387 1.373 . S
C1386 C1388 1.389 . S
C1387 H1366 0.950 . S
C1387 C1386 1.373 . S
C1387 C1403 1.377 . S
C1388 C1386 1.389 . S
C1388 C1389 1.524 . S
C1388 C1402 1.377 . S
C1389 C1388 1.524 . S
C1389 C1390 1.397 . S
C1389 C1394 1.363 . S
C1390 H1367 0.950 . S
C1390 C1389 1.397 . S
C1390 C1391 1.334 . S
C1391 H1368 0.950 . S
C1391 C1390 1.334 . S
C1391 C1392 1.287 . S
C1392 C1391 1.287 . S
C1392 C1393 1.524 . S
C1392 H1411 0.913 . S
C1393 H1369 0.950 . S
C1393 C1392 1.524 . S
C1393 C1394 1.415 . S
C1394 H1370 0.950 . S
C1394 C1389 1.363 . S
C1394 C1393 1.415 . S
C1395 H1371 0.951 . S
C1395 C1396 1.366 . S
C1395 C1397 1.388 . S
C1396 C1395 1.366 . S
C1396 C1400 1.385 . S
C1397 H1372 0.951 . S
C1397 C1395 1.388 . S
C1397 C1398 1.366 . S
C1398 C1397 1.366 . S
C1398 C1399 1.414 . S
C1398 C1401 1.499 . S
C1399 H1373 0.950 . S
C1399 C1398 1.414 . S
C1399 C1400 1.374 . S
C1400 H1374 0.950 . S
C1400 C1396 1.385 . S
C1400 C1399 1.374 . S
C1401 C1398 1.499 . S
C1401 C1402 1.373 . S
C1401 C1403 1.389 . S
C1402 H1375 0.950 . S
C1402 C1388 1.377 . S
C1402 C1401 1.373 . S
C1403 C1387 1.377 . S
C1403 C1401 1.389 . S
C1403 C1404 1.524 . S
C1404 C1403 1.524 . S
C1404 C1405 1.397 . S
C1404 C1409 1.363 . S
C1405 H1376 0.950 . S
C1405 C1404 1.397 . S
C1405 C1406 1.334 . S
C1406 H1377 0.950 . S
C1406 C1405 1.334 . S
C1406 C1407 1.287 . S
C1407 C1406 1.287 . S
C1407 C1408 1.524 . S
C1407 H1410 0.999 . S
C1408 H1378 0.950 . S
C1408 C1407 1.524 . S
C1408 C1409 1.415 . S
C1409 H1379 0.950 . S
C1409 C1404 1.363 . S
C1409 C1408 1.415 . S
H1410 C1407 0.999 . S
H1411 C1392 0.913 . S
H1412 C1430 0.951 . S
H1413 C1432 0.951 . S
H1414 C1434 0.950 . S
H1415 C1435 0.950 . S
H1416 C1437 0.950 . S
H1417 C1440 0.950 . S
H1418 C1441 0.950 . S
H1419 C1443 0.950 . S
H1420 C1444 0.950 . S
H1421 C1445 0.951 . S
H1422 C1447 0.951 . S
H1423 C1449 0.950 . S
H1424 C1450 0.950 . S
H1425 C1452 0.950 . S
H1426 C1455 0.950 . S
H1427 C1456 0.950 . S
H1428 C1458 0.950 . S
H1429 C1459 0.950 . S
C1430 H1412 0.951 . S
C1430 C1431 1.366 . S
C1430 C1432 1.388 . S
C1431 C1430 1.366 . S
C1431 C1435 1.385 . S
C1432 H1413 0.951 . S
C1432 C1430 1.388 . S
C1432 C1433 1.366 . S
C1433 C1432 1.366 . S
C1433 C1434 1.414 . S
C1433 C1436 1.499 . S
C1434 H1414 0.950 . S
C1434 C1433 1.414 . S
C1434 C1435 1.374 . S
C1435 H1415 0.950 . S
C1435 C1431 1.385 . S
C1435 C1434 1.374 . S
C1436 C1433 1.499 . S
C1436 C1437 1.373 . S
C1436 C1438 1.389 . S
C1437 H1416 0.950 . S
C1437 C1436 1.373 . S
C1437 C1453 1.377 . S
C1438 C1436 1.389 . S
C1438 C1439 1.524 . S
C1438 C1452 1.377 . S
C1439 C1438 1.524 . S
C1439 C1440 1.397 . S
C1439 C1444 1.363 . S
C1440 H1417 0.950 . S
C1440 C1439 1.397 . S
C1440 C1441 1.334 . S
C1441 H1418 0.950 . S
C1441 C1440 1.334 . S
C1441 C1442 1.287 . S
C1442 C1441 1.287 . S
C1442 C1443 1.524 . S
C1442 H1461 0.913 . S
C1443 H1419 0.950 . S
C1443 C1442 1.524 . S
C1443 C1444 1.415 . S
C1444 H1420 0.950 . S
C1444 C1439 1.363 . S
C1444 C1443 1.415 . S
C1445 H1421 0.951 . S
C1445 C1446 1.366 . S
C1445 C1447 1.388 . S
C1446 C1445 1.366 . S
C1446 C1450 1.385 . S
C1447 H1422 0.951 . S
C1447 C1445 1.388 . S
C1447 C1448 1.366 . S
C1448 C1447 1.366 . S
C1448 C1449 1.414 . S
C1448 C1451 1.499 . S
C1449 H1423 0.950 . S
C1449 C1448 1.414 . S
C1449 C1450 1.374 . S
C1450 H1424 0.950 . S
C1450 C1446 1.385 . S
C1450 C1449 1.374 . S
C1451 C1448 1.499 . S
C1451 C1452 1.373 . S
C1451 C1453 1.389 . S
C1452 H1425 0.950 . S
C1452 C1438 1.377 . S
C1452 C1451 1.373 . S
C1453 C1437 1.377 . S
C1453 C1451 1.389 . S
C1453 C1454 1.524 . S
C1454 C1453 1.524 . S
C1454 C1455 1.397 . S
C1454 C1459 1.363 . S
C1455 H1426 0.950 . S
C1455 C1454 1.397 . S
C1455 C1456 1.334 . S
C1456 H1427 0.950 . S
C1456 C1455 1.334 . S
C1456 C1457 1.287 . S
C1457 C1456 1.287 . S
C1457 C1458 1.524 . S
C1457 H1460 0.999 . S
C1458 H1428 0.950 . S
C1458 C1457 1.524 . S
C1458 C1459 1.415 . S
C1459 H1429 0.950 . S
C1459 C1454 1.363 . S
C1459 C1458 1.415 . S
H1460 C1457 0.999 . S
H1461 C1442 0.913 . S
H1462 C1480 0.951 . S
H1463 C1482 0.951 . S
H1464 C1484 0.950 . S
H1465 C1485 0.950 . S
H1466 C1487 0.950 . S
H1467 C1490 0.950 . S
H1468 C1491 0.950 . S
H1469 C1493 0.950 . S
H1470 C1494 0.950 . S
H1471 C1495 0.951 . S
H1472 C1497 0.951 . S
H1473 C1499 0.950 . S
H1474 C1500 0.950 . S
H1475 C1502 0.950 . S
H1476 C1505 0.950 . S
H1477 C1506 0.950 . S
H1478 C1508 0.950 . S
H1479 C1509 0.950 . S
C1480 H1462 0.951 . S
C1480 C1481 1.366 . S
C1480 C1482 1.388 . S
C1481 C1480 1.366 . S
C1481 C1485 1.385 . S
C1482 H1463 0.951 . S
C1482 C1480 1.388 . S
C1482 C1483 1.366 . S
C1483 C1482 1.366 . S
C1483 C1484 1.414 . S
C1483 C1486 1.499 . S
C1484 H1464 0.950 . S
C1484 C1483 1.414 . S
C1484 C1485 1.374 . S
C1485 H1465 0.950 . S
C1485 C1481 1.385 . S
C1485 C1484 1.374 . S
C1486 C1483 1.499 . S
C1486 C1487 1.373 . S
C1486 C1488 1.389 . S
C1487 H1466 0.950 . S
C1487 C1486 1.373 . S
C1487 C1503 1.377 . S
C1488 C1486 1.389 . S
C1488 C1489 1.524 . S
C1488 C1502 1.377 . S
C1489 C1488 1.524 . S
C1489 C1490 1.397 . S
C1489 C1494 1.363 . S
C1490 H1467 0.950 . S
C1490 C1489 1.397 . S
C1490 C1491 1.334 . S
C1491 H1468 0.950 . S
C1491 C1490 1.334 . S
C1491 C1492 1.287 . S
C1492 C1491 1.287 . S
C1492 C1493 1.524 . S
C1492 H1511 0.913 . S
C1493 H1469 0.950 . S
C1493 C1492 1.524 . S
C1493 C1494 1.415 . S
C1494 H1470 0.950 . S
C1494 C1489 1.363 . S
C1494 C1493 1.415 . S
C1495 H1471 0.951 . S
C1495 C1496 1.366 . S
C1495 C1497 1.388 . S
C1496 C1495 1.366 . S
C1496 C1500 1.385 . S
C1497 H1472 0.951 . S
C1497 C1495 1.388 . S
C1497 C1498 1.366 . S
C1498 C1497 1.366 . S
C1498 C1499 1.414 . S
C1498 C1501 1.499 . S
C1499 H1473 0.950 . S
C1499 C1498 1.414 . S
C1499 C1500 1.374 . S
C1500 H1474 0.950 . S
C1500 C1496 1.385 . S
C1500 C1499 1.374 . S
C1501 C1498 1.499 . S
C1501 C1502 1.373 . S
C1501 C1503 1.389 . S
C1502 H1475 0.950 . S
C1502 C1488 1.377 . S
C1502 C1501 1.373 . S
C1503 C1487 1.377 . S
C1503 C1501 1.389 . S
C1503 C1504 1.524 . S
C1504 C1503 1.524 . S
C1504 C1505 1.397 . S
C1504 C1509 1.363 . S
C1505 H1476 0.950 . S
C1505 C1504 1.397 . S
C1505 C1506 1.334 . S
C1506 H1477 0.950 . S
C1506 C1505 1.334 . S
C1506 C1507 1.287 . S
C1507 C1506 1.287 . S
C1507 C1508 1.524 . S
C1507 H1510 0.999 . S
C1508 H1478 0.950 . S
C1508 C1507 1.524 . S
C1508 C1509 1.415 . S
C1509 H1479 0.950 . S
C1509 C1504 1.363 . S
C1509 C1508 1.415 . S
H1510 C1507 0.999 . S
H1511 C1492 0.913 . S
H1512 C1530 0.951 . S
H1513 C1532 0.951 . S
H1514 C1534 0.950 . S
H1515 C1535 0.950 . S
H1516 C1537 0.950 . S
H1517 C1540 0.950 . S
H1518 C1541 0.950 . S
H1519 C1543 0.950 . S
H1520 C1544 0.950 . S
H1521 C1545 0.951 . S
H1522 C1547 0.951 . S
H1523 C1549 0.950 . S
H1524 C1550 0.950 . S
H1525 C1552 0.950 . S
H1526 C1555 0.950 . S
H1527 C1556 0.950 . S
H1528 C1558 0.950 . S
H1529 C1559 0.950 . S
C1530 H1512 0.951 . S
C1530 C1531 1.366 . S
C1530 C1532 1.388 . S
C1531 C1530 1.366 . S
C1531 C1535 1.385 . S
C1532 H1513 0.951 . S
C1532 C1530 1.388 . S
C1532 C1533 1.366 . S
C1533 C1532 1.366 . S
C1533 C1534 1.414 . S
C1533 C1536 1.499 . S
C1534 H1514 0.950 . S
C1534 C1533 1.414 . S
C1534 C1535 1.374 . S
C1535 H1515 0.950 . S
C1535 C1531 1.385 . S
C1535 C1534 1.374 . S
C1536 C1533 1.499 . S
C1536 C1537 1.373 . S
C1536 C1538 1.389 . S
C1537 H1516 0.950 . S
C1537 C1536 1.373 . S
C1537 C1553 1.377 . S
C1538 C1536 1.389 . S
C1538 C1539 1.524 . S
C1538 C1552 1.377 . S
C1539 C1538 1.524 . S
C1539 C1540 1.397 . S
C1539 C1544 1.363 . S
C1540 H1517 0.950 . S
C1540 C1539 1.397 . S
C1540 C1541 1.334 . S
C1541 H1518 0.950 . S
C1541 C1540 1.334 . S
C1541 C1542 1.287 . S
C1542 C1541 1.287 . S
C1542 C1543 1.524 . S
C1542 H1561 0.913 . S
C1543 H1519 0.950 . S
C1543 C1542 1.524 . S
C1543 C1544 1.415 . S
C1544 H1520 0.950 . S
C1544 C1539 1.363 . S
C1544 C1543 1.415 . S
C1545 H1521 0.951 . S
C1545 C1546 1.366 . S
C1545 C1547 1.388 . S
C1546 C1545 1.366 . S
C1546 C1550 1.385 . S
C1547 H1522 0.951 . S
C1547 C1545 1.388 . S
C1547 C1548 1.366 . S
C1548 C1547 1.366 . S
C1548 C1549 1.414 . S
C1548 C1551 1.499 . S
C1549 H1523 0.950 . S
C1549 C1548 1.414 . S
C1549 C1550 1.374 . S
C1550 H1524 0.950 . S
C1550 C1546 1.385 . S
C1550 C1549 1.374 . S
C1551 C1548 1.499 . S
C1551 C1552 1.373 . S
C1551 C1553 1.389 . S
C1552 H1525 0.950 . S
C1552 C1538 1.377 . S
C1552 C1551 1.373 . S
C1553 C1537 1.377 . S
C1553 C1551 1.389 . S
C1553 C1554 1.524 . S
C1554 C1553 1.524 . S
C1554 C1555 1.397 . S
C1554 C1559 1.363 . S
C1555 H1526 0.950 . S
C1555 C1554 1.397 . S
C1555 C1556 1.334 . S
C1556 H1527 0.950 . S
C1556 C1555 1.334 . S
C1556 C1557 1.287 . S
C1557 C1556 1.287 . S
C1557 C1558 1.524 . S
C1557 H1560 0.999 . S
C1558 H1528 0.950 . S
C1558 C1557 1.524 . S
C1558 C1559 1.415 . S
C1559 H1529 0.950 . S
C1559 C1554 1.363 . S
C1559 C1558 1.415 . S
H1560 C1557 0.999 . S
H1561 C1542 0.913 . S
H1562 C1580 0.951 . S
H1563 C1582 0.951 . S
H1564 C1584 0.950 . S
H1565 C1585 0.950 . S
H1566 C1587 0.950 . S
H1567 C1590 0.950 . S
H1568 C1591 0.950 . S
H1569 C1593 0.950 . S
H1570 C1594 0.950 . S
H1571 C1595 0.951 . S
H1572 C1597 0.951 . S
H1573 C1599 0.950 . S
H1574 C1600 0.950 . S
H1575 C1602 0.950 . S
H1576 C1605 0.950 . S
H1577 C1606 0.950 . S
H1578 C1608 0.950 . S
H1579 C1609 0.950 . S
C1580 H1562 0.951 . S
C1580 C1581 1.366 . S
C1580 C1582 1.388 1_554 S
C1581 C1580 1.366 . S
C1581 C1585 1.385 . S
C1582 H1563 0.951 . S
C1582 C1580 1.388 1_556 S
C1582 C1583 1.366 . S
C1583 C1582 1.366 . S
C1583 C1584 1.414 1_556 S
C1583 C1586 1.499 . S
C1584 H1564 0.950 . S
C1584 C1583 1.414 1_554 S
C1584 C1585 1.374 . S
C1585 H1565 0.950 . S
C1585 C1581 1.385 . S
C1585 C1584 1.374 . S
C1586 C1583 1.499 . S
C1586 C1587 1.373 . S
C1586 C1588 1.389 . S
C1587 H1566 0.950 . S
C1587 C1586 1.373 . S
C1587 C1603 1.377 . S
C1588 C1586 1.389 . S
C1588 C1589 1.524 . S
C1588 C1602 1.377 . S
C1589 C1588 1.524 . S
C1589 C1590 1.397 . S
C1589 C1594 1.363 . S
C1590 H1567 0.950 . S
C1590 C1589 1.397 . S
C1590 C1591 1.334 . S
C1591 H1568 0.950 . S
C1591 C1590 1.334 . S
C1591 C1592 1.287 . S
C1592 C1591 1.287 . S
C1592 C1593 1.524 . S
C1592 H1611 0.913 . S
C1593 H1569 0.950 . S
C1593 C1592 1.524 . S
C1593 C1594 1.415 . S
C1594 H1570 0.950 . S
C1594 C1589 1.363 . S
C1594 C1593 1.415 . S
C1595 H1571 0.951 . S
C1595 C1596 1.366 . S
C1595 C1597 1.388 . S
C1596 C1595 1.366 . S
C1596 C1600 1.385 . S
C1597 H1572 0.951 . S
C1597 C1595 1.388 . S
C1597 C1598 1.366 . S
C1598 C1597 1.366 . S
C1598 C1599 1.414 . S
C1598 C1601 1.499 . S
C1599 H1573 0.950 . S
C1599 C1598 1.414 . S
C1599 C1600 1.374 . S
C1600 H1574 0.950 . S
C1600 C1596 1.385 . S
C1600 C1599 1.374 . S
C1601 C1598 1.499 . S
C1601 C1602 1.373 . S
C1601 C1603 1.389 . S
C1602 H1575 0.950 . S
C1602 C1588 1.377 . S
C1602 C1601 1.373 . S
C1603 C1587 1.377 . S
C1603 C1601 1.389 . S
C1603 C1604 1.524 . S
C1604 C1603 1.524 . S
C1604 C1605 1.397 . S
C1604 C1609 1.363 . S
C1605 H1576 0.950 . S
C1605 C1604 1.397 . S
C1605 C1606 1.334 . S
C1606 H1577 0.950 . S
C1606 C1605 1.334 . S
C1606 C1607 1.287 . S
C1607 C1606 1.287 . S
C1607 C1608 1.524 . S
C1607 H1610 0.999 . S
C1608 H1578 0.950 . S
C1608 C1607 1.524 . S
C1608 C1609 1.415 . S
C1609 H1579 0.950 . S
C1609 C1604 1.363 . S
C1609 C1608 1.415 . S
H1610 C1607 0.999 . S
H1611 C1592 0.913 . S
H1612 C1630 0.951 . S
H1613 C1632 0.951 . S
H1614 C1634 0.950 . S
H1615 C1635 0.950 . S
H1616 C1637 0.950 . S
H1617 C1640 0.950 . S
H1618 C1641 0.950 . S
H1619 C1643 0.950 . S
H1620 C1644 0.950 . S
H1621 C1645 0.951 . S
H1622 C1647 0.951 . S
H1623 C1649 0.950 . S
H1624 C1650 0.950 . S
H1625 C1652 0.950 . S
H1626 C1655 0.950 . S
H1627 C1656 0.950 . S
H1628 C1658 0.950 . S
H1629 C1659 0.950 . S
C1630 H1612 0.951 . S
C1630 C1631 1.366 . S
C1630 C1632 1.388 . S
C1631 C1630 1.366 . S
C1631 C1635 1.385 . S
C1632 H1613 0.951 . S
C1632 C1630 1.388 . S
C1632 C1633 1.366 . S
C1633 C1632 1.366 . S
C1633 C1634 1.414 . S
C1633 C1636 1.499 . S
C1634 H1614 0.950 . S
C1634 C1633 1.414 . S
C1634 C1635 1.374 . S
C1635 H1615 0.950 . S
C1635 C1631 1.385 . S
C1635 C1634 1.374 . S
C1636 C1633 1.499 . S
C1636 C1637 1.373 . S
C1636 C1638 1.389 . S
C1637 H1616 0.950 . S
C1637 C1636 1.373 . S
C1637 C1653 1.377 . S
C1638 C1636 1.389 . S
C1638 C1639 1.524 . S
C1638 C1652 1.377 . S
C1639 C1638 1.524 . S
C1639 C1640 1.397 . S
C1639 C1644 1.363 . S
C1640 H1617 0.950 . S
C1640 C1639 1.397 . S
C1640 C1641 1.334 . S
C1641 H1618 0.950 . S
C1641 C1640 1.334 . S
C1641 C1642 1.287 . S
C1642 C1641 1.287 . S
C1642 C1643 1.524 . S
C1642 H1661 0.913 . S
C1643 H1619 0.950 . S
C1643 C1642 1.524 . S
C1643 C1644 1.415 . S
C1644 H1620 0.950 . S
C1644 C1639 1.363 . S
C1644 C1643 1.415 . S
C1645 H1621 0.951 . S
C1645 C1646 1.366 . S
C1645 C1647 1.388 . S
C1646 C1645 1.366 . S
C1646 C1650 1.385 . S
C1647 H1622 0.951 . S
C1647 C1645 1.388 . S
C1647 C1648 1.366 . S
C1648 C1647 1.366 . S
C1648 C1649 1.414 . S
C1648 C1651 1.499 . S
C1649 H1623 0.950 . S
C1649 C1648 1.414 . S
C1649 C1650 1.374 . S
C1650 H1624 0.950 . S
C1650 C1646 1.385 . S
C1650 C1649 1.374 . S
C1651 C1648 1.499 . S
C1651 C1652 1.373 . S
C1651 C1653 1.389 . S
C1652 H1625 0.950 . S
C1652 C1638 1.377 . S
C1652 C1651 1.373 . S
C1653 C1637 1.377 . S
C1653 C1651 1.389 . S
C1653 C1654 1.524 . S
C1654 C1653 1.524 . S
C1654 C1655 1.397 . S
C1654 C1659 1.363 . S
C1655 H1626 0.950 . S
C1655 C1654 1.397 . S
C1655 C1656 1.334 . S
C1656 H1627 0.950 . S
C1656 C1655 1.334 . S
C1656 C1657 1.287 . S
C1657 C1656 1.287 . S
C1657 C1658 1.524 . S
C1657 H1660 0.999 . S
C1658 H1628 0.950 . S
C1658 C1657 1.524 . S
C1658 C1659 1.415 . S
C1659 H1629 0.950 . S
C1659 C1654 1.363 . S
C1659 C1658 1.415 . S
H1660 C1657 0.999 . S
H1661 C1642 0.913 . S
H1662 C1680 0.951 . S
H1663 C1682 0.951 . S
H1664 C1684 0.950 . S
H1665 C1685 0.950 . S
H1666 C1687 0.950 . S
H1667 C1690 0.950 . S
H1668 C1691 0.950 . S
H1669 C1693 0.950 . S
H1670 C1694 0.950 . S
H1671 C1695 0.951 . S
H1672 C1697 0.951 . S
H1673 C1699 0.950 . S
H1674 C1700 0.950 . S
H1675 C1702 0.950 . S
H1676 C1705 0.950 . S
H1677 C1706 0.950 1_556 S
H1678 C1708 0.950 . S
H1679 C1709 0.950 . S
C1680 H1662 0.951 . S
C1680 C1681 1.366 . S
C1680 C1682 1.388 . S
C1681 C1680 1.366 . S
C1681 C1685 1.385 . S
C1682 H1663 0.951 . S
C1682 C1680 1.388 . S
C1682 C1683 1.366 . S
C1683 C1682 1.366 . S
C1683 C1684 1.414 . S
C1683 C1686 1.499 . S
C1684 H1664 0.950 . S
C1684 C1683 1.414 . S
C1684 C1685 1.374 . S
C1685 H1665 0.950 . S
C1685 C1681 1.385 . S
C1685 C1684 1.374 . S
C1686 C1683 1.499 . S
C1686 C1687 1.373 . S
C1686 C1688 1.389 . S
C1687 H1666 0.950 . S
C1687 C1686 1.373 . S
C1687 C1703 1.377 . S
C1688 C1686 1.389 . S
C1688 C1689 1.524 . S
C1688 C1702 1.377 . S
C1689 C1688 1.524 . S
C1689 C1690 1.397 . S
C1689 C1694 1.363 . S
C1690 H1667 0.950 . S
C1690 C1689 1.397 . S
C1690 C1691 1.334 . S
C1691 H1668 0.950 . S
C1691 C1690 1.334 . S
C1691 C1692 1.287 . S
C1692 C1691 1.287 . S
C1692 C1693 1.524 . S
C1692 H1711 0.913 . S
C1693 H1669 0.950 . S
C1693 C1692 1.524 . S
C1693 C1694 1.415 . S
C1694 H1670 0.950 . S
C1694 C1689 1.363 . S
C1694 C1693 1.415 . S
C1695 H1671 0.951 . S
C1695 C1696 1.366 . S
C1695 C1697 1.388 . S
C1696 C1695 1.366 . S
C1696 C1700 1.385 . S
C1697 H1672 0.951 . S
C1697 C1695 1.388 . S
C1697 C1698 1.366 1_556 S
C1698 C1697 1.366 1_554 S
C1698 C1699 1.414 . S
C1698 C1701 1.499 . S
C1699 H1673 0.950 . S
C1699 C1698 1.414 . S
C1699 C1700 1.374 1_554 S
C1700 H1674 0.950 . S
C1700 C1696 1.385 . S
C1700 C1699 1.374 1_556 S
C1701 C1698 1.499 . S
C1701 C1702 1.373 . S
C1701 C1703 1.389 . S
C1702 H1675 0.950 . S
C1702 C1688 1.377 . S
C1702 C1701 1.373 . S
C1703 C1687 1.377 . S
C1703 C1701 1.389 . S
C1703 C1704 1.524 . S
C1704 C1703 1.524 . S
C1704 C1705 1.397 . S
C1704 C1709 1.363 . S
C1705 H1676 0.950 . S
C1705 C1704 1.397 . S
C1705 C1706 1.334 . S
C1706 H1677 0.950 1_554 S
C1706 C1705 1.334 . S
C1706 C1707 1.287 . S
C1707 C1706 1.287 . S
C1707 C1708 1.524 . S
C1707 H1710 0.999 1_554 S
C1708 H1678 0.950 . S
C1708 C1707 1.524 . S
C1708 C1709 1.415 . S
C1709 H1679 0.950 . S
C1709 C1704 1.363 . S
C1709 C1708 1.415 . S
H1710 C1707 0.999 1_556 S
H1711 C1692 0.913 . S
H1712 C1730 0.951 . S
H1713 C1732 0.951 . S
H1714 C1734 0.950 . S
H1715 C1735 0.950 . S
H1716 C1737 0.950 . S
H1717 C1740 0.950 . S
H1718 C1741 0.950 . S
H1719 C1743 0.950 . S
H1720 C1744 0.950 . S
H1721 C1745 0.951 . S
H1722 C1747 0.951 . S
H1723 C1749 0.950 . S
H1724 C1750 0.950 . S
H1725 C1752 0.950 . S
H1726 C1755 0.950 . S
H1727 C1756 0.950 . S
H1728 C1758 0.950 . S
H1729 C1759 0.950 . S
C1730 H1712 0.951 . S
C1730 C1731 1.366 . S
C1730 C1732 1.388 . S
C1731 C1730 1.366 . S
C1731 C1735 1.385 . S
C1732 H1713 0.951 . S
C1732 C1730 1.388 . S
C1732 C1733 1.366 . S
C1733 C1732 1.366 . S
C1733 C1734 1.414 . S
C1733 C1736 1.499 . S
C1734 H1714 0.950 . S
C1734 C1733 1.414 . S
C1734 C1735 1.374 . S
C1735 H1715 0.950 . S
C1735 C1731 1.385 . S
C1735 C1734 1.374 . S
C1736 C1733 1.499 . S
C1736 C1737 1.373 . S
C1736 C1738 1.389 . S
C1737 H1716 0.950 . S
C1737 C1736 1.373 . S
C1737 C1753 1.377 . S
C1738 C1736 1.389 . S
C1738 C1739 1.524 . S
C1738 C1752 1.377 . S
C1739 C1738 1.524 . S
C1739 C1740 1.397 . S
C1739 C1744 1.363 . S
C1740 H1717 0.950 . S
C1740 C1739 1.397 . S
C1740 C1741 1.334 . S
C1741 H1718 0.950 . S
C1741 C1740 1.334 . S
C1741 C1742 1.287 . S
C1742 C1741 1.287 . S
C1742 C1743 1.524 . S
C1742 H1761 0.913 . S
C1743 H1719 0.950 . S
C1743 C1742 1.524 . S
C1743 C1744 1.415 . S
C1744 H1720 0.950 . S
C1744 C1739 1.363 . S
C1744 C1743 1.415 . S
C1745 H1721 0.951 . S
C1745 C1746 1.366 . S
C1745 C1747 1.388 . S
C1746 C1745 1.366 . S
C1746 C1750 1.385 . S
C1747 H1722 0.951 . S
C1747 C1745 1.388 . S
C1747 C1748 1.366 . S
C1748 C1747 1.366 . S
C1748 C1749 1.414 . S
C1748 C1751 1.499 . S
C1749 H1723 0.950 . S
C1749 C1748 1.414 . S
C1749 C1750 1.374 . S
C1750 H1724 0.950 . S
C1750 C1746 1.385 . S
C1750 C1749 1.374 . S
C1751 C1748 1.499 . S
C1751 C1752 1.373 . S
C1751 C1753 1.389 . S
C1752 H1725 0.950 . S
C1752 C1738 1.377 . S
C1752 C1751 1.373 . S
C1753 C1737 1.377 . S
C1753 C1751 1.389 . S
C1753 C1754 1.524 . S
C1754 C1753 1.524 . S
C1754 C1755 1.397 . S
C1754 C1759 1.363 . S
C1755 H1726 0.950 . S
C1755 C1754 1.397 . S
C1755 C1756 1.334 . S
C1756 H1727 0.950 . S
C1756 C1755 1.334 . S
C1756 C1757 1.287 . S
C1757 C1756 1.287 . S
C1757 C1758 1.524 . S
C1757 H1760 0.999 . S
C1758 H1728 0.950 . S
C1758 C1757 1.524 . S
C1758 C1759 1.415 . S
C1759 H1729 0.950 . S
C1759 C1754 1.363 . S
C1759 C1758 1.415 . S
H1760 C1757 0.999 . S
H1761 C1742 0.913 . S
H1762 C1780 0.951 . S
H1763 C1782 0.951 . S
H1764 C1784 0.950 1_455 S
H1765 C1785 0.950 . S
H1766 C1787 0.950 . S
H1767 C1790 0.950 . S
H1768 C1791 0.950 . S
H1769 C1793 0.950 . S
H1770 C1794 0.950 . S
H1771 C1795 0.951 . S
H1772 C1797 0.951 . S
H1773 C1799 0.950 . S
H1774 C1800 0.950 . S
H1775 C1802 0.950 . S
H1776 C1805 0.950 . S
H1777 C1806 0.950 . S
H1778 C1808 0.950 . S
H1779 C1809 0.950 . S
C1780 H1762 0.951 . S
C1780 C1781 1.366 . S
C1780 C1782 1.388 . S
C1781 C1780 1.366 . S
C1781 C1785 1.385 . S
C1782 H1763 0.951 . S
C1782 C1780 1.388 . S
C1782 C1783 1.366 1_655 S
C1783 C1782 1.366 1_455 S
C1783 C1784 1.414 1_455 S
C1783 C1786 1.499 . S
C1784 H1764 0.950 1_655 S
C1784 C1783 1.414 1_655 S
C1784 C1785 1.374 . S
C1785 H1765 0.950 . S
C1785 C1781 1.385 . S
C1785 C1784 1.374 . S
C1786 C1783 1.499 . S
C1786 C1787 1.373 . S
C1786 C1788 1.389 . S
C1787 H1766 0.950 . S
C1787 C1786 1.373 . S
C1787 C1803 1.377 . S
C1788 C1786 1.389 . S
C1788 C1789 1.524 . S
C1788 C1802 1.377 . S
C1789 C1788 1.524 . S
C1789 C1790 1.397 . S
C1789 C1794 1.363 . S
C1790 H1767 0.950 . S
C1790 C1789 1.397 . S
C1790 C1791 1.334 1_455 S
C1791 H1768 0.950 . S
C1791 C1790 1.334 1_655 S
C1791 C1792 1.287 . S
C1792 C1791 1.287 . S
C1792 C1793 1.524 1_655 S
C1792 H1811 0.913 . S
C1793 H1769 0.950 . S
C1793 C1792 1.524 1_455 S
C1793 C1794 1.415 . S
C1794 H1770 0.950 . S
C1794 C1789 1.363 . S
C1794 C1793 1.415 . S
C1795 H1771 0.951 . S
C1795 C1796 1.366 . S
C1795 C1797 1.388 . S
C1796 C1795 1.366 . S
C1796 C1800 1.385 . S
C1797 H1772 0.951 . S
C1797 C1795 1.388 . S
C1797 C1798 1.366 . S
C1798 C1797 1.366 . S
C1798 C1799 1.414 . S
C1798 C1801 1.499 . S
C1799 H1773 0.950 . S
C1799 C1798 1.414 . S
C1799 C1800 1.374 . S
C1800 H1774 0.950 . S
C1800 C1796 1.385 . S
C1800 C1799 1.374 . S
C1801 C1798 1.499 . S
C1801 C1802 1.373 . S
C1801 C1803 1.389 . S
C1802 H1775 0.950 . S
C1802 C1788 1.377 . S
C1802 C1801 1.373 . S
C1803 C1787 1.377 . S
C1803 C1801 1.389 . S
C1803 C1804 1.524 . S
C1804 C1803 1.524 . S
C1804 C1805 1.397 . S
C1804 C1809 1.363 . S
C1805 H1776 0.950 . S
C1805 C1804 1.397 . S
C1805 C1806 1.334 . S
C1806 H1777 0.950 . S
C1806 C1805 1.334 . S
C1806 C1807 1.287 . S
C1807 C1806 1.287 . S
C1807 C1808 1.524 . S
C1807 H1810 0.999 . S
C1808 H1778 0.950 . S
C1808 C1807 1.524 . S
C1808 C1809 1.415 . S
C1809 H1779 0.950 . S
C1809 C1804 1.363 . S
C1809 C1808 1.415 . S
H1810 C1807 0.999 . S
H1811 C1792 0.913 . S
H1812 C1830 0.951 . S
H1813 C1832 0.951 1_655 S
H1814 C1834 0.950 . S
H1815 C1835 0.950 . S
H1816 C1837 0.950 . S
H1817 C1840 0.950 . S
H1818 C1841 0.950 1_455 S
H1819 C1843 0.950 . S
H1820 C1844 0.950 . S
H1821 C1845 0.951 . S
H1822 C1847 0.951 . S
H1823 C1849 0.950 . S
H1824 C1850 0.950 . S
H1825 C1852 0.950 . S
H1826 C1855 0.950 . S
H1827 C1856 0.950 . S
H1828 C1858 0.950 . S
H1829 C1859 0.950 . S
C1830 H1812 0.951 . S
C1830 C1831 1.366 . S
C1830 C1832 1.388 . S
C1831 C1830 1.366 . S
C1831 C1835 1.385 . S
C1832 H1813 0.951 1_455 S
C1832 C1830 1.388 . S
C1832 C1833 1.366 1_455 S
C1833 C1832 1.366 1_655 S
C1833 C1834 1.414 1_655 S
C1833 C1836 1.499 . S
C1834 H1814 0.950 . S
C1834 C1833 1.414 1_455 S
C1834 C1835 1.374 . S
C1835 H1815 0.950 . S
C1835 C1831 1.385 . S
C1835 C1834 1.374 . S
C1836 C1833 1.499 . S
C1836 C1837 1.373 . S
C1836 C1838 1.389 . S
C1837 H1816 0.950 . S
C1837 C1836 1.373 . S
C1837 C1853 1.377 . S
C1838 C1836 1.389 . S
C1838 C1839 1.524 . S
C1838 C1852 1.377 . S
C1839 C1838 1.524 . S
C1839 C1840 1.397 . S
C1839 C1844 1.363 . S
C1840 H1817 0.950 . S
C1840 C1839 1.397 . S
C1840 C1841 1.334 . S
C1841 H1818 0.950 1_655 S
C1841 C1840 1.334 . S
C1841 C1842 1.287 . S
C1842 C1841 1.287 . S
C1842 C1843 1.524 . S
C1842 H1861 0.913 . S
C1843 H1819 0.950 . S
C1843 C1842 1.524 . S
C1843 C1844 1.415 . S
C1844 H1820 0.950 . S
C1844 C1839 1.363 . S
C1844 C1843 1.415 . S
C1845 H1821 0.951 . S
C1845 C1846 1.366 . S
C1845 C1847 1.388 . S
C1846 C1845 1.366 . S
C1846 C1850 1.385 . S
C1847 H1822 0.951 . S
C1847 C1845 1.388 . S
C1847 C1848 1.366 . S
C1848 C1847 1.366 . S
C1848 C1849 1.414 . S
C1848 C1851 1.499 . S
C1849 H1823 0.950 . S
C1849 C1848 1.414 . S
C1849 C1850 1.374 . S
C1850 H1824 0.950 . S
C1850 C1846 1.385 . S
C1850 C1849 1.374 . S
C1851 C1848 1.499 . S
C1851 C1852 1.373 . S
C1851 C1853 1.389 . S
C1852 H1825 0.950 . S
C1852 C1838 1.377 . S
C1852 C1851 1.373 . S
C1853 C1837 1.377 . S
C1853 C1851 1.389 . S
C1853 C1854 1.524 . S
C1854 C1853 1.524 . S
C1854 C1855 1.397 . S
C1854 C1859 1.363 . S
C1855 H1826 0.950 . S
C1855 C1854 1.397 . S
C1855 C1856 1.334 . S
C1856 H1827 0.950 . S
C1856 C1855 1.334 . S
C1856 C1857 1.287 . S
C1857 C1856 1.287 . S
C1857 C1858 1.524 . S
C1857 H1860 0.999 . S
C1858 H1828 0.950 . S
C1858 C1857 1.524 . S
C1858 C1859 1.415 . S
C1859 H1829 0.950 . S
C1859 C1854 1.363 . S
C1859 C1858 1.415 . S
H1860 C1857 0.999 . S
H1861 C1842 0.913 . S
H1862 C1880 0.951 . S
H1863 C1882 0.951 . S
H1864 C1884 0.950 . S
H1865 C1885 0.950 . S
H1866 C1887 0.950 . S
H1867 C1890 0.950 . S
H1868 C1891 0.950 . S
H1869 C1893 0.950 . S
H1870 C1894 0.950 . S
H1871 C1895 0.951 . S
H1872 C1897 0.951 . S
H1873 C1899 0.950 . S
H1874 C1900 0.950 . S
H1875 C1902 0.950 . S
H1876 C1905 0.950 . S
H1877 C1906 0.950 . S
H1878 C1908 0.950 . S
H1879 C1909 0.950 . S
C1880 H1862 0.951 . S
C1880 C1881 1.366 . S
C1880 C1882 1.388 . S
C1881 C1880 1.366 . S
C1881 C1885 1.385 . S
C1882 H1863 0.951 . S
C1882 C1880 1.388 . S
C1882 C1883 1.366 . S
C1883 C1882 1.366 . S
C1883 C1884 1.414 . S
C1883 C1886 1.499 . S
C1884 H1864 0.950 . S
C1884 C1883 1.414 . S
C1884 C1885 1.374 . S
C1885 H1865 0.950 . S
C1885 C1881 1.385 . S
C1885 C1884 1.374 . S
C1886 C1883 1.499 . S
C1886 C1887 1.373 . S
C1886 C1888 1.389 . S
C1887 H1866 0.950 . S
C1887 C1886 1.373 . S
C1887 C1903 1.377 . S
C1888 C1886 1.389 . S
C1888 C1889 1.524 . S
C1888 C1902 1.377 . S
C1889 C1888 1.524 . S
C1889 C1890 1.397 . S
C1889 C1894 1.363 . S
C1890 H1867 0.950 . S
C1890 C1889 1.397 . S
C1890 C1891 1.334 . S
C1891 H1868 0.950 . S
C1891 C1890 1.334 . S
C1891 C1892 1.287 . S
C1892 C1891 1.287 . S
C1892 C1893 1.524 . S
C1892 H1911 0.913 . S
C1893 H1869 0.950 . S
C1893 C1892 1.524 . S
C1893 C1894 1.415 . S
C1894 H1870 0.950 . S
C1894 C1889 1.363 . S
C1894 C1893 1.415 . S
C1895 H1871 0.951 . S
C1895 C1896 1.366 . S
C1895 C1897 1.388 . S
C1896 C1895 1.366 . S
C1896 C1900 1.385 . S
C1897 H1872 0.951 . S
C1897 C1895 1.388 . S
C1897 C1898 1.366 . S
C1898 C1897 1.366 . S
C1898 C1899 1.414 . S
C1898 C1901 1.499 . S
C1899 H1873 0.950 . S
C1899 C1898 1.414 . S
C1899 C1900 1.374 . S
C1900 H1874 0.950 . S
C1900 C1896 1.385 . S
C1900 C1899 1.374 . S
C1901 C1898 1.499 . S
C1901 C1902 1.373 . S
C1901 C1903 1.389 . S
C1902 H1875 0.950 . S
C1902 C1888 1.377 . S
C1902 C1901 1.373 . S
C1903 C1887 1.377 . S
C1903 C1901 1.389 . S
C1903 C1904 1.524 . S
C1904 C1903 1.524 . S
C1904 C1905 1.397 . S
C1904 C1909 1.363 . S
C1905 H1876 0.950 . S
C1905 C1904 1.397 . S
C1905 C1906 1.334 . S
C1906 H1877 0.950 . S
C1906 C1905 1.334 . S
C1906 C1907 1.287 . S
C1907 C1906 1.287 . S
C1907 C1908 1.524 . S
C1907 H1910 0.999 . S
C1908 H1878 0.950 . S
C1908 C1907 1.524 . S
C1908 C1909 1.415 . S
C1909 H1879 0.950 . S
C1909 C1904 1.363 . S
C1909 C1908 1.415 . S
H1910 C1907 0.999 . S
H1911 C1892 0.913 . S
H1912 C1930 0.951 . S
H1913 C1932 0.951 . S
H1914 C1934 0.950 . S
H1915 C1935 0.950 . S
H1916 C1937 0.950 . S
H1917 C1940 0.950 . S
H1918 C1941 0.950 . S
H1919 C1943 0.950 . S
H1920 C1944 0.950 . S
H1921 C1945 0.951 . S
H1922 C1947 0.951 . S
H1923 C1949 0.950 . S
H1924 C1950 0.950 . S
H1925 C1952 0.950 . S
H1926 C1955 0.950 . S
H1927 C1956 0.950 . S
H1928 C1958 0.950 . S
H1929 C1959 0.950 . S
C1930 H1912 0.951 . S
C1930 C1931 1.366 . S
C1930 C1932 1.388 . S
C1931 C1930 1.366 . S
C1931 C1935 1.385 . S
C1932 H1913 0.951 . S
C1932 C1930 1.388 . S
C1932 C1933 1.366 . S
C1933 C1932 1.366 . S
C1933 C1934 1.414 . S
C1933 C1936 1.499 . S
C1934 H1914 0.950 . S
C1934 C1933 1.414 . S
C1934 C1935 1.374 . S
C1935 H1915 0.950 . S
C1935 C1931 1.385 . S
C1935 C1934 1.374 . S
C1936 C1933 1.499 . S
C1936 C1937 1.373 . S
C1936 C1938 1.389 . S
C1937 H1916 0.950 . S
C1937 C1936 1.373 . S
C1937 C1953 1.377 . S
C1938 C1936 1.389 . S
C1938 C1939 1.524 . S
C1938 C1952 1.377 . S
C1939 C1938 1.524 . S
C1939 C1940 1.397 . S
C1939 C1944 1.363 . S
C1940 H1917 0.950 . S
C1940 C1939 1.397 . S
C1940 C1941 1.334 . S
C1941 H1918 0.950 . S
C1941 C1940 1.334 . S
C1941 C1942 1.287 . S
C1942 C1941 1.287 . S
C1942 C1943 1.524 . S
C1942 H1961 0.913 . S
C1943 H1919 0.950 . S
C1943 C1942 1.524 . S
C1943 C1944 1.415 . S
C1944 H1920 0.950 . S
C1944 C1939 1.363 . S
C1944 C1943 1.415 . S
C1945 H1921 0.951 . S
C1945 C1946 1.366 . S
C1945 C1947 1.388 . S
C1946 C1945 1.366 . S
C1946 C1950 1.385 . S
C1947 H1922 0.951 . S
C1947 C1945 1.388 . S
C1947 C1948 1.366 . S
C1948 C1947 1.366 . S
C1948 C1949 1.414 . S
C1948 C1951 1.499 . S
C1949 H1923 0.950 . S
C1949 C1948 1.414 . S
C1949 C1950 1.374 . S
C1950 H1924 0.950 . S
C1950 C1946 1.385 . S
C1950 C1949 1.374 . S
C1951 C1948 1.499 . S
C1951 C1952 1.373 . S
C1951 C1953 1.389 . S
C1952 H1925 0.950 . S
C1952 C1938 1.377 . S
C1952 C1951 1.373 . S
C1953 C1937 1.377 . S
C1953 C1951 1.389 . S
C1953 C1954 1.524 . S
C1954 C1953 1.524 . S
C1954 C1955 1.397 . S
C1954 C1959 1.363 . S
C1955 H1926 0.950 . S
C1955 C1954 1.397 . S
C1955 C1956 1.334 . S
C1956 H1927 0.950 . S
C1956 C1955 1.334 . S
C1956 C1957 1.287 . S
C1957 C1956 1.287 . S
C1957 C1958 1.524 . S
C1957 H1960 0.999 . S
C1958 H1928 0.950 . S
C1958 C1957 1.524 . S
C1958 C1959 1.415 . S
C1959 H1929 0.950 . S
C1959 C1954 1.363 . S
C1959 C1958 1.415 . S
H1960 C1957 0.999 . S
H1961 C1942 0.913 . S
H1962 C1980 0.951 . S
H1963 C1982 0.951 1_545 S
H1964 C1984 0.950 . S
H1965 C1985 0.950 . S
H1966 C1987 0.950 . S
H1967 C1990 0.950 . S
H1968 C1991 0.950 . S
H1969 C1993 0.950 . S
H1970 C1994 0.950 . S
H1971 C1995 0.951 . S
H1972 C1997 0.951 . S
H1973 C1999 0.950 . S
H1974 C2000 0.950 . S
H1975 C2002 0.950 . S
H1976 C2005 0.950 . S
H1977 C2006 0.950 . S
H1978 C2008 0.950 . S
H1979 C2009 0.950 . S
C1980 H1962 0.951 . S
C1980 C1981 1.366 . S
C1980 C1982 1.388 . S
C1981 C1980 1.366 . S
C1981 C1985 1.385 . S
C1982 H1963 0.951 1_565 S
C1982 C1980 1.388 . S
C1982 C1983 1.366 1_565 S
C1983 C1982 1.366 1_545 S
C1983 C1984 1.414 . S
C1983 C1986 1.499 . S
C1984 H1964 0.950 . S
C1984 C1983 1.414 . S
C1984 C1985 1.374 1_545 S
C1985 H1965 0.950 . S
C1985 C1981 1.385 . S
C1985 C1984 1.374 1_565 S
C1986 C1983 1.499 . S
C1986 C1987 1.373 . S
C1986 C1988 1.389 . S
C1987 H1966 0.950 . S
C1987 C1986 1.373 . S
C1987 C2003 1.377 . S
C1988 C1986 1.389 . S
C1988 C1989 1.524 . S
C1988 C2002 1.377 . S
C1989 C1988 1.524 . S
C1989 C1990 1.397 . S
C1989 C1994 1.363 . S
C1990 H1967 0.950 . S
C1990 C1989 1.397 . S
C1990 C1991 1.334 . S
C1991 H1968 0.950 . S
C1991 C1990 1.334 . S
C1991 C1992 1.287 . S
C1992 C1991 1.287 . S
C1992 C1993 1.524 . S
C1992 H2011 0.913 . S
C1993 H1969 0.950 . S
C1993 C1992 1.524 . S
C1993 C1994 1.415 . S
C1994 H1970 0.950 . S
C1994 C1989 1.363 . S
C1994 C1993 1.415 . S
C1995 H1971 0.951 . S
C1995 C1996 1.366 . S
C1995 C1997 1.388 . S
C1996 C1995 1.366 . S
C1996 C2000 1.385 . S
C1997 H1972 0.951 . S
C1997 C1995 1.388 . S
C1997 C1998 1.366 . S
C1998 C1997 1.366 . S
C1998 C1999 1.414 . S
C1998 C2001 1.499 . S
C1999 H1973 0.950 . S
C1999 C1998 1.414 . S
C1999 C2000 1.374 . S
C2000 H1974 0.950 . S
C2000 C1996 1.385 . S
C2000 C1999 1.374 . S
C2001 C1998 1.499 . S
C2001 C2002 1.373 . S
C2001 C2003 1.389 . S
C2002 H1975 0.950 . S
C2002 C1988 1.377 . S
C2002 C2001 1.373 . S
C2003 C1987 1.377 . S
C2003 C2001 1.389 . S
C2003 C2004 1.524 . S
C2004 C2003 1.524 . S
C2004 C2005 1.397 . S
C2004 C2009 1.363 . S
C2005 H1976 0.950 . S
C2005 C2004 1.397 . S
C2005 C2006 1.334 . S
C2006 H1977 0.950 . S
C2006 C2005 1.334 . S
C2006 C2007 1.287 . S
C2007 C2006 1.287 . S
C2007 C2008 1.524 . S
C2007 H2010 0.999 . S
C2008 H1978 0.950 . S
C2008 C2007 1.524 . S
C2008 C2009 1.415 . S
C2009 H1979 0.950 . S
C2009 C2004 1.363 . S
C2009 C2008 1.415 . S
H2010 C2007 0.999 . S
H2011 C1992 0.913 . S
H2012 C2030 0.951 . S
H2013 C2032 0.951 . S
H2014 C2034 0.950 1_565 S
H2015 C2035 0.950 . S
H2016 C2037 0.950 . S
H2017 C2040 0.950 . S
H2018 C2041 0.950 . S
H2019 C2043 0.950 . S
H2020 C2044 0.950 . S
H2021 C2045 0.951 . S
H2022 C2047 0.951 . S
H2023 C2049 0.950 . S
H2024 C2050 0.950 . S
H2025 C2052 0.950 . S
H2026 C2055 0.950 . S
H2027 C2056 0.950 . S
H2028 C2058 0.950 . S
H2029 C2059 0.950 . S
C2030 H2012 0.951 . S
C2030 C2031 1.366 . S
C2030 C2032 1.388 1_545 S
C2031 C2030 1.366 . S
C2031 C2035 1.385 . S
C2032 H2013 0.951 . S
C2032 C2030 1.388 1_565 S
C2032 C2033 1.366 . S
C2033 C2032 1.366 . S
C2033 C2034 1.414 1_565 S
C2033 C2036 1.499 . S
C2034 H2014 0.950 1_545 S
C2034 C2033 1.414 1_545 S
C2034 C2035 1.374 . S
C2035 H2015 0.950 . S
C2035 C2031 1.385 . S
C2035 C2034 1.374 . S
C2036 C2033 1.499 . S
C2036 C2037 1.373 . S
C2036 C2038 1.389 . S
C2037 H2016 0.950 . S
C2037 C2036 1.373 . S
C2037 C2053 1.377 . S
C2038 C2036 1.389 . S
C2038 C2039 1.524 . S
C2038 C2052 1.377 . S
C2039 C2038 1.524 . S
C2039 C2040 1.397 . S
C2039 C2044 1.363 . S
C2040 H2017 0.950 . S
C2040 C2039 1.397 . S
C2040 C2041 1.334 . S
C2041 H2018 0.950 . S
C2041 C2040 1.334 . S
C2041 C2042 1.287 . S
C2042 C2041 1.287 . S
C2042 C2043 1.524 . S
C2042 H2061 0.913 . S
C2043 H2019 0.950 . S
C2043 C2042 1.524 . S
C2043 C2044 1.415 . S
C2044 H2020 0.950 . S
C2044 C2039 1.363 . S
C2044 C2043 1.415 . S
C2045 H2021 0.951 . S
C2045 C2046 1.366 . S
C2045 C2047 1.388 . S
C2046 C2045 1.366 . S
C2046 C2050 1.385 . S
C2047 H2022 0.951 . S
C2047 C2045 1.388 . S
C2047 C2048 1.366 . S
C2048 C2047 1.366 . S
C2048 C2049 1.414 . S
C2048 C2051 1.499 . S
C2049 H2023 0.950 . S
C2049 C2048 1.414 . S
C2049 C2050 1.374 . S
C2050 H2024 0.950 . S
C2050 C2046 1.385 . S
C2050 C2049 1.374 . S
C2051 C2048 1.499 . S
C2051 C2052 1.373 . S
C2051 C2053 1.389 . S
C2052 H2025 0.950 . S
C2052 C2038 1.377 . S
C2052 C2051 1.373 . S
C2053 C2037 1.377 . S
C2053 C2051 1.389 . S
C2053 C2054 1.524 . S
C2054 C2053 1.524 . S
C2054 C2055 1.397 . S
C2054 C2059 1.363 . S
C2055 H2026 0.950 . S
C2055 C2054 1.397 . S
C2055 C2056 1.334 . S
C2056 H2027 0.950 . S
C2056 C2055 1.334 . S
C2056 C2057 1.287 . S
C2057 C2056 1.287 . S
C2057 C2058 1.524 . S
C2057 H2060 0.999 . S
C2058 H2028 0.950 . S
C2058 C2057 1.524 . S
C2058 C2059 1.415 . S
C2059 H2029 0.950 . S
C2059 C2054 1.363 . S
C2059 C2058 1.415 . S
H2060 C2057 0.999 . S
H2061 C2042 0.913 . S
H2062 C2080 0.951 . S
H2063 C2082 0.951 . S
H2064 C2084 0.950 . S
H2065 C2085 0.950 . S
H2066 C2087 0.950 . S
H2067 C2090 0.950 . S
H2068 C2091 0.950 . S
H2069 C2093 0.950 . S
H2070 C2094 0.950 . S
H2071 C2095 0.951 . S
H2072 C2097 0.951 . S
H2073 C2099 0.950 . S
H2074 C2100 0.950 . S
H2075 C2102 0.950 . S
H2076 C2105 0.950 . S
H2077 C2106 0.950 . S
H2078 C2108 0.950 . S
H2079 C2109 0.950 . S
C2080 H2062 0.951 . S
C2080 C2081 1.366 . S
C2080 C2082 1.388 . S
C2081 C2080 1.366 . S
C2081 C2085 1.385 . S
C2082 H2063 0.951 . S
C2082 C2080 1.388 . S
C2082 C2083 1.366 . S
C2083 C2082 1.366 . S
C2083 C2084 1.414 . S
C2083 C2086 1.499 . S
C2084 H2064 0.950 . S
C2084 C2083 1.414 . S
C2084 C2085 1.374 . S
C2085 H2065 0.950 . S
C2085 C2081 1.385 . S
C2085 C2084 1.374 . S
C2086 C2083 1.499 . S
C2086 C2087 1.373 . S
C2086 C2088 1.389 . S
C2087 H2066 0.950 . S
C2087 C2086 1.373 . S
C2087 C2103 1.377 . S
C2088 C2086 1.389 . S
C2088 C2089 1.524 . S
C2088 C2102 1.377 . S
C2089 C2088 1.524 . S
C2089 C2090 1.397 . S
C2089 C2094 1.363 . S
C2090 H2067 0.950 . S
C2090 C2089 1.397 . S
C2090 C2091 1.334 . S
C2091 H2068 0.950 . S
C2091 C2090 1.334 . S
C2091 C2092 1.287 . S
C2092 C2091 1.287 . S
C2092 C2093 1.524 . S
C2092 H2111 0.913 . S
C2093 H2069 0.950 . S
C2093 C2092 1.524 . S
C2093 C2094 1.415 . S
C2094 H2070 0.950 . S
C2094 C2089 1.363 . S
C2094 C2093 1.415 . S
C2095 H2071 0.951 . S
C2095 C2096 1.366 . S
C2095 C2097 1.388 . S
C2096 C2095 1.366 . S
C2096 C2100 1.385 . S
C2097 H2072 0.951 . S
C2097 C2095 1.388 . S
C2097 C2098 1.366 . S
C2098 C2097 1.366 . S
C2098 C2099 1.414 . S
C2098 C2101 1.499 . S
C2099 H2073 0.950 . S
C2099 C2098 1.414 . S
C2099 C2100 1.374 . S
C2100 H2074 0.950 . S
C2100 C2096 1.385 . S
C2100 C2099 1.374 . S
C2101 C2098 1.499 . S
C2101 C2102 1.373 . S
C2101 C2103 1.389 . S
C2102 H2075 0.950 . S
C2102 C2088 1.377 . S
C2102 C2101 1.373 . S
C2103 C2087 1.377 . S
C2103 C2101 1.389 . S
C2103 C2104 1.524 . S
C2104 C2103 1.524 . S
C2104 C2105 1.397 . S
C2104 C2109 1.363 . S
C2105 H2076 0.950 . S
C2105 C2104 1.397 . S
C2105 C2106 1.334 . S
C2106 H2077 0.950 . S
C2106 C2105 1.334 . S
C2106 C2107 1.287 . S
C2107 C2106 1.287 . S
C2107 C2108 1.524 . S
C2107 H2110 0.999 . S
C2108 H2078 0.950 . S
C2108 C2107 1.524 . S
C2108 C2109 1.415 . S
C2109 H2079 0.950 . S
C2109 C2104 1.363 . S
C2109 C2108 1.415 . S
H2110 C2107 0.999 . S
H2111 C2092 0.913 . S
H2112 C2130 0.951 . S
H2113 C2132 0.951 . S
H2114 C2134 0.950 . S
H2115 C2135 0.950 . S
H2116 C2137 0.950 . S
H2117 C2140 0.950 . S
H2118 C2141 0.950 . S
H2119 C2143 0.950 . S
H2120 C2144 0.950 . S
H2121 C2145 0.951 . S
H2122 C2147 0.951 . S
H2123 C2149 0.950 . S
H2124 C2150 0.950 . S
H2125 C2152 0.950 . S
H2126 C2155 0.950 . S
H2127 C2156 0.950 . S
H2128 C2158 0.950 . S
H2129 C2159 0.950 . S
C2130 H2112 0.951 . S
C2130 C2131 1.366 . S
C2130 C2132 1.388 . S
C2131 C2130 1.366 . S
C2131 C2135 1.385 . S
C2132 H2113 0.951 . S
C2132 C2130 1.388 . S
C2132 C2133 1.366 . S
C2133 C2132 1.366 . S
C2133 C2134 1.414 . S
C2133 C2136 1.499 . S
C2134 H2114 0.950 . S
C2134 C2133 1.414 . S
C2134 C2135 1.374 . S
C2135 H2115 0.950 . S
C2135 C2131 1.385 . S
C2135 C2134 1.374 . S
C2136 C2133 1.499 . S
C2136 C2137 1.373 . S
C2136 C2138 1.389 . S
C2137 H2116 0.950 . S
C2137 C2136 1.373 . S
C2137 C2153 1.377 . S
C2138 C2136 1.389 . S
C2138 C2139 1.524 . S
C2138 C2152 1.377 . S
C2139 C2138 1.524 . S
C2139 C2140 1.397 . S
C2139 C2144 1.363 . S
C2140 H2117 0.950 . S
C2140 C2139 1.397 . S
C2140 C2141 1.334 . S
C2141 H2118 0.950 . S
C2141 C2140 1.334 . S
C2141 C2142 1.287 . S
C2142 C2141 1.287 . S
C2142 C2143 1.524 . S
C2142 H2161 0.913 . S
C2143 H2119 0.950 . S
C2143 C2142 1.524 . S
C2143 C2144 1.415 . S
C2144 H2120 0.950 . S
C2144 C2139 1.363 . S
C2144 C2143 1.415 . S
C2145 H2121 0.951 . S
C2145 C2146 1.366 . S
C2145 C2147 1.388 . S
C2146 C2145 1.366 . S
C2146 C2150 1.385 . S
C2147 H2122 0.951 . S
C2147 C2145 1.388 . S
C2147 C2148 1.366 . S
C2148 C2147 1.366 . S
C2148 C2149 1.414 . S
C2148 C2151 1.499 . S
C2149 H2123 0.950 . S
C2149 C2148 1.414 . S
C2149 C2150 1.374 . S
C2150 H2124 0.950 . S
C2150 C2146 1.385 . S
C2150 C2149 1.374 . S
C2151 C2148 1.499 . S
C2151 C2152 1.373 . S
C2151 C2153 1.389 . S
C2152 H2125 0.950 . S
C2152 C2138 1.377 . S
C2152 C2151 1.373 . S
C2153 C2137 1.377 . S
C2153 C2151 1.389 . S
C2153 C2154 1.524 . S
C2154 C2153 1.524 . S
C2154 C2155 1.397 . S
C2154 C2159 1.363 . S
C2155 H2126 0.950 . S
C2155 C2154 1.397 . S
C2155 C2156 1.334 . S
C2156 H2127 0.950 . S
C2156 C2155 1.334 . S
C2156 C2157 1.287 . S
C2157 C2156 1.287 . S
C2157 C2158 1.524 . S
C2157 H2160 0.999 . S
C2158 H2128 0.950 . S
C2158 C2157 1.524 . S
C2158 C2159 1.415 . S
C2159 H2129 0.950 . S
C2159 C2154 1.363 . S
C2159 C2158 1.415 . S
H2160 C2157 0.999 . S
H2161 C2142 0.913 . S
H2162 C2180 0.951 . S
H2163 C2182 0.951 1_554 S
H2164 C2184 0.950 . S
H2165 C2185 0.950 . S
H2166 C2187 0.950 . S
H2167 C2190 0.950 . S
H2168 C2191 0.950 . S
H2169 C2193 0.950 . S
H2170 C2194 0.950 . S
H2171 C2195 0.951 . S
H2172 C2197 0.951 . S
H2173 C2199 0.950 . S
H2174 C2200 0.950 . S
H2175 C2202 0.950 . S
H2176 C2205 0.950 . S
H2177 C2206 0.950 . S
H2178 C2208 0.950 . S
H2179 C2209 0.950 . S
C2180 H2162 0.951 . S
C2180 C2181 1.366 . S
C2180 C2182 1.388 . S
C2181 C2180 1.366 . S
C2181 C2185 1.385 . S
C2182 H2163 0.951 1_556 S
C2182 C2180 1.388 . S
C2182 C2183 1.366 1_556 S
C2183 C2182 1.366 1_554 S
C2183 C2184 1.414 . S
C2183 C2186 1.499 . S
C2184 H2164 0.950 . S
C2184 C2183 1.414 . S
C2184 C2185 1.374 1_554 S
C2185 H2165 0.950 . S
C2185 C2181 1.385 . S
C2185 C2184 1.374 1_556 S
C2186 C2183 1.499 . S
C2186 C2187 1.373 . S
C2186 C2188 1.389 . S
C2187 H2166 0.950 . S
C2187 C2186 1.373 . S
C2187 C2203 1.377 . S
C2188 C2186 1.389 . S
C2188 C2189 1.524 . S
C2188 C2202 1.377 . S
C2189 C2188 1.524 . S
C2189 C2190 1.397 . S
C2189 C2194 1.363 . S
C2190 H2167 0.950 . S
C2190 C2189 1.397 . S
C2190 C2191 1.334 1_554 S
C2191 H2168 0.950 . S
C2191 C2190 1.334 1_556 S
C2191 C2192 1.287 . S
C2192 C2191 1.287 . S
C2192 C2193 1.515 1_556 S
C2192 H2211 0.924 . S
C2193 H2169 0.950 . S
C2193 C2192 1.515 1_554 S
C2193 C2194 1.415 . S
C2194 H2170 0.950 . S
C2194 C2189 1.363 . S
C2194 C2193 1.415 . S
C2195 H2171 0.951 . S
C2195 C2196 1.366 . S
C2195 C2197 1.388 . S
C2196 C2195 1.366 . S
C2196 C2200 1.385 . S
C2197 H2172 0.951 . S
C2197 C2195 1.388 . S
C2197 C2198 1.366 . S
C2198 C2197 1.366 . S
C2198 C2199 1.414 . S
C2198 C2201 1.499 . S
C2199 H2173 0.950 . S
C2199 C2198 1.414 . S
C2199 C2200 1.374 . S
C2200 H2174 0.950 . S
C2200 C2196 1.385 . S
C2200 C2199 1.374 . S
C2201 C2198 1.499 . S
C2201 C2202 1.373 . S
C2201 C2203 1.389 . S
C2202 H2175 0.950 . S
C2202 C2188 1.377 . S
C2202 C2201 1.373 . S
C2203 C2187 1.377 . S
C2203 C2201 1.389 . S
C2203 C2204 1.524 . S
C2204 C2203 1.524 . S
C2204 C2205 1.397 . S
C2204 C2209 1.363 . S
C2205 H2176 0.950 . S
C2205 C2204 1.397 . S
C2205 C2206 1.334 . S
C2206 H2177 0.950 . S
C2206 C2205 1.334 . S
C2206 C2207 1.287 . S
C2207 C2206 1.287 . S
C2207 C2208 1.524 . S
C2207 H2210 0.999 . S
C2208 H2178 0.950 . S
C2208 C2207 1.524 . S
C2208 C2209 1.415 . S
C2209 H2179 0.950 . S
C2209 C2204 1.363 . S
C2209 C2208 1.415 . S
H2210 C2207 0.999 . S
H2211 C2192 0.924 . S
H2212 C2230 0.951 . S
H2213 C2232 0.951 . S
H2214 C2234 0.950 . S
H2215 C2235 0.950 . S
H2216 C2237 0.950 . S
H2217 C2240 0.950 . S
H2218 C2241 0.950 . S
H2219 C2243 0.950 . S
H2220 C2244 0.950 . S
H2221 C2245 0.951 . S
H2222 C2247 0.951 . S
H2223 C2249 0.950 . S
H2224 C2250 0.950 . S
H2225 C2252 0.950 . S
H2226 C2255 0.950 . S
H2227 C2256 0.950 . S
H2228 C2258 0.950 . S
H2229 C2259 0.950 . S
C2230 H2212 0.951 . S
C2230 C2231 1.366 . S
C2230 C2232 1.388 . S
C2231 C2230 1.366 . S
C2231 C2235 1.385 . S
C2232 H2213 0.951 . S
C2232 C2230 1.388 . S
C2232 C2233 1.366 . S
C2233 C2232 1.366 . S
C2233 C2234 1.414 . S
C2233 C2236 1.499 . S
C2234 H2214 0.950 . S
C2234 C2233 1.414 . S
C2234 C2235 1.374 . S
C2235 H2215 0.950 . S
C2235 C2231 1.385 . S
C2235 C2234 1.374 . S
C2236 C2233 1.499 . S
C2236 C2237 1.373 . S
C2236 C2238 1.389 . S
C2237 H2216 0.950 . S
C2237 C2236 1.373 . S
C2237 C2253 1.377 . S
C2238 C2236 1.389 . S
C2238 C2239 1.524 . S
C2238 C2252 1.377 . S
C2239 C2238 1.524 . S
C2239 C2240 1.397 . S
C2239 C2244 1.363 . S
C2240 H2217 0.950 . S
C2240 C2239 1.397 . S
C2240 C2241 1.334 . S
C2241 H2218 0.950 . S
C2241 C2240 1.334 . S
C2241 C2242 1.287 . S
C2242 C2241 1.287 . S
C2242 C2243 1.524 . S
C2242 H2261 0.913 . S
C2243 H2219 0.950 . S
C2243 C2242 1.524 . S
C2243 C2244 1.415 . S
C2244 H2220 0.950 . S
C2244 C2239 1.363 . S
C2244 C2243 1.415 . S
C2245 H2221 0.951 . S
C2245 C2246 1.366 . S
C2245 C2247 1.388 . S
C2246 C2245 1.366 . S
C2246 C2250 1.385 . S
C2247 H2222 0.951 . S
C2247 C2245 1.388 . S
C2247 C2248 1.366 . S
C2248 C2247 1.366 . S
C2248 C2249 1.414 . S
C2248 C2251 1.499 . S
C2249 H2223 0.950 . S
C2249 C2248 1.414 . S
C2249 C2250 1.374 . S
C2250 H2224 0.950 . S
C2250 C2246 1.385 . S
C2250 C2249 1.374 . S
C2251 C2248 1.499 . S
C2251 C2252 1.373 . S
C2251 C2253 1.389 . S
C2252 H2225 0.950 . S
C2252 C2238 1.377 . S
C2252 C2251 1.373 . S
C2253 C2237 1.377 . S
C2253 C2251 1.389 . S
C2253 C2254 1.524 . S
C2254 C2253 1.524 . S
C2254 C2255 1.397 . S
C2254 C2259 1.363 . S
C2255 H2226 0.950 . S
C2255 C2254 1.397 . S
C2255 C2256 1.334 . S
C2256 H2227 0.950 . S
C2256 C2255 1.334 . S
C2256 C2257 1.287 . S
C2257 C2256 1.287 . S
C2257 C2258 1.524 . S
C2257 H2260 0.999 . S
C2258 H2228 0.950 . S
C2258 C2257 1.524 . S
C2258 C2259 1.415 . S
C2259 H2229 0.950 . S
C2259 C2254 1.363 . S
C2259 C2258 1.415 . S
H2260 C2257 0.999 . S
H2261 C2242 0.913 . S
H2262 C2280 0.951 . S
H2263 C2282 0.951 . S
H2264 C2284 0.950 1_556 S
H2265 C2285 0.950 . S
H2266 C2287 0.950 . S
H2267 C2290 0.950 . S
H2268 C2291 0.950 1_554 S
H2269 C2293 0.950 . S
H2270 C2294 0.950 . S
H2271 C2295 0.951 . S
H2272 C2297 0.951 . S
H2273 C2299 0.950 . S
H2274 C2300 0.950 . S
H2275 C2302 0.950 . S
H2276 C2305 0.950 . S
H2277 C2306 0.950 . S
H2278 C2308 0.950 . S
H2279 C2309 0.950 . S
C2280 H2262 0.951 . S
C2280 C2281 1.366 . S
C2280 C2282 1.388 1_554 S
C2281 C2280 1.366 . S
C2281 C2285 1.385 . S
C2282 H2263 0.951 . S
C2282 C2280 1.388 1_556 S
C2282 C2283 1.366 . S
C2283 C2282 1.366 . S
C2283 C2284 1.414 1_556 S
C2283 C2286 1.499 . S
C2284 H2264 0.950 1_554 S
C2284 C2283 1.414 1_554 S
C2284 C2285 1.374 . S
C2285 H2265 0.950 . S
C2285 C2281 1.385 . S
C2285 C2284 1.374 . S
C2286 C2283 1.499 . S
C2286 C2287 1.373 . S
C2286 C2288 1.389 . S
C2287 H2266 0.950 . S
C2287 C2286 1.373 . S
C2287 C2303 1.377 . S
C2288 C2286 1.389 . S
C2288 C2289 1.524 . S
C2288 C2302 1.377 . S
C2289 C2288 1.524 . S
C2289 C2290 1.397 . S
C2289 C2294 1.363 . S
C2290 H2267 0.950 . S
C2290 C2289 1.397 . S
C2290 C2291 1.334 . S
C2291 H2268 0.950 1_556 S
C2291 C2290 1.334 . S
C2291 C2292 1.287 . S
C2292 C2291 1.287 . S
C2292 C2293 1.524 . S
C2292 H2311 0.913 . S
C2293 H2269 0.950 . S
C2293 C2292 1.524 . S
C2293 C2294 1.415 . S
C2294 H2270 0.950 . S
C2294 C2289 1.363 . S
C2294 C2293 1.415 . S
C2295 H2271 0.951 . S
C2295 C2296 1.366 . S
C2295 C2297 1.388 . S
C2296 C2295 1.366 . S
C2296 C2300 1.385 . S
C2297 H2272 0.951 . S
C2297 C2295 1.388 . S
C2297 C2298 1.366 . S
C2298 C2297 1.366 . S
C2298 C2299 1.414 . S
C2298 C2301 1.499 . S
C2299 H2273 0.950 . S
C2299 C2298 1.414 . S
C2299 C2300 1.374 . S
C2300 H2274 0.950 . S
C2300 C2296 1.385 . S
C2300 C2299 1.374 . S
C2301 C2298 1.499 . S
C2301 C2302 1.373 . S
C2301 C2303 1.389 . S
C2302 H2275 0.950 . S
C2302 C2288 1.377 . S
C2302 C2301 1.373 . S
C2303 C2287 1.377 . S
C2303 C2301 1.389 . S
C2303 C2304 1.524 . S
C2304 C2303 1.524 . S
C2304 C2305 1.397 . S
C2304 C2309 1.363 . S
C2305 H2276 0.950 . S
C2305 C2304 1.397 . S
C2305 C2306 1.334 . S
C2306 H2277 0.950 . S
C2306 C2305 1.334 . S
C2306 C2307 1.287 . S
C2307 C2306 1.287 . S
C2307 C2308 1.524 . S
C2307 H2310 0.999 . S
C2308 H2278 0.950 . S
C2308 C2307 1.524 . S
C2308 C2309 1.415 . S
C2309 H2279 0.950 . S
C2309 C2304 1.363 . S
C2309 C2308 1.415 . S
H2310 C2307 0.999 . S
H2311 C2292 0.913 . S
H2312 C2330 0.951 . S
H2313 C2332 0.951 . S
H2314 C2334 0.950 . S
H2315 C2335 0.950 . S
H2316 C2337 0.950 . S
H2317 C2340 0.950 . S
H2318 C2341 0.950 . S
H2319 C2343 0.950 . S
H2320 C2344 0.950 . S
H2321 C2345 0.951 . S
H2322 C2347 0.951 . S
H2323 C2349 0.950 . S
H2324 C2350 0.950 . S
H2325 C2352 0.950 . S
H2326 C2355 0.950 . S
H2327 C2356 0.950 . S
H2328 C2358 0.950 . S
H2329 C2359 0.950 . S
C2330 H2312 0.951 . S
C2330 C2331 1.366 . S
C2330 C2332 1.388 . S
C2331 C2330 1.366 . S
C2331 C2335 1.385 . S
C2332 H2313 0.951 . S
C2332 C2330 1.388 . S
C2332 C2333 1.366 . S
C2333 C2332 1.366 . S
C2333 C2334 1.414 . S
C2333 C2336 1.499 . S
C2334 H2314 0.950 . S
C2334 C2333 1.414 . S
C2334 C2335 1.374 . S
C2335 H2315 0.950 . S
C2335 C2331 1.385 . S
C2335 C2334 1.374 . S
C2336 C2333 1.499 . S
C2336 C2337 1.373 . S
C2336 C2338 1.389 . S
C2337 H2316 0.950 . S
C2337 C2336 1.373 . S
C2337 C2353 1.377 . S
C2338 C2336 1.389 . S
C2338 C2339 1.524 . S
C2338 C2352 1.377 . S
C2339 C2338 1.524 . S
C2339 C2340 1.397 . S
C2339 C2344 1.363 . S
C2340 H2317 0.950 . S
C2340 C2339 1.397 . S
C2340 C2341 1.334 . S
C2341 H2318 0.950 . S
C2341 C2340 1.334 . S
C2341 C2342 1.287 . S
C2342 C2341 1.287 . S
C2342 C2343 1.524 . S
C2342 H2361 0.913 . S
C2343 H2319 0.950 . S
C2343 C2342 1.524 . S
C2343 C2344 1.415 . S
C2344 H2320 0.950 . S
C2344 C2339 1.363 . S
C2344 C2343 1.415 . S
C2345 H2321 0.951 . S
C2345 C2346 1.366 . S
C2345 C2347 1.388 . S
C2346 C2345 1.366 . S
C2346 C2350 1.385 . S
C2347 H2322 0.951 . S
C2347 C2345 1.388 . S
C2347 C2348 1.366 . S
C2348 C2347 1.366 . S
C2348 C2349 1.414 . S
C2348 C2351 1.499 . S
C2349 H2323 0.950 . S
C2349 C2348 1.414 . S
C2349 C2350 1.374 . S
C2350 H2324 0.950 . S
C2350 C2346 1.385 . S
C2350 C2349 1.374 . S
C2351 C2348 1.499 . S
C2351 C2352 1.373 . S
C2351 C2353 1.389 . S
C2352 H2325 0.950 . S
C2352 C2338 1.377 . S
C2352 C2351 1.373 . S
C2353 C2337 1.377 . S
C2353 C2351 1.389 . S
C2353 C2354 1.524 . S
C2354 C2353 1.524 . S
C2354 C2355 1.397 . S
C2354 C2359 1.363 . S
C2355 H2326 0.950 . S
C2355 C2354 1.397 . S
C2355 C2356 1.334 . S
C2356 H2327 0.950 . S
C2356 C2355 1.334 . S
C2356 C2357 1.287 . S
C2357 C2356 1.287 . S
C2357 C2358 1.524 . S
C2357 H2360 0.999 . S
C2358 H2328 0.950 . S
C2358 C2357 1.524 . S
C2358 C2359 1.415 . S
C2359 H2329 0.950 . S
C2359 C2354 1.363 . S
C2359 C2358 1.415 . S
H2360 C2357 0.999 . S
H2361 C2342 0.913 . S
H2362 C2380 0.951 . S
H2363 C2382 0.951 . S
H2364 C2384 0.950 . S
H2365 C2385 0.950 . S
H2366 C2387 0.950 . S
H2367 C2390 0.950 . S
H2368 C2391 0.950 . S
H2369 C2393 0.950 . S
H2370 C2394 0.950 . S
H2371 C2395 0.951 . S
H2372 C2397 0.951 . S
H2373 C2399 0.950 . S
H2374 C2400 0.950 . S
H2375 C2402 0.950 . S
H2376 C2405 0.950 . S
H2377 C2406 0.950 . S
H2378 C2408 0.950 . S
H2379 C2409 0.950 . S
C2380 H2362 0.951 . S
C2380 C2381 1.366 . S
C2380 C2382 1.388 . S
C2381 C2380 1.366 . S
C2381 C2385 1.385 . S
C2382 H2363 0.951 . S
C2382 C2380 1.388 . S
C2382 C2383 1.366 . S
C2383 C2382 1.366 . S
C2383 C2384 1.414 . S
C2383 C2386 1.499 . S
C2384 H2364 0.950 . S
C2384 C2383 1.414 . S
C2384 C2385 1.374 . S
C2385 H2365 0.950 . S
C2385 C2381 1.385 . S
C2385 C2384 1.374 . S
C2386 C2383 1.499 . S
C2386 C2387 1.373 . S
C2386 C2388 1.389 . S
C2387 H2366 0.950 . S
C2387 C2386 1.373 . S
C2387 C2403 1.377 . S
C2388 C2386 1.389 . S
C2388 C2389 1.524 . S
C2388 C2402 1.377 . S
C2389 C2388 1.524 . S
C2389 C2390 1.397 . S
C2389 C2394 1.363 . S
C2390 H2367 0.950 . S
C2390 C2389 1.397 . S
C2390 C2391 1.334 . S
C2391 H2368 0.950 . S
C2391 C2390 1.334 . S
C2391 C2392 1.287 . S
C2392 C2391 1.287 . S
C2392 C2393 1.524 . S
C2392 H2411 0.913 . S
C2393 H2369 0.950 . S
C2393 C2392 1.524 . S
C2393 C2394 1.415 . S
C2394 H2370 0.950 . S
C2394 C2389 1.363 . S
C2394 C2393 1.415 . S
C2395 H2371 0.951 . S
C2395 C2396 1.366 . S
C2395 C2397 1.388 1_455 S
C2396 C2395 1.366 . S
C2396 C2400 1.385 . S
C2397 H2372 0.951 . S
C2397 C2395 1.388 1_655 S
C2397 C2398 1.366 . S
C2398 C2397 1.366 . S
C2398 C2399 1.414 1_655 S
C2398 C2401 1.499 . S
C2399 H2373 0.950 . S
C2399 C2398 1.414 1_455 S
C2399 C2400 1.374 . S
C2400 H2374 0.950 . S
C2400 C2396 1.385 . S
C2400 C2399 1.374 . S
C2401 C2398 1.499 . S
C2401 C2402 1.373 . S
C2401 C2403 1.389 . S
C2402 H2375 0.950 . S
C2402 C2388 1.377 . S
C2402 C2401 1.373 . S
C2403 C2387 1.377 . S
C2403 C2401 1.389 . S
C2403 C2404 1.524 . S
C2404 C2403 1.524 . S
C2404 C2405 1.397 . S
C2404 C2409 1.363 . S
C2405 H2376 0.950 . S
C2405 C2404 1.397 . S
C2405 C2406 1.334 . S
C2406 H2377 0.950 . S
C2406 C2405 1.334 . S
C2406 C2407 1.287 . S
C2407 C2406 1.287 . S
C2407 C2408 1.524 . S
C2407 H2410 0.999 . S
C2408 H2378 0.950 . S
C2408 C2407 1.524 . S
C2408 C2409 1.415 . S
C2409 H2379 0.950 . S
C2409 C2404 1.363 . S
C2409 C2408 1.415 . S
H2410 C2407 0.999 . S
H2411 C2392 0.913 . S
H2412 C2430 0.951 . S
H2413 C2432 0.951 . S
H2414 C2434 0.950 . S
H2415 C2435 0.950 . S
H2416 C2437 0.950 . S
H2417 C2440 0.950 . S
H2418 C2441 0.950 . S
H2419 C2443 0.950 . S
H2420 C2444 0.950 . S
H2421 C2445 0.951 . S
H2422 C2447 0.959 . S
H2423 C2449 0.950 . S
H2424 C2450 0.950 . S
H2425 C2452 0.950 . S
H2426 C2455 0.950 . S
H2427 C2456 0.924 1_655 S
H2428 C2458 0.950 . S
H2429 C2459 0.950 . S
C2430 H2412 0.951 . S
C2430 C2431 1.366 . S
C2430 C2432 1.388 . S
C2431 C2430 1.366 . S
C2431 C2435 1.385 . S
C2432 H2413 0.951 . S
C2432 C2430 1.388 . S
C2432 C2433 1.366 . S
C2433 C2432 1.366 . S
C2433 C2434 1.414 . S
C2433 C2436 1.499 . S
C2434 H2414 0.950 . S
C2434 C2433 1.414 . S
C2434 C2435 1.374 . S
C2435 H2415 0.950 . S
C2435 C2431 1.385 . S
C2435 C2434 1.374 . S
C2436 C2433 1.499 . S
C2436 C2437 1.373 . S
C2436 C2438 1.389 . S
C2437 H2416 0.950 . S
C2437 C2436 1.373 . S
C2437 C2453 1.377 . S
C2438 C2436 1.389 . S
C2438 C2439 1.524 . S
C2438 C2452 1.377 . S
C2439 C2438 1.524 . S
C2439 C2440 1.397 . S
C2439 C2444 1.363 . S
C2440 H2417 0.950 . S
C2440 C2439 1.397 . S
C2440 C2441 1.334 . S
C2441 H2418 0.950 . S
C2441 C2440 1.334 . S
C2441 C2442 1.287 . S
C2442 C2441 1.287 . S
C2442 C2443 1.524 . S
C2442 H2461 0.913 . S
C2443 H2419 0.950 . S
C2443 C2442 1.524 . S
C2443 C2444 1.415 . S
C2444 H2420 0.950 . S
C2444 C2439 1.363 . S
C2444 C2443 1.415 . S
C2445 H2421 0.951 . S
C2445 C2446 1.366 . S
C2445 C2447 1.388 . S
C2446 C2445 1.366 . S
C2446 C2450 1.385 . S
C2447 H2422 0.959 . S
C2447 C2445 1.388 . S
C2447 C2448 1.366 1_655 S
C2448 C2447 1.366 1_455 S
C2448 C2449 1.414 . S
C2448 C2451 1.499 . S
C2449 H2423 0.950 . S
C2449 C2448 1.414 . S
C2449 C2450 1.374 1_455 S
C2450 H2424 0.950 . S
C2450 C2446 1.385 . S
C2450 C2449 1.374 1_655 S
C2451 C2448 1.499 . S
C2451 C2452 1.373 . S
C2451 C2453 1.389 . S
C2452 H2425 0.950 . S
C2452 C2438 1.377 . S
C2452 C2451 1.373 . S
C2453 C2437 1.377 . S
C2453 C2451 1.389 . S
C2453 C2454 1.524 . S
C2454 C2453 1.524 . S
C2454 C2455 1.397 . S
C2454 C2459 1.363 . S
C2455 H2426 0.950 . S
C2455 C2454 1.397 . S
C2455 C2456 1.363 . S
C2456 H2427 0.924 1_455 S
C2456 C2455 1.363 . S
C2456 C2457 1.287 . S
C2457 C2456 1.287 . S
C2457 C2458 1.540 . S
C2457 H2460 0.980 1_455 S
C2458 H2428 0.950 . S
C2458 C2457 1.540 . S
C2458 C2459 1.415 . S
C2459 H2429 0.950 . S
C2459 C2454 1.363 . S
C2459 C2458 1.415 . S
H2460 C2457 0.980 1_655 S
H2461 C2442 0.913 . S
H2462 C2480 0.951 . S
H2463 C2482 0.951 . S
H2464 C2484 0.950 . S
H2465 C2485 0.950 . S
H2466 C2487 0.950 . S
H2467 C2490 0.950 . S
H2468 C2491 0.950 . S
H2469 C2493 0.950 . S
H2470 C2494 0.950 . S
H2471 C2495 0.951 . S
H2472 C2497 0.951 . S
H2473 C2499 0.950 . S
H2474 C2500 0.950 . S
H2475 C2502 0.950 . S
H2476 C2505 0.950 . S
H2477 C2506 0.950 . S
H2478 C2508 0.950 . S
H2479 C2509 0.950 . S
C2480 H2462 0.951 . S
C2480 C2481 1.366 . S
C2480 C2482 1.388 . S
C2481 C2480 1.366 . S
C2481 C2485 1.385 . S
C2482 H2463 0.951 . S
C2482 C2480 1.388 . S
C2482 C2483 1.366 . S
C2483 C2482 1.366 . S
C2483 C2484 1.414 . S
C2483 C2486 1.499 . S
C2484 H2464 0.950 . S
C2484 C2483 1.414 . S
C2484 C2485 1.374 . S
C2485 H2465 0.950 . S
C2485 C2481 1.385 . S
C2485 C2484 1.374 . S
C2486 C2483 1.499 . S
C2486 C2487 1.373 . S
C2486 C2488 1.389 . S
C2487 H2466 0.950 . S
C2487 C2486 1.373 . S
C2487 C2503 1.377 . S
C2488 C2486 1.389 . S
C2488 C2489 1.524 . S
C2488 C2502 1.377 . S
C2489 C2488 1.524 . S
C2489 C2490 1.397 . S
C2489 C2494 1.363 . S
C2490 H2467 0.950 . S
C2490 C2489 1.397 . S
C2490 C2491 1.334 . S
C2491 H2468 0.950 . S
C2491 C2490 1.334 . S
C2491 C2492 1.287 . S
C2492 C2491 1.287 . S
C2492 C2493 1.524 . S
C2492 H2511 0.913 . S
C2493 H2469 0.950 . S
C2493 C2492 1.524 . S
C2493 C2494 1.415 . S
C2494 H2470 0.950 . S
C2494 C2489 1.363 . S
C2494 C2493 1.415 . S
C2495 H2471 0.951 . S
C2495 C2496 1.366 . S
C2495 C2497 1.388 . S
C2496 C2495 1.366 . S
C2496 C2500 1.385 . S
C2497 H2472 0.951 . S
C2497 C2495 1.388 . S
C2497 C2498 1.366 . S
C2498 C2497 1.366 . S
C2498 C2499 1.414 . S
C2498 C2501 1.499 . S
C2499 H2473 0.950 . S
C2499 C2498 1.414 . S
C2499 C2500 1.374 . S
C2500 H2474 0.950 . S
C2500 C2496 1.385 . S
C2500 C2499 1.374 . S
C2501 C2498 1.499 . S
C2501 C2502 1.373 . S
C2501 C2503 1.389 . S
C2502 H2475 0.950 . S
C2502 C2488 1.377 . S
C2502 C2501 1.373 . S
C2503 C2487 1.377 . S
C2503 C2501 1.389 . S
C2503 C2504 1.524 . S
C2504 C2503 1.524 . S
C2504 C2505 1.397 . S
C2504 C2509 1.363 . S
C2505 H2476 0.950 . S
C2505 C2504 1.397 . S
C2505 C2506 1.334 . S
C2506 H2477 0.950 . S
C2506 C2505 1.334 . S
C2506 C2507 1.287 . S
C2507 C2506 1.287 . S
C2507 C2508 1.524 . S
C2507 H2510 0.999 . S
C2508 H2478 0.950 . S
C2508 C2507 1.524 . S
C2508 C2509 1.415 . S
C2509 H2479 0.950 . S
C2509 C2504 1.363 . S
C2509 C2508 1.415 . S
H2510 C2507 0.999 . S
H2511 C2492 0.913 . S
H2512 C2530 0.951 . S
H2513 C2532 0.951 . S
H2514 C2534 0.950 . S
H2515 C2535 0.950 . S
H2516 C2537 0.950 . S
H2517 C2540 0.950 . S
H2518 C2541 0.950 . S
H2519 C2543 0.950 . S
H2520 C2544 0.950 . S
H2521 C2545 0.951 . S
H2522 C2547 0.951 . S
H2523 C2549 0.950 . S
H2524 C2550 0.950 . S
H2525 C2552 0.950 . S
H2526 C2555 0.950 . S
H2527 C2556 0.950 . S
H2528 C2558 0.950 . S
H2529 C2559 0.950 . S
C2530 H2512 0.951 . S
C2530 C2531 1.366 . S
C2530 C2532 1.388 . S
C2531 C2530 1.366 . S
C2531 C2535 1.385 . S
C2532 H2513 0.951 . S
C2532 C2530 1.388 . S
C2532 C2533 1.366 . S
C2533 C2532 1.366 . S
C2533 C2534 1.414 . S
C2533 C2536 1.499 . S
C2534 H2514 0.950 . S
C2534 C2533 1.414 . S
C2534 C2535 1.374 . S
C2535 H2515 0.950 . S
C2535 C2531 1.385 . S
C2535 C2534 1.374 . S
C2536 C2533 1.499 . S
C2536 C2537 1.373 . S
C2536 C2538 1.389 . S
C2537 H2516 0.950 . S
C2537 C2536 1.373 . S
C2537 C2553 1.377 . S
C2538 C2536 1.389 . S
C2538 C2539 1.524 . S
C2538 C2552 1.377 . S
C2539 C2538 1.524 . S
C2539 C2540 1.397 . S
C2539 C2544 1.363 . S
C2540 H2517 0.950 . S
C2540 C2539 1.397 . S
C2540 C2541 1.334 . S
C2541 H2518 0.950 . S
C2541 C2540 1.334 . S
C2541 C2542 1.287 . S
C2542 C2541 1.287 . S
C2542 C2543 1.524 . S
C2542 H2561 0.913 . S
C2543 H2519 0.950 . S
C2543 C2542 1.524 . S
C2543 C2544 1.415 . S
C2544 H2520 0.950 . S
C2544 C2539 1.363 . S
C2544 C2543 1.415 . S
C2545 H2521 0.951 . S
C2545 C2546 1.366 . S
C2545 C2547 1.388 . S
C2546 C2545 1.366 . S
C2546 C2550 1.385 . S
C2547 H2522 0.951 . S
C2547 C2545 1.388 . S
C2547 C2548 1.366 . S
C2548 C2547 1.366 . S
C2548 C2549 1.414 . S
C2548 C2551 1.499 . S
C2549 H2523 0.950 . S
C2549 C2548 1.414 . S
C2549 C2550 1.374 . S
C2550 H2524 0.950 . S
C2550 C2546 1.385 . S
C2550 C2549 1.374 . S
C2551 C2548 1.499 . S
C2551 C2552 1.373 . S
C2551 C2553 1.389 . S
C2552 H2525 0.950 . S
C2552 C2538 1.377 . S
C2552 C2551 1.373 . S
C2553 C2537 1.377 . S
C2553 C2551 1.389 . S
C2553 C2554 1.524 . S
C2554 C2553 1.524 . S
C2554 C2555 1.397 . S
C2554 C2559 1.363 . S
C2555 H2526 0.950 . S
C2555 C2554 1.397 . S
C2555 C2556 1.334 . S
C2556 H2527 0.950 . S
C2556 C2555 1.334 . S
C2556 C2557 1.287 . S
C2557 C2556 1.287 . S
C2557 C2558 1.524 . S
C2557 H2560 0.999 . S
C2558 H2528 0.950 . S
C2558 C2557 1.524 . S
C2558 C2559 1.415 . S
C2559 H2529 0.950 . S
C2559 C2554 1.363 . S
C2559 C2558 1.415 . S
H2560 C2557 0.999 . S
H2561 C2542 0.913 . S
H2562 C2580 0.951 . S
H2563 C2582 0.951 . S
H2564 C2584 0.950 . S
H2565 C2585 0.950 . S
H2566 C2587 0.950 . S
H2567 C2590 0.950 . S
H2568 C2591 0.950 . S
H2569 C2593 0.950 . S
H2570 C2594 0.950 . S
H2571 C2595 0.951 . S
H2572 C2597 0.930 1_565 S
H2573 C2599 0.950 . S
H2574 C2600 0.950 . S
H2575 C2602 0.950 . S
H2576 C2605 0.950 . S
H2577 C2606 0.950 . S
H2578 C2608 0.950 . S
H2579 C2609 0.950 . S
C2580 H2562 0.951 . S
C2580 C2581 1.366 . S
C2580 C2582 1.388 . S
C2581 C2580 1.366 . S
C2581 C2585 1.385 . S
C2582 H2563 0.951 . S
C2582 C2580 1.388 . S
C2582 C2583 1.366 . S
C2583 C2582 1.366 . S
C2583 C2584 1.414 . S
C2583 C2586 1.499 . S
C2584 H2564 0.950 . S
C2584 C2583 1.414 . S
C2584 C2585 1.374 . S
C2585 H2565 0.950 . S
C2585 C2581 1.385 . S
C2585 C2584 1.374 . S
C2586 C2583 1.499 . S
C2586 C2587 1.373 . S
C2586 C2588 1.389 . S
C2587 H2566 0.950 . S
C2587 C2586 1.373 . S
C2587 C2603 1.377 . S
C2588 C2586 1.389 . S
C2588 C2589 1.524 . S
C2588 C2602 1.377 . S
C2589 C2588 1.524 . S
C2589 C2590 1.397 . S
C2589 C2594 1.363 . S
C2590 H2567 0.950 . S
C2590 C2589 1.397 . S
C2590 C2591 1.334 . S
C2591 H2568 0.950 . S
C2591 C2590 1.334 . S
C2591 C2592 1.287 . S
C2592 C2591 1.287 . S
C2592 C2593 1.524 . S
C2592 H2611 0.913 . S
C2593 H2569 0.950 . S
C2593 C2592 1.524 . S
C2593 C2594 1.415 . S
C2594 H2570 0.950 . S
C2594 C2589 1.363 . S
C2594 C2593 1.415 . S
C2595 H2571 0.951 . S
C2595 C2596 1.366 . S
C2595 C2597 1.388 . S
C2596 C2595 1.366 . S
C2596 C2600 1.385 . S
C2597 H2572 0.930 1_545 S
C2597 C2595 1.388 . S
C2597 C2598 1.366 1_545 S
C2598 C2597 1.366 1_565 S
C2598 C2599 1.414 1_565 S
C2598 C2601 1.499 . S
C2599 H2573 0.950 . S
C2599 C2598 1.414 1_545 S
C2599 C2600 1.374 . S
C2600 H2574 0.950 . S
C2600 C2596 1.385 . S
C2600 C2599 1.374 . S
C2601 C2598 1.499 . S
C2601 C2602 1.373 . S
C2601 C2603 1.389 . S
C2602 H2575 0.950 . S
C2602 C2588 1.377 . S
C2602 C2601 1.373 . S
C2603 C2587 1.377 . S
C2603 C2601 1.389 . S
C2603 C2604 1.524 . S
C2604 C2603 1.524 . S
C2604 C2605 1.397 . S
C2604 C2609 1.363 . S
C2605 H2576 0.950 . S
C2605 C2604 1.397 . S
C2605 C2606 1.334 . S
C2606 H2577 0.950 . S
C2606 C2605 1.334 . S
C2606 C2607 1.287 . S
C2607 C2606 1.287 . S
C2607 C2608 1.524 . S
C2607 H2610 0.999 . S
C2608 H2578 0.950 . S
C2608 C2607 1.524 . S
C2608 C2609 1.415 . S
C2609 H2579 0.950 . S
C2609 C2604 1.363 . S
C2609 C2608 1.415 . S
H2610 C2607 0.999 . S
H2611 C2592 0.913 . S
H2612 C2630 0.951 . S
H2613 C2632 0.951 1_545 S
H2614 C2634 0.950 . S
H2615 C2635 0.950 . S
H2616 C2637 0.950 . S
H2617 C2640 0.950 . S
H2618 C2641 0.950 . S
H2619 C2643 0.950 . S
H2620 C2644 0.950 . S
H2621 C2645 0.951 . S
H2622 C2647 0.951 . S
H2623 C2649 0.950 . S
H2624 C2650 0.950 . S
H2625 C2652 0.950 . S
H2626 C2655 0.950 . S
H2627 C2656 0.950 . S
H2628 C2658 0.950 . S
H2629 C2659 0.950 . S
C2630 H2612 0.951 . S
C2630 C2631 1.366 . S
C2630 C2632 1.388 . S
C2631 C2630 1.366 . S
C2631 C2635 1.385 . S
C2632 H2613 0.951 1_565 S
C2632 C2630 1.388 . S
C2632 C2633 1.366 1_565 S
C2633 C2632 1.366 1_545 S
C2633 C2634 1.414 1_545 S
C2633 C2636 1.499 . S
C2634 H2614 0.950 . S
C2634 C2633 1.414 1_565 S
C2634 C2635 1.374 . S
C2635 H2615 0.950 . S
C2635 C2631 1.385 . S
C2635 C2634 1.374 . S
C2636 C2633 1.499 . S
C2636 C2637 1.373 . S
C2636 C2638 1.389 . S
C2637 H2616 0.950 . S
C2637 C2636 1.373 . S
C2637 C2653 1.377 . S
C2638 C2636 1.389 . S
C2638 C2639 1.524 . S
C2638 C2652 1.377 . S
C2639 C2638 1.524 . S
C2639 C2640 1.397 . S
C2639 C2644 1.363 . S
C2640 H2617 0.950 . S
C2640 C2639 1.397 . S
C2640 C2641 1.334 1_545 S
C2641 H2618 0.950 . S
C2641 C2640 1.334 1_565 S
C2641 C2642 1.287 1_565 S
C2642 C2641 1.287 1_545 S
C2642 C2643 1.524 . S
C2642 H2661 0.913 1_545 S
C2643 H2619 0.950 . S
C2643 C2642 1.524 . S
C2643 C2644 1.415 . S
C2644 H2620 0.950 . S
C2644 C2639 1.363 . S
C2644 C2643 1.415 . S
C2645 H2621 0.951 . S
C2645 C2646 1.366 . S
C2645 C2647 1.388 . S
C2646 C2645 1.366 . S
C2646 C2650 1.385 . S
C2647 H2622 0.951 . S
C2647 C2645 1.388 . S
C2647 C2648 1.366 . S
C2648 C2647 1.366 . S
C2648 C2649 1.414 . S
C2648 C2651 1.499 . S
C2649 H2623 0.950 . S
C2649 C2648 1.414 . S
C2649 C2650 1.374 . S
C2650 H2624 0.950 . S
C2650 C2646 1.385 . S
C2650 C2649 1.374 . S
C2651 C2648 1.499 . S
C2651 C2652 1.373 . S
C2651 C2653 1.389 . S
C2652 H2625 0.950 . S
C2652 C2638 1.377 . S
C2652 C2651 1.373 . S
C2653 C2637 1.377 . S
C2653 C2651 1.389 . S
C2653 C2654 1.524 . S
C2654 C2653 1.524 . S
C2654 C2655 1.397 . S
C2654 C2659 1.363 . S
C2655 H2626 0.950 . S
C2655 C2654 1.397 . S
C2655 C2656 1.334 . S
C2656 H2627 0.950 . S
C2656 C2655 1.334 . S
C2656 C2657 1.287 . S
C2657 C2656 1.287 . S
C2657 C2658 1.524 . S
C2657 H2660 0.999 . S
C2658 H2628 0.950 . S
C2658 C2657 1.524 . S
C2658 C2659 1.415 . S
C2659 H2629 0.950 . S
C2659 C2654 1.363 . S
C2659 C2658 1.415 . S
H2660 C2657 0.999 . S
H2661 C2642 0.913 1_565 S
H2662 C2680 0.951 . S
H2663 C2682 0.951 . S
H2664 C2684 0.950 . S
H2665 C2685 0.950 . S
H2666 C2687 0.950 . S
H2667 C2690 0.950 . S
H2668 C2691 0.950 . S
H2669 C2693 0.950 . S
H2670 C2694 0.950 . S
H2671 C2695 0.951 . S
H2672 C2697 0.951 . S
H2673 C2699 0.950 . S
H2674 C2700 0.950 . S
H2675 C2702 0.950 . S
H2676 C2705 0.950 . S
H2677 C2706 0.950 . S
H2678 C2708 0.950 . S
H2679 C2709 0.950 . S
C2680 H2662 0.951 . S
C2680 C2681 1.366 . S
C2680 C2682 1.388 . S
C2681 C2680 1.366 . S
C2681 C2685 1.385 . S
C2682 H2663 0.951 . S
C2682 C2680 1.388 . S
C2682 C2683 1.366 . S
C2683 C2682 1.366 . S
C2683 C2684 1.414 . S
C2683 C2686 1.499 . S
C2684 H2664 0.950 . S
C2684 C2683 1.414 . S
C2684 C2685 1.374 . S
C2685 H2665 0.950 . S
C2685 C2681 1.385 . S
C2685 C2684 1.374 . S
C2686 C2683 1.499 . S
C2686 C2687 1.373 . S
C2686 C2688 1.389 . S
C2687 H2666 0.950 . S
C2687 C2686 1.373 . S
C2687 C2703 1.377 . S
C2688 C2686 1.389 . S
C2688 C2689 1.524 . S
C2688 C2702 1.377 . S
C2689 C2688 1.524 . S
C2689 C2690 1.397 . S
C2689 C2694 1.363 . S
C2690 H2667 0.950 . S
C2690 C2689 1.397 . S
C2690 C2691 1.334 . S
C2691 H2668 0.950 . S
C2691 C2690 1.334 . S
C2691 C2692 1.287 . S
C2692 C2691 1.287 . S
C2692 C2693 1.524 . S
C2692 H2711 0.913 . S
C2693 H2669 0.950 . S
C2693 C2692 1.524 . S
C2693 C2694 1.415 . S
C2694 H2670 0.950 . S
C2694 C2689 1.363 . S
C2694 C2693 1.415 . S
C2695 H2671 0.951 . S
C2695 C2696 1.366 . S
C2695 C2697 1.388 . S
C2696 C2695 1.366 . S
C2696 C2700 1.385 . S
C2697 H2672 0.951 . S
C2697 C2695 1.388 . S
C2697 C2698 1.366 . S
C2698 C2697 1.366 . S
C2698 C2699 1.414 . S
C2698 C2701 1.499 . S
C2699 H2673 0.950 . S
C2699 C2698 1.414 . S
C2699 C2700 1.374 . S
C2700 H2674 0.950 . S
C2700 C2696 1.385 . S
C2700 C2699 1.374 . S
C2701 C2698 1.499 . S
C2701 C2702 1.373 . S
C2701 C2703 1.389 . S
C2702 H2675 0.950 . S
C2702 C2688 1.377 . S
C2702 C2701 1.373 . S
C2703 C2687 1.377 . S
C2703 C2701 1.389 . S
C2703 C2704 1.524 . S
C2704 C2703 1.524 . S
C2704 C2705 1.397 . S
C2704 C2709 1.363 . S
C2705 H2676 0.950 . S
C2705 C2704 1.397 . S
C2705 C2706 1.334 . S
C2706 H2677 0.950 . S
C2706 C2705 1.334 . S
C2706 C2707 1.287 . S
C2707 C2706 1.287 . S
C2707 C2708 1.524 . S
C2707 H2710 0.999 . S
C2708 H2678 0.950 . S
C2708 C2707 1.524 . S
C2708 C2709 1.415 . S
C2709 H2679 0.950 . S
C2709 C2704 1.363 . S
C2709 C2708 1.415 . S
H2710 C2707 0.999 . S
H2711 C2692 0.913 . S
C331 C109 0.720 . S
C346 C10 0.715 . S
C381 C23 0.715 . S
C396 C148 0.720 . S
C431 C36 0.714 . S
C446 C122 0.722 . S
C481 C49 0.714 . S
C496 C135 0.720 . S
C531 C57 0.707 . S
C546 C5 0.705 . S
C581 C18 0.702 . S
C596 C70 0.709 . S
C631 C83 0.707 . S
C646 C31 0.705 . S
C681 C44 0.703 . S
C696 C96 0.708 . S
C731 C62 0.665 . S
C746 C114 0.669 . S
C781 C88 0.665 . S
C796 C127 0.671 . S
C831 C140 0.671 . S
C846 C101 0.665 . S
C881 C75 0.665 . S
C896 C153 0.669 . S
C931 C265 0.700 . S
C946 C166 0.688 . S
C981 C179 0.688 . S
C996 C304 0.701 . S
C1031 C192 0.688 . S
C1046 C278 0.702 . S
C1081 C291 0.700 . S
C1096 C205 0.689 . S
C1131 C218 0.675 . S
C1146 C161 0.693 . S
C1181 C174 0.693 . S
C1196 C231 0.675 . S
C1231 C187 0.693 . S
C1246 C244 0.675 . S
C1281 C257 0.676 . S
C1296 C200 0.691 . S
C1331 C270 0.757 . S
C1346 C213 0.754 . S
C1381 C239 0.754 . S
C1396 C283 0.756 . S
C1431 C252 0.757 . S
C1446 C296 0.756 . S
C1481 C309 0.757 . S
C1496 C226 0.754 . S
C1531 C286 1.285 . S
C1546 C8 1.255 . S
C1581 C273 1.285 . S
C1596 C21 1.254 . S
C1631 C299 1.285 . S
C1646 C34 1.255 . S
C1681 C47 1.255 . S
C1696 C260 1.285 . S
C1731 C52 1.230 . S
C1746 C169 1.253 . S
C1781 C156 1.253 . S
C1796 C65 1.231 . S
C1831 C195 1.253 . S
C1846 C78 1.232 . S
C1881 C182 1.253 . S
C1896 C91 1.231 . S
C1931 C112 1.209 . S
C1946 C234 1.225 . S
C1981 C208 1.225 . S
C1996 C125 1.208 . S
C2031 C221 1.226 . S
C2046 C138 1.209 . S
C2081 C247 1.225 . S
C2096 C151 1.208 . S
C2131 C130 1.182 . S
C2146 C164 1.164 . S
C2181 C117 1.181 . S
C2196 C177 1.165 . S
C2231 C190 1.165 . S
C2246 C143 1.181 . S
C2281 C104 1.181 . S
C2296 C203 1.164 . S
C2331 C216 1.205 . S
C2346 C13 1.217 . S
C2381 C229 1.205 . S
C2396 C0 1.218 . S
C2431 C242 1.205 . S
C2446 C39 1.217 . S
C2481 C255 1.204 . S
C2496 C26 1.217 . S
C2531 C268 1.209 . S
C2546 C86 1.235 . S
C2581 C281 1.208 . S
C2596 C60 1.235 . S
C2631 C73 1.234 . S
C2646 C294 1.209 . S
C2681 C307 1.208 . S
C2696 C99 1.235 . S
