# Generated by pormake.
# Topology wmc, (6)-cn, num edge types: 1
# Building blocks:
#     Node 0, Type 0, BuildingBlock: VOLQOD_clean_sbu_1, # of connection points: 6
#     Node 1, Type 0, BuildingBlock: VOLQOD_clean_sbu_1, # of connection points: 6
#     Node 2, Type 0, BuildingBlock: VOLQOD_clean_sbu_1, # of connection points: 6
#     Node 3, Type 0, BuildingBlock: VOLQOD_clean_sbu_1, # of connection points: 6
#     Node 4, Type 0, BuildingBlock: VOLQOD_clean_sbu_1, # of connection points: 6
#     Node 5, Type 0, BuildingBlock: VOLQOD_clean_sbu_1, # of connection points: 6
#     Node 6, Type 0, BuildingBlock: VOLQOD_clean_sbu_1, # of connection points: 6
#     Node 7, Type 0, BuildingBlock: VOLQOD_clean_sbu_1, # of connection points: 6
#     Node 8, Type 0, BuildingBlock: VOLQOD_clean_sbu_1, # of connection points: 6
#     Node 9, Type 0, BuildingBlock: VOLQOD_clean_sbu_1, # of connection points: 6
#     Node 10, Type 0, BuildingBlock: VOLQOD_clean_sbu_1, # of connection points: 6
#     Node 11, Type 0, BuildingBlock: VOLQOD_clean_sbu_1, # of connection points: 6
#     Node 12, Type 0, BuildingBlock: VOLQOD_clean_sbu_1, # of connection points: 6
#     Node 13, Type 0, BuildingBlock: VOLQOD_clean_sbu_1, # of connection points: 6
#     Node 14, Type 0, BuildingBlock: VOLQOD_clean_sbu_1, # of connection points: 6
#     Node 15, Type 0, BuildingBlock: VOLQOD_clean_sbu_1, # of connection points: 6
#     Node 16, Type 0, BuildingBlock: VOLQOD_clean_sbu_1, # of connection points: 6
#     Node 17, Type 0, BuildingBlock: VOLQOD_clean_sbu_1, # of connection points: 6
#     Edge 18, Type (0, 0), BuildingBlock: CIFDUS_clean_linker_0, # of connection points: 2
#     Edge 19, Type (0, 0), BuildingBlock: CIFDUS_clean_linker_0, # of connection points: 2
#     Edge 20, Type (0, 0), BuildingBlock: CIFDUS_clean_linker_0, # of connection points: 2
#     Edge 21, Type (0, 0), BuildingBlock: CIFDUS_clean_linker_0, # of connection points: 2
#     Edge 22, Type (0, 0), BuildingBlock: CIFDUS_clean_linker_0, # of connection points: 2
#     Edge 23, Type (0, 0), BuildingBlock: CIFDUS_clean_linker_0, # of connection points: 2
#     Edge 24, Type (0, 0), BuildingBlock: CIFDUS_clean_linker_0, # of connection points: 2
#     Edge 25, Type (0, 0), BuildingBlock: CIFDUS_clean_linker_0, # of connection points: 2
#     Edge 26, Type (0, 0), BuildingBlock: CIFDUS_clean_linker_0, # of connection points: 2
#     Edge 27, Type (0, 0), BuildingBlock: CIFDUS_clean_linker_0, # of connection points: 2
#     Edge 28, Type (0, 0), BuildingBlock: CIFDUS_clean_linker_0, # of connection points: 2
#     Edge 29, Type (0, 0), BuildingBlock: CIFDUS_clean_linker_0, # of connection points: 2
#     Edge 30, Type (0, 0), BuildingBlock: CIFDUS_clean_linker_0, # of connection points: 2
#     Edge 31, Type (0, 0), BuildingBlock: CIFDUS_clean_linker_0, # of connection points: 2
#     Edge 32, Type (0, 0), BuildingBlock: CIFDUS_clean_linker_0, # of connection points: 2
#     Edge 33, Type (0, 0), BuildingBlock: CIFDUS_clean_linker_0, # of connection points: 2
#     Edge 34, Type (0, 0), BuildingBlock: CIFDUS_clean_linker_0, # of connection points: 2
#     Edge 35, Type (0, 0), BuildingBlock: CIFDUS_clean_linker_0, # of connection points: 2
#     Edge 36, Type (0, 0), BuildingBlock: CIFDUS_clean_linker_0, # of connection points: 2
#     Edge 37, Type (0, 0), BuildingBlock: CIFDUS_clean_linker_0, # of connection points: 2
#     Edge 38, Type (0, 0), BuildingBlock: CIFDUS_clean_linker_0, # of connection points: 2
#     Edge 39, Type (0, 0), BuildingBlock: CIFDUS_clean_linker_0, # of connection points: 2
#     Edge 40, Type (0, 0), BuildingBlock: CIFDUS_clean_linker_0, # of connection points: 2
#     Edge 41, Type (0, 0), BuildingBlock: CIFDUS_clean_linker_0, # of connection points: 2
#     Edge 42, Type (0, 0), BuildingBlock: CIFDUS_clean_linker_0, # of connection points: 2
#     Edge 43, Type (0, 0), BuildingBlock: CIFDUS_clean_linker_0, # of connection points: 2
#     Edge 44, Type (0, 0), BuildingBlock: CIFDUS_clean_linker_0, # of connection points: 2
#     Edge 45, Type (0, 0), BuildingBlock: CIFDUS_clean_linker_0, # of connection points: 2
#     Edge 46, Type (0, 0), BuildingBlock: CIFDUS_clean_linker_0, # of connection points: 2
#     Edge 47, Type (0, 0), BuildingBlock: CIFDUS_clean_linker_0, # of connection points: 2
#     Edge 48, Type (0, 0), BuildingBlock: CIFDUS_clean_linker_0, # of connection points: 2
#     Edge 49, Type (0, 0), BuildingBlock: CIFDUS_clean_linker_0, # of connection points: 2
#     Edge 50, Type (0, 0), BuildingBlock: CIFDUS_clean_linker_0, # of connection points: 2
#     Edge 51, Type (0, 0), BuildingBlock: CIFDUS_clean_linker_0, # of connection points: 2
#     Edge 52, Type (0, 0), BuildingBlock: CIFDUS_clean_linker_0, # of connection points: 2
#     Edge 53, Type (0, 0), BuildingBlock: CIFDUS_clean_linker_0, # of connection points: 2
#     Edge 54, Type (0, 0), BuildingBlock: CIFDUS_clean_linker_0, # of connection points: 2
#     Edge 55, Type (0, 0), BuildingBlock: CIFDUS_clean_linker_0, # of connection points: 2
#     Edge 56, Type (0, 0), BuildingBlock: CIFDUS_clean_linker_0, # of connection points: 2
#     Edge 57, Type (0, 0), BuildingBlock: CIFDUS_clean_linker_0, # of connection points: 2
#     Edge 58, Type (0, 0), BuildingBlock: CIFDUS_clean_linker_0, # of connection points: 2
#     Edge 59, Type (0, 0), BuildingBlock: CIFDUS_clean_linker_0, # of connection points: 2
#     Edge 60, Type (0, 0), BuildingBlock: CIFDUS_clean_linker_0, # of connection points: 2
#     Edge 61, Type (0, 0), BuildingBlock: CIFDUS_clean_linker_0, # of connection points: 2
#     Edge 62, Type (0, 0), BuildingBlock: CIFDUS_clean_linker_0, # of connection points: 2
#     Edge 63, Type (0, 0), BuildingBlock: CIFDUS_clean_linker_0, # of connection points: 2
#     Edge 64, Type (0, 0), BuildingBlock: CIFDUS_clean_linker_0, # of connection points: 2
#     Edge 65, Type (0, 0), BuildingBlock: CIFDUS_clean_linker_0, # of connection points: 2
#     Edge 66, Type (0, 0), BuildingBlock: CIFDUS_clean_linker_0, # of connection points: 2
#     Edge 67, Type (0, 0), BuildingBlock: CIFDUS_clean_linker_0, # of connection points: 2
#     Edge 68, Type (0, 0), BuildingBlock: CIFDUS_clean_linker_0, # of connection points: 2
#     Edge 69, Type (0, 0), BuildingBlock: CIFDUS_clean_linker_0, # of connection points: 2
#     Edge 70, Type (0, 0), BuildingBlock: CIFDUS_clean_linker_0, # of connection points: 2
#     Edge 71, Type (0, 0), BuildingBlock: CIFDUS_clean_linker_0, # of connection points: 2
# Relax obj value: 0.292
# Max RMSD: 0.168
# Mean RMSD: 0.168
data_MOF--net-wmc--node1-VOLQOD_clean_sbu_1--edge1-CIFDUS_clean_linker_0
_symmetry_space_group_name_H-M    P1
_symmetry_Int_Tables_number       1
_symmetry_cell_setting            triclinic
loop_
_symmetry_equiv_pos_as_xyz
'x, y, z'
_cell_length_a     43.883824
_cell_length_b     43.753897
_cell_length_c     28.620511
_cell_angle_alpha  89.985542
_cell_angle_beta   90.350325
_cell_angle_gamma 119.86184
loop_
_atom_site_label
_atom_site_type_symbol
_atom_site_fract_x
_atom_site_fract_y
_atom_site_fract_z
_atom_type_partial_charge
O0 O 0.67502 0.18159 0.95206 0.0
Zn1 Zn 0.64086 0.12981 0.95663 0.0
O2 O 0.60067 0.12125 -0.00848 0.0
Zn3 Zn 0.56315 0.11569 0.9523 0.0
Zn4 Zn 0.61674 0.16171 0.02988 0.0
Zn5 Zn 0.58407 0.07884 0.02752 0.0
O6 O 0.51807 0.07315 0.97071 0.0
O7 O 0.53892 0.0386 -0.00548 0.0
O8 O 0.62592 0.10828 0.89259 0.0
O9 O 0.57295 0.10385 0.8892 0.0
O10 O 0.55726 0.15897 0.95198 0.0
O11 O 0.59452 0.18914 0.00924 0.0
O12 O 0.59896 0.14716 0.09389 0.0
O13 O 0.66706 0.1124 -0.00494 0.0
O14 O 0.56744 0.08861 0.08806 0.0
O15 O 0.62779 0.07352 0.04442 0.0
C16 C 0.68632 0.2024 -0.01293 0.0
C17 C 0.51347 0.04254 -0.02099 0.0
C18 C 0.57182 0.18578 -0.0211 0.0
C19 C 0.59733 0.10013 0.87101 0.0
C20 C 0.57678 0.11722 0.11029 0.0
C21 C 0.65943 0.09134 0.02933 0.0
O22 O 0.66884 0.19481 0.02489 0.0
O23 O 0.84224 0.49973 0.93755 0.0
Zn24 Zn 0.89365 0.51845 0.93284 0.0
O25 O 0.90693 0.49266 0.9731 0.0
Zn26 Zn 0.90625 0.45477 0.94077 0.0
Zn27 Zn 0.87376 0.47643 0.02233 0.0
Zn28 Zn 0.95348 0.52439 -0.00524 0.0
O29 O 0.95339 0.45795 0.94462 0.0
O30 O 0.98881 0.51553 0.95688 0.0
O31 O 0.90608 0.5149 0.86643 0.0
O32 O 0.90018 0.46147 0.87377 0.0
O33 O 0.86716 0.40748 0.96212 0.0
O34 O 0.84474 0.42398 0.01963 0.0
O35 O 0.90006 0.48703 0.08281 0.0
O36 O 0.91265 0.56648 0.95969 0.0
O37 O 0.95586 0.51019 0.05982 0.0
O38 O 0.95754 0.57331 0.00359 0.0
C39 C 0.82653 0.49724 0.97582 0.0
C40 C 0.98402 0.48507 0.94481 0.0
C41 C 0.84481 0.40001 -0.00542 0.0
C42 C 0.90365 0.48704 0.84865 0.0
C43 C 0.93241 0.49768 0.0912 0.0
C44 C 0.93655 0.58394 -0.01021 0.0
O45 O 0.8392 0.49424 0.01479 0.0
O46 O 0.53781 0.36022 0.9688 0.0
Zn47 Zn 0.51511 0.38948 0.96071 0.0
O48 O 0.53911 0.43203 -0.00466 0.0
Zn49 Zn 0.57283 0.46851 0.9572 0.0
Zn50 Zn 0.56159 0.42106 0.04403 0.0
Zn51 Zn 0.50591 0.44528 0.01824 0.0
O52 O 0.56985 0.5123 0.96519 0.0
O53 O 0.51262 0.48935 -0.02059 0.0
O54 O 0.5131 0.39918 0.89311 0.0
O55 O 0.55856 0.45403 0.89117 0.0
O56 O 0.62238 0.47808 0.9699 0.0
O57 O 0.61306 0.44647 0.03429 0.0
O58 O 0.55491 0.44014 0.10296 0.0
O59 O 0.46878 0.3607 -0.00997 0.0
O60 O 0.5219 0.46394 0.08334 0.0
O61 O 0.45737 0.39845 0.02748 0.0
C62 C 0.54435 0.35134 0.0083 0.0
C63 C 0.54252 0.51544 0.96686 0.0
C64 C 0.63374 0.46753 0.00379 0.0
C65 C 0.53393 0.427 0.8709 0.0
C66 C 0.54074 0.45862 0.1126 0.0
C67 C 0.44918 0.36674 0.01641 0.0
O68 O 0.54789 0.36955 0.04488 0.0
O69 O 0.85185 0.34925 0.41438 0.0
Zn70 Zn 0.90261 0.38511 0.42491 0.0
O71 O 0.90843 0.42341 0.46375 0.0
Zn72 Zn 0.91261 0.46163 0.42787 0.0
Zn73 Zn 0.86794 0.40501 0.50152 0.0
Zn74 Zn 0.94953 0.43954 0.50265 0.0
O75 O 0.95587 0.5065 0.44543 0.0
O76 O 0.99003 0.48733 0.47619 0.0
O77 O 0.92452 0.40324 0.36259 0.0
O78 O 0.92114 0.45257 0.36274 0.0
O79 O 0.87019 0.46816 0.43349 0.0
O80 O 0.84438 0.43347 0.49423 0.0
O81 O 0.88088 0.40704 0.56803 0.0
O82 O 0.92001 0.35834 0.46149 0.0
O83 O 0.93684 0.44992 0.56584 0.0
O84 O 0.95565 0.39588 0.51569 0.0
C85 C 0.82747 0.33952 0.44424 0.0
C86 C 0.98601 0.51225 0.45872 0.0
C87 C 0.84637 0.45602 0.46459 0.0
C88 C 0.92779 0.43067 0.34233 0.0
C89 C 0.90866 0.43044 0.58819 0.0
C90 C 0.93922 0.36483 0.49773 0.0
O91 O 0.83168 0.35674 0.48181 0.0
O92 O 0.67096 0.48804 0.46068 0.0
Zn93 Zn 0.64204 0.5115 0.45684 0.0
O94 O 0.59921 0.4853 0.48969 0.0
Zn95 Zn 0.56304 0.45502 0.44824 0.0
Zn96 Zn 0.60752 0.45797 0.53385 0.0
Zn97 Zn 0.58601 0.51743 0.51684 0.0
O98 O 0.5191 0.45587 0.46147 0.0
O99 O 0.54216 0.51268 0.47949 0.0
O100 O 0.63268 0.51916 0.39039 0.0
O101 O 0.57697 0.47587 0.38543 0.0
O102 O 0.55377 0.40494 0.44948 0.0
O103 O 0.58095 0.40722 0.51606 0.0
O104 O 0.58929 0.46257 0.59504 0.0
O105 O 0.67053 0.55575 0.49209 0.0
O106 O 0.56884 0.49941 0.58126 0.0
O107 O 0.63204 0.56576 0.5295 0.0
C108 C 0.67817 0.47765 0.4986 0.0
C109 C 0.51606 0.48321 0.46528 0.0
C110 C 0.56191 0.38992 0.48137 0.0
C111 C 0.60412 0.50153 0.36748 0.0
C112 C 0.57311 0.4785 0.60794 0.0
C113 C 0.66388 0.57422 0.51999 0.0
O114 O 0.65852 0.47046 0.53436 0.0
O115 O 0.5335 0.18349 0.46138 0.0
Zn116 Zn 0.51448 0.13111 0.45716 0.0
O117 O 0.54338 0.11766 0.49059 0.0
Zn118 Zn 0.57402 0.11215 0.44984 0.0
Zn119 Zn 0.56905 0.15657 0.52983 0.0
Zn120 Zn 0.51721 0.07511 0.5254 0.0
O121 O 0.57802 0.07032 0.46845 0.0
O122 O 0.52233 0.03563 0.4899 0.0
O123 O 0.50751 0.1135 0.39105 0.0
O124 O 0.54995 0.09955 0.38829 0.0
O125 O 0.62118 0.15731 0.4437 0.0
O126 O 0.61384 0.18829 0.49943 0.0
O127 O 0.57945 0.14054 0.58922 0.0
O128 O 0.47061 0.11267 0.49273 0.0
O129 O 0.54361 0.0824 0.5863 0.0
O130 O 0.46895 0.07226 0.54183 0.0
C131 C 0.53885 0.19855 0.50115 0.0
C132 C 0.55179 0.03962 0.47488 0.0
C133 C 0.63172 0.18598 0.46634 0.0
C134 C 0.52414 0.10075 0.36979 0.0
C135 C 0.56786 0.10992 0.60635 0.0
C136 C 0.45632 0.09136 0.52637 0.0
O137 O 0.54561 0.1855 0.53689 0.0
O138 O 0.33681 0.52247 0.28015 0.0
Zn139 Zn 0.3081 0.46985 0.27742 0.0
O140 O 0.2659 0.45309 0.31201 0.0
Zn141 Zn 0.22846 0.4469 0.27262 0.0
Zn142 Zn 0.27551 0.48886 0.35621 0.0
Zn143 Zn 0.25378 0.40835 0.34023 0.0
O144 O 0.18537 0.40157 0.2873 0.0
O145 O 0.20918 0.36844 0.30568 0.0
O146 O 0.2969 0.45261 0.2112 0.0
O147 O 0.24124 0.44076 0.20849 0.0
O148 O 0.21821 0.4872 0.27649 0.0
O149 O 0.24831 0.51265 0.34112 0.0
O150 O 0.25912 0.46706 0.41789 0.0
O151 O 0.33774 0.45459 0.31145 0.0
O152 O 0.23762 0.40959 0.40512 0.0
O153 O 0.30036 0.40697 0.35132 0.0
C154 C 0.34458 0.54009 0.31806 0.0
C155 C 0.18257 0.3714 0.29276 0.0
C156 C 0.22759 0.51049 0.30847 0.0
C157 C 0.268 0.44219 0.18924 0.0
C158 C 0.24277 0.43518 0.43147 0.0
C159 C 0.3319 0.43014 0.34019 0.0
O160 O 0.32604 0.52728 0.35463 0.0
O161 O 0.51624 0.83879 0.27207 0.0
Zn162 Zn 0.56795 0.85605 0.27348 0.0
O163 O 0.57766 0.82388 0.30619 0.0
Zn164 Zn 0.58162 0.79246 0.26421 0.0
Zn165 Zn 0.53815 0.79913 0.34508 0.0
Zn166 Zn 0.61997 0.84866 0.34305 0.0
O167 O 0.62499 0.79036 0.27907 0.0
O168 O 0.65972 0.84361 0.31002 0.0
O169 O 0.58626 0.86318 0.20778 0.0
O170 O 0.58983 0.81417 0.20119 0.0
O171 O 0.53853 0.74331 0.26411 0.0
O172 O 0.50891 0.75087 0.32109 0.0
O173 O 0.55307 0.79243 0.40755 0.0
O174 O 0.58612 0.89905 0.313 0.0
O175 O 0.61143 0.82165 0.40307 0.0
O176 O 0.6247 0.8971 0.36223 0.0
C177 C 0.49765 0.8303 0.30888 0.0
C178 C 0.6554 0.81493 0.29125 0.0
C179 C 0.5116 0.73153 0.29024 0.0
C180 C 0.59267 0.84235 0.18416 0.0
C181 C 0.58313 0.80084 0.4243 0.0
C182 C 0.60687 0.91137 0.34794 0.0
O183 O 0.50707 0.82048 0.34548 0.0
O184 O 0.19939 0.68823 0.30185 0.0
Zn185 Zn 0.18139 0.72196 0.2941 0.0
O186 O 0.20881 0.76322 0.33044 0.0
Zn187 Zn 0.24415 0.79925 0.29379 0.0
Zn188 Zn 0.22962 0.74867 0.37727 0.0
Zn189 Zn 0.17925 0.77942 0.35718 0.0
O190 O 0.24108 0.84326 0.2978 0.0
O191 O 0.18517 0.82271 0.31802 0.0
O192 O 0.18186 0.73367 0.2261 0.0
O193 O 0.23353 0.78354 0.22807 0.0
O194 O 0.29283 0.80848 0.30932 0.0
O195 O 0.28049 0.76894 0.36514 0.0
O196 O 0.2291 0.77077 0.43703 0.0
O197 O 0.13461 0.69569 0.32343 0.0
O198 O 0.20087 0.79998 0.41977 0.0
O199 O 0.13061 0.73418 0.37038 0.0
C200 C 0.20403 0.67758 0.34129 0.0
C201 C 0.21459 0.84759 0.30222 0.0
C202 C 0.30246 0.79302 0.33863 0.0
C203 C 0.20784 0.75906 0.20562 0.0
C204 C 0.21956 0.79305 0.44725 0.0
C205 C 0.11863 0.70261 0.35496 0.0
O206 O 0.20952 0.69609 0.37811 0.0
O207 O 0.51299 0.6857 0.76604 0.0
Zn208 Zn 0.56434 0.72065 0.77092 0.0
O209 O 0.57178 0.7606 0.80594 0.0
Zn210 Zn 0.57549 0.79722 0.76676 0.0
Zn211 Zn 0.53131 0.74233 0.84299 0.0
Zn212 Zn 0.61311 0.77802 0.84366 0.0
O213 O 0.61717 0.84323 0.78556 0.0
O214 O 0.65229 0.823 0.80962 0.0
O215 O 0.58584 0.73542 0.70745 0.0
O216 O 0.58849 0.78774 0.70421 0.0
O217 O 0.5297 0.79888 0.76368 0.0
O218 O 0.49931 0.75687 0.81542 0.0
O219 O 0.54406 0.76403 0.90617 0.0
O220 O 0.58158 0.6948 0.80985 0.0
O221 O 0.60249 0.79534 0.90318 0.0
O222 O 0.61755 0.73384 0.86248 0.0
C223 C 0.495 0.67248 0.80285 0.0
C224 C 0.64794 0.84803 0.79305 0.0
C225 C 0.50122 0.77916 0.78545 0.0
C226 C 0.59328 0.76387 0.68615 0.0
C227 C 0.57357 0.7865 0.92378 0.0
C228 C 0.6007 0.70218 0.84632 0.0
O229 O 0.50414 0.68946 0.84139 0.0
O230 O 0.341 0.84501 0.76706 0.0
Zn231 Zn 0.3059 0.86016 0.7833 0.0
O232 O 0.2684 0.82573 0.82035 0.0
Zn233 Zn 0.22933 0.79372 0.7837 0.0
Zn234 Zn 0.28701 0.80137 0.85348 0.0
Zn235 Zn 0.25237 0.84877 0.86257 0.0
O236 O 0.18462 0.78915 0.80758 0.0
O237 O 0.20467 0.84288 0.83704 0.0
O238 O 0.28558 0.86795 0.72436 0.0
O239 O 0.2352 0.81644 0.72184 0.0
O240 O 0.22404 0.74492 0.78074 0.0
O241 O 0.25805 0.75005 0.84136 0.0
O242 O 0.28492 0.80811 0.92141 0.0
O243 O 0.3333 0.90197 0.82446 0.0
O244 O 0.24272 0.82241 0.92325 0.0
O245 O 0.29535 0.89816 0.87868 0.0
C246 C 0.35115 0.82846 0.79367 0.0
C247 C 0.17931 0.81395 0.82038 0.0
C248 C 0.23586 0.73137 0.81009 0.0
C249 C 0.2567 0.84627 0.7043 0.0
C250 C 0.26167 0.81162 0.94327 0.0
C251 C 0.32645 0.91335 0.86157 0.0
O252 O 0.33486 0.81374 0.83106 0.0
O253 O 0.20661 0.5252 0.79126 0.0
Zn254 Zn 0.1845 0.47343 0.78075 0.0
O255 O 0.20717 0.45387 0.81633 0.0
Zn256 Zn 0.24098 0.45059 0.77933 0.0
Zn257 Zn 0.22949 0.4864 0.86579 0.0
Zn258 Zn 0.17321 0.40724 0.83765 0.0
O259 O 0.23751 0.4039 0.78797 0.0
O260 O 0.17972 0.3703 0.7978 0.0
O261 O 0.18377 0.4625 0.71313 0.0
O262 O 0.22763 0.45064 0.71314 0.0
O263 O 0.29044 0.48971 0.7924 0.0
O264 O 0.28114 0.51194 0.85687 0.0
O265 O 0.22163 0.45952 0.92403 0.0
O266 O 0.13737 0.45523 0.80714 0.0
O267 O 0.18776 0.40313 0.90313 0.0
O268 O 0.12498 0.40609 0.84527 0.0
C269 C 0.21233 0.53954 0.83147 0.0
C270 C 0.20977 0.3738 0.7868 0.0
C271 C 0.30184 0.51131 0.82655 0.0
C272 C 0.20398 0.45414 0.69193 0.0
C273 C 0.20657 0.42671 0.93303 0.0
C274 C 0.11713 0.42965 0.83313 0.0
O275 O 0.21584 0.52423 0.86739 0.0
O276 O 1.00815 0.85226 0.6336 0.0
Zn277 Zn 0.976 0.79988 0.63192 0.0
O278 O 0.93305 0.78676 0.6632 0.0
Zn279 Zn 0.89771 0.78164 0.6204 0.0
Zn280 Zn 0.94468 0.82511 0.70377 0.0
Zn281 Zn 0.9167 0.74311 0.6967 0.0
O282 O 0.85283 0.73747 0.6332 0.0
O283 O 0.87304 0.70317 0.66056 0.0
O284 O 0.96654 0.78204 0.56571 0.0
O285 O 0.91236 0.77399 0.55831 0.0
O286 O 0.88969 0.82344 0.62017 0.0
O287 O 0.92298 0.85238 0.68118 0.0
O288 O 0.92281 0.80735 0.76466 0.0
O289 O 1.00158 0.78235 0.67087 0.0
O290 O 0.89723 0.74897 0.75751 0.0
O291 O 0.96128 0.73952 0.71516 0.0
C292 C 0.01644 0.87019 0.6713 0.0
C293 C 0.84817 0.70696 0.64238 0.0
C294 C 0.90188 0.84931 0.64862 0.0
C295 C 0.93885 0.7733 0.54163 0.0
C296 C 0.90274 0.77645 0.77991 0.0
C297 C 0.99344 0.75966 0.70315 0.0
O298 O 0.99645 0.85909 0.7068 0.0
O299 O 0.17483 0.15871 0.60666 0.0
Zn300 Zn 0.22696 0.18039 0.60365 0.0
O301 O 0.24268 0.15499 0.64089 0.0
Zn302 Zn 0.24873 0.12265 0.60366 0.0
Zn303 Zn 0.20645 0.13085 0.68529 0.0
Zn304 Zn 0.2874 0.18728 0.66901 0.0
O305 O 0.29324 0.12363 0.62098 0.0
O306 O 0.32696 0.18081 0.63697 0.0
O307 O 0.24329 0.18385 0.53748 0.0
O308 O 0.2559 0.14032 0.53852 0.0
O309 O 0.20757 0.07299 0.60828 0.0
O310 O 0.18075 0.0799 0.66953 0.0
O311 O 0.2286 0.13474 0.74763 0.0
O312 O 0.2432 0.22634 0.63496 0.0
O313 O 0.28574 0.17023 0.73395 0.0
O314 O 0.28923 0.23566 0.67851 0.0
C315 C 0.15783 0.15226 0.64474 0.0
C316 C 0.32357 0.15064 0.62615 0.0
C317 C 0.18312 0.06042 0.63848 0.0
C318 C 0.2541 0.16501 0.51752 0.0
C319 C 0.26068 0.15005 0.76067 0.0
C320 C 0.2669 0.24471 0.66483 0.0
O321 O 0.16988 0.14647 0.68242 0.0
O322 O 0.87108 0.02468 0.63187 0.0
Zn323 Zn 0.84961 0.05452 0.61998 0.0
O324 O 0.87294 0.09598 0.65669 0.0
Zn325 Zn 0.90979 0.13207 0.62213 0.0
Zn326 Zn 0.89169 0.08382 0.70882 0.0
Zn327 Zn 0.83882 0.10942 0.67349 0.0
O328 O 0.90604 0.17578 0.62408 0.0
O329 O 0.84812 0.15299 0.63241 0.0
O330 O 0.85188 0.06592 0.55186 0.0
O331 O 0.90205 0.11715 0.55585 0.0
O332 O 0.95762 0.14062 0.64198 0.0
O333 O 0.94412 0.10672 0.70472 0.0
O334 O 0.88097 0.1028 0.76554 0.0
O335 O 0.80183 0.02529 0.64524 0.0
O336 O 0.8503 0.12757 0.73886 0.0
O337 O 0.78986 0.06331 0.68042 0.0
C338 C 0.87379 0.01427 0.67243 0.0
C339 C 0.87864 0.17882 0.62154 0.0
C340 C 0.96672 0.12815 0.67611 0.0
C341 C 0.87765 0.09215 0.53236 0.0
C342 C 0.86613 0.1212 0.77148 0.0
C343 C 0.78167 0.03154 0.6701 0.0
O344 O 0.87505 0.03166 0.70895 0.0
O345 O 0.18089 1.01118 0.10218 0.0
Zn346 Zn 0.23205 0.04749 0.10335 0.0
O347 O 0.23995 0.0883 0.13716 0.0
Zn348 Zn 0.24214 0.12374 0.097 0.0
Zn349 Zn 0.19969 0.06988 0.17496 0.0
Zn350 Zn 0.28152 0.10709 0.17488 0.0
O351 O 0.2844 0.17059 0.11216 0.0
O352 O 0.32022 0.15305 0.14227 0.0
O353 O 0.24953 0.05974 0.03773 0.0
O354 O 0.25146 0.11165 0.03396 0.0
O355 O 0.1962 0.12484 0.09573 0.0
O356 O 0.16625 0.08197 0.14654 0.0
O357 O 0.21206 0.09322 0.23678 0.0
O358 O 0.25205 0.0239 0.14163 0.0
O359 O 0.27048 0.12387 0.23454 0.0
O360 O 0.28756 0.06402 0.19372 0.0
C361 C 0.16412 0.99887 0.14004 0.0
C362 C 0.3152 0.17707 0.12367 0.0
C363 C 0.16773 0.10425 0.11692 0.0
C364 C 0.25496 0.08716 0.01531 0.0
C365 C 0.2415 0.11552 0.25455 0.0
C366 C 0.27163 0.03228 0.17779 0.0
O367 O 0.17402 0.01717 0.17743 0.0
O368 O 1.00667 0.16797 0.09248 0.0
Zn369 Zn 0.97238 0.18403 0.10716 0.0
O370 O 0.93452 0.15089 0.14464 0.0
Zn371 Zn 0.89617 0.11816 0.10743 0.0
Zn372 Zn 0.95317 0.12771 0.18041 0.0
Zn373 Zn 0.91925 0.17576 0.18471 0.0
O374 O 0.85154 0.11667 0.12636 0.0
O375 O 0.87186 0.16988 0.15814 0.0
O376 O 0.95345 0.1913 0.0475 0.0
O377 O 0.90475 0.13848 0.04329 0.0
O378 O 0.8897 0.06866 0.11044 0.0
O379 O 0.9238 0.07598 0.17192 0.0
O380 O 0.95225 0.13787 0.24755 0.0
O381 O 1.00031 0.22656 0.14602 0.0
O382 O 0.90954 0.15148 0.24697 0.0
O383 O 0.96284 0.22527 0.19911 0.0
C384 C 0.0168 0.15219 0.12041 0.0
C385 C 0.84659 0.14157 0.13997 0.0
C386 C 0.90142 0.05615 0.14152 0.0
C387 C 0.92618 0.16837 0.02567 0.0
C388 C 0.92916 0.14218 0.26845 0.0
C389 C 0.99392 0.23932 0.18208 0.0
O390 O 1.00071 0.13877 0.15838 0.0
O391 O 0.87677 0.851 0.13618 0.0
Zn392 Zn 0.8543 0.79863 0.13029 0.0
O393 O 0.87752 0.78139 0.16848 0.0
Zn394 Zn 0.91059 0.77513 0.13436 0.0
Zn395 Zn 0.90027 0.81522 0.21566 0.0
Zn396 Zn 0.84398 0.73535 0.19081 0.0
O397 O 0.90739 0.72968 0.15158 0.0
O398 O 0.84925 0.69895 0.14849 0.0
O399 O 0.852 0.78168 0.06459 0.0
O400 O 0.89476 0.76817 0.06856 0.0
O401 O 0.96007 0.81533 0.14281 0.0
O402 O 0.95188 0.84029 0.20538 0.0
O403 O 0.89274 0.78949 0.27534 0.0
O404 O 0.80776 0.78228 0.1585 0.0
O405 O 0.86017 0.73253 0.25569 0.0
O406 O 0.79622 0.73442 0.19922 0.0
C407 C 0.88259 0.86684 0.17542 0.0
C408 C 0.8793 0.70128 0.14147 0.0
C409 C 0.97203 0.83844 0.17519 0.0
C410 C 0.87059 0.76998 0.04616 0.0
C411 C 0.87868 0.7568 0.28505 0.0
C412 C 0.78816 0.75759 0.18611 0.0
O413 O 0.88641 0.85301 0.21279 0.0
H414 H 0.58098 0.23192 0.04715 0.0
H415 H 0.54002 0.20138 0.90698 0.0
H416 H 0.52678 0.24962 0.90438 0.0
H417 H 0.52922 0.30167 0.94119 0.0
H418 H 0.56975 0.33093 0.08193 0.0
H419 H 0.58071 0.28154 0.08504 0.0
C420 C 0.56921 0.23578 0.01588 0.0
C421 C 0.56192 0.21344 0.97702 0.0
C422 C 0.56163 0.26324 0.0148 0.0
C423 C 0.54599 0.21834 0.93724 0.0
C424 C 0.53851 0.24592 0.93575 0.0
C425 C 0.54038 0.29722 0.97261 0.0
C426 C 0.54896 0.32018 0.01115 0.0
C427 C 0.54659 0.26873 0.9742 0.0
C428 C 0.56298 0.31375 0.05176 0.0
C429 C 0.56934 0.28557 0.05354 0.0
H430 H 0.71459 0.25517 0.0512 0.0
H431 H 0.73237 0.22627 0.914 0.0
H432 H 0.7848 0.28409 0.90566 0.0
H433 H 0.82342 0.34417 0.93534 0.0
H434 H 0.80386 0.37314 0.07149 0.0
H435 H 0.75447 0.31385 0.08223 0.0
C436 C 0.73002 0.26135 0.01956 0.0
C437 C 0.71937 0.23649 -0.01682 0.0
C438 C 0.75981 0.29473 0.01471 0.0
C439 C 0.73981 0.24499 0.94249 0.0
C440 C 0.76982 0.27806 0.93765 0.0
C441 C 0.80861 0.33737 0.96757 0.0
C442 C 0.81718 0.3631 0.00239 0.0
C443 C 0.77976 0.30333 0.97326 0.0
C444 C 0.79764 0.35391 0.04391 0.0
C445 C 0.76937 0.32001 0.05013 0.0
H446 H 0.68207 0.49054 0.93414 0.0
H447 H 0.66921 0.4671 0.08161 0.0
H448 H 0.7287 0.47648 0.08666 0.0
H449 H 0.78252 0.48663 0.04821 0.0
H450 H 0.79487 0.50799 0.90012 0.0
H451 H 0.73763 0.50427 0.89648 0.0
C452 C 0.69254 0.48806 0.96747 0.0
C453 C 0.67122 0.47789 0.00728 0.0
C454 C 0.72656 0.49272 0.97001 0.0
C455 C 0.68502 0.47457 0.05027 0.0
C456 C 0.71902 0.47989 0.05325 0.0
C457 C 0.77284 0.49072 0.01519 0.0
C458 C 0.79281 0.49716 0.97449 0.0
C459 C 0.73971 0.48815 0.01314 0.0
C460 C 0.77989 0.5026 0.93201 0.0
C461 C 0.74715 0.50054 0.92983 0.0
H462 H 0.73007 0.49867 0.43413 0.0
H463 H 0.69699 0.44751 0.56821 0.0
H464 H 0.74741 0.43834 0.57034 0.0
H465 H 0.79898 0.44236 0.53286 0.0
H466 H 0.83243 0.49309 0.39866 0.0
H467 H 0.78375 0.50531 0.39821 0.0
C468 C 0.73389 0.48556 0.46388 0.0
C469 C 0.70957 0.47349 0.50076 0.0
C470 C 0.76293 0.48034 0.46491 0.0
C471 C 0.71519 0.45694 0.53928 0.0
C472 C 0.744 0.45166 0.54053 0.0
C473 C 0.7958 0.45623 0.50349 0.0
C474 C 0.81914 0.4665 0.46562 0.0
C475 C 0.76775 0.46289 0.50332 0.0
C476 C 0.81482 0.48484 0.42822 0.0
C477 C 0.78692 0.4917 0.42786 0.0
H478 H 0.52824 0.23576 0.43264 0.0
H479 H 0.55052 0.23754 0.58023 0.0
H480 H 0.55677 0.29578 0.58732 0.0
H481 H 0.5603 0.34772 0.55108 0.0
H482 H 0.53874 0.34734 0.40369 0.0
H483 H 0.52731 0.2867 0.39725 0.0
C484 C 0.53419 0.24877 0.46642 0.0
C485 C 0.53939 0.23246 0.50568 0.0
C486 C 0.53797 0.28249 0.47031 0.0
C487 C 0.54673 0.24956 0.5493 0.0
C488 C 0.55033 0.28291 0.55345 0.0
C489 C 0.5529 0.33436 0.51752 0.0
C490 C 0.55084 0.35213 0.4778 0.0
C491 C 0.54672 0.29985 0.51405 0.0
C492 C 0.5406 0.33423 0.43478 0.0
C493 C 0.53424 0.29964 0.43105 0.0
H494 H 0.69075 0.19133 0.42578 0.0
H495 H 0.6467 0.25277 0.48095 0.0
H496 H 0.70308 0.30626 0.47433 0.0
H497 H 0.76582 0.33469 0.46172 0.0
H498 H 0.81217 0.27565 0.40691 0.0
H499 H 0.75399 0.22212 0.40391 0.0
C500 C 0.69352 0.21654 0.43553 0.0
C501 C 0.66489 0.21802 0.45482 0.0
C502 C 0.72639 0.2475 0.43214 0.0
C503 C 0.6686 0.25084 0.46703 0.0
C504 C 0.70079 0.28151 0.4632 0.0
C505 C 0.76306 0.31013 0.44864 0.0
C506 C 0.79288 0.30864 0.43529 0.0
C507 C 0.73 0.27994 0.44733 0.0
C508 C 0.78926 0.2771 0.41749 0.0
C509 C 0.75613 0.24658 0.41603 0.0
H510 H 0.19136 0.63061 0.271 0.0
H511 H 0.21837 0.6495 0.4177 0.0
H512 H 0.22496 0.59747 0.42081 0.0
H513 H 0.22755 0.54968 0.38099 0.0
H514 H 0.20147 0.5304 0.2343 0.0
H515 H 0.18946 0.57942 0.23229 0.0
C516 C 0.19846 0.62324 0.30375 0.0
C517 C 0.20486 0.64427 0.3439 0.0
C518 C 0.20242 0.59335 0.30529 0.0
C519 C 0.21359 0.63403 0.38616 0.0
C520 C 0.21739 0.60428 0.388 0.0
C521 C 0.21903 0.55602 0.34855 0.0
C522 C 0.2159 0.53681 0.30767 0.0
C523 C 0.2126 0.58425 0.3476 0.0
C524 C 0.20418 0.54489 0.2662 0.0
C525 C 0.1975 0.573 0.265 0.0
H526 H 0.4621 0.69646 0.35476 0.0
H527 H 0.49736 0.68315 0.21973 0.0
H528 H 0.44857 0.62209 0.21647 0.0
H529 H 0.39534 0.57317 0.25203 0.0
H530 H 0.36215 0.5882 0.38787 0.0
H531 H 0.41105 0.6483 0.39058 0.0
C532 C 0.4592 0.68039 0.32436 0.0
C533 C 0.48312 0.69444 0.28727 0.0
C534 C 0.43151 0.64568 0.32293 0.0
C535 C 0.47921 0.67295 0.24866 0.0
C536 C 0.45133 0.63812 0.2468 0.0
C537 C 0.39883 0.58961 0.28221 0.0
C538 C 0.37499 0.5762 0.31961 0.0
C539 C 0.42722 0.62429 0.28371 0.0
C540 C 0.38005 0.59775 0.35862 0.0
C541 C 0.40798 0.63218 0.36021 0.0
H542 H 0.45028 0.80909 0.3787 0.0
H543 H 0.46904 0.85061 0.2384 0.0
H544 H 0.41096 0.84543 0.2365 0.0
H545 H 0.35328 0.82515 0.27293 0.0
H546 H 0.33471 0.78145 0.41202 0.0
H547 H 0.39448 0.79168 0.41614 0.0
C548 C 0.44186 0.81728 0.34775 0.0
C549 C 0.46383 0.8299 0.30863 0.0
C550 C 0.4084 0.81371 0.3466 0.0
C551 C 0.45251 0.84055 0.26893 0.0
C552 C 0.41931 0.83758 0.26778 0.0
C553 C 0.36252 0.81828 0.30428 0.0
C554 C 0.33958 0.80232 0.34192 0.0
C555 C 0.39679 0.82362 0.30615 0.0
C556 C 0.35177 0.79341 0.38233 0.0
C557 C 0.38594 0.79927 0.38479 0.0
H558 H 0.4961 0.83617 0.75538 0.0
H559 H 0.43448 0.72777 0.79947 0.0
H560 H 0.38212 0.73311 0.80247 0.0
H561 H 0.35506 0.76981 0.80141 0.0
H562 H 0.41416 0.87782 0.75648 0.0
H563 H 0.46622 0.87146 0.74458 0.0
C564 C 0.47105 0.81363 0.76467 0.0
C565 C 0.46934 0.78187 0.7781 0.0
C566 C 0.44072 0.81691 0.7668 0.0
C567 C 0.43667 0.75275 0.78988 0.0
C568 C 0.40664 0.75571 0.79165 0.0
C569 C 0.3793 0.79186 0.7886 0.0
C570 C 0.38123 0.82432 0.78057 0.0
C571 C 0.40864 0.78791 0.78176 0.0
C572 C 0.41235 0.85258 0.76305 0.0
C573 C 0.44204 0.84896 0.75644 0.0
H574 H 0.19647 0.57475 0.76616 0.0
H575 H 0.23525 0.58318 0.90742 0.0
H576 H 0.24374 0.64249 0.91373 0.0
H577 H 0.24313 0.69274 0.87809 0.0
H578 H 0.20459 0.68522 0.73699 0.0
H579 H 0.19258 0.6243 0.73189 0.0
C580 C 0.20671 0.58952 0.79839 0.0
C581 C 0.2156 0.57468 0.8361 0.0
C582 C 0.21154 0.62364 0.80181 0.0
C583 C 0.22836 0.59399 0.87781 0.0
C584 C 0.23326 0.62793 0.88144 0.0
C585 C 0.23198 0.6778 0.84617 0.0
C586 C 0.22515 0.6936 0.80774 0.0
C587 C 0.22539 0.64312 0.84347 0.0
C588 C 0.21014 0.67366 0.76702 0.0
C589 C 0.20343 0.63893 0.76404 0.0
H590 H 0.35076 0.53611 0.75759 0.0
H591 H 0.33711 0.54544 0.90518 0.0
H592 H 0.39715 0.59421 0.91151 0.0
H593 H 0.45121 0.63751 0.87417 0.0
H594 H 0.46478 0.63061 0.72597 0.0
H595 H 0.40723 0.57733 0.721 0.0
C596 C 0.36117 0.54849 0.79121 0.0
C597 C 0.33947 0.5375 0.8307 0.0
C598 C 0.39555 0.57712 0.79447 0.0
C599 C 0.3532 0.55377 0.8741 0.0
C600 C 0.38752 0.58165 0.87781 0.0
C601 C 0.44178 0.62426 0.84078 0.0
C602 C 0.46203 0.63832 0.80043 0.0
C603 C 0.40855 0.59412 0.83801 0.0
C604 C 0.44955 0.62052 0.75757 0.0
C605 C 0.41662 0.59007 0.75465 0.0
H606 H 0.86245 0.96634 0.60454 0.0
H607 H 0.89185 0.99042 0.74996 0.0
H608 H 0.9013 0.94014 0.75534 0.0
H609 H 0.90443 0.89187 0.71799 0.0
H610 H 0.87517 0.86697 0.57285 0.0
H611 H 0.86209 0.91524 0.56819 0.0
C612 C 0.87081 0.96053 0.63748 0.0
C613 C 0.87685 0.98233 0.67668 0.0
C614 C 0.87628 0.93166 0.64031 0.0
C615 C 0.88716 0.97416 0.71925 0.0
C616 C 0.89265 0.94548 0.72233 0.0
C617 C 0.89518 0.89694 0.68523 0.0
C618 C 0.89127 0.87632 0.64557 0.0
C619 C 0.88784 0.9245 0.68292 0.0
C620 C 0.87851 0.88266 0.60375 0.0
C621 C 0.87116 0.91026 0.60109 0.0
H622 H 0.14043 0.02353 0.70912 0.0
H623 H 0.16551 0.0127 0.56669 0.0
H624 H 0.11685 0.95169 0.565 0.0
H625 H 0.06496 0.90305 0.60275 0.0
H626 H 0.04073 0.91545 0.74525 0.0
H627 H 0.09155 0.97446 0.74801 0.0
C628 C 0.13538 1.00786 0.67764 0.0
C629 C 0.1562 0.02272 0.63787 0.0
C630 C 0.10747 0.9732 0.67688 0.0
C631 C 0.14974 1.00185 0.59772 0.0
C632 C 0.12188 0.96706 0.5967 0.0
C633 C 0.07091 0.91858 0.63449 0.0
C634 C 0.04878 0.90495 0.67354 0.0
C635 C 0.10019 0.9527 0.63587 0.0
C636 C 0.05708 0.92532 0.71453 0.0
C637 C 0.08616 0.95911 0.7162 0.0
H638 H 0.01725 0.15513 0.60958 0.0
H639 H 0.9984 0.11705 0.75154 0.0
H640 H 0.05647 0.12241 0.75512 0.0
H641 H 0.11113 0.13439 0.71627 0.0
H642 H 0.12863 0.17038 0.57323 0.0
H643 H 0.07262 0.16924 0.57189 0.0
C644 C 0.02602 0.1485 0.64156 0.0
C645 C 1.00346 0.13566 0.68017 0.0
C646 C 0.05909 0.15084 0.64305 0.0
C647 C 1.01519 0.1269 0.72121 0.0
C648 C 0.04836 0.12985 0.72326 0.0
C649 C 0.10276 0.1421 0.68486 0.0
C650 C 0.12401 0.15215 0.64485 0.0
C651 C 0.07027 0.14114 0.68409 0.0
C652 C 0.11274 0.16219 0.60448 0.0
C653 C 0.0807 0.16167 0.60365 0.0
H654 H 0.16152 0.15967 0.08327 0.0
H655 H 0.10138 0.05299 0.1345 0.0
H656 H 0.04881 0.05798 0.13687 0.0
H657 H 0.02129 0.09421 0.13294 0.0
H658 H 0.07902 0.20035 0.08065 0.0
H659 H 0.13115 0.19404 0.06978 0.0
C660 C 0.13675 0.13739 0.09405 0.0
C661 C 0.13554 0.10633 0.10966 0.0
C662 C 0.10634 0.14045 0.09574 0.0
C663 C 0.1032 0.0775 0.12325 0.0
C664 C 0.07306 0.08025 0.12465 0.0
C665 C 0.04526 0.11584 0.1188 0.0
C666 C 0.04683 0.14782 0.10837 0.0
C667 C 0.07463 0.11191 0.11252 0.0
C668 C 0.07754 0.17551 0.08911 0.0
C669 C 0.10726 0.17193 0.08306 0.0
H670 H 0.86514 0.89911 0.10734 0.0
H671 H 0.90565 0.91322 0.24843 0.0
H672 H 0.91249 0.97199 0.25103 0.0
H673 H 0.90992 0.02023 0.21231 0.0
H674 H 0.86975 1.00721 0.07129 0.0
H675 H 0.85927 0.94671 0.06993 0.0
C676 C 0.87543 0.91501 0.1387 0.0
C677 C 0.88524 0.90188 0.17747 0.0
C678 C 0.87925 0.94884 0.14003 0.0
C679 C 0.89804 0.92267 0.21803 0.0
C680 C 0.90198 0.9563 0.21956 0.0
C681 C 0.89869 1.00417 0.18124 0.0
C682 C 0.89099 0.01835 0.14174 0.0
C683 C 0.89309 0.96977 0.18061 0.0
C684 C 0.87594 0.99694 0.10214 0.0
C685 C 0.87015 0.96245 0.10127 0.0
H686 H 0.12226 0.96622 0.21388 0.0
H687 H 0.13247 0.95415 0.06603 0.0
H688 H 0.07494 0.90065 0.06479 0.0
H689 H 0.01935 0.86077 0.10434 0.0
H690 H 1.00894 0.87543 0.25136 0.0
H691 H 0.0691 0.92431 0.25426 0.0
C692 C 0.11212 0.95177 0.1814 0.0
C693 C 0.13139 0.96445 0.14002 0.0
C694 C 0.07887 0.92157 0.18072 0.0
C695 C 0.11799 0.94513 0.09836 0.0
C696 C 0.08508 0.91456 0.09758 0.0
C697 C 0.0305 0.87435 0.13709 0.0
C698 C 1.00968 0.86483 0.1774 0.0
C699 C 0.06491 0.90304 0.13833 0.0
C700 C 0.02435 0.88263 0.21967 0.0
C701 C 0.05873 0.91056 0.22142 0.0
H702 H 0.52687 0.14382 0.30233 0.0
H703 H 0.51078 0.03986 0.32799 0.0
H704 H 0.52131 0.03368 0.24553 0.0
H705 H 0.54593 0.0625 0.17065 0.0
H706 H 0.5696 0.16978 0.14905 0.0
H707 H 0.54568 0.17035 0.22535 0.0
C708 C 0.52428 0.11935 0.28919 0.0
C709 C 0.51785 0.09221 0.3203 0.0
C710 C 0.53298 0.11717 0.24292 0.0
C711 C 0.51538 0.06084 0.30391 0.0
C712 C 0.52189 0.05755 0.25711 0.0
C713 C 0.54542 0.08579 0.18254 0.0
C714 C 0.56016 0.11626 0.15498 0.0
C715 C 0.53256 0.0863 0.22697 0.0
C716 C 0.55919 0.14627 0.17037 0.0
C717 C 0.54526 0.14656 0.21376 0.0
H718 H 0.96737 0.49288 0.30085 0.0
H719 H 0.90625 0.38123 0.27352 0.0
H720 H 0.90541 0.39272 0.18994 0.0
H721 H 0.91313 0.43494 0.12804 0.0
H722 H 0.97364 0.54647 0.15548 0.0
H723 H 0.98368 0.53488 0.23642 0.0
C724 C 0.95469 0.47112 0.27627 0.0
C725 C 0.93632 0.4364 0.29276 0.0
C726 C 0.95357 0.478 0.22893 0.0
C727 C 0.92047 0.40817 0.26116 0.0
C728 C 0.91962 0.41476 0.21364 0.0
C729 C 0.92888 0.45652 0.15186 0.0
C730 C 0.94205 0.49135 0.13722 0.0
C731 C 0.93455 0.44957 0.19768 0.0
C732 C 0.96303 0.51949 0.16706 0.0
C733 C 0.96874 0.51285 0.21297 0.0
H734 H 0.54781 0.49595 0.32265 0.0
H735 H 0.6556 0.52264 0.30226 0.0
H736 H 0.64611 0.51701 0.2176 0.0
H737 H 0.60406 0.49264 0.15265 0.0
H738 H 0.49574 0.46371 0.17313 0.0
H739 H 0.50842 0.48239 0.25516 0.0
C740 C 0.5694 0.50137 0.29944 0.0
C741 C 0.60204 0.50874 0.31808 0.0
C742 C 0.56342 0.49708 0.25136 0.0
C743 C 0.63021 0.51664 0.28827 0.0
C744 C 0.62468 0.51309 0.24009 0.0
C745 C 0.58346 0.49108 0.17505 0.0
C746 C 0.54891 0.47606 0.15804 0.0
C747 C 0.59092 0.5014 0.22171 0.0
C748 C 0.5224 0.47487 0.18625 0.0
C749 C 0.52965 0.4854 0.23292 0.0
H750 H 0.87672 0.42681 0.80061 0.0
H751 H 0.93624 0.53971 0.78385 0.0
H752 H 0.94515 0.53211 0.70098 0.0
H753 H 0.9367 0.49267 0.63416 0.0
H754 H 0.87529 0.38004 0.6527 0.0
H755 H 0.86713 0.38817 0.73504 0.0
C756 C 0.89165 0.44983 0.77885 0.0
C757 C 0.90607 0.48372 0.79806 0.0
C758 C 0.89674 0.44522 0.73205 0.0
C759 C 0.92479 0.51333 0.76949 0.0
C760 C 0.93013 0.50898 0.7224 0.0
C761 C 0.92199 0.47007 0.65661 0.0
C762 C 0.90691 0.43586 0.63812 0.0
C763 C 0.91655 0.47499 0.70352 0.0
C764 C 0.88719 0.40657 0.66671 0.0
C765 C 0.8824 0.41119 0.71352 0.0
H766 H 0.54447 0.41762 0.65519 0.0
H767 H 0.5713 0.52653 0.66628 0.0
H768 H 0.55704 0.51873 0.74956 0.0
H769 H 0.54447 0.48284 0.82016 0.0
H770 H 0.51669 0.37367 0.80895 0.0
H771 H 0.52314 0.37932 0.72396 0.0
C772 C 0.54674 0.43945 0.67588 0.0
C773 C 0.55954 0.47272 0.6555 0.0
C774 C 0.53845 0.4347 0.72329 0.0
C775 C 0.56168 0.50076 0.68179 0.0
C776 C 0.55369 0.49634 0.72923 0.0
C777 C 0.53931 0.46021 0.79887 0.0
C778 C 0.53085 0.42813 0.82021 0.0
C779 C 0.5432 0.46375 0.75051 0.0
C780 C 0.52341 0.39863 0.79281 0.0
C781 C 0.52731 0.40193 0.74446 0.0
H782 H 0.64152 0.13372 0.80077 0.0
H783 H 0.54164 0.04299 0.83311 0.0
H784 H 0.52583 0.03402 0.75014 0.0
H785 H 0.53599 0.05889 0.67133 0.0
H786 H 0.63294 0.15425 0.64121 0.0
H787 H 0.65456 0.1546 0.72002 0.0
C788 C 0.61691 0.11131 0.7892 0.0
C789 C 0.59272 0.08897 0.82224 0.0
C790 C 0.60718 0.10776 0.74201 0.0
C791 C 0.56055 0.06035 0.80767 0.0
C792 C 0.55142 0.05545 0.76045 0.0
C793 C 0.56211 0.07928 0.68183 0.0
C794 C 0.5826 0.10683 0.65111 0.0
C795 C 0.57379 0.08007 0.72767 0.0
C796 C 0.61644 0.13314 0.66483 0.0
C797 C 0.62886 0.13332 0.70976 0.0
H798 H 0.21411 0.46838 0.4757 0.0
H799 H 0.24053 0.38631 0.49228 0.0
H800 H 0.22607 0.38185 0.57548 0.0
H801 H 0.21376 0.40716 0.64422 0.0
H802 H 0.1872 0.48916 0.62747 0.0
H803 H 0.19323 0.48746 0.54265 0.0
C804 C 0.21627 0.44927 0.49759 0.0
C805 C 0.22905 0.42826 0.47887 0.0
C806 C 0.20803 0.447 0.54485 0.0
C807 C 0.23098 0.40288 0.50659 0.0
C808 C 0.22287 0.40046 0.55394 0.0
C809 C 0.20884 0.42427 0.62178 0.0
C810 C 0.20089 0.4488 0.64146 0.0
C811 C 0.21259 0.42328 0.57359 0.0
C812 C 0.19361 0.4703 0.61261 0.0
C813 C 0.19725 0.46946 0.56438 0.0
H814 H 0.63521 0.82839 0.48923 0.0
H815 H 0.53441 0.73743 0.45814 0.0
H816 H 0.53323 0.71317 0.5352 0.0
H817 H 0.55616 0.72255 0.61508 0.0
H818 H 0.65262 0.81714 0.64961 0.0
H819 H 0.66113 0.83483 0.5674 0.0
C820 C 0.61335 0.80302 0.49921 0.0
C821 C 0.58468 0.785 0.46875 0.0
C822 C 0.61225 0.78984 0.54413 0.0
C823 C 0.55643 0.75209 0.48168 0.0
C824 C 0.55581 0.73811 0.52555 0.0
C825 C 0.57964 0.74628 0.60402 0.0
C826 C 0.60394 0.76845 0.63745 0.0
C827 C 0.58294 0.75735 0.55759 0.0
C828 C 0.6339 0.79967 0.62373 0.0
C829 C 0.63849 0.80993 0.57702 0.0
H830 H 0.29962 0.86096 0.63212 0.0
H831 H 0.19702 0.84221 0.67043 0.0
H832 H 0.17753 0.8299 0.58883 0.0
H833 H 0.18616 0.81167 0.51083 0.0
H834 H 0.28629 0.82145 0.47734 0.0
H835 H 0.3105 0.85001 0.55227 0.0
C836 C 0.27355 0.8557 0.62203 0.0
C837 C 0.24971 0.85247 0.65644 0.0
C838 C 0.26183 0.84587 0.57608 0.0
C839 C 0.21569 0.84492 0.64385 0.0
C840 C 0.20446 0.83743 0.59746 0.0
C841 C 0.21339 0.82073 0.51989 0.0
C842 C 0.23429 0.81394 0.48968 0.0
C843 C 0.22665 0.83569 0.56387 0.0
C844 C 0.26962 0.82577 0.50104 0.0
C845 C 0.28351 0.84225 0.54361 0.0
H846 H 0.62896 0.82193 -0.01707 0.0
H847 H 0.51891 0.78845 0.96508 0.0
H848 H 0.51777 0.81139 0.04217 0.0
H849 H 0.54567 0.8329 0.11853 0.0
H850 H 0.65339 0.85991 0.13983 0.0
H851 H 0.65844 0.8489 0.05707 0.0
C852 C 0.60487 0.82008 -0.0043 0.0
C853 C 0.57394 0.80295 0.9688 0.0
C854 C 0.60416 0.83254 0.04053 0.0
C855 C 0.54293 0.80088 -0.01439 0.0
C856 C 0.54227 0.81418 0.02954 0.0
C857 C 0.57055 0.83771 0.10433 0.0
C858 C 0.59931 0.8477 0.13426 0.0
C859 C 0.57242 0.82906 0.0578 0.0
C860 C 0.63124 0.85283 0.11662 0.0
C861 C 0.63391 0.84605 0.06965 0.0
H862 H 0.20054 0.78352 -0.00897 0.0
H863 H 0.3109 0.81737 0.00513 0.0
H864 H 0.30275 0.80075 0.08728 0.0
H865 H 0.26519 0.77925 0.15519 0.0
H866 H 0.15458 0.74386 0.14307 0.0
H867 H 0.16153 0.75754 0.05914 0.0
C868 C 0.22271 0.78735 0.01233 0.0
C869 C 0.25632 0.80203 -0.00734 0.0
C870 C 0.2177 0.7771 0.05929 0.0
C871 C 0.28485 0.80624 0.0199 0.0
C872 C 0.28022 0.7967 0.06668 0.0
C873 C 0.24255 0.77424 0.13398 0.0
C874 C 0.20957 0.76103 0.15472 0.0
C875 C 0.24688 0.78239 0.08665 0.0
C876 C 0.18019 0.75397 0.1273 0.0
C877 C 0.18426 0.7621 0.07967 0.0
H878 H 0.26934 0.45309 0.97396 0.0
H879 H 0.15961 0.37772 -0.007 0.0
H880 H 0.17094 0.3707 0.07528 0.0
H881 H 0.21023 0.39448 0.1433 0.0
H882 H 0.31967 0.47128 0.12409 0.0
H883 H 0.31066 0.4686 0.03943 0.0
C884 C 0.24811 0.43466 -0.0039 0.0
C885 C 0.21363 0.41657 -0.02142 0.0
C886 C 0.25482 0.4312 0.04289 0.0
C887 C 0.18625 0.39207 0.00649 0.0
C888 C 0.19273 0.38823 0.05331 0.0
C889 C 0.23222 0.41002 0.12037 0.0
C890 C 0.26531 0.43374 0.13941 0.0
C891 C 0.22662 0.40892 0.07221 0.0
C892 C 0.29394 0.45311 0.10986 0.0
C893 C 0.28871 0.45179 0.06165 0.0
H894 H 0.88846 0.7272 0.84595 0.0
H895 H 0.87953 0.81875 0.81381 0.0
H896 H 0.8609 0.82019 0.89351 0.0
H897 H 0.85743 0.80177 0.97485 0.0
H898 H 0.87336 0.71471 0.00882 0.0
H899 H 0.87817 0.70447 0.92598 0.0
C900 C 0.88162 0.74688 0.85632 0.0
C901 C 0.88583 0.77314 0.82487 0.0
C902 C 0.87246 0.74847 0.90259 0.0
C903 C 0.87701 0.79866 0.83817 0.0
C904 C 0.86634 0.79948 0.88356 0.0
C905 C 0.86096 0.78001 0.9638 0.0
C906 C 0.86551 0.7593 -0.00281 0.0
C907 C 0.8655 0.77549 0.91654 0.0
C908 C 0.87028 0.73122 -0.01686 0.0
C909 C 0.87312 0.72542 0.93598 0.0
H910 H 0.23224 0.08695 0.80237 0.0
H911 H 0.30889 0.19678 0.8216 0.0
H912 H 0.31923 0.18518 0.90218 0.0
H913 H 0.30002 0.14526 0.96919 0.0
H914 H 0.2237 0.03536 0.95008 0.0
H915 H 0.22058 0.04504 0.86632 0.0
C916 C 0.25134 0.10818 0.82431 0.0
C917 C 0.2691 0.14275 0.80724 0.0
C918 C 0.25742 0.10118 0.86998 0.0
C919 C 0.29463 0.17008 0.83482 0.0
C920 C 0.30056 0.16344 0.8806 0.0
C921 C 0.28356 0.12331 0.94626 0.0
C922 C 0.26175 0.08985 0.96521 0.0
C923 C 0.28131 0.12931 0.89884 0.0
C924 C 0.24074 0.06131 0.93577 0.0
C925 C 0.23858 0.06696 0.88818 0.0
H926 H 0.92591 0.16974 0.81038 0.0
H927 H 0.81443 0.10762 0.8333 0.0
H928 H 0.82316 0.12354 0.91645 0.0
H929 H 0.86376 0.14513 -0.01674 0.0
H930 H 0.97554 0.20562 0.96019 0.0
H931 H 0.96561 0.20152 0.87574 0.0
C932 C 0.90359 0.16065 0.8336 0.0
C933 C 0.86977 0.1373 0.81697 0.0
C934 C 0.90897 0.16944 0.88091 0.0
C935 C 0.84067 0.1256 0.84624 0.0
C936 C 0.84571 0.13452 0.89352 0.0
C937 C 0.88582 0.15812 0.95961 0.0
C938 C 0.92027 0.17474 0.97726 0.0
C939 C 0.87991 0.1549 0.91147 0.0
C940 C 0.9488 0.19237 0.94695 0.0
C941 C 0.94315 0.18978 0.89881 0.0
H942 H 0.29462 0.14488 0.31772 0.0
H943 H 0.18861 0.12288 0.29147 0.0
H944 H 0.18623 0.14427 0.36927 0.0
H945 H 0.21109 0.1609 0.44819 0.0
H946 H 0.31404 0.17583 0.47715 0.0
H947 H 0.32149 0.16669 0.39459 0.0
C948 C 0.27125 0.14531 0.32884 0.0
C949 C 0.24168 0.13184 0.29945 0.0
C950 C 0.26965 0.15655 0.37405 0.0
C951 C 0.2115 0.13254 0.31404 0.0
C952 C 0.21015 0.1449 0.35836 0.0
C953 C 0.23552 0.16331 0.43584 0.0
C954 C 0.26211 0.1692 0.46785 0.0
C955 C 0.23863 0.15585 0.38916 0.0
C956 C 0.29345 0.1715 0.45243 0.0
C957 C 0.29754 0.16597 0.40552 0.0
H958 H 0.8681 0.10953 0.31585 0.0
H959 H 0.98062 0.15845 0.33189 0.0
H960 H 0.97406 0.14532 0.4153 0.0
H961 H 0.93671 0.12105 0.48309 0.0
H962 H 0.824 0.06953 0.46844 0.0
H963 H 0.83003 0.08174 0.38421 0.0
C964 C 0.89105 0.11745 0.33791 0.0
C965 C 0.92476 0.13525 0.31849 0.0
C966 C 0.887 0.10896 0.38546 0.0
C967 C 0.95446 0.14483 0.34661 0.0
C968 C 0.95073 0.13728 0.39405 0.0
C969 C 0.91345 0.11235 0.46136 0.0
C970 C 0.88003 0.09481 0.48147 0.0
C971 C 0.91719 0.11943 0.4137 0.0
C972 C 0.84998 0.08302 0.45325 0.0
C973 C 0.85346 0.09025 0.4054 0.0
H974 H 0.94144 0.78583 0.32709 0.0
H975 H 0.8327 0.70672 0.34457 0.0
H976 H 0.84414 0.69951 0.42669 0.0
H977 H 0.88277 0.72382 0.4952 0.0
H978 H 0.99122 0.80388 0.47776 0.0
H979 H 0.9827 0.80188 0.39296 0.0
C980 C 0.92047 0.76662 0.34887 0.0
C981 C 0.88616 0.74747 0.33094 0.0
C982 C 0.92728 0.76285 0.39556 0.0
C983 C 0.85918 0.72194 0.35838 0.0
C984 C 0.86572 0.71793 0.4051 0.0
C985 C 0.90472 0.74007 0.47256 0.0
C986 C 0.93732 0.7645 0.49211 0.0
C987 C 0.89932 0.73938 0.42439 0.0
C988 C 0.9659 0.78502 0.46305 0.0
C989 C 0.96091 0.78415 0.41479 0.0
H990 H 0.38644 0.91264 0.87865 0.0
H991 H 0.33503 0.97249 0.90829 0.0
H992 H 0.38783 0.01654 0.95051 0.0
H993 H 0.4499 0.03952 0.97459 0.0
H994 H 0.49961 0.97747 0.94821 0.0
H995 H 0.44584 0.9323 0.90989 0.0
C996 C 0.38677 0.93538 0.89438 0.0
C997 C 0.3571 0.93976 0.88945 0.0
C998 C 0.4168 0.95993 0.91944 0.0
C999 C 0.35757 0.96874 0.91113 0.0
C1000 C 0.38777 0.99385 0.93526 0.0
C1001 C 0.44881 0.01583 0.96111 0.0
C1002 C 0.479 0.01203 0.96419 0.0
C1003 C 0.4177 0.98992 0.93911 0.0
C1004 C 0.4769 0.98104 0.94678 0.0
C1005 C 0.44621 0.95536 0.92441 0.0
H1006 H 0.98518 0.42354 0.93304 0.0
H1007 H 0.04912 0.5362 0.91577 0.0
H1008 H 0.09484 0.52815 0.87918 0.0
H1009 H 0.11578 0.48954 0.85001 0.0
H1010 H 0.05411 0.37702 0.86951 0.0
H1011 H 1.00804 0.38463 0.90731 0.0
C1012 C 1.0092 0.44643 0.92153 0.0
C1013 C 1.0135 0.48057 0.92704 0.0
C1014 C 0.03551 0.44156 0.90054 0.0
C1015 C 0.04501 0.50976 0.91225 0.0
C1016 C 0.0711 0.50511 0.89103 0.0
C1017 C 0.09212 0.46644 0.86203 0.0
C1018 C 0.0881 0.43252 0.85583 0.0
C1019 C 0.06639 0.47117 0.88449 0.0
C1020 C 0.05774 0.40326 0.87319 0.0
C1021 C 0.03149 0.4077 0.89489 0.0
H1022 H 0.54062 0.64068 0.85872 0.0
H1023 H 0.65006 0.69486 0.89878 0.0
H1024 H 0.64087 0.64232 0.94207 0.0
H1025 H 0.60209 0.57997 0.96494 0.0
H1026 H 0.49206 0.5274 0.92759 0.0
H1027 H 0.501 0.5807 0.88742 0.0
C1028 C 0.56262 0.64104 0.8768 0.0
C1029 C 0.59631 0.67151 0.87454 0.0
C1030 C 0.55686 0.61111 0.90234 0.0
C1031 C 0.62409 0.67179 0.89942 0.0
C1032 C 0.61874 0.64171 0.92418 0.0
C1033 C 0.5799 0.58023 0.94848 0.0
C1034 C 0.54634 0.54938 0.94918 0.0
C1035 C 0.5853 0.61109 0.92544 0.0
C1036 C 0.51799 0.55055 0.92798 0.0
C1037 C 0.52322 0.581 0.90462 0.0
H1038 H 0.98528 0.57381 0.44677 0.0
H1039 H 0.05507 0.5309 0.44548 0.0
H1040 H 0.10212 0.58668 0.41469 0.0
H1041 H 0.12182 0.6456 0.38225 0.0
H1042 H 0.05348 0.69 0.38552 0.0
H1043 H 1.00724 0.63552 0.42158 0.0
C1044 C 1.01094 0.57676 0.44037 0.0
C1045 C 0.01646 0.54786 0.4482 0.0
C1046 C 0.03787 0.60898 0.42251 0.0
C1047 C 0.05002 0.55248 0.44009 0.0
C1048 C 0.07685 0.58434 0.42208 0.0
C1049 C 0.09678 0.64343 0.39095 0.0
C1050 C 0.09079 0.67159 0.38032 0.0
C1051 C 0.07078 0.61239 0.41215 0.0
C1052 C 0.05864 0.66871 0.39294 0.0
C1053 C 0.03226 0.63752 0.41347 0.0
H1054 H 0.45253 0.42336 0.45554 0.0
H1055 H 0.50428 0.53566 0.43276 0.0
H1056 H 0.45203 0.52847 0.39137 0.0
H1057 H 0.39316 0.4901 0.35818 0.0
H1058 H 0.34016 0.37805 0.38319 0.0
H1059 H 0.39176 0.3853 0.42689 0.0
C1060 C 0.45234 0.44641 0.44199 0.0
C1061 C 0.4826 0.48013 0.44724 0.0
C1062 C 0.42223 0.44199 0.41799 0.0
C1063 C 0.48152 0.50955 0.42969 0.0
C1064 C 0.45171 0.50535 0.40559 0.0
C1065 C 0.39287 0.46708 0.3728 0.0
C1066 C 0.36294 0.43331 0.36634 0.0
C1067 C 0.42222 0.47164 0.39877 0.0
C1068 C 0.36284 0.40415 0.38696 0.0
C1069 C 0.39234 0.40838 0.41209 0.0
H1070 H 0.54683 0.91061 0.36892 0.0
H1071 H 0.65854 0.97029 0.39417 0.0
H1072 H 0.65074 0.01393 0.43896 0.0
H1073 H 0.6122 0.0366 0.46662 0.0
H1074 H 0.50018 0.97487 0.44383 0.0
H1075 H 0.50797 0.93003 0.40309 0.0
C1076 C 0.56958 0.93323 0.38417 0.0
C1077 C 0.60343 0.93766 0.37726 0.0
C1078 C 0.56469 0.95759 0.41057 0.0
C1079 C 0.63238 0.96648 0.39846 0.0
C1080 C 0.62782 0.99137 0.42407 0.0
C1081 C 0.58938 0.01308 0.45335 0.0
C1082 C 0.55553 1.00929 0.4582 0.0
C1083 C 0.59413 0.9874 0.42983 0.0
C1084 C 0.52637 0.97847 0.44103 0.0
C1085 C 0.5309 0.95297 0.4173 0.0
H1086 H 0.11798 0.36591 0.29354 0.0
H1087 H 0.17025 0.30773 0.25796 0.0
H1088 H 0.11611 0.26198 0.22098 0.0
H1089 H 0.05557 0.24088 0.19381 0.0
H1090 H 1.00191 0.29711 0.23194 0.0
H1091 H 0.05517 0.34157 0.27288 0.0
C1092 C 0.11743 0.34295 0.27827 0.0
C1093 C 0.14838 0.34041 0.27835 0.0
C1094 C 0.08617 0.31681 0.25697 0.0
C1095 C 0.14697 0.31032 0.25877 0.0
C1096 C 0.11606 0.28433 0.2372 0.0
C1097 C 0.05549 0.26295 0.21097 0.0
C1098 C 0.02501 0.26619 0.20883 0.0
C1099 C 0.08583 0.28775 0.23516 0.0
C1100 C 0.02505 0.29426 0.23253 0.0
C1101 C 0.05551 0.3196 0.25594 0.0
H1102 H 0.65476 0.75298 0.2779 0.0
H1103 H 0.72387 0.8657 0.27523 0.0
H1104 H 0.77063 0.85719 0.24268 0.0
H1105 H 0.79045 0.81809 0.21049 0.0
H1106 H 0.72284 0.7053 0.21573 0.0
H1107 H 0.67658 0.71345 0.25177 0.0
C1108 C 0.68019 0.77575 0.27067 0.0
C1109 C 0.68566 0.81007 0.27873 0.0
C1110 C 0.70691 0.77059 0.2519 0.0
C1111 C 0.71891 0.83912 0.26964 0.0
C1112 C 0.74555 0.83422 0.25065 0.0
C1113 C 0.7655 0.79517 0.2193 0.0
C1114 C 0.75974 0.76102 0.20936 0.0
C1115 C 0.73956 0.80014 0.24077 0.0
C1116 C 0.72776 0.73174 0.22244 0.0
C1117 C 0.7014 0.73648 0.24307 0.0
H1118 H 0.27513 0.91081 0.29487 0.0
H1119 H 0.1635 0.86085 0.26868 0.0
H1120 H 0.17198 0.91403 0.22866 0.0
H1121 H 0.21139 0.97288 0.19659 0.0
H1122 H 0.32265 0.02454 0.22532 0.0
H1123 H 0.31411 0.97234 0.269 0.0
C1124 C 0.25254 0.91163 0.28086 0.0
C1125 C 0.21862 0.88155 0.28455 0.0
C1126 C 0.25768 0.9424 0.25793 0.0
C1127 C 0.18974 0.88342 0.26662 0.0
C1128 C 0.19467 0.91379 0.24339 0.0
C1129 C 0.23388 0.97276 0.21238 0.0
C1130 C 0.26783 1.00231 0.20681 0.0
C1131 C 0.22856 0.94308 0.23803 0.0
C1132 C 0.29643 1.00211 0.22864 0.0
C1133 C 0.29145 0.97224 0.25356 0.0
H1134 H 0.78153 0.97233 0.69678 0.0
H1135 H 0.71752 0.02167 0.70093 0.0
H1136 H 0.67139 0.9699 0.74185 0.0
H1137 H 0.64881 0.9098 0.774 0.0
H1138 H 0.71485 0.86254 0.77244 0.0
H1139 H 0.76104 0.91482 0.73358 0.0
C1140 C 0.75735 0.97178 0.70619 0.0
C1141 C 0.75267 1.00065 0.69461 0.0
C1142 C 0.73156 0.94246 0.73067 0.0
C1143 C 0.72166 0.99977 0.70869 0.0
C1144 C 0.69537 0.97017 0.73222 0.0
C1145 C 0.67346 0.91101 0.76565 0.0
C1146 C 0.67815 0.88193 0.77616 0.0
C1147 C 0.69997 0.94127 0.74316 0.0
C1148 C 0.71043 0.88434 0.76524 0.0
C1149 C 0.73677 0.91418 0.74259 0.0
H1150 H 0.05022 0.81955 0.73194 0.0
H1151 H 1.00345 0.70662 0.73972 0.0
H1152 H 0.05602 0.71381 0.78106 0.0
H1153 H 0.11713 0.75254 0.80907 0.0
H1154 H 0.1625 0.86551 0.80296 0.0
H1155 H 0.10819 0.85797 0.76767 0.0
C1156 C 0.05143 0.79642 0.74283 0.0
C1157 C 0.0232 0.76249 0.73191 0.0
C1158 C 0.0814 0.80087 0.76705 0.0
C1159 C 0.02482 0.7329 0.74732 0.0
C1160 C 0.05493 0.7371 0.77088 0.0
C1161 C 0.11497 0.77558 0.80078 0.0
C1162 C 0.14417 0.80968 0.80854 0.0
C1163 C 0.08363 0.77098 0.78018 0.0
C1164 C 0.14062 0.83908 0.79782 0.0
C1165 C 0.10963 0.83473 0.77716 0.0
H1166 H 0.20697 0.24726 0.67609 0.0
H1167 H 0.31725 0.30368 0.71221 0.0
H1168 H 0.30848 0.34724 0.75536 0.0
H1169 H 0.26961 0.36967 0.78122 0.0
H1170 H 0.15893 0.31154 0.74742 0.0
H1171 H 0.16768 0.26764 0.70565 0.0
C1172 C 0.22933 0.26929 0.69291 0.0
C1173 C 0.26306 0.27259 0.68984 0.0
C1174 C 0.22384 0.29356 0.7186 0.0
C1175 C 0.29125 0.30072 0.71331 0.0
C1176 C 0.28613 0.32551 0.73815 0.0
C1177 C 0.24723 0.34724 0.76508 0.0
C1178 C 0.21353 0.3441 0.76744 0.0
C1179 C 0.25255 0.3222 0.74093 0.0
C1180 C 0.18499 0.31463 0.74658 0.0
C1181 C 0.1901 0.28968 0.72229 0.0
H1182 H 0.72267 0.5733 0.54581 0.0
H1183 H 0.67336 0.63717 0.55602 0.0
H1184 H 0.72537 0.68276 0.59787 0.0
H1185 H 0.78594 0.70538 0.62778 0.0
H1186 H 0.83377 0.63999 0.61975 0.0
H1187 H 0.78074 0.59359 0.58143 0.0
C1188 C 0.72324 0.59728 0.55697 0.0
C1189 C 0.69435 0.60216 0.54676 0.0
C1190 C 0.75283 0.62285 0.58171 0.0
C1191 C 0.69525 0.63289 0.56286 0.0
C1192 C 0.725 0.65889 0.58682 0.0
C1193 C 0.78468 0.6808 0.61815 0.0
C1194 C 0.81411 0.67635 0.6265 0.0
C1195 C 0.75408 0.65428 0.59598 0.0
C1196 C 0.81168 0.64416 0.61413 0.0
C1197 C 0.78142 0.61774 0.59181 0.0
H1198 H 0.32592 0.08943 0.62389 0.0
H1199 H 0.39023 0.20139 0.60104 0.0
H1200 H 0.43706 0.19226 0.57026 0.0
H1201 H 0.45772 0.15229 0.54426 0.0
H1202 H 0.39473 0.04045 0.56796 0.0
H1203 H 0.34918 0.04971 0.60431 0.0
C1204 C 0.35033 0.11197 0.61266 0.0
C1205 C 0.35431 0.14618 0.61449 0.0
C1206 C 0.37711 0.10643 0.59477 0.0
C1207 C 0.38635 0.17493 0.60025 0.0
C1208 C 0.41304 0.16964 0.58231 0.0
C1209 C 0.43401 0.1298 0.55742 0.0
C1210 C 0.42928 0.09551 0.55251 0.0
C1211 C 0.40835 0.13547 0.57845 0.0
C1212 C 0.39891 0.06695 0.57094 0.0
C1213 C 0.3729 0.07233 0.59159 0.0
H1214 H 0.87972 0.30228 0.50546 0.0
H1215 H 0.9876 0.35771 0.55253 0.0
H1216 H 0.97761 0.30533 0.5969 0.0
H1217 H 0.93834 0.24321 0.62012 0.0
H1218 H 0.82961 0.18976 0.57622 0.0
H1219 H 0.83967 0.24239 0.53332 0.0
C1220 C 0.90127 0.3029 0.52505 0.0
C1221 C 0.93475 0.33366 0.5246 0.0
C1222 C 0.89496 0.2732 0.55142 0.0
C1223 C 0.96186 0.33431 0.55162 0.0
C1224 C 0.95603 0.30438 0.57708 0.0
C1225 C 0.9167 0.24313 0.60153 0.0
C1226 C 0.88317 0.21229 0.60127 0.0
C1227 C 0.92271 0.27362 0.57702 0.0
C1228 C 0.85549 0.21296 0.57734 0.0
C1229 C 0.86136 0.24301 0.55246 0.0
H1230 H 0.31353 0.23765 0.10484 0.0
H1231 H 0.38444 0.19615 0.11199 0.0
H1232 H 0.43158 0.25139 0.08034 0.0
H1233 H 0.45169 0.30977 0.04637 0.0
H1234 H 0.38254 0.35325 0.04158 0.0
H1235 H 0.33553 0.29883 0.07678 0.0
C1236 C 0.3394 0.24075 0.09993 0.0
C1237 C 0.34523 0.21239 0.11062 0.0
C1238 C 0.36652 0.27279 0.08176 0.0
C1239 C 0.37908 0.21727 0.10437 0.0
C1240 C 0.40602 0.24885 0.08594 0.0
C1241 C 0.42629 0.30743 0.05293 0.0
C1242 C 0.42042 0.33538 0.04039 0.0
C1243 C 0.39983 0.27647 0.07374 0.0
C1244 C 0.3877 0.33217 0.05044 0.0
C1245 C 0.36086 0.30101 0.07052 0.0
H1246 H 0.78347 0.08101 0.12926 0.0
H1247 H 0.83138 0.1942 0.12255 0.0
H1248 H 0.77716 0.18806 0.08886 0.0
H1249 H 0.71808 0.15063 0.05521 0.0
H1250 H 0.66853 0.03758 0.06493 0.0
H1251 H 0.72149 0.04346 0.10359 0.0
C1252 C 0.7819 0.1044 0.12114 0.0
C1253 C 0.81175 0.13815 0.1283 0.0
C1254 C 0.75051 0.10061 0.10175 0.0
C1255 C 0.80898 0.16803 0.11783 0.0
C1256 C 0.77802 0.16448 0.09812 0.0
C1257 C 0.7188 0.12722 0.066 0.0
C1258 C 0.68961 0.0936 0.05644 0.0
C1259 C 0.74898 0.13094 0.0889 0.0
C1260 C 0.69063 0.06363 0.07157 0.0
C1261 C 0.72096 0.06708 0.0936 0.0
H1262 H 0.87817 0.58987 -0.00065 0.0
H1263 H 0.98629 0.63752 0.04495 0.0
H1264 H 0.97724 0.67651 0.09759 0.0
H1265 H 0.93836 0.6962 0.13142 0.0
H1266 H 0.82963 0.64663 0.08799 0.0
H1267 H 0.83903 0.60843 0.03452 0.0
C1268 C 0.9001 0.60922 0.02008 0.0
C1269 C 0.93327 0.61121 0.01722 0.0
C1270 C 0.8943 0.63058 0.05146 0.0
C1271 C 0.96079 0.63574 0.04569 0.0
C1272 C 0.95547 0.65781 0.07612 0.0
C1273 C 0.91652 0.67684 0.1106 0.0
C1274 C 0.88316 0.67434 0.11404 0.0
C1275 C 0.92225 0.6552 0.0796 0.0
C1276 C 0.85537 0.64898 0.08668 0.0
C1277 C 0.86089 0.62739 0.05567 0.0
loop_
_geom_bond_atom_site_label_1
_geom_bond_atom_site_label_2
_geom_bond_distance
_geom_bond_site_symmetry_2
_ccdc_geom_bond_type
O0 Zn1 1.953 . S
O0 C16 1.225 1_556 S
Zn1 O0 1.953 . S
Zn1 O2 1.949 1_556 S
Zn1 O8 1.919 . S
Zn1 O13 1.924 . S
O2 Zn1 1.949 1_554 S
O2 Zn3 1.923 1_554 S
O2 Zn4 1.950 . S
O2 Zn5 1.945 . S
Zn3 O2 1.923 1_556 S
Zn3 O6 1.933 . S
Zn3 O9 1.941 . S
Zn3 O10 1.965 . S
Zn4 O2 1.950 . S
Zn4 O11 1.938 . S
Zn4 O12 1.906 . S
Zn4 O22 1.953 . S
Zn5 O2 1.945 . S
Zn5 O7 1.932 . S
Zn5 O14 1.977 . S
Zn5 O15 1.910 . S
O6 Zn3 1.933 . S
O6 C17 1.226 . S
O7 Zn5 1.932 . S
O7 C17 1.307 1_554 S
O8 Zn1 1.919 . S
O8 C19 1.253 . S
O9 Zn3 1.941 . S
O9 C19 1.283 . S
O10 Zn3 1.965 . S
O10 C18 1.303 1_556 S
O11 Zn4 1.938 . S
O11 C18 1.247 . S
O12 Zn4 1.906 . S
O12 C20 1.304 . S
O13 Zn1 1.924 . S
O13 C21 1.311 1_556 S
O14 Zn5 1.977 . S
O14 C20 1.272 . S
O15 Zn5 1.910 . S
O15 C21 1.231 . S
C16 O0 1.225 1_554 S
C16 O22 1.298 . S
C17 O6 1.226 . S
C17 O7 1.307 1_556 S
C18 O10 1.303 1_554 S
C18 O11 1.247 . S
C19 O8 1.253 . S
C19 O9 1.283 . S
C20 O12 1.304 . S
C20 O14 1.272 . S
C21 O13 1.311 1_554 S
C21 O15 1.231 . S
O22 Zn4 1.953 . S
O22 C16 1.298 . S
O23 Zn24 1.953 . S
O23 C39 1.225 1_556 S
Zn24 O23 1.953 . S
Zn24 O25 1.949 1_556 S
Zn24 O31 1.919 . S
Zn24 O36 1.924 . S
O25 Zn24 1.949 1_554 S
O25 Zn26 1.923 1_554 S
O25 Zn27 1.950 . S
O25 Zn28 1.945 . S
Zn26 O25 1.923 1_556 S
Zn26 O29 1.933 . S
Zn26 O32 1.941 . S
Zn26 O33 1.965 . S
Zn27 O25 1.950 . S
Zn27 O34 1.938 . S
Zn27 O35 1.906 . S
Zn27 O45 1.953 . S
Zn28 O25 1.945 . S
Zn28 O30 1.932 . S
Zn28 O37 1.977 . S
Zn28 O38 1.910 . S
O29 Zn26 1.933 . S
O29 C40 1.226 . S
O30 Zn28 1.932 . S
O30 C40 1.307 1_554 S
O31 Zn24 1.919 . S
O31 C42 1.253 . S
O32 Zn26 1.941 . S
O32 C42 1.283 . S
O33 Zn26 1.965 . S
O33 C41 1.303 1_556 S
O34 Zn27 1.938 . S
O34 C41 1.247 . S
O35 Zn27 1.906 . S
O35 C43 1.304 . S
O36 Zn24 1.924 . S
O36 C44 1.311 1_556 S
O37 Zn28 1.977 . S
O37 C43 1.272 . S
O38 Zn28 1.910 . S
O38 C44 1.231 . S
C39 O23 1.225 1_554 S
C39 O45 1.298 . S
C40 O29 1.226 . S
C40 O30 1.307 1_556 S
C41 O33 1.303 1_554 S
C41 O34 1.247 . S
C42 O31 1.253 . S
C42 O32 1.283 . S
C43 O35 1.304 . S
C43 O37 1.272 . S
C44 O36 1.311 1_554 S
C44 O38 1.231 . S
O45 Zn27 1.953 . S
O45 C39 1.298 . S
O46 Zn47 1.953 . S
O46 C62 1.225 1_556 S
Zn47 O46 1.953 . S
Zn47 O48 1.949 1_556 S
Zn47 O54 1.919 . S
Zn47 O59 1.924 . S
O48 Zn47 1.949 1_554 S
O48 Zn49 1.923 1_554 S
O48 Zn50 1.950 . S
O48 Zn51 1.945 . S
Zn49 O48 1.923 1_556 S
Zn49 O52 1.933 . S
Zn49 O55 1.941 . S
Zn49 O56 1.965 . S
Zn50 O48 1.950 . S
Zn50 O57 1.938 . S
Zn50 O58 1.906 . S
Zn50 O68 1.953 . S
Zn51 O48 1.945 . S
Zn51 O53 1.932 . S
Zn51 O60 1.977 . S
Zn51 O61 1.910 . S
O52 Zn49 1.933 . S
O52 C63 1.226 . S
O53 Zn51 1.932 . S
O53 C63 1.307 1_554 S
O54 Zn47 1.919 . S
O54 C65 1.253 . S
O55 Zn49 1.941 . S
O55 C65 1.283 . S
O56 Zn49 1.965 . S
O56 C64 1.303 1_556 S
O57 Zn50 1.938 . S
O57 C64 1.247 . S
O58 Zn50 1.906 . S
O58 C66 1.304 . S
O59 Zn47 1.924 . S
O59 C67 1.311 1_556 S
O60 Zn51 1.977 . S
O60 C66 1.272 . S
O61 Zn51 1.910 . S
O61 C67 1.231 . S
C62 O46 1.225 1_554 S
C62 O68 1.298 . S
C63 O52 1.226 . S
C63 O53 1.307 1_556 S
C64 O56 1.303 1_554 S
C64 O57 1.247 . S
C65 O54 1.253 . S
C65 O55 1.283 . S
C66 O58 1.304 . S
C66 O60 1.272 . S
C67 O59 1.311 1_554 S
C67 O61 1.231 . S
O68 Zn50 1.953 . S
O68 C62 1.298 . S
O69 Zn70 1.953 . S
O69 C85 1.225 . S
Zn70 O69 1.953 . S
Zn70 O71 1.949 . S
Zn70 O77 1.919 . S
Zn70 O82 1.924 . S
O71 Zn70 1.949 . S
O71 Zn72 1.923 . S
O71 Zn73 1.950 . S
O71 Zn74 1.945 . S
Zn72 O71 1.923 . S
Zn72 O75 1.933 . S
Zn72 O78 1.941 . S
Zn72 O79 1.965 . S
Zn73 O71 1.950 . S
Zn73 O80 1.938 . S
Zn73 O81 1.906 . S
Zn73 O91 1.953 . S
Zn74 O71 1.945 . S
Zn74 O76 1.932 . S
Zn74 O83 1.977 . S
Zn74 O84 1.910 . S
O75 Zn72 1.933 . S
O75 C86 1.226 . S
O76 Zn74 1.932 . S
O76 C86 1.307 . S
O77 Zn70 1.919 . S
O77 C88 1.253 . S
O78 Zn72 1.941 . S
O78 C88 1.283 . S
O79 Zn72 1.965 . S
O79 C87 1.303 . S
O80 Zn73 1.938 . S
O80 C87 1.247 . S
O81 Zn73 1.906 . S
O81 C89 1.304 . S
O82 Zn70 1.924 . S
O82 C90 1.311 . S
O83 Zn74 1.977 . S
O83 C89 1.272 . S
O84 Zn74 1.910 . S
O84 C90 1.231 . S
C85 O69 1.225 . S
C85 O91 1.298 . S
C86 O75 1.226 . S
C86 O76 1.307 . S
C87 O79 1.303 . S
C87 O80 1.247 . S
C88 O77 1.253 . S
C88 O78 1.283 . S
C89 O81 1.304 . S
C89 O83 1.272 . S
C90 O82 1.311 . S
C90 O84 1.231 . S
O91 Zn73 1.953 . S
O91 C85 1.298 . S
O92 Zn93 1.953 . S
O92 C108 1.225 . S
Zn93 O92 1.953 . S
Zn93 O94 1.949 . S
Zn93 O100 1.919 . S
Zn93 O105 1.924 . S
O94 Zn93 1.949 . S
O94 Zn95 1.923 . S
O94 Zn96 1.950 . S
O94 Zn97 1.945 . S
Zn95 O94 1.923 . S
Zn95 O98 1.933 . S
Zn95 O101 1.941 . S
Zn95 O102 1.965 . S
Zn96 O94 1.950 . S
Zn96 O103 1.938 . S
Zn96 O104 1.906 . S
Zn96 O114 1.953 . S
Zn97 O94 1.945 . S
Zn97 O99 1.932 . S
Zn97 O106 1.977 . S
Zn97 O107 1.910 . S
O98 Zn95 1.933 . S
O98 C109 1.226 . S
O99 Zn97 1.932 . S
O99 C109 1.307 . S
O100 Zn93 1.919 . S
O100 C111 1.253 . S
O101 Zn95 1.941 . S
O101 C111 1.283 . S
O102 Zn95 1.965 . S
O102 C110 1.303 . S
O103 Zn96 1.938 . S
O103 C110 1.247 . S
O104 Zn96 1.906 . S
O104 C112 1.304 . S
O105 Zn93 1.924 . S
O105 C113 1.311 . S
O106 Zn97 1.977 . S
O106 C112 1.272 . S
O107 Zn97 1.910 . S
O107 C113 1.231 . S
C108 O92 1.225 . S
C108 O114 1.298 . S
C109 O98 1.226 . S
C109 O99 1.307 . S
C110 O102 1.303 . S
C110 O103 1.247 . S
C111 O100 1.253 . S
C111 O101 1.283 . S
C112 O104 1.304 . S
C112 O106 1.272 . S
C113 O105 1.311 . S
C113 O107 1.231 . S
O114 Zn96 1.953 . S
O114 C108 1.298 . S
O115 Zn116 1.953 . S
O115 C131 1.225 . S
Zn116 O115 1.953 . S
Zn116 O117 1.949 . S
Zn116 O123 1.919 . S
Zn116 O128 1.924 . S
O117 Zn116 1.949 . S
O117 Zn118 1.923 . S
O117 Zn119 1.950 . S
O117 Zn120 1.945 . S
Zn118 O117 1.923 . S
Zn118 O121 1.933 . S
Zn118 O124 1.941 . S
Zn118 O125 1.965 . S
Zn119 O117 1.950 . S
Zn119 O126 1.938 . S
Zn119 O127 1.906 . S
Zn119 O137 1.953 . S
Zn120 O117 1.945 . S
Zn120 O122 1.932 . S
Zn120 O129 1.977 . S
Zn120 O130 1.910 . S
O121 Zn118 1.933 . S
O121 C132 1.226 . S
O122 Zn120 1.932 . S
O122 C132 1.307 . S
O123 Zn116 1.919 . S
O123 C134 1.253 . S
O124 Zn118 1.941 . S
O124 C134 1.283 . S
O125 Zn118 1.965 . S
O125 C133 1.303 . S
O126 Zn119 1.938 . S
O126 C133 1.247 . S
O127 Zn119 1.906 . S
O127 C135 1.304 . S
O128 Zn116 1.924 . S
O128 C136 1.311 . S
O129 Zn120 1.977 . S
O129 C135 1.272 . S
O130 Zn120 1.910 . S
O130 C136 1.231 . S
C131 O115 1.225 . S
C131 O137 1.298 . S
C132 O121 1.226 . S
C132 O122 1.307 . S
C133 O125 1.303 . S
C133 O126 1.247 . S
C134 O123 1.253 . S
C134 O124 1.283 . S
C135 O127 1.304 . S
C135 O129 1.272 . S
C136 O128 1.311 . S
C136 O130 1.231 . S
O137 Zn119 1.953 . S
O137 C131 1.298 . S
O138 Zn139 1.953 . S
O138 C154 1.225 . S
Zn139 O138 1.953 . S
Zn139 O140 1.949 . S
Zn139 O146 1.919 . S
Zn139 O151 1.924 . S
O140 Zn139 1.949 . S
O140 Zn141 1.923 . S
O140 Zn142 1.950 . S
O140 Zn143 1.945 . S
Zn141 O140 1.923 . S
Zn141 O144 1.933 . S
Zn141 O147 1.941 . S
Zn141 O148 1.965 . S
Zn142 O140 1.950 . S
Zn142 O149 1.938 . S
Zn142 O150 1.906 . S
Zn142 O160 1.953 . S
Zn143 O140 1.945 . S
Zn143 O145 1.932 . S
Zn143 O152 1.977 . S
Zn143 O153 1.910 . S
O144 Zn141 1.933 . S
O144 C155 1.226 . S
O145 Zn143 1.932 . S
O145 C155 1.307 . S
O146 Zn139 1.919 . S
O146 C157 1.253 . S
O147 Zn141 1.941 . S
O147 C157 1.283 . S
O148 Zn141 1.965 . S
O148 C156 1.303 . S
O149 Zn142 1.938 . S
O149 C156 1.247 . S
O150 Zn142 1.906 . S
O150 C158 1.304 . S
O151 Zn139 1.924 . S
O151 C159 1.311 . S
O152 Zn143 1.977 . S
O152 C158 1.272 . S
O153 Zn143 1.910 . S
O153 C159 1.231 . S
C154 O138 1.225 . S
C154 O160 1.298 . S
C155 O144 1.226 . S
C155 O145 1.307 . S
C156 O148 1.303 . S
C156 O149 1.247 . S
C157 O146 1.253 . S
C157 O147 1.283 . S
C158 O150 1.304 . S
C158 O152 1.272 . S
C159 O151 1.311 . S
C159 O153 1.231 . S
O160 Zn142 1.953 . S
O160 C154 1.298 . S
O161 Zn162 1.953 . S
O161 C177 1.225 . S
Zn162 O161 1.953 . S
Zn162 O163 1.949 . S
Zn162 O169 1.919 . S
Zn162 O174 1.924 . S
O163 Zn162 1.949 . S
O163 Zn164 1.923 . S
O163 Zn165 1.950 . S
O163 Zn166 1.945 . S
Zn164 O163 1.923 . S
Zn164 O167 1.933 . S
Zn164 O170 1.941 . S
Zn164 O171 1.965 . S
Zn165 O163 1.950 . S
Zn165 O172 1.938 . S
Zn165 O173 1.906 . S
Zn165 O183 1.953 . S
Zn166 O163 1.945 . S
Zn166 O168 1.932 . S
Zn166 O175 1.977 . S
Zn166 O176 1.910 . S
O167 Zn164 1.933 . S
O167 C178 1.226 . S
O168 Zn166 1.932 . S
O168 C178 1.307 . S
O169 Zn162 1.919 . S
O169 C180 1.253 . S
O170 Zn164 1.941 . S
O170 C180 1.283 . S
O171 Zn164 1.965 . S
O171 C179 1.303 . S
O172 Zn165 1.938 . S
O172 C179 1.247 . S
O173 Zn165 1.906 . S
O173 C181 1.304 . S
O174 Zn162 1.924 . S
O174 C182 1.311 . S
O175 Zn166 1.977 . S
O175 C181 1.272 . S
O176 Zn166 1.910 . S
O176 C182 1.231 . S
C177 O161 1.225 . S
C177 O183 1.298 . S
C178 O167 1.226 . S
C178 O168 1.307 . S
C179 O171 1.303 . S
C179 O172 1.247 . S
C180 O169 1.253 . S
C180 O170 1.283 . S
C181 O173 1.304 . S
C181 O175 1.272 . S
C182 O174 1.311 . S
C182 O176 1.231 . S
O183 Zn165 1.953 . S
O183 C177 1.298 . S
O184 Zn185 1.953 . S
O184 C200 1.225 . S
Zn185 O184 1.953 . S
Zn185 O186 1.949 . S
Zn185 O192 1.919 . S
Zn185 O197 1.924 . S
O186 Zn185 1.949 . S
O186 Zn187 1.923 . S
O186 Zn188 1.950 . S
O186 Zn189 1.945 . S
Zn187 O186 1.923 . S
Zn187 O190 1.933 . S
Zn187 O193 1.941 . S
Zn187 O194 1.965 . S
Zn188 O186 1.950 . S
Zn188 O195 1.938 . S
Zn188 O196 1.906 . S
Zn188 O206 1.953 . S
Zn189 O186 1.945 . S
Zn189 O191 1.932 . S
Zn189 O198 1.977 . S
Zn189 O199 1.910 . S
O190 Zn187 1.933 . S
O190 C201 1.226 . S
O191 Zn189 1.932 . S
O191 C201 1.307 . S
O192 Zn185 1.919 . S
O192 C203 1.253 . S
O193 Zn187 1.941 . S
O193 C203 1.283 . S
O194 Zn187 1.965 . S
O194 C202 1.303 . S
O195 Zn188 1.938 . S
O195 C202 1.247 . S
O196 Zn188 1.906 . S
O196 C204 1.304 . S
O197 Zn185 1.924 . S
O197 C205 1.311 . S
O198 Zn189 1.977 . S
O198 C204 1.272 . S
O199 Zn189 1.910 . S
O199 C205 1.231 . S
C200 O184 1.225 . S
C200 O206 1.298 . S
C201 O190 1.226 . S
C201 O191 1.307 . S
C202 O194 1.303 . S
C202 O195 1.247 . S
C203 O192 1.253 . S
C203 O193 1.283 . S
C204 O196 1.304 . S
C204 O198 1.272 . S
C205 O197 1.311 . S
C205 O199 1.231 . S
O206 Zn188 1.953 . S
O206 C200 1.298 . S
O207 Zn208 1.953 . S
O207 C223 1.225 . S
Zn208 O207 1.953 . S
Zn208 O209 1.949 . S
Zn208 O215 1.919 . S
Zn208 O220 1.924 . S
O209 Zn208 1.949 . S
O209 Zn210 1.923 . S
O209 Zn211 1.950 . S
O209 Zn212 1.945 . S
Zn210 O209 1.923 . S
Zn210 O213 1.933 . S
Zn210 O216 1.941 . S
Zn210 O217 1.965 . S
Zn211 O209 1.950 . S
Zn211 O218 1.938 . S
Zn211 O219 1.906 . S
Zn211 O229 1.953 . S
Zn212 O209 1.945 . S
Zn212 O214 1.932 . S
Zn212 O221 1.977 . S
Zn212 O222 1.910 . S
O213 Zn210 1.933 . S
O213 C224 1.226 . S
O214 Zn212 1.932 . S
O214 C224 1.307 . S
O215 Zn208 1.919 . S
O215 C226 1.253 . S
O216 Zn210 1.941 . S
O216 C226 1.283 . S
O217 Zn210 1.965 . S
O217 C225 1.303 . S
O218 Zn211 1.938 . S
O218 C225 1.247 . S
O219 Zn211 1.906 . S
O219 C227 1.304 . S
O220 Zn208 1.924 . S
O220 C228 1.311 . S
O221 Zn212 1.977 . S
O221 C227 1.272 . S
O222 Zn212 1.910 . S
O222 C228 1.231 . S
C223 O207 1.225 . S
C223 O229 1.298 . S
C224 O213 1.226 . S
C224 O214 1.307 . S
C225 O217 1.303 . S
C225 O218 1.247 . S
C226 O215 1.253 . S
C226 O216 1.283 . S
C227 O219 1.304 . S
C227 O221 1.272 . S
C228 O220 1.311 . S
C228 O222 1.231 . S
O229 Zn211 1.953 . S
O229 C223 1.298 . S
O230 Zn231 1.953 . S
O230 C246 1.225 . S
Zn231 O230 1.953 . S
Zn231 O232 1.949 . S
Zn231 O238 1.919 . S
Zn231 O243 1.924 . S
O232 Zn231 1.949 . S
O232 Zn233 1.923 . S
O232 Zn234 1.950 . S
O232 Zn235 1.945 . S
Zn233 O232 1.923 . S
Zn233 O236 1.933 . S
Zn233 O239 1.941 . S
Zn233 O240 1.965 . S
Zn234 O232 1.950 . S
Zn234 O241 1.938 . S
Zn234 O242 1.906 . S
Zn234 O252 1.953 . S
Zn235 O232 1.945 . S
Zn235 O237 1.932 . S
Zn235 O244 1.977 . S
Zn235 O245 1.910 . S
O236 Zn233 1.933 . S
O236 C247 1.226 . S
O237 Zn235 1.932 . S
O237 C247 1.307 . S
O238 Zn231 1.919 . S
O238 C249 1.253 . S
O239 Zn233 1.941 . S
O239 C249 1.283 . S
O240 Zn233 1.965 . S
O240 C248 1.303 . S
O241 Zn234 1.938 . S
O241 C248 1.247 . S
O242 Zn234 1.906 . S
O242 C250 1.304 . S
O243 Zn231 1.924 . S
O243 C251 1.311 . S
O244 Zn235 1.977 . S
O244 C250 1.272 . S
O245 Zn235 1.910 . S
O245 C251 1.231 . S
C246 O230 1.225 . S
C246 O252 1.298 . S
C247 O236 1.226 . S
C247 O237 1.307 . S
C248 O240 1.303 . S
C248 O241 1.247 . S
C249 O238 1.253 . S
C249 O239 1.283 . S
C250 O242 1.304 . S
C250 O244 1.272 . S
C251 O243 1.311 . S
C251 O245 1.231 . S
O252 Zn234 1.953 . S
O252 C246 1.298 . S
O253 Zn254 1.953 . S
O253 C269 1.225 . S
Zn254 O253 1.953 . S
Zn254 O255 1.949 . S
Zn254 O261 1.919 . S
Zn254 O266 1.924 . S
O255 Zn254 1.949 . S
O255 Zn256 1.923 . S
O255 Zn257 1.950 . S
O255 Zn258 1.945 . S
Zn256 O255 1.923 . S
Zn256 O259 1.933 . S
Zn256 O262 1.941 . S
Zn256 O263 1.965 . S
Zn257 O255 1.950 . S
Zn257 O264 1.938 . S
Zn257 O265 1.906 . S
Zn257 O275 1.953 . S
Zn258 O255 1.945 . S
Zn258 O260 1.932 . S
Zn258 O267 1.977 . S
Zn258 O268 1.910 . S
O259 Zn256 1.933 . S
O259 C270 1.226 . S
O260 Zn258 1.932 . S
O260 C270 1.307 . S
O261 Zn254 1.919 . S
O261 C272 1.253 . S
O262 Zn256 1.941 . S
O262 C272 1.283 . S
O263 Zn256 1.965 . S
O263 C271 1.303 . S
O264 Zn257 1.938 . S
O264 C271 1.247 . S
O265 Zn257 1.906 . S
O265 C273 1.304 . S
O266 Zn254 1.924 . S
O266 C274 1.311 . S
O267 Zn258 1.977 . S
O267 C273 1.272 . S
O268 Zn258 1.910 . S
O268 C274 1.231 . S
C269 O253 1.225 . S
C269 O275 1.298 . S
C270 O259 1.226 . S
C270 O260 1.307 . S
C271 O263 1.303 . S
C271 O264 1.247 . S
C272 O261 1.253 . S
C272 O262 1.283 . S
C273 O265 1.304 . S
C273 O267 1.272 . S
C274 O266 1.311 . S
C274 O268 1.231 . S
O275 Zn257 1.953 . S
O275 C269 1.298 . S
O276 Zn277 1.953 1_455 S
O276 C292 1.225 . S
Zn277 O276 1.953 1_655 S
Zn277 O278 1.949 . S
Zn277 O284 1.919 . S
Zn277 O289 1.924 . S
O278 Zn277 1.949 . S
O278 Zn279 1.923 . S
O278 Zn280 1.950 . S
O278 Zn281 1.945 . S
Zn279 O278 1.923 . S
Zn279 O282 1.933 . S
Zn279 O285 1.941 . S
Zn279 O286 1.965 . S
Zn280 O278 1.950 . S
Zn280 O287 1.938 . S
Zn280 O288 1.906 . S
Zn280 O298 1.953 . S
Zn281 O278 1.945 . S
Zn281 O283 1.932 . S
Zn281 O290 1.977 . S
Zn281 O291 1.910 . S
O282 Zn279 1.933 . S
O282 C293 1.226 . S
O283 Zn281 1.932 . S
O283 C293 1.307 . S
O284 Zn277 1.919 . S
O284 C295 1.253 . S
O285 Zn279 1.941 . S
O285 C295 1.283 . S
O286 Zn279 1.965 . S
O286 C294 1.303 . S
O287 Zn280 1.938 . S
O287 C294 1.247 . S
O288 Zn280 1.906 . S
O288 C296 1.304 . S
O289 Zn277 1.924 . S
O289 C297 1.311 . S
O290 Zn281 1.977 . S
O290 C296 1.272 . S
O291 Zn281 1.910 . S
O291 C297 1.231 . S
C292 O276 1.225 . S
C292 O298 1.298 1_455 S
C293 O282 1.226 . S
C293 O283 1.307 . S
C294 O286 1.303 . S
C294 O287 1.247 . S
C295 O284 1.253 . S
C295 O285 1.283 . S
C296 O288 1.304 . S
C296 O290 1.272 . S
C297 O289 1.311 . S
C297 O291 1.231 . S
O298 Zn280 1.953 . S
O298 C292 1.298 1_655 S
O299 Zn300 1.953 . S
O299 C315 1.225 . S
Zn300 O299 1.953 . S
Zn300 O301 1.949 . S
Zn300 O307 1.919 . S
Zn300 O312 1.924 . S
O301 Zn300 1.949 . S
O301 Zn302 1.923 . S
O301 Zn303 1.950 . S
O301 Zn304 1.945 . S
Zn302 O301 1.923 . S
Zn302 O305 1.933 . S
Zn302 O308 1.941 . S
Zn302 O309 1.965 . S
Zn303 O301 1.950 . S
Zn303 O310 1.938 . S
Zn303 O311 1.906 . S
Zn303 O321 1.953 . S
Zn304 O301 1.945 . S
Zn304 O306 1.932 . S
Zn304 O313 1.977 . S
Zn304 O314 1.910 . S
O305 Zn302 1.933 . S
O305 C316 1.226 . S
O306 Zn304 1.932 . S
O306 C316 1.307 . S
O307 Zn300 1.919 . S
O307 C318 1.253 . S
O308 Zn302 1.941 . S
O308 C318 1.283 . S
O309 Zn302 1.965 . S
O309 C317 1.303 . S
O310 Zn303 1.938 . S
O310 C317 1.247 . S
O311 Zn303 1.906 . S
O311 C319 1.304 . S
O312 Zn300 1.924 . S
O312 C320 1.311 . S
O313 Zn304 1.977 . S
O313 C319 1.272 . S
O314 Zn304 1.910 . S
O314 C320 1.231 . S
C315 O299 1.225 . S
C315 O321 1.298 . S
C316 O305 1.226 . S
C316 O306 1.307 . S
C317 O309 1.303 . S
C317 O310 1.247 . S
C318 O307 1.253 . S
C318 O308 1.283 . S
C319 O311 1.304 . S
C319 O313 1.272 . S
C320 O312 1.311 . S
C320 O314 1.231 . S
O321 Zn303 1.953 . S
O321 C315 1.298 . S
O322 Zn323 1.953 1_565 S
O322 C338 1.225 . S
Zn323 O322 1.953 1_545 S
Zn323 O324 1.949 . S
Zn323 O330 1.919 . S
Zn323 O335 1.924 . S
O324 Zn323 1.949 . S
O324 Zn325 1.923 . S
O324 Zn326 1.950 . S
O324 Zn327 1.945 . S
Zn325 O324 1.923 . S
Zn325 O328 1.933 . S
Zn325 O331 1.941 . S
Zn325 O332 1.965 . S
Zn326 O324 1.950 . S
Zn326 O333 1.938 . S
Zn326 O334 1.906 . S
Zn326 O344 1.953 . S
Zn327 O324 1.945 . S
Zn327 O329 1.932 . S
Zn327 O336 1.977 . S
Zn327 O337 1.910 . S
O328 Zn325 1.933 . S
O328 C339 1.226 . S
O329 Zn327 1.932 . S
O329 C339 1.307 . S
O330 Zn323 1.919 . S
O330 C341 1.253 . S
O331 Zn325 1.941 . S
O331 C341 1.283 . S
O332 Zn325 1.965 . S
O332 C340 1.303 . S
O333 Zn326 1.938 . S
O333 C340 1.247 . S
O334 Zn326 1.906 . S
O334 C342 1.304 . S
O335 Zn323 1.924 . S
O335 C343 1.311 . S
O336 Zn327 1.977 . S
O336 C342 1.272 . S
O337 Zn327 1.910 . S
O337 C343 1.231 . S
C338 O322 1.225 . S
C338 O344 1.298 1_565 S
C339 O328 1.226 . S
C339 O329 1.307 . S
C340 O332 1.303 . S
C340 O333 1.247 . S
C341 O330 1.253 . S
C341 O331 1.283 . S
C342 O334 1.304 . S
C342 O336 1.272 . S
C343 O335 1.311 . S
C343 O337 1.231 . S
O344 Zn326 1.953 . S
O344 C338 1.298 1_545 S
O345 Zn346 1.953 1_565 S
O345 C361 1.225 . S
Zn346 O345 1.953 1_545 S
Zn346 O347 1.949 . S
Zn346 O353 1.919 . S
Zn346 O358 1.924 . S
O347 Zn346 1.949 . S
O347 Zn348 1.923 . S
O347 Zn349 1.950 . S
O347 Zn350 1.945 . S
Zn348 O347 1.923 . S
Zn348 O351 1.933 . S
Zn348 O354 1.941 . S
Zn348 O355 1.965 . S
Zn349 O347 1.950 . S
Zn349 O356 1.938 . S
Zn349 O357 1.906 . S
Zn349 O367 1.953 . S
Zn350 O347 1.945 . S
Zn350 O352 1.932 . S
Zn350 O359 1.977 . S
Zn350 O360 1.910 . S
O351 Zn348 1.933 . S
O351 C362 1.226 . S
O352 Zn350 1.932 . S
O352 C362 1.307 . S
O353 Zn346 1.919 . S
O353 C364 1.253 . S
O354 Zn348 1.941 . S
O354 C364 1.283 . S
O355 Zn348 1.965 . S
O355 C363 1.303 . S
O356 Zn349 1.938 . S
O356 C363 1.247 . S
O357 Zn349 1.906 . S
O357 C365 1.304 . S
O358 Zn346 1.924 . S
O358 C366 1.311 . S
O359 Zn350 1.977 . S
O359 C365 1.272 . S
O360 Zn350 1.910 . S
O360 C366 1.231 . S
C361 O345 1.225 . S
C361 O367 1.298 1_565 S
C362 O351 1.226 . S
C362 O352 1.307 . S
C363 O355 1.303 . S
C363 O356 1.247 . S
C364 O353 1.253 . S
C364 O354 1.283 . S
C365 O357 1.304 . S
C365 O359 1.272 . S
C366 O358 1.311 . S
C366 O360 1.231 . S
O367 Zn349 1.953 . S
O367 C361 1.298 1_545 S
O368 Zn369 1.953 1_455 S
O368 C384 1.225 . S
Zn369 O368 1.953 1_655 S
Zn369 O370 1.949 . S
Zn369 O376 1.919 . S
Zn369 O381 1.924 . S
O370 Zn369 1.949 . S
O370 Zn371 1.923 . S
O370 Zn372 1.950 . S
O370 Zn373 1.945 . S
Zn371 O370 1.923 . S
Zn371 O374 1.933 . S
Zn371 O377 1.941 . S
Zn371 O378 1.965 . S
Zn372 O370 1.950 . S
Zn372 O379 1.938 . S
Zn372 O380 1.906 . S
Zn372 O390 1.953 . S
Zn373 O370 1.945 . S
Zn373 O375 1.932 . S
Zn373 O382 1.977 . S
Zn373 O383 1.910 . S
O374 Zn371 1.933 . S
O374 C385 1.226 . S
O375 Zn373 1.932 . S
O375 C385 1.307 . S
O376 Zn369 1.919 . S
O376 C387 1.253 . S
O377 Zn371 1.941 . S
O377 C387 1.283 . S
O378 Zn371 1.965 . S
O378 C386 1.303 . S
O379 Zn372 1.938 . S
O379 C386 1.247 . S
O380 Zn372 1.906 . S
O380 C388 1.304 . S
O381 Zn369 1.924 . S
O381 C389 1.311 . S
O382 Zn373 1.977 . S
O382 C388 1.272 . S
O383 Zn373 1.910 . S
O383 C389 1.231 . S
C384 O368 1.225 . S
C384 O390 1.298 1_455 S
C385 O374 1.226 . S
C385 O375 1.307 . S
C386 O378 1.303 . S
C386 O379 1.247 . S
C387 O376 1.253 . S
C387 O377 1.283 . S
C388 O380 1.304 . S
C388 O382 1.272 . S
C389 O381 1.311 . S
C389 O383 1.231 . S
O390 Zn372 1.953 . S
O390 C384 1.298 1_655 S
O391 Zn392 1.953 . S
O391 C407 1.225 . S
Zn392 O391 1.953 . S
Zn392 O393 1.949 . S
Zn392 O399 1.919 . S
Zn392 O404 1.924 . S
O393 Zn392 1.949 . S
O393 Zn394 1.923 . S
O393 Zn395 1.950 . S
O393 Zn396 1.945 . S
Zn394 O393 1.923 . S
Zn394 O397 1.933 . S
Zn394 O400 1.941 . S
Zn394 O401 1.965 . S
Zn395 O393 1.950 . S
Zn395 O402 1.938 . S
Zn395 O403 1.906 . S
Zn395 O413 1.953 . S
Zn396 O393 1.945 . S
Zn396 O398 1.932 . S
Zn396 O405 1.977 . S
Zn396 O406 1.910 . S
O397 Zn394 1.933 . S
O397 C408 1.226 . S
O398 Zn396 1.932 . S
O398 C408 1.307 . S
O399 Zn392 1.919 . S
O399 C410 1.253 . S
O400 Zn394 1.941 . S
O400 C410 1.283 . S
O401 Zn394 1.965 . S
O401 C409 1.303 . S
O402 Zn395 1.938 . S
O402 C409 1.247 . S
O403 Zn395 1.906 . S
O403 C411 1.304 . S
O404 Zn392 1.924 . S
O404 C412 1.311 . S
O405 Zn396 1.977 . S
O405 C411 1.272 . S
O406 Zn396 1.910 . S
O406 C412 1.231 . S
C407 O391 1.225 . S
C407 O413 1.298 . S
C408 O397 1.226 . S
C408 O398 1.307 . S
C409 O401 1.303 . S
C409 O402 1.247 . S
C410 O399 1.253 . S
C410 O400 1.283 . S
C411 O403 1.304 . S
C411 O405 1.272 . S
C412 O404 1.311 . S
C412 O406 1.231 . S
O413 Zn395 1.953 . S
O413 C407 1.298 . S
H414 C420 0.930 . S
H415 C423 0.930 . S
H416 C424 0.930 . S
H417 C425 0.930 . S
H418 C428 0.930 . S
H419 C429 0.930 . S
C420 H414 0.930 . S
C420 C421 1.355 1_554 S
C420 C422 1.415 . S
C421 C420 1.355 1_556 S
C421 C423 1.419 . S
C422 C420 1.415 . S
C422 C427 1.425 1_554 S
C422 C429 1.409 . S
C423 H415 0.930 . S
C423 C421 1.419 . S
C423 C424 1.362 . S
C424 H416 0.930 . S
C424 C423 1.362 . S
C424 C427 1.409 . S
C425 H417 0.930 . S
C425 C426 1.355 1_556 S
C425 C427 1.415 . S
C426 C425 1.355 1_554 S
C426 C428 1.419 . S
C427 C422 1.425 1_556 S
C427 C424 1.409 . S
C427 C425 1.415 . S
C428 H418 0.930 . S
C428 C426 1.419 . S
C428 C429 1.362 . S
C429 H419 0.930 . S
C429 C422 1.409 . S
C429 C428 1.362 . S
H430 C436 0.930 . S
H431 C439 0.930 . S
H432 C440 0.930 . S
H433 C441 0.930 . S
H434 C444 0.930 . S
H435 C445 0.930 . S
C436 H430 0.930 . S
C436 C437 1.355 1_556 S
C436 C438 1.415 . S
C437 C436 1.355 1_554 S
C437 C439 1.419 . S
C438 C436 1.415 . S
C438 C443 1.425 1_556 S
C438 C445 1.409 . S
C439 H431 0.930 . S
C439 C437 1.419 . S
C439 C440 1.362 . S
C440 H432 0.930 . S
C440 C439 1.362 . S
C440 C443 1.409 . S
C441 H433 0.930 . S
C441 C442 1.355 1_554 S
C441 C443 1.415 . S
C442 C441 1.355 1_556 S
C442 C444 1.419 . S
C443 C438 1.425 1_554 S
C443 C440 1.409 . S
C443 C441 1.415 . S
C444 H434 0.930 . S
C444 C442 1.419 . S
C444 C445 1.362 . S
C445 H435 0.930 . S
C445 C438 1.409 . S
C445 C444 1.362 . S
H446 C452 0.930 . S
H447 C455 0.930 . S
H448 C456 0.930 . S
H449 C457 0.930 . S
H450 C460 0.930 . S
H451 C461 0.930 . S
C452 H446 0.930 . S
C452 C453 1.366 . S
C452 C454 1.415 . S
C453 C452 1.366 . S
C453 C455 1.402 1_556 S
C454 C452 1.415 . S
C454 C459 1.425 1_556 S
C454 C461 1.409 . S
C455 H447 0.930 . S
C455 C453 1.402 1_554 S
C455 C456 1.362 . S
C456 H448 0.930 . S
C456 C455 1.362 . S
C456 C459 1.409 . S
C457 H449 0.930 . S
C457 C458 1.355 . S
C457 C459 1.415 . S
C458 C457 1.355 . S
C458 C460 1.419 1_554 S
C459 C454 1.425 1_554 S
C459 C456 1.409 . S
C459 C457 1.415 . S
C460 H450 0.930 . S
C460 C458 1.419 1_556 S
C460 C461 1.362 . S
C461 H451 0.930 . S
C461 C454 1.409 . S
C461 C460 1.362 . S
H462 C468 0.930 . S
H463 C471 0.930 . S
H464 C472 0.930 . S
H465 C473 0.930 . S
H466 C476 0.930 . S
H467 C477 0.930 . S
C468 H462 0.930 . S
C468 C469 1.355 . S
C468 C470 1.415 . S
C469 C468 1.355 . S
C469 C471 1.419 . S
C470 C468 1.415 . S
C470 C475 1.425 . S
C470 C477 1.409 . S
C471 H463 0.930 . S
C471 C469 1.419 . S
C471 C472 1.362 . S
C472 H464 0.930 . S
C472 C471 1.362 . S
C472 C475 1.409 . S
C473 H465 0.930 . S
C473 C474 1.355 . S
C473 C475 1.415 . S
C474 C473 1.355 . S
C474 C476 1.419 . S
C475 C470 1.425 . S
C475 C472 1.409 . S
C475 C473 1.415 . S
C476 H466 0.930 . S
C476 C474 1.419 . S
C476 C477 1.362 . S
C477 H467 0.930 . S
C477 C470 1.409 . S
C477 C476 1.362 . S
H478 C484 0.930 . S
H479 C487 0.930 . S
H480 C488 0.930 . S
H481 C489 0.930 . S
H482 C492 0.930 . S
H483 C493 0.930 . S
C484 H478 0.930 . S
C484 C485 1.355 . S
C484 C486 1.415 . S
C485 C484 1.355 . S
C485 C487 1.419 . S
C486 C484 1.415 . S
C486 C491 1.425 . S
C486 C493 1.409 . S
C487 H479 0.930 . S
C487 C485 1.419 . S
C487 C488 1.362 . S
C488 H480 0.930 . S
C488 C487 1.362 . S
C488 C491 1.409 . S
C489 H481 0.930 . S
C489 C490 1.355 . S
C489 C491 1.415 . S
C490 C489 1.355 . S
C490 C492 1.419 . S
C491 C486 1.425 . S
C491 C488 1.409 . S
C491 C489 1.415 . S
C492 H482 0.930 . S
C492 C490 1.419 . S
C492 C493 1.362 . S
C493 H483 0.930 . S
C493 C486 1.409 . S
C493 C492 1.362 . S
H494 C500 0.930 . S
H495 C503 0.930 . S
H496 C504 0.930 . S
H497 C505 0.930 . S
H498 C508 0.930 . S
H499 C509 0.930 . S
C500 H494 0.930 . S
C500 C501 1.355 . S
C500 C502 1.415 . S
C501 C500 1.355 . S
C501 C503 1.419 . S
C502 C500 1.415 . S
C502 C507 1.425 . S
C502 C509 1.409 . S
C503 H495 0.930 . S
C503 C501 1.419 . S
C503 C504 1.362 . S
C504 H496 0.930 . S
C504 C503 1.362 . S
C504 C507 1.409 . S
C505 H497 0.930 . S
C505 C506 1.355 . S
C505 C507 1.415 . S
C506 C505 1.355 . S
C506 C508 1.419 . S
C507 C502 1.425 . S
C507 C504 1.409 . S
C507 C505 1.415 . S
C508 H498 0.930 . S
C508 C506 1.419 . S
C508 C509 1.362 . S
C509 H499 0.930 . S
C509 C502 1.409 . S
C509 C508 1.362 . S
H510 C516 0.930 . S
H511 C519 0.930 . S
H512 C520 0.930 . S
H513 C521 0.930 . S
H514 C524 0.930 . S
H515 C525 0.930 . S
C516 H510 0.930 . S
C516 C517 1.355 . S
C516 C518 1.415 . S
C517 C516 1.355 . S
C517 C519 1.419 . S
C518 C516 1.415 . S
C518 C523 1.425 . S
C518 C525 1.409 . S
C519 H511 0.930 . S
C519 C517 1.419 . S
C519 C520 1.362 . S
C520 H512 0.930 . S
C520 C519 1.362 . S
C520 C523 1.409 . S
C521 H513 0.930 . S
C521 C522 1.355 . S
C521 C523 1.415 . S
C522 C521 1.355 . S
C522 C524 1.419 . S
C523 C518 1.425 . S
C523 C520 1.409 . S
C523 C521 1.415 . S
C524 H514 0.930 . S
C524 C522 1.419 . S
C524 C525 1.362 . S
C525 H515 0.930 . S
C525 C518 1.409 . S
C525 C524 1.362 . S
H526 C532 0.930 . S
H527 C535 0.930 . S
H528 C536 0.930 . S
H529 C537 0.930 . S
H530 C540 0.930 . S
H531 C541 0.930 . S
C532 H526 0.930 . S
C532 C533 1.355 . S
C532 C534 1.415 . S
C533 C532 1.355 . S
C533 C535 1.419 . S
C534 C532 1.415 . S
C534 C539 1.425 . S
C534 C541 1.409 . S
C535 H527 0.930 . S
C535 C533 1.419 . S
C535 C536 1.362 . S
C536 H528 0.930 . S
C536 C535 1.362 . S
C536 C539 1.409 . S
C537 H529 0.930 . S
C537 C538 1.355 . S
C537 C539 1.415 . S
C538 C537 1.355 . S
C538 C540 1.419 . S
C539 C534 1.425 . S
C539 C536 1.409 . S
C539 C537 1.415 . S
C540 H530 0.930 . S
C540 C538 1.419 . S
C540 C541 1.362 . S
C541 H531 0.930 . S
C541 C534 1.409 . S
C541 C540 1.362 . S
H542 C548 0.930 . S
H543 C551 0.930 . S
H544 C552 0.930 . S
H545 C553 0.930 . S
H546 C556 0.930 . S
H547 C557 0.930 . S
C548 H542 0.930 . S
C548 C549 1.355 . S
C548 C550 1.415 . S
C549 C548 1.355 . S
C549 C551 1.419 . S
C550 C548 1.415 . S
C550 C555 1.425 . S
C550 C557 1.409 . S
C551 H543 0.930 . S
C551 C549 1.419 . S
C551 C552 1.362 . S
C552 H544 0.930 . S
C552 C551 1.362 . S
C552 C555 1.409 . S
C553 H545 0.930 . S
C553 C554 1.355 . S
C553 C555 1.415 . S
C554 C553 1.355 . S
C554 C556 1.419 . S
C555 C550 1.425 . S
C555 C552 1.409 . S
C555 C553 1.415 . S
C556 H546 0.930 . S
C556 C554 1.419 . S
C556 C557 1.362 . S
C557 H547 0.930 . S
C557 C550 1.409 . S
C557 C556 1.362 . S
H558 C564 0.930 . S
H559 C567 0.930 . S
H560 C568 0.930 . S
H561 C569 0.930 . S
H562 C572 0.930 . S
H563 C573 0.930 . S
C564 H558 0.930 . S
C564 C565 1.355 . S
C564 C566 1.415 . S
C565 C564 1.355 . S
C565 C567 1.419 . S
C566 C564 1.415 . S
C566 C571 1.425 . S
C566 C573 1.409 . S
C567 H559 0.930 . S
C567 C565 1.419 . S
C567 C568 1.362 . S
C568 H560 0.930 . S
C568 C567 1.362 . S
C568 C571 1.409 . S
C569 H561 0.930 . S
C569 C570 1.355 . S
C569 C571 1.415 . S
C570 C569 1.355 . S
C570 C572 1.419 . S
C571 C566 1.425 . S
C571 C568 1.409 . S
C571 C569 1.415 . S
C572 H562 0.930 . S
C572 C570 1.419 . S
C572 C573 1.362 . S
C573 H563 0.930 . S
C573 C566 1.409 . S
C573 C572 1.362 . S
H574 C580 0.930 . S
H575 C583 0.930 . S
H576 C584 0.930 . S
H577 C585 0.930 . S
H578 C588 0.930 . S
H579 C589 0.930 . S
C580 H574 0.930 . S
C580 C581 1.355 . S
C580 C582 1.415 . S
C581 C580 1.355 . S
C581 C583 1.419 . S
C582 C580 1.415 . S
C582 C587 1.425 . S
C582 C589 1.409 . S
C583 H575 0.930 . S
C583 C581 1.419 . S
C583 C584 1.362 . S
C584 H576 0.930 . S
C584 C583 1.362 . S
C584 C587 1.409 . S
C585 H577 0.930 . S
C585 C586 1.355 . S
C585 C587 1.415 . S
C586 C585 1.355 . S
C586 C588 1.419 . S
C587 C582 1.425 . S
C587 C584 1.409 . S
C587 C585 1.415 . S
C588 H578 0.930 . S
C588 C586 1.419 . S
C588 C589 1.362 . S
C589 H579 0.930 . S
C589 C582 1.409 . S
C589 C588 1.362 . S
H590 C596 0.930 . S
H591 C599 0.930 . S
H592 C600 0.930 . S
H593 C601 0.930 . S
H594 C604 0.930 . S
H595 C605 0.930 . S
C596 H590 0.930 . S
C596 C597 1.355 . S
C596 C598 1.415 . S
C597 C596 1.355 . S
C597 C599 1.419 . S
C598 C596 1.415 . S
C598 C603 1.425 . S
C598 C605 1.409 . S
C599 H591 0.930 . S
C599 C597 1.419 . S
C599 C600 1.362 . S
C600 H592 0.930 . S
C600 C599 1.362 . S
C600 C603 1.409 . S
C601 H593 0.930 . S
C601 C602 1.355 . S
C601 C603 1.415 . S
C602 C601 1.355 . S
C602 C604 1.419 . S
C603 C598 1.425 . S
C603 C600 1.409 . S
C603 C601 1.415 . S
C604 H594 0.930 . S
C604 C602 1.419 . S
C604 C605 1.362 . S
C605 H595 0.930 . S
C605 C598 1.409 . S
C605 C604 1.362 . S
H606 C612 0.930 . S
H607 C615 0.930 . S
H608 C616 0.930 . S
H609 C617 0.930 . S
H610 C620 0.930 . S
H611 C621 0.930 . S
C612 H606 0.930 . S
C612 C613 1.355 . S
C612 C614 1.415 . S
C613 C612 1.355 . S
C613 C615 1.419 . S
C614 C612 1.415 . S
C614 C619 1.425 . S
C614 C621 1.409 . S
C615 H607 0.930 . S
C615 C613 1.419 . S
C615 C616 1.362 . S
C616 H608 0.930 . S
C616 C615 1.362 . S
C616 C619 1.409 . S
C617 H609 0.930 . S
C617 C618 1.355 . S
C617 C619 1.415 . S
C618 C617 1.355 . S
C618 C620 1.419 . S
C619 C614 1.425 . S
C619 C616 1.409 . S
C619 C617 1.415 . S
C620 H610 0.930 . S
C620 C618 1.419 . S
C620 C621 1.362 . S
C621 H611 0.930 . S
C621 C614 1.409 . S
C621 C620 1.362 . S
H622 C628 0.930 . S
H623 C631 0.930 . S
H624 C632 0.930 . S
H625 C633 0.930 . S
H626 C636 0.930 1_655 S
H627 C637 0.930 . S
C628 H622 0.930 . S
C628 C629 1.355 . S
C628 C630 1.415 1_545 S
C629 C628 1.355 . S
C629 C631 1.419 1_545 S
C630 C628 1.415 1_565 S
C630 C635 1.425 . S
C630 C637 1.409 . S
C631 H623 0.930 . S
C631 C629 1.419 1_565 S
C631 C632 1.362 . S
C632 H624 0.930 . S
C632 C631 1.362 . S
C632 C635 1.409 . S
C633 H625 0.930 . S
C633 C634 1.355 . S
C633 C635 1.415 . S
C634 C633 1.355 . S
C634 C636 1.419 . S
C635 C630 1.425 . S
C635 C632 1.409 . S
C635 C633 1.415 . S
C636 H626 0.930 1_455 S
C636 C634 1.419 . S
C636 C637 1.362 . S
C637 H627 0.930 . S
C637 C630 1.409 . S
C637 C636 1.362 . S
H638 C644 0.928 1_655 S
H639 C647 0.930 . S
H640 C648 0.930 . S
H641 C649 0.930 . S
H642 C652 0.930 . S
H643 C653 0.930 . S
C644 H638 0.928 1_455 S
C644 C645 1.349 1_455 S
C644 C646 1.422 . S
C645 C644 1.349 1_655 S
C645 C647 1.419 . S
C646 C644 1.422 . S
C646 C651 1.425 . S
C646 C653 1.409 . S
C647 H639 0.930 . S
C647 C645 1.419 . S
C647 C648 1.362 1_655 S
C648 H640 0.930 . S
C648 C647 1.362 1_455 S
C648 C651 1.409 . S
C649 H641 0.930 . S
C649 C650 1.355 . S
C649 C651 1.415 . S
C650 C649 1.355 . S
C650 C652 1.419 . S
C651 C646 1.425 . S
C651 C648 1.409 . S
C651 C649 1.415 . S
C652 H642 0.930 . S
C652 C650 1.419 . S
C652 C653 1.362 . S
C653 H643 0.930 . S
C653 C646 1.409 . S
C653 C652 1.362 . S
H654 C660 0.930 . S
H655 C663 0.930 . S
H656 C664 0.930 . S
H657 C665 0.930 . S
H658 C668 0.930 . S
H659 C669 0.930 . S
C660 H654 0.930 . S
C660 C661 1.355 . S
C660 C662 1.415 . S
C661 C660 1.355 . S
C661 C663 1.419 . S
C662 C660 1.415 . S
C662 C667 1.425 . S
C662 C669 1.409 . S
C663 H655 0.930 . S
C663 C661 1.419 . S
C663 C664 1.362 . S
C664 H656 0.930 . S
C664 C663 1.362 . S
C664 C667 1.409 . S
C665 H657 0.930 . S
C665 C666 1.355 . S
C665 C667 1.415 . S
C666 C665 1.355 . S
C666 C668 1.419 . S
C667 C662 1.425 . S
C667 C664 1.409 . S
C667 C665 1.415 . S
C668 H658 0.930 . S
C668 C666 1.419 . S
C668 C669 1.362 . S
C669 H659 0.930 . S
C669 C662 1.409 . S
C669 C668 1.362 . S
H670 C676 0.930 . S
H671 C679 0.930 . S
H672 C680 0.930 . S
H673 C681 0.930 . S
H674 C684 0.930 . S
H675 C685 0.930 . S
C676 H670 0.930 . S
C676 C677 1.355 . S
C676 C678 1.415 . S
C677 C676 1.355 . S
C677 C679 1.419 . S
C678 C676 1.415 . S
C678 C683 1.425 . S
C678 C685 1.409 . S
C679 H671 0.930 . S
C679 C677 1.419 . S
C679 C680 1.362 . S
C680 H672 0.930 . S
C680 C679 1.362 . S
C680 C683 1.409 . S
C681 H673 0.930 . S
C681 C682 1.355 1_565 S
C681 C683 1.415 . S
C682 C681 1.355 1_545 S
C682 C684 1.419 . S
C683 C678 1.425 . S
C683 C680 1.409 . S
C683 C681 1.415 . S
C684 H674 0.930 . S
C684 C682 1.419 . S
C684 C685 1.362 1_545 S
C685 H675 0.930 . S
C685 C678 1.409 . S
C685 C684 1.362 1_565 S
H686 C692 0.930 . S
H687 C695 0.930 . S
H688 C696 0.930 . S
H689 C697 0.930 . S
H690 C700 0.930 . S
H691 C701 0.930 . S
C692 H686 0.930 . S
C692 C693 1.355 . S
C692 C694 1.415 . S
C693 C692 1.355 . S
C693 C695 1.419 . S
C694 C692 1.415 . S
C694 C699 1.425 . S
C694 C701 1.409 . S
C695 H687 0.930 . S
C695 C693 1.419 . S
C695 C696 1.362 . S
C696 H688 0.930 . S
C696 C695 1.362 . S
C696 C699 1.409 . S
C697 H689 0.930 . S
C697 C698 1.355 . S
C697 C699 1.415 1_655 S
C698 C697 1.355 . S
C698 C700 1.419 . S
C699 C694 1.425 . S
C699 C696 1.409 . S
C699 C697 1.415 1_455 S
C700 H690 0.930 . S
C700 C698 1.419 . S
C700 C701 1.362 1_655 S
C701 H691 0.930 . S
C701 C694 1.409 . S
C701 C700 1.362 1_455 S
H702 C708 0.930 . S
H703 C711 0.930 . S
H704 C712 0.930 . S
H705 C713 0.930 . S
H706 C716 0.930 . S
H707 C717 0.930 . S
C708 H702 0.930 . S
C708 C709 1.355 . S
C708 C710 1.415 . S
C709 C708 1.355 . S
C709 C711 1.419 . S
C710 C708 1.415 . S
C710 C715 1.425 . S
C710 C717 1.409 . S
C711 H703 0.930 . S
C711 C709 1.419 . S
C711 C712 1.362 . S
C712 H704 0.930 . S
C712 C711 1.362 . S
C712 C715 1.409 . S
C713 H705 0.930 . S
C713 C714 1.355 . S
C713 C715 1.415 . S
C714 C713 1.355 . S
C714 C716 1.419 . S
C715 C710 1.425 . S
C715 C712 1.409 . S
C715 C713 1.415 . S
C716 H706 0.930 . S
C716 C714 1.419 . S
C716 C717 1.362 . S
C717 H707 0.930 . S
C717 C710 1.409 . S
C717 C716 1.362 . S
H718 C724 0.930 . S
H719 C727 0.930 . S
H720 C728 0.930 . S
H721 C729 0.930 . S
H722 C732 0.930 . S
H723 C733 0.930 . S
C724 H718 0.930 . S
C724 C725 1.355 . S
C724 C726 1.415 . S
C725 C724 1.355 . S
C725 C727 1.419 . S
C726 C724 1.415 . S
C726 C731 1.425 . S
C726 C733 1.409 . S
C727 H719 0.930 . S
C727 C725 1.419 . S
C727 C728 1.362 . S
C728 H720 0.930 . S
C728 C727 1.362 . S
C728 C731 1.409 . S
C729 H721 0.930 . S
C729 C730 1.355 . S
C729 C731 1.415 . S
C730 C729 1.355 . S
C730 C732 1.419 . S
C731 C726 1.425 . S
C731 C728 1.409 . S
C731 C729 1.415 . S
C732 H722 0.930 . S
C732 C730 1.419 . S
C732 C733 1.362 . S
C733 H723 0.930 . S
C733 C726 1.409 . S
C733 C732 1.362 . S
H734 C740 0.930 . S
H735 C743 0.930 . S
H736 C744 0.930 . S
H737 C745 0.930 . S
H738 C748 0.930 . S
H739 C749 0.930 . S
C740 H734 0.930 . S
C740 C741 1.355 . S
C740 C742 1.415 . S
C741 C740 1.355 . S
C741 C743 1.419 . S
C742 C740 1.415 . S
C742 C747 1.425 . S
C742 C749 1.409 . S
C743 H735 0.930 . S
C743 C741 1.419 . S
C743 C744 1.362 . S
C744 H736 0.930 . S
C744 C743 1.362 . S
C744 C747 1.409 . S
C745 H737 0.930 . S
C745 C746 1.355 . S
C745 C747 1.415 . S
C746 C745 1.355 . S
C746 C748 1.419 . S
C747 C742 1.425 . S
C747 C744 1.409 . S
C747 C745 1.415 . S
C748 H738 0.930 . S
C748 C746 1.419 . S
C748 C749 1.362 . S
C749 H739 0.930 . S
C749 C742 1.409 . S
C749 C748 1.362 . S
H750 C756 0.930 . S
H751 C759 0.930 . S
H752 C760 0.930 . S
H753 C761 0.930 . S
H754 C764 0.930 . S
H755 C765 0.930 . S
C756 H750 0.930 . S
C756 C757 1.355 . S
C756 C758 1.415 . S
C757 C756 1.355 . S
C757 C759 1.419 . S
C758 C756 1.415 . S
C758 C763 1.425 . S
C758 C765 1.409 . S
C759 H751 0.930 . S
C759 C757 1.419 . S
C759 C760 1.362 . S
C760 H752 0.930 . S
C760 C759 1.362 . S
C760 C763 1.409 . S
C761 H753 0.930 . S
C761 C762 1.355 . S
C761 C763 1.415 . S
C762 C761 1.355 . S
C762 C764 1.419 . S
C763 C758 1.425 . S
C763 C760 1.409 . S
C763 C761 1.415 . S
C764 H754 0.930 . S
C764 C762 1.419 . S
C764 C765 1.362 . S
C765 H755 0.930 . S
C765 C758 1.409 . S
C765 C764 1.362 . S
H766 C772 0.930 . S
H767 C775 0.930 . S
H768 C776 0.930 . S
H769 C777 0.930 . S
H770 C780 0.930 . S
H771 C781 0.930 . S
C772 H766 0.930 . S
C772 C773 1.355 . S
C772 C774 1.415 . S
C773 C772 1.355 . S
C773 C775 1.419 . S
C774 C772 1.415 . S
C774 C779 1.425 . S
C774 C781 1.409 . S
C775 H767 0.930 . S
C775 C773 1.419 . S
C775 C776 1.362 . S
C776 H768 0.930 . S
C776 C775 1.362 . S
C776 C779 1.409 . S
C777 H769 0.930 . S
C777 C778 1.355 . S
C777 C779 1.415 . S
C778 C777 1.355 . S
C778 C780 1.419 . S
C779 C774 1.425 . S
C779 C776 1.409 . S
C779 C777 1.415 . S
C780 H770 0.930 . S
C780 C778 1.419 . S
C780 C781 1.362 . S
C781 H771 0.930 . S
C781 C774 1.409 . S
C781 C780 1.362 . S
H782 C788 0.930 . S
H783 C791 0.930 . S
H784 C792 0.930 . S
H785 C793 0.930 . S
H786 C796 0.930 . S
H787 C797 0.930 . S
C788 H782 0.930 . S
C788 C789 1.355 . S
C788 C790 1.415 . S
C789 C788 1.355 . S
C789 C791 1.419 . S
C790 C788 1.415 . S
C790 C795 1.425 . S
C790 C797 1.409 . S
C791 H783 0.930 . S
C791 C789 1.419 . S
C791 C792 1.362 . S
C792 H784 0.930 . S
C792 C791 1.362 . S
C792 C795 1.409 . S
C793 H785 0.930 . S
C793 C794 1.355 . S
C793 C795 1.415 . S
C794 C793 1.355 . S
C794 C796 1.419 . S
C795 C790 1.425 . S
C795 C792 1.409 . S
C795 C793 1.415 . S
C796 H786 0.930 . S
C796 C794 1.419 . S
C796 C797 1.362 . S
C797 H787 0.930 . S
C797 C790 1.409 . S
C797 C796 1.362 . S
H798 C804 0.930 . S
H799 C807 0.930 . S
H800 C808 0.930 . S
H801 C809 0.930 . S
H802 C812 0.930 . S
H803 C813 0.930 . S
C804 H798 0.930 . S
C804 C805 1.355 . S
C804 C806 1.415 . S
C805 C804 1.355 . S
C805 C807 1.419 . S
C806 C804 1.415 . S
C806 C811 1.425 . S
C806 C813 1.409 . S
C807 H799 0.930 . S
C807 C805 1.419 . S
C807 C808 1.362 . S
C808 H800 0.930 . S
C808 C807 1.362 . S
C808 C811 1.409 . S
C809 H801 0.930 . S
C809 C810 1.355 . S
C809 C811 1.415 . S
C810 C809 1.355 . S
C810 C812 1.419 . S
C811 C806 1.425 . S
C811 C808 1.409 . S
C811 C809 1.415 . S
C812 H802 0.930 . S
C812 C810 1.419 . S
C812 C813 1.362 . S
C813 H803 0.930 . S
C813 C806 1.409 . S
C813 C812 1.362 . S
H814 C820 0.930 . S
H815 C823 0.930 . S
H816 C824 0.930 . S
H817 C825 0.930 . S
H818 C828 0.930 . S
H819 C829 0.930 . S
C820 H814 0.930 . S
C820 C821 1.355 . S
C820 C822 1.415 . S
C821 C820 1.355 . S
C821 C823 1.419 . S
C822 C820 1.415 . S
C822 C827 1.425 . S
C822 C829 1.409 . S
C823 H815 0.930 . S
C823 C821 1.419 . S
C823 C824 1.362 . S
C824 H816 0.930 . S
C824 C823 1.362 . S
C824 C827 1.409 . S
C825 H817 0.930 . S
C825 C826 1.355 . S
C825 C827 1.415 . S
C826 C825 1.355 . S
C826 C828 1.419 . S
C827 C822 1.425 . S
C827 C824 1.409 . S
C827 C825 1.415 . S
C828 H818 0.930 . S
C828 C826 1.419 . S
C828 C829 1.362 . S
C829 H819 0.930 . S
C829 C822 1.409 . S
C829 C828 1.362 . S
H830 C836 0.930 . S
H831 C839 0.930 . S
H832 C840 0.930 . S
H833 C841 0.930 . S
H834 C844 0.930 . S
H835 C845 0.930 . S
C836 H830 0.930 . S
C836 C837 1.355 . S
C836 C838 1.415 . S
C837 C836 1.355 . S
C837 C839 1.419 . S
C838 C836 1.415 . S
C838 C843 1.425 . S
C838 C845 1.409 . S
C839 H831 0.930 . S
C839 C837 1.419 . S
C839 C840 1.362 . S
C840 H832 0.930 . S
C840 C839 1.362 . S
C840 C843 1.409 . S
C841 H833 0.930 . S
C841 C842 1.355 . S
C841 C843 1.415 . S
C842 C841 1.355 . S
C842 C844 1.419 . S
C843 C838 1.425 . S
C843 C840 1.409 . S
C843 C841 1.415 . S
C844 H834 0.930 . S
C844 C842 1.419 . S
C844 C845 1.362 . S
C845 H835 0.930 . S
C845 C838 1.409 . S
C845 C844 1.362 . S
H846 C852 0.930 . S
H847 C855 0.917 1_556 S
H848 C856 0.930 . S
H849 C857 0.930 . S
H850 C860 0.930 . S
H851 C861 0.930 . S
C852 H846 0.930 . S
C852 C853 1.355 . S
C852 C854 1.415 . S
C853 C852 1.355 . S
C853 C855 1.419 . S
C854 C852 1.415 . S
C854 C859 1.425 . S
C854 C861 1.409 . S
C855 H847 0.917 1_554 S
C855 C853 1.419 . S
C855 C856 1.362 . S
C856 H848 0.930 . S
C856 C855 1.362 . S
C856 C859 1.409 . S
C857 H849 0.930 . S
C857 C858 1.355 . S
C857 C859 1.415 . S
C858 C857 1.355 . S
C858 C860 1.419 . S
C859 C854 1.425 . S
C859 C856 1.409 . S
C859 C857 1.415 . S
C860 H850 0.930 . S
C860 C858 1.419 . S
C860 C861 1.362 . S
C861 H851 0.930 . S
C861 C854 1.409 . S
C861 C860 1.362 . S
H862 C868 0.930 . S
H863 C871 0.930 . S
H864 C872 0.930 . S
H865 C873 0.930 . S
H866 C876 0.930 . S
H867 C877 0.930 . S
C868 H862 0.930 . S
C868 C869 1.355 . S
C868 C870 1.415 . S
C869 C868 1.355 . S
C869 C871 1.419 . S
C870 C868 1.415 . S
C870 C875 1.425 . S
C870 C877 1.409 . S
C871 H863 0.930 . S
C871 C869 1.419 . S
C871 C872 1.362 . S
C872 H864 0.930 . S
C872 C871 1.362 . S
C872 C875 1.409 . S
C873 H865 0.930 . S
C873 C874 1.355 . S
C873 C875 1.415 . S
C874 C873 1.355 . S
C874 C876 1.419 . S
C875 C870 1.425 . S
C875 C872 1.409 . S
C875 C873 1.415 . S
C876 H866 0.930 . S
C876 C874 1.419 . S
C876 C877 1.362 . S
C877 H867 0.930 . S
C877 C870 1.409 . S
C877 C876 1.362 . S
H878 C884 0.930 . S
H879 C887 0.930 1_556 S
H880 C888 0.930 . S
H881 C889 0.930 . S
H882 C892 0.930 . S
H883 C893 0.930 . S
C884 H878 0.930 . S
C884 C885 1.355 . S
C884 C886 1.415 . S
C885 C884 1.355 . S
C885 C887 1.419 . S
C886 C884 1.415 . S
C886 C891 1.425 . S
C886 C893 1.409 . S
C887 H879 0.930 1_554 S
C887 C885 1.419 . S
C887 C888 1.362 . S
C888 H880 0.930 . S
C888 C887 1.362 . S
C888 C891 1.409 . S
C889 H881 0.930 . S
C889 C890 1.355 . S
C889 C891 1.415 . S
C890 C889 1.355 . S
C890 C892 1.419 . S
C891 C886 1.425 . S
C891 C888 1.409 . S
C891 C889 1.415 . S
C892 H882 0.930 . S
C892 C890 1.419 . S
C892 C893 1.362 . S
C893 H883 0.930 . S
C893 C886 1.409 . S
C893 C892 1.362 . S
H894 C900 0.930 . S
H895 C903 0.930 . S
H896 C904 0.930 . S
H897 C905 0.930 . S
H898 C908 0.930 . S
H899 C909 0.930 . S
C900 H894 0.930 . S
C900 C901 1.355 . S
C900 C902 1.415 . S
C901 C900 1.355 . S
C901 C903 1.419 . S
C902 C900 1.415 . S
C902 C907 1.425 . S
C902 C909 1.409 . S
C903 H895 0.930 . S
C903 C901 1.419 . S
C903 C904 1.362 . S
C904 H896 0.930 . S
C904 C903 1.362 . S
C904 C907 1.409 . S
C905 H897 0.930 . S
C905 C906 1.355 1_556 S
C905 C907 1.415 . S
C906 C905 1.355 1_554 S
C906 C908 1.419 . S
C907 C902 1.425 . S
C907 C904 1.409 . S
C907 C905 1.415 . S
C908 H898 0.930 . S
C908 C906 1.419 . S
C908 C909 1.362 1_554 S
C909 H899 0.930 . S
C909 C902 1.409 . S
C909 C908 1.362 1_556 S
H910 C916 0.930 . S
H911 C919 0.930 . S
H912 C920 0.930 . S
H913 C921 0.934 . S
H914 C924 0.930 1_554 S
H915 C925 0.930 . S
C916 H910 0.930 . S
C916 C917 1.355 . S
C916 C918 1.415 . S
C917 C916 1.355 . S
C917 C919 1.419 . S
C918 C916 1.415 . S
C918 C923 1.425 . S
C918 C925 1.409 . S
C919 H911 0.930 . S
C919 C917 1.419 . S
C919 C920 1.362 . S
C920 H912 0.930 . S
C920 C919 1.362 . S
C920 C923 1.409 . S
C921 H913 0.934 . S
C921 C922 1.355 1_556 S
C921 C923 1.415 . S
C922 C921 1.355 1_554 S
C922 C924 1.419 1_554 S
C923 C918 1.425 . S
C923 C920 1.409 . S
C923 C921 1.415 . S
C924 H914 0.930 1_556 S
C924 C922 1.419 1_556 S
C924 C925 1.362 . S
C925 H915 0.930 . S
C925 C918 1.409 . S
C925 C924 1.362 . S
H926 C932 0.930 . S
H927 C935 0.930 . S
H928 C936 0.930 . S
H929 C937 0.930 1_554 S
H930 C940 0.930 . S
H931 C941 0.930 . S
C932 H926 0.930 . S
C932 C933 1.355 . S
C932 C934 1.415 . S
C933 C932 1.355 . S
C933 C935 1.419 . S
C934 C932 1.415 . S
C934 C939 1.425 . S
C934 C941 1.409 . S
C935 H927 0.930 . S
C935 C933 1.419 . S
C935 C936 1.362 . S
C936 H928 0.930 . S
C936 C935 1.362 . S
C936 C939 1.409 . S
C937 H929 0.930 1_556 S
C937 C938 1.355 1_556 S
C937 C939 1.415 . S
C938 C937 1.355 1_554 S
C938 C940 1.419 1_554 S
C939 C934 1.425 . S
C939 C936 1.409 . S
C939 C937 1.415 . S
C940 H930 0.930 . S
C940 C938 1.419 1_556 S
C940 C941 1.362 . S
C941 H931 0.930 . S
C941 C934 1.409 . S
C941 C940 1.362 . S
H942 C948 0.930 . S
H943 C951 0.930 . S
H944 C952 0.930 . S
H945 C953 0.930 . S
H946 C956 0.930 . S
H947 C957 0.930 . S
C948 H942 0.930 . S
C948 C949 1.355 . S
C948 C950 1.415 . S
C949 C948 1.355 . S
C949 C951 1.419 . S
C950 C948 1.415 . S
C950 C955 1.425 . S
C950 C957 1.409 . S
C951 H943 0.930 . S
C951 C949 1.419 . S
C951 C952 1.362 . S
C952 H944 0.930 . S
C952 C951 1.362 . S
C952 C955 1.409 . S
C953 H945 0.930 . S
C953 C954 1.355 . S
C953 C955 1.415 . S
C954 C953 1.355 . S
C954 C956 1.419 . S
C955 C950 1.425 . S
C955 C952 1.409 . S
C955 C953 1.415 . S
C956 H946 0.930 . S
C956 C954 1.419 . S
C956 C957 1.362 . S
C957 H947 0.930 . S
C957 C950 1.409 . S
C957 C956 1.362 . S
H958 C964 0.930 . S
H959 C967 0.930 . S
H960 C968 0.930 . S
H961 C969 0.930 . S
H962 C972 0.930 . S
H963 C973 0.930 . S
C964 H958 0.930 . S
C964 C965 1.355 . S
C964 C966 1.415 . S
C965 C964 1.355 . S
C965 C967 1.419 . S
C966 C964 1.415 . S
C966 C971 1.425 . S
C966 C973 1.409 . S
C967 H959 0.930 . S
C967 C965 1.419 . S
C967 C968 1.362 . S
C968 H960 0.930 . S
C968 C967 1.362 . S
C968 C971 1.409 . S
C969 H961 0.930 . S
C969 C970 1.355 . S
C969 C971 1.415 . S
C970 C969 1.355 . S
C970 C972 1.419 . S
C971 C966 1.425 . S
C971 C968 1.409 . S
C971 C969 1.415 . S
C972 H962 0.930 . S
C972 C970 1.419 . S
C972 C973 1.362 . S
C973 H963 0.930 . S
C973 C966 1.409 . S
C973 C972 1.362 . S
H974 C980 0.930 . S
H975 C983 0.930 . S
H976 C984 0.930 . S
H977 C985 0.930 . S
H978 C988 0.930 . S
H979 C989 0.930 . S
C980 H974 0.930 . S
C980 C981 1.355 . S
C980 C982 1.415 . S
C981 C980 1.355 . S
C981 C983 1.419 . S
C982 C980 1.415 . S
C982 C987 1.425 . S
C982 C989 1.409 . S
C983 H975 0.930 . S
C983 C981 1.419 . S
C983 C984 1.362 . S
C984 H976 0.930 . S
C984 C983 1.362 . S
C984 C987 1.409 . S
C985 H977 0.930 . S
C985 C986 1.355 . S
C985 C987 1.415 . S
C986 C985 1.355 . S
C986 C988 1.419 . S
C987 C982 1.425 . S
C987 C984 1.409 . S
C987 C985 1.415 . S
C988 H978 0.930 . S
C988 C986 1.419 . S
C988 C989 1.362 . S
C989 H979 0.930 . S
C989 C982 1.409 . S
C989 C988 1.362 . S
H990 C996 0.930 . S
H991 C999 0.930 . S
H992 C1000 0.930 . S
H993 C1001 0.930 1_554 S
H994 C1004 0.930 . S
H995 C1005 0.930 . S
C996 H990 0.930 . S
C996 C997 1.355 . S
C996 C998 1.415 . S
C997 C996 1.355 . S
C997 C999 1.419 . S
C998 C996 1.415 . S
C998 C1003 1.425 . S
C998 C1005 1.409 1_565 S
C999 H991 0.930 . S
C999 C997 1.419 . S
C999 C1000 1.362 . S
C1000 H992 0.930 . S
C1000 C999 1.362 . S
C1000 C1003 1.409 . S
C1001 H993 0.930 1_556 S
C1001 C1002 1.355 1_565 S
C1001 C1003 1.415 . S
C1002 C1001 1.355 1_545 S
C1002 C1004 1.419 . S
C1003 C998 1.425 . S
C1003 C1000 1.409 . S
C1003 C1001 1.415 . S
C1004 H994 0.930 . S
C1004 C1002 1.419 . S
C1004 C1005 1.362 . S
C1005 H995 0.930 . S
C1005 C998 1.409 1_545 S
C1005 C1004 1.362 . S
H1006 C1012 0.930 . S
H1007 C1015 0.930 . S
H1008 C1016 0.930 . S
H1009 C1017 0.930 . S
H1010 C1020 0.930 . S
H1011 C1021 0.930 . S
C1012 H1006 0.930 . S
C1012 C1013 1.355 1_455 S
C1012 C1014 1.415 . S
C1013 C1012 1.355 1_655 S
C1013 C1015 1.419 . S
C1014 C1012 1.415 . S
C1014 C1019 1.425 . S
C1014 C1021 1.409 . S
C1015 H1007 0.930 . S
C1015 C1013 1.419 . S
C1015 C1016 1.362 . S
C1016 H1008 0.930 . S
C1016 C1015 1.362 . S
C1016 C1019 1.409 1_655 S
C1017 H1009 0.930 . S
C1017 C1018 1.355 . S
C1017 C1019 1.415 . S
C1018 C1017 1.355 . S
C1018 C1020 1.419 . S
C1019 C1014 1.425 . S
C1019 C1016 1.409 1_455 S
C1019 C1017 1.415 . S
C1020 H1010 0.930 . S
C1020 C1018 1.419 . S
C1020 C1021 1.362 . S
C1021 H1011 0.930 . S
C1021 C1014 1.409 . S
C1021 C1020 1.362 . S
H1022 C1028 0.930 . S
H1023 C1031 0.930 . S
H1024 C1032 0.930 . S
H1025 C1033 0.930 . S
H1026 C1036 0.930 . S
H1027 C1037 0.930 . S
C1028 H1022 0.930 . S
C1028 C1029 1.355 . S
C1028 C1030 1.415 . S
C1029 C1028 1.355 . S
C1029 C1031 1.419 . S
C1030 C1028 1.415 . S
C1030 C1035 1.425 . S
C1030 C1037 1.409 . S
C1031 H1023 0.930 . S
C1031 C1029 1.419 . S
C1031 C1032 1.362 . S
C1032 H1024 0.930 . S
C1032 C1031 1.362 . S
C1032 C1035 1.409 . S
C1033 H1025 0.930 . S
C1033 C1034 1.355 . S
C1033 C1035 1.415 . S
C1034 C1033 1.355 . S
C1034 C1036 1.419 . S
C1035 C1030 1.425 . S
C1035 C1032 1.409 . S
C1035 C1033 1.415 . S
C1036 H1026 0.930 . S
C1036 C1034 1.419 . S
C1036 C1037 1.362 . S
C1037 H1027 0.930 . S
C1037 C1030 1.409 . S
C1037 C1036 1.362 . S
H1038 C1044 0.930 . S
H1039 C1047 0.930 . S
H1040 C1048 0.930 . S
H1041 C1049 0.930 . S
H1042 C1052 0.930 . S
H1043 C1053 0.930 1_655 S
C1044 H1038 0.930 . S
C1044 C1045 1.355 . S
C1044 C1046 1.415 1_655 S
C1045 C1044 1.355 . S
C1045 C1047 1.419 1_655 S
C1046 C1044 1.415 1_455 S
C1046 C1051 1.425 . S
C1046 C1053 1.409 . S
C1047 H1039 0.930 . S
C1047 C1045 1.419 1_455 S
C1047 C1048 1.362 . S
C1048 H1040 0.930 . S
C1048 C1047 1.362 . S
C1048 C1051 1.409 . S
C1049 H1041 0.930 . S
C1049 C1050 1.355 . S
C1049 C1051 1.415 . S
C1050 C1049 1.355 . S
C1050 C1052 1.419 . S
C1051 C1046 1.425 . S
C1051 C1048 1.409 . S
C1051 C1049 1.415 . S
C1052 H1042 0.930 . S
C1052 C1050 1.419 . S
C1052 C1053 1.362 . S
C1053 H1043 0.930 1_455 S
C1053 C1046 1.409 . S
C1053 C1052 1.362 . S
H1054 C1060 0.930 . S
H1055 C1063 0.930 . S
H1056 C1064 0.930 . S
H1057 C1065 0.930 . S
H1058 C1068 0.930 . S
H1059 C1069 0.930 . S
C1060 H1054 0.930 . S
C1060 C1061 1.355 . S
C1060 C1062 1.415 . S
C1061 C1060 1.355 . S
C1061 C1063 1.419 . S
C1062 C1060 1.415 . S
C1062 C1067 1.425 . S
C1062 C1069 1.409 . S
C1063 H1055 0.930 . S
C1063 C1061 1.419 . S
C1063 C1064 1.362 . S
C1064 H1056 0.930 . S
C1064 C1063 1.362 . S
C1064 C1067 1.409 . S
C1065 H1057 0.930 . S
C1065 C1066 1.355 . S
C1065 C1067 1.415 . S
C1066 C1065 1.355 . S
C1066 C1068 1.419 . S
C1067 C1062 1.425 . S
C1067 C1064 1.409 . S
C1067 C1065 1.415 . S
C1068 H1058 0.930 . S
C1068 C1066 1.419 . S
C1068 C1069 1.362 . S
C1069 H1059 0.930 . S
C1069 C1062 1.409 . S
C1069 C1068 1.362 . S
H1070 C1076 0.930 . S
H1071 C1079 0.930 . S
H1072 C1080 0.915 1_545 S
H1073 C1081 0.930 . S
H1074 C1084 0.930 . S
H1075 C1085 0.930 . S
C1076 H1070 0.930 . S
C1076 C1077 1.355 . S
C1076 C1078 1.415 . S
C1077 C1076 1.355 . S
C1077 C1079 1.419 . S
C1078 C1076 1.415 . S
C1078 C1083 1.425 . S
C1078 C1085 1.409 . S
C1079 H1071 0.930 . S
C1079 C1077 1.419 . S
C1079 C1080 1.362 . S
C1080 H1072 0.915 1_565 S
C1080 C1079 1.362 . S
C1080 C1083 1.409 . S
C1081 H1073 0.930 . S
C1081 C1082 1.355 . S
C1081 C1083 1.415 1_545 S
C1082 C1081 1.355 . S
C1082 C1084 1.419 1_545 S
C1083 C1078 1.425 . S
C1083 C1080 1.409 . S
C1083 C1081 1.415 1_565 S
C1084 H1074 0.930 . S
C1084 C1082 1.419 1_565 S
C1084 C1085 1.362 . S
C1085 H1075 0.930 . S
C1085 C1078 1.409 . S
C1085 C1084 1.362 . S
H1086 C1092 0.930 . S
H1087 C1095 0.930 . S
H1088 C1096 0.930 . S
H1089 C1097 0.930 . S
H1090 C1100 0.930 . S
H1091 C1101 0.930 . S
C1092 H1086 0.930 . S
C1092 C1093 1.355 . S
C1092 C1094 1.415 . S
C1093 C1092 1.355 . S
C1093 C1095 1.419 . S
C1094 C1092 1.415 . S
C1094 C1099 1.425 . S
C1094 C1101 1.409 . S
C1095 H1087 0.930 . S
C1095 C1093 1.419 . S
C1095 C1096 1.362 . S
C1096 H1088 0.930 . S
C1096 C1095 1.362 . S
C1096 C1099 1.409 . S
C1097 H1089 0.930 . S
C1097 C1098 1.355 . S
C1097 C1099 1.415 . S
C1098 C1097 1.355 . S
C1098 C1100 1.419 . S
C1099 C1094 1.425 . S
C1099 C1096 1.409 . S
C1099 C1097 1.415 . S
C1100 H1090 0.930 . S
C1100 C1098 1.419 . S
C1100 C1101 1.362 . S
C1101 H1091 0.930 . S
C1101 C1094 1.409 . S
C1101 C1100 1.362 . S
H1102 C1108 0.930 . S
H1103 C1111 0.930 . S
H1104 C1112 0.930 . S
H1105 C1113 0.930 . S
H1106 C1116 0.930 . S
H1107 C1117 0.930 . S
C1108 H1102 0.930 . S
C1108 C1109 1.355 . S
C1108 C1110 1.415 . S
C1109 C1108 1.355 . S
C1109 C1111 1.419 . S
C1110 C1108 1.415 . S
C1110 C1115 1.425 . S
C1110 C1117 1.409 . S
C1111 H1103 0.930 . S
C1111 C1109 1.419 . S
C1111 C1112 1.362 . S
C1112 H1104 0.930 . S
C1112 C1111 1.362 . S
C1112 C1115 1.409 . S
C1113 H1105 0.930 . S
C1113 C1114 1.355 . S
C1113 C1115 1.415 . S
C1114 C1113 1.355 . S
C1114 C1116 1.419 . S
C1115 C1110 1.425 . S
C1115 C1112 1.409 . S
C1115 C1113 1.415 . S
C1116 H1106 0.930 . S
C1116 C1114 1.419 . S
C1116 C1117 1.362 . S
C1117 H1107 0.930 . S
C1117 C1110 1.409 . S
C1117 C1116 1.362 . S
H1118 C1124 0.930 . S
H1119 C1127 0.930 . S
H1120 C1128 0.930 . S
H1121 C1129 0.930 . S
H1122 C1132 0.930 . S
H1123 C1133 0.930 . S
C1124 H1118 0.930 . S
C1124 C1125 1.355 . S
C1124 C1126 1.415 . S
C1125 C1124 1.355 . S
C1125 C1127 1.419 . S
C1126 C1124 1.415 . S
C1126 C1131 1.425 . S
C1126 C1133 1.409 . S
C1127 H1119 0.930 . S
C1127 C1125 1.419 . S
C1127 C1128 1.362 . S
C1128 H1120 0.930 . S
C1128 C1127 1.362 . S
C1128 C1131 1.409 . S
C1129 H1121 0.930 . S
C1129 C1130 1.355 . S
C1129 C1131 1.415 . S
C1130 C1129 1.355 . S
C1130 C1132 1.419 . S
C1131 C1126 1.425 . S
C1131 C1128 1.409 . S
C1131 C1129 1.415 . S
C1132 H1122 0.930 . S
C1132 C1130 1.419 . S
C1132 C1133 1.362 . S
C1133 H1123 0.930 . S
C1133 C1126 1.409 . S
C1133 C1132 1.362 . S
H1134 C1140 0.930 . S
H1135 C1143 0.930 . S
H1136 C1144 0.930 . S
H1137 C1145 0.930 . S
H1138 C1148 0.930 . S
H1139 C1149 0.930 . S
C1140 H1134 0.930 . S
C1140 C1141 1.355 . S
C1140 C1142 1.415 . S
C1141 C1140 1.355 . S
C1141 C1143 1.419 . S
C1142 C1140 1.415 . S
C1142 C1147 1.425 . S
C1142 C1149 1.409 . S
C1143 H1135 0.930 . S
C1143 C1141 1.419 . S
C1143 C1144 1.362 . S
C1144 H1136 0.930 . S
C1144 C1143 1.362 . S
C1144 C1147 1.409 . S
C1145 H1137 0.930 . S
C1145 C1146 1.355 . S
C1145 C1147 1.415 . S
C1146 C1145 1.355 . S
C1146 C1148 1.419 . S
C1147 C1142 1.425 . S
C1147 C1144 1.409 . S
C1147 C1145 1.415 . S
C1148 H1138 0.930 . S
C1148 C1146 1.419 . S
C1148 C1149 1.362 . S
C1149 H1139 0.930 . S
C1149 C1142 1.409 . S
C1149 C1148 1.362 . S
H1150 C1156 0.930 . S
H1151 C1159 0.930 . S
H1152 C1160 0.930 . S
H1153 C1161 0.930 . S
H1154 C1164 0.930 . S
H1155 C1165 0.930 . S
C1156 H1150 0.930 . S
C1156 C1157 1.355 . S
C1156 C1158 1.415 . S
C1157 C1156 1.355 . S
C1157 C1159 1.419 . S
C1158 C1156 1.415 . S
C1158 C1163 1.425 . S
C1158 C1165 1.409 . S
C1159 H1151 0.930 . S
C1159 C1157 1.419 . S
C1159 C1160 1.362 . S
C1160 H1152 0.930 . S
C1160 C1159 1.362 . S
C1160 C1163 1.409 . S
C1161 H1153 0.930 . S
C1161 C1162 1.355 . S
C1161 C1163 1.415 . S
C1162 C1161 1.355 . S
C1162 C1164 1.419 . S
C1163 C1158 1.425 . S
C1163 C1160 1.409 . S
C1163 C1161 1.415 . S
C1164 H1154 0.930 . S
C1164 C1162 1.419 . S
C1164 C1165 1.362 . S
C1165 H1155 0.930 . S
C1165 C1158 1.409 . S
C1165 C1164 1.362 . S
H1166 C1172 0.930 . S
H1167 C1175 0.930 . S
H1168 C1176 0.930 . S
H1169 C1177 0.930 . S
H1170 C1180 0.930 . S
H1171 C1181 0.930 . S
C1172 H1166 0.930 . S
C1172 C1173 1.355 . S
C1172 C1174 1.415 . S
C1173 C1172 1.355 . S
C1173 C1175 1.419 . S
C1174 C1172 1.415 . S
C1174 C1179 1.425 . S
C1174 C1181 1.409 . S
C1175 H1167 0.930 . S
C1175 C1173 1.419 . S
C1175 C1176 1.362 . S
C1176 H1168 0.930 . S
C1176 C1175 1.362 . S
C1176 C1179 1.409 . S
C1177 H1169 0.930 . S
C1177 C1178 1.355 . S
C1177 C1179 1.415 . S
C1178 C1177 1.355 . S
C1178 C1180 1.419 . S
C1179 C1174 1.425 . S
C1179 C1176 1.409 . S
C1179 C1177 1.415 . S
C1180 H1170 0.930 . S
C1180 C1178 1.419 . S
C1180 C1181 1.362 . S
C1181 H1171 0.930 . S
C1181 C1174 1.409 . S
C1181 C1180 1.362 . S
H1182 C1188 0.930 . S
H1183 C1191 0.930 . S
H1184 C1192 0.930 . S
H1185 C1193 0.930 . S
H1186 C1196 0.930 . S
H1187 C1197 0.930 . S
C1188 H1182 0.930 . S
C1188 C1189 1.355 . S
C1188 C1190 1.415 . S
C1189 C1188 1.355 . S
C1189 C1191 1.419 . S
C1190 C1188 1.415 . S
C1190 C1195 1.425 . S
C1190 C1197 1.409 . S
C1191 H1183 0.930 . S
C1191 C1189 1.419 . S
C1191 C1192 1.362 . S
C1192 H1184 0.930 . S
C1192 C1191 1.362 . S
C1192 C1195 1.409 . S
C1193 H1185 0.930 . S
C1193 C1194 1.355 . S
C1193 C1195 1.415 . S
C1194 C1193 1.355 . S
C1194 C1196 1.419 . S
C1195 C1190 1.425 . S
C1195 C1192 1.409 . S
C1195 C1193 1.415 . S
C1196 H1186 0.930 . S
C1196 C1194 1.419 . S
C1196 C1197 1.362 . S
C1197 H1187 0.930 . S
C1197 C1190 1.409 . S
C1197 C1196 1.362 . S
H1198 C1204 0.930 . S
H1199 C1207 0.930 . S
H1200 C1208 0.930 . S
H1201 C1209 0.930 . S
H1202 C1212 0.930 . S
H1203 C1213 0.930 . S
C1204 H1198 0.930 . S
C1204 C1205 1.355 . S
C1204 C1206 1.415 . S
C1205 C1204 1.355 . S
C1205 C1207 1.419 . S
C1206 C1204 1.415 . S
C1206 C1211 1.425 . S
C1206 C1213 1.409 . S
C1207 H1199 0.930 . S
C1207 C1205 1.419 . S
C1207 C1208 1.362 . S
C1208 H1200 0.930 . S
C1208 C1207 1.362 . S
C1208 C1211 1.409 . S
C1209 H1201 0.930 . S
C1209 C1210 1.355 . S
C1209 C1211 1.415 . S
C1210 C1209 1.355 . S
C1210 C1212 1.419 . S
C1211 C1206 1.425 . S
C1211 C1208 1.409 . S
C1211 C1209 1.415 . S
C1212 H1202 0.930 . S
C1212 C1210 1.419 . S
C1212 C1213 1.362 . S
C1213 H1203 0.930 . S
C1213 C1206 1.409 . S
C1213 C1212 1.362 . S
H1214 C1220 0.930 . S
H1215 C1223 0.930 . S
H1216 C1224 0.930 . S
H1217 C1225 0.930 . S
H1218 C1228 0.930 . S
H1219 C1229 0.930 . S
C1220 H1214 0.930 . S
C1220 C1221 1.355 . S
C1220 C1222 1.415 . S
C1221 C1220 1.355 . S
C1221 C1223 1.419 . S
C1222 C1220 1.415 . S
C1222 C1227 1.425 . S
C1222 C1229 1.409 . S
C1223 H1215 0.930 . S
C1223 C1221 1.419 . S
C1223 C1224 1.362 . S
C1224 H1216 0.930 . S
C1224 C1223 1.362 . S
C1224 C1227 1.409 . S
C1225 H1217 0.930 . S
C1225 C1226 1.355 . S
C1225 C1227 1.415 . S
C1226 C1225 1.355 . S
C1226 C1228 1.419 . S
C1227 C1222 1.425 . S
C1227 C1224 1.409 . S
C1227 C1225 1.415 . S
C1228 H1218 0.930 . S
C1228 C1226 1.419 . S
C1228 C1229 1.362 . S
C1229 H1219 0.930 . S
C1229 C1222 1.409 . S
C1229 C1228 1.362 . S
H1230 C1236 0.930 . S
H1231 C1239 0.930 . S
H1232 C1240 0.930 . S
H1233 C1241 0.930 . S
H1234 C1244 0.930 . S
H1235 C1245 0.930 . S
C1236 H1230 0.930 . S
C1236 C1237 1.355 . S
C1236 C1238 1.415 . S
C1237 C1236 1.355 . S
C1237 C1239 1.419 . S
C1238 C1236 1.415 . S
C1238 C1243 1.425 . S
C1238 C1245 1.409 . S
C1239 H1231 0.930 . S
C1239 C1237 1.419 . S
C1239 C1240 1.362 . S
C1240 H1232 0.930 . S
C1240 C1239 1.362 . S
C1240 C1243 1.409 . S
C1241 H1233 0.930 . S
C1241 C1242 1.355 . S
C1241 C1243 1.415 . S
C1242 C1241 1.355 . S
C1242 C1244 1.419 . S
C1243 C1238 1.425 . S
C1243 C1240 1.409 . S
C1243 C1241 1.415 . S
C1244 H1234 0.930 . S
C1244 C1242 1.419 . S
C1244 C1245 1.362 . S
C1245 H1235 0.930 . S
C1245 C1238 1.409 . S
C1245 C1244 1.362 . S
H1246 C1252 0.930 . S
H1247 C1255 0.930 . S
H1248 C1256 0.930 . S
H1249 C1257 0.930 . S
H1250 C1260 0.930 . S
H1251 C1261 0.930 . S
C1252 H1246 0.930 . S
C1252 C1253 1.355 . S
C1252 C1254 1.415 . S
C1253 C1252 1.355 . S
C1253 C1255 1.419 . S
C1254 C1252 1.415 . S
C1254 C1259 1.425 . S
C1254 C1261 1.409 . S
C1255 H1247 0.930 . S
C1255 C1253 1.419 . S
C1255 C1256 1.362 . S
C1256 H1248 0.930 . S
C1256 C1255 1.362 . S
C1256 C1259 1.409 . S
C1257 H1249 0.930 . S
C1257 C1258 1.355 . S
C1257 C1259 1.415 . S
C1258 C1257 1.355 . S
C1258 C1260 1.419 . S
C1259 C1254 1.425 . S
C1259 C1256 1.409 . S
C1259 C1257 1.415 . S
C1260 H1250 0.930 . S
C1260 C1258 1.419 . S
C1260 C1261 1.362 . S
C1261 H1251 0.930 . S
C1261 C1254 1.409 . S
C1261 C1260 1.362 . S
H1262 C1268 0.930 . S
H1263 C1271 0.930 1_556 S
H1264 C1272 0.930 . S
H1265 C1273 0.930 . S
H1266 C1276 0.930 . S
H1267 C1277 0.930 . S
C1268 H1262 0.930 . S
C1268 C1269 1.355 . S
C1268 C1270 1.415 . S
C1269 C1268 1.355 . S
C1269 C1271 1.419 . S
C1270 C1268 1.415 . S
C1270 C1275 1.425 . S
C1270 C1277 1.409 . S
C1271 H1263 0.930 1_554 S
C1271 C1269 1.419 . S
C1271 C1272 1.362 . S
C1272 H1264 0.930 . S
C1272 C1271 1.362 . S
C1272 C1275 1.409 . S
C1273 H1265 0.930 . S
C1273 C1274 1.355 . S
C1273 C1275 1.415 . S
C1274 C1273 1.355 . S
C1274 C1276 1.419 . S
C1275 C1270 1.425 . S
C1275 C1272 1.409 . S
C1275 C1273 1.415 . S
C1276 H1266 0.930 . S
C1276 C1274 1.419 . S
C1276 C1277 1.362 . S
C1277 H1267 0.930 . S
C1277 C1270 1.409 . S
C1277 C1276 1.362 . S
C421 C18 0.942 1_556 S
C426 C62 0.941 . S
C437 C16 0.934 . S
C442 C41 0.922 1_556 S
C453 C64 0.873 1_556 S
C458 C39 0.911 . S
C469 C108 0.953 . S
C474 C87 0.964 . S
C485 C131 0.932 . S
C490 C110 0.926 . S
C501 C133 0.890 . S
C506 C85 0.918 . S
C517 C200 0.941 . S
C522 C156 0.942 . S
C533 C179 0.934 . S
C538 C154 0.937 . S
C549 C177 0.906 . S
C554 C202 0.869 . S
C565 C225 0.906 . S
C570 C246 0.926 . S
C581 C269 0.945 . S
C586 C248 0.943 . S
C597 C271 0.885 . S
C602 C223 0.916 . S
C613 C338 0.933 . S
C618 C294 0.918 . S
C629 C317 0.934 . S
C634 C292 0.936 . S
C645 C340 0.867 . S
C650 C315 0.905 . S
C661 C363 0.910 . S
C666 C384 0.928 . S
C677 C407 0.954 . S
C682 C386 0.962 . S
C693 C361 0.906 . S
C698 C409 0.869 . S
C709 C134 1.099 . S
C714 C20 1.036 . S
C725 C88 1.056 . S
C730 C43 1.083 . S
C741 C111 1.078 . S
C746 C66 1.067 . S
C757 C42 1.032 . S
C762 C89 1.075 . S
C773 C112 1.102 . S
C778 C65 1.019 . S
C789 C19 1.029 . S
C794 C135 1.078 . S
C805 C158 1.054 . S
C810 C272 1.091 . S
C821 C181 1.038 . S
C826 C226 1.101 . S
C837 C249 1.101 . S
C842 C204 1.040 . S
C853 C227 1.036 1_554 S
C858 C180 1.101 . S
C869 C250 1.045 1_554 S
C874 C203 1.098 . S
C885 C273 1.079 1_554 S
C890 C157 1.027 . S
C901 C296 1.073 . S
C906 C410 1.035 . S
C917 C319 1.090 . S
C922 C364 1.044 . S
C933 C342 1.040 . S
C938 C387 1.101 . S
C949 C365 1.036 . S
C954 C318 1.100 . S
C965 C388 1.037 . S
C970 C341 1.101 . S
C981 C411 1.081 . S
C986 C295 1.059 . S
C997 C251 2.089 . S
C1002 C17 2.050 . S
C1013 C40 2.050 . S
C1018 C274 2.089 . S
C1029 C228 2.092 . S
C1034 C63 2.055 . S
C1045 C86 2.093 . S
C1050 C205 2.119 . S
C1061 C109 2.049 . S
C1066 C159 2.088 . S
C1077 C182 2.118 . S
C1082 C132 2.092 . S
C1093 C155 2.050 . S
C1098 C389 2.088 1_455 S
C1109 C178 2.086 . S
C1114 C412 2.113 . S
C1125 C201 2.084 . S
C1130 C366 2.112 1_565 S
C1141 C343 2.118 1_565 S
C1146 C224 2.091 . S
C1157 C297 2.111 1_455 S
C1162 C247 2.082 . S
C1173 C320 2.121 . S
C1178 C270 2.097 . S
C1189 C113 2.110 . S
C1194 C293 2.080 . S
C1205 C316 2.053 . S
C1210 C136 2.091 . S
C1221 C90 2.121 . S
C1226 C339 2.096 . S
C1237 C362 2.080 . S
C1242 C67 2.110 . S
C1253 C385 2.051 . S
C1258 C21 2.089 . S
C1269 C44 2.119 . S
C1274 C408 2.094 . S
