# Generated by pormake.
# Topology wji, (4)-cn, num edge types: 1
# Building blocks:
#     Node 0, Type 0, BuildingBlock: ICAMEG_clean_sbu_1, # of connection points: 4
#     Node 1, Type 0, BuildingBlock: ICAMEG_clean_sbu_1, # of connection points: 4
#     Node 2, Type 0, BuildingBlock: ICAMEG_clean_sbu_1, # of connection points: 4
#     Node 3, Type 0, BuildingBlock: ICAMEG_clean_sbu_1, # of connection points: 4
#     Node 4, Type 0, BuildingBlock: ICAMEG_clean_sbu_1, # of connection points: 4
#     Node 5, Type 0, BuildingBlock: ICAMEG_clean_sbu_1, # of connection points: 4
#     Node 6, Type 0, BuildingBlock: ICAMEG_clean_sbu_1, # of connection points: 4
#     Node 7, Type 0, BuildingBlock: ICAMEG_clean_sbu_1, # of connection points: 4
#     Node 8, Type 0, BuildingBlock: ICAMEG_clean_sbu_1, # of connection points: 4
#     Node 9, Type 0, BuildingBlock: ICAMEG_clean_sbu_1, # of connection points: 4
#     Node 10, Type 0, BuildingBlock: ICAMEG_clean_sbu_1, # of connection points: 4
#     Node 11, Type 0, BuildingBlock: ICAMEG_clean_sbu_1, # of connection points: 4
#     Edge 12, Type (0, 0), BuildingBlock: EZIPEK_clean_linker_0, # of connection points: 2
#     Edge 13, Type (0, 0), BuildingBlock: EZIPEK_clean_linker_0, # of connection points: 2
#     Edge 14, Type (0, 0), BuildingBlock: EZIPEK_clean_linker_0, # of connection points: 2
#     Edge 15, Type (0, 0), BuildingBlock: EZIPEK_clean_linker_0, # of connection points: 2
#     Edge 16, Type (0, 0), BuildingBlock: EZIPEK_clean_linker_0, # of connection points: 2
#     Edge 17, Type (0, 0), BuildingBlock: EZIPEK_clean_linker_0, # of connection points: 2
#     Edge 18, Type (0, 0), BuildingBlock: EZIPEK_clean_linker_0, # of connection points: 2
#     Edge 19, Type (0, 0), BuildingBlock: EZIPEK_clean_linker_0, # of connection points: 2
#     Edge 20, Type (0, 0), BuildingBlock: EZIPEK_clean_linker_0, # of connection points: 2
#     Edge 21, Type (0, 0), BuildingBlock: EZIPEK_clean_linker_0, # of connection points: 2
#     Edge 22, Type (0, 0), BuildingBlock: EZIPEK_clean_linker_0, # of connection points: 2
#     Edge 23, Type (0, 0), BuildingBlock: EZIPEK_clean_linker_0, # of connection points: 2
#     Edge 24, Type (0, 0), BuildingBlock: EZIPEK_clean_linker_0, # of connection points: 2
#     Edge 25, Type (0, 0), BuildingBlock: EZIPEK_clean_linker_0, # of connection points: 2
#     Edge 26, Type (0, 0), BuildingBlock: EZIPEK_clean_linker_0, # of connection points: 2
#     Edge 27, Type (0, 0), BuildingBlock: EZIPEK_clean_linker_0, # of connection points: 2
#     Edge 28, Type (0, 0), BuildingBlock: EZIPEK_clean_linker_0, # of connection points: 2
#     Edge 29, Type (0, 0), BuildingBlock: EZIPEK_clean_linker_0, # of connection points: 2
#     Edge 30, Type (0, 0), BuildingBlock: EZIPEK_clean_linker_0, # of connection points: 2
#     Edge 31, Type (0, 0), BuildingBlock: EZIPEK_clean_linker_0, # of connection points: 2
#     Edge 32, Type (0, 0), BuildingBlock: EZIPEK_clean_linker_0, # of connection points: 2
#     Edge 33, Type (0, 0), BuildingBlock: EZIPEK_clean_linker_0, # of connection points: 2
#     Edge 34, Type (0, 0), BuildingBlock: EZIPEK_clean_linker_0, # of connection points: 2
#     Edge 35, Type (0, 0), BuildingBlock: EZIPEK_clean_linker_0, # of connection points: 2
# Relax obj value: 0.327
# Max RMSD: 0.211
# Mean RMSD: 0.211
data_MOF--net-wji--node1-ICAMEG_clean_sbu_1--edge1-EZIPEK_clean_linker_0
_symmetry_space_group_name_H-M    P1
_symmetry_Int_Tables_number       1
_symmetry_cell_setting            triclinic
loop_
_symmetry_equiv_pos_as_xyz
'x, y, z'
_cell_length_a     45.114737
_cell_length_b     45.147221
_cell_length_c     17.215565
_cell_angle_alpha  89.80153
_cell_angle_beta   89.752957
_cell_angle_gamma 119.80799
loop_
_atom_site_label
_atom_site_type_symbol
_atom_site_fract_x
_atom_site_fract_y
_atom_site_fract_z
_atom_type_partial_charge
Co0 Co 0.45013 0.38981 0.45906 0.0
Co1 Co 0.46234 0.33206 0.35922 0.0
O2 O 0.44465 0.34412 0.45054 0.0
C3 C 0.38058 0.34317 0.52496 0.0
O4 O 0.37371 0.32238 0.4662 0.0
C5 C 0.47153 0.29472 0.49884 0.0
O6 O 0.4612 0.31065 0.54533 0.0
O7 O 0.50921 0.37239 0.37983 0.0
O8 O 0.49212 0.41032 0.39256 0.0
H9 H 0.52937 0.3589 0.11014 0.0
H10 H 0.44382 0.35106 0.60387 0.0
O11 O 0.40878 0.37113 0.52835 0.0
H12 H 0.55652 0.45502 0.61959 0.0
H13 H 0.46265 0.49169 0.60251 0.0
H14 H 0.4644 0.44517 0.34559 0.0
H15 H 0.51667 0.4478 0.51437 0.0
H16 H 0.44547 0.43103 0.58809 0.0
O17 O 0.47453 0.3013 0.42547 0.0
H18 H 0.50556 0.37186 0.22607 0.0
H19 H 0.45903 0.26835 0.29921 0.0
H20 H 0.47745 0.50489 0.35571 0.0
H21 H 0.48229 0.35715 0.71151 0.0
H22 H 0.47739 0.52886 0.48543 0.0
H23 H 0.53959 0.40913 0.71875 0.0
O24 O 0.42196 0.38081 0.36352 0.0
H25 H 0.34856 0.23183 0.43647 0.0
H26 H 0.41937 0.30327 0.21826 0.0
H27 H 0.36132 0.25604 0.19299 0.0
H28 H 0.32548 0.21977 0.30247 0.0
H29 H 0.40657 0.27938 0.45921 0.0
H30 H 0.48255 0.25428 0.18467 0.0
H31 H 0.51783 0.29969 0.08885 0.0
O32 O 0.44918 0.36072 0.28915 0.0
C33 C 0.51613 0.40331 0.38776 0.0
C34 C 0.51395 0.33886 0.15135 0.0
C35 C 0.48774 0.28016 0.19326 0.0
N36 N 0.48075 0.32087 0.26905 0.0
C37 C 0.50034 0.34604 0.21695 0.0
C38 C 0.4746 0.28831 0.25823 0.0
C39 C 0.50751 0.30565 0.13949 0.0
C40 C 0.46852 0.3737 0.60688 0.0
N41 N 0.47861 0.39821 0.55051 0.0
C42 C 0.49029 0.37705 0.66791 0.0
C43 C 0.52243 0.40618 0.67191 0.0
C44 C 0.53197 0.43189 0.61627 0.0
C45 C 0.50942 0.42757 0.55633 0.0
C46 C 0.46171 0.48141 0.54549 0.0
C47 C 0.46294 0.45498 0.40171 0.0
C48 C 0.45265 0.44722 0.53727 0.0
N49 N 0.45487 0.43483 0.46661 0.0
C50 C 0.47058 0.48891 0.40716 0.0
C51 C 0.47047 0.50232 0.47988 0.0
C52 C 0.42928 0.37344 0.29694 0.0
C53 C 0.36405 0.24719 0.38811 0.0
C54 C 0.40417 0.28742 0.26626 0.0
C55 C 0.37121 0.26077 0.25154 0.0
C56 C 0.3511 0.24048 0.31298 0.0
N57 N 0.41698 0.29357 0.34001 0.0
C58 C 0.39712 0.27411 0.40061 0.0
Co59 Co 0.0613 0.43169 0.64341 0.0
Co60 Co 0.13404 0.4459 0.55462 0.0
O61 O 0.10419 0.43087 0.6479 0.0
C62 C 0.04128 0.36366 0.71387 0.0
O63 O 0.05327 0.35511 0.65377 0.0
C64 C 0.17986 0.4556 0.6957 0.0
O65 O 0.15379 0.44504 0.74353 0.0
O66 O 0.13969 0.49261 0.57117 0.0
O67 O 0.08427 0.47497 0.57659 0.0
H68 H 0.17495 0.50672 0.29789 0.0
H69 H 0.12684 0.48302 0.71873 0.0
O70 O 0.04128 0.39179 0.71576 0.0
H71 H 0.03646 0.48435 0.87658 0.0
H72 H 0.93243 0.37525 0.66884 0.0
H73 H 0.0328 0.46059 0.52631 0.0
H74 H 0.02165 0.4427 0.77353 0.0
H75 H 0.98907 0.38904 0.71305 0.0
O76 O 0.17617 0.4589 0.6227 0.0
H77 H 0.137 0.48451 0.41239 0.0
H78 H 0.19659 0.44367 0.5031 0.0
H79 H 0.97701 0.44996 0.48913 0.0
H80 H 0.14256 0.52385 0.82442 0.0
H81 H 0.92572 0.40733 0.56102 0.0
H82 H 0.09731 0.52606 0.90228 0.0
O83 O 0.04858 0.40135 0.55392 0.0
H84 H 0.11696 0.33255 0.64828 0.0
H85 H 0.12636 0.40144 0.41766 0.0
H86 H 0.11607 0.34316 0.4007 0.0
H87 H 0.11141 0.30813 0.51654 0.0
H88 H 0.12711 0.39096 0.66219 0.0
H89 H 0.23531 0.46563 0.39012 0.0
H90 H 0.22454 0.49727 0.28609 0.0
O91 O 0.09318 0.43198 0.48002 0.0
C92 C 0.11532 0.49938 0.57612 0.0
C93 C 0.17996 0.49299 0.34283 0.0
C94 C 0.21384 0.46998 0.39465 0.0
N95 N 0.16451 0.46285 0.46483 0.0
C96 C 0.15856 0.48036 0.40791 0.0
C97 C 0.1919 0.45777 0.45892 0.0
C98 C 0.20777 0.4877 0.33626 0.0
C99 C 0.10663 0.48266 0.7527 0.0
N100 N 0.07301 0.46096 0.73536 0.0
C101 C 0.11589 0.50626 0.8128 0.0
C102 C 0.09054 0.50751 0.85638 0.0
C103 C 0.05642 0.48418 0.84183 0.0
C104 C 0.04815 0.46051 0.7822 0.0
C105 C 0.95482 0.3957 0.6414 0.0
C106 C 1.01191 0.44406 0.56376 0.0
C107 C 0.98755 0.40369 0.66536 0.0
N108 N 1.0163 0.42854 0.62822 0.0
C109 C 0.97969 0.43755 0.54034 0.0
C110 C 0.95095 0.41339 0.57997 0.0
C111 C 0.06155 0.409 0.48699 0.0
C112 C 0.11899 0.34752 0.59723 0.0
C113 C 0.12427 0.38662 0.46851 0.0
C114 C 0.11849 0.35348 0.45847 0.0
C115 C 0.11587 0.33385 0.5234 0.0
N116 N 0.12758 0.40011 0.54112 0.0
C117 C 0.12468 0.38074 0.60487 0.0
Co118 Co 0.64918 0.06772 0.81005 0.0
Co119 Co 0.70763 0.13477 0.70278 0.0
O120 O 0.69489 0.1068 0.79716 0.0
C121 C 0.69484 0.04208 0.86908 0.0
O122 O 0.71602 0.05605 0.81036 0.0
C123 C 0.73217 0.18607 0.83213 0.0
O124 O 0.70141 0.16941 0.86275 0.0
O125 O 0.6681 0.14328 0.71849 0.0
O126 O 0.62868 0.09008 0.74819 0.0
H127 H 0.68473 0.17634 0.45171 0.0
H128 H 0.68972 0.09682 0.95302 0.0
O129 O 0.66769 0.04389 0.87478 0.0
H130 H 0.58994 0.11286 0.98206 0.0
H131 H 0.55137 0.97666 0.96419 0.0
H132 H 0.59158 0.02597 0.70362 0.0
H133 H 0.59525 0.08237 0.86935 0.0
H134 H 0.61008 0.02396 0.94416 0.0
O135 O 0.73842 0.17653 0.76727 0.0
H136 H 0.66961 0.14019 0.56929 0.0
H137 H 0.77325 0.19192 0.64035 0.0
H138 H 0.53294 0.97784 0.72014 0.0
H139 H 0.68478 0.12597 0.06894 0.0
H140 H 0.5123 0.95292 0.85164 0.0
H141 H 0.63485 0.13474 0.08337 0.0
O142 O 0.65542 0.04728 0.71309 0.0
H143 H 0.80863 0.126 0.7941 0.0
H144 H 0.73749 0.11591 0.56857 0.0
H145 H 0.78503 0.10436 0.55245 0.0
H146 H 0.82115 0.10952 0.66578 0.0
H147 H 0.7604 0.13671 0.80771 0.0
H148 H 0.78956 0.22864 0.5234 0.0
H149 H 0.74505 0.22066 0.42777 0.0
O150 O 0.67828 0.09262 0.63497 0.0
C151 C 0.63696 0.12066 0.73032 0.0
C152 C 0.70435 0.17988 0.49266 0.0
C153 C 0.76318 0.20923 0.53291 0.0
N154 N 0.72061 0.16351 0.61076 0.0
C155 C 0.69594 0.15951 0.55931 0.0
C156 C 0.75381 0.18836 0.59897 0.0
C157 C 0.73823 0.2048 0.47935 0.0
C158 C 0.66777 0.10009 0.9594 0.0
N159 N 0.64327 0.08856 0.90335 0.0
C160 C 0.66514 0.11677 0.02501 0.0
C161 C 0.63719 0.12177 0.03296 0.0
C162 C 0.61205 0.1096 0.97606 0.0
C163 C 0.61533 0.0926 0.91186 0.0
C164 C 0.55998 0.98703 0.90665 0.0
C165 C 0.58281 0.01528 0.76081 0.0
C166 C 0.59315 0.01403 0.89513 0.0
N167 N 0.6039 0.02837 0.82325 0.0
C168 C 0.5496 0.98792 0.76982 0.0
C169 C 0.53807 0.9739 0.84351 0.0
C170 C 0.66317 0.05998 0.64468 0.0
C171 C 0.79309 0.12365 0.74425 0.0
C172 C 0.75265 0.11771 0.61828 0.0
C173 C 0.77977 0.1114 0.60875 0.0
C174 C 0.80006 0.11435 0.6723 0.0
N175 N 0.74585 0.1267 0.68903 0.0
C176 C 0.76576 0.12978 0.75152 0.0
Co177 Co 0.58935 0.63069 1.00561 0.0
Co178 Co 0.5838 0.69378 0.90096 0.0
O179 O 0.5969 0.67731 0.99357 0.0
C180 C 0.64803 0.67594 0.10165 0.0
O181 O 0.62784 0.68725 0.12561 0.0
C182 C 0.5745 0.73086 0.04129 0.0
O183 O 0.58639 0.71668 0.08908 0.0
O184 O 0.53573 0.65437 0.91167 0.0
O185 O 0.54267 0.61123 0.95773 0.0
H186 H 0.52873 0.68012 0.64008 0.0
H187 H 0.54488 0.65426 0.0779 0.0
O188 O 0.63587 0.6506 0.0551 0.0
H189 H 0.55412 0.57923 0.27238 0.0
H190 H 0.62559 0.54263 0.97769 0.0
H191 H 0.5299 0.56154 0.04409 0.0
H192 H 0.59105 0.59788 0.15614 0.0
H193 H 0.63378 0.6008 0.97859 0.0
O194 O 0.57096 0.72331 0.96872 0.0
H195 H 0.54775 0.66151 0.75486 0.0
H196 H 0.58969 0.76039 0.85197 0.0
H197 H 0.52145 0.50333 0.04989 0.0
H198 H 0.5109 0.64053 0.19918 0.0
H199 H 0.5693 0.49344 0.01547 0.0
H200 H 0.51386 0.60091 0.29515 0.0
O201 O 0.61094 0.6343 0.90317 0.0
H202 H 0.69866 0.78488 0.9985 0.0
H203 H 0.63043 0.72878 0.76653 0.0
H204 H 0.68946 0.77574 0.75066 0.0
H205 H 0.72412 0.80426 0.86711 0.0
H206 H 0.63952 0.73838 1.01184 0.0
H207 H 0.57091 0.78009 0.73879 0.0
H208 H 0.54031 0.7399 0.63147 0.0
O209 O 0.59742 0.66656 0.82871 0.0
C210 C 0.52408 0.62303 0.93103 0.0
C211 C 0.54198 0.69788 0.68653 0.0
C212 C 0.56559 0.75394 0.74197 0.0
N213 N 0.5696 0.70961 0.81063 0.0
C214 C 0.55276 0.68741 0.75178 0.0
C215 C 0.57596 0.74254 0.80634 0.0
C216 C 0.54846 0.7314 0.68173 0.0
C217 C 0.54731 0.63839 0.12107 0.0
N218 N 0.5685 0.62554 0.10782 0.0
C219 C 0.52784 0.63037 0.18927 0.0
C220 C 0.52952 0.60819 0.24312 0.0
C221 C 0.55213 0.59607 0.23044 0.0
C222 C 0.57283 0.60657 0.16414 0.0
C223 C 0.60459 0.54662 0.99346 0.0
C224 C 0.55112 0.55762 0.03049 0.0
C225 C 0.6091 0.57952 0.99419 0.0
N226 N 0.58256 0.58473 1.01254 0.0
C227 C 0.54613 0.52456 0.03379 0.0
C228 C 0.57299 0.51903 0.01446 0.0
C229 C 0.61023 0.647 0.83798 0.0
C230 C 0.68368 0.77301 0.94722 0.0
C231 C 0.64483 0.74155 0.81771 0.0
C232 C 0.67849 0.76796 0.80823 0.0
C233 C 0.69795 0.78385 0.87355 0.0
N234 N 0.63057 0.73155 0.89019 0.0
C235 C 0.6499 0.74657 0.95442 0.0
Co236 Co 0.9669 0.58091 0.15346 0.0
Co237 Co 0.89955 0.57814 0.05157 0.0
O238 O 0.92972 0.59133 0.14208 0.0
C239 C 0.99732 0.6547 0.19675 0.0
O240 O 0.9812 0.66023 0.1404 0.0
C241 C 0.85267 0.56354 0.1942 0.0
O242 O 0.87609 0.56338 0.23853 0.0
O243 O 0.88882 0.52922 0.06472 0.0
O244 O 0.93865 0.53491 0.10647 0.0
H245 H 0.84863 0.51554 0.80308 0.0
H246 H 0.94287 0.6028 0.2903 0.0
O247 O 0.99583 0.62598 0.20461 0.0
H248 H 0.92975 0.49169 0.36539 0.0
H249 H 0.06374 0.57979 0.29408 0.0
H250 H 0.99782 0.55058 0.05141 0.0
H251 H 0.95257 0.51649 0.23594 0.0
H252 H 1.01619 0.59124 0.27955 0.0
O253 O 0.85787 0.56769 0.12053 0.0
H254 H 0.88739 0.53389 0.91533 0.0
H255 H 0.84475 0.59256 0.9998 0.0
H256 H 0.04621 0.53985 0.06251 0.0
H257 H 0.92092 0.5795 0.42074 0.0
H258 H 0.07988 0.55494 0.1844 0.0
H259 H 0.91363 0.52308 0.4585 0.0
O260 O 0.98581 0.60123 0.04942 0.0
H261 H 0.91922 0.69134 0.14905 0.0
H262 H 0.91889 0.62693 0.91806 0.0
H263 H 0.93394 0.68715 0.90366 0.0
H264 H 0.93397 0.71975 0.01963 0.0
H265 H 0.9047 0.63115 0.16081 0.0
H266 H 0.80509 0.57471 0.88939 0.0
H267 H 0.80692 0.53594 0.78988 0.0
O268 O 0.9401 0.5898 0.97777 0.0
C269 C 0.90805 0.51684 0.08288 0.0
C270 C 0.84772 0.53262 0.84575 0.0
C271 C 0.82326 0.56576 0.89426 0.0
N272 N 0.869 0.56477 0.96311 0.0
C273 C 0.86982 0.5432 0.90908 0.0
C274 C 0.8458 0.57578 0.95675 0.0
C275 C 0.82431 0.54405 0.8384 0.0
C276 C 0.94042 0.57867 0.30674 0.0
N277 N 0.94883 0.56107 0.25519 0.0
C278 C 0.92764 0.56539 0.38049 0.0
C279 C 0.92343 0.53372 0.40149 0.0
C280 C 0.93225 0.51596 0.34893 0.0
C281 C 0.94528 0.53022 0.27587 0.0
C282 C 0.04975 0.57365 0.2403 0.0
C283 C 1.01231 0.5571 0.10462 0.0
C284 C 0.02261 0.57989 0.23187 0.0
N285 N 1.00412 0.57142 0.16482 0.0
C286 C 0.0397 0.55101 0.11054 0.0
C287 C 0.05856 0.55946 0.1789 0.0
C288 C 0.97253 0.60144 0.98425 0.0
C289 C 0.91906 0.67736 0.09796 0.0
C290 C 0.91883 0.6409 0.96888 0.0
C291 C 0.92737 0.67502 0.96031 0.0
C292 C 0.92739 0.69329 0.02538 0.0
N293 N 0.91028 0.6253 0.04017 0.0
C294 C 0.91073 0.64323 0.10426 0.0
Co295 Co 0.38902 0.96113 0.30632 0.0
Co296 Co 0.33154 0.89324 0.20292 0.0
O297 O 0.34357 0.92179 0.2951 0.0
C298 C 0.34246 0.98586 0.3647 0.0
O299 O 0.32113 0.97113 0.3073 0.0
C300 C 0.30714 0.84303 0.33646 0.0
O301 O 0.33771 0.86038 0.3667 0.0
O302 O 0.37157 0.88557 0.22039 0.0
O303 O 0.41033 0.93918 0.24516 0.0
H304 H 0.35549 0.85031 0.95514 0.0
H305 H 0.34759 0.93163 0.44947 0.0
O306 O 0.36998 0.98476 0.36985 0.0
H307 H 0.44749 0.91607 0.48053 0.0
H308 H 0.48656 0.05149 0.45796 0.0
H309 H 0.44633 1.00406 0.19788 0.0
H310 H 0.44326 0.94782 0.36848 0.0
H311 H 0.42791 1.00437 0.43942 0.0
O312 O 0.30101 0.85172 0.27027 0.0
H313 H 0.37008 0.88771 0.06959 0.0
H314 H 0.26657 0.83479 0.14477 0.0
H315 H 0.50462 0.0527 0.21277 0.0
H316 H 0.35166 0.90188 0.56567 0.0
H317 H 0.52537 0.07659 0.34407 0.0
H318 H 0.40152 0.8931 0.58083 0.0
O319 O 0.38269 0.98101 0.20839 0.0
H320 H 0.22912 0.90064 0.29115 0.0
H321 H 0.30151 0.91037 0.06662 0.0
H322 H 0.25335 0.92076 0.04842 0.0
H323 H 0.2166 0.91578 0.16126 0.0
H324 H 0.27797 0.89108 0.30679 0.0
H325 H 0.25082 0.7968 0.03127 0.0
H326 H 0.29542 0.80458 0.93524 0.0
O327 O 0.3606 0.93531 0.13253 0.0
C328 C 0.40266 0.90859 0.22997 0.0
C329 C 0.33578 0.84678 0.99633 0.0
C330 C 0.27704 0.81675 0.03906 0.0
N331 N 0.31912 0.86381 0.11294 0.0
C332 C 0.34389 0.86789 0.06114 0.0
C333 C 0.28611 0.83835 0.10319 0.0
C334 C 0.30208 0.82111 0.98524 0.0
C335 C 0.36963 0.92857 0.45641 0.0
N336 N 0.39464 0.94054 0.40073 0.0
C337 C 0.37173 0.91147 0.52212 0.0
C338 C 0.39963 0.90645 0.53045 0.0
C339 C 0.42533 0.91918 0.47406 0.0
C340 C 0.42266 0.93679 0.41007 0.0
C341 C 0.47788 0.04172 0.40047 0.0
C342 C 0.45498 0.01458 0.2549 0.0
C343 C 0.44477 0.01474 0.38982 0.0
N344 N 0.43403 1.00082 0.31809 0.0
C345 C 0.48805 0.04214 0.26301 0.0
C346 C 0.49964 0.05556 0.33658 0.0
C347 C 0.37522 0.96802 0.1406 0.0
C348 C 0.24494 0.90291 0.24151 0.0
C349 C 0.28607 0.90866 0.11609 0.0
C350 C 0.2586 0.91431 0.10539 0.0
C351 C 0.23796 0.91145 0.16867 0.0
N352 N 0.29287 0.90041 0.1877 0.0
C353 C 0.27262 0.89742 0.24994 0.0
Co354 Co 0.66215 0.60427 0.41486 0.0
Co355 Co 0.71017 0.57697 0.50883 0.0
O356 O 0.70355 0.60089 0.42152 0.0
C357 C 0.71844 0.66771 0.33686 0.0
O358 O 0.74204 0.65998 0.35413 0.0
C359 C 0.73635 0.55573 0.36921 0.0
O360 O 0.70717 0.54636 0.33459 0.0
O361 O 0.66848 0.53443 0.475 0.0
O362 O 0.63409 0.55646 0.46018 0.0
H363 H 0.67266 0.49683 0.73795 0.0
H364 H 0.70353 0.60782 0.27596 0.0
O365 O 0.68852 0.65083 0.36599 0.0
H366 H 0.58518 0.52391 0.20966 0.0
H367 H 0.59444 0.65764 0.31958 0.0
H368 H 0.60401 0.58585 0.52191 0.0
H369 H 0.59825 0.55503 0.33339 0.0
H370 H 0.63549 0.63721 0.30467 0.0
O371 O 0.74091 0.56698 0.43882 0.0
H372 H 0.66505 0.52891 0.63101 0.0
H373 H 0.76932 0.57114 0.56598 0.0
H374 H 0.55893 0.60113 0.53315 0.0
H375 H 0.69195 0.57754 0.15198 0.0
H376 H 0.55471 0.63848 0.43268 0.0
H377 H 0.63256 0.53375 0.1202 0.0
O378 O 0.67173 0.62536 0.51887 0.0
H379 H 0.82229 0.68463 0.4654 0.0
H380 H 0.73486 0.61332 0.6598 0.0
H381 H 0.78488 0.66725 0.70038 0.0
H382 H 0.82906 0.70335 0.60286 0.0
H383 H 0.77173 0.63063 0.42723 0.0
H384 H 0.77789 0.53908 0.67106 0.0
H385 H 0.72944 0.50181 0.75855 0.0
O386 O 0.68082 0.58769 0.58292 0.0
C387 C 0.63856 0.53053 0.4674 0.0
C388 C 0.69402 0.51311 0.70052 0.0
C389 C 0.75306 0.53678 0.66298 0.0
N390 N 0.71674 0.55202 0.59259 0.0
C391 C 0.6899 0.53145 0.64009 0.0
C392 C 0.74801 0.55476 0.60326 0.0
C393 C 0.72586 0.51587 0.71197 0.0
C394 C 0.67767 0.5899 0.26158 0.0
N395 N 0.65188 0.58334 0.31256 0.0
C396 C 0.67116 0.57259 0.19123 0.0
C397 C 0.63777 0.54828 0.17303 0.0
C398 C 0.61129 0.54246 0.22379 0.0
C399 C 0.61888 0.56028 0.29373 0.0
C400 C 0.59564 0.64094 0.36319 0.0
C401 C 0.6007 0.5998 0.47525 0.0
C402 C 0.61904 0.6294 0.35534 0.0
N403 N 0.62208 0.60987 0.41226 0.0
C404 C 0.57564 0.60917 0.4828 0.0
C405 C 0.57342 0.63026 0.42672 0.0
C406 C 0.6716 0.61042 0.58149 0.0
C407 C 0.80318 0.66917 0.50842 0.0
C408 C 0.75381 0.62897 0.61683 0.0
C409 C 0.78217 0.65943 0.64027 0.0
C410 C 0.80696 0.67966 0.58554 0.0
N411 N 0.75016 0.61895 0.54096 0.0
C412 C 0.77447 0.63855 0.48712 0.0
Co413 Co 0.0775 0.63751 0.55016 0.0
Co414 Co 0.14335 0.70105 0.64981 0.0
O415 O 0.11459 0.68484 0.5575 0.0
C416 C 0.04976 0.67969 0.48401 0.0
O417 O 0.0618 0.70041 0.54335 0.0
C418 C 0.19026 0.73659 0.5097 0.0
O419 O 0.16551 0.71668 0.46315 0.0
O420 O 0.15494 0.66351 0.63627 0.0
O421 O 0.10182 0.62102 0.61741 0.0
H422 H 0.19132 0.68564 0.89991 0.0
H423 H 0.10626 0.67546 0.40206 0.0
O424 O 0.0522 0.65282 0.48061 0.0
H425 H 0.12538 0.57729 0.39034 0.0
H426 H 0.99229 0.5327 0.40917 0.0
H427 H 0.0401 0.58132 0.66436 0.0
H428 H 0.09472 0.58423 0.50114 0.0
H429 H 0.03518 0.59341 0.42078 0.0
O430 O 0.18573 0.73295 0.58367 0.0
H431 H 0.15497 0.66674 0.78355 0.0
H432 H 0.19629 0.76937 0.70825 0.0
H433 H 0.99428 0.52126 0.65628 0.0
H434 H 0.13633 0.66924 0.28901 0.0
H435 H 0.96948 0.49672 0.52794 0.0
H436 H 0.14673 0.62016 0.28337 0.0
O437 O 0.05572 0.64372 0.64476 0.0
H438 H 0.12241 0.79446 0.5536 0.0
H439 H 0.12192 0.72849 0.78288 0.0
H440 H 0.10563 0.77279 0.7979 0.0
H441 H 0.106 0.80631 0.68281 0.0
H442 H 0.13817 0.74974 0.54116 0.0
H443 H 0.23361 0.78951 0.82296 0.0
H444 H 0.23102 0.74752 0.92023 0.0
O445 O 0.10165 0.67093 0.72051 0.0
C446 C 0.1334 0.63181 0.62812 0.0
C447 C 0.19237 0.70424 0.8585 0.0
C448 C 0.21615 0.76251 0.81521 0.0
N449 N 0.17251 0.7169 0.74063 0.0
C450 C 0.17155 0.69365 0.79293 0.0
C451 C 0.19492 0.75094 0.75037 0.0
C452 C 0.2147 0.73894 0.86976 0.0
C453 C 0.11034 0.65396 0.39966 0.0
N454 N 0.09954 0.63091 0.45936 0.0
C455 C 0.12753 0.65058 0.33562 0.0
C456 C 0.13341 0.6231 0.33256 0.0
C457 C 0.12148 0.59907 0.39257 0.0
C458 C 0.10432 0.60329 0.45551 0.0
C459 C 1.00155 0.54341 0.46574 0.0
C460 C 0.02897 0.571 0.60853 0.0
C461 C 0.02629 0.5777 0.47254 0.0
N462 N 0.04023 0.59091 0.54308 0.0
C463 C 1.00318 0.5369 0.60429 0.0
C464 C 0.98941 0.52309 0.53225 0.0
C465 C 0.06884 0.65349 0.71205 0.0
C466 C 0.12244 0.78025 0.60435 0.0
C467 C 0.12224 0.74299 0.73246 0.0
C468 C 0.11297 0.76806 0.74137 0.0
C469 C 0.11317 0.78684 0.6768 0.0
N470 N 0.1318 0.73698 0.66135 0.0
C471 C 0.13153 0.75498 0.59769 0.0
Co472 Co 0.44443 0.06954 0.70051 0.0
Co473 Co 0.45526 0.13762 0.80594 0.0
O474 O 0.43854 0.10916 0.71355 0.0
C475 C 0.37357 0.04607 0.64347 0.0
O476 O 0.36752 0.06132 0.70106 0.0
C477 C 0.48142 0.18819 0.67282 0.0
O478 O 0.49466 0.17072 0.64237 0.0
O479 O 0.50268 0.14464 0.78766 0.0
O480 O 0.48737 0.09089 0.76126 0.0
H481 H 0.52104 0.1792 0.05432 0.0
H482 H 0.43263 0.09921 0.55778 0.0
O483 O 0.40184 0.04643 0.63752 0.0
H484 H 0.54843 0.11566 0.52633 0.0
H485 H 0.4537 0.98105 0.54401 0.0
H486 H 0.45689 0.02464 0.80721 0.0
H487 H 0.51251 0.08374 0.63842 0.0
H488 H 0.44125 0.02757 0.56533 0.0
O489 O 0.4664 0.17941 0.73904 0.0
H490 H 0.49906 0.14265 0.9386 0.0
H491 H 0.449 0.19628 0.86528 0.0
H492 H 0.46726 0.9764 0.78943 0.0
H493 H 0.46658 0.12926 0.44172 0.0
H494 H 0.46619 0.95447 0.65664 0.0
H495 H 0.52537 0.1385 0.42638 0.0
O496 O 0.41832 0.0493 0.79852 0.0
H497 H 0.34584 0.13232 0.72483 0.0
H498 H 0.40832 0.11824 0.94306 0.0
H499 H 0.34996 0.10817 0.96457 0.0
H500 H 0.31834 0.11531 0.85504 0.0
H501 H 0.40407 0.14169 0.70559 0.0
H502 H 0.47079 0.23381 0.97956 0.0
H503 H 0.50689 0.22522 0.07531 0.0
O504 O 0.44218 0.09551 0.87523 0.0
C505 C 0.5103 0.12118 0.77802 0.0
C506 C 0.50511 0.18303 1.01335 0.0
C507 C 0.47696 0.21372 0.97129 0.0
N508 N 0.4722 0.16682 0.89623 0.0
C509 C 0.49241 0.16224 0.94805 0.0
C510 C 0.46472 0.19241 0.90669 0.0
C511 C 0.49722 0.20889 0.02501 0.0
C512 C 0.4578 0.10244 0.55076 0.0
N513 N 0.47083 0.09051 0.60624 0.0
C514 C 0.47706 0.11973 0.48515 0.0
C515 C 0.51007 0.125 0.47671 0.0
C516 C 0.52307 0.11232 0.53287 0.0
C517 C 0.50275 0.09458 0.59685 0.0
C518 C 0.45388 0.98994 0.60216 0.0
C519 C 0.45589 0.01497 0.74947 0.0
C520 C 0.44731 0.01665 0.61436 0.0
N521 N 0.44959 0.02968 0.6869 0.0
C522 C 0.4618 0.98762 0.73975 0.0
C523 C 0.46114 0.97529 0.66533 0.0
C524 C 0.42432 0.06284 0.86602 0.0
C525 C 0.35939 0.12924 0.77309 0.0
C526 C 0.39468 0.12123 0.89496 0.0
C527 C 0.36167 0.1156 0.90758 0.0
C528 C 0.34396 0.11964 0.84612 0.0
N529 N 0.40968 0.13068 0.82317 0.0
C530 C 0.39245 0.13467 0.76264 0.0
Co531 Co 0.38626 0.43412 0.86065 0.0
Co532 Co 0.32714 0.44088 0.97931 0.0
O533 O 0.33978 0.42506 0.8847 0.0
C534 C 0.33936 0.36099 0.80993 0.0
O535 O 0.31341 0.35806 0.85056 0.0
C536 C 0.3004 0.46569 0.84815 0.0
O537 O 0.32957 0.47666 0.8114 0.0
O538 O 0.3666 0.48903 0.96379 0.0
O539 O 0.40607 0.48156 0.90044 0.0
H540 H 0.34506 0.49235 0.24647 0.0
H541 H 0.33288 0.40994 0.73966 0.0
O542 O 0.36874 0.38743 0.81547 0.0
H543 H 0.42757 0.51652 0.63391 0.0
H544 H 0.477 0.43183 0.69517 0.0
H545 H 0.45278 0.46979 0.94238 0.0
H546 H 0.43281 0.49435 0.76128 0.0
H547 H 0.41862 0.41827 0.72748 0.0
O548 O 0.29604 0.45208 0.91541 0.0
H549 H 0.36103 0.47226 0.1297 0.0
H550 H 0.26316 0.43939 0.033 0.0
H551 H 0.51159 0.48293 0.91223 0.0
H552 H 0.32756 0.42945 0.60954 0.0
H553 H 0.52413 0.46414 0.78752 0.0
H554 H 0.37506 0.48357 0.5562 0.0
O555 O 0.38974 0.41677 0.96578 0.0
H556 H 0.22357 0.33223 0.89591 0.0
H557 H 0.29923 0.39333 0.11501 0.0
H558 H 0.25045 0.33543 0.13589 0.0
H559 H 0.2122 0.30444 0.02584 0.0
H560 H 0.27276 0.3901 0.87755 0.0
H561 H 0.2462 0.45919 0.14877 0.0
H562 H 0.28723 0.48598 0.25671 0.0
O563 O 0.35657 0.42801 0.04484 0.0
C564 C 0.39651 0.50047 0.93421 0.0
C565 C 0.32711 0.48121 0.1993 0.0
C566 C 0.27167 0.46262 0.14449 0.0
N567 N 0.31381 0.45605 0.07233 0.0
C568 C 0.33619 0.47009 0.13237 0.0
C569 C 0.28165 0.45181 0.07843 0.0
C570 C 0.29466 0.47757 0.2051 0.0
C571 C 0.35396 0.4328 0.71607 0.0
N572 N 0.38302 0.45078 0.75832 0.0
C573 C 0.35071 0.444 0.64256 0.0
C574 C 0.37732 0.47432 0.6127 0.0
C575 C 0.40683 0.49273 0.6562 0.0
C576 C 0.40954 0.48017 0.72857 0.0
C577 C 0.4719 0.43978 0.74991 0.0
C578 C 0.45789 0.46104 0.88854 0.0
C579 C 0.43878 0.43216 0.76882 0.0
N580 N 0.43215 0.44313 0.83717 0.0
C581 C 0.49129 0.4687 0.87172 0.0
C582 C 0.49832 0.4581 0.80171 0.0
C583 C 0.37786 0.41741 0.03301 0.0
C584 C 0.24005 0.34545 0.94434 0.0
C585 C 0.28277 0.38002 0.06674 0.0
C586 C 0.25514 0.34723 0.07898 0.0
C587 C 0.23369 0.32987 0.01722 0.0
N588 N 0.28899 0.39506 0.99496 0.0
C589 C 0.26792 0.37827 0.93431 0.0
Co590 Co 0.96649 0.38477 0.059 0.0
Co591 Co 0.89403 0.32179 0.14914 0.0
O592 O 0.92556 0.33894 0.05897 0.0
C593 C 0.99048 0.33743 1.00435 0.0
O594 O 0.9733 0.31541 0.05963 0.0
C595 C 0.84964 0.29008 1.00432 0.0
O596 O 0.87529 0.31029 0.95916 0.0
O597 O 0.88608 0.36138 0.13407 0.0
O598 O 0.93994 0.40416 0.11228 0.0
H599 H 0.84416 0.33517 0.39904 0.0
H600 H 0.93665 0.3468 0.91463 0.0
O601 O 0.9919 0.36621 1.0007 0.0
H602 H 0.95806 0.46325 0.86339 0.0
H603 H 0.08696 0.47175 0.98494 0.0
H604 H 0.99406 0.43998 0.17466 0.0
H605 H 0.97186 0.44819 0.99056 0.0
H606 H 0.02957 0.4236 0.95865 0.0
O607 O 0.85305 0.29263 0.07841 0.0
H608 H 0.88334 0.35432 0.28641 0.0
H609 H 0.83561 0.25379 0.19834 0.0
H610 H 0.04982 0.49047 0.19799 0.0
H611 H 0.91689 0.35894 0.79256 0.0
H612 H 0.09706 0.50673 0.10291 0.0
H613 H 0.92839 0.41814 0.76488 0.0
O614 O 0.981 0.37438 0.15693 0.0
H615 H 0.91011 0.22535 0.05456 0.0
H616 H 0.90921 0.28979 0.28427 0.0
H617 H 0.92135 0.24264 0.3004 0.0
H618 H 0.92166 0.20987 0.18509 0.0
H619 H 0.89856 0.27305 0.04114 0.0
H620 H 0.79545 0.23323 0.30925 0.0
H621 H 0.79982 0.27414 0.41105 0.0
O622 O 0.93307 0.34859 0.22638 0.0
C623 C 0.90795 0.39298 0.12298 0.0
C624 C 0.84208 0.31709 0.35528 0.0
C625 C 0.81474 0.25992 0.30481 0.0
N626 N 0.86217 0.30538 0.23631 0.0
C627 C 0.86434 0.3279 0.29158 0.0
C628 C 0.8375 0.27175 0.24191 0.0
C629 C 0.81717 0.28282 0.3619 0.0
C630 C 0.94014 0.37196 0.90475 0.0
N631 N 0.95423 0.3963 0.96066 0.0
C632 C 0.92974 0.37906 0.83449 0.0
C633 C 0.93613 0.4121 0.81931 0.0
C634 C 0.95252 0.4374 0.87482 0.0
C635 C 0.96068 0.4288 0.9464 0.0
C636 C 0.06619 0.46585 0.02488 0.0
C637 C 1.01363 0.44782 0.13044 0.0
C638 C 0.03366 0.43819 1.01106 0.0
N639 N 1.00799 0.42897 0.06446 0.0
C640 C 0.04548 0.47625 0.14477 0.0
C641 C 0.07198 0.48521 0.09169 0.0
C642 C 0.96584 0.36383 0.22134 0.0
C643 C 0.90983 0.23927 0.10537 0.0
C644 C 0.90933 0.27575 0.23366 0.0
C645 C 0.9162 0.24902 0.24325 0.0
C646 C 0.91637 0.23064 0.17856 0.0
N647 N 0.90261 0.28388 0.1617 0.0
C648 C 0.90317 0.26624 0.09807 0.0
Co649 Co 0.59309 0.95693 0.20887 0.0
Co650 Co 0.58268 0.88996 0.32003 0.0
O651 O 0.59944 0.91764 0.22518 0.0
C652 C 0.66417 0.98059 0.14946 0.0
O653 O 0.67034 0.96494 0.20611 0.0
C654 C 0.55823 0.83796 0.19178 0.0
O655 O 0.54476 0.85447 0.15754 0.0
O656 O 0.53499 0.88183 0.30034 0.0
O657 O 0.54988 0.93528 0.26947 0.0
H658 H 0.51603 0.85004 0.56988 0.0
H659 H 0.60551 0.9259 0.06999 0.0
O660 O 0.6359 0.98027 0.1452 0.0
H661 H 0.4909 0.91144 0.0323 0.0
H662 H 0.58621 0.0463 0.04803 0.0
H663 H 0.57757 1.00035 0.31198 0.0
H664 H 0.52541 0.94246 0.1455 0.0
H665 H 0.59789 0.99927 0.07164 0.0
O666 O 0.57265 0.84784 0.25771 0.0
H667 H 0.53782 0.88532 0.45109 0.0
H668 H 0.59008 0.83277 0.38592 0.0
H669 H 0.56689 0.0483 0.29165 0.0
H670 H 0.57282 0.89633 0.95341 0.0
H671 H 0.5709 0.07149 0.15848 0.0
H672 H 0.51473 0.88839 0.93462 0.0
O673 O 0.61871 0.97793 0.30612 0.0
H674 H 0.69337 0.89652 0.24281 0.0
H675 H 0.62914 0.91143 0.45708 0.0
H676 H 0.68776 0.92273 0.4798 0.0
H677 H 0.72025 0.91517 0.3723 0.0
H678 H 0.63489 0.88598 0.22222 0.0
H679 H 0.5685 0.79653 0.50332 0.0
H680 H 0.53141 0.80523 0.59658 0.0
O681 O 0.59464 0.93228 0.38564 0.0
C682 C 0.52708 0.90488 0.28679 0.0
C683 C 0.53239 0.84617 0.53001 0.0
C684 C 0.56179 0.8161 0.49257 0.0
N685 N 0.56575 0.86163 0.41257 0.0
C686 C 0.54498 0.86624 0.46297 0.0
C687 C 0.5739 0.83668 0.42616 0.0
C688 C 0.54097 0.82099 0.54488 0.0
C689 C 0.58061 0.9231 0.06152 0.0
N690 N 0.56727 0.93543 0.11536 0.0
C691 C 0.56207 0.90613 0.99563 0.0
C692 C 0.52945 0.90159 0.98526 0.0
C693 C 0.51603 0.91441 0.04013 0.0
C694 C 0.53559 0.93172 0.1046 0.0
C695 C 0.58458 0.03667 0.10626 0.0
C696 C 0.57948 1.01034 0.25403 0.0
C697 C 0.59088 1.00982 0.11983 0.0
N698 N 0.58734 0.99634 0.19265 0.0
C699 C 0.5735 0.03759 0.24288 0.0
C700 C 0.57581 0.05062 0.16824 0.0
C701 C 0.61259 0.96481 0.37442 0.0
C702 C 0.67943 0.8998 0.29019 0.0
C703 C 0.64316 0.90828 0.40981 0.0
C704 C 0.67632 0.9146 0.42313 0.0
C705 C 0.69452 0.91032 0.36281 0.0
N706 N 0.62851 0.89794 0.33841 0.0
C707 C 0.64623 0.89371 0.27899 0.0
C708 C 0.42443 0.42571 0.12656 0.0
C709 C 0.39022 0.40573 0.10148 0.0
C710 C 0.38073 0.36424 0.20638 0.0
C711 C 0.41603 0.38261 0.22555 0.0
N712 N 0.47268 0.42498 0.18447 0.0
N713 N 0.33774 0.35189 0.10766 0.0
C714 C 0.43825 0.41158 0.17976 0.0
C715 C 0.3688 0.37382 0.13884 0.0
N716 N 0.4435 0.45879 0.10215 0.0
N717 N 0.3586 0.33744 0.25204 0.0
H718 H 0.32913 0.35746 0.05653 0.0
H719 H 0.32215 0.32705 0.12787 0.0
H720 H 0.36664 0.32859 0.29896 0.0
H721 H 0.33216 0.32538 0.2461 0.0
H722 H 0.46751 0.47547 0.12474 0.0
H723 H 0.43356 0.47051 0.06674 0.0
H724 H 0.48996 0.44464 0.1483 0.0
H725 H 0.48336 0.41325 0.21697 0.0
C726 C 1.00056 0.37697 0.43063 0.0
C727 C 0.037 0.39338 0.41818 0.0
C728 C 0.02263 0.37687 0.28123 0.0
C729 C 0.98877 0.37119 0.29144 0.0
N730 N 0.95007 0.37584 0.38194 0.0
N731 N 0.08123 0.41199 0.31708 0.0
C732 C 0.97902 0.37438 0.36784 0.0
C733 C 0.04776 0.39462 0.33921 0.0
N734 N 0.9855 0.36121 0.4991 0.0
N735 N 0.03072 0.36363 0.21879 0.0
H736 H 0.10137 0.4256 0.35409 0.0
H737 H 0.08863 0.41533 0.25873 0.0
H738 H 1.01231 0.3465 0.1808 0.0
H739 H 0.05457 0.36544 0.2122 0.0
H740 H 0.95907 0.34879 0.50717 0.0
H741 H 0.9977 0.35438 0.54076 0.0
H742 H 0.94287 0.37872 0.43777 0.0
H743 H 0.93633 0.37924 0.33797 0.0
C744 C 0.6091 0.98052 0.51642 0.0
C745 C 0.62634 0.98869 0.44366 0.0
C746 C 0.66495 0.04583 0.49648 0.0
C747 C 0.65194 0.03536 0.57451 0.0
N748 N 0.61973 0.98296 0.6528 0.0
N749 N 0.67988 0.02679 0.37917 0.0
C750 C 0.62648 0.99981 0.58326 0.0
C751 C 0.65716 0.02054 0.43818 0.0
N752 N 0.57588 0.95524 0.5228 0.0
N753 N 0.68349 0.07925 0.47443 0.0
H754 H 0.67712 1.00817 0.33964 0.0
H755 H 0.70371 0.04896 0.37666 0.0
H756 H 0.68716 0.0996 0.50813 0.0
H757 H 0.69101 0.08652 0.41687 0.0
H758 H 0.56226 0.95009 0.57496 0.0
H759 H 0.56091 0.94328 0.47455 0.0
H760 H 0.60162 0.95709 0.65807 0.0
H761 H 0.63586 0.99182 0.70036 0.0
C762 C 0.62514 0.59426 0.68414 0.0
C763 C 0.65762 0.61863 0.6529 0.0
C764 C 0.65984 0.66108 0.74659 0.0
C765 C 0.62571 0.63817 0.77064 0.0
N766 N 0.57463 0.58362 0.75818 0.0
N767 N 0.7048 0.67643 0.65053 0.0
C768 C 0.6081 0.60488 0.73836 0.0
C769 C 0.67453 0.65242 0.6829 0.0
N770 N 0.61053 0.56084 0.66238 0.0
N771 N 0.67901 0.69036 0.78754 0.0
H772 H 0.71775 0.67068 0.60818 0.0
H773 H 0.71617 0.70238 0.66265 0.0
H774 H 0.6696 0.69688 0.83602 0.0
H775 H 0.70507 0.7065 0.77835 0.0
H776 H 0.58887 0.54116 0.68891 0.0
H777 H 0.62142 0.55215 0.62139 0.0
H778 H 0.55893 0.56053 0.73076 0.0
H779 H 0.56161 0.59033 0.79829 0.0
C780 C 0.05564 0.64371 0.86097 0.0
C781 C 0.04443 0.64234 0.78279 0.0
C782 C 0.98544 0.60941 0.83516 0.0
C783 C 0.99676 0.61643 0.91373 0.0
N784 N 0.04557 0.65513 0.99201 0.0
N785 N 0.99552 0.63494 0.7077 0.0
C786 C 0.03273 0.63822 0.92401 0.0
C787 C 1.00839 0.62865 0.77332 0.0
N788 N 0.08704 0.64798 0.87705 0.0
N789 N 0.95378 0.58336 0.81754 0.0
H790 H 1.0108 0.65307 0.66626 0.0
H791 H 0.96949 0.62629 0.70141 0.0
H792 H 0.93842 0.56512 0.85832 0.0
H793 H 0.94562 0.57687 0.76033 0.0
H794 H 0.09493 0.64765 0.93379 0.0
H795 H 0.10227 0.64565 0.83511 0.0
H796 H 0.07159 0.67222 0.9991 0.0
H797 H 0.03022 0.65648 0.03562 0.0
C798 C 0.42818 0.04763 1.0086 0.0
C799 C 0.41083 0.03912 0.93654 0.0
C800 C 0.37329 0.98171 0.99185 0.0
C801 C 0.38617 0.99251 0.06932 0.0
N802 N 0.41766 0.04528 0.14526 0.0
N803 N 0.35763 0.99987 0.87416 0.0
C804 C 0.4111 0.02829 0.07642 0.0
C805 C 0.38047 1.00681 0.93262 0.0
N806 N 0.46129 0.07316 1.01333 0.0
N807 N 0.3555 0.94821 0.9712 0.0
H808 H 0.35992 0.01824 0.83403 0.0
H809 H 0.33412 0.97731 0.87268 0.0
H810 H 0.35263 0.92817 1.00555 0.0
H811 H 0.34798 0.94069 0.91405 0.0
H812 H 0.475 0.07865 0.06503 0.0
H813 H 0.47616 0.08492 0.96422 0.0
H814 H 0.43541 0.07127 0.14925 0.0
H815 H 0.40165 0.03631 0.19354 0.0
C816 C 0.60832 0.46359 0.46171 0.0
C817 C 0.60765 0.49505 0.4574 0.0
C818 C 0.55602 0.466 0.38136 0.0
C819 C 0.55214 0.43332 0.3955 0.0
N820 N 0.57536 0.40158 0.46087 0.0
N821 N 0.56652 0.51449 0.45598 0.0
C822 C 0.57872 0.43212 0.43823 0.0
C823 C 0.57736 0.49307 0.42965 0.0
N824 N 0.636 0.46288 0.49095 0.0
N825 N 0.53785 0.471 0.32528 0.0
H826 H 0.57707 0.52913 0.50548 0.0
H827 H 0.54369 0.51274 0.43759 0.0
H828 H 0.52409 0.45221 0.28477 0.0
H829 H 0.54017 0.49486 0.31468 0.0
H830 H 0.64 0.44225 0.48308 0.0
H831 H 0.65461 0.48237 0.52408 0.0
H832 H 0.59128 0.39957 0.50164 0.0
H833 H 0.55603 0.37804 0.44217 0.0
C834 C 0.15271 0.56486 0.55545 0.0
C835 C 0.12332 0.53614 0.58981 0.0
C836 C 0.11947 0.57635 0.68001 0.0
C837 C 0.14263 0.60443 0.63528 0.0
N838 N 0.18311 0.62631 0.53034 0.0
N839 N 0.07229 0.52194 0.66915 0.0
C840 C 0.16056 0.59905 0.57421 0.0
C841 C 0.10508 0.54361 0.64787 0.0
N842 N 0.17214 0.55988 0.502 0.0
N843 N 0.10644 0.58153 0.74697 0.0
H844 H 0.05605 0.49933 0.64123 0.0
H845 H 0.05605 0.49933 0.64123 0.0
H846 H 0.1162 0.60585 0.77065 0.0
H847 H 0.08741 0.5615 0.77953 0.0
H848 H 0.19604 0.57915 0.48336 0.0
H849 H 0.16451 0.53639 0.47674 0.0
H850 H 0.19366 0.62411 0.47825 0.0
H851 H 0.19017 0.65133 0.54519 0.0
C852 C 0.57736 0.15912 0.76575 0.0
C853 C 0.54659 0.12717 0.77886 0.0
C854 C 0.57485 0.09846 0.72577 0.0
C855 C 0.60752 0.12781 0.72754 0.0
N856 N 0.63955 0.18836 0.75727 0.0
N857 N 0.5277 0.06808 0.81134 0.0
C858 C 0.60894 0.15911 0.74965 0.0
C859 C 0.54937 0.09746 0.77297 0.0
N860 N 0.5771 0.18916 0.76832 0.0
N861 N 0.5676 0.07081 0.68163 0.0
H862 H 0.511 0.06754 0.85426 0.0
H863 H 0.52975 0.04611 0.80595 0.0
H864 H 0.58471 0.07083 0.64049 0.0
H865 H 0.58471 0.07083 0.64049 0.0
H866 H 0.59767 0.21219 0.74922 0.0
H867 H 0.55636 0.19119 0.7878 0.0
H868 H 0.64184 0.21032 0.78265 0.0
H869 H 0.66275 0.19054 0.74088 0.0
C870 C 0.47134 0.58033 0.85801 0.0
C871 C 0.48658 0.59853 0.92667 0.0
C872 C 0.43724 0.55644 1.00201 0.0
C873 C 0.4222 0.53787 0.93338 0.0
N874 N 0.41738 0.54377 0.79602 0.0
N875 N 0.47426 0.61295 0.05228 0.0
C876 C 0.43686 0.55353 0.86106 0.0
C877 C 0.46656 0.58944 0.99548 0.0
N878 N 0.48975 0.58741 0.79083 0.0
N879 N 0.42476 0.54254 0.07315 0.0
H880 H 0.49242 0.6385 0.04274 0.0
H881 H 0.45918 0.60814 0.10195 0.0
H882 H 0.4035 0.51847 0.0796 0.0
H883 H 0.4371 0.55417 0.12464 0.0
H884 H 0.4801 0.57258 0.74108 0.0
H885 H 0.51533 0.60632 0.78734 0.0
H886 H 0.42612 0.55655 0.74302 0.0
H887 H 0.39153 0.52539 0.79832 0.0
C888 C 0.8925 0.43593 0.17692 0.0
C889 C 0.89594 0.41818 0.11304 0.0
C890 C 0.89576 0.4605 0.02368 0.0
C891 C 0.89411 0.47919 0.08782 0.0
N892 N 0.87563 0.47665 0.21982 0.0
N893 N 0.88483 0.40526 0.97724 0.0
C894 C 0.88703 0.46393 0.16263 0.0
C895 C 0.89205 0.42764 0.03674 0.0
N896 N 0.89634 0.42743 0.25072 0.0
N897 N 0.90274 0.47474 0.95128 0.0
H898 H 0.88195 0.38106 0.98588 0.0
H899 H 0.8786 0.40954 0.9217 0.0
H900 H 0.90703 0.49927 0.94097 0.0
H901 H 0.90624 0.46303 0.90289 0.0
H902 H 0.89594 0.44077 0.29948 0.0
H903 H 0.90233 0.40841 0.26237 0.0
H904 H 0.86707 0.46477 0.27374 0.0
H905 H 0.87205 0.49748 0.21001 0.0
C906 C 0.43019 0.86909 0.24446 0.0
C907 C 0.43236 0.90157 0.23139 0.0
C908 C 0.48828 0.92862 0.28838 0.0
C909 C 0.49082 0.89871 0.28725 0.0
N910 N 0.4618 0.83838 0.25553 0.0
N911 N 0.47405 0.96038 0.20109 0.0
C912 C 0.461 0.86802 0.26305 0.0
C913 C 0.46502 0.93065 0.23934 0.0
N914 N 0.39971 0.83954 0.23913 0.0
N915 N 0.50851 0.95596 0.33328 0.0
H916 H 0.45898 0.96156 0.15664 0.0
H917 H 0.49814 0.98192 0.20808 0.0
H918 H 0.52478 0.95533 0.37543 0.0
H919 H 0.52478 0.95533 0.37543 0.0
H920 H 0.39633 0.8161 0.2581 0.0
H921 H 0.37772 0.83831 0.21712 0.0
H922 H 0.44232 0.81681 0.22893 0.0
H923 H 0.48226 0.83556 0.27315 0.0
C924 C 0.31909 0.34362 0.67439 0.0
C925 C 0.33456 0.33908 0.74153 0.0
C926 C 0.36535 0.3191 0.65897 0.0
C927 C 0.35762 0.33311 0.59364 0.0
N928 N 0.32497 0.35622 0.53603 0.0
N929 N 0.36877 0.31802 0.79969 0.0
C930 C 0.33319 0.34394 0.60007 0.0
C931 C 0.35595 0.32456 0.73428 0.0
N932 N 0.29157 0.3483 0.68193 0.0
N933 N 0.38205 0.30116 0.64857 0.0
H934 H 0.36078 0.32046 0.85517 0.0
H935 H 0.38777 0.31132 0.79903 0.0
H936 H 0.3886 0.29665 0.59338 0.0
H937 H 0.38663 0.28836 0.69321 0.0
H938 H 0.27791 0.34975 0.63487 0.0
H939 H 0.28033 0.34722 0.73563 0.0
H940 H 0.31055 0.36842 0.53841 0.0
H941 H 0.334 0.35541 0.48058 0.0
C942 C 0.04025 0.34682 0.92491 0.0
C943 C 1.00454 0.32821 0.93714 0.0
C944 C 0.99473 0.32018 0.79735 0.0
C945 C 0.03004 0.34252 0.78502 0.0
N946 N 0.08744 0.36819 0.83262 0.0
N947 N 0.94906 0.28734 0.88998 0.0
C948 C 0.05321 0.35242 0.8477 0.0
C949 C 0.98225 0.31111 0.87472 0.0
N950 N 0.06126 0.36097 0.98714 0.0
N951 N 0.97312 0.30977 0.73539 0.0
H952 H 0.93997 0.28032 0.9466 0.0
H953 H 0.93167 0.27247 0.84761 0.0
H954 H 0.98211 0.31524 0.67819 0.0
H955 H 0.94662 0.29684 0.74044 0.0
H956 H 0.08733 0.37817 0.98267 0.0
H957 H 0.05195 0.35578 0.04414 0.0
H958 H 0.10597 0.37464 0.87506 0.0
H959 H 0.09695 0.37216 0.77601 0.0
C960 C 0.70767 0.03174 0.07697 0.0
C961 C 0.68781 0.99577 0.08274 0.0
C962 C 0.68712 0.99078 0.94133 0.0
C963 C 0.70308 0.02676 0.93564 0.0
N964 N 0.73915 0.08141 0.99308 0.0
N965 N 0.66944 0.94112 0.02495 0.0
C966 C 0.71737 0.04721 1.00217 0.0
C967 C 0.68164 0.97532 0.01607 0.0
N968 N 0.71508 0.05087 0.14277 0.0
N969 N 0.67522 0.97162 0.87568 0.0
H970 H 0.66538 0.92975 0.07982 0.0
H971 H 0.66608 0.92478 0.97913 0.0
H972 H 0.6802 0.98274 0.8204 0.0
H973 H 0.65981 0.94518 0.876 0.0
H974 H 0.72604 0.07732 0.14264 0.0
H975 H 0.70917 0.03971 0.19803 0.0
H976 H 0.75215 0.09776 0.0387 0.0
H977 H 0.74625 0.09278 0.93814 0.0
C978 C 0.69093 0.71282 0.20153 0.0
C979 C 0.68167 0.68836 0.14155 0.0
C980 C 0.7234 0.67386 0.19288 0.0
C981 C 0.72091 0.68725 0.26541 0.0
N982 N 0.70878 0.72585 0.33557 0.0
N983 N 0.69989 0.6559 0.06366 0.0
C984 C 0.70749 0.70957 0.26802 0.0
C985 C 0.70162 0.67227 0.13134 0.0
N986 N 0.68457 0.73923 0.19389 0.0
N987 N 0.74664 0.66321 0.18326 0.0
H988 H 0.70974 0.63955 0.05671 0.0
H989 H 0.68924 0.65963 1.01351 0.0
H990 H 0.76434 0.66677 0.22613 0.0
H991 H 0.7509 0.65445 0.13089 0.0
H992 H 0.69247 0.7588 0.23433 0.0
H993 H 0.67542 0.74368 0.14209 0.0
H994 H 0.69582 0.73931 0.34403 0.0
H995 H 0.72208 0.72454 0.38379 0.0
C996 C 1.00226 0.67607 0.4029 0.0
C997 C 0.03764 0.68924 0.4138 0.0
C998 C 0.04758 0.6955 0.27367 0.0
C999 C 1.01186 0.67844 0.2627 0.0
N1000 N 0.95707 0.6661 0.31246 0.0
N1001 N 0.09456 0.72431 0.36397 0.0
C1002 C 0.98987 0.67378 0.32616 0.0
C1003 C 0.06057 0.70363 0.35034 0.0
N1004 N 0.98054 0.66388 0.46515 0.0
N1005 N 0.06867 0.70179 0.21125 0.0
H1006 H 0.1041 0.73048 0.42029 0.0
H1007 H 0.11248 0.73738 0.32029 0.0
H1008 H 0.05941 0.6971 0.1545 0.0
H1009 H 0.09472 0.71046 0.21599 0.0
H1010 H 0.95405 0.65026 0.46011 0.0
H1011 H 0.98941 0.66649 0.52204 0.0
H1012 H 0.94015 0.66426 0.35606 0.0
H1013 H 0.94808 0.66466 0.25614 0.0
C1014 C 0.31948 0.9803 0.4979 0.0
C1015 C 0.3339 1.00096 0.43103 0.0
C1016 C 0.35601 0.05213 0.51113 0.0
C1017 C 0.34976 0.03135 0.57774 0.0
N1018 N 0.32198 0.97602 0.63832 0.0
N1019 N 0.36209 0.0563 0.37048 0.0
C1020 C 0.32948 0.99544 0.57245 0.0
C1021 C 0.35019 0.03693 0.43646 0.0
N1022 N 0.2974 0.9462 0.48932 0.0
N1023 N 0.36865 0.08636 0.51995 0.0
H1024 H 0.35687 0.04534 0.31533 0.0
H1025 H 0.37772 0.08271 0.37038 0.0
H1026 H 0.37302 0.09754 0.57479 0.0
H1027 H 0.37209 0.10294 0.47424 0.0
H1028 H 0.28432 0.92974 0.53531 0.0
H1029 H 0.29016 0.93509 0.43455 0.0
H1030 H 0.31068 0.94954 0.63833 0.0
H1031 H 0.32814 0.98696 0.69344 0.0
C1032 C 0.50068 0.27669 0.59819 0.0
C1033 C 0.47792 0.26776 0.53426 0.0
C1034 C 0.45967 0.20691 0.55776 0.0
C1035 C 0.4803 0.21575 0.62547 0.0
N1036 N 0.5183 0.25876 0.71443 0.0
N1037 N 0.43388 0.22378 0.45609 0.0
C1038 C 0.5002 0.2506 0.64683 0.0
C1039 C 0.45734 0.23273 0.51406 0.0
N1040 N 0.52373 0.31037 0.61059 0.0
N1041 N 0.44165 0.17349 0.53583 0.0
H1042 H 0.43244 0.2415 0.42012 0.0
H1043 H 0.41465 0.1989 0.44548 0.0
H1044 H 0.43901 0.15357 0.57116 0.0
H1045 H 0.43033 0.16545 0.48171 0.0
H1046 H 0.54323 0.31891 0.65124 0.0
H1047 H 0.52539 0.3299 0.57496 0.0
H1048 H 0.53011 0.28303 0.73861 0.0
H1049 H 0.51976 0.24063 0.74947 0.0
C1050 C 0.2562 0.4426 0.74188 0.0
C1051 C 0.27056 0.46449 0.80674 0.0
C1052 C 0.22919 0.48475 0.78935 0.0
C1053 C 0.21333 0.46119 0.72771 0.0
N1054 N 0.21029 0.41557 0.64921 0.0
N1055 N 0.26901 0.50414 0.89749 0.0
C1056 C 0.22683 0.43996 0.70427 0.0
C1057 C 0.25651 0.48491 0.83198 0.0
N1058 N 0.2703 0.42361 0.71694 0.0
N1059 N 0.2189 0.50795 0.80506 0.0
H1060 H 0.28991 0.50618 0.92777 0.0
H1061 H 0.25755 0.51645 0.92478 0.0
H1062 H 0.19962 0.509 0.77401 0.0
H1063 H 0.23121 0.52802 0.84383 0.0
H1064 H 0.26512 0.41135 0.66354 0.0
H1065 H 0.28828 0.4209 0.74905 0.0
H1066 H 0.21519 0.39581 0.63753 0.0
H1067 H 0.19021 0.41387 0.61702 0.0
C1068 C 0.80239 0.27326 0.90573 0.0
C1069 C 0.81689 0.2634 0.96706 0.0
C1070 C 0.77308 0.20311 0.94473 0.0
C1071 C 0.76108 0.21287 0.87869 0.0
N1072 N 0.7666 0.25689 0.79075 0.0
N1073 N 0.81757 0.21768 0.0393 0.0
C1074 C 0.77648 0.24787 0.85754 0.0
C1075 C 0.80231 0.22802 0.98578 0.0
N1076 N 0.8123 0.307 0.89585 0.0
N1077 N 0.75672 0.16969 0.96802 0.0
H1078 H 0.83791 0.23444 0.07302 0.0
H1079 H 0.81155 0.19242 0.04714 0.0
H1080 H 0.73801 0.15016 0.93495 0.0
H1081 H 0.76041 0.16149 0.02185 0.0
H1082 H 0.80061 0.31579 0.85739 0.0
H1083 H 0.82992 0.32607 0.93199 0.0
H1084 H 0.77948 0.28136 0.76687 0.0
H1085 H 0.74685 0.23926 0.75597 0.0
C1086 C 0.54116 0.77564 0.1755 0.0
C1087 C 0.56046 0.81007 0.14956 0.0
C1088 C 0.58786 0.79251 0.0493 0.0
C1089 C 0.56741 0.75779 0.07282 0.0
N1090 N 0.52047 0.71558 0.14916 0.0
N1091 N 0.59963 0.85104 0.05658 0.0
C1092 C 0.54291 0.74921 0.1335 0.0
C1093 C 0.58274 0.81829 0.08438 0.0
N1094 N 0.52147 0.76825 0.24109 0.0
N1095 N 0.61391 0.80135 0.9972 0.0
H1096 H 0.59959 0.87129 0.08514 0.0
H1097 H 0.61227 0.85795 1.00319 0.0
H1098 H 0.61856 0.78356 0.96994 0.0
H1099 H 0.63259 0.8264 0.98499 0.0
H1100 H 0.50997 0.74455 0.26875 0.0
H1101 H 0.51826 0.78653 0.27097 0.0
H1102 H 0.49982 0.70721 0.18722 0.0
H1103 H 0.52066 0.69575 0.11864 0.0
C1104 C 0.78036 0.58084 0.26064 0.0
C1105 C 0.76572 0.5573 0.32341 0.0
C1106 C 0.80333 0.53384 0.29045 0.0
C1107 C 0.82035 0.5595 0.23219 0.0
N1108 N 0.82605 0.60965 0.16684 0.0
N1109 N 0.76609 0.51392 0.40425 0.0
C1110 C 0.80876 0.58325 0.21788 0.0
C1111 C 0.77817 0.53466 0.34025 0.0
N1112 N 0.76735 0.60152 0.24215 0.0
N1113 N 0.8098 0.50736 0.29524 0.0
H1114 H 0.7467 0.51265 0.43978 0.0
H1115 H 0.77694 0.49987 0.42544 0.0
H1116 H 0.82621 0.50467 0.25685 0.0
H1117 H 0.79619 0.48613 0.33108 0.0
H1118 H 0.77214 0.61465 0.18961 0.0
H1119 H 0.75063 0.60453 0.27862 0.0
H1120 H 0.82261 0.63076 0.16303 0.0
H1121 H 0.84524 0.61167 0.13041 0.0
C1122 C 0.23622 0.79918 0.49071 0.0
C1123 C 0.22318 0.76399 0.47356 0.0
C1124 C 0.2646 0.78073 0.3646 0.0
C1125 C 0.27843 0.81568 0.38381 0.0
N1126 N 0.28015 0.85825 0.47055 0.0
N1127 N 0.23024 0.72141 0.40508 0.0
C1128 C 0.2652 0.8248 0.44893 0.0
C1129 C 0.23892 0.75488 0.41342 0.0
N1130 N 0.21966 0.80849 0.54339 0.0
N1131 N 0.27573 0.77219 0.29896 0.0
H1132 H 0.21261 0.70205 0.4414 0.0
H1133 H 0.24283 0.71319 0.36768 0.0
H1134 H 0.29539 0.79021 0.26382 0.0
H1135 H 0.264 0.74762 0.27628 0.0
H1136 H 0.22467 0.83344 0.55052 0.0
H1137 H 0.19927 0.7911 0.57714 0.0
H1138 H 0.27544 0.86628 0.52348 0.0
H1139 H 0.29874 0.87807 0.43705 0.0
loop_
_geom_bond_atom_site_label_1
_geom_bond_atom_site_label_2
_geom_bond_distance
_geom_bond_site_symmetry_2
_ccdc_geom_bond_type
Co0 O2 2.143 . S
Co0 O8 2.074 . S
Co0 O11 2.093 . S
Co0 O24 2.097 . S
Co0 N41 2.151 . S
Co0 N49 2.214 . S
Co1 O2 2.160 . S
Co1 O7 2.058 . S
Co1 O17 2.057 . S
Co1 O32 2.037 . S
Co1 N36 2.145 . S
Co1 N57 2.257 . S
O2 Co0 2.143 . S
O2 Co1 2.160 . S
C3 O4 1.278 . S
C3 O11 1.224 . S
O4 C3 1.278 . S
C5 O6 1.245 . S
C5 O17 1.232 . S
O6 C5 1.245 . S
O7 Co1 2.058 . S
O7 C33 1.269 . S
O8 Co0 2.074 . S
O8 C33 1.257 . S
H9 C34 0.930 . S
H10 C40 0.930 . S
O11 Co0 2.093 . S
O11 C3 1.224 . S
H12 C44 0.929 . S
H13 C46 0.930 . S
H14 C47 0.930 . S
H15 C45 0.929 . S
H16 C48 0.928 . S
O17 Co1 2.057 . S
O17 C5 1.232 . S
H18 C37 0.929 . S
H19 C38 0.929 . S
H20 C50 0.931 . S
H21 C42 0.929 . S
H22 C51 0.930 . S
H23 C43 0.931 . S
O24 Co0 2.097 . S
O24 C52 1.214 . S
H25 C53 0.929 . S
H26 C54 0.929 . S
H27 C55 0.930 . S
H28 C56 0.929 . S
H29 C58 0.930 . S
H30 C35 0.930 . S
H31 C39 0.930 . S
O32 Co1 2.037 . S
O32 C52 1.234 . S
C33 O7 1.269 . S
C33 O8 1.257 . S
C34 H9 0.930 . S
C34 C37 1.388 . S
C34 C39 1.418 . S
C35 H30 0.930 . S
C35 C38 1.404 . S
C35 C39 1.353 . S
N36 Co1 2.145 . S
N36 C37 1.397 . S
N36 C38 1.334 . S
C37 H18 0.929 . S
C37 C34 1.388 . S
C37 N36 1.397 . S
C38 H19 0.929 . S
C38 C35 1.404 . S
C38 N36 1.334 . S
C39 H31 0.930 . S
C39 C34 1.418 . S
C39 C35 1.353 . S
C40 H10 0.930 . S
C40 N41 1.330 . S
C40 C42 1.446 . S
N41 Co0 2.151 . S
N41 C40 1.330 . S
N41 C45 1.418 . S
C42 H21 0.929 . S
C42 C40 1.446 . S
C42 C43 1.332 . S
C43 H23 0.931 . S
C43 C42 1.332 . S
C43 C44 1.267 . S
C44 H12 0.929 . S
C44 C43 1.267 . S
C44 C45 1.251 . S
C45 H15 0.929 . S
C45 N41 1.418 . S
C45 C44 1.251 . S
C46 H13 0.930 . S
C46 C48 1.406 . S
C46 C51 1.261 . S
C47 H14 0.930 . S
C47 N49 1.325 . S
C47 C50 1.357 . S
C48 H16 0.928 . S
C48 C46 1.406 . S
C48 N49 1.261 . S
N49 Co0 2.214 . S
N49 C47 1.325 . S
N49 C48 1.261 . S
C50 H20 0.931 . S
C50 C47 1.357 . S
C50 C51 1.312 . S
C51 H22 0.930 . S
C51 C46 1.261 . S
C51 C50 1.312 . S
C52 O24 1.214 . S
C52 O32 1.234 . S
C53 H25 0.929 . S
C53 C56 1.391 . S
C53 C58 1.391 . S
C54 H26 0.929 . S
C54 C55 1.390 . S
C54 N57 1.391 . S
C55 H27 0.930 . S
C55 C54 1.390 . S
C55 C56 1.392 . S
C56 H28 0.929 . S
C56 C53 1.391 . S
C56 C55 1.392 . S
N57 Co1 2.257 . S
N57 C54 1.391 . S
N57 C58 1.388 . S
C58 H29 0.930 . S
C58 C53 1.391 . S
C58 N57 1.388 . S
Co59 O61 2.143 . S
Co59 O67 2.074 . S
Co59 O70 2.093 . S
Co59 O83 2.097 . S
Co59 N100 2.151 . S
Co59 N108 2.214 . S
Co60 O61 2.160 . S
Co60 O66 2.058 . S
Co60 O76 2.057 . S
Co60 O91 2.037 . S
Co60 N95 2.145 . S
Co60 N116 2.257 . S
O61 Co59 2.143 . S
O61 Co60 2.160 . S
C62 O63 1.278 . S
C62 O70 1.224 . S
O63 C62 1.278 . S
C64 O65 1.245 . S
C64 O76 1.232 . S
O65 C64 1.245 . S
O66 Co60 2.058 . S
O66 C92 1.269 . S
O67 Co59 2.074 . S
O67 C92 1.257 . S
H68 C93 0.930 . S
H69 C99 0.930 . S
O70 Co59 2.093 . S
O70 C62 1.224 . S
H71 C103 0.929 . S
H72 C105 0.930 . S
H73 C106 0.930 . S
H74 C104 0.929 . S
H75 C107 0.928 . S
O76 Co60 2.057 . S
O76 C64 1.232 . S
H77 C96 0.929 . S
H78 C97 0.929 . S
H79 C109 0.931 . S
H80 C101 0.929 . S
H81 C110 0.930 . S
H82 C102 0.931 . S
O83 Co59 2.097 . S
O83 C111 1.214 . S
H84 C112 0.929 . S
H85 C113 0.929 . S
H86 C114 0.930 . S
H87 C115 0.929 . S
H88 C117 0.930 . S
H89 C94 0.930 . S
H90 C98 0.930 . S
O91 Co60 2.037 . S
O91 C111 1.234 . S
C92 O66 1.269 . S
C92 O67 1.257 . S
C93 H68 0.930 . S
C93 C96 1.388 . S
C93 C98 1.418 . S
C94 H89 0.930 . S
C94 C97 1.404 . S
C94 C98 1.353 . S
N95 Co60 2.145 . S
N95 C96 1.397 . S
N95 C97 1.334 . S
C96 H77 0.929 . S
C96 C93 1.388 . S
C96 N95 1.397 . S
C97 H78 0.929 . S
C97 C94 1.404 . S
C97 N95 1.334 . S
C98 H90 0.930 . S
C98 C93 1.418 . S
C98 C94 1.353 . S
C99 H69 0.930 . S
C99 N100 1.330 . S
C99 C101 1.446 . S
N100 Co59 2.151 . S
N100 C99 1.330 . S
N100 C104 1.418 . S
C101 H80 0.929 . S
C101 C99 1.446 . S
C101 C102 1.332 . S
C102 H82 0.931 . S
C102 C101 1.332 . S
C102 C103 1.267 . S
C103 H71 0.929 . S
C103 C102 1.267 . S
C103 C104 1.251 . S
C104 H74 0.929 . S
C104 N100 1.418 . S
C104 C103 1.251 . S
C105 H72 0.930 . S
C105 C107 1.406 1_655 S
C105 C110 1.261 . S
C106 H73 0.930 . S
C106 N108 1.325 . S
C106 C109 1.357 1_455 S
C107 H75 0.928 . S
C107 C105 1.406 1_455 S
C107 N108 1.261 . S
N108 Co59 2.214 . S
N108 C106 1.325 . S
N108 C107 1.261 . S
C109 H79 0.931 . S
C109 C106 1.357 1_655 S
C109 C110 1.312 . S
C110 H81 0.930 . S
C110 C105 1.261 . S
C110 C109 1.312 . S
C111 O83 1.214 . S
C111 O91 1.234 . S
C112 H84 0.929 . S
C112 C115 1.391 . S
C112 C117 1.391 . S
C113 H85 0.929 . S
C113 C114 1.390 . S
C113 N116 1.391 . S
C114 H86 0.930 . S
C114 C113 1.390 . S
C114 C115 1.392 . S
C115 H87 0.929 . S
C115 C112 1.391 . S
C115 C114 1.392 . S
N116 Co60 2.257 . S
N116 C113 1.391 . S
N116 C117 1.388 . S
C117 H88 0.930 . S
C117 C112 1.391 . S
C117 N116 1.388 . S
Co118 O120 2.143 . S
Co118 O126 2.074 . S
Co118 O129 2.093 . S
Co118 O142 2.097 . S
Co118 N159 2.151 . S
Co118 N167 2.214 . S
Co119 O120 2.160 . S
Co119 O125 2.058 . S
Co119 O135 2.057 . S
Co119 O150 2.037 . S
Co119 N154 2.145 . S
Co119 N175 2.257 . S
O120 Co118 2.143 . S
O120 Co119 2.160 . S
C121 O122 1.278 . S
C121 O129 1.224 . S
O122 C121 1.278 . S
C123 O124 1.245 . S
C123 O135 1.232 . S
O124 C123 1.245 . S
O125 Co119 2.058 . S
O125 C151 1.269 . S
O126 Co118 2.074 . S
O126 C151 1.257 . S
H127 C152 0.930 . S
H128 C158 0.930 . S
O129 Co118 2.093 . S
O129 C121 1.224 . S
H130 C162 0.929 . S
H131 C164 0.930 . S
H132 C165 0.930 . S
H133 C163 0.929 . S
H134 C166 0.928 . S
O135 Co119 2.057 . S
O135 C123 1.232 . S
H136 C155 0.929 . S
H137 C156 0.929 . S
H138 C168 0.931 . S
H139 C160 0.929 . S
H140 C169 0.930 . S
H141 C161 0.931 . S
O142 Co118 2.097 . S
O142 C170 1.214 . S
H143 C171 0.929 . S
H144 C172 0.929 . S
H145 C173 0.930 . S
H146 C174 0.929 . S
H147 C176 0.930 . S
H148 C153 0.930 . S
H149 C157 0.930 . S
O150 Co119 2.037 . S
O150 C170 1.234 . S
C151 O125 1.269 . S
C151 O126 1.257 . S
C152 H127 0.930 . S
C152 C155 1.388 . S
C152 C157 1.418 . S
C153 H148 0.930 . S
C153 C156 1.404 . S
C153 C157 1.353 . S
N154 Co119 2.145 . S
N154 C155 1.397 . S
N154 C156 1.334 . S
C155 H136 0.929 . S
C155 C152 1.388 . S
C155 N154 1.397 . S
C156 H137 0.929 . S
C156 C153 1.404 . S
C156 N154 1.334 . S
C157 H149 0.930 . S
C157 C152 1.418 . S
C157 C153 1.353 . S
C158 H128 0.930 . S
C158 N159 1.330 . S
C158 C160 1.446 1_556 S
N159 Co118 2.151 . S
N159 C158 1.330 . S
N159 C163 1.418 . S
C160 H139 0.929 . S
C160 C158 1.446 1_554 S
C160 C161 1.332 . S
C161 H141 0.931 . S
C161 C160 1.332 . S
C161 C162 1.267 1_554 S
C162 H130 0.929 . S
C162 C161 1.267 1_556 S
C162 C163 1.251 . S
C163 H133 0.929 . S
C163 N159 1.418 . S
C163 C162 1.251 . S
C164 H131 0.930 . S
C164 C166 1.406 1_565 S
C164 C169 1.261 . S
C165 H132 0.930 . S
C165 N167 1.325 . S
C165 C168 1.357 1_545 S
C166 H134 0.928 . S
C166 C164 1.406 1_545 S
C166 N167 1.261 . S
N167 Co118 2.214 . S
N167 C165 1.325 . S
N167 C166 1.261 . S
C168 H138 0.931 . S
C168 C165 1.357 1_565 S
C168 C169 1.312 . S
C169 H140 0.930 . S
C169 C164 1.261 . S
C169 C168 1.312 . S
C170 O142 1.214 . S
C170 O150 1.234 . S
C171 H143 0.929 . S
C171 C174 1.391 . S
C171 C176 1.391 . S
C172 H144 0.929 . S
C172 C173 1.390 . S
C172 N175 1.391 . S
C173 H145 0.930 . S
C173 C172 1.390 . S
C173 C174 1.392 . S
C174 H146 0.929 . S
C174 C171 1.391 . S
C174 C173 1.392 . S
N175 Co119 2.257 . S
N175 C172 1.391 . S
N175 C176 1.388 . S
C176 H147 0.930 . S
C176 C171 1.391 . S
C176 N175 1.388 . S
Co177 O179 2.143 . S
Co177 O185 2.074 . S
Co177 O188 2.093 1_556 S
Co177 O201 2.097 . S
Co177 N218 2.151 1_556 S
Co177 N226 2.214 . S
Co178 O179 2.160 . S
Co178 O184 2.058 . S
Co178 O194 2.057 . S
Co178 O209 2.037 . S
Co178 N213 2.145 . S
Co178 N234 2.257 . S
O179 Co177 2.143 . S
O179 Co178 2.160 . S
C180 O181 1.278 . S
C180 O188 1.224 . S
O181 C180 1.278 . S
C182 O183 1.245 1_556 S
C182 O194 1.232 . S
O183 C182 1.245 1_554 S
O184 Co178 2.058 . S
O184 C210 1.269 . S
O185 Co177 2.074 . S
O185 C210 1.257 . S
H186 C211 0.930 . S
H187 C217 0.930 . S
O188 Co177 2.093 1_554 S
O188 C180 1.224 . S
H189 C221 0.929 . S
H190 C223 0.930 1_554 S
H191 C224 0.930 . S
H192 C222 0.929 . S
H193 C225 0.928 1_554 S
O194 Co178 2.057 . S
O194 C182 1.232 . S
H195 C214 0.929 . S
H196 C215 0.929 . S
H197 C227 0.931 . S
H198 C219 0.929 . S
H199 C228 0.930 . S
H200 C220 0.931 . S
O201 Co177 2.097 . S
O201 C229 1.214 . S
H202 C230 0.929 . S
H203 C231 0.929 . S
H204 C232 0.930 . S
H205 C233 0.929 . S
H206 C235 0.930 . S
H207 C212 0.930 . S
H208 C216 0.930 . S
O209 Co178 2.037 . S
O209 C229 1.234 . S
C210 O184 1.269 . S
C210 O185 1.257 . S
C211 H186 0.930 . S
C211 C214 1.388 . S
C211 C216 1.418 . S
C212 H207 0.930 . S
C212 C215 1.404 . S
C212 C216 1.353 . S
N213 Co178 2.145 . S
N213 C214 1.397 . S
N213 C215 1.334 . S
C214 H195 0.929 . S
C214 C211 1.388 . S
C214 N213 1.397 . S
C215 H196 0.929 . S
C215 C212 1.404 . S
C215 N213 1.334 . S
C216 H208 0.930 . S
C216 C211 1.418 . S
C216 C212 1.353 . S
C217 H187 0.930 . S
C217 N218 1.330 . S
C217 C219 1.446 . S
N218 Co177 2.151 1_554 S
N218 C217 1.330 . S
N218 C222 1.418 . S
C219 H198 0.929 . S
C219 C217 1.446 . S
C219 C220 1.332 . S
C220 H200 0.931 . S
C220 C219 1.332 . S
C220 C221 1.267 . S
C221 H189 0.929 . S
C221 C220 1.267 . S
C221 C222 1.251 . S
C222 H192 0.929 . S
C222 N218 1.418 . S
C222 C221 1.251 . S
C223 H190 0.930 1_556 S
C223 C225 1.406 . S
C223 C228 1.261 . S
C224 H191 0.930 . S
C224 N226 1.325 . S
C224 C227 1.357 . S
C225 H193 0.928 1_556 S
C225 C223 1.406 . S
C225 N226 1.261 . S
N226 Co177 2.214 . S
N226 C224 1.325 . S
N226 C225 1.261 . S
C227 H197 0.931 . S
C227 C224 1.357 . S
C227 C228 1.312 . S
C228 H199 0.930 . S
C228 C223 1.261 . S
C228 C227 1.312 . S
C229 O201 1.214 . S
C229 O209 1.234 . S
C230 H202 0.929 . S
C230 C233 1.391 . S
C230 C235 1.391 . S
C231 H203 0.929 . S
C231 C232 1.390 . S
C231 N234 1.391 . S
C232 H204 0.930 . S
C232 C231 1.390 . S
C232 C233 1.392 . S
C233 H205 0.929 . S
C233 C230 1.391 . S
C233 C232 1.392 . S
N234 Co178 2.257 . S
N234 C231 1.391 . S
N234 C235 1.388 . S
C235 H206 0.930 . S
C235 C230 1.391 . S
C235 N234 1.388 . S
Co236 O238 2.143 . S
Co236 O244 2.074 . S
Co236 O247 2.093 . S
Co236 O260 2.097 . S
Co236 N277 2.151 . S
Co236 N285 2.214 . S
Co237 O238 2.160 . S
Co237 O243 2.058 . S
Co237 O253 2.057 . S
Co237 O268 2.037 1_554 S
Co237 N272 2.145 1_554 S
Co237 N293 2.257 . S
O238 Co236 2.143 . S
O238 Co237 2.160 . S
C239 O240 1.278 . S
C239 O247 1.224 . S
O240 C239 1.278 . S
C241 O242 1.245 . S
C241 O253 1.232 . S
O242 C241 1.245 . S
O243 Co237 2.058 . S
O243 C269 1.269 . S
O244 Co236 2.074 . S
O244 C269 1.257 . S
H245 C270 0.930 . S
H246 C276 0.930 . S
O247 Co236 2.093 . S
O247 C239 1.224 . S
H248 C280 0.929 . S
H249 C282 0.930 . S
H250 C283 0.930 . S
H251 C281 0.929 . S
H252 C284 0.928 . S
O253 Co237 2.057 . S
O253 C241 1.232 . S
H254 C273 0.929 . S
H255 C274 0.929 . S
H256 C286 0.931 1_556 S
H257 C278 0.929 . S
H258 C287 0.930 . S
H259 C279 0.931 . S
O260 Co236 2.097 . S
O260 C288 1.214 1_554 S
H261 C289 0.929 . S
H262 C290 0.929 . S
H263 C291 0.930 . S
H264 C292 0.929 . S
H265 C294 0.930 . S
H266 C271 0.930 . S
H267 C275 0.930 . S
O268 Co237 2.037 1_556 S
O268 C288 1.234 . S
C269 O243 1.269 . S
C269 O244 1.257 . S
C270 H245 0.930 . S
C270 C273 1.388 . S
C270 C275 1.418 . S
C271 H266 0.930 . S
C271 C274 1.404 . S
C271 C275 1.353 . S
N272 Co237 2.145 1_556 S
N272 C273 1.397 . S
N272 C274 1.334 . S
C273 H254 0.929 . S
C273 C270 1.388 . S
C273 N272 1.397 . S
C274 H255 0.929 . S
C274 C271 1.404 . S
C274 N272 1.334 . S
C275 H267 0.930 . S
C275 C270 1.418 . S
C275 C271 1.353 . S
C276 H246 0.930 . S
C276 N277 1.330 . S
C276 C278 1.446 . S
N277 Co236 2.151 . S
N277 C276 1.330 . S
N277 C281 1.418 . S
C278 H257 0.929 . S
C278 C276 1.446 . S
C278 C279 1.332 . S
C279 H259 0.931 . S
C279 C278 1.332 . S
C279 C280 1.267 . S
C280 H248 0.929 . S
C280 C279 1.267 . S
C280 C281 1.251 . S
C281 H251 0.929 . S
C281 N277 1.418 . S
C281 C280 1.251 . S
C282 H249 0.930 . S
C282 C284 1.406 1_455 S
C282 C287 1.261 . S
C283 H250 0.930 . S
C283 N285 1.325 . S
C283 C286 1.357 1_655 S
C284 H252 0.928 . S
C284 C282 1.406 1_655 S
C284 N285 1.261 . S
N285 Co236 2.214 . S
N285 C283 1.325 . S
N285 C284 1.261 . S
C286 H256 0.931 1_554 S
C286 C283 1.357 1_455 S
C286 C287 1.312 . S
C287 H258 0.930 . S
C287 C282 1.261 . S
C287 C286 1.312 . S
C288 O260 1.214 1_556 S
C288 O268 1.234 . S
C289 H261 0.929 . S
C289 C292 1.391 . S
C289 C294 1.391 . S
C290 H262 0.929 . S
C290 C291 1.390 . S
C290 N293 1.391 1_556 S
C291 H263 0.930 . S
C291 C290 1.390 . S
C291 C292 1.392 1_556 S
C292 H264 0.929 . S
C292 C289 1.391 . S
C292 C291 1.392 1_554 S
N293 Co237 2.257 . S
N293 C290 1.391 1_554 S
N293 C294 1.388 . S
C294 H265 0.930 . S
C294 C289 1.391 . S
C294 N293 1.388 . S
Co295 O297 2.143 . S
Co295 O303 2.074 . S
Co295 O306 2.093 . S
Co295 O319 2.097 . S
Co295 N336 2.151 . S
Co295 N344 2.214 . S
Co296 O297 2.160 . S
Co296 O302 2.058 . S
Co296 O312 2.057 . S
Co296 O327 2.037 . S
Co296 N331 2.145 . S
Co296 N352 2.257 . S
O297 Co295 2.143 . S
O297 Co296 2.160 . S
C298 O299 1.278 . S
C298 O306 1.224 . S
O299 C298 1.278 . S
C300 O301 1.245 . S
C300 O312 1.232 . S
O301 C300 1.245 . S
O302 Co296 2.058 . S
O302 C328 1.269 . S
O303 Co295 2.074 . S
O303 C328 1.257 . S
H304 C329 0.930 . S
H305 C335 0.930 . S
O306 Co295 2.093 . S
O306 C298 1.224 . S
H307 C339 0.929 . S
H308 C341 0.930 . S
H309 C342 0.930 . S
H310 C340 0.929 . S
H311 C343 0.928 . S
O312 Co296 2.057 . S
O312 C300 1.232 . S
H313 C332 0.929 . S
H314 C333 0.929 . S
H315 C345 0.931 . S
H316 C337 0.929 . S
H317 C346 0.930 . S
H318 C338 0.931 . S
O319 Co295 2.097 . S
O319 C347 1.214 . S
H320 C348 0.929 . S
H321 C349 0.929 . S
H322 C350 0.930 . S
H323 C351 0.929 . S
H324 C353 0.930 . S
H325 C330 0.930 . S
H326 C334 0.930 . S
O327 Co296 2.037 . S
O327 C347 1.234 . S
C328 O302 1.269 . S
C328 O303 1.257 . S
C329 H304 0.930 . S
C329 C332 1.388 1_556 S
C329 C334 1.418 . S
C330 H325 0.930 . S
C330 C333 1.404 . S
C330 C334 1.353 1_554 S
N331 Co296 2.145 . S
N331 C332 1.397 . S
N331 C333 1.334 . S
C332 H313 0.929 . S
C332 C329 1.388 1_554 S
C332 N331 1.397 . S
C333 H314 0.929 . S
C333 C330 1.404 . S
C333 N331 1.334 . S
C334 H326 0.930 . S
C334 C329 1.418 . S
C334 C330 1.353 1_556 S
C335 H305 0.930 . S
C335 N336 1.330 . S
C335 C337 1.446 . S
N336 Co295 2.151 . S
N336 C335 1.330 . S
N336 C340 1.418 . S
C337 H316 0.929 . S
C337 C335 1.446 . S
C337 C338 1.332 . S
C338 H318 0.931 . S
C338 C337 1.332 . S
C338 C339 1.267 . S
C339 H307 0.929 . S
C339 C338 1.267 . S
C339 C340 1.251 . S
C340 H310 0.929 . S
C340 N336 1.418 . S
C340 C339 1.251 . S
C341 H308 0.930 . S
C341 C343 1.406 1_545 S
C341 C346 1.261 . S
C342 H309 0.930 . S
C342 N344 1.325 . S
C342 C345 1.357 1_565 S
C343 H311 0.928 . S
C343 C341 1.406 1_565 S
C343 N344 1.261 . S
N344 Co295 2.214 . S
N344 C342 1.325 . S
N344 C343 1.261 . S
C345 H315 0.931 . S
C345 C342 1.357 1_545 S
C345 C346 1.312 . S
C346 H317 0.930 . S
C346 C341 1.261 . S
C346 C345 1.312 . S
C347 O319 1.214 . S
C347 O327 1.234 . S
C348 H320 0.929 . S
C348 C351 1.391 . S
C348 C353 1.391 . S
C349 H321 0.929 . S
C349 C350 1.390 . S
C349 N352 1.391 . S
C350 H322 0.930 . S
C350 C349 1.390 . S
C350 C351 1.392 . S
C351 H323 0.929 . S
C351 C348 1.391 . S
C351 C350 1.392 . S
N352 Co296 2.257 . S
N352 C349 1.391 . S
N352 C353 1.388 . S
C353 H324 0.930 . S
C353 C348 1.391 . S
C353 N352 1.388 . S
Co354 O356 2.143 . S
Co354 O362 2.074 . S
Co354 O365 2.093 . S
Co354 O378 2.097 . S
Co354 N395 2.151 . S
Co354 N403 2.214 . S
Co355 O356 2.160 . S
Co355 O361 2.058 . S
Co355 O371 2.057 . S
Co355 O386 2.037 . S
Co355 N390 2.145 . S
Co355 N411 2.257 . S
O356 Co354 2.143 . S
O356 Co355 2.160 . S
C357 O358 1.278 . S
C357 O365 1.224 . S
O358 C357 1.278 . S
C359 O360 1.245 . S
C359 O371 1.232 . S
O360 C359 1.245 . S
O361 Co355 2.058 . S
O361 C387 1.269 . S
O362 Co354 2.074 . S
O362 C387 1.257 . S
H363 C388 0.930 . S
H364 C394 0.930 . S
O365 Co354 2.093 . S
O365 C357 1.224 . S
H366 C398 0.929 . S
H367 C400 0.930 . S
H368 C401 0.930 . S
H369 C399 0.929 . S
H370 C402 0.928 . S
O371 Co355 2.057 . S
O371 C359 1.232 . S
H372 C391 0.929 . S
H373 C392 0.929 . S
H374 C404 0.931 . S
H375 C396 0.929 . S
H376 C405 0.930 . S
H377 C397 0.931 . S
O378 Co354 2.097 . S
O378 C406 1.214 . S
H379 C407 0.929 . S
H380 C408 0.929 . S
H381 C409 0.930 . S
H382 C410 0.929 . S
H383 C412 0.930 . S
H384 C389 0.930 . S
H385 C393 0.930 . S
O386 Co355 2.037 . S
O386 C406 1.234 . S
C387 O361 1.269 . S
C387 O362 1.257 . S
C388 H363 0.930 . S
C388 C391 1.388 . S
C388 C393 1.418 . S
C389 H384 0.930 . S
C389 C392 1.404 . S
C389 C393 1.353 . S
N390 Co355 2.145 . S
N390 C391 1.397 . S
N390 C392 1.334 . S
C391 H372 0.929 . S
C391 C388 1.388 . S
C391 N390 1.397 . S
C392 H373 0.929 . S
C392 C389 1.404 . S
C392 N390 1.334 . S
C393 H385 0.930 . S
C393 C388 1.418 . S
C393 C389 1.353 . S
C394 H364 0.930 . S
C394 N395 1.330 . S
C394 C396 1.446 . S
N395 Co354 2.151 . S
N395 C394 1.330 . S
N395 C399 1.418 . S
C396 H375 0.929 . S
C396 C394 1.446 . S
C396 C397 1.332 . S
C397 H377 0.931 . S
C397 C396 1.332 . S
C397 C398 1.267 . S
C398 H366 0.929 . S
C398 C397 1.267 . S
C398 C399 1.251 . S
C399 H369 0.929 . S
C399 N395 1.418 . S
C399 C398 1.251 . S
C400 H367 0.930 . S
C400 C402 1.406 . S
C400 C405 1.261 . S
C401 H368 0.930 . S
C401 N403 1.325 . S
C401 C404 1.357 . S
C402 H370 0.928 . S
C402 C400 1.406 . S
C402 N403 1.261 . S
N403 Co354 2.214 . S
N403 C401 1.325 . S
N403 C402 1.261 . S
C404 H374 0.931 . S
C404 C401 1.357 . S
C404 C405 1.312 . S
C405 H376 0.930 . S
C405 C400 1.261 . S
C405 C404 1.312 . S
C406 O378 1.214 . S
C406 O386 1.234 . S
C407 H379 0.929 . S
C407 C410 1.391 . S
C407 C412 1.391 . S
C408 H380 0.929 . S
C408 C409 1.390 . S
C408 N411 1.391 . S
C409 H381 0.930 . S
C409 C408 1.390 . S
C409 C410 1.392 . S
C410 H382 0.929 . S
C410 C407 1.391 . S
C410 C409 1.392 . S
N411 Co355 2.257 . S
N411 C408 1.391 . S
N411 C412 1.388 . S
C412 H383 0.930 . S
C412 C407 1.391 . S
C412 N411 1.388 . S
Co413 O415 2.143 . S
Co413 O421 2.074 . S
Co413 O424 2.093 . S
Co413 O437 2.097 . S
Co413 N454 2.151 . S
Co413 N462 2.214 . S
Co414 O415 2.160 . S
Co414 O420 2.058 . S
Co414 O430 2.057 . S
Co414 O445 2.037 . S
Co414 N449 2.145 . S
Co414 N470 2.257 . S
O415 Co413 2.143 . S
O415 Co414 2.160 . S
C416 O417 1.278 . S
C416 O424 1.224 . S
O417 C416 1.278 . S
C418 O419 1.245 . S
C418 O430 1.232 . S
O419 C418 1.245 . S
O420 Co414 2.058 . S
O420 C446 1.269 . S
O421 Co413 2.074 . S
O421 C446 1.257 . S
H422 C447 0.930 . S
H423 C453 0.930 . S
O424 Co413 2.093 . S
O424 C416 1.224 . S
H425 C457 0.929 . S
H426 C459 0.930 . S
H427 C460 0.930 . S
H428 C458 0.929 . S
H429 C461 0.928 . S
O430 Co414 2.057 . S
O430 C418 1.232 . S
H431 C450 0.929 . S
H432 C451 0.929 . S
H433 C463 0.931 . S
H434 C455 0.929 . S
H435 C464 0.930 . S
H436 C456 0.931 . S
O437 Co413 2.097 . S
O437 C465 1.214 . S
H438 C466 0.929 . S
H439 C467 0.929 . S
H440 C468 0.930 . S
H441 C469 0.929 . S
H442 C471 0.930 . S
H443 C448 0.930 . S
H444 C452 0.930 . S
O445 Co414 2.037 . S
O445 C465 1.234 . S
C446 O420 1.269 . S
C446 O421 1.257 . S
C447 H422 0.930 . S
C447 C450 1.388 . S
C447 C452 1.418 . S
C448 H443 0.930 . S
C448 C451 1.404 . S
C448 C452 1.353 . S
N449 Co414 2.145 . S
N449 C450 1.397 . S
N449 C451 1.334 . S
C450 H431 0.929 . S
C450 C447 1.388 . S
C450 N449 1.397 . S
C451 H432 0.929 . S
C451 C448 1.404 . S
C451 N449 1.334 . S
C452 H444 0.930 . S
C452 C447 1.418 . S
C452 C448 1.353 . S
C453 H423 0.930 . S
C453 N454 1.330 . S
C453 C455 1.446 . S
N454 Co413 2.151 . S
N454 C453 1.330 . S
N454 C458 1.418 . S
C455 H434 0.929 . S
C455 C453 1.446 . S
C455 C456 1.332 . S
C456 H436 0.931 . S
C456 C455 1.332 . S
C456 C457 1.267 . S
C457 H425 0.929 . S
C457 C456 1.267 . S
C457 C458 1.251 . S
C458 H428 0.929 . S
C458 N454 1.418 . S
C458 C457 1.251 . S
C459 H426 0.930 . S
C459 C461 1.406 1_655 S
C459 C464 1.261 . S
C460 H427 0.930 . S
C460 N462 1.325 . S
C460 C463 1.357 1_455 S
C461 H429 0.928 . S
C461 C459 1.406 1_455 S
C461 N462 1.261 . S
N462 Co413 2.214 . S
N462 C460 1.325 . S
N462 C461 1.261 . S
C463 H433 0.931 . S
C463 C460 1.357 1_655 S
C463 C464 1.312 . S
C464 H435 0.930 . S
C464 C459 1.261 . S
C464 C463 1.312 . S
C465 O437 1.214 . S
C465 O445 1.234 . S
C466 H438 0.929 . S
C466 C469 1.391 . S
C466 C471 1.391 . S
C467 H439 0.929 . S
C467 C468 1.390 . S
C467 N470 1.391 . S
C468 H440 0.930 . S
C468 C467 1.390 . S
C468 C469 1.392 . S
C469 H441 0.929 . S
C469 C466 1.391 . S
C469 C468 1.392 . S
N470 Co414 2.257 . S
N470 C467 1.391 . S
N470 C471 1.388 . S
C471 H442 0.930 . S
C471 C466 1.391 . S
C471 N470 1.388 . S
Co472 O474 2.143 . S
Co472 O480 2.074 . S
Co472 O483 2.093 . S
Co472 O496 2.097 . S
Co472 N513 2.151 . S
Co472 N521 2.214 . S
Co473 O474 2.160 . S
Co473 O479 2.058 . S
Co473 O489 2.057 . S
Co473 O504 2.037 . S
Co473 N508 2.145 . S
Co473 N529 2.257 . S
O474 Co472 2.143 . S
O474 Co473 2.160 . S
C475 O476 1.278 . S
C475 O483 1.224 . S
O476 C475 1.278 . S
C477 O478 1.245 . S
C477 O489 1.232 . S
O478 C477 1.245 . S
O479 Co473 2.058 . S
O479 C505 1.269 . S
O480 Co472 2.074 . S
O480 C505 1.257 . S
H481 C506 0.930 . S
H482 C512 0.930 . S
O483 Co472 2.093 . S
O483 C475 1.224 . S
H484 C516 0.929 . S
H485 C518 0.930 . S
H486 C519 0.930 . S
H487 C517 0.929 . S
H488 C520 0.928 . S
O489 Co473 2.057 . S
O489 C477 1.232 . S
H490 C509 0.929 . S
H491 C510 0.929 . S
H492 C522 0.931 . S
H493 C514 0.929 . S
H494 C523 0.930 . S
H495 C515 0.931 . S
O496 Co472 2.097 . S
O496 C524 1.214 . S
H497 C525 0.929 . S
H498 C526 0.929 . S
H499 C527 0.930 . S
H500 C528 0.929 . S
H501 C530 0.930 . S
H502 C507 0.930 . S
H503 C511 0.930 . S
O504 Co473 2.037 . S
O504 C524 1.234 . S
C505 O479 1.269 . S
C505 O480 1.257 . S
C506 H481 0.930 . S
C506 C509 1.388 1_554 S
C506 C511 1.418 . S
C507 H502 0.930 . S
C507 C510 1.404 . S
C507 C511 1.353 1_556 S
N508 Co473 2.145 . S
N508 C509 1.397 . S
N508 C510 1.334 . S
C509 H490 0.929 . S
C509 C506 1.388 1_556 S
C509 N508 1.397 . S
C510 H491 0.929 . S
C510 C507 1.404 . S
C510 N508 1.334 . S
C511 H503 0.930 . S
C511 C506 1.418 . S
C511 C507 1.353 1_554 S
C512 H482 0.930 . S
C512 N513 1.330 . S
C512 C514 1.446 . S
N513 Co472 2.151 . S
N513 C512 1.330 . S
N513 C517 1.418 . S
C514 H493 0.929 . S
C514 C512 1.446 . S
C514 C515 1.332 . S
C515 H495 0.931 . S
C515 C514 1.332 . S
C515 C516 1.267 . S
C516 H484 0.929 . S
C516 C515 1.267 . S
C516 C517 1.251 . S
C517 H487 0.929 . S
C517 N513 1.418 . S
C517 C516 1.251 . S
C518 H485 0.930 . S
C518 C520 1.406 1_565 S
C518 C523 1.261 . S
C519 H486 0.930 . S
C519 N521 1.325 . S
C519 C522 1.357 1_545 S
C520 H488 0.928 . S
C520 C518 1.406 1_545 S
C520 N521 1.261 . S
N521 Co472 2.214 . S
N521 C519 1.325 . S
N521 C520 1.261 . S
C522 H492 0.931 . S
C522 C519 1.357 1_565 S
C522 C523 1.312 . S
C523 H494 0.930 . S
C523 C518 1.261 . S
C523 C522 1.312 . S
C524 O496 1.214 . S
C524 O504 1.234 . S
C525 H497 0.929 . S
C525 C528 1.391 . S
C525 C530 1.391 . S
C526 H498 0.929 . S
C526 C527 1.390 . S
C526 N529 1.391 . S
C527 H499 0.930 . S
C527 C526 1.390 . S
C527 C528 1.392 . S
C528 H500 0.929 . S
C528 C525 1.391 . S
C528 C527 1.392 . S
N529 Co473 2.257 . S
N529 C526 1.391 . S
N529 C530 1.388 . S
C530 H501 0.930 . S
C530 C525 1.391 . S
C530 N529 1.388 . S
Co531 O533 2.143 . S
Co531 O539 2.074 . S
Co531 O542 2.093 . S
Co531 O555 2.097 . S
Co531 N572 2.151 . S
Co531 N580 2.214 . S
Co532 O533 2.160 . S
Co532 O538 2.058 . S
Co532 O548 2.057 . S
Co532 O563 2.037 1_556 S
Co532 N567 2.145 1_556 S
Co532 N588 2.257 . S
O533 Co531 2.143 . S
O533 Co532 2.160 . S
C534 O535 1.278 . S
C534 O542 1.224 . S
O535 C534 1.278 . S
C536 O537 1.245 . S
C536 O548 1.232 . S
O537 C536 1.245 . S
O538 Co532 2.058 . S
O538 C564 1.269 . S
O539 Co531 2.074 . S
O539 C564 1.257 . S
H540 C565 0.930 . S
H541 C571 0.930 . S
O542 Co531 2.093 . S
O542 C534 1.224 . S
H543 C575 0.929 . S
H544 C577 0.930 . S
H545 C578 0.930 . S
H546 C576 0.929 . S
H547 C579 0.928 . S
O548 Co532 2.057 . S
O548 C536 1.232 . S
H549 C568 0.929 . S
H550 C569 0.929 . S
H551 C581 0.931 1_554 S
H552 C573 0.929 . S
H553 C582 0.930 . S
H554 C574 0.931 . S
O555 Co531 2.097 . S
O555 C583 1.214 1_556 S
H556 C584 0.929 . S
H557 C585 0.929 . S
H558 C586 0.930 . S
H559 C587 0.929 . S
H560 C589 0.930 . S
H561 C566 0.930 . S
H562 C570 0.930 . S
O563 Co532 2.037 1_554 S
O563 C583 1.234 . S
C564 O538 1.269 . S
C564 O539 1.257 . S
C565 H540 0.930 . S
C565 C568 1.388 . S
C565 C570 1.418 . S
C566 H561 0.930 . S
C566 C569 1.404 . S
C566 C570 1.353 . S
N567 Co532 2.145 1_554 S
N567 C568 1.397 . S
N567 C569 1.334 . S
C568 H549 0.929 . S
C568 C565 1.388 . S
C568 N567 1.397 . S
C569 H550 0.929 . S
C569 C566 1.404 . S
C569 N567 1.334 . S
C570 H562 0.930 . S
C570 C565 1.418 . S
C570 C566 1.353 . S
C571 H541 0.930 . S
C571 N572 1.330 . S
C571 C573 1.446 . S
N572 Co531 2.151 . S
N572 C571 1.330 . S
N572 C576 1.418 . S
C573 H552 0.929 . S
C573 C571 1.446 . S
C573 C574 1.332 . S
C574 H554 0.931 . S
C574 C573 1.332 . S
C574 C575 1.267 . S
C575 H543 0.929 . S
C575 C574 1.267 . S
C575 C576 1.251 . S
C576 H546 0.929 . S
C576 N572 1.418 . S
C576 C575 1.251 . S
C577 H544 0.930 . S
C577 C579 1.406 . S
C577 C582 1.261 . S
C578 H545 0.930 . S
C578 N580 1.325 . S
C578 C581 1.357 . S
C579 H547 0.928 . S
C579 C577 1.406 . S
C579 N580 1.261 . S
N580 Co531 2.214 . S
N580 C578 1.325 . S
N580 C579 1.261 . S
C581 H551 0.931 1_556 S
C581 C578 1.357 . S
C581 C582 1.312 . S
C582 H553 0.930 . S
C582 C577 1.261 . S
C582 C581 1.312 . S
C583 O555 1.214 1_554 S
C583 O563 1.234 . S
C584 H556 0.929 . S
C584 C587 1.391 . S
C584 C589 1.391 . S
C585 H557 0.929 . S
C585 C586 1.390 . S
C585 N588 1.391 1_554 S
C586 H558 0.930 . S
C586 C585 1.390 . S
C586 C587 1.392 1_554 S
C587 H559 0.929 . S
C587 C584 1.391 . S
C587 C586 1.392 1_556 S
N588 Co532 2.257 . S
N588 C585 1.391 1_556 S
N588 C589 1.388 . S
C589 H560 0.930 . S
C589 C584 1.391 . S
C589 N588 1.388 . S
Co590 O592 2.143 . S
Co590 O598 2.074 . S
Co590 O601 2.093 1_554 S
Co590 O614 2.097 . S
Co590 N631 2.151 1_554 S
Co590 N639 2.214 . S
Co591 O592 2.160 . S
Co591 O597 2.058 . S
Co591 O607 2.057 . S
Co591 O622 2.037 . S
Co591 N626 2.145 . S
Co591 N647 2.257 . S
O592 Co590 2.143 . S
O592 Co591 2.160 . S
C593 O594 1.278 . S
C593 O601 1.224 . S
O594 C593 1.278 . S
C595 O596 1.245 1_554 S
C595 O607 1.232 . S
O596 C595 1.245 1_556 S
O597 Co591 2.058 . S
O597 C623 1.269 . S
O598 Co590 2.074 . S
O598 C623 1.257 . S
H599 C624 0.930 . S
H600 C630 0.930 . S
O601 Co590 2.093 1_556 S
O601 C593 1.224 . S
H602 C634 0.929 . S
H603 C636 0.930 1_556 S
H604 C637 0.930 . S
H605 C635 0.929 . S
H606 C638 0.928 1_556 S
O607 Co591 2.057 . S
O607 C595 1.232 . S
H608 C627 0.929 . S
H609 C628 0.929 . S
H610 C640 0.931 . S
H611 C632 0.929 . S
H612 C641 0.930 . S
H613 C633 0.931 . S
O614 Co590 2.097 . S
O614 C642 1.214 . S
H615 C643 0.929 . S
H616 C644 0.929 . S
H617 C645 0.930 . S
H618 C646 0.929 . S
H619 C648 0.930 . S
H620 C625 0.930 . S
H621 C629 0.930 . S
O622 Co591 2.037 . S
O622 C642 1.234 . S
C623 O597 1.269 . S
C623 O598 1.257 . S
C624 H599 0.930 . S
C624 C627 1.388 . S
C624 C629 1.418 . S
C625 H620 0.930 . S
C625 C628 1.404 . S
C625 C629 1.353 . S
N626 Co591 2.145 . S
N626 C627 1.397 . S
N626 C628 1.334 . S
C627 H608 0.929 . S
C627 C624 1.388 . S
C627 N626 1.397 . S
C628 H609 0.929 . S
C628 C625 1.404 . S
C628 N626 1.334 . S
C629 H621 0.930 . S
C629 C624 1.418 . S
C629 C625 1.353 . S
C630 H600 0.930 . S
C630 N631 1.330 . S
C630 C632 1.446 . S
N631 Co590 2.151 1_556 S
N631 C630 1.330 . S
N631 C635 1.418 . S
C632 H611 0.929 . S
C632 C630 1.446 . S
C632 C633 1.332 . S
C633 H613 0.931 . S
C633 C632 1.332 . S
C633 C634 1.267 . S
C634 H602 0.929 . S
C634 C633 1.267 . S
C634 C635 1.251 . S
C635 H605 0.929 . S
C635 N631 1.418 . S
C635 C634 1.251 . S
C636 H603 0.930 1_554 S
C636 C638 1.406 1_455 S
C636 C641 1.261 . S
C637 H604 0.930 . S
C637 N639 1.325 . S
C637 C640 1.357 1_655 S
C638 H606 0.928 1_554 S
C638 C636 1.406 1_655 S
C638 N639 1.261 . S
N639 Co590 2.214 . S
N639 C637 1.325 . S
N639 C638 1.261 . S
C640 H610 0.931 . S
C640 C637 1.357 1_455 S
C640 C641 1.312 . S
C641 H612 0.930 . S
C641 C636 1.261 . S
C641 C640 1.312 . S
C642 O614 1.214 . S
C642 O622 1.234 . S
C643 H615 0.929 . S
C643 C646 1.391 . S
C643 C648 1.391 . S
C644 H616 0.929 . S
C644 C645 1.390 . S
C644 N647 1.391 . S
C645 H617 0.930 . S
C645 C644 1.390 . S
C645 C646 1.392 . S
C646 H618 0.929 . S
C646 C643 1.391 . S
C646 C645 1.392 . S
N647 Co591 2.257 . S
N647 C644 1.391 . S
N647 C648 1.388 . S
C648 H619 0.930 . S
C648 C643 1.391 . S
C648 N647 1.388 . S
Co649 O651 2.143 . S
Co649 O657 2.074 . S
Co649 O660 2.093 . S
Co649 O673 2.097 . S
Co649 N690 2.151 . S
Co649 N698 2.214 . S
Co650 O651 2.160 . S
Co650 O656 2.058 . S
Co650 O666 2.057 . S
Co650 O681 2.037 . S
Co650 N685 2.145 . S
Co650 N706 2.257 . S
O651 Co649 2.143 . S
O651 Co650 2.160 . S
C652 O653 1.278 . S
C652 O660 1.224 . S
O653 C652 1.278 . S
C654 O655 1.245 . S
C654 O666 1.232 . S
O655 C654 1.245 . S
O656 Co650 2.058 . S
O656 C682 1.269 . S
O657 Co649 2.074 . S
O657 C682 1.257 . S
H658 C683 0.930 . S
H659 C689 0.930 . S
O660 Co649 2.093 . S
O660 C652 1.224 . S
H661 C693 0.929 . S
H662 C695 0.930 . S
H663 C696 0.930 . S
H664 C694 0.929 . S
H665 C697 0.928 . S
O666 Co650 2.057 . S
O666 C654 1.232 . S
H667 C686 0.929 . S
H668 C687 0.929 . S
H669 C699 0.931 . S
H670 C691 0.929 . S
H671 C700 0.930 . S
H672 C692 0.931 . S
O673 Co649 2.097 . S
O673 C701 1.214 . S
H674 C702 0.929 . S
H675 C703 0.929 . S
H676 C704 0.930 . S
H677 C705 0.929 . S
H678 C707 0.930 . S
H679 C684 0.930 . S
H680 C688 0.930 . S
O681 Co650 2.037 . S
O681 C701 1.234 . S
C682 O656 1.269 . S
C682 O657 1.257 . S
C683 H658 0.930 . S
C683 C686 1.388 . S
C683 C688 1.418 . S
C684 H679 0.930 . S
C684 C687 1.404 . S
C684 C688 1.353 . S
N685 Co650 2.145 . S
N685 C686 1.397 . S
N685 C687 1.334 . S
C686 H667 0.929 . S
C686 C683 1.388 . S
C686 N685 1.397 . S
C687 H668 0.929 . S
C687 C684 1.404 . S
C687 N685 1.334 . S
C688 H680 0.930 . S
C688 C683 1.418 . S
C688 C684 1.353 . S
C689 H659 0.930 . S
C689 N690 1.330 . S
C689 C691 1.446 1_554 S
N690 Co649 2.151 . S
N690 C689 1.330 . S
N690 C694 1.418 . S
C691 H670 0.929 . S
C691 C689 1.446 1_556 S
C691 C692 1.332 . S
C692 H672 0.931 . S
C692 C691 1.332 . S
C692 C693 1.267 1_556 S
C693 H661 0.929 . S
C693 C692 1.267 1_554 S
C693 C694 1.251 . S
C694 H664 0.929 . S
C694 N690 1.418 . S
C694 C693 1.251 . S
C695 H662 0.930 . S
C695 C697 1.406 1_545 S
C695 C700 1.261 . S
C696 H663 0.930 . S
C696 N698 1.325 . S
C696 C699 1.357 1_565 S
C697 H665 0.928 . S
C697 C695 1.406 1_565 S
C697 N698 1.261 . S
N698 Co649 2.214 . S
N698 C696 1.325 . S
N698 C697 1.261 . S
C699 H669 0.931 . S
C699 C696 1.357 1_545 S
C699 C700 1.312 . S
C700 H671 0.930 . S
C700 C695 1.261 . S
C700 C699 1.312 . S
C701 O673 1.214 . S
C701 O681 1.234 . S
C702 H674 0.929 . S
C702 C705 1.391 . S
C702 C707 1.391 . S
C703 H675 0.929 . S
C703 C704 1.390 . S
C703 N706 1.391 . S
C704 H676 0.930 . S
C704 C703 1.390 . S
C704 C705 1.392 . S
C705 H677 0.929 . S
C705 C702 1.391 . S
C705 C704 1.392 . S
N706 Co650 2.257 . S
N706 C703 1.391 . S
N706 C707 1.388 . S
C707 H678 0.930 . S
C707 C702 1.391 . S
C707 N706 1.388 . S
C708 C709 1.363 . S
C708 C714 1.379 . S
C708 N716 1.356 . S
C709 C708 1.363 . S
C709 C715 1.363 . S
C710 C711 1.363 . S
C710 C715 1.379 . S
C710 N717 1.356 . S
C711 C710 1.363 . S
C711 C714 1.363 . S
N712 C714 1.356 . S
N712 H724 0.984 . S
N712 H725 0.985 . S
N713 C715 1.356 . S
N713 H718 0.984 . S
N713 H719 0.985 . S
C714 C708 1.379 . S
C714 C711 1.363 . S
C714 N712 1.356 . S
C715 C709 1.363 . S
C715 C710 1.379 . S
C715 N713 1.356 . S
N716 C708 1.356 . S
N716 H722 0.984 . S
N716 H723 0.984 . S
N717 C710 1.356 . S
N717 H720 0.984 . S
N717 H721 0.985 . S
H718 N713 0.984 . S
H719 N713 0.985 . S
H720 N717 0.984 . S
H721 N717 0.985 . S
H722 N716 0.984 . S
H723 N716 0.984 . S
H724 N712 0.984 . S
H725 N712 0.985 . S
C726 C727 1.363 1_655 S
C726 C732 1.379 . S
C726 N734 1.356 1_655 S
C727 C726 1.363 1_455 S
C727 C733 1.363 . S
C728 C729 1.363 1_455 S
C728 C733 1.379 . S
C728 N735 1.356 1_455 S
C729 C728 1.363 1_655 S
C729 C732 1.363 . S
N730 C732 1.356 . S
N730 H742 0.984 . S
N730 H743 0.985 . S
N731 C733 1.356 . S
N731 H736 0.984 . S
N731 H737 0.985 . S
C732 C726 1.379 . S
C732 C729 1.363 . S
C732 N730 1.356 . S
C733 C727 1.363 . S
C733 C728 1.379 . S
C733 N731 1.356 . S
N734 C726 1.356 1_455 S
N734 H740 0.984 1_455 S
N734 H741 0.984 . S
N735 C728 1.356 1_655 S
N735 H738 0.984 . S
N735 H739 0.985 1_655 S
H736 N731 0.984 . S
H737 N731 0.985 . S
H738 N735 0.984 . S
H739 N735 0.985 1_455 S
H740 N734 0.984 1_655 S
H741 N734 0.984 . S
H742 N730 0.984 . S
H743 N730 0.985 . S
C744 C745 1.363 . S
C744 C750 1.379 . S
C744 N752 1.356 . S
C745 C744 1.363 . S
C745 C751 1.363 1_565 S
C746 C747 1.363 . S
C746 C751 1.379 . S
C746 N753 1.356 . S
C747 C746 1.363 . S
C747 C750 1.363 1_545 S
N748 C750 1.356 1_545 S
N748 H760 0.984 1_545 S
N748 H761 0.985 . S
N749 C751 1.356 1_565 S
N749 H754 0.984 . S
N749 H755 0.985 1_565 S
C750 C744 1.379 . S
C750 C747 1.363 1_565 S
C750 N748 1.356 1_565 S
C751 C745 1.363 1_545 S
C751 C746 1.379 . S
C751 N749 1.356 1_545 S
N752 C744 1.356 . S
N752 H758 0.984 . S
N752 H759 0.984 . S
N753 C746 1.356 . S
N753 H756 0.984 . S
N753 H757 0.985 . S
H754 N749 0.984 . S
H755 N749 0.985 1_545 S
H756 N753 0.984 . S
H757 N753 0.985 . S
H758 N752 0.984 . S
H759 N752 0.984 . S
H760 N748 0.984 1_565 S
H761 N748 0.985 . S
C762 C763 1.363 . S
C762 C768 1.379 . S
C762 N770 1.356 . S
C763 C762 1.363 . S
C763 C769 1.363 . S
C764 C765 1.363 . S
C764 C769 1.379 . S
C764 N771 1.356 . S
C765 C764 1.363 . S
C765 C768 1.363 . S
N766 C768 1.356 . S
N766 H778 0.984 . S
N766 H779 0.985 . S
N767 C769 1.356 . S
N767 H772 0.984 . S
N767 H773 0.985 . S
C768 C762 1.379 . S
C768 C765 1.363 . S
C768 N766 1.356 . S
C769 C763 1.363 . S
C769 C764 1.379 . S
C769 N767 1.356 . S
N770 C762 1.356 . S
N770 H776 0.984 . S
N770 H777 0.984 . S
N771 C764 1.356 . S
N771 H774 0.984 . S
N771 H775 0.985 . S
H772 N767 0.984 . S
H773 N767 0.985 . S
H774 N771 0.984 . S
H775 N771 0.985 . S
H776 N770 0.984 . S
H777 N770 0.984 . S
H778 N766 0.984 . S
H779 N766 0.985 . S
C780 C781 1.363 . S
C780 C786 1.379 . S
C780 N788 1.356 . S
C781 C780 1.363 . S
C781 C787 1.363 1_455 S
C782 C783 1.363 . S
C782 C787 1.379 . S
C782 N789 1.356 . S
C783 C782 1.363 . S
C783 C786 1.363 1_655 S
N784 C786 1.356 1_655 S
N784 H796 0.984 1_655 S
N784 H797 0.985 . S
N785 C787 1.356 1_455 S
N785 H790 0.984 . S
N785 H791 0.985 1_455 S
C786 C780 1.379 . S
C786 C783 1.363 1_455 S
C786 N784 1.356 1_455 S
C787 C781 1.363 1_655 S
C787 C782 1.379 . S
C787 N785 1.356 1_655 S
N788 C780 1.356 . S
N788 H794 0.984 . S
N788 H795 0.984 . S
N789 C782 1.356 . S
N789 H792 0.984 . S
N789 H793 0.985 . S
H790 N785 0.984 . S
H791 N785 0.985 1_655 S
H792 N789 0.984 . S
H793 N789 0.985 . S
H794 N788 0.984 . S
H795 N788 0.984 . S
H796 N784 0.984 1_455 S
H797 N784 0.985 . S
C798 C799 1.363 1_554 S
C798 C804 1.379 . S
C798 N806 1.356 . S
C799 C798 1.363 1_556 S
C799 C805 1.363 1_545 S
C800 C801 1.363 1_556 S
C800 C805 1.379 . S
C800 N807 1.356 . S
C801 C800 1.363 1_554 S
C801 C804 1.363 1_565 S
N802 C804 1.356 1_565 S
N802 H814 0.984 1_565 S
N802 H815 0.985 . S
N803 C805 1.356 1_545 S
N803 H808 0.984 . S
N803 H809 0.985 1_545 S
C804 C798 1.379 . S
C804 C801 1.363 1_545 S
C804 N802 1.356 1_545 S
C805 C799 1.363 1_565 S
C805 C800 1.379 . S
C805 N803 1.356 1_565 S
N806 C798 1.356 . S
N806 H812 0.984 . S
N806 H813 0.984 1_554 S
N807 C800 1.356 . S
N807 H810 0.984 1_556 S
N807 H811 0.985 . S
H808 N803 0.984 . S
H809 N803 0.985 1_565 S
H810 N807 0.984 1_554 S
H811 N807 0.985 . S
H812 N806 0.984 . S
H813 N806 0.984 1_556 S
H814 N802 0.984 1_545 S
H815 N802 0.985 . S
C816 C817 1.363 . S
C816 C822 1.379 . S
C816 N824 1.356 . S
C817 C816 1.363 . S
C817 C823 1.363 . S
C818 C819 1.363 . S
C818 C823 1.379 . S
C818 N825 1.356 . S
C819 C818 1.363 . S
C819 C822 1.363 . S
N820 C822 1.356 . S
N820 H832 0.984 . S
N820 H833 0.985 . S
N821 C823 1.356 . S
N821 H826 0.984 . S
N821 H827 0.985 . S
C822 C816 1.379 . S
C822 C819 1.363 . S
C822 N820 1.356 . S
C823 C817 1.363 . S
C823 C818 1.379 . S
C823 N821 1.356 . S
N824 C816 1.356 . S
N824 H830 0.984 . S
N824 H831 0.984 . S
N825 C818 1.356 . S
N825 H828 0.984 . S
N825 H829 0.985 . S
H826 N821 0.984 . S
H827 N821 0.985 . S
H828 N825 0.984 . S
H829 N825 0.985 . S
H830 N824 0.984 . S
H831 N824 0.984 . S
H832 N820 0.984 . S
H833 N820 0.985 . S
C834 C835 1.363 . S
C834 C840 1.379 . S
C834 N842 1.356 . S
C835 C834 1.363 . S
C835 C841 1.363 . S
C836 C837 1.363 . S
C836 C841 1.379 . S
C836 N843 1.356 . S
C837 C836 1.363 . S
C837 C840 1.363 . S
N838 C840 1.356 . S
N838 H850 0.984 . S
N838 H851 0.985 . S
N839 C841 1.356 . S
N839 H844 0.984 . S
N839 H845 0.985 . S
C840 C834 1.379 . S
C840 C837 1.363 . S
C840 N838 1.356 . S
C841 C835 1.363 . S
C841 C836 1.379 . S
C841 N839 1.356 . S
N842 C834 1.356 . S
N842 H848 0.984 . S
N842 H849 0.984 . S
N843 C836 1.356 . S
N843 H846 0.984 . S
N843 H847 0.985 . S
H844 N839 0.984 . S
H845 N839 0.985 . S
H846 N843 0.984 . S
H847 N843 0.985 . S
H848 N842 0.984 . S
H849 N842 0.984 . S
H850 N838 0.984 . S
H851 N838 0.985 . S
C852 C853 1.363 . S
C852 C858 1.379 . S
C852 N860 1.356 . S
C853 C852 1.363 . S
C853 C859 1.363 . S
C854 C855 1.363 . S
C854 C859 1.379 . S
C854 N861 1.356 . S
C855 C854 1.363 . S
C855 C858 1.363 . S
N856 C858 1.356 . S
N856 H868 0.984 . S
N856 H869 0.985 . S
N857 C859 1.356 . S
N857 H862 0.984 . S
N857 H863 0.985 . S
C858 C852 1.379 . S
C858 C855 1.363 . S
C858 N856 1.356 . S
C859 C853 1.363 . S
C859 C854 1.379 . S
C859 N857 1.356 . S
N860 C852 1.356 . S
N860 H866 0.984 . S
N860 H867 0.984 . S
N861 C854 1.356 . S
N861 H864 0.984 . S
N861 H865 0.985 . S
H862 N857 0.984 . S
H863 N857 0.985 . S
H864 N861 0.984 . S
H865 N861 0.985 . S
H866 N860 0.984 . S
H867 N860 0.984 . S
H868 N856 0.984 . S
H869 N856 0.985 . S
C870 C871 1.363 . S
C870 C876 1.379 . S
C870 N878 1.356 . S
C871 C870 1.363 . S
C871 C877 1.363 . S
C872 C873 1.363 . S
C872 C877 1.379 . S
C872 N879 1.356 1_556 S
C873 C872 1.363 . S
C873 C876 1.363 . S
N874 C876 1.356 . S
N874 H886 0.984 . S
N874 H887 0.985 . S
N875 C877 1.356 . S
N875 H880 0.984 . S
N875 H881 0.985 . S
C876 C870 1.379 . S
C876 C873 1.363 . S
C876 N874 1.356 . S
C877 C871 1.363 . S
C877 C872 1.379 . S
C877 N875 1.356 . S
N878 C870 1.356 . S
N878 H884 0.984 . S
N878 H885 0.984 . S
N879 C872 1.356 1_554 S
N879 H882 0.984 . S
N879 H883 0.985 . S
H880 N875 0.984 . S
H881 N875 0.985 . S
H882 N879 0.984 . S
H883 N879 0.985 . S
H884 N878 0.984 . S
H885 N878 0.984 . S
H886 N874 0.984 . S
H887 N874 0.985 . S
C888 C889 1.363 . S
C888 C894 1.379 . S
C888 N896 1.356 . S
C889 C888 1.363 . S
C889 C895 1.363 . S
C890 C891 1.363 . S
C890 C895 1.379 . S
C890 N897 1.356 1_554 S
C891 C890 1.363 . S
C891 C894 1.363 . S
N892 C894 1.356 . S
N892 H904 0.984 . S
N892 H905 0.985 . S
N893 C895 1.356 . S
N893 H898 0.984 . S
N893 H899 0.985 1_554 S
C894 C888 1.379 . S
C894 C891 1.363 . S
C894 N892 1.356 . S
C895 C889 1.363 . S
C895 C890 1.379 . S
C895 N893 1.356 . S
N896 C888 1.356 . S
N896 H902 0.984 . S
N896 H903 0.984 . S
N897 C890 1.356 1_556 S
N897 H900 0.984 . S
N897 H901 0.985 . S
H898 N893 0.984 . S
H899 N893 0.985 1_556 S
H900 N897 0.984 . S
H901 N897 0.985 . S
H902 N896 0.984 . S
H903 N896 0.984 . S
H904 N892 0.984 . S
H905 N892 0.985 . S
C906 C907 1.363 . S
C906 C912 1.379 . S
C906 N914 1.356 . S
C907 C906 1.363 . S
C907 C913 1.363 . S
C908 C909 1.363 . S
C908 C913 1.379 . S
C908 N915 1.356 . S
C909 C908 1.363 . S
C909 C912 1.363 . S
N910 C912 1.356 . S
N910 H922 0.984 . S
N910 H923 0.985 . S
N911 C913 1.356 . S
N911 H916 0.984 . S
N911 H917 0.985 . S
C912 C906 1.379 . S
C912 C909 1.363 . S
C912 N910 1.356 . S
C913 C907 1.363 . S
C913 C908 1.379 . S
C913 N911 1.356 . S
N914 C906 1.356 . S
N914 H920 0.984 . S
N914 H921 0.984 . S
N915 C908 1.356 . S
N915 H918 0.984 . S
N915 H919 0.985 . S
H916 N911 0.984 . S
H917 N911 0.985 . S
H918 N915 0.984 . S
H919 N915 0.985 . S
H920 N914 0.984 . S
H921 N914 0.984 . S
H922 N910 0.984 . S
H923 N910 0.985 . S
C924 C925 1.363 . S
C924 C930 1.379 . S
C924 N932 1.356 . S
C925 C924 1.363 . S
C925 C931 1.363 . S
C926 C927 1.363 . S
C926 C931 1.379 . S
C926 N933 1.356 . S
C927 C926 1.363 . S
C927 C930 1.363 . S
N928 C930 1.356 . S
N928 H940 0.984 . S
N928 H941 0.985 . S
N929 C931 1.356 . S
N929 H934 0.984 . S
N929 H935 0.985 . S
C930 C924 1.379 . S
C930 C927 1.363 . S
C930 N928 1.356 . S
C931 C925 1.363 . S
C931 C926 1.379 . S
C931 N929 1.356 . S
N932 C924 1.356 . S
N932 H938 0.984 . S
N932 H939 0.984 . S
N933 C926 1.356 . S
N933 H936 0.984 . S
N933 H937 0.985 . S
H934 N929 0.984 . S
H935 N929 0.985 . S
H936 N933 0.984 . S
H937 N933 0.985 . S
H938 N932 0.984 . S
H939 N932 0.984 . S
H940 N928 0.984 . S
H941 N928 0.985 . S
C942 C943 1.363 . S
C942 C948 1.379 1_655 S
C942 N950 1.356 . S
C943 C942 1.363 . S
C943 C949 1.363 . S
C944 C945 1.363 . S
C944 C949 1.379 1_455 S
C944 N951 1.356 . S
C945 C944 1.363 . S
C945 C948 1.363 . S
N946 C948 1.356 . S
N946 H958 0.984 . S
N946 H959 0.985 . S
N947 C949 1.356 . S
N947 H952 0.984 . S
N947 H953 0.985 . S
C948 C942 1.379 1_455 S
C948 C945 1.363 . S
C948 N946 1.356 . S
C949 C943 1.363 . S
C949 C944 1.379 1_655 S
C949 N947 1.356 . S
N950 C942 1.356 . S
N950 H956 0.984 . S
N950 H957 0.984 . S
N951 C944 1.356 . S
N951 H954 0.984 . S
N951 H955 0.985 . S
H952 N947 0.984 . S
H953 N947 0.985 . S
H954 N951 0.984 . S
H955 N951 0.985 . S
H956 N950 0.984 . S
H957 N950 0.984 . S
H958 N946 0.984 . S
H959 N946 0.985 . S
C960 C961 1.363 1_545 S
C960 C966 1.379 1_554 S
C960 N968 1.356 . S
C961 C960 1.363 1_565 S
C961 C967 1.363 . S
C962 C963 1.363 1_565 S
C962 C967 1.379 1_556 S
C962 N969 1.356 . S
C963 C962 1.363 1_545 S
C963 C966 1.363 . S
N964 C966 1.356 . S
N964 H976 0.984 1_556 S
N964 H977 0.985 . S
N965 C967 1.356 . S
N965 H970 0.984 . S
N965 H971 0.985 1_554 S
C966 C960 1.379 1_556 S
C966 C963 1.363 . S
C966 N964 1.356 . S
C967 C961 1.363 . S
C967 C962 1.379 1_554 S
C967 N965 1.356 . S
N968 C960 1.356 . S
N968 H974 0.984 . S
N968 H975 0.984 1_545 S
N969 C962 1.356 . S
N969 H972 0.984 1_565 S
N969 H973 0.985 . S
H970 N965 0.984 . S
H971 N965 0.985 1_556 S
H972 N969 0.984 1_545 S
H973 N969 0.985 . S
H974 N968 0.984 . S
H975 N968 0.984 1_565 S
H976 N964 0.984 1_554 S
H977 N964 0.985 . S
C978 C979 1.363 . S
C978 C984 1.379 . S
C978 N986 1.356 . S
C979 C978 1.363 . S
C979 C985 1.363 . S
C980 C981 1.363 . S
C980 C985 1.379 . S
C980 N987 1.356 . S
C981 C980 1.363 . S
C981 C984 1.363 . S
N982 C984 1.356 . S
N982 H994 0.984 . S
N982 H995 0.985 . S
N983 C985 1.356 . S
N983 H988 0.984 . S
N983 H989 0.985 . S
C984 C978 1.379 . S
C984 C981 1.363 . S
C984 N982 1.356 . S
C985 C979 1.363 . S
C985 C980 1.379 . S
C985 N983 1.356 . S
N986 C978 1.356 . S
N986 H992 0.984 . S
N986 H993 0.984 . S
N987 C980 1.356 . S
N987 H990 0.984 . S
N987 H991 0.985 . S
H988 N983 0.984 . S
H989 N983 0.985 . S
H990 N987 0.984 . S
H991 N987 0.985 . S
H992 N986 0.984 . S
H993 N986 0.984 . S
H994 N982 0.984 . S
H995 N982 0.985 . S
C996 C997 1.363 . S
C996 C1002 1.379 1_455 S
C996 N1004 1.356 . S
C997 C996 1.363 . S
C997 C1003 1.363 . S
C998 C999 1.363 . S
C998 C1003 1.379 1_655 S
C998 N1005 1.356 . S
C999 C998 1.363 . S
C999 C1002 1.363 . S
N1000 C1002 1.356 . S
N1000 H1012 0.984 . S
N1000 H1013 0.985 . S
N1001 C1003 1.356 . S
N1001 H1006 0.984 . S
N1001 H1007 0.985 . S
C1002 C996 1.379 1_655 S
C1002 C999 1.363 . S
C1002 N1000 1.356 . S
C1003 C997 1.363 . S
C1003 C998 1.379 1_455 S
C1003 N1001 1.356 . S
N1004 C996 1.356 . S
N1004 H1010 0.984 . S
N1004 H1011 0.984 . S
N1005 C998 1.356 . S
N1005 H1008 0.984 . S
N1005 H1009 0.985 . S
H1006 N1001 0.984 . S
H1007 N1001 0.985 . S
H1008 N1005 0.984 . S
H1009 N1005 0.985 . S
H1010 N1004 0.984 . S
H1011 N1004 0.984 . S
H1012 N1000 0.984 . S
H1013 N1000 0.985 . S
C1014 C1015 1.363 . S
C1014 C1020 1.379 . S
C1014 N1022 1.356 . S
C1015 C1014 1.363 . S
C1015 C1021 1.363 1_565 S
C1016 C1017 1.363 . S
C1016 C1021 1.379 . S
C1016 N1023 1.356 . S
C1017 C1016 1.363 . S
C1017 C1020 1.363 1_545 S
N1018 C1020 1.356 . S
N1018 H1030 0.984 . S
N1018 H1031 0.985 1_565 S
N1019 C1021 1.356 . S
N1019 H1024 0.984 1_545 S
N1019 H1025 0.985 . S
C1020 C1014 1.379 . S
C1020 C1017 1.363 1_565 S
C1020 N1018 1.356 . S
C1021 C1015 1.363 1_545 S
C1021 C1016 1.379 . S
C1021 N1019 1.356 . S
N1022 C1014 1.356 . S
N1022 H1028 0.984 . S
N1022 H1029 0.984 . S
N1023 C1016 1.356 . S
N1023 H1026 0.984 . S
N1023 H1027 0.985 . S
H1024 N1019 0.984 1_565 S
H1025 N1019 0.985 . S
H1026 N1023 0.984 . S
H1027 N1023 0.985 . S
H1028 N1022 0.984 . S
H1029 N1022 0.984 . S
H1030 N1018 0.984 . S
H1031 N1018 0.985 1_545 S
C1032 C1033 1.363 . S
C1032 C1038 1.379 . S
C1032 N1040 1.356 . S
C1033 C1032 1.363 . S
C1033 C1039 1.363 . S
C1034 C1035 1.363 . S
C1034 C1039 1.379 . S
C1034 N1041 1.356 . S
C1035 C1034 1.363 . S
C1035 C1038 1.363 . S
N1036 C1038 1.356 . S
N1036 H1048 0.984 . S
N1036 H1049 0.985 . S
N1037 C1039 1.356 . S
N1037 H1042 0.984 . S
N1037 H1043 0.985 . S
C1038 C1032 1.379 . S
C1038 C1035 1.363 . S
C1038 N1036 1.356 . S
C1039 C1033 1.363 . S
C1039 C1034 1.379 . S
C1039 N1037 1.356 . S
N1040 C1032 1.356 . S
N1040 H1046 0.984 . S
N1040 H1047 0.984 . S
N1041 C1034 1.356 . S
N1041 H1044 0.984 . S
N1041 H1045 0.985 . S
H1042 N1037 0.984 . S
H1043 N1037 0.985 . S
H1044 N1041 0.984 . S
H1045 N1041 0.985 . S
H1046 N1040 0.984 . S
H1047 N1040 0.984 . S
H1048 N1036 0.984 . S
H1049 N1036 0.985 . S
C1050 C1051 1.363 . S
C1050 C1056 1.379 . S
C1050 N1058 1.356 . S
C1051 C1050 1.363 . S
C1051 C1057 1.363 . S
C1052 C1053 1.363 . S
C1052 C1057 1.379 . S
C1052 N1059 1.356 . S
C1053 C1052 1.363 . S
C1053 C1056 1.363 . S
N1054 C1056 1.356 . S
N1054 H1066 0.984 . S
N1054 H1067 0.985 . S
N1055 C1057 1.356 . S
N1055 H1060 0.984 . S
N1055 H1061 0.985 . S
C1056 C1050 1.379 . S
C1056 C1053 1.363 . S
C1056 N1054 1.356 . S
C1057 C1051 1.363 . S
C1057 C1052 1.379 . S
C1057 N1055 1.356 . S
N1058 C1050 1.356 . S
N1058 H1064 0.984 . S
N1058 H1065 0.984 . S
N1059 C1052 1.356 . S
N1059 H1062 0.984 . S
N1059 H1063 0.985 . S
H1060 N1055 0.984 . S
H1061 N1055 0.985 . S
H1062 N1059 0.984 . S
H1063 N1059 0.985 . S
H1064 N1058 0.984 . S
H1065 N1058 0.984 . S
H1066 N1054 0.984 . S
H1067 N1054 0.985 . S
C1068 C1069 1.363 . S
C1068 C1074 1.379 . S
C1068 N1076 1.356 . S
C1069 C1068 1.363 . S
C1069 C1075 1.363 . S
C1070 C1071 1.363 . S
C1070 C1075 1.379 . S
C1070 N1077 1.356 . S
C1071 C1070 1.363 . S
C1071 C1074 1.363 . S
N1072 C1074 1.356 . S
N1072 H1084 0.984 . S
N1072 H1085 0.985 . S
N1073 C1075 1.356 1_554 S
N1073 H1078 0.984 . S
N1073 H1079 0.985 . S
C1074 C1068 1.379 . S
C1074 C1071 1.363 . S
C1074 N1072 1.356 . S
C1075 C1069 1.363 . S
C1075 C1070 1.379 . S
C1075 N1073 1.356 1_556 S
N1076 C1068 1.356 . S
N1076 H1082 0.984 . S
N1076 H1083 0.984 . S
N1077 C1070 1.356 . S
N1077 H1080 0.984 . S
N1077 H1081 0.985 . S
H1078 N1073 0.984 . S
H1079 N1073 0.985 . S
H1080 N1077 0.984 . S
H1081 N1077 0.985 . S
H1082 N1076 0.984 . S
H1083 N1076 0.984 . S
H1084 N1072 0.984 . S
H1085 N1072 0.985 . S
C1086 C1087 1.363 . S
C1086 C1092 1.379 . S
C1086 N1094 1.356 . S
C1087 C1086 1.363 . S
C1087 C1093 1.363 . S
C1088 C1089 1.363 . S
C1088 C1093 1.379 . S
C1088 N1095 1.356 1_554 S
C1089 C1088 1.363 . S
C1089 C1092 1.363 . S
N1090 C1092 1.356 . S
N1090 H1102 0.984 . S
N1090 H1103 0.985 . S
N1091 C1093 1.356 . S
N1091 H1096 0.984 . S
N1091 H1097 0.985 . S
C1092 C1086 1.379 . S
C1092 C1089 1.363 . S
C1092 N1090 1.356 . S
C1093 C1087 1.363 . S
C1093 C1088 1.379 . S
C1093 N1091 1.356 . S
N1094 C1086 1.356 . S
N1094 H1100 0.984 . S
N1094 H1101 0.984 . S
N1095 C1088 1.356 1_556 S
N1095 H1098 0.984 . S
N1095 H1099 0.985 . S
H1096 N1091 0.984 . S
H1097 N1091 0.985 . S
H1098 N1095 0.984 . S
H1099 N1095 0.985 . S
H1100 N1094 0.984 . S
H1101 N1094 0.984 . S
H1102 N1090 0.984 . S
H1103 N1090 0.985 . S
C1104 C1105 1.363 . S
C1104 C1110 1.379 . S
C1104 N1112 1.356 . S
C1105 C1104 1.363 . S
C1105 C1111 1.363 . S
C1106 C1107 1.363 . S
C1106 C1111 1.379 . S
C1106 N1113 1.356 . S
C1107 C1106 1.363 . S
C1107 C1110 1.363 . S
N1108 C1110 1.356 . S
N1108 H1120 0.984 . S
N1108 H1121 0.985 . S
N1109 C1111 1.356 . S
N1109 H1114 0.984 . S
N1109 H1115 0.985 . S
C1110 C1104 1.379 . S
C1110 C1107 1.363 . S
C1110 N1108 1.356 . S
C1111 C1105 1.363 . S
C1111 C1106 1.379 . S
C1111 N1109 1.356 . S
N1112 C1104 1.356 . S
N1112 H1118 0.984 . S
N1112 H1119 0.984 . S
N1113 C1106 1.356 . S
N1113 H1116 0.984 . S
N1113 H1117 0.985 . S
H1114 N1109 0.984 . S
H1115 N1109 0.985 . S
H1116 N1113 0.984 . S
H1117 N1113 0.985 . S
H1118 N1112 0.984 . S
H1119 N1112 0.984 . S
H1120 N1108 0.984 . S
H1121 N1108 0.985 . S
C1122 C1123 1.363 . S
C1122 C1128 1.379 . S
C1122 N1130 1.356 . S
C1123 C1122 1.363 . S
C1123 C1129 1.363 . S
C1124 C1125 1.363 . S
C1124 C1129 1.379 . S
C1124 N1131 1.356 . S
C1125 C1124 1.363 . S
C1125 C1128 1.363 . S
N1126 C1128 1.356 . S
N1126 H1138 0.984 . S
N1126 H1139 0.985 . S
N1127 C1129 1.356 . S
N1127 H1132 0.984 . S
N1127 H1133 0.985 . S
C1128 C1122 1.379 . S
C1128 C1125 1.363 . S
C1128 N1126 1.356 . S
C1129 C1123 1.363 . S
C1129 C1124 1.379 . S
C1129 N1127 1.356 . S
N1130 C1122 1.356 . S
N1130 H1136 0.984 . S
N1130 H1137 0.984 . S
N1131 C1124 1.356 . S
N1131 H1134 0.984 . S
N1131 H1135 0.985 . S
H1132 N1127 0.984 . S
H1133 N1127 0.985 . S
H1134 N1131 0.984 . S
H1135 N1131 0.985 . S
H1136 N1130 0.984 . S
H1137 N1130 0.984 . S
H1138 N1126 0.984 . S
H1139 N1126 0.985 . S
C709 C583 1.927 . S
C711 C52 1.927 . S
C727 C111 1.927 . S
C729 C642 1.927 . S
C745 C701 1.927 . S
C747 C170 1.927 . S
C763 C406 1.927 . S
C765 C229 1.927 . S
C781 C465 1.927 . S
C783 C288 1.927 . S
C799 C524 1.927 . S
C801 C347 1.927 . S
C817 C387 1.809 . S
C819 C33 1.809 . S
C835 C92 1.809 . S
C837 C446 1.809 . S
C853 C505 1.809 . S
C855 C151 1.809 . S
C871 C210 1.809 . S
C873 C564 1.809 . S
C889 C623 1.809 . S
C891 C269 1.809 . S
C907 C328 1.809 . S
C909 C682 1.809 . S
C925 C534 1.213 . S
C927 C3 1.213 . S
C943 C593 1.213 . S
C945 C62 1.213 . S
C961 C652 1.213 . S
C963 C121 1.213 . S
C979 C180 1.213 . S
C981 C357 1.213 . S
C997 C416 1.213 . S
C999 C239 1.213 . S
C1015 C298 1.213 . S
C1017 C475 1.213 . S
C1033 C5 1.371 . S
C1035 C477 1.371 . S
C1051 C536 1.371 . S
C1053 C64 1.371 . S
C1069 C595 1.372 1_556 S
C1071 C123 1.372 . S
C1087 C654 1.371 . S
C1089 C182 1.371 1_554 S
C1105 C359 1.371 . S
C1107 C241 1.371 . S
C1123 C418 1.372 . S
C1125 C300 1.372 . S
