# Generated by pormake.
# Topology ukf, (4)-cn, num edge types: 1
# Building blocks:
#     Node 0, Type 0, BuildingBlock: CEKHIL_clean_sbu_0, # of connection points: 4
#     Node 1, Type 0, BuildingBlock: CEKHIL_clean_sbu_0, # of connection points: 4
#     Node 2, Type 0, BuildingBlock: CEKHIL_clean_sbu_0, # of connection points: 4
#     Node 3, Type 0, BuildingBlock: CEKHIL_clean_sbu_0, # of connection points: 4
#     Node 4, Type 0, BuildingBlock: CEKHIL_clean_sbu_0, # of connection points: 4
#     Node 5, Type 0, BuildingBlock: CEKHIL_clean_sbu_0, # of connection points: 4
#     Node 6, Type 0, BuildingBlock: CEKHIL_clean_sbu_0, # of connection points: 4
#     Node 7, Type 0, BuildingBlock: CEKHIL_clean_sbu_0, # of connection points: 4
#     Node 8, Type 0, BuildingBlock: CEKHIL_clean_sbu_0, # of connection points: 4
#     Node 9, Type 0, BuildingBlock: CEKHIL_clean_sbu_0, # of connection points: 4
#     Node 10, Type 0, BuildingBlock: CEKHIL_clean_sbu_0, # of connection points: 4
#     Node 11, Type 0, BuildingBlock: CEKHIL_clean_sbu_0, # of connection points: 4
#     Edge 12, Type (0, 0), BuildingBlock: AJUNOK_clean_linker_0, # of connection points: 2
#     Edge 13, Type (0, 0), BuildingBlock: AJUNOK_clean_linker_0, # of connection points: 2
#     Edge 14, Type (0, 0), BuildingBlock: AJUNOK_clean_linker_0, # of connection points: 2
#     Edge 15, Type (0, 0), BuildingBlock: AJUNOK_clean_linker_0, # of connection points: 2
#     Edge 16, Type (0, 0), BuildingBlock: AJUNOK_clean_linker_0, # of connection points: 2
#     Edge 17, Type (0, 0), BuildingBlock: AJUNOK_clean_linker_0, # of connection points: 2
#     Edge 18, Type (0, 0), BuildingBlock: AJUNOK_clean_linker_0, # of connection points: 2
#     Edge 19, Type (0, 0), BuildingBlock: AJUNOK_clean_linker_0, # of connection points: 2
#     Edge 20, Type (0, 0), BuildingBlock: AJUNOK_clean_linker_0, # of connection points: 2
#     Edge 21, Type (0, 0), BuildingBlock: AJUNOK_clean_linker_0, # of connection points: 2
#     Edge 22, Type (0, 0), BuildingBlock: AJUNOK_clean_linker_0, # of connection points: 2
#     Edge 23, Type (0, 0), BuildingBlock: AJUNOK_clean_linker_0, # of connection points: 2
#     Edge 24, Type (0, 0), BuildingBlock: AJUNOK_clean_linker_0, # of connection points: 2
#     Edge 25, Type (0, 0), BuildingBlock: AJUNOK_clean_linker_0, # of connection points: 2
#     Edge 26, Type (0, 0), BuildingBlock: AJUNOK_clean_linker_0, # of connection points: 2
#     Edge 27, Type (0, 0), BuildingBlock: AJUNOK_clean_linker_0, # of connection points: 2
#     Edge 28, Type (0, 0), BuildingBlock: AJUNOK_clean_linker_0, # of connection points: 2
#     Edge 29, Type (0, 0), BuildingBlock: AJUNOK_clean_linker_0, # of connection points: 2
#     Edge 30, Type (0, 0), BuildingBlock: AJUNOK_clean_linker_0, # of connection points: 2
#     Edge 31, Type (0, 0), BuildingBlock: AJUNOK_clean_linker_0, # of connection points: 2
#     Edge 32, Type (0, 0), BuildingBlock: AJUNOK_clean_linker_0, # of connection points: 2
#     Edge 33, Type (0, 0), BuildingBlock: AJUNOK_clean_linker_0, # of connection points: 2
#     Edge 34, Type (0, 0), BuildingBlock: AJUNOK_clean_linker_0, # of connection points: 2
#     Edge 35, Type (0, 0), BuildingBlock: AJUNOK_clean_linker_0, # of connection points: 2
# Relax obj value: 0.103
# Max RMSD: 0.082
# Mean RMSD: 0.082
data_MOF--net-ukf--node1-CEKHIL_clean_sbu_0--edge1-AJUNOK_clean_linker_0
_symmetry_space_group_name_H-M    P1
_symmetry_Int_Tables_number       1
_symmetry_cell_setting            triclinic
loop_
_symmetry_equiv_pos_as_xyz
'x, y, z'
_cell_length_a     23.723096
_cell_length_b     23.683336
_cell_length_c     47.439081
_cell_angle_alpha  89.99678
_cell_angle_beta   90.039982
_cell_angle_gamma 119.91106
loop_
_atom_site_label
_atom_site_type_symbol
_atom_site_fract_x
_atom_site_fract_y
_atom_site_fract_z
_atom_type_partial_charge
Co0 Co 0.47142 0.26583 0.03688 0.0
O1 O 0.53071 0.3521 0.05101 0.0
O2 O 0.4366 0.32553 0.03177 0.0
C3 C 0.55086 0.26004 0.01379 0.0
O4 O 0.40006 0.17922 0.0191 0.0
Co5 Co 0.50063 0.15361 0.05329 0.0
O6 O 0.42685 0.10153 0.02812 0.0
C7 C 0.43185 0.19553 0.09291 0.0
C8 C 0.49155 0.37119 0.04221 0.0
C9 C 0.38941 0.1199 0.01739 0.0
O10 O 0.43041 0.23604 0.07513 0.0
O11 O 0.46178 0.16395 0.08859 0.0
O12 O 0.52139 0.28755 0.00191 0.0
O13 O 0.53361 0.24016 0.03914 0.0
Co14 Co 0.18852 0.44243 0.36798 0.0
O15 O 0.16459 0.50485 0.38118 0.0
O16 O 0.09389 0.40794 0.3652 0.0
C17 C 0.27078 0.51688 0.34186 0.0
O18 O 0.19985 0.36751 0.35145 0.0
Co19 Co 0.33063 0.47107 0.3817 0.0
O20 O 0.30497 0.39426 0.35788 0.0
C21 C 0.2264 0.41231 0.42468 0.0
C22 C 0.10515 0.46469 0.37431 0.0
C23 C 0.2477 0.35598 0.34887 0.0
O24 O 0.18238 0.40757 0.40729 0.0
O25 O 0.28697 0.44019 0.41871 0.0
O26 O 0.21229 0.48688 0.33155 0.0
O27 O 0.27657 0.50356 0.36753 0.0
Co28 Co 0.75416 0.1963 0.70213 0.0
O29 O 0.66729 0.16819 0.71582 0.0
O30 O 0.697 0.10151 0.69799 0.0
C31 C 0.75871 0.27932 0.67762 0.0
O32 O 0.84127 0.21198 0.68488 0.0
Co33 Co 0.86437 0.33919 0.71716 0.0
O34 O 0.91707 0.31772 0.69224 0.0
C35 C 0.82421 0.23147 0.75835 0.0
C36 C 0.65023 0.10971 0.70793 0.0
C37 C 0.8998 0.26129 0.68251 0.0
O38 O 0.7843 0.18817 0.74088 0.0
O39 O 0.85537 0.29258 0.75313 0.0
O40 O 0.73178 0.22158 0.6665 0.0
O41 O 0.7781 0.28388 0.70319 0.0
Co42 Co 0.59289 0.75537 0.03514 0.0
O43 O 0.53251 0.6683 0.04837 0.0
O44 O 0.6297 0.69728 0.03194 0.0
C45 C 0.51694 0.76169 0.00953 0.0
O46 O 0.66605 0.84219 0.01838 0.0
Co47 Co 0.56216 0.86765 0.04892 0.0
O48 O 0.6371 0.91925 0.02435 0.0
C49 C 0.62254 0.82324 0.09182 0.0
C50 C 0.57404 0.65074 0.04133 0.0
C51 C 0.676 0.90098 0.01535 0.0
O52 O 0.62814 0.78439 0.07442 0.0
O53 O 0.59387 0.8553 0.08582 0.0
O54 O 0.54761 0.73407 -0.00109 0.0
O55 O 0.53057 0.78087 0.03518 0.0
Co56 Co 0.82134 0.56423 0.37063 0.0
O57 O 0.85045 0.50617 0.38447 0.0
O58 O 0.91577 0.60166 0.36568 0.0
C59 C 0.73748 0.48533 0.34693 0.0
O60 O 0.80434 0.6346 0.35299 0.0
Co61 Co 0.67947 0.53248 0.38694 0.0
O62 O 0.69919 0.60525 0.36138 0.0
C63 C 0.78934 0.60319 0.42665 0.0
C64 C 0.90837 0.54723 0.37599 0.0
C65 C 0.7548 0.64363 0.35085 0.0
O66 O 0.83146 0.60453 0.40905 0.0
O67 O 0.72803 0.57301 0.42217 0.0
O68 O 0.79467 0.51534 0.33541 0.0
O69 O 0.73391 0.50066 0.37255 0.0
Co70 Co 0.26515 0.83063 0.7016 0.0
O71 O 0.35172 0.8545 0.71424 0.0
O72 O 0.32574 0.92511 0.6978 0.0
C73 C 0.25508 0.74638 0.67617 0.0
O74 O 0.17844 0.81893 0.68555 0.0
Co75 Co 0.152 0.68973 0.71732 0.0
O76 O 0.10015 0.71433 0.69343 0.0
C77 C 0.20028 0.7971 0.7589 0.0
C78 C 0.37117 0.91379 0.70689 0.0
C79 C 0.11893 0.77107 0.68369 0.0
O80 O 0.23892 0.83976 0.74095 0.0
O81 O 0.16712 0.73601 0.75383 0.0
O82 O 0.28354 0.80441 0.66532 0.0
O83 O 0.23754 0.74216 0.70202 0.0
Co84 Co 0.75524 0.57669 0.60002 0.0
O85 O 0.66899 0.51569 0.58641 0.0
O86 O 0.6949 0.61074 0.60465 0.0
C87 C 0.76248 0.49849 0.62365 0.0
O88 O 0.84143 0.65008 0.61724 0.0
Co89 Co 0.86918 0.54965 0.5846 0.0
O90 O 0.91994 0.62387 0.60968 0.0
C91 C 0.82297 0.61238 0.54349 0.0
C92 C 0.64956 0.55497 0.59472 0.0
C93 C 0.9008 0.6615 0.6195 0.0
O94 O 0.78347 0.61546 0.56128 0.0
O95 O 0.85603 0.58429 0.54861 0.0
O96 O 0.73484 0.52799 0.6354 0.0
O97 O 0.78228 0.51552 0.5983 0.0
Co98 Co 0.21514 0.75559 0.93207 0.0
O99 O 0.18859 0.66922 0.9181 0.0
O100 O 0.12107 0.69579 0.93747 0.0
C101 C 0.30118 0.76236 0.95482 0.0
O102 O 0.22986 0.84221 0.94977 0.0
Co103 Co 0.35508 0.86838 0.91502 0.0
O104 O 0.33379 0.92016 0.9406 0.0
C105 C 0.24368 0.82378 0.8756 0.0
C106 C 0.13051 0.65017 0.92699 0.0
C107 C 0.27817 0.90158 0.95144 0.0
O108 O 0.20259 0.78436 0.89383 0.0
O109 O 0.30512 0.85628 0.87976 0.0
O110 O 0.24456 0.73463 0.96691 0.0
O111 O 0.30299 0.78186 0.92945 0.0
Co112 Co 0.44364 0.18741 0.26728 0.0
O113 O 0.50636 0.16335 0.25468 0.0
O114 O 0.41037 0.09314 0.27156 0.0
C115 C 0.51882 0.27301 0.29185 0.0
O116 O 0.36847 0.19883 0.28338 0.0
Co117 Co 0.46914 0.32775 0.25128 0.0
O118 O 0.39322 0.30306 0.27538 0.0
C119 C 0.41299 0.2199 0.2097 0.0
C120 C 0.46681 0.10421 0.26229 0.0
C121 C 0.35596 0.24625 0.28515 0.0
O122 O 0.40773 0.17723 0.22799 0.0
O123 O 0.44029 0.28099 0.21477 0.0
O124 O 0.48975 0.21552 0.30329 0.0
O125 O 0.50341 0.2758 0.2662 0.0
Co126 Co 0.26543 0.45242 0.59876 0.0
O127 O 0.35265 0.5115 0.58547 0.0
O128 O 0.32367 0.41645 0.60455 0.0
C129 C 0.25837 0.53165 0.62151 0.0
O130 O 0.17814 0.38097 0.6159 0.0
Co131 Co 0.15377 0.48141 0.58127 0.0
O132 O 0.10102 0.40822 0.60657 0.0
C133 C 0.1982 0.41404 0.54205 0.0
C134 C 0.37022 0.47106 0.59428 0.0
C135 C 0.11903 0.37062 0.61746 0.0
O136 O 0.2377 0.41209 0.56021 0.0
O137 O 0.16605 0.44346 0.54611 0.0
O138 O 0.28547 0.50219 0.63379 0.0
O139 O 0.23981 0.51461 0.59601 0.0
Co140 Co 0.84824 0.26644 0.93258 0.0
O141 O 0.87515 0.35391 0.91978 0.0
O142 O 0.94296 0.32394 0.93595 0.0
C143 C 0.76625 0.2603 0.95834 0.0
O144 O 0.83413 0.17883 0.94879 0.0
Co145 Co 0.70523 0.15552 0.91837 0.0
O146 O 0.7281 0.10288 0.94265 0.0
C147 C 0.81031 0.19897 0.87583 0.0
C148 C 0.93404 0.37095 0.92684 0.0
C149 C 0.78511 0.12019 0.95152 0.0
O150 O 0.85453 0.23821 0.89316 0.0
O151 O 0.74962 0.1672 0.88161 0.0
O152 O 0.82441 0.28719 0.96895 0.0
O153 O 0.76066 0.24171 0.93259 0.0
Co154 Co 0.56581 0.81964 0.26459 0.0
O155 O 0.50884 0.84989 0.25059 0.0
O156 O 0.60311 0.91396 0.27059 0.0
C157 C 0.48447 0.73436 0.28682 0.0
O158 O 0.6352 0.80154 0.28246 0.0
Co159 Co 0.5344 0.67795 0.24745 0.0
O160 O 0.60617 0.69656 0.27337 0.0
C161 C 0.60765 0.79005 0.20885 0.0
C162 C 0.54939 0.90731 0.25988 0.0
C163 C 0.64435 0.75195 0.28422 0.0
O164 O 0.60804 0.83168 0.22652 0.0
O165 O 0.57729 0.72847 0.21289 0.0
O166 O 0.51454 0.79075 0.29917 0.0
O167 O 0.50221 0.73234 0.26149 0.0
C168 C 0.27045 0.94871 -0.00291 0.0
C169 C 0.27407 0.953 0.9676 0.0
C170 C 0.2997 1.0054 0.01377 0.0
C171 C 0.33358 0.06814 0.00153 0.0
H172 H 0.25273 0.90193 0.0073 0.0
H173 H 0.30268 0.99987 0.03631 0.0
S174 S 0.34307 0.10499 0.92538 0.0
N175 N 0.30279 0.02457 0.92696 0.0
N176 N 0.35825 0.13069 0.95837 0.0
C177 C 0.32898 0.07289 0.97231 0.0
C178 C 0.29906 0.01527 0.95532 0.0
C179 C 0.26839 0.26349 0.34617 0.0
C180 C 0.24101 0.29841 0.33356 0.0
C181 C 0.29675 0.23463 0.32982 0.0
C182 C 0.29843 0.23971 0.30034 0.0
H183 H 0.27568 0.26599 0.36879 0.0
H184 H 0.3251 0.21653 0.3404 0.0
S185 S 0.21929 0.31125 0.25711 0.0
N186 N 0.20647 0.32512 0.28996 0.0
N187 N 0.25869 0.27025 0.25918 0.0
C188 C 0.26201 0.26514 0.28759 0.0
C189 C 0.23345 0.29471 0.30424 0.0
C190 C 0.94801 0.25189 0.63751 0.0
C191 C 0.95175 0.25703 0.66698 0.0
C192 C 1.00489 0.28051 0.62103 0.0
C193 C 0.06727 0.31521 0.63346 0.0
H194 H 0.90146 0.2334 0.62705 0.0
H195 H 0.99977 0.28236 0.59839 0.0
S196 S 0.10271 0.32938 0.70986 0.0
N197 N 0.02247 0.28859 0.70799 0.0
N198 N 0.12894 0.3427 0.67695 0.0
C199 C 0.07151 0.31231 0.66281 0.0
C200 C 1.01369 0.28312 0.6796 0.0
C201 C 0.76809 0.01404 0.01223 0.0
C202 C 0.73249 0.95186 -0.00037 0.0
C203 C 0.79664 0.07129 -0.00409 0.0
C204 C 0.79044 0.06809 0.96645 0.0
H205 H 0.76669 0.01879 0.0349 0.0
H206 H 0.81568 0.11777 0.00655 0.0
S207 S 0.71495 0.9176 0.92312 0.0
N208 N 0.70276 0.89081 0.95595 0.0
N209 N 0.75674 0.99792 0.92522 0.0
C210 C 0.76353 1.00623 0.95361 0.0
C211 C 0.73443 0.94808 0.97023 0.0
C212 C 0.70116 0.76112 0.32959 0.0
C213 C 0.69947 0.75475 0.30016 0.0
C214 C 0.72972 0.73316 0.34642 0.0
C215 C 0.75756 0.69811 0.33438 0.0
H216 H 0.67338 0.78031 0.33978 0.0
H217 H 0.72311 0.73229 0.36905 0.0
S218 S 0.7772 0.67987 0.25819 0.0
N219 N 0.73784 0.72097 0.25956 0.0
N220 N 0.79078 0.66821 0.29126 0.0
C221 C 0.76402 0.69945 0.30502 0.0
C222 C 0.73502 0.72784 0.28789 0.0
C223 C 0.94838 0.72033 0.66435 0.0
C224 C 0.95185 0.71873 0.63487 0.0
C225 C 1.00546 0.74906 0.68075 0.0
C226 C 0.06771 0.77681 0.66821 0.0
H227 H 0.90203 0.69186 0.67488 0.0
H228 H 1.00064 0.74189 0.70337 0.0
S229 S 0.10229 0.79825 0.59178 0.0
N230 N 0.02207 0.75851 0.59378 0.0
N231 N 0.12886 0.81135 0.62465 0.0
C232 C 0.07157 0.78418 0.63888 0.0
C233 C 1.01358 0.75526 0.62218 0.0
C234 C 0.65933 0.25441 0.95753 0.0
C235 C 0.71051 0.25628 0.9733 0.0
C236 C 0.60726 0.25506 0.97082 0.0
C237 C 0.60412 0.25609 0.00027 0.0
H238 H 0.6603 0.25429 0.93469 0.0
H239 H 0.56939 0.25493 0.95798 0.0
S240 S 0.72439 0.25825 0.05105 0.0
N241 N 0.75437 0.25766 0.01972 0.0
N242 N 0.65537 0.25729 0.04499 0.0
C243 C 0.65403 0.25607 0.01634 0.0
C244 C 0.70769 0.25666 0.00275 0.0
C245 C 0.3766 0.61891 0.34285 0.0
C246 C 0.32626 0.56902 0.32699 0.0
C247 C 0.42811 0.67228 0.32965 0.0
C248 C 0.43155 0.67661 0.3002 0.0
H249 H 0.37532 0.61779 0.36568 0.0
H250 H 0.46529 0.7104 0.34258 0.0
S251 S 0.31366 0.55681 0.24923 0.0
N252 N 0.28363 0.52594 0.28052 0.0
N253 N 0.38164 0.62582 0.25539 0.0
C254 C 0.38255 0.62605 0.28404 0.0
C255 C 0.32942 0.57227 0.29755 0.0
C256 C 0.76425 0.38629 0.67931 0.0
C257 C 0.76309 0.33587 0.66317 0.0
C258 C 0.76456 0.43936 0.66638 0.0
C259 C 0.76528 0.44423 0.63695 0.0
H260 H 0.76316 0.38397 0.70213 0.0
H261 H 0.76412 0.47663 0.67946 0.0
S262 S 0.76539 0.32623 0.58536 0.0
N263 N 0.7641 0.29444 0.61648 0.0
N264 N 0.76625 0.39513 0.59189 0.0
C265 C 0.76586 0.39493 0.62055 0.0
C266 C 0.76429 0.34032 0.63376 0.0
C267 C 0.3619 0.76457 -0.00241 0.0
C268 C 0.35879 0.76668 0.96816 0.0
C269 C 0.41461 0.76484 0.01072 0.0
C270 C 0.46504 0.76575 -0.00522 0.0
H271 H 0.32326 0.76236 0.01056 0.0
H272 H 0.41485 0.76243 0.03353 0.0
S273 S 0.48072 0.77352 0.9171 0.0
N274 N 0.41151 0.77205 0.92332 0.0
N275 N 0.51015 0.77094 0.94832 0.0
C276 C 0.46308 0.76871 0.96538 0.0
C277 C 0.40999 0.76971 0.95196 0.0
C278 C 0.57919 0.33059 0.33503 0.0
C279 C 0.57174 0.33023 0.30571 0.0
C280 C 0.63235 0.38241 0.3483 0.0
C281 C 0.68026 0.4345 0.33254 0.0
H282 H 0.54421 0.29032 0.34776 0.0
H283 H 0.63705 0.3806 0.37096 0.0
S284 S 0.68153 0.45874 0.25546 0.0
N285 N 0.61499 0.38835 0.26138 0.0
N286 N 0.71582 0.48492 0.2866 0.0
C287 C 0.67282 0.43563 0.30335 0.0
C288 C 0.61812 0.38361 0.28984 0.0
C289 C 0.25259 0.58825 0.66438 0.0
C290 C 0.25252 0.58411 0.63493 0.0
C291 C 0.25078 0.64001 0.67752 0.0
C292 C 0.25034 0.68987 0.66156 0.0
H293 H 0.25453 0.55158 0.67735 0.0
H294 H 0.25202 0.64208 0.70034 0.0
S295 S 0.24696 0.70008 0.5838 0.0
N296 N 0.24899 0.63253 0.59006 0.0
N297 N 0.2472 0.7309 0.61505 0.0
C298 C 0.24895 0.68573 0.63214 0.0
C299 C 0.24956 0.6324 0.61872 0.0
C300 C 0.39852 0.24114 0.1324 0.0
C301 C 0.40421 0.18945 0.12124 0.0
C302 C 0.39323 0.24644 0.16142 0.0
C303 C 0.39424 0.20063 0.18014 0.0
H304 H 0.4042 0.28081 0.11907 0.0
H305 H 0.39423 0.28988 0.16929 0.0
S306 S 0.38563 0.04514 0.16035 0.0
N307 N 0.3926 0.08267 0.13014 0.0
N308 N 0.38491 0.09401 0.18497 0.0
C309 C 0.38958 0.1437 0.16891 0.0
C310 C 0.39422 0.13791 0.13929 0.0
C311 C 0.2576 0.39344 0.47233 0.0
C312 C 0.20906 0.39065 0.45415 0.0
C313 C 0.25078 0.39298 0.50153 0.0
C314 C 0.19498 0.38915 0.51339 0.0
H315 H 0.30364 0.40153 0.46411 0.0
H316 H 0.29197 0.4022 0.51462 0.0
S317 S 0.04504 0.35759 0.47546 0.0
N318 N 0.09717 0.36747 0.45028 0.0
N319 N 0.08364 0.36494 0.50541 0.0
C320 C 0.14201 0.37548 0.49564 0.0
C321 C 0.14917 0.3766 0.46586 0.0
C322 C 0.8784 0.25173 0.83386 0.0
C323 C 0.82739 0.1961 0.84629 0.0
C324 C 0.88073 0.25967 0.80468 0.0
C325 C 0.83184 0.21247 0.78711 0.0
H326 H 0.91291 0.2921 0.8467 0.0
H327 H 0.91824 0.30562 0.79618 0.0
S328 S 0.70136 0.04884 0.80919 0.0
N329 N 0.7374 0.08585 0.83882 0.0
N330 N 0.74084 0.10163 0.78379 0.0
C331 C 0.78668 0.1525 0.79901 0.0
C332 C 0.78471 0.14416 0.82875 0.0
C333 C 0.64103 0.87377 0.13928 0.0
C334 C 0.64295 0.82697 0.12146 0.0
C335 C 0.63735 0.86606 0.16849 0.0
C336 C 0.63629 0.81175 0.1807 0.0
H337 H 0.63629 0.91354 0.13062 0.0
H338 H 0.62872 0.89912 0.18113 0.0
S339 S 0.66525 0.6897 0.14426 0.0
N340 N 0.661 0.73459 0.11863 0.0
N341 N 0.65624 0.72118 0.17381 0.0
C342 C 0.6498 0.7713 0.16355 0.0
C343 C 0.65274 0.77869 0.13375 0.0
C344 C 0.8738 0.63593 0.49606 0.0
C345 C 0.82615 0.63483 0.51424 0.0
C346 C 0.86576 0.63335 0.46689 0.0
C347 C 0.81027 0.63045 0.45509 0.0
H348 H 0.91458 0.63255 0.50435 0.0
H349 H 0.89976 0.62702 0.45389 0.0
S350 S 0.68526 0.65215 0.49289 0.0
N351 N 0.73143 0.6486 0.51808 0.0
N352 N 0.71733 0.64602 0.46297 0.0
C353 C 0.76873 0.64126 0.47273 0.0
C354 C 0.77648 0.64306 0.50249 0.0
C355 C 0.26642 0.8758 0.82838 0.0
C356 C 0.22154 0.82834 0.84709 0.0
C357 C 0.25587 0.86996 0.79936 0.0
C358 C 0.19985 0.81676 0.78824 0.0
H359 H 0.31269 0.91484 0.83588 0.0
H360 H 0.29464 0.90364 0.78565 0.0
S361 S 0.05742 0.69318 0.82859 0.0
N362 N 0.11205 0.73631 0.85285 0.0
N363 N 0.0913 0.72622 0.7981 0.0
C364 C 0.14997 0.77543 0.80688 0.0
C365 C 0.16097 0.78101 0.83646 0.0
C366 C 0.48829 0.53163 0.04294 0.0
C367 C 0.5549 0.58001 0.04194 0.0
C368 C 0.46772 0.46445 0.04267 0.0
C369 C 0.51287 0.44249 0.04205 0.0
H370 H 0.45131 0.54569 0.04353 0.0
H371 H 0.41613 0.42956 0.0433 0.0
S372 S 0.69291 0.5485 0.0389 0.0
N373 N 0.66559 0.60038 0.03974 0.0
N374 N 0.62783 0.4752 0.03994 0.0
C375 C 0.57967 0.49038 0.04114 0.0
C376 C 0.60043 0.55866 0.04089 0.0
C377 C 0.94235 0.46194 0.37862 0.0
C378 C 0.96013 0.52837 0.37599 0.0
C379 C 0.9888 0.44129 0.37776 0.0
C380 C 0.05544 0.48626 0.37486 0.0
H381 H 0.89169 0.42506 0.38096 0.0
H382 H 0.97239 0.38981 0.3797 0.0
S383 S 0.12822 0.66568 0.36679 0.0
N384 N 0.04948 0.63862 0.36981 0.0
N385 N 0.13678 0.60076 0.36889 0.0
C386 C 0.07398 0.55289 0.37233 0.0
C387 C 0.0265 0.57367 0.3727 0.0
C388 C 0.53139 0.07654 0.70993 0.0
C389 C 0.57968 0.05817 0.70806 0.0
C390 C 0.46437 0.03027 0.70919 0.0
C391 C 0.4424 0.96328 0.70717 0.0
H392 H 0.5454 0.12749 0.71157 0.0
H393 H 0.42959 0.04714 0.71054 0.0
S394 S 0.54813 0.88894 0.70136 0.0
N395 N 0.59999 0.96789 0.70357 0.0
N396 N 0.47496 0.88096 0.70286 0.0
C397 C 0.49016 0.94417 0.70539 0.0
C398 C 0.55836 0.99144 0.70564 0.0
C399 C 0.55609 0.57806 0.59276 0.0
C400 C 0.57833 0.53322 0.5948 0.0
C401 C 0.48897 0.55709 0.59222 0.0
C402 C 0.44092 0.49046 0.59435 0.0
H403 H 0.59072 0.62966 0.59116 0.0
H404 H 0.47469 0.59383 0.59045 0.0
S405 S 0.47334 0.35337 0.60143 0.0
N406 N 0.54635 0.41863 0.59955 0.0
N407 N 0.42119 0.38016 0.59927 0.0
C408 C 0.46255 0.44529 0.59691 0.0
C409 C 0.53081 0.46641 0.59692 0.0
C410 C 1.01382 0.55726 0.92582 0.0
C411 C 0.08074 0.57898 0.92702 0.0
C412 C 0.96738 0.49016 0.92528 0.0
C413 C 0.98556 0.44161 0.92655 0.0
H414 H 0.99717 0.59229 0.9249 0.0
H415 H 0.91648 0.4763 0.92423 0.0
S416 S 0.15462 0.47257 0.9312 0.0
N417 N 0.1628 0.54597 0.93003 0.0
N418 N 0.07565 0.42085 0.92971 0.0
C419 C 0.05225 0.46273 0.92821 0.0
C420 C 0.09963 0.53096 0.92824 0.0
C421 C 0.46426 0.94135 0.25756 0.0
C422 C 0.53054 0.95914 0.26033 0.0
C423 C 0.44358 0.9878 0.25866 0.0
C424 C 0.48838 0.05447 0.26194 0.0
H425 H 0.42752 0.89067 0.25487 0.0
H426 H 0.39223 0.97141 0.2565 0.0
S427 S 0.66731 0.12729 0.27064 0.0
N428 N 0.64045 0.04852 0.26718 0.0
N429 N 0.60249 0.13586 0.2685 0.0
C430 C 0.55484 0.07303 0.26469 0.0
C431 C 0.57566 0.02552 0.2641 0.0
loop_
_geom_bond_atom_site_label_1
_geom_bond_atom_site_label_2
_geom_bond_distance
_geom_bond_site_symmetry_2
_ccdc_geom_bond_type
Co0 O1 2.216 . S
Co0 O2 2.091 . S
Co0 O4 2.004 . S
Co0 O10 2.021 . S
Co0 O12 2.137 . S
Co0 O13 2.244 . S
O1 Co0 2.216 . S
O1 C8 1.247 . S
O2 Co0 2.091 . S
O2 C8 1.261 . S
C3 O12 1.247 . S
C3 O13 1.272 . S
O4 Co0 2.004 . S
O4 C9 1.259 . S
Co5 O6 2.061 . S
Co5 O11 2.052 . S
Co5 O13 2.135 . S
O6 Co5 2.061 . S
O6 C9 1.235 . S
C7 O10 1.238 . S
C7 O11 1.241 . S
C8 O1 1.247 . S
C8 O2 1.261 . S
C9 O4 1.259 . S
C9 O6 1.235 . S
O10 Co0 2.021 . S
O10 C7 1.238 . S
O11 Co5 2.052 . S
O11 C7 1.241 . S
O12 Co0 2.137 . S
O12 C3 1.247 . S
O13 Co0 2.244 . S
O13 C3 1.272 . S
O13 Co5 2.135 . S
Co14 O15 2.216 . S
Co14 O16 2.091 . S
Co14 O18 2.004 . S
Co14 O24 2.021 . S
Co14 O26 2.137 . S
Co14 O27 2.244 . S
O15 Co14 2.216 . S
O15 C22 1.247 . S
O16 Co14 2.091 . S
O16 C22 1.261 . S
C17 O26 1.247 . S
C17 O27 1.272 . S
O18 Co14 2.004 . S
O18 C23 1.259 . S
Co19 O20 2.061 . S
Co19 O25 2.052 . S
Co19 O27 2.135 . S
O20 Co19 2.061 . S
O20 C23 1.235 . S
C21 O24 1.238 . S
C21 O25 1.241 . S
C22 O15 1.247 . S
C22 O16 1.261 . S
C23 O18 1.259 . S
C23 O20 1.235 . S
O24 Co14 2.021 . S
O24 C21 1.238 . S
O25 Co19 2.052 . S
O25 C21 1.241 . S
O26 Co14 2.137 . S
O26 C17 1.247 . S
O27 Co14 2.244 . S
O27 C17 1.272 . S
O27 Co19 2.135 . S
Co28 O29 2.216 . S
Co28 O30 2.091 . S
Co28 O32 2.004 . S
Co28 O38 2.021 . S
Co28 O40 2.137 . S
Co28 O41 2.244 . S
O29 Co28 2.216 . S
O29 C36 1.247 . S
O30 Co28 2.091 . S
O30 C36 1.261 . S
C31 O40 1.247 . S
C31 O41 1.272 . S
O32 Co28 2.004 . S
O32 C37 1.259 . S
Co33 O34 2.061 . S
Co33 O39 2.052 . S
Co33 O41 2.135 . S
O34 Co33 2.061 . S
O34 C37 1.235 . S
C35 O38 1.238 . S
C35 O39 1.241 . S
C36 O29 1.247 . S
C36 O30 1.261 . S
C37 O32 1.259 . S
C37 O34 1.235 . S
O38 Co28 2.021 . S
O38 C35 1.238 . S
O39 Co33 2.052 . S
O39 C35 1.241 . S
O40 Co28 2.137 . S
O40 C31 1.247 . S
O41 Co28 2.244 . S
O41 C31 1.272 . S
O41 Co33 2.135 . S
Co42 O43 2.216 . S
Co42 O44 2.091 . S
Co42 O46 2.004 . S
Co42 O52 2.021 . S
Co42 O54 2.137 . S
Co42 O55 2.244 . S
O43 Co42 2.216 . S
O43 C50 1.247 . S
O44 Co42 2.091 . S
O44 C50 1.261 . S
C45 O54 1.247 . S
C45 O55 1.272 . S
O46 Co42 2.004 . S
O46 C51 1.259 . S
Co47 O48 2.061 . S
Co47 O53 2.052 . S
Co47 O55 2.135 . S
O48 Co47 2.061 . S
O48 C51 1.235 . S
C49 O52 1.238 . S
C49 O53 1.241 . S
C50 O43 1.247 . S
C50 O44 1.261 . S
C51 O46 1.259 . S
C51 O48 1.235 . S
O52 Co42 2.021 . S
O52 C49 1.238 . S
O53 Co47 2.052 . S
O53 C49 1.241 . S
O54 Co42 2.137 . S
O54 C45 1.247 . S
O55 Co42 2.244 . S
O55 C45 1.272 . S
O55 Co47 2.135 . S
Co56 O57 2.216 . S
Co56 O58 2.091 . S
Co56 O60 2.004 . S
Co56 O66 2.021 . S
Co56 O68 2.137 . S
Co56 O69 2.244 . S
O57 Co56 2.216 . S
O57 C64 1.247 . S
O58 Co56 2.091 . S
O58 C64 1.261 . S
C59 O68 1.247 . S
C59 O69 1.272 . S
O60 Co56 2.004 . S
O60 C65 1.259 . S
Co61 O62 2.061 . S
Co61 O67 2.052 . S
Co61 O69 2.135 . S
O62 Co61 2.061 . S
O62 C65 1.235 . S
C63 O66 1.238 . S
C63 O67 1.241 . S
C64 O57 1.247 . S
C64 O58 1.261 . S
C65 O60 1.259 . S
C65 O62 1.235 . S
O66 Co56 2.021 . S
O66 C63 1.238 . S
O67 Co61 2.052 . S
O67 C63 1.241 . S
O68 Co56 2.137 . S
O68 C59 1.247 . S
O69 Co56 2.244 . S
O69 C59 1.272 . S
O69 Co61 2.135 . S
Co70 O71 2.216 . S
Co70 O72 2.091 . S
Co70 O74 2.004 . S
Co70 O80 2.021 . S
Co70 O82 2.137 . S
Co70 O83 2.244 . S
O71 Co70 2.216 . S
O71 C78 1.247 . S
O72 Co70 2.091 . S
O72 C78 1.261 . S
C73 O82 1.247 . S
C73 O83 1.272 . S
O74 Co70 2.004 . S
O74 C79 1.259 . S
Co75 O76 2.061 . S
Co75 O81 2.052 . S
Co75 O83 2.135 . S
O76 Co75 2.061 . S
O76 C79 1.235 . S
C77 O80 1.238 . S
C77 O81 1.241 . S
C78 O71 1.247 . S
C78 O72 1.261 . S
C79 O74 1.259 . S
C79 O76 1.235 . S
O80 Co70 2.021 . S
O80 C77 1.238 . S
O81 Co75 2.052 . S
O81 C77 1.241 . S
O82 Co70 2.137 . S
O82 C73 1.247 . S
O83 Co70 2.244 . S
O83 C73 1.272 . S
O83 Co75 2.135 . S
Co84 O85 2.216 . S
Co84 O86 2.091 . S
Co84 O88 2.004 . S
Co84 O94 2.021 . S
Co84 O96 2.137 . S
Co84 O97 2.244 . S
O85 Co84 2.216 . S
O85 C92 1.247 . S
O86 Co84 2.091 . S
O86 C92 1.261 . S
C87 O96 1.247 . S
C87 O97 1.272 . S
O88 Co84 2.004 . S
O88 C93 1.259 . S
Co89 O90 2.061 . S
Co89 O95 2.052 . S
Co89 O97 2.135 . S
O90 Co89 2.061 . S
O90 C93 1.235 . S
C91 O94 1.238 . S
C91 O95 1.241 . S
C92 O85 1.247 . S
C92 O86 1.261 . S
C93 O88 1.259 . S
C93 O90 1.235 . S
O94 Co84 2.021 . S
O94 C91 1.238 . S
O95 Co89 2.052 . S
O95 C91 1.241 . S
O96 Co84 2.137 . S
O96 C87 1.247 . S
O97 Co84 2.244 . S
O97 C87 1.272 . S
O97 Co89 2.135 . S
Co98 O99 2.216 . S
Co98 O100 2.091 . S
Co98 O102 2.004 . S
Co98 O108 2.021 . S
Co98 O110 2.137 . S
Co98 O111 2.244 . S
O99 Co98 2.216 . S
O99 C106 1.247 . S
O100 Co98 2.091 . S
O100 C106 1.261 . S
C101 O110 1.247 . S
C101 O111 1.272 . S
O102 Co98 2.004 . S
O102 C107 1.259 . S
Co103 O104 2.061 . S
Co103 O109 2.052 . S
Co103 O111 2.135 . S
O104 Co103 2.061 . S
O104 C107 1.235 . S
C105 O108 1.238 . S
C105 O109 1.241 . S
C106 O99 1.247 . S
C106 O100 1.261 . S
C107 O102 1.259 . S
C107 O104 1.235 . S
O108 Co98 2.021 . S
O108 C105 1.238 . S
O109 Co103 2.052 . S
O109 C105 1.241 . S
O110 Co98 2.137 . S
O110 C101 1.247 . S
O111 Co98 2.244 . S
O111 C101 1.272 . S
O111 Co103 2.135 . S
Co112 O113 2.216 . S
Co112 O114 2.091 . S
Co112 O116 2.004 . S
Co112 O122 2.021 . S
Co112 O124 2.137 . S
Co112 O125 2.244 . S
O113 Co112 2.216 . S
O113 C120 1.247 . S
O114 Co112 2.091 . S
O114 C120 1.261 . S
C115 O124 1.247 . S
C115 O125 1.272 . S
O116 Co112 2.004 . S
O116 C121 1.259 . S
Co117 O118 2.061 . S
Co117 O123 2.052 . S
Co117 O125 2.135 . S
O118 Co117 2.061 . S
O118 C121 1.235 . S
C119 O122 1.238 . S
C119 O123 1.241 . S
C120 O113 1.247 . S
C120 O114 1.261 . S
C121 O116 1.259 . S
C121 O118 1.235 . S
O122 Co112 2.021 . S
O122 C119 1.238 . S
O123 Co117 2.052 . S
O123 C119 1.241 . S
O124 Co112 2.137 . S
O124 C115 1.247 . S
O125 Co112 2.244 . S
O125 C115 1.272 . S
O125 Co117 2.135 . S
Co126 O127 2.216 . S
Co126 O128 2.091 . S
Co126 O130 2.004 . S
Co126 O136 2.021 . S
Co126 O138 2.137 . S
Co126 O139 2.244 . S
O127 Co126 2.216 . S
O127 C134 1.247 . S
O128 Co126 2.091 . S
O128 C134 1.261 . S
C129 O138 1.247 . S
C129 O139 1.272 . S
O130 Co126 2.004 . S
O130 C135 1.259 . S
Co131 O132 2.061 . S
Co131 O137 2.052 . S
Co131 O139 2.135 . S
O132 Co131 2.061 . S
O132 C135 1.235 . S
C133 O136 1.238 . S
C133 O137 1.241 . S
C134 O127 1.247 . S
C134 O128 1.261 . S
C135 O130 1.259 . S
C135 O132 1.235 . S
O136 Co126 2.021 . S
O136 C133 1.238 . S
O137 Co131 2.052 . S
O137 C133 1.241 . S
O138 Co126 2.137 . S
O138 C129 1.247 . S
O139 Co126 2.244 . S
O139 C129 1.272 . S
O139 Co131 2.135 . S
Co140 O141 2.216 . S
Co140 O142 2.091 . S
Co140 O144 2.004 . S
Co140 O150 2.021 . S
Co140 O152 2.137 . S
Co140 O153 2.244 . S
O141 Co140 2.216 . S
O141 C148 1.247 . S
O142 Co140 2.091 . S
O142 C148 1.261 . S
C143 O152 1.247 . S
C143 O153 1.272 . S
O144 Co140 2.004 . S
O144 C149 1.259 . S
Co145 O146 2.061 . S
Co145 O151 2.052 . S
Co145 O153 2.135 . S
O146 Co145 2.061 . S
O146 C149 1.235 . S
C147 O150 1.238 . S
C147 O151 1.241 . S
C148 O141 1.247 . S
C148 O142 1.261 . S
C149 O144 1.259 . S
C149 O146 1.235 . S
O150 Co140 2.021 . S
O150 C147 1.238 . S
O151 Co145 2.052 . S
O151 C147 1.241 . S
O152 Co140 2.137 . S
O152 C143 1.247 . S
O153 Co140 2.244 . S
O153 C143 1.272 . S
O153 Co145 2.135 . S
Co154 O155 2.216 . S
Co154 O156 2.091 . S
Co154 O158 2.004 . S
Co154 O164 2.021 . S
Co154 O166 2.137 . S
Co154 O167 2.244 . S
O155 Co154 2.216 . S
O155 C162 1.247 . S
O156 Co154 2.091 . S
O156 C162 1.261 . S
C157 O166 1.247 . S
C157 O167 1.272 . S
O158 Co154 2.004 . S
O158 C163 1.259 . S
Co159 O160 2.061 . S
Co159 O165 2.052 . S
Co159 O167 2.135 . S
O160 Co159 2.061 . S
O160 C163 1.235 . S
C161 O164 1.238 . S
C161 O165 1.241 . S
C162 O155 1.247 . S
C162 O156 1.261 . S
C163 O158 1.259 . S
C163 O160 1.235 . S
O164 Co154 2.021 . S
O164 C161 1.238 . S
O165 Co159 2.052 . S
O165 C161 1.241 . S
O166 Co154 2.137 . S
O166 C157 1.247 . S
O167 Co154 2.244 . S
O167 C157 1.272 . S
O167 Co159 2.135 . S
C168 C169 1.365 1_554 S
C168 C170 1.422 1_565 S
C168 H172 0.930 . S
C169 C168 1.365 1_556 S
C169 C178 1.429 . S
C170 C168 1.422 1_545 S
C170 C171 1.363 . S
C170 H173 0.929 . S
C171 C170 1.363 . S
C171 C177 1.422 1_554 S
H172 C168 0.930 . S
H173 C170 0.929 . S
S174 N175 1.613 1_545 S
S174 N176 1.610 . S
N175 S174 1.613 1_565 S
N175 C178 1.350 . S
N176 S174 1.610 . S
N176 C177 1.352 . S
C177 C171 1.422 1_556 S
C177 N176 1.352 . S
C177 C178 1.440 1_545 S
C178 C169 1.429 . S
C178 N175 1.350 . S
C178 C177 1.440 1_565 S
C179 C180 1.369 . S
C179 C181 1.419 . S
C179 H183 0.930 . S
C180 C179 1.369 . S
C180 C189 1.429 . S
C181 C179 1.419 . S
C181 C182 1.363 . S
C181 H184 0.929 . S
C182 C181 1.363 . S
C182 C188 1.428 . S
H183 C179 0.930 . S
H184 C181 0.929 . S
S185 N186 1.613 . S
S185 N187 1.610 . S
N186 S185 1.613 . S
N186 C189 1.350 . S
N187 S185 1.610 . S
N187 C188 1.351 . S
C188 C182 1.428 . S
C188 N187 1.351 . S
C188 C189 1.434 . S
C189 C180 1.429 . S
C189 N186 1.350 . S
C189 C188 1.434 . S
C190 C191 1.369 . S
C190 C192 1.419 1_655 S
C190 H194 0.930 . S
C191 C190 1.369 . S
C191 C200 1.429 . S
C192 C190 1.419 1_455 S
C192 C193 1.363 . S
C192 H195 0.929 . S
C193 C192 1.363 . S
C193 C199 1.428 . S
H194 C190 0.930 . S
H195 C192 0.929 . S
S196 N197 1.613 1_455 S
S196 N198 1.610 . S
N197 S196 1.613 1_655 S
N197 C200 1.350 . S
N198 S196 1.610 . S
N198 C199 1.351 . S
C199 C193 1.428 . S
C199 N198 1.351 . S
C199 C200 1.434 1_455 S
C200 C191 1.429 . S
C200 N197 1.350 . S
C200 C199 1.434 1_655 S
C201 C202 1.369 . S
C201 C203 1.419 1_565 S
C201 H205 0.930 . S
C202 C201 1.369 . S
C202 C211 1.429 1_554 S
C203 C201 1.419 1_545 S
C203 C204 1.363 1_554 S
C203 H206 0.929 . S
C204 C203 1.363 1_556 S
C204 C210 1.428 . S
H205 C201 0.930 . S
H206 C203 0.929 . S
S207 N208 1.613 . S
S207 N209 1.610 1_565 S
N208 S207 1.613 . S
N208 C211 1.350 . S
N209 S207 1.610 1_545 S
N209 C210 1.351 . S
C210 C204 1.428 . S
C210 N209 1.351 . S
C210 C211 1.434 1_545 S
C211 C202 1.429 1_556 S
C211 N208 1.350 . S
C211 C210 1.434 1_565 S
C212 C213 1.369 . S
C212 C214 1.419 . S
C212 H216 0.930 . S
C213 C212 1.369 . S
C213 C222 1.429 . S
C214 C212 1.419 . S
C214 C215 1.363 . S
C214 H217 0.929 . S
C215 C214 1.363 . S
C215 C221 1.428 . S
H216 C212 0.930 . S
H217 C214 0.929 . S
S218 N219 1.613 . S
S218 N220 1.610 . S
N219 S218 1.613 . S
N219 C222 1.350 . S
N220 S218 1.610 . S
N220 C221 1.351 . S
C221 C215 1.428 . S
C221 N220 1.351 . S
C221 C222 1.434 . S
C222 C213 1.429 . S
C222 N219 1.350 . S
C222 C221 1.434 . S
C223 C224 1.369 . S
C223 C225 1.419 1_655 S
C223 H227 0.930 . S
C224 C223 1.369 . S
C224 C233 1.429 . S
C225 C223 1.419 1_455 S
C225 C226 1.363 . S
C225 H228 0.929 . S
C226 C225 1.363 . S
C226 C232 1.428 . S
H227 C223 0.930 . S
H228 C225 0.929 . S
S229 N230 1.613 1_455 S
S229 N231 1.610 . S
N230 S229 1.613 1_655 S
N230 C233 1.350 . S
N231 S229 1.610 . S
N231 C232 1.351 . S
C232 C226 1.428 . S
C232 N231 1.351 . S
C232 C233 1.434 1_455 S
C233 C224 1.429 . S
C233 N230 1.350 . S
C233 C232 1.434 1_655 S
C234 C235 1.369 . S
C234 C236 1.419 . S
C234 H238 0.930 . S
C235 C234 1.369 . S
C235 C244 1.429 1_556 S
C236 C234 1.419 . S
C236 C237 1.363 1_556 S
C236 H239 0.929 . S
C237 C236 1.363 1_554 S
C237 C243 1.428 . S
H238 C234 0.930 . S
H239 C236 0.929 . S
S240 N241 1.613 . S
S240 N242 1.610 . S
N241 S240 1.613 . S
N241 C244 1.350 . S
N242 S240 1.610 . S
N242 C243 1.351 . S
C243 C237 1.428 . S
C243 N242 1.351 . S
C243 C244 1.434 . S
C244 C235 1.429 1_554 S
C244 N241 1.350 . S
C244 C243 1.434 . S
C245 C246 1.369 . S
C245 C247 1.419 . S
C245 H249 0.930 . S
C246 C245 1.369 . S
C246 C255 1.429 . S
C247 C245 1.419 . S
C247 C248 1.363 . S
C247 H250 0.929 . S
C248 C247 1.363 . S
C248 C254 1.428 . S
H249 C245 0.930 . S
H250 C247 0.929 . S
S251 N252 1.613 . S
S251 N253 1.610 . S
N252 S251 1.613 . S
N252 C255 1.350 . S
N253 S251 1.610 . S
N253 C254 1.351 . S
C254 C248 1.428 . S
C254 N253 1.351 . S
C254 C255 1.434 . S
C255 C246 1.429 . S
C255 N252 1.350 . S
C255 C254 1.434 . S
C256 C257 1.369 . S
C256 C258 1.419 . S
C256 H260 0.930 . S
C257 C256 1.369 . S
C257 C266 1.429 . S
C258 C256 1.419 . S
C258 C259 1.363 . S
C258 H261 0.929 . S
C259 C258 1.363 . S
C259 C265 1.428 . S
H260 C256 0.930 . S
H261 C258 0.929 . S
S262 N263 1.613 . S
S262 N264 1.610 . S
N263 S262 1.613 . S
N263 C266 1.350 . S
N264 S262 1.610 . S
N264 C265 1.351 . S
C265 C259 1.428 . S
C265 N264 1.351 . S
C265 C266 1.434 . S
C266 C257 1.429 . S
C266 N263 1.350 . S
C266 C265 1.434 . S
C267 C268 1.369 1_554 S
C267 C269 1.419 . S
C267 H271 0.930 . S
C268 C267 1.369 1_556 S
C268 C277 1.429 . S
C269 C267 1.419 . S
C269 C270 1.363 . S
C269 H272 0.929 . S
C270 C269 1.363 . S
C270 C276 1.428 1_554 S
H271 C267 0.930 . S
H272 C269 0.929 . S
S273 N274 1.613 . S
S273 N275 1.610 . S
N274 S273 1.613 . S
N274 C277 1.350 . S
N275 S273 1.610 . S
N275 C276 1.351 . S
C276 C270 1.428 1_556 S
C276 N275 1.351 . S
C276 C277 1.434 . S
C277 C268 1.429 . S
C277 N274 1.350 . S
C277 C276 1.434 . S
C278 C279 1.369 . S
C278 C280 1.419 . S
C278 H282 0.930 . S
C279 C278 1.369 . S
C279 C288 1.429 . S
C280 C278 1.419 . S
C280 C281 1.363 . S
C280 H283 0.929 . S
C281 C280 1.363 . S
C281 C287 1.428 . S
H282 C278 0.930 . S
H283 C280 0.929 . S
S284 N285 1.613 . S
S284 N286 1.610 . S
N285 S284 1.613 . S
N285 C288 1.350 . S
N286 S284 1.610 . S
N286 C287 1.351 . S
C287 C281 1.428 . S
C287 N286 1.351 . S
C287 C288 1.434 . S
C288 C279 1.429 . S
C288 N285 1.350 . S
C288 C287 1.434 . S
C289 C290 1.369 . S
C289 C291 1.419 . S
C289 H293 0.930 . S
C290 C289 1.369 . S
C290 C299 1.429 . S
C291 C289 1.419 . S
C291 C292 1.363 . S
C291 H294 0.929 . S
C292 C291 1.363 . S
C292 C298 1.428 . S
H293 C289 0.930 . S
H294 C291 0.929 . S
S295 N296 1.613 . S
S295 N297 1.610 . S
N296 S295 1.613 . S
N296 C299 1.350 . S
N297 S295 1.610 . S
N297 C298 1.351 . S
C298 C292 1.428 . S
C298 N297 1.351 . S
C298 C299 1.434 . S
C299 C290 1.429 . S
C299 N296 1.350 . S
C299 C298 1.434 . S
C300 C301 1.369 . S
C300 C302 1.419 . S
C300 H304 0.930 . S
C301 C300 1.369 . S
C301 C310 1.429 . S
C302 C300 1.419 . S
C302 C303 1.363 . S
C302 H305 0.929 . S
C303 C302 1.363 . S
C303 C309 1.428 . S
H304 C300 0.930 . S
H305 C302 0.929 . S
S306 N307 1.613 . S
S306 N308 1.610 . S
N307 S306 1.613 . S
N307 C310 1.350 . S
N308 S306 1.610 . S
N308 C309 1.351 . S
C309 C303 1.428 . S
C309 N308 1.351 . S
C309 C310 1.434 . S
C310 C301 1.429 . S
C310 N307 1.350 . S
C310 C309 1.434 . S
C311 C312 1.369 . S
C311 C313 1.419 . S
C311 H315 0.930 . S
C312 C311 1.369 . S
C312 C321 1.429 . S
C313 C311 1.419 . S
C313 C314 1.363 . S
C313 H316 0.929 . S
C314 C313 1.363 . S
C314 C320 1.428 . S
H315 C311 0.930 . S
H316 C313 0.929 . S
S317 N318 1.613 . S
S317 N319 1.610 . S
N318 S317 1.613 . S
N318 C321 1.350 . S
N319 S317 1.610 . S
N319 C320 1.351 . S
C320 C314 1.428 . S
C320 N319 1.351 . S
C320 C321 1.434 . S
C321 C312 1.429 . S
C321 N318 1.350 . S
C321 C320 1.434 . S
C322 C323 1.369 . S
C322 C324 1.419 . S
C322 H326 0.930 . S
C323 C322 1.369 . S
C323 C332 1.429 . S
C324 C322 1.419 . S
C324 C325 1.363 . S
C324 H327 0.929 . S
C325 C324 1.363 . S
C325 C331 1.428 . S
H326 C322 0.930 . S
H327 C324 0.929 . S
S328 N329 1.613 . S
S328 N330 1.610 . S
N329 S328 1.613 . S
N329 C332 1.350 . S
N330 S328 1.610 . S
N330 C331 1.351 . S
C331 C325 1.428 . S
C331 N330 1.351 . S
C331 C332 1.434 . S
C332 C323 1.429 . S
C332 N329 1.350 . S
C332 C331 1.434 . S
C333 C334 1.369 . S
C333 C335 1.419 . S
C333 H337 0.930 . S
C334 C333 1.369 . S
C334 C343 1.429 . S
C335 C333 1.419 . S
C335 C336 1.363 . S
C335 H338 0.929 . S
C336 C335 1.363 . S
C336 C342 1.428 . S
H337 C333 0.930 . S
H338 C335 0.929 . S
S339 N340 1.613 . S
S339 N341 1.610 . S
N340 S339 1.613 . S
N340 C343 1.350 . S
N341 S339 1.610 . S
N341 C342 1.351 . S
C342 C336 1.428 . S
C342 N341 1.351 . S
C342 C343 1.434 . S
C343 C334 1.429 . S
C343 N340 1.350 . S
C343 C342 1.434 . S
C344 C345 1.369 . S
C344 C346 1.419 . S
C344 H348 0.930 . S
C345 C344 1.369 . S
C345 C354 1.429 . S
C346 C344 1.419 . S
C346 C347 1.363 . S
C346 H349 0.929 . S
C347 C346 1.363 . S
C347 C353 1.428 . S
H348 C344 0.930 . S
H349 C346 0.929 . S
S350 N351 1.613 . S
S350 N352 1.610 . S
N351 S350 1.613 . S
N351 C354 1.350 . S
N352 S350 1.610 . S
N352 C353 1.351 . S
C353 C347 1.428 . S
C353 N352 1.351 . S
C353 C354 1.434 . S
C354 C345 1.429 . S
C354 N351 1.350 . S
C354 C353 1.434 . S
C355 C356 1.369 . S
C355 C357 1.419 . S
C355 H359 0.930 . S
C356 C355 1.369 . S
C356 C365 1.429 . S
C357 C355 1.419 . S
C357 C358 1.363 . S
C357 H360 0.929 . S
C358 C357 1.363 . S
C358 C364 1.428 . S
H359 C355 0.930 . S
H360 C357 0.929 . S
S361 N362 1.613 . S
S361 N363 1.610 . S
N362 S361 1.613 . S
N362 C365 1.350 . S
N363 S361 1.610 . S
N363 C364 1.351 . S
C364 C358 1.428 . S
C364 N363 1.351 . S
C364 C365 1.434 . S
C365 C356 1.429 . S
C365 N362 1.350 . S
C365 C364 1.434 . S
C366 C367 1.369 . S
C366 C368 1.419 . S
C366 H370 0.930 . S
C367 C366 1.369 . S
C367 C376 1.429 . S
C368 C366 1.419 . S
C368 C369 1.363 . S
C368 H371 0.929 . S
C369 C368 1.363 . S
C369 C375 1.428 . S
H370 C366 0.930 . S
H371 C368 0.929 . S
S372 N373 1.613 . S
S372 N374 1.610 . S
N373 S372 1.613 . S
N373 C376 1.350 . S
N374 S372 1.610 . S
N374 C375 1.351 . S
C375 C369 1.428 . S
C375 N374 1.351 . S
C375 C376 1.434 . S
C376 C367 1.429 . S
C376 N373 1.350 . S
C376 C375 1.434 . S
C377 C378 1.369 . S
C377 C379 1.419 . S
C377 H381 0.930 . S
C378 C377 1.369 . S
C378 C387 1.429 1_655 S
C379 C377 1.419 . S
C379 C380 1.363 1_655 S
C379 H382 0.929 . S
C380 C379 1.363 1_455 S
C380 C386 1.428 . S
H381 C377 0.930 . S
H382 C379 0.929 . S
S383 N384 1.613 . S
S383 N385 1.610 . S
N384 S383 1.613 . S
N384 C387 1.350 . S
N385 S383 1.610 . S
N385 C386 1.351 . S
C386 C380 1.428 . S
C386 N385 1.351 . S
C386 C387 1.434 . S
C387 C378 1.429 1_455 S
C387 N384 1.350 . S
C387 C386 1.434 . S
C388 C389 1.369 . S
C388 C390 1.419 . S
C388 H392 0.930 . S
C389 C388 1.369 . S
C389 C398 1.429 1_545 S
C390 C388 1.419 . S
C390 C391 1.363 1_545 S
C390 H393 0.929 . S
C391 C390 1.363 1_565 S
C391 C397 1.428 . S
H392 C388 0.930 . S
H393 C390 0.929 . S
S394 N395 1.613 . S
S394 N396 1.610 . S
N395 S394 1.613 . S
N395 C398 1.350 . S
N396 S394 1.610 . S
N396 C397 1.351 . S
C397 C391 1.428 . S
C397 N396 1.351 . S
C397 C398 1.434 . S
C398 C389 1.429 1_565 S
C398 N395 1.350 . S
C398 C397 1.434 . S
C399 C400 1.369 . S
C399 C401 1.419 . S
C399 H403 0.930 . S
C400 C399 1.369 . S
C400 C409 1.429 . S
C401 C399 1.419 . S
C401 C402 1.363 . S
C401 H404 0.929 . S
C402 C401 1.363 . S
C402 C408 1.428 . S
H403 C399 0.930 . S
H404 C401 0.929 . S
S405 N406 1.613 . S
S405 N407 1.610 . S
N406 S405 1.613 . S
N406 C409 1.350 . S
N407 S405 1.610 . S
N407 C408 1.351 . S
C408 C402 1.428 . S
C408 N407 1.351 . S
C408 C409 1.434 . S
C409 C400 1.429 . S
C409 N406 1.350 . S
C409 C408 1.434 . S
C410 C411 1.369 1_655 S
C410 C412 1.419 . S
C410 H414 0.930 . S
C411 C410 1.369 1_455 S
C411 C420 1.429 . S
C412 C410 1.419 . S
C412 C413 1.363 . S
C412 H415 0.929 . S
C413 C412 1.363 . S
C413 C419 1.428 1_655 S
H414 C410 0.930 . S
H415 C412 0.929 . S
S416 N417 1.613 . S
S416 N418 1.610 . S
N417 S416 1.613 . S
N417 C420 1.350 . S
N418 S416 1.610 . S
N418 C419 1.351 . S
C419 C413 1.428 1_455 S
C419 N418 1.351 . S
C419 C420 1.434 . S
C420 C411 1.429 . S
C420 N417 1.350 . S
C420 C419 1.434 . S
C421 C422 1.369 . S
C421 C423 1.419 1_565 S
C421 H425 0.930 . S
C422 C421 1.369 . S
C422 C431 1.429 . S
C423 C421 1.419 1_545 S
C423 C424 1.363 . S
C423 H426 0.929 . S
C424 C423 1.363 . S
C424 C430 1.428 . S
H425 C421 0.930 . S
H426 C423 0.929 . S
S427 N428 1.613 1_545 S
S427 N429 1.610 . S
N428 S427 1.613 1_565 S
N428 C431 1.350 . S
N429 S427 1.610 . S
N429 C430 1.351 . S
C430 C424 1.428 . S
C430 N429 1.351 . S
C430 C431 1.434 1_545 S
C431 C422 1.429 . S
C431 N428 1.350 . S
C431 C430 1.434 1_565 S
C169 C107 1.397 . S
C171 C9 1.398 . S
C180 C23 1.404 . S
C182 C121 1.402 . S
C191 C37 1.405 . S
C193 C135 1.405 . S
C202 C51 1.403 . S
C204 C149 1.401 . S
C213 C163 1.397 . S
C215 C65 1.398 . S
C224 C93 1.402 . S
C226 C79 1.403 . S
C235 C143 1.455 . S
C237 C3 1.453 . S
C246 C17 1.456 . S
C248 C157 1.453 . S
C257 C31 1.456 . S
C259 C87 1.454 . S
C268 C101 1.453 . S
C270 C45 1.455 . S
C279 C115 1.453 . S
C281 C59 1.456 . S
C290 C129 1.453 . S
C292 C73 1.455 . S
C301 C7 1.592 . S
C303 C119 1.595 . S
C312 C21 1.599 . S
C314 C133 1.596 . S
C323 C147 1.592 . S
C325 C35 1.599 . S
C334 C49 1.598 . S
C336 C161 1.592 . S
C345 C91 1.597 . S
C347 C63 1.592 . S
C356 C105 1.599 . S
C358 C77 1.592 . S
C367 C50 1.465 . S
C369 C8 1.459 . S
C378 C64 1.462 . S
C380 C22 1.461 . S
C389 C36 1.461 . S
C391 C78 1.461 . S
C400 C92 1.458 . S
C402 C134 1.465 . S
C411 C106 1.457 . S
C413 C148 1.465 . S
C422 C162 1.464 . S
C424 C120 1.460 . S
