# Generated by pormake.
# Topology ske, (6)-cn, num edge types: 1
# Building blocks:
#     Node 0, Type 0, BuildingBlock: VOLQOD_clean_sbu_1, # of connection points: 6
#     Node 1, Type 0, BuildingBlock: VOLQOD_clean_sbu_1, # of connection points: 6
#     Node 2, Type 0, BuildingBlock: VOLQOD_clean_sbu_1, # of connection points: 6
#     Node 3, Type 0, BuildingBlock: VOLQOD_clean_sbu_1, # of connection points: 6
#     Node 4, Type 0, BuildingBlock: VOLQOD_clean_sbu_1, # of connection points: 6
#     Node 5, Type 0, BuildingBlock: VOLQOD_clean_sbu_1, # of connection points: 6
#     Node 6, Type 0, BuildingBlock: VOLQOD_clean_sbu_1, # of connection points: 6
#     Node 7, Type 0, BuildingBlock: VOLQOD_clean_sbu_1, # of connection points: 6
#     Edge 8, Type (0, 0), BuildingBlock: EZIPEK_clean_linker_0, # of connection points: 2
#     Edge 9, Type (0, 0), BuildingBlock: EZIPEK_clean_linker_0, # of connection points: 2
#     Edge 10, Type (0, 0), BuildingBlock: EZIPEK_clean_linker_0, # of connection points: 2
#     Edge 11, Type (0, 0), BuildingBlock: EZIPEK_clean_linker_0, # of connection points: 2
#     Edge 12, Type (0, 0), BuildingBlock: EZIPEK_clean_linker_0, # of connection points: 2
#     Edge 13, Type (0, 0), BuildingBlock: EZIPEK_clean_linker_0, # of connection points: 2
#     Edge 14, Type (0, 0), BuildingBlock: EZIPEK_clean_linker_0, # of connection points: 2
#     Edge 15, Type (0, 0), BuildingBlock: EZIPEK_clean_linker_0, # of connection points: 2
#     Edge 16, Type (0, 0), BuildingBlock: EZIPEK_clean_linker_0, # of connection points: 2
#     Edge 17, Type (0, 0), BuildingBlock: EZIPEK_clean_linker_0, # of connection points: 2
#     Edge 18, Type (0, 0), BuildingBlock: EZIPEK_clean_linker_0, # of connection points: 2
#     Edge 19, Type (0, 0), BuildingBlock: EZIPEK_clean_linker_0, # of connection points: 2
#     Edge 20, Type (0, 0), BuildingBlock: EZIPEK_clean_linker_0, # of connection points: 2
#     Edge 21, Type (0, 0), BuildingBlock: EZIPEK_clean_linker_0, # of connection points: 2
#     Edge 22, Type (0, 0), BuildingBlock: EZIPEK_clean_linker_0, # of connection points: 2
#     Edge 23, Type (0, 0), BuildingBlock: EZIPEK_clean_linker_0, # of connection points: 2
#     Edge 24, Type (0, 0), BuildingBlock: EZIPEK_clean_linker_0, # of connection points: 2
#     Edge 25, Type (0, 0), BuildingBlock: EZIPEK_clean_linker_0, # of connection points: 2
#     Edge 26, Type (0, 0), BuildingBlock: EZIPEK_clean_linker_0, # of connection points: 2
#     Edge 27, Type (0, 0), BuildingBlock: EZIPEK_clean_linker_0, # of connection points: 2
#     Edge 28, Type (0, 0), BuildingBlock: EZIPEK_clean_linker_0, # of connection points: 2
#     Edge 29, Type (0, 0), BuildingBlock: EZIPEK_clean_linker_0, # of connection points: 2
#     Edge 30, Type (0, 0), BuildingBlock: EZIPEK_clean_linker_0, # of connection points: 2
#     Edge 31, Type (0, 0), BuildingBlock: EZIPEK_clean_linker_0, # of connection points: 2
# Relax obj value: 0.031
# Max RMSD: 0.058
# Mean RMSD: 0.058
data_MOF--net-ske--node1-VOLQOD_clean_sbu_1--edge1-EZIPEK_clean_linker_0
_symmetry_space_group_name_H-M    P1
_symmetry_Int_Tables_number       1
_symmetry_cell_setting            triclinic
loop_
_symmetry_equiv_pos_as_xyz
'x, y, z'
_cell_length_a     50.881071
_cell_length_b     25.547952
_cell_length_c     13.068643
_cell_angle_alpha  90.006969
_cell_angle_beta   89.934195
_cell_angle_gamma 89.923151
loop_
_atom_site_label
_atom_site_type_symbol
_atom_site_fract_x
_atom_site_fract_y
_atom_site_fract_z
_atom_type_partial_charge
O0 O 0.10895 0.28592 0.81957 0.0
Zn1 Zn 0.09757 0.29315 0.6723 0.0
O2 O 0.11683 0.24348 0.58972 0.0
Zn3 Zn 0.14407 0.27822 0.51049 0.0
Zn4 Zn 0.13258 0.19301 0.67987 0.0
Zn5 Zn 0.09292 0.20764 0.50022 0.0
O6 O 0.14033 0.26036 0.35981 0.0
O7 O 0.0996 0.22827 0.35583 0.0
O8 O 0.1035 0.36651 0.61819 0.0
O9 O 0.13789 0.35548 0.51492 0.0
O10 O 0.18052 0.26433 0.56962 0.0
O11 O 0.1705 0.20858 0.6942 0.0
O12 O 0.12948 0.11972 0.62361 0.0
O13 O 0.05857 0.27785 0.66689 0.0
O14 O 0.099 0.13057 0.50406 0.0
O15 O 0.05551 0.22151 0.53771 0.0
C16 C 0.11425 0.24409 0.86888 0.0
C17 C 0.12007 0.24508 0.31053 0.0
C18 C 0.18707 0.23674 0.64696 0.0
C19 C 0.12069 0.38473 0.55666 0.0
C20 C 0.11478 0.1014 0.55336 0.0
C21 C 0.04492 0.24935 0.60716 0.0
O22 O 0.11891 0.20092 0.82325 0.0
O23 O 0.86758 0.20149 0.81382 0.0
Zn24 Zn 0.87903 0.19393 0.66671 0.0
O25 O 0.85991 0.2434 0.58355 0.0
Zn26 Zn 0.83301 0.2087 0.50318 0.0
Zn27 Zn 0.84372 0.29338 0.67348 0.0
Zn28 Zn 0.88387 0.27965 0.49485 0.0
O29 O 0.83678 0.22754 0.35319 0.0
O30 O 0.87762 0.25912 0.35013 0.0
O31 O 0.87322 0.12043 0.61322 0.0
O32 O 0.83977 0.13178 0.50565 0.0
O33 O 0.79643 0.2209 0.56279 0.0
O34 O 0.80598 0.27621 0.68862 0.0
O35 O 0.84627 0.36658 0.61678 0.0
O36 O 0.91797 0.20953 0.66182 0.0
O37 O 0.87719 0.35644 0.49824 0.0
O38 O 0.92127 0.26655 0.53383 0.0
C39 C 0.86233 0.24351 0.86258 0.0
C40 C 0.85716 0.24273 0.30435 0.0
C41 C 0.78966 0.24768 0.641 0.0
C42 C 0.85656 0.10246 0.54939 0.0
C43 C 0.86104 0.38516 0.54692 0.0
C44 C 0.93172 0.23852 0.60325 0.0
O45 O 0.8576 0.28647 0.81643 0.0
O46 O 0.10574 0.69989 0.16295 0.0
Zn47 Zn 0.09681 0.69187 0.31308 0.0
O48 O 0.11673 0.74232 0.3915 0.0
Zn49 Zn 0.1438 0.70972 0.4745 0.0
Zn50 Zn 0.13248 0.79234 0.30081 0.0
Zn51 Zn 0.09348 0.77829 0.48215 0.0
O52 O 0.14087 0.73404 0.62277 0.0
O53 O 0.09807 0.7517 0.62436 0.0
O54 O 0.1044 0.61916 0.36634 0.0
O55 O 0.13667 0.63245 0.47876 0.0
O56 O 0.18019 0.72084 0.41163 0.0
O57 O 0.17039 0.77662 0.28675 0.0
O58 O 0.12901 0.86623 0.35444 0.0
O59 O 0.05767 0.70475 0.32798 0.0
O60 O 0.10156 0.85464 0.48484 0.0
O61 O 0.05621 0.7697 0.44093 0.0
C62 C 0.11242 0.74083 0.11331 0.0
C63 C 0.11944 0.74218 0.67136 0.0
C64 C 0.18683 0.74806 0.33384 0.0
C65 C 0.12056 0.60226 0.43324 0.0
C66 C 0.11596 0.88412 0.43008 0.0
C67 C 0.0448 0.73812 0.38049 0.0
O68 O 0.1192 0.78301 0.15818 0.0
O69 O 0.8695 0.78767 0.15968 0.0
Zn70 Zn 0.87947 0.79432 0.30902 0.0
O71 O 0.85931 0.74433 0.38817 0.0
Zn72 Zn 0.83205 0.77917 0.46791 0.0
Zn73 Zn 0.84364 0.69466 0.29601 0.0
Zn74 Zn 0.88241 0.70663 0.47763 0.0
O75 O 0.83601 0.76184 0.61876 0.0
O76 O 0.87643 0.72813 0.62191 0.0
O77 O 0.87292 0.86734 0.36266 0.0
O78 O 0.83825 0.85642 0.46454 0.0
O79 O 0.7955 0.76514 0.40912 0.0
O80 O 0.80574 0.71055 0.28268 0.0
O81 O 0.84648 0.62039 0.3484 0.0
O82 O 0.91853 0.78019 0.32232 0.0
O83 O 0.87523 0.63045 0.47442 0.0
O84 O 0.91983 0.71748 0.44013 0.0
C85 C 0.86329 0.74677 0.10908 0.0
C86 C 0.85628 0.74615 0.66766 0.0
C87 C 0.78905 0.73807 0.33093 0.0
C88 C 0.8556 0.88552 0.42369 0.0
C89 C 0.86018 0.60167 0.4213 0.0
C90 C 0.93133 0.74805 0.37781 0.0
O91 O 0.85731 0.7039 0.15328 0.0
O92 O 0.60772 0.78001 0.31557 0.0
Zn93 Zn 0.59716 0.78772 0.16757 0.0
O94 O 0.61624 0.73769 0.08567 0.0
Zn95 Zn 0.64314 0.77057 0.00288 0.0
Zn96 Zn 0.63217 0.68718 0.17459 0.0
Zn97 Zn 0.59239 0.70344 -0.00531 0.0
O98 O 0.64057 0.74553 0.85527 0.0
O99 O 0.59761 0.72974 0.85256 0.0
O100 O 0.60358 0.86059 0.1122 0.0
O101 O 0.63551 0.84759 -0.00217 0.0
O102 O 0.67943 0.76058 0.06641 0.0
O103 O 0.67011 0.70302 0.1887 0.0
O104 O 0.62826 0.61387 0.119 0.0
O105 O 0.5582 0.77311 0.16156 0.0
O106 O 0.59981 0.62634 -0.00787 0.0
O107 O 0.55504 0.71468 0.03612 0.0
C108 C 0.61361 0.73825 0.36407 0.0
C109 C 0.61921 0.73798 0.80615 0.0
C110 C 0.68629 0.73277 0.14306 0.0
C111 C 0.61935 0.8776 0.04387 0.0
C112 C 0.61455 0.59643 0.0449 0.0
C113 C 0.54452 0.74339 0.10435 0.0
O114 O 0.61909 0.69563 0.31795 0.0
O115 O 0.36684 0.69906 0.31548 0.0
Zn116 Zn 0.37843 0.69169 0.16857 0.0
O117 O 0.35959 0.74152 0.08534 0.0
Zn118 Zn 0.3324 0.70717 0.00567 0.0
Zn119 Zn 0.34396 0.79221 0.17536 0.0
Zn120 Zn 0.38376 0.77672 -0.00399 0.0
O121 O 0.33607 0.72583 0.85538 0.0
O122 O 0.37707 0.75653 0.85157 0.0
O123 O 0.37249 0.6185 0.11435 0.0
O124 O 0.33883 0.63 0.00789 0.0
O125 O 0.29598 0.72046 0.0663 0.0
O126 O 0.30601 0.7767 0.19002 0.0
O127 O 0.34761 0.86549 0.11965 0.0
O128 O 0.41743 0.70643 0.1642 0.0
O129 O 0.37811 0.85382 2e-05 0.0
O130 O 0.42104 0.76198 0.03391 0.0
C131 C 0.36186 0.74114 0.36447 0.0
C132 C 0.35648 0.74055 0.80617 0.0
C133 C 0.28946 0.74816 0.14362 0.0
C134 C 0.35573 0.60062 0.05086 0.0
C135 C 0.36253 0.88337 0.04956 0.0
C136 C 0.43134 0.7343 0.10419 0.0
O137 O 0.35756 0.78435 0.31856 0.0
O138 O 0.60879 0.19372 0.65634 0.0
Zn139 Zn 0.59719 0.18707 0.80342 0.0
O140 O 0.61655 0.23645 0.88591 0.0
Zn141 Zn 0.64371 0.20098 0.9643 0.0
Zn142 Zn 0.63219 0.28709 0.79571 0.0
Zn143 Zn 0.59271 0.27228 0.97612 0.0
O144 O 0.64006 0.21858 0.11524 0.0
O145 O 0.59941 0.25131 0.12026 0.0
O146 O 0.60261 0.11359 0.85788 0.0
O147 O 0.63729 0.12371 0.95961 0.0
O148 O 0.68017 0.21487 0.90477 0.0
O149 O 0.67018 0.27187 0.78222 0.0
O150 O 0.62867 0.36065 0.85121 0.0
O151 O 0.55832 0.20354 0.80791 0.0
O152 O 0.59867 0.34933 0.97257 0.0
O153 O 0.55533 0.25911 0.93845 0.0
C154 C 0.61418 0.23537 0.60674 0.0
C155 C 0.61987 0.2341 0.16503 0.0
C156 C 0.68675 0.24324 0.82849 0.0
C157 C 0.61983 0.09491 0.91868 0.0
C158 C 0.61409 0.37878 0.92226 0.0
C159 C 0.54473 0.23205 0.86807 0.0
O160 O 0.61884 0.27861 0.65201 0.0
O161 O 0.36756 0.28561 0.66158 0.0
Zn162 Zn 0.37916 0.29226 0.80851 0.0
O163 O 0.36008 0.24252 0.89115 0.0
Zn164 Zn 0.33292 0.27713 0.97084 0.0
Zn165 Zn 0.34449 0.19208 0.80072 0.0
Zn166 Zn 0.38406 0.20698 0.98072 0.0
O167 O 0.33666 0.25898 0.12125 0.0
O168 O 0.37763 0.22795 0.12505 0.0
O169 O 0.37338 0.36548 0.86337 0.0
O170 O 0.33921 0.35426 0.96769 0.0
O171 O 0.29652 0.26365 0.9112 0.0
O172 O 0.30648 0.20747 0.78708 0.0
O173 O 0.3482 0.11858 0.85545 0.0
O174 O 0.41808 0.27632 0.81212 0.0
O175 O 0.37794 0.13011 0.97764 0.0
O176 O 0.42137 0.22006 0.94139 0.0
C177 C 0.36247 0.2438 0.61206 0.0
C178 C 0.35706 0.24429 0.17046 0.0
C179 C 0.28994 0.23592 0.83411 0.0
C180 C 0.35632 0.38351 0.92575 0.0
C181 C 0.36268 0.10063 0.92678 0.0
C182 C 0.43181 0.24754 0.87115 0.0
O183 O 0.35801 0.2005 0.6574 0.0
C184 C 0.22569 0.28613 0.71961 0.0
C185 C 0.21421 0.23811 0.68799 0.0
C186 C 0.24973 0.1899 0.77224 0.0
C187 C 0.26284 0.23771 0.7928 0.0
N188 N 0.26579 0.33117 0.76485 0.0
N189 N 0.21837 0.14472 0.66511 0.0
C190 C 0.25154 0.2859 0.76078 0.0
C191 C 0.22716 0.19007 0.70873 0.0
N192 N 0.21162 0.33168 0.71515 0.0
N193 N 0.25837 0.14444 0.81604 0.0
H194 H 0.20244 0.1436 0.61497 0.0
H195 H 0.22855 0.1094 0.66989 0.0
H196 H 0.2743 0.14307 0.86617 0.0
H197 H 0.24806 0.1093 0.81141 0.0
H198 H 0.21816 0.36654 0.74774 0.0
H199 H 0.19241 0.33381 0.68791 0.0
H200 H 0.25938 0.36609 0.73202 0.0
H201 H 0.28502 0.33296 0.79197 0.0
C202 C 0.72568 0.1951 0.75403 0.0
C203 C 0.71396 0.24258 0.78783 0.0
C204 C 0.74921 0.29227 0.70535 0.0
C205 C 0.76256 0.24491 0.68251 0.0
N206 N 0.76599 0.15119 0.70618 0.0
N207 N 0.71772 0.33569 0.81513 0.0
C208 C 0.75152 0.19619 0.71252 0.0
C209 C 0.72669 0.29101 0.76923 0.0
N210 N 0.71185 0.1493 0.7568 0.0
N211 N 0.75754 0.33835 0.6633 0.0
H212 H 0.70182 0.33598 0.86562 0.0
H213 H 0.72775 0.37119 0.81186 0.0
H214 H 0.7734 0.34055 0.61278 0.0
H215 H 0.74705 0.37325 0.66969 0.0
H216 H 0.71855 0.11491 0.72263 0.0
H217 H 0.69268 0.14657 0.78443 0.0
H218 H 0.75977 0.11579 0.73748 0.0
H219 H 0.78522 0.15002 0.67871 0.0
C220 C 0.24945 0.79435 0.20788 0.0
C221 C 0.2624 0.74645 0.18581 0.0
C222 C 0.22528 0.69824 0.25977 0.0
C223 C 0.21398 0.74628 0.29265 0.0
N224 N 0.2185 0.83943 0.31745 0.0
N225 N 0.26516 0.6528 0.21191 0.0
C226 C 0.22705 0.79418 0.27246 0.0
C227 C 0.25104 0.69826 0.21743 0.0
N228 N 0.25804 0.8399 0.1644 0.0
N229 N 0.21111 0.65288 0.26428 0.0
H230 H 0.28433 0.65086 0.184 0.0
H231 H 0.25872 0.6178 0.24427 0.0
H232 H 0.192 0.65094 0.29281 0.0
H233 H 0.21746 0.61806 0.23079 0.0
H234 H 0.24782 0.87515 0.17028 0.0
H235 H 0.27379 0.84129 0.11328 0.0
H236 H 0.22879 0.87459 0.31304 0.0
H237 H 0.20267 0.84053 0.36828 0.0
C238 C 0.72714 0.68877 0.20475 0.0
C239 C 0.71326 0.73591 0.18538 0.0
C240 C 0.74947 0.78598 0.26117 0.0
C241 C 0.76177 0.73841 0.29102 0.0
N242 N 0.75899 0.6447 0.31155 0.0
N243 N 0.70862 0.82883 0.21674 0.0
C244 C 0.74958 0.68982 0.26882 0.0
C245 C 0.72367 0.78448 0.21946 0.0
N246 N 0.71935 0.64316 0.1593 0.0
N247 N 0.7627 0.83236 0.26784 0.0
H248 H 0.68941 0.82958 0.18924 0.0
H249 H 0.71436 0.86383 0.25098 0.0
H250 H 0.7818 0.83545 0.29585 0.0
H251 H 0.75558 0.86712 0.23658 0.0
H252 H 0.73026 0.60867 0.16309 0.0
H253 H 0.70353 0.6412 0.10873 0.0
H254 H 0.74937 0.60885 0.30554 0.0
H255 H 0.77481 0.64416 0.36229 0.0
C256 C 0.12258 0.95319 0.56335 0.0
C257 C 0.11824 0.93999 0.45919 0.0
C258 C 0.11836 0.03299 0.4162 0.0
C259 C 0.11724 0.04579 0.5221 0.0
N260 N 0.11343 0.01566 0.69717 0.0
N261 N 0.10733 0.96871 0.28792 0.0
C262 C 0.11811 0.00528 0.59622 0.0
C263 C 0.11492 0.98022 0.38561 0.0
N264 N 0.13193 0.91656 0.6302 0.0
N265 N 0.12378 0.07063 0.34492 0.0
H266 H 0.10347 0.93078 0.26283 0.0
H267 H 0.10224 -0.00252 0.23494 0.0
H268 H 0.12831 0.10918 0.36426 0.0
H269 H 0.12695 0.06206 0.26789 0.0
H270 H 0.13741 0.92558 0.70499 0.0
H271 H 0.13713 0.87879 0.60738 0.0
H272 H 0.11151 0.98623 0.75192 0.0
H273 H 0.10861 0.05278 0.72447 0.0
C274 C 0.85827 0.48124 0.58918 0.0
C275 C 0.85831 0.44057 0.5154 0.0
C276 C 0.85973 0.50551 0.37761 0.0
C277 C 0.85752 0.54605 0.4512 0.0
N278 N 0.84612 0.57086 0.6244 0.0
N279 N 0.85048 0.41488 0.3397 0.0
C280 C 0.85412 0.53344 0.55632 0.0
C281 C 0.8564 0.45292 0.40954 0.0
N282 N 0.8635 0.47081 0.68968 0.0
N283 N 0.86628 0.51656 0.27852 0.0
H284 H 0.84633 0.37633 0.36037 0.0
H285 H 0.84664 0.42298 0.26299 0.0
H286 H 0.86995 0.55435 0.25219 0.0
H287 H 0.87068 0.48758 0.225 0.0
H288 H 0.8662 0.50017 0.74405 0.0
H289 H 0.86789 0.43347 0.71686 0.0
H290 H 0.8412 0.56236 0.70004 0.0
H291 H 0.84141 0.60901 0.60253 0.0
C292 C 0.85661 0.9814 0.38108 0.0
C293 C 0.85689 0.94108 0.45547 0.0
C294 C 0.85568 0.00659 0.59265 0.0
C295 C 0.85774 0.04678 0.51842 0.0
N296 N 0.86674 0.07178 0.34342 0.0
N297 N 0.86338 0.91541 0.63188 0.0
C298 C 0.86013 0.03401 0.41291 0.0
C299 C 0.85836 0.95366 0.56135 0.0
N300 N 0.85189 0.96987 0.28062 0.0
N301 N 0.85007 0.01862 0.69223 0.0
H302 H 0.86644 0.87634 0.61213 0.0
H303 H 0.86726 0.92328 0.70862 0.0
H304 H 0.84744 0.05688 0.7181 0.0
H305 H 0.84555 0.9904 0.74706 0.0
H306 H 0.84872 -0.00155 0.2251 0.0
H307 H 0.84859 0.9319 0.25435 0.0
H308 H 0.87129 0.06361 0.26731 0.0
H309 H 0.87041 0.1105 0.36401 0.0
C310 C 0.11573 0.5334 0.56858 0.0
C311 C 0.11961 0.54653 0.46403 0.0
C312 C 0.11938 0.45357 0.4198 0.0
C313 C 0.11959 0.44052 0.52566 0.0
N314 N 0.12281 0.46908 0.70147 0.0
N315 N 0.12974 0.51877 0.29182 0.0
C316 C 0.11905 0.48071 0.60047 0.0
C317 C 0.12269 0.50653 0.3899 0.0
N318 N 0.10773 0.57075 0.63676 0.0
N319 N 0.11485 0.41584 0.34777 0.0
H320 H 0.13291 0.55706 0.26717 0.0
H321 H 0.13491 0.49059 0.23772 0.0
H322 H 0.11104 0.3769 0.3663 0.0
H323 H 0.11197 0.42424 0.27056 0.0
H324 H 0.10227 0.56217 0.71178 0.0
H325 H 0.10381 0.60933 0.61551 0.0
H326 H 0.12526 0.49769 0.75749 0.0
H327 H 0.12612 0.43115 0.72794 0.0
C328 C 0.62074 0.52726 0.91105 0.0
C329 C 0.61656 0.54055 0.0153 0.0
C330 C 0.61739 0.44759 0.05883 0.0
C331 C 0.61619 0.43455 0.95305 0.0
N332 N 0.61173 0.46434 0.778 0.0
N333 N 0.60623 0.51193 0.18714 0.0
C334 C 0.61656 0.47499 0.87867 0.0
C335 C 0.61364 0.50036 0.08919 0.0
N336 N 0.62978 0.56391 0.84367 0.0
N337 N 0.62323 0.41023 0.13018 0.0
H338 H 0.6022 0.54986 0.21202 0.0
H339 H 0.60144 0.48318 0.24059 0.0
H340 H 0.62805 0.37177 0.11096 0.0
H341 H 0.62646 0.41902 0.20703 0.0
H342 H 0.63515 0.55486 0.7687 0.0
H343 H 0.63488 0.60174 0.86618 0.0
H344 H 0.60947 0.49366 0.7232 0.0
H345 H 0.60712 0.42707 0.75114 0.0
C346 C 0.35858 0.95206 0.9136 0.0
C347 C 0.36069 0.93907 0.01909 0.0
C348 C 0.35793 0.03193 0.06223 0.0
C349 C 0.36072 0.04493 0.95698 0.0
N350 N 0.36866 0.01603 0.78339 0.0
N351 N 0.36731 0.96805 0.19338 0.0
C352 C 0.36234 0.00467 0.88259 0.0
C353 C 0.36165 0.97935 0.09361 0.0
N354 N 0.35199 0.9147 0.84328 0.0
N355 N 0.35075 0.06926 0.13187 0.0
H356 H 0.37134 0.93031 0.21931 0.0
H357 H 0.37074 -0.00308 0.24812 0.0
H358 H 0.3463 0.10772 0.11144 0.0
H359 H 0.34624 0.06052 0.20779 0.0
H360 H 0.34797 0.92343 0.76697 0.0
H361 H 0.34749 0.87621 0.86324 0.0
H362 H 0.37258 0.98718 0.72903 0.0
H363 H 0.3727 0.05381 0.75784 0.0
C364 C 0.35633 0.47939 0.88248 0.0
C365 C 0.35738 0.43918 0.957 0.0
C366 C 0.3556 0.50476 0.09395 0.0
C367 C 0.357 0.54498 0.01955 0.0
N368 N 0.36516 0.5702 0.84399 0.0
N369 N 0.3645 0.41404 0.13326 0.0
C370 C 0.35924 0.53222 0.91396 0.0
C371 C 0.3589 0.45196 0.06276 0.0
N372 N 0.35143 0.46752 0.78231 0.0
N373 N 0.35002 0.51659 0.19365 0.0
H374 H 0.36798 0.37513 0.11342 0.0
H375 H 0.36843 0.42214 0.20987 0.0
H376 H 0.34685 0.55473 0.21938 0.0
H377 H 0.346 0.48822 0.24874 0.0
H378 H 0.34767 0.49588 0.72691 0.0
H379 H 0.34857 0.42937 0.75627 0.0
H380 H 0.36962 0.56213 0.76776 0.0
H381 H 0.36835 0.60914 0.86412 0.0
C382 C 0.61815 0.02639 0.05607 0.0
C383 C 0.61841 0.03918 0.95011 0.0
C384 C 0.6143 0.94622 0.9081 0.0
C385 C 0.61814 0.9333 0.01279 0.0
N386 N 0.62838 0.96142 0.1846 0.0
N387 N 0.62135 0.0102 0.77449 0.0
C388 C 0.6213 0.97346 0.0865 0.0
C389 C 0.61768 -0.00118 0.87567 0.0
N390 N 0.61379 0.06442 0.12775 0.0
N391 N 0.60639 0.9087 0.84026 0.0
H392 H 0.62465 0.04805 0.74762 0.0
H393 H 0.6237 0.98148 0.71858 0.0
H394 H 0.60254 0.87014 0.86182 0.0
H395 H 0.60096 0.91707 0.76516 0.0
H396 H 0.61085 0.05629 0.20506 0.0
H397 H 0.61019 0.1034 0.10885 0.0
H398 H 0.63363 0.98969 0.23829 0.0
H399 H 0.63151 0.92318 0.20969 0.0
C400 C 0.09839 0.27302 0.14754 0.0
C401 C 0.11968 0.24762 0.19743 0.0
C402 C 0.13931 0.22763 0.03107 0.0
C403 C 0.1162 0.24609 0.98182 0.0
N404 N 0.07152 0.27755 -0.00467 0.0
N405 N 0.15787 0.19153 0.18593 0.0
C406 C 0.09511 0.26654 0.04054 0.0
C407 C 0.13953 0.22244 0.13912 0.0
N408 N 0.08172 0.30466 0.20164 0.0
N409 N 0.16144 0.21705 0.97536 0.0
H410 H 0.15833 0.18525 0.26472 0.0
H411 H 0.171 0.16798 0.14544 0.0
H412 H 0.16255 0.22259 0.89648 0.0
H413 H 0.1795 0.20836 0.00886 0.0
H414 H 0.06757 0.32824 0.16699 0.0
H415 H 0.08376 0.31159 0.27984 0.0
H416 H 0.05472 0.28741 0.03678 0.0
H417 H 0.06794 0.27169 0.91763 0.0
C418 C 0.87897 0.21579 0.14063 0.0
C419 C 0.85761 0.24072 0.19121 0.0
C420 C 0.8376 0.26029 0.02553 0.0
C421 C 0.86067 0.24203 0.97554 0.0
N422 N 0.90555 0.21167 0.98737 0.0
N423 N 0.81924 0.2964 0.18086 0.0
C424 C 0.882 0.2222 0.03351 0.0
C425 C 0.83758 0.26562 0.13353 0.0
N426 N 0.89592 0.18455 0.19409 0.0
N427 N 0.81534 0.27054 0.97061 0.0
H428 H 0.81894 0.3029 0.25959 0.0
H429 H 0.80596 0.31973 0.14074 0.0
H430 H 0.81411 0.265 0.89176 0.0
H431 H 0.79731 0.27902 0.00476 0.0
H432 H 0.91012 0.16124 0.15889 0.0
H433 H 0.89413 0.17763 0.27237 0.0
H434 H 0.9225 0.20231 0.02818 0.0
H435 H 0.90893 0.21745 0.90947 0.0
C436 C 0.09999 0.77762 0.94309 0.0
C437 C 0.11366 0.73928 0.00033 0.0
C438 C 0.13013 0.70011 0.84145 0.0
C439 C 0.11891 0.74214 0.785 0.0
N440 N 0.09859 0.8279 0.78704 0.0
N441 N 0.1466 0.67101 0.00542 0.0
C442 C 0.10536 0.78293 0.83724 0.0
C443 C 0.1301 0.70237 0.95007 0.0
N444 N 0.08123 0.80796 -0.01096 0.0
N445 N 0.13977 0.65693 0.79232 0.0
H446 H 0.14779 0.67217 0.08502 0.0
H447 H 0.16097 0.64754 0.97174 0.0
H448 H 0.13986 0.65279 0.71309 0.0
H449 H 0.14538 0.62296 0.83073 0.0
H450 H 0.06881 0.83286 0.94835 0.0
H451 H 0.07619 0.80424 0.06611 0.0
H452 H 0.09111 0.86079 0.82425 0.0
H453 H 0.1031 0.83466 0.71044 0.0
C454 C 0.87902 0.77354 0.82907 0.0
C455 C 0.85705 0.74969 0.78072 0.0
C456 C 0.83732 0.73365 0.94836 0.0
C457 C 0.86103 0.74974 -0.00373 0.0
N458 N 0.90627 0.77713 0.98041 0.0
N459 N 0.81758 0.69762 0.79588 0.0
C460 C 0.8824 0.76776 0.93625 0.0
C461 C 0.83674 0.72726 0.84064 0.0
N462 N 0.89623 0.80314 0.77337 0.0
N463 N 0.81502 0.7264 0.00504 0.0
H464 H 0.81688 0.69011 0.71754 0.0
H465 H 0.80396 0.67605 0.83793 0.0
H466 H 0.81422 0.73327 0.0836 0.0
H467 H 0.79668 0.71943 0.97234 0.0
H468 H 0.91101 0.82557 0.80671 0.0
H469 H 0.89411 0.80976 0.6951 0.0
H470 H 0.9232 0.78491 0.93816 0.0
H471 H 0.90982 0.77216 0.05835 0.0
C472 C 0.60049 0.70196 0.53413 0.0
C473 C 0.61493 0.7392 0.47699 0.0
C474 C 0.63102 0.77851 0.63595 0.0
C475 C 0.61904 0.73745 0.69258 0.0
N476 N 0.59758 0.65284 0.6912 0.0
N477 N 0.64884 0.80538 0.47261 0.0
C478 C 0.60527 0.69703 0.64042 0.0
C479 C 0.63162 0.77541 0.5275 0.0
N480 N 0.58148 0.67252 0.48783 0.0
N481 N 0.64072 0.82171 0.68463 0.0
H482 H 0.65055 0.80331 0.39319 0.0
H483 H 0.66329 0.82833 0.50683 0.0
H484 H 0.64008 0.82672 0.76366 0.0
H485 H 0.647 0.85501 0.64562 0.0
H486 H 0.56856 0.64864 0.5284 0.0
H487 H 0.57676 0.67609 0.41049 0.0
H488 H 0.58998 0.62007 0.65418 0.0
H489 H 0.60137 0.64648 0.76845 0.0
C490 C 0.33703 0.76368 0.63519 0.0
C491 C 0.35688 0.7383 0.69303 0.0
C492 C 0.38122 0.71907 0.53552 0.0
C493 C 0.36007 0.73952 0.47738 0.0
N494 N 0.31495 0.7693 0.47198 0.0
N495 N 0.39484 0.68118 0.69625 0.0
C496 C 0.3371 0.75838 0.52716 0.0
C497 C 0.3781 0.71279 0.64262 0.0
N498 N 0.31887 0.79492 0.68239 0.0
N499 N 0.40472 0.70788 0.48959 0.0
H500 H 0.39303 0.67449 0.77459 0.0
H501 H 0.40888 0.65743 0.66121 0.0
H502 H 0.40818 0.71354 0.41171 0.0
H503 H 0.42159 0.69806 0.53051 0.0
H504 H 0.30576 0.81859 0.64218 0.0
H505 H 0.31857 0.80142 0.76113 0.0
H506 H 0.29696 0.77827 0.50592 0.0
H507 H 0.31376 0.76387 0.3931 0.0
C508 C 0.59818 0.20651 0.32835 0.0
C509 C 0.61956 0.23143 0.27816 0.0
C510 C 0.63932 0.251 0.4443 0.0
C511 C 0.61613 0.23313 0.49381 0.0
N512 N 0.57134 0.20255 0.48092 0.0
N513 N 0.65803 0.28657 0.28918 0.0
C514 C 0.59496 0.21307 0.43538 0.0
C515 C 0.63955 0.25612 0.33622 0.0
N516 N 0.58135 0.17526 0.27448 0.0
N517 N 0.66148 0.26116 0.49982 0.0
H518 H 0.6585 0.29287 0.21039 0.0
H519 H 0.67129 0.30978 0.32948 0.0
H520 H 0.66254 0.25574 0.57875 0.0
H521 H 0.67959 0.26938 0.46617 0.0
H522 H 0.56713 0.15196 0.30932 0.0
H523 H 0.58331 0.16834 0.19623 0.0
H524 H 0.55449 0.19305 0.4397 0.0
H525 H 0.56779 0.20847 0.55867 0.0
C526 C 0.37867 0.27224 0.33366 0.0
C527 C 0.35743 0.24684 0.28357 0.0
C528 C 0.33759 0.22735 0.4497 0.0
C529 C 0.36062 0.24584 0.49919 0.0
N530 N 0.4053 0.2771 0.48644 0.0
N531 N 0.31928 0.19079 0.29493 0.0
C532 C 0.38178 0.26605 0.44078 0.0
C533 C 0.33752 0.22187 0.34173 0.0
N534 N 0.39544 0.3036 0.27967 0.0
N535 N 0.31541 0.21693 0.50513 0.0
H536 H 0.31898 0.18409 0.21626 0.0
H537 H 0.30611 0.16742 0.33543 0.0
H538 H 0.31422 0.22259 0.58398 0.0
H539 H 0.29738 0.20823 0.4714 0.0
H540 H 0.40951 0.32727 0.31446 0.0
H541 H 0.39362 0.31021 0.20132 0.0
H542 H 0.42217 0.28673 0.4453 0.0
H543 H 0.40876 0.27153 0.56431 0.0
C544 C 0.0035 0.19776 0.62724 0.0
C545 C 0.01599 0.24723 0.61893 0.0
C546 C 0.97304 0.29023 0.62647 0.0
C547 C 0.9606 0.24078 0.61641 0.0
N548 N 0.96446 0.14726 0.5914 0.0
N549 N 0.01232 0.34085 0.59517 0.0
C550 C 0.97591 0.19432 0.61331 0.0
C551 C 0.00072 0.29371 0.61517 0.0
N552 N 0.01789 0.15421 0.65093 0.0
N553 N 0.95849 0.3337 0.64944 0.0
H554 H 0.03245 0.34525 0.58321 0.0
H555 H 0.00163 0.37487 0.58073 0.0
H556 H 0.93823 0.33242 0.66171 0.0
H557 H 0.96688 0.36975 0.6672 0.0
H558 H 0.00939 0.11811 0.66745 0.0
H559 H 0.03806 0.15547 0.66507 0.0
H560 H 0.97526 0.1133 0.57749 0.0
H561 H 0.94443 0.14291 0.57717 0.0
C562 C 0.97434 0.75012 0.46904 0.0
C563 C 0.96041 0.74756 0.37525 0.0
C564 C 0.0022 0.74339 0.28212 0.0
C565 C 0.01573 0.7389 0.37675 0.0
N566 N 0.01353 0.72418 0.55941 0.0
N567 N 0.96097 0.73135 0.19297 0.0
C568 C 0.00147 0.73823 0.47007 0.0
C569 C 0.97427 0.74137 0.28159 0.0
N570 N 0.96196 0.76588 0.55674 0.0
N571 N 0.01582 0.75168 0.19342 0.0
H572 H 0.94058 0.72788 0.18972 0.0
H573 H 0.97033 0.72141 0.12473 0.0
H574 H 0.03624 0.75483 0.19066 0.0
H575 H 0.00669 0.7605 0.12419 0.0
H576 H 0.97197 0.77292 0.62491 0.0
H577 H 0.94234 0.77776 0.55864 0.0
H578 H 0.00327 0.71848 0.62759 0.0
H579 H 0.03313 0.7123 0.56305 0.0
C580 C 0.50297 0.69247 0.12786 0.0
C581 C 0.51561 0.74164 0.11673 0.0
C582 C 0.47287 0.78538 0.12435 0.0
C583 C 0.46022 0.73605 0.11697 0.0
N584 N 0.4636 0.64218 0.09634 0.0
N585 N 0.51216 0.83497 0.08789 0.0
C586 C 0.47532 0.6893 0.1154 0.0
C587 C 0.5005 0.78829 0.1113 0.0
N588 N 0.51728 0.649 0.15285 0.0
N589 N 0.45858 0.82933 0.14629 0.0
H590 H 0.53222 0.83891 0.0739 0.0
H591 H 0.5015 0.86891 0.07237 0.0
H592 H 0.43837 0.8285 0.15986 0.0
H593 H 0.46719 0.86543 0.16204 0.0
H594 H 0.50869 0.61322 0.17137 0.0
H595 H 0.53749 0.65011 0.16595 0.0
H596 H 0.47421 0.60788 0.08355 0.0
H597 H 0.44351 0.638 0.08348 0.0
C598 C 0.47632 0.29007 0.85998 0.0
C599 C 0.46062 0.24425 0.8569 0.0
C600 C 0.50019 0.18957 0.85811 0.0
C601 C 0.51589 0.2354 0.85525 0.0
N602 N 0.51879 0.32835 0.82376 0.0
N603 N 0.45761 0.15151 0.82327 0.0
C604 C 0.5039 0.28543 0.84681 0.0
C605 C 0.47257 0.19429 0.84657 0.0
N606 N 0.46524 0.33764 0.88113 0.0
N607 N 0.51133 0.14187 0.87756 0.0
H608 H 0.43738 0.15373 0.81097 0.0
H609 H 0.46565 0.11511 0.80532 0.0
H610 H 0.5314 0.13657 0.88943 0.0
H611 H 0.50032 0.10826 0.89145 0.0
H612 H 0.47629 0.37117 0.89522 0.0
H613 H 0.4452 0.34285 0.8942 0.0
H614 H 0.5107 0.36486 0.80716 0.0
H615 H 0.53898 0.32621 0.8103 0.0
loop_
_geom_bond_atom_site_label_1
_geom_bond_atom_site_label_2
_geom_bond_distance
_geom_bond_site_symmetry_2
_ccdc_geom_bond_type
O0 Zn1 1.953 . S
O0 C16 1.225 . S
Zn1 O0 1.953 . S
Zn1 O2 1.949 . S
Zn1 O8 1.919 . S
Zn1 O13 1.924 . S
O2 Zn1 1.949 . S
O2 Zn3 1.923 . S
O2 Zn4 1.950 . S
O2 Zn5 1.945 . S
Zn3 O2 1.923 . S
Zn3 O6 1.933 . S
Zn3 O9 1.941 . S
Zn3 O10 1.965 . S
Zn4 O2 1.950 . S
Zn4 O11 1.938 . S
Zn4 O12 1.906 . S
Zn4 O22 1.953 . S
Zn5 O2 1.945 . S
Zn5 O7 1.932 . S
Zn5 O14 1.977 . S
Zn5 O15 1.910 . S
O6 Zn3 1.933 . S
O6 C17 1.226 . S
O7 Zn5 1.932 . S
O7 C17 1.307 . S
O8 Zn1 1.919 . S
O8 C19 1.253 . S
O9 Zn3 1.941 . S
O9 C19 1.283 . S
O10 Zn3 1.965 . S
O10 C18 1.303 . S
O11 Zn4 1.938 . S
O11 C18 1.247 . S
O12 Zn4 1.906 . S
O12 C20 1.304 . S
O13 Zn1 1.924 . S
O13 C21 1.311 . S
O14 Zn5 1.977 . S
O14 C20 1.272 . S
O15 Zn5 1.910 . S
O15 C21 1.231 . S
C16 O0 1.225 . S
C16 O22 1.298 . S
C17 O6 1.226 . S
C17 O7 1.307 . S
C18 O10 1.303 . S
C18 O11 1.247 . S
C19 O8 1.253 . S
C19 O9 1.283 . S
C20 O12 1.304 . S
C20 O14 1.272 . S
C21 O13 1.311 . S
C21 O15 1.231 . S
O22 Zn4 1.953 . S
O22 C16 1.298 . S
O23 Zn24 1.953 . S
O23 C39 1.225 . S
Zn24 O23 1.953 . S
Zn24 O25 1.949 . S
Zn24 O31 1.919 . S
Zn24 O36 1.924 . S
O25 Zn24 1.949 . S
O25 Zn26 1.923 . S
O25 Zn27 1.950 . S
O25 Zn28 1.945 . S
Zn26 O25 1.923 . S
Zn26 O29 1.933 . S
Zn26 O32 1.941 . S
Zn26 O33 1.965 . S
Zn27 O25 1.950 . S
Zn27 O34 1.938 . S
Zn27 O35 1.906 . S
Zn27 O45 1.953 . S
Zn28 O25 1.945 . S
Zn28 O30 1.932 . S
Zn28 O37 1.977 . S
Zn28 O38 1.910 . S
O29 Zn26 1.933 . S
O29 C40 1.226 . S
O30 Zn28 1.932 . S
O30 C40 1.307 . S
O31 Zn24 1.919 . S
O31 C42 1.253 . S
O32 Zn26 1.941 . S
O32 C42 1.283 . S
O33 Zn26 1.965 . S
O33 C41 1.303 . S
O34 Zn27 1.938 . S
O34 C41 1.247 . S
O35 Zn27 1.906 . S
O35 C43 1.304 . S
O36 Zn24 1.924 . S
O36 C44 1.311 . S
O37 Zn28 1.977 . S
O37 C43 1.272 . S
O38 Zn28 1.910 . S
O38 C44 1.231 . S
C39 O23 1.225 . S
C39 O45 1.298 . S
C40 O29 1.226 . S
C40 O30 1.307 . S
C41 O33 1.303 . S
C41 O34 1.247 . S
C42 O31 1.253 . S
C42 O32 1.283 . S
C43 O35 1.304 . S
C43 O37 1.272 . S
C44 O36 1.311 . S
C44 O38 1.231 . S
O45 Zn27 1.953 . S
O45 C39 1.298 . S
O46 Zn47 1.953 . S
O46 C62 1.225 . S
Zn47 O46 1.953 . S
Zn47 O48 1.949 . S
Zn47 O54 1.919 . S
Zn47 O59 1.924 . S
O48 Zn47 1.949 . S
O48 Zn49 1.923 . S
O48 Zn50 1.950 . S
O48 Zn51 1.945 . S
Zn49 O48 1.923 . S
Zn49 O52 1.933 . S
Zn49 O55 1.941 . S
Zn49 O56 1.965 . S
Zn50 O48 1.950 . S
Zn50 O57 1.938 . S
Zn50 O58 1.906 . S
Zn50 O68 1.953 . S
Zn51 O48 1.945 . S
Zn51 O53 1.932 . S
Zn51 O60 1.977 . S
Zn51 O61 1.910 . S
O52 Zn49 1.933 . S
O52 C63 1.226 . S
O53 Zn51 1.932 . S
O53 C63 1.307 . S
O54 Zn47 1.919 . S
O54 C65 1.253 . S
O55 Zn49 1.941 . S
O55 C65 1.283 . S
O56 Zn49 1.965 . S
O56 C64 1.303 . S
O57 Zn50 1.938 . S
O57 C64 1.247 . S
O58 Zn50 1.906 . S
O58 C66 1.304 . S
O59 Zn47 1.924 . S
O59 C67 1.311 . S
O60 Zn51 1.977 . S
O60 C66 1.272 . S
O61 Zn51 1.910 . S
O61 C67 1.231 . S
C62 O46 1.225 . S
C62 O68 1.298 . S
C63 O52 1.226 . S
C63 O53 1.307 . S
C64 O56 1.303 . S
C64 O57 1.247 . S
C65 O54 1.253 . S
C65 O55 1.283 . S
C66 O58 1.304 . S
C66 O60 1.272 . S
C67 O59 1.311 . S
C67 O61 1.231 . S
O68 Zn50 1.953 . S
O68 C62 1.298 . S
O69 Zn70 1.953 . S
O69 C85 1.225 . S
Zn70 O69 1.953 . S
Zn70 O71 1.949 . S
Zn70 O77 1.919 . S
Zn70 O82 1.924 . S
O71 Zn70 1.949 . S
O71 Zn72 1.923 . S
O71 Zn73 1.950 . S
O71 Zn74 1.945 . S
Zn72 O71 1.923 . S
Zn72 O75 1.933 . S
Zn72 O78 1.941 . S
Zn72 O79 1.965 . S
Zn73 O71 1.950 . S
Zn73 O80 1.938 . S
Zn73 O81 1.906 . S
Zn73 O91 1.953 . S
Zn74 O71 1.945 . S
Zn74 O76 1.932 . S
Zn74 O83 1.977 . S
Zn74 O84 1.910 . S
O75 Zn72 1.933 . S
O75 C86 1.226 . S
O76 Zn74 1.932 . S
O76 C86 1.307 . S
O77 Zn70 1.919 . S
O77 C88 1.253 . S
O78 Zn72 1.941 . S
O78 C88 1.283 . S
O79 Zn72 1.965 . S
O79 C87 1.303 . S
O80 Zn73 1.938 . S
O80 C87 1.247 . S
O81 Zn73 1.906 . S
O81 C89 1.304 . S
O82 Zn70 1.924 . S
O82 C90 1.311 . S
O83 Zn74 1.977 . S
O83 C89 1.272 . S
O84 Zn74 1.910 . S
O84 C90 1.231 . S
C85 O69 1.225 . S
C85 O91 1.298 . S
C86 O75 1.226 . S
C86 O76 1.307 . S
C87 O79 1.303 . S
C87 O80 1.247 . S
C88 O77 1.253 . S
C88 O78 1.283 . S
C89 O81 1.304 . S
C89 O83 1.272 . S
C90 O82 1.311 . S
C90 O84 1.231 . S
O91 Zn73 1.953 . S
O91 C85 1.298 . S
O92 Zn93 1.953 . S
O92 C108 1.225 . S
Zn93 O92 1.953 . S
Zn93 O94 1.949 . S
Zn93 O100 1.919 . S
Zn93 O105 1.924 . S
O94 Zn93 1.949 . S
O94 Zn95 1.923 . S
O94 Zn96 1.950 . S
O94 Zn97 1.945 . S
Zn95 O94 1.923 . S
Zn95 O98 1.933 1_554 S
Zn95 O101 1.941 . S
Zn95 O102 1.965 . S
Zn96 O94 1.950 . S
Zn96 O103 1.938 . S
Zn96 O104 1.906 . S
Zn96 O114 1.953 . S
Zn97 O94 1.945 . S
Zn97 O99 1.932 1_554 S
Zn97 O106 1.977 . S
Zn97 O107 1.910 . S
O98 Zn95 1.933 1_556 S
O98 C109 1.226 . S
O99 Zn97 1.932 1_556 S
O99 C109 1.307 . S
O100 Zn93 1.919 . S
O100 C111 1.253 . S
O101 Zn95 1.941 . S
O101 C111 1.283 . S
O102 Zn95 1.965 . S
O102 C110 1.303 . S
O103 Zn96 1.938 . S
O103 C110 1.247 . S
O104 Zn96 1.906 . S
O104 C112 1.304 . S
O105 Zn93 1.924 . S
O105 C113 1.311 . S
O106 Zn97 1.977 . S
O106 C112 1.272 . S
O107 Zn97 1.910 . S
O107 C113 1.231 . S
C108 O92 1.225 . S
C108 O114 1.298 . S
C109 O98 1.226 . S
C109 O99 1.307 . S
C110 O102 1.303 . S
C110 O103 1.247 . S
C111 O100 1.253 . S
C111 O101 1.283 . S
C112 O104 1.304 . S
C112 O106 1.272 . S
C113 O105 1.311 . S
C113 O107 1.231 . S
O114 Zn96 1.953 . S
O114 C108 1.298 . S
O115 Zn116 1.953 . S
O115 C131 1.225 . S
Zn116 O115 1.953 . S
Zn116 O117 1.949 . S
Zn116 O123 1.919 . S
Zn116 O128 1.924 . S
O117 Zn116 1.949 . S
O117 Zn118 1.923 . S
O117 Zn119 1.950 . S
O117 Zn120 1.945 . S
Zn118 O117 1.923 . S
Zn118 O121 1.933 1_554 S
Zn118 O124 1.941 . S
Zn118 O125 1.965 . S
Zn119 O117 1.950 . S
Zn119 O126 1.938 . S
Zn119 O127 1.906 . S
Zn119 O137 1.953 . S
Zn120 O117 1.945 . S
Zn120 O122 1.932 1_554 S
Zn120 O129 1.977 . S
Zn120 O130 1.910 . S
O121 Zn118 1.933 1_556 S
O121 C132 1.226 . S
O122 Zn120 1.932 1_556 S
O122 C132 1.307 . S
O123 Zn116 1.919 . S
O123 C134 1.253 . S
O124 Zn118 1.941 . S
O124 C134 1.283 . S
O125 Zn118 1.965 . S
O125 C133 1.303 . S
O126 Zn119 1.938 . S
O126 C133 1.247 . S
O127 Zn119 1.906 . S
O127 C135 1.304 . S
O128 Zn116 1.924 . S
O128 C136 1.311 . S
O129 Zn120 1.977 . S
O129 C135 1.272 . S
O130 Zn120 1.910 . S
O130 C136 1.231 . S
C131 O115 1.225 . S
C131 O137 1.298 . S
C132 O121 1.226 . S
C132 O122 1.307 . S
C133 O125 1.303 . S
C133 O126 1.247 . S
C134 O123 1.253 . S
C134 O124 1.283 . S
C135 O127 1.304 . S
C135 O129 1.272 . S
C136 O128 1.311 . S
C136 O130 1.231 . S
O137 Zn119 1.953 . S
O137 C131 1.298 . S
O138 Zn139 1.953 . S
O138 C154 1.225 . S
Zn139 O138 1.953 . S
Zn139 O140 1.949 . S
Zn139 O146 1.919 . S
Zn139 O151 1.924 . S
O140 Zn139 1.949 . S
O140 Zn141 1.923 . S
O140 Zn142 1.950 . S
O140 Zn143 1.945 . S
Zn141 O140 1.923 . S
Zn141 O144 1.933 1_556 S
Zn141 O147 1.941 . S
Zn141 O148 1.965 . S
Zn142 O140 1.950 . S
Zn142 O149 1.938 . S
Zn142 O150 1.906 . S
Zn142 O160 1.953 . S
Zn143 O140 1.945 . S
Zn143 O145 1.932 1_556 S
Zn143 O152 1.977 . S
Zn143 O153 1.910 . S
O144 Zn141 1.933 1_554 S
O144 C155 1.226 . S
O145 Zn143 1.932 1_554 S
O145 C155 1.307 . S
O146 Zn139 1.919 . S
O146 C157 1.253 . S
O147 Zn141 1.941 . S
O147 C157 1.283 . S
O148 Zn141 1.965 . S
O148 C156 1.303 . S
O149 Zn142 1.938 . S
O149 C156 1.247 . S
O150 Zn142 1.906 . S
O150 C158 1.304 . S
O151 Zn139 1.924 . S
O151 C159 1.311 . S
O152 Zn143 1.977 . S
O152 C158 1.272 . S
O153 Zn143 1.910 . S
O153 C159 1.231 . S
C154 O138 1.225 . S
C154 O160 1.298 . S
C155 O144 1.226 . S
C155 O145 1.307 . S
C156 O148 1.303 . S
C156 O149 1.247 . S
C157 O146 1.253 . S
C157 O147 1.283 . S
C158 O150 1.304 . S
C158 O152 1.272 . S
C159 O151 1.311 . S
C159 O153 1.231 . S
O160 Zn142 1.953 . S
O160 C154 1.298 . S
O161 Zn162 1.953 . S
O161 C177 1.225 . S
Zn162 O161 1.953 . S
Zn162 O163 1.949 . S
Zn162 O169 1.919 . S
Zn162 O174 1.924 . S
O163 Zn162 1.949 . S
O163 Zn164 1.923 . S
O163 Zn165 1.950 . S
O163 Zn166 1.945 . S
Zn164 O163 1.923 . S
Zn164 O167 1.933 1_556 S
Zn164 O170 1.941 . S
Zn164 O171 1.965 . S
Zn165 O163 1.950 . S
Zn165 O172 1.938 . S
Zn165 O173 1.906 . S
Zn165 O183 1.953 . S
Zn166 O163 1.945 . S
Zn166 O168 1.932 1_556 S
Zn166 O175 1.977 . S
Zn166 O176 1.910 . S
O167 Zn164 1.933 1_554 S
O167 C178 1.226 . S
O168 Zn166 1.932 1_554 S
O168 C178 1.307 . S
O169 Zn162 1.919 . S
O169 C180 1.253 . S
O170 Zn164 1.941 . S
O170 C180 1.283 . S
O171 Zn164 1.965 . S
O171 C179 1.303 . S
O172 Zn165 1.938 . S
O172 C179 1.247 . S
O173 Zn165 1.906 . S
O173 C181 1.304 . S
O174 Zn162 1.924 . S
O174 C182 1.311 . S
O175 Zn166 1.977 . S
O175 C181 1.272 . S
O176 Zn166 1.910 . S
O176 C182 1.231 . S
C177 O161 1.225 . S
C177 O183 1.298 . S
C178 O167 1.226 . S
C178 O168 1.307 . S
C179 O171 1.303 . S
C179 O172 1.247 . S
C180 O169 1.253 . S
C180 O170 1.283 . S
C181 O173 1.304 . S
C181 O175 1.272 . S
C182 O174 1.311 . S
C182 O176 1.231 . S
O183 Zn165 1.953 . S
O183 C177 1.298 . S
C184 C185 1.363 . S
C184 C190 1.379 . S
C184 N192 1.356 . S
C185 C184 1.363 . S
C185 C191 1.363 . S
C186 C187 1.363 . S
C186 C191 1.379 . S
C186 N193 1.356 . S
C187 C186 1.363 . S
C187 C190 1.363 . S
N188 C190 1.356 . S
N188 H200 0.984 . S
N188 H201 0.985 . S
N189 C191 1.356 . S
N189 H194 0.984 . S
N189 H195 0.985 . S
C190 C184 1.379 . S
C190 C187 1.363 . S
C190 N188 1.356 . S
C191 C185 1.363 . S
C191 C186 1.379 . S
C191 N189 1.356 . S
N192 C184 1.356 . S
N192 H198 0.984 . S
N192 H199 0.984 . S
N193 C186 1.356 . S
N193 H196 0.984 . S
N193 H197 0.985 . S
H194 N189 0.984 . S
H195 N189 0.985 . S
H196 N193 0.984 . S
H197 N193 0.985 . S
H198 N192 0.984 . S
H199 N192 0.984 . S
H200 N188 0.984 . S
H201 N188 0.985 . S
C202 C203 1.363 . S
C202 C208 1.379 . S
C202 N210 1.356 . S
C203 C202 1.363 . S
C203 C209 1.363 . S
C204 C205 1.363 . S
C204 C209 1.379 . S
C204 N211 1.356 . S
C205 C204 1.363 . S
C205 C208 1.363 . S
N206 C208 1.356 . S
N206 H218 0.984 . S
N206 H219 0.985 . S
N207 C209 1.356 . S
N207 H212 0.984 . S
N207 H213 0.985 . S
C208 C202 1.379 . S
C208 C205 1.363 . S
C208 N206 1.356 . S
C209 C203 1.363 . S
C209 C204 1.379 . S
C209 N207 1.356 . S
N210 C202 1.356 . S
N210 H216 0.984 . S
N210 H217 0.984 . S
N211 C204 1.356 . S
N211 H214 0.984 . S
N211 H215 0.985 . S
H212 N207 0.984 . S
H213 N207 0.985 . S
H214 N211 0.984 . S
H215 N211 0.985 . S
H216 N210 0.984 . S
H217 N210 0.984 . S
H218 N206 0.984 . S
H219 N206 0.985 . S
C220 C221 1.363 . S
C220 C226 1.379 . S
C220 N228 1.356 . S
C221 C220 1.363 . S
C221 C227 1.363 . S
C222 C223 1.363 . S
C222 C227 1.379 . S
C222 N229 1.356 . S
C223 C222 1.363 . S
C223 C226 1.363 . S
N224 C226 1.356 . S
N224 H236 0.984 . S
N224 H237 0.985 . S
N225 C227 1.356 . S
N225 H230 0.984 . S
N225 H231 0.985 . S
C226 C220 1.379 . S
C226 C223 1.363 . S
C226 N224 1.356 . S
C227 C221 1.363 . S
C227 C222 1.379 . S
C227 N225 1.356 . S
N228 C220 1.356 . S
N228 H234 0.984 . S
N228 H235 0.984 . S
N229 C222 1.356 . S
N229 H232 0.984 . S
N229 H233 0.985 . S
H230 N225 0.984 . S
H231 N225 0.985 . S
H232 N229 0.984 . S
H233 N229 0.985 . S
H234 N228 0.984 . S
H235 N228 0.984 . S
H236 N224 0.984 . S
H237 N224 0.985 . S
C238 C239 1.363 . S
C238 C244 1.379 . S
C238 N246 1.356 . S
C239 C238 1.363 . S
C239 C245 1.363 . S
C240 C241 1.363 . S
C240 C245 1.379 . S
C240 N247 1.356 . S
C241 C240 1.363 . S
C241 C244 1.363 . S
N242 C244 1.356 . S
N242 H254 0.984 . S
N242 H255 0.985 . S
N243 C245 1.356 . S
N243 H248 0.984 . S
N243 H249 0.985 . S
C244 C238 1.379 . S
C244 C241 1.363 . S
C244 N242 1.356 . S
C245 C239 1.363 . S
C245 C240 1.379 . S
C245 N243 1.356 . S
N246 C238 1.356 . S
N246 H252 0.984 . S
N246 H253 0.984 . S
N247 C240 1.356 . S
N247 H250 0.984 . S
N247 H251 0.985 . S
H248 N243 0.984 . S
H249 N243 0.985 . S
H250 N247 0.984 . S
H251 N247 0.985 . S
H252 N246 0.984 . S
H253 N246 0.984 . S
H254 N242 0.984 . S
H255 N242 0.985 . S
C256 C257 1.363 . S
C256 C262 1.379 1_565 S
C256 N264 1.356 . S
C257 C256 1.363 . S
C257 C263 1.363 . S
C258 C259 1.363 . S
C258 C263 1.379 1_545 S
C258 N265 1.356 . S
C259 C258 1.363 . S
C259 C262 1.363 . S
N260 C262 1.356 . S
N260 H272 0.984 . S
N260 H273 0.985 . S
N261 C263 1.356 . S
N261 H266 0.984 . S
N261 H267 0.985 . S
C262 C256 1.379 1_545 S
C262 C259 1.363 . S
C262 N260 1.356 . S
C263 C257 1.363 . S
C263 C258 1.379 1_565 S
C263 N261 1.356 . S
N264 C256 1.356 . S
N264 H270 0.984 . S
N264 H271 0.984 . S
N265 C258 1.356 . S
N265 H268 0.984 . S
N265 H269 0.985 . S
H266 N261 0.984 . S
H267 N261 0.985 . S
H268 N265 0.984 . S
H269 N265 0.985 . S
H270 N264 0.984 . S
H271 N264 0.984 . S
H272 N260 0.984 . S
H273 N260 0.985 . S
C274 C275 1.363 . S
C274 C280 1.379 . S
C274 N282 1.356 . S
C275 C274 1.363 . S
C275 C281 1.363 . S
C276 C277 1.363 . S
C276 C281 1.379 . S
C276 N283 1.356 . S
C277 C276 1.363 . S
C277 C280 1.363 . S
N278 C280 1.356 . S
N278 H290 0.984 . S
N278 H291 0.985 . S
N279 C281 1.356 . S
N279 H284 0.984 . S
N279 H285 0.985 . S
C280 C274 1.379 . S
C280 C277 1.363 . S
C280 N278 1.356 . S
C281 C275 1.363 . S
C281 C276 1.379 . S
C281 N279 1.356 . S
N282 C274 1.356 . S
N282 H288 0.984 . S
N282 H289 0.984 . S
N283 C276 1.356 . S
N283 H286 0.984 . S
N283 H287 0.985 . S
H284 N279 0.984 . S
H285 N279 0.985 . S
H286 N283 0.984 . S
H287 N283 0.985 . S
H288 N282 0.984 . S
H289 N282 0.984 . S
H290 N278 0.984 . S
H291 N278 0.985 . S
C292 C293 1.363 . S
C292 C298 1.379 1_565 S
C292 N300 1.356 . S
C293 C292 1.363 . S
C293 C299 1.363 . S
C294 C295 1.363 . S
C294 C299 1.379 1_545 S
C294 N301 1.356 . S
C295 C294 1.363 . S
C295 C298 1.363 . S
N296 C298 1.356 . S
N296 H308 0.984 . S
N296 H309 0.985 . S
N297 C299 1.356 . S
N297 H302 0.984 . S
N297 H303 0.985 . S
C298 C292 1.379 1_545 S
C298 C295 1.363 . S
C298 N296 1.356 . S
C299 C293 1.363 . S
C299 C294 1.379 1_565 S
C299 N297 1.356 . S
N300 C292 1.356 . S
N300 H306 0.984 . S
N300 H307 0.984 . S
N301 C294 1.356 . S
N301 H304 0.984 . S
N301 H305 0.985 . S
H302 N297 0.984 . S
H303 N297 0.985 . S
H304 N301 0.984 . S
H305 N301 0.985 . S
H306 N300 0.984 . S
H307 N300 0.984 . S
H308 N296 0.984 . S
H309 N296 0.985 . S
C310 C311 1.363 . S
C310 C316 1.379 . S
C310 N318 1.356 . S
C311 C310 1.363 . S
C311 C317 1.363 . S
C312 C313 1.363 . S
C312 C317 1.379 . S
C312 N319 1.356 . S
C313 C312 1.363 . S
C313 C316 1.363 . S
N314 C316 1.356 . S
N314 H326 0.984 . S
N314 H327 0.985 . S
N315 C317 1.356 . S
N315 H320 0.984 . S
N315 H321 0.985 . S
C316 C310 1.379 . S
C316 C313 1.363 . S
C316 N314 1.356 . S
C317 C311 1.363 . S
C317 C312 1.379 . S
C317 N315 1.356 . S
N318 C310 1.356 . S
N318 H324 0.984 . S
N318 H325 0.984 . S
N319 C312 1.356 . S
N319 H322 0.984 . S
N319 H323 0.985 . S
H320 N315 0.984 . S
H321 N315 0.985 . S
H322 N319 0.984 . S
H323 N319 0.985 . S
H324 N318 0.984 . S
H325 N318 0.984 . S
H326 N314 0.984 . S
H327 N314 0.985 . S
C328 C329 1.363 1_556 S
C328 C334 1.379 . S
C328 N336 1.356 . S
C329 C328 1.363 1_554 S
C329 C335 1.363 . S
C330 C331 1.363 1_554 S
C330 C335 1.379 . S
C330 N337 1.356 . S
C331 C330 1.363 1_556 S
C331 C334 1.363 . S
N332 C334 1.356 . S
N332 H344 0.984 . S
N332 H345 0.985 . S
N333 C335 1.356 . S
N333 H338 0.984 . S
N333 H339 0.985 . S
C334 C328 1.379 . S
C334 C331 1.363 . S
C334 N332 1.356 . S
C335 C329 1.363 . S
C335 C330 1.379 . S
C335 N333 1.356 . S
N336 C328 1.356 . S
N336 H342 0.984 . S
N336 H343 0.984 . S
N337 C330 1.356 . S
N337 H340 0.984 . S
N337 H341 0.985 . S
H338 N333 0.984 . S
H339 N333 0.985 . S
H340 N337 0.984 . S
H341 N337 0.985 . S
H342 N336 0.984 . S
H343 N336 0.984 . S
H344 N332 0.984 . S
H345 N332 0.985 . S
C346 C347 1.363 1_556 S
C346 C352 1.379 1_565 S
C346 N354 1.356 . S
C347 C346 1.363 1_554 S
C347 C353 1.363 . S
C348 C349 1.363 1_554 S
C348 C353 1.379 1_545 S
C348 N355 1.356 . S
C349 C348 1.363 1_556 S
C349 C352 1.363 . S
N350 C352 1.356 . S
N350 H362 0.984 . S
N350 H363 0.985 . S
N351 C353 1.356 . S
N351 H356 0.984 . S
N351 H357 0.985 . S
C352 C346 1.379 1_545 S
C352 C349 1.363 . S
C352 N350 1.356 . S
C353 C347 1.363 . S
C353 C348 1.379 1_565 S
C353 N351 1.356 . S
N354 C346 1.356 . S
N354 H360 0.984 . S
N354 H361 0.984 . S
N355 C348 1.356 . S
N355 H358 0.984 . S
N355 H359 0.985 . S
H356 N351 0.984 . S
H357 N351 0.985 . S
H358 N355 0.984 . S
H359 N355 0.985 . S
H360 N354 0.984 . S
H361 N354 0.984 . S
H362 N350 0.984 . S
H363 N350 0.985 . S
C364 C365 1.363 . S
C364 C370 1.379 . S
C364 N372 1.356 . S
C365 C364 1.363 . S
C365 C371 1.363 1_556 S
C366 C367 1.363 . S
C366 C371 1.379 . S
C366 N373 1.356 . S
C367 C366 1.363 . S
C367 C370 1.363 1_554 S
N368 C370 1.356 . S
N368 H380 0.984 . S
N368 H381 0.985 . S
N369 C371 1.356 . S
N369 H374 0.984 . S
N369 H375 0.985 . S
C370 C364 1.379 . S
C370 C367 1.363 1_556 S
C370 N368 1.356 . S
C371 C365 1.363 1_554 S
C371 C366 1.379 . S
C371 N369 1.356 . S
N372 C364 1.356 . S
N372 H378 0.984 . S
N372 H379 0.984 . S
N373 C366 1.356 . S
N373 H376 0.984 . S
N373 H377 0.985 . S
H374 N369 0.984 . S
H375 N369 0.985 . S
H376 N373 0.984 . S
H377 N373 0.985 . S
H378 N372 0.984 . S
H379 N372 0.984 . S
H380 N368 0.984 . S
H381 N368 0.985 . S
C382 C383 1.363 1_554 S
C382 C388 1.379 1_545 S
C382 N390 1.356 . S
C383 C382 1.363 1_556 S
C383 C389 1.363 . S
C384 C385 1.363 1_556 S
C384 C389 1.379 1_565 S
C384 N391 1.356 . S
C385 C384 1.363 1_554 S
C385 C388 1.363 . S
N386 C388 1.356 . S
N386 H398 0.984 . S
N386 H399 0.985 . S
N387 C389 1.356 . S
N387 H392 0.984 . S
N387 H393 0.985 . S
C388 C382 1.379 1_565 S
C388 C385 1.363 . S
C388 N386 1.356 . S
C389 C383 1.363 . S
C389 C384 1.379 1_545 S
C389 N387 1.356 . S
N390 C382 1.356 . S
N390 H396 0.984 . S
N390 H397 0.984 . S
N391 C384 1.356 . S
N391 H394 0.984 . S
N391 H395 0.985 . S
H392 N387 0.984 . S
H393 N387 0.985 . S
H394 N391 0.984 . S
H395 N391 0.985 . S
H396 N390 0.984 . S
H397 N390 0.984 . S
H398 N386 0.984 . S
H399 N386 0.985 . S
C400 C401 1.363 . S
C400 C406 1.379 . S
C400 N408 1.356 . S
C401 C400 1.363 . S
C401 C407 1.363 . S
C402 C403 1.363 1_554 S
C402 C407 1.379 . S
C402 N409 1.356 1_554 S
C403 C402 1.363 1_556 S
C403 C406 1.363 1_556 S
N404 C406 1.356 1_556 S
N404 H416 0.984 1_556 S
N404 H417 0.985 . S
N405 C407 1.356 . S
N405 H410 0.984 . S
N405 H411 0.985 . S
C406 C400 1.379 . S
C406 C403 1.363 1_554 S
C406 N404 1.356 1_554 S
C407 C401 1.363 . S
C407 C402 1.379 . S
C407 N405 1.356 . S
N408 C400 1.356 . S
N408 H414 0.984 . S
N408 H415 0.984 . S
N409 C402 1.356 1_556 S
N409 H412 0.984 . S
N409 H413 0.985 . S
H410 N405 0.984 . S
H411 N405 0.985 . S
H412 N409 0.984 . S
H413 N409 0.985 . S
H414 N408 0.984 . S
H415 N408 0.984 . S
H416 N404 0.984 1_554 S
H417 N404 0.985 . S
C418 C419 1.363 . S
C418 C424 1.379 . S
C418 N426 1.356 . S
C419 C418 1.363 . S
C419 C425 1.363 . S
C420 C421 1.363 1_554 S
C420 C425 1.379 . S
C420 N427 1.356 1_554 S
C421 C420 1.363 1_556 S
C421 C424 1.363 1_556 S
N422 C424 1.356 1_556 S
N422 H434 0.984 1_556 S
N422 H435 0.985 . S
N423 C425 1.356 . S
N423 H428 0.984 . S
N423 H429 0.985 . S
C424 C418 1.379 . S
C424 C421 1.363 1_554 S
C424 N422 1.356 1_554 S
C425 C419 1.363 . S
C425 C420 1.379 . S
C425 N423 1.356 . S
N426 C418 1.356 . S
N426 H432 0.984 . S
N426 H433 0.984 . S
N427 C420 1.356 1_556 S
N427 H430 0.984 . S
N427 H431 0.985 . S
H428 N423 0.984 . S
H429 N423 0.985 . S
H430 N427 0.984 . S
H431 N427 0.985 . S
H432 N426 0.984 . S
H433 N426 0.984 . S
H434 N422 0.984 1_554 S
H435 N422 0.985 . S
C436 C437 1.363 1_556 S
C436 C442 1.379 . S
C436 N444 1.356 1_556 S
C437 C436 1.363 1_554 S
C437 C443 1.363 1_554 S
C438 C439 1.363 . S
C438 C443 1.379 . S
C438 N445 1.356 . S
C439 C438 1.363 . S
C439 C442 1.363 . S
N440 C442 1.356 . S
N440 H452 0.984 . S
N440 H453 0.985 . S
N441 C443 1.356 1_554 S
N441 H446 0.984 . S
N441 H447 0.985 . S
C442 C436 1.379 . S
C442 C439 1.363 . S
C442 N440 1.356 . S
C443 C437 1.363 1_556 S
C443 C438 1.379 . S
C443 N441 1.356 1_556 S
N444 C436 1.356 1_554 S
N444 H450 0.984 1_554 S
N444 H451 0.984 . S
N445 C438 1.356 . S
N445 H448 0.984 . S
N445 H449 0.985 . S
H446 N441 0.984 . S
H447 N441 0.985 . S
H448 N445 0.984 . S
H449 N445 0.985 . S
H450 N444 0.984 1_556 S
H451 N444 0.984 . S
H452 N440 0.984 . S
H453 N440 0.985 . S
C454 C455 1.363 . S
C454 C460 1.379 . S
C454 N462 1.356 . S
C455 C454 1.363 . S
C455 C461 1.363 . S
C456 C457 1.363 1_556 S
C456 C461 1.379 . S
C456 N463 1.356 1_556 S
C457 C456 1.363 1_554 S
C457 C460 1.363 1_554 S
N458 C460 1.356 1_554 S
N458 H470 0.984 1_554 S
N458 H471 0.985 . S
N459 C461 1.356 . S
N459 H464 0.984 . S
N459 H465 0.985 . S
C460 C454 1.379 . S
C460 C457 1.363 1_556 S
C460 N458 1.356 1_556 S
C461 C455 1.363 . S
C461 C456 1.379 . S
C461 N459 1.356 . S
N462 C454 1.356 . S
N462 H468 0.984 . S
N462 H469 0.984 . S
N463 C456 1.356 1_554 S
N463 H466 0.984 . S
N463 H467 0.985 . S
H464 N459 0.984 . S
H465 N459 0.985 . S
H466 N463 0.984 . S
H467 N463 0.985 . S
H468 N462 0.984 . S
H469 N462 0.984 . S
H470 N458 0.984 1_556 S
H471 N458 0.985 . S
C472 C473 1.363 . S
C472 C478 1.379 . S
C472 N480 1.356 . S
C473 C472 1.363 . S
C473 C479 1.363 . S
C474 C475 1.363 . S
C474 C479 1.379 . S
C474 N481 1.356 . S
C475 C474 1.363 . S
C475 C478 1.363 . S
N476 C478 1.356 . S
N476 H488 0.984 . S
N476 H489 0.985 . S
N477 C479 1.356 . S
N477 H482 0.984 . S
N477 H483 0.985 . S
C478 C472 1.379 . S
C478 C475 1.363 . S
C478 N476 1.356 . S
C479 C473 1.363 . S
C479 C474 1.379 . S
C479 N477 1.356 . S
N480 C472 1.356 . S
N480 H486 0.984 . S
N480 H487 0.984 . S
N481 C474 1.356 . S
N481 H484 0.984 . S
N481 H485 0.985 . S
H482 N477 0.984 . S
H483 N477 0.985 . S
H484 N481 0.984 . S
H485 N481 0.985 . S
H486 N480 0.984 . S
H487 N480 0.984 . S
H488 N476 0.984 . S
H489 N476 0.985 . S
C490 C491 1.363 . S
C490 C496 1.379 . S
C490 N498 1.356 . S
C491 C490 1.363 . S
C491 C497 1.363 . S
C492 C493 1.363 . S
C492 C497 1.379 . S
C492 N499 1.356 . S
C493 C492 1.363 . S
C493 C496 1.363 . S
N494 C496 1.356 . S
N494 H506 0.984 . S
N494 H507 0.985 . S
N495 C497 1.356 . S
N495 H500 0.984 . S
N495 H501 0.985 . S
C496 C490 1.379 . S
C496 C493 1.363 . S
C496 N494 1.356 . S
C497 C491 1.363 . S
C497 C492 1.379 . S
C497 N495 1.356 . S
N498 C490 1.356 . S
N498 H504 0.984 . S
N498 H505 0.984 . S
N499 C492 1.356 . S
N499 H502 0.984 . S
N499 H503 0.985 . S
H500 N495 0.984 . S
H501 N495 0.985 . S
H502 N499 0.984 . S
H503 N499 0.985 . S
H504 N498 0.984 . S
H505 N498 0.984 . S
H506 N494 0.984 . S
H507 N494 0.985 . S
C508 C509 1.363 . S
C508 C514 1.379 . S
C508 N516 1.356 . S
C509 C508 1.363 . S
C509 C515 1.363 . S
C510 C511 1.363 . S
C510 C515 1.379 . S
C510 N517 1.356 . S
C511 C510 1.363 . S
C511 C514 1.363 . S
N512 C514 1.356 . S
N512 H524 0.984 . S
N512 H525 0.985 . S
N513 C515 1.356 . S
N513 H518 0.984 . S
N513 H519 0.985 . S
C514 C508 1.379 . S
C514 C511 1.363 . S
C514 N512 1.356 . S
C515 C509 1.363 . S
C515 C510 1.379 . S
C515 N513 1.356 . S
N516 C508 1.356 . S
N516 H522 0.984 . S
N516 H523 0.984 . S
N517 C510 1.356 . S
N517 H520 0.984 . S
N517 H521 0.985 . S
H518 N513 0.984 . S
H519 N513 0.985 . S
H520 N517 0.984 . S
H521 N517 0.985 . S
H522 N516 0.984 . S
H523 N516 0.984 . S
H524 N512 0.984 . S
H525 N512 0.985 . S
C526 C527 1.363 . S
C526 C532 1.379 . S
C526 N534 1.356 . S
C527 C526 1.363 . S
C527 C533 1.363 . S
C528 C529 1.363 . S
C528 C533 1.379 . S
C528 N535 1.356 . S
C529 C528 1.363 . S
C529 C532 1.363 . S
N530 C532 1.356 . S
N530 H542 0.984 . S
N530 H543 0.985 . S
N531 C533 1.356 . S
N531 H536 0.984 . S
N531 H537 0.985 . S
C532 C526 1.379 . S
C532 C529 1.363 . S
C532 N530 1.356 . S
C533 C527 1.363 . S
C533 C528 1.379 . S
C533 N531 1.356 . S
N534 C526 1.356 . S
N534 H540 0.984 . S
N534 H541 0.984 . S
N535 C528 1.356 . S
N535 H538 0.984 . S
N535 H539 0.985 . S
H536 N531 0.984 . S
H537 N531 0.985 . S
H538 N535 0.984 . S
H539 N535 0.985 . S
H540 N534 0.984 . S
H541 N534 0.984 . S
H542 N530 0.984 . S
H543 N530 0.985 . S
C544 C545 1.363 . S
C544 C550 1.379 1_455 S
C544 N552 1.356 . S
C545 C544 1.363 . S
C545 C551 1.363 . S
C546 C547 1.363 . S
C546 C551 1.379 1_655 S
C546 N553 1.356 . S
C547 C546 1.363 . S
C547 C550 1.363 . S
N548 C550 1.356 . S
N548 H560 0.984 . S
N548 H561 0.985 . S
N549 C551 1.356 . S
N549 H554 0.984 . S
N549 H555 0.985 . S
C550 C544 1.379 1_655 S
C550 C547 1.363 . S
C550 N548 1.356 . S
C551 C545 1.363 . S
C551 C546 1.379 1_455 S
C551 N549 1.356 . S
N552 C544 1.356 . S
N552 H558 0.984 . S
N552 H559 0.984 . S
N553 C546 1.356 . S
N553 H556 0.984 . S
N553 H557 0.985 . S
H554 N549 0.984 . S
H555 N549 0.985 . S
H556 N553 0.984 . S
H557 N553 0.985 . S
H558 N552 0.984 . S
H559 N552 0.984 . S
H560 N548 0.984 . S
H561 N548 0.985 . S
C562 C563 1.363 . S
C562 C568 1.379 1_655 S
C562 N570 1.356 . S
C563 C562 1.363 . S
C563 C569 1.363 . S
C564 C565 1.363 . S
C564 C569 1.379 1_455 S
C564 N571 1.356 . S
C565 C564 1.363 . S
C565 C568 1.363 . S
N566 C568 1.356 . S
N566 H578 0.984 . S
N566 H579 0.985 . S
N567 C569 1.356 . S
N567 H572 0.984 . S
N567 H573 0.985 . S
C568 C562 1.379 1_455 S
C568 C565 1.363 . S
C568 N566 1.356 . S
C569 C563 1.363 . S
C569 C564 1.379 1_655 S
C569 N567 1.356 . S
N570 C562 1.356 . S
N570 H576 0.984 . S
N570 H577 0.984 . S
N571 C564 1.356 . S
N571 H574 0.984 . S
N571 H575 0.985 . S
H572 N567 0.984 . S
H573 N567 0.985 . S
H574 N571 0.984 . S
H575 N571 0.985 . S
H576 N570 0.984 . S
H577 N570 0.984 . S
H578 N566 0.984 . S
H579 N566 0.985 . S
C580 C581 1.363 . S
C580 C586 1.379 . S
C580 N588 1.356 . S
C581 C580 1.363 . S
C581 C587 1.363 . S
C582 C583 1.363 . S
C582 C587 1.379 . S
C582 N589 1.356 . S
C583 C582 1.363 . S
C583 C586 1.363 . S
N584 C586 1.356 . S
N584 H596 0.984 . S
N584 H597 0.985 . S
N585 C587 1.356 . S
N585 H590 0.984 . S
N585 H591 0.985 1_554 S
C586 C580 1.379 . S
C586 C583 1.363 . S
C586 N584 1.356 . S
C587 C581 1.363 . S
C587 C582 1.379 . S
C587 N585 1.356 . S
N588 C580 1.356 . S
N588 H594 0.984 . S
N588 H595 0.984 . S
N589 C582 1.356 . S
N589 H592 0.984 . S
N589 H593 0.985 1_554 S
H590 N585 0.984 . S
H591 N585 0.985 1_556 S
H592 N589 0.984 . S
H593 N589 0.985 1_556 S
H594 N588 0.984 . S
H595 N588 0.984 . S
H596 N584 0.984 . S
H597 N584 0.985 . S
C598 C599 1.363 . S
C598 C604 1.379 . S
C598 N606 1.356 . S
C599 C598 1.363 . S
C599 C605 1.363 . S
C600 C601 1.363 . S
C600 C605 1.379 . S
C600 N607 1.356 . S
C601 C600 1.363 . S
C601 C604 1.363 . S
N602 C604 1.356 . S
N602 H614 0.984 1_556 S
N602 H615 0.985 . S
N603 C605 1.356 . S
N603 H608 0.984 . S
N603 H609 0.985 . S
C604 C598 1.379 . S
C604 C601 1.363 . S
C604 N602 1.356 . S
C605 C599 1.363 . S
C605 C600 1.379 . S
C605 N603 1.356 . S
N606 C598 1.356 . S
N606 H612 0.984 1_556 S
N606 H613 0.984 . S
N607 C600 1.356 . S
N607 H610 0.984 . S
N607 H611 0.985 . S
H608 N603 0.984 . S
H609 N603 0.985 . S
H610 N607 0.984 . S
H611 N607 0.985 . S
H612 N606 0.984 1_554 S
H613 N606 0.984 . S
H614 N602 0.984 1_554 S
H615 N602 0.985 . S
C185 C18 1.467 . S
C187 C179 1.467 . S
C203 C156 1.467 . S
C205 C41 1.467 . S
C221 C133 1.467 . S
C223 C64 1.467 . S
C239 C110 1.467 . S
C241 C87 1.467 . S
C257 C66 1.552 . S
C259 C20 1.552 . S
C275 C43 1.552 . S
C277 C89 1.552 . S
C293 C88 1.527 . S
C295 C42 1.527 . S
C311 C65 1.527 . S
C313 C19 1.527 . S
C329 C112 1.552 . S
C331 C158 1.552 . S
C347 C135 1.552 . S
C349 C181 1.552 . S
C365 C180 1.527 . S
C367 C134 1.527 . S
C383 C157 1.527 . S
C385 C111 1.527 . S
C401 C17 1.422 . S
C403 C16 1.420 . S
C419 C40 1.422 . S
C421 C39 1.420 . S
C437 C62 1.420 . S
C439 C63 1.422 . S
C455 C86 1.422 . S
C457 C85 1.420 . S
C473 C108 1.420 . S
C475 C109 1.422 . S
C491 C132 1.422 . S
C493 C131 1.420 . S
C509 C155 1.422 . S
C511 C154 1.420 . S
C527 C178 1.422 . S
C529 C177 1.420 . S
C545 C21 1.474 . S
C547 C44 1.474 . S
C563 C90 1.474 . S
C565 C67 1.474 . S
C581 C113 1.474 . S
C583 C136 1.474 . S
C599 C182 1.474 . S
C601 C159 1.474 . S
