# Generated by pormake.
# Topology mdf, (4)-cn, num edge types: 1
# Building blocks:
#     Node 0, Type 0, BuildingBlock: AZAVOO_clean_sbu_0, # of connection points: 4
#     Node 1, Type 0, BuildingBlock: AZAVOO_clean_sbu_0, # of connection points: 4
#     Node 2, Type 0, BuildingBlock: AZAVOO_clean_sbu_0, # of connection points: 4
#     Node 3, Type 0, BuildingBlock: AZAVOO_clean_sbu_0, # of connection points: 4
#     Node 4, Type 0, BuildingBlock: AZAVOO_clean_sbu_0, # of connection points: 4
#     Node 5, Type 0, BuildingBlock: AZAVOO_clean_sbu_0, # of connection points: 4
#     Node 6, Type 0, BuildingBlock: AZAVOO_clean_sbu_0, # of connection points: 4
#     Node 7, Type 0, BuildingBlock: AZAVOO_clean_sbu_0, # of connection points: 4
#     Edge 8, Type (0, 0), BuildingBlock: MIFKUJ_clean_linker_0, # of connection points: 2
#     Edge 9, Type (0, 0), BuildingBlock: MIFKUJ_clean_linker_0, # of connection points: 2
#     Edge 10, Type (0, 0), BuildingBlock: MIFKUJ_clean_linker_0, # of connection points: 2
#     Edge 11, Type (0, 0), BuildingBlock: MIFKUJ_clean_linker_0, # of connection points: 2
#     Edge 12, Type (0, 0), BuildingBlock: MIFKUJ_clean_linker_0, # of connection points: 2
#     Edge 13, Type (0, 0), BuildingBlock: MIFKUJ_clean_linker_0, # of connection points: 2
#     Edge 14, Type (0, 0), BuildingBlock: MIFKUJ_clean_linker_0, # of connection points: 2
#     Edge 15, Type (0, 0), BuildingBlock: MIFKUJ_clean_linker_0, # of connection points: 2
#     Edge 16, Type (0, 0), BuildingBlock: MIFKUJ_clean_linker_0, # of connection points: 2
#     Edge 17, Type (0, 0), BuildingBlock: MIFKUJ_clean_linker_0, # of connection points: 2
#     Edge 18, Type (0, 0), BuildingBlock: MIFKUJ_clean_linker_0, # of connection points: 2
#     Edge 19, Type (0, 0), BuildingBlock: MIFKUJ_clean_linker_0, # of connection points: 2
#     Edge 20, Type (0, 0), BuildingBlock: MIFKUJ_clean_linker_0, # of connection points: 2
#     Edge 21, Type (0, 0), BuildingBlock: MIFKUJ_clean_linker_0, # of connection points: 2
#     Edge 22, Type (0, 0), BuildingBlock: MIFKUJ_clean_linker_0, # of connection points: 2
#     Edge 23, Type (0, 0), BuildingBlock: MIFKUJ_clean_linker_0, # of connection points: 2
# Relax obj value: 0.039
# Max RMSD: 0.047
# Mean RMSD: 0.047
data_MOF--net-mdf--node1-AZAVOO_clean_sbu_0--edge1-MIFKUJ_clean_linker_0
_symmetry_space_group_name_H-M    P1
_symmetry_Int_Tables_number       1
_symmetry_cell_setting            triclinic
loop_
_symmetry_equiv_pos_as_xyz
'x, y, z'
_cell_length_a     44.14427
_cell_length_b     44.154182
_cell_length_c     20.46917
_cell_angle_alpha  89.972863
_cell_angle_beta   90.009812
_cell_angle_gamma 94.606464
loop_
_atom_site_label
_atom_site_type_symbol
_atom_site_fract_x
_atom_site_fract_y
_atom_site_fract_z
_atom_type_partial_charge
Mg0 Mg 0.2689 0.5617 0.39033 0.0
O1 O 0.23231 0.52557 0.35257 0.0
O2 O 0.25486 0.49872 0.2766 0.0
Mg3 Mg 0.30351 0.51871 0.26188 0.0
C4 C 0.23172 0.50391 0.311 0.0
C5 C 0.24127 0.61354 0.46176 0.0
O6 O 0.26729 0.62654 0.4408 0.0
O7 O 0.26365 0.59049 0.29981 0.0
O8 O 0.28595 0.56348 0.22397 0.0
O9 O 0.28393 0.52895 0.46318 0.0
O10 O 0.30328 0.53424 0.36388 0.0
C11 C 0.27226 0.58666 0.24115 0.0
C12 C 0.30203 0.51987 0.41883 0.0
O13 O 0.23375 0.5862 0.44554 0.0
Mg14 Mg 0.44262 0.73141 0.60736 0.0
O15 O 0.47655 0.76933 0.64887 0.0
O16 O 0.50314 0.74686 0.72556 0.0
Mg17 Mg 0.48524 0.69761 0.73775 0.0
C18 C 0.49765 0.77015 0.69192 0.0
C19 C 0.41414 0.75666 0.49037 0.0
O20 O 0.42547 0.73141 0.47205 0.0
O21 O 0.41206 0.73431 0.69546 0.0
O22 O 0.43934 0.71344 0.77325 0.0
O23 O 0.47726 0.71961 0.53664 0.0
O24 O 0.47191 0.69854 0.63438 0.0
C25 C 0.41579 0.72605 0.75434 0.0
C26 C 0.48692 0.70157 0.58029 0.0
O27 O 0.41676 0.76489 0.54975 0.0
Mg28 Mg 0.22536 0.93974 0.89174 0.0
O29 O 0.26217 0.97393 0.84757 0.0
O30 O 0.23788 0.00203 0.77648 0.0
Mg31 Mg 0.1885 0.98373 0.76815 0.0
C32 C 0.26195 0.99576 0.80649 0.0
C33 C 0.24855 0.90538 1.0 0.0
O34 O 0.22052 0.91139 0.0132 0.0
O35 O 0.22721 0.91 0.80156 0.0
O36 O 0.20455 0.93872 0.72931 0.0
O37 O 0.21469 0.97436 0.96472 0.0
O38 O 0.19159 0.9684 0.86916 0.0
C39 C 0.21776 0.91487 0.74392 0.0
C40 C 0.19573 0.98368 0.92247 0.0
O41 O 0.26001 0.9141 0.94554 0.0
Mg42 Mg 0.05313 0.76197 0.10832 0.0
O43 O 0.02061 0.72116 0.13978 0.0
O44 O 0.99276 0.73724 0.2224 0.0
Mg45 Mg 0.00633 0.78714 0.24219 0.0
C46 C 0.00014 0.71645 0.18359 0.0
C47 C 0.10201 0.74618 0.0136 0.0
O48 O 0.10756 0.77551 0.02358 0.0
O49 O 0.08243 0.75575 0.19856 0.0
O50 O 0.05232 0.77214 0.27675 0.0
O51 O 0.01837 0.77614 0.03887 0.0
O52 O 0.02247 0.79212 0.14111 0.0
C53 C 0.07689 0.76123 0.25844 0.0
C54 C 0.00792 0.79153 0.08648 0.0
O55 O 0.08074 0.73192 0.04572 0.0
Mg56 Mg 0.76941 0.05388 0.90432 0.0
O57 O 0.73594 0.01885 0.85382 0.0
O58 O 0.76351 0.99081 0.78906 0.0
Mg59 Mg 0.81322 0.00974 0.79277 0.0
C60 C 0.73813 0.99705 0.8135 0.0
C61 C 0.74145 0.10163 0.98073 0.0
O62 O 0.7709 0.10896 0.98016 0.0
O63 O 0.77155 0.08259 0.81161 0.0
O64 O 0.80016 0.0549 0.74866 0.0
O65 O 0.77807 0.01986 0.9816 0.0
O66 O 0.80507 0.02645 0.89106 0.0
C67 C 0.78552 0.07836 0.75816 0.0
C68 C 0.79953 0.01151 0.94425 0.0
O69 O 0.73112 0.07885 0.94732 0.0
Mg70 Mg 0.94431 0.23041 0.11372 0.0
O71 O 0.97928 0.26582 0.16017 0.0
O72 O 0.00745 0.23993 0.22821 0.0
Mg73 Mg 0.98856 0.19042 0.23237 0.0
C74 C 0.00129 0.26463 0.20056 0.0
C75 C 0.91374 0.25808 0.00391 0.0
O76 O 0.92214 0.23154 0.9853 0.0
O77 O 0.91497 0.2309 0.20562 0.0
O78 O 0.94373 0.20566 0.27322 0.0
O79 O 0.97885 0.22001 0.03928 0.0
O80 O 0.97216 0.19548 0.1329 0.0
C81 C 0.91992 0.21947 0.26159 0.0
C82 C 0.98735 0.19983 0.07964 0.0
O83 O 0.91918 0.26663 0.06239 0.0
Mg84 Mg 0.72542 0.44106 0.40066 0.0
O85 O 0.76508 0.4698 0.35177 0.0
O86 O 0.74486 0.49528 0.26998 0.0
Mg87 Mg 0.69368 0.48438 0.26827 0.0
C88 C 0.76765 0.48814 0.30335 0.0
C89 C 0.75012 0.41251 0.51818 0.0
O90 O 0.72521 0.42465 0.53609 0.0
O91 O 0.7233 0.40788 0.31511 0.0
O92 O 0.70331 0.43609 0.23764 0.0
O93 O 0.71829 0.47894 0.46822 0.0
O94 O 0.69543 0.4729 0.37257 0.0
C95 C 0.71377 0.41148 0.25698 0.0
C96 C 0.70041 0.48899 0.42464 0.0
O97 O 0.75789 0.41398 0.4584 0.0
Mg98 Mg 0.55204 0.26548 0.60179 0.0
O99 O 0.51666 0.22918 0.64232 0.0
O100 O 0.48917 0.25162 0.71727 0.0
Mg101 Mg 0.50909 0.3004 0.73024 0.0
C102 C 0.49504 0.22838 0.68394 0.0
C103 C 0.60241 0.2336 0.5279 0.0
O104 O 0.61927 0.25659 0.55292 0.0
O105 O 0.58157 0.26037 0.69228 0.0
O106 O 0.55344 0.28196 0.76741 0.0
O107 O 0.51813 0.27979 0.53061 0.0
O108 O 0.52488 0.30021 0.62864 0.0
C109 C 0.57686 0.26844 0.7511 0.0
C110 C 0.50974 0.29835 0.57471 0.0
O111 O 0.57455 0.22969 0.54373 0.0
H112 H 0.35978 0.69732 0.74617 0.0
H113 H 0.32217 0.69116 0.83295 0.0
H114 H 0.37732 0.75446 0.95319 0.0
H115 H 0.41638 0.75808 0.86783 0.0
H116 H 0.36535 0.71137 0.02153 0.0
H117 H 0.29696 0.7656 0.90418 0.0
H118 H 0.26962 0.78417 0.80899 0.0
H119 H 0.22771 0.69457 0.77577 0.0
H120 H 0.25429 0.67535 0.87129 0.0
H121 H 0.26973 0.64738 0.26475 0.0
H122 H 0.27836 0.6885 0.18497 0.0
H123 H 0.27748 0.62272 0.02922 0.0
H124 H 0.26944 0.58153 0.10857 0.0
H125 H 0.25477 0.68427 0.9951 0.0
H126 H 0.34089 0.63436 0.0999 0.0
H127 H 0.36778 0.62034 0.1998 0.0
H128 H 0.37508 0.71355 0.2617 0.0
H129 H 0.34762 0.72799 0.16258 0.0
C130 C 0.36341 0.71042 0.79064 0.0
C131 C 0.39081 0.72801 0.80092 0.0
C132 C 0.34167 0.70728 0.84017 0.0
C133 C 0.34643 0.72262 0.90006 0.0
C134 C 0.373 0.74218 0.90791 0.0
C135 C 0.39528 0.74438 0.85921 0.0
C136 C 0.32669 0.71389 0.95729 0.0
C137 C 0.34098 0.70673 0.01605 0.0
C138 C 0.29474 0.70772 0.95157 0.0
C139 C 0.27769 0.71904 0.89509 0.0
C140 C 0.28182 0.74982 0.87672 0.0
C141 C 0.26633 0.76047 0.82282 0.0
C142 C 0.24672 0.74055 0.78662 0.0
C143 C 0.24251 0.70997 0.80444 0.0
C144 C 0.25766 0.69922 0.8587 0.0
C145 C 0.27026 0.64171 0.2133 0.0
C146 C 0.26953 0.61122 0.19289 0.0
C147 C 0.27501 0.66526 0.16777 0.0
C148 C 0.27866 0.65859 0.10131 0.0
C149 C 0.27452 0.62832 0.08025 0.0
C150 C 0.27028 0.60479 0.12572 0.0
C151 C 0.29393 0.68134 0.05673 0.0
C152 C 0.27886 0.69066 0.00071 0.0
C153 C 0.32499 0.69076 0.06574 0.0
C154 C 0.34196 0.68216 0.12444 0.0
C155 C 0.34806 0.6518 0.13507 0.0
C156 C 0.36337 0.64379 0.19151 0.0
C157 C 0.373 0.66603 0.2372 0.0
C158 C 0.36745 0.69635 0.22639 0.0
C159 C 0.352 0.70445 0.17016 0.0
H160 H 0.38486 0.65979 0.28086 0.0
H161 H 0.23488 0.74876 0.74466 0.0
H162 H 0.36987 0.79559 0.51127 0.0
H163 H 0.34237 0.82246 0.42748 0.0
H164 H 0.39676 0.78518 0.2771 0.0
H165 H 0.42374 0.75782 0.35981 0.0
H166 H 0.38745 0.85294 0.27245 0.0
H167 H 0.33578 0.75148 0.27715 0.0
H168 H 0.31103 0.70672 0.33377 0.0
H169 H 0.24567 0.76244 0.41696 0.0
H170 H 0.27016 0.8075 0.36103 0.0
H171 H 0.30429 0.88281 0.98564 0.0
H172 H 0.33342 0.85827 0.06963 0.0
H173 H 0.2623 0.87001 0.20989 0.0
H174 H 0.23282 0.89353 0.12621 0.0
H175 H 0.28089 0.81576 0.22208 0.0
H176 H 0.32937 0.91696 0.20669 0.0
H177 H 0.35474 0.96151 0.15067 0.0
H178 H 0.42708 0.90821 0.09106 0.0
H179 H 0.40192 0.86321 0.146 0.0
C180 C 0.37611 0.79344 0.4604 0.0
C181 C 0.39884 0.77468 0.44182 0.0
C182 C 0.36042 0.80867 0.41282 0.0
C183 C 0.36776 0.80573 0.34654 0.0
C184 C 0.39102 0.78776 0.32816 0.0
C185 C 0.40624 0.77209 0.37538 0.0
C186 C 0.35026 0.82023 0.29579 0.0
C187 C 0.36422 0.84481 0.26086 0.0
C188 C 0.31994 0.8097 0.28191 0.0
C189 C 0.30493 0.78279 0.31537 0.0
C190 C 0.31623 0.75413 0.30787 0.0
C191 C 0.30222 0.72874 0.33977 0.0
C192 C 0.27683 0.73177 0.37928 0.0
C193 C 0.26534 0.76016 0.38656 0.0
C194 C 0.27924 0.78561 0.35463 0.0
C195 C 0.2949 0.88007 0.03437 0.0
C196 C 0.26634 0.89015 0.04939 0.0
C197 C 0.31159 0.8662 0.08235 0.0
C198 C 0.30018 0.8627 0.14627 0.0
C199 C 0.27153 0.87246 0.16095 0.0
C200 C 0.25474 0.88597 0.113 0.0
C201 C 0.31793 0.84887 0.19817 0.0
C202 C 0.30404 0.82424 0.23353 0.0
C203 C 0.34831 0.85956 0.2126 0.0
C204 C 0.3636 0.88664 0.17993 0.0
C205 C 0.35058 0.91468 0.18125 0.0
C206 C 0.36494 0.94002 0.14975 0.0
C207 C 0.39246 0.93767 0.11717 0.0
C208 C 0.40574 0.90999 0.11623 0.0
C209 C 0.39145 0.88457 0.14759 0.0
H210 H 0.40353 0.95731 0.09278 0.0
H211 H 0.26601 0.71212 0.4041 0.0
H212 H 0.06792 0.7445 0.38498 0.0
H213 H 0.10412 0.75407 0.47421 0.0
H214 H 0.17453 0.78111 0.33518 0.0
H215 H 0.13854 0.77069 0.24532 0.0
H216 H 0.19618 0.75903 0.46503 0.0
H217 H 0.13007 0.83273 0.36585 0.0
H218 H 0.0794 0.84645 0.33111 0.0
H219 H 0.04527 0.82995 0.52546 0.0
H220 H 0.09567 0.81567 0.56092 0.0
H221 H 0.21839 0.92329 0.61263 0.0
H222 H 0.20857 0.88443 0.52928 0.0
H223 H 0.21103 0.81444 0.6758 0.0
H224 H 0.22112 0.85344 0.76001 0.0
H225 H 0.15382 0.85214 0.54943 0.0
H226 H 0.21913 0.74732 0.59059 0.0
H227 H 0.2706 0.73338 0.61954 0.0
H228 H 0.30958 0.8167 0.53546 0.0
H229 H 0.25841 0.83105 0.5062 0.0
C230 C 0.09145 0.75121 0.37331 0.0
C231 C 0.10033 0.75766 0.30855 0.0
C232 C 0.11217 0.75637 0.4243 0.0
C233 C 0.14177 0.76886 0.41121 0.0
C234 C 0.15176 0.77144 0.34618 0.0
C235 C 0.13111 0.76573 0.2949 0.0
C236 C 0.15847 0.78703 0.46226 0.0
C237 C 0.18709 0.7794 0.48373 0.0
C238 C 0.14643 0.81349 0.48669 0.0
C239 C 0.11646 0.82292 0.46581 0.0
C240 C 0.1117 0.83194 0.40102 0.0
C241 C 0.08305 0.83979 0.38121 0.0
C242 C 0.05911 0.83902 0.42602 0.0
C243 C 0.06381 0.8305 0.49079 0.0
C244 C 0.0924 0.82253 0.51077 0.0
C245 C 0.21768 0.89962 0.62698 0.0
C246 C 0.21963 0.8914 0.69301 0.0
C247 C 0.21233 0.87743 0.5792 0.0
C248 C 0.20856 0.84662 0.59656 0.0
C249 C 0.21383 0.83811 0.66141 0.0
C250 C 0.21943 0.86043 0.7095 0.0
C251 C 0.19239 0.82509 0.55069 0.0
C252 C 0.16333 0.83192 0.53084 0.0
C253 C 0.20432 0.79829 0.52781 0.0
C254 C 0.23501 0.79028 0.54672 0.0
C255 C 0.23874 0.76259 0.57836 0.0
C256 C 0.26782 0.75465 0.5948 0.0
C257 C 0.29333 0.77413 0.57927 0.0
C258 C 0.2898 0.80167 0.54761 0.0
C259 C 0.26076 0.80979 0.53142 0.0
H260 H 0.31583 0.76789 0.59176 0.0
H261 H 0.03693 0.84507 0.41058 0.0
H262 H 0.14884 0.77037 0.938 0.0
H263 H 0.17106 0.74758 0.84239 0.0
H264 H 0.11224 0.6658 0.87092 0.0
H265 H 0.0902 0.68824 0.96738 0.0
H266 H 0.16843 0.65276 0.83888 0.0
H267 H 0.09564 0.71696 0.75583 0.0
H268 H 0.06999 0.76405 0.74095 0.0
H269 H 0.15203 0.80881 0.66351 0.0
H270 H 0.17844 0.76203 0.67832 0.0
H271 H 0.19036 0.59034 0.5264 0.0
H272 H 0.16516 0.61319 0.61827 0.0
H273 H 0.22709 0.69342 0.60268 0.0
H274 H 0.25226 0.67107 0.51016 0.0
H275 H 0.16787 0.70688 0.62628 0.0
H276 H 0.24101 0.64372 0.71453 0.0
H277 H 0.2668 0.59666 0.72888 0.0
H278 H 0.18344 0.55015 0.79615 0.0
H279 H 0.15705 0.5969 0.78144 0.0
C280 C 0.14078 0.74743 0.92432 0.0
C281 C 0.11757 0.73119 0.96 0.0
C282 C 0.15337 0.73453 0.86939 0.0
C283 C 0.14281 0.70527 0.84875 0.0
C284 C 0.12055 0.68852 0.88578 0.0
C285 C 0.108 0.70136 0.94091 0.0
C286 C 0.15484 0.69225 0.78826 0.0
C287 C 0.16774 0.66431 0.79216 0.0
C288 C 0.15466 0.70774 0.72761 0.0
C289 C 0.13912 0.73607 0.719 0.0
C290 C 0.10834 0.73692 0.73618 0.0
C291 C 0.09366 0.76353 0.72751 0.0
C292 C 0.10945 0.7894 0.70132 0.0
C293 C 0.13994 0.7887 0.68362 0.0
C294 C 0.15476 0.76215 0.69212 0.0
C295 C 0.19835 0.61306 0.54177 0.0
C296 C 0.22347 0.6288 0.51129 0.0
C297 C 0.184 0.626 0.59446 0.0
C298 C 0.19453 0.65486 0.61754 0.0
C299 C 0.21863 0.6712 0.58532 0.0
C300 C 0.23303 0.6583 0.53265 0.0
C301 C 0.1813 0.66743 0.67709 0.0
C302 C 0.16824 0.69527 0.67297 0.0
C303 C 0.18126 0.65184 0.7375 0.0
C304 C 0.19698 0.62367 0.74608 0.0
C305 C 0.22811 0.62337 0.73178 0.0
C306 C 0.24286 0.59678 0.74012 0.0
C307 C 0.22674 0.5704 0.76318 0.0
C308 C 0.19587 0.57058 0.77814 0.0
C309 C 0.18101 0.59712 0.76985 0.0
H310 H 0.2382 0.54983 0.76963 0.0
H311 H 0.09805 0.80999 0.69463 0.0
H312 H 0.82468 0.08449 0.65585 0.0
H313 H 0.82929 0.1247 0.57449 0.0
H314 H 0.75291 0.16545 0.65908 0.0
H315 H 0.74867 0.12548 0.74323 0.0
H316 H 0.7726 0.14864 0.48758 0.0
H317 H 0.7831 0.21264 0.68055 0.0
H318 H 0.79829 0.22065 0.79528 0.0
H319 H 0.89103 0.20866 0.74517 0.0
H320 H 0.87598 0.19872 0.63053 0.0
H321 H 0.86142 0.23732 0.25469 0.0
H322 H 0.82257 0.2323 0.34076 0.0
H323 H 0.88814 0.19811 0.47262 0.0
H324 H 0.92676 0.20392 0.38881 0.0
H325 H 0.85201 0.23109 0.53894 0.0
H326 H 0.8363 0.14692 0.37068 0.0
H327 H 0.8244 0.13121 0.25704 0.0
H328 H 0.74496 0.18136 0.26081 0.0
H329 H 0.75655 0.19737 0.37391 0.0
C330 C 0.80867 0.10182 0.6573 0.0
C331 C 0.78644 0.10188 0.70645 0.0
C332 C 0.81134 0.12478 0.61062 0.0
C333 C 0.79167 0.14813 0.61134 0.0
C334 C 0.76858 0.1478 0.65845 0.0
C335 C 0.76619 0.12497 0.7063 0.0
C336 C 0.79739 0.17321 0.56402 0.0
C337 C 0.78894 0.16761 0.49887 0.0
C338 C 0.81884 0.19773 0.57885 0.0
C339 C 0.82829 0.20453 0.64716 0.0
C340 C 0.80664 0.21125 0.69416 0.0
C341 C 0.81525 0.21616 0.7592 0.0
C342 C 0.84565 0.21524 0.77759 0.0
C343 C 0.86748 0.2093 0.7309 0.0
C344 C 0.85888 0.20386 0.66591 0.0
C345 C 0.86762 0.22933 0.30251 0.0
C346 C 0.89708 0.22052 0.31447 0.0
C347 C 0.84537 0.22639 0.35158 0.0
C348 C 0.85228 0.21443 0.41302 0.0
C349 C 0.88216 0.20749 0.42585 0.0
C350 C 0.90426 0.21054 0.37738 0.0
C351 C 0.82852 0.20536 0.46224 0.0
C352 C 0.83398 0.21372 0.52765 0.0
C353 C 0.8044 0.18331 0.44774 0.0
C354 C 0.79737 0.17346 0.38017 0.0
C355 C 0.81636 0.15459 0.34694 0.0
C356 C 0.80971 0.1457 0.28262 0.0
C357 C 0.78411 0.15551 0.25134 0.0
C358 C 0.76506 0.17414 0.28444 0.0
C359 C 0.77154 0.18299 0.34878 0.0
H360 H 0.77895 0.14851 0.20166 0.0
H361 H 0.85229 0.21916 0.82798 0.0
H362 H 0.8803 0.30675 0.02823 0.0
H363 H 0.85377 0.33626 0.94739 0.0
H364 H 0.88734 0.28191 0.79235 0.0
H365 H 0.91334 0.25228 0.87209 0.0
H366 H 0.89285 0.34479 0.76646 0.0
H367 H 0.82149 0.26684 0.84893 0.0
H368 H 0.78798 0.23729 0.92587 0.0
H369 H 0.74039 0.31635 0.96515 0.0
H370 H 0.77396 0.34641 0.88965 0.0
H371 H 0.79637 0.37544 0.49915 0.0
H372 H 0.82626 0.35201 0.58349 0.0
H373 H 0.77683 0.3962 0.73312 0.0
H374 H 0.74633 0.41859 0.6497 0.0
H375 H 0.78028 0.34046 0.76464 0.0
H376 H 0.85225 0.41991 0.68937 0.0
H377 H 0.88327 0.44968 0.60807 0.0
H378 H 0.92828 0.37041 0.55647 0.0
H379 H 0.89724 0.34005 0.63689 0.0
C380 C 0.88213 0.30129 0.97687 0.0
C381 C 0.89877 0.27716 0.95648 0.0
C382 C 0.86698 0.31808 0.9309 0.0
C383 C 0.86866 0.31117 0.86408 0.0
C384 C 0.88591 0.28765 0.84368 0.0
C385 C 0.9006 0.27065 0.88942 0.0
C386 C 0.85172 0.32759 0.81494 0.0
C387 C 0.86822 0.34383 0.76586 0.0
C388 C 0.81962 0.32668 0.81516 0.0
C389 C 0.80057 0.30897 0.86393 0.0
C390 C 0.80421 0.27803 0.87473 0.0
C391 C 0.78509 0.26114 0.91805 0.0
C392 C 0.76201 0.27489 0.95053 0.0
C393 C 0.75821 0.30563 0.94019 0.0
C394 C 0.77736 0.32263 0.89719 0.0
C395 C 0.792 0.38017 0.55006 0.0
C396 C 0.76896 0.39873 0.56785 0.0
C397 C 0.8092 0.36695 0.59818 0.0
C398 C 0.80403 0.37264 0.66469 0.0
C399 C 0.78121 0.39143 0.68221 0.0
C400 C 0.76378 0.40422 0.63438 0.0
C401 C 0.82134 0.3581 0.7165 0.0
C402 C 0.80493 0.34196 0.76584 0.0
C403 C 0.85347 0.35944 0.71704 0.0
C404 C 0.87222 0.37765 0.66874 0.0
C405 C 0.8686 0.40877 0.66034 0.0
C406 C 0.88622 0.42576 0.61448 0.0
C407 C 0.90768 0.41193 0.57701 0.0
C408 C 0.91163 0.38108 0.58546 0.0
C409 C 0.89405 0.36398 0.63123 0.0
H410 H 0.92129 0.42512 0.54153 0.0
H411 H 0.74701 0.26166 0.98341 0.0
H412 H 0.68849 0.35351 0.27063 0.0
H413 H 0.67853 0.3165 0.18246 0.0
H414 H 0.73028 0.37644 0.04936 0.0
H415 H 0.73846 0.41405 0.13644 0.0
H416 H 0.68018 0.36399 0.99874 0.0
H417 H 0.75088 0.30517 0.09038 0.0
H418 H 0.77918 0.27907 0.17387 0.0
H419 H 0.70144 0.21674 0.20927 0.0
H420 H 0.67216 0.24264 0.1259 0.0
H421 H 0.63856 0.27165 0.73577 0.0
H422 H 0.67629 0.28047 0.82302 0.0
H423 H 0.60558 0.26623 0.96751 0.0
H424 H 0.56775 0.25812 0.88083 0.0
H425 H 0.67489 0.25127 0.00269 0.0
H426 H 0.60599 0.33158 0.92543 0.0
H427 H 0.585 0.35827 0.8317 0.0
H428 H 0.67515 0.37944 0.75693 0.0
H429 H 0.69654 0.35248 0.8499 0.0
C430 C 0.69835 0.35827 0.22288 0.0
C431 C 0.71399 0.38653 0.20971 0.0
C432 C 0.69278 0.33711 0.17254 0.0
C433 C 0.70349 0.34371 0.10893 0.0
C434 C 0.72142 0.37096 0.09767 0.0
C435 C 0.72622 0.39237 0.14737 0.0
C436 C 0.69235 0.32464 0.05268 0.0
C437 C 0.67986 0.3394 0.99952 0.0
C438 C 0.69188 0.29247 0.0527 0.0
C439 C 0.70912 0.27617 0.10227 0.0
C440 C 0.73958 0.28604 0.11618 0.0
C441 C 0.75583 0.27122 0.16332 0.0
C442 C 0.74199 0.24635 0.19694 0.0
C443 C 0.71195 0.23604 0.18297 0.0
C444 C 0.69553 0.25075 0.13565 0.0
C445 C 0.63126 0.26912 0.78613 0.0
C446 C 0.6002 0.26483 0.80167 0.0
C447 C 0.65288 0.2739 0.83592 0.0
C448 C 0.64368 0.27397 0.90163 0.0
C449 C 0.61317 0.26593 0.91717 0.0
C450 C 0.59153 0.26172 0.86756 0.0
C451 C 0.66281 0.29097 0.95073 0.0
C452 C 0.67623 0.27589 0.00237 0.0
C453 C 0.66556 0.323 0.94851 0.0
C454 C 0.65277 0.33998 0.89411 0.0
C455 C 0.62126 0.34191 0.88886 0.0
C456 C 0.60931 0.35703 0.83591 0.0
C457 C 0.62873 0.37052 0.78835 0.0
C458 C 0.66014 0.36897 0.79377 0.0
C459 C 0.67218 0.3538 0.84654 0.0
H460 H 0.61943 0.38219 0.74736 0.0
H461 H 0.75458 0.23515 0.23387 0.0
H462 H 0.759 0.14604 0.06816 0.0
H463 H 0.72893 0.16529 0.15639 0.0
H464 H 0.64986 0.11069 0.08928 0.0
H465 H 0.67987 0.09081 1.00017 0.0
H466 H 0.65 0.18254 0.13503 0.0
H467 H 0.67048 0.08019 0.19005 0.0
H468 H 0.70296 0.03786 0.20312 0.0
H469 H 0.75526 0.08809 0.34971 0.0
H470 H 0.72324 0.13082 0.33703 0.0
H471 H 0.56948 0.20141 0.43476 0.0
H472 H 0.5887 0.17729 0.33728 0.0
H473 H 0.68072 0.20177 0.3996 0.0
H474 H 0.66167 0.22671 0.49669 0.0
H475 H 0.66839 0.13986 0.35455 0.0
H476 H 0.65857 0.24226 0.29105 0.0
H477 H 0.63474 0.29008 0.27222 0.0
H478 H 0.56903 0.24376 0.1449 0.0
H479 H 0.59232 0.19551 0.16359 0.0
C480 C 0.73516 0.13821 0.07153 0.0
C481 C 0.72194 0.11647 0.02772 0.0
C482 C 0.71812 0.14911 0.12239 0.0
C483 C 0.68761 0.1386 0.1304 0.0
C484 C 0.67361 0.11862 0.08423 0.0
C485 C 0.69076 0.10735 0.03346 0.0
C486 C 0.67107 0.148 0.18866 0.0
C487 C 0.65322 0.17268 0.18287 0.0
C488 C 0.67652 0.13572 0.25115 0.0
C489 C 0.69526 0.10946 0.26021 0.0
C490 C 0.68937 0.08262 0.2238 0.0
C491 C 0.70753 0.05835 0.23166 0.0
C492 C 0.73143 0.06042 0.27659 0.0
C493 C 0.73694 0.0866 0.31439 0.0
C494 C 0.7188 0.11088 0.30676 0.0
C495 C 0.59382 0.20136 0.42821 0.0
C496 C 0.61411 0.21593 0.47343 0.0
C497 C 0.60472 0.18775 0.37228 0.0
C498 C 0.63605 0.18801 0.36122 0.0
C499 C 0.65642 0.20146 0.40742 0.0
C500 C 0.64553 0.21564 0.46276 0.0
C501 C 0.64759 0.17456 0.30094 0.0
C502 C 0.66451 0.14917 0.3065 0.0
C503 C 0.64188 0.18656 0.23843 0.0
C504 C 0.62678 0.21512 0.22984 0.0
C505 C 0.63865 0.24211 0.26011 0.0
C506 C 0.62538 0.26935 0.24909 0.0
C507 C 0.60027 0.26992 0.20771 0.0
C508 C 0.58841 0.24325 0.17718 0.0
C509 C 0.60164 0.21595 0.18796 0.0
H510 H 0.59009 0.29106 0.19906 0.0
H511 H 0.74548 0.04161 0.28257 0.0
H512 H 0.3424 0.4953 0.33638 0.0
H513 H 0.37368 0.45326 0.35906 0.0
H514 H 0.33496 0.44411 0.55228 0.0
H515 H 0.30309 0.48549 0.52939 0.0
H516 H 0.41695 0.44916 0.44584 0.0
H517 H 0.33364 0.37098 0.60345 0.0
H518 H 0.27851 0.35716 0.61193 0.0
H519 H 0.26719 0.37975 0.40984 0.0
H520 H 0.3223 0.39326 0.39983 0.0
H521 H 0.49617 0.34967 0.63897 0.0
H522 H 0.4567 0.38339 0.61057 0.0
H523 H 0.42512 0.32228 0.45639 0.0
H524 H 0.46489 0.28872 0.48357 0.0
H525 H 0.37719 0.34889 0.53366 0.0
H526 H 0.46606 0.37506 0.40522 0.0
H527 H 0.52125 0.3859 0.39004 0.0
H528 H 0.52008 0.46382 0.51517 0.0
H529 H 0.46485 0.45309 0.53204 0.0
C530 C 0.34023 0.48408 0.38335 0.0
C531 C 0.32012 0.49364 0.43093 0.0
C532 C 0.35824 0.46014 0.39637 0.0
C533 C 0.35648 0.44533 0.45714 0.0
C534 C 0.33633 0.45479 0.5046 0.0
C535 C 0.31822 0.47859 0.49152 0.0
C536 C 0.37665 0.4209 0.47209 0.0
C537 C 0.40814 0.42725 0.46481 0.0
C538 C 0.36523 0.39207 0.49602 0.0
C539 C 0.33211 0.38338 0.5011 0.0
C540 C 0.31942 0.37283 0.56072 0.0
C541 C 0.28817 0.36508 0.5658 0.0
C542 C 0.26936 0.36766 0.5115 0.0
C543 C 0.28178 0.37787 0.45191 0.0
C544 C 0.31302 0.3856 0.44653 0.0
C545 C 0.48052 0.34317 0.59971 0.0
C546 C 0.48375 0.31672 0.5631 0.0
C547 C 0.45802 0.36243 0.58359 0.0
C548 C 0.43813 0.35529 0.53132 0.0
C549 C 0.44022 0.32807 0.49701 0.0
C550 C 0.46304 0.30907 0.51236 0.0
C551 C 0.41719 0.37763 0.50869 0.0
C552 C 0.38574 0.37086 0.51456 0.0
C553 C 0.42849 0.40583 0.48203 0.0
C554 C 0.46144 0.41305 0.47052 0.0
C555 C 0.47761 0.39438 0.42987 0.0
C556 C 0.50888 0.4005 0.42093 0.0
C557 C 0.52418 0.4254 0.45196 0.0
C558 C 0.50819 0.44445 0.49142 0.0
C559 C 0.4769 0.43838 0.50065 0.0
H560 H 0.54842 0.42989 0.44527 0.0
H561 H 0.24517 0.36168 0.51558 0.0
H562 H 0.68005 0.01372 0.80126 0.0
H563 H 0.63468 0.98129 0.77018 0.0
H564 H 0.68876 0.90416 0.75852 0.0
H565 H 0.73419 0.93686 0.78518 0.0
H566 H 0.65265 0.89979 0.66502 0.0
H567 H 0.63919 0.92083 0.89411 0.0
H568 H 0.63452 0.95313 0.99133 0.0
H569 H 0.55697 0.99096 0.90648 0.0
H570 H 0.56141 0.95912 0.80839 0.0
H571 H 0.55198 0.77553 0.75515 0.0
H572 H 0.58719 0.82049 0.76615 0.0
H573 H 0.52524 0.87366 0.66189 0.0
H574 H 0.48954 0.82823 0.64932 0.0
H575 H 0.55898 0.89605 0.79973 0.0
H576 H 0.57285 0.86602 0.57267 0.0
H577 H 0.57861 0.82704 0.48827 0.0
H578 H 0.65792 0.7993 0.58598 0.0
H579 H 0.65241 0.83793 0.67135 0.0
C580 C 0.68212 0.98983 0.79185 0.0
C581 C 0.71055 0.97774 0.79563 0.0
C582 C 0.65619 0.97127 0.77442 0.0
C583 C 0.65807 0.94007 0.76285 0.0
C584 C 0.68659 0.92812 0.76672 0.0
C585 C 0.71257 0.9468 0.78224 0.0
C586 C 0.63062 0.91954 0.74706 0.0
C587 C 0.63223 0.89916 0.69465 0.0
C588 C 0.60357 0.91877 0.78474 0.0
C589 C 0.60088 0.9379 0.84362 0.0
C590 C 0.62128 0.93621 0.89601 0.0
C591 C 0.61866 0.9544 0.95128 0.0
C592 C 0.59553 0.97416 0.95497 0.0
C593 C 0.57492 0.9757 0.90348 0.0
C594 C 0.57747 0.95758 0.84805 0.0
C595 C 0.54552 0.79675 0.73488 0.0
C596 C 0.51788 0.79824 0.70121 0.0
C597 C 0.56575 0.82241 0.74128 0.0
C598 C 0.55873 0.85021 0.71481 0.0
C599 C 0.53089 0.85226 0.68269 0.0
C600 C 0.51066 0.82634 0.67539 0.0
C601 C 0.58159 0.87641 0.71899 0.0
C602 C 0.57918 0.89756 0.76931 0.0
C603 C 0.60825 0.87739 0.68077 0.0
C604 C 0.61212 0.85477 0.62848 0.0
C605 C 0.59143 0.85152 0.57628 0.0
C606 C 0.59467 0.82951 0.52825 0.0
C607 C 0.61861 0.8107 0.53177 0.0
C608 C 0.63942 0.81393 0.58324 0.0
C609 C 0.63628 0.83592 0.63138 0.0
H610 H 0.62105 0.79364 0.49459 0.0
H611 H 0.59353 0.98823 0.99781 0.0
H612 H 0.99833 0.14417 0.12549 0.0
H613 H 0.04071 0.11443 0.09812 0.0
H614 H 0.07977 0.18815 0.97843 0.0
H615 H 0.03612 0.2172 0.00253 0.0
H616 H 0.08562 0.14046 0.91698 0.0
H617 H 0.11038 0.16841 0.13354 0.0
H618 H 0.10273 0.17657 0.25134 0.0
H619 H 0.08317 0.08062 0.27943 0.0
H620 H 0.09025 0.0719 0.16164 0.0
H621 H 0.2126 0.02977 0.00663 0.0
H622 H 0.18546 0.07465 0.03016 0.0
H623 H 0.11595 0.04403 0.89133 0.0
H624 H 0.14385 7e-05 0.86532 0.0
H625 H 0.13547 0.07981 0.08367 0.0
H626 H 0.07956 0.0995 0.82858 0.0
H627 H 0.09373 0.09748 0.71222 0.0
H628 H 0.18822 0.10986 0.76356 0.0
H629 H 0.17465 0.11243 0.88011 0.0
C630 C 0.01608 0.15409 0.09372 0.0
C631 C 0.01405 0.18293 0.06616 0.0
C632 C 0.04047 0.13718 0.07846 0.0
C633 C 0.0639 0.14923 0.03724 0.0
C634 C 0.06205 0.17832 0.01038 0.0
C635 C 0.03718 0.19494 0.02426 0.0
C636 C 0.08934 0.13068 0.01977 0.0
C637 C 0.09672 0.12742 0.95352 0.0
C638 C 0.10479 0.1145 0.06746 0.0
C639 C 0.10071 0.11953 0.13859 0.0
C640 C 0.10428 0.14906 0.16476 0.0
C641 C 0.10006 0.15378 0.23155 0.0
C642 C 0.09244 0.12913 0.27283 0.0
C643 C 0.08908 0.09969 0.2474 0.0
C644 C 0.09325 0.09484 0.18062 0.0
C645 C 0.19172 0.0329 0.98056 0.0
C646 C 0.18027 0.01151 0.93416 0.0
C647 C 0.17621 0.05851 0.99409 0.0
C648 C 0.14877 0.06298 0.96213 0.0
C649 C 0.13746 0.04162 0.91544 0.0
C650 C 0.15329 0.01636 0.9009 0.0
C651 C 0.1308 0.08868 0.98072 0.0
C652 C 0.12482 0.09327 0.0472 0.0
C653 C 0.11775 0.10711 0.93347 0.0
C654 C 0.12605 0.10595 0.86322 0.0
C655 C 0.10336 0.10198 0.81505 0.0
C656 C 0.11129 0.1007 0.74904 0.0
C657 C 0.14185 0.10347 0.73052 0.0
C658 C 0.16455 0.10762 0.77797 0.0
C659 C 0.15675 0.10896 0.84403 0.0
H660 H 0.14794 0.10244 0.6794 0.0
H661 H 0.08916 0.13284 0.32452 0.0
H662 H 0.97775 0.68967 0.29466 0.0
H663 H 0.94627 0.64177 0.30475 0.0
H664 H 0.95334 0.62727 0.09719 0.0
H665 H 0.98572 0.67502 0.0869 0.0
H666 H 0.89181 0.62847 0.15473 0.0
H667 H 0.98408 0.57981 0.17989 0.0
H668 H 0.0346 0.57273 0.22609 0.0
H669 H 0.99532 0.56014 0.41703 0.0
H670 H 0.9446 0.5676 0.37216 0.0
H671 H 0.78897 0.50094 0.18147 0.0
H672 H 0.83589 0.53084 0.15168 0.0
H673 H 0.86021 0.53938 0.35554 0.0
H674 H 0.81395 0.5079 0.38516 0.0
H675 H 0.9097 0.53734 0.28687 0.0
H676 H 0.82171 0.59428 0.27249 0.0
H677 H 0.77055 0.60538 0.23574 0.0
H678 H 0.80089 0.60752 0.03635 0.0
H679 H 0.85216 0.59602 0.07192 0.0
C680 C 0.97302 0.67603 0.25132 0.0
C681 C 0.98395 0.68608 0.18991 0.0
C682 C 0.95524 0.64862 0.25725 0.0
C683 C 0.94769 0.63104 0.20177 0.0
C684 C 0.95921 0.64052 0.14055 0.0
C685 C 0.97763 0.6677 0.13477 0.0
C686 C 0.92487 0.60484 0.20743 0.0
C687 C 0.89586 0.60812 0.18209 0.0
C688 C 0.93006 0.57904 0.24545 0.0
C689 C 0.96054 0.57449 0.27267 0.0
C690 C 0.98623 0.5758 0.23183 0.0
C691 C 0.01491 0.57166 0.25777 0.0
C692 C 0.01818 0.56605 0.32447 0.0
C693 C 0.99276 0.5645 0.36536 0.0
C694 C 0.96403 0.56864 0.33968 0.0
C695 C 0.80463 0.50877 0.21977 0.0
C696 C 0.79776 0.50255 0.28563 0.0
C697 C 0.83137 0.52592 0.20276 0.0
C698 C 0.85115 0.53813 0.25146 0.0
C699 C 0.84521 0.53035 0.31711 0.0
C700 C 0.81878 0.51246 0.33405 0.0
C701 C 0.87642 0.56102 0.23449 0.0
C702 C 0.90576 0.55731 0.25819 0.0
C703 C 0.87142 0.58696 0.19629 0.0
C704 C 0.84064 0.59393 0.17478 0.0
C705 C 0.8174 0.5969 0.22077 0.0
C706 C 0.7884 0.60329 0.20017 0.0
C707 C 0.78245 0.60706 0.13373 0.0
C708 C 0.80552 0.60453 0.08778 0.0
C709 C 0.83455 0.59808 0.10812 0.0
H710 H 0.75998 0.61201 0.11788 0.0
H711 H 0.04039 0.56284 0.34446 0.0
H712 H 0.32114 0.9814 0.81913 0.0
H713 H 0.36724 0.01393 0.7925 0.0
H714 H 0.31194 0.08666 0.74078 0.0
H715 H 0.26626 0.05411 0.7644 0.0
H716 H 0.35299 0.08381 0.65387 0.0
H717 H 0.35261 0.08216 0.89143 0.0
H718 H 0.35307 0.05731 0.99938 0.0
H719 H 0.43759 0.02065 0.95237 0.0
H720 H 0.43744 0.04503 0.84381 0.0
H721 H 0.4379 0.22193 0.73448 0.0
H722 H 0.40547 0.17503 0.74975 0.0
H723 H 0.47597 0.12307 0.67294 0.0
H724 H 0.50862 0.17021 0.65583 0.0
H725 H 0.43595 0.10749 0.81385 0.0
H726 H 0.4361 0.1158 0.57541 0.0
H727 H 0.43361 0.14531 0.47345 0.0
H728 H 0.34657 0.17365 0.52997 0.0
H729 H 0.34881 0.14468 0.63278 0.0
C730 C 0.31896 0.00437 0.80217 0.0
C731 C 0.29013 0.01518 0.79356 0.0
C732 C 0.34528 0.02295 0.7871 0.0
C733 C 0.34311 0.05284 0.76481 0.0
C734 C 0.31427 0.06362 0.75719 0.0
C735 C 0.28812 0.04499 0.77094 0.0
C736 C 0.37047 0.07335 0.74904 0.0
C737 C 0.37116 0.08876 0.6889 0.0
C738 C 0.39463 0.07951 0.79393 0.0
C739 C 0.39482 0.06508 0.85928 0.0
C740 C 0.37118 0.06863 0.90399 0.0
C741 C 0.3714 0.05466 0.96529 0.0
C742 C 0.39528 0.03732 0.98263 0.0
C743 C 0.41907 0.03402 0.93881 0.0
C744 C 0.41894 0.04792 0.87742 0.0
C745 C 0.44664 0.20057 0.72097 0.0
C746 C 0.4758 0.19977 0.69377 0.0
C747 C 0.42809 0.17384 0.72982 0.0
C748 C 0.43846 0.14578 0.71255 0.0
C749 C 0.46772 0.14464 0.68655 0.0
C750 C 0.48619 0.17153 0.67654 0.0
C751 C 0.41775 0.1181 0.71982 0.0
C752 C 0.41821 0.10162 0.7783 0.0
C753 C 0.39435 0.11119 0.67402 0.0
C754 C 0.39278 0.12832 0.61197 0.0
C755 C 0.41658 0.12856 0.56635 0.0
C756 C 0.41518 0.14514 0.50836 0.0
C757 C 0.38998 0.16141 0.49531 0.0
C758 C 0.36609 0.16106 0.54016 0.0
C759 C 0.3674 0.14455 0.59825 0.0
H760 H 0.38894 0.17423 0.45039 0.0
H761 H 0.3954 0.02649 0.03008 0.0
H762 H 0.85741 0.00283 0.91037 0.0
H763 H 0.88647 0.95994 0.93775 0.0
H764 H 0.80859 0.91691 0.0388 0.0
H765 H 0.78008 0.96111 0.01512 0.0
H766 H 0.85438 0.90694 0.10485 0.0
H767 H 0.83271 0.8936 0.88044 0.0
H768 H 0.82859 0.90768 0.76438 0.0
H769 H 0.92542 0.92638 0.75363 0.0
H770 H 0.93011 0.91286 0.8699 0.0
H771 H 0.96322 0.78096 0.9955 0.0
H772 H 0.91984 0.81083 0.97573 0.0
H773 H 0.94847 0.87018 0.13567 0.0
H774 H 0.99076 0.83933 0.15771 0.0
H775 H 0.91836 0.86347 0.93524 0.0
H776 H 0.8929 0.90685 0.19885 0.0
H777 H 0.89059 0.88674 0.31132 0.0
H778 H 0.87612 0.79577 0.23726 0.0
H779 H 0.87789 0.81532 0.12439 0.0
C780 C 0.8465 0.98418 0.93836 0.0
C781 C 0.8165 0.98511 0.96034 0.0
C782 C 0.86304 0.95953 0.9536 0.0
C783 C 0.84954 0.93467 0.98888 0.0
C784 C 0.81952 0.93569 0.01129 0.0
C785 C 0.80322 0.96087 0.99764 0.0
C786 C 0.86716 0.90808 0.0032 0.0
C787 C 0.86819 0.89727 0.06766 0.0
C788 C 0.88434 0.89451 0.95433 0.0
C789 C 0.88173 0.90235 0.88406 0.0
C790 C 0.85312 0.90086 0.85342 0.0
C791 C 0.85068 0.90874 0.78758 0.0
C792 C 0.87672 0.91795 0.75167 0.0
C793 C 0.90527 0.91923 0.7815 0.0
C794 C 0.90783 0.91142 0.84736 0.0
C795 C 0.95988 0.80008 0.02712 0.0
C796 C 0.98032 0.80787 0.07811 0.0
C797 C 0.93513 0.81719 0.0157 0.0
C798 C 0.93062 0.84274 0.05438 0.0
C799 C 0.95085 0.85019 0.10607 0.0
C800 C 0.9752 0.83266 0.11842 0.0
C801 C 0.90644 0.86303 0.03742 0.0
C802 C 0.90419 0.87271 0.97235 0.0
C803 C 0.88713 0.87448 0.08516 0.0
C804 C 0.88577 0.86258 0.15307 0.0
C805 C 0.88907 0.88257 0.20653 0.0
C806 C 0.88789 0.87126 0.27038 0.0
C807 C 0.8833 0.84 0.28142 0.0
C808 C 0.87978 0.81997 0.22864 0.0
C809 C 0.88091 0.83116 0.16472 0.0
H810 H 0.88241 0.83129 0.33088 0.0
H811 H 0.87479 0.92406 0.70072 0.0
H812 H 0.98704 0.324 0.19529 0.0
H813 H 0.02024 0.36949 0.22231 0.0
H814 H 0.09368 0.31319 0.26231 0.0
H815 H 0.06031 0.26797 0.23886 0.0
H816 H 0.09514 0.3534 0.34938 0.0
H817 H 0.08589 0.35632 0.11462 0.0
H818 H 0.0587 0.3575 0.00946 0.0
H819 H 0.02156 0.44063 0.06534 0.0
H820 H 0.04827 0.43974 0.17121 0.0
H821 H 0.2278 0.44608 0.26462 0.0
H822 H 0.1825 0.41098 0.25393 0.0
H823 H 0.12719 0.47922 0.32873 0.0
H824 H 0.17282 0.51465 0.3412 0.0
H825 H 0.1105 0.43984 0.19478 0.0
H826 H 0.12832 0.43638 0.4296 0.0
H827 H 0.16204 0.43329 0.52508 0.0
H828 H 0.18963 0.34779 0.45669 0.0
H829 H 0.15635 0.35059 0.36034 0.0
C830 C 0.01028 0.32145 0.2099 0.0
C831 C 0.02108 0.29245 0.21502 0.0
C832 C 0.02929 0.34745 0.22512 0.0
C833 C 0.05966 0.34491 0.24381 0.0
C834 C 0.07034 0.31588 0.24859 0.0
C835 C 0.05124 0.28998 0.23488 0.0
C836 C 0.08072 0.37217 0.25814 0.0
C837 C 0.09834 0.37225 0.31541 0.0
C838 C 0.08479 0.39718 0.21463 0.0
C839 C 0.06874 0.39775 0.1511 0.0
C840 C 0.07173 0.37472 0.10465 0.0
C841 C 0.05645 0.37536 0.04491 0.0
C842 C 0.03833 0.39907 0.03082 0.0
C843 C 0.03554 0.42224 0.07638 0.0
C844 C 0.05075 0.42169 0.13625 0.0
C845 C 0.20603 0.45379 0.2786 0.0
C846 C 0.20388 0.48318 0.30371 0.0
C847 C 0.18021 0.43367 0.2725 0.0
C848 C 0.15166 0.44262 0.29047 0.0
C849 C 0.14914 0.47204 0.31457 0.0
C850 C 0.17517 0.49213 0.32188 0.0
C851 C 0.12487 0.42048 0.28492 0.0
C852 C 0.10647 0.42129 0.22929 0.0
C853 C 0.12056 0.3959 0.3289 0.0
C854 C 0.14001 0.39381 0.38758 0.0
C855 C 0.14173 0.41703 0.43473 0.0
C856 C 0.16073 0.41531 0.48904 0.0
C857 C 0.17802 0.39039 0.49688 0.0
C858 C 0.17623 0.36708 0.45056 0.0
C859 C 0.15726 0.36869 0.39616 0.0
H860 H 0.19275 0.38913 0.53891 0.0
H861 H 0.02652 0.39952 0.98454 0.0
H862 H 0.51993 0.66916 0.66595 0.0
H863 H 0.56264 0.63904 0.63895 0.0
H864 H 0.55662 0.66564 0.43704 0.0
H865 H 0.51474 0.69625 0.4634 0.0
H866 H 0.5518 0.59819 0.47423 0.0
H867 H 0.61207 0.69424 0.49555 0.0
H868 H 0.63035 0.74081 0.55456 0.0
H869 H 0.66606 0.68708 0.70694 0.0
H870 H 0.6475 0.64011 0.64929 0.0
H871 H 0.66761 0.52069 0.33803 0.0
H872 H 0.63756 0.56335 0.36256 0.0
H873 H 0.66776 0.56251 0.56303 0.0
H874 H 0.69888 0.5208 0.53819 0.0
H875 H 0.66118 0.61885 0.52774 0.0
H876 H 0.6012 0.52391 0.5144 0.0
H877 H 0.58175 0.47578 0.4634 0.0
H878 H 0.54267 0.52487 0.30751 0.0
H879 H 0.56267 0.57341 0.35687 0.0
C880 C 0.52801 0.66895 0.61608 0.0
C881 C 0.51394 0.685 0.56682 0.0
C882 C 0.55241 0.65185 0.60083 0.0
C883 C 0.56264 0.65035 0.53613 0.0
C884 C 0.54902 0.66674 0.48726 0.0
C885 C 0.5251 0.68418 0.50254 0.0
C886 C 0.58568 0.62958 0.51793 0.0
C887 C 0.5758 0.60282 0.48503 0.0
C888 C 0.61668 0.63546 0.53404 0.0
C889 C 0.62806 0.66365 0.5685 0.0
C890 C 0.62352 0.69234 0.54199 0.0
C891 C 0.634 0.71882 0.5751 0.0
C892 C 0.64927 0.71692 0.63457 0.0
C893 C 0.65418 0.68852 0.66093 0.0
C894 C 0.6437 0.66196 0.62803 0.0
C895 C 0.66833 0.52995 0.38696 0.0
C896 C 0.68531 0.51712 0.43633 0.0
C897 C 0.65108 0.55429 0.40101 0.0
C898 C 0.64987 0.56563 0.46502 0.0
C899 C 0.66825 0.55406 0.51338 0.0
C900 C 0.68592 0.5301 0.4991 0.0
C901 C 0.62741 0.5874 0.483 0.0
C902 C 0.63725 0.61423 0.51637 0.0
C903 C 0.59613 0.58137 0.46838 0.0
C904 C 0.58374 0.55227 0.43893 0.0
C905 C 0.58866 0.52444 0.46899 0.0
C906 C 0.57752 0.49707 0.44035 0.0
C907 C 0.56097 0.49722 0.38215 0.0
C908 C 0.55553 0.52478 0.35253 0.0
C909 C 0.56681 0.55224 0.38076 0.0
H910 H 0.55235 0.476 0.36001 0.0
H911 H 0.65736 0.73745 0.66012 0.0
loop_
_geom_bond_atom_site_label_1
_geom_bond_atom_site_label_2
_geom_bond_distance
_geom_bond_site_symmetry_2
_ccdc_geom_bond_type
Mg0 O1 2.028 . S
Mg0 O7 1.986 . S
Mg0 O9 2.114 . S
Mg0 O10 2.251 . S
Mg0 O13 2.010 . S
O1 Mg0 2.028 . S
O1 C4 1.250 . S
O2 Mg3 2.028 . S
O2 C4 1.248 . S
Mg3 O2 2.028 . S
Mg3 O8 2.032 . S
Mg3 O10 2.079 . S
C4 O1 1.250 . S
C4 O2 1.248 . S
C5 O6 1.264 . S
C5 O13 1.249 . S
O6 C5 1.264 . S
O7 Mg0 1.986 . S
O7 C11 1.246 . S
O8 Mg3 2.032 . S
O8 C11 1.259 . S
O9 Mg0 2.114 . S
O9 C12 1.252 . S
O10 Mg0 2.251 . S
O10 Mg3 2.079 . S
O10 C12 1.273 . S
C11 O7 1.246 . S
C11 O8 1.259 . S
C12 O9 1.252 . S
C12 O10 1.273 . S
O13 Mg0 2.010 . S
O13 C5 1.249 . S
Mg14 O15 2.028 . S
Mg14 O21 1.986 . S
Mg14 O23 2.114 . S
Mg14 O24 2.251 . S
Mg14 O27 2.010 . S
O15 Mg14 2.028 . S
O15 C18 1.250 . S
O16 Mg17 2.028 . S
O16 C18 1.248 . S
Mg17 O16 2.028 . S
Mg17 O22 2.032 . S
Mg17 O24 2.079 . S
C18 O15 1.250 . S
C18 O16 1.248 . S
C19 O20 1.264 . S
C19 O27 1.249 . S
O20 C19 1.264 . S
O21 Mg14 1.986 . S
O21 C25 1.246 . S
O22 Mg17 2.032 . S
O22 C25 1.259 . S
O23 Mg14 2.114 . S
O23 C26 1.252 . S
O24 Mg14 2.251 . S
O24 Mg17 2.079 . S
O24 C26 1.273 . S
C25 O21 1.246 . S
C25 O22 1.259 . S
C26 O23 1.252 . S
C26 O24 1.273 . S
O27 Mg14 2.010 . S
O27 C19 1.249 . S
Mg28 O29 2.028 . S
Mg28 O35 1.986 . S
Mg28 O37 2.114 . S
Mg28 O38 2.251 . S
Mg28 O41 2.010 . S
O29 Mg28 2.028 . S
O29 C32 1.250 . S
O30 Mg31 2.026 1_545 S
O30 C32 1.234 1_545 S
Mg31 O30 2.026 1_565 S
Mg31 O36 2.032 . S
Mg31 O38 2.079 . S
C32 O29 1.250 . S
C32 O30 1.234 1_565 S
C33 O34 1.264 . S
C33 O41 1.249 1_554 S
O34 C33 1.264 . S
O35 Mg28 1.986 . S
O35 C39 1.246 . S
O36 Mg31 2.032 . S
O36 C39 1.259 . S
O37 Mg28 2.114 . S
O37 C40 1.252 . S
O38 Mg28 2.251 . S
O38 Mg31 2.079 . S
O38 C40 1.273 . S
C39 O35 1.246 . S
C39 O36 1.259 . S
C40 O37 1.252 . S
C40 O38 1.273 . S
O41 Mg28 2.010 . S
O41 C33 1.249 1_556 S
Mg42 O43 2.028 . S
Mg42 O49 1.986 . S
Mg42 O51 2.114 . S
Mg42 O52 2.251 . S
Mg42 O55 2.010 . S
O43 Mg42 2.028 . S
O43 C46 1.250 . S
O44 Mg45 2.026 1_655 S
O44 C46 1.234 1_655 S
Mg45 O44 2.026 1_455 S
Mg45 O50 2.032 . S
Mg45 O52 2.079 . S
C46 O43 1.250 . S
C46 O44 1.234 1_455 S
C47 O48 1.264 . S
C47 O55 1.249 1_556 S
O48 C47 1.264 . S
O49 Mg42 1.986 . S
O49 C53 1.246 . S
O50 Mg45 2.032 . S
O50 C53 1.259 . S
O51 Mg42 2.114 . S
O51 C54 1.252 . S
O52 Mg42 2.251 . S
O52 Mg45 2.079 . S
O52 C54 1.273 . S
C53 O49 1.246 . S
C53 O50 1.259 . S
C54 O51 1.252 . S
C54 O52 1.273 . S
O55 Mg42 2.010 . S
O55 C47 1.249 1_554 S
Mg56 O57 2.028 . S
Mg56 O63 1.986 . S
Mg56 O65 2.114 . S
Mg56 O66 2.251 . S
Mg56 O69 2.010 . S
O57 Mg56 2.028 . S
O57 C60 1.250 . S
O58 Mg59 2.026 1_565 S
O58 C60 1.234 1_565 S
Mg59 O58 2.026 1_545 S
Mg59 O64 2.032 . S
Mg59 O66 2.079 . S
C60 O57 1.250 . S
C60 O58 1.234 1_545 S
C61 O62 1.264 . S
C61 O69 1.249 1_554 S
O62 C61 1.264 . S
O63 Mg56 1.986 . S
O63 C67 1.246 . S
O64 Mg59 2.032 . S
O64 C67 1.259 . S
O65 Mg56 2.114 . S
O65 C68 1.252 . S
O66 Mg56 2.251 . S
O66 Mg59 2.079 . S
O66 C68 1.273 . S
C67 O63 1.246 . S
C67 O64 1.259 . S
C68 O65 1.252 . S
C68 O66 1.273 . S
O69 Mg56 2.010 . S
O69 C61 1.249 1_556 S
Mg70 O71 2.028 . S
Mg70 O77 1.986 . S
Mg70 O79 2.114 . S
Mg70 O80 2.251 . S
Mg70 O83 2.010 . S
O71 Mg70 2.028 . S
O71 C74 1.250 . S
O72 Mg73 2.026 1_455 S
O72 C74 1.234 1_455 S
Mg73 O72 2.026 1_655 S
Mg73 O78 2.032 . S
Mg73 O80 2.079 . S
C74 O71 1.250 . S
C74 O72 1.234 1_655 S
C75 O76 1.264 . S
C75 O83 1.249 1_556 S
O76 C75 1.264 . S
O77 Mg70 1.986 . S
O77 C81 1.246 . S
O78 Mg73 2.032 . S
O78 C81 1.259 . S
O79 Mg70 2.114 . S
O79 C82 1.252 . S
O80 Mg70 2.251 . S
O80 Mg73 2.079 . S
O80 C82 1.273 . S
C81 O77 1.246 . S
C81 O78 1.259 . S
C82 O79 1.252 . S
C82 O80 1.273 . S
O83 Mg70 2.010 . S
O83 C75 1.249 1_554 S
Mg84 O85 2.028 . S
Mg84 O91 1.986 . S
Mg84 O93 2.114 . S
Mg84 O94 2.251 . S
Mg84 O97 2.010 . S
O85 Mg84 2.028 . S
O85 C88 1.250 . S
O86 Mg87 2.028 . S
O86 C88 1.248 . S
Mg87 O86 2.028 . S
Mg87 O92 2.032 . S
Mg87 O94 2.079 . S
C88 O85 1.250 . S
C88 O86 1.248 . S
C89 O90 1.264 . S
C89 O97 1.249 . S
O90 C89 1.264 . S
O91 Mg84 1.986 . S
O91 C95 1.246 . S
O92 Mg87 2.032 . S
O92 C95 1.259 . S
O93 Mg84 2.114 . S
O93 C96 1.252 . S
O94 Mg84 2.251 . S
O94 Mg87 2.079 . S
O94 C96 1.273 . S
C95 O91 1.246 . S
C95 O92 1.259 . S
C96 O93 1.252 . S
C96 O94 1.273 . S
O97 Mg84 2.010 . S
O97 C89 1.249 . S
Mg98 O99 2.028 . S
Mg98 O105 1.986 . S
Mg98 O107 2.114 . S
Mg98 O108 2.251 . S
Mg98 O111 2.010 . S
O99 Mg98 2.028 . S
O99 C102 1.250 . S
O100 Mg101 2.028 . S
O100 C102 1.248 . S
Mg101 O100 2.028 . S
Mg101 O106 2.032 . S
Mg101 O108 2.079 . S
C102 O99 1.250 . S
C102 O100 1.248 . S
C103 O104 1.264 . S
C103 O111 1.249 . S
O104 C103 1.264 . S
O105 Mg98 1.986 . S
O105 C109 1.246 . S
O106 Mg101 2.032 . S
O106 C109 1.259 . S
O107 Mg98 2.114 . S
O107 C110 1.252 . S
O108 Mg98 2.251 . S
O108 Mg101 2.079 . S
O108 C110 1.273 . S
C109 O105 1.246 . S
C109 O106 1.259 . S
C110 O107 1.252 . S
C110 O108 1.273 . S
O111 Mg98 2.010 . S
O111 C103 1.249 . S
H112 C130 0.951 . S
H113 C132 0.951 . S
H114 C134 0.950 . S
H115 C135 0.950 . S
H116 C137 0.950 . S
H117 C140 0.950 . S
H118 C141 0.950 . S
H119 C143 0.950 . S
H120 C144 0.950 . S
H121 C145 0.951 . S
H122 C147 0.951 . S
H123 C149 0.950 . S
H124 C150 0.950 . S
H125 C152 0.950 . S
H126 C155 0.950 . S
H127 C156 0.950 . S
H128 C158 0.950 . S
H129 C159 0.950 . S
C130 H112 0.951 . S
C130 C131 1.366 . S
C130 C132 1.388 . S
C131 C130 1.366 . S
C131 C135 1.385 . S
C132 H113 0.951 . S
C132 C130 1.388 . S
C132 C133 1.366 . S
C133 C132 1.366 . S
C133 C134 1.414 . S
C133 C136 1.499 . S
C134 H114 0.950 . S
C134 C133 1.414 . S
C134 C135 1.374 . S
C135 H115 0.950 . S
C135 C131 1.385 . S
C135 C134 1.374 . S
C136 C133 1.499 . S
C136 C137 1.373 . S
C136 C138 1.389 . S
C137 H116 0.950 . S
C137 C136 1.373 . S
C137 C153 1.377 1_556 S
C138 C136 1.389 . S
C138 C139 1.524 . S
C138 C152 1.377 1_556 S
C139 C138 1.524 . S
C139 C140 1.397 . S
C139 C144 1.363 . S
C140 H117 0.950 . S
C140 C139 1.397 . S
C140 C141 1.334 . S
C141 H118 0.950 . S
C141 C140 1.334 . S
C141 C142 1.287 . S
C142 C141 1.287 . S
C142 C143 1.524 . S
C142 H161 0.913 . S
C143 H119 0.950 . S
C143 C142 1.524 . S
C143 C144 1.415 . S
C144 H120 0.950 . S
C144 C139 1.363 . S
C144 C143 1.415 . S
C145 H121 0.951 . S
C145 C146 1.366 . S
C145 C147 1.388 . S
C146 C145 1.366 . S
C146 C150 1.385 . S
C147 H122 0.951 . S
C147 C145 1.388 . S
C147 C148 1.366 . S
C148 C147 1.366 . S
C148 C149 1.414 . S
C148 C151 1.499 . S
C149 H123 0.950 . S
C149 C148 1.414 . S
C149 C150 1.374 . S
C150 H124 0.950 . S
C150 C146 1.385 . S
C150 C149 1.374 . S
C151 C148 1.499 . S
C151 C152 1.373 . S
C151 C153 1.389 . S
C152 H125 0.950 . S
C152 C138 1.377 1_554 S
C152 C151 1.373 . S
C153 C137 1.377 1_554 S
C153 C151 1.389 . S
C153 C154 1.524 . S
C154 C153 1.524 . S
C154 C155 1.397 . S
C154 C159 1.363 . S
C155 H126 0.950 . S
C155 C154 1.397 . S
C155 C156 1.334 . S
C156 H127 0.950 . S
C156 C155 1.334 . S
C156 C157 1.287 . S
C157 C156 1.287 . S
C157 C158 1.524 . S
C157 H160 0.999 . S
C158 H128 0.950 . S
C158 C157 1.524 . S
C158 C159 1.415 . S
C159 H129 0.950 . S
C159 C154 1.363 . S
C159 C158 1.415 . S
H160 C157 0.999 . S
H161 C142 0.913 . S
H162 C180 0.951 . S
H163 C182 0.951 . S
H164 C184 0.950 . S
H165 C185 0.950 . S
H166 C187 0.950 . S
H167 C190 0.950 . S
H168 C191 0.950 . S
H169 C193 0.950 . S
H170 C194 0.950 . S
H171 C195 0.951 1_556 S
H172 C197 0.951 . S
H173 C199 0.950 . S
H174 C200 0.950 . S
H175 C202 0.950 . S
H176 C205 0.950 . S
H177 C206 0.950 . S
H178 C208 0.950 . S
H179 C209 0.950 . S
C180 H162 0.951 . S
C180 C181 1.366 . S
C180 C182 1.388 . S
C181 C180 1.366 . S
C181 C185 1.385 . S
C182 H163 0.951 . S
C182 C180 1.388 . S
C182 C183 1.366 . S
C183 C182 1.366 . S
C183 C184 1.414 . S
C183 C186 1.499 . S
C184 H164 0.950 . S
C184 C183 1.414 . S
C184 C185 1.374 . S
C185 H165 0.950 . S
C185 C181 1.385 . S
C185 C184 1.374 . S
C186 C183 1.499 . S
C186 C187 1.373 . S
C186 C188 1.389 . S
C187 H166 0.950 . S
C187 C186 1.373 . S
C187 C203 1.377 . S
C188 C186 1.389 . S
C188 C189 1.524 . S
C188 C202 1.377 . S
C189 C188 1.524 . S
C189 C190 1.397 . S
C189 C194 1.363 . S
C190 H167 0.950 . S
C190 C189 1.397 . S
C190 C191 1.334 . S
C191 H168 0.950 . S
C191 C190 1.334 . S
C191 C192 1.287 . S
C192 C191 1.287 . S
C192 C193 1.524 . S
C192 H211 0.913 . S
C193 H169 0.950 . S
C193 C192 1.524 . S
C193 C194 1.415 . S
C194 H170 0.950 . S
C194 C189 1.363 . S
C194 C193 1.415 . S
C195 H171 0.951 1_554 S
C195 C196 1.366 . S
C195 C197 1.388 . S
C196 C195 1.366 . S
C196 C200 1.385 . S
C197 H172 0.951 . S
C197 C195 1.388 . S
C197 C198 1.366 . S
C198 C197 1.366 . S
C198 C199 1.414 . S
C198 C201 1.499 . S
C199 H173 0.950 . S
C199 C198 1.414 . S
C199 C200 1.374 . S
C200 H174 0.950 . S
C200 C196 1.385 . S
C200 C199 1.374 . S
C201 C198 1.499 . S
C201 C202 1.373 . S
C201 C203 1.389 . S
C202 H175 0.950 . S
C202 C188 1.377 . S
C202 C201 1.373 . S
C203 C187 1.377 . S
C203 C201 1.389 . S
C203 C204 1.524 . S
C204 C203 1.524 . S
C204 C205 1.397 . S
C204 C209 1.363 . S
C205 H176 0.950 . S
C205 C204 1.397 . S
C205 C206 1.334 . S
C206 H177 0.950 . S
C206 C205 1.334 . S
C206 C207 1.287 . S
C207 C206 1.287 . S
C207 C208 1.524 . S
C207 H210 0.999 . S
C208 H178 0.950 . S
C208 C207 1.524 . S
C208 C209 1.415 . S
C209 H179 0.950 . S
C209 C204 1.363 . S
C209 C208 1.415 . S
H210 C207 0.999 . S
H211 C192 0.913 . S
H212 C230 0.951 . S
H213 C232 0.951 . S
H214 C234 0.950 . S
H215 C235 0.950 . S
H216 C237 0.950 . S
H217 C240 0.950 . S
H218 C241 0.950 . S
H219 C243 0.950 . S
H220 C244 0.950 . S
H221 C245 0.951 . S
H222 C247 0.951 . S
H223 C249 0.950 . S
H224 C250 0.950 . S
H225 C252 0.950 . S
H226 C255 0.950 . S
H227 C256 0.950 . S
H228 C258 0.950 . S
H229 C259 0.950 . S
C230 H212 0.951 . S
C230 C231 1.366 . S
C230 C232 1.388 . S
C231 C230 1.366 . S
C231 C235 1.385 . S
C232 H213 0.951 . S
C232 C230 1.388 . S
C232 C233 1.366 . S
C233 C232 1.366 . S
C233 C234 1.414 . S
C233 C236 1.499 . S
C234 H214 0.950 . S
C234 C233 1.414 . S
C234 C235 1.374 . S
C235 H215 0.950 . S
C235 C231 1.385 . S
C235 C234 1.374 . S
C236 C233 1.499 . S
C236 C237 1.373 . S
C236 C238 1.389 . S
C237 H216 0.950 . S
C237 C236 1.373 . S
C237 C253 1.377 . S
C238 C236 1.389 . S
C238 C239 1.524 . S
C238 C252 1.377 . S
C239 C238 1.524 . S
C239 C240 1.397 . S
C239 C244 1.363 . S
C240 H217 0.950 . S
C240 C239 1.397 . S
C240 C241 1.334 . S
C241 H218 0.950 . S
C241 C240 1.334 . S
C241 C242 1.287 . S
C242 C241 1.287 . S
C242 C243 1.524 . S
C242 H261 0.913 . S
C243 H219 0.950 . S
C243 C242 1.524 . S
C243 C244 1.415 . S
C244 H220 0.950 . S
C244 C239 1.363 . S
C244 C243 1.415 . S
C245 H221 0.951 . S
C245 C246 1.366 . S
C245 C247 1.388 . S
C246 C245 1.366 . S
C246 C250 1.385 . S
C247 H222 0.951 . S
C247 C245 1.388 . S
C247 C248 1.366 . S
C248 C247 1.366 . S
C248 C249 1.414 . S
C248 C251 1.499 . S
C249 H223 0.950 . S
C249 C248 1.414 . S
C249 C250 1.374 . S
C250 H224 0.950 . S
C250 C246 1.385 . S
C250 C249 1.374 . S
C251 C248 1.499 . S
C251 C252 1.373 . S
C251 C253 1.389 . S
C252 H225 0.950 . S
C252 C238 1.377 . S
C252 C251 1.373 . S
C253 C237 1.377 . S
C253 C251 1.389 . S
C253 C254 1.524 . S
C254 C253 1.524 . S
C254 C255 1.397 . S
C254 C259 1.363 . S
C255 H226 0.950 . S
C255 C254 1.397 . S
C255 C256 1.334 . S
C256 H227 0.950 . S
C256 C255 1.334 . S
C256 C257 1.287 . S
C257 C256 1.287 . S
C257 C258 1.524 . S
C257 H260 0.999 . S
C258 H228 0.950 . S
C258 C257 1.524 . S
C258 C259 1.415 . S
C259 H229 0.950 . S
C259 C254 1.363 . S
C259 C258 1.415 . S
H260 C257 0.999 . S
H261 C242 0.913 . S
H262 C280 0.951 . S
H263 C282 0.951 . S
H264 C284 0.950 . S
H265 C285 0.950 . S
H266 C287 0.950 . S
H267 C290 0.950 . S
H268 C291 0.950 . S
H269 C293 0.950 . S
H270 C294 0.950 . S
H271 C295 0.951 . S
H272 C297 0.951 . S
H273 C299 0.950 . S
H274 C300 0.950 . S
H275 C302 0.950 . S
H276 C305 0.950 . S
H277 C306 0.950 . S
H278 C308 0.950 . S
H279 C309 0.950 . S
C280 H262 0.951 . S
C280 C281 1.366 . S
C280 C282 1.388 . S
C281 C280 1.366 . S
C281 C285 1.385 . S
C282 H263 0.951 . S
C282 C280 1.388 . S
C282 C283 1.366 . S
C283 C282 1.366 . S
C283 C284 1.414 . S
C283 C286 1.499 . S
C284 H264 0.950 . S
C284 C283 1.414 . S
C284 C285 1.374 . S
C285 H265 0.950 . S
C285 C281 1.385 . S
C285 C284 1.374 . S
C286 C283 1.499 . S
C286 C287 1.373 . S
C286 C288 1.389 . S
C287 H266 0.950 . S
C287 C286 1.373 . S
C287 C303 1.377 . S
C288 C286 1.389 . S
C288 C289 1.524 . S
C288 C302 1.377 . S
C289 C288 1.524 . S
C289 C290 1.397 . S
C289 C294 1.363 . S
C290 H267 0.950 . S
C290 C289 1.397 . S
C290 C291 1.334 . S
C291 H268 0.950 . S
C291 C290 1.334 . S
C291 C292 1.287 . S
C292 C291 1.287 . S
C292 C293 1.524 . S
C292 H311 0.913 . S
C293 H269 0.950 . S
C293 C292 1.524 . S
C293 C294 1.415 . S
C294 H270 0.950 . S
C294 C289 1.363 . S
C294 C293 1.415 . S
C295 H271 0.951 . S
C295 C296 1.366 . S
C295 C297 1.388 . S
C296 C295 1.366 . S
C296 C300 1.385 . S
C297 H272 0.951 . S
C297 C295 1.388 . S
C297 C298 1.366 . S
C298 C297 1.366 . S
C298 C299 1.414 . S
C298 C301 1.499 . S
C299 H273 0.950 . S
C299 C298 1.414 . S
C299 C300 1.374 . S
C300 H274 0.950 . S
C300 C296 1.385 . S
C300 C299 1.374 . S
C301 C298 1.499 . S
C301 C302 1.373 . S
C301 C303 1.389 . S
C302 H275 0.950 . S
C302 C288 1.377 . S
C302 C301 1.373 . S
C303 C287 1.377 . S
C303 C301 1.389 . S
C303 C304 1.524 . S
C304 C303 1.524 . S
C304 C305 1.397 . S
C304 C309 1.363 . S
C305 H276 0.950 . S
C305 C304 1.397 . S
C305 C306 1.334 . S
C306 H277 0.950 . S
C306 C305 1.334 . S
C306 C307 1.287 . S
C307 C306 1.287 . S
C307 C308 1.524 . S
C307 H310 0.999 . S
C308 H278 0.950 . S
C308 C307 1.524 . S
C308 C309 1.415 . S
C309 H279 0.950 . S
C309 C304 1.363 . S
C309 C308 1.415 . S
H310 C307 0.999 . S
H311 C292 0.913 . S
H312 C330 0.951 . S
H313 C332 0.951 . S
H314 C334 0.950 . S
H315 C335 0.950 . S
H316 C337 0.950 . S
H317 C340 0.950 . S
H318 C341 0.950 . S
H319 C343 0.950 . S
H320 C344 0.950 . S
H321 C345 0.951 . S
H322 C347 0.951 . S
H323 C349 0.950 . S
H324 C350 0.950 . S
H325 C352 0.950 . S
H326 C355 0.950 . S
H327 C356 0.950 . S
H328 C358 0.950 . S
H329 C359 0.950 . S
C330 H312 0.951 . S
C330 C331 1.366 . S
C330 C332 1.388 . S
C331 C330 1.366 . S
C331 C335 1.385 . S
C332 H313 0.951 . S
C332 C330 1.388 . S
C332 C333 1.366 . S
C333 C332 1.366 . S
C333 C334 1.414 . S
C333 C336 1.499 . S
C334 H314 0.950 . S
C334 C333 1.414 . S
C334 C335 1.374 . S
C335 H315 0.950 . S
C335 C331 1.385 . S
C335 C334 1.374 . S
C336 C333 1.499 . S
C336 C337 1.373 . S
C336 C338 1.389 . S
C337 H316 0.950 . S
C337 C336 1.373 . S
C337 C353 1.377 . S
C338 C336 1.389 . S
C338 C339 1.524 . S
C338 C352 1.377 . S
C339 C338 1.524 . S
C339 C340 1.397 . S
C339 C344 1.363 . S
C340 H317 0.950 . S
C340 C339 1.397 . S
C340 C341 1.334 . S
C341 H318 0.950 . S
C341 C340 1.334 . S
C341 C342 1.287 . S
C342 C341 1.287 . S
C342 C343 1.524 . S
C342 H361 0.913 . S
C343 H319 0.950 . S
C343 C342 1.524 . S
C343 C344 1.415 . S
C344 H320 0.950 . S
C344 C339 1.363 . S
C344 C343 1.415 . S
C345 H321 0.951 . S
C345 C346 1.366 . S
C345 C347 1.388 . S
C346 C345 1.366 . S
C346 C350 1.385 . S
C347 H322 0.951 . S
C347 C345 1.388 . S
C347 C348 1.366 . S
C348 C347 1.366 . S
C348 C349 1.414 . S
C348 C351 1.499 . S
C349 H323 0.950 . S
C349 C348 1.414 . S
C349 C350 1.374 . S
C350 H324 0.950 . S
C350 C346 1.385 . S
C350 C349 1.374 . S
C351 C348 1.499 . S
C351 C352 1.373 . S
C351 C353 1.389 . S
C352 H325 0.950 . S
C352 C338 1.377 . S
C352 C351 1.373 . S
C353 C337 1.377 . S
C353 C351 1.389 . S
C353 C354 1.524 . S
C354 C353 1.524 . S
C354 C355 1.397 . S
C354 C359 1.363 . S
C355 H326 0.950 . S
C355 C354 1.397 . S
C355 C356 1.334 . S
C356 H327 0.950 . S
C356 C355 1.334 . S
C356 C357 1.287 . S
C357 C356 1.287 . S
C357 C358 1.524 . S
C357 H360 0.999 . S
C358 H328 0.950 . S
C358 C357 1.524 . S
C358 C359 1.415 . S
C359 H329 0.950 . S
C359 C354 1.363 . S
C359 C358 1.415 . S
H360 C357 0.999 . S
H361 C342 0.913 . S
H362 C380 0.951 1_554 S
H363 C382 0.951 . S
H364 C384 0.950 . S
H365 C385 0.950 . S
H366 C387 0.950 . S
H367 C390 0.950 . S
H368 C391 0.950 . S
H369 C393 0.950 . S
H370 C394 0.950 . S
H371 C395 0.951 . S
H372 C397 0.951 . S
H373 C399 0.950 . S
H374 C400 0.950 . S
H375 C402 0.950 . S
H376 C405 0.950 . S
H377 C406 0.950 . S
H378 C408 0.950 . S
H379 C409 0.950 . S
C380 H362 0.951 1_556 S
C380 C381 1.366 . S
C380 C382 1.388 . S
C381 C380 1.366 . S
C381 C385 1.385 . S
C382 H363 0.951 . S
C382 C380 1.388 . S
C382 C383 1.366 . S
C383 C382 1.366 . S
C383 C384 1.414 . S
C383 C386 1.499 . S
C384 H364 0.950 . S
C384 C383 1.414 . S
C384 C385 1.374 . S
C385 H365 0.950 . S
C385 C381 1.385 . S
C385 C384 1.374 . S
C386 C383 1.499 . S
C386 C387 1.373 . S
C386 C388 1.389 . S
C387 H366 0.950 . S
C387 C386 1.373 . S
C387 C403 1.377 . S
C388 C386 1.389 . S
C388 C389 1.524 . S
C388 C402 1.377 . S
C389 C388 1.524 . S
C389 C390 1.397 . S
C389 C394 1.363 . S
C390 H367 0.950 . S
C390 C389 1.397 . S
C390 C391 1.334 . S
C391 H368 0.950 . S
C391 C390 1.334 . S
C391 C392 1.287 . S
C392 C391 1.287 . S
C392 C393 1.524 . S
C392 H411 0.913 . S
C393 H369 0.950 . S
C393 C392 1.524 . S
C393 C394 1.415 . S
C394 H370 0.950 . S
C394 C389 1.363 . S
C394 C393 1.415 . S
C395 H371 0.951 . S
C395 C396 1.366 . S
C395 C397 1.388 . S
C396 C395 1.366 . S
C396 C400 1.385 . S
C397 H372 0.951 . S
C397 C395 1.388 . S
C397 C398 1.366 . S
C398 C397 1.366 . S
C398 C399 1.414 . S
C398 C401 1.499 . S
C399 H373 0.950 . S
C399 C398 1.414 . S
C399 C400 1.374 . S
C400 H374 0.950 . S
C400 C396 1.385 . S
C400 C399 1.374 . S
C401 C398 1.499 . S
C401 C402 1.373 . S
C401 C403 1.389 . S
C402 H375 0.950 . S
C402 C388 1.377 . S
C402 C401 1.373 . S
C403 C387 1.377 . S
C403 C401 1.389 . S
C403 C404 1.524 . S
C404 C403 1.524 . S
C404 C405 1.397 . S
C404 C409 1.363 . S
C405 H376 0.950 . S
C405 C404 1.397 . S
C405 C406 1.334 . S
C406 H377 0.950 . S
C406 C405 1.334 . S
C406 C407 1.287 . S
C407 C406 1.287 . S
C407 C408 1.524 . S
C407 H410 0.999 . S
C408 H378 0.950 . S
C408 C407 1.524 . S
C408 C409 1.415 . S
C409 H379 0.950 . S
C409 C404 1.363 . S
C409 C408 1.415 . S
H410 C407 0.999 . S
H411 C392 0.913 . S
H412 C430 0.951 . S
H413 C432 0.951 . S
H414 C434 0.950 . S
H415 C435 0.950 . S
H416 C437 0.950 . S
H417 C440 0.950 . S
H418 C441 0.950 . S
H419 C443 0.950 . S
H420 C444 0.950 . S
H421 C445 0.951 . S
H422 C447 0.951 . S
H423 C449 0.950 . S
H424 C450 0.950 . S
H425 C452 0.950 . S
H426 C455 0.950 . S
H427 C456 0.950 . S
H428 C458 0.950 . S
H429 C459 0.950 . S
C430 H412 0.951 . S
C430 C431 1.366 . S
C430 C432 1.388 . S
C431 C430 1.366 . S
C431 C435 1.385 . S
C432 H413 0.951 . S
C432 C430 1.388 . S
C432 C433 1.366 . S
C433 C432 1.366 . S
C433 C434 1.414 . S
C433 C436 1.499 . S
C434 H414 0.950 . S
C434 C433 1.414 . S
C434 C435 1.374 . S
C435 H415 0.950 . S
C435 C431 1.385 . S
C435 C434 1.374 . S
C436 C433 1.499 . S
C436 C437 1.373 . S
C436 C438 1.389 . S
C437 H416 0.950 . S
C437 C436 1.373 . S
C437 C453 1.377 1_554 S
C438 C436 1.389 . S
C438 C439 1.524 . S
C438 C452 1.377 1_554 S
C439 C438 1.524 . S
C439 C440 1.397 . S
C439 C444 1.363 . S
C440 H417 0.950 . S
C440 C439 1.397 . S
C440 C441 1.334 . S
C441 H418 0.950 . S
C441 C440 1.334 . S
C441 C442 1.287 . S
C442 C441 1.287 . S
C442 C443 1.524 . S
C442 H461 0.913 . S
C443 H419 0.950 . S
C443 C442 1.524 . S
C443 C444 1.415 . S
C444 H420 0.950 . S
C444 C439 1.363 . S
C444 C443 1.415 . S
C445 H421 0.951 . S
C445 C446 1.366 . S
C445 C447 1.388 . S
C446 C445 1.366 . S
C446 C450 1.385 . S
C447 H422 0.951 . S
C447 C445 1.388 . S
C447 C448 1.366 . S
C448 C447 1.366 . S
C448 C449 1.414 . S
C448 C451 1.499 . S
C449 H423 0.950 . S
C449 C448 1.414 . S
C449 C450 1.374 . S
C450 H424 0.950 . S
C450 C446 1.385 . S
C450 C449 1.374 . S
C451 C448 1.499 . S
C451 C452 1.373 . S
C451 C453 1.389 . S
C452 H425 0.950 . S
C452 C438 1.377 1_556 S
C452 C451 1.373 . S
C453 C437 1.377 1_556 S
C453 C451 1.389 . S
C453 C454 1.524 . S
C454 C453 1.524 . S
C454 C455 1.397 . S
C454 C459 1.363 . S
C455 H426 0.950 . S
C455 C454 1.397 . S
C455 C456 1.334 . S
C456 H427 0.950 . S
C456 C455 1.334 . S
C456 C457 1.287 . S
C457 C456 1.287 . S
C457 C458 1.524 . S
C457 H460 0.999 . S
C458 H428 0.950 . S
C458 C457 1.524 . S
C458 C459 1.415 . S
C459 H429 0.950 . S
C459 C454 1.363 . S
C459 C458 1.415 . S
H460 C457 0.999 . S
H461 C442 0.913 . S
H462 C480 0.951 . S
H463 C482 0.951 . S
H464 C484 0.950 . S
H465 C485 0.950 . S
H466 C487 0.950 . S
H467 C490 0.950 . S
H468 C491 0.950 . S
H469 C493 0.950 . S
H470 C494 0.950 . S
H471 C495 0.951 . S
H472 C497 0.951 . S
H473 C499 0.950 . S
H474 C500 0.950 . S
H475 C502 0.950 . S
H476 C505 0.950 . S
H477 C506 0.950 . S
H478 C508 0.950 . S
H479 C509 0.950 . S
C480 H462 0.951 . S
C480 C481 1.366 . S
C480 C482 1.388 . S
C481 C480 1.366 . S
C481 C485 1.385 . S
C482 H463 0.951 . S
C482 C480 1.388 . S
C482 C483 1.366 . S
C483 C482 1.366 . S
C483 C484 1.414 . S
C483 C486 1.499 . S
C484 H464 0.950 . S
C484 C483 1.414 . S
C484 C485 1.374 . S
C485 H465 0.950 . S
C485 C481 1.385 . S
C485 C484 1.374 . S
C486 C483 1.499 . S
C486 C487 1.373 . S
C486 C488 1.389 . S
C487 H466 0.950 . S
C487 C486 1.373 . S
C487 C503 1.377 . S
C488 C486 1.389 . S
C488 C489 1.524 . S
C488 C502 1.377 . S
C489 C488 1.524 . S
C489 C490 1.397 . S
C489 C494 1.363 . S
C490 H467 0.950 . S
C490 C489 1.397 . S
C490 C491 1.334 . S
C491 H468 0.950 . S
C491 C490 1.334 . S
C491 C492 1.287 . S
C492 C491 1.287 . S
C492 C493 1.524 . S
C492 H511 0.913 . S
C493 H469 0.950 . S
C493 C492 1.524 . S
C493 C494 1.415 . S
C494 H470 0.950 . S
C494 C489 1.363 . S
C494 C493 1.415 . S
C495 H471 0.951 . S
C495 C496 1.366 . S
C495 C497 1.388 . S
C496 C495 1.366 . S
C496 C500 1.385 . S
C497 H472 0.951 . S
C497 C495 1.388 . S
C497 C498 1.366 . S
C498 C497 1.366 . S
C498 C499 1.414 . S
C498 C501 1.499 . S
C499 H473 0.950 . S
C499 C498 1.414 . S
C499 C500 1.374 . S
C500 H474 0.950 . S
C500 C496 1.385 . S
C500 C499 1.374 . S
C501 C498 1.499 . S
C501 C502 1.373 . S
C501 C503 1.389 . S
C502 H475 0.950 . S
C502 C488 1.377 . S
C502 C501 1.373 . S
C503 C487 1.377 . S
C503 C501 1.389 . S
C503 C504 1.524 . S
C504 C503 1.524 . S
C504 C505 1.397 . S
C504 C509 1.363 . S
C505 H476 0.950 . S
C505 C504 1.397 . S
C505 C506 1.334 . S
C506 H477 0.950 . S
C506 C505 1.334 . S
C506 C507 1.287 . S
C507 C506 1.287 . S
C507 C508 1.524 . S
C507 H510 0.999 . S
C508 H478 0.950 . S
C508 C507 1.524 . S
C508 C509 1.415 . S
C509 H479 0.950 . S
C509 C504 1.363 . S
C509 C508 1.415 . S
H510 C507 0.999 . S
H511 C492 0.913 . S
H512 C530 0.951 . S
H513 C532 0.951 . S
H514 C534 0.950 . S
H515 C535 0.950 . S
H516 C537 0.950 . S
H517 C540 0.950 . S
H518 C541 0.950 . S
H519 C543 0.950 . S
H520 C544 0.950 . S
H521 C545 0.951 . S
H522 C547 0.951 . S
H523 C549 0.950 . S
H524 C550 0.950 . S
H525 C552 0.950 . S
H526 C555 0.950 . S
H527 C556 0.950 . S
H528 C558 0.950 . S
H529 C559 0.950 . S
C530 H512 0.951 . S
C530 C531 1.366 . S
C530 C532 1.388 . S
C531 C530 1.366 . S
C531 C535 1.385 . S
C532 H513 0.951 . S
C532 C530 1.388 . S
C532 C533 1.366 . S
C533 C532 1.366 . S
C533 C534 1.414 . S
C533 C536 1.499 . S
C534 H514 0.950 . S
C534 C533 1.414 . S
C534 C535 1.374 . S
C535 H515 0.950 . S
C535 C531 1.385 . S
C535 C534 1.374 . S
C536 C533 1.499 . S
C536 C537 1.373 . S
C536 C538 1.389 . S
C537 H516 0.950 . S
C537 C536 1.373 . S
C537 C553 1.377 . S
C538 C536 1.389 . S
C538 C539 1.524 . S
C538 C552 1.377 . S
C539 C538 1.524 . S
C539 C540 1.397 . S
C539 C544 1.363 . S
C540 H517 0.950 . S
C540 C539 1.397 . S
C540 C541 1.334 . S
C541 H518 0.950 . S
C541 C540 1.334 . S
C541 C542 1.287 . S
C542 C541 1.287 . S
C542 C543 1.524 . S
C542 H561 0.913 . S
C543 H519 0.950 . S
C543 C542 1.524 . S
C543 C544 1.415 . S
C544 H520 0.950 . S
C544 C539 1.363 . S
C544 C543 1.415 . S
C545 H521 0.951 . S
C545 C546 1.366 . S
C545 C547 1.388 . S
C546 C545 1.366 . S
C546 C550 1.385 . S
C547 H522 0.951 . S
C547 C545 1.388 . S
C547 C548 1.366 . S
C548 C547 1.366 . S
C548 C549 1.414 . S
C548 C551 1.499 . S
C549 H523 0.950 . S
C549 C548 1.414 . S
C549 C550 1.374 . S
C550 H524 0.950 . S
C550 C546 1.385 . S
C550 C549 1.374 . S
C551 C548 1.499 . S
C551 C552 1.373 . S
C551 C553 1.389 . S
C552 H525 0.950 . S
C552 C538 1.377 . S
C552 C551 1.373 . S
C553 C537 1.377 . S
C553 C551 1.389 . S
C553 C554 1.524 . S
C554 C553 1.524 . S
C554 C555 1.397 . S
C554 C559 1.363 . S
C555 H526 0.950 . S
C555 C554 1.397 . S
C555 C556 1.334 . S
C556 H527 0.950 . S
C556 C555 1.334 . S
C556 C557 1.287 . S
C557 C556 1.287 . S
C557 C558 1.524 . S
C557 H560 0.999 . S
C558 H528 0.950 . S
C558 C557 1.524 . S
C558 C559 1.415 . S
C559 H529 0.950 . S
C559 C554 1.363 . S
C559 C558 1.415 . S
H560 C557 0.999 . S
H561 C542 0.913 . S
H562 C580 0.951 . S
H563 C582 0.951 . S
H564 C584 0.950 . S
H565 C585 0.950 . S
H566 C587 0.950 . S
H567 C590 0.950 . S
H568 C591 0.950 . S
H569 C593 0.950 . S
H570 C594 0.950 . S
H571 C595 0.951 . S
H572 C597 0.951 . S
H573 C599 0.950 . S
H574 C600 0.950 . S
H575 C602 0.950 . S
H576 C605 0.950 . S
H577 C606 0.950 . S
H578 C608 0.950 . S
H579 C609 0.950 . S
C580 H562 0.951 . S
C580 C581 1.366 1_545 S
C580 C582 1.388 1_545 S
C581 C580 1.366 1_565 S
C581 C585 1.385 . S
C582 H563 0.951 . S
C582 C580 1.388 1_565 S
C582 C583 1.366 . S
C583 C582 1.366 . S
C583 C584 1.414 . S
C583 C586 1.499 . S
C584 H564 0.950 . S
C584 C583 1.414 . S
C584 C585 1.374 . S
C585 H565 0.950 . S
C585 C581 1.385 . S
C585 C584 1.374 . S
C586 C583 1.499 . S
C586 C587 1.373 . S
C586 C588 1.389 . S
C587 H566 0.950 . S
C587 C586 1.373 . S
C587 C603 1.377 . S
C588 C586 1.389 . S
C588 C589 1.524 . S
C588 C602 1.377 . S
C589 C588 1.524 . S
C589 C590 1.397 . S
C589 C594 1.363 . S
C590 H567 0.950 . S
C590 C589 1.397 . S
C590 C591 1.334 . S
C591 H568 0.950 . S
C591 C590 1.334 . S
C591 C592 1.287 . S
C592 C591 1.287 . S
C592 C593 1.524 . S
C592 H611 0.926 . S
C593 H569 0.950 . S
C593 C592 1.524 . S
C593 C594 1.415 . S
C594 H570 0.950 . S
C594 C589 1.363 . S
C594 C593 1.415 . S
C595 H571 0.951 . S
C595 C596 1.366 . S
C595 C597 1.388 . S
C596 C595 1.366 . S
C596 C600 1.385 . S
C597 H572 0.951 . S
C597 C595 1.388 . S
C597 C598 1.366 . S
C598 C597 1.366 . S
C598 C599 1.414 . S
C598 C601 1.499 . S
C599 H573 0.950 . S
C599 C598 1.414 . S
C599 C600 1.374 . S
C600 H574 0.950 . S
C600 C596 1.385 . S
C600 C599 1.374 . S
C601 C598 1.499 . S
C601 C602 1.373 . S
C601 C603 1.389 . S
C602 H575 0.950 . S
C602 C588 1.377 . S
C602 C601 1.373 . S
C603 C587 1.377 . S
C603 C601 1.389 . S
C603 C604 1.524 . S
C604 C603 1.524 . S
C604 C605 1.397 . S
C604 C609 1.363 . S
C605 H576 0.950 . S
C605 C604 1.397 . S
C605 C606 1.334 . S
C606 H577 0.950 . S
C606 C605 1.334 . S
C606 C607 1.287 . S
C607 C606 1.287 . S
C607 C608 1.524 . S
C607 H610 0.999 . S
C608 H578 0.950 . S
C608 C607 1.524 . S
C608 C609 1.415 . S
C609 H579 0.950 . S
C609 C604 1.363 . S
C609 C608 1.415 . S
H610 C607 0.999 . S
H611 C592 0.926 . S
H612 C630 0.951 1_655 S
H613 C632 0.951 . S
H614 C634 0.950 . S
H615 C635 0.950 . S
H616 C637 0.950 . S
H617 C640 0.950 . S
H618 C641 0.950 . S
H619 C643 0.950 . S
H620 C644 0.950 . S
H621 C645 0.951 . S
H622 C647 0.951 . S
H623 C649 0.950 . S
H624 C650 0.950 1_565 S
H625 C652 0.950 . S
H626 C655 0.950 . S
H627 C656 0.950 . S
H628 C658 0.950 . S
H629 C659 0.950 . S
C630 H612 0.951 1_455 S
C630 C631 1.366 . S
C630 C632 1.388 . S
C631 C630 1.366 . S
C631 C635 1.385 . S
C632 H613 0.951 . S
C632 C630 1.388 . S
C632 C633 1.366 . S
C633 C632 1.366 . S
C633 C634 1.414 . S
C633 C636 1.499 . S
C634 H614 0.950 . S
C634 C633 1.414 . S
C634 C635 1.374 . S
C635 H615 0.950 . S
C635 C631 1.385 . S
C635 C634 1.374 . S
C636 C633 1.499 . S
C636 C637 1.373 1_554 S
C636 C638 1.389 . S
C637 H616 0.950 . S
C637 C636 1.373 1_556 S
C637 C653 1.377 . S
C638 C636 1.389 . S
C638 C639 1.524 . S
C638 C652 1.377 . S
C639 C638 1.524 . S
C639 C640 1.397 . S
C639 C644 1.363 . S
C640 H617 0.950 . S
C640 C639 1.397 . S
C640 C641 1.334 . S
C641 H618 0.950 . S
C641 C640 1.334 . S
C641 C642 1.287 . S
C642 C641 1.287 . S
C642 C643 1.524 . S
C642 H661 0.913 . S
C643 H619 0.950 . S
C643 C642 1.524 . S
C643 C644 1.415 . S
C644 H620 0.950 . S
C644 C639 1.363 . S
C644 C643 1.415 . S
C645 H621 0.951 . S
C645 C646 1.366 . S
C645 C647 1.388 . S
C646 C645 1.366 . S
C646 C650 1.385 . S
C647 H622 0.951 . S
C647 C645 1.388 . S
C647 C648 1.366 . S
C648 C647 1.366 . S
C648 C649 1.414 . S
C648 C651 1.499 . S
C649 H623 0.950 . S
C649 C648 1.414 . S
C649 C650 1.374 . S
C650 H624 0.950 1_545 S
C650 C646 1.385 . S
C650 C649 1.374 . S
C651 C648 1.499 . S
C651 C652 1.373 1_556 S
C651 C653 1.389 . S
C652 H625 0.950 . S
C652 C638 1.377 . S
C652 C651 1.373 1_554 S
C653 C637 1.377 . S
C653 C651 1.389 . S
C653 C654 1.524 . S
C654 C653 1.524 . S
C654 C655 1.397 . S
C654 C659 1.363 . S
C655 H626 0.950 . S
C655 C654 1.397 . S
C655 C656 1.334 . S
C656 H627 0.950 . S
C656 C655 1.334 . S
C656 C657 1.287 . S
C657 C656 1.287 . S
C657 C658 1.524 . S
C657 H660 0.999 . S
C658 H628 0.950 . S
C658 C657 1.524 . S
C658 C659 1.415 . S
C659 H629 0.950 . S
C659 C654 1.363 . S
C659 C658 1.415 . S
H660 C657 0.999 . S
H661 C642 0.913 . S
H662 C680 0.951 1_455 S
H663 C682 0.951 . S
H664 C684 0.950 . S
H665 C685 0.950 . S
H666 C687 0.950 . S
H667 C690 0.950 . S
H668 C691 0.950 . S
H669 C693 0.950 1_455 S
H670 C694 0.950 . S
H671 C695 0.951 . S
H672 C697 0.951 . S
H673 C699 0.950 . S
H674 C700 0.950 . S
H675 C702 0.950 . S
H676 C705 0.950 . S
H677 C706 0.950 . S
H678 C708 0.950 . S
H679 C709 0.950 . S
C680 H662 0.951 1_655 S
C680 C681 1.366 . S
C680 C682 1.388 . S
C681 C680 1.366 . S
C681 C685 1.385 . S
C682 H663 0.951 . S
C682 C680 1.388 . S
C682 C683 1.366 . S
C683 C682 1.366 . S
C683 C684 1.414 . S
C683 C686 1.499 . S
C684 H664 0.950 . S
C684 C683 1.414 . S
C684 C685 1.374 . S
C685 H665 0.950 . S
C685 C681 1.385 . S
C685 C684 1.374 . S
C686 C683 1.499 . S
C686 C687 1.373 . S
C686 C688 1.389 . S
C687 H666 0.950 . S
C687 C686 1.373 . S
C687 C703 1.377 . S
C688 C686 1.389 . S
C688 C689 1.524 . S
C688 C702 1.377 . S
C689 C688 1.524 . S
C689 C690 1.397 . S
C689 C694 1.363 . S
C690 H667 0.950 . S
C690 C689 1.397 . S
C690 C691 1.334 1_655 S
C691 H668 0.950 . S
C691 C690 1.334 1_455 S
C691 C692 1.287 . S
C692 C691 1.287 . S
C692 C693 1.524 1_455 S
C692 H711 0.913 . S
C693 H669 0.950 1_655 S
C693 C692 1.524 1_655 S
C693 C694 1.415 . S
C694 H670 0.950 . S
C694 C689 1.363 . S
C694 C693 1.415 . S
C695 H671 0.951 . S
C695 C696 1.366 . S
C695 C697 1.388 . S
C696 C695 1.366 . S
C696 C700 1.385 . S
C697 H672 0.951 . S
C697 C695 1.388 . S
C697 C698 1.366 . S
C698 C697 1.366 . S
C698 C699 1.414 . S
C698 C701 1.499 . S
C699 H673 0.950 . S
C699 C698 1.414 . S
C699 C700 1.374 . S
C700 H674 0.950 . S
C700 C696 1.385 . S
C700 C699 1.374 . S
C701 C698 1.499 . S
C701 C702 1.373 . S
C701 C703 1.389 . S
C702 H675 0.950 . S
C702 C688 1.377 . S
C702 C701 1.373 . S
C703 C687 1.377 . S
C703 C701 1.389 . S
C703 C704 1.524 . S
C704 C703 1.524 . S
C704 C705 1.397 . S
C704 C709 1.363 . S
C705 H676 0.950 . S
C705 C704 1.397 . S
C705 C706 1.334 . S
C706 H677 0.950 . S
C706 C705 1.334 . S
C706 C707 1.287 . S
C707 C706 1.287 . S
C707 C708 1.524 . S
C707 H710 0.999 . S
C708 H678 0.950 . S
C708 C707 1.524 . S
C708 C709 1.415 . S
C709 H679 0.950 . S
C709 C704 1.363 . S
C709 C708 1.415 . S
H710 C707 0.999 . S
H711 C692 0.913 . S
H712 C730 0.951 1_565 S
H713 C732 0.951 . S
H714 C734 0.950 . S
H715 C735 0.950 . S
H716 C737 0.950 . S
H717 C740 0.950 . S
H718 C741 0.950 1_554 S
H719 C743 0.950 . S
H720 C744 0.950 . S
H721 C745 0.951 . S
H722 C747 0.951 . S
H723 C749 0.950 . S
H724 C750 0.950 . S
H725 C752 0.950 . S
H726 C755 0.950 . S
H727 C756 0.950 . S
H728 C758 0.950 . S
H729 C759 0.950 . S
C730 H712 0.951 1_545 S
C730 C731 1.366 . S
C730 C732 1.388 . S
C731 C730 1.366 . S
C731 C735 1.385 . S
C732 H713 0.951 . S
C732 C730 1.388 . S
C732 C733 1.366 . S
C733 C732 1.366 . S
C733 C734 1.414 . S
C733 C736 1.499 . S
C734 H714 0.950 . S
C734 C733 1.414 . S
C734 C735 1.374 . S
C735 H715 0.950 . S
C735 C731 1.385 . S
C735 C734 1.374 . S
C736 C733 1.499 . S
C736 C737 1.373 . S
C736 C738 1.389 . S
C737 H716 0.950 . S
C737 C736 1.373 . S
C737 C753 1.377 . S
C738 C736 1.389 . S
C738 C739 1.524 . S
C738 C752 1.377 . S
C739 C738 1.524 . S
C739 C740 1.397 . S
C739 C744 1.363 . S
C740 H717 0.950 . S
C740 C739 1.397 . S
C740 C741 1.334 . S
C741 H718 0.950 1_556 S
C741 C740 1.334 . S
C741 C742 1.287 . S
C742 C741 1.287 . S
C742 C743 1.524 . S
C742 H761 0.913 1_556 S
C743 H719 0.950 . S
C743 C742 1.524 . S
C743 C744 1.415 . S
C744 H720 0.950 . S
C744 C739 1.363 . S
C744 C743 1.415 . S
C745 H721 0.951 . S
C745 C746 1.366 . S
C745 C747 1.388 . S
C746 C745 1.366 . S
C746 C750 1.385 . S
C747 H722 0.951 . S
C747 C745 1.388 . S
C747 C748 1.366 . S
C748 C747 1.366 . S
C748 C749 1.414 . S
C748 C751 1.499 . S
C749 H723 0.950 . S
C749 C748 1.414 . S
C749 C750 1.374 . S
C750 H724 0.950 . S
C750 C746 1.385 . S
C750 C749 1.374 . S
C751 C748 1.499 . S
C751 C752 1.373 . S
C751 C753 1.389 . S
C752 H725 0.950 . S
C752 C738 1.377 . S
C752 C751 1.373 . S
C753 C737 1.377 . S
C753 C751 1.389 . S
C753 C754 1.524 . S
C754 C753 1.524 . S
C754 C755 1.397 . S
C754 C759 1.363 . S
C755 H726 0.950 . S
C755 C754 1.397 . S
C755 C756 1.334 . S
C756 H727 0.950 . S
C756 C755 1.334 . S
C756 C757 1.287 . S
C757 C756 1.287 . S
C757 C758 1.524 . S
C757 H760 0.999 . S
C758 H728 0.950 . S
C758 C757 1.524 . S
C758 C759 1.415 . S
C759 H729 0.950 . S
C759 C754 1.363 . S
C759 C758 1.415 . S
H760 C757 0.999 . S
H761 C742 0.913 1_554 S
H762 C780 0.951 1_545 S
H763 C782 0.951 . S
H764 C784 0.950 . S
H765 C785 0.950 . S
H766 C787 0.950 . S
H767 C790 0.950 . S
H768 C791 0.950 . S
H769 C793 0.950 . S
H770 C794 0.950 . S
H771 C795 0.951 . S
H772 C797 0.951 . S
H773 C799 0.950 . S
H774 C800 0.950 1_455 S
H775 C802 0.950 . S
H776 C805 0.950 . S
H777 C806 0.950 . S
H778 C808 0.950 . S
H779 C809 0.950 . S
C780 H762 0.951 1_565 S
C780 C781 1.366 . S
C780 C782 1.388 . S
C781 C780 1.366 . S
C781 C785 1.385 . S
C782 H763 0.951 . S
C782 C780 1.388 . S
C782 C783 1.366 . S
C783 C782 1.366 . S
C783 C784 1.414 . S
C783 C786 1.499 . S
C784 H764 0.950 . S
C784 C783 1.414 . S
C784 C785 1.374 . S
C785 H765 0.950 . S
C785 C781 1.385 . S
C785 C784 1.374 . S
C786 C783 1.499 . S
C786 C787 1.373 1_556 S
C786 C788 1.389 . S
C787 H766 0.950 . S
C787 C786 1.373 1_554 S
C787 C803 1.377 . S
C788 C786 1.389 . S
C788 C789 1.524 . S
C788 C802 1.377 . S
C789 C788 1.524 . S
C789 C790 1.397 . S
C789 C794 1.363 . S
C790 H767 0.950 . S
C790 C789 1.397 . S
C790 C791 1.334 . S
C791 H768 0.950 . S
C791 C790 1.334 . S
C791 C792 1.287 . S
C792 C791 1.287 . S
C792 C793 1.524 . S
C792 H811 0.913 . S
C793 H769 0.950 . S
C793 C792 1.524 . S
C793 C794 1.415 . S
C794 H770 0.950 . S
C794 C789 1.363 . S
C794 C793 1.415 . S
C795 H771 0.951 . S
C795 C796 1.366 . S
C795 C797 1.388 . S
C796 C795 1.366 . S
C796 C800 1.385 . S
C797 H772 0.951 . S
C797 C795 1.388 . S
C797 C798 1.366 . S
C798 C797 1.366 . S
C798 C799 1.414 . S
C798 C801 1.499 . S
C799 H773 0.950 . S
C799 C798 1.414 . S
C799 C800 1.374 . S
C800 H774 0.950 1_655 S
C800 C796 1.385 . S
C800 C799 1.374 . S
C801 C798 1.499 . S
C801 C802 1.373 1_554 S
C801 C803 1.389 . S
C802 H775 0.950 . S
C802 C788 1.377 . S
C802 C801 1.373 1_556 S
C803 C787 1.377 . S
C803 C801 1.389 . S
C803 C804 1.524 . S
C804 C803 1.524 . S
C804 C805 1.397 . S
C804 C809 1.363 . S
C805 H776 0.950 . S
C805 C804 1.397 . S
C805 C806 1.334 . S
C806 H777 0.950 . S
C806 C805 1.334 . S
C806 C807 1.287 . S
C807 C806 1.287 . S
C807 C808 1.524 . S
C807 H810 0.999 . S
C808 H778 0.950 . S
C808 C807 1.524 . S
C808 C809 1.415 . S
C809 H779 0.950 . S
C809 C804 1.363 . S
C809 C808 1.415 . S
H810 C807 0.999 . S
H811 C792 0.913 . S
H812 C830 0.951 1_655 S
H813 C832 0.951 . S
H814 C834 0.950 . S
H815 C835 0.950 . S
H816 C837 0.950 . S
H817 C840 0.950 . S
H818 C841 0.950 1_556 S
H819 C843 0.950 . S
H820 C844 0.950 . S
H821 C845 0.951 . S
H822 C847 0.951 . S
H823 C849 0.950 . S
H824 C850 0.950 . S
H825 C852 0.950 . S
H826 C855 0.950 . S
H827 C856 0.950 . S
H828 C858 0.950 . S
H829 C859 0.950 . S
C830 H812 0.951 1_455 S
C830 C831 1.366 . S
C830 C832 1.388 . S
C831 C830 1.366 . S
C831 C835 1.385 . S
C832 H813 0.951 . S
C832 C830 1.388 . S
C832 C833 1.366 . S
C833 C832 1.366 . S
C833 C834 1.414 . S
C833 C836 1.499 . S
C834 H814 0.950 . S
C834 C833 1.414 . S
C834 C835 1.374 . S
C835 H815 0.950 . S
C835 C831 1.385 . S
C835 C834 1.374 . S
C836 C833 1.499 . S
C836 C837 1.373 . S
C836 C838 1.389 . S
C837 H816 0.950 . S
C837 C836 1.373 . S
C837 C853 1.377 . S
C838 C836 1.389 . S
C838 C839 1.524 . S
C838 C852 1.377 . S
C839 C838 1.524 . S
C839 C840 1.397 . S
C839 C844 1.363 . S
C840 H817 0.950 . S
C840 C839 1.397 . S
C840 C841 1.334 . S
C841 H818 0.950 1_554 S
C841 C840 1.334 . S
C841 C842 1.286 1_554 S
C842 C841 1.286 1_556 S
C842 C843 1.523 1_556 S
C842 H861 0.915 . S
C843 H819 0.950 . S
C843 C842 1.523 1_554 S
C843 C844 1.415 . S
C844 H820 0.950 . S
C844 C839 1.363 . S
C844 C843 1.415 . S
C845 H821 0.951 . S
C845 C846 1.366 . S
C845 C847 1.388 . S
C846 C845 1.366 . S
C846 C850 1.385 . S
C847 H822 0.951 . S
C847 C845 1.388 . S
C847 C848 1.366 . S
C848 C847 1.366 . S
C848 C849 1.414 . S
C848 C851 1.499 . S
C849 H823 0.950 . S
C849 C848 1.414 . S
C849 C850 1.374 . S
C850 H824 0.950 . S
C850 C846 1.385 . S
C850 C849 1.374 . S
C851 C848 1.499 . S
C851 C852 1.373 . S
C851 C853 1.389 . S
C852 H825 0.950 . S
C852 C838 1.377 . S
C852 C851 1.373 . S
C853 C837 1.377 . S
C853 C851 1.389 . S
C853 C854 1.524 . S
C854 C853 1.524 . S
C854 C855 1.397 . S
C854 C859 1.363 . S
C855 H826 0.950 . S
C855 C854 1.397 . S
C855 C856 1.334 . S
C856 H827 0.950 . S
C856 C855 1.334 . S
C856 C857 1.287 . S
C857 C856 1.287 . S
C857 C858 1.524 . S
C857 H860 0.999 . S
C858 H828 0.950 . S
C858 C857 1.524 . S
C858 C859 1.415 . S
C859 H829 0.950 . S
C859 C854 1.363 . S
C859 C858 1.415 . S
H860 C857 0.999 . S
H861 C842 0.915 . S
H862 C880 0.951 . S
H863 C882 0.951 . S
H864 C884 0.950 . S
H865 C885 0.950 . S
H866 C887 0.950 . S
H867 C890 0.950 . S
H868 C891 0.950 . S
H869 C893 0.950 . S
H870 C894 0.950 . S
H871 C895 0.951 . S
H872 C897 0.951 . S
H873 C899 0.950 . S
H874 C900 0.950 . S
H875 C902 0.950 . S
H876 C905 0.950 . S
H877 C906 0.950 . S
H878 C908 0.950 . S
H879 C909 0.950 . S
C880 H862 0.951 . S
C880 C881 1.366 . S
C880 C882 1.388 . S
C881 C880 1.366 . S
C881 C885 1.385 . S
C882 H863 0.951 . S
C882 C880 1.388 . S
C882 C883 1.366 . S
C883 C882 1.366 . S
C883 C884 1.414 . S
C883 C886 1.499 . S
C884 H864 0.950 . S
C884 C883 1.414 . S
C884 C885 1.374 . S
C885 H865 0.950 . S
C885 C881 1.385 . S
C885 C884 1.374 . S
C886 C883 1.499 . S
C886 C887 1.373 . S
C886 C888 1.389 . S
C887 H866 0.950 . S
C887 C886 1.373 . S
C887 C903 1.377 . S
C888 C886 1.389 . S
C888 C889 1.524 . S
C888 C902 1.377 . S
C889 C888 1.524 . S
C889 C890 1.397 . S
C889 C894 1.363 . S
C890 H867 0.950 . S
C890 C889 1.397 . S
C890 C891 1.334 . S
C891 H868 0.950 . S
C891 C890 1.334 . S
C891 C892 1.287 . S
C892 C891 1.287 . S
C892 C893 1.524 . S
C892 H911 0.913 . S
C893 H869 0.950 . S
C893 C892 1.524 . S
C893 C894 1.415 . S
C894 H870 0.950 . S
C894 C889 1.363 . S
C894 C893 1.415 . S
C895 H871 0.951 . S
C895 C896 1.366 . S
C895 C897 1.388 . S
C896 C895 1.366 . S
C896 C900 1.385 . S
C897 H872 0.951 . S
C897 C895 1.388 . S
C897 C898 1.366 . S
C898 C897 1.366 . S
C898 C899 1.414 . S
C898 C901 1.499 . S
C899 H873 0.950 . S
C899 C898 1.414 . S
C899 C900 1.374 . S
C900 H874 0.950 . S
C900 C896 1.385 . S
C900 C899 1.374 . S
C901 C898 1.499 . S
C901 C902 1.373 . S
C901 C903 1.389 . S
C902 H875 0.950 . S
C902 C888 1.377 . S
C902 C901 1.373 . S
C903 C887 1.377 . S
C903 C901 1.389 . S
C903 C904 1.524 . S
C904 C903 1.524 . S
C904 C905 1.397 . S
C904 C909 1.363 . S
C905 H876 0.950 . S
C905 C904 1.397 . S
C905 C906 1.334 . S
C906 H877 0.950 . S
C906 C905 1.334 . S
C906 C907 1.287 . S
C907 C906 1.287 . S
C907 C908 1.524 . S
C907 H910 0.999 . S
C908 H878 0.950 . S
C908 C907 1.524 . S
C908 C909 1.415 . S
C909 H879 0.950 . S
C909 C904 1.363 . S
C909 C908 1.415 . S
H910 C907 0.999 . S
H911 C892 0.913 . S
C131 C25 1.325 . S
C146 C11 1.326 . S
C181 C19 1.218 . S
C196 C33 1.216 . S
C231 C53 1.326 . S
C246 C39 1.325 . S
C281 C47 1.217 . S
C296 C5 1.217 . S
C331 C67 1.325 . S
C346 C81 1.325 . S
C381 C75 1.218 . S
C396 C89 1.216 . S
C431 C95 1.325 . S
C446 C109 1.326 . S
C481 C61 1.217 . S
C496 C103 1.218 . S
C531 C12 1.467 . S
C546 C110 1.467 . S
C581 C60 1.397 1_565 S
C596 C18 1.397 . S
C631 C82 1.467 1_455 S
C646 C40 1.467 1_545 S
C681 C46 1.397 1_655 S
C696 C88 1.398 . S
C731 C32 1.397 1_545 S
C746 C102 1.397 . S
C781 C68 1.467 1_565 S
C796 C54 1.467 1_655 S
C831 C74 1.397 1_455 S
C846 C4 1.397 . S
C881 C26 1.467 . S
C896 C96 1.467 . S
