# Generated by pormake.
# Topology uni, (4)-cn, num edge types: 1
# Building blocks:
#     Node 0, Type 0, BuildingBlock: QUQFOY_clean_sbu_3, # of connection points: 4
#     Node 1, Type 0, BuildingBlock: QUQFOY_clean_sbu_3, # of connection points: 4
#     Node 2, Type 0, BuildingBlock: QUQFOY_clean_sbu_3, # of connection points: 4
#     Node 3, Type 0, BuildingBlock: QUQFOY_clean_sbu_3, # of connection points: 4
#     Node 4, Type 0, BuildingBlock: QUQFOY_clean_sbu_3, # of connection points: 4
#     Node 5, Type 0, BuildingBlock: QUQFOY_clean_sbu_3, # of connection points: 4
#     Edge 6, Type (0, 0), BuildingBlock: XIVTED_clean_linker_0, # of connection points: 2
#     Edge 7, Type (0, 0), BuildingBlock: XIVTED_clean_linker_0, # of connection points: 2
#     Edge 8, Type (0, 0), BuildingBlock: XIVTED_clean_linker_0, # of connection points: 2
#     Edge 9, Type (0, 0), BuildingBlock: XIVTED_clean_linker_0, # of connection points: 2
#     Edge 10, Type (0, 0), BuildingBlock: XIVTED_clean_linker_0, # of connection points: 2
#     Edge 11, Type (0, 0), BuildingBlock: XIVTED_clean_linker_0, # of connection points: 2
#     Edge 12, Type (0, 0), BuildingBlock: XIVTED_clean_linker_0, # of connection points: 2
#     Edge 13, Type (0, 0), BuildingBlock: XIVTED_clean_linker_0, # of connection points: 2
#     Edge 14, Type (0, 0), BuildingBlock: XIVTED_clean_linker_0, # of connection points: 2
#     Edge 15, Type (0, 0), BuildingBlock: XIVTED_clean_linker_0, # of connection points: 2
#     Edge 16, Type (0, 0), BuildingBlock: XIVTED_clean_linker_0, # of connection points: 2
#     Edge 17, Type (0, 0), BuildingBlock: XIVTED_clean_linker_0, # of connection points: 2
# Relax obj value: 0.064
# Max RMSD: 0.096
# Mean RMSD: 0.087
data_MOF--net-uni--node1-QUQFOY_clean_sbu_3--edge1-XIVTED_clean_linker_0
_symmetry_space_group_name_H-M    P1
_symmetry_Int_Tables_number       1
_symmetry_cell_setting            triclinic
loop_
_symmetry_equiv_pos_as_xyz
'x, y, z'
_cell_length_a     40.376512
_cell_length_b     41.510599
_cell_length_c     23.692514
_cell_angle_alpha  89.832288
_cell_angle_beta   90.339786
_cell_angle_gamma 120.301
loop_
_atom_site_label
_atom_site_type_symbol
_atom_site_fract_x
_atom_site_fract_y
_atom_site_fract_z
_atom_type_partial_charge
C0 C 0.70521 0.11005 0.10229 0.0
O1 O 0.68437 0.12087 0.12602 0.0
Cd2 Cd 0.62207 0.0826 0.16543 0.0
O3 O 0.694 0.0754 0.09803 0.0
Cd4 Cd 0.63553 0.01526 0.12333 0.0
C5 C 0.57735 0.03558 0.04411 0.0
O6 O 0.62285 0.033 0.21487 0.0
O7 O 0.57892 0.97976 0.18269 0.0
O8 O 0.66976 0.98363 0.15396 0.0
C9 C 0.59075 0.00356 0.22224 0.0
O10 O 0.58192 0.05929 0.08181 0.0
C11 C 0.65677 0.95944 0.11479 0.0
O12 O 0.59431 0.01675 0.04768 0.0
O13 O 0.63481 0.96189 0.07858 0.0
C14 C 0.70227 0.61586 0.14275 0.0
O15 O 0.68542 0.58665 0.11246 0.0
Cd16 Cd 0.62398 0.56414 0.06699 0.0
O17 O 0.68874 0.63759 0.14745 0.0
Cd18 Cd 0.63424 0.64281 0.10965 0.0
C19 C 0.57294 0.56438 0.18231 0.0
O20 O 0.62639 0.61486 0.0165 0.0
O21 O 0.58014 0.62262 0.04485 0.0
O22 O 0.67144 0.70894 0.08452 0.0
C23 C 0.59427 0.6123 0.00609 0.0
O24 O 0.57763 0.54547 0.14417 0.0
C25 C 0.65517 0.71924 0.12002 0.0
O26 O 0.59168 0.59993 0.18156 0.0
O27 O 0.63 0.69418 0.15164 0.0
C28 C 0.89332 0.60853 0.40041 0.0
O29 O 0.87811 0.58014 0.4324 0.0
Cd30 Cd 0.91491 0.55503 0.47362 0.0
O31 O 0.92963 0.62809 0.39575 0.0
Cd32 Cd -0.01305 0.63125 0.44058 0.0
C33 C 0.97049 0.55797 0.36096 0.0
O34 O 0.96501 0.59961 0.53263 0.0
O35 O 0.01794 0.60655 0.49867 0.0
O36 O 0.01152 0.69327 0.47919 0.0
C37 C -0.00551 0.59638 0.53929 0.0
O38 O 0.94278 0.53933 0.39472 0.0
C39 C 0.04277 0.70836 0.45194 0.0
O40 O -0.00842 0.59326 0.36583 0.0
O41 O 0.04725 0.68802 0.41633 0.0
C42 C 0.28492 0.91464 0.60238 0.0
O43 O 0.30088 0.8999 0.63012 0.0
Cd44 Cd 0.3666 0.93153 0.65993 0.0
O45 O 0.3026 0.94954 0.59206 0.0
Cd46 Cd 0.36547 0.00516 0.61753 0.0
C47 C 0.41359 0.97477 0.5371 0.0
O48 O 0.37652 0.98539 0.70965 0.0
O49 O 0.42411 0.03494 0.67362 0.0
O50 O 0.33892 0.04306 0.65047 0.0
C51 C 0.41069 0.01233 0.71462 0.0
O52 O 0.40528 0.94953 0.57413 0.0
C53 C 0.35369 0.0674 0.61173 0.0
O54 O 0.40181 -0.00209 0.54159 0.0
O55 O 0.37305 0.06224 0.57447 0.0
C56 C 0.29165 0.3951 0.64474 0.0
O57 O 0.30197 0.42198 0.61041 0.0
Cd58 Cd 0.36495 0.45308 0.57019 0.0
O59 O 0.31231 0.38029 0.65238 0.0
Cd60 Cd 0.37127 0.38503 0.61161 0.0
C61 C 0.42142 0.46371 0.68689 0.0
O62 O 0.376 0.41064 0.51668 0.0
O63 O 0.42855 0.41899 0.55484 0.0
O64 O 0.34277 0.32055 0.57983 0.0
C65 C 0.4115 0.42189 0.51168 0.0
O66 O 0.40964 0.47845 0.6506 0.0
C67 C 0.36069 0.31161 0.61482 0.0
O68 O 0.41086 0.42919 0.68433 0.0
O69 O 0.38324 0.33668 0.64918 0.0
C70 C 0.10448 0.40213 0.90116 0.0
O71 O 0.12221 0.43165 0.93048 0.0
Cd72 Cd 0.09061 0.462 0.97102 0.0
O73 O 0.06802 0.38464 0.89788 0.0
Cd74 Cd 0.01503 0.38938 0.94199 0.0
C75 C 0.03661 0.46329 0.85935 0.0
O76 O 0.04079 0.4211 0.03395 0.0
O77 O -0.01017 0.41908 0.00024 0.0
O78 O -0.01818 0.32445 0.97439 0.0
C79 C 0.01323 0.42722 0.04085 0.0
O80 O 0.06507 0.48146 0.89244 0.0
C81 C 0.95052 0.31576 0.94928 0.0
O82 O 0.01418 0.42836 0.86572 0.0
O83 O 0.95019 0.34067 0.91841 0.0
H84 H 0.59585 0.0582 0.29205 0.0
H85 H 0.42656 0.92093 0.49474 0.0
H86 H 0.52896 0.93967 0.26125 0.0
H87 H 0.45779 0.03606 0.47171 0.0
H88 H 0.47022 0.92769 0.41837 0.0
H89 H 0.55202 0.05105 0.36851 0.0
C90 C 0.57212 0.03065 0.3017 0.0
C91 C 0.56592 -0.00055 0.27036 0.0
C92 C 0.46734 0.95138 0.42998 0.0
C93 C 0.51601 -0.00886 0.35757 0.0
C94 C 0.44255 0.9476 0.47356 0.0
C95 C 0.43852 0.97798 0.48947 0.0
C96 C 0.4888 0.98597 0.40295 0.0
C97 C 0.45986 0.01187 0.46053 0.0
C98 C 0.54703 0.02665 0.34498 0.0
C99 C 0.53463 0.96443 0.28433 0.0
N100 N 0.48438 0.01506 0.41893 0.0
N101 N 0.5109 0.96116 0.32717 0.0
H102 H 0.57678 0.58996 0.28941 0.0
H103 H 0.38562 0.41585 0.40287 0.0
H104 H 0.50988 0.49411 0.18288 0.0
H105 H 0.48688 0.47537 0.5069 0.0
H106 H 0.42341 0.45136 0.32039 0.0
H107 H 0.53575 0.55542 0.36925 0.0
C108 C 0.5532 0.56181 0.2827 0.0
C109 C 0.54678 0.54473 0.22963 0.0
C110 C 0.43714 0.4565 0.36141 0.0
C111 C 0.49971 0.50548 0.3203 0.0
C112 C 0.4157 0.43643 0.40829 0.0
C113 C 0.4333 0.44262 0.4615 0.0
C114 C 0.476 0.48354 0.36845 0.0
C115 C 0.47234 0.46954 0.46647 0.0
C116 C 0.53002 0.54213 0.32824 0.0
C117 C 0.51594 0.50812 0.22329 0.0
N118 N 0.49232 0.48927 0.4206 0.0
N119 N 0.49334 0.48969 0.26815 0.0
H120 H 0.96967 0.4409 0.80093 0.0
H121 H 0.06203 0.60587 0.5789 0.0
H122 H 0.08689 0.53125 0.81407 0.0
H123 H 0.94075 0.54781 0.61421 0.0
H124 H 0.07186 0.57445 0.65905 0.0
H125 H 0.95845 0.4751 0.7258 0.0
C126 C -0.00695 0.46785 0.78791 0.0
C127 C 0.02932 0.48323 0.81363 0.0
C128 C 0.04313 0.56878 0.64954 0.0
C129 C 0.01668 0.52219 0.72788 0.0
C130 C 0.03748 0.58659 0.60377 0.0
C131 C 0.00052 0.57934 0.59003 0.0
C132 C 0.0115 0.54294 0.68114 0.0
C133 C 0.96972 0.55424 0.62369 0.0
C134 C -0.01347 0.4874 0.7454 0.0
C135 C 0.05849 0.51837 0.79545 0.0
N136 N 0.97583 0.53653 0.66746 0.0
N137 N 0.05162 0.53652 0.75335 0.0
H138 H 0.53736 0.97387 0.97671 0.0
H139 H 0.47396 0.075 0.75304 0.0
H140 H 0.56137 0.08678 -7e-05 0.0
H141 H 0.40265 0.95725 0.78676 0.0
H142 H 0.51477 0.08011 0.83339 0.0
H143 H 0.49572 0.96733 0.89608 0.0
C144 C 0.53398 -0.00274 0.9647 0.0
C145 C 0.55267 0.03087 -0.00499 0.0
C146 C 0.49013 0.0532 0.82319 0.0
C147 C 0.5059 0.02375 0.90307 0.0
C148 C 0.46695 0.05024 0.77739 0.0
C149 C 0.43486 0.0157 0.7636 0.0
C150 C 0.48164 0.02124 0.85454 0.0
C151 C 0.42699 0.98445 0.79644 0.0
C152 C 0.51015 -0.00656 0.91907 0.0
C153 C 0.54726 0.0603 0.97792 0.0
N154 N 0.45047 0.98787 0.84026 0.0
N155 N 0.52462 0.05616 0.93279 0.0
H156 H 0.60374 0.56555 0.93551 0.0
H157 H 0.43363 0.53082 0.72599 0.0
H158 H 0.53305 0.61479 0.96176 0.0
H159 H 0.46975 0.45001 0.75061 0.0
H160 H 0.47766 0.56904 0.80135 0.0
H161 H 0.56267 0.53025 0.85558 0.0
C162 C 0.57982 0.56921 0.92408 0.0
C163 C 0.57164 0.59299 0.95533 0.0
C164 C 0.47589 0.54294 0.79015 0.0
C165 C 0.52487 0.55296 0.86412 0.0
C166 C 0.4509 0.52118 0.74711 0.0
C167 C 0.44791 0.4871 0.73221 0.0
C168 C 0.49856 0.53087 0.81772 0.0
C169 C 0.47094 0.47594 0.76106 0.0
C170 C 0.55632 0.54891 0.87878 0.0
C171 C 0.5402 0.59657 0.93892 0.0
N172 N 0.49547 0.49788 0.80228 0.0
N173 N 0.51798 0.57683 0.89429 0.0
H174 H 0.06908 0.47483 0.11515 0.0
H175 H 0.92073 0.48917 0.31856 0.0
H176 H 0.94731 0.41931 0.08252 0.0
H177 H 0.03684 0.58084 0.30101 0.0
H178 H 0.93258 0.45583 0.24412 0.0
H179 H 0.06012 0.50683 0.19608 0.0
C180 C 0.0405 0.46909 0.12546 0.0
C181 C 0.00887 0.44457 0.09224 0.0
C182 C 0.95547 0.48323 0.25662 0.0
C183 C -0.0015 0.48047 0.18407 0.0
C184 C 0.94879 0.50226 0.29915 0.0
C185 C 0.97779 0.53795 0.31574 0.0
C186 C -0.00841 0.49967 0.23095 0.0
C187 C 0.0136 0.55352 0.28905 0.0
C188 C 0.03548 0.48747 0.17116 0.0
C189 C 0.97246 0.4382 0.10691 0.0
N190 N 0.0196 0.53418 0.24798 0.0
N191 N 0.96826 0.45592 0.15186 0.0
H192 H 0.6441 0.75502 0.20808 0.0
H193 H 0.65172 0.91601 0.02485 0.0
H194 H 0.68337 0.77123 0.03579 0.0
H195 H 0.6784 0.93147 0.20282 0.0
H196 H 0.65819 0.86035 0.02672 0.0
H197 H 0.65137 0.81733 0.20703 0.0
C198 C 0.65458 0.77186 0.17024 0.0
C199 C 0.66309 0.75803 0.12192 0.0
C200 C 0.6631 0.87626 0.06513 0.0
C201 C 0.67067 0.82871 0.12009 0.0
C202 C 0.65929 0.90787 0.06415 0.0
C203 C 0.66444 0.92824 0.11379 0.0
C204 C 0.67108 0.86447 0.1164 0.0
C205 C 0.67428 0.91657 0.16359 0.0
C206 C 0.65884 0.80738 0.16974 0.0
C207 C 0.67662 0.78096 0.07399 0.0
N208 N 0.67666 0.88505 0.16387 0.0
N209 N 0.6794 0.81499 0.07393 0.0
H210 H 0.82283 0.59867 0.42571 0.0
H211 H 0.75823 0.59966 0.11701 0.0
H212 H 0.90715 0.63618 0.29328 0.0
H213 H 0.72081 0.64558 0.24843 0.0
H214 H 0.80885 0.6043 0.18049 0.0
H215 H 0.77966 0.60707 0.36166 0.0
C216 C 0.83233 0.60899 0.38335 0.0
C217 C 0.86855 0.61687 0.36466 0.0
C218 C 0.7898 0.61379 0.19495 0.0
C219 C 0.81921 0.62545 0.29129 0.0
C220 C 0.76098 0.61108 0.15897 0.0
C221 C 0.7355 0.62238 0.17758 0.0
C222 C 0.79218 0.62665 0.25036 0.0
C223 C 0.74012 0.63687 0.23239 0.0
C224 C 0.80783 0.61386 0.34706 0.0
C225 C 0.87953 0.63008 0.30936 0.0
N226 N 0.76748 0.63793 0.26734 0.0
N227 N 0.85464 0.63331 0.27415 0.0
H228 H 0.10813 0.75388 0.39201 0.0
H229 H 0.22482 0.85782 0.65684 0.0
H230 H 0.0499 0.74772 0.54737 0.0
H231 H 0.25702 0.9159 0.49754 0.0
H232 H 0.16198 0.81335 0.61672 0.0
H233 H 0.16492 0.81071 0.42708 0.0
C234 C 0.10705 0.76486 0.43294 0.0
C235 C 0.07441 0.74596 0.46702 0.0
C236 C 0.18262 0.83616 0.59083 0.0
C237 C 0.13916 0.80994 0.50754 0.0
C238 C 0.2184 0.86135 0.61357 0.0
C239 C 0.24586 0.89041 0.58033 0.0
C240 C 0.17483 0.83936 0.53396 0.0
C241 C 0.23634 0.89388 0.52446 0.0
C242 C 0.13934 0.79723 0.45279 0.0
C243 C 0.07448 0.76135 0.51975 0.0
N244 N 0.20175 0.8681 0.50248 0.0
N245 N 0.10668 0.79198 0.53895 0.0
H246 H 0.3361 0.26176 0.52776 0.0
H247 H 0.33755 0.09834 0.70118 0.0
H248 H 0.37551 0.27629 0.70053 0.0
H249 H 0.36286 0.11362 0.52313 0.0
H250 H 0.33686 0.15706 0.70245 0.0
H251 H 0.33154 0.20056 0.5264 0.0
C252 C 0.34349 0.25193 0.56552 0.0
C253 C 0.35633 0.2741 0.61431 0.0
C254 C 0.34235 0.14736 0.66313 0.0
C255 C 0.35065 0.2042 0.61315 0.0
C256 C 0.34252 0.11384 0.66224 0.0
C257 C 0.35039 0.10123 0.61197 0.0
C258 C 0.34925 0.16794 0.61316 0.0
C259 C 0.35687 0.12249 0.5628 0.0
C260 C 0.34104 0.21718 0.56457 0.0
C261 C 0.3657 0.26013 0.66199 0.0
N262 N 0.35598 0.15479 0.56454 0.0
N263 N 0.36246 0.22591 0.66035 0.0
H264 H 0.08451 0.36724 0.79881 0.0
H265 H 0.28081 0.36915 0.75288 0.0
H266 H 0.17512 0.41104 0.92354 0.0
H267 H 0.22693 0.39793 0.61983 0.0
H268 H 0.23052 0.36225 0.8179 0.0
H269 H 0.12578 0.35646 0.73522 0.0
C270 C 0.11274 0.37379 0.81327 0.0
C271 C 0.12663 0.3903 0.86627 0.0
C272 C 0.22945 0.36937 0.77416 0.0
C273 C 0.17336 0.37755 0.7944 0.0
C274 C 0.25788 0.37308 0.73701 0.0
C275 C 0.25808 0.38437 0.68105 0.0
C276 C 0.20062 0.37612 0.75476 0.0
C277 C 0.22791 0.38946 0.66279 0.0
C278 C 0.13622 0.36782 0.77693 0.0
C279 C 0.16352 0.39855 0.8828 0.0
N280 N 0.20035 0.38535 0.69962 0.0
N281 N 0.18568 0.39209 0.84693 0.0
H282 H 0.94218 0.25447 0.00665 0.0
H283 H 0.72398 0.17942 0.06658 0.0
H284 H 0.8775 0.29688 0.92051 0.0
H285 H 0.7688 0.10464 0.07744 0.0
H286 H 0.78319 0.22577 0.02152 0.0
H287 H 0.88166 0.20091 0.03915 0.0
C288 C 0.91529 0.25221 -0.00619 0.0
C289 C 0.91485 0.28031 0.96118 0.0
C290 C 0.78004 0.19916 0.03352 0.0
C291 C 0.84604 0.21987 -0.00089 0.0
C292 C 0.7464 0.17281 0.05973 0.0
C293 C 0.74155 0.13819 0.07601 0.0
C294 C 0.8095 0.19127 0.02443 0.0
C295 C 0.77145 0.13103 0.06548 0.0
C296 C 0.88087 0.22171 0.01237 0.0
C297 C 0.87924 0.27599 0.94574 0.0
N298 N 0.80447 0.15758 0.04083 0.0
N299 N 0.84631 0.2467 0.96562 0.0
loop_
_geom_bond_atom_site_label_1
_geom_bond_atom_site_label_2
_geom_bond_distance
_geom_bond_site_symmetry_2
_ccdc_geom_bond_type
C0 O1 1.306 . S
C0 O3 1.160 . S
O1 C0 1.306 . S
O1 Cd2 2.228 . S
Cd2 O1 2.228 . S
Cd2 O6 2.273 . S
Cd2 O10 2.277 . S
O3 C0 1.160 . S
O3 Cd4 2.203 . S
Cd4 O3 2.203 . S
Cd4 O6 2.411 . S
Cd4 O7 2.333 1_545 S
Cd4 O8 2.352 1_545 S
Cd4 O12 2.280 1_544 S
Cd4 O13 2.356 1_545 S
C5 O10 1.209 1_556 S
C5 O12 1.199 1_545 S
O6 Cd2 2.273 . S
O6 Cd4 2.411 . S
O6 C9 1.320 . S
O7 Cd4 2.333 1_565 S
O7 C9 1.214 1_565 S
O8 Cd4 2.352 1_565 S
O8 C11 1.258 . S
C9 O6 1.320 . S
C9 O7 1.214 1_545 S
O10 Cd2 2.277 . S
O10 C5 1.209 1_554 S
C11 O8 1.258 . S
C11 O13 1.282 . S
O12 Cd4 2.280 1_566 S
O12 C5 1.199 1_565 S
O13 Cd4 2.356 1_565 S
O13 C11 1.282 . S
C14 O15 1.306 . S
C14 O17 1.160 . S
O15 C14 1.306 . S
O15 Cd16 2.228 . S
Cd16 O15 2.228 . S
Cd16 O20 2.273 . S
Cd16 O24 2.277 . S
O17 C14 1.160 . S
O17 Cd18 2.203 . S
Cd18 O17 2.203 . S
Cd18 O20 2.411 . S
Cd18 O21 2.333 . S
Cd18 O22 2.352 . S
Cd18 O26 2.277 . S
Cd18 O27 2.356 . S
C19 O24 1.209 . S
C19 O26 1.226 . S
O20 Cd16 2.273 . S
O20 Cd18 2.411 . S
O20 C23 1.320 . S
O21 Cd18 2.333 . S
O21 C23 1.214 . S
O22 Cd18 2.352 . S
O22 C25 1.258 . S
C23 O20 1.320 . S
C23 O21 1.214 . S
O24 Cd16 2.277 . S
O24 C19 1.209 . S
C25 O22 1.258 . S
C25 O27 1.282 . S
O26 Cd18 2.277 . S
O26 C19 1.226 . S
O27 Cd18 2.356 . S
O27 C25 1.282 . S
C28 O29 1.306 . S
C28 O31 1.160 . S
O29 C28 1.306 . S
O29 Cd30 2.228 . S
Cd30 O29 2.228 . S
Cd30 O34 2.273 . S
Cd30 O38 2.277 . S
O31 C28 1.160 . S
O31 Cd32 2.203 1_655 S
Cd32 O31 2.203 1_455 S
Cd32 O34 2.411 1_455 S
Cd32 O35 2.333 . S
Cd32 O36 2.352 . S
Cd32 O40 2.277 . S
Cd32 O41 2.356 . S
C33 O38 1.209 1_455 S
C33 O40 1.226 . S
O34 Cd30 2.273 . S
O34 Cd32 2.411 1_655 S
O34 C37 1.320 1_655 S
O35 Cd32 2.333 . S
O35 C37 1.214 . S
O36 Cd32 2.352 . S
O36 C39 1.258 . S
C37 O34 1.320 1_455 S
C37 O35 1.214 . S
O38 Cd30 2.277 . S
O38 C33 1.209 1_655 S
C39 O36 1.258 . S
C39 O41 1.282 . S
O40 Cd32 2.277 . S
O40 C33 1.226 . S
O41 Cd32 2.356 . S
O41 C39 1.282 . S
C42 O43 1.306 . S
C42 O45 1.160 . S
O43 C42 1.306 . S
O43 Cd44 2.228 . S
Cd44 O43 2.228 . S
Cd44 O48 2.283 . S
Cd44 O52 2.277 . S
O45 C42 1.160 . S
O45 Cd46 2.203 1_565 S
Cd46 O45 2.203 1_545 S
Cd46 O48 2.403 1_545 S
Cd46 O49 2.333 . S
Cd46 O50 2.352 . S
Cd46 O54 2.277 . S
Cd46 O55 2.356 . S
C47 O52 1.209 1_545 S
C47 O54 1.226 . S
O48 Cd44 2.283 . S
O48 Cd46 2.403 1_565 S
O48 C51 1.315 1_565 S
O49 Cd46 2.333 . S
O49 C51 1.214 . S
O50 Cd46 2.352 . S
O50 C53 1.258 . S
C51 O48 1.315 1_545 S
C51 O49 1.214 . S
O52 Cd44 2.277 . S
O52 C47 1.209 1_565 S
C53 O50 1.258 . S
C53 O55 1.282 . S
O54 Cd46 2.277 . S
O54 C47 1.226 . S
O55 Cd46 2.356 . S
O55 C53 1.282 . S
C56 O57 1.306 . S
C56 O59 1.160 . S
O57 C56 1.306 . S
O57 Cd58 2.228 . S
Cd58 O57 2.228 . S
Cd58 O62 2.273 . S
Cd58 O66 2.277 . S
O59 C56 1.160 . S
O59 Cd60 2.203 . S
Cd60 O59 2.203 . S
Cd60 O62 2.411 . S
Cd60 O63 2.333 . S
Cd60 O64 2.352 . S
Cd60 O68 2.277 . S
Cd60 O69 2.356 . S
C61 O66 1.209 . S
C61 O68 1.226 . S
O62 Cd58 2.273 . S
O62 Cd60 2.411 . S
O62 C65 1.320 . S
O63 Cd60 2.333 . S
O63 C65 1.214 . S
O64 Cd60 2.352 . S
O64 C67 1.258 . S
C65 O62 1.320 . S
C65 O63 1.214 . S
O66 Cd58 2.277 . S
O66 C61 1.209 . S
C67 O64 1.258 . S
C67 O69 1.282 . S
O68 Cd60 2.277 . S
O68 C61 1.226 . S
O69 Cd60 2.356 . S
O69 C67 1.282 . S
C70 O71 1.306 . S
C70 O73 1.160 . S
O71 C70 1.306 . S
O71 Cd72 2.228 . S
Cd72 O71 2.228 . S
Cd72 O76 2.273 . S
Cd72 O80 2.277 . S
O73 C70 1.160 . S
O73 Cd74 2.203 . S
Cd74 O73 2.203 . S
Cd74 O76 2.411 . S
Cd74 O77 2.333 1_455 S
Cd74 O78 2.352 1_455 S
Cd74 O82 2.277 1_455 S
Cd74 O83 2.356 1_455 S
C75 O80 1.209 . S
C75 O82 1.226 1_455 S
O76 Cd72 2.273 . S
O76 Cd74 2.411 . S
O76 C79 1.320 . S
O77 Cd74 2.333 1_655 S
O77 C79 1.214 1_655 S
O78 Cd74 2.352 1_655 S
O78 C81 1.258 . S
C79 O76 1.320 . S
C79 O77 1.214 1_455 S
O80 Cd72 2.277 . S
O80 C75 1.209 . S
C81 O78 1.258 . S
C81 O83 1.282 . S
O82 Cd74 2.277 1_655 S
O82 C75 1.226 1_655 S
O83 Cd74 2.356 1_655 S
O83 C81 1.282 . S
H84 C90 0.930 . S
H85 C94 0.930 . S
H86 C99 0.929 . S
H87 C97 0.929 . S
H88 C92 0.929 . S
H89 C98 0.929 . S
C90 H84 0.930 . S
C90 C91 1.367 . S
C90 C98 1.378 . S
C91 C90 1.367 . S
C91 C99 1.433 1_545 S
C92 H88 0.929 . S
C92 C94 1.378 . S
C92 C96 1.350 1_565 S
C93 C96 1.463 . S
C93 C98 1.350 . S
C93 N101 1.427 1_545 S
C94 H85 0.930 . S
C94 C92 1.378 . S
C94 C95 1.367 1_565 S
C95 C94 1.367 1_545 S
C95 C97 1.433 . S
C96 C92 1.350 1_545 S
C96 C93 1.463 . S
C96 N100 1.427 . S
C97 H87 0.929 . S
C97 C95 1.433 . S
C97 N100 1.384 . S
C98 H89 0.929 . S
C98 C90 1.378 . S
C98 C93 1.350 . S
C99 H86 0.929 . S
C99 C91 1.433 1_565 S
C99 N101 1.384 . S
N100 C96 1.427 . S
N100 C97 1.384 . S
N101 C93 1.427 1_565 S
N101 C99 1.384 . S
H102 C108 0.930 . S
H103 C112 0.930 . S
H104 C117 0.929 . S
H105 C115 0.929 . S
H106 C110 0.929 . S
H107 C116 0.929 . S
C108 H102 0.930 . S
C108 C109 1.367 . S
C108 C116 1.378 . S
C109 C108 1.367 . S
C109 C117 1.433 . S
C110 H106 0.929 . S
C110 C112 1.378 . S
C110 C114 1.350 . S
C111 C114 1.463 . S
C111 C116 1.350 . S
C111 N119 1.427 . S
C112 H103 0.930 . S
C112 C110 1.378 . S
C112 C113 1.367 . S
C113 C112 1.367 . S
C113 C115 1.433 . S
C114 C110 1.350 . S
C114 C111 1.463 . S
C114 N118 1.427 . S
C115 H105 0.929 . S
C115 C113 1.433 . S
C115 N118 1.384 . S
C116 H107 0.929 . S
C116 C108 1.378 . S
C116 C111 1.350 . S
C117 H104 0.929 . S
C117 C109 1.433 . S
C117 N119 1.384 . S
N118 C114 1.427 . S
N118 C115 1.384 . S
N119 C111 1.427 . S
N119 C117 1.384 . S
H120 C126 0.930 1_655 S
H121 C130 0.930 . S
H122 C135 0.929 . S
H123 C133 0.941 . S
H124 C128 0.929 . S
H125 C134 0.928 1_655 S
C126 H120 0.930 1_455 S
C126 C127 1.370 . S
C126 C134 1.376 . S
C127 C126 1.370 . S
C127 C135 1.433 . S
C128 H124 0.929 . S
C128 C130 1.378 . S
C128 C132 1.350 . S
C129 C132 1.463 . S
C129 C134 1.350 . S
C129 N137 1.427 . S
C130 H121 0.930 . S
C130 C128 1.378 . S
C130 C131 1.367 . S
C131 C130 1.367 . S
C131 C133 1.429 1_455 S
C132 C128 1.350 . S
C132 C129 1.463 . S
C132 N136 1.425 1_455 S
C133 H123 0.941 . S
C133 C131 1.429 1_655 S
C133 N136 1.377 . S
C134 H125 0.928 1_455 S
C134 C126 1.376 . S
C134 C129 1.350 . S
C135 H122 0.929 . S
C135 C127 1.433 . S
C135 N137 1.384 . S
N136 C132 1.425 1_655 S
N136 C133 1.377 . S
N137 C129 1.427 . S
N137 C135 1.384 . S
H138 C144 0.930 1_565 S
H139 C148 0.930 . S
H140 C153 0.929 . S
H141 C151 0.926 1_565 S
H142 C146 0.929 . S
H143 C152 0.929 1_565 S
C144 H138 0.930 1_545 S
C144 C145 1.367 . S
C144 C152 1.378 . S
C145 C144 1.367 . S
C145 C153 1.433 . S
C146 H142 0.929 . S
C146 C148 1.378 . S
C146 C150 1.350 . S
C147 C150 1.463 . S
C147 C152 1.350 . S
C147 N155 1.427 . S
C148 H139 0.930 . S
C148 C146 1.378 . S
C148 C149 1.367 . S
C149 C148 1.367 . S
C149 C151 1.444 . S
C150 C146 1.350 . S
C150 C147 1.463 . S
C150 N154 1.427 . S
C151 H141 0.926 1_545 S
C151 C149 1.444 . S
C151 N154 1.377 . S
C152 H143 0.929 1_545 S
C152 C144 1.378 . S
C152 C147 1.350 . S
C153 H140 0.929 . S
C153 C145 1.433 . S
C153 N155 1.384 . S
N154 C150 1.427 . S
N154 C151 1.377 . S
N155 C147 1.427 . S
N155 C153 1.384 . S
H156 C162 0.930 . S
H157 C166 0.930 . S
H158 C171 0.929 . S
H159 C169 0.929 . S
H160 C164 0.929 . S
H161 C170 0.929 . S
C162 H156 0.930 . S
C162 C163 1.367 . S
C162 C170 1.378 . S
C163 C162 1.367 . S
C163 C171 1.433 . S
C164 H160 0.929 . S
C164 C166 1.378 . S
C164 C168 1.350 . S
C165 C168 1.463 1_554 S
C165 C170 1.350 . S
C165 N173 1.427 . S
C166 H157 0.930 . S
C166 C164 1.378 . S
C166 C167 1.367 . S
C167 C166 1.367 . S
C167 C169 1.433 . S
C168 C164 1.350 . S
C168 C165 1.463 1_556 S
C168 N172 1.427 . S
C169 H159 0.929 . S
C169 C167 1.433 . S
C169 N172 1.384 . S
C170 H161 0.929 . S
C170 C162 1.378 . S
C170 C165 1.350 . S
C171 H158 0.929 . S
C171 C163 1.433 . S
C171 N173 1.384 . S
N172 C168 1.427 . S
N172 C169 1.384 . S
N173 C165 1.427 . S
N173 C171 1.384 . S
H174 C180 0.930 . S
H175 C184 0.930 . S
H176 C189 0.929 . S
H177 C187 0.929 . S
H178 C182 0.929 . S
H179 C188 0.929 . S
C180 H174 0.930 . S
C180 C181 1.367 . S
C180 C188 1.378 . S
C181 C180 1.367 . S
C181 C189 1.433 1_455 S
C182 H178 0.929 . S
C182 C184 1.378 . S
C182 C186 1.350 1_655 S
C183 C186 1.463 . S
C183 C188 1.350 . S
C183 N191 1.427 1_455 S
C184 H175 0.930 . S
C184 C182 1.378 . S
C184 C185 1.367 1_655 S
C185 C184 1.367 1_455 S
C185 C187 1.433 . S
C186 C182 1.350 1_455 S
C186 C183 1.463 . S
C186 N190 1.427 . S
C187 H177 0.929 . S
C187 C185 1.433 . S
C187 N190 1.384 . S
C188 H179 0.929 . S
C188 C180 1.378 . S
C188 C183 1.350 . S
C189 H176 0.929 . S
C189 C181 1.433 1_655 S
C189 N191 1.384 . S
N190 C186 1.427 . S
N190 C187 1.384 . S
N191 C183 1.427 1_655 S
N191 C189 1.384 . S
H192 C198 0.930 . S
H193 C202 0.930 . S
H194 C207 0.929 . S
H195 C205 0.929 . S
H196 C200 0.929 . S
H197 C206 0.929 . S
C198 H192 0.930 . S
C198 C199 1.367 . S
C198 C206 1.378 . S
C199 C198 1.367 . S
C199 C207 1.433 . S
C200 H196 0.929 . S
C200 C202 1.378 . S
C200 C204 1.350 . S
C201 C204 1.463 . S
C201 C206 1.350 . S
C201 N209 1.427 . S
C202 H193 0.930 . S
C202 C200 1.378 . S
C202 C203 1.367 . S
C203 C202 1.367 . S
C203 C205 1.433 . S
C204 C200 1.350 . S
C204 C201 1.463 . S
C204 N208 1.427 . S
C205 H195 0.929 . S
C205 C203 1.433 . S
C205 N208 1.384 . S
C206 H197 0.929 . S
C206 C198 1.378 . S
C206 C201 1.350 . S
C207 H194 0.929 . S
C207 C199 1.433 . S
C207 N209 1.384 . S
N208 C204 1.427 . S
N208 C205 1.384 . S
N209 C201 1.427 . S
N209 C207 1.384 . S
H210 C216 0.930 . S
H211 C220 0.930 . S
H212 C225 0.929 . S
H213 C223 0.929 . S
H214 C218 0.929 . S
H215 C224 0.929 . S
C216 H210 0.930 . S
C216 C217 1.367 . S
C216 C224 1.378 . S
C217 C216 1.367 . S
C217 C225 1.433 . S
C218 H214 0.929 . S
C218 C220 1.378 . S
C218 C222 1.350 . S
C219 C222 1.463 . S
C219 C224 1.350 . S
C219 N227 1.427 . S
C220 H211 0.930 . S
C220 C218 1.378 . S
C220 C221 1.367 . S
C221 C220 1.367 . S
C221 C223 1.433 . S
C222 C218 1.350 . S
C222 C219 1.463 . S
C222 N226 1.427 . S
C223 H213 0.929 . S
C223 C221 1.433 . S
C223 N226 1.384 . S
C224 H215 0.929 . S
C224 C216 1.378 . S
C224 C219 1.350 . S
C225 H212 0.929 . S
C225 C217 1.433 . S
C225 N227 1.384 . S
N226 C222 1.427 . S
N226 C223 1.384 . S
N227 C219 1.427 . S
N227 C225 1.384 . S
H228 C234 0.930 . S
H229 C238 0.930 . S
H230 C243 0.929 . S
H231 C241 0.929 . S
H232 C236 0.929 . S
H233 C242 0.929 . S
C234 H228 0.930 . S
C234 C235 1.367 . S
C234 C242 1.378 . S
C235 C234 1.367 . S
C235 C243 1.433 . S
C236 H232 0.929 . S
C236 C238 1.378 . S
C236 C240 1.350 . S
C237 C240 1.463 . S
C237 C242 1.350 . S
C237 N245 1.427 . S
C238 H229 0.930 . S
C238 C236 1.378 . S
C238 C239 1.367 . S
C239 C238 1.367 . S
C239 C241 1.433 . S
C240 C236 1.350 . S
C240 C237 1.463 . S
C240 N244 1.427 . S
C241 H231 0.929 . S
C241 C239 1.433 . S
C241 N244 1.384 . S
C242 H233 0.929 . S
C242 C234 1.378 . S
C242 C237 1.350 . S
C243 H230 0.929 . S
C243 C235 1.433 . S
C243 N245 1.384 . S
N244 C240 1.427 . S
N244 C241 1.384 . S
N245 C237 1.427 . S
N245 C243 1.384 . S
H246 C252 0.930 . S
H247 C256 0.930 . S
H248 C261 0.929 . S
H249 C259 0.929 . S
H250 C254 0.929 . S
H251 C260 0.929 . S
C252 H246 0.930 . S
C252 C253 1.367 . S
C252 C260 1.378 . S
C253 C252 1.367 . S
C253 C261 1.433 . S
C254 H250 0.929 . S
C254 C256 1.378 . S
C254 C258 1.350 . S
C255 C258 1.463 . S
C255 C260 1.350 . S
C255 N263 1.427 . S
C256 H247 0.930 . S
C256 C254 1.378 . S
C256 C257 1.367 . S
C257 C256 1.367 . S
C257 C259 1.433 . S
C258 C254 1.350 . S
C258 C255 1.463 . S
C258 N262 1.427 . S
C259 H249 0.929 . S
C259 C257 1.433 . S
C259 N262 1.384 . S
C260 H251 0.929 . S
C260 C252 1.378 . S
C260 C255 1.350 . S
C261 H248 0.929 . S
C261 C253 1.433 . S
C261 N263 1.384 . S
N262 C258 1.427 . S
N262 C259 1.384 . S
N263 C255 1.427 . S
N263 C261 1.384 . S
H264 C270 0.930 . S
H265 C274 0.930 . S
H266 C279 0.929 . S
H267 C277 0.929 . S
H268 C272 0.929 . S
H269 C278 0.929 . S
C270 H264 0.930 . S
C270 C271 1.367 . S
C270 C278 1.378 . S
C271 C270 1.367 . S
C271 C279 1.433 . S
C272 H268 0.929 . S
C272 C274 1.378 . S
C272 C276 1.350 . S
C273 C276 1.463 . S
C273 C278 1.350 . S
C273 N281 1.427 . S
C274 H265 0.930 . S
C274 C272 1.378 . S
C274 C275 1.367 . S
C275 C274 1.367 . S
C275 C277 1.433 . S
C276 C272 1.350 . S
C276 C273 1.463 . S
C276 N280 1.427 . S
C277 H267 0.929 . S
C277 C275 1.433 . S
C277 N280 1.384 . S
C278 H269 0.929 . S
C278 C270 1.378 . S
C278 C273 1.350 . S
C279 H266 0.929 . S
C279 C271 1.433 . S
C279 N281 1.384 . S
N280 C276 1.427 . S
N280 C277 1.384 . S
N281 C273 1.427 . S
N281 C279 1.384 . S
H282 C288 0.930 . S
H283 C292 0.930 . S
H284 C297 0.929 . S
H285 C295 0.929 . S
H286 C290 0.929 . S
H287 C296 0.929 1_554 S
C288 H282 0.930 . S
C288 C289 1.367 . S
C288 C296 1.378 . S
C289 C288 1.367 . S
C289 C297 1.433 . S
C290 H286 0.929 . S
C290 C292 1.378 . S
C290 C294 1.350 . S
C291 C294 1.463 . S
C291 C296 1.350 . S
C291 N299 1.427 . S
C292 H283 0.930 . S
C292 C290 1.378 . S
C292 C293 1.367 1_556 S
C293 C292 1.367 1_554 S
C293 C295 1.433 . S
C294 C290 1.350 . S
C294 C291 1.463 . S
C294 N298 1.427 1_556 S
C295 H285 0.929 . S
C295 C293 1.433 . S
C295 N298 1.384 . S
C296 H287 0.929 1_556 S
C296 C288 1.378 . S
C296 C291 1.350 . S
C297 H284 0.929 . S
C297 C289 1.433 . S
C297 N299 1.384 . S
N298 C294 1.427 1_554 S
N298 C295 1.384 . S
N299 C291 1.427 . S
N299 C297 1.384 . S
C91 C9 1.634 . S
C95 C47 1.635 . S
C109 C19 1.663 . S
C113 C65 1.660 . S
C127 C75 1.691 . S
C131 C37 1.688 . S
C145 C5 1.634 . S
C149 C51 1.632 . S
C163 C23 1.662 . S
C167 C61 1.663 . S
C181 C79 1.690 1_554 S
C185 C33 1.691 . S
C199 C25 1.350 . S
C203 C11 1.344 . S
C217 C28 1.397 . S
C221 C14 1.399 . S
C235 C39 1.379 . S
C239 C42 1.363 . S
C253 C67 1.350 . S
C257 C53 1.348 . S
C271 C70 1.403 . S
C275 C56 1.395 . S
C289 C81 1.382 . S
C293 C0 1.362 . S
