# Generated by pormake.
# Topology ske, (6)-cn, num edge types: 1
# Building blocks:
#     Node 0, Type 0, BuildingBlock: PAMTOO_clean_sbu_0, # of connection points: 6
#     Node 1, Type 0, BuildingBlock: PAMTOO_clean_sbu_0, # of connection points: 6
#     Node 2, Type 0, BuildingBlock: PAMTOO_clean_sbu_0, # of connection points: 6
#     Node 3, Type 0, BuildingBlock: PAMTOO_clean_sbu_0, # of connection points: 6
#     Node 4, Type 0, BuildingBlock: PAMTOO_clean_sbu_0, # of connection points: 6
#     Node 5, Type 0, BuildingBlock: PAMTOO_clean_sbu_0, # of connection points: 6
#     Node 6, Type 0, BuildingBlock: PAMTOO_clean_sbu_0, # of connection points: 6
#     Node 7, Type 0, BuildingBlock: PAMTOO_clean_sbu_0, # of connection points: 6
#     Edge 8, Type (0, 0), BuildingBlock: OJICUG_clean_linker_0, # of connection points: 2
#     Edge 9, Type (0, 0), BuildingBlock: OJICUG_clean_linker_0, # of connection points: 2
#     Edge 10, Type (0, 0), BuildingBlock: OJICUG_clean_linker_0, # of connection points: 2
#     Edge 11, Type (0, 0), BuildingBlock: OJICUG_clean_linker_0, # of connection points: 2
#     Edge 12, Type (0, 0), BuildingBlock: OJICUG_clean_linker_0, # of connection points: 2
#     Edge 13, Type (0, 0), BuildingBlock: OJICUG_clean_linker_0, # of connection points: 2
#     Edge 14, Type (0, 0), BuildingBlock: OJICUG_clean_linker_0, # of connection points: 2
#     Edge 15, Type (0, 0), BuildingBlock: OJICUG_clean_linker_0, # of connection points: 2
#     Edge 16, Type (0, 0), BuildingBlock: OJICUG_clean_linker_0, # of connection points: 2
#     Edge 17, Type (0, 0), BuildingBlock: OJICUG_clean_linker_0, # of connection points: 2
#     Edge 18, Type (0, 0), BuildingBlock: OJICUG_clean_linker_0, # of connection points: 2
#     Edge 19, Type (0, 0), BuildingBlock: OJICUG_clean_linker_0, # of connection points: 2
#     Edge 20, Type (0, 0), BuildingBlock: OJICUG_clean_linker_0, # of connection points: 2
#     Edge 21, Type (0, 0), BuildingBlock: OJICUG_clean_linker_0, # of connection points: 2
#     Edge 22, Type (0, 0), BuildingBlock: OJICUG_clean_linker_0, # of connection points: 2
#     Edge 23, Type (0, 0), BuildingBlock: OJICUG_clean_linker_0, # of connection points: 2
#     Edge 24, Type (0, 0), BuildingBlock: OJICUG_clean_linker_0, # of connection points: 2
#     Edge 25, Type (0, 0), BuildingBlock: OJICUG_clean_linker_0, # of connection points: 2
#     Edge 26, Type (0, 0), BuildingBlock: OJICUG_clean_linker_0, # of connection points: 2
#     Edge 27, Type (0, 0), BuildingBlock: OJICUG_clean_linker_0, # of connection points: 2
#     Edge 28, Type (0, 0), BuildingBlock: OJICUG_clean_linker_0, # of connection points: 2
#     Edge 29, Type (0, 0), BuildingBlock: OJICUG_clean_linker_0, # of connection points: 2
#     Edge 30, Type (0, 0), BuildingBlock: OJICUG_clean_linker_0, # of connection points: 2
#     Edge 31, Type (0, 0), BuildingBlock: OJICUG_clean_linker_0, # of connection points: 2
# Relax obj value: 0.155
# Max RMSD: 0.184
# Mean RMSD: 0.177
data_MOF--net-ske--node1-PAMTOO_clean_sbu_0--edge1-OJICUG_clean_linker_0
_symmetry_space_group_name_H-M    P1
_symmetry_Int_Tables_number       1
_symmetry_cell_setting            triclinic
loop_
_symmetry_equiv_pos_as_xyz
'x, y, z'
_cell_length_a     88.39663
_cell_length_b     22.118565
_cell_length_c     11.297546
_cell_angle_alpha  90.059265
_cell_angle_beta   90.02452
_cell_angle_gamma 89.980192
loop_
_atom_site_label
_atom_site_type_symbol
_atom_site_fract_x
_atom_site_fract_y
_atom_site_fract_z
_atom_type_partial_charge
Dy0 Dy 0.16281 0.22964 0.45314 0.0
Dy1 Dy 0.12494 0.23614 0.44958 0.0
C2 C 0.14246 0.11319 0.47438 0.0
O3 O 0.15697 0.24954 0.26517 0.0
O4 O 0.13224 0.2177 0.26471 0.0
O5 O 0.18218 0.17389 0.49129 0.0
O6 O 0.18537 0.26337 0.41689 0.0
O7 O 0.13307 0.33108 0.42405 0.0
O8 O 0.15694 0.32443 0.50513 0.0
O9 O 0.13031 0.24526 0.64179 0.0
O10 O 0.15611 0.22553 0.64289 0.0
O11 O 0.10335 0.28165 0.46819 0.0
O12 O 0.10446 0.18819 0.40127 0.0
C13 C 0.14454 0.23428 0.2089 0.0
O14 O 0.15344 0.13801 0.41364 0.0
O15 O 0.13159 0.14612 0.51922 0.0
C16 C 0.20584 0.22172 0.53082 0.0
C17 C 0.23491 0.22528 0.63738 0.0
C18 C 0.22488 0.17717 0.6603 0.0
C19 C 0.21061 0.17515 0.60692 0.0
C20 C 0.21556 0.27082 0.51126 0.0
C21 C 0.22991 0.27247 0.5632 0.0
C22 C 0.19191 0.21494 0.45887 0.0
C23 C 0.1451 0.35631 0.47176 0.0
C24 C 0.14323 0.23619 0.69739 0.0
C25 C 0.07954 0.2342 0.41347 0.0
C26 C 0.04802 0.23197 0.38388 0.0
C27 C 0.05625 0.2839 0.3538 0.0
C28 C 0.07194 0.28519 0.36952 0.0
C29 C 0.07133 0.18173 0.44027 0.0
C30 C 0.05563 0.18088 0.42693 0.0
C31 C 0.09606 0.23488 0.42663 0.0
H32 H 0.22805 0.1405 0.71862 0.0
H33 H 0.20349 0.13615 0.62293 0.0
H34 H 0.21234 0.30693 0.45163 0.0
H35 H 0.23725 0.30985 0.54079 0.0
H36 H 0.0505 0.32381 0.32111 0.0
H37 H 0.07814 0.32578 0.3467 0.0
H38 H 0.07702 0.14176 0.47328 0.0
H39 H 0.0494 0.14054 0.45093 0.0
Dy40 Dy 0.86894 0.24288 0.45653 0.0
Dy41 Dy 0.90669 0.23285 0.45403 0.0
C42 C 0.88929 0.35764 0.4679 0.0
O43 O 0.87442 0.22945 0.26512 0.0
O44 O 0.90043 0.24228 0.2633 0.0
O45 O 0.84951 0.29811 0.49581 0.0
O46 O 0.84641 0.20818 0.42289 0.0
O47 O 0.89857 0.13867 0.42343 0.0
O48 O 0.87481 0.14727 0.50608 0.0
O49 O 0.90009 0.21443 0.64203 0.0
O50 O 0.87632 0.25771 0.64394 0.0
O51 O 0.92852 0.19033 0.48409 0.0
O52 O 0.92708 0.28393 0.42309 0.0
C53 C 0.88738 0.23539 0.20926 0.0
O54 O 0.87827 0.33291 0.40775 0.0
O55 O 0.89965 0.32403 0.51777 0.0
C56 C 0.82586 0.2502 0.5354 0.0
C57 C 0.79671 0.24685 0.64044 0.0
C58 C 0.80667 0.29524 0.66303 0.0
C59 C 0.82099 0.29715 0.61034 0.0
C60 C 0.81618 0.20093 0.51598 0.0
C61 C 0.8018 0.19937 0.56716 0.0
C62 C 0.83982 0.25674 0.46402 0.0
C63 C 0.88642 0.11434 0.47094 0.0
C64 C 0.88823 0.23571 0.69882 0.0
C65 C 0.95162 0.23821 0.4165 0.0
C66 C 0.98303 0.23574 0.37842 0.0
C67 C 0.97418 0.18489 0.35068 0.0
C68 C 0.9585 0.18592 0.3704 0.0
C69 C 0.96048 0.28965 0.43833 0.0
C70 C 0.97605 0.28833 0.42028 0.0
C71 C 0.93582 0.23979 0.45721 0.0
H72 H 0.80344 0.33217 0.72057 0.0
H73 H 0.82806 0.33634 0.62599 0.0
H74 H 0.81947 0.16457 0.45703 0.0
H75 H 0.7945 0.1618 0.54488 0.0
H76 H 0.97948 0.14373 0.31923 0.0
H77 H 0.9519 0.14557 0.35361 0.0
H78 H 0.95543 0.33024 0.4749 0.0
H79 H 0.98272 0.32779 0.44283 0.0
Dy80 Dy 0.16269 0.74212 0.58646 0.0
Dy81 Dy 0.12468 0.73393 0.58741 0.0
C82 C 0.14245 0.85767 0.57419 0.0
O83 O 0.15702 0.7279 0.77633 0.0
O84 O 0.13111 0.74291 0.77707 0.0
O85 O 0.18206 0.79756 0.54758 0.0
O86 O 0.18525 0.70778 0.62082 0.0
O87 O 0.1325 0.63893 0.61365 0.0
O88 O 0.15669 0.64659 0.53769 0.0
O89 O 0.13103 0.71904 0.39871 0.0
O90 O 0.1557 0.75354 0.39836 0.0
O91 O 0.10279 0.69296 0.55427 0.0
O92 O 0.1044 0.78495 0.62488 0.0
C93 C 0.14407 0.73482 0.83175 0.0
O94 O 0.15339 0.83247 0.63438 0.0
O95 O 0.13199 0.82464 0.52414 0.0
C96 C 0.20573 0.74987 0.50757 0.0
C97 C 0.23483 0.74667 0.40158 0.0
C98 C 0.22484 0.79507 0.37969 0.0
C99 C 0.21056 0.79691 0.43281 0.0
C100 C 0.21542 0.70058 0.52622 0.0
C101 C 0.22978 0.6991 0.47458 0.0
C102 C 0.19179 0.75635 0.5794 0.0
C103 C 0.1448 0.61427 0.569 0.0
C104 C 0.14339 0.73582 0.34293 0.0
C105 C 0.07968 0.74002 0.62389 0.0
C106 C 0.04823 0.73777 0.66017 0.0
C107 C 0.05704 0.68682 0.68807 0.0
C108 C 0.07275 0.68774 0.66918 0.0
C109 C 0.07086 0.79145 0.60139 0.0
C110 C 0.05528 0.79024 0.61852 0.0
C111 C 0.0956 0.74193 0.58637 0.0
H112 H 0.22805 0.83208 0.32238 0.0
H113 H 0.20347 0.83611 0.41767 0.0
H114 H 0.21217 0.66414 0.58493 0.0
H115 H 0.2371 0.66149 0.4963 0.0
H116 H 0.05171 0.64576 0.71946 0.0
H117 H 0.07934 0.64742 0.68654 0.0
H118 H 0.07597 0.83205 0.56564 0.0
H119 H 0.04864 0.82983 0.59613 0.0
Dy120 Dy 0.86889 0.72798 0.58489 0.0
Dy121 Dy 0.90686 0.73733 0.58589 0.0
C122 C 0.88928 0.61287 0.57246 0.0
O123 O 0.8745 0.74031 0.77545 0.0
O124 O 0.90058 0.72994 0.77617 0.0
O125 O 0.84955 0.6726 0.54446 0.0
O126 O 0.84632 0.76187 0.6203 0.0
O127 O 0.89894 0.8321 0.61312 0.0
O128 O 0.87469 0.82402 0.53819 0.0
O129 O 0.90036 0.75334 0.3978 0.0
O130 O 0.87598 0.7159 0.39705 0.0
O131 O 0.92872 0.77862 0.5523 0.0
O132 O 0.92719 0.68648 0.62138 0.0
C133 C 0.88754 0.73569 0.83071 0.0
O134 O 0.87826 0.63775 0.63236 0.0
O135 O 0.8997 0.64624 0.52287 0.0
C136 C 0.82583 0.72028 0.50631 0.0
C137 C 0.79669 0.72394 0.40103 0.0
C138 C 0.80666 0.6756 0.37805 0.0
C139 C 0.82097 0.67353 0.43083 0.0
C140 C 0.81615 0.76952 0.52612 0.0
C141 C 0.80177 0.77122 0.47483 0.0
C142 C 0.8398 0.7135 0.57764 0.0
C143 C 0.88655 0.85657 0.56953 0.0
C144 C 0.88815 0.73505 0.34172 0.0
C145 C 0.95179 0.73189 0.62372 0.0
C146 C 0.9832 0.73466 0.66184 0.0
C147 C 0.97441 0.78632 0.68454 0.0
C148 C 0.95872 0.7851 0.66492 0.0
C149 C 0.9606 0.67985 0.60645 0.0
C150 C 0.97617 0.68129 0.62457 0.0
C151 C 0.93597 0.72965 0.58344 0.0
H152 H 0.80342 0.63882 0.32011 0.0
H153 H 0.82804 0.63437 0.41483 0.0
H154 H 0.81943 0.80572 0.58544 0.0
H155 H 0.79447 0.80875 0.49741 0.0
H156 H 0.97975 0.82807 0.71234 0.0
H157 H 0.95216 0.82592 0.67806 0.0
H158 H 0.95551 0.63855 0.57352 0.0
H159 H 0.98281 0.64123 0.60572 0.0
Dy160 Dy 0.66254 0.73385 0.0369 0.0
Dy161 Dy 0.62444 0.73201 0.03572 0.0
C162 C 0.64356 0.61445 0.03577 0.0
O163 O 0.6559 0.75419 0.84982 0.0
O164 O 0.63165 0.71533 0.84855 0.0
O165 O 0.68232 0.67944 0.06679 0.0
O166 O 0.68484 0.77191 1.00536 0.0
O167 O 0.63167 0.82593 0.99151 0.0
O168 O 0.6553 0.82772 0.07847 0.0
O169 O 0.63032 0.74385 0.22654 0.0
O170 O 0.6562 0.72646 0.22773 0.0
O171 O 0.60247 0.77167 0.07055 0.0
O172 O 0.60424 0.68044 0.99773 0.0
C173 C 0.64378 0.73511 0.79319 0.0
O174 O 0.65399 0.64435 0.97886 0.0
O175 O 0.63293 0.64266 0.09381 0.0
C176 C 0.70581 0.72763 0.1104 0.0
C177 C 0.73513 0.72766 0.21296 0.0
C178 C 0.72482 0.6807 0.23705 0.0
C179 C 0.71042 0.68042 0.18568 0.0
C180 C 0.71584 0.77554 0.08957 0.0
C181 C 0.73031 0.77546 0.13951 0.0
C182 C 0.69174 0.72263 0.03959 0.0
C183 C 0.64343 0.85537 0.03381 0.0
C184 C 0.64325 0.73576 0.28199 0.0
C185 C 0.5797 0.72674 0.99064 0.0
C186 C 0.54831 0.732 0.95001 0.0
C187 C 0.55715 0.78454 0.94046 0.0
C188 C 0.57279 0.78204 0.96124 0.0
C189 C 0.57087 0.67402 0.99399 0.0
C190 C 0.55531 0.67665 0.97456 0.0
C191 C 0.5953 0.72301 0.03641 0.0
H192 H 0.72785 0.64362 0.29483 0.0
H193 H 0.70306 0.64224 0.20262 0.0
H194 H 0.71275 0.812 0.03035 0.0
H195 H 0.73787 0.81199 0.11616 0.0
H196 H 0.55185 0.82775 0.92255 0.0
H197 H 0.57931 0.82346 0.9592 0.0
H198 H 0.57589 0.63104 1.01803 0.0
H199 H 0.54863 0.63581 0.9832 0.0
Dy200 Dy 0.36904 0.73826 0.0377 0.0
Dy201 Dy 0.40726 0.73811 0.03795 0.0
C202 C 0.38821 0.85642 0.03269 0.0
O203 O 0.37537 0.72129 0.84943 0.0
O204 O 0.40055 0.74995 0.8489 0.0
O205 O 0.34926 0.79257 0.06935 0.0
O206 O 0.34673 0.70028 1.00664 0.0
O207 O 0.39996 0.64465 0.99177 0.0
O208 O 0.37617 0.64368 0.07629 0.0
O209 O 0.40089 0.7216 0.22593 0.0
O210 O 0.37573 0.7503 0.22656 0.0
O211 O 0.42924 0.69901 0.07512 0.0
O212 O 0.42743 0.79023 1.00325 0.0
C213 C 0.38798 0.73502 0.7936 0.0
O214 O 0.37775 0.82658 0.97598 0.0
O215 O 0.39869 0.82819 0.09246 0.0
C216 C 0.32574 0.74432 0.11173 0.0
C217 C 0.29637 0.74393 0.2134 0.0
C218 C 0.30668 0.79079 0.23868 0.0
C219 C 0.32111 0.79124 0.18775 0.0
C220 C 0.3157 0.69656 0.08955 0.0
C221 C 0.30121 0.69646 0.13905 0.0
C222 C 0.33984 0.74949 0.04148 0.0
C223 C 0.38805 0.61567 0.03238 0.0
C224 C 0.38829 0.73535 0.28165 0.0
C225 C 0.4519 0.74386 0.99361 0.0
C226 C 0.48324 0.73876 0.95024 0.0
C227 C 0.47449 0.68583 0.94535 0.0
C228 C 0.45888 0.68828 0.96717 0.0
C229 C 0.46064 0.79689 0.99236 0.0
C230 C 0.47618 0.79435 0.97136 0.0
C231 C 0.4364 0.74776 0.04174 0.0
H232 H 0.30364 0.82762 0.29712 0.0
H233 H 0.32847 0.82932 0.20564 0.0
H234 H 0.3188 0.66035 0.02964 0.0
H235 H 0.29365 0.66006 0.11475 0.0
H236 H 0.47984 0.64245 0.93011 0.0
H237 H 0.45244 0.64664 0.96859 0.0
H238 H 0.45559 0.84014 1.0142 0.0
H239 H 0.4828 0.8355 0.97673 0.0
Dy240 Dy 0.66249 0.23804 1.00355 0.0
Dy241 Dy 0.62428 0.23802 1.00334 0.0
C242 C 0.64333 0.3563 1.00715 0.0
O243 O 0.65616 0.22108 0.19171 0.0
O244 O 0.63101 0.25032 0.19228 0.0
O245 O 0.68224 0.29244 0.9721 0.0
O246 O 0.68482 0.20021 0.03467 0.0
O247 O 0.63155 0.14458 0.04928 0.0
O248 O 0.65537 0.1434 0.96511 0.0
O249 O 0.63061 0.22159 0.81519 0.0
O250 O 0.65583 0.2495 0.81457 0.0
O251 O 0.60231 0.19872 0.96648 0.0
O252 O 0.60409 0.29008 0.03827 0.0
C253 C 0.64356 0.23512 0.24758 0.0
O254 O 0.65375 0.32655 0.06444 0.0
O255 O 0.63281 0.32796 0.94801 0.0
C256 C 0.70578 0.24428 0.9296 0.0
C257 C 0.73514 0.24391 0.82785 0.0
C258 C 0.72483 0.29085 0.80306 0.0
C259 C 0.71041 0.29131 0.85404 0.0
C260 C 0.71581 0.19643 0.95125 0.0
C261 C 0.7303 0.19634 0.90171 0.0
C262 C 0.69168 0.24943 0.9999 0.0
C263 C 0.64347 0.11551 1.00876 0.0
C264 C 0.64324 0.23493 0.75951 0.0
C265 C 0.57961 0.24374 0.04736 0.0
C266 C 0.54826 0.23858 0.09013 0.0
C267 C 0.55709 0.1859 0.09785 0.0
C268 C 0.57271 0.18836 0.07611 0.0
C269 C 0.5708 0.29659 0.04603 0.0
C270 C 0.55526 0.294 0.06655 0.0
C271 C 0.59513 0.24751 0.9998 0.0
H272 H 0.72788 0.32777 0.74498 0.0
H273 H 0.70306 0.32946 0.83656 0.0
H274 H 0.71271 0.16014 1.01079 0.0
H275 H 0.73785 0.15986 0.92562 0.0
H276 H 0.55179 0.14263 0.11501 0.0
H277 H 0.57921 0.14685 0.07669 0.0
H278 H 0.57581 0.33965 0.02254 0.0
H279 H 0.5486 0.33496 0.05923 0.0
Dy280 Dy 0.369 0.2331 1.00301 0.0
Dy281 Dy 0.40719 0.23262 1.00304 0.0
C282 C 0.38813 0.11456 1.00559 0.0
O283 O 0.37542 0.25089 0.19087 0.0
O284 O 0.40037 0.21932 0.19147 0.0
O285 O 0.34922 0.1788 0.97192 0.0
O286 O 0.3467 0.27113 0.03451 0.0
O287 O 0.39994 0.32626 0.0487 0.0
O288 O 0.37615 0.32753 0.96407 0.0
O289 O 0.40096 0.24786 0.81434 0.0
O290 O 0.37554 0.22274 0.8135 0.0
O291 O 0.42918 0.27169 0.96646 0.0
O292 O 0.42736 0.18053 0.0388 0.0
C293 C 0.38791 0.23562 0.2469 0.0
O294 O 0.37769 0.14431 0.0628 0.0
O295 O 0.39864 0.14291 0.9466 0.0
C296 C 0.32572 0.2272 0.92909 0.0
C297 C 0.29641 0.22783 0.82656 0.0
C298 C 0.30667 0.18071 0.80212 0.0
C299 C 0.32108 0.18013 0.85347 0.0
C300 C 0.31573 0.27523 0.95039 0.0
C301 C 0.30126 0.27546 0.90043 0.0
C302 C 0.3398 0.22194 0.99969 0.0
C303 C 0.38804 0.3554 1.00799 0.0
C304 C 0.38824 0.23591 0.75872 0.0
C305 C 0.45185 0.22675 0.04785 0.0
C306 C 0.4832 0.23185 0.0906 0.0
C307 C 0.47442 0.28469 0.09681 0.0
C308 C 0.4588 0.28225 0.07521 0.0
C309 C 0.46062 0.17378 0.04783 0.0
C310 C 0.47616 0.17632 0.06846 0.0
C311 C 0.43633 0.22293 1.00018 0.0
H312 H 0.30362 0.14375 0.74403 0.0
H313 H 0.3284 0.14185 0.83623 0.0
H314 H 0.31885 0.31157 1.00992 0.0
H315 H 0.29373 0.31209 0.92403 0.0
H316 H 0.47975 0.32803 0.11283 0.0
H317 H 0.45233 0.32385 0.07475 0.0
H318 H 0.45558 0.13061 0.0253 0.0
H319 H 0.4828 0.13525 0.06215 0.0
C320 C 0.25841 0.17126 0.70967 0.0
C321 C 0.25059 0.22561 0.68756 0.0
H322 H 0.27846 0.12892 0.7744 0.0
C323 C 0.25805 0.28046 0.71171 0.0
H324 H 0.25331 0.12788 0.6905 0.0
C325 C 0.27289 0.28108 0.75417 0.0
C326 C 0.28065 0.22686 0.77769 0.0
H327 H 0.25246 0.32344 0.69855 0.0
H328 H 0.27824 0.32451 0.7675 0.0
C329 C 0.27312 0.17187 0.75556 0.0
C330 C 0.75874 0.19084 0.75648 0.0
C331 C 0.7509 0.245 0.77936 0.0
H332 H 0.77923 0.14862 0.70192 0.0
C333 C 0.7584 0.30004 0.75701 0.0
H334 H 0.75342 0.14735 0.76996 0.0
C335 C 0.77312 0.30074 0.71152 0.0
C336 C 0.781 0.24645 0.6901 0.0
H337 H 0.753 0.34296 0.77534 0.0
H338 H 0.77818 0.34415 0.69215 0.0
C339 C 0.77359 0.19156 0.7145 0.0
C340 C 0.27311 0.80001 0.28491 0.0
C341 C 0.28061 0.74499 0.26194 0.0
H342 H 0.25333 0.84404 0.35039 0.0
C343 C 0.27278 0.69081 0.28431 0.0
H344 H 0.2785 0.84295 0.26697 0.0
C345 C 0.25793 0.69149 0.32646 0.0
C346 C 0.25052 0.74635 0.35154 0.0
H347 H 0.27809 0.64733 0.27033 0.0
H348 H 0.2523 0.64854 0.33867 0.0
C349 C 0.2584 0.80067 0.33054 0.0
C350 C 0.75838 0.67121 0.28361 0.0
C351 C 0.75089 0.72634 0.26168 0.0
H352 H 0.77816 0.62684 0.34823 0.0
C353 C 0.75873 0.78041 0.28516 0.0
H354 H 0.75298 0.62836 0.26482 0.0
C355 C 0.77358 0.7795 0.32726 0.0
C356 C 0.78099 0.72452 0.35122 0.0
H357 H 0.75342 0.82396 0.27205 0.0
H358 H 0.77923 0.82238 0.34027 0.0
C359 C 0.7731 0.67031 0.32922 0.0
C360 C 0.15626 0.9548 0.54039 0.0
C361 C 0.14255 0.92338 0.55267 0.0
H362 H 0.16698 0.03957 0.50175 0.0
C363 C 0.12886 0.95455 0.53717 0.0
H364 H 0.16698 0.93156 0.55069 0.0
C365 C 0.12886 0.01629 0.51132 0.0
C366 C 0.14255 0.04758 0.49723 0.0
H367 H 0.11813 0.93126 0.54595 0.0
H368 H 0.11813 0.03945 0.50111 0.0
C369 C 0.15627 0.01628 0.51112 0.0
C370 C 0.87552 0.45454 0.50541 0.0
C371 C 0.88923 0.42323 0.49136 0.0
H372 H 0.8648 0.53906 0.54643 0.0
C373 C 0.90292 0.45438 0.50692 0.0
H374 H 0.8648 0.43133 0.49523 0.0
C375 C 0.90292 0.51604 0.53407 0.0
C376 C 0.88922 0.54722 0.54965 0.0
H377 H 0.91364 0.43115 0.49694 0.0
H378 H 0.91364 0.53928 0.54385 0.0
C379 C 0.87551 0.51587 0.53606 0.0
C380 C 0.90003 0.95462 0.53307 0.0
C381 C 0.88638 0.92282 0.54716 0.0
H382 H 0.91074 0.03928 0.49526 0.0
C383 C 0.87267 0.95449 0.53442 0.0
H384 H 0.9108 0.93162 0.54128 0.0
C385 C 0.87264 0.01663 0.50937 0.0
C386 C 0.88631 0.04817 0.49384 0.0
H387 H 0.86195 0.93136 0.54463 0.0
H388 H 0.8619 0.03986 0.50116 0.0
C389 C 0.9 0.01632 0.50549 0.0
C390 C 0.15864 0.51663 0.53197 0.0
C391 C 0.14493 0.54804 0.5463 0.0
H392 H 0.16947 0.43156 0.49779 0.0
C393 C 0.13127 0.51597 0.53369 0.0
H394 H 0.16935 0.53996 0.54086 0.0
C395 C 0.13134 0.45415 0.50641 0.0
C396 C 0.14506 0.42258 0.49365 0.0
H397 H 0.1205 0.53882 0.54305 0.0
H398 H 0.12062 0.43087 0.49746 0.0
C399 C 0.15871 0.45452 0.50717 0.0
C400 C 0.62966 0.51702 0.02569 0.0
C401 C 0.64342 0.54849 0.02918 0.0
H402 H 0.61887 0.43051 1.0125 0.0
C403 C 0.65711 0.51661 0.02364 0.0
H404 H 0.61898 0.54102 0.02886 0.0
C405 C 0.65705 0.45377 1.01697 0.0
C406 C 0.6433 0.4223 1.01222 0.0
H407 H 0.66785 0.54023 0.02625 0.0
H408 H 0.66774 0.42981 1.01417 0.0
C409 C 0.62959 0.45419 1.01544 0.0
C410 C 0.37455 0.95401 0.02199 0.0
C411 C 0.38828 0.92239 0.02695 0.0
H412 H 0.3638 0.0406 1.01325 0.0
C413 C 0.402 0.95412 0.02386 0.0
H414 H 0.36384 0.93018 0.02454 0.0
C415 C 0.40198 0.01696 1.01408 0.0
C416 C 0.38823 0.04859 1.01097 0.0
H417 H 0.41271 0.93031 0.02683 0.0
H418 H 0.41267 0.04085 1.01122 0.0
C419 C 0.37452 0.01686 1.01581 0.0
C420 C 0.37428 0.45405 1.01598 0.0
C421 C 0.38799 0.42196 1.01356 0.0
H422 H 0.36355 0.54075 0.02589 0.0
C423 C 0.4017 0.45399 1.01796 0.0
H424 H 0.36355 0.43045 1.01338 0.0
C425 C 0.4017 0.51701 0.02344 0.0
C426 C 0.38799 0.54911 0.02701 0.0
H427 H 0.41243 0.43039 1.01586 0.0
H428 H 0.41244 0.54055 0.02616 0.0
C429 C 0.37428 0.51709 0.0239 0.0
C430 C 0.65721 0.01694 1.01902 0.0
C431 C 0.6435 0.04898 1.01412 0.0
H432 H 0.66791 0.93034 0.03116 0.0
C433 C 0.62979 0.01694 1.01605 0.0
H434 H 0.66794 0.04058 1.01832 0.0
C435 C 0.62978 0.95392 0.0217 0.0
C436 C 0.64347 0.92189 0.02799 0.0
H437 H 0.61906 0.04053 1.01192 0.0
H438 H 0.61904 0.93034 0.02248 0.0
C439 C 0.65719 0.95395 0.02714 0.0
C440 C 0.13067 0.22345 1.01647 0.0
C441 C 0.14424 0.23516 0.07784 0.0
H442 H 0.11968 0.21502 0.84824 0.0
C443 C 0.15738 0.24788 1.01267 0.0
H444 H 0.12032 0.21341 0.06374 0.0
C445 C 0.15699 0.24841 0.88908 0.0
C446 C 0.14343 0.23687 0.82802 0.0
H447 H 0.168 0.25719 0.05691 0.0
H448 H 0.16732 0.25828 0.84134 0.0
C449 C 0.13025 0.22464 0.89289 0.0
C450 C 0.88292 0.28674 1.01601 0.0
C451 C 0.88735 0.23505 0.07896 0.0
H452 H 0.87989 0.32746 0.84509 0.0
C453 C 0.89229 0.18381 1.01667 0.0
H454 H 0.87929 0.32702 0.06273 0.0
C455 C 0.8928 0.18422 0.89269 0.0
C456 C 0.88824 0.23573 0.82947 0.0
H457 H 0.89572 0.14348 0.06397 0.0
H458 H 0.89649 0.14397 0.84618 0.0
C459 C 0.88329 0.28699 0.89208 0.0
C460 C 0.13069 0.71727 0.1477 0.0
C461 C 0.14353 0.73538 0.21199 0.0
H462 H 0.12084 0.7028 0.97688 0.0
C463 C 0.15659 0.75308 0.1498 0.0
H464 H 0.12045 0.70327 0.19261 0.0
C465 C 0.15684 0.75219 0.02624 0.0
C466 C 0.14399 0.73433 0.96229 0.0
H467 H 0.16666 0.76766 0.19636 0.0
H468 H 0.16703 0.76641 0.98084 0.0
C469 C 0.1309 0.71706 0.02409 0.0
C470 C 0.87558 0.71052 0.02464 0.0
C471 C 0.88759 0.73619 0.96111 0.0
H472 H 0.86648 0.68883 0.19456 0.0
C473 C 0.89984 0.76133 0.02313 0.0
H474 H 0.8661 0.6901 0.97879 0.0
C475 C 0.90003 0.76119 0.1468 0.0
C476 C 0.88804 0.73531 0.21076 0.0
H477 H 0.9092 0.78175 0.97597 0.0
H478 H 0.90956 0.78155 0.19203 0.0
C479 C 0.87584 0.70971 0.14823 0.0
C480 C 0.6524 0.77705 0.47458 0.0
C481 C 0.64324 0.73616 0.41227 0.0
H482 H 0.65961 0.80938 0.64459 0.0
C483 C 0.63435 0.6947 0.47525 0.0
H484 H 0.65925 0.80968 0.4273 0.0
C485 C 0.63464 0.69407 0.59911 0.0
C486 C 0.64374 0.73522 0.66207 0.0
H487 H 0.62739 0.66216 0.42859 0.0
H488 H 0.62785 0.66097 0.64559 0.0
C489 C 0.65263 0.77671 0.59853 0.0
C490 C 0.37446 0.72891 0.59857 0.0
C491 C 0.38804 0.73454 0.66252 0.0
H492 H 0.36391 0.725 0.42817 0.0
C493 C 0.40171 0.74023 0.59986 0.0
H494 H 0.36372 0.72461 0.64387 0.0
C495 C 0.40182 0.73989 0.4762 0.0
C496 C 0.38824 0.73467 0.41246 0.0
H497 H 0.41238 0.74473 0.6462 0.0
H498 H 0.41254 0.74453 0.43063 0.0
C499 C 0.37456 0.72935 0.47488 0.0
C500 C 0.65704 0.22767 0.4426 0.0
C501 C 0.6435 0.23456 0.37868 0.0
H502 H 0.66756 0.2226 0.613 0.0
C503 C 0.62985 0.2413 0.44137 0.0
H504 H 0.66776 0.22251 0.39731 0.0
C505 C 0.62973 0.24077 0.56502 0.0
C506 C 0.64328 0.23431 0.62872 0.0
H507 H 0.61921 0.24679 0.39507 0.0
H508 H 0.61904 0.24628 0.61065 0.0
C509 C 0.65694 0.22793 0.56629 0.0
C510 C 0.37478 0.25007 0.44198 0.0
C511 C 0.38798 0.23606 0.37808 0.0
H512 H 0.36455 0.2609 0.61255 0.0
C513 C 0.40129 0.22222 0.44093 0.0
H514 H 0.36434 0.26099 0.39667 0.0
C515 C 0.40142 0.22285 0.56459 0.0
C516 C 0.38821 0.23648 0.62809 0.0
H517 H 0.41165 0.21092 0.39479 0.0
H518 H 0.41182 0.21172 0.61046 0.0
C519 C 0.37488 0.24989 0.56569 0.0
C520 C 0.02327 0.23198 0.4863 0.0
C521 C 0.03139 0.23246 0.37989 0.0
H522 H 1.00142 0.23314 0.56811 0.0
C523 C 0.02359 0.23324 0.2716 0.0
H524 H 0.02914 0.23177 0.57052 0.0
C525 C 1.00774 0.23276 0.27016 0.0
C526 C 0.99966 0.23266 0.37701 0.0
H527 H 0.02975 0.23375 0.18871 0.0
H528 H 1.00181 0.23346 0.18624 0.0
C529 C 1.00751 0.23265 0.48488 0.0
C530 C 1.00784 0.7348 0.7713 0.0
C531 C 0.99983 0.73724 0.66414 0.0
H532 H 0.02977 0.73182 0.85393 0.0
C533 C 1.00776 0.73854 0.55675 0.0
H534 H 1.00184 0.73319 0.85481 0.0
C535 C 0.02353 0.73818 0.55626 0.0
C536 C 0.03159 0.73537 0.66307 0.0
H537 H 1.00173 0.73988 0.47326 0.0
H538 H 0.02946 0.73987 0.47239 0.0
C539 C 0.02369 0.73347 0.77075 0.0
C540 C 0.52366 0.73278 0.05486 0.0
C541 C 0.53167 0.73522 0.94782 0.0
H542 H 0.50188 0.73213 0.13845 0.0
C543 C 0.52371 0.73795 0.84046 0.0
H544 H 0.52965 0.73043 0.13847 0.0
C545 C 0.50785 0.73811 0.84039 0.0
C546 C 0.49988 0.73578 0.94771 0.0
H547 H 0.52975 0.73938 0.75712 0.0
H548 H 0.50181 0.74038 0.75707 0.0
C549 C 0.50787 0.73342 0.05483 0.0
C550 C 0.50781 0.23608 0.98567 0.0
C551 C 0.49984 0.2349 0.09293 0.0
H552 H 0.52957 0.23816 0.90181 0.0
C553 C 0.50783 0.23382 0.20027 0.0
H554 H 0.5018 0.23648 0.90206 0.0
C555 C 0.52369 0.23396 0.2001 0.0
C556 C 0.53162 0.23543 0.09259 0.0
H557 H 0.50181 0.23246 0.28371 0.0
H558 H 0.52975 0.23344 0.28345 0.0
C559 C 0.5236 0.2367 0.98552 0.0
loop_
_geom_bond_atom_site_label_1
_geom_bond_atom_site_label_2
_geom_bond_distance
_geom_bond_site_symmetry_2
_ccdc_geom_bond_type
Dy0 O3 2.307 . S
Dy0 O5 2.395 . S
Dy0 O6 2.379 . S
Dy0 O8 2.339 . S
Dy0 O10 2.298 . S
Dy0 O14 2.275 . S
Dy0 C22 2.738 . S
Dy1 O4 2.298 . S
Dy1 O7 2.275 . S
Dy1 O9 2.307 . S
Dy1 O11 2.395 . S
Dy1 O12 2.379 . S
Dy1 O15 2.339 . S
Dy1 C31 2.738 . S
C2 O14 1.254 . S
C2 O15 1.257 . S
O3 Dy0 2.307 . S
O3 C13 1.266 . S
O4 Dy1 2.298 . S
O4 C13 1.236 . S
O5 Dy0 2.395 . S
O5 C22 1.255 . S
O6 Dy0 2.379 . S
O6 C22 1.249 . S
O7 Dy1 2.275 . S
O7 C23 1.254 . S
O8 Dy0 2.339 . S
O8 C23 1.257 . S
O9 Dy1 2.307 . S
O9 C24 1.266 . S
O10 Dy0 2.298 . S
O10 C24 1.236 . S
O11 Dy1 2.395 . S
O11 C31 1.255 . S
O12 Dy1 2.379 . S
O12 C31 1.249 . S
C13 O3 1.266 . S
C13 O4 1.236 . S
O14 Dy0 2.275 . S
O14 C2 1.254 . S
O15 Dy1 2.339 . S
O15 C2 1.257 . S
C16 C19 1.344 . S
C16 C20 1.328 . S
C16 C22 1.516 . S
C17 C18 1.304 . S
C17 C21 1.323 . S
C18 C17 1.304 . S
C18 C19 1.371 . S
C18 H32 0.930 . S
C19 C16 1.344 . S
C19 C18 1.371 . S
C19 H33 0.931 . S
C20 C16 1.328 . S
C20 C21 1.433 . S
C20 H34 0.931 . S
C21 C17 1.323 . S
C21 C20 1.433 . S
C21 H35 0.933 . S
C22 Dy0 2.738 . S
C22 O5 1.255 . S
C22 O6 1.249 . S
C22 C16 1.516 . S
C23 O7 1.254 . S
C23 O8 1.257 . S
C24 O9 1.266 . S
C24 O10 1.236 . S
C25 C28 1.344 . S
C25 C29 1.328 . S
C25 C31 1.516 . S
C26 C27 1.304 . S
C26 C30 1.323 . S
C27 C26 1.304 . S
C27 C28 1.371 . S
C27 H36 0.930 . S
C28 C25 1.344 . S
C28 C27 1.371 . S
C28 H37 0.931 . S
C29 C25 1.328 . S
C29 C30 1.433 . S
C29 H38 0.931 . S
C30 C26 1.323 . S
C30 C29 1.433 . S
C30 H39 0.933 . S
C31 Dy1 2.738 . S
C31 O11 1.255 . S
C31 O12 1.249 . S
C31 C25 1.516 . S
H32 C18 0.930 . S
H33 C19 0.931 . S
H34 C20 0.931 . S
H35 C21 0.933 . S
H36 C27 0.930 . S
H37 C28 0.931 . S
H38 C29 0.931 . S
H39 C30 0.933 . S
Dy40 O43 2.307 . S
Dy40 O45 2.395 . S
Dy40 O46 2.379 . S
Dy40 O48 2.339 . S
Dy40 O50 2.298 . S
Dy40 O54 2.275 . S
Dy40 C62 2.738 . S
Dy41 O44 2.298 . S
Dy41 O47 2.275 . S
Dy41 O49 2.307 . S
Dy41 O51 2.395 . S
Dy41 O52 2.379 . S
Dy41 O55 2.339 . S
Dy41 C71 2.738 . S
C42 O54 1.254 . S
C42 O55 1.257 . S
O43 Dy40 2.307 . S
O43 C53 1.266 . S
O44 Dy41 2.298 . S
O44 C53 1.236 . S
O45 Dy40 2.395 . S
O45 C62 1.255 . S
O46 Dy40 2.379 . S
O46 C62 1.249 . S
O47 Dy41 2.275 . S
O47 C63 1.254 . S
O48 Dy40 2.339 . S
O48 C63 1.257 . S
O49 Dy41 2.307 . S
O49 C64 1.266 . S
O50 Dy40 2.298 . S
O50 C64 1.236 . S
O51 Dy41 2.395 . S
O51 C71 1.255 . S
O52 Dy41 2.379 . S
O52 C71 1.249 . S
C53 O43 1.266 . S
C53 O44 1.236 . S
O54 Dy40 2.275 . S
O54 C42 1.254 . S
O55 Dy41 2.339 . S
O55 C42 1.257 . S
C56 C59 1.344 . S
C56 C60 1.328 . S
C56 C62 1.516 . S
C57 C58 1.304 . S
C57 C61 1.323 . S
C58 C57 1.304 . S
C58 C59 1.371 . S
C58 H72 0.930 . S
C59 C56 1.344 . S
C59 C58 1.371 . S
C59 H73 0.931 . S
C60 C56 1.328 . S
C60 C61 1.433 . S
C60 H74 0.931 . S
C61 C57 1.323 . S
C61 C60 1.433 . S
C61 H75 0.933 . S
C62 Dy40 2.738 . S
C62 O45 1.255 . S
C62 O46 1.249 . S
C62 C56 1.516 . S
C63 O47 1.254 . S
C63 O48 1.257 . S
C64 O49 1.266 . S
C64 O50 1.236 . S
C65 C68 1.344 . S
C65 C69 1.328 . S
C65 C71 1.516 . S
C66 C67 1.304 . S
C66 C70 1.323 . S
C67 C66 1.304 . S
C67 C68 1.371 . S
C67 H76 0.930 . S
C68 C65 1.344 . S
C68 C67 1.371 . S
C68 H77 0.931 . S
C69 C65 1.328 . S
C69 C70 1.433 . S
C69 H78 0.931 . S
C70 C66 1.323 . S
C70 C69 1.433 . S
C70 H79 0.933 . S
C71 Dy41 2.738 . S
C71 O51 1.255 . S
C71 O52 1.249 . S
C71 C65 1.516 . S
H72 C58 0.930 . S
H73 C59 0.931 . S
H74 C60 0.931 . S
H75 C61 0.933 . S
H76 C67 0.930 . S
H77 C68 0.931 . S
H78 C69 0.931 . S
H79 C70 0.933 . S
Dy80 O83 2.307 . S
Dy80 O85 2.395 . S
Dy80 O86 2.379 . S
Dy80 O88 2.339 . S
Dy80 O90 2.298 . S
Dy80 O94 2.275 . S
Dy80 C102 2.738 . S
Dy81 O84 2.298 . S
Dy81 O87 2.275 . S
Dy81 O89 2.307 . S
Dy81 O91 2.395 . S
Dy81 O92 2.379 . S
Dy81 O95 2.339 . S
Dy81 C111 2.738 . S
C82 O94 1.254 . S
C82 O95 1.257 . S
O83 Dy80 2.307 . S
O83 C93 1.266 . S
O84 Dy81 2.298 . S
O84 C93 1.236 . S
O85 Dy80 2.395 . S
O85 C102 1.255 . S
O86 Dy80 2.379 . S
O86 C102 1.249 . S
O87 Dy81 2.275 . S
O87 C103 1.254 . S
O88 Dy80 2.339 . S
O88 C103 1.257 . S
O89 Dy81 2.307 . S
O89 C104 1.266 . S
O90 Dy80 2.298 . S
O90 C104 1.236 . S
O91 Dy81 2.395 . S
O91 C111 1.255 . S
O92 Dy81 2.379 . S
O92 C111 1.249 . S
C93 O83 1.266 . S
C93 O84 1.236 . S
O94 Dy80 2.275 . S
O94 C82 1.254 . S
O95 Dy81 2.339 . S
O95 C82 1.257 . S
C96 C99 1.344 . S
C96 C100 1.328 . S
C96 C102 1.516 . S
C97 C98 1.304 . S
C97 C101 1.323 . S
C98 C97 1.304 . S
C98 C99 1.371 . S
C98 H112 0.930 . S
C99 C96 1.344 . S
C99 C98 1.371 . S
C99 H113 0.931 . S
C100 C96 1.328 . S
C100 C101 1.433 . S
C100 H114 0.931 . S
C101 C97 1.323 . S
C101 C100 1.433 . S
C101 H115 0.933 . S
C102 Dy80 2.738 . S
C102 O85 1.255 . S
C102 O86 1.249 . S
C102 C96 1.516 . S
C103 O87 1.254 . S
C103 O88 1.257 . S
C104 O89 1.266 . S
C104 O90 1.236 . S
C105 C108 1.344 . S
C105 C109 1.328 . S
C105 C111 1.516 . S
C106 C107 1.304 . S
C106 C110 1.323 . S
C107 C106 1.304 . S
C107 C108 1.371 . S
C107 H116 0.930 . S
C108 C105 1.344 . S
C108 C107 1.371 . S
C108 H117 0.931 . S
C109 C105 1.328 . S
C109 C110 1.433 . S
C109 H118 0.931 . S
C110 C106 1.323 . S
C110 C109 1.433 . S
C110 H119 0.933 . S
C111 Dy81 2.738 . S
C111 O91 1.255 . S
C111 O92 1.249 . S
C111 C105 1.516 . S
H112 C98 0.930 . S
H113 C99 0.931 . S
H114 C100 0.931 . S
H115 C101 0.933 . S
H116 C107 0.930 . S
H117 C108 0.931 . S
H118 C109 0.931 . S
H119 C110 0.933 . S
Dy120 O123 2.307 . S
Dy120 O125 2.395 . S
Dy120 O126 2.379 . S
Dy120 O128 2.339 . S
Dy120 O130 2.298 . S
Dy120 O134 2.275 . S
Dy120 C142 2.738 . S
Dy121 O124 2.298 . S
Dy121 O127 2.275 . S
Dy121 O129 2.307 . S
Dy121 O131 2.395 . S
Dy121 O132 2.379 . S
Dy121 O135 2.339 . S
Dy121 C151 2.738 . S
C122 O134 1.254 . S
C122 O135 1.257 . S
O123 Dy120 2.307 . S
O123 C133 1.266 . S
O124 Dy121 2.298 . S
O124 C133 1.236 . S
O125 Dy120 2.395 . S
O125 C142 1.255 . S
O126 Dy120 2.379 . S
O126 C142 1.249 . S
O127 Dy121 2.275 . S
O127 C143 1.254 . S
O128 Dy120 2.339 . S
O128 C143 1.257 . S
O129 Dy121 2.307 . S
O129 C144 1.266 . S
O130 Dy120 2.298 . S
O130 C144 1.236 . S
O131 Dy121 2.395 . S
O131 C151 1.255 . S
O132 Dy121 2.379 . S
O132 C151 1.249 . S
C133 O123 1.266 . S
C133 O124 1.236 . S
O134 Dy120 2.275 . S
O134 C122 1.254 . S
O135 Dy121 2.339 . S
O135 C122 1.257 . S
C136 C139 1.344 . S
C136 C140 1.328 . S
C136 C142 1.516 . S
C137 C138 1.304 . S
C137 C141 1.323 . S
C138 C137 1.304 . S
C138 C139 1.371 . S
C138 H152 0.930 . S
C139 C136 1.344 . S
C139 C138 1.371 . S
C139 H153 0.931 . S
C140 C136 1.328 . S
C140 C141 1.433 . S
C140 H154 0.931 . S
C141 C137 1.323 . S
C141 C140 1.433 . S
C141 H155 0.933 . S
C142 Dy120 2.738 . S
C142 O125 1.255 . S
C142 O126 1.249 . S
C142 C136 1.516 . S
C143 O127 1.254 . S
C143 O128 1.257 . S
C144 O129 1.266 . S
C144 O130 1.236 . S
C145 C148 1.344 . S
C145 C149 1.328 . S
C145 C151 1.516 . S
C146 C147 1.304 . S
C146 C150 1.323 . S
C147 C146 1.304 . S
C147 C148 1.371 . S
C147 H156 0.930 . S
C148 C145 1.344 . S
C148 C147 1.371 . S
C148 H157 0.931 . S
C149 C145 1.328 . S
C149 C150 1.433 . S
C149 H158 0.931 . S
C150 C146 1.323 . S
C150 C149 1.433 . S
C150 H159 0.933 . S
C151 Dy121 2.738 . S
C151 O131 1.255 . S
C151 O132 1.249 . S
C151 C145 1.516 . S
H152 C138 0.930 . S
H153 C139 0.931 . S
H154 C140 0.931 . S
H155 C141 0.933 . S
H156 C147 0.930 . S
H157 C148 0.931 . S
H158 C149 0.931 . S
H159 C150 0.933 . S
Dy160 O163 2.307 . S
Dy160 O165 2.395 1_556 S
Dy160 O166 2.379 1_556 S
Dy160 O168 2.339 . S
Dy160 O170 2.298 1_556 S
Dy160 O174 2.275 . S
Dy160 C182 2.738 1_556 S
Dy161 O164 2.298 1_554 S
Dy161 O167 2.275 . S
Dy161 O169 2.307 . S
Dy161 O171 2.395 1_554 S
Dy161 O172 2.379 1_554 S
Dy161 O175 2.339 . S
Dy161 C191 2.738 1_554 S
C162 O174 1.254 1_554 S
C162 O175 1.257 . S
O163 Dy160 2.307 . S
O163 C173 1.266 . S
O164 Dy161 2.298 1_556 S
O164 C173 1.236 . S
O165 Dy160 2.395 1_554 S
O165 C182 1.255 . S
O166 Dy160 2.379 1_554 S
O166 C182 1.249 . S
O167 Dy161 2.275 . S
O167 C183 1.254 1_554 S
O168 Dy160 2.339 . S
O168 C183 1.257 . S
O169 Dy161 2.307 . S
O169 C184 1.266 . S
O170 Dy160 2.298 1_554 S
O170 C184 1.236 . S
O171 Dy161 2.395 1_556 S
O171 C191 1.255 . S
O172 Dy161 2.379 1_556 S
O172 C191 1.249 . S
C173 O163 1.266 . S
C173 O164 1.236 . S
O174 Dy160 2.275 . S
O174 C162 1.254 1_556 S
O175 Dy161 2.339 . S
O175 C162 1.257 . S
C176 C179 1.344 . S
C176 C180 1.328 . S
C176 C182 1.516 . S
C177 C178 1.304 . S
C177 C181 1.323 . S
C178 C177 1.304 . S
C178 C179 1.371 . S
C178 H192 0.930 . S
C179 C176 1.344 . S
C179 C178 1.371 . S
C179 H193 0.931 . S
C180 C176 1.328 . S
C180 C181 1.433 . S
C180 H194 0.931 . S
C181 C177 1.323 . S
C181 C180 1.433 . S
C181 H195 0.933 . S
C182 Dy160 2.738 1_554 S
C182 O165 1.255 . S
C182 O166 1.249 . S
C182 C176 1.516 . S
C183 O167 1.254 1_556 S
C183 O168 1.257 . S
C184 O169 1.266 . S
C184 O170 1.236 . S
C185 C188 1.344 . S
C185 C189 1.328 . S
C185 C191 1.516 . S
C186 C187 1.304 . S
C186 C190 1.323 . S
C187 C186 1.304 . S
C187 C188 1.371 . S
C187 H196 0.930 . S
C188 C185 1.344 . S
C188 C187 1.371 . S
C188 H197 0.931 . S
C189 C185 1.328 . S
C189 C190 1.433 . S
C189 H198 0.931 . S
C190 C186 1.323 . S
C190 C189 1.433 . S
C190 H199 0.933 . S
C191 Dy161 2.738 1_556 S
C191 O171 1.255 . S
C191 O172 1.249 . S
C191 C185 1.516 . S
H192 C178 0.930 . S
H193 C179 0.931 . S
H194 C180 0.931 . S
H195 C181 0.933 . S
H196 C187 0.930 . S
H197 C188 0.931 . S
H198 C189 0.931 . S
H199 C190 0.933 . S
Dy200 O203 2.307 . S
Dy200 O205 2.395 1_556 S
Dy200 O206 2.379 1_556 S
Dy200 O208 2.339 . S
Dy200 O210 2.298 1_556 S
Dy200 O214 2.275 . S
Dy200 C222 2.738 1_556 S
Dy201 O204 2.298 1_554 S
Dy201 O207 2.275 . S
Dy201 O209 2.307 . S
Dy201 O211 2.395 1_554 S
Dy201 O212 2.379 1_554 S
Dy201 O215 2.339 . S
Dy201 C231 2.738 1_554 S
C202 O214 1.254 1_554 S
C202 O215 1.257 . S
O203 Dy200 2.307 . S
O203 C213 1.266 . S
O204 Dy201 2.298 1_556 S
O204 C213 1.236 . S
O205 Dy200 2.395 1_554 S
O205 C222 1.255 . S
O206 Dy200 2.379 1_554 S
O206 C222 1.249 . S
O207 Dy201 2.275 . S
O207 C223 1.254 1_554 S
O208 Dy200 2.339 . S
O208 C223 1.257 . S
O209 Dy201 2.307 . S
O209 C224 1.266 . S
O210 Dy200 2.298 1_554 S
O210 C224 1.236 . S
O211 Dy201 2.395 1_556 S
O211 C231 1.255 . S
O212 Dy201 2.379 1_556 S
O212 C231 1.249 . S
C213 O203 1.266 . S
C213 O204 1.236 . S
O214 Dy200 2.275 . S
O214 C202 1.254 1_556 S
O215 Dy201 2.339 . S
O215 C202 1.257 . S
C216 C219 1.344 . S
C216 C220 1.328 . S
C216 C222 1.516 . S
C217 C218 1.304 . S
C217 C221 1.323 . S
C218 C217 1.304 . S
C218 C219 1.371 . S
C218 H232 0.930 . S
C219 C216 1.344 . S
C219 C218 1.371 . S
C219 H233 0.931 . S
C220 C216 1.328 . S
C220 C221 1.433 . S
C220 H234 0.931 . S
C221 C217 1.323 . S
C221 C220 1.433 . S
C221 H235 0.933 . S
C222 Dy200 2.738 1_554 S
C222 O205 1.255 . S
C222 O206 1.249 . S
C222 C216 1.516 . S
C223 O207 1.254 1_556 S
C223 O208 1.257 . S
C224 O209 1.266 . S
C224 O210 1.236 . S
C225 C228 1.344 . S
C225 C229 1.328 . S
C225 C231 1.516 . S
C226 C227 1.304 . S
C226 C230 1.323 . S
C227 C226 1.304 . S
C227 C228 1.371 . S
C227 H236 0.930 . S
C228 C225 1.344 . S
C228 C227 1.371 . S
C228 H237 0.931 . S
C229 C225 1.328 . S
C229 C230 1.433 . S
C229 H238 0.931 . S
C230 C226 1.323 . S
C230 C229 1.433 . S
C230 H239 0.933 . S
C231 Dy201 2.738 1_556 S
C231 O211 1.255 . S
C231 O212 1.249 . S
C231 C225 1.516 . S
H232 C218 0.930 . S
H233 C219 0.931 . S
H234 C220 0.931 . S
H235 C221 0.933 . S
H236 C227 0.930 . S
H237 C228 0.931 . S
H238 C229 0.931 . S
H239 C230 0.933 . S
Dy240 O243 2.307 . S
Dy240 O245 2.395 1_554 S
Dy240 O246 2.379 1_554 S
Dy240 O248 2.339 . S
Dy240 O250 2.298 1_554 S
Dy240 O254 2.275 . S
Dy240 C262 2.738 1_554 S
Dy241 O244 2.298 1_556 S
Dy241 O247 2.275 . S
Dy241 O249 2.307 . S
Dy241 O251 2.395 1_556 S
Dy241 O252 2.379 1_556 S
Dy241 O255 2.339 . S
Dy241 C271 2.738 1_556 S
C242 O254 1.254 1_556 S
C242 O255 1.257 . S
O243 Dy240 2.307 . S
O243 C253 1.266 . S
O244 Dy241 2.298 1_554 S
O244 C253 1.236 . S
O245 Dy240 2.395 1_556 S
O245 C262 1.255 . S
O246 Dy240 2.379 1_556 S
O246 C262 1.249 . S
O247 Dy241 2.275 . S
O247 C263 1.254 1_556 S
O248 Dy240 2.339 . S
O248 C263 1.257 . S
O249 Dy241 2.307 . S
O249 C264 1.266 . S
O250 Dy240 2.298 1_556 S
O250 C264 1.236 . S
O251 Dy241 2.395 1_554 S
O251 C271 1.255 . S
O252 Dy241 2.379 1_554 S
O252 C271 1.249 . S
C253 O243 1.266 . S
C253 O244 1.236 . S
O254 Dy240 2.275 . S
O254 C242 1.254 1_554 S
O255 Dy241 2.339 . S
O255 C242 1.257 . S
C256 C259 1.344 . S
C256 C260 1.328 . S
C256 C262 1.516 . S
C257 C258 1.304 . S
C257 C261 1.323 . S
C258 C257 1.304 . S
C258 C259 1.371 . S
C258 H272 0.930 . S
C259 C256 1.344 . S
C259 C258 1.371 . S
C259 H273 0.931 . S
C260 C256 1.328 . S
C260 C261 1.433 . S
C260 H274 0.931 . S
C261 C257 1.323 . S
C261 C260 1.433 . S
C261 H275 0.933 . S
C262 Dy240 2.738 1_556 S
C262 O245 1.255 . S
C262 O246 1.249 . S
C262 C256 1.516 . S
C263 O247 1.254 1_554 S
C263 O248 1.257 . S
C264 O249 1.266 . S
C264 O250 1.236 . S
C265 C268 1.344 . S
C265 C269 1.328 . S
C265 C271 1.516 . S
C266 C267 1.304 . S
C266 C270 1.323 . S
C267 C266 1.304 . S
C267 C268 1.371 . S
C267 H276 0.930 . S
C268 C265 1.344 . S
C268 C267 1.371 . S
C268 H277 0.931 . S
C269 C265 1.328 . S
C269 C270 1.433 . S
C269 H278 0.931 . S
C270 C266 1.323 . S
C270 C269 1.433 . S
C270 H279 0.933 . S
C271 Dy241 2.738 1_554 S
C271 O251 1.255 . S
C271 O252 1.249 . S
C271 C265 1.516 . S
H272 C258 0.930 . S
H273 C259 0.931 . S
H274 C260 0.931 . S
H275 C261 0.933 . S
H276 C267 0.930 . S
H277 C268 0.931 . S
H278 C269 0.931 . S
H279 C270 0.933 . S
Dy280 O283 2.307 . S
Dy280 O285 2.395 1_554 S
Dy280 O286 2.379 1_554 S
Dy280 O288 2.339 . S
Dy280 O290 2.298 1_554 S
Dy280 O294 2.275 . S
Dy280 C302 2.738 1_554 S
Dy281 O284 2.298 1_556 S
Dy281 O287 2.275 . S
Dy281 O289 2.307 . S
Dy281 O291 2.395 1_556 S
Dy281 O292 2.379 1_556 S
Dy281 O295 2.339 . S
Dy281 C311 2.738 1_556 S
C282 O294 1.254 1_556 S
C282 O295 1.257 . S
O283 Dy280 2.307 . S
O283 C293 1.266 . S
O284 Dy281 2.298 1_554 S
O284 C293 1.236 . S
O285 Dy280 2.395 1_556 S
O285 C302 1.255 . S
O286 Dy280 2.379 1_556 S
O286 C302 1.249 . S
O287 Dy281 2.275 . S
O287 C303 1.254 1_556 S
O288 Dy280 2.339 . S
O288 C303 1.257 . S
O289 Dy281 2.307 . S
O289 C304 1.266 . S
O290 Dy280 2.298 1_556 S
O290 C304 1.236 . S
O291 Dy281 2.395 1_554 S
O291 C311 1.255 . S
O292 Dy281 2.379 1_554 S
O292 C311 1.249 . S
C293 O283 1.266 . S
C293 O284 1.236 . S
O294 Dy280 2.275 . S
O294 C282 1.254 1_554 S
O295 Dy281 2.339 . S
O295 C282 1.257 . S
C296 C299 1.344 . S
C296 C300 1.328 . S
C296 C302 1.516 . S
C297 C298 1.304 . S
C297 C301 1.323 . S
C298 C297 1.304 . S
C298 C299 1.371 . S
C298 H312 0.930 . S
C299 C296 1.344 . S
C299 C298 1.371 . S
C299 H313 0.931 . S
C300 C296 1.328 . S
C300 C301 1.433 . S
C300 H314 0.931 . S
C301 C297 1.323 . S
C301 C300 1.433 . S
C301 H315 0.933 . S
C302 Dy280 2.738 1_556 S
C302 O285 1.255 . S
C302 O286 1.249 . S
C302 C296 1.516 . S
C303 O287 1.254 1_554 S
C303 O288 1.257 . S
C304 O289 1.266 . S
C304 O290 1.236 . S
C305 C308 1.344 . S
C305 C309 1.328 . S
C305 C311 1.516 . S
C306 C307 1.304 . S
C306 C310 1.323 . S
C307 C306 1.304 . S
C307 C308 1.371 . S
C307 H316 0.930 . S
C308 C305 1.344 . S
C308 C307 1.371 . S
C308 H317 0.931 . S
C309 C305 1.328 . S
C309 C310 1.433 . S
C309 H318 0.931 . S
C310 C306 1.323 . S
C310 C309 1.433 . S
C310 H319 0.933 . S
C311 Dy281 2.738 1_554 S
C311 O291 1.255 . S
C311 O292 1.249 . S
C311 C305 1.516 . S
H312 C298 0.930 . S
H313 C299 0.931 . S
H314 C300 0.931 . S
H315 C301 0.933 . S
H316 C307 0.930 . S
H317 C308 0.931 . S
H318 C309 0.931 . S
H319 C310 0.933 . S
C320 C321 1.387 . S
C320 H324 0.950 . S
C320 C329 1.390 . S
C321 C320 1.387 . S
C321 C323 1.387 . S
H322 C329 0.950 . S
C323 C321 1.387 . S
C323 C325 1.390 . S
C323 H327 0.950 . S
H324 C320 0.950 . S
C325 C323 1.390 . S
C325 C326 1.387 . S
C325 H328 0.950 . S
C326 C325 1.387 . S
C326 C329 1.387 . S
H327 C323 0.950 . S
H328 C325 0.950 . S
C329 C320 1.390 . S
C329 H322 0.950 . S
C329 C326 1.387 . S
C330 C331 1.387 . S
C330 H334 0.950 . S
C330 C339 1.390 . S
C331 C330 1.387 . S
C331 C333 1.387 . S
H332 C339 0.950 . S
C333 C331 1.387 . S
C333 C335 1.390 . S
C333 H337 0.950 . S
H334 C330 0.950 . S
C335 C333 1.390 . S
C335 C336 1.387 . S
C335 H338 0.950 . S
C336 C335 1.387 . S
C336 C339 1.387 . S
H337 C333 0.950 . S
H338 C335 0.950 . S
C339 C330 1.390 . S
C339 H332 0.950 . S
C339 C336 1.387 . S
C340 C341 1.387 . S
C340 H344 0.950 . S
C340 C349 1.390 . S
C341 C340 1.387 . S
C341 C343 1.387 . S
H342 C349 0.950 . S
C343 C341 1.387 . S
C343 C345 1.390 . S
C343 H347 0.950 . S
H344 C340 0.950 . S
C345 C343 1.390 . S
C345 C346 1.387 . S
C345 H348 0.950 . S
C346 C345 1.387 . S
C346 C349 1.387 . S
H347 C343 0.950 . S
H348 C345 0.950 . S
C349 C340 1.390 . S
C349 H342 0.950 . S
C349 C346 1.387 . S
C350 C351 1.387 . S
C350 H354 0.950 . S
C350 C359 1.390 . S
C351 C350 1.387 . S
C351 C353 1.387 . S
H352 C359 0.950 . S
C353 C351 1.387 . S
C353 C355 1.390 . S
C353 H357 0.950 . S
H354 C350 0.950 . S
C355 C353 1.390 . S
C355 C356 1.387 . S
C355 H358 0.950 . S
C356 C355 1.387 . S
C356 C359 1.387 . S
H357 C353 0.950 . S
H358 C355 0.950 . S
C359 C350 1.390 . S
C359 H352 0.950 . S
C359 C356 1.387 . S
C360 C361 1.387 . S
C360 H364 0.950 . S
C360 C369 1.390 1_565 S
C361 C360 1.387 . S
C361 C363 1.387 . S
H362 C369 0.950 . S
C363 C361 1.387 . S
C363 C365 1.390 1_565 S
C363 H367 0.950 . S
H364 C360 0.950 . S
C365 C363 1.390 1_545 S
C365 C366 1.387 . S
C365 H368 0.950 . S
C366 C365 1.387 . S
C366 C369 1.387 . S
H367 C363 0.950 . S
H368 C365 0.950 . S
C369 C360 1.390 1_545 S
C369 H362 0.950 . S
C369 C366 1.387 . S
C370 C371 1.387 . S
C370 H374 0.950 . S
C370 C379 1.390 . S
C371 C370 1.387 . S
C371 C373 1.387 . S
H372 C379 0.950 . S
C373 C371 1.387 . S
C373 C375 1.390 . S
C373 H377 0.950 . S
H374 C370 0.950 . S
C375 C373 1.390 . S
C375 C376 1.387 . S
C375 H378 0.950 . S
C376 C375 1.387 . S
C376 C379 1.387 . S
H377 C373 0.950 . S
H378 C375 0.950 . S
C379 C370 1.390 . S
C379 H372 0.950 . S
C379 C376 1.387 . S
C380 C381 1.387 . S
C380 H384 0.950 . S
C380 C389 1.390 1_565 S
C381 C380 1.387 . S
C381 C383 1.387 . S
H382 C389 0.950 . S
C383 C381 1.387 . S
C383 C385 1.390 1_565 S
C383 H387 0.950 . S
H384 C380 0.950 . S
C385 C383 1.390 1_545 S
C385 C386 1.387 . S
C385 H388 0.950 . S
C386 C385 1.387 . S
C386 C389 1.387 . S
H387 C383 0.950 . S
H388 C385 0.950 . S
C389 C380 1.390 1_545 S
C389 H382 0.950 . S
C389 C386 1.387 . S
C390 C391 1.387 . S
C390 H394 0.950 . S
C390 C399 1.390 . S
C391 C390 1.387 . S
C391 C393 1.387 . S
H392 C399 0.950 . S
C393 C391 1.387 . S
C393 C395 1.390 . S
C393 H397 0.950 . S
H394 C390 0.950 . S
C395 C393 1.390 . S
C395 C396 1.387 . S
C395 H398 0.950 . S
C396 C395 1.387 . S
C396 C399 1.387 . S
H397 C393 0.950 . S
H398 C395 0.950 . S
C399 C390 1.390 . S
C399 H392 0.950 . S
C399 C396 1.387 . S
C400 C401 1.387 . S
C400 H404 0.950 . S
C400 C409 1.390 1_554 S
C401 C400 1.387 . S
C401 C403 1.387 . S
H402 C409 0.950 . S
C403 C401 1.387 . S
C403 C405 1.390 1_554 S
C403 H407 0.950 . S
H404 C400 0.950 . S
C405 C403 1.390 1_556 S
C405 C406 1.387 . S
C405 H408 0.950 . S
C406 C405 1.387 . S
C406 C409 1.387 . S
H407 C403 0.950 . S
H408 C405 0.950 . S
C409 C400 1.390 1_556 S
C409 H402 0.950 . S
C409 C406 1.387 . S
C410 C411 1.387 . S
C410 H414 0.950 . S
C410 C419 1.390 1_564 S
C411 C410 1.387 . S
C411 C413 1.387 . S
H412 C419 0.950 . S
C413 C411 1.387 . S
C413 C415 1.390 1_564 S
C413 H417 0.950 . S
H414 C410 0.950 . S
C415 C413 1.390 1_546 S
C415 C416 1.387 . S
C415 H418 0.950 . S
C416 C415 1.387 . S
C416 C419 1.387 . S
H417 C413 0.950 . S
H418 C415 0.950 . S
C419 C410 1.390 1_546 S
C419 H412 0.950 . S
C419 C416 1.387 . S
C420 C421 1.387 . S
C420 H424 0.950 . S
C420 C429 1.390 1_554 S
C421 C420 1.387 . S
C421 C423 1.387 . S
H422 C429 0.950 . S
C423 C421 1.387 . S
C423 C425 1.390 1_554 S
C423 H427 0.950 . S
H424 C420 0.950 . S
C425 C423 1.390 1_556 S
C425 C426 1.387 . S
C425 H428 0.950 . S
C426 C425 1.387 . S
C426 C429 1.387 . S
H427 C423 0.950 . S
H428 C425 0.950 . S
C429 C420 1.390 1_556 S
C429 H422 0.950 . S
C429 C426 1.387 . S
C430 C431 1.387 . S
C430 H434 0.950 . S
C430 C439 1.390 1_544 S
C431 C430 1.387 . S
C431 C433 1.387 . S
H432 C439 0.950 . S
C433 C431 1.387 . S
C433 C435 1.390 1_544 S
C433 H437 0.950 . S
H434 C430 0.950 . S
C435 C433 1.390 1_566 S
C435 C436 1.387 . S
C435 H438 0.950 . S
C436 C435 1.387 . S
C436 C439 1.387 . S
H437 C433 0.950 . S
H438 C435 0.950 . S
C439 C430 1.390 1_566 S
C439 H432 0.950 . S
C439 C436 1.387 . S
C440 C441 1.387 1_556 S
C440 H444 0.950 1_556 S
C440 C449 1.390 . S
C441 C440 1.387 1_554 S
C441 C443 1.387 1_554 S
H442 C449 0.950 . S
C443 C441 1.387 1_556 S
C443 C445 1.390 . S
C443 H447 0.950 1_556 S
H444 C440 0.950 1_554 S
C445 C443 1.390 . S
C445 C446 1.387 . S
C445 H448 0.950 . S
C446 C445 1.387 . S
C446 C449 1.387 . S
H447 C443 0.950 1_554 S
H448 C445 0.950 . S
C449 C440 1.390 . S
C449 H442 0.950 . S
C449 C446 1.387 . S
C450 C451 1.387 . S
C450 H454 0.950 . S
C450 C459 1.390 1_554 S
C451 C450 1.387 . S
C451 C453 1.387 1_554 S
H452 C459 0.950 . S
C453 C451 1.387 1_556 S
C453 C455 1.390 . S
C453 H457 0.950 1_556 S
H454 C450 0.950 . S
C455 C453 1.390 . S
C455 C456 1.387 . S
C455 H458 0.950 . S
C456 C455 1.387 . S
C456 C459 1.387 . S
H457 C453 0.950 1_554 S
H458 C455 0.950 . S
C459 C450 1.390 1_556 S
C459 H452 0.950 . S
C459 C456 1.387 . S
C460 C461 1.387 . S
C460 H464 0.950 . S
C460 C469 1.390 . S
C461 C460 1.387 . S
C461 C463 1.387 . S
H462 C469 0.950 1_556 S
C463 C461 1.387 . S
C463 C465 1.390 1_554 S
C463 H467 0.950 . S
H464 C460 0.950 . S
C465 C463 1.390 1_556 S
C465 C466 1.387 . S
C465 H468 0.950 . S
C466 C465 1.387 . S
C466 C469 1.387 1_556 S
H467 C463 0.950 . S
H468 C465 0.950 . S
C469 C460 1.390 . S
C469 H462 0.950 1_554 S
C469 C466 1.387 1_554 S
C470 C471 1.387 . S
C470 H474 0.950 . S
C470 C479 1.390 1_556 S
C471 C470 1.387 . S
C471 C473 1.387 1_556 S
H472 C479 0.950 . S
C473 C471 1.387 1_554 S
C473 C475 1.390 . S
C473 H477 0.950 1_554 S
H474 C470 0.950 . S
C475 C473 1.390 . S
C475 C476 1.387 . S
C475 H478 0.950 . S
C476 C475 1.387 . S
C476 C479 1.387 . S
H477 C473 0.950 1_556 S
H478 C475 0.950 . S
C479 C470 1.390 1_554 S
C479 H472 0.950 . S
C479 C476 1.387 . S
C480 C481 1.387 . S
C480 H484 0.950 . S
C480 C489 1.390 . S
C481 C480 1.387 . S
C481 C483 1.387 . S
H482 C489 0.950 . S
C483 C481 1.387 . S
C483 C485 1.390 . S
C483 H487 0.950 . S
H484 C480 0.950 . S
C485 C483 1.390 . S
C485 C486 1.387 . S
C485 H488 0.950 . S
C486 C485 1.387 . S
C486 C489 1.387 . S
H487 C483 0.950 . S
H488 C485 0.950 . S
C489 C480 1.390 . S
C489 H482 0.950 . S
C489 C486 1.387 . S
C490 C491 1.387 . S
C490 H494 0.950 . S
C490 C499 1.390 . S
C491 C490 1.387 . S
C491 C493 1.387 . S
H492 C499 0.950 . S
C493 C491 1.387 . S
C493 C495 1.390 . S
C493 H497 0.950 . S
H494 C490 0.950 . S
C495 C493 1.390 . S
C495 C496 1.387 . S
C495 H498 0.950 . S
C496 C495 1.387 . S
C496 C499 1.387 . S
H497 C493 0.950 . S
H498 C495 0.950 . S
C499 C490 1.390 . S
C499 H492 0.950 . S
C499 C496 1.387 . S
C500 C501 1.387 . S
C500 H504 0.950 . S
C500 C509 1.390 . S
C501 C500 1.387 . S
C501 C503 1.387 . S
H502 C509 0.950 . S
C503 C501 1.387 . S
C503 C505 1.390 . S
C503 H507 0.950 . S
H504 C500 0.950 . S
C505 C503 1.390 . S
C505 C506 1.387 . S
C505 H508 0.950 . S
C506 C505 1.387 . S
C506 C509 1.387 . S
H507 C503 0.950 . S
H508 C505 0.950 . S
C509 C500 1.390 . S
C509 H502 0.950 . S
C509 C506 1.387 . S
C510 C511 1.387 . S
C510 H514 0.950 . S
C510 C519 1.390 . S
C511 C510 1.387 . S
C511 C513 1.387 . S
H512 C519 0.950 . S
C513 C511 1.387 . S
C513 C515 1.390 . S
C513 H517 0.950 . S
H514 C510 0.950 . S
C515 C513 1.390 . S
C515 C516 1.387 . S
C515 H518 0.950 . S
C516 C515 1.387 . S
C516 C519 1.387 . S
H517 C513 0.950 . S
H518 C515 0.950 . S
C519 C510 1.390 . S
C519 H512 0.950 . S
C519 C516 1.387 . S
C520 C521 1.387 . S
C520 H524 0.950 . S
C520 C529 1.390 1_455 S
C521 C520 1.387 . S
C521 C523 1.387 . S
H522 C529 0.950 . S
C523 C521 1.387 . S
C523 C525 1.390 1_455 S
C523 H527 0.950 . S
H524 C520 0.950 . S
C525 C523 1.390 1_655 S
C525 C526 1.387 . S
C525 H528 0.950 . S
C526 C525 1.387 . S
C526 C529 1.387 . S
H527 C523 0.950 . S
H528 C525 0.950 . S
C529 C520 1.390 1_655 S
C529 H522 0.950 . S
C529 C526 1.387 . S
C530 C531 1.387 . S
C530 H534 0.950 . S
C530 C539 1.390 1_655 S
C531 C530 1.387 . S
C531 C533 1.387 . S
H532 C539 0.950 . S
C533 C531 1.387 . S
C533 C535 1.390 1_655 S
C533 H537 0.950 . S
H534 C530 0.950 . S
C535 C533 1.390 1_455 S
C535 C536 1.387 . S
C535 H538 0.950 . S
C536 C535 1.387 . S
C536 C539 1.387 . S
H537 C533 0.950 . S
H538 C535 0.950 . S
C539 C530 1.390 1_455 S
C539 H532 0.950 . S
C539 C536 1.387 . S
C540 C541 1.387 . S
C540 H544 0.950 . S
C540 C549 1.390 . S
C541 C540 1.387 . S
C541 C543 1.387 . S
H542 C549 0.950 . S
C543 C541 1.387 . S
C543 C545 1.390 . S
C543 H547 0.950 . S
H544 C540 0.950 . S
C545 C543 1.390 . S
C545 C546 1.387 . S
C545 H548 0.950 . S
C546 C545 1.387 . S
C546 C549 1.387 . S
H547 C543 0.950 . S
H548 C545 0.950 . S
C549 C540 1.390 . S
C549 H542 0.950 . S
C549 C546 1.387 . S
C550 C551 1.387 . S
C550 H554 0.950 . S
C550 C559 1.390 . S
C551 C550 1.387 . S
C551 C553 1.387 . S
H552 C559 0.950 . S
C553 C551 1.387 . S
C553 C555 1.390 . S
C553 H557 0.950 . S
H554 C550 0.950 . S
C555 C553 1.390 . S
C555 C556 1.387 . S
C555 H558 0.950 . S
C556 C555 1.387 . S
C556 C559 1.387 . S
H557 C553 0.950 . S
H558 C555 0.950 . S
C559 C550 1.390 . S
C559 H552 0.950 . S
C559 C556 1.387 . S
C321 C17 1.644 . S
C326 C297 1.644 . S
C331 C257 1.643 . S
C336 C57 1.643 . S
C341 C217 1.644 . S
C346 C97 1.644 . S
C351 C177 1.644 . S
C356 C137 1.644 . S
C361 C82 1.186 . S
C366 C2 1.186 . S
C371 C42 1.186 . S
C376 C122 1.186 . S
C381 C143 1.936 . S
C386 C63 1.937 . S
C391 C103 1.935 . S
C396 C23 1.935 . S
C401 C162 1.108 . S
C406 C242 1.108 . S
C411 C202 1.107 . S
C416 C282 1.107 . S
C421 C303 1.819 . S
C426 C223 1.819 . S
C431 C263 1.819 . S
C436 C183 1.819 . S
C441 C13 1.914 . S
C446 C24 1.914 . S
C451 C53 1.914 . S
C456 C64 1.914 . S
C461 C104 1.916 . S
C466 C93 1.916 . S
C471 C133 1.914 . S
C476 C144 1.914 . S
C481 C184 1.916 . S
C486 C173 1.916 . S
C491 C213 1.916 . S
C496 C224 1.916 . S
C501 C253 1.916 . S
C506 C264 1.916 . S
C511 C293 1.916 . S
C516 C304 1.916 . S
C521 C26 2.101 . S
C526 C66 2.101 . S
C531 C146 2.101 . S
C536 C106 2.101 . S
C541 C186 2.100 . S
C546 C226 2.100 . S
C551 C306 2.100 . S
C556 C266 2.100 . S
