# Generated by pormake.
# Topology zfc, (5)-cn, num edge types: 1
# Building blocks:
#     Node 0, Type 0, BuildingBlock: BEQFEK_clean_sbu_0, # of connection points: 5
#     Node 1, Type 0, BuildingBlock: BEQFEK_clean_sbu_0, # of connection points: 5
#     Node 2, Type 0, BuildingBlock: BEQFEK_clean_sbu_0, # of connection points: 5
#     Node 3, Type 0, BuildingBlock: BEQFEK_clean_sbu_0, # of connection points: 5
#     Node 4, Type 0, BuildingBlock: BEQFEK_clean_sbu_0, # of connection points: 5
#     Node 5, Type 0, BuildingBlock: BEQFEK_clean_sbu_0, # of connection points: 5
#     Node 6, Type 0, BuildingBlock: BEQFEK_clean_sbu_0, # of connection points: 5
#     Node 7, Type 0, BuildingBlock: BEQFEK_clean_sbu_0, # of connection points: 5
#     Node 8, Type 0, BuildingBlock: BEQFEK_clean_sbu_0, # of connection points: 5
#     Node 9, Type 0, BuildingBlock: BEQFEK_clean_sbu_0, # of connection points: 5
#     Node 10, Type 0, BuildingBlock: BEQFEK_clean_sbu_0, # of connection points: 5
#     Node 11, Type 0, BuildingBlock: BEQFEK_clean_sbu_0, # of connection points: 5
#     Node 12, Type 0, BuildingBlock: BEQFEK_clean_sbu_0, # of connection points: 5
#     Node 13, Type 0, BuildingBlock: BEQFEK_clean_sbu_0, # of connection points: 5
#     Node 14, Type 0, BuildingBlock: BEQFEK_clean_sbu_0, # of connection points: 5
#     Node 15, Type 0, BuildingBlock: BEQFEK_clean_sbu_0, # of connection points: 5
#     Edge 16, Type (0, 0), BuildingBlock: CIFDUS_clean_linker_0, # of connection points: 2
#     Edge 17, Type (0, 0), BuildingBlock: CIFDUS_clean_linker_0, # of connection points: 2
#     Edge 18, Type (0, 0), BuildingBlock: CIFDUS_clean_linker_0, # of connection points: 2
#     Edge 19, Type (0, 0), BuildingBlock: CIFDUS_clean_linker_0, # of connection points: 2
#     Edge 20, Type (0, 0), BuildingBlock: CIFDUS_clean_linker_0, # of connection points: 2
#     Edge 21, Type (0, 0), BuildingBlock: CIFDUS_clean_linker_0, # of connection points: 2
#     Edge 22, Type (0, 0), BuildingBlock: CIFDUS_clean_linker_0, # of connection points: 2
#     Edge 23, Type (0, 0), BuildingBlock: CIFDUS_clean_linker_0, # of connection points: 2
#     Edge 24, Type (0, 0), BuildingBlock: CIFDUS_clean_linker_0, # of connection points: 2
#     Edge 25, Type (0, 0), BuildingBlock: CIFDUS_clean_linker_0, # of connection points: 2
#     Edge 26, Type (0, 0), BuildingBlock: CIFDUS_clean_linker_0, # of connection points: 2
#     Edge 27, Type (0, 0), BuildingBlock: CIFDUS_clean_linker_0, # of connection points: 2
#     Edge 28, Type (0, 0), BuildingBlock: CIFDUS_clean_linker_0, # of connection points: 2
#     Edge 29, Type (0, 0), BuildingBlock: CIFDUS_clean_linker_0, # of connection points: 2
#     Edge 30, Type (0, 0), BuildingBlock: CIFDUS_clean_linker_0, # of connection points: 2
#     Edge 31, Type (0, 0), BuildingBlock: CIFDUS_clean_linker_0, # of connection points: 2
#     Edge 32, Type (0, 0), BuildingBlock: CIFDUS_clean_linker_0, # of connection points: 2
#     Edge 33, Type (0, 0), BuildingBlock: CIFDUS_clean_linker_0, # of connection points: 2
#     Edge 34, Type (0, 0), BuildingBlock: CIFDUS_clean_linker_0, # of connection points: 2
#     Edge 35, Type (0, 0), BuildingBlock: CIFDUS_clean_linker_0, # of connection points: 2
#     Edge 36, Type (0, 0), BuildingBlock: CIFDUS_clean_linker_0, # of connection points: 2
#     Edge 37, Type (0, 0), BuildingBlock: CIFDUS_clean_linker_0, # of connection points: 2
#     Edge 38, Type (0, 0), BuildingBlock: CIFDUS_clean_linker_0, # of connection points: 2
#     Edge 39, Type (0, 0), BuildingBlock: CIFDUS_clean_linker_0, # of connection points: 2
#     Edge 40, Type (0, 0), BuildingBlock: CIFDUS_clean_linker_0, # of connection points: 2
#     Edge 41, Type (0, 0), BuildingBlock: CIFDUS_clean_linker_0, # of connection points: 2
#     Edge 42, Type (0, 0), BuildingBlock: CIFDUS_clean_linker_0, # of connection points: 2
#     Edge 43, Type (0, 0), BuildingBlock: CIFDUS_clean_linker_0, # of connection points: 2
#     Edge 44, Type (0, 0), BuildingBlock: CIFDUS_clean_linker_0, # of connection points: 2
#     Edge 45, Type (0, 0), BuildingBlock: CIFDUS_clean_linker_0, # of connection points: 2
#     Edge 46, Type (0, 0), BuildingBlock: CIFDUS_clean_linker_0, # of connection points: 2
#     Edge 47, Type (0, 0), BuildingBlock: CIFDUS_clean_linker_0, # of connection points: 2
#     Edge 48, Type (0, 0), BuildingBlock: CIFDUS_clean_linker_0, # of connection points: 2
#     Edge 49, Type (0, 0), BuildingBlock: CIFDUS_clean_linker_0, # of connection points: 2
#     Edge 50, Type (0, 0), BuildingBlock: CIFDUS_clean_linker_0, # of connection points: 2
#     Edge 51, Type (0, 0), BuildingBlock: CIFDUS_clean_linker_0, # of connection points: 2
#     Edge 52, Type (0, 0), BuildingBlock: CIFDUS_clean_linker_0, # of connection points: 2
#     Edge 53, Type (0, 0), BuildingBlock: CIFDUS_clean_linker_0, # of connection points: 2
#     Edge 54, Type (0, 0), BuildingBlock: CIFDUS_clean_linker_0, # of connection points: 2
#     Edge 55, Type (0, 0), BuildingBlock: CIFDUS_clean_linker_0, # of connection points: 2
# Relax obj value: 0.180
# Max RMSD: 0.202
# Mean RMSD: 0.202
data_MOF--net-zfc--node1-BEQFEK_clean_sbu_0--edge1-CIFDUS_clean_linker_0
_symmetry_space_group_name_H-M    P1
_symmetry_Int_Tables_number       1
_symmetry_cell_setting            triclinic
loop_
_symmetry_equiv_pos_as_xyz
'x, y, z'
_cell_length_a     64.66625
_cell_length_b     64.623544
_cell_length_c     17.051824
_cell_angle_alpha  90.018411
_cell_angle_beta   90.139806
_cell_angle_gamma 90.01529
loop_
_atom_site_label
_atom_site_type_symbol
_atom_site_fract_x
_atom_site_fract_y
_atom_site_fract_z
_atom_type_partial_charge
Co0 Co 0.24822 0.11605 0.18933 0.0
Co1 Co 0.2646 0.12561 0.01977 0.0
C2 C 0.22353 0.1418 0.08033 0.0
O3 O 0.22533 0.13304 0.1469 0.0
O4 O 0.23748 0.14008 0.02805 0.0
C5 C 0.23136 0.11816 0.343 0.0
O6 O 0.22053 0.1333 0.31197 0.0
C7 C 0.26035 0.12253 0.84981 0.0
C8 C 0.29226 0.12767 0.80837 0.0
C9 C 0.27242 0.12306 0.78262 0.0
N10 N 0.27251 0.12653 0.91207 0.0
N11 N 0.29153 0.12982 0.88689 0.0
C12 C 0.23815 0.11622 0.85635 0.0
H13 H 0.23485 0.11021 0.91599 0.0
H14 H 0.23429 0.10424 0.812 0.0
H15 H 0.22819 0.12992 0.8458 0.0
C16 C 0.25342 0.07294 0.13277 0.0
N17 N 0.25435 0.09358 0.12236 0.0
N18 N 0.26225 0.09754 0.05283 0.0
C19 C 0.26709 0.07949 0.01769 0.0
C20 C 0.26152 0.06338 0.06684 0.0
C21 C 0.24585 0.06279 0.20605 0.0
H22 H 0.25704 0.06584 0.25414 0.0
H23 H 0.23082 0.06969 0.22334 0.0
H24 H 0.24413 0.04582 0.19831 0.0
O25 O 0.27291 0.13359 0.20172 0.0
O26 O 0.28567 0.14052 0.08414 0.0
H27 H 0.2897 0.08894 0.93323 0.0
H28 H 0.28302 0.06183 0.92812 0.0
C29 C 0.27691 0.07761 0.9386 0.0
H30 H 0.26521 0.08095 0.8928 0.0
H31 H 0.3041 0.13296 0.92348 0.0
O32 O 0.24276 0.10719 0.29878 0.0
C33 C 0.28644 0.14215 0.15858 0.0
Co34 Co 0.88662 0.24938 0.13929 0.0
Co35 Co 0.8807 0.26993 0.97398 0.0
C36 C 0.86131 0.22859 0.01875 0.0
O37 O 0.86919 0.22804 0.08737 0.0
O38 O 0.86446 0.24386 0.97313 0.0
C39 C 0.87831 0.24262 0.2942 0.0
O40 O 0.8598 0.24459 0.26313 0.0
C41 C 0.8829 0.26846 0.80257 0.0
C42 C 0.87376 0.30022 0.76967 0.0
C43 C 0.87859 0.281 0.7386 0.0
N44 N 0.88074 0.27976 0.86836 0.0
N45 N 0.87557 0.29881 0.84819 0.0
C46 C 0.88683 0.24564 0.80173 0.0
H47 H 0.89009 0.2398 0.86161 0.0
H48 H 0.9003 0.2421 0.76401 0.0
H49 H 0.8732 0.23753 0.77669 0.0
C50 C 0.9305 0.25108 0.09001 0.0
N51 N 0.91034 0.2552 0.07832 0.0
N52 N 0.90803 0.2646 0.01034 0.0
C53 C 0.92678 0.2671 0.97721 0.0
C54 C 0.94161 0.25847 0.02634 0.0
C55 C 0.93876 0.24032 0.16116 0.0
H56 H 0.93414 0.24908 0.21429 0.0
H57 H 0.93173 0.2247 0.16534 0.0
H58 H 0.95586 0.23897 0.15975 0.0
O59 O 0.87046 0.27497 0.15533 0.0
O60 O 0.86642 0.29068 0.04116 0.0
H61 H 0.92037 0.29011 0.88987 0.0
H62 H 0.94659 0.2804 0.8879 0.0
C63 C 0.93018 0.27619 0.89754 0.0
H64 H 0.92572 0.26464 0.85252 0.0
H65 H 0.87235 0.31061 0.88817 0.0
O66 O 0.89383 0.24165 0.24862 0.0
C67 C 0.86355 0.28995 0.11497 0.0
Co68 Co 0.75753 0.88624 0.18179 0.0
Co69 Co 0.74255 0.87918 0.01056 0.0
C70 C 0.7818 0.85976 0.07651 0.0
O71 O 0.78002 0.86837 0.14333 0.0
O72 O 0.76839 0.86255 0.02265 0.0
C73 C 0.77599 0.89843 0.33841 0.0
O74 O 0.79468 0.902 0.31168 0.0
C75 C 0.74688 0.88188 0.83905 0.0
C76 C 0.71435 0.87851 0.80108 0.0
C77 C 0.73423 0.88158 0.77305 0.0
N78 N 0.73491 0.8794 0.90283 0.0
N79 N 0.71552 0.87736 0.87965 0.0
C80 C 0.76996 0.88384 0.84168 0.0
H81 H 0.7762 0.87889 0.8989 0.0
H82 H 0.77442 0.90025 0.83342 0.0
H83 H 0.77709 0.87454 0.79415 0.0
C84 C 0.7569 0.93013 0.1292 0.0
N85 N 0.75375 0.90975 0.1175 0.0
N86 N 0.7465 0.90686 0.04615 0.0
C87 C 0.74431 0.92541 0.01083 0.0
C88 C 0.75102 0.94071 0.06201 0.0
C89 C 0.76508 0.9392 0.20375 0.0
H90 H 0.75573 0.93355 0.25379 0.0
H91 H 0.78123 0.93389 0.21273 0.0
H92 H 0.76472 0.95636 0.20267 0.0
O93 O 0.73184 0.86994 0.18897 0.0
O94 O 0.71989 0.86531 0.06879 0.0
H95 H 0.72283 0.91883 0.91818 0.0
H96 H 0.73314 0.94477 0.91557 0.0
C97 C 0.73681 0.92838 0.92845 0.0
H98 H 0.74903 0.92338 0.88728 0.0
H99 H 0.70305 0.87526 0.91759 0.0
O100 O 0.76155 0.89319 0.29211 0.0
C101 C 0.71826 0.86276 0.14249 0.0
Co102 Co 0.12022 0.75336 0.15656 0.0
Co103 Co 0.12285 0.73389 0.9912 0.0
C104 C 0.14344 0.77485 0.03504 0.0
O105 O 0.13644 0.77511 0.10465 0.0
O106 O 0.13953 0.75986 0.98893 0.0
C107 C 0.11054 0.77149 0.32061 0.0
O108 O 0.09929 0.78768 0.30212 0.0
C109 C 0.11254 0.73996 0.82951 0.0
C110 C 0.12182 0.71078 0.77209 0.0
C111 C 0.11348 0.73019 0.75767 0.0
N112 N 0.11964 0.72688 0.88436 0.0
N113 N 0.12506 0.70937 0.85004 0.0
C114 C 0.10679 0.76204 0.84518 0.0
H115 H 0.10654 0.7653 0.90895 0.0
H116 H 0.09131 0.76549 0.82057 0.0
H117 H 0.11809 0.77241 0.81598 0.0
C118 C 0.07491 0.75159 0.12039 0.0
N119 N 0.09496 0.74796 0.10394 0.0
N120 N 0.09618 0.73824 0.03625 0.0
C121 C 0.07689 0.73472 0.00897 0.0
C122 C 0.06283 0.74337 0.06072 0.0
C123 C 0.06747 0.76268 0.19182 0.0
H124 H 0.07249 0.77907 0.18879 0.0
H125 H 0.05038 0.76206 0.19683 0.0
H126 H 0.07449 0.75555 0.24466 0.0
O127 O 0.13666 0.72769 0.1633 0.0
O128 O 0.13841 0.71205 0.04813 0.0
H129 H 0.05663 0.71649 0.93501 0.0
H130 H 0.07151 0.73569 0.88529 0.0
C131 C 0.07196 0.72409 0.9331 0.0
H132 H 0.08379 0.71223 0.91977 0.0
H133 H 0.13144 0.69672 0.87944 0.0
O134 O 0.11748 0.75947 0.26822 0.0
C135 C 0.1427 0.71269 0.12099 0.0
Co136 Co 0.25004 0.88782 0.84725 0.0
Co137 Co 0.26809 0.88309 0.01639 0.0
C138 C 0.22805 0.86235 0.96171 0.0
O139 O 0.22814 0.87011 0.89301 0.0
O140 O 0.24253 0.86609 0.01043 0.0
C141 C 0.23124 0.89929 0.68819 0.0
O142 O 0.21292 0.90466 0.71432 0.0
C143 C 0.26371 0.88761 0.18697 0.0
C144 C 0.29566 0.8821 0.22789 0.0
C145 C 0.27583 0.88633 0.25438 0.0
N146 N 0.27591 0.88437 0.12424 0.0
N147 N 0.29499 0.88119 0.14913 0.0
C148 C 0.24083 0.89102 0.18169 0.0
H149 H 0.23505 0.88829 0.12162 0.0
H150 H 0.23718 0.90731 0.19634 0.0
H151 H 0.23265 0.88081 0.22381 0.0
C152 C 0.25079 0.93238 0.89381 0.0
N153 N 0.25455 0.91218 0.9073 0.0
N154 N 0.26319 0.91018 0.9769 0.0
C155 C 0.26565 0.92908 0.00907 0.0
C156 C 0.25767 0.94376 0.95787 0.0
C157 C 0.24103 0.94058 0.82058 0.0
H158 H 0.2248 0.93509 0.81723 0.0
H159 H 0.24127 0.95774 0.81893 0.0
H160 H 0.24941 0.93448 0.76885 0.0
O161 O 0.27584 0.8717 0.83965 0.0
O162 O 0.29033 0.86891 0.95675 0.0
H163 H 0.27902 0.9492 0.09795 0.0
H164 H 0.26253 0.92913 0.13361 0.0
C165 C 0.27441 0.93287 0.0892 0.0
H166 H 0.28805 0.92282 0.09898 0.0
H167 H 0.3075 0.87811 0.11238 0.0
O168 O 0.24525 0.89343 0.7354 0.0
C169 C 0.29047 0.8654 0.8833 0.0
Co170 Co 0.11613 0.24963 0.82229 0.0
Co171 Co 0.12394 0.26448 0.99326 0.0
C172 C 0.14099 0.22397 0.92895 0.0
O173 O 0.13251 0.22607 0.86196 0.0
O174 O 0.13892 0.23765 0.9822 0.0
C175 C 0.10231 0.23212 0.66546 0.0
O176 O 0.09644 0.21402 0.69246 0.0
C177 C 0.12022 0.26037 0.16417 0.0
C178 C 0.12712 0.29226 0.20299 0.0
C179 C 0.1219 0.27276 0.23054 0.0
N180 N 0.12405 0.27213 0.10078 0.0
N181 N 0.12815 0.29116 0.1244 0.0
C182 C 0.11569 0.23765 0.16057 0.0
H183 H 0.09888 0.23509 0.16859 0.0
H184 H 0.12412 0.22935 0.20782 0.0
H185 H 0.11992 0.23109 0.10302 0.0
C186 C 0.0723 0.25504 0.87159 0.0
N187 N 0.09283 0.2554 0.88543 0.0
N188 N 0.09619 0.26259 0.95657 0.0
C189 C 0.0779 0.26747 0.98957 0.0
C190 C 0.06222 0.2627 0.9371 0.0
C191 C 0.06269 0.24843 0.7958 0.0
H192 H 0.06639 0.23191 0.78512 0.0
H193 H 0.04565 0.25048 0.79633 0.0
H194 H 0.0694 0.2576 0.74711 0.0
O195 O 0.13414 0.2742 0.81537 0.0
O196 O 0.13936 0.2861 0.93531 0.0
H197 H 0.08646 0.28958 0.07752 0.0
H198 H 0.05949 0.28226 0.07982 0.0
C199 C 0.07544 0.2766 0.0697 0.0
H200 H 0.07891 0.26462 0.11421 0.0
H201 H 0.13167 0.3034 0.0868 0.0
O202 O 0.10915 0.2459 0.71167 0.0
C203 C 0.14211 0.28738 0.86166 0.0
Co204 Co 0.7562 0.11313 0.83275 0.0
Co205 Co 0.73823 0.12216 0.00185 0.0
C206 C 0.78024 0.13807 0.94447 0.0
O207 O 0.77922 0.13 0.87626 0.0
O208 O 0.76569 0.13601 0.99421 0.0
C209 C 0.77371 0.10979 0.674 0.0
O210 O 0.79008 0.1199 0.69883 0.0
C211 C 0.7405 0.12476 0.17528 0.0
C212 C 0.70866 0.11637 0.2089 0.0
C213 C 0.72811 0.1204 0.23986 0.0
N214 N 0.72911 0.12252 0.1095 0.0
N215 N 0.70998 0.11797 0.13033 0.0
C216 C 0.76227 0.13256 0.17565 0.0
H217 H 0.76367 0.14557 0.13378 0.0
H218 H 0.7728 0.11994 0.15699 0.0
H219 H 0.76698 0.13842 0.2341 0.0
C220 C 0.75131 0.07005 0.88729 0.0
N221 N 0.74961 0.0906 0.89852 0.0
N222 N 0.74135 0.09413 0.96784 0.0
C223 C 0.7375 0.07579 0.00266 0.0
C224 C 0.74357 0.06004 0.9527 0.0
C225 C 0.75964 0.06036 0.81426 0.0
H226 H 0.74841 0.06275 0.7658 0.0
H227 H 0.77429 0.06812 0.79751 0.0
H228 H 0.7623 0.04352 0.82202 0.0
O229 O 0.73196 0.13073 0.82061 0.0
O230 O 0.7175 0.13735 0.93532 0.0
H231 H 0.71272 0.0787 0.08434 0.0
H232 H 0.72921 0.05675 0.10243 0.0
C233 C 0.72893 0.07317 0.08347 0.0
H234 H 0.73815 0.08243 0.12558 0.0
H235 H 0.69797 0.11521 0.0907 0.0
O236 O 0.75985 0.10435 0.72244 0.0
C237 C 0.71782 0.13913 0.86087 0.0
Co238 Co 0.89171 0.75267 0.82742 0.0
Co239 Co 0.88004 0.73605 0.99279 0.0
C240 C 0.86445 0.77719 0.92955 0.0
O241 O 0.87431 0.77581 0.86524 0.0
O242 O 0.86544 0.76296 0.98108 0.0
C243 C 0.88783 0.76256 0.67341 0.0
O244 O 0.86917 0.76605 0.70081 0.0
C245 C 0.87892 0.74104 0.1611 0.0
C246 C 0.8726 0.7095 0.20471 0.0
C247 C 0.876 0.7297 0.22838 0.0
N248 N 0.87739 0.72826 0.09941 0.0
N249 N 0.87358 0.70938 0.12567 0.0
C250 C 0.88403 0.76357 0.15624 0.0
H251 H 0.89051 0.76752 0.09798 0.0
H252 H 0.8953 0.76777 0.20281 0.0
H253 H 0.86977 0.77268 0.16668 0.0
C254 C 0.93404 0.74731 0.89174 0.0
N255 N 0.91332 0.74641 0.89815 0.0
N256 N 0.90845 0.73861 0.96691 0.0
C257 C 0.92597 0.73395 0.00607 0.0
C258 C 0.94273 0.73939 0.95989 0.0
C259 C 0.94509 0.75456 0.81985 0.0
H260 H 0.94146 0.74393 0.77055 0.0
H261 H 0.93936 0.77015 0.8034 0.0
H262 H 0.96209 0.75504 0.82875 0.0
O263 O 0.87408 0.72808 0.80987 0.0
O264 O 0.86619 0.71506 0.92607 0.0
H265 H 0.91612 0.71127 0.08962 0.0
H266 H 0.94247 0.71995 0.10361 0.0
C267 C 0.92664 0.7248 0.08668 0.0
H268 H 0.92127 0.7365 0.12953 0.0
H269 H 0.87167 0.69645 0.08972 0.0
O270 O 0.9022 0.75837 0.72168 0.0
C271 C 0.86512 0.71449 0.85153 0.0
Co272 Co 0.75586 0.61794 0.61178 0.0
Co273 Co 0.77335 0.62488 0.44309 0.0
C274 C 0.73182 0.64209 0.49842 0.0
O275 O 0.73259 0.63378 0.56613 0.0
O276 O 0.74655 0.63994 0.44964 0.0
C277 C 0.73831 0.60447 0.77065 0.0
O278 O 0.72058 0.59733 0.74437 0.0
C279 C 0.76934 0.62007 0.27243 0.0
C280 C 0.80074 0.62817 0.23213 0.0
C281 C 0.78134 0.62226 0.20527 0.0
N282 N 0.7812 0.62438 0.33537 0.0
N283 N 0.79996 0.62912 0.31085 0.0
C284 C 0.74684 0.6147 0.27726 0.0
H285 H 0.74059 0.61784 0.33627 0.0
H286 H 0.74479 0.59793 0.26598 0.0
H287 H 0.73792 0.62347 0.23262 0.0
C288 C 0.76198 0.57388 0.56614 0.0
N289 N 0.76261 0.59434 0.55126 0.0
N290 N 0.77088 0.59734 0.48167 0.0
C291 C 0.77617 0.57889 0.45082 0.0
C292 C 0.77057 0.56344 0.50304 0.0
C293 C 0.75425 0.56466 0.64096 0.0
H294 H 0.76258 0.57174 0.69117 0.0
H295 H 0.73758 0.56828 0.64735 0.0
H296 H 0.75645 0.54764 0.64241 0.0
O297 O 0.78025 0.63601 0.62001 0.0
O298 O 0.79454 0.64054 0.50356 0.0
H299 H 0.79898 0.58736 0.36568 0.0
H300 H 0.79225 0.5602 0.36449 0.0
C301 C 0.78618 0.57609 0.37245 0.0
H302 H 0.7746 0.57902 0.32582 0.0
H303 H 0.81217 0.63324 0.34784 0.0
O304 O 0.75161 0.61175 0.72352 0.0
C305 C 0.79438 0.64365 0.57727 0.0
Co306 Co 0.3877 0.75441 0.65839 0.0
Co307 Co 0.38186 0.7718 0.48803 0.0
C308 C 0.36359 0.73079 0.54101 0.0
O309 O 0.37092 0.73189 0.61037 0.0
O310 O 0.36675 0.74507 0.49092 0.0
C311 C 0.3829 0.73874 0.8132 0.0
O312 O 0.36639 0.72995 0.7829 0.0
C313 C 0.38644 0.76812 0.3186 0.0
C314 C 0.38263 0.80029 0.27756 0.0
C315 C 0.38636 0.7803 0.25172 0.0
N316 N 0.38283 0.78029 0.38098 0.0
N317 N 0.38048 0.79951 0.3561 0.0
C318 C 0.39172 0.74563 0.32427 0.0
H319 H 0.39704 0.7417 0.38437 0.0
H320 H 0.40391 0.74158 0.28117 0.0
H321 H 0.37778 0.73634 0.3105 0.0
C322 C 0.43178 0.75869 0.61433 0.0
N323 N 0.41146 0.76037 0.59815 0.0
N324 N 0.40912 0.7682 0.52739 0.0
C325 C 0.42795 0.77179 0.49647 0.0
C326 C 0.44283 0.76581 0.55033 0.0
C327 C 0.44031 0.75047 0.6897 0.0
H328 H 0.43676 0.76155 0.73756 0.0
H329 H 0.43264 0.73559 0.70408 0.0
H330 H 0.4573 0.7482 0.6864 0.0
O331 O 0.37059 0.77942 0.66876 0.0
O332 O 0.36642 0.79289 0.55027 0.0
H333 H 0.42127 0.79463 0.40887 0.0
H334 H 0.44803 0.78655 0.41194 0.0
C335 C 0.43177 0.78129 0.4178 0.0
H336 H 0.42862 0.76964 0.37156 0.0
H337 H 0.37765 0.81212 0.3928 0.0
O338 O 0.39526 0.74837 0.76837 0.0
C339 C 0.36332 0.79337 0.62404 0.0
Co340 Co 0.25307 0.38888 0.6526 0.0
Co341 Co 0.23796 0.38039 0.48109 0.0
C342 C 0.27899 0.3647 0.54254 0.0
O343 O 0.27647 0.37279 0.60995 0.0
O344 O 0.26539 0.36655 0.48881 0.0
C345 C 0.27048 0.38703 0.80594 0.0
O346 O 0.28182 0.37231 0.7749 0.0
C347 C 0.24205 0.3839 0.31174 0.0
C348 C 0.21003 0.37905 0.27018 0.0
C349 C 0.22988 0.38353 0.24467 0.0
N350 N 0.22994 0.37993 0.37381 0.0
N351 N 0.21085 0.37683 0.34864 0.0
C352 C 0.26432 0.38999 0.31838 0.0
H353 H 0.26768 0.39617 0.3778 0.0
H354 H 0.26832 0.40178 0.27358 0.0
H355 H 0.27412 0.37615 0.30868 0.0
C356 C 0.24736 0.43228 0.60079 0.0
N357 N 0.24673 0.41174 0.58795 0.0
N358 N 0.23945 0.40822 0.51702 0.0
C359 C 0.23473 0.42648 0.48317 0.0
C360 C 0.23971 0.44227 0.5349 0.0
C361 C 0.25445 0.44194 0.6759 0.0
H362 H 0.26995 0.43581 0.69157 0.0
H363 H 0.25507 0.45906 0.67159 0.0
H364 H 0.24366 0.4375 0.72351 0.0
O365 O 0.22876 0.3706 0.66265 0.0
O366 O 0.21731 0.36444 0.54233 0.0
H367 H 0.22033 0.44482 0.39149 0.0
H368 H 0.23811 0.42536 0.35874 0.0
C369 C 0.22594 0.42886 0.40238 0.0
H370 H 0.21298 0.41786 0.39397 0.0
H371 H 0.19831 0.37372 0.38519 0.0
O372 O 0.25847 0.39744 0.76198 0.0
C373 C 0.21593 0.36204 0.61626 0.0
Co374 Co 0.61458 0.26158 0.69007 0.0
Co375 Co 0.62441 0.23957 0.52835 0.0
C376 C 0.64157 0.28189 0.57554 0.0
O377 O 0.63265 0.28303 0.64187 0.0
O378 O 0.63941 0.26615 0.53163 0.0
C379 C 0.59691 0.27743 0.8587 0.0
O380 O 0.58351 0.29264 0.86443 0.0
C381 C 0.61671 0.24403 0.36174 0.0
C382 C 0.62986 0.21606 0.30704 0.0
C383 C 0.61928 0.23421 0.28995 0.0
N384 N 0.62494 0.23215 0.41866 0.0
N385 N 0.63292 0.21547 0.38553 0.0
C386 C 0.60739 0.26496 0.37582 0.0
H387 H 0.61208 0.27126 0.4334 0.0
H388 H 0.5903 0.26382 0.37596 0.0
H389 H 0.61195 0.27584 0.32855 0.0
C390 C 0.57172 0.25581 0.62943 0.0
N391 N 0.59241 0.25404 0.62226 0.0
N392 N 0.59654 0.243 0.55934 0.0
C393 C 0.57865 0.23651 0.52687 0.0
C394 C 0.56237 0.24471 0.56934 0.0
C395 C 0.56122 0.26691 0.69517 0.0
H396 H 0.56366 0.25811 0.75028 0.0
H397 H 0.56827 0.28244 0.70278 0.0
H398 H 0.54436 0.26848 0.68458 0.0
O399 O 0.63128 0.2366 0.71382 0.0
O400 O 0.6383 0.21997 0.60226 0.0
H401 H 0.59133 0.2128 0.45224 0.0
H402 H 0.56374 0.21166 0.46349 0.0
C403 C 0.57712 0.22224 0.45778 0.0
H404 H 0.57475 0.23139 0.40357 0.0
H405 H 0.64036 0.20366 0.41634 0.0
O406 O 0.6031 0.27218 0.79075 0.0
C407 C 0.63954 0.22153 0.67704 0.0
Co408 Co 0.75288 0.38356 0.35294 0.0
Co409 Co 0.77292 0.38198 0.5182 0.0
C410 C 0.73111 0.36229 0.47876 0.0
O411 O 0.73071 0.36853 0.408 0.0
O412 O 0.74648 0.36616 0.52312 0.0
C413 C 0.73486 0.39251 0.18803 0.0
O414 O 0.71871 0.40378 0.20656 0.0
C415 C 0.76727 0.39336 0.67943 0.0
C416 C 0.79596 0.38288 0.73754 0.0
C417 C 0.77685 0.39188 0.75168 0.0
N418 N 0.78016 0.38584 0.6248 0.0
N419 N 0.7974 0.37977 0.65956 0.0
C420 C 0.7454 0.39975 0.66332 0.0
H421 H 0.74205 0.39967 0.59958 0.0
H422 H 0.74259 0.41556 0.68604 0.0
H423 H 0.73466 0.38911 0.69405 0.0
C424 C 0.75605 0.42908 0.38249 0.0
N425 N 0.7592 0.40912 0.40195 0.0
N426 N 0.76904 0.40834 0.4696 0.0
C427 C 0.773 0.42781 0.49403 0.0
C428 C 0.76461 0.44156 0.44025 0.0
C429 C 0.74515 0.43608 0.30987 0.0
H430 H 0.75203 0.4283 0.25822 0.0
H431 H 0.72863 0.4316 0.31371 0.0
H432 H 0.74627 0.45309 0.30202 0.0
O433 O 0.7781 0.36648 0.34826 0.0
O434 O 0.79428 0.36532 0.4626 0.0
H435 H 0.79538 0.4213 0.58417 0.0
H436 H 0.7915 0.44843 0.56545 0.0
C437 C 0.78371 0.43321 0.56927 0.0
H438 H 0.77214 0.43417 0.61695 0.0
H439 H 0.80979 0.37284 0.63055 0.0
O440 O 0.74698 0.38568 0.24046 0.0
C441 C 0.79317 0.36046 0.39033 0.0
Co442 Co 0.61866 0.75105 0.34083 0.0
Co443 Co 0.62345 0.76568 0.51401 0.0
C444 C 0.64231 0.72577 0.45554 0.0
O445 O 0.63535 0.72811 0.38602 0.0
O446 O 0.63886 0.7391 0.50906 0.0
C447 C 0.60855 0.73223 0.18272 0.0
O448 O 0.60609 0.7133 0.20912 0.0
C449 C 0.62405 0.76414 0.6862 0.0
C450 C 0.61286 0.79544 0.71653 0.0
C451 C 0.61842 0.77658 0.74885 0.0
N452 N 0.62132 0.77494 0.61969 0.0
N453 N 0.61491 0.79373 0.63828 0.0
C454 C 0.63301 0.74281 0.6889 0.0
H455 H 0.64735 0.74249 0.65347 0.0
H456 H 0.62182 0.73173 0.66283 0.0
H457 H 0.63702 0.73795 0.74936 0.0
C458 C 0.57413 0.7538 0.38156 0.0
N459 N 0.59434 0.75599 0.39898 0.0
N460 N 0.59629 0.76152 0.47286 0.0
C461 C 0.57735 0.76227 0.50573 0.0
C462 C 0.56263 0.75765 0.44879 0.0
C463 C 0.56614 0.74874 0.30136 0.0
H464 H 0.57486 0.75767 0.25685 0.0
H465 H 0.56857 0.73203 0.28966 0.0
H466 H 0.54946 0.75242 0.29551 0.0
O467 O 0.63554 0.77605 0.33544 0.0
O468 O 0.63904 0.7877 0.45645 0.0
H469 H 0.57505 0.78145 0.60751 0.0
H470 H 0.55802 0.75934 0.609 0.0
C471 C 0.5736 0.76486 0.59183 0.0
H472 H 0.58519 0.75589 0.62545 0.0
H473 H 0.6114 0.80521 0.59732 0.0
O474 O 0.61283 0.74685 0.22955 0.0
C475 C 0.64252 0.78934 0.38329 0.0
Co476 Co 0.25637 0.62038 0.35242 0.0
Co477 Co 0.23724 0.62311 0.51803 0.0
C478 C 0.27785 0.64405 0.47361 0.0
O479 O 0.27802 0.63691 0.40413 0.0
O480 O 0.263 0.64009 0.52003 0.0
C481 C 0.27471 0.61065 0.18907 0.0
O482 O 0.29081 0.59936 0.20828 0.0
C483 C 0.24356 0.61309 0.67969 0.0
C484 C 0.21429 0.62192 0.73706 0.0
C485 C 0.23381 0.61386 0.75143 0.0
N486 N 0.23037 0.61998 0.62486 0.0
N487 N 0.2128 0.62515 0.65914 0.0
C488 C 0.2657 0.60764 0.66404 0.0
H489 H 0.2688 0.60696 0.60021 0.0
H490 H 0.26954 0.59244 0.69029 0.0
H491 H 0.27589 0.61941 0.69163 0.0
C492 C 0.2546 0.57501 0.38824 0.0
N493 N 0.25123 0.59511 0.4052 0.0
N494 N 0.24177 0.59638 0.47332 0.0
C495 C 0.23823 0.5771 0.50056 0.0
C496 C 0.24653 0.56298 0.44816 0.0
C497 C 0.26505 0.56747 0.31563 0.0
H498 H 0.25795 0.57496 0.26367 0.0
H499 H 0.28161 0.57186 0.31806 0.0
H500 H 0.26379 0.55042 0.30955 0.0
O501 O 0.23049 0.63648 0.34544 0.0
O502 O 0.21515 0.63828 0.46104 0.0
H503 H 0.2158 0.58396 0.58976 0.0
H504 H 0.22049 0.55679 0.5759 0.0
C505 C 0.22783 0.57226 0.5768 0.0
H506 H 0.23951 0.57223 0.62444 0.0
H507 H 0.20005 0.63131 0.62972 0.0
O508 O 0.26258 0.61764 0.2409 0.0
C509 C 0.21553 0.6424 0.38804 0.0
Co510 Co 0.39411 0.26371 0.29005 0.0
Co511 Co 0.38293 0.24569 0.45723 0.0
C512 C 0.36525 0.28595 0.39598 0.0
O513 O 0.37468 0.28477 0.33075 0.0
O514 O 0.36738 0.27209 0.44838 0.0
C515 C 0.41231 0.27979 0.12417 0.0
O516 O 0.42584 0.2948 0.1157 0.0
C517 C 0.38521 0.25024 0.62622 0.0
C518 C 0.38002 0.21884 0.67284 0.0
C519 C 0.38507 0.23885 0.69527 0.0
N520 N 0.38082 0.2376 0.56582 0.0
N521 N 0.37735 0.21887 0.59416 0.0
C522 C 0.38936 0.27292 0.61681 0.0
H523 H 0.37435 0.28116 0.61634 0.0
H524 H 0.39719 0.27594 0.56013 0.0
H525 H 0.39866 0.27937 0.6656 0.0
C526 C 0.4363 0.26093 0.35765 0.0
N527 N 0.41569 0.25817 0.36273 0.0
N528 N 0.4113 0.24963 0.43074 0.0
C529 C 0.42912 0.24614 0.47003 0.0
C530 C 0.4455 0.25349 0.42556 0.0
C531 C 0.44699 0.26988 0.28773 0.0
H532 H 0.44139 0.2859 0.27785 0.0
H533 H 0.46404 0.27001 0.29501 0.0
H534 H 0.44305 0.26056 0.23517 0.0
O535 O 0.37849 0.2381 0.26679 0.0
O536 O 0.37011 0.22516 0.38379 0.0
H537 H 0.4459 0.23081 0.56408 0.0
H538 H 0.4271 0.24936 0.59352 0.0
C539 C 0.43038 0.23703 0.5505 0.0
H540 H 0.4189 0.22443 0.55692 0.0
H541 H 0.37405 0.20594 0.55963 0.0
O542 O 0.40652 0.27523 0.19319 0.0
C543 C 0.36967 0.22436 0.30878 0.0
H544 H 0.23688 0.134 0.70643 0.0
H545 H 0.29492 0.10232 0.67406 0.0
H546 H 0.28622 0.09577 0.53675 0.0
H547 H 0.26313 0.10091 0.42428 0.0
H548 H 0.20578 0.13403 0.45493 0.0
H549 H 0.21285 0.13751 0.59524 0.0
C550 C 0.24739 0.12524 0.66988 0.0
C551 C 0.2664 0.11842 0.70063 0.0
C552 C 0.24237 0.12172 0.59074 0.0
C553 C 0.2802 0.10774 0.65165 0.0
C554 C 0.2752 0.10392 0.57325 0.0
C555 C 0.25196 0.10852 0.46187 0.0
C556 C 0.23393 0.11716 0.4292 0.0
C557 C 0.25644 0.11105 0.54193 0.0
C558 C 0.21978 0.12723 0.47864 0.0
C559 C 0.22386 0.12933 0.5588 0.0
H560 H 0.90511 0.25918 0.64547 0.0
H561 H 0.84569 0.28943 0.64628 0.0
H562 H 0.83983 0.27896 0.51038 0.0
H563 H 0.85165 0.26165 0.39167 0.0
H564 H 0.91175 0.23274 0.38629 0.0
H565 H 0.91712 0.24172 0.52467 0.0
C566 C 0.89075 0.26311 0.61621 0.0
C567 C 0.87567 0.27471 0.65603 0.0
C568 C 0.88758 0.25716 0.53772 0.0
C569 C 0.85748 0.28046 0.61664 0.0
C570 C 0.85408 0.2744 0.53919 0.0
C571 C 0.86582 0.257 0.42094 0.0
C572 C 0.88117 0.24627 0.37914 0.0
C573 C 0.869 0.26273 0.49928 0.0
C574 C 0.89964 0.24085 0.41749 0.0
C575 C 0.90274 0.24606 0.49641 0.0
H576 H 0.7448 0.87813 0.40765 0.0
H577 H 0.79723 0.91723 0.45919 0.0
H578 H 0.78864 0.91597 0.59941 0.0
H579 H 0.76557 0.90427 0.70522 0.0
H580 H 0.71471 0.86328 0.6512 0.0
H581 H 0.72299 0.86544 0.5123 0.0
C582 C 0.75438 0.8865 0.44929 0.0
C583 C 0.77155 0.89792 0.42317 0.0
C584 C 0.74954 0.88544 0.52886 0.0
C585 C 0.78394 0.90835 0.47807 0.0
C586 C 0.77899 0.90765 0.55798 0.0
C587 C 0.75669 0.89525 0.66381 0.0
C588 C 0.73987 0.88314 0.68923 0.0
C589 C 0.76182 0.8962 0.58395 0.0
C590 C 0.7278 0.87261 0.63342 0.0
C591 C 0.73255 0.87377 0.554 0.0
H592 H 0.08504 0.77493 0.44682 0.0
H593 H 0.14573 0.75468 0.37565 0.0
H594 H 0.15193 0.73992 0.50496 0.0
H595 H 0.13952 0.73112 0.63594 0.0
H596 H 0.07849 0.7498 0.70748 0.0
H597 H 0.07288 0.76675 0.58074 0.0
C598 C 0.09974 0.76768 0.46055 0.0
C599 C 0.11493 0.76593 0.40242 0.0
C600 C 0.10301 0.7587 0.53461 0.0
C601 C 0.13382 0.75618 0.4199 0.0
C602 C 0.13735 0.74764 0.49355 0.0
C603 C 0.12499 0.73886 0.62338 0.0
C604 C 0.10953 0.7395 0.68052 0.0
C605 C 0.12191 0.74844 0.55073 0.0
C606 C 0.09077 0.74958 0.66446 0.0
C607 C 0.08753 0.75917 0.59203 0.0
H608 H 0.24444 0.90894 0.32373 0.0
H609 H 0.29392 0.86612 0.37528 0.0
H610 H 0.2845 0.86656 0.5133 0.0
H611 H 0.26214 0.87844 0.61828 0.0
H612 H 0.21124 0.91959 0.5681 0.0
H613 H 0.2208 0.91972 0.42886 0.0
C614 C 0.25279 0.89915 0.36408 0.0
C615 C 0.26957 0.88707 0.33806 0.0
C616 C 0.24699 0.89911 0.44347 0.0
C617 C 0.2809 0.87551 0.39325 0.0
C618 C 0.27547 0.87566 0.47225 0.0
C619 C 0.25308 0.88749 0.57708 0.0
C620 C 0.23606 0.8991 0.60351 0.0
C621 C 0.25854 0.88734 0.49781 0.0
C622 C 0.22438 0.91051 0.54911 0.0
C623 C 0.2299 0.91063 0.46969 0.0
H624 H 0.12545 0.26121 0.59565 0.0
H625 H 0.08132 0.21286 0.54501 0.0
H626 H 0.08305 0.22146 0.40481 0.0
H627 H 0.0966 0.24347 0.29872 0.0
H628 H 0.14232 0.29019 0.35207 0.0
H629 H 0.13983 0.28188 0.49082 0.0
C630 C 0.11609 0.25252 0.55422 0.0
C631 C 0.10313 0.23651 0.58062 0.0
C632 C 0.11737 0.25736 0.47465 0.0
C633 C 0.0914 0.22525 0.52595 0.0
C634 C 0.09237 0.2302 0.44603 0.0
C635 C 0.10651 0.25141 0.33995 0.0
C636 C 0.12005 0.2671 0.31433 0.0
C637 C 0.10533 0.24625 0.41981 0.0
C638 C 0.13184 0.278 0.36995 0.0
C639 C 0.1305 0.27322 0.44931 0.0
H640 H 0.73656 0.11711 0.60865 0.0
H641 H 0.79967 0.10229 0.55054 0.0
H642 H 0.79095 0.10323 0.41024 0.0
H643 H 0.76518 0.10823 0.30525 0.0
H644 H 0.70323 0.12741 0.36498 0.0
H645 H 0.71151 0.12412 0.50412 0.0
C646 C 0.74837 0.11388 0.56522 0.0
C647 C 0.76866 0.1093 0.58954 0.0
C648 C 0.74342 0.11528 0.48529 0.0
C649 C 0.78393 0.10568 0.53291 0.0
C650 C 0.77893 0.10626 0.45293 0.0
C651 C 0.75368 0.11249 0.34835 0.0
C652 C 0.73378 0.11884 0.32424 0.0
C653 C 0.75875 0.11124 0.42846 0.0
C654 C 0.71873 0.12278 0.38165 0.0
C655 C 0.72345 0.12092 0.46129 0.0
H656 H 0.86024 0.76987 0.55737 0.0
H657 H 0.92142 0.74557 0.60017 0.0
H658 H 0.92312 0.73301 0.46518 0.0
H659 H 0.90607 0.72674 0.33744 0.0
H660 H 0.84523 0.75144 0.29519 0.0
H661 H 0.84433 0.76584 0.42812 0.0
C662 C 0.87407 0.76207 0.53696 0.0
C663 C 0.89059 0.75851 0.5889 0.0
C664 C 0.87481 0.75462 0.45992 0.0
C665 C 0.90847 0.74853 0.56133 0.0
C666 C 0.9094 0.74117 0.48436 0.0
C667 C 0.89266 0.73521 0.35805 0.0
C668 C 0.87555 0.73778 0.30849 0.0
C669 C 0.89245 0.74368 0.43381 0.0
C670 C 0.85836 0.74911 0.3338 0.0
C671 C 0.85792 0.7574 0.40926 0.0
H672 H 0.75191 0.59698 0.13618 0.0
H673 H 0.7979 0.64345 0.08393 0.0
H674 H 0.78872 0.64177 0.94566 0.0
H675 H 0.76751 0.62781 0.84058 0.0
H676 H 0.71999 0.58286 0.89105 0.0
H677 H 0.7294 0.5839 0.03057 0.0
C678 C 0.75952 0.60724 0.09549 0.0
C679 C 0.77525 0.62073 0.12143 0.0
C680 C 0.75386 0.60652 0.01587 0.0
C681 C 0.78569 0.63296 0.06602 0.0
C682 C 0.7804 0.6321 0.98685 0.0
C683 C 0.75916 0.61817 0.88188 0.0
C684 C 0.74313 0.60516 0.85543 0.0
C685 C 0.7645 0.619 0.96132 0.0
C686 C 0.73237 0.59301 0.91 0.0
C687 C 0.73779 0.59357 0.98961 0.0
H688 H 0.37077 0.74635 0.17792 0.0
H689 H 0.40854 0.80042 0.14049 0.0
H690 H 0.41282 0.79096 0.00253 0.0
H691 H 0.40415 0.76846 0.89155 0.0
H692 H 0.36466 0.71548 0.92728 0.0
H693 H 0.36327 0.72297 0.06781 0.0
C694 C 0.38035 0.75577 0.14006 0.0
C695 C 0.38962 0.77388 0.16947 0.0
C696 C 0.38246 0.7504 0.06069 0.0
C697 C 0.40131 0.78639 0.11899 0.0
C698 C 0.4038 0.78096 0.0403 0.0
C699 C 0.39556 0.75831 0.93025 0.0
C700 C 0.38457 0.74138 0.89911 0.0
C701 C 0.39425 0.76312 0.01034 0.0
C702 C 0.37325 0.72858 0.9499 0.0
C703 C 0.37238 0.73292 0.03014 0.0
H704 H 0.26508 0.37177 0.16925 0.0
H705 H 0.20772 0.4047 0.1361 0.0
H706 H 0.21646 0.41093 -0.00121 0.0
H707 H 0.23929 0.40513 0.88685 0.0
H708 H 0.29595 0.37078 0.91808 0.0
H709 H 0.28897 0.36765 0.05844 0.0
C710 C 0.25474 0.38073 0.1325 0.0
C711 C 0.23591 0.38799 0.16289 0.0
C712 C 0.25978 0.38406 0.05346 0.0
C713 C 0.22231 0.39894 0.11382 0.0
C714 C 0.22732 0.40257 0.03549 0.0
C715 C 0.25033 0.39729 0.9245 0.0
C716 C 0.26811 0.38817 0.89204 0.0
C717 C 0.24589 0.39498 0.00447 0.0
C718 C 0.28213 0.3779 0.94163 0.0
C719 C 0.2781 0.37602 0.02179 0.0
H720 H 0.63902 0.2321 0.14807 0.0
H721 H 0.58165 0.25077 0.25538 0.0
H722 H 0.56997 0.26571 0.13231 0.0
H723 H 0.57638 0.27489 0.99582 0.0
H724 H 0.63243 0.25488 0.88256 0.0
H725 H 0.64411 0.23869 0.00522 0.0
C726 C 0.62393 0.23934 0.14412 0.0
C727 C 0.61164 0.24118 0.21198 0.0
C728 C 0.61704 0.24761 0.07195 0.0
C729 C 0.59193 0.25017 0.20554 0.0
C730 C 0.58508 0.25848 0.1347 0.0
C731 C 0.59116 0.26696 -0.0022 0.0
C732 C 0.60362 0.26627 0.93043 0.0
C733 C 0.59765 0.25766 0.06802 0.0
C734 C 0.62254 0.2556 0.93367 0.0
C735 C 0.62926 0.24643 0.00391 0.0
H736 H 0.73144 0.41856 0.0631 0.0
H737 H 0.75201 0.35767 0.13139 0.0
H738 H 0.76696 0.35216 0.00206 0.0
H739 H 0.77583 0.36523 0.87201 0.0
H740 H 0.75694 0.42656 0.8037 0.0
H741 H 0.73976 0.43143 0.93018 0.0
C742 C 0.7388 0.40396 0.04873 0.0
C743 C 0.74055 0.3885 0.10607 0.0
C744 C 0.74791 0.4011 0.97472 0.0
C745 C 0.75048 0.36977 0.08776 0.0
C746 C 0.75913 0.36664 0.0141 0.0
C747 C 0.768 0.37967 0.88516 0.0
C748 C 0.76737 0.39541 0.82888 0.0
C749 C 0.7583 0.38234 0.95776 0.0
C750 C 0.75716 0.41405 0.84587 0.0
C751 C 0.74744 0.41686 0.91821 0.0
H752 H 0.61968 0.76818 0.11495 0.0
H753 H 0.59662 0.70712 0.06005 0.0
H754 H 0.59712 0.71571 0.91989 0.0
H755 H 0.60432 0.74072 0.81387 0.0
H756 H 0.62883 0.80096 0.87153 0.0
H757 H 0.62708 0.79264 0.01107 0.0
C758 C 0.61465 0.75667 0.07268 0.0
C759 C 0.60809 0.737 0.09798 0.0
C760 C 0.61525 0.7616 0.99302 0.0
C761 C 0.60176 0.72235 0.04207 0.0
C762 C 0.60205 0.72726 0.96208 0.0
C763 C 0.60972 0.75182 0.857 0.0
C764 C 0.6173 0.7712 0.8327 0.0
C765 C 0.60892 0.7468 0.93698 0.0
C766 C 0.6232 0.78586 0.88908 0.0
C767 C 0.62223 0.78111 0.96865 0.0
H768 H 0.27812 0.58509 0.06277 0.0
H769 H 0.25858 0.64609 0.1337 0.0
H770 H 0.24406 0.65244 0.00403 0.0
H771 H 0.23511 0.64003 0.87299 0.0
H772 H 0.25318 0.57875 0.80138 0.0
H773 H 0.27 0.57299 0.92844 0.0
C774 C 0.27108 0.59988 0.0489 0.0
C775 C 0.26944 0.61512 0.10707 0.0
C776 C 0.26225 0.60325 0.97461 0.0
C777 C 0.25998 0.63414 0.0894 0.0
C778 C 0.25158 0.63776 0.01556 0.0
C779 C 0.2427 0.62542 0.88561 0.0
C780 C 0.24316 0.60991 0.8285 0.0
C781 C 0.25222 0.62228 0.95836 0.0
C782 C 0.25306 0.59104 0.84454 0.0
C783 C 0.26258 0.58773 0.9171 0.0
H784 H 0.43134 0.27724 0.98489 0.0
H785 H 0.37662 0.25685 0.10627 0.0
H786 H 0.36347 0.2412 0.98451 0.0
H787 H 0.3668 0.23558 0.8398 0.0
H788 H 0.42262 0.25553 0.72456 0.0
H789 H 0.43606 0.26908 0.84725 0.0
C790 C 0.41654 0.26933 0.98498 0.0
C791 C 0.40483 0.26847 0.0541 0.0
C792 C 0.4092 0.26046 0.91538 0.0
C793 C 0.38589 0.25778 0.05358 0.0
C794 C 0.37835 0.24892 0.9839 0.0
C795 C 0.38192 0.24282 0.8421 0.0
C796 C 0.39338 0.24529 0.77256 0.0
C797 C 0.38972 0.2505 0.91389 0.0
C798 C 0.41316 0.25418 0.77644 0.0
C799 C 0.42094 0.26182 0.84681 0.0
H800 H 0.31552 0.16697 0.08965 0.0
H801 H 0.29413 0.14549 0.31524 0.0
H802 H 0.31896 0.16778 0.38114 0.0
H803 H 0.34517 0.19501 0.37587 0.0
H804 H 0.36633 0.21718 0.15101 0.0
H805 H 0.34339 0.19292 0.08438 0.0
C806 C 0.31641 0.16704 0.15317 0.0
C807 C 0.30279 0.15468 0.19713 0.0
C808 C 0.33067 0.1801 0.19121 0.0
C809 C 0.30424 0.15494 0.27958 0.0
C810 C 0.31848 0.1677 0.31759 0.0
C811 C 0.34496 0.19441 0.3123 0.0
C812 C 0.35738 0.20806 0.26882 0.0
C813 C 0.33153 0.18059 0.27411 0.0
C814 C 0.35687 0.20697 0.1863 0.0
C815 C 0.34371 0.1931 0.14794 0.0
H816 H 0.80141 0.35792 0.23538 0.0
H817 H 0.82108 0.33409 0.45994 0.0
H818 H 0.84536 0.31072 0.39407 0.0
H819 H 0.85941 0.29588 0.27235 0.0
H820 H 0.83974 0.32026 0.04833 0.0
H821 H 0.81703 0.34478 0.11484 0.0
C822 C 0.81106 0.34768 0.27016 0.0
C823 C 0.80928 0.34758 0.35252 0.0
C824 C 0.82492 0.33441 0.232 0.0
C825 C 0.82214 0.33446 0.39656 0.0
C826 C 0.83595 0.32106 0.35887 0.0
C827 C 0.85027 0.30664 0.23791 0.0
C828 C 0.85118 0.30609 0.15521 0.0
C829 C 0.83724 0.32072 0.27656 0.0
C830 C 0.83935 0.3203 0.11183 0.0
C831 C 0.82631 0.33429 0.14985 0.0
H832 H 0.64732 0.80026 0.23095 0.0
H833 H 0.66736 0.81633 0.46497 0.0
H834 H 0.69168 0.84154 0.41061 0.0
H835 H 0.70888 0.85703 0.29653 0.0
H836 H 0.68896 0.84047 0.06273 0.0
H837 H 0.66279 0.81743 0.1176 0.0
C838 C 0.6569 0.80934 0.27035 0.0
C839 C 0.65568 0.80622 0.35203 0.0
C840 C 0.67091 0.82362 0.23874 0.0
C841 C 0.66802 0.81836 0.40197 0.0
C842 C 0.68198 0.83272 0.37087 0.0
C843 C 0.69874 0.8485 0.25738 0.0
C844 C 0.70106 0.85034 0.17543 0.0
C845 C 0.68382 0.83517 0.28931 0.0
C846 C 0.6876 0.83931 0.12588 0.0
C847 C 0.67266 0.82609 0.15723 0.0
H848 H 0.20718 0.64572 0.23261 0.0
H849 H 0.18646 0.66681 0.45953 0.0
H850 H 0.16125 0.68959 0.39612 0.0
H851 H 0.14679 0.70502 0.2766 0.0
H852 H 0.16733 0.68376 0.04966 0.0
H853 H 0.19091 0.6593 0.11315 0.0
C854 C 0.19708 0.65521 0.26839 0.0
C855 C 0.19887 0.65474 0.35081 0.0
C856 C 0.18267 0.66823 0.23158 0.0
C857 C 0.18545 0.6669 0.39611 0.0
C858 C 0.17108 0.67998 0.35985 0.0
C859 C 0.15633 0.69496 0.24083 0.0
C860 C 0.15547 0.69639 0.15836 0.0
C861 C 0.16983 0.681 0.27768 0.0
C862 C 0.16771 0.68301 0.11311 0.0
C863 C 0.18125 0.66909 0.14941 0.0
H864 H 0.35971 0.80266 0.77867 0.0
H865 H 0.33789 0.8211 0.54952 0.0
H866 H 0.3143 0.84596 0.61008 0.0
H867 H 0.29838 0.86068 0.72794 0.0
H868 H 0.32018 0.84218 0.95707 0.0
H869 H 0.34548 0.81915 0.8962 0.0
C870 C 0.34988 0.81218 0.74174 0.0
C871 C 0.35041 0.80984 0.65956 0.0
C872 C 0.33634 0.82636 0.77692 0.0
C873 C 0.33777 0.82252 0.61281 0.0
C874 C 0.32423 0.83669 0.64744 0.0
C875 C 0.30874 0.85172 0.76477 0.0
C876 C 0.30721 0.853 0.84713 0.0
C877 C 0.32315 0.83846 0.72943 0.0
C878 C 0.32096 0.84147 0.89368 0.0
C879 C 0.33538 0.82824 0.85889 0.0
H880 H 0.14801 0.29638 0.70769 0.0
H881 H 0.16616 0.31546 0.94072 0.0
H882 H 0.1899 0.34089 0.88485 0.0
H883 H 0.20669 0.35639 0.77029 0.0
H884 H 0.1886 0.33716 0.53734 0.0
H885 H 0.16351 0.31309 0.59318 0.0
C886 C 0.15707 0.30614 0.74648 0.0
C887 C 0.1554 0.30386 0.82842 0.0
C888 C 0.17074 0.32064 0.71403 0.0
C889 C 0.16715 0.31682 0.87753 0.0
C890 C 0.18077 0.33133 0.84561 0.0
C891 C 0.19722 0.34702 0.73153 0.0
C892 C 0.19968 0.34849 0.64962 0.0
C893 C 0.18288 0.33317 0.76399 0.0
C894 C 0.1871 0.33633 0.60051 0.0
C895 C 0.17277 0.32253 0.63241 0.0
H896 H 0.69042 0.16758 0.91954 0.0
H897 H 0.70985 0.13818 0.70449 0.0
H898 H 0.68671 0.16015 0.62927 0.0
H899 H 0.66252 0.18918 0.62255 0.0
H900 H 0.64316 0.21909 0.83659 0.0
H901 H 0.66449 0.19553 0.91327 0.0
C902 C 0.68939 0.16585 0.85639 0.0
C903 C 0.70203 0.15137 0.81801 0.0
C904 C 0.67613 0.17876 0.81274 0.0
C905 C 0.7005 0.14934 0.73587 0.0
C906 C 0.68724 0.16191 0.69247 0.0
C907 C 0.66282 0.19047 0.68596 0.0
C908 C 0.65138 0.20607 0.72329 0.0
C909 C 0.67525 0.17693 0.73003 0.0
C910 C 0.65195 0.20739 0.80581 0.0
C911 C 0.66415 0.19388 0.85001 0.0
H912 H 0.802 0.64707 0.733 0.0
H913 H 0.8228 0.66936 0.50784 0.0
H914 H 0.84731 0.69255 0.57334 0.0
H915 H 0.86137 0.7077 0.69447 0.0
H916 H 0.84025 0.68526 0.91917 0.0
H917 H 0.81732 0.66075 0.85335 0.0
C918 C 0.81193 0.65693 0.69795 0.0
C919 C 0.8104 0.65661 0.6155 0.0
C920 C 0.82587 0.6702 0.73589 0.0
C921 C 0.8236 0.66932 0.57129 0.0
C922 C 0.83758 0.68262 0.60875 0.0
C923 C 0.85186 0.69737 0.72923 0.0
C924 C 0.85245 0.69846 0.81184 0.0
C925 C 0.83862 0.68338 0.69102 0.0
C926 C 0.8401 0.68483 0.85567 0.0
C927 C 0.82694 0.67083 0.81806 0.0
H928 H 0.23149 0.03558 0.03544 0.0
H929 H 0.2974 0.04198 0.06211 0.0
H930 H 0.30224 0.00547 0.02752 0.0
H931 H 0.2876 0.97187 0.98805 0.0
H932 H 0.22168 0.96531 0.96138 0.0
H933 H 0.21681 1.00184 0.99557 0.0
C934 C 0.24683 0.0288 0.03425 0.0
C935 C 0.26409 0.04112 0.05168 0.0
C936 C 0.24945 0.00795 0.01327 0.0
C937 C 0.28397 0.03252 0.04926 0.0
C938 C 0.28672 0.01176 0.02917 0.0
C939 C 0.2722 0.97852 0.99002 0.0
C940 C 0.255 0.96609 0.97291 0.0
C941 C 0.26958 0.99936 0.0107 0.0
C942 C 0.23511 0.97476 0.97422 0.0
C943 C 0.23234 0.99554 0.99425 0.0
H944 H 0.03373 0.23262 0.9544 0.0
H945 H 0.04116 0.2988 0.94774 0.0
H946 H 0.00423 0.30349 0.97491 0.0
H947 H 0.96997 0.28857 0.00341 0.0
H948 H 0.96268 0.22239 0.01335 0.0
H949 H 0.99943 0.21769 0.98312 0.0
C950 C 0.0271 0.248 0.95842 0.0
C951 C 0.03985 0.26537 0.94897 0.0
C952 C 0.00601 0.25051 0.97533 0.0
C953 C 0.03141 0.28529 0.95477 0.0
C954 C 0.01039 0.28794 0.97047 0.0
C955 C 0.97652 0.27317 -0.00137 0.0
C956 C 0.96385 0.25583 0.01023 0.0
C957 C 0.99758 0.27066 0.98136 0.0
C958 C 0.97233 0.23591 0.00484 0.0
C959 C 0.99325 0.23324 0.98728 0.0
H960 H 0.72038 0.96753 0.0271 0.0
H961 H 0.78628 0.96339 0.05996 0.0
H962 H 0.7901 1.00002 0.02513 0.0
H963 H 0.77445 0.03324 0.98446 0.0
H964 H 0.70843 0.03749 0.95567 0.0
H965 H 0.70472 1.00072 0.98834 0.0
C966 C 0.73552 0.97475 0.02651 0.0
C967 C 0.75305 0.963 0.04551 0.0
C968 C 0.73752 0.9957 0.00635 0.0
C969 C 0.77263 0.97234 0.04559 0.0
C970 C 0.77479 0.99318 0.02533 0.0
C971 C 0.75935 0.02593 0.98471 0.0
C972 C 0.74174 0.03768 0.9669 0.0
C973 C 0.75736 0.00498 0.00517 0.0
C974 C 0.72214 0.02844 0.96852 0.0
C975 C 0.72003 0.00754 0.98752 0.0
H976 H 0.97124 0.76944 0.98032 0.0
H977 H 0.96313 0.70331 0.98251 0.0
H978 H 0.9996 0.69857 0.01781 0.0
H979 H 0.03383 0.7134 0.04727 0.0
H980 H 0.04207 0.77952 0.04495 0.0
H981 H 0.00544 0.78432 0.01219 0.0
C982 C 0.97761 0.75405 0.9883 0.0
C983 C 0.9648 0.73672 0.97875 0.0
C984 C 0.99847 0.75152 0.00927 0.0
C985 C 0.97291 0.7168 0.98967 0.0
C986 C 0.99367 0.71412 0.00994 0.0
C987 C 0.02751 0.72881 0.03947 0.0
C988 C 0.04044 0.74609 0.0478 0.0
C989 C 0.00658 0.73137 0.01989 0.0
C990 C 0.03222 0.76604 0.03893 0.0
C991 C 0.01138 0.76876 0.01976 0.0
H992 H 0.79518 0.47011 0.44976 0.0
H993 H 0.72894 0.46324 0.45075 0.0
H994 H 0.72479 0.5005 0.47212 0.0
H995 H 0.7402 0.53503 0.49215 0.0
H996 H 0.80642 0.54193 0.49077 0.0
H997 H 0.81059 0.50464 0.46926 0.0
C998 C 0.77989 0.47686 0.45506 0.0
C999 C 0.76238 0.46414 0.4493 0.0
C1000 C 0.77769 0.4982 0.46774 0.0
C1001 C 0.74259 0.4729 0.45486 0.0
C1002 C 0.74024 0.49413 0.46743 0.0
C1003 C 0.75548 0.52823 0.48744 0.0
C1004 C 0.773 0.54094 0.49286 0.0
C1005 C 0.75768 0.5069 0.47438 0.0
C1006 C 0.79278 0.53224 0.48641 0.0
C1007 C 0.79514 0.51101 0.47409 0.0
H1008 H 0.4669 0.73881 0.47247 0.0
H1009 H 0.46861 0.79541 0.60547 0.0
H1010 H 0.50597 0.79841 0.58294 0.0
H1011 H 0.5379 0.78502 0.52361 0.0
H1012 H 0.53666 0.72708 0.39834 0.0
H1013 H 0.49926 0.7246 0.41782 0.0
C1014 C 0.47561 0.75167 0.49675 0.0
C1015 C 0.46537 0.76685 0.54066 0.0
C1016 C 0.497 0.75312 0.48407 0.0
C1017 C 0.47646 0.78355 0.57192 0.0
C1018 C 0.4977 0.78528 0.55878 0.0
C1019 C 0.52943 0.77179 0.50117 0.0
C1020 C 0.53993 0.75633 0.4592 0.0
C1021 C 0.50811 0.77018 0.51475 0.0
C1022 C 0.52881 0.73936 0.4296 0.0
C1023 C 0.50749 0.73784 0.44136 0.0
H1024 H 0.27039 0.47013 0.51746 0.0
H1025 H 0.20411 0.46394 0.52032 0.0
H1026 H 0.20021 0.50085 0.49043 0.0
H1027 H 0.21584 0.5348 0.46251 0.0
H1028 H 0.28213 0.54109 0.45936 0.0
H1029 H 0.28605 0.50414 0.48841 0.0
C1030 C 0.25516 0.47703 0.51201 0.0
C1031 C 0.23753 0.46465 0.52137 0.0
C1032 C 0.25311 0.49811 0.49384 0.0
C1033 C 0.21781 0.47342 0.51354 0.0
C1034 C 0.21561 0.49441 0.49621 0.0
C1035 C 0.23109 0.52799 0.46849 0.0
C1036 C 0.24868 0.54046 0.4596 0.0
C1037 C 0.23316 0.50689 0.48599 0.0
C1038 C 0.26842 0.53161 0.46591 0.0
C1039 C 0.27064 0.51058 0.48297 0.0
H1040 H 0.53679 0.27569 0.52717 0.0
H1041 H 0.53867 0.20999 0.56866 0.0
H1042 H 0.50277 0.20667 0.52404 0.0
H1043 H 0.47122 0.22245 0.46953 0.0
H1044 H 0.46866 0.28841 0.43438 0.0
H1045 H 0.50461 0.29173 0.47836 0.0
C1046 C 0.52916 0.26074 0.52716 0.0
C1047 C 0.54018 0.24308 0.55037 0.0
C1048 C 0.50858 0.25901 0.50161 0.0
C1049 C 0.53038 0.22372 0.55006 0.0
C1050 C 0.50993 0.22183 0.5246 0.0
C1051 C 0.47852 0.23754 0.47247 0.0
C1052 C 0.46742 0.25518 0.4494 0.0
C1053 C 0.49895 0.23934 0.49953 0.0
C1054 C 0.47706 0.27463 0.45161 0.0
C1055 C 0.49751 0.27654 0.4772 0.0
H1056 H 0.20808 0.15338 0.93868 0.0
H1057 H 0.1987 0.16079 0.1876 0.0
H1058 H 0.17149 0.18617 0.16259 0.0
H1059 H 0.15215 0.20804 0.07024 0.0
H1060 H 0.16066 0.19977 0.82122 0.0
H1061 H 0.18631 0.17279 0.8461 0.0
C1062 C 0.19997 0.16043 0.98742 0.0
C1063 C 0.20557 0.15537 0.06485 0.0
C1064 C 0.18424 0.17489 0.97264 0.0
C1065 C 0.1947 0.16441 0.12741 0.0
C1066 C 0.1792 0.179 0.11319 0.0
C1067 C 0.15949 0.20021 0.0214 0.0
C1068 C 0.15467 0.20606 0.94403 0.0
C1069 C 0.17412 0.18463 0.03609 0.0
C1070 C 0.16409 0.19557 0.88135 0.0
C1071 C 0.17884 0.1802 0.89551 0.0
H1072 H 0.84654 0.19583 0.10276 0.0
H1073 H 0.84604 0.22275 0.871 0.0
H1074 H 0.82269 0.19574 0.82519 0.0
H1075 H 0.80032 0.16582 0.85295 0.0
H1076 H 0.79976 0.13977 0.08544 0.0
H1077 H 0.82563 0.16486 0.12866 0.0
C1078 C 0.84146 0.19571 0.0421 0.0
C1079 C 0.84798 0.21141 0.99074 0.0
C1080 C 0.82774 0.18027 0.01618 0.0
C1081 C 0.84121 0.21096 0.91219 0.0
C1082 C 0.82784 0.19549 0.88573 0.0
C1083 C 0.80617 0.16546 0.91262 0.0
C1084 C 0.79803 0.15118 0.96627 0.0
C1085 C 0.82075 0.18024 0.93744 0.0
C1086 C 0.80555 0.15092 0.04361 0.0
C1087 C 0.82038 0.16522 0.06827 0.0
H1088 H 0.85189 0.7922 0.06978 0.0
H1089 H 0.84586 0.80208 0.82068 0.0
H1090 H 0.82009 0.82908 0.84422 0.0
H1091 H 0.79778 0.84827 0.93561 0.0
H1092 H 0.80501 0.83921 0.18499 0.0
H1093 H 0.83193 0.81348 0.16131 0.0
C1094 C 0.84506 0.80036 0.02069 0.0
C1095 C 0.85062 0.79501 0.94368 0.0
C1096 C 0.83042 0.81591 0.03471 0.0
C1097 C 0.84185 0.80593 0.88058 0.0
C1098 C 0.82704 0.82129 0.89399 0.0
C1099 C 0.80533 0.84076 0.98478 0.0
C1100 C 0.79926 0.8455 0.06193 0.0
C1101 C 0.82097 0.82616 0.97079 0.0
C1102 C 0.80939 0.83584 0.12505 0.0
C1103 C 0.82474 0.82108 0.11157 0.0
H1104 H 0.16432 0.80262 0.12451 0.0
H1105 H 0.15326 0.78493 0.88398 0.0
H1106 H 0.17732 0.81158 0.83923 0.0
H1107 H 0.20298 0.83873 0.86904 0.0
H1108 H 0.21542 0.85449 0.11057 0.0
H1109 H 0.18929 0.82995 0.15407 0.0
C1110 C 0.167 0.80472 0.06225 0.0
C1111 C 0.15702 0.79181 0.00776 0.0
C1112 C 0.18119 0.81972 0.03702 0.0
C1113 C 0.16083 0.79462 0.92726 0.0
C1114 C 0.17457 0.80986 0.90157 0.0
C1115 C 0.19978 0.83693 0.93108 0.0
C1116 C 0.21113 0.84843 0.9864 0.0
C1117 C 0.18506 0.82233 0.95599 0.0
C1118 C 0.20698 0.84578 0.06671 0.0
C1119 C 0.19203 0.83174 0.09174 0.0
H1120 H 0.66652 0.70398 0.35509 0.0
H1121 H 0.64833 0.70749 0.59786 0.0
H1122 H 0.67342 0.68078 0.63197 0.0
H1123 H 0.70232 0.65826 0.59444 0.0
H1124 H 0.72142 0.65573 0.35215 0.0
H1125 H 0.69411 0.67997 0.3163 0.0
C1126 C 0.66785 0.69867 0.41524 0.0
C1127 C 0.65576 0.7079 0.47402 0.0
C1128 C 0.68259 0.68353 0.43467 0.0
C1129 C 0.65773 0.70093 0.55177 0.0
C1130 C 0.67203 0.68559 0.57129 0.0
C1131 C 0.70036 0.66282 0.53366 0.0
C1132 C 0.71401 0.65528 0.47629 0.0
C1133 C 0.68485 0.67709 0.51351 0.0
C1134 C 0.71126 0.66141 0.39776 0.0
C1135 C 0.69563 0.67529 0.37708 0.0
H1136 H 0.34027 0.70609 0.63557 0.0
H1137 H 0.35715 0.71597 0.39392 0.0
H1138 H 0.3333 0.68892 0.35234 0.0
H1139 H 0.306 0.66407 0.38335 0.0
H1140 H 0.28732 0.65542 0.62394 0.0
H1141 H 0.3135 0.68023 0.66713 0.0
C1142 C 0.3389 0.70211 0.57397 0.0
C1143 C 0.35045 0.71307 0.51787 0.0
C1144 C 0.3247 0.68684 0.55017 0.0
C1145 C 0.34836 0.70788 0.43819 0.0
C1146 C 0.33471 0.6924 0.41432 0.0
C1147 C 0.30779 0.66743 0.44533 0.0
C1148 C 0.29468 0.65794 0.50021 0.0
C1149 C 0.32254 0.68203 0.46962 0.0
C1150 C 0.29713 0.6626 0.58031 0.0
C1151 C 0.31211 0.67678 0.60513 0.0
H1152 H 0.35244 0.30093 0.53618 0.0
H1153 H 0.34508 0.30947 0.28685 0.0
H1154 H 0.31826 0.33542 0.31014 0.0
H1155 H 0.29539 0.35393 0.40154 0.0
H1156 H 0.30384 0.34614 0.651 0.0
H1157 H 0.33193 0.32174 0.62744 0.0
C1158 C 0.3451 0.30856 0.48697 0.0
C1159 C 0.3506 0.30312 0.41 0.0
C1160 C 0.32986 0.32355 0.50081 0.0
C1161 C 0.34112 0.31338 0.34675 0.0
C1162 C 0.32573 0.32815 0.36 0.0
C1163 C 0.30349 0.34702 0.45071 0.0
C1164 C 0.29739 0.35169 0.52786 0.0
C1165 C 0.31974 0.33309 0.43679 0.0
C1166 C 0.30821 0.34282 0.59102 0.0
C1167 C 0.32423 0.32879 0.57764 0.0
H1168 H 0.70096 0.34255 0.39633 0.0
H1169 H 0.72237 0.35403 0.63228 0.0
H1170 H 0.6951 0.33184 0.68424 0.0
H1171 H 0.66655 0.30713 0.66204 0.0
H1172 H 0.64703 0.294 0.42514 0.0
H1173 H 0.6719 0.31897 0.37445 0.0
C1174 C 0.69954 0.34037 0.45916 0.0
C1175 C 0.71374 0.34988 0.51018 0.0
C1176 C 0.68412 0.32722 0.4886 0.0
C1177 C 0.71173 0.34679 0.59152 0.0
C1178 C 0.69612 0.33411 0.62139 0.0
C1179 C 0.66757 0.31003 0.59951 0.0
C1180 C 0.65502 0.29877 0.54743 0.0
C1181 C 0.68241 0.32397 0.57044 0.0
C1182 C 0.65662 0.30243 0.46638 0.0
C1183 C 0.67086 0.31668 0.43729 0.0
loop_
_geom_bond_atom_site_label_1
_geom_bond_atom_site_label_2
_geom_bond_distance
_geom_bond_site_symmetry_2
_ccdc_geom_bond_type
Co0 O3 1.970 . S
Co0 N17 1.989 . S
Co0 O25 1.967 . S
Co0 O32 1.920 . S
Co1 O4 1.966 . S
Co1 N10 2.022 . S
Co1 N18 1.993 1_556 S
Co1 O26 1.941 1_556 S
C2 O3 1.258 . S
C2 O4 1.263 1_554 S
O3 Co0 1.970 . S
O3 C2 1.258 . S
O4 Co1 1.966 . S
O4 C2 1.263 1_556 S
C5 O6 1.235 . S
C5 O32 1.289 . S
O6 C5 1.235 . S
C7 C9 1.400 . S
C7 N10 1.351 . S
C7 C12 1.501 . S
C8 C9 1.387 . S
C8 N11 1.341 . S
C9 C7 1.400 . S
C9 C8 1.387 . S
N10 Co1 2.022 . S
N10 C7 1.351 . S
N10 N11 1.365 . S
N11 C8 1.341 . S
N11 N10 1.365 . S
N11 H31 0.862 . S
C12 C7 1.501 . S
C12 H13 0.961 . S
C12 H14 0.961 . S
C12 H15 0.960 . S
H13 C12 0.961 . S
H14 C12 0.961 . S
H15 C12 0.960 . S
C16 N17 1.342 . S
C16 C20 1.401 . S
C16 C21 1.499 . S
N17 Co0 1.989 . S
N17 C16 1.342 . S
N17 N18 1.388 . S
N18 Co1 1.993 1_554 S
N18 N17 1.388 . S
N18 C19 1.346 1_554 S
C19 N18 1.346 1_556 S
C19 C20 1.396 1_556 S
C19 C29 1.510 . S
C20 C16 1.401 . S
C20 C19 1.396 1_554 S
C21 C16 1.499 . S
C21 H22 0.959 . S
C21 H23 0.960 . S
C21 H24 0.961 . S
H22 C21 0.959 . S
H23 C21 0.960 . S
H24 C21 0.961 . S
O25 Co0 1.967 . S
O25 C33 1.258 . S
O26 Co1 1.941 1_554 S
O26 C33 1.266 . S
H27 C29 0.959 . S
H28 C29 0.961 . S
C29 C19 1.510 . S
C29 H27 0.959 . S
C29 H28 0.961 . S
C29 H30 0.960 . S
H30 C29 0.960 . S
H31 N11 0.862 . S
O32 Co0 1.920 . S
O32 C5 1.289 . S
C33 O25 1.258 . S
C33 O26 1.266 . S
Co34 O37 1.970 . S
Co34 N51 1.989 . S
Co34 O59 1.967 . S
Co34 O66 1.920 . S
Co35 O38 1.966 . S
Co35 N44 2.022 . S
Co35 N52 1.993 1_556 S
Co35 O60 1.941 1_556 S
C36 O37 1.258 . S
C36 O38 1.263 1_554 S
O37 Co34 1.970 . S
O37 C36 1.258 . S
O38 Co35 1.966 . S
O38 C36 1.263 1_556 S
C39 O40 1.235 . S
C39 O66 1.289 . S
O40 C39 1.235 . S
C41 C43 1.400 . S
C41 N44 1.351 . S
C41 C46 1.501 . S
C42 C43 1.387 . S
C42 N45 1.341 . S
C43 C41 1.400 . S
C43 C42 1.387 . S
N44 Co35 2.022 . S
N44 C41 1.351 . S
N44 N45 1.365 . S
N45 C42 1.341 . S
N45 N44 1.365 . S
N45 H65 0.862 . S
C46 C41 1.501 . S
C46 H47 0.961 . S
C46 H48 0.961 . S
C46 H49 0.960 . S
H47 C46 0.961 . S
H48 C46 0.961 . S
H49 C46 0.960 . S
C50 N51 1.342 . S
C50 C54 1.401 . S
C50 C55 1.499 . S
N51 Co34 1.989 . S
N51 C50 1.342 . S
N51 N52 1.388 . S
N52 Co35 1.993 1_554 S
N52 N51 1.388 . S
N52 C53 1.346 1_554 S
C53 N52 1.346 1_556 S
C53 C54 1.396 1_556 S
C53 C63 1.510 . S
C54 C50 1.401 . S
C54 C53 1.396 1_554 S
C55 C50 1.499 . S
C55 H56 0.959 . S
C55 H57 0.960 . S
C55 H58 0.961 . S
H56 C55 0.959 . S
H57 C55 0.960 . S
H58 C55 0.961 . S
O59 Co34 1.967 . S
O59 C67 1.258 . S
O60 Co35 1.941 1_554 S
O60 C67 1.266 . S
H61 C63 0.959 . S
H62 C63 0.961 . S
C63 C53 1.510 . S
C63 H61 0.959 . S
C63 H62 0.961 . S
C63 H64 0.960 . S
H64 C63 0.960 . S
H65 N45 0.862 . S
O66 Co34 1.920 . S
O66 C39 1.289 . S
C67 O59 1.258 . S
C67 O60 1.266 . S
Co68 O71 1.970 . S
Co68 N85 1.989 . S
Co68 O93 1.967 . S
Co68 O100 1.920 . S
Co69 O72 1.966 . S
Co69 N78 2.022 . S
Co69 N86 1.993 1_556 S
Co69 O94 1.941 1_556 S
C70 O71 1.258 . S
C70 O72 1.263 1_554 S
O71 Co68 1.970 . S
O71 C70 1.258 . S
O72 Co69 1.966 . S
O72 C70 1.263 1_556 S
C73 O74 1.235 . S
C73 O100 1.289 . S
O74 C73 1.235 . S
C75 C77 1.400 . S
C75 N78 1.351 . S
C75 C80 1.501 . S
C76 C77 1.387 . S
C76 N79 1.341 . S
C77 C75 1.400 . S
C77 C76 1.387 . S
N78 Co69 2.022 . S
N78 C75 1.351 . S
N78 N79 1.365 . S
N79 C76 1.341 . S
N79 N78 1.365 . S
N79 H99 0.862 . S
C80 C75 1.501 . S
C80 H81 0.961 . S
C80 H82 0.961 . S
C80 H83 0.960 . S
H81 C80 0.961 . S
H82 C80 0.961 . S
H83 C80 0.960 . S
C84 N85 1.342 . S
C84 C88 1.401 . S
C84 C89 1.499 . S
N85 Co68 1.989 . S
N85 C84 1.342 . S
N85 N86 1.388 . S
N86 Co69 1.993 1_554 S
N86 N85 1.388 . S
N86 C87 1.346 1_554 S
C87 N86 1.346 1_556 S
C87 C88 1.396 1_556 S
C87 C97 1.510 . S
C88 C84 1.401 . S
C88 C87 1.396 1_554 S
C89 C84 1.499 . S
C89 H90 0.959 . S
C89 H91 0.960 . S
C89 H92 0.961 . S
H90 C89 0.959 . S
H91 C89 0.960 . S
H92 C89 0.961 . S
O93 Co68 1.967 . S
O93 C101 1.258 . S
O94 Co69 1.941 1_554 S
O94 C101 1.266 . S
H95 C97 0.959 . S
H96 C97 0.961 . S
C97 C87 1.510 . S
C97 H95 0.959 . S
C97 H96 0.961 . S
C97 H98 0.960 . S
H98 C97 0.960 . S
H99 N79 0.862 . S
O100 Co68 1.920 . S
O100 C73 1.289 . S
C101 O93 1.258 . S
C101 O94 1.266 . S
Co102 O105 1.970 . S
Co102 N119 1.989 . S
Co102 O127 1.967 . S
Co102 O134 1.920 . S
Co103 O106 1.966 . S
Co103 N112 2.022 . S
Co103 N120 1.993 1_556 S
Co103 O128 1.941 1_556 S
C104 O105 1.258 . S
C104 O106 1.263 1_554 S
O105 Co102 1.970 . S
O105 C104 1.258 . S
O106 Co103 1.966 . S
O106 C104 1.263 1_556 S
C107 O108 1.235 . S
C107 O134 1.289 . S
O108 C107 1.235 . S
C109 C111 1.400 . S
C109 N112 1.351 . S
C109 C114 1.501 . S
C110 C111 1.387 . S
C110 N113 1.341 . S
C111 C109 1.400 . S
C111 C110 1.387 . S
N112 Co103 2.022 . S
N112 C109 1.351 . S
N112 N113 1.365 . S
N113 C110 1.341 . S
N113 N112 1.365 . S
N113 H133 0.862 . S
C114 C109 1.501 . S
C114 H115 0.961 . S
C114 H116 0.961 . S
C114 H117 0.960 . S
H115 C114 0.961 . S
H116 C114 0.961 . S
H117 C114 0.960 . S
C118 N119 1.342 . S
C118 C122 1.401 . S
C118 C123 1.499 . S
N119 Co102 1.989 . S
N119 C118 1.342 . S
N119 N120 1.388 . S
N120 Co103 1.993 1_554 S
N120 N119 1.388 . S
N120 C121 1.346 1_554 S
C121 N120 1.346 1_556 S
C121 C122 1.396 1_556 S
C121 C131 1.510 . S
C122 C118 1.401 . S
C122 C121 1.396 1_554 S
C123 C118 1.499 . S
C123 H124 0.959 . S
C123 H125 0.960 . S
C123 H126 0.961 . S
H124 C123 0.959 . S
H125 C123 0.960 . S
H126 C123 0.961 . S
O127 Co102 1.967 . S
O127 C135 1.258 . S
O128 Co103 1.941 1_554 S
O128 C135 1.266 . S
H129 C131 0.959 . S
H130 C131 0.961 . S
C131 C121 1.510 . S
C131 H129 0.959 . S
C131 H130 0.961 . S
C131 H132 0.960 . S
H132 C131 0.960 . S
H133 N113 0.862 . S
O134 Co102 1.920 . S
O134 C107 1.289 . S
C135 O127 1.258 . S
C135 O128 1.266 . S
Co136 O139 1.970 . S
Co136 N153 1.989 . S
Co136 O161 1.967 . S
Co136 O168 1.920 . S
Co137 O140 1.966 . S
Co137 N146 2.022 . S
Co137 N154 1.993 1_554 S
Co137 O162 1.941 1_554 S
C138 O139 1.258 . S
C138 O140 1.263 1_556 S
O139 Co136 1.970 . S
O139 C138 1.258 . S
O140 Co137 1.966 . S
O140 C138 1.263 1_554 S
C141 O142 1.235 . S
C141 O168 1.289 . S
O142 C141 1.235 . S
C143 C145 1.400 . S
C143 N146 1.351 . S
C143 C148 1.501 . S
C144 C145 1.387 . S
C144 N147 1.341 . S
C145 C143 1.400 . S
C145 C144 1.387 . S
N146 Co137 2.022 . S
N146 C143 1.351 . S
N146 N147 1.365 . S
N147 C144 1.341 . S
N147 N146 1.365 . S
N147 H167 0.862 . S
C148 C143 1.501 . S
C148 H149 0.961 . S
C148 H150 0.961 . S
C148 H151 0.960 . S
H149 C148 0.961 . S
H150 C148 0.961 . S
H151 C148 0.960 . S
C152 N153 1.342 . S
C152 C156 1.401 . S
C152 C157 1.499 . S
N153 Co136 1.989 . S
N153 C152 1.342 . S
N153 N154 1.388 . S
N154 Co137 1.993 1_556 S
N154 N153 1.388 . S
N154 C155 1.346 1_556 S
C155 N154 1.346 1_554 S
C155 C156 1.396 1_554 S
C155 C165 1.510 . S
C156 C152 1.401 . S
C156 C155 1.396 1_556 S
C157 C152 1.499 . S
C157 H158 0.959 . S
C157 H159 0.960 . S
C157 H160 0.961 . S
H158 C157 0.959 . S
H159 C157 0.960 . S
H160 C157 0.961 . S
O161 Co136 1.967 . S
O161 C169 1.258 . S
O162 Co137 1.941 1_556 S
O162 C169 1.266 . S
H163 C165 0.959 . S
H164 C165 0.961 . S
C165 C155 1.510 . S
C165 H163 0.959 . S
C165 H164 0.961 . S
C165 H166 0.960 . S
H166 C165 0.960 . S
H167 N147 0.862 . S
O168 Co136 1.920 . S
O168 C141 1.289 . S
C169 O161 1.258 . S
C169 O162 1.266 . S
Co170 O173 1.970 . S
Co170 N187 1.989 . S
Co170 O195 1.967 . S
Co170 O202 1.920 . S
Co171 O174 1.966 . S
Co171 N180 2.022 . S
Co171 N188 1.993 1_554 S
Co171 O196 1.941 1_554 S
C172 O173 1.258 . S
C172 O174 1.263 1_556 S
O173 Co170 1.970 . S
O173 C172 1.258 . S
O174 Co171 1.966 . S
O174 C172 1.263 1_554 S
C175 O176 1.235 . S
C175 O202 1.289 . S
O176 C175 1.235 . S
C177 C179 1.400 . S
C177 N180 1.351 . S
C177 C182 1.501 . S
C178 C179 1.387 . S
C178 N181 1.341 . S
C179 C177 1.400 . S
C179 C178 1.387 . S
N180 Co171 2.022 . S
N180 C177 1.351 . S
N180 N181 1.365 . S
N181 C178 1.341 . S
N181 N180 1.365 . S
N181 H201 0.862 . S
C182 C177 1.501 . S
C182 H183 0.961 . S
C182 H184 0.961 . S
C182 H185 0.960 . S
H183 C182 0.961 . S
H184 C182 0.961 . S
H185 C182 0.960 . S
C186 N187 1.342 . S
C186 C190 1.401 . S
C186 C191 1.499 . S
N187 Co170 1.989 . S
N187 C186 1.342 . S
N187 N188 1.388 . S
N188 Co171 1.993 1_556 S
N188 N187 1.388 . S
N188 C189 1.346 1_556 S
C189 N188 1.346 1_554 S
C189 C190 1.396 1_554 S
C189 C199 1.510 . S
C190 C186 1.401 . S
C190 C189 1.396 1_556 S
C191 C186 1.499 . S
C191 H192 0.959 . S
C191 H193 0.960 . S
C191 H194 0.961 . S
H192 C191 0.959 . S
H193 C191 0.960 . S
H194 C191 0.961 . S
O195 Co170 1.967 . S
O195 C203 1.258 . S
O196 Co171 1.941 1_556 S
O196 C203 1.266 . S
H197 C199 0.959 . S
H198 C199 0.961 . S
C199 C189 1.510 . S
C199 H197 0.959 . S
C199 H198 0.961 . S
C199 H200 0.960 . S
H200 C199 0.960 . S
H201 N181 0.862 . S
O202 Co170 1.920 . S
O202 C175 1.289 . S
C203 O195 1.258 . S
C203 O196 1.266 . S
Co204 O207 1.970 . S
Co204 N221 1.989 . S
Co204 O229 1.967 . S
Co204 O236 1.920 . S
Co205 O208 1.966 . S
Co205 N214 2.022 . S
Co205 N222 1.993 1_554 S
Co205 O230 1.941 1_554 S
C206 O207 1.258 . S
C206 O208 1.263 1_556 S
O207 Co204 1.970 . S
O207 C206 1.258 . S
O208 Co205 1.966 . S
O208 C206 1.263 1_554 S
C209 O210 1.235 . S
C209 O236 1.289 . S
O210 C209 1.235 . S
C211 C213 1.400 . S
C211 N214 1.351 . S
C211 C216 1.501 . S
C212 C213 1.387 . S
C212 N215 1.341 . S
C213 C211 1.400 . S
C213 C212 1.387 . S
N214 Co205 2.022 . S
N214 C211 1.351 . S
N214 N215 1.365 . S
N215 C212 1.341 . S
N215 N214 1.365 . S
N215 H235 0.862 . S
C216 C211 1.501 . S
C216 H217 0.961 . S
C216 H218 0.961 . S
C216 H219 0.960 . S
H217 C216 0.961 . S
H218 C216 0.961 . S
H219 C216 0.960 . S
C220 N221 1.342 . S
C220 C224 1.401 . S
C220 C225 1.499 . S
N221 Co204 1.989 . S
N221 C220 1.342 . S
N221 N222 1.388 . S
N222 Co205 1.993 1_556 S
N222 N221 1.388 . S
N222 C223 1.346 1_556 S
C223 N222 1.346 1_554 S
C223 C224 1.396 1_554 S
C223 C233 1.510 . S
C224 C220 1.401 . S
C224 C223 1.396 1_556 S
C225 C220 1.499 . S
C225 H226 0.959 . S
C225 H227 0.960 . S
C225 H228 0.961 . S
H226 C225 0.959 . S
H227 C225 0.960 . S
H228 C225 0.961 . S
O229 Co204 1.967 . S
O229 C237 1.258 . S
O230 Co205 1.941 1_556 S
O230 C237 1.266 . S
H231 C233 0.959 . S
H232 C233 0.961 . S
C233 C223 1.510 . S
C233 H231 0.959 . S
C233 H232 0.961 . S
C233 H234 0.960 . S
H234 C233 0.960 . S
H235 N215 0.862 . S
O236 Co204 1.920 . S
O236 C209 1.289 . S
C237 O229 1.258 . S
C237 O230 1.266 . S
Co238 O241 1.970 . S
Co238 N255 1.989 . S
Co238 O263 1.967 . S
Co238 O270 1.920 . S
Co239 O242 1.966 . S
Co239 N248 2.022 . S
Co239 N256 1.993 1_554 S
Co239 O264 1.941 1_554 S
C240 O241 1.258 . S
C240 O242 1.263 1_556 S
O241 Co238 1.970 . S
O241 C240 1.258 . S
O242 Co239 1.966 . S
O242 C240 1.263 1_554 S
C243 O244 1.235 . S
C243 O270 1.289 . S
O244 C243 1.235 . S
C245 C247 1.400 . S
C245 N248 1.351 . S
C245 C250 1.501 . S
C246 C247 1.387 . S
C246 N249 1.341 . S
C247 C245 1.400 . S
C247 C246 1.387 . S
N248 Co239 2.022 . S
N248 C245 1.351 . S
N248 N249 1.365 . S
N249 C246 1.341 . S
N249 N248 1.365 . S
N249 H269 0.862 . S
C250 C245 1.501 . S
C250 H251 0.961 . S
C250 H252 0.961 . S
C250 H253 0.960 . S
H251 C250 0.961 . S
H252 C250 0.961 . S
H253 C250 0.960 . S
C254 N255 1.342 . S
C254 C258 1.401 . S
C254 C259 1.499 . S
N255 Co238 1.989 . S
N255 C254 1.342 . S
N255 N256 1.388 . S
N256 Co239 1.993 1_556 S
N256 N255 1.388 . S
N256 C257 1.346 1_556 S
C257 N256 1.346 1_554 S
C257 C258 1.396 1_554 S
C257 C267 1.510 . S
C258 C254 1.401 . S
C258 C257 1.396 1_556 S
C259 C254 1.499 . S
C259 H260 0.959 . S
C259 H261 0.960 . S
C259 H262 0.961 . S
H260 C259 0.959 . S
H261 C259 0.960 . S
H262 C259 0.961 . S
O263 Co238 1.967 . S
O263 C271 1.258 . S
O264 Co239 1.941 1_556 S
O264 C271 1.266 . S
H265 C267 0.959 . S
H266 C267 0.961 . S
C267 C257 1.510 . S
C267 H265 0.959 . S
C267 H266 0.961 . S
C267 H268 0.960 . S
H268 C267 0.960 . S
H269 N249 0.862 . S
O270 Co238 1.920 . S
O270 C243 1.289 . S
C271 O263 1.258 . S
C271 O264 1.266 . S
Co272 O275 1.970 . S
Co272 N289 1.989 . S
Co272 O297 1.967 . S
Co272 O304 1.920 . S
Co273 O276 1.966 . S
Co273 N282 2.022 . S
Co273 N290 1.993 . S
Co273 O298 1.941 . S
C274 O275 1.258 . S
C274 O276 1.263 . S
O275 Co272 1.970 . S
O275 C274 1.258 . S
O276 Co273 1.966 . S
O276 C274 1.263 . S
C277 O278 1.235 . S
C277 O304 1.289 . S
O278 C277 1.235 . S
C279 C281 1.400 . S
C279 N282 1.351 . S
C279 C284 1.501 . S
C280 C281 1.387 . S
C280 N283 1.341 . S
C281 C279 1.400 . S
C281 C280 1.387 . S
N282 Co273 2.022 . S
N282 C279 1.351 . S
N282 N283 1.365 . S
N283 C280 1.341 . S
N283 N282 1.365 . S
N283 H303 0.862 . S
C284 C279 1.501 . S
C284 H285 0.961 . S
C284 H286 0.961 . S
C284 H287 0.960 . S
H285 C284 0.961 . S
H286 C284 0.961 . S
H287 C284 0.960 . S
C288 N289 1.342 . S
C288 C292 1.401 . S
C288 C293 1.499 . S
N289 Co272 1.989 . S
N289 C288 1.342 . S
N289 N290 1.388 . S
N290 Co273 1.993 . S
N290 N289 1.388 . S
N290 C291 1.346 . S
C291 N290 1.346 . S
C291 C292 1.396 . S
C291 C301 1.510 . S
C292 C288 1.401 . S
C292 C291 1.396 . S
C293 C288 1.499 . S
C293 H294 0.959 . S
C293 H295 0.960 . S
C293 H296 0.961 . S
H294 C293 0.959 . S
H295 C293 0.960 . S
H296 C293 0.961 . S
O297 Co272 1.967 . S
O297 C305 1.258 . S
O298 Co273 1.941 . S
O298 C305 1.266 . S
H299 C301 0.959 . S
H300 C301 0.961 . S
C301 C291 1.510 . S
C301 H299 0.959 . S
C301 H300 0.961 . S
C301 H302 0.960 . S
H302 C301 0.960 . S
H303 N283 0.862 . S
O304 Co272 1.920 . S
O304 C277 1.289 . S
C305 O297 1.258 . S
C305 O298 1.266 . S
Co306 O309 1.970 . S
Co306 N323 1.989 . S
Co306 O331 1.967 . S
Co306 O338 1.920 . S
Co307 O310 1.966 . S
Co307 N316 2.022 . S
Co307 N324 1.993 . S
Co307 O332 1.941 . S
C308 O309 1.258 . S
C308 O310 1.263 . S
O309 Co306 1.970 . S
O309 C308 1.258 . S
O310 Co307 1.966 . S
O310 C308 1.263 . S
C311 O312 1.235 . S
C311 O338 1.289 . S
O312 C311 1.235 . S
C313 C315 1.400 . S
C313 N316 1.351 . S
C313 C318 1.501 . S
C314 C315 1.387 . S
C314 N317 1.341 . S
C315 C313 1.400 . S
C315 C314 1.387 . S
N316 Co307 2.022 . S
N316 C313 1.351 . S
N316 N317 1.365 . S
N317 C314 1.341 . S
N317 N316 1.365 . S
N317 H337 0.862 . S
C318 C313 1.501 . S
C318 H319 0.961 . S
C318 H320 0.961 . S
C318 H321 0.960 . S
H319 C318 0.961 . S
H320 C318 0.961 . S
H321 C318 0.960 . S
C322 N323 1.342 . S
C322 C326 1.401 . S
C322 C327 1.499 . S
N323 Co306 1.989 . S
N323 C322 1.342 . S
N323 N324 1.388 . S
N324 Co307 1.993 . S
N324 N323 1.388 . S
N324 C325 1.346 . S
C325 N324 1.346 . S
C325 C326 1.396 . S
C325 C335 1.510 . S
C326 C322 1.401 . S
C326 C325 1.396 . S
C327 C322 1.499 . S
C327 H328 0.959 . S
C327 H329 0.960 . S
C327 H330 0.961 . S
H328 C327 0.959 . S
H329 C327 0.960 . S
H330 C327 0.961 . S
O331 Co306 1.967 . S
O331 C339 1.258 . S
O332 Co307 1.941 . S
O332 C339 1.266 . S
H333 C335 0.959 . S
H334 C335 0.961 . S
C335 C325 1.510 . S
C335 H333 0.959 . S
C335 H334 0.961 . S
C335 H336 0.960 . S
H336 C335 0.960 . S
H337 N317 0.862 . S
O338 Co306 1.920 . S
O338 C311 1.289 . S
C339 O331 1.258 . S
C339 O332 1.266 . S
Co340 O343 1.970 . S
Co340 N357 1.989 . S
Co340 O365 1.967 . S
Co340 O372 1.920 . S
Co341 O344 1.966 . S
Co341 N350 2.022 . S
Co341 N358 1.993 . S
Co341 O366 1.941 . S
C342 O343 1.258 . S
C342 O344 1.263 . S
O343 Co340 1.970 . S
O343 C342 1.258 . S
O344 Co341 1.966 . S
O344 C342 1.263 . S
C345 O346 1.235 . S
C345 O372 1.289 . S
O346 C345 1.235 . S
C347 C349 1.400 . S
C347 N350 1.351 . S
C347 C352 1.501 . S
C348 C349 1.387 . S
C348 N351 1.341 . S
C349 C347 1.400 . S
C349 C348 1.387 . S
N350 Co341 2.022 . S
N350 C347 1.351 . S
N350 N351 1.365 . S
N351 C348 1.341 . S
N351 N350 1.365 . S
N351 H371 0.862 . S
C352 C347 1.501 . S
C352 H353 0.961 . S
C352 H354 0.961 . S
C352 H355 0.960 . S
H353 C352 0.961 . S
H354 C352 0.961 . S
H355 C352 0.960 . S
C356 N357 1.342 . S
C356 C360 1.401 . S
C356 C361 1.499 . S
N357 Co340 1.989 . S
N357 C356 1.342 . S
N357 N358 1.388 . S
N358 Co341 1.993 . S
N358 N357 1.388 . S
N358 C359 1.346 . S
C359 N358 1.346 . S
C359 C360 1.396 . S
C359 C369 1.510 . S
C360 C356 1.401 . S
C360 C359 1.396 . S
C361 C356 1.499 . S
C361 H362 0.959 . S
C361 H363 0.960 . S
C361 H364 0.961 . S
H362 C361 0.959 . S
H363 C361 0.960 . S
H364 C361 0.961 . S
O365 Co340 1.967 . S
O365 C373 1.258 . S
O366 Co341 1.941 . S
O366 C373 1.266 . S
H367 C369 0.959 . S
H368 C369 0.961 . S
C369 C359 1.510 . S
C369 H367 0.959 . S
C369 H368 0.961 . S
C369 H370 0.960 . S
H370 C369 0.960 . S
H371 N351 0.862 . S
O372 Co340 1.920 . S
O372 C345 1.289 . S
C373 O365 1.258 . S
C373 O366 1.266 . S
Co374 O377 1.970 . S
Co374 N391 1.989 . S
Co374 O399 1.967 . S
Co374 O406 1.920 . S
Co375 O378 1.966 . S
Co375 N384 2.022 . S
Co375 N392 1.993 . S
Co375 O400 1.941 . S
C376 O377 1.258 . S
C376 O378 1.263 . S
O377 Co374 1.970 . S
O377 C376 1.258 . S
O378 Co375 1.966 . S
O378 C376 1.263 . S
C379 O380 1.235 . S
C379 O406 1.289 . S
O380 C379 1.235 . S
C381 C383 1.400 . S
C381 N384 1.351 . S
C381 C386 1.501 . S
C382 C383 1.387 . S
C382 N385 1.341 . S
C383 C381 1.400 . S
C383 C382 1.387 . S
N384 Co375 2.022 . S
N384 C381 1.351 . S
N384 N385 1.365 . S
N385 C382 1.341 . S
N385 N384 1.365 . S
N385 H405 0.862 . S
C386 C381 1.501 . S
C386 H387 0.961 . S
C386 H388 0.961 . S
C386 H389 0.960 . S
H387 C386 0.961 . S
H388 C386 0.961 . S
H389 C386 0.960 . S
C390 N391 1.342 . S
C390 C394 1.401 . S
C390 C395 1.499 . S
N391 Co374 1.989 . S
N391 C390 1.342 . S
N391 N392 1.388 . S
N392 Co375 1.993 . S
N392 N391 1.388 . S
N392 C393 1.346 . S
C393 N392 1.346 . S
C393 C394 1.396 . S
C393 C403 1.510 . S
C394 C390 1.401 . S
C394 C393 1.396 . S
C395 C390 1.499 . S
C395 H396 0.959 . S
C395 H397 0.960 . S
C395 H398 0.961 . S
H396 C395 0.959 . S
H397 C395 0.960 . S
H398 C395 0.961 . S
O399 Co374 1.967 . S
O399 C407 1.258 . S
O400 Co375 1.941 . S
O400 C407 1.266 . S
H401 C403 0.959 . S
H402 C403 0.961 . S
C403 C393 1.510 . S
C403 H401 0.959 . S
C403 H402 0.961 . S
C403 H404 0.960 . S
H404 C403 0.960 . S
H405 N385 0.862 . S
O406 Co374 1.920 . S
O406 C379 1.289 . S
C407 O399 1.258 . S
C407 O400 1.266 . S
Co408 O411 1.970 . S
Co408 N425 1.989 . S
Co408 O433 1.967 . S
Co408 O440 1.920 . S
Co409 O412 1.966 . S
Co409 N418 2.022 . S
Co409 N426 1.993 . S
Co409 O434 1.941 . S
C410 O411 1.258 . S
C410 O412 1.263 . S
O411 Co408 1.970 . S
O411 C410 1.258 . S
O412 Co409 1.966 . S
O412 C410 1.263 . S
C413 O414 1.235 . S
C413 O440 1.289 . S
O414 C413 1.235 . S
C415 C417 1.400 . S
C415 N418 1.351 . S
C415 C420 1.501 . S
C416 C417 1.387 . S
C416 N419 1.341 . S
C417 C415 1.400 . S
C417 C416 1.387 . S
N418 Co409 2.022 . S
N418 C415 1.351 . S
N418 N419 1.365 . S
N419 C416 1.341 . S
N419 N418 1.365 . S
N419 H439 0.862 . S
C420 C415 1.501 . S
C420 H421 0.961 . S
C420 H422 0.961 . S
C420 H423 0.960 . S
H421 C420 0.961 . S
H422 C420 0.961 . S
H423 C420 0.960 . S
C424 N425 1.342 . S
C424 C428 1.401 . S
C424 C429 1.499 . S
N425 Co408 1.989 . S
N425 C424 1.342 . S
N425 N426 1.388 . S
N426 Co409 1.993 . S
N426 N425 1.388 . S
N426 C427 1.346 . S
C427 N426 1.346 . S
C427 C428 1.396 . S
C427 C437 1.510 . S
C428 C424 1.401 . S
C428 C427 1.396 . S
C429 C424 1.499 . S
C429 H430 0.959 . S
C429 H431 0.960 . S
C429 H432 0.961 . S
H430 C429 0.959 . S
H431 C429 0.960 . S
H432 C429 0.961 . S
O433 Co408 1.967 . S
O433 C441 1.258 . S
O434 Co409 1.941 . S
O434 C441 1.266 . S
H435 C437 0.959 . S
H436 C437 0.961 . S
C437 C427 1.510 . S
C437 H435 0.959 . S
C437 H436 0.961 . S
C437 H438 0.960 . S
H438 C437 0.960 . S
H439 N419 0.862 . S
O440 Co408 1.920 . S
O440 C413 1.289 . S
C441 O433 1.258 . S
C441 O434 1.266 . S
Co442 O445 1.970 . S
Co442 N459 1.989 . S
Co442 O467 1.967 . S
Co442 O474 1.920 . S
Co443 O446 1.966 . S
Co443 N452 2.022 . S
Co443 N460 1.993 . S
Co443 O468 1.941 . S
C444 O445 1.258 . S
C444 O446 1.263 . S
O445 Co442 1.970 . S
O445 C444 1.258 . S
O446 Co443 1.966 . S
O446 C444 1.263 . S
C447 O448 1.235 . S
C447 O474 1.289 . S
O448 C447 1.235 . S
C449 C451 1.400 . S
C449 N452 1.351 . S
C449 C454 1.501 . S
C450 C451 1.387 . S
C450 N453 1.341 . S
C451 C449 1.400 . S
C451 C450 1.387 . S
N452 Co443 2.022 . S
N452 C449 1.351 . S
N452 N453 1.365 . S
N453 C450 1.341 . S
N453 N452 1.365 . S
N453 H473 0.862 . S
C454 C449 1.501 . S
C454 H455 0.961 . S
C454 H456 0.961 . S
C454 H457 0.960 . S
H455 C454 0.961 . S
H456 C454 0.961 . S
H457 C454 0.960 . S
C458 N459 1.342 . S
C458 C462 1.401 . S
C458 C463 1.499 . S
N459 Co442 1.989 . S
N459 C458 1.342 . S
N459 N460 1.388 . S
N460 Co443 1.993 . S
N460 N459 1.388 . S
N460 C461 1.346 . S
C461 N460 1.346 . S
C461 C462 1.396 . S
C461 C471 1.510 . S
C462 C458 1.401 . S
C462 C461 1.396 . S
C463 C458 1.499 . S
C463 H464 0.959 . S
C463 H465 0.960 . S
C463 H466 0.961 . S
H464 C463 0.959 . S
H465 C463 0.960 . S
H466 C463 0.961 . S
O467 Co442 1.967 . S
O467 C475 1.258 . S
O468 Co443 1.941 . S
O468 C475 1.266 . S
H469 C471 0.959 . S
H470 C471 0.961 . S
C471 C461 1.510 . S
C471 H469 0.959 . S
C471 H470 0.961 . S
C471 H472 0.960 . S
H472 C471 0.960 . S
H473 N453 0.862 . S
O474 Co442 1.920 . S
O474 C447 1.289 . S
C475 O467 1.258 . S
C475 O468 1.266 . S
Co476 O479 1.970 . S
Co476 N493 1.989 . S
Co476 O501 1.967 . S
Co476 O508 1.920 . S
Co477 O480 1.966 . S
Co477 N486 2.022 . S
Co477 N494 1.993 . S
Co477 O502 1.941 . S
C478 O479 1.258 . S
C478 O480 1.263 . S
O479 Co476 1.970 . S
O479 C478 1.258 . S
O480 Co477 1.966 . S
O480 C478 1.263 . S
C481 O482 1.235 . S
C481 O508 1.289 . S
O482 C481 1.235 . S
C483 C485 1.400 . S
C483 N486 1.351 . S
C483 C488 1.501 . S
C484 C485 1.387 . S
C484 N487 1.341 . S
C485 C483 1.400 . S
C485 C484 1.387 . S
N486 Co477 2.022 . S
N486 C483 1.351 . S
N486 N487 1.365 . S
N487 C484 1.341 . S
N487 N486 1.365 . S
N487 H507 0.862 . S
C488 C483 1.501 . S
C488 H489 0.961 . S
C488 H490 0.961 . S
C488 H491 0.960 . S
H489 C488 0.961 . S
H490 C488 0.961 . S
H491 C488 0.960 . S
C492 N493 1.342 . S
C492 C496 1.401 . S
C492 C497 1.499 . S
N493 Co476 1.989 . S
N493 C492 1.342 . S
N493 N494 1.388 . S
N494 Co477 1.993 . S
N494 N493 1.388 . S
N494 C495 1.346 . S
C495 N494 1.346 . S
C495 C496 1.396 . S
C495 C505 1.510 . S
C496 C492 1.401 . S
C496 C495 1.396 . S
C497 C492 1.499 . S
C497 H498 0.959 . S
C497 H499 0.960 . S
C497 H500 0.961 . S
H498 C497 0.959 . S
H499 C497 0.960 . S
H500 C497 0.961 . S
O501 Co476 1.967 . S
O501 C509 1.258 . S
O502 Co477 1.941 . S
O502 C509 1.266 . S
H503 C505 0.959 . S
H504 C505 0.961 . S
C505 C495 1.510 . S
C505 H503 0.959 . S
C505 H504 0.961 . S
C505 H506 0.960 . S
H506 C505 0.960 . S
H507 N487 0.862 . S
O508 Co476 1.920 . S
O508 C481 1.289 . S
C509 O501 1.258 . S
C509 O502 1.266 . S
Co510 O513 1.970 . S
Co510 N527 1.989 . S
Co510 O535 1.967 . S
Co510 O542 1.920 . S
Co511 O514 1.966 . S
Co511 N520 2.022 . S
Co511 N528 1.993 . S
Co511 O536 1.941 . S
C512 O513 1.258 . S
C512 O514 1.263 . S
O513 Co510 1.970 . S
O513 C512 1.258 . S
O514 Co511 1.966 . S
O514 C512 1.263 . S
C515 O516 1.235 . S
C515 O542 1.289 . S
O516 C515 1.235 . S
C517 C519 1.400 . S
C517 N520 1.351 . S
C517 C522 1.501 . S
C518 C519 1.387 . S
C518 N521 1.341 . S
C519 C517 1.400 . S
C519 C518 1.387 . S
N520 Co511 2.022 . S
N520 C517 1.351 . S
N520 N521 1.365 . S
N521 C518 1.341 . S
N521 N520 1.365 . S
N521 H541 0.862 . S
C522 C517 1.501 . S
C522 H523 0.961 . S
C522 H524 0.961 . S
C522 H525 0.960 . S
H523 C522 0.961 . S
H524 C522 0.961 . S
H525 C522 0.960 . S
C526 N527 1.342 . S
C526 C530 1.401 . S
C526 C531 1.499 . S
N527 Co510 1.989 . S
N527 C526 1.342 . S
N527 N528 1.388 . S
N528 Co511 1.993 . S
N528 N527 1.388 . S
N528 C529 1.346 . S
C529 N528 1.346 . S
C529 C530 1.396 . S
C529 C539 1.510 . S
C530 C526 1.401 . S
C530 C529 1.396 . S
C531 C526 1.499 . S
C531 H532 0.959 . S
C531 H533 0.960 . S
C531 H534 0.961 . S
H532 C531 0.959 . S
H533 C531 0.960 . S
H534 C531 0.961 . S
O535 Co510 1.967 . S
O535 C543 1.258 . S
O536 Co511 1.941 . S
O536 C543 1.266 . S
H537 C539 0.959 . S
H538 C539 0.961 . S
C539 C529 1.510 . S
C539 H537 0.959 . S
C539 H538 0.961 . S
C539 H540 0.960 . S
H540 C539 0.960 . S
H541 N521 0.862 . S
O542 Co510 1.920 . S
O542 C515 1.289 . S
C543 O535 1.258 . S
C543 O536 1.266 . S
H544 C550 0.930 . S
H545 C553 0.930 . S
H546 C554 0.930 . S
H547 C555 0.930 . S
H548 C558 0.930 . S
H549 C559 0.930 . S
C550 H544 0.930 . S
C550 C551 1.355 . S
C550 C552 1.415 . S
C551 C550 1.355 . S
C551 C553 1.419 . S
C552 C550 1.415 . S
C552 C557 1.425 . S
C552 C559 1.409 . S
C553 H545 0.930 . S
C553 C551 1.419 . S
C553 C554 1.362 . S
C554 H546 0.930 . S
C554 C553 1.362 . S
C554 C557 1.409 . S
C555 H547 0.930 . S
C555 C556 1.355 . S
C555 C557 1.415 . S
C556 C555 1.355 . S
C556 C558 1.419 . S
C557 C552 1.425 . S
C557 C554 1.409 . S
C557 C555 1.415 . S
C558 H548 0.930 . S
C558 C556 1.419 . S
C558 C559 1.362 . S
C559 H549 0.930 . S
C559 C552 1.409 . S
C559 C558 1.362 . S
H560 C566 0.930 . S
H561 C569 0.930 . S
H562 C570 0.930 . S
H563 C571 0.930 . S
H564 C574 0.930 . S
H565 C575 0.930 . S
C566 H560 0.930 . S
C566 C567 1.355 . S
C566 C568 1.415 . S
C567 C566 1.355 . S
C567 C569 1.419 . S
C568 C566 1.415 . S
C568 C573 1.425 . S
C568 C575 1.409 . S
C569 H561 0.930 . S
C569 C567 1.419 . S
C569 C570 1.362 . S
C570 H562 0.930 . S
C570 C569 1.362 . S
C570 C573 1.409 . S
C571 H563 0.930 . S
C571 C572 1.355 . S
C571 C573 1.415 . S
C572 C571 1.355 . S
C572 C574 1.419 . S
C573 C568 1.425 . S
C573 C570 1.409 . S
C573 C571 1.415 . S
C574 H564 0.930 . S
C574 C572 1.419 . S
C574 C575 1.362 . S
C575 H565 0.930 . S
C575 C568 1.409 . S
C575 C574 1.362 . S
H576 C582 0.930 . S
H577 C585 0.930 . S
H578 C586 0.930 . S
H579 C587 0.930 . S
H580 C590 0.930 . S
H581 C591 0.930 . S
C582 H576 0.930 . S
C582 C583 1.355 . S
C582 C584 1.415 . S
C583 C582 1.355 . S
C583 C585 1.419 . S
C584 C582 1.415 . S
C584 C589 1.425 . S
C584 C591 1.409 . S
C585 H577 0.930 . S
C585 C583 1.419 . S
C585 C586 1.362 . S
C586 H578 0.930 . S
C586 C585 1.362 . S
C586 C589 1.409 . S
C587 H579 0.930 . S
C587 C588 1.355 . S
C587 C589 1.415 . S
C588 C587 1.355 . S
C588 C590 1.419 . S
C589 C584 1.425 . S
C589 C586 1.409 . S
C589 C587 1.415 . S
C590 H580 0.930 . S
C590 C588 1.419 . S
C590 C591 1.362 . S
C591 H581 0.930 . S
C591 C584 1.409 . S
C591 C590 1.362 . S
H592 C598 0.930 . S
H593 C601 0.930 . S
H594 C602 0.930 . S
H595 C603 0.930 . S
H596 C606 0.930 . S
H597 C607 0.930 . S
C598 H592 0.930 . S
C598 C599 1.355 . S
C598 C600 1.415 . S
C599 C598 1.355 . S
C599 C601 1.419 . S
C600 C598 1.415 . S
C600 C605 1.425 . S
C600 C607 1.409 . S
C601 H593 0.930 . S
C601 C599 1.419 . S
C601 C602 1.362 . S
C602 H594 0.930 . S
C602 C601 1.362 . S
C602 C605 1.409 . S
C603 H595 0.930 . S
C603 C604 1.355 . S
C603 C605 1.415 . S
C604 C603 1.355 . S
C604 C606 1.419 . S
C605 C600 1.425 . S
C605 C602 1.409 . S
C605 C603 1.415 . S
C606 H596 0.930 . S
C606 C604 1.419 . S
C606 C607 1.362 . S
C607 H597 0.930 . S
C607 C600 1.409 . S
C607 C606 1.362 . S
H608 C614 0.930 . S
H609 C617 0.930 . S
H610 C618 0.930 . S
H611 C619 0.930 . S
H612 C622 0.930 . S
H613 C623 0.930 . S
C614 H608 0.930 . S
C614 C615 1.355 . S
C614 C616 1.415 . S
C615 C614 1.355 . S
C615 C617 1.419 . S
C616 C614 1.415 . S
C616 C621 1.425 . S
C616 C623 1.409 . S
C617 H609 0.930 . S
C617 C615 1.419 . S
C617 C618 1.362 . S
C618 H610 0.930 . S
C618 C617 1.362 . S
C618 C621 1.409 . S
C619 H611 0.930 . S
C619 C620 1.355 . S
C619 C621 1.415 . S
C620 C619 1.355 . S
C620 C622 1.419 . S
C621 C616 1.425 . S
C621 C618 1.409 . S
C621 C619 1.415 . S
C622 H612 0.930 . S
C622 C620 1.419 . S
C622 C623 1.362 . S
C623 H613 0.930 . S
C623 C616 1.409 . S
C623 C622 1.362 . S
H624 C630 0.930 . S
H625 C633 0.930 . S
H626 C634 0.930 . S
H627 C635 0.930 . S
H628 C638 0.930 . S
H629 C639 0.930 . S
C630 H624 0.930 . S
C630 C631 1.355 . S
C630 C632 1.415 . S
C631 C630 1.355 . S
C631 C633 1.419 . S
C632 C630 1.415 . S
C632 C637 1.425 . S
C632 C639 1.409 . S
C633 H625 0.930 . S
C633 C631 1.419 . S
C633 C634 1.362 . S
C634 H626 0.930 . S
C634 C633 1.362 . S
C634 C637 1.409 . S
C635 H627 0.930 . S
C635 C636 1.355 . S
C635 C637 1.415 . S
C636 C635 1.355 . S
C636 C638 1.419 . S
C637 C632 1.425 . S
C637 C634 1.409 . S
C637 C635 1.415 . S
C638 H628 0.930 . S
C638 C636 1.419 . S
C638 C639 1.362 . S
C639 H629 0.930 . S
C639 C632 1.409 . S
C639 C638 1.362 . S
H640 C646 0.930 . S
H641 C649 0.930 . S
H642 C650 0.930 . S
H643 C651 0.930 . S
H644 C654 0.930 . S
H645 C655 0.930 . S
C646 H640 0.930 . S
C646 C647 1.355 . S
C646 C648 1.415 . S
C647 C646 1.355 . S
C647 C649 1.419 . S
C648 C646 1.415 . S
C648 C653 1.425 . S
C648 C655 1.409 . S
C649 H641 0.930 . S
C649 C647 1.419 . S
C649 C650 1.362 . S
C650 H642 0.930 . S
C650 C649 1.362 . S
C650 C653 1.409 . S
C651 H643 0.930 . S
C651 C652 1.355 . S
C651 C653 1.415 . S
C652 C651 1.355 . S
C652 C654 1.419 . S
C653 C648 1.425 . S
C653 C650 1.409 . S
C653 C651 1.415 . S
C654 H644 0.930 . S
C654 C652 1.419 . S
C654 C655 1.362 . S
C655 H645 0.930 . S
C655 C648 1.409 . S
C655 C654 1.362 . S
H656 C662 0.930 . S
H657 C665 0.930 . S
H658 C666 0.930 . S
H659 C667 0.930 . S
H660 C670 0.930 . S
H661 C671 0.930 . S
C662 H656 0.930 . S
C662 C663 1.355 . S
C662 C664 1.415 . S
C663 C662 1.355 . S
C663 C665 1.419 . S
C664 C662 1.415 . S
C664 C669 1.425 . S
C664 C671 1.409 . S
C665 H657 0.930 . S
C665 C663 1.419 . S
C665 C666 1.362 . S
C666 H658 0.930 . S
C666 C665 1.362 . S
C666 C669 1.409 . S
C667 H659 0.930 . S
C667 C668 1.355 . S
C667 C669 1.415 . S
C668 C667 1.355 . S
C668 C670 1.419 . S
C669 C664 1.425 . S
C669 C666 1.409 . S
C669 C667 1.415 . S
C670 H660 0.930 . S
C670 C668 1.419 . S
C670 C671 1.362 . S
C671 H661 0.930 . S
C671 C664 1.409 . S
C671 C670 1.362 . S
H672 C678 0.930 . S
H673 C681 0.930 . S
H674 C682 0.930 . S
H675 C683 0.930 . S
H676 C686 0.930 . S
H677 C687 0.930 . S
C678 H672 0.930 . S
C678 C679 1.355 . S
C678 C680 1.415 . S
C679 C678 1.355 . S
C679 C681 1.419 . S
C680 C678 1.415 . S
C680 C685 1.425 . S
C680 C687 1.409 1_554 S
C681 H673 0.930 . S
C681 C679 1.419 . S
C681 C682 1.362 . S
C682 H674 0.930 . S
C682 C681 1.362 . S
C682 C685 1.409 . S
C683 H675 0.930 . S
C683 C684 1.355 . S
C683 C685 1.415 1_556 S
C684 C683 1.355 . S
C684 C686 1.419 . S
C685 C680 1.425 . S
C685 C682 1.409 . S
C685 C683 1.415 1_554 S
C686 H676 0.930 . S
C686 C684 1.419 . S
C686 C687 1.362 . S
C687 H677 0.930 . S
C687 C680 1.409 1_556 S
C687 C686 1.362 . S
H688 C694 0.930 . S
H689 C697 0.930 . S
H690 C698 0.930 . S
H691 C699 0.930 . S
H692 C702 0.930 . S
H693 C703 0.930 1_554 S
C694 H688 0.930 . S
C694 C695 1.355 . S
C694 C696 1.415 . S
C695 C694 1.355 . S
C695 C697 1.419 . S
C696 C694 1.415 . S
C696 C701 1.425 1_554 S
C696 C703 1.409 1_554 S
C697 H689 0.930 . S
C697 C695 1.419 . S
C697 C698 1.362 . S
C698 H690 0.930 . S
C698 C697 1.362 . S
C698 C701 1.409 1_554 S
C699 H691 0.930 . S
C699 C700 1.355 . S
C699 C701 1.415 . S
C700 C699 1.355 . S
C700 C702 1.419 . S
C701 C696 1.425 1_556 S
C701 C698 1.409 1_556 S
C701 C699 1.415 . S
C702 H692 0.930 . S
C702 C700 1.419 . S
C702 C703 1.362 . S
C703 H693 0.930 1_556 S
C703 C696 1.409 1_556 S
C703 C702 1.362 . S
H704 C710 0.930 . S
H705 C713 0.930 . S
H706 C714 0.930 . S
H707 C715 0.930 . S
H708 C718 0.930 . S
H709 C719 0.930 . S
C710 H704 0.930 . S
C710 C711 1.355 . S
C710 C712 1.415 . S
C711 C710 1.355 . S
C711 C713 1.419 . S
C712 C710 1.415 . S
C712 C717 1.425 . S
C712 C719 1.409 1_554 S
C713 H705 0.930 . S
C713 C711 1.419 . S
C713 C714 1.362 . S
C714 H706 0.930 . S
C714 C713 1.362 . S
C714 C717 1.409 . S
C715 H707 0.930 . S
C715 C716 1.355 . S
C715 C717 1.415 1_556 S
C716 C715 1.355 . S
C716 C718 1.419 . S
C717 C712 1.425 . S
C717 C714 1.409 . S
C717 C715 1.415 1_554 S
C718 H708 0.930 . S
C718 C716 1.419 . S
C718 C719 1.362 . S
C719 H709 0.930 . S
C719 C712 1.409 1_556 S
C719 C718 1.362 . S
H720 C726 0.930 . S
H721 C729 0.930 . S
H722 C730 0.930 . S
H723 C731 0.930 . S
H724 C734 0.930 . S
H725 C735 0.930 . S
C726 H720 0.930 . S
C726 C727 1.355 . S
C726 C728 1.415 . S
C727 C726 1.355 . S
C727 C729 1.419 . S
C728 C726 1.415 . S
C728 C733 1.425 . S
C728 C735 1.409 1_554 S
C729 H721 0.930 . S
C729 C727 1.419 . S
C729 C730 1.362 . S
C730 H722 0.930 . S
C730 C729 1.362 . S
C730 C733 1.409 . S
C731 H723 0.930 . S
C731 C732 1.355 . S
C731 C733 1.415 1_556 S
C732 C731 1.355 . S
C732 C734 1.419 . S
C733 C728 1.425 . S
C733 C730 1.409 . S
C733 C731 1.415 1_554 S
C734 H724 0.930 . S
C734 C732 1.419 . S
C734 C735 1.362 . S
C735 H725 0.930 . S
C735 C728 1.409 1_556 S
C735 C734 1.362 . S
H736 C742 0.930 . S
H737 C745 0.930 . S
H738 C746 0.930 . S
H739 C747 0.930 . S
H740 C750 0.930 . S
H741 C751 0.930 . S
C742 H736 0.930 . S
C742 C743 1.355 . S
C742 C744 1.415 1_554 S
C743 C742 1.355 . S
C743 C745 1.419 . S
C744 C742 1.415 1_556 S
C744 C749 1.425 . S
C744 C751 1.409 . S
C745 H737 0.930 . S
C745 C743 1.419 . S
C745 C746 1.362 . S
C746 H738 0.930 . S
C746 C745 1.362 . S
C746 C749 1.409 1_554 S
C747 H739 0.930 . S
C747 C748 1.355 . S
C747 C749 1.415 . S
C748 C747 1.355 . S
C748 C750 1.419 . S
C749 C744 1.425 . S
C749 C746 1.409 1_556 S
C749 C747 1.415 . S
C750 H740 0.930 . S
C750 C748 1.419 . S
C750 C751 1.362 . S
C751 H741 0.930 . S
C751 C744 1.409 . S
C751 C750 1.362 . S
H752 C758 0.930 . S
H753 C761 0.930 . S
H754 C762 0.930 . S
H755 C763 0.930 . S
H756 C766 0.930 . S
H757 C767 0.930 . S
C758 H752 0.930 . S
C758 C759 1.355 . S
C758 C760 1.415 . S
C759 C758 1.355 . S
C759 C761 1.419 . S
C760 C758 1.415 . S
C760 C765 1.425 1_554 S
C760 C767 1.409 1_554 S
C761 H753 0.930 . S
C761 C759 1.419 . S
C761 C762 1.362 1_554 S
C762 H754 0.930 . S
C762 C761 1.362 1_556 S
C762 C765 1.409 . S
C763 H755 0.930 . S
C763 C764 1.355 . S
C763 C765 1.415 . S
C764 C763 1.355 . S
C764 C766 1.419 . S
C765 C760 1.425 1_556 S
C765 C762 1.409 . S
C765 C763 1.415 . S
C766 H756 0.930 . S
C766 C764 1.419 . S
C766 C767 1.362 . S
C767 H757 0.930 . S
C767 C760 1.409 1_556 S
C767 C766 1.362 . S
H768 C774 0.930 . S
H769 C777 0.930 . S
H770 C778 0.930 . S
H771 C779 0.930 . S
H772 C782 0.930 . S
H773 C783 0.930 . S
C774 H768 0.930 . S
C774 C775 1.355 . S
C774 C776 1.415 1_554 S
C775 C774 1.355 . S
C775 C777 1.419 . S
C776 C774 1.415 1_556 S
C776 C781 1.425 . S
C776 C783 1.409 . S
C777 H769 0.930 . S
C777 C775 1.419 . S
C777 C778 1.362 . S
C778 H770 0.930 . S
C778 C777 1.362 . S
C778 C781 1.409 1_554 S
C779 H771 0.930 . S
C779 C780 1.355 . S
C779 C781 1.415 . S
C780 C779 1.355 . S
C780 C782 1.419 . S
C781 C776 1.425 . S
C781 C778 1.409 1_556 S
C781 C779 1.415 . S
C782 H772 0.930 . S
C782 C780 1.419 . S
C782 C783 1.362 . S
C783 H773 0.930 . S
C783 C776 1.409 . S
C783 C782 1.362 . S
H784 C790 0.930 . S
H785 C793 0.930 . S
H786 C794 0.930 . S
H787 C795 0.930 . S
H788 C798 0.930 . S
H789 C799 0.930 . S
C790 H784 0.930 . S
C790 C791 1.355 . S
C790 C792 1.415 1_554 S
C791 C790 1.355 . S
C791 C793 1.419 . S
C792 C790 1.415 1_556 S
C792 C797 1.425 . S
C792 C799 1.409 . S
C793 H785 0.930 . S
C793 C791 1.419 . S
C793 C794 1.362 . S
C794 H786 0.930 . S
C794 C793 1.362 . S
C794 C797 1.409 1_554 S
C795 H787 0.930 . S
C795 C796 1.355 . S
C795 C797 1.415 . S
C796 C795 1.355 . S
C796 C798 1.419 . S
C797 C792 1.425 . S
C797 C794 1.409 1_556 S
C797 C795 1.415 . S
C798 H788 0.930 . S
C798 C796 1.419 . S
C798 C799 1.362 . S
C799 H789 0.930 . S
C799 C792 1.409 . S
C799 C798 1.362 . S
H800 C806 0.930 . S
H801 C809 0.930 . S
H802 C810 0.930 . S
H803 C811 0.930 . S
H804 C814 0.930 . S
H805 C815 0.930 . S
C806 H800 0.930 . S
C806 C807 1.355 . S
C806 C808 1.415 . S
C807 C806 1.355 . S
C807 C809 1.419 . S
C808 C806 1.415 . S
C808 C813 1.425 . S
C808 C815 1.409 . S
C809 H801 0.930 . S
C809 C807 1.419 . S
C809 C810 1.362 . S
C810 H802 0.930 . S
C810 C809 1.362 . S
C810 C813 1.409 . S
C811 H803 0.930 . S
C811 C812 1.355 . S
C811 C813 1.415 . S
C812 C811 1.355 . S
C812 C814 1.419 . S
C813 C808 1.425 . S
C813 C810 1.409 . S
C813 C811 1.415 . S
C814 H804 0.930 . S
C814 C812 1.419 . S
C814 C815 1.362 . S
C815 H805 0.930 . S
C815 C808 1.409 . S
C815 C814 1.362 . S
H816 C822 0.930 . S
H817 C825 0.930 . S
H818 C826 0.930 . S
H819 C827 0.930 . S
H820 C830 0.930 . S
H821 C831 0.930 . S
C822 H816 0.930 . S
C822 C823 1.355 . S
C822 C824 1.415 . S
C823 C822 1.355 . S
C823 C825 1.419 . S
C824 C822 1.415 . S
C824 C829 1.425 . S
C824 C831 1.409 . S
C825 H817 0.930 . S
C825 C823 1.419 . S
C825 C826 1.362 . S
C826 H818 0.930 . S
C826 C825 1.362 . S
C826 C829 1.409 . S
C827 H819 0.930 . S
C827 C828 1.355 . S
C827 C829 1.415 . S
C828 C827 1.355 . S
C828 C830 1.419 . S
C829 C824 1.425 . S
C829 C826 1.409 . S
C829 C827 1.415 . S
C830 H820 0.930 . S
C830 C828 1.419 . S
C830 C831 1.362 . S
C831 H821 0.930 . S
C831 C824 1.409 . S
C831 C830 1.362 . S
H832 C838 0.930 . S
H833 C841 0.930 . S
H834 C842 0.930 . S
H835 C843 0.930 . S
H836 C846 0.930 . S
H837 C847 0.930 . S
C838 H832 0.930 . S
C838 C839 1.355 . S
C838 C840 1.415 . S
C839 C838 1.355 . S
C839 C841 1.419 . S
C840 C838 1.415 . S
C840 C845 1.425 . S
C840 C847 1.409 . S
C841 H833 0.930 . S
C841 C839 1.419 . S
C841 C842 1.362 . S
C842 H834 0.930 . S
C842 C841 1.362 . S
C842 C845 1.409 . S
C843 H835 0.930 . S
C843 C844 1.355 . S
C843 C845 1.415 . S
C844 C843 1.355 . S
C844 C846 1.419 . S
C845 C840 1.425 . S
C845 C842 1.409 . S
C845 C843 1.415 . S
C846 H836 0.930 . S
C846 C844 1.419 . S
C846 C847 1.362 . S
C847 H837 0.930 . S
C847 C840 1.409 . S
C847 C846 1.362 . S
H848 C854 0.930 . S
H849 C857 0.930 . S
H850 C858 0.930 . S
H851 C859 0.930 . S
H852 C862 0.930 . S
H853 C863 0.930 . S
C854 H848 0.930 . S
C854 C855 1.355 . S
C854 C856 1.415 . S
C855 C854 1.355 . S
C855 C857 1.419 . S
C856 C854 1.415 . S
C856 C861 1.425 . S
C856 C863 1.409 . S
C857 H849 0.930 . S
C857 C855 1.419 . S
C857 C858 1.362 . S
C858 H850 0.930 . S
C858 C857 1.362 . S
C858 C861 1.409 . S
C859 H851 0.930 . S
C859 C860 1.355 . S
C859 C861 1.415 . S
C860 C859 1.355 . S
C860 C862 1.419 . S
C861 C856 1.425 . S
C861 C858 1.409 . S
C861 C859 1.415 . S
C862 H852 0.930 . S
C862 C860 1.419 . S
C862 C863 1.362 . S
C863 H853 0.930 . S
C863 C856 1.409 . S
C863 C862 1.362 . S
H864 C870 0.930 . S
H865 C873 0.930 . S
H866 C874 0.930 . S
H867 C875 0.930 . S
H868 C878 0.930 . S
H869 C879 0.930 . S
C870 H864 0.930 . S
C870 C871 1.355 . S
C870 C872 1.415 . S
C871 C870 1.355 . S
C871 C873 1.419 . S
C872 C870 1.415 . S
C872 C877 1.425 . S
C872 C879 1.409 . S
C873 H865 0.930 . S
C873 C871 1.419 . S
C873 C874 1.362 . S
C874 H866 0.930 . S
C874 C873 1.362 . S
C874 C877 1.409 . S
C875 H867 0.930 . S
C875 C876 1.355 . S
C875 C877 1.415 . S
C876 C875 1.355 . S
C876 C878 1.419 . S
C877 C872 1.425 . S
C877 C874 1.409 . S
C877 C875 1.415 . S
C878 H868 0.930 . S
C878 C876 1.419 . S
C878 C879 1.362 . S
C879 H869 0.930 . S
C879 C872 1.409 . S
C879 C878 1.362 . S
H880 C886 0.930 . S
H881 C889 0.930 . S
H882 C890 0.930 . S
H883 C891 0.930 . S
H884 C894 0.930 . S
H885 C895 0.930 . S
C886 H880 0.930 . S
C886 C887 1.355 . S
C886 C888 1.415 . S
C887 C886 1.355 . S
C887 C889 1.419 . S
C888 C886 1.415 . S
C888 C893 1.425 . S
C888 C895 1.409 . S
C889 H881 0.930 . S
C889 C887 1.419 . S
C889 C890 1.362 . S
C890 H882 0.930 . S
C890 C889 1.362 . S
C890 C893 1.409 . S
C891 H883 0.930 . S
C891 C892 1.355 . S
C891 C893 1.415 . S
C892 C891 1.355 . S
C892 C894 1.419 . S
C893 C888 1.425 . S
C893 C890 1.409 . S
C893 C891 1.415 . S
C894 H884 0.930 . S
C894 C892 1.419 . S
C894 C895 1.362 . S
C895 H885 0.930 . S
C895 C888 1.409 . S
C895 C894 1.362 . S
H896 C902 0.930 . S
H897 C905 0.930 . S
H898 C906 0.930 . S
H899 C907 0.930 . S
H900 C910 0.930 . S
H901 C911 0.930 . S
C902 H896 0.930 . S
C902 C903 1.355 . S
C902 C904 1.415 . S
C903 C902 1.355 . S
C903 C905 1.419 . S
C904 C902 1.415 . S
C904 C909 1.425 . S
C904 C911 1.409 . S
C905 H897 0.930 . S
C905 C903 1.419 . S
C905 C906 1.362 . S
C906 H898 0.930 . S
C906 C905 1.362 . S
C906 C909 1.409 . S
C907 H899 0.930 . S
C907 C908 1.355 . S
C907 C909 1.415 . S
C908 C907 1.355 . S
C908 C910 1.419 . S
C909 C904 1.425 . S
C909 C906 1.409 . S
C909 C907 1.415 . S
C910 H900 0.930 . S
C910 C908 1.419 . S
C910 C911 1.362 . S
C911 H901 0.930 . S
C911 C904 1.409 . S
C911 C910 1.362 . S
H912 C918 0.930 . S
H913 C921 0.930 . S
H914 C922 0.930 . S
H915 C923 0.930 . S
H916 C926 0.930 . S
H917 C927 0.930 . S
C918 H912 0.930 . S
C918 C919 1.355 . S
C918 C920 1.415 . S
C919 C918 1.355 . S
C919 C921 1.419 . S
C920 C918 1.415 . S
C920 C925 1.425 . S
C920 C927 1.409 . S
C921 H913 0.930 . S
C921 C919 1.419 . S
C921 C922 1.362 . S
C922 H914 0.930 . S
C922 C921 1.362 . S
C922 C925 1.409 . S
C923 H915 0.930 . S
C923 C924 1.355 . S
C923 C925 1.415 . S
C924 C923 1.355 . S
C924 C926 1.419 . S
C925 C920 1.425 . S
C925 C922 1.409 . S
C925 C923 1.415 . S
C926 H916 0.930 . S
C926 C924 1.419 . S
C926 C927 1.362 . S
C927 H917 0.930 . S
C927 C920 1.409 . S
C927 C926 1.362 . S
H928 C934 0.930 . S
H929 C937 0.930 . S
H930 C938 0.930 . S
H931 C939 0.930 . S
H932 C942 0.930 . S
H933 C943 0.930 . S
C934 H928 0.930 . S
C934 C935 1.355 . S
C934 C936 1.415 . S
C935 C934 1.355 . S
C935 C937 1.419 1_554 S
C936 C934 1.415 . S
C936 C941 1.425 1_544 S
C936 C943 1.409 1_545 S
C937 H929 0.930 . S
C937 C935 1.419 1_556 S
C937 C938 1.362 . S
C938 H930 0.930 . S
C938 C937 1.362 . S
C938 C941 1.409 1_545 S
C939 H931 0.930 . S
C939 C940 1.355 . S
C939 C941 1.415 . S
C940 C939 1.355 . S
C940 C942 1.419 1_556 S
C941 C936 1.425 1_566 S
C941 C938 1.409 1_565 S
C941 C939 1.415 . S
C942 H932 0.930 . S
C942 C940 1.419 1_554 S
C942 C943 1.362 . S
C943 H933 0.930 . S
C943 C936 1.409 1_565 S
C943 C942 1.362 . S
H944 C950 0.930 . S
H945 C953 0.930 . S
H946 C954 0.914 1_655 S
H947 C955 0.930 . S
H948 C958 0.930 . S
H949 C959 0.914 1_455 S
C950 H944 0.930 . S
C950 C951 1.355 1_554 S
C950 C952 1.415 . S
C951 C950 1.355 1_556 S
C951 C953 1.419 . S
C952 C950 1.415 . S
C952 C957 1.425 1_454 S
C952 C959 1.409 1_455 S
C953 H945 0.930 . S
C953 C951 1.419 . S
C953 C954 1.362 . S
C954 H946 0.914 1_455 S
C954 C953 1.362 . S
C954 C957 1.409 1_455 S
C955 H947 0.930 . S
C955 C956 1.355 1_556 S
C955 C957 1.415 . S
C956 C955 1.355 1_554 S
C956 C958 1.419 . S
C957 C952 1.425 1_656 S
C957 C954 1.409 1_655 S
C957 C955 1.415 . S
C958 H948 0.930 . S
C958 C956 1.419 . S
C958 C959 1.362 . S
C959 H949 0.914 1_655 S
C959 C952 1.409 1_655 S
C959 C958 1.362 . S
H960 C966 0.930 . S
H961 C969 0.930 . S
H962 C970 0.930 . S
H963 C971 0.930 . S
H964 C974 0.930 . S
H965 C975 0.930 . S
C966 H960 0.930 . S
C966 C967 1.355 . S
C966 C968 1.415 . S
C967 C966 1.355 . S
C967 C969 1.419 1_554 S
C968 C966 1.415 . S
C968 C973 1.425 1_564 S
C968 C975 1.409 1_565 S
C969 H961 0.930 . S
C969 C967 1.419 1_556 S
C969 C970 1.362 . S
C970 H962 0.930 . S
C970 C969 1.362 . S
C970 C973 1.409 1_565 S
C971 H963 0.930 . S
C971 C972 1.355 . S
C971 C973 1.415 . S
C972 C971 1.355 . S
C972 C974 1.419 1_556 S
C973 C968 1.425 1_546 S
C973 C970 1.409 1_545 S
C973 C971 1.415 . S
C974 H964 0.930 . S
C974 C972 1.419 1_554 S
C974 C975 1.362 . S
C975 H965 0.930 . S
C975 C968 1.409 1_545 S
C975 C974 1.362 . S
H976 C982 0.930 . S
H977 C985 0.930 . S
H978 C986 0.930 . S
H979 C987 0.930 . S
H980 C990 0.930 . S
H981 C991 0.930 . S
C982 H976 0.930 . S
C982 C983 1.355 . S
C982 C984 1.415 . S
C983 C982 1.355 . S
C983 C985 1.419 1_556 S
C984 C982 1.415 . S
C984 C989 1.425 1_656 S
C984 C991 1.409 1_655 S
C985 H977 0.930 . S
C985 C983 1.419 1_554 S
C985 C986 1.362 . S
C986 H978 0.930 . S
C986 C985 1.362 . S
C986 C989 1.409 1_655 S
C987 H979 0.930 . S
C987 C988 1.355 . S
C987 C989 1.415 . S
C988 C987 1.355 . S
C988 C990 1.419 1_554 S
C989 C984 1.425 1_454 S
C989 C986 1.409 1_455 S
C989 C987 1.415 . S
C990 H980 0.930 . S
C990 C988 1.419 1_556 S
C990 C991 1.362 . S
C991 H981 0.930 . S
C991 C984 1.409 1_455 S
C991 C990 1.362 . S
H992 C998 0.930 . S
H993 C1001 0.930 . S
H994 C1002 0.930 . S
H995 C1003 0.930 . S
H996 C1006 0.930 . S
H997 C1007 0.930 . S
C998 H992 0.930 . S
C998 C999 1.355 . S
C998 C1000 1.415 . S
C999 C998 1.355 . S
C999 C1001 1.419 . S
C1000 C998 1.415 . S
C1000 C1005 1.425 . S
C1000 C1007 1.409 . S
C1001 H993 0.930 . S
C1001 C999 1.419 . S
C1001 C1002 1.362 . S
C1002 H994 0.930 . S
C1002 C1001 1.362 . S
C1002 C1005 1.409 . S
C1003 H995 0.930 . S
C1003 C1004 1.355 . S
C1003 C1005 1.415 . S
C1004 C1003 1.355 . S
C1004 C1006 1.419 . S
C1005 C1000 1.425 . S
C1005 C1002 1.409 . S
C1005 C1003 1.415 . S
C1006 H996 0.930 . S
C1006 C1004 1.419 . S
C1006 C1007 1.362 . S
C1007 H997 0.930 . S
C1007 C1000 1.409 . S
C1007 C1006 1.362 . S
H1008 C1014 0.930 . S
H1009 C1017 0.930 . S
H1010 C1018 0.930 . S
H1011 C1019 0.930 . S
H1012 C1022 0.930 . S
H1013 C1023 0.930 . S
C1014 H1008 0.930 . S
C1014 C1015 1.355 . S
C1014 C1016 1.415 . S
C1015 C1014 1.355 . S
C1015 C1017 1.419 . S
C1016 C1014 1.415 . S
C1016 C1021 1.425 . S
C1016 C1023 1.409 . S
C1017 H1009 0.930 . S
C1017 C1015 1.419 . S
C1017 C1018 1.362 . S
C1018 H1010 0.930 . S
C1018 C1017 1.362 . S
C1018 C1021 1.409 . S
C1019 H1011 0.930 . S
C1019 C1020 1.355 . S
C1019 C1021 1.415 . S
C1020 C1019 1.355 . S
C1020 C1022 1.419 . S
C1021 C1016 1.425 . S
C1021 C1018 1.409 . S
C1021 C1019 1.415 . S
C1022 H1012 0.930 . S
C1022 C1020 1.419 . S
C1022 C1023 1.362 . S
C1023 H1013 0.930 . S
C1023 C1016 1.409 . S
C1023 C1022 1.362 . S
H1024 C1030 0.930 . S
H1025 C1033 0.930 . S
H1026 C1034 0.930 . S
H1027 C1035 0.930 . S
H1028 C1038 0.930 . S
H1029 C1039 0.930 . S
C1030 H1024 0.930 . S
C1030 C1031 1.355 . S
C1030 C1032 1.415 . S
C1031 C1030 1.355 . S
C1031 C1033 1.419 . S
C1032 C1030 1.415 . S
C1032 C1037 1.425 . S
C1032 C1039 1.409 . S
C1033 H1025 0.930 . S
C1033 C1031 1.419 . S
C1033 C1034 1.362 . S
C1034 H1026 0.930 . S
C1034 C1033 1.362 . S
C1034 C1037 1.409 . S
C1035 H1027 0.930 . S
C1035 C1036 1.355 . S
C1035 C1037 1.415 . S
C1036 C1035 1.355 . S
C1036 C1038 1.419 . S
C1037 C1032 1.425 . S
C1037 C1034 1.409 . S
C1037 C1035 1.415 . S
C1038 H1028 0.930 . S
C1038 C1036 1.419 . S
C1038 C1039 1.362 . S
C1039 H1029 0.930 . S
C1039 C1032 1.409 . S
C1039 C1038 1.362 . S
H1040 C1046 0.930 . S
H1041 C1049 0.930 . S
H1042 C1050 0.930 . S
H1043 C1051 0.930 . S
H1044 C1054 0.930 . S
H1045 C1055 0.930 . S
C1046 H1040 0.930 . S
C1046 C1047 1.355 . S
C1046 C1048 1.415 . S
C1047 C1046 1.355 . S
C1047 C1049 1.419 . S
C1048 C1046 1.415 . S
C1048 C1053 1.425 . S
C1048 C1055 1.409 . S
C1049 H1041 0.930 . S
C1049 C1047 1.419 . S
C1049 C1050 1.362 . S
C1050 H1042 0.930 . S
C1050 C1049 1.362 . S
C1050 C1053 1.409 . S
C1051 H1043 0.930 . S
C1051 C1052 1.355 . S
C1051 C1053 1.415 . S
C1052 C1051 1.355 . S
C1052 C1054 1.419 . S
C1053 C1048 1.425 . S
C1053 C1050 1.409 . S
C1053 C1051 1.415 . S
C1054 H1044 0.930 . S
C1054 C1052 1.419 . S
C1054 C1055 1.362 . S
C1055 H1045 0.930 . S
C1055 C1048 1.409 . S
C1055 C1054 1.362 . S
H1056 C1062 0.930 . S
H1057 C1065 0.930 . S
H1058 C1066 0.930 . S
H1059 C1067 0.930 . S
H1060 C1070 0.930 . S
H1061 C1071 0.930 . S
C1062 H1056 0.930 . S
C1062 C1063 1.355 . S
C1062 C1064 1.417 . S
C1063 C1062 1.355 . S
C1063 C1065 1.419 . S
C1064 C1062 1.417 . S
C1064 C1069 1.425 1_554 S
C1064 C1071 1.407 1_554 S
C1065 H1057 0.930 . S
C1065 C1063 1.419 . S
C1065 C1066 1.362 . S
C1066 H1058 0.930 . S
C1066 C1065 1.362 . S
C1066 C1069 1.407 1_554 S
C1067 H1059 0.930 . S
C1067 C1068 1.355 . S
C1067 C1069 1.417 . S
C1068 C1067 1.355 . S
C1068 C1070 1.419 . S
C1069 C1064 1.425 1_556 S
C1069 C1066 1.407 1_556 S
C1069 C1067 1.417 . S
C1070 H1060 0.930 . S
C1070 C1068 1.419 . S
C1070 C1071 1.362 . S
C1071 H1061 0.930 . S
C1071 C1064 1.407 1_556 S
C1071 C1070 1.362 . S
H1072 C1078 0.930 . S
H1073 C1081 0.930 . S
H1074 C1082 0.930 . S
H1075 C1083 0.930 . S
H1076 C1086 0.930 . S
H1077 C1087 0.930 . S
C1078 H1072 0.930 . S
C1078 C1079 1.355 . S
C1078 C1080 1.415 . S
C1079 C1078 1.355 . S
C1079 C1081 1.419 1_554 S
C1080 C1078 1.415 . S
C1080 C1085 1.425 1_554 S
C1080 C1087 1.409 . S
C1081 H1073 0.930 . S
C1081 C1079 1.419 1_556 S
C1081 C1082 1.362 . S
C1082 H1074 0.930 . S
C1082 C1081 1.362 . S
C1082 C1085 1.409 . S
C1083 H1075 0.930 . S
C1083 C1084 1.355 . S
C1083 C1085 1.415 . S
C1084 C1083 1.355 . S
C1084 C1086 1.419 1_556 S
C1085 C1080 1.425 1_556 S
C1085 C1082 1.409 . S
C1085 C1083 1.415 . S
C1086 H1076 0.930 . S
C1086 C1084 1.419 1_554 S
C1086 C1087 1.362 . S
C1087 H1077 0.930 . S
C1087 C1080 1.409 . S
C1087 C1086 1.362 . S
H1088 C1094 0.930 . S
H1089 C1097 0.930 . S
H1090 C1098 0.930 . S
H1091 C1099 0.930 . S
H1092 C1102 0.930 . S
H1093 C1103 0.930 . S
C1094 H1088 0.930 . S
C1094 C1095 1.355 . S
C1094 C1096 1.415 . S
C1095 C1094 1.355 . S
C1095 C1097 1.419 . S
C1096 C1094 1.415 . S
C1096 C1101 1.425 1_556 S
C1096 C1103 1.409 1_556 S
C1097 H1089 0.930 . S
C1097 C1095 1.419 . S
C1097 C1098 1.362 . S
C1098 H1090 0.930 . S
C1098 C1097 1.362 . S
C1098 C1101 1.409 1_556 S
C1099 H1091 0.930 . S
C1099 C1100 1.355 . S
C1099 C1101 1.415 . S
C1100 C1099 1.355 . S
C1100 C1102 1.419 . S
C1101 C1096 1.425 1_554 S
C1101 C1098 1.409 1_554 S
C1101 C1099 1.415 . S
C1102 H1092 0.930 . S
C1102 C1100 1.419 . S
C1102 C1103 1.362 . S
C1103 H1093 0.930 . S
C1103 C1096 1.409 1_554 S
C1103 C1102 1.362 . S
H1104 C1110 0.930 . S
H1105 C1113 0.930 . S
H1106 C1114 0.930 . S
H1107 C1115 0.930 . S
H1108 C1118 0.930 . S
H1109 C1119 0.930 . S
C1110 H1104 0.930 . S
C1110 C1111 1.355 . S
C1110 C1112 1.415 . S
C1111 C1110 1.355 . S
C1111 C1113 1.419 . S
C1112 C1110 1.415 . S
C1112 C1117 1.425 1_554 S
C1112 C1119 1.409 . S
C1113 H1105 0.930 . S
C1113 C1111 1.419 . S
C1113 C1114 1.362 1_554 S
C1114 H1106 0.930 . S
C1114 C1113 1.362 1_556 S
C1114 C1117 1.409 . S
C1115 H1107 0.930 . S
C1115 C1116 1.355 . S
C1115 C1117 1.415 . S
C1116 C1115 1.355 . S
C1116 C1118 1.419 . S
C1117 C1112 1.425 1_556 S
C1117 C1114 1.409 . S
C1117 C1115 1.415 . S
C1118 H1108 0.930 . S
C1118 C1116 1.419 . S
C1118 C1119 1.362 1_556 S
C1119 H1109 0.930 . S
C1119 C1112 1.409 . S
C1119 C1118 1.362 1_554 S
H1120 C1126 0.930 . S
H1121 C1129 0.930 . S
H1122 C1130 0.930 . S
H1123 C1131 0.930 . S
H1124 C1134 0.930 . S
H1125 C1135 0.930 . S
C1126 H1120 0.930 . S
C1126 C1127 1.355 . S
C1126 C1128 1.415 . S
C1127 C1126 1.355 . S
C1127 C1129 1.419 . S
C1128 C1126 1.415 . S
C1128 C1133 1.425 . S
C1128 C1135 1.409 . S
C1129 H1121 0.930 . S
C1129 C1127 1.419 . S
C1129 C1130 1.362 . S
C1130 H1122 0.930 . S
C1130 C1129 1.362 . S
C1130 C1133 1.409 . S
C1131 H1123 0.930 . S
C1131 C1132 1.355 . S
C1131 C1133 1.415 . S
C1132 C1131 1.355 . S
C1132 C1134 1.419 . S
C1133 C1128 1.425 . S
C1133 C1130 1.409 . S
C1133 C1131 1.415 . S
C1134 H1124 0.930 . S
C1134 C1132 1.419 . S
C1134 C1135 1.362 . S
C1135 H1125 0.930 . S
C1135 C1128 1.409 . S
C1135 C1134 1.362 . S
H1136 C1142 0.930 . S
H1137 C1145 0.930 . S
H1138 C1146 0.930 . S
H1139 C1147 0.930 . S
H1140 C1150 0.930 . S
H1141 C1151 0.930 . S
C1142 H1136 0.930 . S
C1142 C1143 1.355 . S
C1142 C1144 1.415 . S
C1143 C1142 1.355 . S
C1143 C1145 1.419 . S
C1144 C1142 1.415 . S
C1144 C1149 1.425 . S
C1144 C1151 1.409 . S
C1145 H1137 0.930 . S
C1145 C1143 1.419 . S
C1145 C1146 1.362 . S
C1146 H1138 0.930 . S
C1146 C1145 1.362 . S
C1146 C1149 1.409 . S
C1147 H1139 0.930 . S
C1147 C1148 1.355 . S
C1147 C1149 1.415 . S
C1148 C1147 1.355 . S
C1148 C1150 1.419 . S
C1149 C1144 1.425 . S
C1149 C1146 1.409 . S
C1149 C1147 1.415 . S
C1150 H1140 0.930 . S
C1150 C1148 1.419 . S
C1150 C1151 1.362 . S
C1151 H1141 0.930 . S
C1151 C1144 1.409 . S
C1151 C1150 1.362 . S
H1152 C1158 0.930 . S
H1153 C1161 0.930 . S
H1154 C1162 0.930 . S
H1155 C1163 0.930 . S
H1156 C1166 0.930 . S
H1157 C1167 0.930 . S
C1158 H1152 0.930 . S
C1158 C1159 1.355 . S
C1158 C1160 1.415 . S
C1159 C1158 1.355 . S
C1159 C1161 1.419 . S
C1160 C1158 1.415 . S
C1160 C1165 1.425 . S
C1160 C1167 1.409 . S
C1161 H1153 0.930 . S
C1161 C1159 1.419 . S
C1161 C1162 1.362 . S
C1162 H1154 0.930 . S
C1162 C1161 1.362 . S
C1162 C1165 1.409 . S
C1163 H1155 0.930 . S
C1163 C1164 1.355 . S
C1163 C1165 1.415 . S
C1164 C1163 1.355 . S
C1164 C1166 1.419 . S
C1165 C1160 1.425 . S
C1165 C1162 1.409 . S
C1165 C1163 1.415 . S
C1166 H1156 0.930 . S
C1166 C1164 1.419 . S
C1166 C1167 1.362 . S
C1167 H1157 0.930 . S
C1167 C1160 1.409 . S
C1167 C1166 1.362 . S
H1168 C1174 0.930 . S
H1169 C1177 0.930 . S
H1170 C1178 0.930 . S
H1171 C1179 0.930 . S
H1172 C1182 0.930 . S
H1173 C1183 0.930 . S
C1174 H1168 0.930 . S
C1174 C1175 1.355 . S
C1174 C1176 1.415 . S
C1175 C1174 1.355 . S
C1175 C1177 1.419 . S
C1176 C1174 1.415 . S
C1176 C1181 1.425 . S
C1176 C1183 1.409 . S
C1177 H1169 0.930 . S
C1177 C1175 1.419 . S
C1177 C1178 1.362 . S
C1178 H1170 0.930 . S
C1178 C1177 1.362 . S
C1178 C1181 1.409 . S
C1179 H1171 0.930 . S
C1179 C1180 1.355 . S
C1179 C1181 1.415 . S
C1180 C1179 1.355 . S
C1180 C1182 1.419 . S
C1181 C1176 1.425 . S
C1181 C1178 1.409 . S
C1181 C1179 1.415 . S
C1182 H1172 0.930 . S
C1182 C1180 1.419 . S
C1182 C1183 1.362 . S
C1183 H1173 0.930 . S
C1183 C1176 1.409 . S
C1183 C1182 1.362 . S
C551 C9 1.257 . S
C556 C5 1.248 . S
C567 C43 1.267 . S
C572 C39 1.263 . S
C583 C73 1.278 . S
C588 C77 1.248 . S
C599 C107 1.241 . S
C604 C111 1.267 . S
C615 C145 1.237 . S
C620 C141 1.280 . S
C631 C175 1.270 . S
C636 C179 1.260 . S
C647 C209 1.280 . S
C652 C213 1.237 . S
C663 C243 1.244 . S
C668 C247 1.280 . S
C679 C281 1.262 . S
C684 C277 1.268 . S
C695 C315 1.243 . S
C700 C311 1.262 . S
C711 C349 1.255 . S
C716 C345 1.250 . S
C727 C383 1.275 . S
C732 C379 1.237 . S
C743 C413 1.243 . S
C748 C417 1.263 . S
C759 C447 1.278 . S
C764 C451 1.248 . S
C775 C481 1.244 . S
C780 C485 1.261 . S
C791 C515 1.237 . S
C796 C519 1.276 . S
C807 C33 1.425 . S
C812 C543 1.439 . S
C823 C441 1.429 . S
C828 C67 1.448 . S
C839 C475 1.469 . S
C844 C101 1.446 . S
C855 C509 1.495 . S
C860 C135 1.483 . S
C871 C339 1.437 . S
C876 C169 1.459 . S
C887 C203 1.431 . S
C892 C373 1.450 . S
C903 C237 1.458 . S
C908 C407 1.436 . S
C919 C305 1.475 . S
C924 C271 1.492 . S
C935 C20 1.571 . S
C940 C156 1.552 . S
C951 C190 1.576 . S
C956 C54 1.570 . S
C967 C88 1.551 . S
C972 C224 1.572 . S
C983 C258 1.568 . S
C988 C122 1.553 . S
C999 C428 1.556 . S
C1004 C292 1.582 . S
C1015 C326 1.581 . S
C1020 C462 1.560 . S
C1031 C360 1.572 . S
C1036 C496 1.574 . S
C1047 C394 1.567 . S
C1052 C530 1.554 . S
C1063 C2 1.739 . S
C1068 C172 1.736 . S
C1079 C36 1.735 . S
C1084 C206 1.733 . S
C1095 C240 1.740 . S
C1100 C70 1.744 . S
C1111 C104 1.738 . S
C1116 C138 1.735 . S
C1127 C444 1.736 . S
C1132 C274 1.740 . S
C1143 C308 1.739 . S
C1148 C478 1.743 . S
C1159 C512 1.742 . S
C1164 C342 1.738 . S
C1175 C410 1.737 . S
C1180 C376 1.734 . S
