# Generated by pormake.
# Topology vme, (6)-cn, num edge types: 1
# Building blocks:
#     Node 0, Type 0, BuildingBlock: OJICUG_clean_sbu_0, # of connection points: 6
#     Node 1, Type 0, BuildingBlock: OJICUG_clean_sbu_0, # of connection points: 6
#     Node 2, Type 0, BuildingBlock: OJICUG_clean_sbu_0, # of connection points: 6
#     Node 3, Type 0, BuildingBlock: OJICUG_clean_sbu_0, # of connection points: 6
#     Edge 4, Type (0, 0), BuildingBlock: XUDNAN_clean_linker_2, # of connection points: 2
#     Edge 5, Type (0, 0), BuildingBlock: XUDNAN_clean_linker_2, # of connection points: 2
#     Edge 6, Type (0, 0), BuildingBlock: XUDNAN_clean_linker_2, # of connection points: 2
#     Edge 7, Type (0, 0), BuildingBlock: XUDNAN_clean_linker_2, # of connection points: 2
#     Edge 8, Type (0, 0), BuildingBlock: XUDNAN_clean_linker_2, # of connection points: 2
#     Edge 9, Type (0, 0), BuildingBlock: XUDNAN_clean_linker_2, # of connection points: 2
#     Edge 10, Type (0, 0), BuildingBlock: XUDNAN_clean_linker_2, # of connection points: 2
#     Edge 11, Type (0, 0), BuildingBlock: XUDNAN_clean_linker_2, # of connection points: 2
#     Edge 12, Type (0, 0), BuildingBlock: XUDNAN_clean_linker_2, # of connection points: 2
#     Edge 13, Type (0, 0), BuildingBlock: XUDNAN_clean_linker_2, # of connection points: 2
#     Edge 14, Type (0, 0), BuildingBlock: XUDNAN_clean_linker_2, # of connection points: 2
#     Edge 15, Type (0, 0), BuildingBlock: XUDNAN_clean_linker_2, # of connection points: 2
# Relax obj value: 0.276
# Max RMSD: 0.267
# Mean RMSD: 0.267
data_MOF--net-vme--node1-OJICUG_clean_sbu_0--edge1-XUDNAN_clean_linker_2
_symmetry_space_group_name_H-M    P1
_symmetry_Int_Tables_number       1
_symmetry_cell_setting            triclinic
loop_
_symmetry_equiv_pos_as_xyz
'x, y, z'
_cell_length_a     27.306731
_cell_length_b     26.219362
_cell_length_c     29.268066
_cell_angle_alpha  89.766399
_cell_angle_beta   121.40642
_cell_angle_gamma 89.929993
loop_
_atom_site_label
_atom_site_type_symbol
_atom_site_fract_x
_atom_site_fract_y
_atom_site_fract_z
_atom_type_partial_charge
Sc0 Sc 0.24161 0.31287 0.41995 0.0
Sc1 Sc 0.11414 0.37101 0.32258 0.0
Sc2 Sc 0.19361 0.42574 0.44513 0.0
O3 O 0.18428 0.36981 0.39549 0.0
C4 C 0.23432 0.33074 0.52175 0.0
C5 C 0.11941 0.25744 0.35428 0.0
C6 C 0.06674 0.40997 0.39575 0.0
C7 C 0.21037 0.32577 0.30205 0.0
C8 C 0.31642 0.41614 0.46789 0.0
C9 C 0.13612 0.4832 0.33123 0.0
O10 O 0.23345 0.29967 0.48826 0.0
O11 O 0.09057 0.29835 0.33653 0.0
O12 O 0.1153 0.40462 0.43793 0.0
O13 O 0.24957 0.32051 0.351 0.0
O14 O 0.27329 0.44465 0.45448 0.0
O15 O 0.13725 0.44346 0.30751 0.0
O16 O 0.31323 0.36736 0.46294 0.0
O17 O 0.15881 0.33801 0.28655 0.0
O18 O 0.14967 0.48177 0.3801 0.0
O19 O 0.17422 0.25537 0.37859 0.0
O20 O 0.23551 0.3787 0.51629 0.0
O21 O 0.06033 0.40665 0.3494 0.0
Sc22 Sc 0.79641 0.92421 0.04945 0.0
Sc23 Sc 0.87323 0.87264 0.1796 0.0
Sc24 Sc 0.74159 0.81802 0.08245 0.0
O25 O 0.8036 0.87192 0.1041 0.0
C26 C 0.66889 0.91938 0.02705 0.0
C27 C 0.8502 0.99118 0.15529 0.0
C28 C 0.77553 0.84185 0.20271 0.0
C29 C 0.92853 0.89684 0.10892 0.0
C30 C 0.75196 0.8233 0.97896 0.0
C31 C 0.85581 0.7541 0.15339 0.0
O32 O 0.70875 0.93923 0.02284 0.0
O33 O 0.87052 0.95309 0.18646 0.0
O34 O 0.74377 0.82192 0.15698 0.0
O35 O 0.88231 0.91447 0.07021 0.0
O36 O 0.73314 0.80351 0.00645 0.0
O37 O 0.88356 0.79228 0.18119 0.0
O38 O 0.77587 0.86671 0.98962 0.0
O39 O 0.93349 0.87955 0.15191 0.0
O40 O 0.80445 0.75664 0.11366 0.0
O41 O 0.82154 0.98774 0.10446 0.0
O42 O 0.67397 0.87603 0.04928 0.0
O43 O 0.82181 0.86531 0.2159 0.0
Sc44 Sc 0.7681 0.58649 0.53653 0.0
Sc45 Sc 0.88334 0.62457 0.65862 0.0
Sc46 Sc 0.75533 0.68981 0.60235 0.0
O47 O 0.80184 0.63261 0.59947 0.0
C48 C 0.72833 0.69809 0.48546 0.0
C49 C 0.88929 0.59762 0.55511 0.0
C50 C 0.88062 0.73899 0.65589 0.0
C51 C 0.84695 0.51207 0.63789 0.0
C52 C 0.66357 0.60018 0.54904 0.0
C53 C 0.81531 0.65454 0.718 0.0
O54 O 0.72341 0.64956 0.48013 0.0
O55 O 0.91296 0.59774 0.60596 0.0
O56 O 0.83049 0.73863 0.64903 0.0
O57 O 0.81335 0.51955 0.58743 0.0
O58 O 0.67514 0.64731 0.56016 0.0
O59 O 0.86264 0.6497 0.71901 0.0
O60 O 0.69732 0.56972 0.54528 0.0
O61 O 0.86848 0.5481 0.67152 0.0
O62 O 0.76725 0.65973 0.67484 0.0
O63 O 0.83575 0.60179 0.52364 0.0
O64 O 0.74429 0.72 0.52975 0.0
O65 O 0.90092 0.70049 0.64553 0.0
Sc66 Sc 0.2171 0.18381 0.89273 0.0
Sc67 Sc 0.10391 0.09991 0.83243 0.0
Sc68 Sc 0.21419 0.07696 0.96136 0.0
O69 O 0.17873 0.12079 0.89595 0.0
C70 C 0.32069 0.10289 0.95307 0.0
C71 C 0.1646 0.153 0.77636 0.0
C72 C 0.16077 -0.00286 0.86362 0.0
C73 C 0.08141 0.21358 0.83314 0.0
C74 C 0.24158 0.18931 0.00991 0.0
C75 C 0.09207 0.06131 0.93028 0.0
O76 O 0.30212 0.14781 0.93487 0.0
O77 O 0.11944 0.13774 0.77464 0.0
O78 O 0.18204 0.00755 0.91315 0.0
O79 O 0.1336 0.22373 0.8476 0.0
O80 O 0.24716 0.14105 0.01596 0.0
O81 O 0.07674 0.05869 0.88104 0.0
O82 O 0.22572 0.21121 0.96545 0.0
O83 O 0.06516 0.16892 0.83652 0.0
O84 O 0.1382 0.0829 0.96432 0.0
O85 O 0.2112 0.15983 0.82024 0.0
O86 O 0.29139 0.07023 0.96076 0.0
O87 O 0.14407 0.03197 0.82824 0.0
H88 H 0.92484 0.04902 0.14481 0.0
H89 H 0.83281 0.03816 0.2282 0.0
H90 H 0.89657 0.10349 0.29271 0.0
H91 H 0.06112 0.0542 0.26137 0.0
H92 H 0.09089 0.0965 0.23339 0.0
H93 H 0.03266 0.05476 0.19046 0.0
H94 H 0.9724 0.13411 0.13373 0.0
H95 H 0.03218 0.17423 0.1772 0.0
H96 H 0.96245 0.18665 0.16759 0.0
H97 H 0.97485 0.16471 0.35157 0.0
H98 H 0.05567 0.22557 0.3948 0.0
H99 H 0.1013 0.19033 0.27722 0.0
C100 C 0.91634 0.06258 0.17497 0.0
C101 C 0.8727 0.04052 0.18058 0.0
C102 C 0.86479 0.05637 0.22241 0.0
C103 C 0.9013 0.09274 0.25954 0.0
C104 C 0.94601 0.11179 0.25466 0.0
C105 C 0.95328 0.09778 0.21307 0.0
C106 C 0.00724 0.12074 0.21922 0.0
C107 C 0.05052 0.07909 0.22652 0.0
C108 C 0.99271 0.15604 0.17163 0.0
C109 C 0.02881 0.15042 0.27036 0.0
C110 C 0.99311 0.14448 0.29039 0.0
C111 C 0.00333 0.16936 0.33651 0.0
C112 C 0.04968 0.20314 0.36125 0.0
C113 C 0.08541 0.21089 0.34021 0.0
C114 C 0.0758 0.18328 0.29513 0.0
H115 H 0.09841 0.56738 0.35964 0.0
H116 H 0.09682 0.49702 0.22471 0.0
H117 H 0.02096 0.55667 0.16322 0.0
H118 H 0.95182 0.58479 0.29855 0.0
H119 H 0.95557 0.64571 0.32846 0.0
H120 H 0.01386 0.60089 0.36256 0.0
H121 H 0.08534 0.6686 0.36612 0.0
H122 H 0.02711 0.71366 0.33298 0.0
H123 H 0.07076 0.69934 0.30503 0.0
H124 H 0.93636 0.61688 0.11529 0.0
H125 H 0.86349 0.68584 0.08681 0.0
H126 H 0.92294 0.71669 0.25314 0.0
C127 C 0.08361 0.56551 0.31741 0.0
C128 C 0.10337 0.52721 0.29712 0.0
C129 C 0.08225 0.52591 0.24135 0.0
C130 C 0.03882 0.5594 0.20594 0.0
C131 C 0.01768 0.59448 0.22698 0.0
C132 C 0.04057 0.59882 0.28153 0.0
C133 C 0.0097 0.63921 0.29385 0.0
C134 C 0.98109 0.61626 0.32261 0.0
C135 C 0.05066 0.6828 0.3264 0.0
C136 C 0.96537 0.65621 0.23776 0.0
C137 C 0.97008 0.6297 0.19957 0.0
C138 C 0.93256 0.63828 0.14485 0.0
C139 C 0.89083 0.67677 0.12897 0.0
C140 C 0.88777 0.70594 0.1679 0.0
C141 C 0.92448 0.69457 0.22271 0.0
H142 H 0.11145 0.96088 0.76141 0.0
H143 H 0.1554 0.91763 0.92194 0.0
H144 H 0.09024 0.84432 0.88501 0.0
H145 H 0.96943 0.94059 0.70078 0.0
H146 H 0.9578 0.91455 0.63899 0.0
H147 H 0.01669 0.95728 0.67731 0.0
H148 H 0.0892 0.89029 0.6825 0.0
H149 H 0.03034 0.84785 0.64233 0.0
H150 H 0.0892 0.82678 0.70634 0.0
H151 H 0.0088 0.78598 0.8305 0.0
H152 H 0.92701 0.73617 0.7619 0.0
H153 H 0.93395 0.81743 0.63642 0.0
C154 C 0.1093 0.93482 0.78911 0.0
C155 C 0.13841 0.94526 0.8446 0.0
C156 C 0.13397 0.91039 0.87937 0.0
C157 C 0.09664 0.86878 0.85871 0.0
C158 C 0.06513 0.86208 0.80343 0.0
C159 C 0.07228 0.89315 0.76915 0.0
C160 C 0.03001 0.88005 0.71108 0.0
C161 C 0.99121 0.92585 0.68027 0.0
C162 C 0.06157 0.86003 0.68397 0.0
C163 C -0.00363 0.83818 0.71806 0.0
C164 C 0.01753 0.82842 0.7717 0.0
C165 C 0.99215 0.79304 0.78844 0.0
C166 C 0.94491 0.76585 0.74931 0.0
C167 C 0.92314 0.77466 0.69432 0.0
C168 C 0.94924 0.81105 0.67836 0.0
H169 H 0.95718 0.48847 0.70937 0.0
H170 H 0.78898 0.42025 0.61375 0.0
H171 H 0.83032 0.33611 0.65643 0.0
H172 H 0.0364 0.38219 0.70108 0.0
H173 H 0.09669 0.3914 0.768 0.0
H174 H 0.05299 0.44506 0.72991 0.0
H175 H 0.03521 0.46642 0.80657 0.0
H176 H 0.07824 0.41245 0.84463 0.0
H177 H 0.00545 0.41844 0.82939 0.0
H178 H 0.8907 0.26104 0.71425 0.0
H179 H 0.96525 0.1987 0.77216 0.0
H180 H 0.09476 0.31697 0.82589 0.0
C181 C 0.92893 0.4558 0.69741 0.0
C182 C 0.86976 0.46066 0.65894 0.0
C183 C 0.83436 0.41707 0.64332 0.0
C184 C 0.85747 0.36942 0.66755 0.0
C185 C 0.91602 0.3663 0.70635 0.0
C186 C 0.95135 0.40827 0.72031 0.0
C187 C 0.01307 0.395 0.76146 0.0
C188 C 0.05207 0.40393 0.73874 0.0
C189 C 0.03421 0.42485 0.81359 0.0
C190 C 0.00723 0.33886 0.76936 0.0
C191 C 0.95088 0.3231 0.73766 0.0
C192 C 0.93491 0.27299 0.73889 0.0
C193 C 0.97773 0.23792 0.77235 0.0
C194 C 0.03616 0.25283 0.80384 0.0
C195 C 0.05068 0.30425 0.8025 0.0
H196 H 0.97056 0.52282 0.58636 0.0
H197 H 0.87482 0.63672 0.46323 0.0
H198 H 0.9019 0.59476 0.40424 0.0
H199 H 0.088 0.50729 0.55864 0.0
H200 H 0.09351 0.43979 0.57251 0.0
H201 H 0.07088 0.48236 0.60617 0.0
H202 H 0.97928 0.42789 0.57233 0.0
H203 H 0.00058 0.3865 0.53669 0.0
H204 H 0.93186 0.41827 0.50142 0.0
H205 H 0.93022 0.53546 0.35533 0.0
H206 H 0.98132 0.47632 0.32827 0.0
H207 H 0.05519 0.39918 0.48192 0.0
C208 C 0.95754 0.5401 0.54796 0.0
C209 C 0.92125 0.58321 0.52943 0.0
C210 C 0.90329 0.60394 0.4782 0.0
C211 C 0.91771 0.58001 0.44417 0.0
C212 C 0.95019 0.53547 0.46209 0.0
C213 C 0.9714 0.51651 0.5133 0.0
C214 C 0.00523 0.46788 0.52236 0.0
C215 C 0.06813 0.47477 0.56757 0.0
C216 C 0.97754 0.42247 0.53387 0.0
C217 C -0.00035 0.4627 0.46833 0.0
C218 C 0.96701 0.50157 0.43387 0.0
C219 C 0.95689 0.50532 0.3821 0.0
C220 C 0.98499 0.47091 0.36666 0.0
C221 C 0.02225 0.43334 0.40307 0.0
C222 C 0.02694 0.42762 0.45328 0.0
H223 H 0.00191 0.97482 0.13615 0.0
H224 H 0.95488 0.8293 0.05575 0.0
H225 H -0.00306 0.85488 0.00217 0.0
H226 H 0.95954 0.0453 0.02634 0.0
H227 H 0.01523 0.09275 0.05583 0.0
H228 H 0.99524 0.05836 0.09682 0.0
H229 H 0.10162 0.02854 0.1593 0.0
H230 H 0.12076 0.06422 0.11816 0.0
H231 H 0.13775 -0.0028 0.13027 0.0
H232 H 0.02013 0.90429 0.9422 0.0
H233 H 0.04633 0.96674 0.89491 0.0
H234 H 0.08003 0.07989 0.01548 0.0
C235 C 0.00472 0.94704 0.1103 0.0
C236 C 0.9773 0.89947 0.10136 0.0
C237 C 0.97792 0.86505 0.0646 0.0
C238 C 0.00069 0.87971 0.03328 0.0
C239 C 0.02298 0.92874 0.0397 0.0
C240 C 0.02707 0.96134 0.07864 0.0
C241 C 0.04681 0.01387 0.07343 0.0
C242 C 0.00153 0.05496 0.06248 0.0
C243 C 0.10521 0.0267 0.12323 0.0
C244 C 0.05166 0.00611 0.02479 0.0
C245 C 0.03713 0.95699 0.00548 0.0
C246 C 0.03315 0.94244 0.95784 0.0
C247 C 0.04706 0.97838 0.93072 0.0
C248 C 0.06517 0.028 0.95166 0.0
C249 C 0.06658 0.04207 0.99881 0.0
H250 H 0.26563 0.15695 0.10921 0.0
H251 H 0.2315 0.29316 0.01184 0.0
H252 H 0.22932 0.34434 0.08104 0.0
H253 H 0.17255 0.18511 0.15237 0.0
H254 H 0.21715 0.16033 0.21935 0.0
H255 H 0.22365 0.135 0.16572 0.0
H256 H 0.33228 0.15585 0.21812 0.0
H257 H 0.32626 0.18094 0.27226 0.0
H258 H 0.35553 0.21993 0.24136 0.0
H259 H 0.21604 0.37835 0.15316 0.0
H260 H 0.20049 0.39399 0.22807 0.0
H261 H 0.24837 0.23768 0.28162 0.0
C262 C 0.25919 0.19773 0.10296 0.0
C263 C 0.24883 0.22091 0.05494 0.0
C264 C 0.23973 0.27437 0.04821 0.0
C265 C 0.23843 0.30388 0.08735 0.0
C266 C 0.24701 0.27958 0.13335 0.0
C267 C 0.25803 0.22786 0.14177 0.0
C268 C 0.26212 0.21064 0.19316 0.0
C269 C 0.21613 0.17042 0.18195 0.0
C270 C 0.32266 0.19067 0.23363 0.0
C271 C 0.25006 0.26052 0.21147 0.0
C272 C 0.24146 0.29981 0.17633 0.0
C273 C 0.22417 0.34831 0.18176 0.0
C274 C 0.2153 0.35683 0.22414 0.0
C275 C 0.22457 0.3173 0.26078 0.0
C276 C 0.24279 0.26878 0.25482 0.0
H277 H 0.7406 0.75249 0.22358 0.0
H278 H 0.78035 0.90934 0.27619 0.0
H279 H 0.76012 0.89129 0.34804 0.0
H280 H 0.6285 0.7298 0.25464 0.0
H281 H 0.65338 0.66606 0.27919 0.0
H282 H 0.66359 0.69286 0.22794 0.0
H283 H 0.77298 0.67539 0.28691 0.0
H284 H 0.76302 0.6483 0.33807 0.0
H285 H 0.8125 0.70018 0.35404 0.0
H286 H 0.73969 0.85503 0.41601 0.0
H287 H 0.73234 0.8023 0.48184 0.0
H288 H 0.71239 0.66698 0.38852 0.0
C289 C 0.74367 0.78329 0.24951 0.0
C290 C 0.76071 0.83263 0.24385 0.0
C291 C 0.76663 0.87153 0.27967 0.0
C292 C 0.75499 0.86161 0.32031 0.0
C293 C 0.73853 0.81239 0.32502 0.0
C294 C 0.73371 0.77368 0.29105 0.0
C295 C 0.72173 0.7229 0.30827 0.0
C296 C 0.66332 0.70167 0.26492 0.0
C297 C 0.77045 0.68445 0.32268 0.0
C298 C 0.72072 0.73898 0.35743 0.0
C299 C 0.72955 0.79089 0.3658 0.0
C300 C 0.73253 0.81441 0.40971 0.0
C301 C 0.72818 0.78396 0.4469 0.0
C302 C 0.72167 0.73026 0.44056 0.0
C303 C 0.71656 0.70786 0.39437 0.0
H304 H 0.80997 0.84114 0.92665 0.0
H305 H 0.69904 0.73128 0.94008 0.0
H306 H 0.71273 0.67186 0.88261 0.0
H307 H 0.76134 0.81578 0.78798 0.0
H308 H 0.83165 0.8243 0.79768 0.0
H309 H 0.8122 0.8578 0.83951 0.0
H310 H 0.90142 0.81945 0.92323 0.0
H311 H 0.92021 0.78462 0.88153 0.0
H312 H 0.91052 0.75119 0.9302 0.0
H313 H 0.73716 0.62461 0.82272 0.0
H314 H 0.76285 0.59705 0.75702 0.0
H315 H 0.85883 0.73634 0.78398 0.0
C316 C 0.7878 0.80494 0.91692 0.0
C317 C 0.75323 0.79111 0.93794 0.0
C318 C 0.72561 0.74298 0.9245 0.0
C319 C 0.73347 0.70872 0.89218 0.0
C320 C 0.76924 0.72292 0.87363 0.0
C321 C 0.79533 0.77014 0.88486 0.0
C322 C 0.83046 0.77648 0.85872 0.0
C323 C 0.80752 0.82122 0.81858 0.0
C324 C 0.89445 0.78332 0.90096 0.0
C325 C 0.81955 0.72562 0.8306 0.0
C326 C 0.78453 0.69509 0.84014 0.0
C327 C 0.76536 0.64778 0.81565 0.0
C328 C 0.78057 0.63216 0.77886 0.0
C329 C 0.81497 0.6635 0.76738 0.0
C330 C 0.83549 0.71031 0.79436 0.0
H331 H 0.23392 0.13914 0.73537 0.0
H332 H 0.08653 0.22384 0.71328 0.0
H333 H 0.09048 0.27967 0.6471 0.0
H334 H 0.31056 0.24009 0.72596 0.0
H335 H 0.33492 0.20764 0.68716 0.0
H336 H 0.31909 0.17171 0.73046 0.0
H337 H 0.24676 0.11593 0.6508 0.0
H338 H 0.26345 0.15082 0.60747 0.0
H339 H 0.19015 0.14622 0.59099 0.0
H340 H 0.12 0.33391 0.59559 0.0
H341 H 0.15763 0.37177 0.54283 0.0
H342 H 0.27762 0.24587 0.58733 0.0
C343 C 0.2015 0.16846 0.71518 0.0
C344 C 0.15954 0.1771 0.7287 0.0
C345 C 0.11821 0.21616 0.70244 0.0
C346 C 0.12054 0.24835 0.66535 0.0
C347 C 0.16353 0.23996 0.65406 0.0
C348 C 0.20196 0.19988 0.67656 0.0
C349 C 0.24313 0.19896 0.65642 0.0
C350 C 0.30561 0.20496 0.70278 0.0
C351 C 0.23539 0.15008 0.62451 0.0
C352 C 0.22285 0.24566 0.62036 0.0
C353 C 0.17767 0.26924 0.62063 0.0
C354 C 0.15441 0.31516 0.59397 0.0
C355 C 0.17646 0.33662 0.56459 0.0
C356 C 0.22019 0.31151 0.56086 0.0
C357 C 0.24395 0.26559 0.58939 0.0
H358 H 0.409 0.39876 0.45552 0.0
H359 H 0.3479 0.49457 0.53634 0.0
H360 H 0.43137 0.55053 0.56767 0.0
H361 H 0.56535 0.41403 0.55775 0.0
H362 H 0.58478 0.41546 0.5076 0.0
H363 H 0.52339 0.37925 0.49626 0.0
H364 H 0.45983 0.42882 0.40755 0.0
H365 H 0.52072 0.46578 0.41906 0.0
H366 H 0.45705 0.49749 0.40864 0.0
H367 H 0.51336 0.60187 0.58119 0.0
H368 H 0.59811 0.64056 0.5857 0.0
H369 H 0.60913 0.5117 0.49858 0.0
C370 C 0.41436 0.43061 0.48116 0.0
C371 C 0.37212 0.44247 0.49347 0.0
C372 C 0.37975 0.48506 0.52623 0.0
C373 C 0.42698 0.5171 0.54427 0.0
C374 C 0.4666 0.50592 0.5296 0.0
C375 C 0.46165 0.46333 0.49967 0.0
C376 C 0.50946 0.46188 0.48782 0.0
C377 C 0.54804 0.41486 0.51393 0.0
C378 C 0.48529 0.4636 0.42717 0.0
C379 C 0.54078 0.51076 0.51467 0.0
C380 C 0.51518 0.53554 0.5384 0.0
C381 C 0.53449 0.58256 0.56347 0.0
C382 C 0.58227 0.60447 0.5654 0.0
C383 C 0.61027 0.57913 0.54268 0.0
C384 C 0.58889 0.53179 0.51673 0.0
H385 H 0.38208 0.01828 0.00874 0.0
H386 H 0.38621 0.1481 0.91808 0.0
H387 H 0.47444 0.11355 0.92566 0.0
H388 H 0.53654 0.00758 0.09978 0.0
H389 H 0.53513 0.93888 0.1013 0.0
H390 H 0.47384 0.97509 0.09047 0.0
H391 H 0.4094 0.92541 0.0027 0.0
H392 H 0.47061 0.88957 0.0128 0.0
H393 H 0.42729 0.92489 0.95147 0.0
H394 H 0.5582 0.06275 0.93859 0.0
H395 H 0.63834 0.00399 0.96337 0.0
H396 H 0.58087 0.90698 0.04705 0.0
C397 C 0.40174 0.03985 0.99086 0.0
C398 C 0.3771 0.08599 0.9627 0.0
C399 C 0.40442 0.11294 0.94012 0.0
C400 C 0.45431 0.09342 0.94392 0.0
C401 C 0.47643 0.04719 0.97074 0.0
C402 C 0.45154 0.0211 0.99447 0.0
C403 C 0.48388 0.97218 0.02098 0.0
C404 C 0.50884 0.97354 0.08174 0.0
C405 C 0.44549 0.92525 0.99544 0.0
C406 C 0.53078 0.97456 0.00806 0.0
C407 C 0.52537 0.01807 0.97884 0.0
C408 C 0.56314 0.02881 0.96181 0.0
C409 C 0.60856 0.99495 0.97612 0.0
C410 C 0.61631 0.95075 0.00752 0.0
C411 C 0.57614 0.94015 0.02289 0.0
loop_
_geom_bond_atom_site_label_1
_geom_bond_atom_site_label_2
_geom_bond_distance
_geom_bond_site_symmetry_2
_ccdc_geom_bond_type
Sc0 O3 2.025 . S
Sc0 O10 2.105 . S
Sc0 O13 2.105 . S
Sc0 O16 2.105 . S
Sc0 O19 2.105 . S
Sc1 O3 2.025 . S
Sc1 O11 2.105 . S
Sc1 O15 2.105 . S
Sc1 O17 2.105 . S
Sc1 O21 2.105 . S
Sc2 O3 2.025 . S
Sc2 O12 2.105 . S
Sc2 O14 2.105 . S
Sc2 O18 2.105 . S
Sc2 O20 2.105 . S
O3 Sc0 2.025 . S
O3 Sc1 2.025 . S
O3 Sc2 2.025 . S
C4 O10 1.268 . S
C4 O20 1.268 . S
C5 O11 1.268 . S
C5 O19 1.268 . S
C6 O12 1.268 . S
C6 O21 1.268 . S
C7 O13 1.268 . S
C7 O17 1.268 . S
C8 O14 1.268 . S
C8 O16 1.268 . S
C9 O15 1.268 . S
C9 O18 1.268 . S
O10 Sc0 2.105 . S
O10 C4 1.268 . S
O11 Sc1 2.105 . S
O11 C5 1.268 . S
O12 Sc2 2.105 . S
O12 C6 1.268 . S
O13 Sc0 2.105 . S
O13 C7 1.268 . S
O14 Sc2 2.105 . S
O14 C8 1.268 . S
O15 Sc1 2.105 . S
O15 C9 1.268 . S
O16 Sc0 2.105 . S
O16 C8 1.268 . S
O17 Sc1 2.105 . S
O17 C7 1.268 . S
O18 Sc2 2.105 . S
O18 C9 1.268 . S
O19 Sc0 2.105 . S
O19 C5 1.268 . S
O20 Sc2 2.105 . S
O20 C4 1.268 . S
O21 Sc1 2.105 . S
O21 C6 1.268 . S
Sc22 O25 2.025 . S
Sc22 O32 2.105 . S
Sc22 O35 2.105 . S
Sc22 O38 2.105 1_554 S
Sc22 O41 2.105 . S
Sc23 O25 2.025 . S
Sc23 O33 2.105 . S
Sc23 O37 2.105 . S
Sc23 O39 2.105 . S
Sc23 O43 2.105 . S
Sc24 O25 2.025 . S
Sc24 O34 2.105 . S
Sc24 O36 2.105 . S
Sc24 O40 2.105 . S
Sc24 O42 2.105 . S
O25 Sc22 2.025 . S
O25 Sc23 2.025 . S
O25 Sc24 2.025 . S
C26 O32 1.268 . S
C26 O42 1.268 . S
C27 O33 1.268 . S
C27 O41 1.268 . S
C28 O34 1.268 . S
C28 O43 1.268 . S
C29 O35 1.268 . S
C29 O39 1.268 . S
C30 O36 1.268 1_556 S
C30 O38 1.268 . S
C31 O37 1.268 . S
C31 O40 1.268 . S
O32 Sc22 2.105 . S
O32 C26 1.268 . S
O33 Sc23 2.105 . S
O33 C27 1.268 . S
O34 Sc24 2.105 . S
O34 C28 1.268 . S
O35 Sc22 2.105 . S
O35 C29 1.268 . S
O36 Sc24 2.105 . S
O36 C30 1.268 1_554 S
O37 Sc23 2.105 . S
O37 C31 1.268 . S
O38 Sc22 2.105 1_556 S
O38 C30 1.268 . S
O39 Sc23 2.105 . S
O39 C29 1.268 . S
O40 Sc24 2.105 . S
O40 C31 1.268 . S
O41 Sc22 2.105 . S
O41 C27 1.268 . S
O42 Sc24 2.105 . S
O42 C26 1.268 . S
O43 Sc23 2.105 . S
O43 C28 1.268 . S
Sc44 O47 2.025 . S
Sc44 O54 2.105 . S
Sc44 O57 2.105 . S
Sc44 O60 2.105 . S
Sc44 O63 2.105 . S
Sc45 O47 2.025 . S
Sc45 O55 2.105 . S
Sc45 O59 2.105 . S
Sc45 O61 2.105 . S
Sc45 O65 2.105 . S
Sc46 O47 2.025 . S
Sc46 O56 2.105 . S
Sc46 O58 2.105 . S
Sc46 O62 2.105 . S
Sc46 O64 2.105 . S
O47 Sc44 2.025 . S
O47 Sc45 2.025 . S
O47 Sc46 2.025 . S
C48 O54 1.268 . S
C48 O64 1.268 . S
C49 O55 1.268 . S
C49 O63 1.268 . S
C50 O56 1.268 . S
C50 O65 1.268 . S
C51 O57 1.268 . S
C51 O61 1.268 . S
C52 O58 1.268 . S
C52 O60 1.268 . S
C53 O59 1.268 . S
C53 O62 1.268 . S
O54 Sc44 2.105 . S
O54 C48 1.268 . S
O55 Sc45 2.105 . S
O55 C49 1.268 . S
O56 Sc46 2.105 . S
O56 C50 1.268 . S
O57 Sc44 2.105 . S
O57 C51 1.268 . S
O58 Sc46 2.105 . S
O58 C52 1.268 . S
O59 Sc45 2.105 . S
O59 C53 1.268 . S
O60 Sc44 2.105 . S
O60 C52 1.268 . S
O61 Sc45 2.105 . S
O61 C51 1.268 . S
O62 Sc46 2.105 . S
O62 C53 1.268 . S
O63 Sc44 2.105 . S
O63 C49 1.268 . S
O64 Sc46 2.105 . S
O64 C48 1.268 . S
O65 Sc45 2.105 . S
O65 C50 1.268 . S
Sc66 O69 2.025 . S
Sc66 O76 2.105 . S
Sc66 O79 2.105 . S
Sc66 O82 2.105 . S
Sc66 O85 2.105 . S
Sc67 O69 2.025 . S
Sc67 O77 2.105 . S
Sc67 O81 2.105 . S
Sc67 O83 2.105 . S
Sc67 O87 2.105 . S
Sc68 O69 2.025 . S
Sc68 O78 2.105 . S
Sc68 O80 2.105 1_556 S
Sc68 O84 2.105 . S
Sc68 O86 2.105 . S
O69 Sc66 2.025 . S
O69 Sc67 2.025 . S
O69 Sc68 2.025 . S
C70 O76 1.268 . S
C70 O86 1.268 . S
C71 O77 1.268 . S
C71 O85 1.268 . S
C72 O78 1.268 . S
C72 O87 1.268 . S
C73 O79 1.268 . S
C73 O83 1.268 . S
C74 O80 1.268 . S
C74 O82 1.268 1_554 S
C75 O81 1.268 . S
C75 O84 1.268 . S
O76 Sc66 2.105 . S
O76 C70 1.268 . S
O77 Sc67 2.105 . S
O77 C71 1.268 . S
O78 Sc68 2.105 . S
O78 C72 1.268 . S
O79 Sc66 2.105 . S
O79 C73 1.268 . S
O80 Sc68 2.105 1_554 S
O80 C74 1.268 . S
O81 Sc67 2.105 . S
O81 C75 1.268 . S
O82 Sc66 2.105 . S
O82 C74 1.268 1_556 S
O83 Sc67 2.105 . S
O83 C73 1.268 . S
O84 Sc68 2.105 . S
O84 C75 1.268 . S
O85 Sc66 2.105 . S
O85 C71 1.268 . S
O86 Sc68 2.105 . S
O86 C70 1.268 . S
O87 Sc67 2.105 . S
O87 C72 1.268 . S
H88 C100 0.930 . S
H89 C102 0.930 . S
H90 C103 0.930 . S
H91 C107 0.959 . S
H92 C107 0.959 . S
H93 C107 0.961 . S
H94 C108 0.960 . S
H95 C108 0.961 . S
H96 C108 0.959 . S
H97 C111 0.929 . S
H98 C112 0.931 . S
H99 C114 0.930 . S
C100 H88 0.930 . S
C100 C101 1.399 . S
C100 C105 1.399 . S
C101 C100 1.399 . S
C101 C102 1.376 . S
C102 H89 0.930 . S
C102 C101 1.376 . S
C102 C103 1.388 . S
C103 H90 0.930 . S
C103 C102 1.388 . S
C103 C104 1.390 . S
C104 C103 1.390 . S
C104 C105 1.394 . S
C104 C110 1.465 . S
C105 C100 1.399 . S
C105 C104 1.394 . S
C105 C106 1.516 . S
C106 C105 1.516 . S
C106 C107 1.502 1_655 S
C106 C108 1.561 . S
C106 C109 1.526 1_655 S
C107 H91 0.959 . S
C107 H92 0.959 . S
C107 H93 0.961 . S
C107 C106 1.502 1_455 S
C108 H94 0.960 . S
C108 H95 0.961 . S
C108 H96 0.959 . S
C108 C106 1.561 . S
C109 C106 1.526 1_455 S
C109 C110 1.396 1_455 S
C109 C114 1.390 . S
C110 C104 1.465 . S
C110 C109 1.396 1_655 S
C110 C111 1.399 . S
C111 H97 0.929 . S
C111 C110 1.399 . S
C111 C112 1.385 1_655 S
C112 H98 0.931 . S
C112 C111 1.385 1_455 S
C112 C113 1.389 . S
C113 C112 1.389 . S
C113 C114 1.387 . S
C114 H99 0.930 . S
C114 C109 1.390 . S
C114 C113 1.387 . S
H115 C127 0.930 . S
H116 C129 0.930 . S
H117 C130 0.930 . S
H118 C134 0.959 . S
H119 C134 0.959 . S
H120 C134 0.961 . S
H121 C135 0.960 . S
H122 C135 0.961 . S
H123 C135 0.959 . S
H124 C138 0.929 . S
H125 C139 0.931 . S
H126 C141 0.930 . S
C127 H115 0.930 . S
C127 C128 1.399 . S
C127 C132 1.399 . S
C128 C127 1.399 . S
C128 C129 1.376 . S
C129 H116 0.930 . S
C129 C128 1.376 . S
C129 C130 1.388 . S
C130 H117 0.930 . S
C130 C129 1.388 . S
C130 C131 1.390 . S
C131 C130 1.390 . S
C131 C132 1.394 . S
C131 C137 1.465 . S
C132 C127 1.399 . S
C132 C131 1.394 . S
C132 C133 1.516 . S
C133 C132 1.516 . S
C133 C134 1.502 1_455 S
C133 C135 1.561 . S
C133 C136 1.526 1_455 S
C134 H118 0.959 . S
C134 H119 0.959 . S
C134 H120 0.961 . S
C134 C133 1.502 1_655 S
C135 H121 0.960 . S
C135 H122 0.961 . S
C135 H123 0.959 . S
C135 C133 1.561 . S
C136 C133 1.526 1_655 S
C136 C137 1.396 1_655 S
C136 C141 1.390 . S
C137 C131 1.465 . S
C137 C136 1.396 1_455 S
C137 C138 1.399 . S
C138 H124 0.929 . S
C138 C137 1.399 . S
C138 C139 1.385 1_455 S
C139 H125 0.931 . S
C139 C138 1.385 1_655 S
C139 C140 1.389 . S
C140 C139 1.389 . S
C140 C141 1.387 . S
C141 H126 0.930 . S
C141 C136 1.390 . S
C141 C140 1.387 . S
H142 C154 0.930 . S
H143 C156 0.930 . S
H144 C157 0.930 . S
H145 C161 0.959 . S
H146 C161 0.959 . S
H147 C161 0.961 . S
H148 C162 0.960 . S
H149 C162 0.961 . S
H150 C162 0.959 . S
H151 C165 0.930 . S
H152 C166 0.931 . S
H153 C168 0.930 . S
C154 H142 0.930 . S
C154 C155 1.399 . S
C154 C159 1.399 . S
C155 C154 1.399 . S
C155 C156 1.376 . S
C156 H143 0.930 . S
C156 C155 1.376 . S
C156 C157 1.388 . S
C157 H144 0.930 . S
C157 C156 1.388 . S
C157 C158 1.390 . S
C158 C157 1.390 . S
C158 C159 1.394 . S
C158 C164 1.465 . S
C159 C154 1.399 . S
C159 C158 1.394 . S
C159 C160 1.516 . S
C160 C159 1.516 . S
C160 C161 1.502 1_455 S
C160 C162 1.561 . S
C160 C163 1.526 1_455 S
C161 H145 0.959 . S
C161 H146 0.959 . S
C161 H147 0.961 . S
C161 C160 1.502 1_655 S
C162 H148 0.960 . S
C162 H149 0.961 . S
C162 H150 0.959 . S
C162 C160 1.561 . S
C163 C160 1.526 1_655 S
C163 C164 1.396 1_655 S
C163 C168 1.390 . S
C164 C158 1.465 . S
C164 C163 1.396 1_455 S
C164 C165 1.397 . S
C165 H151 0.930 . S
C165 C164 1.397 . S
C165 C166 1.386 1_455 S
C166 H152 0.931 . S
C166 C165 1.386 1_655 S
C166 C167 1.389 . S
C167 C166 1.389 . S
C167 C168 1.387 . S
C168 H153 0.930 . S
C168 C163 1.390 . S
C168 C167 1.387 . S
H169 C181 0.930 . S
H170 C183 0.930 . S
H171 C184 0.930 . S
H172 C188 0.959 . S
H173 C188 0.959 . S
H174 C188 0.961 . S
H175 C189 0.960 . S
H176 C189 0.961 . S
H177 C189 0.959 . S
H178 C192 0.929 . S
H179 C193 0.931 . S
H180 C195 0.930 . S
C181 H169 0.930 . S
C181 C182 1.399 . S
C181 C186 1.399 . S
C182 C181 1.399 . S
C182 C183 1.376 . S
C183 H170 0.930 . S
C183 C182 1.376 . S
C183 C184 1.388 . S
C184 H171 0.930 . S
C184 C183 1.388 . S
C184 C185 1.390 . S
C185 C184 1.390 . S
C185 C186 1.394 . S
C185 C191 1.465 . S
C186 C181 1.399 . S
C186 C185 1.394 . S
C186 C187 1.516 . S
C187 C186 1.516 . S
C187 C188 1.502 1_655 S
C187 C189 1.561 . S
C187 C190 1.526 1_655 S
C188 H172 0.959 . S
C188 H173 0.959 . S
C188 H174 0.961 . S
C188 C187 1.502 1_455 S
C189 H175 0.960 . S
C189 H176 0.961 . S
C189 H177 0.959 . S
C189 C187 1.561 . S
C190 C187 1.526 1_455 S
C190 C191 1.396 1_455 S
C190 C195 1.390 . S
C191 C185 1.465 . S
C191 C190 1.396 1_655 S
C191 C192 1.399 . S
C192 H178 0.929 . S
C192 C191 1.399 . S
C192 C193 1.385 1_655 S
C193 H179 0.931 . S
C193 C192 1.385 1_455 S
C193 C194 1.389 . S
C194 C193 1.389 . S
C194 C195 1.387 . S
C195 H180 0.930 . S
C195 C190 1.390 . S
C195 C194 1.387 . S
H196 C208 0.930 1_455 S
H197 C210 0.930 . S
H198 C211 0.930 . S
H199 C215 0.959 . S
H200 C215 0.959 . S
H201 C215 0.961 . S
H202 C216 0.960 . S
H203 C216 0.961 . S
H204 C216 0.959 1_655 S
H205 C219 0.929 . S
H206 C220 0.936 1_655 S
H207 C222 0.930 . S
C208 H196 0.930 1_655 S
C208 C209 1.399 . S
C208 C213 1.399 . S
C209 C208 1.399 . S
C209 C210 1.376 . S
C210 H197 0.930 . S
C210 C209 1.376 . S
C210 C211 1.388 . S
C211 H198 0.930 . S
C211 C210 1.388 . S
C211 C212 1.390 . S
C212 C211 1.390 . S
C212 C213 1.394 . S
C212 C218 1.465 . S
C213 C208 1.399 . S
C213 C212 1.394 . S
C213 C214 1.516 1_655 S
C214 C213 1.516 1_455 S
C214 C215 1.502 . S
C214 C216 1.561 . S
C214 C217 1.526 . S
C215 H199 0.959 . S
C215 H200 0.959 . S
C215 H201 0.961 . S
C215 C214 1.502 . S
C216 H202 0.960 . S
C216 H203 0.961 . S
C216 H204 0.959 1_455 S
C216 C214 1.561 . S
C217 C214 1.526 . S
C217 C218 1.396 1_455 S
C217 C222 1.390 . S
C218 C212 1.465 . S
C218 C217 1.396 1_655 S
C218 C219 1.399 . S
C219 H205 0.929 . S
C219 C218 1.399 . S
C219 C220 1.373 1_655 S
C220 H206 0.936 1_455 S
C220 C219 1.373 1_455 S
C220 C221 1.396 . S
C221 C220 1.396 . S
C221 C222 1.387 . S
C222 H207 0.930 . S
C222 C217 1.390 . S
C222 C221 1.387 . S
H223 C235 0.930 1_455 S
H224 C237 0.930 . S
H225 C238 0.930 . S
H226 C242 0.959 1_655 S
H227 C242 0.959 . S
H228 C242 0.961 . S
H229 C243 0.960 . S
H230 C243 0.961 . S
H231 C243 0.959 1_565 S
H232 C246 0.929 . S
H233 C247 0.931 1_655 S
H234 C249 0.926 1_554 S
C235 H223 0.930 1_655 S
C235 C236 1.399 . S
C235 C240 1.399 1_655 S
C236 C235 1.399 . S
C236 C237 1.376 . S
C237 H224 0.930 . S
C237 C236 1.376 . S
C237 C238 1.388 1_554 S
C238 H225 0.930 . S
C238 C237 1.388 1_556 S
C238 C239 1.390 . S
C239 C238 1.390 . S
C239 C240 1.394 1_656 S
C239 C245 1.465 . S
C240 C235 1.399 1_455 S
C240 C239 1.394 1_454 S
C240 C241 1.516 1_565 S
C241 C240 1.516 1_545 S
C241 C242 1.502 . S
C241 C243 1.561 . S
C241 C244 1.526 1_554 S
C242 H226 0.959 1_455 S
C242 H227 0.959 . S
C242 H228 0.961 . S
C242 C241 1.502 . S
C243 H229 0.960 . S
C243 H230 0.961 . S
C243 H231 0.959 1_545 S
C243 C241 1.561 . S
C244 C241 1.526 1_556 S
C244 C245 1.396 1_445 S
C244 C249 1.390 . S
C245 C239 1.465 . S
C245 C244 1.396 1_665 S
C245 C246 1.399 . S
C246 H232 0.929 . S
C246 C245 1.399 . S
C246 C247 1.385 1_665 S
C247 H233 0.931 1_455 S
C247 C246 1.385 1_445 S
C247 C248 1.389 . S
C248 C247 1.389 . S
C248 C249 1.387 . S
C249 H234 0.926 1_556 S
C249 C244 1.390 . S
C249 C248 1.387 . S
H250 C262 0.930 . S
H251 C264 0.930 1_556 S
H252 C265 0.930 . S
H253 C269 0.959 . S
H254 C269 0.959 . S
H255 C269 0.961 . S
H256 C270 0.960 . S
H257 C270 0.961 . S
H258 C270 0.959 . S
H259 C273 0.929 . S
H260 C274 0.931 . S
H261 C276 0.930 . S
C262 H250 0.930 . S
C262 C263 1.399 . S
C262 C267 1.399 . S
C263 C262 1.399 . S
C263 C264 1.376 . S
C264 H251 0.930 1_554 S
C264 C263 1.376 . S
C264 C265 1.388 . S
C265 H252 0.930 . S
C265 C264 1.388 . S
C265 C266 1.390 . S
C266 C265 1.390 . S
C266 C267 1.394 . S
C266 C272 1.465 . S
C267 C262 1.399 . S
C267 C266 1.394 . S
C267 C268 1.516 . S
C268 C267 1.516 . S
C268 C269 1.502 . S
C268 C270 1.561 . S
C268 C271 1.526 . S
C269 H253 0.959 . S
C269 H254 0.959 . S
C269 H255 0.961 . S
C269 C268 1.502 . S
C270 H256 0.960 . S
C270 H257 0.961 . S
C270 H258 0.959 . S
C270 C268 1.561 . S
C271 C268 1.526 . S
C271 C272 1.396 . S
C271 C276 1.390 . S
C272 C266 1.465 . S
C272 C271 1.396 . S
C272 C273 1.399 . S
C273 H259 0.929 . S
C273 C272 1.399 . S
C273 C274 1.385 . S
C274 H260 0.931 . S
C274 C273 1.385 . S
C274 C275 1.389 . S
C275 C274 1.389 . S
C275 C276 1.387 . S
C276 H261 0.930 . S
C276 C271 1.390 . S
C276 C275 1.387 . S
H277 C289 0.930 . S
H278 C291 0.930 . S
H279 C292 0.930 . S
H280 C296 0.959 . S
H281 C296 0.959 . S
H282 C296 0.961 . S
H283 C297 0.960 . S
H284 C297 0.961 . S
H285 C297 0.959 . S
H286 C300 0.929 . S
H287 C301 0.931 . S
H288 C303 0.930 . S
C289 H277 0.930 . S
C289 C290 1.399 . S
C289 C294 1.399 . S
C290 C289 1.399 . S
C290 C291 1.376 . S
C291 H278 0.930 . S
C291 C290 1.376 . S
C291 C292 1.388 . S
C292 H279 0.930 . S
C292 C291 1.388 . S
C292 C293 1.390 . S
C293 C292 1.390 . S
C293 C294 1.394 . S
C293 C299 1.465 . S
C294 C289 1.399 . S
C294 C293 1.394 . S
C294 C295 1.516 . S
C295 C294 1.516 . S
C295 C296 1.502 . S
C295 C297 1.561 . S
C295 C298 1.526 . S
C296 H280 0.959 . S
C296 H281 0.959 . S
C296 H282 0.961 . S
C296 C295 1.502 . S
C297 H283 0.960 . S
C297 H284 0.961 . S
C297 H285 0.959 . S
C297 C295 1.561 . S
C298 C295 1.526 . S
C298 C299 1.396 . S
C298 C303 1.390 . S
C299 C293 1.465 . S
C299 C298 1.396 . S
C299 C300 1.399 . S
C300 H286 0.929 . S
C300 C299 1.399 . S
C300 C301 1.385 . S
C301 H287 0.931 . S
C301 C300 1.385 . S
C301 C302 1.389 . S
C302 C301 1.389 . S
C302 C303 1.387 . S
C303 H288 0.930 . S
C303 C298 1.390 . S
C303 C302 1.387 . S
H304 C316 0.930 . S
H305 C318 0.930 . S
H306 C319 0.930 . S
H307 C323 0.959 . S
H308 C323 0.959 . S
H309 C323 0.961 . S
H310 C324 0.960 . S
H311 C324 0.961 . S
H312 C324 0.959 . S
H313 C327 0.929 . S
H314 C328 0.931 . S
H315 C330 0.930 . S
C316 H304 0.930 . S
C316 C317 1.399 . S
C316 C321 1.399 . S
C317 C316 1.399 . S
C317 C318 1.376 . S
C318 H305 0.930 . S
C318 C317 1.376 . S
C318 C319 1.388 . S
C319 H306 0.930 . S
C319 C318 1.388 . S
C319 C320 1.390 . S
C320 C319 1.390 . S
C320 C321 1.394 . S
C320 C326 1.465 . S
C321 C316 1.399 . S
C321 C320 1.394 . S
C321 C322 1.516 . S
C322 C321 1.516 . S
C322 C323 1.502 . S
C322 C324 1.561 . S
C322 C325 1.526 . S
C323 H307 0.959 . S
C323 H308 0.959 . S
C323 H309 0.961 . S
C323 C322 1.502 . S
C324 H310 0.960 . S
C324 H311 0.961 . S
C324 H312 0.959 . S
C324 C322 1.561 . S
C325 C322 1.526 . S
C325 C326 1.396 . S
C325 C330 1.390 . S
C326 C320 1.465 . S
C326 C325 1.396 . S
C326 C327 1.399 . S
C327 H313 0.929 . S
C327 C326 1.399 . S
C327 C328 1.385 . S
C328 H314 0.931 . S
C328 C327 1.385 . S
C328 C329 1.389 . S
C329 C328 1.389 . S
C329 C330 1.387 . S
C330 H315 0.930 . S
C330 C325 1.390 . S
C330 C329 1.387 . S
H331 C343 0.930 . S
H332 C345 0.930 . S
H333 C346 0.930 . S
H334 C350 0.959 . S
H335 C350 0.959 . S
H336 C350 0.961 . S
H337 C351 0.960 . S
H338 C351 0.961 . S
H339 C351 0.959 . S
H340 C354 0.929 . S
H341 C355 0.931 . S
H342 C357 0.930 . S
C343 H331 0.930 . S
C343 C344 1.399 . S
C343 C348 1.399 . S
C344 C343 1.399 . S
C344 C345 1.376 . S
C345 H332 0.930 . S
C345 C344 1.376 . S
C345 C346 1.388 . S
C346 H333 0.930 . S
C346 C345 1.388 . S
C346 C347 1.390 . S
C347 C346 1.390 . S
C347 C348 1.394 . S
C347 C353 1.465 . S
C348 C343 1.399 . S
C348 C347 1.394 . S
C348 C349 1.516 . S
C349 C348 1.516 . S
C349 C350 1.502 . S
C349 C351 1.561 . S
C349 C352 1.526 . S
C350 H334 0.959 . S
C350 H335 0.959 . S
C350 H336 0.961 . S
C350 C349 1.502 . S
C351 H337 0.960 . S
C351 H338 0.961 . S
C351 H339 0.959 . S
C351 C349 1.561 . S
C352 C349 1.526 . S
C352 C353 1.396 . S
C352 C357 1.390 . S
C353 C347 1.465 . S
C353 C352 1.396 . S
C353 C354 1.399 . S
C354 H340 0.929 . S
C354 C353 1.399 . S
C354 C355 1.385 . S
C355 H341 0.931 . S
C355 C354 1.385 . S
C355 C356 1.389 . S
C356 C355 1.389 . S
C356 C357 1.387 . S
C357 H342 0.930 . S
C357 C352 1.390 . S
C357 C356 1.387 . S
H358 C370 0.930 . S
H359 C372 0.930 . S
H360 C373 0.930 . S
H361 C377 0.959 . S
H362 C377 0.959 . S
H363 C377 0.961 . S
H364 C378 0.960 . S
H365 C378 0.961 . S
H366 C378 0.959 . S
H367 C381 0.929 . S
H368 C382 0.931 . S
H369 C384 0.930 . S
C370 H358 0.930 . S
C370 C371 1.399 . S
C370 C375 1.399 . S
C371 C370 1.399 . S
C371 C372 1.376 . S
C372 H359 0.930 . S
C372 C371 1.376 . S
C372 C373 1.388 . S
C373 H360 0.930 . S
C373 C372 1.388 . S
C373 C374 1.390 . S
C374 C373 1.390 . S
C374 C375 1.394 . S
C374 C380 1.465 . S
C375 C370 1.399 . S
C375 C374 1.394 . S
C375 C376 1.516 . S
C376 C375 1.516 . S
C376 C377 1.502 . S
C376 C378 1.561 . S
C376 C379 1.526 . S
C377 H361 0.959 . S
C377 H362 0.959 . S
C377 H363 0.961 . S
C377 C376 1.502 . S
C378 H364 0.960 . S
C378 H365 0.961 . S
C378 H366 0.959 . S
C378 C376 1.561 . S
C379 C376 1.526 . S
C379 C380 1.396 . S
C379 C384 1.390 . S
C380 C374 1.465 . S
C380 C379 1.396 . S
C380 C381 1.399 . S
C381 H367 0.929 . S
C381 C380 1.399 . S
C381 C382 1.385 . S
C382 H368 0.931 . S
C382 C381 1.385 . S
C382 C383 1.389 . S
C383 C382 1.389 . S
C383 C384 1.387 . S
C384 H369 0.930 . S
C384 C379 1.390 . S
C384 C383 1.387 . S
H385 C397 0.930 . S
H386 C399 0.930 . S
H387 C400 0.930 . S
H388 C404 0.959 1_545 S
H389 C404 0.959 . S
H390 C404 0.961 1_545 S
H391 C405 0.960 . S
H392 C405 0.961 . S
H393 C405 0.959 . S
H394 C408 0.929 1_545 S
H395 C409 0.931 . S
H396 C411 0.930 . S
C397 H385 0.930 . S
C397 C398 1.399 1_554 S
C397 C402 1.399 . S
C398 C397 1.399 1_556 S
C398 C399 1.376 . S
C399 H386 0.930 . S
C399 C398 1.376 . S
C399 C400 1.388 . S
C400 H387 0.930 . S
C400 C399 1.388 . S
C400 C401 1.390 . S
C401 C400 1.390 . S
C401 C402 1.394 1_556 S
C401 C407 1.465 1_545 S
C402 C397 1.399 . S
C402 C401 1.394 1_554 S
C402 C403 1.516 1_545 S
C403 C402 1.516 1_565 S
C403 C404 1.502 . S
C403 C405 1.561 . S
C403 C406 1.526 . S
C404 H388 0.959 1_565 S
C404 H389 0.959 . S
C404 H390 0.961 1_565 S
C404 C403 1.502 . S
C405 H391 0.960 . S
C405 H392 0.961 . S
C405 H393 0.959 . S
C405 C403 1.561 . S
C406 C403 1.526 . S
C406 C407 1.396 1_554 S
C406 C411 1.390 . S
C407 C401 1.465 1_565 S
C407 C406 1.396 1_556 S
C407 C408 1.399 . S
C408 H394 0.929 1_565 S
C408 C407 1.399 . S
C408 C409 1.385 . S
C409 H395 0.931 . S
C409 C408 1.385 . S
C409 C410 1.389 1_556 S
C410 C409 1.389 1_554 S
C410 C411 1.387 . S
C411 H396 0.930 . S
C411 C406 1.390 . S
C411 C410 1.387 . S
C101 C27 1.398 1_545 S
C113 C5 1.433 . S
C128 C9 1.401 . S
C140 C31 1.429 . S
C155 C72 1.368 1_565 S
C167 C50 1.353 . S
C182 C51 1.370 . S
C194 C73 1.353 . S
C209 C49 1.066 . S
C221 C6 1.084 . S
C236 C29 1.122 . S
C248 C75 1.068 . S
C263 C74 1.612 . S
C275 C7 1.570 . S
C290 C28 1.524 . S
C302 C48 1.609 . S
C317 C30 1.609 . S
C329 C53 1.582 . S
C344 C71 1.512 . S
C356 C4 1.622 . S
C371 C8 1.521 . S
C383 C52 1.551 . S
C398 C70 1.550 . S
C410 C26 1.520 . S
