# Generated by pormake.
# Topology wgd, (5)-cn, num edge types: 1
# Building blocks:
#     Node 0, Type 0, BuildingBlock: BEQFEK_clean_sbu_0, # of connection points: 5
#     Node 1, Type 0, BuildingBlock: BEQFEK_clean_sbu_0, # of connection points: 5
#     Node 2, Type 0, BuildingBlock: BEQFEK_clean_sbu_0, # of connection points: 5
#     Node 3, Type 0, BuildingBlock: BEQFEK_clean_sbu_0, # of connection points: 5
#     Node 4, Type 0, BuildingBlock: BEQFEK_clean_sbu_0, # of connection points: 5
#     Node 5, Type 0, BuildingBlock: BEQFEK_clean_sbu_0, # of connection points: 5
#     Node 6, Type 0, BuildingBlock: BEQFEK_clean_sbu_0, # of connection points: 5
#     Node 7, Type 0, BuildingBlock: BEQFEK_clean_sbu_0, # of connection points: 5
#     Node 8, Type 0, BuildingBlock: BEQFEK_clean_sbu_0, # of connection points: 5
#     Node 9, Type 0, BuildingBlock: BEQFEK_clean_sbu_0, # of connection points: 5
#     Node 10, Type 0, BuildingBlock: BEQFEK_clean_sbu_0, # of connection points: 5
#     Node 11, Type 0, BuildingBlock: BEQFEK_clean_sbu_0, # of connection points: 5
#     Node 12, Type 0, BuildingBlock: BEQFEK_clean_sbu_0, # of connection points: 5
#     Node 13, Type 0, BuildingBlock: BEQFEK_clean_sbu_0, # of connection points: 5
#     Node 14, Type 0, BuildingBlock: BEQFEK_clean_sbu_0, # of connection points: 5
#     Node 15, Type 0, BuildingBlock: BEQFEK_clean_sbu_0, # of connection points: 5
#     Node 16, Type 0, BuildingBlock: BEQFEK_clean_sbu_0, # of connection points: 5
#     Node 17, Type 0, BuildingBlock: BEQFEK_clean_sbu_0, # of connection points: 5
#     Node 18, Type 0, BuildingBlock: BEQFEK_clean_sbu_0, # of connection points: 5
#     Node 19, Type 0, BuildingBlock: BEQFEK_clean_sbu_0, # of connection points: 5
#     Node 20, Type 0, BuildingBlock: BEQFEK_clean_sbu_0, # of connection points: 5
#     Node 21, Type 0, BuildingBlock: BEQFEK_clean_sbu_0, # of connection points: 5
#     Node 22, Type 0, BuildingBlock: BEQFEK_clean_sbu_0, # of connection points: 5
#     Node 23, Type 0, BuildingBlock: BEQFEK_clean_sbu_0, # of connection points: 5
#     Node 24, Type 0, BuildingBlock: BEQFEK_clean_sbu_0, # of connection points: 5
#     Node 25, Type 0, BuildingBlock: BEQFEK_clean_sbu_0, # of connection points: 5
#     Node 26, Type 0, BuildingBlock: BEQFEK_clean_sbu_0, # of connection points: 5
#     Node 27, Type 0, BuildingBlock: BEQFEK_clean_sbu_0, # of connection points: 5
#     Node 28, Type 0, BuildingBlock: BEQFEK_clean_sbu_0, # of connection points: 5
#     Node 29, Type 0, BuildingBlock: BEQFEK_clean_sbu_0, # of connection points: 5
#     Node 30, Type 0, BuildingBlock: BEQFEK_clean_sbu_0, # of connection points: 5
#     Node 31, Type 0, BuildingBlock: BEQFEK_clean_sbu_0, # of connection points: 5
#     Edge 32, Type (0, 0), BuildingBlock: KIFKEQ_clean_linker_1, # of connection points: 2
#     Edge 33, Type (0, 0), BuildingBlock: KIFKEQ_clean_linker_1, # of connection points: 2
#     Edge 34, Type (0, 0), BuildingBlock: KIFKEQ_clean_linker_1, # of connection points: 2
#     Edge 35, Type (0, 0), BuildingBlock: KIFKEQ_clean_linker_1, # of connection points: 2
#     Edge 36, Type (0, 0), BuildingBlock: KIFKEQ_clean_linker_1, # of connection points: 2
#     Edge 37, Type (0, 0), BuildingBlock: KIFKEQ_clean_linker_1, # of connection points: 2
#     Edge 38, Type (0, 0), BuildingBlock: KIFKEQ_clean_linker_1, # of connection points: 2
#     Edge 39, Type (0, 0), BuildingBlock: KIFKEQ_clean_linker_1, # of connection points: 2
#     Edge 40, Type (0, 0), BuildingBlock: KIFKEQ_clean_linker_1, # of connection points: 2
#     Edge 41, Type (0, 0), BuildingBlock: KIFKEQ_clean_linker_1, # of connection points: 2
#     Edge 42, Type (0, 0), BuildingBlock: KIFKEQ_clean_linker_1, # of connection points: 2
#     Edge 43, Type (0, 0), BuildingBlock: KIFKEQ_clean_linker_1, # of connection points: 2
#     Edge 44, Type (0, 0), BuildingBlock: KIFKEQ_clean_linker_1, # of connection points: 2
#     Edge 45, Type (0, 0), BuildingBlock: KIFKEQ_clean_linker_1, # of connection points: 2
#     Edge 46, Type (0, 0), BuildingBlock: KIFKEQ_clean_linker_1, # of connection points: 2
#     Edge 47, Type (0, 0), BuildingBlock: KIFKEQ_clean_linker_1, # of connection points: 2
#     Edge 48, Type (0, 0), BuildingBlock: KIFKEQ_clean_linker_1, # of connection points: 2
#     Edge 49, Type (0, 0), BuildingBlock: KIFKEQ_clean_linker_1, # of connection points: 2
#     Edge 50, Type (0, 0), BuildingBlock: KIFKEQ_clean_linker_1, # of connection points: 2
#     Edge 51, Type (0, 0), BuildingBlock: KIFKEQ_clean_linker_1, # of connection points: 2
#     Edge 52, Type (0, 0), BuildingBlock: KIFKEQ_clean_linker_1, # of connection points: 2
#     Edge 53, Type (0, 0), BuildingBlock: KIFKEQ_clean_linker_1, # of connection points: 2
#     Edge 54, Type (0, 0), BuildingBlock: KIFKEQ_clean_linker_1, # of connection points: 2
#     Edge 55, Type (0, 0), BuildingBlock: KIFKEQ_clean_linker_1, # of connection points: 2
#     Edge 56, Type (0, 0), BuildingBlock: KIFKEQ_clean_linker_1, # of connection points: 2
#     Edge 57, Type (0, 0), BuildingBlock: KIFKEQ_clean_linker_1, # of connection points: 2
#     Edge 58, Type (0, 0), BuildingBlock: KIFKEQ_clean_linker_1, # of connection points: 2
#     Edge 59, Type (0, 0), BuildingBlock: KIFKEQ_clean_linker_1, # of connection points: 2
#     Edge 60, Type (0, 0), BuildingBlock: KIFKEQ_clean_linker_1, # of connection points: 2
#     Edge 61, Type (0, 0), BuildingBlock: KIFKEQ_clean_linker_1, # of connection points: 2
#     Edge 62, Type (0, 0), BuildingBlock: KIFKEQ_clean_linker_1, # of connection points: 2
#     Edge 63, Type (0, 0), BuildingBlock: KIFKEQ_clean_linker_1, # of connection points: 2
#     Edge 64, Type (0, 0), BuildingBlock: KIFKEQ_clean_linker_1, # of connection points: 2
#     Edge 65, Type (0, 0), BuildingBlock: KIFKEQ_clean_linker_1, # of connection points: 2
#     Edge 66, Type (0, 0), BuildingBlock: KIFKEQ_clean_linker_1, # of connection points: 2
#     Edge 67, Type (0, 0), BuildingBlock: KIFKEQ_clean_linker_1, # of connection points: 2
#     Edge 68, Type (0, 0), BuildingBlock: KIFKEQ_clean_linker_1, # of connection points: 2
#     Edge 69, Type (0, 0), BuildingBlock: KIFKEQ_clean_linker_1, # of connection points: 2
#     Edge 70, Type (0, 0), BuildingBlock: KIFKEQ_clean_linker_1, # of connection points: 2
#     Edge 71, Type (0, 0), BuildingBlock: KIFKEQ_clean_linker_1, # of connection points: 2
#     Edge 72, Type (0, 0), BuildingBlock: KIFKEQ_clean_linker_1, # of connection points: 2
#     Edge 73, Type (0, 0), BuildingBlock: KIFKEQ_clean_linker_1, # of connection points: 2
#     Edge 74, Type (0, 0), BuildingBlock: KIFKEQ_clean_linker_1, # of connection points: 2
#     Edge 75, Type (0, 0), BuildingBlock: KIFKEQ_clean_linker_1, # of connection points: 2
#     Edge 76, Type (0, 0), BuildingBlock: KIFKEQ_clean_linker_1, # of connection points: 2
#     Edge 77, Type (0, 0), BuildingBlock: KIFKEQ_clean_linker_1, # of connection points: 2
#     Edge 78, Type (0, 0), BuildingBlock: KIFKEQ_clean_linker_1, # of connection points: 2
#     Edge 79, Type (0, 0), BuildingBlock: KIFKEQ_clean_linker_1, # of connection points: 2
#     Edge 80, Type (0, 0), BuildingBlock: KIFKEQ_clean_linker_1, # of connection points: 2
#     Edge 81, Type (0, 0), BuildingBlock: KIFKEQ_clean_linker_1, # of connection points: 2
#     Edge 82, Type (0, 0), BuildingBlock: KIFKEQ_clean_linker_1, # of connection points: 2
#     Edge 83, Type (0, 0), BuildingBlock: KIFKEQ_clean_linker_1, # of connection points: 2
#     Edge 84, Type (0, 0), BuildingBlock: KIFKEQ_clean_linker_1, # of connection points: 2
#     Edge 85, Type (0, 0), BuildingBlock: KIFKEQ_clean_linker_1, # of connection points: 2
#     Edge 86, Type (0, 0), BuildingBlock: KIFKEQ_clean_linker_1, # of connection points: 2
#     Edge 87, Type (0, 0), BuildingBlock: KIFKEQ_clean_linker_1, # of connection points: 2
#     Edge 88, Type (0, 0), BuildingBlock: KIFKEQ_clean_linker_1, # of connection points: 2
#     Edge 89, Type (0, 0), BuildingBlock: KIFKEQ_clean_linker_1, # of connection points: 2
#     Edge 90, Type (0, 0), BuildingBlock: KIFKEQ_clean_linker_1, # of connection points: 2
#     Edge 91, Type (0, 0), BuildingBlock: KIFKEQ_clean_linker_1, # of connection points: 2
#     Edge 92, Type (0, 0), BuildingBlock: KIFKEQ_clean_linker_1, # of connection points: 2
#     Edge 93, Type (0, 0), BuildingBlock: KIFKEQ_clean_linker_1, # of connection points: 2
#     Edge 94, Type (0, 0), BuildingBlock: KIFKEQ_clean_linker_1, # of connection points: 2
#     Edge 95, Type (0, 0), BuildingBlock: KIFKEQ_clean_linker_1, # of connection points: 2
#     Edge 96, Type (0, 0), BuildingBlock: KIFKEQ_clean_linker_1, # of connection points: 2
#     Edge 97, Type (0, 0), BuildingBlock: KIFKEQ_clean_linker_1, # of connection points: 2
#     Edge 98, Type (0, 0), BuildingBlock: KIFKEQ_clean_linker_1, # of connection points: 2
#     Edge 99, Type (0, 0), BuildingBlock: KIFKEQ_clean_linker_1, # of connection points: 2
#     Edge 100, Type (0, 0), BuildingBlock: KIFKEQ_clean_linker_1, # of connection points: 2
#     Edge 101, Type (0, 0), BuildingBlock: KIFKEQ_clean_linker_1, # of connection points: 2
#     Edge 102, Type (0, 0), BuildingBlock: KIFKEQ_clean_linker_1, # of connection points: 2
#     Edge 103, Type (0, 0), BuildingBlock: KIFKEQ_clean_linker_1, # of connection points: 2
#     Edge 104, Type (0, 0), BuildingBlock: KIFKEQ_clean_linker_1, # of connection points: 2
#     Edge 105, Type (0, 0), BuildingBlock: KIFKEQ_clean_linker_1, # of connection points: 2
#     Edge 106, Type (0, 0), BuildingBlock: KIFKEQ_clean_linker_1, # of connection points: 2
#     Edge 107, Type (0, 0), BuildingBlock: KIFKEQ_clean_linker_1, # of connection points: 2
#     Edge 108, Type (0, 0), BuildingBlock: KIFKEQ_clean_linker_1, # of connection points: 2
#     Edge 109, Type (0, 0), BuildingBlock: KIFKEQ_clean_linker_1, # of connection points: 2
#     Edge 110, Type (0, 0), BuildingBlock: KIFKEQ_clean_linker_1, # of connection points: 2
#     Edge 111, Type (0, 0), BuildingBlock: KIFKEQ_clean_linker_1, # of connection points: 2
# Relax obj value: 0.281
# Max RMSD: 0.228
# Mean RMSD: 0.228
data_MOF--net-wgd--node1-BEQFEK_clean_sbu_0--edge1-KIFKEQ_clean_linker_1
_symmetry_space_group_name_H-M    P1
_symmetry_Int_Tables_number       1
_symmetry_cell_setting            triclinic
loop_
_symmetry_equiv_pos_as_xyz
'x, y, z'
_cell_length_a     102.6664
_cell_length_b     102.57836
_cell_length_c     18.618663
_cell_angle_alpha  90.017245
_cell_angle_beta   90.01517
_cell_angle_gamma 90.004443
loop_
_atom_site_label
_atom_site_type_symbol
_atom_site_fract_x
_atom_site_fract_y
_atom_site_fract_z
_atom_type_partial_charge
Co0 Co 0.17859 0.17709 0.11126 0.0
Co1 Co 0.19315 0.17671 0.96464 0.0
C2 C 0.18101 0.20124 0.02493 0.0
O3 O 0.1766 0.19541 0.08014 0.0
O4 O 0.18758 0.19517 0.97752 0.0
C5 C 0.16765 0.18335 0.24707 0.0
O6 O 0.16839 0.19541 0.22372 0.0
C7 C 0.19368 0.18023 0.81089 0.0
C8 C 0.20862 0.1661 0.77572 0.0
C9 C 0.19934 0.17478 0.75069 0.0
N10 N 0.1993 0.175 0.86918 0.0
N11 N 0.20846 0.16679 0.84801 0.0
C12 C 0.18178 0.18867 0.81311 0.0
H13 H 0.17615 0.18685 0.86294 0.0
H14 H 0.17544 0.18688 0.76581 0.0
H15 H 0.18484 0.19903 0.81221 0.0
C16 C 0.16276 0.15682 0.03993 0.0
N17 N 0.17266 0.16542 0.04056 0.0
N18 N 0.17888 0.16494 0.97885 0.0
C19 C 0.17313 0.15587 0.93687 0.0
C20 C 0.16272 0.15045 0.97417 0.0
C21 C 0.15389 0.15454 0.1024 0.0
H22 H 0.1598 0.15219 0.15058 0.0
H23 H 0.14841 0.16362 0.11405 0.0
H24 H 0.14697 0.14645 0.09221 0.0
O25 O 0.19699 0.17359 0.13439 0.0
O26 O 0.20778 0.17289 0.03147 0.0
H27 H 0.18756 0.15087 0.85859 0.0
H28 H 0.17156 0.1447 0.83772 0.0
C29 C 0.177 0.15301 0.86092 0.0
H30 H 0.17495 0.16165 0.82723 0.0
H31 H 0.214 0.16106 0.88281 0.0
O32 O 0.16994 0.17406 0.20385 0.0
C33 C 0.20753 0.17207 0.0997 0.0
Co34 Co 0.07168 0.92803 0.36459 0.0
Co35 Co 0.07225 0.94286 0.21893 0.0
C36 C 0.04778 0.93019 0.27759 0.0
O37 O 0.05364 0.92528 0.33138 0.0
O38 O 0.05379 0.93734 0.23254 0.0
C39 C 0.06519 0.91757 0.5006 0.0
O40 O 0.05322 0.91861 0.47643 0.0
C41 C 0.06819 0.94369 0.06561 0.0
C42 C 0.08292 0.95796 0.02945 0.0
C43 C 0.07378 0.94907 0.00495 0.0
N44 N 0.07383 0.94907 0.12349 0.0
N45 N 0.08237 0.95786 0.10175 0.0
C46 C 0.05921 0.93219 0.06895 0.0
H47 H 0.06195 0.92576 0.11441 0.0
H48 H 0.05936 0.9265 0.01828 0.0
H49 H 0.04914 0.93572 0.07839 0.0
C50 C 0.09255 0.91275 0.29434 0.0
N51 N 0.08375 0.92247 0.29488 0.0
N52 N 0.08404 0.92862 0.23289 0.0
C53 C 0.0931 0.92294 0.19064 0.0
C54 C 0.0988 0.9127 0.22823 0.0
C55 C 0.09506 0.90397 0.35702 0.0
H56 H 0.09657 0.90995 0.40597 0.0
H57 H 0.08637 0.89776 0.36623 0.0
H58 H 0.10373 0.89772 0.34838 0.0
O59 O 0.07426 0.94664 0.38797 0.0
O60 O 0.07619 0.95743 0.28553 0.0
H61 H 0.0984 0.93702 0.11103 0.0
H62 H 0.10325 0.92061 0.08859 0.0
C63 C 0.09557 0.92661 0.11396 0.0
H64 H 0.08654 0.92517 0.08256 0.0
H65 H 0.08845 0.96311 0.13612 0.0
O66 O 0.07462 0.91952 0.4578 0.0
C67 C 0.07617 0.9572 0.35388 0.0
Co68 Co 0.31995 0.82252 0.61437 0.0
Co69 Co 0.30514 0.82276 0.46838 0.0
C70 C 0.31745 0.79834 0.52902 0.0
O71 O 0.32226 0.80426 0.58292 0.0
O72 O 0.31053 0.80432 0.48286 0.0
C73 C 0.33089 0.81624 0.75001 0.0
O74 O 0.33024 0.80422 0.72597 0.0
C75 C 0.30461 0.8187 0.31519 0.0
C76 C 0.29007 0.83308 0.27817 0.0
C77 C 0.29922 0.82416 0.2542 0.0
N78 N 0.299 0.8242 0.37273 0.0
N79 N 0.29005 0.83254 0.35047 0.0
C80 C 0.31629 0.80996 0.31927 0.0
H81 H 0.32248 0.81273 0.3657 0.0
H82 H 0.32215 0.81038 0.26929 0.0
H83 H 0.31296 0.79978 0.3275 0.0
C84 C 0.33568 0.84272 0.54188 0.0
N85 N 0.32574 0.83417 0.54338 0.0
N86 N 0.31947 0.83453 0.48179 0.0
C87 C 0.32521 0.84348 0.43905 0.0
C88 C 0.33568 0.84894 0.4757 0.0
C89 C 0.34469 0.84503 0.60372 0.0
H90 H 0.3389 0.84733 0.65239 0.0
H91 H 0.35025 0.83598 0.6148 0.0
H92 H 0.35155 0.85317 0.59306 0.0
O93 O 0.30145 0.82581 0.6375 0.0
O94 O 0.29059 0.82674 0.53481 0.0
H95 H 0.31078 0.84848 0.36079 0.0
H96 H 0.32686 0.85429 0.33878 0.0
C97 C 0.3213 0.84615 0.36295 0.0
H98 H 0.32316 0.83737 0.33003 0.0
H99 H 0.2846 0.83849 0.38452 0.0
O100 O 0.32856 0.82559 0.70724 0.0
C101 C 0.29088 0.82741 0.60306 0.0
Co102 Co 0.4259 0.07067 0.87543 0.0
Co103 Co 0.4261 0.05654 0.72734 0.0
C104 C 0.4503 0.06854 0.79171 0.0
O105 O 0.44429 0.07269 0.84675 0.0
O106 O 0.44438 0.06221 0.74295 0.0
C107 C 0.43262 0.0839 0.00437 0.0
O108 O 0.44393 0.08533 0.9725 0.0
C109 C 0.42999 0.05896 0.57608 0.0
C110 C 0.42073 0.04142 0.53002 0.0
C111 C 0.42703 0.05292 0.51149 0.0
N112 N 0.4256 0.05145 0.62977 0.0
N113 N 0.42024 0.04086 0.60229 0.0
C114 C 0.43549 0.07234 0.5876 0.0
H115 H 0.43287 0.07609 0.64154 0.0
H116 H 0.43186 0.07922 0.54621 0.0
H117 H 0.44627 0.07189 0.58404 0.0
C118 C 0.40571 0.08656 0.80308 0.0
N119 N 0.41445 0.07679 0.80405 0.0
N120 N 0.41392 0.07038 0.74289 0.0
C121 C 0.4045 0.0757 0.70159 0.0
C122 C 0.3991 0.08621 0.73808 0.0
C123 C 0.40351 0.09567 0.86466 0.0
H124 H 0.40101 0.08993 0.91326 0.0
H125 H 0.41266 0.10102 0.87626 0.0
H126 H 0.39555 0.1027 0.85345 0.0
O127 O 0.42235 0.05203 0.89526 0.0
O128 O 0.42228 0.04152 0.79102 0.0
H129 H 0.40165 0.06031 0.62487 0.0
H130 H 0.39117 0.07413 0.61127 0.0
C131 C 0.40106 0.07108 0.62758 0.0
H132 H 0.40798 0.07533 0.58846 0.0
H133 H 0.41586 0.03352 0.63265 0.0
O134 O 0.4231 0.07926 0.96898 0.0
C135 C 0.42114 0.04155 0.85919 0.0
Co136 Co 0.17918 0.82309 0.87705 0.0
Co137 Co 0.19326 0.82222 0.02513 0.0
C138 C 0.18112 0.7983 0.95877 0.0
O139 O 0.17706 0.80457 0.90421 0.0
O140 O 0.1875 0.80396 0.00851 0.0
C141 C 0.16694 0.81761 0.74259 0.0
O142 O 0.16612 0.80563 0.76711 0.0
C143 C 0.19355 0.81801 0.1786 0.0
C144 C 0.20848 0.832 0.21556 0.0
C145 C 0.19908 0.82335 0.23955 0.0
N146 N 0.19932 0.82334 0.12102 0.0
N147 N 0.20851 0.83141 0.14329 0.0
C148 C 0.1816 0.80965 0.17492 0.0
H149 H 0.18461 0.79926 0.17489 0.0
H150 H 0.17608 0.81165 0.12492 0.0
H151 H 0.17519 0.81131 0.222 0.0
C152 C 0.16344 0.84312 0.95104 0.0
N153 N 0.17317 0.83434 0.94963 0.0
N154 N 0.17916 0.83426 0.01209 0.0
C155 C 0.17339 0.8431 0.05547 0.0
C156 C 0.16324 0.849 0.0182 0.0
C157 C 0.15489 0.84608 0.88799 0.0
H158 H 0.16105 0.84833 0.84068 0.0
H159 H 0.14902 0.83732 0.87474 0.0
H160 H 0.14833 0.85445 0.89854 0.0
O161 O 0.19765 0.82662 0.856 0.0
O162 O 0.2081 0.82619 0.96007 0.0
H163 H 0.18753 0.84733 0.1368 0.0
H164 H 0.17147 0.85335 0.15751 0.0
C165 C 0.17697 0.84526 0.13258 0.0
H166 H 0.17474 0.83635 0.16358 0.0
H167 H 0.21413 0.83721 0.10923 0.0
O168 O 0.17071 0.82662 0.78445 0.0
C169 C 0.2081 0.82761 0.89215 0.0
Co170 Co 0.42541 0.9289 0.12242 0.0
Co171 Co 0.42684 0.94259 0.27169 0.0
C172 C 0.45047 0.93052 0.20311 0.0
O173 O 0.44402 0.92685 0.14833 0.0
O174 O 0.44504 0.93666 0.25448 0.0
C175 C 0.43071 0.91624 0.9893 0.0
O176 O 0.44261 0.91509 0.01443 0.0
C177 C 0.43186 0.9444 0.4247 0.0
C178 C 0.41488 0.95565 0.46271 0.0
C179 C 0.42527 0.94814 0.48627 0.0
N180 N 0.42528 0.94883 0.36748 0.0
N181 N 0.41541 0.95597 0.39045 0.0
C182 C 0.44405 0.93648 0.41952 0.0
H183 H 0.45108 0.94175 0.38495 0.0
H184 H 0.44186 0.92694 0.39408 0.0
H185 H 0.44867 0.93498 0.47274 0.0
C186 C 0.40551 0.91307 0.19653 0.0
N187 N 0.41435 0.92276 0.19527 0.0
N188 N 0.41496 0.92831 0.25889 0.0
C189 C 0.40664 0.92207 0.30331 0.0
C190 C 0.4003 0.91231 0.26513 0.0
C191 C 0.4019 0.90509 0.13223 0.0
H192 H 0.39996 0.91164 0.08608 0.0
H193 H 0.41023 0.89873 0.11756 0.0
H194 H 0.39316 0.89901 0.14228 0.0
O195 O 0.42178 0.94731 0.10169 0.0
O196 O 0.42279 0.95747 0.20647 0.0
H197 H 0.40095 0.93407 0.3917 0.0
H198 H 0.39994 0.91685 0.41023 0.0
C199 C 0.40564 0.9245 0.38237 0.0
H200 H 0.41552 0.92457 0.406 0.0
H201 H 0.40844 0.96017 0.35685 0.0
O202 O 0.42178 0.92037 0.03047 0.0
C203 C 0.42104 0.95767 0.13877 0.0
Co204 Co 0.31919 0.17461 0.37423 0.0
Co205 Co 0.30522 0.17626 0.52285 0.0
C206 C 0.31776 0.19972 0.45508 0.0
O207 O 0.32147 0.1932 0.40062 0.0
O208 O 0.3114 0.19438 0.50594 0.0
C209 C 0.33152 0.17992 0.24065 0.0
O210 O 0.33251 0.19185 0.26571 0.0
C211 C 0.303 0.1814 0.67579 0.0
C212 C 0.29189 0.1643 0.71333 0.0
C213 C 0.29922 0.17479 0.73725 0.0
N214 N 0.29876 0.17474 0.61836 0.0
N215 N 0.2917 0.16479 0.64105 0.0
C216 C 0.3108 0.19368 0.67098 0.0
H217 H 0.30556 0.20062 0.63572 0.0
H218 H 0.32042 0.19156 0.64648 0.0
H219 H 0.3121 0.19835 0.72422 0.0
C220 C 0.33465 0.15455 0.44973 0.0
N221 N 0.32501 0.16344 0.4475 0.0
N222 N 0.31941 0.16423 0.5109 0.0
C223 C 0.3256 0.15602 0.55621 0.0
C224 C 0.33534 0.14952 0.51882 0.0
C225 C 0.34271 0.15079 0.38608 0.0
H226 H 0.33628 0.1492 0.33901 0.0
H227 H 0.34944 0.15891 0.37286 0.0
H228 H 0.34841 0.1418 0.39626 0.0
O229 O 0.30079 0.17128 0.35254 0.0
O230 O 0.29042 0.17241 0.45658 0.0
H231 H 0.31381 0.15062 0.64596 0.0
H232 H 0.33105 0.15007 0.66415 0.0
C233 C 0.32327 0.15545 0.63549 0.0
H234 H 0.32304 0.16546 0.65735 0.0
H235 H 0.28766 0.15775 0.6073 0.0
O236 O 0.32773 0.1709 0.28226 0.0
C237 C 0.29035 0.17068 0.38885 0.0
Co238 Co 0.07294 0.07021 0.62735 0.0
Co239 Co 0.07336 0.05511 0.77209 0.0
C240 C 0.04894 0.06792 0.71184 0.0
O241 O 0.05485 0.07299 0.65865 0.0
O242 O 0.05492 0.06068 0.75672 0.0
C243 C 0.06726 0.08141 0.4913 0.0
O244 O 0.0552 0.08131 0.51473 0.0
C245 C 0.06967 0.05564 0.92496 0.0
C246 C 0.08243 0.0398 0.96394 0.0
C247 C 0.07451 0.04994 0.98659 0.0
N248 N 0.07451 0.04922 0.8682 0.0
N249 N 0.08189 0.03955 0.89161 0.0
C250 C 0.0621 0.06808 0.91951 0.0
H251 H 0.06482 0.07343 0.86997 0.0
H252 H 0.06376 0.07439 0.96705 0.0
H253 H 0.05156 0.06571 0.91653 0.0
C254 C 0.09293 0.08601 0.70142 0.0
N255 N 0.08466 0.07584 0.6984 0.0
N256 N 0.08516 0.06933 0.75918 0.0
C257 C 0.094 0.07508 0.80255 0.0
C258 C 0.09909 0.08589 0.76772 0.0
C259 C 0.09418 0.09605 0.64357 0.0
H260 H 0.08447 0.09811 0.61993 0.0
H261 H 0.09849 0.10522 0.66446 0.0
H262 H 0.10052 0.09215 0.60037 0.0
O263 O 0.07551 0.05151 0.6045 0.0
O264 O 0.07742 0.04052 0.7063 0.0
H265 H 0.10768 0.07396 0.89066 0.0
H266 H 0.09077 0.07316 0.91549 0.0
C267 C 0.09801 0.07007 0.87475 0.0
H268 H 0.09853 0.0593 0.8738 0.0
H269 H 0.0872 0.03334 0.85828 0.0
O270 O 0.07642 0.07861 0.53443 0.0
C271 C 0.07739 0.04088 0.63799 0.0
Co272 Co 0.82041 0.82103 0.87807 0.0
Co273 Co 0.805 0.82357 0.0197 0.0
C274 C 0.81833 0.79849 0.97317 0.0
O275 O 0.8239 0.80378 0.91978 0.0
O276 O 0.81047 0.80491 0.01236 0.0
C277 C 0.82625 0.81217 0.74555 0.0
O278 O 0.82062 0.80213 0.77641 0.0
C279 C 0.80625 0.82068 0.17129 0.0
C280 C 0.78905 0.8312 0.21285 0.0
C281 C 0.79995 0.82417 0.23405 0.0
N282 N 0.79942 0.82536 0.1157 0.0
N283 N 0.78906 0.83153 0.14042 0.0
C284 C 0.81932 0.81431 0.16349 0.0
H285 H 0.82396 0.81719 0.1121 0.0
H286 H 0.82585 0.81703 0.20858 0.0
H287 H 0.81806 0.80357 0.16332 0.0
C288 C 0.83542 0.84294 0.94097 0.0
N289 N 0.82563 0.83423 0.94183 0.0
N290 N 0.81896 0.83552 0.0017 0.0
C291 C 0.82416 0.84535 0.04045 0.0
C292 C 0.83484 0.85031 0.00349 0.0
C293 C 0.84508 0.84409 0.88119 0.0
H294 H 0.8399 0.84418 0.82893 0.0
H295 H 0.85156 0.83543 0.8818 0.0
H296 H 0.85105 0.85307 0.88623 0.0
O297 O 0.80165 0.8229 0.85343 0.0
O298 O 0.79041 0.82666 0.95288 0.0
H299 H 0.80873 0.84955 0.11458 0.0
H300 H 0.82329 0.8589 0.13037 0.0
C301 C 0.81951 0.84927 0.11363 0.0
H302 H 0.82293 0.84202 0.15347 0.0
H303 H 0.7822 0.83622 0.1081 0.0
O304 O 0.82884 0.82212 0.78363 0.0
C305 C 0.79093 0.8254 0.88494 0.0
Co306 Co 0.92696 0.07109 0.6194 0.0
Co307 Co 0.92675 0.05621 0.7653 0.0
C308 C 0.9511 0.06882 0.70497 0.0
O309 O 0.94517 0.07348 0.65072 0.0
O310 O 0.94516 0.06193 0.75151 0.0
C311 C 0.93307 0.0817 0.48308 0.0
O312 O 0.9451 0.08094 0.50657 0.0
C313 C 0.93055 0.05527 0.91922 0.0
C314 C 0.91633 0.04036 0.95357 0.0
C315 C 0.92509 0.04952 0.97917 0.0
N316 N 0.92522 0.04984 0.8606 0.0
N317 N 0.91698 0.04067 0.8813 0.0
C318 C 0.93906 0.06714 0.9177 0.0
H319 H 0.93733 0.07284 0.868 0.0
H320 H 0.93725 0.07344 0.96512 0.0
H321 H 0.94939 0.06401 0.91896 0.0
C322 C 0.90632 0.08638 0.6918 0.0
N323 N 0.91511 0.07664 0.69042 0.0
N324 N 0.91488 0.07039 0.75209 0.0
C325 C 0.90584 0.07598 0.79489 0.0
C326 C 0.90012 0.0863 0.75808 0.0
C327 C 0.90375 0.09527 0.62971 0.0
H328 H 0.90194 0.08937 0.58078 0.0
H329 H 0.91252 0.10132 0.61965 0.0
H330 H 0.89524 0.10168 0.63953 0.0
O331 O 0.92423 0.05258 0.5957 0.0
O332 O 0.92282 0.04166 0.69797 0.0
H333 H 0.90106 0.06161 0.87396 0.0
H334 H 0.89543 0.07775 0.89652 0.0
C335 C 0.90342 0.07214 0.87134 0.0
H336 H 0.91231 0.07399 0.90323 0.0
H337 H 0.91118 0.03526 0.84624 0.0
O338 O 0.92376 0.07964 0.52654 0.0
C339 C 0.92255 0.04197 0.62962 0.0
Co340 Co 0.67947 0.17508 0.37237 0.0
Co341 Co 0.69315 0.17623 0.52166 0.0
C342 C 0.68122 0.20004 0.45379 0.0
O343 O 0.67751 0.19367 0.39884 0.0
O344 O 0.68734 0.19452 0.50496 0.0
C345 C 0.66691 0.18054 0.23917 0.0
O346 O 0.66596 0.19248 0.26409 0.0
C347 C 0.69491 0.18108 0.67478 0.0
C348 C 0.70601 0.16398 0.71253 0.0
C349 C 0.69857 0.1744 0.73622 0.0
N350 N 0.69933 0.17452 0.61747 0.0
N351 N 0.70638 0.16457 0.64029 0.0
C352 C 0.6871 0.19335 0.66981 0.0
H353 H 0.69245 0.20037 0.63558 0.0
H354 H 0.67757 0.19126 0.64409 0.0
H355 H 0.6856 0.19793 0.72312 0.0
C356 C 0.66344 0.15529 0.44563 0.0
N357 N 0.67324 0.164 0.44476 0.0
N358 N 0.6788 0.16444 0.50837 0.0
C359 C 0.67247 0.1561 0.55238 0.0
C360 C 0.66262 0.14996 0.51393 0.0
C361 C 0.65539 0.15191 0.38124 0.0
H362 H 0.6619 0.14976 0.3352 0.0
H363 H 0.6493 0.16043 0.36643 0.0
H364 H 0.64905 0.14335 0.39119 0.0
O365 O 0.69784 0.17135 0.35161 0.0
O366 O 0.70801 0.17215 0.4564 0.0
H367 H 0.6845 0.15015 0.64008 0.0
H368 H 0.66731 0.1491 0.65877 0.0
C369 C 0.67494 0.15489 0.6313 0.0
H370 H 0.67504 0.1647 0.65576 0.0
H371 H 0.71055 0.1576 0.60657 0.0
O372 O 0.67093 0.17156 0.28042 0.0
C373 C 0.70819 0.17049 0.38863 0.0
Co374 Co 0.57293 0.92825 0.11842 0.0
Co375 Co 0.57253 0.94269 0.26554 0.0
C376 C 0.54839 0.93054 0.20149 0.0
O377 O 0.55453 0.92599 0.14766 0.0
O378 O 0.55419 0.93725 0.24933 0.0
C379 C 0.56696 0.91659 0.9835 0.0
O380 O 0.55497 0.91646 0.00804 0.0
C381 C 0.56816 0.9432 0.41864 0.0
C382 C 0.5826 0.95764 0.45617 0.0
C383 C 0.57362 0.94852 0.47985 0.0
N384 N 0.57375 0.9488 0.36131 0.0
N385 N 0.5821 0.95771 0.38389 0.0
C386 C 0.55939 0.93154 0.41419 0.0
H387 H 0.56209 0.92542 0.36737 0.0
H388 H 0.55984 0.92558 0.46385 0.0
H389 H 0.54922 0.93492 0.40646 0.0
C390 C 0.5932 0.91266 0.19144 0.0
N391 N 0.58438 0.92237 0.19026 0.0
N392 N 0.58438 0.92841 0.25258 0.0
C393 C 0.59328 0.92268 0.29573 0.0
C394 C 0.59916 0.91252 0.25837 0.0
C395 C 0.59611 0.90411 0.12835 0.0
H396 H 0.59799 0.91026 0.08048 0.0
H397 H 0.58747 0.89797 0.11655 0.0
H398 H 0.6047 0.89779 0.13806 0.0
O399 O 0.57636 0.94677 0.09644 0.0
O400 O 0.57665 0.95738 0.20007 0.0
H401 H 0.59805 0.93676 0.37642 0.0
H402 H 0.60328 0.92046 0.39829 0.0
C403 C 0.5955 0.92629 0.37273 0.0
H404 H 0.58646 0.92455 0.40349 0.0
H405 H 0.58812 0.96314 0.35006 0.0
O406 O 0.57619 0.91971 0.02559 0.0
C407 C 0.57771 0.95726 0.13197 0.0
Co408 Co 0.82067 0.17552 0.1205 0.0
Co409 Co 0.80633 0.17625 0.97298 0.0
C410 C 0.81849 0.20025 0.03856 0.0
O411 O 0.82268 0.19406 0.09308 0.0
O412 O 0.81205 0.19452 0.98932 0.0
C413 C 0.8325 0.18112 0.25552 0.0
O414 O 0.83293 0.19315 0.23142 0.0
C415 C 0.80573 0.18044 0.81933 0.0
C416 C 0.79079 0.16638 0.78337 0.0
C417 C 0.8001 0.17507 0.75875 0.0
N418 N 0.80011 0.1751 0.87732 0.0
N419 N 0.79091 0.16697 0.85565 0.0
C420 C 0.81765 0.18886 0.82216 0.0
H421 H 0.82318 0.18706 0.87234 0.0
H422 H 0.82407 0.18704 0.77527 0.0
H423 H 0.81461 0.19923 0.82094 0.0
C424 C 0.83634 0.15546 0.04571 0.0
N425 N 0.8266 0.16423 0.04765 0.0
N426 N 0.82049 0.16429 0.98549 0.0
C427 C 0.82619 0.15546 0.94182 0.0
C428 C 0.83642 0.14958 0.97854 0.0
C429 C 0.84502 0.15254 0.10824 0.0
H430 H 0.83896 0.15034 0.15604 0.0
H431 H 0.85094 0.16129 0.12085 0.0
H432 H 0.85153 0.14414 0.09742 0.0
O433 O 0.80223 0.17199 0.14243 0.0
O434 O 0.79163 0.17221 0.03881 0.0
H435 H 0.81195 0.15115 0.86118 0.0
H436 H 0.82802 0.1453 0.83937 0.0
C437 C 0.8225 0.15332 0.86486 0.0
H438 H 0.8246 0.16227 0.83395 0.0
H439 H 0.78538 0.16116 0.89008 0.0
O440 O 0.82921 0.17202 0.21303 0.0
C441 C 0.79173 0.17088 0.1068 0.0
Co442 Co 0.57303 0.06941 0.86125 0.0
Co443 Co 0.5722 0.05507 0.71402 0.0
C444 C 0.54824 0.06703 0.78239 0.0
O445 O 0.55452 0.07177 0.83517 0.0
O446 O 0.55393 0.06029 0.73435 0.0
C447 C 0.56802 0.08213 -0.00524 0.0
O448 O 0.55611 0.08351 0.97003 0.0
C449 C 0.567 0.05505 0.56154 0.0
C450 C 0.58195 0.04155 0.51981 0.0
C451 C 0.57273 0.05066 0.49865 0.0
N452 N 0.573 0.04933 0.61721 0.0
N453 N 0.58164 0.04094 0.59205 0.0
C454 C 0.55621 0.06478 0.56958 0.0
H455 H 0.54845 0.06056 0.60376 0.0
H456 H 0.55996 0.07366 0.59669 0.0
H457 H 0.55174 0.06736 0.51728 0.0
C458 C 0.59262 0.08542 0.78656 0.0
N459 N 0.58405 0.0755 0.78845 0.0
N460 N 0.58395 0.06948 0.72607 0.0
C461 C 0.59258 0.07544 0.68221 0.0
C462 C 0.59834 0.08572 0.71913 0.0
C463 C 0.59551 0.09405 0.84937 0.0
H464 H 0.59835 0.08795 0.896 0.0
H465 H 0.58655 0.09946 0.86441 0.0
H466 H 0.60347 0.10104 0.83767 0.0
O467 O 0.57655 0.05084 0.88178 0.0
O468 O 0.57677 0.04031 0.77785 0.0
H469 H 0.60219 0.07808 0.57906 0.0
H470 H 0.58545 0.07342 0.57531 0.0
C471 C 0.59466 0.07196 0.60501 0.0
H472 H 0.59756 0.06159 0.6009 0.0
H473 H 0.58796 0.03552 0.62419 0.0
O474 O 0.57683 0.07784 0.95328 0.0
C475 C 0.57794 0.04038 0.84592 0.0
Co476 Co 0.67907 0.82159 0.60176 0.0
Co477 Co 0.69381 0.82196 0.45573 0.0
C478 C 0.68071 0.79766 0.5139 0.0
O479 O 0.67623 0.80355 0.56875 0.0
O480 O 0.68772 0.80359 0.46782 0.0
C481 C 0.66866 0.81537 0.7382 0.0
O482 O 0.66962 0.80333 0.71475 0.0
C483 C 0.69464 0.81846 0.30175 0.0
C484 C 0.70964 0.83263 0.26784 0.0
C485 C 0.70043 0.82394 0.24203 0.0
N486 N 0.70011 0.82368 0.36052 0.0
N487 N 0.70931 0.8319 0.34009 0.0
C488 C 0.68275 0.81 0.30295 0.0
H489 H 0.67693 0.81188 0.35206 0.0
H490 H 0.67658 0.8117 0.2549 0.0
H491 H 0.68582 0.79964 0.30281 0.0
C492 C 0.664 0.84259 0.53179 0.0
N493 N 0.67368 0.83375 0.5322 0.0
N494 N 0.67985 0.83407 0.47033 0.0
C495 C 0.67424 0.84323 0.4283 0.0
C496 C 0.664 0.84891 0.46588 0.0
C497 C 0.65517 0.84502 0.59429 0.0
H498 H 0.6611 0.84667 0.64325 0.0
H499 H 0.64908 0.83625 0.60368 0.0
H500 H 0.6488 0.85361 0.58541 0.0
O501 O 0.69762 0.82387 0.6252 0.0
O502 O 0.70852 0.82531 0.52295 0.0
H503 H 0.68847 0.84801 0.34851 0.0
H504 H 0.67235 0.85382 0.32735 0.0
C505 C 0.67794 0.84573 0.35171 0.0
H506 H 0.67597 0.83689 0.31955 0.0
H507 H 0.71476 0.83763 0.37536 0.0
O508 O 0.67061 0.82471 0.69479 0.0
C509 C 0.70825 0.82539 0.59132 0.0
Co510 Co 0.92542 0.9292 0.35745 0.0
Co511 Co 0.92627 0.94367 0.21008 0.0
C512 C 0.95001 0.93061 0.27351 0.0
O513 O 0.94369 0.92649 0.32774 0.0
O514 O 0.94451 0.93743 0.22493 0.0
C515 C 0.93114 0.91795 0.49246 0.0
O516 O 0.94317 0.91805 0.46848 0.0
C517 C 0.93105 0.94621 0.057 0.0
C518 C 0.91371 0.95709 0.02081 0.0
C519 C 0.92425 0.94995 -0.00393 0.0
N520 N 0.92444 0.95028 0.11497 0.0
N521 N 0.91435 0.95722 0.09308 0.0
C522 C 0.94344 0.93859 0.06078 0.0
H523 H 0.95036 0.94388 0.09592 0.0
H524 H 0.94151 0.92889 0.08485 0.0
H525 H 0.94803 0.93744 0.00722 0.0
C526 C 0.9047 0.91426 0.28423 0.0
N527 N 0.91369 0.92381 0.28576 0.0
N528 N 0.91426 0.9295 0.22254 0.0
C529 C 0.90582 0.92344 0.17797 0.0
C530 C 0.89938 0.9137 0.21574 0.0
C531 C 0.90115 0.90611 0.34795 0.0
H532 H 0.89998 0.91246 0.39575 0.0
H533 H 0.90918 0.89916 0.35918 0.0
H534 H 0.89199 0.90063 0.33899 0.0
O535 O 0.92297 0.94767 0.38078 0.0
O536 O 0.92254 0.95835 0.27758 0.0
H537 H 0.89995 0.93523 0.08905 0.0
H538 H 0.89968 0.91799 0.07038 0.0
C539 C 0.905 0.92585 0.09882 0.0
H540 H 0.91493 0.92629 0.07612 0.0
H541 H 0.90731 0.96111 0.12737 0.0
O542 O 0.92192 0.92065 0.44961 0.0
C543 C 0.92184 0.95823 0.34586 0.0
Co544 Co 0.67808 0.67725 0.60692 0.0
Co545 Co 0.69346 0.67517 0.46435 0.0
C546 C 0.67988 0.69999 0.51253 0.0
O547 O 0.67456 0.69459 0.56642 0.0
O548 O 0.68763 0.69369 0.47201 0.0
C549 C 0.67195 0.68561 0.74098 0.0
O550 O 0.67717 0.69601 0.71159 0.0
C551 C 0.69245 0.6772 0.31154 0.0
C552 C 0.71024 0.66721 0.27367 0.0
C553 C 0.699 0.67337 0.25039 0.0
N554 N 0.69932 0.67328 0.36873 0.0
N555 N 0.71004 0.66743 0.34613 0.0
C556 C 0.67999 0.68476 0.3166 0.0
H557 H 0.68236 0.6952 0.32519 0.0
H558 H 0.67421 0.68139 0.36342 0.0
H559 H 0.67408 0.68398 0.26703 0.0
C560 C 0.66336 0.65524 0.54304 0.0
N561 N 0.67303 0.6641 0.54224 0.0
N562 N 0.67963 0.66302 0.482 0.0
C563 C 0.67448 0.65321 0.44282 0.0
C564 C 0.66393 0.64802 0.47998 0.0
C565 C 0.65386 0.65379 0.60339 0.0
H566 H 0.65917 0.65367 0.65528 0.0
H567 H 0.64723 0.66234 0.60383 0.0
H568 H 0.64804 0.64472 0.59818 0.0
O569 O 0.69681 0.67556 0.63153 0.0
O570 O 0.70807 0.6723 0.53166 0.0
H571 H 0.68973 0.64951 0.36669 0.0
H572 H 0.67531 0.63997 0.35134 0.0
C573 C 0.67895 0.6496 0.36882 0.0
H574 H 0.67523 0.6569 0.33014 0.0
H575 H 0.71703 0.66335 0.38001 0.0
O576 O 0.66969 0.67577 0.7014 0.0
C577 C 0.70756 0.67336 0.59971 0.0
Co578 Co 0.57228 0.42813 0.8614 0.0
Co579 Co 0.57218 0.44286 0.71514 0.0
C580 C 0.54803 0.43003 0.77653 0.0
O581 O 0.55408 0.42553 0.83078 0.0
O582 O 0.55384 0.43692 0.72946 0.0
C583 C 0.56644 0.41709 -0.00259 0.0
O584 O 0.55438 0.41735 0.97382 0.0
C585 C 0.56832 0.44355 0.56136 0.0
C586 C 0.58229 0.45864 0.52632 0.0
C587 C 0.57368 0.4493 0.50116 0.0
N588 N 0.57356 0.44915 0.6197 0.0
N589 N 0.58165 0.45841 0.5986 0.0
C590 C 0.55999 0.43156 0.56348 0.0
H591 H 0.56187 0.42591 0.6132 0.0
H592 H 0.5618 0.42525 0.51608 0.0
H593 H 0.5496 0.43453 0.56277 0.0
C594 C 0.59291 0.41291 0.78891 0.0
N595 N 0.58409 0.42262 0.79026 0.0
N596 N 0.58424 0.42881 0.72842 0.0
C597 C 0.59327 0.42322 0.68556 0.0
C598 C 0.59904 0.41295 0.72247 0.0
C599 C 0.59554 0.40406 0.85113 0.0
H600 H 0.59744 0.41 0.89981 0.0
H601 H 0.58676 0.39805 0.86174 0.0
H602 H 0.60402 0.39761 0.84115 0.0
O603 O 0.57485 0.44669 0.88445 0.0
O604 O 0.57595 0.45754 0.78188 0.0
H605 H 0.59774 0.43759 0.60591 0.0
H606 H 0.60378 0.42157 0.58421 0.0
C607 C 0.59564 0.42702 0.60897 0.0
H608 H 0.5868 0.42491 0.57703 0.0
H609 H 0.58738 0.46396 0.6334 0.0
O610 O 0.57565 0.41967 0.95423 0.0
C611 C 0.57632 0.4573 0.85022 0.0
Co612 Co 0.81912 0.32326 0.10841 0.0
Co613 Co 0.80484 0.32208 0.96097 0.0
C614 C 0.81683 0.29828 0.03041 0.0
O615 O 0.82151 0.30468 0.08293 0.0
O616 O 0.81011 0.30386 0.98192 0.0
C617 C 0.83191 0.31831 0.24173 0.0
O618 O 0.83349 0.30646 0.21653 0.0
C619 C 0.80447 0.31657 0.80857 0.0
C620 C 0.79131 0.33182 0.76688 0.0
C621 C 0.80014 0.32235 0.74564 0.0
N622 N 0.79899 0.32279 0.86428 0.0
N623 N 0.79078 0.33161 0.83915 0.0
C624 C 0.81396 0.30557 0.81655 0.0
H625 H 0.80964 0.29796 0.85142 0.0
H626 H 0.82297 0.30916 0.84288 0.0
H627 H 0.81632 0.30097 0.76428 0.0
C628 C 0.8349 0.343 0.03298 0.0
N629 N 0.82512 0.33427 0.03514 0.0
N630 N 0.81922 0.33389 0.97243 0.0
C631 C 0.8252 0.34239 0.9279 0.0
C632 C 0.83529 0.34847 0.96487 0.0
C633 C 0.84329 0.34629 0.09617 0.0
H634 H 0.83701 0.34859 0.14298 0.0
H635 H 0.84929 0.33767 0.11045 0.0
H636 H 0.84973 0.35474 0.08519 0.0
O637 O 0.80057 0.32674 0.12889 0.0
O638 O 0.79008 0.32668 0.0249 0.0
H639 H 0.81179 0.34726 0.84422 0.0
H640 H 0.82851 0.35097 0.8225 0.0
C641 C 0.82201 0.34395 0.84994 0.0
H642 H 0.82314 0.33444 0.8228 0.0
H643 H 0.78557 0.33811 0.87127 0.0
O644 O 0.82751 0.32712 0.20051 0.0
C645 C 0.79013 0.32799 0.09289 0.0
Co646 Co 0.92505 0.5695 0.3604 0.0
Co647 Co 0.92592 0.55566 0.21156 0.0
C648 C 0.94973 0.56792 0.27803 0.0
O649 O 0.94348 0.57183 0.33276 0.0
O650 O 0.94408 0.56158 0.22836 0.0
C651 C 0.9314 0.58317 0.48878 0.0
O652 O 0.94255 0.5852 0.45622 0.0
C653 C 0.93014 0.55799 0.06027 0.0
C654 C 0.92084 0.54045 0.01437 0.0
C655 C 0.92718 0.55192 -0.0043 0.0
N656 N 0.92567 0.55054 0.11401 0.0
N657 N 0.92031 0.53994 0.08662 0.0
C658 C 0.93567 0.57136 0.07171 0.0
H659 H 0.93301 0.57515 0.12552 0.0
H660 H 0.93209 0.57824 0.03017 0.0
H661 H 0.94645 0.57087 0.06841 0.0
C662 C 0.9045 0.58492 0.28828 0.0
N663 N 0.91358 0.57547 0.28871 0.0
N664 N 0.91347 0.56933 0.22666 0.0
C665 C 0.90407 0.57459 0.1849 0.0
C666 C 0.89815 0.58473 0.22238 0.0
C667 C 0.90166 0.59352 0.35132 0.0
H668 H 0.90008 0.5874 0.39965 0.0
H669 H 0.91024 0.59983 0.36191 0.0
H670 H 0.89293 0.59967 0.34229 0.0
O671 O 0.92172 0.55084 0.37945 0.0
O672 O 0.92224 0.54049 0.27475 0.0
H673 H 0.90174 0.55958 0.10554 0.0
H674 H 0.89159 0.57358 0.09037 0.0
C675 C 0.90125 0.57034 0.10943 0.0
H676 H 0.90858 0.57464 0.07292 0.0
H677 H 0.91587 0.53264 0.11701 0.0
O678 O 0.92208 0.57799 0.4541 0.0
C679 C 0.92084 0.54041 0.34278 0.0
Co680 Co 0.67833 0.32252 0.36844 0.0
Co681 Co 0.69294 0.32234 0.51513 0.0
C682 C 0.68085 0.29806 0.45225 0.0
O683 O 0.67619 0.30414 0.3985 0.0
O684 O 0.68761 0.30394 0.4996 0.0
C685 C 0.66716 0.31628 0.23313 0.0
O686 O 0.66754 0.30427 0.25756 0.0
C687 C 0.69375 0.31802 0.66834 0.0
C688 C 0.70799 0.33274 0.70506 0.0
C689 C 0.69908 0.3236 0.72925 0.0
N690 N 0.69916 0.3237 0.61069 0.0
N691 N 0.70795 0.33221 0.63278 0.0
C692 C 0.68226 0.30905 0.66452 0.0
H693 H 0.68579 0.29894 0.65606 0.0
H694 H 0.67596 0.3117 0.61833 0.0
H695 H 0.67643 0.30932 0.71468 0.0
C696 C 0.66271 0.34279 0.4416 0.0
N697 N 0.67247 0.33403 0.44017 0.0
N698 N 0.67858 0.33409 0.50231 0.0
C699 C 0.67283 0.34296 0.54558 0.0
C700 C 0.6626 0.34877 0.5085 0.0
C701 C 0.65406 0.3456 0.37884 0.0
H702 H 0.66012 0.34738 0.33052 0.0
H703 H 0.64789 0.33694 0.36788 0.0
H704 H 0.64777 0.35422 0.38849 0.0
O705 O 0.69678 0.326 0.34578 0.0
O706 O 0.70751 0.3265 0.44898 0.0
H707 H 0.6705 0.35283 0.64852 0.0
H708 H 0.67495 0.33607 0.65309 0.0
C709 C 0.67647 0.34518 0.62254 0.0
H710 H 0.68688 0.34796 0.62596 0.0
H711 H 0.71322 0.33832 0.59864 0.0
O712 O 0.66973 0.32563 0.27556 0.0
C713 C 0.70731 0.32746 0.38084 0.0
Co714 Co 0.92625 0.42841 0.62097 0.0
Co715 Co 0.92552 0.44326 0.76682 0.0
C716 C 0.95012 0.43094 0.70893 0.0
O717 O 0.94438 0.42607 0.65459 0.0
O718 O 0.94399 0.43793 0.75422 0.0
C719 C 0.93298 0.4181 0.48501 0.0
O720 O 0.94492 0.41949 0.50907 0.0
C721 C 0.9294 0.44414 0.92018 0.0
C722 C 0.9145 0.45824 0.95613 0.0
C723 C 0.92372 0.44945 0.98076 0.0
N724 N 0.92375 0.44946 0.86222 0.0
N725 N 0.91509 0.45815 0.88383 0.0
C726 C 0.93851 0.43274 0.91696 0.0
H727 H 0.93578 0.42621 0.87191 0.0
H728 H 0.9385 0.42713 0.96787 0.0
H729 H 0.94853 0.43637 0.90688 0.0
C730 C 0.90569 0.4128 0.69113 0.0
N731 N 0.91432 0.42267 0.69066 0.0
N732 N 0.91387 0.42887 0.75247 0.0
C733 C 0.90484 0.42309 0.79452 0.0
C734 C 0.89936 0.41272 0.75699 0.0
C735 C 0.90337 0.40394 0.62854 0.0
H736 H 0.90161 0.40987 0.57968 0.0
H737 H 0.91224 0.39801 0.61895 0.0
H738 H 0.89491 0.39742 0.63747 0.0
O739 O 0.92305 0.4469 0.59723 0.0
O740 O 0.92171 0.45778 0.69975 0.0
H741 H 0.89928 0.43721 0.87337 0.0
H742 H 0.89445 0.4208 0.89577 0.0
C743 C 0.90218 0.42682 0.8709 0.0
H744 H 0.91113 0.42545 0.90301 0.0
H745 H 0.90898 0.46334 0.84936 0.0
O746 O 0.92351 0.41976 0.52794 0.0
C747 C 0.9213 0.45748 0.63143 0.0
Co748 Co 0.81955 0.67744 0.88369 0.0
Co749 Co 0.80469 0.67655 0.02881 0.0
C750 C 0.81815 0.70092 0.97451 0.0
O751 O 0.82285 0.69515 0.92007 0.0
O752 O 0.81082 0.69491 0.01846 0.0
C753 C 0.8301 0.68536 0.752 0.0
O754 O 0.829 0.69685 0.78245 0.0
C755 C 0.80651 0.67987 0.18016 0.0
C756 C 0.78887 0.67044 0.22385 0.0
C757 C 0.80023 0.67685 0.24379 0.0
N758 N 0.79926 0.67549 0.12547 0.0
N759 N 0.78862 0.66999 0.15147 0.0
C760 C 0.81991 0.68545 0.1706 0.0
H761 H 0.82404 0.68256 0.11794 0.0
H762 H 0.82653 0.68209 0.21392 0.0
H763 H 0.81935 0.69624 0.17231 0.0
C764 C 0.83414 0.65567 0.95034 0.0
N765 N 0.82469 0.66476 0.95091 0.0
N766 N 0.81825 0.66407 0.01183 0.0
C767 C 0.82329 0.65431 0.05177 0.0
C768 C 0.83362 0.64873 0.01436 0.0
C769 C 0.84328 0.65362 0.88875 0.0
H770 H 0.83764 0.653 0.83805 0.0
H771 H 0.84989 0.66214 0.8845 0.0
H772 H 0.84911 0.64459 0.8953 0.0
O773 O 0.80081 0.67556 0.86106 0.0
O774 O 0.78979 0.6736 0.96293 0.0
H775 H 0.80803 0.65137 0.12888 0.0
H776 H 0.82204 0.64122 0.1437 0.0
C777 C 0.8188 0.65098 0.12616 0.0
H778 H 0.82289 0.65813 0.16453 0.0
H779 H 0.78142 0.66562 0.12006 0.0
O780 O 0.82805 0.67522 0.78949 0.0
C781 C 0.79012 0.67393 0.89454 0.0
Co782 Co 0.57206 0.5699 0.12835 0.0
Co783 Co 0.5726 0.55478 0.27333 0.0
C784 C 0.5482 0.56769 0.21571 0.0
O785 O 0.55408 0.57278 0.16248 0.0
O786 O 0.55417 0.56034 0.25994 0.0
C787 C 0.56542 0.57979 0.99192 0.0
O788 O 0.5535 0.57829 0.01625 0.0
C789 C 0.5684 0.55345 0.42676 0.0
C790 C 0.58351 0.53952 0.46207 0.0
C791 C 0.57415 0.54811 0.48716 0.0
N792 N 0.57419 0.54836 0.36854 0.0
N793 N 0.58296 0.53975 0.38978 0.0
C794 C 0.55914 0.56473 0.42408 0.0
H795 H 0.5619 0.57146 0.37996 0.0
H796 H 0.55895 0.57018 0.47555 0.0
H797 H 0.54921 0.56101 0.41278 0.0
C798 C 0.59321 0.58481 0.19908 0.0
N799 N 0.58428 0.5752 0.19809 0.0
N800 N 0.58442 0.56904 0.26006 0.0
C801 C 0.59343 0.57465 0.30293 0.0
C802 C 0.59934 0.58481 0.26562 0.0
C803 C 0.59595 0.59354 0.13651 0.0
H804 H 0.59679 0.58761 0.08692 0.0
H805 H 0.58766 0.60037 0.12932 0.0
H806 H 0.60506 0.59918 0.14416 0.0
O807 O 0.5744 0.55132 0.10407 0.0
O808 O 0.57647 0.54031 0.20571 0.0
H809 H 0.59883 0.56082 0.38366 0.0
H810 H 0.60275 0.57744 0.40709 0.0
C811 C 0.59555 0.57109 0.38009 0.0
H812 H 0.58627 0.57213 0.40961 0.0
H813 H 0.58918 0.53474 0.35512 0.0
O814 O 0.57492 0.57842 0.03494 0.0
C815 C 0.57631 0.54068 0.13738 0.0
Co816 Co 0.32003 0.32225 0.37401 0.0
Co817 Co 0.30534 0.32167 0.52007 0.0
C818 C 0.31786 0.29765 0.4538 0.0
O819 O 0.32285 0.3039 0.40163 0.0
O820 O 0.3108 0.30339 0.50034 0.0
C821 C 0.3321 0.31715 0.23939 0.0
O822 O 0.33304 0.30515 0.26339 0.0
C823 C 0.30498 0.31651 0.6727 0.0
C824 C 0.29149 0.33157 0.7134 0.0
C825 C 0.30051 0.32232 0.73525 0.0
N826 N 0.2994 0.32252 0.61657 0.0
N827 N 0.29101 0.33121 0.64112 0.0
C828 C 0.3147 0.3057 0.66544 0.0
H829 H 0.31053 0.29792 0.6313 0.0
H830 H 0.32362 0.30942 0.63864 0.0
H831 H 0.3172 0.30128 0.71798 0.0
C832 C 0.33541 0.34251 0.44829 0.0
N833 N 0.32567 0.33373 0.44624 0.0
N834 N 0.31961 0.33357 0.50845 0.0
C835 C 0.3254 0.34229 0.55248 0.0
C836 C 0.33557 0.34826 0.51576 0.0
C837 C 0.34404 0.34552 0.38569 0.0
H838 H 0.33794 0.34768 0.33796 0.0
H839 H 0.35003 0.33682 0.373 0.0
H840 H 0.35048 0.35397 0.39645 0.0
O841 O 0.30139 0.3249 0.35233 0.0
O842 O 0.29065 0.32611 0.45525 0.0
H843 H 0.31168 0.3472 0.63452 0.0
H844 H 0.32825 0.35138 0.65708 0.0
C845 C 0.32198 0.34411 0.62998 0.0
H846 H 0.32327 0.33474 0.6584 0.0
H847 H 0.28568 0.33755 0.60858 0.0
O848 O 0.32838 0.32609 0.2818 0.0
C849 C 0.29084 0.32651 0.38692 0.0
Co850 Co 0.42618 0.5698 0.12687 0.0
Co851 Co 0.42622 0.55525 0.27357 0.0
C852 C 0.4504 0.56798 0.21208 0.0
O853 O 0.44438 0.57241 0.15755 0.0
O854 O 0.44456 0.56116 0.25933 0.0
C855 C 0.43204 0.581 0.99108 0.0
O856 O 0.44409 0.58083 0.01475 0.0
C857 C 0.43005 0.55463 0.42735 0.0
C858 C 0.41599 0.53963 0.46253 0.0
C859 C 0.42465 0.54893 0.48759 0.0
N860 N 0.42478 0.54903 0.36907 0.0
N861 N 0.41664 0.53982 0.39026 0.0
C862 C 0.43844 0.56657 0.42516 0.0
H863 H 0.43661 0.5722 0.37533 0.0
H864 H 0.43663 0.57291 0.47244 0.0
H865 H 0.44881 0.56355 0.42613 0.0
C866 C 0.40551 0.5851 0.1986 0.0
N867 N 0.41434 0.5754 0.19772 0.0
N868 N 0.41419 0.56929 0.25981 0.0
C869 C 0.40515 0.57493 0.30241 0.0
C870 C 0.39936 0.58514 0.26502 0.0
C871 C 0.40285 0.59383 0.13594 0.0
H872 H 0.40097 0.58781 0.08756 0.0
H873 H 0.41161 0.59986 0.12506 0.0
H874 H 0.39435 0.60026 0.14558 0.0
O875 O 0.42356 0.55122 0.10419 0.0
O876 O 0.42245 0.54052 0.20723 0.0
H877 H 0.40059 0.5607 0.38263 0.0
H878 H 0.39472 0.5768 0.40391 0.0
C879 C 0.40279 0.57125 0.37917 0.0
H880 H 0.41166 0.57331 0.41086 0.0
H881 H 0.41089 0.53429 0.35549 0.0
O882 O 0.42284 0.57825 0.03402 0.0
C883 C 0.42207 0.54067 0.13889 0.0
Co884 Co 0.17813 0.67601 0.87339 0.0
Co885 Co 0.1931 0.67577 0.01867 0.0
C886 C 0.1809 0.70024 0.95584 0.0
O887 O 0.1756 0.69427 0.90359 0.0
O888 O 0.18804 0.69424 0.00093 0.0
C889 C 0.16704 0.68188 0.73797 0.0
O890 O 0.16737 0.69394 0.76155 0.0
C891 C 0.19405 0.68074 0.17149 0.0
C892 C 0.20674 0.6649 0.21096 0.0
C893 C 0.19829 0.67461 0.2336 0.0
N894 N 0.1992 0.6745 0.11485 0.0
N895 N 0.20713 0.66532 0.13866 0.0
C896 C 0.18494 0.69209 0.1652 0.0
H897 H 0.18952 0.6997 0.13146 0.0
H898 H 0.17581 0.68893 0.13844 0.0
H899 H 0.18274 0.69653 0.21809 0.0
C900 C 0.16248 0.6558 0.94632 0.0
N901 N 0.1724 0.66437 0.94461 0.0
N902 N 0.17853 0.66427 0.00666 0.0
C903 C 0.17258 0.65559 0.05028 0.0
C904 C 0.16226 0.64991 0.01341 0.0
C905 C 0.15372 0.65313 0.88382 0.0
H906 H 0.1597 0.65107 0.83553 0.0
H907 H 0.1478 0.66194 0.87246 0.0
H908 H 0.14718 0.64472 0.89395 0.0
O909 O 0.19669 0.67314 0.85036 0.0
O910 O 0.20754 0.67116 0.95259 0.0
H911 H 0.18609 0.64986 0.13178 0.0
H912 H 0.16932 0.64668 0.15489 0.0
C913 C 0.17598 0.65358 0.12766 0.0
H914 H 0.1753 0.663 0.15617 0.0
H915 H 0.21204 0.65873 0.10562 0.0
O916 O 0.16959 0.67265 0.78106 0.0
C917 C 0.20725 0.67109 0.88424 0.0
Co918 Co 0.07206 0.42846 0.62555 0.0
Co919 Co 0.07226 0.44307 0.77229 0.0
C920 C 0.04794 0.43053 0.71051 0.0
O921 O 0.05391 0.42604 0.65616 0.0
O922 O 0.05386 0.4373 0.75761 0.0
C923 C 0.06536 0.41648 0.49351 0.0
O924 O 0.05373 0.41604 0.52276 0.0
C925 C 0.06985 0.44038 0.92464 0.0
C926 C 0.07721 0.45898 0.96858 0.0
C927 C 0.07246 0.44684 0.98794 0.0
N928 N 0.07307 0.44821 0.86981 0.0
N929 N 0.07735 0.45939 0.89611 0.0
C930 C 0.0642 0.427 0.91611 0.0
H931 H 0.06511 0.42356 0.85989 0.0
H932 H 0.0691 0.41999 0.95246 0.0
H933 H 0.05374 0.42727 0.93105 0.0
C934 C 0.0922 0.41257 0.69889 0.0
N935 N 0.08374 0.42259 0.69638 0.0
N936 N 0.08437 0.4292 0.75687 0.0
C937 C 0.09358 0.42378 0.79897 0.0
C938 C 0.09864 0.41295 0.76436 0.0
C939 C 0.09355 0.40255 0.64103 0.0
H940 H 0.08387 0.40039 0.6173 0.0
H941 H 0.09799 0.39344 0.66196 0.0
H942 H 0.09987 0.40652 0.59789 0.0
O943 O 0.07492 0.44718 0.60498 0.0
O944 O 0.0761 0.45799 0.70798 0.0
H945 H 0.10866 0.4268 0.87776 0.0
H946 H 0.09258 0.4249 0.91336 0.0
C947 C 0.09825 0.42926 0.86889 0.0
H948 H 0.09712 0.44 0.86973 0.0
H949 H 0.08061 0.46716 0.86476 0.0
O950 O 0.07499 0.42002 0.53168 0.0
C951 C 0.07648 0.45777 0.63959 0.0
Co952 Co 0.32015 0.67601 0.61581 0.0
Co953 Co 0.30565 0.6761 0.46891 0.0
C954 C 0.31807 0.70035 0.53161 0.0
O955 O 0.32253 0.6943 0.58595 0.0
O956 O 0.31135 0.69451 0.48391 0.0
C957 C 0.33149 0.68187 0.75143 0.0
O958 O 0.33144 0.69392 0.72763 0.0
C959 C 0.30505 0.68005 0.3152 0.0
C960 C 0.29018 0.66589 0.27955 0.0
C961 C 0.29942 0.67463 0.25477 0.0
N962 N 0.29947 0.67471 0.3733 0.0
N963 N 0.29032 0.66652 0.35182 0.0
C964 C 0.31693 0.68852 0.31778 0.0
H965 H 0.32253 0.68671 0.36773 0.0
H966 H 0.32331 0.68677 0.27063 0.0
H967 H 0.31385 0.69888 0.3169 0.0
C968 C 0.33558 0.65548 0.54355 0.0
N969 N 0.32588 0.66431 0.54451 0.0
N970 N 0.3198 0.66418 0.48233 0.0
C971 C 0.32546 0.65518 0.43959 0.0
C972 C 0.33565 0.64937 0.47699 0.0
C973 C 0.34425 0.65275 0.60639 0.0
H974 H 0.33818 0.6508 0.65449 0.0
H975 H 0.35025 0.6615 0.61785 0.0
H976 H 0.35069 0.64425 0.59663 0.0
O977 O 0.30162 0.67313 0.63822 0.0
O978 O 0.29097 0.67207 0.53497 0.0
H979 H 0.31126 0.65053 0.35933 0.0
H980 H 0.32741 0.64482 0.33787 0.0
C981 C 0.32178 0.65283 0.3628 0.0
H982 H 0.32376 0.66174 0.33128 0.0
H983 H 0.28482 0.6607 0.38639 0.0
O984 O 0.32863 0.67268 0.70862 0.0
C985 C 0.2911 0.67158 0.60329 0.0
Co986 Co 0.0718 0.5706 0.36611 0.0
Co987 Co 0.07211 0.55554 0.22107 0.0
C988 C 0.04766 0.56791 0.28304 0.0
O989 O 0.0536 0.57321 0.3354 0.0
O990 O 0.05367 0.56071 0.23828 0.0
C991 C 0.06591 0.58152 0.50177 0.0
O992 O 0.05385 0.58101 0.47843 0.0
C993 C 0.06727 0.55462 0.06816 0.0
C994 C 0.08301 0.54179 0.029 0.0
C995 C 0.07339 0.55032 0.00618 0.0
N996 N 0.07342 0.54942 0.12493 0.0
N997 N 0.08254 0.54141 0.10129 0.0
C998 C 0.056 0.56383 0.07423 0.0
H999 H 0.04832 0.55929 0.10766 0.0
H1000 H 0.05921 0.57293 0.10122 0.0
H1001 H 0.05163 0.5661 0.02125 0.0
C1002 C 0.09214 0.58613 0.29355 0.0
N1003 N 0.08352 0.57625 0.29514 0.0
N1004 N 0.08367 0.57008 0.23322 0.0
C1005 C 0.09243 0.57595 0.18982 0.0
C1006 C 0.09811 0.58627 0.22669 0.0
C1007 C 0.09478 0.59493 0.35599 0.0
H1008 H 0.0968 0.58896 0.40437 0.0
H1009 H 0.08597 0.60086 0.36715 0.0
H1010 H 0.10319 0.60146 0.34591 0.0
O1011 O 0.07458 0.55202 0.38941 0.0
O1012 O 0.07661 0.54109 0.28743 0.0
H1013 H 0.09816 0.56232 0.10892 0.0
H1014 H 0.10154 0.57905 0.08559 0.0
C1015 C 0.09454 0.57247 0.11262 0.0
H1016 H 0.08518 0.57322 0.08362 0.0
H1017 H 0.08906 0.53644 0.13447 0.0
O1018 O 0.07515 0.57915 0.45842 0.0
C1019 C 0.07662 0.54143 0.35578 0.0
Co1020 Co 0.17792 0.32205 0.11096 0.0
Co1021 Co 0.19303 0.32406 0.96756 0.0
C1022 C 0.18003 0.29909 0.01793 0.0
O1023 O 0.17475 0.30455 0.07175 0.0
O1024 O 0.18756 0.30541 0.9763 0.0
C1025 C 0.17101 0.31362 0.24489 0.0
O1026 O 0.17581 0.30296 0.21609 0.0
C1027 C 0.19171 0.32199 0.81503 0.0
C1028 C 0.20952 0.33178 0.77591 0.0
C1029 C 0.19817 0.32571 0.75344 0.0
N1030 N 0.19872 0.32588 0.8717 0.0
N1031 N 0.20945 0.33162 0.84838 0.0
C1032 C 0.17919 0.31455 0.82093 0.0
H1033 H 0.17369 0.31774 0.86915 0.0
H1034 H 0.17304 0.31566 0.77244 0.0
H1035 H 0.18148 0.30405 0.82738 0.0
C1036 C 0.16264 0.34353 0.04602 0.0
N1037 N 0.1725 0.33489 0.04547 0.0
N1038 N 0.17906 0.33603 0.98511 0.0
C1039 C 0.17373 0.34573 0.94585 0.0
C1040 C 0.16306 0.35071 0.98285 0.0
C1041 C 0.15307 0.34479 0.10619 0.0
H1042 H 0.15839 0.34559 0.15788 0.0
H1043 H 0.147 0.33584 0.10858 0.0
H1044 H 0.1467 0.35343 0.09933 0.0
O1045 O 0.19666 0.32423 0.13499 0.0
O1046 O 0.20764 0.32737 0.03403 0.0
H1047 H 0.18897 0.34945 0.8697 0.0
H1048 H 0.1747 0.3593 0.85624 0.0
C1049 C 0.1782 0.34953 0.87217 0.0
H1050 H 0.1743 0.34245 0.83272 0.0
H1051 H 0.21655 0.33566 0.88177 0.0
O1052 O 0.16943 0.32357 0.2052 0.0
C1053 C 0.20728 0.32655 0.1022 0.0
Co1054 Co 0.42653 0.42766 0.8652 0.0
Co1055 Co 0.42557 0.44269 0.72019 0.0
C1056 C 0.45021 0.43002 0.77698 0.0
O1057 O 0.44449 0.42492 0.83065 0.0
O1058 O 0.44409 0.43729 0.73294 0.0
C1059 C 0.43327 0.41773 0.00157 0.0
O1060 O 0.44519 0.41933 0.97747 0.0
C1061 C 0.42952 0.44367 0.56681 0.0
C1062 C 0.41461 0.45778 0.531 0.0
C1063 C 0.42386 0.44903 0.50628 0.0
N1064 N 0.42384 0.44894 0.62483 0.0
N1065 N 0.41518 0.45763 0.60331 0.0
C1066 C 0.43865 0.43229 0.56986 0.0
H1067 H 0.43588 0.4257 0.61459 0.0
H1068 H 0.43869 0.42673 0.51874 0.0
H1069 H 0.44865 0.43592 0.58039 0.0
C1070 C 0.40564 0.41232 0.79545 0.0
N1071 N 0.41434 0.42214 0.79605 0.0
N1072 N 0.41389 0.42836 0.73434 0.0
C1073 C 0.40482 0.42266 0.69225 0.0
C1074 C 0.39928 0.41231 0.72962 0.0
C1075 C 0.40336 0.40338 0.85768 0.0
H1076 H 0.40188 0.40923 0.90711 0.0
H1077 H 0.41214 0.39725 0.86594 0.0
H1078 H 0.39475 0.39704 0.84911 0.0
O1079 O 0.42403 0.44626 0.88921 0.0
O1080 O 0.42168 0.45717 0.78741 0.0
H1081 H 0.39926 0.43677 0.61339 0.0
H1082 H 0.39457 0.42035 0.59048 0.0
C1083 C 0.40222 0.4264 0.6158 0.0
H1084 H 0.41122 0.4251 0.58403 0.0
H1085 H 0.40905 0.4628 0.63782 0.0
O1086 O 0.42378 0.41912 0.95852 0.0
C1087 C 0.42195 0.45686 0.85573 0.0
H1088 H 0.19473 0.28259 0.93608 0.0
H1089 H 0.16129 0.2835 0.07676 0.0
H1090 H 0.19363 0.25892 0.9326 0.0
H1091 H 0.15977 0.25985 0.07063 0.0
H1092 H 0.17265 0.21839 0.12723 0.0
H1093 H 0.17109 0.24194 0.11807 0.0
H1094 H 0.18277 0.23988 0.89521 0.0
H1095 H 0.18492 0.21632 0.90558 0.0
C1096 C 0.18696 0.27774 0.96498 0.0
C1097 C 0.1782 0.28491 0.00739 0.0
C1098 C 0.18627 0.26414 0.96272 0.0
C1099 C 0.17669 0.2574 0.00201 0.0
C1100 C 0.16748 0.26466 0.04117 0.0
C1101 C 0.16829 0.27825 0.04426 0.0
C1102 C 0.17478 0.22294 0.07608 0.0
C1103 C 0.17898 0.21547 0.01726 0.0
C1104 C 0.1738 0.23649 0.0706 0.0
C1105 C 0.17681 0.24289 0.00584 0.0
C1106 C 0.1806 0.23534 0.9463 0.0
C1107 C 0.18175 0.2218 0.95208 0.0
H1108 H 0.03121 0.94266 0.18561 0.0
H1109 H 0.03217 0.91326 0.35177 0.0
H1110 H 0.00762 0.94109 0.18113 0.0
H1111 H 0.00856 0.9113 0.34532 0.0
H1112 H 0.96654 0.9253 0.38419 0.0
H1113 H 0.99014 0.92365 0.38025 0.0
H1114 H 0.98919 0.92841 0.14957 0.0
H1115 H 0.96558 0.93044 0.15413 0.0
C1116 C 0.0264 0.93569 0.22033 0.0
C1117 C 0.03357 0.92819 0.26958 0.0
C1118 C 0.01285 0.93471 0.21743 0.0
C1119 C 0.00613 0.92612 0.26319 0.0
C1120 C 0.01337 0.91822 0.31032 0.0
C1121 C 0.02693 0.91928 0.31372 0.0
C1122 C 0.97135 0.92585 0.33252 0.0
C1123 C 0.96419 0.9282 0.26954 0.0
C1124 C 0.98491 0.92484 0.33016 0.0
C1125 C 0.99163 0.926 0.2646 0.0
C1126 C 0.98439 0.92777 0.20121 0.0
C1127 C 0.97083 0.92893 0.20373 0.0
H1128 H 0.30381 0.78148 0.44418 0.0
H1129 H 0.3353 0.78298 0.59799 0.0
H1130 H 0.30538 0.75787 0.44102 0.0
H1131 H 0.33735 0.75935 0.59218 0.0
H1132 H 0.32518 0.71719 0.63812 0.0
H1133 H 0.32631 0.7408 0.63239 0.0
H1134 H 0.31709 0.7394 0.40581 0.0
H1135 H 0.31531 0.71577 0.41273 0.0
C1136 C 0.31125 0.77677 0.47635 0.0
C1137 C 0.31934 0.7841 0.52189 0.0
C1138 C 0.31222 0.7632 0.47417 0.0
C1139 C 0.32146 0.75662 0.51664 0.0
C1140 C 0.32992 0.76403 0.55994 0.0
C1141 C 0.32881 0.7776 0.56295 0.0
C1142 C 0.32352 0.72191 0.58691 0.0
C1143 C 0.32007 0.7146 0.52598 0.0
C1144 C 0.32424 0.73549 0.58344 0.0
C1145 C 0.32174 0.7421 0.51866 0.0
C1146 C 0.31881 0.73471 0.45701 0.0
C1147 C 0.31787 0.72113 0.46079 0.0
H1148 H 0.46727 0.07489 0.89907 0.0
H1149 H 0.46556 0.06627 0.67213 0.0
H1150 H 0.4909 0.07574 0.89291 0.0
H1151 H 0.4892 0.06772 0.66503 0.0
H1152 H 0.53094 0.05351 0.69983 0.0
H1153 H 0.50738 0.0553 0.69909 0.0
H1154 H 0.50961 0.08683 0.85289 0.0
H1155 H 0.53324 0.08462 0.85585 0.0
C1156 C 0.47194 0.07344 0.84751 0.0
C1157 C 0.46455 0.07041 0.7862 0.0
C1158 C 0.48551 0.074 0.84383 0.0
C1159 C 0.49203 0.07172 0.77852 0.0
C1160 C 0.48456 0.06924 0.71658 0.0
C1161 C 0.47099 0.0685 0.72049 0.0
C1162 C 0.52642 0.0609 0.73307 0.0
C1163 C 0.53397 0.06887 0.77819 0.0
C1164 C 0.51287 0.062 0.73232 0.0
C1165 C 0.50652 0.07121 0.77599 0.0
C1166 C 0.51412 0.07946 0.81953 0.0
C1167 C 0.52769 0.07825 0.82096 0.0
H1168 H 0.16302 0.71584 0.88856 0.0
H1169 H 0.1953 0.717 0.03736 0.0
H1170 H 0.16128 0.73952 0.89459 0.0
H1171 H 0.19393 0.7406 0.04131 0.0
H1172 H 0.18378 0.78247 0.07593 0.0
H1173 H 0.18194 0.75883 0.08043 0.0
H1174 H 0.1726 0.75819 0.85398 0.0
H1175 H 0.17388 0.78184 0.85041 0.0
C1176 C 0.16973 0.72115 0.92262 0.0
C1177 C 0.1793 0.71453 0.96246 0.0
C1178 C 0.16879 0.73473 0.92578 0.0
C1179 C 0.17749 0.74203 0.96822 0.0
C1180 C 0.18689 0.73534 0.00904 0.0
C1181 C 0.18774 0.72177 0.0065 0.0
C1182 C 0.18119 0.77729 0.02732 0.0
C1183 C 0.17904 0.78404 0.96275 0.0
C1184 C 0.18022 0.76371 0.02975 0.0
C1185 C 0.17725 0.75654 0.96742 0.0
C1186 C 0.17473 0.76335 0.90331 0.0
C1187 C 0.17554 0.77695 0.90112 0.0
H1188 H 0.53156 0.94194 0.29615 0.0
H1189 H 0.53288 0.91487 0.11835 0.0
H1190 H 0.50798 0.94039 0.29817 0.0
H1191 H 0.50923 0.91292 0.12212 0.0
H1192 H 0.46692 0.92698 0.08975 0.0
H1193 H 0.49059 0.92555 0.09245 0.0
H1194 H 0.48979 0.92705 0.32449 0.0
H1195 H 0.46617 0.92887 0.32133 0.0
C1196 C 0.52684 0.93549 0.25818 0.0
C1197 C 0.53412 0.92861 0.20671 0.0
C1198 C 0.51328 0.93452 0.25965 0.0
C1199 C 0.50665 0.92655 0.21016 0.0
C1200 C 0.51398 0.91933 0.1602 0.0
C1201 C 0.52755 0.92039 0.15832 0.0
C1202 C 0.47181 0.92688 0.14134 0.0
C1203 C 0.46469 0.92826 0.20533 0.0
C1204 C 0.48539 0.92599 0.14297 0.0
C1205 C 0.49215 0.92631 0.20871 0.0
C1206 C 0.48495 0.9271 0.27281 0.0
C1207 C 0.47139 0.92813 0.27109 0.0
H1208 H 0.32236 0.21608 0.34222 0.0
H1209 H 0.31873 0.21549 0.57321 0.0
H1210 H 0.3239 0.23978 0.34486 0.0
H1211 H 0.32056 0.23913 0.57626 0.0
H1212 H 0.3052 0.28061 0.54207 0.0
H1213 H 0.30692 0.25704 0.54434 0.0
H1214 H 0.33643 0.25858 0.37904 0.0
H1215 H 0.33448 0.28228 0.37553 0.0
C1216 C 0.32211 0.22099 0.3937 0.0
C1217 C 0.32018 0.21392 0.45745 0.0
C1218 C 0.32304 0.23459 0.39527 0.0
C1219 C 0.3222 0.24139 0.46074 0.0
C1220 C 0.32092 0.23423 0.52474 0.0
C1221 C 0.31988 0.22067 0.52306 0.0
C1222 C 0.31219 0.27597 0.5068 0.0
C1223 C 0.3197 0.28336 0.45862 0.0
C1224 C 0.31321 0.26242 0.50831 0.0
C1225 C 0.32183 0.25588 0.46193 0.0
C1226 C 0.32957 0.26329 0.41483 0.0
C1227 C 0.3285 0.27688 0.41308 0.0
H1228 H 0.96628 0.0653 0.82418 0.0
H1229 H 0.96813 0.07662 0.60098 0.0
H1230 H 0.98987 0.067 0.8329 0.0
H1231 H 0.99171 0.07768 0.6084 0.0
H1232 H 0.03376 0.08636 0.64673 0.0
H1233 H 0.01016 0.08847 0.65211 0.0
H1234 H 0.00839 0.05547 0.79635 0.0
H1235 H 0.03198 0.05382 0.79369 0.0
C1236 C 0.97172 0.06817 0.777 0.0
C1237 C 0.96533 0.07078 0.71187 0.0
C1238 C 0.98528 0.06906 0.7818 0.0
C1239 C 0.99278 0.07238 0.72124 0.0
C1240 C 0.98631 0.07531 0.65658 0.0
C1241 C 0.97275 0.07461 0.65212 0.0
C1242 C 0.02832 0.07965 0.68021 0.0
C1243 C 0.03473 0.06987 0.71939 0.0
C1244 C 0.01477 0.0808 0.68296 0.0
C1245 C 0.00729 0.07206 0.72407 0.0
C1246 C 0.01378 0.06251 0.76489 0.0
C1247 C 0.02734 0.0615 0.763 0.0
H1248 H 0.82846 0.71788 0.87709 0.0
H1249 H 0.81291 0.71605 0.09249 0.0
H1250 H 0.82995 0.74136 0.88604 0.0
H1251 H 0.81501 0.73965 0.10303 0.0
H1252 H 0.80298 0.78209 0.05176 0.0
H1253 H 0.80459 0.75848 0.05984 0.0
H1254 H 0.84019 0.75955 0.93577 0.0
H1255 H 0.83815 0.7831 0.9246 0.0
C1256 C 0.82561 0.72246 0.92705 0.0
C1257 C 0.82047 0.71507 0.98384 0.0
C1258 C 0.82657 0.73599 0.93247 0.0
C1259 C 0.82258 0.7425 -0.00473 0.0
C1260 C 0.81795 0.73503 0.05333 0.0
C1261 C 0.81683 0.72147 0.04751 0.0
C1262 C 0.81123 0.77728 0.0269 0.0
C1263 C 0.82033 0.78443 0.98663 0.0
C1264 C 0.81221 0.76372 0.03192 0.0
C1265 C 0.82244 0.75702 -0.00229 0.0
C1266 C 0.83198 0.76431 0.96117 0.0
C1267 C 0.83087 0.77783 0.95514 0.0
H1268 H 0.69261 0.28132 0.54612 0.0
H1269 H 0.66501 0.28243 0.37086 0.0
H1270 H 0.6912 0.2577 0.54846 0.0
H1271 H 0.66322 0.25875 0.37498 0.0
H1272 H 0.67741 0.21656 0.34097 0.0
H1273 H 0.67591 0.24023 0.34402 0.0
H1274 H 0.6781 0.23937 0.57589 0.0
H1275 H 0.67997 0.21574 0.57236 0.0
C1276 C 0.68607 0.27654 0.5088 0.0
C1277 C 0.67901 0.28378 0.45789 0.0
C1278 C 0.68519 0.26296 0.51045 0.0
C1279 C 0.67713 0.25627 0.46171 0.0
C1280 C 0.66971 0.26355 0.41243 0.0
C1281 C 0.67068 0.27714 0.41035 0.0
C1282 C 0.67744 0.22143 0.39262 0.0
C1283 C 0.67902 0.21429 0.45641 0.0
C1284 C 0.67652 0.23501 0.39445 0.0
C1285 C 0.67699 0.24176 0.46021 0.0
C1286 C 0.67801 0.23454 0.52417 0.0
C1287 C 0.67908 0.22097 0.52223 0.0
H1288 H 0.81663 0.2157 0.91968 0.0
H1289 H 0.82464 0.21706 0.14732 0.0
H1290 H 0.81807 0.23934 0.91368 0.0
H1291 H 0.82548 0.24075 0.14223 0.0
H1292 H 0.83425 0.28336 0.10578 0.0
H1293 H 0.83652 0.25969 0.10348 0.0
H1294 H 0.80536 0.25729 0.94773 0.0
H1295 H 0.80349 0.28085 0.94796 0.0
C1296 C 0.81872 0.22105 0.96846 0.0
C1297 C 0.82044 0.21451 0.03402 0.0
C1298 C 0.81946 0.23463 0.96517 0.0
C1299 C 0.82173 0.24202 0.02762 0.0
C1300 C 0.82387 0.23542 0.09283 0.0
C1301 C 0.82332 0.22181 0.09588 0.0
C1302 C 0.82797 0.27776 0.07063 0.0
C1303 C 0.8187 0.28399 0.02703 0.0
C1304 C 0.82922 0.26418 0.06957 0.0
C1305 C 0.82112 0.25652 0.0255 0.0
C1306 C 0.81196 0.26283 0.98129 0.0
C1307 C 0.81082 0.27638 0.98172 0.0
H1308 H 0.66071 0.7155 0.56791 0.0
H1309 H 0.6946 0.71642 0.43055 0.0
H1310 H 0.65888 0.7391 0.55917 0.0
H1311 H 0.69321 0.74003 0.42466 0.0
H1312 H 0.6715 0.78074 0.61495 0.0
H1313 H 0.66979 0.75722 0.60637 0.0
H1314 H 0.68249 0.75891 0.38508 0.0
H1315 H 0.68482 0.78246 0.39506 0.0
C1316 C 0.66774 0.72075 0.53558 0.0
C1317 C 0.67787 0.7141 0.50047 0.0
C1318 C 0.66676 0.7343 0.53098 0.0
C1319 C 0.67601 0.74156 0.4921 0.0
C1320 C 0.68581 0.73482 0.45446 0.0
C1321 C 0.68667 0.72124 0.45816 0.0
C1322 C 0.67381 0.77612 0.5642 0.0
C1323 C 0.67839 0.78349 0.50584 0.0
C1324 C 0.67274 0.76259 0.55904 0.0
C1325 C 0.67603 0.75608 0.49502 0.0
C1326 C 0.6801 0.76353 0.43568 0.0
C1327 C 0.68136 0.77707 0.4412 0.0
H1328 H 0.46683 0.44417 0.69326 0.0
H1329 H 0.4657 0.41168 0.84072 0.0
H1330 H 0.49042 0.44269 0.6885 0.0
H1331 H 0.4893 0.40973 0.83323 0.0
H1332 H 0.53129 0.42207 0.88152 0.0
H1333 H 0.50772 0.42072 0.87554 0.0
H1334 H 0.50898 0.43134 0.65083 0.0
H1335 H 0.53258 0.43332 0.65809 0.0
C1336 C 0.47161 0.43653 0.72359 0.0
C1337 C 0.4644 0.42813 0.76799 0.0
C1338 C 0.48517 0.43561 0.72049 0.0
C1339 C 0.49185 0.42613 0.76088 0.0
C1340 C 0.48455 0.41735 0.80269 0.0
C1341 C 0.47099 0.4184 0.80665 0.0
C1342 C 0.52656 0.424 0.83063 0.0
C1343 C 0.53382 0.42789 0.7704 0.0
C1344 C 0.513 0.42314 0.827 0.0
C1345 C 0.50636 0.42597 0.76272 0.0
C1346 C 0.5137 0.42935 0.70166 0.0
C1347 C 0.52726 0.4304 0.70562 0.0
H1348 H 0.03209 0.58589 0.34978 0.0
H1349 H 0.03094 0.55362 0.2007 0.0
H1350 H 0.00845 0.58775 0.34288 0.0
H1351 H 0.00737 0.55513 0.19582 0.0
H1352 H 0.96554 0.56542 0.16068 0.0
H1353 H 0.98918 0.56724 0.15643 0.0
H1354 H 0.98977 0.57641 0.38311 0.0
H1355 H 0.96615 0.57512 0.38651 0.0
C1356 C 0.02679 0.57921 0.31546 0.0
C1357 C 0.0334 0.5696 0.27584 0.0
C1358 C 0.01323 0.58022 0.31178 0.0
C1359 C 0.00595 0.57156 0.26902 0.0
C1360 C 0.01262 0.56213 0.22834 0.0
C1361 C 0.02617 0.56121 0.23143 0.0
C1362 C 0.97072 0.56797 0.20939 0.0
C1363 C 0.96397 0.57006 0.274 0.0
C1364 C 0.98429 0.56894 0.2071 0.0
C1365 C 0.99144 0.57185 0.26957 0.0
C1366 C 0.98462 0.57433 0.33368 0.0
C1367 C 0.97104 0.57352 0.33576 0.0
H1368 H 0.03115 0.42323 0.6046 0.0
H1369 H 0.03255 0.43349 0.82953 0.0
H1370 H 0.0076 0.422 0.61028 0.0
H1371 H 0.00889 0.43166 0.83634 0.0
H1372 H 0.96671 0.44476 0.79452 0.0
H1373 H 0.9903 0.44319 0.79979 0.0
H1374 H 0.98921 0.41082 0.65097 0.0
H1375 H 0.96563 0.41286 0.643 0.0
C1376 C 0.02643 0.42496 0.65574 0.0
C1377 C 0.03372 0.42854 0.7165 0.0
C1378 C 0.01288 0.42417 0.65918 0.0
C1379 C 0.00626 0.42675 0.72377 0.0
C1380 C 0.01361 0.42986 0.78531 0.0
C1381 C 0.02718 0.43084 0.78158 0.0
C1382 C 0.9715 0.43724 0.76333 0.0
C1383 C 0.96431 0.42903 0.71767 0.0
C1384 C 0.98506 0.43627 0.76675 0.0
C1385 C 0.99174 0.42693 0.72541 0.0
C1386 C 0.98445 0.41833 0.68229 0.0
C1387 C 0.97091 0.41944 0.67801 0.0
H1388 H 0.4657 0.56499 0.33126 0.0
H1389 H 0.46727 0.57568 0.10705 0.0
H1390 H 0.48929 0.56696 0.33925 0.0
H1391 H 0.49084 0.57702 0.11382 0.0
H1392 H 0.53138 0.55381 0.29947 0.0
H1393 H 0.5078 0.55541 0.30297 0.0
H1394 H 0.50929 0.58804 0.15612 0.0
H1395 H 0.5329 0.58598 0.14996 0.0
C1396 C 0.47108 0.56779 0.28371 0.0
C1397 C 0.46461 0.57013 0.2185 0.0
C1398 C 0.48463 0.56883 0.2881 0.0
C1399 C 0.49205 0.57204 0.22706 0.0
C1400 C 0.4855 0.57473 0.16232 0.0
C1401 C 0.47194 0.57388 0.15825 0.0
C1402 C 0.52669 0.5614 0.26841 0.0
C1403 C 0.53401 0.56968 0.22385 0.0
C1404 C 0.51313 0.56239 0.27078 0.0
C1405 C 0.50656 0.57181 0.22947 0.0
C1406 C 0.51396 0.58047 0.18741 0.0
C1407 C 0.52752 0.57936 0.18423 0.0
H1408 H 0.17561 0.161 0.31266 0.0
H1409 H 0.16186 0.19999 0.35728 0.0
H1410 H 0.18239 0.15864 0.43617 0.0
H1411 H 0.16793 0.19734 0.48304 0.0
H1412 H 0.19739 0.19616 0.66612 0.0
H1413 H 0.18739 0.19757 0.54746 0.0
H1414 H 0.1782 0.1564 0.55717 0.0
H1415 H 0.18902 0.15501 0.67358 0.0
C1416 C 0.17361 0.16893 0.34952 0.0
C1417 C 0.16839 0.18078 0.32493 0.0
C1418 C 0.17749 0.16755 0.42082 0.0
C1419 C 0.17598 0.1779 0.46967 0.0
C1420 C 0.16965 0.18932 0.44641 0.0
C1421 C 0.166 0.19079 0.37457 0.0
C1422 C 0.19338 0.18743 0.64185 0.0
C1423 C 0.19415 0.17545 0.67746 0.0
C1424 C 0.18744 0.18824 0.57459 0.0
C1425 C 0.18187 0.1771 0.54255 0.0
C1426 C 0.18257 0.16512 0.57927 0.0
C1427 C 0.18878 0.16429 0.64579 0.0
H1428 H 0.0876 0.92487 0.56789 0.0
H1429 H 0.04812 0.9124 0.60951 0.0
H1430 H 0.08988 0.93157 0.69174 0.0
H1431 H 0.05064 0.91841 0.73543 0.0
H1432 H 0.0525 0.9479 0.91893 0.0
H1433 H 0.05097 0.93795 0.80004 0.0
H1434 H 0.09165 0.92704 0.81299 0.0
H1435 H 0.09319 0.93775 0.92966 0.0
C1436 C 0.07954 0.92313 0.60415 0.0
C1437 C 0.0676 0.91828 0.57865 0.0
C1438 C 0.08086 0.92696 0.6756 0.0
C1439 C 0.07035 0.92579 0.72364 0.0
C1440 C 0.05879 0.91985 0.69945 0.0
C1441 C 0.05739 0.91624 0.62751 0.0
C1442 C 0.0611 0.9435 0.89539 0.0
C1443 C 0.073 0.94375 0.93198 0.0
C1444 C 0.06022 0.93761 0.82797 0.0
C1445 C 0.07118 0.93159 0.79674 0.0
C1446 C 0.08306 0.93176 0.83449 0.0
C1447 C 0.08398 0.9379 0.90117 0.0
H1448 H 0.323 0.83847 0.81726 0.0
H1449 H 0.33664 0.79934 0.85907 0.0
H1450 H 0.31633 0.8406 0.94115 0.0
H1451 H 0.33065 0.80174 0.98508 0.0
H1452 H 0.30116 0.80282 0.16883 0.0
H1453 H 0.31119 0.80152 0.05012 0.0
H1454 H 0.3208 0.84256 0.06226 0.0
H1455 H 0.31001 0.84385 0.17872 0.0
C1456 C 0.325 0.83046 0.85355 0.0
C1457 C 0.33017 0.81865 0.82808 0.0
C1458 C 0.32118 0.8317 0.92506 0.0
C1459 C 0.32269 0.82124 0.97321 0.0
C1460 C 0.32894 0.80984 0.94903 0.0
C1461 C 0.33255 0.80852 0.87703 0.0
C1462 C 0.3053 0.81154 0.14517 0.0
C1463 C 0.30466 0.82347 0.18146 0.0
C1464 C 0.31124 0.81079 0.07784 0.0
C1465 C 0.3169 0.82193 0.04638 0.0
C1466 C 0.31636 0.83384 0.08389 0.0
C1467 C 0.31017 0.83461 0.15047 0.0
H1468 H 0.41094 0.08467 0.08911 0.0
H1469 H 0.45288 0.08166 0.09757 0.0
H1470 H 0.4097 0.0787 0.21563 0.0
H1471 H 0.45166 0.07497 0.222 0.0
H1472 H 0.44672 0.06819 0.4577 0.0
H1473 H 0.44749 0.07893 0.34187 0.0
H1474 H 0.412 0.05915 0.27977 0.0
H1475 H 0.41062 0.04942 0.39861 0.0
C1476 C 0.4199 0.08294 0.1184 0.0
C1477 C 0.43199 0.08351 0.08338 0.0
C1478 C 0.41919 0.07934 0.19058 0.0
C1479 C 0.43055 0.076 0.22873 0.0
C1480 C 0.4427 0.07752 0.19482 0.0
C1481 C 0.44341 0.08137 0.12313 0.0
C1482 C 0.43888 0.06643 0.42019 0.0
C1483 C 0.42837 0.05832 0.43829 0.0
C1484 C 0.43944 0.07242 0.35303 0.0
C1485 C 0.42971 0.0701 0.30148 0.0
C1486 C 0.41946 0.06153 0.31875 0.0
C1487 C 0.41878 0.05575 0.38648 0.0
H1488 H 0.16015 0.80086 0.63434 0.0
H1489 H 0.17553 0.83942 0.67396 0.0
H1490 H 0.16611 0.8028 0.50807 0.0
H1491 H 0.18216 0.84106 0.54992 0.0
H1492 H 0.18894 0.8436 0.31315 0.0
H1493 H 0.1778 0.84297 0.42875 0.0
H1494 H 0.18565 0.80158 0.44363 0.0
H1495 H 0.19602 0.80225 0.32564 0.0
C1496 C 0.16461 0.80982 0.61589 0.0
C1497 C 0.16754 0.81989 0.66437 0.0
C1498 C 0.16819 0.81088 0.54373 0.0
C1499 C 0.17494 0.82195 0.51894 0.0
C1500 C 0.17694 0.83241 0.56652 0.0
C1501 C 0.17316 0.83144 0.63815 0.0
C1502 C 0.18832 0.83443 0.34182 0.0
C1503 C 0.19346 0.82301 0.31189 0.0
C1504 C 0.18193 0.83403 0.40788 0.0
C1505 C 0.18081 0.82223 0.44594 0.0
C1506 C 0.18606 0.8108 0.41544 0.0
C1507 C 0.19219 0.81118 0.34858 0.0
H1508 H 0.44793 0.91034 0.88187 0.0
H1509 H 0.4087 0.92416 0.91982 0.0
H1510 H 0.44615 0.91702 0.75619 0.0
H1511 H 0.40714 0.931 0.79497 0.0
H1512 H 0.4208 0.96 0.61442 0.0
H1513 H 0.421 0.94993 0.73382 0.0
H1514 H 0.4315 0.91298 0.63929 0.0
H1515 H 0.43067 0.92277 0.52036 0.0
C1516 C 0.43884 0.91449 0.86313 0.0
C1517 C 0.42855 0.91692 0.91107 0.0
C1518 C 0.43785 0.91834 0.7914 0.0
C1519 C 0.42663 0.92477 0.76702 0.0
C1520 C 0.41598 0.92627 0.81328 0.0
C1521 C 0.41687 0.92225 0.88453 0.0
C1522 C 0.42323 0.94976 0.61939 0.0
C1523 C 0.42627 0.94233 0.55846 0.0
C1524 C 0.42327 0.944 0.68731 0.0
C1525 C 0.42636 0.93073 0.69517 0.0
C1526 C 0.4293 0.92328 0.63439 0.0
C1527 C 0.42905 0.92897 0.5665 0.0
H1528 H 0.28731 0.17017 0.8651 0.0
H1529 H 0.32449 0.18041 0.77218 0.0
H1530 H 0.29729 0.17032 0.98474 0.0
H1531 H 0.3342 0.18115 0.89126 0.0
H1532 H 0.33741 0.19708 0.13302 0.0
H1533 H 0.33048 0.19545 0.0077 0.0
H1534 H 0.3159 0.15665 0.04695 0.0
H1535 H 0.32295 0.15808 0.17153 0.0
C1536 C 0.29752 0.17267 0.87037 0.0
C1537 C 0.30496 0.17582 0.80967 0.0
C1538 C 0.30323 0.17268 0.93845 0.0
C1539 C 0.31647 0.17583 0.94671 0.0
C1540 C 0.32393 0.1789 0.88613 0.0
C1541 C 0.31828 0.17869 0.81812 0.0
C1542 C 0.33305 0.18807 0.11446 0.0
C1543 C 0.33056 0.1778 0.16245 0.0
C1544 C 0.32906 0.18717 0.04292 0.0
C1545 C 0.32242 0.17604 0.0187 0.0
C1546 C 0.32079 0.16541 0.06508 0.0
C1547 C 0.32494 0.16622 0.13617 0.0
H1548 H 0.05099 0.08838 0.38149 0.0
H1549 H 0.0891 0.07234 0.42507 0.0
H1550 H 0.05336 0.0826 0.25514 0.0
H1551 H 0.09114 0.06583 0.30095 0.0
H1552 H 0.09466 0.05933 0.06419 0.0
H1553 H 0.09373 0.07019 0.18066 0.0
H1554 H 0.05209 0.06353 0.18802 0.0
H1555 H 0.0531 0.05352 0.06922 0.0
C1556 C 0.05994 0.08379 0.36387 0.0
C1557 C 0.06978 0.0807 0.41335 0.0
C1558 C 0.06125 0.08031 0.29165 0.0
C1559 C 0.07231 0.07344 0.2678 0.0
C1560 C 0.08251 0.07118 0.31666 0.0
C1561 C 0.08132 0.0749 0.38835 0.0
C1562 C 0.08536 0.06017 0.09138 0.0
C1563 C 0.07397 0.05548 0.05911 0.0
C1564 C 0.08479 0.06639 0.15799 0.0
C1565 C 0.07283 0.06775 0.19428 0.0
C1566 C 0.06144 0.06295 0.16135 0.0
C1567 C 0.062 0.05701 0.09395 0.0
H1568 H 0.81941 0.79323 0.651 0.0
H1569 H 0.83229 0.83332 0.66186 0.0
H1570 H 0.81381 0.79607 0.52578 0.0
H1571 H 0.82715 0.83602 0.53473 0.0
H1572 H 0.79845 0.84094 0.34691 0.0
H1573 H 0.80708 0.83776 0.46791 0.0
H1574 H 0.8208 0.79945 0.40703 0.0
H1575 H 0.81137 0.80231 0.28854 0.0
C1576 C 0.82139 0.80256 0.62609 0.0
C1577 C 0.82609 0.81311 0.6666 0.0
C1578 C 0.81821 0.80418 0.55399 0.0
C1579 C 0.81983 0.81635 0.52053 0.0
C1580 C 0.8255 0.82662 0.55958 0.0
C1581 C 0.8286 0.82503 0.6321 0.0
C1582 C 0.80321 0.83181 0.35991 0.0
C1583 C 0.8045 0.82198 0.30809 0.0
C1584 C 0.80835 0.83006 0.42869 0.0
C1585 C 0.81484 0.81843 0.44675 0.0
C1586 C 0.81588 0.80853 0.39498 0.0
C1587 C 0.81062 0.81023 0.3267 0.0
H1588 H 0.94643 0.05176 0.06395 0.0
H1589 H 0.90517 0.05939 0.05682 0.0
H1590 H 0.94767 0.06168 0.18292 0.0
H1591 H 0.90638 0.07011 0.17355 0.0
H1592 H 0.91094 0.07307 0.41786 0.0
H1593 H 0.90873 0.066 0.29463 0.0
H1594 H 0.94711 0.08116 0.24728 0.0
H1595 H 0.94961 0.08752 0.3727 0.0
C1596 C 0.93764 0.05559 0.08834 0.0
C1597 C 0.92568 0.05465 0.05265 0.0
C1598 C 0.93835 0.06148 0.15582 0.0
C1599 C 0.92713 0.06682 0.18803 0.0
C1600 C 0.91517 0.06592 0.15133 0.0
C1601 C 0.91444 0.05977 0.08459 0.0
C1602 C 0.91881 0.07516 0.38092 0.0
C1603 C 0.93053 0.0807 0.40525 0.0
C1604 C 0.91754 0.07111 0.30981 0.0
C1605 C 0.92784 0.07275 0.2609 0.0
C1606 C 0.93913 0.07934 0.28394 0.0
C1607 C 0.94051 0.08316 0.35557 0.0
H1608 H 0.67437 0.15831 0.17009 0.0
H1609 H 0.66126 0.19779 0.13145 0.0
H1610 H 0.68112 0.15654 0.0452 0.0
H1611 H 0.66784 0.19579 0.0057 0.0
H1612 H 0.67326 0.17997 0.77017 0.0
H1613 H 0.66349 0.18097 0.88911 0.0
H1614 H 0.7003 0.17018 0.98383 0.0
H1615 H 0.71036 0.16982 0.86443 0.0
C1616 C 0.6726 0.16649 0.13465 0.0
C1617 C 0.6675 0.1783 0.16099 0.0
C1618 C 0.67656 0.16547 0.06337 0.0
C1619 C 0.67523 0.17612 0.0169 0.0
C1620 C 0.66902 0.18749 0.0411 0.0
C1621 C 0.66523 0.1886 0.11286 0.0
C1622 C 0.67943 0.17832 0.81636 0.0
C1623 C 0.69276 0.17543 0.80839 0.0
C1624 C 0.67375 0.17867 0.88423 0.0
C1625 C 0.68117 0.1757 0.94506 0.0
C1626 C 0.6944 0.17247 0.93727 0.0
C1627 C 0.70015 0.17234 0.86935 0.0
H1628 H 0.55 0.91041 0.87536 0.0
H1629 H 0.58896 0.92468 0.91484 0.0
H1630 H 0.55208 0.91636 0.74912 0.0
H1631 H 0.59077 0.93128 0.79073 0.0
H1632 H 0.5935 0.93769 0.55351 0.0
H1633 H 0.59253 0.92671 0.6695 0.0
H1634 H 0.55146 0.93595 0.68441 0.0
H1635 H 0.55245 0.94619 0.56609 0.0
C1636 C 0.55908 0.91462 0.85687 0.0
C1637 C 0.56924 0.91722 0.90527 0.0
C1638 C 0.56021 0.9182 0.78473 0.0
C1639 C 0.57146 0.92462 0.75987 0.0
C1640 C 0.58197 0.92631 0.8074 0.0
C1641 C 0.58092 0.92254 0.87904 0.0
C1642 C 0.58432 0.9374 0.58223 0.0
C1643 C 0.57308 0.9429 0.55218 0.0
C1644 C 0.58373 0.93111 0.64853 0.0
C1645 C 0.57192 0.93042 0.68672 0.0
C1646 C 0.56067 0.93602 0.65612 0.0
C1647 C 0.56123 0.94208 0.58904 0.0
H1648 H 0.83914 0.19772 0.36462 0.0
H1649 H 0.82352 0.15933 0.32291 0.0
H1650 H 0.83294 0.19569 0.49051 0.0
H1651 H 0.81666 0.15761 0.44658 0.0
H1652 H 0.80988 0.1548 0.68366 0.0
H1653 H 0.82089 0.15548 0.56773 0.0
H1654 H 0.81343 0.19697 0.55483 0.0
H1655 H 0.80319 0.19623 0.67312 0.0
C1656 C 0.83457 0.18878 0.38255 0.0
C1657 C 0.83168 0.17877 0.33362 0.0
C1658 C 0.83085 0.18767 0.45449 0.0
C1659 C 0.82399 0.17663 0.4786 0.0
C1660 C 0.82198 0.16624 0.43053 0.0
C1661 C 0.8259 0.16725 0.35913 0.0
C1662 C 0.81054 0.16401 0.65534 0.0
C1663 C 0.80556 0.17544 0.68601 0.0
C1664 C 0.81686 0.16443 0.58907 0.0
C1665 C 0.81808 0.17628 0.55152 0.0
C1666 C 0.81295 0.18771 0.58262 0.0
C1667 C 0.80689 0.1873 0.64968 0.0
H1668 H 0.57463 0.03828 0.37015 0.0
H1669 H 0.57051 0.07655 0.46462 0.0
H1670 H 0.57469 0.04821 0.25038 0.0
H1671 H 0.5698 0.08626 0.34529 0.0
H1672 H 0.55137 0.08919 0.10283 0.0
H1673 H 0.55305 0.08271 0.22906 0.0
H1674 H 0.59103 0.06631 0.18859 0.0
H1675 H 0.58962 0.07299 0.06343 0.0
C1676 C 0.5735 0.04875 0.36528 0.0
C1677 C 0.57199 0.05656 0.42653 0.0
C1678 C 0.57359 0.05441 0.29713 0.0
C1679 C 0.57213 0.06795 0.28935 0.0
C1680 C 0.57071 0.07578 0.35034 0.0
C1681 C 0.57089 0.07016 0.41846 0.0
C1682 C 0.56023 0.08456 0.12132 0.0
C1683 C 0.57026 0.08143 0.07292 0.0
C1684 C 0.56116 0.08083 0.1933 0.0
C1685 C 0.57205 0.07381 0.21733 0.0
C1686 C 0.58247 0.07155 0.17052 0.0
C1687 C 0.58166 0.07547 0.09908 0.0
H1688 H 0.67667 0.83774 0.80353 0.0
H1689 H 0.66314 0.79869 0.84846 0.0
H1690 H 0.68361 0.84011 0.92688 0.0
H1691 H 0.66936 0.80134 0.97396 0.0
H1692 H 0.69879 0.80262 0.15674 0.0
H1693 H 0.6889 0.80122 0.03779 0.0
H1694 H 0.67944 0.84232 0.04811 0.0
H1695 H 0.69014 0.84371 0.16488 0.0
C1696 C 0.67475 0.8298 0.84044 0.0
C1697 C 0.66953 0.81794 0.81602 0.0
C1698 C 0.67873 0.83118 0.9116 0.0
C1699 C 0.67732 0.82082 0.96043 0.0
C1700 C 0.67101 0.80937 0.93733 0.0
C1701 C 0.66726 0.8079 0.86565 0.0
C1702 C 0.69476 0.81134 0.13253 0.0
C1703 C 0.6954 0.8233 0.16846 0.0
C1704 C 0.68888 0.81053 0.0651 0.0
C1705 C 0.68324 0.82164 0.03321 0.0
C1706 C 0.68386 0.83361 0.07013 0.0
C1707 C 0.69 0.83445 0.13685 0.0
H1708 H 0.91948 0.96195 0.86844 0.0
H1709 H 0.93002 0.92476 0.96053 0.0
H1710 H 0.92 0.95211 0.74836 0.0
H1711 H 0.93112 0.9152 0.84113 0.0
H1712 H 0.94808 0.91263 0.60175 0.0
H1713 H 0.94586 0.91951 0.72688 0.0
H1714 H 0.90691 0.93323 0.68342 0.0
H1715 H 0.90894 0.9262 0.55897 0.0
C1716 C 0.9221 0.95177 0.86291 0.0
C1717 C 0.92527 0.94429 0.92347 0.0
C1718 C 0.92232 0.94614 0.79459 0.0
C1719 C 0.92571 0.93295 0.78601 0.0
C1720 C 0.92871 0.92544 0.84652 0.0
C1721 C 0.92829 0.931 0.91471 0.0
C1722 C 0.93892 0.91679 0.61936 0.0
C1723 C 0.92876 0.919 0.57034 0.0
C1724 C 0.93768 0.92075 0.69076 0.0
C1725 C 0.92632 0.92712 0.71381 0.0
C1726 C 0.91584 0.92854 0.66624 0.0
C1727 C 0.91699 0.92438 0.59526 0.0
H1728 H 0.71101 0.68555 0.13957 0.0
H1729 H 0.67673 0.66343 0.19505 0.0
H1730 H 0.70246 0.68871 0.01787 0.0
H1731 H 0.66805 0.66667 0.07386 0.0
H1732 H 0.66753 0.66359 0.82067 0.0
H1733 H 0.67342 0.66032 0.94644 0.0
H1734 H 0.68352 0.70106 0.9645 0.0
H1735 H 0.67769 0.70438 0.83917 0.0
C1736 C 0.70168 0.68135 0.12531 0.0
C1737 C 0.69439 0.67445 0.17613 0.0
C1738 C 0.69673 0.68324 0.05629 0.0
C1739 C 0.6845 0.67811 0.03708 0.0
C1740 C 0.67747 0.67076 0.08742 0.0
C1741 C 0.68238 0.66897 0.15653 0.0
C1742 C 0.67069 0.67192 0.85195 0.0
C1743 C 0.67233 0.6842 0.81975 0.0
C1744 C 0.6741 0.67003 0.92384 0.0
C1745 C 0.67921 0.68038 0.9644 0.0
C1746 C 0.6799 0.69285 0.93374 0.0
C1747 C 0.67645 0.69476 0.86218 0.0
H1748 H 0.54995 0.41083 0.10741 0.0
H1749 H 0.58841 0.42596 0.06328 0.0
H1750 H 0.55229 0.4171 0.23306 0.0
H1751 H 0.59044 0.43293 0.18673 0.0
H1752 H 0.59376 0.4396 0.42426 0.0
H1753 H 0.59278 0.42877 0.30778 0.0
H1754 H 0.55137 0.43658 0.29751 0.0
H1755 H 0.5524 0.44662 0.41626 0.0
C1756 C 0.55897 0.41532 0.12479 0.0
C1757 C 0.56892 0.41802 0.07532 0.0
C1758 C 0.56025 0.41909 0.19657 0.0
C1759 C 0.57142 0.42584 0.21995 0.0
C1760 C 0.58173 0.42769 0.17127 0.0
C1761 C 0.58054 0.4237 0.10002 0.0
C1762 C 0.58451 0.43906 0.39636 0.0
C1763 C 0.57318 0.44405 0.42794 0.0
C1764 C 0.58391 0.43285 0.32977 0.0
C1765 C 0.57198 0.43175 0.29286 0.0
C1766 C 0.56067 0.43694 0.32479 0.0
C1767 C 0.56125 0.4429 0.39212 0.0
H1768 H 0.78782 0.32462 0.61721 0.0
H1769 H 0.82596 0.31957 0.71146 0.0
H1770 H 0.79775 0.32479 0.49751 0.0
H1771 H 0.83567 0.319 0.59219 0.0
H1772 H 0.83904 0.30155 0.34921 0.0
H1773 H 0.83241 0.30295 0.47527 0.0
H1774 H 0.81565 0.34085 0.43623 0.0
H1775 H 0.82245 0.33972 0.3112 0.0
C1776 C 0.79825 0.3233 0.61229 0.0
C1777 C 0.80602 0.32151 0.67347 0.0
C1778 C 0.80392 0.32346 0.54416 0.0
C1779 C 0.81742 0.3218 0.5363 0.0
C1780 C 0.82521 0.32007 0.59722 0.0
C1781 C 0.81958 0.32017 0.66534 0.0
C1782 C 0.83428 0.31034 0.36799 0.0
C1783 C 0.8311 0.32042 0.31999 0.0
C1784 C 0.83047 0.31111 0.43989 0.0
C1785 C 0.82331 0.32188 0.46429 0.0
C1786 C 0.82099 0.33237 0.4179 0.0
C1787 C 0.82498 0.33172 0.34653 0.0
H1788 H 0.94666 0.56742 0.94106 0.0
H1789 H 0.91069 0.54824 0.88348 0.0
H1790 H 0.94708 0.57824 0.82535 0.0
H1791 H 0.91175 0.55803 0.7648 0.0
H1792 H 0.90989 0.58353 0.57475 0.0
H1793 H 0.90901 0.57752 0.7013 0.0
H1794 H 0.95105 0.57457 0.70509 0.0
H1795 H 0.95189 0.58133 0.58064 0.0
C1796 C 0.93877 0.56558 0.9039 0.0
C1797 C 0.92839 0.55734 0.92245 0.0
C1798 C 0.93914 0.57162 0.83681 0.0
C1799 C 0.92934 0.56921 0.78576 0.0
C1800 C 0.91924 0.56049 0.80341 0.0
C1801 C 0.91875 0.55467 0.87105 0.0
C1802 C 0.91893 0.58198 0.60351 0.0
C1803 C 0.93094 0.58279 0.5678 0.0
C1804 C 0.91844 0.57834 0.6757 0.0
C1805 C 0.92993 0.5752 0.71311 0.0
C1806 C 0.94198 0.57697 0.6785 0.0
C1807 C 0.94248 0.58086 0.60682 0.0
H1808 H 0.6973 0.30239 0.81577 0.0
H1809 H 0.688 0.3433 0.80339 0.0
H1810 H 0.6872 0.30121 0.93435 0.0
H1811 H 0.67715 0.34212 0.9197 0.0
H1812 H 0.67496 0.33845 0.16498 0.0
H1813 H 0.68169 0.34041 0.04109 0.0
H1814 H 0.66759 0.30141 -0.00127 0.0
H1815 H 0.66151 0.2992 0.1247 0.0
C1816 C 0.69305 0.3111 0.83884 0.0
C1817 C 0.69359 0.32297 0.80189 0.0
C1818 C 0.68707 0.31043 0.90608 0.0
C1819 C 0.68127 0.32156 0.93679 0.0
C1820 C 0.6817 0.3334 0.89863 0.0
C1821 C 0.68792 0.33411 0.83213 0.0
C1822 C 0.67302 0.33037 0.12903 0.0
C1823 C 0.66789 0.31858 0.15496 0.0
C1824 C 0.67687 0.33151 0.05754 0.0
C1825 C 0.67544 0.32097 0.00987 0.0
C1826 C 0.66923 0.30958 0.03444 0.0
C1827 C 0.66557 0.30836 0.10642 0.0
H1828 H 0.94501 0.44869 0.06676 0.0
H1829 H 0.9045 0.43786 0.05626 0.0
H1830 H 0.94673 0.43879 0.18563 0.0
H1831 H 0.90623 0.42719 0.17296 0.0
H1832 H 0.91041 0.42501 0.41806 0.0
H1833 H 0.90797 0.4317 0.29429 0.0
H1834 H 0.94742 0.41925 0.25002 0.0
H1835 H 0.9501 0.41326 0.37586 0.0
C1836 C 0.93649 0.44415 0.09036 0.0
C1837 C 0.92458 0.44419 0.05381 0.0
C1838 C 0.93749 0.43828 0.15777 0.0
C1839 C 0.92663 0.43208 0.18907 0.0
C1840 C 0.91474 0.43205 0.15141 0.0
C1841 C 0.9137 0.43816 0.08471 0.0
C1842 C 0.9185 0.42343 0.38168 0.0
C1843 C 0.93053 0.41878 0.40699 0.0
C1844 C 0.91708 0.42725 0.31028 0.0
C1845 C 0.92758 0.42628 0.26211 0.0
C1846 C 0.93926 0.42054 0.28612 0.0
C1847 C 0.94075 0.41693 0.358 0.0
H1848 H 0.79715 0.66043 0.35714 0.0
H1849 H 0.81423 0.69734 0.29759 0.0
H1850 H 0.80652 0.66251 0.47689 0.0
H1851 H 0.8246 0.69887 0.41413 0.0
H1852 H 0.8264 0.70512 0.65696 0.0
H1853 H 0.81979 0.70311 0.53294 0.0
H1854 H 0.8262 0.66146 0.54256 0.0
H1855 H 0.83214 0.66343 0.66892 0.0
C1856 C 0.80301 0.66892 0.36948 0.0
C1857 C 0.80525 0.67854 0.31744 0.0
C1858 C 0.80859 0.67002 0.43762 0.0
C1859 C 0.81656 0.68074 0.45488 0.0
C1860 C 0.81853 0.69048 0.40298 0.0
C1861 C 0.81276 0.6895 0.33552 0.0
C1862 C 0.82667 0.69555 0.6324 0.0
C1863 C 0.82958 0.6844 0.67308 0.0
C1864 C 0.8229 0.69439 0.56086 0.0
C1865 C 0.82221 0.68208 0.52791 0.0
C1866 C 0.82623 0.67105 0.56694 0.0
C1867 C 0.82981 0.67218 0.63903 0.0
H1868 H 0.55291 0.54888 0.57373 0.0
H1869 H 0.59346 0.55956 0.56276 0.0
H1870 H 0.55132 0.5587 0.69295 0.0
H1871 H 0.59186 0.57012 0.67982 0.0
H1872 H 0.58786 0.57251 0.92491 0.0
H1873 H 0.59017 0.56561 0.80129 0.0
H1874 H 0.55076 0.57827 0.75733 0.0
H1875 H 0.54824 0.58449 0.88292 0.0
C1876 C 0.56146 0.55336 0.59728 0.0
C1877 C 0.57333 0.55333 0.56041 0.0
C1878 C 0.56055 0.55918 0.66492 0.0
C1879 C 0.57145 0.56531 0.69619 0.0
C1880 C 0.58332 0.56531 0.6583 0.0
C1881 C 0.58427 0.55927 0.59136 0.0
C1882 C 0.57977 0.5741 0.88859 0.0
C1883 C 0.5678 0.5789 0.9139 0.0
C1884 C 0.5811 0.57014 0.81731 0.0
C1885 C 0.57057 0.57113 0.76926 0.0
C1886 C 0.55895 0.57697 0.7933 0.0
C1887 C 0.55755 0.58071 0.86505 0.0
H1888 H 0.28801 0.32423 0.86341 0.0
H1889 H 0.32634 0.3202 0.7701 0.0
H1890 H 0.29782 0.32424 0.98354 0.0
H1891 H 0.33593 0.31944 0.88968 0.0
H1892 H 0.33907 0.30073 0.13016 0.0
H1893 H 0.33245 0.3026 0.00421 0.0
H1894 H 0.31571 0.34036 0.04753 0.0
H1895 H 0.32252 0.33876 0.17246 0.0
C1896 C 0.29846 0.32312 0.86861 0.0
C1897 C 0.30633 0.32163 0.80759 0.0
C1898 C 0.30405 0.32319 0.93697 0.0
C1899 C 0.31758 0.32171 0.94514 0.0
C1900 C 0.32546 0.32036 0.88435 0.0
C1901 C 0.31991 0.32057 0.81607 0.0
C1902 C 0.33431 0.30958 0.11235 0.0
C1903 C 0.33118 0.31951 0.16142 0.0
C1904 C 0.33051 0.31062 0.04054 0.0
C1905 C 0.32338 0.3215 0.01733 0.0
C1906 C 0.32104 0.3318 0.06492 0.0
C1907 C 0.32504 0.3309 0.13621 0.0
H1908 H 0.40465 0.55897 0.56373 0.0
H1909 H 0.4459 0.55137 0.57285 0.0
H1910 H 0.4057 0.56987 0.67999 0.0
H1911 H 0.44699 0.56149 0.69138 0.0
H1912 H 0.44864 0.58718 0.88137 0.0
H1913 H 0.44627 0.58102 0.75558 0.0
H1914 H 0.40789 0.56567 0.80111 0.0
H1915 H 0.40996 0.57253 0.9247 0.0
C1916 C 0.41388 0.5594 0.59184 0.0
C1917 C 0.42517 0.55421 0.56068 0.0
C1918 C 0.41453 0.56566 0.65828 0.0
C1919 C 0.42644 0.56661 0.69544 0.0
C1920 C 0.4377 0.56124 0.6639 0.0
C1921 C 0.43708 0.55524 0.5967 0.0
C1922 C 0.43956 0.58283 0.8638 0.0
C1923 C 0.42957 0.5802 0.91312 0.0
C1924 C 0.43826 0.57913 0.79193 0.0
C1925 C 0.42702 0.57252 0.76831 0.0
C1926 C 0.41667 0.57078 0.81679 0.0
C1927 C 0.41787 0.5747 0.88813 0.0
H1928 H 0.1757 0.65975 0.67242 0.0
H1929 H 0.16115 0.6985 0.62796 0.0
H1930 H 0.1825 0.6576 0.54766 0.0
H1931 H 0.16773 0.69609 0.50224 0.0
H1932 H 0.17265 0.67793 0.2692 0.0
H1933 H 0.16323 0.67925 0.38904 0.0
H1934 H 0.20115 0.67257 0.48192 0.0
H1935 H 0.21082 0.67201 0.36144 0.0
C1936 C 0.1736 0.66766 0.6357 0.0
C1937 C 0.168 0.67938 0.66017 0.0
C1938 C 0.1776 0.66644 0.56455 0.0
C1939 C 0.1758 0.67676 0.51638 0.0
C1940 C 0.16925 0.68804 0.53898 0.0
C1941 C 0.16546 0.68939 0.61064 0.0
C1942 C 0.1791 0.67726 0.31502 0.0
C1943 C 0.1926 0.67552 0.30615 0.0
C1944 C 0.17364 0.67779 0.38344 0.0
C1945 C 0.18151 0.6761 0.44405 0.0
C1946 C 0.19493 0.67391 0.4355 0.0
C1947 C 0.20044 0.67364 0.36695 0.0
H1948 H 0.05715 0.45497 0.09782 0.0
H1949 H 0.0863 0.42653 0.04053 0.0
H1950 H 0.05528 0.44507 0.21733 0.0
H1951 H 0.08446 0.41658 0.15959 0.0
H1952 H 0.04574 0.41687 0.3947 0.0
H1953 H 0.04757 0.42316 0.26893 0.0
H1954 H 0.08947 0.42375 0.28792 0.0
H1955 H 0.08772 0.4175 0.41401 0.0
C1956 C 0.06314 0.44662 0.11114 0.0
C1957 C 0.07176 0.44138 0.06058 0.0
C1958 C 0.062 0.44088 0.17886 0.0
C1959 C 0.06962 0.42997 0.19706 0.0
C1960 C 0.07846 0.42495 0.1467 0.0
C1961 C 0.07948 0.43059 0.07882 0.0
C1962 C 0.05537 0.41801 0.37176 0.0
C1963 C 0.06659 0.41688 0.41458 0.0
C1964 C 0.05638 0.42173 0.29995 0.0
C1965 C 0.06864 0.42419 0.26946 0.0
C1966 C 0.0799 0.42196 0.31038 0.0
C1967 C 0.07889 0.41837 0.38247 0.0
H1968 H 0.30954 0.65462 0.17894 0.0
H1969 H 0.30192 0.6959 0.16954 0.0
H1970 H 0.32047 0.65565 0.06283 0.0
H1971 H 0.31207 0.69696 0.05111 0.0
H1972 H 0.3377 0.69853 0.86095 0.0
H1973 H 0.33158 0.69622 0.98679 0.0
H1974 H 0.31624 0.65779 0.94173 0.0
H1975 H 0.32306 0.6598 0.81811 0.0
C1976 C 0.30998 0.66386 0.1508 0.0
C1977 C 0.30477 0.67515 0.18183 0.0
C1978 C 0.31625 0.66448 0.08445 0.0
C1979 C 0.31719 0.67639 0.04721 0.0
C1980 C 0.31182 0.68767 0.07865 0.0
C1981 C 0.3058 0.68707 0.14578 0.0
C1982 C 0.33336 0.68946 0.87863 0.0
C1983 C 0.33072 0.67943 0.82943 0.0
C1984 C 0.32968 0.68819 0.95053 0.0
C1985 C 0.32309 0.67695 0.97431 0.0
C1986 C 0.32134 0.66656 0.92594 0.0
C1987 C 0.32524 0.66774 0.85458 0.0
H1988 H 0.07587 0.53773 0.87841 0.0
H1989 H 0.07034 0.576 0.97039 0.0
H1990 H 0.07528 0.54736 0.75782 0.0
H1991 H 0.06899 0.5854 0.85047 0.0
H1992 H 0.0494 0.5874 0.61217 0.0
H1993 H 0.05192 0.58083 0.73786 0.0
H1994 H 0.09033 0.56602 0.69143 0.0
H1995 H 0.08807 0.57282 0.56669 0.0
C1996 C 0.07432 0.54812 0.87282 0.0
C1997 C 0.07254 0.55601 0.93357 0.0
C1998 C 0.07405 0.55362 0.80421 0.0
C1999 C 0.07194 0.56706 0.79558 0.0
C2000 C 0.07038 0.57498 0.85615 0.0
C2001 C 0.07093 0.56954 0.92461 0.0
C2002 C 0.05852 0.58309 0.62926 0.0
C2003 C 0.06848 0.58054 0.57948 0.0
C2004 C 0.05993 0.5793 0.7009 0.0
C2005 C 0.07122 0.57275 0.72322 0.0
C2006 C 0.08148 0.57093 0.67477 0.0
C2007 C 0.0802 0.57493 0.60364 0.0
H2008 H 0.16706 0.3358 0.32399 0.0
H2009 H 0.17575 0.29469 0.34379 0.0
H2010 H 0.17281 0.33895 0.45003 0.0
H2011 H 0.18146 0.29791 0.4694 0.0
H2012 H 0.2097 0.31298 0.64296 0.0
H2013 H 0.2009 0.3098 0.5218 0.0
H2014 H 0.16714 0.33282 0.57791 0.0
H2015 H 0.17605 0.33604 0.69864 0.0
C2016 C 0.16986 0.32739 0.3556 0.0
C2017 C 0.17117 0.31504 0.32367 0.0
C2018 C 0.17318 0.32921 0.42766 0.0
C2019 C 0.17787 0.31872 0.46863 0.0
C2020 C 0.17817 0.3062 0.43829 0.0
C2021 C 0.17479 0.30436 0.36656 0.0
C2022 C 0.20045 0.31739 0.62885 0.0
C2023 C 0.19342 0.32458 0.67953 0.0
C2024 C 0.19536 0.31549 0.56016 0.0
C2025 C 0.18324 0.3209 0.54116 0.0
C2026 C 0.17646 0.3285 0.59138 0.0
C2027 C 0.18151 0.3303 0.66019 0.0
H2028 H 0.41069 0.42462 0.06837 0.0
H2029 H 0.45044 0.4131 0.11077 0.0
H2030 H 0.40821 0.43135 0.19209 0.0
H2031 H 0.44774 0.41913 0.23653 0.0
H2032 H 0.44516 0.44842 0.42036 0.0
H2033 H 0.44693 0.43862 0.30123 0.0
H2034 H 0.40649 0.42684 0.31337 0.0
H2035 H 0.40469 0.43741 0.43032 0.0
C2036 C 0.41878 0.42309 0.10479 0.0
C2037 C 0.43083 0.41849 0.07957 0.0
C2038 C 0.41735 0.42695 0.17615 0.0
C2039 C 0.42786 0.42604 0.22438 0.0
C2040 C 0.43956 0.42037 0.20042 0.0
C2041 C 0.44107 0.41673 0.12858 0.0
C2042 C 0.43667 0.44386 0.39659 0.0
C2043 C 0.42475 0.44382 0.43309 0.0
C2044 C 0.43769 0.43805 0.32902 0.0
C2045 C 0.42686 0.43183 0.29749 0.0
C2046 C 0.41497 0.43172 0.33508 0.0
C2047 C 0.4139 0.43778 0.40194 0.0
H2048 H 0.26561 0.17628 0.43457 0.0
H2049 H 0.28708 0.16072 0.25442 0.0
H2050 H 0.24561 0.17539 0.36415 0.0
H2051 H 0.26707 0.1593 0.18504 0.0
H2052 H 0.2327 0.17498 0.0535 0.0
H2053 H 0.2525 0.17335 0.12508 0.0
H2054 H 0.22961 0.16211 0.30991 0.0
H2055 H 0.20983 0.16427 0.2391 0.0
C2056 C 0.26601 0.17242 0.38045 0.0
C2057 C 0.27793 0.16868 0.34993 0.0
C2058 C 0.25453 0.17186 0.34001 0.0
C2059 C 0.25471 0.16737 0.26845 0.0
C2060 C 0.26659 0.1631 0.23924 0.0
C2061 C 0.27806 0.16382 0.2793 0.0
C2062 C 0.23192 0.17206 0.10923 0.0
C2063 C 0.21969 0.16986 0.14067 0.0
C2064 C 0.24328 0.17105 0.15034 0.0
C2065 C 0.24269 0.16766 0.22362 0.0
C2066 C 0.23045 0.16502 0.25419 0.0
C2067 C 0.2191 0.16617 0.21336 0.0
H2068 H 0.07273 0.03735 0.49515 0.0
H2069 H 0.0855 0.01688 0.68542 0.0
H2070 H 0.07366 0.01723 0.42702 0.0
H2071 H 0.087 0.99675 0.6162 0.0
H2072 H 0.07157 0.96102 0.49647 0.0
H2073 H 0.07314 0.98115 0.56414 0.0
H2074 H 0.08684 0.00113 0.37412 0.0
H2075 H 0.08469 0.98099 0.30537 0.0
C2076 C 0.07595 0.02858 0.52227 0.0
C2077 C 0.07895 0.02871 0.59597 0.0
C2078 C 0.07657 0.01702 0.48289 0.0
C2079 C 0.08038 0.0053 0.51591 0.0
C2080 C 0.08379 0.00552 0.58921 0.0
C2081 C 0.083 0.01708 0.6289 0.0
C2082 C 0.07498 0.96969 0.46904 0.0
C2083 C 0.07793 0.96941 0.39529 0.0
C2084 C 0.07599 0.98125 0.50816 0.0
C2085 C 0.08012 0.99282 0.47484 0.0
C2086 C 0.0834 0.99247 0.40138 0.0
C2087 C 0.08224 0.98091 0.36194 0.0
H2088 H 0.26577 0.82423 0.55691 0.0
H2089 H 0.28853 0.83518 0.74258 0.0
H2090 H 0.24596 0.8256 0.62838 0.0
H2091 H 0.26871 0.83712 0.81335 0.0
H2092 H 0.23293 0.82255 0.93801 0.0
H2093 H 0.25291 0.82378 0.86773 0.0
H2094 H 0.23114 0.83926 0.68808 0.0
H2095 H 0.21115 0.83745 0.75732 0.0
C2096 C 0.26651 0.82717 0.61265 0.0
C2097 C 0.27872 0.8295 0.64415 0.0
C2098 C 0.25514 0.82802 0.65372 0.0
C2099 C 0.2557 0.83142 0.727 0.0
C2100 C 0.2679 0.83421 0.75763 0.0
C2101 C 0.27927 0.83318 0.71684 0.0
C2102 C 0.23245 0.82634 0.88377 0.0
C2103 C 0.22045 0.82979 0.85305 0.0
C2104 C 0.24392 0.8271 0.84342 0.0
C2105 C 0.24366 0.83152 0.77177 0.0
C2106 C 0.2317 0.83551 0.74236 0.0
C2107 C 0.22023 0.83457 0.7823 0.0
H2108 H 0.42591 0.9824 0.18736 0.0
H2109 H 0.41128 0.96113 0.004 0.0
H2110 H 0.42459 0.00263 0.11913 0.0
H2111 H 0.40945 0.98136 0.93676 0.0
H2112 H 0.42468 0.01662 0.81037 0.0
H2113 H 0.42327 0.99652 0.87947 0.0
H2114 H 0.41097 0.01847 0.06579 0.0
H2115 H 0.41289 0.03857 -0.00255 0.0
C2116 C 0.42217 0.98208 0.13298 0.0
C2117 C 0.41881 0.97016 0.10094 0.0
C2118 C 0.42136 0.99369 0.09381 0.0
C2119 C 0.41701 0.99365 0.02202 0.0
C2120 C 0.41312 0.98175 0.99124 0.0
C2121 C 0.41409 0.97015 0.03004 0.0
C2122 C 0.42156 0.01713 0.86587 0.0
C2123 C 0.419 0.0292 0.89851 0.0
C2124 C 0.42068 0.00559 0.90555 0.0
C2125 C 0.41708 0.00584 0.97855 0.0
C2126 C 0.41405 0.0179 0.01025 0.0
C2127 C 0.41506 0.02944 0.97085 0.0
H2128 H 0.78764 0.81859 0.7444 0.0
H2129 H 0.76713 0.83497 0.92593 0.0
H2130 H 0.76786 0.81963 0.67313 0.0
H2131 H 0.74741 0.83652 0.85357 0.0
H2132 H 0.71139 0.82188 0.73527 0.0
H2133 H 0.73133 0.82279 0.80453 0.0
H2134 H 0.75276 0.83328 0.61318 0.0
H2135 H 0.73272 0.83184 0.54281 0.0
C2136 C 0.77893 0.82257 0.76891 0.0
C2137 C 0.77895 0.82661 0.84112 0.0
C2138 C 0.76759 0.82326 0.72772 0.0
C2139 C 0.75598 0.82814 0.75741 0.0
C2140 C 0.75609 0.83248 0.82922 0.0
C2141 C 0.76742 0.83165 0.87071 0.0
C2142 C 0.72033 0.82445 0.70777 0.0
C2143 C 0.72045 0.82673 0.63327 0.0
C2144 C 0.73179 0.82507 0.7478 0.0
C2145 C 0.7437 0.82814 0.71471 0.0
C2146 C 0.7438 0.8307 0.64034 0.0
C2147 C 0.73231 0.82994 0.59999 0.0
H2148 H 0.91368 0.01821 0.67668 0.0
H2149 H 0.92755 0.03825 0.48745 0.0
H2150 H 0.9116 0.99816 0.60714 0.0
H2151 H 0.92611 0.0182 0.41911 0.0
H2152 H 0.9145 0.98235 0.2958 0.0
H2153 H 0.91279 0.00257 0.36438 0.0
H2154 H 0.92477 0.98206 0.55628 0.0
H2155 H 0.92583 0.96191 0.48889 0.0
C2156 C 0.91632 0.01832 0.62036 0.0
C2157 C 0.92082 0.02981 0.58777 0.0
C2158 C 0.9152 0.00681 0.58044 0.0
C2159 C 0.91876 0.00648 0.50732 0.0
C2160 C 0.92305 0.01807 0.47475 0.0
C2161 C 0.92399 0.02959 0.51428 0.0
C2162 C 0.91665 0.98218 0.35275 0.0
C2163 C 0.92032 0.97053 0.38673 0.0
C2164 C 0.91575 0.99378 0.39211 0.0
C2165 C 0.91868 0.99401 0.4661 0.0
C2166 C 0.92218 0.98228 0.49992 0.0
C2167 C 0.9229 0.9707 0.46093 0.0
H2168 H 0.71155 0.16074 0.25378 0.0
H2169 H 0.73294 0.17531 0.43686 0.0
H2170 H 0.73171 0.15896 0.18601 0.0
H2171 H 0.7531 0.17403 0.3681 0.0
H2172 H 0.76676 0.1744 0.05889 0.0
H2173 H 0.74675 0.1729 0.12862 0.0
H2174 H 0.76891 0.16047 0.31388 0.0
H2175 H 0.78892 0.16248 0.24493 0.0
C2176 C 0.72059 0.16354 0.27965 0.0
C2177 C 0.72064 0.16824 0.35061 0.0
C2178 C 0.73215 0.16261 0.24054 0.0
C2179 C 0.74405 0.16649 0.27108 0.0
C2180 C 0.74415 0.1708 0.34296 0.0
C2181 C 0.73258 0.17159 0.38243 0.0
C2182 C 0.76733 0.17123 0.11429 0.0
C2183 C 0.77943 0.16866 0.14644 0.0
C2184 C 0.75585 0.1703 0.15433 0.0
C2185 C 0.75619 0.16662 0.22723 0.0
C2186 C 0.76828 0.16359 0.25844 0.0
C2187 C 0.77976 0.16466 0.21868 0.0
H2188 H 0.58696 0.03753 0.98276 0.0
H2189 H 0.57389 0.01544 0.7988 0.0
H2190 H 0.58887 0.01752 0.05199 0.0
H2191 H 0.57523 0.99545 0.86889 0.0
H2192 H 0.57378 0.98225 0.17876 0.0
H2193 H 0.57528 0.00221 0.10855 0.0
H2194 H 0.58864 0.97998 0.92542 0.0
H2195 H 0.58656 0.96 -0.00523 0.0
C2196 C 0.58451 0.02838 0.95705 0.0
C2197 C 0.58021 0.02807 0.88536 0.0
C2198 C 0.58552 0.0169 -0.00304 0.0
C2199 C 0.58207 0.00483 0.96652 0.0
C2200 C 0.57814 0.00451 0.89403 0.0
C2201 C 0.5773 0.01599 0.85378 0.0
C2202 C 0.57715 0.98166 0.12373 0.0
C2203 C 0.57994 0.96954 0.09219 0.0
C2204 C 0.57808 0.99312 0.08341 0.0
C2205 C 0.582 0.99275 0.01091 0.0
C2206 C 0.5853 0.98064 0.98047 0.0
C2207 C 0.5842 0.96918 0.02044 0.0
H2208 H 0.78696 0.67853 0.75149 0.0
H2209 H 0.76577 0.66675 0.94124 0.0
H2210 H 0.76708 0.67756 0.68156 0.0
H2211 H 0.74582 0.66527 0.87021 0.0
H2212 H 0.71062 0.6796 0.74115 0.0
H2213 H 0.73041 0.67887 0.81237 0.0
H2214 H 0.75144 0.66355 0.62973 0.0
H2215 H 0.73167 0.66479 0.55743 0.0
C2216 C 0.77807 0.67557 0.77822 0.0
C2217 C 0.77796 0.67276 0.85217 0.0
C2218 C 0.76665 0.67491 0.7378 0.0
C2219 C 0.75481 0.6713 0.76998 0.0
C2220 C 0.75473 0.66828 0.8438 0.0
C2221 C 0.76617 0.66906 0.88452 0.0
C2222 C 0.71945 0.67603 0.71611 0.0
C2223 C 0.71958 0.67232 0.64335 0.0
C2224 C 0.73081 0.67552 0.75727 0.0
C2225 C 0.74257 0.67116 0.72699 0.0
C2226 C 0.74262 0.66718 0.65456 0.0
C2227 C 0.73127 0.66783 0.61311 0.0
H2228 H 0.58386 0.48143 0.80141 0.0
H2229 H 0.57231 0.4608 0.99348 0.0
H2230 H 0.58566 0.50155 0.87079 0.0
H2231 H 0.5735 0.48086 0.06172 0.0
H2232 H 0.5851 0.51682 0.18317 0.0
H2233 H 0.58694 0.49682 0.11291 0.0
H2234 H 0.57227 0.51715 0.92618 0.0
H2235 H 0.57104 0.53714 -0.00473 0.0
C2236 C 0.58168 0.48119 0.85832 0.0
C2237 C 0.57792 0.46951 0.89176 0.0
C2238 C 0.58264 0.49274 0.89812 0.0
C2239 C 0.57968 0.49289 0.97205 0.0
C2240 C 0.5761 0.48113 0.00539 0.0
C2241 C 0.57531 0.4696 0.96592 0.0
C2242 C 0.58237 0.51701 0.12699 0.0
C2243 C 0.57788 0.52856 0.09499 0.0
C2244 C 0.58335 0.50553 0.08668 0.0
C2245 C 0.57969 0.5053 0.01372 0.0
C2246 C 0.5754 0.51695 0.9817 0.0
C2247 C 0.57459 0.52843 0.02166 0.0
H2248 H 0.73237 0.32395 0.42712 0.0
H2249 H 0.7098 0.33598 0.2428 0.0
H2250 H 0.75223 0.32552 0.35619 0.0
H2251 H 0.72967 0.33812 0.17269 0.0
H2252 H 0.76523 0.32351 0.04641 0.0
H2253 H 0.74528 0.32477 0.11676 0.0
H2254 H 0.76725 0.33925 0.29825 0.0
H2255 H 0.78723 0.33742 0.22882 0.0
C2256 C 0.73168 0.32717 0.37184 0.0
C2257 C 0.71951 0.32973 0.34047 0.0
C2258 C 0.74308 0.32814 0.33111 0.0
C2259 C 0.74259 0.33188 0.25833 0.0
C2260 C 0.73042 0.33493 0.22798 0.0
C2261 C 0.71903 0.33379 0.26839 0.0
C2262 C 0.76576 0.32709 0.10107 0.0
C2263 C 0.77781 0.33025 0.1322 0.0
C2264 C 0.75431 0.32788 0.14147 0.0
C2265 C 0.75462 0.33202 0.21363 0.0
C2266 C 0.76664 0.33573 0.24353 0.0
C2267 C 0.7781 0.33477 0.20349 0.0
H2268 H 0.92407 0.48265 0.67782 0.0
H2269 H 0.91408 0.45975 0.49098 0.0
H2270 H 0.92272 0.50245 0.60622 0.0
H2271 H 0.91215 0.47955 0.42002 0.0
H2272 H 0.92647 0.51567 0.29701 0.0
H2273 H 0.92538 0.49562 0.36697 0.0
H2274 H 0.90901 0.51707 0.54542 0.0
H2275 H 0.91067 0.53713 0.47658 0.0
C2276 C 0.92136 0.48187 0.62176 0.0
C2277 C 0.91927 0.46963 0.59004 0.0
C2278 C 0.92051 0.49324 0.58062 0.0
C2279 C 0.91737 0.49265 0.50699 0.0
C2280 C 0.91486 0.4804 0.47605 0.0
C2281 C 0.91587 0.46903 0.51693 0.0
C2282 C 0.92252 0.51605 0.35091 0.0
C2283 C 0.91877 0.52799 0.38147 0.0
C2284 C 0.92184 0.50455 0.39107 0.0
C2285 C 0.91721 0.5047 0.46233 0.0
C2286 C 0.91292 0.51659 0.4915 0.0
C2287 C 0.91379 0.5281 0.45177 0.0
H2288 H 0.28729 0.32338 0.24294 0.0
H2289 H 0.26665 0.33338 0.43765 0.0
H2290 H 0.26714 0.3245 0.17567 0.0
H2291 H 0.24643 0.33506 0.36934 0.0
H2292 H 0.21108 0.32017 0.24287 0.0
H2293 H 0.23112 0.32143 0.31177 0.0
H2294 H 0.25083 0.33802 0.12804 0.0
H2295 H 0.23084 0.33621 0.05803 0.0
C2296 C 0.27847 0.32603 0.27133 0.0
C2297 C 0.27859 0.32822 0.3459 0.0
C2298 C 0.26688 0.32677 0.23245 0.0
C2299 C 0.25509 0.32987 0.26684 0.0
C2300 C 0.25527 0.33242 0.3412 0.0
C2301 C 0.26688 0.33154 0.38037 0.0
C2302 C 0.21967 0.32414 0.21716 0.0
C2303 C 0.21939 0.328 0.14471 0.0
C2304 C 0.23117 0.32496 0.25698 0.0
C2305 C 0.24265 0.32981 0.22565 0.0
C2306 C 0.24225 0.334 0.15364 0.0
C2307 C 0.23078 0.33303 0.1135 0.0
H2308 H 0.42732 0.46059 -0.00237 0.0
H2309 H 0.41297 0.4806 0.80933 0.0
H2310 H 0.4261 0.48069 0.06586 0.0
H2311 H 0.41116 0.50069 0.87871 0.0
H2312 H 0.42595 0.53692 -0.00433 0.0
H2313 H 0.4247 0.51674 0.92852 0.0
H2314 H 0.41272 0.49639 0.12087 0.0
H2315 H 0.41457 0.51663 0.18912 0.0
C2316 C 0.42371 0.46926 0.97099 0.0
C2317 C 0.42033 0.46901 0.89778 0.0
C2318 C 0.42291 0.4808 0.01044 0.0
C2319 C 0.41856 0.49238 0.97801 0.0
C2320 C 0.4148 0.49203 0.90522 0.0
C2321 C 0.41577 0.4805 0.86543 0.0
C2322 C 0.42298 0.52817 0.02377 0.0
C2323 C 0.42043 0.52839 0.09799 0.0
C2324 C 0.42215 0.51657 0.98494 0.0
C2325 C 0.4186 0.50487 0.01901 0.0
C2326 C 0.41571 0.50515 0.09299 0.0
C2327 C 0.4167 0.51677 0.13214 0.0
H2328 H 0.21099 0.67583 0.74175 0.0
H2329 H 0.23097 0.66226 0.93191 0.0
H2330 H 0.23112 0.67456 0.67416 0.0
H2331 H 0.2511 0.66037 0.86314 0.0
H2332 H 0.2872 0.6755 0.74632 0.0
H2333 H 0.26702 0.67395 0.81299 0.0
H2334 H 0.24704 0.66139 0.62047 0.0
H2335 H 0.26728 0.66356 0.55268 0.0
C2336 C 0.21965 0.67235 0.76894 0.0
C2337 C 0.21939 0.66925 0.8425 0.0
C2338 C 0.23122 0.67152 0.72984 0.0
C2339 C 0.24281 0.6674 0.76297 0.0
C2340 C 0.24243 0.66385 0.83607 0.0
C2341 C 0.23088 0.66485 0.87551 0.0
C2342 C 0.27853 0.67233 0.7181 0.0
C2343 C 0.27884 0.66973 0.64395 0.0
C2344 C 0.26693 0.67133 0.75666 0.0
C2345 C 0.25533 0.66754 0.7224 0.0
C2346 C 0.25572 0.66457 0.6485 0.0
C2347 C 0.26733 0.66574 0.60961 0.0
H2348 H 0.08535 0.51762 0.30866 0.0
H2349 H 0.07191 0.53781 0.49842 0.0
H2350 H 0.08727 0.49753 0.37804 0.0
H2351 H 0.07322 0.51774 0.56664 0.0
H2352 H 0.08448 0.48171 0.68904 0.0
H2353 H 0.08649 0.50189 0.62049 0.0
H2354 H 0.07374 0.48165 0.42917 0.0
H2355 H 0.07233 0.46151 0.49661 0.0
C2356 C 0.08279 0.51776 0.36509 0.0
C2357 C 0.07843 0.5293 0.39781 0.0
C2358 C 0.08381 0.50624 0.40488 0.0
C2359 C 0.08032 0.50594 0.47807 0.0
C2360 C 0.07621 0.51758 0.51089 0.0
C2361 C 0.07536 0.52911 0.47143 0.0
C2362 C 0.08222 0.48158 0.63222 0.0
C2363 C 0.07822 0.47001 0.59844 0.0
C2364 C 0.0833 0.49316 0.59289 0.0
C2365 C 0.08024 0.49346 0.5191 0.0
C2366 C 0.07643 0.48181 0.4854 0.0
C2367 C 0.07551 0.47023 0.52439 0.0
H2368 H 0.16784 0.12628 0.92106 0.0
H2369 H 0.13638 0.15281 0.9679 0.0
H2370 H 0.15229 0.11073 0.8698 0.0
H2371 H 0.12076 0.13719 0.91799 0.0
H2372 H 0.09682 0.09906 0.89339 0.0
H2373 H 0.11222 0.11461 0.94564 0.0
H2374 H 0.13729 0.11007 0.76103 0.0
H2375 H 0.12184 0.09444 0.70905 0.0
C2376 C 0.15758 0.12874 0.92031 0.0
C2377 C 0.15326 0.14072 0.9477 0.0
C2378 C 0.14871 0.11989 0.89095 0.0
C2379 C 0.13534 0.1228 0.88951 0.0
C2380 C 0.131 0.13467 0.91876 0.0
C2381 C 0.1399 0.14358 0.94736 0.0
C2382 C 0.10564 0.10141 0.86419 0.0
C2383 C 0.10823 0.09559 0.7975 0.0
C2384 C 0.11439 0.11034 0.89378 0.0
C2385 C 0.12595 0.1135 0.85746 0.0
C2386 C 0.1285 0.1077 0.79046 0.0
C2387 C 0.11966 0.09887 0.7605 0.0
H2388 H 0.13679 0.84753 0.01788 0.0
H2389 H 0.16872 0.87238 0.08014 0.0
H2390 H 0.12136 0.86313 0.06847 0.0
H2391 H 0.15349 0.88757 0.13561 0.0
H2392 H 0.12228 0.91839 0.1684 0.0
H2393 H 0.13769 0.90331 0.1137 0.0
H2394 H 0.11338 0.87091 0.17839 0.0
H2395 H 0.09756 0.8862 0.22822 0.0
C2396 C 0.14047 0.85636 0.04254 0.0
C2397 C 0.1539 0.85875 0.04573 0.0
C2398 C 0.13167 0.86521 0.07253 0.0
C2399 C 0.13614 0.87658 0.1071 0.0
C2400 C 0.14963 0.87902 0.10894 0.0
C2401 C 0.15839 0.87027 0.07791 0.0
C2402 C 0.12025 0.90803 0.17038 0.0
C2403 C 0.10871 0.90343 0.20163 0.0
C2404 C 0.12913 0.89936 0.13975 0.0
C2405 C 0.12679 0.88584 0.14105 0.0
C2406 C 0.1154 0.88125 0.1748 0.0
C2407 C 0.10642 0.88997 0.20438 0.0
H2408 H 0.33054 0.87297 0.42127 0.0
H2409 H 0.36201 0.84648 0.46828 0.0
H2410 H 0.3459 0.88819 0.36671 0.0
H2411 H 0.37758 0.86196 0.41734 0.0
H2412 H 0.40023 0.8858 0.25379 0.0
H2413 H 0.38441 0.87057 0.30454 0.0
H2414 H 0.36285 0.90299 0.39359 0.0
H2415 H 0.37829 0.91812 0.33929 0.0
C2416 C 0.3408 0.8705 0.42032 0.0
C2417 C 0.34513 0.85857 0.44821 0.0
C2418 C 0.34962 0.87924 0.38969 0.0
C2419 C 0.363 0.87629 0.38721 0.0
C2420 C 0.36733 0.86444 0.41701 0.0
C2421 C 0.35847 0.85566 0.44704 0.0
C2422 C 0.39197 0.88961 0.28327 0.0
C2423 C 0.39043 0.90308 0.29276 0.0
C2424 C 0.38301 0.88091 0.31324 0.0
C2425 C 0.37238 0.88553 0.35371 0.0
C2426 C 0.37081 0.89907 0.36216 0.0
C2427 C 0.3797 0.90774 0.33164 0.0
H2428 H 0.3745 0.08091 0.69211 0.0
H2429 H 0.40172 0.1124 0.72333 0.0
H2430 H 0.35921 0.09588 0.63514 0.0
H2431 H 0.38614 0.12768 0.67079 0.0
H2432 H 0.32961 0.12807 0.59813 0.0
H2433 H 0.34476 0.11307 0.65569 0.0
H2434 H 0.37706 0.1337 0.55905 0.0
H2435 H 0.36182 0.1492 0.50565 0.0
C2436 C 0.37713 0.0911 0.68707 0.0
C2437 C 0.38931 0.09552 0.7108 0.0
C2438 C 0.36834 0.09972 0.65522 0.0
C2439 C 0.37145 0.11302 0.6477 0.0
C2440 C 0.38351 0.11748 0.67407 0.0
C2441 C 0.39237 0.10879 0.70508 0.0
C2442 C 0.33997 0.12938 0.58957 0.0
C2443 C 0.34458 0.13979 0.54787 0.0
C2444 C 0.34866 0.12073 0.62195 0.0
C2445 C 0.36218 0.12216 0.61237 0.0
C2446 C 0.36674 0.13242 0.56884 0.0
C2447 C 0.35803 0.14119 0.53723 0.0
H2448 H 0.83002 0.87518 0.04704 0.0
H2449 H 0.861 0.84732 0.01775 0.0
H2450 H 0.84528 0.8904 0.10212 0.0
H2451 H 0.87658 0.86283 0.0679 0.0
H2452 H 0.87785 0.9196 0.13745 0.0
H2453 H 0.86258 0.90457 0.08118 0.0
H2454 H 0.883 0.8721 0.17775 0.0
H2455 H 0.89879 0.88721 0.22943 0.0
C2456 C 0.84016 0.87239 0.05204 0.0
C2457 C 0.84434 0.86005 0.02948 0.0
C2458 C 0.84896 0.88115 0.08277 0.0
C2459 C 0.8622 0.87785 0.0902 0.0
C2460 C 0.86642 0.86562 0.06478 0.0
C2461 C 0.85756 0.8568 0.03505 0.0
C2462 C 0.87906 0.90923 0.14621 0.0
C2463 C 0.8895 0.90454 0.18741 0.0
C2464 C 0.87025 0.9006 0.11459 0.0
C2465 C 0.87153 0.88706 0.12456 0.0
C2466 C 0.88182 0.88242 0.1676 0.0
C2467 C 0.89076 0.89107 0.19831 0.0
H2468 H 0.83073 0.12627 0.91645 0.0
H2469 H 0.86289 0.15093 0.97745 0.0
H2470 H 0.84574 0.11124 0.85813 0.0
H2471 H 0.87814 0.13543 0.92427 0.0
H2472 H 0.9015 0.11279 0.76095 0.0
H2473 H 0.88587 0.12796 0.8137 0.0
H2474 H 0.86145 0.09543 0.87518 0.0
H2475 H 0.87663 0.08051 0.81728 0.0
C2476 C 0.84108 0.12836 0.91791 0.0
C2477 C 0.84568 0.1398 0.95039 0.0
C2478 C 0.84972 0.11969 0.88521 0.0
C2479 C 0.86321 0.12211 0.8858 0.0
C2480 C 0.86782 0.13336 0.92103 0.0
C2481 C 0.85912 0.14215 0.95257 0.0
C2482 C 0.89265 0.10898 0.78466 0.0
C2483 C 0.89027 0.09552 0.78568 0.0
C2484 C 0.88378 0.11762 0.81597 0.0
C2485 C 0.87242 0.11296 0.84981 0.0
C2486 C 0.86998 0.09945 0.84917 0.0
C2487 C 0.87873 0.09087 0.8167 0.0
H2488 H 0.66805 0.12755 0.58541 0.0
H2489 H 0.63615 0.15057 0.50404 0.0
H2490 H 0.65264 0.11213 0.63777 0.0
H2491 H 0.62064 0.13485 0.55325 0.0
H2492 H 0.5965 0.11215 0.71639 0.0
H2493 H 0.61218 0.12766 0.66662 0.0
H2494 H 0.63733 0.09563 0.60669 0.0
H2495 H 0.62188 0.08029 0.65962 0.0
C2496 C 0.6577 0.12921 0.57831 0.0
C2497 C 0.65324 0.14022 0.54103 0.0
C2498 C 0.64888 0.12034 0.60773 0.0
C2499 C 0.63538 0.12225 0.5999 0.0
C2500 C 0.63095 0.13318 0.56129 0.0
C2501 C 0.63981 0.1421 0.53228 0.0
C2502 C 0.60547 0.10851 0.69326 0.0
C2503 C 0.60803 0.09509 0.69149 0.0
C2504 C 0.61437 0.11734 0.66398 0.0
C2505 C 0.62599 0.11289 0.63213 0.0
C2506 C 0.62856 0.09942 0.63137 0.0
C2507 C 0.6197 0.09063 0.66109 0.0
H2508 H 0.62244 0.91833 0.32047 0.0
H2509 H 0.59818 0.88601 0.25681 0.0
H2510 H 0.63793 0.90328 0.37485 0.0
H2511 H 0.61409 0.87078 0.30625 0.0
H2512 H 0.63757 0.84715 0.46483 0.0
H2513 H 0.62203 0.86275 0.4155 0.0
H2514 H 0.65395 0.88779 0.35235 0.0
H2515 H 0.6693 0.87258 0.40669 0.0
C2516 C 0.62052 0.90795 0.31768 0.0
C2517 C 0.60908 0.9033 0.2854 0.0
C2518 C 0.62945 0.8993 0.34809 0.0
C2519 C 0.62727 0.88575 0.34551 0.0
C2520 C 0.61598 0.88113 0.31086 0.0
C2521 C 0.60695 0.88982 0.28152 0.0
C2522 C 0.64119 0.85611 0.44139 0.0
C2523 C 0.65459 0.85867 0.43904 0.0
C2524 C 0.63232 0.86497 0.41208 0.0
C2525 C 0.63669 0.87651 0.37896 0.0
C2526 C 0.65016 0.87911 0.37792 0.0
C2527 C 0.65899 0.87034 0.4083 0.0
H2528 H 0.62219 0.57879 0.33166 0.0
H2529 H 0.59896 0.61136 0.26095 0.0
H2530 H 0.63745 0.59365 0.38896 0.0
H2531 H 0.61482 0.62642 0.31213 0.0
H2532 H 0.63763 0.65051 0.47015 0.0
H2533 H 0.62215 0.63502 0.41939 0.0
H2534 H 0.65388 0.60844 0.37433 0.0
H2535 H 0.66899 0.62348 0.43153 0.0
C2536 C 0.62047 0.58919 0.32774 0.0
C2537 C 0.60934 0.59395 0.2929 0.0
C2538 C 0.6293 0.59775 0.3598 0.0
C2539 C 0.6274 0.61133 0.35593 0.0
C2540 C 0.61648 0.61606 0.31812 0.0
C2541 C 0.60749 0.60745 0.28753 0.0
C2542 C 0.64118 0.64123 0.45052 0.0
C2543 C 0.65449 0.63823 0.45368 0.0
C2544 C 0.63237 0.63242 0.42022 0.0
C2545 C 0.63671 0.62049 0.39128 0.0
C2546 C 0.65006 0.61742 0.39634 0.0
C2547 C 0.65879 0.62612 0.42817 0.0
H2548 H 0.66835 0.37205 0.57074 0.0
H2549 H 0.63611 0.34766 0.50767 0.0
H2550 H 0.65331 0.38737 0.62666 0.0
H2551 H 0.62087 0.36341 0.55864 0.0
H2552 H 0.59742 0.38649 0.72011 0.0
H2553 H 0.61299 0.37111 0.66874 0.0
H2554 H 0.63773 0.40333 0.60637 0.0
H2555 H 0.62258 0.41848 0.66273 0.0
C2556 C 0.65799 0.37008 0.56834 0.0
C2557 C 0.65336 0.35864 0.53587 0.0
C2558 C 0.64934 0.37891 0.59965 0.0
C2559 C 0.63582 0.37664 0.59777 0.0
C2560 C 0.63121 0.36537 0.56276 0.0
C2561 C 0.6399 0.35643 0.53252 0.0
C2562 C 0.60632 0.39019 0.6964 0.0
C2563 C 0.6088 0.40363 0.6948 0.0
C2564 C 0.61515 0.38143 0.66592 0.0
C2565 C 0.6266 0.38594 0.6324 0.0
C2566 C 0.62913 0.39943 0.6322 0.0
C2567 C 0.62039 0.40815 0.66376 0.0
H2568 H 0.90115 0.38627 0.75916 0.0
H2569 H 0.87559 0.41809 0.81405 0.0
H2570 H 0.88544 0.37077 0.80816 0.0
H2571 H 0.86021 0.40279 0.86741 0.0
H2572 H 0.82965 0.37122 0.89693 0.0
H2573 H 0.84485 0.38653 0.84217 0.0
H2574 H 0.87713 0.36327 0.9189 0.0
H2575 H 0.86177 0.34756 0.96935 0.0
C2576 C 0.89213 0.38991 0.78173 0.0
C2577 C 0.88956 0.40333 0.78334 0.0
C2578 C 0.88321 0.38107 0.81074 0.0
C2579 C 0.87158 0.3855 0.84257 0.0
C2580 C 0.86896 0.39897 0.8428 0.0
C2581 C 0.87782 0.40777 0.81293 0.0
C2582 C 0.84001 0.3694 0.90153 0.0
C2583 C 0.84458 0.35821 0.93669 0.0
C2584 C 0.84874 0.37822 0.87084 0.0
C2585 C 0.86226 0.37615 0.87574 0.0
C2586 C 0.8668 0.36506 0.91272 0.0
C2587 C 0.85803 0.35616 0.94257 0.0
H2588 H 0.89941 0.61117 0.22127 0.0
H2589 H 0.87436 0.57902 0.16505 0.0
H2590 H 0.88355 0.62643 0.17247 0.0
H2591 H 0.8591 0.59401 0.10897 0.0
H2592 H 0.82825 0.62451 0.06715 0.0
H2593 H 0.84334 0.60933 0.1231 0.0
H2594 H 0.8754 0.63487 0.06798 0.0
H2595 H 0.86 0.6506 0.01942 0.0
C2596 C 0.89051 0.60739 0.19787 0.0
C2597 C 0.88819 0.59393 0.19564 0.0
C2598 C 0.88149 0.61611 0.16867 0.0
C2599 C 0.87005 0.61154 0.13518 0.0
C2600 C 0.86768 0.59801 0.13456 0.0
C2601 C 0.87654 0.58935 0.16555 0.0
C2602 C 0.83852 0.62693 0.06842 0.0
C2603 C 0.84294 0.63884 0.04072 0.0
C2604 C 0.84725 0.61812 0.09935 0.0
C2605 C 0.8607 0.62083 0.10107 0.0
C2606 C 0.86513 0.63254 0.06994 0.0
C2607 C 0.85634 0.64149 0.04083 0.0
H2608 H 0.32981 0.37125 0.58105 0.0
H2609 H 0.36207 0.34722 0.51426 0.0
H2610 H 0.34487 0.38649 0.63755 0.0
H2611 H 0.37731 0.36289 0.56614 0.0
H2612 H 0.40092 0.38583 0.72764 0.0
H2613 H 0.38529 0.37042 0.67696 0.0
H2614 H 0.36038 0.40259 0.61595 0.0
H2615 H 0.37563 0.41778 0.67129 0.0
C2616 C 0.34018 0.36934 0.57796 0.0
C2617 C 0.34481 0.35805 0.54403 0.0
C2618 C 0.34883 0.37812 0.60966 0.0
C2619 C 0.36236 0.37593 0.60689 0.0
C2620 C 0.36697 0.36478 0.57082 0.0
C2621 C 0.35828 0.3559 0.54007 0.0
C2622 C 0.39198 0.38952 0.70443 0.0
C2623 C 0.38947 0.40295 0.70286 0.0
C2624 C 0.3831 0.38073 0.67438 0.0
C2625 C 0.3716 0.38523 0.64141 0.0
C2626 C 0.36903 0.39871 0.64137 0.0
C2627 C 0.37782 0.40745 0.6724 0.0
H2628 H 0.37588 0.57959 0.32532 0.0
H2629 H 0.40083 0.61161 0.26574 0.0
H2630 H 0.36068 0.59476 0.38115 0.0
H2631 H 0.38521 0.627 0.31646 0.0
H2632 H 0.36212 0.65063 0.47671 0.0
H2633 H 0.37739 0.63487 0.42612 0.0
H2634 H 0.345 0.61058 0.36091 0.0
H2635 H 0.32995 0.62591 0.4166 0.0
C2636 C 0.378 0.58993 0.32366 0.0
C2637 C 0.38956 0.59446 0.2922 0.0
C2638 C 0.36924 0.59866 0.35492 0.0
C2639 C 0.3717 0.61216 0.35395 0.0
C2640 C 0.3831 0.61668 0.31991 0.0
C2641 C 0.39197 0.6079 0.28979 0.0
C2642 C 0.35835 0.64179 0.45257 0.0
C2643 C 0.3449 0.63948 0.44994 0.0
C2644 C 0.36706 0.63284 0.42253 0.0
C2645 C 0.36247 0.62148 0.38838 0.0
C2646 C 0.34896 0.61912 0.38723 0.0
C2647 C 0.3403 0.62796 0.4184 0.0
H2648 H 0.12135 0.58062 0.16436 0.0
H2649 H 0.09681 0.6128 0.22659 0.0
H2650 H 0.13666 0.59573 0.10895 0.0
H2651 H 0.11249 0.62811 0.17542 0.0
H2652 H 0.13576 0.65134 0.01261 0.0
H2653 H 0.12034 0.63578 0.06392 0.0
H2654 H 0.1525 0.61155 0.13265 0.0
H2655 H 0.16773 0.62673 0.07708 0.0
C2656 C 0.11934 0.59098 0.16671 0.0
C2657 C 0.1079 0.59558 0.1991 0.0
C2658 C 0.12816 0.59967 0.1356 0.0
C2659 C 0.12583 0.61318 0.1373 0.0
C2660 C 0.1145 0.61777 0.17173 0.0
C2661 C 0.1056 0.60904 0.20202 0.0
C2662 C 0.13945 0.64256 0.03771 0.0
C2663 C 0.15289 0.6402 0.04119 0.0
C2664 C 0.13066 0.63373 0.06809 0.0
C2665 C 0.13515 0.62243 0.10318 0.0
C2666 C 0.14864 0.62004 0.10548 0.0
C2667 C 0.15739 0.62878 0.07427 0.0
H2668 H 0.16733 0.3756 0.93734 0.0
H2669 H 0.137 0.34704 0.96831 0.0
H2670 H 0.15155 0.39041 0.88161 0.0
H2671 H 0.12111 0.36201 0.91499 0.0
H2672 H 0.09602 0.39983 0.88945 0.0
H2673 H 0.11154 0.38478 0.94488 0.0
H2674 H 0.13745 0.38968 0.76421 0.0
H2675 H 0.12178 0.4047 0.70844 0.0
C2676 C 0.15728 0.37253 0.93215 0.0
C2677 C 0.15336 0.36016 0.95597 0.0
C2678 C 0.14828 0.38097 0.90038 0.0
C2679 C 0.13517 0.37727 0.8934 0.0
C2680 C 0.13117 0.36508 0.9198 0.0
C2681 C 0.14022 0.35656 0.95049 0.0
C2682 C 0.10502 0.39762 0.86163 0.0
C2683 C 0.10779 0.40337 0.79495 0.0
C2684 C 0.11385 0.389 0.8931 0.0
C2685 C 0.12568 0.38613 0.85889 0.0
C2686 C 0.12842 0.39183 0.79186 0.0
C2687 C 0.11947 0.40031 0.75979 0.0
loop_
_geom_bond_atom_site_label_1
_geom_bond_atom_site_label_2
_geom_bond_distance
_geom_bond_site_symmetry_2
_ccdc_geom_bond_type
Co0 O3 1.970 . S
Co0 N17 1.989 . S
Co0 O25 1.967 . S
Co0 O32 1.920 . S
Co1 O4 1.966 . S
Co1 N10 2.022 . S
Co1 N18 1.993 . S
Co1 O26 1.941 . S
C2 O3 1.258 . S
C2 O4 1.263 1_554 S
O3 Co0 1.970 . S
O3 C2 1.258 . S
O4 Co1 1.966 . S
O4 C2 1.263 1_556 S
C5 O6 1.235 . S
C5 O32 1.289 . S
O6 C5 1.235 . S
C7 C9 1.400 . S
C7 N10 1.351 . S
C7 C12 1.501 . S
C8 C9 1.387 . S
C8 N11 1.341 . S
C9 C7 1.400 . S
C9 C8 1.387 . S
N10 Co1 2.022 . S
N10 C7 1.351 . S
N10 N11 1.365 . S
N11 C8 1.341 . S
N11 N10 1.365 . S
N11 H31 0.862 . S
C12 C7 1.501 . S
C12 H13 0.961 . S
C12 H14 0.961 . S
C12 H15 0.960 . S
H13 C12 0.961 . S
H14 C12 0.961 . S
H15 C12 0.960 . S
C16 N17 1.342 . S
C16 C20 1.401 1_554 S
C16 C21 1.499 . S
N17 Co0 1.989 . S
N17 C16 1.342 . S
N17 N18 1.388 1_554 S
N18 Co1 1.993 . S
N18 N17 1.388 1_556 S
N18 C19 1.346 . S
C19 N18 1.346 . S
C19 C20 1.396 . S
C19 C29 1.510 . S
C20 C16 1.401 1_556 S
C20 C19 1.396 . S
C21 C16 1.499 . S
C21 H22 0.959 . S
C21 H23 0.960 . S
C21 H24 0.961 . S
H22 C21 0.959 . S
H23 C21 0.960 . S
H24 C21 0.961 . S
O25 Co0 1.967 . S
O25 C33 1.258 . S
O26 Co1 1.941 . S
O26 C33 1.266 1_556 S
H27 C29 0.959 . S
H28 C29 0.961 . S
C29 C19 1.510 . S
C29 H27 0.959 . S
C29 H28 0.961 . S
C29 H30 0.960 . S
H30 C29 0.960 . S
H31 N11 0.862 . S
O32 Co0 1.920 . S
O32 C5 1.289 . S
C33 O25 1.258 . S
C33 O26 1.266 1_554 S
Co34 O37 1.970 . S
Co34 N51 1.989 . S
Co34 O59 1.967 . S
Co34 O66 1.920 . S
Co35 O38 1.966 . S
Co35 N44 2.022 . S
Co35 N52 1.993 . S
Co35 O60 1.941 . S
C36 O37 1.258 . S
C36 O38 1.263 . S
O37 Co34 1.970 . S
O37 C36 1.258 . S
O38 Co35 1.966 . S
O38 C36 1.263 . S
C39 O40 1.235 . S
C39 O66 1.289 . S
O40 C39 1.235 . S
C41 C43 1.400 1_554 S
C41 N44 1.351 . S
C41 C46 1.501 . S
C42 C43 1.387 . S
C42 N45 1.341 1_556 S
C43 C41 1.400 1_556 S
C43 C42 1.387 . S
N44 Co35 2.022 . S
N44 C41 1.351 . S
N44 N45 1.365 . S
N45 C42 1.341 1_554 S
N45 N44 1.365 . S
N45 H65 0.862 . S
C46 C41 1.501 . S
C46 H47 0.961 . S
C46 H48 0.961 . S
C46 H49 0.960 . S
H47 C46 0.961 . S
H48 C46 0.961 . S
H49 C46 0.960 . S
C50 N51 1.342 . S
C50 C54 1.401 . S
C50 C55 1.499 . S
N51 Co34 1.989 . S
N51 C50 1.342 . S
N51 N52 1.388 . S
N52 Co35 1.993 . S
N52 N51 1.388 . S
N52 C53 1.346 . S
C53 N52 1.346 . S
C53 C54 1.396 . S
C53 C63 1.510 . S
C54 C50 1.401 . S
C54 C53 1.396 . S
C55 C50 1.499 . S
C55 H56 0.959 . S
C55 H57 0.960 . S
C55 H58 0.961 . S
H56 C55 0.959 . S
H57 C55 0.960 . S
H58 C55 0.961 . S
O59 Co34 1.967 . S
O59 C67 1.258 . S
O60 Co35 1.941 . S
O60 C67 1.266 . S
H61 C63 0.959 . S
H62 C63 0.961 . S
C63 C53 1.510 . S
C63 H61 0.959 . S
C63 H62 0.961 . S
C63 H64 0.960 . S
H64 C63 0.960 . S
H65 N45 0.862 . S
O66 Co34 1.920 . S
O66 C39 1.289 . S
C67 O59 1.258 . S
C67 O60 1.266 . S
Co68 O71 1.970 . S
Co68 N85 1.989 . S
Co68 O93 1.967 . S
Co68 O100 1.920 . S
Co69 O72 1.966 . S
Co69 N78 2.022 . S
Co69 N86 1.993 . S
Co69 O94 1.941 . S
C70 O71 1.258 . S
C70 O72 1.263 . S
O71 Co68 1.970 . S
O71 C70 1.258 . S
O72 Co69 1.966 . S
O72 C70 1.263 . S
C73 O74 1.235 . S
C73 O100 1.289 . S
O74 C73 1.235 . S
C75 C77 1.400 . S
C75 N78 1.351 . S
C75 C80 1.501 . S
C76 C77 1.387 . S
C76 N79 1.341 . S
C77 C75 1.400 . S
C77 C76 1.387 . S
N78 Co69 2.022 . S
N78 C75 1.351 . S
N78 N79 1.365 . S
N79 C76 1.341 . S
N79 N78 1.365 . S
N79 H99 0.862 . S
C80 C75 1.501 . S
C80 H81 0.961 . S
C80 H82 0.961 . S
C80 H83 0.960 . S
H81 C80 0.961 . S
H82 C80 0.961 . S
H83 C80 0.960 . S
C84 N85 1.342 . S
C84 C88 1.401 . S
C84 C89 1.499 . S
N85 Co68 1.989 . S
N85 C84 1.342 . S
N85 N86 1.388 . S
N86 Co69 1.993 . S
N86 N85 1.388 . S
N86 C87 1.346 . S
C87 N86 1.346 . S
C87 C88 1.396 . S
C87 C97 1.510 . S
C88 C84 1.401 . S
C88 C87 1.396 . S
C89 C84 1.499 . S
C89 H90 0.959 . S
C89 H91 0.960 . S
C89 H92 0.961 . S
H90 C89 0.959 . S
H91 C89 0.960 . S
H92 C89 0.961 . S
O93 Co68 1.967 . S
O93 C101 1.258 . S
O94 Co69 1.941 . S
O94 C101 1.266 . S
H95 C97 0.959 . S
H96 C97 0.961 . S
C97 C87 1.510 . S
C97 H95 0.959 . S
C97 H96 0.961 . S
C97 H98 0.960 . S
H98 C97 0.960 . S
H99 N79 0.862 . S
O100 Co68 1.920 . S
O100 C73 1.289 . S
C101 O93 1.258 . S
C101 O94 1.266 . S
Co102 O105 1.970 . S
Co102 N119 1.989 . S
Co102 O127 1.967 . S
Co102 O134 1.920 . S
Co103 O106 1.966 . S
Co103 N112 2.022 . S
Co103 N120 1.993 . S
Co103 O128 1.941 . S
C104 O105 1.258 . S
C104 O106 1.263 . S
O105 Co102 1.970 . S
O105 C104 1.258 . S
O106 Co103 1.966 . S
O106 C104 1.263 . S
C107 O108 1.235 . S
C107 O134 1.289 . S
O108 C107 1.235 . S
C109 C111 1.400 . S
C109 N112 1.351 . S
C109 C114 1.501 . S
C110 C111 1.387 . S
C110 N113 1.341 . S
C111 C109 1.400 . S
C111 C110 1.387 . S
N112 Co103 2.022 . S
N112 C109 1.351 . S
N112 N113 1.365 . S
N113 C110 1.341 . S
N113 N112 1.365 . S
N113 H133 0.862 . S
C114 C109 1.501 . S
C114 H115 0.961 . S
C114 H116 0.961 . S
C114 H117 0.960 . S
H115 C114 0.961 . S
H116 C114 0.961 . S
H117 C114 0.960 . S
C118 N119 1.342 . S
C118 C122 1.401 . S
C118 C123 1.499 . S
N119 Co102 1.989 . S
N119 C118 1.342 . S
N119 N120 1.388 . S
N120 Co103 1.993 . S
N120 N119 1.388 . S
N120 C121 1.346 . S
C121 N120 1.346 . S
C121 C122 1.396 . S
C121 C131 1.510 . S
C122 C118 1.401 . S
C122 C121 1.396 . S
C123 C118 1.499 . S
C123 H124 0.959 . S
C123 H125 0.960 . S
C123 H126 0.961 . S
H124 C123 0.959 . S
H125 C123 0.960 . S
H126 C123 0.961 . S
O127 Co102 1.967 . S
O127 C135 1.258 . S
O128 Co103 1.941 . S
O128 C135 1.266 . S
H129 C131 0.959 . S
H130 C131 0.961 . S
C131 C121 1.510 . S
C131 H129 0.959 . S
C131 H130 0.961 . S
C131 H132 0.960 . S
H132 C131 0.960 . S
H133 N113 0.862 . S
O134 Co102 1.920 . S
O134 C107 1.289 . S
C135 O127 1.258 . S
C135 O128 1.266 . S
Co136 O139 1.970 . S
Co136 N153 1.989 . S
Co136 O161 1.967 . S
Co136 O168 1.920 . S
Co137 O140 1.966 . S
Co137 N146 2.022 . S
Co137 N154 1.993 . S
Co137 O162 1.941 . S
C138 O139 1.258 . S
C138 O140 1.263 1_556 S
O139 Co136 1.970 . S
O139 C138 1.258 . S
O140 Co137 1.966 . S
O140 C138 1.263 1_554 S
C141 O142 1.235 . S
C141 O168 1.289 . S
O142 C141 1.235 . S
C143 C145 1.400 . S
C143 N146 1.351 . S
C143 C148 1.501 . S
C144 C145 1.387 . S
C144 N147 1.341 . S
C145 C143 1.400 . S
C145 C144 1.387 . S
N146 Co137 2.022 . S
N146 C143 1.351 . S
N146 N147 1.365 . S
N147 C144 1.341 . S
N147 N146 1.365 . S
N147 H167 0.862 . S
C148 C143 1.501 . S
C148 H149 0.961 . S
C148 H150 0.961 . S
C148 H151 0.960 . S
H149 C148 0.961 . S
H150 C148 0.961 . S
H151 C148 0.960 . S
C152 N153 1.342 . S
C152 C156 1.401 1_556 S
C152 C157 1.499 . S
N153 Co136 1.989 . S
N153 C152 1.342 . S
N153 N154 1.388 1_556 S
N154 Co137 1.993 . S
N154 N153 1.388 1_554 S
N154 C155 1.346 . S
C155 N154 1.346 . S
C155 C156 1.396 . S
C155 C165 1.510 . S
C156 C152 1.401 1_554 S
C156 C155 1.396 . S
C157 C152 1.499 . S
C157 H158 0.959 . S
C157 H159 0.960 . S
C157 H160 0.961 . S
H158 C157 0.959 . S
H159 C157 0.960 . S
H160 C157 0.961 . S
O161 Co136 1.967 . S
O161 C169 1.258 . S
O162 Co137 1.941 . S
O162 C169 1.266 1_554 S
H163 C165 0.959 . S
H164 C165 0.961 . S
C165 C155 1.510 . S
C165 H163 0.959 . S
C165 H164 0.961 . S
C165 H166 0.960 . S
H166 C165 0.960 . S
H167 N147 0.862 . S
O168 Co136 1.920 . S
O168 C141 1.289 . S
C169 O161 1.258 . S
C169 O162 1.266 1_556 S
Co170 O173 1.970 . S
Co170 N187 1.989 . S
Co170 O195 1.967 . S
Co170 O202 1.920 . S
Co171 O174 1.966 . S
Co171 N180 2.022 . S
Co171 N188 1.993 . S
Co171 O196 1.941 . S
C172 O173 1.258 . S
C172 O174 1.263 . S
O173 Co170 1.970 . S
O173 C172 1.258 . S
O174 Co171 1.966 . S
O174 C172 1.263 . S
C175 O176 1.235 . S
C175 O202 1.289 . S
O176 C175 1.235 . S
C177 C179 1.400 . S
C177 N180 1.351 . S
C177 C182 1.501 . S
C178 C179 1.387 . S
C178 N181 1.341 . S
C179 C177 1.400 . S
C179 C178 1.387 . S
N180 Co171 2.022 . S
N180 C177 1.351 . S
N180 N181 1.365 . S
N181 C178 1.341 . S
N181 N180 1.365 . S
N181 H201 0.862 . S
C182 C177 1.501 . S
C182 H183 0.961 . S
C182 H184 0.961 . S
C182 H185 0.960 . S
H183 C182 0.961 . S
H184 C182 0.961 . S
H185 C182 0.960 . S
C186 N187 1.342 . S
C186 C190 1.401 . S
C186 C191 1.499 . S
N187 Co170 1.989 . S
N187 C186 1.342 . S
N187 N188 1.388 . S
N188 Co171 1.993 . S
N188 N187 1.388 . S
N188 C189 1.346 . S
C189 N188 1.346 . S
C189 C190 1.396 . S
C189 C199 1.510 . S
C190 C186 1.401 . S
C190 C189 1.396 . S
C191 C186 1.499 . S
C191 H192 0.959 . S
C191 H193 0.960 . S
C191 H194 0.961 . S
H192 C191 0.959 . S
H193 C191 0.960 . S
H194 C191 0.961 . S
O195 Co170 1.967 . S
O195 C203 1.258 . S
O196 Co171 1.941 . S
O196 C203 1.266 . S
H197 C199 0.959 . S
H198 C199 0.961 . S
C199 C189 1.510 . S
C199 H197 0.959 . S
C199 H198 0.961 . S
C199 H200 0.960 . S
H200 C199 0.960 . S
H201 N181 0.862 . S
O202 Co170 1.920 . S
O202 C175 1.289 . S
C203 O195 1.258 . S
C203 O196 1.266 . S
Co204 O207 1.970 . S
Co204 N221 1.989 . S
Co204 O229 1.967 . S
Co204 O236 1.920 . S
Co205 O208 1.966 . S
Co205 N214 2.022 . S
Co205 N222 1.993 . S
Co205 O230 1.941 . S
C206 O207 1.258 . S
C206 O208 1.263 . S
O207 Co204 1.970 . S
O207 C206 1.258 . S
O208 Co205 1.966 . S
O208 C206 1.263 . S
C209 O210 1.235 . S
C209 O236 1.289 . S
O210 C209 1.235 . S
C211 C213 1.400 . S
C211 N214 1.351 . S
C211 C216 1.501 . S
C212 C213 1.387 . S
C212 N215 1.341 . S
C213 C211 1.400 . S
C213 C212 1.387 . S
N214 Co205 2.022 . S
N214 C211 1.351 . S
N214 N215 1.365 . S
N215 C212 1.341 . S
N215 N214 1.365 . S
N215 H235 0.862 . S
C216 C211 1.501 . S
C216 H217 0.961 . S
C216 H218 0.961 . S
C216 H219 0.960 . S
H217 C216 0.961 . S
H218 C216 0.961 . S
H219 C216 0.960 . S
C220 N221 1.342 . S
C220 C224 1.401 . S
C220 C225 1.499 . S
N221 Co204 1.989 . S
N221 C220 1.342 . S
N221 N222 1.388 . S
N222 Co205 1.993 . S
N222 N221 1.388 . S
N222 C223 1.346 . S
C223 N222 1.346 . S
C223 C224 1.396 . S
C223 C233 1.510 . S
C224 C220 1.401 . S
C224 C223 1.396 . S
C225 C220 1.499 . S
C225 H226 0.959 . S
C225 H227 0.960 . S
C225 H228 0.961 . S
H226 C225 0.959 . S
H227 C225 0.960 . S
H228 C225 0.961 . S
O229 Co204 1.967 . S
O229 C237 1.258 . S
O230 Co205 1.941 . S
O230 C237 1.266 . S
H231 C233 0.959 . S
H232 C233 0.961 . S
C233 C223 1.510 . S
C233 H231 0.959 . S
C233 H232 0.961 . S
C233 H234 0.960 . S
H234 C233 0.960 . S
H235 N215 0.862 . S
O236 Co204 1.920 . S
O236 C209 1.289 . S
C237 O229 1.258 . S
C237 O230 1.266 . S
Co238 O241 1.970 . S
Co238 N255 1.989 . S
Co238 O263 1.967 . S
Co238 O270 1.920 . S
Co239 O242 1.966 . S
Co239 N248 2.022 . S
Co239 N256 1.993 . S
Co239 O264 1.941 . S
C240 O241 1.258 . S
C240 O242 1.263 . S
O241 Co238 1.970 . S
O241 C240 1.258 . S
O242 Co239 1.966 . S
O242 C240 1.263 . S
C243 O244 1.235 . S
C243 O270 1.289 . S
O244 C243 1.235 . S
C245 C247 1.400 1_556 S
C245 N248 1.351 . S
C245 C250 1.501 . S
C246 C247 1.387 . S
C246 N249 1.341 1_554 S
C247 C245 1.400 1_554 S
C247 C246 1.387 . S
N248 Co239 2.022 . S
N248 C245 1.351 . S
N248 N249 1.365 . S
N249 C246 1.341 1_556 S
N249 N248 1.365 . S
N249 H269 0.862 . S
C250 C245 1.501 . S
C250 H251 0.961 . S
C250 H252 0.961 . S
C250 H253 0.960 . S
H251 C250 0.961 . S
H252 C250 0.961 . S
H253 C250 0.960 . S
C254 N255 1.342 . S
C254 C258 1.401 . S
C254 C259 1.499 . S
N255 Co238 1.989 . S
N255 C254 1.342 . S
N255 N256 1.388 . S
N256 Co239 1.993 . S
N256 N255 1.388 . S
N256 C257 1.346 . S
C257 N256 1.346 . S
C257 C258 1.396 . S
C257 C267 1.510 . S
C258 C254 1.401 . S
C258 C257 1.396 . S
C259 C254 1.499 . S
C259 H260 0.959 . S
C259 H261 0.960 . S
C259 H262 0.961 . S
H260 C259 0.959 . S
H261 C259 0.960 . S
H262 C259 0.961 . S
O263 Co238 1.967 . S
O263 C271 1.258 . S
O264 Co239 1.941 . S
O264 C271 1.266 . S
H265 C267 0.959 . S
H266 C267 0.961 . S
C267 C257 1.510 . S
C267 H265 0.959 . S
C267 H266 0.961 . S
C267 H268 0.960 . S
H268 C267 0.960 . S
H269 N249 0.862 . S
O270 Co238 1.920 . S
O270 C243 1.289 . S
C271 O263 1.258 . S
C271 O264 1.266 . S
Co272 O275 1.970 . S
Co272 N289 1.989 . S
Co272 O297 1.967 . S
Co272 O304 1.920 . S
Co273 O276 1.966 . S
Co273 N282 2.022 . S
Co273 N290 1.993 . S
Co273 O298 1.941 . S
C274 O275 1.258 . S
C274 O276 1.263 1_556 S
O275 Co272 1.970 . S
O275 C274 1.258 . S
O276 Co273 1.966 . S
O276 C274 1.263 1_554 S
C277 O278 1.235 . S
C277 O304 1.289 . S
O278 C277 1.235 . S
C279 C281 1.400 . S
C279 N282 1.351 . S
C279 C284 1.501 . S
C280 C281 1.387 . S
C280 N283 1.341 . S
C281 C279 1.400 . S
C281 C280 1.387 . S
N282 Co273 2.022 . S
N282 C279 1.351 . S
N282 N283 1.365 . S
N283 C280 1.341 . S
N283 N282 1.365 . S
N283 H303 0.862 . S
C284 C279 1.501 . S
C284 H285 0.961 . S
C284 H286 0.961 . S
C284 H287 0.960 . S
H285 C284 0.961 . S
H286 C284 0.961 . S
H287 C284 0.960 . S
C288 N289 1.342 . S
C288 C292 1.401 1_556 S
C288 C293 1.499 . S
N289 Co272 1.989 . S
N289 C288 1.342 . S
N289 N290 1.388 1_556 S
N290 Co273 1.993 . S
N290 N289 1.388 1_554 S
N290 C291 1.346 . S
C291 N290 1.346 . S
C291 C292 1.396 . S
C291 C301 1.510 . S
C292 C288 1.401 1_554 S
C292 C291 1.396 . S
C293 C288 1.499 . S
C293 H294 0.959 . S
C293 H295 0.960 . S
C293 H296 0.961 . S
H294 C293 0.959 . S
H295 C293 0.960 . S
H296 C293 0.961 . S
O297 Co272 1.967 . S
O297 C305 1.258 . S
O298 Co273 1.941 . S
O298 C305 1.266 1_554 S
H299 C301 0.959 . S
H300 C301 0.961 . S
C301 C291 1.510 . S
C301 H299 0.959 . S
C301 H300 0.961 . S
C301 H302 0.960 . S
H302 C301 0.960 . S
H303 N283 0.862 . S
O304 Co272 1.920 . S
O304 C277 1.289 . S
C305 O297 1.258 . S
C305 O298 1.266 1_556 S
Co306 O309 1.970 . S
Co306 N323 1.989 . S
Co306 O331 1.967 . S
Co306 O338 1.920 . S
Co307 O310 1.966 . S
Co307 N316 2.022 . S
Co307 N324 1.993 . S
Co307 O332 1.941 . S
C308 O309 1.258 . S
C308 O310 1.263 . S
O309 Co306 1.970 . S
O309 C308 1.258 . S
O310 Co307 1.966 . S
O310 C308 1.263 . S
C311 O312 1.235 . S
C311 O338 1.289 . S
O312 C311 1.235 . S
C313 C315 1.400 1_556 S
C313 N316 1.351 . S
C313 C318 1.501 . S
C314 C315 1.387 . S
C314 N317 1.341 1_554 S
C315 C313 1.400 1_554 S
C315 C314 1.387 . S
N316 Co307 2.022 . S
N316 C313 1.351 . S
N316 N317 1.365 . S
N317 C314 1.341 1_556 S
N317 N316 1.365 . S
N317 H337 0.862 . S
C318 C313 1.501 . S
C318 H319 0.961 . S
C318 H320 0.961 . S
C318 H321 0.960 . S
H319 C318 0.961 . S
H320 C318 0.961 . S
H321 C318 0.960 . S
C322 N323 1.342 . S
C322 C326 1.401 . S
C322 C327 1.499 . S
N323 Co306 1.989 . S
N323 C322 1.342 . S
N323 N324 1.388 . S
N324 Co307 1.993 . S
N324 N323 1.388 . S
N324 C325 1.346 . S
C325 N324 1.346 . S
C325 C326 1.396 . S
C325 C335 1.510 . S
C326 C322 1.401 . S
C326 C325 1.396 . S
C327 C322 1.499 . S
C327 H328 0.959 . S
C327 H329 0.960 . S
C327 H330 0.961 . S
H328 C327 0.959 . S
H329 C327 0.960 . S
H330 C327 0.961 . S
O331 Co306 1.967 . S
O331 C339 1.258 . S
O332 Co307 1.941 . S
O332 C339 1.266 . S
H333 C335 0.959 . S
H334 C335 0.961 . S
C335 C325 1.510 . S
C335 H333 0.959 . S
C335 H334 0.961 . S
C335 H336 0.960 . S
H336 C335 0.960 . S
H337 N317 0.862 . S
O338 Co306 1.920 . S
O338 C311 1.289 . S
C339 O331 1.258 . S
C339 O332 1.266 . S
Co340 O343 1.970 . S
Co340 N357 1.989 . S
Co340 O365 1.967 . S
Co340 O372 1.920 . S
Co341 O344 1.966 . S
Co341 N350 2.022 . S
Co341 N358 1.993 . S
Co341 O366 1.941 . S
C342 O343 1.258 . S
C342 O344 1.263 . S
O343 Co340 1.970 . S
O343 C342 1.258 . S
O344 Co341 1.966 . S
O344 C342 1.263 . S
C345 O346 1.235 . S
C345 O372 1.289 . S
O346 C345 1.235 . S
C347 C349 1.400 . S
C347 N350 1.351 . S
C347 C352 1.501 . S
C348 C349 1.387 . S
C348 N351 1.341 . S
C349 C347 1.400 . S
C349 C348 1.387 . S
N350 Co341 2.022 . S
N350 C347 1.351 . S
N350 N351 1.365 . S
N351 C348 1.341 . S
N351 N350 1.365 . S
N351 H371 0.862 . S
C352 C347 1.501 . S
C352 H353 0.961 . S
C352 H354 0.961 . S
C352 H355 0.960 . S
H353 C352 0.961 . S
H354 C352 0.961 . S
H355 C352 0.960 . S
C356 N357 1.342 . S
C356 C360 1.401 . S
C356 C361 1.499 . S
N357 Co340 1.989 . S
N357 C356 1.342 . S
N357 N358 1.388 . S
N358 Co341 1.993 . S
N358 N357 1.388 . S
N358 C359 1.346 . S
C359 N358 1.346 . S
C359 C360 1.396 . S
C359 C369 1.510 . S
C360 C356 1.401 . S
C360 C359 1.396 . S
C361 C356 1.499 . S
C361 H362 0.959 . S
C361 H363 0.960 . S
C361 H364 0.961 . S
H362 C361 0.959 . S
H363 C361 0.960 . S
H364 C361 0.961 . S
O365 Co340 1.967 . S
O365 C373 1.258 . S
O366 Co341 1.941 . S
O366 C373 1.266 . S
H367 C369 0.959 . S
H368 C369 0.961 . S
C369 C359 1.510 . S
C369 H367 0.959 . S
C369 H368 0.961 . S
C369 H370 0.960 . S
H370 C369 0.960 . S
H371 N351 0.862 . S
O372 Co340 1.920 . S
O372 C345 1.289 . S
C373 O365 1.258 . S
C373 O366 1.266 . S
Co374 O377 1.970 . S
Co374 N391 1.989 . S
Co374 O399 1.967 . S
Co374 O406 1.920 . S
Co375 O378 1.966 . S
Co375 N384 2.022 . S
Co375 N392 1.993 . S
Co375 O400 1.941 . S
C376 O377 1.258 . S
C376 O378 1.263 . S
O377 Co374 1.970 . S
O377 C376 1.258 . S
O378 Co375 1.966 . S
O378 C376 1.263 . S
C379 O380 1.235 . S
C379 O406 1.289 . S
O380 C379 1.235 . S
C381 C383 1.400 . S
C381 N384 1.351 . S
C381 C386 1.501 . S
C382 C383 1.387 . S
C382 N385 1.341 . S
C383 C381 1.400 . S
C383 C382 1.387 . S
N384 Co375 2.022 . S
N384 C381 1.351 . S
N384 N385 1.365 . S
N385 C382 1.341 . S
N385 N384 1.365 . S
N385 H405 0.862 . S
C386 C381 1.501 . S
C386 H387 0.961 . S
C386 H388 0.961 . S
C386 H389 0.960 . S
H387 C386 0.961 . S
H388 C386 0.961 . S
H389 C386 0.960 . S
C390 N391 1.342 . S
C390 C394 1.401 . S
C390 C395 1.499 . S
N391 Co374 1.989 . S
N391 C390 1.342 . S
N391 N392 1.388 . S
N392 Co375 1.993 . S
N392 N391 1.388 . S
N392 C393 1.346 . S
C393 N392 1.346 . S
C393 C394 1.396 . S
C393 C403 1.510 . S
C394 C390 1.401 . S
C394 C393 1.396 . S
C395 C390 1.499 . S
C395 H396 0.959 . S
C395 H397 0.960 . S
C395 H398 0.961 . S
H396 C395 0.959 . S
H397 C395 0.960 . S
H398 C395 0.961 . S
O399 Co374 1.967 . S
O399 C407 1.258 . S
O400 Co375 1.941 . S
O400 C407 1.266 . S
H401 C403 0.959 . S
H402 C403 0.961 . S
C403 C393 1.510 . S
C403 H401 0.959 . S
C403 H402 0.961 . S
C403 H404 0.960 . S
H404 C403 0.960 . S
H405 N385 0.862 . S
O406 Co374 1.920 . S
O406 C379 1.289 . S
C407 O399 1.258 . S
C407 O400 1.266 . S
Co408 O411 1.970 . S
Co408 N425 1.989 . S
Co408 O433 1.967 . S
Co408 O440 1.920 . S
Co409 O412 1.966 . S
Co409 N418 2.022 . S
Co409 N426 1.993 . S
Co409 O434 1.941 . S
C410 O411 1.258 . S
C410 O412 1.263 1_554 S
O411 Co408 1.970 . S
O411 C410 1.258 . S
O412 Co409 1.966 . S
O412 C410 1.263 1_556 S
C413 O414 1.235 . S
C413 O440 1.289 . S
O414 C413 1.235 . S
C415 C417 1.400 . S
C415 N418 1.351 . S
C415 C420 1.501 . S
C416 C417 1.387 . S
C416 N419 1.341 . S
C417 C415 1.400 . S
C417 C416 1.387 . S
N418 Co409 2.022 . S
N418 C415 1.351 . S
N418 N419 1.365 . S
N419 C416 1.341 . S
N419 N418 1.365 . S
N419 H439 0.862 . S
C420 C415 1.501 . S
C420 H421 0.961 . S
C420 H422 0.961 . S
C420 H423 0.960 . S
H421 C420 0.961 . S
H422 C420 0.961 . S
H423 C420 0.960 . S
C424 N425 1.342 . S
C424 C428 1.401 1_554 S
C424 C429 1.499 . S
N425 Co408 1.989 . S
N425 C424 1.342 . S
N425 N426 1.388 1_554 S
N426 Co409 1.993 . S
N426 N425 1.388 1_556 S
N426 C427 1.346 . S
C427 N426 1.346 . S
C427 C428 1.396 . S
C427 C437 1.510 . S
C428 C424 1.401 1_556 S
C428 C427 1.396 . S
C429 C424 1.499 . S
C429 H430 0.959 . S
C429 H431 0.960 . S
C429 H432 0.961 . S
H430 C429 0.959 . S
H431 C429 0.960 . S
H432 C429 0.961 . S
O433 Co408 1.967 . S
O433 C441 1.258 . S
O434 Co409 1.941 . S
O434 C441 1.266 1_556 S
H435 C437 0.959 . S
H436 C437 0.961 . S
C437 C427 1.510 . S
C437 H435 0.959 . S
C437 H436 0.961 . S
C437 H438 0.960 . S
H438 C437 0.960 . S
H439 N419 0.862 . S
O440 Co408 1.920 . S
O440 C413 1.289 . S
C441 O433 1.258 . S
C441 O434 1.266 1_554 S
Co442 O445 1.970 . S
Co442 N459 1.989 . S
Co442 O467 1.967 . S
Co442 O474 1.920 . S
Co443 O446 1.966 . S
Co443 N452 2.022 . S
Co443 N460 1.993 . S
Co443 O468 1.941 . S
C444 O445 1.258 . S
C444 O446 1.263 . S
O445 Co442 1.970 . S
O445 C444 1.258 . S
O446 Co443 1.966 . S
O446 C444 1.263 . S
C447 O448 1.235 . S
C447 O474 1.289 . S
O448 C447 1.235 . S
C449 C451 1.400 . S
C449 N452 1.351 . S
C449 C454 1.501 . S
C450 C451 1.387 . S
C450 N453 1.341 . S
C451 C449 1.400 . S
C451 C450 1.387 . S
N452 Co443 2.022 . S
N452 C449 1.351 . S
N452 N453 1.365 . S
N453 C450 1.341 . S
N453 N452 1.365 . S
N453 H473 0.862 . S
C454 C449 1.501 . S
C454 H455 0.961 . S
C454 H456 0.961 . S
C454 H457 0.960 . S
H455 C454 0.961 . S
H456 C454 0.961 . S
H457 C454 0.960 . S
C458 N459 1.342 . S
C458 C462 1.401 . S
C458 C463 1.499 . S
N459 Co442 1.989 . S
N459 C458 1.342 . S
N459 N460 1.388 . S
N460 Co443 1.993 . S
N460 N459 1.388 . S
N460 C461 1.346 . S
C461 N460 1.346 . S
C461 C462 1.396 . S
C461 C471 1.510 . S
C462 C458 1.401 . S
C462 C461 1.396 . S
C463 C458 1.499 . S
C463 H464 0.959 . S
C463 H465 0.960 . S
C463 H466 0.961 . S
H464 C463 0.959 . S
H465 C463 0.960 . S
H466 C463 0.961 . S
O467 Co442 1.967 . S
O467 C475 1.258 . S
O468 Co443 1.941 . S
O468 C475 1.266 . S
H469 C471 0.959 . S
H470 C471 0.961 . S
C471 C461 1.510 . S
C471 H469 0.959 . S
C471 H470 0.961 . S
C471 H472 0.960 . S
H472 C471 0.960 . S
H473 N453 0.862 . S
O474 Co442 1.920 . S
O474 C447 1.289 . S
C475 O467 1.258 . S
C475 O468 1.266 . S
Co476 O479 1.970 . S
Co476 N493 1.989 . S
Co476 O501 1.967 . S
Co476 O508 1.920 . S
Co477 O480 1.966 . S
Co477 N486 2.022 . S
Co477 N494 1.993 . S
Co477 O502 1.941 . S
C478 O479 1.258 . S
C478 O480 1.263 . S
O479 Co476 1.970 . S
O479 C478 1.258 . S
O480 Co477 1.966 . S
O480 C478 1.263 . S
C481 O482 1.235 . S
C481 O508 1.289 . S
O482 C481 1.235 . S
C483 C485 1.400 . S
C483 N486 1.351 . S
C483 C488 1.501 . S
C484 C485 1.387 . S
C484 N487 1.341 . S
C485 C483 1.400 . S
C485 C484 1.387 . S
N486 Co477 2.022 . S
N486 C483 1.351 . S
N486 N487 1.365 . S
N487 C484 1.341 . S
N487 N486 1.365 . S
N487 H507 0.862 . S
C488 C483 1.501 . S
C488 H489 0.961 . S
C488 H490 0.961 . S
C488 H491 0.960 . S
H489 C488 0.961 . S
H490 C488 0.961 . S
H491 C488 0.960 . S
C492 N493 1.342 . S
C492 C496 1.401 . S
C492 C497 1.499 . S
N493 Co476 1.989 . S
N493 C492 1.342 . S
N493 N494 1.388 . S
N494 Co477 1.993 . S
N494 N493 1.388 . S
N494 C495 1.346 . S
C495 N494 1.346 . S
C495 C496 1.396 . S
C495 C505 1.510 . S
C496 C492 1.401 . S
C496 C495 1.396 . S
C497 C492 1.499 . S
C497 H498 0.959 . S
C497 H499 0.960 . S
C497 H500 0.961 . S
H498 C497 0.959 . S
H499 C497 0.960 . S
H500 C497 0.961 . S
O501 Co476 1.967 . S
O501 C509 1.258 . S
O502 Co477 1.941 . S
O502 C509 1.266 . S
H503 C505 0.959 . S
H504 C505 0.961 . S
C505 C495 1.510 . S
C505 H503 0.959 . S
C505 H504 0.961 . S
C505 H506 0.960 . S
H506 C505 0.960 . S
H507 N487 0.862 . S
O508 Co476 1.920 . S
O508 C481 1.289 . S
C509 O501 1.258 . S
C509 O502 1.266 . S
Co510 O513 1.970 . S
Co510 N527 1.989 . S
Co510 O535 1.967 . S
Co510 O542 1.920 . S
Co511 O514 1.966 . S
Co511 N520 2.022 . S
Co511 N528 1.993 . S
Co511 O536 1.941 . S
C512 O513 1.258 . S
C512 O514 1.263 . S
O513 Co510 1.970 . S
O513 C512 1.258 . S
O514 Co511 1.966 . S
O514 C512 1.263 . S
C515 O516 1.235 . S
C515 O542 1.289 . S
O516 C515 1.235 . S
C517 C519 1.400 1_554 S
C517 N520 1.351 . S
C517 C522 1.501 . S
C518 C519 1.387 . S
C518 N521 1.341 1_556 S
C519 C517 1.400 1_556 S
C519 C518 1.387 . S
N520 Co511 2.022 . S
N520 C517 1.351 . S
N520 N521 1.365 . S
N521 C518 1.341 1_554 S
N521 N520 1.365 . S
N521 H541 0.862 . S
C522 C517 1.501 . S
C522 H523 0.961 . S
C522 H524 0.961 . S
C522 H525 0.960 . S
H523 C522 0.961 . S
H524 C522 0.961 . S
H525 C522 0.960 . S
C526 N527 1.342 . S
C526 C530 1.401 . S
C526 C531 1.499 . S
N527 Co510 1.989 . S
N527 C526 1.342 . S
N527 N528 1.388 . S
N528 Co511 1.993 . S
N528 N527 1.388 . S
N528 C529 1.346 . S
C529 N528 1.346 . S
C529 C530 1.396 . S
C529 C539 1.510 . S
C530 C526 1.401 . S
C530 C529 1.396 . S
C531 C526 1.499 . S
C531 H532 0.959 . S
C531 H533 0.960 . S
C531 H534 0.961 . S
H532 C531 0.959 . S
H533 C531 0.960 . S
H534 C531 0.961 . S
O535 Co510 1.967 . S
O535 C543 1.258 . S
O536 Co511 1.941 . S
O536 C543 1.266 . S
H537 C539 0.959 . S
H538 C539 0.961 . S
C539 C529 1.510 . S
C539 H537 0.959 . S
C539 H538 0.961 . S
C539 H540 0.960 . S
H540 C539 0.960 . S
H541 N521 0.862 . S
O542 Co510 1.920 . S
O542 C515 1.289 . S
C543 O535 1.258 . S
C543 O536 1.266 . S
Co544 O547 1.970 . S
Co544 N561 1.989 . S
Co544 O569 1.967 . S
Co544 O576 1.920 . S
Co545 O548 1.966 . S
Co545 N554 2.022 . S
Co545 N562 1.993 . S
Co545 O570 1.941 . S
C546 O547 1.258 . S
C546 O548 1.263 . S
O547 Co544 1.970 . S
O547 C546 1.258 . S
O548 Co545 1.966 . S
O548 C546 1.263 . S
C549 O550 1.235 . S
C549 O576 1.289 . S
O550 C549 1.235 . S
C551 C553 1.400 . S
C551 N554 1.351 . S
C551 C556 1.501 . S
C552 C553 1.387 . S
C552 N555 1.341 . S
C553 C551 1.400 . S
C553 C552 1.387 . S
N554 Co545 2.022 . S
N554 C551 1.351 . S
N554 N555 1.365 . S
N555 C552 1.341 . S
N555 N554 1.365 . S
N555 H575 0.862 . S
C556 C551 1.501 . S
C556 H557 0.961 . S
C556 H558 0.961 . S
C556 H559 0.960 . S
H557 C556 0.961 . S
H558 C556 0.961 . S
H559 C556 0.960 . S
C560 N561 1.342 . S
C560 C564 1.401 . S
C560 C565 1.499 . S
N561 Co544 1.989 . S
N561 C560 1.342 . S
N561 N562 1.388 . S
N562 Co545 1.993 . S
N562 N561 1.388 . S
N562 C563 1.346 . S
C563 N562 1.346 . S
C563 C564 1.396 . S
C563 C573 1.510 . S
C564 C560 1.401 . S
C564 C563 1.396 . S
C565 C560 1.499 . S
C565 H566 0.959 . S
C565 H567 0.960 . S
C565 H568 0.961 . S
H566 C565 0.959 . S
H567 C565 0.960 . S
H568 C565 0.961 . S
O569 Co544 1.967 . S
O569 C577 1.258 . S
O570 Co545 1.941 . S
O570 C577 1.266 . S
H571 C573 0.959 . S
H572 C573 0.961 . S
C573 C563 1.510 . S
C573 H571 0.959 . S
C573 H572 0.961 . S
C573 H574 0.960 . S
H574 C573 0.960 . S
H575 N555 0.862 . S
O576 Co544 1.920 . S
O576 C549 1.289 . S
C577 O569 1.258 . S
C577 O570 1.266 . S
Co578 O581 1.970 . S
Co578 N595 1.989 . S
Co578 O603 1.967 . S
Co578 O610 1.920 . S
Co579 O582 1.966 . S
Co579 N588 2.022 . S
Co579 N596 1.993 . S
Co579 O604 1.941 . S
C580 O581 1.258 . S
C580 O582 1.263 . S
O581 Co578 1.970 . S
O581 C580 1.258 . S
O582 Co579 1.966 . S
O582 C580 1.263 . S
C583 O584 1.235 . S
C583 O610 1.289 . S
O584 C583 1.235 . S
C585 C587 1.400 . S
C585 N588 1.351 . S
C585 C590 1.501 . S
C586 C587 1.387 . S
C586 N589 1.341 . S
C587 C585 1.400 . S
C587 C586 1.387 . S
N588 Co579 2.022 . S
N588 C585 1.351 . S
N588 N589 1.365 . S
N589 C586 1.341 . S
N589 N588 1.365 . S
N589 H609 0.862 . S
C590 C585 1.501 . S
C590 H591 0.961 . S
C590 H592 0.961 . S
C590 H593 0.960 . S
H591 C590 0.961 . S
H592 C590 0.961 . S
H593 C590 0.960 . S
C594 N595 1.342 . S
C594 C598 1.401 . S
C594 C599 1.499 . S
N595 Co578 1.989 . S
N595 C594 1.342 . S
N595 N596 1.388 . S
N596 Co579 1.993 . S
N596 N595 1.388 . S
N596 C597 1.346 . S
C597 N596 1.346 . S
C597 C598 1.396 . S
C597 C607 1.510 . S
C598 C594 1.401 . S
C598 C597 1.396 . S
C599 C594 1.499 . S
C599 H600 0.959 . S
C599 H601 0.960 . S
C599 H602 0.961 . S
H600 C599 0.959 . S
H601 C599 0.960 . S
H602 C599 0.961 . S
O603 Co578 1.967 . S
O603 C611 1.258 . S
O604 Co579 1.941 . S
O604 C611 1.266 . S
H605 C607 0.959 . S
H606 C607 0.961 . S
C607 C597 1.510 . S
C607 H605 0.959 . S
C607 H606 0.961 . S
C607 H608 0.960 . S
H608 C607 0.960 . S
H609 N589 0.862 . S
O610 Co578 1.920 . S
O610 C583 1.289 . S
C611 O603 1.258 . S
C611 O604 1.266 . S
Co612 O615 1.970 . S
Co612 N629 1.989 . S
Co612 O637 1.967 . S
Co612 O644 1.920 . S
Co613 O616 1.966 . S
Co613 N622 2.022 . S
Co613 N630 1.993 . S
Co613 O638 1.941 . S
C614 O615 1.258 . S
C614 O616 1.263 1_554 S
O615 Co612 1.970 . S
O615 C614 1.258 . S
O616 Co613 1.966 . S
O616 C614 1.263 1_556 S
C617 O618 1.235 . S
C617 O644 1.289 . S
O618 C617 1.235 . S
C619 C621 1.400 . S
C619 N622 1.351 . S
C619 C624 1.501 . S
C620 C621 1.387 . S
C620 N623 1.341 . S
C621 C619 1.400 . S
C621 C620 1.387 . S
N622 Co613 2.022 . S
N622 C619 1.351 . S
N622 N623 1.365 . S
N623 C620 1.341 . S
N623 N622 1.365 . S
N623 H643 0.862 . S
C624 C619 1.501 . S
C624 H625 0.961 . S
C624 H626 0.961 . S
C624 H627 0.960 . S
H625 C624 0.961 . S
H626 C624 0.961 . S
H627 C624 0.960 . S
C628 N629 1.342 . S
C628 C632 1.401 1_554 S
C628 C633 1.499 . S
N629 Co612 1.989 . S
N629 C628 1.342 . S
N629 N630 1.388 1_554 S
N630 Co613 1.993 . S
N630 N629 1.388 1_556 S
N630 C631 1.346 . S
C631 N630 1.346 . S
C631 C632 1.396 . S
C631 C641 1.510 . S
C632 C628 1.401 1_556 S
C632 C631 1.396 . S
C633 C628 1.499 . S
C633 H634 0.959 . S
C633 H635 0.960 . S
C633 H636 0.961 . S
H634 C633 0.959 . S
H635 C633 0.960 . S
H636 C633 0.961 . S
O637 Co612 1.967 . S
O637 C645 1.258 . S
O638 Co613 1.941 . S
O638 C645 1.266 1_556 S
H639 C641 0.959 . S
H640 C641 0.961 . S
C641 C631 1.510 . S
C641 H639 0.959 . S
C641 H640 0.961 . S
C641 H642 0.960 . S
H642 C641 0.960 . S
H643 N623 0.862 . S
O644 Co612 1.920 . S
O644 C617 1.289 . S
C645 O637 1.258 . S
C645 O638 1.266 1_554 S
Co646 O649 1.970 . S
Co646 N663 1.989 . S
Co646 O671 1.967 . S
Co646 O678 1.920 . S
Co647 O650 1.966 . S
Co647 N656 2.022 . S
Co647 N664 1.993 . S
Co647 O672 1.941 . S
C648 O649 1.258 . S
C648 O650 1.263 . S
O649 Co646 1.970 . S
O649 C648 1.258 . S
O650 Co647 1.966 . S
O650 C648 1.263 . S
C651 O652 1.235 . S
C651 O678 1.289 . S
O652 C651 1.235 . S
C653 C655 1.400 1_554 S
C653 N656 1.351 . S
C653 C658 1.501 . S
C654 C655 1.387 . S
C654 N657 1.341 1_556 S
C655 C653 1.400 1_556 S
C655 C654 1.387 . S
N656 Co647 2.022 . S
N656 C653 1.351 . S
N656 N657 1.365 . S
N657 C654 1.341 1_554 S
N657 N656 1.365 . S
N657 H677 0.862 . S
C658 C653 1.501 . S
C658 H659 0.961 . S
C658 H660 0.961 . S
C658 H661 0.960 . S
H659 C658 0.961 . S
H660 C658 0.961 . S
H661 C658 0.960 . S
C662 N663 1.342 . S
C662 C666 1.401 . S
C662 C667 1.499 . S
N663 Co646 1.989 . S
N663 C662 1.342 . S
N663 N664 1.388 . S
N664 Co647 1.993 . S
N664 N663 1.388 . S
N664 C665 1.346 . S
C665 N664 1.346 . S
C665 C666 1.396 . S
C665 C675 1.510 . S
C666 C662 1.401 . S
C666 C665 1.396 . S
C667 C662 1.499 . S
C667 H668 0.959 . S
C667 H669 0.960 . S
C667 H670 0.961 . S
H668 C667 0.959 . S
H669 C667 0.960 . S
H670 C667 0.961 . S
O671 Co646 1.967 . S
O671 C679 1.258 . S
O672 Co647 1.941 . S
O672 C679 1.266 . S
H673 C675 0.959 . S
H674 C675 0.961 . S
C675 C665 1.510 . S
C675 H673 0.959 . S
C675 H674 0.961 . S
C675 H676 0.960 . S
H676 C675 0.960 . S
H677 N657 0.862 . S
O678 Co646 1.920 . S
O678 C651 1.289 . S
C679 O671 1.258 . S
C679 O672 1.266 . S
Co680 O683 1.970 . S
Co680 N697 1.989 . S
Co680 O705 1.967 . S
Co680 O712 1.920 . S
Co681 O684 1.966 . S
Co681 N690 2.022 . S
Co681 N698 1.993 . S
Co681 O706 1.941 . S
C682 O683 1.258 . S
C682 O684 1.263 . S
O683 Co680 1.970 . S
O683 C682 1.258 . S
O684 Co681 1.966 . S
O684 C682 1.263 . S
C685 O686 1.235 . S
C685 O712 1.289 . S
O686 C685 1.235 . S
C687 C689 1.400 . S
C687 N690 1.351 . S
C687 C692 1.501 . S
C688 C689 1.387 . S
C688 N691 1.341 . S
C689 C687 1.400 . S
C689 C688 1.387 . S
N690 Co681 2.022 . S
N690 C687 1.351 . S
N690 N691 1.365 . S
N691 C688 1.341 . S
N691 N690 1.365 . S
N691 H711 0.862 . S
C692 C687 1.501 . S
C692 H693 0.961 . S
C692 H694 0.961 . S
C692 H695 0.960 . S
H693 C692 0.961 . S
H694 C692 0.961 . S
H695 C692 0.960 . S
C696 N697 1.342 . S
C696 C700 1.401 . S
C696 C701 1.499 . S
N697 Co680 1.989 . S
N697 C696 1.342 . S
N697 N698 1.388 . S
N698 Co681 1.993 . S
N698 N697 1.388 . S
N698 C699 1.346 . S
C699 N698 1.346 . S
C699 C700 1.396 . S
C699 C709 1.510 . S
C700 C696 1.401 . S
C700 C699 1.396 . S
C701 C696 1.499 . S
C701 H702 0.959 . S
C701 H703 0.960 . S
C701 H704 0.961 . S
H702 C701 0.959 . S
H703 C701 0.960 . S
H704 C701 0.961 . S
O705 Co680 1.967 . S
O705 C713 1.258 . S
O706 Co681 1.941 . S
O706 C713 1.266 . S
H707 C709 0.959 . S
H708 C709 0.961 . S
C709 C699 1.510 . S
C709 H707 0.959 . S
C709 H708 0.961 . S
C709 H710 0.960 . S
H710 C709 0.960 . S
H711 N691 0.862 . S
O712 Co680 1.920 . S
O712 C685 1.289 . S
C713 O705 1.258 . S
C713 O706 1.266 . S
Co714 O717 1.970 . S
Co714 N731 1.989 . S
Co714 O739 1.967 . S
Co714 O746 1.920 . S
Co715 O718 1.966 . S
Co715 N724 2.022 . S
Co715 N732 1.993 . S
Co715 O740 1.941 . S
C716 O717 1.258 . S
C716 O718 1.263 . S
O717 Co714 1.970 . S
O717 C716 1.258 . S
O718 Co715 1.966 . S
O718 C716 1.263 . S
C719 O720 1.235 . S
C719 O746 1.289 . S
O720 C719 1.235 . S
C721 C723 1.400 1_556 S
C721 N724 1.351 . S
C721 C726 1.501 . S
C722 C723 1.387 . S
C722 N725 1.341 1_554 S
C723 C721 1.400 1_554 S
C723 C722 1.387 . S
N724 Co715 2.022 . S
N724 C721 1.351 . S
N724 N725 1.365 . S
N725 C722 1.341 1_556 S
N725 N724 1.365 . S
N725 H745 0.862 . S
C726 C721 1.501 . S
C726 H727 0.961 . S
C726 H728 0.961 . S
C726 H729 0.960 . S
H727 C726 0.961 . S
H728 C726 0.961 . S
H729 C726 0.960 . S
C730 N731 1.342 . S
C730 C734 1.401 . S
C730 C735 1.499 . S
N731 Co714 1.989 . S
N731 C730 1.342 . S
N731 N732 1.388 . S
N732 Co715 1.993 . S
N732 N731 1.388 . S
N732 C733 1.346 . S
C733 N732 1.346 . S
C733 C734 1.396 . S
C733 C743 1.510 . S
C734 C730 1.401 . S
C734 C733 1.396 . S
C735 C730 1.499 . S
C735 H736 0.959 . S
C735 H737 0.960 . S
C735 H738 0.961 . S
H736 C735 0.959 . S
H737 C735 0.960 . S
H738 C735 0.961 . S
O739 Co714 1.967 . S
O739 C747 1.258 . S
O740 Co715 1.941 . S
O740 C747 1.266 . S
H741 C743 0.959 . S
H742 C743 0.961 . S
C743 C733 1.510 . S
C743 H741 0.959 . S
C743 H742 0.961 . S
C743 H744 0.960 . S
H744 C743 0.960 . S
H745 N725 0.862 . S
O746 Co714 1.920 . S
O746 C719 1.289 . S
C747 O739 1.258 . S
C747 O740 1.266 . S
Co748 O751 1.970 . S
Co748 N765 1.989 . S
Co748 O773 1.967 . S
Co748 O780 1.920 . S
Co749 O752 1.966 . S
Co749 N758 2.022 . S
Co749 N766 1.993 . S
Co749 O774 1.941 . S
C750 O751 1.258 . S
C750 O752 1.263 1_556 S
O751 Co748 1.970 . S
O751 C750 1.258 . S
O752 Co749 1.966 . S
O752 C750 1.263 1_554 S
C753 O754 1.235 . S
C753 O780 1.289 . S
O754 C753 1.235 . S
C755 C757 1.400 . S
C755 N758 1.351 . S
C755 C760 1.501 . S
C756 C757 1.387 . S
C756 N759 1.341 . S
C757 C755 1.400 . S
C757 C756 1.387 . S
N758 Co749 2.022 . S
N758 C755 1.351 . S
N758 N759 1.365 . S
N759 C756 1.341 . S
N759 N758 1.365 . S
N759 H779 0.862 . S
C760 C755 1.501 . S
C760 H761 0.961 . S
C760 H762 0.961 . S
C760 H763 0.960 . S
H761 C760 0.961 . S
H762 C760 0.961 . S
H763 C760 0.960 . S
C764 N765 1.342 . S
C764 C768 1.401 1_556 S
C764 C769 1.499 . S
N765 Co748 1.989 . S
N765 C764 1.342 . S
N765 N766 1.388 1_556 S
N766 Co749 1.993 . S
N766 N765 1.388 1_554 S
N766 C767 1.346 . S
C767 N766 1.346 . S
C767 C768 1.396 . S
C767 C777 1.510 . S
C768 C764 1.401 1_554 S
C768 C767 1.396 . S
C769 C764 1.499 . S
C769 H770 0.959 . S
C769 H771 0.960 . S
C769 H772 0.961 . S
H770 C769 0.959 . S
H771 C769 0.960 . S
H772 C769 0.961 . S
O773 Co748 1.967 . S
O773 C781 1.258 . S
O774 Co749 1.941 . S
O774 C781 1.266 1_554 S
H775 C777 0.959 . S
H776 C777 0.961 . S
C777 C767 1.510 . S
C777 H775 0.959 . S
C777 H776 0.961 . S
C777 H778 0.960 . S
H778 C777 0.960 . S
H779 N759 0.862 . S
O780 Co748 1.920 . S
O780 C753 1.289 . S
C781 O773 1.258 . S
C781 O774 1.266 1_556 S
Co782 O785 1.970 . S
Co782 N799 1.989 . S
Co782 O807 1.967 . S
Co782 O814 1.920 . S
Co783 O786 1.966 . S
Co783 N792 2.022 . S
Co783 N800 1.993 . S
Co783 O808 1.941 . S
C784 O785 1.258 . S
C784 O786 1.263 . S
O785 Co782 1.970 . S
O785 C784 1.258 . S
O786 Co783 1.966 . S
O786 C784 1.263 . S
C787 O788 1.235 . S
C787 O814 1.289 . S
O788 C787 1.235 . S
C789 C791 1.400 . S
C789 N792 1.351 . S
C789 C794 1.501 . S
C790 C791 1.387 . S
C790 N793 1.341 . S
C791 C789 1.400 . S
C791 C790 1.387 . S
N792 Co783 2.022 . S
N792 C789 1.351 . S
N792 N793 1.365 . S
N793 C790 1.341 . S
N793 N792 1.365 . S
N793 H813 0.862 . S
C794 C789 1.501 . S
C794 H795 0.961 . S
C794 H796 0.961 . S
C794 H797 0.960 . S
H795 C794 0.961 . S
H796 C794 0.961 . S
H797 C794 0.960 . S
C798 N799 1.342 . S
C798 C802 1.401 . S
C798 C803 1.499 . S
N799 Co782 1.989 . S
N799 C798 1.342 . S
N799 N800 1.388 . S
N800 Co783 1.993 . S
N800 N799 1.388 . S
N800 C801 1.346 . S
C801 N800 1.346 . S
C801 C802 1.396 . S
C801 C811 1.510 . S
C802 C798 1.401 . S
C802 C801 1.396 . S
C803 C798 1.499 . S
C803 H804 0.959 . S
C803 H805 0.960 . S
C803 H806 0.961 . S
H804 C803 0.959 . S
H805 C803 0.960 . S
H806 C803 0.961 . S
O807 Co782 1.967 . S
O807 C815 1.258 . S
O808 Co783 1.941 . S
O808 C815 1.266 . S
H809 C811 0.959 . S
H810 C811 0.961 . S
C811 C801 1.510 . S
C811 H809 0.959 . S
C811 H810 0.961 . S
C811 H812 0.960 . S
H812 C811 0.960 . S
H813 N793 0.862 . S
O814 Co782 1.920 . S
O814 C787 1.289 . S
C815 O807 1.258 . S
C815 O808 1.266 . S
Co816 O819 1.970 . S
Co816 N833 1.989 . S
Co816 O841 1.967 . S
Co816 O848 1.920 . S
Co817 O820 1.966 . S
Co817 N826 2.022 . S
Co817 N834 1.993 . S
Co817 O842 1.941 . S
C818 O819 1.258 . S
C818 O820 1.263 . S
O819 Co816 1.970 . S
O819 C818 1.258 . S
O820 Co817 1.966 . S
O820 C818 1.263 . S
C821 O822 1.235 . S
C821 O848 1.289 . S
O822 C821 1.235 . S
C823 C825 1.400 . S
C823 N826 1.351 . S
C823 C828 1.501 . S
C824 C825 1.387 . S
C824 N827 1.341 . S
C825 C823 1.400 . S
C825 C824 1.387 . S
N826 Co817 2.022 . S
N826 C823 1.351 . S
N826 N827 1.365 . S
N827 C824 1.341 . S
N827 N826 1.365 . S
N827 H847 0.862 . S
C828 C823 1.501 . S
C828 H829 0.961 . S
C828 H830 0.961 . S
C828 H831 0.960 . S
H829 C828 0.961 . S
H830 C828 0.961 . S
H831 C828 0.960 . S
C832 N833 1.342 . S
C832 C836 1.401 . S
C832 C837 1.499 . S
N833 Co816 1.989 . S
N833 C832 1.342 . S
N833 N834 1.388 . S
N834 Co817 1.993 . S
N834 N833 1.388 . S
N834 C835 1.346 . S
C835 N834 1.346 . S
C835 C836 1.396 . S
C835 C845 1.510 . S
C836 C832 1.401 . S
C836 C835 1.396 . S
C837 C832 1.499 . S
C837 H838 0.959 . S
C837 H839 0.960 . S
C837 H840 0.961 . S
H838 C837 0.959 . S
H839 C837 0.960 . S
H840 C837 0.961 . S
O841 Co816 1.967 . S
O841 C849 1.258 . S
O842 Co817 1.941 . S
O842 C849 1.266 . S
H843 C845 0.959 . S
H844 C845 0.961 . S
C845 C835 1.510 . S
C845 H843 0.959 . S
C845 H844 0.961 . S
C845 H846 0.960 . S
H846 C845 0.960 . S
H847 N827 0.862 . S
O848 Co816 1.920 . S
O848 C821 1.289 . S
C849 O841 1.258 . S
C849 O842 1.266 . S
Co850 O853 1.970 . S
Co850 N867 1.989 . S
Co850 O875 1.967 . S
Co850 O882 1.920 . S
Co851 O854 1.966 . S
Co851 N860 2.022 . S
Co851 N868 1.993 . S
Co851 O876 1.941 . S
C852 O853 1.258 . S
C852 O854 1.263 . S
O853 Co850 1.970 . S
O853 C852 1.258 . S
O854 Co851 1.966 . S
O854 C852 1.263 . S
C855 O856 1.235 . S
C855 O882 1.289 . S
O856 C855 1.235 . S
C857 C859 1.400 . S
C857 N860 1.351 . S
C857 C862 1.501 . S
C858 C859 1.387 . S
C858 N861 1.341 . S
C859 C857 1.400 . S
C859 C858 1.387 . S
N860 Co851 2.022 . S
N860 C857 1.351 . S
N860 N861 1.365 . S
N861 C858 1.341 . S
N861 N860 1.365 . S
N861 H881 0.862 . S
C862 C857 1.501 . S
C862 H863 0.961 . S
C862 H864 0.961 . S
C862 H865 0.960 . S
H863 C862 0.961 . S
H864 C862 0.961 . S
H865 C862 0.960 . S
C866 N867 1.342 . S
C866 C870 1.401 . S
C866 C871 1.499 . S
N867 Co850 1.989 . S
N867 C866 1.342 . S
N867 N868 1.388 . S
N868 Co851 1.993 . S
N868 N867 1.388 . S
N868 C869 1.346 . S
C869 N868 1.346 . S
C869 C870 1.396 . S
C869 C879 1.510 . S
C870 C866 1.401 . S
C870 C869 1.396 . S
C871 C866 1.499 . S
C871 H872 0.959 . S
C871 H873 0.960 . S
C871 H874 0.961 . S
H872 C871 0.959 . S
H873 C871 0.960 . S
H874 C871 0.961 . S
O875 Co850 1.967 . S
O875 C883 1.258 . S
O876 Co851 1.941 . S
O876 C883 1.266 . S
H877 C879 0.959 . S
H878 C879 0.961 . S
C879 C869 1.510 . S
C879 H877 0.959 . S
C879 H878 0.961 . S
C879 H880 0.960 . S
H880 C879 0.960 . S
H881 N861 0.862 . S
O882 Co850 1.920 . S
O882 C855 1.289 . S
C883 O875 1.258 . S
C883 O876 1.266 . S
Co884 O887 1.970 . S
Co884 N901 1.989 . S
Co884 O909 1.967 . S
Co884 O916 1.920 . S
Co885 O888 1.966 . S
Co885 N894 2.022 . S
Co885 N902 1.993 . S
Co885 O910 1.941 . S
C886 O887 1.258 . S
C886 O888 1.263 1_556 S
O887 Co884 1.970 . S
O887 C886 1.258 . S
O888 Co885 1.966 . S
O888 C886 1.263 1_554 S
C889 O890 1.235 . S
C889 O916 1.289 . S
O890 C889 1.235 . S
C891 C893 1.400 . S
C891 N894 1.351 . S
C891 C896 1.501 . S
C892 C893 1.387 . S
C892 N895 1.341 . S
C893 C891 1.400 . S
C893 C892 1.387 . S
N894 Co885 2.022 . S
N894 C891 1.351 . S
N894 N895 1.365 . S
N895 C892 1.341 . S
N895 N894 1.365 . S
N895 H915 0.862 . S
C896 C891 1.501 . S
C896 H897 0.961 . S
C896 H898 0.961 . S
C896 H899 0.960 . S
H897 C896 0.961 . S
H898 C896 0.961 . S
H899 C896 0.960 . S
C900 N901 1.342 . S
C900 C904 1.401 1_556 S
C900 C905 1.499 . S
N901 Co884 1.989 . S
N901 C900 1.342 . S
N901 N902 1.388 1_556 S
N902 Co885 1.993 . S
N902 N901 1.388 1_554 S
N902 C903 1.346 . S
C903 N902 1.346 . S
C903 C904 1.396 . S
C903 C913 1.510 . S
C904 C900 1.401 1_554 S
C904 C903 1.396 . S
C905 C900 1.499 . S
C905 H906 0.959 . S
C905 H907 0.960 . S
C905 H908 0.961 . S
H906 C905 0.959 . S
H907 C905 0.960 . S
H908 C905 0.961 . S
O909 Co884 1.967 . S
O909 C917 1.258 . S
O910 Co885 1.941 . S
O910 C917 1.266 1_554 S
H911 C913 0.959 . S
H912 C913 0.961 . S
C913 C903 1.510 . S
C913 H911 0.959 . S
C913 H912 0.961 . S
C913 H914 0.960 . S
H914 C913 0.960 . S
H915 N895 0.862 . S
O916 Co884 1.920 . S
O916 C889 1.289 . S
C917 O909 1.258 . S
C917 O910 1.266 1_556 S
Co918 O921 1.970 . S
Co918 N935 1.989 . S
Co918 O943 1.967 . S
Co918 O950 1.920 . S
Co919 O922 1.966 . S
Co919 N928 2.022 . S
Co919 N936 1.993 . S
Co919 O944 1.941 . S
C920 O921 1.258 . S
C920 O922 1.263 . S
O921 Co918 1.970 . S
O921 C920 1.258 . S
O922 Co919 1.966 . S
O922 C920 1.263 . S
C923 O924 1.235 . S
C923 O950 1.289 . S
O924 C923 1.235 . S
C925 C927 1.400 1_556 S
C925 N928 1.351 . S
C925 C930 1.501 . S
C926 C927 1.387 . S
C926 N929 1.341 1_554 S
C927 C925 1.400 1_554 S
C927 C926 1.387 . S
N928 Co919 2.022 . S
N928 C925 1.351 . S
N928 N929 1.365 . S
N929 C926 1.341 1_556 S
N929 N928 1.365 . S
N929 H949 0.862 . S
C930 C925 1.501 . S
C930 H931 0.961 . S
C930 H932 0.961 . S
C930 H933 0.960 . S
H931 C930 0.961 . S
H932 C930 0.961 . S
H933 C930 0.960 . S
C934 N935 1.342 . S
C934 C938 1.401 . S
C934 C939 1.499 . S
N935 Co918 1.989 . S
N935 C934 1.342 . S
N935 N936 1.388 . S
N936 Co919 1.993 . S
N936 N935 1.388 . S
N936 C937 1.346 . S
C937 N936 1.346 . S
C937 C938 1.396 . S
C937 C947 1.510 . S
C938 C934 1.401 . S
C938 C937 1.396 . S
C939 C934 1.499 . S
C939 H940 0.959 . S
C939 H941 0.960 . S
C939 H942 0.961 . S
H940 C939 0.959 . S
H941 C939 0.960 . S
H942 C939 0.961 . S
O943 Co918 1.967 . S
O943 C951 1.258 . S
O944 Co919 1.941 . S
O944 C951 1.266 . S
H945 C947 0.959 . S
H946 C947 0.961 . S
C947 C937 1.510 . S
C947 H945 0.959 . S
C947 H946 0.961 . S
C947 H948 0.960 . S
H948 C947 0.960 . S
H949 N929 0.862 . S
O950 Co918 1.920 . S
O950 C923 1.289 . S
C951 O943 1.258 . S
C951 O944 1.266 . S
Co952 O955 1.970 . S
Co952 N969 1.989 . S
Co952 O977 1.967 . S
Co952 O984 1.920 . S
Co953 O956 1.966 . S
Co953 N962 2.022 . S
Co953 N970 1.993 . S
Co953 O978 1.941 . S
C954 O955 1.258 . S
C954 O956 1.263 . S
O955 Co952 1.970 . S
O955 C954 1.258 . S
O956 Co953 1.966 . S
O956 C954 1.263 . S
C957 O958 1.235 . S
C957 O984 1.289 . S
O958 C957 1.235 . S
C959 C961 1.400 . S
C959 N962 1.351 . S
C959 C964 1.501 . S
C960 C961 1.387 . S
C960 N963 1.341 . S
C961 C959 1.400 . S
C961 C960 1.387 . S
N962 Co953 2.022 . S
N962 C959 1.351 . S
N962 N963 1.365 . S
N963 C960 1.341 . S
N963 N962 1.365 . S
N963 H983 0.862 . S
C964 C959 1.501 . S
C964 H965 0.961 . S
C964 H966 0.961 . S
C964 H967 0.960 . S
H965 C964 0.961 . S
H966 C964 0.961 . S
H967 C964 0.960 . S
C968 N969 1.342 . S
C968 C972 1.401 . S
C968 C973 1.499 . S
N969 Co952 1.989 . S
N969 C968 1.342 . S
N969 N970 1.388 . S
N970 Co953 1.993 . S
N970 N969 1.388 . S
N970 C971 1.346 . S
C971 N970 1.346 . S
C971 C972 1.396 . S
C971 C981 1.510 . S
C972 C968 1.401 . S
C972 C971 1.396 . S
C973 C968 1.499 . S
C973 H974 0.959 . S
C973 H975 0.960 . S
C973 H976 0.961 . S
H974 C973 0.959 . S
H975 C973 0.960 . S
H976 C973 0.961 . S
O977 Co952 1.967 . S
O977 C985 1.258 . S
O978 Co953 1.941 . S
O978 C985 1.266 . S
H979 C981 0.959 . S
H980 C981 0.961 . S
C981 C971 1.510 . S
C981 H979 0.959 . S
C981 H980 0.961 . S
C981 H982 0.960 . S
H982 C981 0.960 . S
H983 N963 0.862 . S
O984 Co952 1.920 . S
O984 C957 1.289 . S
C985 O977 1.258 . S
C985 O978 1.266 . S
Co986 O989 1.970 . S
Co986 N1003 1.989 . S
Co986 O1011 1.967 . S
Co986 O1018 1.920 . S
Co987 O990 1.966 . S
Co987 N996 2.022 . S
Co987 N1004 1.993 . S
Co987 O1012 1.941 . S
C988 O989 1.258 . S
C988 O990 1.263 . S
O989 Co986 1.970 . S
O989 C988 1.258 . S
O990 Co987 1.966 . S
O990 C988 1.263 . S
C991 O992 1.235 . S
C991 O1018 1.289 . S
O992 C991 1.235 . S
C993 C995 1.400 1_554 S
C993 N996 1.351 . S
C993 C998 1.501 . S
C994 C995 1.387 . S
C994 N997 1.341 1_556 S
C995 C993 1.400 1_556 S
C995 C994 1.387 . S
N996 Co987 2.022 . S
N996 C993 1.351 . S
N996 N997 1.365 . S
N997 C994 1.341 1_554 S
N997 N996 1.365 . S
N997 H1017 0.862 . S
C998 C993 1.501 . S
C998 H999 0.961 . S
C998 H1000 0.961 . S
C998 H1001 0.960 . S
H999 C998 0.961 . S
H1000 C998 0.961 . S
H1001 C998 0.960 . S
C1002 N1003 1.342 . S
C1002 C1006 1.401 . S
C1002 C1007 1.499 . S
N1003 Co986 1.989 . S
N1003 C1002 1.342 . S
N1003 N1004 1.388 . S
N1004 Co987 1.993 . S
N1004 N1003 1.388 . S
N1004 C1005 1.346 . S
C1005 N1004 1.346 . S
C1005 C1006 1.396 . S
C1005 C1015 1.510 . S
C1006 C1002 1.401 . S
C1006 C1005 1.396 . S
C1007 C1002 1.499 . S
C1007 H1008 0.959 . S
C1007 H1009 0.960 . S
C1007 H1010 0.961 . S
H1008 C1007 0.959 . S
H1009 C1007 0.960 . S
H1010 C1007 0.961 . S
O1011 Co986 1.967 . S
O1011 C1019 1.258 . S
O1012 Co987 1.941 . S
O1012 C1019 1.266 . S
H1013 C1015 0.959 . S
H1014 C1015 0.961 . S
C1015 C1005 1.510 . S
C1015 H1013 0.959 . S
C1015 H1014 0.961 . S
C1015 H1016 0.960 . S
H1016 C1015 0.960 . S
H1017 N997 0.862 . S
O1018 Co986 1.920 . S
O1018 C991 1.289 . S
C1019 O1011 1.258 . S
C1019 O1012 1.266 . S
Co1020 O1023 1.970 . S
Co1020 N1037 1.989 . S
Co1020 O1045 1.967 . S
Co1020 O1052 1.920 . S
Co1021 O1024 1.966 . S
Co1021 N1030 2.022 . S
Co1021 N1038 1.993 . S
Co1021 O1046 1.941 . S
C1022 O1023 1.258 . S
C1022 O1024 1.263 1_554 S
O1023 Co1020 1.970 . S
O1023 C1022 1.258 . S
O1024 Co1021 1.966 . S
O1024 C1022 1.263 1_556 S
C1025 O1026 1.235 . S
C1025 O1052 1.289 . S
O1026 C1025 1.235 . S
C1027 C1029 1.400 . S
C1027 N1030 1.351 . S
C1027 C1032 1.501 . S
C1028 C1029 1.387 . S
C1028 N1031 1.341 . S
C1029 C1027 1.400 . S
C1029 C1028 1.387 . S
N1030 Co1021 2.022 . S
N1030 C1027 1.351 . S
N1030 N1031 1.365 . S
N1031 C1028 1.341 . S
N1031 N1030 1.365 . S
N1031 H1051 0.862 . S
C1032 C1027 1.501 . S
C1032 H1033 0.961 . S
C1032 H1034 0.961 . S
C1032 H1035 0.960 . S
H1033 C1032 0.961 . S
H1034 C1032 0.961 . S
H1035 C1032 0.960 . S
C1036 N1037 1.342 . S
C1036 C1040 1.401 1_554 S
C1036 C1041 1.499 . S
N1037 Co1020 1.989 . S
N1037 C1036 1.342 . S
N1037 N1038 1.388 1_554 S
N1038 Co1021 1.993 . S
N1038 N1037 1.388 1_556 S
N1038 C1039 1.346 . S
C1039 N1038 1.346 . S
C1039 C1040 1.396 . S
C1039 C1049 1.510 . S
C1040 C1036 1.401 1_556 S
C1040 C1039 1.396 . S
C1041 C1036 1.499 . S
C1041 H1042 0.959 . S
C1041 H1043 0.960 . S
C1041 H1044 0.961 . S
H1042 C1041 0.959 . S
H1043 C1041 0.960 . S
H1044 C1041 0.961 . S
O1045 Co1020 1.967 . S
O1045 C1053 1.258 . S
O1046 Co1021 1.941 . S
O1046 C1053 1.266 1_556 S
H1047 C1049 0.959 . S
H1048 C1049 0.961 . S
C1049 C1039 1.510 . S
C1049 H1047 0.959 . S
C1049 H1048 0.961 . S
C1049 H1050 0.960 . S
H1050 C1049 0.960 . S
H1051 N1031 0.862 . S
O1052 Co1020 1.920 . S
O1052 C1025 1.289 . S
C1053 O1045 1.258 . S
C1053 O1046 1.266 1_554 S
Co1054 O1057 1.970 . S
Co1054 N1071 1.989 . S
Co1054 O1079 1.967 . S
Co1054 O1086 1.920 . S
Co1055 O1058 1.966 . S
Co1055 N1064 2.022 . S
Co1055 N1072 1.993 . S
Co1055 O1080 1.941 . S
C1056 O1057 1.258 . S
C1056 O1058 1.263 . S
O1057 Co1054 1.970 . S
O1057 C1056 1.258 . S
O1058 Co1055 1.966 . S
O1058 C1056 1.263 . S
C1059 O1060 1.235 . S
C1059 O1086 1.289 . S
O1060 C1059 1.235 . S
C1061 C1063 1.400 . S
C1061 N1064 1.351 . S
C1061 C1066 1.501 . S
C1062 C1063 1.387 . S
C1062 N1065 1.341 . S
C1063 C1061 1.400 . S
C1063 C1062 1.387 . S
N1064 Co1055 2.022 . S
N1064 C1061 1.351 . S
N1064 N1065 1.365 . S
N1065 C1062 1.341 . S
N1065 N1064 1.365 . S
N1065 H1085 0.862 . S
C1066 C1061 1.501 . S
C1066 H1067 0.961 . S
C1066 H1068 0.961 . S
C1066 H1069 0.960 . S
H1067 C1066 0.961 . S
H1068 C1066 0.961 . S
H1069 C1066 0.960 . S
C1070 N1071 1.342 . S
C1070 C1074 1.401 . S
C1070 C1075 1.499 . S
N1071 Co1054 1.989 . S
N1071 C1070 1.342 . S
N1071 N1072 1.388 . S
N1072 Co1055 1.993 . S
N1072 N1071 1.388 . S
N1072 C1073 1.346 . S
C1073 N1072 1.346 . S
C1073 C1074 1.396 . S
C1073 C1083 1.510 . S
C1074 C1070 1.401 . S
C1074 C1073 1.396 . S
C1075 C1070 1.499 . S
C1075 H1076 0.959 . S
C1075 H1077 0.960 . S
C1075 H1078 0.961 . S
H1076 C1075 0.959 . S
H1077 C1075 0.960 . S
H1078 C1075 0.961 . S
O1079 Co1054 1.967 . S
O1079 C1087 1.258 . S
O1080 Co1055 1.941 . S
O1080 C1087 1.266 . S
H1081 C1083 0.959 . S
H1082 C1083 0.961 . S
C1083 C1073 1.510 . S
C1083 H1081 0.959 . S
C1083 H1082 0.961 . S
C1083 H1084 0.960 . S
H1084 C1083 0.960 . S
H1085 N1065 0.862 . S
O1086 Co1054 1.920 . S
O1086 C1059 1.289 . S
C1087 O1079 1.258 . S
C1087 O1080 1.266 . S
H1088 C1096 0.950 . S
H1089 C1101 0.950 1_556 S
H1090 C1098 0.950 . S
H1091 C1100 0.950 1_556 S
H1092 C1102 0.952 . S
H1093 C1104 0.948 1_556 S
H1094 C1106 0.950 . S
H1095 C1107 0.950 . S
C1096 H1088 0.950 . S
C1096 C1097 1.386 . S
C1096 C1098 1.391 . S
C1097 C1096 1.386 . S
C1097 C1101 1.393 . S
C1098 H1090 0.950 . S
C1098 C1096 1.391 . S
C1098 C1099 1.400 . S
C1099 C1098 1.400 . S
C1099 C1100 1.398 . S
C1099 C1105 1.491 . S
C1100 H1091 0.950 1_554 S
C1100 C1099 1.398 . S
C1100 C1101 1.391 . S
C1101 H1089 0.950 1_554 S
C1101 C1097 1.393 . S
C1101 C1100 1.391 . S
C1102 H1092 0.952 . S
C1102 C1103 1.383 1_556 S
C1102 C1104 1.391 1_556 S
C1103 C1102 1.383 1_554 S
C1103 C1107 1.393 . S
C1104 H1093 0.948 1_554 S
C1104 C1102 1.391 1_554 S
C1104 C1105 1.402 . S
C1105 C1099 1.491 . S
C1105 C1104 1.402 . S
C1105 C1106 1.398 . S
C1106 H1094 0.950 . S
C1106 C1105 1.398 . S
C1106 C1107 1.391 . S
C1107 H1095 0.950 . S
C1107 C1103 1.393 . S
C1107 C1106 1.391 . S
H1108 C1116 0.950 . S
H1109 C1121 0.950 . S
H1110 C1118 0.950 . S
H1111 C1120 0.950 . S
H1112 C1122 0.950 . S
H1113 C1124 0.950 . S
H1114 C1126 0.950 . S
H1115 C1127 0.950 . S
C1116 H1108 0.950 . S
C1116 C1117 1.386 . S
C1116 C1118 1.391 . S
C1117 C1116 1.386 . S
C1117 C1121 1.393 . S
C1118 H1110 0.950 . S
C1118 C1116 1.391 . S
C1118 C1119 1.400 . S
C1119 C1118 1.400 . S
C1119 C1120 1.398 . S
C1119 C1125 1.491 1_455 S
C1120 H1111 0.950 . S
C1120 C1119 1.398 . S
C1120 C1121 1.391 . S
C1121 H1109 0.950 . S
C1121 C1117 1.393 . S
C1121 C1120 1.391 . S
C1122 H1112 0.950 . S
C1122 C1123 1.386 . S
C1122 C1124 1.391 . S
C1123 C1122 1.386 . S
C1123 C1127 1.393 . S
C1124 H1113 0.950 . S
C1124 C1122 1.391 . S
C1124 C1125 1.400 . S
C1125 C1119 1.491 1_655 S
C1125 C1124 1.400 . S
C1125 C1126 1.398 . S
C1126 H1114 0.950 . S
C1126 C1125 1.398 . S
C1126 C1127 1.391 . S
C1127 H1115 0.950 . S
C1127 C1123 1.393 . S
C1127 C1126 1.391 . S
H1128 C1136 0.950 . S
H1129 C1141 0.950 . S
H1130 C1138 0.950 . S
H1131 C1140 0.950 . S
H1132 C1142 0.950 . S
H1133 C1144 0.950 . S
H1134 C1146 0.950 . S
H1135 C1147 0.950 . S
C1136 H1128 0.950 . S
C1136 C1137 1.386 . S
C1136 C1138 1.391 . S
C1137 C1136 1.386 . S
C1137 C1141 1.393 . S
C1138 H1130 0.950 . S
C1138 C1136 1.391 . S
C1138 C1139 1.400 . S
C1139 C1138 1.400 . S
C1139 C1140 1.398 . S
C1139 C1145 1.491 . S
C1140 H1131 0.950 . S
C1140 C1139 1.398 . S
C1140 C1141 1.391 . S
C1141 H1129 0.950 . S
C1141 C1137 1.393 . S
C1141 C1140 1.391 . S
C1142 H1132 0.950 . S
C1142 C1143 1.386 . S
C1142 C1144 1.391 . S
C1143 C1142 1.386 . S
C1143 C1147 1.393 . S
C1144 H1133 0.950 . S
C1144 C1142 1.391 . S
C1144 C1145 1.400 . S
C1145 C1139 1.491 . S
C1145 C1144 1.400 . S
C1145 C1146 1.398 . S
C1146 H1134 0.950 . S
C1146 C1145 1.398 . S
C1146 C1147 1.391 . S
C1147 H1135 0.950 . S
C1147 C1143 1.393 . S
C1147 C1146 1.391 . S
H1148 C1156 0.950 . S
H1149 C1161 0.950 . S
H1150 C1158 0.950 . S
H1151 C1160 0.950 . S
H1152 C1162 0.950 . S
H1153 C1164 0.950 . S
H1154 C1166 0.950 . S
H1155 C1167 0.950 . S
C1156 H1148 0.950 . S
C1156 C1157 1.386 . S
C1156 C1158 1.391 . S
C1157 C1156 1.386 . S
C1157 C1161 1.393 . S
C1158 H1150 0.950 . S
C1158 C1156 1.391 . S
C1158 C1159 1.400 . S
C1159 C1158 1.400 . S
C1159 C1160 1.398 . S
C1159 C1165 1.491 . S
C1160 H1151 0.950 . S
C1160 C1159 1.398 . S
C1160 C1161 1.391 . S
C1161 H1149 0.950 . S
C1161 C1157 1.393 . S
C1161 C1160 1.391 . S
C1162 H1152 0.950 . S
C1162 C1163 1.386 . S
C1162 C1164 1.391 . S
C1163 C1162 1.386 . S
C1163 C1167 1.393 . S
C1164 H1153 0.950 . S
C1164 C1162 1.391 . S
C1164 C1165 1.400 . S
C1165 C1159 1.491 . S
C1165 C1164 1.400 . S
C1165 C1166 1.398 . S
C1166 H1154 0.950 . S
C1166 C1165 1.398 . S
C1166 C1167 1.391 . S
C1167 H1155 0.950 . S
C1167 C1163 1.393 . S
C1167 C1166 1.391 . S
H1168 C1176 0.950 . S
H1169 C1181 0.950 . S
H1170 C1178 0.950 . S
H1171 C1180 0.950 . S
H1172 C1182 0.950 . S
H1173 C1184 0.950 . S
H1174 C1186 0.950 . S
H1175 C1187 0.950 . S
C1176 H1168 0.950 . S
C1176 C1177 1.386 . S
C1176 C1178 1.391 . S
C1177 C1176 1.386 . S
C1177 C1181 1.393 . S
C1178 H1170 0.950 . S
C1178 C1176 1.391 . S
C1178 C1179 1.400 . S
C1179 C1178 1.400 . S
C1179 C1180 1.398 . S
C1179 C1185 1.491 . S
C1180 H1171 0.950 . S
C1180 C1179 1.398 . S
C1180 C1181 1.391 . S
C1181 H1169 0.950 . S
C1181 C1177 1.393 . S
C1181 C1180 1.391 . S
C1182 H1172 0.950 . S
C1182 C1183 1.386 . S
C1182 C1184 1.391 . S
C1183 C1182 1.386 . S
C1183 C1187 1.393 . S
C1184 H1173 0.950 . S
C1184 C1182 1.391 . S
C1184 C1185 1.400 . S
C1185 C1179 1.491 . S
C1185 C1184 1.400 . S
C1185 C1186 1.398 . S
C1186 H1174 0.950 . S
C1186 C1185 1.398 . S
C1186 C1187 1.391 . S
C1187 H1175 0.950 . S
C1187 C1183 1.393 . S
C1187 C1186 1.391 . S
H1188 C1196 0.950 . S
H1189 C1201 0.950 . S
H1190 C1198 0.950 . S
H1191 C1200 0.950 . S
H1192 C1202 0.950 . S
H1193 C1204 0.950 . S
H1194 C1206 0.950 . S
H1195 C1207 0.950 . S
C1196 H1188 0.950 . S
C1196 C1197 1.386 . S
C1196 C1198 1.391 . S
C1197 C1196 1.386 . S
C1197 C1201 1.393 . S
C1198 H1190 0.950 . S
C1198 C1196 1.391 . S
C1198 C1199 1.400 . S
C1199 C1198 1.400 . S
C1199 C1200 1.398 . S
C1199 C1205 1.491 . S
C1200 H1191 0.950 . S
C1200 C1199 1.398 . S
C1200 C1201 1.391 . S
C1201 H1189 0.950 . S
C1201 C1197 1.393 . S
C1201 C1200 1.391 . S
C1202 H1192 0.950 . S
C1202 C1203 1.386 . S
C1202 C1204 1.391 . S
C1203 C1202 1.386 . S
C1203 C1207 1.393 . S
C1204 H1193 0.950 . S
C1204 C1202 1.391 . S
C1204 C1205 1.400 . S
C1205 C1199 1.491 . S
C1205 C1204 1.400 . S
C1205 C1206 1.398 . S
C1206 H1194 0.950 . S
C1206 C1205 1.398 . S
C1206 C1207 1.391 . S
C1207 H1195 0.950 . S
C1207 C1203 1.393 . S
C1207 C1206 1.391 . S
H1208 C1216 0.950 . S
H1209 C1221 0.950 . S
H1210 C1218 0.950 . S
H1211 C1220 0.950 . S
H1212 C1222 0.950 . S
H1213 C1224 0.950 . S
H1214 C1226 0.950 . S
H1215 C1227 0.950 . S
C1216 H1208 0.950 . S
C1216 C1217 1.386 . S
C1216 C1218 1.391 . S
C1217 C1216 1.386 . S
C1217 C1221 1.393 . S
C1218 H1210 0.950 . S
C1218 C1216 1.391 . S
C1218 C1219 1.400 . S
C1219 C1218 1.400 . S
C1219 C1220 1.398 . S
C1219 C1225 1.491 . S
C1220 H1211 0.950 . S
C1220 C1219 1.398 . S
C1220 C1221 1.391 . S
C1221 H1209 0.950 . S
C1221 C1217 1.393 . S
C1221 C1220 1.391 . S
C1222 H1212 0.950 . S
C1222 C1223 1.386 . S
C1222 C1224 1.391 . S
C1223 C1222 1.386 . S
C1223 C1227 1.393 . S
C1224 H1213 0.950 . S
C1224 C1222 1.391 . S
C1224 C1225 1.400 . S
C1225 C1219 1.491 . S
C1225 C1224 1.400 . S
C1225 C1226 1.398 . S
C1226 H1214 0.950 . S
C1226 C1225 1.398 . S
C1226 C1227 1.391 . S
C1227 H1215 0.950 . S
C1227 C1223 1.393 . S
C1227 C1226 1.391 . S
H1228 C1236 0.950 . S
H1229 C1241 0.950 . S
H1230 C1238 0.950 . S
H1231 C1240 0.950 . S
H1232 C1242 0.950 . S
H1233 C1244 0.950 . S
H1234 C1246 0.950 . S
H1235 C1247 0.950 . S
C1236 H1228 0.950 . S
C1236 C1237 1.386 . S
C1236 C1238 1.391 . S
C1237 C1236 1.386 . S
C1237 C1241 1.393 . S
C1238 H1230 0.950 . S
C1238 C1236 1.391 . S
C1238 C1239 1.400 . S
C1239 C1238 1.400 . S
C1239 C1240 1.398 . S
C1239 C1245 1.491 1_655 S
C1240 H1231 0.950 . S
C1240 C1239 1.398 . S
C1240 C1241 1.391 . S
C1241 H1229 0.950 . S
C1241 C1237 1.393 . S
C1241 C1240 1.391 . S
C1242 H1232 0.950 . S
C1242 C1243 1.386 . S
C1242 C1244 1.391 . S
C1243 C1242 1.386 . S
C1243 C1247 1.393 . S
C1244 H1233 0.950 . S
C1244 C1242 1.391 . S
C1244 C1245 1.400 . S
C1245 C1239 1.491 1_455 S
C1245 C1244 1.400 . S
C1245 C1246 1.398 . S
C1246 H1234 0.950 . S
C1246 C1245 1.398 . S
C1246 C1247 1.391 . S
C1247 H1235 0.950 . S
C1247 C1243 1.393 . S
C1247 C1246 1.391 . S
H1248 C1256 0.950 . S
H1249 C1261 0.950 . S
H1250 C1258 0.950 . S
H1251 C1260 0.950 . S
H1252 C1262 0.950 . S
H1253 C1264 0.950 . S
H1254 C1266 0.950 . S
H1255 C1267 0.950 . S
C1256 H1248 0.950 . S
C1256 C1257 1.386 . S
C1256 C1258 1.391 . S
C1257 C1256 1.386 . S
C1257 C1261 1.393 1_556 S
C1258 H1250 0.950 . S
C1258 C1256 1.391 . S
C1258 C1259 1.400 . S
C1259 C1258 1.400 . S
C1259 C1260 1.398 1_556 S
C1259 C1265 1.491 . S
C1260 H1251 0.950 . S
C1260 C1259 1.398 1_554 S
C1260 C1261 1.391 . S
C1261 H1249 0.950 . S
C1261 C1257 1.393 1_554 S
C1261 C1260 1.391 . S
C1262 H1252 0.950 . S
C1262 C1263 1.386 1_554 S
C1262 C1264 1.391 . S
C1263 C1262 1.386 1_556 S
C1263 C1267 1.393 . S
C1264 H1253 0.950 . S
C1264 C1262 1.391 . S
C1264 C1265 1.400 1_554 S
C1265 C1259 1.491 . S
C1265 C1264 1.400 1_556 S
C1265 C1266 1.398 . S
C1266 H1254 0.950 . S
C1266 C1265 1.398 . S
C1266 C1267 1.391 . S
C1267 H1255 0.950 . S
C1267 C1263 1.393 . S
C1267 C1266 1.391 . S
H1268 C1276 0.950 . S
H1269 C1281 0.950 . S
H1270 C1278 0.950 . S
H1271 C1280 0.950 . S
H1272 C1282 0.950 . S
H1273 C1284 0.950 . S
H1274 C1286 0.950 . S
H1275 C1287 0.950 . S
C1276 H1268 0.950 . S
C1276 C1277 1.386 . S
C1276 C1278 1.391 . S
C1277 C1276 1.386 . S
C1277 C1281 1.393 . S
C1278 H1270 0.950 . S
C1278 C1276 1.391 . S
C1278 C1279 1.400 . S
C1279 C1278 1.400 . S
C1279 C1280 1.398 . S
C1279 C1285 1.491 . S
C1280 H1271 0.950 . S
C1280 C1279 1.398 . S
C1280 C1281 1.391 . S
C1281 H1269 0.950 . S
C1281 C1277 1.393 . S
C1281 C1280 1.391 . S
C1282 H1272 0.950 . S
C1282 C1283 1.386 . S
C1282 C1284 1.391 . S
C1283 C1282 1.386 . S
C1283 C1287 1.393 . S
C1284 H1273 0.950 . S
C1284 C1282 1.391 . S
C1284 C1285 1.400 . S
C1285 C1279 1.491 . S
C1285 C1284 1.400 . S
C1285 C1286 1.398 . S
C1286 H1274 0.950 . S
C1286 C1285 1.398 . S
C1286 C1287 1.391 . S
C1287 H1275 0.950 . S
C1287 C1283 1.393 . S
C1287 C1286 1.391 . S
H1288 C1296 0.950 . S
H1289 C1301 0.950 . S
H1290 C1298 0.950 . S
H1291 C1300 0.950 . S
H1292 C1302 0.950 . S
H1293 C1304 0.950 . S
H1294 C1306 0.950 . S
H1295 C1307 0.950 . S
C1296 H1288 0.950 . S
C1296 C1297 1.386 1_556 S
C1296 C1298 1.391 . S
C1297 C1296 1.386 1_554 S
C1297 C1301 1.393 . S
C1298 H1290 0.950 . S
C1298 C1296 1.391 . S
C1298 C1299 1.400 1_556 S
C1299 C1298 1.400 1_554 S
C1299 C1300 1.398 . S
C1299 C1305 1.491 . S
C1300 H1291 0.950 . S
C1300 C1299 1.398 . S
C1300 C1301 1.391 . S
C1301 H1289 0.950 . S
C1301 C1297 1.393 . S
C1301 C1300 1.391 . S
C1302 H1292 0.950 . S
C1302 C1303 1.386 . S
C1302 C1304 1.391 . S
C1303 C1302 1.386 . S
C1303 C1307 1.393 1_554 S
C1304 H1293 0.950 . S
C1304 C1302 1.391 . S
C1304 C1305 1.400 . S
C1305 C1299 1.491 . S
C1305 C1304 1.400 . S
C1305 C1306 1.398 1_554 S
C1306 H1294 0.950 . S
C1306 C1305 1.398 1_556 S
C1306 C1307 1.391 . S
C1307 H1295 0.950 . S
C1307 C1303 1.393 1_556 S
C1307 C1306 1.391 . S
H1308 C1316 0.950 . S
H1309 C1321 0.950 . S
H1310 C1318 0.950 . S
H1311 C1320 0.950 . S
H1312 C1322 0.950 . S
H1313 C1324 0.950 . S
H1314 C1326 0.950 . S
H1315 C1327 0.950 . S
C1316 H1308 0.950 . S
C1316 C1317 1.386 . S
C1316 C1318 1.391 . S
C1317 C1316 1.386 . S
C1317 C1321 1.393 . S
C1318 H1310 0.950 . S
C1318 C1316 1.391 . S
C1318 C1319 1.400 . S
C1319 C1318 1.400 . S
C1319 C1320 1.398 . S
C1319 C1325 1.491 . S
C1320 H1311 0.950 . S
C1320 C1319 1.398 . S
C1320 C1321 1.391 . S
C1321 H1309 0.950 . S
C1321 C1317 1.393 . S
C1321 C1320 1.391 . S
C1322 H1312 0.950 . S
C1322 C1323 1.386 . S
C1322 C1324 1.391 . S
C1323 C1322 1.386 . S
C1323 C1327 1.393 . S
C1324 H1313 0.950 . S
C1324 C1322 1.391 . S
C1324 C1325 1.400 . S
C1325 C1319 1.491 . S
C1325 C1324 1.400 . S
C1325 C1326 1.398 . S
C1326 H1314 0.950 . S
C1326 C1325 1.398 . S
C1326 C1327 1.391 . S
C1327 H1315 0.950 . S
C1327 C1323 1.393 . S
C1327 C1326 1.391 . S
H1328 C1336 0.950 . S
H1329 C1341 0.950 . S
H1330 C1338 0.950 . S
H1331 C1340 0.950 . S
H1332 C1342 0.950 . S
H1333 C1344 0.950 . S
H1334 C1346 0.950 . S
H1335 C1347 0.950 . S
C1336 H1328 0.950 . S
C1336 C1337 1.386 . S
C1336 C1338 1.391 . S
C1337 C1336 1.386 . S
C1337 C1341 1.393 . S
C1338 H1330 0.950 . S
C1338 C1336 1.391 . S
C1338 C1339 1.400 . S
C1339 C1338 1.400 . S
C1339 C1340 1.398 . S
C1339 C1345 1.491 . S
C1340 H1331 0.950 . S
C1340 C1339 1.398 . S
C1340 C1341 1.391 . S
C1341 H1329 0.950 . S
C1341 C1337 1.393 . S
C1341 C1340 1.391 . S
C1342 H1332 0.950 . S
C1342 C1343 1.386 . S
C1342 C1344 1.391 . S
C1343 C1342 1.386 . S
C1343 C1347 1.393 . S
C1344 H1333 0.950 . S
C1344 C1342 1.391 . S
C1344 C1345 1.400 . S
C1345 C1339 1.491 . S
C1345 C1344 1.400 . S
C1345 C1346 1.398 . S
C1346 H1334 0.950 . S
C1346 C1345 1.398 . S
C1346 C1347 1.391 . S
C1347 H1335 0.950 . S
C1347 C1343 1.393 . S
C1347 C1346 1.391 . S
H1348 C1356 0.950 . S
H1349 C1361 0.950 . S
H1350 C1358 0.950 . S
H1351 C1360 0.950 . S
H1352 C1362 0.950 . S
H1353 C1364 0.950 . S
H1354 C1366 0.950 . S
H1355 C1367 0.950 . S
C1356 H1348 0.950 . S
C1356 C1357 1.386 . S
C1356 C1358 1.391 . S
C1357 C1356 1.386 . S
C1357 C1361 1.393 . S
C1358 H1350 0.950 . S
C1358 C1356 1.391 . S
C1358 C1359 1.400 . S
C1359 C1358 1.400 . S
C1359 C1360 1.398 . S
C1359 C1365 1.491 1_455 S
C1360 H1351 0.950 . S
C1360 C1359 1.398 . S
C1360 C1361 1.391 . S
C1361 H1349 0.950 . S
C1361 C1357 1.393 . S
C1361 C1360 1.391 . S
C1362 H1352 0.950 . S
C1362 C1363 1.386 . S
C1362 C1364 1.391 . S
C1363 C1362 1.386 . S
C1363 C1367 1.393 . S
C1364 H1353 0.950 . S
C1364 C1362 1.391 . S
C1364 C1365 1.400 . S
C1365 C1359 1.491 1_655 S
C1365 C1364 1.400 . S
C1365 C1366 1.398 . S
C1366 H1354 0.950 . S
C1366 C1365 1.398 . S
C1366 C1367 1.391 . S
C1367 H1355 0.950 . S
C1367 C1363 1.393 . S
C1367 C1366 1.391 . S
H1368 C1376 0.950 . S
H1369 C1381 0.950 . S
H1370 C1378 0.950 . S
H1371 C1380 0.950 . S
H1372 C1382 0.950 . S
H1373 C1384 0.950 . S
H1374 C1386 0.950 . S
H1375 C1387 0.950 . S
C1376 H1368 0.950 . S
C1376 C1377 1.386 . S
C1376 C1378 1.391 . S
C1377 C1376 1.386 . S
C1377 C1381 1.393 . S
C1378 H1370 0.950 . S
C1378 C1376 1.391 . S
C1378 C1379 1.400 . S
C1379 C1378 1.400 . S
C1379 C1380 1.398 . S
C1379 C1385 1.491 1_455 S
C1380 H1371 0.950 . S
C1380 C1379 1.398 . S
C1380 C1381 1.391 . S
C1381 H1369 0.950 . S
C1381 C1377 1.393 . S
C1381 C1380 1.391 . S
C1382 H1372 0.950 . S
C1382 C1383 1.386 . S
C1382 C1384 1.391 . S
C1383 C1382 1.386 . S
C1383 C1387 1.393 . S
C1384 H1373 0.950 . S
C1384 C1382 1.391 . S
C1384 C1385 1.400 . S
C1385 C1379 1.491 1_655 S
C1385 C1384 1.400 . S
C1385 C1386 1.398 . S
C1386 H1374 0.950 . S
C1386 C1385 1.398 . S
C1386 C1387 1.391 . S
C1387 H1375 0.950 . S
C1387 C1383 1.393 . S
C1387 C1386 1.391 . S
H1388 C1396 0.950 . S
H1389 C1401 0.950 . S
H1390 C1398 0.950 . S
H1391 C1400 0.950 . S
H1392 C1402 0.950 . S
H1393 C1404 0.950 . S
H1394 C1406 0.950 . S
H1395 C1407 0.950 . S
C1396 H1388 0.950 . S
C1396 C1397 1.386 . S
C1396 C1398 1.391 . S
C1397 C1396 1.386 . S
C1397 C1401 1.393 . S
C1398 H1390 0.950 . S
C1398 C1396 1.391 . S
C1398 C1399 1.400 . S
C1399 C1398 1.400 . S
C1399 C1400 1.398 . S
C1399 C1405 1.491 . S
C1400 H1391 0.950 . S
C1400 C1399 1.398 . S
C1400 C1401 1.391 . S
C1401 H1389 0.950 . S
C1401 C1397 1.393 . S
C1401 C1400 1.391 . S
C1402 H1392 0.950 . S
C1402 C1403 1.386 . S
C1402 C1404 1.391 . S
C1403 C1402 1.386 . S
C1403 C1407 1.393 . S
C1404 H1393 0.950 . S
C1404 C1402 1.391 . S
C1404 C1405 1.400 . S
C1405 C1399 1.491 . S
C1405 C1404 1.400 . S
C1405 C1406 1.398 . S
C1406 H1394 0.950 . S
C1406 C1405 1.398 . S
C1406 C1407 1.391 . S
C1407 H1395 0.950 . S
C1407 C1403 1.393 . S
C1407 C1406 1.391 . S
H1408 C1416 0.950 . S
H1409 C1421 0.950 . S
H1410 C1418 0.950 . S
H1411 C1420 0.950 . S
H1412 C1422 0.950 . S
H1413 C1424 0.950 . S
H1414 C1426 0.950 . S
H1415 C1427 0.950 . S
C1416 H1408 0.950 . S
C1416 C1417 1.386 . S
C1416 C1418 1.391 . S
C1417 C1416 1.386 . S
C1417 C1421 1.393 . S
C1418 H1410 0.950 . S
C1418 C1416 1.391 . S
C1418 C1419 1.400 . S
C1419 C1418 1.400 . S
C1419 C1420 1.398 . S
C1419 C1425 1.491 . S
C1420 H1411 0.950 . S
C1420 C1419 1.398 . S
C1420 C1421 1.391 . S
C1421 H1409 0.950 . S
C1421 C1417 1.393 . S
C1421 C1420 1.391 . S
C1422 H1412 0.950 . S
C1422 C1423 1.386 . S
C1422 C1424 1.391 . S
C1423 C1422 1.386 . S
C1423 C1427 1.393 . S
C1424 H1413 0.950 . S
C1424 C1422 1.391 . S
C1424 C1425 1.400 . S
C1425 C1419 1.491 . S
C1425 C1424 1.400 . S
C1425 C1426 1.398 . S
C1426 H1414 0.950 . S
C1426 C1425 1.398 . S
C1426 C1427 1.391 . S
C1427 H1415 0.950 . S
C1427 C1423 1.393 . S
C1427 C1426 1.391 . S
H1428 C1436 0.950 . S
H1429 C1441 0.950 . S
H1430 C1438 0.950 . S
H1431 C1440 0.950 . S
H1432 C1442 0.950 . S
H1433 C1444 0.950 . S
H1434 C1446 0.950 . S
H1435 C1447 0.950 . S
C1436 H1428 0.950 . S
C1436 C1437 1.386 . S
C1436 C1438 1.391 . S
C1437 C1436 1.386 . S
C1437 C1441 1.393 . S
C1438 H1430 0.950 . S
C1438 C1436 1.391 . S
C1438 C1439 1.400 . S
C1439 C1438 1.400 . S
C1439 C1440 1.398 . S
C1439 C1445 1.491 . S
C1440 H1431 0.950 . S
C1440 C1439 1.398 . S
C1440 C1441 1.391 . S
C1441 H1429 0.950 . S
C1441 C1437 1.393 . S
C1441 C1440 1.391 . S
C1442 H1432 0.950 . S
C1442 C1443 1.386 . S
C1442 C1444 1.391 . S
C1443 C1442 1.386 . S
C1443 C1447 1.393 . S
C1444 H1433 0.950 . S
C1444 C1442 1.391 . S
C1444 C1445 1.400 . S
C1445 C1439 1.491 . S
C1445 C1444 1.400 . S
C1445 C1446 1.398 . S
C1446 H1434 0.950 . S
C1446 C1445 1.398 . S
C1446 C1447 1.391 . S
C1447 H1435 0.950 . S
C1447 C1443 1.393 . S
C1447 C1446 1.391 . S
H1448 C1456 0.950 . S
H1449 C1461 0.950 . S
H1450 C1458 0.950 . S
H1451 C1460 0.950 . S
H1452 C1462 0.950 . S
H1453 C1464 0.950 . S
H1454 C1466 0.950 . S
H1455 C1467 0.950 . S
C1456 H1448 0.950 . S
C1456 C1457 1.386 . S
C1456 C1458 1.391 . S
C1457 C1456 1.386 . S
C1457 C1461 1.393 . S
C1458 H1450 0.950 . S
C1458 C1456 1.391 . S
C1458 C1459 1.400 . S
C1459 C1458 1.400 . S
C1459 C1460 1.398 . S
C1459 C1465 1.491 1_556 S
C1460 H1451 0.950 . S
C1460 C1459 1.398 . S
C1460 C1461 1.391 . S
C1461 H1449 0.950 . S
C1461 C1457 1.393 . S
C1461 C1460 1.391 . S
C1462 H1452 0.950 . S
C1462 C1463 1.386 . S
C1462 C1464 1.391 . S
C1463 C1462 1.386 . S
C1463 C1467 1.393 . S
C1464 H1453 0.950 . S
C1464 C1462 1.391 . S
C1464 C1465 1.400 . S
C1465 C1459 1.491 1_554 S
C1465 C1464 1.400 . S
C1465 C1466 1.398 . S
C1466 H1454 0.950 . S
C1466 C1465 1.398 . S
C1466 C1467 1.391 . S
C1467 H1455 0.950 . S
C1467 C1463 1.393 . S
C1467 C1466 1.391 . S
H1468 C1476 0.950 . S
H1469 C1481 0.950 . S
H1470 C1478 0.950 . S
H1471 C1480 0.950 . S
H1472 C1482 0.950 . S
H1473 C1484 0.950 . S
H1474 C1486 0.950 . S
H1475 C1487 0.950 . S
C1476 H1468 0.950 . S
C1476 C1477 1.386 . S
C1476 C1478 1.391 . S
C1477 C1476 1.386 . S
C1477 C1481 1.393 . S
C1478 H1470 0.950 . S
C1478 C1476 1.391 . S
C1478 C1479 1.400 . S
C1479 C1478 1.400 . S
C1479 C1480 1.398 . S
C1479 C1485 1.491 . S
C1480 H1471 0.950 . S
C1480 C1479 1.398 . S
C1480 C1481 1.391 . S
C1481 H1469 0.950 . S
C1481 C1477 1.393 . S
C1481 C1480 1.391 . S
C1482 H1472 0.950 . S
C1482 C1483 1.386 . S
C1482 C1484 1.391 . S
C1483 C1482 1.386 . S
C1483 C1487 1.393 . S
C1484 H1473 0.950 . S
C1484 C1482 1.391 . S
C1484 C1485 1.400 . S
C1485 C1479 1.491 . S
C1485 C1484 1.400 . S
C1485 C1486 1.398 . S
C1486 H1474 0.950 . S
C1486 C1485 1.398 . S
C1486 C1487 1.391 . S
C1487 H1475 0.950 . S
C1487 C1483 1.393 . S
C1487 C1486 1.391 . S
H1488 C1496 0.950 . S
H1489 C1501 0.950 . S
H1490 C1498 0.950 . S
H1491 C1500 0.950 . S
H1492 C1502 0.950 . S
H1493 C1504 0.950 . S
H1494 C1506 0.950 . S
H1495 C1507 0.950 . S
C1496 H1488 0.950 . S
C1496 C1497 1.386 . S
C1496 C1498 1.391 . S
C1497 C1496 1.386 . S
C1497 C1501 1.393 . S
C1498 H1490 0.950 . S
C1498 C1496 1.391 . S
C1498 C1499 1.400 . S
C1499 C1498 1.400 . S
C1499 C1500 1.398 . S
C1499 C1505 1.491 . S
C1500 H1491 0.950 . S
C1500 C1499 1.398 . S
C1500 C1501 1.391 . S
C1501 H1489 0.950 . S
C1501 C1497 1.393 . S
C1501 C1500 1.391 . S
C1502 H1492 0.950 . S
C1502 C1503 1.386 . S
C1502 C1504 1.391 . S
C1503 C1502 1.386 . S
C1503 C1507 1.393 . S
C1504 H1493 0.950 . S
C1504 C1502 1.391 . S
C1504 C1505 1.400 . S
C1505 C1499 1.491 . S
C1505 C1504 1.400 . S
C1505 C1506 1.398 . S
C1506 H1494 0.950 . S
C1506 C1505 1.398 . S
C1506 C1507 1.391 . S
C1507 H1495 0.950 . S
C1507 C1503 1.393 . S
C1507 C1506 1.391 . S
H1508 C1516 0.950 . S
H1509 C1521 0.950 . S
H1510 C1518 0.950 . S
H1511 C1520 0.950 . S
H1512 C1522 0.950 . S
H1513 C1524 0.950 . S
H1514 C1526 0.950 . S
H1515 C1527 0.950 . S
C1516 H1508 0.950 . S
C1516 C1517 1.386 . S
C1516 C1518 1.391 . S
C1517 C1516 1.386 . S
C1517 C1521 1.393 . S
C1518 H1510 0.950 . S
C1518 C1516 1.391 . S
C1518 C1519 1.400 . S
C1519 C1518 1.400 . S
C1519 C1520 1.398 . S
C1519 C1525 1.491 . S
C1520 H1511 0.950 . S
C1520 C1519 1.398 . S
C1520 C1521 1.391 . S
C1521 H1509 0.950 . S
C1521 C1517 1.393 . S
C1521 C1520 1.391 . S
C1522 H1512 0.950 . S
C1522 C1523 1.386 . S
C1522 C1524 1.391 . S
C1523 C1522 1.386 . S
C1523 C1527 1.393 . S
C1524 H1513 0.950 . S
C1524 C1522 1.391 . S
C1524 C1525 1.400 . S
C1525 C1519 1.491 . S
C1525 C1524 1.400 . S
C1525 C1526 1.398 . S
C1526 H1514 0.950 . S
C1526 C1525 1.398 . S
C1526 C1527 1.391 . S
C1527 H1515 0.950 . S
C1527 C1523 1.393 . S
C1527 C1526 1.391 . S
H1528 C1536 0.950 . S
H1529 C1541 0.950 . S
H1530 C1538 0.950 . S
H1531 C1540 0.950 . S
H1532 C1542 0.950 . S
H1533 C1544 0.950 . S
H1534 C1546 0.950 . S
H1535 C1547 0.950 . S
C1536 H1528 0.950 . S
C1536 C1537 1.386 . S
C1536 C1538 1.391 . S
C1537 C1536 1.386 . S
C1537 C1541 1.393 . S
C1538 H1530 0.950 . S
C1538 C1536 1.391 . S
C1538 C1539 1.400 . S
C1539 C1538 1.400 . S
C1539 C1540 1.398 . S
C1539 C1545 1.491 1_556 S
C1540 H1531 0.950 . S
C1540 C1539 1.398 . S
C1540 C1541 1.391 . S
C1541 H1529 0.950 . S
C1541 C1537 1.393 . S
C1541 C1540 1.391 . S
C1542 H1532 0.950 . S
C1542 C1543 1.386 . S
C1542 C1544 1.391 . S
C1543 C1542 1.386 . S
C1543 C1547 1.393 . S
C1544 H1533 0.950 . S
C1544 C1542 1.391 . S
C1544 C1545 1.400 . S
C1545 C1539 1.491 1_554 S
C1545 C1544 1.400 . S
C1545 C1546 1.398 . S
C1546 H1534 0.950 . S
C1546 C1545 1.398 . S
C1546 C1547 1.391 . S
C1547 H1535 0.950 . S
C1547 C1543 1.393 . S
C1547 C1546 1.391 . S
H1548 C1556 0.950 . S
H1549 C1561 0.950 . S
H1550 C1558 0.950 . S
H1551 C1560 0.950 . S
H1552 C1562 0.950 . S
H1553 C1564 0.950 . S
H1554 C1566 0.950 . S
H1555 C1567 0.950 . S
C1556 H1548 0.950 . S
C1556 C1557 1.386 . S
C1556 C1558 1.391 . S
C1557 C1556 1.386 . S
C1557 C1561 1.393 . S
C1558 H1550 0.950 . S
C1558 C1556 1.391 . S
C1558 C1559 1.400 . S
C1559 C1558 1.400 . S
C1559 C1560 1.398 . S
C1559 C1565 1.491 . S
C1560 H1551 0.950 . S
C1560 C1559 1.398 . S
C1560 C1561 1.391 . S
C1561 H1549 0.950 . S
C1561 C1557 1.393 . S
C1561 C1560 1.391 . S
C1562 H1552 0.950 . S
C1562 C1563 1.386 . S
C1562 C1564 1.391 . S
C1563 C1562 1.386 . S
C1563 C1567 1.393 . S
C1564 H1553 0.950 . S
C1564 C1562 1.391 . S
C1564 C1565 1.400 . S
C1565 C1559 1.491 . S
C1565 C1564 1.400 . S
C1565 C1566 1.398 . S
C1566 H1554 0.950 . S
C1566 C1565 1.398 . S
C1566 C1567 1.391 . S
C1567 H1555 0.950 . S
C1567 C1563 1.393 . S
C1567 C1566 1.391 . S
H1568 C1576 0.950 . S
H1569 C1581 0.950 . S
H1570 C1578 0.950 . S
H1571 C1580 0.950 . S
H1572 C1582 0.950 . S
H1573 C1584 0.950 . S
H1574 C1586 0.950 . S
H1575 C1587 0.950 . S
C1576 H1568 0.950 . S
C1576 C1577 1.386 . S
C1576 C1578 1.391 . S
C1577 C1576 1.386 . S
C1577 C1581 1.393 . S
C1578 H1570 0.950 . S
C1578 C1576 1.391 . S
C1578 C1579 1.400 . S
C1579 C1578 1.400 . S
C1579 C1580 1.398 . S
C1579 C1585 1.491 . S
C1580 H1571 0.950 . S
C1580 C1579 1.398 . S
C1580 C1581 1.391 . S
C1581 H1569 0.950 . S
C1581 C1577 1.393 . S
C1581 C1580 1.391 . S
C1582 H1572 0.950 . S
C1582 C1583 1.386 . S
C1582 C1584 1.391 . S
C1583 C1582 1.386 . S
C1583 C1587 1.393 . S
C1584 H1573 0.950 . S
C1584 C1582 1.391 . S
C1584 C1585 1.400 . S
C1585 C1579 1.491 . S
C1585 C1584 1.400 . S
C1585 C1586 1.398 . S
C1586 H1574 0.950 . S
C1586 C1585 1.398 . S
C1586 C1587 1.391 . S
C1587 H1575 0.950 . S
C1587 C1583 1.393 . S
C1587 C1586 1.391 . S
H1588 C1596 0.950 . S
H1589 C1601 0.950 . S
H1590 C1598 0.950 . S
H1591 C1600 0.950 . S
H1592 C1602 0.950 . S
H1593 C1604 0.950 . S
H1594 C1606 0.950 . S
H1595 C1607 0.950 . S
C1596 H1588 0.950 . S
C1596 C1597 1.386 . S
C1596 C1598 1.391 . S
C1597 C1596 1.386 . S
C1597 C1601 1.393 . S
C1598 H1590 0.950 . S
C1598 C1596 1.391 . S
C1598 C1599 1.400 . S
C1599 C1598 1.400 . S
C1599 C1600 1.398 . S
C1599 C1605 1.491 . S
C1600 H1591 0.950 . S
C1600 C1599 1.398 . S
C1600 C1601 1.391 . S
C1601 H1589 0.950 . S
C1601 C1597 1.393 . S
C1601 C1600 1.391 . S
C1602 H1592 0.950 . S
C1602 C1603 1.386 . S
C1602 C1604 1.391 . S
C1603 C1602 1.386 . S
C1603 C1607 1.393 . S
C1604 H1593 0.950 . S
C1604 C1602 1.391 . S
C1604 C1605 1.400 . S
C1605 C1599 1.491 . S
C1605 C1604 1.400 . S
C1605 C1606 1.398 . S
C1606 H1594 0.950 . S
C1606 C1605 1.398 . S
C1606 C1607 1.391 . S
C1607 H1595 0.950 . S
C1607 C1603 1.393 . S
C1607 C1606 1.391 . S
H1608 C1616 0.950 . S
H1609 C1621 0.950 . S
H1610 C1618 0.950 . S
H1611 C1620 0.950 . S
H1612 C1622 0.950 . S
H1613 C1624 0.950 . S
H1614 C1626 0.950 . S
H1615 C1627 0.950 . S
C1616 H1608 0.950 . S
C1616 C1617 1.386 . S
C1616 C1618 1.391 . S
C1617 C1616 1.386 . S
C1617 C1621 1.393 . S
C1618 H1610 0.950 . S
C1618 C1616 1.391 . S
C1618 C1619 1.400 . S
C1619 C1618 1.400 . S
C1619 C1620 1.398 . S
C1619 C1625 1.491 1_554 S
C1620 H1611 0.950 . S
C1620 C1619 1.398 . S
C1620 C1621 1.391 . S
C1621 H1609 0.950 . S
C1621 C1617 1.393 . S
C1621 C1620 1.391 . S
C1622 H1612 0.950 . S
C1622 C1623 1.386 . S
C1622 C1624 1.391 . S
C1623 C1622 1.386 . S
C1623 C1627 1.393 . S
C1624 H1613 0.950 . S
C1624 C1622 1.391 . S
C1624 C1625 1.400 . S
C1625 C1619 1.491 1_556 S
C1625 C1624 1.400 . S
C1625 C1626 1.398 . S
C1626 H1614 0.950 . S
C1626 C1625 1.398 . S
C1626 C1627 1.391 . S
C1627 H1615 0.950 . S
C1627 C1623 1.393 . S
C1627 C1626 1.391 . S
H1628 C1636 0.950 . S
H1629 C1641 0.950 . S
H1630 C1638 0.950 . S
H1631 C1640 0.950 . S
H1632 C1642 0.950 . S
H1633 C1644 0.950 . S
H1634 C1646 0.950 . S
H1635 C1647 0.950 . S
C1636 H1628 0.950 . S
C1636 C1637 1.386 . S
C1636 C1638 1.391 . S
C1637 C1636 1.386 . S
C1637 C1641 1.393 . S
C1638 H1630 0.950 . S
C1638 C1636 1.391 . S
C1638 C1639 1.400 . S
C1639 C1638 1.400 . S
C1639 C1640 1.398 . S
C1639 C1645 1.491 . S
C1640 H1631 0.950 . S
C1640 C1639 1.398 . S
C1640 C1641 1.391 . S
C1641 H1629 0.950 . S
C1641 C1637 1.393 . S
C1641 C1640 1.391 . S
C1642 H1632 0.950 . S
C1642 C1643 1.386 . S
C1642 C1644 1.391 . S
C1643 C1642 1.386 . S
C1643 C1647 1.393 . S
C1644 H1633 0.950 . S
C1644 C1642 1.391 . S
C1644 C1645 1.400 . S
C1645 C1639 1.491 . S
C1645 C1644 1.400 . S
C1645 C1646 1.398 . S
C1646 H1634 0.950 . S
C1646 C1645 1.398 . S
C1646 C1647 1.391 . S
C1647 H1635 0.950 . S
C1647 C1643 1.393 . S
C1647 C1646 1.391 . S
H1648 C1656 0.950 . S
H1649 C1661 0.950 . S
H1650 C1658 0.950 . S
H1651 C1660 0.950 . S
H1652 C1662 0.950 . S
H1653 C1664 0.950 . S
H1654 C1666 0.950 . S
H1655 C1667 0.950 . S
C1656 H1648 0.950 . S
C1656 C1657 1.386 . S
C1656 C1658 1.391 . S
C1657 C1656 1.386 . S
C1657 C1661 1.393 . S
C1658 H1650 0.950 . S
C1658 C1656 1.391 . S
C1658 C1659 1.400 . S
C1659 C1658 1.400 . S
C1659 C1660 1.398 . S
C1659 C1665 1.491 . S
C1660 H1651 0.950 . S
C1660 C1659 1.398 . S
C1660 C1661 1.391 . S
C1661 H1649 0.950 . S
C1661 C1657 1.393 . S
C1661 C1660 1.391 . S
C1662 H1652 0.950 . S
C1662 C1663 1.386 . S
C1662 C1664 1.391 . S
C1663 C1662 1.386 . S
C1663 C1667 1.393 . S
C1664 H1653 0.950 . S
C1664 C1662 1.391 . S
C1664 C1665 1.400 . S
C1665 C1659 1.491 . S
C1665 C1664 1.400 . S
C1665 C1666 1.398 . S
C1666 H1654 0.950 . S
C1666 C1665 1.398 . S
C1666 C1667 1.391 . S
C1667 H1655 0.950 . S
C1667 C1663 1.393 . S
C1667 C1666 1.391 . S
H1668 C1676 0.950 . S
H1669 C1681 0.950 . S
H1670 C1678 0.950 . S
H1671 C1680 0.950 . S
H1672 C1682 0.950 . S
H1673 C1684 0.950 . S
H1674 C1686 0.950 . S
H1675 C1687 0.950 . S
C1676 H1668 0.950 . S
C1676 C1677 1.386 . S
C1676 C1678 1.391 . S
C1677 C1676 1.386 . S
C1677 C1681 1.393 . S
C1678 H1670 0.950 . S
C1678 C1676 1.391 . S
C1678 C1679 1.400 . S
C1679 C1678 1.400 . S
C1679 C1680 1.398 . S
C1679 C1685 1.491 . S
C1680 H1671 0.950 . S
C1680 C1679 1.398 . S
C1680 C1681 1.391 . S
C1681 H1669 0.950 . S
C1681 C1677 1.393 . S
C1681 C1680 1.391 . S
C1682 H1672 0.950 . S
C1682 C1683 1.386 . S
C1682 C1684 1.391 . S
C1683 C1682 1.386 . S
C1683 C1687 1.393 . S
C1684 H1673 0.950 . S
C1684 C1682 1.391 . S
C1684 C1685 1.400 . S
C1685 C1679 1.491 . S
C1685 C1684 1.400 . S
C1685 C1686 1.398 . S
C1686 H1674 0.950 . S
C1686 C1685 1.398 . S
C1686 C1687 1.391 . S
C1687 H1675 0.950 . S
C1687 C1683 1.393 . S
C1687 C1686 1.391 . S
H1688 C1696 0.950 . S
H1689 C1701 0.950 . S
H1690 C1698 0.950 . S
H1691 C1700 0.950 . S
H1692 C1702 0.950 . S
H1693 C1704 0.950 . S
H1694 C1706 0.950 . S
H1695 C1707 0.950 . S
C1696 H1688 0.950 . S
C1696 C1697 1.386 . S
C1696 C1698 1.391 . S
C1697 C1696 1.386 . S
C1697 C1701 1.393 . S
C1698 H1690 0.950 . S
C1698 C1696 1.391 . S
C1698 C1699 1.400 . S
C1699 C1698 1.400 . S
C1699 C1700 1.398 . S
C1699 C1705 1.491 1_556 S
C1700 H1691 0.950 . S
C1700 C1699 1.398 . S
C1700 C1701 1.391 . S
C1701 H1689 0.950 . S
C1701 C1697 1.393 . S
C1701 C1700 1.391 . S
C1702 H1692 0.950 . S
C1702 C1703 1.386 . S
C1702 C1704 1.391 . S
C1703 C1702 1.386 . S
C1703 C1707 1.393 . S
C1704 H1693 0.950 . S
C1704 C1702 1.391 . S
C1704 C1705 1.400 . S
C1705 C1699 1.491 1_554 S
C1705 C1704 1.400 . S
C1705 C1706 1.398 . S
C1706 H1694 0.950 . S
C1706 C1705 1.398 . S
C1706 C1707 1.391 . S
C1707 H1695 0.950 . S
C1707 C1703 1.393 . S
C1707 C1706 1.391 . S
H1708 C1716 0.950 . S
H1709 C1721 0.950 . S
H1710 C1718 0.950 . S
H1711 C1720 0.950 . S
H1712 C1722 0.950 . S
H1713 C1724 0.950 . S
H1714 C1726 0.950 . S
H1715 C1727 0.950 . S
C1716 H1708 0.950 . S
C1716 C1717 1.386 . S
C1716 C1718 1.391 . S
C1717 C1716 1.386 . S
C1717 C1721 1.393 . S
C1718 H1710 0.950 . S
C1718 C1716 1.391 . S
C1718 C1719 1.400 . S
C1719 C1718 1.400 . S
C1719 C1720 1.398 . S
C1719 C1725 1.491 . S
C1720 H1711 0.950 . S
C1720 C1719 1.398 . S
C1720 C1721 1.391 . S
C1721 H1709 0.950 . S
C1721 C1717 1.393 . S
C1721 C1720 1.391 . S
C1722 H1712 0.950 . S
C1722 C1723 1.386 . S
C1722 C1724 1.391 . S
C1723 C1722 1.386 . S
C1723 C1727 1.393 . S
C1724 H1713 0.950 . S
C1724 C1722 1.391 . S
C1724 C1725 1.400 . S
C1725 C1719 1.491 . S
C1725 C1724 1.400 . S
C1725 C1726 1.398 . S
C1726 H1714 0.950 . S
C1726 C1725 1.398 . S
C1726 C1727 1.391 . S
C1727 H1715 0.950 . S
C1727 C1723 1.393 . S
C1727 C1726 1.391 . S
H1728 C1736 0.950 . S
H1729 C1741 0.950 . S
H1730 C1738 0.950 . S
H1731 C1740 0.950 . S
H1732 C1742 0.950 . S
H1733 C1744 0.950 . S
H1734 C1746 0.950 . S
H1735 C1747 0.950 . S
C1736 H1728 0.950 . S
C1736 C1737 1.386 . S
C1736 C1738 1.391 . S
C1737 C1736 1.386 . S
C1737 C1741 1.393 . S
C1738 H1730 0.950 . S
C1738 C1736 1.391 . S
C1738 C1739 1.400 . S
C1739 C1738 1.400 . S
C1739 C1740 1.398 . S
C1739 C1745 1.491 1_554 S
C1740 H1731 0.950 . S
C1740 C1739 1.398 . S
C1740 C1741 1.391 . S
C1741 H1729 0.950 . S
C1741 C1737 1.393 . S
C1741 C1740 1.391 . S
C1742 H1732 0.950 . S
C1742 C1743 1.386 . S
C1742 C1744 1.391 . S
C1743 C1742 1.386 . S
C1743 C1747 1.393 . S
C1744 H1733 0.950 . S
C1744 C1742 1.391 . S
C1744 C1745 1.400 . S
C1745 C1739 1.491 1_556 S
C1745 C1744 1.400 . S
C1745 C1746 1.398 . S
C1746 H1734 0.950 . S
C1746 C1745 1.398 . S
C1746 C1747 1.391 . S
C1747 H1735 0.950 . S
C1747 C1743 1.393 . S
C1747 C1746 1.391 . S
H1748 C1756 0.950 . S
H1749 C1761 0.950 . S
H1750 C1758 0.950 . S
H1751 C1760 0.950 . S
H1752 C1762 0.950 . S
H1753 C1764 0.950 . S
H1754 C1766 0.950 . S
H1755 C1767 0.950 . S
C1756 H1748 0.950 . S
C1756 C1757 1.386 . S
C1756 C1758 1.391 . S
C1757 C1756 1.386 . S
C1757 C1761 1.393 . S
C1758 H1750 0.950 . S
C1758 C1756 1.391 . S
C1758 C1759 1.400 . S
C1759 C1758 1.400 . S
C1759 C1760 1.398 . S
C1759 C1765 1.491 . S
C1760 H1751 0.950 . S
C1760 C1759 1.398 . S
C1760 C1761 1.391 . S
C1761 H1749 0.950 . S
C1761 C1757 1.393 . S
C1761 C1760 1.391 . S
C1762 H1752 0.950 . S
C1762 C1763 1.386 . S
C1762 C1764 1.391 . S
C1763 C1762 1.386 . S
C1763 C1767 1.393 . S
C1764 H1753 0.950 . S
C1764 C1762 1.391 . S
C1764 C1765 1.400 . S
C1765 C1759 1.491 . S
C1765 C1764 1.400 . S
C1765 C1766 1.398 . S
C1766 H1754 0.950 . S
C1766 C1765 1.398 . S
C1766 C1767 1.391 . S
C1767 H1755 0.950 . S
C1767 C1763 1.393 . S
C1767 C1766 1.391 . S
H1768 C1776 0.950 . S
H1769 C1781 0.950 . S
H1770 C1778 0.950 . S
H1771 C1780 0.950 . S
H1772 C1782 0.950 . S
H1773 C1784 0.950 . S
H1774 C1786 0.950 . S
H1775 C1787 0.950 . S
C1776 H1768 0.950 . S
C1776 C1777 1.386 . S
C1776 C1778 1.391 . S
C1777 C1776 1.386 . S
C1777 C1781 1.393 . S
C1778 H1770 0.950 . S
C1778 C1776 1.391 . S
C1778 C1779 1.400 . S
C1779 C1778 1.400 . S
C1779 C1780 1.398 . S
C1779 C1785 1.491 . S
C1780 H1771 0.950 . S
C1780 C1779 1.398 . S
C1780 C1781 1.391 . S
C1781 H1769 0.950 . S
C1781 C1777 1.393 . S
C1781 C1780 1.391 . S
C1782 H1772 0.950 . S
C1782 C1783 1.386 . S
C1782 C1784 1.391 . S
C1783 C1782 1.386 . S
C1783 C1787 1.393 . S
C1784 H1773 0.950 . S
C1784 C1782 1.391 . S
C1784 C1785 1.400 . S
C1785 C1779 1.491 . S
C1785 C1784 1.400 . S
C1785 C1786 1.398 . S
C1786 H1774 0.950 . S
C1786 C1785 1.398 . S
C1786 C1787 1.391 . S
C1787 H1775 0.950 . S
C1787 C1783 1.393 . S
C1787 C1786 1.391 . S
H1788 C1796 0.950 . S
H1789 C1801 0.950 . S
H1790 C1798 0.950 . S
H1791 C1800 0.950 . S
H1792 C1802 0.950 . S
H1793 C1804 0.950 . S
H1794 C1806 0.950 . S
H1795 C1807 0.950 . S
C1796 H1788 0.950 . S
C1796 C1797 1.386 . S
C1796 C1798 1.391 . S
C1797 C1796 1.386 . S
C1797 C1801 1.393 . S
C1798 H1790 0.950 . S
C1798 C1796 1.391 . S
C1798 C1799 1.400 . S
C1799 C1798 1.400 . S
C1799 C1800 1.398 . S
C1799 C1805 1.491 . S
C1800 H1791 0.950 . S
C1800 C1799 1.398 . S
C1800 C1801 1.391 . S
C1801 H1789 0.950 . S
C1801 C1797 1.393 . S
C1801 C1800 1.391 . S
C1802 H1792 0.950 . S
C1802 C1803 1.386 . S
C1802 C1804 1.391 . S
C1803 C1802 1.386 . S
C1803 C1807 1.393 . S
C1804 H1793 0.950 . S
C1804 C1802 1.391 . S
C1804 C1805 1.400 . S
C1805 C1799 1.491 . S
C1805 C1804 1.400 . S
C1805 C1806 1.398 . S
C1806 H1794 0.950 . S
C1806 C1805 1.398 . S
C1806 C1807 1.391 . S
C1807 H1795 0.950 . S
C1807 C1803 1.393 . S
C1807 C1806 1.391 . S
H1808 C1816 0.950 . S
H1809 C1821 0.950 . S
H1810 C1818 0.950 . S
H1811 C1820 0.950 . S
H1812 C1822 0.950 . S
H1813 C1824 0.950 . S
H1814 C1826 0.950 . S
H1815 C1827 0.950 . S
C1816 H1808 0.950 . S
C1816 C1817 1.386 . S
C1816 C1818 1.391 . S
C1817 C1816 1.386 . S
C1817 C1821 1.393 . S
C1818 H1810 0.950 . S
C1818 C1816 1.391 . S
C1818 C1819 1.400 . S
C1819 C1818 1.400 . S
C1819 C1820 1.398 . S
C1819 C1825 1.491 1_556 S
C1820 H1811 0.950 . S
C1820 C1819 1.398 . S
C1820 C1821 1.391 . S
C1821 H1809 0.950 . S
C1821 C1817 1.393 . S
C1821 C1820 1.391 . S
C1822 H1812 0.950 . S
C1822 C1823 1.386 . S
C1822 C1824 1.391 . S
C1823 C1822 1.386 . S
C1823 C1827 1.393 . S
C1824 H1813 0.950 . S
C1824 C1822 1.391 . S
C1824 C1825 1.400 . S
C1825 C1819 1.491 1_554 S
C1825 C1824 1.400 . S
C1825 C1826 1.398 . S
C1826 H1814 0.950 . S
C1826 C1825 1.398 . S
C1826 C1827 1.391 . S
C1827 H1815 0.950 . S
C1827 C1823 1.393 . S
C1827 C1826 1.391 . S
H1828 C1836 0.950 . S
H1829 C1841 0.950 . S
H1830 C1838 0.950 . S
H1831 C1840 0.950 . S
H1832 C1842 0.950 . S
H1833 C1844 0.950 . S
H1834 C1846 0.950 . S
H1835 C1847 0.950 . S
C1836 H1828 0.950 . S
C1836 C1837 1.386 . S
C1836 C1838 1.391 . S
C1837 C1836 1.386 . S
C1837 C1841 1.393 . S
C1838 H1830 0.950 . S
C1838 C1836 1.391 . S
C1838 C1839 1.400 . S
C1839 C1838 1.400 . S
C1839 C1840 1.398 . S
C1839 C1845 1.491 . S
C1840 H1831 0.950 . S
C1840 C1839 1.398 . S
C1840 C1841 1.391 . S
C1841 H1829 0.950 . S
C1841 C1837 1.393 . S
C1841 C1840 1.391 . S
C1842 H1832 0.950 . S
C1842 C1843 1.386 . S
C1842 C1844 1.391 . S
C1843 C1842 1.386 . S
C1843 C1847 1.393 . S
C1844 H1833 0.950 . S
C1844 C1842 1.391 . S
C1844 C1845 1.400 . S
C1845 C1839 1.491 . S
C1845 C1844 1.400 . S
C1845 C1846 1.398 . S
C1846 H1834 0.950 . S
C1846 C1845 1.398 . S
C1846 C1847 1.391 . S
C1847 H1835 0.950 . S
C1847 C1843 1.393 . S
C1847 C1846 1.391 . S
H1848 C1856 0.950 . S
H1849 C1861 0.950 . S
H1850 C1858 0.950 . S
H1851 C1860 0.950 . S
H1852 C1862 0.950 . S
H1853 C1864 0.950 . S
H1854 C1866 0.950 . S
H1855 C1867 0.950 . S
C1856 H1848 0.950 . S
C1856 C1857 1.386 . S
C1856 C1858 1.391 . S
C1857 C1856 1.386 . S
C1857 C1861 1.393 . S
C1858 H1850 0.950 . S
C1858 C1856 1.391 . S
C1858 C1859 1.400 . S
C1859 C1858 1.400 . S
C1859 C1860 1.398 . S
C1859 C1865 1.491 . S
C1860 H1851 0.950 . S
C1860 C1859 1.398 . S
C1860 C1861 1.391 . S
C1861 H1849 0.950 . S
C1861 C1857 1.393 . S
C1861 C1860 1.391 . S
C1862 H1852 0.950 . S
C1862 C1863 1.386 . S
C1862 C1864 1.391 . S
C1863 C1862 1.386 . S
C1863 C1867 1.393 . S
C1864 H1853 0.950 . S
C1864 C1862 1.391 . S
C1864 C1865 1.400 . S
C1865 C1859 1.491 . S
C1865 C1864 1.400 . S
C1865 C1866 1.398 . S
C1866 H1854 0.950 . S
C1866 C1865 1.398 . S
C1866 C1867 1.391 . S
C1867 H1855 0.950 . S
C1867 C1863 1.393 . S
C1867 C1866 1.391 . S
H1868 C1876 0.950 . S
H1869 C1881 0.950 . S
H1870 C1878 0.950 . S
H1871 C1880 0.950 . S
H1872 C1882 0.950 . S
H1873 C1884 0.950 . S
H1874 C1886 0.950 . S
H1875 C1887 0.950 . S
C1876 H1868 0.950 . S
C1876 C1877 1.386 . S
C1876 C1878 1.391 . S
C1877 C1876 1.386 . S
C1877 C1881 1.393 . S
C1878 H1870 0.950 . S
C1878 C1876 1.391 . S
C1878 C1879 1.400 . S
C1879 C1878 1.400 . S
C1879 C1880 1.398 . S
C1879 C1885 1.491 . S
C1880 H1871 0.950 . S
C1880 C1879 1.398 . S
C1880 C1881 1.391 . S
C1881 H1869 0.950 . S
C1881 C1877 1.393 . S
C1881 C1880 1.391 . S
C1882 H1872 0.950 . S
C1882 C1883 1.386 . S
C1882 C1884 1.391 . S
C1883 C1882 1.386 . S
C1883 C1887 1.393 . S
C1884 H1873 0.950 . S
C1884 C1882 1.391 . S
C1884 C1885 1.400 . S
C1885 C1879 1.491 . S
C1885 C1884 1.400 . S
C1885 C1886 1.398 . S
C1886 H1874 0.950 . S
C1886 C1885 1.398 . S
C1886 C1887 1.391 . S
C1887 H1875 0.950 . S
C1887 C1883 1.393 . S
C1887 C1886 1.391 . S
H1888 C1896 0.950 . S
H1889 C1901 0.950 . S
H1890 C1898 0.950 . S
H1891 C1900 0.950 . S
H1892 C1902 0.950 . S
H1893 C1904 0.950 . S
H1894 C1906 0.950 . S
H1895 C1907 0.950 . S
C1896 H1888 0.950 . S
C1896 C1897 1.386 . S
C1896 C1898 1.391 . S
C1897 C1896 1.386 . S
C1897 C1901 1.393 . S
C1898 H1890 0.950 . S
C1898 C1896 1.391 . S
C1898 C1899 1.400 . S
C1899 C1898 1.400 . S
C1899 C1900 1.398 . S
C1899 C1905 1.491 1_556 S
C1900 H1891 0.950 . S
C1900 C1899 1.398 . S
C1900 C1901 1.391 . S
C1901 H1889 0.950 . S
C1901 C1897 1.393 . S
C1901 C1900 1.391 . S
C1902 H1892 0.950 . S
C1902 C1903 1.386 . S
C1902 C1904 1.391 . S
C1903 C1902 1.386 . S
C1903 C1907 1.393 . S
C1904 H1893 0.950 . S
C1904 C1902 1.391 . S
C1904 C1905 1.400 . S
C1905 C1899 1.491 1_554 S
C1905 C1904 1.400 . S
C1905 C1906 1.398 . S
C1906 H1894 0.950 . S
C1906 C1905 1.398 . S
C1906 C1907 1.391 . S
C1907 H1895 0.950 . S
C1907 C1903 1.393 . S
C1907 C1906 1.391 . S
H1908 C1916 0.950 . S
H1909 C1921 0.950 . S
H1910 C1918 0.950 . S
H1911 C1920 0.950 . S
H1912 C1922 0.950 . S
H1913 C1924 0.950 . S
H1914 C1926 0.950 . S
H1915 C1927 0.950 . S
C1916 H1908 0.950 . S
C1916 C1917 1.386 . S
C1916 C1918 1.391 . S
C1917 C1916 1.386 . S
C1917 C1921 1.393 . S
C1918 H1910 0.950 . S
C1918 C1916 1.391 . S
C1918 C1919 1.400 . S
C1919 C1918 1.400 . S
C1919 C1920 1.398 . S
C1919 C1925 1.491 . S
C1920 H1911 0.950 . S
C1920 C1919 1.398 . S
C1920 C1921 1.391 . S
C1921 H1909 0.950 . S
C1921 C1917 1.393 . S
C1921 C1920 1.391 . S
C1922 H1912 0.950 . S
C1922 C1923 1.386 . S
C1922 C1924 1.391 . S
C1923 C1922 1.386 . S
C1923 C1927 1.393 . S
C1924 H1913 0.950 . S
C1924 C1922 1.391 . S
C1924 C1925 1.400 . S
C1925 C1919 1.491 . S
C1925 C1924 1.400 . S
C1925 C1926 1.398 . S
C1926 H1914 0.950 . S
C1926 C1925 1.398 . S
C1926 C1927 1.391 . S
C1927 H1915 0.950 . S
C1927 C1923 1.393 . S
C1927 C1926 1.391 . S
H1928 C1936 0.950 . S
H1929 C1941 0.950 . S
H1930 C1938 0.950 . S
H1931 C1940 0.950 . S
H1932 C1942 0.950 . S
H1933 C1944 0.950 . S
H1934 C1946 0.950 . S
H1935 C1947 0.950 . S
C1936 H1928 0.950 . S
C1936 C1937 1.386 . S
C1936 C1938 1.391 . S
C1937 C1936 1.386 . S
C1937 C1941 1.393 . S
C1938 H1930 0.950 . S
C1938 C1936 1.391 . S
C1938 C1939 1.400 . S
C1939 C1938 1.400 . S
C1939 C1940 1.398 . S
C1939 C1945 1.491 . S
C1940 H1931 0.950 . S
C1940 C1939 1.398 . S
C1940 C1941 1.391 . S
C1941 H1929 0.950 . S
C1941 C1937 1.393 . S
C1941 C1940 1.391 . S
C1942 H1932 0.950 . S
C1942 C1943 1.386 . S
C1942 C1944 1.391 . S
C1943 C1942 1.386 . S
C1943 C1947 1.393 . S
C1944 H1933 0.950 . S
C1944 C1942 1.391 . S
C1944 C1945 1.400 . S
C1945 C1939 1.491 . S
C1945 C1944 1.400 . S
C1945 C1946 1.398 . S
C1946 H1934 0.950 . S
C1946 C1945 1.398 . S
C1946 C1947 1.391 . S
C1947 H1935 0.950 . S
C1947 C1943 1.393 . S
C1947 C1946 1.391 . S
H1948 C1956 0.950 . S
H1949 C1961 0.950 . S
H1950 C1958 0.950 . S
H1951 C1960 0.950 . S
H1952 C1962 0.950 . S
H1953 C1964 0.950 . S
H1954 C1966 0.950 . S
H1955 C1967 0.950 . S
C1956 H1948 0.950 . S
C1956 C1957 1.386 . S
C1956 C1958 1.391 . S
C1957 C1956 1.386 . S
C1957 C1961 1.393 . S
C1958 H1950 0.950 . S
C1958 C1956 1.391 . S
C1958 C1959 1.400 . S
C1959 C1958 1.400 . S
C1959 C1960 1.398 . S
C1959 C1965 1.491 . S
C1960 H1951 0.950 . S
C1960 C1959 1.398 . S
C1960 C1961 1.391 . S
C1961 H1949 0.950 . S
C1961 C1957 1.393 . S
C1961 C1960 1.391 . S
C1962 H1952 0.950 . S
C1962 C1963 1.386 . S
C1962 C1964 1.391 . S
C1963 C1962 1.386 . S
C1963 C1967 1.393 . S
C1964 H1953 0.950 . S
C1964 C1962 1.391 . S
C1964 C1965 1.400 . S
C1965 C1959 1.491 . S
C1965 C1964 1.400 . S
C1965 C1966 1.398 . S
C1966 H1954 0.950 . S
C1966 C1965 1.398 . S
C1966 C1967 1.391 . S
C1967 H1955 0.950 . S
C1967 C1963 1.393 . S
C1967 C1966 1.391 . S
H1968 C1976 0.950 . S
H1969 C1981 0.950 . S
H1970 C1978 0.950 . S
H1971 C1980 0.950 . S
H1972 C1982 0.950 . S
H1973 C1984 0.950 . S
H1974 C1986 0.950 . S
H1975 C1987 0.950 . S
C1976 H1968 0.950 . S
C1976 C1977 1.386 . S
C1976 C1978 1.391 . S
C1977 C1976 1.386 . S
C1977 C1981 1.393 . S
C1978 H1970 0.950 . S
C1978 C1976 1.391 . S
C1978 C1979 1.400 . S
C1979 C1978 1.400 . S
C1979 C1980 1.398 . S
C1979 C1985 1.491 1_554 S
C1980 H1971 0.950 . S
C1980 C1979 1.398 . S
C1980 C1981 1.391 . S
C1981 H1969 0.950 . S
C1981 C1977 1.393 . S
C1981 C1980 1.391 . S
C1982 H1972 0.950 . S
C1982 C1983 1.386 . S
C1982 C1984 1.391 . S
C1983 C1982 1.386 . S
C1983 C1987 1.393 . S
C1984 H1973 0.950 . S
C1984 C1982 1.391 . S
C1984 C1985 1.400 . S
C1985 C1979 1.491 1_556 S
C1985 C1984 1.400 . S
C1985 C1986 1.398 . S
C1986 H1974 0.950 . S
C1986 C1985 1.398 . S
C1986 C1987 1.391 . S
C1987 H1975 0.950 . S
C1987 C1983 1.393 . S
C1987 C1986 1.391 . S
H1988 C1996 0.950 . S
H1989 C2001 0.950 . S
H1990 C1998 0.950 . S
H1991 C2000 0.950 . S
H1992 C2002 0.950 . S
H1993 C2004 0.950 . S
H1994 C2006 0.950 . S
H1995 C2007 0.950 . S
C1996 H1988 0.950 . S
C1996 C1997 1.386 . S
C1996 C1998 1.391 . S
C1997 C1996 1.386 . S
C1997 C2001 1.393 . S
C1998 H1990 0.950 . S
C1998 C1996 1.391 . S
C1998 C1999 1.400 . S
C1999 C1998 1.400 . S
C1999 C2000 1.398 . S
C1999 C2005 1.491 . S
C2000 H1991 0.950 . S
C2000 C1999 1.398 . S
C2000 C2001 1.391 . S
C2001 H1989 0.950 . S
C2001 C1997 1.393 . S
C2001 C2000 1.391 . S
C2002 H1992 0.950 . S
C2002 C2003 1.386 . S
C2002 C2004 1.391 . S
C2003 C2002 1.386 . S
C2003 C2007 1.393 . S
C2004 H1993 0.950 . S
C2004 C2002 1.391 . S
C2004 C2005 1.400 . S
C2005 C1999 1.491 . S
C2005 C2004 1.400 . S
C2005 C2006 1.398 . S
C2006 H1994 0.950 . S
C2006 C2005 1.398 . S
C2006 C2007 1.391 . S
C2007 H1995 0.950 . S
C2007 C2003 1.393 . S
C2007 C2006 1.391 . S
H2008 C2016 0.950 . S
H2009 C2021 0.950 . S
H2010 C2018 0.950 . S
H2011 C2020 0.950 . S
H2012 C2022 0.950 . S
H2013 C2024 0.950 . S
H2014 C2026 0.950 . S
H2015 C2027 0.950 . S
C2016 H2008 0.950 . S
C2016 C2017 1.386 . S
C2016 C2018 1.391 . S
C2017 C2016 1.386 . S
C2017 C2021 1.393 . S
C2018 H2010 0.950 . S
C2018 C2016 1.391 . S
C2018 C2019 1.400 . S
C2019 C2018 1.400 . S
C2019 C2020 1.398 . S
C2019 C2025 1.491 . S
C2020 H2011 0.950 . S
C2020 C2019 1.398 . S
C2020 C2021 1.391 . S
C2021 H2009 0.950 . S
C2021 C2017 1.393 . S
C2021 C2020 1.391 . S
C2022 H2012 0.950 . S
C2022 C2023 1.386 . S
C2022 C2024 1.391 . S
C2023 C2022 1.386 . S
C2023 C2027 1.393 . S
C2024 H2013 0.950 . S
C2024 C2022 1.391 . S
C2024 C2025 1.400 . S
C2025 C2019 1.491 . S
C2025 C2024 1.400 . S
C2025 C2026 1.398 . S
C2026 H2014 0.950 . S
C2026 C2025 1.398 . S
C2026 C2027 1.391 . S
C2027 H2015 0.950 . S
C2027 C2023 1.393 . S
C2027 C2026 1.391 . S
H2028 C2036 0.950 . S
H2029 C2041 0.950 . S
H2030 C2038 0.950 . S
H2031 C2040 0.950 . S
H2032 C2042 0.950 . S
H2033 C2044 0.950 . S
H2034 C2046 0.950 . S
H2035 C2047 0.950 . S
C2036 H2028 0.950 . S
C2036 C2037 1.386 . S
C2036 C2038 1.391 . S
C2037 C2036 1.386 . S
C2037 C2041 1.393 . S
C2038 H2030 0.950 . S
C2038 C2036 1.391 . S
C2038 C2039 1.400 . S
C2039 C2038 1.400 . S
C2039 C2040 1.398 . S
C2039 C2045 1.491 . S
C2040 H2031 0.950 . S
C2040 C2039 1.398 . S
C2040 C2041 1.391 . S
C2041 H2029 0.950 . S
C2041 C2037 1.393 . S
C2041 C2040 1.391 . S
C2042 H2032 0.950 . S
C2042 C2043 1.386 . S
C2042 C2044 1.391 . S
C2043 C2042 1.386 . S
C2043 C2047 1.393 . S
C2044 H2033 0.950 . S
C2044 C2042 1.391 . S
C2044 C2045 1.400 . S
C2045 C2039 1.491 . S
C2045 C2044 1.400 . S
C2045 C2046 1.398 . S
C2046 H2034 0.950 . S
C2046 C2045 1.398 . S
C2046 C2047 1.391 . S
C2047 H2035 0.950 . S
C2047 C2043 1.393 . S
C2047 C2046 1.391 . S
H2048 C2056 0.950 . S
H2049 C2061 0.950 . S
H2050 C2058 0.950 . S
H2051 C2060 0.950 . S
H2052 C2062 0.950 . S
H2053 C2064 0.950 . S
H2054 C2066 0.950 . S
H2055 C2067 0.950 . S
C2056 H2048 0.950 . S
C2056 C2057 1.386 . S
C2056 C2058 1.391 . S
C2057 C2056 1.386 . S
C2057 C2061 1.393 . S
C2058 H2050 0.950 . S
C2058 C2056 1.391 . S
C2058 C2059 1.400 . S
C2059 C2058 1.400 . S
C2059 C2060 1.398 . S
C2059 C2065 1.491 . S
C2060 H2051 0.950 . S
C2060 C2059 1.398 . S
C2060 C2061 1.391 . S
C2061 H2049 0.950 . S
C2061 C2057 1.393 . S
C2061 C2060 1.391 . S
C2062 H2052 0.950 . S
C2062 C2063 1.386 . S
C2062 C2064 1.391 . S
C2063 C2062 1.386 . S
C2063 C2067 1.393 . S
C2064 H2053 0.950 . S
C2064 C2062 1.391 . S
C2064 C2065 1.400 . S
C2065 C2059 1.491 . S
C2065 C2064 1.400 . S
C2065 C2066 1.398 . S
C2066 H2054 0.950 . S
C2066 C2065 1.398 . S
C2066 C2067 1.391 . S
C2067 H2055 0.950 . S
C2067 C2063 1.393 . S
C2067 C2066 1.391 . S
H2068 C2076 0.950 . S
H2069 C2081 0.950 . S
H2070 C2078 0.950 . S
H2071 C2080 0.950 1_565 S
H2072 C2082 0.950 . S
H2073 C2084 0.950 . S
H2074 C2086 0.950 1_545 S
H2075 C2087 0.950 . S
C2076 H2068 0.950 . S
C2076 C2077 1.386 . S
C2076 C2078 1.391 . S
C2077 C2076 1.386 . S
C2077 C2081 1.393 . S
C2078 H2070 0.950 . S
C2078 C2076 1.391 . S
C2078 C2079 1.400 . S
C2079 C2078 1.400 . S
C2079 C2080 1.398 . S
C2079 C2085 1.491 1_545 S
C2080 H2071 0.950 1_545 S
C2080 C2079 1.398 . S
C2080 C2081 1.391 . S
C2081 H2069 0.950 . S
C2081 C2077 1.393 . S
C2081 C2080 1.391 . S
C2082 H2072 0.950 . S
C2082 C2083 1.386 . S
C2082 C2084 1.391 . S
C2083 C2082 1.386 . S
C2083 C2087 1.393 . S
C2084 H2073 0.950 . S
C2084 C2082 1.391 . S
C2084 C2085 1.400 . S
C2085 C2079 1.491 1_565 S
C2085 C2084 1.400 . S
C2085 C2086 1.398 . S
C2086 H2074 0.950 1_565 S
C2086 C2085 1.398 . S
C2086 C2087 1.391 . S
C2087 H2075 0.950 . S
C2087 C2083 1.393 . S
C2087 C2086 1.391 . S
H2088 C2096 0.950 . S
H2089 C2101 0.950 . S
H2090 C2098 0.950 . S
H2091 C2100 0.950 . S
H2092 C2102 0.950 . S
H2093 C2104 0.950 . S
H2094 C2106 0.950 . S
H2095 C2107 0.950 . S
C2096 H2088 0.950 . S
C2096 C2097 1.386 . S
C2096 C2098 1.391 . S
C2097 C2096 1.386 . S
C2097 C2101 1.393 . S
C2098 H2090 0.950 . S
C2098 C2096 1.391 . S
C2098 C2099 1.400 . S
C2099 C2098 1.400 . S
C2099 C2100 1.398 . S
C2099 C2105 1.491 . S
C2100 H2091 0.950 . S
C2100 C2099 1.398 . S
C2100 C2101 1.391 . S
C2101 H2089 0.950 . S
C2101 C2097 1.393 . S
C2101 C2100 1.391 . S
C2102 H2092 0.950 . S
C2102 C2103 1.386 . S
C2102 C2104 1.391 . S
C2103 C2102 1.386 . S
C2103 C2107 1.393 . S
C2104 H2093 0.950 . S
C2104 C2102 1.391 . S
C2104 C2105 1.400 . S
C2105 C2099 1.491 . S
C2105 C2104 1.400 . S
C2105 C2106 1.398 . S
C2106 H2094 0.950 . S
C2106 C2105 1.398 . S
C2106 C2107 1.391 . S
C2107 H2095 0.950 . S
C2107 C2103 1.393 . S
C2107 C2106 1.391 . S
H2108 C2116 0.950 . S
H2109 C2121 0.950 . S
H2110 C2118 0.881 1_545 S
H2111 C2120 0.950 1_556 S
H2112 C2122 0.950 . S
H2113 C2124 0.881 1_565 S
H2114 C2126 0.950 1_554 S
H2115 C2127 0.950 . S
C2116 H2108 0.950 . S
C2116 C2117 1.386 . S
C2116 C2118 1.439 . S
C2117 C2116 1.386 . S
C2117 C2121 1.393 . S
C2118 H2110 0.881 1_565 S
C2118 C2116 1.439 . S
C2118 C2119 1.423 . S
C2119 C2118 1.423 . S
C2119 C2120 1.398 . S
C2119 C2125 1.491 1_564 S
C2120 H2111 0.950 1_554 S
C2120 C2119 1.398 . S
C2120 C2121 1.391 . S
C2121 H2109 0.950 . S
C2121 C2117 1.393 . S
C2121 C2120 1.391 . S
C2122 H2112 0.950 . S
C2122 C2123 1.386 . S
C2122 C2124 1.439 . S
C2123 C2122 1.386 . S
C2123 C2127 1.393 . S
C2124 H2113 0.881 1_545 S
C2124 C2122 1.439 . S
C2124 C2125 1.423 . S
C2125 C2119 1.491 1_546 S
C2125 C2124 1.423 . S
C2125 C2126 1.398 . S
C2126 H2114 0.950 1_556 S
C2126 C2125 1.398 . S
C2126 C2127 1.391 . S
C2127 H2115 0.950 . S
C2127 C2123 1.393 . S
C2127 C2126 1.391 . S
H2128 C2136 0.950 . S
H2129 C2141 0.950 . S
H2130 C2138 0.950 . S
H2131 C2140 0.950 . S
H2132 C2142 0.950 . S
H2133 C2144 0.950 . S
H2134 C2146 0.950 . S
H2135 C2147 0.950 . S
C2136 H2128 0.950 . S
C2136 C2137 1.386 . S
C2136 C2138 1.391 . S
C2137 C2136 1.386 . S
C2137 C2141 1.393 . S
C2138 H2130 0.950 . S
C2138 C2136 1.391 . S
C2138 C2139 1.400 . S
C2139 C2138 1.400 . S
C2139 C2140 1.398 . S
C2139 C2145 1.491 . S
C2140 H2131 0.950 . S
C2140 C2139 1.398 . S
C2140 C2141 1.391 . S
C2141 H2129 0.950 . S
C2141 C2137 1.393 . S
C2141 C2140 1.391 . S
C2142 H2132 0.950 . S
C2142 C2143 1.386 . S
C2142 C2144 1.391 . S
C2143 C2142 1.386 . S
C2143 C2147 1.393 . S
C2144 H2133 0.950 . S
C2144 C2142 1.391 . S
C2144 C2145 1.400 . S
C2145 C2139 1.491 . S
C2145 C2144 1.400 . S
C2145 C2146 1.398 . S
C2146 H2134 0.950 . S
C2146 C2145 1.398 . S
C2146 C2147 1.391 . S
C2147 H2135 0.950 . S
C2147 C2143 1.393 . S
C2147 C2146 1.391 . S
H2148 C2156 0.950 . S
H2149 C2161 0.950 . S
H2150 C2158 0.921 1_565 S
H2151 C2160 0.950 . S
H2152 C2162 0.950 . S
H2153 C2164 0.921 1_545 S
H2154 C2166 0.950 . S
H2155 C2167 0.950 . S
C2156 H2148 0.950 . S
C2156 C2157 1.386 . S
C2156 C2158 1.391 . S
C2157 C2156 1.386 . S
C2157 C2161 1.393 . S
C2158 H2150 0.921 1_545 S
C2158 C2156 1.391 . S
C2158 C2159 1.400 . S
C2159 C2158 1.400 . S
C2159 C2160 1.398 . S
C2159 C2165 1.491 1_545 S
C2160 H2151 0.950 . S
C2160 C2159 1.398 . S
C2160 C2161 1.391 . S
C2161 H2149 0.950 . S
C2161 C2157 1.393 . S
C2161 C2160 1.391 . S
C2162 H2152 0.950 . S
C2162 C2163 1.386 . S
C2162 C2164 1.391 . S
C2163 C2162 1.386 . S
C2163 C2167 1.393 . S
C2164 H2153 0.921 1_565 S
C2164 C2162 1.391 . S
C2164 C2165 1.400 . S
C2165 C2159 1.491 1_565 S
C2165 C2164 1.400 . S
C2165 C2166 1.398 . S
C2166 H2154 0.950 . S
C2166 C2165 1.398 . S
C2166 C2167 1.391 . S
C2167 H2155 0.950 . S
C2167 C2163 1.393 . S
C2167 C2166 1.391 . S
H2168 C2176 0.950 . S
H2169 C2181 0.950 . S
H2170 C2178 0.950 . S
H2171 C2180 0.950 . S
H2172 C2182 0.950 . S
H2173 C2184 0.950 . S
H2174 C2186 0.950 . S
H2175 C2187 0.950 . S
C2176 H2168 0.950 . S
C2176 C2177 1.386 . S
C2176 C2178 1.391 . S
C2177 C2176 1.386 . S
C2177 C2181 1.393 . S
C2178 H2170 0.950 . S
C2178 C2176 1.391 . S
C2178 C2179 1.400 . S
C2179 C2178 1.400 . S
C2179 C2180 1.398 . S
C2179 C2185 1.491 . S
C2180 H2171 0.950 . S
C2180 C2179 1.398 . S
C2180 C2181 1.391 . S
C2181 H2169 0.950 . S
C2181 C2177 1.393 . S
C2181 C2180 1.391 . S
C2182 H2172 0.950 . S
C2182 C2183 1.386 . S
C2182 C2184 1.391 . S
C2183 C2182 1.386 . S
C2183 C2187 1.393 . S
C2184 H2173 0.950 . S
C2184 C2182 1.391 . S
C2184 C2185 1.400 . S
C2185 C2179 1.491 . S
C2185 C2184 1.400 . S
C2185 C2186 1.398 . S
C2186 H2174 0.950 . S
C2186 C2185 1.398 . S
C2186 C2187 1.391 . S
C2187 H2175 0.950 . S
C2187 C2183 1.393 . S
C2187 C2186 1.391 . S
H2188 C2196 0.950 . S
H2189 C2201 0.950 . S
H2190 C2198 0.950 . S
H2191 C2200 0.950 . S
H2192 C2202 0.950 . S
H2193 C2204 0.950 . S
H2194 C2206 0.950 . S
H2195 C2207 0.950 . S
C2196 H2188 0.950 . S
C2196 C2197 1.386 . S
C2196 C2198 1.391 . S
C2197 C2196 1.386 . S
C2197 C2201 1.393 . S
C2198 H2190 0.950 . S
C2198 C2196 1.391 . S
C2198 C2199 1.400 . S
C2199 C2198 1.400 . S
C2199 C2200 1.398 . S
C2199 C2205 1.491 1_546 S
C2200 H2191 0.950 . S
C2200 C2199 1.398 . S
C2200 C2201 1.391 . S
C2201 H2189 0.950 . S
C2201 C2197 1.393 . S
C2201 C2200 1.391 . S
C2202 H2192 0.950 . S
C2202 C2203 1.386 . S
C2202 C2204 1.391 . S
C2203 C2202 1.386 . S
C2203 C2207 1.393 . S
C2204 H2193 0.950 . S
C2204 C2202 1.391 . S
C2204 C2205 1.400 . S
C2205 C2199 1.491 1_564 S
C2205 C2204 1.400 . S
C2205 C2206 1.398 . S
C2206 H2194 0.950 . S
C2206 C2205 1.398 . S
C2206 C2207 1.391 . S
C2207 H2195 0.950 . S
C2207 C2203 1.393 . S
C2207 C2206 1.391 . S
H2208 C2216 0.950 . S
H2209 C2221 0.950 . S
H2210 C2218 0.950 . S
H2211 C2220 0.950 . S
H2212 C2222 0.950 . S
H2213 C2224 0.950 . S
H2214 C2226 0.950 . S
H2215 C2227 0.950 . S
C2216 H2208 0.950 . S
C2216 C2217 1.386 . S
C2216 C2218 1.391 . S
C2217 C2216 1.386 . S
C2217 C2221 1.393 . S
C2218 H2210 0.950 . S
C2218 C2216 1.391 . S
C2218 C2219 1.400 . S
C2219 C2218 1.400 . S
C2219 C2220 1.398 . S
C2219 C2225 1.491 . S
C2220 H2211 0.950 . S
C2220 C2219 1.398 . S
C2220 C2221 1.391 . S
C2221 H2209 0.950 . S
C2221 C2217 1.393 . S
C2221 C2220 1.391 . S
C2222 H2212 0.950 . S
C2222 C2223 1.386 . S
C2222 C2224 1.391 . S
C2223 C2222 1.386 . S
C2223 C2227 1.393 . S
C2224 H2213 0.950 . S
C2224 C2222 1.391 . S
C2224 C2225 1.400 . S
C2225 C2219 1.491 . S
C2225 C2224 1.400 . S
C2225 C2226 1.398 . S
C2226 H2214 0.950 . S
C2226 C2225 1.398 . S
C2226 C2227 1.391 . S
C2227 H2215 0.950 . S
C2227 C2223 1.393 . S
C2227 C2226 1.391 . S
H2228 C2236 0.950 . S
H2229 C2241 0.950 . S
H2230 C2238 0.950 . S
H2231 C2240 0.950 1_554 S
H2232 C2242 0.950 . S
H2233 C2244 0.950 . S
H2234 C2246 0.950 1_556 S
H2235 C2247 0.950 . S
C2236 H2228 0.950 . S
C2236 C2237 1.386 . S
C2236 C2238 1.391 . S
C2237 C2236 1.386 . S
C2237 C2241 1.393 . S
C2238 H2230 0.950 . S
C2238 C2236 1.391 . S
C2238 C2239 1.400 . S
C2239 C2238 1.400 . S
C2239 C2240 1.398 . S
C2239 C2245 1.491 1_556 S
C2240 H2231 0.950 1_556 S
C2240 C2239 1.398 . S
C2240 C2241 1.391 . S
C2241 H2229 0.950 . S
C2241 C2237 1.393 . S
C2241 C2240 1.391 . S
C2242 H2232 0.950 . S
C2242 C2243 1.386 . S
C2242 C2244 1.391 . S
C2243 C2242 1.386 . S
C2243 C2247 1.393 . S
C2244 H2233 0.950 . S
C2244 C2242 1.391 . S
C2244 C2245 1.400 . S
C2245 C2239 1.491 1_554 S
C2245 C2244 1.400 . S
C2245 C2246 1.398 . S
C2246 H2234 0.950 1_554 S
C2246 C2245 1.398 . S
C2246 C2247 1.391 . S
C2247 H2235 0.950 . S
C2247 C2243 1.393 . S
C2247 C2246 1.391 . S
H2248 C2256 0.950 . S
H2249 C2261 0.950 . S
H2250 C2258 0.950 . S
H2251 C2260 0.950 . S
H2252 C2262 0.950 . S
H2253 C2264 0.950 . S
H2254 C2266 0.950 . S
H2255 C2267 0.950 . S
C2256 H2248 0.950 . S
C2256 C2257 1.386 . S
C2256 C2258 1.391 . S
C2257 C2256 1.386 . S
C2257 C2261 1.393 . S
C2258 H2250 0.950 . S
C2258 C2256 1.391 . S
C2258 C2259 1.400 . S
C2259 C2258 1.400 . S
C2259 C2260 1.398 . S
C2259 C2265 1.491 . S
C2260 H2251 0.950 . S
C2260 C2259 1.398 . S
C2260 C2261 1.391 . S
C2261 H2249 0.950 . S
C2261 C2257 1.393 . S
C2261 C2260 1.391 . S
C2262 H2252 0.950 . S
C2262 C2263 1.386 . S
C2262 C2264 1.391 . S
C2263 C2262 1.386 . S
C2263 C2267 1.393 . S
C2264 H2253 0.950 . S
C2264 C2262 1.391 . S
C2264 C2265 1.400 . S
C2265 C2259 1.491 . S
C2265 C2264 1.400 . S
C2265 C2266 1.398 . S
C2266 H2254 0.950 . S
C2266 C2265 1.398 . S
C2266 C2267 1.391 . S
C2267 H2255 0.950 . S
C2267 C2263 1.393 . S
C2267 C2266 1.391 . S
H2268 C2276 0.950 . S
H2269 C2281 0.950 . S
H2270 C2278 0.950 . S
H2271 C2280 0.950 . S
H2272 C2282 0.950 . S
H2273 C2284 0.950 . S
H2274 C2286 0.950 . S
H2275 C2287 0.950 . S
C2276 H2268 0.950 . S
C2276 C2277 1.386 . S
C2276 C2278 1.391 . S
C2277 C2276 1.386 . S
C2277 C2281 1.393 . S
C2278 H2270 0.950 . S
C2278 C2276 1.391 . S
C2278 C2279 1.400 . S
C2279 C2278 1.400 . S
C2279 C2280 1.398 . S
C2279 C2285 1.491 . S
C2280 H2271 0.950 . S
C2280 C2279 1.398 . S
C2280 C2281 1.391 . S
C2281 H2269 0.950 . S
C2281 C2277 1.393 . S
C2281 C2280 1.391 . S
C2282 H2272 0.950 . S
C2282 C2283 1.386 . S
C2282 C2284 1.391 . S
C2283 C2282 1.386 . S
C2283 C2287 1.393 . S
C2284 H2273 0.950 . S
C2284 C2282 1.391 . S
C2284 C2285 1.400 . S
C2285 C2279 1.491 . S
C2285 C2284 1.400 . S
C2285 C2286 1.398 . S
C2286 H2274 0.950 . S
C2286 C2285 1.398 . S
C2286 C2287 1.391 . S
C2287 H2275 0.950 . S
C2287 C2283 1.393 . S
C2287 C2286 1.391 . S
H2288 C2296 0.950 . S
H2289 C2301 0.950 . S
H2290 C2298 0.950 . S
H2291 C2300 0.950 . S
H2292 C2302 0.950 . S
H2293 C2304 0.950 . S
H2294 C2306 0.950 . S
H2295 C2307 0.950 . S
C2296 H2288 0.950 . S
C2296 C2297 1.386 . S
C2296 C2298 1.391 . S
C2297 C2296 1.386 . S
C2297 C2301 1.393 . S
C2298 H2290 0.950 . S
C2298 C2296 1.391 . S
C2298 C2299 1.400 . S
C2299 C2298 1.400 . S
C2299 C2300 1.398 . S
C2299 C2305 1.491 . S
C2300 H2291 0.950 . S
C2300 C2299 1.398 . S
C2300 C2301 1.391 . S
C2301 H2289 0.950 . S
C2301 C2297 1.393 . S
C2301 C2300 1.391 . S
C2302 H2292 0.950 . S
C2302 C2303 1.386 . S
C2302 C2304 1.391 . S
C2303 C2302 1.386 . S
C2303 C2307 1.393 . S
C2304 H2293 0.950 . S
C2304 C2302 1.391 . S
C2304 C2305 1.400 . S
C2305 C2299 1.491 . S
C2305 C2304 1.400 . S
C2305 C2306 1.398 . S
C2306 H2294 0.950 . S
C2306 C2305 1.398 . S
C2306 C2307 1.391 . S
C2307 H2295 0.950 . S
C2307 C2303 1.393 . S
C2307 C2306 1.391 . S
H2308 C2316 0.950 . S
H2309 C2321 0.950 . S
H2310 C2318 0.950 1_554 S
H2311 C2320 0.950 . S
H2312 C2322 0.950 . S
H2313 C2324 0.950 1_556 S
H2314 C2326 0.950 . S
H2315 C2327 0.950 . S
C2316 H2308 0.950 . S
C2316 C2317 1.386 . S
C2316 C2318 1.391 . S
C2317 C2316 1.386 . S
C2317 C2321 1.393 . S
C2318 H2310 0.950 1_556 S
C2318 C2316 1.391 . S
C2318 C2319 1.400 . S
C2319 C2318 1.400 . S
C2319 C2320 1.398 . S
C2319 C2325 1.491 1_556 S
C2320 H2311 0.950 . S
C2320 C2319 1.398 . S
C2320 C2321 1.391 . S
C2321 H2309 0.950 . S
C2321 C2317 1.393 . S
C2321 C2320 1.391 . S
C2322 H2312 0.950 . S
C2322 C2323 1.386 . S
C2322 C2324 1.391 . S
C2323 C2322 1.386 . S
C2323 C2327 1.393 . S
C2324 H2313 0.950 1_554 S
C2324 C2322 1.391 . S
C2324 C2325 1.400 . S
C2325 C2319 1.491 1_554 S
C2325 C2324 1.400 . S
C2325 C2326 1.398 . S
C2326 H2314 0.950 . S
C2326 C2325 1.398 . S
C2326 C2327 1.391 . S
C2327 H2315 0.950 . S
C2327 C2323 1.393 . S
C2327 C2326 1.391 . S
H2328 C2336 0.950 . S
H2329 C2341 0.950 . S
H2330 C2338 0.950 . S
H2331 C2340 0.950 . S
H2332 C2342 0.950 . S
H2333 C2344 0.950 . S
H2334 C2346 0.950 . S
H2335 C2347 0.950 . S
C2336 H2328 0.950 . S
C2336 C2337 1.386 . S
C2336 C2338 1.391 . S
C2337 C2336 1.386 . S
C2337 C2341 1.393 . S
C2338 H2330 0.950 . S
C2338 C2336 1.391 . S
C2338 C2339 1.400 . S
C2339 C2338 1.400 . S
C2339 C2340 1.398 . S
C2339 C2345 1.491 . S
C2340 H2331 0.950 . S
C2340 C2339 1.398 . S
C2340 C2341 1.391 . S
C2341 H2329 0.950 . S
C2341 C2337 1.393 . S
C2341 C2340 1.391 . S
C2342 H2332 0.950 . S
C2342 C2343 1.386 . S
C2342 C2344 1.391 . S
C2343 C2342 1.386 . S
C2343 C2347 1.393 . S
C2344 H2333 0.950 . S
C2344 C2342 1.391 . S
C2344 C2345 1.400 . S
C2345 C2339 1.491 . S
C2345 C2344 1.400 . S
C2345 C2346 1.398 . S
C2346 H2334 0.950 . S
C2346 C2345 1.398 . S
C2346 C2347 1.391 . S
C2347 H2335 0.950 . S
C2347 C2343 1.393 . S
C2347 C2346 1.391 . S
H2348 C2356 0.950 . S
H2349 C2361 0.950 . S
H2350 C2358 0.950 . S
H2351 C2360 0.950 . S
H2352 C2362 0.950 . S
H2353 C2364 0.950 . S
H2354 C2366 0.950 . S
H2355 C2367 0.950 . S
C2356 H2348 0.950 . S
C2356 C2357 1.386 . S
C2356 C2358 1.391 . S
C2357 C2356 1.386 . S
C2357 C2361 1.393 . S
C2358 H2350 0.950 . S
C2358 C2356 1.391 . S
C2358 C2359 1.400 . S
C2359 C2358 1.400 . S
C2359 C2360 1.398 . S
C2359 C2365 1.491 . S
C2360 H2351 0.950 . S
C2360 C2359 1.398 . S
C2360 C2361 1.391 . S
C2361 H2349 0.950 . S
C2361 C2357 1.393 . S
C2361 C2360 1.391 . S
C2362 H2352 0.950 . S
C2362 C2363 1.386 . S
C2362 C2364 1.391 . S
C2363 C2362 1.386 . S
C2363 C2367 1.393 . S
C2364 H2353 0.950 . S
C2364 C2362 1.391 . S
C2364 C2365 1.400 . S
C2365 C2359 1.491 . S
C2365 C2364 1.400 . S
C2365 C2366 1.398 . S
C2366 H2354 0.950 . S
C2366 C2365 1.398 . S
C2366 C2367 1.391 . S
C2367 H2355 0.950 . S
C2367 C2363 1.393 . S
C2367 C2366 1.391 . S
H2368 C2376 0.950 . S
H2369 C2381 0.950 . S
H2370 C2378 0.950 . S
H2371 C2380 0.950 . S
H2372 C2382 0.950 . S
H2373 C2384 0.950 . S
H2374 C2386 0.950 . S
H2375 C2387 0.950 . S
C2376 H2368 0.950 . S
C2376 C2377 1.386 . S
C2376 C2378 1.391 . S
C2377 C2376 1.386 . S
C2377 C2381 1.393 1_556 S
C2378 H2370 0.950 . S
C2378 C2376 1.391 . S
C2378 C2379 1.400 . S
C2379 C2378 1.400 . S
C2379 C2380 1.398 . S
C2379 C2385 1.491 . S
C2380 H2371 0.950 . S
C2380 C2379 1.398 . S
C2380 C2381 1.391 1_556 S
C2381 H2369 0.950 . S
C2381 C2377 1.393 1_554 S
C2381 C2380 1.391 1_554 S
C2382 H2372 0.950 . S
C2382 C2383 1.386 . S
C2382 C2384 1.391 . S
C2383 C2382 1.386 . S
C2383 C2387 1.393 . S
C2384 H2373 0.950 . S
C2384 C2382 1.391 . S
C2384 C2385 1.400 . S
C2385 C2379 1.491 . S
C2385 C2384 1.400 . S
C2385 C2386 1.398 . S
C2386 H2374 0.950 . S
C2386 C2385 1.398 . S
C2386 C2387 1.391 . S
C2387 H2375 0.950 . S
C2387 C2383 1.393 . S
C2387 C2386 1.391 . S
H2388 C2396 0.950 1_556 S
H2389 C2401 0.950 . S
H2390 C2398 0.950 . S
H2391 C2400 0.950 . S
H2392 C2402 0.950 . S
H2393 C2404 0.950 . S
H2394 C2406 0.950 . S
H2395 C2407 0.950 . S
C2396 H2388 0.950 1_554 S
C2396 C2397 1.386 . S
C2396 C2398 1.391 . S
C2397 C2396 1.386 . S
C2397 C2401 1.393 . S
C2398 H2390 0.950 . S
C2398 C2396 1.391 . S
C2398 C2399 1.400 . S
C2399 C2398 1.400 . S
C2399 C2400 1.398 . S
C2399 C2405 1.491 . S
C2400 H2391 0.950 . S
C2400 C2399 1.398 . S
C2400 C2401 1.391 . S
C2401 H2389 0.950 . S
C2401 C2397 1.393 . S
C2401 C2400 1.391 . S
C2402 H2392 0.950 . S
C2402 C2403 1.386 . S
C2402 C2404 1.391 . S
C2403 C2402 1.386 . S
C2403 C2407 1.393 . S
C2404 H2393 0.950 . S
C2404 C2402 1.391 . S
C2404 C2405 1.400 . S
C2405 C2399 1.491 . S
C2405 C2404 1.400 . S
C2405 C2406 1.398 . S
C2406 H2394 0.950 . S
C2406 C2405 1.398 . S
C2406 C2407 1.391 . S
C2407 H2395 0.950 . S
C2407 C2403 1.393 . S
C2407 C2406 1.391 . S
H2408 C2416 0.950 . S
H2409 C2421 0.950 . S
H2410 C2418 0.950 . S
H2411 C2420 0.950 . S
H2412 C2422 0.950 . S
H2413 C2424 0.950 . S
H2414 C2426 0.950 . S
H2415 C2427 0.950 . S
C2416 H2408 0.950 . S
C2416 C2417 1.386 . S
C2416 C2418 1.391 . S
C2417 C2416 1.386 . S
C2417 C2421 1.393 . S
C2418 H2410 0.950 . S
C2418 C2416 1.391 . S
C2418 C2419 1.400 . S
C2419 C2418 1.400 . S
C2419 C2420 1.398 . S
C2419 C2425 1.491 . S
C2420 H2411 0.950 . S
C2420 C2419 1.398 . S
C2420 C2421 1.391 . S
C2421 H2409 0.950 . S
C2421 C2417 1.393 . S
C2421 C2420 1.391 . S
C2422 H2412 0.950 . S
C2422 C2423 1.386 . S
C2422 C2424 1.391 . S
C2423 C2422 1.386 . S
C2423 C2427 1.393 . S
C2424 H2413 0.950 . S
C2424 C2422 1.391 . S
C2424 C2425 1.400 . S
C2425 C2419 1.491 . S
C2425 C2424 1.400 . S
C2425 C2426 1.398 . S
C2426 H2414 0.950 . S
C2426 C2425 1.398 . S
C2426 C2427 1.391 . S
C2427 H2415 0.950 . S
C2427 C2423 1.393 . S
C2427 C2426 1.391 . S
H2428 C2436 0.950 . S
H2429 C2441 0.950 . S
H2430 C2438 0.950 . S
H2431 C2440 0.950 . S
H2432 C2442 0.950 . S
H2433 C2444 0.950 . S
H2434 C2446 0.950 . S
H2435 C2447 0.950 . S
C2436 H2428 0.950 . S
C2436 C2437 1.386 . S
C2436 C2438 1.391 . S
C2437 C2436 1.386 . S
C2437 C2441 1.393 . S
C2438 H2430 0.950 . S
C2438 C2436 1.391 . S
C2438 C2439 1.400 . S
C2439 C2438 1.400 . S
C2439 C2440 1.398 . S
C2439 C2445 1.491 . S
C2440 H2431 0.950 . S
C2440 C2439 1.398 . S
C2440 C2441 1.391 . S
C2441 H2429 0.950 . S
C2441 C2437 1.393 . S
C2441 C2440 1.391 . S
C2442 H2432 0.950 . S
C2442 C2443 1.386 . S
C2442 C2444 1.391 . S
C2443 C2442 1.386 . S
C2443 C2447 1.393 . S
C2444 H2433 0.950 . S
C2444 C2442 1.391 . S
C2444 C2445 1.400 . S
C2445 C2439 1.491 . S
C2445 C2444 1.400 . S
C2445 C2446 1.398 . S
C2446 H2434 0.950 . S
C2446 C2445 1.398 . S
C2446 C2447 1.391 . S
C2447 H2435 0.950 . S
C2447 C2443 1.393 . S
C2447 C2446 1.391 . S
H2448 C2456 0.950 . S
H2449 C2461 0.950 . S
H2450 C2458 0.950 . S
H2451 C2460 0.950 . S
H2452 C2462 0.950 . S
H2453 C2464 0.950 . S
H2454 C2466 0.950 . S
H2455 C2467 0.950 . S
C2456 H2448 0.950 . S
C2456 C2457 1.386 . S
C2456 C2458 1.391 . S
C2457 C2456 1.386 . S
C2457 C2461 1.393 1_554 S
C2458 H2450 0.950 . S
C2458 C2456 1.391 . S
C2458 C2459 1.400 . S
C2459 C2458 1.400 . S
C2459 C2460 1.398 . S
C2459 C2465 1.491 . S
C2460 H2451 0.950 . S
C2460 C2459 1.398 . S
C2460 C2461 1.391 1_554 S
C2461 H2449 0.950 . S
C2461 C2457 1.393 1_556 S
C2461 C2460 1.391 1_556 S
C2462 H2452 0.950 . S
C2462 C2463 1.386 . S
C2462 C2464 1.391 . S
C2463 C2462 1.386 . S
C2463 C2467 1.393 . S
C2464 H2453 0.950 . S
C2464 C2462 1.391 . S
C2464 C2465 1.400 . S
C2465 C2459 1.491 . S
C2465 C2464 1.400 . S
C2465 C2466 1.398 . S
C2466 H2454 0.950 . S
C2466 C2465 1.398 . S
C2466 C2467 1.391 . S
C2467 H2455 0.950 . S
C2467 C2463 1.393 . S
C2467 C2466 1.391 . S
H2468 C2476 0.950 . S
H2469 C2481 0.950 . S
H2470 C2478 0.950 . S
H2471 C2480 0.950 . S
H2472 C2482 0.950 . S
H2473 C2484 0.950 . S
H2474 C2486 0.950 . S
H2475 C2487 0.950 . S
C2476 H2468 0.950 . S
C2476 C2477 1.386 . S
C2476 C2478 1.391 . S
C2477 C2476 1.386 . S
C2477 C2481 1.393 . S
C2478 H2470 0.950 . S
C2478 C2476 1.391 . S
C2478 C2479 1.400 . S
C2479 C2478 1.400 . S
C2479 C2480 1.398 . S
C2479 C2485 1.491 . S
C2480 H2471 0.950 . S
C2480 C2479 1.398 . S
C2480 C2481 1.391 . S
C2481 H2469 0.950 . S
C2481 C2477 1.393 . S
C2481 C2480 1.391 . S
C2482 H2472 0.950 . S
C2482 C2483 1.386 . S
C2482 C2484 1.391 . S
C2483 C2482 1.386 . S
C2483 C2487 1.393 . S
C2484 H2473 0.950 . S
C2484 C2482 1.391 . S
C2484 C2485 1.400 . S
C2485 C2479 1.491 . S
C2485 C2484 1.400 . S
C2485 C2486 1.398 . S
C2486 H2474 0.950 . S
C2486 C2485 1.398 . S
C2486 C2487 1.391 . S
C2487 H2475 0.950 . S
C2487 C2483 1.393 . S
C2487 C2486 1.391 . S
H2488 C2496 0.950 . S
H2489 C2501 0.950 . S
H2490 C2498 0.950 . S
H2491 C2500 0.950 . S
H2492 C2502 0.950 . S
H2493 C2504 0.950 . S
H2494 C2506 0.950 . S
H2495 C2507 0.950 . S
C2496 H2488 0.950 . S
C2496 C2497 1.386 . S
C2496 C2498 1.391 . S
C2497 C2496 1.386 . S
C2497 C2501 1.393 . S
C2498 H2490 0.950 . S
C2498 C2496 1.391 . S
C2498 C2499 1.400 . S
C2499 C2498 1.400 . S
C2499 C2500 1.398 . S
C2499 C2505 1.491 . S
C2500 H2491 0.950 . S
C2500 C2499 1.398 . S
C2500 C2501 1.391 . S
C2501 H2489 0.950 . S
C2501 C2497 1.393 . S
C2501 C2500 1.391 . S
C2502 H2492 0.950 . S
C2502 C2503 1.386 . S
C2502 C2504 1.391 . S
C2503 C2502 1.386 . S
C2503 C2507 1.393 . S
C2504 H2493 0.950 . S
C2504 C2502 1.391 . S
C2504 C2505 1.400 . S
C2505 C2499 1.491 . S
C2505 C2504 1.400 . S
C2505 C2506 1.398 . S
C2506 H2494 0.950 . S
C2506 C2505 1.398 . S
C2506 C2507 1.391 . S
C2507 H2495 0.950 . S
C2507 C2503 1.393 . S
C2507 C2506 1.391 . S
H2508 C2516 0.950 . S
H2509 C2521 0.950 . S
H2510 C2518 0.950 . S
H2511 C2520 0.950 . S
H2512 C2522 0.950 . S
H2513 C2524 0.950 . S
H2514 C2526 0.950 . S
H2515 C2527 0.950 . S
C2516 H2508 0.950 . S
C2516 C2517 1.386 . S
C2516 C2518 1.391 . S
C2517 C2516 1.386 . S
C2517 C2521 1.393 . S
C2518 H2510 0.950 . S
C2518 C2516 1.391 . S
C2518 C2519 1.400 . S
C2519 C2518 1.400 . S
C2519 C2520 1.398 . S
C2519 C2525 1.491 . S
C2520 H2511 0.950 . S
C2520 C2519 1.398 . S
C2520 C2521 1.391 . S
C2521 H2509 0.950 . S
C2521 C2517 1.393 . S
C2521 C2520 1.391 . S
C2522 H2512 0.950 . S
C2522 C2523 1.386 . S
C2522 C2524 1.391 . S
C2523 C2522 1.386 . S
C2523 C2527 1.393 . S
C2524 H2513 0.950 . S
C2524 C2522 1.391 . S
C2524 C2525 1.400 . S
C2525 C2519 1.491 . S
C2525 C2524 1.400 . S
C2525 C2526 1.398 . S
C2526 H2514 0.950 . S
C2526 C2525 1.398 . S
C2526 C2527 1.391 . S
C2527 H2515 0.950 . S
C2527 C2523 1.393 . S
C2527 C2526 1.391 . S
H2528 C2536 0.950 . S
H2529 C2541 0.950 . S
H2530 C2538 0.950 . S
H2531 C2540 0.950 . S
H2532 C2542 0.950 . S
H2533 C2544 0.950 . S
H2534 C2546 0.950 . S
H2535 C2547 0.950 . S
C2536 H2528 0.950 . S
C2536 C2537 1.386 . S
C2536 C2538 1.391 . S
C2537 C2536 1.386 . S
C2537 C2541 1.393 . S
C2538 H2530 0.950 . S
C2538 C2536 1.391 . S
C2538 C2539 1.400 . S
C2539 C2538 1.400 . S
C2539 C2540 1.398 . S
C2539 C2545 1.491 . S
C2540 H2531 0.950 . S
C2540 C2539 1.398 . S
C2540 C2541 1.391 . S
C2541 H2529 0.950 . S
C2541 C2537 1.393 . S
C2541 C2540 1.391 . S
C2542 H2532 0.950 . S
C2542 C2543 1.386 . S
C2542 C2544 1.391 . S
C2543 C2542 1.386 . S
C2543 C2547 1.393 . S
C2544 H2533 0.950 . S
C2544 C2542 1.391 . S
C2544 C2545 1.400 . S
C2545 C2539 1.491 . S
C2545 C2544 1.400 . S
C2545 C2546 1.398 . S
C2546 H2534 0.950 . S
C2546 C2545 1.398 . S
C2546 C2547 1.391 . S
C2547 H2535 0.950 . S
C2547 C2543 1.393 . S
C2547 C2546 1.391 . S
H2548 C2556 0.950 . S
H2549 C2561 0.950 . S
H2550 C2558 0.950 . S
H2551 C2560 0.950 . S
H2552 C2562 0.950 . S
H2553 C2564 0.950 . S
H2554 C2566 0.950 . S
H2555 C2567 0.950 . S
C2556 H2548 0.950 . S
C2556 C2557 1.386 . S
C2556 C2558 1.391 . S
C2557 C2556 1.386 . S
C2557 C2561 1.393 . S
C2558 H2550 0.950 . S
C2558 C2556 1.391 . S
C2558 C2559 1.400 . S
C2559 C2558 1.400 . S
C2559 C2560 1.398 . S
C2559 C2565 1.491 . S
C2560 H2551 0.950 . S
C2560 C2559 1.398 . S
C2560 C2561 1.391 . S
C2561 H2549 0.950 . S
C2561 C2557 1.393 . S
C2561 C2560 1.391 . S
C2562 H2552 0.950 . S
C2562 C2563 1.386 . S
C2562 C2564 1.391 . S
C2563 C2562 1.386 . S
C2563 C2567 1.393 . S
C2564 H2553 0.950 . S
C2564 C2562 1.391 . S
C2564 C2565 1.400 . S
C2565 C2559 1.491 . S
C2565 C2564 1.400 . S
C2565 C2566 1.398 . S
C2566 H2554 0.950 . S
C2566 C2565 1.398 . S
C2566 C2567 1.391 . S
C2567 H2555 0.950 . S
C2567 C2563 1.393 . S
C2567 C2566 1.391 . S
H2568 C2576 0.950 . S
H2569 C2581 0.950 . S
H2570 C2578 0.950 . S
H2571 C2580 0.950 . S
H2572 C2582 0.950 . S
H2573 C2584 0.950 . S
H2574 C2586 0.950 . S
H2575 C2587 0.950 1_554 S
C2576 H2568 0.950 . S
C2576 C2577 1.386 . S
C2576 C2578 1.391 . S
C2577 C2576 1.386 . S
C2577 C2581 1.393 . S
C2578 H2570 0.950 . S
C2578 C2576 1.391 . S
C2578 C2579 1.400 . S
C2579 C2578 1.400 . S
C2579 C2580 1.398 . S
C2579 C2585 1.491 . S
C2580 H2571 0.950 . S
C2580 C2579 1.398 . S
C2580 C2581 1.391 . S
C2581 H2569 0.950 . S
C2581 C2577 1.393 . S
C2581 C2580 1.391 . S
C2582 H2572 0.950 . S
C2582 C2583 1.386 . S
C2582 C2584 1.391 . S
C2583 C2582 1.386 . S
C2583 C2587 1.393 . S
C2584 H2573 0.950 . S
C2584 C2582 1.391 . S
C2584 C2585 1.400 . S
C2585 C2579 1.491 . S
C2585 C2584 1.400 . S
C2585 C2586 1.398 . S
C2586 H2574 0.950 . S
C2586 C2585 1.398 . S
C2586 C2587 1.391 . S
C2587 H2575 0.950 1_556 S
C2587 C2583 1.393 . S
C2587 C2586 1.391 . S
H2588 C2596 0.950 . S
H2589 C2601 0.950 . S
H2590 C2598 0.950 . S
H2591 C2600 0.950 . S
H2592 C2602 0.950 . S
H2593 C2604 0.950 . S
H2594 C2606 0.950 . S
H2595 C2607 0.945 1_556 S
C2596 H2588 0.950 . S
C2596 C2597 1.386 . S
C2596 C2598 1.391 . S
C2597 C2596 1.386 . S
C2597 C2601 1.393 . S
C2598 H2590 0.950 . S
C2598 C2596 1.391 . S
C2598 C2599 1.400 . S
C2599 C2598 1.400 . S
C2599 C2600 1.398 . S
C2599 C2605 1.491 . S
C2600 H2591 0.950 . S
C2600 C2599 1.398 . S
C2600 C2601 1.391 . S
C2601 H2589 0.950 . S
C2601 C2597 1.393 . S
C2601 C2600 1.391 . S
C2602 H2592 0.950 . S
C2602 C2603 1.386 . S
C2602 C2604 1.391 . S
C2603 C2602 1.386 . S
C2603 C2607 1.393 . S
C2604 H2593 0.950 . S
C2604 C2602 1.391 . S
C2604 C2605 1.400 . S
C2605 C2599 1.491 . S
C2605 C2604 1.400 . S
C2605 C2606 1.398 . S
C2606 H2594 0.950 . S
C2606 C2605 1.398 . S
C2606 C2607 1.391 . S
C2607 H2595 0.945 1_554 S
C2607 C2603 1.393 . S
C2607 C2606 1.391 . S
H2608 C2616 0.950 . S
H2609 C2621 0.950 . S
H2610 C2618 0.950 . S
H2611 C2620 0.950 . S
H2612 C2622 0.950 . S
H2613 C2624 0.950 . S
H2614 C2626 0.950 . S
H2615 C2627 0.950 . S
C2616 H2608 0.950 . S
C2616 C2617 1.386 . S
C2616 C2618 1.391 . S
C2617 C2616 1.386 . S
C2617 C2621 1.393 . S
C2618 H2610 0.950 . S
C2618 C2616 1.391 . S
C2618 C2619 1.400 . S
C2619 C2618 1.400 . S
C2619 C2620 1.398 . S
C2619 C2625 1.491 . S
C2620 H2611 0.950 . S
C2620 C2619 1.398 . S
C2620 C2621 1.391 . S
C2621 H2609 0.950 . S
C2621 C2617 1.393 . S
C2621 C2620 1.391 . S
C2622 H2612 0.950 . S
C2622 C2623 1.386 . S
C2622 C2624 1.391 . S
C2623 C2622 1.386 . S
C2623 C2627 1.393 . S
C2624 H2613 0.950 . S
C2624 C2622 1.391 . S
C2624 C2625 1.400 . S
C2625 C2619 1.491 . S
C2625 C2624 1.400 . S
C2625 C2626 1.398 . S
C2626 H2614 0.950 . S
C2626 C2625 1.398 . S
C2626 C2627 1.391 . S
C2627 H2615 0.950 . S
C2627 C2623 1.393 . S
C2627 C2626 1.391 . S
H2628 C2636 0.950 . S
H2629 C2641 0.950 . S
H2630 C2638 0.950 . S
H2631 C2640 0.950 . S
H2632 C2642 0.950 . S
H2633 C2644 0.950 . S
H2634 C2646 0.950 . S
H2635 C2647 0.950 . S
C2636 H2628 0.950 . S
C2636 C2637 1.386 . S
C2636 C2638 1.391 . S
C2637 C2636 1.386 . S
C2637 C2641 1.393 . S
C2638 H2630 0.950 . S
C2638 C2636 1.391 . S
C2638 C2639 1.400 . S
C2639 C2638 1.400 . S
C2639 C2640 1.398 . S
C2639 C2645 1.491 . S
C2640 H2631 0.950 . S
C2640 C2639 1.398 . S
C2640 C2641 1.391 . S
C2641 H2629 0.950 . S
C2641 C2637 1.393 . S
C2641 C2640 1.391 . S
C2642 H2632 0.950 . S
C2642 C2643 1.386 . S
C2642 C2644 1.391 . S
C2643 C2642 1.386 . S
C2643 C2647 1.393 . S
C2644 H2633 0.950 . S
C2644 C2642 1.391 . S
C2644 C2645 1.400 . S
C2645 C2639 1.491 . S
C2645 C2644 1.400 . S
C2645 C2646 1.398 . S
C2646 H2634 0.950 . S
C2646 C2645 1.398 . S
C2646 C2647 1.391 . S
C2647 H2635 0.950 . S
C2647 C2643 1.393 . S
C2647 C2646 1.391 . S
H2648 C2656 0.950 . S
H2649 C2661 0.950 . S
H2650 C2658 0.950 . S
H2651 C2660 0.950 . S
H2652 C2662 0.950 . S
H2653 C2664 0.950 . S
H2654 C2666 0.950 . S
H2655 C2667 0.950 . S
C2656 H2648 0.950 . S
C2656 C2657 1.386 . S
C2656 C2658 1.391 . S
C2657 C2656 1.386 . S
C2657 C2661 1.393 . S
C2658 H2650 0.950 . S
C2658 C2656 1.391 . S
C2658 C2659 1.400 . S
C2659 C2658 1.400 . S
C2659 C2660 1.398 . S
C2659 C2665 1.491 . S
C2660 H2651 0.950 . S
C2660 C2659 1.398 . S
C2660 C2661 1.391 . S
C2661 H2649 0.950 . S
C2661 C2657 1.393 . S
C2661 C2660 1.391 . S
C2662 H2652 0.950 . S
C2662 C2663 1.386 . S
C2662 C2664 1.391 . S
C2663 C2662 1.386 . S
C2663 C2667 1.393 . S
C2664 H2653 0.950 . S
C2664 C2662 1.391 . S
C2664 C2665 1.400 . S
C2665 C2659 1.491 . S
C2665 C2664 1.400 . S
C2665 C2666 1.398 . S
C2666 H2654 0.950 . S
C2666 C2665 1.398 . S
C2666 C2667 1.391 . S
C2667 H2655 0.950 . S
C2667 C2663 1.393 . S
C2667 C2666 1.391 . S
H2668 C2676 0.950 . S
H2669 C2681 0.950 . S
H2670 C2678 0.950 . S
H2671 C2680 0.950 . S
H2672 C2682 0.950 . S
H2673 C2684 0.950 . S
H2674 C2686 0.950 . S
H2675 C2687 0.950 . S
C2676 H2668 0.950 . S
C2676 C2677 1.386 . S
C2676 C2678 1.391 . S
C2677 C2676 1.386 . S
C2677 C2681 1.393 1_556 S
C2678 H2670 0.950 . S
C2678 C2676 1.391 . S
C2678 C2679 1.400 . S
C2679 C2678 1.400 . S
C2679 C2680 1.398 . S
C2679 C2685 1.491 . S
C2680 H2671 0.950 . S
C2680 C2679 1.398 . S
C2680 C2681 1.391 1_556 S
C2681 H2669 0.950 . S
C2681 C2677 1.393 1_554 S
C2681 C2680 1.391 1_554 S
C2682 H2672 0.950 . S
C2682 C2683 1.386 . S
C2682 C2684 1.391 . S
C2683 C2682 1.386 . S
C2683 C2687 1.393 . S
C2684 H2673 0.950 . S
C2684 C2682 1.391 . S
C2684 C2685 1.400 . S
C2685 C2679 1.491 . S
C2685 C2684 1.400 . S
C2685 C2686 1.398 . S
C2686 H2674 0.950 . S
C2686 C2685 1.398 . S
C2686 C2687 1.391 . S
C2687 H2675 0.950 . S
C2687 C2683 1.393 . S
C2687 C2686 1.391 . S
C1097 C1022 1.744 . S
C1103 C2 1.746 . S
C1117 C36 1.744 . S
C1123 C512 1.746 . S
C1137 C70 1.745 . S
C1143 C954 1.745 . S
C1157 C104 1.744 . S
C1163 C444 1.746 . S
C1177 C886 1.746 . S
C1183 C138 1.744 . S
C1197 C376 1.746 . S
C1203 C172 1.744 . S
C1217 C206 1.745 . S
C1223 C818 1.745 . S
C1237 C308 1.745 . S
C1243 C240 1.745 . S
C1257 C750 1.745 . S
C1263 C274 1.745 . S
C1277 C682 1.746 . S
C1283 C342 1.744 . S
C1297 C410 1.745 . S
C1303 C614 1.744 . S
C1317 C546 1.744 . S
C1323 C478 1.746 . S
C1337 C1056 1.746 . S
C1343 C580 1.745 . S
C1357 C988 1.746 . S
C1363 C648 1.744 . S
C1377 C920 1.744 . S
C1383 C716 1.746 . S
C1397 C852 1.747 . S
C1403 C784 1.744 . S
C1417 C5 0.969 . S
C1423 C9 0.975 . S
C1437 C39 0.973 . S
C1443 C43 0.989 . S
C1457 C73 0.969 . S
C1463 C77 0.974 . S
C1477 C107 0.976 1_554 S
C1483 C111 0.991 . S
C1497 C141 0.981 . S
C1503 C145 0.963 . S
C1517 C175 0.984 1_556 S
C1523 C179 0.993 . S
C1537 C213 0.975 . S
C1543 C209 0.968 . S
C1557 C243 0.995 . S
C1563 C247 0.977 . S
C1577 C277 0.979 . S
C1583 C281 0.992 . S
C1597 C315 0.983 . S
C1603 C311 0.969 . S
C1617 C345 0.994 . S
C1623 C349 0.982 . S
C1637 C379 0.969 1_556 S
C1643 C383 0.982 . S
C1657 C413 0.979 . S
C1663 C417 0.992 . S
C1677 C451 0.992 . S
C1683 C447 0.985 1_554 S
C1697 C481 0.985 . S
C1703 C485 0.963 . S
C1717 C519 0.992 . S
C1723 C515 0.987 . S
C1737 C553 0.964 . S
C1743 C549 0.976 . S
C1757 C583 0.995 1_554 S
C1763 C587 0.976 . S
C1777 C621 0.965 . S
C1783 C617 0.975 . S
C1797 C655 0.979 . S
C1803 C651 0.995 . S
C1817 C689 0.963 . S
C1823 C685 0.978 . S
C1837 C723 0.973 . S
C1843 C719 0.994 . S
C1857 C757 0.993 . S
C1863 C753 0.981 . S
C1877 C791 0.965 . S
C1883 C787 0.988 1_556 S
C1897 C825 0.990 . S
C1903 C821 0.989 . S
C1917 C859 0.978 . S
C1923 C855 0.995 1_556 S
C1937 C889 0.993 . S
C1943 C893 0.984 . S
C1957 C927 0.993 . S
C1963 C923 0.982 . S
C1977 C961 0.971 . S
C1983 C957 0.993 . S
C1997 C995 0.993 . S
C2003 C991 0.984 . S
C2017 C1025 0.983 . S
C2023 C1029 0.963 . S
C2037 C1059 0.994 1_554 S
C2043 C1063 0.976 . S
C2057 C237 1.331 . S
C2063 C33 1.341 . S
C2077 C271 1.348 . S
C2083 C67 1.340 . S
C2097 C101 1.331 . S
C2103 C169 1.341 . S
C2117 C203 1.329 . S
C2123 C135 1.339 . S
C2137 C305 1.345 . S
C2143 C509 1.350 . S
C2157 C339 1.327 . S
C2163 C543 1.323 . S
C2177 C373 1.323 . S
C2183 C441 1.327 . S
C2197 C475 1.323 . S
C2203 C407 1.326 . S
C2217 C781 1.349 . S
C2223 C577 1.342 . S
C2237 C611 1.324 . S
C2243 C815 1.331 . S
C2257 C713 1.335 . S
C2263 C645 1.345 . S
C2277 C747 1.328 . S
C2283 C679 1.338 . S
C2297 C849 1.344 . S
C2303 C1053 1.350 . S
C2317 C1087 1.339 . S
C2323 C883 1.348 . S
C2337 C917 1.345 . S
C2343 C985 1.350 . S
C2357 C1019 1.334 . S
C2363 C951 1.325 . S
C2377 C20 1.664 . S
C2383 C258 1.655 . S
C2397 C156 1.649 . S
C2403 C54 1.656 . S
C2417 C88 1.663 . S
C2423 C190 1.665 . S
C2437 C122 1.663 . S
C2443 C224 1.653 . S
C2457 C292 1.654 . S
C2463 C530 1.663 . S
C2477 C428 1.650 . S
C2483 C326 1.653 . S
C2497 C360 1.651 . S
C2503 C462 1.660 . S
C2517 C394 1.653 . S
C2523 C496 1.650 . S
C2537 C802 1.666 . S
C2543 C564 1.662 . S
C2557 C700 1.655 . S
C2563 C598 1.665 . S
C2577 C734 1.657 . S
C2583 C632 1.649 . S
C2597 C666 1.655 . S
C2603 C768 1.649 . S
C2617 C836 1.655 . S
C2623 C1074 1.650 . S
C2637 C870 1.654 . S
C2643 C972 1.650 . S
C2657 C1006 1.651 . S
C2663 C904 1.651 . S
C2677 C1040 1.653 . S
C2683 C938 1.663 . S
