# Generated by pormake.
# Topology uni, (4)-cn, num edge types: 1
# Building blocks:
#     Node 0, Type 0, BuildingBlock: QUQFOY_clean_sbu_1, # of connection points: 4
#     Node 1, Type 0, BuildingBlock: QUQFOY_clean_sbu_1, # of connection points: 4
#     Node 2, Type 0, BuildingBlock: QUQFOY_clean_sbu_1, # of connection points: 4
#     Node 3, Type 0, BuildingBlock: QUQFOY_clean_sbu_1, # of connection points: 4
#     Node 4, Type 0, BuildingBlock: QUQFOY_clean_sbu_1, # of connection points: 4
#     Node 5, Type 0, BuildingBlock: QUQFOY_clean_sbu_1, # of connection points: 4
#     Edge 6, Type (0, 0), BuildingBlock: UVAHIK_clean_linker_0, # of connection points: 2
#     Edge 7, Type (0, 0), BuildingBlock: UVAHIK_clean_linker_0, # of connection points: 2
#     Edge 8, Type (0, 0), BuildingBlock: UVAHIK_clean_linker_0, # of connection points: 2
#     Edge 9, Type (0, 0), BuildingBlock: UVAHIK_clean_linker_0, # of connection points: 2
#     Edge 10, Type (0, 0), BuildingBlock: UVAHIK_clean_linker_0, # of connection points: 2
#     Edge 11, Type (0, 0), BuildingBlock: UVAHIK_clean_linker_0, # of connection points: 2
#     Edge 12, Type (0, 0), BuildingBlock: UVAHIK_clean_linker_0, # of connection points: 2
#     Edge 13, Type (0, 0), BuildingBlock: UVAHIK_clean_linker_0, # of connection points: 2
#     Edge 14, Type (0, 0), BuildingBlock: UVAHIK_clean_linker_0, # of connection points: 2
#     Edge 15, Type (0, 0), BuildingBlock: UVAHIK_clean_linker_0, # of connection points: 2
#     Edge 16, Type (0, 0), BuildingBlock: UVAHIK_clean_linker_0, # of connection points: 2
#     Edge 17, Type (0, 0), BuildingBlock: UVAHIK_clean_linker_0, # of connection points: 2
# Relax obj value: 0.072
# Max RMSD: 0.154
# Mean RMSD: 0.154
data_MOF--net-uni--node1-QUQFOY_clean_sbu_1--edge1-UVAHIK_clean_linker_0
_symmetry_space_group_name_H-M    P1
_symmetry_Int_Tables_number       1
_symmetry_cell_setting            triclinic
loop_
_symmetry_equiv_pos_as_xyz
'x, y, z'
_cell_length_a     54.325018
_cell_length_b     54.360513
_cell_length_c     28.790822
_cell_angle_alpha  89.967009
_cell_angle_beta   90.027763
_cell_angle_gamma 120.00166
loop_
_atom_site_label
_atom_site_type_symbol
_atom_site_fract_x
_atom_site_fract_y
_atom_site_fract_z
_atom_type_partial_charge
O0 O 0.63425 0.04039 -0.00143 0.0
Cd1 Cd 0.66072 0.0521 0.0555 0.0
Cd2 Cd 0.63116 0.99349 0.06701 0.0
O3 O 0.61338 0.99375 0.00384 0.0
O4 O 0.68671 0.0931 0.04302 0.0
O5 O 0.70185 0.06232 0.04797 0.0
C6 C 0.70741 0.08803 0.04047 0.0
C7 C 0.64178 0.9575 0.08227 0.0
C8 C 0.6169 0.01586 0.98289 0.0
C9 C 0.62389 0.02994 0.13947 0.0
O10 O 0.61649 0.00536 0.12381 0.0
O11 O 0.64266 0.05196 0.11857 0.0
O12 O 0.61602 0.95248 0.07957 0.0
O13 O 0.66198 0.98318 0.07477 0.0
O14 O 0.61785 0.63502 0.16213 0.0
Cd15 Cd 0.63288 0.65919 0.22147 0.0
Cd16 Cd 0.66203 0.62977 0.22824 0.0
O17 O 0.64344 0.61386 0.16459 0.0
O18 O 0.61797 0.68577 0.21536 0.0
O19 O 0.66389 0.70046 0.21735 0.0
C20 C 0.64377 0.70646 0.2138 0.0
C21 C 0.7092 0.64086 0.23901 0.0
C22 C 0.62495 0.61801 0.14468 0.0
C23 C 0.61848 0.61945 0.30211 0.0
O24 O 0.63599 0.61283 0.28522 0.0
O25 O 0.61504 0.63862 0.28311 0.0
O26 O 0.68874 0.61506 0.23511 0.0
O27 O 0.70302 0.66088 0.23611 0.0
O28 O 0.00571 0.61252 0.34027 0.0
Cd29 Cd 0.99528 0.6291 0.39617 0.0
Cd30 Cd 0.0539 0.65857 0.40534 0.0
O31 O 0.0524 0.63837 0.34388 0.0
O32 O 0.9541 0.61414 0.38532 0.0
O33 O 0.98536 0.66004 0.3864 0.0
C34 C 0.95944 0.6399 0.38061 0.0
C35 C 0.09016 0.70582 0.4139 0.0
C36 C 0.03005 0.61926 0.32422 0.0
C37 C 0.019 0.61715 0.48132 0.0
O38 O 0.04339 0.63412 0.46462 0.0
O39 O 0.99665 0.61306 0.46044 0.0
O40 O 0.09526 0.68511 0.41347 0.0
O41 O 0.06411 0.69983 0.40891 0.0
O42 O 0.41618 0.00615 0.49906 0.0
Cd43 Cd 0.38957 0.99475 0.55577 0.0
Cd44 Cd 0.419 0.05323 0.56623 0.0
O45 O 0.43664 0.05279 0.50305 0.0
O46 O 0.36373 0.95366 0.54382 0.0
O47 O 0.34837 0.98428 0.54787 0.0
C48 C 0.34295 0.95858 0.54087 0.0
C49 C 0.40842 0.08926 0.58138 0.0
C50 C 0.43338 0.03059 0.48285 0.0
C51 C 0.42683 0.01729 0.63904 0.0
O52 O 0.43423 0.04176 0.62283 0.0
O53 O 0.40772 0.99514 0.61889 0.0
O54 O 0.43417 0.09429 0.57831 0.0
O55 O 0.38819 0.06353 0.57429 0.0
O56 O 0.43303 0.41188 0.6622 0.0
Cd57 Cd 0.418 0.38769 0.72153 0.0
Cd58 Cd 0.38884 0.41707 0.72824 0.0
O59 O 0.40742 0.43302 0.66459 0.0
O60 O 0.43287 0.36108 0.7154 0.0
O61 O 0.38696 0.34644 0.71741 0.0
C62 C 0.40706 0.34041 0.71382 0.0
C63 C 0.34166 0.40589 0.73903 0.0
C64 C 0.42591 0.42889 0.64472 0.0
C65 C 0.43242 0.4274 0.80214 0.0
O66 O 0.4149 0.43401 0.78522 0.0
O67 O 0.43586 0.40823 0.78317 0.0
O68 O 0.36209 0.43171 0.73513 0.0
O69 O 0.34788 0.38591 0.73611 0.0
O70 O 0.04521 0.43397 0.84097 0.0
Cd71 Cd 0.0554 0.41696 0.89663 0.0
Cd72 Cd 0.99696 0.38715 0.90475 0.0
O73 O 0.99855 0.40743 0.84331 0.0
O74 O 0.09661 0.43194 0.88622 0.0
O75 O 0.06531 0.38605 0.88658 0.0
C76 C 0.09126 0.40621 0.88117 0.0
C77 C 0.96073 0.33985 0.91311 0.0
C78 C 0.02092 0.42702 0.82439 0.0
C79 C 0.03117 0.42863 0.98112 0.0
O80 O 0.00694 0.41164 0.9639 0.0
O81 O 0.05371 0.43275 0.96091 0.0
O82 O 0.95557 0.36051 0.91232 0.0
O83 O 0.98682 0.3459 0.90859 0.0
C84 C 0.58739 0.00821 0.20218 0.0
C85 C 0.60863 0.03269 0.17995 0.0
C86 C 0.57062 0.0103 0.23685 0.0
C87 C 0.54481 0.05744 0.27819 0.0
H88 H 0.51856 0.00556 0.38282 0.0
C89 C 0.4738 0.05962 0.42821 0.0
C90 C 0.45187 0.03297 0.44327 0.0
C91 C 0.49366 0.06144 0.3954 0.0
C92 C 0.52555 0.02005 0.35358 0.0
H93 H 0.62961 0.07871 0.17811 0.0
H94 H 0.60049 0.08237 0.23937 0.0
H95 H 0.55382 0.00604 0.33011 0.0
H96 H 0.4327 0.9874 0.4336 0.0
H97 H 0.46716 0.99068 0.37651 0.0
H98 H 0.51639 0.07139 0.30202 0.0
C99 C 0.59656 0.06152 0.22929 0.0
C100 C 0.54577 0.02034 0.3234 0.0
C101 C 0.6134 0.05942 0.19447 0.0
C102 C 0.44943 0.00829 0.42314 0.0
C103 C 0.4693 0.01012 0.39064 0.0
C104 C 0.52465 0.05725 0.30864 0.0
C105 C 0.57469 0.03693 0.25036 0.0
C106 C 0.55528 0.03867 0.28486 0.0
C107 C 0.49202 0.03666 0.37729 0.0
C108 C 0.51445 0.03817 0.34613 0.0
H109 H 0.58307 0.98726 0.19189 0.0
H110 H 0.55374 0.9909 0.25188 0.0
H111 H 0.55145 0.0716 0.24855 0.0
H112 H 0.47628 0.07905 0.44298 0.0
H113 H 0.51097 0.08219 0.38569 0.0
C114 C 0.6022 0.57997 0.35994 0.0
C115 C 0.59992 0.60262 0.34115 0.0
C116 C 0.58239 0.56163 0.3923 0.0
C117 C 0.52729 0.55354 0.47538 0.0
H118 H 0.49807 0.47312 0.45466 0.0
C119 C 0.43693 0.46792 0.58749 0.0
C120 C 0.4414 0.44603 0.6036 0.0
C121 C 0.45421 0.48643 0.55264 0.0
C122 C 0.50614 0.49549 0.46112 0.0
H123 H 0.57574 0.62454 0.34338 0.0
H124 H 0.54117 0.59245 0.40008 0.0
H125 H 0.53365 0.50777 0.40208 0.0
H126 H 0.46674 0.42569 0.59419 0.0
H127 H 0.49685 0.45798 0.53389 0.0
H128 H 0.50004 0.54125 0.53486 0.0
C129 C 0.55832 0.58894 0.38967 0.0
C130 C 0.52657 0.51535 0.43107 0.0
C131 C 0.57813 0.60729 0.35714 0.0
C132 C 0.46268 0.44231 0.58266 0.0
C133 C 0.47991 0.46078 0.54787 0.0
C134 C 0.50688 0.53366 0.50559 0.0
C135 C 0.55988 0.56553 0.40673 0.0
C136 C 0.53761 0.54459 0.43817 0.0
C137 C 0.47625 0.48339 0.53308 0.0
C138 C 0.4963 0.50441 0.49907 0.0
H139 H 0.61881 0.57583 0.34867 0.0
H140 H 0.58448 0.54411 0.40557 0.0
H141 H 0.53553 0.57594 0.48188 0.0
H142 H 0.42067 0.47134 0.60277 0.0
H143 H 0.45057 0.50338 0.54147 0.0
C144 C 0.0435 0.46682 0.76707 0.0
C145 C 0.01876 0.44385 0.78577 0.0
C146 C 0.04167 0.48509 0.73502 0.0
C147 C 0.99441 0.49257 0.65189 0.0
H148 H 0.04464 0.57309 0.67362 0.0
C149 C 0.99027 0.57793 0.53791 0.0
C150 C 0.0168 0.6 0.52275 0.0
C151 C 0.98865 0.55943 0.57311 0.0
C152 C 0.0306 0.55069 0.66688 0.0
H153 H 0.97264 0.42133 0.78368 0.0
H154 H 0.96951 0.4533 0.72737 0.0
H155 H 0.04562 0.53854 0.72637 0.0
H156 H 0.06236 0.62066 0.53418 0.0
H157 H 0.05953 0.58841 0.59499 0.0
H158 H 0.97977 0.50473 0.59184 0.0
C159 C 0.9903 0.45711 0.73771 0.0
C160 C 0.0312 0.5309 0.69705 0.0
C161 C 0.99212 0.43883 0.76999 0.0
C162 C 0.04155 0.6039 0.54495 0.0
C163 C 0.03993 0.58545 0.58006 0.0
C164 C 0.99389 0.5124 0.62152 0.0
C165 C 0.01508 0.48081 0.72076 0.0
C166 C 0.01341 0.50163 0.68953 0.0
C167 C 0.01352 0.56267 0.59396 0.0
C168 C 0.01226 0.54169 0.62835 0.0
H169 H 0.06437 0.47124 0.77816 0.0
H170 H 0.06113 0.50284 0.72181 0.0
H171 H 0.98056 0.47014 0.64511 0.0
H172 H 0.97078 0.57436 0.52163 0.0
H173 H 0.96795 0.54234 0.58355 0.0
C174 C 0.60254 0.03787 0.92002 0.0
C175 C 0.59899 0.0133 0.94232 0.0
C176 C 0.58377 0.03598 0.8853 0.0
C177 C 0.51067 0.98945 0.8439 0.0
H178 H 0.5368 0.04126 0.73918 0.0
C179 C 0.43786 0.98802 0.69376 0.0
C180 C 0.44287 0.01475 0.6786 0.0
C181 C 0.45579 0.986 0.72659 0.0
C182 C 0.52917 0.0268 0.76845 0.0
H183 H 0.5735 0.96731 0.94421 0.0
H184 H 0.5409 0.964 0.88285 0.0
H185 H 0.57137 0.04038 0.79199 0.0
H186 H 0.46971 0.06028 0.6881 0.0
H187 H 0.50072 0.05668 0.74525 0.0
H188 H 0.46837 0.97592 0.82001 0.0
C189 C 0.55799 0.98477 0.89293 0.0
C190 C 0.54896 0.02627 0.79868 0.0
C191 C 0.57681 0.98666 0.92781 0.0
C192 C 0.46533 0.03934 0.69864 0.0
C193 C 0.48325 0.03731 0.73117 0.0
C194 C 0.49082 0.98987 0.8134 0.0
C195 C 0.56101 0.00946 0.87179 0.0
C196 C 0.53997 0.00797 0.83725 0.0
C197 C 0.47911 0.01068 0.74463 0.0
C198 C 0.49989 0.00893 0.77587 0.0
H199 H 0.61935 0.05876 0.93031 0.0
H200 H 0.58655 0.05546 0.87022 0.0
H201 H 0.50301 0.97531 0.87356 0.0
H202 H 0.42074 0.96865 0.67905 0.0
H203 H 0.45211 0.96519 0.73639 0.0
C204 C 0.61397 0.57902 0.08745 0.0
C205 C 0.60946 0.60088 0.10357 0.0
C206 C 0.59669 0.56051 0.05261 0.0
C207 C 0.54467 0.55139 0.96114 0.0
H208 H 0.51545 0.47095 0.98187 0.0
C209 C 0.44865 0.46684 0.85998 0.0
C210 C 0.45097 0.44422 0.84118 0.0
C211 C 0.46845 0.48519 0.89233 0.0
C212 C 0.52364 0.49335 0.97538 0.0
H213 H 0.58405 0.62114 0.0942 0.0
H214 H 0.55393 0.58886 0.03392 0.0
H215 H 0.55092 0.50566 0.03484 0.0
H216 H 0.47523 0.4224 0.84339 0.0
H217 H 0.5098 0.4545 0.90008 0.0
H218 H 0.51712 0.53909 0.90212 0.0
C219 C 0.57091 0.58609 0.04788 0.0
C220 C 0.54404 0.51325 0.00558 0.0
C221 C 0.58813 0.60455 0.08266 0.0
C222 C 0.47281 0.43961 0.85715 0.0
C223 C 0.49261 0.45797 0.88968 0.0
C224 C 0.52424 0.53153 0.9311 0.0
C225 C 0.57461 0.56351 0.03308 0.0
C226 C 0.55456 0.54249 -0.00093 0.0
C227 C 0.491 0.48134 0.90675 0.0
C228 C 0.51326 0.50229 0.93818 0.0
H229 H 0.63026 0.57563 0.10271 0.0
H230 H 0.60036 0.54359 0.04142 0.0
H231 H 0.55269 0.57376 0.95468 0.0
H232 H 0.43201 0.47094 0.84872 0.0
H233 H 0.46632 0.50268 0.90562 0.0
C234 C 0.008 0.44292 0.0421 0.0
C235 C 0.03298 0.44615 0.02177 0.0
C236 C 0.00932 0.46219 0.07535 0.0
C237 C 0.05603 0.51777 0.15786 0.0
H238 H 1.00354 0.54553 0.1375 0.0
C239 C 0.05877 0.60763 0.26941 0.0
C240 C 0.0322 0.603 0.2847 0.0
C241 C 0.06044 0.59017 0.23534 0.0
C242 C 0.01818 0.53785 0.14393 0.0
H243 H 0.07905 0.47128 0.02257 0.0
H244 H 0.08128 0.50491 0.081 0.0
H245 H 1.00322 0.51031 0.08495 0.0
H246 H 0.98658 0.57693 0.27505 0.0
H247 H 0.9895 0.54651 0.21628 0.0
H248 H 0.07068 0.54504 0.21734 0.0
C249 C 0.0607 0.48745 0.07096 0.0
C250 C 0.01797 0.51764 0.11386 0.0
C251 C 0.0594 0.46819 0.03747 0.0
C252 C 0.00742 0.58116 0.26409 0.0
C253 C 0.00909 0.56376 0.23015 0.0
C254 C 0.05615 0.53794 0.18816 0.0
C255 C 0.03562 0.48509 0.08922 0.0
C256 C 0.03663 0.50712 0.1208 0.0
C257 C 0.03559 0.56779 0.2158 0.0
C258 C 0.03699 0.54796 0.18182 0.0
H259 H 0.98728 0.42609 0.03114 0.0
H260 H 0.98965 0.45949 0.08957 0.0
H261 H 0.07058 0.50996 0.16413 0.0
H262 H 0.07829 0.6243 0.2845 0.0
H263 H 0.08119 0.59408 0.22455 0.0
C264 C 0.62699 0.74144 0.20907 0.0
C265 C 0.64957 0.73586 0.20689 0.0
C266 C 0.63151 0.76858 0.20021 0.0
C267 C 0.67806 0.83434 0.13781 0.0
H268 H 0.63582 0.86166 0.2086 0.0
C269 C 0.67525 0.93891 0.09776 0.0
C270 C 0.64746 0.93456 0.09605 0.0
C271 C 0.68009 0.91727 0.11363 0.0
C272 C 0.64782 0.85436 0.1886 0.0
H273 H 0.69477 0.75454 0.19417 0.0
H274 H 0.70271 0.80238 0.17843 0.0
H275 H 0.6367 0.81945 0.2345 0.0
H276 H 0.60301 0.90395 0.10875 0.0
H277 H 0.6115 0.86669 0.13649 0.0
H278 H 0.68858 0.86915 0.0913 0.0
C279 C 0.68148 0.78554 0.18698 0.0
C280 C 0.6483 0.83018 0.20337 0.0
C281 C 0.67697 0.75823 0.19623 0.0
C282 C 0.62469 0.90811 0.10973 0.0
C283 C 0.62954 0.88677 0.12595 0.0
C284 C 0.6777 0.85874 0.1231 0.0
C285 C 0.65873 0.79094 0.18882 0.0
C286 C 0.66256 0.81929 0.17728 0.0
C287 C 0.65726 0.89119 0.12864 0.0
C288 C 0.66173 0.86835 0.14755 0.0
H289 H 0.60561 0.72472 0.21711 0.0
H290 H 0.61342 0.77185 0.20111 0.0
H291 H 0.68917 0.82641 0.1169 0.0
H292 H 0.69322 0.95906 0.08738 0.0
H293 H 0.70167 0.92115 0.11528 0.0
C294 C 0.90998 0.62272 0.35328 0.0
C295 C 0.93656 0.64557 0.36628 0.0
C296 C 0.88873 0.62751 0.33631 0.0
C297 C 0.86073 0.67549 0.33606 0.0
H298 H 0.82265 0.63426 0.22414 0.0
C299 C 0.76061 0.67411 0.25917 0.0
C300 C 0.73851 0.64675 0.24763 0.0
C301 C 0.78784 0.67874 0.26961 0.0
C302 C 0.83302 0.64591 0.25543 0.0
H303 H 0.96137 0.6914 0.37302 0.0
H304 H 0.92358 0.69973 0.34391 0.0
H305 H 0.86469 0.63358 0.25175 0.0
H306 H 0.72779 0.60294 0.23733 0.0
H307 H 0.77475 0.61092 0.25553 0.0
H308 H 0.82817 0.68675 0.3408 0.0
C309 C 0.91955 0.67816 0.34663 0.0
C310 C 0.85712 0.64557 0.27114 0.0
C311 C 0.94111 0.67338 0.3632 0.0
C312 C 0.74429 0.62431 0.24597 0.0
C313 C 0.77135 0.62893 0.25609 0.0
C314 C 0.83638 0.67569 0.32044 0.0
C315 C 0.89337 0.65523 0.33224 0.0
C316 C 0.87068 0.65959 0.31236 0.0
C317 C 0.79345 0.65613 0.2682 0.0
C318 C 0.82175 0.66009 0.28077 0.0
H319 H 0.90567 0.60102 0.35527 0.0
H320 H 0.86857 0.60941 0.32619 0.0
H321 H 0.87083 0.68645 0.36798 0.0
H322 H 0.75677 0.69182 0.26085 0.0
H323 H 0.80448 0.69995 0.27869 0.0
C324 C 0.10859 0.75772 0.43008 0.0
C325 C 0.11371 0.73526 0.42081 0.0
C326 C 0.13131 0.78513 0.43888 0.0
C327 C 0.20909 0.82971 0.42262 0.0
H328 H 0.20774 0.87004 0.53283 0.0
C329 C 0.31067 0.90892 0.51465 0.0
C330 C 0.31432 0.93548 0.52744 0.0
C331 C 0.28447 0.88737 0.49883 0.0
C332 C 0.20822 0.85925 0.50152 0.0
H333 H 0.14661 0.72405 0.41276 0.0
H334 H 0.18583 0.7714 0.42793 0.0
H335 H 0.16442 0.8269 0.50826 0.0
H336 H 0.29299 0.95997 0.53493 0.0
H337 H 0.24662 0.92171 0.50771 0.0
H338 H 0.25303 0.86121 0.41682 0.0
C339 C 0.16444 0.76809 0.4281 0.0
C340 C 0.18346 0.83462 0.48741 0.0
C341 C 0.14188 0.74084 0.41971 0.0
C342 C 0.29083 0.93974 0.52524 0.0
C343 C 0.26434 0.9179 0.50975 0.0
C344 C 0.23373 0.85412 0.43676 0.0
C345 C 0.15949 0.79055 0.43795 0.0
C346 C 0.18395 0.81909 0.44868 0.0
C347 C 0.26112 0.89169 0.49563 0.0
C348 C 0.2338 0.8686 0.47717 0.0
H349 H 0.08708 0.75403 0.43128 0.0
H350 H 0.12688 0.80207 0.44629 0.0
H351 H 0.20997 0.81857 0.39203 0.0
H352 H 0.32822 0.90482 0.51604 0.0
H353 H 0.28246 0.86721 0.489 0.0
C354 C 0.37379 0.28865 0.69633 0.0
C355 C 0.40122 0.31101 0.70683 0.0
C356 C 0.36923 0.26134 0.687 0.0
C357 C 0.40247 0.21668 0.70277 0.0
H358 H 0.36167 0.17767 0.59109 0.0
C359 C 0.42563 0.13873 0.60841 0.0
C360 C 0.40279 0.11222 0.59515 0.0
C361 C 0.42086 0.1601 0.62471 0.0
C362 C 0.3727 0.18809 0.62278 0.0
H363 H 0.44521 0.32212 0.71663 0.0
H364 H 0.43733 0.27499 0.70046 0.0
H365 H 0.36121 0.22043 0.61689 0.0
H366 H 0.35698 0.08765 0.58729 0.0
H367 H 0.34867 0.12561 0.61531 0.0
H368 H 0.41497 0.18521 0.70767 0.0
C369 C 0.41924 0.27827 0.69978 0.0
C370 C 0.3724 0.21251 0.63761 0.0
C371 C 0.4238 0.30541 0.70874 0.0
C372 C 0.37501 0.10785 0.59733 0.0
C373 C 0.37024 0.12951 0.61328 0.0
C374 C 0.40287 0.1925 0.68788 0.0
C375 C 0.39198 0.25593 0.68856 0.0
C376 C 0.38809 0.22757 0.67694 0.0
C377 C 0.39315 0.15565 0.6279 0.0
C378 C 0.38877 0.17849 0.64696 0.0
H379 H 0.35599 0.29235 0.69448 0.0
H380 H 0.34797 0.24451 0.6786 0.0
H381 H 0.41421 0.22742 0.7338 0.0
H382 H 0.44732 0.14292 0.60706 0.0
H383 H 0.43896 0.18022 0.63495 0.0
C384 C 0.1408 0.42348 0.85424 0.0
C385 C 0.11416 0.40058 0.86686 0.0
C386 C 0.16207 0.41876 0.83721 0.0
C387 C 0.19005 0.37079 0.83625 0.0
H388 H 0.22817 0.41244 0.72463 0.0
C389 C 0.29026 0.37254 0.75911 0.0
C390 C 0.31233 0.39995 0.74771 0.0
C391 C 0.26302 0.36785 0.7696 0.0
C392 C 0.21779 0.40067 0.75583 0.0
H393 H 0.08929 0.35471 0.87293 0.0
H394 H 0.12712 0.34649 0.84375 0.0
H395 H 0.18611 0.413 0.75239 0.0
H396 H 0.32301 0.44377 0.73771 0.0
H397 H 0.27604 0.43569 0.756 0.0
H398 H 0.22264 0.35955 0.84078 0.0
C399 C 0.13117 0.36806 0.84679 0.0
C400 C 0.19368 0.40095 0.77163 0.0
C401 C 0.10959 0.37278 0.86339 0.0
C402 C 0.30652 0.42237 0.74624 0.0
C403 C 0.27946 0.41769 0.75642 0.0
C404 C 0.21442 0.37066 0.82056 0.0
C405 C 0.1574 0.39105 0.83274 0.0
C406 C 0.18011 0.38677 0.81274 0.0
C407 C 0.25738 0.39045 0.76837 0.0
C408 C 0.22906 0.38641 0.781 0.0
H409 H 0.14513 0.44518 0.85652 0.0
H410 H 0.18227 0.43689 0.82735 0.0
H411 H 0.17994 0.35971 0.86809 0.0
H412 H 0.29412 0.35485 0.76064 0.0
H413 H 0.2464 0.34661 0.77856 0.0
C414 C 0.9423 0.28802 0.92998 0.0
C415 C 0.93719 0.31039 0.91991 0.0
C416 C 0.91956 0.26061 0.9388 0.0
C417 C 0.84188 0.21581 0.92139 0.0
H418 H 0.84263 0.17625 0.03309 0.0
C419 C 0.73986 0.13743 0.01324 0.0
C420 C 0.7361 0.11095 0.02691 0.0
C421 C 0.76614 0.1588 -0.00266 0.0
C422 C 0.84232 0.18682 0.00138 0.0
H423 H 0.90426 0.32145 0.91035 0.0
H424 H 0.86502 0.27412 0.92553 0.0
H425 H 0.88609 0.21922 0.00842 0.0
H426 H 0.75729 0.08642 0.03589 0.0
H427 H 0.8038 0.12438 0.00856 0.0
H428 H 0.79797 0.18427 0.91529 0.0
C429 C 0.88642 0.27749 0.92634 0.0
C430 C 0.86716 0.21135 0.9872 0.0
C431 C 0.90899 0.30473 0.91795 0.0
C432 C 0.75953 0.1066 0.0255 0.0
C433 C 0.7861 0.12826 0.00996 0.0
C434 C 0.81717 0.1915 0.9356 0.0
C435 C 0.89137 0.25512 0.93706 0.0
C436 C 0.86688 0.22662 0.94791 0.0
C437 C 0.78945 0.15438 -0.00502 0.0
C438 C 0.81687 0.1773 0.97653 0.0
H439 H 0.96383 0.29177 0.93185 0.0
H440 H 0.924 0.24375 0.94688 0.0
H441 H 0.84117 0.22674 0.89039 0.0
H442 H 0.72235 0.1416 0.01398 0.0
H443 H 0.76824 0.17891 0.98684 0.0
loop_
_geom_bond_atom_site_label_1
_geom_bond_atom_site_label_2
_geom_bond_distance
_geom_bond_site_symmetry_2
_ccdc_geom_bond_type
O0 Cd1 2.223 . S
O0 C8 1.315 . S
Cd1 O0 2.223 . S
Cd1 O4 2.297 . S
Cd1 O5 2.439 . S
Cd1 O11 2.240 . S
Cd2 O3 2.240 1_565 S
Cd2 O10 2.223 . S
Cd2 O12 2.297 . S
Cd2 O13 2.439 . S
O3 Cd2 2.240 1_545 S
O3 C8 1.279 . S
O4 Cd1 2.297 . S
O4 C6 1.247 . S
O5 Cd1 2.439 . S
O5 C6 1.208 . S
C6 O4 1.247 . S
C6 O5 1.208 . S
C7 O12 1.247 . S
C7 O13 1.208 . S
C8 O0 1.315 . S
C8 O3 1.279 . S
C9 O10 1.315 1_545 S
C9 O11 1.279 . S
O10 Cd2 2.223 . S
O10 C9 1.315 1_565 S
O11 Cd1 2.240 . S
O11 C9 1.279 . S
O12 Cd2 2.297 . S
O12 C7 1.247 . S
O13 Cd2 2.439 . S
O13 C7 1.208 . S
O14 Cd15 2.223 . S
O14 C22 1.315 . S
Cd15 O14 2.223 . S
Cd15 O18 2.297 . S
Cd15 O19 2.439 . S
Cd15 O25 2.240 . S
Cd16 O17 2.240 . S
Cd16 O24 2.223 . S
Cd16 O26 2.297 . S
Cd16 O27 2.439 . S
O17 Cd16 2.240 . S
O17 C22 1.279 . S
O18 Cd15 2.297 . S
O18 C20 1.247 . S
O19 Cd15 2.439 . S
O19 C20 1.208 . S
C20 O18 1.247 . S
C20 O19 1.208 . S
C21 O26 1.247 . S
C21 O27 1.208 . S
C22 O14 1.315 . S
C22 O17 1.279 . S
C23 O24 1.315 . S
C23 O25 1.279 . S
O24 Cd16 2.223 . S
O24 C23 1.315 . S
O25 Cd15 2.240 . S
O25 C23 1.279 . S
O26 Cd16 2.297 . S
O26 C21 1.247 . S
O27 Cd16 2.439 . S
O27 C21 1.208 . S
O28 Cd29 2.223 . S
O28 C36 1.315 1_655 S
Cd29 O28 2.223 . S
Cd29 O32 2.297 . S
Cd29 O33 2.439 . S
Cd29 O39 2.240 1_655 S
Cd30 O31 2.240 . S
Cd30 O38 2.223 . S
Cd30 O40 2.297 . S
Cd30 O41 2.439 . S
O31 Cd30 2.240 . S
O31 C36 1.279 . S
O32 Cd29 2.297 . S
O32 C34 1.247 . S
O33 Cd29 2.439 . S
O33 C34 1.208 . S
C34 O32 1.247 . S
C34 O33 1.208 . S
C35 O40 1.247 . S
C35 O41 1.208 . S
C36 O28 1.315 1_455 S
C36 O31 1.279 . S
C37 O38 1.315 . S
C37 O39 1.279 . S
O38 Cd30 2.223 . S
O38 C37 1.315 . S
O39 Cd29 2.240 1_455 S
O39 C37 1.279 . S
O40 Cd30 2.297 . S
O40 C35 1.247 . S
O41 Cd30 2.439 . S
O41 C35 1.208 . S
O42 Cd43 2.223 . S
O42 C50 1.315 1_565 S
Cd43 O42 2.223 . S
Cd43 O46 2.297 . S
Cd43 O47 2.439 . S
Cd43 O53 2.240 1_565 S
Cd44 O45 2.240 . S
Cd44 O52 2.223 . S
Cd44 O54 2.297 . S
Cd44 O55 2.439 . S
O45 Cd44 2.240 . S
O45 C50 1.279 . S
O46 Cd43 2.297 . S
O46 C48 1.247 . S
O47 Cd43 2.439 . S
O47 C48 1.208 . S
C48 O46 1.247 . S
C48 O47 1.208 . S
C49 O54 1.247 . S
C49 O55 1.208 . S
C50 O42 1.315 1_545 S
C50 O45 1.279 . S
C51 O52 1.315 . S
C51 O53 1.279 . S
O52 Cd44 2.223 . S
O52 C51 1.315 . S
O53 Cd43 2.240 1_545 S
O53 C51 1.279 . S
O54 Cd44 2.297 . S
O54 C49 1.247 . S
O55 Cd44 2.439 . S
O55 C49 1.208 . S
O56 Cd57 2.223 . S
O56 C64 1.315 . S
Cd57 O56 2.223 . S
Cd57 O60 2.297 . S
Cd57 O61 2.439 . S
Cd57 O67 2.240 . S
Cd58 O59 2.240 . S
Cd58 O66 2.223 . S
Cd58 O68 2.297 . S
Cd58 O69 2.439 . S
O59 Cd58 2.240 . S
O59 C64 1.279 . S
O60 Cd57 2.297 . S
O60 C62 1.247 . S
O61 Cd57 2.439 . S
O61 C62 1.208 . S
C62 O60 1.247 . S
C62 O61 1.208 . S
C63 O68 1.247 . S
C63 O69 1.208 . S
C64 O56 1.315 . S
C64 O59 1.279 . S
C65 O66 1.315 . S
C65 O67 1.279 . S
O66 Cd58 2.223 . S
O66 C65 1.315 . S
O67 Cd57 2.240 . S
O67 C65 1.279 . S
O68 Cd58 2.297 . S
O68 C63 1.247 . S
O69 Cd58 2.439 . S
O69 C63 1.208 . S
O70 Cd71 2.223 . S
O70 C78 1.315 . S
Cd71 O70 2.223 . S
Cd71 O74 2.297 . S
Cd71 O75 2.439 . S
Cd71 O81 2.240 . S
Cd72 O73 2.240 1_655 S
Cd72 O80 2.223 . S
Cd72 O82 2.297 . S
Cd72 O83 2.439 . S
O73 Cd72 2.240 1_455 S
O73 C78 1.279 . S
O74 Cd71 2.297 . S
O74 C76 1.247 . S
O75 Cd71 2.439 . S
O75 C76 1.208 . S
C76 O74 1.247 . S
C76 O75 1.208 . S
C77 O82 1.247 . S
C77 O83 1.208 . S
C78 O70 1.315 . S
C78 O73 1.279 . S
C79 O80 1.315 1_455 S
C79 O81 1.279 . S
O80 Cd72 2.223 . S
O80 C79 1.315 1_655 S
O81 Cd71 2.240 . S
O81 C79 1.279 . S
O82 Cd72 2.297 . S
O82 C77 1.247 . S
O83 Cd72 2.439 . S
O83 C77 1.208 . S
C84 C85 1.349 1_565 S
C84 C86 1.327 . S
C84 H109 0.950 . S
C85 C84 1.349 1_545 S
C85 C101 1.349 . S
C86 C84 1.327 . S
C86 C105 1.429 1_565 S
C86 H110 0.950 . S
C87 C104 1.574 . S
C87 C106 1.368 . S
C87 H111 0.949 . S
H88 C92 0.949 . S
C89 C90 1.349 . S
C89 C91 1.327 . S
C89 H112 0.950 . S
C90 C89 1.349 . S
C90 C102 1.349 1_545 S
C91 C89 1.327 . S
C91 C107 1.429 . S
C91 H113 0.950 . S
C92 H88 0.949 . S
C92 C100 1.574 . S
C92 C108 1.368 1_565 S
H93 C101 0.950 . S
H94 C99 0.950 . S
H95 C100 0.949 . S
H96 C102 0.950 . S
H97 C103 0.950 . S
H98 C104 0.949 . S
C99 H94 0.950 . S
C99 C101 1.327 . S
C99 C105 1.429 . S
C100 C92 1.574 . S
C100 H95 0.949 . S
C100 C106 1.368 1_565 S
C101 C85 1.349 . S
C101 H93 0.950 . S
C101 C99 1.327 . S
C102 C90 1.349 1_565 S
C102 H96 0.950 . S
C102 C103 1.327 . S
C103 H97 0.950 . S
C103 C102 1.327 . S
C103 C107 1.429 1_565 S
C104 C87 1.574 . S
C104 H98 0.949 . S
C104 C108 1.368 . S
C105 C86 1.429 1_545 S
C105 C99 1.429 . S
C105 C106 1.523 . S
C106 C87 1.368 . S
C106 C100 1.368 1_545 S
C106 C105 1.523 . S
C107 C91 1.429 . S
C107 C103 1.429 1_545 S
C107 C108 1.523 . S
C108 C92 1.368 1_545 S
C108 C104 1.368 . S
C108 C107 1.523 . S
H109 C84 0.950 . S
H110 C86 0.950 . S
H111 C87 0.949 . S
H112 C89 0.950 . S
H113 C91 0.950 . S
C114 C115 1.349 . S
C114 C116 1.327 . S
C114 H139 0.950 . S
C115 C114 1.349 . S
C115 C131 1.349 . S
C116 C114 1.327 . S
C116 C135 1.429 . S
C116 H140 0.950 . S
C117 C134 1.574 . S
C117 C136 1.368 . S
C117 H141 0.949 . S
H118 C122 0.949 . S
C119 C120 1.349 . S
C119 C121 1.327 . S
C119 H142 0.950 . S
C120 C119 1.349 . S
C120 C132 1.349 . S
C121 C119 1.327 . S
C121 C137 1.429 . S
C121 H143 0.950 . S
C122 H118 0.949 . S
C122 C130 1.574 . S
C122 C138 1.368 . S
H123 C131 0.950 . S
H124 C129 0.950 . S
H125 C130 0.949 . S
H126 C132 0.950 . S
H127 C133 0.950 . S
H128 C134 0.949 . S
C129 H124 0.950 . S
C129 C131 1.327 . S
C129 C135 1.429 . S
C130 C122 1.574 . S
C130 H125 0.949 . S
C130 C136 1.368 . S
C131 C115 1.349 . S
C131 H123 0.950 . S
C131 C129 1.327 . S
C132 C120 1.349 . S
C132 H126 0.950 . S
C132 C133 1.327 . S
C133 H127 0.950 . S
C133 C132 1.327 . S
C133 C137 1.429 . S
C134 C117 1.574 . S
C134 H128 0.949 . S
C134 C138 1.368 . S
C135 C116 1.429 . S
C135 C129 1.429 . S
C135 C136 1.523 . S
C136 C117 1.368 . S
C136 C130 1.368 . S
C136 C135 1.523 . S
C137 C121 1.429 . S
C137 C133 1.429 . S
C137 C138 1.523 . S
C138 C122 1.368 . S
C138 C134 1.368 . S
C138 C137 1.523 . S
H139 C114 0.950 . S
H140 C116 0.950 . S
H141 C117 0.949 . S
H142 C119 0.950 . S
H143 C121 0.950 . S
C144 C145 1.349 . S
C144 C146 1.327 . S
C144 H169 0.950 . S
C145 C144 1.349 . S
C145 C161 1.349 . S
C146 C144 1.327 . S
C146 C165 1.429 . S
C146 H170 0.950 . S
C147 C164 1.574 . S
C147 C166 1.368 . S
C147 H171 0.949 . S
H148 C152 0.949 . S
C149 C150 1.349 . S
C149 C151 1.327 . S
C149 H172 0.950 . S
C150 C149 1.349 . S
C150 C162 1.349 . S
C151 C149 1.327 . S
C151 C167 1.429 . S
C151 H173 0.950 . S
C152 H148 0.949 . S
C152 C160 1.574 . S
C152 C168 1.368 . S
H153 C161 0.950 . S
H154 C159 0.950 . S
H155 C160 0.949 . S
H156 C162 0.950 . S
H157 C163 0.950 . S
H158 C164 0.949 . S
C159 H154 0.950 . S
C159 C161 1.327 . S
C159 C165 1.429 . S
C160 C152 1.574 . S
C160 H155 0.949 . S
C160 C166 1.368 . S
C161 C145 1.349 . S
C161 H153 0.950 . S
C161 C159 1.327 . S
C162 C150 1.349 . S
C162 H156 0.950 . S
C162 C163 1.327 . S
C163 H157 0.950 . S
C163 C162 1.327 . S
C163 C167 1.429 . S
C164 C147 1.574 . S
C164 H158 0.949 . S
C164 C168 1.368 . S
C165 C146 1.429 . S
C165 C159 1.429 . S
C165 C166 1.523 . S
C166 C147 1.368 . S
C166 C160 1.368 . S
C166 C165 1.523 . S
C167 C151 1.429 . S
C167 C163 1.429 . S
C167 C168 1.523 . S
C168 C152 1.368 . S
C168 C164 1.368 . S
C168 C167 1.523 . S
H169 C144 0.950 . S
H170 C146 0.950 . S
H171 C147 0.949 . S
H172 C149 0.950 . S
H173 C151 0.950 . S
C174 C175 1.349 . S
C174 C176 1.327 . S
C174 H199 0.950 . S
C175 C174 1.349 . S
C175 C191 1.349 . S
C176 C174 1.327 . S
C176 C195 1.429 . S
C176 H200 0.950 . S
C177 C194 1.574 . S
C177 C196 1.368 . S
C177 H201 0.949 1_545 S
H178 C182 0.949 . S
C179 C180 1.349 . S
C179 C181 1.327 . S
C179 H202 0.950 1_545 S
C180 C179 1.349 . S
C180 C192 1.349 . S
C181 C179 1.327 . S
C181 C197 1.429 . S
C181 H203 0.950 1_545 S
C182 H178 0.949 . S
C182 C190 1.574 . S
C182 C198 1.368 . S
H183 C191 0.950 1_565 S
H184 C189 0.950 1_565 S
H185 C190 0.949 . S
H186 C192 0.950 . S
H187 C193 0.950 . S
H188 C194 0.949 1_565 S
C189 H184 0.950 1_545 S
C189 C191 1.327 . S
C189 C195 1.429 . S
C190 C182 1.574 . S
C190 H185 0.949 . S
C190 C196 1.368 . S
C191 C175 1.349 . S
C191 H183 0.950 1_545 S
C191 C189 1.327 . S
C192 C180 1.349 . S
C192 H186 0.950 . S
C192 C193 1.327 . S
C193 H187 0.950 . S
C193 C192 1.327 . S
C193 C197 1.429 . S
C194 C177 1.574 . S
C194 H188 0.949 1_545 S
C194 C198 1.368 . S
C195 C176 1.429 . S
C195 C189 1.429 . S
C195 C196 1.523 . S
C196 C177 1.368 . S
C196 C190 1.368 . S
C196 C195 1.523 . S
C197 C181 1.429 . S
C197 C193 1.429 . S
C197 C198 1.523 . S
C198 C182 1.368 . S
C198 C194 1.368 . S
C198 C197 1.523 . S
H199 C174 0.950 . S
H200 C176 0.950 . S
H201 C177 0.949 1_565 S
H202 C179 0.950 1_565 S
H203 C181 0.950 1_565 S
C204 C205 1.349 . S
C204 C206 1.327 . S
C204 H229 0.950 . S
C205 C204 1.349 . S
C205 C221 1.349 . S
C206 C204 1.327 . S
C206 C225 1.429 . S
C206 H230 0.950 . S
C207 C224 1.574 . S
C207 C226 1.368 1_556 S
C207 H231 0.949 . S
H208 C212 0.949 . S
C209 C210 1.349 . S
C209 C211 1.327 . S
C209 H232 0.950 . S
C210 C209 1.349 . S
C210 C222 1.349 . S
C211 C209 1.327 . S
C211 C227 1.429 . S
C211 H233 0.950 . S
C212 H208 0.949 . S
C212 C220 1.574 1_556 S
C212 C228 1.368 . S
H213 C221 0.950 . S
H214 C219 0.950 . S
H215 C220 0.949 . S
H216 C222 0.950 . S
H217 C223 0.950 . S
H218 C224 0.949 . S
C219 H214 0.950 . S
C219 C221 1.327 . S
C219 C225 1.429 . S
C220 C212 1.574 1_554 S
C220 H215 0.949 . S
C220 C226 1.368 . S
C221 C205 1.349 . S
C221 H213 0.950 . S
C221 C219 1.327 . S
C222 C210 1.349 . S
C222 H216 0.950 . S
C222 C223 1.327 . S
C223 H217 0.950 . S
C223 C222 1.327 . S
C223 C227 1.429 . S
C224 C207 1.574 . S
C224 H218 0.949 . S
C224 C228 1.368 . S
C225 C206 1.429 . S
C225 C219 1.429 . S
C225 C226 1.523 . S
C226 C207 1.368 1_554 S
C226 C220 1.368 . S
C226 C225 1.523 . S
C227 C211 1.429 . S
C227 C223 1.429 . S
C227 C228 1.523 . S
C228 C212 1.368 . S
C228 C224 1.368 . S
C228 C227 1.523 . S
H229 C204 0.950 . S
H230 C206 0.950 . S
H231 C207 0.949 . S
H232 C209 0.950 . S
H233 C211 0.950 . S
C234 C235 1.349 1_655 S
C234 C236 1.327 . S
C234 H259 0.950 1_554 S
C235 C234 1.349 1_455 S
C235 C251 1.349 . S
C236 C234 1.327 . S
C236 C255 1.429 1_655 S
C236 H260 0.950 . S
C237 C254 1.574 . S
C237 C256 1.368 . S
C237 H261 0.949 . S
H238 C242 0.949 . S
C239 C240 1.349 . S
C239 C241 1.327 . S
C239 H262 0.950 . S
C240 C239 1.349 . S
C240 C252 1.349 1_455 S
C241 C239 1.327 . S
C241 C257 1.429 . S
C241 H263 0.950 . S
C242 H238 0.949 . S
C242 C250 1.574 . S
C242 C258 1.368 1_655 S
H243 C251 0.950 . S
H244 C249 0.950 . S
H245 C250 0.949 . S
H246 C252 0.950 . S
H247 C253 0.950 . S
H248 C254 0.949 . S
C249 H244 0.950 . S
C249 C251 1.327 . S
C249 C255 1.429 . S
C250 C242 1.574 . S
C250 H245 0.949 . S
C250 C256 1.368 1_655 S
C251 C235 1.349 . S
C251 H243 0.950 . S
C251 C249 1.327 . S
C252 C240 1.349 1_655 S
C252 H246 0.950 . S
C252 C253 1.327 . S
C253 H247 0.950 . S
C253 C252 1.327 . S
C253 C257 1.429 1_655 S
C254 C237 1.574 . S
C254 H248 0.949 . S
C254 C258 1.368 . S
C255 C236 1.429 1_455 S
C255 C249 1.429 . S
C255 C256 1.523 . S
C256 C237 1.368 . S
C256 C250 1.368 1_455 S
C256 C255 1.523 . S
C257 C241 1.429 . S
C257 C253 1.429 1_455 S
C257 C258 1.523 . S
C258 C242 1.368 1_455 S
C258 C254 1.368 . S
C258 C257 1.523 . S
H259 C234 0.950 1_556 S
H260 C236 0.950 . S
H261 C237 0.949 . S
H262 C239 0.950 . S
H263 C241 0.950 . S
C264 C265 1.349 . S
C264 C266 1.327 . S
C264 H289 0.950 . S
C265 C264 1.349 . S
C265 C281 1.349 . S
C266 C264 1.327 . S
C266 C285 1.429 . S
C266 H290 0.950 . S
C267 C284 1.574 . S
C267 C286 1.368 . S
C267 H291 0.949 . S
H268 C272 0.949 . S
C269 C270 1.349 . S
C269 C271 1.327 . S
C269 H292 0.950 . S
C270 C269 1.349 . S
C270 C282 1.349 . S
C271 C269 1.327 . S
C271 C287 1.429 . S
C271 H293 0.950 . S
C272 H268 0.949 . S
C272 C280 1.574 . S
C272 C288 1.368 . S
H273 C281 0.950 . S
H274 C279 0.950 . S
H275 C280 0.949 . S
H276 C282 0.950 . S
H277 C283 0.950 . S
H278 C284 0.949 . S
C279 H274 0.950 . S
C279 C281 1.327 . S
C279 C285 1.429 . S
C280 C272 1.574 . S
C280 H275 0.949 . S
C280 C286 1.368 . S
C281 C265 1.349 . S
C281 H273 0.950 . S
C281 C279 1.327 . S
C282 C270 1.349 . S
C282 H276 0.950 . S
C282 C283 1.327 . S
C283 H277 0.950 . S
C283 C282 1.327 . S
C283 C287 1.429 . S
C284 C267 1.574 . S
C284 H278 0.949 . S
C284 C288 1.368 . S
C285 C266 1.429 . S
C285 C279 1.429 . S
C285 C286 1.523 . S
C286 C267 1.368 . S
C286 C280 1.368 . S
C286 C285 1.523 . S
C287 C271 1.429 . S
C287 C283 1.429 . S
C287 C288 1.523 . S
C288 C272 1.368 . S
C288 C284 1.368 . S
C288 C287 1.523 . S
H289 C264 0.950 . S
H290 C266 0.950 . S
H291 C267 0.949 . S
H292 C269 0.950 . S
H293 C271 0.950 . S
C294 C295 1.349 . S
C294 C296 1.327 . S
C294 H319 0.950 . S
C295 C294 1.349 . S
C295 C311 1.349 . S
C296 C294 1.327 . S
C296 C315 1.429 . S
C296 H320 0.950 . S
C297 C314 1.574 . S
C297 C316 1.368 . S
C297 H321 0.949 . S
H298 C302 0.949 . S
C299 C300 1.349 . S
C299 C301 1.327 . S
C299 H322 0.950 . S
C300 C299 1.349 . S
C300 C312 1.349 . S
C301 C299 1.327 . S
C301 C317 1.429 . S
C301 H323 0.950 . S
C302 H298 0.949 . S
C302 C310 1.574 . S
C302 C318 1.368 . S
H303 C311 0.950 . S
H304 C309 0.950 . S
H305 C310 0.949 . S
H306 C312 0.950 . S
H307 C313 0.950 . S
H308 C314 0.949 . S
C309 H304 0.950 . S
C309 C311 1.327 . S
C309 C315 1.429 . S
C310 C302 1.574 . S
C310 H305 0.949 . S
C310 C316 1.368 . S
C311 C295 1.349 . S
C311 H303 0.950 . S
C311 C309 1.327 . S
C312 C300 1.349 . S
C312 H306 0.950 . S
C312 C313 1.327 . S
C313 H307 0.950 . S
C313 C312 1.327 . S
C313 C317 1.429 . S
C314 C297 1.574 . S
C314 H308 0.949 . S
C314 C318 1.368 . S
C315 C296 1.429 . S
C315 C309 1.429 . S
C315 C316 1.523 . S
C316 C297 1.368 . S
C316 C310 1.368 . S
C316 C315 1.523 . S
C317 C301 1.429 . S
C317 C313 1.429 . S
C317 C318 1.523 . S
C318 C302 1.368 . S
C318 C314 1.368 . S
C318 C317 1.523 . S
H319 C294 0.950 . S
H320 C296 0.950 . S
H321 C297 0.949 . S
H322 C299 0.950 . S
H323 C301 0.950 . S
C324 C325 1.349 . S
C324 C326 1.327 . S
C324 H349 0.950 . S
C325 C324 1.349 . S
C325 C341 1.349 . S
C326 C324 1.327 . S
C326 C345 1.429 . S
C326 H350 0.950 . S
C327 C344 1.574 . S
C327 C346 1.368 . S
C327 H351 0.949 . S
H328 C332 0.949 . S
C329 C330 1.349 . S
C329 C331 1.327 . S
C329 H352 0.950 . S
C330 C329 1.349 . S
C330 C342 1.349 . S
C331 C329 1.327 . S
C331 C347 1.429 . S
C331 H353 0.950 . S
C332 H328 0.949 . S
C332 C340 1.574 . S
C332 C348 1.368 . S
H333 C341 0.950 . S
H334 C339 0.950 . S
H335 C340 0.949 . S
H336 C342 0.950 . S
H337 C343 0.950 . S
H338 C344 0.949 . S
C339 H334 0.950 . S
C339 C341 1.327 . S
C339 C345 1.429 . S
C340 C332 1.574 . S
C340 H335 0.949 . S
C340 C346 1.368 . S
C341 C325 1.349 . S
C341 H333 0.950 . S
C341 C339 1.327 . S
C342 C330 1.349 . S
C342 H336 0.950 . S
C342 C343 1.327 . S
C343 H337 0.950 . S
C343 C342 1.327 . S
C343 C347 1.429 . S
C344 C327 1.574 . S
C344 H338 0.949 . S
C344 C348 1.368 . S
C345 C326 1.429 . S
C345 C339 1.429 . S
C345 C346 1.523 . S
C346 C327 1.368 . S
C346 C340 1.368 . S
C346 C345 1.523 . S
C347 C331 1.429 . S
C347 C343 1.429 . S
C347 C348 1.523 . S
C348 C332 1.368 . S
C348 C344 1.368 . S
C348 C347 1.523 . S
H349 C324 0.950 . S
H350 C326 0.950 . S
H351 C327 0.949 . S
H352 C329 0.950 . S
H353 C331 0.950 . S
C354 C355 1.349 . S
C354 C356 1.327 . S
C354 H379 0.950 . S
C355 C354 1.349 . S
C355 C371 1.349 . S
C356 C354 1.327 . S
C356 C375 1.429 . S
C356 H380 0.950 . S
C357 C374 1.574 . S
C357 C376 1.368 . S
C357 H381 0.949 . S
H358 C362 0.949 . S
C359 C360 1.349 . S
C359 C361 1.327 . S
C359 H382 0.950 . S
C360 C359 1.349 . S
C360 C372 1.349 . S
C361 C359 1.327 . S
C361 C377 1.429 . S
C361 H383 0.950 . S
C362 H358 0.949 . S
C362 C370 1.574 . S
C362 C378 1.368 . S
H363 C371 0.950 . S
H364 C369 0.950 . S
H365 C370 0.949 . S
H366 C372 0.950 . S
H367 C373 0.950 . S
H368 C374 0.949 . S
C369 H364 0.950 . S
C369 C371 1.327 . S
C369 C375 1.429 . S
C370 C362 1.574 . S
C370 H365 0.949 . S
C370 C376 1.368 . S
C371 C355 1.349 . S
C371 H363 0.950 . S
C371 C369 1.327 . S
C372 C360 1.349 . S
C372 H366 0.950 . S
C372 C373 1.327 . S
C373 H367 0.950 . S
C373 C372 1.327 . S
C373 C377 1.429 . S
C374 C357 1.574 . S
C374 H368 0.949 . S
C374 C378 1.368 . S
C375 C356 1.429 . S
C375 C369 1.429 . S
C375 C376 1.523 . S
C376 C357 1.368 . S
C376 C370 1.368 . S
C376 C375 1.523 . S
C377 C361 1.429 . S
C377 C373 1.429 . S
C377 C378 1.523 . S
C378 C362 1.368 . S
C378 C374 1.368 . S
C378 C377 1.523 . S
H379 C354 0.950 . S
H380 C356 0.950 . S
H381 C357 0.949 . S
H382 C359 0.950 . S
H383 C361 0.950 . S
C384 C385 1.349 . S
C384 C386 1.327 . S
C384 H409 0.950 . S
C385 C384 1.349 . S
C385 C401 1.349 . S
C386 C384 1.327 . S
C386 C405 1.429 . S
C386 H410 0.950 . S
C387 C404 1.574 . S
C387 C406 1.368 . S
C387 H411 0.949 . S
H388 C392 0.949 . S
C389 C390 1.349 . S
C389 C391 1.327 . S
C389 H412 0.950 . S
C390 C389 1.349 . S
C390 C402 1.349 . S
C391 C389 1.327 . S
C391 C407 1.429 . S
C391 H413 0.950 . S
C392 H388 0.949 . S
C392 C400 1.574 . S
C392 C408 1.368 . S
H393 C401 0.950 . S
H394 C399 0.950 . S
H395 C400 0.949 . S
H396 C402 0.950 . S
H397 C403 0.950 . S
H398 C404 0.949 . S
C399 H394 0.950 . S
C399 C401 1.327 . S
C399 C405 1.429 . S
C400 C392 1.574 . S
C400 H395 0.949 . S
C400 C406 1.368 . S
C401 C385 1.349 . S
C401 H393 0.950 . S
C401 C399 1.327 . S
C402 C390 1.349 . S
C402 H396 0.950 . S
C402 C403 1.327 . S
C403 H397 0.950 . S
C403 C402 1.327 . S
C403 C407 1.429 . S
C404 C387 1.574 . S
C404 H398 0.949 . S
C404 C408 1.368 . S
C405 C386 1.429 . S
C405 C399 1.429 . S
C405 C406 1.523 . S
C406 C387 1.368 . S
C406 C400 1.368 . S
C406 C405 1.523 . S
C407 C391 1.429 . S
C407 C403 1.429 . S
C407 C408 1.523 . S
C408 C392 1.368 . S
C408 C404 1.368 . S
C408 C407 1.523 . S
H409 C384 0.950 . S
H410 C386 0.950 . S
H411 C387 0.949 . S
H412 C389 0.950 . S
H413 C391 0.950 . S
C414 C415 1.349 . S
C414 C416 1.327 . S
C414 H439 0.950 . S
C415 C414 1.349 . S
C415 C431 1.349 . S
C416 C414 1.327 . S
C416 C435 1.429 . S
C416 H440 0.950 . S
C417 C434 1.574 . S
C417 C436 1.368 1_554 S
C417 H441 0.949 . S
H418 C422 0.949 . S
C419 C420 1.349 . S
C419 C421 1.327 . S
C419 H442 0.950 . S
C420 C419 1.349 . S
C420 C432 1.349 1_554 S
C421 C419 1.327 . S
C421 C437 1.429 . S
C421 H443 0.950 . S
C422 H418 0.949 . S
C422 C430 1.574 . S
C422 C438 1.368 . S
H423 C431 0.950 1_554 S
H424 C429 0.950 1_554 S
H425 C430 0.949 . S
H426 C432 0.950 . S
H427 C433 0.950 . S
H428 C434 0.949 . S
C429 H424 0.950 1_556 S
C429 C431 1.327 . S
C429 C435 1.429 . S
C430 C422 1.574 . S
C430 H425 0.949 . S
C430 C436 1.368 . S
C431 C415 1.349 . S
C431 H423 0.950 1_556 S
C431 C429 1.327 . S
C432 C420 1.349 1_556 S
C432 H426 0.950 . S
C432 C433 1.327 . S
C433 H427 0.950 . S
C433 C432 1.327 . S
C433 C437 1.429 1_556 S
C434 C417 1.574 . S
C434 H428 0.949 . S
C434 C438 1.368 1_554 S
C435 C416 1.429 . S
C435 C429 1.429 . S
C435 C436 1.523 . S
C436 C417 1.368 1_556 S
C436 C430 1.368 . S
C436 C435 1.523 . S
C437 C421 1.429 . S
C437 C433 1.429 1_554 S
C437 C438 1.523 1_554 S
C438 C422 1.368 . S
C438 C434 1.368 1_556 S
C438 C437 1.523 1_556 S
H439 C414 0.950 . S
H440 C416 0.950 . S
H441 C417 0.949 . S
H442 C419 0.950 . S
H443 C421 0.950 . S
C85 C9 1.884 . S
C90 C50 1.884 . S
C115 C23 1.884 . S
C120 C64 1.884 . S
C145 C78 1.884 . S
C150 C37 1.884 . S
C175 C8 1.884 1_556 S
C180 C51 1.884 . S
C205 C22 1.884 . S
C210 C65 1.884 . S
C235 C79 1.884 1_554 S
C240 C36 1.884 . S
C265 C20 1.414 . S
C270 C7 1.414 . S
C295 C34 1.414 . S
C300 C21 1.414 . S
C325 C35 1.414 . S
C330 C48 1.413 . S
C355 C62 1.414 . S
C360 C49 1.414 . S
C385 C76 1.414 . S
C390 C63 1.414 . S
C415 C77 1.413 . S
C420 C6 1.413 . S
