# Generated by pormake.
# Topology upb, (4)-cn, num edge types: 1
# Building blocks:
#     Node 0, Type 0, BuildingBlock: KUFVIS_clean_sbu_0, # of connection points: 4
#     Node 1, Type 0, BuildingBlock: KUFVIS_clean_sbu_0, # of connection points: 4
#     Node 2, Type 0, BuildingBlock: KUFVIS_clean_sbu_0, # of connection points: 4
#     Node 3, Type 0, BuildingBlock: KUFVIS_clean_sbu_0, # of connection points: 4
#     Node 4, Type 0, BuildingBlock: KUFVIS_clean_sbu_0, # of connection points: 4
#     Node 5, Type 0, BuildingBlock: KUFVIS_clean_sbu_0, # of connection points: 4
#     Node 6, Type 0, BuildingBlock: KUFVIS_clean_sbu_0, # of connection points: 4
#     Node 7, Type 0, BuildingBlock: KUFVIS_clean_sbu_0, # of connection points: 4
#     Node 8, Type 0, BuildingBlock: KUFVIS_clean_sbu_0, # of connection points: 4
#     Node 9, Type 0, BuildingBlock: KUFVIS_clean_sbu_0, # of connection points: 4
#     Node 10, Type 0, BuildingBlock: KUFVIS_clean_sbu_0, # of connection points: 4
#     Node 11, Type 0, BuildingBlock: KUFVIS_clean_sbu_0, # of connection points: 4
#     Node 12, Type 0, BuildingBlock: KUFVIS_clean_sbu_0, # of connection points: 4
#     Node 13, Type 0, BuildingBlock: KUFVIS_clean_sbu_0, # of connection points: 4
#     Node 14, Type 0, BuildingBlock: KUFVIS_clean_sbu_0, # of connection points: 4
#     Node 15, Type 0, BuildingBlock: KUFVIS_clean_sbu_0, # of connection points: 4
#     Edge 16, Type (0, 0), BuildingBlock: TEMPAE_clean_linker_10, # of connection points: 2
#     Edge 17, Type (0, 0), BuildingBlock: TEMPAE_clean_linker_10, # of connection points: 2
#     Edge 18, Type (0, 0), BuildingBlock: TEMPAE_clean_linker_10, # of connection points: 2
#     Edge 19, Type (0, 0), BuildingBlock: TEMPAE_clean_linker_10, # of connection points: 2
#     Edge 20, Type (0, 0), BuildingBlock: TEMPAE_clean_linker_10, # of connection points: 2
#     Edge 21, Type (0, 0), BuildingBlock: TEMPAE_clean_linker_10, # of connection points: 2
#     Edge 22, Type (0, 0), BuildingBlock: TEMPAE_clean_linker_10, # of connection points: 2
#     Edge 23, Type (0, 0), BuildingBlock: TEMPAE_clean_linker_10, # of connection points: 2
#     Edge 24, Type (0, 0), BuildingBlock: TEMPAE_clean_linker_10, # of connection points: 2
#     Edge 25, Type (0, 0), BuildingBlock: TEMPAE_clean_linker_10, # of connection points: 2
#     Edge 26, Type (0, 0), BuildingBlock: TEMPAE_clean_linker_10, # of connection points: 2
#     Edge 27, Type (0, 0), BuildingBlock: TEMPAE_clean_linker_10, # of connection points: 2
#     Edge 28, Type (0, 0), BuildingBlock: TEMPAE_clean_linker_10, # of connection points: 2
#     Edge 29, Type (0, 0), BuildingBlock: TEMPAE_clean_linker_10, # of connection points: 2
#     Edge 30, Type (0, 0), BuildingBlock: TEMPAE_clean_linker_10, # of connection points: 2
#     Edge 31, Type (0, 0), BuildingBlock: TEMPAE_clean_linker_10, # of connection points: 2
#     Edge 32, Type (0, 0), BuildingBlock: TEMPAE_clean_linker_10, # of connection points: 2
#     Edge 33, Type (0, 0), BuildingBlock: TEMPAE_clean_linker_10, # of connection points: 2
#     Edge 34, Type (0, 0), BuildingBlock: TEMPAE_clean_linker_10, # of connection points: 2
#     Edge 35, Type (0, 0), BuildingBlock: TEMPAE_clean_linker_10, # of connection points: 2
#     Edge 36, Type (0, 0), BuildingBlock: TEMPAE_clean_linker_10, # of connection points: 2
#     Edge 37, Type (0, 0), BuildingBlock: TEMPAE_clean_linker_10, # of connection points: 2
#     Edge 38, Type (0, 0), BuildingBlock: TEMPAE_clean_linker_10, # of connection points: 2
#     Edge 39, Type (0, 0), BuildingBlock: TEMPAE_clean_linker_10, # of connection points: 2
#     Edge 40, Type (0, 0), BuildingBlock: TEMPAE_clean_linker_10, # of connection points: 2
#     Edge 41, Type (0, 0), BuildingBlock: TEMPAE_clean_linker_10, # of connection points: 2
#     Edge 42, Type (0, 0), BuildingBlock: TEMPAE_clean_linker_10, # of connection points: 2
#     Edge 43, Type (0, 0), BuildingBlock: TEMPAE_clean_linker_10, # of connection points: 2
#     Edge 44, Type (0, 0), BuildingBlock: TEMPAE_clean_linker_10, # of connection points: 2
#     Edge 45, Type (0, 0), BuildingBlock: TEMPAE_clean_linker_10, # of connection points: 2
#     Edge 46, Type (0, 0), BuildingBlock: TEMPAE_clean_linker_10, # of connection points: 2
#     Edge 47, Type (0, 0), BuildingBlock: TEMPAE_clean_linker_10, # of connection points: 2
# Relax obj value: 0.213
# Max RMSD: 0.081
# Mean RMSD: 0.081
data_MOF--net-upb--node1-KUFVIS_clean_sbu_0--edge1-TEMPAE_clean_linker_10
_symmetry_space_group_name_H-M    P1
_symmetry_Int_Tables_number       1
_symmetry_cell_setting            triclinic
loop_
_symmetry_equiv_pos_as_xyz
'x, y, z'
_cell_length_a     44.902606
_cell_length_b     44.780773
_cell_length_c     32.90922
_cell_angle_alpha  90.008746
_cell_angle_beta   90.006759
_cell_angle_gamma 90.086898
loop_
_atom_site_label
_atom_site_type_symbol
_atom_site_fract_x
_atom_site_fract_y
_atom_site_fract_z
_atom_type_partial_charge
Mn0 Mn 0.03169 0.23766 0.30714 0.0
Mn1 Mn 0.08644 0.22625 0.37493 0.0
C2 C 0.02631 0.25549 0.37314 0.0
C3 C 0.98922 0.21828 0.27656 0.0
C4 C 0.08928 0.27273 0.30778 0.0
O5 O 0.05687 0.20547 0.28032 0.0
O6 O 0.08852 0.19578 0.33146 0.0
C7 C 0.06538 0.1685 0.40807 0.0
N8 N 0.07392 0.19736 0.41408 0.0
C9 C 0.06903 0.1923 0.4865 0.0
C10 C 0.06003 0.16256 0.48112 0.0
C11 C 0.0581 0.15065 0.44172 0.0
C12 C 0.07512 0.20925 0.45176 0.0
H13 H 0.06412 0.15922 0.37782 0.0
C14 C 0.07771 0.1902 0.2963 0.0
O15 O 0.0047 0.23898 0.25852 0.0
O16 O -0.00152 0.20939 0.31174 0.0
N17 N 0.08753 0.25377 0.41934 0.0
C18 C 0.09697 0.28271 0.4193 0.0
C19 C 0.10081 0.29775 0.45639 0.0
C20 C 0.09554 0.2827 0.49314 0.0
C21 C 0.08636 0.25276 0.49248 0.0
C22 C 0.08287 0.23895 0.4546 0.0
H23 H 0.10182 0.29419 0.39122 0.0
O24 O 0.01046 0.26621 0.34359 0.0
O25 O 0.04478 0.23461 0.36266 0.0
O26 O 0.06296 0.26918 0.29398 0.0
O27 O 0.10046 0.25686 0.33627 0.0
C28 C 0.08094 0.23597 0.52794 0.0
C29 C 0.07211 0.20581 0.52495 0.0
H30 H 0.05443 0.14873 0.50702 0.0
H31 H 0.05118 0.12771 0.43732 0.0
H32 H 0.10811 0.32079 0.45667 0.0
H33 H 0.09864 0.29433 0.5217 0.0
H34 H 0.08338 0.24607 0.55767 0.0
H35 H 0.06777 0.19318 0.55241 0.0
Mn36 Mn 0.79774 0.04343 0.27409 0.0
Mn37 Mn 0.78154 0.09803 0.34133 0.0
C38 C 0.78607 0.03133 0.34048 0.0
C39 C 0.83182 0.01177 0.24298 0.0
C40 C 0.73719 0.07376 0.28085 0.0
O41 O 0.81372 0.07997 0.24532 0.0
O42 O 0.80067 0.11446 0.29147 0.0
C43 C 0.84353 0.11555 0.36082 0.0
N44 N 0.81579 0.10736 0.37329 0.0
C45 C 0.82864 0.11545 0.44339 0.0
C46 C 0.85732 0.12411 0.4313 0.0
C47 C 0.86485 0.12398 0.38986 0.0
C48 C 0.80849 0.10689 0.4131 0.0
H49 H 0.84927 0.1156 0.32898 0.0
C50 C 0.8124 0.1069 0.25751 0.0
O51 O 0.80623 0.01742 0.22624 0.0
O52 O 0.83803 0.0258 0.27638 0.0
N53 N 0.7634 0.08668 0.39161 0.0
C54 C 0.736 0.0746 0.39836 0.0
C55 C 0.72548 0.07179 0.43836 0.0
C56 C 0.74304 0.08189 0.47092 0.0
C57 C 0.77124 0.09413 0.46327 0.0
C58 C 0.78058 0.09621 0.4228 0.0
H59 H 0.72241 0.06702 0.37341 0.0
O60 O 0.78311 0.01207 0.31137 0.0
O61 O 0.79636 0.05756 0.33032 0.0
O62 O 0.75477 0.05637 0.26179 0.0
O63 O 0.74496 0.08981 0.31103 0.0
C64 C 0.79063 0.10395 0.49421 0.0
C65 C 0.81937 0.11448 0.48429 0.0
H66 H 0.87389 0.13048 0.45353 0.0
H67 H 0.88701 0.13047 0.38039 0.0
H68 H 0.7038 0.06208 0.44406 0.0
H69 H 0.73474 0.07996 0.5017 0.0
H70 H 0.78395 0.10278 0.5258 0.0
H71 H 0.83433 0.12124 0.50841 0.0
Mn72 Mn 0.95831 0.76946 0.31003 0.0
Mn73 Mn 0.90582 0.78253 0.38045 0.0
C74 C 0.96532 0.75213 0.37585 0.0
C75 C -3e-05 0.78839 0.27697 0.0
C76 C 0.90039 0.73516 0.31469 0.0
O77 O 0.93257 0.80139 0.28379 0.0
O78 O 0.90295 0.81264 0.33654 0.0
C79 C 0.92951 0.83999 0.41117 0.0
N80 N 0.92029 0.81148 0.41829 0.0
C81 C 0.92841 0.81691 0.49013 0.0
C82 C 0.93813 0.84629 0.48361 0.0
C83 C 0.9388 0.85784 0.44391 0.0
C84 C 0.92035 0.79991 0.45617 0.0
H85 H 0.92985 0.84898 0.38071 0.0
C86 C 0.91261 0.81737 0.30053 0.0
O87 O 0.98397 0.76756 0.26003 0.0
O88 O 0.99169 0.79758 0.31244 0.0
N89 N 0.90551 0.75549 0.42543 0.0
C90 C 0.89512 0.72688 0.42658 0.0
C91 C 0.89224 0.71229 0.46415 0.0
C92 C 0.89946 0.72745 0.50021 0.0
C93 C 0.90953 0.75707 0.49837 0.0
C94 C 0.91193 0.77045 0.46006 0.0
H95 H 0.8888 0.71533 0.3991 0.0
O96 O 0.98044 0.74115 0.3458 0.0
O97 O 0.94683 0.77317 0.36603 0.0
O98 O 0.92639 0.73806 0.29948 0.0
O99 O 0.8901 0.75174 0.34311 0.0
C100 C 0.91682 0.77398 0.53311 0.0
C101 C 0.92636 0.80384 0.52898 0.0
H102 H 0.94498 0.86023 0.50884 0.0
H103 H 0.94621 0.88051 0.43863 0.0
H104 H 0.88422 0.68951 0.46535 0.0
H105 H 0.89712 0.71615 0.52914 0.0
H106 H 0.91522 0.76421 0.56314 0.0
H107 H 0.9321 0.81655 0.55588 0.0
Mn108 Mn 0.19126 0.96042 0.27473 0.0
Mn109 Mn 0.20911 0.90336 0.33732 0.0
C110 C 0.204 0.96998 0.34163 0.0
C111 C 0.15662 0.99296 0.24658 0.0
C112 C 0.25198 0.93019 0.2768 0.0
O113 O 0.17499 0.92486 0.24392 0.0
O114 O 0.18865 0.88876 0.28741 0.0
C115 C 0.14775 0.88502 0.35894 0.0
N116 N 0.17586 0.89267 0.37041 0.0
C117 C 0.16532 0.88132 0.44038 0.0
C118 C 0.13626 0.87314 0.42933 0.0
C119 C 0.12738 0.87519 0.38847 0.0
C120 C 0.18443 0.89138 0.40971 0.0
H121 H 0.14103 0.88646 0.32752 0.0
C122 C 0.17641 0.89752 0.25433 0.0
O123 O 0.18196 0.98792 0.22886 0.0
O124 O 0.15094 0.97789 0.27932 0.0
N125 N 0.22867 0.91286 0.38731 0.0
C126 C 0.25625 0.9247 0.3934 0.0
C127 C 0.26819 0.92545 0.43282 0.0
C128 C 0.25182 0.9136 0.46544 0.0
C129 C 0.22331 0.90187 0.45853 0.0
C130 C 0.21258 0.90179 0.41862 0.0
H131 H 0.26898 0.93348 0.36837 0.0
O132 O 0.20634 0.99039 0.31386 0.0
O133 O 0.19378 0.94411 0.32983 0.0
O134 O 0.23404 0.9484 0.25998 0.0
O135 O 0.24484 0.91277 0.30581 0.0
C136 C 0.205 0.8905 0.4897 0.0
C137 C 0.17595 0.88039 0.48067 0.0
H138 H 0.12044 0.8657 0.45199 0.0
H139 H 0.10494 0.86909 0.37978 0.0
H140 H 0.2901 0.93482 0.43799 0.0
H141 H 0.26131 0.91374 0.49568 0.0
H142 H 0.21276 0.89012 0.52086 0.0
H143 H 0.16185 0.87241 0.50503 0.0
Mn144 Mn 0.06527 0.76775 0.71719 0.0
Mn145 Mn 0.12503 0.77297 0.65604 0.0
C146 C 0.06139 0.75381 0.64967 0.0
C147 C 0.02446 0.79146 0.74566 0.0
C148 C 0.11559 0.72316 0.71693 0.0
O149 O 0.09377 0.79394 0.74967 0.0
O150 O 0.12935 0.80059 0.7025 0.0
C151 C 0.11582 0.8349 0.62717 0.0
N152 N 0.11941 0.8053 0.61895 0.0
C153 C 0.11677 0.81422 0.54698 0.0
C154 C 0.11299 0.84478 0.55465 0.0
C155 C 0.11242 0.85515 0.59494 0.0
C156 C 0.11934 0.79502 0.58035 0.0
H157 H 0.11548 0.84298 0.65809 0.0
C158 C 0.11747 0.80652 0.73689 0.0
O159 O 0.03561 0.76771 0.76253 0.0
O160 O 0.03738 0.80138 0.71317 0.0
N161 N 0.1238 0.74774 0.60913 0.0
C162 C 0.12867 0.71774 0.60686 0.0
C163 C 0.13056 0.70391 0.56865 0.0
C164 C 0.12805 0.72114 0.53317 0.0
C165 C 0.12385 0.75207 0.53622 0.0
C166 C 0.12213 0.76461 0.57513 0.0
H167 H 0.13123 0.70441 0.63395 0.0
O168 O 0.04174 0.74509 0.67598 0.0
O169 O 0.08205 0.77127 0.66363 0.0
O170 O 0.08959 0.73046 0.72876 0.0
O171 O 0.13153 0.73856 0.69247 0.0
C172 C 0.12187 0.77101 0.50217 0.0
C173 C 0.11824 0.80205 0.50756 0.0
H174 H 0.11046 0.86049 0.52988 0.0
H175 H 0.10951 0.8787 0.60112 0.0
H176 H 0.13411 0.68007 0.56656 0.0
H177 H 0.12958 0.7104 0.50374 0.0
H178 H 0.12301 0.76195 0.4717 0.0
H179 H 0.11646 0.81629 0.48112 0.0
Mn180 Mn 0.20012 0.05087 0.69807 0.0
Mn181 Mn 0.20077 0.10995 0.63408 0.0
C182 C 0.20993 0.04367 0.62981 0.0
C183 C 0.17549 0.01218 0.73125 0.0
C184 C 0.25179 0.09484 0.69017 0.0
O185 O 0.17854 0.08244 0.73078 0.0
O186 O 0.17973 0.11993 0.68538 0.0
C187 C 0.13615 0.11473 0.6172 0.0
N188 N 0.16468 0.11218 0.60357 0.0
C189 C 0.1492 0.11919 0.53424 0.0
C190 C 0.11964 0.12179 0.54749 0.0
C191 C 0.11307 0.11943 0.58912 0.0
C192 C 0.17119 0.11414 0.56356 0.0
H193 H 0.13111 0.11341 0.64924 0.0
C194 C 0.17235 0.10901 0.71991 0.0
O195 O 0.20025 0.02307 0.74531 0.0
O196 O 0.16456 0.0246 0.69891 0.0
N197 N 0.21998 0.10405 0.58292 0.0
C198 C 0.24929 0.09882 0.57505 0.0
C199 C 0.25947 0.0995 0.53472 0.0
C200 C 0.23952 0.10605 0.50308 0.0
C201 C 0.20939 0.11107 0.5119 0.0
C202 C 0.20053 0.10997 0.55263 0.0
H203 H 0.2648 0.09438 0.59938 0.0
O204 O 0.21862 0.02451 0.65688 0.0
O205 O 0.19533 0.06681 0.64325 0.0
O206 O 0.23992 0.07223 0.7072 0.0
O207 O 0.2389 0.11017 0.66279 0.0
C208 C 0.18779 0.11708 0.48193 0.0
C209 C 0.15769 0.12106 0.49307 0.0
H210 H 0.10183 0.12536 0.52592 0.0
H211 H 0.0903 0.12146 0.59956 0.0
H212 H 0.28271 0.09542 0.52809 0.0
H213 H 0.24761 0.10714 0.47212 0.0
H214 H 0.194 0.11818 0.45015 0.0
H215 H 0.14119 0.12514 0.46971 0.0
Mn216 Mn 0.93756 0.22026 0.71683 0.0
Mn217 Mn 0.87615 0.21592 0.65847 0.0
C218 C 0.93862 0.23844 0.65103 0.0
C219 C 0.98034 0.19727 0.74083 0.0
C220 C 0.88542 0.26271 0.72361 0.0
O221 O 0.91147 0.19066 0.74756 0.0
O222 O 0.87412 0.18604 0.70257 0.0
C223 C 0.88665 0.15582 0.62388 0.0
N224 N 0.88182 0.18558 0.61841 0.0
C225 C 0.88213 0.17996 0.54574 0.0
C226 C 0.88717 0.14927 0.55058 0.0
C227 C 0.88954 0.13717 0.58982 0.0
C228 C 0.88019 0.19755 0.5808 0.0
H229 H 0.88832 0.14637 0.65399 0.0
C230 C 0.88755 0.17832 0.73518 0.0
O231 O 0.9682 0.21914 0.76084 0.0
O232 O 0.96727 0.18874 0.7077 0.0
N233 N 0.87501 0.24324 0.61381 0.0
C234 C 0.86889 0.27306 0.61443 0.0
C235 C 0.86513 0.28846 0.57763 0.0
C236 C 0.86701 0.27297 0.54062 0.0
C237 C 0.87248 0.24216 0.54076 0.0
C238 C 0.87613 0.228 0.57836 0.0
H239 H 0.86679 0.28503 0.64274 0.0
O240 O 0.95859 0.24661 0.67725 0.0
O241 O 0.9193 0.21906 0.66392 0.0
O242 O 0.91176 0.25537 0.73388 0.0
O243 O 0.86946 0.24832 0.69806 0.0
C244 C 0.87379 0.22483 0.50509 0.0
C245 C 0.87875 0.19378 0.50757 0.0
H246 H 0.88926 0.13476 0.52444 0.0
H247 H 0.8934 0.11349 0.5938 0.0
H248 H 0.86059 0.31219 0.5778 0.0
H249 H 0.86396 0.28491 0.51231 0.0
H250 H 0.87113 0.23517 0.47555 0.0
H251 H 0.88002 0.18081 0.47988 0.0
Mn252 Mn 0.80114 0.93479 0.68736 0.0
Mn253 Mn 0.79547 0.87813 0.61994 0.0
C254 C 0.7866 0.94455 0.62136 0.0
C255 C 0.82856 0.972 0.71962 0.0
C256 C 0.7501 0.89021 0.686 0.0
O257 O 0.82455 0.90163 0.71436 0.0
O258 O 0.82251 0.86666 0.66515 0.0
C259 C 0.85704 0.87457 0.58804 0.0
N260 N 0.82728 0.87782 0.58144 0.0
C261 C 0.83399 0.87489 0.509 0.0
C262 C 0.86471 0.87154 0.515 0.0
C263 C 0.8763 0.87153 0.55468 0.0
C264 C 0.81594 0.87803 0.54337 0.0
H265 H 0.86593 0.8741 0.61853 0.0
C266 C 0.83158 0.8762 0.69978 0.0
O267 O 0.80487 0.9607 0.73624 0.0
O268 O 0.83694 0.96076 0.68512 0.0
N269 N 0.77023 0.88637 0.57454 0.0
C270 C 0.74048 0.89233 0.57404 0.0
C271 C 0.72568 0.89485 0.53662 0.0
C272 C 0.74149 0.89075 0.50022 0.0
C273 C 0.77212 0.88472 0.50154 0.0
C274 C 0.78572 0.88274 0.53971 0.0
H275 H 0.72817 0.89508 0.60197 0.0
O276 O 0.78004 0.96282 0.65064 0.0
O277 O 0.80166 0.92083 0.63142 0.0
O278 O 0.76211 0.91356 0.7007 0.0
O279 O 0.76131 0.87545 0.65674 0.0
C280 C 0.78975 0.88084 0.46652 0.0
C281 C 0.82066 0.87584 0.47024 0.0
H282 H 0.87955 0.8693 0.48929 0.0
H283 H 0.9 0.86901 0.55955 0.0
H284 H 0.70207 0.89965 0.53583 0.0
H285 H 0.72992 0.89243 0.47145 0.0
H286 H 0.77985 0.8821 0.43655 0.0
H287 H 0.83407 0.87339 0.44308 0.0
Mn288 Mn 0.53856 0.73122 0.81575 0.0
Mn289 Mn 0.5898 0.71905 0.8882 0.0
C290 C 0.53026 0.74948 0.88087 0.0
C291 C 0.49747 0.71238 0.78138 0.0
C292 C 0.59656 0.7653 0.82124 0.0
O293 O 0.56452 0.6987 0.79134 0.0
O294 O 0.59328 0.68822 0.84525 0.0
C295 C 0.56576 0.66204 0.91996 0.0
N296 N 0.57478 0.6907 0.92646 0.0
C297 C 0.56612 0.68625 0.99832 0.0
C298 C 0.55665 0.65671 0.99243 0.0
C299 C 0.55633 0.64461 0.95304 0.0
C300 C 0.57439 0.7028 0.96404 0.0
H301 H 0.56575 0.65259 0.88975 0.0
C302 C 0.58414 0.68291 0.80914 0.0
O303 O 0.51413 0.73277 0.7647 0.0
O304 O 0.5048 0.70349 0.81741 0.0
N305 N 0.58956 0.74677 0.9324 0.0
C306 C 0.59998 0.77538 0.933 0.0
C307 C 0.60256 0.79048 0.97024 0.0
C308 C 0.59505 0.77582 0.00656 0.0
C309 C 0.58494 0.7462 0.00532 0.0
C310 C 0.58282 0.73229 0.96731 0.0
H311 H 0.60655 0.78653 0.90534 0.0
O312 O 0.51604 0.76022 0.84984 0.0
O313 O 0.5489 0.72822 0.87236 0.0
O314 O 0.57082 0.76217 0.8054 0.0
O315 O 0.60631 0.74921 0.85049 0.0
C316 C 0.57731 0.72979 0.04035 0.0
C317 C 0.56773 0.6999 0.03683 0.0
H318 H 0.54972 0.64309 0.01794 0.0
H319 H 0.54912 0.62181 0.94825 0.0
H320 H 0.61062 0.81326 0.97099 0.0
H321 H 0.59718 0.78751 0.03524 0.0
H322 H 0.57866 0.73998 0.07015 0.0
H323 H 0.56177 0.68756 0.06396 0.0
Mn324 Mn 0.30772 0.53874 0.76678 0.0
Mn325 Mn 0.28692 0.59585 0.82767 0.0
C326 C 0.29286 0.52941 0.83287 0.0
C327 C 0.34355 0.50643 0.74109 0.0
C328 C 0.24665 0.56806 0.76458 0.0
O329 O 0.32452 0.57442 0.73678 0.0
O330 O 0.30907 0.61055 0.77917 0.0
C331 C 0.34709 0.61525 0.85355 0.0
N332 N 0.31874 0.60706 0.86307 0.0
C333 C 0.32666 0.61814 0.93379 0.0
C334 C 0.3559 0.62695 0.92473 0.0
C335 C 0.36622 0.62529 0.88448 0.0
C336 C 0.30879 0.60798 0.90179 0.0
H337 H 0.35494 0.61408 0.82261 0.0
C338 C 0.32253 0.60178 0.74698 0.0
O339 O 0.31878 0.5112 0.72178 0.0
O340 O 0.34807 0.52175 0.77398 0.0
N341 N 0.26566 0.58609 0.87628 0.0
C342 C 0.23803 0.57391 0.88044 0.0
C343 C 0.22483 0.57257 0.91906 0.0
C344 C 0.23996 0.58424 0.95289 0.0
C345 C 0.26849 0.59647 0.94796 0.0
C346 C 0.28053 0.5971 0.90875 0.0
H347 H 0.22623 0.5653 0.85448 0.0
O348 O 0.29173 0.50878 0.80527 0.0
O349 O 0.30312 0.55534 0.82143 0.0
O350 O 0.26536 0.54996 0.74925 0.0
O351 O 0.25252 0.58586 0.7937 0.0
C352 C 0.28557 0.60781 0.98044 0.0
C353 C 0.31471 0.61852 0.97339 0.0
H354 H 0.37074 0.6346 0.94848 0.0
H355 H 0.38882 0.63185 0.87737 0.0
H356 H 0.20289 0.56288 0.92269 0.0
H357 H 0.22951 0.58359 0.98252 0.0
H358 H 0.27679 0.60775 0.01109 0.0
H359 H 0.32788 0.62652 0.99873 0.0
Mn360 Mn 0.46358 0.26021 0.80942 0.0
Mn361 Mn 0.40783 0.27258 0.87527 0.0
C362 C 0.4677 0.24279 0.87578 0.0
C363 C 0.5066 0.27927 0.77994 0.0
C364 C 0.40564 0.2259 0.80826 0.0
O365 O 0.43908 0.29242 0.78156 0.0
O366 O 0.40706 0.30321 0.83188 0.0
C367 C 0.42889 0.32998 0.90959 0.0
N368 N 0.41998 0.30117 0.91507 0.0
C369 C 0.42353 0.30592 0.98769 0.0
C370 C 0.43283 0.33561 0.98288 0.0
C371 C 0.43565 0.34765 0.94364 0.0
C372 C 0.41793 0.28916 0.95261 0.0
H373 H 0.43079 0.33937 0.87947 0.0
C374 C 0.41846 0.30832 0.79693 0.0
O375 O 0.49134 0.25852 0.76163 0.0
O376 O 0.49684 0.28832 0.8148 0.0
N377 N 0.40562 0.24492 0.91943 0.0
C378 C 0.39609 0.216 0.91884 0.0
C379 C 0.39155 0.20083 0.95567 0.0
C380 C 0.39625 0.21569 0.99271 0.0
C381 C 0.40558 0.24559 0.99259 0.0
C382 C 0.4098 0.25953 0.95495 0.0
H383 H 0.39169 0.20465 0.89052 0.0
O384 O 0.48401 0.23177 0.84692 0.0
O385 O 0.44956 0.26369 0.8644 0.0
O386 O 0.43234 0.2288 0.79562 0.0
O387 O 0.39408 0.24226 0.83595 0.0
C388 C 0.41052 0.26219 0.02836 0.0
C389 C 0.41963 0.29229 0.02591 0.0
H390 H 0.4378 0.34938 0.00909 0.0
H391 H 0.44277 0.37056 0.93968 0.0
H392 H 0.38415 0.17782 0.95552 0.0
H393 H 0.39262 0.20395 0.02105 0.0
H394 H 0.40749 0.25198 0.05791 0.0
H395 H 0.42358 0.30476 0.05361 0.0
Mn396 Mn 0.69865 0.45428 0.78181 0.0
Mn397 Mn 0.71376 0.39854 0.84772 0.0
C398 C 0.71034 0.46527 0.84855 0.0
C399 C 0.66528 0.48714 0.75159 0.0
C400 C 0.75862 0.42269 0.78797 0.0
O401 O 0.68201 0.41844 0.75205 0.0
O402 O 0.69451 0.38312 0.79736 0.0
C403 C 0.65145 0.38189 0.86656 0.0
N404 N 0.67931 0.38934 0.87932 0.0
C405 C 0.66625 0.38044 0.94915 0.0
C406 C 0.63742 0.37252 0.93675 0.0
C407 C 0.62993 0.37342 0.89532 0.0
C408 C 0.68658 0.38908 0.91915 0.0
H409 H 0.64574 0.38243 0.83471 0.0
C410 C 0.68299 0.39131 0.76354 0.0
O411 O 0.69075 0.4812 0.73469 0.0
O412 O 0.65872 0.47268 0.7845 0.0
N413 N 0.73199 0.40893 0.89833 0.0
C414 C 0.75954 0.42055 0.90546 0.0
C415 C 0.77008 0.42253 0.94555 0.0
C416 C 0.75238 0.41209 0.97777 0.0
C417 C 0.72398 0.40047 0.96973 0.0
C418 C 0.71464 0.39917 0.9292 0.0
H419 H 0.77324 0.42834 0.88076 0.0
O420 O 0.71383 0.48482 0.81991 0.0
O421 O 0.69961 0.43937 0.83769 0.0
O422 O 0.74138 0.44064 0.76926 0.0
O423 O 0.75052 0.4065 0.81782 0.0
C424 C 0.70439 0.39052 0.00036 0.0
C425 C 0.67548 0.38065 0.99009 0.0
H426 H 0.6207 0.36615 0.95875 0.0
H427 H 0.60767 0.36753 0.88565 0.0
H428 H 0.7919 0.43181 0.95157 0.0
H429 H 0.76074 0.41329 0.00859 0.0
H430 H 0.71105 0.3911 0.03198 0.0
H431 H 0.66038 0.37381 0.01398 0.0
Mn432 Mn 0.55714 0.27619 0.22079 0.0
Mn433 Mn 0.61789 0.27985 0.16121 0.0
C434 C 0.55476 0.2588 0.15462 0.0
C435 C 0.51539 0.3003 0.24598 0.0
C436 C 0.60835 0.23263 0.22574 0.0
O437 O 0.58446 0.30455 0.25176 0.0
O438 O 0.62092 0.30948 0.20553 0.0
C439 C 0.60796 0.34026 0.12738 0.0
N440 N 0.61231 0.31047 0.12153 0.0
C441 C 0.61121 0.31642 0.04894 0.0
C442 C 0.60663 0.34716 0.05416 0.0
C443 C 0.60491 0.35911 0.09356 0.0
C444 C 0.61332 0.29864 0.0838 0.0
H445 H 0.60676 0.34957 0.15761 0.0
C446 C 0.60825 0.31685 0.23884 0.0
O447 O 0.52683 0.27771 0.26526 0.0
O448 O 0.52852 0.30883 0.21293 0.0
N449 N 0.61813 0.25272 0.11629 0.0
C450 C 0.62393 0.22284 0.11652 0.0
C451 C 0.62713 0.20756 0.07952 0.0
C452 C 0.62502 0.22324 0.04269 0.0
C453 C 0.61991 0.25412 0.0432 0.0
C454 C 0.61686 0.26814 0.08101 0.0
H455 H 0.62623 0.21071 0.14468 0.0
O456 O 0.53484 0.251 0.18108 0.0
O457 O 0.57478 0.27747 0.16749 0.0
O458 O 0.58211 0.24011 0.23637 0.0
O459 O 0.62438 0.24716 0.20043 0.0
C460 C 0.61839 0.27162 0.00771 0.0
C461 C 0.61394 0.30273 0.01058 0.0
H462 H 0.6044 0.36182 0.02822 0.0
H463 H 0.6014 0.38281 0.09783 0.0
H464 H 0.6314 0.18378 0.0794 0.0
H465 H 0.62762 0.2114 0.01421 0.0
H466 H 0.62056 0.26138 0.97804 0.0
H467 H 0.61252 0.31583 0.98303 0.0
Mn468 Mn 0.69515 0.56021 0.19693 0.0
Mn469 Mn 0.69949 0.61671 0.12905 0.0
C470 C 0.7086 0.55031 0.13052 0.0
C471 C 0.66826 0.52291 0.22987 0.0
C472 C 0.7465 0.60446 0.19286 0.0
O473 O 0.67214 0.59328 0.22472 0.0
O474 O 0.67388 0.6283 0.17568 0.0
C475 C 0.637 0.62058 0.10067 0.0
N476 N 0.66652 0.61722 0.09238 0.0
C477 C 0.65766 0.62069 0.02041 0.0
C478 C 0.62716 0.62406 0.02814 0.0
C479 C 0.61676 0.62391 0.06842 0.0
C480 C 0.67672 0.61723 0.05371 0.0
H481 H 0.62903 0.62098 0.13163 0.0
C482 C 0.66521 0.61882 0.2105 0.0
O483 O 0.69223 0.53415 0.24586 0.0
O484 O 0.65934 0.5343 0.19573 0.0
N485 N 0.72331 0.60857 0.08222 0.0
C486 C 0.75303 0.60276 0.07999 0.0
C487 C 0.76677 0.60085 0.04176 0.0
C488 C 0.74992 0.60539 0.00635 0.0
C489 C 0.7193 0.61114 0.00943 0.0
C490 C 0.70681 0.61257 0.04833 0.0
H491 H 0.76616 0.59972 0.10716 0.0
O492 O 0.71565 0.53216 0.1597 0.0
O493 O 0.6936 0.57402 0.14085 0.0
O494 O 0.73449 0.58155 0.20886 0.0
O495 O 0.73474 0.61903 0.16383 0.0
C496 C 0.70066 0.61535 0.97546 0.0
C497 C 0.66986 0.62016 0.98095 0.0
H498 H 0.61156 0.62652 0.00332 0.0
H499 H 0.59324 0.62659 0.0746 0.0
H500 H 0.79037 0.59622 0.0396 0.0
H501 H 0.7607 0.6043 0.97696 0.0
H502 H 0.7097 0.61449 0.94497 0.0
H503 H 0.65567 0.62288 0.95458 0.0
Mn504 Mn 0.42923 0.72678 0.21895 0.0
Mn505 Mn 0.36856 0.72233 0.1593 0.0
C506 C 0.43183 0.74236 0.15201 0.0
C507 C 0.47078 0.70314 0.2455 0.0
C508 C 0.37842 0.77086 0.22194 0.0
O509 O 0.40161 0.69938 0.25094 0.0
O510 O 0.36521 0.69363 0.20468 0.0
C511 C 0.37762 0.66112 0.12753 0.0
N512 N 0.37394 0.69089 0.12069 0.0
C513 C 0.37604 0.6837 0.04831 0.0
C514 C 0.37978 0.65295 0.05454 0.0
C515 C 0.38068 0.64164 0.09434 0.0
C516 C 0.37362 0.70208 0.08257 0.0
H517 H 0.37822 0.65229 0.15806 0.0
C518 C 0.37779 0.68692 0.23834 0.0
O519 O 0.45938 0.72626 0.26362 0.0
O520 O 0.45769 0.69378 0.21282 0.0
N521 N 0.36891 0.74862 0.11347 0.0
C522 C 0.36372 0.77861 0.1126 0.0
C523 C 0.36135 0.79329 0.07505 0.0
C524 C 0.36371 0.77693 0.0388 0.0
C525 C 0.36826 0.74599 0.04043 0.0
C526 C 0.37047 0.73257 0.07873 0.0
H527 H 0.3613 0.79127 0.1403 0.0
O528 O 0.45177 0.75077 0.17812 0.0
O529 O 0.41164 0.72427 0.16577 0.0
O530 O 0.40459 0.76341 0.23282 0.0
O531 O 0.36223 0.75587 0.1973 0.0
C532 C 0.37012 0.72788 0.00555 0.0
C533 C 0.37433 0.69681 0.00947 0.0
H534 H 0.38191 0.63783 0.02902 0.0
H535 H 0.38358 0.61794 0.09943 0.0
H536 H 0.35754 0.81714 0.07406 0.0
H537 H 0.36181 0.78833 0.00988 0.0
H538 H 0.36841 0.73764 0.97553 0.0
H539 H 0.37601 0.6832 0.98238 0.0
Mn540 Mn 0.29423 0.44416 0.18662 0.0
Mn541 Mn 0.29169 0.38644 0.12045 0.0
C542 C 0.28333 0.45294 0.11902 0.0
C543 C 0.32002 0.48161 0.22073 0.0
C544 C 0.24258 0.40036 0.18046 0.0
O545 O 0.31588 0.41137 0.21704 0.0
O546 O 0.31539 0.37545 0.16918 0.0
C547 C 0.35517 0.38177 0.09675 0.0
N548 N 0.32601 0.38502 0.08624 0.0
C549 C 0.3376 0.38016 0.01516 0.0
C550 C 0.36776 0.37694 0.02517 0.0
C551 C 0.37661 0.37784 0.06613 0.0
C552 C 0.31731 0.38434 0.04691 0.0
H553 H 0.36194 0.38197 0.12825 0.0
C554 C 0.32295 0.38548 0.2042 0.0
O555 O 0.29537 0.47071 0.23507 0.0
O556 O 0.33021 0.46992 0.18743 0.0
N557 N 0.26977 0.39385 0.07173 0.0
C558 C 0.24018 0.39963 0.06718 0.0
C559 C 0.22789 0.40065 0.02798 0.0
C560 C 0.24603 0.39525 0.99401 0.0
C561 C 0.27648 0.3896 -0.00054 0.0
C562 C 0.2875 0.38903 0.03923 0.0
H563 H 0.22605 0.40326 0.09326 0.0
O564 O 0.27542 0.47173 0.14704 0.0
O565 O 0.29768 0.4293 0.1312 0.0
O566 O 0.25435 0.4234 0.19639 0.0
O567 O 0.25512 0.38505 0.15276 0.0
C568 C 0.29636 0.38459 0.96704 0.0
C569 C 0.32691 0.37989 0.97488 0.0
H570 H 0.3843 0.37404 0.00161 0.0
H571 H 0.39986 0.37528 0.07406 0.0
H572 H 0.20441 0.40521 0.02398 0.0
H573 H 0.23634 0.3956 0.96389 0.0
H574 H 0.28848 0.38477 0.93593 0.0
H575 H 0.34206 0.37657 0.94967 0.0
C576 C 0.11377 0.14828 0.29034 0.0
C577 C 0.08875 0.16322 0.27506 0.0
C578 C 0.12224 0.12041 0.27518 0.0
C579 C 0.10545 0.10712 0.24352 0.0
C580 C 0.08144 0.12294 0.22588 0.0
C581 C 0.07323 0.15083 0.24202 0.0
C582 C 0.14817 0.10445 0.29484 0.0
C583 C 0.06334 0.10985 0.19159 0.0
C584 C 0.14807 0.04 0.20743 0.0
C585 C 0.13766 0.01853 0.23504 0.0
C586 C 0.13513 0.06851 0.20587 0.0
C587 C 0.11158 0.07551 0.23279 0.0
C588 C 0.09854 0.05265 0.25661 0.0
C589 C 0.11171 0.02434 0.25732 0.0
C590 C 0.14883 0.09198 0.17882 0.0
C591 C 0.07304 0.059 0.28523 0.0
H592 H 0.12623 0.15783 0.31541 0.0
H593 H 0.05394 0.16227 0.22983 0.0
H594 H 0.14014 0.08387 0.31014 0.0
H595 H 0.16461 0.09764 0.27148 0.0
H596 H 0.15974 0.11853 0.31775 0.0
H597 H 0.0516 0.12751 0.17416 0.0
H598 H 0.07752 0.09682 0.17044 0.0
H599 H 0.04632 0.09449 0.20428 0.0
H600 H 0.16782 0.03548 0.18951 0.0
H601 H 0.10313 0.00759 0.27806 0.0
H602 H 0.16431 0.10599 0.19697 0.0
H603 H 0.13148 0.10688 0.16599 0.0
H604 H 0.16163 0.08178 0.15349 0.0
H605 H 0.08142 0.07197 0.31163 0.0
H606 H 0.06259 0.03815 0.29675 0.0
H607 H 0.05573 0.07263 0.27001 0.0
C608 C 0.94872 0.21589 0.22346 0.0
C609 C 0.96202 0.20492 0.25902 0.0
C610 C 0.92179 0.2036 0.20904 0.0
C611 C 0.90799 0.18016 0.23108 0.0
C612 C 0.92201 0.16857 0.26626 0.0
C613 C 0.94874 0.181 0.27958 0.0
C614 C 0.90785 0.2165 0.17125 0.0
C615 C 0.90827 0.14369 0.29112 0.0
C616 C 0.82921 0.15965 0.24905 0.0
C617 C 0.83008 0.12987 0.23579 0.0
C618 C 0.85308 0.17902 0.24136 0.0
C619 C 0.87819 0.16817 0.22007 0.0
C620 C 0.87641 0.14034 0.19988 0.0
C621 C 0.8523 0.12129 0.20813 0.0
C622 C 0.85344 0.2092 0.26169 0.0
C623 C 0.90206 0.12871 0.17496 0.0
H624 H 0.95897 0.23435 0.20737 0.0
H625 H 0.95898 0.17216 0.30687 0.0
H626 H 0.89461 0.19961 0.1544 0.0
H627 H 0.89273 0.23498 0.18 0.0
H628 H 0.92509 0.22585 0.15062 0.0
H629 H 0.92269 0.13663 0.3168 0.0
H630 H 0.88669 0.15129 0.30376 0.0
H631 H 0.90391 0.12388 0.27178 0.0
H632 H 0.81148 0.16694 0.26908 0.0
H633 H 0.85272 0.09866 0.19647 0.0
H634 H 0.86433 0.22608 0.24199 0.0
H635 H 0.86637 0.20772 0.29038 0.0
H636 H 0.83058 0.2169 0.26918 0.0
H637 H 0.91304 0.14706 0.15792 0.0
H638 H 0.8946 0.11127 0.15319 0.0
H639 H 0.91885 0.11862 0.19554 0.0
C640 C 0.83825 0.96349 0.20614 0.0
C641 C 0.85044 0.98634 0.23011 0.0
C642 C 0.85121 0.93496 0.20573 0.0
C643 C 0.87666 0.92945 0.22997 0.0
C644 C 0.89137 0.9536 0.24918 0.0
C645 C 0.87806 0.98185 0.24895 0.0
C646 C 0.83562 0.91002 0.18341 0.0
C647 C 0.91898 0.94887 0.27455 0.0
C648 C 0.87784 0.86053 0.29585 0.0
C649 C 0.90115 0.84395 0.27874 0.0
C650 C 0.86886 0.88769 0.27894 0.0
C651 C 0.88336 0.89859 0.24369 0.0
C652 C 0.90568 0.88119 0.22472 0.0
C653 C 0.91445 0.85407 0.24262 0.0
C654 C 0.8448 0.90541 0.30018 0.0
C655 C 0.92138 0.89176 0.18682 0.0
H656 H 0.81713 0.96697 0.1909 0.0
H657 H 0.88795 -0.00032 0.26673 0.0
H658 H 0.85196 0.89429 0.16997 0.0
H659 H 0.8216 0.89727 0.20513 0.0
H660 H 0.82099 0.91874 0.15893 0.0
H661 H 0.93034 0.97029 0.28174 0.0
H662 H 0.91271 0.93791 0.30357 0.0
H663 H 0.93492 0.93403 0.25867 0.0
H664 H 0.86712 0.85279 0.32342 0.0
H665 H 0.93241 0.84138 0.22902 0.0
H666 H 0.8267 0.91099 0.27855 0.0
H667 H 0.85419 0.92675 0.31165 0.0
H668 H 0.83493 0.89314 0.32626 0.0
H669 H 0.90602 0.90406 0.16641 0.0
H670 H 0.93127 0.87279 0.16978 0.0
H671 H 0.93968 0.90717 0.19545 0.0
C672 C 0.04093 0.82514 0.27827 0.0
C673 C 0.02673 0.8016 0.25801 0.0
C674 C 0.06737 0.8374 0.26375 0.0
C675 C 0.08013 0.82612 0.22751 0.0
C676 C 0.06534 0.80316 0.2057 0.0
C677 C 0.03876 0.79095 0.22144 0.0
C678 C 0.08223 0.86165 0.28857 0.0
C679 C 0.07781 0.79068 0.16672 0.0
C680 C 0.13582 0.88482 0.20507 0.0
C681 C 0.15838 0.87532 0.23163 0.0
C682 C 0.11149 0.86612 0.19644 0.0
C683 C 0.10981 0.83779 0.2153 0.0
C684 C 0.13527 0.82613 0.23498 0.0
C685 C 0.15937 0.84513 0.24301 0.0
C686 C 0.08553 0.87857 0.17292 0.0
C687 C 0.13505 0.79537 0.25363 0.0
H688 H 0.0317 0.83376 0.30636 0.0
H689 H 0.02777 0.77283 0.20552 0.0
H690 H 0.10407 0.85352 0.2996 0.0
H691 H 0.08619 0.88177 0.26968 0.0
H692 H 0.06879 0.86842 0.31536 0.0
H693 H 0.05967 0.78266 0.14649 0.0
H694 H 0.0914 0.80737 0.15005 0.0
H695 H 0.09222 0.77128 0.1739 0.0
H696 H 0.13532 0.9078 0.19473 0.0
H697 H 0.1774 0.83714 0.26203 0.0
H698 H 0.06929 0.88849 0.19447 0.0
H699 H 0.07397 0.8607 0.15562 0.0
H700 H 0.09282 0.89633 0.15154 0.0
H701 H 0.12268 0.79608 0.28282 0.0
H702 H 0.15799 0.78731 0.25988 0.0
H703 H 0.12367 0.77918 0.23338 0.0
C704 C 0.11032 0.85041 0.78302 0.0
C705 C 0.12914 0.83304 0.75852 0.0
C706 C 0.11746 0.88031 0.79171 0.0
C707 C 0.14366 0.89291 0.77498 0.0
C708 C 0.1645 0.87427 0.75509 0.0
C709 C 0.15708 0.84445 0.74748 0.0
C710 C 0.09546 0.89911 0.81497 0.0
C711 C 0.19295 0.88661 0.73718 0.0
C712 C 0.142 0.96831 0.72424 0.0
C713 C 0.16252 0.98437 0.74772 0.0
C714 C 0.13407 0.93904 0.73452 0.0
C715 C 0.14639 0.92577 0.76982 0.0
C716 C 0.16475 0.94293 0.79586 0.0
C717 C 0.17301 0.97198 0.78416 0.0
C718 C 0.11454 0.92153 0.70559 0.0
C719 C 0.17731 0.93012 0.83462 0.0
H720 H 0.08885 0.84165 0.79228 0.0
H721 H 0.17208 0.83088 0.72945 0.0
H722 H 0.10707 0.91591 0.83409 0.0
H723 H 0.08101 0.91129 0.79325 0.0
H724 H 0.08096 0.88511 0.83464 0.0
H725 H 0.20821 0.86864 0.72684 0.0
H726 H 0.18751 0.90095 0.71068 0.0
H727 H 0.20483 0.90066 0.75969 0.0
H728 H 0.13366 0.97782 0.69617 0.0
H729 H 0.18858 0.98447 0.80276 0.0
H730 H 0.09565 0.91122 0.72216 0.0
H731 H 0.12764 0.90317 0.69166 0.0
H732 H 0.10543 0.93566 0.68079 0.0
H733 H 0.16162 0.91404 0.84883 0.0
H734 H 0.18255 0.94803 0.85686 0.0
H735 H 0.19828 0.91807 0.82776 0.0
C736 C 0.1333 0.11261 0.77395 0.0
C737 C 0.15147 0.12669 0.74498 0.0
C738 C 0.10696 0.12626 0.78732 0.0
C739 C 0.09874 0.15425 0.7709 0.0
C740 C 0.1194 0.17046 0.74707 0.0
C741 C 0.14566 0.15647 0.73448 0.0
C742 C 0.08615 0.10905 0.81464 0.0
C743 C 0.11192 0.20078 0.72989 0.0
C744 C 0.02139 0.16168 0.72801 0.0
C745 C 0.00893 0.18372 0.75291 0.0
C746 C 0.05014 0.15102 0.73491 0.0
C747 C 0.06679 0.16231 0.76813 0.0
C748 C 0.05364 0.18307 0.79514 0.0
C749 C 0.02483 0.19382 0.78695 0.0
C750 C 0.06322 0.12891 0.70507 0.0
C751 C 0.07028 0.19511 0.83144 0.0
H752 H 0.13801 0.08986 0.7832 0.0
H753 H 0.16016 0.16794 0.71323 0.0
H754 H 0.07416 0.12428 0.83561 0.0
H755 H 0.0693 0.09732 0.79579 0.0
H756 H 0.09833 0.09206 0.83275 0.0
H757 H 0.132 0.21245 0.7181 0.0
H758 H 0.09588 0.19808 0.70446 0.0
H759 H 0.10127 0.21504 0.75326 0.0
H760 H 0.00914 0.15352 0.70187 0.0
H761 H 0.01518 0.21071 0.80652 0.0
H762 H 0.0712 0.10874 0.72128 0.0
H763 H 0.08264 0.13906 0.68938 0.0
H764 H 0.0469 0.12176 0.68161 0.0
H765 H 0.08614 0.17849 0.84389 0.0
H766 H 0.05466 0.20195 0.85589 0.0
H767 H 0.08314 0.21515 0.82218 0.0
C768 C 0.84897 0.13918 0.74483 0.0
C769 C 0.87726 0.15035 0.75462 0.0
C770 C 0.8421 0.10897 0.75029 0.0
C771 C 0.86392 0.08959 0.76662 0.0
C772 C 0.8909 0.10157 0.78185 0.0
C773 C 0.89739 0.13193 0.77547 0.0
C774 C 0.81286 0.09729 0.734 0.0
C775 C 0.91415 0.08185 0.8011 0.0
C776 C 0.83473 0.01041 0.77437 0.0
C777 C 0.84284 -0.00085 0.73615 0.0
C778 C 0.84383 0.03905 0.78675 0.0
C779 C 0.86068 0.05695 0.75976 0.0
C780 C 0.87074 0.04476 0.72246 0.0
C781 C 0.86197 0.01587 0.71137 0.0
C782 C 0.83364 0.05077 0.8274 0.0
C783 C 0.88864 0.0631 0.69257 0.0
H784 H 0.83304 0.15348 0.72956 0.0
H785 H 0.91921 0.14044 0.78362 0.0
H786 H 0.81701 0.08421 0.70591 0.0
H787 H 0.80214 0.08217 0.7563 0.0
H788 H 0.79708 0.11559 0.72661 0.0
H789 H 0.92976 0.09499 0.8203 0.0
H790 H 0.90368 0.06418 0.81996 0.0
H791 H 0.92729 0.07071 0.77692 0.0
H792 H 0.82025 0.9974 0.79392 0.0
H793 H 0.86849 0.00723 0.68191 0.0
H794 H 0.8131 0.06416 0.82324 0.0
H795 H 0.85075 0.06544 0.84135 0.0
H796 H 0.82846 0.03225 0.84875 0.0
H797 H 0.87479 0.08175 0.68092 0.0
H798 H 0.8964 0.04966 0.66625 0.0
H799 H 0.90835 0.07305 0.70771 0.0
C800 C 0.8681 0.83441 0.70156 0.0
C801 C 0.85417 0.85825 0.72156 0.0
C802 C 0.89399 0.82151 0.71726 0.0
C803 C 0.9059 0.8323 0.75432 0.0
C804 C 0.88996 0.85378 0.77708 0.0
C805 C 0.86438 0.86681 0.7602 0.0
C806 C 0.91024 0.79858 0.69189 0.0
C807 C 0.90123 0.86489 0.81754 0.0
C808 C 0.97509 0.78864 0.78075 0.0
C809 C 0.99637 0.80515 0.75912 0.0
C810 C 0.94555 0.79879 0.78357 0.0
C811 C 0.93747 0.82571 0.7639 0.0
C812 C 0.95973 0.84394 0.74618 0.0
C813 C 0.98896 0.83347 0.74425 0.0
C814 C 0.92264 0.77941 0.80429 0.0
C815 C 0.95224 0.873 0.72519 0.0
H816 H 0.86014 0.82722 0.67203 0.0
H817 H 0.85335 0.88473 0.7764 0.0
H818 H 0.93094 0.80863 0.67946 0.0
H819 H 0.91676 0.77916 0.71076 0.0
H820 H 0.89655 0.79042 0.66603 0.0
H821 H 0.88284 0.87422 0.83621 0.0
H822 H 0.91232 0.84679 0.83486 0.0
H823 H 0.9178 0.88291 0.81248 0.0
H824 H 0.98087 0.76686 0.79274 0.0
H825 H 0.0056 0.84658 0.72834 0.0
H826 H 0.91144 0.76517 0.78131 0.0
H827 H 0.90533 0.79315 0.8194 0.0
H828 H 0.93311 0.76453 0.8272 0.0
H829 H 0.93906 0.86832 0.69735 0.0
H830 H 0.97248 0.88571 0.71628 0.0
H831 H 0.93847 0.88733 0.7452 0.0
C832 C 0.58355 0.64583 0.75163 0.0
C833 C 0.59586 0.65598 0.78839 0.0
C834 C 0.59267 0.61861 0.73433 0.0
C835 C 0.61435 0.60115 0.75451 0.0
C836 C 0.62777 0.61198 0.79059 0.0
C837 C 0.61845 0.63922 0.80693 0.0
C838 C 0.57806 0.60802 0.69562 0.0
C839 C 0.65111 0.59414 0.81312 0.0
C840 C 0.61944 0.51766 0.75789 0.0
C841 C 0.64725 0.51322 0.73956 0.0
C842 C 0.60638 0.54603 0.75876 0.0
C843 C 0.62157 0.57039 0.7408 0.0
C844 C 0.64749 0.56515 0.71739 0.0
C845 C 0.66013 0.53647 0.71704 0.0
C846 C 0.57835 0.5505 0.78334 0.0
C847 C 0.66379 0.5904 0.6967 0.0
H848 H 0.56614 0.65864 0.73694 0.0
H849 H 0.62837 0.64693 0.83508 0.0
H850 H 0.5944 0.59695 0.67533 0.0
H851 H 0.56056 0.59141 0.70312 0.0
H852 H 0.56742 0.62672 0.67888 0.0
H853 H 0.66025 0.60638 0.83973 0.0
H854 H 0.64128 0.57285 0.82405 0.0
H855 H 0.66979 0.58847 0.7925 0.0
H856 H 0.60908 0.49957 0.77465 0.0
H857 H 0.68147 0.53308 0.70235 0.0
H858 H 0.56279 0.56575 0.76746 0.0
H859 H 0.58417 0.56089 0.81293 0.0
H860 H 0.56672 0.52905 0.78942 0.0
H861 H 0.6479 0.6064 0.68288 0.0
H862 H 0.6791 0.58205 0.67276 0.0
H863 H 0.67718 0.60274 0.71955 0.0
C864 C 0.45567 0.67657 0.78168 0.0
C865 C 0.47105 0.69931 0.76139 0.0
C866 C 0.42986 0.66406 0.76551 0.0
C867 C 0.41883 0.67446 0.72775 0.0
C868 C 0.43452 0.69704 0.7064 0.0
C869 C 0.46067 0.70919 0.72349 0.0
C870 C 0.41386 0.64039 0.78998 0.0
C871 C 0.42397 0.70821 0.66564 0.0
C872 C 0.36527 0.61458 0.70139 0.0
C873 C 0.34126 0.62403 0.72548 0.0
C874 C 0.38976 0.6335 0.69482 0.0
C875 C 0.39004 0.6621 0.7131 0.0
C876 C 0.36347 0.67359 0.73004 0.0
C877 C 0.33927 0.65431 0.73615 0.0
C878 C 0.41712 0.62108 0.67443 0.0
C879 C 0.36227 0.70452 0.74809 0.0
H880 H 0.46357 0.66864 0.81087 0.0
H881 H 0.47271 0.72658 0.70749 0.0
H882 H 0.39176 0.64899 0.79929 0.0
H883 H 0.4103 0.62 0.77148 0.0
H884 H 0.42627 0.63392 0.81782 0.0
H885 H 0.43368 0.73039 0.65825 0.0
H886 H 0.43102 0.69221 0.64178 0.0
H887 H 0.39934 0.70983 0.66444 0.0
H888 H 0.36663 0.59149 0.69166 0.0
H889 H 0.32022 0.66222 0.75327 0.0
H890 H 0.43249 0.61226 0.69795 0.0
H891 H 0.42905 0.63874 0.65728 0.0
H892 H 0.41136 0.60253 0.6534 0.0
H893 H 0.37212 0.70402 0.77903 0.0
H894 H 0.33897 0.71262 0.75068 0.0
H895 H 0.37528 0.72059 0.72955 0.0
C896 C 0.35328 0.45918 0.70304 0.0
C897 C 0.36281 0.48073 0.73114 0.0
C898 C 0.36594 0.43053 0.7028 0.0
C899 C 0.38835 0.42349 0.73145 0.0
C900 C 0.40071 0.44639 0.75588 0.0
C901 C 0.3878 0.47484 0.75533 0.0
C902 C 0.35297 0.40698 0.67517 0.0
C903 C 0.42505 0.44 0.7863 0.0
C904 C 0.38335 0.35088 0.78912 0.0
C905 C 0.40852 0.3355 0.77521 0.0
C906 C 0.37582 0.37889 0.77349 0.0
C907 C 0.3938 0.39188 0.74284 0.0
C908 C 0.41811 0.37569 0.72664 0.0
C909 C 0.42528 0.34764 0.74316 0.0
C910 C 0.34952 0.39526 0.79152 0.0
C911 C 0.43754 0.38854 0.69357 0.0
H912 H 0.3343 0.46376 0.68367 0.0
H913 H 0.3957 0.49163 0.7765 0.0
H914 H 0.3706 0.39185 0.66366 0.0
H915 H 0.33677 0.39324 0.69249 0.0
H916 H 0.34114 0.4171 0.64892 0.0
H917 H 0.43537 0.46083 0.7981 0.0
H918 H 0.41553 0.42746 0.81236 0.0
H919 H 0.44268 0.42595 0.77253 0.0
H920 H 0.36998 0.34152 0.81343 0.0
H921 H 0.44475 0.33589 0.73209 0.0
H922 H 0.33397 0.40231 0.76716 0.0
H923 H 0.35734 0.41572 0.8073 0.0
H924 H 0.337 0.38137 0.81369 0.0
H925 H 0.42421 0.40145 0.67129 0.0
H926 H 0.44993 0.37077 0.6772 0.0
H927 H 0.45405 0.40399 0.70731 0.0
C928 C 0.66654 0.33869 0.75277 0.0
C929 C 0.66528 0.36879 0.74101 0.0
C930 C 0.64279 0.31931 0.74447 0.0
C931 C 0.61738 0.33049 0.72419 0.0
C932 C 0.61875 0.35885 0.70533 0.0
C933 C 0.64276 0.37789 0.71414 0.0
C934 C 0.64289 0.2886 0.76326 0.0
C935 C 0.59277 0.37089 0.68144 0.0
C936 C 0.54698 0.28252 0.72673 0.0
C937 C 0.53397 0.29265 0.76295 0.0
C938 C 0.5738 0.29515 0.71244 0.0
C939 C 0.58778 0.31805 0.73529 0.0
C940 C 0.57413 0.32872 0.77128 0.0
C941 C 0.54753 0.31597 0.78445 0.0
C942 C 0.58736 0.28322 0.67381 0.0
C943 C 0.58809 0.35298 0.79704 0.0
H944 H 0.68453 0.33104 0.77212 0.0
H945 H 0.64203 0.40083 0.70364 0.0
H946 H 0.63027 0.28919 0.79227 0.0
H947 H 0.63191 0.27218 0.74294 0.0
H948 H 0.66589 0.2809 0.76989 0.0
H949 H 0.59988 0.38894 0.66039 0.0
H950 H 0.58176 0.3529 0.66373 0.0
H951 H 0.57611 0.38032 0.7028 0.0
H952 H 0.53652 0.26454 0.7099 0.0
H953 H 0.53756 0.32413 0.81232 0.0
H954 H 0.60256 0.26453 0.68141 0.0
H955 H 0.60044 0.30052 0.65753 0.0
H956 H 0.56992 0.27439 0.65306 0.0
H957 H 0.60975 0.34505 0.80905 0.0
H958 H 0.57386 0.35943 0.8232 0.0
H959 H 0.59232 0.37324 0.77855 0.0
C960 C 0.63374 0.47983 0.22247 0.0
C961 C 0.65422 0.49561 0.24638 0.0
C962 C 0.62507 0.45077 0.23278 0.0
C963 C 0.63664 0.4374 0.26846 0.0
C964 C 0.65487 0.45436 0.29493 0.0
C965 C 0.66381 0.48322 0.2833 0.0
C966 C 0.60563 0.4335 0.20348 0.0
C967 C 0.66668 0.44139 0.33404 0.0
C968 C 0.60019 0.3621 0.28231 0.0
C969 C 0.61933 0.34431 0.25885 0.0
C970 C 0.60714 0.39219 0.29013 0.0
C971 C 0.63352 0.40457 0.27361 0.0
C972 C 0.6545 0.3857 0.25441 0.0
C973 C 0.64725 0.35572 0.24764 0.0
C974 C 0.58488 0.41129 0.31248 0.0
C975 C 0.68308 0.39782 0.23661 0.0
H976 H 0.62602 0.48935 0.19408 0.0
H977 H 0.67934 0.49548 0.30224 0.0
H978 H 0.61871 0.41509 0.18966 0.0
H979 H 0.58653 0.42329 0.2197 0.0
H980 H 0.59685 0.44779 0.17863 0.0
H981 H 0.6727 0.45925 0.35601 0.0
H982 H 0.65015 0.42626 0.34838 0.0
H983 H 0.68702 0.42821 0.32757 0.0
H984 H 0.57871 0.35339 0.29163 0.0
H985 H 0.66248 0.3419 0.23036 0.0
H986 H 0.57064 0.42313 0.29016 0.0
H987 H 0.59625 0.42837 0.33138 0.0
H988 H 0.57019 0.39755 0.33222 0.0
H989 H 0.67783 0.41199 0.20987 0.0
H990 H 0.69835 0.37974 0.22665 0.0
H991 H 0.69489 0.41199 0.25904 0.0
C992 C 0.50816 0.6629 0.23968 0.0
C993 C 0.49909 0.68947 0.25834 0.0
C994 C 0.53737 0.65267 0.24349 0.0
C995 C 0.55794 0.66924 0.2671 0.0
C996 C 0.54809 0.69429 0.28961 0.0
C997 C 0.51864 0.70432 0.28474 0.0
C998 C 0.54679 0.62565 0.2191 0.0
C999 C 0.56906 0.71187 0.3163 0.0
C1000 C 0.62969 0.62622 0.26851 0.0
C1001 C 0.64282 0.63687 0.23258 0.0
C1002 C 0.60351 0.63919 0.2837 0.0
C1003 C 0.59011 0.66287 0.26199 0.0
C1004 C 0.60525 0.67595 0.22872 0.0
C1005 C 0.63157 0.66293 0.21462 0.0
C1006 C 0.58873 0.62558 0.32047 0.0
C1007 C 0.59189 0.70146 0.20484 0.0
H1008 H 0.4929 0.65098 0.21993 0.0
H1009 H 0.51159 0.72471 0.29965 0.0
H1010 H 0.56246 0.63263 0.19478 0.0
H1011 H 0.55858 0.60941 0.23874 0.0
H1012 H 0.52758 0.61414 0.20467 0.0
H1013 H 0.55675 0.72405 0.34043 0.0
H1014 H 0.58589 0.69718 0.33073 0.0
H1015 H 0.58104 0.7286 0.29755 0.0
H1016 H 0.63862 0.60655 0.28333 0.0
H1017 H 0.64192 0.67186 0.18745 0.0
H1018 H 0.57161 0.60929 0.31044 0.0
H1019 H 0.57745 0.6429 0.33901 0.0
H1020 H 0.60508 0.61358 0.33982 0.0
H1021 H 0.57251 0.69316 0.18716 0.0
H1022 H 0.60812 0.71148 0.18328 0.0
H1023 H 0.58378 0.71919 0.22554 0.0
C1024 C 0.33861 0.64858 0.24887 0.0
C1025 C 0.36691 0.65963 0.25885 0.0
C1026 C 0.33156 0.61844 0.25453 0.0
C1027 C 0.3532 0.59905 0.27126 0.0
C1028 C 0.37999 0.61103 0.2871 0.0
C1029 C 0.38668 0.64131 0.28049 0.0
C1030 C 0.30247 0.60677 0.23774 0.0
C1031 C 0.40295 0.59132 0.307 0.0
C1032 C 0.32457 0.51955 0.27634 0.0
C1033 C 0.33358 0.50878 0.23824 0.0
C1034 C 0.33318 0.54811 0.28965 0.0
C1035 C 0.35033 0.56648 0.26362 0.0
C1036 C 0.36119 0.55481 0.22641 0.0
C1037 C 0.35299 0.52594 0.21448 0.0
C1038 C 0.3222 0.55918 0.33026 0.0
C1039 C 0.37939 0.57367 0.19745 0.0
H1040 H 0.32294 0.66285 0.23304 0.0
H1041 H 0.40848 0.64975 0.28886 0.0
H1042 H 0.30687 0.59379 0.20963 0.0
H1043 H 0.29159 0.59157 0.25979 0.0
H1044 H 0.28674 0.62509 0.23023 0.0
H1045 H 0.41824 0.60448 0.32664 0.0
H1046 H 0.39219 0.57365 0.32556 0.0
H1047 H 0.41648 0.5802 0.28321 0.0
H1048 H 0.30987 0.50616 0.29511 0.0
H1049 H 0.36013 0.51768 0.18509 0.0
H1050 H 0.30106 0.57157 0.32594 0.0
H1051 H 0.3385 0.57456 0.34461 0.0
H1052 H 0.31773 0.54032 0.35133 0.0
H1053 H 0.36561 0.59243 0.18598 0.0
H1054 H 0.38755 0.56067 0.17096 0.0
H1055 H 0.39886 0.58348 0.21334 0.0
C1056 C 0.35511 0.34058 0.21235 0.0
C1057 C 0.34436 0.36758 0.22822 0.0
C1058 C 0.38099 0.3275 0.22781 0.0
C1059 C 0.39618 0.34151 0.26034 0.0
C1060 C 0.38304 0.36617 0.28029 0.0
C1061 C 0.35732 0.37917 0.26374 0.0
C1062 C 0.39399 0.30088 0.2059 0.0
C1063 C 0.39777 0.38072 0.31642 0.0
C1064 C 0.4675 0.3004 0.28528 0.0
C1065 C 0.48709 0.31437 0.25807 0.0
C1066 C 0.4381 0.31072 0.28967 0.0
C1067 C 0.42832 0.33511 0.26579 0.0
C1068 C 0.44894 0.35085 0.24123 0.0
C1069 C 0.4781 0.3404 0.23798 0.0
C1070 C 0.41715 0.2941 0.31747 0.0
C1071 C 0.43962 0.37713 0.21531 0.0
H1072 H 0.3448 0.3309 0.18562 0.0
H1073 H 0.34873 0.39957 0.27702 0.0
H1074 H 0.41361 0.30814 0.18789 0.0
H1075 H 0.40164 0.28381 0.2279 0.0
H1076 H 0.37769 0.29037 0.18488 0.0
H1077 H 0.38147 0.39358 0.33479 0.0
H1078 H 0.40866 0.36384 0.33612 0.0
H1079 H 0.41521 0.39642 0.30569 0.0
H1080 H 0.47449 0.28046 0.3013 0.0
H1081 H 0.4934 0.35168 0.2176 0.0
H1082 H 0.40569 0.27626 0.30004 0.0
H1083 H 0.39991 0.30912 0.33032 0.0
H1084 H 0.42945 0.28333 0.34281 0.0
H1085 H 0.42368 0.36955 0.19166 0.0
H1086 H 0.45884 0.38794 0.19992 0.0
H1087 H 0.42819 0.39416 0.2341 0.0
C1088 C 0.09558 0.31999 0.26805 0.0
C1089 C 0.10817 0.2963 0.29001 0.0
C1090 C 0.11367 0.34208 0.25054 0.0
C1091 C 0.14495 0.33993 0.25451 0.0
C1092 C 0.15768 0.31647 0.27745 0.0
C1093 C 0.13912 0.29508 0.29516 0.0
C1094 C 0.09941 0.36719 0.22695 0.0
C1095 C 0.19103 0.31323 0.28199 0.0
C1096 C 0.19899 0.36628 0.17524 0.0
C1097 C 0.21377 0.3893 0.19602 0.0
C1098 C 0.17476 0.35151 0.1927 0.0
C1099 C 0.16489 0.3602 0.23172 0.0
C1100 C 0.17776 0.38529 0.25115 0.0
C1101 C 0.20224 0.39957 0.23308 0.0
C1102 C 0.16159 0.32486 0.17093 0.0
C1103 C 0.16726 0.39557 0.29239 0.0
H1104 H 0.07162 0.32128 0.26452 0.0
H1105 H 0.14899 0.27686 0.31213 0.0
H1106 H 0.10906 0.38899 0.23617 0.0
H1107 H 0.10398 0.36429 0.19407 0.0
H1108 H 0.0749 0.36793 0.23141 0.0
H1109 H 0.19723 0.29435 0.30217 0.0
H1110 H 0.20129 0.30947 0.25174 0.0
H1111 H 0.20077 0.33404 0.29459 0.0
H1112 H 0.20728 0.35867 0.14609 0.0
H1113 H 0.21326 0.41764 0.24906 0.0
H1114 H 0.13692 0.32587 0.17118 0.0
H1115 H 0.16824 0.3041 0.18693 0.0
H1116 H 0.16925 0.32334 0.13889 0.0
H1117 H 0.14259 0.39514 0.29421 0.0
H1118 H 0.1752 0.4185 0.2995 0.0
H1119 H 0.17591 0.3802 0.31603 0.0
C1120 C 0.68405 0.08271 0.2938 0.0
C1121 C 0.70705 0.07912 0.26548 0.0
C1122 C 0.66018 0.10174 0.28558 0.0
C1123 C 0.65948 0.11696 0.24802 0.0
C1124 C 0.67942 0.10866 0.21664 0.0
C1125 C 0.70338 0.08979 0.22588 0.0
C1126 C 0.63882 0.10923 0.31947 0.0
C1127 C 0.67817 0.12323 0.17537 0.0
C1128 C 0.60241 0.17783 0.22942 0.0
C1129 C 0.61939 0.20334 0.23808 0.0
C1130 C 0.61486 0.14925 0.23285 0.0
C1131 C 0.64469 0.14642 0.246 0.0
C1132 C 0.66132 0.17223 0.25681 0.0
C1133 C 0.64857 0.20045 0.25196 0.0
C1134 C 0.59668 0.12253 0.21987 0.0
C1135 C 0.693 0.17019 0.27216 0.0
H1136 H 0.68655 0.07364 0.32409 0.0
H1137 H 0.72103 0.08665 0.20379 0.0
H1138 H 0.64622 0.13017 0.33448 0.0
H1139 H 0.616 0.11294 0.30763 0.0
H1140 H 0.63808 0.09128 0.34276 0.0
H1141 H 0.69016 0.10979 0.15219 0.0
H1142 H 0.65476 0.12637 0.16546 0.0
H1143 H 0.68882 0.14558 0.177 0.0
H1144 H 0.58001 0.18033 0.21754 0.0
H1145 H 0.66161 0.22036 0.25812 0.0
H1146 H 0.60156 0.10261 0.23873 0.0
H1147 H 0.60231 0.11693 0.18793 0.0
H1148 H 0.57242 0.12725 0.22136 0.0
H1149 H 0.69429 0.15454 0.29824 0.0
H1150 H 0.70186 0.19221 0.28201 0.0
H1151 H 0.70764 0.1614 0.2478 0.0
C1152 C 0.79023 0.63829 0.1878 0.0
C1153 C 0.77476 0.61617 0.20943 0.0
C1154 C 0.81408 0.6536 0.20534 0.0
C1155 C 0.82292 0.64637 0.24535 0.0
C1156 C 0.80923 0.62227 0.26603 0.0
C1157 C 0.78511 0.60743 0.24783 0.0
C1158 C 0.82813 0.67916 0.18221 0.0
C1159 C 0.81866 0.61353 0.3084 0.0
C1160 C 0.89298 0.68629 0.27929 0.0
C1161 C 0.88091 0.71132 0.2989 0.0
C1162 C 0.87442 0.66383 0.2637 0.0
C1163 C 0.84319 0.66695 0.26711 0.0
C1164 C 0.83096 0.69178 0.28781 0.0
C1165 C 0.85001 0.71354 0.30374 0.0
C1166 C 0.88815 0.63727 0.24259 0.0
C1167 C 0.7977 0.6961 0.29155 0.0
H1168 H 0.78284 0.64473 0.15769 0.0
H1169 H 0.77351 0.59009 0.26452 0.0
H1170 H 0.822 0.70061 0.19689 0.0
H1171 H 0.85275 0.67745 0.18288 0.0
H1172 H 0.82075 0.6799 0.15 0.0
H1173 H 0.80996 0.59118 0.31704 0.0
H1174 H 0.8433 0.6134 0.31108 0.0
H1175 H 0.81003 0.63015 0.33045 0.0
H1176 H 0.91692 0.68425 0.27612 0.0
H1177 H 0.84057 0.73281 0.31895 0.0
H1178 H 0.88395 0.63876 0.20944 0.0
H1179 H 0.87782 0.61622 0.25348 0.0
H1180 H 0.9126 0.63606 0.24755 0.0
H1181 H 0.78781 0.69901 0.2609 0.0
H1182 H 0.79189 0.71589 0.31029 0.0
H1183 H 0.78726 0.67608 0.30537 0.0
C1184 C 0.30555 0.92277 0.28725 0.0
C1185 C 0.28179 0.92568 0.25998 0.0
C1186 C 0.3292 0.90355 0.27862 0.0
C1187 C 0.32891 0.88756 0.24162 0.0
C1188 C 0.30827 0.89535 0.21086 0.0
C1189 C 0.28451 0.91435 0.22058 0.0
C1190 C 0.35134 0.89663 0.31179 0.0
C1191 C 0.30851 0.88004 0.17005 0.0
C1192 C 0.38481 0.82565 0.2229 0.0
C1193 C 0.36774 0.80053 0.23312 0.0
C1194 C 0.37279 0.85444 0.22582 0.0
C1195 C 0.34331 0.85789 0.2401 0.0
C1196 C 0.32661 0.83249 0.25243 0.0
C1197 C 0.3389 0.80402 0.248 0.0
C1198 C 0.391 0.88066 0.21115 0.0
C1199 C 0.29534 0.83522 0.26908 0.0
H1200 H 0.30379 0.93242 0.31731 0.0
H1201 H 0.26626 0.91697 0.19929 0.0
H1202 H 0.34413 0.87613 0.32803 0.0
H1203 H 0.37381 0.89244 0.29907 0.0
H1204 H 0.3528 0.9151 0.33426 0.0
H1205 H 0.2961 0.89315 0.14695 0.0
H1206 H 0.33167 0.87655 0.15931 0.0
H1207 H 0.29774 0.8578 0.17286 0.0
H1208 H 0.40694 0.82265 0.21031 0.0
H1209 H 0.3258 0.78439 0.25542 0.0
H1210 H 0.38656 0.9011 0.22918 0.0
H1211 H 0.38498 0.88548 0.17911 0.0
H1212 H 0.41523 0.87574 0.21226 0.0
H1213 H 0.29483 0.85144 0.29457 0.0
H1214 H 0.2865 0.81352 0.28018 0.0
H1215 H 0.28021 0.84364 0.24503 0.0
C1216 C 0.21502 0.58508 0.70827 0.0
C1217 C 0.21718 0.57145 0.74633 0.0
C1218 C 0.19044 0.60314 0.69919 0.0
C1219 C 0.16842 0.60771 0.72937 0.0
C1220 C 0.16792 0.58936 0.76426 0.0
C1221 C 0.19245 0.5711 0.7722 0.0
C1222 C 0.1906 0.62105 0.66039 0.0
C1223 C 0.14432 0.59276 0.79654 0.0
C1224 C 0.15461 0.69006 0.74413 0.0
C1225 C 0.12647 0.69338 0.72688 0.0
C1226 C 0.16771 0.66185 0.74692 0.0
C1227 C 0.15263 0.63667 0.73053 0.0
C1228 C 0.12371 0.63988 0.71414 0.0
C1229 C 0.1108 0.66835 0.71287 0.0
C1230 C 0.19829 0.65931 0.76586 0.0
C1231 C 0.10718 0.61395 0.6954 0.0
H1232 H 0.2341 0.58498 0.68804 0.0
H1233 H 0.19387 0.55961 0.80108 0.0
H1234 H 0.16765 0.62393 0.64854 0.0
H1235 H 0.19992 0.64358 0.66656 0.0
H1236 H 0.20453 0.61024 0.63669 0.0
H1237 H 0.14304 0.57267 0.81627 0.0
H1238 H 0.14991 0.61225 0.81596 0.0
H1239 H 0.12213 0.59684 0.78284 0.0
H1240 H 0.16663 0.70967 0.75445 0.0
H1241 H 0.08924 0.67132 0.69855 0.0
H1242 H 0.2148 0.65306 0.74228 0.0
H1243 H 0.19843 0.64159 0.78942 0.0
H1244 H 0.20566 0.68056 0.78012 0.0
H1245 H 0.11428 0.61152 0.66327 0.0
H1246 H 0.08274 0.61776 0.69569 0.0
H1247 H 0.11204 0.59262 0.71119 0.0
C1248 C 0.39963 0.17738 0.7713 0.0
C1249 C 0.38685 0.20222 0.79055 0.0
C1250 C 0.38166 0.1547 0.75494 0.0
C1251 C 0.35034 0.15737 0.75733 0.0
C1252 C 0.33739 0.18222 0.77714 0.0
C1253 C 0.35581 0.20421 0.79374 0.0
C1254 C 0.39611 0.12819 0.73464 0.0
C1255 C 0.304 0.18608 0.77983 0.0
C1256 C 0.29661 0.12669 0.6807 0.0
C1257 C 0.28116 0.10556 0.70413 0.0
C1258 C 0.32116 0.14195 0.69648 0.0
C1259 C 0.3306 0.13574 0.73656 0.0
C1260 C 0.31714 0.11225 0.75878 0.0
C1261 C 0.2924 0.09739 0.74228 0.0
C1262 C 0.33496 0.16678 0.67171 0.0
C1263 C 0.32713 0.10461 0.8013 0.0
H1264 H 0.42366 0.17555 0.76929 0.0
H1265 H 0.34581 0.22336 0.80855 0.0
H1266 H 0.38676 0.10709 0.74689 0.0
H1267 H 0.39129 0.12857 0.70159 0.0
H1268 H 0.42066 0.12802 0.7389 0.0
H1269 H 0.29759 0.20636 0.79717 0.0
H1270 H 0.29441 0.18775 0.74883 0.0
H1271 H 0.29377 0.16635 0.79471 0.0
H1272 H 0.2885 0.13261 0.65074 0.0
H1273 H 0.28081 0.08079 0.76033 0.0
H1274 H 0.3596 0.16584 0.67321 0.0
H1275 H 0.32796 0.18864 0.68437 0.0
H1276 H 0.32805 0.16583 0.63931 0.0
H1277 H 0.35178 0.10494 0.80359 0.0
H1278 H 0.31886 0.08232 0.81096 0.0
H1279 H 0.31837 0.12154 0.82281 0.0
C1280 C 0.89153 0.31737 0.7302 0.0
C1281 C 0.8742 0.29177 0.73677 0.0
C1282 C 0.87931 0.34594 0.73514 0.0
C1283 C 0.84935 0.34863 0.74774 0.0
C1284 C 0.83225 0.32266 0.75617 0.0
C1285 C 0.84479 0.29449 0.74982 0.0
C1286 C 0.89795 0.37291 0.72451 0.0
C1287 C 0.8004 0.32453 0.77088 0.0
C1288 C 0.81131 0.4111 0.80057 0.0
C1289 C 0.78861 0.41673 0.7724 0.0
C1290 C 0.83459 0.39169 0.79101 0.0
C1291 C 0.83508 0.37821 0.75222 0.0
C1292 C 0.81555 0.38847 0.72144 0.0
C1293 C 0.79214 0.40767 0.73203 0.0
C1294 C 0.85547 0.38199 0.82443 0.0
C1295 C 0.81663 0.37578 0.67903 0.0
H1296 H 0.91411 0.31506 0.71892 0.0
H1297 H 0.83148 0.27453 0.75437 0.0
H1298 H 0.89226 0.38024 0.69325 0.0
H1299 H 0.89348 0.3919 0.74525 0.0
H1300 H 0.92213 0.36772 0.72535 0.0
H1301 H 0.79107 0.30226 0.77866 0.0
H1302 H 0.799 0.33901 0.79818 0.0
H1303 H 0.78623 0.33464 0.74696 0.0
H1304 H 0.80893 0.41887 0.83155 0.0
H1305 H 0.77475 0.41237 0.71008 0.0
H1306 H 0.87831 0.3784 0.81262 0.0
H1307 H 0.84749 0.36049 0.83725 0.0
H1308 H 0.85638 0.39865 0.84942 0.0
H1309 H 0.84 0.37242 0.66908 0.0
H1310 H 0.80517 0.39058 0.65693 0.0
H1311 H 0.80535 0.35371 0.67866 0.0
C1312 C 0.70824 0.85378 0.68674 0.0
C1313 C 0.72267 0.87825 0.70474 0.0
C1314 C 0.68496 0.83908 0.70655 0.0
C1315 C 0.6756 0.84932 0.7451 0.0
C1316 C 0.68845 0.87534 0.76214 0.0
C1317 C 0.71202 0.8895 0.74178 0.0
C1318 C 0.67178 0.81138 0.68735 0.0
C1319 C 0.67848 0.8872 0.80284 0.0
C1320 C 0.60487 0.8121 0.78143 0.0
C1321 C 0.61643 0.78853 0.80465 0.0
C1322 C 0.6238 0.83341 0.76387 0.0
C1323 C 0.65491 0.83063 0.76911 0.0
C1324 C 0.66661 0.80757 0.79379 0.0
C1325 C 0.64717 0.78692 0.81152 0.0
C1326 C 0.61059 0.85812 0.73843 0.0
C1327 C 0.69975 0.80372 0.79971 0.0
H1328 H 0.71589 0.84524 0.65775 0.0
H1329 H 0.72282 0.90859 0.75569 0.0
H1330 H 0.67761 0.79154 0.70592 0.0
H1331 H 0.64714 0.81289 0.68649 0.0
H1332 H 0.68001 0.80772 0.65591 0.0
H1333 H 0.68705 0.9101 0.80861 0.0
H1334 H 0.65381 0.8875 0.80482 0.0
H1335 H 0.68674 0.87232 0.8273 0.0
H1336 H 0.58104 0.81376 0.77662 0.0
H1337 H 0.65623 0.76883 0.82957 0.0
H1338 H 0.6154 0.85392 0.70587 0.0
H1339 H 0.62081 0.87992 0.74644 0.0
H1340 H 0.58607 0.85977 0.7423 0.0
H1341 H 0.7103 0.79796 0.77023 0.0
H1342 H 0.70508 0.78586 0.82197 0.0
H1343 H 0.70993 0.8249 0.81035 0.0
C1344 C 0.02049 0.27363 0.44471 0.0
C1345 C 0.01215 0.25457 0.41316 0.0
C1346 C 0.00684 0.27132 0.483 0.0
C1347 C 0.98252 0.25136 0.48829 0.0
C1348 C 0.97276 0.23367 0.45517 0.0
C1349 C 0.98818 0.23502 0.4184 0.0
C1350 C 0.01965 0.28885 0.51818 0.0
C1351 C 0.9467 0.21248 0.45795 0.0
C1352 C 0.96285 0.21796 0.59063 0.0
C1353 C 0.94608 0.24085 0.60799 0.0
C1354 C 0.9752 0.22118 0.55192 0.0
C1355 C 0.96903 0.24733 0.5291 0.0
C1356 C 0.95002 0.26952 0.54555 0.0
C1357 C 0.94032 0.26684 0.58593 0.0
C1358 C 0.99448 0.19616 0.53608 0.0
C1359 C 0.93868 0.29513 0.51999 0.0
H1360 H 0.03805 0.28975 0.43978 0.0
H1361 H 0.98121 0.22084 0.39338 0.0
H1362 H 0.00238 0.3023 0.5336 0.0
H1363 H 0.02858 0.27309 0.54116 0.0
H1364 H 0.03771 0.30422 0.5085 0.0
H1365 H 0.9549 0.18916 0.45581 0.0
H1366 H 0.93392 0.21498 0.48641 0.0
H1367 H 0.93142 0.21609 0.43186 0.0
H1368 H 0.96754 0.198 0.60821 0.0
H1369 H 0.92797 0.28481 0.60003 0.0
H1370 H 0.00936 0.2033 0.51111 0.0
H1371 H 0.97991 0.17797 0.52465 0.0
H1372 H 0.0083 0.18664 0.56088 0.0
H1373 H 0.95709 0.30748 0.50522 0.0
H1374 H 0.92519 0.31115 0.53799 0.0
H1375 H 0.92461 0.28599 0.49518 0.0
C1376 C 0.75997 0.97396 0.56882 0.0
C1377 C 0.78338 0.95481 0.57911 0.0
C1378 C 0.75869 0.98752 0.53048 0.0
C1379 C 0.78099 0.98097 0.50135 0.0
C1380 C 0.8043 0.96102 0.51134 0.0
C1381 C 0.80588 0.94928 0.55074 0.0
C1382 C 0.73435 0.01004 0.52283 0.0
C1383 C 0.82755 0.95202 0.48046 0.0
C1384 C 0.76294 0.99768 0.39121 0.0
C1385 C 0.78287 0.02094 0.38268 0.0
C1386 C 0.76212 0.98438 0.42968 0.0
C1387 C 0.78074 0.99555 0.46087 0.0
C1388 C 0.80032 0.01963 0.45271 0.0
C1389 C 0.80216 0.03102 0.4131 0.0
C1390 C 0.74243 0.95751 0.43636 0.0
C1391 C 0.81925 0.03337 0.48578 0.0
H1392 H 0.74312 0.9792 0.59133 0.0
H1393 H 0.82512 0.93633 0.55963 0.0
H1394 H 0.74127 0.0317 0.53625 0.0
H1395 H 0.72968 0.01362 0.49015 0.0
H1396 H 0.71337 0.00315 0.5381 0.0
H1397 H 0.84431 0.93649 0.49333 0.0
H1398 H 0.81648 0.94122 0.45413 0.0
H1399 H 0.83955 0.97175 0.4685 0.0
H1400 H 0.74867 0.98917 0.36726 0.0
H1401 H 0.81896 0.04749 0.40578 0.0
H1402 H 0.72771 0.96095 0.463 0.0
H1403 H 0.75669 0.93789 0.44286 0.0
H1404 H 0.72838 0.95237 0.40947 0.0
H1405 H 0.8046 0.04168 0.51047 0.0
H1406 H 0.83317 0.05204 0.47431 0.0
H1407 H 0.83423 0.01659 0.4996 0.0
C1408 C 0.05659 0.72971 0.58176 0.0
C1409 C 0.05261 0.75445 0.60697 0.0
C1410 C 0.04537 0.72983 0.54196 0.0
C1411 C 0.02663 0.75356 0.52936 0.0
C1412 C 0.02236 0.77848 0.55532 0.0
C1413 C 0.0362 0.77891 0.59335 0.0
C1414 C 0.05465 0.70535 0.513 0.0
C1415 C 0.00342 0.805 0.54382 0.0
C1416 C 0.00393 0.77151 0.42126 0.0
C1417 C 0.97978 0.75224 0.41565 0.0
C1418 C 0.02037 0.77116 0.45728 0.0
C1419 C 0.01132 0.75217 0.48943 0.0
C1420 C 0.98648 0.73289 0.48397 0.0
C1421 C 0.97196 0.73212 0.44619 0.0
C1422 C 0.04682 0.79182 0.4604 0.0
C1423 C 0.97417 0.71433 0.51849 0.0
H1424 H 0.06865 0.71051 0.59298 0.0
H1425 H 0.03287 0.79787 0.6134 0.0
H1426 H 0.03515 0.69425 0.49898 0.0
H1427 H 0.0677 0.7154 0.4878 0.0
H1428 H 0.06851 0.68808 0.52809 0.0
H1429 H 0.01824 0.82384 0.53527 0.0
H1430 H 0.9882 0.80042 0.51813 0.0
H1431 H 0.98999 0.81249 0.57026 0.0
H1432 H 0.01044 0.78652 0.39693 0.0
H1433 H 0.9542 0.71628 0.44087 0.0
H1434 H 0.06146 0.78639 0.48633 0.0
H1435 H 0.03883 0.81513 0.46385 0.0
H1436 H 0.06019 0.79093 0.43202 0.0
H1437 H 0.99158 0.70026 0.53255 0.0
H1438 H 0.95578 0.69945 0.5085 0.0
H1439 H 0.96577 0.72943 0.54264 0.0
C1440 C 0.23465 0.01695 0.57313 0.0
C1441 C 0.21149 0.03534 0.58657 0.0
C1442 C 0.23476 0.00534 0.53359 0.0
C1443 C 0.21159 0.01317 0.50642 0.0
C1444 C 0.18845 0.03229 0.51966 0.0
C1445 C 0.18802 0.042 0.56017 0.0
C1446 C 0.25874 0.98332 0.5222 0.0
C1447 C 0.16422 0.04259 0.49105 0.0
C1448 C 0.22726 0.00204 0.39417 0.0
C1449 C 0.20775 0.97869 0.3845 0.0
C1450 C 0.22864 0.01364 0.43364 0.0
C1451 C 0.21095 0.00072 0.4646 0.0
C1452 C 0.1917 0.97661 0.45517 0.0
C1453 C 0.18931 0.9669 0.41476 0.0
C1454 C 0.24758 0.04092 0.44124 0.0
C1455 C 0.17376 0.961 0.48771 0.0
H1456 H 0.25226 0.01079 0.59406 0.0
H1457 H 0.16905 0.05435 0.57139 0.0
H1458 H 0.24984 0.9605 0.527 0.0
H1459 H 0.2655 0.98533 0.48992 0.0
H1460 H 0.27884 0.98594 0.54157 0.0
H1461 H 0.14787 0.05741 0.50626 0.0
H1462 H 0.17441 0.05468 0.46509 0.0
H1463 H 0.15193 0.02337 0.47813 0.0
H1464 H 0.24075 0.01201 0.37043 0.0
H1465 H 0.17269 0.95042 0.40672 0.0
H1466 H 0.2592 0.03978 0.47092 0.0
H1467 H 0.23275 0.06068 0.44167 0.0
H1468 H 0.26444 0.04428 0.41696 0.0
H1469 H 0.18911 0.95161 0.51083 0.0
H1470 H 0.15974 0.94278 0.47516 0.0
H1471 H 0.159 0.97686 0.50378 0.0
C1472 C 0.48857 0.73181 0.92249 0.0
C1473 C 0.51424 0.74941 0.91961 0.0
C1474 C 0.47114 0.73197 0.95768 0.0
C1475 C 0.48058 0.74895 0.99156 0.0
C1476 C 0.50641 0.76712 0.98855 0.0
C1477 C 0.52217 0.76814 0.95172 0.0
C1478 C 0.44235 0.7146 0.95819 0.0
C1479 C 0.51816 0.78443 0.02458 0.0
C1480 C 0.43548 0.76826 0.0852 0.0
C1481 C 0.43988 0.74287 0.10905 0.0
C1482 C 0.44625 0.76932 0.0452 0.0
C1483 C 0.46484 0.746 0.03096 0.0
C1484 C 0.46967 0.72046 0.05559 0.0
C1485 C 0.45621 0.71886 0.0938 0.0
C1486 C 0.43719 0.79492 0.018 0.0
C1487 C 0.48926 0.69471 0.0428 0.0
H1488 H 0.48177 0.71834 0.8967 0.0
H1489 H 0.54082 0.78317 0.94831 0.0
H1490 H 0.44228 0.69804 0.9832 0.0
H1491 H 0.42378 0.73034 0.96367 0.0
H1492 H 0.43816 0.70268 0.92913 0.0
H1493 H 0.53743 0.79878 0.01644 0.0
H1494 H 0.50075 0.79892 0.03785 0.0
H1495 H 0.52504 0.76856 0.0487 0.0
H1496 H 0.42359 0.78714 0.09774 0.0
H1497 H 0.45997 0.69944 0.11285 0.0
H1498 H 0.42385 0.78599 0.99231 0.0
H1499 H 0.45683 0.80617 0.00457 0.0
H1500 H 0.42365 0.81182 0.03437 0.0
H1501 H 0.47497 0.67546 0.03427 0.0
H1502 H 0.50331 0.68732 0.06869 0.0
H1503 H 0.50399 0.70006 0.01683 0.0
C1504 C 0.30573 0.53283 0.90651 0.0
C1505 C 0.28793 0.52099 0.87557 0.0
C1506 C 0.30252 0.52315 0.9468 0.0
C1507 C 0.28305 0.49908 0.95549 0.0
C1508 C 0.26578 0.48631 0.92396 0.0
C1509 C 0.26803 0.49783 0.88454 0.0
C1510 C 0.32001 0.53856 0.97997 0.0
C1511 C 0.24649 0.45921 0.93099 0.0
C1512 C 0.30537 0.45598 0.0497 0.0
C1513 C 0.28185 0.46228 0.07618 0.0
C1514 C 0.30522 0.46656 0.00963 0.0
C1515 C 0.28222 0.48606 0.99695 0.0
C1516 C 0.25907 0.49362 0.02427 0.0
C1517 C 0.25893 0.48121 0.06338 0.0
C1518 C 0.32966 0.45691 0.98094 0.0
C1519 C 0.23545 0.51617 0.01344 0.0
H1520 H 0.32255 0.54925 0.89909 0.0
H1521 H 0.25498 0.48791 0.86028 0.0
H1522 H 0.30437 0.54774 0.00289 0.0
H1523 H 0.33461 0.52259 0.99614 0.0
H1524 H 0.33414 0.55691 0.96801 0.0
H1525 H 0.2306 0.45541 0.90563 0.0
H1526 H 0.26118 0.43941 0.93331 0.0
H1527 H 0.23374 0.461 0.95973 0.0
H1528 H 0.32423 0.44329 0.06057 0.0
H1529 H 0.24135 0.48713 0.08448 0.0
H1530 H 0.34208 0.47643 0.9691 0.0
H1531 H 0.31968 0.44547 0.95429 0.0
H1532 H 0.3459 0.44174 0.99571 0.0
H1533 H 0.24504 0.53881 0.01736 0.0
H1534 H 0.21566 0.51428 0.03354 0.0
H1535 H 0.22807 0.51397 0.98142 0.0
C1536 C 0.52984 0.27969 0.09496 0.0
C1537 C 0.54686 0.25673 0.11167 0.0
C1538 C 0.51709 0.27672 0.05642 0.0
C1539 C 0.52314 0.25079 0.03309 0.0
C1540 C 0.54218 0.22842 0.04899 0.0
C1541 C 0.55229 0.23084 0.08923 0.0
C1542 C 0.49763 0.30181 0.0412 0.0
C1543 C 0.55311 0.20286 0.02301 0.0
C1544 C 0.47231 0.22496 0.94765 0.0
C1545 C 0.48111 0.24395 0.91627 0.0
C1546 C 0.48543 0.22733 0.98629 0.0
C1547 C 0.5097 0.24726 0.99216 0.0
C1548 C 0.51972 0.26515 0.95937 0.0
C1549 C 0.50483 0.2637 0.92219 0.0
C1550 C 0.47214 0.20987 0.0212 0.0
C1551 C 0.54561 0.28651 0.96275 0.0
H1552 H 0.5253 0.29952 0.1129 0.0
H1553 H 0.56466 0.21273 0.10292 0.0
H1554 H 0.48245 0.29472 0.01654 0.0
H1555 H 0.48411 0.31126 0.06637 0.0
H1556 H 0.51206 0.32002 0.0295 0.0
H1557 H 0.56688 0.1868 0.04055 0.0
H1558 H 0.53446 0.19053 0.00879 0.0
H1559 H 0.56678 0.21203 0.99779 0.0
H1560 H 0.45482 0.20882 0.9423 0.0
H1561 H 0.51209 0.27789 0.89735 0.0
H1562 H 0.46304 0.22569 0.04398 0.0
H1563 H 0.48918 0.19635 0.03698 0.0
H1564 H 0.4541 0.19461 0.01113 0.0
H1565 H 0.53749 0.30972 0.95856 0.0
H1566 H 0.56183 0.28205 0.938 0.0
H1567 H 0.55735 0.28508 0.99216 0.0
C1568 C 0.69373 0.46478 0.92097 0.0
C1569 C 0.71322 0.47519 0.89101 0.0
C1570 C 0.6952 0.47582 0.9608 0.0
C1571 C 0.71456 0.49996 0.96963 0.0
C1572 C 0.73332 0.51152 0.93887 0.0
C1573 C 0.73292 0.49849 0.90022 0.0
C1574 C 0.6761 0.46169 0.99336 0.0
C1575 C 0.75242 0.53877 0.94589 0.0
C1576 C 0.68913 0.5457 0.05993 0.0
C1577 C 0.71164 0.54006 0.08824 0.0
C1578 C 0.6907 0.5341 0.02044 0.0
C1579 C 0.71398 0.51415 0.01035 0.0
C1580 C 0.73612 0.50728 0.03952 0.0
C1581 C 0.73494 0.52077 0.07791 0.0
C1582 C 0.66747 0.5432 0.98961 0.0
C1583 C 0.75999 0.48432 0.03155 0.0
H1584 H 0.67699 0.44838 0.91311 0.0
H1585 H 0.74727 0.50736 0.8766 0.0
H1586 H 0.69065 0.45275 0.01774 0.0
H1587 H 0.6613 0.47836 0.00778 0.0
H1588 H 0.662 0.44337 0.98124 0.0
H1589 H 0.73763 0.5585 0.94832 0.0
H1590 H 0.7651 0.53698 0.97469 0.0
H1591 H 0.76836 0.54269 0.92063 0.0
H1592 H 0.66993 0.55867 0.06891 0.0
H1593 H 0.75172 0.51536 0.10043 0.0
H1594 H 0.65551 0.5235 0.97747 0.0
H1595 H 0.67855 0.55414 0.96339 0.0
H1596 H 0.65068 0.55866 0.00259 0.0
H1597 H 0.75043 0.46189 0.03739 0.0
H1598 H 0.77941 0.48736 0.05207 0.0
H1599 H 0.76794 0.48482 -0.00032 0.0
loop_
_geom_bond_atom_site_label_1
_geom_bond_atom_site_label_2
_geom_bond_distance
_geom_bond_site_symmetry_2
_ccdc_geom_bond_type
Mn0 O5 2.095 . S
Mn0 O15 2.162 1_455 S
Mn0 O16 2.297 1_455 S
Mn0 O24 2.375 1_455 S
Mn0 O25 2.209 . S
Mn0 O26 2.094 . S
Mn1 O6 2.121 . S
Mn1 N8 2.257 . S
Mn1 N17 2.282 . S
Mn1 O25 2.215 . S
Mn1 O27 2.117 . S
C2 O24 1.220 1_455 S
C2 O25 1.283 . S
C3 O15 1.281 . S
C3 O16 1.236 . S
C4 O26 1.240 . S
C4 O27 1.264 . S
O5 Mn0 2.095 . S
O5 C14 1.250 . S
O6 Mn1 2.121 . S
O6 C14 1.258 . S
C7 N8 1.326 . S
C7 C11 1.460 . S
C7 H13 0.929 . S
N8 Mn1 2.257 . S
N8 C7 1.326 . S
N8 C12 1.362 . S
C9 C10 1.258 . S
C9 C12 1.431 . S
C9 C29 1.449 . S
C10 C9 1.258 . S
C10 C11 1.477 . S
C10 H30 0.931 . S
C11 C7 1.460 . S
C11 C10 1.477 . S
C11 H31 0.930 . S
C12 N8 1.362 . S
C12 C9 1.431 . S
C12 C22 1.476 . S
H13 C7 0.929 . S
C14 O5 1.250 . S
C14 O6 1.258 . S
O15 Mn0 2.162 1_655 S
O15 C3 1.281 . S
O16 Mn0 2.297 1_655 S
O16 C3 1.236 . S
N17 Mn1 2.282 . S
N17 C18 1.328 . S
N17 C22 1.318 . S
C18 N17 1.328 . S
C18 C19 1.457 . S
C18 H23 0.929 . S
C19 C18 1.457 . S
C19 C20 1.291 . S
C19 H32 0.931 . S
C20 C19 1.291 . S
C20 C21 1.373 . S
C20 H33 0.929 . S
C21 C20 1.373 . S
C21 C22 1.396 . S
C21 C28 1.403 . S
C22 C12 1.476 . S
C22 N17 1.318 . S
C22 C21 1.396 . S
H23 C18 0.929 . S
O24 Mn0 2.375 1_655 S
O24 C2 1.220 1_655 S
O25 Mn0 2.209 . S
O25 Mn1 2.215 . S
O25 C2 1.283 . S
O26 Mn0 2.094 . S
O26 C4 1.240 . S
O27 Mn1 2.117 . S
O27 C4 1.264 . S
C28 C21 1.403 . S
C28 C29 1.399 . S
C28 H34 0.929 . S
C29 C9 1.449 . S
C29 C28 1.399 . S
C29 H35 0.930 . S
H30 C10 0.931 . S
H31 C11 0.930 . S
H32 C19 0.931 . S
H33 C20 0.929 . S
H34 C28 0.929 . S
H35 C29 0.930 . S
Mn36 O41 2.095 . S
Mn36 O51 2.162 1_545 S
Mn36 O52 2.297 1_545 S
Mn36 O60 2.375 1_545 S
Mn36 O61 2.209 . S
Mn36 O62 2.094 . S
Mn37 O42 2.121 . S
Mn37 N44 2.257 . S
Mn37 N53 2.282 . S
Mn37 O61 2.215 . S
Mn37 O63 2.117 . S
C38 O60 1.220 1_545 S
C38 O61 1.283 . S
C39 O51 1.281 . S
C39 O52 1.236 . S
C40 O62 1.240 . S
C40 O63 1.264 . S
O41 Mn36 2.095 . S
O41 C50 1.250 . S
O42 Mn37 2.121 . S
O42 C50 1.258 . S
C43 N44 1.326 . S
C43 C47 1.460 . S
C43 H49 0.929 . S
N44 Mn37 2.257 . S
N44 C43 1.326 . S
N44 C48 1.362 . S
C45 C46 1.258 . S
C45 C48 1.431 . S
C45 C65 1.449 . S
C46 C45 1.258 . S
C46 C47 1.477 . S
C46 H66 0.931 . S
C47 C43 1.460 . S
C47 C46 1.477 . S
C47 H67 0.930 . S
C48 N44 1.362 . S
C48 C45 1.431 . S
C48 C58 1.476 . S
H49 C43 0.929 . S
C50 O41 1.250 . S
C50 O42 1.258 . S
O51 Mn36 2.162 1_565 S
O51 C39 1.281 . S
O52 Mn36 2.297 1_565 S
O52 C39 1.236 . S
N53 Mn37 2.282 . S
N53 C54 1.328 . S
N53 C58 1.318 . S
C54 N53 1.328 . S
C54 C55 1.457 . S
C54 H59 0.929 . S
C55 C54 1.457 . S
C55 C56 1.291 . S
C55 H68 0.931 . S
C56 C55 1.291 . S
C56 C57 1.373 . S
C56 H69 0.929 . S
C57 C56 1.373 . S
C57 C58 1.396 . S
C57 C64 1.403 . S
C58 C48 1.476 . S
C58 N53 1.318 . S
C58 C57 1.396 . S
H59 C54 0.929 . S
O60 Mn36 2.375 1_565 S
O60 C38 1.220 1_565 S
O61 Mn36 2.209 . S
O61 Mn37 2.215 . S
O61 C38 1.283 . S
O62 Mn36 2.094 . S
O62 C40 1.240 . S
O63 Mn37 2.117 . S
O63 C40 1.264 . S
C64 C57 1.403 . S
C64 C65 1.399 . S
C64 H70 0.929 . S
C65 C45 1.449 . S
C65 C64 1.399 . S
C65 H71 0.930 . S
H66 C46 0.931 . S
H67 C47 0.930 . S
H68 C55 0.931 . S
H69 C56 0.929 . S
H70 C64 0.929 . S
H71 C65 0.930 . S
Mn72 O77 2.095 . S
Mn72 O87 2.162 1_655 S
Mn72 O88 2.297 1_655 S
Mn72 O96 2.375 1_655 S
Mn72 O97 2.209 . S
Mn72 O98 2.094 . S
Mn73 O78 2.121 . S
Mn73 N80 2.257 . S
Mn73 N89 2.282 . S
Mn73 O97 2.215 . S
Mn73 O99 2.117 . S
C74 O96 1.220 1_655 S
C74 O97 1.283 . S
C75 O87 1.281 . S
C75 O88 1.236 . S
C76 O98 1.240 . S
C76 O99 1.264 . S
O77 Mn72 2.095 . S
O77 C86 1.250 . S
O78 Mn73 2.121 . S
O78 C86 1.258 . S
C79 N80 1.326 . S
C79 C83 1.460 . S
C79 H85 0.929 . S
N80 Mn73 2.257 . S
N80 C79 1.326 . S
N80 C84 1.362 . S
C81 C82 1.258 . S
C81 C84 1.431 . S
C81 C101 1.449 . S
C82 C81 1.258 . S
C82 C83 1.477 . S
C82 H102 0.931 . S
C83 C79 1.460 . S
C83 C82 1.477 . S
C83 H103 0.930 . S
C84 N80 1.362 . S
C84 C81 1.431 . S
C84 C94 1.476 . S
H85 C79 0.929 . S
C86 O77 1.250 . S
C86 O78 1.258 . S
O87 Mn72 2.162 1_455 S
O87 C75 1.281 . S
O88 Mn72 2.297 1_455 S
O88 C75 1.236 . S
N89 Mn73 2.282 . S
N89 C90 1.328 . S
N89 C94 1.318 . S
C90 N89 1.328 . S
C90 C91 1.457 . S
C90 H95 0.929 . S
C91 C90 1.457 . S
C91 C92 1.291 . S
C91 H104 0.931 . S
C92 C91 1.291 . S
C92 C93 1.373 . S
C92 H105 0.929 . S
C93 C92 1.373 . S
C93 C94 1.396 . S
C93 C100 1.403 . S
C94 C84 1.476 . S
C94 N89 1.318 . S
C94 C93 1.396 . S
H95 C90 0.929 . S
O96 Mn72 2.375 1_455 S
O96 C74 1.220 1_455 S
O97 Mn72 2.209 . S
O97 Mn73 2.215 . S
O97 C74 1.283 . S
O98 Mn72 2.094 . S
O98 C76 1.240 . S
O99 Mn73 2.117 . S
O99 C76 1.264 . S
C100 C93 1.403 . S
C100 C101 1.399 . S
C100 H106 0.929 . S
C101 C81 1.449 . S
C101 C100 1.399 . S
C101 H107 0.930 . S
H102 C82 0.931 . S
H103 C83 0.930 . S
H104 C91 0.931 . S
H105 C92 0.929 . S
H106 C100 0.929 . S
H107 C101 0.930 . S
Mn108 O113 2.095 . S
Mn108 O123 2.162 1_565 S
Mn108 O124 2.297 1_565 S
Mn108 O132 2.375 1_565 S
Mn108 O133 2.209 . S
Mn108 O134 2.094 . S
Mn109 O114 2.121 . S
Mn109 N116 2.257 . S
Mn109 N125 2.282 . S
Mn109 O133 2.215 . S
Mn109 O135 2.117 . S
C110 O132 1.220 1_565 S
C110 O133 1.283 . S
C111 O123 1.281 . S
C111 O124 1.236 . S
C112 O134 1.240 . S
C112 O135 1.264 . S
O113 Mn108 2.095 . S
O113 C122 1.250 . S
O114 Mn109 2.121 . S
O114 C122 1.258 . S
C115 N116 1.326 . S
C115 C119 1.460 . S
C115 H121 0.929 . S
N116 Mn109 2.257 . S
N116 C115 1.326 . S
N116 C120 1.362 . S
C117 C118 1.258 . S
C117 C120 1.431 . S
C117 C137 1.449 . S
C118 C117 1.258 . S
C118 C119 1.477 . S
C118 H138 0.931 . S
C119 C115 1.460 . S
C119 C118 1.477 . S
C119 H139 0.930 . S
C120 N116 1.362 . S
C120 C117 1.431 . S
C120 C130 1.476 . S
H121 C115 0.929 . S
C122 O113 1.250 . S
C122 O114 1.258 . S
O123 Mn108 2.162 1_545 S
O123 C111 1.281 . S
O124 Mn108 2.297 1_545 S
O124 C111 1.236 . S
N125 Mn109 2.282 . S
N125 C126 1.328 . S
N125 C130 1.318 . S
C126 N125 1.328 . S
C126 C127 1.457 . S
C126 H131 0.929 . S
C127 C126 1.457 . S
C127 C128 1.291 . S
C127 H140 0.931 . S
C128 C127 1.291 . S
C128 C129 1.373 . S
C128 H141 0.929 . S
C129 C128 1.373 . S
C129 C130 1.396 . S
C129 C136 1.403 . S
C130 C120 1.476 . S
C130 N125 1.318 . S
C130 C129 1.396 . S
H131 C126 0.929 . S
O132 Mn108 2.375 1_545 S
O132 C110 1.220 1_545 S
O133 Mn108 2.209 . S
O133 Mn109 2.215 . S
O133 C110 1.283 . S
O134 Mn108 2.094 . S
O134 C112 1.240 . S
O135 Mn109 2.117 . S
O135 C112 1.264 . S
C136 C129 1.403 . S
C136 C137 1.399 . S
C136 H142 0.929 . S
C137 C117 1.449 . S
C137 C136 1.399 . S
C137 H143 0.930 . S
H138 C118 0.931 . S
H139 C119 0.930 . S
H140 C127 0.931 . S
H141 C128 0.929 . S
H142 C136 0.929 . S
H143 C137 0.930 . S
Mn144 O149 2.095 . S
Mn144 O159 2.162 1_455 S
Mn144 O160 2.297 1_455 S
Mn144 O168 2.375 1_455 S
Mn144 O169 2.209 . S
Mn144 O170 2.094 . S
Mn145 O150 2.121 . S
Mn145 N152 2.257 . S
Mn145 N161 2.282 . S
Mn145 O169 2.215 . S
Mn145 O171 2.117 . S
C146 O168 1.220 1_455 S
C146 O169 1.283 . S
C147 O159 1.281 . S
C147 O160 1.236 . S
C148 O170 1.240 . S
C148 O171 1.264 . S
O149 Mn144 2.095 . S
O149 C158 1.250 . S
O150 Mn145 2.121 . S
O150 C158 1.258 . S
C151 N152 1.326 . S
C151 C155 1.460 . S
C151 H157 0.929 . S
N152 Mn145 2.257 . S
N152 C151 1.326 . S
N152 C156 1.362 . S
C153 C154 1.258 . S
C153 C156 1.431 . S
C153 C173 1.449 . S
C154 C153 1.258 . S
C154 C155 1.477 . S
C154 H174 0.931 . S
C155 C151 1.460 . S
C155 C154 1.477 . S
C155 H175 0.930 . S
C156 N152 1.362 . S
C156 C153 1.431 . S
C156 C166 1.476 . S
H157 C151 0.929 . S
C158 O149 1.250 . S
C158 O150 1.258 . S
O159 Mn144 2.162 1_655 S
O159 C147 1.281 . S
O160 Mn144 2.297 1_655 S
O160 C147 1.236 . S
N161 Mn145 2.282 . S
N161 C162 1.328 . S
N161 C166 1.318 . S
C162 N161 1.328 . S
C162 C163 1.457 . S
C162 H167 0.929 . S
C163 C162 1.457 . S
C163 C164 1.291 . S
C163 H176 0.931 . S
C164 C163 1.291 . S
C164 C165 1.373 . S
C164 H177 0.929 . S
C165 C164 1.373 . S
C165 C166 1.396 . S
C165 C172 1.403 . S
C166 C156 1.476 . S
C166 N161 1.318 . S
C166 C165 1.396 . S
H167 C162 0.929 . S
O168 Mn144 2.375 1_655 S
O168 C146 1.220 1_655 S
O169 Mn144 2.209 . S
O169 Mn145 2.215 . S
O169 C146 1.283 . S
O170 Mn144 2.094 . S
O170 C148 1.240 . S
O171 Mn145 2.117 . S
O171 C148 1.264 . S
C172 C165 1.403 . S
C172 C173 1.399 . S
C172 H178 0.929 . S
C173 C153 1.449 . S
C173 C172 1.399 . S
C173 H179 0.930 . S
H174 C154 0.931 . S
H175 C155 0.930 . S
H176 C163 0.931 . S
H177 C164 0.929 . S
H178 C172 0.929 . S
H179 C173 0.930 . S
Mn180 O185 2.095 . S
Mn180 O195 2.162 1_545 S
Mn180 O196 2.297 1_545 S
Mn180 O204 2.375 1_545 S
Mn180 O205 2.209 . S
Mn180 O206 2.094 . S
Mn181 O186 2.121 . S
Mn181 N188 2.257 . S
Mn181 N197 2.282 . S
Mn181 O205 2.215 . S
Mn181 O207 2.117 . S
C182 O204 1.220 1_545 S
C182 O205 1.283 . S
C183 O195 1.281 . S
C183 O196 1.236 . S
C184 O206 1.240 . S
C184 O207 1.264 . S
O185 Mn180 2.095 . S
O185 C194 1.250 . S
O186 Mn181 2.121 . S
O186 C194 1.258 . S
C187 N188 1.326 . S
C187 C191 1.460 . S
C187 H193 0.929 . S
N188 Mn181 2.257 . S
N188 C187 1.326 . S
N188 C192 1.362 . S
C189 C190 1.258 . S
C189 C192 1.431 . S
C189 C209 1.449 . S
C190 C189 1.258 . S
C190 C191 1.477 . S
C190 H210 0.931 . S
C191 C187 1.460 . S
C191 C190 1.477 . S
C191 H211 0.930 . S
C192 N188 1.362 . S
C192 C189 1.431 . S
C192 C202 1.476 . S
H193 C187 0.929 . S
C194 O185 1.250 . S
C194 O186 1.258 . S
O195 Mn180 2.162 1_565 S
O195 C183 1.281 . S
O196 Mn180 2.297 1_565 S
O196 C183 1.236 . S
N197 Mn181 2.282 . S
N197 C198 1.328 . S
N197 C202 1.318 . S
C198 N197 1.328 . S
C198 C199 1.457 . S
C198 H203 0.929 . S
C199 C198 1.457 . S
C199 C200 1.291 . S
C199 H212 0.931 . S
C200 C199 1.291 . S
C200 C201 1.373 . S
C200 H213 0.929 . S
C201 C200 1.373 . S
C201 C202 1.396 . S
C201 C208 1.403 . S
C202 C192 1.476 . S
C202 N197 1.318 . S
C202 C201 1.396 . S
H203 C198 0.929 . S
O204 Mn180 2.375 1_565 S
O204 C182 1.220 1_565 S
O205 Mn180 2.209 . S
O205 Mn181 2.215 . S
O205 C182 1.283 . S
O206 Mn180 2.094 . S
O206 C184 1.240 . S
O207 Mn181 2.117 . S
O207 C184 1.264 . S
C208 C201 1.403 . S
C208 C209 1.399 . S
C208 H214 0.929 . S
C209 C189 1.449 . S
C209 C208 1.399 . S
C209 H215 0.930 . S
H210 C190 0.931 . S
H211 C191 0.930 . S
H212 C199 0.931 . S
H213 C200 0.929 . S
H214 C208 0.929 . S
H215 C209 0.930 . S
Mn216 O221 2.095 . S
Mn216 O231 2.162 1_655 S
Mn216 O232 2.297 1_655 S
Mn216 O240 2.375 1_655 S
Mn216 O241 2.209 . S
Mn216 O242 2.094 . S
Mn217 O222 2.121 . S
Mn217 N224 2.257 . S
Mn217 N233 2.282 . S
Mn217 O241 2.215 . S
Mn217 O243 2.117 . S
C218 O240 1.220 1_655 S
C218 O241 1.283 . S
C219 O231 1.281 . S
C219 O232 1.236 . S
C220 O242 1.240 . S
C220 O243 1.264 . S
O221 Mn216 2.095 . S
O221 C230 1.250 . S
O222 Mn217 2.121 . S
O222 C230 1.258 . S
C223 N224 1.326 . S
C223 C227 1.460 . S
C223 H229 0.929 . S
N224 Mn217 2.257 . S
N224 C223 1.326 . S
N224 C228 1.362 . S
C225 C226 1.258 . S
C225 C228 1.431 . S
C225 C245 1.449 . S
C226 C225 1.258 . S
C226 C227 1.477 . S
C226 H246 0.931 . S
C227 C223 1.460 . S
C227 C226 1.477 . S
C227 H247 0.930 . S
C228 N224 1.362 . S
C228 C225 1.431 . S
C228 C238 1.476 . S
H229 C223 0.929 . S
C230 O221 1.250 . S
C230 O222 1.258 . S
O231 Mn216 2.162 1_455 S
O231 C219 1.281 . S
O232 Mn216 2.297 1_455 S
O232 C219 1.236 . S
N233 Mn217 2.282 . S
N233 C234 1.328 . S
N233 C238 1.318 . S
C234 N233 1.328 . S
C234 C235 1.457 . S
C234 H239 0.929 . S
C235 C234 1.457 . S
C235 C236 1.291 . S
C235 H248 0.931 . S
C236 C235 1.291 . S
C236 C237 1.373 . S
C236 H249 0.929 . S
C237 C236 1.373 . S
C237 C238 1.396 . S
C237 C244 1.403 . S
C238 C228 1.476 . S
C238 N233 1.318 . S
C238 C237 1.396 . S
H239 C234 0.929 . S
O240 Mn216 2.375 1_455 S
O240 C218 1.220 1_455 S
O241 Mn216 2.209 . S
O241 Mn217 2.215 . S
O241 C218 1.283 . S
O242 Mn216 2.094 . S
O242 C220 1.240 . S
O243 Mn217 2.117 . S
O243 C220 1.264 . S
C244 C237 1.403 . S
C244 C245 1.399 . S
C244 H250 0.929 . S
C245 C225 1.449 . S
C245 C244 1.399 . S
C245 H251 0.930 . S
H246 C226 0.931 . S
H247 C227 0.930 . S
H248 C235 0.931 . S
H249 C236 0.929 . S
H250 C244 0.929 . S
H251 C245 0.930 . S
Mn252 O257 2.095 . S
Mn252 O267 2.162 1_565 S
Mn252 O268 2.297 1_565 S
Mn252 O276 2.375 1_565 S
Mn252 O277 2.209 . S
Mn252 O278 2.094 . S
Mn253 O258 2.121 . S
Mn253 N260 2.257 . S
Mn253 N269 2.282 . S
Mn253 O277 2.215 . S
Mn253 O279 2.117 . S
C254 O276 1.220 1_565 S
C254 O277 1.283 . S
C255 O267 1.281 . S
C255 O268 1.236 . S
C256 O278 1.240 . S
C256 O279 1.264 . S
O257 Mn252 2.095 . S
O257 C266 1.250 . S
O258 Mn253 2.121 . S
O258 C266 1.258 . S
C259 N260 1.326 . S
C259 C263 1.460 . S
C259 H265 0.929 . S
N260 Mn253 2.257 . S
N260 C259 1.326 . S
N260 C264 1.362 . S
C261 C262 1.258 . S
C261 C264 1.431 . S
C261 C281 1.449 . S
C262 C261 1.258 . S
C262 C263 1.477 . S
C262 H282 0.931 . S
C263 C259 1.460 . S
C263 C262 1.477 . S
C263 H283 0.930 . S
C264 N260 1.362 . S
C264 C261 1.431 . S
C264 C274 1.476 . S
H265 C259 0.929 . S
C266 O257 1.250 . S
C266 O258 1.258 . S
O267 Mn252 2.162 1_545 S
O267 C255 1.281 . S
O268 Mn252 2.297 1_545 S
O268 C255 1.236 . S
N269 Mn253 2.282 . S
N269 C270 1.328 . S
N269 C274 1.318 . S
C270 N269 1.328 . S
C270 C271 1.457 . S
C270 H275 0.929 . S
C271 C270 1.457 . S
C271 C272 1.291 . S
C271 H284 0.931 . S
C272 C271 1.291 . S
C272 C273 1.373 . S
C272 H285 0.929 . S
C273 C272 1.373 . S
C273 C274 1.396 . S
C273 C280 1.403 . S
C274 C264 1.476 . S
C274 N269 1.318 . S
C274 C273 1.396 . S
H275 C270 0.929 . S
O276 Mn252 2.375 1_545 S
O276 C254 1.220 1_545 S
O277 Mn252 2.209 . S
O277 Mn253 2.215 . S
O277 C254 1.283 . S
O278 Mn252 2.094 . S
O278 C256 1.240 . S
O279 Mn253 2.117 . S
O279 C256 1.264 . S
C280 C273 1.403 . S
C280 C281 1.399 . S
C280 H286 0.929 . S
C281 C261 1.449 . S
C281 C280 1.399 . S
C281 H287 0.930 . S
H282 C262 0.931 . S
H283 C263 0.930 . S
H284 C271 0.931 . S
H285 C272 0.929 . S
H286 C280 0.929 . S
H287 C281 0.930 . S
Mn288 O293 2.095 . S
Mn288 O303 2.162 . S
Mn288 O304 2.297 . S
Mn288 O312 2.385 . S
Mn288 O313 2.209 . S
Mn288 O314 2.094 . S
Mn289 O294 2.121 . S
Mn289 N296 2.257 . S
Mn289 N305 2.282 . S
Mn289 O313 2.215 . S
Mn289 O315 2.117 . S
C290 O312 1.234 . S
C290 O313 1.283 . S
C291 O303 1.281 . S
C291 O304 1.236 . S
C292 O314 1.240 . S
C292 O315 1.264 . S
O293 Mn288 2.095 . S
O293 C302 1.250 . S
O294 Mn289 2.121 . S
O294 C302 1.258 . S
C295 N296 1.326 . S
C295 C299 1.460 . S
C295 H301 0.929 . S
N296 Mn289 2.257 . S
N296 C295 1.326 . S
N296 C300 1.362 . S
C297 C298 1.258 . S
C297 C300 1.431 . S
C297 C317 1.449 . S
C298 C297 1.258 . S
C298 C299 1.477 . S
C298 H318 0.931 . S
C299 C295 1.460 . S
C299 C298 1.477 . S
C299 H319 0.930 . S
C300 N296 1.362 . S
C300 C297 1.431 . S
C300 C310 1.476 . S
H301 C295 0.929 . S
C302 O293 1.250 . S
C302 O294 1.258 . S
O303 Mn288 2.162 . S
O303 C291 1.281 . S
O304 Mn288 2.297 . S
O304 C291 1.236 . S
N305 Mn289 2.282 . S
N305 C306 1.328 . S
N305 C310 1.318 . S
C306 N305 1.328 . S
C306 C307 1.457 . S
C306 H311 0.929 . S
C307 C306 1.457 . S
C307 C308 1.291 . S
C307 H320 0.931 . S
C308 C307 1.291 . S
C308 C309 1.373 . S
C308 H321 0.929 . S
C309 C308 1.373 . S
C309 C310 1.396 . S
C309 C316 1.403 . S
C310 C300 1.476 . S
C310 N305 1.318 . S
C310 C309 1.396 . S
H311 C306 0.929 . S
O312 Mn288 2.385 . S
O312 C290 1.234 . S
O313 Mn288 2.209 . S
O313 Mn289 2.215 . S
O313 C290 1.283 . S
O314 Mn288 2.094 . S
O314 C292 1.240 . S
O315 Mn289 2.117 . S
O315 C292 1.264 . S
C316 C309 1.403 . S
C316 C317 1.399 . S
C316 H322 0.929 1_556 S
C317 C297 1.449 . S
C317 C316 1.399 . S
C317 H323 0.930 1_556 S
H318 C298 0.931 . S
H319 C299 0.930 . S
H320 C307 0.931 . S
H321 C308 0.929 . S
H322 C316 0.929 1_554 S
H323 C317 0.930 1_554 S
Mn324 O329 2.095 . S
Mn324 O339 2.162 . S
Mn324 O340 2.297 . S
Mn324 O348 2.385 . S
Mn324 O349 2.209 . S
Mn324 O350 2.094 . S
Mn325 O330 2.121 . S
Mn325 N332 2.257 . S
Mn325 N341 2.282 . S
Mn325 O349 2.215 . S
Mn325 O351 2.117 . S
C326 O348 1.234 . S
C326 O349 1.283 . S
C327 O339 1.281 . S
C327 O340 1.236 . S
C328 O350 1.240 . S
C328 O351 1.264 . S
O329 Mn324 2.095 . S
O329 C338 1.250 . S
O330 Mn325 2.121 . S
O330 C338 1.258 . S
C331 N332 1.326 . S
C331 C335 1.460 . S
C331 H337 0.929 . S
N332 Mn325 2.257 . S
N332 C331 1.326 . S
N332 C336 1.362 . S
C333 C334 1.258 . S
C333 C336 1.431 . S
C333 C353 1.449 . S
C334 C333 1.258 . S
C334 C335 1.477 . S
C334 H354 0.931 . S
C335 C331 1.460 . S
C335 C334 1.477 . S
C335 H355 0.930 . S
C336 N332 1.362 . S
C336 C333 1.431 . S
C336 C346 1.476 . S
H337 C331 0.929 . S
C338 O329 1.250 . S
C338 O330 1.258 . S
O339 Mn324 2.162 . S
O339 C327 1.281 . S
O340 Mn324 2.297 . S
O340 C327 1.236 . S
N341 Mn325 2.282 . S
N341 C342 1.328 . S
N341 C346 1.318 . S
C342 N341 1.328 . S
C342 C343 1.457 . S
C342 H347 0.929 . S
C343 C342 1.457 . S
C343 C344 1.291 . S
C343 H356 0.931 . S
C344 C343 1.291 . S
C344 C345 1.373 . S
C344 H357 0.929 . S
C345 C344 1.373 . S
C345 C346 1.396 . S
C345 C352 1.403 . S
C346 C336 1.476 . S
C346 N341 1.318 . S
C346 C345 1.396 . S
H347 C342 0.929 . S
O348 Mn324 2.385 . S
O348 C326 1.234 . S
O349 Mn324 2.209 . S
O349 Mn325 2.215 . S
O349 C326 1.283 . S
O350 Mn324 2.094 . S
O350 C328 1.240 . S
O351 Mn325 2.117 . S
O351 C328 1.264 . S
C352 C345 1.403 . S
C352 C353 1.399 . S
C352 H358 0.929 1_556 S
C353 C333 1.449 . S
C353 C352 1.399 . S
C353 H359 0.930 1_556 S
H354 C334 0.931 . S
H355 C335 0.930 . S
H356 C343 0.931 . S
H357 C344 0.929 . S
H358 C352 0.929 1_554 S
H359 C353 0.930 1_554 S
Mn360 O365 2.095 . S
Mn360 O375 2.162 . S
Mn360 O376 2.297 . S
Mn360 O384 2.385 . S
Mn360 O385 2.209 . S
Mn360 O386 2.094 . S
Mn361 O366 2.121 . S
Mn361 N368 2.257 . S
Mn361 N377 2.282 . S
Mn361 O385 2.215 . S
Mn361 O387 2.117 . S
C362 O384 1.234 . S
C362 O385 1.283 . S
C363 O375 1.281 . S
C363 O376 1.236 . S
C364 O386 1.240 . S
C364 O387 1.264 . S
O365 Mn360 2.095 . S
O365 C374 1.250 . S
O366 Mn361 2.121 . S
O366 C374 1.258 . S
C367 N368 1.326 . S
C367 C371 1.460 . S
C367 H373 0.929 . S
N368 Mn361 2.257 . S
N368 C367 1.326 . S
N368 C372 1.362 . S
C369 C370 1.258 . S
C369 C372 1.431 . S
C369 C389 1.449 . S
C370 C369 1.258 . S
C370 C371 1.477 . S
C370 H390 0.931 . S
C371 C367 1.460 . S
C371 C370 1.477 . S
C371 H391 0.930 . S
C372 N368 1.362 . S
C372 C369 1.431 . S
C372 C382 1.476 . S
H373 C367 0.929 . S
C374 O365 1.250 . S
C374 O366 1.258 . S
O375 Mn360 2.162 . S
O375 C363 1.281 . S
O376 Mn360 2.297 . S
O376 C363 1.236 . S
N377 Mn361 2.282 . S
N377 C378 1.328 . S
N377 C382 1.318 . S
C378 N377 1.328 . S
C378 C379 1.457 . S
C378 H383 0.929 . S
C379 C378 1.457 . S
C379 C380 1.291 . S
C379 H392 0.931 . S
C380 C379 1.291 . S
C380 C381 1.373 . S
C380 H393 0.929 . S
C381 C380 1.373 . S
C381 C382 1.396 . S
C381 C388 1.403 . S
C382 C372 1.476 . S
C382 N377 1.318 . S
C382 C381 1.396 . S
H383 C378 0.929 . S
O384 Mn360 2.385 . S
O384 C362 1.234 . S
O385 Mn360 2.209 . S
O385 Mn361 2.215 . S
O385 C362 1.283 . S
O386 Mn360 2.094 . S
O386 C364 1.240 . S
O387 Mn361 2.117 . S
O387 C364 1.264 . S
C388 C381 1.403 . S
C388 C389 1.399 . S
C388 H394 0.929 1_556 S
C389 C369 1.449 . S
C389 C388 1.399 . S
C389 H395 0.930 1_556 S
H390 C370 0.931 . S
H391 C371 0.930 . S
H392 C379 0.931 . S
H393 C380 0.929 . S
H394 C388 0.929 1_554 S
H395 C389 0.930 1_554 S
Mn396 O401 2.095 . S
Mn396 O411 2.162 . S
Mn396 O412 2.297 . S
Mn396 O420 2.385 . S
Mn396 O421 2.209 . S
Mn396 O422 2.094 . S
Mn397 O402 2.121 . S
Mn397 N404 2.257 . S
Mn397 N413 2.282 . S
Mn397 O421 2.215 . S
Mn397 O423 2.117 . S
C398 O420 1.234 . S
C398 O421 1.283 . S
C399 O411 1.281 . S
C399 O412 1.236 . S
C400 O422 1.240 . S
C400 O423 1.264 . S
O401 Mn396 2.095 . S
O401 C410 1.250 . S
O402 Mn397 2.121 . S
O402 C410 1.258 . S
C403 N404 1.326 . S
C403 C407 1.460 . S
C403 H409 0.929 . S
N404 Mn397 2.257 . S
N404 C403 1.326 . S
N404 C408 1.362 . S
C405 C406 1.258 . S
C405 C408 1.431 . S
C405 C425 1.449 . S
C406 C405 1.258 . S
C406 C407 1.477 . S
C406 H426 0.931 . S
C407 C403 1.460 . S
C407 C406 1.477 . S
C407 H427 0.930 . S
C408 N404 1.362 . S
C408 C405 1.431 . S
C408 C418 1.476 . S
H409 C403 0.929 . S
C410 O401 1.250 . S
C410 O402 1.258 . S
O411 Mn396 2.162 . S
O411 C399 1.281 . S
O412 Mn396 2.297 . S
O412 C399 1.236 . S
N413 Mn397 2.282 . S
N413 C414 1.328 . S
N413 C418 1.318 . S
C414 N413 1.328 . S
C414 C415 1.457 . S
C414 H419 0.929 . S
C415 C414 1.457 . S
C415 C416 1.291 . S
C415 H428 0.931 . S
C416 C415 1.291 . S
C416 C417 1.373 . S
C416 H429 0.929 . S
C417 C416 1.373 . S
C417 C418 1.396 . S
C417 C424 1.403 . S
C418 C408 1.476 . S
C418 N413 1.318 . S
C418 C417 1.396 . S
H419 C414 0.929 . S
O420 Mn396 2.385 . S
O420 C398 1.234 . S
O421 Mn396 2.209 . S
O421 Mn397 2.215 . S
O421 C398 1.283 . S
O422 Mn396 2.094 . S
O422 C400 1.240 . S
O423 Mn397 2.117 . S
O423 C400 1.264 . S
C424 C417 1.403 . S
C424 C425 1.399 . S
C424 H430 0.929 1_556 S
C425 C405 1.449 . S
C425 C424 1.399 . S
C425 H431 0.930 1_556 S
H426 C406 0.931 . S
H427 C407 0.930 . S
H428 C415 0.931 . S
H429 C416 0.929 . S
H430 C424 0.929 1_554 S
H431 C425 0.930 1_554 S
Mn432 O437 2.095 . S
Mn432 O447 2.162 . S
Mn432 O448 2.297 . S
Mn432 O456 2.385 . S
Mn432 O457 2.209 . S
Mn432 O458 2.094 . S
Mn433 O438 2.121 . S
Mn433 N440 2.257 . S
Mn433 N449 2.282 . S
Mn433 O457 2.215 . S
Mn433 O459 2.117 . S
C434 O456 1.234 . S
C434 O457 1.283 . S
C435 O447 1.281 . S
C435 O448 1.236 . S
C436 O458 1.240 . S
C436 O459 1.264 . S
O437 Mn432 2.095 . S
O437 C446 1.250 . S
O438 Mn433 2.121 . S
O438 C446 1.258 . S
C439 N440 1.326 . S
C439 C443 1.460 . S
C439 H445 0.929 . S
N440 Mn433 2.257 . S
N440 C439 1.326 . S
N440 C444 1.362 . S
C441 C442 1.258 . S
C441 C444 1.431 . S
C441 C461 1.449 . S
C442 C441 1.258 . S
C442 C443 1.477 . S
C442 H462 0.931 . S
C443 C439 1.460 . S
C443 C442 1.477 . S
C443 H463 0.930 . S
C444 N440 1.362 . S
C444 C441 1.431 . S
C444 C454 1.476 . S
H445 C439 0.929 . S
C446 O437 1.250 . S
C446 O438 1.258 . S
O447 Mn432 2.162 . S
O447 C435 1.281 . S
O448 Mn432 2.297 . S
O448 C435 1.236 . S
N449 Mn433 2.282 . S
N449 C450 1.328 . S
N449 C454 1.318 . S
C450 N449 1.328 . S
C450 C451 1.457 . S
C450 H455 0.929 . S
C451 C450 1.457 . S
C451 C452 1.291 . S
C451 H464 0.931 . S
C452 C451 1.291 . S
C452 C453 1.373 . S
C452 H465 0.929 . S
C453 C452 1.373 . S
C453 C454 1.396 . S
C453 C460 1.403 . S
C454 C444 1.476 . S
C454 N449 1.318 . S
C454 C453 1.396 . S
H455 C450 0.929 . S
O456 Mn432 2.385 . S
O456 C434 1.234 . S
O457 Mn432 2.209 . S
O457 Mn433 2.215 . S
O457 C434 1.283 . S
O458 Mn432 2.094 . S
O458 C436 1.240 . S
O459 Mn433 2.117 . S
O459 C436 1.264 . S
C460 C453 1.403 . S
C460 C461 1.399 . S
C460 H466 0.929 1_554 S
C461 C441 1.449 . S
C461 C460 1.399 . S
C461 H467 0.930 1_554 S
H462 C442 0.931 . S
H463 C443 0.930 . S
H464 C451 0.931 . S
H465 C452 0.929 . S
H466 C460 0.929 1_556 S
H467 C461 0.930 1_556 S
Mn468 O473 2.095 . S
Mn468 O483 2.162 . S
Mn468 O484 2.297 . S
Mn468 O492 2.385 . S
Mn468 O493 2.209 . S
Mn468 O494 2.094 . S
Mn469 O474 2.121 . S
Mn469 N476 2.257 . S
Mn469 N485 2.282 . S
Mn469 O493 2.215 . S
Mn469 O495 2.117 . S
C470 O492 1.234 . S
C470 O493 1.283 . S
C471 O483 1.281 . S
C471 O484 1.236 . S
C472 O494 1.240 . S
C472 O495 1.264 . S
O473 Mn468 2.095 . S
O473 C482 1.250 . S
O474 Mn469 2.121 . S
O474 C482 1.258 . S
C475 N476 1.326 . S
C475 C479 1.460 . S
C475 H481 0.929 . S
N476 Mn469 2.257 . S
N476 C475 1.326 . S
N476 C480 1.362 . S
C477 C478 1.258 . S
C477 C480 1.431 . S
C477 C497 1.449 . S
C478 C477 1.258 . S
C478 C479 1.477 . S
C478 H498 0.931 . S
C479 C475 1.460 . S
C479 C478 1.477 . S
C479 H499 0.930 . S
C480 N476 1.362 . S
C480 C477 1.431 . S
C480 C490 1.476 . S
H481 C475 0.929 . S
C482 O473 1.250 . S
C482 O474 1.258 . S
O483 Mn468 2.162 . S
O483 C471 1.281 . S
O484 Mn468 2.297 . S
O484 C471 1.236 . S
N485 Mn469 2.282 . S
N485 C486 1.328 . S
N485 C490 1.318 . S
C486 N485 1.328 . S
C486 C487 1.457 . S
C486 H491 0.929 . S
C487 C486 1.457 . S
C487 C488 1.291 . S
C487 H500 0.931 . S
C488 C487 1.291 . S
C488 C489 1.373 . S
C488 H501 0.929 . S
C489 C488 1.373 . S
C489 C490 1.396 . S
C489 C496 1.403 . S
C490 C480 1.476 . S
C490 N485 1.318 . S
C490 C489 1.396 . S
H491 C486 0.929 . S
O492 Mn468 2.385 . S
O492 C470 1.234 . S
O493 Mn468 2.209 . S
O493 Mn469 2.215 . S
O493 C470 1.283 . S
O494 Mn468 2.094 . S
O494 C472 1.240 . S
O495 Mn469 2.117 . S
O495 C472 1.264 . S
C496 C489 1.403 . S
C496 C497 1.399 . S
C496 H502 0.929 1_554 S
C497 C477 1.449 . S
C497 C496 1.399 . S
C497 H503 0.930 1_554 S
H498 C478 0.931 . S
H499 C479 0.930 . S
H500 C487 0.931 . S
H501 C488 0.929 . S
H502 C496 0.929 1_556 S
H503 C497 0.930 1_556 S
Mn504 O509 2.095 . S
Mn504 O519 2.162 . S
Mn504 O520 2.297 . S
Mn504 O528 2.385 . S
Mn504 O529 2.209 . S
Mn504 O530 2.094 . S
Mn505 O510 2.121 . S
Mn505 N512 2.257 . S
Mn505 N521 2.282 . S
Mn505 O529 2.215 . S
Mn505 O531 2.117 . S
C506 O528 1.234 . S
C506 O529 1.283 . S
C507 O519 1.281 . S
C507 O520 1.236 . S
C508 O530 1.240 . S
C508 O531 1.264 . S
O509 Mn504 2.095 . S
O509 C518 1.250 . S
O510 Mn505 2.121 . S
O510 C518 1.258 . S
C511 N512 1.326 . S
C511 C515 1.460 . S
C511 H517 0.929 . S
N512 Mn505 2.257 . S
N512 C511 1.326 . S
N512 C516 1.362 . S
C513 C514 1.258 . S
C513 C516 1.431 . S
C513 C533 1.449 . S
C514 C513 1.258 . S
C514 C515 1.477 . S
C514 H534 0.931 . S
C515 C511 1.460 . S
C515 C514 1.477 . S
C515 H535 0.930 . S
C516 N512 1.362 . S
C516 C513 1.431 . S
C516 C526 1.476 . S
H517 C511 0.929 . S
C518 O509 1.250 . S
C518 O510 1.258 . S
O519 Mn504 2.162 . S
O519 C507 1.281 . S
O520 Mn504 2.297 . S
O520 C507 1.236 . S
N521 Mn505 2.282 . S
N521 C522 1.328 . S
N521 C526 1.318 . S
C522 N521 1.328 . S
C522 C523 1.457 . S
C522 H527 0.929 . S
C523 C522 1.457 . S
C523 C524 1.291 . S
C523 H536 0.931 . S
C524 C523 1.291 . S
C524 C525 1.373 . S
C524 H537 0.929 . S
C525 C524 1.373 . S
C525 C526 1.396 . S
C525 C532 1.403 . S
C526 C516 1.476 . S
C526 N521 1.318 . S
C526 C525 1.396 . S
H527 C522 0.929 . S
O528 Mn504 2.385 . S
O528 C506 1.234 . S
O529 Mn504 2.209 . S
O529 Mn505 2.215 . S
O529 C506 1.283 . S
O530 Mn504 2.094 . S
O530 C508 1.240 . S
O531 Mn505 2.117 . S
O531 C508 1.264 . S
C532 C525 1.403 . S
C532 C533 1.399 . S
C532 H538 0.929 1_554 S
C533 C513 1.449 . S
C533 C532 1.399 . S
C533 H539 0.930 1_554 S
H534 C514 0.931 . S
H535 C515 0.930 . S
H536 C523 0.931 . S
H537 C524 0.929 . S
H538 C532 0.929 1_556 S
H539 C533 0.930 1_556 S
Mn540 O545 2.095 . S
Mn540 O555 2.162 . S
Mn540 O556 2.297 . S
Mn540 O564 2.385 . S
Mn540 O565 2.209 . S
Mn540 O566 2.094 . S
Mn541 O546 2.121 . S
Mn541 N548 2.257 . S
Mn541 N557 2.282 . S
Mn541 O565 2.215 . S
Mn541 O567 2.117 . S
C542 O564 1.234 . S
C542 O565 1.283 . S
C543 O555 1.281 . S
C543 O556 1.236 . S
C544 O566 1.240 . S
C544 O567 1.264 . S
O545 Mn540 2.095 . S
O545 C554 1.250 . S
O546 Mn541 2.121 . S
O546 C554 1.258 . S
C547 N548 1.326 . S
C547 C551 1.460 . S
C547 H553 0.929 . S
N548 Mn541 2.257 . S
N548 C547 1.326 . S
N548 C552 1.362 . S
C549 C550 1.258 . S
C549 C552 1.431 . S
C549 C569 1.449 . S
C550 C549 1.258 . S
C550 C551 1.477 . S
C550 H570 0.931 . S
C551 C547 1.460 . S
C551 C550 1.477 . S
C551 H571 0.930 . S
C552 N548 1.362 . S
C552 C549 1.431 . S
C552 C562 1.476 . S
H553 C547 0.929 . S
C554 O545 1.250 . S
C554 O546 1.258 . S
O555 Mn540 2.162 . S
O555 C543 1.281 . S
O556 Mn540 2.297 . S
O556 C543 1.236 . S
N557 Mn541 2.282 . S
N557 C558 1.328 . S
N557 C562 1.318 . S
C558 N557 1.328 . S
C558 C559 1.457 . S
C558 H563 0.929 . S
C559 C558 1.457 . S
C559 C560 1.291 . S
C559 H572 0.931 . S
C560 C559 1.291 . S
C560 C561 1.373 . S
C560 H573 0.929 . S
C561 C560 1.373 . S
C561 C562 1.396 . S
C561 C568 1.403 . S
C562 C552 1.476 . S
C562 N557 1.318 . S
C562 C561 1.396 . S
H563 C558 0.929 . S
O564 Mn540 2.385 . S
O564 C542 1.234 . S
O565 Mn540 2.209 . S
O565 Mn541 2.215 . S
O565 C542 1.283 . S
O566 Mn540 2.094 . S
O566 C544 1.240 . S
O567 Mn541 2.117 . S
O567 C544 1.264 . S
C568 C561 1.403 . S
C568 C569 1.399 . S
C568 H574 0.929 1_554 S
C569 C549 1.449 . S
C569 C568 1.399 . S
C569 H575 0.930 1_554 S
H570 C550 0.931 . S
H571 C551 0.930 . S
H572 C559 0.931 . S
H573 C560 0.929 . S
H574 C568 0.929 1_556 S
H575 C569 0.930 1_556 S
C576 C577 1.391 . S
C576 C578 1.394 . S
C576 H592 0.931 . S
C577 C576 1.391 . S
C577 C581 1.376 . S
C578 C576 1.394 . S
C578 C579 1.369 . S
C578 C582 1.531 . S
C579 C578 1.369 . S
C579 C580 1.410 . S
C579 C587 1.503 . S
C580 C579 1.410 . S
C580 C581 1.392 . S
C580 C583 1.511 . S
C581 C577 1.376 . S
C581 C580 1.392 . S
C581 H593 0.929 . S
C582 C578 1.531 . S
C582 H594 0.960 . S
C582 H595 0.962 . S
C582 H596 0.960 . S
C583 C580 1.511 . S
C583 H597 0.961 . S
C583 H598 0.961 . S
C583 H599 0.961 . S
C584 C585 1.370 . S
C584 C586 1.363 . S
C584 H600 0.931 . S
C585 C584 1.370 . S
C585 C589 1.408 . S
C586 C584 1.363 . S
C586 C587 1.370 . S
C586 C590 1.524 . S
C587 C579 1.503 . S
C587 C586 1.370 . S
C587 C588 1.403 . S
C588 C587 1.403 . S
C588 C589 1.404 . S
C588 C591 1.539 . S
C589 C585 1.408 . S
C589 C588 1.404 . S
C589 H601 0.930 . S
C590 C586 1.524 . S
C590 H602 0.956 . S
C590 H603 0.961 . S
C590 H604 0.961 . S
C591 C588 1.539 . S
C591 H605 0.958 . S
C591 H606 0.961 . S
C591 H607 0.960 . S
H592 C576 0.931 . S
H593 C581 0.929 . S
H594 C582 0.960 . S
H595 C582 0.962 . S
H596 C582 0.960 . S
H597 C583 0.961 . S
H598 C583 0.961 . S
H599 C583 0.961 . S
H600 C584 0.931 . S
H601 C589 0.930 . S
H602 C590 0.956 . S
H603 C590 0.961 . S
H604 C590 0.961 . S
H605 C591 0.958 . S
H606 C591 0.961 . S
H607 C591 0.960 . S
C608 C609 1.391 . S
C608 C610 1.394 . S
C608 H624 0.931 . S
C609 C608 1.391 . S
C609 C613 1.376 . S
C610 C608 1.394 . S
C610 C611 1.369 . S
C610 C614 1.531 . S
C611 C610 1.369 . S
C611 C612 1.410 . S
C611 C619 1.503 . S
C612 C611 1.410 . S
C612 C613 1.392 . S
C612 C615 1.511 . S
C613 C609 1.376 . S
C613 C612 1.392 . S
C613 H625 0.929 . S
C614 C610 1.531 . S
C614 H626 0.960 . S
C614 H627 0.962 . S
C614 H628 0.960 . S
C615 C612 1.511 . S
C615 H629 0.961 . S
C615 H630 0.961 . S
C615 H631 0.961 . S
C616 C617 1.370 . S
C616 C618 1.363 . S
C616 H632 0.931 . S
C617 C616 1.370 . S
C617 C621 1.408 . S
C618 C616 1.363 . S
C618 C619 1.370 . S
C618 C622 1.524 . S
C619 C611 1.503 . S
C619 C618 1.370 . S
C619 C620 1.403 . S
C620 C619 1.403 . S
C620 C621 1.404 . S
C620 C623 1.539 . S
C621 C617 1.408 . S
C621 C620 1.404 . S
C621 H633 0.930 . S
C622 C618 1.524 . S
C622 H634 0.956 . S
C622 H635 0.961 . S
C622 H636 0.961 . S
C623 C620 1.539 . S
C623 H637 0.958 . S
C623 H638 0.961 . S
C623 H639 0.960 . S
H624 C608 0.931 . S
H625 C613 0.929 . S
H626 C614 0.960 . S
H627 C614 0.962 . S
H628 C614 0.960 . S
H629 C615 0.961 . S
H630 C615 0.961 . S
H631 C615 0.961 . S
H632 C616 0.931 . S
H633 C621 0.930 . S
H634 C622 0.956 . S
H635 C622 0.961 . S
H636 C622 0.961 . S
H637 C623 0.958 . S
H638 C623 0.961 . S
H639 C623 0.960 . S
C640 C641 1.391 . S
C640 C642 1.394 . S
C640 H656 0.931 . S
C641 C640 1.391 . S
C641 C645 1.376 . S
C642 C640 1.394 . S
C642 C643 1.369 . S
C642 C646 1.531 . S
C643 C642 1.369 . S
C643 C644 1.410 . S
C643 C651 1.503 . S
C644 C643 1.410 . S
C644 C645 1.392 . S
C644 C647 1.511 . S
C645 C641 1.376 . S
C645 C644 1.392 . S
C645 H657 0.929 . S
C646 C642 1.531 . S
C646 H658 0.960 . S
C646 H659 0.962 . S
C646 H660 0.960 . S
C647 C644 1.511 . S
C647 H661 0.961 . S
C647 H662 0.961 . S
C647 H663 0.961 . S
C648 C649 1.370 . S
C648 C650 1.363 . S
C648 H664 0.931 . S
C649 C648 1.370 . S
C649 C653 1.408 . S
C650 C648 1.363 . S
C650 C651 1.370 . S
C650 C654 1.524 . S
C651 C643 1.503 . S
C651 C650 1.370 . S
C651 C652 1.403 . S
C652 C651 1.403 . S
C652 C653 1.404 . S
C652 C655 1.539 . S
C653 C649 1.408 . S
C653 C652 1.404 . S
C653 H665 0.930 . S
C654 C650 1.524 . S
C654 H666 0.956 . S
C654 H667 0.961 . S
C654 H668 0.961 . S
C655 C652 1.539 . S
C655 H669 0.958 . S
C655 H670 0.961 . S
C655 H671 0.960 . S
H656 C640 0.931 . S
H657 C645 0.929 . S
H658 C646 0.960 . S
H659 C646 0.962 . S
H660 C646 0.960 . S
H661 C647 0.961 . S
H662 C647 0.961 . S
H663 C647 0.961 . S
H664 C648 0.931 . S
H665 C653 0.930 . S
H666 C654 0.956 . S
H667 C654 0.961 . S
H668 C654 0.961 . S
H669 C655 0.958 . S
H670 C655 0.961 . S
H671 C655 0.960 . S
C672 C673 1.391 . S
C672 C674 1.394 . S
C672 H688 0.931 . S
C673 C672 1.391 . S
C673 C677 1.376 . S
C674 C672 1.394 . S
C674 C675 1.369 . S
C674 C678 1.531 . S
C675 C674 1.369 . S
C675 C676 1.410 . S
C675 C683 1.503 . S
C676 C675 1.410 . S
C676 C677 1.392 . S
C676 C679 1.511 . S
C677 C673 1.376 . S
C677 C676 1.392 . S
C677 H689 0.929 . S
C678 C674 1.531 . S
C678 H690 0.960 . S
C678 H691 0.962 . S
C678 H692 0.960 . S
C679 C676 1.511 . S
C679 H693 0.961 . S
C679 H694 0.961 . S
C679 H695 0.961 . S
C680 C681 1.370 . S
C680 C682 1.363 . S
C680 H696 0.931 . S
C681 C680 1.370 . S
C681 C685 1.408 . S
C682 C680 1.363 . S
C682 C683 1.370 . S
C682 C686 1.524 . S
C683 C675 1.503 . S
C683 C682 1.370 . S
C683 C684 1.403 . S
C684 C683 1.403 . S
C684 C685 1.404 . S
C684 C687 1.539 . S
C685 C681 1.408 . S
C685 C684 1.404 . S
C685 H697 0.930 . S
C686 C682 1.524 . S
C686 H698 0.956 . S
C686 H699 0.961 . S
C686 H700 0.961 . S
C687 C684 1.539 . S
C687 H701 0.958 . S
C687 H702 0.961 . S
C687 H703 0.960 . S
H688 C672 0.931 . S
H689 C677 0.929 . S
H690 C678 0.960 . S
H691 C678 0.962 . S
H692 C678 0.960 . S
H693 C679 0.961 . S
H694 C679 0.961 . S
H695 C679 0.961 . S
H696 C680 0.931 . S
H697 C685 0.930 . S
H698 C686 0.956 . S
H699 C686 0.961 . S
H700 C686 0.961 . S
H701 C687 0.958 . S
H702 C687 0.961 . S
H703 C687 0.960 . S
C704 C705 1.391 . S
C704 C706 1.394 . S
C704 H720 0.931 . S
C705 C704 1.391 . S
C705 C709 1.376 . S
C706 C704 1.394 . S
C706 C707 1.369 . S
C706 C710 1.531 . S
C707 C706 1.369 . S
C707 C708 1.410 . S
C707 C715 1.503 . S
C708 C707 1.410 . S
C708 C709 1.392 . S
C708 C711 1.511 . S
C709 C705 1.376 . S
C709 C708 1.392 . S
C709 H721 0.929 . S
C710 C706 1.531 . S
C710 H722 0.960 . S
C710 H723 0.962 . S
C710 H724 0.960 . S
C711 C708 1.511 . S
C711 H725 0.961 . S
C711 H726 0.961 . S
C711 H727 0.961 . S
C712 C713 1.370 . S
C712 C714 1.363 . S
C712 H728 0.931 . S
C713 C712 1.370 . S
C713 C717 1.408 . S
C714 C712 1.363 . S
C714 C715 1.370 . S
C714 C718 1.524 . S
C715 C707 1.503 . S
C715 C714 1.370 . S
C715 C716 1.403 . S
C716 C715 1.403 . S
C716 C717 1.404 . S
C716 C719 1.539 . S
C717 C713 1.408 . S
C717 C716 1.404 . S
C717 H729 0.930 . S
C718 C714 1.524 . S
C718 H730 0.956 . S
C718 H731 0.961 . S
C718 H732 0.961 . S
C719 C716 1.539 . S
C719 H733 0.958 . S
C719 H734 0.961 . S
C719 H735 0.960 . S
H720 C704 0.931 . S
H721 C709 0.929 . S
H722 C710 0.960 . S
H723 C710 0.962 . S
H724 C710 0.960 . S
H725 C711 0.961 . S
H726 C711 0.961 . S
H727 C711 0.961 . S
H728 C712 0.931 . S
H729 C717 0.930 . S
H730 C718 0.956 . S
H731 C718 0.961 . S
H732 C718 0.961 . S
H733 C719 0.958 . S
H734 C719 0.961 . S
H735 C719 0.960 . S
C736 C737 1.391 . S
C736 C738 1.394 . S
C736 H752 0.931 . S
C737 C736 1.391 . S
C737 C741 1.376 . S
C738 C736 1.394 . S
C738 C739 1.369 . S
C738 C742 1.531 . S
C739 C738 1.369 . S
C739 C740 1.410 . S
C739 C747 1.503 . S
C740 C739 1.410 . S
C740 C741 1.392 . S
C740 C743 1.511 . S
C741 C737 1.376 . S
C741 C740 1.392 . S
C741 H753 0.929 . S
C742 C738 1.531 . S
C742 H754 0.960 . S
C742 H755 0.962 . S
C742 H756 0.960 . S
C743 C740 1.511 . S
C743 H757 0.961 . S
C743 H758 0.961 . S
C743 H759 0.961 . S
C744 C745 1.370 . S
C744 C746 1.363 . S
C744 H760 0.931 . S
C745 C744 1.370 . S
C745 C749 1.408 . S
C746 C744 1.363 . S
C746 C747 1.370 . S
C746 C750 1.524 . S
C747 C739 1.503 . S
C747 C746 1.370 . S
C747 C748 1.403 . S
C748 C747 1.403 . S
C748 C749 1.404 . S
C748 C751 1.539 . S
C749 C745 1.408 . S
C749 C748 1.404 . S
C749 H761 0.930 . S
C750 C746 1.524 . S
C750 H762 0.956 . S
C750 H763 0.961 . S
C750 H764 0.961 . S
C751 C748 1.539 . S
C751 H765 0.958 . S
C751 H766 0.961 . S
C751 H767 0.960 . S
H752 C736 0.931 . S
H753 C741 0.929 . S
H754 C742 0.960 . S
H755 C742 0.962 . S
H756 C742 0.960 . S
H757 C743 0.961 . S
H758 C743 0.961 . S
H759 C743 0.961 . S
H760 C744 0.931 . S
H761 C749 0.930 . S
H762 C750 0.956 . S
H763 C750 0.961 . S
H764 C750 0.961 . S
H765 C751 0.958 . S
H766 C751 0.961 . S
H767 C751 0.960 . S
C768 C769 1.391 . S
C768 C770 1.394 . S
C768 H784 0.931 . S
C769 C768 1.391 . S
C769 C773 1.376 . S
C770 C768 1.394 . S
C770 C771 1.369 . S
C770 C774 1.531 . S
C771 C770 1.369 . S
C771 C772 1.410 . S
C771 C779 1.503 . S
C772 C771 1.410 . S
C772 C773 1.392 . S
C772 C775 1.511 . S
C773 C769 1.376 . S
C773 C772 1.392 . S
C773 H785 0.929 . S
C774 C770 1.531 . S
C774 H786 0.960 . S
C774 H787 0.962 . S
C774 H788 0.960 . S
C775 C772 1.511 . S
C775 H789 0.961 . S
C775 H790 0.961 . S
C775 H791 0.961 . S
C776 C777 1.370 . S
C776 C778 1.363 . S
C776 H792 0.931 . S
C777 C776 1.370 . S
C777 C781 1.408 . S
C778 C776 1.363 . S
C778 C779 1.370 . S
C778 C782 1.524 . S
C779 C771 1.503 . S
C779 C778 1.370 . S
C779 C780 1.403 . S
C780 C779 1.403 . S
C780 C781 1.404 . S
C780 C783 1.539 . S
C781 C777 1.408 . S
C781 C780 1.404 . S
C781 H793 0.930 . S
C782 C778 1.524 . S
C782 H794 0.956 . S
C782 H795 0.961 . S
C782 H796 0.961 . S
C783 C780 1.539 . S
C783 H797 0.958 . S
C783 H798 0.961 . S
C783 H799 0.960 . S
H784 C768 0.931 . S
H785 C773 0.929 . S
H786 C774 0.960 . S
H787 C774 0.962 . S
H788 C774 0.960 . S
H789 C775 0.961 . S
H790 C775 0.961 . S
H791 C775 0.961 . S
H792 C776 0.931 . S
H793 C781 0.930 . S
H794 C782 0.956 . S
H795 C782 0.961 . S
H796 C782 0.961 . S
H797 C783 0.958 . S
H798 C783 0.961 . S
H799 C783 0.960 . S
C800 C801 1.391 . S
C800 C802 1.394 . S
C800 H816 0.931 . S
C801 C800 1.391 . S
C801 C805 1.376 . S
C802 C800 1.394 . S
C802 C803 1.369 . S
C802 C806 1.531 . S
C803 C802 1.369 . S
C803 C804 1.410 . S
C803 C811 1.503 . S
C804 C803 1.410 . S
C804 C805 1.392 . S
C804 C807 1.511 . S
C805 C801 1.376 . S
C805 C804 1.392 . S
C805 H817 0.929 . S
C806 C802 1.531 . S
C806 H818 0.960 . S
C806 H819 0.962 . S
C806 H820 0.960 . S
C807 C804 1.511 . S
C807 H821 0.961 . S
C807 H822 0.961 . S
C807 H823 0.961 . S
C808 C809 1.370 . S
C808 C810 1.363 . S
C808 H824 0.931 . S
C809 C808 1.370 . S
C809 C813 1.408 . S
C810 C808 1.363 . S
C810 C811 1.370 . S
C810 C814 1.524 . S
C811 C803 1.503 . S
C811 C810 1.370 . S
C811 C812 1.403 . S
C812 C811 1.403 . S
C812 C813 1.404 . S
C812 C815 1.539 . S
C813 C809 1.408 . S
C813 C812 1.404 . S
C813 H825 0.930 . S
C814 C810 1.524 . S
C814 H826 0.956 . S
C814 H827 0.961 . S
C814 H828 0.961 . S
C815 C812 1.539 . S
C815 H829 0.958 . S
C815 H830 0.961 . S
C815 H831 0.960 . S
H816 C800 0.931 . S
H817 C805 0.929 . S
H818 C806 0.960 . S
H819 C806 0.962 . S
H820 C806 0.960 . S
H821 C807 0.961 . S
H822 C807 0.961 . S
H823 C807 0.961 . S
H824 C808 0.931 . S
H825 C813 0.930 . S
H826 C814 0.956 . S
H827 C814 0.961 . S
H828 C814 0.961 . S
H829 C815 0.958 . S
H830 C815 0.961 . S
H831 C815 0.960 . S
C832 C833 1.391 . S
C832 C834 1.394 . S
C832 H848 0.931 . S
C833 C832 1.391 . S
C833 C837 1.376 . S
C834 C832 1.394 . S
C834 C835 1.369 . S
C834 C838 1.531 . S
C835 C834 1.369 . S
C835 C836 1.410 . S
C835 C843 1.503 . S
C836 C835 1.410 . S
C836 C837 1.392 . S
C836 C839 1.511 . S
C837 C833 1.376 . S
C837 C836 1.392 . S
C837 H849 0.929 . S
C838 C834 1.531 . S
C838 H850 0.960 . S
C838 H851 0.962 . S
C838 H852 0.960 . S
C839 C836 1.511 . S
C839 H853 0.961 . S
C839 H854 0.961 . S
C839 H855 0.961 . S
C840 C841 1.370 . S
C840 C842 1.363 . S
C840 H856 0.931 . S
C841 C840 1.370 . S
C841 C845 1.408 . S
C842 C840 1.363 . S
C842 C843 1.370 . S
C842 C846 1.524 . S
C843 C835 1.503 . S
C843 C842 1.370 . S
C843 C844 1.403 . S
C844 C843 1.403 . S
C844 C845 1.404 . S
C844 C847 1.539 . S
C845 C841 1.408 . S
C845 C844 1.404 . S
C845 H857 0.930 . S
C846 C842 1.524 . S
C846 H858 0.956 . S
C846 H859 0.961 . S
C846 H860 0.961 . S
C847 C844 1.539 . S
C847 H861 0.958 . S
C847 H862 0.961 . S
C847 H863 0.960 . S
H848 C832 0.931 . S
H849 C837 0.929 . S
H850 C838 0.960 . S
H851 C838 0.962 . S
H852 C838 0.960 . S
H853 C839 0.961 . S
H854 C839 0.961 . S
H855 C839 0.961 . S
H856 C840 0.931 . S
H857 C845 0.930 . S
H858 C846 0.956 . S
H859 C846 0.961 . S
H860 C846 0.961 . S
H861 C847 0.958 . S
H862 C847 0.961 . S
H863 C847 0.960 . S
C864 C865 1.391 . S
C864 C866 1.394 . S
C864 H880 0.931 . S
C865 C864 1.391 . S
C865 C869 1.376 . S
C866 C864 1.394 . S
C866 C867 1.369 . S
C866 C870 1.531 . S
C867 C866 1.369 . S
C867 C868 1.410 . S
C867 C875 1.503 . S
C868 C867 1.410 . S
C868 C869 1.392 . S
C868 C871 1.511 . S
C869 C865 1.376 . S
C869 C868 1.392 . S
C869 H881 0.929 . S
C870 C866 1.531 . S
C870 H882 0.960 . S
C870 H883 0.962 . S
C870 H884 0.960 . S
C871 C868 1.511 . S
C871 H885 0.961 . S
C871 H886 0.961 . S
C871 H887 0.961 . S
C872 C873 1.370 . S
C872 C874 1.363 . S
C872 H888 0.931 . S
C873 C872 1.370 . S
C873 C877 1.408 . S
C874 C872 1.363 . S
C874 C875 1.370 . S
C874 C878 1.524 . S
C875 C867 1.503 . S
C875 C874 1.370 . S
C875 C876 1.403 . S
C876 C875 1.403 . S
C876 C877 1.404 . S
C876 C879 1.539 . S
C877 C873 1.408 . S
C877 C876 1.404 . S
C877 H889 0.930 . S
C878 C874 1.524 . S
C878 H890 0.956 . S
C878 H891 0.961 . S
C878 H892 0.961 . S
C879 C876 1.539 . S
C879 H893 0.958 . S
C879 H894 0.961 . S
C879 H895 0.960 . S
H880 C864 0.931 . S
H881 C869 0.929 . S
H882 C870 0.960 . S
H883 C870 0.962 . S
H884 C870 0.960 . S
H885 C871 0.961 . S
H886 C871 0.961 . S
H887 C871 0.961 . S
H888 C872 0.931 . S
H889 C877 0.930 . S
H890 C878 0.956 . S
H891 C878 0.961 . S
H892 C878 0.961 . S
H893 C879 0.958 . S
H894 C879 0.961 . S
H895 C879 0.960 . S
C896 C897 1.391 . S
C896 C898 1.394 . S
C896 H912 0.931 . S
C897 C896 1.391 . S
C897 C901 1.376 . S
C898 C896 1.394 . S
C898 C899 1.369 . S
C898 C902 1.531 . S
C899 C898 1.369 . S
C899 C900 1.410 . S
C899 C907 1.503 . S
C900 C899 1.410 . S
C900 C901 1.392 . S
C900 C903 1.511 . S
C901 C897 1.376 . S
C901 C900 1.392 . S
C901 H913 0.929 . S
C902 C898 1.531 . S
C902 H914 0.960 . S
C902 H915 0.962 . S
C902 H916 0.960 . S
C903 C900 1.511 . S
C903 H917 0.961 . S
C903 H918 0.961 . S
C903 H919 0.961 . S
C904 C905 1.370 . S
C904 C906 1.363 . S
C904 H920 0.931 . S
C905 C904 1.370 . S
C905 C909 1.408 . S
C906 C904 1.363 . S
C906 C907 1.370 . S
C906 C910 1.524 . S
C907 C899 1.503 . S
C907 C906 1.370 . S
C907 C908 1.403 . S
C908 C907 1.403 . S
C908 C909 1.404 . S
C908 C911 1.539 . S
C909 C905 1.408 . S
C909 C908 1.404 . S
C909 H921 0.930 . S
C910 C906 1.524 . S
C910 H922 0.956 . S
C910 H923 0.961 . S
C910 H924 0.961 . S
C911 C908 1.539 . S
C911 H925 0.958 . S
C911 H926 0.961 . S
C911 H927 0.960 . S
H912 C896 0.931 . S
H913 C901 0.929 . S
H914 C902 0.960 . S
H915 C902 0.962 . S
H916 C902 0.960 . S
H917 C903 0.961 . S
H918 C903 0.961 . S
H919 C903 0.961 . S
H920 C904 0.931 . S
H921 C909 0.930 . S
H922 C910 0.956 . S
H923 C910 0.961 . S
H924 C910 0.961 . S
H925 C911 0.958 . S
H926 C911 0.961 . S
H927 C911 0.960 . S
C928 C929 1.391 . S
C928 C930 1.394 . S
C928 H944 0.931 . S
C929 C928 1.391 . S
C929 C933 1.376 . S
C930 C928 1.394 . S
C930 C931 1.369 . S
C930 C934 1.531 . S
C931 C930 1.369 . S
C931 C932 1.410 . S
C931 C939 1.503 . S
C932 C931 1.410 . S
C932 C933 1.392 . S
C932 C935 1.511 . S
C933 C929 1.376 . S
C933 C932 1.392 . S
C933 H945 0.929 . S
C934 C930 1.531 . S
C934 H946 0.960 . S
C934 H947 0.962 . S
C934 H948 0.960 . S
C935 C932 1.511 . S
C935 H949 0.961 . S
C935 H950 0.961 . S
C935 H951 0.961 . S
C936 C937 1.370 . S
C936 C938 1.363 . S
C936 H952 0.931 . S
C937 C936 1.370 . S
C937 C941 1.408 . S
C938 C936 1.363 . S
C938 C939 1.370 . S
C938 C942 1.524 . S
C939 C931 1.503 . S
C939 C938 1.370 . S
C939 C940 1.403 . S
C940 C939 1.403 . S
C940 C941 1.404 . S
C940 C943 1.539 . S
C941 C937 1.408 . S
C941 C940 1.404 . S
C941 H953 0.930 . S
C942 C938 1.524 . S
C942 H954 0.956 . S
C942 H955 0.961 . S
C942 H956 0.961 . S
C943 C940 1.539 . S
C943 H957 0.958 . S
C943 H958 0.961 . S
C943 H959 0.960 . S
H944 C928 0.931 . S
H945 C933 0.929 . S
H946 C934 0.960 . S
H947 C934 0.962 . S
H948 C934 0.960 . S
H949 C935 0.961 . S
H950 C935 0.961 . S
H951 C935 0.961 . S
H952 C936 0.931 . S
H953 C941 0.930 . S
H954 C942 0.956 . S
H955 C942 0.961 . S
H956 C942 0.961 . S
H957 C943 0.958 . S
H958 C943 0.961 . S
H959 C943 0.960 . S
C960 C961 1.391 . S
C960 C962 1.394 . S
C960 H976 0.931 . S
C961 C960 1.391 . S
C961 C965 1.376 . S
C962 C960 1.394 . S
C962 C963 1.369 . S
C962 C966 1.531 . S
C963 C962 1.369 . S
C963 C964 1.410 . S
C963 C971 1.503 . S
C964 C963 1.410 . S
C964 C965 1.392 . S
C964 C967 1.511 . S
C965 C961 1.376 . S
C965 C964 1.392 . S
C965 H977 0.929 . S
C966 C962 1.531 . S
C966 H978 0.960 . S
C966 H979 0.962 . S
C966 H980 0.960 . S
C967 C964 1.511 . S
C967 H981 0.961 . S
C967 H982 0.961 . S
C967 H983 0.961 . S
C968 C969 1.370 . S
C968 C970 1.363 . S
C968 H984 0.931 . S
C969 C968 1.370 . S
C969 C973 1.408 . S
C970 C968 1.363 . S
C970 C971 1.370 . S
C970 C974 1.524 . S
C971 C963 1.503 . S
C971 C970 1.370 . S
C971 C972 1.403 . S
C972 C971 1.403 . S
C972 C973 1.404 . S
C972 C975 1.539 . S
C973 C969 1.408 . S
C973 C972 1.404 . S
C973 H985 0.930 . S
C974 C970 1.524 . S
C974 H986 0.956 . S
C974 H987 0.961 . S
C974 H988 0.961 . S
C975 C972 1.539 . S
C975 H989 0.958 . S
C975 H990 0.961 . S
C975 H991 0.960 . S
H976 C960 0.931 . S
H977 C965 0.929 . S
H978 C966 0.960 . S
H979 C966 0.962 . S
H980 C966 0.960 . S
H981 C967 0.961 . S
H982 C967 0.961 . S
H983 C967 0.961 . S
H984 C968 0.931 . S
H985 C973 0.930 . S
H986 C974 0.956 . S
H987 C974 0.961 . S
H988 C974 0.961 . S
H989 C975 0.958 . S
H990 C975 0.961 . S
H991 C975 0.960 . S
C992 C993 1.391 . S
C992 C994 1.394 . S
C992 H1008 0.931 . S
C993 C992 1.391 . S
C993 C997 1.376 . S
C994 C992 1.394 . S
C994 C995 1.369 . S
C994 C998 1.531 . S
C995 C994 1.369 . S
C995 C996 1.410 . S
C995 C1003 1.503 . S
C996 C995 1.410 . S
C996 C997 1.392 . S
C996 C999 1.511 . S
C997 C993 1.376 . S
C997 C996 1.392 . S
C997 H1009 0.929 . S
C998 C994 1.531 . S
C998 H1010 0.960 . S
C998 H1011 0.962 . S
C998 H1012 0.960 . S
C999 C996 1.511 . S
C999 H1013 0.961 . S
C999 H1014 0.961 . S
C999 H1015 0.961 . S
C1000 C1001 1.370 . S
C1000 C1002 1.363 . S
C1000 H1016 0.931 . S
C1001 C1000 1.370 . S
C1001 C1005 1.408 . S
C1002 C1000 1.363 . S
C1002 C1003 1.370 . S
C1002 C1006 1.524 . S
C1003 C995 1.503 . S
C1003 C1002 1.370 . S
C1003 C1004 1.403 . S
C1004 C1003 1.403 . S
C1004 C1005 1.404 . S
C1004 C1007 1.539 . S
C1005 C1001 1.408 . S
C1005 C1004 1.404 . S
C1005 H1017 0.930 . S
C1006 C1002 1.524 . S
C1006 H1018 0.956 . S
C1006 H1019 0.961 . S
C1006 H1020 0.961 . S
C1007 C1004 1.539 . S
C1007 H1021 0.958 . S
C1007 H1022 0.961 . S
C1007 H1023 0.960 . S
H1008 C992 0.931 . S
H1009 C997 0.929 . S
H1010 C998 0.960 . S
H1011 C998 0.962 . S
H1012 C998 0.960 . S
H1013 C999 0.961 . S
H1014 C999 0.961 . S
H1015 C999 0.961 . S
H1016 C1000 0.931 . S
H1017 C1005 0.930 . S
H1018 C1006 0.956 . S
H1019 C1006 0.961 . S
H1020 C1006 0.961 . S
H1021 C1007 0.958 . S
H1022 C1007 0.961 . S
H1023 C1007 0.960 . S
C1024 C1025 1.391 . S
C1024 C1026 1.394 . S
C1024 H1040 0.931 . S
C1025 C1024 1.391 . S
C1025 C1029 1.376 . S
C1026 C1024 1.394 . S
C1026 C1027 1.369 . S
C1026 C1030 1.531 . S
C1027 C1026 1.369 . S
C1027 C1028 1.410 . S
C1027 C1035 1.503 . S
C1028 C1027 1.410 . S
C1028 C1029 1.392 . S
C1028 C1031 1.511 . S
C1029 C1025 1.376 . S
C1029 C1028 1.392 . S
C1029 H1041 0.929 . S
C1030 C1026 1.531 . S
C1030 H1042 0.960 . S
C1030 H1043 0.962 . S
C1030 H1044 0.960 . S
C1031 C1028 1.511 . S
C1031 H1045 0.961 . S
C1031 H1046 0.961 . S
C1031 H1047 0.961 . S
C1032 C1033 1.370 . S
C1032 C1034 1.363 . S
C1032 H1048 0.931 . S
C1033 C1032 1.370 . S
C1033 C1037 1.408 . S
C1034 C1032 1.363 . S
C1034 C1035 1.370 . S
C1034 C1038 1.524 . S
C1035 C1027 1.503 . S
C1035 C1034 1.370 . S
C1035 C1036 1.403 . S
C1036 C1035 1.403 . S
C1036 C1037 1.404 . S
C1036 C1039 1.539 . S
C1037 C1033 1.408 . S
C1037 C1036 1.404 . S
C1037 H1049 0.930 . S
C1038 C1034 1.524 . S
C1038 H1050 0.956 . S
C1038 H1051 0.961 . S
C1038 H1052 0.961 . S
C1039 C1036 1.539 . S
C1039 H1053 0.958 . S
C1039 H1054 0.961 . S
C1039 H1055 0.960 . S
H1040 C1024 0.931 . S
H1041 C1029 0.929 . S
H1042 C1030 0.960 . S
H1043 C1030 0.962 . S
H1044 C1030 0.960 . S
H1045 C1031 0.961 . S
H1046 C1031 0.961 . S
H1047 C1031 0.961 . S
H1048 C1032 0.931 . S
H1049 C1037 0.930 . S
H1050 C1038 0.956 . S
H1051 C1038 0.961 . S
H1052 C1038 0.961 . S
H1053 C1039 0.958 . S
H1054 C1039 0.961 . S
H1055 C1039 0.960 . S
C1056 C1057 1.391 . S
C1056 C1058 1.394 . S
C1056 H1072 0.931 . S
C1057 C1056 1.391 . S
C1057 C1061 1.376 . S
C1058 C1056 1.394 . S
C1058 C1059 1.369 . S
C1058 C1062 1.531 . S
C1059 C1058 1.369 . S
C1059 C1060 1.410 . S
C1059 C1067 1.503 . S
C1060 C1059 1.410 . S
C1060 C1061 1.392 . S
C1060 C1063 1.511 . S
C1061 C1057 1.376 . S
C1061 C1060 1.392 . S
C1061 H1073 0.929 . S
C1062 C1058 1.531 . S
C1062 H1074 0.960 . S
C1062 H1075 0.962 . S
C1062 H1076 0.960 . S
C1063 C1060 1.511 . S
C1063 H1077 0.961 . S
C1063 H1078 0.961 . S
C1063 H1079 0.961 . S
C1064 C1065 1.370 . S
C1064 C1066 1.363 . S
C1064 H1080 0.931 . S
C1065 C1064 1.370 . S
C1065 C1069 1.408 . S
C1066 C1064 1.363 . S
C1066 C1067 1.370 . S
C1066 C1070 1.524 . S
C1067 C1059 1.503 . S
C1067 C1066 1.370 . S
C1067 C1068 1.403 . S
C1068 C1067 1.403 . S
C1068 C1069 1.404 . S
C1068 C1071 1.539 . S
C1069 C1065 1.408 . S
C1069 C1068 1.404 . S
C1069 H1081 0.930 . S
C1070 C1066 1.524 . S
C1070 H1082 0.956 . S
C1070 H1083 0.961 . S
C1070 H1084 0.961 . S
C1071 C1068 1.539 . S
C1071 H1085 0.958 . S
C1071 H1086 0.961 . S
C1071 H1087 0.960 . S
H1072 C1056 0.931 . S
H1073 C1061 0.929 . S
H1074 C1062 0.960 . S
H1075 C1062 0.962 . S
H1076 C1062 0.960 . S
H1077 C1063 0.961 . S
H1078 C1063 0.961 . S
H1079 C1063 0.961 . S
H1080 C1064 0.931 . S
H1081 C1069 0.930 . S
H1082 C1070 0.956 . S
H1083 C1070 0.961 . S
H1084 C1070 0.961 . S
H1085 C1071 0.958 . S
H1086 C1071 0.961 . S
H1087 C1071 0.960 . S
C1088 C1089 1.391 . S
C1088 C1090 1.394 . S
C1088 H1104 0.931 . S
C1089 C1088 1.391 . S
C1089 C1093 1.376 . S
C1090 C1088 1.394 . S
C1090 C1091 1.369 . S
C1090 C1094 1.531 . S
C1091 C1090 1.369 . S
C1091 C1092 1.410 . S
C1091 C1099 1.503 . S
C1092 C1091 1.410 . S
C1092 C1093 1.392 . S
C1092 C1095 1.511 . S
C1093 C1089 1.376 . S
C1093 C1092 1.392 . S
C1093 H1105 0.929 . S
C1094 C1090 1.531 . S
C1094 H1106 0.960 . S
C1094 H1107 0.962 . S
C1094 H1108 0.960 . S
C1095 C1092 1.511 . S
C1095 H1109 0.961 . S
C1095 H1110 0.961 . S
C1095 H1111 0.961 . S
C1096 C1097 1.370 . S
C1096 C1098 1.363 . S
C1096 H1112 0.931 . S
C1097 C1096 1.370 . S
C1097 C1101 1.408 . S
C1098 C1096 1.363 . S
C1098 C1099 1.370 . S
C1098 C1102 1.524 . S
C1099 C1091 1.503 . S
C1099 C1098 1.370 . S
C1099 C1100 1.403 . S
C1100 C1099 1.403 . S
C1100 C1101 1.404 . S
C1100 C1103 1.539 . S
C1101 C1097 1.408 . S
C1101 C1100 1.404 . S
C1101 H1113 0.930 . S
C1102 C1098 1.524 . S
C1102 H1114 0.956 . S
C1102 H1115 0.961 . S
C1102 H1116 0.961 . S
C1103 C1100 1.539 . S
C1103 H1117 0.958 . S
C1103 H1118 0.961 . S
C1103 H1119 0.960 . S
H1104 C1088 0.931 . S
H1105 C1093 0.929 . S
H1106 C1094 0.960 . S
H1107 C1094 0.962 . S
H1108 C1094 0.960 . S
H1109 C1095 0.961 . S
H1110 C1095 0.961 . S
H1111 C1095 0.961 . S
H1112 C1096 0.931 . S
H1113 C1101 0.930 . S
H1114 C1102 0.956 . S
H1115 C1102 0.961 . S
H1116 C1102 0.961 . S
H1117 C1103 0.958 . S
H1118 C1103 0.961 . S
H1119 C1103 0.960 . S
C1120 C1121 1.391 . S
C1120 C1122 1.394 . S
C1120 H1136 0.931 . S
C1121 C1120 1.391 . S
C1121 C1125 1.376 . S
C1122 C1120 1.394 . S
C1122 C1123 1.369 . S
C1122 C1126 1.531 . S
C1123 C1122 1.369 . S
C1123 C1124 1.410 . S
C1123 C1131 1.503 . S
C1124 C1123 1.410 . S
C1124 C1125 1.392 . S
C1124 C1127 1.511 . S
C1125 C1121 1.376 . S
C1125 C1124 1.392 . S
C1125 H1137 0.929 . S
C1126 C1122 1.531 . S
C1126 H1138 0.960 . S
C1126 H1139 0.962 . S
C1126 H1140 0.960 . S
C1127 C1124 1.511 . S
C1127 H1141 0.961 . S
C1127 H1142 0.961 . S
C1127 H1143 0.961 . S
C1128 C1129 1.370 . S
C1128 C1130 1.363 . S
C1128 H1144 0.931 . S
C1129 C1128 1.370 . S
C1129 C1133 1.408 . S
C1130 C1128 1.363 . S
C1130 C1131 1.370 . S
C1130 C1134 1.524 . S
C1131 C1123 1.503 . S
C1131 C1130 1.370 . S
C1131 C1132 1.403 . S
C1132 C1131 1.403 . S
C1132 C1133 1.404 . S
C1132 C1135 1.539 . S
C1133 C1129 1.408 . S
C1133 C1132 1.404 . S
C1133 H1145 0.930 . S
C1134 C1130 1.524 . S
C1134 H1146 0.956 . S
C1134 H1147 0.961 . S
C1134 H1148 0.961 . S
C1135 C1132 1.539 . S
C1135 H1149 0.958 . S
C1135 H1150 0.961 . S
C1135 H1151 0.960 . S
H1136 C1120 0.931 . S
H1137 C1125 0.929 . S
H1138 C1126 0.960 . S
H1139 C1126 0.962 . S
H1140 C1126 0.960 . S
H1141 C1127 0.961 . S
H1142 C1127 0.961 . S
H1143 C1127 0.961 . S
H1144 C1128 0.931 . S
H1145 C1133 0.930 . S
H1146 C1134 0.956 . S
H1147 C1134 0.961 . S
H1148 C1134 0.961 . S
H1149 C1135 0.958 . S
H1150 C1135 0.961 . S
H1151 C1135 0.960 . S
C1152 C1153 1.391 . S
C1152 C1154 1.394 . S
C1152 H1168 0.931 . S
C1153 C1152 1.391 . S
C1153 C1157 1.376 . S
C1154 C1152 1.394 . S
C1154 C1155 1.369 . S
C1154 C1158 1.531 . S
C1155 C1154 1.369 . S
C1155 C1156 1.410 . S
C1155 C1163 1.503 . S
C1156 C1155 1.410 . S
C1156 C1157 1.392 . S
C1156 C1159 1.511 . S
C1157 C1153 1.376 . S
C1157 C1156 1.392 . S
C1157 H1169 0.929 . S
C1158 C1154 1.531 . S
C1158 H1170 0.960 . S
C1158 H1171 0.962 . S
C1158 H1172 0.960 . S
C1159 C1156 1.511 . S
C1159 H1173 0.961 . S
C1159 H1174 0.961 . S
C1159 H1175 0.961 . S
C1160 C1161 1.370 . S
C1160 C1162 1.363 . S
C1160 H1176 0.931 . S
C1161 C1160 1.370 . S
C1161 C1165 1.408 . S
C1162 C1160 1.363 . S
C1162 C1163 1.370 . S
C1162 C1166 1.524 . S
C1163 C1155 1.503 . S
C1163 C1162 1.370 . S
C1163 C1164 1.403 . S
C1164 C1163 1.403 . S
C1164 C1165 1.404 . S
C1164 C1167 1.539 . S
C1165 C1161 1.408 . S
C1165 C1164 1.404 . S
C1165 H1177 0.930 . S
C1166 C1162 1.524 . S
C1166 H1178 0.956 . S
C1166 H1179 0.961 . S
C1166 H1180 0.961 . S
C1167 C1164 1.539 . S
C1167 H1181 0.958 . S
C1167 H1182 0.961 . S
C1167 H1183 0.960 . S
H1168 C1152 0.931 . S
H1169 C1157 0.929 . S
H1170 C1158 0.960 . S
H1171 C1158 0.962 . S
H1172 C1158 0.960 . S
H1173 C1159 0.961 . S
H1174 C1159 0.961 . S
H1175 C1159 0.961 . S
H1176 C1160 0.931 . S
H1177 C1165 0.930 . S
H1178 C1166 0.956 . S
H1179 C1166 0.961 . S
H1180 C1166 0.961 . S
H1181 C1167 0.958 . S
H1182 C1167 0.961 . S
H1183 C1167 0.960 . S
C1184 C1185 1.391 . S
C1184 C1186 1.394 . S
C1184 H1200 0.931 . S
C1185 C1184 1.391 . S
C1185 C1189 1.376 . S
C1186 C1184 1.394 . S
C1186 C1187 1.369 . S
C1186 C1190 1.531 . S
C1187 C1186 1.369 . S
C1187 C1188 1.410 . S
C1187 C1195 1.503 . S
C1188 C1187 1.410 . S
C1188 C1189 1.392 . S
C1188 C1191 1.511 . S
C1189 C1185 1.376 . S
C1189 C1188 1.392 . S
C1189 H1201 0.929 . S
C1190 C1186 1.531 . S
C1190 H1202 0.960 . S
C1190 H1203 0.962 . S
C1190 H1204 0.960 . S
C1191 C1188 1.511 . S
C1191 H1205 0.961 . S
C1191 H1206 0.961 . S
C1191 H1207 0.961 . S
C1192 C1193 1.370 . S
C1192 C1194 1.363 . S
C1192 H1208 0.931 . S
C1193 C1192 1.370 . S
C1193 C1197 1.408 . S
C1194 C1192 1.363 . S
C1194 C1195 1.370 . S
C1194 C1198 1.524 . S
C1195 C1187 1.503 . S
C1195 C1194 1.370 . S
C1195 C1196 1.403 . S
C1196 C1195 1.403 . S
C1196 C1197 1.404 . S
C1196 C1199 1.539 . S
C1197 C1193 1.408 . S
C1197 C1196 1.404 . S
C1197 H1209 0.930 . S
C1198 C1194 1.524 . S
C1198 H1210 0.956 . S
C1198 H1211 0.961 . S
C1198 H1212 0.961 . S
C1199 C1196 1.539 . S
C1199 H1213 0.958 . S
C1199 H1214 0.961 . S
C1199 H1215 0.960 . S
H1200 C1184 0.931 . S
H1201 C1189 0.929 . S
H1202 C1190 0.960 . S
H1203 C1190 0.962 . S
H1204 C1190 0.960 . S
H1205 C1191 0.961 . S
H1206 C1191 0.961 . S
H1207 C1191 0.961 . S
H1208 C1192 0.931 . S
H1209 C1197 0.930 . S
H1210 C1198 0.956 . S
H1211 C1198 0.961 . S
H1212 C1198 0.961 . S
H1213 C1199 0.958 . S
H1214 C1199 0.961 . S
H1215 C1199 0.960 . S
C1216 C1217 1.391 . S
C1216 C1218 1.394 . S
C1216 H1232 0.931 . S
C1217 C1216 1.391 . S
C1217 C1221 1.376 . S
C1218 C1216 1.394 . S
C1218 C1219 1.369 . S
C1218 C1222 1.531 . S
C1219 C1218 1.369 . S
C1219 C1220 1.410 . S
C1219 C1227 1.503 . S
C1220 C1219 1.410 . S
C1220 C1221 1.392 . S
C1220 C1223 1.511 . S
C1221 C1217 1.376 . S
C1221 C1220 1.392 . S
C1221 H1233 0.929 . S
C1222 C1218 1.531 . S
C1222 H1234 0.960 . S
C1222 H1235 0.962 . S
C1222 H1236 0.960 . S
C1223 C1220 1.511 . S
C1223 H1237 0.961 . S
C1223 H1238 0.961 . S
C1223 H1239 0.961 . S
C1224 C1225 1.370 . S
C1224 C1226 1.363 . S
C1224 H1240 0.931 . S
C1225 C1224 1.370 . S
C1225 C1229 1.408 . S
C1226 C1224 1.363 . S
C1226 C1227 1.370 . S
C1226 C1230 1.524 . S
C1227 C1219 1.503 . S
C1227 C1226 1.370 . S
C1227 C1228 1.403 . S
C1228 C1227 1.403 . S
C1228 C1229 1.404 . S
C1228 C1231 1.539 . S
C1229 C1225 1.408 . S
C1229 C1228 1.404 . S
C1229 H1241 0.930 . S
C1230 C1226 1.524 . S
C1230 H1242 0.956 . S
C1230 H1243 0.961 . S
C1230 H1244 0.961 . S
C1231 C1228 1.539 . S
C1231 H1245 0.958 . S
C1231 H1246 0.961 . S
C1231 H1247 0.960 . S
H1232 C1216 0.931 . S
H1233 C1221 0.929 . S
H1234 C1222 0.960 . S
H1235 C1222 0.962 . S
H1236 C1222 0.960 . S
H1237 C1223 0.961 . S
H1238 C1223 0.961 . S
H1239 C1223 0.961 . S
H1240 C1224 0.931 . S
H1241 C1229 0.930 . S
H1242 C1230 0.956 . S
H1243 C1230 0.961 . S
H1244 C1230 0.961 . S
H1245 C1231 0.958 . S
H1246 C1231 0.961 . S
H1247 C1231 0.960 . S
C1248 C1249 1.391 . S
C1248 C1250 1.394 . S
C1248 H1264 0.931 . S
C1249 C1248 1.391 . S
C1249 C1253 1.376 . S
C1250 C1248 1.394 . S
C1250 C1251 1.369 . S
C1250 C1254 1.531 . S
C1251 C1250 1.369 . S
C1251 C1252 1.410 . S
C1251 C1259 1.503 . S
C1252 C1251 1.410 . S
C1252 C1253 1.392 . S
C1252 C1255 1.511 . S
C1253 C1249 1.376 . S
C1253 C1252 1.392 . S
C1253 H1265 0.929 . S
C1254 C1250 1.531 . S
C1254 H1266 0.960 . S
C1254 H1267 0.962 . S
C1254 H1268 0.960 . S
C1255 C1252 1.511 . S
C1255 H1269 0.961 . S
C1255 H1270 0.961 . S
C1255 H1271 0.961 . S
C1256 C1257 1.370 . S
C1256 C1258 1.363 . S
C1256 H1272 0.931 . S
C1257 C1256 1.370 . S
C1257 C1261 1.408 . S
C1258 C1256 1.363 . S
C1258 C1259 1.370 . S
C1258 C1262 1.524 . S
C1259 C1251 1.503 . S
C1259 C1258 1.370 . S
C1259 C1260 1.403 . S
C1260 C1259 1.403 . S
C1260 C1261 1.404 . S
C1260 C1263 1.539 . S
C1261 C1257 1.408 . S
C1261 C1260 1.404 . S
C1261 H1273 0.930 . S
C1262 C1258 1.524 . S
C1262 H1274 0.956 . S
C1262 H1275 0.961 . S
C1262 H1276 0.961 . S
C1263 C1260 1.539 . S
C1263 H1277 0.958 . S
C1263 H1278 0.961 . S
C1263 H1279 0.960 . S
H1264 C1248 0.931 . S
H1265 C1253 0.929 . S
H1266 C1254 0.960 . S
H1267 C1254 0.962 . S
H1268 C1254 0.960 . S
H1269 C1255 0.961 . S
H1270 C1255 0.961 . S
H1271 C1255 0.961 . S
H1272 C1256 0.931 . S
H1273 C1261 0.930 . S
H1274 C1262 0.956 . S
H1275 C1262 0.961 . S
H1276 C1262 0.961 . S
H1277 C1263 0.958 . S
H1278 C1263 0.961 . S
H1279 C1263 0.960 . S
C1280 C1281 1.391 . S
C1280 C1282 1.394 . S
C1280 H1296 0.931 . S
C1281 C1280 1.391 . S
C1281 C1285 1.376 . S
C1282 C1280 1.394 . S
C1282 C1283 1.369 . S
C1282 C1286 1.531 . S
C1283 C1282 1.369 . S
C1283 C1284 1.410 . S
C1283 C1291 1.503 . S
C1284 C1283 1.410 . S
C1284 C1285 1.392 . S
C1284 C1287 1.511 . S
C1285 C1281 1.376 . S
C1285 C1284 1.392 . S
C1285 H1297 0.929 . S
C1286 C1282 1.531 . S
C1286 H1298 0.960 . S
C1286 H1299 0.962 . S
C1286 H1300 0.960 . S
C1287 C1284 1.511 . S
C1287 H1301 0.961 . S
C1287 H1302 0.961 . S
C1287 H1303 0.961 . S
C1288 C1289 1.370 . S
C1288 C1290 1.363 . S
C1288 H1304 0.931 . S
C1289 C1288 1.370 . S
C1289 C1293 1.408 . S
C1290 C1288 1.363 . S
C1290 C1291 1.370 . S
C1290 C1294 1.524 . S
C1291 C1283 1.503 . S
C1291 C1290 1.370 . S
C1291 C1292 1.403 . S
C1292 C1291 1.403 . S
C1292 C1293 1.404 . S
C1292 C1295 1.539 . S
C1293 C1289 1.408 . S
C1293 C1292 1.404 . S
C1293 H1305 0.930 . S
C1294 C1290 1.524 . S
C1294 H1306 0.956 . S
C1294 H1307 0.961 . S
C1294 H1308 0.961 . S
C1295 C1292 1.539 . S
C1295 H1309 0.958 . S
C1295 H1310 0.961 . S
C1295 H1311 0.960 . S
H1296 C1280 0.931 . S
H1297 C1285 0.929 . S
H1298 C1286 0.960 . S
H1299 C1286 0.962 . S
H1300 C1286 0.960 . S
H1301 C1287 0.961 . S
H1302 C1287 0.961 . S
H1303 C1287 0.961 . S
H1304 C1288 0.931 . S
H1305 C1293 0.930 . S
H1306 C1294 0.956 . S
H1307 C1294 0.961 . S
H1308 C1294 0.961 . S
H1309 C1295 0.958 . S
H1310 C1295 0.961 . S
H1311 C1295 0.960 . S
C1312 C1313 1.391 . S
C1312 C1314 1.394 . S
C1312 H1328 0.931 . S
C1313 C1312 1.391 . S
C1313 C1317 1.376 . S
C1314 C1312 1.394 . S
C1314 C1315 1.369 . S
C1314 C1318 1.531 . S
C1315 C1314 1.369 . S
C1315 C1316 1.410 . S
C1315 C1323 1.503 . S
C1316 C1315 1.410 . S
C1316 C1317 1.392 . S
C1316 C1319 1.511 . S
C1317 C1313 1.376 . S
C1317 C1316 1.392 . S
C1317 H1329 0.929 . S
C1318 C1314 1.531 . S
C1318 H1330 0.960 . S
C1318 H1331 0.962 . S
C1318 H1332 0.960 . S
C1319 C1316 1.511 . S
C1319 H1333 0.961 . S
C1319 H1334 0.961 . S
C1319 H1335 0.961 . S
C1320 C1321 1.370 . S
C1320 C1322 1.363 . S
C1320 H1336 0.931 . S
C1321 C1320 1.370 . S
C1321 C1325 1.408 . S
C1322 C1320 1.363 . S
C1322 C1323 1.370 . S
C1322 C1326 1.524 . S
C1323 C1315 1.503 . S
C1323 C1322 1.370 . S
C1323 C1324 1.403 . S
C1324 C1323 1.403 . S
C1324 C1325 1.404 . S
C1324 C1327 1.539 . S
C1325 C1321 1.408 . S
C1325 C1324 1.404 . S
C1325 H1337 0.930 . S
C1326 C1322 1.524 . S
C1326 H1338 0.956 . S
C1326 H1339 0.961 . S
C1326 H1340 0.961 . S
C1327 C1324 1.539 . S
C1327 H1341 0.958 . S
C1327 H1342 0.961 . S
C1327 H1343 0.960 . S
H1328 C1312 0.931 . S
H1329 C1317 0.929 . S
H1330 C1318 0.960 . S
H1331 C1318 0.962 . S
H1332 C1318 0.960 . S
H1333 C1319 0.961 . S
H1334 C1319 0.961 . S
H1335 C1319 0.961 . S
H1336 C1320 0.931 . S
H1337 C1325 0.930 . S
H1338 C1326 0.956 . S
H1339 C1326 0.961 . S
H1340 C1326 0.961 . S
H1341 C1327 0.958 . S
H1342 C1327 0.961 . S
H1343 C1327 0.960 . S
C1344 C1345 1.391 . S
C1344 C1346 1.394 . S
C1344 H1360 0.931 . S
C1345 C1344 1.391 . S
C1345 C1349 1.376 1_455 S
C1346 C1344 1.394 . S
C1346 C1347 1.369 1_455 S
C1346 C1350 1.531 . S
C1347 C1346 1.369 1_655 S
C1347 C1348 1.410 . S
C1347 C1355 1.503 . S
C1348 C1347 1.410 . S
C1348 C1349 1.392 . S
C1348 C1351 1.511 . S
C1349 C1345 1.376 1_655 S
C1349 C1348 1.392 . S
C1349 H1361 0.929 . S
C1350 C1346 1.531 . S
C1350 H1362 0.960 . S
C1350 H1363 0.962 . S
C1350 H1364 0.960 . S
C1351 C1348 1.511 . S
C1351 H1365 0.961 . S
C1351 H1366 0.961 . S
C1351 H1367 0.961 . S
C1352 C1353 1.370 1_455 S
C1352 C1354 1.363 . S
C1352 H1368 0.931 . S
C1353 C1352 1.370 1_655 S
C1353 C1357 1.408 . S
C1354 C1352 1.363 . S
C1354 C1355 1.370 1_455 S
C1354 C1358 1.524 . S
C1355 C1347 1.503 . S
C1355 C1354 1.370 1_655 S
C1355 C1356 1.403 . S
C1356 C1355 1.403 . S
C1356 C1357 1.404 . S
C1356 C1359 1.539 . S
C1357 C1353 1.408 . S
C1357 C1356 1.404 . S
C1357 H1369 0.930 . S
C1358 C1354 1.524 . S
C1358 H1370 0.956 . S
C1358 H1371 0.961 . S
C1358 H1372 0.961 . S
C1359 C1356 1.539 . S
C1359 H1373 0.958 . S
C1359 H1374 0.961 . S
C1359 H1375 0.960 . S
H1360 C1344 0.931 . S
H1361 C1349 0.929 . S
H1362 C1350 0.960 . S
H1363 C1350 0.962 . S
H1364 C1350 0.960 . S
H1365 C1351 0.961 . S
H1366 C1351 0.961 . S
H1367 C1351 0.961 . S
H1368 C1352 0.931 . S
H1369 C1357 0.930 . S
H1370 C1358 0.956 . S
H1371 C1358 0.961 . S
H1372 C1358 0.961 . S
H1373 C1359 0.958 . S
H1374 C1359 0.961 . S
H1375 C1359 0.960 . S
C1376 C1377 1.391 1_545 S
C1376 C1378 1.394 . S
C1376 H1392 0.931 . S
C1377 C1376 1.391 1_565 S
C1377 C1381 1.376 . S
C1378 C1376 1.394 . S
C1378 C1379 1.369 . S
C1378 C1382 1.531 . S
C1379 C1378 1.369 . S
C1379 C1380 1.410 1_545 S
C1379 C1387 1.503 . S
C1380 C1379 1.410 1_565 S
C1380 C1381 1.392 . S
C1380 C1383 1.511 . S
C1381 C1377 1.376 . S
C1381 C1380 1.392 . S
C1381 H1393 0.929 . S
C1382 C1378 1.531 . S
C1382 H1394 0.960 . S
C1382 H1395 0.962 . S
C1382 H1396 0.960 . S
C1383 C1380 1.511 . S
C1383 H1397 0.961 . S
C1383 H1398 0.961 . S
C1383 H1399 0.961 . S
C1384 C1385 1.370 1_565 S
C1384 C1386 1.363 . S
C1384 H1400 0.931 . S
C1385 C1384 1.370 1_545 S
C1385 C1389 1.408 . S
C1386 C1384 1.363 . S
C1386 C1387 1.370 1_565 S
C1386 C1390 1.524 . S
C1387 C1379 1.503 . S
C1387 C1386 1.370 1_545 S
C1387 C1388 1.403 . S
C1388 C1387 1.403 . S
C1388 C1389 1.404 . S
C1388 C1391 1.539 . S
C1389 C1385 1.408 . S
C1389 C1388 1.404 . S
C1389 H1401 0.930 . S
C1390 C1386 1.524 . S
C1390 H1402 0.956 . S
C1390 H1403 0.961 . S
C1390 H1404 0.961 . S
C1391 C1388 1.539 . S
C1391 H1405 0.958 . S
C1391 H1406 0.961 . S
C1391 H1407 0.960 . S
H1392 C1376 0.931 . S
H1393 C1381 0.929 . S
H1394 C1382 0.960 . S
H1395 C1382 0.962 . S
H1396 C1382 0.960 . S
H1397 C1383 0.961 . S
H1398 C1383 0.961 . S
H1399 C1383 0.961 . S
H1400 C1384 0.931 . S
H1401 C1389 0.930 . S
H1402 C1390 0.956 . S
H1403 C1390 0.961 . S
H1404 C1390 0.961 . S
H1405 C1391 0.958 . S
H1406 C1391 0.961 . S
H1407 C1391 0.960 . S
C1408 C1409 1.391 . S
C1408 C1410 1.394 . S
C1408 H1424 0.931 . S
C1409 C1408 1.391 . S
C1409 C1413 1.376 1_455 S
C1410 C1408 1.394 . S
C1410 C1411 1.376 . S
C1410 C1414 1.531 . S
C1411 C1410 1.376 . S
C1411 C1412 1.404 1_455 S
C1411 C1419 1.502 1_455 S
C1412 C1411 1.404 1_655 S
C1412 C1413 1.392 . S
C1412 C1415 1.511 . S
C1413 C1409 1.376 1_655 S
C1413 C1412 1.392 . S
C1413 H1425 0.929 . S
C1414 C1410 1.531 . S
C1414 H1426 0.960 . S
C1414 H1427 0.962 . S
C1414 H1428 0.960 . S
C1415 C1412 1.511 . S
C1415 H1429 0.961 . S
C1415 H1430 0.961 . S
C1415 H1431 0.961 . S
C1416 C1417 1.366 1_455 S
C1416 C1418 1.365 . S
C1416 H1432 0.934 . S
C1417 C1416 1.366 1_655 S
C1417 C1421 1.408 . S
C1418 C1416 1.365 . S
C1418 C1419 1.370 1_455 S
C1418 C1422 1.524 . S
C1419 C1411 1.502 1_655 S
C1419 C1418 1.370 1_655 S
C1419 C1420 1.403 . S
C1420 C1419 1.403 . S
C1420 C1421 1.404 . S
C1420 C1423 1.539 . S
C1421 C1417 1.408 . S
C1421 C1420 1.404 . S
C1421 H1433 0.930 . S
C1422 C1418 1.524 . S
C1422 H1434 0.956 . S
C1422 H1435 0.961 . S
C1422 H1436 0.961 . S
C1423 C1420 1.539 . S
C1423 H1437 0.958 . S
C1423 H1438 0.961 . S
C1423 H1439 0.960 . S
H1424 C1408 0.931 . S
H1425 C1413 0.929 . S
H1426 C1414 0.960 . S
H1427 C1414 0.962 . S
H1428 C1414 0.960 . S
H1429 C1415 0.961 . S
H1430 C1415 0.961 . S
H1431 C1415 0.961 . S
H1432 C1416 0.934 . S
H1433 C1421 0.930 . S
H1434 C1422 0.956 . S
H1435 C1422 0.961 . S
H1436 C1422 0.961 . S
H1437 C1423 0.958 . S
H1438 C1423 0.961 . S
H1439 C1423 0.960 . S
C1440 C1441 1.391 1_565 S
C1440 C1442 1.394 . S
C1440 H1456 0.931 . S
C1441 C1440 1.391 1_545 S
C1441 C1445 1.376 . S
C1442 C1440 1.394 . S
C1442 C1443 1.369 . S
C1442 C1446 1.531 . S
C1443 C1442 1.369 . S
C1443 C1444 1.410 1_565 S
C1443 C1451 1.503 . S
C1444 C1443 1.410 1_545 S
C1444 C1445 1.392 . S
C1444 C1447 1.511 . S
C1445 C1441 1.376 . S
C1445 C1444 1.392 . S
C1445 H1457 0.929 . S
C1446 C1442 1.531 . S
C1446 H1458 0.960 . S
C1446 H1459 0.962 . S
C1446 H1460 0.960 . S
C1447 C1444 1.511 . S
C1447 H1461 0.961 . S
C1447 H1462 0.961 . S
C1447 H1463 0.961 1_545 S
C1448 C1449 1.370 1_545 S
C1448 C1450 1.363 . S
C1448 H1464 0.931 . S
C1449 C1448 1.370 1_565 S
C1449 C1453 1.408 . S
C1450 C1448 1.363 . S
C1450 C1451 1.370 1_545 S
C1450 C1454 1.524 . S
C1451 C1443 1.503 . S
C1451 C1450 1.370 1_565 S
C1451 C1452 1.403 . S
C1452 C1451 1.403 . S
C1452 C1453 1.404 . S
C1452 C1455 1.539 . S
C1453 C1449 1.408 . S
C1453 C1452 1.404 . S
C1453 H1465 0.930 . S
C1454 C1450 1.524 . S
C1454 H1466 0.956 . S
C1454 H1467 0.961 . S
C1454 H1468 0.961 . S
C1455 C1452 1.539 . S
C1455 H1469 0.958 . S
C1455 H1470 0.961 . S
C1455 H1471 0.960 . S
H1456 C1440 0.931 . S
H1457 C1445 0.929 . S
H1458 C1446 0.960 . S
H1459 C1446 0.962 . S
H1460 C1446 0.960 . S
H1461 C1447 0.961 . S
H1462 C1447 0.961 . S
H1463 C1447 0.961 1_565 S
H1464 C1448 0.931 . S
H1465 C1453 0.930 . S
H1466 C1454 0.956 . S
H1467 C1454 0.961 . S
H1468 C1454 0.961 . S
H1469 C1455 0.958 . S
H1470 C1455 0.961 . S
H1471 C1455 0.960 . S
C1472 C1473 1.391 . S
C1472 C1474 1.394 . S
C1472 H1488 0.931 . S
C1473 C1472 1.391 . S
C1473 C1477 1.376 . S
C1474 C1472 1.394 . S
C1474 C1475 1.369 . S
C1474 C1478 1.531 . S
C1475 C1474 1.369 . S
C1475 C1476 1.410 . S
C1475 C1483 1.503 1_556 S
C1476 C1475 1.410 . S
C1476 C1477 1.392 . S
C1476 C1479 1.511 . S
C1477 C1473 1.376 . S
C1477 C1476 1.392 . S
C1477 H1489 0.929 . S
C1478 C1474 1.531 . S
C1478 H1490 0.960 . S
C1478 H1491 0.962 . S
C1478 H1492 0.960 . S
C1479 C1476 1.511 . S
C1479 H1493 0.961 . S
C1479 H1494 0.961 1_556 S
C1479 H1495 0.961 . S
C1480 C1481 1.370 . S
C1480 C1482 1.363 . S
C1480 H1496 0.931 . S
C1481 C1480 1.370 . S
C1481 C1485 1.408 . S
C1482 C1480 1.363 . S
C1482 C1483 1.370 . S
C1482 C1486 1.524 . S
C1483 C1475 1.503 1_554 S
C1483 C1482 1.370 . S
C1483 C1484 1.403 . S
C1484 C1483 1.403 . S
C1484 C1485 1.404 . S
C1484 C1487 1.539 . S
C1485 C1481 1.408 . S
C1485 C1484 1.404 . S
C1485 H1497 0.930 . S
C1486 C1482 1.524 . S
C1486 H1498 0.956 1_554 S
C1486 H1499 0.961 1_554 S
C1486 H1500 0.961 . S
C1487 C1484 1.539 . S
C1487 H1501 0.958 . S
C1487 H1502 0.961 . S
C1487 H1503 0.960 . S
H1488 C1472 0.931 . S
H1489 C1477 0.929 . S
H1490 C1478 0.960 . S
H1491 C1478 0.962 . S
H1492 C1478 0.960 . S
H1493 C1479 0.961 . S
H1494 C1479 0.961 1_554 S
H1495 C1479 0.961 . S
H1496 C1480 0.931 . S
H1497 C1485 0.930 . S
H1498 C1486 0.956 1_556 S
H1499 C1486 0.961 1_556 S
H1500 C1486 0.961 . S
H1501 C1487 0.958 . S
H1502 C1487 0.961 . S
H1503 C1487 0.960 . S
C1504 C1505 1.391 . S
C1504 C1506 1.394 . S
C1504 H1520 0.931 . S
C1505 C1504 1.391 . S
C1505 C1509 1.376 . S
C1506 C1504 1.394 . S
C1506 C1507 1.369 . S
C1506 C1510 1.531 . S
C1507 C1506 1.369 . S
C1507 C1508 1.410 . S
C1507 C1515 1.503 1_556 S
C1508 C1507 1.410 . S
C1508 C1509 1.392 . S
C1508 C1511 1.511 . S
C1509 C1505 1.376 . S
C1509 C1508 1.392 . S
C1509 H1521 0.929 . S
C1510 C1506 1.531 . S
C1510 H1522 0.960 1_556 S
C1510 H1523 0.962 . S
C1510 H1524 0.960 . S
C1511 C1508 1.511 . S
C1511 H1525 0.961 . S
C1511 H1526 0.961 1_556 S
C1511 H1527 0.961 . S
C1512 C1513 1.370 . S
C1512 C1514 1.363 . S
C1512 H1528 0.931 . S
C1513 C1512 1.370 . S
C1513 C1517 1.408 . S
C1514 C1512 1.363 . S
C1514 C1515 1.370 . S
C1514 C1518 1.524 . S
C1515 C1507 1.503 1_554 S
C1515 C1514 1.370 . S
C1515 C1516 1.403 . S
C1516 C1515 1.403 . S
C1516 C1517 1.404 . S
C1516 C1519 1.539 . S
C1517 C1513 1.408 . S
C1517 C1516 1.404 . S
C1517 H1529 0.930 . S
C1518 C1514 1.524 . S
C1518 H1530 0.956 1_554 S
C1518 H1531 0.961 1_554 S
C1518 H1532 0.961 . S
C1519 C1516 1.539 . S
C1519 H1533 0.958 . S
C1519 H1534 0.961 . S
C1519 H1535 0.960 . S
H1520 C1504 0.931 . S
H1521 C1509 0.929 . S
H1522 C1510 0.960 1_554 S
H1523 C1510 0.962 . S
H1524 C1510 0.960 . S
H1525 C1511 0.961 . S
H1526 C1511 0.961 1_554 S
H1527 C1511 0.961 . S
H1528 C1512 0.931 . S
H1529 C1517 0.930 . S
H1530 C1518 0.956 1_556 S
H1531 C1518 0.961 1_556 S
H1532 C1518 0.961 . S
H1533 C1519 0.958 . S
H1534 C1519 0.961 . S
H1535 C1519 0.960 . S
C1536 C1537 1.391 . S
C1536 C1538 1.394 . S
C1536 H1552 0.931 . S
C1537 C1536 1.391 . S
C1537 C1541 1.376 . S
C1538 C1536 1.394 . S
C1538 C1539 1.369 . S
C1538 C1542 1.531 . S
C1539 C1538 1.369 . S
C1539 C1540 1.410 . S
C1539 C1547 1.503 1_554 S
C1540 C1539 1.410 . S
C1540 C1541 1.392 . S
C1540 C1543 1.511 . S
C1541 C1537 1.376 . S
C1541 C1540 1.392 . S
C1541 H1553 0.929 . S
C1542 C1538 1.531 . S
C1542 H1554 0.960 . S
C1542 H1555 0.962 . S
C1542 H1556 0.960 . S
C1543 C1540 1.511 . S
C1543 H1557 0.961 . S
C1543 H1558 0.961 1_554 S
C1543 H1559 0.961 . S
C1544 C1545 1.370 . S
C1544 C1546 1.363 . S
C1544 H1560 0.931 . S
C1545 C1544 1.370 . S
C1545 C1549 1.408 . S
C1546 C1544 1.363 . S
C1546 C1547 1.370 . S
C1546 C1550 1.524 . S
C1547 C1539 1.503 1_556 S
C1547 C1546 1.370 . S
C1547 C1548 1.403 . S
C1548 C1547 1.403 . S
C1548 C1549 1.404 . S
C1548 C1551 1.539 . S
C1549 C1545 1.408 . S
C1549 C1548 1.404 . S
C1549 H1561 0.930 . S
C1550 C1546 1.524 . S
C1550 H1562 0.956 1_556 S
C1550 H1563 0.961 1_556 S
C1550 H1564 0.961 . S
C1551 C1548 1.539 . S
C1551 H1565 0.958 . S
C1551 H1566 0.961 . S
C1551 H1567 0.960 . S
H1552 C1536 0.931 . S
H1553 C1541 0.929 . S
H1554 C1542 0.960 . S
H1555 C1542 0.962 . S
H1556 C1542 0.960 . S
H1557 C1543 0.961 . S
H1558 C1543 0.961 1_556 S
H1559 C1543 0.961 . S
H1560 C1544 0.931 . S
H1561 C1549 0.930 . S
H1562 C1550 0.956 1_554 S
H1563 C1550 0.961 1_554 S
H1564 C1550 0.961 . S
H1565 C1551 0.958 . S
H1566 C1551 0.961 . S
H1567 C1551 0.960 . S
C1568 C1569 1.391 . S
C1568 C1570 1.394 . S
C1568 H1584 0.931 . S
C1569 C1568 1.391 . S
C1569 C1573 1.376 . S
C1570 C1568 1.394 . S
C1570 C1571 1.369 . S
C1570 C1574 1.531 . S
C1571 C1570 1.369 . S
C1571 C1572 1.410 . S
C1571 C1579 1.503 1_556 S
C1572 C1571 1.410 . S
C1572 C1573 1.392 . S
C1572 C1575 1.511 . S
C1573 C1569 1.376 . S
C1573 C1572 1.392 . S
C1573 H1585 0.929 . S
C1574 C1570 1.531 . S
C1574 H1586 0.960 1_556 S
C1574 H1587 0.962 . S
C1574 H1588 0.960 . S
C1575 C1572 1.511 . S
C1575 H1589 0.961 . S
C1575 H1590 0.961 . S
C1575 H1591 0.961 . S
C1576 C1577 1.370 . S
C1576 C1578 1.363 . S
C1576 H1592 0.931 . S
C1577 C1576 1.370 . S
C1577 C1581 1.408 . S
C1578 C1576 1.363 . S
C1578 C1579 1.370 . S
C1578 C1582 1.524 . S
C1579 C1571 1.503 1_554 S
C1579 C1578 1.370 . S
C1579 C1580 1.403 . S
C1580 C1579 1.403 . S
C1580 C1581 1.404 . S
C1580 C1583 1.539 . S
C1581 C1577 1.408 . S
C1581 C1580 1.404 . S
C1581 H1593 0.930 . S
C1582 C1578 1.524 . S
C1582 H1594 0.956 1_554 S
C1582 H1595 0.961 1_554 S
C1582 H1596 0.961 . S
C1583 C1580 1.539 . S
C1583 H1597 0.958 . S
C1583 H1598 0.961 . S
C1583 H1599 0.960 . S
H1584 C1568 0.931 . S
H1585 C1573 0.929 . S
H1586 C1574 0.960 1_554 S
H1587 C1574 0.962 . S
H1588 C1574 0.960 . S
H1589 C1575 0.961 . S
H1590 C1575 0.961 . S
H1591 C1575 0.961 . S
H1592 C1576 0.931 . S
H1593 C1581 0.930 . S
H1594 C1582 0.956 1_556 S
H1595 C1582 0.961 1_556 S
H1596 C1582 0.961 . S
H1597 C1583 0.958 . S
H1598 C1583 0.961 . S
H1599 C1583 0.960 . S
C577 C14 1.368 . S
C585 C111 1.425 . S
C609 C3 1.429 . S
C617 C50 1.416 . S
C641 C39 1.402 . S
C649 C86 1.403 . S
C673 C75 1.453 . S
C681 C122 1.405 . S
C705 C158 1.382 . S
C713 C183 1.442 . S
C737 C194 1.421 . S
C745 C219 1.440 . S
C769 C230 1.376 . S
C777 C255 1.423 . S
C801 C266 1.373 . S
C809 C147 1.424 . S
C833 C302 1.363 . S
C841 C399 1.435 . S
C865 C291 1.453 . S
C873 C338 1.406 . S
C897 C327 1.446 . S
C905 C374 1.412 . S
C929 C410 1.392 . S
C937 C363 1.421 . S
C961 C471 1.420 . S
C969 C446 1.386 . S
C993 C507 1.428 . S
C1001 C482 1.386 . S
C1025 C518 1.378 . S
C1033 C543 1.423 . S
C1057 C554 1.361 . S
C1065 C435 1.430 . S
C1089 C4 1.136 . S
C1097 C544 1.185 . S
C1121 C40 1.119 . S
C1129 C436 1.173 . S
C1153 C472 1.124 . S
C1161 C76 1.165 . S
C1185 C112 1.120 . S
C1193 C508 1.177 . S
C1217 C328 1.201 . S
C1225 C148 1.172 . S
C1249 C364 1.122 . S
C1257 C184 1.180 . S
C1281 C220 1.121 . S
C1289 C400 1.170 . S
C1313 C256 1.194 . S
C1321 C292 1.149 . S
C1345 C2 1.599 . S
C1353 C218 1.603 . S
C1377 C254 1.592 . S
C1385 C38 1.600 . S
C1409 C146 1.600 . S
C1417 C74 1.603 . S
C1441 C182 1.593 . S
C1449 C110 1.601 . S
C1473 C290 1.596 . S
C1481 C506 1.600 . S
C1505 C326 1.601 . S
C1513 C542 1.601 . S
C1537 C434 1.594 . S
C1545 C362 1.599 . S
C1569 C398 1.602 . S
C1577 C470 1.603 . S
