# Generated by pormake.
# Topology umk, (4)-cn, num edge types: 1
# Building blocks:
#     Node 0, Type 0, BuildingBlock: QUQFOY_clean_sbu_3, # of connection points: 4
#     Node 1, Type 0, BuildingBlock: QUQFOY_clean_sbu_3, # of connection points: 4
#     Node 2, Type 0, BuildingBlock: QUQFOY_clean_sbu_3, # of connection points: 4
#     Node 3, Type 0, BuildingBlock: QUQFOY_clean_sbu_3, # of connection points: 4
#     Node 4, Type 0, BuildingBlock: QUQFOY_clean_sbu_3, # of connection points: 4
#     Node 5, Type 0, BuildingBlock: QUQFOY_clean_sbu_3, # of connection points: 4
#     Node 6, Type 0, BuildingBlock: QUQFOY_clean_sbu_3, # of connection points: 4
#     Node 7, Type 0, BuildingBlock: QUQFOY_clean_sbu_3, # of connection points: 4
#     Node 8, Type 0, BuildingBlock: QUQFOY_clean_sbu_3, # of connection points: 4
#     Node 9, Type 0, BuildingBlock: QUQFOY_clean_sbu_3, # of connection points: 4
#     Node 10, Type 0, BuildingBlock: QUQFOY_clean_sbu_3, # of connection points: 4
#     Node 11, Type 0, BuildingBlock: QUQFOY_clean_sbu_3, # of connection points: 4
#     Node 12, Type 0, BuildingBlock: QUQFOY_clean_sbu_3, # of connection points: 4
#     Node 13, Type 0, BuildingBlock: QUQFOY_clean_sbu_3, # of connection points: 4
#     Node 14, Type 0, BuildingBlock: QUQFOY_clean_sbu_3, # of connection points: 4
#     Node 15, Type 0, BuildingBlock: QUQFOY_clean_sbu_3, # of connection points: 4
#     Node 16, Type 0, BuildingBlock: QUQFOY_clean_sbu_3, # of connection points: 4
#     Node 17, Type 0, BuildingBlock: QUQFOY_clean_sbu_3, # of connection points: 4
#     Node 18, Type 0, BuildingBlock: QUQFOY_clean_sbu_3, # of connection points: 4
#     Node 19, Type 0, BuildingBlock: QUQFOY_clean_sbu_3, # of connection points: 4
#     Node 20, Type 0, BuildingBlock: QUQFOY_clean_sbu_3, # of connection points: 4
#     Node 21, Type 0, BuildingBlock: QUQFOY_clean_sbu_3, # of connection points: 4
#     Node 22, Type 0, BuildingBlock: QUQFOY_clean_sbu_3, # of connection points: 4
#     Node 23, Type 0, BuildingBlock: QUQFOY_clean_sbu_3, # of connection points: 4
#     Edge 24, Type (0, 0), BuildingBlock: CIFDUS_clean_linker_0, # of connection points: 2
#     Edge 25, Type (0, 0), BuildingBlock: CIFDUS_clean_linker_0, # of connection points: 2
#     Edge 26, Type (0, 0), BuildingBlock: CIFDUS_clean_linker_0, # of connection points: 2
#     Edge 27, Type (0, 0), BuildingBlock: CIFDUS_clean_linker_0, # of connection points: 2
#     Edge 28, Type (0, 0), BuildingBlock: CIFDUS_clean_linker_0, # of connection points: 2
#     Edge 29, Type (0, 0), BuildingBlock: CIFDUS_clean_linker_0, # of connection points: 2
#     Edge 30, Type (0, 0), BuildingBlock: CIFDUS_clean_linker_0, # of connection points: 2
#     Edge 31, Type (0, 0), BuildingBlock: CIFDUS_clean_linker_0, # of connection points: 2
#     Edge 32, Type (0, 0), BuildingBlock: CIFDUS_clean_linker_0, # of connection points: 2
#     Edge 33, Type (0, 0), BuildingBlock: CIFDUS_clean_linker_0, # of connection points: 2
#     Edge 34, Type (0, 0), BuildingBlock: CIFDUS_clean_linker_0, # of connection points: 2
#     Edge 35, Type (0, 0), BuildingBlock: CIFDUS_clean_linker_0, # of connection points: 2
#     Edge 36, Type (0, 0), BuildingBlock: CIFDUS_clean_linker_0, # of connection points: 2
#     Edge 37, Type (0, 0), BuildingBlock: CIFDUS_clean_linker_0, # of connection points: 2
#     Edge 38, Type (0, 0), BuildingBlock: CIFDUS_clean_linker_0, # of connection points: 2
#     Edge 39, Type (0, 0), BuildingBlock: CIFDUS_clean_linker_0, # of connection points: 2
#     Edge 40, Type (0, 0), BuildingBlock: CIFDUS_clean_linker_0, # of connection points: 2
#     Edge 41, Type (0, 0), BuildingBlock: CIFDUS_clean_linker_0, # of connection points: 2
#     Edge 42, Type (0, 0), BuildingBlock: CIFDUS_clean_linker_0, # of connection points: 2
#     Edge 43, Type (0, 0), BuildingBlock: CIFDUS_clean_linker_0, # of connection points: 2
#     Edge 44, Type (0, 0), BuildingBlock: CIFDUS_clean_linker_0, # of connection points: 2
#     Edge 45, Type (0, 0), BuildingBlock: CIFDUS_clean_linker_0, # of connection points: 2
#     Edge 46, Type (0, 0), BuildingBlock: CIFDUS_clean_linker_0, # of connection points: 2
#     Edge 47, Type (0, 0), BuildingBlock: CIFDUS_clean_linker_0, # of connection points: 2
#     Edge 48, Type (0, 0), BuildingBlock: CIFDUS_clean_linker_0, # of connection points: 2
#     Edge 49, Type (0, 0), BuildingBlock: CIFDUS_clean_linker_0, # of connection points: 2
#     Edge 50, Type (0, 0), BuildingBlock: CIFDUS_clean_linker_0, # of connection points: 2
#     Edge 51, Type (0, 0), BuildingBlock: CIFDUS_clean_linker_0, # of connection points: 2
#     Edge 52, Type (0, 0), BuildingBlock: CIFDUS_clean_linker_0, # of connection points: 2
#     Edge 53, Type (0, 0), BuildingBlock: CIFDUS_clean_linker_0, # of connection points: 2
#     Edge 54, Type (0, 0), BuildingBlock: CIFDUS_clean_linker_0, # of connection points: 2
#     Edge 55, Type (0, 0), BuildingBlock: CIFDUS_clean_linker_0, # of connection points: 2
#     Edge 56, Type (0, 0), BuildingBlock: CIFDUS_clean_linker_0, # of connection points: 2
#     Edge 57, Type (0, 0), BuildingBlock: CIFDUS_clean_linker_0, # of connection points: 2
#     Edge 58, Type (0, 0), BuildingBlock: CIFDUS_clean_linker_0, # of connection points: 2
#     Edge 59, Type (0, 0), BuildingBlock: CIFDUS_clean_linker_0, # of connection points: 2
#     Edge 60, Type (0, 0), BuildingBlock: CIFDUS_clean_linker_0, # of connection points: 2
#     Edge 61, Type (0, 0), BuildingBlock: CIFDUS_clean_linker_0, # of connection points: 2
#     Edge 62, Type (0, 0), BuildingBlock: CIFDUS_clean_linker_0, # of connection points: 2
#     Edge 63, Type (0, 0), BuildingBlock: CIFDUS_clean_linker_0, # of connection points: 2
#     Edge 64, Type (0, 0), BuildingBlock: CIFDUS_clean_linker_0, # of connection points: 2
#     Edge 65, Type (0, 0), BuildingBlock: CIFDUS_clean_linker_0, # of connection points: 2
#     Edge 66, Type (0, 0), BuildingBlock: CIFDUS_clean_linker_0, # of connection points: 2
#     Edge 67, Type (0, 0), BuildingBlock: CIFDUS_clean_linker_0, # of connection points: 2
#     Edge 68, Type (0, 0), BuildingBlock: CIFDUS_clean_linker_0, # of connection points: 2
#     Edge 69, Type (0, 0), BuildingBlock: CIFDUS_clean_linker_0, # of connection points: 2
#     Edge 70, Type (0, 0), BuildingBlock: CIFDUS_clean_linker_0, # of connection points: 2
#     Edge 71, Type (0, 0), BuildingBlock: CIFDUS_clean_linker_0, # of connection points: 2
# Relax obj value: 0.058
# Max RMSD: 0.041
# Mean RMSD: 0.041
data_MOF--net-umk--node1-QUQFOY_clean_sbu_3--edge1-CIFDUS_clean_linker_0
_symmetry_space_group_name_H-M    P1
_symmetry_Int_Tables_number       1
_symmetry_cell_setting            triclinic
loop_
_symmetry_equiv_pos_as_xyz
'x, y, z'
_cell_length_a     62.082827
_cell_length_b     62.155411
_cell_length_c     40.927777
_cell_angle_alpha  90.284628
_cell_angle_beta   89.776309
_cell_angle_gamma 120.18765
loop_
_atom_site_label
_atom_site_type_symbol
_atom_site_fract_x
_atom_site_fract_y
_atom_site_fract_z
_atom_type_partial_charge
C0 C 0.31091 0.44482 0.12417 0.0
O1 O 0.33344 0.45727 0.11487 0.0
Cd2 Cd 0.34985 0.47147 0.06167 0.0
O3 O 0.29305 0.43752 0.10371 0.0
Cd4 Cd 0.29242 0.44062 0.04172 0.0
C5 C 0.3276 0.41275 0.03191 0.0
O6 O 0.32431 0.48493 0.03734 0.0
O7 O 0.31434 0.46466 -0.00785 0.0
O8 O 0.25293 0.44085 0.04734 0.0
C9 C 0.32656 0.48545 0.00656 0.0
O10 O 0.34626 0.43446 0.03615 0.0
C11 C 0.24265 0.42751 0.02224 0.0
O12 O 0.30538 0.40856 0.03564 0.0
O13 O 0.25485 0.41911 0.00726 0.0
C14 C 0.83776 0.32445 0.61946 0.0
O15 O 0.84256 0.34663 0.61509 0.0
Cd16 Cd 0.85039 0.36688 0.56389 0.0
O17 O 0.83426 0.30991 0.59534 0.0
Cd18 Cd 0.83082 0.31053 0.5336 0.0
C19 C 0.89338 0.34943 0.53754 0.0
O20 O 0.81621 0.3403 0.53091 0.0
O21 O 0.82877 0.33337 0.48524 0.0
O22 O 0.79198 0.27078 0.54076 0.0
C23 C 0.81953 0.3446 0.50058 0.0
O24 O 0.88721 0.36481 0.54848 0.0
C25 C 0.79432 0.26026 0.51542 0.0
O26 O 0.87681 0.32727 0.52954 0.0
O27 O 0.81428 0.2726 0.49902 0.0
C28 C 0.49738 0.84694 0.12935 0.0
O29 O 0.4846 0.85768 0.12816 0.0
Cd30 Cd 0.46559 0.8637 0.0812 0.0
O31 O 0.50295 0.83929 0.10338 0.0
Cd32 Cd 0.49662 0.84233 0.04279 0.0
C33 C 0.51842 0.90479 0.03948 0.0
O34 O 0.45186 0.8276 0.04871 0.0
O35 O 0.46665 0.83887 0.00042 0.0
O36 O 0.49983 0.80438 0.03856 0.0
C37 C 0.44785 0.83012 0.01909 0.0
O38 O 0.49761 0.89924 0.05244 0.0
C39 C 0.51053 0.80955 0.01087 0.0
O40 O 0.52507 0.8885 0.0361 0.0
O41 O 0.51591 0.83043 -0.00126 0.0
C42 C 0.61974 0.50071 0.62972 0.0
O43 O 0.59643 0.48604 0.62698 0.0
Cd44 Cd 0.57363 0.46948 0.57765 0.0
O45 O 0.63388 0.50911 0.60466 0.0
Cd46 Cd 0.62937 0.50565 0.5432 0.0
C47 C 0.5861 0.52438 0.53903 0.0
O48 O 0.60091 0.46113 0.5474 0.0
O49 O 0.60694 0.47487 0.49843 0.0
O50 O 0.67162 0.51217 0.54865 0.0
C51 C 0.596 0.4564 0.51743 0.0
O52 O 0.57132 0.50314 0.55132 0.0
C53 C 0.67975 0.52279 0.52133 0.0
O54 O 0.60934 0.53198 0.53564 0.0
O55 O 0.66483 0.52647 0.50432 0.0
C56 C 0.10449 0.6381 0.13281 0.0
O57 O 0.09166 0.61455 0.1306 0.0
Cd58 Cd 0.07785 0.59019 0.08196 0.0
O59 O 0.11094 0.65186 0.1074 0.0
Cd60 Cd 0.10294 0.64396 0.0466 0.0
C61 C 0.03923 0.61014 0.05311 0.0
O62 O 0.11372 0.61122 0.04839 0.0
O63 O 0.10255 0.61648 0.0011 0.0
O64 O 0.1418 0.68471 0.04148 0.0
C65 C 0.11052 0.60521 0.01857 0.0
O66 O 0.04196 0.59225 0.06273 0.0
C67 C 0.1358 0.69062 0.01478 0.0
O68 O 0.05798 0.63172 0.04803 0.0
O69 O 0.11433 0.67543 0.00363 0.0
C70 C 0.43467 0.11362 0.6298 0.0
O71 O 0.45152 0.10777 0.62851 0.0
Cd72 Cd 0.46435 0.09463 0.58182 0.0
O73 O 0.42383 0.11495 0.60401 0.0
Cd74 Cd 0.42806 0.11216 0.54244 0.0
C75 C 0.40506 0.04995 0.55268 0.0
O76 O 0.47224 0.1268 0.54557 0.0
O77 O 0.45687 0.11429 0.49787 0.0
O78 O 0.42549 0.1502 0.54464 0.0
C79 C 0.47587 0.12318 0.51621 0.0
O80 O 0.42606 0.05703 0.56619 0.0
C81 C 0.41414 0.14702 0.51777 0.0
O82 O 0.39966 0.0658 0.54132 0.0
O83 O 0.40822 0.12699 0.50233 0.0
C84 C 0.49211 0.63153 0.82507 0.0
O85 O 0.47952 0.60825 0.83013 0.0
Cd86 Cd 0.46311 0.5871 0.88076 0.0
O87 O 0.49883 0.647 0.84881 0.0
Cd88 Cd 0.49492 0.64179 0.91033 0.0
C89 C 0.51869 0.60305 0.91696 0.0
O90 O 0.44969 0.61048 0.91185 0.0
O91 O 0.46935 0.61811 0.95736 0.0
O92 O 0.49643 0.68231 0.91264 0.0
C93 C 0.44878 0.60675 0.94235 0.0
O94 O 0.49709 0.58619 0.90798 0.0
C95 C 0.51012 0.69015 0.93789 0.0
O96 O 0.52484 0.62599 0.91661 0.0
O97 O 0.51779 0.67621 0.94917 0.0
C98 C 0.83029 0.50188 0.32328 0.0
O99 O 0.83412 0.48383 0.32718 0.0
Cd100 Cd 0.84744 0.47498 0.37701 0.0
O101 O 0.83012 0.51478 0.34761 0.0
Cd102 Cd 0.8307 0.51254 0.40957 0.0
C103 C 0.89266 0.53567 0.4007 0.0
O104 O 0.81544 0.46795 0.41391 0.0
O105 O 0.8307 0.48872 0.45817 0.0
O106 O 0.79185 0.51326 0.40448 0.0
C107 C 0.82036 0.46777 0.44384 0.0
O108 O 0.88559 0.51394 0.38952 0.0
C109 C 0.79482 0.52658 0.42952 0.0
O110 O 0.87672 0.54161 0.41037 0.0
O111 O 0.81518 0.53453 0.44503 0.0
C112 C 0.30049 0.84115 0.8185 0.0
O113 O 0.32322 0.84698 0.81926 0.0
Cd114 Cd 0.34949 0.86097 0.86554 0.0
O115 O 0.28868 0.84027 0.84464 0.0
Cd116 Cd 0.29794 0.8442 0.90588 0.0
C117 C 0.33625 0.90619 0.89441 0.0
O118 O 0.327 0.82869 0.9032 0.0
O119 O 0.32617 0.84461 0.94942 0.0
O120 O 0.25727 0.80578 0.9108 0.0
C121 C 0.33475 0.83359 0.9323 0.0
O122 O 0.35023 0.89938 0.88041 0.0
C123 C 0.25129 0.81147 0.93783 0.0
O124 O 0.31522 0.89015 0.9064 0.0
O125 O 0.26627 0.83298 0.94918 0.0
C126 C 0.44115 0.32243 0.31423 0.0
O127 O 0.45862 0.34451 0.3197 0.0
Cd128 Cd 0.47377 0.36521 0.3702 0.0
O129 O 0.4294 0.30749 0.33769 0.0
Cd130 Cd 0.43347 0.30928 0.39983 0.0
C131 C 0.4177 0.35429 0.40554 0.0
O132 O 0.47851 0.3355 0.3989 0.0
O133 O 0.46257 0.33146 0.4464 0.0
O134 O 0.42758 0.26723 0.39413 0.0
C135 C 0.48207 0.34072 0.42893 0.0
O136 O 0.43968 0.36835 0.39466 0.0
C137 C 0.41577 0.25868 0.42071 0.0
O138 O 0.40865 0.33077 0.40789 0.0
O139 O 0.41075 0.27311 0.43695 0.0
C140 C 0.09805 0.45132 0.81051 0.0
O141 O 0.09205 0.46796 0.81378 0.0
Cd142 Cd 0.08375 0.48285 0.86312 0.0
O143 O 0.10126 0.44085 0.83535 0.0
Cd144 Cd 0.10089 0.44577 0.89717 0.0
C145 C 0.03935 0.42706 0.89927 0.0
O146 O 0.11779 0.49084 0.89608 0.0
O147 O 0.1047 0.47409 0.94293 0.0
O148 O 0.13785 0.44101 0.89517 0.0
C149 C 0.11458 0.49374 0.92593 0.0
O150 O 0.04656 0.44857 0.88746 0.0
C151 C 0.13389 0.42956 0.92209 0.0
O152 O 0.05458 0.41912 0.90309 0.0
O153 O 0.11392 0.4245 0.93705 0.0
C154 C 0.61935 0.1148 0.31745 0.0
O155 O 0.59608 0.10623 0.32047 0.0
Cd156 Cd 0.57218 0.09094 0.36857 0.0
O157 O 0.63313 0.11734 0.34205 0.0
Cd158 Cd 0.62881 0.11202 0.40399 0.0
C159 C 0.59211 0.04936 0.39176 0.0
O160 O 0.59798 0.12438 0.40276 0.0
O161 O 0.60345 0.11478 0.45081 0.0
O162 O 0.66983 0.1497 0.39922 0.0
C163 C 0.59195 0.12202 0.43249 0.0
O164 O 0.57658 0.05494 0.38001 0.0
C165 C 0.67857 0.14733 0.42606 0.0
O166 O 0.61326 0.06616 0.40267 0.0
O167 O 0.66451 0.12802 0.4427 0.0
C168 C 0.62268 0.51087 0.81891 0.0
O169 O 0.59948 0.4977 0.82437 0.0
Cd170 Cd 0.57929 0.48433 0.87601 0.0
O171 O 0.63848 0.51841 0.84218 0.0
Cd172 Cd 0.63573 0.51349 0.90347 0.0
C173 C 0.60184 0.54253 0.91049 0.0
O174 O 0.60164 0.47021 0.90681 0.0
O175 O 0.61074 0.49108 0.95174 0.0
O176 O 0.66765 0.50193 0.90331 0.0
C177 C 0.59804 0.47034 0.93726 0.0
O178 O 0.58382 0.52168 0.90108 0.0
C179 C 0.68198 0.51767 0.9243 0.0
O180 O 0.62416 0.54654 0.91123 0.0
O181 O 0.67597 0.53335 0.93444 0.0
C182 C 0.10865 0.64282 0.32171 0.0
O183 O 0.10768 0.62203 0.32456 0.0
Cd184 Cd 0.09212 0.59645 0.37146 0.0
O185 O 0.10503 0.65335 0.34637 0.0
Cd186 Cd 0.10073 0.64671 0.40799 0.0
C187 C 0.04116 0.60458 0.39007 0.0
O188 O 0.11909 0.61998 0.41383 0.0
O189 O 0.09715 0.61998 0.45459 0.0
O190 O 0.13825 0.68818 0.41246 0.0
C191 C 0.1109 0.61236 0.44232 0.0
O192 O 0.05133 0.5925 0.37937 0.0
C193 C 0.13138 0.69484 0.43794 0.0
O194 O 0.05441 0.62626 0.40255 0.0
O195 O 0.10953 0.67992 0.44838 0.0
C196 C 0.44946 0.12443 0.81492 0.0
O197 O 0.4663 0.11856 0.81601 0.0
Cd198 Cd 0.47647 0.10108 0.86031 0.0
O199 O 0.43677 0.12325 0.84024 0.0
Cd200 Cd 0.43714 0.11445 0.90084 0.0
C201 C 0.4161 0.05367 0.88143 0.0
O202 O 0.48085 0.12839 0.90242 0.0
O203 O 0.46174 0.1103 0.9466 0.0
O204 O 0.44324 0.15488 0.91597 0.0
C205 C 0.48212 0.12135 0.93085 0.0
O206 O 0.43779 0.06223 0.8692 0.0
C207 C 0.42318 0.14741 0.93186 0.0
O208 O 0.40967 0.06811 0.89522 0.0
O209 O 0.4084 0.12398 0.93298 0.0
C210 C 0.30775 0.44784 0.31567 0.0
O211 O 0.33118 0.46028 0.31977 0.0
Cd212 Cd 0.35378 0.47731 0.36896 0.0
O213 O 0.29281 0.44149 0.34 0.0
Cd214 Cd 0.29984 0.4461 0.40151 0.0
C215 C 0.33875 0.42178 0.40391 0.0
O216 O 0.33011 0.49096 0.3987 0.0
O217 O 0.32606 0.47488 0.44603 0.0
O218 O 0.25811 0.44231 0.40532 0.0
C219 C 0.33592 0.49429 0.42859 0.0
O220 O 0.35558 0.4433 0.39471 0.0
C221 C 0.25237 0.43099 0.43252 0.0
O222 O 0.31595 0.41622 0.4054 0.0
O223 O 0.26794 0.42559 0.4443 0.0
C224 C 0.83631 0.31994 0.80946 0.0
O225 O 0.84789 0.34337 0.81364 0.0
Cd226 Cd 0.85444 0.36546 0.86367 0.0
O227 O 0.82773 0.30505 0.83368 0.0
Cd228 Cd 0.82965 0.30996 0.89516 0.0
C229 C 0.89307 0.34728 0.89836 0.0
O230 O 0.81728 0.34155 0.89346 0.0
O231 O 0.82746 0.33541 0.94095 0.0
O232 O 0.79067 0.26962 0.89259 0.0
C233 C 0.81964 0.34685 0.92355 0.0
O234 O 0.88902 0.36439 0.88887 0.0
C235 C 0.7937 0.26121 0.91931 0.0
O236 O 0.87539 0.32465 0.89989 0.0
O237 O 0.8139 0.27501 0.93449 0.0
C238 C 0.49831 0.84834 0.31746 0.0
O239 O 0.48198 0.85486 0.31943 0.0
Cd240 Cd 0.46604 0.86288 0.36763 0.0
O241 O 0.50689 0.84344 0.34301 0.0
Cd242 Cd 0.49859 0.84017 0.40465 0.0
C243 C 0.52422 0.9033 0.40265 0.0
O244 O 0.45476 0.82751 0.39971 0.0
O245 O 0.46906 0.83707 0.44842 0.0
O246 O 0.49949 0.80099 0.4018 0.0
C247 C 0.45058 0.82969 0.42943 0.0
O248 O 0.50414 0.89848 0.38815 0.0
C249 C 0.5104 0.80357 0.42894 0.0
O250 O 0.52809 0.8859 0.41183 0.0
O251 O 0.51689 0.82369 0.44446 0.0
C252 C 0.44515 0.32913 0.12271 0.0
O253 O 0.4578 0.35204 0.1154 0.0
Cd254 Cd 0.46608 0.37089 0.06303 0.0
O255 O 0.43496 0.31241 0.1006 0.0
Cd256 Cd 0.43413 0.31237 0.03859 0.0
C257 C 0.40659 0.34769 0.03118 0.0
O258 O 0.47705 0.34585 0.03245 0.0
O259 O 0.45618 0.33464 -0.01222 0.0
O260 O 0.44525 0.2803 0.03953 0.0
C261 C 0.47686 0.34837 0.00186 0.0
O262 O 0.42772 0.36536 0.04036 0.0
C263 C 0.42832 0.26477 0.02074 0.0
O264 O 0.40191 0.32515 0.03047 0.0
O265 O 0.41222 0.27034 0.01126 0.0
C266 C 0.10955 0.46319 0.6218 0.0
O267 O 0.10468 0.48046 0.61692 0.0
Cd268 Cd 0.08924 0.4884 0.56855 0.0
O269 O 0.1086 0.44887 0.59855 0.0
Cd270 Cd 0.10184 0.4467 0.53656 0.0
C271 C 0.04106 0.42744 0.55195 0.0
O272 O 0.1183 0.49118 0.52971 0.0
O273 O 0.10004 0.46925 0.48733 0.0
O274 O 0.13968 0.44333 0.53316 0.0
C275 C 0.11193 0.49063 0.50032 0.0
O276 O 0.04986 0.44995 0.56111 0.0
C277 C 0.13285 0.42899 0.50845 0.0
O278 O 0.05543 0.4197 0.54159 0.0
O279 O 0.1109 0.42139 0.49807 0.0
C280 C 0.6262 0.10733 0.1299 0.0
O281 O 0.60284 0.09798 0.12668 0.0
Cd282 Cd 0.57957 0.08832 0.07748 0.0
O283 O 0.64068 0.11343 0.10513 0.0
Cd284 Cd 0.63574 0.11317 0.0437 0.0
C285 C 0.59895 0.05002 0.04164 0.0
O286 O 0.60382 0.12478 0.04744 0.0
O287 O 0.60961 0.11563 -0.00102 0.0
O288 O 0.67571 0.15248 0.04662 0.0
C289 C 0.59799 0.12268 0.01763 0.0
O290 O 0.58201 0.05386 0.05293 0.0
C291 C 0.68422 0.14989 0.01956 0.0
O292 O 0.62133 0.06787 0.03809 0.0
O293 O 0.67069 0.12974 0.00406 0.0
C294 C 0.49482 0.62713 0.63381 0.0
O295 O 0.48072 0.60439 0.62633 0.0
Cd296 Cd 0.4634 0.58594 0.57522 0.0
O297 O 0.50233 0.64421 0.61212 0.0
Cd298 Cd 0.49649 0.6433 0.55008 0.0
C299 C 0.52035 0.60439 0.53966 0.0
O300 O 0.45197 0.61319 0.55177 0.0
O301 O 0.46775 0.61965 0.50384 0.0
O302 O 0.49909 0.68427 0.55518 0.0
C303 C 0.4484 0.6088 0.52152 0.0
O304 O 0.49867 0.58711 0.54775 0.0
C305 C 0.51027 0.69292 0.52821 0.0
O306 O 0.52605 0.62723 0.54088 0.0
O307 O 0.51636 0.67921 0.51222 0.0
C308 C 0.83114 0.49914 0.13363 0.0
O309 O 0.84339 0.48796 0.13026 0.0
Cd310 Cd 0.85629 0.47694 0.08134 0.0
O311 O 0.82447 0.50692 0.10893 0.0
Cd312 Cd 0.83048 0.50709 0.04749 0.0
C313 C 0.89449 0.53441 0.04687 0.0
O314 O 0.82109 0.46438 0.04789 0.0
O315 O 0.83124 0.48134 0.00055 0.0
O316 O 0.78881 0.4984 0.0319 0.0
C317 C 0.82419 0.46204 0.01785 0.0
O318 O 0.89133 0.51433 0.05933 0.0
C319 C 0.79541 0.51936 0.01915 0.0
O320 O 0.87611 0.5377 0.04131 0.0
O321 O 0.8185 0.53542 0.02026 0.0
C322 C 0.30297 0.83257 0.63211 0.0
O323 O 0.32573 0.83861 0.63004 0.0
Cd324 Cd 0.35212 0.85468 0.58411 0.0
O325 O 0.29085 0.83312 0.60718 0.0
Cd326 Cd 0.29925 0.84142 0.54583 0.0
C327 C 0.33968 0.90231 0.56397 0.0
O328 O 0.32738 0.82512 0.54473 0.0
O329 O 0.32665 0.84207 0.49976 0.0
O330 O 0.25733 0.80436 0.5407 0.0
C331 C 0.33531 0.83074 0.51583 0.0
O332 O 0.35303 0.89379 0.57514 0.0
C333 C 0.25136 0.81121 0.51478 0.0
O334 O 0.31829 0.88774 0.55151 0.0
O335 O 0.26705 0.83265 0.50403 0.0
H336 H 0.2796 0.44905 0.1685 0.0
H337 H 0.33297 0.42441 0.15763 0.0
H338 H 0.33352 0.41935 0.21647 0.0
H339 H 0.32404 0.42796 0.27101 0.0
H340 H 0.27203 0.45386 0.28427 0.0
H341 H 0.26539 0.45214 0.22482 0.0
C342 C 0.29078 0.44197 0.17911 0.0
C343 C 0.30641 0.43731 0.15887 0.0
C344 C 0.2915 0.43966 0.21341 0.0
C345 C 0.32099 0.42832 0.17281 0.0
C346 C 0.32136 0.42547 0.20645 0.0
C347 C 0.31077 0.43263 0.26089 0.0
C348 C 0.29864 0.44113 0.28175 0.0
C349 C 0.30749 0.432 0.22699 0.0
C350 C 0.28144 0.44709 0.26856 0.0
C351 C 0.27786 0.44633 0.23458 0.0
H352 H 0.80177 0.29573 0.66392 0.0
H353 H 0.88117 0.33979 0.64951 0.0
H354 H 0.88811 0.33903 0.70804 0.0
H355 H 0.87137 0.33197 0.76362 0.0
H356 H 0.79221 0.28822 0.77954 0.0
H357 H 0.78522 0.28226 0.72031 0.0
C358 C 0.82053 0.30436 0.67366 0.0
C359 C 0.84099 0.31775 0.65272 0.0
C360 C 0.82436 0.30419 0.70759 0.0
C361 C 0.86525 0.32927 0.66537 0.0
C362 C 0.8692 0.32899 0.6988 0.0
C363 C 0.85266 0.3205 0.75406 0.0
C364 C 0.83232 0.31062 0.77559 0.0
C365 C 0.84889 0.31742 0.72022 0.0
C366 C 0.80813 0.29582 0.76323 0.0
C367 C 0.80415 0.29264 0.7294 0.0
H368 H 0.48583 0.8111 0.27316 0.0
H369 H 0.5334 0.88989 0.28853 0.0
H370 H 0.54103 0.89629 0.22982 0.0
H371 H 0.52727 0.88047 0.17411 0.0
H372 H 0.47979 0.80182 0.15789 0.0
H373 H 0.47927 0.79411 0.21669 0.0
C374 C 0.49874 0.82943 0.26364 0.0
C375 C 0.50926 0.85 0.28496 0.0
C376 C 0.50264 0.83301 0.22965 0.0
C377 C 0.52545 0.8738 0.27247 0.0
C378 C 0.52957 0.87749 0.23889 0.0
C379 C 0.51765 0.86159 0.18343 0.0
C380 C 0.50363 0.84172 0.16195 0.0
C381 C 0.5173 0.85741 0.21719 0.0
C382 C 0.49094 0.81733 0.17409 0.0
C383 C 0.49044 0.81298 0.20772 0.0
H384 H 0.63909 0.48906 0.77599 0.0
H385 H 0.62192 0.5478 0.78586 0.0
H386 H 0.62362 0.55296 0.72648 0.0
H387 H 0.62269 0.53561 0.67186 0.0
H388 H 0.63822 0.47577 0.66182 0.0
H389 H 0.64477 0.47619 0.72087 0.0
C390 C 0.63665 0.50355 0.76503 0.0
C391 C 0.63063 0.51823 0.78496 0.0
C392 C 0.63699 0.50589 0.73082 0.0
C393 C 0.62688 0.53657 0.77077 0.0
C394 C 0.62764 0.53935 0.73686 0.0
C395 C 0.62841 0.52335 0.68262 0.0
C396 C 0.63027 0.50588 0.66282 0.0
C397 C 0.63164 0.52342 0.71661 0.0
C398 C 0.63711 0.48962 0.67678 0.0
C399 C 0.64062 0.48971 0.71052 0.0
H400 H 0.14091 0.64612 0.27517 0.0
H401 H 0.08085 0.6604 0.29336 0.0
H402 H 0.07658 0.66451 0.23451 0.0
H403 H 0.08497 0.65597 0.17783 0.0
H404 H 0.14505 0.64155 0.16069 0.0
H405 H 0.15471 0.64602 0.219 0.0
C406 C 0.12746 0.65095 0.26623 0.0
C407 C 0.11109 0.65276 0.28836 0.0
C408 C 0.12499 0.653 0.23249 0.0
C409 C 0.09374 0.65907 0.2767 0.0
C410 C 0.09114 0.66115 0.24303 0.0
C411 C 0.10077 0.65484 0.18687 0.0
C412 C 0.11445 0.64862 0.16522 0.0
C413 C 0.10593 0.65703 0.22063 0.0
C414 C 0.13455 0.64664 0.17703 0.0
C415 C 0.13991 0.64896 0.21037 0.0
H416 H 0.40818 0.1005 0.77693 0.0
H417 H 0.48189 0.16481 0.78108 0.0
H418 H 0.48137 0.17051 0.72219 0.0
H419 H 0.46401 0.15157 0.6691 0.0
H420 H 0.39157 0.08575 0.66364 0.0
H421 H 0.38711 0.08631 0.72321 0.0
C422 C 0.42357 0.11636 0.765 0.0
C423 C 0.44502 0.13232 0.78308 0.0
C424 C 0.42351 0.11888 0.7308 0.0
C425 C 0.46517 0.15248 0.76749 0.0
C426 C 0.46496 0.15558 0.73381 0.0
C427 C 0.44684 0.13801 0.68095 0.0
C428 C 0.42812 0.11871 0.66234 0.0
C429 C 0.44484 0.13809 0.71508 0.0
C430 C 0.40605 0.10094 0.67765 0.0
C431 C 0.40367 0.10112 0.71172 0.0
H432 H 0.49169 0.65935 0.67747 0.0
H433 H 0.51603 0.60578 0.66706 0.0
H434 H 0.52057 0.60499 0.72602 0.0
H435 H 0.51125 0.61418 0.78048 0.0
H436 H 0.48653 0.66716 0.79304 0.0
H437 H 0.48869 0.67381 0.73362 0.0
C438 C 0.49876 0.6482 0.68819 0.0
C439 C 0.50344 0.63255 0.66805 0.0
C440 C 0.50079 0.64738 0.72253 0.0
C441 C 0.51227 0.6179 0.68216 0.0
C442 C 0.51473 0.61732 0.71588 0.0
C443 C 0.50689 0.62762 0.77022 0.0
C444 C 0.49854 0.64 0.79088 0.0
C445 C 0.50804 0.63113 0.7363 0.0
C446 C 0.49309 0.65749 0.77749 0.0
C447 C 0.49415 0.66112 0.74352 0.0
H448 H 0.79919 0.47073 0.27762 0.0
H449 H 0.85587 0.54712 0.29343 0.0
H450 H 0.85865 0.55475 0.23433 0.0
H451 H 0.84978 0.53723 0.1779 0.0
H452 H 0.7929 0.46068 0.1634 0.0
H453 H 0.78484 0.45558 0.2221 0.0
C454 C 0.8116 0.48922 0.2681 0.0
C455 C 0.82743 0.5083 0.28956 0.0
C456 C 0.81311 0.49334 0.23429 0.0
C457 C 0.84343 0.53222 0.27721 0.0
C458 C 0.84516 0.53649 0.24344 0.0
C459 C 0.83498 0.51981 0.18764 0.0
C460 C 0.82177 0.49937 0.16659 0.0
C461 C 0.83077 0.51691 0.22164 0.0
C462 C 0.80301 0.47668 0.1793 0.0
C463 C 0.79858 0.4737 0.21284 0.0
H464 H 0.28561 0.85562 0.67227 0.0
H465 H 0.29614 0.79236 0.66483 0.0
H466 H 0.29087 0.7861 0.72376 0.0
H467 H 0.2926 0.80417 0.77763 0.0
H468 H 0.28411 0.86851 0.78642 0.0
H469 H 0.27875 0.86871 0.72704 0.0
C470 C 0.2856 0.83985 0.68352 0.0
C471 C 0.29113 0.82437 0.6644 0.0
C472 C 0.28341 0.83691 0.71776 0.0
C473 C 0.2917 0.80433 0.67917 0.0
C474 C 0.28893 0.80091 0.71288 0.0
C475 C 0.28852 0.81756 0.76658 0.0
C476 C 0.28863 0.83623 0.78611 0.0
C477 C 0.28613 0.81786 0.73252 0.0
C478 C 0.28373 0.85377 0.77175 0.0
C479 C 0.28099 0.85404 0.73777 0.0
H480 H 0.47481 0.33076 0.26815 0.0
H481 H 0.39571 0.29721 0.28304 0.0
H482 H 0.38903 0.29303 0.22351 0.0
H483 H 0.40696 0.30472 0.16706 0.0
H484 H 0.48657 0.3397 0.15475 0.0
H485 H 0.49187 0.33724 0.21327 0.0
C486 C 0.45605 0.32206 0.25834 0.0
C487 C 0.43581 0.31452 0.2797 0.0
C488 C 0.45254 0.32017 0.22448 0.0
C489 C 0.41156 0.30307 0.26691 0.0
C490 C 0.40781 0.30091 0.23291 0.0
C491 C 0.4253 0.31114 0.17728 0.0
C492 C 0.44641 0.32244 0.15683 0.0
C493 C 0.42828 0.31019 0.21138 0.0
C494 C 0.47014 0.331 0.17018 0.0
C495 C 0.47319 0.32968 0.2036 0.0
H496 H 0.08626 0.42289 0.6622 0.0
H497 H 0.14712 0.49855 0.65701 0.0
H498 H 0.15167 0.49998 0.71627 0.0
H499 H 0.1334 0.48261 0.76952 0.0
H500 H 0.0715 0.40778 0.77634 0.0
H501 H 0.0723 0.40282 0.71677 0.0
C502 C 0.10109 0.43926 0.67408 0.0
C503 C 0.11643 0.46058 0.6554 0.0
C504 C 0.10304 0.44022 0.7085 0.0
C505 C 0.13524 0.48192 0.67099 0.0
C506 C 0.1377 0.48282 0.70487 0.0
C507 C 0.12064 0.46496 0.75797 0.0
C508 C 0.10247 0.44557 0.77701 0.0
C509 C 0.12099 0.46253 0.7239 0.0
C510 C 0.08581 0.42283 0.76203 0.0
C511 C 0.08615 0.42012 0.72797 0.0
H512 H 0.63991 0.09458 0.2778 0.0
H513 H 0.62055 0.15204 0.28336 0.0
H514 H 0.6258 0.15817 0.22438 0.0
H515 H 0.62778 0.14156 0.17088 0.0
H516 H 0.64476 0.08259 0.16384 0.0
H517 H 0.64903 0.08276 0.22353 0.0
C518 C 0.63786 0.10907 0.2661 0.0
C519 C 0.63001 0.12298 0.28465 0.0
C520 C 0.64008 0.11187 0.23187 0.0
C521 C 0.62679 0.14132 0.26938 0.0
C522 C 0.62958 0.14467 0.23568 0.0
C523 C 0.63331 0.12942 0.18245 0.0
C524 C 0.63609 0.1122 0.16335 0.0
C525 C 0.63504 0.12925 0.21658 0.0
C526 C 0.64288 0.09621 0.17828 0.0
C527 C 0.64504 0.09616 0.21237 0.0
H528 H 0.14357 0.42736 -0.01357 0.0
H529 H 0.16707 0.42093 0.8894 0.0
H530 H 0.20121 0.41685 0.91218 0.0
H531 H 0.22648 0.41861 0.95939 0.0
H532 H 0.20565 0.42948 0.05603 0.0
H533 H 0.16841 0.42815 0.03391 0.0
C534 C 0.15593 0.42464 0.97035 0.0
C535 C 0.15271 0.42429 0.93627 0.0
C536 C 0.17615 0.42329 -0.01639 0.0
C537 C 0.16915 0.42123 0.9157 0.0
C538 C 0.18871 0.41895 0.92872 0.0
C539 C 0.21357 0.42027 -0.02433 0.0
C540 C 0.21876 0.42399 0.00935 0.0
C541 C 0.1927 0.42045 0.96259 0.0
C542 C 0.20207 0.42658 0.03003 0.0
C543 C 0.18079 0.42586 0.01737 0.0
H544 H 0.69447 0.15902 0.48909 0.0
H545 H 0.71798 0.18038 0.38942 0.0
H546 H 0.75727 0.21565 0.40834 0.0
H547 H 0.78353 0.2425 0.45317 0.0
H548 H 0.75824 0.22346 0.55268 0.0
H549 H 0.72137 0.18527 0.53406 0.0
C550 C 0.70839 0.17118 0.47156 0.0
C551 C 0.70334 0.16703 0.43789 0.0
C552 C 0.73063 0.192 0.48264 0.0
C553 C 0.72139 0.18319 0.41546 0.0
C554 C 0.74387 0.20339 0.42627 0.0
C555 C 0.77016 0.22975 0.47079 0.0
C556 C 0.77369 0.23575 0.50428 0.0
C557 C 0.7485 0.20828 0.45979 0.0
C558 C 0.75596 0.21927 0.52678 0.0
C559 C 0.73484 0.19744 0.51613 0.0
H560 H 0.51736 0.77266 0.03505 0.0
H561 H 0.51152 0.8049 0.94485 0.0
H562 H 0.51183 0.77132 0.91382 0.0
H563 H 0.51054 0.73093 0.91266 0.0
H564 H 0.51951 0.70044 0.0026 0.0
H565 H 0.52144 0.73518 0.03327 0.0
C566 C 0.51647 0.77247 0.00858 0.0
C567 C 0.5142 0.7911 -0.0077 0.0
C568 C 0.51711 0.75333 -0.00917 0.0
C569 C 0.51334 0.7908 0.95797 0.0
C570 C 0.51338 0.77152 0.9402 0.0
C571 C 0.51323 0.7321 0.93892 0.0
C572 C 0.51465 0.71302 0.95535 0.0
C573 C 0.51477 0.75241 0.9564 0.0
C574 C 0.51841 0.7149 -0.01066 0.0
C575 C 0.51938 0.73471 0.00695 0.0
H576 H 0.69516 0.52714 0.4581 0.0
H577 H 0.71997 0.53068 0.55725 0.0
H578 H 0.7593 0.5353 0.53748 0.0
H579 H 0.78506 0.53442 0.49204 0.0
H580 H 0.75837 0.52687 0.39318 0.0
H581 H 0.72166 0.52799 0.41261 0.0
C582 C 0.70937 0.52936 0.47534 0.0
C583 C 0.70465 0.52862 0.5091 0.0
C584 C 0.7316 0.53112 0.46378 0.0
C585 C 0.72311 0.53114 0.53115 0.0
C586 C 0.7456 0.53375 0.51985 0.0
C587 C 0.77143 0.5335 0.47474 0.0
C588 C 0.77449 0.53066 0.4412 0.0
C589 C 0.74985 0.53321 0.48623 0.0
C590 C 0.75645 0.52905 0.41912 0.0
C591 C 0.73541 0.52963 0.43023 0.0
H592 H 0.20911 0.77138 0.91448 0.0
H593 H 0.2447 0.80965 0.00379 0.0
H594 H 0.21177 0.77598 0.03582 0.0
H595 H 0.17438 0.73403 0.03844 0.0
H596 H 0.13731 0.69724 0.94907 0.0
H597 H 0.16909 0.73188 0.91716 0.0
C598 C 0.20945 0.77248 0.94095 0.0
C599 C 0.22942 0.79289 0.95673 0.0
C600 C 0.19025 0.7532 0.95923 0.0
C601 C 0.2295 0.79419 -0.00896 0.0
C602 C 0.21075 0.77485 0.00939 0.0
C603 C 0.17317 0.73376 0.012 0.0
C604 C 0.15366 0.71299 -0.00386 0.0
C605 C 0.19129 0.75402 -0.00623 0.0
C606 C 0.15213 0.71301 0.96188 0.0
C607 C 0.17036 0.73278 0.94358 0.0
H608 H 0.40904 0.15623 0.45392 0.0
H609 H 0.41014 0.1825 0.55195 0.0
H610 H 0.40771 0.21786 0.5306 0.0
H611 H 0.40904 0.24341 0.48404 0.0
H612 H 0.41177 0.21924 0.38597 0.0
H613 H 0.40869 0.18106 0.40717 0.0
C614 C 0.40832 0.16948 0.47058 0.0
C615 C 0.40971 0.16668 0.5045 0.0
C616 C 0.40778 0.19032 0.45806 0.0
C617 C 0.40914 0.18423 0.52575 0.0
C618 C 0.40778 0.2045 0.51355 0.0
C619 C 0.40849 0.22957 0.46729 0.0
C620 C 0.41053 0.23415 0.43345 0.0
C621 C 0.40762 0.20804 0.47974 0.0
C622 C 0.41022 0.21619 0.41212 0.0
C623 C 0.40853 0.19436 0.42425 0.0
H624 H 0.75506 0.48614 -0.01454 0.0
H625 H 0.79496 0.56321 0.0147 0.0
H626 H 0.76346 0.56997 -0.01204 0.0
H627 H 0.72364 0.55327 0.95702 0.0
H628 H 0.6867 0.4768 0.92431 0.0
H629 H 0.71794 0.47058 0.95133 0.0
C630 C 0.75684 0.50442 -0.01398 0.0
C631 C 0.77706 0.52406 0.00239 0.0
C632 C 0.73918 0.50828 0.9698 0.0
C633 C 0.77945 0.54778 0.00233 0.0
C634 C 0.76144 0.55162 -0.01292 0.0
C635 C 0.7226 0.53534 0.95565 0.0
C636 C 0.70275 0.51552 0.9387 0.0
C637 C 0.7411 0.53194 0.97081 0.0
C638 C 0.70178 0.49244 0.93698 0.0
C639 C 0.7196 0.48878 0.95259 0.0
H640 H 0.16998 0.73824 0.41458 0.0
H641 H 0.13326 0.70117 0.50383 0.0
H642 H 0.1666 0.7345 0.53592 0.0
H643 H 0.20818 0.77239 0.53847 0.0
H644 H 0.2434 0.81106 0.44938 0.0
H645 H 0.20864 0.77923 0.41747 0.0
C646 C 0.16909 0.73773 0.44106 0.0
C647 C 0.14925 0.71719 0.4568 0.0
C648 C 0.18816 0.7572 0.4594 0.0
C649 C 0.14824 0.71683 0.49112 0.0
C650 C 0.16741 0.73581 0.5095 0.0
C651 C 0.20805 0.77401 0.5121 0.0
C652 C 0.22849 0.79394 0.49631 0.0
C653 C 0.18775 0.75582 0.4939 0.0
C654 C 0.22791 0.79594 0.46216 0.0
C655 C 0.20808 0.77765 0.44386 0.0
H656 H 0.45701 0.18826 0.96351 0.0
H657 H 0.3789 0.14707 0.93977 0.0
H658 H 0.37301 0.17966 0.96546 0.0
H659 H 0.39107 0.22129 -0.00719 0.0
H660 H 0.46889 0.2596 0.01956 0.0
H661 H 0.47382 0.22677 -0.00518 0.0
C662 C 0.43865 0.18637 0.96408 0.0
C663 C 0.41849 0.16554 0.94945 0.0
C664 C 0.43538 0.20474 -0.02053 0.0
C665 C 0.39471 0.16303 0.95087 0.0
C666 C 0.39139 0.18169 0.96545 0.0
C667 C 0.409 0.22227 -0.00659 0.0
C668 C 0.4296 0.24303 0.00791 0.0
C669 C 0.4117 0.20285 -0.02044 0.0
C670 C 0.45268 0.2439 0.00872 0.0
C671 C 0.4556 0.22515 -0.00557 0.0
H672 H 0.17328 0.42811 0.53249 0.0
H673 H 0.13288 0.41962 0.4434 0.0
H674 H 0.16585 0.41861 0.41171 0.0
H675 H 0.20804 0.42376 0.40893 0.0
H676 H 0.24681 0.429 0.49845 0.0
H677 H 0.2127 0.4275 0.53025 0.0
C678 C 0.17153 0.42564 0.50619 0.0
C679 C 0.15074 0.42413 0.49032 0.0
C680 C 0.19041 0.4247 0.48813 0.0
C681 C 0.14863 0.42072 0.45625 0.0
C682 C 0.16758 0.42032 0.43806 0.0
C683 C 0.20883 0.42425 0.4354 0.0
C684 C 0.23005 0.42673 0.45127 0.0
C685 C 0.18884 0.42285 0.45366 0.0
C686 C 0.23069 0.42706 0.48562 0.0
C687 C 0.21122 0.42632 0.50385 0.0
H688 H 0.78497 0.24741 -0.01682 0.0
H689 H 0.75739 0.22159 0.88589 0.0
H690 H 0.72237 0.18359 0.90823 0.0
H691 H 0.6979 0.15902 0.95561 0.0
H692 H 0.72341 0.18677 0.05296 0.0
H693 H 0.76085 0.22248 0.03058 0.0
C694 C 0.77147 0.23329 0.96689 0.0
C695 C 0.77384 0.23726 0.93291 0.0
C696 C 0.75088 0.21185 -0.02002 0.0
C697 C 0.75598 0.21898 0.91212 0.0
C698 C 0.73593 0.19725 0.92489 0.0
C699 C 0.71185 0.17271 0.97191 0.0
C700 C 0.70793 0.17018 0.00591 0.0
C701 C 0.73294 0.19367 0.95881 0.0
C702 C 0.72598 0.18829 0.0267 0.0
C703 C 0.74738 0.20874 0.01391 0.0
H704 H 0.51525 0.79447 0.49292 0.0
H705 H 0.51265 0.76678 0.39535 0.0
H706 H 0.51484 0.73142 0.41733 0.0
H707 H 0.51473 0.70679 0.46441 0.0
H708 H 0.51341 0.73239 0.56209 0.0
H709 H 0.51572 0.77006 0.54012 0.0
C710 C 0.51551 0.78087 0.47648 0.0
C711 C 0.51391 0.78337 0.4425 0.0
C712 C 0.51595 0.76007 0.48938 0.0
C713 C 0.51386 0.76533 0.42157 0.0
C714 C 0.51509 0.74507 0.43414 0.0
C715 C 0.51532 0.7208 0.4809 0.0
C716 C 0.51407 0.71683 0.51489 0.0
C717 C 0.51576 0.74202 0.46802 0.0
C718 C 0.51439 0.73497 0.53586 0.0
C719 C 0.51566 0.75651 0.52328 0.0
H720 H 0.36164 0.4129 -0.00895 0.0
H721 H 0.30617 0.3674 0.06212 0.0
H722 H 0.32346 0.33955 0.06463 0.0
H723 H 0.35936 0.33298 0.05361 0.0
H724 H 0.41481 0.37985 -0.01688 0.0
H725 H 0.39236 0.40191 -0.02723 0.0
C726 C 0.35288 0.39642 0.00631 0.0
C727 C 0.33282 0.39225 0.02649 0.0
C728 C 0.36314 0.38084 0.00792 0.0
C729 C 0.32155 0.37087 0.04617 0.0
C730 C 0.33162 0.35511 0.04786 0.0
C731 C 0.3659 0.34738 0.03514 0.0
C732 C 0.38869 0.35485 0.01913 0.0
C733 C 0.35311 0.36052 0.02985 0.0
C734 C 0.39727 0.37381 -0.00435 0.0
C735 C 0.38455 0.38656 -0.01012 0.0
H736 H 0.00819 0.38809 0.51257 0.0
H737 H 0.01263 0.42927 0.60004 0.0
H738 H -0.03243 0.40724 0.60429 0.0
H739 H 0.92706 0.37959 0.58106 0.0
H740 H 0.92016 0.33767 0.49372 0.0
H741 H 0.96582 0.35635 0.49163 0.0
C742 C -0.0008 0.39183 0.53279 0.0
C743 C 0.0138 0.41058 0.55572 0.0
C744 C -0.02715 0.37919 0.53492 0.0
C745 C 0.00189 0.41525 0.5818 0.0
C746 C -0.02392 0.40266 0.5843 0.0
C747 C 0.93549 0.37439 0.56158 0.0
C748 C 0.92033 0.35765 0.53726 0.0
C749 C 0.96142 0.38518 0.56057 0.0
C750 C 0.93148 0.35065 0.51265 0.0
C751 C 0.95758 0.36141 0.51142 0.0
H752 H 0.56826 0.9373 0.05074 0.0
H753 H 0.50305 0.93042 0.00364 0.0
H754 H 0.52416 0.97524 -0.00451 0.0
H755 H 0.55808 0.01654 0.00982 0.0
H756 H 0.62341 0.02508 0.05812 0.0
H757 H 0.6057 -0.02031 0.05741 0.0
C758 C 0.55909 0.94564 0.0378 0.0
C759 C 0.53409 0.93066 0.02798 0.0
C760 C 0.57122 0.97176 0.03392 0.0
C761 C 0.52223 0.94164 0.01156 0.0
C762 C 0.53424 0.96728 0.00701 0.0
C763 C 0.5687 0.00847 0.01945 0.0
C764 C 0.59184 0.02397 0.03423 0.0
C765 C 0.55826 -0.01744 0.01934 0.0
C766 C 0.60556 0.01343 0.04647 0.0
C767 C 0.59532 -0.01252 0.04632 0.0
H768 H 0.60324 0.57449 0.54851 0.0
H769 H 0.54328 0.5074 0.50622 0.0
H770 H 0.51912 0.52789 0.49791 0.0
H771 H 0.51226 0.56232 0.50997 0.0
H772 H 0.57051 0.62947 0.55405 0.0
H773 H 0.59822 0.6119 0.55376 0.0
C774 C 0.5852 0.56469 0.53668 0.0
C775 C 0.57496 0.53938 0.52822 0.0
C776 C 0.57095 0.57651 0.53265 0.0
C777 C 0.55145 0.5268 0.51318 0.0
C778 C 0.53757 0.53848 0.50848 0.0
C779 C 0.53123 0.57336 0.51887 0.0
C780 C 0.53923 0.59704 0.5323 0.0
C781 C 0.54671 0.56295 0.51926 0.0
C782 C 0.56392 0.61121 0.54345 0.0
C783 C 0.57968 0.60104 0.54359 0.0
H784 H 0.92748 0.57645 0.07934 0.0
H785 H 0.91881 0.53227 -0.00628 0.0
H786 H 0.96387 0.55502 -0.01512 0.0
H787 H 0.00584 0.58222 0.00711 0.0
H788 H 0.01514 0.62609 0.09319 0.0
H789 H -0.03006 0.6091 0.0963 0.0
C790 C 0.9355 0.57257 0.05811 0.0
C791 C 0.92001 0.55297 0.03696 0.0
C792 C 0.96157 0.58539 0.05367 0.0
C793 C 0.93048 0.54755 0.00997 0.0
C794 C 0.95624 0.56038 0.00512 0.0
C795 C -0.00206 0.58864 0.02583 0.0
C796 C 0.01359 0.60541 0.04976 0.0
C797 C -0.02799 0.57858 0.02758 0.0
C798 C 0.00333 0.61343 0.07427 0.0
C799 C -0.0225 0.60353 0.0762 0.0
H800 H 0.40142 0.01631 0.59626 0.0
H801 H 0.36831 0.02243 0.50706 0.0
H802 H 0.34298 0.97671 0.50355 0.0
H803 H 0.33329 0.93468 0.52398 0.0
H804 H 0.36826 0.93101 0.61317 0.0
H805 H 0.38957 0.97592 0.61858 0.0
C806 C 0.38856 0.00772 0.57606 0.0
C807 C 0.38703 0.02274 0.55171 0.0
C808 C 0.37441 -0.01828 0.57416 0.0
C809 C 0.36988 0.01127 0.52611 0.0
C810 C 0.35551 -0.01487 0.52405 0.0
C811 C 0.34529 0.94378 0.54478 0.0
C812 C 0.34942 0.92944 0.5679 0.0
C813 C 0.35801 0.97008 0.54763 0.0
C814 C 0.36503 0.94153 0.59473 0.0
C815 C 0.37725 0.96727 0.59793 0.0
H816 H 0.56748 0.621 0.89873 0.0
H817 H 0.50825 0.56589 0.95856 0.0
H818 H 0.53176 0.54471 0.96715 0.0
H819 H 0.56516 0.53753 0.94971 0.0
H820 H 0.62393 0.5905 0.88772 0.0
H821 H 0.6051 0.61712 0.88834 0.0
C822 C 0.5602 0.60484 0.91446 0.0
C823 C 0.53611 0.59487 0.92785 0.0
C824 C 0.57361 0.59219 0.91852 0.0
C825 C 0.52668 0.57375 0.94788 0.0
C826 C 0.54007 0.56158 0.95271 0.0
C827 C 0.57427 0.55532 0.93722 0.0
C828 C 0.59578 0.56207 0.91866 0.0
C829 C 0.56297 0.56998 0.93699 0.0
C830 C 0.60746 0.58507 0.90246 0.0
C831 C 0.59649 0.60011 0.9025 0.0
H832 H 0.92711 0.53558 0.3611 0.0
H833 H 0.9194 0.57657 0.44109 0.0
H834 H 0.96504 0.60316 0.44394 0.0
H835 H 0.00754 0.61251 0.42568 0.0
H836 H 0.01285 0.56995 0.34542 0.0
H837 H -0.03209 0.54647 0.3407 0.0
C838 C 0.93532 0.55038 0.37918 0.0
C839 C 0.91987 0.55383 0.40116 0.0
C840 C 0.96129 0.56533 0.38069 0.0
C841 C 0.93088 0.57346 0.42392 0.0
C842 C 0.95699 0.58858 0.42562 0.0
C843 C -0.0012 0.59829 0.40698 0.0
C844 C 0.01369 0.59281 0.3863 0.0
C845 C -0.02752 0.58441 0.40444 0.0
C846 C 0.002 0.57435 0.3621 0.0
C847 C -0.02379 0.56087 0.35926 0.0
H848 H 0.37879 0.02101 0.92329 0.0
H849 H 0.41424 0.02536 0.83062 0.0
H850 H 0.39107 -0.01962 0.82555 0.0
H851 H 0.3642 0.93981 0.84923 0.0
H852 H 0.32797 0.93323 0.94163 0.0
H853 H 0.34765 -0.02114 0.94493 0.0
C854 C 0.38103 0.01205 0.9018 0.0
C855 C 0.39853 0.02657 0.87759 0.0
C856 C 0.36773 -0.01425 0.89914 0.0
C857 C 0.40124 0.01467 0.84986 0.0
C858 C 0.38798 -0.0111 0.84688 0.0
C859 C 0.36042 0.94831 0.87004 0.0
C860 C 0.34499 0.93323 0.89537 0.0
C861 C 0.37179 0.97427 0.87174 0.0
C862 C 0.33987 0.94449 0.92183 0.0
C863 C 0.35123 0.97057 0.92376 0.0
H864 H 0.38192 0.43068 0.43049 0.0
H865 H 0.31316 0.37131 0.39144 0.0
H866 H 0.3304 0.3433 0.39217 0.0
H867 H 0.36756 0.33781 0.39712 0.0
H868 H 0.43602 0.39872 0.43511 0.0
H869 H 0.41634 0.42377 0.44199 0.0
C870 C 0.37051 0.41146 0.42268 0.0
C871 C 0.34643 0.40315 0.41061 0.0
C872 C 0.38064 0.39575 0.42274 0.0
C873 C 0.33176 0.37813 0.40093 0.0
C874 C 0.34171 0.36219 0.4011 0.0
C875 C 0.37788 0.35632 0.40763 0.0
C876 C 0.40333 0.36649 0.41524 0.0
C877 C 0.36649 0.37104 0.41097 0.0
C878 C 0.41653 0.39057 0.42869 0.0
C879 C 0.40531 0.40497 0.43261 0.0
H880 H 0.00603 0.37702 0.88962 0.0
H881 H 0.01332 0.44433 0.93108 0.0
H882 H -0.0315 0.42388 0.93924 0.0
H883 H 0.92711 0.38937 0.92744 0.0
H884 H 0.91791 0.32201 0.88405 0.0
H885 H 0.96336 0.33959 0.88434 0.0
C886 C -0.00224 0.38689 0.90115 0.0
C887 C 0.01292 0.41224 0.90942 0.0
C888 C -0.0284 0.37509 0.90509 0.0
C889 C 0.002 0.42491 0.92418 0.0
C890 C -0.02364 0.41325 0.92883 0.0
C891 C 0.93502 0.37831 0.91866 0.0
C892 C 0.91927 0.35458 0.90545 0.0
C893 C 0.96095 0.38872 0.91826 0.0
C894 C 0.92969 0.34033 0.89446 0.0
C895 C 0.95569 0.3505 0.89434 0.0
H896 H 0.54107 0.93685 0.3549 0.0
H897 H 0.54992 0.92915 0.45766 0.0
H898 H 0.57519 0.97475 0.4633 0.0
H899 H 0.58987 0.01704 0.4395 0.0
H900 H 0.57914 0.0228 0.33656 0.0
H901 H 0.56 -0.02209 0.33025 0.0
C902 C 0.54899 0.94517 0.37842 0.0
C903 C 0.54358 0.92983 0.40585 0.0
C904 C 0.56308 0.97113 0.38139 0.0
C905 C 0.55398 0.94069 0.43617 0.0
C906 C 0.56824 0.96674 0.43939 0.0
C907 C 0.58393 0.00841 0.41565 0.0
C908 C 0.5858 0.02313 0.38849 0.0
C909 C 0.57227 -0.01777 0.4123 0.0
C910 C 0.57779 0.01179 0.35775 0.0
C911 C 0.56675 -0.01388 0.35414 0.0
H912 H 0.40719 0.56855 0.91425 0.0
H913 H 0.43955 0.60092 0.00764 0.0
H914 H 0.4038 0.56721 0.0357 0.0
H915 H 0.36449 0.52731 0.03391 0.0
H916 H 0.33304 0.49353 0.94076 0.0
H917 H 0.36711 0.52897 0.91244 0.0
C918 C 0.40625 0.56836 0.94074 0.0
C919 C 0.42602 0.58725 0.95883 0.0
C920 C 0.38583 0.54855 0.95677 0.0
C921 C 0.42464 0.58659 -0.00686 0.0
C922 C 0.40419 0.56729 0.0092 0.0
C923 C 0.36493 0.5278 0.00737 0.0
C924 C 0.34621 0.50777 -0.01052 0.0
C925 C 0.38486 0.54799 -0.00869 0.0
C926 C 0.34721 0.50864 0.95513 0.0
C927 C 0.36672 0.52892 0.93896 0.0
H928 H 0.81807 0.38292 0.53082 0.0
H929 H 0.81615 0.35188 0.43565 0.0
H930 H 0.81458 0.38644 0.40975 0.0
H931 H 0.81562 0.42643 0.41405 0.0
H932 H 0.82047 0.45895 0.50903 0.0
H933 H 0.81893 0.42287 0.53512 0.0
C934 C 0.81706 0.38361 0.50442 0.0
C935 C 0.81714 0.36482 0.48517 0.0
C936 C 0.81679 0.40387 0.48968 0.0
C937 C 0.81614 0.36613 0.45099 0.0
C938 C 0.81525 0.38589 0.43618 0.0
C939 C 0.81611 0.42551 0.44047 0.0
C940 C 0.81807 0.44531 0.4596 0.0
C941 C 0.81583 0.405 0.45525 0.0
C942 C 0.81899 0.44397 0.49378 0.0
C943 C 0.81811 0.42335 0.50871 0.0
H944 H 0.34872 0.83266 -0.00498 0.0
H945 H 0.36769 0.8276 0.89485 0.0
H946 H 0.40387 0.82521 0.91286 0.0
H947 H 0.43127 0.82648 0.95694 0.0
H948 H 0.41144 0.82962 0.05726 0.0
H949 H 0.37441 0.83059 0.0394 0.0
C950 C 0.36074 0.83092 -0.02281 0.0
C951 C 0.35565 0.83053 0.94367 0.0
C952 C 0.38137 0.82921 -0.01226 0.0
C953 C 0.37119 0.82795 0.92081 0.0
C954 C 0.39193 0.82665 0.93108 0.0
C955 C 0.41872 0.82718 -0.02512 0.0
C956 C 0.42418 0.82815 0.00834 0.0
C957 C 0.39736 0.82753 0.96444 0.0
C958 C 0.40764 0.82881 0.03134 0.0
C959 C 0.38652 0.82949 0.02114 0.0
H960 H 0.49641 0.3549 0.49199 0.0
H961 H 0.52184 0.37337 0.39232 0.0
H962 H 0.55975 0.41028 0.41085 0.0
H963 H 0.58462 0.43884 0.45512 0.0
H964 H 0.56002 0.41973 0.55495 0.0
H965 H 0.5231 0.38163 0.53667 0.0
C966 C 0.51037 0.3669 0.47439 0.0
C967 C 0.50615 0.36148 0.44083 0.0
C968 C 0.53228 0.3881 0.48521 0.0
C969 C 0.52454 0.37709 0.41832 0.0
C970 C 0.54623 0.39829 0.42887 0.0
C971 C 0.57127 0.42623 0.47286 0.0
C972 C 0.57496 0.43225 0.50629 0.0
C973 C 0.55012 0.40421 0.46221 0.0
C974 C 0.55762 0.41558 0.52904 0.0
C975 C 0.53643 0.3938 0.51861 0.0
H976 H 0.11364 0.50694 -0.01086 0.0
H977 H 0.11948 0.53294 0.89019 0.0
H978 H 0.11879 0.56975 0.90991 0.0
H979 H 0.11487 0.59388 0.95529 0.0
H980 H 0.11089 0.56864 0.05431 0.0
H981 H 0.1125 0.53235 0.0346 0.0
C982 C 0.11494 0.52075 0.97193 0.0
C983 C 0.11647 0.5171 0.93826 0.0
C984 C 0.11472 0.542 -0.01656 0.0
C985 C 0.11833 0.53528 0.91626 0.0
C986 C 0.11783 0.55631 0.9275 0.0
C987 C 0.11442 0.58045 0.9725 0.0
C988 C 0.11258 0.58388 0.00618 0.0
C989 C 0.11574 0.55974 0.96102 0.0
C990 C 0.11231 0.56646 0.02825 0.0
C991 C 0.11318 0.54566 0.01701 0.0
H992 H 0.49153 0.12278 0.45418 0.0
H993 H 0.51314 0.12673 0.55505 0.0
H994 H 0.55093 0.12666 0.5384 0.0
H995 H 0.57752 0.1244 0.49501 0.0
H996 H 0.55657 0.12248 0.39415 0.0
H997 H 0.51909 0.12286 0.41093 0.0
C998 C 0.50456 0.12371 0.47249 0.0
C999 C 0.49943 0.12461 0.50576 0.0
C1000 C 0.52643 0.12396 0.46275 0.0
C1001 C 0.51663 0.12604 0.52922 0.0
C1002 C 0.53824 0.12593 0.51974 0.0
C1003 C 0.56475 0.12411 0.47676 0.0
C1004 C 0.56979 0.12323 0.44341 0.0
C1005 C 0.54327 0.12471 0.48656 0.0
C1006 C 0.55318 0.12313 0.42002 0.0
C1007 C 0.53167 0.12331 0.42956 0.0
H1008 H 0.51741 0.3876 0.02907 0.0
H1009 H 0.48451 0.35502 0.93597 0.0
H1010 H 0.51973 0.38939 0.90768 0.0
H1011 H 0.55936 0.42925 0.90952 0.0
H1012 H 0.59097 0.46265 0.00281 0.0
H1013 H 0.55676 0.42734 0.03094 0.0
C1014 C 0.518 0.38793 0.00258 0.0
C1015 C 0.49841 0.36875 -0.01537 0.0
C1016 C 0.53805 0.40792 -0.01346 0.0
C1017 C 0.49935 0.36958 0.95033 0.0
C1018 C 0.51948 0.38921 0.93416 0.0
C1019 C 0.55883 0.42871 0.93601 0.0
C1020 C 0.57771 0.44851 0.95407 0.0
C1021 C 0.53886 0.40856 0.95202 0.0
C1022 C 0.57665 0.44767 -0.01164 0.0
C1023 C 0.5571 0.42749 0.00446 0.0
H1024 H 0.11502 0.57547 0.41251 0.0
H1025 H 0.11158 0.60417 0.50732 0.0
H1026 H 0.11345 0.5699 0.53373 0.0
H1027 H 0.11428 0.53088 0.5298 0.0
H1028 H 0.11345 0.49982 0.43505 0.0
H1029 H 0.1151 0.5359 0.40858 0.0
C1030 C 0.11496 0.57432 0.43895 0.0
C1031 C 0.11339 0.59238 0.45802 0.0
C1032 C 0.11514 0.55409 0.4539 0.0
C1033 C 0.11282 0.59047 0.49221 0.0
C1034 C 0.11388 0.5709 0.50728 0.0
C1035 C 0.11468 0.53213 0.50335 0.0
C1036 C 0.11391 0.51284 0.48435 0.0
C1037 C 0.11479 0.55247 0.48838 0.0
C1038 C 0.11403 0.51448 0.45014 0.0
C1039 C 0.11498 0.53508 0.43503 0.0
H1040 H 0.58487 0.12617 0.9554 0.0
H1041 H 0.56062 0.12024 0.05554 0.0
H1042 H 0.5224 0.11877 0.03778 0.0
H1043 H 0.49533 0.11849 -0.00647 0.0
H1044 H 0.52095 0.12691 0.89375 0.0
H1045 H 0.55892 0.12804 0.91156 0.0
C1046 C 0.57124 0.12463 -0.02669 0.0
C1047 C 0.57555 0.12321 0.00668 0.0
C1048 C 0.54942 0.12415 0.96298 0.0
C1049 C 0.55781 0.12143 0.02966 0.0
C1050 C 0.53587 0.1205 0.01953 0.0
C1051 C 0.50925 0.12055 -0.02424 0.0
C1052 C 0.50523 0.12244 0.94239 0.0
C1053 C 0.53139 0.12171 -0.01377 0.0
C1054 C 0.52356 0.12541 0.91962 0.0
C1055 C 0.54531 0.12604 0.92975 0.0
H1056 H 0.43377 0.59668 0.45807 0.0
H1057 H 0.40995 0.57318 0.55721 0.0
H1058 H 0.37274 0.53612 0.53734 0.0
H1059 H 0.34793 0.50911 0.49181 0.0
H1060 H 0.37078 0.5332 0.39265 0.0
H1061 H 0.40717 0.5712 0.41245 0.0
C1062 C 0.42033 0.58353 0.47529 0.0
C1063 C 0.42478 0.58764 0.50906 0.0
C1064 C 0.39878 0.56226 0.4637 0.0
C1065 C 0.40705 0.57052 0.53107 0.0
C1066 C 0.38576 0.54924 0.51975 0.0
C1067 C 0.3608 0.52277 0.47457 0.0
C1068 C 0.35674 0.51822 0.44083 0.0
C1069 C 0.3816 0.54472 0.48612 0.0
C1070 C 0.37345 0.53622 0.41876 0.0
C1071 C 0.39433 0.55794 0.43007 0.0
H1072 H 0.82151 0.36109 -0.0131 0.0
H1073 H 0.81537 0.38171 0.88834 0.0
H1074 H 0.81642 0.41926 0.90855 0.0
H1075 H 0.82024 0.447 0.9543 0.0
H1076 H 0.82484 0.42536 0.05288 0.0
H1077 H 0.82333 0.38766 0.03262 0.0
C1078 C 0.82028 0.37374 0.96986 0.0
C1079 C 0.81848 0.36863 0.93618 0.0
C1080 C 0.82076 0.39526 -0.01835 0.0
C1081 C 0.81674 0.38515 0.91443 0.0
C1082 C 0.81743 0.40671 0.92595 0.0
C1083 C 0.82091 0.43401 0.97128 0.0
C1084 C 0.82279 0.43906 0.005 0.0
C1085 C 0.81966 0.41209 0.9595 0.0
C1086 C 0.82337 0.42192 0.02678 0.0
C1087 C 0.82253 0.40035 0.01524 0.0
H1088 H 0.43284 0.82499 0.49134 0.0
H1089 H 0.41587 0.83203 0.39125 0.0
H1090 H 0.3787 0.833 0.40887 0.0
H1091 H 0.35153 0.8331 0.4531 0.0
H1092 H 0.36754 0.82375 0.55282 0.0
H1093 H 0.40436 0.82239 0.53503 0.0
C1094 C 0.42093 0.82663 0.4734 0.0
C1095 C 0.4272 0.82859 0.44009 0.0
C1096 C 0.39939 0.82683 0.48366 0.0
C1097 C 0.41146 0.83045 0.41707 0.0
C1098 C 0.39022 0.8311 0.42713 0.0
C1099 C 0.36306 0.83069 0.47086 0.0
C1100 C 0.35687 0.8287 0.50424 0.0
C1101 C 0.38409 0.82951 0.4604 0.0
C1102 C 0.37184 0.82532 0.52697 0.0
C1103 C 0.39297 0.82459 0.51684 0.0
loop_
_geom_bond_atom_site_label_1
_geom_bond_atom_site_label_2
_geom_bond_distance
_geom_bond_site_symmetry_2
_ccdc_geom_bond_type
C0 O1 1.306 . S
C0 O3 1.160 . S
O1 C0 1.306 . S
O1 Cd2 2.228 . S
Cd2 O1 2.228 . S
Cd2 O6 2.273 . S
Cd2 O10 2.277 . S
O3 C0 1.160 . S
O3 Cd4 2.203 . S
Cd4 O3 2.203 . S
Cd4 O6 2.411 . S
Cd4 O7 2.333 . S
Cd4 O8 2.352 . S
Cd4 O12 2.277 . S
Cd4 O13 2.356 . S
C5 O10 1.209 . S
C5 O12 1.226 . S
O6 Cd2 2.273 . S
O6 Cd4 2.411 . S
O6 C9 1.320 . S
O7 Cd4 2.333 . S
O7 C9 1.214 . S
O8 Cd4 2.352 . S
O8 C11 1.258 . S
C9 O6 1.320 . S
C9 O7 1.214 . S
O10 Cd2 2.277 . S
O10 C5 1.209 . S
C11 O8 1.258 . S
C11 O13 1.282 . S
O12 Cd4 2.277 . S
O12 C5 1.226 . S
O13 Cd4 2.356 . S
O13 C11 1.282 . S
C14 O15 1.306 . S
C14 O17 1.160 . S
O15 C14 1.306 . S
O15 Cd16 2.228 . S
Cd16 O15 2.228 . S
Cd16 O20 2.273 . S
Cd16 O24 2.277 . S
O17 C14 1.160 . S
O17 Cd18 2.203 . S
Cd18 O17 2.203 . S
Cd18 O20 2.411 . S
Cd18 O21 2.333 . S
Cd18 O22 2.352 . S
Cd18 O26 2.277 . S
Cd18 O27 2.356 . S
C19 O24 1.209 . S
C19 O26 1.226 . S
O20 Cd16 2.273 . S
O20 Cd18 2.411 . S
O20 C23 1.320 . S
O21 Cd18 2.333 . S
O21 C23 1.214 . S
O22 Cd18 2.352 . S
O22 C25 1.258 . S
C23 O20 1.320 . S
C23 O21 1.214 . S
O24 Cd16 2.277 . S
O24 C19 1.209 . S
C25 O22 1.258 . S
C25 O27 1.282 . S
O26 Cd18 2.277 . S
O26 C19 1.226 . S
O27 Cd18 2.356 . S
O27 C25 1.282 . S
C28 O29 1.306 . S
C28 O31 1.160 . S
O29 C28 1.306 . S
O29 Cd30 2.228 . S
Cd30 O29 2.228 . S
Cd30 O34 2.273 . S
Cd30 O38 2.277 . S
O31 C28 1.160 . S
O31 Cd32 2.203 . S
Cd32 O31 2.203 . S
Cd32 O34 2.411 . S
Cd32 O35 2.333 . S
Cd32 O36 2.352 . S
Cd32 O40 2.277 . S
Cd32 O41 2.356 . S
C33 O38 1.209 . S
C33 O40 1.226 . S
O34 Cd30 2.273 . S
O34 Cd32 2.411 . S
O34 C37 1.320 . S
O35 Cd32 2.333 . S
O35 C37 1.214 . S
O36 Cd32 2.352 . S
O36 C39 1.258 . S
C37 O34 1.320 . S
C37 O35 1.214 . S
O38 Cd30 2.277 . S
O38 C33 1.209 . S
C39 O36 1.258 . S
C39 O41 1.282 . S
O40 Cd32 2.277 . S
O40 C33 1.226 . S
O41 Cd32 2.356 . S
O41 C39 1.282 . S
C42 O43 1.306 . S
C42 O45 1.160 . S
O43 C42 1.306 . S
O43 Cd44 2.228 . S
Cd44 O43 2.228 . S
Cd44 O48 2.273 . S
Cd44 O52 2.277 . S
O45 C42 1.160 . S
O45 Cd46 2.203 . S
Cd46 O45 2.203 . S
Cd46 O48 2.411 . S
Cd46 O49 2.333 . S
Cd46 O50 2.352 . S
Cd46 O54 2.277 . S
Cd46 O55 2.356 . S
C47 O52 1.209 . S
C47 O54 1.226 . S
O48 Cd44 2.273 . S
O48 Cd46 2.411 . S
O48 C51 1.320 . S
O49 Cd46 2.333 . S
O49 C51 1.214 . S
O50 Cd46 2.352 . S
O50 C53 1.258 . S
C51 O48 1.320 . S
C51 O49 1.214 . S
O52 Cd44 2.277 . S
O52 C47 1.209 . S
C53 O50 1.258 . S
C53 O55 1.282 . S
O54 Cd46 2.277 . S
O54 C47 1.226 . S
O55 Cd46 2.356 . S
O55 C53 1.282 . S
C56 O57 1.306 . S
C56 O59 1.160 . S
O57 C56 1.306 . S
O57 Cd58 2.228 . S
Cd58 O57 2.228 . S
Cd58 O62 2.273 . S
Cd58 O66 2.277 . S
O59 C56 1.160 . S
O59 Cd60 2.203 . S
Cd60 O59 2.203 . S
Cd60 O62 2.411 . S
Cd60 O63 2.333 . S
Cd60 O64 2.352 . S
Cd60 O68 2.277 . S
Cd60 O69 2.356 . S
C61 O66 1.209 . S
C61 O68 1.226 . S
O62 Cd58 2.273 . S
O62 Cd60 2.411 . S
O62 C65 1.320 . S
O63 Cd60 2.333 . S
O63 C65 1.214 . S
O64 Cd60 2.352 . S
O64 C67 1.258 . S
C65 O62 1.320 . S
C65 O63 1.214 . S
O66 Cd58 2.277 . S
O66 C61 1.209 . S
C67 O64 1.258 . S
C67 O69 1.282 . S
O68 Cd60 2.277 . S
O68 C61 1.226 . S
O69 Cd60 2.356 . S
O69 C67 1.282 . S
C70 O71 1.306 . S
C70 O73 1.160 . S
O71 C70 1.306 . S
O71 Cd72 2.228 . S
Cd72 O71 2.228 . S
Cd72 O76 2.273 . S
Cd72 O80 2.277 . S
O73 C70 1.160 . S
O73 Cd74 2.203 . S
Cd74 O73 2.203 . S
Cd74 O76 2.411 . S
Cd74 O77 2.333 . S
Cd74 O78 2.352 . S
Cd74 O82 2.277 . S
Cd74 O83 2.356 . S
C75 O80 1.209 . S
C75 O82 1.226 . S
O76 Cd72 2.273 . S
O76 Cd74 2.411 . S
O76 C79 1.320 . S
O77 Cd74 2.333 . S
O77 C79 1.214 . S
O78 Cd74 2.352 . S
O78 C81 1.258 . S
C79 O76 1.320 . S
C79 O77 1.214 . S
O80 Cd72 2.277 . S
O80 C75 1.209 . S
C81 O78 1.258 . S
C81 O83 1.282 . S
O82 Cd74 2.277 . S
O82 C75 1.226 . S
O83 Cd74 2.356 . S
O83 C81 1.282 . S
C84 O85 1.306 . S
C84 O87 1.160 . S
O85 C84 1.306 . S
O85 Cd86 2.228 . S
Cd86 O85 2.228 . S
Cd86 O90 2.273 . S
Cd86 O94 2.277 . S
O87 C84 1.160 . S
O87 Cd88 2.203 . S
Cd88 O87 2.203 . S
Cd88 O90 2.411 . S
Cd88 O91 2.333 . S
Cd88 O92 2.352 . S
Cd88 O96 2.277 . S
Cd88 O97 2.356 . S
C89 O94 1.209 . S
C89 O96 1.226 . S
O90 Cd86 2.273 . S
O90 Cd88 2.411 . S
O90 C93 1.320 . S
O91 Cd88 2.333 . S
O91 C93 1.214 . S
O92 Cd88 2.352 . S
O92 C95 1.258 . S
C93 O90 1.320 . S
C93 O91 1.214 . S
O94 Cd86 2.277 . S
O94 C89 1.209 . S
C95 O92 1.258 . S
C95 O97 1.282 . S
O96 Cd88 2.277 . S
O96 C89 1.226 . S
O97 Cd88 2.356 . S
O97 C95 1.282 . S
C98 O99 1.306 . S
C98 O101 1.160 . S
O99 C98 1.306 . S
O99 Cd100 2.228 . S
Cd100 O99 2.228 . S
Cd100 O104 2.273 . S
Cd100 O108 2.277 . S
O101 C98 1.160 . S
O101 Cd102 2.203 . S
Cd102 O101 2.203 . S
Cd102 O104 2.411 . S
Cd102 O105 2.333 . S
Cd102 O106 2.352 . S
Cd102 O110 2.277 . S
Cd102 O111 2.356 . S
C103 O108 1.209 . S
C103 O110 1.226 . S
O104 Cd100 2.273 . S
O104 Cd102 2.411 . S
O104 C107 1.320 . S
O105 Cd102 2.333 . S
O105 C107 1.214 . S
O106 Cd102 2.352 . S
O106 C109 1.258 . S
C107 O104 1.320 . S
C107 O105 1.214 . S
O108 Cd100 2.277 . S
O108 C103 1.209 . S
C109 O106 1.258 . S
C109 O111 1.282 . S
O110 Cd102 2.277 . S
O110 C103 1.226 . S
O111 Cd102 2.356 . S
O111 C109 1.282 . S
C112 O113 1.306 . S
C112 O115 1.160 . S
O113 C112 1.306 . S
O113 Cd114 2.228 . S
Cd114 O113 2.228 . S
Cd114 O118 2.273 . S
Cd114 O122 2.277 . S
O115 C112 1.160 . S
O115 Cd116 2.203 . S
Cd116 O115 2.203 . S
Cd116 O118 2.411 . S
Cd116 O119 2.333 . S
Cd116 O120 2.352 . S
Cd116 O124 2.277 . S
Cd116 O125 2.356 . S
C117 O122 1.209 . S
C117 O124 1.226 . S
O118 Cd114 2.273 . S
O118 Cd116 2.411 . S
O118 C121 1.320 . S
O119 Cd116 2.333 . S
O119 C121 1.214 . S
O120 Cd116 2.352 . S
O120 C123 1.258 . S
C121 O118 1.320 . S
C121 O119 1.214 . S
O122 Cd114 2.277 . S
O122 C117 1.209 . S
C123 O120 1.258 . S
C123 O125 1.282 . S
O124 Cd116 2.277 . S
O124 C117 1.226 . S
O125 Cd116 2.356 . S
O125 C123 1.282 . S
C126 O127 1.306 . S
C126 O129 1.160 . S
O127 C126 1.306 . S
O127 Cd128 2.228 . S
Cd128 O127 2.228 . S
Cd128 O132 2.273 . S
Cd128 O136 2.277 . S
O129 C126 1.160 . S
O129 Cd130 2.203 . S
Cd130 O129 2.203 . S
Cd130 O132 2.411 . S
Cd130 O133 2.333 . S
Cd130 O134 2.352 . S
Cd130 O138 2.277 . S
Cd130 O139 2.356 . S
C131 O136 1.209 . S
C131 O138 1.226 . S
O132 Cd128 2.273 . S
O132 Cd130 2.411 . S
O132 C135 1.320 . S
O133 Cd130 2.333 . S
O133 C135 1.214 . S
O134 Cd130 2.352 . S
O134 C137 1.258 . S
C135 O132 1.320 . S
C135 O133 1.214 . S
O136 Cd128 2.277 . S
O136 C131 1.209 . S
C137 O134 1.258 . S
C137 O139 1.282 . S
O138 Cd130 2.277 . S
O138 C131 1.226 . S
O139 Cd130 2.356 . S
O139 C137 1.282 . S
C140 O141 1.306 . S
C140 O143 1.160 . S
O141 C140 1.306 . S
O141 Cd142 2.228 . S
Cd142 O141 2.228 . S
Cd142 O146 2.273 . S
Cd142 O150 2.277 . S
O143 C140 1.160 . S
O143 Cd144 2.203 . S
Cd144 O143 2.203 . S
Cd144 O146 2.411 . S
Cd144 O147 2.333 . S
Cd144 O148 2.352 . S
Cd144 O152 2.277 . S
Cd144 O153 2.356 . S
C145 O150 1.209 . S
C145 O152 1.226 . S
O146 Cd142 2.273 . S
O146 Cd144 2.411 . S
O146 C149 1.320 . S
O147 Cd144 2.333 . S
O147 C149 1.214 . S
O148 Cd144 2.352 . S
O148 C151 1.258 . S
C149 O146 1.320 . S
C149 O147 1.214 . S
O150 Cd142 2.277 . S
O150 C145 1.209 . S
C151 O148 1.258 . S
C151 O153 1.282 . S
O152 Cd144 2.277 . S
O152 C145 1.226 . S
O153 Cd144 2.356 . S
O153 C151 1.282 . S
C154 O155 1.306 . S
C154 O157 1.160 . S
O155 C154 1.306 . S
O155 Cd156 2.228 . S
Cd156 O155 2.228 . S
Cd156 O160 2.273 . S
Cd156 O164 2.277 . S
O157 C154 1.160 . S
O157 Cd158 2.203 . S
Cd158 O157 2.203 . S
Cd158 O160 2.411 . S
Cd158 O161 2.333 . S
Cd158 O162 2.352 . S
Cd158 O166 2.277 . S
Cd158 O167 2.356 . S
C159 O164 1.209 . S
C159 O166 1.226 . S
O160 Cd156 2.273 . S
O160 Cd158 2.411 . S
O160 C163 1.320 . S
O161 Cd158 2.333 . S
O161 C163 1.214 . S
O162 Cd158 2.352 . S
O162 C165 1.258 . S
C163 O160 1.320 . S
C163 O161 1.214 . S
O164 Cd156 2.277 . S
O164 C159 1.209 . S
C165 O162 1.258 . S
C165 O167 1.282 . S
O166 Cd158 2.277 . S
O166 C159 1.226 . S
O167 Cd158 2.356 . S
O167 C165 1.282 . S
C168 O169 1.306 . S
C168 O171 1.160 . S
O169 C168 1.306 . S
O169 Cd170 2.228 . S
Cd170 O169 2.228 . S
Cd170 O174 2.273 . S
Cd170 O178 2.277 . S
O171 C168 1.160 . S
O171 Cd172 2.203 . S
Cd172 O171 2.203 . S
Cd172 O174 2.411 . S
Cd172 O175 2.333 . S
Cd172 O176 2.352 . S
Cd172 O180 2.277 . S
Cd172 O181 2.356 . S
C173 O178 1.209 . S
C173 O180 1.226 . S
O174 Cd170 2.273 . S
O174 Cd172 2.411 . S
O174 C177 1.320 . S
O175 Cd172 2.333 . S
O175 C177 1.214 . S
O176 Cd172 2.352 . S
O176 C179 1.258 . S
C177 O174 1.320 . S
C177 O175 1.214 . S
O178 Cd170 2.277 . S
O178 C173 1.209 . S
C179 O176 1.258 . S
C179 O181 1.282 . S
O180 Cd172 2.277 . S
O180 C173 1.226 . S
O181 Cd172 2.356 . S
O181 C179 1.282 . S
C182 O183 1.306 . S
C182 O185 1.160 . S
O183 C182 1.306 . S
O183 Cd184 2.228 . S
Cd184 O183 2.228 . S
Cd184 O188 2.273 . S
Cd184 O192 2.277 . S
O185 C182 1.160 . S
O185 Cd186 2.203 . S
Cd186 O185 2.203 . S
Cd186 O188 2.411 . S
Cd186 O189 2.333 . S
Cd186 O190 2.352 . S
Cd186 O194 2.277 . S
Cd186 O195 2.356 . S
C187 O192 1.209 . S
C187 O194 1.226 . S
O188 Cd184 2.273 . S
O188 Cd186 2.411 . S
O188 C191 1.320 . S
O189 Cd186 2.333 . S
O189 C191 1.214 . S
O190 Cd186 2.352 . S
O190 C193 1.258 . S
C191 O188 1.320 . S
C191 O189 1.214 . S
O192 Cd184 2.277 . S
O192 C187 1.209 . S
C193 O190 1.258 . S
C193 O195 1.282 . S
O194 Cd186 2.277 . S
O194 C187 1.226 . S
O195 Cd186 2.356 . S
O195 C193 1.282 . S
C196 O197 1.306 . S
C196 O199 1.160 . S
O197 C196 1.306 . S
O197 Cd198 2.228 . S
Cd198 O197 2.228 . S
Cd198 O202 2.273 . S
Cd198 O206 2.277 . S
O199 C196 1.160 . S
O199 Cd200 2.203 . S
Cd200 O199 2.203 . S
Cd200 O202 2.411 . S
Cd200 O203 2.333 . S
Cd200 O204 2.352 . S
Cd200 O208 2.277 . S
Cd200 O209 2.356 . S
C201 O206 1.209 . S
C201 O208 1.226 . S
O202 Cd198 2.273 . S
O202 Cd200 2.411 . S
O202 C205 1.320 . S
O203 Cd200 2.333 . S
O203 C205 1.214 . S
O204 Cd200 2.352 . S
O204 C207 1.258 . S
C205 O202 1.320 . S
C205 O203 1.214 . S
O206 Cd198 2.277 . S
O206 C201 1.209 . S
C207 O204 1.258 . S
C207 O209 1.282 . S
O208 Cd200 2.277 . S
O208 C201 1.226 . S
O209 Cd200 2.356 . S
O209 C207 1.282 . S
C210 O211 1.306 . S
C210 O213 1.160 . S
O211 C210 1.306 . S
O211 Cd212 2.228 . S
Cd212 O211 2.228 . S
Cd212 O216 2.273 . S
Cd212 O220 2.277 . S
O213 C210 1.160 . S
O213 Cd214 2.203 . S
Cd214 O213 2.203 . S
Cd214 O216 2.411 . S
Cd214 O217 2.333 . S
Cd214 O218 2.352 . S
Cd214 O222 2.277 . S
Cd214 O223 2.356 . S
C215 O220 1.209 . S
C215 O222 1.226 . S
O216 Cd212 2.273 . S
O216 Cd214 2.411 . S
O216 C219 1.320 . S
O217 Cd214 2.333 . S
O217 C219 1.214 . S
O218 Cd214 2.352 . S
O218 C221 1.258 . S
C219 O216 1.320 . S
C219 O217 1.214 . S
O220 Cd212 2.277 . S
O220 C215 1.209 . S
C221 O218 1.258 . S
C221 O223 1.282 . S
O222 Cd214 2.277 . S
O222 C215 1.226 . S
O223 Cd214 2.356 . S
O223 C221 1.282 . S
C224 O225 1.306 . S
C224 O227 1.160 . S
O225 C224 1.306 . S
O225 Cd226 2.228 . S
Cd226 O225 2.228 . S
Cd226 O230 2.273 . S
Cd226 O234 2.277 . S
O227 C224 1.160 . S
O227 Cd228 2.203 . S
Cd228 O227 2.203 . S
Cd228 O230 2.411 . S
Cd228 O231 2.333 . S
Cd228 O232 2.352 . S
Cd228 O236 2.277 . S
Cd228 O237 2.356 . S
C229 O234 1.209 . S
C229 O236 1.226 . S
O230 Cd226 2.273 . S
O230 Cd228 2.411 . S
O230 C233 1.320 . S
O231 Cd228 2.333 . S
O231 C233 1.214 . S
O232 Cd228 2.352 . S
O232 C235 1.258 . S
C233 O230 1.320 . S
C233 O231 1.214 . S
O234 Cd226 2.277 . S
O234 C229 1.209 . S
C235 O232 1.258 . S
C235 O237 1.282 . S
O236 Cd228 2.277 . S
O236 C229 1.226 . S
O237 Cd228 2.356 . S
O237 C235 1.282 . S
C238 O239 1.306 . S
C238 O241 1.160 . S
O239 C238 1.306 . S
O239 Cd240 2.228 . S
Cd240 O239 2.228 . S
Cd240 O244 2.273 . S
Cd240 O248 2.277 . S
O241 C238 1.160 . S
O241 Cd242 2.203 . S
Cd242 O241 2.203 . S
Cd242 O244 2.411 . S
Cd242 O245 2.333 . S
Cd242 O246 2.352 . S
Cd242 O250 2.277 . S
Cd242 O251 2.356 . S
C243 O248 1.209 . S
C243 O250 1.226 . S
O244 Cd240 2.273 . S
O244 Cd242 2.411 . S
O244 C247 1.320 . S
O245 Cd242 2.333 . S
O245 C247 1.214 . S
O246 Cd242 2.352 . S
O246 C249 1.258 . S
C247 O244 1.320 . S
C247 O245 1.214 . S
O248 Cd240 2.277 . S
O248 C243 1.209 . S
C249 O246 1.258 . S
C249 O251 1.282 . S
O250 Cd242 2.277 . S
O250 C243 1.226 . S
O251 Cd242 2.356 . S
O251 C249 1.282 . S
C252 O253 1.306 . S
C252 O255 1.160 . S
O253 C252 1.306 . S
O253 Cd254 2.228 . S
Cd254 O253 2.228 . S
Cd254 O258 2.273 . S
Cd254 O262 2.277 . S
O255 C252 1.160 . S
O255 Cd256 2.203 . S
Cd256 O255 2.203 . S
Cd256 O258 2.411 . S
Cd256 O259 2.333 . S
Cd256 O260 2.352 . S
Cd256 O264 2.277 . S
Cd256 O265 2.356 . S
C257 O262 1.209 . S
C257 O264 1.226 . S
O258 Cd254 2.273 . S
O258 Cd256 2.411 . S
O258 C261 1.320 . S
O259 Cd256 2.333 . S
O259 C261 1.214 . S
O260 Cd256 2.352 . S
O260 C263 1.258 . S
C261 O258 1.320 . S
C261 O259 1.214 . S
O262 Cd254 2.277 . S
O262 C257 1.209 . S
C263 O260 1.258 . S
C263 O265 1.282 . S
O264 Cd256 2.277 . S
O264 C257 1.226 . S
O265 Cd256 2.356 . S
O265 C263 1.282 . S
C266 O267 1.306 . S
C266 O269 1.160 . S
O267 C266 1.306 . S
O267 Cd268 2.228 . S
Cd268 O267 2.228 . S
Cd268 O272 2.273 . S
Cd268 O276 2.277 . S
O269 C266 1.160 . S
O269 Cd270 2.203 . S
Cd270 O269 2.203 . S
Cd270 O272 2.411 . S
Cd270 O273 2.333 . S
Cd270 O274 2.352 . S
Cd270 O278 2.277 . S
Cd270 O279 2.356 . S
C271 O276 1.209 . S
C271 O278 1.226 . S
O272 Cd268 2.273 . S
O272 Cd270 2.411 . S
O272 C275 1.320 . S
O273 Cd270 2.333 . S
O273 C275 1.214 . S
O274 Cd270 2.352 . S
O274 C277 1.258 . S
C275 O272 1.320 . S
C275 O273 1.214 . S
O276 Cd268 2.277 . S
O276 C271 1.209 . S
C277 O274 1.258 . S
C277 O279 1.282 . S
O278 Cd270 2.277 . S
O278 C271 1.226 . S
O279 Cd270 2.356 . S
O279 C277 1.282 . S
C280 O281 1.306 . S
C280 O283 1.160 . S
O281 C280 1.306 . S
O281 Cd282 2.228 . S
Cd282 O281 2.228 . S
Cd282 O286 2.273 . S
Cd282 O290 2.277 . S
O283 C280 1.160 . S
O283 Cd284 2.203 . S
Cd284 O283 2.203 . S
Cd284 O286 2.411 . S
Cd284 O287 2.333 . S
Cd284 O288 2.352 . S
Cd284 O292 2.277 . S
Cd284 O293 2.356 . S
C285 O290 1.209 . S
C285 O292 1.226 . S
O286 Cd282 2.273 . S
O286 Cd284 2.411 . S
O286 C289 1.320 . S
O287 Cd284 2.333 . S
O287 C289 1.214 . S
O288 Cd284 2.352 . S
O288 C291 1.258 . S
C289 O286 1.320 . S
C289 O287 1.214 . S
O290 Cd282 2.277 . S
O290 C285 1.209 . S
C291 O288 1.258 . S
C291 O293 1.282 . S
O292 Cd284 2.277 . S
O292 C285 1.226 . S
O293 Cd284 2.356 . S
O293 C291 1.282 . S
C294 O295 1.306 . S
C294 O297 1.160 . S
O295 C294 1.306 . S
O295 Cd296 2.228 . S
Cd296 O295 2.228 . S
Cd296 O300 2.273 . S
Cd296 O304 2.277 . S
O297 C294 1.160 . S
O297 Cd298 2.203 . S
Cd298 O297 2.203 . S
Cd298 O300 2.411 . S
Cd298 O301 2.333 . S
Cd298 O302 2.352 . S
Cd298 O306 2.277 . S
Cd298 O307 2.356 . S
C299 O304 1.209 . S
C299 O306 1.226 . S
O300 Cd296 2.273 . S
O300 Cd298 2.411 . S
O300 C303 1.320 . S
O301 Cd298 2.333 . S
O301 C303 1.214 . S
O302 Cd298 2.352 . S
O302 C305 1.258 . S
C303 O300 1.320 . S
C303 O301 1.214 . S
O304 Cd296 2.277 . S
O304 C299 1.209 . S
C305 O302 1.258 . S
C305 O307 1.282 . S
O306 Cd298 2.277 . S
O306 C299 1.226 . S
O307 Cd298 2.356 . S
O307 C305 1.282 . S
C308 O309 1.306 . S
C308 O311 1.160 . S
O309 C308 1.306 . S
O309 Cd310 2.228 . S
Cd310 O309 2.228 . S
Cd310 O314 2.273 . S
Cd310 O318 2.277 . S
O311 C308 1.160 . S
O311 Cd312 2.203 . S
Cd312 O311 2.203 . S
Cd312 O314 2.411 . S
Cd312 O315 2.333 . S
Cd312 O316 2.352 . S
Cd312 O320 2.277 . S
Cd312 O321 2.356 . S
C313 O318 1.209 . S
C313 O320 1.226 . S
O314 Cd310 2.273 . S
O314 Cd312 2.411 . S
O314 C317 1.320 . S
O315 Cd312 2.333 . S
O315 C317 1.214 . S
O316 Cd312 2.352 . S
O316 C319 1.258 . S
C317 O314 1.320 . S
C317 O315 1.214 . S
O318 Cd310 2.277 . S
O318 C313 1.209 . S
C319 O316 1.258 . S
C319 O321 1.282 . S
O320 Cd312 2.277 . S
O320 C313 1.226 . S
O321 Cd312 2.356 . S
O321 C319 1.282 . S
C322 O323 1.306 . S
C322 O325 1.160 . S
O323 C322 1.306 . S
O323 Cd324 2.228 . S
Cd324 O323 2.228 . S
Cd324 O328 2.273 . S
Cd324 O332 2.277 . S
O325 C322 1.160 . S
O325 Cd326 2.203 . S
Cd326 O325 2.203 . S
Cd326 O328 2.411 . S
Cd326 O329 2.333 . S
Cd326 O330 2.352 . S
Cd326 O334 2.277 . S
Cd326 O335 2.356 . S
C327 O332 1.209 . S
C327 O334 1.226 . S
O328 Cd324 2.273 . S
O328 Cd326 2.411 . S
O328 C331 1.320 . S
O329 Cd326 2.333 . S
O329 C331 1.214 . S
O330 Cd326 2.352 . S
O330 C333 1.258 . S
C331 O328 1.320 . S
C331 O329 1.214 . S
O332 Cd324 2.277 . S
O332 C327 1.209 . S
C333 O330 1.258 . S
C333 O335 1.282 . S
O334 Cd326 2.277 . S
O334 C327 1.226 . S
O335 Cd326 2.356 . S
O335 C333 1.282 . S
H336 C342 0.930 . S
H337 C345 0.930 . S
H338 C346 0.930 . S
H339 C347 0.930 . S
H340 C350 0.930 . S
H341 C351 0.930 . S
C342 H336 0.930 . S
C342 C343 1.355 . S
C342 C344 1.415 . S
C343 C342 1.355 . S
C343 C345 1.419 . S
C344 C342 1.415 . S
C344 C349 1.425 . S
C344 C351 1.409 . S
C345 H337 0.930 . S
C345 C343 1.419 . S
C345 C346 1.362 . S
C346 H338 0.930 . S
C346 C345 1.362 . S
C346 C349 1.409 . S
C347 H339 0.930 . S
C347 C348 1.355 . S
C347 C349 1.415 . S
C348 C347 1.355 . S
C348 C350 1.419 . S
C349 C344 1.425 . S
C349 C346 1.409 . S
C349 C347 1.415 . S
C350 H340 0.930 . S
C350 C348 1.419 . S
C350 C351 1.362 . S
C351 H341 0.930 . S
C351 C344 1.409 . S
C351 C350 1.362 . S
H352 C358 0.930 . S
H353 C361 0.930 . S
H354 C362 0.930 . S
H355 C363 0.930 . S
H356 C366 0.930 . S
H357 C367 0.930 . S
C358 H352 0.930 . S
C358 C359 1.355 . S
C358 C360 1.415 . S
C359 C358 1.355 . S
C359 C361 1.419 . S
C360 C358 1.415 . S
C360 C365 1.425 . S
C360 C367 1.409 . S
C361 H353 0.930 . S
C361 C359 1.419 . S
C361 C362 1.362 . S
C362 H354 0.930 . S
C362 C361 1.362 . S
C362 C365 1.409 . S
C363 H355 0.930 . S
C363 C364 1.355 . S
C363 C365 1.415 . S
C364 C363 1.355 . S
C364 C366 1.419 . S
C365 C360 1.425 . S
C365 C362 1.409 . S
C365 C363 1.415 . S
C366 H356 0.930 . S
C366 C364 1.419 . S
C366 C367 1.362 . S
C367 H357 0.930 . S
C367 C360 1.409 . S
C367 C366 1.362 . S
H368 C374 0.930 . S
H369 C377 0.930 . S
H370 C378 0.930 . S
H371 C379 0.930 . S
H372 C382 0.930 . S
H373 C383 0.930 . S
C374 H368 0.930 . S
C374 C375 1.355 . S
C374 C376 1.415 . S
C375 C374 1.355 . S
C375 C377 1.419 . S
C376 C374 1.415 . S
C376 C381 1.425 . S
C376 C383 1.409 . S
C377 H369 0.930 . S
C377 C375 1.419 . S
C377 C378 1.362 . S
C378 H370 0.930 . S
C378 C377 1.362 . S
C378 C381 1.409 . S
C379 H371 0.930 . S
C379 C380 1.355 . S
C379 C381 1.415 . S
C380 C379 1.355 . S
C380 C382 1.419 . S
C381 C376 1.425 . S
C381 C378 1.409 . S
C381 C379 1.415 . S
C382 H372 0.930 . S
C382 C380 1.419 . S
C382 C383 1.362 . S
C383 H373 0.930 . S
C383 C376 1.409 . S
C383 C382 1.362 . S
H384 C390 0.930 . S
H385 C393 0.930 . S
H386 C394 0.930 . S
H387 C395 0.930 . S
H388 C398 0.930 . S
H389 C399 0.930 . S
C390 H384 0.930 . S
C390 C391 1.355 . S
C390 C392 1.415 . S
C391 C390 1.355 . S
C391 C393 1.419 . S
C392 C390 1.415 . S
C392 C397 1.425 . S
C392 C399 1.409 . S
C393 H385 0.930 . S
C393 C391 1.419 . S
C393 C394 1.362 . S
C394 H386 0.930 . S
C394 C393 1.362 . S
C394 C397 1.409 . S
C395 H387 0.930 . S
C395 C396 1.355 . S
C395 C397 1.415 . S
C396 C395 1.355 . S
C396 C398 1.419 . S
C397 C392 1.425 . S
C397 C394 1.409 . S
C397 C395 1.415 . S
C398 H388 0.930 . S
C398 C396 1.419 . S
C398 C399 1.362 . S
C399 H389 0.930 . S
C399 C392 1.409 . S
C399 C398 1.362 . S
H400 C406 0.930 . S
H401 C409 0.930 . S
H402 C410 0.930 . S
H403 C411 0.930 . S
H404 C414 0.930 . S
H405 C415 0.930 . S
C406 H400 0.930 . S
C406 C407 1.355 . S
C406 C408 1.415 . S
C407 C406 1.355 . S
C407 C409 1.419 . S
C408 C406 1.415 . S
C408 C413 1.425 . S
C408 C415 1.409 . S
C409 H401 0.930 . S
C409 C407 1.419 . S
C409 C410 1.362 . S
C410 H402 0.930 . S
C410 C409 1.362 . S
C410 C413 1.409 . S
C411 H403 0.930 . S
C411 C412 1.355 . S
C411 C413 1.415 . S
C412 C411 1.355 . S
C412 C414 1.419 . S
C413 C408 1.425 . S
C413 C410 1.409 . S
C413 C411 1.415 . S
C414 H404 0.930 . S
C414 C412 1.419 . S
C414 C415 1.362 . S
C415 H405 0.930 . S
C415 C408 1.409 . S
C415 C414 1.362 . S
H416 C422 0.930 . S
H417 C425 0.930 . S
H418 C426 0.930 . S
H419 C427 0.930 . S
H420 C430 0.930 . S
H421 C431 0.930 . S
C422 H416 0.930 . S
C422 C423 1.355 . S
C422 C424 1.415 . S
C423 C422 1.355 . S
C423 C425 1.419 . S
C424 C422 1.415 . S
C424 C429 1.425 . S
C424 C431 1.409 . S
C425 H417 0.930 . S
C425 C423 1.419 . S
C425 C426 1.362 . S
C426 H418 0.930 . S
C426 C425 1.362 . S
C426 C429 1.409 . S
C427 H419 0.930 . S
C427 C428 1.355 . S
C427 C429 1.415 . S
C428 C427 1.355 . S
C428 C430 1.419 . S
C429 C424 1.425 . S
C429 C426 1.409 . S
C429 C427 1.415 . S
C430 H420 0.930 . S
C430 C428 1.419 . S
C430 C431 1.362 . S
C431 H421 0.930 . S
C431 C424 1.409 . S
C431 C430 1.362 . S
H432 C438 0.930 . S
H433 C441 0.930 . S
H434 C442 0.930 . S
H435 C443 0.930 . S
H436 C446 0.930 . S
H437 C447 0.930 . S
C438 H432 0.930 . S
C438 C439 1.355 . S
C438 C440 1.415 . S
C439 C438 1.355 . S
C439 C441 1.419 . S
C440 C438 1.415 . S
C440 C445 1.425 . S
C440 C447 1.409 . S
C441 H433 0.930 . S
C441 C439 1.419 . S
C441 C442 1.362 . S
C442 H434 0.930 . S
C442 C441 1.362 . S
C442 C445 1.409 . S
C443 H435 0.930 . S
C443 C444 1.355 . S
C443 C445 1.415 . S
C444 C443 1.355 . S
C444 C446 1.419 . S
C445 C440 1.425 . S
C445 C442 1.409 . S
C445 C443 1.415 . S
C446 H436 0.930 . S
C446 C444 1.419 . S
C446 C447 1.362 . S
C447 H437 0.930 . S
C447 C440 1.409 . S
C447 C446 1.362 . S
H448 C454 0.930 . S
H449 C457 0.930 . S
H450 C458 0.930 . S
H451 C459 0.930 . S
H452 C462 0.930 . S
H453 C463 0.930 . S
C454 H448 0.930 . S
C454 C455 1.355 . S
C454 C456 1.415 . S
C455 C454 1.355 . S
C455 C457 1.419 . S
C456 C454 1.415 . S
C456 C461 1.425 . S
C456 C463 1.409 . S
C457 H449 0.930 . S
C457 C455 1.419 . S
C457 C458 1.362 . S
C458 H450 0.930 . S
C458 C457 1.362 . S
C458 C461 1.409 . S
C459 H451 0.930 . S
C459 C460 1.355 . S
C459 C461 1.415 . S
C460 C459 1.355 . S
C460 C462 1.419 . S
C461 C456 1.425 . S
C461 C458 1.409 . S
C461 C459 1.415 . S
C462 H452 0.930 . S
C462 C460 1.419 . S
C462 C463 1.362 . S
C463 H453 0.930 . S
C463 C456 1.409 . S
C463 C462 1.362 . S
H464 C470 0.930 . S
H465 C473 0.930 . S
H466 C474 0.930 . S
H467 C475 0.930 . S
H468 C478 0.930 . S
H469 C479 0.930 . S
C470 H464 0.930 . S
C470 C471 1.355 . S
C470 C472 1.415 . S
C471 C470 1.355 . S
C471 C473 1.419 . S
C472 C470 1.415 . S
C472 C477 1.425 . S
C472 C479 1.409 . S
C473 H465 0.930 . S
C473 C471 1.419 . S
C473 C474 1.362 . S
C474 H466 0.930 . S
C474 C473 1.362 . S
C474 C477 1.409 . S
C475 H467 0.930 . S
C475 C476 1.355 . S
C475 C477 1.415 . S
C476 C475 1.355 . S
C476 C478 1.419 . S
C477 C472 1.425 . S
C477 C474 1.409 . S
C477 C475 1.415 . S
C478 H468 0.930 . S
C478 C476 1.419 . S
C478 C479 1.362 . S
C479 H469 0.930 . S
C479 C472 1.409 . S
C479 C478 1.362 . S
H480 C486 0.930 . S
H481 C489 0.930 . S
H482 C490 0.930 . S
H483 C491 0.930 . S
H484 C494 0.930 . S
H485 C495 0.930 . S
C486 H480 0.930 . S
C486 C487 1.355 . S
C486 C488 1.415 . S
C487 C486 1.355 . S
C487 C489 1.419 . S
C488 C486 1.415 . S
C488 C493 1.425 . S
C488 C495 1.409 . S
C489 H481 0.930 . S
C489 C487 1.419 . S
C489 C490 1.362 . S
C490 H482 0.930 . S
C490 C489 1.362 . S
C490 C493 1.409 . S
C491 H483 0.930 . S
C491 C492 1.355 . S
C491 C493 1.415 . S
C492 C491 1.355 . S
C492 C494 1.419 . S
C493 C488 1.425 . S
C493 C490 1.409 . S
C493 C491 1.415 . S
C494 H484 0.930 . S
C494 C492 1.419 . S
C494 C495 1.362 . S
C495 H485 0.930 . S
C495 C488 1.409 . S
C495 C494 1.362 . S
H496 C502 0.930 . S
H497 C505 0.930 . S
H498 C506 0.930 . S
H499 C507 0.930 . S
H500 C510 0.930 . S
H501 C511 0.930 . S
C502 H496 0.930 . S
C502 C503 1.355 . S
C502 C504 1.415 . S
C503 C502 1.355 . S
C503 C505 1.419 . S
C504 C502 1.415 . S
C504 C509 1.425 . S
C504 C511 1.409 . S
C505 H497 0.930 . S
C505 C503 1.419 . S
C505 C506 1.362 . S
C506 H498 0.930 . S
C506 C505 1.362 . S
C506 C509 1.409 . S
C507 H499 0.930 . S
C507 C508 1.355 . S
C507 C509 1.415 . S
C508 C507 1.355 . S
C508 C510 1.419 . S
C509 C504 1.425 . S
C509 C506 1.409 . S
C509 C507 1.415 . S
C510 H500 0.930 . S
C510 C508 1.419 . S
C510 C511 1.362 . S
C511 H501 0.930 . S
C511 C504 1.409 . S
C511 C510 1.362 . S
H512 C518 0.930 . S
H513 C521 0.930 . S
H514 C522 0.930 . S
H515 C523 0.930 . S
H516 C526 0.930 . S
H517 C527 0.930 . S
C518 H512 0.930 . S
C518 C519 1.355 . S
C518 C520 1.415 . S
C519 C518 1.355 . S
C519 C521 1.419 . S
C520 C518 1.415 . S
C520 C525 1.425 . S
C520 C527 1.409 . S
C521 H513 0.930 . S
C521 C519 1.419 . S
C521 C522 1.362 . S
C522 H514 0.930 . S
C522 C521 1.362 . S
C522 C525 1.409 . S
C523 H515 0.930 . S
C523 C524 1.355 . S
C523 C525 1.415 . S
C524 C523 1.355 . S
C524 C526 1.419 . S
C525 C520 1.425 . S
C525 C522 1.409 . S
C525 C523 1.415 . S
C526 H516 0.930 . S
C526 C524 1.419 . S
C526 C527 1.362 . S
C527 H517 0.930 . S
C527 C520 1.409 . S
C527 C526 1.362 . S
H528 C534 0.930 1_554 S
H529 C537 0.930 . S
H530 C538 0.930 . S
H531 C539 0.930 1_556 S
H532 C542 0.930 . S
H533 C543 0.930 . S
C534 H528 0.930 1_556 S
C534 C535 1.355 . S
C534 C536 1.415 1_556 S
C535 C534 1.355 . S
C535 C537 1.419 . S
C536 C534 1.415 1_554 S
C536 C541 1.425 1_554 S
C536 C543 1.409 . S
C537 H529 0.930 . S
C537 C535 1.419 . S
C537 C538 1.362 . S
C538 H530 0.930 . S
C538 C537 1.362 . S
C538 C541 1.409 . S
C539 H531 0.930 1_554 S
C539 C540 1.355 . S
C539 C541 1.415 1_554 S
C540 C539 1.355 . S
C540 C542 1.419 . S
C541 C536 1.425 1_556 S
C541 C538 1.409 . S
C541 C539 1.415 1_556 S
C542 H532 0.930 . S
C542 C540 1.419 . S
C542 C543 1.362 . S
C543 H533 0.930 . S
C543 C536 1.409 . S
C543 C542 1.362 . S
H544 C550 0.930 . S
H545 C553 0.930 . S
H546 C554 0.930 . S
H547 C555 0.930 . S
H548 C558 0.930 . S
H549 C559 0.930 . S
C550 H544 0.930 . S
C550 C551 1.355 . S
C550 C552 1.415 . S
C551 C550 1.355 . S
C551 C553 1.419 . S
C552 C550 1.415 . S
C552 C557 1.425 . S
C552 C559 1.409 . S
C553 H545 0.930 . S
C553 C551 1.419 . S
C553 C554 1.362 . S
C554 H546 0.930 . S
C554 C553 1.362 . S
C554 C557 1.409 . S
C555 H547 0.930 . S
C555 C556 1.355 . S
C555 C557 1.415 . S
C556 C555 1.355 . S
C556 C558 1.419 . S
C557 C552 1.425 . S
C557 C554 1.409 . S
C557 C555 1.415 . S
C558 H548 0.930 . S
C558 C556 1.419 . S
C558 C559 1.362 . S
C559 H549 0.930 . S
C559 C552 1.409 . S
C559 C558 1.362 . S
H560 C566 0.930 . S
H561 C569 0.930 . S
H562 C570 0.930 . S
H563 C571 0.930 . S
H564 C574 0.930 . S
H565 C575 0.930 . S
C566 H560 0.930 . S
C566 C567 1.355 . S
C566 C568 1.415 . S
C567 C566 1.355 . S
C567 C569 1.419 1_554 S
C568 C566 1.415 . S
C568 C573 1.425 1_554 S
C568 C575 1.409 . S
C569 H561 0.930 . S
C569 C567 1.419 1_556 S
C569 C570 1.362 . S
C570 H562 0.930 . S
C570 C569 1.362 . S
C570 C573 1.409 . S
C571 H563 0.930 . S
C571 C572 1.355 . S
C571 C573 1.415 . S
C572 C571 1.355 . S
C572 C574 1.419 1_556 S
C573 C568 1.425 1_556 S
C573 C570 1.409 . S
C573 C571 1.415 . S
C574 H564 0.930 . S
C574 C572 1.419 1_554 S
C574 C575 1.362 . S
C575 H565 0.930 . S
C575 C568 1.409 . S
C575 C574 1.362 . S
H576 C582 0.930 . S
H577 C585 0.930 . S
H578 C586 0.930 . S
H579 C587 0.930 . S
H580 C590 0.930 . S
H581 C591 0.930 . S
C582 H576 0.930 . S
C582 C583 1.355 . S
C582 C584 1.415 . S
C583 C582 1.355 . S
C583 C585 1.419 . S
C584 C582 1.415 . S
C584 C589 1.425 . S
C584 C591 1.409 . S
C585 H577 0.930 . S
C585 C583 1.419 . S
C585 C586 1.362 . S
C586 H578 0.930 . S
C586 C585 1.362 . S
C586 C589 1.409 . S
C587 H579 0.930 . S
C587 C588 1.355 . S
C587 C589 1.415 . S
C588 C587 1.355 . S
C588 C590 1.419 . S
C589 C584 1.425 . S
C589 C586 1.409 . S
C589 C587 1.415 . S
C590 H580 0.930 . S
C590 C588 1.419 . S
C590 C591 1.362 . S
C591 H581 0.930 . S
C591 C584 1.409 . S
C591 C590 1.362 . S
H592 C598 0.930 . S
H593 C601 0.930 . S
H594 C602 0.930 . S
H595 C603 0.930 . S
H596 C606 0.930 . S
H597 C607 0.930 . S
C598 H592 0.930 . S
C598 C599 1.355 . S
C598 C600 1.415 . S
C599 C598 1.355 . S
C599 C601 1.419 1_556 S
C600 C598 1.415 . S
C600 C605 1.425 1_556 S
C600 C607 1.409 . S
C601 H593 0.930 . S
C601 C599 1.419 1_554 S
C601 C602 1.362 . S
C602 H594 0.930 . S
C602 C601 1.362 . S
C602 C605 1.409 . S
C603 H595 0.930 . S
C603 C604 1.355 . S
C603 C605 1.415 . S
C604 C603 1.355 . S
C604 C606 1.419 1_554 S
C605 C600 1.425 1_554 S
C605 C602 1.409 . S
C605 C603 1.415 . S
C606 H596 0.930 . S
C606 C604 1.419 1_556 S
C606 C607 1.362 . S
C607 H597 0.930 . S
C607 C600 1.409 . S
C607 C606 1.362 . S
H608 C614 0.930 . S
H609 C617 0.930 . S
H610 C618 0.930 . S
H611 C619 0.930 . S
H612 C622 0.930 . S
H613 C623 0.930 . S
C614 H608 0.930 . S
C614 C615 1.355 . S
C614 C616 1.415 . S
C615 C614 1.355 . S
C615 C617 1.419 . S
C616 C614 1.415 . S
C616 C621 1.425 . S
C616 C623 1.409 . S
C617 H609 0.930 . S
C617 C615 1.419 . S
C617 C618 1.362 . S
C618 H610 0.930 . S
C618 C617 1.362 . S
C618 C621 1.409 . S
C619 H611 0.930 . S
C619 C620 1.355 . S
C619 C621 1.415 . S
C620 C619 1.355 . S
C620 C622 1.419 . S
C621 C616 1.425 . S
C621 C618 1.409 . S
C621 C619 1.415 . S
C622 H612 0.930 . S
C622 C620 1.419 . S
C622 C623 1.362 . S
C623 H613 0.930 . S
C623 C616 1.409 . S
C623 C622 1.362 . S
H624 C630 0.930 . S
H625 C633 0.930 . S
H626 C634 0.930 . S
H627 C635 0.930 . S
H628 C638 0.930 . S
H629 C639 0.930 . S
C630 H624 0.930 . S
C630 C631 1.355 . S
C630 C632 1.415 . S
C631 C630 1.355 . S
C631 C633 1.419 . S
C632 C630 1.415 . S
C632 C637 1.425 1_554 S
C632 C639 1.409 1_554 S
C633 H625 0.930 . S
C633 C631 1.419 . S
C633 C634 1.362 . S
C634 H626 0.930 . S
C634 C633 1.362 . S
C634 C637 1.409 1_554 S
C635 H627 0.930 . S
C635 C636 1.355 . S
C635 C637 1.415 . S
C636 C635 1.355 . S
C636 C638 1.419 . S
C637 C632 1.425 1_556 S
C637 C634 1.409 1_556 S
C637 C635 1.415 . S
C638 H628 0.930 . S
C638 C636 1.419 . S
C638 C639 1.362 . S
C639 H629 0.930 . S
C639 C632 1.409 1_556 S
C639 C638 1.362 . S
H640 C646 0.930 . S
H641 C649 0.930 . S
H642 C650 0.930 . S
H643 C651 0.930 . S
H644 C654 0.930 . S
H645 C655 0.930 . S
C646 H640 0.930 . S
C646 C647 1.355 . S
C646 C648 1.415 . S
C647 C646 1.355 . S
C647 C649 1.419 . S
C648 C646 1.415 . S
C648 C653 1.425 . S
C648 C655 1.409 . S
C649 H641 0.930 . S
C649 C647 1.419 . S
C649 C650 1.362 . S
C650 H642 0.930 . S
C650 C649 1.362 . S
C650 C653 1.409 . S
C651 H643 0.930 . S
C651 C652 1.355 . S
C651 C653 1.415 . S
C652 C651 1.355 . S
C652 C654 1.419 . S
C653 C648 1.425 . S
C653 C650 1.409 . S
C653 C651 1.415 . S
C654 H644 0.930 . S
C654 C652 1.419 . S
C654 C655 1.362 . S
C655 H645 0.930 . S
C655 C648 1.409 . S
C655 C654 1.362 . S
H656 C662 0.930 . S
H657 C665 0.930 . S
H658 C666 0.930 . S
H659 C667 0.930 . S
H660 C670 0.930 . S
H661 C671 0.930 . S
C662 H656 0.930 . S
C662 C663 1.355 . S
C662 C664 1.415 . S
C663 C662 1.355 . S
C663 C665 1.419 . S
C664 C662 1.415 . S
C664 C669 1.425 1_556 S
C664 C671 1.409 1_556 S
C665 H657 0.930 . S
C665 C663 1.419 . S
C665 C666 1.362 . S
C666 H658 0.930 . S
C666 C665 1.362 . S
C666 C669 1.409 1_556 S
C667 H659 0.930 . S
C667 C668 1.355 . S
C667 C669 1.415 . S
C668 C667 1.355 . S
C668 C670 1.419 . S
C669 C664 1.425 1_554 S
C669 C666 1.409 1_554 S
C669 C667 1.415 . S
C670 H660 0.930 . S
C670 C668 1.419 . S
C670 C671 1.362 . S
C671 H661 0.930 . S
C671 C664 1.409 1_554 S
C671 C670 1.362 . S
H672 C678 0.930 . S
H673 C681 0.930 . S
H674 C682 0.930 . S
H675 C683 0.930 . S
H676 C686 0.930 . S
H677 C687 0.930 . S
C678 H672 0.930 . S
C678 C679 1.355 . S
C678 C680 1.415 . S
C679 C678 1.355 . S
C679 C681 1.419 . S
C680 C678 1.415 . S
C680 C685 1.425 . S
C680 C687 1.409 . S
C681 H673 0.930 . S
C681 C679 1.419 . S
C681 C682 1.362 . S
C682 H674 0.930 . S
C682 C681 1.362 . S
C682 C685 1.409 . S
C683 H675 0.930 . S
C683 C684 1.355 . S
C683 C685 1.415 . S
C684 C683 1.355 . S
C684 C686 1.419 . S
C685 C680 1.425 . S
C685 C682 1.409 . S
C685 C683 1.415 . S
C686 H676 0.930 . S
C686 C684 1.419 . S
C686 C687 1.362 . S
C687 H677 0.930 . S
C687 C680 1.409 . S
C687 C686 1.362 . S
H688 C694 0.930 1_554 S
H689 C697 0.930 . S
H690 C698 0.930 . S
H691 C699 0.930 1_556 S
H692 C702 0.930 . S
H693 C703 0.930 . S
C694 H688 0.930 1_556 S
C694 C695 1.355 . S
C694 C696 1.415 1_556 S
C695 C694 1.355 . S
C695 C697 1.419 . S
C696 C694 1.415 1_554 S
C696 C701 1.425 1_554 S
C696 C703 1.409 . S
C697 H689 0.930 . S
C697 C695 1.419 . S
C697 C698 1.362 . S
C698 H690 0.930 . S
C698 C697 1.362 . S
C698 C701 1.409 . S
C699 H691 0.930 1_554 S
C699 C700 1.355 . S
C699 C701 1.415 1_554 S
C700 C699 1.355 . S
C700 C702 1.419 . S
C701 C696 1.425 1_556 S
C701 C698 1.409 . S
C701 C699 1.415 1_556 S
C702 H692 0.930 . S
C702 C700 1.419 . S
C702 C703 1.362 . S
C703 H693 0.930 . S
C703 C696 1.409 . S
C703 C702 1.362 . S
H704 C710 0.930 . S
H705 C713 0.930 . S
H706 C714 0.930 . S
H707 C715 0.930 . S
H708 C718 0.930 . S
H709 C719 0.930 . S
C710 H704 0.930 . S
C710 C711 1.355 . S
C710 C712 1.415 . S
C711 C710 1.355 . S
C711 C713 1.419 . S
C712 C710 1.415 . S
C712 C717 1.425 . S
C712 C719 1.409 . S
C713 H705 0.930 . S
C713 C711 1.419 . S
C713 C714 1.362 . S
C714 H706 0.930 . S
C714 C713 1.362 . S
C714 C717 1.409 . S
C715 H707 0.930 . S
C715 C716 1.355 . S
C715 C717 1.415 . S
C716 C715 1.355 . S
C716 C718 1.419 . S
C717 C712 1.425 . S
C717 C714 1.409 . S
C717 C715 1.415 . S
C718 H708 0.930 . S
C718 C716 1.419 . S
C718 C719 1.362 . S
C719 H709 0.930 . S
C719 C712 1.409 . S
C719 C718 1.362 . S
H720 C726 0.930 . S
H721 C729 0.930 . S
H722 C730 0.930 . S
H723 C731 0.930 . S
H724 C734 0.930 . S
H725 C735 0.930 . S
C726 H720 0.930 . S
C726 C727 1.355 . S
C726 C728 1.415 . S
C727 C726 1.355 . S
C727 C729 1.419 . S
C728 C726 1.415 . S
C728 C733 1.425 . S
C728 C735 1.409 . S
C729 H721 0.930 . S
C729 C727 1.419 . S
C729 C730 1.362 . S
C730 H722 0.930 . S
C730 C729 1.362 . S
C730 C733 1.409 . S
C731 H723 0.930 . S
C731 C732 1.355 . S
C731 C733 1.415 . S
C732 C731 1.355 . S
C732 C734 1.419 . S
C733 C728 1.425 . S
C733 C730 1.409 . S
C733 C731 1.415 . S
C734 H724 0.930 . S
C734 C732 1.419 . S
C734 C735 1.362 . S
C735 H725 0.930 . S
C735 C728 1.409 . S
C735 C734 1.362 . S
H736 C742 0.930 . S
H737 C745 0.930 . S
H738 C746 0.930 . S
H739 C747 0.930 . S
H740 C750 0.930 . S
H741 C751 0.930 . S
C742 H736 0.930 . S
C742 C743 1.355 . S
C742 C744 1.415 . S
C743 C742 1.355 . S
C743 C745 1.419 . S
C744 C742 1.415 . S
C744 C749 1.425 1_455 S
C744 C751 1.409 1_455 S
C745 H737 0.930 . S
C745 C743 1.419 . S
C745 C746 1.362 . S
C746 H738 0.930 . S
C746 C745 1.362 . S
C746 C749 1.409 1_455 S
C747 H739 0.930 . S
C747 C748 1.355 . S
C747 C749 1.415 . S
C748 C747 1.355 . S
C748 C750 1.419 . S
C749 C744 1.425 1_655 S
C749 C746 1.409 1_655 S
C749 C747 1.415 . S
C750 H740 0.930 . S
C750 C748 1.419 . S
C750 C751 1.362 . S
C751 H741 0.930 . S
C751 C744 1.409 1_655 S
C751 C750 1.362 . S
H752 C758 0.930 . S
H753 C761 0.930 . S
H754 C762 0.930 . S
H755 C763 0.930 . S
H756 C766 0.930 . S
H757 C767 0.930 . S
C758 H752 0.930 . S
C758 C759 1.355 . S
C758 C760 1.415 . S
C759 C758 1.355 . S
C759 C761 1.419 . S
C760 C758 1.415 . S
C760 C765 1.425 1_565 S
C760 C767 1.409 1_565 S
C761 H753 0.930 . S
C761 C759 1.419 . S
C761 C762 1.362 . S
C762 H754 0.930 . S
C762 C761 1.362 . S
C762 C765 1.409 1_565 S
C763 H755 0.930 . S
C763 C764 1.355 . S
C763 C765 1.415 . S
C764 C763 1.355 . S
C764 C766 1.419 . S
C765 C760 1.425 1_545 S
C765 C762 1.409 1_545 S
C765 C763 1.415 . S
C766 H756 0.930 . S
C766 C764 1.419 . S
C766 C767 1.362 . S
C767 H757 0.930 . S
C767 C760 1.409 1_545 S
C767 C766 1.362 . S
H768 C774 0.930 . S
H769 C777 0.930 . S
H770 C778 0.930 . S
H771 C779 0.930 . S
H772 C782 0.930 . S
H773 C783 0.930 . S
C774 H768 0.930 . S
C774 C775 1.355 . S
C774 C776 1.415 . S
C775 C774 1.355 . S
C775 C777 1.419 . S
C776 C774 1.415 . S
C776 C781 1.425 . S
C776 C783 1.409 . S
C777 H769 0.930 . S
C777 C775 1.419 . S
C777 C778 1.362 . S
C778 H770 0.930 . S
C778 C777 1.362 . S
C778 C781 1.409 . S
C779 H771 0.930 . S
C779 C780 1.355 . S
C779 C781 1.415 . S
C780 C779 1.355 . S
C780 C782 1.419 . S
C781 C776 1.425 . S
C781 C778 1.409 . S
C781 C779 1.415 . S
C782 H772 0.930 . S
C782 C780 1.419 . S
C782 C783 1.362 . S
C783 H773 0.930 . S
C783 C776 1.409 . S
C783 C782 1.362 . S
H784 C790 0.930 . S
H785 C793 0.930 . S
H786 C794 0.930 . S
H787 C795 0.930 . S
H788 C798 0.930 . S
H789 C799 0.930 . S
C790 H784 0.930 . S
C790 C791 1.355 . S
C790 C792 1.415 . S
C791 C790 1.355 . S
C791 C793 1.419 . S
C792 C790 1.415 . S
C792 C797 1.425 1_655 S
C792 C799 1.409 1_655 S
C793 H785 0.930 . S
C793 C791 1.419 . S
C793 C794 1.362 . S
C794 H786 0.930 . S
C794 C793 1.362 . S
C794 C797 1.409 1_655 S
C795 H787 0.930 . S
C795 C796 1.355 . S
C795 C797 1.415 . S
C796 C795 1.355 . S
C796 C798 1.419 . S
C797 C792 1.425 1_455 S
C797 C794 1.409 1_455 S
C797 C795 1.415 . S
C798 H788 0.930 . S
C798 C796 1.419 . S
C798 C799 1.362 . S
C799 H789 0.930 . S
C799 C792 1.409 1_455 S
C799 C798 1.362 . S
H800 C806 0.930 . S
H801 C809 0.930 . S
H802 C810 0.930 . S
H803 C811 0.930 . S
H804 C814 0.930 . S
H805 C815 0.930 . S
C806 H800 0.930 . S
C806 C807 1.355 . S
C806 C808 1.415 . S
C807 C806 1.355 . S
C807 C809 1.419 . S
C808 C806 1.415 . S
C808 C813 1.425 1_545 S
C808 C815 1.409 1_545 S
C809 H801 0.930 . S
C809 C807 1.419 . S
C809 C810 1.362 . S
C810 H802 0.930 . S
C810 C809 1.362 . S
C810 C813 1.409 1_545 S
C811 H803 0.930 . S
C811 C812 1.355 . S
C811 C813 1.415 . S
C812 C811 1.355 . S
C812 C814 1.419 . S
C813 C808 1.425 1_565 S
C813 C810 1.409 1_565 S
C813 C811 1.415 . S
C814 H804 0.930 . S
C814 C812 1.419 . S
C814 C815 1.362 . S
C815 H805 0.930 . S
C815 C808 1.409 1_565 S
C815 C814 1.362 . S
H816 C822 0.930 . S
H817 C825 0.930 . S
H818 C826 0.930 . S
H819 C827 0.930 . S
H820 C830 0.930 . S
H821 C831 0.930 . S
C822 H816 0.930 . S
C822 C823 1.355 . S
C822 C824 1.415 . S
C823 C822 1.355 . S
C823 C825 1.419 . S
C824 C822 1.415 . S
C824 C829 1.425 . S
C824 C831 1.409 . S
C825 H817 0.930 . S
C825 C823 1.419 . S
C825 C826 1.362 . S
C826 H818 0.930 . S
C826 C825 1.362 . S
C826 C829 1.409 . S
C827 H819 0.930 . S
C827 C828 1.355 . S
C827 C829 1.415 . S
C828 C827 1.355 . S
C828 C830 1.419 . S
C829 C824 1.425 . S
C829 C826 1.409 . S
C829 C827 1.415 . S
C830 H820 0.930 . S
C830 C828 1.419 . S
C830 C831 1.362 . S
C831 H821 0.930 . S
C831 C824 1.409 . S
C831 C830 1.362 . S
H832 C838 0.930 . S
H833 C841 0.930 . S
H834 C842 0.930 . S
H835 C843 0.930 . S
H836 C846 0.930 . S
H837 C847 0.930 . S
C838 H832 0.930 . S
C838 C839 1.355 . S
C838 C840 1.415 . S
C839 C838 1.355 . S
C839 C841 1.419 . S
C840 C838 1.415 . S
C840 C845 1.425 1_655 S
C840 C847 1.409 1_655 S
C841 H833 0.930 . S
C841 C839 1.419 . S
C841 C842 1.362 . S
C842 H834 0.930 . S
C842 C841 1.362 . S
C842 C845 1.409 1_655 S
C843 H835 0.930 . S
C843 C844 1.355 . S
C843 C845 1.415 . S
C844 C843 1.355 . S
C844 C846 1.419 . S
C845 C840 1.425 1_455 S
C845 C842 1.409 1_455 S
C845 C843 1.415 . S
C846 H836 0.930 . S
C846 C844 1.419 . S
C846 C847 1.362 . S
C847 H837 0.930 . S
C847 C840 1.409 1_455 S
C847 C846 1.362 . S
H848 C854 0.930 . S
H849 C857 0.930 . S
H850 C858 0.930 . S
H851 C859 0.930 . S
H852 C862 0.930 . S
H853 C863 0.930 . S
C854 H848 0.930 . S
C854 C855 1.355 . S
C854 C856 1.415 . S
C855 C854 1.355 . S
C855 C857 1.419 . S
C856 C854 1.415 . S
C856 C861 1.425 1_545 S
C856 C863 1.409 1_545 S
C857 H849 0.930 . S
C857 C855 1.419 . S
C857 C858 1.362 . S
C858 H850 0.930 . S
C858 C857 1.362 . S
C858 C861 1.409 1_545 S
C859 H851 0.930 . S
C859 C860 1.355 . S
C859 C861 1.415 . S
C860 C859 1.355 . S
C860 C862 1.419 . S
C861 C856 1.425 1_565 S
C861 C858 1.409 1_565 S
C861 C859 1.415 . S
C862 H852 0.930 . S
C862 C860 1.419 . S
C862 C863 1.362 . S
C863 H853 0.930 . S
C863 C856 1.409 1_565 S
C863 C862 1.362 . S
H864 C870 0.930 . S
H865 C873 0.930 . S
H866 C874 0.930 . S
H867 C875 0.930 . S
H868 C878 0.930 . S
H869 C879 0.930 . S
C870 H864 0.930 . S
C870 C871 1.355 . S
C870 C872 1.415 . S
C871 C870 1.355 . S
C871 C873 1.419 . S
C872 C870 1.415 . S
C872 C877 1.425 . S
C872 C879 1.409 . S
C873 H865 0.930 . S
C873 C871 1.419 . S
C873 C874 1.362 . S
C874 H866 0.930 . S
C874 C873 1.362 . S
C874 C877 1.409 . S
C875 H867 0.930 . S
C875 C876 1.355 . S
C875 C877 1.415 . S
C876 C875 1.355 . S
C876 C878 1.419 . S
C877 C872 1.425 . S
C877 C874 1.409 . S
C877 C875 1.415 . S
C878 H868 0.930 . S
C878 C876 1.419 . S
C878 C879 1.362 . S
C879 H869 0.930 . S
C879 C872 1.409 . S
C879 C878 1.362 . S
H880 C886 0.930 . S
H881 C889 0.930 . S
H882 C890 0.930 . S
H883 C891 0.930 . S
H884 C894 0.930 . S
H885 C895 0.930 . S
C886 H880 0.930 . S
C886 C887 1.355 . S
C886 C888 1.415 . S
C887 C886 1.355 . S
C887 C889 1.419 . S
C888 C886 1.415 . S
C888 C893 1.425 1_455 S
C888 C895 1.409 1_455 S
C889 H881 0.930 . S
C889 C887 1.419 . S
C889 C890 1.362 . S
C890 H882 0.930 . S
C890 C889 1.362 . S
C890 C893 1.409 1_455 S
C891 H883 0.930 . S
C891 C892 1.355 . S
C891 C893 1.415 . S
C892 C891 1.355 . S
C892 C894 1.419 . S
C893 C888 1.425 1_655 S
C893 C890 1.409 1_655 S
C893 C891 1.415 . S
C894 H884 0.930 . S
C894 C892 1.419 . S
C894 C895 1.362 . S
C895 H885 0.930 . S
C895 C888 1.409 1_655 S
C895 C894 1.362 . S
H896 C902 0.930 . S
H897 C905 0.930 . S
H898 C906 0.930 . S
H899 C907 0.930 . S
H900 C910 0.930 . S
H901 C911 0.930 . S
C902 H896 0.930 . S
C902 C903 1.355 . S
C902 C904 1.415 . S
C903 C902 1.355 . S
C903 C905 1.419 . S
C904 C902 1.415 . S
C904 C909 1.425 1_565 S
C904 C911 1.409 1_565 S
C905 H897 0.930 . S
C905 C903 1.419 . S
C905 C906 1.362 . S
C906 H898 0.930 . S
C906 C905 1.362 . S
C906 C909 1.409 1_565 S
C907 H899 0.930 . S
C907 C908 1.355 . S
C907 C909 1.415 . S
C908 C907 1.355 . S
C908 C910 1.419 . S
C909 C904 1.425 1_545 S
C909 C906 1.409 1_545 S
C909 C907 1.415 . S
C910 H900 0.930 . S
C910 C908 1.419 . S
C910 C911 1.362 . S
C911 H901 0.930 . S
C911 C904 1.409 1_545 S
C911 C910 1.362 . S
H912 C918 0.930 . S
H913 C921 0.930 . S
H914 C922 0.930 . S
H915 C923 0.930 . S
H916 C926 0.930 . S
H917 C927 0.930 . S
C918 H912 0.930 . S
C918 C919 1.355 . S
C918 C920 1.415 . S
C919 C918 1.355 . S
C919 C921 1.419 . S
C920 C918 1.415 . S
C920 C925 1.425 1_556 S
C920 C927 1.409 . S
C921 H913 0.930 . S
C921 C919 1.419 . S
C921 C922 1.362 1_556 S
C922 H914 0.930 . S
C922 C921 1.362 1_554 S
C922 C925 1.409 . S
C923 H915 0.930 . S
C923 C924 1.355 . S
C923 C925 1.415 . S
C924 C923 1.355 . S
C924 C926 1.419 . S
C925 C920 1.425 1_554 S
C925 C922 1.409 . S
C925 C923 1.415 . S
C926 H916 0.930 . S
C926 C924 1.419 . S
C926 C927 1.362 1_554 S
C927 H917 0.930 . S
C927 C920 1.409 . S
C927 C926 1.362 1_556 S
H928 C934 0.930 . S
H929 C937 0.930 . S
H930 C938 0.930 . S
H931 C939 0.930 . S
H932 C942 0.930 . S
H933 C943 0.930 . S
C934 H928 0.930 . S
C934 C935 1.355 . S
C934 C936 1.415 . S
C935 C934 1.355 . S
C935 C937 1.419 . S
C936 C934 1.415 . S
C936 C941 1.425 . S
C936 C943 1.409 . S
C937 H929 0.930 . S
C937 C935 1.419 . S
C937 C938 1.362 . S
C938 H930 0.930 . S
C938 C937 1.362 . S
C938 C941 1.409 . S
C939 H931 0.930 . S
C939 C940 1.355 . S
C939 C941 1.415 . S
C940 C939 1.355 . S
C940 C942 1.419 . S
C941 C936 1.425 . S
C941 C938 1.409 . S
C941 C939 1.415 . S
C942 H932 0.930 . S
C942 C940 1.419 . S
C942 C943 1.362 . S
C943 H933 0.930 . S
C943 C936 1.409 . S
C943 C942 1.362 . S
H944 C950 0.930 . S
H945 C953 0.930 . S
H946 C954 0.930 . S
H947 C955 0.930 . S
H948 C958 0.930 . S
H949 C959 0.930 . S
C950 H944 0.930 . S
C950 C951 1.355 1_554 S
C950 C952 1.415 . S
C951 C950 1.355 1_556 S
C951 C953 1.419 . S
C952 C950 1.415 . S
C952 C957 1.425 1_554 S
C952 C959 1.409 . S
C953 H945 0.930 . S
C953 C951 1.419 . S
C953 C954 1.362 . S
C954 H946 0.930 . S
C954 C953 1.362 . S
C954 C957 1.409 . S
C955 H947 0.930 . S
C955 C956 1.355 1_556 S
C955 C957 1.415 . S
C956 C955 1.355 1_554 S
C956 C958 1.419 . S
C957 C952 1.425 1_556 S
C957 C954 1.409 . S
C957 C955 1.415 . S
C958 H948 0.930 . S
C958 C956 1.419 . S
C958 C959 1.362 . S
C959 H949 0.930 . S
C959 C952 1.409 . S
C959 C958 1.362 . S
H960 C966 0.930 . S
H961 C969 0.930 . S
H962 C970 0.930 . S
H963 C971 0.930 . S
H964 C974 0.930 . S
H965 C975 0.930 . S
C966 H960 0.930 . S
C966 C967 1.355 . S
C966 C968 1.415 . S
C967 C966 1.355 . S
C967 C969 1.419 . S
C968 C966 1.415 . S
C968 C973 1.425 . S
C968 C975 1.409 . S
C969 H961 0.930 . S
C969 C967 1.419 . S
C969 C970 1.362 . S
C970 H962 0.930 . S
C970 C969 1.362 . S
C970 C973 1.409 . S
C971 H963 0.930 . S
C971 C972 1.355 . S
C971 C973 1.415 . S
C972 C971 1.355 . S
C972 C974 1.419 . S
C973 C968 1.425 . S
C973 C970 1.409 . S
C973 C971 1.415 . S
C974 H964 0.930 . S
C974 C972 1.419 . S
C974 C975 1.362 . S
C975 H965 0.930 . S
C975 C968 1.409 . S
C975 C974 1.362 . S
H976 C982 0.944 . S
H977 C985 0.930 . S
H978 C986 0.930 . S
H979 C987 0.944 . S
H980 C990 0.930 . S
H981 C991 0.930 . S
C982 H976 0.944 . S
C982 C983 1.334 1_554 S
C982 C984 1.422 . S
C983 C982 1.334 1_556 S
C983 C985 1.419 . S
C984 C982 1.422 . S
C984 C989 1.425 1_554 S
C984 C991 1.409 . S
C985 H977 0.930 . S
C985 C983 1.419 . S
C985 C986 1.362 . S
C986 H978 0.930 . S
C986 C985 1.362 . S
C986 C989 1.409 . S
C987 H979 0.944 . S
C987 C988 1.334 1_556 S
C987 C989 1.422 . S
C988 C987 1.334 1_554 S
C988 C990 1.419 . S
C989 C984 1.425 1_556 S
C989 C986 1.409 . S
C989 C987 1.422 . S
C990 H980 0.930 . S
C990 C988 1.419 . S
C990 C991 1.362 . S
C991 H981 0.930 . S
C991 C984 1.409 . S
C991 C990 1.362 . S
H992 C998 0.930 . S
H993 C1001 0.930 . S
H994 C1002 0.930 . S
H995 C1003 0.930 . S
H996 C1006 0.930 . S
H997 C1007 0.930 . S
C998 H992 0.930 . S
C998 C999 1.355 . S
C998 C1000 1.415 . S
C999 C998 1.355 . S
C999 C1001 1.419 . S
C1000 C998 1.415 . S
C1000 C1005 1.425 . S
C1000 C1007 1.409 . S
C1001 H993 0.930 . S
C1001 C999 1.419 . S
C1001 C1002 1.362 . S
C1002 H994 0.930 . S
C1002 C1001 1.362 . S
C1002 C1005 1.409 . S
C1003 H995 0.930 . S
C1003 C1004 1.355 . S
C1003 C1005 1.415 . S
C1004 C1003 1.355 . S
C1004 C1006 1.419 . S
C1005 C1000 1.425 . S
C1005 C1002 1.409 . S
C1005 C1003 1.415 . S
C1006 H996 0.930 . S
C1006 C1004 1.419 . S
C1006 C1007 1.362 . S
C1007 H997 0.930 . S
C1007 C1000 1.409 . S
C1007 C1006 1.362 . S
H1008 C1014 0.930 . S
H1009 C1017 0.930 . S
H1010 C1018 0.930 . S
H1011 C1019 0.930 . S
H1012 C1022 0.930 . S
H1013 C1023 0.930 . S
C1014 H1008 0.930 . S
C1014 C1015 1.355 . S
C1014 C1016 1.415 . S
C1015 C1014 1.355 . S
C1015 C1017 1.419 1_554 S
C1016 C1014 1.415 . S
C1016 C1021 1.425 1_554 S
C1016 C1023 1.409 . S
C1017 H1009 0.930 . S
C1017 C1015 1.419 1_556 S
C1017 C1018 1.362 . S
C1018 H1010 0.930 . S
C1018 C1017 1.362 . S
C1018 C1021 1.409 . S
C1019 H1011 0.930 . S
C1019 C1020 1.355 . S
C1019 C1021 1.415 . S
C1020 C1019 1.355 . S
C1020 C1022 1.419 1_556 S
C1021 C1016 1.425 1_556 S
C1021 C1018 1.409 . S
C1021 C1019 1.415 . S
C1022 H1012 0.930 . S
C1022 C1020 1.419 1_554 S
C1022 C1023 1.362 . S
C1023 H1013 0.930 . S
C1023 C1016 1.409 . S
C1023 C1022 1.362 . S
H1024 C1030 0.930 . S
H1025 C1033 0.930 . S
H1026 C1034 0.930 . S
H1027 C1035 0.930 . S
H1028 C1038 0.930 . S
H1029 C1039 0.930 . S
C1030 H1024 0.930 . S
C1030 C1031 1.355 . S
C1030 C1032 1.415 . S
C1031 C1030 1.355 . S
C1031 C1033 1.419 . S
C1032 C1030 1.415 . S
C1032 C1037 1.425 . S
C1032 C1039 1.409 . S
C1033 H1025 0.930 . S
C1033 C1031 1.419 . S
C1033 C1034 1.362 . S
C1034 H1026 0.930 . S
C1034 C1033 1.362 . S
C1034 C1037 1.409 . S
C1035 H1027 0.930 . S
C1035 C1036 1.355 . S
C1035 C1037 1.415 . S
C1036 C1035 1.355 . S
C1036 C1038 1.419 . S
C1037 C1032 1.425 . S
C1037 C1034 1.409 . S
C1037 C1035 1.415 . S
C1038 H1028 0.930 . S
C1038 C1036 1.419 . S
C1038 C1039 1.362 . S
C1039 H1029 0.930 . S
C1039 C1032 1.409 . S
C1039 C1038 1.362 . S
H1040 C1046 0.930 . S
H1041 C1049 0.930 . S
H1042 C1050 0.930 . S
H1043 C1051 0.930 . S
H1044 C1054 0.930 . S
H1045 C1055 0.930 . S
C1046 H1040 0.930 . S
C1046 C1047 1.355 1_556 S
C1046 C1048 1.415 . S
C1047 C1046 1.355 1_554 S
C1047 C1049 1.419 . S
C1048 C1046 1.415 . S
C1048 C1053 1.425 1_556 S
C1048 C1055 1.409 . S
C1049 H1041 0.930 . S
C1049 C1047 1.419 . S
C1049 C1050 1.362 . S
C1050 H1042 0.930 . S
C1050 C1049 1.362 . S
C1050 C1053 1.409 . S
C1051 H1043 0.930 . S
C1051 C1052 1.355 1_554 S
C1051 C1053 1.415 . S
C1052 C1051 1.355 1_556 S
C1052 C1054 1.419 . S
C1053 C1048 1.425 1_554 S
C1053 C1050 1.409 . S
C1053 C1051 1.415 . S
C1054 H1044 0.930 . S
C1054 C1052 1.419 . S
C1054 C1055 1.362 . S
C1055 H1045 0.930 . S
C1055 C1048 1.409 . S
C1055 C1054 1.362 . S
H1056 C1062 0.930 . S
H1057 C1065 0.930 . S
H1058 C1066 0.930 . S
H1059 C1067 0.930 . S
H1060 C1070 0.930 . S
H1061 C1071 0.930 . S
C1062 H1056 0.930 . S
C1062 C1063 1.355 . S
C1062 C1064 1.415 . S
C1063 C1062 1.355 . S
C1063 C1065 1.419 . S
C1064 C1062 1.415 . S
C1064 C1069 1.425 . S
C1064 C1071 1.409 . S
C1065 H1057 0.930 . S
C1065 C1063 1.419 . S
C1065 C1066 1.362 . S
C1066 H1058 0.930 . S
C1066 C1065 1.362 . S
C1066 C1069 1.409 . S
C1067 H1059 0.930 . S
C1067 C1068 1.355 . S
C1067 C1069 1.415 . S
C1068 C1067 1.355 . S
C1068 C1070 1.419 . S
C1069 C1064 1.425 . S
C1069 C1066 1.409 . S
C1069 C1067 1.415 . S
C1070 H1060 0.930 . S
C1070 C1068 1.419 . S
C1070 C1071 1.362 . S
C1071 H1061 0.930 . S
C1071 C1064 1.409 . S
C1071 C1070 1.362 . S
H1072 C1078 0.930 . S
H1073 C1081 0.930 . S
H1074 C1082 0.930 . S
H1075 C1083 0.930 . S
H1076 C1086 0.930 . S
H1077 C1087 0.930 . S
C1078 H1072 0.930 . S
C1078 C1079 1.355 . S
C1078 C1080 1.415 1_556 S
C1079 C1078 1.355 . S
C1079 C1081 1.419 . S
C1080 C1078 1.415 1_554 S
C1080 C1085 1.425 1_554 S
C1080 C1087 1.409 . S
C1081 H1073 0.930 . S
C1081 C1079 1.419 . S
C1081 C1082 1.362 . S
C1082 H1074 0.930 . S
C1082 C1081 1.362 . S
C1082 C1085 1.409 . S
C1083 H1075 0.930 . S
C1083 C1084 1.355 . S
C1083 C1085 1.415 1_554 S
C1084 C1083 1.355 . S
C1084 C1086 1.419 . S
C1085 C1080 1.425 1_556 S
C1085 C1082 1.409 . S
C1085 C1083 1.415 1_556 S
C1086 H1076 0.930 . S
C1086 C1084 1.419 . S
C1086 C1087 1.362 . S
C1087 H1077 0.930 . S
C1087 C1080 1.409 . S
C1087 C1086 1.362 . S
H1088 C1094 0.930 . S
H1089 C1097 0.930 . S
H1090 C1098 0.930 . S
H1091 C1099 0.930 . S
H1092 C1102 0.930 . S
H1093 C1103 0.930 . S
C1094 H1088 0.930 . S
C1094 C1095 1.355 . S
C1094 C1096 1.415 . S
C1095 C1094 1.355 . S
C1095 C1097 1.419 . S
C1096 C1094 1.415 . S
C1096 C1101 1.425 . S
C1096 C1103 1.409 . S
C1097 H1089 0.930 . S
C1097 C1095 1.419 . S
C1097 C1098 1.362 . S
C1098 H1090 0.930 . S
C1098 C1097 1.362 . S
C1098 C1101 1.409 . S
C1099 H1091 0.930 . S
C1099 C1100 1.355 . S
C1099 C1101 1.415 . S
C1100 C1099 1.355 . S
C1100 C1102 1.419 . S
C1101 C1096 1.425 . S
C1101 C1098 1.409 . S
C1101 C1099 1.415 . S
C1102 H1092 0.930 . S
C1102 C1100 1.419 . S
C1102 C1103 1.362 . S
C1103 H1093 0.930 . S
C1103 C1096 1.409 . S
C1103 C1102 1.362 . S
C343 C0 1.470 . S
C348 C210 1.497 . S
C359 C14 1.460 . S
C364 C224 1.507 . S
C375 C238 1.477 . S
C380 C28 1.491 . S
C391 C168 1.489 . S
C396 C42 1.478 . S
C407 C182 1.491 . S
C412 C56 1.476 . S
C423 C196 1.497 . S
C428 C70 1.471 . S
C439 C294 1.460 . S
C444 C84 1.507 . S
C455 C98 1.481 . S
C460 C308 1.487 . S
C471 C322 1.464 . S
C476 C112 1.503 . S
C487 C126 1.500 . S
C492 C252 1.467 . S
C503 C266 1.480 . S
C508 C140 1.488 . S
C519 C154 1.468 . S
C524 C280 1.499 . S
C535 C151 1.389 . S
C540 C11 1.391 . S
C551 C165 1.389 . S
C556 C25 1.390 . S
C567 C39 1.359 . S
C572 C95 1.359 . S
C583 C53 1.390 . S
C588 C109 1.391 . S
C599 C123 1.360 . S
C604 C67 1.359 . S
C615 C81 1.391 . S
C620 C137 1.390 . S
C631 C319 1.373 . S
C636 C179 1.371 . S
C647 C193 1.368 . S
C652 C333 1.371 . S
C663 C207 1.373 . S
C668 C263 1.371 . S
C679 C277 1.365 . S
C684 C221 1.367 . S
C695 C235 1.390 . S
C700 C291 1.388 . S
C711 C249 1.388 . S
C716 C305 1.389 . S
C727 C5 1.419 . S
C732 C257 1.396 . S
C743 C271 1.395 . S
C748 C19 1.420 . S
C759 C33 1.396 . S
C764 C285 1.419 . S
C775 C47 1.394 . S
C780 C299 1.421 . S
C791 C313 1.411 . S
C796 C61 1.404 . S
C807 C75 1.419 . S
C812 C327 1.396 . S
C823 C89 1.397 . S
C828 C173 1.418 . S
C839 C103 1.418 . S
C844 C187 1.397 . S
C855 C201 1.395 . S
C860 C117 1.420 . S
C871 C215 1.419 . S
C876 C131 1.396 . S
C887 C145 1.394 . S
C892 C229 1.420 . S
C903 C243 1.420 . S
C908 C159 1.395 . S
C919 C93 1.513 . S
C924 C9 1.515 . S
C935 C23 1.514 . S
C940 C107 1.514 . S
C951 C121 1.513 . S
C956 C37 1.514 . S
C967 C135 1.513 . S
C972 C51 1.513 . S
C983 C149 1.514 . S
C988 C65 1.513 . S
C999 C79 1.513 . S
C1004 C163 1.514 . S
C1015 C261 1.514 . S
C1020 C177 1.514 . S
C1031 C191 1.513 . S
C1036 C275 1.515 . S
C1047 C289 1.513 . S
C1052 C205 1.513 . S
C1063 C303 1.514 . S
C1068 C219 1.513 . S
C1079 C233 1.515 . S
C1084 C317 1.512 . S
C1095 C247 1.514 . S
C1100 C331 1.513 . S
