# Generated by pormake.
# Topology gan, (5)-cn, num edge types: 1
# Building blocks:
#     Node 0, Type 0, BuildingBlock: XOMCOT_clean_sbu_1, # of connection points: 5
#     Node 1, Type 0, BuildingBlock: XOMCOT_clean_sbu_1, # of connection points: 5
#     Node 2, Type 0, BuildingBlock: XOMCOT_clean_sbu_1, # of connection points: 5
#     Node 3, Type 0, BuildingBlock: XOMCOT_clean_sbu_1, # of connection points: 5
#     Node 4, Type 0, BuildingBlock: XOMCOT_clean_sbu_1, # of connection points: 5
#     Node 5, Type 0, BuildingBlock: XOMCOT_clean_sbu_1, # of connection points: 5
#     Node 6, Type 0, BuildingBlock: XOMCOT_clean_sbu_1, # of connection points: 5
#     Node 7, Type 0, BuildingBlock: XOMCOT_clean_sbu_1, # of connection points: 5
#     Node 8, Type 0, BuildingBlock: XOMCOT_clean_sbu_1, # of connection points: 5
#     Node 9, Type 0, BuildingBlock: XOMCOT_clean_sbu_1, # of connection points: 5
#     Node 10, Type 0, BuildingBlock: XOMCOT_clean_sbu_1, # of connection points: 5
#     Node 11, Type 0, BuildingBlock: XOMCOT_clean_sbu_1, # of connection points: 5
#     Node 12, Type 0, BuildingBlock: XOMCOT_clean_sbu_1, # of connection points: 5
#     Node 13, Type 0, BuildingBlock: XOMCOT_clean_sbu_1, # of connection points: 5
#     Node 14, Type 0, BuildingBlock: XOMCOT_clean_sbu_1, # of connection points: 5
#     Node 15, Type 0, BuildingBlock: XOMCOT_clean_sbu_1, # of connection points: 5
#     Edge 16, Type (0, 0), BuildingBlock: XUDNAN_clean_linker_2, # of connection points: 2
#     Edge 17, Type (0, 0), BuildingBlock: XUDNAN_clean_linker_2, # of connection points: 2
#     Edge 18, Type (0, 0), BuildingBlock: XUDNAN_clean_linker_2, # of connection points: 2
#     Edge 19, Type (0, 0), BuildingBlock: XUDNAN_clean_linker_2, # of connection points: 2
#     Edge 20, Type (0, 0), BuildingBlock: XUDNAN_clean_linker_2, # of connection points: 2
#     Edge 21, Type (0, 0), BuildingBlock: XUDNAN_clean_linker_2, # of connection points: 2
#     Edge 22, Type (0, 0), BuildingBlock: XUDNAN_clean_linker_2, # of connection points: 2
#     Edge 23, Type (0, 0), BuildingBlock: XUDNAN_clean_linker_2, # of connection points: 2
#     Edge 24, Type (0, 0), BuildingBlock: XUDNAN_clean_linker_2, # of connection points: 2
#     Edge 25, Type (0, 0), BuildingBlock: XUDNAN_clean_linker_2, # of connection points: 2
#     Edge 26, Type (0, 0), BuildingBlock: XUDNAN_clean_linker_2, # of connection points: 2
#     Edge 27, Type (0, 0), BuildingBlock: XUDNAN_clean_linker_2, # of connection points: 2
#     Edge 28, Type (0, 0), BuildingBlock: XUDNAN_clean_linker_2, # of connection points: 2
#     Edge 29, Type (0, 0), BuildingBlock: XUDNAN_clean_linker_2, # of connection points: 2
#     Edge 30, Type (0, 0), BuildingBlock: XUDNAN_clean_linker_2, # of connection points: 2
#     Edge 31, Type (0, 0), BuildingBlock: XUDNAN_clean_linker_2, # of connection points: 2
#     Edge 32, Type (0, 0), BuildingBlock: XUDNAN_clean_linker_2, # of connection points: 2
#     Edge 33, Type (0, 0), BuildingBlock: XUDNAN_clean_linker_2, # of connection points: 2
#     Edge 34, Type (0, 0), BuildingBlock: XUDNAN_clean_linker_2, # of connection points: 2
#     Edge 35, Type (0, 0), BuildingBlock: XUDNAN_clean_linker_2, # of connection points: 2
#     Edge 36, Type (0, 0), BuildingBlock: XUDNAN_clean_linker_2, # of connection points: 2
#     Edge 37, Type (0, 0), BuildingBlock: XUDNAN_clean_linker_2, # of connection points: 2
#     Edge 38, Type (0, 0), BuildingBlock: XUDNAN_clean_linker_2, # of connection points: 2
#     Edge 39, Type (0, 0), BuildingBlock: XUDNAN_clean_linker_2, # of connection points: 2
#     Edge 40, Type (0, 0), BuildingBlock: XUDNAN_clean_linker_2, # of connection points: 2
#     Edge 41, Type (0, 0), BuildingBlock: XUDNAN_clean_linker_2, # of connection points: 2
#     Edge 42, Type (0, 0), BuildingBlock: XUDNAN_clean_linker_2, # of connection points: 2
#     Edge 43, Type (0, 0), BuildingBlock: XUDNAN_clean_linker_2, # of connection points: 2
#     Edge 44, Type (0, 0), BuildingBlock: XUDNAN_clean_linker_2, # of connection points: 2
#     Edge 45, Type (0, 0), BuildingBlock: XUDNAN_clean_linker_2, # of connection points: 2
#     Edge 46, Type (0, 0), BuildingBlock: XUDNAN_clean_linker_2, # of connection points: 2
#     Edge 47, Type (0, 0), BuildingBlock: XUDNAN_clean_linker_2, # of connection points: 2
#     Edge 48, Type (0, 0), BuildingBlock: XUDNAN_clean_linker_2, # of connection points: 2
#     Edge 49, Type (0, 0), BuildingBlock: XUDNAN_clean_linker_2, # of connection points: 2
#     Edge 50, Type (0, 0), BuildingBlock: XUDNAN_clean_linker_2, # of connection points: 2
#     Edge 51, Type (0, 0), BuildingBlock: XUDNAN_clean_linker_2, # of connection points: 2
#     Edge 52, Type (0, 0), BuildingBlock: XUDNAN_clean_linker_2, # of connection points: 2
#     Edge 53, Type (0, 0), BuildingBlock: XUDNAN_clean_linker_2, # of connection points: 2
#     Edge 54, Type (0, 0), BuildingBlock: XUDNAN_clean_linker_2, # of connection points: 2
#     Edge 55, Type (0, 0), BuildingBlock: XUDNAN_clean_linker_2, # of connection points: 2
# Relax obj value: 0.083
# Max RMSD: 0.106
# Mean RMSD: 0.096
data_MOF--net-gan--node1-XOMCOT_clean_sbu_1--edge1-XUDNAN_clean_linker_2
_symmetry_space_group_name_H-M    P1
_symmetry_Int_Tables_number       1
_symmetry_cell_setting            triclinic
loop_
_symmetry_equiv_pos_as_xyz
'x, y, z'
_cell_length_a     42.21338
_cell_length_b     42.087011
_cell_length_c     41.129807
_cell_angle_alpha  90.58919
_cell_angle_beta   90.747137
_cell_angle_gamma 90.864203
loop_
_atom_site_label
_atom_site_type_symbol
_atom_site_fract_x
_atom_site_fract_y
_atom_site_fract_z
_atom_type_partial_charge
C0 C 0.08975 0.1816 0.13476 0.0
C1 C 0.06922 0.16633 0.11319 0.0
N2 N 0.05914 0.13877 0.12632 0.0
N3 N 0.09307 0.16414 0.16186 0.0
C4 C 0.0738 0.1383 0.15606 0.0
H5 H 0.1025 0.20359 0.13034 0.0
Co6 Co 0.12289 0.17348 0.19665 0.0
C7 C 0.18509 0.17526 0.16493 0.0
O8 O 0.19792 0.16196 0.19056 0.0
N9 N 0.15314 0.18396 0.23211 0.0
C10 C 0.18483 0.18254 0.27622 0.0
C11 C 0.16462 0.16538 0.2561 0.0
C12 C 0.16754 0.21277 0.23876 0.0
N13 N 0.18678 0.21265 0.26569 0.0
O14 O 0.11216 0.21682 0.1955 0.0
H15 H 0.15967 0.14053 0.25932 0.0
H16 H 0.16387 0.2336 0.22412 0.0
O17 O 0.1556 0.1816 0.16464 0.0
C18 C 0.09129 0.2273 0.21464 0.0
O19 O 0.0761 0.20738 0.2335 0.0
N20 N 0.13196 0.12989 0.19784 0.0
C21 C 0.14324 0.06516 0.20188 0.0
C22 C 0.15094 0.0818 0.17374 0.0
C23 C 0.14432 0.11401 0.1719 0.0
C24 C 0.12032 0.11316 0.22335 0.0
C25 C 0.12665 0.08087 0.22646 0.0
H26 H 0.14848 0.12588 0.14925 0.0
H27 H 0.10725 0.12531 0.24208 0.0
H28 H 0.07135 0.11902 0.17305 0.0
H29 H 0.0634 0.17447 0.08902 0.0
H30 H 0.19763 0.17302 0.29678 0.0
H31 H 0.16254 0.07027 0.15356 0.0
H32 H 0.1189 0.06841 0.24791 0.0
C33 C 0.21145 0.76894 0.32336 0.0
C34 C 0.2334 0.75055 0.30802 0.0
N35 N 0.2575 0.76923 0.29827 0.0
N36 N 0.22121 0.7997 0.32452 0.0
C37 C 0.24946 0.7991 0.3084 0.0
H38 H 0.18892 0.76009 0.3318 0.0
Co39 Co 0.19436 0.83381 0.34072 0.0
C40 C 0.23671 0.87376 0.37968 0.0
O41 O 0.23244 0.89711 0.35923 0.0
N42 N 0.16687 0.86744 0.35613 0.0
C43 C 0.13149 0.90629 0.35376 0.0
C44 C 0.14929 0.88531 0.33601 0.0
C45 C 0.15874 0.87809 0.38645 0.0
N46 N 0.13717 0.90207 0.38581 0.0
O47 O 0.21207 0.86194 0.31022 0.0
H48 H 0.14887 0.88288 0.30982 0.0
H49 H 0.16837 0.86819 0.40856 0.0
O50 O 0.22496 0.84626 0.37345 0.0
C51 C 0.20414 0.85861 0.28044 0.0
O52 O 0.18847 0.83279 0.27116 0.0
N53 N 0.17521 0.80619 0.36934 0.0
C54 C 0.14085 0.76136 0.40336 0.0
C55 C 0.17208 0.76879 0.41281 0.0
C56 C 0.1892 0.79126 0.39503 0.0
C57 C 0.14466 0.79969 0.36051 0.0
C58 C 0.12701 0.77736 0.37723 0.0
H59 H 0.21386 0.79568 0.40109 0.0
H60 H 0.13431 0.81143 0.33974 0.0
H61 H 0.26343 0.82022 0.30342 0.0
H62 H 0.23088 0.72535 0.30289 0.0
H63 H 0.11493 0.92286 0.34342 0.0
H64 H 0.18331 0.75669 0.43291 0.0
H65 H 0.10274 0.77238 0.3696 0.0
C66 C 0.39195 0.8742 0.65209 0.0
C67 C 0.37389 0.85221 0.66856 0.0
N68 N 0.36548 0.86471 0.69751 0.0
N69 N 0.39527 0.90097 0.67007 0.0
C70 C 0.37888 0.89447 0.69771 0.0
H71 H 0.40197 0.87096 0.62823 0.0
Co72 Co 0.41915 0.93716 0.65538 0.0
C73 C 0.39007 0.9899 0.69168 0.0
O74 O 0.38853 1.00647 0.6648 0.0
N75 N 0.44482 0.97355 0.64043 0.0
C76 C 0.47744 1.01611 0.64363 0.0
C77 C 0.45765 0.99606 0.66054 0.0
C78 C 0.45887 0.98009 0.61132 0.0
N79 N 0.47846 1.00613 0.6125 0.0
O80 O 0.45381 0.92416 0.68134 0.0
H81 H 0.4542 0.9971 0.68652 0.0
H82 H 0.45616 0.96539 0.58982 0.0
O83 O 0.40236 0.96232 0.69125 0.0
C84 C 0.47332 0.91116 0.66222 0.0
O85 O 0.46702 0.91083 0.63085 0.0
N86 N 0.38541 0.94704 0.62766 0.0
C87 C 0.33692 0.94532 0.58114 0.0
C88 C 0.33006 0.95026 0.61404 0.0
C89 C 0.35469 0.95059 0.63708 0.0
C90 C 0.39214 0.94155 0.59588 0.0
C91 C 0.36849 0.94154 0.57212 0.0
H92 H 0.3487 0.9513 0.66251 0.0
H93 H 0.41543 0.93399 0.5892 0.0
H94 H 0.37701 0.9112 0.7177 0.0
H95 H 0.3671 0.8289 0.65936 0.0
H96 H 0.49142 0.03554 0.65401 0.0
H97 H 0.30579 0.952 0.62202 0.0
H98 H 0.37458 0.9357 0.54727 0.0
C99 C 0.33175 0.10638 0.9535 0.0
C100 C 0.35017 0.08878 0.97422 0.0
N101 N 0.3787 0.10323 0.97826 0.0
N102 N 0.34781 0.13254 0.94399 0.0
C103 C 0.37661 0.12984 0.95946 0.0
H104 H 0.30836 0.09957 0.94471 0.0
Co105 Co 0.33066 0.161 0.91131 0.0
C106 C 0.29825 0.11614 0.86455 0.0
O107 O 0.27494 0.13532 0.85751 0.0
N108 N 0.31336 0.18915 0.87757 0.0
C109 C 0.30716 0.20957 0.82781 0.0
C110 C 0.32376 0.18856 0.84661 0.0
C111 C 0.28969 0.21119 0.87641 0.0
N112 N 0.28551 0.22418 0.84625 0.0
O113 O 0.29085 0.159 0.932 0.0
H114 H 0.34181 0.17294 0.8376 0.0
H115 H 0.27559 0.2175 0.89718 0.0
O116 O 0.3196 0.12443 0.88512 0.0
C117 C 0.28547 0.18036 0.95323 0.0
O118 O 0.30488 0.20499 0.95568 0.0
N119 N 0.37042 0.16328 0.89272 0.0
C120 C 0.43185 0.17046 0.871 0.0
C121 C 0.41555 0.14167 0.86613 0.0
C122 C 0.38488 0.13831 0.87775 0.0
C123 C 0.38598 0.19149 0.89757 0.0
C124 C 0.41693 0.1956 0.88693 0.0
H125 H 0.37332 0.11536 0.87526 0.0
H126 H 0.37434 0.21066 0.91016 0.0
H127 H 0.39593 0.14668 0.95634 0.0
H128 H 0.34327 0.06612 0.9843 0.0
H129 H 0.31028 0.21289 0.802 0.0
H130 H 0.42677 0.12172 0.85433 0.0
H131 H 0.4291 0.21816 0.89106 0.0
C132 C 0.71952 0.30587 0.78708 0.0
C133 C 0.74029 0.28655 0.77128 0.0
N134 N 0.7686 0.28883 0.78636 0.0
N135 N 0.73376 0.32026 0.81307 0.0
C136 C 0.76432 0.30983 0.81151 0.0
H137 H 0.6952 0.30958 0.77966 0.0
Co138 Co 0.70775 0.34945 0.83784 0.0
C139 C 0.71836 0.32976 0.90597 0.0
O140 O 0.68854 0.32088 0.90863 0.0
N141 N 0.68055 0.3802 0.85986 0.0
C142 C 0.648 0.42172 0.85818 0.0
C143 C 0.6664 0.40144 0.84036 0.0
C144 C 0.67047 0.38909 0.89025 0.0
N145 N 0.65025 0.41426 0.88992 0.0
O146 O 0.73788 0.38256 0.83245 0.0
H147 H 0.66905 0.40186 0.81424 0.0
H148 H 0.67814 0.37802 0.91242 0.0
O149 O 0.72879 0.3397 0.8788 0.0
C150 C 0.74264 0.39404 0.80449 0.0
O151 O 0.72952 0.37982 0.77899 0.0
N152 N 0.67738 0.31687 0.84197 0.0
C153 C 0.6331 0.26772 0.8371 0.0
C154 C 0.66331 0.26203 0.84972 0.0
C155 C 0.68549 0.28687 0.85118 0.0
C156 C 0.64807 0.32249 0.82919 0.0
C157 C 0.62545 0.29818 0.82666 0.0
H158 H 0.70939 0.28197 0.85922 0.0
H159 H 0.64249 0.34553 0.81964 0.0
H160 H 0.78303 0.31771 0.82807 0.0
H161 H 0.73527 0.27261 0.74948 0.0
H162 H 0.63366 0.44031 0.84801 0.0
H163 H 0.66985 0.23853 0.85765 0.0
H164 H 0.60222 0.30308 0.81656 0.0
C165 C 0.91731 0.36607 0.17046 0.0
C166 C 0.89961 0.34413 0.18741 0.0
N167 N 0.87971 0.35956 0.20738 0.0
N168 N 0.90906 0.39567 0.17923 0.0
C169 C 0.88609 0.39096 0.20186 0.0
H170 H 0.93515 0.36076 0.15265 0.0
Co171 Co 0.92873 0.4327 0.16088 0.0
C172 C 0.89278 0.48541 0.19114 0.0
O173 O 0.88925 0.49945 0.16294 0.0
N174 N 0.94993 0.47004 0.14236 0.0
C175 C 0.97816 0.51557 0.14203 0.0
C176 C 0.96013 0.49527 0.16049 0.0
C177 C 0.96346 0.47552 0.11279 0.0
N178 N 0.9806 0.50322 0.11188 0.0
O179 O 0.96334 0.42783 0.19023 0.0
H180 H 0.95637 0.49802 0.1863 0.0
H181 H 0.96223 0.4589 0.09264 0.0
O182 O 0.9076 0.45922 0.19285 0.0
C183 C 0.98899 0.41961 0.17686 0.0
O184 O 0.99021 0.41837 0.14499 0.0
N185 N 0.89544 0.43443 0.13075 0.0
C186 C 0.84927 0.41616 0.08495 0.0
C187 C 0.84063 0.42816 0.11546 0.0
C188 C 0.8641 0.43666 0.13828 0.0
C189 C 0.90413 0.42329 0.10105 0.0
C190 C 0.8815 0.41459 0.07756 0.0
H191 H 0.85683 0.44233 0.16266 0.0
H192 H 0.92865 0.41811 0.09661 0.0
H193 H 0.87436 0.41024 0.21413 0.0
H194 H 0.90112 0.31862 0.1846 0.0
H195 H 0.99025 0.53689 0.15086 0.0
H196 H 0.81597 0.42925 0.12231 0.0
H197 H 0.88926 0.40424 0.05485 0.0
C198 C 0.82677 0.60922 0.45606 0.0
C199 C 0.84323 0.59025 0.47733 0.0
N200 N 0.87097 0.6047 0.4856 0.0
N201 N 0.84346 0.63613 0.45036 0.0
C202 C 0.87028 0.6327 0.46906 0.0
H203 H 0.80451 0.60288 0.4442 0.0
Co204 Co 0.83142 0.66649 0.41701 0.0
C205 C 0.81154 0.6243 0.36189 0.0
O206 O 0.78792 0.64246 0.35321 0.0
N207 N 0.81944 0.69647 0.38291 0.0
C208 C 0.82075 0.72105 0.33495 0.0
C209 C 0.83584 0.70012 0.3552 0.0
C210 C 0.79398 0.71592 0.37843 0.0
N211 N 0.79415 0.73133 0.34924 0.0
O212 O 0.78829 0.66053 0.42773 0.0
H213 H 0.85712 0.68741 0.34931 0.0
H214 H 0.77538 0.71838 0.39604 0.0
O215 O 0.82908 0.63183 0.38624 0.0
C216 C 0.78063 0.67911 0.4508 0.0
O217 O 0.80134 0.70086 0.46074 0.0
N218 N 0.87405 0.67327 0.40891 0.0
C219 C 0.93865 0.68064 0.42021 0.0
C220 C 0.92668 0.65366 0.40366 0.0
C221 C 0.89412 0.65034 0.39823 0.0
C222 C 0.88542 0.70071 0.42269 0.0
C223 C 0.91778 0.70496 0.42852 0.0
H224 H 0.88518 0.62813 0.3882 0.0
H225 H 0.86904 0.71825 0.43148 0.0
H226 H 0.88948 0.64998 0.46972 0.0
H227 H 0.83575 0.56676 0.48473 0.0
H228 H 0.82853 0.7272 0.31084 0.0
H229 H 0.94203 0.63436 0.39689 0.0
H230 H 0.9262 0.72654 0.44057 0.0
C231 C 0.85529 0.85907 0.94688 0.0
C232 C 0.83442 0.83716 0.93324 0.0
N233 N 0.82138 0.84957 0.90629 0.0
N234 N 0.85597 0.8857 0.92882 0.0
C235 C 0.83463 0.87909 0.90423 0.0
H236 H 0.86797 0.85574 0.96944 0.0
Co237 Co 0.87727 0.9258 0.93954 0.0
C238 C 0.89664 0.90909 0.87324 0.0
O239 O 0.90101 0.87989 0.88321 0.0
N240 N 0.89735 0.96543 0.95116 0.0
C241 C 0.92076 1.01327 0.95018 0.0
C242 C 0.90337 0.99083 0.93241 0.0
C243 C 0.91108 0.97329 0.98035 0.0
N244 N 0.92591 1.00224 0.98049 0.0
O245 O 0.83843 0.94628 0.93129 0.0
H246 H 0.89633 0.99268 0.90713 0.0
H247 H 0.91049 0.95774 1.00108 0.0
O248 O 0.88834 0.93062 0.89356 0.0
C249 C 0.8206 0.94143 0.95538 0.0
O250 O 0.83249 0.92743 0.98112 0.0
N251 N 0.91546 0.906 0.95023 0.0
C252 C 0.97227 0.88409 0.97701 0.0
C253 C 0.97118 0.89707 0.94565 0.0
C254 C 0.94296 0.90911 0.93337 0.0
C255 C 0.91619 0.89463 0.98111 0.0
C256 C 0.9442 0.88358 0.99498 0.0
H257 H 0.94388 0.92194 0.91088 0.0
H258 H 0.89513 0.8957 0.99575 0.0
H259 H 0.82799 0.8961 0.88589 0.0
H260 H 0.82873 0.81396 0.9429 0.0
H261 H 0.9298 0.03555 0.94093 0.0
H262 H 0.99187 0.89835 0.93048 0.0
H263 H 0.9438 0.87547 1.01985 0.0
C264 C 0.94204 0.1016 0.67086 0.0
C265 C 0.92419 0.12079 0.69056 0.0
N266 N 0.91208 0.14432 0.67259 0.0
N267 N 0.94094 0.11205 0.6399 0.0
C268 C 0.92279 0.13865 0.64194 0.0
H269 H 0.95535 0.08135 0.67893 0.0
Co270 Co 0.9631 0.09268 0.60382 0.0
C271 C 0.91347 0.07671 0.55563 0.0
O272 O 0.92623 0.04866 0.5517 0.0
N273 N 0.98631 0.07397 0.567 0.0
C274 C 1.00595 0.07212 0.51662 0.0
C275 C 0.98864 0.08945 0.5385 0.0
C276 C 1.00296 0.04669 0.5612 0.0
N277 N 1.0152 0.04488 0.53056 0.0
O278 O 0.97621 0.13411 0.59158 0.0
H279 H 0.97809 0.11219 0.5336 0.0
H280 H 1.00588 0.02815 0.57879 0.0
O281 O 0.92553 0.09655 0.5762 0.0
C282 C 1.00123 0.14453 0.60577 0.0
O283 O 1.01832 0.12468 0.62281 0.0
N284 N 0.95072 0.05243 0.61877 0.0
C285 C 0.93645 1.00291 0.66075 0.0
C286 C 0.91216 1.01947 0.64524 0.0
C287 C 0.91977 0.04433 0.6244 0.0
C288 C 0.97456 0.03606 0.63327 0.0
C289 C 0.96797 1.01066 0.65374 0.0
H290 H 0.90076 0.05899 0.61573 0.0
H291 H 0.99875 0.04458 0.63136 0.0
H292 H 0.91761 0.15364 0.62137 0.0
H293 H 0.92118 0.11823 0.71652 0.0
H294 H 1.01145 0.07959 0.49224 0.0
H295 H 0.88756 1.01461 0.65083 0.0
H296 H 0.98731 0.9991 0.66624 0.0
C297 C 0.61892 0.1823 0.44289 0.0
C298 C 0.59977 0.16573 0.46373 0.0
N299 N 0.61146 0.13644 0.46777 0.0
N300 N 0.64348 0.16422 0.43372 0.0
C301 C 0.63796 0.13602 0.44907 0.0
H302 H 0.61444 0.20596 0.43424 0.0
Co303 Co 0.67464 0.17821 0.40241 0.0
C304 C 0.73631 0.16831 0.4338 0.0
O305 O 0.74525 0.19682 0.42456 0.0
N306 N 0.70581 0.19224 0.37011 0.0
C307 C 0.74309 0.18823 0.33198 0.0
C308 C 0.72266 0.17181 0.35188 0.0
C309 C 0.71708 0.22136 0.36042 0.0
N310 N 0.73979 0.21965 0.33719 0.0
O311 O 0.66738 0.13935 0.37871 0.0
H312 H 0.72069 0.14621 0.35315 0.0
H313 H 0.70967 0.24362 0.37073 0.0
O314 O 0.70824 0.1581 0.42729 0.0
C315 C 0.63983 0.13621 0.36595 0.0
O316 O 0.62009 0.15997 0.36801 0.0
N317 N 0.67873 0.21666 0.42523 0.0
C318 C 0.66096 0.2709 0.4594 0.0
C319 C 0.6786 0.24721 0.47482 0.0
C320 C 0.68674 0.21987 0.45742 0.0
C321 C 0.66316 0.24018 0.40957 0.0
C322 C 0.65456 0.26767 0.42594 0.0
H323 H 0.69651 0.20024 0.4707 0.0
H324 H 0.65478 0.23626 0.38486 0.0
H325 H 0.65281 0.11547 0.44618 0.0
H326 H 0.578 0.17429 0.47406 0.0
H327 H 0.75901 0.17752 0.31479 0.0
H328 H 0.68368 0.24851 0.50068 0.0
H329 H 0.63998 0.28448 0.41306 0.0
C330 C 0.6679 0.91447 0.17182 0.0
C331 C 0.68765 0.89617 0.1906 0.0
N332 N 0.67042 0.88021 0.21268 0.0
N333 N 0.63754 0.91056 0.18115 0.0
C334 C 0.6401 0.8899 0.20666 0.0
H335 H 0.67588 0.92989 0.15276 0.0
Co336 Co 0.59926 0.9313 0.1635 0.0
C337 C 0.58816 0.86275 0.15576 0.0
O338 O 0.61781 0.86053 0.14677 0.0
N339 N 0.56139 0.95183 0.14724 0.0
C340 C 0.51011 0.96339 0.14236 0.0
C341 C 0.5323 0.94601 0.15908 0.0
C342 C 0.55595 0.97331 0.12305 0.0
N343 N 0.52465 0.98073 0.1193 0.0
O344 O 0.58708 0.94019 0.20718 0.0
H345 H 0.52741 0.92991 0.17878 0.0
H346 H 0.5746 0.98299 0.10818 0.0
O347 O 0.57675 0.88999 0.16277 0.0
C348 C 0.60492 0.96357 0.2159 0.0
O349 O 0.62515 0.97504 0.19485 0.0
N350 N 0.61238 0.92671 0.12047 0.0
C351 C 0.63215 0.93476 0.05676 0.0
C352 C 0.6432 0.95516 0.0816 0.0
C353 C 0.63275 0.95087 0.11314 0.0
C354 C 0.5995 0.90795 0.09618 0.0
C355 C 0.61 0.91087 0.06417 0.0
H356 H 0.64054 0.96738 0.132 0.0
H357 H 0.58044 0.89136 0.1009 0.0
H358 H 0.6198 0.88173 0.22018 0.0
H359 H 0.71308 0.89529 0.18812 0.0
H360 H 0.48503 0.96318 0.14732 0.0
H361 H 0.66027 0.97396 0.07683 0.0
H362 H 0.60052 0.89514 0.04532 0.0
C363 C 0.44738 0.60341 0.17456 0.0
C364 C 0.42825 0.62099 0.19454 0.0
N365 N 0.41306 0.64281 0.17666 0.0
N366 N 0.44432 0.61319 0.14353 0.0
C367 C 0.42361 0.63781 0.14581 0.0
H368 H 0.46311 0.58504 0.18264 0.0
Co369 Co 0.46704 0.59589 0.10675 0.0
C370 C 0.41717 0.59103 0.05403 0.0
O371 O 0.42948 0.56616 0.03967 0.0
N372 N 0.49057 0.57914 0.06974 0.0
C373 C 0.51317 0.57917 1.02084 0.0
C374 C 0.495 0.59597 0.04239 0.0
C375 C 0.50691 0.55176 0.06382 0.0
N376 N 0.52095 0.55102 0.03395 0.0
O377 O 0.48087 0.63784 0.09749 0.0
H378 H 0.48549 0.61929 0.03813 0.0
H379 H 0.50856 0.53271 0.08111 0.0
O380 O 0.43009 0.60282 0.07975 0.0
C381 C 0.50486 0.64819 0.11352 0.0
O382 O 0.52087 0.62828 0.13157 0.0
N383 N 0.45404 0.55495 0.1184 0.0
C384 C 0.43539 0.50747 0.1615 0.0
C385 C 0.41448 0.51832 0.13716 0.0
C386 C 0.42386 0.54294 0.11674 0.0
C387 C 0.47606 0.54121 0.1379 0.0
C388 C 0.46725 0.51787 0.15997 0.0
H389 H 0.40586 0.55386 0.10208 0.0
H390 H 0.49971 0.55143 0.13944 0.0
H391 H 0.41668 0.65205 0.12529 0.0
H392 H 0.42647 0.61844 0.22062 0.0
H393 H 0.52031 0.58769 0.99731 0.0
H394 H 0.3902 0.50999 0.1353 0.0
H395 H 0.48501 0.51082 0.17745 0.0
C396 C 0.11655 0.67664 0.93599 0.0
C397 C 0.09736 0.65993 0.95665 0.0
N398 N 0.11126 0.6323 0.96403 0.0
N399 N 0.14328 0.66039 0.9303 0.0
C400 C 0.1391 0.633 0.94743 0.0
H401 H 0.11081 0.69911 0.92509 0.0
Co402 Co 0.17476 0.67604 0.90047 0.0
C403 C 0.23616 0.67164 0.93298 0.0
O404 O 0.24269 0.70011 0.92192 0.0
N405 N 0.20578 0.69176 0.86891 0.0
C406 C 0.24524 0.68943 0.83304 0.0
C407 C 0.22563 0.67222 0.85307 0.0
C408 C 0.21426 0.72118 0.85752 0.0
N409 N 0.2383 0.72049 0.83564 0.0
O410 O 0.17106 0.63664 0.87746 0.0
H411 H 0.2265 0.64681 0.85642 0.0
H412 H 0.20344 0.74295 0.8652 0.0
O413 O 0.20908 0.65863 0.92708 0.0
C414 C 0.14633 0.63358 0.85967 0.0
O415 O 0.12792 0.65824 0.85605 0.0
N416 N 0.17575 0.71478 0.92366 0.0
C417 C 0.15568 0.76652 0.96043 0.0
C418 C 0.17326 0.74242 0.97493 0.0
C419 C 0.18241 0.71639 0.95629 0.0
C420 C 0.16008 0.73884 0.9089 0.0
C421 C 0.15032 0.76522 0.92669 0.0
H422 H 0.19166 0.6962 0.96902 0.0
H423 H 0.15229 0.73608 0.88385 0.0
H424 H 0.15591 0.61384 0.94742 0.0
H425 H 0.07419 0.66714 0.96465 0.0
H426 H 0.26383 0.67958 0.81836 0.0
H427 H 0.17727 0.7422 1.00099 0.0
H428 H 0.13576 0.78266 0.91467 0.0
C429 C 0.15534 0.41581 0.68265 0.0
C430 C 0.17557 0.39765 0.70106 0.0
N431 N 0.15854 0.37936 0.72132 0.0
N432 N 0.1249 0.40935 0.69035 0.0
C433 C 0.12788 0.38751 0.71478 0.0
H434 H 0.16304 0.43272 0.66484 0.0
Co435 Co 0.08606 0.42744 0.67135 0.0
C436 C 0.07957 0.35844 0.66151 0.0
O437 O 0.10975 0.35805 0.65408 0.0
N438 N 0.04742 0.44541 0.6535 0.0
C439 C 0.99591 0.45357 0.64462 0.0
C440 C 1.01792 0.43612 0.6616 0.0
C441 C 0.04245 0.46895 0.63138 0.0
N442 N 1.01109 0.47444 0.62527 0.0
O443 O 0.07193 0.43443 0.71458 0.0
H444 H 1.01262 0.41778 0.67904 0.0
H445 H 0.06159 0.48173 0.61988 0.0
O446 O 0.06651 0.38478 0.66889 0.0
C447 C 0.07601 0.46414 0.71973 0.0
O448 O 0.08476 0.48211 0.69539 0.0
N449 N 0.10114 0.42468 0.62895 0.0
C450 C 0.12394 0.43407 0.56659 0.0
C451 C 0.10232 0.4093 0.57262 0.0
C452 C 0.09028 0.40565 0.60391 0.0
C453 C 0.12044 0.45003 0.62283 0.0
C454 C 0.13245 0.45499 0.59198 0.0
H455 H 0.07177 0.38817 0.60749 0.0
H456 H 0.12631 0.46679 0.64218 0.0
H457 H 0.10769 0.37703 0.72683 0.0
H458 H 0.20114 0.39834 0.6997 0.0
H459 H 0.97053 0.45106 0.64694 0.0
H460 H 0.09461 0.39319 0.55328 0.0
H461 H 0.14896 0.47454 0.58831 0.0
C462 C 0.58667 0.61073 0.7001 0.0
C463 C 0.56486 0.59402 0.68115 0.0
N464 N 0.5581 0.61105 0.65453 0.0
N465 N 0.59456 0.63846 0.68568 0.0
C466 C 0.57591 0.63815 0.65823 0.0
H467 H 0.59612 0.60237 0.72282 0.0
Co468 Co 0.62637 0.6704 0.69879 0.0
C469 C 0.64656 0.64419 0.63596 0.0
O470 O 0.63991 0.61555 0.64662 0.0
N471 N 0.6566 0.70239 0.71192 0.0
C472 C 0.69082 0.74325 0.71179 0.0
C473 C 0.6718 0.72334 0.69281 0.0
C474 C 0.6667 0.71031 0.74253 0.0
N475 N 0.68777 0.73518 0.7433 0.0
O476 O 0.59938 0.7026 0.68458 0.0
H477 H 0.66885 0.72457 0.66671 0.0
H478 H 0.65859 0.6979 0.76382 0.0
O479 O 0.6438 0.66838 0.65481 0.0
C480 C 0.58285 0.71748 0.70514 0.0
O481 O 0.58076 0.70674 0.73492 0.0
N482 N 0.6544 0.63996 0.71468 0.0
C483 C 0.69708 0.60032 0.74586 0.0
C484 C 0.70486 0.61449 0.71636 0.0
C485 C 0.68357 0.63497 0.70163 0.0
C486 C 0.64767 0.62857 0.74473 0.0
C487 C 0.66839 0.60812 0.76053 0.0
H488 H 0.69125 0.64752 0.68035 0.0
H489 H 0.6261 0.63557 0.75658 0.0
H490 H 0.57652 0.65695 0.64048 0.0
H491 H 0.55461 0.57103 0.68679 0.0
H492 H 0.70518 0.76271 0.70287 0.0
H493 H 0.72743 0.61013 0.70501 0.0
H494 H 0.66175 0.59811 0.78366 0.0
C495 C 0.36006 0.35736 0.4446 0.0
C496 C 0.34222 0.33539 0.42684 0.0
N497 N 0.32846 0.35003 0.40135 0.0
N498 N 0.35804 0.38607 0.4306 0.0
C499 C 0.33864 0.3808 0.40427 0.0
H500 H 0.37314 0.35274 0.46679 0.0
Co501 Co 0.37517 0.42562 0.44717 0.0
C502 C 0.40657 0.45124 0.38815 0.0
O503 O 0.4324 0.46028 0.40407 0.0
N504 N 0.39177 0.46629 0.46339 0.0
C505 C 0.39848 0.51899 0.46418 0.0
C506 C 0.38391 0.4936 0.44868 0.0
C507 C 0.41104 0.47638 0.48868 0.0
N508 N 0.41571 0.50853 0.48968 0.0
O509 O 0.33426 0.44326 0.44302 0.0
H510 H 0.36854 0.49506 0.42752 0.0
H511 H 0.42124 0.46076 0.50643 0.0
O512 O 0.38385 0.43762 0.40291 0.0
C513 C 0.31656 0.43206 0.46496 0.0
O514 O 0.32905 0.41352 0.48707 0.0
N515 N 0.41441 0.40683 0.45362 0.0
C516 C 0.47186 0.38138 0.47339 0.0
C517 C 0.4639 0.38332 0.44017 0.0
C518 C 0.43461 0.39555 0.43076 0.0
C519 C 0.42041 0.40209 0.48577 0.0
C520 C 0.44929 0.39018 0.4963 0.0
H521 H 0.42823 0.39567 0.40527 0.0
H522 H 0.40279 0.40845 0.50346 0.0
H523 H 0.33124 0.39956 0.3882 0.0
H524 H 0.33965 0.31046 0.43252 0.0
H525 H 0.39648 0.54337 0.45655 0.0
H526 H 0.47992 0.37506 0.42167 0.0
H527 H 0.454 0.38845 0.52216 0.0
H528 H 0.21157 0.21552 0.32781 0.0
H529 H 0.20614 0.26888 0.23823 0.0
H530 H 0.24055 0.31087 0.26329 0.0
H531 H 0.21148 0.28249 0.38328 0.0
H532 H 0.23894 0.26469 0.41136 0.0
H533 H 0.21298 0.23986 0.3866 0.0
H534 H 0.26145 0.21002 0.36428 0.0
H535 H 0.28755 0.23477 0.38893 0.0
H536 H 0.29307 0.23224 0.3456 0.0
H537 H 0.27812 0.34704 0.29918 0.0
H538 H 0.31347 0.37235 0.34071 0.0
H539 H 0.29394 0.29434 0.40599 0.0
C540 C 0.21758 0.2358 0.31309 0.0
C541 C 0.20593 0.23833 0.28059 0.0
C542 C 0.21431 0.26604 0.26305 0.0
C543 C 0.23408 0.29009 0.27715 0.0
C544 C 0.24542 0.28642 0.30902 0.0
C545 C 0.23728 0.25988 0.32671 0.0
C546 C 0.25273 0.26107 0.36031 0.0
C547 C 0.22753 0.26209 0.38696 0.0
C548 C 0.27502 0.23285 0.36505 0.0
C549 C 0.27121 0.29227 0.35887 0.0
C550 C 0.26666 0.30674 0.3292 0.0
C551 C 0.28162 0.33578 0.32246 0.0
C552 C 0.30168 0.35014 0.3464 0.0
C553 C 0.30697 0.33561 0.37699 0.0
C554 C 0.29112 0.30624 0.38299 0.0
H555 H 0.0301 0.0376 0.46556 0.0
H556 H 0.04458 0.99426 0.55982 0.0
H557 H 0.07747 0.95321 0.53388 0.0
H558 H 1.02502 0.96561 0.41837 0.0
H559 H 0.04573 0.98209 0.38425 0.0
H560 H 1.02326 1.00759 0.4104 0.0
H561 H 0.07306 0.04307 0.42081 0.0
H562 H 0.09569 1.01767 0.39468 0.0
H563 H 0.10893 1.02537 0.43589 0.0
H564 H 0.1105 0.9158 0.49565 0.0
H565 H 0.13741 0.88743 0.45104 0.0
H566 H 0.10198 0.95694 0.38287 0.0
C567 C 0.04017 1.01982 0.48118 0.0
C568 C 0.03429 1.0199 0.5153 0.0
C569 C 0.04811 0.99523 0.53386 0.0
C570 C 0.06712 0.97166 0.51921 0.0
C571 C 0.07248 0.97262 0.48568 0.0
C572 C 0.05926 0.99621 0.467 0.0
C573 C 0.06841 0.99231 0.43149 0.0
C574 C 0.03885 0.98656 0.40986 0.0
C575 C 0.08767 1.02133 0.42005 0.0
C576 C 0.08883 0.96281 0.43284 0.0
C577 C 0.09103 0.95167 0.46425 0.0
C578 C 0.10874 0.92456 0.47106 0.0
C579 C 0.1242 0.90851 0.44535 0.0
C580 C 0.12212 0.91928 0.41273 0.0
C581 C 0.10416 0.94719 0.40697 0.0
H582 H 0.27627 0.71778 0.78158 0.0
H583 H 0.23752 0.78413 0.85151 0.0
H584 H 0.26566 0.82822 0.82437 0.0
H585 H 0.35351 0.75493 0.7767 0.0
H586 H 0.35733 0.74684 0.73382 0.0
H587 H 0.33367 0.7208 0.75849 0.0
H588 H 0.28545 0.72898 0.72011 0.0
H589 H 0.30897 0.75504 0.69532 0.0
H590 H 0.27229 0.76872 0.71204 0.0
H591 H 0.29987 0.86607 0.78865 0.0
H592 H 0.33423 0.89246 0.74843 0.0
H593 H 0.35138 0.80079 0.7032 0.0
C594 C 0.27366 0.74143 0.79157 0.0
C595 C 0.2543 0.7469 0.81915 0.0
C596 C 0.25168 0.77877 0.83049 0.0
C597 C 0.26785 0.80416 0.81522 0.0
C598 C 0.28682 0.79774 0.78835 0.0
C599 C 0.28967 0.76704 0.77666 0.0
C600 C 0.31144 0.76622 0.74744 0.0
C601 C 0.34072 0.746 0.75455 0.0
C602 C 0.29346 0.75402 0.71692 0.0
C603 C 0.32049 0.80121 0.74439 0.0
C604 C 0.30613 0.81912 0.76818 0.0
C605 C 0.31114 0.85206 0.77 0.0
C606 C 0.33098 0.86694 0.74699 0.0
C607 C 0.34585 0.84916 0.72207 0.0
C608 C 0.34038 0.81565 0.72128 0.0
H609 H 0.37675 0.05914 1.02721 0.0
H610 H 0.44231 0.11781 0.97291 0.0
H611 H 0.48718 0.09365 1.00288 0.0
H612 H 0.41934 0.06134 0.1037 0.0
H613 H 0.40942 1.02072 0.11322 0.0
H614 H 0.38306 0.04348 0.08814 0.0
H615 H 0.38547 1.00038 0.04291 0.0
H616 H 0.41186 0.9775 0.06784 0.0
H617 H 0.42341 0.98877 1.02748 0.0
H618 H 0.52607 0.06015 0.03965 0.0
H619 H 0.5526 1.02398 0.07813 0.0
H620 H 0.46055 0.98688 0.10626 0.0
C621 C 0.40043 0.06702 1.02122 0.0
C622 C 0.40547 0.09062 0.99711 0.0
C623 C 0.4373 0.10015 0.99115 0.0
C624 C 0.46311 0.08631 1.00807 0.0
C625 C 0.45712 0.06279 0.03123 0.0
C626 C 0.42636 0.05343 0.03776 0.0
C627 C 0.42579 0.02761 0.06342 0.0
C628 C 0.40837 0.03898 0.09393 0.0
C629 C 0.41075 0.99674 0.04958 0.0
C630 C 0.46098 1.02362 0.07044 0.0
C631 C 0.47886 0.04405 0.05175 0.0
C632 C 0.51201 0.0442 0.05429 0.0
C633 C 0.52703 1.02329 0.07634 0.0
C634 C 0.50921 1.00211 0.096 0.0
C635 C 0.47554 1.0026 0.09244 0.0
H636 H 0.37419 0.63738 0.22912 0.0
H637 H 0.40169 0.70246 0.15322 0.0
H638 H 0.36673 0.74339 0.17697 0.0
H639 H 0.29233 0.66021 0.23243 0.0
H640 H 0.29001 0.65534 0.27583 0.0
H641 H 0.31728 0.63197 0.25269 0.0
H642 H 0.36353 0.65236 0.28965 0.0
H643 H 0.33642 0.67599 0.31275 0.0
H644 H 0.37046 0.69454 0.29441 0.0
H645 H 0.32826 0.77861 0.21192 0.0
H646 H 0.28829 0.80077 0.24953 0.0
H647 H 0.2863 0.71172 0.30131 0.0
C648 C 0.37309 0.66026 0.21745 0.0
C649 C 0.39115 0.6665 0.1892 0.0
C650 C 0.38818 0.69677 0.17463 0.0
C651 C 0.36844 0.72032 0.1882 0.0
C652 C 0.35136 0.71344 0.21634 0.0
C653 C 0.35334 0.68385 0.23047 0.0
C654 C 0.33214 0.68169 0.26001 0.0
C655 C 0.30642 0.65577 0.25493 0.0
C656 C 0.35182 0.6758 0.29104 0.0
C657 C 0.31784 0.71464 0.26058 0.0
C658 C 0.32928 0.73289 0.23544 0.0
C659 C 0.31925 0.76427 0.23154 0.0
C660 C 0.29665 0.77688 0.25324 0.0
C661 C 0.28385 0.75819 0.27856 0.0
C662 C 0.29522 0.72676 0.2822 0.0
H663 H 0.49818 0.06798 0.60606 0.0
H664 H 0.50519 0.97477 0.56123 0.0
H665 H 0.54162 0.99709 0.52021 0.0
H666 H 0.49838 0.11236 0.53137 0.0
H667 H 0.52109 0.14518 0.54856 0.0
H668 H 0.496 0.1215 0.57418 0.0
H669 H 0.54403 0.11026 0.61192 0.0
H670 H 0.56929 0.13374 0.58629 0.0
H671 H 0.57916 0.09316 0.595 0.0
H672 H 0.5798 0.03083 0.48412 0.0
H673 H 0.61043 0.07242 0.45503 0.0
H674 H 0.57715 0.14321 0.52317 0.0
C675 C 0.50741 0.05214 0.58771 0.0
C676 C 0.49865 1.01938 0.58722 0.0
C677 C 0.5111 0.99987 0.56224 0.0
C678 C 0.5321 1.01238 0.53888 0.0
C679 C 0.54047 0.04469 0.54035 0.0
C680 C 0.52811 0.06431 0.56404 0.0
C681 C 0.53996 0.09834 0.56002 0.0
C682 C 0.51221 0.12066 0.55312 0.0
C683 C 0.55925 0.10952 0.5901 0.0
C684 C 0.561 0.09498 0.53048 0.0
C685 C 0.56133 0.06384 0.51952 0.0
C686 C 0.57949 0.05525 0.49261 0.0
C687 C 0.5971 0.07902 0.47629 0.0
C688 C 0.59634 0.11128 0.48654 0.0
C689 C 0.57817 0.11894 0.51434 0.0
H690 H 0.29042 0.2625 0.79269 0.0
H691 H 0.22778 0.2396 0.87208 0.0
H692 H 0.18799 0.27651 0.84937 0.0
H693 H 0.27144 0.34553 0.78697 0.0
H694 H 0.27408 0.34593 0.74327 0.0
H695 H 0.29729 0.31839 0.76643 0.0
H696 H 0.27304 0.27155 0.73274 0.0
H697 H 0.24972 0.29893 0.70952 0.0
H698 H 0.23059 0.26655 0.73029 0.0
H699 H 0.15329 0.31628 0.81481 0.0
H700 H 0.13049 0.35455 0.77574 0.0
H701 H 0.21638 0.34995 0.71933 0.0
C702 C 0.26835 0.2649 0.80546 0.0
C703 C 0.26257 0.24749 0.83441 0.0
C704 C 0.23327 0.25246 0.85016 0.0
C705 C 0.21032 0.27339 0.8372 0.0
C706 C 0.21672 0.28965 0.80834 0.0
C707 C 0.24529 0.28566 0.7929 0.0
C708 C 0.24685 0.30565 0.76228 0.0
C709 C 0.27402 0.33034 0.76491 0.0
C710 C 0.25025 0.2844 0.73192 0.0
C711 C 0.21473 0.32162 0.7626 0.0
C712 C 0.19748 0.31214 0.78923 0.0
C713 C 0.1669 0.32374 0.79405 0.0
C714 C 0.15394 0.34551 0.77149 0.0
C715 C 0.17136 0.35597 0.74415 0.0
C716 C 0.20222 0.34334 0.73996 0.0
H717 H 1.02052 0.1447 0.07212 0.0
H718 H 0.05232 0.0761 0.14314 0.0
H719 H 1.02073 0.03429 0.11468 0.0
H720 H 0.94077 0.11304 0.06109 0.0
H721 H 0.93958 0.12071 1.01807 0.0
H722 H 0.96374 0.14547 0.04476 0.0
H723 H 1.01294 0.13338 1.01008 0.0
H724 H 0.98894 0.10857 0.98331 0.0
H725 H 1.0237 0.09267 1.00274 0.0
H726 H 0.98616 0.99879 0.07662 0.0
H727 H 0.95272 0.97381 0.03359 0.0
H728 H 0.94361 0.06539 0.98704 0.0
C729 C 1.02109 0.12096 0.08187 0.0
C730 C 0.03932 0.1142 0.11032 0.0
C731 C 0.03858 0.0825 0.1219 0.0
C732 C 1.0207 0.05836 0.10567 0.0
C733 C 1.00339 0.0659 0.07766 0.0
C734 C 1.00343 0.09653 0.06592 0.0
C735 C 0.98322 0.0984 0.03505 0.0
C736 C 0.95516 0.12073 0.04005 0.0
C737 C 1.00341 0.10887 1.00608 0.0
C738 C 0.97195 0.06404 0.03102 0.0
C739 C 0.98374 0.04566 0.05592 0.0
C740 C 0.97674 1.01314 0.05718 0.0
C741 C 0.95741 0.9991 0.03253 0.0
C742 C 0.94502 1.0173 1.0065 0.0
C743 C 0.95258 0.05039 1.00614 0.0
H744 H 0.8622 0.14079 0.71393 0.0
H745 H 0.9205 0.20758 0.66119 0.0
H746 H 0.89315 0.25243 0.68828 0.0
H747 H 0.78977 0.18694 0.70804 0.0
H748 H 0.77622 0.1751 0.74755 0.0
H749 H 0.801 0.14908 0.72435 0.0
H750 H 0.8407 0.14739 0.77279 0.0
H751 H 0.81632 0.17392 0.7959 0.0
H752 H 0.85732 0.18403 0.78904 0.0
H753 H 0.85984 0.2906 0.72447 0.0
H754 H 0.81901 0.31724 0.75777 0.0
H755 H 0.78001 0.22553 0.78355 0.0
C756 C 0.86903 0.16489 0.70791 0.0
C757 C 0.89362 0.17059 0.68532 0.0
C758 C 0.90163 0.20254 0.67805 0.0
C759 C 0.88636 0.22817 0.69365 0.0
C760 C 0.86258 0.22169 0.71623 0.0
C761 C 0.85349 0.19071 0.72268 0.0
C762 C 0.82618 0.18992 0.74652 0.0
C763 C 0.79653 0.17434 0.73067 0.0
C764 C 0.83571 0.17279 0.77792 0.0
C765 C 0.82137 0.22522 0.75288 0.0
C766 C 0.84291 0.24326 0.73564 0.0
C767 C 0.84297 0.27651 0.73795 0.0
C768 C 0.81997 0.29155 0.75733 0.0
C769 C 0.79681 0.27358 0.77406 0.0
C770 C 0.79791 0.23992 0.77182 0.0
H771 H 0.07316 0.64029 1.01643 0.0
H772 H 0.11609 0.56776 0.95676 0.0
H773 H 0.08683 0.52616 0.98728 0.0
H774 H 0.07457 0.59627 0.09207 0.0
H775 H 0.03729 0.61183 0.10533 0.0
H776 H 0.06228 0.63506 0.07919 0.0
H777 H 1.01586 0.63977 0.03785 0.0
H778 H 0.9908 0.61632 0.06371 0.0
H779 H 0.99664 0.60419 1.02209 0.0
H780 H 0.04895 0.49222 1.02383 0.0
H781 H 1.01202 0.47028 0.06468 0.0
H782 H 0.99517 0.56563 0.10051 0.0
C783 C 0.07658 0.61565 1.00978 0.0
C784 C 0.09705 0.60747 0.98392 0.0
C785 C 0.10093 0.57478 0.97651 0.0
C786 C 0.08412 0.55098 0.99364 0.0
C787 C 0.06361 0.56002 1.01853 0.0
C788 C 0.06026 0.59169 1.02679 0.0
C789 C 0.03714 0.59554 0.05457 0.0
C790 C 0.05382 0.61056 0.08456 0.0
C791 C 1.00841 0.61511 0.0439 0.0
C792 C 0.02765 0.56116 0.06068 0.0
C793 C 0.04291 0.54089 0.03957 0.0
C794 C 0.03714 0.50805 0.04048 0.0
C795 C 1.01584 0.49573 0.06369 0.0
C796 C 1.00052 0.51601 0.08615 0.0
C797 C 1.00659 0.54924 0.08413 0.0
H798 H 0.80191 0.77075 0.29654 0.0
H799 H 0.73268 0.74201 0.368 0.0
H800 H 0.69331 0.77688 0.3417 0.0
H801 H 0.77859 0.85223 0.28986 0.0
H802 H 0.78552 0.85375 0.24675 0.0
H803 H 0.80798 0.82717 0.27182 0.0
H804 H 0.79001 0.77969 0.23518 0.0
H805 H 0.76751 0.80612 0.21 0.0
H806 H 0.7483 0.77225 0.22813 0.0
H807 H 0.66022 0.81588 0.30494 0.0
H808 H 0.63909 0.85342 0.26439 0.0
H809 H 0.73031 0.85445 0.21683 0.0
C810 C 0.77852 0.77132 0.30685 0.0
C811 C 0.77089 0.75292 0.33471 0.0
C812 C 0.73972 0.7556 0.34705 0.0
C813 C 0.71697 0.77541 0.33204 0.0
C814 C 0.72535 0.79278 0.30445 0.0
C815 C 0.75556 0.79083 0.29213 0.0
C816 C 0.75897 0.81153 0.26218 0.0
C817 C 0.78426 0.83772 0.26801 0.0
C818 C 0.76664 0.79118 0.2321 0.0
C819 C 0.72601 0.82553 0.2593 0.0
C820 C 0.70681 0.81457 0.28384 0.0
C821 C 0.67532 0.82445 0.28575 0.0
C822 C 0.66337 0.84591 0.26233 0.0
C823 C 0.68262 0.85768 0.23685 0.0
C824 C 0.71448 0.84683 0.23573 0.0
H825 H 0.86702 0.55449 0.52805 0.0
H826 H 0.93393 0.62285 0.48874 0.0
H827 H 0.97708 0.59777 0.52015 0.0
H828 H 0.90194 0.54967 0.60831 0.0
H829 H 0.89396 0.50766 0.6118 0.0
H830 H 0.86855 0.53172 0.58697 0.0
H831 H 0.87823 0.49466 0.53757 0.0
H832 H 0.90368 0.47052 0.56225 0.0
H833 H 0.91826 0.48729 0.52507 0.0
H834 H 1.01423 0.56279 0.5564 0.0
H835 H 0.03958 0.52402 0.59283 0.0
H836 H 0.94801 0.47803 0.60653 0.0
C837 C 0.89065 0.56436 0.5257 0.0
C838 C 0.89651 0.59101 0.50539 0.0
C839 C 0.92819 0.60287 0.50403 0.0
C840 C 0.9531 0.58853 0.5218 0.0
C841 C 0.94638 0.56212 0.54115 0.0
C842 C 0.91577 0.55029 0.54316 0.0
C843 C 0.91452 0.52154 0.56533 0.0
C844 C 0.89349 0.52805 0.59485 0.0
C845 C 0.90299 0.49174 0.54642 0.0
C846 C 0.94916 0.51881 0.57554 0.0
C847 C 0.9673 0.54239 0.56144 0.0
C848 C 1.00001 0.54433 0.56745 0.0
C849 C 1.01435 0.52191 0.58829 0.0
C850 C 0.99628 0.49742 0.60325 0.0
C851 C 0.96307 0.49622 0.5963 0.0
H852 H 0.6185 0.4713 0.88888 0.0
H853 H 0.64321 0.39403 0.95308 0.0
H854 H 0.61337 0.42001 0.99723 0.0
H855 H 0.62339 0.53438 0.94826 0.0
H856 H 0.59022 0.5553 0.93128 0.0
H857 H 0.6141 0.53081 0.90546 0.0
H858 H 0.56401 0.49903 0.88675 0.0
H859 H 0.53998 0.52343 0.91251 0.0
H860 H 0.53902 0.48084 0.91675 0.0
H861 H 0.57841 0.45606 0.03536 0.0
H862 H 0.54486 0.49656 0.06137 0.0
H863 H 0.54249 0.54836 0.97062 0.0
C864 C 0.61776 0.45936 0.91198 0.0
C865 C 0.63362 0.43003 0.91678 0.0
C866 C 0.63179 0.41633 0.94819 0.0
C867 C 0.61462 0.43099 0.9736 0.0
C868 C 0.59907 0.45962 0.9677 0.0
C869 C 0.60066 0.47356 0.93749 0.0
C870 C 0.58187 0.50416 0.93685 0.0
C871 C 0.6037 0.53285 0.93006 0.0
C872 C 0.5546 0.5017 0.91173 0.0
C873 C 0.5693 0.50548 0.97135 0.0
C874 C 0.57941 0.47969 0.98898 0.0
C875 C 0.57053 0.47624 1.0215 0.0
C876 C 0.55119 0.49955 0.03619 0.0
C877 C 0.54052 0.52642 1.01866 0.0
C878 C 0.54995 0.52883 0.98555 0.0
H879 H 0.73968 0.77612 0.74436 0.0
H880 H 0.67134 0.73018 0.80723 0.0
H881 H 0.69684 0.75637 0.85476 0.0
H882 H 0.8067 0.77089 0.79836 0.0
H883 H 0.82311 0.80922 0.78806 0.0
H884 H 0.79931 0.78723 0.75867 0.0
H885 H 0.76204 0.83515 0.75291 0.0
H886 H 0.78567 0.85726 0.78239 0.0
H887 H 0.74379 0.85155 0.7886 0.0
H888 H 0.73042 0.78678 0.89623 0.0
H889 H 0.77021 0.81778 0.92825 0.0
H890 H 0.81653 0.84602 0.83952 0.0
C891 C 0.7297 0.77165 0.76797 0.0
C892 C 0.7031 0.7507 0.7715 0.0
C893 C 0.69162 0.74558 0.80334 0.0
C894 C 0.70592 0.76063 0.83069 0.0
C895 C 0.73184 0.78107 0.82622 0.0
C896 C 0.74367 0.78661 0.79565 0.0
C897 C 0.77221 0.80932 0.79772 0.0
C898 C 0.8021 0.7932 0.78494 0.0
C899 C 0.76552 0.84015 0.77931 0.0
C900 C 0.77473 0.8155 0.83426 0.0
C901 C 0.75107 0.79894 0.85015 0.0
C902 C 0.7489 0.79988 0.88394 0.0
C903 C 0.77166 0.81759 0.90199 0.0
C904 C 0.79645 0.83453 0.88654 0.0
C905 C 0.79761 0.8338 0.85204 0.0
H906 H 0.79527 0.21625 0.30247 0.0
H907 H 0.72411 0.2827 0.33436 0.0
H908 H 0.75246 0.32589 0.30607 0.0
H909 H 0.86263 0.27006 0.30957 0.0
H910 H 0.88157 0.25462 0.27383 0.0
H911 H 0.85605 0.22923 0.29728 0.0
H912 H 0.82216 0.21648 0.24574 0.0
H913 H 0.84757 0.24183 0.22216 0.0
H914 H 0.80552 0.2486 0.22277 0.0
H915 H 0.78915 0.36263 0.27208 0.0
H916 H 0.82924 0.38785 0.23702 0.0
H917 H 0.87627 0.29723 0.22771 0.0
C918 C 0.78532 0.23974 0.30357 0.0
C919 C 0.757 0.24552 0.32106 0.0
C920 C 0.74567 0.27716 0.32172 0.0
C921 C 0.76166 0.30203 0.30545 0.0
C922 C 0.78927 0.29534 0.28839 0.0
C923 C 0.80098 0.26487 0.28746 0.0
C924 C 0.83095 0.26371 0.26725 0.0
C925 C 0.85948 0.25382 0.28824 0.0
C926 C 0.82626 0.24133 0.23773 0.0
C927 C 0.83425 0.29817 0.25671 0.0
C928 C 0.81005 0.31615 0.26917 0.0
C929 C 0.80818 0.3486 0.26239 0.0
C930 C 0.83133 0.36287 0.2424 0.0
C931 C 0.8564 0.34496 0.22904 0.0
C932 C 0.85759 0.31204 0.2368 0.0
H933 H 0.45902 0.48978 0.53721 0.0
H934 H 0.41579 0.57352 0.49554 0.0
H935 H 0.44828 0.60751 0.53131 0.0
H936 H 0.46232 0.52108 0.62009 0.0
H937 H 0.4999 0.50348 0.62981 0.0
H938 H 0.4738 0.48481 0.60006 0.0
H939 H 0.51863 0.48645 0.55778 0.0
H940 H 0.54483 0.50521 0.58738 0.0
H941 H 0.53777 0.52385 0.54875 0.0
H942 H 0.48644 0.63401 0.57111 0.0
H943 H 0.52458 0.64981 0.6147 0.0
H944 H 0.5424 0.5504 0.63354 0.0
C945 C 0.45618 0.5152 0.53554 0.0
C946 C 0.43463 0.52834 0.51249 0.0
C947 C 0.43215 0.56206 0.51185 0.0
C948 C 0.4506 0.58197 0.53245 0.0
C949 C 0.47164 0.56834 0.55434 0.0
C950 C 0.47438 0.53573 0.55635 0.0
C951 C 0.49846 0.52748 0.58284 0.0
C952 C 0.48267 0.50806 0.6098 0.0
C953 C 0.52659 0.50969 0.56831 0.0
C954 C 0.50863 0.56049 0.59524 0.0
C955 C 0.49301 0.5837 0.57818 0.0
C956 C 0.49872 0.61597 0.58471 0.0
C957 C 0.52063 0.62481 0.60948 0.0
C958 C 0.5366 0.6016 0.62795 0.0
C959 C 0.53042 0.56892 0.62037 0.0
H960 H 0.17016 0.03964 0.25589 0.0
H961 H 0.14006 1.01629 0.15713 0.0
H962 H 0.1596 0.9616 0.16401 0.0
H963 H 0.24144 0.99242 0.257 0.0
H964 H 0.23629 0.98049 0.29859 0.0
H965 H 0.22166 1.01824 0.28521 0.0
H966 H 0.16521 1.00308 0.30481 0.0
H967 H 0.17992 0.96568 0.3188 0.0
H968 H 0.14693 0.96642 0.2906 0.0
H969 H 0.17838 0.90847 0.18348 0.0
H970 H 0.19231 0.86074 0.21486 0.0
H971 H 0.21204 0.92028 0.29971 0.0
C972 C 0.16757 1.02298 0.23575 0.0
C973 C 0.1536 0.03207 0.20602 0.0
C974 C 0.15096 1.00978 0.18005 0.0
C975 C 0.16204 0.97876 0.1837 0.0
C976 C 0.17596 0.97065 0.21332 0.0
C977 C 0.17866 0.99213 0.2389 0.0
C978 C 0.19303 0.97718 0.26875 0.0
C979 C 0.22501 0.99303 0.27791 0.0
C980 C 0.16989 0.97814 0.29741 0.0
C981 C 0.19737 0.94369 0.25623 0.0
C982 C 0.1876 0.94036 0.22416 0.0
C983 C 0.18662 0.91087 0.20842 0.0
C984 C 0.19465 0.88393 0.22638 0.0
C985 C 0.20354 0.88684 0.2596 0.0
C986 C 0.20608 0.91728 0.27417 0.0
H987 H 0.27658 0.92217 0.3998 0.0
H988 H 0.22017 0.84294 0.43506 0.0
H989 H 0.23359 0.85839 0.49145 0.0
H990 H 0.33919 0.91432 0.45751 0.0
H991 H 0.34656 0.95646 0.46177 0.0
H992 H 0.33022 0.94052 0.42434 0.0
H993 H 0.28293 0.97886 0.42925 0.0
H994 H 0.29888 0.99442 0.46715 0.0
H995 H 0.25911 0.97822 0.4653 0.0
H996 H 0.25392 0.88115 0.54367 0.0
H997 H 0.28721 0.90418 0.5879 0.0
H998 H 0.33152 0.96801 0.51932 0.0
C999 C 0.26712 0.90811 0.41944 0.0
C1000 C 0.24751 0.88128 0.41308 0.0
C1001 C 0.23567 0.8633 0.43932 0.0
C1002 C 0.24272 0.87218 0.47149 0.0
C1003 C 0.26177 0.899 0.47698 0.0
C1004 C 0.27429 0.91639 0.45174 0.0
C1005 C 0.2964 0.94249 0.46431 0.0
C1006 C 0.33008 0.93817 0.45122 0.0
C1007 C 0.28355 0.97545 0.456 0.0
C1008 C 0.29497 0.93644 0.50048 0.0
C1009 C 0.27417 0.91181 0.5073 0.0
C1010 C 0.27004 0.9007 0.53877 0.0
C1011 C 0.28882 0.91412 0.56377 0.0
C1012 C 0.31167 0.938 0.55695 0.0
C1013 C 0.31393 0.95002 0.52514 0.0
H1014 H 0.35248 0.04202 0.6979 0.0
H1015 H 0.39393 0.96533 0.7531 0.0
H1016 H 0.36908 0.986 0.80296 0.0
H1017 H 0.36327 0.10197 0.75749 0.0
H1018 H 0.32642 0.12136 0.74859 0.0
H1019 H 0.34592 0.09921 0.71725 0.0
H1020 H 0.2948 0.0652 0.70789 0.0
H1021 H 0.27528 0.08705 0.73957 0.0
H1022 H 0.27753 0.04438 0.74158 0.0
H1023 H 0.34433 1.01811 0.84747 0.0
H1024 H 0.3216 0.05932 0.88318 0.0
H1025 H 0.29347 0.11301 0.79855 0.0
C1026 C 0.35624 0.02943 0.72042 0.0
C1027 C 0.37525 1.0021 0.72163 0.0
C1028 C 0.37947 0.98632 0.75159 0.0
C1029 C 0.36534 0.9978 0.78001 0.0
C1030 C 0.34673 1.02481 0.77794 0.0
C1031 C 0.34205 0.04035 0.74888 0.0
C1032 C 0.32209 0.06963 0.75341 0.0
C1033 C 0.34053 0.09981 0.74361 0.0
C1034 C 0.29055 0.06635 0.73449 0.0
C1035 C 0.31693 0.06865 0.78973 0.0
C1036 C 0.33124 0.04253 0.80343 0.0
C1037 C 0.33238 0.03821 0.83697 0.0
C1038 C 0.31932 0.0616 0.85703 0.0
C1039 C 0.305 0.0887 0.84347 0.0
C1040 C 0.3031 0.09183 0.8094 0.0
H1041 H 0.25623 0.22327 0.99302 0.0
H1042 H 0.26624 0.12223 0.97455 0.0
H1043 H 0.24124 0.11054 1.02683 0.0
H1044 H 0.27193 0.22446 0.07513 0.0
H1045 H 0.24194 0.25226 0.08676 0.0
H1046 H 0.25802 0.2534 0.04647 0.0
H1047 H 0.2018 0.2468 1.02109 0.0
H1048 H 0.18539 0.24646 0.06133 0.0
H1049 H 0.17674 0.21412 0.03339 0.0
H1050 H 0.22619 0.11039 0.08487 0.0
H1051 H 0.20707 0.12042 0.14035 0.0
H1052 H 0.19777 0.22055 0.11894 0.0
C1053 C 0.25226 0.19869 0.99961 0.0
C1054 C 0.26357 0.17365 0.97999 0.0
C1055 C 0.25796 0.14178 0.98925 0.0
C1056 C 0.24388 0.13489 1.01899 0.0
C1057 C 0.23449 0.16012 0.03854 0.0
C1058 C 0.23714 0.19133 0.02875 0.0
C1059 C 0.22472 0.21384 0.0545 0.0
C1060 C 0.25071 0.23737 0.0664 0.0
C1061 C 0.19541 0.23133 0.04182 0.0
C1062 C 0.21602 0.19043 0.08079 0.0
C1063 C 0.22247 0.15965 0.07117 0.0
C1064 C 0.21992 0.13419 0.09233 0.0
C1065 C 0.20935 0.14016 0.12382 0.0
C1066 C 0.20049 0.1711 0.13345 0.0
C1067 C 0.20397 0.19662 0.11178 0.0
H1068 H 0.03907 0.25622 0.23919 0.0
H1069 H 0.12883 0.27557 0.1926 0.0
H1070 H 0.11657 0.33257 0.19127 0.0
H1071 H 0.99534 0.30399 0.19137 0.0
H1072 H 0.96876 0.31756 0.22234 0.0
H1073 H 0.98781 0.28 0.2266 0.0
H1074 H 1.0106 0.29838 0.28273 0.0
H1075 H 0.99187 0.33635 0.2782 0.0
H1076 H 0.03396 0.33453 0.28578 0.0
H1077 H 0.09106 0.38398 0.18468 0.0
H1078 H 0.05242 0.4248 0.16955 0.0
H1079 H 0.97934 0.37405 0.22158 0.0
C1080 C 0.05652 0.27265 0.22964 0.0
C1081 C 0.08493 0.2616 0.21616 0.0
C1082 C 0.10689 0.28358 0.20307 0.0
C1083 C 0.1003 0.31605 0.20256 0.0
C1084 C 0.07174 0.3262 0.21537 0.0
C1085 C 0.05014 0.30515 0.22868 0.0
C1086 C 1.01919 0.3213 0.23608 0.0
C1087 C 0.99116 0.30475 0.218 0.0
C1088 C 1.01359 0.32272 0.27289 0.0
C1089 C 1.02602 0.3541 0.22281 0.0
C1090 C 0.05683 0.35669 0.21189 0.0
C1091 C 0.06726 0.38276 0.19409 0.0
C1092 C 0.04524 0.40589 0.18568 0.0
C1093 C 1.01334 0.40279 0.19523 0.0
C1094 C 1.00401 0.37753 0.21536 0.0
H1095 H 0.60398 0.24129 0.88818 0.0
H1096 H 0.6067 0.24001 0.78307 0.0
H1097 H 0.5593 0.20461 0.78107 0.0
H1098 H 0.5678 0.15846 0.89955 0.0
H1099 H 0.54374 0.17283 0.9323 0.0
H1100 H 0.58246 0.19013 0.92576 0.0
H1101 H 0.55747 0.24589 0.92226 0.0
H1102 H 0.51882 0.22886 0.92839 0.0
H1103 H 0.52619 0.25256 0.89295 0.0
H1104 H 0.50743 0.17768 0.79013 0.0
H1105 H 0.45355 0.16408 0.80929 0.0
H1106 H 0.48308 0.18621 0.90829 0.0
C1107 C 0.59527 0.23224 0.86493 0.0
C1108 C 0.60895 0.24244 0.83581 0.0
C1109 C 0.59652 0.23169 0.80554 0.0
C1110 C 0.56982 0.21156 0.80425 0.0
C1111 C 0.55597 0.20272 0.83346 0.0
C1112 C 0.56833 0.21269 0.86329 0.0
C1113 C 0.54619 0.20472 0.8907 0.0
C1114 C 0.56093 0.18006 0.91341 0.0
C1115 C 0.53661 0.2348 0.90964 0.0
C1116 C 0.51863 0.19054 0.87149 0.0
C1117 C 0.52512 0.18853 0.83866 0.0
C1118 C 0.50228 0.17852 0.81583 0.0
C1119 C 0.47183 0.17096 0.82682 0.0
C1120 C 0.46461 0.17427 0.86011 0.0
C1121 C 0.48838 0.18346 0.88272 0.0
H1122 H 0.98951 0.66513 0.38345 0.0
H1123 H 0.96407 0.70239 0.47802 0.0
H1124 H 1.0204 0.71351 0.49063 0.0
H1125 H 0.07158 0.63323 0.41014 0.0
H1126 H 0.08781 0.6447 0.37161 0.0
H1127 H 0.04719 0.63104 0.37386 0.0
H1128 H 0.02851 0.68293 0.34656 0.0
H1129 H 0.06878 0.69637 0.344 0.0
H1130 H 0.04023 0.72072 0.36439 0.0
H1131 H 0.07544 0.73314 0.48727 0.0
H1132 H 0.12256 0.76161 0.46665 0.0
H1133 H 0.11411 0.70924 0.37593 0.0
C1134 C 0.99598 0.67436 0.40733 0.0
C1135 C 0.97255 0.68313 0.42962 0.0
C1136 C 0.98172 0.69596 0.46034 0.0
C1137 C 1.0137 0.70185 0.46795 0.0
C1138 C 0.03628 0.6942 0.44484 0.0
C1139 C 0.02781 0.6803 0.41525 0.0
C1140 C 0.05556 0.67938 0.39245 0.0
C1141 C 0.06616 0.64504 0.38669 0.0
C1142 C 0.04779 0.69586 0.36 0.0
C1143 C 0.07995 0.69789 0.41249 0.0
C1144 C 0.0689 0.70513 0.4432 0.0
C1145 C 0.08493 0.7267 0.46384 0.0
C1146 C 0.11172 0.74271 0.45206 0.0
C1147 C 0.12176 0.73714 0.41995 0.0
C1148 C 0.10701 0.71309 0.40086 0.0
H1149 H 0.53483 0.75084 0.73335 0.0
H1150 H 0.60784 0.75715 0.66021 0.0
H1151 H 0.5933 0.81247 0.64946 0.0
H1152 H 0.4777 0.79246 0.68833 0.0
H1153 H 0.4608 0.81214 0.72301 0.0
H1154 H 0.4797 0.77446 0.72789 0.0
H1155 H 0.51667 0.79952 0.77235 0.0
H1156 H 0.49822 0.83751 0.767 0.0
H1157 H 0.5405 0.83405 0.76293 0.0
H1158 H 0.56914 0.8646 0.64329 0.0
H1159 H 0.53122 0.90796 0.63599 0.0
H1160 H 0.47278 0.86901 0.71216 0.0
C1161 C 0.54786 0.76406 0.71531 0.0
C1162 C 0.57245 0.74983 0.69766 0.0
C1163 C 0.58874 0.76755 0.67385 0.0
C1164 C 0.58098 0.79913 0.6679 0.0
C1165 C 0.5568 0.8126 0.68583 0.0
C1166 C 0.54006 0.79557 0.70866 0.0
C1167 C 0.51273 0.81463 0.7217 0.0
C1168 C 0.48086 0.7974 0.7148 0.0
C1169 C 0.51732 0.82185 0.75817 0.0
C1170 C 0.51613 0.84457 0.70178 0.0
C1171 C 0.54229 0.84312 0.68191 0.0
C1172 C 0.54893 0.86637 0.65908 0.0
C1173 C 0.52738 0.89093 0.65519 0.0
C1174 C 0.49961 0.89194 0.67396 0.0
C1175 C 0.49451 0.86928 0.69844 0.0
H1176 H 0.90266 1.01672 0.71469 0.0
H1177 H 0.95604 0.94184 0.66876 0.0
H1178 H 0.94887 0.90832 0.71741 0.0
H1179 H 0.93628 1.00809 0.79228 0.0
H1180 H 0.90067 1.01658 0.81426 0.0
H1181 H 0.90647 0.03306 0.77454 0.0
H1182 H 0.85329 1.00782 0.75445 0.0
H1183 H 0.84712 0.99151 0.79426 0.0
H1184 H 0.84646 0.96571 0.75899 0.0
H1185 H 0.93819 0.88445 0.77174 0.0
H1186 H 0.9263 0.87192 0.82868 0.0
H1187 H 0.88208 0.96377 0.84043 0.0
C1188 C 0.91203 0.9929 0.7146 0.0
C1189 C 0.92933 0.98141 0.6879 0.0
C1190 C 0.94238 0.9507 0.68893 0.0
C1191 C 0.9384 0.93161 0.71638 0.0
C1192 C 0.92163 0.94383 0.74258 0.0
C1193 C 0.9087 0.97379 0.74196 0.0
C1194 C 0.89394 0.98229 0.77423 0.0
C1195 C 0.91033 1.01175 0.78973 0.0
C1196 C 0.85807 0.98711 0.77023 0.0
C1197 C 0.90094 0.95259 0.79328 0.0
C1198 C 0.91657 0.93057 0.77442 0.0
C1199 C 0.92585 0.90144 0.7867 0.0
C1200 C 0.919 0.89458 0.81912 0.0
C1201 C 0.90333 0.91692 0.83905 0.0
C1202 C 0.89418 0.94628 0.82584 0.0
H1203 H 0.89088 0.13564 0.54115 0.0
H1204 H 0.86996 0.03489 0.52942 0.0
H1205 H 0.82086 0.04734 0.4991 0.0
H1206 H 0.81002 0.16204 0.55012 0.0
H1207 H 0.81626 0.19756 0.52678 0.0
H1208 H 0.84872 0.18071 0.54927 0.0
H1209 H 0.88162 0.17779 0.49658 0.0
H1210 H 0.84929 0.19463 0.47395 0.0
H1211 H 0.8654 0.15709 0.46141 0.0
H1212 H 0.77381 0.07086 0.47023 0.0
H1213 H 0.73471 0.1037 0.44104 0.0
H1214 H 0.78824 0.18875 0.46888 0.0
C1215 C 0.87579 0.11624 0.53243 0.0
C1216 C 0.88405 0.08432 0.53776 0.0
C1217 C 0.86405 0.05953 0.52555 0.0
C1218 C 0.83605 0.06635 0.50844 0.0
C1219 C 0.82862 0.09808 0.50346 0.0
C1220 C 0.84806 0.12261 0.51482 0.0
C1221 C 0.83558 0.15459 0.50463 0.0
C1222 C 0.82714 0.17492 0.53448 0.0
C1223 C 0.85939 0.17204 0.48284 0.0
C1224 C 0.80618 0.14419 0.48566 0.0
C1225 C 0.80231 0.11154 0.48566 0.0
C1226 C 0.77664 0.09645 0.46997 0.0
C1227 C 0.75454 0.11526 0.45355 0.0
C1228 C 0.75859 0.14869 0.45255 0.0
C1229 C 0.78468 0.16322 0.46899 0.0
H1230 H 0.67583 0.08999 0.33791 0.0
H1231 H 0.57899 0.11438 0.36 0.0
H1232 H 0.55976 0.0654 0.33224 0.0
H1233 H 0.66019 0.06541 0.25948 0.0
H1234 H 0.68836 0.03364 0.25893 0.0
H1235 H 0.69462 0.06704 0.28588 0.0
H1236 H 0.69784 0.02882 0.33484 0.0
H1237 H 0.6912 0.99524 0.3079 0.0
H1238 H 0.66559 1.00132 0.34207 0.0
H1239 H 0.55048 1.01729 0.29647 0.0
H1240 H 0.55216 0.97811 0.25105 0.0
H1241 H 0.65455 0.98617 0.25113 0.0
C1242 C 0.65067 0.08452 0.3376 0.0
C1243 C 0.62891 0.10579 0.35119 0.0
C1244 C 0.59607 0.09836 0.34964 0.0
C1245 C 0.58493 0.07043 0.33423 0.0
C1246 C 0.60692 0.05014 0.32045 0.0
C1247 C 0.63912 0.05694 0.32187 0.0
C1248 C 0.65744 0.03368 0.30143 0.0
C1249 C 0.67623 0.05098 0.27486 0.0
C1250 C 0.67931 1.01357 0.32285 0.0
C1251 C 0.63045 1.01373 0.28713 0.0
C1252 C 0.60152 1.02288 0.29911 0.0
C1253 C 0.57303 1.00949 0.28735 0.0
C1254 C 0.57413 0.98713 0.26174 0.0
C1255 C 0.60346 0.97911 0.24799 0.0
C1256 C 0.63186 0.9917 0.26166 0.0
H1257 H 0.66219 0.88859 1.0241 0.0
H1258 H 0.63653 0.98743 1.01887 0.0
H1259 H 0.67588 0.99601 0.97597 0.0
H1260 H 0.73588 0.89937 0.02811 0.0
H1261 H 0.7496 0.86655 1.00381 0.0
H1262 H 0.71154 0.86412 1.02218 0.0
H1263 H 0.68492 0.8534 0.96601 0.0
H1264 H 0.7233 0.85535 0.9473 0.0
H1265 H 0.69191 0.88039 0.93303 0.0
H1266 H 0.72751 0.99834 0.94908 0.0
H1267 H 0.78532 0.9936 0.94084 0.0
H1268 H 0.77918 0.89383 0.96434 0.0
C1269 C 0.66352 0.9114 1.0122 0.0
C1270 C 0.64634 0.93725 1.02429 0.0
C1271 C 0.64938 0.96729 1.0095 0.0
C1272 C 0.67161 0.9723 0.98503 0.0
C1273 C 0.69041 0.94696 0.97551 0.0
C1274 C 0.68608 0.91677 0.98816 0.0
C1275 C 0.71339 0.89544 0.97969 0.0
C1276 C 0.72847 0.88058 1.01027 0.0
C1277 C 0.70274 0.86962 0.95503 0.0
C1278 C 0.73539 0.91932 0.96407 0.0
C1279 C 0.72119 0.94849 0.9603 0.0
C1280 C 0.73853 0.97537 0.95082 0.0
C1281 C 0.77131 0.9726 0.9463 0.0
C1282 C 0.78615 0.94339 0.95206 0.0
C1283 C 0.76788 0.91629 0.9596 0.0
H1284 H 0.14459 0.82973 0.95075 0.0
H1285 H 0.12173 0.75102 1.01384 0.0
H1286 H 0.07759 0.78086 0.03631 0.0
H1287 H 0.11244 0.89651 1.00912 0.0
H1288 H 0.09794 0.91773 0.97425 0.0
H1289 H 0.13416 0.89568 0.97168 0.0
H1290 H 0.11107 0.86494 0.92174 0.0
H1291 H 0.0747 0.88613 0.92447 0.0
H1292 H 0.07409 0.84331 0.92544 0.0
H1293 H 0.02746 0.80859 0.03694 0.0
H1294 H 0.97888 0.83559 1.02117 0.0
H1295 H 0.03412 0.90101 0.96255 0.0
C1296 C 0.13124 0.81962 0.97053 0.0
C1297 C 0.1367 0.78822 0.98065 0.0
C1298 C 0.11849 0.7753 1.00613 0.0
C1299 C 0.09318 0.79209 1.01904 0.0
C1300 C 0.08678 0.82203 1.00673 0.0
C1301 C 0.10591 0.83625 0.98378 0.0
C1302 C 0.09103 0.86619 0.97082 0.0
C1303 C 0.11002 0.89578 0.98216 0.0
C1304 C 0.08751 0.86502 0.93343 0.0
C1305 C 0.05917 0.86447 0.98725 0.0
C1306 C 0.05748 0.83927 1.00843 0.0
C1307 C 0.02883 0.82935 1.02168 0.0
C1308 C 1.00116 0.84502 1.01251 0.0
C1309 C 1.0022 0.87071 0.99045 0.0
C1310 C 0.03201 0.88129 0.97903 0.0
H1311 H 0.55935 0.6772 0.13542 0.0
H1312 H 0.46474 0.69694 0.09924 0.0
H1313 H 0.47409 0.75434 0.1098 0.0
H1314 H 0.56176 0.73544 0.19942 0.0
H1315 H 0.60287 0.74584 0.19362 0.0
H1316 H 0.58857 0.70638 0.18348 0.0
H1317 H 0.60931 0.71224 0.12473 0.0
H1318 H 0.62413 0.75146 0.13487 0.0
H1319 H 0.59726 0.74575 0.10083 0.0
H1320 H 0.49386 0.80997 0.12606 0.0
H1321 H 0.52474 0.85906 0.13984 0.0
H1322 H 0.60628 0.80192 0.1636 0.0
C1323 C 0.54066 0.69361 0.12952 0.0
C1324 C 0.51138 0.68267 0.11647 0.0
C1325 C 0.48751 0.70488 0.10898 0.0
C1326 C 0.49249 0.73747 0.11518 0.0
C1327 C 0.52151 0.74742 0.12864 0.0
C1328 C 0.54533 0.72612 0.13524 0.0
C1329 C 0.57476 0.74279 0.14853 0.0
C1330 C 0.58242 0.73196 0.18333 0.0
C1331 C 0.60302 0.73777 0.12588 0.0
C1332 C 0.56392 0.77684 0.14821 0.0
C1333 C 0.533 0.77913 0.13716 0.0
C1334 C 0.5181 0.80843 0.1347 0.0
C1335 C 0.53567 0.83613 0.14281 0.0
C1336 C 0.56779 0.83413 0.15273 0.0
C1337 C 0.58173 0.80408 0.15602 0.0
H1338 H 0.0564 0.17398 0.62501 0.0
H1339 H 0.95953 0.19292 0.59541 0.0
H1340 H 0.96791 0.24985 0.60896 0.0
H1341 H 0.06034 0.22702 0.69226 0.0
H1342 H 0.10072 0.23952 0.68547 0.0
H1343 H 0.08739 0.2005 0.67255 0.0
H1344 H 0.105 0.21201 0.61361 0.0
H1345 H 0.11895 0.25082 0.62649 0.0
H1346 H 0.0907 0.2469 0.5934 0.0
H1347 H 0.98657 0.30468 0.62889 0.0
H1348 H 1.01595 0.35343 0.64669 0.0
H1349 H 0.10048 0.29779 0.66161 0.0
C1350 C 0.03706 0.19016 0.62095 0.0
C1351 C 1.00736 0.17906 0.60912 0.0
C1352 C 0.98261 0.20097 0.60417 0.0
C1353 C 0.98707 0.2333 0.61205 0.0
C1354 C 1.01648 0.24332 0.62449 0.0
C1355 C 0.0412 0.22244 0.62834 0.0
C1356 C 0.07063 0.2391 0.64167 0.0
C1357 C 0.08032 0.22573 0.67496 0.0
C1358 C 0.09792 0.2371 0.61733 0.0
C1359 C 0.05865 0.27262 0.64487 0.0
C1360 C 0.02728 0.27465 0.63521 0.0
C1361 C 1.01119 0.30337 0.63635 0.0
C1362 C 0.02794 0.33086 0.64674 0.0
C1363 C 0.06044 0.32931 0.65546 0.0
C1364 C 0.07566 0.2997 0.65498 0.0
H1365 H 0.52969 0.39362 0.44647 0.0
H1366 H 0.48446 0.34136 0.52399 0.0
H1367 H 0.53573 0.31835 0.53914 0.0
H1368 H 0.57305 0.33341 0.41884 0.0
H1369 H 0.60778 0.35642 0.40848 0.0
H1370 H 0.5699 0.37504 0.40953 0.0
H1371 H 0.59248 0.41698 0.45067 0.0
H1372 H 0.63049 0.39798 0.45003 0.0
H1373 H 0.61068 0.40414 0.48809 0.0
H1374 H 0.58717 0.29225 0.5381 0.0
H1375 H 0.63203 0.26203 0.51785 0.0
H1376 H 0.64682 0.33202 0.44262 0.0
C1377 C 0.53075 0.37784 0.46707 0.0
C1378 C 0.50312 0.36945 0.48414 0.0
C1379 C 0.50539 0.34865 0.5109 0.0
C1380 C 0.53449 0.33555 0.5198 0.0
C1381 C 0.5612 0.34374 0.50199 0.0
C1382 C 0.55962 0.36453 0.47622 0.0
C1383 C 0.59041 0.36553 0.4578 0.0
C1384 C 0.58494 0.35707 0.42156 0.0
C1385 C 0.607 0.3981 0.46191 0.0
C1386 C 0.60853 0.34001 0.47546 0.0
C1387 C 0.59171 0.32855 0.50162 0.0
C1388 C 0.6011 0.30161 0.51837 0.0
C1389 C 0.62694 0.28464 0.50676 0.0
C1390 C 0.64298 0.29458 0.47848 0.0
C1391 C 0.63503 0.32389 0.4643 0.0
H1392 H 0.75328 0.42678 0.74898 0.0
H1393 H 0.75634 0.43626 0.85404 0.0
H1394 H 0.75835 0.4944 0.84914 0.0
H1395 H 0.80049 0.50535 0.73104 0.0
H1396 H 0.77511 0.5118 0.69622 0.0
H1397 H 0.7856 0.47194 0.70739 0.0
H1398 H 0.72602 0.45658 0.7093 0.0
H1399 H 0.71532 0.4962 0.69885 0.0
H1400 H 0.70026 0.47875 0.73551 0.0
H1401 H 0.74263 0.5485 0.83414 0.0
H1402 H 0.71572 0.59439 0.8097 0.0
H1403 H 0.72338 0.55071 0.71437 0.0
C1404 C 0.75604 0.4411 0.77088 0.0
C1405 C 0.75441 0.42708 0.80179 0.0
C1406 C 0.75764 0.44648 0.83002 0.0
C1407 C 0.75886 0.47962 0.82748 0.0
C1408 C 0.75758 0.49289 0.79658 0.0
C1409 C 0.75718 0.47419 0.76867 0.0
C1410 C 0.75033 0.4937 0.73876 0.0
C1411 C 0.77964 0.49583 0.71708 0.0
C1412 C 0.72126 0.48053 0.71955 0.0
C1413 C 0.74368 0.52547 0.75451 0.0
C1414 C 0.74891 0.52485 0.78777 0.0
C1415 C 0.73959 0.54973 0.80802 0.0
C1416 C 0.72402 0.57551 0.79403 0.0
C1417 C 0.71785 0.57608 0.76016 0.0
C1418 C 0.72875 0.55125 0.74019 0.0
H1419 H 0.77274 0.36567 0.91347 0.0
H1420 H 0.70606 0.30678 0.96638 0.0
H1421 H 0.73242 0.32264 1.01802 0.0
H1422 H 0.84213 0.35172 0.96624 0.0
H1423 H 0.85642 0.39208 0.96261 0.0
H1424 H 0.83405 0.37367 0.92972 0.0
H1425 H 0.79442 0.42007 0.93145 0.0
H1426 H 0.81628 0.43834 0.96473 0.0
H1427 H 0.77468 0.42924 0.96893 0.0
H1428 H 0.76325 0.34781 0.06392 0.0
H1429 H 0.79979 0.37708 0.10112 0.0
H1430 H 0.84561 0.42056 1.01842 0.0
C1431 C 0.76419 0.35543 0.93582 0.0
C1432 C 0.73744 0.33486 0.93591 0.0
C1433 C 0.72659 0.3225 0.96575 0.0
C1434 C 0.74133 0.33144 0.9952 0.0
C1435 C 0.76688 0.35269 0.99435 0.0
C1436 C 0.7785 0.36423 0.96545 0.0
C1437 C 0.80548 0.38776 0.97139 0.0
C1438 C 0.83635 0.37557 0.95662 0.0
C1439 C 0.7972 0.4208 0.95835 0.0
C1440 C 0.80703 0.3878 1.00816 0.0
C1441 C 0.78452 0.36746 1.02091 0.0
C1442 C 0.78106 0.36376 0.05427 0.0
C1443 C 0.80167 0.38078 0.0752 0.0
C1444 C 0.8254 0.40126 0.06267 0.0
C1445 C 0.82779 0.40498 0.02868 0.0
H1446 H 0.85456 0.53751 0.1959 0.0
H1447 H 0.90187 0.46633 0.25393 0.0
H1448 H 0.88235 0.49185 0.30392 0.0
H1449 H 0.87103 0.60284 0.24789 0.0
H1450 H 0.83333 0.62152 0.24162 0.0
H1451 H 0.84928 0.59649 0.21031 0.0
H1452 H 0.79797 0.56189 0.21017 0.0
H1453 H 0.78187 0.58681 0.24159 0.0
H1454 H 0.78465 0.54457 0.2476 0.0
H1455 H 0.86214 0.52776 0.34755 0.0
H1456 H 0.84097 0.57078 0.3819 0.0
H1457 H 0.80439 0.6172 0.29587 0.0
C1458 C 0.86058 0.52709 0.21909 0.0
C1459 C 0.87982 0.49994 0.22098 0.0
C1460 C 0.88716 0.48709 0.25184 0.0
C1461 C 0.87613 0.50138 0.28039 0.0
C1462 C 0.85748 0.52827 0.27769 0.0
C1463 C 0.84952 0.54088 0.24784 0.0
C1464 C 0.82997 0.57056 0.25176 0.0
C1465 C 0.84693 0.59956 0.23703 0.0
C1466 C 0.79663 0.56565 0.2369 0.0
C1467 C 0.82882 0.57311 0.2885 0.0
C1468 C 0.84481 0.54842 0.30296 0.0
C1469 C 0.84906 0.54687 0.33655 0.0
C1470 C 0.837 0.5714 0.35584 0.0
C1471 C 0.82063 0.59695 0.34153 0.0
C1472 C 0.81606 0.59749 0.30747 0.0
H1473 H 0.68192 0.69344 0.61164 0.0
H1474 H 0.63882 0.60232 0.58554 0.0
H1475 H 0.66232 0.60553 0.53107 0.0
H1476 H 0.67666 0.72994 0.52924 0.0
H1477 H 0.71484 0.74925 0.5342 0.0
H1478 H 0.6904 0.74238 0.56913 0.0
H1479 H 0.73628 0.71229 0.59706 0.0
H1480 H 0.76079 0.71911 0.56236 0.0
H1481 H 0.75384 0.67915 0.57623 0.0
H1482 H 0.69537 0.61534 0.48221 0.0
H1483 H 0.73765 0.62985 0.4439 0.0
H1484 H 0.75952 0.71431 0.50188 0.0
C1485 C 0.67677 0.67461 0.59414 0.0
C1486 C 0.65849 0.64773 0.60267 0.0
C1487 C 0.65286 0.62313 0.57945 0.0
C1488 C 0.66588 0.62484 0.54837 0.0
C1489 C 0.68441 0.65134 0.54087 0.0
C1490 C 0.68985 0.67581 0.56308 0.0
C1491 C 0.71345 0.69986 0.55029 0.0
C1492 C 0.6979 0.73228 0.54542 0.0
C1493 C 0.74282 0.70274 0.57282 0.0
C1494 C 0.72132 0.68446 0.51803 0.0
C1495 C 0.70385 0.65683 0.51272 0.0
C1496 C 0.70881 0.63722 0.48577 0.0
C1497 C 0.73286 0.64566 0.46413 0.0
C1498 C 0.75179 0.67324 0.46985 0.0
C1499 C 0.74523 0.69325 0.49665 0.0
H1500 H 0.46916 0.47351 0.20858 0.0
H1501 H 0.37339 0.50348 0.18388 0.0
H1502 H 0.35536 0.48504 0.23622 0.0
H1503 H 0.44863 0.40739 0.26376 0.0
H1504 H 0.48005 0.4184 0.29195 0.0
H1505 H 0.48452 0.42571 0.24913 0.0
H1506 H 0.49619 0.4852 0.26186 0.0
H1507 H 0.49138 0.47822 0.30458 0.0
H1508 H 0.46784 0.50778 0.28455 0.0
H1509 H 0.34789 0.47 0.2939 0.0
H1510 H 0.35282 0.46153 0.35309 0.0
H1511 H 0.45423 0.45 0.34357 0.0
C1512 C 0.44431 0.47627 0.21355 0.0
C1513 C 0.42318 0.49034 0.19091 0.0
C1514 C 0.39062 0.49224 0.19938 0.0
C1515 C 0.37987 0.482 0.22963 0.0
C1516 C 0.40179 0.47028 0.25174 0.0
C1517 C 0.43336 0.46744 0.24417 0.0
C1518 C 0.45287 0.45857 0.27386 0.0
C1519 C 0.46737 0.42555 0.2694 0.0
C1520 C 0.47857 0.48396 0.28166 0.0
C1521 C 0.42744 0.45811 0.29947 0.0
C1522 C 0.39798 0.46394 0.28596 0.0
C1523 C 0.3708 0.46522 0.30475 0.0
C1524 C 0.37383 0.46051 0.33829 0.0
C1525 C 0.40392 0.45549 0.35275 0.0
C1526 C 0.43101 0.45416 0.33307 0.0
H1527 H 0.27161 0.61764 0.93085 0.0
H1528 H 0.24905 0.69929 0.99078 0.0
H1529 H 0.28993 0.68411 0.03084 0.0
H1530 H 0.2932 0.56286 0.9992 0.0
H1531 H 0.32542 0.54598 0.97684 0.0
H1532 H 0.29087 0.56 0.95547 0.0
H1533 H 0.32669 0.59644 0.92075 0.0
H1534 H 0.36127 0.58286 0.94221 0.0
H1535 H 0.35306 0.62474 0.94077 0.0
H1536 H 0.33609 0.66449 0.06072 0.0
H1537 H 0.38543 0.64088 0.08008 0.0
H1538 H 0.38066 0.57193 1.00078 0.0
C1539 C 0.2747 0.63151 0.95303 0.0
C1540 C 0.25696 0.65915 0.95838 0.0
C1541 C 0.26219 0.6777 0.98681 0.0
C1542 C 0.2853 0.66928 1.00961 0.0
C1543 C 0.30309 0.64237 1.0034 0.0
C1544 C 0.29811 0.62359 0.97596 0.0
C1545 C 0.32275 0.59777 0.97386 0.0
C1546 C 0.30712 0.56469 0.97651 0.0
C1547 C 0.34208 0.60065 0.94254 0.0
C1548 C 0.34285 0.60572 1.00378 0.0
C1549 C 0.33068 0.63126 1.02059 0.0
C1550 C 0.34564 0.64416 0.04808 0.0
C1551 C 0.37382 0.63059 0.05884 0.0
C1552 C 0.387 0.60442 0.04212 0.0
C1553 C 0.37113 0.59177 1.01425 0.0
H1554 H 0.09826 0.62146 0.81631 0.0
H1555 H 0.17167 0.57497 0.87226 0.0
H1556 H 0.15344 0.52285 0.84993 0.0
H1557 H 0.03721 0.5581 0.82168 0.0
H1558 H 1.02374 0.56423 0.78048 0.0
H1559 H 0.03994 0.59709 0.8041 0.0
H1560 H 0.08152 0.60826 0.75951 0.0
H1561 H 0.06489 0.57606 0.7356 0.0
H1562 H 0.10651 0.57649 0.74603 0.0
H1563 H 0.12998 0.47638 0.81724 0.0
H1564 H 0.10908 0.44222 0.77219 0.0
H1565 H 0.0515 0.51971 0.73844 0.0
C1566 C 0.1103 0.60031 0.82425 0.0
C1567 C 0.13633 0.60227 0.84607 0.0
C1568 C 0.15169 0.57404 0.85547 0.0
C1569 C 0.14127 0.5443 0.8432 0.0
C1570 C 0.11536 0.54323 0.82175 0.0
C1571 C 0.1003 0.57063 0.81222 0.0
C1572 C 0.07532 0.5638 0.78636 0.0
C1573 C 0.04208 0.57125 0.79892 0.0
C1574 C 0.08251 0.58222 0.75504 0.0
C1575 C 0.07945 0.52843 0.78175 0.0
C1576 C 0.10202 0.51669 0.80296 0.0
C1577 C 0.11181 0.48516 0.80101 0.0
C1578 C 0.09954 0.46576 0.77563 0.0
C1579 C 0.07822 0.47829 0.75246 0.0
C1580 C 0.06705 0.50943 0.75653 0.0
H1581 H 0.27292 0.38703 0.47739 0.0
H1582 H 0.2834 0.48592 0.45132 0.0
H1583 H 0.22619 0.49378 0.46103 0.0
H1584 H 0.18567 0.3768 0.44702 0.0
H1585 H 0.17768 0.35078 0.48057 0.0
H1586 H 0.21613 0.35094 0.46193 0.0
H1587 H 0.24256 0.36224 0.51819 0.0
H1588 H 0.20452 0.36212 0.5368 0.0
H1589 H 0.23045 0.39634 0.5416 0.0
H1590 H 0.17417 0.49412 0.48824 0.0
H1591 H 0.13275 0.48703 0.52946 0.0
H1592 H 0.15474 0.3872 0.53574 0.0
C1593 C 0.26275 0.41002 0.4726 0.0
C1594 C 0.28214 0.43597 0.46389 0.0
C1595 C 0.26859 0.4658 0.45783 0.0
C1596 C 0.23616 0.47034 0.46312 0.0
C1597 C 0.21777 0.44452 0.47345 0.0
C1598 C 0.23054 0.41469 0.47737 0.0
C1599 C 0.20754 0.39207 0.49341 0.0
C1600 C 0.19607 0.36612 0.46929 0.0
C1601 C 0.22214 0.3774 0.52432 0.0
C1602 C 0.18118 0.41467 0.50128 0.0
C1603 C 0.18692 0.44455 0.48854 0.0
C1604 C 0.16879 0.47063 0.49731 0.0
C1605 C 0.1454 0.46645 0.52082 0.0
C1606 C 0.14053 0.43647 0.53533 0.0
C1607 C 0.1574 0.41004 0.52411 0.0
loop_
_geom_bond_atom_site_label_1
_geom_bond_atom_site_label_2
_geom_bond_distance
_geom_bond_site_symmetry_2
_ccdc_geom_bond_type
C0 C1 1.351 . S
C0 N3 1.368 . S
C0 H5 0.931 . S
C1 C0 1.351 . S
C1 N2 1.373 . S
C1 H29 0.930 . S
N2 C1 1.373 . S
N2 C4 1.340 . S
N3 C0 1.368 . S
N3 C4 1.321 . S
N3 Co6 2.135 . S
C4 N2 1.340 . S
C4 N3 1.321 . S
C4 H28 0.930 . S
H5 C0 0.931 . S
Co6 N3 2.135 . S
Co6 N9 2.121 . S
Co6 O14 2.055 . S
Co6 O17 2.039 . S
Co6 N20 2.140 . S
C7 O8 1.227 . S
C7 O17 1.265 . S
O8 C7 1.227 . S
N9 Co6 2.121 . S
N9 C11 1.375 . S
N9 C12 1.313 . S
C10 C11 1.338 . S
C10 N13 1.377 . S
C10 H30 0.930 . S
C11 N9 1.375 . S
C11 C10 1.338 . S
C11 H15 0.931 . S
C12 N9 1.313 . S
C12 N13 1.344 . S
C12 H16 0.930 . S
N13 C10 1.377 . S
N13 C12 1.344 . S
O14 Co6 2.055 . S
O14 C18 1.253 . S
H15 C11 0.931 . S
H16 C12 0.930 . S
O17 Co6 2.039 . S
O17 C7 1.265 . S
C18 O14 1.253 . S
C18 O19 1.227 . S
O19 C18 1.227 . S
N20 Co6 2.140 . S
N20 C23 1.346 . S
N20 C24 1.345 . S
C21 C22 1.387 . S
C21 C25 1.391 . S
C22 C21 1.387 . S
C22 C23 1.369 . S
C22 H31 0.929 . S
C23 N20 1.346 . S
C23 C22 1.369 . S
C23 H26 0.928 . S
C24 N20 1.345 . S
C24 C25 1.371 . S
C24 H27 0.931 . S
C25 C21 1.391 . S
C25 C24 1.371 . S
C25 H32 0.930 . S
H26 C23 0.928 . S
H27 C24 0.931 . S
H28 C4 0.930 . S
H29 C1 0.930 . S
H30 C10 0.930 . S
H31 C22 0.929 . S
H32 C25 0.930 . S
C33 C34 1.351 . S
C33 N36 1.368 . S
C33 H38 0.931 . S
C34 C33 1.351 . S
C34 N35 1.373 . S
C34 H62 0.930 . S
N35 C34 1.373 . S
N35 C37 1.340 . S
N36 C33 1.368 . S
N36 C37 1.321 . S
N36 Co39 2.135 . S
C37 N35 1.340 . S
C37 N36 1.321 . S
C37 H61 0.930 . S
H38 C33 0.931 . S
Co39 N36 2.135 . S
Co39 N42 2.121 . S
Co39 O47 2.055 . S
Co39 O50 2.039 . S
Co39 N53 2.140 . S
C40 O41 1.227 . S
C40 O50 1.265 . S
O41 C40 1.227 . S
N42 Co39 2.121 . S
N42 C44 1.375 . S
N42 C45 1.313 . S
C43 C44 1.338 . S
C43 N46 1.377 . S
C43 H63 0.930 . S
C44 N42 1.375 . S
C44 C43 1.338 . S
C44 H48 0.931 . S
C45 N42 1.313 . S
C45 N46 1.344 . S
C45 H49 0.930 . S
N46 C43 1.377 . S
N46 C45 1.344 . S
O47 Co39 2.055 . S
O47 C51 1.253 . S
H48 C44 0.931 . S
H49 C45 0.930 . S
O50 Co39 2.039 . S
O50 C40 1.265 . S
C51 O47 1.253 . S
C51 O52 1.227 . S
O52 C51 1.227 . S
N53 Co39 2.140 . S
N53 C56 1.346 . S
N53 C57 1.345 . S
C54 C55 1.387 . S
C54 C58 1.391 . S
C55 C54 1.387 . S
C55 C56 1.369 . S
C55 H64 0.929 . S
C56 N53 1.346 . S
C56 C55 1.369 . S
C56 H59 0.928 . S
C57 N53 1.345 . S
C57 C58 1.371 . S
C57 H60 0.931 . S
C58 C54 1.391 . S
C58 C57 1.371 . S
C58 H65 0.930 . S
H59 C56 0.928 . S
H60 C57 0.931 . S
H61 C37 0.930 . S
H62 C34 0.930 . S
H63 C43 0.930 . S
H64 C55 0.929 . S
H65 C58 0.930 . S
C66 C67 1.351 . S
C66 N69 1.368 . S
C66 H71 0.931 . S
C67 C66 1.351 . S
C67 N68 1.373 . S
C67 H95 0.930 . S
N68 C67 1.373 . S
N68 C70 1.340 . S
N69 C66 1.368 . S
N69 C70 1.321 . S
N69 Co72 2.135 . S
C70 N68 1.340 . S
C70 N69 1.321 . S
C70 H94 0.930 . S
H71 C66 0.931 . S
Co72 N69 2.135 . S
Co72 N75 2.121 . S
Co72 O80 2.055 . S
Co72 O83 2.039 . S
Co72 N86 2.140 . S
C73 O74 1.227 . S
C73 O83 1.265 . S
O74 C73 1.227 . S
N75 Co72 2.121 . S
N75 C77 1.375 . S
N75 C78 1.313 . S
C76 C77 1.338 . S
C76 N79 1.377 . S
C76 H96 0.930 . S
C77 N75 1.375 . S
C77 C76 1.338 . S
C77 H81 0.931 . S
C78 N75 1.313 . S
C78 N79 1.344 . S
C78 H82 0.930 . S
N79 C76 1.377 . S
N79 C78 1.344 . S
O80 Co72 2.055 . S
O80 C84 1.253 . S
H81 C77 0.931 . S
H82 C78 0.930 . S
O83 Co72 2.039 . S
O83 C73 1.265 . S
C84 O80 1.253 . S
C84 O85 1.227 . S
O85 C84 1.227 . S
N86 Co72 2.140 . S
N86 C89 1.346 . S
N86 C90 1.345 . S
C87 C88 1.387 . S
C87 C91 1.391 . S
C88 C87 1.387 . S
C88 C89 1.369 . S
C88 H97 0.929 . S
C89 N86 1.346 . S
C89 C88 1.369 . S
C89 H92 0.928 . S
C90 N86 1.345 . S
C90 C91 1.371 . S
C90 H93 0.931 . S
C91 C87 1.391 . S
C91 C90 1.371 . S
C91 H98 0.930 . S
H92 C89 0.928 . S
H93 C90 0.931 . S
H94 C70 0.930 . S
H95 C67 0.930 . S
H96 C76 0.930 . S
H97 C88 0.929 . S
H98 C91 0.930 . S
C99 C100 1.351 . S
C99 N102 1.368 . S
C99 H104 0.931 . S
C100 C99 1.351 . S
C100 N101 1.373 . S
C100 H128 0.930 . S
N101 C100 1.373 . S
N101 C103 1.340 . S
N102 C99 1.368 . S
N102 C103 1.321 . S
N102 Co105 2.135 . S
C103 N101 1.340 . S
C103 N102 1.321 . S
C103 H127 0.930 . S
H104 C99 0.931 . S
Co105 N102 2.135 . S
Co105 N108 2.121 . S
Co105 O113 2.055 . S
Co105 O116 2.039 . S
Co105 N119 2.140 . S
C106 O107 1.227 . S
C106 O116 1.265 . S
O107 C106 1.227 . S
N108 Co105 2.121 . S
N108 C110 1.375 . S
N108 C111 1.313 . S
C109 C110 1.338 . S
C109 N112 1.377 . S
C109 H129 0.930 . S
C110 N108 1.375 . S
C110 C109 1.338 . S
C110 H114 0.931 . S
C111 N108 1.313 . S
C111 N112 1.344 . S
C111 H115 0.930 . S
N112 C109 1.377 . S
N112 C111 1.344 . S
O113 Co105 2.055 . S
O113 C117 1.253 . S
H114 C110 0.931 . S
H115 C111 0.930 . S
O116 Co105 2.039 . S
O116 C106 1.265 . S
C117 O113 1.253 . S
C117 O118 1.227 . S
O118 C117 1.227 . S
N119 Co105 2.140 . S
N119 C122 1.346 . S
N119 C123 1.345 . S
C120 C121 1.387 . S
C120 C124 1.391 . S
C121 C120 1.387 . S
C121 C122 1.369 . S
C121 H130 0.929 . S
C122 N119 1.346 . S
C122 C121 1.369 . S
C122 H125 0.928 . S
C123 N119 1.345 . S
C123 C124 1.371 . S
C123 H126 0.931 . S
C124 C120 1.391 . S
C124 C123 1.371 . S
C124 H131 0.930 . S
H125 C122 0.928 . S
H126 C123 0.931 . S
H127 C103 0.930 . S
H128 C100 0.930 . S
H129 C109 0.930 . S
H130 C121 0.929 . S
H131 C124 0.930 . S
C132 C133 1.351 . S
C132 N135 1.368 . S
C132 H137 0.931 . S
C133 C132 1.351 . S
C133 N134 1.373 . S
C133 H161 0.930 . S
N134 C133 1.373 . S
N134 C136 1.340 . S
N135 C132 1.368 . S
N135 C136 1.321 . S
N135 Co138 2.135 . S
C136 N134 1.340 . S
C136 N135 1.321 . S
C136 H160 0.930 . S
H137 C132 0.931 . S
Co138 N135 2.135 . S
Co138 N141 2.121 . S
Co138 O146 2.055 . S
Co138 O149 2.039 . S
Co138 N152 2.140 . S
C139 O140 1.227 . S
C139 O149 1.265 . S
O140 C139 1.227 . S
N141 Co138 2.121 . S
N141 C143 1.375 . S
N141 C144 1.313 . S
C142 C143 1.338 . S
C142 N145 1.377 . S
C142 H162 0.930 . S
C143 N141 1.375 . S
C143 C142 1.338 . S
C143 H147 0.931 . S
C144 N141 1.313 . S
C144 N145 1.344 . S
C144 H148 0.930 . S
N145 C142 1.377 . S
N145 C144 1.344 . S
O146 Co138 2.055 . S
O146 C150 1.253 . S
H147 C143 0.931 . S
H148 C144 0.930 . S
O149 Co138 2.039 . S
O149 C139 1.265 . S
C150 O146 1.253 . S
C150 O151 1.227 . S
O151 C150 1.227 . S
N152 Co138 2.140 . S
N152 C155 1.346 . S
N152 C156 1.345 . S
C153 C154 1.387 . S
C153 C157 1.391 . S
C154 C153 1.387 . S
C154 C155 1.369 . S
C154 H163 0.929 . S
C155 N152 1.346 . S
C155 C154 1.369 . S
C155 H158 0.928 . S
C156 N152 1.345 . S
C156 C157 1.371 . S
C156 H159 0.931 . S
C157 C153 1.391 . S
C157 C156 1.371 . S
C157 H164 0.930 . S
H158 C155 0.928 . S
H159 C156 0.931 . S
H160 C136 0.930 . S
H161 C133 0.930 . S
H162 C142 0.930 . S
H163 C154 0.929 . S
H164 C157 0.930 . S
C165 C166 1.351 . S
C165 N168 1.368 . S
C165 H170 0.931 . S
C166 C165 1.351 . S
C166 N167 1.373 . S
C166 H194 0.930 . S
N167 C166 1.373 . S
N167 C169 1.340 . S
N168 C165 1.368 . S
N168 C169 1.321 . S
N168 Co171 2.135 . S
C169 N167 1.340 . S
C169 N168 1.321 . S
C169 H193 0.930 . S
H170 C165 0.931 . S
Co171 N168 2.135 . S
Co171 N174 2.121 . S
Co171 O179 2.055 . S
Co171 O182 2.039 . S
Co171 N185 2.140 . S
C172 O173 1.227 . S
C172 O182 1.265 . S
O173 C172 1.227 . S
N174 Co171 2.121 . S
N174 C176 1.375 . S
N174 C177 1.313 . S
C175 C176 1.338 . S
C175 N178 1.377 . S
C175 H195 0.930 . S
C176 N174 1.375 . S
C176 C175 1.338 . S
C176 H180 0.931 . S
C177 N174 1.313 . S
C177 N178 1.344 . S
C177 H181 0.930 . S
N178 C175 1.377 . S
N178 C177 1.344 . S
O179 Co171 2.055 . S
O179 C183 1.253 . S
H180 C176 0.931 . S
H181 C177 0.930 . S
O182 Co171 2.039 . S
O182 C172 1.265 . S
C183 O179 1.253 . S
C183 O184 1.227 . S
O184 C183 1.227 . S
N185 Co171 2.140 . S
N185 C188 1.346 . S
N185 C189 1.345 . S
C186 C187 1.387 . S
C186 C190 1.391 . S
C187 C186 1.387 . S
C187 C188 1.369 . S
C187 H196 0.929 . S
C188 N185 1.346 . S
C188 C187 1.369 . S
C188 H191 0.928 . S
C189 N185 1.345 . S
C189 C190 1.371 . S
C189 H192 0.931 . S
C190 C186 1.391 . S
C190 C189 1.371 . S
C190 H197 0.930 . S
H191 C188 0.928 . S
H192 C189 0.931 . S
H193 C169 0.930 . S
H194 C166 0.930 . S
H195 C175 0.930 . S
H196 C187 0.929 . S
H197 C190 0.930 . S
C198 C199 1.351 . S
C198 N201 1.368 . S
C198 H203 0.931 . S
C199 C198 1.351 . S
C199 N200 1.373 . S
C199 H227 0.930 . S
N200 C199 1.373 . S
N200 C202 1.340 . S
N201 C198 1.368 . S
N201 C202 1.321 . S
N201 Co204 2.135 . S
C202 N200 1.340 . S
C202 N201 1.321 . S
C202 H226 0.930 . S
H203 C198 0.931 . S
Co204 N201 2.135 . S
Co204 N207 2.121 . S
Co204 O212 2.055 . S
Co204 O215 2.039 . S
Co204 N218 2.140 . S
C205 O206 1.227 . S
C205 O215 1.265 . S
O206 C205 1.227 . S
N207 Co204 2.121 . S
N207 C209 1.375 . S
N207 C210 1.313 . S
C208 C209 1.338 . S
C208 N211 1.377 . S
C208 H228 0.930 . S
C209 N207 1.375 . S
C209 C208 1.338 . S
C209 H213 0.931 . S
C210 N207 1.313 . S
C210 N211 1.344 . S
C210 H214 0.930 . S
N211 C208 1.377 . S
N211 C210 1.344 . S
O212 Co204 2.055 . S
O212 C216 1.253 . S
H213 C209 0.931 . S
H214 C210 0.930 . S
O215 Co204 2.039 . S
O215 C205 1.265 . S
C216 O212 1.253 . S
C216 O217 1.227 . S
O217 C216 1.227 . S
N218 Co204 2.140 . S
N218 C221 1.346 . S
N218 C222 1.345 . S
C219 C220 1.387 . S
C219 C223 1.391 . S
C220 C219 1.387 . S
C220 C221 1.369 . S
C220 H229 0.929 . S
C221 N218 1.346 . S
C221 C220 1.369 . S
C221 H224 0.928 . S
C222 N218 1.345 . S
C222 C223 1.371 . S
C222 H225 0.931 . S
C223 C219 1.391 . S
C223 C222 1.371 . S
C223 H230 0.930 . S
H224 C221 0.928 . S
H225 C222 0.931 . S
H226 C202 0.930 . S
H227 C199 0.930 . S
H228 C208 0.930 . S
H229 C220 0.929 . S
H230 C223 0.930 . S
C231 C232 1.351 . S
C231 N234 1.368 . S
C231 H236 0.931 . S
C232 C231 1.351 . S
C232 N233 1.373 . S
C232 H260 0.930 . S
N233 C232 1.373 . S
N233 C235 1.340 . S
N234 C231 1.368 . S
N234 C235 1.321 . S
N234 Co237 2.135 . S
C235 N233 1.340 . S
C235 N234 1.321 . S
C235 H259 0.930 . S
H236 C231 0.931 . S
Co237 N234 2.135 . S
Co237 N240 2.121 . S
Co237 O245 2.055 . S
Co237 O248 2.039 . S
Co237 N251 2.140 . S
C238 O239 1.227 . S
C238 O248 1.265 . S
O239 C238 1.227 . S
N240 Co237 2.121 . S
N240 C242 1.375 . S
N240 C243 1.313 . S
C241 C242 1.338 . S
C241 N244 1.377 . S
C241 H261 0.930 . S
C242 N240 1.375 . S
C242 C241 1.338 . S
C242 H246 0.931 . S
C243 N240 1.313 . S
C243 N244 1.344 . S
C243 H247 0.930 . S
N244 C241 1.377 . S
N244 C243 1.344 . S
O245 Co237 2.055 . S
O245 C249 1.253 . S
H246 C242 0.931 . S
H247 C243 0.930 . S
O248 Co237 2.039 . S
O248 C238 1.265 . S
C249 O245 1.253 . S
C249 O250 1.227 . S
O250 C249 1.227 . S
N251 Co237 2.140 . S
N251 C254 1.346 . S
N251 C255 1.345 . S
C252 C253 1.387 . S
C252 C256 1.391 . S
C253 C252 1.387 . S
C253 C254 1.369 . S
C253 H262 0.929 . S
C254 N251 1.346 . S
C254 C253 1.369 . S
C254 H257 0.928 . S
C255 N251 1.345 . S
C255 C256 1.371 . S
C255 H258 0.931 . S
C256 C252 1.391 . S
C256 C255 1.371 . S
C256 H263 0.930 . S
H257 C254 0.928 . S
H258 C255 0.931 . S
H259 C235 0.930 . S
H260 C232 0.930 . S
H261 C241 0.930 . S
H262 C253 0.929 . S
H263 C256 0.930 . S
C264 C265 1.351 . S
C264 N267 1.368 . S
C264 H269 0.931 . S
C265 C264 1.351 . S
C265 N266 1.373 . S
C265 H293 0.930 . S
N266 C265 1.373 . S
N266 C268 1.340 . S
N267 C264 1.368 . S
N267 C268 1.321 . S
N267 Co270 2.135 . S
C268 N266 1.340 . S
C268 N267 1.321 . S
C268 H292 0.930 . S
H269 C264 0.931 . S
Co270 N267 2.135 . S
Co270 N273 2.121 . S
Co270 O278 2.055 . S
Co270 O281 2.039 . S
Co270 N284 2.140 . S
C271 O272 1.227 . S
C271 O281 1.265 . S
O272 C271 1.227 . S
N273 Co270 2.121 . S
N273 C275 1.375 . S
N273 C276 1.313 . S
C274 C275 1.338 . S
C274 N277 1.377 . S
C274 H294 0.930 . S
C275 N273 1.375 . S
C275 C274 1.338 . S
C275 H279 0.931 . S
C276 N273 1.313 . S
C276 N277 1.344 . S
C276 H280 0.930 . S
N277 C274 1.377 . S
N277 C276 1.344 . S
O278 Co270 2.055 . S
O278 C282 1.253 . S
H279 C275 0.931 . S
H280 C276 0.930 . S
O281 Co270 2.039 . S
O281 C271 1.265 . S
C282 O278 1.253 . S
C282 O283 1.227 . S
O283 C282 1.227 . S
N284 Co270 2.140 . S
N284 C287 1.346 . S
N284 C288 1.345 . S
C285 C286 1.387 . S
C285 C289 1.391 . S
C286 C285 1.387 . S
C286 C287 1.369 . S
C286 H295 0.929 . S
C287 N284 1.346 . S
C287 C286 1.369 . S
C287 H290 0.928 . S
C288 N284 1.345 . S
C288 C289 1.371 . S
C288 H291 0.931 . S
C289 C285 1.391 . S
C289 C288 1.371 . S
C289 H296 0.930 . S
H290 C287 0.928 . S
H291 C288 0.931 . S
H292 C268 0.930 . S
H293 C265 0.930 . S
H294 C274 0.930 . S
H295 C286 0.929 . S
H296 C289 0.930 . S
C297 C298 1.351 . S
C297 N300 1.368 . S
C297 H302 0.931 . S
C298 C297 1.351 . S
C298 N299 1.373 . S
C298 H326 0.930 . S
N299 C298 1.373 . S
N299 C301 1.340 . S
N300 C297 1.368 . S
N300 C301 1.321 . S
N300 Co303 2.135 . S
C301 N299 1.340 . S
C301 N300 1.321 . S
C301 H325 0.930 . S
H302 C297 0.931 . S
Co303 N300 2.135 . S
Co303 N306 2.121 . S
Co303 O311 2.055 . S
Co303 O314 2.039 . S
Co303 N317 2.140 . S
C304 O305 1.227 . S
C304 O314 1.265 . S
O305 C304 1.227 . S
N306 Co303 2.121 . S
N306 C308 1.375 . S
N306 C309 1.313 . S
C307 C308 1.338 . S
C307 N310 1.377 . S
C307 H327 0.930 . S
C308 N306 1.375 . S
C308 C307 1.338 . S
C308 H312 0.931 . S
C309 N306 1.313 . S
C309 N310 1.344 . S
C309 H313 0.930 . S
N310 C307 1.377 . S
N310 C309 1.344 . S
O311 Co303 2.055 . S
O311 C315 1.253 . S
H312 C308 0.931 . S
H313 C309 0.930 . S
O314 Co303 2.039 . S
O314 C304 1.265 . S
C315 O311 1.253 . S
C315 O316 1.227 . S
O316 C315 1.227 . S
N317 Co303 2.140 . S
N317 C320 1.346 . S
N317 C321 1.345 . S
C318 C319 1.387 . S
C318 C322 1.391 . S
C319 C318 1.387 . S
C319 C320 1.369 . S
C319 H328 0.929 . S
C320 N317 1.346 . S
C320 C319 1.369 . S
C320 H323 0.928 . S
C321 N317 1.345 . S
C321 C322 1.371 . S
C321 H324 0.931 . S
C322 C318 1.391 . S
C322 C321 1.371 . S
C322 H329 0.930 . S
H323 C320 0.928 . S
H324 C321 0.931 . S
H325 C301 0.930 . S
H326 C298 0.930 . S
H327 C307 0.930 . S
H328 C319 0.929 . S
H329 C322 0.930 . S
C330 C331 1.351 . S
C330 N333 1.368 . S
C330 H335 0.931 . S
C331 C330 1.351 . S
C331 N332 1.373 . S
C331 H359 0.930 . S
N332 C331 1.373 . S
N332 C334 1.340 . S
N333 C330 1.368 . S
N333 C334 1.321 . S
N333 Co336 2.135 . S
C334 N332 1.340 . S
C334 N333 1.321 . S
C334 H358 0.930 . S
H335 C330 0.931 . S
Co336 N333 2.135 . S
Co336 N339 2.121 . S
Co336 O344 2.055 . S
Co336 O347 2.039 . S
Co336 N350 2.140 . S
C337 O338 1.227 . S
C337 O347 1.265 . S
O338 C337 1.227 . S
N339 Co336 2.121 . S
N339 C341 1.375 . S
N339 C342 1.313 . S
C340 C341 1.338 . S
C340 N343 1.377 . S
C340 H360 0.930 . S
C341 N339 1.375 . S
C341 C340 1.338 . S
C341 H345 0.931 . S
C342 N339 1.313 . S
C342 N343 1.344 . S
C342 H346 0.930 . S
N343 C340 1.377 . S
N343 C342 1.344 . S
O344 Co336 2.055 . S
O344 C348 1.253 . S
H345 C341 0.931 . S
H346 C342 0.930 . S
O347 Co336 2.039 . S
O347 C337 1.265 . S
C348 O344 1.253 . S
C348 O349 1.227 . S
O349 C348 1.227 . S
N350 Co336 2.140 . S
N350 C353 1.346 . S
N350 C354 1.345 . S
C351 C352 1.387 . S
C351 C355 1.391 . S
C352 C351 1.387 . S
C352 C353 1.369 . S
C352 H361 0.929 . S
C353 N350 1.346 . S
C353 C352 1.369 . S
C353 H356 0.928 . S
C354 N350 1.345 . S
C354 C355 1.371 . S
C354 H357 0.931 . S
C355 C351 1.391 . S
C355 C354 1.371 . S
C355 H362 0.930 . S
H356 C353 0.928 . S
H357 C354 0.931 . S
H358 C334 0.930 . S
H359 C331 0.930 . S
H360 C340 0.930 . S
H361 C352 0.929 . S
H362 C355 0.930 . S
C363 C364 1.351 . S
C363 N366 1.368 . S
C363 H368 0.931 . S
C364 C363 1.351 . S
C364 N365 1.373 . S
C364 H392 0.930 . S
N365 C364 1.373 . S
N365 C367 1.340 . S
N366 C363 1.368 . S
N366 C367 1.321 . S
N366 Co369 2.135 . S
C367 N365 1.340 . S
C367 N366 1.321 . S
C367 H391 0.930 . S
H368 C363 0.931 . S
Co369 N366 2.135 . S
Co369 N372 2.121 . S
Co369 O377 2.055 . S
Co369 O380 2.039 . S
Co369 N383 2.140 . S
C370 O371 1.227 . S
C370 O380 1.265 . S
O371 C370 1.227 . S
N372 Co369 2.121 . S
N372 C374 1.375 . S
N372 C375 1.313 . S
C373 C374 1.338 . S
C373 N376 1.377 . S
C373 H393 0.930 . S
C374 N372 1.375 . S
C374 C373 1.338 . S
C374 H378 0.931 . S
C375 N372 1.313 . S
C375 N376 1.344 . S
C375 H379 0.930 . S
N376 C373 1.377 . S
N376 C375 1.344 . S
O377 Co369 2.055 . S
O377 C381 1.253 . S
H378 C374 0.931 . S
H379 C375 0.930 . S
O380 Co369 2.039 . S
O380 C370 1.265 . S
C381 O377 1.253 . S
C381 O382 1.227 . S
O382 C381 1.227 . S
N383 Co369 2.140 . S
N383 C386 1.346 . S
N383 C387 1.345 . S
C384 C385 1.387 . S
C384 C388 1.391 . S
C385 C384 1.387 . S
C385 C386 1.369 . S
C385 H394 0.929 . S
C386 N383 1.346 . S
C386 C385 1.369 . S
C386 H389 0.928 . S
C387 N383 1.345 . S
C387 C388 1.371 . S
C387 H390 0.931 . S
C388 C384 1.391 . S
C388 C387 1.371 . S
C388 H395 0.930 . S
H389 C386 0.928 . S
H390 C387 0.931 . S
H391 C367 0.930 . S
H392 C364 0.930 . S
H393 C373 0.930 . S
H394 C385 0.929 . S
H395 C388 0.930 . S
C396 C397 1.351 . S
C396 N399 1.368 . S
C396 H401 0.931 . S
C397 C396 1.351 . S
C397 N398 1.373 . S
C397 H425 0.930 . S
N398 C397 1.373 . S
N398 C400 1.340 . S
N399 C396 1.368 . S
N399 C400 1.321 . S
N399 Co402 2.135 . S
C400 N398 1.340 . S
C400 N399 1.321 . S
C400 H424 0.930 . S
H401 C396 0.931 . S
Co402 N399 2.135 . S
Co402 N405 2.121 . S
Co402 O410 2.055 . S
Co402 O413 2.039 . S
Co402 N416 2.140 . S
C403 O404 1.227 . S
C403 O413 1.265 . S
O404 C403 1.227 . S
N405 Co402 2.121 . S
N405 C407 1.375 . S
N405 C408 1.313 . S
C406 C407 1.338 . S
C406 N409 1.377 . S
C406 H426 0.930 . S
C407 N405 1.375 . S
C407 C406 1.338 . S
C407 H411 0.931 . S
C408 N405 1.313 . S
C408 N409 1.344 . S
C408 H412 0.930 . S
N409 C406 1.377 . S
N409 C408 1.344 . S
O410 Co402 2.055 . S
O410 C414 1.253 . S
H411 C407 0.931 . S
H412 C408 0.930 . S
O413 Co402 2.039 . S
O413 C403 1.265 . S
C414 O410 1.253 . S
C414 O415 1.227 . S
O415 C414 1.227 . S
N416 Co402 2.140 . S
N416 C419 1.346 . S
N416 C420 1.345 . S
C417 C418 1.387 . S
C417 C421 1.391 . S
C418 C417 1.387 . S
C418 C419 1.369 . S
C418 H427 0.929 . S
C419 N416 1.346 . S
C419 C418 1.369 . S
C419 H422 0.928 . S
C420 N416 1.345 . S
C420 C421 1.371 . S
C420 H423 0.931 . S
C421 C417 1.391 . S
C421 C420 1.371 . S
C421 H428 0.930 . S
H422 C419 0.928 . S
H423 C420 0.931 . S
H424 C400 0.930 . S
H425 C397 0.930 . S
H426 C406 0.930 . S
H427 C418 0.929 . S
H428 C421 0.930 . S
C429 C430 1.351 . S
C429 N432 1.368 . S
C429 H434 0.931 . S
C430 C429 1.351 . S
C430 N431 1.373 . S
C430 H458 0.930 . S
N431 C430 1.373 . S
N431 C433 1.340 . S
N432 C429 1.368 . S
N432 C433 1.321 . S
N432 Co435 2.135 . S
C433 N431 1.340 . S
C433 N432 1.321 . S
C433 H457 0.930 . S
H434 C429 0.931 . S
Co435 N432 2.135 . S
Co435 N438 2.121 . S
Co435 O443 2.055 . S
Co435 O446 2.039 . S
Co435 N449 2.140 . S
C436 O437 1.227 . S
C436 O446 1.265 . S
O437 C436 1.227 . S
N438 Co435 2.121 . S
N438 C440 1.375 . S
N438 C441 1.313 . S
C439 C440 1.338 . S
C439 N442 1.377 . S
C439 H459 0.930 . S
C440 N438 1.375 . S
C440 C439 1.338 . S
C440 H444 0.931 . S
C441 N438 1.313 . S
C441 N442 1.344 . S
C441 H445 0.930 . S
N442 C439 1.377 . S
N442 C441 1.344 . S
O443 Co435 2.055 . S
O443 C447 1.253 . S
H444 C440 0.931 . S
H445 C441 0.930 . S
O446 Co435 2.039 . S
O446 C436 1.265 . S
C447 O443 1.253 . S
C447 O448 1.227 . S
O448 C447 1.227 . S
N449 Co435 2.140 . S
N449 C452 1.346 . S
N449 C453 1.345 . S
C450 C451 1.387 . S
C450 C454 1.391 . S
C451 C450 1.387 . S
C451 C452 1.369 . S
C451 H460 0.929 . S
C452 N449 1.346 . S
C452 C451 1.369 . S
C452 H455 0.928 . S
C453 N449 1.345 . S
C453 C454 1.371 . S
C453 H456 0.931 . S
C454 C450 1.391 . S
C454 C453 1.371 . S
C454 H461 0.930 . S
H455 C452 0.928 . S
H456 C453 0.931 . S
H457 C433 0.930 . S
H458 C430 0.930 . S
H459 C439 0.930 . S
H460 C451 0.929 . S
H461 C454 0.930 . S
C462 C463 1.351 . S
C462 N465 1.368 . S
C462 H467 0.931 . S
C463 C462 1.351 . S
C463 N464 1.373 . S
C463 H491 0.930 . S
N464 C463 1.373 . S
N464 C466 1.340 . S
N465 C462 1.368 . S
N465 C466 1.321 . S
N465 Co468 2.135 . S
C466 N464 1.340 . S
C466 N465 1.321 . S
C466 H490 0.930 . S
H467 C462 0.931 . S
Co468 N465 2.135 . S
Co468 N471 2.121 . S
Co468 O476 2.055 . S
Co468 O479 2.039 . S
Co468 N482 2.140 . S
C469 O470 1.227 . S
C469 O479 1.265 . S
O470 C469 1.227 . S
N471 Co468 2.121 . S
N471 C473 1.375 . S
N471 C474 1.313 . S
C472 C473 1.338 . S
C472 N475 1.377 . S
C472 H492 0.930 . S
C473 N471 1.375 . S
C473 C472 1.338 . S
C473 H477 0.931 . S
C474 N471 1.313 . S
C474 N475 1.344 . S
C474 H478 0.930 . S
N475 C472 1.377 . S
N475 C474 1.344 . S
O476 Co468 2.055 . S
O476 C480 1.253 . S
H477 C473 0.931 . S
H478 C474 0.930 . S
O479 Co468 2.039 . S
O479 C469 1.265 . S
C480 O476 1.253 . S
C480 O481 1.227 . S
O481 C480 1.227 . S
N482 Co468 2.140 . S
N482 C485 1.346 . S
N482 C486 1.345 . S
C483 C484 1.387 . S
C483 C487 1.391 . S
C484 C483 1.387 . S
C484 C485 1.369 . S
C484 H493 0.929 . S
C485 N482 1.346 . S
C485 C484 1.369 . S
C485 H488 0.928 . S
C486 N482 1.345 . S
C486 C487 1.371 . S
C486 H489 0.931 . S
C487 C483 1.391 . S
C487 C486 1.371 . S
C487 H494 0.930 . S
H488 C485 0.928 . S
H489 C486 0.931 . S
H490 C466 0.930 . S
H491 C463 0.930 . S
H492 C472 0.930 . S
H493 C484 0.929 . S
H494 C487 0.930 . S
C495 C496 1.351 . S
C495 N498 1.368 . S
C495 H500 0.931 . S
C496 C495 1.351 . S
C496 N497 1.373 . S
C496 H524 0.930 . S
N497 C496 1.373 . S
N497 C499 1.340 . S
N498 C495 1.368 . S
N498 C499 1.321 . S
N498 Co501 2.135 . S
C499 N497 1.340 . S
C499 N498 1.321 . S
C499 H523 0.930 . S
H500 C495 0.931 . S
Co501 N498 2.135 . S
Co501 N504 2.121 . S
Co501 O509 2.055 . S
Co501 O512 2.039 . S
Co501 N515 2.140 . S
C502 O503 1.227 . S
C502 O512 1.265 . S
O503 C502 1.227 . S
N504 Co501 2.121 . S
N504 C506 1.375 . S
N504 C507 1.313 . S
C505 C506 1.338 . S
C505 N508 1.377 . S
C505 H525 0.930 . S
C506 N504 1.375 . S
C506 C505 1.338 . S
C506 H510 0.931 . S
C507 N504 1.313 . S
C507 N508 1.344 . S
C507 H511 0.930 . S
N508 C505 1.377 . S
N508 C507 1.344 . S
O509 Co501 2.055 . S
O509 C513 1.253 . S
H510 C506 0.931 . S
H511 C507 0.930 . S
O512 Co501 2.039 . S
O512 C502 1.265 . S
C513 O509 1.253 . S
C513 O514 1.227 . S
O514 C513 1.227 . S
N515 Co501 2.140 . S
N515 C518 1.346 . S
N515 C519 1.345 . S
C516 C517 1.387 . S
C516 C520 1.391 . S
C517 C516 1.387 . S
C517 C518 1.369 . S
C517 H526 0.929 . S
C518 N515 1.346 . S
C518 C517 1.369 . S
C518 H521 0.928 . S
C519 N515 1.345 . S
C519 C520 1.371 . S
C519 H522 0.931 . S
C520 C516 1.391 . S
C520 C519 1.371 . S
C520 H527 0.930 . S
H521 C518 0.928 . S
H522 C519 0.931 . S
H523 C499 0.930 . S
H524 C496 0.930 . S
H525 C505 0.930 . S
H526 C517 0.929 . S
H527 C520 0.930 . S
H528 C540 0.930 . S
H529 C542 0.930 . S
H530 C543 0.930 . S
H531 C547 0.959 . S
H532 C547 0.959 . S
H533 C547 0.961 . S
H534 C548 0.960 . S
H535 C548 0.961 . S
H536 C548 0.959 . S
H537 C551 0.929 . S
H538 C552 0.931 . S
H539 C554 0.930 . S
C540 H528 0.930 . S
C540 C541 1.399 . S
C540 C545 1.399 . S
C541 C540 1.399 . S
C541 C542 1.376 . S
C542 H529 0.930 . S
C542 C541 1.376 . S
C542 C543 1.388 . S
C543 H530 0.930 . S
C543 C542 1.388 . S
C543 C544 1.390 . S
C544 C543 1.390 . S
C544 C545 1.394 . S
C544 C550 1.465 . S
C545 C540 1.399 . S
C545 C544 1.394 . S
C545 C546 1.516 . S
C546 C545 1.516 . S
C546 C547 1.502 . S
C546 C548 1.561 . S
C546 C549 1.526 . S
C547 H531 0.959 . S
C547 H532 0.959 . S
C547 H533 0.961 . S
C547 C546 1.502 . S
C548 H534 0.960 . S
C548 H535 0.961 . S
C548 H536 0.959 . S
C548 C546 1.561 . S
C549 C546 1.526 . S
C549 C550 1.396 . S
C549 C554 1.390 . S
C550 C544 1.465 . S
C550 C549 1.396 . S
C550 C551 1.399 . S
C551 H537 0.929 . S
C551 C550 1.399 . S
C551 C552 1.385 . S
C552 H538 0.931 . S
C552 C551 1.385 . S
C552 C553 1.389 . S
C553 C552 1.389 . S
C553 C554 1.387 . S
C554 H539 0.930 . S
C554 C549 1.390 . S
C554 C553 1.387 . S
H555 C567 0.930 . S
H556 C569 0.930 . S
H557 C570 0.930 1_565 S
H558 C574 0.959 1_655 S
H559 C574 0.959 . S
H560 C574 0.961 1_655 S
H561 C575 0.960 . S
H562 C575 0.961 . S
H563 C575 0.959 . S
H564 C578 0.929 . S
H565 C579 0.931 . S
H566 C581 0.930 . S
C567 H555 0.930 . S
C567 C568 1.399 . S
C567 C572 1.399 1_655 S
C568 C567 1.399 . S
C568 C569 1.376 . S
C569 H556 0.930 . S
C569 C568 1.376 . S
C569 C570 1.388 . S
C570 H557 0.930 1_545 S
C570 C569 1.388 . S
C570 C571 1.390 1_655 S
C571 C570 1.390 1_455 S
C571 C572 1.394 . S
C571 C577 1.465 1_545 S
C572 C567 1.399 1_455 S
C572 C571 1.394 . S
C572 C573 1.516 . S
C573 C572 1.516 . S
C573 C574 1.502 . S
C573 C575 1.561 . S
C573 C576 1.526 . S
C574 H558 0.959 1_455 S
C574 H559 0.959 . S
C574 H560 0.961 1_455 S
C574 C573 1.502 . S
C575 H561 0.960 . S
C575 H562 0.961 . S
C575 H563 0.959 . S
C575 C573 1.561 . S
C576 C573 1.526 . S
C576 C577 1.396 1_545 S
C576 C581 1.390 . S
C577 C571 1.465 1_565 S
C577 C576 1.396 1_565 S
C577 C578 1.399 . S
C578 H564 0.929 . S
C578 C577 1.399 . S
C578 C579 1.385 . S
C579 H565 0.931 . S
C579 C578 1.385 . S
C579 C580 1.389 . S
C580 C579 1.389 . S
C580 C581 1.387 1_565 S
C581 H566 0.930 . S
C581 C576 1.390 . S
C581 C580 1.387 1_545 S
H582 C594 0.930 . S
H583 C596 0.930 . S
H584 C597 0.930 . S
H585 C601 0.959 . S
H586 C601 0.959 . S
H587 C601 0.961 . S
H588 C602 0.960 . S
H589 C602 0.961 . S
H590 C602 0.959 . S
H591 C605 0.929 . S
H592 C606 0.931 . S
H593 C608 0.930 . S
C594 H582 0.930 . S
C594 C595 1.399 . S
C594 C599 1.399 . S
C595 C594 1.399 . S
C595 C596 1.376 . S
C596 H583 0.930 . S
C596 C595 1.376 . S
C596 C597 1.388 . S
C597 H584 0.930 . S
C597 C596 1.388 . S
C597 C598 1.390 . S
C598 C597 1.390 . S
C598 C599 1.394 . S
C598 C604 1.465 . S
C599 C594 1.399 . S
C599 C598 1.394 . S
C599 C600 1.516 . S
C600 C599 1.516 . S
C600 C601 1.502 . S
C600 C602 1.561 . S
C600 C603 1.526 . S
C601 H585 0.959 . S
C601 H586 0.959 . S
C601 H587 0.961 . S
C601 C600 1.502 . S
C602 H588 0.960 . S
C602 H589 0.961 . S
C602 H590 0.959 . S
C602 C600 1.561 . S
C603 C600 1.526 . S
C603 C604 1.396 . S
C603 C608 1.390 . S
C604 C598 1.465 . S
C604 C603 1.396 . S
C604 C605 1.399 . S
C605 H591 0.929 . S
C605 C604 1.399 . S
C605 C606 1.385 . S
C606 H592 0.931 . S
C606 C605 1.385 . S
C606 C607 1.389 . S
C607 C606 1.389 . S
C607 C608 1.387 . S
C608 H593 0.930 . S
C608 C603 1.390 . S
C608 C607 1.387 . S
H609 C621 0.930 . S
H610 C623 0.930 . S
H611 C624 0.930 . S
H612 C628 0.959 1_554 S
H613 C628 0.959 . S
H614 C628 0.961 . S
H615 C629 0.960 . S
H616 C629 0.961 . S
H617 C629 0.959 . S
H618 C632 0.929 . S
H619 C633 0.931 . S
H620 C635 0.930 . S
C621 H609 0.930 . S
C621 C622 1.399 1_565 S
C621 C626 1.399 . S
C622 C621 1.399 1_545 S
C622 C623 1.376 . S
C623 H610 0.930 . S
C623 C622 1.376 . S
C623 C624 1.388 1_556 S
C624 H611 0.930 . S
C624 C623 1.388 1_554 S
C624 C625 1.390 . S
C625 C624 1.390 . S
C625 C626 1.394 1_544 S
C625 C631 1.465 1_545 S
C626 C621 1.399 . S
C626 C625 1.394 1_566 S
C626 C627 1.516 . S
C627 C626 1.516 . S
C627 C628 1.502 . S
C627 C629 1.561 . S
C627 C630 1.526 1_556 S
C628 H612 0.959 1_556 S
C628 H613 0.959 . S
C628 H614 0.961 . S
C628 C627 1.502 . S
C629 H615 0.960 . S
C629 H616 0.961 . S
C629 H617 0.959 . S
C629 C627 1.561 . S
C630 C627 1.526 1_554 S
C630 C631 1.396 . S
C630 C635 1.390 . S
C631 C625 1.465 1_565 S
C631 C630 1.396 . S
C631 C632 1.399 1_565 S
C632 H618 0.929 . S
C632 C631 1.399 1_545 S
C632 C633 1.385 1_545 S
C633 H619 0.931 . S
C633 C632 1.385 1_565 S
C633 C634 1.389 . S
C634 C633 1.389 . S
C634 C635 1.387 . S
C635 H620 0.930 . S
C635 C630 1.390 . S
C635 C634 1.387 . S
H636 C648 0.930 . S
H637 C650 0.930 . S
H638 C651 0.930 . S
H639 C655 0.959 . S
H640 C655 0.959 . S
H641 C655 0.961 . S
H642 C656 0.960 . S
H643 C656 0.961 . S
H644 C656 0.959 . S
H645 C659 0.929 . S
H646 C660 0.931 . S
H647 C662 0.930 . S
C648 H636 0.930 . S
C648 C649 1.399 . S
C648 C653 1.399 . S
C649 C648 1.399 . S
C649 C650 1.376 . S
C650 H637 0.930 . S
C650 C649 1.376 . S
C650 C651 1.388 . S
C651 H638 0.930 . S
C651 C650 1.388 . S
C651 C652 1.390 . S
C652 C651 1.390 . S
C652 C653 1.394 . S
C652 C658 1.465 . S
C653 C648 1.399 . S
C653 C652 1.394 . S
C653 C654 1.516 . S
C654 C653 1.516 . S
C654 C655 1.502 . S
C654 C656 1.561 . S
C654 C657 1.526 . S
C655 H639 0.959 . S
C655 H640 0.959 . S
C655 H641 0.961 . S
C655 C654 1.502 . S
C656 H642 0.960 . S
C656 H643 0.961 . S
C656 H644 0.959 . S
C656 C654 1.561 . S
C657 C654 1.526 . S
C657 C658 1.396 . S
C657 C662 1.390 . S
C658 C652 1.465 . S
C658 C657 1.396 . S
C658 C659 1.399 . S
C659 H645 0.929 . S
C659 C658 1.399 . S
C659 C660 1.385 . S
C660 H646 0.931 . S
C660 C659 1.385 . S
C660 C661 1.389 . S
C661 C660 1.389 . S
C661 C662 1.387 . S
C662 H647 0.930 . S
C662 C657 1.390 . S
C662 C661 1.387 . S
H663 C675 0.930 . S
H664 C677 0.930 . S
H665 C678 0.930 . S
H666 C682 0.959 . S
H667 C682 0.959 . S
H668 C682 0.961 . S
H669 C683 0.960 . S
H670 C683 0.961 . S
H671 C683 0.959 . S
H672 C686 0.929 . S
H673 C687 0.931 . S
H674 C689 0.930 . S
C675 H663 0.930 . S
C675 C676 1.399 . S
C675 C680 1.399 . S
C676 C675 1.399 . S
C676 C677 1.376 . S
C677 H664 0.930 . S
C677 C676 1.376 . S
C677 C678 1.388 . S
C678 H665 0.930 . S
C678 C677 1.388 . S
C678 C679 1.390 . S
C679 C678 1.390 . S
C679 C680 1.394 . S
C679 C685 1.465 . S
C680 C675 1.399 . S
C680 C679 1.394 . S
C680 C681 1.516 . S
C681 C680 1.516 . S
C681 C682 1.502 1_565 S
C681 C683 1.561 . S
C681 C684 1.526 1_565 S
C682 H666 0.959 . S
C682 H667 0.959 . S
C682 H668 0.961 . S
C682 C681 1.502 1_545 S
C683 H669 0.960 . S
C683 H670 0.961 . S
C683 H671 0.959 . S
C683 C681 1.561 . S
C684 C681 1.526 1_545 S
C684 C685 1.396 1_545 S
C684 C689 1.390 . S
C685 C679 1.465 . S
C685 C684 1.396 1_565 S
C685 C686 1.399 . S
C686 H672 0.929 . S
C686 C685 1.399 . S
C686 C687 1.385 1_565 S
C687 H673 0.931 . S
C687 C686 1.385 1_545 S
C687 C688 1.389 . S
C688 C687 1.389 . S
C688 C689 1.387 . S
C689 H674 0.930 . S
C689 C684 1.390 . S
C689 C688 1.387 . S
H690 C702 0.930 . S
H691 C704 0.930 . S
H692 C705 0.930 . S
H693 C709 0.959 . S
H694 C709 0.959 . S
H695 C709 0.961 . S
H696 C710 0.960 . S
H697 C710 0.961 . S
H698 C710 0.959 . S
H699 C713 0.929 . S
H700 C714 0.931 . S
H701 C716 0.930 . S
C702 H690 0.930 . S
C702 C703 1.399 . S
C702 C707 1.399 . S
C703 C702 1.399 . S
C703 C704 1.376 . S
C704 H691 0.930 . S
C704 C703 1.376 . S
C704 C705 1.388 . S
C705 H692 0.930 . S
C705 C704 1.388 . S
C705 C706 1.390 . S
C706 C705 1.390 . S
C706 C707 1.394 . S
C706 C712 1.465 . S
C707 C702 1.399 . S
C707 C706 1.394 . S
C707 C708 1.516 . S
C708 C707 1.516 . S
C708 C709 1.502 . S
C708 C710 1.561 . S
C708 C711 1.526 . S
C709 H693 0.959 . S
C709 H694 0.959 . S
C709 H695 0.961 . S
C709 C708 1.502 . S
C710 H696 0.960 . S
C710 H697 0.961 . S
C710 H698 0.959 . S
C710 C708 1.561 . S
C711 C708 1.526 . S
C711 C712 1.396 . S
C711 C716 1.390 . S
C712 C706 1.465 . S
C712 C711 1.396 . S
C712 C713 1.399 . S
C713 H699 0.929 . S
C713 C712 1.399 . S
C713 C714 1.385 . S
C714 H700 0.931 . S
C714 C713 1.385 . S
C714 C715 1.389 . S
C715 C714 1.389 . S
C715 C716 1.387 . S
C716 H701 0.930 . S
C716 C711 1.390 . S
C716 C715 1.387 . S
H717 C729 0.930 1_556 S
H718 C731 0.930 . S
H719 C732 0.938 . S
H720 C736 0.959 . S
H721 C736 0.959 . S
H722 C736 0.961 . S
H723 C737 0.960 . S
H724 C737 0.961 1_655 S
H725 C737 0.959 . S
H726 C740 0.929 . S
H727 C741 0.931 . S
H728 C743 0.930 1_545 S
C729 H717 0.930 1_554 S
C729 C730 1.399 . S
C729 C734 1.399 1_554 S
C730 C729 1.399 . S
C730 C731 1.376 . S
C731 H718 0.930 . S
C731 C730 1.376 . S
C731 C732 1.388 . S
C732 H719 0.938 . S
C732 C731 1.388 . S
C732 C733 1.390 . S
C733 C732 1.390 . S
C733 C734 1.394 1_554 S
C733 C739 1.444 1_444 S
C734 C729 1.399 1_556 S
C734 C733 1.394 1_556 S
C734 C735 1.516 1_455 S
C735 C734 1.516 1_655 S
C735 C736 1.502 . S
C735 C737 1.561 1_655 S
C735 C738 1.526 . S
C736 H720 0.959 . S
C736 H721 0.959 . S
C736 H722 0.961 . S
C736 C735 1.502 . S
C737 H723 0.960 . S
C737 H724 0.961 1_455 S
C737 H725 0.959 . S
C737 C735 1.561 1_455 S
C738 C735 1.526 . S
C738 C739 1.381 1_545 S
C738 C743 1.390 1_545 S
C739 C733 1.444 1_666 S
C739 C738 1.381 1_565 S
C739 C740 1.431 1_556 S
C740 H726 0.929 . S
C740 C739 1.431 1_554 S
C740 C741 1.385 1_554 S
C741 H727 0.931 . S
C741 C740 1.385 1_556 S
C741 C742 1.389 . S
C742 C741 1.389 . S
C742 C743 1.387 . S
C743 H728 0.930 1_565 S
C743 C738 1.390 1_565 S
C743 C742 1.387 . S
H744 C756 0.930 . S
H745 C758 0.930 . S
H746 C759 0.930 . S
H747 C763 0.959 . S
H748 C763 0.959 . S
H749 C763 0.961 . S
H750 C764 0.960 . S
H751 C764 0.961 . S
H752 C764 0.959 . S
H753 C767 0.929 . S
H754 C768 0.931 . S
H755 C770 0.930 . S
C756 H744 0.930 . S
C756 C757 1.399 . S
C756 C761 1.399 . S
C757 C756 1.399 . S
C757 C758 1.376 . S
C758 H745 0.930 . S
C758 C757 1.376 . S
C758 C759 1.388 . S
C759 H746 0.930 . S
C759 C758 1.388 . S
C759 C760 1.390 . S
C760 C759 1.390 . S
C760 C761 1.394 . S
C760 C766 1.465 . S
C761 C756 1.399 . S
C761 C760 1.394 . S
C761 C762 1.516 . S
C762 C761 1.516 . S
C762 C763 1.502 . S
C762 C764 1.561 . S
C762 C765 1.526 . S
C763 H747 0.959 . S
C763 H748 0.959 . S
C763 H749 0.961 . S
C763 C762 1.502 . S
C764 H750 0.960 . S
C764 H751 0.961 . S
C764 H752 0.959 . S
C764 C762 1.561 . S
C765 C762 1.526 . S
C765 C766 1.396 . S
C765 C770 1.390 . S
C766 C760 1.465 . S
C766 C765 1.396 . S
C766 C767 1.399 . S
C767 H753 0.929 . S
C767 C766 1.399 . S
C767 C768 1.385 . S
C768 H754 0.931 . S
C768 C767 1.385 . S
C768 C769 1.389 . S
C769 C768 1.389 . S
C769 C770 1.387 . S
C770 H755 0.930 . S
C770 C765 1.390 . S
C770 C769 1.387 . S
H771 C783 0.930 . S
H772 C785 0.930 . S
H773 C786 0.930 . S
H774 C790 0.959 . S
H775 C790 0.959 . S
H776 C790 0.961 . S
H777 C791 0.960 . S
H778 C791 0.961 . S
H779 C791 0.959 . S
H780 C794 0.929 1_556 S
H781 C795 0.931 . S
H782 C797 0.930 . S
C783 H771 0.930 . S
C783 C784 1.399 . S
C783 C788 1.399 1_556 S
C784 C783 1.399 . S
C784 C785 1.376 . S
C785 H772 0.930 . S
C785 C784 1.376 . S
C785 C786 1.388 . S
C786 H773 0.930 . S
C786 C785 1.388 . S
C786 C787 1.390 . S
C787 C786 1.390 . S
C787 C788 1.394 1_556 S
C787 C793 1.465 1_556 S
C788 C783 1.399 1_554 S
C788 C787 1.394 1_554 S
C788 C789 1.516 . S
C789 C788 1.516 . S
C789 C790 1.502 . S
C789 C791 1.561 1_455 S
C789 C792 1.526 . S
C790 H774 0.959 . S
C790 H775 0.959 . S
C790 H776 0.961 . S
C790 C789 1.502 . S
C791 H777 0.960 . S
C791 H778 0.961 . S
C791 H779 0.959 . S
C791 C789 1.561 1_655 S
C792 C789 1.526 . S
C792 C793 1.396 . S
C792 C797 1.390 1_455 S
C793 C787 1.465 1_554 S
C793 C792 1.396 . S
C793 C794 1.399 . S
C794 H780 0.929 1_554 S
C794 C793 1.399 . S
C794 C795 1.385 1_455 S
C795 H781 0.931 . S
C795 C794 1.385 1_655 S
C795 C796 1.389 . S
C796 C795 1.389 . S
C796 C797 1.387 . S
C797 H782 0.930 . S
C797 C792 1.390 1_655 S
C797 C796 1.387 . S
H798 C810 0.930 . S
H799 C812 0.930 . S
H800 C813 0.930 . S
H801 C817 0.959 . S
H802 C817 0.959 . S
H803 C817 0.961 . S
H804 C818 0.960 . S
H805 C818 0.961 . S
H806 C818 0.959 . S
H807 C821 0.929 . S
H808 C822 0.931 . S
H809 C824 0.930 . S
C810 H798 0.930 . S
C810 C811 1.399 . S
C810 C815 1.399 . S
C811 C810 1.399 . S
C811 C812 1.376 . S
C812 H799 0.930 . S
C812 C811 1.376 . S
C812 C813 1.388 . S
C813 H800 0.930 . S
C813 C812 1.388 . S
C813 C814 1.390 . S
C814 C813 1.390 . S
C814 C815 1.394 . S
C814 C820 1.465 . S
C815 C810 1.399 . S
C815 C814 1.394 . S
C815 C816 1.516 . S
C816 C815 1.516 . S
C816 C817 1.502 . S
C816 C818 1.561 . S
C816 C819 1.526 . S
C817 H801 0.959 . S
C817 H802 0.959 . S
C817 H803 0.961 . S
C817 C816 1.502 . S
C818 H804 0.960 . S
C818 H805 0.961 . S
C818 H806 0.959 . S
C818 C816 1.561 . S
C819 C816 1.526 . S
C819 C820 1.396 . S
C819 C824 1.390 . S
C820 C814 1.465 . S
C820 C819 1.396 . S
C820 C821 1.399 . S
C821 H807 0.929 . S
C821 C820 1.399 . S
C821 C822 1.385 . S
C822 H808 0.931 . S
C822 C821 1.385 . S
C822 C823 1.389 . S
C823 C822 1.389 . S
C823 C824 1.387 . S
C824 H809 0.930 . S
C824 C819 1.390 . S
C824 C823 1.387 . S
H825 C837 0.930 . S
H826 C839 0.930 . S
H827 C840 0.930 . S
H828 C844 0.959 . S
H829 C844 0.959 . S
H830 C844 0.961 . S
H831 C845 0.960 . S
H832 C845 0.961 . S
H833 C845 0.959 . S
H834 C848 0.929 . S
H835 C849 0.931 . S
H836 C851 0.930 . S
C837 H825 0.930 . S
C837 C838 1.399 . S
C837 C842 1.399 . S
C838 C837 1.399 . S
C838 C839 1.376 . S
C839 H826 0.930 . S
C839 C838 1.376 . S
C839 C840 1.388 . S
C840 H827 0.930 . S
C840 C839 1.388 . S
C840 C841 1.390 . S
C841 C840 1.390 . S
C841 C842 1.394 . S
C841 C847 1.465 1_655 S
C842 C837 1.399 . S
C842 C841 1.394 . S
C842 C843 1.516 . S
C843 C842 1.516 . S
C843 C844 1.502 . S
C843 C845 1.561 . S
C843 C846 1.526 . S
C844 H828 0.959 . S
C844 H829 0.959 . S
C844 H830 0.961 . S
C844 C843 1.502 . S
C845 H831 0.960 . S
C845 H832 0.961 . S
C845 H833 0.959 . S
C845 C843 1.561 . S
C846 C843 1.526 . S
C846 C847 1.396 1_655 S
C846 C851 1.390 1_655 S
C847 C841 1.465 1_455 S
C847 C846 1.396 1_455 S
C847 C848 1.399 . S
C848 H834 0.929 . S
C848 C847 1.399 . S
C848 C849 1.385 . S
C849 H835 0.931 . S
C849 C848 1.385 . S
C849 C850 1.389 . S
C850 C849 1.389 . S
C850 C851 1.387 . S
C851 H836 0.930 . S
C851 C846 1.390 1_455 S
C851 C850 1.387 . S
H852 C864 0.930 . S
H853 C866 0.930 . S
H854 C867 0.930 1_554 S
H855 C871 0.959 . S
H856 C871 0.959 . S
H857 C871 0.961 . S
H858 C872 0.960 . S
H859 C872 0.961 . S
H860 C872 0.959 . S
H861 C875 0.929 . S
H862 C876 0.931 . S
H863 C878 0.930 1_556 S
C864 H852 0.930 . S
C864 C865 1.399 . S
C864 C869 1.399 . S
C865 C864 1.399 . S
C865 C866 1.376 . S
C866 H853 0.930 . S
C866 C865 1.376 . S
C866 C867 1.388 . S
C867 H854 0.930 1_556 S
C867 C866 1.388 . S
C867 C868 1.390 . S
C868 C867 1.390 . S
C868 C869 1.394 . S
C868 C874 1.465 1_556 S
C869 C864 1.399 . S
C869 C868 1.394 . S
C869 C870 1.516 . S
C870 C869 1.516 . S
C870 C871 1.502 . S
C870 C872 1.561 . S
C870 C873 1.526 . S
C871 H855 0.959 . S
C871 H856 0.959 . S
C871 H857 0.961 . S
C871 C870 1.502 . S
C872 H858 0.960 . S
C872 H859 0.961 . S
C872 H860 0.959 . S
C872 C870 1.561 . S
C873 C870 1.526 . S
C873 C874 1.396 1_556 S
C873 C878 1.390 1_556 S
C874 C868 1.465 1_554 S
C874 C873 1.396 1_554 S
C874 C875 1.399 . S
C875 H861 0.929 . S
C875 C874 1.399 . S
C875 C876 1.385 . S
C876 H862 0.931 . S
C876 C875 1.385 . S
C876 C877 1.389 . S
C877 C876 1.389 . S
C877 C878 1.387 . S
C878 H863 0.930 1_554 S
C878 C873 1.390 1_554 S
C878 C877 1.387 . S
H879 C891 0.930 . S
H880 C893 0.930 . S
H881 C894 0.930 . S
H882 C898 0.959 . S
H883 C898 0.959 . S
H884 C898 0.961 . S
H885 C899 0.960 . S
H886 C899 0.961 . S
H887 C899 0.959 . S
H888 C902 0.929 . S
H889 C903 0.931 . S
H890 C905 0.930 . S
C891 H879 0.930 . S
C891 C892 1.399 . S
C891 C896 1.399 . S
C892 C891 1.399 . S
C892 C893 1.376 . S
C893 H880 0.930 . S
C893 C892 1.376 . S
C893 C894 1.388 . S
C894 H881 0.930 . S
C894 C893 1.388 . S
C894 C895 1.390 . S
C895 C894 1.390 . S
C895 C896 1.394 . S
C895 C901 1.465 . S
C896 C891 1.399 . S
C896 C895 1.394 . S
C896 C897 1.516 . S
C897 C896 1.516 . S
C897 C898 1.502 . S
C897 C899 1.561 . S
C897 C900 1.526 . S
C898 H882 0.959 . S
C898 H883 0.959 . S
C898 H884 0.961 . S
C898 C897 1.502 . S
C899 H885 0.960 . S
C899 H886 0.961 . S
C899 H887 0.959 . S
C899 C897 1.561 . S
C900 C897 1.526 . S
C900 C901 1.396 . S
C900 C905 1.390 . S
C901 C895 1.465 . S
C901 C900 1.396 . S
C901 C902 1.399 . S
C902 H888 0.929 . S
C902 C901 1.399 . S
C902 C903 1.385 . S
C903 H889 0.931 . S
C903 C902 1.385 . S
C903 C904 1.389 . S
C904 C903 1.389 . S
C904 C905 1.387 . S
C905 H890 0.930 . S
C905 C900 1.390 . S
C905 C904 1.387 . S
H906 C918 0.930 . S
H907 C920 0.930 . S
H908 C921 0.930 . S
H909 C925 0.959 . S
H910 C925 0.959 . S
H911 C925 0.961 . S
H912 C926 0.960 . S
H913 C926 0.961 . S
H914 C926 0.959 . S
H915 C929 0.929 . S
H916 C930 0.931 . S
H917 C932 0.930 . S
C918 H906 0.930 . S
C918 C919 1.399 . S
C918 C923 1.399 . S
C919 C918 1.399 . S
C919 C920 1.376 . S
C920 H907 0.930 . S
C920 C919 1.376 . S
C920 C921 1.388 . S
C921 H908 0.930 . S
C921 C920 1.388 . S
C921 C922 1.390 . S
C922 C921 1.390 . S
C922 C923 1.394 . S
C922 C928 1.465 . S
C923 C918 1.399 . S
C923 C922 1.394 . S
C923 C924 1.516 . S
C924 C923 1.516 . S
C924 C925 1.502 . S
C924 C926 1.561 . S
C924 C927 1.526 . S
C925 H909 0.959 . S
C925 H910 0.959 . S
C925 H911 0.961 . S
C925 C924 1.502 . S
C926 H912 0.960 . S
C926 H913 0.961 . S
C926 H914 0.959 . S
C926 C924 1.561 . S
C927 C924 1.526 . S
C927 C928 1.396 . S
C927 C932 1.390 . S
C928 C922 1.465 . S
C928 C927 1.396 . S
C928 C929 1.399 . S
C929 H915 0.929 . S
C929 C928 1.399 . S
C929 C930 1.385 . S
C930 H916 0.931 . S
C930 C929 1.385 . S
C930 C931 1.389 . S
C931 C930 1.389 . S
C931 C932 1.387 . S
C932 H917 0.930 . S
C932 C927 1.390 . S
C932 C931 1.387 . S
H933 C945 0.930 . S
H934 C947 0.930 . S
H935 C948 0.930 . S
H936 C952 0.959 . S
H937 C952 0.959 . S
H938 C952 0.961 . S
H939 C953 0.960 . S
H940 C953 0.961 . S
H941 C953 0.959 . S
H942 C956 0.929 . S
H943 C957 0.931 . S
H944 C959 0.930 . S
C945 H933 0.930 . S
C945 C946 1.399 . S
C945 C950 1.399 . S
C946 C945 1.399 . S
C946 C947 1.376 . S
C947 H934 0.930 . S
C947 C946 1.376 . S
C947 C948 1.388 . S
C948 H935 0.930 . S
C948 C947 1.388 . S
C948 C949 1.390 . S
C949 C948 1.390 . S
C949 C950 1.394 . S
C949 C955 1.465 . S
C950 C945 1.399 . S
C950 C949 1.394 . S
C950 C951 1.516 . S
C951 C950 1.516 . S
C951 C952 1.502 . S
C951 C953 1.561 . S
C951 C954 1.526 . S
C952 H936 0.959 . S
C952 H937 0.959 . S
C952 H938 0.961 . S
C952 C951 1.502 . S
C953 H939 0.960 . S
C953 H940 0.961 . S
C953 H941 0.959 . S
C953 C951 1.561 . S
C954 C951 1.526 . S
C954 C955 1.396 . S
C954 C959 1.390 . S
C955 C949 1.465 . S
C955 C954 1.396 . S
C955 C956 1.399 . S
C956 H942 0.929 . S
C956 C955 1.399 . S
C956 C957 1.385 . S
C957 H943 0.931 . S
C957 C956 1.385 . S
C957 C958 1.389 . S
C958 C957 1.389 . S
C958 C959 1.387 . S
C959 H944 0.930 . S
C959 C954 1.390 . S
C959 C958 1.387 . S
H960 C972 0.930 . S
H961 C974 0.930 . S
H962 C975 0.930 1_565 S
H963 C979 0.959 . S
H964 C979 0.959 . S
H965 C979 0.961 . S
H966 C980 0.960 . S
H967 C980 0.961 . S
H968 C980 0.959 . S
H969 C983 0.929 . S
H970 C984 0.931 . S
H971 C986 0.930 . S
C972 H960 0.930 . S
C972 C973 1.399 . S
C972 C977 1.399 . S
C973 C972 1.399 . S
C973 C974 1.376 . S
C974 H961 0.930 . S
C974 C973 1.376 . S
C974 C975 1.388 . S
C975 H962 0.930 1_545 S
C975 C974 1.388 . S
C975 C976 1.390 . S
C976 C975 1.390 . S
C976 C977 1.394 . S
C976 C982 1.465 1_545 S
C977 C972 1.399 . S
C977 C976 1.394 . S
C977 C978 1.516 . S
C978 C977 1.516 . S
C978 C979 1.502 . S
C978 C980 1.561 . S
C978 C981 1.526 1_545 S
C979 H963 0.959 . S
C979 H964 0.959 . S
C979 H965 0.961 . S
C979 C978 1.502 . S
C980 H966 0.960 . S
C980 H967 0.961 . S
C980 H968 0.959 . S
C980 C978 1.561 . S
C981 C978 1.526 1_565 S
C981 C982 1.396 . S
C981 C986 1.390 . S
C982 C976 1.465 1_565 S
C982 C981 1.396 . S
C982 C983 1.399 . S
C983 H969 0.929 . S
C983 C982 1.399 . S
C983 C984 1.385 . S
C984 H970 0.931 . S
C984 C983 1.385 . S
C984 C985 1.389 . S
C985 C984 1.389 . S
C985 C986 1.387 . S
C986 H971 0.930 . S
C986 C981 1.390 . S
C986 C985 1.387 . S
H987 C999 0.930 . S
H988 C1001 0.930 . S
H989 C1002 0.930 . S
H990 C1006 0.959 . S
H991 C1006 0.959 . S
H992 C1006 0.961 . S
H993 C1007 0.960 . S
H994 C1007 0.961 . S
H995 C1007 0.959 . S
H996 C1010 0.929 . S
H997 C1011 0.931 . S
H998 C1013 0.930 . S
C999 H987 0.930 . S
C999 C1000 1.399 . S
C999 C1004 1.399 . S
C1000 C999 1.399 . S
C1000 C1001 1.376 . S
C1001 H988 0.930 . S
C1001 C1000 1.376 . S
C1001 C1002 1.388 . S
C1002 H989 0.930 . S
C1002 C1001 1.388 . S
C1002 C1003 1.390 . S
C1003 C1002 1.390 . S
C1003 C1004 1.394 . S
C1003 C1009 1.465 . S
C1004 C999 1.399 . S
C1004 C1003 1.394 . S
C1004 C1005 1.516 . S
C1005 C1004 1.516 . S
C1005 C1006 1.502 . S
C1005 C1007 1.561 . S
C1005 C1008 1.526 . S
C1006 H990 0.959 . S
C1006 H991 0.959 . S
C1006 H992 0.961 . S
C1006 C1005 1.502 . S
C1007 H993 0.960 . S
C1007 H994 0.961 . S
C1007 H995 0.959 . S
C1007 C1005 1.561 . S
C1008 C1005 1.526 . S
C1008 C1009 1.396 . S
C1008 C1013 1.390 . S
C1009 C1003 1.465 . S
C1009 C1008 1.396 . S
C1009 C1010 1.399 . S
C1010 H996 0.929 . S
C1010 C1009 1.399 . S
C1010 C1011 1.385 . S
C1011 H997 0.931 . S
C1011 C1010 1.385 . S
C1011 C1012 1.389 . S
C1012 C1011 1.389 . S
C1012 C1013 1.387 . S
C1013 H998 0.930 . S
C1013 C1008 1.390 . S
C1013 C1012 1.387 . S
H1014 C1026 0.930 . S
H1015 C1028 0.930 . S
H1016 C1029 0.930 . S
H1017 C1033 0.959 . S
H1018 C1033 0.959 . S
H1019 C1033 0.961 . S
H1020 C1034 0.960 . S
H1021 C1034 0.961 . S
H1022 C1034 0.959 1_565 S
H1023 C1037 0.929 . S
H1024 C1038 0.931 . S
H1025 C1040 0.930 . S
C1026 H1014 0.930 . S
C1026 C1027 1.399 . S
C1026 C1031 1.399 . S
C1027 C1026 1.399 . S
C1027 C1028 1.376 . S
C1028 H1015 0.930 . S
C1028 C1027 1.376 . S
C1028 C1029 1.388 . S
C1029 H1016 0.930 . S
C1029 C1028 1.388 . S
C1029 C1030 1.390 . S
C1030 C1029 1.390 . S
C1030 C1031 1.394 . S
C1030 C1036 1.465 . S
C1031 C1026 1.399 . S
C1031 C1030 1.394 . S
C1031 C1032 1.516 1_565 S
C1032 C1031 1.516 1_545 S
C1032 C1033 1.502 . S
C1032 C1034 1.561 . S
C1032 C1035 1.526 . S
C1033 H1017 0.959 . S
C1033 H1018 0.959 . S
C1033 H1019 0.961 . S
C1033 C1032 1.502 . S
C1034 H1020 0.960 . S
C1034 H1021 0.961 . S
C1034 H1022 0.959 1_545 S
C1034 C1032 1.561 . S
C1035 C1032 1.526 . S
C1035 C1036 1.396 1_545 S
C1035 C1040 1.390 . S
C1036 C1030 1.465 . S
C1036 C1035 1.396 1_565 S
C1036 C1037 1.399 . S
C1037 H1023 0.929 . S
C1037 C1036 1.399 . S
C1037 C1038 1.385 1_565 S
C1038 H1024 0.931 . S
C1038 C1037 1.385 1_545 S
C1038 C1039 1.389 . S
C1039 C1038 1.389 . S
C1039 C1040 1.387 . S
C1040 H1025 0.930 . S
C1040 C1035 1.390 . S
C1040 C1039 1.387 . S
H1041 C1053 0.930 . S
H1042 C1055 0.930 . S
H1043 C1056 0.930 . S
H1044 C1060 0.959 . S
H1045 C1060 0.959 . S
H1046 C1060 0.961 1_556 S
H1047 C1061 0.960 . S
H1048 C1061 0.961 . S
H1049 C1061 0.959 . S
H1050 C1064 0.929 . S
H1051 C1065 0.931 . S
H1052 C1067 0.930 . S
C1053 H1041 0.930 . S
C1053 C1054 1.399 . S
C1053 C1058 1.399 . S
C1054 C1053 1.399 . S
C1054 C1055 1.376 . S
C1055 H1042 0.930 . S
C1055 C1054 1.376 . S
C1055 C1056 1.388 . S
C1056 H1043 0.930 . S
C1056 C1055 1.388 . S
C1056 C1057 1.390 . S
C1057 C1056 1.390 . S
C1057 C1058 1.394 . S
C1057 C1063 1.465 1_556 S
C1058 C1053 1.399 . S
C1058 C1057 1.394 . S
C1058 C1059 1.516 . S
C1059 C1058 1.516 . S
C1059 C1060 1.502 1_556 S
C1059 C1061 1.561 . S
C1059 C1062 1.526 1_556 S
C1060 H1044 0.959 . S
C1060 H1045 0.959 . S
C1060 H1046 0.961 1_554 S
C1060 C1059 1.502 1_554 S
C1061 H1047 0.960 . S
C1061 H1048 0.961 . S
C1061 H1049 0.959 . S
C1061 C1059 1.561 . S
C1062 C1059 1.526 1_554 S
C1062 C1063 1.396 . S
C1062 C1067 1.390 . S
C1063 C1057 1.465 1_554 S
C1063 C1062 1.396 . S
C1063 C1064 1.399 . S
C1064 H1050 0.929 . S
C1064 C1063 1.399 . S
C1064 C1065 1.385 . S
C1065 H1051 0.931 . S
C1065 C1064 1.385 . S
C1065 C1066 1.389 . S
C1066 C1065 1.389 . S
C1066 C1067 1.387 . S
C1067 H1052 0.930 . S
C1067 C1062 1.390 . S
C1067 C1066 1.387 . S
H1068 C1080 0.930 . S
H1069 C1082 0.930 . S
H1070 C1083 0.930 . S
H1071 C1087 0.959 . S
H1072 C1087 0.959 . S
H1073 C1087 0.961 1_455 S
H1074 C1088 0.960 . S
H1075 C1088 0.961 . S
H1076 C1088 0.959 . S
H1077 C1091 0.929 . S
H1078 C1092 0.931 . S
H1079 C1094 0.930 . S
C1080 H1068 0.930 . S
C1080 C1081 1.399 . S
C1080 C1085 1.399 . S
C1081 C1080 1.399 . S
C1081 C1082 1.376 . S
C1082 H1069 0.930 . S
C1082 C1081 1.376 . S
C1082 C1083 1.388 . S
C1083 H1070 0.930 . S
C1083 C1082 1.388 . S
C1083 C1084 1.390 . S
C1084 C1083 1.390 . S
C1084 C1085 1.394 . S
C1084 C1090 1.465 1_455 S
C1085 C1080 1.399 . S
C1085 C1084 1.394 . S
C1085 C1086 1.516 . S
C1086 C1085 1.516 . S
C1086 C1087 1.502 1_455 S
C1086 C1088 1.561 . S
C1086 C1089 1.526 1_455 S
C1087 H1071 0.959 . S
C1087 H1072 0.959 . S
C1087 H1073 0.961 1_655 S
C1087 C1086 1.502 1_655 S
C1088 H1074 0.960 . S
C1088 H1075 0.961 . S
C1088 H1076 0.959 . S
C1088 C1086 1.561 . S
C1089 C1086 1.526 1_655 S
C1089 C1090 1.396 . S
C1089 C1094 1.390 . S
C1090 C1084 1.465 1_655 S
C1090 C1089 1.396 . S
C1090 C1091 1.399 . S
C1091 H1077 0.929 . S
C1091 C1090 1.399 . S
C1091 C1092 1.385 . S
C1092 H1078 0.931 . S
C1092 C1091 1.385 . S
C1092 C1093 1.389 . S
C1093 C1092 1.389 . S
C1093 C1094 1.387 . S
C1094 H1079 0.930 . S
C1094 C1089 1.390 . S
C1094 C1093 1.387 . S
H1095 C1107 0.930 . S
H1096 C1109 0.930 . S
H1097 C1110 0.930 . S
H1098 C1114 0.959 . S
H1099 C1114 0.959 . S
H1100 C1114 0.961 . S
H1101 C1115 0.960 . S
H1102 C1115 0.961 . S
H1103 C1115 0.959 . S
H1104 C1118 0.929 . S
H1105 C1119 0.931 . S
H1106 C1121 0.930 . S
C1107 H1095 0.930 . S
C1107 C1108 1.399 . S
C1107 C1112 1.399 . S
C1108 C1107 1.399 . S
C1108 C1109 1.376 . S
C1109 H1096 0.930 . S
C1109 C1108 1.376 . S
C1109 C1110 1.388 . S
C1110 H1097 0.930 . S
C1110 C1109 1.388 . S
C1110 C1111 1.390 . S
C1111 C1110 1.390 . S
C1111 C1112 1.394 . S
C1111 C1117 1.465 . S
C1112 C1107 1.399 . S
C1112 C1111 1.394 . S
C1112 C1113 1.516 . S
C1113 C1112 1.516 . S
C1113 C1114 1.502 . S
C1113 C1115 1.561 . S
C1113 C1116 1.526 . S
C1114 H1098 0.959 . S
C1114 H1099 0.959 . S
C1114 H1100 0.961 . S
C1114 C1113 1.502 . S
C1115 H1101 0.960 . S
C1115 H1102 0.961 . S
C1115 H1103 0.959 . S
C1115 C1113 1.561 . S
C1116 C1113 1.526 . S
C1116 C1117 1.396 . S
C1116 C1121 1.390 . S
C1117 C1111 1.465 . S
C1117 C1116 1.396 . S
C1117 C1118 1.399 . S
C1118 H1104 0.929 . S
C1118 C1117 1.399 . S
C1118 C1119 1.385 . S
C1119 H1105 0.931 . S
C1119 C1118 1.385 . S
C1119 C1120 1.389 . S
C1120 C1119 1.389 . S
C1120 C1121 1.387 . S
C1121 H1106 0.930 . S
C1121 C1116 1.390 . S
C1121 C1120 1.387 . S
H1122 C1134 0.930 . S
H1123 C1136 0.930 . S
H1124 C1137 0.930 . S
H1125 C1141 0.959 . S
H1126 C1141 0.959 . S
H1127 C1141 0.961 . S
H1128 C1142 0.960 . S
H1129 C1142 0.961 . S
H1130 C1142 0.959 . S
H1131 C1145 0.929 . S
H1132 C1146 0.931 . S
H1133 C1148 0.930 . S
C1134 H1122 0.930 . S
C1134 C1135 1.399 . S
C1134 C1139 1.399 . S
C1135 C1134 1.399 . S
C1135 C1136 1.376 . S
C1136 H1123 0.930 . S
C1136 C1135 1.376 . S
C1136 C1137 1.388 . S
C1137 H1124 0.930 . S
C1137 C1136 1.388 . S
C1137 C1138 1.390 . S
C1138 C1137 1.390 . S
C1138 C1139 1.394 . S
C1138 C1144 1.465 1_655 S
C1139 C1134 1.399 . S
C1139 C1138 1.394 . S
C1139 C1140 1.516 . S
C1140 C1139 1.516 . S
C1140 C1141 1.502 1_655 S
C1140 C1142 1.561 . S
C1140 C1143 1.526 1_655 S
C1141 H1125 0.959 . S
C1141 H1126 0.959 . S
C1141 H1127 0.961 . S
C1141 C1140 1.502 1_455 S
C1142 H1128 0.960 . S
C1142 H1129 0.961 . S
C1142 H1130 0.959 . S
C1142 C1140 1.561 . S
C1143 C1140 1.526 1_455 S
C1143 C1144 1.396 . S
C1143 C1148 1.390 . S
C1144 C1138 1.465 1_455 S
C1144 C1143 1.396 . S
C1144 C1145 1.399 . S
C1145 H1131 0.929 . S
C1145 C1144 1.399 . S
C1145 C1146 1.385 . S
C1146 H1132 0.931 . S
C1146 C1145 1.385 . S
C1146 C1147 1.389 . S
C1147 C1146 1.389 . S
C1147 C1148 1.387 . S
C1148 H1133 0.930 . S
C1148 C1143 1.390 . S
C1148 C1147 1.387 . S
H1149 C1161 0.930 . S
H1150 C1163 0.930 . S
H1151 C1164 0.930 . S
H1152 C1168 0.959 . S
H1153 C1168 0.959 . S
H1154 C1168 0.961 . S
H1155 C1169 0.960 . S
H1156 C1169 0.961 . S
H1157 C1169 0.959 . S
H1158 C1172 0.929 . S
H1159 C1173 0.931 . S
H1160 C1175 0.930 . S
C1161 H1149 0.930 . S
C1161 C1162 1.399 . S
C1161 C1166 1.399 . S
C1162 C1161 1.399 . S
C1162 C1163 1.376 . S
C1163 H1150 0.930 . S
C1163 C1162 1.376 . S
C1163 C1164 1.388 . S
C1164 H1151 0.930 . S
C1164 C1163 1.388 . S
C1164 C1165 1.390 . S
C1165 C1164 1.390 . S
C1165 C1166 1.394 . S
C1165 C1171 1.465 . S
C1166 C1161 1.399 . S
C1166 C1165 1.394 . S
C1166 C1167 1.516 . S
C1167 C1166 1.516 . S
C1167 C1168 1.502 . S
C1167 C1169 1.561 . S
C1167 C1170 1.526 . S
C1168 H1152 0.959 . S
C1168 H1153 0.959 . S
C1168 H1154 0.961 . S
C1168 C1167 1.502 . S
C1169 H1155 0.960 . S
C1169 H1156 0.961 . S
C1169 H1157 0.959 . S
C1169 C1167 1.561 . S
C1170 C1167 1.526 . S
C1170 C1171 1.396 . S
C1170 C1175 1.390 . S
C1171 C1165 1.465 . S
C1171 C1170 1.396 . S
C1171 C1172 1.399 . S
C1172 H1158 0.929 . S
C1172 C1171 1.399 . S
C1172 C1173 1.385 . S
C1173 H1159 0.931 . S
C1173 C1172 1.385 . S
C1173 C1174 1.389 . S
C1174 C1173 1.389 . S
C1174 C1175 1.387 . S
C1175 H1160 0.930 . S
C1175 C1170 1.390 . S
C1175 C1174 1.387 . S
H1176 C1188 0.930 . S
H1177 C1190 0.930 . S
H1178 C1191 0.913 1_565 S
H1179 C1195 0.959 . S
H1180 C1195 0.959 . S
H1181 C1195 0.961 . S
H1182 C1196 0.960 . S
H1183 C1196 0.961 . S
H1184 C1196 0.959 . S
H1185 C1199 0.929 . S
H1186 C1200 0.931 . S
H1187 C1202 0.930 . S
C1188 H1176 0.930 . S
C1188 C1189 1.399 . S
C1188 C1193 1.399 . S
C1189 C1188 1.399 . S
C1189 C1190 1.376 . S
C1190 H1177 0.930 . S
C1190 C1189 1.376 . S
C1190 C1191 1.388 . S
C1191 H1178 0.913 1_545 S
C1191 C1190 1.388 . S
C1191 C1192 1.390 1_545 S
C1192 C1191 1.390 1_565 S
C1192 C1193 1.394 1_565 S
C1192 C1198 1.465 . S
C1193 C1188 1.399 . S
C1193 C1192 1.394 1_545 S
C1193 C1194 1.516 1_545 S
C1194 C1193 1.516 1_565 S
C1194 C1195 1.502 1_565 S
C1194 C1196 1.561 . S
C1194 C1197 1.526 . S
C1195 H1179 0.959 . S
C1195 H1180 0.959 . S
C1195 H1181 0.961 . S
C1195 C1194 1.502 1_545 S
C1196 H1182 0.960 . S
C1196 H1183 0.961 . S
C1196 H1184 0.959 . S
C1196 C1194 1.561 . S
C1197 C1194 1.526 . S
C1197 C1198 1.396 . S
C1197 C1202 1.390 . S
C1198 C1192 1.465 . S
C1198 C1197 1.396 . S
C1198 C1199 1.399 . S
C1199 H1185 0.929 . S
C1199 C1198 1.399 . S
C1199 C1200 1.385 . S
C1200 H1186 0.931 . S
C1200 C1199 1.385 . S
C1200 C1201 1.389 . S
C1201 C1200 1.389 . S
C1201 C1202 1.387 . S
C1202 H1187 0.930 . S
C1202 C1197 1.390 . S
C1202 C1201 1.387 . S
H1203 C1215 0.930 . S
H1204 C1217 0.930 . S
H1205 C1218 0.930 . S
H1206 C1222 0.959 . S
H1207 C1222 0.959 . S
H1208 C1222 0.961 . S
H1209 C1223 0.960 . S
H1210 C1223 0.961 . S
H1211 C1223 0.959 . S
H1212 C1226 0.929 . S
H1213 C1227 0.931 . S
H1214 C1229 0.930 . S
C1215 H1203 0.930 . S
C1215 C1216 1.399 . S
C1215 C1220 1.399 . S
C1216 C1215 1.399 . S
C1216 C1217 1.376 . S
C1217 H1204 0.930 . S
C1217 C1216 1.376 . S
C1217 C1218 1.388 . S
C1218 H1205 0.930 . S
C1218 C1217 1.388 . S
C1218 C1219 1.390 . S
C1219 C1218 1.390 . S
C1219 C1220 1.394 . S
C1219 C1225 1.465 . S
C1220 C1215 1.399 . S
C1220 C1219 1.394 . S
C1220 C1221 1.516 . S
C1221 C1220 1.516 . S
C1221 C1222 1.502 . S
C1221 C1223 1.561 . S
C1221 C1224 1.526 . S
C1222 H1206 0.959 . S
C1222 H1207 0.959 . S
C1222 H1208 0.961 . S
C1222 C1221 1.502 . S
C1223 H1209 0.960 . S
C1223 H1210 0.961 . S
C1223 H1211 0.959 . S
C1223 C1221 1.561 . S
C1224 C1221 1.526 . S
C1224 C1225 1.396 . S
C1224 C1229 1.390 . S
C1225 C1219 1.465 . S
C1225 C1224 1.396 . S
C1225 C1226 1.399 . S
C1226 H1212 0.929 . S
C1226 C1225 1.399 . S
C1226 C1227 1.385 . S
C1227 H1213 0.931 . S
C1227 C1226 1.385 . S
C1227 C1228 1.389 . S
C1228 C1227 1.389 . S
C1228 C1229 1.387 . S
C1229 H1214 0.930 . S
C1229 C1224 1.390 . S
C1229 C1228 1.387 . S
H1230 C1242 0.930 . S
H1231 C1244 0.930 . S
H1232 C1245 0.930 . S
H1233 C1249 0.959 . S
H1234 C1249 0.959 . S
H1235 C1249 0.961 . S
H1236 C1250 0.960 . S
H1237 C1250 0.961 . S
H1238 C1250 0.959 . S
H1239 C1253 0.929 . S
H1240 C1254 0.931 . S
H1241 C1256 0.930 . S
C1242 H1230 0.930 . S
C1242 C1243 1.399 . S
C1242 C1247 1.399 . S
C1243 C1242 1.399 . S
C1243 C1244 1.376 . S
C1244 H1231 0.930 . S
C1244 C1243 1.376 . S
C1244 C1245 1.388 . S
C1245 H1232 0.930 . S
C1245 C1244 1.388 . S
C1245 C1246 1.390 . S
C1246 C1245 1.390 . S
C1246 C1247 1.394 . S
C1246 C1252 1.481 . S
C1247 C1242 1.399 . S
C1247 C1246 1.394 . S
C1247 C1248 1.516 1_545 S
C1248 C1247 1.516 1_565 S
C1248 C1249 1.502 . S
C1248 C1250 1.561 . S
C1248 C1251 1.526 . S
C1249 H1233 0.959 . S
C1249 H1234 0.959 . S
C1249 H1235 0.961 . S
C1249 C1248 1.502 . S
C1250 H1236 0.960 . S
C1250 H1237 0.961 . S
C1250 H1238 0.959 . S
C1250 C1248 1.561 . S
C1251 C1248 1.526 . S
C1251 C1252 1.378 1_565 S
C1251 C1256 1.390 . S
C1252 C1246 1.481 . S
C1252 C1251 1.378 1_545 S
C1252 C1253 1.399 . S
C1253 H1239 0.929 . S
C1253 C1252 1.399 . S
C1253 C1254 1.385 1_545 S
C1254 H1240 0.931 . S
C1254 C1253 1.385 1_565 S
C1254 C1255 1.389 . S
C1255 C1254 1.389 . S
C1255 C1256 1.387 . S
C1256 H1241 0.930 . S
C1256 C1251 1.390 . S
C1256 C1255 1.387 . S
H1257 C1269 0.930 . S
H1258 C1271 0.930 . S
H1259 C1272 0.930 . S
H1260 C1276 0.959 . S
H1261 C1276 0.959 1_556 S
H1262 C1276 0.961 . S
H1263 C1277 0.960 . S
H1264 C1277 0.961 . S
H1265 C1277 0.959 . S
H1266 C1280 0.929 . S
H1267 C1281 0.931 . S
H1268 C1283 0.930 . S
C1269 H1257 0.930 . S
C1269 C1270 1.399 . S
C1269 C1274 1.399 . S
C1270 C1269 1.399 . S
C1270 C1271 1.376 . S
C1271 H1258 0.930 . S
C1271 C1270 1.376 . S
C1271 C1272 1.388 . S
C1272 H1259 0.930 . S
C1272 C1271 1.388 . S
C1272 C1273 1.403 . S
C1273 C1272 1.403 . S
C1273 C1274 1.399 . S
C1273 C1279 1.447 1_554 S
C1274 C1269 1.399 . S
C1274 C1273 1.399 . S
C1274 C1275 1.516 1_554 S
C1275 C1274 1.516 1_556 S
C1275 C1276 1.502 1_556 S
C1275 C1277 1.561 . S
C1275 C1278 1.526 . S
C1276 H1260 0.959 . S
C1276 H1261 0.959 1_554 S
C1276 H1262 0.961 . S
C1276 C1275 1.502 1_554 S
C1277 H1263 0.960 . S
C1277 H1264 0.961 . S
C1277 H1265 0.959 . S
C1277 C1275 1.561 . S
C1278 C1275 1.526 . S
C1278 C1279 1.396 . S
C1278 C1283 1.390 . S
C1279 C1273 1.447 1_556 S
C1279 C1278 1.396 . S
C1279 C1280 1.399 . S
C1280 H1266 0.929 . S
C1280 C1279 1.399 . S
C1280 C1281 1.385 . S
C1281 H1267 0.931 . S
C1281 C1280 1.385 . S
C1281 C1282 1.389 . S
C1282 C1281 1.389 . S
C1282 C1283 1.387 . S
C1283 H1268 0.930 . S
C1283 C1278 1.390 . S
C1283 C1282 1.387 . S
H1284 C1296 0.930 . S
H1285 C1298 0.930 . S
H1286 C1299 0.930 . S
H1287 C1303 0.959 . S
H1288 C1303 0.959 . S
H1289 C1303 0.961 . S
H1290 C1304 0.960 1_455 S
H1291 C1304 0.961 . S
H1292 C1304 0.959 . S
H1293 C1307 0.929 . S
H1294 C1308 0.931 . S
H1295 C1310 0.930 . S
C1296 H1284 0.930 . S
C1296 C1297 1.399 . S
C1296 C1301 1.399 . S
C1297 C1296 1.399 . S
C1297 C1298 1.376 . S
C1298 H1285 0.930 . S
C1298 C1297 1.376 . S
C1298 C1299 1.388 . S
C1299 H1286 0.930 . S
C1299 C1298 1.388 . S
C1299 C1300 1.390 . S
C1300 C1299 1.390 . S
C1300 C1301 1.394 . S
C1300 C1306 1.465 1_455 S
C1301 C1296 1.399 . S
C1301 C1300 1.394 . S
C1301 C1302 1.516 . S
C1302 C1301 1.516 . S
C1302 C1303 1.502 . S
C1302 C1304 1.561 1_455 S
C1302 C1305 1.526 1_455 S
C1303 H1287 0.959 . S
C1303 H1288 0.959 . S
C1303 H1289 0.961 . S
C1303 C1302 1.502 . S
C1304 H1290 0.960 1_655 S
C1304 H1291 0.961 . S
C1304 H1292 0.959 . S
C1304 C1302 1.561 1_655 S
C1305 C1302 1.526 1_655 S
C1305 C1306 1.396 . S
C1305 C1310 1.390 . S
C1306 C1300 1.465 1_655 S
C1306 C1305 1.396 . S
C1306 C1307 1.399 . S
C1307 H1293 0.929 . S
C1307 C1306 1.399 . S
C1307 C1308 1.385 . S
C1308 H1294 0.931 . S
C1308 C1307 1.385 . S
C1308 C1309 1.389 . S
C1309 C1308 1.389 . S
C1309 C1310 1.387 . S
C1310 H1295 0.930 . S
C1310 C1305 1.390 . S
C1310 C1309 1.387 . S
H1311 C1323 0.930 . S
H1312 C1325 0.930 . S
H1313 C1326 0.930 . S
H1314 C1330 0.959 . S
H1315 C1330 0.959 . S
H1316 C1330 0.961 . S
H1317 C1331 0.960 . S
H1318 C1331 0.961 . S
H1319 C1331 0.959 . S
H1320 C1334 0.929 . S
H1321 C1335 0.931 . S
H1322 C1337 0.930 . S
C1323 H1311 0.930 . S
C1323 C1324 1.399 . S
C1323 C1328 1.399 . S
C1324 C1323 1.399 . S
C1324 C1325 1.376 . S
C1325 H1312 0.930 . S
C1325 C1324 1.376 . S
C1325 C1326 1.388 . S
C1326 H1313 0.930 . S
C1326 C1325 1.388 . S
C1326 C1327 1.390 . S
C1327 C1326 1.390 . S
C1327 C1328 1.394 . S
C1327 C1333 1.465 . S
C1328 C1323 1.399 . S
C1328 C1327 1.394 . S
C1328 C1329 1.516 . S
C1329 C1328 1.516 . S
C1329 C1330 1.502 . S
C1329 C1331 1.561 . S
C1329 C1332 1.526 . S
C1330 H1314 0.959 . S
C1330 H1315 0.959 . S
C1330 H1316 0.961 . S
C1330 C1329 1.502 . S
C1331 H1317 0.960 . S
C1331 H1318 0.961 . S
C1331 H1319 0.959 . S
C1331 C1329 1.561 . S
C1332 C1329 1.526 . S
C1332 C1333 1.396 . S
C1332 C1337 1.390 . S
C1333 C1327 1.465 . S
C1333 C1332 1.396 . S
C1333 C1334 1.399 . S
C1334 H1320 0.929 . S
C1334 C1333 1.399 . S
C1334 C1335 1.385 . S
C1335 H1321 0.931 . S
C1335 C1334 1.385 . S
C1335 C1336 1.389 . S
C1336 C1335 1.389 . S
C1336 C1337 1.387 . S
C1337 H1322 0.930 . S
C1337 C1332 1.390 . S
C1337 C1336 1.387 . S
H1338 C1350 0.930 . S
H1339 C1352 0.930 . S
H1340 C1353 0.930 . S
H1341 C1357 0.959 . S
H1342 C1357 0.959 . S
H1343 C1357 0.961 . S
H1344 C1358 0.960 . S
H1345 C1358 0.961 . S
H1346 C1358 0.959 . S
H1347 C1361 0.929 . S
H1348 C1362 0.931 . S
H1349 C1364 0.930 . S
C1350 H1338 0.930 . S
C1350 C1351 1.399 . S
C1350 C1355 1.399 . S
C1351 C1350 1.399 . S
C1351 C1352 1.376 . S
C1352 H1339 0.930 . S
C1352 C1351 1.376 . S
C1352 C1353 1.388 . S
C1353 H1340 0.930 . S
C1353 C1352 1.388 . S
C1353 C1354 1.390 . S
C1354 C1353 1.390 . S
C1354 C1355 1.394 . S
C1354 C1360 1.465 1_655 S
C1355 C1350 1.399 . S
C1355 C1354 1.394 . S
C1355 C1356 1.516 1_655 S
C1356 C1355 1.516 1_455 S
C1356 C1357 1.502 . S
C1356 C1358 1.561 1_455 S
C1356 C1359 1.526 . S
C1357 H1341 0.959 . S
C1357 H1342 0.959 . S
C1357 H1343 0.961 . S
C1357 C1356 1.502 . S
C1358 H1344 0.960 . S
C1358 H1345 0.961 . S
C1358 H1346 0.959 . S
C1358 C1356 1.561 1_655 S
C1359 C1356 1.526 . S
C1359 C1360 1.396 . S
C1359 C1364 1.390 . S
C1360 C1354 1.465 1_455 S
C1360 C1359 1.396 . S
C1360 C1361 1.399 . S
C1361 H1347 0.929 . S
C1361 C1360 1.399 . S
C1361 C1362 1.385 . S
C1362 H1348 0.931 . S
C1362 C1361 1.385 . S
C1362 C1363 1.389 . S
C1363 C1362 1.389 . S
C1363 C1364 1.387 . S
C1364 H1349 0.930 . S
C1364 C1359 1.390 . S
C1364 C1363 1.387 . S
H1365 C1377 0.930 . S
H1366 C1379 0.930 . S
H1367 C1380 0.930 . S
H1368 C1384 0.959 . S
H1369 C1384 0.959 . S
H1370 C1384 0.961 . S
H1371 C1385 0.960 . S
H1372 C1385 0.961 . S
H1373 C1385 0.959 . S
H1374 C1388 0.929 . S
H1375 C1389 0.931 . S
H1376 C1391 0.930 . S
C1377 H1365 0.930 . S
C1377 C1378 1.399 . S
C1377 C1382 1.399 . S
C1378 C1377 1.399 . S
C1378 C1379 1.376 . S
C1379 H1366 0.930 . S
C1379 C1378 1.376 . S
C1379 C1380 1.388 . S
C1380 H1367 0.930 . S
C1380 C1379 1.388 . S
C1380 C1381 1.390 . S
C1381 C1380 1.390 . S
C1381 C1382 1.394 . S
C1381 C1387 1.465 . S
C1382 C1377 1.399 . S
C1382 C1381 1.394 . S
C1382 C1383 1.516 . S
C1383 C1382 1.516 . S
C1383 C1384 1.502 . S
C1383 C1385 1.561 . S
C1383 C1386 1.526 . S
C1384 H1368 0.959 . S
C1384 H1369 0.959 . S
C1384 H1370 0.961 . S
C1384 C1383 1.502 . S
C1385 H1371 0.960 . S
C1385 H1372 0.961 . S
C1385 H1373 0.959 . S
C1385 C1383 1.561 . S
C1386 C1383 1.526 . S
C1386 C1387 1.396 . S
C1386 C1391 1.390 . S
C1387 C1381 1.465 . S
C1387 C1386 1.396 . S
C1387 C1388 1.399 . S
C1388 H1374 0.929 . S
C1388 C1387 1.399 . S
C1388 C1389 1.385 . S
C1389 H1375 0.931 . S
C1389 C1388 1.385 . S
C1389 C1390 1.389 . S
C1390 C1389 1.389 . S
C1390 C1391 1.387 . S
C1391 H1376 0.930 . S
C1391 C1386 1.390 . S
C1391 C1390 1.387 . S
H1392 C1404 0.930 . S
H1393 C1406 0.930 . S
H1394 C1407 0.930 . S
H1395 C1411 0.959 . S
H1396 C1411 0.959 . S
H1397 C1411 0.961 . S
H1398 C1412 0.960 . S
H1399 C1412 0.961 . S
H1400 C1412 0.959 . S
H1401 C1415 0.929 . S
H1402 C1416 0.931 . S
H1403 C1418 0.930 . S
C1404 H1392 0.930 . S
C1404 C1405 1.399 . S
C1404 C1409 1.399 . S
C1405 C1404 1.399 . S
C1405 C1406 1.376 . S
C1406 H1393 0.930 . S
C1406 C1405 1.376 . S
C1406 C1407 1.388 . S
C1407 H1394 0.930 . S
C1407 C1406 1.388 . S
C1407 C1408 1.390 . S
C1408 C1407 1.390 . S
C1408 C1409 1.394 . S
C1408 C1414 1.465 . S
C1409 C1404 1.399 . S
C1409 C1408 1.394 . S
C1409 C1410 1.516 . S
C1410 C1409 1.516 . S
C1410 C1411 1.502 . S
C1410 C1412 1.561 . S
C1410 C1413 1.526 . S
C1411 H1395 0.959 . S
C1411 H1396 0.959 . S
C1411 H1397 0.961 . S
C1411 C1410 1.502 . S
C1412 H1398 0.960 . S
C1412 H1399 0.961 . S
C1412 H1400 0.959 . S
C1412 C1410 1.561 . S
C1413 C1410 1.526 . S
C1413 C1414 1.396 . S
C1413 C1418 1.390 . S
C1414 C1408 1.465 . S
C1414 C1413 1.396 . S
C1414 C1415 1.399 . S
C1415 H1401 0.929 . S
C1415 C1414 1.399 . S
C1415 C1416 1.385 . S
C1416 H1402 0.931 . S
C1416 C1415 1.385 . S
C1416 C1417 1.389 . S
C1417 C1416 1.389 . S
C1417 C1418 1.387 . S
C1418 H1403 0.930 . S
C1418 C1413 1.390 . S
C1418 C1417 1.387 . S
H1419 C1431 0.930 . S
H1420 C1433 0.930 . S
H1421 C1434 0.930 . S
H1422 C1438 0.959 . S
H1423 C1438 0.959 . S
H1424 C1438 0.961 . S
H1425 C1439 0.960 . S
H1426 C1439 0.961 . S
H1427 C1439 0.959 . S
H1428 C1442 0.929 . S
H1429 C1443 0.931 . S
H1430 C1445 0.930 . S
C1431 H1419 0.930 . S
C1431 C1432 1.399 . S
C1431 C1436 1.399 . S
C1432 C1431 1.399 . S
C1432 C1433 1.376 . S
C1433 H1420 0.930 . S
C1433 C1432 1.376 . S
C1433 C1434 1.388 . S
C1434 H1421 0.930 . S
C1434 C1433 1.388 . S
C1434 C1435 1.390 . S
C1435 C1434 1.390 . S
C1435 C1436 1.394 . S
C1435 C1441 1.465 1_556 S
C1436 C1431 1.399 . S
C1436 C1435 1.394 . S
C1436 C1437 1.516 . S
C1437 C1436 1.516 . S
C1437 C1438 1.502 . S
C1437 C1439 1.561 1_556 S
C1437 C1440 1.526 1_556 S
C1438 H1422 0.959 . S
C1438 H1423 0.959 . S
C1438 H1424 0.961 . S
C1438 C1437 1.502 . S
C1439 H1425 0.960 . S
C1439 H1426 0.961 . S
C1439 H1427 0.959 . S
C1439 C1437 1.561 1_554 S
C1440 C1437 1.526 1_554 S
C1440 C1441 1.396 . S
C1440 C1445 1.390 . S
C1441 C1435 1.465 1_554 S
C1441 C1440 1.396 . S
C1441 C1442 1.399 . S
C1442 H1428 0.929 . S
C1442 C1441 1.399 . S
C1442 C1443 1.385 . S
C1443 H1429 0.931 . S
C1443 C1442 1.385 . S
C1443 C1444 1.389 . S
C1444 C1443 1.389 . S
C1444 C1445 1.387 . S
C1445 H1430 0.930 . S
C1445 C1440 1.390 . S
C1445 C1444 1.387 . S
H1446 C1458 0.930 . S
H1447 C1460 0.930 . S
H1448 C1461 0.930 . S
H1449 C1465 0.959 . S
H1450 C1465 0.959 . S
H1451 C1465 0.961 . S
H1452 C1466 0.960 . S
H1453 C1466 0.961 . S
H1454 C1466 0.959 . S
H1455 C1469 0.929 . S
H1456 C1470 0.931 . S
H1457 C1472 0.930 . S
C1458 H1446 0.930 . S
C1458 C1459 1.399 . S
C1458 C1463 1.399 . S
C1459 C1458 1.399 . S
C1459 C1460 1.376 . S
C1460 H1447 0.930 . S
C1460 C1459 1.376 . S
C1460 C1461 1.388 . S
C1461 H1448 0.930 . S
C1461 C1460 1.388 . S
C1461 C1462 1.390 . S
C1462 C1461 1.390 . S
C1462 C1463 1.394 . S
C1462 C1468 1.465 . S
C1463 C1458 1.399 . S
C1463 C1462 1.394 . S
C1463 C1464 1.516 . S
C1464 C1463 1.516 . S
C1464 C1465 1.502 . S
C1464 C1466 1.561 . S
C1464 C1467 1.526 . S
C1465 H1449 0.959 . S
C1465 H1450 0.959 . S
C1465 H1451 0.961 . S
C1465 C1464 1.502 . S
C1466 H1452 0.960 . S
C1466 H1453 0.961 . S
C1466 H1454 0.959 . S
C1466 C1464 1.561 . S
C1467 C1464 1.526 . S
C1467 C1468 1.396 . S
C1467 C1472 1.390 . S
C1468 C1462 1.465 . S
C1468 C1467 1.396 . S
C1468 C1469 1.399 . S
C1469 H1455 0.929 . S
C1469 C1468 1.399 . S
C1469 C1470 1.385 . S
C1470 H1456 0.931 . S
C1470 C1469 1.385 . S
C1470 C1471 1.389 . S
C1471 C1470 1.389 . S
C1471 C1472 1.387 . S
C1472 H1457 0.930 . S
C1472 C1467 1.390 . S
C1472 C1471 1.387 . S
H1473 C1485 0.930 . S
H1474 C1487 0.930 . S
H1475 C1488 0.930 . S
H1476 C1492 0.959 . S
H1477 C1492 0.959 . S
H1478 C1492 0.961 . S
H1479 C1493 0.960 . S
H1480 C1493 0.961 . S
H1481 C1493 0.959 . S
H1482 C1496 0.929 . S
H1483 C1497 0.931 . S
H1484 C1499 0.930 . S
C1485 H1473 0.930 . S
C1485 C1486 1.399 . S
C1485 C1490 1.399 . S
C1486 C1485 1.399 . S
C1486 C1487 1.376 . S
C1487 H1474 0.930 . S
C1487 C1486 1.376 . S
C1487 C1488 1.388 . S
C1488 H1475 0.930 . S
C1488 C1487 1.388 . S
C1488 C1489 1.390 . S
C1489 C1488 1.390 . S
C1489 C1490 1.394 . S
C1489 C1495 1.465 . S
C1490 C1485 1.399 . S
C1490 C1489 1.394 . S
C1490 C1491 1.516 . S
C1491 C1490 1.516 . S
C1491 C1492 1.502 . S
C1491 C1493 1.561 . S
C1491 C1494 1.526 . S
C1492 H1476 0.959 . S
C1492 H1477 0.959 . S
C1492 H1478 0.961 . S
C1492 C1491 1.502 . S
C1493 H1479 0.960 . S
C1493 H1480 0.961 . S
C1493 H1481 0.959 . S
C1493 C1491 1.561 . S
C1494 C1491 1.526 . S
C1494 C1495 1.396 . S
C1494 C1499 1.390 . S
C1495 C1489 1.465 . S
C1495 C1494 1.396 . S
C1495 C1496 1.399 . S
C1496 H1482 0.929 . S
C1496 C1495 1.399 . S
C1496 C1497 1.385 . S
C1497 H1483 0.931 . S
C1497 C1496 1.385 . S
C1497 C1498 1.389 . S
C1498 C1497 1.389 . S
C1498 C1499 1.387 . S
C1499 H1484 0.930 . S
C1499 C1494 1.390 . S
C1499 C1498 1.387 . S
H1500 C1512 0.930 . S
H1501 C1514 0.930 . S
H1502 C1515 0.930 . S
H1503 C1519 0.959 . S
H1504 C1519 0.959 . S
H1505 C1519 0.961 . S
H1506 C1520 0.960 . S
H1507 C1520 0.961 . S
H1508 C1520 0.959 . S
H1509 C1523 0.929 . S
H1510 C1524 0.931 . S
H1511 C1526 0.930 . S
C1512 H1500 0.930 . S
C1512 C1513 1.399 . S
C1512 C1517 1.399 . S
C1513 C1512 1.399 . S
C1513 C1514 1.376 . S
C1514 H1501 0.930 . S
C1514 C1513 1.376 . S
C1514 C1515 1.388 . S
C1515 H1502 0.930 . S
C1515 C1514 1.388 . S
C1515 C1516 1.390 . S
C1516 C1515 1.390 . S
C1516 C1517 1.394 . S
C1516 C1522 1.465 . S
C1517 C1512 1.399 . S
C1517 C1516 1.394 . S
C1517 C1518 1.516 . S
C1518 C1517 1.516 . S
C1518 C1519 1.502 . S
C1518 C1520 1.561 . S
C1518 C1521 1.526 . S
C1519 H1503 0.959 . S
C1519 H1504 0.959 . S
C1519 H1505 0.961 . S
C1519 C1518 1.502 . S
C1520 H1506 0.960 . S
C1520 H1507 0.961 . S
C1520 H1508 0.959 . S
C1520 C1518 1.561 . S
C1521 C1518 1.526 . S
C1521 C1522 1.396 . S
C1521 C1526 1.390 . S
C1522 C1516 1.465 . S
C1522 C1521 1.396 . S
C1522 C1523 1.399 . S
C1523 H1509 0.929 . S
C1523 C1522 1.399 . S
C1523 C1524 1.385 . S
C1524 H1510 0.931 . S
C1524 C1523 1.385 . S
C1524 C1525 1.389 . S
C1525 C1524 1.389 . S
C1525 C1526 1.387 . S
C1526 H1511 0.930 . S
C1526 C1521 1.390 . S
C1526 C1525 1.387 . S
H1527 C1539 0.930 . S
H1528 C1541 0.930 . S
H1529 C1542 0.930 . S
H1530 C1546 0.959 . S
H1531 C1546 0.959 . S
H1532 C1546 0.961 . S
H1533 C1547 0.960 . S
H1534 C1547 0.961 . S
H1535 C1547 0.959 . S
H1536 C1550 0.929 . S
H1537 C1551 0.931 . S
H1538 C1553 0.930 . S
C1539 H1527 0.930 . S
C1539 C1540 1.399 . S
C1539 C1544 1.399 . S
C1540 C1539 1.399 . S
C1540 C1541 1.376 . S
C1541 H1528 0.930 . S
C1541 C1540 1.376 . S
C1541 C1542 1.388 1_556 S
C1542 H1529 0.930 . S
C1542 C1541 1.388 1_554 S
C1542 C1543 1.390 . S
C1543 C1542 1.390 . S
C1543 C1544 1.394 1_554 S
C1543 C1549 1.465 . S
C1544 C1539 1.399 . S
C1544 C1543 1.394 1_556 S
C1544 C1545 1.516 . S
C1545 C1544 1.516 . S
C1545 C1546 1.502 . S
C1545 C1547 1.561 . S
C1545 C1548 1.526 1_556 S
C1546 H1530 0.959 . S
C1546 H1531 0.959 . S
C1546 H1532 0.961 . S
C1546 C1545 1.502 . S
C1547 H1533 0.960 . S
C1547 H1534 0.961 . S
C1547 H1535 0.959 . S
C1547 C1545 1.561 . S
C1548 C1545 1.526 1_554 S
C1548 C1549 1.396 . S
C1548 C1553 1.390 . S
C1549 C1543 1.465 . S
C1549 C1548 1.396 . S
C1549 C1550 1.399 . S
C1550 H1536 0.929 . S
C1550 C1549 1.399 . S
C1550 C1551 1.385 . S
C1551 H1537 0.931 . S
C1551 C1550 1.385 . S
C1551 C1552 1.389 . S
C1552 C1551 1.389 . S
C1552 C1553 1.387 . S
C1553 H1538 0.930 . S
C1553 C1548 1.390 . S
C1553 C1552 1.387 . S
H1554 C1566 0.930 . S
H1555 C1568 0.930 . S
H1556 C1569 0.930 . S
H1557 C1573 0.959 . S
H1558 C1573 0.959 . S
H1559 C1573 0.961 . S
H1560 C1574 0.960 . S
H1561 C1574 0.961 . S
H1562 C1574 0.959 . S
H1563 C1577 0.929 . S
H1564 C1578 0.931 . S
H1565 C1580 0.930 . S
C1566 H1554 0.930 . S
C1566 C1567 1.399 . S
C1566 C1571 1.399 . S
C1567 C1566 1.399 . S
C1567 C1568 1.376 . S
C1568 H1555 0.930 . S
C1568 C1567 1.376 . S
C1568 C1569 1.388 . S
C1569 H1556 0.930 . S
C1569 C1568 1.388 . S
C1569 C1570 1.390 . S
C1570 C1569 1.390 . S
C1570 C1571 1.394 . S
C1570 C1576 1.465 . S
C1571 C1566 1.399 . S
C1571 C1570 1.394 . S
C1571 C1572 1.516 . S
C1572 C1571 1.516 . S
C1572 C1573 1.502 . S
C1572 C1574 1.561 . S
C1572 C1575 1.526 . S
C1573 H1557 0.959 . S
C1573 H1558 0.959 . S
C1573 H1559 0.961 . S
C1573 C1572 1.502 . S
C1574 H1560 0.960 . S
C1574 H1561 0.961 . S
C1574 H1562 0.959 . S
C1574 C1572 1.561 . S
C1575 C1572 1.526 . S
C1575 C1576 1.396 . S
C1575 C1580 1.390 . S
C1576 C1570 1.465 . S
C1576 C1575 1.396 . S
C1576 C1577 1.399 . S
C1577 H1563 0.929 . S
C1577 C1576 1.399 . S
C1577 C1578 1.385 . S
C1578 H1564 0.931 . S
C1578 C1577 1.385 . S
C1578 C1579 1.389 . S
C1579 C1578 1.389 . S
C1579 C1580 1.387 . S
C1580 H1565 0.930 . S
C1580 C1575 1.390 . S
C1580 C1579 1.387 . S
H1581 C1593 0.930 . S
H1582 C1595 0.930 . S
H1583 C1596 0.930 . S
H1584 C1600 0.959 . S
H1585 C1600 0.959 . S
H1586 C1600 0.961 . S
H1587 C1601 0.960 . S
H1588 C1601 0.961 . S
H1589 C1601 0.959 . S
H1590 C1604 0.929 . S
H1591 C1605 0.931 . S
H1592 C1607 0.930 . S
C1593 H1581 0.930 . S
C1593 C1594 1.399 . S
C1593 C1598 1.399 . S
C1594 C1593 1.399 . S
C1594 C1595 1.376 . S
C1595 H1582 0.930 . S
C1595 C1594 1.376 . S
C1595 C1596 1.388 . S
C1596 H1583 0.930 . S
C1596 C1595 1.388 . S
C1596 C1597 1.390 . S
C1597 C1596 1.390 . S
C1597 C1598 1.394 . S
C1597 C1603 1.465 . S
C1598 C1593 1.399 . S
C1598 C1597 1.394 . S
C1598 C1599 1.516 . S
C1599 C1598 1.516 . S
C1599 C1600 1.502 . S
C1599 C1601 1.561 . S
C1599 C1602 1.526 . S
C1600 H1584 0.959 . S
C1600 H1585 0.959 . S
C1600 H1586 0.961 . S
C1600 C1599 1.502 . S
C1601 H1587 0.960 . S
C1601 H1588 0.961 . S
C1601 H1589 0.959 . S
C1601 C1599 1.561 . S
C1602 C1599 1.526 . S
C1602 C1603 1.396 . S
C1602 C1607 1.390 . S
C1603 C1597 1.465 . S
C1603 C1602 1.396 . S
C1603 C1604 1.399 . S
C1604 H1590 0.929 . S
C1604 C1603 1.399 . S
C1604 C1605 1.385 . S
C1605 H1591 0.931 . S
C1605 C1604 1.385 . S
C1605 C1606 1.389 . S
C1606 C1605 1.389 . S
C1606 C1607 1.387 . S
C1607 H1592 0.930 . S
C1607 C1602 1.390 . S
C1607 C1606 1.387 . S
C541 N13 1.525 . S
C553 N497 1.596 . S
C568 N277 2.065 . S
C580 N46 2.041 . S
C595 N409 1.751 . S
C607 N68 1.820 . S
C622 N101 1.977 . S
C634 N343 1.984 . S
C649 N365 2.107 . S
C661 N35 2.077 . S
C676 N79 1.828 . S
C688 N299 1.795 . S
C703 N112 1.919 . S
C715 N431 1.966 . S
C730 N2 1.588 . S
C742 N244 1.578 . S
C757 N266 2.070 . S
C769 N134 2.077 . S
C784 N398 1.793 . S
C796 N178 1.839 . S
C811 N211 1.897 . S
C823 N332 1.964 . S
C838 N200 1.988 . S
C850 N442 1.981 . S
C865 N145 2.041 . S
C877 N376 2.062 . S
C892 N475 1.569 . S
C904 N233 1.535 . S
C919 N310 1.815 . S
C931 N167 1.782 . S
C946 N508 1.511 . S
C958 N464 1.595 . S
C973 C21 0.992 . S
C985 C51 0.987 . S
C1000 C40 1.004 . S
C1012 C87 1.016 . S
C1027 C73 1.223 . S
C1039 C106 1.232 . S
C1054 C117 1.235 . S
C1066 C7 1.198 . S
C1081 C18 0.728 . S
C1093 C183 0.726 . S
C1108 C153 0.673 . S
C1120 C120 0.662 . S
C1135 C219 0.674 . S
C1147 C54 0.661 . S
C1162 C480 0.732 . S
C1174 C84 0.731 . S
C1189 C285 0.612 . S
C1201 C238 0.614 . S
C1216 C271 1.084 . S
C1228 C304 1.074 . S
C1243 C315 1.323 . S
C1255 C348 1.321 . S
C1270 C351 0.801 . S
C1282 C249 0.826 . S
C1297 C417 0.811 . S
C1309 C252 0.792 . S
C1324 C381 1.111 . S
C1336 C337 1.107 . S
C1351 C282 1.101 . S
C1363 C436 1.107 . S
C1378 C516 0.807 . S
C1390 C318 0.795 . S
C1405 C150 0.990 . S
C1417 C483 0.993 . S
C1432 C139 0.998 . S
C1444 C186 1.015 . S
C1459 C172 1.241 . S
C1471 C205 1.215 . S
C1486 C469 1.213 . S
C1498 C216 1.227 . S
C1513 C384 0.622 . S
C1525 C502 0.628 . S
C1540 C403 1.073 . S
C1552 C370 1.060 . S
C1567 C414 1.324 . S
C1579 C447 1.320 . S
C1594 C513 0.792 . S
C1606 C450 0.827 . S
