# Generated by pormake.
# Topology wne, (6)-cn, num edge types: 1
# Building blocks:
#     Node 0, Type 0, BuildingBlock: FUNLAD_clean_sbu_0, # of connection points: 6
#     Node 1, Type 0, BuildingBlock: FUNLAD_clean_sbu_0, # of connection points: 6
#     Node 2, Type 0, BuildingBlock: FUNLAD_clean_sbu_0, # of connection points: 6
#     Node 3, Type 0, BuildingBlock: FUNLAD_clean_sbu_0, # of connection points: 6
#     Node 4, Type 0, BuildingBlock: FUNLAD_clean_sbu_0, # of connection points: 6
#     Node 5, Type 0, BuildingBlock: FUNLAD_clean_sbu_0, # of connection points: 6
#     Node 6, Type 0, BuildingBlock: FUNLAD_clean_sbu_0, # of connection points: 6
#     Node 7, Type 0, BuildingBlock: FUNLAD_clean_sbu_0, # of connection points: 6
#     Node 8, Type 0, BuildingBlock: FUNLAD_clean_sbu_0, # of connection points: 6
#     Node 9, Type 0, BuildingBlock: FUNLAD_clean_sbu_0, # of connection points: 6
#     Node 10, Type 0, BuildingBlock: FUNLAD_clean_sbu_0, # of connection points: 6
#     Node 11, Type 0, BuildingBlock: FUNLAD_clean_sbu_0, # of connection points: 6
#     Node 12, Type 0, BuildingBlock: FUNLAD_clean_sbu_0, # of connection points: 6
#     Node 13, Type 0, BuildingBlock: FUNLAD_clean_sbu_0, # of connection points: 6
#     Node 14, Type 0, BuildingBlock: FUNLAD_clean_sbu_0, # of connection points: 6
#     Node 15, Type 0, BuildingBlock: FUNLAD_clean_sbu_0, # of connection points: 6
#     Node 16, Type 0, BuildingBlock: FUNLAD_clean_sbu_0, # of connection points: 6
#     Node 17, Type 0, BuildingBlock: FUNLAD_clean_sbu_0, # of connection points: 6
#     Node 18, Type 0, BuildingBlock: FUNLAD_clean_sbu_0, # of connection points: 6
#     Node 19, Type 0, BuildingBlock: FUNLAD_clean_sbu_0, # of connection points: 6
#     Node 20, Type 0, BuildingBlock: FUNLAD_clean_sbu_0, # of connection points: 6
#     Node 21, Type 0, BuildingBlock: FUNLAD_clean_sbu_0, # of connection points: 6
#     Node 22, Type 0, BuildingBlock: FUNLAD_clean_sbu_0, # of connection points: 6
#     Node 23, Type 0, BuildingBlock: FUNLAD_clean_sbu_0, # of connection points: 6
#     Node 24, Type 0, BuildingBlock: FUNLAD_clean_sbu_0, # of connection points: 6
#     Node 25, Type 0, BuildingBlock: FUNLAD_clean_sbu_0, # of connection points: 6
#     Node 26, Type 0, BuildingBlock: FUNLAD_clean_sbu_0, # of connection points: 6
#     Node 27, Type 0, BuildingBlock: FUNLAD_clean_sbu_0, # of connection points: 6
#     Node 28, Type 0, BuildingBlock: FUNLAD_clean_sbu_0, # of connection points: 6
#     Node 29, Type 0, BuildingBlock: FUNLAD_clean_sbu_0, # of connection points: 6
#     Node 30, Type 0, BuildingBlock: FUNLAD_clean_sbu_0, # of connection points: 6
#     Node 31, Type 0, BuildingBlock: FUNLAD_clean_sbu_0, # of connection points: 6
#     Node 32, Type 0, BuildingBlock: FUNLAD_clean_sbu_0, # of connection points: 6
#     Node 33, Type 0, BuildingBlock: FUNLAD_clean_sbu_0, # of connection points: 6
#     Node 34, Type 0, BuildingBlock: FUNLAD_clean_sbu_0, # of connection points: 6
#     Node 35, Type 0, BuildingBlock: FUNLAD_clean_sbu_0, # of connection points: 6
#     Edge 36, Type (0, 0), BuildingBlock: AJUNOK_clean_linker_0, # of connection points: 2
#     Edge 37, Type (0, 0), BuildingBlock: AJUNOK_clean_linker_0, # of connection points: 2
#     Edge 38, Type (0, 0), BuildingBlock: AJUNOK_clean_linker_0, # of connection points: 2
#     Edge 39, Type (0, 0), BuildingBlock: AJUNOK_clean_linker_0, # of connection points: 2
#     Edge 40, Type (0, 0), BuildingBlock: AJUNOK_clean_linker_0, # of connection points: 2
#     Edge 41, Type (0, 0), BuildingBlock: AJUNOK_clean_linker_0, # of connection points: 2
#     Edge 42, Type (0, 0), BuildingBlock: AJUNOK_clean_linker_0, # of connection points: 2
#     Edge 43, Type (0, 0), BuildingBlock: AJUNOK_clean_linker_0, # of connection points: 2
#     Edge 44, Type (0, 0), BuildingBlock: AJUNOK_clean_linker_0, # of connection points: 2
#     Edge 45, Type (0, 0), BuildingBlock: AJUNOK_clean_linker_0, # of connection points: 2
#     Edge 46, Type (0, 0), BuildingBlock: AJUNOK_clean_linker_0, # of connection points: 2
#     Edge 47, Type (0, 0), BuildingBlock: AJUNOK_clean_linker_0, # of connection points: 2
#     Edge 48, Type (0, 0), BuildingBlock: AJUNOK_clean_linker_0, # of connection points: 2
#     Edge 49, Type (0, 0), BuildingBlock: AJUNOK_clean_linker_0, # of connection points: 2
#     Edge 50, Type (0, 0), BuildingBlock: AJUNOK_clean_linker_0, # of connection points: 2
#     Edge 51, Type (0, 0), BuildingBlock: AJUNOK_clean_linker_0, # of connection points: 2
#     Edge 52, Type (0, 0), BuildingBlock: AJUNOK_clean_linker_0, # of connection points: 2
#     Edge 53, Type (0, 0), BuildingBlock: AJUNOK_clean_linker_0, # of connection points: 2
#     Edge 54, Type (0, 0), BuildingBlock: AJUNOK_clean_linker_0, # of connection points: 2
#     Edge 55, Type (0, 0), BuildingBlock: AJUNOK_clean_linker_0, # of connection points: 2
#     Edge 56, Type (0, 0), BuildingBlock: AJUNOK_clean_linker_0, # of connection points: 2
#     Edge 57, Type (0, 0), BuildingBlock: AJUNOK_clean_linker_0, # of connection points: 2
#     Edge 58, Type (0, 0), BuildingBlock: AJUNOK_clean_linker_0, # of connection points: 2
#     Edge 59, Type (0, 0), BuildingBlock: AJUNOK_clean_linker_0, # of connection points: 2
#     Edge 60, Type (0, 0), BuildingBlock: AJUNOK_clean_linker_0, # of connection points: 2
#     Edge 61, Type (0, 0), BuildingBlock: AJUNOK_clean_linker_0, # of connection points: 2
#     Edge 62, Type (0, 0), BuildingBlock: AJUNOK_clean_linker_0, # of connection points: 2
#     Edge 63, Type (0, 0), BuildingBlock: AJUNOK_clean_linker_0, # of connection points: 2
#     Edge 64, Type (0, 0), BuildingBlock: AJUNOK_clean_linker_0, # of connection points: 2
#     Edge 65, Type (0, 0), BuildingBlock: AJUNOK_clean_linker_0, # of connection points: 2
#     Edge 66, Type (0, 0), BuildingBlock: AJUNOK_clean_linker_0, # of connection points: 2
#     Edge 67, Type (0, 0), BuildingBlock: AJUNOK_clean_linker_0, # of connection points: 2
#     Edge 68, Type (0, 0), BuildingBlock: AJUNOK_clean_linker_0, # of connection points: 2
#     Edge 69, Type (0, 0), BuildingBlock: AJUNOK_clean_linker_0, # of connection points: 2
#     Edge 70, Type (0, 0), BuildingBlock: AJUNOK_clean_linker_0, # of connection points: 2
#     Edge 71, Type (0, 0), BuildingBlock: AJUNOK_clean_linker_0, # of connection points: 2
#     Edge 72, Type (0, 0), BuildingBlock: AJUNOK_clean_linker_0, # of connection points: 2
#     Edge 73, Type (0, 0), BuildingBlock: AJUNOK_clean_linker_0, # of connection points: 2
#     Edge 74, Type (0, 0), BuildingBlock: AJUNOK_clean_linker_0, # of connection points: 2
#     Edge 75, Type (0, 0), BuildingBlock: AJUNOK_clean_linker_0, # of connection points: 2
#     Edge 76, Type (0, 0), BuildingBlock: AJUNOK_clean_linker_0, # of connection points: 2
#     Edge 77, Type (0, 0), BuildingBlock: AJUNOK_clean_linker_0, # of connection points: 2
#     Edge 78, Type (0, 0), BuildingBlock: AJUNOK_clean_linker_0, # of connection points: 2
#     Edge 79, Type (0, 0), BuildingBlock: AJUNOK_clean_linker_0, # of connection points: 2
#     Edge 80, Type (0, 0), BuildingBlock: AJUNOK_clean_linker_0, # of connection points: 2
#     Edge 81, Type (0, 0), BuildingBlock: AJUNOK_clean_linker_0, # of connection points: 2
#     Edge 82, Type (0, 0), BuildingBlock: AJUNOK_clean_linker_0, # of connection points: 2
#     Edge 83, Type (0, 0), BuildingBlock: AJUNOK_clean_linker_0, # of connection points: 2
#     Edge 84, Type (0, 0), BuildingBlock: AJUNOK_clean_linker_0, # of connection points: 2
#     Edge 85, Type (0, 0), BuildingBlock: AJUNOK_clean_linker_0, # of connection points: 2
#     Edge 86, Type (0, 0), BuildingBlock: AJUNOK_clean_linker_0, # of connection points: 2
#     Edge 87, Type (0, 0), BuildingBlock: AJUNOK_clean_linker_0, # of connection points: 2
#     Edge 88, Type (0, 0), BuildingBlock: AJUNOK_clean_linker_0, # of connection points: 2
#     Edge 89, Type (0, 0), BuildingBlock: AJUNOK_clean_linker_0, # of connection points: 2
#     Edge 90, Type (0, 0), BuildingBlock: AJUNOK_clean_linker_0, # of connection points: 2
#     Edge 91, Type (0, 0), BuildingBlock: AJUNOK_clean_linker_0, # of connection points: 2
#     Edge 92, Type (0, 0), BuildingBlock: AJUNOK_clean_linker_0, # of connection points: 2
#     Edge 93, Type (0, 0), BuildingBlock: AJUNOK_clean_linker_0, # of connection points: 2
#     Edge 94, Type (0, 0), BuildingBlock: AJUNOK_clean_linker_0, # of connection points: 2
#     Edge 95, Type (0, 0), BuildingBlock: AJUNOK_clean_linker_0, # of connection points: 2
#     Edge 96, Type (0, 0), BuildingBlock: AJUNOK_clean_linker_0, # of connection points: 2
#     Edge 97, Type (0, 0), BuildingBlock: AJUNOK_clean_linker_0, # of connection points: 2
#     Edge 98, Type (0, 0), BuildingBlock: AJUNOK_clean_linker_0, # of connection points: 2
#     Edge 99, Type (0, 0), BuildingBlock: AJUNOK_clean_linker_0, # of connection points: 2
#     Edge 100, Type (0, 0), BuildingBlock: AJUNOK_clean_linker_0, # of connection points: 2
#     Edge 101, Type (0, 0), BuildingBlock: AJUNOK_clean_linker_0, # of connection points: 2
#     Edge 102, Type (0, 0), BuildingBlock: AJUNOK_clean_linker_0, # of connection points: 2
#     Edge 103, Type (0, 0), BuildingBlock: AJUNOK_clean_linker_0, # of connection points: 2
#     Edge 104, Type (0, 0), BuildingBlock: AJUNOK_clean_linker_0, # of connection points: 2
#     Edge 105, Type (0, 0), BuildingBlock: AJUNOK_clean_linker_0, # of connection points: 2
#     Edge 106, Type (0, 0), BuildingBlock: AJUNOK_clean_linker_0, # of connection points: 2
#     Edge 107, Type (0, 0), BuildingBlock: AJUNOK_clean_linker_0, # of connection points: 2
#     Edge 108, Type (0, 0), BuildingBlock: AJUNOK_clean_linker_0, # of connection points: 2
#     Edge 109, Type (0, 0), BuildingBlock: AJUNOK_clean_linker_0, # of connection points: 2
#     Edge 110, Type (0, 0), BuildingBlock: AJUNOK_clean_linker_0, # of connection points: 2
#     Edge 111, Type (0, 0), BuildingBlock: AJUNOK_clean_linker_0, # of connection points: 2
#     Edge 112, Type (0, 0), BuildingBlock: AJUNOK_clean_linker_0, # of connection points: 2
#     Edge 113, Type (0, 0), BuildingBlock: AJUNOK_clean_linker_0, # of connection points: 2
#     Edge 114, Type (0, 0), BuildingBlock: AJUNOK_clean_linker_0, # of connection points: 2
#     Edge 115, Type (0, 0), BuildingBlock: AJUNOK_clean_linker_0, # of connection points: 2
#     Edge 116, Type (0, 0), BuildingBlock: AJUNOK_clean_linker_0, # of connection points: 2
#     Edge 117, Type (0, 0), BuildingBlock: AJUNOK_clean_linker_0, # of connection points: 2
#     Edge 118, Type (0, 0), BuildingBlock: AJUNOK_clean_linker_0, # of connection points: 2
#     Edge 119, Type (0, 0), BuildingBlock: AJUNOK_clean_linker_0, # of connection points: 2
#     Edge 120, Type (0, 0), BuildingBlock: AJUNOK_clean_linker_0, # of connection points: 2
#     Edge 121, Type (0, 0), BuildingBlock: AJUNOK_clean_linker_0, # of connection points: 2
#     Edge 122, Type (0, 0), BuildingBlock: AJUNOK_clean_linker_0, # of connection points: 2
#     Edge 123, Type (0, 0), BuildingBlock: AJUNOK_clean_linker_0, # of connection points: 2
#     Edge 124, Type (0, 0), BuildingBlock: AJUNOK_clean_linker_0, # of connection points: 2
#     Edge 125, Type (0, 0), BuildingBlock: AJUNOK_clean_linker_0, # of connection points: 2
#     Edge 126, Type (0, 0), BuildingBlock: AJUNOK_clean_linker_0, # of connection points: 2
#     Edge 127, Type (0, 0), BuildingBlock: AJUNOK_clean_linker_0, # of connection points: 2
#     Edge 128, Type (0, 0), BuildingBlock: AJUNOK_clean_linker_0, # of connection points: 2
#     Edge 129, Type (0, 0), BuildingBlock: AJUNOK_clean_linker_0, # of connection points: 2
#     Edge 130, Type (0, 0), BuildingBlock: AJUNOK_clean_linker_0, # of connection points: 2
#     Edge 131, Type (0, 0), BuildingBlock: AJUNOK_clean_linker_0, # of connection points: 2
#     Edge 132, Type (0, 0), BuildingBlock: AJUNOK_clean_linker_0, # of connection points: 2
#     Edge 133, Type (0, 0), BuildingBlock: AJUNOK_clean_linker_0, # of connection points: 2
#     Edge 134, Type (0, 0), BuildingBlock: AJUNOK_clean_linker_0, # of connection points: 2
#     Edge 135, Type (0, 0), BuildingBlock: AJUNOK_clean_linker_0, # of connection points: 2
#     Edge 136, Type (0, 0), BuildingBlock: AJUNOK_clean_linker_0, # of connection points: 2
#     Edge 137, Type (0, 0), BuildingBlock: AJUNOK_clean_linker_0, # of connection points: 2
#     Edge 138, Type (0, 0), BuildingBlock: AJUNOK_clean_linker_0, # of connection points: 2
#     Edge 139, Type (0, 0), BuildingBlock: AJUNOK_clean_linker_0, # of connection points: 2
#     Edge 140, Type (0, 0), BuildingBlock: AJUNOK_clean_linker_0, # of connection points: 2
#     Edge 141, Type (0, 0), BuildingBlock: AJUNOK_clean_linker_0, # of connection points: 2
#     Edge 142, Type (0, 0), BuildingBlock: AJUNOK_clean_linker_0, # of connection points: 2
#     Edge 143, Type (0, 0), BuildingBlock: AJUNOK_clean_linker_0, # of connection points: 2
# Relax obj value: 0.449
# Max RMSD: 0.206
# Mean RMSD: 0.205
data_MOF--net-wne--node1-FUNLAD_clean_sbu_0--edge1-AJUNOK_clean_linker_0
_symmetry_space_group_name_H-M    P1
_symmetry_Int_Tables_number       1
_symmetry_cell_setting            triclinic
loop_
_symmetry_equiv_pos_as_xyz
'x, y, z'
_cell_length_a     49.96766
_cell_length_b     50.019859
_cell_length_c     36.34612
_cell_angle_alpha  89.98499
_cell_angle_beta   89.971449
_cell_angle_gamma 120.07616
loop_
_atom_site_label
_atom_site_type_symbol
_atom_site_fract_x
_atom_site_fract_y
_atom_site_fract_z
_atom_type_partial_charge
C0 C 0.25862 0.20353 0.09207 0.0
N1 N 0.33467 0.26629 0.14918 0.0
C2 C 0.32658 0.24488 0.17627 0.0
C3 C 0.34519 0.23229 0.1835 0.0
C4 C 0.37152 0.24138 0.16182 0.0
C5 C 0.38186 0.26668 0.13824 0.0
C6 C 0.36312 0.27963 0.13306 0.0
Zn7 Zn 0.29967 0.2656 0.1206 0.0
C8 C 0.31607 0.27236 0.03924 0.0
N9 N 0.2292 0.26306 0.05389 0.0
C10 C 0.20113 0.2372 0.05857 0.0
C11 C 0.23318 0.28551 0.0297 0.0
C12 C 0.20812 0.28239 1.00918 0.0
C13 C 0.17899 0.2556 1.01307 0.0
C14 C 0.17576 0.23283 0.03809 0.0
Zn15 Zn 0.26487 0.26593 0.08381 0.0
O16 O 0.28013 0.21808 0.11502 0.0
C17 C 0.24607 0.25221 0.16515 0.0
O18 O 0.24737 0.21782 0.07507 0.0
H19 H 0.2557 0.30589 0.02651 0.0
H20 H 0.30385 0.23427 0.18852 0.0
H21 H 0.19831 0.21978 0.07826 0.0
O22 O 0.27381 0.25829 0.16847 0.0
O23 O 0.23657 0.25519 0.1337 0.0
H24 H 0.36941 0.29729 0.11232 0.0
O25 O 0.28551 0.31566 0.09156 0.0
O26 O 0.32027 0.31307 0.12588 0.0
O27 O 0.29168 0.27392 0.03462 0.0
O28 O 0.32417 0.27031 0.07162 0.0
C29 C 0.3102 0.32913 0.11074 0.0
H30 H 0.33679 0.21261 0.20186 0.0
H31 H 0.40222 0.27406 0.1213 0.0
H32 H 0.21143 0.30101 0.9911 0.0
H33 H 0.15376 0.21184 0.04197 0.0
C34 C 0.83887 0.06634 0.09149 0.0
N35 N 0.77347 0.07158 0.15613 0.0
C36 C 0.78211 0.07242 0.19187 0.0
C37 C 0.80323 0.10059 0.20754 0.0
C38 C 0.8133 0.12735 0.18653 0.0
C39 C 0.7974 0.12619 0.15437 0.0
C40 C 0.77692 0.09755 0.1396 0.0
Zn41 Zn 0.77678 0.04031 0.12236 0.0
C42 C 0.76759 0.04964 0.04326 0.0
N43 N 0.78542 0.97652 0.05341 0.0
C44 C 0.81178 0.97555 0.05956 0.0
C45 C 0.76499 0.9589 0.02685 0.0
C46 C 0.77054 0.93873 1.00582 0.0
C47 C 0.79749 0.93713 1.0121 0.0
C48 C 0.81839 0.95619 0.039 0.0
Zn49 Zn 0.77949 1.00631 0.08579 0.0
O50 O 0.82322 0.0732 0.11287 0.0
C51 C 0.79619 1.00158 0.16418 0.0
O52 O 0.82681 0.03921 0.07846 0.0
H53 H 0.74423 0.96013 0.0224 0.0
H54 H 0.77659 0.05148 0.20644 0.0
H55 H 0.82772 0.98963 0.08084 0.0
O56 O 0.79066 0.02354 0.16687 0.0
O57 O 0.79069 0.98724 0.13375 0.0
H58 H 0.76771 0.0968 0.11261 0.0
O59 O 0.73009 0.97502 0.09187 0.0
O60 O 0.73047 1.00876 0.13087 0.0
O61 O 0.77121 0.0265 0.03829 0.0
O62 O 0.76578 0.05772 0.07577 0.0
C63 C 0.7155 0.98366 0.11315 0.0
H64 H 0.81436 0.10093 0.23326 0.0
H65 H 0.80384 0.14687 0.13842 0.0
H66 H 0.75349 0.92387 0.98582 0.0
H67 H 0.83942 0.95568 0.04463 0.0
C68 C 0.9789 0.77627 0.10285 0.0
N69 N 0.97239 0.70255 0.16121 0.0
C70 C 0.97334 0.70949 0.19764 0.0
C71 C 0.94719 0.70737 0.21429 0.0
C72 C 0.91999 0.69561 0.19364 0.0
C73 C 0.9179 0.6807 0.16024 0.0
C74 C 0.94478 0.68435 0.14434 0.0
Zn75 Zn 1.00513 0.73738 0.12861 0.0
C76 C 0.9942 0.72322 0.04889 0.0
N77 N 0.06846 0.81331 0.06294 0.0
C78 C 0.07608 0.84276 0.07168 0.0
C79 C 0.08182 0.80727 0.03398 0.0
C80 C 0.10463 0.83146 1.0133 0.0
C81 C 0.11417 0.86214 0.02299 0.0
C82 C 0.0991 0.86768 0.05203 0.0
Zn83 Zn 0.03734 0.7778 0.09481 0.0
O84 O 0.97398 0.75249 0.12065 0.0
C85 C 0.04522 0.79425 0.17416 0.0
O86 O 1.00585 0.79463 0.0906 0.0
H87 H 0.07522 0.78367 0.02736 0.0
H88 H 0.99515 0.72132 0.21201 0.0
H89 H 0.06486 0.84701 0.09453 0.0
O90 O 1.02325 0.76652 0.17523 0.0
O91 O 0.0578 0.80551 0.14332 0.0
H92 H 0.94368 0.67698 0.11626 0.0
O93 O 0.06759 0.75788 0.09801 0.0
O94 O 0.03515 0.72177 0.13586 0.0
O95 O 1.01549 0.75132 0.04704 0.0
O96 O 0.98708 0.70986 0.08 0.0
C97 C 0.06032 0.73421 0.11805 0.0
H98 H 0.94929 0.71805 0.24086 0.0
H99 H 0.89667 0.67007 0.1444 0.0
H100 H 0.11523 0.82624 0.99051 0.0
H101 H 0.10583 0.89101 0.06034 0.0
C102 C 0.25079 0.28016 0.44321 0.0
N103 N 0.17659 0.22218 0.37765 0.0
C104 C 0.19797 0.24606 0.35659 0.0
C105 C 0.20053 0.24326 0.31927 0.0
C106 C 0.18166 0.21532 0.30194 0.0
C107 C 0.15998 0.19012 0.32329 0.0
C108 C 0.15752 0.19423 0.36158 0.0
Zn109 Zn 0.18126 0.24007 0.43158 0.0
C110 C 0.19335 0.20894 0.49424 0.0
N111 N 0.20969 0.29877 0.52655 0.0
C112 C 0.2319 0.32877 0.52101 0.0
C113 C 0.2046 0.28585 0.56065 0.0
C114 C 0.22364 0.3027 0.59019 0.0
C115 C 0.24828 0.33297 0.58444 0.0
C116 C 0.25169 0.34613 0.54942 0.0
Zn117 Zn 0.19485 0.27206 0.47979 0.0
O118 O 0.23081 0.25876 0.42325 0.0
C119 C 0.18706 0.30462 0.4137 0.0
O120 O 0.24155 0.29167 0.46745 0.0
H121 H 0.18725 0.26183 0.56446 0.0
H122 H 0.21361 0.26832 0.36818 0.0
H123 H 0.23644 0.33847 0.49362 0.0
O124 O 0.18003 0.27795 0.40247 0.0
O125 O 0.19347 0.3101 0.44788 0.0
H126 H 0.14064 0.17525 0.37811 0.0
O127 O 0.14667 0.25068 0.49442 0.0
O128 O 0.13084 0.21994 0.44592 0.0
O129 O 0.19817 0.2344 0.50855 0.0
O130 O 0.18373 0.20316 0.46087 0.0
C131 C 0.12448 0.22922 0.47608 0.0
H132 H 0.21792 0.26301 0.304 0.0
H133 H 0.1453 0.16785 0.31065 0.0
H134 H 0.21998 0.29168 0.61683 0.0
H135 H 0.27081 0.36891 0.54314 0.0
C136 C 0.76662 0.97979 0.44319 0.0
N137 N 0.82424 0.96238 0.37753 0.0
C138 C 0.80067 0.9605 0.3565 0.0
C139 C 0.80367 0.96582 0.31912 0.0
C140 C 0.83149 0.97409 0.3018 0.0
C141 C 0.85636 0.97696 0.32322 0.0
C142 C 0.85206 0.97054 0.36151 0.0
Zn143 Zn 0.80668 0.94963 0.43155 0.0
C144 C 0.83851 0.99379 0.492 0.0
N145 N 0.74907 0.92091 0.52785 0.0
C146 C 0.71807 0.91017 0.52677 0.0
C147 C 0.76514 0.9319 0.55977 0.0
C148 C 0.75078 0.93512 0.59111 0.0
C149 C 0.71903 0.92545 0.59055 0.0
C150 C 0.7025 0.9118 0.55801 0.0
Zn151 Zn 0.77385 0.93181 0.47913 0.0
O152 O 0.7882 0.98084 0.42379 0.0
C153 C 0.74112 0.89094 0.41357 0.0
O154 O 0.75402 0.95874 0.4671 0.0
H155 H 0.78972 0.94038 0.56039 0.0
H156 H 0.77851 0.95428 0.36819 0.0
H157 H 0.70569 0.90216 0.50106 0.0
O158 O 0.76817 0.9107 0.40332 0.0
O159 O 0.7348 0.89166 0.44763 0.0
H160 H 0.87079 0.97216 0.37809 0.0
O161 O 0.79549 0.90504 0.4937 0.0
O162 O 0.82668 0.91921 0.44572 0.0
O163 O 0.81265 0.97386 0.50633 0.0
O164 O 0.84439 0.98886 0.45922 0.0
C165 C 0.81712 0.90399 0.47613 0.0
H166 H 0.78419 0.964 0.30379 0.0
H167 H 0.87856 0.98399 0.31063 0.0
H168 H 0.76509 0.94679 0.61469 0.0
H169 H 0.67796 0.90357 0.55615 0.0
C170 C 0.06662 0.79957 0.44005 0.0
N171 N 0.08398 0.8801 0.38477 0.0
C172 C 0.05392 0.86105 0.37518 0.0
C173 C 0.04607 0.85263 0.33838 0.0
C174 C 0.06937 0.86392 0.31133 0.0
C175 C 0.09922 0.88723 0.3214 0.0
C176 C 0.10593 0.89542 0.35851 0.0
Zn177 Zn 0.09845 0.86861 0.43243 0.0
C178 C 0.05695 0.85674 0.49847 0.0
N179 N 0.1287 0.83682 0.5238 0.0
C180 C 0.13369 0.81275 0.51803 0.0
C181 C 0.12501 0.84484 0.55841 0.0
C182 C 0.12431 0.82719 0.58862 0.0
C183 C 0.12738 0.80104 0.58312 0.0
C184 C 0.13297 0.79438 0.54742 0.0
Zn185 Zn 0.11638 0.85373 0.47942 0.0
O186 O 0.0665 0.81998 0.41934 0.0
C187 C 0.15397 0.85989 0.40935 0.0
O188 O 0.0868 0.80819 0.46506 0.0
H189 H 0.12055 0.86369 0.56239 0.0
H190 H 0.03677 0.84888 0.39629 0.0
H191 H 0.13609 0.80641 0.49029 0.0
O192 O 0.13452 0.86749 0.39842 0.0
O193 O 0.1537 0.85408 0.44376 0.0
H194 H 0.12972 0.91051 0.36658 0.0
O195 O 0.14575 0.90082 0.49628 0.0
O196 O 0.13064 0.91822 0.44984 0.0
O197 O 0.07725 0.85115 0.51208 0.0
O198 O 0.06088 0.86673 0.46539 0.0
C199 C 0.14672 0.92367 0.47943 0.0
H200 H 1.02259 0.83509 0.33174 0.0
H201 H 0.11801 0.89655 0.3017 0.0
H202 H 0.11961 0.8329 0.61571 0.0
H203 H 0.13565 0.77454 0.54214 0.0
C204 C 0.7495 0.70664 0.93206 0.0
N205 N 0.82813 0.77418 0.99103 0.0
C206 C 0.82101 0.75489 1.02033 0.0
C207 C 0.84443 0.75683 0.04293 0.0
C208 C 0.87541 0.77833 0.03468 0.0
C209 C 0.882 0.7986 1.00504 0.0
C210 C 0.85784 0.79623 0.98356 0.0
Zn211 Zn 0.79407 0.77119 0.95815 0.0
C212 C 0.81429 0.7855 0.8804 0.0
N213 N 0.72235 0.76659 0.88987 0.0
C214 C 0.69727 0.76555 0.90609 0.0
C215 C 0.73048 0.77748 0.85485 0.0
C216 C 0.71986 0.796 0.83996 0.0
C217 C 0.69978 0.80163 0.86097 0.0
C218 C 0.68544 0.78325 0.89186 0.0
Zn219 Zn 0.75621 0.76806 0.92359 0.0
O220 O 0.773 0.72106 0.95302 0.0
C221 C 0.73906 0.76069 1.0027 0.0
O222 O 0.73929 0.7217 0.91483 0.0
H223 H 0.74815 0.77561 0.84008 0.0
H224 H 0.79719 0.73781 0.02596 0.0
H225 H 0.68878 0.75454 0.93235 0.0
O226 O 0.76645 0.76549 1.0055 0.0
O227 O 0.72745 0.75783 0.97095 0.0
H228 H 0.8629 0.81174 0.96055 0.0
O229 O 0.77275 0.8151 0.93267 0.0
O230 O 0.81221 0.81927 0.96398 0.0
O231 O 0.78693 0.78068 0.8788 0.0
O232 O 0.82358 0.77999 0.91044 0.0
C233 C 0.79734 0.83152 0.95078 0.0
H234 H 0.83845 0.74122 0.0661 0.0
H235 H 0.90562 0.81538 0.99777 0.0
H236 H 0.73067 0.80906 0.8152 0.0
H237 H 0.66868 0.7861 0.90775 0.0
C238 C 0.34328 0.05375 0.93208 0.0
N239 N 0.27025 0.05833 0.98742 0.0
C240 C 0.29184 0.07764 1.01195 0.0
C241 C 0.28685 0.09841 0.03227 0.0
C242 C 0.25908 0.09876 0.02788 0.0
C243 C 0.23713 0.07833 1.00263 0.0
C244 C 0.24332 0.05841 0.98238 0.0
Zn245 Zn 0.27712 0.02778 0.95803 0.0
C246 C 0.26182 0.02771 0.87876 0.0
N247 N 0.29177 0.96431 0.89835 0.0
C248 C 0.29571 0.96731 0.86122 0.0
C249 C 0.28496 0.93759 0.91577 0.0
C250 C 0.27688 0.91124 0.89545 0.0
C251 C 0.27454 0.91237 0.85712 0.0
C252 C 0.2869 0.94116 0.83969 0.0
Zn253 Zn 0.28582 0.99551 0.92701 0.0
O254 O 0.32704 0.06069 0.95284 0.0
C255 C 0.29452 0.99124 1.0065 0.0
O256 O 0.33018 0.02844 0.91474 0.0
H257 H 0.28176 0.93537 0.94519 0.0
H258 H 0.31304 0.0771 1.01556 0.0
H259 H 0.30205 0.98905 0.84801 0.0
O260 O 0.28508 1.01052 1.00721 0.0
O261 O 0.30118 0.98396 0.97583 0.0
H262 H 0.22656 0.04302 0.96255 0.0
O263 O 0.24136 0.96109 0.93987 0.0
O264 O 0.22918 0.99336 0.96487 0.0
O265 O 0.26841 1.00627 0.87921 0.0
O266 O 0.26631 0.04358 0.90785 0.0
C267 C 0.22189 0.96586 0.95646 0.0
H268 H 0.30487 0.11447 0.05053 0.0
H269 H 0.21546 0.0779 0.99836 0.0
H270 H 0.2674 0.88944 0.91 0.0
H271 H 0.28559 0.94277 0.81008 0.0
C272 C 0.9991 0.30593 0.93346 0.0
N273 N 0.98537 0.22408 0.98503 0.0
C274 C 0.96811 0.22761 1.01149 0.0
C275 C 0.94569 0.2019 0.03075 0.0
C276 C 0.94123 0.1725 0.0226 0.0
C277 C 0.96003 0.16976 0.99598 0.0
C278 C 0.98183 0.1959 0.97721 0.0
Zn279 Zn 1.01785 0.26066 0.95596 0.0
C280 C 1.01197 0.24557 0.87414 0.0
N281 N 0.0871 0.33519 0.89174 0.0
C282 C 0.08707 0.33377 0.85427 0.0
C283 C 0.11279 0.35663 0.90996 0.0
C284 C 0.141 0.37192 0.89197 0.0
C285 C 0.14252 0.36507 0.85498 0.0
C286 C 0.11494 0.34867 0.83508 0.0
Zn287 Zn 0.05331 0.2984 0.92125 0.0
O288 O 0.98863 0.28088 0.9517 0.0
C289 C 0.06208 0.31105 1.00277 0.0
O290 O 1.02506 0.31702 0.91747 0.0
H291 H 0.11285 0.35966 0.9392 0.0
H292 H 0.97153 0.25031 1.01739 0.0
H293 H 0.06626 0.31858 0.83934 0.0
O294 O 0.03721 0.28534 1.00616 0.0
O295 O 0.07168 0.32171 0.97089 0.0
H296 H 0.99586 0.19361 0.95618 0.0
O297 O 0.08278 0.28024 0.92584 0.0
O298 O 0.04863 0.24338 0.96117 0.0
O299 O 0.03466 0.27291 0.87299 0.0
O300 O 0.99935 0.23449 0.90512 0.0
C301 C 0.07518 0.25693 0.94618 0.0
H302 H 0.93152 0.20484 0.05109 0.0
H303 H 0.95768 0.14755 0.98946 0.0
H304 H 0.16167 0.3849 0.90839 0.0
H305 H 0.11526 0.34382 0.80608 0.0
C306 C 0.93438 0.80978 0.57074 0.0
N307 N 0.8497 0.74022 0.51941 0.0
C308 C 0.85708 0.75322 0.48531 0.0
C309 C 0.84008 0.73643 0.4545 0.0
C310 C 0.81504 0.70617 0.45891 0.0
C311 C 0.80915 0.69299 0.49422 0.0
C312 C 0.82702 0.71029 0.52398 0.0
Zn313 Zn 0.86344 0.76685 0.56633 0.0
C314 C 0.8709 0.73489 0.6336 0.0
N315 N 0.88192 0.81771 0.66748 0.0
C316 C 0.90205 0.84529 0.68364 0.0
C317 C 0.85981 0.79435 0.68845 0.0
C318 C 0.85737 0.79736 0.72575 0.0
C319 C 0.87725 0.82498 0.74316 0.0
C320 C 0.89987 0.84959 0.72194 0.0
Zn321 Zn 0.87746 0.79952 0.61379 0.0
O322 O 0.91209 0.78834 0.55245 0.0
C323 C 0.86539 0.83044 0.55115 0.0
O324 O 0.928 0.81935 0.60062 0.0
H325 H 0.8438 0.77219 0.67688 0.0
H326 H 0.87481 0.77719 0.48226 0.0
H327 H 0.91969 0.86377 0.66721 0.0
O328 O 0.86017 0.8048 0.5368 0.0
O329 O 0.87571 0.83636 0.5842 0.0
H330 H 0.82087 0.70053 0.55131 0.0
O331 O 0.8277 0.78107 0.62093 0.0
O332 O 0.81646 0.74714 0.57782 0.0
O333 O 0.87793 0.76184 0.64358 0.0
O334 O 0.8644 0.72854 0.5995 0.0
C335 C 0.80747 0.75937 0.60146 0.0
H336 H 0.84565 0.74748 0.42776 0.0
H337 H 0.78962 0.67023 0.49946 0.0
H338 H 0.83948 0.77798 0.74102 0.0
H339 H 0.91544 0.87158 0.73465 0.0
C340 C 0.24201 0.13572 0.56808 0.0
N341 N 0.31037 0.12023 0.51505 0.0
C342 C 0.29556 0.11362 0.48202 0.0
C343 C 0.30985 0.11046 0.45042 0.0
C344 C 0.33931 0.11335 0.45308 0.0
C345 C 0.35488 0.12273 0.48696 0.0
C346 C 0.34009 0.12634 0.51752 0.0
Zn347 Zn 0.28557 0.10879 0.56339 0.0
C348 C 0.31916 0.15024 0.62893 0.0
N349 N 0.23688 0.07679 0.66634 0.0
C350 C 0.20777 0.06292 0.681 0.0
C351 C 0.26122 0.08112 0.68783 0.0
C352 C 0.2576 0.07269 0.7244 0.0
C353 C 0.22839 0.05818 0.74014 0.0
C354 C 0.20291 0.05305 0.71827 0.0
Zn355 Zn 0.25432 0.09097 0.6124 0.0
O356 O 0.26364 0.13529 0.54978 0.0
C357 C 0.22219 0.04641 0.55147 0.0
O358 O 0.23294 0.12016 0.59835 0.0
H359 H 0.28412 0.09019 0.67672 0.0
H360 H 0.27188 0.10864 0.4806 0.0
H361 H 0.18834 0.05863 0.66383 0.0
O362 O 0.24702 0.067 0.53574 0.0
O363 O 0.21742 0.0511 0.58484 0.0
H364 H 0.35139 0.13116 0.54402 0.0
O365 O 0.27418 0.06129 0.62069 0.0
O366 O 0.30546 0.08195 0.57455 0.0
O367 O 0.29223 0.13083 0.63993 0.0
O368 O 0.3249 0.14886 0.59482 0.0
C369 C 0.29466 0.06189 0.59965 0.0
H370 H 0.2974 0.10458 0.42461 0.0
H371 H 0.37756 0.12531 0.49059 0.0
H372 H 0.27766 0.07631 0.74 0.0
H373 H 0.17974 0.04119 0.72956 0.0
C374 C 0.91314 0.11499 0.56736 0.0
N375 N 0.93095 0.20082 0.52076 0.0
C376 C 0.93979 0.19489 0.48781 0.0
C377 C 0.94299 0.21296 0.4571 0.0
C378 C 0.93506 0.23624 0.45928 0.0
C379 C 0.92366 0.24022 0.49304 0.0
C380 C 0.92225 0.22255 0.52369 0.0
Zn381 Zn 0.94236 0.18492 0.56704 0.0
C382 C 0.90439 0.17887 0.63567 0.0
N383 N 0.97467 0.15997 0.6629 0.0
C384 C 0.95231 0.14463 0.68874 0.0
C385 C 1.0045 0.17931 0.67316 0.0
C386 C 1.01167 0.18779 0.71007 0.0
C387 C 0.98794 0.17633 0.7366 0.0
C388 C 0.95834 0.15289 0.72594 0.0
Zn389 Zn 0.96079 0.17044 0.61393 0.0
O390 O 0.91423 0.13775 0.55022 0.0
C391 C 1.00273 0.18203 0.54975 0.0
O392 O 0.92871 0.12049 0.59739 0.0
H393 H 1.02199 0.19149 0.65239 0.0
H394 H 0.94658 0.17756 0.48578 0.0
H395 H 0.92869 0.12935 0.68016 0.0
O396 O 0.98273 0.18818 0.53657 0.0
O397 O 0.99857 0.17148 0.58254 0.0
H398 H 0.91595 0.22749 0.55024 0.0
O399 O 0.99281 0.21957 0.62531 0.0
O400 O 0.97048 0.23057 0.58107 0.0
O401 O 0.92448 0.17218 0.64666 0.0
O402 O 0.90405 0.18396 0.60111 0.0
C403 C 0.99175 0.2396 0.60474 0.0
H404 H 0.95317 0.20956 0.43258 0.0
H405 H 0.91692 0.25756 0.49619 0.0
H406 H 0.03499 0.20544 0.71718 0.0
H407 H 0.93924 0.14342 0.74521 0.0
C408 C 0.93398 0.54386 0.43063 0.0
N409 N 1.00362 0.61011 0.49562 0.0
C410 C 0.99338 0.59663 0.52922 0.0
C411 C 1.00328 0.57718 0.54302 0.0
C412 C 1.02468 0.57318 0.52253 0.0
C413 C 0.04118 0.59427 0.49439 0.0
C414 C 0.03007 0.61297 0.48116 0.0
Zn415 Zn 0.97034 0.6064 0.45889 0.0
C416 C 0.99127 0.61352 0.3802 0.0
N417 N 0.90049 0.59767 0.38488 0.0
C418 C 0.8734 0.57046 0.3881 0.0
C419 C 0.90372 0.61953 0.3602 0.0
C420 C 0.8786 0.61476 0.33848 0.0
C421 C 0.85026 0.58693 0.34169 0.0
C422 C 0.84819 0.56438 0.36626 0.0
Zn423 Zn 0.93497 0.60392 0.4198 0.0
O424 O 0.95517 0.55899 0.45384 0.0
C425 C 0.91125 0.5897 0.49761 0.0
O426 O 0.92103 0.55681 0.41442 0.0
H427 H 0.92545 0.64101 0.3581 0.0
H428 H 0.97445 0.59689 0.543 0.0
H429 H 0.87091 0.55354 0.40831 0.0
O430 O 0.93896 0.59625 0.50209 0.0
O431 O 0.9027 0.59302 0.46581 0.0
H432 H 0.04 0.62609 0.45635 0.0
O433 O 0.9525 0.65303 0.42404 0.0
O434 O 0.98665 0.65372 0.46269 0.0
O435 O 0.96542 0.61194 0.37415 0.0
O436 O 0.99961 0.61379 0.41323 0.0
C437 C 0.97631 0.6682 0.44425 0.0
H438 H 0.99105 0.56229 0.56609 0.0
H439 H 0.05926 0.593 0.4794 0.0
H440 H 0.88109 0.63315 0.32059 0.0
H441 H 0.82691 0.54255 0.36952 0.0
C442 C 0.5081 0.39785 0.43481 0.0
N443 N 0.44103 0.40737 0.48937 0.0
C444 C 0.46063 0.41927 0.51841 0.0
C445 C 0.47042 0.4491 0.52986 0.0
C446 C 0.46098 0.46689 0.50997 0.0
C447 C 0.43712 0.45273 0.48424 0.0
C448 C 0.42676 0.4221 0.47483 0.0
Zn449 Zn 0.44385 0.37515 0.4591 0.0
C450 C 0.43977 0.38597 0.37882 0.0
N451 N 0.45104 0.3096 0.39342 0.0
C452 C 0.4727 0.30193 0.40282 0.0
C453 C 0.43217 0.29661 0.36395 0.0
C454 C 0.43403 0.27418 0.34325 0.0
C455 C 0.45511 0.26472 0.35352 0.0
C456 C 0.47508 0.27932 0.38317 0.0
Zn457 Zn 0.44732 0.34115 0.42429 0.0
O458 O 0.49135 0.40529 0.45331 0.0
C459 C 0.45572 0.33312 0.50478 0.0
O460 O 0.49598 0.37096 0.42087 0.0
H461 H 0.41537 0.30336 0.35682 0.0
H462 H 0.47205 0.40762 0.52955 0.0
H463 H 0.48776 0.31293 0.42607 0.0
O464 O 0.45213 0.3564 0.50659 0.0
O465 O 0.45286 0.32006 0.47387 0.0
H466 H 0.41033 0.41171 0.45264 0.0
O467 O 0.3971 0.31248 0.42637 0.0
O468 O 0.39699 0.34653 0.46423 0.0
O469 O 0.444 0.3631 0.3756 0.0
O470 O 0.43714 0.3947 0.41063 0.0
C471 C 0.38218 0.32173 0.44606 0.0
H472 H 0.48897 0.45958 0.54985 0.0
H473 H 0.42935 0.46605 0.46869 0.0
H474 H 0.41868 0.26381 0.32 0.0
H475 H 0.49156 0.27254 0.39189 0.0
C476 C 0.64705 0.11556 0.4305 0.0
N477 N 0.64101 0.0415 0.48721 0.0
C478 C 0.62893 0.0484 0.51675 0.0
C479 C 0.59921 0.02767 0.52829 0.0
C480 C 0.58166 1.00061 0.50791 0.0
C481 C 0.59622 0.99163 0.48188 0.0
C482 C 0.62676 1.01256 0.47244 0.0
Zn483 Zn 0.67235 0.07731 0.4565 0.0
C484 C 0.66287 0.06111 0.37618 0.0
N485 N 0.73644 0.15083 0.38919 0.0
C486 C 0.73778 0.17838 0.39458 0.0
C487 C 0.75413 0.14751 0.36318 0.0
C488 C 0.77466 0.1728 0.34183 0.0
C489 C 0.77648 0.20154 0.34694 0.0
C490 C 0.75741 0.20398 0.37343 0.0
Zn491 Zn 0.70605 0.11475 0.42075 0.0
O492 O 0.6406 0.09251 0.45074 0.0
C493 C 0.71198 0.1333 0.50084 0.0
O494 O 0.67352 0.1301 0.41542 0.0
H495 H 0.7526 0.12534 0.35931 0.0
H496 H 0.64025 0.07134 0.52827 0.0
H497 H 0.7237 0.18065 0.41555 0.0
O498 O 0.69045 0.10541 0.50348 0.0
O499 O 0.72494 0.14324 0.46973 0.0
H500 H 0.63734 1.00704 0.45 0.0
O501 O 0.73715 0.09589 0.42502 0.0
O502 O 0.70252 0.06095 0.46187 0.0
O503 O 0.68602 0.08808 0.37256 0.0
O504 O 0.65346 0.05049 0.40817 0.0
C505 C 0.72789 0.07166 0.44468 0.0
H506 H 0.58851 0.03521 0.54862 0.0
H507 H 0.58317 0.97068 0.46598 0.0
H508 H 0.78954 0.17006 0.32241 0.0
H509 H 0.75802 0.22565 0.37824 0.0
C510 C 0.91808 0.61632 0.77956 0.0
N511 N 0.844 0.55991 0.71169 0.0
C512 C 0.86597 0.58374 0.69109 0.0
C513 C 0.86828 0.58149 0.65354 0.0
C514 C 0.84842 0.55418 0.63549 0.0
C515 C 0.82623 0.529 0.65645 0.0
C516 C 0.8241 0.53254 0.69495 0.0
Zn517 Zn 0.84823 0.57689 0.76617 0.0
C518 C 0.85926 0.54418 0.82778 0.0
N519 N 0.87554 0.63325 0.86359 0.0
C520 C 0.89834 0.66335 0.86113 0.0
C521 C 0.86752 0.61854 0.89673 0.0
C522 C 0.88401 0.6336 0.92859 0.0
C523 C 0.90902 0.66404 0.92635 0.0
C524 C 0.91552 0.67911 0.89212 0.0
Zn525 Zn 0.86219 0.60825 0.81519 0.0
O526 O 0.89793 0.59552 0.75902 0.0
C527 C 0.8556 0.6421 0.74918 0.0
O528 O 0.90907 0.62775 0.80422 0.0
H529 H 0.84966 0.59449 0.89814 0.0
H530 H 0.88204 0.60563 0.70324 0.0
H531 H 0.905 0.67447 0.83453 0.0
O532 O 0.848 0.61529 0.73792 0.0
O533 O 0.86206 0.64746 0.78347 0.0
H534 H 0.80667 0.51364 0.71109 0.0
O535 O 0.81368 0.58689 0.82854 0.0
O536 O 0.7977 0.55683 0.77952 0.0
O537 O 0.86451 0.5695 0.84297 0.0
O538 O 0.84963 0.53923 0.79442 0.0
C539 C 0.79141 0.56581 0.80993 0.0
H540 H 0.88611 0.60117 0.63864 0.0
H541 H 0.81078 0.50717 0.64332 0.0
H542 H 0.87803 0.62114 0.95444 0.0
H543 H 0.93499 0.70223 0.88869 0.0
C544 C 0.44067 0.31716 0.77354 0.0
N545 N 0.50364 0.29992 0.71722 0.0
C546 C 0.51172 0.32886 0.7056 0.0
C547 C 0.50988 0.33453 0.66828 0.0
C548 C 0.50068 0.31048 0.64249 0.0
C549 C 0.49795 0.28252 0.65476 0.0
C550 C 0.49938 0.27764 0.69252 0.0
Zn551 Zn 0.47797 0.28548 0.76517 0.0
C552 C 0.50729 0.32703 0.8313 0.0
N553 N 0.41592 0.25473 0.85673 0.0
C554 C 0.38644 0.24867 0.85115 0.0
C555 C 0.42802 0.25935 0.89122 0.0
C556 C 0.41098 0.25983 0.92146 0.0
C557 C 0.38108 0.25523 0.91625 0.0
C558 C 0.36856 0.24884 0.88064 0.0
Zn559 Zn 0.44514 0.26736 0.81223 0.0
O560 O 0.46093 0.31709 0.75251 0.0
C561 C 0.41405 0.22982 0.74196 0.0
O562 O 0.42873 0.29671 0.79821 0.0
H563 H 0.45164 0.26465 0.89506 0.0
H564 H 0.51523 0.3464 0.7255 0.0
H565 H 0.37743 0.24569 0.82348 0.0
O566 O 0.44113 0.24938 0.73107 0.0
O567 O 0.40836 0.23003 0.77635 0.0
H568 H 0.49297 0.25472 0.70216 0.0
O569 O 0.46344 0.23827 0.82906 0.0
O570 O 0.49565 0.25355 0.78222 0.0
O571 O 0.4814 0.30649 0.84476 0.0
O572 O 0.5136 0.32329 0.79823 0.0
C573 C 0.48519 0.23734 0.81175 0.0
H574 H 0.51268 0.35667 0.66044 0.0
H575 H 0.49246 0.26377 0.63582 0.0
H576 H 0.42177 0.26538 0.94834 0.0
H577 H 0.34554 0.24498 0.87548 0.0
C578 C 0.73576 0.13034 0.77967 0.0
N579 N 0.75281 0.20439 0.71324 0.0
C580 C 0.75517 0.18284 0.6925 0.0
C581 C 0.74921 0.17965 0.65529 0.0
C582 C 0.73954 0.19797 0.63781 0.0
C583 C 0.73634 0.21994 0.65882 0.0
C584 C 0.74353 0.22306 0.69697 0.0
Zn585 Zn 0.76606 0.2001 0.76735 0.0
C586 C 0.72198 0.18766 0.8289 0.0
N587 N 0.79583 0.17165 0.86253 0.0
C588 C 0.80373 0.14939 0.85866 0.0
C589 C 0.78824 0.17806 0.89605 0.0
C590 C 0.78639 0.16034 0.92679 0.0
C591 C 0.79228 0.13579 0.92286 0.0
C592 C 0.80196 0.13103 0.88853 0.0
Zn593 Zn 0.78418 0.18598 0.81523 0.0
O594 O 0.73472 0.15049 0.75963 0.0
C595 C 0.82498 0.19383 0.7493 0.0
O596 O 0.75704 0.13921 0.80321 0.0
H597 H 0.78148 0.19541 0.89849 0.0
H598 H 0.76196 0.16742 0.70435 0.0
H599 H 0.80901 0.14407 0.83173 0.0
O600 O 0.80517 0.20088 0.73872 0.0
O601 O 0.82423 0.18721 0.78344 0.0
H602 H 0.74143 0.24 0.71328 0.0
O603 O 0.81103 0.23451 0.82989 0.0
O604 O 0.7965 0.25063 0.7814 0.0
O605 O 0.74228 0.18242 0.84357 0.0
O606 O 0.72677 0.19809 0.79588 0.0
C607 C 0.8119 0.25686 0.81175 0.0
H608 H 0.75147 0.16214 0.64026 0.0
H609 H 0.72831 0.23421 0.6461 0.0
H610 H 0.7786 0.16457 0.95282 0.0
H611 H 0.8069 0.11248 0.8845 0.0
C612 C 0.41612 0.03686 0.26109 0.0
N613 N 0.49149 0.10651 0.32387 0.0
C614 C 0.48775 0.08395 0.34776 0.0
C615 C 0.51259 0.08774 0.36934 0.0
C616 C 0.54124 0.11529 0.36679 0.0
C617 C 0.54402 0.1384 0.34262 0.0
C618 C 0.51896 0.13335 0.32102 0.0
Zn619 Zn 0.45672 0.10187 0.29042 0.0
C620 C 0.47821 0.11934 0.21377 0.0
N621 N 0.38475 0.09355 0.22178 0.0
C622 C 0.36671 0.10408 0.23639 0.0
C623 C 0.39078 0.09565 0.18499 0.0
C624 C 0.38603 0.11606 0.16365 0.0
C625 C 0.37336 0.13225 0.18058 0.0
C626 C 0.36048 0.12364 0.2158 0.0
Zn627 Zn 0.41797 0.09555 0.25581 0.0
O628 O 0.43832 0.05201 0.28363 0.0
C629 C 0.39913 0.08514 0.33337 0.0
O630 O 0.40534 0.05096 0.24297 0.0
H631 H 0.40396 0.08585 0.17358 0.0
H632 H 0.46571 0.06278 0.34956 0.0
H633 H 0.36176 0.10204 0.26549 0.0
O634 O 0.42755 0.09327 0.33648 0.0
O635 O 0.38704 0.0801 0.30153 0.0
H636 H 0.52171 0.15086 0.30152 0.0
O637 O 0.42928 0.13996 0.26915 0.0
O638 O 0.47149 0.14974 0.29832 0.0
O639 O 0.45049 0.11359 0.21183 0.0
O640 O 0.48739 0.1134 0.24365 0.0
C641 C 0.45269 0.15825 0.28779 0.0
H642 H 0.50961 0.06891 0.38681 0.0
H643 H 0.5656 0.16002 0.33983 0.0
H644 H 0.39564 0.12196 0.13615 0.0
H645 H 0.3501 0.13562 0.22919 0.0
C646 C 1.00764 0.38506 0.2674 0.0
N647 N 0.93953 0.39436 0.32691 0.0
C648 C 0.96005 0.41012 0.35423 0.0
C649 C 0.95676 0.43171 0.37522 0.0
C650 C 0.93229 0.43703 0.3676 0.0
C651 C 0.91066 0.41931 0.34059 0.0
C652 C 0.9148 0.3981 0.32039 0.0
Zn653 Zn 0.94392 0.36418 0.29383 0.0
C654 C 0.93011 0.37234 0.2142 0.0
N655 N 0.94755 0.29928 0.22237 0.0
C656 C 0.96057 0.28308 0.23606 0.0
C657 C 0.92914 0.28938 0.19207 0.0
C658 C 0.91874 0.2599 0.17867 0.0
C659 C 0.92637 0.24042 0.19788 0.0
C660 C 0.9496 0.25278 0.2246 0.0
Zn661 Zn 0.94488 0.33067 0.25524 0.0
O662 O 0.99351 0.39466 0.288 0.0
C663 C 0.95237 0.31834 0.3352 0.0
O664 O 0.99221 0.3597 0.25037 0.0
H665 H 0.919 0.30228 0.18114 0.0
H666 H 0.97933 0.40646 0.35915 0.0
H667 H 0.97632 0.2919 0.25908 0.0
O668 O 0.95181 0.34313 0.34089 0.0
O669 O 0.95113 0.30936 0.30231 0.0
H670 H 0.89854 0.3851 0.29883 0.0
O671 O 0.89735 0.30048 0.26052 0.0
O672 O 0.89605 0.33247 0.30055 0.0
O673 O 0.93628 0.35091 0.2097 0.0
O674 O 0.93348 0.38426 0.24601 0.0
C675 C 0.88232 0.30694 0.2834 0.0
H676 H 0.97382 0.44496 0.39594 0.0
H677 H 0.89136 0.42267 0.33428 0.0
H678 H 0.9008 0.25086 0.15784 0.0
H679 H 0.95602 0.23815 0.23968 0.0
C680 C 0.66413 0.63281 0.27012 0.0
N681 N 0.65406 0.55274 0.32555 0.0
C682 C 0.63507 0.55618 0.34949 0.0
C683 C 0.61398 0.53123 0.3709 0.0
C684 C 0.61306 0.5027 0.36844 0.0
C685 C 0.63335 0.5001 0.34392 0.0
C686 C 0.65334 0.52528 0.32232 0.0
Zn687 Zn 0.68513 0.5888 0.29386 0.0
C688 C 0.6793 0.57055 0.214 0.0
N689 N 0.75147 0.66234 0.22775 0.0
C690 C 0.76666 0.69104 0.24315 0.0
C691 C 0.76321 0.65524 0.19802 0.0
C692 C 0.79336 0.67516 0.18701 0.0
C693 C 0.81156 0.70178 0.20783 0.0
C694 C 0.79751 0.71118 0.23409 0.0
Zn695 Zn 0.71932 0.62656 0.25834 0.0
O696 O 0.65457 0.60829 0.28934 0.0
C697 C 0.72913 0.64195 0.3389 0.0
O698 O 0.68974 0.64374 0.25337 0.0
H699 H 0.7511 0.63257 0.1859 0.0
H700 H 0.636 0.57819 0.35172 0.0
H701 H 0.75646 0.69684 0.26575 0.0
O702 O 0.70544 0.61527 0.34214 0.0
O703 O 0.73871 0.65291 0.30705 0.0
H704 H 0.66822 0.52273 0.3028 0.0
O705 O 0.7501 0.61039 0.2634 0.0
O706 O 0.71727 0.57282 0.29884 0.0
O707 O 0.70073 0.59851 0.21124 0.0
O708 O 0.66618 0.56055 0.245 0.0
C709 C 0.74349 0.58705 0.28311 0.0
H710 H 0.5981 0.53414 0.38841 0.0
H711 H 0.63357 0.47866 0.34108 0.0
H712 H 0.80366 0.66731 0.16653 0.0
H713 H 0.81107 0.7318 0.25037 0.0
C714 C 0.59961 0.1401 0.90306 0.0
N715 N 0.51401 0.07179 0.85246 0.0
C716 C 0.52299 0.08536 0.8188 0.0
C717 C 0.5058 0.07026 0.78735 0.0
C718 C 0.47856 0.04134 0.79073 0.0
C719 C 0.47134 0.02708 0.82549 0.0
C720 C 0.48957 0.04258 0.85592 0.0
Zn721 Zn 0.5285 0.09783 0.89988 0.0
C722 C 0.53581 0.06514 0.96646 0.0
N723 N 0.54812 0.14888 1.00124 0.0
C724 C 0.56701 0.17704 1.01696 0.0
C725 C 0.52649 0.12529 0.02241 0.0
C726 C 0.52333 0.12867 0.05948 0.0
C727 C 0.5419 0.15689 0.07641 0.0
C728 C 0.56407 0.18169 0.05498 0.0
Zn729 Zn 0.5433 0.13063 0.94744 0.0
O730 O 0.57698 0.11821 0.88569 0.0
C731 C 0.53174 0.16196 0.88505 0.0
O732 O 0.59379 0.15023 0.9329 0.0
H733 H 0.51096 0.10291 1.01101 0.0
H734 H 0.54232 0.10866 0.81657 0.0
H735 H 0.58402 0.19582 1.0003 0.0
O736 O 0.52653 0.13633 0.87081 0.0
O737 O 0.54148 0.16775 0.91833 0.0
H738 H 0.48252 0.03223 0.88288 0.0
O739 O 0.49381 0.11285 0.95575 0.0
O740 O 0.48159 0.07963 0.91149 0.0
O741 O 0.54384 0.09238 0.97652 0.0
O742 O 0.52835 0.05873 0.93255 0.0
C743 C 0.47325 0.09209 0.93563 0.0
H744 H 0.51322 0.08169 0.76097 0.0
H745 H 0.45071 1.00488 0.82975 0.0
H746 H 0.50575 0.10915 0.07487 0.0
H747 H 0.57861 0.20413 0.0673 0.0
C748 C 0.9055 0.46903 0.90201 0.0
N749 N 0.9741 0.45318 0.8501 0.0
C750 C 0.95904 0.4433 0.81737 0.0
C751 C 0.97408 0.43985 0.78678 0.0
C752 C 1.00501 0.44692 0.78977 0.0
C753 C 1.02079 0.46002 0.82277 0.0
C754 C 1.00478 0.46267 0.85279 0.0
Zn755 Zn 0.9488 0.44186 0.89826 0.0
C756 C 0.98191 0.48226 0.96395 0.0
N757 N 0.89961 0.41086 1.00113 0.0
C758 C 0.87205 0.40257 1.01797 0.0
C759 C 0.92375 0.4134 1.02166 0.0
C760 C 0.92163 0.40877 0.05916 0.0
C761 C 0.89416 0.40052 0.07733 0.0
C762 C 0.86865 0.39679 0.05647 0.0
Zn763 Zn 0.9166 0.42362 0.94656 0.0
O764 O 0.92722 0.46841 0.88415 0.0
C765 C 0.88497 0.37951 0.88508 0.0
O766 O 0.89606 0.45356 0.9323 0.0
H767 H 0.94577 0.41972 1.00951 0.0
H768 H 0.93468 0.43582 0.81561 0.0
H769 H 0.85286 0.40046 1.00191 0.0
O770 O 0.9104 0.40018 0.87059 0.0
O771 O 0.87921 0.38363 0.91834 0.0
H772 H 1.01637 0.47 0.87904 0.0
O773 O 0.93566 0.3933 0.95426 0.0
O774 O 0.96872 0.41542 0.90995 0.0
O775 O 0.95495 0.46292 0.97489 0.0
O776 O 0.98756 0.48143 0.92973 0.0
C777 C 0.95711 0.39475 0.93431 0.0
H778 H 0.96104 0.42998 0.76177 0.0
H779 H 0.04495 0.46692 0.82594 0.0
H780 H 0.94158 0.41115 0.07392 0.0
H781 H 0.84668 0.38977 0.06969 0.0
C782 C 0.58067 0.44932 0.90453 0.0
N783 N 0.59597 0.534 0.85328 0.0
C784 C 0.60109 0.52636 0.81909 0.0
C785 C 0.6025 0.5441 0.78843 0.0
C786 C 0.59942 0.57041 0.79315 0.0
C787 C 0.59302 0.5768 0.82869 0.0
C788 C 0.59055 0.55785 0.8581 0.0
Zn789 Zn 0.60829 0.51976 0.90025 0.0
C790 C 0.56928 0.51275 0.96738 0.0
N791 N 0.64166 0.50223 1.0012 0.0
C792 C 0.64886 0.48208 1.01772 0.0
C793 C 0.64068 0.52461 1.02182 0.0
C794 C 0.64608 0.52725 0.05914 0.0
C795 C 0.65326 0.50716 0.07698 0.0
C796 C 0.65519 0.4844 0.05606 0.0
Zn797 Zn 0.62788 0.50653 0.94746 0.0
O798 O 0.58108 0.47137 0.88625 0.0
C799 C 0.66973 0.51764 0.88439 0.0
O800 O 0.59681 0.45593 0.93432 0.0
H801 H 0.63469 0.54062 1.00999 0.0
H802 H 0.606 0.50774 0.81584 0.0
H803 H 0.64949 0.46424 1.00158 0.0
O804 O 0.64903 0.52272 0.8707 0.0
O805 O 0.66624 0.50791 0.91766 0.0
H806 H 0.58725 0.56412 0.88549 0.0
O807 O 0.65987 0.55624 0.95419 0.0
O808 O 0.63602 0.56669 0.9118 0.0
O809 O 0.58971 0.50637 0.97737 0.0
O810 O 0.56901 0.51878 0.93319 0.0
C811 C 0.65804 0.57604 0.93434 0.0
H812 H 0.60722 0.53798 0.76161 0.0
H813 H 0.59184 0.59738 0.83455 0.0
H814 H 0.6448 0.54535 0.0741 0.0
H815 H 0.66122 0.46867 0.06911 0.0
C816 C 0.59627 0.87571 0.76639 0.0
N817 N 0.66745 0.9413 0.82822 0.0
C818 C 0.65795 0.92383 0.85936 0.0
C819 C 0.67523 0.91161 0.8734 0.0
C820 C 0.70154 0.91658 0.85413 0.0
C821 C 0.71417 0.93963 0.82715 0.0
C822 C 0.69657 0.95233 0.8148 0.0
Zn823 Zn 0.6341 0.93821 0.79366 0.0
C824 C 0.65505 0.94517 0.71404 0.0
N825 N 0.56533 0.93134 0.72049 0.0
C826 C 0.53802 0.90458 0.72526 0.0
C827 C 0.56831 0.95278 0.69531 0.0
C828 C 0.54265 0.94809 0.67478 0.0
C829 C 0.51404 0.92101 0.68024 0.0
C830 C 0.51224 0.89865 0.70481 0.0
Zn831 Zn 0.6001 0.93697 0.75415 0.0
O832 O 0.61693 0.89074 0.79013 0.0
C833 C 0.57682 0.9236 0.83299 0.0
O834 O 0.58517 0.88943 0.74799 0.0
H835 H 0.59029 0.97381 0.6919 0.0
H836 H 0.63512 0.91538 0.87044 0.0
H837 H 0.53583 0.88793 0.7457 0.0
O838 O 0.60455 0.93043 0.83818 0.0
O839 O 0.56844 0.92607 0.80075 0.0
H840 H 0.70446 0.96754 0.79123 0.0
O841 O 0.61842 0.98641 0.75953 0.0
O842 O 0.65231 0.98538 0.79712 0.0
O843 O 0.62997 0.94516 0.70792 0.0
O844 O 0.66233 0.94365 0.74711 0.0
C845 C 0.64225 1.00063 0.78001 0.0
H846 H 0.66513 0.89418 0.89475 0.0
H847 H 0.73494 0.94439 0.81238 0.0
H848 H 0.54482 0.96589 0.65599 0.0
H849 H 0.49077 0.87718 0.70913 0.0
C850 C 0.17358 0.73192 0.75655 0.0
N851 N 0.11215 0.74564 0.81745 0.0
C852 C 0.1149 0.76965 0.79687 0.0
C853 C 0.1392 0.79927 0.80367 0.0
C854 C 0.15857 0.80397 0.83377 0.0
C855 C 0.14911 0.7805 0.86022 0.0
C856 C 0.12533 0.75102 0.85142 0.0
Zn857 Zn 0.11229 0.71051 0.78769 0.0
C858 C 0.10395 0.71784 0.70648 0.0
N859 N 0.11509 0.64188 0.72184 0.0
C860 C 0.14127 0.64025 0.72614 0.0
C861 C 0.09283 0.62348 0.69738 0.0
C862 C 0.09638 0.60205 0.67637 0.0
C863 C 0.12337 0.60012 0.68019 0.0
C864 C 0.14606 0.61979 0.70523 0.0
Zn865 Zn 0.11219 0.67446 0.75194 0.0
O866 O 0.15957 0.7396 0.77945 0.0
C867 C 0.12812 0.67121 0.83232 0.0
O868 O 0.15957 0.70529 0.74205 0.0
H869 H 0.07227 0.6253 0.69434 0.0
H870 H 0.10155 0.76571 0.77213 0.0
H871 H 0.15862 0.6549 0.74588 0.0
O872 O 0.12229 0.69303 0.83487 0.0
O873 O 0.12379 0.65741 0.80158 0.0
H874 H 0.12066 0.7322 0.86972 0.0
O875 O 0.06296 0.64534 0.76053 0.0
O876 O 0.06508 0.68248 0.79499 0.0
O877 O 0.10362 0.69246 0.70268 0.0
O878 O 0.10509 0.7282 0.73853 0.0
C879 C 0.04925 0.65635 0.77957 0.0
H880 H 0.14453 0.81723 0.78355 0.0
H881 H 0.16188 0.78405 0.88555 0.0
H882 H 0.07791 0.58671 0.65811 0.0
H883 H 0.16723 0.61914 0.70897 0.0
C884 C 0.31609 0.44607 0.75593 0.0
N885 N 0.30795 0.36958 0.80854 0.0
C886 C 0.28317 0.35028 0.78744 0.0
C887 C 0.25363 0.34232 0.79888 0.0
C888 C 0.24999 0.35334 0.83279 0.0
C889 C 0.27479 0.36591 0.85762 0.0
C890 C 0.30406 0.37356 0.84481 0.0
Zn891 Zn 0.34205 0.4075 0.78131 0.0
C892 C 0.33815 0.39677 0.70081 0.0
N893 N 0.40718 0.48737 0.72351 0.0
C894 C 0.40906 0.51445 0.73367 0.0
C895 C 0.42368 0.48599 0.69456 0.0
C896 C 0.44332 0.51277 0.67478 0.0
C897 C 0.44567 0.54101 0.68487 0.0
C898 C 0.42816 0.54159 0.71462 0.0
Zn899 Zn 0.37615 0.44895 0.75136 0.0
O900 O 0.3091 0.4203 0.77022 0.0
C901 C 0.37602 0.46239 0.83136 0.0
O902 O 0.34396 0.46454 0.74707 0.0
H903 H 0.42161 0.46414 0.68683 0.0
H904 H 0.28594 0.34492 0.75953 0.0
H905 H 0.39553 0.51505 0.75653 0.0
O906 O 0.35385 0.43472 0.83002 0.0
O907 O 0.39265 0.47387 0.80281 0.0
H908 H 0.32383 0.38671 0.86238 0.0
O909 O 0.4075 0.4303 0.75479 0.0
O910 O 0.37404 0.39412 0.79186 0.0
O911 O 0.35803 0.4254 0.70064 0.0
O912 O 0.33033 0.38253 0.73123 0.0
C913 C 0.3997 0.40653 0.77493 0.0
H914 H 0.23477 0.3314 0.77937 0.0
H915 H 0.27229 0.37295 0.88499 0.0
H916 H 0.45704 0.51153 0.65248 0.0
H917 H 0.42935 0.5629 0.72324 0.0
C918 C 0.58474 0.94506 0.11194 0.0
N919 N 0.50981 0.88885 0.0452 0.0
C920 C 0.53232 0.91227 0.02464 0.0
C921 C 0.5341 0.9102 0.98705 0.0
C922 C 0.51292 0.88359 0.96881 0.0
C923 C 0.49001 0.85881 0.98958 0.0
C924 C 0.48861 0.86213 0.02826 0.0
Zn925 Zn 0.5148 0.90644 0.09932 0.0
C926 C 0.52597 0.87459 0.16218 0.0
N927 N 0.54295 0.96466 0.19442 0.0
C928 C 0.5667 0.99417 0.19044 0.0
C929 C 0.53435 0.95144 0.22829 0.0
C930 C 0.55137 0.96732 0.25948 0.0
C931 C 0.578 0.99664 0.25556 0.0
C932 C 0.58474 1.01046 0.22058 0.0
Zn933 Zn 0.52895 0.93851 0.14736 0.0
O934 O 0.56435 0.92402 0.09193 0.0
C935 C 0.52236 0.97187 0.08083 0.0
O936 O 0.57606 0.95733 0.13592 0.0
H937 H 0.5155 0.92791 0.23089 0.0
H938 H 0.54894 0.93395 0.0367 0.0
H939 H 0.57346 1.00423 0.16331 0.0
O940 O 0.51488 0.94501 0.06979 0.0
O941 O 0.5288 0.97734 0.11506 0.0
H942 H 0.47052 0.84371 0.0443 0.0
O943 O 0.48045 0.91778 0.16138 0.0
O944 O 0.46428 0.88708 0.11299 0.0
O945 O 0.53122 0.90024 0.17642 0.0
O946 O 0.51623 0.86887 0.12883 0.0
C947 C 0.45805 0.89653 0.14309 0.0
H948 H 0.55231 0.92962 0.97217 0.0
H949 H 0.47341 0.83757 0.97618 0.0
H950 H 0.54437 0.9562 0.28609 0.0
H951 H 0.60492 0.03292 0.21595 0.0
C952 C 0.101 0.64541 0.11285 0.0
N953 N 0.15806 0.62955 0.04501 0.0
C954 C 0.13416 0.62787 0.02478 0.0
C955 C 0.13665 0.63391 0.98756 0.0
C956 C 0.16427 0.64272 0.96947 0.0
C957 C 0.18948 0.64537 0.99 0.0
C958 C 0.18571 0.63823 0.02819 0.0
Zn959 Zn 0.14085 0.61583 0.09931 0.0
C960 C 0.17221 0.65869 0.16099 0.0
N961 N 0.08263 0.58517 0.19498 0.0
C962 C 0.05203 0.57617 0.19327 0.0
C963 C 0.09833 0.59466 0.22735 0.0
C964 C 0.08403 0.59798 0.25871 0.0
C965 C 0.05287 0.59046 0.2573 0.0
C966 C 0.03662 0.57839 0.22425 0.0
Zn967 Zn 0.1077 0.59669 0.1466 0.0
O968 O 0.12261 0.64709 0.093 0.0
C969 C 0.07518 0.55748 0.08037 0.0
O970 O 0.08807 0.62358 0.13564 0.0
H971 H 0.12267 0.60198 0.22828 0.0
H972 H 0.11208 0.62129 0.037 0.0
H973 H 0.04004 0.56941 0.1672 0.0
O974 O 0.10231 0.57735 0.07049 0.0
O975 O 0.06877 0.55737 0.11452 0.0
H976 H 0.20473 0.63972 0.04404 0.0
O977 O 0.1291 0.56976 0.1602 0.0
O978 O 0.16075 0.58509 0.11252 0.0
O979 O 0.14633 0.63818 0.17474 0.0
O980 O 0.17844 0.6548 0.12789 0.0
C981 C 0.1509 0.56919 0.14247 0.0
H982 H 0.11689 0.63214 0.97296 0.0
H983 H 0.21153 0.65273 0.97682 0.0
H984 H 0.09792 0.60811 0.28308 0.0
H985 H 1.01251 0.57194 0.22189 0.0
C986 C 0.40088 0.46051 0.11345 0.0
N987 N 0.41602 0.53338 0.04573 0.0
C988 C 0.41938 0.5123 0.02521 0.0
C989 C 0.41247 0.50799 0.98823 0.0
C990 C 0.40083 0.52462 0.97077 0.0
C991 C 0.39659 0.54608 0.99157 0.0
C992 C 0.40472 0.55036 0.02946 0.0
Zn993 Zn 0.43024 0.5303 0.09988 0.0
C994 C 0.3865 0.51832 0.16226 0.0
N995 N 0.46137 0.50409 0.19585 0.0
C996 C 0.46813 0.48102 0.19223 0.0
C997 C 0.45617 0.51243 0.22955 0.0
C998 C 0.45542 0.49579 0.26092 0.0
C999 C 0.45914 0.46979 0.25735 0.0
C1000 C 0.46682 0.46336 0.22258 0.0
Zn1001 Zn 0.44858 0.51718 0.14851 0.0
O1002 O 0.39976 0.48013 0.09244 0.0
C1003 C 0.48934 0.52506 0.08221 0.0
O1004 O 0.42163 0.47026 0.13772 0.0
H1005 H 0.45067 0.53071 0.23186 0.0
H1006 H 0.42732 0.49783 0.03714 0.0
H1007 H 0.47186 0.47442 0.16523 0.0
O1008 O 0.46979 0.53226 0.07105 0.0
O1009 O 0.48813 0.51827 0.11636 0.0
H1010 H 0.40162 0.56676 0.04563 0.0
O1011 O 0.47528 0.56553 0.16194 0.0
O1012 O 0.45997 0.58126 0.11379 0.0
O1013 O 0.40719 0.51393 0.17742 0.0
O1014 O 0.39077 0.52756 0.12874 0.0
C1015 C 0.47566 0.58767 0.14397 0.0
H1016 H 0.41547 0.49083 0.97344 0.0
H1017 H 0.38703 0.55904 0.97887 0.0
H1018 H 0.45076 0.50252 0.28739 0.0
H1019 H 0.46989 0.44364 0.21826 0.0
C1020 C 0.08122 0.37071 0.60076 0.0
N1021 N 0.15835 0.44058 0.66015 0.0
C1022 C 0.15725 0.41606 0.67778 0.0
C1023 C 0.18296 0.41964 0.69712 0.0
C1024 C 0.20972 0.44896 0.69946 0.0
C1025 C 0.20927 0.47416 0.68333 0.0
C1026 C 0.18378 0.4693 0.66276 0.0
Zn1027 Zn 0.12287 0.43491 0.62666 0.0
C1028 C 0.14515 0.44942 0.54781 0.0
N1029 N 0.05294 0.42921 0.55425 0.0
C1030 C 1.02491 0.42111 0.56931 0.0
C1031 C 0.06183 0.44489 0.52179 0.0
C1032 C 0.04612 0.459 0.50817 0.0
C1033 C 1.02122 0.45681 0.52829 0.0
C1034 C 1.00864 0.43524 0.55694 0.0
Zn1035 Zn 0.08724 0.43248 0.58818 0.0
O1036 O 0.10562 0.38584 0.62 0.0
C1037 C 0.06773 0.42462 0.66804 0.0
O1038 O 0.06978 0.38507 0.58431 0.0
H1039 H 0.08331 0.45038 0.50879 0.0
H1040 H 0.13686 0.39346 0.676 0.0
H1041 H 1.01697 0.40698 0.59377 0.0
O1042 O 0.0932 0.42523 0.67321 0.0
O1043 O 0.05967 0.42624 0.63539 0.0
H1044 H 0.18502 0.48866 0.64823 0.0
O1045 O 0.10344 0.47984 0.59241 0.0
O1046 O 0.13614 0.48188 0.63371 0.0
O1047 O 0.11699 0.44137 0.5432 0.0
O1048 O 0.1543 0.44737 0.57979 0.0
C1049 C 0.12411 0.49509 0.61606 0.0
H1050 H 0.18214 0.39941 0.70905 0.0
H1051 H 0.22866 0.49743 0.68573 0.0
H1052 H 0.05644 0.47525 0.48568 0.0
H1053 H 0.98887 0.43245 0.57246 0.0
C1054 C 0.67595 0.719 0.60071 0.0
N1055 N 0.6116 0.73317 0.66181 0.0
C1056 C 0.5939 0.72329 0.6928 0.0
C1057 C 0.58949 0.74393 0.71408 0.0
C1058 C 0.60338 0.77485 0.70312 0.0
C1059 C 0.6226 0.78473 0.67197 0.0
C1060 C 0.62643 0.76334 0.65156 0.0
Zn1061 Zn 0.61238 0.70152 0.62795 0.0
C1062 C 0.59647 0.70729 0.55108 0.0
N1063 N 0.61206 0.63242 0.55907 0.0
C1064 C 0.60649 0.60535 0.57463 0.0
C1065 C 0.60544 0.63347 0.52286 0.0
C1066 C 0.58479 0.60631 0.50483 0.0
C1067 C 0.5731 0.57847 0.52401 0.0
C1068 C 0.58715 0.57771 0.55699 0.0
Zn1069 Zn 0.61323 0.66558 0.59355 0.0
O1070 O 0.66226 0.72896 0.62152 0.0
C1071 C 0.62225 0.65593 0.67168 0.0
O1072 O 0.65994 0.69391 0.58329 0.0
H1073 H 0.6124 0.65519 0.50937 0.0
H1074 H 0.58215 0.69912 0.70027 0.0
H1075 H 0.61312 0.60437 0.60254 0.0
O1076 O 0.61843 0.67909 0.67463 0.0
O1077 O 0.62399 0.64656 0.63985 0.0
H1078 H 0.64033 0.77056 0.6268 0.0
O1079 O 0.56591 0.63638 0.60436 0.0
O1080 O 0.56411 0.67318 0.63505 0.0
O1081 O 0.60027 0.68414 0.54958 0.0
O1082 O 0.60329 0.72281 0.58076 0.0
C1083 C 0.55058 0.64585 0.62247 0.0
H1084 H 0.57432 0.73557 0.73779 0.0
H1085 H 0.63385 0.80859 0.663 0.0
H1086 H 0.57513 0.60756 0.47863 0.0
H1087 H 0.5794 0.5562 0.57171 0.0
C1088 C 0.33276 0.96963 0.59571 0.0
N1089 N 0.32017 0.88992 0.65269 0.0
C1090 C 0.30337 0.89364 0.67961 0.0
C1091 C 0.28096 0.86791 0.69893 0.0
C1092 C 0.27608 0.83847 0.6901 0.0
C1093 C 0.29445 0.83557 0.66318 0.0
C1094 C 0.31628 0.86164 0.64458 0.0
Zn1095 Zn 0.35214 0.92525 0.62181 0.0
C1096 C 0.34796 0.90557 0.54384 0.0
N1097 N 0.42085 0.99689 0.55562 0.0
C1098 C 0.44831 1.01598 0.57229 0.0
C1099 C 0.41979 0.99028 0.51909 0.0
C1100 C 0.4464 0.99433 0.50164 0.0
C1101 C 0.47395 1.00741 0.52176 0.0
C1102 C 0.47562 0.02197 0.55531 0.0
Zn1103 Zn 0.38767 0.96301 0.58824 0.0
O1104 O 0.32355 0.94622 0.61677 0.0
C1105 C 0.3951 0.97983 0.66737 0.0
O1106 O 0.35768 0.97918 0.57768 0.0
H1107 H 0.39786 0.97729 0.50516 0.0
H1108 H 0.30703 0.91641 0.68565 0.0
H1109 H 0.4493 0.02251 0.60072 0.0
O1110 O 0.37316 0.95202 0.66995 0.0
O1111 O 0.40404 0.99175 0.63571 0.0
H1112 H 0.32986 0.8591 0.62319 0.0
O1113 O 0.4186 0.94748 0.59951 0.0
O1114 O 0.38192 0.90713 0.62797 0.0
O1115 O 0.37156 0.93233 0.54277 0.0
O1116 O 0.33221 0.89695 0.57331 0.0
C1117 C 0.40968 0.92253 0.617 0.0
H1118 H 0.26702 0.87081 0.71964 0.0
H1119 H 0.29155 0.81322 0.65611 0.0
H1120 H 0.44448 0.98371 0.47507 0.0
H1121 H 0.49701 0.03349 0.5708 0.0
C1122 C 0.26476 0.47253 0.23696 0.0
N1123 N 0.17978 0.40386 0.18672 0.0
C1124 C 0.18694 0.41761 0.15305 0.0
C1125 C 0.16982 0.40151 0.1221 0.0
C1126 C 0.14511 0.3711 0.126 0.0
C1127 C 0.1395 0.35692 0.16058 0.0
C1128 C 0.15729 0.37373 0.19067 0.0
Zn1129 Zn 0.1939 0.43012 0.23362 0.0
C1130 C 0.20101 0.39784 0.29991 0.0
N1131 N 0.21285 0.48087 0.33476 0.0
C1132 C 0.23344 0.508 0.35145 0.0
C1133 C 0.19026 0.45757 0.35536 0.0
C1134 C 0.18786 0.46015 0.39281 0.0
C1135 C 0.20843 0.48718 0.41081 0.0
C1136 C 0.23139 0.51183 0.3899 0.0
Zn1137 Zn 0.20826 0.46305 0.28071 0.0
O1138 O 0.24212 0.451 0.21927 0.0
C1139 C 0.19699 0.49446 0.21851 0.0
O1140 O 0.25894 0.48232 0.26709 0.0
H1141 H 0.17393 0.43571 0.34339 0.0
H1142 H 0.2045 0.4417 0.15057 0.0
H1143 H 0.25146 0.52644 0.33535 0.0
O1144 O 0.19107 0.46849 0.20453 0.0
O1145 O 0.20746 0.50046 0.25149 0.0
H1146 H 0.15143 0.36334 0.2177 0.0
O1147 O 0.15839 0.44542 0.28758 0.0
O1148 O 0.14712 0.41078 0.24531 0.0
O1149 O 0.2079 0.42472 0.31012 0.0
O1150 O 0.1947 0.39165 0.2658 0.0
C1151 C 0.13821 0.42373 0.26801 0.0
H1152 H 0.17467 0.41332 0.09586 0.0
H1153 H 0.12078 0.33344 0.16456 0.0
H1154 H 0.1696 0.44081 0.40774 0.0
H1155 H 0.24749 0.53342 0.40305 0.0
C1156 C 0.57281 0.79944 0.23613 0.0
N1157 N 0.64115 0.78217 0.18525 0.0
C1158 C 0.62837 0.77724 0.15108 0.0
C1159 C 0.645 0.77669 0.12022 0.0
C1160 C 0.6748 0.78066 0.12465 0.0
C1161 C 0.68762 0.78687 0.16016 0.0
C1162 C 0.67066 0.78811 0.1899 0.0
Zn1163 Zn 0.61465 0.77045 0.23242 0.0
C1164 C 0.64817 0.81103 0.29891 0.0
N1165 N 0.56525 0.74048 0.33552 0.0
C1166 C 0.53802 0.73358 0.35229 0.0
C1167 C 0.58889 0.74208 0.35623 0.0
C1168 C 0.5866 0.73774 0.39379 0.0
C1169 C 0.55949 0.73095 0.41187 0.0
C1170 C 0.53447 0.72828 0.39089 0.0
Zn1171 Zn 0.58289 0.75304 0.28112 0.0
O1172 O 0.59394 0.79808 0.21779 0.0
C1173 C 0.55063 0.70935 0.21866 0.0
O1174 O 0.56353 0.78412 0.26656 0.0
H1175 H 0.61078 0.7477 0.34425 0.0
H1176 H 0.6047 0.77199 0.14795 0.0
H1177 H 0.51928 0.7324 0.33614 0.0
O1178 O 0.57617 0.72951 0.20375 0.0
O1179 O 0.54539 0.71398 0.25197 0.0
H1180 H 0.68027 0.79129 0.21725 0.0
O1181 O 0.6007 0.72127 0.28937 0.0
O1182 O 0.63338 0.74244 0.24463 0.0
O1183 O 0.62128 0.79176 0.31009 0.0
O1184 O 0.65361 0.80981 0.26469 0.0
C1185 C 0.62168 0.72193 0.2692 0.0
H1186 H 0.63416 0.77206 0.09339 0.0
H1187 H 0.70987 0.78893 0.16559 0.0
H1188 H 0.60619 0.73944 0.40873 0.0
H1189 H 0.5128 0.72249 0.40408 0.0
C1190 C 0.24597 0.78066 0.23497 0.0
N1191 N 0.26208 0.86505 0.18326 0.0
C1192 C 0.26992 0.85894 0.14971 0.0
C1193 C 0.2723 0.87714 0.11923 0.0
C1194 C 0.26655 0.90176 0.12347 0.0
C1195 C 0.25659 0.90613 0.15789 0.0
C1196 C 0.25427 0.88732 0.18738 0.0
Zn1197 Zn 0.27391 0.85125 0.23059 0.0
C1198 C 0.23376 0.84443 0.29669 0.0
N1199 N 0.30615 0.83369 0.33219 0.0
C1200 C 0.31521 0.81484 0.34842 0.0
C1201 C 0.30426 0.85555 0.35284 0.0
C1202 C 0.31058 0.85893 0.38996 0.0
C1203 C 0.32005 0.84042 0.40738 0.0
C1204 C 0.32269 0.81809 0.38646 0.0
Zn1205 Zn 0.29255 0.83774 0.27835 0.0
O1206 O 0.24673 0.80285 0.21666 0.0
C1207 C 0.33561 0.84907 0.2162 0.0
O1208 O 0.26173 0.78709 0.26505 0.0
H1209 H 0.29755 0.87102 0.34099 0.0
H1210 H 0.27651 0.84147 0.14708 0.0
H1211 H 0.31687 0.79762 0.33215 0.0
O1212 O 0.31507 0.85412 0.20197 0.0
O1213 O 0.3316 0.8393 0.24948 0.0
H1214 H 0.24909 0.89259 0.21437 0.0
O1215 O 0.32424 0.88736 0.2853 0.0
O1216 O 0.30159 0.89826 0.24172 0.0
O1217 O 0.25369 0.83755 0.30739 0.0
O1218 O 0.23425 0.85057 0.26245 0.0
C1219 C 0.3232 0.90731 0.26487 0.0
H1220 H 0.27986 0.87289 0.09306 0.0
H1221 H 0.25271 0.92527 0.16277 0.0
H1222 H 0.30869 0.87666 0.40496 0.0
H1223 H 0.33048 0.80361 0.39919 0.0
C1224 C 0.24167 0.16335 0.04352 0.0
C1225 C 0.25199 0.17272 0.07972 0.0
C1226 C 0.24284 0.13854 0.02754 0.0
C1227 C 0.25403 0.12196 0.04728 0.0
H1228 H 0.23468 0.17655 0.02645 0.0
H1229 H 0.23656 0.1335 0.99881 0.0
S1230 S 0.27821 0.13365 0.14523 0.0
N1231 N 0.27012 0.16121 0.13641 0.0
N1232 N 0.2714 0.11387 0.10663 0.0
C1233 C 0.26203 0.12951 0.08446 0.0
C1234 C 0.26113 0.155 0.10065 0.0
C1235 C 0.91213 0.14324 0.07884 0.0
C1236 C 0.91615 0.14452 0.04041 0.0
C1237 C 0.88786 0.1171 0.09576 0.0
C1238 C 0.86717 0.09135 0.0748 0.0
H1239 H 0.92768 0.16265 0.09586 0.0
H1240 H 0.88493 0.11719 0.12529 0.0
S1241 S 0.86576 0.08454 0.97308 0.0
N1242 N 0.89603 0.11875 0.98181 0.0
N1243 N 0.85104 0.06946 1.0136 0.0
C1244 C 0.87098 0.09237 0.03642 0.0
C1245 C 0.89532 0.11902 1.01921 0.0
C1246 C 0.92687 0.80532 0.06668 0.0
C1247 C 0.90087 0.77773 0.05463 0.0
C1248 C 0.95216 0.80503 0.08313 0.0
C1249 C 0.95185 0.7771 0.08842 0.0
H1250 H 0.92779 0.82725 0.06299 0.0
H1251 H 0.97202 0.82666 0.09155 0.0
S1252 S 0.89087 0.69911 0.05797 0.0
N1253 N 0.87762 0.72225 0.04649 0.0
N1254 N 0.92444 0.7215 0.07799 0.0
C1255 C 0.92605 0.74945 0.07624 0.0
C1256 C 0.90068 0.7498 0.05926 0.0
C1257 C 0.05955 0.19757 0.5486 0.0
C1258 C 0.03249 0.19082 0.52903 0.0
C1259 C 0.08857 0.2093 0.53098 0.0
C1260 C 0.09224 0.21424 0.49255 0.0
H1261 H 0.05865 0.19489 0.57823 0.0
H1262 H 0.10854 0.21482 0.54788 0.0
S1263 S 1.02885 0.19931 0.42773 0.0
N1264 N 1.01155 0.18973 0.46828 0.0
N1265 N 0.06562 0.2105 0.43531 0.0
C1266 C 0.06527 0.20663 0.47231 0.0
C1267 C 0.03569 0.19536 0.49044 0.0
C1268 C 0.84012 0.86776 0.47435 0.0
C1269 C 0.83215 0.88719 0.49397 0.0
C1270 C 0.85132 0.84999 0.49257 0.0
C1271 C 0.85602 0.85141 0.53121 0.0
H1272 H 0.83664 0.86538 0.44486 0.0
H1273 H 0.85606 0.83475 0.47619 0.0
S1274 S 0.84026 0.89999 0.59516 0.0
N1275 N 0.83074 0.90715 0.55438 0.0
N1276 N 0.85224 0.87511 0.58785 0.0
C1277 C 0.84904 0.87159 0.55074 0.0
C1278 C 0.83706 0.889 0.53242 0.0
C1279 C 0.18208 0.98291 0.47642 0.0
C1280 C 0.16443 0.95553 0.49695 0.0
C1281 C 0.20027 1.01215 0.49385 0.0
C1282 C 0.20096 1.01567 0.53263 0.0
H1283 H 0.18265 0.98164 0.44672 0.0
H1284 H 0.21408 0.03218 0.47674 0.0
S1285 S 0.15767 0.95146 0.599 0.0
N1286 N 0.14848 0.93439 0.55843 0.0
N1287 N 0.1813 0.98846 0.59055 0.0
C1288 C 0.18262 0.9885 0.55319 0.0
C1289 C 0.16482 0.95884 0.53561 0.0
C1290 C 0.8106 0.89526 1.01528 0.0
C1291 C 0.80236 0.91346 0.99381 0.0
C1292 C 0.81195 0.87037 0.99998 0.0
C1293 C 0.80435 0.86232 0.96294 0.0
H1294 H 0.81455 0.89928 0.04457 0.0
H1295 H 0.81687 0.85608 1.01793 0.0
S1296 S 0.78877 0.9067 0.89311 0.0
N1297 N 0.79224 0.92513 0.93213 0.0
N1298 N 0.79324 0.87706 0.90371 0.0
C1299 C 0.79835 0.88155 0.94049 0.0
C1300 C 0.79761 0.90738 0.95589 0.0
C1301 C 0.16634 0.93972 0.97676 0.0
C1302 C 0.19387 0.93908 0.9716 0.0
C1303 C 0.14033 0.91454 0.99288 0.0
C1304 C 0.14126 0.88819 1.00477 0.0
H1305 H 0.16488 0.9597 0.96821 0.0
H1306 H 0.11938 0.9157 0.99611 0.0
S1307 S 0.20945 0.87732 1.00244 0.0
N1308 N 0.22129 0.911 0.98238 0.0
N1309 N 0.17298 0.86446 1.01354 0.0
C1310 C 0.16899 0.88777 1.00068 0.0
C1311 C 0.19515 0.91303 0.98389 0.0
C1312 C 0.12344 0.2414 1.0124 0.0
C1313 C 0.15148 0.25213 0.99325 0.0
C1314 C 0.09783 0.24043 0.99566 0.0
C1315 C 0.0994 0.25066 0.95929 0.0
H1316 H 0.12163 0.23503 0.04116 0.0
H1317 H 0.07737 0.23358 1.01226 0.0
S1318 S 0.16569 0.27642 0.89544 0.0
N1319 N 0.17794 0.26935 0.93442 0.0
N1320 N 0.13003 0.26889 0.90335 0.0
C1321 C 0.12664 0.25987 0.93912 0.0
C1322 C 0.15265 0.26036 0.95603 0.0
C1323 C 0.99979 0.83995 0.49873 0.0
C1324 C 1.02694 0.84778 0.51882 0.0
C1325 C 0.97062 0.82825 0.51597 0.0
C1326 C 0.96676 0.8244 0.55452 0.0
H1327 H 1.00079 0.84181 0.469 0.0
H1328 H 0.95068 0.82197 0.49866 0.0
S1329 S 0.03021 0.84236 0.62065 0.0
N1330 N 0.04771 0.85097 0.58019 0.0
N1331 N 0.99335 0.83033 0.61242 0.0
C1332 C 0.99378 0.83304 0.57524 0.0
C1333 C 1.02356 0.84426 0.55752 0.0
C1334 C 0.22284 0.15214 0.5128 0.0
C1335 C 0.2267 0.15259 0.55141 0.0
C1336 C 0.21076 0.16905 0.49509 0.0
C1337 C 0.20249 0.18816 0.51478 0.0
H1338 H 0.22949 0.13863 0.49581 0.0
H1339 H 0.20898 0.16794 0.46537 0.0
S1340 S 0.20764 0.19776 0.61655 0.0
N1341 N 0.22026 0.17339 0.60886 0.0
N1342 N 0.1988 0.20596 0.57586 0.0
C1343 C 0.20592 0.18865 0.55354 0.0
C1344 C 0.21758 0.17072 0.5717 0.0
C1345 C 0.87613 0.05599 0.56886 0.0
C1346 C 0.89611 0.0833 0.54938 0.0
C1347 C 0.85811 0.02715 0.55051 0.0
C1348 C 0.85982 0.02396 0.51191 0.0
H1349 H 0.87352 0.05707 0.59831 0.0
H1350 H 0.84242 1.00722 0.56675 0.0
S1351 S 0.90997 0.08811 0.4484 0.0
N1352 N 0.91701 0.10473 0.48922 0.0
N1353 N 0.88445 0.05133 0.45547 0.0
C1354 C 0.88058 0.051 0.49252 0.0
C1355 C 0.89827 0.08028 0.51098 0.0
C1356 C 0.93062 0.49242 0.43798 0.0
C1357 C 0.93045 0.5151 0.4153 0.0
C1358 C 0.93065 0.46665 0.42257 0.0
C1359 C 0.93118 0.46337 0.38417 0.0
H1360 H 0.93109 0.4948 0.46763 0.0
H1361 H 0.93074 0.4495 0.44068 0.0
S1362 S 0.93513 0.5186 0.31333 0.0
N1363 N 0.93301 0.53371 0.3528 0.0
N1364 N 0.93399 0.486 0.32413 0.0
C1365 C 0.93165 0.48626 0.36141 0.0
C1366 C 0.93109 0.512 0.37692 0.0
C1367 C 0.57387 0.4463 0.37066 0.0
C1368 C 0.58947 0.47502 0.38881 0.0
C1369 C 0.54927 0.42047 0.38732 0.0
C1370 C 0.53887 0.42243 0.42259 0.0
H1371 H 0.57955 0.44401 0.34251 0.0
H1372 H 0.53695 0.39948 0.37129 0.0
S1373 S 0.57447 0.49067 0.48427 0.0
N1374 N 0.59524 0.5026 0.44616 0.0
N1375 N 0.54787 0.4543 0.47681 0.0
C1376 C 0.55529 0.45039 0.442 0.0
C1377 C 0.58077 0.47663 0.42526 0.0
C1378 C 0.59719 0.13112 0.36688 0.0
C1379 C 0.56904 0.11897 0.3862 0.0
C1380 C 0.6232 0.13232 0.38276 0.0
C1381 C 0.62197 0.12091 0.4184 0.0
H1382 H 0.59886 0.13846 0.33852 0.0
H1383 H 0.64377 0.14039 0.36599 0.0
S1384 S 0.55543 0.0909 0.48273 0.0
N1385 N 0.54271 0.09886 0.44466 0.0
N1386 N 0.59143 0.09986 0.47406 0.0
C1387 C 0.59456 0.11017 0.43884 0.0
C1388 C 0.56811 0.1094 0.42282 0.0
C1389 C 0.75572 0.54589 0.86503 0.0
C1390 C 0.7592 0.55073 0.82657 0.0
C1391 C 0.72676 0.53391 0.88285 0.0
C1392 C 0.69949 0.52674 0.86345 0.0
H1393 H 0.77581 0.55166 0.88183 0.0
H1394 H 0.72604 0.53133 0.91248 0.0
S1395 S 0.6953 0.53483 0.76213 0.0
N1396 N 0.73219 0.54646 0.7695 0.0
N1397 N 0.67818 0.5252 0.80279 0.0
C1398 C 0.7025 0.53118 0.82482 0.0
C1399 C 0.73206 0.54273 0.8065 0.0
C1400 C 0.51439 0.20191 0.88466 0.0
C1401 C 0.52274 0.18294 0.86472 0.0
C1402 C 0.50264 0.21921 0.86715 0.0
C1403 C 0.49929 0.21935 0.82853 0.0
H1404 H 0.51592 0.20265 0.9144 0.0
H1405 H 0.49604 0.23269 0.88427 0.0
S1406 S 0.51835 0.17449 0.76284 0.0
N1407 N 0.52668 0.16566 0.80345 0.0
N1408 N 0.50602 0.19906 0.77081 0.0
C1409 C 0.50834 0.20124 0.80803 0.0
C1410 C 0.51958 0.18287 0.82597 0.0
C1411 C 0.82961 0.29252 0.86726 0.0
C1412 C 0.82908 0.28911 0.82854 0.0
C1413 C 0.84633 0.32166 0.88483 0.0
C1414 C 0.86431 0.34926 0.86488 0.0
H1415 H 0.81692 0.27227 0.88443 0.0
H1416 H 0.84597 0.32234 0.9146 0.0
S1417 S 0.87114 0.35389 0.7628 0.0
N1418 N 0.84779 0.31667 0.77078 0.0
N1419 N 0.88005 0.37092 0.80349 0.0
C1420 C 0.86389 0.34631 0.82606 0.0
C1421 C 0.84613 0.31657 0.80806 0.0
C1422 C 0.48172 0.2135 0.30829 0.0
C1423 C 0.45368 0.18584 0.30323 0.0
C1424 C 0.48211 0.23933 0.324 0.0
C1425 C 0.4545 0.23798 0.33544 0.0
H1426 H 0.50333 0.2152 0.29988 0.0
H1427 H 0.50408 0.26045 0.32725 0.0
S1428 S 0.37562 0.16944 0.33239 0.0
N1429 N 0.39798 0.15785 0.31322 0.0
N1430 N 0.39889 0.20594 0.3435 0.0
C1431 C 0.42649 0.21013 0.33135 0.0
C1432 C 0.42605 0.18413 0.3151 0.0
C1433 C 0.81795 0.25686 0.34823 0.0
C1434 C 0.8003 0.22965 0.32777 0.0
C1435 C 0.84294 0.28282 0.33249 0.0
C1436 C 0.85165 0.28245 0.29583 0.0
H1437 H 0.81349 0.25768 0.37726 0.0
H1438 H 0.85675 0.30252 0.35005 0.0
S1439 S 0.81009 0.21902 0.22858 0.0
N1440 N 0.79065 0.20548 0.2674 0.0
N1441 N 0.83871 0.25409 0.23811 0.0
C1442 C 0.83316 0.25618 0.27431 0.0
C1443 C 0.80729 0.22979 0.29023 0.0
C1444 C 0.76777 0.56903 0.32867 0.0
C1445 C 0.76834 0.58087 0.2935 0.0
C1446 C 0.79413 0.57023 0.34337 0.0
C1447 C 0.8219 0.58262 0.32316 0.0
H1448 H 0.74755 0.56081 0.34609 0.0
H1449 H 0.79308 0.56285 0.37162 0.0
S1450 S 0.83333 0.61099 0.22686 0.0
N1451 N 0.79755 0.60201 0.23697 0.0
N1452 N 0.84688 0.60282 0.26404 0.0
C1453 C 0.82198 0.59219 0.28675 0.0
C1454 C 0.79522 0.59153 0.272 0.0
C1455 C 0.68787 0.17321 0.88715 0.0
C1456 C 0.69149 0.17841 0.8486 0.0
C1457 C 0.65879 0.16219 0.90519 0.0
C1458 C 0.6316 0.15493 0.88545 0.0
H1459 H 0.70766 0.17739 0.90361 0.0
H1460 H 0.65744 0.1583 0.93461 0.0
S1461 S 0.6278 0.16463 0.78446 0.0
N1462 N 0.66454 0.17592 0.79193 0.0
N1463 N 0.61078 0.15473 0.82507 0.0
C1464 C 0.63503 0.16034 0.8471 0.0
C1465 C 0.66455 0.17214 0.82896 0.0
C1466 C 0.87295 0.52424 0.88605 0.0
C1467 C 0.86763 0.52244 0.84752 0.0
C1468 C 0.88365 0.50606 0.90418 0.0
C1469 C 0.89033 0.48572 0.88455 0.0
H1470 H 0.86928 0.54023 0.90237 0.0
H1471 H 0.88789 0.50891 0.93352 0.0
S1472 S 0.87964 0.47119 0.78381 0.0
N1473 N 0.86905 0.49715 0.79107 0.0
N1474 N 0.88958 0.46421 0.82444 0.0
C1475 C 0.88455 0.48333 0.84628 0.0
C1476 C 0.87315 0.50125 0.82803 0.0
C1477 C 0.56454 0.41333 0.84968 0.0
C1478 C 0.56352 0.41702 0.88814 0.0
C1479 C 0.54763 0.38423 0.83219 0.0
C1480 C 0.52791 0.35699 0.85193 0.0
H1481 H 0.57857 0.43336 0.83263 0.0
H1482 H 0.54925 0.38335 0.80254 0.0
S1483 S 0.51645 0.35335 0.95338 0.0
N1484 N 0.54141 0.39024 0.94557 0.0
N1485 N 0.50874 0.336 0.91289 0.0
C1486 C 0.52674 0.36023 0.89055 0.0
C1487 C 0.54471 0.38993 0.90853 0.0
C1488 C 0.58277 0.83688 0.7172 0.0
C1489 C 0.59087 0.84536 0.75417 0.0
C1490 C 0.58573 0.81309 0.70142 0.0
C1491 C 0.59634 0.79659 0.72217 0.0
H1492 H 0.57625 0.8501 0.69949 0.0
H1493 H 0.5808 0.80833 0.67236 0.0
S1494 S 0.6146 0.80563 0.82178 0.0
N1495 N 0.60599 0.83276 0.81238 0.0
N1496 N 0.61079 0.78722 0.78265 0.0
C1497 C 0.60169 0.80277 0.75996 0.0
C1498 C 0.59916 0.82742 0.77599 0.0
C1499 C 0.22423 0.78048 0.76163 0.0
C1500 C 0.20212 0.75634 0.73985 0.0
C1501 C 0.24832 0.80718 0.74553 0.0
C1502 C 0.25081 0.81041 0.70708 0.0
H1503 H 0.22245 0.7788 0.79123 0.0
H1504 H 0.26495 0.8254 0.76316 0.0
S1505 S 0.19711 0.75493 0.63799 0.0
N1506 N 0.18339 0.73791 0.678 0.0
N1507 N 0.22837 0.78814 0.64768 0.0
C1508 C 0.22881 0.7864 0.685 0.0
C1509 C 0.20455 0.75925 0.70139 0.0
C1510 C 0.23602 0.43501 0.74803 0.0
C1511 C 0.23831 0.45264 0.7168 0.0
C1512 C 0.26179 0.43437 0.76166 0.0
C1513 C 0.2911 0.45209 0.74551 0.0
H1514 H 0.21392 0.42066 0.76136 0.0
H1515 H 0.25846 0.41884 0.78409 0.0
S1516 S 0.31054 0.50446 0.66531 0.0
N1517 N 0.27289 0.48924 0.67075 0.0
N1518 N 0.32167 0.4897 0.6985 0.0
C1519 C 0.29433 0.47158 0.71597 0.0
C1520 C 0.26786 0.47149 0.70115 0.0
C1521 C 0.39288 0.8658 0.21562 0.0
C1522 C 0.36567 0.85817 0.19579 0.0
C1523 C 0.422 0.87765 0.19814 0.0
C1524 C 0.42574 0.88187 0.1596 0.0
H1525 H 0.39196 0.86365 0.24531 0.0
H1526 H 0.442 0.88373 0.21525 0.0
S1527 S 0.36214 0.86479 0.09411 0.0
N1528 N 0.34477 0.85572 0.13464 0.0
N1529 N 0.399 0.87664 0.10203 0.0
C1530 C 0.39867 0.87348 0.13915 0.0
C1531 C 0.36896 0.8621 0.1571 0.0
C1532 C 0.17154 0.53105 0.14113 0.0
C1533 C 0.16604 0.55249 0.1601 0.0
C1534 C 0.18215 0.51294 0.15973 0.0
C1535 C 0.18853 0.51589 0.19805 0.0
H1536 H 0.16646 0.5273 0.11201 0.0
H1537 H 0.18493 0.49613 0.14394 0.0
S1538 S 0.17957 0.57011 0.26002 0.0
N1539 N 0.16885 0.5761 0.21935 0.0
N1540 N 0.18921 0.54336 0.25352 0.0
C1541 C 0.1841 0.53811 0.21682 0.0
C1542 C 0.1728 0.55595 0.19814 0.0
C1543 C 0.53115 0.67563 0.1602 0.0
C1544 C 0.52895 0.6792 0.19867 0.0
C1545 C 0.513 0.64673 0.14194 0.0
C1546 C 0.49223 0.61968 0.16136 0.0
H1547 H 0.54745 0.69529 0.14402 0.0
H1548 H 0.51623 0.64535 0.11269 0.0
S1549 S 0.4766 0.61585 0.26188 0.0
N1550 N 0.50284 0.6524 0.25481 0.0
N1551 N 0.46999 0.59896 0.22126 0.0
C1552 C 0.48946 0.62311 0.19957 0.0
C1553 C 0.50736 0.65244 0.21793 0.0
C1554 C 0.13747 0.55896 0.68101 0.0
C1555 C 0.12691 0.57595 0.661 0.0
C1556 C 0.13882 0.53432 0.66508 0.0
C1557 C 0.12912 0.52525 0.62865 0.0
H1558 H 0.14352 0.56382 0.70981 0.0
H1559 H 0.14574 0.52115 0.68232 0.0
S1560 S 0.10401 0.56488 0.56262 0.0
N1561 N 0.11025 0.58441 0.60136 0.0
N1562 N 0.11165 0.53702 0.57164 0.0
C1563 C 0.12002 0.54294 0.6076 0.0
C1564 C 0.11907 0.56846 0.62375 0.0
C1565 C 0.51354 0.62181 0.67347 0.0
C1566 C 0.51964 0.6232 0.63565 0.0
C1567 C 0.48866 0.59555 0.689 0.0
C1568 C 0.46855 0.57024 0.66698 0.0
H1569 H 0.52935 0.64013 0.69153 0.0
H1570 H 0.48625 0.59445 0.71867 0.0
S1571 S 0.46875 0.56778 0.56505 0.0
N1572 N 0.50039 0.60047 0.57562 0.0
N1573 N 0.45224 0.55153 0.60459 0.0
C1574 C 0.47233 0.57305 0.62857 0.0
C1575 C 0.49819 0.59953 0.6129 0.0
C1576 C 0.48495 0.92312 0.62535 0.0
C1577 C 0.48556 0.91717 0.66305 0.0
C1578 C 0.45899 0.92233 0.60961 0.0
C1579 C 0.43296 0.91553 0.63107 0.0
H1580 H 0.5049 0.92911 0.60816 0.0
H1581 H 0.45957 0.92798 0.58076 0.0
S1582 S 0.42273 0.8977 0.7308 0.0
N1583 N 0.45768 0.90391 0.7213 0.0
N1584 N 0.40871 0.9016 0.69136 0.0
C1585 C 0.43265 0.90801 0.6683 0.0
C1586 C 0.4591 0.90916 0.68444 0.0
C1587 C 0.32387 0.49424 0.23897 0.0
C1588 C 0.2967 0.48722 0.21934 0.0
C1589 C 0.3528 0.50478 0.22077 0.0
C1590 C 0.35625 0.50963 0.18214 0.0
H1591 H 0.32259 0.49047 0.26841 0.0
H1592 H 0.37258 0.50881 0.23714 0.0
S1593 S 0.29257 0.49644 0.11829 0.0
N1594 N 0.27576 0.48703 0.15903 0.0
N1595 N 0.32921 0.50723 0.12557 0.0
C1596 C 0.32935 0.50365 0.16263 0.0
C1597 C 0.30001 0.49241 0.18094 0.0
C1598 C 0.55385 0.81633 0.18085 0.0
C1599 C 0.55819 0.81705 0.2194 0.0
C1600 C 0.54215 0.83364 0.16317 0.0
C1601 C 0.53478 0.85348 0.18278 0.0
H1602 H 0.55975 0.80222 0.16388 0.0
H1603 H 0.53992 0.83221 0.13349 0.0
S1604 S 0.54185 0.86439 0.28437 0.0
N1605 N 0.55338 0.83914 0.27671 0.0
N1606 N 0.53273 0.87244 0.24376 0.0
C1607 C 0.53882 0.85435 0.22148 0.0
C1608 C 0.55006 0.83602 0.23963 0.0
C1609 C 0.22973 0.74491 0.17982 0.0
C1610 C 0.22877 0.74843 0.21834 0.0
C1611 C 0.21272 0.7159 0.16211 0.0
C1612 C 0.19295 0.68859 0.18168 0.0
H1613 H 0.24379 0.76501 0.16289 0.0
H1614 H 0.2143 0.71516 0.13245 0.0
S1615 S 0.18167 0.68443 0.2832 0.0
N1616 N 0.20667 0.72135 0.27562 0.0
N1617 N 0.17388 0.66732 0.24258 0.0
C1618 C 0.19188 0.69165 0.22036 0.0
C1619 C 0.20992 0.72124 0.23855 0.0
C1620 C 0.36388 0.19353 0.13385 0.0
C1621 C 0.3817 0.21894 0.15703 0.0
C1622 C 0.36334 0.16557 0.13894 0.0
C1623 C 0.38078 0.16275 0.16715 0.0
H1624 H 0.34778 0.19427 0.11447 0.0
H1625 H 0.34727 0.14552 0.12312 0.0
S1626 S 0.43547 0.22431 0.23 0.0
N1627 N 0.42005 0.24093 0.20536 0.0
N1628 N 0.41999 0.18857 0.21443 0.0
C1629 C 0.4014 0.18906 0.18745 0.0
C1630 C 0.40163 0.21728 0.18252 0.0
C1631 C 0.86593 0.16353 0.16381 0.0
C1632 C 0.84413 0.15394 0.19258 0.0
C1633 C 0.89472 0.19023 0.16706 0.0
C1634 C 0.90249 0.20786 0.19929 0.0
H1635 H 0.86016 0.15094 0.13806 0.0
H1636 H 0.91008 0.19827 0.14349 0.0
S1637 S 0.85408 0.19144 0.28297 0.0
N1638 N 0.83274 0.16261 0.25481 0.0
N1639 N 0.88678 0.21358 0.26084 0.0
C1640 C 0.88158 0.19746 0.22902 0.0
C1641 C 0.85233 0.17021 0.2257 0.0
C1642 C 0.86232 0.72176 0.17807 0.0
C1643 C 0.84453 0.71188 0.21021 0.0
C1644 C 0.88812 0.71821 0.17419 0.0
C1645 C 0.89653 0.70425 0.20206 0.0
H1646 H 0.85463 0.72954 0.15464 0.0
H1647 H 0.90043 0.72466 0.14827 0.0
S1648 S 0.86028 0.67942 0.2938 0.0
N1649 N 0.83924 0.69161 0.27233 0.0
N1650 N 0.88794 0.68474 0.26468 0.0
C1651 C 0.88097 0.6974 0.23579 0.0
C1652 C 0.85482 0.7013 0.23993 0.0
C1653 C 0.18632 0.34278 0.3206 0.0
C1654 C 0.19845 0.37436 0.3289 0.0
C1655 C 0.1823 0.32076 0.34807 0.0
C1656 C 0.18996 0.3288 0.38567 0.0
H1657 H 0.17961 0.33484 0.2926 0.0
H1658 H 0.1731 0.297 0.3395 0.0
S1659 S 0.22333 0.40837 0.42266 0.0
N1660 N 0.21873 0.41232 0.37842 0.0
N1661 N 0.2109 0.37129 0.42903 0.0
C1662 C 0.20218 0.36026 0.39433 0.0
C1663 C 0.20645 0.38275 0.3664 0.0
C1664 C 0.66415 0.832 0.36473 0.0
C1665 C 0.67238 0.83235 0.32715 0.0
C1666 C 0.68601 0.85014 0.39239 0.0
C1667 C 0.7177 0.86974 0.38443 0.0
H1668 H 0.64032 0.81738 0.37315 0.0
H1669 H 0.67784 0.84888 0.42029 0.0
S1670 S 0.75228 0.87911 0.29079 0.0
N1671 N 0.71523 0.85423 0.28419 0.0
N1672 N 0.75593 0.88757 0.33506 0.0
C1673 C 0.72629 0.8701 0.34693 0.0
C1674 C 0.70394 0.85177 0.3188 0.0
C1675 C 0.19269 0.85884 0.31629 0.0
C1676 C 0.21252 0.84725 0.32525 0.0
C1677 C 0.17444 0.8631 0.34337 0.0
C1678 C 0.17494 0.85625 0.38126 0.0
H1679 H 0.19135 0.86497 0.28805 0.0
H1680 H 0.1597 0.87194 0.33431 0.0
S1681 S 0.22226 0.82473 0.4201 0.0
N1682 N 0.23068 0.82847 0.37582 0.0
N1683 N 0.19718 0.83672 0.42561 0.0
C1684 C 0.19456 0.84456 0.39056 0.0
C1685 C 0.21299 0.84005 0.36306 0.0
C1686 C 0.70944 0.85072 0.88883 0.0
C1687 C 0.70134 0.83156 0.85758 0.0
C1688 C 0.71233 0.87984 0.88689 0.0
C1689 C 0.70766 0.89089 0.85356 0.0
H1690 H 0.71355 0.84314 0.91508 0.0
H1691 H 0.71712 0.89336 0.91184 0.0
S1692 S 0.68623 0.84968 0.76393 0.0
N1693 N 0.68946 0.82572 0.79237 0.0
N1694 N 0.69421 0.88051 0.78864 0.0
C1695 C 0.70047 0.87236 0.82182 0.0
C1696 C 0.69754 0.84266 0.82384 0.0
C1697 C 0.19438 0.86046 0.8251 0.0
C1698 C 0.18989 0.83135 0.83491 0.0
C1699 C 0.22361 0.88674 0.8273 0.0
C1700 C 0.24929 0.8848 0.83962 0.0
H1701 H 0.17496 0.86327 0.81758 0.0
H1702 H 0.2254 0.90899 0.82271 0.0
S1703 S 0.25102 0.81357 0.86214 0.0
N1704 N 0.21445 0.80158 0.85235 0.0
N1705 N 0.26946 0.85143 0.85674 0.0
C1706 C 0.24572 0.85561 0.84616 0.0
C1707 C 0.21595 0.82879 0.84408 0.0
C1708 C 0.16766 0.33692 0.83098 0.0
C1709 C 0.17058 0.36512 0.84255 0.0
C1710 C 0.19337 0.33309 0.82867 0.0
C1711 C 0.22286 0.35711 0.83839 0.0
H1712 H 0.14513 0.31699 0.82567 0.0
H1713 H 0.19003 0.31089 0.82001 0.0
S1714 S 0.24337 0.43679 0.8654 0.0
N1715 N 0.20549 0.41844 0.85987 0.0
N1716 N 0.25408 0.41113 0.85653 0.0
C1717 C 0.22633 0.38587 0.84856 0.0
C1718 C 0.20015 0.38993 0.85021 0.0
C1719 C 0.85506 0.67971 0.65541 0.0
C1720 C 0.86818 0.71153 0.66298 0.0
C1721 C 0.8507 0.65788 0.68335 0.0
C1722 C 0.85896 0.66632 0.72079 0.0
H1723 H 0.84779 0.67141 0.62764 0.0
H1724 H 0.8407 0.63392 0.67526 0.0
S1725 S 0.89508 0.74664 0.7559 0.0
N1726 N 0.8901 0.75016 0.71165 0.0
N1727 N 0.88164 0.70948 0.76311 0.0
C1728 C 0.87219 0.69802 0.72872 0.0
C1729 C 0.87681 0.72033 0.7003 0.0
C1730 C 0.37505 0.18986 0.64914 0.0
C1731 C 0.3432 0.17163 0.6574 0.0
C1732 C 0.39743 0.20803 0.67637 0.0
C1733 C 0.38954 0.20886 0.71379 0.0
H1734 H 0.3829 0.1898 0.62141 0.0
H1735 H 0.42137 0.22153 0.66787 0.0
S1736 S 0.30952 0.16549 0.75092 0.0
N1737 N 0.30533 0.15619 0.7069 0.0
N1738 N 0.34687 0.18931 0.75702 0.0
C1739 C 0.35784 0.19066 0.72245 0.0
C1740 C 0.33502 0.17245 0.69475 0.0
C1741 C 0.88391 0.1751 0.70172 0.0
C1742 C 0.88347 0.18236 0.66396 0.0
C1743 C 0.8658 0.17926 0.72908 0.0
C1744 C 0.84622 0.19122 0.72055 0.0
H1745 H 0.89849 0.16597 0.71046 0.0
H1746 H 0.86704 0.17275 0.75717 0.0
S1747 S 0.83692 0.21513 0.62626 0.0
N1748 N 0.86165 0.20276 0.62024 0.0
N1749 N 0.82848 0.21097 0.67054 0.0
C1750 C 0.84587 0.1989 0.68288 0.0
C1751 C 0.8641 0.19442 0.65509 0.0
C1752 C 1.02362 0.52984 0.55763 0.0
C1753 C 1.02305 0.543 0.52379 0.0
C1754 C 1.02027 0.50041 0.5591 0.0
C1755 C 1.01587 0.48312 0.52679 0.0
H1756 H 1.02752 0.54269 0.58297 0.0
H1757 H 1.02294 0.49195 0.5855 0.0
S1758 S 1.00873 0.50574 0.432 0.0
N1759 N 1.01452 0.53535 0.45768 0.0
N1760 N 1.00863 0.48008 0.46063 0.0
C1761 C 1.01357 0.49535 0.49309 0.0
C1762 C 1.01711 0.5253 0.49153 0.0
C1763 C 0.51991 0.54293 0.54506 0.0
C1764 C 0.54178 0.55311 0.51636 0.0
C1765 C 0.49102 0.51662 0.54112 0.0
C1766 C 0.48302 0.49996 0.50822 0.0
H1767 H 0.52575 0.55456 0.57147 0.0
H1768 H 0.47595 0.50775 0.56491 0.0
S1769 S 0.53044 0.51933 0.42329 0.0
N1770 N 0.55246 0.54672 0.45281 0.0
N1771 N 0.49768 0.49679 0.44514 0.0
C1772 C 0.50347 0.51154 0.47808 0.0
C1773 C 0.5331 0.53831 0.48223 0.0
C1774 C 0.5314 0.98109 0.53808 0.0
C1775 C 0.54855 0.98971 0.50545 0.0
C1776 C 0.50636 0.98577 0.5422 0.0
C1777 C 0.49754 0.9989 0.51375 0.0
H1778 H 0.53947 0.97403 0.56182 0.0
H1779 H 0.49507 0.98096 0.56877 0.0
S1780 S 0.53181 0.02009 0.42067 0.0
N1781 N 0.55285 1.00805 0.44245 0.0
N1782 N 0.50491 1.01614 0.4502 0.0
C1783 C 0.51221 1.00419 0.47955 0.0
C1784 C 0.53791 0.99957 0.47535 0.0
C1785 C 0.51765 0.98804 1.01495 0.0
C1786 C 0.52533 0.99609 0.05258 0.0
C1787 C 0.5214 1.00999 0.9874 0.0
C1788 C 0.53334 0.04159 0.99556 0.0
H1789 H 0.50859 0.9643 1.00641 0.0
H1790 H 0.51469 1.00197 0.95943 0.0
S1791 S 0.55793 0.07565 0.08941 0.0
N1792 N 0.5459 0.03866 0.09581 0.0
N1793 N 0.55332 0.07951 0.04515 0.0
C1794 C 0.54135 0.04998 0.03311 0.0
C1795 C 0.53729 0.02755 0.06111 0.0
C1796 C 0.99784 0.50179 0.03021 0.0
C1797 C 1.00619 0.50267 0.99259 0.0
C1798 C 1.0198 0.51865 0.05831 0.0
C1799 C 0.05168 0.5374 0.05074 0.0
H1800 H 0.97385 0.4877 0.03831 0.0
H1801 H 1.01156 0.51712 0.08622 0.0
S1802 S 0.0866 0.54751 0.95724 0.0
N1803 N 0.04934 0.52399 0.95005 0.0
N1804 N 0.09023 0.55499 1.00177 0.0
C1805 C 0.06038 0.53827 1.01322 0.0
C1806 C 0.03794 0.52124 0.98465 0.0
C1807 C 0.51021 0.53019 1.0164 0.0
C1808 C 0.51081 0.52251 0.05398 0.0
C1809 C 0.52836 0.5266 0.9887 0.0
C1810 C 0.54825 0.51492 0.99667 0.0
H1811 H 0.49535 0.53908 1.00801 0.0
H1812 H 0.52689 0.53328 0.96077 0.0
S1813 S 0.55824 0.4903 0.09024 0.0
N1814 N 0.53312 0.50209 0.09694 0.0
N1815 N 0.56664 0.49511 0.04594 0.0
C1816 C 0.5489 0.50694 0.03416 0.0
C1817 C 0.53049 0.51075 0.06233 0.0
C1818 C 0.33408 0.28135 0.97327 0.0
C1819 C 0.33264 0.26817 1.00789 0.0
C1820 C 0.34956 0.27686 0.94365 0.0
C1821 C 0.36372 0.25868 0.94748 0.0
H1822 H 0.32361 0.29556 0.96921 0.0
H1823 H 0.35085 0.28812 0.9177 0.0
S1824 S 0.36275 0.21567 0.03108 0.0
N1825 N 0.34455 0.23412 0.04343 0.0
N1826 N 0.37283 0.22529 0.98773 0.0
C1827 C 0.36149 0.24458 0.98163 0.0
C1828 C 0.34613 0.24939 1.01179 0.0
C1829 C 0.76128 0.06086 0.97735 0.0
C1830 C 0.77294 0.0714 1.0128 0.0
C1831 C 0.76777 0.08184 0.9483 0.0
C1832 C 0.78642 0.114 0.95369 0.0
H1833 H 0.74693 0.03634 0.97211 0.0
H1834 H 0.7579 0.07285 0.9215 0.0
S1835 S 0.82674 0.15284 0.03987 0.0
N1836 N 0.80678 0.11584 0.05067 0.0
N1837 N 0.81887 0.15496 0.99621 0.0
C1838 C 0.79905 0.12466 0.9887 0.0
C1839 C 0.79237 0.10343 1.0182 0.0
C1840 C 0.9401 0.66265 0.98028 0.0
C1841 C 0.92986 0.67917 0.95852 0.0
C1842 C 0.96129 0.67698 1.00921 0.0
C1843 C 0.97364 0.70854 1.01685 0.0
H1844 H 0.93205 0.63854 0.97458 0.0
H1845 H 0.96829 0.66336 0.02546 0.0
S1846 S 0.95134 0.76114 0.97181 0.0
N1847 N 0.93129 0.72806 0.94972 0.0
N1848 N 0.97206 0.75522 1.00265 0.0
C1849 C 0.96318 0.72517 0.99587 0.0
C1850 C 0.94111 0.71046 0.96709 0.0
C1851 C 0.28325 0.33437 0.63522 0.0
C1852 C 0.27182 0.3499 0.61364 0.0
C1853 C 0.30594 0.34997 0.66225 0.0
C1854 C 0.31866 0.38185 0.66813 0.0
H1855 H 0.27464 0.30994 0.63122 0.0
H1856 H 0.31329 0.33691 0.67902 0.0
S1857 S 0.29541 0.43287 0.62102 0.0
N1858 N 0.27378 0.39872 0.60188 0.0
N1859 N 0.31734 0.4282 0.65128 0.0
C1860 C 0.30773 0.39774 0.64657 0.0
C1861 C 0.28412 0.38175 0.61971 0.0
C1862 C 0.66632 0.94545 0.6464 0.0
C1863 C 0.67352 0.9428 0.68317 0.0
C1864 C 0.68119 0.94001 0.61688 0.0
C1865 C 0.70361 0.93113 0.6227 0.0
H1866 H 0.64882 0.95153 0.64025 0.0
H1867 H 0.67505 0.94295 0.58922 0.0
S1868 S 0.73112 0.92109 0.71383 0.0
N1869 N 0.70553 0.93165 0.7237 0.0
N1870 N 0.73188 0.91966 0.66857 0.0
C1871 C 0.71112 0.92855 0.65941 0.0
C1872 C 0.6965 0.93478 0.68945 0.0
C1873 C 0.10167 0.74776 0.61082 0.0
C1874 C 0.12271 0.77973 0.61413 0.0
C1875 C 0.09552 0.72751 0.64063 0.0
C1876 C 0.10989 0.73869 0.67481 0.0
H1877 H 0.08941 0.73842 0.58521 0.0
H1878 H 0.07906 0.70314 0.63711 0.0
S1879 S 0.17044 0.81946 0.69594 0.0
N1880 N 0.16038 0.82083 0.65303 0.0
N1881 N 0.14867 0.78318 0.709 0.0
C1882 C 0.13181 0.77042 0.67799 0.0
C1883 C 0.13823 0.79084 0.64769 0.0
C1884 C 0.67539 0.75231 0.0674 0.0
C1885 C 0.69157 0.77619 0.09322 0.0
C1886 C 0.69085 0.74682 0.03859 0.0
C1887 C 0.72319 0.76436 0.03512 0.0
H1888 H 0.65057 0.73747 0.06958 0.0
H1889 H 0.67742 0.72865 1.01899 0.0
S1890 S 0.77628 0.83129 0.0929 0.0
N1891 N 0.74176 0.8193 0.11083 0.0
N1892 N 0.77077 0.80751 0.05855 0.0
C1893 C 0.73967 0.78825 0.06057 0.0
C1894 C 0.72391 0.79452 0.08911 0.0
C1895 C 0.30871 0.95921 0.04609 0.0
C1896 C 0.28902 0.97101 0.03859 0.0
C1897 C 0.30119 0.93662 0.07337 0.0
C1898 C 0.2733 0.92444 0.09336 0.0
H1899 H 0.32997 0.96741 0.03067 0.0
H1900 H 0.31745 0.9288 0.079 0.0
S1901 S 0.2119 0.94466 0.08037 0.0
N1902 N 0.23956 0.96746 0.0516 0.0
N1903 N 0.22479 0.92404 0.1013 0.0
C1904 C 0.25304 0.93547 0.08527 0.0
C1905 C 0.26105 0.95897 0.05828 0.0
C1906 C 0.09176 0.34161 0.0989 0.0
C1907 C 0.12405 0.35491 0.09473 0.0
C1908 C 0.0715 0.32724 0.06921 0.0
C1909 C 0.08296 0.32597 0.03437 0.0
H1910 H 0.08214 0.34275 0.12516 0.0
H1911 H 0.04688 0.31755 0.07337 0.0
S1912 S 0.16501 0.35302 1.01063 0.0
N1913 N 0.16605 0.36307 0.05411 0.0
N1914 N 0.12828 0.33608 0.99849 0.0
C1915 C 0.11508 0.33818 0.03028 0.0
C1916 C 0.13557 0.35269 0.06039 0.0
C1917 C 0.78396 0.70521 0.40381 0.0
C1918 C 0.79348 0.68939 0.42785 0.0
C1919 C 0.76248 0.68967 0.37557 0.0
C1920 C 0.749 0.65759 0.37099 0.0
H1921 H 0.79291 0.72977 0.40702 0.0
H1922 H 0.75629 0.7028 0.35726 0.0
S1923 S 0.76817 0.6058 0.42337 0.0
N1924 N 0.78965 0.64006 0.4424 0.0
N1925 N 0.74809 0.61081 0.3908 0.0
C1926 C 0.75837 0.6415 0.39445 0.0
C1927 C 0.78085 0.65738 0.42251 0.0
C1928 C 0.38562 0.12313 0.4156 0.0
C1929 C 0.35351 0.1054 0.42174 0.0
C1930 C 0.40011 0.1153 0.38812 0.0
C1931 C 0.38312 0.08974 0.36492 0.0
H1932 H 0.39979 0.14355 0.43195 0.0
H1933 H 0.42478 0.13018 0.38416 0.0
S1934 S 0.29882 0.035 0.36947 0.0
N1935 N 0.30537 0.0599 0.40291 0.0
N1936 N 0.33264 0.04656 0.34965 0.0
C1937 C 0.35106 0.0719 0.37024 0.0
C1938 C 0.33626 0.0794 0.39895 0.0
C1939 C 0.9504 0.28871 0.43251 0.0
C1940 C 0.93987 0.257 0.42712 0.0
C1941 C 0.95517 0.30862 0.40276 0.0
C1942 C 0.95028 0.29787 0.36623 0.0
H1943 H 0.95521 0.2984 0.45997 0.0
H1944 H 0.96265 0.33261 0.40848 0.0
S1945 S 0.92314 0.21705 0.3368 0.0
N1946 N 0.92391 0.21583 0.38204 0.0
N1947 N 0.93498 0.25338 0.32635 0.0
C1948 C 0.94048 0.26639 0.36036 0.0
C1949 C 0.93478 0.24599 0.39066 0.0
C1950 C 1.01864 0.60955 0.28344 0.0
C1951 C 0.03791 0.5968 0.28922 0.0
C1952 C 1.00432 0.61575 0.31293 0.0
C1953 C 1.00908 0.61 0.34954 0.0
H1954 H 1.01463 0.61494 0.25584 0.0
H1955 H 0.98929 0.62499 0.30694 0.0
S1956 S 0.0566 0.57582 0.37973 0.0
N1957 N 0.0599 0.57757 0.33454 0.0
N1958 N 0.03419 0.59027 0.38983 0.0
C1959 C 1.02857 0.59757 0.35576 0.0
C1960 C 0.04267 0.59076 0.32571 0.0
C1961 C 0.46677 0.41364 0.32156 0.0
C1962 C 0.44249 0.40523 0.34672 0.0
C1963 C 0.47235 0.43498 0.29338 0.0
C1964 C 0.45351 0.44833 0.28879 0.0
H1965 H 0.48229 0.40453 0.32448 0.0
H1966 H 0.49189 0.44133 0.27532 0.0
S1967 S 0.38509 0.43142 0.34605 0.0
N1968 N 0.39891 0.41084 0.36506 0.0
N1969 N 0.40797 0.44944 0.31079 0.0
C1970 C 0.42856 0.43932 0.3134 0.0
C1971 C 0.4234 0.41813 0.34262 0.0
C1972 C 0.63593 0.06047 0.31845 0.0
C1973 C 0.64353 0.0444 0.3442 0.0
C1974 C 0.61426 0.04478 0.29057 0.0
C1975 C 0.59973 1.0124 0.28683 0.0
H1976 H 0.64591 0.08527 0.3207 0.0
H1977 H 0.60857 0.05819 0.27211 0.0
S1978 S 0.61388 0.96012 0.34613 0.0
N1979 N 0.6357 0.99473 0.3642 0.0
N1980 N 0.59647 0.9652 0.31044 0.0
C1981 C 0.60786 0.99619 0.31208 0.0
C1982 C 0.62939 1.0122 0.34104 0.0
C1983 C 0.42027 0.97915 0.72623 0.0
C1984 C 0.41401 0.996 0.70006 0.0
C1985 C 0.4415 0.99401 0.75478 0.0
C1986 C 0.45693 0.02639 0.75901 0.0
H1987 H 0.40955 0.95431 0.72384 0.0
H1988 H 0.44618 0.97991 0.77335 0.0
S1989 S 0.44596 0.08071 0.69957 0.0
N1990 N 0.4238 0.04651 0.68067 0.0
N1991 N 0.46214 0.0745 0.7357 0.0
C1992 C 0.44998 0.04342 0.73357 0.0
C1993 C 0.42891 0.02823 0.70387 0.0
C1994 C 0.03089 0.44004 0.69332 0.0
C1995 C 0.04995 0.42713 0.69936 0.0
C1996 C 1.01649 0.44625 0.72255 0.0
C1997 C 1.02029 0.43963 0.75914 0.0
H1998 H 1.02783 0.44645 0.66582 0.0
H1999 H 1.00282 0.45701 0.71643 0.0
S2000 S 0.06476 0.40221 0.78949 0.0
N2001 N 0.07019 0.40603 0.74453 0.0
N2002 N 0.04226 0.41664 0.79941 0.0
C2003 C 0.03832 0.42558 0.76548 0.0
C2004 C 0.05331 0.41958 0.73566 0.0
C2005 C 0.63449 0.62019 0.70705 0.0
C2006 C 0.6183 0.63636 0.70419 0.0
C2007 C 0.6283 0.59897 0.73576 0.0
C2008 C 0.60488 0.59224 0.762 0.0
H2009 H 0.65212 0.62403 0.68701 0.0
H2010 H 0.64218 0.58795 0.73745 0.0
S2011 S 0.55345 0.62607 0.76373 0.0
N2012 N 0.5773 0.6436 0.72913 0.0
N2013 N 0.56369 0.60194 0.78074 0.0
C2014 C 0.58793 0.60771 0.75855 0.0
C2015 C 0.59511 0.63015 0.73028 0.0
C2016 C 0.21195 0.20763 0.25379 0.0
C2017 C 0.18839 0.2141 0.26245 0.0
C2018 C 0.22975 0.21943 0.22174 0.0
C2019 C 0.22456 0.23796 0.19678 0.0
H2020 H 0.21858 0.19579 0.2736 0.0
H2021 H 0.24854 0.21489 0.21719 0.0
S2022 S 0.16342 0.2589 0.20487 0.0
N2023 N 0.15933 0.23842 0.24231 0.0
N2024 N 0.19204 0.25961 0.18124 0.0
C2025 C 0.1994 0.24245 0.20352 0.0
C2026 C 0.18152 0.23076 0.23653 0.0
C2027 C 0.80475 0.96497 0.20378 0.0
C2028 C 0.81115 0.99511 0.19568 0.0
C2029 C 0.81528 0.95855 0.23677 0.0
C2030 C 0.83321 0.98212 0.26227 0.0
H2031 H 0.78974 0.94598 0.18592 0.0
H2032 H 0.80724 0.93466 0.24384 0.0
S2033 S 0.86046 0.06545 0.25107 0.0
N2034 N 0.83982 0.04928 0.21373 0.0
N2035 N 0.85945 0.03697 0.27519 0.0
C2036 C 0.8421 1.01259 0.25271 0.0
C2037 C 0.83106 1.01913 0.21961 0.0
C2038 C 0.04289 0.79823 0.24247 0.0
C2039 C 0.05381 0.81319 0.20838 0.0
C2040 C 0.04783 0.81492 0.2751 0.0
C2041 C 0.06375 0.84746 0.27534 0.0
H2042 H 0.03021 0.77325 0.24412 0.0
H2043 H 0.03933 0.80206 0.30052 0.0
S2044 S 0.09696 0.89808 0.19355 0.0
N2045 N 0.08151 0.86269 0.17687 0.0
N2046 N 0.09047 0.89412 0.23834 0.0
C2047 C 0.07515 0.86286 0.24155 0.0
C2048 C 0.07024 0.84575 0.20812 0.0
C2049 C 0.84504 0.82983 0.79086 0.0
C2050 C 0.87069 0.82652 0.78263 0.0
C2051 C 0.82769 0.81714 0.82297 0.0
C2052 C 0.83533 0.80077 0.84852 0.0
H2053 H 0.83654 0.83968 0.77062 0.0
H2054 H 0.80734 0.81925 0.82702 0.0
S2055 S 0.9035 0.79015 0.84268 0.0
N2056 N 0.90503 0.80877 0.80443 0.0
N2057 N 0.87292 0.78565 0.86556 0.0
C2058 C 0.86264 0.79983 0.84235 0.0
C2059 C 0.88018 0.81255 0.80926 0.0
C2060 C 0.2476 0.06094 0.84056 0.0
C2061 C 0.24813 0.03321 0.84504 0.0
C2062 C 0.23732 0.06756 0.80754 0.0
C2063 C 0.22642 0.04642 0.7781 0.0
H2064 H 0.25674 0.07839 0.8619 0.0
H2065 H 0.23996 0.09027 0.80402 0.0
S2066 S 0.21984 0.96929 0.77688 0.0
N2067 N 0.23426 0.98336 0.81787 0.0
N2068 N 0.21496 0.996 0.75635 0.0
C2069 C 0.22485 1.01785 0.78316 0.0
C2070 C 0.23569 1.01121 0.81643 0.0
C2071 C 1.00871 0.22518 0.77303 0.0
C2072 C 0.99295 0.19265 0.77264 0.0
C2073 C 1.01358 0.24176 0.80574 0.0
C2074 C 1.00278 0.22672 0.83981 0.0
H2075 H 1.01726 0.23813 0.74766 0.0
H2076 H 1.02627 0.26676 0.80422 0.0
S2077 S 0.95964 0.14178 0.85423 0.0
N2078 N 0.96614 0.14587 0.80944 0.0
N2079 N 0.97505 0.17712 0.87109 0.0
C2080 C 0.9863 0.19415 0.8399 0.0
C2081 C 0.98144 0.17714 0.80636 0.0
C2082 C 0.85044 0.57307 0.57129 0.0
C2083 C 0.85445 0.55328 0.59559 0.0
C2084 C 0.86721 0.58335 0.53806 0.0
C2085 C 0.88913 0.57477 0.52856 0.0
H2086 H 0.83615 0.58268 0.57953 0.0
H2087 H 0.86471 0.59985 0.52125 0.0
S2088 S 0.90538 0.52035 0.58021 0.0
N2089 N 0.87953 0.52317 0.6057 0.0
N2090 N 0.91107 0.54234 0.54381 0.0
C2091 C 0.89149 0.55312 0.5512 0.0
C2092 C 0.87411 0.54237 0.58453 0.0
C2093 C 0.49525 0.34824 0.55385 0.0
C2094 C 0.46804 0.32509 0.53728 0.0
C2095 C 0.50664 0.34268 0.58647 0.0
C2096 C 0.49087 0.3139 0.60456 0.0
H2097 H 0.5077 0.37107 0.54164 0.0
H2098 H 0.52763 0.36144 0.59808 0.0
S2099 S 0.4181 0.24559 0.57174 0.0
N2100 N 0.42605 0.27217 0.54 0.0
N2101 N 0.44606 0.26178 0.60254 0.0
C2102 C 0.46381 0.29026 0.58755 0.0
C2103 C 0.4527 0.29585 0.5537 0.0
C2104 C 0.6955 0.14702 0.55948 0.0
C2105 C 0.7188 0.1543 0.53295 0.0
C2106 C 0.7012 0.16467 0.59155 0.0
C2107 C 0.73051 0.19026 0.5987 0.0
H2108 H 0.67281 0.12681 0.5561 0.0
H2109 H 0.68332 0.15659 0.61243 0.0
S2110 S 0.79856 0.22127 0.5367 0.0
N2111 N 0.77149 0.19093 0.51443 0.0
N2112 N 0.78245 0.22349 0.57545 0.0
C2113 C 0.7534 0.1991 0.57137 0.0
C2114 C 0.7475 0.1813 0.53834 0.0
C2115 C 0.49155 0.15008 0.15544 0.0
C2116 C 0.49936 0.13448 0.1819 0.0
C2117 C 0.50887 0.162 0.12307 0.0
C2118 C 0.53466 0.15871 0.11559 0.0
H2119 H 0.47105 0.15202 0.15895 0.0
H2120 H 0.50032 0.17132 0.1022 0.0
S2121 S 0.56709 0.12302 0.17729 0.0
N2122 N 0.53675 0.11935 0.19995 0.0
N2123 N 0.56871 0.14101 0.13849 0.0
C2124 C 0.54409 0.14523 0.14291 0.0
C2125 C 0.5266 0.1333 0.17617 0.0
C2126 C 0.92489 0.41058 0.17382 0.0
C2127 C 0.91538 0.3799 0.18347 0.0
C2128 C 0.91441 0.41735 0.14101 0.0
C2129 C 0.89358 0.39368 0.11722 0.0
H2130 H 0.94216 0.42943 0.19019 0.0
H2131 H 0.92466 0.44129 0.1326 0.0
S2132 S 0.85751 0.3096 0.13383 0.0
N2133 N 0.8806 0.32565 0.16947 0.0
N2134 N 0.86123 0.33851 0.10812 0.0
C2135 C 0.8817 0.36302 0.12859 0.0
C2136 C 0.89258 0.35611 0.16159 0.0
C2137 C 0.64264 0.52603 0.17368 0.0
C2138 C 0.67289 0.54926 0.18241 0.0
C2139 C 0.63653 0.50858 0.14115 0.0
C2140 C 0.66049 0.51329 0.11671 0.0
H2141 H 0.62343 0.52274 0.19072 0.0
H2142 H 0.61268 0.49312 0.1335 0.0
S2143 S 0.74415 0.56692 0.13092 0.0
N2144 N 0.72746 0.57261 0.16693 0.0
N2145 N 0.71577 0.54003 0.10603 0.0
C2146 C 0.69097 0.53423 0.12715 0.0
C2147 C 0.69721 0.55221 0.15987 0.0
C2148 C 0.55716 0.8866 0.88544 0.0
C2149 C 0.55419 0.90809 0.86322 0.0
C2150 C 0.53935 0.87426 0.91738 0.0
C2151 C 0.51812 0.88322 0.92869 0.0
H2152 H 0.57446 0.8803 0.879 0.0
H2153 H 0.54452 0.8601 0.93527 0.0
S2154 S 0.49911 0.93608 0.87827 0.0
N2155 N 0.52592 0.9351 0.85258 0.0
N2156 N 0.49324 0.91288 0.91354 0.0
C2157 C 0.51316 0.90275 0.90518 0.0
C2158 C 0.53102 0.91499 0.87223 0.0
C2159 C 0.14714 0.62771 0.90451 0.0
C2160 C 0.16527 0.65111 0.93009 0.0
C2161 C 0.13635 0.63433 0.87184 0.0
C2162 C 0.14266 0.6645 0.86413 0.0
H2163 H 0.13928 0.6038 0.91119 0.0
H2164 H 0.12137 0.61546 0.85382 0.0
S2165 S 0.19249 0.73452 0.91972 0.0
N2166 N 0.19157 0.70591 0.94345 0.0
N2167 N 0.17149 0.71855 0.88255 0.0
C2168 C 0.16265 0.68836 0.88817 0.0
C2169 C 0.17394 0.68163 0.92097 0.0
C2170 C 0.41447 0.52535 0.90463 0.0
C2171 C 0.3914 0.51606 0.93187 0.0
C2172 C 0.40913 0.50861 0.87163 0.0
C2173 C 0.38074 0.48142 0.86505 0.0
H2174 H 0.43753 0.5444 0.91004 0.0
H2175 H 0.42791 0.51611 0.85208 0.0
S2176 S 0.31197 0.44891 0.92654 0.0
N2177 N 0.33857 0.4794 0.94894 0.0
N2178 N 0.32829 0.4478 0.8875 0.0
C2179 C 0.35694 0.47298 0.89126 0.0
C2180 C 0.36232 0.49032 0.92445 0.0
C2181 C 0.19003 0.45758 0.50775 0.0
C2182 C 0.16719 0.46498 0.51698 0.0
C2183 C 0.20723 0.46877 0.47493 0.0
C2184 C 0.20261 0.4882 0.45071 0.0
H2185 H 0.19304 0.44136 0.52448 0.0
H2186 H 0.22235 0.46012 0.46689 0.0
S2187 S 0.14972 0.51884 0.46612 0.0
N2188 N 0.14419 0.49651 0.50213 0.0
N2189 N 0.17628 0.51714 0.44077 0.0
C2190 C 0.18209 0.4981 0.46169 0.0
C2191 C 0.16439 0.48652 0.49468 0.0
C2192 C 0.57872 0.74924 0.47553 0.0
C2193 C 0.55883 0.72483 0.45197 0.0
C2194 C 0.58955 0.74365 0.50886 0.0
C2195 C 0.58146 0.71345 0.51929 0.0
H2196 H 0.58799 0.77294 0.46661 0.0
H2197 H 0.60602 0.76314 0.52512 0.0
S2198 S 0.52683 0.64138 0.46978 0.0
N2199 N 0.52911 0.66939 0.44349 0.0
N2200 N 0.5492 0.65863 0.50562 0.0
C2201 C 0.55969 0.6888 0.49736 0.0
C2202 C 0.54841 0.69454 0.46388 0.0
C2203 C 0.36444 0.89126 0.48553 0.0
C2204 C 0.34111 0.88437 0.51191 0.0
C2205 C 0.3586 0.87345 0.45358 0.0
C2206 C 0.32915 0.84806 0.44644 0.0
H2207 H 0.38723 0.91135 0.48883 0.0
H2208 H 0.37649 0.88129 0.43274 0.0
S2209 S 0.26102 0.81784 0.5082 0.0
N2210 N 0.28822 0.84817 0.53034 0.0
N2211 N 0.2771 0.81529 0.4696 0.0
C2212 C 0.30626 0.83954 0.47368 0.0
C2213 C 0.31224 0.85753 0.50652 0.0
C2214 C 0.3331 0.38245 0.08318 0.0
C2215 C 0.32952 0.36325 0.11336 0.0
C2216 C 0.35613 0.41399 0.08316 0.0
C2217 C 0.37645 0.42727 0.11321 0.0
H2218 H 0.31899 0.37279 0.05883 0.0
H2219 H 0.3585 0.42783 0.05914 0.0
S2220 S 0.37356 0.38753 0.20097 0.0
N2221 N 0.34607 0.36049 0.17539 0.0
N2222 N 0.38904 0.41905 0.17548 0.0
C2223 C 0.37194 0.40845 0.14419 0.0
C2224 C 0.34856 0.37667 0.14423 0.0
C2225 C 0.63637 0.96782 0.14188 0.0
C2226 C 0.61758 0.95263 0.11131 0.0
C2227 C 0.6673 0.97533 0.14322 0.0
C2228 C 0.6812 0.96833 0.11394 0.0
H2229 H 0.62723 0.97425 0.16516 0.0
H2230 H 0.68078 0.98784 0.16707 0.0
S2231 S 0.64185 0.92709 0.02819 0.0
N2232 N 0.61463 0.92913 0.05173 0.0
N2233 N 0.67333 0.94404 0.05389 0.0
C2234 C 0.66248 0.95202 0.0837 0.0
C2235 C 0.63061 0.94408 0.08244 0.0
C2236 C 0.08814 0.7115 0.08477 0.0
C2237 C 0.07804 0.71794 0.11803 0.0
C2238 C 0.09644 0.68845 0.08306 0.0
C2239 C 0.09439 0.67103 0.11445 0.0
H2240 H 0.08764 0.72282 0.05956 0.0
H2241 H 0.10306 0.68325 0.0568 0.0
S2242 S 0.07482 0.68324 0.20928 0.0
N2243 N 0.07064 0.7082 0.18375 0.0
N2244 N 0.08589 0.66503 0.18067 0.0
C2245 C 0.08656 0.67902 0.14828 0.0
C2246 C 0.07852 0.70249 0.15004 0.0
C2247 C 0.33377 0.31433 0.47409 0.0
C2248 C 0.34798 0.30671 0.44579 0.0
C2249 C 0.30266 0.30588 0.4724 0.0
C2250 C 0.28395 0.28907 0.44245 0.0
H2251 H 0.34703 0.32777 0.49759 0.0
H2252 H 0.29328 0.31273 0.49503 0.0
S2253 S 0.30922 0.26174 0.3618 0.0
N2254 N 0.34073 0.28043 0.3872 0.0
N2255 N 0.28155 0.26375 0.38437 0.0
C2256 C 0.2974 0.28017 0.41443 0.0
C2257 C 0.32951 0.28908 0.41606 0.0
C2258 C 0.74354 1.00833 0.47283 0.0
C2259 C 0.75897 1.00497 0.44236 0.0
C2260 C 0.73604 0.03169 0.47424 0.0
C2261 C 0.74324 0.05276 0.44511 0.0
H2262 H 0.73695 0.99267 0.49603 0.0
H2263 H 0.72341 0.03249 0.49807 0.0
S2264 S 0.78525 0.05543 0.35972 0.0
N2265 N 0.78303 0.02602 0.38308 0.0
N2266 N 0.76801 0.06969 0.38534 0.0
C2267 C 0.75978 0.05062 0.41497 0.0
C2268 C 0.76777 0.02675 0.41365 0.0
C2269 C 0.03867 0.7483 0.47064 0.0
C2270 C 0.04166 0.76656 0.43965 0.0
C2271 C 1.01595 0.71721 0.47263 0.0
C2272 C 0.99503 0.70249 0.44367 0.0
H2273 H 0.05422 0.75796 0.49387 0.0
H2274 H 1.01548 0.70432 0.49684 0.0
S2275 S 0.99135 0.73993 0.35703 0.0
N2276 N 1.02038 0.76799 0.38 0.0
N2277 N 0.97774 0.70886 0.38337 0.0
C2278 C 0.99673 0.72055 0.41296 0.0
C2279 C 1.02003 0.75267 0.41101 0.0
C2280 C 0.70299 0.62299 0.96348 0.0
C2281 C 0.68325 0.60885 0.9332 0.0
C2282 C 0.72633 0.65438 0.9623 0.0
C2283 C 0.73084 0.67244 0.93064 0.0
H2284 H 0.69973 0.61005 0.98861 0.0
H2285 H 0.73976 0.66492 0.98688 0.0
S2286 S 0.68901 0.64496 0.84192 0.0
N2287 N 0.67248 0.61454 0.8692 0.0
N2288 N 0.71612 0.67286 0.86701 0.0
C2289 C 0.71262 0.65791 0.89949 0.0
C2290 C 0.68887 0.62632 0.90077 0.0
C2291 C 0.39261 0.06718 0.90137 0.0
C2292 C 0.37758 0.07088 0.93202 0.0
C2293 C 0.42337 0.07422 0.90318 0.0
C2294 C 0.44082 0.08567 0.93562 0.0
H2295 H 0.37995 0.05713 0.87615 0.0
H2296 H 0.43339 0.07017 0.87885 0.0
S2297 S 0.4135 0.10261 0.02276 0.0
N2298 N 0.38307 0.08867 0.99531 0.0
N2299 N 0.44161 0.10296 0.99836 0.0
C2300 C 0.42686 0.09152 0.96586 0.0
C2301 C 0.39512 0.08397 0.96412 0.0
C2302 C 0.98308 0.36883 0.90567 0.0
C2303 C 0.96597 0.37063 0.93535 0.0
C2304 C 0.99164 0.34631 0.90442 0.0
C2305 C 0.98376 0.32461 0.93288 0.0
H2306 H 0.99014 0.38504 0.88298 0.0
H2307 H 1.00541 0.34654 0.88124 0.0
S2308 S 0.93786 0.31813 1.0161 0.0
N2309 N 0.94003 0.34771 0.99324 0.0
N2310 N 0.95686 0.30541 0.99116 0.0
C2311 C 0.96573 0.32526 0.96223 0.0
C2312 C 0.95676 0.34832 0.96346 0.0
C2313 C 0.75451 0.73109 0.57474 0.0
C2314 C 0.77427 0.75054 0.60253 0.0
C2315 C 0.72336 0.72278 0.57338 0.0
C2316 C 0.71019 0.73324 0.59991 0.0
H2317 H 0.76306 0.72203 0.55357 0.0
H2318 H 0.70931 0.70728 0.55163 0.0
S2319 S 0.75201 0.78575 0.67782 0.0
N2320 N 0.77871 0.78122 0.65657 0.0
N2321 N 0.71968 0.76503 0.65441 0.0
C2322 C 0.72975 0.75341 0.62743 0.0
C2323 C 0.76181 0.7621 0.62871 0.0
C2324 C 0.32681 1.01158 0.56784 0.0
C2325 C 0.31832 0.98931 0.59577 0.0
C2326 C 0.31942 0.03497 0.57001 0.0
C2327 C 0.30286 0.03716 0.60008 0.0
H2328 H 0.34021 1.0116 0.54437 0.0
H2329 H 0.32691 0.05152 0.54766 0.0
S2330 S 0.27335 0.98353 0.67976 0.0
N2331 N 0.29135 0.97015 0.65407 0.0
N2332 N 0.2767 1.01397 0.65775 0.0
C2333 C 0.29307 1.01438 0.62769 0.0
C2334 C 0.30087 0.99045 0.62557 0.0
C2335 C 0.0588 0.31904 0.63243 0.0
C2336 C 0.06341 0.33649 0.60013 0.0
C2337 C 0.03604 0.28741 0.634 0.0
C2338 C 1.01706 0.27244 0.60342 0.0
H2339 H 0.07162 0.33025 0.65716 0.0
H2340 H 0.03251 0.27497 0.6596 0.0
S2341 S 1.02381 0.30696 0.51066 0.0
N2342 N 0.04981 0.33564 0.53591 0.0
N2343 N 1.00755 0.27686 0.53844 0.0
C2344 C 1.02305 0.28938 0.57036 0.0
C2345 C 0.04608 0.32121 0.56883 0.0
C2346 C 0.97078 0.64325 0.80697 0.0
C2347 C 0.95117 0.6249 0.7784 0.0
C2348 C 1.00187 0.6514 0.80813 0.0
C2349 C 1.01507 0.64179 0.7807 0.0
H2350 H 0.96217 0.65164 0.82885 0.0
H2351 H 1.01591 0.66615 0.83042 0.0
S2352 S 0.97375 0.59235 0.70044 0.0
N2353 N 0.94696 0.59616 0.72257 0.0
N2354 N 1.00591 0.61206 0.72446 0.0
C2355 C 0.99568 0.62264 0.75243 0.0
C2356 C 0.96368 0.61415 0.75129 0.0
C2357 C 0.43625 0.36011 0.7422 0.0
C2358 C 0.43409 0.34305 0.77404 0.0
C2359 C 0.42778 0.38313 0.74301 0.0
C2360 C 0.41732 0.38999 0.77578 0.0
H2361 H 0.44314 0.35468 0.71628 0.0
H2362 H 0.42751 0.39416 0.71746 0.0
S2363 S 0.41315 0.35622 0.86787 0.0
N2364 N 0.42479 0.33791 0.84022 0.0
N2365 N 0.40907 0.38075 0.84142 0.0
C2366 C 0.41746 0.3748 0.80815 0.0
C2367 C 0.42577 0.35144 0.80737 0.0
C2368 C 0.69127 0.08402 0.749 0.0
C2369 C 0.71009 0.09776 0.78009 0.0
C2370 C 0.66731 0.05288 0.74964 0.0
C2371 C 0.66122 0.03474 0.78156 0.0
H2372 H 0.69576 0.09706 0.72371 0.0
H2373 H 0.65466 0.04254 0.72452 0.0
S2374 S 0.70002 0.06133 0.87206 0.0
N2375 N 0.71823 0.0917 0.84494 0.0
N2376 N 0.67339 0.03384 0.84607 0.0
C2377 C 0.67847 0.04892 0.8134 0.0
C2378 C 0.70288 0.08023 0.81269 0.0
C2379 C 0.39196 0.98529 0.29279 0.0
C2380 C 0.39826 1.00264 0.26013 0.0
C2381 C 0.36795 0.9542 0.29432 0.0
C2382 C 0.34923 0.9397 0.2634 0.0
H2383 H 0.40432 0.99629 0.31784 0.0
H2384 H 0.36323 0.94186 0.32018 0.0
S2385 S 0.35987 0.97362 0.16981 0.0
N2386 N 0.38647 1.00178 0.19515 0.0
N2387 N 0.3415 0.94399 0.19797 0.0
C2388 C 0.35676 0.9563 0.23006 0.0
C2389 C 0.38126 0.98756 0.22844 0.0
C2390 C 0.06015 0.41378 0.29727 0.0
C2391 C 0.04184 0.40038 0.26574 0.0
C2392 C 0.09155 0.42179 0.29799 0.0
C2393 C 0.10544 0.4163 0.26737 0.0
H2394 H 0.0498 0.41661 0.32207 0.0
H2395 H 0.10469 0.43134 0.32303 0.0
S2396 S 0.06861 0.38643 0.1763 0.0
N2397 N 0.0409 0.38552 0.20192 0.0
N2398 N 0.09924 0.40015 0.20321 0.0
C2399 C 0.08771 0.4046 0.23509 0.0
C2400 C 0.05611 0.39679 0.23429 0.0
C2401 C 0.64716 0.69511 0.241 0.0
C2402 C 0.63027 0.69743 0.2706 0.0
C2403 C 0.65584 0.67261 0.24025 0.0
C2404 C 0.64837 0.65131 0.26918 0.0
H2405 H 0.65403 0.71099 0.21798 0.0
H2406 H 0.66947 0.67258 0.21706 0.0
S2407 S 0.60294 0.64604 0.35243 0.0
N2408 N 0.6048 0.67522 0.32892 0.0
N2409 N 0.62188 0.63305 0.32783 0.0
C2410 C 0.63049 0.65243 0.29847 0.0
C2411 C 0.62136 0.67547 0.29914 0.0
loop_
_geom_bond_atom_site_label_1
_geom_bond_atom_site_label_2
_geom_bond_distance
_geom_bond_site_symmetry_2
_ccdc_geom_bond_type
C0 O16 1.251 . S
C0 O18 1.254 . S
N1 C2 1.333 . S
N1 C6 1.307 . S
N1 Zn7 2.020 . S
C2 N1 1.333 . S
C2 C3 1.379 . S
C2 H20 0.952 . S
C3 C2 1.379 . S
C3 C4 1.390 . S
C3 H30 0.949 . S
C4 C3 1.390 . S
C4 C5 1.357 . S
C5 C4 1.357 . S
C5 C6 1.370 . S
C5 H31 0.950 . S
C6 N1 1.307 . S
C6 C5 1.370 . S
C6 H24 0.948 . S
Zn7 N1 2.020 . S
Zn7 O16 2.039 . S
Zn7 O22 2.034 . S
Zn7 O26 2.025 . S
Zn7 O28 2.024 . S
C8 O27 1.246 . S
C8 O28 1.249 . S
N9 C10 1.307 . S
N9 C11 1.333 . S
N9 Zn15 2.020 . S
C10 N9 1.307 . S
C10 C14 1.370 . S
C10 H21 0.948 . S
C11 N9 1.333 . S
C11 C12 1.379 1_554 S
C11 H19 0.952 . S
C12 C11 1.379 1_556 S
C12 C13 1.390 . S
C12 H32 0.949 . S
C13 C12 1.390 . S
C13 C14 1.357 1_556 S
C14 C10 1.370 . S
C14 C13 1.357 1_554 S
C14 H33 0.950 . S
Zn15 N9 2.020 . S
Zn15 O18 2.025 . S
Zn15 O23 2.024 . S
Zn15 O25 2.039 . S
Zn15 O27 2.034 . S
O16 C0 1.251 . S
O16 Zn7 2.039 . S
C17 O22 1.246 . S
C17 O23 1.249 . S
O18 C0 1.254 . S
O18 Zn15 2.025 . S
H19 C11 0.952 . S
H20 C2 0.952 . S
H21 C10 0.948 . S
O22 Zn7 2.034 . S
O22 C17 1.246 . S
O23 Zn15 2.024 . S
O23 C17 1.249 . S
H24 C6 0.948 . S
O25 Zn15 2.039 . S
O25 C29 1.251 . S
O26 Zn7 2.025 . S
O26 C29 1.254 . S
O27 C8 1.246 . S
O27 Zn15 2.034 . S
O28 Zn7 2.024 . S
O28 C8 1.249 . S
C29 O25 1.251 . S
C29 O26 1.254 . S
H30 C3 0.949 . S
H31 C5 0.950 . S
H32 C12 0.949 . S
H33 C14 0.950 . S
C34 O50 1.251 . S
C34 O52 1.254 . S
N35 C36 1.333 . S
N35 C40 1.307 . S
N35 Zn41 2.020 . S
C36 N35 1.333 . S
C36 C37 1.379 . S
C36 H54 0.952 . S
C37 C36 1.379 . S
C37 C38 1.390 . S
C37 H64 0.949 . S
C38 C37 1.390 . S
C38 C39 1.357 . S
C39 C38 1.357 . S
C39 C40 1.370 . S
C39 H65 0.950 . S
C40 N35 1.307 . S
C40 C39 1.370 . S
C40 H58 0.948 . S
Zn41 N35 2.020 . S
Zn41 O50 2.039 . S
Zn41 O56 2.034 . S
Zn41 O60 2.025 . S
Zn41 O62 2.024 . S
C42 O61 1.246 . S
C42 O62 1.249 . S
N43 C44 1.307 . S
N43 C45 1.333 . S
N43 Zn49 2.020 . S
C44 N43 1.307 . S
C44 C48 1.370 . S
C44 H55 0.948 . S
C45 N43 1.333 . S
C45 C46 1.379 1_554 S
C45 H53 0.952 . S
C46 C45 1.379 1_556 S
C46 C47 1.390 . S
C46 H66 0.949 . S
C47 C46 1.390 . S
C47 C48 1.357 1_556 S
C48 C44 1.370 . S
C48 C47 1.357 1_554 S
C48 H67 0.950 . S
Zn49 N43 2.020 . S
Zn49 O52 2.025 1_565 S
Zn49 O57 2.024 . S
Zn49 O59 2.039 . S
Zn49 O61 2.034 1_565 S
O50 C34 1.251 . S
O50 Zn41 2.039 . S
C51 O56 1.246 1_565 S
C51 O57 1.249 . S
O52 C34 1.254 . S
O52 Zn49 2.025 1_545 S
H53 C45 0.952 . S
H54 C36 0.952 . S
H55 C44 0.948 . S
O56 Zn41 2.034 . S
O56 C51 1.246 1_545 S
O57 Zn49 2.024 . S
O57 C51 1.249 . S
H58 C40 0.948 . S
O59 Zn49 2.039 . S
O59 C63 1.251 . S
O60 Zn41 2.025 . S
O60 C63 1.254 1_545 S
O61 C42 1.246 . S
O61 Zn49 2.034 1_545 S
O62 Zn41 2.024 . S
O62 C42 1.249 . S
C63 O59 1.251 . S
C63 O60 1.254 1_565 S
H64 C37 0.949 . S
H65 C39 0.950 . S
H66 C46 0.949 . S
H67 C48 0.950 . S
C68 O84 1.251 . S
C68 O86 1.254 . S
N69 C70 1.333 . S
N69 C74 1.307 . S
N69 Zn75 2.020 . S
C70 N69 1.333 . S
C70 C71 1.379 . S
C70 H88 0.952 . S
C71 C70 1.379 . S
C71 C72 1.390 . S
C71 H98 0.949 . S
C72 C71 1.390 . S
C72 C73 1.357 . S
C73 C72 1.357 . S
C73 C74 1.370 . S
C73 H99 0.950 . S
C74 N69 1.307 . S
C74 C73 1.370 . S
C74 H92 0.948 . S
Zn75 N69 2.020 . S
Zn75 O84 2.039 . S
Zn75 O90 2.034 . S
Zn75 O94 2.025 . S
Zn75 O96 2.024 . S
C76 O95 1.246 . S
C76 O96 1.249 . S
N77 C78 1.307 . S
N77 C79 1.333 . S
N77 Zn83 2.020 . S
C78 N77 1.307 . S
C78 C82 1.370 . S
C78 H89 0.948 . S
C79 N77 1.333 . S
C79 C80 1.379 1_554 S
C79 H87 0.952 . S
C80 C79 1.379 1_556 S
C80 C81 1.390 . S
C80 H100 0.949 . S
C81 C80 1.390 . S
C81 C82 1.357 1_556 S
C82 C78 1.370 . S
C82 C81 1.357 1_554 S
C82 H101 0.950 . S
Zn83 N77 2.020 . S
Zn83 O86 2.025 1_455 S
Zn83 O91 2.024 . S
Zn83 O93 2.039 . S
Zn83 O95 2.034 1_455 S
O84 C68 1.251 . S
O84 Zn75 2.039 . S
C85 O90 1.246 1_455 S
C85 O91 1.249 . S
O86 C68 1.254 . S
O86 Zn83 2.025 1_655 S
H87 C79 0.952 . S
H88 C70 0.952 . S
H89 C78 0.948 . S
O90 Zn75 2.034 . S
O90 C85 1.246 1_655 S
O91 Zn83 2.024 . S
O91 C85 1.249 . S
H92 C74 0.948 . S
O93 Zn83 2.039 . S
O93 C97 1.251 . S
O94 Zn75 2.025 . S
O94 C97 1.254 1_655 S
O95 C76 1.246 . S
O95 Zn83 2.034 1_655 S
O96 Zn75 2.024 . S
O96 C76 1.249 . S
C97 O93 1.251 . S
C97 O94 1.254 1_455 S
H98 C71 0.949 . S
H99 C73 0.950 . S
H100 C80 0.949 . S
H101 C82 0.950 . S
C102 O118 1.251 . S
C102 O120 1.254 . S
N103 C104 1.333 . S
N103 C108 1.307 . S
N103 Zn109 2.020 . S
C104 N103 1.333 . S
C104 C105 1.379 . S
C104 H122 0.952 . S
C105 C104 1.379 . S
C105 C106 1.390 . S
C105 H132 0.949 . S
C106 C105 1.390 . S
C106 C107 1.357 . S
C107 C106 1.357 . S
C107 C108 1.370 . S
C107 H133 0.950 . S
C108 N103 1.307 . S
C108 C107 1.370 . S
C108 H126 0.948 . S
Zn109 N103 2.020 . S
Zn109 O118 2.039 . S
Zn109 O124 2.034 . S
Zn109 O128 2.025 . S
Zn109 O130 2.024 . S
C110 O129 1.246 . S
C110 O130 1.249 . S
N111 C112 1.307 . S
N111 C113 1.333 . S
N111 Zn117 2.020 . S
C112 N111 1.307 . S
C112 C116 1.370 . S
C112 H123 0.948 . S
C113 N111 1.333 . S
C113 C114 1.379 . S
C113 H121 0.952 . S
C114 C113 1.379 . S
C114 C115 1.390 . S
C114 H134 0.949 . S
C115 C114 1.390 . S
C115 C116 1.357 . S
C116 C112 1.370 . S
C116 C115 1.357 . S
C116 H135 0.950 . S
Zn117 N111 2.020 . S
Zn117 O120 2.025 . S
Zn117 O125 2.024 . S
Zn117 O127 2.039 . S
Zn117 O129 2.034 . S
O118 C102 1.251 . S
O118 Zn109 2.039 . S
C119 O124 1.246 . S
C119 O125 1.249 . S
O120 C102 1.254 . S
O120 Zn117 2.025 . S
H121 C113 0.952 . S
H122 C104 0.952 . S
H123 C112 0.948 . S
O124 Zn109 2.034 . S
O124 C119 1.246 . S
O125 Zn117 2.024 . S
O125 C119 1.249 . S
H126 C108 0.948 . S
O127 Zn117 2.039 . S
O127 C131 1.251 . S
O128 Zn109 2.025 . S
O128 C131 1.254 . S
O129 C110 1.246 . S
O129 Zn117 2.034 . S
O130 Zn109 2.024 . S
O130 C110 1.249 . S
C131 O127 1.251 . S
C131 O128 1.254 . S
H132 C105 0.949 . S
H133 C107 0.950 . S
H134 C114 0.949 . S
H135 C116 0.950 . S
C136 O152 1.251 . S
C136 O154 1.254 . S
N137 C138 1.333 . S
N137 C142 1.307 . S
N137 Zn143 2.020 . S
C138 N137 1.333 . S
C138 C139 1.379 . S
C138 H156 0.952 . S
C139 C138 1.379 . S
C139 C140 1.390 . S
C139 H166 0.949 . S
C140 C139 1.390 . S
C140 C141 1.357 . S
C141 C140 1.357 . S
C141 C142 1.370 . S
C141 H167 0.950 . S
C142 N137 1.307 . S
C142 C141 1.370 . S
C142 H160 0.948 . S
Zn143 N137 2.020 . S
Zn143 O152 2.039 . S
Zn143 O158 2.034 . S
Zn143 O162 2.025 . S
Zn143 O164 2.024 . S
C144 O163 1.246 . S
C144 O164 1.249 . S
N145 C146 1.307 . S
N145 C147 1.333 . S
N145 Zn151 2.020 . S
C146 N145 1.307 . S
C146 C150 1.370 . S
C146 H157 0.948 . S
C147 N145 1.333 . S
C147 C148 1.379 . S
C147 H155 0.952 . S
C148 C147 1.379 . S
C148 C149 1.390 . S
C148 H168 0.949 . S
C149 C148 1.390 . S
C149 C150 1.357 . S
C150 C146 1.370 . S
C150 C149 1.357 . S
C150 H169 0.950 . S
Zn151 N145 2.020 . S
Zn151 O154 2.025 . S
Zn151 O159 2.024 . S
Zn151 O161 2.039 . S
Zn151 O163 2.034 . S
O152 C136 1.251 . S
O152 Zn143 2.039 . S
C153 O158 1.246 . S
C153 O159 1.249 . S
O154 C136 1.254 . S
O154 Zn151 2.025 . S
H155 C147 0.952 . S
H156 C138 0.952 . S
H157 C146 0.948 . S
O158 Zn143 2.034 . S
O158 C153 1.246 . S
O159 Zn151 2.024 . S
O159 C153 1.249 . S
H160 C142 0.948 . S
O161 Zn151 2.039 . S
O161 C165 1.251 . S
O162 Zn143 2.025 . S
O162 C165 1.254 . S
O163 C144 1.246 . S
O163 Zn151 2.034 . S
O164 Zn143 2.024 . S
O164 C144 1.249 . S
C165 O161 1.251 . S
C165 O162 1.254 . S
H166 C139 0.949 . S
H167 C141 0.950 . S
H168 C148 0.949 . S
H169 C150 0.950 . S
C170 O186 1.251 . S
C170 O188 1.254 . S
N171 C172 1.333 . S
N171 C176 1.307 . S
N171 Zn177 2.020 . S
C172 N171 1.333 . S
C172 C173 1.379 . S
C172 H190 0.952 . S
C173 C172 1.379 . S
C173 C174 1.390 . S
C173 H200 0.949 . S
C174 C173 1.390 . S
C174 C175 1.357 . S
C175 C174 1.357 . S
C175 C176 1.370 . S
C175 H201 0.950 . S
C176 N171 1.307 . S
C176 C175 1.370 . S
C176 H194 0.948 . S
Zn177 N171 2.020 . S
Zn177 O186 2.039 . S
Zn177 O192 2.034 . S
Zn177 O196 2.025 . S
Zn177 O198 2.024 . S
C178 O197 1.246 . S
C178 O198 1.249 . S
N179 C180 1.307 . S
N179 C181 1.333 . S
N179 Zn185 2.020 . S
C180 N179 1.307 . S
C180 C184 1.370 . S
C180 H191 0.948 . S
C181 N179 1.333 . S
C181 C182 1.379 . S
C181 H189 0.952 . S
C182 C181 1.379 . S
C182 C183 1.390 . S
C182 H202 0.949 . S
C183 C182 1.390 . S
C183 C184 1.357 . S
C184 C180 1.370 . S
C184 C183 1.357 . S
C184 H203 0.950 . S
Zn185 N179 2.020 . S
Zn185 O188 2.025 . S
Zn185 O193 2.024 . S
Zn185 O195 2.039 . S
Zn185 O197 2.034 . S
O186 C170 1.251 . S
O186 Zn177 2.039 . S
C187 O192 1.246 . S
C187 O193 1.249 . S
O188 C170 1.254 . S
O188 Zn185 2.025 . S
H189 C181 0.952 . S
H190 C172 0.952 . S
H191 C180 0.948 . S
O192 Zn177 2.034 . S
O192 C187 1.246 . S
O193 Zn185 2.024 . S
O193 C187 1.249 . S
H194 C176 0.948 . S
O195 Zn185 2.039 . S
O195 C199 1.251 . S
O196 Zn177 2.025 . S
O196 C199 1.254 . S
O197 C178 1.246 . S
O197 Zn185 2.034 . S
O198 Zn177 2.024 . S
O198 C178 1.249 . S
C199 O195 1.251 . S
C199 O196 1.254 . S
H200 C173 0.949 . S
H201 C175 0.950 . S
H202 C182 0.949 . S
H203 C184 0.950 . S
C204 O220 1.251 . S
C204 O222 1.254 . S
N205 C206 1.333 . S
N205 C210 1.307 . S
N205 Zn211 2.020 . S
C206 N205 1.333 . S
C206 C207 1.379 1_556 S
C206 H224 0.952 . S
C207 C206 1.379 1_554 S
C207 C208 1.390 . S
C207 H234 0.949 . S
C208 C207 1.390 . S
C208 C209 1.357 1_554 S
C209 C208 1.357 1_556 S
C209 C210 1.370 . S
C209 H235 0.950 . S
C210 N205 1.307 . S
C210 C209 1.370 . S
C210 H228 0.948 . S
Zn211 N205 2.020 . S
Zn211 O220 2.039 . S
Zn211 O226 2.034 . S
Zn211 O230 2.025 . S
Zn211 O232 2.024 . S
C212 O231 1.246 . S
C212 O232 1.249 . S
N213 C214 1.307 . S
N213 C215 1.333 . S
N213 Zn219 2.020 . S
C214 N213 1.307 . S
C214 C218 1.370 . S
C214 H225 0.948 . S
C215 N213 1.333 . S
C215 C216 1.379 . S
C215 H223 0.952 . S
C216 C215 1.379 . S
C216 C217 1.390 . S
C216 H236 0.949 . S
C217 C216 1.390 . S
C217 C218 1.357 . S
C218 C214 1.370 . S
C218 C217 1.357 . S
C218 H237 0.950 . S
Zn219 N213 2.020 . S
Zn219 O222 2.025 . S
Zn219 O227 2.024 . S
Zn219 O229 2.039 . S
Zn219 O231 2.034 . S
O220 C204 1.251 . S
O220 Zn211 2.039 . S
C221 O226 1.246 . S
C221 O227 1.249 . S
O222 C204 1.254 . S
O222 Zn219 2.025 . S
H223 C215 0.952 . S
H224 C206 0.952 . S
H225 C214 0.948 . S
O226 Zn211 2.034 . S
O226 C221 1.246 . S
O227 Zn219 2.024 . S
O227 C221 1.249 . S
H228 C210 0.948 . S
O229 Zn219 2.039 . S
O229 C233 1.251 . S
O230 Zn211 2.025 . S
O230 C233 1.254 . S
O231 C212 1.246 . S
O231 Zn219 2.034 . S
O232 Zn211 2.024 . S
O232 C212 1.249 . S
C233 O229 1.251 . S
C233 O230 1.254 . S
H234 C207 0.949 . S
H235 C209 0.950 . S
H236 C216 0.949 . S
H237 C218 0.950 . S
C238 O254 1.251 . S
C238 O256 1.254 1_545 S
N239 C240 1.333 . S
N239 C244 1.307 . S
N239 Zn245 2.020 . S
C240 N239 1.333 . S
C240 C241 1.379 1_556 S
C240 H258 0.952 . S
C241 C240 1.379 1_554 S
C241 C242 1.390 . S
C241 H268 0.949 . S
C242 C241 1.390 . S
C242 C243 1.357 1_554 S
C243 C242 1.357 1_556 S
C243 C244 1.370 . S
C243 H269 0.950 . S
C244 N239 1.307 . S
C244 C243 1.370 . S
C244 H262 0.948 . S
Zn245 N239 2.020 . S
Zn245 O254 2.039 . S
Zn245 O260 2.034 1_545 S
Zn245 O264 2.025 1_545 S
Zn245 O266 2.024 . S
C246 O265 1.246 1_545 S
C246 O266 1.249 . S
N247 C248 1.307 . S
N247 C249 1.333 . S
N247 Zn253 2.020 . S
C248 N247 1.307 . S
C248 C252 1.370 . S
C248 H259 0.948 . S
C249 N247 1.333 . S
C249 C250 1.379 . S
C249 H257 0.952 . S
C250 C249 1.379 . S
C250 C251 1.390 . S
C250 H270 0.949 . S
C251 C250 1.390 . S
C251 C252 1.357 . S
C252 C248 1.370 . S
C252 C251 1.357 . S
C252 H271 0.950 . S
Zn253 N247 2.020 . S
Zn253 O256 2.025 . S
Zn253 O261 2.024 . S
Zn253 O263 2.039 . S
Zn253 O265 2.034 . S
O254 C238 1.251 . S
O254 Zn245 2.039 . S
C255 O260 1.246 . S
C255 O261 1.249 . S
O256 C238 1.254 1_565 S
O256 Zn253 2.025 . S
H257 C249 0.952 . S
H258 C240 0.952 . S
H259 C248 0.948 . S
O260 Zn245 2.034 1_565 S
O260 C255 1.246 . S
O261 Zn253 2.024 . S
O261 C255 1.249 . S
H262 C244 0.948 . S
O263 Zn253 2.039 . S
O263 C267 1.251 . S
O264 Zn245 2.025 1_565 S
O264 C267 1.254 . S
O265 C246 1.246 1_565 S
O265 Zn253 2.034 . S
O266 Zn245 2.024 . S
O266 C246 1.249 . S
C267 O263 1.251 . S
C267 O264 1.254 . S
H268 C241 0.949 . S
H269 C243 0.950 . S
H270 C250 0.949 . S
H271 C252 0.950 . S
C272 O288 1.251 . S
C272 O290 1.254 1_655 S
N273 C274 1.333 . S
N273 C278 1.307 . S
N273 Zn279 2.020 . S
C274 N273 1.333 . S
C274 C275 1.379 1_556 S
C274 H292 0.952 . S
C275 C274 1.379 1_554 S
C275 C276 1.390 . S
C275 H302 0.949 . S
C276 C275 1.390 . S
C276 C277 1.357 1_554 S
C277 C276 1.357 1_556 S
C277 C278 1.370 . S
C277 H303 0.950 . S
C278 N273 1.307 . S
C278 C277 1.370 . S
C278 H296 0.948 . S
Zn279 N273 2.020 . S
Zn279 O288 2.039 . S
Zn279 O294 2.034 1_655 S
Zn279 O298 2.025 1_655 S
Zn279 O300 2.024 . S
C280 O299 1.246 1_655 S
C280 O300 1.249 . S
N281 C282 1.307 . S
N281 C283 1.333 . S
N281 Zn287 2.020 . S
C282 N281 1.307 . S
C282 C286 1.370 . S
C282 H293 0.948 . S
C283 N281 1.333 . S
C283 C284 1.379 . S
C283 H291 0.952 . S
C284 C283 1.379 . S
C284 C285 1.390 . S
C284 H304 0.949 . S
C285 C284 1.390 . S
C285 C286 1.357 . S
C286 C282 1.370 . S
C286 C285 1.357 . S
C286 H305 0.950 . S
Zn287 N281 2.020 . S
Zn287 O290 2.025 . S
Zn287 O295 2.024 . S
Zn287 O297 2.039 . S
Zn287 O299 2.034 . S
O288 C272 1.251 . S
O288 Zn279 2.039 . S
C289 O294 1.246 . S
C289 O295 1.249 . S
O290 C272 1.254 1_455 S
O290 Zn287 2.025 . S
H291 C283 0.952 . S
H292 C274 0.952 . S
H293 C282 0.948 . S
O294 Zn279 2.034 1_455 S
O294 C289 1.246 . S
O295 Zn287 2.024 . S
O295 C289 1.249 . S
H296 C278 0.948 . S
O297 Zn287 2.039 . S
O297 C301 1.251 . S
O298 Zn279 2.025 1_455 S
O298 C301 1.254 . S
O299 C280 1.246 1_455 S
O299 Zn287 2.034 . S
O300 Zn279 2.024 . S
O300 C280 1.249 . S
C301 O297 1.251 . S
C301 O298 1.254 . S
H302 C275 0.949 . S
H303 C277 0.950 . S
H304 C284 0.949 . S
H305 C286 0.950 . S
C306 O322 1.251 . S
C306 O324 1.254 . S
N307 C308 1.333 . S
N307 C312 1.307 . S
N307 Zn313 2.020 . S
C308 N307 1.333 . S
C308 C309 1.379 . S
C308 H326 0.952 . S
C309 C308 1.379 . S
C309 C310 1.390 . S
C309 H336 0.949 . S
C310 C309 1.390 . S
C310 C311 1.357 . S
C311 C310 1.357 . S
C311 C312 1.370 . S
C311 H337 0.950 . S
C312 N307 1.307 . S
C312 C311 1.370 . S
C312 H330 0.948 . S
Zn313 N307 2.020 . S
Zn313 O322 2.039 . S
Zn313 O328 2.034 . S
Zn313 O332 2.025 . S
Zn313 O334 2.024 . S
C314 O333 1.246 . S
C314 O334 1.249 . S
N315 C316 1.307 . S
N315 C317 1.333 . S
N315 Zn321 2.020 . S
C316 N315 1.307 . S
C316 C320 1.370 . S
C316 H327 0.948 . S
C317 N315 1.333 . S
C317 C318 1.379 . S
C317 H325 0.952 . S
C318 C317 1.379 . S
C318 C319 1.390 . S
C318 H338 0.949 . S
C319 C318 1.390 . S
C319 C320 1.357 . S
C320 C316 1.370 . S
C320 C319 1.357 . S
C320 H339 0.950 . S
Zn321 N315 2.020 . S
Zn321 O324 2.025 . S
Zn321 O329 2.024 . S
Zn321 O331 2.039 . S
Zn321 O333 2.034 . S
O322 C306 1.251 . S
O322 Zn313 2.039 . S
C323 O328 1.246 . S
C323 O329 1.249 . S
O324 C306 1.254 . S
O324 Zn321 2.025 . S
H325 C317 0.952 . S
H326 C308 0.952 . S
H327 C316 0.948 . S
O328 Zn313 2.034 . S
O328 C323 1.246 . S
O329 Zn321 2.024 . S
O329 C323 1.249 . S
H330 C312 0.948 . S
O331 Zn321 2.039 . S
O331 C335 1.251 . S
O332 Zn313 2.025 . S
O332 C335 1.254 . S
O333 C314 1.246 . S
O333 Zn321 2.034 . S
O334 Zn313 2.024 . S
O334 C314 1.249 . S
C335 O331 1.251 . S
C335 O332 1.254 . S
H336 C309 0.949 . S
H337 C311 0.950 . S
H338 C318 0.949 . S
H339 C320 0.950 . S
C340 O356 1.251 . S
C340 O358 1.254 . S
N341 C342 1.333 . S
N341 C346 1.307 . S
N341 Zn347 2.020 . S
C342 N341 1.333 . S
C342 C343 1.379 . S
C342 H360 0.952 . S
C343 C342 1.379 . S
C343 C344 1.390 . S
C343 H370 0.949 . S
C344 C343 1.390 . S
C344 C345 1.357 . S
C345 C344 1.357 . S
C345 C346 1.370 . S
C345 H371 0.950 . S
C346 N341 1.307 . S
C346 C345 1.370 . S
C346 H364 0.948 . S
Zn347 N341 2.020 . S
Zn347 O356 2.039 . S
Zn347 O362 2.034 . S
Zn347 O366 2.025 . S
Zn347 O368 2.024 . S
C348 O367 1.246 . S
C348 O368 1.249 . S
N349 C350 1.307 . S
N349 C351 1.333 . S
N349 Zn355 2.020 . S
C350 N349 1.307 . S
C350 C354 1.370 . S
C350 H361 0.948 . S
C351 N349 1.333 . S
C351 C352 1.379 . S
C351 H359 0.952 . S
C352 C351 1.379 . S
C352 C353 1.390 . S
C352 H372 0.949 . S
C353 C352 1.390 . S
C353 C354 1.357 . S
C354 C350 1.370 . S
C354 C353 1.357 . S
C354 H373 0.950 . S
Zn355 N349 2.020 . S
Zn355 O358 2.025 . S
Zn355 O363 2.024 . S
Zn355 O365 2.039 . S
Zn355 O367 2.034 . S
O356 C340 1.251 . S
O356 Zn347 2.039 . S
C357 O362 1.246 . S
C357 O363 1.249 . S
O358 C340 1.254 . S
O358 Zn355 2.025 . S
H359 C351 0.952 . S
H360 C342 0.952 . S
H361 C350 0.948 . S
O362 Zn347 2.034 . S
O362 C357 1.246 . S
O363 Zn355 2.024 . S
O363 C357 1.249 . S
H364 C346 0.948 . S
O365 Zn355 2.039 . S
O365 C369 1.251 . S
O366 Zn347 2.025 . S
O366 C369 1.254 . S
O367 C348 1.246 . S
O367 Zn355 2.034 . S
O368 Zn347 2.024 . S
O368 C348 1.249 . S
C369 O365 1.251 . S
C369 O366 1.254 . S
H370 C343 0.949 . S
H371 C345 0.950 . S
H372 C352 0.949 . S
H373 C354 0.950 . S
C374 O390 1.251 . S
C374 O392 1.254 . S
N375 C376 1.333 . S
N375 C380 1.307 . S
N375 Zn381 2.020 . S
C376 N375 1.333 . S
C376 C377 1.379 . S
C376 H394 0.952 . S
C377 C376 1.379 . S
C377 C378 1.390 . S
C377 H404 0.949 . S
C378 C377 1.390 . S
C378 C379 1.357 . S
C379 C378 1.357 . S
C379 C380 1.370 . S
C379 H405 0.950 . S
C380 N375 1.307 . S
C380 C379 1.370 . S
C380 H398 0.948 . S
Zn381 N375 2.020 . S
Zn381 O390 2.039 . S
Zn381 O396 2.034 . S
Zn381 O400 2.025 . S
Zn381 O402 2.024 . S
C382 O401 1.246 . S
C382 O402 1.249 . S
N383 C384 1.307 . S
N383 C385 1.333 . S
N383 Zn389 2.020 . S
C384 N383 1.307 . S
C384 C388 1.370 . S
C384 H395 0.948 . S
C385 N383 1.333 . S
C385 C386 1.379 . S
C385 H393 0.952 . S
C386 C385 1.379 . S
C386 C387 1.390 . S
C386 H406 0.949 . S
C387 C386 1.390 . S
C387 C388 1.357 . S
C388 C384 1.370 . S
C388 C387 1.357 . S
C388 H407 0.950 . S
Zn389 N383 2.020 . S
Zn389 O392 2.025 . S
Zn389 O397 2.024 . S
Zn389 O399 2.039 . S
Zn389 O401 2.034 . S
O390 C374 1.251 . S
O390 Zn381 2.039 . S
C391 O396 1.246 . S
C391 O397 1.249 . S
O392 C374 1.254 . S
O392 Zn389 2.025 . S
H393 C385 0.952 . S
H394 C376 0.952 . S
H395 C384 0.948 . S
O396 Zn381 2.034 . S
O396 C391 1.246 . S
O397 Zn389 2.024 . S
O397 C391 1.249 . S
H398 C380 0.948 . S
O399 Zn389 2.039 . S
O399 C403 1.251 . S
O400 Zn381 2.025 . S
O400 C403 1.254 . S
O401 C382 1.246 . S
O401 Zn389 2.034 . S
O402 Zn381 2.024 . S
O402 C382 1.249 . S
C403 O399 1.251 . S
C403 O400 1.254 . S
H404 C377 0.949 . S
H405 C379 0.950 . S
H406 C386 0.949 . S
H407 C388 0.950 . S
C408 O424 1.251 . S
C408 O426 1.254 . S
N409 C410 1.333 . S
N409 C414 1.307 . S
N409 Zn415 2.020 . S
C410 N409 1.333 . S
C410 C411 1.379 . S
C410 H428 0.952 . S
C411 C410 1.379 . S
C411 C412 1.383 1_655 S
C411 H438 0.949 . S
C412 C411 1.383 1_455 S
C412 C413 1.354 . S
C413 C412 1.354 . S
C413 C414 1.370 1_455 S
C413 H439 0.950 . S
C414 N409 1.307 . S
C414 C413 1.370 1_655 S
C414 H432 0.948 . S
Zn415 N409 2.020 . S
Zn415 O424 2.039 . S
Zn415 O430 2.034 . S
Zn415 O434 2.025 . S
Zn415 O436 2.024 . S
C416 O435 1.246 . S
C416 O436 1.249 . S
N417 C418 1.307 . S
N417 C419 1.333 . S
N417 Zn423 2.020 . S
C418 N417 1.307 . S
C418 C422 1.370 . S
C418 H429 0.948 . S
C419 N417 1.333 . S
C419 C420 1.379 . S
C419 H427 0.952 . S
C420 C419 1.379 . S
C420 C421 1.390 . S
C420 H440 0.949 . S
C421 C420 1.390 . S
C421 C422 1.357 . S
C422 C418 1.370 . S
C422 C421 1.357 . S
C422 H441 0.950 . S
Zn423 N417 2.020 . S
Zn423 O426 2.025 . S
Zn423 O431 2.024 . S
Zn423 O433 2.039 . S
Zn423 O435 2.034 . S
O424 C408 1.251 . S
O424 Zn415 2.039 . S
C425 O430 1.246 . S
C425 O431 1.249 . S
O426 C408 1.254 . S
O426 Zn423 2.025 . S
H427 C419 0.952 . S
H428 C410 0.952 . S
H429 C418 0.948 . S
O430 Zn415 2.034 . S
O430 C425 1.246 . S
O431 Zn423 2.024 . S
O431 C425 1.249 . S
H432 C414 0.948 . S
O433 Zn423 2.039 . S
O433 C437 1.251 . S
O434 Zn415 2.025 . S
O434 C437 1.254 . S
O435 C416 1.246 . S
O435 Zn423 2.034 . S
O436 Zn415 2.024 . S
O436 C416 1.249 . S
C437 O433 1.251 . S
C437 O434 1.254 . S
H438 C411 0.949 . S
H439 C413 0.950 . S
H440 C420 0.949 . S
H441 C422 0.950 . S
C442 O458 1.251 . S
C442 O460 1.254 . S
N443 C444 1.333 . S
N443 C448 1.307 . S
N443 Zn449 2.020 . S
C444 N443 1.333 . S
C444 C445 1.379 . S
C444 H462 0.952 . S
C445 C444 1.379 . S
C445 C446 1.390 . S
C445 H472 0.949 . S
C446 C445 1.390 . S
C446 C447 1.357 . S
C447 C446 1.357 . S
C447 C448 1.370 . S
C447 H473 0.950 . S
C448 N443 1.307 . S
C448 C447 1.370 . S
C448 H466 0.948 . S
Zn449 N443 2.020 . S
Zn449 O458 2.039 . S
Zn449 O464 2.034 . S
Zn449 O468 2.025 . S
Zn449 O470 2.024 . S
C450 O469 1.246 . S
C450 O470 1.249 . S
N451 C452 1.307 . S
N451 C453 1.333 . S
N451 Zn457 2.020 . S
C452 N451 1.307 . S
C452 C456 1.370 . S
C452 H463 0.948 . S
C453 N451 1.333 . S
C453 C454 1.379 . S
C453 H461 0.952 . S
C454 C453 1.379 . S
C454 C455 1.390 . S
C454 H474 0.949 . S
C455 C454 1.390 . S
C455 C456 1.357 . S
C456 C452 1.370 . S
C456 C455 1.357 . S
C456 H475 0.950 . S
Zn457 N451 2.020 . S
Zn457 O460 2.025 . S
Zn457 O465 2.024 . S
Zn457 O467 2.039 . S
Zn457 O469 2.034 . S
O458 C442 1.251 . S
O458 Zn449 2.039 . S
C459 O464 1.246 . S
C459 O465 1.249 . S
O460 C442 1.254 . S
O460 Zn457 2.025 . S
H461 C453 0.952 . S
H462 C444 0.952 . S
H463 C452 0.948 . S
O464 Zn449 2.034 . S
O464 C459 1.246 . S
O465 Zn457 2.024 . S
O465 C459 1.249 . S
H466 C448 0.948 . S
O467 Zn457 2.039 . S
O467 C471 1.251 . S
O468 Zn449 2.025 . S
O468 C471 1.254 . S
O469 C450 1.246 . S
O469 Zn457 2.034 . S
O470 Zn449 2.024 . S
O470 C450 1.249 . S
C471 O467 1.251 . S
C471 O468 1.254 . S
H472 C445 0.949 . S
H473 C447 0.950 . S
H474 C454 0.949 . S
H475 C456 0.950 . S
C476 O492 1.251 . S
C476 O494 1.254 . S
N477 C478 1.333 . S
N477 C482 1.307 . S
N477 Zn483 2.020 . S
C478 N477 1.333 . S
C478 C479 1.379 . S
C478 H496 0.952 . S
C479 C478 1.379 . S
C479 C480 1.379 1_545 S
C479 H506 0.949 . S
C480 C479 1.379 1_565 S
C480 C481 1.364 . S
C481 C480 1.364 . S
C481 C482 1.370 1_565 S
C481 H507 0.950 . S
C482 N477 1.307 . S
C482 C481 1.370 1_545 S
C482 H500 0.948 . S
Zn483 N477 2.020 . S
Zn483 O492 2.039 . S
Zn483 O498 2.034 . S
Zn483 O502 2.025 . S
Zn483 O504 2.024 . S
C484 O503 1.246 . S
C484 O504 1.249 . S
N485 C486 1.307 . S
N485 C487 1.333 . S
N485 Zn491 2.020 . S
C486 N485 1.307 . S
C486 C490 1.370 . S
C486 H497 0.948 . S
C487 N485 1.333 . S
C487 C488 1.379 . S
C487 H495 0.952 . S
C488 C487 1.379 . S
C488 C489 1.390 . S
C488 H508 0.949 . S
C489 C488 1.390 . S
C489 C490 1.357 . S
C490 C486 1.370 . S
C490 C489 1.357 . S
C490 H509 0.950 . S
Zn491 N485 2.020 . S
Zn491 O494 2.025 . S
Zn491 O499 2.024 . S
Zn491 O501 2.039 . S
Zn491 O503 2.034 . S
O492 C476 1.251 . S
O492 Zn483 2.039 . S
C493 O498 1.246 . S
C493 O499 1.249 . S
O494 C476 1.254 . S
O494 Zn491 2.025 . S
H495 C487 0.952 . S
H496 C478 0.952 . S
H497 C486 0.948 . S
O498 Zn483 2.034 . S
O498 C493 1.246 . S
O499 Zn491 2.024 . S
O499 C493 1.249 . S
H500 C482 0.948 . S
O501 Zn491 2.039 . S
O501 C505 1.251 . S
O502 Zn483 2.025 . S
O502 C505 1.254 . S
O503 C484 1.246 . S
O503 Zn491 2.034 . S
O504 Zn483 2.024 . S
O504 C484 1.249 . S
C505 O501 1.251 . S
C505 O502 1.254 . S
H506 C479 0.949 . S
H507 C481 0.950 . S
H508 C488 0.949 . S
H509 C490 0.950 . S
C510 O526 1.251 . S
C510 O528 1.254 . S
N511 C512 1.333 . S
N511 C516 1.307 . S
N511 Zn517 2.020 . S
C512 N511 1.333 . S
C512 C513 1.379 . S
C512 H530 0.952 . S
C513 C512 1.379 . S
C513 C514 1.390 . S
C513 H540 0.949 . S
C514 C513 1.390 . S
C514 C515 1.357 . S
C515 C514 1.357 . S
C515 C516 1.370 . S
C515 H541 0.950 . S
C516 N511 1.307 . S
C516 C515 1.370 . S
C516 H534 0.948 . S
Zn517 N511 2.020 . S
Zn517 O526 2.039 . S
Zn517 O532 2.034 . S
Zn517 O536 2.025 . S
Zn517 O538 2.024 . S
C518 O537 1.246 . S
C518 O538 1.249 . S
N519 C520 1.307 . S
N519 C521 1.333 . S
N519 Zn525 2.020 . S
C520 N519 1.307 . S
C520 C524 1.370 . S
C520 H531 0.948 . S
C521 N519 1.333 . S
C521 C522 1.379 . S
C521 H529 0.952 . S
C522 C521 1.379 . S
C522 C523 1.390 . S
C522 H542 0.949 . S
C523 C522 1.390 . S
C523 C524 1.357 . S
C524 C520 1.370 . S
C524 C523 1.357 . S
C524 H543 0.950 . S
Zn525 N519 2.020 . S
Zn525 O528 2.025 . S
Zn525 O533 2.024 . S
Zn525 O535 2.039 . S
Zn525 O537 2.034 . S
O526 C510 1.251 . S
O526 Zn517 2.039 . S
C527 O532 1.246 . S
C527 O533 1.249 . S
O528 C510 1.254 . S
O528 Zn525 2.025 . S
H529 C521 0.952 . S
H530 C512 0.952 . S
H531 C520 0.948 . S
O532 Zn517 2.034 . S
O532 C527 1.246 . S
O533 Zn525 2.024 . S
O533 C527 1.249 . S
H534 C516 0.948 . S
O535 Zn525 2.039 . S
O535 C539 1.251 . S
O536 Zn517 2.025 . S
O536 C539 1.254 . S
O537 C518 1.246 . S
O537 Zn525 2.034 . S
O538 Zn517 2.024 . S
O538 C518 1.249 . S
C539 O535 1.251 . S
C539 O536 1.254 . S
H540 C513 0.949 . S
H541 C515 0.950 . S
H542 C522 0.949 . S
H543 C524 0.950 . S
C544 O560 1.251 . S
C544 O562 1.254 . S
N545 C546 1.333 . S
N545 C550 1.307 . S
N545 Zn551 2.020 . S
C546 N545 1.333 . S
C546 C547 1.379 . S
C546 H564 0.952 . S
C547 C546 1.379 . S
C547 C548 1.390 . S
C547 H574 0.949 . S
C548 C547 1.390 . S
C548 C549 1.357 . S
C549 C548 1.357 . S
C549 C550 1.370 . S
C549 H575 0.950 . S
C550 N545 1.307 . S
C550 C549 1.370 . S
C550 H568 0.948 . S
Zn551 N545 2.020 . S
Zn551 O560 2.039 . S
Zn551 O566 2.034 . S
Zn551 O570 2.025 . S
Zn551 O572 2.024 . S
C552 O571 1.246 . S
C552 O572 1.249 . S
N553 C554 1.307 . S
N553 C555 1.333 . S
N553 Zn559 2.020 . S
C554 N553 1.307 . S
C554 C558 1.370 . S
C554 H565 0.948 . S
C555 N553 1.333 . S
C555 C556 1.379 . S
C555 H563 0.952 . S
C556 C555 1.379 . S
C556 C557 1.390 . S
C556 H576 0.949 . S
C557 C556 1.390 . S
C557 C558 1.357 . S
C558 C554 1.370 . S
C558 C557 1.357 . S
C558 H577 0.950 . S
Zn559 N553 2.020 . S
Zn559 O562 2.025 . S
Zn559 O567 2.024 . S
Zn559 O569 2.039 . S
Zn559 O571 2.034 . S
O560 C544 1.251 . S
O560 Zn551 2.039 . S
C561 O566 1.246 . S
C561 O567 1.249 . S
O562 C544 1.254 . S
O562 Zn559 2.025 . S
H563 C555 0.952 . S
H564 C546 0.952 . S
H565 C554 0.948 . S
O566 Zn551 2.034 . S
O566 C561 1.246 . S
O567 Zn559 2.024 . S
O567 C561 1.249 . S
H568 C550 0.948 . S
O569 Zn559 2.039 . S
O569 C573 1.251 . S
O570 Zn551 2.025 . S
O570 C573 1.254 . S
O571 C552 1.246 . S
O571 Zn559 2.034 . S
O572 Zn551 2.024 . S
O572 C552 1.249 . S
C573 O569 1.251 . S
C573 O570 1.254 . S
H574 C547 0.949 . S
H575 C549 0.950 . S
H576 C556 0.949 . S
H577 C558 0.950 . S
C578 O594 1.251 . S
C578 O596 1.254 . S
N579 C580 1.333 . S
N579 C584 1.307 . S
N579 Zn585 2.020 . S
C580 N579 1.333 . S
C580 C581 1.379 . S
C580 H598 0.952 . S
C581 C580 1.379 . S
C581 C582 1.390 . S
C581 H608 0.949 . S
C582 C581 1.390 . S
C582 C583 1.357 . S
C583 C582 1.357 . S
C583 C584 1.370 . S
C583 H609 0.950 . S
C584 N579 1.307 . S
C584 C583 1.370 . S
C584 H602 0.948 . S
Zn585 N579 2.020 . S
Zn585 O594 2.039 . S
Zn585 O600 2.034 . S
Zn585 O604 2.025 . S
Zn585 O606 2.024 . S
C586 O605 1.246 . S
C586 O606 1.249 . S
N587 C588 1.307 . S
N587 C589 1.333 . S
N587 Zn593 2.020 . S
C588 N587 1.307 . S
C588 C592 1.370 . S
C588 H599 0.948 . S
C589 N587 1.333 . S
C589 C590 1.379 . S
C589 H597 0.952 . S
C590 C589 1.379 . S
C590 C591 1.390 . S
C590 H610 0.949 . S
C591 C590 1.390 . S
C591 C592 1.357 . S
C592 C588 1.370 . S
C592 C591 1.357 . S
C592 H611 0.950 . S
Zn593 N587 2.020 . S
Zn593 O596 2.025 . S
Zn593 O601 2.024 . S
Zn593 O603 2.039 . S
Zn593 O605 2.034 . S
O594 C578 1.251 . S
O594 Zn585 2.039 . S
C595 O600 1.246 . S
C595 O601 1.249 . S
O596 C578 1.254 . S
O596 Zn593 2.025 . S
H597 C589 0.952 . S
H598 C580 0.952 . S
H599 C588 0.948 . S
O600 Zn585 2.034 . S
O600 C595 1.246 . S
O601 Zn593 2.024 . S
O601 C595 1.249 . S
H602 C584 0.948 . S
O603 Zn593 2.039 . S
O603 C607 1.251 . S
O604 Zn585 2.025 . S
O604 C607 1.254 . S
O605 C586 1.246 . S
O605 Zn593 2.034 . S
O606 Zn585 2.024 . S
O606 C586 1.249 . S
C607 O603 1.251 . S
C607 O604 1.254 . S
H608 C581 0.949 . S
H609 C583 0.950 . S
H610 C590 0.949 . S
H611 C592 0.950 . S
C612 O628 1.251 . S
C612 O630 1.254 . S
N613 C614 1.333 . S
N613 C618 1.307 . S
N613 Zn619 2.020 . S
C614 N613 1.333 . S
C614 C615 1.379 . S
C614 H632 0.952 . S
C615 C614 1.379 . S
C615 C616 1.390 . S
C615 H642 0.949 . S
C616 C615 1.390 . S
C616 C617 1.357 . S
C617 C616 1.357 . S
C617 C618 1.370 . S
C617 H643 0.950 . S
C618 N613 1.307 . S
C618 C617 1.370 . S
C618 H636 0.948 . S
Zn619 N613 2.020 . S
Zn619 O628 2.039 . S
Zn619 O634 2.034 . S
Zn619 O638 2.025 . S
Zn619 O640 2.024 . S
C620 O639 1.246 . S
C620 O640 1.249 . S
N621 C622 1.307 . S
N621 C623 1.333 . S
N621 Zn627 2.020 . S
C622 N621 1.307 . S
C622 C626 1.370 . S
C622 H633 0.948 . S
C623 N621 1.333 . S
C623 C624 1.379 . S
C623 H631 0.952 . S
C624 C623 1.379 . S
C624 C625 1.390 . S
C624 H644 0.949 . S
C625 C624 1.390 . S
C625 C626 1.357 . S
C626 C622 1.370 . S
C626 C625 1.357 . S
C626 H645 0.950 . S
Zn627 N621 2.020 . S
Zn627 O630 2.025 . S
Zn627 O635 2.024 . S
Zn627 O637 2.039 . S
Zn627 O639 2.034 . S
O628 C612 1.251 . S
O628 Zn619 2.039 . S
C629 O634 1.246 . S
C629 O635 1.249 . S
O630 C612 1.254 . S
O630 Zn627 2.025 . S
H631 C623 0.952 . S
H632 C614 0.952 . S
H633 C622 0.948 . S
O634 Zn619 2.034 . S
O634 C629 1.246 . S
O635 Zn627 2.024 . S
O635 C629 1.249 . S
H636 C618 0.948 . S
O637 Zn627 2.039 . S
O637 C641 1.251 . S
O638 Zn619 2.025 . S
O638 C641 1.254 . S
O639 C620 1.246 . S
O639 Zn627 2.034 . S
O640 Zn619 2.024 . S
O640 C620 1.249 . S
C641 O637 1.251 . S
C641 O638 1.254 . S
H642 C615 0.949 . S
H643 C617 0.950 . S
H644 C624 0.949 . S
H645 C626 0.950 . S
C646 O662 1.251 . S
C646 O664 1.254 . S
N647 C648 1.333 . S
N647 C652 1.307 . S
N647 Zn653 2.020 . S
C648 N647 1.333 . S
C648 C649 1.379 . S
C648 H666 0.952 . S
C649 C648 1.379 . S
C649 C650 1.390 . S
C649 H676 0.949 . S
C650 C649 1.390 . S
C650 C651 1.357 . S
C651 C650 1.357 . S
C651 C652 1.370 . S
C651 H677 0.950 . S
C652 N647 1.307 . S
C652 C651 1.370 . S
C652 H670 0.948 . S
Zn653 N647 2.020 . S
Zn653 O662 2.039 . S
Zn653 O668 2.034 . S
Zn653 O672 2.025 . S
Zn653 O674 2.024 . S
C654 O673 1.246 . S
C654 O674 1.249 . S
N655 C656 1.307 . S
N655 C657 1.333 . S
N655 Zn661 2.020 . S
C656 N655 1.307 . S
C656 C660 1.370 . S
C656 H667 0.948 . S
C657 N655 1.333 . S
C657 C658 1.379 . S
C657 H665 0.952 . S
C658 C657 1.379 . S
C658 C659 1.390 . S
C658 H678 0.949 . S
C659 C658 1.390 . S
C659 C660 1.357 . S
C660 C656 1.370 . S
C660 C659 1.357 . S
C660 H679 0.950 . S
Zn661 N655 2.020 . S
Zn661 O664 2.025 . S
Zn661 O669 2.024 . S
Zn661 O671 2.039 . S
Zn661 O673 2.034 . S
O662 C646 1.251 . S
O662 Zn653 2.039 . S
C663 O668 1.246 . S
C663 O669 1.249 . S
O664 C646 1.254 . S
O664 Zn661 2.025 . S
H665 C657 0.952 . S
H666 C648 0.952 . S
H667 C656 0.948 . S
O668 Zn653 2.034 . S
O668 C663 1.246 . S
O669 Zn661 2.024 . S
O669 C663 1.249 . S
H670 C652 0.948 . S
O671 Zn661 2.039 . S
O671 C675 1.251 . S
O672 Zn653 2.025 . S
O672 C675 1.254 . S
O673 C654 1.246 . S
O673 Zn661 2.034 . S
O674 Zn653 2.024 . S
O674 C654 1.249 . S
C675 O671 1.251 . S
C675 O672 1.254 . S
H676 C649 0.949 . S
H677 C651 0.950 . S
H678 C658 0.949 . S
H679 C660 0.950 . S
C680 O696 1.251 . S
C680 O698 1.254 . S
N681 C682 1.333 . S
N681 C686 1.307 . S
N681 Zn687 2.020 . S
C682 N681 1.333 . S
C682 C683 1.379 . S
C682 H700 0.952 . S
C683 C682 1.379 . S
C683 C684 1.390 . S
C683 H710 0.949 . S
C684 C683 1.390 . S
C684 C685 1.357 . S
C685 C684 1.357 . S
C685 C686 1.370 . S
C685 H711 0.950 . S
C686 N681 1.307 . S
C686 C685 1.370 . S
C686 H704 0.948 . S
Zn687 N681 2.020 . S
Zn687 O696 2.039 . S
Zn687 O702 2.034 . S
Zn687 O706 2.025 . S
Zn687 O708 2.024 . S
C688 O707 1.246 . S
C688 O708 1.249 . S
N689 C690 1.307 . S
N689 C691 1.333 . S
N689 Zn695 2.020 . S
C690 N689 1.307 . S
C690 C694 1.370 . S
C690 H701 0.948 . S
C691 N689 1.333 . S
C691 C692 1.379 . S
C691 H699 0.952 . S
C692 C691 1.379 . S
C692 C693 1.390 . S
C692 H712 0.949 . S
C693 C692 1.390 . S
C693 C694 1.357 . S
C694 C690 1.370 . S
C694 C693 1.357 . S
C694 H713 0.950 . S
Zn695 N689 2.020 . S
Zn695 O698 2.025 . S
Zn695 O703 2.024 . S
Zn695 O705 2.039 . S
Zn695 O707 2.034 . S
O696 C680 1.251 . S
O696 Zn687 2.039 . S
C697 O702 1.246 . S
C697 O703 1.249 . S
O698 C680 1.254 . S
O698 Zn695 2.025 . S
H699 C691 0.952 . S
H700 C682 0.952 . S
H701 C690 0.948 . S
O702 Zn687 2.034 . S
O702 C697 1.246 . S
O703 Zn695 2.024 . S
O703 C697 1.249 . S
H704 C686 0.948 . S
O705 Zn695 2.039 . S
O705 C709 1.251 . S
O706 Zn687 2.025 . S
O706 C709 1.254 . S
O707 C688 1.246 . S
O707 Zn695 2.034 . S
O708 Zn687 2.024 . S
O708 C688 1.249 . S
C709 O705 1.251 . S
C709 O706 1.254 . S
H710 C683 0.949 . S
H711 C685 0.950 . S
H712 C692 0.949 . S
H713 C694 0.950 . S
C714 O730 1.251 . S
C714 O732 1.254 . S
N715 C716 1.333 . S
N715 C720 1.307 . S
N715 Zn721 2.020 . S
C716 N715 1.333 . S
C716 C717 1.379 . S
C716 H734 0.952 . S
C717 C716 1.379 . S
C717 C718 1.390 . S
C717 H744 0.949 . S
C718 C717 1.390 . S
C718 C719 1.357 . S
C719 C718 1.357 . S
C719 C720 1.370 . S
C719 H745 0.950 1_545 S
C720 N715 1.307 . S
C720 C719 1.370 . S
C720 H738 0.948 . S
Zn721 N715 2.020 . S
Zn721 O730 2.039 . S
Zn721 O736 2.034 . S
Zn721 O740 2.025 . S
Zn721 O742 2.024 . S
C722 O741 1.246 . S
C722 O742 1.249 . S
N723 C724 1.307 . S
N723 C725 1.333 1_556 S
N723 Zn729 2.020 . S
C724 N723 1.307 . S
C724 C728 1.370 1_556 S
C724 H735 0.948 . S
C725 N723 1.333 1_554 S
C725 C726 1.379 . S
C725 H733 0.952 . S
C726 C725 1.379 . S
C726 C727 1.390 . S
C726 H746 0.949 . S
C727 C726 1.390 . S
C727 C728 1.357 . S
C728 C724 1.370 1_554 S
C728 C727 1.357 . S
C728 H747 0.950 . S
Zn729 N723 2.020 . S
Zn729 O732 2.025 . S
Zn729 O737 2.024 . S
Zn729 O739 2.039 . S
Zn729 O741 2.034 . S
O730 C714 1.251 . S
O730 Zn721 2.039 . S
C731 O736 1.246 . S
C731 O737 1.249 . S
O732 C714 1.254 . S
O732 Zn729 2.025 . S
H733 C725 0.952 . S
H734 C716 0.952 . S
H735 C724 0.948 . S
O736 Zn721 2.034 . S
O736 C731 1.246 . S
O737 Zn729 2.024 . S
O737 C731 1.249 . S
H738 C720 0.948 . S
O739 Zn729 2.039 . S
O739 C743 1.251 . S
O740 Zn721 2.025 . S
O740 C743 1.254 . S
O741 C722 1.246 . S
O741 Zn729 2.034 . S
O742 Zn721 2.024 . S
O742 C722 1.249 . S
C743 O739 1.251 . S
C743 O740 1.254 . S
H744 C717 0.949 . S
H745 C719 0.950 1_565 S
H746 C726 0.949 . S
H747 C728 0.950 . S
C748 O764 1.251 . S
C748 O766 1.254 . S
N749 C750 1.333 . S
N749 C754 1.307 . S
N749 Zn755 2.020 . S
C750 N749 1.333 . S
C750 C751 1.379 . S
C750 H768 0.952 . S
C751 C750 1.379 . S
C751 C752 1.390 . S
C751 H778 0.949 . S
C752 C751 1.390 . S
C752 C753 1.357 . S
C753 C752 1.357 . S
C753 C754 1.370 . S
C753 H779 0.950 1_655 S
C754 N749 1.307 . S
C754 C753 1.370 . S
C754 H772 0.948 . S
Zn755 N749 2.020 . S
Zn755 O764 2.039 . S
Zn755 O770 2.034 . S
Zn755 O774 2.025 . S
Zn755 O776 2.024 . S
C756 O775 1.246 . S
C756 O776 1.249 . S
N757 C758 1.307 . S
N757 C759 1.333 1_556 S
N757 Zn763 2.020 . S
C758 N757 1.307 . S
C758 C762 1.370 1_556 S
C758 H769 0.948 . S
C759 N757 1.333 1_554 S
C759 C760 1.379 . S
C759 H767 0.952 . S
C760 C759 1.379 . S
C760 C761 1.390 . S
C760 H780 0.949 . S
C761 C760 1.390 . S
C761 C762 1.357 . S
C762 C758 1.370 1_554 S
C762 C761 1.357 . S
C762 H781 0.950 . S
Zn763 N757 2.020 . S
Zn763 O766 2.025 . S
Zn763 O771 2.024 . S
Zn763 O773 2.039 . S
Zn763 O775 2.034 . S
O764 C748 1.251 . S
O764 Zn755 2.039 . S
C765 O770 1.246 . S
C765 O771 1.249 . S
O766 C748 1.254 . S
O766 Zn763 2.025 . S
H767 C759 0.952 . S
H768 C750 0.952 . S
H769 C758 0.948 . S
O770 Zn755 2.034 . S
O770 C765 1.246 . S
O771 Zn763 2.024 . S
O771 C765 1.249 . S
H772 C754 0.948 . S
O773 Zn763 2.039 . S
O773 C777 1.251 . S
O774 Zn755 2.025 . S
O774 C777 1.254 . S
O775 C756 1.246 . S
O775 Zn763 2.034 . S
O776 Zn755 2.024 . S
O776 C756 1.249 . S
C777 O773 1.251 . S
C777 O774 1.254 . S
H778 C751 0.949 . S
H779 C753 0.950 1_455 S
H780 C760 0.949 . S
H781 C762 0.950 . S
C782 O798 1.251 . S
C782 O800 1.254 . S
N783 C784 1.333 . S
N783 C788 1.307 . S
N783 Zn789 2.020 . S
C784 N783 1.333 . S
C784 C785 1.379 . S
C784 H802 0.952 . S
C785 C784 1.379 . S
C785 C786 1.390 . S
C785 H812 0.949 . S
C786 C785 1.390 . S
C786 C787 1.357 . S
C787 C786 1.357 . S
C787 C788 1.370 . S
C787 H813 0.950 . S
C788 N783 1.307 . S
C788 C787 1.370 . S
C788 H806 0.948 . S
Zn789 N783 2.020 . S
Zn789 O798 2.039 . S
Zn789 O804 2.034 . S
Zn789 O808 2.025 . S
Zn789 O810 2.024 . S
C790 O809 1.246 . S
C790 O810 1.249 . S
N791 C792 1.307 . S
N791 C793 1.333 1_556 S
N791 Zn797 2.020 . S
C792 N791 1.307 . S
C792 C796 1.370 1_556 S
C792 H803 0.948 . S
C793 N791 1.333 1_554 S
C793 C794 1.379 . S
C793 H801 0.952 . S
C794 C793 1.379 . S
C794 C795 1.390 . S
C794 H814 0.949 . S
C795 C794 1.390 . S
C795 C796 1.357 . S
C796 C792 1.370 1_554 S
C796 C795 1.357 . S
C796 H815 0.950 . S
Zn797 N791 2.020 . S
Zn797 O800 2.025 . S
Zn797 O805 2.024 . S
Zn797 O807 2.039 . S
Zn797 O809 2.034 . S
O798 C782 1.251 . S
O798 Zn789 2.039 . S
C799 O804 1.246 . S
C799 O805 1.249 . S
O800 C782 1.254 . S
O800 Zn797 2.025 . S
H801 C793 0.952 . S
H802 C784 0.952 . S
H803 C792 0.948 . S
O804 Zn789 2.034 . S
O804 C799 1.246 . S
O805 Zn797 2.024 . S
O805 C799 1.249 . S
H806 C788 0.948 . S
O807 Zn797 2.039 . S
O807 C811 1.251 . S
O808 Zn789 2.025 . S
O808 C811 1.254 . S
O809 C790 1.246 . S
O809 Zn797 2.034 . S
O810 Zn789 2.024 . S
O810 C790 1.249 . S
C811 O807 1.251 . S
C811 O808 1.254 . S
H812 C785 0.949 . S
H813 C787 0.950 . S
H814 C794 0.949 . S
H815 C796 0.950 . S
C816 O832 1.251 . S
C816 O834 1.254 . S
N817 C818 1.333 . S
N817 C822 1.307 . S
N817 Zn823 2.020 . S
C818 N817 1.333 . S
C818 C819 1.379 . S
C818 H836 0.952 . S
C819 C818 1.379 . S
C819 C820 1.390 . S
C819 H846 0.949 . S
C820 C819 1.390 . S
C820 C821 1.357 . S
C821 C820 1.357 . S
C821 C822 1.370 . S
C821 H847 0.950 . S
C822 N817 1.307 . S
C822 C821 1.370 . S
C822 H840 0.948 . S
Zn823 N817 2.020 . S
Zn823 O832 2.039 . S
Zn823 O838 2.034 . S
Zn823 O842 2.025 . S
Zn823 O844 2.024 . S
C824 O843 1.246 . S
C824 O844 1.249 . S
N825 C826 1.307 . S
N825 C827 1.333 . S
N825 Zn831 2.020 . S
C826 N825 1.307 . S
C826 C830 1.370 . S
C826 H837 0.948 . S
C827 N825 1.333 . S
C827 C828 1.379 . S
C827 H835 0.952 . S
C828 C827 1.379 . S
C828 C829 1.390 . S
C828 H848 0.949 . S
C829 C828 1.390 . S
C829 C830 1.357 . S
C830 C826 1.370 . S
C830 C829 1.357 . S
C830 H849 0.950 . S
Zn831 N825 2.020 . S
Zn831 O834 2.025 . S
Zn831 O839 2.024 . S
Zn831 O841 2.039 . S
Zn831 O843 2.034 . S
O832 C816 1.251 . S
O832 Zn823 2.039 . S
C833 O838 1.246 . S
C833 O839 1.249 . S
O834 C816 1.254 . S
O834 Zn831 2.025 . S
H835 C827 0.952 . S
H836 C818 0.952 . S
H837 C826 0.948 . S
O838 Zn823 2.034 . S
O838 C833 1.246 . S
O839 Zn831 2.024 . S
O839 C833 1.249 . S
H840 C822 0.948 . S
O841 Zn831 2.039 . S
O841 C845 1.251 . S
O842 Zn823 2.025 . S
O842 C845 1.254 . S
O843 C824 1.246 . S
O843 Zn831 2.034 . S
O844 Zn823 2.024 . S
O844 C824 1.249 . S
C845 O841 1.251 . S
C845 O842 1.254 . S
H846 C819 0.949 . S
H847 C821 0.950 . S
H848 C828 0.949 . S
H849 C830 0.950 . S
C850 O866 1.251 . S
C850 O868 1.254 . S
N851 C852 1.333 . S
N851 C856 1.307 . S
N851 Zn857 2.020 . S
C852 N851 1.333 . S
C852 C853 1.379 . S
C852 H870 0.952 . S
C853 C852 1.379 . S
C853 C854 1.390 . S
C853 H880 0.949 . S
C854 C853 1.390 . S
C854 C855 1.357 . S
C855 C854 1.357 . S
C855 C856 1.370 . S
C855 H881 0.950 . S
C856 N851 1.307 . S
C856 C855 1.370 . S
C856 H874 0.948 . S
Zn857 N851 2.020 . S
Zn857 O866 2.039 . S
Zn857 O872 2.034 . S
Zn857 O876 2.025 . S
Zn857 O878 2.024 . S
C858 O877 1.246 . S
C858 O878 1.249 . S
N859 C860 1.307 . S
N859 C861 1.333 . S
N859 Zn865 2.020 . S
C860 N859 1.307 . S
C860 C864 1.370 . S
C860 H871 0.948 . S
C861 N859 1.333 . S
C861 C862 1.379 . S
C861 H869 0.952 . S
C862 C861 1.379 . S
C862 C863 1.390 . S
C862 H882 0.949 . S
C863 C862 1.390 . S
C863 C864 1.357 . S
C864 C860 1.370 . S
C864 C863 1.357 . S
C864 H883 0.950 . S
Zn865 N859 2.020 . S
Zn865 O868 2.025 . S
Zn865 O873 2.024 . S
Zn865 O875 2.039 . S
Zn865 O877 2.034 . S
O866 C850 1.251 . S
O866 Zn857 2.039 . S
C867 O872 1.246 . S
C867 O873 1.249 . S
O868 C850 1.254 . S
O868 Zn865 2.025 . S
H869 C861 0.952 . S
H870 C852 0.952 . S
H871 C860 0.948 . S
O872 Zn857 2.034 . S
O872 C867 1.246 . S
O873 Zn865 2.024 . S
O873 C867 1.249 . S
H874 C856 0.948 . S
O875 Zn865 2.039 . S
O875 C879 1.251 . S
O876 Zn857 2.025 . S
O876 C879 1.254 . S
O877 C858 1.246 . S
O877 Zn865 2.034 . S
O878 Zn857 2.024 . S
O878 C858 1.249 . S
C879 O875 1.251 . S
C879 O876 1.254 . S
H880 C853 0.949 . S
H881 C855 0.950 . S
H882 C862 0.949 . S
H883 C864 0.950 . S
C884 O900 1.251 . S
C884 O902 1.254 . S
N885 C886 1.333 . S
N885 C890 1.307 . S
N885 Zn891 2.020 . S
C886 N885 1.333 . S
C886 C887 1.379 . S
C886 H904 0.952 . S
C887 C886 1.379 . S
C887 C888 1.390 . S
C887 H914 0.949 . S
C888 C887 1.390 . S
C888 C889 1.357 . S
C889 C888 1.357 . S
C889 C890 1.370 . S
C889 H915 0.950 . S
C890 N885 1.307 . S
C890 C889 1.370 . S
C890 H908 0.948 . S
Zn891 N885 2.020 . S
Zn891 O900 2.039 . S
Zn891 O906 2.034 . S
Zn891 O910 2.025 . S
Zn891 O912 2.024 . S
C892 O911 1.246 . S
C892 O912 1.249 . S
N893 C894 1.307 . S
N893 C895 1.333 . S
N893 Zn899 2.020 . S
C894 N893 1.307 . S
C894 C898 1.370 . S
C894 H905 0.948 . S
C895 N893 1.333 . S
C895 C896 1.379 . S
C895 H903 0.952 . S
C896 C895 1.379 . S
C896 C897 1.390 . S
C896 H916 0.949 . S
C897 C896 1.390 . S
C897 C898 1.357 . S
C898 C894 1.370 . S
C898 C897 1.357 . S
C898 H917 0.950 . S
Zn899 N893 2.020 . S
Zn899 O902 2.025 . S
Zn899 O907 2.024 . S
Zn899 O909 2.039 . S
Zn899 O911 2.034 . S
O900 C884 1.251 . S
O900 Zn891 2.039 . S
C901 O906 1.246 . S
C901 O907 1.249 . S
O902 C884 1.254 . S
O902 Zn899 2.025 . S
H903 C895 0.952 . S
H904 C886 0.952 . S
H905 C894 0.948 . S
O906 Zn891 2.034 . S
O906 C901 1.246 . S
O907 Zn899 2.024 . S
O907 C901 1.249 . S
H908 C890 0.948 . S
O909 Zn899 2.039 . S
O909 C913 1.251 . S
O910 Zn891 2.025 . S
O910 C913 1.254 . S
O911 C892 1.246 . S
O911 Zn899 2.034 . S
O912 Zn891 2.024 . S
O912 C892 1.249 . S
C913 O909 1.251 . S
C913 O910 1.254 . S
H914 C887 0.949 . S
H915 C889 0.950 . S
H916 C896 0.949 . S
H917 C898 0.950 . S
C918 O934 1.251 . S
C918 O936 1.254 . S
N919 C920 1.333 1_554 S
N919 C924 1.307 . S
N919 Zn925 2.020 . S
C920 N919 1.333 1_556 S
C920 C921 1.379 . S
C920 H938 0.952 . S
C921 C920 1.379 . S
C921 C922 1.390 . S
C921 H948 0.949 . S
C922 C921 1.390 . S
C922 C923 1.357 . S
C923 C922 1.357 . S
C923 C924 1.370 1_556 S
C923 H949 0.950 . S
C924 N919 1.307 . S
C924 C923 1.370 1_554 S
C924 H942 0.948 . S
Zn925 N919 2.020 . S
Zn925 O934 2.039 . S
Zn925 O940 2.034 . S
Zn925 O944 2.025 . S
Zn925 O946 2.024 . S
C926 O945 1.246 . S
C926 O946 1.249 . S
N927 C928 1.307 . S
N927 C929 1.333 . S
N927 Zn933 2.020 . S
C928 N927 1.307 . S
C928 C932 1.370 . S
C928 H939 0.948 . S
C929 N927 1.333 . S
C929 C930 1.379 . S
C929 H937 0.952 . S
C930 C929 1.379 . S
C930 C931 1.390 . S
C930 H950 0.949 . S
C931 C930 1.390 . S
C931 C932 1.357 . S
C932 C928 1.370 . S
C932 C931 1.357 . S
C932 H951 0.950 1_565 S
Zn933 N927 2.020 . S
Zn933 O936 2.025 . S
Zn933 O941 2.024 . S
Zn933 O943 2.039 . S
Zn933 O945 2.034 . S
O934 C918 1.251 . S
O934 Zn925 2.039 . S
C935 O940 1.246 . S
C935 O941 1.249 . S
O936 C918 1.254 . S
O936 Zn933 2.025 . S
H937 C929 0.952 . S
H938 C920 0.952 . S
H939 C928 0.948 . S
O940 Zn925 2.034 . S
O940 C935 1.246 . S
O941 Zn933 2.024 . S
O941 C935 1.249 . S
H942 C924 0.948 . S
O943 Zn933 2.039 . S
O943 C947 1.251 . S
O944 Zn925 2.025 . S
O944 C947 1.254 . S
O945 C926 1.246 . S
O945 Zn933 2.034 . S
O946 Zn925 2.024 . S
O946 C926 1.249 . S
C947 O943 1.251 . S
C947 O944 1.254 . S
H948 C921 0.949 . S
H949 C923 0.950 . S
H950 C930 0.949 . S
H951 C932 0.950 1_545 S
C952 O968 1.251 . S
C952 O970 1.254 . S
N953 C954 1.333 1_554 S
N953 C958 1.307 . S
N953 Zn959 2.020 . S
C954 N953 1.333 1_556 S
C954 C955 1.379 . S
C954 H972 0.952 . S
C955 C954 1.379 . S
C955 C956 1.390 . S
C955 H982 0.949 . S
C956 C955 1.390 . S
C956 C957 1.357 . S
C957 C956 1.357 . S
C957 C958 1.370 1_556 S
C957 H983 0.950 . S
C958 N953 1.307 . S
C958 C957 1.370 1_554 S
C958 H976 0.948 . S
Zn959 N953 2.020 . S
Zn959 O968 2.039 . S
Zn959 O974 2.034 . S
Zn959 O978 2.025 . S
Zn959 O980 2.024 . S
C960 O979 1.246 . S
C960 O980 1.249 . S
N961 C962 1.307 . S
N961 C963 1.333 . S
N961 Zn967 2.020 . S
C962 N961 1.307 . S
C962 C966 1.370 . S
C962 H973 0.948 . S
C963 N961 1.333 . S
C963 C964 1.379 . S
C963 H971 0.952 . S
C964 C963 1.379 . S
C964 C965 1.390 . S
C964 H984 0.949 . S
C965 C964 1.390 . S
C965 C966 1.357 . S
C966 C962 1.370 . S
C966 C965 1.357 . S
C966 H985 0.950 1_455 S
Zn967 N961 2.020 . S
Zn967 O970 2.025 . S
Zn967 O975 2.024 . S
Zn967 O977 2.039 . S
Zn967 O979 2.034 . S
O968 C952 1.251 . S
O968 Zn959 2.039 . S
C969 O974 1.246 . S
C969 O975 1.249 . S
O970 C952 1.254 . S
O970 Zn967 2.025 . S
H971 C963 0.952 . S
H972 C954 0.952 . S
H973 C962 0.948 . S
O974 Zn959 2.034 . S
O974 C969 1.246 . S
O975 Zn967 2.024 . S
O975 C969 1.249 . S
H976 C958 0.948 . S
O977 Zn967 2.039 . S
O977 C981 1.251 . S
O978 Zn959 2.025 . S
O978 C981 1.254 . S
O979 C960 1.246 . S
O979 Zn967 2.034 . S
O980 Zn959 2.024 . S
O980 C960 1.249 . S
C981 O977 1.251 . S
C981 O978 1.254 . S
H982 C955 0.949 . S
H983 C957 0.950 . S
H984 C964 0.949 . S
H985 C966 0.950 1_655 S
C986 O1002 1.251 . S
C986 O1004 1.254 . S
N987 C988 1.333 1_554 S
N987 C992 1.307 . S
N987 Zn993 2.020 . S
C988 N987 1.333 1_556 S
C988 C989 1.379 . S
C988 H1006 0.952 . S
C989 C988 1.379 . S
C989 C990 1.390 . S
C989 H1016 0.949 . S
C990 C989 1.390 . S
C990 C991 1.357 . S
C991 C990 1.357 . S
C991 C992 1.370 1_556 S
C991 H1017 0.950 . S
C992 N987 1.307 . S
C992 C991 1.370 1_554 S
C992 H1010 0.948 . S
Zn993 N987 2.020 . S
Zn993 O1002 2.039 . S
Zn993 O1008 2.034 . S
Zn993 O1012 2.025 . S
Zn993 O1014 2.024 . S
C994 O1013 1.246 . S
C994 O1014 1.249 . S
N995 C996 1.307 . S
N995 C997 1.333 . S
N995 Zn1001 2.020 . S
C996 N995 1.307 . S
C996 C1000 1.370 . S
C996 H1007 0.948 . S
C997 N995 1.333 . S
C997 C998 1.379 . S
C997 H1005 0.952 . S
C998 C997 1.379 . S
C998 C999 1.390 . S
C998 H1018 0.949 . S
C999 C998 1.390 . S
C999 C1000 1.357 . S
C1000 C996 1.370 . S
C1000 C999 1.357 . S
C1000 H1019 0.950 . S
Zn1001 N995 2.020 . S
Zn1001 O1004 2.025 . S
Zn1001 O1009 2.024 . S
Zn1001 O1011 2.039 . S
Zn1001 O1013 2.034 . S
O1002 C986 1.251 . S
O1002 Zn993 2.039 . S
C1003 O1008 1.246 . S
C1003 O1009 1.249 . S
O1004 C986 1.254 . S
O1004 Zn1001 2.025 . S
H1005 C997 0.952 . S
H1006 C988 0.952 . S
H1007 C996 0.948 . S
O1008 Zn993 2.034 . S
O1008 C1003 1.246 . S
O1009 Zn1001 2.024 . S
O1009 C1003 1.249 . S
H1010 C992 0.948 . S
O1011 Zn1001 2.039 . S
O1011 C1015 1.251 . S
O1012 Zn993 2.025 . S
O1012 C1015 1.254 . S
O1013 C994 1.246 . S
O1013 Zn1001 2.034 . S
O1014 Zn993 2.024 . S
O1014 C994 1.249 . S
C1015 O1011 1.251 . S
C1015 O1012 1.254 . S
H1016 C989 0.949 . S
H1017 C991 0.950 . S
H1018 C998 0.949 . S
H1019 C1000 0.950 . S
C1020 O1036 1.251 . S
C1020 O1038 1.254 . S
N1021 C1022 1.333 . S
N1021 C1026 1.307 . S
N1021 Zn1027 2.020 . S
C1022 N1021 1.333 . S
C1022 C1023 1.379 . S
C1022 H1040 0.952 . S
C1023 C1022 1.379 . S
C1023 C1024 1.390 . S
C1023 H1050 0.949 . S
C1024 C1023 1.390 . S
C1024 C1025 1.357 . S
C1025 C1024 1.357 . S
C1025 C1026 1.370 . S
C1025 H1051 0.950 . S
C1026 N1021 1.307 . S
C1026 C1025 1.370 . S
C1026 H1044 0.948 . S
Zn1027 N1021 2.020 . S
Zn1027 O1036 2.039 . S
Zn1027 O1042 2.034 . S
Zn1027 O1046 2.025 . S
Zn1027 O1048 2.024 . S
C1028 O1047 1.246 . S
C1028 O1048 1.249 . S
N1029 C1030 1.307 . S
N1029 C1031 1.333 . S
N1029 Zn1035 2.020 . S
C1030 N1029 1.307 . S
C1030 C1034 1.370 1_455 S
C1030 H1041 0.948 . S
C1031 N1029 1.333 . S
C1031 C1032 1.379 . S
C1031 H1039 0.952 . S
C1032 C1031 1.379 . S
C1032 C1033 1.383 1_455 S
C1032 H1052 0.949 . S
C1033 C1032 1.383 1_655 S
C1033 C1034 1.354 . S
C1034 C1030 1.370 1_655 S
C1034 C1033 1.354 . S
C1034 H1053 0.950 . S
Zn1035 N1029 2.020 . S
Zn1035 O1038 2.025 . S
Zn1035 O1043 2.024 . S
Zn1035 O1045 2.039 . S
Zn1035 O1047 2.034 . S
O1036 C1020 1.251 . S
O1036 Zn1027 2.039 . S
C1037 O1042 1.246 . S
C1037 O1043 1.249 . S
O1038 C1020 1.254 . S
O1038 Zn1035 2.025 . S
H1039 C1031 0.952 . S
H1040 C1022 0.952 . S
H1041 C1030 0.948 . S
O1042 Zn1027 2.034 . S
O1042 C1037 1.246 . S
O1043 Zn1035 2.024 . S
O1043 C1037 1.249 . S
H1044 C1026 0.948 . S
O1045 Zn1035 2.039 . S
O1045 C1049 1.251 . S
O1046 Zn1027 2.025 . S
O1046 C1049 1.254 . S
O1047 C1028 1.246 . S
O1047 Zn1035 2.034 . S
O1048 Zn1027 2.024 . S
O1048 C1028 1.249 . S
C1049 O1045 1.251 . S
C1049 O1046 1.254 . S
H1050 C1023 0.949 . S
H1051 C1025 0.950 . S
H1052 C1032 0.949 . S
H1053 C1034 0.950 . S
C1054 O1070 1.251 . S
C1054 O1072 1.254 . S
N1055 C1056 1.333 . S
N1055 C1060 1.307 . S
N1055 Zn1061 2.020 . S
C1056 N1055 1.333 . S
C1056 C1057 1.379 . S
C1056 H1074 0.952 . S
C1057 C1056 1.379 . S
C1057 C1058 1.390 . S
C1057 H1084 0.949 . S
C1058 C1057 1.390 . S
C1058 C1059 1.357 . S
C1059 C1058 1.357 . S
C1059 C1060 1.370 . S
C1059 H1085 0.950 . S
C1060 N1055 1.307 . S
C1060 C1059 1.370 . S
C1060 H1078 0.948 . S
Zn1061 N1055 2.020 . S
Zn1061 O1070 2.039 . S
Zn1061 O1076 2.034 . S
Zn1061 O1080 2.025 . S
Zn1061 O1082 2.024 . S
C1062 O1081 1.246 . S
C1062 O1082 1.249 . S
N1063 C1064 1.307 . S
N1063 C1065 1.333 . S
N1063 Zn1069 2.020 . S
C1064 N1063 1.307 . S
C1064 C1068 1.370 . S
C1064 H1075 0.948 . S
C1065 N1063 1.333 . S
C1065 C1066 1.379 . S
C1065 H1073 0.952 . S
C1066 C1065 1.379 . S
C1066 C1067 1.390 . S
C1066 H1086 0.949 . S
C1067 C1066 1.390 . S
C1067 C1068 1.357 . S
C1068 C1064 1.370 . S
C1068 C1067 1.357 . S
C1068 H1087 0.950 . S
Zn1069 N1063 2.020 . S
Zn1069 O1072 2.025 . S
Zn1069 O1077 2.024 . S
Zn1069 O1079 2.039 . S
Zn1069 O1081 2.034 . S
O1070 C1054 1.251 . S
O1070 Zn1061 2.039 . S
C1071 O1076 1.246 . S
C1071 O1077 1.249 . S
O1072 C1054 1.254 . S
O1072 Zn1069 2.025 . S
H1073 C1065 0.952 . S
H1074 C1056 0.952 . S
H1075 C1064 0.948 . S
O1076 Zn1061 2.034 . S
O1076 C1071 1.246 . S
O1077 Zn1069 2.024 . S
O1077 C1071 1.249 . S
H1078 C1060 0.948 . S
O1079 Zn1069 2.039 . S
O1079 C1083 1.251 . S
O1080 Zn1061 2.025 . S
O1080 C1083 1.254 . S
O1081 C1062 1.246 . S
O1081 Zn1069 2.034 . S
O1082 Zn1061 2.024 . S
O1082 C1062 1.249 . S
C1083 O1079 1.251 . S
C1083 O1080 1.254 . S
H1084 C1057 0.949 . S
H1085 C1059 0.950 . S
H1086 C1066 0.949 . S
H1087 C1068 0.950 . S
C1088 O1104 1.251 . S
C1088 O1106 1.254 . S
N1089 C1090 1.333 . S
N1089 C1094 1.307 . S
N1089 Zn1095 2.020 . S
C1090 N1089 1.333 . S
C1090 C1091 1.379 . S
C1090 H1108 0.952 . S
C1091 C1090 1.379 . S
C1091 C1092 1.390 . S
C1091 H1118 0.949 . S
C1092 C1091 1.390 . S
C1092 C1093 1.357 . S
C1093 C1092 1.357 . S
C1093 C1094 1.370 . S
C1093 H1119 0.950 . S
C1094 N1089 1.307 . S
C1094 C1093 1.370 . S
C1094 H1112 0.948 . S
Zn1095 N1089 2.020 . S
Zn1095 O1104 2.039 . S
Zn1095 O1110 2.034 . S
Zn1095 O1114 2.025 . S
Zn1095 O1116 2.024 . S
C1096 O1115 1.246 . S
C1096 O1116 1.249 . S
N1097 C1098 1.307 . S
N1097 C1099 1.333 . S
N1097 Zn1103 2.020 . S
C1098 N1097 1.307 . S
C1098 C1102 1.370 1_565 S
C1098 H1109 0.948 . S
C1099 N1097 1.333 . S
C1099 C1100 1.379 . S
C1099 H1107 0.952 . S
C1100 C1099 1.379 . S
C1100 C1101 1.379 1_565 S
C1100 H1120 0.949 . S
C1101 C1100 1.379 1_545 S
C1101 C1102 1.364 . S
C1102 C1098 1.370 1_545 S
C1102 C1101 1.364 . S
C1102 H1121 0.950 . S
Zn1103 N1097 2.020 . S
Zn1103 O1106 2.025 . S
Zn1103 O1111 2.024 . S
Zn1103 O1113 2.039 . S
Zn1103 O1115 2.034 . S
O1104 C1088 1.251 . S
O1104 Zn1095 2.039 . S
C1105 O1110 1.246 . S
C1105 O1111 1.249 . S
O1106 C1088 1.254 . S
O1106 Zn1103 2.025 . S
H1107 C1099 0.952 . S
H1108 C1090 0.952 . S
H1109 C1098 0.948 . S
O1110 Zn1095 2.034 . S
O1110 C1105 1.246 . S
O1111 Zn1103 2.024 . S
O1111 C1105 1.249 . S
H1112 C1094 0.948 . S
O1113 Zn1103 2.039 . S
O1113 C1117 1.251 . S
O1114 Zn1095 2.025 . S
O1114 C1117 1.254 . S
O1115 C1096 1.246 . S
O1115 Zn1103 2.034 . S
O1116 Zn1095 2.024 . S
O1116 C1096 1.249 . S
C1117 O1113 1.251 . S
C1117 O1114 1.254 . S
H1118 C1091 0.949 . S
H1119 C1093 0.950 . S
H1120 C1100 0.949 . S
H1121 C1102 0.950 . S
C1122 O1138 1.251 . S
C1122 O1140 1.254 . S
N1123 C1124 1.333 . S
N1123 C1128 1.307 . S
N1123 Zn1129 2.020 . S
C1124 N1123 1.333 . S
C1124 C1125 1.379 . S
C1124 H1142 0.952 . S
C1125 C1124 1.379 . S
C1125 C1126 1.390 . S
C1125 H1152 0.949 . S
C1126 C1125 1.390 . S
C1126 C1127 1.357 . S
C1127 C1126 1.357 . S
C1127 C1128 1.370 . S
C1127 H1153 0.950 . S
C1128 N1123 1.307 . S
C1128 C1127 1.370 . S
C1128 H1146 0.948 . S
Zn1129 N1123 2.020 . S
Zn1129 O1138 2.039 . S
Zn1129 O1144 2.034 . S
Zn1129 O1148 2.025 . S
Zn1129 O1150 2.024 . S
C1130 O1149 1.246 . S
C1130 O1150 1.249 . S
N1131 C1132 1.307 . S
N1131 C1133 1.333 . S
N1131 Zn1137 2.020 . S
C1132 N1131 1.307 . S
C1132 C1136 1.370 . S
C1132 H1143 0.948 . S
C1133 N1131 1.333 . S
C1133 C1134 1.379 . S
C1133 H1141 0.952 . S
C1134 C1133 1.379 . S
C1134 C1135 1.390 . S
C1134 H1154 0.949 . S
C1135 C1134 1.390 . S
C1135 C1136 1.357 . S
C1136 C1132 1.370 . S
C1136 C1135 1.357 . S
C1136 H1155 0.950 . S
Zn1137 N1131 2.020 . S
Zn1137 O1140 2.025 . S
Zn1137 O1145 2.024 . S
Zn1137 O1147 2.039 . S
Zn1137 O1149 2.034 . S
O1138 C1122 1.251 . S
O1138 Zn1129 2.039 . S
C1139 O1144 1.246 . S
C1139 O1145 1.249 . S
O1140 C1122 1.254 . S
O1140 Zn1137 2.025 . S
H1141 C1133 0.952 . S
H1142 C1124 0.952 . S
H1143 C1132 0.948 . S
O1144 Zn1129 2.034 . S
O1144 C1139 1.246 . S
O1145 Zn1137 2.024 . S
O1145 C1139 1.249 . S
H1146 C1128 0.948 . S
O1147 Zn1137 2.039 . S
O1147 C1151 1.251 . S
O1148 Zn1129 2.025 . S
O1148 C1151 1.254 . S
O1149 C1130 1.246 . S
O1149 Zn1137 2.034 . S
O1150 Zn1129 2.024 . S
O1150 C1130 1.249 . S
C1151 O1147 1.251 . S
C1151 O1148 1.254 . S
H1152 C1125 0.949 . S
H1153 C1127 0.950 . S
H1154 C1134 0.949 . S
H1155 C1136 0.950 . S
C1156 O1172 1.251 . S
C1156 O1174 1.254 . S
N1157 C1158 1.333 . S
N1157 C1162 1.307 . S
N1157 Zn1163 2.020 . S
C1158 N1157 1.333 . S
C1158 C1159 1.379 . S
C1158 H1176 0.952 . S
C1159 C1158 1.379 . S
C1159 C1160 1.390 . S
C1159 H1186 0.949 . S
C1160 C1159 1.390 . S
C1160 C1161 1.357 . S
C1161 C1160 1.357 . S
C1161 C1162 1.370 . S
C1161 H1187 0.950 . S
C1162 N1157 1.307 . S
C1162 C1161 1.370 . S
C1162 H1180 0.948 . S
Zn1163 N1157 2.020 . S
Zn1163 O1172 2.039 . S
Zn1163 O1178 2.034 . S
Zn1163 O1182 2.025 . S
Zn1163 O1184 2.024 . S
C1164 O1183 1.246 . S
C1164 O1184 1.249 . S
N1165 C1166 1.307 . S
N1165 C1167 1.333 . S
N1165 Zn1171 2.020 . S
C1166 N1165 1.307 . S
C1166 C1170 1.370 . S
C1166 H1177 0.948 . S
C1167 N1165 1.333 . S
C1167 C1168 1.379 . S
C1167 H1175 0.952 . S
C1168 C1167 1.379 . S
C1168 C1169 1.390 . S
C1168 H1188 0.949 . S
C1169 C1168 1.390 . S
C1169 C1170 1.357 . S
C1170 C1166 1.370 . S
C1170 C1169 1.357 . S
C1170 H1189 0.950 . S
Zn1171 N1165 2.020 . S
Zn1171 O1174 2.025 . S
Zn1171 O1179 2.024 . S
Zn1171 O1181 2.039 . S
Zn1171 O1183 2.034 . S
O1172 C1156 1.251 . S
O1172 Zn1163 2.039 . S
C1173 O1178 1.246 . S
C1173 O1179 1.249 . S
O1174 C1156 1.254 . S
O1174 Zn1171 2.025 . S
H1175 C1167 0.952 . S
H1176 C1158 0.952 . S
H1177 C1166 0.948 . S
O1178 Zn1163 2.034 . S
O1178 C1173 1.246 . S
O1179 Zn1171 2.024 . S
O1179 C1173 1.249 . S
H1180 C1162 0.948 . S
O1181 Zn1171 2.039 . S
O1181 C1185 1.251 . S
O1182 Zn1163 2.025 . S
O1182 C1185 1.254 . S
O1183 C1164 1.246 . S
O1183 Zn1171 2.034 . S
O1184 Zn1163 2.024 . S
O1184 C1164 1.249 . S
C1185 O1181 1.251 . S
C1185 O1182 1.254 . S
H1186 C1159 0.949 . S
H1187 C1161 0.950 . S
H1188 C1168 0.949 . S
H1189 C1170 0.950 . S
C1190 O1206 1.251 . S
C1190 O1208 1.254 . S
N1191 C1192 1.333 . S
N1191 C1196 1.307 . S
N1191 Zn1197 2.020 . S
C1192 N1191 1.333 . S
C1192 C1193 1.379 . S
C1192 H1210 0.952 . S
C1193 C1192 1.379 . S
C1193 C1194 1.390 . S
C1193 H1220 0.949 . S
C1194 C1193 1.390 . S
C1194 C1195 1.357 . S
C1195 C1194 1.357 . S
C1195 C1196 1.370 . S
C1195 H1221 0.950 . S
C1196 N1191 1.307 . S
C1196 C1195 1.370 . S
C1196 H1214 0.948 . S
Zn1197 N1191 2.020 . S
Zn1197 O1206 2.039 . S
Zn1197 O1212 2.034 . S
Zn1197 O1216 2.025 . S
Zn1197 O1218 2.024 . S
C1198 O1217 1.246 . S
C1198 O1218 1.249 . S
N1199 C1200 1.307 . S
N1199 C1201 1.333 . S
N1199 Zn1205 2.020 . S
C1200 N1199 1.307 . S
C1200 C1204 1.370 . S
C1200 H1211 0.948 . S
C1201 N1199 1.333 . S
C1201 C1202 1.379 . S
C1201 H1209 0.952 . S
C1202 C1201 1.379 . S
C1202 C1203 1.390 . S
C1202 H1222 0.949 . S
C1203 C1202 1.390 . S
C1203 C1204 1.357 . S
C1204 C1200 1.370 . S
C1204 C1203 1.357 . S
C1204 H1223 0.950 . S
Zn1205 N1199 2.020 . S
Zn1205 O1208 2.025 . S
Zn1205 O1213 2.024 . S
Zn1205 O1215 2.039 . S
Zn1205 O1217 2.034 . S
O1206 C1190 1.251 . S
O1206 Zn1197 2.039 . S
C1207 O1212 1.246 . S
C1207 O1213 1.249 . S
O1208 C1190 1.254 . S
O1208 Zn1205 2.025 . S
H1209 C1201 0.952 . S
H1210 C1192 0.952 . S
H1211 C1200 0.948 . S
O1212 Zn1197 2.034 . S
O1212 C1207 1.246 . S
O1213 Zn1205 2.024 . S
O1213 C1207 1.249 . S
H1214 C1196 0.948 . S
O1215 Zn1205 2.039 . S
O1215 C1219 1.251 . S
O1216 Zn1197 2.025 . S
O1216 C1219 1.254 . S
O1217 C1198 1.246 . S
O1217 Zn1205 2.034 . S
O1218 Zn1197 2.024 . S
O1218 C1198 1.249 . S
C1219 O1215 1.251 . S
C1219 O1216 1.254 . S
H1220 C1193 0.949 . S
H1221 C1195 0.950 . S
H1222 C1202 0.949 . S
H1223 C1204 0.950 . S
C1224 C1225 1.369 . S
C1224 C1226 1.419 . S
C1224 H1228 0.930 . S
C1225 C1224 1.369 . S
C1225 C1234 1.429 . S
C1226 C1224 1.419 . S
C1226 C1227 1.363 . S
C1226 H1229 0.929 1_554 S
C1227 C1226 1.363 . S
C1227 C1233 1.428 . S
H1228 C1224 0.930 . S
H1229 C1226 0.929 1_556 S
S1230 N1231 1.613 . S
S1230 N1232 1.610 . S
N1231 S1230 1.613 . S
N1231 C1234 1.350 . S
N1232 S1230 1.610 . S
N1232 C1233 1.351 . S
C1233 C1227 1.428 . S
C1233 N1232 1.351 . S
C1233 C1234 1.434 . S
C1234 C1225 1.429 . S
C1234 N1231 1.350 . S
C1234 C1233 1.434 . S
C1235 C1236 1.369 . S
C1235 C1237 1.419 . S
C1235 H1239 0.930 . S
C1236 C1235 1.369 . S
C1236 C1245 1.429 1_554 S
C1237 C1235 1.419 . S
C1237 C1238 1.363 . S
C1237 H1240 0.929 . S
C1238 C1237 1.363 . S
C1238 C1244 1.428 . S
H1239 C1235 0.930 . S
H1240 C1237 0.929 . S
S1241 N1242 1.613 . S
S1241 N1243 1.610 . S
N1242 S1241 1.613 . S
N1242 C1245 1.350 . S
N1243 S1241 1.610 . S
N1243 C1244 1.351 1_556 S
C1244 C1238 1.428 . S
C1244 N1243 1.351 1_554 S
C1244 C1245 1.434 1_554 S
C1245 C1236 1.429 1_556 S
C1245 N1242 1.350 . S
C1245 C1244 1.434 1_556 S
C1246 C1247 1.369 . S
C1246 C1248 1.419 . S
C1246 H1250 0.912 1_554 S
C1247 C1246 1.369 . S
C1247 C1256 1.429 . S
C1248 C1246 1.419 . S
C1248 C1249 1.363 . S
C1248 H1251 0.929 . S
C1249 C1248 1.363 . S
C1249 C1255 1.428 . S
H1250 C1246 0.912 1_556 S
H1251 C1248 0.929 . S
S1252 N1253 1.613 . S
S1252 N1254 1.610 . S
N1253 S1252 1.613 . S
N1253 C1256 1.350 . S
N1254 S1252 1.610 . S
N1254 C1255 1.351 . S
C1255 C1249 1.428 . S
C1255 N1254 1.351 . S
C1255 C1256 1.434 . S
C1256 C1247 1.429 . S
C1256 N1253 1.350 . S
C1256 C1255 1.434 . S
C1257 C1258 1.369 . S
C1257 C1259 1.419 . S
C1257 H1261 0.930 . S
C1258 C1257 1.369 . S
C1258 C1267 1.429 . S
C1259 C1257 1.419 . S
C1259 C1260 1.363 . S
C1259 H1262 0.929 . S
C1260 C1259 1.363 . S
C1260 C1266 1.428 . S
H1261 C1257 0.930 . S
H1262 C1259 0.929 . S
S1263 N1264 1.613 . S
S1263 N1265 1.610 . S
N1264 S1263 1.613 . S
N1264 C1267 1.350 . S
N1265 S1263 1.610 . S
N1265 C1266 1.351 . S
C1266 C1260 1.428 . S
C1266 N1265 1.351 . S
C1266 C1267 1.434 . S
C1267 C1258 1.429 . S
C1267 N1264 1.350 . S
C1267 C1266 1.434 . S
C1268 C1269 1.369 . S
C1268 C1270 1.419 . S
C1268 H1272 0.930 . S
C1269 C1268 1.369 . S
C1269 C1278 1.429 . S
C1270 C1268 1.419 . S
C1270 C1271 1.363 . S
C1270 H1273 0.929 . S
C1271 C1270 1.363 . S
C1271 C1277 1.428 . S
H1272 C1268 0.930 . S
H1273 C1270 0.929 . S
S1274 N1275 1.613 . S
S1274 N1276 1.610 . S
N1275 S1274 1.613 . S
N1275 C1278 1.350 . S
N1276 S1274 1.610 . S
N1276 C1277 1.351 . S
C1277 C1271 1.428 . S
C1277 N1276 1.351 . S
C1277 C1278 1.434 . S
C1278 C1269 1.429 . S
C1278 N1275 1.350 . S
C1278 C1277 1.434 . S
C1279 C1280 1.369 . S
C1279 C1281 1.419 . S
C1279 H1283 0.930 . S
C1280 C1279 1.369 . S
C1280 C1289 1.429 . S
C1281 C1279 1.419 . S
C1281 C1282 1.363 . S
C1281 H1284 0.929 . S
C1282 C1281 1.363 . S
C1282 C1288 1.428 . S
H1283 C1279 0.930 . S
H1284 C1281 0.929 . S
S1285 N1286 1.613 . S
S1285 N1287 1.610 . S
N1286 S1285 1.613 . S
N1286 C1289 1.350 . S
N1287 S1285 1.610 . S
N1287 C1288 1.351 . S
C1288 C1282 1.428 . S
C1288 N1287 1.351 . S
C1288 C1289 1.434 . S
C1289 C1280 1.429 . S
C1289 N1286 1.350 . S
C1289 C1288 1.434 . S
C1290 C1291 1.385 . S
C1290 C1292 1.430 . S
C1290 H1294 0.902 1_556 S
C1291 C1290 1.385 . S
C1291 C1300 1.429 . S
C1292 C1290 1.430 . S
C1292 C1293 1.363 . S
C1292 H1295 0.946 . S
C1293 C1292 1.363 . S
C1293 C1299 1.428 . S
H1294 C1290 0.902 1_554 S
H1295 C1292 0.946 . S
S1296 N1297 1.613 . S
S1296 N1298 1.610 . S
N1297 S1296 1.613 . S
N1297 C1300 1.350 . S
N1298 S1296 1.610 . S
N1298 C1299 1.351 . S
C1299 C1293 1.428 . S
C1299 N1298 1.351 . S
C1299 C1300 1.434 . S
C1300 C1291 1.429 . S
C1300 N1297 1.350 . S
C1300 C1299 1.434 . S
C1301 C1302 1.369 . S
C1301 C1303 1.419 . S
C1301 H1305 0.930 . S
C1302 C1301 1.369 . S
C1302 C1311 1.429 . S
C1303 C1301 1.419 . S
C1303 C1304 1.363 . S
C1303 H1306 0.929 . S
C1304 C1303 1.363 . S
C1304 C1310 1.428 . S
H1305 C1301 0.930 . S
H1306 C1303 0.929 . S
S1307 N1308 1.613 1_554 S
S1307 N1309 1.610 . S
N1308 S1307 1.613 1_556 S
N1308 C1311 1.350 . S
N1309 S1307 1.610 . S
N1309 C1310 1.351 1_554 S
C1310 C1304 1.428 . S
C1310 N1309 1.351 1_556 S
C1310 C1311 1.434 . S
C1311 C1302 1.429 . S
C1311 N1308 1.350 . S
C1311 C1310 1.434 . S
C1312 C1313 1.369 . S
C1312 C1314 1.419 . S
C1312 H1316 0.930 1_556 S
C1313 C1312 1.369 . S
C1313 C1322 1.429 . S
C1314 C1312 1.419 . S
C1314 C1315 1.363 . S
C1314 H1317 0.929 . S
C1315 C1314 1.363 . S
C1315 C1321 1.428 . S
H1316 C1312 0.930 1_554 S
H1317 C1314 0.929 . S
S1318 N1319 1.613 . S
S1318 N1320 1.610 . S
N1319 S1318 1.613 . S
N1319 C1322 1.350 . S
N1320 S1318 1.610 . S
N1320 C1321 1.351 . S
C1321 C1315 1.428 . S
C1321 N1320 1.351 . S
C1321 C1322 1.434 . S
C1322 C1313 1.429 . S
C1322 N1319 1.350 . S
C1322 C1321 1.434 . S
C1323 C1324 1.369 . S
C1323 C1325 1.419 . S
C1323 H1327 0.930 . S
C1324 C1323 1.369 . S
C1324 C1333 1.429 . S
C1325 C1323 1.419 . S
C1325 C1326 1.363 . S
C1325 H1328 0.929 . S
C1326 C1325 1.363 . S
C1326 C1332 1.428 . S
H1327 C1323 0.930 . S
H1328 C1325 0.929 . S
S1329 N1330 1.613 . S
S1329 N1331 1.610 . S
N1330 S1329 1.613 . S
N1330 C1333 1.350 . S
N1331 S1329 1.610 . S
N1331 C1332 1.351 . S
C1332 C1326 1.428 . S
C1332 N1331 1.351 . S
C1332 C1333 1.434 . S
C1333 C1324 1.429 . S
C1333 N1330 1.350 . S
C1333 C1332 1.434 . S
C1334 C1335 1.369 . S
C1334 C1336 1.419 . S
C1334 H1338 0.930 . S
C1335 C1334 1.369 . S
C1335 C1344 1.429 . S
C1336 C1334 1.419 . S
C1336 C1337 1.363 . S
C1336 H1339 0.929 . S
C1337 C1336 1.363 . S
C1337 C1343 1.428 . S
H1338 C1334 0.930 . S
H1339 C1336 0.929 . S
S1340 N1341 1.613 . S
S1340 N1342 1.610 . S
N1341 S1340 1.613 . S
N1341 C1344 1.350 . S
N1342 S1340 1.610 . S
N1342 C1343 1.351 . S
C1343 C1337 1.428 . S
C1343 N1342 1.351 . S
C1343 C1344 1.434 . S
C1344 C1335 1.429 . S
C1344 N1341 1.350 . S
C1344 C1343 1.434 . S
C1345 C1346 1.369 . S
C1345 C1347 1.419 . S
C1345 H1349 0.930 . S
C1346 C1345 1.369 . S
C1346 C1355 1.429 . S
C1347 C1345 1.419 . S
C1347 C1348 1.363 . S
C1347 H1350 0.929 . S
C1348 C1347 1.363 . S
C1348 C1354 1.428 . S
H1349 C1345 0.930 . S
H1350 C1347 0.929 . S
S1351 N1352 1.613 . S
S1351 N1353 1.610 . S
N1352 S1351 1.613 . S
N1352 C1355 1.350 . S
N1353 S1351 1.610 . S
N1353 C1354 1.351 . S
C1354 C1348 1.428 . S
C1354 N1353 1.351 . S
C1354 C1355 1.434 . S
C1355 C1346 1.429 . S
C1355 N1352 1.350 . S
C1355 C1354 1.434 . S
C1356 C1357 1.369 . S
C1356 C1358 1.419 . S
C1356 H1360 0.930 . S
C1357 C1356 1.369 . S
C1357 C1366 1.429 . S
C1358 C1356 1.419 . S
C1358 C1359 1.363 . S
C1358 H1361 0.929 . S
C1359 C1358 1.363 . S
C1359 C1365 1.428 . S
H1360 C1356 0.930 . S
H1361 C1358 0.929 . S
S1362 N1363 1.613 . S
S1362 N1364 1.610 . S
N1363 S1362 1.613 . S
N1363 C1366 1.350 . S
N1364 S1362 1.610 . S
N1364 C1365 1.351 . S
C1365 C1359 1.428 . S
C1365 N1364 1.351 . S
C1365 C1366 1.434 . S
C1366 C1357 1.429 . S
C1366 N1363 1.350 . S
C1366 C1365 1.434 . S
C1367 C1368 1.369 . S
C1367 C1369 1.419 . S
C1367 H1371 0.930 . S
C1368 C1367 1.369 . S
C1368 C1377 1.429 . S
C1369 C1367 1.419 . S
C1369 C1370 1.363 . S
C1369 H1372 0.929 . S
C1370 C1369 1.363 . S
C1370 C1376 1.428 . S
H1371 C1367 0.930 . S
H1372 C1369 0.929 . S
S1373 N1374 1.613 . S
S1373 N1375 1.610 . S
N1374 S1373 1.613 . S
N1374 C1377 1.350 . S
N1375 S1373 1.610 . S
N1375 C1376 1.351 . S
C1376 C1370 1.428 . S
C1376 N1375 1.351 . S
C1376 C1377 1.434 . S
C1377 C1368 1.429 . S
C1377 N1374 1.350 . S
C1377 C1376 1.434 . S
C1378 C1379 1.369 . S
C1378 C1380 1.419 . S
C1378 H1382 0.930 . S
C1379 C1378 1.369 . S
C1379 C1388 1.429 . S
C1380 C1378 1.419 . S
C1380 C1381 1.363 . S
C1380 H1383 0.929 . S
C1381 C1380 1.363 . S
C1381 C1387 1.428 . S
H1382 C1378 0.930 . S
H1383 C1380 0.929 . S
S1384 N1385 1.613 . S
S1384 N1386 1.610 . S
N1385 S1384 1.613 . S
N1385 C1388 1.350 . S
N1386 S1384 1.610 . S
N1386 C1387 1.351 . S
C1387 C1381 1.428 . S
C1387 N1386 1.351 . S
C1387 C1388 1.434 . S
C1388 C1379 1.429 . S
C1388 N1385 1.350 . S
C1388 C1387 1.434 . S
C1389 C1390 1.369 . S
C1389 C1391 1.419 . S
C1389 H1393 0.930 . S
C1390 C1389 1.369 . S
C1390 C1399 1.429 . S
C1391 C1389 1.419 . S
C1391 C1392 1.363 . S
C1391 H1394 0.929 . S
C1392 C1391 1.363 . S
C1392 C1398 1.428 . S
H1393 C1389 0.930 . S
H1394 C1391 0.929 . S
S1395 N1396 1.613 . S
S1395 N1397 1.610 . S
N1396 S1395 1.613 . S
N1396 C1399 1.350 . S
N1397 S1395 1.610 . S
N1397 C1398 1.351 . S
C1398 C1392 1.428 . S
C1398 N1397 1.351 . S
C1398 C1399 1.434 . S
C1399 C1390 1.429 . S
C1399 N1396 1.350 . S
C1399 C1398 1.434 . S
C1400 C1401 1.369 . S
C1400 C1402 1.419 . S
C1400 H1404 0.930 . S
C1401 C1400 1.369 . S
C1401 C1410 1.429 . S
C1402 C1400 1.419 . S
C1402 C1403 1.363 . S
C1402 H1405 0.929 . S
C1403 C1402 1.363 . S
C1403 C1409 1.428 . S
H1404 C1400 0.930 . S
H1405 C1402 0.929 . S
S1406 N1407 1.613 . S
S1406 N1408 1.610 . S
N1407 S1406 1.613 . S
N1407 C1410 1.350 . S
N1408 S1406 1.610 . S
N1408 C1409 1.351 . S
C1409 C1403 1.428 . S
C1409 N1408 1.351 . S
C1409 C1410 1.434 . S
C1410 C1401 1.429 . S
C1410 N1407 1.350 . S
C1410 C1409 1.434 . S
C1411 C1412 1.369 . S
C1411 C1413 1.419 . S
C1411 H1415 0.930 . S
C1412 C1411 1.369 . S
C1412 C1421 1.429 . S
C1413 C1411 1.419 . S
C1413 C1414 1.363 . S
C1413 H1416 0.929 . S
C1414 C1413 1.363 . S
C1414 C1420 1.428 . S
H1415 C1411 0.930 . S
H1416 C1413 0.929 . S
S1417 N1418 1.613 . S
S1417 N1419 1.610 . S
N1418 S1417 1.613 . S
N1418 C1421 1.350 . S
N1419 S1417 1.610 . S
N1419 C1420 1.351 . S
C1420 C1414 1.428 . S
C1420 N1419 1.351 . S
C1420 C1421 1.434 . S
C1421 C1412 1.429 . S
C1421 N1418 1.350 . S
C1421 C1420 1.434 . S
C1422 C1423 1.369 . S
C1422 C1424 1.419 . S
C1422 H1426 0.930 . S
C1423 C1422 1.369 . S
C1423 C1432 1.429 . S
C1424 C1422 1.419 . S
C1424 C1425 1.363 . S
C1424 H1427 0.929 . S
C1425 C1424 1.363 . S
C1425 C1431 1.428 . S
H1426 C1422 0.930 . S
H1427 C1424 0.929 . S
S1428 N1429 1.613 . S
S1428 N1430 1.610 . S
N1429 S1428 1.613 . S
N1429 C1432 1.350 . S
N1430 S1428 1.610 . S
N1430 C1431 1.351 . S
C1431 C1425 1.428 . S
C1431 N1430 1.351 . S
C1431 C1432 1.434 . S
C1432 C1423 1.429 . S
C1432 N1429 1.350 . S
C1432 C1431 1.434 . S
C1433 C1434 1.369 . S
C1433 C1435 1.419 . S
C1433 H1437 0.930 . S
C1434 C1433 1.369 . S
C1434 C1443 1.429 . S
C1435 C1433 1.419 . S
C1435 C1436 1.363 . S
C1435 H1438 0.929 . S
C1436 C1435 1.363 . S
C1436 C1442 1.428 . S
H1437 C1433 0.930 . S
H1438 C1435 0.929 . S
S1439 N1440 1.613 . S
S1439 N1441 1.610 . S
N1440 S1439 1.613 . S
N1440 C1443 1.350 . S
N1441 S1439 1.610 . S
N1441 C1442 1.351 . S
C1442 C1436 1.428 . S
C1442 N1441 1.351 . S
C1442 C1443 1.434 . S
C1443 C1434 1.429 . S
C1443 N1440 1.350 . S
C1443 C1442 1.434 . S
C1444 C1445 1.369 . S
C1444 C1446 1.419 . S
C1444 H1448 0.930 . S
C1445 C1444 1.369 . S
C1445 C1454 1.429 . S
C1446 C1444 1.419 . S
C1446 C1447 1.363 . S
C1446 H1449 0.929 . S
C1447 C1446 1.363 . S
C1447 C1453 1.428 . S
H1448 C1444 0.930 . S
H1449 C1446 0.929 . S
S1450 N1451 1.613 . S
S1450 N1452 1.610 . S
N1451 S1450 1.613 . S
N1451 C1454 1.350 . S
N1452 S1450 1.610 . S
N1452 C1453 1.351 . S
C1453 C1447 1.428 . S
C1453 N1452 1.351 . S
C1453 C1454 1.434 . S
C1454 C1445 1.429 . S
C1454 N1451 1.350 . S
C1454 C1453 1.434 . S
C1455 C1456 1.369 . S
C1455 C1457 1.419 . S
C1455 H1459 0.930 . S
C1456 C1455 1.369 . S
C1456 C1465 1.429 . S
C1457 C1455 1.419 . S
C1457 C1458 1.363 . S
C1457 H1460 0.929 . S
C1458 C1457 1.363 . S
C1458 C1464 1.428 . S
H1459 C1455 0.930 . S
H1460 C1457 0.929 . S
S1461 N1462 1.613 . S
S1461 N1463 1.610 . S
N1462 S1461 1.613 . S
N1462 C1465 1.350 . S
N1463 S1461 1.610 . S
N1463 C1464 1.351 . S
C1464 C1458 1.428 . S
C1464 N1463 1.351 . S
C1464 C1465 1.434 . S
C1465 C1456 1.429 . S
C1465 N1462 1.350 . S
C1465 C1464 1.434 . S
C1466 C1467 1.369 . S
C1466 C1468 1.419 . S
C1466 H1470 0.930 . S
C1467 C1466 1.369 . S
C1467 C1476 1.429 . S
C1468 C1466 1.419 . S
C1468 C1469 1.363 . S
C1468 H1471 0.929 . S
C1469 C1468 1.363 . S
C1469 C1475 1.428 . S
H1470 C1466 0.930 . S
H1471 C1468 0.929 . S
S1472 N1473 1.613 . S
S1472 N1474 1.610 . S
N1473 S1472 1.613 . S
N1473 C1476 1.350 . S
N1474 S1472 1.610 . S
N1474 C1475 1.351 . S
C1475 C1469 1.428 . S
C1475 N1474 1.351 . S
C1475 C1476 1.434 . S
C1476 C1467 1.429 . S
C1476 N1473 1.350 . S
C1476 C1475 1.434 . S
C1477 C1478 1.369 . S
C1477 C1479 1.419 . S
C1477 H1481 0.930 . S
C1478 C1477 1.369 . S
C1478 C1487 1.429 . S
C1479 C1477 1.419 . S
C1479 C1480 1.363 . S
C1479 H1482 0.929 . S
C1480 C1479 1.363 . S
C1480 C1486 1.428 . S
H1481 C1477 0.930 . S
H1482 C1479 0.929 . S
S1483 N1484 1.613 . S
S1483 N1485 1.610 . S
N1484 S1483 1.613 . S
N1484 C1487 1.350 . S
N1485 S1483 1.610 . S
N1485 C1486 1.351 . S
C1486 C1480 1.428 . S
C1486 N1485 1.351 . S
C1486 C1487 1.434 . S
C1487 C1478 1.429 . S
C1487 N1484 1.350 . S
C1487 C1486 1.434 . S
C1488 C1489 1.369 . S
C1488 C1490 1.419 . S
C1488 H1492 0.930 . S
C1489 C1488 1.369 . S
C1489 C1498 1.429 . S
C1490 C1488 1.419 . S
C1490 C1491 1.363 . S
C1490 H1493 0.929 . S
C1491 C1490 1.363 . S
C1491 C1497 1.428 . S
H1492 C1488 0.930 . S
H1493 C1490 0.929 . S
S1494 N1495 1.613 . S
S1494 N1496 1.610 . S
N1495 S1494 1.613 . S
N1495 C1498 1.350 . S
N1496 S1494 1.610 . S
N1496 C1497 1.351 . S
C1497 C1491 1.428 . S
C1497 N1496 1.351 . S
C1497 C1498 1.434 . S
C1498 C1489 1.429 . S
C1498 N1495 1.350 . S
C1498 C1497 1.434 . S
C1499 C1500 1.369 . S
C1499 C1501 1.419 . S
C1499 H1503 0.930 . S
C1500 C1499 1.369 . S
C1500 C1509 1.429 . S
C1501 C1499 1.419 . S
C1501 C1502 1.363 . S
C1501 H1504 0.929 . S
C1502 C1501 1.363 . S
C1502 C1508 1.428 . S
H1503 C1499 0.930 . S
H1504 C1501 0.929 . S
S1505 N1506 1.613 . S
S1505 N1507 1.610 . S
N1506 S1505 1.613 . S
N1506 C1509 1.350 . S
N1507 S1505 1.610 . S
N1507 C1508 1.351 . S
C1508 C1502 1.428 . S
C1508 N1507 1.351 . S
C1508 C1509 1.434 . S
C1509 C1500 1.429 . S
C1509 N1506 1.350 . S
C1509 C1508 1.434 . S
C1510 C1511 1.369 . S
C1510 C1512 1.419 . S
C1510 H1514 0.930 . S
C1511 C1510 1.369 . S
C1511 C1520 1.429 . S
C1512 C1510 1.419 . S
C1512 C1513 1.363 . S
C1512 H1515 0.929 . S
C1513 C1512 1.363 . S
C1513 C1519 1.428 . S
H1514 C1510 0.930 . S
H1515 C1512 0.929 . S
S1516 N1517 1.613 . S
S1516 N1518 1.610 . S
N1517 S1516 1.613 . S
N1517 C1520 1.350 . S
N1518 S1516 1.610 . S
N1518 C1519 1.351 . S
C1519 C1513 1.428 . S
C1519 N1518 1.351 . S
C1519 C1520 1.434 . S
C1520 C1511 1.429 . S
C1520 N1517 1.350 . S
C1520 C1519 1.434 . S
C1521 C1522 1.369 . S
C1521 C1523 1.419 . S
C1521 H1525 0.930 . S
C1522 C1521 1.369 . S
C1522 C1531 1.429 . S
C1523 C1521 1.419 . S
C1523 C1524 1.363 . S
C1523 H1526 0.929 . S
C1524 C1523 1.363 . S
C1524 C1530 1.428 . S
H1525 C1521 0.930 . S
H1526 C1523 0.929 . S
S1527 N1528 1.613 . S
S1527 N1529 1.610 . S
N1528 S1527 1.613 . S
N1528 C1531 1.350 . S
N1529 S1527 1.610 . S
N1529 C1530 1.351 . S
C1530 C1524 1.428 . S
C1530 N1529 1.351 . S
C1530 C1531 1.434 . S
C1531 C1522 1.429 . S
C1531 N1528 1.350 . S
C1531 C1530 1.434 . S
C1532 C1533 1.369 . S
C1532 C1534 1.419 . S
C1532 H1536 0.930 . S
C1533 C1532 1.369 . S
C1533 C1542 1.429 . S
C1534 C1532 1.419 . S
C1534 C1535 1.363 . S
C1534 H1537 0.929 . S
C1535 C1534 1.363 . S
C1535 C1541 1.428 . S
H1536 C1532 0.930 . S
H1537 C1534 0.929 . S
S1538 N1539 1.613 . S
S1538 N1540 1.610 . S
N1539 S1538 1.613 . S
N1539 C1542 1.350 . S
N1540 S1538 1.610 . S
N1540 C1541 1.351 . S
C1541 C1535 1.428 . S
C1541 N1540 1.351 . S
C1541 C1542 1.434 . S
C1542 C1533 1.429 . S
C1542 N1539 1.350 . S
C1542 C1541 1.434 . S
C1543 C1544 1.369 . S
C1543 C1545 1.419 . S
C1543 H1547 0.930 . S
C1544 C1543 1.369 . S
C1544 C1553 1.429 . S
C1545 C1543 1.419 . S
C1545 C1546 1.363 . S
C1545 H1548 0.929 . S
C1546 C1545 1.363 . S
C1546 C1552 1.428 . S
H1547 C1543 0.930 . S
H1548 C1545 0.929 . S
S1549 N1550 1.613 . S
S1549 N1551 1.610 . S
N1550 S1549 1.613 . S
N1550 C1553 1.350 . S
N1551 S1549 1.610 . S
N1551 C1552 1.351 . S
C1552 C1546 1.428 . S
C1552 N1551 1.351 . S
C1552 C1553 1.434 . S
C1553 C1544 1.429 . S
C1553 N1550 1.350 . S
C1553 C1552 1.434 . S
C1554 C1555 1.369 . S
C1554 C1556 1.419 . S
C1554 H1558 0.930 . S
C1555 C1554 1.369 . S
C1555 C1564 1.429 . S
C1556 C1554 1.419 . S
C1556 C1557 1.363 . S
C1556 H1559 0.929 . S
C1557 C1556 1.363 . S
C1557 C1563 1.428 . S
H1558 C1554 0.930 . S
H1559 C1556 0.929 . S
S1560 N1561 1.613 . S
S1560 N1562 1.610 . S
N1561 S1560 1.613 . S
N1561 C1564 1.350 . S
N1562 S1560 1.610 . S
N1562 C1563 1.351 . S
C1563 C1557 1.428 . S
C1563 N1562 1.351 . S
C1563 C1564 1.434 . S
C1564 C1555 1.429 . S
C1564 N1561 1.350 . S
C1564 C1563 1.434 . S
C1565 C1566 1.369 . S
C1565 C1567 1.419 . S
C1565 H1569 0.930 . S
C1566 C1565 1.369 . S
C1566 C1575 1.429 . S
C1567 C1565 1.419 . S
C1567 C1568 1.363 . S
C1567 H1570 0.929 . S
C1568 C1567 1.363 . S
C1568 C1574 1.428 . S
H1569 C1565 0.930 . S
H1570 C1567 0.929 . S
S1571 N1572 1.613 . S
S1571 N1573 1.610 . S
N1572 S1571 1.613 . S
N1572 C1575 1.350 . S
N1573 S1571 1.610 . S
N1573 C1574 1.351 . S
C1574 C1568 1.428 . S
C1574 N1573 1.351 . S
C1574 C1575 1.434 . S
C1575 C1566 1.429 . S
C1575 N1572 1.350 . S
C1575 C1574 1.434 . S
C1576 C1577 1.369 . S
C1576 C1578 1.419 . S
C1576 H1580 0.930 . S
C1577 C1576 1.369 . S
C1577 C1586 1.429 . S
C1578 C1576 1.419 . S
C1578 C1579 1.363 . S
C1578 H1581 0.929 . S
C1579 C1578 1.363 . S
C1579 C1585 1.428 . S
H1580 C1576 0.930 . S
H1581 C1578 0.929 . S
S1582 N1583 1.613 . S
S1582 N1584 1.610 . S
N1583 S1582 1.613 . S
N1583 C1586 1.350 . S
N1584 S1582 1.610 . S
N1584 C1585 1.351 . S
C1585 C1579 1.428 . S
C1585 N1584 1.351 . S
C1585 C1586 1.434 . S
C1586 C1577 1.429 . S
C1586 N1583 1.350 . S
C1586 C1585 1.434 . S
C1587 C1588 1.369 . S
C1587 C1589 1.419 . S
C1587 H1591 0.930 . S
C1588 C1587 1.369 . S
C1588 C1597 1.429 . S
C1589 C1587 1.419 . S
C1589 C1590 1.363 . S
C1589 H1592 0.929 . S
C1590 C1589 1.363 . S
C1590 C1596 1.428 . S
H1591 C1587 0.930 . S
H1592 C1589 0.929 . S
S1593 N1594 1.613 . S
S1593 N1595 1.610 . S
N1594 S1593 1.613 . S
N1594 C1597 1.350 . S
N1595 S1593 1.610 . S
N1595 C1596 1.351 . S
C1596 C1590 1.428 . S
C1596 N1595 1.351 . S
C1596 C1597 1.434 . S
C1597 C1588 1.429 . S
C1597 N1594 1.350 . S
C1597 C1596 1.434 . S
C1598 C1599 1.369 . S
C1598 C1600 1.419 . S
C1598 H1602 0.930 . S
C1599 C1598 1.369 . S
C1599 C1608 1.429 . S
C1600 C1598 1.419 . S
C1600 C1601 1.363 . S
C1600 H1603 0.929 . S
C1601 C1600 1.363 . S
C1601 C1607 1.428 . S
H1602 C1598 0.930 . S
H1603 C1600 0.929 . S
S1604 N1605 1.613 . S
S1604 N1606 1.610 . S
N1605 S1604 1.613 . S
N1605 C1608 1.350 . S
N1606 S1604 1.610 . S
N1606 C1607 1.351 . S
C1607 C1601 1.428 . S
C1607 N1606 1.351 . S
C1607 C1608 1.434 . S
C1608 C1599 1.429 . S
C1608 N1605 1.350 . S
C1608 C1607 1.434 . S
C1609 C1610 1.369 . S
C1609 C1611 1.419 . S
C1609 H1613 0.930 . S
C1610 C1609 1.369 . S
C1610 C1619 1.429 . S
C1611 C1609 1.419 . S
C1611 C1612 1.363 . S
C1611 H1614 0.929 . S
C1612 C1611 1.363 . S
C1612 C1618 1.428 . S
H1613 C1609 0.930 . S
H1614 C1611 0.929 . S
S1615 N1616 1.613 . S
S1615 N1617 1.610 . S
N1616 S1615 1.613 . S
N1616 C1619 1.350 . S
N1617 S1615 1.610 . S
N1617 C1618 1.351 . S
C1618 C1612 1.428 . S
C1618 N1617 1.351 . S
C1618 C1619 1.434 . S
C1619 C1610 1.429 . S
C1619 N1616 1.350 . S
C1619 C1618 1.434 . S
C1620 C1621 1.369 . S
C1620 C1622 1.419 . S
C1620 H1624 0.930 . S
C1621 C1620 1.369 . S
C1621 C1630 1.429 . S
C1622 C1620 1.419 . S
C1622 C1623 1.363 . S
C1622 H1625 0.929 . S
C1623 C1622 1.363 . S
C1623 C1629 1.428 . S
H1624 C1620 0.930 . S
H1625 C1622 0.929 . S
S1626 N1627 1.613 . S
S1626 N1628 1.610 . S
N1627 S1626 1.613 . S
N1627 C1630 1.350 . S
N1628 S1626 1.610 . S
N1628 C1629 1.351 . S
C1629 C1623 1.428 . S
C1629 N1628 1.351 . S
C1629 C1630 1.434 . S
C1630 C1621 1.429 . S
C1630 N1627 1.350 . S
C1630 C1629 1.434 . S
C1631 C1632 1.369 . S
C1631 C1633 1.419 . S
C1631 H1635 0.930 . S
C1632 C1631 1.369 . S
C1632 C1641 1.429 . S
C1633 C1631 1.419 . S
C1633 C1634 1.363 . S
C1633 H1636 0.929 . S
C1634 C1633 1.363 . S
C1634 C1640 1.428 . S
H1635 C1631 0.930 . S
H1636 C1633 0.929 . S
S1637 N1638 1.613 . S
S1637 N1639 1.610 . S
N1638 S1637 1.613 . S
N1638 C1641 1.350 . S
N1639 S1637 1.610 . S
N1639 C1640 1.351 . S
C1640 C1634 1.428 . S
C1640 N1639 1.351 . S
C1640 C1641 1.434 . S
C1641 C1632 1.429 . S
C1641 N1638 1.350 . S
C1641 C1640 1.434 . S
C1642 C1643 1.369 . S
C1642 C1644 1.419 . S
C1642 H1646 0.930 . S
C1643 C1642 1.369 . S
C1643 C1652 1.429 . S
C1644 C1642 1.419 . S
C1644 C1645 1.363 . S
C1644 H1647 0.929 . S
C1645 C1644 1.363 . S
C1645 C1651 1.428 . S
H1646 C1642 0.930 . S
H1647 C1644 0.929 . S
S1648 N1649 1.613 . S
S1648 N1650 1.610 . S
N1649 S1648 1.613 . S
N1649 C1652 1.350 . S
N1650 S1648 1.610 . S
N1650 C1651 1.351 . S
C1651 C1645 1.428 . S
C1651 N1650 1.351 . S
C1651 C1652 1.434 . S
C1652 C1643 1.429 . S
C1652 N1649 1.350 . S
C1652 C1651 1.434 . S
C1653 C1654 1.369 . S
C1653 C1655 1.419 . S
C1653 H1657 0.930 . S
C1654 C1653 1.369 . S
C1654 C1663 1.429 . S
C1655 C1653 1.419 . S
C1655 C1656 1.363 . S
C1655 H1658 0.929 . S
C1656 C1655 1.363 . S
C1656 C1662 1.428 . S
H1657 C1653 0.930 . S
H1658 C1655 0.929 . S
S1659 N1660 1.613 . S
S1659 N1661 1.610 . S
N1660 S1659 1.613 . S
N1660 C1663 1.350 . S
N1661 S1659 1.610 . S
N1661 C1662 1.351 . S
C1662 C1656 1.428 . S
C1662 N1661 1.351 . S
C1662 C1663 1.434 . S
C1663 C1654 1.429 . S
C1663 N1660 1.350 . S
C1663 C1662 1.434 . S
C1664 C1665 1.369 . S
C1664 C1666 1.419 . S
C1664 H1668 0.930 . S
C1665 C1664 1.369 . S
C1665 C1674 1.429 . S
C1666 C1664 1.419 . S
C1666 C1667 1.363 . S
C1666 H1669 0.929 . S
C1667 C1666 1.363 . S
C1667 C1673 1.428 . S
H1668 C1664 0.930 . S
H1669 C1666 0.929 . S
S1670 N1671 1.613 . S
S1670 N1672 1.610 . S
N1671 S1670 1.613 . S
N1671 C1674 1.350 . S
N1672 S1670 1.610 . S
N1672 C1673 1.351 . S
C1673 C1667 1.428 . S
C1673 N1672 1.351 . S
C1673 C1674 1.434 . S
C1674 C1665 1.429 . S
C1674 N1671 1.350 . S
C1674 C1673 1.434 . S
C1675 C1676 1.369 . S
C1675 C1677 1.419 . S
C1675 H1679 0.930 . S
C1676 C1675 1.369 . S
C1676 C1685 1.429 . S
C1677 C1675 1.419 . S
C1677 C1678 1.363 . S
C1677 H1680 0.929 . S
C1678 C1677 1.363 . S
C1678 C1684 1.428 . S
H1679 C1675 0.930 . S
H1680 C1677 0.929 . S
S1681 N1682 1.613 . S
S1681 N1683 1.610 . S
N1682 S1681 1.613 . S
N1682 C1685 1.350 . S
N1683 S1681 1.610 . S
N1683 C1684 1.351 . S
C1684 C1678 1.428 . S
C1684 N1683 1.351 . S
C1684 C1685 1.434 . S
C1685 C1676 1.429 . S
C1685 N1682 1.350 . S
C1685 C1684 1.434 . S
C1686 C1687 1.369 . S
C1686 C1688 1.419 . S
C1686 H1690 0.930 . S
C1687 C1686 1.369 . S
C1687 C1696 1.429 . S
C1688 C1686 1.419 . S
C1688 C1689 1.363 . S
C1688 H1691 0.929 . S
C1689 C1688 1.363 . S
C1689 C1695 1.428 . S
H1690 C1686 0.930 . S
H1691 C1688 0.929 . S
S1692 N1693 1.613 . S
S1692 N1694 1.610 . S
N1693 S1692 1.613 . S
N1693 C1696 1.350 . S
N1694 S1692 1.610 . S
N1694 C1695 1.351 . S
C1695 C1689 1.428 . S
C1695 N1694 1.351 . S
C1695 C1696 1.434 . S
C1696 C1687 1.429 . S
C1696 N1693 1.350 . S
C1696 C1695 1.434 . S
C1697 C1698 1.369 . S
C1697 C1699 1.419 . S
C1697 H1701 0.930 . S
C1698 C1697 1.369 . S
C1698 C1707 1.429 . S
C1699 C1697 1.419 . S
C1699 C1700 1.363 . S
C1699 H1702 0.929 . S
C1700 C1699 1.363 . S
C1700 C1706 1.428 . S
H1701 C1697 0.930 . S
H1702 C1699 0.929 . S
S1703 N1704 1.613 . S
S1703 N1705 1.610 . S
N1704 S1703 1.613 . S
N1704 C1707 1.350 . S
N1705 S1703 1.610 . S
N1705 C1706 1.351 . S
C1706 C1700 1.428 . S
C1706 N1705 1.351 . S
C1706 C1707 1.434 . S
C1707 C1698 1.429 . S
C1707 N1704 1.350 . S
C1707 C1706 1.434 . S
C1708 C1709 1.369 . S
C1708 C1710 1.419 . S
C1708 H1712 0.930 . S
C1709 C1708 1.369 . S
C1709 C1718 1.429 . S
C1710 C1708 1.419 . S
C1710 C1711 1.363 . S
C1710 H1713 0.929 . S
C1711 C1710 1.363 . S
C1711 C1717 1.428 . S
H1712 C1708 0.930 . S
H1713 C1710 0.929 . S
S1714 N1715 1.613 . S
S1714 N1716 1.610 . S
N1715 S1714 1.613 . S
N1715 C1718 1.350 . S
N1716 S1714 1.610 . S
N1716 C1717 1.351 . S
C1717 C1711 1.428 . S
C1717 N1716 1.351 . S
C1717 C1718 1.434 . S
C1718 C1709 1.429 . S
C1718 N1715 1.350 . S
C1718 C1717 1.434 . S
C1719 C1720 1.369 . S
C1719 C1721 1.419 . S
C1719 H1723 0.930 . S
C1720 C1719 1.369 . S
C1720 C1729 1.429 . S
C1721 C1719 1.419 . S
C1721 C1722 1.363 . S
C1721 H1724 0.929 . S
C1722 C1721 1.363 . S
C1722 C1728 1.428 . S
H1723 C1719 0.930 . S
H1724 C1721 0.929 . S
S1725 N1726 1.613 . S
S1725 N1727 1.610 . S
N1726 S1725 1.613 . S
N1726 C1729 1.350 . S
N1727 S1725 1.610 . S
N1727 C1728 1.351 . S
C1728 C1722 1.428 . S
C1728 N1727 1.351 . S
C1728 C1729 1.434 . S
C1729 C1720 1.429 . S
C1729 N1726 1.350 . S
C1729 C1728 1.434 . S
C1730 C1731 1.369 . S
C1730 C1732 1.419 . S
C1730 H1734 0.930 . S
C1731 C1730 1.369 . S
C1731 C1740 1.429 . S
C1732 C1730 1.419 . S
C1732 C1733 1.363 . S
C1732 H1735 0.929 . S
C1733 C1732 1.363 . S
C1733 C1739 1.428 . S
H1734 C1730 0.930 . S
H1735 C1732 0.929 . S
S1736 N1737 1.613 . S
S1736 N1738 1.610 . S
N1737 S1736 1.613 . S
N1737 C1740 1.350 . S
N1738 S1736 1.610 . S
N1738 C1739 1.351 . S
C1739 C1733 1.428 . S
C1739 N1738 1.351 . S
C1739 C1740 1.434 . S
C1740 C1731 1.429 . S
C1740 N1737 1.350 . S
C1740 C1739 1.434 . S
C1741 C1742 1.369 . S
C1741 C1743 1.419 . S
C1741 H1745 0.930 . S
C1742 C1741 1.369 . S
C1742 C1751 1.429 . S
C1743 C1741 1.419 . S
C1743 C1744 1.363 . S
C1743 H1746 0.929 . S
C1744 C1743 1.363 . S
C1744 C1750 1.428 . S
H1745 C1741 0.930 . S
H1746 C1743 0.929 . S
S1747 N1748 1.613 . S
S1747 N1749 1.610 . S
N1748 S1747 1.613 . S
N1748 C1751 1.350 . S
N1749 S1747 1.610 . S
N1749 C1750 1.351 . S
C1750 C1744 1.428 . S
C1750 N1749 1.351 . S
C1750 C1751 1.434 . S
C1751 C1742 1.429 . S
C1751 N1748 1.350 . S
C1751 C1750 1.434 . S
C1752 C1753 1.369 1_655 S
C1752 C1754 1.419 . S
C1752 H1756 0.930 . S
C1753 C1752 1.369 1_455 S
C1753 C1762 1.429 . S
C1754 C1752 1.419 . S
C1754 C1755 1.363 . S
C1754 H1757 0.929 . S
C1755 C1754 1.363 . S
C1755 C1761 1.428 1_655 S
H1756 C1752 0.930 . S
H1757 C1754 0.929 . S
S1758 N1759 1.613 . S
S1758 N1760 1.610 . S
N1759 S1758 1.613 . S
N1759 C1762 1.350 . S
N1760 S1758 1.610 . S
N1760 C1761 1.351 . S
C1761 C1755 1.428 1_455 S
C1761 N1760 1.351 . S
C1761 C1762 1.434 . S
C1762 C1753 1.429 . S
C1762 N1759 1.350 . S
C1762 C1761 1.434 . S
C1763 C1764 1.369 . S
C1763 C1765 1.419 . S
C1763 H1767 0.930 . S
C1764 C1763 1.369 . S
C1764 C1773 1.429 . S
C1765 C1763 1.419 . S
C1765 C1766 1.363 . S
C1765 H1768 0.929 . S
C1766 C1765 1.363 . S
C1766 C1772 1.428 . S
H1767 C1763 0.930 . S
H1768 C1765 0.929 . S
S1769 N1770 1.613 . S
S1769 N1771 1.610 . S
N1770 S1769 1.613 . S
N1770 C1773 1.350 . S
N1771 S1769 1.610 . S
N1771 C1772 1.351 . S
C1772 C1766 1.428 . S
C1772 N1771 1.351 . S
C1772 C1773 1.434 . S
C1773 C1764 1.429 . S
C1773 N1770 1.350 . S
C1773 C1772 1.434 . S
C1774 C1775 1.369 . S
C1774 C1776 1.419 1_565 S
C1774 H1778 0.930 . S
C1775 C1774 1.369 . S
C1775 C1784 1.429 . S
C1776 C1774 1.419 1_545 S
C1776 C1777 1.363 . S
C1776 H1779 0.929 . S
C1777 C1776 1.363 . S
C1777 C1783 1.428 . S
H1778 C1774 0.930 . S
H1779 C1776 0.929 . S
S1780 N1781 1.613 . S
S1780 N1782 1.610 1_565 S
N1781 S1780 1.613 . S
N1781 C1784 1.350 . S
N1782 S1780 1.610 1_545 S
N1782 C1783 1.351 . S
C1783 C1777 1.428 . S
C1783 N1782 1.351 . S
C1783 C1784 1.434 1_545 S
C1784 C1775 1.429 . S
C1784 N1781 1.350 . S
C1784 C1783 1.434 1_565 S
C1785 C1786 1.369 1_556 S
C1785 C1787 1.419 . S
C1785 H1789 0.930 . S
C1786 C1785 1.369 1_554 S
C1786 C1795 1.429 1_565 S
C1787 C1785 1.419 . S
C1787 C1788 1.363 1_565 S
C1787 H1790 0.929 . S
C1788 C1787 1.363 1_545 S
C1788 C1794 1.428 1_556 S
H1789 C1785 0.930 . S
H1790 C1787 0.929 . S
S1791 N1792 1.613 . S
S1791 N1793 1.610 . S
N1792 S1791 1.613 . S
N1792 C1795 1.350 . S
N1793 S1791 1.610 . S
N1793 C1794 1.351 . S
C1794 C1788 1.428 1_554 S
C1794 N1793 1.351 . S
C1794 C1795 1.434 . S
C1795 C1786 1.429 1_545 S
C1795 N1792 1.350 . S
C1795 C1794 1.434 . S
C1796 C1797 1.349 1_554 S
C1796 C1798 1.437 . S
C1796 H1800 0.932 . S
C1797 C1796 1.349 1_556 S
C1797 C1806 1.429 1_655 S
C1798 C1796 1.437 . S
C1798 C1799 1.363 1_655 S
C1798 H1801 0.929 . S
C1799 C1798 1.363 1_455 S
C1799 C1805 1.428 1_554 S
H1800 C1796 0.932 . S
H1801 C1798 0.929 . S
S1802 N1803 1.613 . S
S1802 N1804 1.610 . S
N1803 S1802 1.613 . S
N1803 C1806 1.350 . S
N1804 S1802 1.610 . S
N1804 C1805 1.351 . S
C1805 C1799 1.428 1_556 S
C1805 N1804 1.351 . S
C1805 C1806 1.434 . S
C1806 C1797 1.429 1_455 S
C1806 N1803 1.350 . S
C1806 C1805 1.434 . S
C1807 C1808 1.369 . S
C1807 C1809 1.419 1_554 S
C1807 H1811 0.930 . S
C1808 C1807 1.369 . S
C1808 C1817 1.429 . S
C1809 C1807 1.419 1_556 S
C1809 C1810 1.363 . S
C1809 H1812 0.929 . S
C1810 C1809 1.363 . S
C1810 C1816 1.428 . S
H1811 C1807 0.930 . S
H1812 C1809 0.929 . S
S1813 N1814 1.613 . S
S1813 N1815 1.610 1_554 S
N1814 S1813 1.613 . S
N1814 C1817 1.350 . S
N1815 S1813 1.610 1_556 S
N1815 C1816 1.351 . S
C1816 C1810 1.428 . S
C1816 N1815 1.351 . S
C1816 C1817 1.434 1_556 S
C1817 C1808 1.429 . S
C1817 N1814 1.350 . S
C1817 C1816 1.434 1_554 S
C1818 C1819 1.369 . S
C1818 C1820 1.419 . S
C1818 H1822 0.930 . S
C1819 C1818 1.369 . S
C1819 C1828 1.429 . S
C1820 C1818 1.419 . S
C1820 C1821 1.363 . S
C1820 H1823 0.929 . S
C1821 C1820 1.363 . S
C1821 C1827 1.428 . S
H1822 C1818 0.930 . S
H1823 C1820 0.929 . S
S1824 N1825 1.613 . S
S1824 N1826 1.610 1_554 S
N1825 S1824 1.613 . S
N1825 C1828 1.350 1_554 S
N1826 S1824 1.610 1_556 S
N1826 C1827 1.351 . S
C1827 C1821 1.428 . S
C1827 N1826 1.351 . S
C1827 C1828 1.434 . S
C1828 C1819 1.429 . S
C1828 N1825 1.350 1_556 S
C1828 C1827 1.434 . S
C1829 C1830 1.369 . S
C1829 C1831 1.419 . S
C1829 H1833 0.930 . S
C1830 C1829 1.369 . S
C1830 C1839 1.429 . S
C1831 C1829 1.419 . S
C1831 C1832 1.363 . S
C1831 H1834 0.929 . S
C1832 C1831 1.363 . S
C1832 C1838 1.428 . S
H1833 C1829 0.930 . S
H1834 C1831 0.929 . S
S1835 N1836 1.613 . S
S1835 N1837 1.610 . S
N1836 S1835 1.613 . S
N1836 C1839 1.350 . S
N1837 S1835 1.610 . S
N1837 C1838 1.351 . S
C1838 C1832 1.428 . S
C1838 N1837 1.351 . S
C1838 C1839 1.434 . S
C1839 C1830 1.429 . S
C1839 N1836 1.350 . S
C1839 C1838 1.434 . S
C1840 C1841 1.369 . S
C1840 C1842 1.419 . S
C1840 H1844 0.930 . S
C1841 C1840 1.369 . S
C1841 C1850 1.429 . S
C1842 C1840 1.419 . S
C1842 C1843 1.363 . S
C1842 H1845 0.929 . S
C1843 C1842 1.363 . S
C1843 C1849 1.428 . S
H1844 C1840 0.930 . S
H1845 C1842 0.929 . S
S1846 N1847 1.613 . S
S1846 N1848 1.610 . S
N1847 S1846 1.613 . S
N1847 C1850 1.350 . S
N1848 S1846 1.610 . S
N1848 C1849 1.351 . S
C1849 C1843 1.428 . S
C1849 N1848 1.351 . S
C1849 C1850 1.434 . S
C1850 C1841 1.429 . S
C1850 N1847 1.350 . S
C1850 C1849 1.434 . S
C1851 C1852 1.369 . S
C1851 C1853 1.419 . S
C1851 H1855 0.930 . S
C1852 C1851 1.369 . S
C1852 C1861 1.429 . S
C1853 C1851 1.419 . S
C1853 C1854 1.363 . S
C1853 H1856 0.929 . S
C1854 C1853 1.363 . S
C1854 C1860 1.428 . S
H1855 C1851 0.930 . S
H1856 C1853 0.929 . S
S1857 N1858 1.613 . S
S1857 N1859 1.610 . S
N1858 S1857 1.613 . S
N1858 C1861 1.350 . S
N1859 S1857 1.610 . S
N1859 C1860 1.351 . S
C1860 C1854 1.428 . S
C1860 N1859 1.351 . S
C1860 C1861 1.434 . S
C1861 C1852 1.429 . S
C1861 N1858 1.350 . S
C1861 C1860 1.434 . S
C1862 C1863 1.369 . S
C1862 C1864 1.419 . S
C1862 H1866 0.930 . S
C1863 C1862 1.369 . S
C1863 C1872 1.429 . S
C1864 C1862 1.419 . S
C1864 C1865 1.363 . S
C1864 H1867 0.929 . S
C1865 C1864 1.363 . S
C1865 C1871 1.428 . S
H1866 C1862 0.930 . S
H1867 C1864 0.929 . S
S1868 N1869 1.613 . S
S1868 N1870 1.610 . S
N1869 S1868 1.613 . S
N1869 C1872 1.350 . S
N1870 S1868 1.610 . S
N1870 C1871 1.351 . S
C1871 C1865 1.428 . S
C1871 N1870 1.351 . S
C1871 C1872 1.434 . S
C1872 C1863 1.429 . S
C1872 N1869 1.350 . S
C1872 C1871 1.434 . S
C1873 C1874 1.369 . S
C1873 C1875 1.419 . S
C1873 H1877 0.930 . S
C1874 C1873 1.369 . S
C1874 C1883 1.429 . S
C1875 C1873 1.419 . S
C1875 C1876 1.363 . S
C1875 H1878 0.929 . S
C1876 C1875 1.363 . S
C1876 C1882 1.428 . S
H1877 C1873 0.930 . S
H1878 C1875 0.929 . S
S1879 N1880 1.613 . S
S1879 N1881 1.610 . S
N1880 S1879 1.613 . S
N1880 C1883 1.350 . S
N1881 S1879 1.610 . S
N1881 C1882 1.351 . S
C1882 C1876 1.428 . S
C1882 N1881 1.351 . S
C1882 C1883 1.434 . S
C1883 C1874 1.429 . S
C1883 N1880 1.350 . S
C1883 C1882 1.434 . S
C1884 C1885 1.369 . S
C1884 C1886 1.419 . S
C1884 H1888 0.930 . S
C1885 C1884 1.369 . S
C1885 C1894 1.429 . S
C1886 C1884 1.419 . S
C1886 C1887 1.363 . S
C1886 H1889 0.929 1_554 S
C1887 C1886 1.363 . S
C1887 C1893 1.428 . S
H1888 C1884 0.930 . S
H1889 C1886 0.929 1_556 S
S1890 N1891 1.613 . S
S1890 N1892 1.610 . S
N1891 S1890 1.613 . S
N1891 C1894 1.350 . S
N1892 S1890 1.610 . S
N1892 C1893 1.351 . S
C1893 C1887 1.428 . S
C1893 N1892 1.351 . S
C1893 C1894 1.434 . S
C1894 C1885 1.429 . S
C1894 N1891 1.350 . S
C1894 C1893 1.434 . S
C1895 C1896 1.369 . S
C1895 C1897 1.419 . S
C1895 H1899 0.937 . S
C1896 C1895 1.369 . S
C1896 C1905 1.429 . S
C1897 C1895 1.419 . S
C1897 C1898 1.363 . S
C1897 H1900 0.929 . S
C1898 C1897 1.363 . S
C1898 C1904 1.428 . S
H1899 C1895 0.937 . S
H1900 C1897 0.929 . S
S1901 N1902 1.613 . S
S1901 N1903 1.610 . S
N1902 S1901 1.613 . S
N1902 C1905 1.350 . S
N1903 S1901 1.610 . S
N1903 C1904 1.351 . S
C1904 C1898 1.428 . S
C1904 N1903 1.351 . S
C1904 C1905 1.434 . S
C1905 C1896 1.429 . S
C1905 N1902 1.350 . S
C1905 C1904 1.434 . S
C1906 C1907 1.369 . S
C1906 C1908 1.419 . S
C1906 H1910 0.930 . S
C1907 C1906 1.369 . S
C1907 C1916 1.429 . S
C1908 C1906 1.419 . S
C1908 C1909 1.363 . S
C1908 H1911 0.929 . S
C1909 C1908 1.363 . S
C1909 C1915 1.428 . S
H1910 C1906 0.930 . S
H1911 C1908 0.929 . S
S1912 N1913 1.613 1_556 S
S1912 N1914 1.610 . S
N1913 S1912 1.613 1_554 S
N1913 C1916 1.350 . S
N1914 S1912 1.610 . S
N1914 C1915 1.351 1_556 S
C1915 C1909 1.428 . S
C1915 N1914 1.351 1_554 S
C1915 C1916 1.434 . S
C1916 C1907 1.429 . S
C1916 N1913 1.350 . S
C1916 C1915 1.434 . S
C1917 C1918 1.369 . S
C1917 C1919 1.419 . S
C1917 H1921 0.930 . S
C1918 C1917 1.369 . S
C1918 C1927 1.429 . S
C1919 C1917 1.419 . S
C1919 C1920 1.363 . S
C1919 H1922 0.929 . S
C1920 C1919 1.363 . S
C1920 C1926 1.428 . S
H1921 C1917 0.930 . S
H1922 C1919 0.929 . S
S1923 N1924 1.613 . S
S1923 N1925 1.610 . S
N1924 S1923 1.613 . S
N1924 C1927 1.350 . S
N1925 S1923 1.610 . S
N1925 C1926 1.351 . S
C1926 C1920 1.428 . S
C1926 N1925 1.351 . S
C1926 C1927 1.434 . S
C1927 C1918 1.429 . S
C1927 N1924 1.350 . S
C1927 C1926 1.434 . S
C1928 C1929 1.369 . S
C1928 C1930 1.419 . S
C1928 H1932 0.930 . S
C1929 C1928 1.369 . S
C1929 C1938 1.429 . S
C1930 C1928 1.419 . S
C1930 C1931 1.363 . S
C1930 H1933 0.929 . S
C1931 C1930 1.363 . S
C1931 C1937 1.428 . S
H1932 C1928 0.930 . S
H1933 C1930 0.929 . S
S1934 N1935 1.613 . S
S1934 N1936 1.610 . S
N1935 S1934 1.613 . S
N1935 C1938 1.350 . S
N1936 S1934 1.610 . S
N1936 C1937 1.351 . S
C1937 C1931 1.428 . S
C1937 N1936 1.351 . S
C1937 C1938 1.434 . S
C1938 C1929 1.429 . S
C1938 N1935 1.350 . S
C1938 C1937 1.434 . S
C1939 C1940 1.369 . S
C1939 C1941 1.419 . S
C1939 H1943 0.930 . S
C1940 C1939 1.369 . S
C1940 C1949 1.429 . S
C1941 C1939 1.419 . S
C1941 C1942 1.363 . S
C1941 H1944 0.929 . S
C1942 C1941 1.363 . S
C1942 C1948 1.428 . S
H1943 C1939 0.930 . S
H1944 C1941 0.929 . S
S1945 N1946 1.613 . S
S1945 N1947 1.610 . S
N1946 S1945 1.613 . S
N1946 C1949 1.350 . S
N1947 S1945 1.610 . S
N1947 C1948 1.351 . S
C1948 C1942 1.428 . S
C1948 N1947 1.351 . S
C1948 C1949 1.434 . S
C1949 C1940 1.429 . S
C1949 N1946 1.350 . S
C1949 C1948 1.434 . S
C1950 C1951 1.369 1_655 S
C1950 C1952 1.419 . S
C1950 H1954 0.930 . S
C1951 C1950 1.369 1_455 S
C1951 C1960 1.429 1_455 S
C1952 C1950 1.419 . S
C1952 C1953 1.363 . S
C1952 H1955 0.929 . S
C1953 C1952 1.363 . S
C1953 C1959 1.428 . S
H1954 C1950 0.930 . S
H1955 C1952 0.929 . S
S1956 N1957 1.613 1_655 S
S1956 N1958 1.610 . S
N1957 S1956 1.613 1_455 S
N1957 C1960 1.350 1_455 S
N1958 S1956 1.610 . S
N1958 C1959 1.351 . S
C1959 C1953 1.428 . S
C1959 N1958 1.351 . S
C1959 C1960 1.434 . S
C1960 C1951 1.429 1_655 S
C1960 N1957 1.350 1_655 S
C1960 C1959 1.434 . S
C1961 C1962 1.369 . S
C1961 C1963 1.419 . S
C1961 H1965 0.930 . S
C1962 C1961 1.369 . S
C1962 C1971 1.429 . S
C1963 C1961 1.419 . S
C1963 C1964 1.363 . S
C1963 H1966 0.929 . S
C1964 C1963 1.363 . S
C1964 C1970 1.428 . S
H1965 C1961 0.930 . S
H1966 C1963 0.929 . S
S1967 N1968 1.613 . S
S1967 N1969 1.610 . S
N1968 S1967 1.613 . S
N1968 C1971 1.350 . S
N1969 S1967 1.610 . S
N1969 C1970 1.351 . S
C1970 C1964 1.428 . S
C1970 N1969 1.351 . S
C1970 C1971 1.434 . S
C1971 C1962 1.429 . S
C1971 N1968 1.350 . S
C1971 C1970 1.434 . S
C1972 C1973 1.369 . S
C1972 C1974 1.419 . S
C1972 H1976 0.930 . S
C1973 C1972 1.369 . S
C1973 C1982 1.429 . S
C1974 C1972 1.419 . S
C1974 C1975 1.363 1_545 S
C1974 H1977 0.929 . S
C1975 C1974 1.363 1_565 S
C1975 C1981 1.428 . S
H1976 C1972 0.930 . S
H1977 C1974 0.929 . S
S1978 N1979 1.613 1_565 S
S1978 N1980 1.610 . S
N1979 S1978 1.613 1_545 S
N1979 C1982 1.350 . S
N1980 S1978 1.610 . S
N1980 C1981 1.351 . S
C1981 C1975 1.428 . S
C1981 N1980 1.351 . S
C1981 C1982 1.434 1_565 S
C1982 C1973 1.429 . S
C1982 N1979 1.350 . S
C1982 C1981 1.434 1_545 S
C1983 C1984 1.369 . S
C1983 C1985 1.419 . S
C1983 H1987 0.930 . S
C1984 C1983 1.369 . S
C1984 C1993 1.429 . S
C1985 C1983 1.419 . S
C1985 C1986 1.363 1_565 S
C1985 H1988 0.929 . S
C1986 C1985 1.363 1_545 S
C1986 C1992 1.428 . S
H1987 C1983 0.930 . S
H1988 C1985 0.929 . S
S1989 N1990 1.613 1_545 S
S1989 N1991 1.610 . S
N1990 S1989 1.613 1_565 S
N1990 C1993 1.350 . S
N1991 S1989 1.610 . S
N1991 C1992 1.351 . S
C1992 C1986 1.428 . S
C1992 N1991 1.351 . S
C1992 C1993 1.434 1_545 S
C1993 C1984 1.429 . S
C1993 N1990 1.350 . S
C1993 C1992 1.434 1_565 S
C1994 C1995 1.369 . S
C1994 C1996 1.419 . S
C1994 H1998 0.930 . S
C1995 C1994 1.369 . S
C1995 C2004 1.429 . S
C1996 C1994 1.419 . S
C1996 C1997 1.363 1_455 S
C1996 H1999 0.929 1_455 S
C1997 C1996 1.363 1_655 S
C1997 C2003 1.428 1_655 S
H1998 C1994 0.930 . S
H1999 C1996 0.929 1_655 S
S2000 N2001 1.613 . S
S2000 N2002 1.610 . S
N2001 S2000 1.613 . S
N2001 C2004 1.350 . S
N2002 S2000 1.610 . S
N2002 C2003 1.351 . S
C2003 C1997 1.428 1_455 S
C2003 N2002 1.351 . S
C2003 C2004 1.434 . S
C2004 C1995 1.429 . S
C2004 N2001 1.350 . S
C2004 C2003 1.434 . S
C2005 C2006 1.369 . S
C2005 C2007 1.419 . S
C2005 H2009 0.930 . S
C2006 C2005 1.369 . S
C2006 C2015 1.429 . S
C2007 C2005 1.419 . S
C2007 C2008 1.363 . S
C2007 H2010 0.929 . S
C2008 C2007 1.363 . S
C2008 C2014 1.428 . S
H2009 C2005 0.930 . S
H2010 C2007 0.929 . S
S2011 N2012 1.613 . S
S2011 N2013 1.610 . S
N2012 S2011 1.613 . S
N2012 C2015 1.350 . S
N2013 S2011 1.610 . S
N2013 C2014 1.351 . S
C2014 C2008 1.428 . S
C2014 N2013 1.351 . S
C2014 C2015 1.434 . S
C2015 C2006 1.429 . S
C2015 N2012 1.350 . S
C2015 C2014 1.434 . S
C2016 C2017 1.369 . S
C2016 C2018 1.419 . S
C2016 H2020 0.930 . S
C2017 C2016 1.369 . S
C2017 C2026 1.429 . S
C2018 C2016 1.419 . S
C2018 C2019 1.363 . S
C2018 H2021 0.929 . S
C2019 C2018 1.363 . S
C2019 C2025 1.428 . S
H2020 C2016 0.930 . S
H2021 C2018 0.929 . S
S2022 N2023 1.613 . S
S2022 N2024 1.610 . S
N2023 S2022 1.613 . S
N2023 C2026 1.350 . S
N2024 S2022 1.610 . S
N2024 C2025 1.351 . S
C2025 C2019 1.428 . S
C2025 N2024 1.351 . S
C2025 C2026 1.434 . S
C2026 C2017 1.429 . S
C2026 N2023 1.350 . S
C2026 C2025 1.434 . S
C2027 C2028 1.369 . S
C2027 C2029 1.419 . S
C2027 H2031 0.930 . S
C2028 C2027 1.369 . S
C2028 C2037 1.420 . S
C2029 C2027 1.419 . S
C2029 C2030 1.363 . S
C2029 H2032 0.929 . S
C2030 C2029 1.363 . S
C2030 C2036 1.428 . S
H2031 C2027 0.930 . S
H2032 C2029 0.929 . S
S2033 N2034 1.613 . S
S2033 N2035 1.610 . S
N2034 S2033 1.613 . S
N2034 C2037 1.352 1_545 S
N2035 S2033 1.610 . S
N2035 C2036 1.351 1_545 S
C2036 C2030 1.428 . S
C2036 N2035 1.351 1_565 S
C2036 C2037 1.445 . S
C2037 C2028 1.420 . S
C2037 N2034 1.352 1_565 S
C2037 C2036 1.445 . S
C2038 C2039 1.369 . S
C2038 C2040 1.419 . S
C2038 H2042 0.930 . S
C2039 C2038 1.369 . S
C2039 C2048 1.429 . S
C2040 C2038 1.419 . S
C2040 C2041 1.363 . S
C2040 H2043 0.929 . S
C2041 C2040 1.363 . S
C2041 C2047 1.428 . S
H2042 C2038 0.930 . S
H2043 C2040 0.929 . S
S2044 N2045 1.596 1_655 S
S2044 N2046 1.602 1_655 S
N2045 S2044 1.596 1_455 S
N2045 C2048 1.350 . S
N2046 S2044 1.602 1_455 S
N2046 C2047 1.351 . S
C2047 C2041 1.428 . S
C2047 N2046 1.351 . S
C2047 C2048 1.434 . S
C2048 C2039 1.429 . S
C2048 N2045 1.350 . S
C2048 C2047 1.434 . S
C2049 C2050 1.369 . S
C2049 C2051 1.419 . S
C2049 H2053 0.930 . S
C2050 C2049 1.369 . S
C2050 C2059 1.429 . S
C2051 C2049 1.419 . S
C2051 C2052 1.363 . S
C2051 H2054 0.929 . S
C2052 C2051 1.363 . S
C2052 C2058 1.428 . S
H2053 C2049 0.930 . S
H2054 C2051 0.929 . S
S2055 N2056 1.613 . S
S2055 N2057 1.610 . S
N2056 S2055 1.613 . S
N2056 C2059 1.350 . S
N2057 S2055 1.610 . S
N2057 C2058 1.351 . S
C2058 C2052 1.428 . S
C2058 N2057 1.351 . S
C2058 C2059 1.434 . S
C2059 C2050 1.429 . S
C2059 N2056 1.350 . S
C2059 C2058 1.434 . S
C2060 C2061 1.369 . S
C2060 C2062 1.419 . S
C2060 H2064 0.930 . S
C2061 C2060 1.369 . S
C2061 C2070 1.429 1_545 S
C2062 C2060 1.419 . S
C2062 C2063 1.363 . S
C2062 H2065 0.929 . S
C2063 C2062 1.363 . S
C2063 C2069 1.428 1_545 S
H2064 C2060 0.930 . S
H2065 C2062 0.929 . S
S2066 N2067 1.613 . S
S2066 N2068 1.610 . S
N2067 S2066 1.613 . S
N2067 C2070 1.350 . S
N2068 S2066 1.610 . S
N2068 C2069 1.351 . S
C2069 C2063 1.428 1_565 S
C2069 N2068 1.351 . S
C2069 C2070 1.434 . S
C2070 C2061 1.429 1_565 S
C2070 N2067 1.350 . S
C2070 C2069 1.434 . S
C2071 C2072 1.369 . S
C2071 C2073 1.419 . S
C2071 H2075 0.930 . S
C2072 C2071 1.369 . S
C2072 C2081 1.429 . S
C2073 C2071 1.419 . S
C2073 C2074 1.363 . S
C2073 H2076 0.929 . S
C2074 C2073 1.363 . S
C2074 C2080 1.428 . S
H2075 C2071 0.930 . S
H2076 C2073 0.929 . S
S2077 N2078 1.613 . S
S2077 N2079 1.610 . S
N2078 S2077 1.613 . S
N2078 C2081 1.350 . S
N2079 S2077 1.610 . S
N2079 C2080 1.351 . S
C2080 C2074 1.428 . S
C2080 N2079 1.351 . S
C2080 C2081 1.434 . S
C2081 C2072 1.429 . S
C2081 N2078 1.350 . S
C2081 C2080 1.434 . S
C2082 C2083 1.369 . S
C2082 C2084 1.419 . S
C2082 H2086 0.930 . S
C2083 C2082 1.369 . S
C2083 C2092 1.429 . S
C2084 C2082 1.419 . S
C2084 C2085 1.363 . S
C2084 H2087 0.929 . S
C2085 C2084 1.363 . S
C2085 C2091 1.428 . S
H2086 C2082 0.930 . S
H2087 C2084 0.929 . S
S2088 N2089 1.613 . S
S2088 N2090 1.610 . S
N2089 S2088 1.613 . S
N2089 C2092 1.350 . S
N2090 S2088 1.610 . S
N2090 C2091 1.351 . S
C2091 C2085 1.428 . S
C2091 N2090 1.351 . S
C2091 C2092 1.434 . S
C2092 C2083 1.429 . S
C2092 N2089 1.350 . S
C2092 C2091 1.434 . S
C2093 C2094 1.369 . S
C2093 C2095 1.419 . S
C2093 H2097 0.930 . S
C2094 C2093 1.369 . S
C2094 C2103 1.429 . S
C2095 C2093 1.419 . S
C2095 C2096 1.363 . S
C2095 H2098 0.929 . S
C2096 C2095 1.363 . S
C2096 C2102 1.428 . S
H2097 C2093 0.930 . S
H2098 C2095 0.929 . S
S2099 N2100 1.613 . S
S2099 N2101 1.610 . S
N2100 S2099 1.613 . S
N2100 C2103 1.350 . S
N2101 S2099 1.610 . S
N2101 C2102 1.351 . S
C2102 C2096 1.428 . S
C2102 N2101 1.351 . S
C2102 C2103 1.434 . S
C2103 C2094 1.429 . S
C2103 N2100 1.350 . S
C2103 C2102 1.434 . S
C2104 C2105 1.369 . S
C2104 C2106 1.419 . S
C2104 H2108 0.930 . S
C2105 C2104 1.369 . S
C2105 C2114 1.429 . S
C2106 C2104 1.419 . S
C2106 C2107 1.363 . S
C2106 H2109 0.929 . S
C2107 C2106 1.363 . S
C2107 C2113 1.428 . S
H2108 C2104 0.930 . S
H2109 C2106 0.929 . S
S2110 N2111 1.613 . S
S2110 N2112 1.610 . S
N2111 S2110 1.613 . S
N2111 C2114 1.350 . S
N2112 S2110 1.610 . S
N2112 C2113 1.351 . S
C2113 C2107 1.428 . S
C2113 N2112 1.351 . S
C2113 C2114 1.434 . S
C2114 C2105 1.429 . S
C2114 N2111 1.350 . S
C2114 C2113 1.434 . S
C2115 C2116 1.369 . S
C2115 C2117 1.419 . S
C2115 H2119 0.930 . S
C2116 C2115 1.369 . S
C2116 C2125 1.429 . S
C2117 C2115 1.419 . S
C2117 C2118 1.363 . S
C2117 H2120 0.929 . S
C2118 C2117 1.363 . S
C2118 C2124 1.428 . S
H2119 C2115 0.930 . S
H2120 C2117 0.929 . S
S2121 N2122 1.613 . S
S2121 N2123 1.610 . S
N2122 S2121 1.613 . S
N2122 C2125 1.350 . S
N2123 S2121 1.610 . S
N2123 C2124 1.351 . S
C2124 C2118 1.428 . S
C2124 N2123 1.351 . S
C2124 C2125 1.434 . S
C2125 C2116 1.429 . S
C2125 N2122 1.350 . S
C2125 C2124 1.434 . S
C2126 C2127 1.369 . S
C2126 C2128 1.419 . S
C2126 H2130 0.930 . S
C2127 C2126 1.369 . S
C2127 C2136 1.429 . S
C2128 C2126 1.419 . S
C2128 C2129 1.363 . S
C2128 H2131 0.929 . S
C2129 C2128 1.363 . S
C2129 C2135 1.428 . S
H2130 C2126 0.930 . S
H2131 C2128 0.929 . S
S2132 N2133 1.613 . S
S2132 N2134 1.610 . S
N2133 S2132 1.613 . S
N2133 C2136 1.350 . S
N2134 S2132 1.610 . S
N2134 C2135 1.351 . S
C2135 C2129 1.428 . S
C2135 N2134 1.351 . S
C2135 C2136 1.434 . S
C2136 C2127 1.429 . S
C2136 N2133 1.350 . S
C2136 C2135 1.434 . S
C2137 C2138 1.369 . S
C2137 C2139 1.419 . S
C2137 H2141 0.930 . S
C2138 C2137 1.369 . S
C2138 C2147 1.429 . S
C2139 C2137 1.419 . S
C2139 C2140 1.363 . S
C2139 H2142 0.929 . S
C2140 C2139 1.363 . S
C2140 C2146 1.428 . S
H2141 C2137 0.930 . S
H2142 C2139 0.929 . S
S2143 N2144 1.613 . S
S2143 N2145 1.610 . S
N2144 S2143 1.613 . S
N2144 C2147 1.350 . S
N2145 S2143 1.610 . S
N2145 C2146 1.351 . S
C2146 C2140 1.428 . S
C2146 N2145 1.351 . S
C2146 C2147 1.434 . S
C2147 C2138 1.429 . S
C2147 N2144 1.350 . S
C2147 C2146 1.434 . S
C2148 C2149 1.369 . S
C2148 C2150 1.419 . S
C2148 H2152 0.930 . S
C2149 C2148 1.369 . S
C2149 C2158 1.429 . S
C2150 C2148 1.419 . S
C2150 C2151 1.363 . S
C2150 H2153 0.929 . S
C2151 C2150 1.363 . S
C2151 C2157 1.428 . S
H2152 C2148 0.930 . S
H2153 C2150 0.929 . S
S2154 N2155 1.613 . S
S2154 N2156 1.610 . S
N2155 S2154 1.613 . S
N2155 C2158 1.350 . S
N2156 S2154 1.610 . S
N2156 C2157 1.351 . S
C2157 C2151 1.428 . S
C2157 N2156 1.351 . S
C2157 C2158 1.434 . S
C2158 C2149 1.429 . S
C2158 N2155 1.350 . S
C2158 C2157 1.434 . S
C2159 C2160 1.369 . S
C2159 C2161 1.419 . S
C2159 H2163 0.930 . S
C2160 C2159 1.369 . S
C2160 C2169 1.429 . S
C2161 C2159 1.419 . S
C2161 C2162 1.363 . S
C2161 H2164 0.929 . S
C2162 C2161 1.363 . S
C2162 C2168 1.428 . S
H2163 C2159 0.930 . S
H2164 C2161 0.929 . S
S2165 N2166 1.613 . S
S2165 N2167 1.610 . S
N2166 S2165 1.613 . S
N2166 C2169 1.350 . S
N2167 S2165 1.610 . S
N2167 C2168 1.351 . S
C2168 C2162 1.428 . S
C2168 N2167 1.351 . S
C2168 C2169 1.434 . S
C2169 C2160 1.429 . S
C2169 N2166 1.350 . S
C2169 C2168 1.434 . S
C2170 C2171 1.369 . S
C2170 C2172 1.419 . S
C2170 H2174 0.930 . S
C2171 C2170 1.369 . S
C2171 C2180 1.429 . S
C2172 C2170 1.419 . S
C2172 C2173 1.363 . S
C2172 H2175 0.929 . S
C2173 C2172 1.363 . S
C2173 C2179 1.428 . S
H2174 C2170 0.930 . S
H2175 C2172 0.929 . S
S2176 N2177 1.613 . S
S2176 N2178 1.610 . S
N2177 S2176 1.613 . S
N2177 C2180 1.350 . S
N2178 S2176 1.610 . S
N2178 C2179 1.351 . S
C2179 C2173 1.428 . S
C2179 N2178 1.351 . S
C2179 C2180 1.434 . S
C2180 C2171 1.429 . S
C2180 N2177 1.350 . S
C2180 C2179 1.434 . S
C2181 C2182 1.369 . S
C2181 C2183 1.419 . S
C2181 H2185 0.930 . S
C2182 C2181 1.369 . S
C2182 C2191 1.429 . S
C2183 C2181 1.419 . S
C2183 C2184 1.363 . S
C2183 H2186 0.929 . S
C2184 C2183 1.363 . S
C2184 C2190 1.428 . S
H2185 C2181 0.930 . S
H2186 C2183 0.929 . S
S2187 N2188 1.613 . S
S2187 N2189 1.610 . S
N2188 S2187 1.613 . S
N2188 C2191 1.350 . S
N2189 S2187 1.610 . S
N2189 C2190 1.351 . S
C2190 C2184 1.428 . S
C2190 N2189 1.351 . S
C2190 C2191 1.434 . S
C2191 C2182 1.429 . S
C2191 N2188 1.350 . S
C2191 C2190 1.434 . S
C2192 C2193 1.369 . S
C2192 C2194 1.419 . S
C2192 H2196 0.930 . S
C2193 C2192 1.369 . S
C2193 C2202 1.429 . S
C2194 C2192 1.419 . S
C2194 C2195 1.363 . S
C2194 H2197 0.929 . S
C2195 C2194 1.363 . S
C2195 C2201 1.428 . S
H2196 C2192 0.930 . S
H2197 C2194 0.929 . S
S2198 N2199 1.613 . S
S2198 N2200 1.610 . S
N2199 S2198 1.613 . S
N2199 C2202 1.350 . S
N2200 S2198 1.610 . S
N2200 C2201 1.351 . S
C2201 C2195 1.428 . S
C2201 N2200 1.351 . S
C2201 C2202 1.434 . S
C2202 C2193 1.429 . S
C2202 N2199 1.350 . S
C2202 C2201 1.434 . S
C2203 C2204 1.369 . S
C2203 C2205 1.419 . S
C2203 H2207 0.930 . S
C2204 C2203 1.369 . S
C2204 C2213 1.429 . S
C2205 C2203 1.419 . S
C2205 C2206 1.363 . S
C2205 H2208 0.929 . S
C2206 C2205 1.363 . S
C2206 C2212 1.428 . S
H2207 C2203 0.930 . S
H2208 C2205 0.929 . S
S2209 N2210 1.613 . S
S2209 N2211 1.610 . S
N2210 S2209 1.613 . S
N2210 C2213 1.350 . S
N2211 S2209 1.610 . S
N2211 C2212 1.351 . S
C2212 C2206 1.428 . S
C2212 N2211 1.351 . S
C2212 C2213 1.434 . S
C2213 C2204 1.429 . S
C2213 N2210 1.350 . S
C2213 C2212 1.434 . S
C2214 C2215 1.369 . S
C2214 C2216 1.419 . S
C2214 H2218 0.930 . S
C2215 C2214 1.369 . S
C2215 C2224 1.429 . S
C2216 C2214 1.419 . S
C2216 C2217 1.363 . S
C2216 H2219 0.929 . S
C2217 C2216 1.363 . S
C2217 C2223 1.428 . S
H2218 C2214 0.930 . S
H2219 C2216 0.929 . S
S2220 N2221 1.613 . S
S2220 N2222 1.610 . S
N2221 S2220 1.613 . S
N2221 C2224 1.350 . S
N2222 S2220 1.610 . S
N2222 C2223 1.351 . S
C2223 C2217 1.428 . S
C2223 N2222 1.351 . S
C2223 C2224 1.434 . S
C2224 C2215 1.429 . S
C2224 N2221 1.350 . S
C2224 C2223 1.434 . S
C2225 C2226 1.369 . S
C2225 C2227 1.419 . S
C2225 H2229 0.930 . S
C2226 C2225 1.369 . S
C2226 C2235 1.429 . S
C2227 C2225 1.419 . S
C2227 C2228 1.363 . S
C2227 H2230 0.929 1_565 S
C2228 C2227 1.363 . S
C2228 C2234 1.428 . S
H2229 C2225 0.930 . S
H2230 C2227 0.929 1_545 S
S2231 N2232 1.613 . S
S2231 N2233 1.610 . S
N2232 S2231 1.613 . S
N2232 C2235 1.350 . S
N2233 S2231 1.610 . S
N2233 C2234 1.351 . S
C2234 C2228 1.428 . S
C2234 N2233 1.351 . S
C2234 C2235 1.434 . S
C2235 C2226 1.429 . S
C2235 N2232 1.350 . S
C2235 C2234 1.434 . S
C2236 C2237 1.369 . S
C2236 C2238 1.419 . S
C2236 H2240 0.930 . S
C2237 C2236 1.369 . S
C2237 C2246 1.429 . S
C2238 C2236 1.419 . S
C2238 C2239 1.363 . S
C2238 H2241 0.929 . S
C2239 C2238 1.363 . S
C2239 C2245 1.428 . S
H2240 C2236 0.930 . S
H2241 C2238 0.929 . S
S2242 N2243 1.613 . S
S2242 N2244 1.610 . S
N2243 S2242 1.613 . S
N2243 C2246 1.350 . S
N2244 S2242 1.610 . S
N2244 C2245 1.351 . S
C2245 C2239 1.428 . S
C2245 N2244 1.351 . S
C2245 C2246 1.434 . S
C2246 C2237 1.429 . S
C2246 N2243 1.350 . S
C2246 C2245 1.434 . S
C2247 C2248 1.369 . S
C2247 C2249 1.419 . S
C2247 H2251 0.930 . S
C2248 C2247 1.369 . S
C2248 C2257 1.429 . S
C2249 C2247 1.419 . S
C2249 C2250 1.363 . S
C2249 H2252 0.929 . S
C2250 C2249 1.363 . S
C2250 C2256 1.428 . S
H2251 C2247 0.930 . S
H2252 C2249 0.929 . S
S2253 N2254 1.613 . S
S2253 N2255 1.610 . S
N2254 S2253 1.613 . S
N2254 C2257 1.350 . S
N2255 S2253 1.610 . S
N2255 C2256 1.351 . S
C2256 C2250 1.428 . S
C2256 N2255 1.351 . S
C2256 C2257 1.434 . S
C2257 C2248 1.429 . S
C2257 N2254 1.350 . S
C2257 C2256 1.434 . S
C2258 C2259 1.369 . S
C2258 C2260 1.419 . S
C2258 H2262 0.930 1_545 S
C2259 C2258 1.369 . S
C2259 C2268 1.429 . S
C2260 C2258 1.419 . S
C2260 C2261 1.363 . S
C2260 H2263 0.929 . S
C2261 C2260 1.363 . S
C2261 C2267 1.428 . S
H2262 C2258 0.930 1_565 S
H2263 C2260 0.929 . S
S2264 N2265 1.613 . S
S2264 N2266 1.610 . S
N2265 S2264 1.613 . S
N2265 C2268 1.350 . S
N2266 S2264 1.610 . S
N2266 C2267 1.351 . S
C2267 C2261 1.428 . S
C2267 N2266 1.351 . S
C2267 C2268 1.434 . S
C2268 C2259 1.429 . S
C2268 N2265 1.350 . S
C2268 C2267 1.434 . S
C2269 C2270 1.371 1_455 S
C2269 C2271 1.419 1_455 S
C2269 H2273 0.927 . S
C2270 C2269 1.371 1_655 S
C2270 C2279 1.429 . S
C2271 C2269 1.419 1_655 S
C2271 C2272 1.363 . S
C2271 H2274 0.929 . S
C2272 C2271 1.363 . S
C2272 C2278 1.428 . S
H2273 C2269 0.927 . S
H2274 C2271 0.929 . S
S2275 N2276 1.613 . S
S2275 N2277 1.610 . S
N2276 S2275 1.613 . S
N2276 C2279 1.350 . S
N2277 S2275 1.610 . S
N2277 C2278 1.351 . S
C2278 C2272 1.428 . S
C2278 N2277 1.351 . S
C2278 C2279 1.434 . S
C2279 C2270 1.429 . S
C2279 N2276 1.350 . S
C2279 C2278 1.434 . S
C2280 C2281 1.369 . S
C2280 C2282 1.419 . S
C2280 H2284 0.930 . S
C2281 C2280 1.369 . S
C2281 C2290 1.429 . S
C2282 C2280 1.419 . S
C2282 C2283 1.363 . S
C2282 H2285 0.929 . S
C2283 C2282 1.363 . S
C2283 C2289 1.428 . S
H2284 C2280 0.930 . S
H2285 C2282 0.929 . S
S2286 N2287 1.613 . S
S2286 N2288 1.610 . S
N2287 S2286 1.613 . S
N2287 C2290 1.350 . S
N2288 S2286 1.610 . S
N2288 C2289 1.351 . S
C2289 C2283 1.428 . S
C2289 N2288 1.351 . S
C2289 C2290 1.434 . S
C2290 C2281 1.429 . S
C2290 N2287 1.350 . S
C2290 C2289 1.434 . S
C2291 C2292 1.369 . S
C2291 C2293 1.419 . S
C2291 H2295 0.930 . S
C2292 C2291 1.369 . S
C2292 C2301 1.429 . S
C2293 C2291 1.419 . S
C2293 C2294 1.363 . S
C2293 H2296 0.929 . S
C2294 C2293 1.363 . S
C2294 C2300 1.428 . S
H2295 C2291 0.930 . S
H2296 C2293 0.929 . S
S2297 N2298 1.613 . S
S2297 N2299 1.610 . S
N2298 S2297 1.613 . S
N2298 C2301 1.350 . S
N2299 S2297 1.610 . S
N2299 C2300 1.351 . S
C2300 C2294 1.428 . S
C2300 N2299 1.351 . S
C2300 C2301 1.434 . S
C2301 C2292 1.429 . S
C2301 N2298 1.350 . S
C2301 C2300 1.434 . S
C2302 C2303 1.369 . S
C2302 C2304 1.419 . S
C2302 H2306 0.930 . S
C2303 C2302 1.369 . S
C2303 C2312 1.429 . S
C2304 C2302 1.419 . S
C2304 C2305 1.363 . S
C2304 H2307 0.929 . S
C2305 C2304 1.363 . S
C2305 C2311 1.428 . S
H2306 C2302 0.930 . S
H2307 C2304 0.929 . S
S2308 N2309 1.630 . S
S2308 N2310 1.630 . S
N2309 S2308 1.630 . S
N2309 C2312 1.350 . S
N2310 S2308 1.630 . S
N2310 C2311 1.351 . S
C2311 C2305 1.428 . S
C2311 N2310 1.351 . S
C2311 C2312 1.434 . S
C2312 C2303 1.429 . S
C2312 N2309 1.350 . S
C2312 C2311 1.434 . S
C2313 C2314 1.369 . S
C2313 C2315 1.419 . S
C2313 H2317 0.930 . S
C2314 C2313 1.369 . S
C2314 C2323 1.429 . S
C2315 C2313 1.419 . S
C2315 C2316 1.363 . S
C2315 H2318 0.929 . S
C2316 C2315 1.363 . S
C2316 C2322 1.428 . S
H2317 C2313 0.930 . S
H2318 C2315 0.929 . S
S2319 N2320 1.613 . S
S2319 N2321 1.610 . S
N2320 S2319 1.613 . S
N2320 C2323 1.350 . S
N2321 S2319 1.610 . S
N2321 C2322 1.351 . S
C2322 C2316 1.428 . S
C2322 N2321 1.351 . S
C2322 C2323 1.434 . S
C2323 C2314 1.429 . S
C2323 N2320 1.350 . S
C2323 C2322 1.434 . S
C2324 C2325 1.369 . S
C2324 C2326 1.419 . S
C2324 H2328 0.930 . S
C2325 C2324 1.369 . S
C2325 C2334 1.429 . S
C2326 C2324 1.419 . S
C2326 C2327 1.363 . S
C2326 H2329 0.929 . S
C2327 C2326 1.363 . S
C2327 C2333 1.428 . S
H2328 C2324 0.930 . S
H2329 C2326 0.929 . S
S2330 N2331 1.613 1_545 S
S2330 N2332 1.610 . S
N2331 S2330 1.613 1_565 S
N2331 C2334 1.350 . S
N2332 S2330 1.610 . S
N2332 C2333 1.351 1_545 S
C2333 C2327 1.428 . S
C2333 N2332 1.351 1_565 S
C2333 C2334 1.434 . S
C2334 C2325 1.429 . S
C2334 N2331 1.350 . S
C2334 C2333 1.434 . S
C2335 C2336 1.369 . S
C2335 C2337 1.419 . S
C2335 H2339 0.930 . S
C2336 C2335 1.369 . S
C2336 C2345 1.429 . S
C2337 C2335 1.419 . S
C2337 C2338 1.363 . S
C2337 H2340 0.938 . S
C2338 C2337 1.363 . S
C2338 C2344 1.428 . S
H2339 C2335 0.930 . S
H2340 C2337 0.938 . S
S2341 N2342 1.613 . S
S2341 N2343 1.610 . S
N2342 S2341 1.613 . S
N2342 C2345 1.350 . S
N2343 S2341 1.610 . S
N2343 C2344 1.351 . S
C2344 C2338 1.428 . S
C2344 N2343 1.351 . S
C2344 C2345 1.434 . S
C2345 C2336 1.429 . S
C2345 N2342 1.350 . S
C2345 C2344 1.434 . S
C2346 C2347 1.369 . S
C2346 C2348 1.419 . S
C2346 H2350 0.930 . S
C2347 C2346 1.369 . S
C2347 C2356 1.429 . S
C2348 C2346 1.419 . S
C2348 C2349 1.363 1_655 S
C2348 H2351 0.929 1_655 S
C2349 C2348 1.363 1_455 S
C2349 C2355 1.428 . S
H2350 C2346 0.930 . S
H2351 C2348 0.929 1_455 S
S2352 N2353 1.613 . S
S2352 N2354 1.610 1_655 S
N2353 S2352 1.613 . S
N2353 C2356 1.350 . S
N2354 S2352 1.610 1_455 S
N2354 C2355 1.351 . S
C2355 C2349 1.428 . S
C2355 N2354 1.351 . S
C2355 C2356 1.434 1_455 S
C2356 C2347 1.429 . S
C2356 N2353 1.350 . S
C2356 C2355 1.434 1_655 S
C2357 C2358 1.369 . S
C2357 C2359 1.419 . S
C2357 H2361 0.930 . S
C2358 C2357 1.369 . S
C2358 C2367 1.429 . S
C2359 C2357 1.419 . S
C2359 C2360 1.363 . S
C2359 H2362 0.929 . S
C2360 C2359 1.363 . S
C2360 C2366 1.428 . S
H2361 C2357 0.930 . S
H2362 C2359 0.929 . S
S2363 N2364 1.613 . S
S2363 N2365 1.610 . S
N2364 S2363 1.613 . S
N2364 C2367 1.350 . S
N2365 S2363 1.610 . S
N2365 C2366 1.351 . S
C2366 C2360 1.428 . S
C2366 N2365 1.351 . S
C2366 C2367 1.434 . S
C2367 C2358 1.429 . S
C2367 N2364 1.350 . S
C2367 C2366 1.434 . S
C2368 C2369 1.369 . S
C2368 C2370 1.419 1_545 S
C2368 H2372 0.930 . S
C2369 C2368 1.369 . S
C2369 C2378 1.429 . S
C2370 C2368 1.419 1_565 S
C2370 C2371 1.363 . S
C2370 H2373 0.929 . S
C2371 C2370 1.363 . S
C2371 C2377 1.428 1_565 S
H2372 C2368 0.930 . S
H2373 C2370 0.929 . S
S2374 N2375 1.613 . S
S2374 N2376 1.593 1_545 S
N2375 S2374 1.613 . S
N2375 C2378 1.350 . S
N2376 S2374 1.593 1_565 S
N2376 C2377 1.353 1_565 S
C2377 C2371 1.428 1_545 S
C2377 N2376 1.353 1_545 S
C2377 C2378 1.434 . S
C2378 C2369 1.429 . S
C2378 N2375 1.350 . S
C2378 C2377 1.434 . S
C2379 C2380 1.369 1_565 S
C2379 C2381 1.419 . S
C2379 H2383 0.930 . S
C2380 C2379 1.369 1_545 S
C2380 C2389 1.429 . S
C2381 C2379 1.419 . S
C2381 C2382 1.363 . S
C2381 H2384 0.929 . S
C2382 C2381 1.363 . S
C2382 C2388 1.428 . S
H2383 C2379 0.930 . S
H2384 C2381 0.929 . S
S2385 N2386 1.609 1_565 S
S2385 N2387 1.642 . S
N2386 S2385 1.609 1_545 S
N2386 C2389 1.350 . S
N2387 S2385 1.642 . S
N2387 C2388 1.351 . S
C2388 C2382 1.428 . S
C2388 N2387 1.351 . S
C2388 C2389 1.434 1_565 S
C2389 C2380 1.429 . S
C2389 N2386 1.350 . S
C2389 C2388 1.434 1_545 S
C2390 C2391 1.374 . S
C2390 C2392 1.408 1_655 S
C2390 H2394 0.935 . S
C2391 C2390 1.374 . S
C2391 C2400 1.429 1_655 S
C2392 C2390 1.408 1_455 S
C2392 C2393 1.363 . S
C2392 H2395 0.929 . S
C2393 C2392 1.363 . S
C2393 C2399 1.428 . S
H2394 C2390 0.935 . S
H2395 C2392 0.929 . S
S2396 N2397 1.613 1_455 S
S2396 N2398 1.610 . S
N2397 S2396 1.613 1_655 S
N2397 C2400 1.350 1_655 S
N2398 S2396 1.610 . S
N2398 C2399 1.351 . S
C2399 C2393 1.428 . S
C2399 N2398 1.351 . S
C2399 C2400 1.434 . S
C2400 C2391 1.429 1_455 S
C2400 N2397 1.350 1_455 S
C2400 C2399 1.434 . S
C2401 C2402 1.369 . S
C2401 C2403 1.419 . S
C2401 H2405 0.930 . S
C2402 C2401 1.369 . S
C2402 C2411 1.429 . S
C2403 C2401 1.419 . S
C2403 C2404 1.363 . S
C2403 H2406 0.929 . S
C2404 C2403 1.363 . S
C2404 C2410 1.428 . S
H2405 C2401 0.930 . S
H2406 C2403 0.929 . S
S2407 N2408 1.613 . S
S2407 N2409 1.610 . S
N2408 S2407 1.613 . S
N2408 C2411 1.350 . S
N2409 S2407 1.610 . S
N2409 C2410 1.351 . S
C2410 C2404 1.428 . S
C2410 N2409 1.351 . S
C2410 C2411 1.434 . S
C2411 C2402 1.429 . S
C2411 N2408 1.350 . S
C2411 C2410 1.434 . S
C1225 C0 0.896 . S
C1227 C242 0.914 . S
C1236 C276 0.916 . S
C1238 C34 0.889 . S
C1247 C208 0.925 . S
C1249 C68 0.882 . S
C1258 C391 2.357 1_455 S
C1260 C131 2.331 . S
C1269 C165 2.328 . S
C1271 C323 2.358 . S
C1280 C199 2.328 . S
C1282 C357 2.358 1_565 S
C1291 C47 0.918 . S
C1293 C233 0.891 . S
C1302 C267 0.877 . S
C1304 C81 0.923 . S
C1313 C13 0.917 . S
C1315 C301 0.891 . S
C1324 C178 2.358 1_655 S
C1326 C306 2.330 . S
C1335 C340 2.331 . S
C1337 C110 2.357 . S
C1346 C374 2.329 . S
C1348 C144 2.358 1_545 S
C1357 C408 0.884 . S
C1359 C650 0.920 . S
C1368 C684 0.916 . S
C1370 C442 0.892 . S
C1379 C616 0.920 . S
C1381 C476 0.887 . S
C1390 C539 2.330 . S
C1392 C799 2.358 . S
C1401 C731 2.357 . S
C1403 C573 2.331 . S
C1412 C607 2.331 . S
C1414 C765 2.357 . S
C1423 C641 0.878 . S
C1425 C455 0.924 . S
C1434 C489 0.926 . S
C1436 C675 0.881 . S
C1445 C709 0.897 . S
C1447 C421 0.914 . S
C1456 C586 2.358 . S
C1458 C714 2.329 . S
C1467 C518 2.358 . S
C1469 C748 2.328 . S
C1478 C782 2.331 . S
C1480 C552 2.358 . S
C1489 C816 0.877 . S
C1491 C1058 0.924 . S
C1500 C850 0.896 . S
C1502 C1092 0.912 . S
C1511 C1024 0.918 . S
C1513 C884 0.887 . S
C1522 C1207 2.357 . S
C1524 C947 2.331 . S
C1533 C981 2.330 . S
C1535 C1139 2.358 . S
C1544 C1173 2.358 . S
C1546 C1015 2.329 . S
C1555 C863 0.913 . S
C1557 C1049 0.895 . S
C1566 C1083 0.896 . S
C1568 C897 0.915 . S
C1577 C829 0.912 . S
C1579 C1117 0.892 . S
C1588 C1122 2.328 . S
C1590 C994 2.358 . S
C1599 C1156 2.332 . S
C1601 C926 2.357 . S
C1610 C1190 2.331 . S
C1612 C960 2.357 . S
C1621 C4 0.979 . S
C1623 C625 0.965 . S
C1632 C38 0.982 . S
C1634 C659 0.962 . S
C1643 C693 0.974 . S
C1645 C72 0.969 . S
C1654 C1130 2.501 . S
C1656 C119 2.503 . S
C1665 C1164 2.503 . S
C1667 C153 2.501 . S
C1676 C1198 2.502 . S
C1678 C187 2.503 . S
C1687 C217 0.960 . S
C1689 C820 0.979 . S
C1698 C854 0.960 . S
C1700 C251 0.979 . S
C1709 C285 0.982 . S
C1711 C888 0.962 . S
C1720 C314 2.501 . S
C1722 C527 2.503 . S
C1731 C348 2.501 . S
C1733 C561 2.503 . S
C1742 C382 2.504 . S
C1744 C595 2.501 . S
C1753 C412 0.981 . S
C1755 C1033 0.977 . S
C1764 C1067 0.972 . S
C1766 C446 0.969 . S
C1775 C480 0.965 . S
C1777 C1101 0.974 . S
C1786 C935 2.503 . S
C1788 C722 2.501 . S
C1797 C756 2.503 . S
C1799 C969 2.502 . S
C1808 C1003 2.503 . S
C1810 C790 2.501 . S
C1819 C8 1.637 1_556 S
C1821 C557 1.608 . S
C1830 C42 1.638 1_556 S
C1832 C591 1.608 . S
C1841 C523 1.602 . S
C1843 C76 1.644 1_556 S
C1852 C115 1.602 . S
C1854 C892 1.644 . S
C1863 C824 1.637 . S
C1865 C149 1.609 . S
C1874 C183 1.609 . S
C1876 C858 1.639 . S
C1885 C1160 1.601 . S
C1887 C221 1.645 1_554 S
C1896 C255 1.646 1_554 S
C1898 C1194 1.602 . S
C1907 C1126 1.610 . S
C1909 C289 1.638 1_554 S
C1918 C310 1.599 . S
C1920 C697 1.645 . S
C1929 C344 1.607 . S
C1931 C629 1.638 . S
C1940 C378 1.610 . S
C1942 C663 1.638 . S
C1951 C965 1.610 . S
C1953 C416 1.638 . S
C1962 C450 1.638 . S
C1964 C999 1.606 . S
C1973 C484 1.638 . S
C1975 C931 1.606 . S
C1984 C1105 1.637 . S
C1986 C718 1.607 . S
C1995 C1037 1.644 . S
C1997 C752 1.600 . S
C2006 C1071 1.646 . S
C2008 C786 1.600 . S
C2017 C106 1.756 . S
C2019 C17 1.869 . S
C2028 C51 1.867 . S
C2030 C140 1.759 . S
C2039 C85 1.867 . S
C2041 C174 1.758 . S
C2050 C319 1.750 . S
C2052 C212 1.870 . S
C2061 C246 1.867 . S
C2063 C353 1.755 . S
C2072 C387 1.759 . S
C2074 C280 1.867 . S
C2083 C514 1.751 . S
C2085 C425 1.869 . S
C2094 C459 1.869 . S
C2096 C548 1.751 . S
C2105 C493 1.870 . S
C2107 C582 1.754 . S
C2116 C620 1.870 . S
C2118 C727 1.752 . S
C2127 C654 1.866 . S
C2129 C761 1.758 . S
C2138 C688 1.866 . S
C2140 C795 1.759 . S
C2149 C833 1.869 . S
C2151 C922 1.756 . S
C2160 C956 1.756 . S
C2162 C867 1.867 . S
C2171 C990 1.750 . S
C2173 C901 1.869 . S
C2182 C1028 1.870 . S
C2184 C1135 1.751 . S
C2193 C1169 1.759 . S
C2195 C1062 1.867 . S
C2204 C1096 1.868 . S
C2206 C1203 1.757 . S
C2215 C29 1.946 . S
C2217 C986 1.964 . S
C2226 C918 1.964 . S
C2228 C63 1.946 . S
C2237 C97 1.946 . S
C2239 C952 1.964 . S
C2248 C471 1.944 . S
C2250 C102 1.966 . S
C2259 C136 1.965 1_545 S
C2261 C505 1.944 . S
C2270 C170 1.965 1_655 S
C2272 C437 1.944 . S
C2281 C811 1.964 . S
C2283 C204 1.946 . S
C2292 C238 1.945 . S
C2294 C743 1.966 . S
C2303 C777 1.967 . S
C2305 C272 1.941 . S
C2314 C335 1.967 . S
C2316 C1054 1.941 . S
C2325 C1088 1.941 . S
C2327 C369 1.967 1_565 S
C2336 C1020 1.945 . S
C2338 C403 1.964 1_455 S
C2347 C510 1.967 . S
C2349 C879 1.942 . S
C2358 C544 1.964 . S
C2360 C913 1.944 . S
C2369 C578 1.963 . S
C2371 C845 1.945 . S
C2380 C612 1.941 . S
C2382 C1219 1.966 . S
C2391 C646 1.945 . S
C2393 C1151 1.964 . S
C2402 C1185 1.967 . S
C2404 C680 1.941 . S
