# Generated by pormake.
# Topology sod, (4)-cn, num edge types: 1
# Building blocks:
#     Node 0, Type 0, BuildingBlock: QUQFOY_clean_sbu_1, # of connection points: 4
#     Node 1, Type 0, BuildingBlock: QUQFOY_clean_sbu_1, # of connection points: 4
#     Node 2, Type 0, BuildingBlock: QUQFOY_clean_sbu_1, # of connection points: 4
#     Node 3, Type 0, BuildingBlock: QUQFOY_clean_sbu_1, # of connection points: 4
#     Node 4, Type 0, BuildingBlock: QUQFOY_clean_sbu_1, # of connection points: 4
#     Node 5, Type 0, BuildingBlock: QUQFOY_clean_sbu_1, # of connection points: 4
#     Node 6, Type 0, BuildingBlock: QUQFOY_clean_sbu_1, # of connection points: 4
#     Node 7, Type 0, BuildingBlock: QUQFOY_clean_sbu_1, # of connection points: 4
#     Node 8, Type 0, BuildingBlock: QUQFOY_clean_sbu_1, # of connection points: 4
#     Node 9, Type 0, BuildingBlock: QUQFOY_clean_sbu_1, # of connection points: 4
#     Node 10, Type 0, BuildingBlock: QUQFOY_clean_sbu_1, # of connection points: 4
#     Node 11, Type 0, BuildingBlock: QUQFOY_clean_sbu_1, # of connection points: 4
#     Edge 12, Type (0, 0), BuildingBlock: UVAHIK_clean_linker_0, # of connection points: 2
#     Edge 13, Type (0, 0), BuildingBlock: UVAHIK_clean_linker_0, # of connection points: 2
#     Edge 14, Type (0, 0), BuildingBlock: UVAHIK_clean_linker_0, # of connection points: 2
#     Edge 15, Type (0, 0), BuildingBlock: UVAHIK_clean_linker_0, # of connection points: 2
#     Edge 16, Type (0, 0), BuildingBlock: UVAHIK_clean_linker_0, # of connection points: 2
#     Edge 17, Type (0, 0), BuildingBlock: UVAHIK_clean_linker_0, # of connection points: 2
#     Edge 18, Type (0, 0), BuildingBlock: UVAHIK_clean_linker_0, # of connection points: 2
#     Edge 19, Type (0, 0), BuildingBlock: UVAHIK_clean_linker_0, # of connection points: 2
#     Edge 20, Type (0, 0), BuildingBlock: UVAHIK_clean_linker_0, # of connection points: 2
#     Edge 21, Type (0, 0), BuildingBlock: UVAHIK_clean_linker_0, # of connection points: 2
#     Edge 22, Type (0, 0), BuildingBlock: UVAHIK_clean_linker_0, # of connection points: 2
#     Edge 23, Type (0, 0), BuildingBlock: UVAHIK_clean_linker_0, # of connection points: 2
#     Edge 24, Type (0, 0), BuildingBlock: UVAHIK_clean_linker_0, # of connection points: 2
#     Edge 25, Type (0, 0), BuildingBlock: UVAHIK_clean_linker_0, # of connection points: 2
#     Edge 26, Type (0, 0), BuildingBlock: UVAHIK_clean_linker_0, # of connection points: 2
#     Edge 27, Type (0, 0), BuildingBlock: UVAHIK_clean_linker_0, # of connection points: 2
#     Edge 28, Type (0, 0), BuildingBlock: UVAHIK_clean_linker_0, # of connection points: 2
#     Edge 29, Type (0, 0), BuildingBlock: UVAHIK_clean_linker_0, # of connection points: 2
#     Edge 30, Type (0, 0), BuildingBlock: UVAHIK_clean_linker_0, # of connection points: 2
#     Edge 31, Type (0, 0), BuildingBlock: UVAHIK_clean_linker_0, # of connection points: 2
#     Edge 32, Type (0, 0), BuildingBlock: UVAHIK_clean_linker_0, # of connection points: 2
#     Edge 33, Type (0, 0), BuildingBlock: UVAHIK_clean_linker_0, # of connection points: 2
#     Edge 34, Type (0, 0), BuildingBlock: UVAHIK_clean_linker_0, # of connection points: 2
#     Edge 35, Type (0, 0), BuildingBlock: UVAHIK_clean_linker_0, # of connection points: 2
# Relax obj value: 0.195
# Max RMSD: 0.263
# Mean RMSD: 0.230
data_MOF--net-sod--node1-QUQFOY_clean_sbu_1--edge1-UVAHIK_clean_linker_0
_symmetry_space_group_name_H-M    P1
_symmetry_Int_Tables_number       1
_symmetry_cell_setting            triclinic
loop_
_symmetry_equiv_pos_as_xyz
'x, y, z'
_cell_length_a     56.682292
_cell_length_b     56.648662
_cell_length_c     56.54547
_cell_angle_alpha  93.433647
_cell_angle_beta   89.533123
_cell_angle_gamma 96.813987
loop_
_atom_site_label
_atom_site_type_symbol
_atom_site_fract_x
_atom_site_fract_y
_atom_site_fract_z
_atom_type_partial_charge
O0 O 0.03202 0.23539 0.52758 0.0
Cd1 Cd 0.05867 0.26264 0.52168 0.0
Cd2 Cd 0.02825 0.28985 0.54718 0.0
O3 O 0.01011 0.25664 0.5509 0.0
O4 O 0.08594 0.24678 0.50923 0.0
O5 O 0.0869 0.26779 0.54361 0.0
C6 C 0.09745 0.25503 0.52808 0.0
C7 C 0.02866 0.31669 0.58028 0.0
C8 C 0.01399 0.23679 0.54088 0.0
C9 C 0.03925 0.30107 0.49644 0.0
O10 O 0.027 0.30477 0.5149 0.0
O11 O 0.05378 0.28565 0.49589 0.0
O12 O 0.00989 0.31087 0.5676 0.0
O13 O 0.04753 0.30703 0.5743 0.0
O14 O 0.7474 0.03161 0.5605 0.0
Cd15 Cd 0.76846 0.03429 0.53063 0.0
Cd16 Cd 0.79348 0.00234 0.55574 0.0
O17 O 0.76492 0.00463 0.5781 0.0
O18 O 0.75105 0.05334 0.50971 0.0
O19 O 0.75679 0.01599 0.50042 0.0
C20 C 0.74799 0.03499 0.49502 0.0
C21 C 0.80585 0.96463 0.54976 0.0
C22 C 0.74849 0.01797 0.57739 0.0
C23 C 0.81997 0.04953 0.5439 0.0
O24 O 0.82006 0.03057 0.55479 0.0
O25 O 0.80156 0.05358 0.53289 0.0
O26 O 0.80932 0.97695 0.56955 0.0
O27 O 0.79514 0.97371 0.53304 0.0
O28 O 0.03315 0.81189 0.5023 0.0
Cd29 Cd 0.005 0.78502 0.50224 0.0
Cd30 Cd 0.03636 0.7637 0.52925 0.0
O31 O 0.05652 0.79588 0.52617 0.0
O32 O 0.97786 0.79952 0.4896 0.0
O33 O 0.97896 0.78789 0.5262 0.0
C34 C 0.96789 0.79745 0.51005 0.0
C35 C 0.03374 0.74843 0.56663 0.0
C36 C 0.05237 0.813 0.51395 0.0
C37 C 0.01954 0.73791 0.48359 0.0
O38 O 0.03392 0.73911 0.50084 0.0
O39 O 0.00593 0.75394 0.48149 0.0
O40 O 0.0529 0.74871 0.55419 0.0
O41 O 0.01584 0.75707 0.55787 0.0
O42 O 0.23167 0.02694 0.55899 0.0
Cd43 Cd 0.25886 0.05311 0.56881 0.0
Cd44 Cd 0.28486 0.02996 0.53657 0.0
O45 O 0.25217 0.0106 0.53048 0.0
O46 O 0.24429 0.08088 0.5828 0.0
O47 O 0.2648 0.0815 0.54923 0.0
C48 C 0.25255 0.09237 0.5649 0.0
C49 C 0.30757 0.03875 0.50297 0.0
C50 C 0.23288 0.01156 0.54187 0.0
C51 C 0.30082 0.03311 0.58749 0.0
O52 O 0.30373 0.02465 0.56649 0.0
O53 O 0.28408 0.04566 0.59224 0.0
O54 O 0.30409 0.01751 0.51023 0.0
O55 O 0.2981 0.05537 0.51489 0.0
O56 O 0.5041 0.02054 0.25052 0.0
Cd57 Cd 0.50116 0.05192 0.27005 0.0
Cd58 Cd 0.5284 0.02932 0.30377 0.0
O59 O 0.52598 0.00412 0.27561 0.0
O60 O 0.48738 0.07227 0.24766 0.0
O61 O 0.52312 0.08144 0.26341 0.0
C62 C 0.50664 0.08679 0.24973 0.0
C63 C 0.56445 0.033 0.32426 0.0
C64 C 0.51537 0.00352 0.25584 0.0
C65 C 0.48063 0.04489 0.31889 0.0
O66 O 0.49898 0.03543 0.32421 0.0
O67 O 0.47826 0.05219 0.29835 0.0
O68 O 0.5597 0.0495 0.31086 0.0
O69 O 0.54873 0.01484 0.32602 0.0
O70 O 0.9896 0.51819 0.31718 0.0
Cd71 Cd 0.98894 0.4872 0.29619 0.0
Cd72 Cd 0.02583 0.51074 0.27343 0.0
O73 O 0.02403 0.53353 0.30307 0.0
O74 O 0.97546 0.46083 0.31543 0.0
O75 O 0.01271 0.46495 0.30247 0.0
C76 C 0.99614 0.45339 0.31453 0.0
C77 C 0.06395 0.5092 0.25785 0.0
C78 C 0.00712 0.53439 0.31785 0.0
C79 C 0.97935 0.49626 0.24683 0.0
O80 O -0.00019 0.50821 0.24763 0.0
O81 O 0.97146 0.48495 0.26449 0.0
O82 O 0.05293 0.52765 0.25659 0.0
O83 O 0.0534 0.49129 0.26842 0.0
O84 O 0.50709 0.02704 0.82818 0.0
Cd85 Cd 0.50099 -0.00206 0.80437 0.0
Cd86 Cd 0.53092 0.02523 0.77653 0.0
O87 O 0.53465 0.04694 0.80704 0.0
O88 O 0.4882 0.97115 0.82343 0.0
O89 O 0.52266 0.97234 0.80452 0.0
C90 C 0.50714 0.96139 0.81817 0.0
C91 C 0.56493 0.02234 0.75356 0.0
C92 C 0.52251 0.04496 0.82593 0.0
C93 C 0.48033 0.0116 0.75985 0.0
O94 O 0.50023 0.02395 0.75699 0.0
O95 O 0.47692 -0.0012 0.77751 0.0
O96 O 0.55457 0.0414 0.75508 0.0
O97 O 0.55624 0.00473 0.76569 0.0
O98 O 0.00551 0.52108 0.75439 0.0
Cd99 Cd 0.00303 0.55334 0.77245 0.0
Cd100 Cd 0.02771 0.53098 0.80839 0.0
O101 O 0.02617 0.5051 0.78089 0.0
O102 O 0.99042 0.57296 0.74862 0.0
O103 O 0.0259 0.58197 0.76496 0.0
C104 C 0.00995 0.58707 0.75052 0.0
C105 C 0.06271 0.53481 0.83061 0.0
C106 C 0.01621 0.50404 0.76074 0.0
C107 C 0.98001 0.54828 0.82055 0.0
O108 O -0.00254 0.53804 0.82705 0.0
O109 O 0.97919 0.55546 0.79977 0.0
O110 O 0.05885 0.55102 0.81648 0.0
O111 O 0.0467 0.51685 0.83211 0.0
O112 O 0.31778 0.5323 0.0594 0.0
Cd113 Cd 0.29149 0.50378 0.06019 0.0
Cd114 Cd 0.26422 0.53674 0.0417 0.0
O115 O 0.29686 0.55693 0.04228 0.0
O116 O 0.30876 0.47703 0.0687 0.0
O117 O 0.29047 0.4775 0.03437 0.0
C118 C 0.303 0.46672 0.04831 0.0
C119 C 0.24159 0.53723 0.00748 0.0
C120 C 0.31636 0.55224 0.05069 0.0
C121 C 0.24899 0.51691 0.08833 0.0
O122 O 0.24597 0.5319 0.0731 0.0
O123 O 0.26553 0.5037 0.08583 0.0
O124 O 0.24437 0.55523 0.02265 0.0
O125 O 0.25167 0.51864 0.01177 0.0
O126 O 0.53131 0.32099 0.00668 0.0
Cd127 Cd 0.50427 0.29333 0.00398 0.0
Cd128 Cd 0.5311 0.27466 0.03859 0.0
O129 O 0.54885 0.30857 0.03755 0.0
O130 O 0.47824 0.30571 0.98697 0.0
O131 O 0.47523 0.29552 0.02418 0.0
C132 C 0.46585 0.30384 0.00613 0.0
C133 C 0.52733 0.25885 0.07582 0.0
C134 C 0.54709 0.32427 0.02273 0.0
C135 C 0.52316 0.24709 0.99114 0.0
O136 O 0.53385 0.24945 0.01097 0.0
O137 O 0.50988 0.26234 0.98538 0.0
O138 O 0.54744 0.2616 0.06499 0.0
O139 O 0.5091 0.26549 0.06563 0.0
O140 O 0.73428 0.53365 0.0638 0.0
Cd141 Cd 0.76277 0.5597 0.06854 0.0
Cd142 Cd 0.78088 0.53673 0.03094 0.0
O143 O 0.7464 0.52047 0.02885 0.0
O144 O 0.75142 0.58734 0.08652 0.0
O145 O 0.76399 0.58831 0.04929 0.0
C146 C 0.75535 0.59899 0.06768 0.0
C147 C 0.79998 0.54691 0.99571 0.0
C148 C 0.73066 0.52038 0.04496 0.0
C149 C 0.80602 0.53687 0.07751 0.0
O150 O 0.80333 0.5275 0.05659 0.0
O151 O 0.79235 0.55168 0.08548 0.0
O152 O 0.79514 0.52506 0.00097 0.0
O153 O 0.79342 0.56329 0.01033 0.0
O154 O 0.52971 0.73499 0.02404 0.0
Cd155 Cd 0.55711 0.76126 0.01753 0.0
Cd156 Cd 0.52738 0.79047 0.04015 0.0
O157 O 0.50787 0.75817 0.04521 0.0
O158 O 0.58502 0.74446 0.00916 0.0
O159 O 0.58361 0.76867 0.04126 0.0
C160 C 0.59515 0.75451 0.02811 0.0
C161 C 0.52827 0.81876 0.07206 0.0
C162 C 0.5114 0.73767 0.03658 0.0
C163 C 0.5402 0.79844 0.98894 0.0
O164 O 0.5278 0.80367 0.00689 0.0
O165 O 0.554 0.78243 0.9897 0.0
O166 O 0.5097 0.81336 0.059 0.0
O167 O 0.54668 0.80798 0.06707 0.0
C168 C 0.01572 0.32595 0.47287 0.0
C169 C 0.03606 0.31432 0.4752 0.0
C170 C 0.01226 0.33788 0.45253 0.0
C171 C 0.04342 0.36911 0.40544 0.0
H172 H 0.9823 0.35899 0.37378 0.0
C173 C 0.02323 0.4246 0.32733 0.0
C174 C 0.00091 0.43307 0.32822 0.0
C175 C 0.02821 0.40685 0.34209 0.0
C176 C -0.00057 0.36215 0.38249 0.0
H177 H 0.06889 0.30634 0.4582 0.0
H178 H 0.06303 0.32781 0.4228 0.0
H179 H 0.98984 0.33475 0.4065 0.0
H180 H 0.96607 0.42908 0.34472 0.0
H181 H 0.97486 0.39881 0.37071 0.0
H182 H 0.05269 0.39729 0.38235 0.0
C183 C 0.04972 0.3274 0.43668 0.0
C184 C 0.00373 0.34821 0.40115 0.0
C185 C 0.05301 0.3151 0.45688 0.0
C186 C 0.98344 0.42292 0.34354 0.0
C187 C 0.98845 0.40537 0.35836 0.0
C188 C 0.03902 0.38329 0.38696 0.0
C189 C 0.02923 0.33873 0.43428 0.0
C190 C 0.02559 0.35188 0.41307 0.0
C191 C 0.01099 0.39734 0.35809 0.0
C192 C 0.01677 0.38033 0.3756 0.0
H193 H 0.0023 0.3256 0.48663 0.0
H194 H 0.99644 0.34673 0.4512 0.0
H195 H 0.06039 0.37234 0.41446 0.0
H196 H 0.03701 0.43199 0.3156 0.0
H197 H 0.04563 0.40082 0.34117 0.0
C198 C 0.72391 0.01469 0.46101 0.0
C199 C 0.734 0.03574 0.47319 0.0
C200 C 0.7087 0.01565 0.4418 0.0
C201 C 0.66991 0.05627 0.41681 0.0
H202 H 0.66378 0.0082 0.36476 0.0
C203 C 0.60153 0.05638 0.34126 0.0
C204 C 0.58703 0.0346 0.33749 0.0
C205 C 0.62207 0.05779 0.35514 0.0
C206 C 0.66537 0.02177 0.37918 0.0
H207 H 0.73726 0.07431 0.474 0.0
H208 H 0.71154 0.07603 0.44009 0.0
H209 H 0.6955 0.00837 0.39376 0.0
H210 H 0.58312 0.99708 0.34448 0.0
H211 H 0.61896 -0.00047 0.36835 0.0
H212 H 0.63971 0.06956 0.40218 0.0
C213 C 0.7146 0.05873 0.44577 0.0
C214 C 0.68344 0.02181 0.39588 0.0
C215 C 0.72949 0.05775 0.46514 0.0
C216 C 0.59386 0.01416 0.34716 0.0
C217 C 0.61449 0.0155 0.36068 0.0
C218 C 0.65204 0.05638 0.39997 0.0
C219 C 0.70353 0.0377 0.43418 0.0
C220 C 0.68568 0.03879 0.41518 0.0
C221 C 0.62864 0.03736 0.3651 0.0
C222 C 0.64931 0.03887 0.38125 0.0
H223 H 0.727 -0.00253 0.46688 0.0
H224 H 0.70032 -0.00094 0.43354 0.0
H225 H 0.67074 0.06938 0.4316 0.0
H226 H 0.5967 0.07242 0.33402 0.0
H227 H 0.63274 0.07486 0.35821 0.0
C228 C 0.98697 0.56191 0.34536 0.0
C229 C 0.00796 0.55453 0.33569 0.0
C230 C 0.9879 0.58178 0.36137 0.0
C231 C 0.02895 0.63502 0.38285 0.0
H232 H 0.98239 0.63825 0.43321 0.0
C233 C 0.03757 0.70415 0.46289 0.0
C234 C 0.0182 0.71737 0.46614 0.0
C235 C 0.03615 0.68448 0.44664 0.0
C236 C 0.99541 0.63754 0.41913 0.0
H237 H 0.04639 0.56144 0.33582 0.0
H238 H 0.04816 0.59521 0.36459 0.0
H239 H 0.98044 0.60285 0.40616 0.0
H240 H 0.98212 0.72027 0.45519 0.0
H241 H 0.97948 0.68536 0.42721 0.0
H242 H 0.04439 0.66942 0.39664 0.0
C243 C 0.03088 0.58645 0.35915 0.0
C244 C 0.99426 0.61736 0.40352 0.0
C245 C 0.02991 0.56694 0.34278 0.0
C246 C -0.00264 0.71047 0.45294 0.0
C247 C 0.99577 0.69049 0.43707 0.0
C248 C 0.03037 0.65494 0.39875 0.0
C249 C 0.00989 0.59438 0.36843 0.0
C250 C 0.01101 0.61583 0.38514 0.0
C251 C 0.01518 0.67741 0.43377 0.0
C252 C 0.01358 0.65637 0.41695 0.0
H253 H 0.9698 0.55274 0.34005 0.0
H254 H 0.97134 0.58751 0.36779 0.0
H255 H 0.04183 0.63484 0.36862 0.0
H256 H 0.05387 0.7091 0.47279 0.0
H257 H 0.0513 0.67455 0.44438 0.0
C258 C 0.3333 0.0666 0.47794 0.0
C259 C 0.32238 0.04356 0.48182 0.0
C260 C 0.3489 0.07038 0.45883 0.0
C261 C 0.39403 0.0661 0.4287 0.0
H262 H 0.37938 0.03556 0.36643 0.0
C263 C 0.46564 0.04357 0.36071 0.0
C264 C 0.46188 0.04778 0.33686 0.0
C265 C 0.44794 0.04644 0.37763 0.0
C266 C 0.38366 0.04443 0.38363 0.0
H267 H 0.31835 0.00666 0.46827 0.0
H268 H 0.34514 0.01333 0.43488 0.0
H269 H 0.34846 0.03506 0.39681 0.0
H270 H 0.43658 0.05848 0.31215 0.0
H271 H 0.40563 0.06317 0.3417 0.0
H272 H 0.42944 0.07484 0.41571 0.0
C273 C 0.34181 0.02843 0.44658 0.0
C274 C 0.36601 0.04403 0.40102 0.0
C275 C 0.3266 0.0246 0.4658 0.0
C276 C 0.44006 0.05503 0.33035 0.0
C277 C 0.42229 0.05767 0.34724 0.0
C278 C 0.41176 0.06628 0.41136 0.0
C279 C 0.3534 0.05126 0.44309 0.0
C280 C 0.37115 0.05448 0.42384 0.0
C281 C 0.42604 0.05337 0.37104 0.0
C282 C 0.40684 0.05508 0.38879 0.0
H283 H 0.33037 0.08152 0.49006 0.0
H284 H 0.35759 0.08817 0.45646 0.0
H285 H 0.39849 0.07414 0.4462 0.0
H286 H 0.48226 0.03806 0.36634 0.0
H287 H 0.45121 0.04271 0.39581 0.0
C288 C 0.03653 0.62055 0.73354 0.0
C289 C 0.01377 0.60816 0.73619 0.0
C290 C 0.04007 0.63946 0.71857 0.0
C291 C 0.00905 0.68248 0.68764 0.0
H292 H 0.05851 0.67822 0.6404 0.0
C293 C 0.01031 0.73027 0.60015 0.0
C294 C 0.03235 0.7376 0.58979 0.0
C295 C 0.00918 0.71775 0.6208 0.0
C296 C 0.04492 0.68007 0.65372 0.0
H297 H 0.97674 0.60647 0.72602 0.0
H298 H 0.98292 0.63944 0.70011 0.0
H299 H 0.05492 0.65085 0.67209 0.0
H300 H 0.07053 0.73894 0.59368 0.0
H301 H 0.06862 0.71786 0.62999 0.0
H302 H -0.00112 0.71158 0.66918 0.0
C303 C -0.00199 0.6346 0.70956 0.0
C304 C 0.04287 0.66431 0.67188 0.0
C305 C 0.99453 0.61558 0.72426 0.0
C306 C 0.05325 0.73322 0.60108 0.0
C307 C 0.05214 0.721 0.62184 0.0
C308 C 0.01123 0.69842 0.66958 0.0
C309 C 0.02086 0.6465 0.70626 0.0
C310 C 0.02465 0.66506 0.68876 0.0
C311 C 0.0301 0.71256 0.63165 0.0
C312 C 0.02894 0.69713 0.65213 0.0
H313 H 0.05169 0.61525 0.74254 0.0
H314 H 0.05786 0.64843 0.71642 0.0
H315 H 0.99498 0.6836 0.7006 0.0
H316 H 0.99391 0.73336 0.5918 0.0
H317 H 0.99187 0.71132 0.62767 0.0
C318 C 0.46361 0.02913 0.72504 0.0
C319 C 0.46103 0.01246 0.7426 0.0
C320 C 0.44533 0.03039 0.70898 0.0
C321 C 0.39304 0.99607 0.68121 0.0
H322 H 0.37567 0.0583 0.66848 0.0
C323 C 0.33478 0.01333 0.60197 0.0
C324 C 0.31743 0.02886 0.60638 0.0
C325 C 0.35111 0.01012 0.61952 0.0
C326 C 0.38019 0.04079 0.67199 0.0
H327 H 0.43734 0.98378 0.75683 0.0
H328 H 0.40539 0.98594 0.72854 0.0
H329 H 0.4066 0.05507 0.69745 0.0
H330 H 0.30335 0.05282 0.63284 0.0
H331 H 0.33195 0.04726 0.66339 0.0
H332 H 0.36666 0.98183 0.65558 0.0
C333 C 0.42162 -0.002 0.7273 0.0
C334 C 0.39804 0.03897 0.68839 0.0
C335 C 0.43985 0.99686 0.74355 0.0
C336 C 0.31652 0.04078 0.62884 0.0
C337 C 0.33295 0.0377 0.64631 0.0
C338 C 0.3753 -0.00209 0.66462 0.0
C339 C 0.42414 0.0149 0.70999 0.0
C340 C 0.40471 0.01661 0.69308 0.0
C341 C 0.35052 0.0225 0.64176 0.0
C342 C 0.36877 0.02031 0.65982 0.0
H343 H 0.4797 0.04138 0.72378 0.0
H344 H 0.44785 0.04339 0.69561 0.0
H345 H 0.39796 0.97863 0.6844 0.0
H346 H 0.33594 0.00383 0.58488 0.0
H347 H 0.3646 -0.00155 0.61547 0.0
C348 C 0.04708 0.33818 0.61707 0.0
C349 C 0.02829 0.33418 0.60072 0.0
C350 C 0.04625 0.35481 0.63635 0.0
C351 C 0.00387 0.38926 0.67064 0.0
H352 H 0.06072 0.43071 0.68983 0.0
C353 C 0.00202 0.47837 0.72487 0.0
C354 C 0.01753 0.48291 0.7443 0.0
C355 C 0.00354 0.45867 0.70911 0.0
C356 C 0.04477 0.41906 0.6848 0.0
H357 H 0.9941 0.34473 0.59155 0.0
H358 H 0.993 0.37399 0.62443 0.0
H359 H 0.06326 0.39906 0.65894 0.0
H360 H 0.04689 0.47037 0.76236 0.0
H361 H 0.04979 0.43614 0.73444 0.0
H362 H 0.98528 0.40994 0.69588 0.0
C363 C 0.00807 0.3639 0.62297 0.0
C364 C 0.04621 0.40087 0.66718 0.0
C365 C 0.00879 0.3472 0.60394 0.0
C366 C 0.03462 0.46731 0.74761 0.0
C367 C 0.03638 0.4478 0.7316 0.0
C368 C 0.0024 0.40761 0.68799 0.0
C369 C 0.02669 0.36787 0.63952 0.0
C370 C 0.02569 0.38597 0.65961 0.0
C371 C 0.02083 0.4433 0.71223 0.0
C372 C 0.02276 0.42287 0.69501 0.0
H373 H 0.06231 0.32835 0.61509 0.0
H374 H 0.06081 0.35724 0.64886 0.0
H375 H 0.9878 0.37776 0.66573 0.0
H376 H 0.98864 0.49002 0.72186 0.0
H377 H 0.99146 0.45569 0.69419 0.0
C378 C 0.59228 0.03941 0.72266 0.0
C379 C 0.58537 0.0207 0.73742 0.0
C380 C 0.61036 0.0376 0.70609 0.0
C381 C 0.66275 0.00856 0.69074 0.0
H382 H 0.64893 0.02467 0.62699 0.0
C383 C 0.72855 -0.00052 0.61266 0.0
C384 C 0.73028 0.01736 0.5963 0.0
C385 C 0.71099 -0.00139 0.63018 0.0
C386 C 0.65322 0.0204 0.64474 0.0
H387 H 0.59257 0.98573 0.74692 0.0
H388 H 0.62466 0.98271 0.71787 0.0
H389 H 0.61843 0.02542 0.65745 0.0
H390 H 0.71526 0.04864 0.58585 0.0
H391 H 0.6851 0.0475 0.61672 0.0
H392 H 0.69779 0.00417 0.67819 0.0
C393 C 0.61584 -0.00131 0.71921 0.0
C394 C 0.63569 0.02071 0.66215 0.0
C395 C 0.59749 0.0004 0.73574 0.0
C396 C 0.71429 0.03452 0.59804 0.0
C397 C 0.69688 0.03376 0.61566 0.0
C398 C 0.68043 0.00847 0.67333 0.0
C399 C 0.62211 0.01713 0.70396 0.0
C400 C 0.64037 0.0151 0.68536 0.0
C401 C 0.69488 0.01569 0.63183 0.0
C402 C 0.67594 0.01469 0.65019 0.0
H403 H 0.58341 0.05535 0.72354 0.0
H404 H 0.61511 0.05223 0.69479 0.0
H405 H 0.66681 0.00429 0.70857 0.0
H406 H 0.74054 0.98592 0.61174 0.0
H407 H 0.70979 0.9843 0.64216 0.0
C408 C 0.4313 0.31859 0.98699 0.0
C409 C 0.44226 0.31248 0.00759 0.0
C410 C 0.41052 0.32959 0.98848 0.0
C411 C 0.36268 0.3462 0.02976 0.0
H412 H 0.36558 0.40162 0.99228 0.0
C413 C 0.32091 0.43051 0.05829 0.0
C414 C 0.31147 0.44368 0.04115 0.0
C415 C 0.33136 0.41005 0.05163 0.0
C416 C 0.36414 0.38593 0.00249 0.0
H417 H 0.4394 0.31194 0.04581 0.0
H418 H 0.40348 0.33169 0.04851 0.0
H419 H 0.39437 0.37344 0.98536 0.0
H420 H 0.3045 0.44514 0.00366 0.0
H421 H 0.32313 0.40933 0.99191 0.0
H422 H 0.33312 0.35955 0.0477 0.0
C423 C 0.41066 0.32766 0.03113 0.0
C424 C 0.38068 0.36972 -0.00146 0.0
C425 C 0.43136 0.31645 0.02962 0.0
C426 C 0.31171 0.43537 0.01724 0.0
C427 C 0.32242 0.41495 0.01053 0.0
C428 C 0.3462 0.3625 0.03379 0.0
C429 C 0.40035 0.33493 0.01062 0.0
C430 C 0.38057 0.35001 0.01256 0.0
C431 C 0.33276 0.40237 0.02764 0.0
C432 C 0.3472 0.38289 0.02065 0.0
H433 H 0.43912 0.31548 0.96971 0.0
H434 H 0.40278 0.3345 0.97229 0.0
H435 H 0.36181 0.33096 0.04055 0.0
H436 H 0.32085 0.43637 0.07688 0.0
H437 H 0.3394 0.40094 0.06522 0.0
C438 C 0.33663 0.59123 0.03837 0.0
C439 C 0.33751 0.57026 0.05025 0.0
C440 C 0.35636 0.60844 0.03805 0.0
C441 C 0.42141 0.61795 0.04695 0.0
H442 H 0.41037 0.6843 0.05251 0.0
C443 C 0.47566 0.71912 0.05774 0.0
C444 C 0.49358 0.71704 0.04068 0.0
C445 C 0.45784 0.70032 0.06067 0.0
C446 C 0.41386 0.66588 0.05124 0.0
H447 H 0.35992 0.5509 0.07105 0.0
H448 H 0.39431 0.58125 0.07083 0.0
H449 H 0.37701 0.65341 0.05466 0.0
H450 H 0.50722 0.69331 0.01377 0.0
H451 H 0.47573 0.66062 0.01848 0.0
H452 H 0.45841 0.63056 0.04401 0.0
C453 C 0.37842 0.58417 0.06147 0.0
C454 C 0.39465 0.64814 0.05212 0.0
C455 C 0.35867 0.56684 0.0617 0.0
C456 C 0.49367 0.69546 0.02708 0.0
C457 C 0.47568 0.67668 0.02988 0.0
C458 C 0.4407 0.63575 0.04616 0.0
C459 C 0.37743 0.60523 0.04974 0.0
C460 C 0.39814 0.62396 0.04974 0.0
C461 C 0.45734 0.67904 0.04646 0.0
C462 C 0.43712 0.65994 0.04816 0.0
H463 H 0.3207 0.59437 0.02919 0.0
H464 H 0.35513 0.62422 0.02844 0.0
H465 H 0.42469 0.59949 0.04489 0.0
H466 H 0.47524 0.7354 0.06874 0.0
H467 H 0.44431 0.70256 0.07398 0.0
C468 C 0.57539 0.35407 0.04571 0.0
C469 C 0.56353 0.34656 0.02435 0.0
C470 C 0.59113 0.37501 0.0473 0.0
C471 C 0.63209 0.41215 0.01252 0.0
H472 H 0.62829 0.46073 0.06327 0.0
C473 C 0.70066 0.49541 0.01928 0.0
C474 C 0.70857 0.50388 0.04202 0.0
C475 C 0.68081 0.47839 0.0164 0.0
C476 C 0.62981 0.44723 0.04915 0.0
H477 H 0.5588 0.35506 0.98793 0.0
H478 H 0.58696 0.39142 0.99058 0.0
H479 H 0.59783 0.42641 0.05983 0.0
H480 H 0.70172 0.50159 0.07961 0.0
H481 H 0.66776 0.47111 0.07474 0.0
H482 H 0.66458 0.43196 0.00243 0.0
C483 C 0.58378 0.38116 0.00609 0.0
C484 C 0.61227 0.42768 0.04713 0.0
C485 C 0.56767 0.36044 0.00462 0.0
C486 C 0.69592 0.49546 0.06186 0.0
C487 C 0.67634 0.47806 0.05901 0.0
C488 C 0.64986 0.43143 0.01476 0.0
C489 C 0.59562 0.38859 0.02745 0.0
C490 C 0.61336 0.40995 0.02887 0.0
C491 C 0.66872 0.46904 0.03623 0.0
C492 C 0.64905 0.44919 0.03319 0.0
H493 H 0.57247 0.34381 0.06125 0.0
H494 H 0.60022 0.38031 0.0639 0.0
H495 H 0.63344 0.39851 -0.00154 0.0
H496 H 0.70991 0.50183 0.00365 0.0
H497 H 0.67514 0.47241 -0.00142 0.0
C498 C 0.74589 0.63325 0.04501 0.0
C499 C 0.74848 0.62327 0.06682 0.0
C500 C 0.73585 0.65454 0.04402 0.0
C501 C 0.69389 0.68772 0.07821 0.0
H502 H 0.70496 0.73058 0.02728 0.0
C503 C 0.62681 0.75229 0.05837 0.0
C504 C 0.61886 0.74884 0.03481 0.0
C505 C 0.64779 0.74368 0.06503 0.0
C506 C 0.70182 0.71889 0.04175 0.0
H507 H 0.74456 0.62872 0.10488 0.0
H508 H 0.72765 0.66616 0.10323 0.0
H509 H 0.73361 0.7028 0.03442 0.0
H510 H 0.62742 0.73536 -0.00055 0.0
H511 H 0.66389 0.72052 0.01101 0.0
H512 H 0.66172 0.70319 0.08499 0.0
C513 C 0.73266 0.65723 0.0868 0.0
C514 C 0.71814 0.70291 0.04577 0.0
C515 C 0.74244 0.63582 0.08776 0.0
C516 C 0.633 0.73809 0.01779 0.0
C517 C 0.65404 0.7298 0.02437 0.0
C518 C 0.6777 0.70381 0.0743 0.0
C519 C 0.72843 0.66641 0.06487 0.0
C520 C 0.71388 0.68649 0.06346 0.0
C521 C 0.66129 0.73184 0.04816 0.0
C522 C 0.68103 0.71891 0.05546 0.0
H523 H 0.7504 0.62399 0.02858 0.0
H524 H 0.73265 0.66088 0.02678 0.0
H525 H 0.6898 0.67519 0.09181 0.0
H526 H 0.61627 0.76057 0.07183 0.0
H527 H 0.65305 0.74558 0.08349 0.0
C528 C 0.51833 0.82281 0.96327 0.0
C529 C 0.53818 0.81082 0.96693 0.0
C530 C 0.5162 0.83448 0.9425 0.0
C531 C 0.55059 0.86555 0.89767 0.0
H532 H 0.49054 0.85912 0.86414 0.0
C533 C 0.53301 0.92958 0.82584 0.0
C534 C 0.51121 0.93894 0.82864 0.0
C535 C 0.53739 0.90969 0.83795 0.0
C536 C 0.50743 0.86114 0.8733 0.0
H537 H 0.57143 0.8017 0.95174 0.0
H538 H 0.56794 0.82281 0.91555 0.0
H539 H 0.49632 0.83234 0.89526 0.0
H540 H 0.47655 0.93416 0.84544 0.0
H541 H 0.48425 0.90005 0.86669 0.0
H542 H 0.56125 0.89527 0.87682 0.0
C543 C 0.55396 0.82283 0.92873 0.0
C544 C 0.51073 0.84577 0.89103 0.0
C545 C 0.55591 0.81076 0.94937 0.0
C546 C 0.49357 0.92745 0.84292 0.0
C547 C 0.49792 0.90768 0.85497 0.0
C548 C 0.5472 0.88114 0.88009 0.0
C549 C 0.53403 0.83471 0.92511 0.0
C550 C 0.53206 0.84832 0.90386 0.0
C551 C 0.52002 0.89879 0.853 0.0
C552 C 0.52527 0.87962 0.86827 0.0
H553 H 0.50433 0.82309 0.9764 0.0
H554 H 0.50081 0.84378 0.94027 0.0
H555 H 0.56717 0.86791 0.9074 0.0
H556 H 0.54693 0.93801 0.81487 0.0
H557 H 0.55452 0.90312 0.83587 0.0
C558 C 0.22134 0.56 0.97886 0.0
C559 C 0.22696 0.53804 0.98609 0.0
C560 C 0.20656 0.56097 0.9594 0.0
C561 C 0.17853 0.52454 0.90754 0.0
H562 H 0.13297 0.57055 0.91309 0.0
C563 C 0.09117 0.51603 0.85473 0.0
C564 C 0.0846 0.53651 0.84493 0.0
C565 C 0.11109 0.51745 0.8693 0.0
C566 C 0.14582 0.55786 0.91112 0.0
H567 H 0.2218 0.49986 0.9784 0.0
H568 H 0.19523 0.50137 0.94495 0.0
H569 H 0.16269 0.57036 0.94386 0.0
H570 H 0.09395 0.57449 0.84236 0.0
H571 H 0.12866 0.57707 0.86846 0.0
H572 H 0.16068 0.51138 0.87527 0.0
C573 C 0.20273 0.51797 0.95389 0.0
C574 C 0.16294 0.55774 0.92873 0.0
C575 C 0.21784 0.51705 0.97318 0.0
C576 C 0.09862 0.55843 0.84967 0.0
C577 C 0.11839 0.55991 0.86463 0.0
C578 C 0.16119 0.52447 0.89009 0.0
C579 C 0.19668 0.53995 0.94689 0.0
C580 C 0.17939 0.54091 0.92733 0.0
C581 C 0.1247 0.53943 0.87468 0.0
C582 C 0.14451 0.54096 0.89185 0.0
H583 H 0.22834 0.57653 0.98829 0.0
H584 H 0.20281 0.57824 0.95425 0.0
H585 H 0.19117 0.51165 0.90556 0.0
H586 H 0.08079 0.49886 0.85131 0.0
H587 H 0.1154 0.50143 0.87699 0.0
C588 C 0.51059 0.06402 0.86471 0.0
C589 C 0.52581 0.06415 0.84495 0.0
C590 C 0.51272 0.08309 0.88172 0.0
C591 C 0.53449 0.14682 0.88773 0.0
H592 H 0.52487 0.13898 0.95491 0.0
C593 C 0.51458 0.22391 0.95251 0.0
C594 C 0.5257 0.22615 0.97479 0.0
C595 C 0.51636 0.20394 0.93725 0.0
C596 C 0.52783 0.14144 0.93623 0.0
H597 H 0.5559 0.08392 0.82814 0.0
H598 H 0.55975 0.11696 0.85792 0.0
H599 H 0.52553 0.10387 0.9277 0.0
H600 H 0.54753 0.20916 -0.00155 0.0
H601 H 0.55073 0.17425 0.97162 0.0
H602 H 0.53688 0.18432 0.89617 0.0
C603 C 0.54587 0.10235 0.86002 0.0
C604 C 0.52796 0.12135 0.92064 0.0
C605 C 0.54371 0.08335 0.84301 0.0
C606 C 0.53876 0.20799 0.98141 0.0
C607 C 0.54048 0.18793 0.96612 0.0
C608 C 0.53432 0.16686 0.90327 0.0
C609 C 0.53014 0.10264 0.87934 0.0
C610 C 0.53112 0.12383 0.89619 0.0
C611 C 0.52928 0.18571 0.94389 0.0
C612 C 0.53075 0.16439 0.92765 0.0
H613 H 0.49661 0.04948 0.86674 0.0
H614 H 0.50019 0.08288 0.89629 0.0
H615 H 0.53669 0.14935 0.86897 0.0
H616 H 0.50432 0.23752 0.94686 0.0
H617 H 0.50725 0.20258 0.92037 0.0
C618 C 0.96202 0.54684 0.8612 0.0
C619 C 0.96047 0.55217 0.83734 0.0
C620 C 0.94354 0.55058 0.87698 0.0
C621 C 0.90718 0.57205 0.90901 0.0
H622 H 0.84309 0.54776 0.88917 0.0
C623 C 0.82722 0.5751 0.97251 0.0
C624 C 0.81405 0.55265 0.97429 0.0
C625 C 0.84329 0.57907 0.95383 0.0
C626 C 0.86087 0.5548 0.89488 0.0
H627 H 0.93831 0.56582 0.81143 0.0
H628 H 0.90606 0.57217 0.83898 0.0
H629 H 0.87578 0.54668 0.8609 0.0
H630 H 0.80617 0.51729 0.95724 0.0
H631 H 0.83389 0.52428 0.92467 0.0
H632 H 0.89237 0.57935 0.94325 0.0
C633 C 0.92155 0.56504 0.84542 0.0
C634 C 0.87956 0.55431 0.87868 0.0
C635 C 0.94007 0.56144 0.82967 0.0
C636 C 0.81617 0.53475 0.95639 0.0
C637 C 0.83194 0.5388 0.93763 0.0
C638 C 0.88846 0.5727 0.92517 0.0
C639 C 0.92306 0.5596 0.86922 0.0
C640 C 0.90299 0.56241 0.88574 0.0
C641 C 0.84614 0.56077 0.93648 0.0
C642 C 0.86521 0.56354 0.91842 0.0
H643 H 0.97748 0.53972 0.86771 0.0
H644 H 0.94506 0.54593 0.89516 0.0
H645 H 0.92503 0.57869 0.91484 0.0
H646 H 0.82595 0.5892 0.9861 0.0
H647 H 0.85391 0.59623 0.95325 0.0
C648 C 0.49009 0.11542 0.22436 0.0
C649 C 0.50956 0.10865 0.23644 0.0
C650 C 0.49279 0.13532 0.21078 0.0
C651 C 0.53741 0.17056 0.17678 0.0
H652 H 0.48939 0.21378 0.17431 0.0
C653 C 0.54599 0.24436 0.11113 0.0
C654 C 0.52535 0.24721 0.09856 0.0
C655 C 0.54468 0.23101 0.13115 0.0
C656 C 0.50288 0.20179 0.17469 0.0
H657 H 0.54703 0.11781 0.24425 0.0
H658 H 0.55181 0.15262 0.22023 0.0
H659 H 0.4862 0.18374 0.20379 0.0
H660 H 0.48702 0.23918 0.09763 0.0
H661 H 0.48471 0.21528 0.13228 0.0
H662 H 0.55365 0.18781 0.14722 0.0
C663 C 0.53446 0.14241 0.22129 0.0
C664 C 0.50109 0.18464 0.19162 0.0
C665 C 0.53171 0.12255 0.23508 0.0
C666 C 0.50322 0.23731 0.107 0.0
C667 C 0.50192 0.2237 0.12694 0.0
C668 C 0.53913 0.18757 0.15979 0.0
C669 C 0.51506 0.14885 0.20883 0.0
C670 C 0.51816 0.16863 0.1926 0.0
C671 C 0.52271 0.21993 0.13892 0.0
C672 C 0.52172 0.2032 0.15831 0.0
H673 H 0.47275 0.10514 0.22511 0.0
H674 H 0.47757 0.13965 0.20116 0.0
H675 H 0.55064 0.15825 0.17686 0.0
H676 H 0.56329 0.25204 0.10523 0.0
H677 H 0.56098 0.22897 0.14026 0.0
C678 C 0.9722 0.5106 0.20681 0.0
C679 C 0.96428 0.49659 0.22567 0.0
C680 C 0.9572 0.51269 0.18779 0.0
C681 C 0.90164 0.48654 0.15785 0.0
H682 H 0.89709 0.55172 0.14264 0.0
C683 C 0.83893 0.51244 0.08543 0.0
C684 C 0.82538 0.53088 0.09258 0.0
C685 C 0.85736 0.50707 0.09971 0.0
C686 C 0.89821 0.53343 0.14667 0.0
H687 H 0.93482 0.47284 0.23875 0.0
H688 H 0.9086 0.47666 0.20559 0.0
H689 H 0.92705 0.54351 0.17067 0.0
H690 H 0.82057 0.55812 0.12029 0.0
H691 H 0.85271 0.54878 0.14506 0.0
H692 H 0.87225 0.47663 0.13426 0.0
C693 C 0.92645 0.48591 0.20549 0.0
C694 C 0.91551 0.5287 0.16252 0.0
C695 C 0.94143 0.48387 0.22457 0.0
C696 C 0.83065 0.54382 0.11425 0.0
C697 C 0.84916 0.53859 0.12838 0.0
C698 C 0.8844 0.49128 0.14183 0.0
C699 C 0.93402 0.50076 0.18719 0.0
C700 C 0.91715 0.50526 0.16858 0.0
C701 C 0.86272 0.52022 0.12124 0.0
C702 C 0.88225 0.51483 0.13647 0.0
H703 H 0.98977 0.52048 0.20699 0.0
H704 H 0.96359 0.52401 0.17376 0.0
H705 H 0.90265 0.4683 0.16209 0.0
H706 H 0.83529 0.50214 0.06884 0.0
H707 H 0.86763 0.49288 0.09378 0.0
C708 C 0.50929 0.85086 0.09427 0.0
C709 C 0.52808 0.8368 0.09206 0.0
C710 C 0.5085 0.8677 0.11318 0.0
C711 C 0.54565 0.90271 0.15951 0.0
H712 H 0.48413 0.91297 0.18612 0.0
C713 C 0.53345 0.96696 0.24141 0.0
C714 C 0.51666 0.98298 0.23859 0.0
C715 C 0.5352 0.94804 0.22468 0.0
C716 C 0.50141 0.91035 0.1788 0.0
H717 H 0.56086 0.82937 0.10797 0.0
H718 H 0.55924 0.85854 0.14149 0.0
H719 H 0.48682 0.88158 0.15519 0.0
H720 H 0.48829 0.99145 0.2162 0.0
H721 H 0.49115 0.95822 0.18721 0.0
H722 H 0.56015 0.93145 0.18348 0.0
C723 C 0.54529 0.85679 0.12831 0.0
C724 C 0.50299 0.89243 0.16101 0.0
C725 C 0.54619 0.84002 0.10917 0.0
C726 C 0.50143 0.97946 0.21888 0.0
C727 C 0.50298 0.96037 0.20234 0.0
C728 C 0.54409 0.92049 0.17753 0.0
C729 C 0.52634 0.87077 0.13059 0.0
C730 C 0.52506 0.88866 0.15081 0.0
C731 C 0.51997 0.94457 0.205 0.0
C732 C 0.5219 0.92472 0.18706 0.0
H733 H 0.49515 0.849 0.08127 0.0
H734 H 0.49395 0.87851 0.11398 0.0
H735 H 0.56291 0.90049 0.15193 0.0
H736 H 0.54549 0.96921 0.25636 0.0
H737 H 0.54835 0.93602 0.22722 0.0
C738 C 0.21922 0.53296 0.11591 0.0
C739 C 0.23318 0.51479 0.10919 0.0
C740 C 0.20437 0.53099 0.13569 0.0
C741 C 0.17007 0.48785 0.1709 0.0
H742 H 0.16816 0.54152 0.21649 0.0
C743 C 0.09845 0.48765 0.24435 0.0
C744 C 0.08744 0.50862 0.24646 0.0
C745 C 0.11961 0.48702 0.23144 0.0
C746 C 0.16843 0.52638 0.20389 0.0
H747 H 0.2424 0.48019 0.11782 0.0
H748 H 0.21594 0.47657 0.15214 0.0
H749 H 0.1985 0.54319 0.1856 0.0
H750 H 0.09043 0.54562 0.23758 0.0
H751 H 0.12669 0.54444 0.21498 0.0
H752 H 0.13924 0.47152 0.18832 0.0
C753 C 0.21675 0.4924 0.14218 0.0
C754 C 0.18581 0.52735 0.18626 0.0
C755 C 0.2319 0.49454 0.1226 0.0
C756 C 0.09841 0.52913 0.23626 0.0
C757 C 0.1194 0.52852 0.22345 0.0
C758 C 0.15247 0.48698 0.18839 0.0
C759 C 0.20293 0.51066 0.14893 0.0
C760 C 0.18641 0.50836 0.16925 0.0
C761 C 0.1301 0.5074 0.22054 0.0
C762 C 0.15103 0.50654 0.20466 0.0
H763 H 0.21985 0.5488 0.10598 0.0
H764 H 0.19366 0.54519 0.14038 0.0
H765 H 0.17014 0.473 0.15791 0.0
H766 H 0.09043 0.47158 0.25208 0.0
H767 H 0.12754 0.47053 0.22971 0.0
C768 C 0.81922 0.93143 0.52358 0.0
C769 C 0.81497 0.94131 0.54636 0.0
C770 C 0.83085 0.91098 0.52072 0.0
C771 C 0.8729 0.88017 0.55324 0.0
H772 H 0.8634 0.83309 0.50051 0.0
C773 C 0.93604 0.8087 0.53812 0.0
C774 C 0.94512 0.80709 0.51497 0.0
C775 C 0.91607 0.8205 0.54301 0.0
C776 C 0.86621 0.8461 0.51535 0.0
H777 H 0.81775 0.93657 0.58396 0.0
H778 H 0.83731 0.90064 0.57902 0.0
H779 H 0.83529 0.86241 0.50709 0.0
H780 H 0.93955 0.81526 0.47856 0.0
H781 H 0.90497 0.83593 0.48712 0.0
H782 H 0.90406 0.86438 0.56119 0.0
C783 C 0.83247 0.90903 0.56333 0.0
C784 C 0.85017 0.86292 0.51908 0.0
C785 C 0.82115 0.92957 0.56617 0.0
C786 C 0.93309 0.81633 0.49663 0.0
C787 C 0.91312 0.82802 0.50149 0.0
C788 C 0.88882 0.86334 0.54958 0.0
C789 C 0.83819 0.89993 0.54061 0.0
C790 C 0.85358 0.88043 0.53783 0.0
C791 C 0.90476 0.83079 0.52482 0.0
C792 C 0.88594 0.84641 0.53034 0.0
H793 H 0.81463 0.94014 0.50799 0.0
H794 H 0.83512 0.90457 0.50296 0.0
H795 H 0.8764 0.89364 0.56758 0.0
H796 H 0.94484 0.80164 0.5526 0.0
H797 H 0.90984 0.82211 0.56113 0.0
C798 C 0.97835 0.21646 0.56083 0.0
C799 C 0.99668 0.21551 0.54404 0.0
C800 C 0.96076 0.19722 0.56259 0.0
C801 C 0.94469 0.13317 0.54545 0.0
H802 H 0.88047 0.15011 0.55099 0.0
C803 C 0.84143 0.08805 0.53167 0.0
C804 C 0.84136 0.06731 0.54415 0.0
C805 C 0.86123 0.10521 0.53228 0.0
C806 C 0.89828 0.14506 0.5493 0.0
H807 H 0.01143 0.19319 0.51655 0.0
H808 H 0.9804 0.15968 0.51936 0.0
H809 H 0.91377 0.18134 0.55127 0.0
H810 H 0.86229 0.0482 0.56677 0.0
H811 H 0.89688 0.07841 0.56801 0.0
H812 H 0.92894 0.09679 0.54281 0.0
C813 C 0.97981 0.17525 0.53134 0.0
C814 C 0.91741 0.16297 0.54978 0.0
C815 C -0.00247 0.1945 0.52965 0.0
C816 C 0.86174 0.06399 0.55698 0.0
C817 C 0.88161 0.08122 0.55759 0.0
C818 C 0.92548 0.11519 0.54498 0.0
C819 C 0.96097 0.17661 0.54752 0.0
C820 C 0.94084 0.15728 0.54778 0.0
C821 C 0.88146 0.10213 0.54542 0.0
C822 C 0.90205 0.12097 0.54669 0.0
H823 H 0.97732 0.23224 0.57241 0.0
H824 H 0.94678 0.19864 0.57559 0.0
H825 H 0.96255 0.12821 0.54405 0.0
H826 H 0.82612 0.09114 0.52145 0.0
H827 H 0.86072 0.12092 0.52236 0.0
C828 C 0.06496 0.85497 0.50287 0.0
C829 C 0.07001 0.83445 0.51375 0.0
C830 C 0.08158 0.87535 0.50345 0.0
C831 C 0.1455 0.89469 0.51182 0.0
H832 H 0.12595 0.9568 0.52898 0.0
C833 C 0.21292 0.97851 0.51521 0.0
C834 C 0.21213 0.994 0.53551 0.0
C835 C 0.19425 0.96065 0.51002 0.0
C836 C 0.13165 0.93956 0.52419 0.0
H837 H 0.09655 0.81924 0.5336 0.0
H838 H 0.12532 0.85462 0.5346 0.0
H839 H 0.09604 0.92192 0.52475 0.0
H840 H 0.19064 0.00348 0.56574 0.0
H841 H 0.15813 0.97196 0.55684 0.0
H842 H 0.18107 0.91197 0.51198 0.0
C843 C 0.10865 0.85494 0.52546 0.0
C844 C 0.11453 0.91966 0.52153 0.0
C845 C 0.09206 0.83469 0.525 0.0
C846 C 0.19181 0.9918 0.55 0.0
C847 C 0.17313 0.97383 0.54482 0.0
C848 C 0.16255 0.91452 0.5144 0.0
C849 C 0.10361 0.87549 0.51473 0.0
C850 C 0.12135 0.89697 0.51568 0.0
C851 C 0.17438 0.95777 0.52502 0.0
C852 C 0.15588 0.93714 0.52087 0.0
H853 H 0.04812 0.85537 0.49409 0.0
H854 H 0.0773 0.89091 0.4949 0.0
H855 H 0.15126 0.87748 0.50703 0.0
H856 H 0.22816 0.97988 0.50349 0.0
H857 H 0.19555 0.94885 0.49438 0.0
C858 C 0.12938 0.24523 0.55479 0.0
C859 C 0.12152 0.24872 0.53195 0.0
C860 C 0.15034 0.23495 0.55784 0.0
C861 C 0.18616 0.19458 0.52373 0.0
H862 H 0.22418 0.2011 0.58094 0.0
C863 C 0.25091 0.12736 0.54013 0.0
C864 C 0.24666 0.11671 0.56181 0.0
C865 C 0.24206 0.14879 0.53615 0.0
C866 C 0.21381 0.19922 0.56479 0.0
H867 H 0.13035 0.24661 0.4946 0.0
H868 H 0.16741 0.22985 0.49991 0.0
H869 H 0.19671 0.23022 0.57423 0.0
H870 H 0.23151 0.12107 0.59694 0.0
H871 H 0.21602 0.15829 0.58994 0.0
H872 H 0.20267 0.16332 0.51457 0.0
C873 C 0.15702 0.23395 0.51545 0.0
C874 C 0.198 0.21581 0.56098 0.0
C875 C 0.13587 0.24369 0.51239 0.0
C876 C 0.23489 0.12872 0.57996 0.0
C877 C 0.22619 0.15019 0.57604 0.0
C878 C 0.20206 0.17821 0.52743 0.0
C879 C 0.16397 0.22839 0.53809 0.0
C880 C 0.18347 0.21329 0.5407 0.0
C881 C 0.22898 0.16003 0.55383 0.0
C882 C 0.21556 0.17993 0.54828 0.0
H883 H 0.11858 0.24896 0.57014 0.0
H884 H 0.15497 0.23082 0.57553 0.0
H885 H 0.175 0.19165 0.50814 0.0
H886 H 0.26007 0.11861 0.52586 0.0
H887 H 0.24468 0.15612 0.51893 0.0
loop_
_geom_bond_atom_site_label_1
_geom_bond_atom_site_label_2
_geom_bond_distance
_geom_bond_site_symmetry_2
_ccdc_geom_bond_type
O0 Cd1 2.223 . S
O0 C8 1.315 1_455 S
Cd1 O0 2.223 . S
Cd1 O4 2.297 . S
Cd1 O5 2.439 . S
Cd1 O11 2.240 . S
Cd2 O3 2.241 . S
Cd2 O10 2.223 . S
Cd2 O12 2.297 1_655 S
Cd2 O13 2.439 1_655 S
O3 Cd2 2.241 . S
O3 C8 1.281 . S
O4 Cd1 2.297 . S
O4 C6 1.247 . S
O5 Cd1 2.439 . S
O5 C6 1.208 . S
C6 O4 1.247 . S
C6 O5 1.208 . S
C7 O12 1.247 . S
C7 O13 1.208 . S
C8 O0 1.315 1_655 S
C8 O3 1.281 . S
C9 O10 1.315 1_455 S
C9 O11 1.279 . S
O10 Cd2 2.223 . S
O10 C9 1.315 1_655 S
O11 Cd1 2.240 . S
O11 C9 1.279 . S
O12 Cd2 2.297 1_455 S
O12 C7 1.247 . S
O13 Cd2 2.439 1_455 S
O13 C7 1.208 . S
O14 Cd15 2.223 . S
O14 C22 1.315 . S
Cd15 O14 2.223 . S
Cd15 O18 2.297 . S
Cd15 O19 2.439 . S
Cd15 O25 2.240 . S
Cd16 O17 2.240 . S
Cd16 O24 2.223 . S
Cd16 O26 2.297 1_545 S
Cd16 O27 2.439 1_545 S
O17 Cd16 2.240 . S
O17 C22 1.279 . S
O18 Cd15 2.297 . S
O18 C20 1.247 . S
O19 Cd15 2.439 . S
O19 C20 1.208 . S
C20 O18 1.247 . S
C20 O19 1.208 . S
C21 O26 1.247 . S
C21 O27 1.208 . S
C22 O14 1.315 . S
C22 O17 1.279 . S
C23 O24 1.315 . S
C23 O25 1.279 . S
O24 Cd16 2.223 . S
O24 C23 1.315 . S
O25 Cd15 2.240 . S
O25 C23 1.279 . S
O26 Cd16 2.297 1_565 S
O26 C21 1.247 . S
O27 Cd16 2.439 1_565 S
O27 C21 1.208 . S
O28 Cd29 2.223 . S
O28 C36 1.315 . S
Cd29 O28 2.223 . S
Cd29 O32 2.297 1_455 S
Cd29 O33 2.439 1_455 S
Cd29 O39 2.240 . S
Cd30 O31 2.240 . S
Cd30 O38 2.223 . S
Cd30 O40 2.297 . S
Cd30 O41 2.439 . S
O31 Cd30 2.240 . S
O31 C36 1.279 . S
O32 Cd29 2.297 1_655 S
O32 C34 1.247 . S
O33 Cd29 2.439 1_655 S
O33 C34 1.208 . S
C34 O32 1.247 . S
C34 O33 1.208 . S
C35 O40 1.247 . S
C35 O41 1.208 . S
C36 O28 1.315 . S
C36 O31 1.279 . S
C37 O38 1.315 . S
C37 O39 1.279 . S
O38 Cd30 2.223 . S
O38 C37 1.315 . S
O39 Cd29 2.240 . S
O39 C37 1.279 . S
O40 Cd30 2.297 . S
O40 C35 1.247 . S
O41 Cd30 2.439 . S
O41 C35 1.208 . S
O42 Cd43 2.223 . S
O42 C50 1.315 1_545 S
Cd43 O42 2.223 . S
Cd43 O46 2.297 . S
Cd43 O47 2.439 . S
Cd43 O53 2.240 . S
Cd44 O45 2.240 . S
Cd44 O52 2.223 1_545 S
Cd44 O54 2.297 . S
Cd44 O55 2.439 . S
O45 Cd44 2.240 . S
O45 C50 1.279 1_545 S
O46 Cd43 2.297 . S
O46 C48 1.247 . S
O47 Cd43 2.439 . S
O47 C48 1.208 . S
C48 O46 1.247 . S
C48 O47 1.208 . S
C49 O54 1.247 . S
C49 O55 1.208 . S
C50 O42 1.315 1_565 S
C50 O45 1.279 1_565 S
C51 O52 1.315 1_545 S
C51 O53 1.279 . S
O52 Cd44 2.223 1_565 S
O52 C51 1.315 1_565 S
O53 Cd43 2.240 . S
O53 C51 1.279 . S
O54 Cd44 2.297 . S
O54 C49 1.247 . S
O55 Cd44 2.439 . S
O55 C49 1.208 . S
O56 Cd57 2.223 . S
O56 C64 1.315 . S
Cd57 O56 2.223 . S
Cd57 O60 2.297 . S
Cd57 O61 2.439 . S
Cd57 O67 2.240 . S
Cd58 O59 2.240 . S
Cd58 O66 2.223 . S
Cd58 O68 2.297 . S
Cd58 O69 2.439 . S
O59 Cd58 2.240 . S
O59 C64 1.279 . S
O60 Cd57 2.297 . S
O60 C62 1.247 . S
O61 Cd57 2.439 . S
O61 C62 1.208 . S
C62 O60 1.247 . S
C62 O61 1.208 . S
C63 O68 1.247 . S
C63 O69 1.208 . S
C64 O56 1.315 . S
C64 O59 1.279 . S
C65 O66 1.315 . S
C65 O67 1.279 . S
O66 Cd58 2.223 . S
O66 C65 1.315 . S
O67 Cd57 2.240 . S
O67 C65 1.279 . S
O68 Cd58 2.297 . S
O68 C63 1.247 . S
O69 Cd58 2.439 . S
O69 C63 1.208 . S
O70 Cd71 2.224 . S
O70 C78 1.315 1_655 S
Cd71 O70 2.224 . S
Cd71 O74 2.297 1_655 S
Cd71 O75 2.435 1_655 S
Cd71 O81 2.240 1_655 S
Cd72 O73 2.240 . S
Cd72 O80 2.223 . S
Cd72 O82 2.297 . S
Cd72 O83 2.439 . S
O73 Cd72 2.240 . S
O73 C78 1.279 . S
O74 Cd71 2.297 1_455 S
O74 C76 1.247 . S
O75 Cd71 2.435 1_455 S
O75 C76 1.208 . S
C76 O74 1.247 . S
C76 O75 1.208 . S
C77 O82 1.247 . S
C77 O83 1.208 . S
C78 O70 1.315 1_455 S
C78 O73 1.279 . S
C79 O80 1.315 1_655 S
C79 O81 1.279 1_655 S
O80 Cd72 2.223 . S
O80 C79 1.315 1_455 S
O81 Cd71 2.240 1_455 S
O81 C79 1.279 1_455 S
O82 Cd72 2.297 . S
O82 C77 1.247 . S
O83 Cd72 2.439 . S
O83 C77 1.208 . S
O84 Cd85 2.223 1_545 S
O84 C92 1.315 . S
Cd85 O84 2.223 1_565 S
Cd85 O88 2.297 . S
Cd85 O89 2.439 . S
Cd85 O95 2.240 1_565 S
Cd86 O87 2.240 . S
Cd86 O94 2.223 . S
Cd86 O96 2.297 . S
Cd86 O97 2.439 . S
O87 Cd86 2.240 . S
O87 C92 1.279 . S
O88 Cd85 2.297 . S
O88 C90 1.247 . S
O89 Cd85 2.439 . S
O89 C90 1.208 . S
C90 O88 1.247 . S
C90 O89 1.208 . S
C91 O96 1.247 . S
C91 O97 1.208 . S
C92 O84 1.315 . S
C92 O87 1.279 . S
C93 O94 1.315 . S
C93 O95 1.279 . S
O94 Cd86 2.223 . S
O94 C93 1.315 . S
O95 Cd85 2.240 1_545 S
O95 C93 1.279 . S
O96 Cd86 2.297 . S
O96 C91 1.247 . S
O97 Cd86 2.439 . S
O97 C91 1.208 . S
O98 Cd99 2.223 1_655 S
O98 C106 1.315 1_655 S
Cd99 O98 2.223 1_455 S
Cd99 O102 2.297 . S
Cd99 O103 2.439 . S
Cd99 O109 2.240 . S
Cd100 O101 2.240 . S
Cd100 O108 2.223 . S
Cd100 O110 2.297 . S
Cd100 O111 2.439 . S
O101 Cd100 2.240 . S
O101 C106 1.279 . S
O102 Cd99 2.297 . S
O102 C104 1.247 . S
O103 Cd99 2.439 . S
O103 C104 1.208 . S
C104 O102 1.247 . S
C104 O103 1.208 . S
C105 O110 1.247 . S
C105 O111 1.208 . S
C106 O98 1.315 1_455 S
C106 O101 1.279 . S
C107 O108 1.315 . S
C107 O109 1.279 . S
O108 Cd100 2.223 . S
O108 C107 1.315 . S
O109 Cd99 2.240 . S
O109 C107 1.279 . S
O110 Cd100 2.297 . S
O110 C105 1.247 . S
O111 Cd100 2.439 . S
O111 C105 1.208 . S
O112 Cd113 2.223 . S
O112 C120 1.315 . S
Cd113 O112 2.223 . S
Cd113 O116 2.297 . S
Cd113 O117 2.439 . S
Cd113 O123 2.240 . S
Cd114 O115 2.240 . S
Cd114 O122 2.223 . S
Cd114 O124 2.297 1_554 S
Cd114 O125 2.439 1_554 S
O115 Cd114 2.240 . S
O115 C120 1.279 . S
O116 Cd113 2.297 . S
O116 C118 1.247 . S
O117 Cd113 2.439 . S
O117 C118 1.208 . S
C118 O116 1.247 . S
C118 O117 1.208 . S
C119 O124 1.247 . S
C119 O125 1.208 . S
C120 O112 1.315 . S
C120 O115 1.279 . S
C121 O122 1.315 . S
C121 O123 1.279 . S
O122 Cd114 2.223 . S
O122 C121 1.315 . S
O123 Cd113 2.240 . S
O123 C121 1.279 . S
O124 Cd114 2.297 1_556 S
O124 C119 1.247 . S
O125 Cd114 2.439 1_556 S
O125 C119 1.208 . S
O126 Cd127 2.223 1_556 S
O126 C134 1.315 1_556 S
Cd127 O126 2.223 1_554 S
Cd127 O130 2.297 . S
Cd127 O131 2.439 . S
Cd127 O137 2.240 . S
Cd128 O129 2.240 . S
Cd128 O136 2.223 . S
Cd128 O138 2.297 . S
Cd128 O139 2.439 . S
O129 Cd128 2.240 . S
O129 C134 1.279 . S
O130 Cd127 2.297 . S
O130 C132 1.247 . S
O131 Cd127 2.439 . S
O131 C132 1.208 . S
C132 O130 1.247 . S
C132 O131 1.208 . S
C133 O138 1.247 . S
C133 O139 1.208 . S
C134 O126 1.315 1_554 S
C134 O129 1.279 . S
C135 O136 1.297 1_556 S
C135 O137 1.270 1_556 S
O136 Cd128 2.223 . S
O136 C135 1.297 1_554 S
O137 Cd127 2.240 . S
O137 C135 1.270 1_554 S
O138 Cd128 2.297 . S
O138 C133 1.247 . S
O139 Cd128 2.439 . S
O139 C133 1.208 . S
O140 Cd141 2.223 . S
O140 C148 1.315 . S
Cd141 O140 2.223 . S
Cd141 O144 2.297 . S
Cd141 O145 2.439 . S
Cd141 O151 2.240 . S
Cd142 O143 2.240 . S
Cd142 O150 2.223 . S
Cd142 O152 2.279 1_554 S
Cd142 O153 2.439 . S
O143 Cd142 2.240 . S
O143 C148 1.279 . S
O144 Cd141 2.297 . S
O144 C146 1.247 . S
O145 Cd141 2.439 . S
O145 C146 1.208 . S
C146 O144 1.247 . S
C146 O145 1.208 . S
C147 O152 1.259 . S
C147 O153 1.208 1_556 S
C148 O140 1.315 . S
C148 O143 1.279 . S
C149 O150 1.315 . S
C149 O151 1.279 . S
O150 Cd142 2.223 . S
O150 C149 1.315 . S
O151 Cd141 2.240 . S
O151 C149 1.279 . S
O152 Cd142 2.279 1_556 S
O152 C147 1.259 . S
O153 Cd142 2.439 . S
O153 C147 1.208 1_554 S
O154 Cd155 2.223 . S
O154 C162 1.315 . S
Cd155 O154 2.223 . S
Cd155 O158 2.297 . S
Cd155 O159 2.439 . S
Cd155 O165 2.240 . S
Cd156 O157 2.240 . S
Cd156 O164 2.223 . S
Cd156 O166 2.297 . S
Cd156 O167 2.439 . S
O157 Cd156 2.240 . S
O157 C162 1.279 . S
O158 Cd155 2.297 . S
O158 C160 1.247 . S
O159 Cd155 2.439 . S
O159 C160 1.208 . S
C160 O158 1.247 . S
C160 O159 1.208 . S
C161 O166 1.247 . S
C161 O167 1.208 . S
C162 O154 1.315 . S
C162 O157 1.279 . S
C163 O164 1.315 . S
C163 O165 1.279 . S
O164 Cd156 2.223 . S
O164 C163 1.315 . S
O165 Cd155 2.240 . S
O165 C163 1.279 . S
O166 Cd156 2.297 . S
O166 C161 1.247 . S
O167 Cd156 2.439 . S
O167 C161 1.208 . S
C168 C169 1.349 1_655 S
C168 C170 1.327 . S
C168 H193 0.950 . S
C169 C168 1.349 1_455 S
C169 C185 1.349 . S
C170 C168 1.327 . S
C170 C189 1.429 1_655 S
C170 H194 0.950 . S
C171 C188 1.574 . S
C171 C190 1.368 . S
C171 H195 0.949 . S
H172 C176 0.954 . S
C173 C174 1.349 . S
C173 C175 1.327 . S
C173 H196 0.950 . S
C174 C173 1.349 . S
C174 C186 1.349 . S
C175 C173 1.327 . S
C175 C191 1.429 . S
C175 H197 0.950 . S
C176 H172 0.954 . S
C176 C184 1.574 . S
C176 C192 1.362 1_655 S
H177 C185 0.950 . S
H178 C183 0.950 . S
H179 C184 0.949 . S
H180 C186 0.950 1_655 S
H181 C187 0.950 1_655 S
H182 C188 0.949 . S
C183 H178 0.950 . S
C183 C185 1.327 . S
C183 C189 1.429 . S
C184 C176 1.574 . S
C184 H179 0.949 . S
C184 C190 1.368 1_655 S
C185 C169 1.349 . S
C185 H177 0.950 . S
C185 C183 1.327 . S
C186 C174 1.349 . S
C186 H180 0.950 1_455 S
C186 C187 1.327 . S
C187 H181 0.950 1_455 S
C187 C186 1.327 . S
C187 C191 1.429 . S
C188 C171 1.574 . S
C188 H182 0.949 . S
C188 C192 1.368 . S
C189 C170 1.429 1_455 S
C189 C183 1.429 . S
C189 C190 1.523 . S
C190 C171 1.368 . S
C190 C184 1.368 1_455 S
C190 C189 1.523 . S
C191 C175 1.429 . S
C191 C187 1.429 . S
C191 C192 1.523 . S
C192 C176 1.362 1_455 S
C192 C188 1.368 . S
C192 C191 1.523 . S
H193 C168 0.950 . S
H194 C170 0.950 . S
H195 C171 0.949 . S
H196 C173 0.950 . S
H197 C175 0.950 . S
C198 C199 1.349 . S
C198 C200 1.327 . S
C198 H223 0.950 1_545 S
C199 C198 1.349 . S
C199 C215 1.349 . S
C200 C198 1.327 . S
C200 C219 1.429 . S
C200 H224 0.950 1_545 S
C201 C218 1.574 . S
C201 C220 1.368 . S
C201 H225 0.949 . S
H202 C206 0.949 . S
C203 C204 1.349 . S
C203 C205 1.327 . S
C203 H226 0.950 . S
C204 C203 1.349 . S
C204 C216 1.349 . S
C205 C203 1.327 . S
C205 C221 1.429 . S
C205 H227 0.950 . S
C206 H202 0.949 . S
C206 C214 1.574 . S
C206 C222 1.368 . S
H207 C215 0.950 . S
H208 C213 0.950 . S
H209 C214 0.949 . S
H210 C216 0.950 . S
H211 C217 0.950 . S
H212 C218 0.949 . S
C213 H208 0.950 . S
C213 C215 1.327 . S
C213 C219 1.429 . S
C214 C206 1.574 . S
C214 H209 0.949 . S
C214 C220 1.368 . S
C215 C199 1.349 . S
C215 H207 0.950 . S
C215 C213 1.327 . S
C216 C204 1.349 . S
C216 H210 0.950 . S
C216 C217 1.327 . S
C217 H211 0.950 . S
C217 C216 1.327 . S
C217 C221 1.429 . S
C218 C201 1.574 . S
C218 H212 0.949 . S
C218 C222 1.368 . S
C219 C200 1.429 . S
C219 C213 1.429 . S
C219 C220 1.523 . S
C220 C201 1.368 . S
C220 C214 1.368 . S
C220 C219 1.523 . S
C221 C205 1.429 . S
C221 C217 1.429 . S
C221 C222 1.523 . S
C222 C206 1.368 . S
C222 C218 1.368 . S
C222 C221 1.523 . S
H223 C198 0.950 1_565 S
H224 C200 0.950 1_565 S
H225 C201 0.949 . S
H226 C203 0.950 . S
H227 C205 0.950 . S
C228 C229 1.349 . S
C228 C230 1.327 . S
C228 H253 0.950 1_455 S
C229 C228 1.349 . S
C229 C245 1.349 . S
C230 C228 1.327 . S
C230 C249 1.429 . S
C230 H254 0.950 1_455 S
C231 C248 1.574 . S
C231 C250 1.368 . S
C231 H255 0.949 . S
H232 C236 0.949 . S
C233 C234 1.349 . S
C233 C235 1.327 . S
C233 H256 0.950 . S
C234 C233 1.349 . S
C234 C246 1.349 . S
C235 C233 1.327 . S
C235 C251 1.429 . S
C235 H257 0.950 . S
C236 H232 0.949 . S
C236 C244 1.574 . S
C236 C252 1.368 . S
H237 C245 0.950 . S
H238 C243 0.950 . S
H239 C244 0.948 . S
H240 C246 0.950 . S
H241 C247 0.950 . S
H242 C248 0.949 . S
C243 H238 0.950 . S
C243 C245 1.327 . S
C243 C249 1.429 . S
C244 C236 1.574 . S
C244 H239 0.948 . S
C244 C250 1.368 . S
C245 C229 1.349 . S
C245 H237 0.950 . S
C245 C243 1.327 . S
C246 C234 1.349 . S
C246 H240 0.950 . S
C246 C247 1.327 . S
C247 H241 0.950 . S
C247 C246 1.327 . S
C247 C251 1.429 . S
C248 C231 1.574 . S
C248 H242 0.949 . S
C248 C252 1.368 . S
C249 C230 1.429 . S
C249 C243 1.429 . S
C249 C250 1.523 . S
C250 C231 1.368 . S
C250 C244 1.368 . S
C250 C249 1.523 . S
C251 C235 1.429 . S
C251 C247 1.429 . S
C251 C252 1.523 . S
C252 C236 1.368 . S
C252 C248 1.368 . S
C252 C251 1.523 . S
H253 C228 0.950 1_655 S
H254 C230 0.950 1_655 S
H255 C231 0.949 . S
H256 C233 0.950 . S
H257 C235 0.950 . S
C258 C259 1.349 . S
C258 C260 1.327 . S
C258 H283 0.950 . S
C259 C258 1.349 . S
C259 C275 1.349 . S
C260 C258 1.327 . S
C260 C279 1.429 . S
C260 H284 0.950 . S
C261 C278 1.574 . S
C261 C280 1.368 . S
C261 H285 0.949 . S
H262 C266 0.949 . S
C263 C264 1.349 . S
C263 C265 1.327 . S
C263 H286 0.950 1_545 S
C264 C263 1.349 . S
C264 C276 1.349 . S
C265 C263 1.327 . S
C265 C281 1.429 . S
C265 H287 0.950 1_545 S
C266 H262 0.949 . S
C266 C274 1.574 . S
C266 C282 1.368 . S
H267 C275 0.950 . S
H268 C273 0.950 . S
H269 C274 0.949 . S
H270 C276 0.950 . S
H271 C277 0.950 . S
H272 C278 0.932 1_565 S
C273 H268 0.950 . S
C273 C275 1.327 . S
C273 C279 1.429 . S
C274 C266 1.574 . S
C274 H269 0.949 . S
C274 C280 1.368 . S
C275 C259 1.349 . S
C275 H267 0.950 . S
C275 C273 1.327 . S
C276 C264 1.349 . S
C276 H270 0.950 . S
C276 C277 1.327 . S
C277 H271 0.950 . S
C277 C276 1.327 . S
C277 C281 1.429 . S
C278 C261 1.574 . S
C278 H272 0.932 1_545 S
C278 C282 1.368 . S
C279 C260 1.429 . S
C279 C273 1.429 . S
C279 C280 1.523 . S
C280 C261 1.368 . S
C280 C274 1.368 . S
C280 C279 1.523 . S
C281 C265 1.429 . S
C281 C277 1.429 . S
C281 C282 1.523 . S
C282 C266 1.368 . S
C282 C278 1.368 . S
C282 C281 1.523 . S
H283 C258 0.950 . S
H284 C260 0.950 . S
H285 C261 0.949 . S
H286 C263 0.950 1_565 S
H287 C265 0.950 1_565 S
C288 C289 1.349 . S
C288 C290 1.327 . S
C288 H313 0.950 . S
C289 C288 1.349 . S
C289 C305 1.349 . S
C290 C288 1.327 . S
C290 C309 1.429 . S
C290 H314 0.950 . S
C291 C308 1.574 . S
C291 C310 1.368 . S
C291 H315 0.949 . S
H292 C296 0.949 . S
C293 C294 1.349 . S
C293 C295 1.327 . S
C293 H316 0.950 1_455 S
C294 C293 1.349 . S
C294 C306 1.349 . S
C295 C293 1.327 . S
C295 C311 1.429 . S
C295 H317 0.950 1_455 S
C296 H292 0.949 . S
C296 C304 1.574 . S
C296 C312 1.368 . S
H297 C305 0.950 . S
H298 C303 0.950 . S
H299 C304 0.949 . S
H300 C306 0.950 . S
H301 C307 0.950 . S
H302 C308 0.949 1_655 S
C303 H298 0.950 . S
C303 C305 1.327 . S
C303 C309 1.429 . S
C304 C296 1.574 . S
C304 H299 0.949 . S
C304 C310 1.368 . S
C305 C289 1.349 . S
C305 H297 0.950 . S
C305 C303 1.327 . S
C306 C294 1.349 . S
C306 H300 0.950 . S
C306 C307 1.327 . S
C307 H301 0.950 . S
C307 C306 1.327 . S
C307 C311 1.429 . S
C308 C291 1.574 . S
C308 H302 0.949 1_455 S
C308 C312 1.368 . S
C309 C290 1.429 . S
C309 C303 1.429 . S
C309 C310 1.523 . S
C310 C291 1.368 . S
C310 C304 1.368 . S
C310 C309 1.523 . S
C311 C295 1.429 . S
C311 C307 1.429 . S
C311 C312 1.523 . S
C312 C296 1.368 . S
C312 C308 1.368 . S
C312 C311 1.523 . S
H313 C288 0.950 . S
H314 C290 0.950 . S
H315 C291 0.949 . S
H316 C293 0.950 1_655 S
H317 C295 0.950 1_655 S
C318 C319 1.349 . S
C318 C320 1.327 . S
C318 H343 0.950 . S
C319 C318 1.349 . S
C319 C335 1.349 . S
C320 C318 1.327 . S
C320 C339 1.429 . S
C320 H344 0.950 . S
C321 C338 1.574 . S
C321 C340 1.368 . S
C321 H345 0.949 1_545 S
H322 C326 0.949 . S
C323 C324 1.349 1_565 S
C323 C325 1.327 . S
C323 H346 0.950 . S
C324 C323 1.349 1_545 S
C324 C336 1.349 . S
C325 C323 1.327 . S
C325 C341 1.429 1_565 S
C325 H347 0.950 . S
C326 H322 0.949 . S
C326 C334 1.574 . S
C326 C342 1.368 . S
H327 C335 0.950 1_565 S
H328 C333 0.950 1_565 S
H329 C334 0.949 . S
H330 C336 0.950 . S
H331 C337 0.950 . S
H332 C338 0.949 1_565 S
C333 H328 0.950 1_545 S
C333 C335 1.327 . S
C333 C339 1.429 . S
C334 C326 1.574 . S
C334 H329 0.949 . S
C334 C340 1.368 . S
C335 C319 1.349 . S
C335 H327 0.950 1_545 S
C335 C333 1.327 . S
C336 C324 1.349 . S
C336 H330 0.950 . S
C336 C337 1.327 . S
C337 H331 0.950 . S
C337 C336 1.327 . S
C337 C341 1.429 . S
C338 C321 1.574 . S
C338 H332 0.949 1_545 S
C338 C342 1.368 . S
C339 C320 1.429 . S
C339 C333 1.429 . S
C339 C340 1.523 . S
C340 C321 1.368 . S
C340 C334 1.368 . S
C340 C339 1.523 . S
C341 C325 1.429 1_545 S
C341 C337 1.429 . S
C341 C342 1.523 . S
C342 C326 1.368 . S
C342 C338 1.368 . S
C342 C341 1.523 . S
H343 C318 0.950 . S
H344 C320 0.950 . S
H345 C321 0.949 1_565 S
H346 C323 0.950 . S
H347 C325 0.950 . S
C348 C349 1.349 . S
C348 C350 1.327 . S
C348 H373 0.950 . S
C349 C348 1.349 . S
C349 C365 1.349 . S
C350 C348 1.327 . S
C350 C369 1.429 . S
C350 H374 0.950 . S
C351 C368 1.574 . S
C351 C370 1.368 . S
C351 H375 0.949 . S
H352 C356 0.949 . S
C353 C354 1.373 . S
C353 C355 1.336 . S
C353 H376 0.918 1_455 S
C354 C353 1.373 . S
C354 C366 1.349 . S
C355 C353 1.336 . S
C355 C371 1.429 . S
C355 H377 0.950 1_455 S
C356 H352 0.949 . S
C356 C364 1.574 . S
C356 C372 1.368 . S
H357 C365 0.950 . S
H358 C363 0.950 . S
H359 C364 0.949 . S
H360 C366 0.950 . S
H361 C367 0.950 . S
H362 C368 0.949 1_655 S
C363 H358 0.950 . S
C363 C365 1.327 . S
C363 C369 1.429 . S
C364 C356 1.574 . S
C364 H359 0.949 . S
C364 C370 1.368 . S
C365 C349 1.349 . S
C365 H357 0.950 . S
C365 C363 1.327 . S
C366 C354 1.349 . S
C366 H360 0.950 . S
C366 C367 1.327 . S
C367 H361 0.950 . S
C367 C366 1.327 . S
C367 C371 1.429 . S
C368 C351 1.574 . S
C368 H362 0.949 1_455 S
C368 C372 1.368 . S
C369 C350 1.429 . S
C369 C363 1.429 . S
C369 C370 1.523 . S
C370 C351 1.368 . S
C370 C364 1.368 . S
C370 C369 1.523 . S
C371 C355 1.429 . S
C371 C367 1.429 . S
C371 C372 1.523 . S
C372 C356 1.368 . S
C372 C368 1.368 . S
C372 C371 1.523 . S
H373 C348 0.950 . S
H374 C350 0.950 . S
H375 C351 0.949 . S
H376 C353 0.918 1_655 S
H377 C355 0.950 1_655 S
C378 C379 1.349 . S
C378 C380 1.327 . S
C378 H403 0.950 . S
C379 C378 1.349 . S
C379 C395 1.349 1_545 S
C380 C378 1.327 . S
C380 C399 1.429 . S
C380 H404 0.950 . S
C381 C398 1.574 . S
C381 C400 1.368 . S
C381 H405 0.949 1_545 S
H382 C386 0.949 . S
C383 C384 1.349 . S
C383 C385 1.327 . S
C383 H406 0.950 . S
C384 C383 1.349 . S
C384 C396 1.349 . S
C385 C383 1.327 . S
C385 C401 1.429 . S
C385 H407 0.950 . S
C386 H382 0.949 . S
C386 C394 1.574 . S
C386 C402 1.368 . S
H387 C395 0.950 . S
H388 C393 0.950 1_565 S
H389 C394 0.949 . S
H390 C396 0.950 . S
H391 C397 0.950 . S
H392 C398 0.949 . S
C393 H388 0.950 1_545 S
C393 C395 1.327 1_545 S
C393 C399 1.429 . S
C394 C386 1.574 . S
C394 H389 0.949 . S
C394 C400 1.368 . S
C395 C379 1.349 1_565 S
C395 H387 0.950 . S
C395 C393 1.327 1_565 S
C396 C384 1.349 . S
C396 H390 0.950 . S
C396 C397 1.327 . S
C397 H391 0.950 . S
C397 C396 1.327 . S
C397 C401 1.429 . S
C398 C381 1.574 . S
C398 H392 0.949 . S
C398 C402 1.368 . S
C399 C380 1.429 . S
C399 C393 1.429 . S
C399 C400 1.523 . S
C400 C381 1.368 . S
C400 C394 1.368 . S
C400 C399 1.523 . S
C401 C385 1.429 . S
C401 C397 1.429 . S
C401 C402 1.523 . S
C402 C386 1.368 . S
C402 C398 1.368 . S
C402 C401 1.523 . S
H403 C378 0.950 . S
H404 C380 0.950 . S
H405 C381 0.949 1_565 S
H406 C383 0.950 . S
H407 C385 0.950 . S
C408 C409 1.349 . S
C408 C410 1.327 . S
C408 H433 0.950 . S
C409 C408 1.349 . S
C409 C425 1.349 . S
C410 C408 1.327 . S
C410 C429 1.429 . S
C410 H434 0.950 . S
C411 C428 1.574 . S
C411 C430 1.368 . S
C411 H435 0.949 . S
H412 C416 0.949 1_556 S
C413 C414 1.349 . S
C413 C415 1.327 . S
C413 H436 0.950 . S
C414 C413 1.349 . S
C414 C426 1.349 . S
C415 C413 1.327 . S
C415 C431 1.429 . S
C415 H437 0.950 . S
C416 H412 0.949 1_554 S
C416 C424 1.574 . S
C416 C432 1.368 . S
H417 C425 0.950 . S
H418 C423 0.950 . S
H419 C424 0.949 . S
H420 C426 0.950 1_556 S
H421 C427 0.950 1_556 S
H422 C428 0.949 . S
C423 H418 0.950 . S
C423 C425 1.327 . S
C423 C429 1.429 . S
C424 C416 1.574 . S
C424 H419 0.949 . S
C424 C430 1.368 . S
C425 C409 1.349 . S
C425 H417 0.950 . S
C425 C423 1.327 . S
C426 C414 1.349 . S
C426 H420 0.950 1_554 S
C426 C427 1.327 . S
C427 H421 0.950 1_554 S
C427 C426 1.327 . S
C427 C431 1.429 . S
C428 C411 1.574 . S
C428 H422 0.949 . S
C428 C432 1.368 . S
C429 C410 1.429 . S
C429 C423 1.429 . S
C429 C430 1.523 . S
C430 C411 1.368 . S
C430 C424 1.368 . S
C430 C429 1.523 . S
C431 C415 1.429 . S
C431 C427 1.429 . S
C431 C432 1.523 . S
C432 C416 1.368 . S
C432 C428 1.368 . S
C432 C431 1.523 . S
H433 C408 0.950 . S
H434 C410 0.950 . S
H435 C411 0.949 . S
H436 C413 0.950 . S
H437 C415 0.950 . S
C438 C439 1.349 . S
C438 C440 1.327 . S
C438 H463 0.950 . S
C439 C438 1.349 . S
C439 C455 1.349 . S
C440 C438 1.327 . S
C440 C459 1.429 . S
C440 H464 0.950 . S
C441 C458 1.574 . S
C441 C460 1.368 . S
C441 H465 0.949 . S
H442 C446 0.949 . S
C443 C444 1.349 . S
C443 C445 1.327 . S
C443 H466 0.950 . S
C444 C443 1.349 . S
C444 C456 1.349 . S
C445 C443 1.327 . S
C445 C461 1.429 . S
C445 H467 0.950 . S
C446 H442 0.949 . S
C446 C454 1.574 . S
C446 C462 1.368 . S
H447 C455 0.950 . S
H448 C453 0.950 . S
H449 C454 0.949 . S
H450 C456 0.950 . S
H451 C457 0.950 . S
H452 C458 0.949 . S
C453 H448 0.950 . S
C453 C455 1.327 . S
C453 C459 1.429 . S
C454 C446 1.574 . S
C454 H449 0.949 . S
C454 C460 1.368 . S
C455 C439 1.349 . S
C455 H447 0.950 . S
C455 C453 1.327 . S
C456 C444 1.349 . S
C456 H450 0.950 . S
C456 C457 1.327 . S
C457 H451 0.950 . S
C457 C456 1.327 . S
C457 C461 1.429 . S
C458 C441 1.574 . S
C458 H452 0.949 . S
C458 C462 1.368 . S
C459 C440 1.429 . S
C459 C453 1.429 . S
C459 C460 1.523 . S
C460 C441 1.368 . S
C460 C454 1.368 . S
C460 C459 1.523 . S
C461 C445 1.429 . S
C461 C457 1.429 . S
C461 C462 1.523 . S
C462 C446 1.368 . S
C462 C458 1.368 . S
C462 C461 1.523 . S
H463 C438 0.950 . S
H464 C440 0.950 . S
H465 C441 0.949 . S
H466 C443 0.950 . S
H467 C445 0.950 . S
C468 C469 1.349 . S
C468 C470 1.327 . S
C468 H493 0.950 . S
C469 C468 1.349 . S
C469 C485 1.335 1_554 S
C470 C468 1.327 . S
C470 C489 1.429 . S
C470 H494 0.950 . S
C471 C488 1.574 . S
C471 C490 1.368 . S
C471 H495 0.949 1_554 S
H472 C476 0.949 . S
C473 C474 1.349 . S
C473 C475 1.327 . S
C473 H496 0.950 . S
C474 C473 1.349 . S
C474 C486 1.349 . S
C475 C473 1.327 . S
C475 C491 1.429 . S
C475 H497 0.950 . S
C476 H472 0.949 . S
C476 C484 1.574 . S
C476 C492 1.368 . S
H477 C485 0.967 . S
H478 C483 0.950 1_556 S
H479 C484 0.949 . S
H480 C486 0.950 . S
H481 C487 0.950 . S
H482 C488 0.949 . S
C483 H478 0.950 1_554 S
C483 C485 1.325 1_554 S
C483 C489 1.429 . S
C484 C476 1.574 . S
C484 H479 0.949 . S
C484 C490 1.368 . S
C485 C469 1.335 1_556 S
C485 H477 0.967 . S
C485 C483 1.325 1_556 S
C486 C474 1.349 . S
C486 H480 0.950 . S
C486 C487 1.327 . S
C487 H481 0.950 . S
C487 C486 1.327 . S
C487 C491 1.429 . S
C488 C471 1.574 . S
C488 H482 0.949 . S
C488 C492 1.368 . S
C489 C470 1.429 . S
C489 C483 1.429 . S
C489 C490 1.523 . S
C490 C471 1.368 . S
C490 C484 1.368 . S
C490 C489 1.523 . S
C491 C475 1.429 . S
C491 C487 1.429 . S
C491 C492 1.523 . S
C492 C476 1.368 . S
C492 C488 1.368 . S
C492 C491 1.523 . S
H493 C468 0.950 . S
H494 C470 0.950 . S
H495 C471 0.949 1_556 S
H496 C473 0.950 . S
H497 C475 0.950 . S
C498 C499 1.349 . S
C498 C500 1.327 . S
C498 H523 0.950 . S
C499 C498 1.349 . S
C499 C515 1.349 . S
C500 C498 1.327 . S
C500 C519 1.429 . S
C500 H524 0.950 . S
C501 C518 1.574 . S
C501 C520 1.368 . S
C501 H525 0.949 . S
H502 C506 0.949 . S
C503 C504 1.349 . S
C503 C505 1.327 . S
C503 H526 0.950 . S
C504 C503 1.349 . S
C504 C516 1.349 . S
C505 C503 1.327 . S
C505 C521 1.429 . S
C505 H527 0.950 . S
C506 H502 0.949 . S
C506 C514 1.574 . S
C506 C522 1.368 . S
H507 C515 0.950 . S
H508 C513 0.950 . S
H509 C514 0.949 . S
H510 C516 0.950 . S
H511 C517 0.950 . S
H512 C518 0.949 . S
C513 H508 0.950 . S
C513 C515 1.327 . S
C513 C519 1.429 . S
C514 C506 1.574 . S
C514 H509 0.949 . S
C514 C520 1.368 . S
C515 C499 1.349 . S
C515 H507 0.950 . S
C515 C513 1.327 . S
C516 C504 1.349 . S
C516 H510 0.950 . S
C516 C517 1.327 . S
C517 H511 0.950 . S
C517 C516 1.327 . S
C517 C521 1.429 . S
C518 C501 1.574 . S
C518 H512 0.949 . S
C518 C522 1.368 . S
C519 C500 1.429 . S
C519 C513 1.429 . S
C519 C520 1.523 . S
C520 C501 1.368 . S
C520 C514 1.368 . S
C520 C519 1.523 . S
C521 C505 1.429 . S
C521 C517 1.429 . S
C521 C522 1.523 . S
C522 C506 1.368 . S
C522 C518 1.368 . S
C522 C521 1.523 . S
H523 C498 0.950 . S
H524 C500 0.950 . S
H525 C501 0.949 . S
H526 C503 0.950 . S
H527 C505 0.950 . S
C528 C529 1.349 1_556 S
C528 C530 1.327 . S
C528 H553 0.950 . S
C529 C528 1.349 1_554 S
C529 C545 1.349 . S
C530 C528 1.327 . S
C530 C549 1.429 . S
C530 H554 0.950 . S
C531 C548 1.574 . S
C531 C550 1.368 . S
C531 H555 0.949 . S
H532 C536 0.949 . S
C533 C534 1.349 . S
C533 C535 1.327 . S
C533 H556 0.950 . S
C534 C533 1.349 . S
C534 C546 1.349 . S
C535 C533 1.327 . S
C535 C551 1.429 . S
C535 H557 0.950 . S
C536 H532 0.949 . S
C536 C544 1.574 . S
C536 C552 1.368 . S
H537 C545 0.950 . S
H538 C543 0.950 . S
H539 C544 0.949 . S
H540 C546 0.950 . S
H541 C547 0.950 . S
H542 C548 0.949 . S
C543 H538 0.950 . S
C543 C545 1.327 1_556 S
C543 C549 1.429 . S
C544 C536 1.574 . S
C544 H539 0.949 . S
C544 C550 1.368 . S
C545 C529 1.349 . S
C545 H537 0.950 . S
C545 C543 1.327 1_554 S
C546 C534 1.349 . S
C546 H540 0.950 . S
C546 C547 1.327 . S
C547 H541 0.950 . S
C547 C546 1.327 . S
C547 C551 1.429 . S
C548 C531 1.574 . S
C548 H542 0.949 . S
C548 C552 1.368 . S
C549 C530 1.429 . S
C549 C543 1.429 . S
C549 C550 1.523 . S
C550 C531 1.368 . S
C550 C544 1.368 . S
C550 C549 1.523 . S
C551 C535 1.429 . S
C551 C547 1.429 . S
C551 C552 1.523 . S
C552 C536 1.368 . S
C552 C548 1.368 . S
C552 C551 1.523 . S
H553 C528 0.950 . S
H554 C530 0.950 . S
H555 C531 0.949 . S
H556 C533 0.950 . S
H557 C535 0.950 . S
C558 C559 1.349 . S
C558 C560 1.327 . S
C558 H583 0.950 . S
C559 C558 1.349 . S
C559 C575 1.349 . S
C560 C558 1.327 . S
C560 C579 1.429 . S
C560 H584 0.950 . S
C561 C578 1.574 . S
C561 C580 1.368 . S
C561 H585 0.949 . S
H562 C566 0.949 . S
C563 C564 1.349 . S
C563 C565 1.327 . S
C563 H586 0.950 . S
C564 C563 1.349 . S
C564 C576 1.349 . S
C565 C563 1.327 . S
C565 C581 1.429 . S
C565 H587 0.950 . S
C566 H562 0.949 . S
C566 C574 1.574 . S
C566 C582 1.368 . S
H567 C575 0.950 . S
H568 C573 0.950 . S
H569 C574 0.949 . S
H570 C576 0.950 . S
H571 C577 0.950 . S
H572 C578 0.949 . S
C573 H568 0.950 . S
C573 C575 1.327 . S
C573 C579 1.429 . S
C574 C566 1.574 . S
C574 H569 0.949 . S
C574 C580 1.368 . S
C575 C559 1.349 . S
C575 H567 0.950 . S
C575 C573 1.327 . S
C576 C564 1.349 . S
C576 H570 0.950 . S
C576 C577 1.327 . S
C577 H571 0.950 . S
C577 C576 1.327 . S
C577 C581 1.429 . S
C578 C561 1.574 . S
C578 H572 0.949 . S
C578 C582 1.368 . S
C579 C560 1.429 . S
C579 C573 1.429 . S
C579 C580 1.523 . S
C580 C561 1.368 . S
C580 C574 1.368 . S
C580 C579 1.523 . S
C581 C565 1.429 . S
C581 C577 1.429 . S
C581 C582 1.523 . S
C582 C566 1.368 . S
C582 C578 1.368 . S
C582 C581 1.523 . S
H583 C558 0.950 . S
H584 C560 0.950 . S
H585 C561 0.949 . S
H586 C563 0.950 . S
H587 C565 0.950 . S
C588 C589 1.349 . S
C588 C590 1.327 . S
C588 H613 0.950 . S
C589 C588 1.349 . S
C589 C605 1.349 . S
C590 C588 1.327 . S
C590 C609 1.429 . S
C590 H614 0.950 . S
C591 C608 1.574 . S
C591 C610 1.368 . S
C591 H615 0.949 . S
H592 C596 0.949 . S
C593 C594 1.349 . S
C593 C595 1.327 . S
C593 H616 0.950 . S
C594 C593 1.349 . S
C594 C606 1.349 . S
C595 C593 1.327 . S
C595 C611 1.429 . S
C595 H617 0.950 . S
C596 H592 0.949 . S
C596 C604 1.574 . S
C596 C612 1.368 . S
H597 C605 0.950 . S
H598 C603 0.950 . S
H599 C604 0.949 . S
H600 C606 0.950 . S
H601 C607 0.950 . S
H602 C608 0.949 . S
C603 H598 0.950 . S
C603 C605 1.327 . S
C603 C609 1.429 . S
C604 C596 1.574 . S
C604 H599 0.949 . S
C604 C610 1.368 . S
C605 C589 1.349 . S
C605 H597 0.950 . S
C605 C603 1.327 . S
C606 C594 1.349 . S
C606 H600 0.950 . S
C606 C607 1.327 . S
C607 H601 0.950 . S
C607 C606 1.327 . S
C607 C611 1.429 . S
C608 C591 1.574 . S
C608 H602 0.949 . S
C608 C612 1.368 . S
C609 C590 1.429 . S
C609 C603 1.429 . S
C609 C610 1.523 . S
C610 C591 1.368 . S
C610 C604 1.368 . S
C610 C609 1.523 . S
C611 C595 1.429 . S
C611 C607 1.429 . S
C611 C612 1.523 . S
C612 C596 1.368 . S
C612 C608 1.368 . S
C612 C611 1.523 . S
H613 C588 0.950 . S
H614 C590 0.950 . S
H615 C591 0.949 . S
H616 C593 0.950 . S
H617 C595 0.950 . S
C618 C619 1.349 . S
C618 C620 1.327 . S
C618 H643 0.950 . S
C619 C618 1.349 . S
C619 C635 1.349 . S
C620 C618 1.327 . S
C620 C639 1.429 . S
C620 H644 0.950 . S
C621 C638 1.574 . S
C621 C640 1.368 . S
C621 H645 0.949 . S
H622 C626 0.949 . S
C623 C624 1.349 . S
C623 C625 1.327 . S
C623 H646 0.950 . S
C624 C623 1.349 . S
C624 C636 1.349 . S
C625 C623 1.327 . S
C625 C641 1.429 . S
C625 H647 0.950 . S
C626 H622 0.949 . S
C626 C634 1.574 . S
C626 C642 1.368 . S
H627 C635 0.950 . S
H628 C633 0.950 . S
H629 C634 0.949 . S
H630 C636 0.950 . S
H631 C637 0.950 . S
H632 C638 0.949 . S
C633 H628 0.950 . S
C633 C635 1.327 . S
C633 C639 1.429 . S
C634 C626 1.574 . S
C634 H629 0.949 . S
C634 C640 1.368 . S
C635 C619 1.349 . S
C635 H627 0.950 . S
C635 C633 1.327 . S
C636 C624 1.349 . S
C636 H630 0.950 . S
C636 C637 1.327 . S
C637 H631 0.950 . S
C637 C636 1.327 . S
C637 C641 1.429 . S
C638 C621 1.574 . S
C638 H632 0.949 . S
C638 C642 1.368 . S
C639 C620 1.429 . S
C639 C633 1.429 . S
C639 C640 1.523 . S
C640 C621 1.368 . S
C640 C634 1.368 . S
C640 C639 1.523 . S
C641 C625 1.429 . S
C641 C637 1.429 . S
C641 C642 1.523 . S
C642 C626 1.368 . S
C642 C638 1.368 . S
C642 C641 1.523 . S
H643 C618 0.950 . S
H644 C620 0.950 . S
H645 C621 0.949 . S
H646 C623 0.950 . S
H647 C625 0.950 . S
C648 C649 1.349 . S
C648 C650 1.327 . S
C648 H673 0.950 . S
C649 C648 1.349 . S
C649 C665 1.349 . S
C650 C648 1.327 . S
C650 C669 1.429 . S
C650 H674 0.950 . S
C651 C668 1.574 . S
C651 C670 1.368 . S
C651 H675 0.949 . S
H652 C656 0.949 . S
C653 C654 1.349 . S
C653 C655 1.327 . S
C653 H676 0.950 . S
C654 C653 1.349 . S
C654 C666 1.349 . S
C655 C653 1.327 . S
C655 C671 1.429 . S
C655 H677 0.950 . S
C656 H652 0.949 . S
C656 C664 1.574 . S
C656 C672 1.368 . S
H657 C665 0.950 . S
H658 C663 0.950 . S
H659 C664 0.949 . S
H660 C666 0.950 . S
H661 C667 0.950 . S
H662 C668 0.949 . S
C663 H658 0.950 . S
C663 C665 1.327 . S
C663 C669 1.429 . S
C664 C656 1.574 . S
C664 H659 0.949 . S
C664 C670 1.368 . S
C665 C649 1.349 . S
C665 H657 0.950 . S
C665 C663 1.327 . S
C666 C654 1.349 . S
C666 H660 0.950 . S
C666 C667 1.327 . S
C667 H661 0.950 . S
C667 C666 1.327 . S
C667 C671 1.429 . S
C668 C651 1.574 . S
C668 H662 0.949 . S
C668 C672 1.368 . S
C669 C650 1.429 . S
C669 C663 1.429 . S
C669 C670 1.523 . S
C670 C651 1.368 . S
C670 C664 1.368 . S
C670 C669 1.523 . S
C671 C655 1.429 . S
C671 C667 1.429 . S
C671 C672 1.523 . S
C672 C656 1.368 . S
C672 C668 1.368 . S
C672 C671 1.523 . S
H673 C648 0.950 . S
H674 C650 0.950 . S
H675 C651 0.949 . S
H676 C653 0.950 . S
H677 C655 0.950 . S
C678 C679 1.349 . S
C678 C680 1.327 . S
C678 H703 0.950 . S
C679 C678 1.349 . S
C679 C695 1.349 . S
C680 C678 1.327 . S
C680 C699 1.429 . S
C680 H704 0.950 . S
C681 C698 1.574 . S
C681 C700 1.368 . S
C681 H705 0.949 . S
H682 C686 0.949 . S
C683 C684 1.349 . S
C683 C685 1.327 . S
C683 H706 0.950 . S
C684 C683 1.349 . S
C684 C696 1.349 . S
C685 C683 1.327 . S
C685 C701 1.429 . S
C685 H707 0.950 . S
C686 H682 0.949 . S
C686 C694 1.574 . S
C686 C702 1.368 . S
H687 C695 0.950 . S
H688 C693 0.950 . S
H689 C694 0.949 . S
H690 C696 0.950 . S
H691 C697 0.950 . S
H692 C698 0.949 . S
C693 H688 0.950 . S
C693 C695 1.327 . S
C693 C699 1.429 . S
C694 C686 1.574 . S
C694 H689 0.949 . S
C694 C700 1.368 . S
C695 C679 1.349 . S
C695 H687 0.950 . S
C695 C693 1.327 . S
C696 C684 1.349 . S
C696 H690 0.950 . S
C696 C697 1.327 . S
C697 H691 0.950 . S
C697 C696 1.327 . S
C697 C701 1.429 . S
C698 C681 1.574 . S
C698 H692 0.949 . S
C698 C702 1.368 . S
C699 C680 1.429 . S
C699 C693 1.429 . S
C699 C700 1.523 . S
C700 C681 1.368 . S
C700 C694 1.368 . S
C700 C699 1.523 . S
C701 C685 1.429 . S
C701 C697 1.429 . S
C701 C702 1.523 . S
C702 C686 1.368 . S
C702 C698 1.368 . S
C702 C701 1.523 . S
H703 C678 0.950 . S
H704 C680 0.950 . S
H705 C681 0.949 . S
H706 C683 0.950 . S
H707 C685 0.950 . S
C708 C709 1.349 . S
C708 C710 1.327 . S
C708 H733 0.950 . S
C709 C708 1.349 . S
C709 C725 1.349 . S
C710 C708 1.327 . S
C710 C729 1.429 . S
C710 H734 0.950 . S
C711 C728 1.574 . S
C711 C730 1.368 . S
C711 H735 0.949 . S
H712 C716 0.949 . S
C713 C714 1.349 . S
C713 C715 1.327 . S
C713 H736 0.950 . S
C714 C713 1.349 . S
C714 C726 1.349 . S
C715 C713 1.327 . S
C715 C731 1.429 . S
C715 H737 0.950 . S
C716 H712 0.949 . S
C716 C724 1.574 . S
C716 C732 1.368 . S
H717 C725 0.950 . S
H718 C723 0.950 . S
H719 C724 0.949 . S
H720 C726 0.950 . S
H721 C727 0.950 . S
H722 C728 0.949 . S
C723 H718 0.950 . S
C723 C725 1.327 . S
C723 C729 1.429 . S
C724 C716 1.574 . S
C724 H719 0.949 . S
C724 C730 1.368 . S
C725 C709 1.349 . S
C725 H717 0.950 . S
C725 C723 1.327 . S
C726 C714 1.349 . S
C726 H720 0.950 . S
C726 C727 1.327 . S
C727 H721 0.950 . S
C727 C726 1.327 . S
C727 C731 1.429 . S
C728 C711 1.574 . S
C728 H722 0.949 . S
C728 C732 1.368 . S
C729 C710 1.429 . S
C729 C723 1.429 . S
C729 C730 1.523 . S
C730 C711 1.368 . S
C730 C724 1.368 . S
C730 C729 1.523 . S
C731 C715 1.429 . S
C731 C727 1.429 . S
C731 C732 1.523 . S
C732 C716 1.368 . S
C732 C728 1.368 . S
C732 C731 1.523 . S
H733 C708 0.950 . S
H734 C710 0.950 . S
H735 C711 0.949 . S
H736 C713 0.950 . S
H737 C715 0.950 . S
C738 C739 1.349 . S
C738 C740 1.327 . S
C738 H763 0.950 . S
C739 C738 1.349 . S
C739 C755 1.349 . S
C740 C738 1.327 . S
C740 C759 1.429 . S
C740 H764 0.950 . S
C741 C758 1.574 . S
C741 C760 1.368 . S
C741 H765 0.949 . S
H742 C746 0.949 . S
C743 C744 1.349 . S
C743 C745 1.327 . S
C743 H766 0.950 . S
C744 C743 1.349 . S
C744 C756 1.349 . S
C745 C743 1.327 . S
C745 C761 1.429 . S
C745 H767 0.950 . S
C746 H742 0.949 . S
C746 C754 1.574 . S
C746 C762 1.368 . S
H747 C755 0.950 . S
H748 C753 0.950 . S
H749 C754 0.949 . S
H750 C756 0.950 . S
H751 C757 0.950 . S
H752 C758 0.949 . S
C753 H748 0.950 . S
C753 C755 1.327 . S
C753 C759 1.429 . S
C754 C746 1.574 . S
C754 H749 0.949 . S
C754 C760 1.368 . S
C755 C739 1.349 . S
C755 H747 0.950 . S
C755 C753 1.327 . S
C756 C744 1.349 . S
C756 H750 0.950 . S
C756 C757 1.327 . S
C757 H751 0.950 . S
C757 C756 1.327 . S
C757 C761 1.429 . S
C758 C741 1.574 . S
C758 H752 0.949 . S
C758 C762 1.368 . S
C759 C740 1.429 . S
C759 C753 1.429 . S
C759 C760 1.523 . S
C760 C741 1.368 . S
C760 C754 1.368 . S
C760 C759 1.523 . S
C761 C745 1.429 . S
C761 C757 1.429 . S
C761 C762 1.523 . S
C762 C746 1.368 . S
C762 C758 1.368 . S
C762 C761 1.523 . S
H763 C738 0.950 . S
H764 C740 0.950 . S
H765 C741 0.949 . S
H766 C743 0.950 . S
H767 C745 0.950 . S
C768 C769 1.349 . S
C768 C770 1.327 . S
C768 H793 0.950 . S
C769 C768 1.349 . S
C769 C785 1.349 . S
C770 C768 1.327 . S
C770 C789 1.429 . S
C770 H794 0.950 . S
C771 C788 1.574 . S
C771 C790 1.368 . S
C771 H795 0.949 . S
H772 C776 0.949 . S
C773 C774 1.349 . S
C773 C775 1.327 . S
C773 H796 0.950 . S
C774 C773 1.349 . S
C774 C786 1.349 . S
C775 C773 1.327 . S
C775 C791 1.429 . S
C775 H797 0.950 . S
C776 H772 0.949 . S
C776 C784 1.574 . S
C776 C792 1.368 . S
H777 C785 0.950 . S
H778 C783 0.950 . S
H779 C784 0.949 . S
H780 C786 0.950 . S
H781 C787 0.950 . S
H782 C788 0.949 . S
C783 H778 0.950 . S
C783 C785 1.327 . S
C783 C789 1.429 . S
C784 C776 1.574 . S
C784 H779 0.949 . S
C784 C790 1.368 . S
C785 C769 1.349 . S
C785 H777 0.950 . S
C785 C783 1.327 . S
C786 C774 1.349 . S
C786 H780 0.950 . S
C786 C787 1.327 . S
C787 H781 0.950 . S
C787 C786 1.327 . S
C787 C791 1.429 . S
C788 C771 1.574 . S
C788 H782 0.949 . S
C788 C792 1.368 . S
C789 C770 1.429 . S
C789 C783 1.429 . S
C789 C790 1.523 . S
C790 C771 1.368 . S
C790 C784 1.368 . S
C790 C789 1.523 . S
C791 C775 1.429 . S
C791 C787 1.429 . S
C791 C792 1.523 . S
C792 C776 1.368 . S
C792 C788 1.368 . S
C792 C791 1.523 . S
H793 C768 0.950 . S
H794 C770 0.950 . S
H795 C771 0.949 . S
H796 C773 0.950 . S
H797 C775 0.950 . S
C798 C799 1.349 . S
C798 C800 1.327 . S
C798 H823 0.950 . S
C799 C798 1.349 . S
C799 C815 1.349 . S
C800 C798 1.327 . S
C800 C819 1.429 . S
C800 H824 0.950 . S
C801 C818 1.574 . S
C801 C820 1.368 . S
C801 H825 0.949 . S
H802 C806 0.949 . S
C803 C804 1.349 . S
C803 C805 1.327 . S
C803 H826 0.950 . S
C804 C803 1.349 . S
C804 C816 1.349 . S
C805 C803 1.327 . S
C805 C821 1.429 . S
C805 H827 0.950 . S
C806 H802 0.949 . S
C806 C814 1.574 . S
C806 C822 1.368 . S
H807 C815 0.950 . S
H808 C813 0.950 . S
H809 C814 0.949 . S
H810 C816 0.950 . S
H811 C817 0.950 . S
H812 C818 0.949 . S
C813 H808 0.950 . S
C813 C815 1.327 . S
C813 C819 1.429 . S
C814 C806 1.574 . S
C814 H809 0.949 . S
C814 C820 1.368 . S
C815 C799 1.349 . S
C815 H807 0.950 . S
C815 C813 1.327 . S
C816 C804 1.349 . S
C816 H810 0.950 . S
C816 C817 1.327 . S
C817 H811 0.950 . S
C817 C816 1.327 . S
C817 C821 1.429 . S
C818 C801 1.574 . S
C818 H812 0.949 . S
C818 C822 1.368 . S
C819 C800 1.429 . S
C819 C813 1.429 . S
C819 C820 1.523 . S
C820 C801 1.368 . S
C820 C814 1.368 . S
C820 C819 1.523 . S
C821 C805 1.429 . S
C821 C817 1.429 . S
C821 C822 1.523 . S
C822 C806 1.368 . S
C822 C818 1.368 . S
C822 C821 1.523 . S
H823 C798 0.950 . S
H824 C800 0.950 . S
H825 C801 0.949 . S
H826 C803 0.950 . S
H827 C805 0.950 . S
C828 C829 1.349 . S
C828 C830 1.327 . S
C828 H853 0.950 . S
C829 C828 1.349 . S
C829 C845 1.349 . S
C830 C828 1.327 . S
C830 C849 1.429 . S
C830 H854 0.950 . S
C831 C848 1.574 . S
C831 C850 1.368 . S
C831 H855 0.949 . S
H832 C836 0.949 . S
C833 C834 1.349 . S
C833 C835 1.327 . S
C833 H856 0.950 . S
C834 C833 1.349 . S
C834 C846 1.349 . S
C835 C833 1.327 . S
C835 C851 1.429 . S
C835 H857 0.950 . S
C836 H832 0.949 . S
C836 C844 1.574 . S
C836 C852 1.368 . S
H837 C845 0.950 . S
H838 C843 0.950 . S
H839 C844 0.949 . S
H840 C846 0.950 . S
H841 C847 0.950 . S
H842 C848 0.949 . S
C843 H838 0.950 . S
C843 C845 1.327 . S
C843 C849 1.429 . S
C844 C836 1.574 . S
C844 H839 0.949 . S
C844 C850 1.368 . S
C845 C829 1.349 . S
C845 H837 0.950 . S
C845 C843 1.327 . S
C846 C834 1.349 . S
C846 H840 0.950 . S
C846 C847 1.327 . S
C847 H841 0.950 . S
C847 C846 1.327 . S
C847 C851 1.429 . S
C848 C831 1.574 . S
C848 H842 0.949 . S
C848 C852 1.368 . S
C849 C830 1.429 . S
C849 C843 1.429 . S
C849 C850 1.523 . S
C850 C831 1.368 . S
C850 C844 1.368 . S
C850 C849 1.523 . S
C851 C835 1.429 . S
C851 C847 1.429 . S
C851 C852 1.523 . S
C852 C836 1.368 . S
C852 C848 1.368 . S
C852 C851 1.523 . S
H853 C828 0.950 . S
H854 C830 0.950 . S
H855 C831 0.949 . S
H856 C833 0.950 . S
H857 C835 0.950 . S
C858 C859 1.349 . S
C858 C860 1.327 . S
C858 H883 0.950 . S
C859 C858 1.349 . S
C859 C875 1.349 . S
C860 C858 1.327 . S
C860 C879 1.429 . S
C860 H884 0.950 . S
C861 C878 1.574 . S
C861 C880 1.368 . S
C861 H885 0.949 . S
H862 C866 0.949 . S
C863 C864 1.349 . S
C863 C865 1.327 . S
C863 H886 0.950 . S
C864 C863 1.349 . S
C864 C876 1.349 . S
C865 C863 1.327 . S
C865 C881 1.429 . S
C865 H887 0.950 . S
C866 H862 0.949 . S
C866 C874 1.574 . S
C866 C882 1.368 . S
H867 C875 0.950 . S
H868 C873 0.950 . S
H869 C874 0.949 . S
H870 C876 0.950 . S
H871 C877 0.950 . S
H872 C878 0.949 . S
C873 H868 0.950 . S
C873 C875 1.327 . S
C873 C879 1.429 . S
C874 C866 1.574 . S
C874 H869 0.949 . S
C874 C880 1.368 . S
C875 C859 1.349 . S
C875 H867 0.950 . S
C875 C873 1.327 . S
C876 C864 1.349 . S
C876 H870 0.950 . S
C876 C877 1.327 . S
C877 H871 0.950 . S
C877 C876 1.327 . S
C877 C881 1.429 . S
C878 C861 1.574 . S
C878 H872 0.949 . S
C878 C882 1.368 . S
C879 C860 1.429 . S
C879 C873 1.429 . S
C879 C880 1.523 . S
C880 C861 1.368 . S
C880 C874 1.368 . S
C880 C879 1.523 . S
C881 C865 1.429 . S
C881 C877 1.429 . S
C881 C882 1.523 . S
C882 C866 1.368 . S
C882 C878 1.368 . S
C882 C881 1.523 . S
H883 C858 0.950 . S
H884 C860 0.950 . S
H885 C861 0.949 . S
H886 C863 0.950 . S
H887 C865 0.950 . S
C169 C9 1.925 . S
C174 C76 1.885 . S
C199 C20 0.971 . S
C204 C63 0.963 . S
C229 C78 1.784 . S
C234 C37 1.772 . S
C259 C49 1.344 . S
C264 C65 1.381 . S
C289 C104 1.173 . S
C294 C35 1.172 . S
C319 C93 2.043 . S
C324 C51 2.045 . S
C349 C7 1.107 . S
C354 C106 1.140 . S
C379 C91 1.628 . S
C384 C22 1.678 . S
C409 C132 1.418 . S
C414 C118 1.406 . S
C439 C120 1.223 . S
C444 C162 1.221 . S
C469 C134 1.536 . S
C474 C148 1.535 . S
C499 C146 1.707 . S
C504 C160 1.692 . S
C529 C163 1.924 . S
C534 C90 1.885 . S
C559 C119 0.971 . S
C564 C105 0.963 . S
C589 C92 1.784 . S
C594 C135 1.797 . S
C619 C107 1.381 1_655 S
C624 C147 1.344 . S
C649 C62 1.173 . S
C654 C133 1.172 . S
C679 C79 2.042 . S
C684 C149 2.045 . S
C709 C161 1.107 . S
C714 C64 1.140 1_565 S
C739 C121 1.678 . S
C744 C77 1.628 . S
C769 C21 1.406 . S
C774 C34 1.418 . S
C799 C8 1.221 . S
C804 C23 1.223 . S
C829 C36 1.536 . S
C834 C50 1.535 . S
C859 C6 1.692 . S
C864 C48 1.707 . S
