# Generated by pormake.
# Topology unm, (4)-cn, num edge types: 1
# Building blocks:
#     Node 0, Type 0, BuildingBlock: UXUYUI_clean_sbu_0, # of connection points: 4
#     Node 1, Type 0, BuildingBlock: UXUYUI_clean_sbu_0, # of connection points: 4
#     Node 2, Type 0, BuildingBlock: UXUYUI_clean_sbu_0, # of connection points: 4
#     Node 3, Type 0, BuildingBlock: UXUYUI_clean_sbu_0, # of connection points: 4
#     Node 4, Type 0, BuildingBlock: UXUYUI_clean_sbu_0, # of connection points: 4
#     Node 5, Type 0, BuildingBlock: UXUYUI_clean_sbu_0, # of connection points: 4
#     Node 6, Type 0, BuildingBlock: UXUYUI_clean_sbu_0, # of connection points: 4
#     Node 7, Type 0, BuildingBlock: UXUYUI_clean_sbu_0, # of connection points: 4
#     Edge 8, Type (0, 0), BuildingBlock: UVAHIK_clean_linker_0, # of connection points: 2
#     Edge 9, Type (0, 0), BuildingBlock: UVAHIK_clean_linker_0, # of connection points: 2
#     Edge 10, Type (0, 0), BuildingBlock: UVAHIK_clean_linker_0, # of connection points: 2
#     Edge 11, Type (0, 0), BuildingBlock: UVAHIK_clean_linker_0, # of connection points: 2
#     Edge 12, Type (0, 0), BuildingBlock: UVAHIK_clean_linker_0, # of connection points: 2
#     Edge 13, Type (0, 0), BuildingBlock: UVAHIK_clean_linker_0, # of connection points: 2
#     Edge 14, Type (0, 0), BuildingBlock: UVAHIK_clean_linker_0, # of connection points: 2
#     Edge 15, Type (0, 0), BuildingBlock: UVAHIK_clean_linker_0, # of connection points: 2
#     Edge 16, Type (0, 0), BuildingBlock: UVAHIK_clean_linker_0, # of connection points: 2
#     Edge 17, Type (0, 0), BuildingBlock: UVAHIK_clean_linker_0, # of connection points: 2
#     Edge 18, Type (0, 0), BuildingBlock: UVAHIK_clean_linker_0, # of connection points: 2
#     Edge 19, Type (0, 0), BuildingBlock: UVAHIK_clean_linker_0, # of connection points: 2
#     Edge 20, Type (0, 0), BuildingBlock: UVAHIK_clean_linker_0, # of connection points: 2
#     Edge 21, Type (0, 0), BuildingBlock: UVAHIK_clean_linker_0, # of connection points: 2
#     Edge 22, Type (0, 0), BuildingBlock: UVAHIK_clean_linker_0, # of connection points: 2
#     Edge 23, Type (0, 0), BuildingBlock: UVAHIK_clean_linker_0, # of connection points: 2
# Relax obj value: 0.260
# Max RMSD: 0.186
# Mean RMSD: 0.185
data_MOF--net-unm--node1-UXUYUI_clean_sbu_0--edge1-UVAHIK_clean_linker_0
_symmetry_space_group_name_H-M    P1
_symmetry_Int_Tables_number       1
_symmetry_cell_setting            triclinic
loop_
_symmetry_equiv_pos_as_xyz
'x, y, z'
_cell_length_a     45.400518
_cell_length_b     45.280786
_cell_length_c     74.478922
_cell_angle_alpha  89.986684
_cell_angle_beta   89.996404
_cell_angle_gamma 90.010288
loop_
_atom_site_label
_atom_site_type_symbol
_atom_site_fract_x
_atom_site_fract_y
_atom_site_fract_z
_atom_type_partial_charge
Li0 Li 0.05989 0.24982 0.15286 0.0
Li1 Li 0.08832 0.21871 0.17486 0.0
Li2 Li 0.06929 0.19913 0.14495 0.0
Li3 Li 0.03623 0.21005 0.16884 0.0
C4 C 0.11493 0.25325 0.14234 0.0
N5 N 0.14589 0.29998 0.12772 0.0
C6 C 0.13403 0.26987 0.15305 0.0
C7 C 0.11183 0.26021 0.12416 0.0
C8 C 0.14943 0.29346 0.14541 0.0
C9 C 0.12759 0.28397 0.11703 0.0
C10 C 0.03632 0.25552 0.19166 0.0
C11 C 0.01794 0.25542 0.22203 0.0
N12 N 0.99549 0.27343 0.2169 0.0
C13 C 0.01321 0.2742 0.1867 0.0
C14 C 0.03885 0.24615 0.20947 0.0
C15 C 0.99274 0.28295 0.19965 0.0
C16 C 0.03577 0.29697 0.13242 0.0
N17 N 0.05514 0.28952 0.14557 0.0
C18 C 0.06329 0.34022 0.15271 0.0
C19 C 0.0691 0.31036 0.15554 0.0
C20 C 0.04267 0.3486 0.13962 0.0
C21 C 0.02933 0.32661 0.1291 0.0
H22 H 0.02423 0.27996 0.12511 0.0
H23 H 0.08384 0.3037 0.16621 0.0
C24 C 0.14229 0.20044 0.19055 0.0
N25 N 0.1201 0.22053 0.19127 0.0
C26 C 0.16776 0.20459 0.20082 0.0
C27 C 0.14656 0.24956 0.21262 0.0
C28 C 0.12154 0.24451 0.2022 0.0
C29 C 0.17036 0.2298 0.21174 0.0
H30 H 0.14068 0.18184 0.18149 0.0
H31 H 0.10376 0.26039 0.20224 0.0
C32 C 0.01922 0.21133 0.12781 0.0
N33 N 0.99494 0.19106 0.09607 0.0
C34 C 0.99638 0.1906 0.12813 0.0
C35 C 0.02962 0.22179 0.11132 0.0
C36 C 0.98439 0.18065 0.11195 0.0
C37 C 0.01711 0.21123 0.09543 0.0
C38 C 0.05646 0.15697 0.17806 0.0
C39 C 0.03392 0.14075 0.16994 0.0
C40 C 0.0663 0.14923 0.1952 0.0
C41 C 0.02126 0.11717 0.17926 0.0
C42 C 0.05311 0.12545 0.20406 0.0
N43 N 0.03103 0.11008 0.19599 0.0
C44 C 0.10637 0.17976 0.11744 0.0
C45 C 0.0608 0.15439 0.11794 0.0
C46 C 0.11404 0.16615 0.10133 0.0
N47 N 0.07971 0.17451 0.12508 0.0
C48 C 0.06722 0.14084 0.10154 0.0
C49 C 0.09387 0.14729 0.09271 0.0
H50 H 0.12144 0.19516 0.12363 0.0
H51 H 0.04015 0.14978 0.12454 0.0
C52 C 0.97552 0.2148 0.17228 0.0
N53 N 0.99924 0.20251 0.18054 0.0
C54 C 0.94816 0.21534 0.18074 0.0
C55 C 0.96986 0.19051 0.20621 0.0
C56 C 0.99689 0.19034 0.19719 0.0
C57 C 0.94514 0.20352 0.19806 0.0
H58 H 0.97818 0.22569 0.15948 0.0
H59 H 0.01621 0.18195 0.20391 0.0
O60 O 0.09922 0.23042 0.14965 0.0
O61 O 0.05602 0.24596 0.17906 0.0
O62 O 0.03128 0.22136 0.14352 0.0
O63 O 0.06918 0.18006 0.16917 0.0
H64 H 0.1368 0.2648 0.16712 0.0
H65 H 0.09738 0.24743 0.11564 0.0
H66 H 0.16415 0.30661 0.15357 0.0
H67 H 0.12529 0.28967 0.10299 0.0
H68 H 0.01946 0.24815 0.23584 0.0
H69 H 0.01087 0.2815 0.17293 0.0
H70 H 0.0565 0.23149 0.21348 0.0
H71 H 0.97459 0.2972 0.19598 0.0
H72 H 0.07414 0.35652 0.16105 0.0
H73 H 0.01291 0.33215 0.1191 0.0
H74 H 0.1857 0.18897 0.1996 0.0
H75 H 0.1475 0.26908 0.22101 0.0
H76 H 0.98828 0.18188 0.14071 0.0
H77 H 0.04729 0.23773 0.11077 0.0
H78 H 0.96682 0.16452 0.11201 0.0
H79 H 0.02507 0.21905 0.08259 0.0
H80 H 0.02612 0.1465 0.15667 0.0
H81 H 0.08382 0.16156 0.20161 0.0
H82 H 0.00365 0.10452 0.17321 0.0
H83 H 0.06039 0.11925 0.21737 0.0
H84 H 0.13537 0.17096 0.09553 0.0
H85 H 0.05087 0.12649 0.09557 0.0
H86 H 0.92994 0.2263 0.17413 0.0
H87 H 0.96852 0.18126 0.2196 0.0
Li88 Li 0.29865 0.56261 0.64196 0.0
Li89 Li 0.27789 0.59217 0.66774 0.0
Li90 Li 0.28438 0.53757 0.66975 0.0
Li91 Li 0.24739 0.55846 0.65046 0.0
C92 C 0.34296 0.55558 0.66823 0.0
N93 N 0.39771 0.52942 0.67126 0.0
C94 C 0.36391 0.5672 0.68001 0.0
C95 C 0.34984 0.53067 0.65798 0.0
C96 C 0.39148 0.55366 0.68135 0.0
C97 C 0.37763 0.51775 0.6597 0.0
C98 C 0.24708 0.60655 0.63135 0.0
C99 C 0.20476 0.63816 0.62775 0.0
N100 N 0.20235 0.62928 0.61037 0.0
C101 C 0.2443 0.59784 0.61344 0.0
C102 C 0.22725 0.62692 0.63859 0.0
C103 C 0.22149 0.60955 0.60305 0.0
C104 C 0.3146 0.54737 0.60728 0.0
N105 N 0.32372 0.56333 0.62167 0.0
C106 C 0.36426 0.58275 0.60498 0.0
C107 C 0.34819 0.58056 0.62095 0.0
C108 C 0.35486 0.56714 0.58968 0.0
C109 C 0.32992 0.5489 0.59109 0.0
H110 H 0.29474 0.53427 0.6082 0.0
H111 H 0.35477 0.59316 0.63262 0.0
C112 C 0.27325 0.62819 0.69842 0.0
N113 N 0.27866 0.62839 0.68048 0.0
C114 C 0.26927 0.6547 0.70767 0.0
C115 C 0.27855 0.68112 0.68003 0.0
C116 C 0.28202 0.65407 0.67128 0.0
C117 C 0.2713 0.68171 0.6984 0.0
H118 H 0.2706 0.60736 0.70536 0.0
H119 H 0.28642 0.65351 0.65701 0.0
C120 C 0.26795 0.49741 0.64337 0.0
N121 N 0.25373 0.43817 0.64138 0.0
C122 C 0.24341 0.48651 0.65254 0.0
C123 C 0.28518 0.47822 0.63308 0.0
C124 C 0.23659 0.45649 0.65139 0.0
C125 C 0.27765 0.44833 0.63228 0.0
C126 C 0.22383 0.56308 0.68542 0.0
C127 C 0.21063 0.53706 0.69156 0.0
C128 C 0.20999 0.59018 0.68859 0.0
C129 C 0.18359 0.53854 0.70046 0.0
C130 C 0.18297 0.59074 0.69755 0.0
N131 N 0.17042 0.56513 0.70324 0.0
C132 C 0.28078 0.50864 0.70289 0.0
C133 C 0.30357 0.47989 0.68026 0.0
C134 C 0.27935 0.48421 0.71428 0.0
N135 N 0.29165 0.50577 0.68599 0.0
C136 C 0.30233 0.4548 0.69113 0.0
C137 C 0.2891 0.4565 0.70818 0.0
H138 H 0.27181 0.5296 0.7072 0.0
H139 H 0.3126 0.47821 0.6669 0.0
C140 C 0.2068 0.53237 0.62658 0.0
N141 N 0.20901 0.55221 0.64022 0.0
C142 C 0.17926 0.52431 0.61988 0.0
C143 C 0.15686 0.55938 0.64014 0.0
C144 C 0.18483 0.56659 0.64651 0.0
C145 C 0.15379 0.53731 0.62704 0.0
H146 H 0.22639 0.52226 0.62112 0.0
H147 H 0.18707 0.58343 0.6566 0.0
O148 O 0.31588 0.56861 0.66682 0.0
O149 O 0.26876 0.59472 0.64186 0.0
O150 O 0.27532 0.52666 0.64452 0.0
O151 O 0.25063 0.56214 0.67699 0.0
H152 H 0.35889 0.58649 0.68804 0.0
H153 H 0.33393 0.52135 0.64879 0.0
H154 H 0.40791 0.56241 0.69042 0.0
H155 H 0.38324 0.49845 0.65186 0.0
H156 H 0.18915 0.65382 0.6332 0.0
H157 H 0.25938 0.58196 0.60768 0.0
H158 H 0.22895 0.63369 0.65248 0.0
H159 H 0.21894 0.60288 0.58919 0.0
H160 H 0.38348 0.59688 0.60452 0.0
H161 H 0.3215 0.53693 0.5796 0.0
H162 H 0.26339 0.6539 0.72175 0.0
H163 H 0.28099 0.70132 0.67239 0.0
H164 H 0.2297 0.50112 0.66035 0.0
H165 H 0.30434 0.48628 0.62595 0.0
H166 H 0.21767 0.44777 0.65845 0.0
H167 H 0.29087 0.4332 0.62444 0.0
H168 H 0.22121 0.51591 0.68965 0.0
H169 H 0.21964 0.61054 0.68382 0.0
H170 H 0.17313 0.51856 0.70524 0.0
H171 H 0.17192 0.61154 0.69992 0.0
H172 H 0.26972 0.48682 0.72749 0.0
H173 H 0.31009 0.43399 0.68577 0.0
H174 H 0.17786 0.50771 0.60945 0.0
H175 H 0.13779 0.57011 0.64595 0.0
Li176 Li 0.90468 0.78284 0.17628 0.0
Li177 Li 0.93348 0.75003 0.15544 0.0
Li178 Li 0.95727 0.79053 0.17068 0.0
Li179 Li 0.92499 0.7999 0.14639 0.0
C180 C 0.95622 0.7458 0.19417 0.0
N181 N 0.99683 0.7275 0.21944 0.0
C182 C 0.9797 0.72766 0.18911 0.0
C183 C 0.95323 0.75446 0.21209 0.0
C184 C 5e-05 0.71871 0.20208 0.0
C185 C 0.97403 0.74499 0.22466 0.0
C186 C 0.87836 0.74574 0.14523 0.0
C187 C 0.86821 0.70891 0.12263 0.0
N188 N 0.84682 0.69731 0.1333 0.0
C189 C 0.85611 0.73356 0.1559 0.0
C190 C 0.88431 0.73343 0.12839 0.0
C191 C 0.84047 0.70906 0.14965 0.0
C192 C 0.85043 0.80268 0.19083 0.0
N193 N 0.87245 0.78254 0.19246 0.0
C194 C 0.84509 0.75558 0.21441 0.0
C195 C 0.87045 0.75952 0.2041 0.0
C196 C 0.82147 0.77544 0.21265 0.0
C197 C 0.82461 0.79958 0.2009 0.0
H198 H 0.85252 0.82054 0.18126 0.0
H199 H 0.88798 0.7434 0.20474 0.0
C200 C 0.95802 0.70156 0.13648 0.0
N201 N 0.93805 0.70985 0.1491 0.0
C202 C 0.96295 0.67167 0.13305 0.0
C203 C 0.92653 0.65958 0.15559 0.0
C204 C 0.92236 0.68965 0.1586 0.0
C205 C 0.94738 0.65025 0.14286 0.0
H206 H 0.97078 0.7181 0.1295 0.0
H207 H 0.90701 0.69697 0.16878 0.0
C208 C 0.9362 0.84262 0.1807 0.0
N209 N 0.95901 0.88681 0.20214 0.0
C210 C 0.95922 0.86031 0.17441 0.0
C211 C 0.92459 0.84753 0.19782 0.0
C212 C 0.97053 0.88248 0.18549 0.0
C213 C 0.93646 0.86998 0.20847 0.0
C214 C 0.97409 0.78877 0.13013 0.0
C215 C 0.99397 0.81235 0.13066 0.0
C216 C 0.96539 0.77723 0.11354 0.0
C217 C 0.00475 0.82402 0.11459 0.0
C218 C 0.97657 0.7896 0.09776 0.0
N219 N 0.99586 0.81254 0.09861 0.0
C220 C 0.01835 0.78732 0.1741 0.0
C221 C 0.99598 0.80924 0.19954 0.0
C222 C 0.04556 0.7867 0.18275 0.0
N223 N 0.99417 0.79829 0.18256 0.0
C224 C 0.02283 0.80894 0.20875 0.0
C225 C 0.04798 0.79709 0.20044 0.0
H226 H 0.01622 0.77744 0.16097 0.0
H227 H 0.97636 0.81665 0.20636 0.0
C228 C 0.89599 0.81253 0.11414 0.0
N229 N 0.9164 0.82346 0.1257 0.0
C230 C 0.89173 0.82565 0.09743 0.0
C231 C 0.92832 0.86226 0.10513 0.0
C232 C 0.93183 0.84841 0.12179 0.0
C233 C 0.90861 0.85035 0.09252 0.0
H234 H 0.88357 0.79308 0.11767 0.0
H235 H 0.94782 0.85679 0.13124 0.0
O236 O 0.93664 0.7556 0.18156 0.0
O237 O 0.89425 0.76949 0.15124 0.0
O238 O 0.92471 0.82092 0.17005 0.0
O239 O 0.96286 0.77736 0.14572 0.0
H240 H 0.98244 0.72096 0.17527 0.0
H241 H 0.93534 0.76875 0.21617 0.0
H242 H 0.01848 0.70488 0.19834 0.0
H243 H 0.97214 0.75169 0.23855 0.0
H244 H 0.87279 0.69904 0.10971 0.0
H245 H 0.85093 0.74284 0.16887 0.0
H246 H 0.90147 0.74244 0.11996 0.0
H247 H 0.82329 0.69937 0.15781 0.0
H248 H 0.84349 0.73636 0.22301 0.0
H249 H 0.80709 0.81557 0.19925 0.0
H250 H 0.9796 0.66542 0.12336 0.0
H251 H 0.91389 0.64379 0.16334 0.0
H252 H 0.96846 0.85676 0.16121 0.0
H253 H 0.90673 0.83406 0.20287 0.0
H254 H 0.98848 0.89622 0.18085 0.0
H255 H 0.92778 0.87397 0.22178 0.0
H256 H 0.0007 0.82184 0.14333 0.0
H257 H 0.94987 0.75918 0.11282 0.0
H258 H 0.02003 0.84235 0.11481 0.0
H259 H 0.96982 0.78104 0.08484 0.0
H260 H 0.06415 0.77669 0.17597 0.0
H261 H 0.02369 0.81712 0.2224 0.0
H262 H 0.87572 0.81619 0.0883 0.0
H263 H 0.9418 0.88126 0.10189 0.0
Li264 Li 0.72034 0.4637 0.6701 0.0
Li265 Li 0.7586 0.43776 0.6545 0.0
Li266 Li 0.7079 0.43237 0.64503 0.0
Li267 Li 0.72415 0.41046 0.67277 0.0
C268 C 0.71639 0.49029 0.63627 0.0
N269 N 0.68422 0.53402 0.61937 0.0
C270 C 0.72923 0.50725 0.62268 0.0
C271 C 0.68716 0.49558 0.64126 0.0
C272 C 0.71261 0.52926 0.61431 0.0
C273 C 0.67128 0.51778 0.63255 0.0
C274 C 0.77317 0.45957 0.68815 0.0
C275 C 0.80407 0.47466 0.71285 0.0
N276 N 0.81326 0.49836 0.70313 0.0
C277 C 0.78299 0.48406 0.67839 0.0
C278 C 0.78383 0.4548 0.70551 0.0
C279 C 0.80323 0.50341 0.6862 0.0
C280 C 0.70317 0.49784 0.70024 0.0
N281 N 0.71367 0.49953 0.68317 0.0
C282 C 0.72254 0.55128 0.68646 0.0
C283 C 0.72316 0.5256 0.67617 0.0
C284 C 0.7126 0.55014 0.70428 0.0
C285 C 0.70251 0.52303 0.71113 0.0
H286 H 0.69641 0.4767 0.70562 0.0
H287 H 0.73265 0.52636 0.6629 0.0
C288 C 0.80233 0.45222 0.62948 0.0
N289 N 0.79793 0.44022 0.64599 0.0
C290 C 0.83088 0.45655 0.62304 0.0
C291 C 0.84973 0.435 0.65045 0.0
C292 C 0.82087 0.43149 0.65646 0.0
C293 C 0.85497 0.44802 0.63365 0.0
H294 H 0.78363 0.45887 0.62146 0.0
H295 H 0.81682 0.42243 0.66965 0.0
C296 C 0.66358 0.41591 0.66925 0.0
N297 N 0.61523 0.37885 0.67 0.0
C298 C 0.66278 0.39079 0.65836 0.0
C299 C 0.63976 0.42221 0.68049 0.0
C300 C 0.63815 0.37232 0.65894 0.0
C301 C 0.61552 0.40319 0.68069 0.0
C302 C 0.75703 0.37767 0.64807 0.0
C303 C 0.75705 0.3577 0.63376 0.0
C304 C 0.7765 0.37347 0.66238 0.0
C305 C 0.77669 0.33395 0.63397 0.0
C306 C 0.79578 0.34944 0.6621 0.0
N307 N 0.79549 0.33034 0.64801 0.0
C308 C 0.70185 0.41505 0.61021 0.0
C309 C 0.65702 0.43501 0.62118 0.0
C310 C 0.68914 0.40952 0.59356 0.0
N311 N 0.6857 0.42722 0.62363 0.0
C312 C 0.64345 0.43026 0.60452 0.0
C313 C 0.65958 0.41704 0.59058 0.0
H314 H 0.72476 0.40973 0.61246 0.0
H315 H 0.64475 0.44486 0.63209 0.0
C316 C 0.73028 0.37892 0.70543 0.0
N317 N 0.72129 0.3767 0.68808 0.0
C318 C 0.73365 0.35353 0.71593 0.0
C319 C 0.71708 0.32427 0.69074 0.0
C320 C 0.71416 0.35014 0.68074 0.0
C321 C 0.72763 0.32566 0.70845 0.0
H322 H 0.73598 0.40028 0.71088 0.0
H323 H 0.70778 0.34879 0.66679 0.0
O324 O 0.73239 0.46846 0.64444 0.0
O325 O 0.75309 0.44039 0.68091 0.0
O326 O 0.68735 0.43448 0.66895 0.0
O327 O 0.73765 0.40085 0.64808 0.0
H328 H 0.75182 0.50348 0.61866 0.0
H329 H 0.6768 0.48278 0.65175 0.0
H330 H 0.72228 0.54255 0.60377 0.0
H331 H 0.64866 0.52209 0.63628 0.0
H332 H 0.81246 0.47124 0.72629 0.0
H333 H 0.77509 0.48818 0.66494 0.0
H334 H 0.77654 0.43595 0.71326 0.0
H335 H 0.81094 0.52247 0.6788 0.0
H336 H 0.73117 0.57154 0.68078 0.0
H337 H 0.69473 0.52125 0.72483 0.0
H338 H 0.83413 0.46657 0.60998 0.0
H339 H 0.86779 0.42856 0.65911 0.0
H340 H 0.68094 0.38553 0.64955 0.0
H341 H 0.64004 0.44161 0.68899 0.0
H342 H 0.63727 0.35279 0.65059 0.0
H343 H 0.59694 0.40779 0.68935 0.0
H344 H 0.74195 0.36042 0.62264 0.0
H345 H 0.77659 0.38842 0.67368 0.0
H346 H 0.77693 0.31834 0.62298 0.0
H347 H 0.81091 0.34594 0.67312 0.0
H348 H 0.70242 0.39978 0.58303 0.0
H349 H 0.6206 0.43638 0.60264 0.0
H350 H 0.74155 0.35562 0.72959 0.0
H351 H 0.71264 0.30327 0.68432 0.0
Li352 Li 0.53676 0.29013 0.32987 0.0
Li353 Li 0.57055 0.30047 0.35332 0.0
Li354 Li 0.58889 0.28307 0.32289 0.0
Li355 Li 0.56212 0.25012 0.34465 0.0
C356 C 0.55614 0.34311 0.31983 0.0
N357 N 0.53068 0.38822 0.30031 0.0
C358 C 0.53365 0.36009 0.32739 0.0
C359 C 0.5659 0.34918 0.30242 0.0
C360 C 0.52097 0.38275 0.31727 0.0
C361 C 0.55271 0.37208 0.29276 0.0
C362 C 0.52184 0.28773 0.37077 0.0
C363 C 0.52036 0.28804 0.40315 0.0
N364 N 0.49919 0.30927 0.40264 0.0
C365 C 0.50003 0.30953 0.37056 0.0
C366 C 0.53201 0.2768 0.3872 0.0
C367 C 0.48885 0.32011 0.38682 0.0
C368 C 0.47632 0.28301 0.32764 0.0
N369 N 0.49884 0.29685 0.31903 0.0
C370 C 0.46748 0.30752 0.29401 0.0
C371 C 0.49486 0.30933 0.30257 0.0
C372 C 0.44425 0.29229 0.30236 0.0
C373 C 0.44875 0.28062 0.31959 0.0
H374 H 0.4802 0.27222 0.34036 0.0
H375 H 0.51329 0.31894 0.29554 0.0
C376 C 0.60504 0.31559 0.3829 0.0
N377 N 0.5806 0.32406 0.37374 0.0
C378 C 0.61118 0.32754 0.39971 0.0
C379 C 0.568 0.35837 0.39694 0.0
C380 C 0.56287 0.34599 0.38 0.0
C381 C 0.59189 0.34834 0.40728 0.0
H382 H 0.61928 0.29876 0.37745 0.0
H383 H 0.54389 0.35281 0.37231 0.0
C384 C 0.53672 0.24542 0.30644 0.0
N385 N 0.49471 0.2269 0.28209 0.0
C386 C 0.5147 0.22569 0.31175 0.0
C387 C 0.53754 0.25556 0.28872 0.0
C388 C 0.4936 0.21666 0.29924 0.0
C389 C 0.51608 0.24595 0.27661 0.0
C390 C 0.61768 0.2471 0.35386 0.0
C391 C 0.63837 0.23354 0.34267 0.0
C392 C 0.61381 0.2367 0.37138 0.0
C393 C 0.6546 0.20958 0.34913 0.0
C394 C 0.63044 0.21266 0.37733 0.0
N395 N 0.6503 0.1997 0.36617 0.0
C396 C 0.64343 0.30109 0.30784 0.0
C397 C 0.62055 0.2598 0.29409 0.0
C398 C 0.66895 0.29665 0.29765 0.0
N399 N 0.62017 0.28241 0.30608 0.0
C400 C 0.64552 0.25458 0.28367 0.0
C401 C 0.67047 0.27263 0.28572 0.0
H402 H 0.6427 0.31849 0.31778 0.0
H403 H 0.60204 0.24485 0.2933 0.0
C404 C 0.53993 0.20136 0.36449 0.0
N405 N 0.55878 0.20999 0.35132 0.0
C406 C 0.53538 0.17136 0.36784 0.0
C407 C 0.57006 0.15991 0.34419 0.0
C408 C 0.57386 0.19006 0.34128 0.0
C409 C 0.55018 0.15022 0.35739 0.0
H410 H 0.52759 0.21768 0.37191 0.0
H411 H 0.58824 0.19764 0.33065 0.0
O412 O 0.56899 0.321 0.32953 0.0
O413 O 0.53323 0.27723 0.35499 0.0
O414 O 0.55698 0.25528 0.31863 0.0
O415 O 0.60116 0.27028 0.34768 0.0
H416 H 0.52592 0.35566 0.34087 0.0
H417 H 0.5834 0.33626 0.29644 0.0
H418 H 0.50341 0.39598 0.3229 0.0
H419 H 0.55994 0.37699 0.27924 0.0
H420 H 0.5282 0.27992 0.41595 0.0
H421 H 0.49209 0.31853 0.35801 0.0
H422 H 0.54894 0.26005 0.38764 0.0
H423 H 0.47207 0.33707 0.38685 0.0
H424 H 0.46504 0.3164 0.28059 0.0
H425 H 0.43139 0.26885 0.32654 0.0
H426 H 0.63043 0.31987 0.40692 0.0
H427 H 0.55261 0.37445 0.4022 0.0
H428 H 0.51362 0.21782 0.32545 0.0
H429 H 0.55427 0.27109 0.28445 0.0
H430 H 0.47627 0.20162 0.3032 0.0
H431 H 0.5163 0.25378 0.26289 0.0
H432 H 0.64181 0.24127 0.32911 0.0
H433 H 0.59796 0.24692 0.38024 0.0
H434 H 0.67058 0.19881 0.34057 0.0
H435 H 0.62751 0.20429 0.39082 0.0
H436 H 0.68777 0.31091 0.2998 0.0
H437 H 0.6456 0.23603 0.27448 0.0
H438 H 0.51948 0.16484 0.37793 0.0
H439 H 0.58209 0.14435 0.33593 0.0
Li440 Li 0.21651 0.09112 0.82433 0.0
Li441 Li 0.20242 0.06259 0.85324 0.0
Li442 Li 0.25191 0.06014 0.84003 0.0
Li443 Li 0.21242 0.0372 0.82527 0.0
C444 C 0.25389 0.11228 0.85608 0.0
N445 N 0.30042 0.14475 0.86961 0.0
C446 C 0.26226 0.10915 0.87404 0.0
C447 C 0.26916 0.13199 0.84502 0.0
C448 C 0.28587 0.12572 0.88062 0.0
C449 C 0.2926 0.14821 0.85211 0.0
C450 C 0.15802 0.05282 0.82139 0.0
C451 C 0.11691 0.01914 0.82143 0.0
N452 N 0.11441 0.02244 0.80333 0.0
C453 C 0.155 0.05602 0.80282 0.0
C454 C 0.13883 0.03434 0.83081 0.0
C455 C 0.13283 0.0404 0.79392 0.0
C456 C 0.21724 0.1262 0.79318 0.0
N457 N 0.21176 0.12653 0.81111 0.0
C458 C 0.20837 0.17917 0.81104 0.0
C459 C 0.20646 0.15216 0.82003 0.0
C460 C 0.2159 0.17965 0.79274 0.0
C461 C 0.21955 0.15268 0.78368 0.0
H462 H 0.22126 0.10541 0.78645 0.0
H463 H 0.20235 0.1517 0.83434 0.0
C464 C 0.20069 0.05692 0.88976 0.0
N465 N 0.1832 0.06448 0.8757 0.0
C466 C 0.19063 0.06021 0.90729 0.0
C467 C 0.14394 0.07735 0.8956 0.0
C468 C 0.15514 0.07416 0.87818 0.0
C469 C 0.16213 0.07097 0.91035 0.0
H470 H 0.22279 0.04899 0.8873 0.0
H471 H 0.14179 0.08009 0.8667 0.0
C472 C 0.27005 0.05802 0.80609 0.0
N473 N 0.32474 0.05063 0.79043 0.0
C474 C 0.28351 0.03027 0.80604 0.0
C475 C 0.2843 0.08198 0.79803 0.0
C476 C 0.3112 0.027 0.79811 0.0
C477 C 0.31196 0.0778 0.79021 0.0
C478 C 0.22364 0.99888 0.85295 0.0
C479 C 0.24393 0.97827 0.84644 0.0
C480 C 0.19962 0.98926 0.86314 0.0
C481 C 0.23952 0.94828 0.84995 0.0
C482 C 0.19603 0.95909 0.8664 0.0
N483 N 0.21585 0.93939 0.85976 0.0
C484 C 0.29811 0.03522 0.85967 0.0
C485 C 0.31398 0.07367 0.84039 0.0
C486 C 0.32699 0.02993 0.86515 0.0
N487 N 0.2922 0.05636 0.84723 0.0
C488 C 0.34319 0.06919 0.84551 0.0
C489 C 0.35002 0.04677 0.85785 0.0
H490 H 0.2804 0.02227 0.8653 0.0
H491 H 0.30881 0.09079 0.83084 0.0
C492 C 0.21451 0.00292 0.79387 0.0
N493 N 0.20261 0.00351 0.81062 0.0
C494 C 0.21321 0.97727 0.78353 0.0
C495 C 0.18544 0.95389 0.80726 0.0
C496 C 0.18696 0.98016 0.81704 0.0
C497 C 0.19949 0.95199 0.79051 0.0
H498 H 0.22611 0.02199 0.78878 0.0
H499 H 0.17657 0.98143 0.83003 0.0
O500 O 0.23107 0.09596 0.84931 0.0
O501 O 0.18001 0.06733 0.83025 0.0
O502 O 0.24295 0.06164 0.81383 0.0
O503 O 0.22764 0.02835 0.84971 0.0
H504 H 0.25078 0.09401 0.8828 0.0
H505 H 0.26341 0.13433 0.83101 0.0
H506 H 0.29264 0.12344 0.89447 0.0
H507 H 0.30471 0.1634 0.84367 0.0
H508 H 0.10197 0.00463 0.82851 0.0
H509 H 0.16983 0.07017 0.79536 0.0
H510 H 0.14106 0.03152 0.84518 0.0
H511 H 0.1303 0.04251 0.77954 0.0
H512 H 0.20561 0.19946 0.81855 0.0
H513 H 0.22498 0.1521 0.76952 0.0
H514 H 0.20514 0.05487 0.91838 0.0
H515 H 0.12186 0.08582 0.89756 0.0
H516 H 0.2727 0.01148 0.81208 0.0
H517 H 0.2744 0.10369 0.79808 0.0
H518 H 0.32191 0.00566 0.79805 0.0
H519 H 0.32333 0.09618 0.78404 0.0
H520 H 0.26288 0.98534 0.83878 0.0
H521 H 0.18365 0.00484 0.86827 0.0
H522 H 0.25494 0.93208 0.84489 0.0
H523 H 0.17743 0.95132 0.87415 0.0
H524 H 0.33124 0.01281 0.87497 0.0
H525 H 0.3603 0.0826 0.83949 0.0
H526 H 0.22425 0.97676 0.77064 0.0
H527 H 0.1741 0.93502 0.81294 0.0
Li528 Li 0.45747 0.70934 0.33057 0.0
Li529 Li 0.42553 0.6999 0.355 0.0
Li530 Li 0.40484 0.71812 0.32555 0.0
Li531 Li 0.4348 0.74981 0.34642 0.0
C532 C 0.43517 0.65823 0.3199 0.0
N533 N 0.45649 0.61492 0.29725 0.0
C534 C 0.45794 0.63967 0.32556 0.0
C535 C 0.4231 0.65466 0.30277 0.0
C536 C 0.46849 0.61796 0.31388 0.0
C537 C 0.4342 0.63264 0.29151 0.0
C538 C 0.47522 0.70934 0.37089 0.0
C539 C 0.4787 0.70714 0.4032 0.0
N540 N 0.49726 0.68369 0.40179 0.0
C541 C 0.49434 0.68521 0.36977 0.0
C542 C 0.4674 0.72047 0.38775 0.0
C543 C 0.50529 0.67259 0.38554 0.0
C544 C 0.5184 0.712 0.32699 0.0
N545 N 0.49413 0.70145 0.31843 0.0
C546 C 0.52272 0.69123 0.29214 0.0
C547 C 0.49585 0.69094 0.30134 0.0
C548 C 0.54798 0.7026 0.30058 0.0
C549 C 0.54563 0.71256 0.31836 0.0
H550 H 0.51638 0.72157 0.34021 0.0
H551 H 0.47616 0.68387 0.29445 0.0
C552 C 0.39888 0.68753 0.38804 0.0
N553 N 0.41734 0.67591 0.37555 0.0
C554 C 0.39602 0.67429 0.40483 0.0
C555 C 0.42965 0.63605 0.39526 0.0
C556 C 0.43187 0.65011 0.37858 0.0
C557 C 0.41223 0.64872 0.40881 0.0
H558 H 0.38722 0.70775 0.38523 0.0
H559 H 0.4464 0.64128 0.36843 0.0
C560 C 0.45644 0.75442 0.30736 0.0
N561 N 0.49637 0.77224 0.28156 0.0
C562 C 0.48038 0.77218 0.31211 0.0
C563 C 0.45266 0.74589 0.28947 0.0
C564 C 0.50038 0.78089 0.29887 0.0
C565 C 0.47312 0.75511 0.27662 0.0
C566 C 0.38027 0.7553 0.35701 0.0
C567 C 0.35814 0.7682 0.34657 0.0
C568 C 0.38708 0.7674 0.37378 0.0
C569 C 0.34346 0.79317 0.35298 0.0
C570 C 0.37193 0.79241 0.37971 0.0
N571 N 0.35062 0.80468 0.36927 0.0
C572 C 0.35009 0.69927 0.31127 0.0
C573 C 0.37031 0.74239 0.29807 0.0
C574 C 0.32423 0.7026 0.30128 0.0
N575 N 0.37226 0.71924 0.30962 0.0
C576 C 0.34491 0.74657 0.28783 0.0
C577 C 0.3212 0.72682 0.28958 0.0
H578 H 0.35215 0.68129 0.32075 0.0
H579 H 0.38798 0.75837 0.29741 0.0
C580 C 0.46135 0.79687 0.36555 0.0
N581 N 0.44087 0.78969 0.35298 0.0
C582 C 0.46825 0.82642 0.36878 0.0
C583 C 0.43261 0.84052 0.34621 0.0
C584 C 0.42635 0.81072 0.34345 0.0
C585 C 0.45421 0.84862 0.35878 0.0
H586 H 0.47319 0.77967 0.37252 0.0
H587 H 0.41055 0.80425 0.33332 0.0
O588 O 0.42441 0.6795 0.33114 0.0
O589 O 0.46379 0.72165 0.3556 0.0
O590 O 0.43718 0.74487 0.32022 0.0
O591 O 0.39523 0.73107 0.35083 0.0
H592 H 0.46758 0.6422 0.33874 0.0
H593 H 0.40544 0.66883 0.29819 0.0
H594 H 0.48622 0.60356 0.31804 0.0
H595 H 0.42514 0.62967 0.2782 0.0
H596 H 0.4726 0.71537 0.41632 0.0
H597 H 0.50037 0.676 0.35689 0.0
H598 H 0.45238 0.73887 0.38892 0.0
H599 H 0.51999 0.65383 0.38487 0.0
H600 H 0.52353 0.68343 0.2784 0.0
H601 H 0.56429 0.72222 0.32525 0.0
H602 H 0.38179 0.6844 0.41475 0.0
H603 H 0.44255 0.61637 0.39779 0.0
H604 H 0.48375 0.77877 0.32593 0.0
H605 H 0.43441 0.73187 0.28562 0.0
H606 H 0.51915 0.79443 0.30238 0.0
H607 H 0.47061 0.7485 0.26275 0.0
H608 H 0.35231 0.7591 0.33365 0.0
H609 H 0.40423 0.7579 0.38202 0.0
H610 H 0.32636 0.8034 0.345 0.0
H611 H 0.37719 0.80212 0.39258 0.0
H612 H 0.30663 0.68669 0.30291 0.0
H613 H 0.34339 0.76582 0.27925 0.0
H614 H 0.48541 0.83173 0.37836 0.0
H615 H 0.42119 0.857 0.3383 0.0
Li616 Li 0.79007 0.96398 0.82679 0.0
Li617 Li 0.74903 0.94394 0.84302 0.0
Li618 Li 0.79775 0.93932 0.85569 0.0
Li619 Li 0.78249 0.90946 0.82873 0.0
C620 C 0.76638 0.00437 0.85071 0.0
N621 N 0.74829 0.06261 0.84972 0.0
C622 C 0.74402 0.01312 0.83898 0.0
C623 C 0.7795 0.02524 0.862 0.0
C624 C 0.73519 0.04265 0.83867 0.0
C625 C 0.77006 0.05458 0.86129 0.0
C626 C 0.73353 0.93662 0.80627 0.0
C627 C 0.69732 0.90604 0.7915 0.0
N628 N 0.68526 0.93053 0.78391 0.0
C629 C 0.7209 0.96145 0.79816 0.0
C630 C 0.72175 0.90865 0.80279 0.0
C631 C 0.69646 0.95793 0.78698 0.0
C632 C 0.79209 0.99451 0.79403 0.0
N633 N 0.80079 0.99605 0.81146 0.0
C634 C 0.81223 0.04731 0.80827 0.0
C635 C 0.81203 0.0214 0.81845 0.0
C636 C 0.80099 0.047 0.79069 0.0
C637 C 0.79203 0.01984 0.78334 0.0
H638 H 0.78352 0.974 0.78875 0.0
H639 H 0.81899 0.02209 0.83231 0.0
C640 C 0.70495 0.96859 0.86489 0.0
N641 N 0.709 0.95093 0.85032 0.0
C642 C 0.67661 0.97617 0.87046 0.0
C643 C 0.65698 0.94569 0.84669 0.0
C644 C 0.68569 0.93884 0.84154 0.0
C645 C 0.65218 0.96502 0.86113 0.0
H646 H 0.72378 0.97705 0.87212 0.0
H647 H 0.68917 0.92386 0.83055 0.0
C648 C 0.84755 0.94538 0.83321 0.0
N649 N 0.90276 0.97097 0.83445 0.0
C650 C 0.87062 0.93363 0.82306 0.0
C651 C 0.85254 0.97013 0.844 0.0
C652 C 0.89839 0.94689 0.82387 0.0
C653 C 0.88061 0.98276 0.84444 0.0
C654 C 0.74403 0.89752 0.86319 0.0
C655 C 0.74012 0.90605 0.88107 0.0
C656 C 0.72329 0.87913 0.85499 0.0
C657 C 0.71534 0.89615 0.89043 0.0
C658 C 0.69882 0.86969 0.86481 0.0
N659 N 0.69537 0.87835 0.88217 0.0
C660 C 0.80813 0.95678 0.89091 0.0
C661 C 0.84068 0.91933 0.88085 0.0
C662 C 0.81996 0.95539 0.90815 0.0
N663 N 0.81834 0.93865 0.87779 0.0
C664 C 0.85322 0.9172 0.89795 0.0
C665 C 0.84242 0.935 0.91196 0.0
H666 H 0.79006 0.97163 0.88811 0.0
H667 H 0.84812 0.90499 0.87015 0.0
C668 C 0.78888 0.87175 0.79866 0.0
N669 N 0.78546 0.87254 0.81678 0.0
C670 C 0.78631 0.845 0.78943 0.0
C671 C 0.7781 0.82034 0.81778 0.0
C672 C 0.78092 0.84752 0.82645 0.0
C673 C 0.78012 0.81889 0.79897 0.0
H674 H 0.79233 0.89208 0.79132 0.0
H675 H 0.77824 0.84884 0.84086 0.0
O676 O 0.77587 0.97568 0.85097 0.0
O677 O 0.75788 0.93957 0.81699 0.0
O678 O 0.82027 0.93262 0.83251 0.0
O679 O 0.76768 0.90772 0.85365 0.0
H680 H 0.73358 0.99724 0.83026 0.0
H681 H 0.79704 0.0189 0.87105 0.0
H682 H 0.71792 0.04971 0.82962 0.0
H683 H 0.78011 0.07099 0.86988 0.0
H684 H 0.68788 0.88455 0.78883 0.0
H685 H 0.72992 0.98324 0.80035 0.0
H686 H 0.73091 0.88917 0.809 0.0
H687 H 0.68646 0.97697 0.78067 0.0
H688 H 0.81927 0.06768 0.81456 0.0
H689 H 0.78383 0.01841 0.76971 0.0
H690 H 0.67384 0.99065 0.88191 0.0
H691 H 0.63876 0.93655 0.83913 0.0
H692 H 0.86709 0.91447 0.81464 0.0
H693 H 0.83497 0.97957 0.85193 0.0
H694 H 0.91646 0.93803 0.81608 0.0
H695 H 0.88477 0.00194 0.85272 0.0
H696 H 0.75588 0.92039 0.88758 0.0
H697 H 0.72581 0.87256 0.84112 0.0
H698 H 0.71194 0.90271 0.90424 0.0
H699 H 0.68249 0.85561 0.8586 0.0
H700 H 0.81122 0.96976 0.91848 0.0
H701 H 0.87028 0.90096 0.90035 0.0
H702 H 0.78852 0.84489 0.77495 0.0
H703 H 0.77303 0.80094 0.8257 0.0
C704 C 0.08924 0.10822 0.06855 0.0
C705 C 0.10004 0.13585 0.07429 0.0
C706 C 0.09446 0.09826 0.05103 0.0
C707 C 0.1466 0.1022 0.01499 0.0
H708 H 0.08262 0.09154 0.9811 0.0
C709 C 0.16981 0.09573 0.93974 0.0
C710 C 0.15258 0.07722 0.92892 0.0
C711 C 0.16212 0.10081 0.95758 0.0
C712 C 0.10075 0.09383 0.99044 0.0
H713 H 0.12422 0.17483 0.06562 0.0
H714 H 0.13458 0.15659 0.03563 0.0
H715 H 0.07168 0.10269 0.01257 0.0
H716 H 0.11365 0.04973 0.928 0.0
H717 H 0.10055 0.05768 0.95956 0.0
H718 H 0.17581 0.09286 0.9933 0.0
C719 C 0.122 0.14284 0.04474 0.0
C720 C 0.09443 0.1003 0.00842 0.0
C721 C 0.11627 0.15309 0.06204 0.0
C722 C 0.12717 0.06418 0.93614 0.0
C723 C 0.11969 0.06885 0.95418 0.0
C724 C 0.15294 0.0952 0.99717 0.0
C725 C 0.11108 0.11545 0.03909 0.0
C726 C 0.11735 0.10516 0.02069 0.0
C727 C 0.13729 0.08701 0.96519 0.0
C728 C 0.13015 0.09171 0.98451 0.0
H729 H 0.07698 0.09409 0.07759 0.0
H730 H 0.08597 0.07696 0.0469 0.0
H731 H 0.1646 0.10562 0.02431 0.0
H732 H 0.18929 0.10636 0.93435 0.0
H733 H 0.17571 0.11569 0.96539 0.0
C734 C 0.37785 0.59989 0.5664 0.0
C735 C 0.36934 0.57148 0.57197 0.0
C736 C 0.38815 0.60469 0.54897 0.0
C737 C 0.38166 0.57377 0.50369 0.0
H738 H 0.44178 0.63168 0.49236 0.0
C739 C 0.41005 0.606 0.43042 0.0
C740 C 0.4121 0.63655 0.42731 0.0
C741 C 0.40912 0.59501 0.44799 0.0
C742 C 0.42488 0.61549 0.49531 0.0
H743 H 0.36666 0.52553 0.56388 0.0
H744 H 0.38456 0.53397 0.53339 0.0
H745 H 0.43317 0.61776 0.52358 0.0
H746 H 0.41607 0.67937 0.44012 0.0
H747 H 0.41389 0.66035 0.47061 0.0
H748 H 0.37278 0.57213 0.47549 0.0
C749 C 0.38281 0.55259 0.54246 0.0
C750 C 0.41997 0.60752 0.51319 0.0
C751 C 0.37256 0.54777 0.55992 0.0
C752 C 0.41396 0.65576 0.44208 0.0
C753 C 0.41315 0.64481 0.45957 0.0
C754 C 0.38656 0.58176 0.48581 0.0
C755 C 0.39016 0.5812 0.53668 0.0
C756 C 0.39787 0.58705 0.51762 0.0
C757 C 0.41049 0.61434 0.46276 0.0
C758 C 0.40776 0.60322 0.48146 0.0
H759 H 0.37525 0.61872 0.57521 0.0
H760 H 0.39324 0.62707 0.54488 0.0
H761 H 0.36422 0.55819 0.50666 0.0
H762 H 0.40857 0.59068 0.4193 0.0
H763 H 0.40727 0.57139 0.45002 0.0
C764 C 0.90603 0.8932 0.07099 0.0
C765 C 0.90641 0.86257 0.07406 0.0
C766 C 0.90307 0.90432 0.05354 0.0
C767 C 0.87615 0.91983 0.0172 0.0
H768 H 0.91273 0.87975 0.97694 0.0
C769 C 0.83295 0.931 0.94501 0.0
C770 C 0.85309 0.93108 0.93067 0.0
C771 C 0.84248 0.92608 0.96256 0.0
C772 C 0.90267 0.89151 0.98801 0.0
H773 H 0.90523 0.81964 0.06114 0.0
H774 H 0.89939 0.83891 0.03092 0.0
H775 H 0.92513 0.86504 0.00747 0.0
H776 H 0.89921 0.92672 0.92362 0.0
H777 H 0.91596 0.91818 0.95439 0.0
H778 H 0.85369 0.94632 0.99773 0.0
C779 C 0.90158 0.85443 0.0419 0.0
C780 C 0.90951 0.88283 0.00553 0.0
C781 C 0.90449 0.84336 0.05928 0.0
C782 C 0.88311 0.92648 0.93435 0.0
C783 C 0.89269 0.92159 0.95197 0.0
C784 C 0.86934 0.92855 -0.00032 0.0
C785 C 0.90064 0.88503 0.0388 0.0
C786 C 0.89585 0.89645 0.02032 0.0
C787 C 0.87243 0.92113 0.96627 0.0
C788 C 0.88204 0.91407 0.98487 0.0
H789 H 0.9074 0.90856 0.08211 0.0
H790 H 0.90267 0.92802 0.05159 0.0
H791 H 0.8651 0.93069 0.02826 0.0
H792 H 0.80959 0.93388 0.94262 0.0
H793 H 0.82618 0.92524 0.97317 0.0
C794 C 0.60467 0.33704 0.43921 0.0
C795 C 0.59586 0.35782 0.42624 0.0
C796 C 0.6093 0.3455 0.45696 0.0
C797 C 0.59178 0.40077 0.49112 0.0
H798 H 0.66363 0.37174 0.51305 0.0
C799 C 0.63226 0.43331 0.56297 0.0
C800 C 0.64626 0.4109 0.57284 0.0
C801 C 0.62366 0.42828 0.54515 0.0
C802 C 0.64327 0.37974 0.50724 0.0
H803 H 0.58407 0.40371 0.42199 0.0
H804 H 0.59197 0.41849 0.45331 0.0
H805 H 0.65362 0.36092 0.48171 0.0
H806 H 0.66026 0.3652 0.57246 0.0
H807 H 0.64468 0.35614 0.54168 0.0
H808 H 0.58134 0.41928 0.51689 0.0
C809 C 0.59533 0.39564 0.44955 0.0
C810 C 0.63762 0.37363 0.48924 0.0
C811 C 0.59084 0.38717 0.43165 0.0
C812 C 0.64993 0.38297 0.56501 0.0
C813 C 0.64117 0.37788 0.54736 0.0
C814 C 0.5974 0.40681 0.50927 0.0
C815 C 0.60506 0.37492 0.46229 0.0
C816 C 0.61162 0.38363 0.48106 0.0
C817 C 0.62882 0.4007 0.53701 0.0
C818 C 0.62299 0.39587 0.51759 0.0
H819 H 0.60784 0.31406 0.43568 0.0
H820 H 0.61616 0.32891 0.46657 0.0
H821 H 0.57152 0.40868 0.48513 0.0
H822 H 0.62931 0.45508 0.56872 0.0
H823 H 0.61423 0.44632 0.53754 0.0
C824 C 0.21389 0.21397 0.23029 0.0
C825 C 0.19826 0.23637 0.22137 0.0
C826 C 0.24038 0.22032 0.23909 0.0
C827 C 0.30121 0.27435 0.24008 0.0
H828 H 0.3164 0.24151 0.28725 0.0
C829 C 0.40199 0.30896 0.28297 0.0
C830 C 0.41616 0.28658 0.29277 0.0
C831 C 0.37532 0.30327 0.27419 0.0
C832 C 0.31268 0.25059 0.27399 0.0
H833 H 0.19848 0.28291 0.2144 0.0
H834 H 0.24443 0.29401 0.2299 0.0
H835 H 0.27018 0.23033 0.27207 0.0
H836 H 0.41417 0.24039 0.3004 0.0
H837 H 0.36798 0.23042 0.28502 0.0
H838 H 0.3438 0.29442 0.24193 0.0
C839 C 0.23628 0.27152 0.23006 0.0
C840 C 0.28616 0.24418 0.2653 0.0
C841 C 0.20976 0.26522 0.22137 0.0
C842 C 0.40342 0.2583 0.29332 0.0
C843 C 0.37691 0.25259 0.28451 0.0
C844 C 0.3278 0.28067 0.24875 0.0
C845 C 0.25191 0.24916 0.23902 0.0
C846 C 0.28013 0.25595 0.24824 0.0
C847 C 0.36239 0.27502 0.27493 0.0
C848 C 0.33389 0.26881 0.26579 0.0
H849 H 0.20554 0.19157 0.2306 0.0
H850 H 0.25204 0.20255 0.24574 0.0
H851 H 0.29737 0.28346 0.22684 0.0
H852 H 0.41124 0.33099 0.28238 0.0
H853 H 0.36458 0.32113 0.26707 0.0
C854 C 0.2491 0.73263 0.69844 0.0
C855 C 0.2643 0.7101 0.7076 0.0
C856 C 0.24127 0.75873 0.70723 0.0
C857 C 0.22532 0.78862 0.75177 0.0
H858 H 0.24017 0.86476 0.72973 0.0
C859 C 0.21134 0.89807 0.79052 0.0
C860 C 0.20219 0.9233 0.78107 0.0
C861 C 0.21714 0.87172 0.78144 0.0
C862 C 0.23534 0.8437 0.73596 0.0
H863 H 0.28373 0.69792 0.73319 0.0
H864 H 0.26937 0.74324 0.7486 0.0
H865 H 0.25448 0.81974 0.71407 0.0
H866 H 0.19073 0.94044 0.75484 0.0
H867 H 0.19993 0.89415 0.73899 0.0
H868 H 0.20571 0.81235 0.77351 0.0
C869 C 0.26346 0.74049 0.73461 0.0
C870 C 0.24373 0.81792 0.72701 0.0
C871 C 0.27162 0.7145 0.72577 0.0
C872 C 0.198 0.92137 0.76242 0.0
C873 C 0.20348 0.8949 0.75336 0.0
C874 C 0.21661 0.81438 0.76064 0.0
C875 C 0.24812 0.7628 0.72544 0.0
C876 C 0.23898 0.79014 0.73487 0.0
C877 C 0.21365 0.86986 0.7627 0.0
C878 C 0.22169 0.8423 0.75292 0.0
H879 H 0.24251 0.72987 0.68457 0.0
H880 H 0.22917 0.77544 0.69988 0.0
H881 H 0.22101 0.76745 0.75802 0.0
H882 H 0.21523 0.89905 0.80486 0.0
H883 H 0.22538 0.85313 0.78908 0.0
C884 C 0.60323 0.70105 0.2992 0.0
C885 C 0.57613 0.70636 0.29065 0.0
C886 C 0.62976 0.70757 0.29055 0.0
C887 C 0.66291 0.72269 0.2461 0.0
H888 H 0.72261 0.76305 0.27413 0.0
C889 C 0.76615 0.77385 0.21324 0.0
C890 C 0.79318 0.76978 0.22213 0.0
C891 C 0.73962 0.76647 0.22165 0.0
C892 C 0.70633 0.75151 0.26615 0.0
H893 H 0.55572 0.72223 0.26616 0.0
H894 H 0.60203 0.7334 0.251 0.0
H895 H 0.67671 0.74796 0.28839 0.0
H896 H 0.81335 0.75557 0.24708 0.0
H897 H 0.76714 0.74222 0.26162 0.0
H898 H 0.69255 0.72619 0.22386 0.0
C899 C 0.60276 0.72393 0.26435 0.0
C900 C 0.68001 0.74282 0.27434 0.0
C901 C 0.57621 0.71744 0.27301 0.0
C902 C 0.79296 0.75872 0.23978 0.0
C903 C 0.76643 0.75134 0.24819 0.0
C904 C 0.68926 0.73133 0.23791 0.0
C905 C 0.62983 0.71954 0.27313 0.0
C906 C 0.65799 0.72831 0.26441 0.0
C907 C 0.73944 0.75483 0.23915 0.0
C908 C 0.71129 0.74587 0.24784 0.0
H909 H 0.60393 0.69215 0.31269 0.0
H910 H 0.65024 0.70339 0.29756 0.0
H911 H 0.64654 0.71124 0.23813 0.0
H912 H 0.7655 0.78198 0.19957 0.0
H913 H 0.71922 0.76983 0.2144 0.0
C914 C 0.76067 0.29537 0.72824 0.0
C915 C 0.73432 0.29805 0.71845 0.0
C916 C 0.76837 0.26852 0.73625 0.0
C917 C 0.75386 0.18852 0.73259 0.0
H918 H 0.79084 0.18486 0.77947 0.0
C919 C 0.76966 0.07924 0.77109 0.0
C920 C 0.79589 0.07512 0.78082 0.0
C921 C 0.76339 0.10636 0.76303 0.0
C922 C 0.7809 0.18554 0.76625 0.0
H923 H 0.6948 0.27497 0.71006 0.0
H924 H 0.70811 0.2282 0.72415 0.0
H925 H 0.77649 0.23262 0.76704 0.0
H926 H 0.83648 0.09621 0.78926 0.0
H927 H 0.82549 0.14369 0.77516 0.0
H928 H 0.75812 0.14147 0.73183 0.0
C929 C 0.72313 0.24669 0.72532 0.0
C930 C 0.77262 0.21291 0.75915 0.0
C931 C 0.71545 0.27351 0.7173 0.0
C932 C 0.81595 0.09872 0.78202 0.0
C933 C 0.80963 0.12593 0.77398 0.0
C934 C 0.76212 0.16119 0.73969 0.0
C935 C 0.74989 0.24374 0.73466 0.0
C936 C 0.75884 0.21471 0.74227 0.0
C937 C 0.78314 0.13013 0.76452 0.0
C938 C 0.77559 0.15934 0.75665 0.0
H939 H 0.77592 0.3137 0.72915 0.0
H940 H 0.78928 0.26694 0.74317 0.0
H941 H 0.74387 0.18914 0.71939 0.0
H942 H 0.75337 0.06183 0.77021 0.0
H943 H 0.74258 0.10897 0.7561 0.0
C944 C 0.70769 0.23548 0.27534 0.0
C945 C 0.69846 0.26507 0.27643 0.0
C946 C 0.73426 0.22812 0.26705 0.0
C947 C 0.80604 0.25945 0.25357 0.0
H948 H 0.81027 0.18946 0.22367 0.0
C949 C 0.91661 0.21588 0.22595 0.0
C950 C 0.91686 0.20685 0.20789 0.0
C951 C 0.89 0.22174 0.2347 0.0
C952 C 0.80945 0.20916 0.2319 0.0
H953 H 0.70993 0.31014 0.26954 0.0
H954 H 0.75638 0.29727 0.25491 0.0
H955 H 0.7636 0.20323 0.23747 0.0
H956 H 0.8893 0.19588 0.18507 0.0
H957 H 0.84293 0.20651 0.20023 0.0
H958 H 0.85174 0.26576 0.24764 0.0
C959 C 0.74315 0.27979 0.2607 0.0
C960 C 0.78275 0.2169 0.23996 0.0
C961 C 0.71652 0.28717 0.26904 0.0
C962 C 0.88986 0.20303 0.19894 0.0
C963 C 0.86327 0.20887 0.20769 0.0
C964 C 0.83276 0.25171 0.2455 0.0
C965 C 0.75234 0.25015 0.25962 0.0
C966 C 0.78071 0.24215 0.25089 0.0
C967 C 0.86302 0.21869 0.2256 0.0
C968 C 0.83477 0.22648 0.23455 0.0
H969 H 0.69465 0.21796 0.28125 0.0
H970 H 0.74091 0.20515 0.26677 0.0
H971 H 0.80533 0.27885 0.26206 0.0
H972 H 0.93703 0.21936 0.23316 0.0
H973 H 0.89057 0.22888 0.24857 0.0
C974 C 0.25649 0.42608 0.72818 0.0
C975 C 0.28319 0.42923 0.71877 0.0
C976 C 0.24958 0.39966 0.73689 0.0
C977 C 0.28196 0.32934 0.7534 0.0
H978 H 0.2012 0.30182 0.75015 0.0
C979 C 0.24757 0.21092 0.77283 0.0
C980 C 0.22225 0.20805 0.78357 0.0
C981 C 0.25483 0.23807 0.7651 0.0
C982 C 0.22377 0.30935 0.7513 0.0
H983 H 0.32398 0.40713 0.71172 0.0
H984 H 0.31151 0.36072 0.7264 0.0
H985 H 0.21477 0.34898 0.73672 0.0
H986 H 0.1844 0.23121 0.79432 0.0
H987 H 0.19703 0.27874 0.78069 0.0
H988 H 0.29096 0.2893 0.7677 0.0
C989 C 0.29606 0.37888 0.72726 0.0
C990 C 0.23157 0.33644 0.74367 0.0
C991 C 0.30308 0.40542 0.71865 0.0
C992 C 0.20409 0.23281 0.78616 0.0
C993 C 0.21122 0.25993 0.77828 0.0
C994 C 0.27419 0.30214 0.76091 0.0
C995 C 0.26904 0.37554 0.7363 0.0
C996 C 0.26077 0.34681 0.74463 0.0
C997 C 0.23685 0.2629 0.76783 0.0
C998 C 0.24502 0.29186 0.75993 0.0
H999 H 0.24038 0.4437 0.72838 0.0
H1000 H 0.22881 0.3981 0.74396 0.0
H1001 H 0.30452 0.33681 0.75465 0.0
H1002 H 0.26221 0.19235 0.77077 0.0
H1003 H 0.27455 0.23962 0.75697 0.0
C1004 C 0.29283 0.74348 0.26238 0.0
C1005 C 0.29296 0.73254 0.28005 0.0
C1006 C 0.26632 0.75068 0.25388 0.0
C1007 C 0.18586 0.73807 0.25587 0.0
H1008 H 0.18206 0.81047 0.22814 0.0
C1009 C 0.07586 0.78281 0.22824 0.0
C1010 C 0.07604 0.7933 0.21047 0.0
C1011 C 0.10227 0.77655 0.23712 0.0
C1012 C 0.18281 0.79005 0.2357 0.0
H1013 H 0.26517 0.7206 0.30262 0.0
H1014 H 0.219 0.73299 0.28777 0.0
H1015 H 0.22823 0.7962 0.24245 0.0
H1016 H 0.10417 0.80643 0.18834 0.0
H1017 H 0.15021 0.79514 0.20372 0.0
H1018 H 0.14049 0.73184 0.24907 0.0
C1019 C 0.23938 0.73566 0.28039 0.0
C1020 C 0.2093 0.78183 0.24387 0.0
C1021 C 0.26588 0.72848 0.28889 0.0
C1022 C 0.10327 0.79816 0.20197 0.0
C1023 C 0.12967 0.79193 0.21085 0.0
C1024 C 0.15938 0.74627 0.24769 0.0
C1025 C 0.23929 0.74711 0.26284 0.0
C1026 C 0.21115 0.75572 0.25404 0.0
C1027 C 0.12949 0.78065 0.22845 0.0
C1028 C 0.15753 0.77235 0.23749 0.0
H1029 H 0.31325 0.74648 0.25508 0.0
H1030 H 0.267 0.75896 0.24024 0.0
H1031 H 0.18662 0.71762 0.2634 0.0
H1032 H 0.05527 0.77849 0.23511 0.0
H1033 H 0.10135 0.76827 0.25075 0.0
C1034 C 0.72756 0.57478 0.73302 0.0
C1035 C 0.71494 0.57673 0.71583 0.0
C1036 C 0.73306 0.60032 0.74304 0.0
C1037 C 0.71385 0.67936 0.74711 0.0
H1038 H 0.79165 0.68664 0.76815 0.0
C1039 C 0.75748 0.79075 0.77336 0.0
C1040 C 0.77395 0.79071 0.78936 0.0
C1041 C 0.75003 0.76425 0.76489 0.0
C1042 C 0.76969 0.68485 0.76259 0.0
H1043 H 0.69695 0.60677 0.69601 0.0
H1044 H 0.70649 0.65135 0.71349 0.0
H1045 H 0.77757 0.64084 0.75324 0.0
H1046 H 0.7961 0.76261 0.80871 0.0
H1047 H 0.78247 0.71638 0.79418 0.0
H1048 H 0.70587 0.72329 0.75646 0.0
C1049 C 0.71215 0.63012 0.71924 0.0
C1050 C 0.76162 0.65857 0.75405 0.0
C1051 C 0.70687 0.60462 0.70917 0.0
C1052 C 0.78314 0.76347 0.79651 0.0
C1053 C 0.77558 0.73695 0.78807 0.0
C1054 C 0.72185 0.70558 0.75573 0.0
C1055 C 0.72583 0.6283 0.73614 0.0
C1056 C 0.7337 0.65562 0.74609 0.0
C1057 C 0.75871 0.73699 0.77223 0.0
C1058 C 0.74997 0.70877 0.76345 0.0
H1059 H 0.73427 0.55362 0.73843 0.0
H1060 H 0.74334 0.59821 0.7561 0.0
H1061 H 0.69205 0.67761 0.7413 0.0
H1062 H 0.74967 0.81124 0.76758 0.0
H1063 H 0.73743 0.76518 0.75256 0.0
C1064 C 0.95925 0.60625 0.12358 0.0
C1065 C 0.95416 0.61843 0.14067 0.0
C1066 C 0.9668 0.57645 0.12176 0.0
C1067 C 0.96516 0.50531 0.14623 0.0
H1068 H 0.02965 0.48375 0.11468 0.0
C1069 C 0.02697 0.39603 0.15376 0.0
C1070 C 0.03305 0.37976 0.13813 0.0
C1071 C 0.01612 0.42474 0.1526 0.0
C1072 C 0.01136 0.48941 0.12336 0.0
H1073 H 0.95345 0.60903 0.16923 0.0
H1074 H 0.96657 0.5573 0.16607 0.0
H1075 H 0.01202 0.53476 0.11521 0.0
H1076 H 0.03306 0.38099 0.10904 0.0
H1077 H 0.01405 0.43154 0.10701 0.0
H1078 H 0.96495 0.46019 0.1547 0.0
C1079 C 0.96414 0.57051 0.15404 0.0
C1080 C 0.00122 0.51856 0.12364 0.0
C1081 C 0.9566 0.60019 0.15585 0.0
C1082 C 0.02845 0.39301 0.12129 0.0
C1083 C 0.01775 0.42192 0.12013 0.0
C1084 C 0.97535 0.47628 0.146 0.0
C1085 C 0.9694 0.5583 0.13699 0.0
C1086 C 0.97837 0.52692 0.13534 0.0
C1087 C 0.01115 0.4379 0.13579 0.0
C1088 C 0.99891 0.46816 0.13482 0.0
H1089 H 0.95727 0.61972 0.11162 0.0
H1090 H 0.97044 0.5676 0.10844 0.0
H1091 H 0.94709 0.51091 0.1551 0.0
H1092 H 0.02989 0.3863 0.16692 0.0
H1093 H 0.0116 0.43668 0.16489 0.0
C1094 C 0.90724 0.4322 0.62923 0.0
C1095 C 0.88548 0.45406 0.62777 0.0
C1096 C 0.93659 0.43877 0.62531 0.0
C1097 C 0.98568 0.49605 0.6051 0.0
H1098 H 0.04227 0.46392 0.63885 0.0
C1099 C 0.10069 0.54613 0.6193 0.0
C1100 C 0.12418 0.5264 0.62196 0.0
C1101 C 0.07211 0.53552 0.61664 0.0
C1102 C 0.02684 0.47271 0.62913 0.0
H1103 H 0.87703 0.49967 0.62068 0.0
H1104 H 0.92833 0.51149 0.61433 0.0
H1105 H 0.99118 0.44837 0.64045 0.0
H1106 H 0.13632 0.48012 0.62337 0.0
H1107 H 0.08645 0.46165 0.61869 0.0
H1108 H 0.02151 0.52143 0.59438 0.0
C1109 C 0.9228 0.48905 0.61805 0.0
C1110 C 0.9975 0.46373 0.63 0.0
C1111 C 0.89339 0.48235 0.62175 0.0
C1112 C 0.11872 0.49587 0.6212 0.0
C1113 C 0.09016 0.48529 0.61868 0.0
C1114 C 0.01506 0.50527 0.60436 0.0
C1115 C 0.94485 0.46749 0.62011 0.0
C1116 C 0.97646 0.47547 0.61811 0.0
C1117 C 0.06649 0.505 0.61677 0.0
C1118 C 0.03584 0.49385 0.61648 0.0
H1119 H 0.90159 0.41011 0.63363 0.0
H1120 H 0.95288 0.42144 0.62665 0.0
H1121 H 0.97017 0.50521 0.59557 0.0
H1122 H 0.10432 0.56976 0.61967 0.0
H1123 H 0.05424 0.55121 0.61531 0.0
C1124 C 0.53967 0.10079 0.34392 0.0
C1125 C 0.54333 0.11836 0.3593 0.0
C1126 C 0.53204 0.07109 0.34547 0.0
C1127 C 0.49675 0.01803 0.37595 0.0
H1128 H 0.53056 0.96087 0.3431 0.0
C1129 C 0.4695 0.89247 0.37725 0.0
C1130 C 0.46381 0.87977 0.36037 0.0
C1131 C 0.4802 0.92137 0.37849 0.0
C1132 C 0.52084 0.97662 0.3523 0.0
H1133 H 0.5422 0.11845 0.38841 0.0
H1134 H 0.52887 0.06628 0.39113 0.0
H1135 H 0.54865 0.01152 0.34304 0.0
H1136 H 0.46491 0.8873 0.33162 0.0
H1137 H 0.48324 0.93769 0.33381 0.0
H1138 H 0.46877 0.98296 0.38509 0.0
C1139 C 0.53166 0.07568 0.37787 0.0
C1140 C 0.53117 0.00561 0.35227 0.0
C1141 C 0.53931 0.1055 0.37631 0.0
C1142 C 0.46873 0.8966 0.34482 0.0
C1143 C 0.47958 0.92531 0.34606 0.0
C1144 C 0.48648 0.98892 0.37603 0.0
C1145 C 0.52788 0.05819 0.36244 0.0
C1146 C 0.51884 0.0268 0.36382 0.0
C1147 C 0.48569 0.9379 0.36288 0.0
C1148 C 0.49803 0.96811 0.36394 0.0
H1149 H 0.54194 0.11016 0.33061 0.0
H1150 H 0.52867 0.05842 0.33331 0.0
H1151 H 0.48664 0.03391 0.38491 0.0
H1152 H 0.46576 0.88002 0.38946 0.0
H1153 H 0.48479 0.93054 0.39163 0.0
C1154 C 0.40142 0.06304 0.86542 0.0
C1155 C 0.38106 0.04015 0.86252 0.0
C1156 C 0.43101 0.05661 0.8688 0.0
C1157 C 0.48173 0.99587 0.88169 0.0
H1158 H 0.53921 0.04125 0.85482 0.0
C1159 C 0.59863 0.95398 0.86585 0.0
C1160 C 0.6219 0.97443 0.86584 0.0
C1161 C 0.5697 0.96337 0.86865 0.0
C1162 C 0.52352 0.02869 0.86268 0.0
H1163 H 0.37571 0.99262 0.86098 0.0
H1164 H 0.42724 0.98143 0.86675 0.0
H1165 H 0.48756 0.05546 0.85387 0.0
H1166 H 0.63323 0.02062 0.86926 0.0
H1167 H 0.5827 0.03697 0.87435 0.0
H1168 H 0.51773 0.96855 0.89003 0.0
C1169 C 0.42032 0.00432 0.86678 0.0
C1170 C 0.4939 0.03685 0.86215 0.0
C1171 C 0.39077 0.01073 0.86344 0.0
C1172 C 0.61578 0.00431 0.86932 0.0
C1173 C 0.58684 0.01372 0.87205 0.0
C1174 C 0.51138 0.98766 0.88219 0.0
C1175 C 0.44084 0.02718 0.8693 0.0
C1176 C 0.47259 0.02023 0.87139 0.0
C1177 C 0.56345 0.99342 0.87144 0.0
C1178 C 0.5325 0.0037 0.87244 0.0
H1179 H 0.39449 0.08591 0.86504 0.0
H1180 H 0.44622 0.07471 0.87093 0.0
H1181 H 0.4659 0.98291 0.8892 0.0
H1182 H 0.60273 0.93076 0.86341 0.0
H1183 H 0.55213 0.94723 0.86795 0.0
loop_
_geom_bond_atom_site_label_1
_geom_bond_atom_site_label_2
_geom_bond_distance
_geom_bond_site_symmetry_2
_ccdc_geom_bond_type
Li0 N17 1.990 . S
Li0 O60 1.956 . S
Li0 O61 1.970 . S
Li0 O62 1.961 . S
Li1 N25 1.990 . S
Li1 O60 1.970 . S
Li1 O61 1.956 . S
Li1 O63 1.961 . S
Li2 N47 1.990 . S
Li2 O60 1.961 . S
Li2 O62 1.956 . S
Li2 O63 1.970 . S
Li3 N53 1.990 . S
Li3 O61 1.961 . S
Li3 O62 1.970 . S
Li3 O63 1.956 . S
C4 C6 1.348 . S
C4 C7 1.356 . S
C4 O60 1.325 . S
N5 C8 1.314 . S
N5 C9 1.279 . S
C6 C4 1.348 . S
C6 C8 1.353 . S
C6 H64 0.929 . S
C7 C4 1.356 . S
C7 C9 1.358 . S
C7 H65 0.930 . S
C8 N5 1.314 . S
C8 C6 1.353 . S
C8 H66 0.930 . S
C9 N5 1.279 . S
C9 C7 1.358 . S
C9 H67 0.930 . S
C10 C13 1.348 . S
C10 C14 1.356 . S
C10 O61 1.325 . S
C11 N12 1.279 . S
C11 C14 1.358 . S
C11 H68 0.930 . S
N12 C11 1.279 . S
N12 C15 1.314 . S
C13 C10 1.348 . S
C13 C15 1.353 . S
C13 H69 0.929 . S
C14 C10 1.356 . S
C14 C11 1.358 . S
C14 H70 0.930 . S
C15 N12 1.314 . S
C15 C13 1.353 . S
C15 H71 0.930 . S
C16 N17 1.314 . S
C16 C21 1.353 . S
C16 H22 0.930 . S
N17 Li0 1.990 . S
N17 C16 1.314 . S
N17 C19 1.279 . S
C18 C19 1.358 . S
C18 C20 1.356 . S
C18 H72 0.930 . S
C19 N17 1.279 . S
C19 C18 1.358 . S
C19 H23 0.930 . S
C20 C18 1.356 . S
C20 C21 1.348 . S
C21 C16 1.353 . S
C21 C20 1.348 . S
C21 H73 0.952 . S
H22 C16 0.930 . S
H23 C19 0.930 . S
C24 N25 1.314 . S
C24 C26 1.353 . S
C24 H30 0.930 . S
N25 Li1 1.990 . S
N25 C24 1.314 . S
N25 C28 1.279 . S
C26 C24 1.353 . S
C26 C29 1.348 . S
C26 H74 0.929 . S
C27 C28 1.358 . S
C27 C29 1.356 . S
C27 H75 0.930 . S
C28 N25 1.279 . S
C28 C27 1.358 . S
C28 H31 0.930 . S
C29 C26 1.348 . S
C29 C27 1.356 . S
H30 C24 0.930 . S
H31 C28 0.930 . S
C32 C34 1.348 1_455 S
C32 C35 1.356 . S
C32 O62 1.325 . S
N33 C36 1.314 . S
N33 C37 1.279 . S
C34 C32 1.348 1_655 S
C34 C36 1.353 . S
C34 H76 0.929 . S
C35 C32 1.356 . S
C35 C37 1.358 1_455 S
C35 H77 0.930 . S
C36 N33 1.314 . S
C36 C34 1.353 . S
C36 H78 0.930 . S
C37 N33 1.279 . S
C37 C35 1.358 1_655 S
C37 H79 0.930 . S
C38 C39 1.348 . S
C38 C40 1.356 . S
C38 O63 1.325 . S
C39 C38 1.348 . S
C39 C41 1.353 . S
C39 H80 0.929 . S
C40 C38 1.356 . S
C40 C42 1.358 . S
C40 H81 0.930 . S
C41 C39 1.353 . S
C41 N43 1.314 . S
C41 H82 0.930 . S
C42 C40 1.358 . S
C42 N43 1.279 . S
C42 H83 0.930 . S
N43 C41 1.314 . S
N43 C42 1.279 . S
C44 C46 1.353 . S
C44 N47 1.314 . S
C44 H50 0.930 . S
C45 N47 1.279 . S
C45 C48 1.358 . S
C45 H51 0.930 . S
C46 C44 1.353 . S
C46 C49 1.348 . S
C46 H84 0.929 . S
N47 Li2 1.990 . S
N47 C44 1.314 . S
N47 C45 1.279 . S
C48 C45 1.358 . S
C48 C49 1.356 . S
C48 H85 0.930 . S
C49 C46 1.348 . S
C49 C48 1.356 . S
H50 C44 0.930 . S
H51 C45 0.930 . S
C52 N53 1.314 1_655 S
C52 C54 1.353 . S
C52 H58 0.930 . S
N53 Li3 1.990 . S
N53 C52 1.314 1_455 S
N53 C56 1.279 1_455 S
C54 C52 1.353 . S
C54 C57 1.348 . S
C54 H86 0.929 . S
C55 C56 1.358 . S
C55 C57 1.356 . S
C55 H87 0.930 . S
C56 N53 1.279 1_655 S
C56 C55 1.358 . S
C56 H59 0.930 1_655 S
C57 C54 1.348 . S
C57 C55 1.356 . S
H58 C52 0.930 . S
H59 C56 0.930 1_455 S
O60 Li0 1.956 . S
O60 Li1 1.970 . S
O60 Li2 1.961 . S
O60 C4 1.325 . S
O61 Li0 1.970 . S
O61 Li1 1.956 . S
O61 Li3 1.961 . S
O61 C10 1.325 . S
O62 Li0 1.961 . S
O62 Li2 1.956 . S
O62 Li3 1.970 . S
O62 C32 1.325 . S
O63 Li1 1.961 . S
O63 Li2 1.970 . S
O63 Li3 1.956 . S
O63 C38 1.325 . S
H64 C6 0.929 . S
H65 C7 0.930 . S
H66 C8 0.930 . S
H67 C9 0.930 . S
H68 C11 0.930 . S
H69 C13 0.929 . S
H70 C14 0.930 . S
H71 C15 0.930 . S
H72 C18 0.930 . S
H73 C21 0.952 . S
H74 C26 0.929 . S
H75 C27 0.930 . S
H76 C34 0.929 . S
H77 C35 0.930 . S
H78 C36 0.930 . S
H79 C37 0.930 . S
H80 C39 0.929 . S
H81 C40 0.930 . S
H82 C41 0.930 . S
H83 C42 0.930 . S
H84 C46 0.929 . S
H85 C48 0.930 . S
H86 C54 0.929 . S
H87 C55 0.930 . S
Li88 N105 1.990 . S
Li88 O148 1.956 . S
Li88 O149 1.970 . S
Li88 O150 1.961 . S
Li89 N113 1.990 . S
Li89 O148 1.970 . S
Li89 O149 1.956 . S
Li89 O151 1.961 . S
Li90 N135 1.990 . S
Li90 O148 1.961 . S
Li90 O150 1.956 . S
Li90 O151 1.970 . S
Li91 N141 1.990 . S
Li91 O149 1.961 . S
Li91 O150 1.970 . S
Li91 O151 1.956 . S
C92 C94 1.348 . S
C92 C95 1.356 . S
C92 O148 1.325 . S
N93 C96 1.314 . S
N93 C97 1.279 . S
C94 C92 1.348 . S
C94 C96 1.353 . S
C94 H152 0.929 . S
C95 C92 1.356 . S
C95 C97 1.358 . S
C95 H153 0.930 . S
C96 N93 1.314 . S
C96 C94 1.353 . S
C96 H154 0.930 . S
C97 N93 1.279 . S
C97 C95 1.358 . S
C97 H155 0.930 . S
C98 C101 1.348 . S
C98 C102 1.356 . S
C98 O149 1.325 . S
C99 N100 1.279 . S
C99 C102 1.358 . S
C99 H156 0.930 . S
N100 C99 1.279 . S
N100 C103 1.314 . S
C101 C98 1.348 . S
C101 C103 1.353 . S
C101 H157 0.929 . S
C102 C98 1.356 . S
C102 C99 1.358 . S
C102 H158 0.930 . S
C103 N100 1.314 . S
C103 C101 1.353 . S
C103 H159 0.930 . S
C104 N105 1.314 . S
C104 C109 1.353 . S
C104 H110 0.930 . S
N105 Li88 1.990 . S
N105 C104 1.314 . S
N105 C107 1.279 . S
C106 C107 1.358 . S
C106 C108 1.356 . S
C106 H160 0.930 . S
C107 N105 1.279 . S
C107 C106 1.358 . S
C107 H111 0.930 . S
C108 C106 1.356 . S
C108 C109 1.348 . S
C109 C104 1.353 . S
C109 C108 1.348 . S
C109 H161 0.929 . S
H110 C104 0.930 . S
H111 C107 0.930 . S
C112 N113 1.314 . S
C112 C114 1.353 . S
C112 H118 0.930 . S
N113 Li89 1.990 . S
N113 C112 1.314 . S
N113 C116 1.279 . S
C114 C112 1.353 . S
C114 C117 1.348 . S
C114 H162 0.929 . S
C115 C116 1.358 . S
C115 C117 1.356 . S
C115 H163 0.930 . S
C116 N113 1.279 . S
C116 C115 1.358 . S
C116 H119 0.930 . S
C117 C114 1.348 . S
C117 C115 1.356 . S
H118 C112 0.930 . S
H119 C116 0.930 . S
C120 C122 1.348 . S
C120 C123 1.356 . S
C120 O150 1.325 . S
N121 C124 1.314 . S
N121 C125 1.279 . S
C122 C120 1.348 . S
C122 C124 1.353 . S
C122 H164 0.929 . S
C123 C120 1.356 . S
C123 C125 1.358 . S
C123 H165 0.930 . S
C124 N121 1.314 . S
C124 C122 1.353 . S
C124 H166 0.930 . S
C125 N121 1.279 . S
C125 C123 1.358 . S
C125 H167 0.930 . S
C126 C127 1.348 . S
C126 C128 1.356 . S
C126 O151 1.325 . S
C127 C126 1.348 . S
C127 C129 1.353 . S
C127 H168 0.929 . S
C128 C126 1.356 . S
C128 C130 1.358 . S
C128 H169 0.930 . S
C129 C127 1.353 . S
C129 N131 1.314 . S
C129 H170 0.930 . S
C130 C128 1.358 . S
C130 N131 1.279 . S
C130 H171 0.930 . S
N131 C129 1.314 . S
N131 C130 1.279 . S
C132 C134 1.353 . S
C132 N135 1.314 . S
C132 H138 0.930 . S
C133 N135 1.279 . S
C133 C136 1.358 . S
C133 H139 0.930 . S
C134 C132 1.353 . S
C134 C137 1.348 . S
C134 H172 0.929 . S
N135 Li90 1.990 . S
N135 C132 1.314 . S
N135 C133 1.279 . S
C136 C133 1.358 . S
C136 C137 1.356 . S
C136 H173 0.930 . S
C137 C134 1.348 . S
C137 C136 1.356 . S
H138 C132 0.930 . S
H139 C133 0.930 . S
C140 N141 1.314 . S
C140 C142 1.353 . S
C140 H146 0.930 . S
N141 Li91 1.990 . S
N141 C140 1.314 . S
N141 C144 1.279 . S
C142 C140 1.353 . S
C142 C145 1.348 . S
C142 H174 0.929 . S
C143 C144 1.358 . S
C143 C145 1.356 . S
C143 H175 0.930 . S
C144 N141 1.279 . S
C144 C143 1.358 . S
C144 H147 0.930 . S
C145 C142 1.348 . S
C145 C143 1.356 . S
H146 C140 0.930 . S
H147 C144 0.930 . S
O148 Li88 1.956 . S
O148 Li89 1.970 . S
O148 Li90 1.961 . S
O148 C92 1.325 . S
O149 Li88 1.970 . S
O149 Li89 1.956 . S
O149 Li91 1.961 . S
O149 C98 1.325 . S
O150 Li88 1.961 . S
O150 Li90 1.956 . S
O150 Li91 1.970 . S
O150 C120 1.325 . S
O151 Li89 1.961 . S
O151 Li90 1.970 . S
O151 Li91 1.956 . S
O151 C126 1.325 . S
H152 C94 0.929 . S
H153 C95 0.930 . S
H154 C96 0.930 . S
H155 C97 0.930 . S
H156 C99 0.930 . S
H157 C101 0.929 . S
H158 C102 0.930 . S
H159 C103 0.930 . S
H160 C106 0.930 . S
H161 C109 0.929 . S
H162 C114 0.929 . S
H163 C115 0.930 . S
H164 C122 0.929 . S
H165 C123 0.930 . S
H166 C124 0.930 . S
H167 C125 0.930 . S
H168 C127 0.929 . S
H169 C128 0.930 . S
H170 C129 0.930 . S
H171 C130 0.930 . S
H172 C134 0.929 . S
H173 C136 0.930 . S
H174 C142 0.929 . S
H175 C143 0.930 . S
Li176 N193 1.990 . S
Li176 O236 1.956 . S
Li176 O237 1.970 . S
Li176 O238 1.961 . S
Li177 N201 1.990 . S
Li177 O236 1.970 . S
Li177 O237 1.956 . S
Li177 O239 1.961 . S
Li178 N223 1.990 . S
Li178 O236 1.961 . S
Li178 O238 1.956 . S
Li178 O239 1.970 . S
Li179 N229 1.990 . S
Li179 O237 1.961 . S
Li179 O238 1.970 . S
Li179 O239 1.956 . S
C180 C182 1.348 . S
C180 C183 1.356 . S
C180 O236 1.325 . S
N181 C184 1.314 . S
N181 C185 1.279 . S
C182 C180 1.348 . S
C182 C184 1.353 . S
C182 H240 0.929 . S
C183 C180 1.356 . S
C183 C185 1.358 . S
C183 H241 0.930 . S
C184 N181 1.314 . S
C184 C182 1.353 . S
C184 H242 0.930 . S
C185 N181 1.279 . S
C185 C183 1.358 . S
C185 H243 0.930 . S
C186 C189 1.348 . S
C186 C190 1.356 . S
C186 O237 1.325 . S
C187 N188 1.279 . S
C187 C190 1.358 . S
C187 H244 0.930 . S
N188 C187 1.279 . S
N188 C191 1.314 . S
C189 C186 1.348 . S
C189 C191 1.353 . S
C189 H245 0.929 . S
C190 C186 1.356 . S
C190 C187 1.358 . S
C190 H246 0.930 . S
C191 N188 1.314 . S
C191 C189 1.353 . S
C191 H247 0.930 . S
C192 N193 1.314 . S
C192 C197 1.353 . S
C192 H198 0.930 . S
N193 Li176 1.990 . S
N193 C192 1.314 . S
N193 C195 1.279 . S
C194 C195 1.358 . S
C194 C196 1.356 . S
C194 H248 0.930 . S
C195 N193 1.279 . S
C195 C194 1.358 . S
C195 H199 0.930 . S
C196 C194 1.356 . S
C196 C197 1.348 . S
C197 C192 1.353 . S
C197 C196 1.348 . S
C197 H249 0.929 . S
H198 C192 0.930 . S
H199 C195 0.930 . S
C200 N201 1.314 . S
C200 C202 1.353 . S
C200 H206 0.930 . S
N201 Li177 1.990 . S
N201 C200 1.314 . S
N201 C204 1.279 . S
C202 C200 1.353 . S
C202 C205 1.348 . S
C202 H250 0.952 . S
C203 C204 1.358 . S
C203 C205 1.356 . S
C203 H251 0.930 . S
C204 N201 1.279 . S
C204 C203 1.358 . S
C204 H207 0.930 . S
C205 C202 1.348 . S
C205 C203 1.356 . S
H206 C200 0.930 . S
H207 C204 0.930 . S
C208 C210 1.348 . S
C208 C211 1.356 . S
C208 O238 1.325 . S
N209 C212 1.314 . S
N209 C213 1.279 . S
C210 C208 1.348 . S
C210 C212 1.353 . S
C210 H252 0.929 . S
C211 C208 1.356 . S
C211 C213 1.358 . S
C211 H253 0.930 . S
C212 N209 1.314 . S
C212 C210 1.353 . S
C212 H254 0.930 . S
C213 N209 1.279 . S
C213 C211 1.358 . S
C213 H255 0.930 . S
C214 C215 1.348 1_655 S
C214 C216 1.356 . S
C214 O239 1.325 . S
C215 C214 1.348 1_455 S
C215 C217 1.353 . S
C215 H256 0.929 . S
C216 C214 1.356 . S
C216 C218 1.358 1_655 S
C216 H257 0.930 . S
C217 C215 1.353 . S
C217 N219 1.314 . S
C217 H258 0.930 . S
C218 C216 1.358 1_455 S
C218 N219 1.279 . S
C218 H259 0.930 . S
N219 C217 1.314 . S
N219 C218 1.279 . S
C220 C222 1.353 . S
C220 N223 1.314 1_455 S
C220 H226 0.930 . S
C221 N223 1.279 1_455 S
C221 C224 1.358 . S
C221 H227 0.930 1_455 S
C222 C220 1.353 . S
C222 C225 1.348 . S
C222 H260 0.929 . S
N223 Li178 1.990 . S
N223 C220 1.314 1_655 S
N223 C221 1.279 1_655 S
C224 C221 1.358 . S
C224 C225 1.356 . S
C224 H261 0.930 . S
C225 C222 1.348 . S
C225 C224 1.356 . S
H226 C220 0.930 . S
H227 C221 0.930 1_655 S
C228 N229 1.314 . S
C228 C230 1.353 . S
C228 H234 0.930 . S
N229 Li179 1.990 . S
N229 C228 1.314 . S
N229 C232 1.279 . S
C230 C228 1.353 . S
C230 C233 1.348 . S
C230 H262 0.929 . S
C231 C232 1.358 . S
C231 C233 1.356 . S
C231 H263 0.930 . S
C232 N229 1.279 . S
C232 C231 1.358 . S
C232 H235 0.930 . S
C233 C230 1.348 . S
C233 C231 1.356 . S
H234 C228 0.930 . S
H235 C232 0.930 . S
O236 Li176 1.956 . S
O236 Li177 1.970 . S
O236 Li178 1.961 . S
O236 C180 1.325 . S
O237 Li176 1.970 . S
O237 Li177 1.956 . S
O237 Li179 1.961 . S
O237 C186 1.325 . S
O238 Li176 1.961 . S
O238 Li178 1.956 . S
O238 Li179 1.970 . S
O238 C208 1.325 . S
O239 Li177 1.961 . S
O239 Li178 1.970 . S
O239 Li179 1.956 . S
O239 C214 1.325 . S
H240 C182 0.929 . S
H241 C183 0.930 . S
H242 C184 0.930 . S
H243 C185 0.930 . S
H244 C187 0.930 . S
H245 C189 0.929 . S
H246 C190 0.930 . S
H247 C191 0.930 . S
H248 C194 0.930 . S
H249 C197 0.929 . S
H250 C202 0.952 . S
H251 C203 0.930 . S
H252 C210 0.929 . S
H253 C211 0.930 . S
H254 C212 0.930 . S
H255 C213 0.930 . S
H256 C215 0.929 . S
H257 C216 0.930 . S
H258 C217 0.930 . S
H259 C218 0.930 . S
H260 C222 0.929 . S
H261 C224 0.930 . S
H262 C230 0.929 . S
H263 C231 0.930 . S
Li264 N281 1.990 . S
Li264 O324 1.956 . S
Li264 O325 1.970 . S
Li264 O326 1.961 . S
Li265 N289 1.990 . S
Li265 O324 1.970 . S
Li265 O325 1.956 . S
Li265 O327 1.961 . S
Li266 N311 1.990 . S
Li266 O324 1.961 . S
Li266 O326 1.956 . S
Li266 O327 1.970 . S
Li267 N317 1.990 . S
Li267 O325 1.961 . S
Li267 O326 1.970 . S
Li267 O327 1.956 . S
C268 C270 1.348 . S
C268 C271 1.356 . S
C268 O324 1.325 . S
N269 C272 1.314 . S
N269 C273 1.279 . S
C270 C268 1.348 . S
C270 C272 1.353 . S
C270 H328 0.929 . S
C271 C268 1.356 . S
C271 C273 1.358 . S
C271 H329 0.930 . S
C272 N269 1.314 . S
C272 C270 1.353 . S
C272 H330 0.930 . S
C273 N269 1.279 . S
C273 C271 1.358 . S
C273 H331 0.930 . S
C274 C277 1.348 . S
C274 C278 1.356 . S
C274 O325 1.325 . S
C275 N276 1.279 . S
C275 C278 1.358 . S
C275 H332 0.930 . S
N276 C275 1.279 . S
N276 C279 1.314 . S
C277 C274 1.348 . S
C277 C279 1.353 . S
C277 H333 0.929 . S
C278 C274 1.356 . S
C278 C275 1.358 . S
C278 H334 0.930 . S
C279 N276 1.314 . S
C279 C277 1.353 . S
C279 H335 0.930 . S
C280 N281 1.314 . S
C280 C285 1.353 . S
C280 H286 0.930 . S
N281 Li264 1.990 . S
N281 C280 1.314 . S
N281 C283 1.279 . S
C282 C283 1.358 . S
C282 C284 1.356 . S
C282 H336 0.930 . S
C283 N281 1.279 . S
C283 C282 1.358 . S
C283 H287 0.930 . S
C284 C282 1.356 . S
C284 C285 1.348 . S
C285 C280 1.353 . S
C285 C284 1.348 . S
C285 H337 0.929 . S
H286 C280 0.930 . S
H287 C283 0.930 . S
C288 N289 1.314 . S
C288 C290 1.353 . S
C288 H294 0.930 . S
N289 Li265 1.990 . S
N289 C288 1.314 . S
N289 C292 1.279 . S
C290 C288 1.353 . S
C290 C293 1.348 . S
C290 H338 0.929 . S
C291 C292 1.358 . S
C291 C293 1.356 . S
C291 H339 0.930 . S
C292 N289 1.279 . S
C292 C291 1.358 . S
C292 H295 0.930 . S
C293 C290 1.348 . S
C293 C291 1.356 . S
H294 C288 0.930 . S
H295 C292 0.930 . S
C296 C298 1.348 . S
C296 C299 1.356 . S
C296 O326 1.325 . S
N297 C300 1.314 . S
N297 C301 1.279 . S
C298 C296 1.348 . S
C298 C300 1.353 . S
C298 H340 0.929 . S
C299 C296 1.356 . S
C299 C301 1.358 . S
C299 H341 0.930 . S
C300 N297 1.314 . S
C300 C298 1.353 . S
C300 H342 0.930 . S
C301 N297 1.279 . S
C301 C299 1.358 . S
C301 H343 0.930 . S
C302 C303 1.348 . S
C302 C304 1.356 . S
C302 O327 1.325 . S
C303 C302 1.348 . S
C303 C305 1.353 . S
C303 H344 0.929 . S
C304 C302 1.356 . S
C304 C306 1.358 . S
C304 H345 0.930 . S
C305 C303 1.353 . S
C305 N307 1.314 . S
C305 H346 0.930 . S
C306 C304 1.358 . S
C306 N307 1.279 . S
C306 H347 0.930 . S
N307 C305 1.314 . S
N307 C306 1.279 . S
C308 C310 1.353 . S
C308 N311 1.314 . S
C308 H314 0.930 . S
C309 N311 1.279 . S
C309 C312 1.358 . S
C309 H315 0.930 . S
C310 C308 1.353 . S
C310 C313 1.348 . S
C310 H348 0.929 . S
N311 Li266 1.990 . S
N311 C308 1.314 . S
N311 C309 1.279 . S
C312 C309 1.358 . S
C312 C313 1.356 . S
C312 H349 0.930 . S
C313 C310 1.348 . S
C313 C312 1.356 . S
H314 C308 0.930 . S
H315 C309 0.930 . S
C316 N317 1.314 . S
C316 C318 1.353 . S
C316 H322 0.930 . S
N317 Li267 1.990 . S
N317 C316 1.314 . S
N317 C320 1.279 . S
C318 C316 1.353 . S
C318 C321 1.348 . S
C318 H350 0.929 . S
C319 C320 1.358 . S
C319 C321 1.356 . S
C319 H351 0.930 . S
C320 N317 1.279 . S
C320 C319 1.358 . S
C320 H323 0.930 . S
C321 C318 1.348 . S
C321 C319 1.356 . S
H322 C316 0.930 . S
H323 C320 0.930 . S
O324 Li264 1.956 . S
O324 Li265 1.970 . S
O324 Li266 1.961 . S
O324 C268 1.325 . S
O325 Li264 1.970 . S
O325 Li265 1.956 . S
O325 Li267 1.961 . S
O325 C274 1.325 . S
O326 Li264 1.961 . S
O326 Li266 1.956 . S
O326 Li267 1.970 . S
O326 C296 1.325 . S
O327 Li265 1.961 . S
O327 Li266 1.970 . S
O327 Li267 1.956 . S
O327 C302 1.325 . S
H328 C270 0.929 . S
H329 C271 0.930 . S
H330 C272 0.930 . S
H331 C273 0.930 . S
H332 C275 0.930 . S
H333 C277 0.929 . S
H334 C278 0.930 . S
H335 C279 0.930 . S
H336 C282 0.930 . S
H337 C285 0.929 . S
H338 C290 0.929 . S
H339 C291 0.930 . S
H340 C298 0.929 . S
H341 C299 0.930 . S
H342 C300 0.930 . S
H343 C301 0.930 . S
H344 C303 0.929 . S
H345 C304 0.930 . S
H346 C305 0.930 . S
H347 C306 0.930 . S
H348 C310 0.929 . S
H349 C312 0.930 . S
H350 C318 0.929 . S
H351 C319 0.930 . S
Li352 N369 1.990 . S
Li352 O412 1.956 . S
Li352 O413 1.970 . S
Li352 O414 1.961 . S
Li353 N377 1.990 . S
Li353 O412 1.970 . S
Li353 O413 1.956 . S
Li353 O415 1.961 . S
Li354 N399 1.990 . S
Li354 O412 1.961 . S
Li354 O414 1.956 . S
Li354 O415 1.970 . S
Li355 N405 1.990 . S
Li355 O413 1.961 . S
Li355 O414 1.970 . S
Li355 O415 1.956 . S
C356 C358 1.348 . S
C356 C359 1.356 . S
C356 O412 1.325 . S
N357 C360 1.314 . S
N357 C361 1.279 . S
C358 C356 1.348 . S
C358 C360 1.353 . S
C358 H416 0.929 . S
C359 C356 1.356 . S
C359 C361 1.358 . S
C359 H417 0.930 . S
C360 N357 1.314 . S
C360 C358 1.353 . S
C360 H418 0.930 . S
C361 N357 1.279 . S
C361 C359 1.358 . S
C361 H419 0.930 . S
C362 C365 1.348 . S
C362 C366 1.356 . S
C362 O413 1.325 . S
C363 N364 1.279 . S
C363 C366 1.358 . S
C363 H420 0.930 . S
N364 C363 1.279 . S
N364 C367 1.314 . S
C365 C362 1.348 . S
C365 C367 1.353 . S
C365 H421 0.929 . S
C366 C362 1.356 . S
C366 C363 1.358 . S
C366 H422 0.930 . S
C367 N364 1.314 . S
C367 C365 1.353 . S
C367 H423 0.930 . S
C368 N369 1.314 . S
C368 C373 1.353 . S
C368 H374 0.930 . S
N369 Li352 1.990 . S
N369 C368 1.314 . S
N369 C371 1.279 . S
C370 C371 1.358 . S
C370 C372 1.356 . S
C370 H424 0.930 . S
C371 N369 1.279 . S
C371 C370 1.358 . S
C371 H375 0.930 . S
C372 C370 1.356 . S
C372 C373 1.348 . S
C373 C368 1.353 . S
C373 C372 1.348 . S
C373 H425 0.929 . S
H374 C368 0.930 . S
H375 C371 0.930 . S
C376 N377 1.314 . S
C376 C378 1.353 . S
C376 H382 0.930 . S
N377 Li353 1.990 . S
N377 C376 1.314 . S
N377 C380 1.279 . S
C378 C376 1.353 . S
C378 C381 1.348 . S
C378 H426 0.929 . S
C379 C380 1.358 . S
C379 C381 1.356 . S
C379 H427 0.930 . S
C380 N377 1.279 . S
C380 C379 1.358 . S
C380 H383 0.930 . S
C381 C378 1.348 . S
C381 C379 1.356 . S
H382 C376 0.930 . S
H383 C380 0.930 . S
C384 C386 1.348 . S
C384 C387 1.356 . S
C384 O414 1.325 . S
N385 C388 1.314 . S
N385 C389 1.279 . S
C386 C384 1.348 . S
C386 C388 1.353 . S
C386 H428 0.929 . S
C387 C384 1.356 . S
C387 C389 1.358 . S
C387 H429 0.930 . S
C388 N385 1.314 . S
C388 C386 1.353 . S
C388 H430 0.930 . S
C389 N385 1.279 . S
C389 C387 1.358 . S
C389 H431 0.930 . S
C390 C391 1.348 . S
C390 C392 1.356 . S
C390 O415 1.325 . S
C391 C390 1.348 . S
C391 C393 1.353 . S
C391 H432 0.929 . S
C392 C390 1.356 . S
C392 C394 1.358 . S
C392 H433 0.930 . S
C393 C391 1.353 . S
C393 N395 1.314 . S
C393 H434 0.930 . S
C394 C392 1.358 . S
C394 N395 1.279 . S
C394 H435 0.930 . S
N395 C393 1.314 . S
N395 C394 1.279 . S
C396 C398 1.353 . S
C396 N399 1.314 . S
C396 H402 0.930 . S
C397 N399 1.279 . S
C397 C400 1.358 . S
C397 H403 0.930 . S
C398 C396 1.353 . S
C398 C401 1.348 . S
C398 H436 0.929 . S
N399 Li354 1.990 . S
N399 C396 1.314 . S
N399 C397 1.279 . S
C400 C397 1.358 . S
C400 C401 1.356 . S
C400 H437 0.930 . S
C401 C398 1.348 . S
C401 C400 1.356 . S
H402 C396 0.930 . S
H403 C397 0.930 . S
C404 N405 1.314 . S
C404 C406 1.353 . S
C404 H410 0.930 . S
N405 Li355 1.990 . S
N405 C404 1.314 . S
N405 C408 1.279 . S
C406 C404 1.353 . S
C406 C409 1.348 . S
C406 H438 0.929 . S
C407 C408 1.358 . S
C407 C409 1.356 . S
C407 H439 0.930 . S
C408 N405 1.279 . S
C408 C407 1.358 . S
C408 H411 0.930 . S
C409 C406 1.348 . S
C409 C407 1.356 . S
H410 C404 0.930 . S
H411 C408 0.930 . S
O412 Li352 1.956 . S
O412 Li353 1.970 . S
O412 Li354 1.961 . S
O412 C356 1.325 . S
O413 Li352 1.970 . S
O413 Li353 1.956 . S
O413 Li355 1.961 . S
O413 C362 1.325 . S
O414 Li352 1.961 . S
O414 Li354 1.956 . S
O414 Li355 1.970 . S
O414 C384 1.325 . S
O415 Li353 1.961 . S
O415 Li354 1.970 . S
O415 Li355 1.956 . S
O415 C390 1.325 . S
H416 C358 0.929 . S
H417 C359 0.930 . S
H418 C360 0.930 . S
H419 C361 0.930 . S
H420 C363 0.930 . S
H421 C365 0.929 . S
H422 C366 0.930 . S
H423 C367 0.930 . S
H424 C370 0.930 . S
H425 C373 0.929 . S
H426 C378 0.929 . S
H427 C379 0.930 . S
H428 C386 0.929 . S
H429 C387 0.930 . S
H430 C388 0.930 . S
H431 C389 0.930 . S
H432 C391 0.929 . S
H433 C392 0.930 . S
H434 C393 0.930 . S
H435 C394 0.930 . S
H436 C398 0.929 . S
H437 C400 0.930 . S
H438 C406 0.929 . S
H439 C407 0.930 . S
Li440 N457 1.990 . S
Li440 O500 1.956 . S
Li440 O501 1.970 . S
Li440 O502 1.961 . S
Li441 N465 1.990 . S
Li441 O500 1.970 . S
Li441 O501 1.956 . S
Li441 O503 1.961 . S
Li442 N487 1.990 . S
Li442 O500 1.961 . S
Li442 O502 1.956 . S
Li442 O503 1.970 . S
Li443 N493 1.990 1_545 S
Li443 O501 1.961 . S
Li443 O502 1.970 . S
Li443 O503 1.956 . S
C444 C446 1.348 . S
C444 C447 1.356 . S
C444 O500 1.325 . S
N445 C448 1.314 . S
N445 C449 1.279 . S
C446 C444 1.348 . S
C446 C448 1.353 . S
C446 H504 0.929 . S
C447 C444 1.356 . S
C447 C449 1.358 . S
C447 H505 0.930 . S
C448 N445 1.314 . S
C448 C446 1.353 . S
C448 H506 0.930 . S
C449 N445 1.279 . S
C449 C447 1.358 . S
C449 H507 0.930 . S
C450 C453 1.348 . S
C450 C454 1.356 . S
C450 O501 1.325 . S
C451 N452 1.279 . S
C451 C454 1.358 . S
C451 H508 0.930 . S
N452 C451 1.279 . S
N452 C455 1.314 . S
C453 C450 1.348 . S
C453 C455 1.353 . S
C453 H509 0.929 . S
C454 C450 1.356 . S
C454 C451 1.358 . S
C454 H510 0.930 . S
C455 N452 1.314 . S
C455 C453 1.353 . S
C455 H511 0.930 . S
C456 N457 1.314 . S
C456 C461 1.353 . S
C456 H462 0.930 . S
N457 Li440 1.990 . S
N457 C456 1.314 . S
N457 C459 1.279 . S
C458 C459 1.358 . S
C458 C460 1.356 . S
C458 H512 0.930 . S
C459 N457 1.279 . S
C459 C458 1.358 . S
C459 H463 0.930 . S
C460 C458 1.356 . S
C460 C461 1.348 . S
C461 C456 1.353 . S
C461 C460 1.348 . S
C461 H513 0.929 . S
H462 C456 0.930 . S
H463 C459 0.930 . S
C464 N465 1.314 . S
C464 C466 1.353 . S
C464 H470 0.930 . S
N465 Li441 1.990 . S
N465 C464 1.314 . S
N465 C468 1.279 . S
C466 C464 1.353 . S
C466 C469 1.348 . S
C466 H514 0.929 . S
C467 C468 1.358 . S
C467 C469 1.356 . S
C467 H515 0.930 . S
C468 N465 1.279 . S
C468 C467 1.358 . S
C468 H471 0.930 . S
C469 C466 1.348 . S
C469 C467 1.356 . S
H470 C464 0.930 . S
H471 C468 0.930 . S
C472 C474 1.348 . S
C472 C475 1.356 . S
C472 O502 1.325 . S
N473 C476 1.314 . S
N473 C477 1.279 . S
C474 C472 1.348 . S
C474 C476 1.353 . S
C474 H516 0.929 . S
C475 C472 1.356 . S
C475 C477 1.358 . S
C475 H517 0.930 . S
C476 N473 1.314 . S
C476 C474 1.353 . S
C476 H518 0.930 . S
C477 N473 1.279 . S
C477 C475 1.358 . S
C477 H519 0.930 . S
C478 C479 1.348 1_545 S
C478 C480 1.356 1_545 S
C478 O503 1.325 . S
C479 C478 1.348 1_565 S
C479 C481 1.353 . S
C479 H520 0.929 . S
C480 C478 1.356 1_565 S
C480 C482 1.358 . S
C480 H521 0.930 1_565 S
C481 C479 1.353 . S
C481 N483 1.314 . S
C481 H522 0.930 . S
C482 C480 1.358 . S
C482 N483 1.279 . S
C482 H523 0.930 . S
N483 C481 1.314 . S
N483 C482 1.279 . S
C484 C486 1.353 . S
C484 N487 1.314 . S
C484 H490 0.930 . S
C485 N487 1.279 . S
C485 C488 1.358 . S
C485 H491 0.930 . S
C486 C484 1.353 . S
C486 C489 1.348 . S
C486 H524 0.929 . S
N487 Li442 1.990 . S
N487 C484 1.314 . S
N487 C485 1.279 . S
C488 C485 1.358 . S
C488 C489 1.356 . S
C488 H525 0.930 . S
C489 C486 1.348 . S
C489 C488 1.356 . S
H490 C484 0.930 . S
H491 C485 0.930 . S
C492 N493 1.314 . S
C492 C494 1.353 . S
C492 H498 0.930 1_565 S
N493 Li443 1.990 1_565 S
N493 C492 1.314 . S
N493 C496 1.279 . S
C494 C492 1.353 . S
C494 C497 1.348 . S
C494 H526 0.929 . S
C495 C496 1.358 . S
C495 C497 1.356 . S
C495 H527 0.930 . S
C496 N493 1.279 . S
C496 C495 1.358 . S
C496 H499 0.930 . S
C497 C494 1.348 . S
C497 C495 1.356 . S
H498 C492 0.930 1_545 S
H499 C496 0.930 . S
O500 Li440 1.956 . S
O500 Li441 1.970 . S
O500 Li442 1.961 . S
O500 C444 1.325 . S
O501 Li440 1.970 . S
O501 Li441 1.956 . S
O501 Li443 1.961 . S
O501 C450 1.325 . S
O502 Li440 1.961 . S
O502 Li442 1.956 . S
O502 Li443 1.970 . S
O502 C472 1.325 . S
O503 Li441 1.961 . S
O503 Li442 1.970 . S
O503 Li443 1.956 . S
O503 C478 1.325 . S
H504 C446 0.929 . S
H505 C447 0.930 . S
H506 C448 0.930 . S
H507 C449 0.930 . S
H508 C451 0.930 . S
H509 C453 0.929 . S
H510 C454 0.930 . S
H511 C455 0.930 . S
H512 C458 0.930 . S
H513 C461 0.929 . S
H514 C466 0.929 . S
H515 C467 0.930 . S
H516 C474 0.929 . S
H517 C475 0.930 . S
H518 C476 0.930 . S
H519 C477 0.930 . S
H520 C479 0.929 . S
H521 C480 0.930 1_545 S
H522 C481 0.930 . S
H523 C482 0.930 . S
H524 C486 0.929 . S
H525 C488 0.930 . S
H526 C494 0.929 . S
H527 C495 0.930 . S
Li528 N545 1.990 . S
Li528 O588 1.956 . S
Li528 O589 1.970 . S
Li528 O590 1.961 . S
Li529 N553 1.990 . S
Li529 O588 1.970 . S
Li529 O589 1.956 . S
Li529 O591 1.961 . S
Li530 N575 1.990 . S
Li530 O588 1.961 . S
Li530 O590 1.956 . S
Li530 O591 1.970 . S
Li531 N581 1.990 . S
Li531 O589 1.961 . S
Li531 O590 1.970 . S
Li531 O591 1.956 . S
C532 C534 1.348 . S
C532 C535 1.356 . S
C532 O588 1.325 . S
N533 C536 1.314 . S
N533 C537 1.279 . S
C534 C532 1.348 . S
C534 C536 1.353 . S
C534 H592 0.929 . S
C535 C532 1.356 . S
C535 C537 1.358 . S
C535 H593 0.930 . S
C536 N533 1.314 . S
C536 C534 1.353 . S
C536 H594 0.930 . S
C537 N533 1.279 . S
C537 C535 1.358 . S
C537 H595 0.930 . S
C538 C541 1.348 . S
C538 C542 1.356 . S
C538 O589 1.325 . S
C539 N540 1.279 . S
C539 C542 1.358 . S
C539 H596 0.930 . S
N540 C539 1.279 . S
N540 C543 1.314 . S
C541 C538 1.348 . S
C541 C543 1.353 . S
C541 H597 0.929 . S
C542 C538 1.356 . S
C542 C539 1.358 . S
C542 H598 0.930 . S
C543 N540 1.314 . S
C543 C541 1.353 . S
C543 H599 0.930 . S
C544 N545 1.314 . S
C544 C549 1.353 . S
C544 H550 0.930 . S
N545 Li528 1.990 . S
N545 C544 1.314 . S
N545 C547 1.279 . S
C546 C547 1.358 . S
C546 C548 1.356 . S
C546 H600 0.930 . S
C547 N545 1.279 . S
C547 C546 1.358 . S
C547 H551 0.930 . S
C548 C546 1.356 . S
C548 C549 1.348 . S
C549 C544 1.353 . S
C549 C548 1.348 . S
C549 H601 0.929 . S
H550 C544 0.930 . S
H551 C547 0.930 . S
C552 N553 1.314 . S
C552 C554 1.353 . S
C552 H558 0.930 . S
N553 Li529 1.990 . S
N553 C552 1.314 . S
N553 C556 1.279 . S
C554 C552 1.353 . S
C554 C557 1.348 . S
C554 H602 0.929 . S
C555 C556 1.358 . S
C555 C557 1.356 . S
C555 H603 0.930 . S
C556 N553 1.279 . S
C556 C555 1.358 . S
C556 H559 0.930 . S
C557 C554 1.348 . S
C557 C555 1.356 . S
H558 C552 0.930 . S
H559 C556 0.930 . S
C560 C562 1.348 . S
C560 C563 1.356 . S
C560 O590 1.325 . S
N561 C564 1.314 . S
N561 C565 1.279 . S
C562 C560 1.348 . S
C562 C564 1.353 . S
C562 H604 0.929 . S
C563 C560 1.356 . S
C563 C565 1.358 . S
C563 H605 0.930 . S
C564 N561 1.314 . S
C564 C562 1.353 . S
C564 H606 0.930 . S
C565 N561 1.279 . S
C565 C563 1.358 . S
C565 H607 0.930 . S
C566 C567 1.348 . S
C566 C568 1.356 . S
C566 O591 1.325 . S
C567 C566 1.348 . S
C567 C569 1.353 . S
C567 H608 0.929 . S
C568 C566 1.356 . S
C568 C570 1.358 . S
C568 H609 0.930 . S
C569 C567 1.353 . S
C569 N571 1.314 . S
C569 H610 0.930 . S
C570 C568 1.358 . S
C570 N571 1.279 . S
C570 H611 0.930 . S
N571 C569 1.314 . S
N571 C570 1.279 . S
C572 C574 1.353 . S
C572 N575 1.314 . S
C572 H578 0.930 . S
C573 N575 1.279 . S
C573 C576 1.358 . S
C573 H579 0.930 . S
C574 C572 1.353 . S
C574 C577 1.348 . S
C574 H612 0.929 . S
N575 Li530 1.990 . S
N575 C572 1.314 . S
N575 C573 1.279 . S
C576 C573 1.358 . S
C576 C577 1.356 . S
C576 H613 0.930 . S
C577 C574 1.348 . S
C577 C576 1.356 . S
H578 C572 0.930 . S
H579 C573 0.930 . S
C580 N581 1.314 . S
C580 C582 1.353 . S
C580 H586 0.930 . S
N581 Li531 1.990 . S
N581 C580 1.314 . S
N581 C584 1.279 . S
C582 C580 1.353 . S
C582 C585 1.348 . S
C582 H614 0.929 . S
C583 C584 1.358 . S
C583 C585 1.356 . S
C583 H615 0.930 . S
C584 N581 1.279 . S
C584 C583 1.358 . S
C584 H587 0.930 . S
C585 C582 1.348 . S
C585 C583 1.356 . S
H586 C580 0.930 . S
H587 C584 0.930 . S
O588 Li528 1.956 . S
O588 Li529 1.970 . S
O588 Li530 1.961 . S
O588 C532 1.325 . S
O589 Li528 1.970 . S
O589 Li529 1.956 . S
O589 Li531 1.961 . S
O589 C538 1.325 . S
O590 Li528 1.961 . S
O590 Li530 1.956 . S
O590 Li531 1.970 . S
O590 C560 1.325 . S
O591 Li529 1.961 . S
O591 Li530 1.970 . S
O591 Li531 1.956 . S
O591 C566 1.325 . S
H592 C534 0.929 . S
H593 C535 0.930 . S
H594 C536 0.930 . S
H595 C537 0.930 . S
H596 C539 0.930 . S
H597 C541 0.929 . S
H598 C542 0.930 . S
H599 C543 0.930 . S
H600 C546 0.930 . S
H601 C549 0.929 . S
H602 C554 0.929 . S
H603 C555 0.930 . S
H604 C562 0.929 . S
H605 C563 0.930 . S
H606 C564 0.930 . S
H607 C565 0.930 . S
H608 C567 0.929 . S
H609 C568 0.930 . S
H610 C569 0.930 . S
H611 C570 0.930 . S
H612 C574 0.929 . S
H613 C576 0.930 . S
H614 C582 0.929 . S
H615 C583 0.930 . S
Li616 N633 1.990 1_565 S
Li616 O676 1.956 . S
Li616 O677 1.970 . S
Li616 O678 1.961 . S
Li617 N641 1.990 . S
Li617 O676 1.970 . S
Li617 O677 1.956 . S
Li617 O679 1.961 . S
Li618 N663 1.990 . S
Li618 O676 1.961 . S
Li618 O678 1.956 . S
Li618 O679 1.970 . S
Li619 N669 1.990 . S
Li619 O677 1.961 . S
Li619 O678 1.970 . S
Li619 O679 1.956 . S
C620 C622 1.348 1_565 S
C620 C623 1.356 1_565 S
C620 O676 1.325 . S
N621 C624 1.314 . S
N621 C625 1.279 . S
C622 C620 1.348 1_545 S
C622 C624 1.353 . S
C622 H680 0.929 . S
C623 C620 1.356 1_545 S
C623 C625 1.358 . S
C623 H681 0.930 1_545 S
C624 N621 1.314 . S
C624 C622 1.353 . S
C624 H682 0.930 . S
C625 N621 1.279 . S
C625 C623 1.358 . S
C625 H683 0.930 . S
C626 C629 1.348 . S
C626 C630 1.356 . S
C626 O677 1.325 . S
C627 N628 1.279 . S
C627 C630 1.358 . S
C627 H684 0.930 . S
N628 C627 1.279 . S
N628 C631 1.314 . S
C629 C626 1.348 . S
C629 C631 1.353 . S
C629 H685 0.929 . S
C630 C626 1.356 . S
C630 C627 1.358 . S
C630 H686 0.930 . S
C631 N628 1.314 . S
C631 C629 1.353 . S
C631 H687 0.930 . S
C632 N633 1.314 . S
C632 C637 1.353 . S
C632 H638 0.930 1_545 S
N633 Li616 1.990 1_545 S
N633 C632 1.314 . S
N633 C635 1.279 . S
C634 C635 1.358 . S
C634 C636 1.356 . S
C634 H688 0.930 . S
C635 N633 1.279 . S
C635 C634 1.358 . S
C635 H639 0.930 . S
C636 C634 1.356 . S
C636 C637 1.348 . S
C637 C632 1.353 . S
C637 C636 1.348 . S
C637 H689 0.929 . S
H638 C632 0.930 1_565 S
H639 C635 0.930 . S
C640 N641 1.314 . S
C640 C642 1.353 . S
C640 H646 0.930 . S
N641 Li617 1.990 . S
N641 C640 1.314 . S
N641 C644 1.279 . S
C642 C640 1.353 . S
C642 C645 1.348 . S
C642 H690 0.929 . S
C643 C644 1.358 . S
C643 C645 1.356 . S
C643 H691 0.930 . S
C644 N641 1.279 . S
C644 C643 1.358 . S
C644 H647 0.930 . S
C645 C642 1.348 . S
C645 C643 1.356 . S
H646 C640 0.930 . S
H647 C644 0.930 . S
C648 C650 1.348 . S
C648 C651 1.356 . S
C648 O678 1.325 . S
N649 C652 1.314 . S
N649 C653 1.279 . S
C650 C648 1.348 . S
C650 C652 1.353 . S
C650 H692 0.929 . S
C651 C648 1.356 . S
C651 C653 1.358 . S
C651 H693 0.930 . S
C652 N649 1.314 . S
C652 C650 1.353 . S
C652 H694 0.930 . S
C653 N649 1.279 . S
C653 C651 1.358 . S
C653 H695 0.930 . S
C654 C655 1.348 . S
C654 C656 1.356 . S
C654 O679 1.325 . S
C655 C654 1.348 . S
C655 C657 1.353 . S
C655 H696 0.929 . S
C656 C654 1.356 . S
C656 C658 1.358 . S
C656 H697 0.930 . S
C657 C655 1.353 . S
C657 N659 1.314 . S
C657 H698 0.930 . S
C658 C656 1.358 . S
C658 N659 1.279 . S
C658 H699 0.930 . S
N659 C657 1.314 . S
N659 C658 1.279 . S
C660 C662 1.353 . S
C660 N663 1.314 . S
C660 H666 0.930 . S
C661 N663 1.279 . S
C661 C664 1.358 . S
C661 H667 0.930 . S
C662 C660 1.353 . S
C662 C665 1.348 . S
C662 H700 0.929 . S
N663 Li618 1.990 . S
N663 C660 1.314 . S
N663 C661 1.279 . S
C664 C661 1.358 . S
C664 C665 1.356 . S
C664 H701 0.930 . S
C665 C662 1.348 . S
C665 C664 1.356 . S
H666 C660 0.930 . S
H667 C661 0.930 . S
C668 N669 1.314 . S
C668 C670 1.353 . S
C668 H674 0.930 . S
N669 Li619 1.990 . S
N669 C668 1.314 . S
N669 C672 1.279 . S
C670 C668 1.353 . S
C670 C673 1.348 . S
C670 H702 0.929 . S
C671 C672 1.358 . S
C671 C673 1.356 . S
C671 H703 0.930 . S
C672 N669 1.279 . S
C672 C671 1.358 . S
C672 H675 0.930 . S
C673 C670 1.348 . S
C673 C671 1.356 . S
H674 C668 0.930 . S
H675 C672 0.930 . S
O676 Li616 1.956 . S
O676 Li617 1.970 . S
O676 Li618 1.961 . S
O676 C620 1.325 . S
O677 Li616 1.970 . S
O677 Li617 1.956 . S
O677 Li619 1.961 . S
O677 C626 1.325 . S
O678 Li616 1.961 . S
O678 Li618 1.956 . S
O678 Li619 1.970 . S
O678 C648 1.325 . S
O679 Li617 1.961 . S
O679 Li618 1.970 . S
O679 Li619 1.956 . S
O679 C654 1.325 . S
H680 C622 0.929 . S
H681 C623 0.930 1_565 S
H682 C624 0.930 . S
H683 C625 0.930 . S
H684 C627 0.930 . S
H685 C629 0.929 . S
H686 C630 0.930 . S
H687 C631 0.930 . S
H688 C634 0.930 . S
H689 C637 0.929 . S
H690 C642 0.929 . S
H691 C643 0.930 . S
H692 C650 0.929 . S
H693 C651 0.930 . S
H694 C652 0.930 . S
H695 C653 0.930 . S
H696 C655 0.929 . S
H697 C656 0.930 . S
H698 C657 0.930 . S
H699 C658 0.930 . S
H700 C662 0.929 . S
H701 C664 0.930 . S
H702 C670 0.929 . S
H703 C671 0.930 . S
C704 C705 1.349 . S
C704 C706 1.327 . S
C704 H729 0.950 . S
C705 C704 1.349 . S
C705 C721 1.349 . S
C706 C704 1.327 . S
C706 C725 1.429 . S
C706 H730 0.950 . S
C707 C724 1.574 1_554 S
C707 C726 1.368 . S
C707 H731 0.949 . S
H708 C712 0.949 . S
C709 C710 1.349 . S
C709 C711 1.327 . S
C709 H732 0.950 . S
C710 C709 1.349 . S
C710 C722 1.349 . S
C711 C709 1.327 . S
C711 C727 1.429 . S
C711 H733 0.950 . S
C712 H708 0.949 . S
C712 C720 1.574 1_556 S
C712 C728 1.368 . S
H713 C721 0.950 . S
H714 C719 0.950 . S
H715 C720 0.949 . S
H716 C722 0.950 . S
H717 C723 0.950 . S
H718 C724 0.949 . S
C719 H714 0.950 . S
C719 C721 1.327 . S
C719 C725 1.429 . S
C720 C712 1.574 1_554 S
C720 H715 0.949 . S
C720 C726 1.368 . S
C721 C705 1.349 . S
C721 H713 0.950 . S
C721 C719 1.327 . S
C722 C710 1.349 . S
C722 H716 0.950 . S
C722 C723 1.327 . S
C723 H717 0.950 . S
C723 C722 1.327 . S
C723 C727 1.429 . S
C724 C707 1.574 1_556 S
C724 H718 0.949 . S
C724 C728 1.368 . S
C725 C706 1.429 . S
C725 C719 1.429 . S
C725 C726 1.523 . S
C726 C707 1.368 . S
C726 C720 1.368 . S
C726 C725 1.523 . S
C727 C711 1.429 . S
C727 C723 1.429 . S
C727 C728 1.523 . S
C728 C712 1.368 . S
C728 C724 1.368 . S
C728 C727 1.523 . S
H729 C704 0.950 . S
H730 C706 0.950 . S
H731 C707 0.949 . S
H732 C709 0.950 . S
H733 C711 0.950 . S
C734 C735 1.349 . S
C734 C736 1.327 . S
C734 H759 0.950 . S
C735 C734 1.349 . S
C735 C751 1.349 . S
C736 C734 1.327 . S
C736 C755 1.429 . S
C736 H760 0.950 . S
C737 C754 1.574 . S
C737 C756 1.368 . S
C737 H761 0.949 . S
H738 C742 0.949 . S
C739 C740 1.349 . S
C739 C741 1.327 . S
C739 H762 0.950 . S
C740 C739 1.349 . S
C740 C752 1.349 . S
C741 C739 1.327 . S
C741 C757 1.429 . S
C741 H763 0.950 . S
C742 H738 0.949 . S
C742 C750 1.574 . S
C742 C758 1.368 . S
H743 C751 0.950 . S
H744 C749 0.950 . S
H745 C750 0.949 . S
H746 C752 0.950 . S
H747 C753 0.950 . S
H748 C754 0.949 . S
C749 H744 0.950 . S
C749 C751 1.327 . S
C749 C755 1.429 . S
C750 C742 1.574 . S
C750 H745 0.949 . S
C750 C756 1.368 . S
C751 C735 1.349 . S
C751 H743 0.950 . S
C751 C749 1.327 . S
C752 C740 1.349 . S
C752 H746 0.950 . S
C752 C753 1.327 . S
C753 H747 0.950 . S
C753 C752 1.327 . S
C753 C757 1.429 . S
C754 C737 1.574 . S
C754 H748 0.949 . S
C754 C758 1.368 . S
C755 C736 1.429 . S
C755 C749 1.429 . S
C755 C756 1.523 . S
C756 C737 1.368 . S
C756 C750 1.368 . S
C756 C755 1.523 . S
C757 C741 1.429 . S
C757 C753 1.429 . S
C757 C758 1.523 . S
C758 C742 1.368 . S
C758 C754 1.368 . S
C758 C757 1.523 . S
H759 C734 0.950 . S
H760 C736 0.950 . S
H761 C737 0.949 . S
H762 C739 0.950 . S
H763 C741 0.950 . S
C764 C765 1.349 . S
C764 C766 1.327 . S
C764 H789 0.950 . S
C765 C764 1.349 . S
C765 C781 1.349 . S
C766 C764 1.327 . S
C766 C785 1.429 . S
C766 H790 0.950 . S
C767 C784 1.574 1_554 S
C767 C786 1.368 . S
C767 H791 0.949 . S
H768 C772 0.949 . S
C769 C770 1.349 . S
C769 C771 1.327 . S
C769 H792 0.950 . S
C770 C769 1.349 . S
C770 C782 1.349 . S
C771 C769 1.327 . S
C771 C787 1.429 . S
C771 H793 0.950 . S
C772 H768 0.949 . S
C772 C780 1.574 1_556 S
C772 C788 1.368 . S
H773 C781 0.950 . S
H774 C779 0.950 . S
H775 C780 0.949 . S
H776 C782 0.950 . S
H777 C783 0.950 . S
H778 C784 0.949 . S
C779 H774 0.950 . S
C779 C781 1.327 . S
C779 C785 1.429 . S
C780 C772 1.574 1_554 S
C780 H775 0.949 . S
C780 C786 1.368 . S
C781 C765 1.349 . S
C781 H773 0.950 . S
C781 C779 1.327 . S
C782 C770 1.349 . S
C782 H776 0.950 . S
C782 C783 1.327 . S
C783 H777 0.950 . S
C783 C782 1.327 . S
C783 C787 1.429 . S
C784 C767 1.574 1_556 S
C784 H778 0.949 . S
C784 C788 1.368 . S
C785 C766 1.429 . S
C785 C779 1.429 . S
C785 C786 1.523 . S
C786 C767 1.368 . S
C786 C780 1.368 . S
C786 C785 1.523 . S
C787 C771 1.429 . S
C787 C783 1.429 . S
C787 C788 1.523 . S
C788 C772 1.368 . S
C788 C784 1.368 . S
C788 C787 1.523 . S
H789 C764 0.950 . S
H790 C766 0.950 . S
H791 C767 0.949 . S
H792 C769 0.950 . S
H793 C771 0.950 . S
C794 C795 1.349 . S
C794 C796 1.327 . S
C794 H819 0.950 . S
C795 C794 1.349 . S
C795 C811 1.349 . S
C796 C794 1.327 . S
C796 C815 1.429 . S
C796 H820 0.950 . S
C797 C814 1.574 . S
C797 C816 1.368 . S
C797 H821 0.949 . S
H798 C802 0.949 . S
C799 C800 1.349 . S
C799 C801 1.327 . S
C799 H822 0.950 . S
C800 C799 1.349 . S
C800 C812 1.349 . S
C801 C799 1.327 . S
C801 C817 1.429 . S
C801 H823 0.950 . S
C802 H798 0.949 . S
C802 C810 1.574 . S
C802 C818 1.368 . S
H803 C811 0.950 . S
H804 C809 0.950 . S
H805 C810 0.949 . S
H806 C812 0.950 . S
H807 C813 0.950 . S
H808 C814 0.949 . S
C809 H804 0.950 . S
C809 C811 1.327 . S
C809 C815 1.429 . S
C810 C802 1.574 . S
C810 H805 0.949 . S
C810 C816 1.368 . S
C811 C795 1.349 . S
C811 H803 0.950 . S
C811 C809 1.327 . S
C812 C800 1.349 . S
C812 H806 0.950 . S
C812 C813 1.327 . S
C813 H807 0.950 . S
C813 C812 1.327 . S
C813 C817 1.429 . S
C814 C797 1.574 . S
C814 H808 0.949 . S
C814 C818 1.368 . S
C815 C796 1.429 . S
C815 C809 1.429 . S
C815 C816 1.523 . S
C816 C797 1.368 . S
C816 C810 1.368 . S
C816 C815 1.523 . S
C817 C801 1.429 . S
C817 C813 1.429 . S
C817 C818 1.523 . S
C818 C802 1.368 . S
C818 C814 1.368 . S
C818 C817 1.523 . S
H819 C794 0.950 . S
H820 C796 0.950 . S
H821 C797 0.949 . S
H822 C799 0.950 . S
H823 C801 0.950 . S
C824 C825 1.349 . S
C824 C826 1.327 . S
C824 H849 0.950 . S
C825 C824 1.349 . S
C825 C841 1.349 . S
C826 C824 1.327 . S
C826 C845 1.429 . S
C826 H850 0.950 . S
C827 C844 1.574 . S
C827 C846 1.368 . S
C827 H851 0.949 . S
H828 C832 0.949 . S
C829 C830 1.349 . S
C829 C831 1.327 . S
C829 H852 0.950 . S
C830 C829 1.349 . S
C830 C842 1.349 . S
C831 C829 1.327 . S
C831 C847 1.429 . S
C831 H853 0.950 . S
C832 H828 0.949 . S
C832 C840 1.574 . S
C832 C848 1.368 . S
H833 C841 0.950 . S
H834 C839 0.950 . S
H835 C840 0.949 . S
H836 C842 0.950 . S
H837 C843 0.950 . S
H838 C844 0.949 . S
C839 H834 0.950 . S
C839 C841 1.327 . S
C839 C845 1.429 . S
C840 C832 1.574 . S
C840 H835 0.949 . S
C840 C846 1.368 . S
C841 C825 1.349 . S
C841 H833 0.950 . S
C841 C839 1.327 . S
C842 C830 1.349 . S
C842 H836 0.950 . S
C842 C843 1.327 . S
C843 H837 0.950 . S
C843 C842 1.327 . S
C843 C847 1.429 . S
C844 C827 1.574 . S
C844 H838 0.949 . S
C844 C848 1.368 . S
C845 C826 1.429 . S
C845 C839 1.429 . S
C845 C846 1.523 . S
C846 C827 1.368 . S
C846 C840 1.368 . S
C846 C845 1.523 . S
C847 C831 1.429 . S
C847 C843 1.429 . S
C847 C848 1.523 . S
C848 C832 1.368 . S
C848 C844 1.368 . S
C848 C847 1.523 . S
H849 C824 0.950 . S
H850 C826 0.950 . S
H851 C827 0.949 . S
H852 C829 0.950 . S
H853 C831 0.950 . S
C854 C855 1.349 . S
C854 C856 1.327 . S
C854 H879 0.950 . S
C855 C854 1.349 . S
C855 C871 1.349 . S
C856 C854 1.327 . S
C856 C875 1.429 . S
C856 H880 0.950 . S
C857 C874 1.574 . S
C857 C876 1.368 . S
C857 H881 0.949 . S
H858 C862 0.949 . S
C859 C860 1.349 . S
C859 C861 1.327 . S
C859 H882 0.950 . S
C860 C859 1.349 . S
C860 C872 1.349 . S
C861 C859 1.327 . S
C861 C877 1.429 . S
C861 H883 0.950 . S
C862 H858 0.949 . S
C862 C870 1.574 . S
C862 C878 1.368 . S
H863 C871 0.950 . S
H864 C869 0.950 . S
H865 C870 0.949 . S
H866 C872 0.950 . S
H867 C873 0.950 . S
H868 C874 0.949 . S
C869 H864 0.950 . S
C869 C871 1.327 . S
C869 C875 1.429 . S
C870 C862 1.574 . S
C870 H865 0.949 . S
C870 C876 1.368 . S
C871 C855 1.349 . S
C871 H863 0.950 . S
C871 C869 1.327 . S
C872 C860 1.349 . S
C872 H866 0.950 . S
C872 C873 1.327 . S
C873 H867 0.950 . S
C873 C872 1.327 . S
C873 C877 1.429 . S
C874 C857 1.574 . S
C874 H868 0.949 . S
C874 C878 1.368 . S
C875 C856 1.429 . S
C875 C869 1.429 . S
C875 C876 1.523 . S
C876 C857 1.368 . S
C876 C870 1.368 . S
C876 C875 1.523 . S
C877 C861 1.429 . S
C877 C873 1.429 . S
C877 C878 1.523 . S
C878 C862 1.368 . S
C878 C874 1.368 . S
C878 C877 1.523 . S
H879 C854 0.950 . S
H880 C856 0.950 . S
H881 C857 0.949 . S
H882 C859 0.950 . S
H883 C861 0.950 . S
C884 C885 1.349 . S
C884 C886 1.327 . S
C884 H909 0.950 . S
C885 C884 1.349 . S
C885 C901 1.349 . S
C886 C884 1.327 . S
C886 C905 1.429 . S
C886 H910 0.950 . S
C887 C904 1.574 . S
C887 C906 1.368 . S
C887 H911 0.949 . S
H888 C892 0.949 . S
C889 C890 1.349 . S
C889 C891 1.327 . S
C889 H912 0.950 . S
C890 C889 1.349 . S
C890 C902 1.349 . S
C891 C889 1.327 . S
C891 C907 1.429 . S
C891 H913 0.950 . S
C892 H888 0.949 . S
C892 C900 1.574 . S
C892 C908 1.368 . S
H893 C901 0.950 . S
H894 C899 0.950 . S
H895 C900 0.949 . S
H896 C902 0.950 . S
H897 C903 0.950 . S
H898 C904 0.949 . S
C899 H894 0.950 . S
C899 C901 1.327 . S
C899 C905 1.429 . S
C900 C892 1.574 . S
C900 H895 0.949 . S
C900 C906 1.368 . S
C901 C885 1.349 . S
C901 H893 0.950 . S
C901 C899 1.327 . S
C902 C890 1.349 . S
C902 H896 0.950 . S
C902 C903 1.327 . S
C903 H897 0.950 . S
C903 C902 1.327 . S
C903 C907 1.429 . S
C904 C887 1.574 . S
C904 H898 0.949 . S
C904 C908 1.368 . S
C905 C886 1.429 . S
C905 C899 1.429 . S
C905 C906 1.523 . S
C906 C887 1.368 . S
C906 C900 1.368 . S
C906 C905 1.523 . S
C907 C891 1.429 . S
C907 C903 1.429 . S
C907 C908 1.523 . S
C908 C892 1.368 . S
C908 C904 1.368 . S
C908 C907 1.523 . S
H909 C884 0.950 . S
H910 C886 0.950 . S
H911 C887 0.949 . S
H912 C889 0.950 . S
H913 C891 0.950 . S
C914 C915 1.349 . S
C914 C916 1.327 . S
C914 H939 0.950 . S
C915 C914 1.349 . S
C915 C931 1.349 . S
C916 C914 1.327 . S
C916 C935 1.429 . S
C916 H940 0.950 . S
C917 C934 1.574 . S
C917 C936 1.368 . S
C917 H941 0.949 . S
H918 C922 0.949 . S
C919 C920 1.349 . S
C919 C921 1.327 . S
C919 H942 0.950 . S
C920 C919 1.349 . S
C920 C932 1.349 . S
C921 C919 1.327 . S
C921 C937 1.429 . S
C921 H943 0.950 . S
C922 H918 0.949 . S
C922 C930 1.574 . S
C922 C938 1.368 . S
H923 C931 0.950 . S
H924 C929 0.950 . S
H925 C930 0.949 . S
H926 C932 0.950 . S
H927 C933 0.950 . S
H928 C934 0.949 . S
C929 H924 0.950 . S
C929 C931 1.327 . S
C929 C935 1.429 . S
C930 C922 1.574 . S
C930 H925 0.949 . S
C930 C936 1.368 . S
C931 C915 1.349 . S
C931 H923 0.950 . S
C931 C929 1.327 . S
C932 C920 1.349 . S
C932 H926 0.950 . S
C932 C933 1.327 . S
C933 H927 0.950 . S
C933 C932 1.327 . S
C933 C937 1.429 . S
C934 C917 1.574 . S
C934 H928 0.949 . S
C934 C938 1.368 . S
C935 C916 1.429 . S
C935 C929 1.429 . S
C935 C936 1.523 . S
C936 C917 1.368 . S
C936 C930 1.368 . S
C936 C935 1.523 . S
C937 C921 1.429 . S
C937 C933 1.429 . S
C937 C938 1.523 . S
C938 C922 1.368 . S
C938 C934 1.368 . S
C938 C937 1.523 . S
H939 C914 0.950 . S
H940 C916 0.950 . S
H941 C917 0.949 . S
H942 C919 0.950 . S
H943 C921 0.950 . S
C944 C945 1.349 . S
C944 C946 1.327 . S
C944 H969 0.950 . S
C945 C944 1.349 . S
C945 C961 1.349 . S
C946 C944 1.327 . S
C946 C965 1.429 . S
C946 H970 0.950 . S
C947 C964 1.574 . S
C947 C966 1.368 . S
C947 H971 0.949 . S
H948 C952 0.949 . S
C949 C950 1.349 . S
C949 C951 1.327 . S
C949 H972 0.950 . S
C950 C949 1.349 . S
C950 C962 1.349 . S
C951 C949 1.327 . S
C951 C967 1.429 . S
C951 H973 0.950 . S
C952 H948 0.949 . S
C952 C960 1.574 . S
C952 C968 1.368 . S
H953 C961 0.950 . S
H954 C959 0.950 . S
H955 C960 0.949 . S
H956 C962 0.950 . S
H957 C963 0.950 . S
H958 C964 0.949 . S
C959 H954 0.950 . S
C959 C961 1.327 . S
C959 C965 1.429 . S
C960 C952 1.574 . S
C960 H955 0.949 . S
C960 C966 1.368 . S
C961 C945 1.349 . S
C961 H953 0.950 . S
C961 C959 1.327 . S
C962 C950 1.349 . S
C962 H956 0.950 . S
C962 C963 1.327 . S
C963 H957 0.950 . S
C963 C962 1.327 . S
C963 C967 1.429 . S
C964 C947 1.574 . S
C964 H958 0.949 . S
C964 C968 1.368 . S
C965 C946 1.429 . S
C965 C959 1.429 . S
C965 C966 1.523 . S
C966 C947 1.368 . S
C966 C960 1.368 . S
C966 C965 1.523 . S
C967 C951 1.429 . S
C967 C963 1.429 . S
C967 C968 1.523 . S
C968 C952 1.368 . S
C968 C964 1.368 . S
C968 C967 1.523 . S
H969 C944 0.950 . S
H970 C946 0.950 . S
H971 C947 0.949 . S
H972 C949 0.950 . S
H973 C951 0.950 . S
C974 C975 1.349 . S
C974 C976 1.327 . S
C974 H999 0.950 . S
C975 C974 1.349 . S
C975 C991 1.349 . S
C976 C974 1.327 . S
C976 C995 1.429 . S
C976 H1000 0.950 . S
C977 C994 1.574 . S
C977 C996 1.368 . S
C977 H1001 0.949 . S
H978 C982 0.949 . S
C979 C980 1.349 . S
C979 C981 1.327 . S
C979 H1002 0.950 . S
C980 C979 1.349 . S
C980 C992 1.349 . S
C981 C979 1.327 . S
C981 C997 1.429 . S
C981 H1003 0.950 . S
C982 H978 0.949 . S
C982 C990 1.574 . S
C982 C998 1.368 . S
H983 C991 0.950 . S
H984 C989 0.950 . S
H985 C990 0.949 . S
H986 C992 0.950 . S
H987 C993 0.950 . S
H988 C994 0.949 . S
C989 H984 0.950 . S
C989 C991 1.327 . S
C989 C995 1.429 . S
C990 C982 1.574 . S
C990 H985 0.949 . S
C990 C996 1.368 . S
C991 C975 1.349 . S
C991 H983 0.950 . S
C991 C989 1.327 . S
C992 C980 1.349 . S
C992 H986 0.950 . S
C992 C993 1.327 . S
C993 H987 0.950 . S
C993 C992 1.327 . S
C993 C997 1.429 . S
C994 C977 1.574 . S
C994 H988 0.949 . S
C994 C998 1.368 . S
C995 C976 1.429 . S
C995 C989 1.429 . S
C995 C996 1.523 . S
C996 C977 1.368 . S
C996 C990 1.368 . S
C996 C995 1.523 . S
C997 C981 1.429 . S
C997 C993 1.429 . S
C997 C998 1.523 . S
C998 C982 1.368 . S
C998 C994 1.368 . S
C998 C997 1.523 . S
H999 C974 0.950 . S
H1000 C976 0.950 . S
H1001 C977 0.949 . S
H1002 C979 0.950 . S
H1003 C981 0.950 . S
C1004 C1005 1.349 . S
C1004 C1006 1.327 . S
C1004 H1029 0.950 . S
C1005 C1004 1.349 . S
C1005 C1021 1.349 . S
C1006 C1004 1.327 . S
C1006 C1025 1.429 . S
C1006 H1030 0.950 . S
C1007 C1024 1.574 . S
C1007 C1026 1.368 . S
C1007 H1031 0.949 . S
H1008 C1012 0.949 . S
C1009 C1010 1.349 . S
C1009 C1011 1.327 . S
C1009 H1032 0.950 . S
C1010 C1009 1.349 . S
C1010 C1022 1.349 . S
C1011 C1009 1.327 . S
C1011 C1027 1.429 . S
C1011 H1033 0.950 . S
C1012 H1008 0.949 . S
C1012 C1020 1.574 . S
C1012 C1028 1.368 . S
H1013 C1021 0.950 . S
H1014 C1019 0.950 . S
H1015 C1020 0.949 . S
H1016 C1022 0.950 . S
H1017 C1023 0.950 . S
H1018 C1024 0.949 . S
C1019 H1014 0.950 . S
C1019 C1021 1.327 . S
C1019 C1025 1.429 . S
C1020 C1012 1.574 . S
C1020 H1015 0.949 . S
C1020 C1026 1.368 . S
C1021 C1005 1.349 . S
C1021 H1013 0.950 . S
C1021 C1019 1.327 . S
C1022 C1010 1.349 . S
C1022 H1016 0.950 . S
C1022 C1023 1.327 . S
C1023 H1017 0.950 . S
C1023 C1022 1.327 . S
C1023 C1027 1.429 . S
C1024 C1007 1.574 . S
C1024 H1018 0.949 . S
C1024 C1028 1.368 . S
C1025 C1006 1.429 . S
C1025 C1019 1.429 . S
C1025 C1026 1.523 . S
C1026 C1007 1.368 . S
C1026 C1020 1.368 . S
C1026 C1025 1.523 . S
C1027 C1011 1.429 . S
C1027 C1023 1.429 . S
C1027 C1028 1.523 . S
C1028 C1012 1.368 . S
C1028 C1024 1.368 . S
C1028 C1027 1.523 . S
H1029 C1004 0.950 . S
H1030 C1006 0.950 . S
H1031 C1007 0.949 . S
H1032 C1009 0.950 . S
H1033 C1011 0.950 . S
C1034 C1035 1.349 . S
C1034 C1036 1.327 . S
C1034 H1059 0.950 . S
C1035 C1034 1.349 . S
C1035 C1051 1.349 . S
C1036 C1034 1.327 . S
C1036 C1055 1.429 . S
C1036 H1060 0.950 . S
C1037 C1054 1.574 . S
C1037 C1056 1.368 . S
C1037 H1061 0.949 . S
H1038 C1042 0.949 . S
C1039 C1040 1.349 . S
C1039 C1041 1.327 . S
C1039 H1062 0.950 . S
C1040 C1039 1.349 . S
C1040 C1052 1.349 . S
C1041 C1039 1.327 . S
C1041 C1057 1.429 . S
C1041 H1063 0.950 . S
C1042 H1038 0.949 . S
C1042 C1050 1.574 . S
C1042 C1058 1.368 . S
H1043 C1051 0.950 . S
H1044 C1049 0.950 . S
H1045 C1050 0.949 . S
H1046 C1052 0.950 . S
H1047 C1053 0.950 . S
H1048 C1054 0.949 . S
C1049 H1044 0.950 . S
C1049 C1051 1.327 . S
C1049 C1055 1.429 . S
C1050 C1042 1.574 . S
C1050 H1045 0.949 . S
C1050 C1056 1.368 . S
C1051 C1035 1.349 . S
C1051 H1043 0.950 . S
C1051 C1049 1.327 . S
C1052 C1040 1.349 . S
C1052 H1046 0.950 . S
C1052 C1053 1.327 . S
C1053 H1047 0.950 . S
C1053 C1052 1.327 . S
C1053 C1057 1.429 . S
C1054 C1037 1.574 . S
C1054 H1048 0.949 . S
C1054 C1058 1.368 . S
C1055 C1036 1.429 . S
C1055 C1049 1.429 . S
C1055 C1056 1.523 . S
C1056 C1037 1.368 . S
C1056 C1050 1.368 . S
C1056 C1055 1.523 . S
C1057 C1041 1.429 . S
C1057 C1053 1.429 . S
C1057 C1058 1.523 . S
C1058 C1042 1.368 . S
C1058 C1054 1.368 . S
C1058 C1057 1.523 . S
H1059 C1034 0.950 . S
H1060 C1036 0.950 . S
H1061 C1037 0.949 . S
H1062 C1039 0.950 . S
H1063 C1041 0.950 . S
C1064 C1065 1.349 . S
C1064 C1066 1.327 . S
C1064 H1089 0.950 . S
C1065 C1064 1.349 . S
C1065 C1081 1.349 . S
C1066 C1064 1.327 . S
C1066 C1085 1.429 . S
C1066 H1090 0.950 . S
C1067 C1084 1.574 . S
C1067 C1086 1.368 . S
C1067 H1091 0.949 . S
H1068 C1072 0.949 . S
C1069 C1070 1.349 . S
C1069 C1071 1.327 . S
C1069 H1092 0.950 . S
C1070 C1069 1.349 . S
C1070 C1082 1.349 . S
C1071 C1069 1.327 . S
C1071 C1087 1.429 . S
C1071 H1093 0.950 . S
C1072 H1068 0.949 . S
C1072 C1080 1.574 . S
C1072 C1088 1.368 . S
H1073 C1081 0.950 . S
H1074 C1079 0.950 . S
H1075 C1080 0.949 . S
H1076 C1082 0.950 . S
H1077 C1083 0.950 . S
H1078 C1084 0.949 . S
C1079 H1074 0.950 . S
C1079 C1081 1.327 . S
C1079 C1085 1.429 . S
C1080 C1072 1.574 . S
C1080 H1075 0.949 . S
C1080 C1086 1.368 1_455 S
C1081 C1065 1.349 . S
C1081 H1073 0.950 . S
C1081 C1079 1.327 . S
C1082 C1070 1.349 . S
C1082 H1076 0.950 . S
C1082 C1083 1.327 . S
C1083 H1077 0.950 . S
C1083 C1082 1.327 . S
C1083 C1087 1.429 . S
C1084 C1067 1.574 . S
C1084 H1078 0.949 . S
C1084 C1088 1.368 1_655 S
C1085 C1066 1.429 . S
C1085 C1079 1.429 . S
C1085 C1086 1.523 . S
C1086 C1067 1.368 . S
C1086 C1080 1.368 1_655 S
C1086 C1085 1.523 . S
C1087 C1071 1.429 . S
C1087 C1083 1.429 . S
C1087 C1088 1.523 . S
C1088 C1072 1.368 . S
C1088 C1084 1.368 1_455 S
C1088 C1087 1.523 . S
H1089 C1064 0.950 . S
H1090 C1066 0.950 . S
H1091 C1067 0.949 . S
H1092 C1069 0.950 . S
H1093 C1071 0.950 . S
C1094 C1095 1.349 . S
C1094 C1096 1.327 . S
C1094 H1119 0.950 . S
C1095 C1094 1.349 . S
C1095 C1111 1.349 . S
C1096 C1094 1.327 . S
C1096 C1115 1.429 . S
C1096 H1120 0.950 . S
C1097 C1114 1.574 1_655 S
C1097 C1116 1.368 . S
C1097 H1121 0.949 . S
H1098 C1102 0.949 . S
C1099 C1100 1.349 . S
C1099 C1101 1.327 . S
C1099 H1122 0.950 . S
C1100 C1099 1.349 . S
C1100 C1112 1.349 . S
C1101 C1099 1.327 . S
C1101 C1117 1.429 . S
C1101 H1123 0.950 . S
C1102 H1098 0.949 . S
C1102 C1110 1.574 1_455 S
C1102 C1118 1.368 . S
H1103 C1111 0.950 . S
H1104 C1109 0.950 . S
H1105 C1110 0.949 . S
H1106 C1112 0.950 . S
H1107 C1113 0.950 . S
H1108 C1114 0.949 . S
C1109 H1104 0.950 . S
C1109 C1111 1.327 . S
C1109 C1115 1.429 . S
C1110 C1102 1.574 1_655 S
C1110 H1105 0.949 . S
C1110 C1116 1.368 . S
C1111 C1095 1.349 . S
C1111 H1103 0.950 . S
C1111 C1109 1.327 . S
C1112 C1100 1.349 . S
C1112 H1106 0.950 . S
C1112 C1113 1.327 . S
C1113 H1107 0.950 . S
C1113 C1112 1.327 . S
C1113 C1117 1.429 . S
C1114 C1097 1.574 1_455 S
C1114 H1108 0.949 . S
C1114 C1118 1.368 . S
C1115 C1096 1.429 . S
C1115 C1109 1.429 . S
C1115 C1116 1.523 . S
C1116 C1097 1.368 . S
C1116 C1110 1.368 . S
C1116 C1115 1.523 . S
C1117 C1101 1.429 . S
C1117 C1113 1.429 . S
C1117 C1118 1.523 . S
C1118 C1102 1.368 . S
C1118 C1114 1.368 . S
C1118 C1117 1.523 . S
H1119 C1094 0.950 . S
H1120 C1096 0.950 . S
H1121 C1097 0.949 . S
H1122 C1099 0.950 . S
H1123 C1101 0.950 . S
C1124 C1125 1.349 . S
C1124 C1126 1.327 . S
C1124 H1149 0.950 . S
C1125 C1124 1.349 . S
C1125 C1141 1.349 . S
C1126 C1124 1.327 . S
C1126 C1145 1.429 . S
C1126 H1150 0.950 . S
C1127 C1144 1.574 1_545 S
C1127 C1146 1.368 . S
C1127 H1151 0.949 . S
H1128 C1132 0.949 . S
C1129 C1130 1.349 . S
C1129 C1131 1.327 . S
C1129 H1152 0.950 . S
C1130 C1129 1.349 . S
C1130 C1142 1.349 . S
C1131 C1129 1.327 . S
C1131 C1147 1.429 . S
C1131 H1153 0.950 . S
C1132 H1128 0.949 . S
C1132 C1140 1.574 1_565 S
C1132 C1148 1.368 . S
H1133 C1141 0.950 . S
H1134 C1139 0.950 . S
H1135 C1140 0.949 . S
H1136 C1142 0.950 . S
H1137 C1143 0.950 . S
H1138 C1144 0.949 . S
C1139 H1134 0.950 . S
C1139 C1141 1.327 . S
C1139 C1145 1.429 . S
C1140 C1132 1.574 1_545 S
C1140 H1135 0.949 . S
C1140 C1146 1.368 . S
C1141 C1125 1.349 . S
C1141 H1133 0.950 . S
C1141 C1139 1.327 . S
C1142 C1130 1.349 . S
C1142 H1136 0.950 . S
C1142 C1143 1.327 . S
C1143 H1137 0.950 . S
C1143 C1142 1.327 . S
C1143 C1147 1.429 . S
C1144 C1127 1.574 1_565 S
C1144 H1138 0.949 . S
C1144 C1148 1.368 . S
C1145 C1126 1.429 . S
C1145 C1139 1.429 . S
C1145 C1146 1.523 . S
C1146 C1127 1.368 . S
C1146 C1140 1.368 . S
C1146 C1145 1.523 . S
C1147 C1131 1.429 . S
C1147 C1143 1.429 . S
C1147 C1148 1.523 . S
C1148 C1132 1.368 . S
C1148 C1144 1.368 . S
C1148 C1147 1.523 . S
H1149 C1124 0.950 . S
H1150 C1126 0.950 . S
H1151 C1127 0.949 . S
H1152 C1129 0.950 . S
H1153 C1131 0.950 . S
C1154 C1155 1.349 . S
C1154 C1156 1.327 . S
C1154 H1179 0.950 . S
C1155 C1154 1.349 . S
C1155 C1171 1.349 . S
C1156 C1154 1.327 . S
C1156 C1175 1.429 . S
C1156 H1180 0.950 . S
C1157 C1174 1.574 . S
C1157 C1176 1.368 1_565 S
C1157 H1181 0.949 . S
H1158 C1162 0.949 . S
C1159 C1160 1.349 . S
C1159 C1161 1.327 . S
C1159 H1182 0.950 . S
C1160 C1159 1.349 . S
C1160 C1172 1.349 . S
C1161 C1159 1.327 . S
C1161 C1177 1.429 . S
C1161 H1183 0.950 . S
C1162 H1158 0.949 . S
C1162 C1170 1.574 . S
C1162 C1178 1.368 1_545 S
H1163 C1171 0.950 . S
H1164 C1169 0.950 . S
H1165 C1170 0.949 . S
H1166 C1172 0.950 . S
H1167 C1173 0.950 . S
H1168 C1174 0.949 . S
C1169 H1164 0.950 . S
C1169 C1171 1.327 . S
C1169 C1175 1.429 . S
C1170 C1162 1.574 . S
C1170 H1165 0.949 . S
C1170 C1176 1.368 . S
C1171 C1155 1.349 . S
C1171 H1163 0.950 . S
C1171 C1169 1.327 . S
C1172 C1160 1.349 . S
C1172 H1166 0.950 . S
C1172 C1173 1.327 . S
C1173 H1167 0.950 . S
C1173 C1172 1.327 . S
C1173 C1177 1.429 . S
C1174 C1157 1.574 . S
C1174 H1168 0.949 . S
C1174 C1178 1.368 . S
C1175 C1156 1.429 . S
C1175 C1169 1.429 . S
C1175 C1176 1.523 . S
C1176 C1157 1.368 1_545 S
C1176 C1170 1.368 . S
C1176 C1175 1.523 . S
C1177 C1161 1.429 . S
C1177 C1173 1.429 . S
C1177 C1178 1.523 . S
C1178 C1162 1.368 1_565 S
C1178 C1174 1.368 . S
C1178 C1177 1.523 . S
H1179 C1154 0.950 . S
H1180 C1156 0.950 . S
H1181 C1157 0.949 . S
H1182 C1159 0.950 . S
H1183 C1161 0.950 . S
C705 C49 1.236 . S
C710 C469 1.239 . S
C735 C108 1.239 . S
C740 C557 1.236 . S
C765 C233 1.236 . S
C770 C665 1.239 . S
C795 C381 1.236 . S
C800 C313 1.238 . S
C825 C29 1.767 . S
C830 C372 1.709 . S
C855 C117 1.776 . S
C860 C497 1.726 . S
C885 C548 1.709 . S
C890 C196 1.767 . S
C915 C321 1.776 . S
C920 C636 1.726 . S
C945 C401 1.767 . S
C950 C57 1.709 . S
C975 C137 1.726 . S
C980 C460 1.776 . S
C1005 C577 1.767 . S
C1010 C225 1.709 . S
C1035 C284 1.726 . S
C1040 C673 1.776 . S
C1065 C205 0.342 . S
C1070 C20 0.342 . S
C1095 C293 0.366 . S
C1100 C145 0.366 . S
C1125 C409 0.342 . S
C1130 C585 0.342 . S
C1155 C489 0.366 . S
C1160 C645 0.366 . S
