# Generated by pormake.
# Topology wgo, (5)-cn, num edge types: 1
# Building blocks:
#     Node 0, Type 0, BuildingBlock: BEQFEK_clean_sbu_0, # of connection points: 5
#     Node 1, Type 0, BuildingBlock: BEQFEK_clean_sbu_0, # of connection points: 5
#     Node 2, Type 0, BuildingBlock: BEQFEK_clean_sbu_0, # of connection points: 5
#     Node 3, Type 0, BuildingBlock: BEQFEK_clean_sbu_0, # of connection points: 5
#     Node 4, Type 0, BuildingBlock: BEQFEK_clean_sbu_0, # of connection points: 5
#     Node 5, Type 0, BuildingBlock: BEQFEK_clean_sbu_0, # of connection points: 5
#     Node 6, Type 0, BuildingBlock: BEQFEK_clean_sbu_0, # of connection points: 5
#     Node 7, Type 0, BuildingBlock: BEQFEK_clean_sbu_0, # of connection points: 5
#     Node 8, Type 0, BuildingBlock: BEQFEK_clean_sbu_0, # of connection points: 5
#     Node 9, Type 0, BuildingBlock: BEQFEK_clean_sbu_0, # of connection points: 5
#     Node 10, Type 0, BuildingBlock: BEQFEK_clean_sbu_0, # of connection points: 5
#     Node 11, Type 0, BuildingBlock: BEQFEK_clean_sbu_0, # of connection points: 5
#     Node 12, Type 0, BuildingBlock: BEQFEK_clean_sbu_0, # of connection points: 5
#     Node 13, Type 0, BuildingBlock: BEQFEK_clean_sbu_0, # of connection points: 5
#     Node 14, Type 0, BuildingBlock: BEQFEK_clean_sbu_0, # of connection points: 5
#     Node 15, Type 0, BuildingBlock: BEQFEK_clean_sbu_0, # of connection points: 5
#     Node 16, Type 0, BuildingBlock: BEQFEK_clean_sbu_0, # of connection points: 5
#     Node 17, Type 0, BuildingBlock: BEQFEK_clean_sbu_0, # of connection points: 5
#     Node 18, Type 0, BuildingBlock: BEQFEK_clean_sbu_0, # of connection points: 5
#     Node 19, Type 0, BuildingBlock: BEQFEK_clean_sbu_0, # of connection points: 5
#     Node 20, Type 0, BuildingBlock: BEQFEK_clean_sbu_0, # of connection points: 5
#     Node 21, Type 0, BuildingBlock: BEQFEK_clean_sbu_0, # of connection points: 5
#     Node 22, Type 0, BuildingBlock: BEQFEK_clean_sbu_0, # of connection points: 5
#     Node 23, Type 0, BuildingBlock: BEQFEK_clean_sbu_0, # of connection points: 5
#     Node 24, Type 0, BuildingBlock: BEQFEK_clean_sbu_0, # of connection points: 5
#     Node 25, Type 0, BuildingBlock: BEQFEK_clean_sbu_0, # of connection points: 5
#     Node 26, Type 0, BuildingBlock: BEQFEK_clean_sbu_0, # of connection points: 5
#     Node 27, Type 0, BuildingBlock: BEQFEK_clean_sbu_0, # of connection points: 5
#     Node 28, Type 0, BuildingBlock: BEQFEK_clean_sbu_0, # of connection points: 5
#     Node 29, Type 0, BuildingBlock: BEQFEK_clean_sbu_0, # of connection points: 5
#     Node 30, Type 0, BuildingBlock: BEQFEK_clean_sbu_0, # of connection points: 5
#     Node 31, Type 0, BuildingBlock: BEQFEK_clean_sbu_0, # of connection points: 5
#     Edge 32, Type (0, 0), BuildingBlock: AJUNOK_clean_linker_0, # of connection points: 2
#     Edge 33, Type (0, 0), BuildingBlock: AJUNOK_clean_linker_0, # of connection points: 2
#     Edge 34, Type (0, 0), BuildingBlock: AJUNOK_clean_linker_0, # of connection points: 2
#     Edge 35, Type (0, 0), BuildingBlock: AJUNOK_clean_linker_0, # of connection points: 2
#     Edge 36, Type (0, 0), BuildingBlock: AJUNOK_clean_linker_0, # of connection points: 2
#     Edge 37, Type (0, 0), BuildingBlock: AJUNOK_clean_linker_0, # of connection points: 2
#     Edge 38, Type (0, 0), BuildingBlock: AJUNOK_clean_linker_0, # of connection points: 2
#     Edge 39, Type (0, 0), BuildingBlock: AJUNOK_clean_linker_0, # of connection points: 2
#     Edge 40, Type (0, 0), BuildingBlock: AJUNOK_clean_linker_0, # of connection points: 2
#     Edge 41, Type (0, 0), BuildingBlock: AJUNOK_clean_linker_0, # of connection points: 2
#     Edge 42, Type (0, 0), BuildingBlock: AJUNOK_clean_linker_0, # of connection points: 2
#     Edge 43, Type (0, 0), BuildingBlock: AJUNOK_clean_linker_0, # of connection points: 2
#     Edge 44, Type (0, 0), BuildingBlock: AJUNOK_clean_linker_0, # of connection points: 2
#     Edge 45, Type (0, 0), BuildingBlock: AJUNOK_clean_linker_0, # of connection points: 2
#     Edge 46, Type (0, 0), BuildingBlock: AJUNOK_clean_linker_0, # of connection points: 2
#     Edge 47, Type (0, 0), BuildingBlock: AJUNOK_clean_linker_0, # of connection points: 2
#     Edge 48, Type (0, 0), BuildingBlock: AJUNOK_clean_linker_0, # of connection points: 2
#     Edge 49, Type (0, 0), BuildingBlock: AJUNOK_clean_linker_0, # of connection points: 2
#     Edge 50, Type (0, 0), BuildingBlock: AJUNOK_clean_linker_0, # of connection points: 2
#     Edge 51, Type (0, 0), BuildingBlock: AJUNOK_clean_linker_0, # of connection points: 2
#     Edge 52, Type (0, 0), BuildingBlock: AJUNOK_clean_linker_0, # of connection points: 2
#     Edge 53, Type (0, 0), BuildingBlock: AJUNOK_clean_linker_0, # of connection points: 2
#     Edge 54, Type (0, 0), BuildingBlock: AJUNOK_clean_linker_0, # of connection points: 2
#     Edge 55, Type (0, 0), BuildingBlock: AJUNOK_clean_linker_0, # of connection points: 2
#     Edge 56, Type (0, 0), BuildingBlock: AJUNOK_clean_linker_0, # of connection points: 2
#     Edge 57, Type (0, 0), BuildingBlock: AJUNOK_clean_linker_0, # of connection points: 2
#     Edge 58, Type (0, 0), BuildingBlock: AJUNOK_clean_linker_0, # of connection points: 2
#     Edge 59, Type (0, 0), BuildingBlock: AJUNOK_clean_linker_0, # of connection points: 2
#     Edge 60, Type (0, 0), BuildingBlock: AJUNOK_clean_linker_0, # of connection points: 2
#     Edge 61, Type (0, 0), BuildingBlock: AJUNOK_clean_linker_0, # of connection points: 2
#     Edge 62, Type (0, 0), BuildingBlock: AJUNOK_clean_linker_0, # of connection points: 2
#     Edge 63, Type (0, 0), BuildingBlock: AJUNOK_clean_linker_0, # of connection points: 2
#     Edge 64, Type (0, 0), BuildingBlock: AJUNOK_clean_linker_0, # of connection points: 2
#     Edge 65, Type (0, 0), BuildingBlock: AJUNOK_clean_linker_0, # of connection points: 2
#     Edge 66, Type (0, 0), BuildingBlock: AJUNOK_clean_linker_0, # of connection points: 2
#     Edge 67, Type (0, 0), BuildingBlock: AJUNOK_clean_linker_0, # of connection points: 2
#     Edge 68, Type (0, 0), BuildingBlock: AJUNOK_clean_linker_0, # of connection points: 2
#     Edge 69, Type (0, 0), BuildingBlock: AJUNOK_clean_linker_0, # of connection points: 2
#     Edge 70, Type (0, 0), BuildingBlock: AJUNOK_clean_linker_0, # of connection points: 2
#     Edge 71, Type (0, 0), BuildingBlock: AJUNOK_clean_linker_0, # of connection points: 2
#     Edge 72, Type (0, 0), BuildingBlock: AJUNOK_clean_linker_0, # of connection points: 2
#     Edge 73, Type (0, 0), BuildingBlock: AJUNOK_clean_linker_0, # of connection points: 2
#     Edge 74, Type (0, 0), BuildingBlock: AJUNOK_clean_linker_0, # of connection points: 2
#     Edge 75, Type (0, 0), BuildingBlock: AJUNOK_clean_linker_0, # of connection points: 2
#     Edge 76, Type (0, 0), BuildingBlock: AJUNOK_clean_linker_0, # of connection points: 2
#     Edge 77, Type (0, 0), BuildingBlock: AJUNOK_clean_linker_0, # of connection points: 2
#     Edge 78, Type (0, 0), BuildingBlock: AJUNOK_clean_linker_0, # of connection points: 2
#     Edge 79, Type (0, 0), BuildingBlock: AJUNOK_clean_linker_0, # of connection points: 2
#     Edge 80, Type (0, 0), BuildingBlock: AJUNOK_clean_linker_0, # of connection points: 2
#     Edge 81, Type (0, 0), BuildingBlock: AJUNOK_clean_linker_0, # of connection points: 2
#     Edge 82, Type (0, 0), BuildingBlock: AJUNOK_clean_linker_0, # of connection points: 2
#     Edge 83, Type (0, 0), BuildingBlock: AJUNOK_clean_linker_0, # of connection points: 2
#     Edge 84, Type (0, 0), BuildingBlock: AJUNOK_clean_linker_0, # of connection points: 2
#     Edge 85, Type (0, 0), BuildingBlock: AJUNOK_clean_linker_0, # of connection points: 2
#     Edge 86, Type (0, 0), BuildingBlock: AJUNOK_clean_linker_0, # of connection points: 2
#     Edge 87, Type (0, 0), BuildingBlock: AJUNOK_clean_linker_0, # of connection points: 2
#     Edge 88, Type (0, 0), BuildingBlock: AJUNOK_clean_linker_0, # of connection points: 2
#     Edge 89, Type (0, 0), BuildingBlock: AJUNOK_clean_linker_0, # of connection points: 2
#     Edge 90, Type (0, 0), BuildingBlock: AJUNOK_clean_linker_0, # of connection points: 2
#     Edge 91, Type (0, 0), BuildingBlock: AJUNOK_clean_linker_0, # of connection points: 2
#     Edge 92, Type (0, 0), BuildingBlock: AJUNOK_clean_linker_0, # of connection points: 2
#     Edge 93, Type (0, 0), BuildingBlock: AJUNOK_clean_linker_0, # of connection points: 2
#     Edge 94, Type (0, 0), BuildingBlock: AJUNOK_clean_linker_0, # of connection points: 2
#     Edge 95, Type (0, 0), BuildingBlock: AJUNOK_clean_linker_0, # of connection points: 2
#     Edge 96, Type (0, 0), BuildingBlock: AJUNOK_clean_linker_0, # of connection points: 2
#     Edge 97, Type (0, 0), BuildingBlock: AJUNOK_clean_linker_0, # of connection points: 2
#     Edge 98, Type (0, 0), BuildingBlock: AJUNOK_clean_linker_0, # of connection points: 2
#     Edge 99, Type (0, 0), BuildingBlock: AJUNOK_clean_linker_0, # of connection points: 2
#     Edge 100, Type (0, 0), BuildingBlock: AJUNOK_clean_linker_0, # of connection points: 2
#     Edge 101, Type (0, 0), BuildingBlock: AJUNOK_clean_linker_0, # of connection points: 2
#     Edge 102, Type (0, 0), BuildingBlock: AJUNOK_clean_linker_0, # of connection points: 2
#     Edge 103, Type (0, 0), BuildingBlock: AJUNOK_clean_linker_0, # of connection points: 2
#     Edge 104, Type (0, 0), BuildingBlock: AJUNOK_clean_linker_0, # of connection points: 2
#     Edge 105, Type (0, 0), BuildingBlock: AJUNOK_clean_linker_0, # of connection points: 2
#     Edge 106, Type (0, 0), BuildingBlock: AJUNOK_clean_linker_0, # of connection points: 2
#     Edge 107, Type (0, 0), BuildingBlock: AJUNOK_clean_linker_0, # of connection points: 2
#     Edge 108, Type (0, 0), BuildingBlock: AJUNOK_clean_linker_0, # of connection points: 2
#     Edge 109, Type (0, 0), BuildingBlock: AJUNOK_clean_linker_0, # of connection points: 2
#     Edge 110, Type (0, 0), BuildingBlock: AJUNOK_clean_linker_0, # of connection points: 2
#     Edge 111, Type (0, 0), BuildingBlock: AJUNOK_clean_linker_0, # of connection points: 2
# Relax obj value: 0.339
# Max RMSD: 0.187
# Mean RMSD: 0.187
data_MOF--net-wgo--node1-BEQFEK_clean_sbu_0--edge1-AJUNOK_clean_linker_0
_symmetry_space_group_name_H-M    P1
_symmetry_Int_Tables_number       1
_symmetry_cell_setting            triclinic
loop_
_symmetry_equiv_pos_as_xyz
'x, y, z'
_cell_length_a     27.613186
_cell_length_b     27.541695
_cell_length_c     76.442036
_cell_angle_alpha  89.914763
_cell_angle_beta   89.967029
_cell_angle_gamma 90.078566
loop_
_atom_site_label
_atom_site_type_symbol
_atom_site_fract_x
_atom_site_fract_y
_atom_site_fract_z
_atom_type_partial_charge
Co0 Co 0.50202 0.04766 0.10909 0.0
Co1 Co 0.40393 0.08542 0.09613 0.0
C2 C 0.47176 0.0393 0.07122 0.0
O3 O 0.50174 0.03679 0.0837 0.0
O4 O 0.42928 0.05573 0.07386 0.0
C5 C 0.56816 0.97361 0.1072 0.0
O6 O 0.53137 0.95211 0.09953 0.0
C7 C 0.30126 0.08239 0.08869 0.0
C8 C 0.2798 0.15778 0.09474 0.0
C9 C 0.26096 0.11208 0.09125 0.0
N10 N 0.34106 0.10894 0.09166 0.0
N11 N 0.32824 0.15433 0.09459 0.0
C12 C 0.3033 0.02896 0.08499 0.0
H13 H 0.34034 0.01469 0.08726 0.0
H14 H 0.27709 1.00847 0.09312 0.0
H15 H 0.29394 0.0228 0.07105 0.0
C16 C 0.43886 0.98854 0.13298 0.0
N17 N 0.44563 0.02168 0.12014 0.0
N18 N 0.40353 0.04035 0.11566 0.0
C19 C 0.369 0.02116 0.12623 0.0
C20 C 0.38986 0.98655 0.13705 0.0
C21 C 0.47863 0.95944 0.14111 0.0
H22 H 0.49112 0.93174 0.13162 0.0
H23 H 0.46627 0.94068 0.15317 0.0
H24 H 0.50977 0.98347 0.14416 0.0
O25 O 0.51073 0.11883 0.11345 0.0
O26 O 0.44148 0.14415 0.10213 0.0
H27 H 0.30929 0.04135 0.14266 0.0
H28 H 0.29242 0.01664 0.12208 0.0
C29 C 0.3189 0.04084 0.12855 0.0
H30 H 0.31617 0.0783 0.12343 0.0
H31 H 0.35231 0.18219 0.09774 0.0
O32 O 0.56118 0.01312 0.1154 0.0
C33 C 0.48223 0.15319 0.10912 0.0
Co34 Co 0.21723 0.25031 0.35559 0.0
Co35 Co 0.178 0.15005 0.34423 0.0
C36 C 0.22357 0.21438 0.31793 0.0
O37 O 0.22746 0.24486 0.33027 0.0
O38 O 0.20593 0.1722 0.3209 0.0
C39 C 0.29281 0.31648 0.3529 0.0
O40 O 0.31401 0.27953 0.34522 0.0
C41 C 0.17115 0.04449 0.33805 0.0
C42 C 0.10501 0.02825 0.35329 0.0
C43 C 0.14338 1.00664 0.3447 0.0
N44 N 0.15079 0.08653 0.34301 0.0
N45 N 0.1103 0.07648 0.35153 0.0
C46 C 0.21925 0.04089 0.32911 0.0
H47 H 0.24014 0.07504 0.33078 0.0
H48 H 0.24024 1.00949 0.33414 0.0
H49 H 0.21313 0.03505 0.31492 0.0
C50 C 0.27701 0.18969 0.37994 0.0
N51 N 0.24284 0.19529 0.36743 0.0
N52 N 0.22576 0.15242 0.36293 0.0
C53 C 0.2481 0.11835 0.37285 0.0
C54 C 0.28209 0.1405 0.3836 0.0
C55 C 0.30538 0.23061 0.3877 0.0
H56 H 0.28144 0.26239 0.38981 0.0
H57 H 0.33432 0.24146 0.37841 0.0
H58 H 0.32258 0.21989 0.40023 0.0
O59 O 0.14679 0.26093 0.36002 0.0
O60 O 0.12039 0.19068 0.34984 0.0
H61 H 0.24549 0.04931 0.38626 0.0
H62 H 0.25177 0.046 0.36297 0.0
C63 C 0.23399 0.06606 0.37372 0.0
H64 H 0.19424 0.06283 0.37262 0.0
H65 H 0.08844 0.10247 0.35752 0.0
O66 O 0.25256 0.31018 0.36067 0.0
C67 C 0.11199 0.23253 0.35614 0.0
Co68 Co 0.01368 0.96592 0.60701 0.0
Co69 Co 0.11317 0.93643 0.59202 0.0
C70 C 0.04581 0.9813 0.56817 0.0
O71 O 0.01727 0.98229 0.58131 0.0
O72 O 0.08843 0.96365 0.56955 0.0
C73 C 0.94697 0.04065 0.60988 0.0
O74 O 0.98471 0.06642 0.60505 0.0
C75 C 0.22042 0.92458 0.58548 0.0
C76 C 0.23332 0.86932 0.60594 0.0
C77 C 0.25701 0.89981 0.5944 0.0
N78 N 0.17746 0.91069 0.59221 0.0
N79 N 0.18574 0.87663 0.60402 0.0
C80 C 0.22633 0.96403 0.57217 0.0
H81 H 0.19085 0.98062 0.56893 0.0
H82 H 0.25187 0.99209 0.57704 0.0
H83 H 0.24194 0.94844 0.56005 0.0
C84 C 0.07726 0.02048 0.63255 0.0
N85 N 0.0691 0.99123 0.61866 0.0
N86 N 0.10996 0.98449 0.61027 0.0
C87 C 0.1445 0.01253 0.61755 0.0
C88 C 0.12606 0.03481 0.63257 0.0
C89 C 0.03893 0.03353 0.64554 0.0
H90 H 0.00873 1.00693 0.64501 0.0
H91 H 0.02433 0.06996 0.6423 0.0
H92 H 0.05424 0.03464 0.65895 0.0
O93 O 1.00623 0.89535 0.61034 0.0
O94 O 0.07532 0.87595 0.59775 0.0
H95 H 0.2173 0.99768 0.60951 0.0
H96 H 0.20457 0.06149 0.61276 0.0
C97 C 0.1897 0.0265 0.60797 0.0
H98 H 0.18129 0.03064 0.59389 0.0
H99 H 0.15913 0.86146 0.612 0.0
O100 O 0.95271 0.99641 0.61395 0.0
C101 C 0.03589 0.86337 0.60508 0.0
Co102 Co 0.304 0.75724 0.85839 0.0
Co103 Co 0.33255 0.8579 0.84376 0.0
C104 C 0.29019 0.78937 0.81968 0.0
O105 O 0.29067 0.76004 0.83256 0.0
O106 O 0.30482 0.83303 0.82155 0.0
C107 C 0.22665 0.69657 0.85756 0.0
O108 O 0.20934 0.73573 0.85 0.0
C109 C 0.33931 0.96322 0.83437 0.0
C110 C 0.38586 0.98635 0.85634 0.0
C111 C 0.35772 1.00417 0.84283 0.0
N112 N 0.35443 0.92355 0.8431 0.0
N113 N 0.38347 0.93777 0.85582 0.0
C114 C 0.3099 0.96147 0.81791 0.0
H115 H 0.3281 0.93719 0.80838 0.0
H116 H 0.27378 0.94553 0.82049 0.0
H117 H 0.3059 0.99814 0.81203 0.0
C118 C 0.24879 0.8201 0.88409 0.0
N119 N 0.2779 0.81248 0.87008 0.0
N120 N 0.28548 0.85402 0.86214 0.0
C121 C 0.25901 0.88863 0.87004 0.0
C122 C 0.23626 0.86932 0.88478 0.0
C123 C 0.23393 0.78105 0.89658 0.0
H124 H 0.25984 0.75031 0.89605 0.0
H125 H 0.19754 0.76746 0.89284 0.0
H126 H 0.23186 0.79553 0.91011 0.0
O127 O 0.3751 0.75035 0.86185 0.0
O128 O 0.39322 0.82111 0.8497 0.0
H129 H 0.27974 0.96144 0.8642 0.0
H130 H 0.21524 0.95327 0.86709 0.0
C131 C 0.24883 0.93671 0.86183 0.0
H132 H 0.24441 0.93174 0.84758 0.0
H133 H 0.39865 0.91438 0.86505 0.0
O134 O 0.26814 0.69828 0.86478 0.0
C135 C 0.40643 0.78135 0.85679 0.0
Co136 Co 0.50443 0.96171 0.4618 0.0
Co137 Co 0.40295 0.93 0.47451 0.0
C138 C 0.47112 0.97569 0.49936 0.0
O139 O 0.5016 0.97536 0.48699 0.0
O140 O 0.42793 0.96072 0.4968 0.0
C141 C 0.56891 0.03714 0.46313 0.0
O142 O 0.53006 0.05878 0.46923 0.0
C143 C 0.29932 0.93481 0.48324 0.0
C144 C 0.27318 0.86752 0.47069 0.0
C145 C 0.25737 0.9097 0.47868 0.0
N146 N 0.33766 0.90935 0.47755 0.0
N147 N 0.32178 0.86849 0.47057 0.0
C148 C 0.30354 0.98217 0.49273 0.0
H149 H 0.32077 0.00974 0.48417 0.0
H150 H 0.26782 0.99528 0.49738 0.0
H151 H 0.32781 0.97731 0.50416 0.0
C152 C 0.44558 0.02016 0.43631 0.0
N153 N 0.45007 0.9883 0.44971 0.0
N154 N 0.40669 0.97414 0.45478 0.0
C155 C 0.37343 0.99597 0.44441 0.0
C156 C 0.39668 0.0266 0.43269 0.0
C157 C 0.48727 0.04504 0.42757 0.0
H158 H 0.51816 0.01958 0.42629 0.0
H159 H 0.49903 0.07608 0.43577 0.0
H160 H 0.477 0.05929 0.41452 0.0
O161 O 0.51109 0.88998 0.45868 0.0
O162 O 0.43957 0.86879 0.46946 0.0
H163 H 0.31351 0.94693 0.44739 0.0
H164 H 0.30368 0.99447 0.43168 0.0
C165 C 0.32032 0.98565 0.44451 0.0
H166 H 0.30301 1.00882 0.45448 0.0
H167 H 0.34388 0.84295 0.46451 0.0
O168 O 0.56495 0.99531 0.45622 0.0
C169 C 0.48063 0.85731 0.46307 0.0
Co170 Co 0.29863 0.25533 0.71339 0.0
Co171 Co 0.33339 0.15404 0.72608 0.0
C172 C 0.29331 0.22055 0.75184 0.0
O173 O 0.29075 0.25046 0.7392 0.0
O174 O 0.30812 0.17725 0.74923 0.0
C175 C 0.22085 0.3159 0.71626 0.0
O176 O 0.20626 0.27837 0.72549 0.0
C177 C 0.34365 0.04775 0.73379 0.0
C178 C 0.40144 0.03071 0.71481 0.0
C179 C 0.369 1.00947 0.72629 0.0
N180 N 0.35962 0.08957 0.72666 0.0
N181 N 0.3954 0.07899 0.71582 0.0
C182 C 0.30185 0.04391 0.74618 0.0
H183 H 0.28299 0.0793 0.74743 0.0
H184 H 0.27621 0.01539 0.74174 0.0
H185 H 0.31559 0.03275 0.75921 0.0
C186 C 0.24169 0.19492 0.68824 0.0
N187 N 0.27233 0.20051 0.70189 0.0
N188 N 0.28417 0.15764 0.70811 0.0
C189 C 0.25992 0.12355 0.69895 0.0
C190 C 0.23303 0.14563 0.68574 0.0
C191 C 0.22297 0.23595 0.67736 0.0
H192 H 0.24962 0.26613 0.6771 0.0
H193 H 0.18893 0.24963 0.68329 0.0
H194 H 0.21505 0.22376 0.66383 0.0
O195 O 0.3683 0.26435 0.70819 0.0
O196 O 0.39154 0.19425 0.71957 0.0
H197 H 0.29717 0.05711 0.70152 0.0
H198 H 0.23428 0.0496 0.69542 0.0
C199 C 0.2601 0.07091 0.70344 0.0
H200 H 0.24986 0.06661 0.71732 0.0
H201 H 0.4132 0.10451 0.70802 0.0
O202 O 0.26067 0.3136 0.70793 0.0
C203 C 0.4018 0.23497 0.71252 0.0
Co204 Co 0.01528 0.04904 0.96351 0.0
Co205 Co 0.11543 0.08551 0.97624 0.0
C206 C 0.04994 0.04243 1.0019 0.0
O207 O 0.02053 0.03828 0.98919 0.0
O208 O 0.09236 0.05994 0.99946 0.0
C209 C 0.9501 0.97281 0.96583 0.0
O210 O 0.9879 0.95087 0.97262 0.0
C211 C 0.22199 0.10002 0.98242 0.0
C212 C 0.2343 0.15601 0.96215 0.0
C213 C 0.25826 0.12517 0.97348 0.0
N214 N 0.17885 0.1138 0.97589 0.0
N215 N 0.18667 0.14862 0.9643 0.0
C216 C 0.22848 0.06058 0.9957 0.0
H217 H 0.19358 0.04196 0.99839 0.0
H218 H 0.256 0.03408 0.99117 0.0
H219 H 0.24201 0.07679 1.00804 0.0
C220 C 0.07713 0.99259 0.93827 0.0
N221 N 0.07039 0.02385 0.9517 0.0
N222 N 0.11268 0.03598 0.95826 0.0
C223 C 0.14747 0.01101 0.94972 0.0
C224 C 0.12659 0.98363 0.93635 0.0
C225 C 0.03694 0.97261 0.92733 0.0
H226 H 1.00526 0.99734 0.92764 0.0
H227 H 0.02572 0.93691 0.93274 0.0
H228 H 0.04914 0.9672 0.91364 0.0
O229 O 1.00501 0.11941 0.95917 0.0
O230 O 0.07491 0.14352 0.97018 0.0
H231 H 0.21803 0.04202 0.95278 0.0
H232 H 0.21829 0.97692 0.94978 0.0
C233 C 0.19875 1.00776 0.95586 0.0
H234 H 0.19871 1.0019 0.97015 0.0
H235 H 0.15963 0.16466 0.95674 0.0
O236 O 0.95559 0.01366 0.95832 0.0
C237 C 0.03388 0.15335 0.96352 0.0
Co238 Co 0.2131 0.7583 0.21347 0.0
Co239 Co 0.17664 0.85771 0.22673 0.0
C240 C 0.22403 0.78975 0.25142 0.0
O241 O 0.22592 0.76059 0.23867 0.0
O242 O 0.2069 0.83234 0.2492 0.0
C243 C 0.28923 0.69478 0.21439 0.0
O244 O 0.30927 0.73324 0.22152 0.0
C245 C 0.18047 0.96127 0.23526 0.0
C246 C 0.11265 0.98663 0.22304 0.0
C247 C 0.15545 1.00314 0.23044 0.0
N248 N 0.15461 0.92249 0.23011 0.0
N249 N 0.11332 0.93787 0.2234 0.0
C250 C 0.22825 0.95741 0.24443 0.0
H251 H 0.25662 0.94556 0.23512 0.0
H252 H 0.23878 0.99247 0.25048 0.0
H253 H 0.22585 0.92915 0.25476 0.0
C254 C 0.27047 0.82092 0.18886 0.0
N255 N 0.23809 0.81425 0.20195 0.0
N256 N 0.22126 0.85669 0.20702 0.0
C257 C 0.24136 0.8914 0.19674 0.0
C258 C 0.27429 0.87029 0.18538 0.0
C259 C 0.29795 0.78089 0.18019 0.0
H260 H 0.27439 0.74852 0.17867 0.0
H261 H 0.32918 0.77074 0.18854 0.0
H262 H 0.31197 0.79238 0.16723 0.0
O263 O 0.14208 0.7494 0.20997 0.0
O264 O 0.11704 0.81924 0.22115 0.0
H265 H 0.187 0.9467 0.19898 0.0
H266 H 0.233 0.95917 0.18293 0.0
C267 C 0.22603 0.94331 0.19605 0.0
H268 H 0.24767 0.96404 0.20557 0.0
H269 H 0.08734 0.91523 0.21778 0.0
O270 O 0.2478 0.69892 0.20729 0.0
C271 C 0.1079 0.77783 0.21447 0.0
Co272 Co 0.51125 0.9679 0.96377 0.0
Co273 Co 0.6109 0.93545 0.97827 0.0
C274 C 0.54199 0.97375 1.00289 0.0
O275 O 0.51384 0.97584 0.98976 0.0
O276 O 0.58587 0.96027 1.00102 0.0
C277 C 0.45104 0.0472 0.96614 0.0
O278 O 0.48713 0.06095 0.97615 0.0
C279 C 0.71493 0.92563 0.98809 0.0
C280 C 0.73826 0.87919 0.96611 0.0
C281 C 0.75584 0.90652 0.97989 0.0
N282 N 0.6756 0.91169 0.979 0.0
N283 N 0.68984 0.88271 0.96625 0.0
C284 C 0.71275 0.95489 1.00458 0.0
H285 H 0.68735 0.9371 1.01385 0.0
H286 H 0.69798 0.99151 1.00189 0.0
H287 H 0.74896 0.95794 1.01079 0.0
C288 C 0.57557 0.02336 0.93882 0.0
N289 N 0.56741 0.99385 0.9527 0.0
N290 N 0.60878 0.98439 0.96039 0.0
C291 C 0.64413 0.00966 0.95228 0.0
C292 C 0.62505 0.03404 0.93785 0.0
C293 C 0.53675 0.03974 0.92654 0.0
H294 H 0.50575 0.01407 0.92685 0.0
H295 H 0.52366 0.07601 0.9307 0.0
H296 H 0.55107 0.0428 0.91301 0.0
O297 O 0.50275 0.89724 0.95909 0.0
O298 O 0.57247 0.87656 0.97137 0.0
H299 H 0.71589 0.98411 0.95701 0.0
H300 H 0.71157 0.04929 0.95458 0.0
C301 C 0.69343 0.01642 0.95987 0.0
H302 H 0.69008 0.02042 0.9742 0.0
H303 H 0.66675 0.86839 0.95678 0.0
O304 O 0.45396 1.00734 0.95776 0.0
C305 C 0.5328 0.86477 0.96396 0.0
Co306 Co 0.80335 0.7673 0.71243 0.0
Co307 Co 0.83973 0.86841 0.72411 0.0
C308 C 0.79642 0.80295 0.75032 0.0
O309 O 0.79367 0.77251 0.73792 0.0
O310 O 0.81254 0.84573 0.74741 0.0
C311 C 0.72708 0.70323 0.71532 0.0
O312 O 0.70796 0.74202 0.72252 0.0
C313 C 0.84521 0.97386 0.73084 0.0
C314 C 0.90945 0.99212 0.71485 0.0
C315 C 0.87176 0.01253 0.72418 0.0
N316 N 0.86566 0.93246 0.72526 0.0
N317 N 0.90503 0.9437 0.71625 0.0
C318 C 0.79804 0.97625 0.74046 0.0
H319 H 0.77783 0.94159 0.73908 0.0
H320 H 0.77578 1.00708 0.73569 0.0
H321 H 0.80552 0.98239 0.75454 0.0
C322 C 0.74428 0.82685 0.68749 0.0
N323 N 0.77678 0.822 0.7006 0.0
N324 N 0.79194 0.86529 0.70547 0.0
C325 C 0.7695 0.89893 0.69538 0.0
C326 C 0.73814 0.87593 0.68388 0.0
C327 C 0.71924 0.78522 0.67879 0.0
H328 H 0.68936 0.7724 0.68734 0.0
H329 H 0.70368 0.79609 0.666 0.0
H330 H 0.74497 0.75472 0.67699 0.0
O331 O 0.87377 0.75846 0.70757 0.0
O332 O 0.89808 0.82884 0.71826 0.0
H333 H 0.76707 0.97005 0.68334 0.0
H334 H 0.76347 0.96928 0.70677 0.0
C335 C 0.78079 0.95194 0.69533 0.0
H336 H 0.82044 0.95702 0.69595 0.0
H337 H 0.92665 0.91841 0.70978 0.0
O338 O 0.76778 0.70703 0.70762 0.0
C339 C 0.90778 0.78769 0.71158 0.0
Co340 Co 1.00326 0.05893 0.46184 0.0
Co341 Co 0.9039 0.09125 0.47605 0.0
C342 C 0.97157 0.04779 0.50052 0.0
O343 O 1.00034 0.04504 0.48755 0.0
O344 O 0.92901 0.06495 0.49862 0.0
C345 C 0.06608 0.98251 0.46196 0.0
O346 O 0.02709 0.96216 0.46857 0.0
C347 C 0.80038 0.09653 0.48628 0.0
C348 C 0.7746 0.14392 0.4649 0.0
C349 C 0.75848 0.11417 0.47832 0.0
N350 N 0.83882 0.11327 0.47729 0.0
N351 N 0.82313 0.14295 0.46497 0.0
C352 C 0.8044 0.06654 0.50259 0.0
H353 H 0.82049 0.03067 0.4996 0.0
H354 H 0.76861 0.06179 0.509 0.0
H355 H 0.82949 0.08482 0.51182 0.0
C356 C 0.94045 1.00477 0.43606 0.0
N357 N 0.94813 0.03387 0.45006 0.0
N358 N 0.90652 0.04338 0.45758 0.0
C359 C 0.87147 0.01823 0.44929 0.0
C360 C 0.89099 0.99416 0.43486 0.0
C361 C 0.97974 0.98846 0.42398 0.0
H362 H 0.01093 0.01387 0.42456 0.0
H363 H 0.99232 0.95195 0.4281 0.0
H364 H 0.96608 0.98599 0.41035 0.0
O365 O 0.01088 0.12985 0.45839 0.0
O366 O 0.94085 0.15196 0.46995 0.0
H367 H 0.79929 0.04221 0.45428 0.0
H368 H 0.8048 0.97724 0.45151 0.0
C369 C 0.8224 0.01021 0.45691 0.0
H370 H 0.82616 1.00552 0.4712 0.0
H371 H 0.84547 0.15954 0.4557 0.0
O372 O 0.06269 0.02483 0.45541 0.0
C373 C 0.98148 0.16296 0.46307 0.0
Co374 Co 0.71938 0.26699 0.20991 0.0
Co375 Co 0.68811 0.16439 0.223 0.0
C376 C 0.73196 0.23457 0.24788 0.0
O377 O 0.73309 0.2642 0.23517 0.0
O378 O 0.71652 0.1913 0.24555 0.0
C379 C 0.79067 0.33786 0.21019 0.0
O380 O 0.81565 0.30068 0.21605 0.0
C381 C 0.69458 0.05981 0.2317 0.0
C382 C 0.62998 0.03296 0.21768 0.0
C383 C 0.67148 0.01732 0.22618 0.0
N384 N 0.66907 0.09806 0.22578 0.0
N385 N 0.62968 0.08167 0.21798 0.0
C386 C 0.73859 0.06492 0.24298 0.0
H387 H 0.76956 0.07804 0.23502 0.0
H388 H 0.74786 0.03006 0.24946 0.0
H389 H 0.73176 0.09285 0.25313 0.0
C390 C 0.78003 0.2072 0.18509 0.0
N391 N 0.74734 0.21256 0.19818 0.0
N392 N 0.73228 0.16937 0.20327 0.0
C393 C 0.75357 0.13561 0.19302 0.0
C394 C 0.78556 0.1579 0.18157 0.0
C395 C 0.8069 0.24832 0.17674 0.0
H396 H 0.83753 0.25888 0.18531 0.0
H397 H 0.82191 0.23784 0.16384 0.0
H398 H 0.78266 0.28015 0.17527 0.0
O399 O 0.64737 0.27047 0.20676 0.0
O400 O 0.62649 0.19883 0.21766 0.0
H401 H 0.75357 0.06473 0.18082 0.0
H402 H 0.75966 0.06603 0.20415 0.0
C403 C 0.74121 0.08294 0.19297 0.0
H404 H 0.70162 0.07801 0.19415 0.0
H405 H 0.60434 0.10369 0.2117 0.0
O406 O 0.74887 0.33019 0.20378 0.0
C407 C 0.6149 0.23973 0.21114 0.0
Co408 Co 0.515 0.04875 0.60519 0.0
Co409 Co 0.61388 0.0864 0.59191 0.0
C410 C 0.54215 0.04706 0.56684 0.0
O411 O 0.51342 0.04437 0.57966 0.0
O412 O 0.58605 0.05977 0.56926 0.0
C413 C 0.45242 0.97176 0.60148 0.0
O414 O 0.48748 0.95849 0.59092 0.0
C415 C 0.71717 0.07913 0.58469 0.0
C416 C 0.74152 0.15395 0.59027 0.0
C417 C 0.75862 0.10744 0.58704 0.0
N418 N 0.67823 0.10739 0.58726 0.0
N419 N 0.69293 0.15238 0.58992 0.0
C420 C 0.71345 0.02543 0.58177 0.0
H421 H 0.67681 0.01196 0.58522 0.0
H422 H 0.74122 1.00534 0.58932 0.0
H423 H 0.71912 0.01784 0.56767 0.0
C424 C 0.57843 0.98789 0.62815 0.0
N425 N 0.57186 0.021 0.6153 0.0
N426 N 0.61395 0.03997 0.61096 0.0
C427 C 0.64824 0.02139 0.62174 0.0
C428 C 0.62734 0.98634 0.63245 0.0
C429 C 0.53833 0.95904 0.63627 0.0
H430 H 0.50904 0.98388 0.64055 0.0
H431 H 0.52291 0.9342 0.62631 0.0
H432 H 0.55113 0.9372 0.64755 0.0
O433 O 0.50798 0.11939 0.61112 0.0
O434 O 0.5772 0.14509 0.59941 0.0
H435 H 0.70585 0.04334 0.63892 0.0
H436 H 0.72541 0.02087 0.6183 0.0
C437 C 0.6973 0.0432 0.62472 0.0
H438 H 0.69877 0.08104 0.61987 0.0
H439 H 0.66994 0.18131 0.59278 0.0
O440 O 0.4574 1.00952 0.61095 0.0
C441 C 0.53717 0.15376 0.60713 0.0
Co442 Co 0.71603 0.77081 0.35525 0.0
Co443 Co 0.67894 0.87108 0.34252 0.0
C444 C 0.71691 0.80588 0.31663 0.0
O445 O 0.7206 0.77688 0.32947 0.0
O446 O 0.70238 0.84922 0.31907 0.0
C447 C 0.79264 0.7073 0.34906 0.0
O448 O 0.80491 0.74255 0.33837 0.0
C449 C 0.66931 0.97542 0.33396 0.0
C450 C 0.61708 0.99684 0.35441 0.0
C451 C 0.6478 0.01564 0.34179 0.0
N452 N 0.65331 0.93524 0.34213 0.0
N453 N 0.62084 0.94827 0.35391 0.0
C454 C 0.70386 0.97481 0.31882 0.0
H455 H 0.7307 0.94521 0.32035 0.0
H456 H 0.72222 0.01025 0.31699 0.0
H457 H 0.683 0.96695 0.30675 0.0
C458 C 0.77197 0.83378 0.38035 0.0
N459 N 0.74164 0.82659 0.36669 0.0
N460 N 0.72959 0.8688 0.35998 0.0
C461 C 0.75391 0.90397 0.36859 0.0
C462 C 0.78043 0.88355 0.38228 0.0
C463 C 0.79091 0.79372 0.39164 0.0
H464 H 0.76676 0.76154 0.39089 0.0
H465 H 0.82735 0.78306 0.38689 0.0
H466 H 0.79426 0.80595 0.40542 0.0
O467 O 0.6466 0.76026 0.36092 0.0
O468 O 0.62168 0.83014 0.34969 0.0
H469 H 0.72286 0.97442 0.36569 0.0
H470 H 0.78802 0.97489 0.36821 0.0
C471 C 0.75689 0.95529 0.36236 0.0
H472 H 0.7617 0.9555 0.34803 0.0
H473 H 0.604 0.92422 0.36255 0.0
O474 O 0.75655 0.71254 0.35932 0.0
C475 C 0.61243 0.78919 0.35679 0.0
Co476 Co 0.0087 0.96448 0.10862 0.0
Co477 Co 0.90857 0.93303 0.09498 0.0
C478 C 0.97792 0.97979 0.07061 0.0
O479 O 1.00721 0.98094 0.08339 0.0
O480 O 0.93541 0.96221 0.0726 0.0
C481 C 0.07257 0.03949 0.11094 0.0
O482 O 0.03397 0.06243 0.10529 0.0
C483 C 0.80532 0.93492 0.08482 0.0
C484 C 0.77849 0.87396 0.10096 0.0
C485 C 0.76297 0.91236 0.09066 0.0
N486 N 0.8433 0.91224 0.09218 0.0
N487 N 0.82704 0.87486 0.10128 0.0
C488 C 0.81054 0.97539 0.07185 0.0
H489 H 0.82405 1.00854 0.07847 0.0
H490 H 0.77577 0.98298 0.0651 0.0
H491 H 0.83818 0.96525 0.06197 0.0
C492 C 0.94854 0.02408 0.13351 0.0
N493 N 0.95426 0.99129 0.12047 0.0
N494 N 0.91144 0.97839 0.11451 0.0
C495 C 0.87731 1.00258 0.12374 0.0
C496 C 0.89942 0.03335 0.1357 0.0
C497 C 0.98924 0.04748 0.1433 0.0
H498 H 0.02159 0.02372 0.14328 0.0
H499 H 0.99844 0.08259 0.13699 0.0
H500 H 0.97862 0.05526 0.157 0.0
O501 O 0.01453 0.89287 0.11148 0.0
O502 O 0.94377 0.87124 0.1004 0.0
H503 H 0.81539 0.95647 0.12149 0.0
H504 H 0.80338 0.01295 0.13242 0.0
C505 C 0.82415 0.99564 0.12169 0.0
H506 H 0.81366 0.01241 0.10918 0.0
H507 H 0.84891 0.85204 0.10878 0.0
O508 O 0.06921 0.99524 0.11541 0.0
C509 C 0.98464 0.85998 0.10694 0.0
Co510 Co 0.80047 0.25715 0.85808 0.0
Co511 Co 0.8333 0.15762 0.84415 0.0
C512 C 0.78767 0.22471 0.81976 0.0
O513 O 0.78632 0.25429 0.8325 0.0
O514 O 0.80454 0.18201 0.82188 0.0
C515 C 0.72532 0.32216 0.85721 0.0
O516 O 0.70277 0.2839 0.85098 0.0
C517 C 0.84071 0.05364 0.83446 0.0
C518 C 0.89832 0.03173 0.85286 0.0
C519 C 0.86485 0.01334 0.84115 0.0
N520 N 0.85804 0.09347 0.84243 0.0
N521 N 0.8936 0.08019 0.85293 0.0
C522 C 0.80267 0.05461 0.82047 0.0
H523 H 0.77763 0.08558 0.82243 0.0
H524 H 0.78237 0.01994 0.81974 0.0
H525 H 0.82085 0.06016 0.80767 0.0
C526 C 0.74649 0.1942 0.88395 0.0
N527 N 0.7758 0.20156 0.86999 0.0
N528 N 0.78669 0.15946 0.86298 0.0
C529 C 0.76272 0.12423 0.87171 0.0
C530 C 0.73747 0.14448 0.88572 0.0
C531 C 0.7286 0.23404 0.89552 0.0
H532 H 0.75357 0.2656 0.89496 0.0
H533 H 0.69244 0.24592 0.89087 0.0
H534 H 0.725 0.2211 0.90922 0.0
O535 O 0.87121 0.2657 0.86147 0.0
O536 O 0.89312 0.19567 0.84984 0.0
H537 H 0.793 0.0538 0.86793 0.0
H538 H 0.72812 0.05347 0.87147 0.0
C539 C 0.75866 0.07324 0.86527 0.0
H540 H 0.75216 0.07379 0.85102 0.0
H541 H 0.91229 0.10388 0.86116 0.0
O542 O 0.76667 0.31693 0.86426 0.0
C543 C 0.90414 0.23629 0.85668 0.0
Co544 Co 1.00453 0.55374 0.61116 0.0
Co545 Co 0.90634 0.58697 0.59616 0.0
C546 C 0.97729 0.54012 0.57285 0.0
O547 O 1.00511 0.53928 0.586 0.0
O548 O 0.93422 0.55634 0.57436 0.0
C549 C 0.06812 0.47853 0.61145 0.0
O550 O 0.03012 0.45671 0.60472 0.0
C551 C 0.80526 0.58454 0.58448 0.0
C552 C 0.77558 0.64525 0.59994 0.0
C553 C 0.76185 0.60602 0.5897 0.0
N554 N 0.84192 0.60831 0.59222 0.0
N555 N 0.8241 0.64568 0.60086 0.0
C556 C 0.81295 0.54392 0.57179 0.0
H557 H 0.82602 0.51123 0.57885 0.0
H558 H 0.77937 0.5356 0.5644 0.0
H559 H 0.84176 0.55435 0.56238 0.0
C560 C 0.94126 0.49735 0.6356 0.0
N561 N 0.94852 0.52874 0.62223 0.0
N562 N 0.90646 0.54299 0.61601 0.0
C563 C 0.87114 0.52147 0.62554 0.0
C564 C 0.89176 0.49098 0.63794 0.0
C565 C 0.98103 0.47257 0.64542 0.0
H566 H 0.01229 0.49752 0.64697 0.0
H567 H 0.99317 0.44044 0.63788 0.0
H568 H 0.96855 0.45998 0.65845 0.0
O569 O 0.01199 0.62506 0.61393 0.0
O570 O 0.94299 0.64756 0.60154 0.0
H571 H 0.81216 0.57115 0.62352 0.0
H572 H 0.79663 0.51497 0.6342 0.0
C573 C 0.81845 0.5315 0.62356 0.0
H574 H 0.80688 0.51617 0.61097 0.0
H575 H 0.84475 0.66913 0.60856 0.0
O576 O 0.063 0.52008 0.61842 0.0
C577 C 0.98341 0.65818 0.60858 0.0
Co578 Co 0.71646 0.75977 0.85767 0.0
Co579 Co 0.68638 0.66072 0.8426 0.0
C580 C 0.72889 0.73126 0.8187 0.0
O581 O 0.72958 0.75907 0.83196 0.0
O582 O 0.71356 0.68762 0.82018 0.0
C583 C 0.79294 0.82204 0.85802 0.0
O584 O 0.81323 0.78293 0.85149 0.0
C585 C 0.67882 0.55621 0.83257 0.0
C586 C 0.62944 0.53281 0.85373 0.0
C587 C 0.65897 0.51515 0.84057 0.0
N588 N 0.66335 0.59566 0.84129 0.0
N589 N 0.63255 0.58136 0.85348 0.0
C590 C 0.70952 0.55848 0.81641 0.0
H591 H 0.74576 0.57349 0.81948 0.0
H592 H 0.71317 0.52218 0.81026 0.0
H593 H 0.69258 0.58384 0.80693 0.0
C594 C 0.77337 0.69699 0.88242 0.0
N595 N 0.7431 0.70424 0.86875 0.0
N596 N 0.73396 0.66257 0.86116 0.0
C597 C 0.76005 0.62772 0.86925 0.0
C598 C 0.78569 0.64772 0.88323 0.0
C599 C 0.78713 0.73624 0.89497 0.0
H600 H 0.75786 0.76375 0.89572 0.0
H601 H 0.8203 0.75472 0.89017 0.0
H602 H 0.79421 0.72108 0.90819 0.0
O603 O 0.64584 0.76651 0.86153 0.0
O604 O 0.62562 0.69729 0.84885 0.0
H605 H 0.73243 0.5557 0.86661 0.0
H606 H 0.79784 0.5591 0.86731 0.0
C607 C 0.7645 0.57717 0.86253 0.0
H608 H 0.76617 0.5786 0.84812 0.0
H609 H 0.61642 0.6046 0.86253 0.0
O610 O 0.75054 0.81882 0.86442 0.0
C611 C 0.61358 0.73689 0.85627 0.0
Co612 Co 0.50918 0.4619 0.10746 0.0
Co613 Co 0.60961 0.42938 0.09365 0.0
C614 C 0.5412 0.47078 0.06884 0.0
O615 O 0.51205 0.47391 0.08167 0.0
O616 O 0.5839 0.4541 0.07092 0.0
C617 C 0.44682 0.53905 0.10685 0.0
O618 O 0.48352 0.5565 0.09789 0.0
C619 C 0.71348 0.42269 0.08359 0.0
C620 C 0.73817 0.37429 0.10484 0.0
C621 C 0.75494 0.40368 0.09144 0.0
N622 N 0.67464 0.40685 0.09257 0.0
N623 N 0.68969 0.37668 0.10485 0.0
C624 C 0.71029 0.45383 0.06754 0.0
H625 H 0.68513 0.43655 0.05809 0.0
H626 H 0.69465 0.48971 0.07083 0.0
H627 H 0.74629 0.45849 0.06128 0.0
C628 C 0.57129 0.51692 0.13288 0.0
N629 N 0.56432 0.48773 0.11888 0.0
N630 N 0.60638 0.47764 0.11176 0.0
C631 C 0.64118 0.50187 0.12051 0.0
C632 C 0.62068 0.52653 0.13456 0.0
C633 C 0.53154 0.53373 0.14468 0.0
H634 H 0.50106 0.50744 0.14452 0.0
H635 H 0.51799 0.56928 0.13992 0.0
H636 H 0.54499 0.53839 0.15826 0.0
O637 O 0.50229 0.39099 0.11182 0.0
O638 O 0.57315 0.36987 0.10062 0.0
H639 H 0.71253 0.47351 0.11716 0.0
H640 H 0.71051 0.53862 0.11998 0.0
C641 C 0.6919 0.50689 0.11408 0.0
H642 H 0.69086 0.51197 0.09976 0.0
H643 H 0.66708 0.36077 0.11417 0.0
O644 O 0.45065 0.49769 0.11415 0.0
C645 C 0.53307 0.35843 0.10775 0.0
Co646 Co 0.8045 0.26881 0.35571 0.0
Co647 Co 0.83768 0.36955 0.34232 0.0
C648 C 0.79484 0.30208 0.31728 0.0
O649 O 0.79226 0.27208 0.32992 0.0
O650 O 0.81107 0.34493 0.31979 0.0
C651 C 0.72621 0.20668 0.35554 0.0
O652 O 0.70609 0.24585 0.34896 0.0
C653 C 0.84685 0.47564 0.33392 0.0
C654 C 0.9054 0.49307 0.35255 0.0
C655 C 0.87205 0.51424 0.34143 0.0
N656 N 0.86312 0.43404 0.3411 0.0
N657 N 0.89919 0.4449 0.35174 0.0
C658 C 0.80526 0.47861 0.32142 0.0
H659 H 0.78759 0.44265 0.31988 0.0
H660 H 0.77855 0.50593 0.32595 0.0
H661 H 0.81892 0.49072 0.30847 0.0
C662 C 0.75052 0.33101 0.38172 0.0
N663 N 0.77955 0.32437 0.36765 0.0
N664 N 0.78998 0.36683 0.36075 0.0
C665 C 0.76577 0.40155 0.36961 0.0
C666 C 0.74104 0.38056 0.38366 0.0
C667 C 0.73367 0.29067 0.39333 0.0
H668 H 0.7589 0.25943 0.39253 0.0
H669 H 0.69735 0.27847 0.38894 0.0
H670 H 0.73076 0.30322 0.40708 0.0
O671 O 0.87516 0.25996 0.3597 0.0
O672 O 0.89695 0.33069 0.34846 0.0
H673 H 0.79441 0.47286 0.36532 0.0
H674 H 0.72996 0.47166 0.36966 0.0
C675 C 0.7603 0.45251 0.36315 0.0
H676 H 0.75234 0.45149 0.349 0.0
H677 H 0.91665 0.41981 0.35974 0.0
O678 O 0.7689 0.20946 0.36171 0.0
C679 C 0.90812 0.29 0.35529 0.0
Co680 Co 1.00418 0.46244 0.96212 0.0
Co681 Co 0.90296 0.43217 0.97504 0.0
C682 C 0.96901 0.47379 1.00047 0.0
O683 O 0.99894 0.47456 0.98782 0.0
O684 O 0.92561 0.45905 0.99804 0.0
C685 C 0.06889 0.53815 0.96403 0.0
O686 O 0.03023 0.56009 0.97015 0.0
C687 C 0.79601 0.42256 0.98063 0.0
C688 C 0.78258 0.36703 0.96036 0.0
C689 C 0.75917 0.39936 0.97127 0.0
N690 N 0.83881 0.40648 0.97454 0.0
N691 N 0.83023 0.37211 0.96292 0.0
C692 C 0.79115 0.46216 0.99393 0.0
H693 H 0.82689 0.4789 0.99674 0.0
H694 H 0.76531 0.49027 0.98936 0.0
H695 H 0.7767 0.44648 1.00625 0.0
C696 C 0.94544 0.5203 0.93624 0.0
N697 N 0.95043 0.48958 0.94995 0.0
N698 N 0.9076 0.48027 0.95664 0.0
C699 C 0.87421 0.50665 0.94789 0.0
C700 C 0.89648 0.53252 0.9344 0.0
C701 C 0.98667 0.53505 0.92471 0.0
H702 H 0.01438 0.5059 0.92438 0.0
H703 H 1.00397 0.5681 0.93017 0.0
H704 H 0.97391 0.54293 0.91123 0.0
O705 O 0.01221 0.39151 0.95815 0.0
O706 O 0.94164 0.37207 0.96977 0.0
H707 H 0.80218 0.47867 0.94999 0.0
H708 H 0.80496 0.54392 0.94775 0.0
C709 C 0.82274 0.51174 0.95362 0.0
H710 H 0.82215 0.51659 0.96792 0.0
H711 H 0.8569 0.35553 0.95538 0.0
O712 O 0.06452 0.49661 0.95697 0.0
C713 C 0.98182 0.35942 0.96302 0.0
Co714 Co 0.80096 0.75121 0.21067 0.0
Co715 Co 0.82683 0.65209 0.22771 0.0
C716 C 0.78489 0.72834 0.24962 0.0
O717 O 0.78535 0.75478 0.23601 0.0
O718 O 0.7995 0.6845 0.2489 0.0
C719 C 0.73027 0.82054 0.20931 0.0
O720 O 0.70558 0.7846 0.21631 0.0
C721 C 0.8291 0.55994 0.24531 0.0
C722 C 0.84869 0.56305 0.23488 0.0
C723 C 0.8482 0.51583 0.24462 0.0
N724 N 0.84421 0.58519 0.23188 0.0
N725 N 0.86921 0.5645 0.21878 0.0
C726 C 0.79618 0.5783 0.26115 0.0
H727 H 0.76355 0.59687 0.25597 0.0
H728 H 0.78521 0.54743 0.26964 0.0
H729 H 0.81695 0.60486 0.26907 0.0
C730 C 0.74453 0.68619 0.18652 0.0
N731 N 0.77371 0.69484 0.20037 0.0
N732 N 0.78121 0.65395 0.20878 0.0
C733 C 0.75489 0.61861 0.20119 0.0
C734 C 0.73186 0.63707 0.18639 0.0
C735 C 0.73021 0.72416 0.17353 0.0
H736 H 0.75711 0.75413 0.1734 0.0
H737 H 0.69451 0.73931 0.17732 0.0
H738 H 0.72695 0.70824 0.16025 0.0
O739 O 0.87204 0.75411 0.20797 0.0
O740 O 0.8899 0.68482 0.22125 0.0
H741 H 0.77657 0.54594 0.20704 0.0
H742 H 0.7119 0.55362 0.2047 0.0
C743 C 0.74572 0.57058 0.20963 0.0
H744 H 0.74254 0.57594 0.22394 0.0
H745 H 0.87593 0.59057 0.20922 0.0
O746 O 0.77134 0.81162 0.20252 0.0
C747 C 0.90319 0.72377 0.21354 0.0
Co748 Co 0.51568 0.54813 0.4636 0.0
Co749 Co 0.6131 0.58256 0.47917 0.0
C750 C 0.54341 0.53732 0.50267 0.0
O751 O 0.51617 0.53534 0.4893 0.0
O752 O 0.58639 0.55413 0.50135 0.0
C753 C 0.45312 0.47028 0.46332 0.0
O754 O 0.49109 0.44974 0.47055 0.0
C755 C 0.71799 0.59435 0.48842 0.0
C756 C 0.73384 0.65775 0.47167 0.0
C757 C 0.75579 0.62248 0.48182 0.0
N758 N 0.67616 0.61073 0.48157 0.0
N759 N 0.68597 0.64984 0.47217 0.0
C760 C 0.72204 0.55091 0.5001 0.0
H761 H 0.68666 0.53202 0.50129 0.0
H762 H 0.75019 0.52572 0.49512 0.0
H763 H 0.73364 0.56297 0.51329 0.0
C764 C 0.58136 0.49637 0.43852 0.0
N765 N 0.5728 0.52477 0.4526 0.0
N766 N 0.61406 0.53541 0.46025 0.0
C767 C 0.64999 0.51177 0.45179 0.0
C768 C 0.631 0.48728 0.43732 0.0
C769 C 0.54267 0.47981 0.42622 0.0
H770 H 0.51138 0.50502 0.42664 0.0
H771 H 0.53001 0.44323 0.43029 0.0
H772 H 0.55687 0.47744 0.41266 0.0
O773 O 0.50594 0.61828 0.45962 0.0
O774 O 0.57335 0.64138 0.47275 0.0
H775 H 0.71999 0.5408 0.45776 0.0
H776 H 0.72034 0.47669 0.45247 0.0
C777 C 0.6999 0.50611 0.45905 0.0
H778 H 0.69687 0.49623 0.473 0.0
H779 H 0.66042 0.66894 0.46487 0.0
O780 O 0.45763 0.51231 0.45661 0.0
C781 C 0.53377 0.65182 0.46506 0.0
Co782 Co 0.71082 0.26471 0.71362 0.0
Co783 Co 0.67526 0.36506 0.72691 0.0
C784 C 0.71586 0.29393 0.75196 0.0
O785 O 0.71829 0.26507 0.73913 0.0
O786 O 0.70189 0.3376 0.74961 0.0
C787 C 0.78791 0.2026 0.71582 0.0
O788 O 0.80259 0.23894 0.72559 0.0
C789 C 0.68042 0.46833 0.73606 0.0
C790 C 0.61203 0.49501 0.72462 0.0
C791 C 0.65515 0.51063 0.73198 0.0
N792 N 0.6542 0.4301 0.73062 0.0
N793 N 0.61268 0.44626 0.72435 0.0
C794 C 0.72863 0.46364 0.74487 0.0
H795 H 0.72657 0.43485 0.75501 0.0
H796 H 0.75639 0.45205 0.73527 0.0
H797 H 0.73982 0.4983 0.75106 0.0
C798 C 0.77133 0.32704 0.69018 0.0
N799 N 0.73826 0.32106 0.70306 0.0
N800 N 0.7219 0.36381 0.70798 0.0
C801 C 0.74293 0.39812 0.69777 0.0
C802 C 0.77581 0.37627 0.68655 0.0
C803 C 0.7987 0.28634 0.68183 0.0
H804 H 0.82482 0.27136 0.69143 0.0
H805 H 0.81924 0.29861 0.67017 0.0
H806 H 0.77327 0.25687 0.67814 0.0
O807 O 0.64002 0.25783 0.70856 0.0
O808 O 0.61607 0.3282 0.7198 0.0
H809 H 0.7336 0.4648 0.6834 0.0
H810 H 0.75127 0.47153 0.7057 0.0
C811 C 0.7281 0.45019 0.6968 0.0
H812 H 0.68952 0.45445 0.7003 0.0
H813 H 0.58626 0.42426 0.71871 0.0
O814 O 0.74831 0.2063 0.70739 0.0
C815 C 0.60642 0.28769 0.71253 0.0
Co816 Co 0.01401 0.47211 0.46628 0.0
Co817 Co 0.11512 0.43667 0.47872 0.0
C818 C 0.0498 0.47357 0.50484 0.0
O819 O 0.02028 0.477 0.49217 0.0
O820 O 0.09313 0.45952 0.50215 0.0
C821 C 0.94982 0.54815 0.47242 0.0
O822 O 0.98519 0.56107 0.48289 0.0
C823 C 0.22038 0.42573 0.48654 0.0
C824 C 0.23929 0.37346 0.46576 0.0
C825 C 0.2594 0.40279 0.47849 0.0
N826 N 0.17942 0.41129 0.47855 0.0
N827 N 0.19109 0.37908 0.46648 0.0
C828 C 0.22196 0.46106 0.50142 0.0
H829 H 0.1882 0.48277 0.50196 0.0
H830 H 0.25393 0.48529 0.50054 0.0
H831 H 0.22509 0.44036 0.51383 0.0
C832 C 0.07655 0.52866 0.44081 0.0
N833 N 0.06944 0.4986 0.45463 0.0
N834 N 0.11164 0.48741 0.46143 0.0
C835 C 0.14654 0.51205 0.45283 0.0
C836 C 0.12617 0.53777 0.43893 0.0
C837 C 0.03664 0.54669 0.42931 0.0
H838 H 1.00453 0.52257 0.43035 0.0
H839 H 0.02604 0.58364 0.43361 0.0
H840 H 0.04896 0.54888 0.41551 0.0
O841 O 1.00409 0.40207 0.46076 0.0
O842 O 0.07482 0.3791 0.47165 0.0
H843 H 0.21723 0.48218 0.45575 0.0
H844 H 0.21657 0.54756 0.45346 0.0
C845 C 0.19751 0.51582 0.4592 0.0
H846 H 0.19741 0.51996 0.47358 0.0
H847 H 0.16647 0.36396 0.45771 0.0
O848 O 0.9552 0.51188 0.46225 0.0
C849 C 0.03414 0.36866 0.4647 0.0
Co850 Co 0.30511 0.25587 0.21064 0.0
Co851 Co 0.33221 0.35632 0.22551 0.0
C852 C 0.29145 0.2846 0.24946 0.0
O853 O 0.29186 0.25638 0.23632 0.0
O854 O 0.30544 0.32861 0.24783 0.0
C855 C 0.22925 0.19279 0.21055 0.0
O856 O 0.20888 0.2324 0.21664 0.0
C857 C 0.33643 0.46077 0.23565 0.0
C858 C 0.39225 0.48493 0.21684 0.0
C859 C 0.35953 0.50187 0.22906 0.0
N860 N 0.35412 0.42166 0.22732 0.0
N861 N 0.38833 0.43643 0.21645 0.0
C862 C 0.29795 0.45862 0.24946 0.0
H863 H 0.27674 0.42452 0.24838 0.0
H864 H 0.27364 0.49055 0.24882 0.0
H865 H 0.31572 0.45903 0.26248 0.0
C866 C 0.24684 0.31727 0.18571 0.0
N867 N 0.27694 0.31102 0.1995 0.0
N868 N 0.2854 0.35328 0.20682 0.0
C869 C 0.25944 0.38753 0.19834 0.0
C870 C 0.23431 0.36638 0.18447 0.0
C871 C 0.2333 0.27725 0.17344 0.0
H872 H 0.26279 0.24995 0.17284 0.0
H873 H 0.20031 0.25877 0.1784 0.0
H874 H 0.22589 0.29166 0.16014 0.0
O875 O 0.37639 0.25106 0.20679 0.0
O876 O 0.39358 0.32137 0.21925 0.0
H877 H 0.28938 0.4587 0.2007 0.0
H878 H 0.22419 0.45789 0.1984 0.0
C879 C 0.2557 0.43903 0.20426 0.0
H880 H 0.25117 0.43965 0.2186 0.0
H881 H 0.40619 0.41381 0.20765 0.0
O882 O 0.2718 0.19566 0.20422 0.0
C883 C 0.40736 0.28234 0.21187 0.0
Co884 Co 0.50504 0.55363 0.96252 0.0
Co885 Co 0.40545 0.58645 0.9767 0.0
C886 C 0.47176 0.538 1.00081 0.0
O887 O 0.5013 0.53586 0.98802 0.0
O888 O 0.4302 0.55761 0.999 0.0
C889 C 0.56728 0.47702 0.96007 0.0
O890 O 0.52959 0.45647 0.96749 0.0
C891 C 0.30183 0.59231 0.98701 0.0
C892 C 0.27657 0.64148 0.96607 0.0
C893 C 0.26012 0.61117 0.97927 0.0
N894 N 0.34045 0.60896 0.9781 0.0
N895 N 0.32509 0.63968 0.96605 0.0
C896 C 0.30547 0.56107 1.00302 0.0
H897 H 0.32107 0.52522 0.99967 0.0
H898 H 0.26965 0.55634 1.0094 0.0
H899 H 0.33084 0.57833 1.01241 0.0
C900 C 0.44217 0.50033 0.93658 0.0
N901 N 0.44974 0.52985 0.95047 0.0
N902 N 0.40797 0.54 0.9578 0.0
C903 C 0.37286 0.51529 0.94937 0.0
C904 C 0.39269 0.49035 0.93523 0.0
C905 C 0.48152 0.48261 0.92478 0.0
H906 H 0.51252 0.50828 0.92488 0.0
H907 H 0.49436 0.44679 0.92954 0.0
H908 H 0.46785 0.47813 0.91122 0.0
O909 O 0.51294 0.62508 0.95987 0.0
O910 O 0.44246 0.6472 0.97102 0.0
H911 H 0.30116 0.54171 0.95363 0.0
H912 H 0.30465 0.4766 0.95094 0.0
C913 C 0.32299 0.50895 0.9565 0.0
H914 H 0.32561 0.5041 0.9708 0.0
H915 H 0.3476 0.65655 0.95691 0.0
O916 O 0.56431 0.5207 0.9549 0.0
C917 C 0.48338 0.6582 0.96441 0.0
Co918 Co 0.21564 0.74969 0.71462 0.0
Co919 Co 0.17599 0.64986 0.7267 0.0
C920 C 0.21547 0.71721 0.75278 0.0
O921 O 0.21969 0.74589 0.73996 0.0
O922 O 0.2009 0.67374 0.7503 0.0
C923 C 0.29165 0.81489 0.72015 0.0
O924 O 0.30557 0.78039 0.73089 0.0
C925 C 0.17018 0.54469 0.73386 0.0
C926 C 0.10245 0.52705 0.71984 0.0
C927 C 0.14177 0.50628 0.72811 0.0
N928 N 0.14918 0.58627 0.72871 0.0
N929 N 0.10782 0.57539 0.72095 0.0
C930 C 0.21899 0.54187 0.7423 0.0
H931 H 0.23968 0.57588 0.74 0.0
H932 H 0.23957 0.51004 0.73743 0.0
H933 H 0.21402 0.53721 0.75661 0.0
C934 C 0.27735 0.68777 0.69161 0.0
N935 N 0.24284 0.69358 0.70397 0.0
N936 N 0.22577 0.65082 0.70865 0.0
C937 C 0.24831 0.61653 0.69889 0.0
C938 C 0.28256 0.6385 0.68812 0.0
C939 C 0.30525 0.72883 0.68366 0.0
H940 H 0.27986 0.75775 0.67943 0.0
H941 H 0.3295 0.74462 0.69373 0.0
H942 H 0.32752 0.71674 0.67241 0.0
O943 O 0.14613 0.76017 0.70846 0.0
O944 O 0.11929 0.69023 0.71915 0.0
H945 H 0.24372 0.5483 0.68512 0.0
H946 H 0.25171 0.54357 0.70829 0.0
C947 C 0.23336 0.56449 0.69787 0.0
H948 H 0.19366 0.56164 0.69937 0.0
H949 H 0.08511 0.60078 0.71511 0.0
O950 O 0.25507 0.80795 0.71028 0.0
C951 C 0.11134 0.73123 0.71197 0.0
Co952 Co 0.0114 0.55083 0.10764 0.0
Co953 Co 0.11129 0.58042 0.09329 0.0
C954 C 0.0432 0.54043 0.06859 0.0
O955 O 0.01521 0.53971 0.08183 0.0
O956 O 0.08714 0.5546 0.07024 0.0
C957 C 0.94688 0.47487 0.10641 0.0
O958 O 0.9851 0.453 0.0999 0.0
C959 C 0.21869 0.59407 0.08792 0.0
C960 C 0.23 0.64445 0.11003 0.0
C961 C 0.25435 0.61655 0.09792 0.0
N962 N 0.17519 0.60689 0.09439 0.0
N963 N 0.18255 0.6383 0.10718 0.0
C964 C 0.22627 0.5569 0.07394 0.0
H965 H 0.1913 0.54042 0.06992 0.0
H966 H 0.25165 0.52843 0.07857 0.0
H967 H 0.24329 0.57465 0.06243 0.0
C968 C 0.07244 0.49224 0.13251 0.0
N969 N 0.06595 0.52319 0.11895 0.0
N970 N 0.10772 0.53132 0.11131 0.0
C971 C 0.14174 0.50368 0.11916 0.0
C972 C 0.12124 0.47852 0.13317 0.0
C973 C 0.03288 0.47858 0.14494 0.0
H974 H 1.00571 0.50818 0.14569 0.0
H975 H 0.01425 0.44561 0.14002 0.0
H976 H 0.04765 0.47098 0.15816 0.0
O977 O 1.00352 0.62136 0.112 0.0
O978 O 0.07251 0.64017 0.0991 0.0
H979 H 0.21432 0.52819 0.11573 0.0
H980 H 0.20862 0.46305 0.11706 0.0
C981 C 0.19161 0.49676 0.11204 0.0
H982 H 0.18956 0.49428 0.09764 0.0
H983 H 0.15526 0.65176 0.11524 0.0
O984 O 0.95173 0.51645 0.11339 0.0
C985 C 0.03335 0.65315 0.10652 0.0
Co986 Co 0.21282 0.26242 0.85884 0.0
Co987 Co 0.18334 0.36194 0.84372 0.0
C988 C 0.22541 0.29329 0.8198 0.0
O989 O 0.22569 0.2654 0.83309 0.0
O990 O 0.2106 0.33708 0.8212 0.0
C991 C 0.28813 0.19694 0.8582 0.0
O992 O 0.3107 0.23501 0.85177 0.0
C993 C 0.17012 0.46872 0.83669 0.0
C994 C 0.11885 0.48262 0.8583 0.0
C995 C 0.14695 0.50563 0.84586 0.0
N996 N 0.15712 0.42595 0.84384 0.0
N997 N 0.12519 0.43477 0.85632 0.0
C998 C 0.20858 0.47473 0.82306 0.0
H999 H 0.22529 0.43926 0.81978 0.0
H1000 H 0.23662 0.50066 0.82767 0.0
H1001 H 0.19213 0.49047 0.8111 0.0
C1002 C 0.26894 0.32629 0.8839 0.0
N1003 N 0.23926 0.3181 0.87012 0.0
N1004 N 0.23087 0.35943 0.86211 0.0
C1005 C 0.25704 0.39466 0.86989 0.0
C1006 C 0.28077 0.37567 0.88445 0.0
C1007 C 0.28506 0.28761 0.89632 0.0
H1008 H 0.25953 0.25646 0.89604 0.0
H1009 H 0.32138 0.27455 0.89229 0.0
H1010 H 0.28783 0.30228 0.9098 0.0
O1011 O 0.14199 0.25469 0.86265 0.0
O1012 O 0.12363 0.32351 0.84945 0.0
H1013 H 0.23397 0.46696 0.86425 0.0
H1014 H 0.2985 0.46113 0.86727 0.0
C1015 C 0.26567 0.44341 0.86185 0.0
H1016 H 0.27067 0.43899 0.84758 0.0
H1017 H 0.11154 0.40839 0.86478 0.0
O1018 O 0.24645 0.20232 0.865 0.0
C1019 C 0.11047 0.28444 0.85697 0.0
Co1020 Co 0.50443 0.46302 0.60905 0.0
Co1021 Co 0.40416 0.428 0.59684 0.0
C1022 C 0.47102 0.47185 0.57113 0.0
O1023 O 0.50109 0.47444 0.58361 0.0
O1024 O 0.42841 0.45559 0.57389 0.0
C1025 C 0.56968 0.53743 0.60664 0.0
O1026 O 0.53164 0.55892 0.59983 0.0
C1027 C 0.30139 0.42906 0.58725 0.0
C1028 C 0.27417 0.37033 0.60433 0.0
C1029 C 0.25891 0.40821 0.5937 0.0
N1030 N 0.33921 0.40631 0.59464 0.0
N1031 N 0.32276 0.37006 0.60428 0.0
C1032 C 0.30696 0.46833 0.57384 0.0
H1033 H 0.32153 0.50161 0.5801 0.0
H1034 H 0.27213 0.47613 0.56716 0.0
H1035 H 0.33386 0.45675 0.56391 0.0
C1036 C 0.44536 0.52152 0.63425 0.0
N1037 N 0.45038 0.48957 0.62095 0.0
N1038 N 0.40738 0.47451 0.61592 0.0
C1039 C 0.37374 0.49617 0.62614 0.0
C1040 C 0.39634 0.52726 0.63786 0.0
C1041 C 0.48674 0.54681 0.64298 0.0
H1042 H 0.50022 0.57605 0.63425 0.0
H1043 H 0.47559 0.56332 0.65558 0.0
H1044 H 0.51682 0.52082 0.64517 0.0
O1045 O 0.51189 0.392 0.61325 0.0
O1046 O 0.4413 0.36791 0.60263 0.0
H1047 H 0.30058 0.50415 0.63608 0.0
H1048 H 0.30742 0.49843 0.61277 0.0
C1049 C 0.32087 0.48565 0.62549 0.0
H1050 H 0.31478 0.44604 0.62657 0.0
H1051 H 0.34458 0.34761 0.61194 0.0
O1052 O 0.56435 0.49708 0.61452 0.0
C1053 C 0.48252 0.35808 0.6092 0.0
Co1054 Co 0.30397 0.7581 0.35862 0.0
Co1055 Co 0.33642 0.65748 0.34532 0.0
C1056 C 0.29494 0.72415 0.32002 0.0
O1057 O 0.29291 0.75428 0.33262 0.0
O1058 O 0.31043 0.68115 0.32262 0.0
C1059 C 0.22539 0.81761 0.35718 0.0
O1060 O 0.21013 0.77941 0.34852 0.0
C1061 C 0.34405 0.5539 0.33514 0.0
C1062 C 0.39036 0.52804 0.35679 0.0
C1063 C 0.36239 0.51202 0.34292 0.0
N1064 N 0.359 0.59236 0.34451 0.0
N1065 N 0.3879 0.57668 0.35706 0.0
C1066 C 0.31433 0.55779 0.31881 0.0
H1067 H 0.27887 0.57476 0.3217 0.0
H1068 H 0.30896 0.52179 0.31259 0.0
H1069 H 0.33322 0.58214 0.30945 0.0
C1070 C 0.24873 0.69561 0.38442 0.0
N1071 N 0.27846 0.70273 0.37054 0.0
N1072 N 0.28818 0.66065 0.36337 0.0
C1073 C 0.26274 0.62583 0.37173 0.0
C1074 C 0.23801 0.64605 0.38588 0.0
C1075 C 0.23202 0.73548 0.39621 0.0
H1076 H 0.2577 0.76648 0.39571 0.0
H1077 H 0.19603 0.74835 0.39173 0.0
H1078 H 0.22848 0.72219 0.40987 0.0
O1079 O 0.37477 0.76672 0.3627 0.0
O1080 O 0.39589 0.69554 0.35163 0.0
H1081 H 0.28782 0.5535 0.36737 0.0
H1082 H 0.22278 0.55834 0.3698 0.0
C1083 C 0.25569 0.57611 0.36443 0.0
H1084 H 0.25167 0.57899 0.35008 0.0
H1085 H 0.40311 0.59898 0.36662 0.0
O1086 O 0.26643 0.81628 0.36473 0.0
C1087 C 0.40738 0.73622 0.3584 0.0
C1088 C 0.53788 0.01576 0.05036 0.0
C1089 C 0.48796 0.02254 0.05362 0.0
C1090 C 0.55495 0.99942 1.0341 0.0
C1091 C 0.52293 0.989 1.02033 0.0
H1092 H 0.56435 0.02347 0.06044 0.0
H1093 H 0.59367 0.99553 1.03229 0.0
S1094 S 0.38838 0.99642 1.02248 0.0
N1095 N 0.40658 0.01497 0.04191 0.0
N1096 N 0.43822 0.98391 1.01143 0.0
C1097 C 0.47275 0.99468 1.02349 0.0
C1098 C 0.45542 0.01155 0.04007 0.0
C1099 C 0.25952 0.27754 0.29799 0.0
C1100 C 0.24044 0.23019 0.30017 0.0
C1101 C 0.2757 0.29465 0.28169 0.0
C1102 C 0.27385 0.26534 0.26669 0.0
H1103 H 0.2621 0.30212 0.309 0.0
H1104 H 0.28989 0.33128 0.28093 0.0
S1105 S 0.22691 0.13843 0.26503 0.0
N1106 N 0.2205 0.15432 0.28571 0.0
N1107 N 0.25092 0.18599 0.2551 0.0
C1108 C 0.25484 0.21777 0.26862 0.0
C1109 C 0.2382 0.20037 0.28529 0.0
C1110 C 0.02657 0.99628 0.51902 0.0
C1111 C 0.98928 0.03119 0.51795 0.0
C1112 C 0.04535 0.98099 0.53521 0.0
C1113 C 0.0278 1.00011 0.55104 0.0
H1114 H 0.0412 0.98022 0.50721 0.0
H1115 H 0.07325 0.95337 0.53532 0.0
S1116 S 0.93548 0.09754 0.55536 0.0
N1117 N 0.93839 0.08719 0.53413 0.0
N1118 N 0.97433 0.0596 0.56445 0.0
C1119 C 0.99162 0.0362 0.55012 0.0
C1120 C 0.97217 0.05138 0.53364 0.0
C1121 C 0.24341 0.70406 0.78395 0.0
C1122 C 0.23107 0.73583 0.77026 0.0
C1123 C 0.26263 0.7217 0.79978 0.0
C1124 C 0.27043 0.77187 0.80262 0.0
H1125 H 0.23926 0.66522 0.7823 0.0
H1126 H 0.27195 0.69556 0.80983 0.0
S1127 S 0.24073 0.87088 0.77147 0.0
N1128 N 0.22547 0.82065 0.76111 0.0
N1129 N 0.26196 0.85306 0.79058 0.0
C1130 C 0.25734 0.80405 0.78917 0.0
C1131 C 0.23753 0.78626 0.77313 0.0
C1132 C 0.55537 0.01682 0.5361 0.0
C1133 C 0.52349 0.03204 0.54931 0.0
C1134 C 0.53788 0.99855 0.52014 0.0
C1135 C 0.4877 0.99452 0.51666 0.0
H1136 H 0.59414 0.018 0.53821 0.0
H1137 H 0.56418 0.98694 0.5105 0.0
S1138 S 0.38887 0.03451 0.54613 0.0
N1139 N 0.43894 0.04543 0.55725 0.0
N1140 N 0.4066 0.01065 0.5274 0.0
C1141 C 0.45544 0.01073 0.52958 0.0
C1142 C 0.47318 0.02962 0.54581 0.0
C1143 C 0.2624 0.28634 0.77171 0.0
C1144 C 0.27719 0.23759 0.76949 0.0
C1145 C 0.24578 0.30392 0.78787 0.0
C1146 C 0.24317 0.2737 0.80268 0.0
H1147 H 0.26351 0.31153 0.76083 0.0
H1148 H 0.23492 0.34162 0.78871 0.0
S1149 S 0.2776 0.14288 0.80405 0.0
N1150 N 0.28813 0.15939 0.78364 0.0
N1151 N 0.25707 0.1919 0.81397 0.0
C1152 C 0.25804 0.22476 0.80069 0.0
C1153 C 0.27498 0.20691 0.78417 0.0
C1154 C 0.97394 0.98159 0.03761 0.0
C1155 C 0.99527 0.99796 0.05323 0.0
C1156 C 0.99224 0.99578 1.02119 0.0
C1157 C 0.03277 0.02695 1.0196 0.0
H1158 H 0.94338 0.95691 0.03804 0.0
H1159 H 0.9745 0.98179 1.0096 0.0
S1160 S 0.09834 0.08481 0.05637 0.0
N1161 N 0.05696 0.05052 0.06593 0.0
N1162 N 0.09125 0.07643 0.03516 0.0
C1163 C 0.05373 0.04445 1.03508 0.0
C1164 C 0.035 0.03024 0.05182 0.0
C1165 C 0.26003 0.78762 0.29979 0.0
C1166 C 0.27784 0.74001 0.30233 0.0
C1167 C 0.24274 0.80354 0.28344 0.0
C1168 C 0.24256 0.77263 0.2688 0.0
H1169 H 0.25932 0.81309 0.31056 0.0
H1170 H 0.22944 0.84038 0.28229 0.0
S1171 S 0.28617 0.64446 0.26823 0.0
N1172 N 0.2947 0.66237 0.28857 0.0
N1173 N 0.26253 0.6916 0.25803 0.0
C1174 C 0.26064 0.7249 0.27114 0.0
C1175 C 0.27816 0.70881 0.28779 0.0
C1176 C 0.75968 0.7396 0.77005 0.0
C1177 C 0.77963 0.78666 0.76804 0.0
C1178 C 0.74362 0.72212 0.78632 0.0
C1179 C 0.74651 0.75074 0.80149 0.0
H1180 H 0.75624 0.7156 0.7589 0.0
H1181 H 0.72868 0.68576 0.78695 0.0
S1182 S 0.79598 0.87665 0.80364 0.0
N1183 N 0.80144 0.8615 0.78285 0.0
N1184 N 0.77134 0.82915 0.8134 0.0
C1185 C 0.76638 0.79802 0.79973 0.0
C1186 C 0.78283 0.8158 0.78308 0.0
C1187 C 0.74733 0.2214 0.28021 0.0
C1188 C 0.74845 0.25214 0.26549 0.0
C1189 C 0.76215 0.23785 0.29682 0.0
C1190 C 0.7789 0.28583 0.2995 0.0
H1191 H 0.73481 0.18428 0.27896 0.0
H1192 H 0.76044 0.21251 0.30765 0.0
S1193 S 0.78885 0.38136 0.26547 0.0
N1194 N 0.76773 0.33363 0.25493 0.0
N1195 N 0.79539 0.36379 0.28593 0.0
C1196 C 0.78017 0.31692 0.28493 0.0
C1197 C 0.76507 0.30033 0.26804 0.0
C1198 C 0.76176 0.71968 0.28124 0.0
C1199 C 0.76657 0.74934 0.26637 0.0
C1200 C 0.74487 0.73837 0.29715 0.0
C1201 C 0.73212 0.78775 0.29906 0.0
H1202 H 0.77111 0.68154 0.28066 0.0
H1203 H 0.74205 0.71353 0.30809 0.0
S1204 S 0.73724 0.88123 0.2641 0.0
N1205 N 0.7564 0.83109 0.25454 0.0
N1206 N 0.72492 0.8659 0.28451 0.0
C1207 C 0.73619 0.81788 0.28428 0.0
C1208 C 0.75336 0.79882 0.26797 0.0
C1209 C 0.75982 0.29101 0.79937 0.0
C1210 C 0.76865 0.24116 0.80245 0.0
C1211 C 0.74189 0.30785 0.78324 0.0
C1212 C 0.7318 0.2756 0.76947 0.0
H1213 H 0.76731 0.31756 0.80946 0.0
H1214 H 0.73668 0.34653 0.78148 0.0
S1215 S 0.74417 0.14091 0.7713 0.0
N1216 N 0.76317 0.15957 0.79061 0.0
N1217 N 0.7291 0.19057 0.76051 0.0
C1218 C 0.73926 0.22543 0.77255 0.0
C1219 C 0.75778 0.20842 0.78894 0.0
C1220 C 0.96586 0.51789 0.54116 0.0
C1221 C 0.99646 0.52201 0.55576 0.0
C1222 C 0.98343 0.50137 0.52498 0.0
C1223 C 0.03252 0.48845 0.52256 0.0
H1224 H 0.92793 0.52749 0.54217 0.0
H1225 H 0.95803 0.49894 0.51424 0.0
S1226 S 0.12812 0.49204 0.55661 0.0
N1227 N 0.07886 0.5111 0.56671 0.0
N1228 N 0.11133 0.48043 0.53634 0.0
C1229 C 0.0635 0.4919 0.53707 0.0
C1230 C 0.04566 0.5086 0.5536 0.0
C1231 C 0.47352 0.54176 1.03368 0.0
C1232 C 0.48749 0.51859 1.0181 0.0
C1233 C 0.49134 0.52621 0.04999 0.0
C1234 C 0.52404 0.48706 0.05136 0.0
H1235 H 0.4495 0.57281 1.03326 0.0
H1236 H 0.47993 0.5455 0.0616 0.0
S1237 S 0.5649 0.40866 1.01496 0.0
N1238 N 0.53108 0.45047 1.00543 0.0
N1239 N 0.56534 0.42233 0.03597 0.0
C1240 C 0.53697 0.46261 0.03599 0.0
C1241 C 0.51847 0.47805 1.01941 0.0
C1242 C 0.05295 0.52224 0.03635 0.0
C1243 C 0.02333 0.52374 0.05131 0.0
C1244 C 0.03494 0.50623 1.02013 0.0
C1245 C 0.98637 0.49079 1.01802 0.0
H1246 H 0.0905 0.53343 0.03713 0.0
H1247 H 0.05967 0.50594 1.00912 0.0
S1248 S 0.893 0.48813 0.05292 0.0
N1249 N 0.94206 0.50871 0.06277 0.0
N1250 N 0.90893 0.47862 1.03242 0.0
C1251 C 0.95625 0.49226 1.03283 0.0
C1252 C 0.97448 0.50866 0.04937 0.0
C1253 C 0.55201 0.52405 0.53515 0.0
C1254 C 0.52387 0.52004 0.5199 0.0
C1255 C 0.53432 0.50863 0.55147 0.0
C1256 C 0.48754 0.48831 0.55341 0.0
H1257 H 0.58812 0.53938 0.53455 0.0
H1258 H 0.5579 0.51282 0.56269 0.0
S1259 S 0.3989 0.46902 0.51759 0.0
N1260 N 0.44628 0.49374 0.50785 0.0
N1261 N 0.41353 0.4648 0.53847 0.0
C1262 C 0.45891 0.48398 0.53829 0.0
C1263 C 0.4769 0.49975 0.52161 0.0
C1264 C 0.62788 0.91082 0.09794 0.0
C1265 C 0.61776 0.95921 0.10236 0.0
C1266 C 0.67453 0.8968 0.09283 0.0
C1267 C 0.71256 0.93078 0.09158 0.0
H1268 H 0.59985 0.88335 0.09884 0.0
H1269 H 0.68131 0.85866 0.0904 0.0
S1270 S 0.70253 0.06362 0.09969 0.0
N1271 N 0.64797 0.04207 0.10376 0.0
N1272 N 0.73508 0.01613 0.09394 0.0
C1273 C 0.70193 0.97989 0.09502 0.0
C1274 C 0.65469 0.99397 0.10052 0.0
C1275 C 0.3765 0.42298 0.34442 0.0
C1276 C 0.34396 0.46171 0.34204 0.0
C1277 C 0.35982 0.37573 0.34771 0.0
C1278 C 0.31007 0.36606 0.3493 0.0
H1279 H 0.4152 0.4296 0.34427 0.0
H1280 H 0.38602 0.34695 0.3496 0.0
S1281 S 0.20962 0.45373 0.34317 0.0
N1282 N 0.25935 0.48616 0.34057 0.0
N1283 N 0.22823 0.3979 0.34708 0.0
C1284 C 0.2771 0.40401 0.34643 0.0
C1285 C 0.29399 0.45174 0.34269 0.0
C1286 C 0.83179 0.11333 0.60606 0.0
C1287 C 0.80802 0.091 0.59181 0.0
C1288 C 0.87679 0.09678 0.61202 0.0
C1289 C 0.8988 0.05648 0.60427 0.0
H1290 H 0.81521 0.14344 0.6129 0.0
H1291 H 0.8941 0.11512 0.62288 0.0
S1292 S 0.85588 0.98894 0.56534 0.0
N1293 N 0.81406 0.03072 0.56868 0.0
N1294 N 0.89599 0.9962 0.58114 0.0
C1295 C 0.87611 0.03413 0.58994 0.0
C1296 C 0.83138 0.05229 0.58337 0.0
C1297 C 0.1872 0.56697 0.86448 0.0
C1298 C 0.16535 0.55513 0.84841 0.0
C1299 C 0.20637 0.61315 0.86747 0.0
C1300 C 0.20308 0.64941 0.85465 0.0
H1301 H 0.1902 0.53999 0.87474 0.0
H1302 H 0.22387 0.62052 0.87987 0.0
S1303 S 0.14867 0.63664 0.81044 0.0
N1304 N 0.14153 0.58266 0.81956 0.0
N1305 N 0.17608 0.6706 0.82525 0.0
C1306 C 0.18042 0.63831 0.83861 0.0
C1307 C 0.16196 0.59077 0.83545 0.0
C1308 C 0.66992 0.12479 0.47426 0.0
C1309 C 0.70886 0.09372 0.47823 0.0
C1310 C 0.62456 0.10629 0.46945 0.0
C1311 C 0.61693 0.05605 0.46798 0.0
H1312 H 0.67512 0.1638 0.47423 0.0
H1313 H 0.59572 0.1315 0.46633 0.0
S1314 S 0.70493 0.95874 0.47854 0.0
N1315 N 0.73494 0.00977 0.48169 0.0
N1316 N 0.65021 0.97531 0.47234 0.0
C1317 C 0.65472 0.02449 0.47259 0.0
C1318 C 0.70055 0.04326 0.47785 0.0
C1319 C 0.18411 0.37777 0.7357 0.0
C1320 C 0.19713 0.36291 0.71872 0.0
C1321 C 0.16579 0.42439 0.73874 0.0
C1322 C 0.15855 0.45663 0.72481 0.0
H1323 H 0.18975 0.35388 0.74678 0.0
H1324 H 0.15754 0.43538 0.75202 0.0
S1325 S 0.18425 0.4339 0.67787 0.0
N1326 N 0.20091 0.38341 0.68788 0.0
N1327 N 0.16363 0.47011 0.69338 0.0
C1328 C 0.1698 0.44153 0.70771 0.0
C1329 C 0.18988 0.39478 0.70471 0.0
C1330 C 0.844 0.89072 0.97668 0.0
C1331 C 0.80652 0.92398 0.98016 0.0
C1332 C 0.89071 0.90664 0.97226 0.0
C1333 C 0.90108 0.95636 0.97065 0.0
H1334 H 0.83662 0.85207 0.97673 0.0
H1335 H 0.91838 0.87987 0.96949 0.0
S1336 S 0.81736 0.0585 0.97979 0.0
N1337 N 0.7845 1.0092 0.98291 0.0
N1338 N 0.87166 0.0389 0.97427 0.0
C1339 C 0.86463 0.99002 0.97476 0.0
C1340 C 0.81749 0.97387 0.97963 0.0
C1341 C 0.27719 0.60577 0.2178 0.0
C1342 C 0.30848 0.64607 0.21839 0.0
C1343 C 0.29309 0.55961 0.22265 0.0
C1344 C 0.34091 0.55181 0.22822 0.0
H1345 H 0.23995 0.60976 0.21358 0.0
H1346 H 0.26817 0.52959 0.22125 0.0
S1347 S 0.43721 0.64476 0.23232 0.0
N1348 N 0.38947 0.67526 0.22536 0.0
N1349 N 0.41948 0.58767 0.23413 0.0
C1350 C 0.37249 0.59165 0.22906 0.0
C1351 C 0.35624 0.63895 0.22426 0.0
C1352 C 0.38541 0.08288 0.98423 0.0
C1353 C 0.40435 0.07217 0.96759 0.0
C1354 C 0.33834 0.10109 0.98613 0.0
C1355 C 0.30943 0.11051 0.97142 0.0
H1356 H 0.40649 0.07552 0.99586 0.0
H1357 H 0.3244 0.10742 0.99917 0.0
S1358 S 0.34659 0.09668 0.92493 0.0
N1359 N 0.39347 0.07681 0.93623 0.0
N1360 N 0.30555 0.11282 0.93953 0.0
C1361 C 0.32951 0.10301 0.95465 0.0
C1362 C 0.37688 0.0833 0.9528 0.0
C1363 C 0.73794 0.61402 0.71872 0.0
C1364 C 0.70735 0.65469 0.71952 0.0
C1365 C 0.72176 0.56808 0.72385 0.0
C1366 C 0.67411 0.56062 0.72979 0.0
H1367 H 0.77501 0.6176 0.71425 0.0
H1368 H 0.74669 0.53824 0.72255 0.0
S1369 S 0.57969 0.65526 0.73475 0.0
N1370 N 0.62732 0.6849 0.72717 0.0
N1371 N 0.59666 0.59799 0.73652 0.0
C1372 C 0.64322 0.60104 0.73084 0.0
C1373 C 0.65986 0.64813 0.72578 0.0
C1374 C 0.15531 0.99259 0.4649 0.0
C1375 C 0.11438 0.96231 0.46599 0.0
C1376 C 0.20096 0.97625 0.47006 0.0
C1377 C 0.2078 0.92883 0.4764 0.0
H1378 H 0.15221 0.02955 0.46016 0.0
H1379 H 0.23114 1.00078 0.4685 0.0
S1380 S 0.11269 0.83494 0.48198 0.0
N1381 N 0.08354 0.88253 0.47413 0.0
N1382 N 0.16996 0.85169 0.48359 0.0
C1383 C 0.16727 0.89813 0.47763 0.0
C1384 C 0.12049 0.91487 0.47249 0.0
C1385 C 0.86703 0.44019 0.22829 0.0
C1386 C 0.83214 0.47283 0.23456 0.0
C1387 C 0.85339 0.39795 0.21931 0.0
C1388 C 0.80435 0.38709 0.21617 0.0
H1389 H 0.90515 0.44699 0.23061 0.0
H1390 H 0.8814 0.37283 0.21526 0.0
S1391 S 0.69881 0.459 0.23133 0.0
N1392 N 0.74644 0.48976 0.23823 0.0
N1393 N 0.72069 0.41204 0.22054 0.0
C1394 C 0.76908 0.42012 0.22208 0.0
C1395 C 0.78299 0.4625 0.23156 0.0
C1396 C 0.33639 0.92585 0.58138 0.0
C1397 C 0.30863 0.9136 0.59615 0.0
C1398 C 0.38406 0.94263 0.5832 0.0
C1399 C 0.40489 0.9487 0.59983 0.0
H1400 H 0.32133 0.92256 0.56838 0.0
H1401 H 0.40426 0.95227 0.57156 0.0
S1402 S 0.35142 0.91443 0.64227 0.0
N1403 N 0.30828 0.90322 0.62789 0.0
N1404 N 0.39746 0.93621 0.63098 0.0
C1405 C 0.37876 0.93453 0.61456 0.0
C1406 C 0.33071 0.91648 0.6128 0.0
C1407 C 0.84092 0.59215 0.32854 0.0
C1408 C 0.85522 0.56498 0.34322 0.0
C1409 C 0.82201 0.63911 0.3305 0.0
C1410 C 0.81593 0.65975 0.3472 0.0
H1411 H 0.84421 0.57705 0.31553 0.0
H1412 H 0.8108 0.65882 0.31892 0.0
S1413 S 0.85133 0.60578 0.38944 0.0
N1414 N 0.86469 0.56375 0.3749 0.0
N1415 N 0.82826 0.65159 0.37835 0.0
C1416 C 0.83103 0.63365 0.36184 0.0
C1417 C 0.85103 0.58638 0.3599 0.0
C1418 C 0.14742 0.03517 0.09356 0.0
C1419 C 0.12005 0.05886 0.10641 0.0
C1420 C 0.19126 0.05458 0.08774 0.0
C1421 C 0.21073 0.09672 0.09535 0.0
H1422 H 0.13397 1.00221 0.08752 0.0
H1423 H 0.2097 0.03625 0.07719 0.0
S1424 S 0.15054 0.17309 0.12915 0.0
N1425 N 0.11229 0.12799 0.1257 0.0
N1426 N 0.19705 0.16293 0.11607 0.0
C1427 C 0.18269 0.12132 0.10804 0.0
C1428 C 0.13696 0.10246 0.11338 0.0
C1429 C 0.6437 0.42698 0.84468 0.0
C1430 C 0.67683 0.46451 0.84093 0.0
C1431 C 0.65955 0.38081 0.84985 0.0
C1432 C 0.7091 0.37094 0.85189 0.0
H1433 H 0.60511 0.43397 0.84429 0.0
H1434 H 0.63282 0.35315 0.8528 0.0
S1435 S 0.81105 0.45465 0.84213 0.0
N1436 N 0.76189 0.4869 0.83835 0.0
N1437 N 0.79147 0.40067 0.84827 0.0
C1438 C 0.74271 0.40732 0.84747 0.0
C1439 C 0.72663 0.45396 0.84189 0.0
C1440 C 0.12486 0.41241 0.60289 0.0
C1441 C 0.11679 0.46169 0.60651 0.0
C1442 C 0.17041 0.39612 0.59742 0.0
C1443 C 0.20932 0.42856 0.59501 0.0
H1444 H 0.09606 0.38609 0.60465 0.0
H1445 H 0.17565 0.35747 0.5956 0.0
S1446 S 0.20417 0.56284 0.60053 0.0
N1447 N 0.14961 0.54361 0.60586 0.0
N1448 N 0.23458 0.51351 0.59532 0.0
C1449 C 0.20064 0.47848 0.59766 0.0
C1450 C 0.15456 0.49488 0.60355 0.0
C1451 C 0.79783 0.95582 0.84749 0.0
C1452 C 0.84642 0.96332 0.84274 0.0
C1453 C 0.78141 0.91033 0.85292 0.0
C1454 C 0.81283 0.87028 0.85367 0.0
H1455 H 0.77244 0.98558 0.84774 0.0
H1456 H 0.74356 0.90664 0.85643 0.0
S1457 S 0.94341 0.87058 0.84217 0.0
N1458 N 0.92586 0.92722 0.83899 0.0
N1459 N 0.89478 0.84075 0.84879 0.0
C1460 C 0.86138 0.87693 0.8486 0.0
C1461 C 0.87822 0.92365 0.84326 0.0
C1462 C 0.33811 0.60143 0.08699 0.0
C1463 C 0.30418 0.59928 0.1006 0.0
C1464 C 0.38519 0.58374 0.08943 0.0
C1465 C 0.39913 0.56221 0.10538 0.0
H1466 H 0.32817 0.61672 0.07443 0.0
H1467 H 0.41025 0.58537 0.07853 0.0
S1468 S 0.3235 0.54836 0.14509 0.0
N1469 N 0.28788 0.57546 0.13075 0.0
N1470 N 0.37574 0.54038 0.13497 0.0
C1471 C 0.36556 0.56011 0.11908 0.0
C1472 C 0.31816 0.57916 0.11678 0.0
C1473 C 0.73532 0.11822 0.35011 0.0
C1474 C 0.70471 0.15861 0.35197 0.0
C1475 C 0.71688 0.07274 0.34556 0.0
C1476 C 0.66703 0.06558 0.34286 0.0
H1477 H 0.77404 0.12168 0.35205 0.0
H1478 H 0.74194 0.04276 0.34481 0.0
S1479 S 0.57136 0.15932 0.34609 0.0
N1480 N 0.62207 0.18882 0.35046 0.0
N1481 N 0.58725 0.10244 0.34239 0.0
C1482 C 0.63598 0.10559 0.34459 0.0
C1483 C 0.65484 0.1523 0.34899 0.0
C1484 C 0.17154 0.62351 0.97572 0.0
C1485 C 0.21017 0.59156 0.97914 0.0
C1486 C 0.12568 0.60607 0.97097 0.0
C1487 C 0.11724 0.55608 0.96901 0.0
H1488 H 0.17734 0.66242 0.97607 0.0
H1489 H 0.09712 0.63193 0.96825 0.0
S1490 S 0.20443 0.45671 0.97792 0.0
N1491 N 0.23525 0.50704 0.98146 0.0
N1492 N 0.14965 0.47455 0.97228 0.0
C1493 C 0.15481 0.52363 0.97307 0.0
C1494 C 0.20112 0.54129 0.97824 0.0
C1495 C 0.65588 0.92858 0.22407 0.0
C1496 C 0.68981 0.96679 0.22444 0.0
C1497 C 0.66906 0.88164 0.2189 0.0
C1498 C 0.71661 0.87108 0.21358 0.0
H1499 H 0.61835 0.93528 0.22742 0.0
H1500 H 0.64154 0.85357 0.21886 0.0
S1501 S 0.82053 0.95678 0.21309 0.0
N1502 N 0.77419 0.98948 0.21979 0.0
N1503 N 0.79862 0.90182 0.20991 0.0
C1504 C 0.75132 0.90845 0.21428 0.0
C1505 C 0.73806 0.9561 0.21981 0.0
C1506 C 0.36512 0.48409 0.46801 0.0
C1507 C 0.40421 0.45148 0.46725 0.0
C1508 C 0.31898 0.46859 0.47299 0.0
C1509 C 0.30988 0.41981 0.47727 0.0
H1510 H 0.37011 0.52214 0.46486 0.0
H1511 H 0.28999 0.49487 0.47279 0.0
S1512 S 0.39944 0.31985 0.47747 0.0
N1513 N 0.43098 0.36819 0.47156 0.0
N1514 N 0.34331 0.33886 0.48043 0.0
C1515 C 0.3485 0.38681 0.47667 0.0
C1516 C 0.39588 0.4027 0.47183 0.0
C1517 C 0.82963 0.14006 0.73368 0.0
C1518 C 0.81258 0.15563 0.71724 0.0
C1519 C 0.84918 0.09359 0.7359 0.0
C1520 C 0.85403 0.06224 0.72159 0.0
H1521 H 0.8263 0.16333 0.74502 0.0
H1522 H 0.8603 0.08201 0.74884 0.0
S1523 S 0.81898 0.0875 0.67562 0.0
N1524 N 0.80329 0.13697 0.68641 0.0
N1525 N 0.84316 0.05072 0.69029 0.0
C1526 C 0.8392 0.07822 0.70495 0.0
C1527 C 0.81767 0.12476 0.70284 0.0
C1528 C 0.88153 0.57379 0.49157 0.0
C1529 C 0.90193 0.57023 0.47473 0.0
C1530 C 0.83437 0.59153 0.49396 0.0
C1531 C 0.80677 0.60725 0.47962 0.0
H1532 H 0.90162 0.56153 0.5029 0.0
H1533 H 0.81943 0.59274 0.50706 0.0
S1534 S 0.84666 0.61035 0.43329 0.0
N1535 N 0.89298 0.58652 0.44384 0.0
N1536 N 0.80476 0.621 0.44815 0.0
C1537 C 0.82787 0.60568 0.46283 0.0
C1538 C 0.87535 0.58677 0.46042 0.0
C1539 C 0.23979 0.1044 0.21615 0.0
C1540 C 0.20894 0.14486 0.21529 0.0
C1541 C 0.22315 0.05953 0.22222 0.0
C1542 C 0.1747 0.05279 0.22742 0.0
H1543 H 0.27748 0.1074 0.21236 0.0
H1544 H 0.2486 0.02996 0.22226 0.0
S1545 S 0.07947 0.14763 0.22832 0.0
N1546 N 0.1279 0.17595 0.22076 0.0
N1547 N 0.09637 0.09097 0.23185 0.0
C1548 C 0.14358 0.09313 0.22686 0.0
C1549 C 0.16068 0.13919 0.22085 0.0
C1550 C 0.63552 0.45487 0.97934 0.0
C1551 C 0.61504 0.45543 0.96255 0.0
C1552 C 0.68133 0.43486 0.98229 0.0
C1553 C 0.70882 0.41621 0.96839 0.0
H1554 H 0.61642 0.47103 0.99021 0.0
H1555 H 0.6952 0.43443 0.99551 0.0
S1556 S 0.6706 0.41094 0.92167 0.0
N1557 N 0.62431 0.43607 0.93189 0.0
N1558 N 0.71151 0.4001 0.93693 0.0
C1559 C 0.68827 0.41672 0.95141 0.0
C1560 C 0.64125 0.43641 0.94858 0.0
C1561 C 0.33694 0.87871 0.73678 0.0
C1562 C 0.31432 0.86327 0.72119 0.0
C1563 C 0.35472 0.92628 0.7385 0.0
C1564 C 0.35167 0.95913 0.72452 0.0
H1565 H 0.33951 0.85446 0.74791 0.0
H1566 H 0.37079 0.93743 0.75078 0.0
S1567 S 0.29603 0.93641 0.68122 0.0
N1568 N 0.28935 0.88477 0.69182 0.0
N1569 N 0.32536 0.97291 0.69462 0.0
C1570 C 0.33035 0.94365 0.7088 0.0
C1571 C 0.31103 0.89599 0.70724 0.0
C1572 C 0.84343 0.39049 0.09476 0.0
C1573 C 0.80501 0.42282 0.09152 0.0
C1574 C 0.88946 0.40748 0.0995 0.0
C1575 C 0.89821 0.45734 0.10168 0.0
H1576 H 0.83734 0.35164 0.09426 0.0
H1577 H 0.91794 0.38136 0.102 0.0
S1578 S 0.81161 0.55754 0.09321 0.0
N1579 N 0.78048 0.50751 0.08949 0.0
N1580 N 0.86622 0.53919 0.09884 0.0
C1581 C 0.86074 0.49016 0.09789 0.0
C1582 C 0.81435 0.47296 0.09264 0.0
C1583 C 0.35494 0.13873 0.85164 0.0
C1584 C 0.3052 0.14793 0.85353 0.0
C1585 C 0.37163 0.09262 0.84678 0.0
C1586 C 0.33916 0.05453 0.8431 0.0
H1587 H 0.38119 0.16696 0.85441 0.0
H1588 H 0.41033 0.08619 0.84649 0.0
S1589 S 0.20484 0.06216 0.84404 0.0
N1590 N 0.2234 0.11656 0.85007 0.0
N1591 N 0.25458 0.03067 0.84043 0.0
C1592 C 0.2892 0.06425 0.84398 0.0
C1593 C 0.27227 0.11073 0.84938 0.0
C1594 C 0.67299 0.6183 0.59202 0.0
C1595 C 0.71203 0.58568 0.59046 0.0
C1596 C 0.62697 0.60253 0.59725 0.0
C1597 C 0.61844 0.55362 0.60142 0.0
H1598 H 0.67854 0.6568 0.58983 0.0
H1599 H 0.59824 0.62906 0.5985 0.0
S1600 S 0.70568 0.45191 0.59746 0.0
N1601 N 0.73675 0.50072 0.59197 0.0
N1602 N 0.65079 0.47163 0.60196 0.0
C1603 C 0.65617 0.52012 0.59911 0.0
C1604 C 0.70281 0.53598 0.59352 0.0
C1605 C 0.16778 0.92453 0.33446 0.0
C1606 C 0.16044 0.95712 0.34826 0.0
C1607 C 0.18694 0.87832 0.33766 0.0
C1608 C 0.20087 0.86421 0.35463 0.0
H1609 H 0.159 0.93498 0.32117 0.0
H1610 H 0.19251 0.85415 0.32668 0.0
S1611 S 0.18785 0.9361 0.39519 0.0
N1612 N 0.1661 0.97149 0.37961 0.0
N1613 N 0.20519 0.88567 0.38535 0.0
C1614 C 0.19345 0.89635 0.36852 0.0
C1615 C 0.17238 0.94265 0.36538 0.0
C1616 C 0.30288 0.89115 0.15498 0.0
C1617 C 0.30753 0.89639 0.17319 0.0
C1618 C 0.33041 0.91988 0.14339 0.0
C1619 C 0.36405 0.95426 0.14961 0.0
H1620 H 0.27665 0.86588 0.14967 0.0
H1621 H 0.3249 0.91567 0.12944 0.0
S1622 S 0.38959 0.98202 0.19608 0.0
N1623 N 0.34821 0.93868 0.19687 0.0
N1624 N 0.40012 0.99208 0.1751 0.0
C1625 C 0.36951 0.9593 0.16775 0.0
C1626 C 0.34118 0.93052 0.17954 0.0
C1627 C 0.34137 0.09617 0.42572 0.0
C1628 C 0.3729 0.05949 0.41982 0.0
C1629 C 0.31371 0.12397 0.41392 0.0
C1630 C 0.31621 0.11568 0.39579 0.0
H1631 H 0.33714 0.10254 0.43962 0.0
H1632 H 0.28878 0.15074 0.41905 0.0
S1633 S 0.39291 0.02387 0.37368 0.0
N1634 N 0.40492 0.0165 0.39469 0.0
N1635 N 0.35329 0.06866 0.37252 0.0
C1636 C 0.34821 0.07967 0.38974 0.0
C1637 C 0.3765 0.05163 0.40173 0.0
C1638 C 0.13236 0.10413 0.65461 0.0
C1639 C 0.15374 0.0644 0.64584 0.0
C1640 C 0.15817 0.13134 0.66721 0.0
C1641 C 0.20679 0.12075 0.67118 0.0
H1642 H 0.0955 0.11459 0.65175 0.0
H1643 H 0.13974 0.16034 0.67406 0.0
S1644 S 0.282 0.02537 0.65063 0.0
N1645 N 0.22742 0.01664 0.6425 0.0
N1646 N 0.27712 0.07258 0.66372 0.0
C1647 C 0.22938 0.0834 0.66179 0.0
C1648 C 0.20263 0.05402 0.64981 0.0
C1649 C 0.16526 0.87941 0.90589 0.0
C1650 C 0.20857 0.89722 0.89843 0.0
C1651 C 0.13821 0.90741 0.91794 0.0
C1652 C 0.15278 0.95475 0.92265 0.0
H1653 H 0.15183 0.84388 0.90228 0.0
H1654 H 0.10601 0.89167 0.92373 0.0
S1655 S 0.26208 0.01895 0.9064 0.0
N1656 N 0.26588 0.9643 0.8978 0.0
N1657 N 0.21106 0.01933 0.91759 0.0
C1658 C 0.19495 0.97333 0.91478 0.0
C1659 C 0.22386 0.94397 0.90349 0.0
C1660 C 0.66357 0.1336 0.90527 0.0
C1661 C 0.70952 0.11772 0.8996 0.0
C1662 C 0.63608 0.10653 0.91749 0.0
C1663 C 0.65289 0.06187 0.9242 0.0
H1664 H 0.64841 0.16687 0.9001 0.0
H1665 H 0.60165 0.12096 0.9218 0.0
S1666 S 0.7706 1.00384 0.91338 0.0
N1667 N 0.77183 0.05609 0.90283 0.0
N1668 N 0.71727 1.00175 0.92307 0.0
C1669 C 0.6982 0.0452 0.91821 0.0
C1670 C 0.72723 0.07399 0.90669 0.0
C1671 C 0.66858 0.93005 0.67564 0.0
C1672 C 0.70702 0.8997 0.67046 0.0
C1673 C 0.64172 0.95684 0.66329 0.0
C1674 C 0.65292 0.9548 0.64535 0.0
H1675 H 0.65981 0.93372 0.68939 0.0
H1676 H 0.61304 0.98044 0.66785 0.0
S1677 S 0.75067 0.88162 0.62512 0.0
N1678 N 0.75498 0.86949 0.64624 0.0
N1679 N 0.705 0.9199 0.62307 0.0
C1680 C 0.69113 0.92443 0.64004 0.0
C1681 C 0.71803 0.89683 0.65258 0.0
C1682 C 0.85418 0.895 0.40189 0.0
C1683 C 0.80797 0.91028 0.39627 0.0
C1684 C 0.88115 0.92206 0.41424 0.0
C1685 C 0.86361 0.96621 0.42112 0.0
H1686 H 0.86993 0.8622 0.39659 0.0
H1687 H 0.91577 0.908 0.4185 0.0
S1688 S 0.74474 0.02235 0.41064 0.0
N1689 N 0.74446 0.97049 0.3999 0.0
N1690 N 0.7981 0.02513 0.42025 0.0
C1691 C 0.81799 0.98225 0.41521 0.0
C1692 C 0.78947 0.95335 0.40359 0.0
C1693 C 0.87925 0.06708 0.16545 0.0
C1694 C 0.87515 0.06996 0.14715 0.0
C1695 C 0.85202 0.09765 0.17643 0.0
C1696 C 0.81964 0.13233 0.16955 0.0
H1697 H 0.90199 0.03958 0.17136 0.0
H1698 H 0.85496 0.09292 0.19046 0.0
S1699 S 0.79597 0.15474 0.12253 0.0
N1700 N 0.83724 0.11135 0.12263 0.0
N1701 N 0.78512 0.16755 0.14328 0.0
C1702 C 0.81603 0.13634 0.1513 0.0
C1703 C 0.84395 0.10542 0.14011 0.0
C1704 C 0.86962 0.46432 0.66838 0.0
C1705 C 0.86575 0.4579 0.65019 0.0
C1706 C 0.84128 0.43674 0.68004 0.0
C1707 C 0.8084 0.40148 0.67394 0.0
H1708 H 0.89349 0.49197 0.6736 0.0
H1709 H 0.84447 0.44363 0.69394 0.0
S1710 S 0.78454 0.37094 0.62756 0.0
N1711 N 0.82677 0.41344 0.62665 0.0
N1712 N 0.7732 0.36219 0.64855 0.0
C1713 C 0.80468 0.39428 0.65582 0.0
C1714 C 0.83342 0.42237 0.64396 0.0
C1715 C 0.79947 0.57466 0.90231 0.0
C1716 C 0.81569 0.62032 0.89638 0.0
C1717 C 0.82711 0.54614 0.91376 0.0
C1718 C 0.87121 0.5628 0.9208 0.0
H1719 H 0.76486 0.56047 0.89806 0.0
H1720 H 0.81314 0.51073 0.91735 0.0
S1721 S 0.93035 0.68016 0.90986 0.0
N1722 N 0.88072 0.6798 0.89781 0.0
N1723 N 0.92951 0.629 0.92116 0.0
C1724 C 0.88781 0.60874 0.91524 0.0
C1725 C 0.86061 0.63698 0.90281 0.0
C1726 C 0.6322 0.6001 0.15402 0.0
C1727 C 0.64717 0.55366 0.14855 0.0
C1728 C 0.65954 0.62713 0.16621 0.0
C1729 C 0.70331 0.60908 0.17313 0.0
H1730 H 0.59959 0.61602 0.14866 0.0
H1731 H 0.64614 0.66225 0.17029 0.0
S1732 S 0.75808 0.48913 0.1631 0.0
N1733 N 0.70676 0.48952 0.15208 0.0
N1734 N 0.76105 0.54246 0.17283 0.0
C1735 C 0.71872 0.5629 0.16755 0.0
C1736 C 0.68992 0.53468 0.15585 0.0
C1737 C 0.64185 0.41551 0.41671 0.0
C1738 C 0.65851 0.46023 0.42341 0.0
C1739 C 0.66857 0.3895 0.40402 0.0
C1740 C 0.71367 0.40652 0.39786 0.0
H1741 H 0.60808 0.40021 0.42135 0.0
H1742 H 0.65346 0.35616 0.3989 0.0
S1743 S 0.77414 0.5207 0.41153 0.0
N1744 N 0.7218 0.52148 0.42189 0.0
N1745 N 0.77523 0.46912 0.40065 0.0
C1746 C 0.73129 0.45027 0.40495 0.0
C1747 C 0.70295 0.47798 0.41698 0.0
C1748 C 0.1652 0.637 0.40622 0.0
C1749 C 0.2096 0.61922 0.39969 0.0
C1750 C 0.1378 0.61054 0.41867 0.0
C1751 C 0.15302 0.56463 0.42475 0.0
H1752 H 0.15124 0.67142 0.40163 0.0
H1753 H 0.10482 0.62648 0.42371 0.0
S1754 S 0.2656 0.50088 0.41136 0.0
N1755 N 0.26856 0.55386 0.40135 0.0
N1756 N 0.21343 0.50099 0.42185 0.0
C1757 C 0.19632 0.54583 0.41774 0.0
C1758 C 0.22551 0.57389 0.40603 0.0
C1759 C 0.19354 0.46446 0.15243 0.0
C1760 C 0.14808 0.44836 0.14639 0.0
C1761 C 0.22144 0.43677 0.16406 0.0
C1762 C 0.2045 0.39247 0.17098 0.0
H1763 H 0.208 0.49901 0.1481 0.0
H1764 H 0.25667 0.45062 0.1678 0.0
S1765 S 0.08767 0.33352 0.15966 0.0
N1766 N 0.08839 0.38347 0.14767 0.0
N1767 N 0.13842 0.33407 0.17108 0.0
C1768 C 0.15883 0.37597 0.16527 0.0
C1769 C 0.13106 0.40343 0.15279 0.0
C1770 C 0.38145 0.41549 0.91614 0.0
C1771 C 0.36554 0.4616 0.92173 0.0
C1772 C 0.3539 0.38732 0.9043 0.0
C1773 C 0.30898 0.40379 0.89784 0.0
H1774 H 0.41506 0.40074 0.92111 0.0
H1775 H 0.36819 0.35271 0.90005 0.0
S1776 S 0.25069 0.52153 0.90866 0.0
N1777 N 0.30316 0.52328 0.91892 0.0
N1778 N 0.24875 0.46805 0.89901 0.0
C1779 C 0.29236 0.44928 0.90372 0.0
C1780 C 0.3213 0.47874 0.91499 0.0
C1781 C 0.3133 0.6233 0.65755 0.0
C1782 C 0.3159 0.61371 0.67561 0.0
C1783 C 0.34076 0.59627 0.64546 0.0
C1784 C 0.37222 0.55905 0.65101 0.0
H1785 H 0.28856 0.65066 0.65269 0.0
H1786 H 0.33651 0.6037 0.63163 0.0
S1787 S 0.39275 0.52024 0.69682 0.0
N1788 N 0.35311 0.56491 0.69842 0.0
N1789 N 0.40451 0.51435 0.67573 0.0
C1790 C 0.37593 0.54989 0.66902 0.0
C1791 C 0.34777 0.5771 0.6813 0.0
C1792 C 0.4608 0.24128 0.11145 0.0
C1793 C 0.49672 0.20492 0.11117 0.0
C1794 C 0.47288 0.29078 0.11116 0.0
C1795 C 0.52142 0.30609 0.11032 0.0
H1796 H 0.4228 0.23147 0.11151 0.0
H1797 H 0.4438 0.31713 0.11089 0.0
S1798 S 0.62951 0.22569 0.11081 0.0
N1799 N 0.58307 0.1879 0.11124 0.0
N1800 N 0.6059 0.28073 0.11051 0.0
C1801 C 0.55782 0.27016 0.11077 0.0
C1802 C 0.54546 0.2197 0.11128 0.0
C1803 C 0.97412 0.2277 0.35863 0.0
C1804 C 0.96036 0.27675 0.35721 0.0
C1805 C 0.02313 0.21394 0.35878 0.0
C1806 C 0.06066 0.24865 0.35784 0.0
H1807 H 0.94685 0.19941 0.35904 0.0
H1808 H 0.03162 0.1756 0.35938 0.0
S1809 S 0.04454 0.38219 0.35516 0.0
N1810 N 0.98887 0.36034 0.3556 0.0
N1811 N 0.08054 0.3345 0.35623 0.0
C1812 C 0.04752 0.29792 0.35714 0.0
C1813 C 0.9976 0.31192 0.35671 0.0
C1814 C 0.96285 0.74669 0.61025 0.0
C1815 C 0.99824 0.71001 0.60931 0.0
C1816 C 0.97549 0.79606 0.60937 0.0
C1817 C 0.02395 0.81082 0.6071 0.0
H1818 H 0.92492 0.73718 0.61151 0.0
H1819 H 0.94679 0.82277 0.60997 0.0
S1820 S 0.13053 0.72885 0.60411 0.0
N1821 N 0.08394 0.69181 0.60645 0.0
N1822 N 0.10764 0.78418 0.60428 0.0
C1823 C 0.05975 0.77439 0.60634 0.0
C1824 C 0.04694 0.72416 0.60761 0.0
C1825 C 0.5259 0.71189 0.85756 0.0
C1826 C 0.56111 0.74904 0.858 0.0
C1827 C 0.47605 0.72246 0.8579 0.0
C1828 C 0.45924 0.77068 0.85832 0.0
H1829 H 0.5369 0.67422 0.85678 0.0
H1830 H 0.45054 0.69261 0.85721 0.0
S1831 S 0.53614 0.88134 0.86038 0.0
N1832 N 0.57524 0.8361 0.85965 0.0
N1833 N 0.482 0.8559 0.85993 0.0
C1834 C 0.49403 0.80812 0.85914 0.0
C1835 C 0.54475 0.79734 0.8591 0.0
C1836 C 0.55496 0.74079 0.46447 0.0
C1837 C 0.51971 0.70387 0.46305 0.0
C1838 C 0.54236 0.79023 0.46371 0.0
C1839 C 0.49384 0.80492 0.46182 0.0
H1840 H 0.59269 0.73153 0.46638 0.0
H1841 H 0.57072 0.81711 0.46524 0.0
S1842 S 0.38783 0.72306 0.45653 0.0
N1843 N 0.43424 0.68589 0.45882 0.0
N1844 N 0.4107 0.77837 0.45758 0.0
C1845 C 0.45842 0.76844 0.45993 0.0
C1846 C 0.47128 0.71812 0.46048 0.0
C1847 C 0.53969 0.22572 0.71226 0.0
C1848 C 0.55471 0.27413 0.71001 0.0
C1849 C 0.49031 0.21329 0.71251 0.0
C1850 C 0.45382 0.24864 0.7103 0.0
H1851 H 0.56617 0.19749 0.71464 0.0
H1852 H 0.48073 0.1757 0.71488 0.0
S1853 S 0.4746 0.37989 0.70176 0.0
N1854 N 0.52946 0.35694 0.70396 0.0
N1855 N 0.43694 0.33381 0.70433 0.0
C1856 C 0.46858 0.29681 0.70706 0.0
C1857 C 0.51887 0.30947 0.70697 0.0
C1858 C 0.05489 0.24193 0.9606 0.0
C1859 C 0.0193 0.20527 0.96175 0.0
C1860 C 0.04241 0.29145 0.96036 0.0
C1861 C 0.99384 0.30659 0.96165 0.0
H1862 H 0.09288 0.23234 0.96004 0.0
H1863 H 0.07129 0.31805 0.95972 0.0
S1864 S 0.88662 0.225 0.96455 0.0
N1865 N 0.93323 0.18766 0.96364 0.0
N1866 N 0.90981 0.2802 0.96367 0.0
C1867 C 0.95785 0.27018 0.96253 0.0
C1868 C 0.97053 0.21976 0.96244 0.0
C1869 C 0.97048 0.78472 0.21121 0.0
C1870 C 0.95573 0.73582 0.21223 0.0
C1871 C 0.01965 0.79773 0.21159 0.0
C1872 C 0.05637 0.7624 0.21266 0.0
H1873 H 0.94379 0.81348 0.2107 0.0
H1874 H 0.0289 0.83595 0.21121 0.0
S1875 S 0.03737 0.62897 0.21448 0.0
N1876 N 0.98211 0.65169 0.21366 0.0
N1877 N 0.07445 0.67605 0.21401 0.0
C1878 C 0.04226 0.71323 0.21303 0.0
C1879 C 0.99205 0.69999 0.21294 0.0
C1880 C 0.46065 0.74664 0.96286 0.0
C1881 C 0.49687 0.71053 0.96263 0.0
C1882 C 0.47237 0.79637 0.96246 0.0
C1883 C 0.52086 0.81218 0.96212 0.0
H1884 H 0.42279 0.73647 0.96359 0.0
H1885 H 0.44322 0.82259 0.96308 0.0
S1886 S 0.62943 0.73276 0.96034 0.0
N1887 N 0.58338 0.69453 0.96111 0.0
N1888 N 0.60532 0.78755 0.96064 0.0
C1889 C 0.55738 0.7765 0.96139 0.0
C1890 C 0.54544 0.7259 0.96155 0.0
C1891 C 0.99677 0.80749 0.71312 0.0
C1892 C 0.95974 0.77354 0.70942 0.0
C1893 C 0.04593 0.79429 0.71291 0.0
C1894 C 0.06023 0.74648 0.70917 0.0
H1895 H 0.9878 0.84444 0.71668 0.0
H1896 H 0.07274 0.82122 0.71653 0.0
S1897 S 0.97899 0.6452 0.69628 0.0
N1898 N 0.94189 0.69084 0.70023 0.0
N1899 N 0.03404 0.66644 0.69982 0.0
C1900 C 0.02401 0.71286 0.70454 0.0
C1901 C 0.97392 0.72627 0.70465 0.0
C1902 C 0.95987 0.25184 0.4625 0.0
C1903 C 0.99546 0.21521 0.46158 0.0
C1904 C 0.97242 0.3014 0.46268 0.0
C1905 C 0.02115 0.31645 0.46226 0.0
H1906 H 0.92189 0.24219 0.46337 0.0
H1907 H 0.94374 0.328 0.46384 0.0
S1908 S 0.12826 0.23543 0.45875 0.0
N1909 N 0.0816 0.19797 0.4593 0.0
N1910 N 0.10505 0.29051 0.45991 0.0
C1911 C 0.05698 0.28025 0.4608 0.0
C1912 C 0.04421 0.22989 0.46037 0.0
C1913 C 0.52756 0.2146 0.20868 0.0
C1914 C 0.56247 0.25196 0.20956 0.0
C1915 C 0.47764 0.22476 0.20873 0.0
C1916 C 0.46039 0.2727 0.21002 0.0
H1917 H 0.53885 0.17697 0.20816 0.0
H1918 H 0.45243 0.19461 0.20836 0.0
S1919 S 0.53669 0.38399 0.21196 0.0
N1920 N 0.57606 0.33904 0.21102 0.0
N1921 N 0.48275 0.35814 0.21149 0.0
C1922 C 0.49499 0.31048 0.21051 0.0
C1923 C 0.54579 0.30014 0.21016 0.0
C1924 C 0.47475 0.21975 0.60926 0.0
C1925 C 0.5235 0.20531 0.61024 0.0
C1926 C 0.46181 0.26909 0.60953 0.0
C1927 C 0.497 0.3061 0.61104 0.0
H1928 H 0.4465 0.1929 0.60745 0.0
H1929 H 0.42388 0.27827 0.60811 0.0
S1930 S 0.6294 0.28697 0.61616 0.0
N1931 N 0.6068 0.23169 0.61432 0.0
N1932 N 0.58264 0.3241 0.61494 0.0
C1933 C 0.54567 0.2919 0.61303 0.0
C1934 C 0.55885 0.24167 0.61258 0.0
C1935 C 0.47469 0.79781 0.35966 0.0
C1936 C 0.45973 0.74895 0.36011 0.0
C1937 C 0.52404 0.8104 0.3591 0.0
C1938 C 0.56069 0.77473 0.35927 0.0
H1939 H 0.44807 0.82662 0.35902 0.0
H1940 H 0.53348 0.84851 0.3582 0.0
S1941 S 0.54087 0.64152 0.36201 0.0
N1942 N 0.48578 0.66472 0.3618 0.0
N1943 N 0.57819 0.68833 0.36101 0.0
C1944 C 0.54624 0.7258 0.36056 0.0
C1945 C 0.49595 0.71296 0.36089 0.0
C1946 C 0.96192 0.77159 0.10916 0.0
C1947 C 0.99814 0.80767 0.10832 0.0
C1948 C 0.9736 0.72185 0.10923 0.0
C1949 C 0.02198 0.70602 0.10806 0.0
H1950 H 0.92407 0.78182 0.10964 0.0
H1951 H 0.94434 0.69565 0.10964 0.0
S1952 S 0.13062 0.78575 0.106 0.0
N1953 N 0.08461 0.82385 0.10687 0.0
N1954 N 0.10647 0.73093 0.10652 0.0
C1955 C 0.05857 0.74179 0.10747 0.0
C1956 C 0.04671 0.79237 0.10774 0.0
C1957 C 0.04161 0.22477 0.85951 0.0
C1958 C 0.05769 0.27321 0.8584 0.0
C1959 C 0.99196 0.21325 0.85926 0.0
C1960 C 0.95624 0.24971 0.85829 0.0
H1961 H 0.06757 0.19534 0.85998 0.0
H1962 H 0.98151 0.17534 0.85967 0.0
S1963 S 0.97885 0.38243 0.85612 0.0
N1964 N 0.03337 0.35804 0.85683 0.0
N1965 N 0.94056 0.3364 0.85683 0.0
C1966 C 0.97174 0.29834 0.85781 0.0
C1967 C 0.02225 0.31004 0.85772 0.0
loop_
_geom_bond_atom_site_label_1
_geom_bond_atom_site_label_2
_geom_bond_distance
_geom_bond_site_symmetry_2
_ccdc_geom_bond_type
Co0 O3 1.970 . S
Co0 N17 1.989 1_545 S
Co0 O25 1.967 . S
Co0 O32 1.920 . S
Co1 O4 1.966 . S
Co1 N10 2.022 . S
Co1 N18 1.993 1_545 S
Co1 O26 1.941 . S
C2 O3 1.258 . S
C2 O4 1.263 . S
O3 Co0 1.970 . S
O3 C2 1.258 . S
O4 Co1 1.966 . S
O4 C2 1.263 . S
C5 O6 1.235 . S
C5 O32 1.289 1_565 S
O6 C5 1.235 . S
C7 C9 1.400 . S
C7 N10 1.351 . S
C7 C12 1.501 1_545 S
C8 C9 1.387 . S
C8 N11 1.341 . S
C9 C7 1.400 . S
C9 C8 1.387 . S
N10 Co1 2.022 . S
N10 C7 1.351 . S
N10 N11 1.365 . S
N11 C8 1.341 . S
N11 N10 1.365 . S
N11 H31 0.862 . S
C12 C7 1.501 1_565 S
C12 H13 0.961 1_565 S
C12 H14 0.961 . S
C12 H15 0.960 1_565 S
H13 C12 0.961 1_545 S
H14 C12 0.961 . S
H15 C12 0.960 1_545 S
C16 N17 1.342 . S
C16 C20 1.401 . S
C16 C21 1.499 . S
N17 Co0 1.989 1_565 S
N17 C16 1.342 . S
N17 N18 1.388 . S
N18 Co1 1.993 1_565 S
N18 N17 1.388 . S
N18 C19 1.346 . S
C19 N18 1.346 . S
C19 C20 1.396 . S
C19 C29 1.510 . S
C20 C16 1.401 . S
C20 C19 1.396 . S
C21 C16 1.499 . S
C21 H22 0.959 . S
C21 H23 0.960 . S
C21 H24 0.961 . S
H22 C21 0.959 . S
H23 C21 0.960 . S
H24 C21 0.961 . S
O25 Co0 1.967 . S
O25 C33 1.258 . S
O26 Co1 1.941 . S
O26 C33 1.266 . S
H27 C29 0.959 . S
H28 C29 0.961 . S
C29 C19 1.510 . S
C29 H27 0.959 . S
C29 H28 0.961 . S
C29 H30 0.960 . S
H30 C29 0.960 . S
H31 N11 0.862 . S
O32 Co0 1.920 . S
O32 C5 1.289 1_545 S
C33 O25 1.258 . S
C33 O26 1.266 . S
Co34 O37 1.970 . S
Co34 N51 1.989 . S
Co34 O59 1.967 . S
Co34 O66 1.920 . S
Co35 O38 1.966 . S
Co35 N44 2.022 . S
Co35 N52 1.993 . S
Co35 O60 1.941 . S
C36 O37 1.258 . S
C36 O38 1.263 . S
O37 Co34 1.970 . S
O37 C36 1.258 . S
O38 Co35 1.966 . S
O38 C36 1.263 . S
C39 O40 1.235 . S
C39 O66 1.289 . S
O40 C39 1.235 . S
C41 C43 1.400 . S
C41 N44 1.351 . S
C41 C46 1.501 . S
C42 C43 1.387 . S
C42 N45 1.341 . S
C43 C41 1.400 . S
C43 C42 1.387 . S
N44 Co35 2.022 . S
N44 C41 1.351 . S
N44 N45 1.365 . S
N45 C42 1.341 . S
N45 N44 1.365 . S
N45 H65 0.862 . S
C46 C41 1.501 . S
C46 H47 0.961 . S
C46 H48 0.961 . S
C46 H49 0.960 . S
H47 C46 0.961 . S
H48 C46 0.961 . S
H49 C46 0.960 . S
C50 N51 1.342 . S
C50 C54 1.401 . S
C50 C55 1.499 . S
N51 Co34 1.989 . S
N51 C50 1.342 . S
N51 N52 1.388 . S
N52 Co35 1.993 . S
N52 N51 1.388 . S
N52 C53 1.346 . S
C53 N52 1.346 . S
C53 C54 1.396 . S
C53 C63 1.510 . S
C54 C50 1.401 . S
C54 C53 1.396 . S
C55 C50 1.499 . S
C55 H56 0.959 . S
C55 H57 0.960 . S
C55 H58 0.961 . S
H56 C55 0.959 . S
H57 C55 0.960 . S
H58 C55 0.961 . S
O59 Co34 1.967 . S
O59 C67 1.258 . S
O60 Co35 1.941 . S
O60 C67 1.266 . S
H61 C63 0.959 . S
H62 C63 0.961 . S
C63 C53 1.510 . S
C63 H61 0.959 . S
C63 H62 0.961 . S
C63 H64 0.960 . S
H64 C63 0.960 . S
H65 N45 0.862 . S
O66 Co34 1.920 . S
O66 C39 1.289 . S
C67 O59 1.258 . S
C67 O60 1.266 . S
Co68 O71 1.970 . S
Co68 N85 1.989 1_665 S
Co68 O93 1.967 . S
Co68 O100 1.920 . S
Co69 O72 1.966 . S
Co69 N78 2.022 . S
Co69 N86 1.993 1_565 S
Co69 O94 1.941 . S
C70 O71 1.258 1_455 S
C70 O72 1.263 . S
O71 Co68 1.970 . S
O71 C70 1.258 1_655 S
O72 Co69 1.966 . S
O72 C70 1.263 . S
C73 O74 1.235 . S
C73 O100 1.289 1_545 S
O74 C73 1.235 . S
C75 C77 1.400 . S
C75 N78 1.351 . S
C75 C80 1.501 1_565 S
C76 C77 1.387 . S
C76 N79 1.341 . S
C77 C75 1.400 . S
C77 C76 1.387 . S
N78 Co69 2.022 . S
N78 C75 1.351 . S
N78 N79 1.365 . S
N79 C76 1.341 . S
N79 N78 1.365 . S
N79 H99 0.862 . S
C80 C75 1.501 1_545 S
C80 H81 0.961 1_545 S
C80 H82 0.961 . S
C80 H83 0.960 1_545 S
H81 C80 0.961 1_565 S
H82 C80 0.961 . S
H83 C80 0.960 1_565 S
C84 N85 1.342 . S
C84 C88 1.401 . S
C84 C89 1.499 1_455 S
N85 Co68 1.989 1_445 S
N85 C84 1.342 . S
N85 N86 1.388 . S
N86 Co69 1.993 1_545 S
N86 N85 1.388 . S
N86 C87 1.346 . S
C87 N86 1.346 . S
C87 C88 1.396 . S
C87 C97 1.510 . S
C88 C84 1.401 . S
C88 C87 1.396 . S
C89 C84 1.499 1_655 S
C89 H90 0.959 . S
C89 H91 0.960 . S
C89 H92 0.961 . S
H90 C89 0.959 . S
H91 C89 0.960 . S
H92 C89 0.961 . S
O93 Co68 1.967 . S
O93 C101 1.258 1_655 S
O94 Co69 1.941 . S
O94 C101 1.266 . S
H95 C97 0.959 . S
H96 C97 0.961 . S
C97 C87 1.510 . S
C97 H95 0.959 . S
C97 H96 0.961 . S
C97 H98 0.960 . S
H98 C97 0.960 . S
H99 N79 0.862 . S
O100 Co68 1.920 . S
O100 C73 1.289 1_565 S
C101 O93 1.258 1_455 S
C101 O94 1.266 . S
Co102 O105 1.970 . S
Co102 N119 1.989 . S
Co102 O127 1.967 . S
Co102 O134 1.920 . S
Co103 O106 1.966 . S
Co103 N112 2.022 . S
Co103 N120 1.993 . S
Co103 O128 1.941 . S
C104 O105 1.258 . S
C104 O106 1.263 . S
O105 Co102 1.970 . S
O105 C104 1.258 . S
O106 Co103 1.966 . S
O106 C104 1.263 . S
C107 O108 1.235 . S
C107 O134 1.289 . S
O108 C107 1.235 . S
C109 C111 1.400 . S
C109 N112 1.351 . S
C109 C114 1.501 . S
C110 C111 1.387 . S
C110 N113 1.341 . S
C111 C109 1.400 . S
C111 C110 1.387 . S
N112 Co103 2.022 . S
N112 C109 1.351 . S
N112 N113 1.365 . S
N113 C110 1.341 . S
N113 N112 1.365 . S
N113 H133 0.862 . S
C114 C109 1.501 . S
C114 H115 0.961 . S
C114 H116 0.961 . S
C114 H117 0.960 . S
H115 C114 0.961 . S
H116 C114 0.961 . S
H117 C114 0.960 . S
C118 N119 1.342 . S
C118 C122 1.401 . S
C118 C123 1.499 . S
N119 Co102 1.989 . S
N119 C118 1.342 . S
N119 N120 1.388 . S
N120 Co103 1.993 . S
N120 N119 1.388 . S
N120 C121 1.346 . S
C121 N120 1.346 . S
C121 C122 1.396 . S
C121 C131 1.510 . S
C122 C118 1.401 . S
C122 C121 1.396 . S
C123 C118 1.499 . S
C123 H124 0.959 . S
C123 H125 0.960 . S
C123 H126 0.961 . S
H124 C123 0.959 . S
H125 C123 0.960 . S
H126 C123 0.961 . S
O127 Co102 1.967 . S
O127 C135 1.258 . S
O128 Co103 1.941 . S
O128 C135 1.266 . S
H129 C131 0.959 . S
H130 C131 0.961 . S
C131 C121 1.510 . S
C131 H129 0.959 . S
C131 H130 0.961 . S
C131 H132 0.960 . S
H132 C131 0.960 . S
H133 N113 0.862 . S
O134 Co102 1.920 . S
O134 C107 1.289 . S
C135 O127 1.258 . S
C135 O128 1.266 . S
Co136 O139 1.970 . S
Co136 N153 1.989 1_565 S
Co136 O161 1.967 . S
Co136 O168 1.920 . S
Co137 O140 1.966 . S
Co137 N146 2.022 . S
Co137 N154 1.993 1_565 S
Co137 O162 1.941 . S
C138 O139 1.258 . S
C138 O140 1.263 . S
O139 Co136 1.970 . S
O139 C138 1.258 . S
O140 Co137 1.966 . S
O140 C138 1.263 . S
C141 O142 1.235 . S
C141 O168 1.289 1_545 S
O142 C141 1.235 . S
C143 C145 1.400 . S
C143 N146 1.351 . S
C143 C148 1.501 1_565 S
C144 C145 1.387 . S
C144 N147 1.341 . S
C145 C143 1.400 . S
C145 C144 1.387 . S
N146 Co137 2.022 . S
N146 C143 1.351 . S
N146 N147 1.365 . S
N147 C144 1.341 . S
N147 N146 1.365 . S
N147 H167 0.862 . S
C148 C143 1.501 1_545 S
C148 H149 0.961 1_545 S
C148 H150 0.961 . S
C148 H151 0.960 1_545 S
H149 C148 0.961 1_565 S
H150 C148 0.961 . S
H151 C148 0.960 1_565 S
C152 N153 1.342 . S
C152 C156 1.401 . S
C152 C157 1.499 . S
N153 Co136 1.989 1_545 S
N153 C152 1.342 . S
N153 N154 1.388 . S
N154 Co137 1.993 1_545 S
N154 N153 1.388 . S
N154 C155 1.346 . S
C155 N154 1.346 . S
C155 C156 1.396 . S
C155 C165 1.510 . S
C156 C152 1.401 . S
C156 C155 1.396 . S
C157 C152 1.499 . S
C157 H158 0.959 . S
C157 H159 0.960 . S
C157 H160 0.961 . S
H158 C157 0.959 . S
H159 C157 0.960 . S
H160 C157 0.961 . S
O161 Co136 1.967 . S
O161 C169 1.258 . S
O162 Co137 1.941 . S
O162 C169 1.266 . S
H163 C165 0.959 . S
H164 C165 0.961 . S
C165 C155 1.510 . S
C165 H163 0.959 . S
C165 H164 0.961 . S
C165 H166 0.960 . S
H166 C165 0.960 . S
H167 N147 0.862 . S
O168 Co136 1.920 . S
O168 C141 1.289 1_565 S
C169 O161 1.258 . S
C169 O162 1.266 . S
Co170 O173 1.970 . S
Co170 N187 1.989 . S
Co170 O195 1.967 . S
Co170 O202 1.920 . S
Co171 O174 1.966 . S
Co171 N180 2.022 . S
Co171 N188 1.993 . S
Co171 O196 1.941 . S
C172 O173 1.258 . S
C172 O174 1.263 . S
O173 Co170 1.970 . S
O173 C172 1.258 . S
O174 Co171 1.966 . S
O174 C172 1.263 . S
C175 O176 1.235 . S
C175 O202 1.289 . S
O176 C175 1.235 . S
C177 C179 1.400 . S
C177 N180 1.351 . S
C177 C182 1.501 . S
C178 C179 1.387 . S
C178 N181 1.341 . S
C179 C177 1.400 . S
C179 C178 1.387 . S
N180 Co171 2.022 . S
N180 C177 1.351 . S
N180 N181 1.365 . S
N181 C178 1.341 . S
N181 N180 1.365 . S
N181 H201 0.862 . S
C182 C177 1.501 . S
C182 H183 0.961 . S
C182 H184 0.961 . S
C182 H185 0.960 . S
H183 C182 0.961 . S
H184 C182 0.961 . S
H185 C182 0.960 . S
C186 N187 1.342 . S
C186 C190 1.401 . S
C186 C191 1.499 . S
N187 Co170 1.989 . S
N187 C186 1.342 . S
N187 N188 1.388 . S
N188 Co171 1.993 . S
N188 N187 1.388 . S
N188 C189 1.346 . S
C189 N188 1.346 . S
C189 C190 1.396 . S
C189 C199 1.510 . S
C190 C186 1.401 . S
C190 C189 1.396 . S
C191 C186 1.499 . S
C191 H192 0.959 . S
C191 H193 0.960 . S
C191 H194 0.961 . S
H192 C191 0.959 . S
H193 C191 0.960 . S
H194 C191 0.961 . S
O195 Co170 1.967 . S
O195 C203 1.258 . S
O196 Co171 1.941 . S
O196 C203 1.266 . S
H197 C199 0.959 . S
H198 C199 0.961 . S
C199 C189 1.510 . S
C199 H197 0.959 . S
C199 H198 0.961 . S
C199 H200 0.960 . S
H200 C199 0.960 . S
H201 N181 0.862 . S
O202 Co170 1.920 . S
O202 C175 1.289 . S
C203 O195 1.258 . S
C203 O196 1.266 . S
Co204 O207 1.970 . S
Co204 N221 1.989 1_645 S
Co204 O229 1.967 . S
Co204 O236 1.920 . S
Co205 O208 1.966 . S
Co205 N214 2.022 . S
Co205 N222 1.993 1_545 S
Co205 O230 1.941 . S
C206 O207 1.258 1_455 S
C206 O208 1.263 . S
O207 Co204 1.970 . S
O207 C206 1.258 1_655 S
O208 Co205 1.966 . S
O208 C206 1.263 . S
C209 O210 1.235 . S
C209 O236 1.289 1_565 S
O210 C209 1.235 . S
C211 C213 1.400 . S
C211 N214 1.351 . S
C211 C216 1.501 1_545 S
C212 C213 1.387 . S
C212 N215 1.341 . S
C213 C211 1.400 . S
C213 C212 1.387 . S
N214 Co205 2.022 . S
N214 C211 1.351 . S
N214 N215 1.365 . S
N215 C212 1.341 . S
N215 N214 1.365 . S
N215 H235 0.862 . S
C216 C211 1.501 1_565 S
C216 H217 0.961 1_565 S
C216 H218 0.961 . S
C216 H219 0.960 1_565 S
H217 C216 0.961 1_545 S
H218 C216 0.961 . S
H219 C216 0.960 1_545 S
C220 N221 1.342 . S
C220 C224 1.401 . S
C220 C225 1.499 1_455 S
N221 Co204 1.989 1_465 S
N221 C220 1.342 . S
N221 N222 1.388 . S
N222 Co205 1.993 1_565 S
N222 N221 1.388 . S
N222 C223 1.346 . S
C223 N222 1.346 . S
C223 C224 1.396 . S
C223 C233 1.510 . S
C224 C220 1.401 . S
C224 C223 1.396 . S
C225 C220 1.499 1_655 S
C225 H226 0.959 . S
C225 H227 0.960 . S
C225 H228 0.961 . S
H226 C225 0.959 . S
H227 C225 0.960 . S
H228 C225 0.961 . S
O229 Co204 1.967 . S
O229 C237 1.258 1_655 S
O230 Co205 1.941 . S
O230 C237 1.266 . S
H231 C233 0.959 . S
H232 C233 0.961 . S
C233 C223 1.510 . S
C233 H231 0.959 . S
C233 H232 0.961 . S
C233 H234 0.960 . S
H234 C233 0.960 . S
H235 N215 0.862 . S
O236 Co204 1.920 . S
O236 C209 1.289 1_545 S
C237 O229 1.258 1_455 S
C237 O230 1.266 . S
Co238 O241 1.970 . S
Co238 N255 1.989 . S
Co238 O263 1.967 . S
Co238 O270 1.920 . S
Co239 O242 1.966 . S
Co239 N248 2.022 . S
Co239 N256 1.993 . S
Co239 O264 1.941 . S
C240 O241 1.258 . S
C240 O242 1.263 . S
O241 Co238 1.970 . S
O241 C240 1.258 . S
O242 Co239 1.966 . S
O242 C240 1.263 . S
C243 O244 1.235 . S
C243 O270 1.289 . S
O244 C243 1.235 . S
C245 C247 1.400 . S
C245 N248 1.351 . S
C245 C250 1.501 . S
C246 C247 1.387 . S
C246 N249 1.341 . S
C247 C245 1.400 . S
C247 C246 1.387 . S
N248 Co239 2.022 . S
N248 C245 1.351 . S
N248 N249 1.365 . S
N249 C246 1.341 . S
N249 N248 1.365 . S
N249 H269 0.862 . S
C250 C245 1.501 . S
C250 H251 0.961 . S
C250 H252 0.961 . S
C250 H253 0.960 . S
H251 C250 0.961 . S
H252 C250 0.961 . S
H253 C250 0.960 . S
C254 N255 1.342 . S
C254 C258 1.401 . S
C254 C259 1.499 . S
N255 Co238 1.989 . S
N255 C254 1.342 . S
N255 N256 1.388 . S
N256 Co239 1.993 . S
N256 N255 1.388 . S
N256 C257 1.346 . S
C257 N256 1.346 . S
C257 C258 1.396 . S
C257 C267 1.510 . S
C258 C254 1.401 . S
C258 C257 1.396 . S
C259 C254 1.499 . S
C259 H260 0.959 . S
C259 H261 0.960 . S
C259 H262 0.961 . S
H260 C259 0.959 . S
H261 C259 0.960 . S
H262 C259 0.961 . S
O263 Co238 1.967 . S
O263 C271 1.258 . S
O264 Co239 1.941 . S
O264 C271 1.266 . S
H265 C267 0.959 . S
H266 C267 0.961 . S
C267 C257 1.510 . S
C267 H265 0.959 . S
C267 H266 0.961 . S
C267 H268 0.960 . S
H268 C267 0.960 . S
H269 N249 0.862 . S
O270 Co238 1.920 . S
O270 C243 1.289 . S
C271 O263 1.258 . S
C271 O264 1.266 . S
Co272 O275 1.970 . S
Co272 N289 1.989 1_565 S
Co272 O297 1.967 . S
Co272 O304 1.920 . S
Co273 O276 1.966 . S
Co273 N282 2.022 . S
Co273 N290 1.993 1_565 S
Co273 O298 1.941 . S
C274 O275 1.258 . S
C274 O276 1.263 . S
O275 Co272 1.970 . S
O275 C274 1.258 . S
O276 Co273 1.966 . S
O276 C274 1.263 . S
C277 O278 1.235 . S
C277 O304 1.289 1_545 S
O278 C277 1.235 . S
C279 C281 1.400 . S
C279 N282 1.351 . S
C279 C284 1.501 1_565 S
C280 C281 1.387 . S
C280 N283 1.341 . S
C281 C279 1.400 . S
C281 C280 1.387 . S
N282 Co273 2.022 . S
N282 C279 1.351 . S
N282 N283 1.365 . S
N283 C280 1.341 . S
N283 N282 1.365 . S
N283 H303 0.862 . S
C284 C279 1.501 1_545 S
C284 H285 0.961 1_545 S
C284 H286 0.961 . S
C284 H287 0.960 1_545 S
H285 C284 0.961 1_565 S
H286 C284 0.961 . S
H287 C284 0.960 1_565 S
C288 N289 1.342 . S
C288 C292 1.401 . S
C288 C293 1.499 . S
N289 Co272 1.989 1_545 S
N289 C288 1.342 . S
N289 N290 1.388 . S
N290 Co273 1.993 1_545 S
N290 N289 1.388 . S
N290 C291 1.346 . S
C291 N290 1.346 . S
C291 C292 1.396 . S
C291 C301 1.510 . S
C292 C288 1.401 . S
C292 C291 1.396 . S
C293 C288 1.499 . S
C293 H294 0.959 . S
C293 H295 0.960 . S
C293 H296 0.961 . S
H294 C293 0.959 . S
H295 C293 0.960 . S
H296 C293 0.961 . S
O297 Co272 1.967 . S
O297 C305 1.258 . S
O298 Co273 1.941 . S
O298 C305 1.266 . S
H299 C301 0.959 . S
H300 C301 0.961 . S
C301 C291 1.510 . S
C301 H299 0.959 . S
C301 H300 0.961 . S
C301 H302 0.960 . S
H302 C301 0.960 . S
H303 N283 0.862 . S
O304 Co272 1.920 . S
O304 C277 1.289 1_565 S
C305 O297 1.258 . S
C305 O298 1.266 . S
Co306 O309 1.970 . S
Co306 N323 1.989 . S
Co306 O331 1.967 . S
Co306 O338 1.920 . S
Co307 O310 1.966 . S
Co307 N316 2.022 . S
Co307 N324 1.993 . S
Co307 O332 1.941 . S
C308 O309 1.258 . S
C308 O310 1.263 . S
O309 Co306 1.970 . S
O309 C308 1.258 . S
O310 Co307 1.966 . S
O310 C308 1.263 . S
C311 O312 1.235 . S
C311 O338 1.289 . S
O312 C311 1.235 . S
C313 C315 1.400 . S
C313 N316 1.351 . S
C313 C318 1.501 . S
C314 C315 1.387 . S
C314 N317 1.341 . S
C315 C313 1.400 . S
C315 C314 1.387 . S
N316 Co307 2.022 . S
N316 C313 1.351 . S
N316 N317 1.365 . S
N317 C314 1.341 . S
N317 N316 1.365 . S
N317 H337 0.862 . S
C318 C313 1.501 . S
C318 H319 0.961 . S
C318 H320 0.961 . S
C318 H321 0.960 . S
H319 C318 0.961 . S
H320 C318 0.961 . S
H321 C318 0.960 . S
C322 N323 1.342 . S
C322 C326 1.401 . S
C322 C327 1.499 . S
N323 Co306 1.989 . S
N323 C322 1.342 . S
N323 N324 1.388 . S
N324 Co307 1.993 . S
N324 N323 1.388 . S
N324 C325 1.346 . S
C325 N324 1.346 . S
C325 C326 1.396 . S
C325 C335 1.510 . S
C326 C322 1.401 . S
C326 C325 1.396 . S
C327 C322 1.499 . S
C327 H328 0.959 . S
C327 H329 0.960 . S
C327 H330 0.961 . S
H328 C327 0.959 . S
H329 C327 0.960 . S
H330 C327 0.961 . S
O331 Co306 1.967 . S
O331 C339 1.258 . S
O332 Co307 1.941 . S
O332 C339 1.266 . S
H333 C335 0.959 . S
H334 C335 0.961 . S
C335 C325 1.510 . S
C335 H333 0.959 . S
C335 H334 0.961 . S
C335 H336 0.960 . S
H336 C335 0.960 . S
H337 N317 0.862 . S
O338 Co306 1.920 . S
O338 C311 1.289 . S
C339 O331 1.258 . S
C339 O332 1.266 . S
Co340 O343 1.970 . S
Co340 N357 1.989 1_445 S
Co340 O365 1.967 . S
Co340 O372 1.920 . S
Co341 O344 1.966 . S
Co341 N350 2.022 . S
Co341 N358 1.993 1_545 S
Co341 O366 1.941 . S
C342 O343 1.258 1_655 S
C342 O344 1.263 . S
O343 Co340 1.970 . S
O343 C342 1.258 1_455 S
O344 Co341 1.966 . S
O344 C342 1.263 . S
C345 O346 1.235 . S
C345 O372 1.289 1_565 S
O346 C345 1.235 . S
C347 C349 1.400 . S
C347 N350 1.351 . S
C347 C352 1.501 1_545 S
C348 C349 1.387 . S
C348 N351 1.341 . S
C349 C347 1.400 . S
C349 C348 1.387 . S
N350 Co341 2.022 . S
N350 C347 1.351 . S
N350 N351 1.365 . S
N351 C348 1.341 . S
N351 N350 1.365 . S
N351 H371 0.862 . S
C352 C347 1.501 1_565 S
C352 H353 0.961 1_565 S
C352 H354 0.961 . S
C352 H355 0.960 1_565 S
H353 C352 0.961 1_545 S
H354 C352 0.961 . S
H355 C352 0.960 1_545 S
C356 N357 1.342 . S
C356 C360 1.401 . S
C356 C361 1.499 1_655 S
N357 Co340 1.989 1_665 S
N357 C356 1.342 . S
N357 N358 1.388 . S
N358 Co341 1.993 1_565 S
N358 N357 1.388 . S
N358 C359 1.346 . S
C359 N358 1.346 . S
C359 C360 1.396 . S
C359 C369 1.510 . S
C360 C356 1.401 . S
C360 C359 1.396 . S
C361 C356 1.499 1_455 S
C361 H362 0.959 . S
C361 H363 0.960 . S
C361 H364 0.961 . S
H362 C361 0.959 . S
H363 C361 0.960 . S
H364 C361 0.961 . S
O365 Co340 1.967 . S
O365 C373 1.258 1_455 S
O366 Co341 1.941 . S
O366 C373 1.266 . S
H367 C369 0.959 . S
H368 C369 0.961 . S
C369 C359 1.510 . S
C369 H367 0.959 . S
C369 H368 0.961 . S
C369 H370 0.960 . S
H370 C369 0.960 . S
H371 N351 0.862 . S
O372 Co340 1.920 . S
O372 C345 1.289 1_545 S
C373 O365 1.258 1_655 S
C373 O366 1.266 . S
Co374 O377 1.970 . S
Co374 N391 1.989 . S
Co374 O399 1.967 . S
Co374 O406 1.920 . S
Co375 O378 1.966 . S
Co375 N384 2.022 . S
Co375 N392 1.993 . S
Co375 O400 1.941 . S
C376 O377 1.258 . S
C376 O378 1.263 . S
O377 Co374 1.970 . S
O377 C376 1.258 . S
O378 Co375 1.966 . S
O378 C376 1.263 . S
C379 O380 1.235 . S
C379 O406 1.289 . S
O380 C379 1.235 . S
C381 C383 1.400 . S
C381 N384 1.351 . S
C381 C386 1.501 . S
C382 C383 1.387 . S
C382 N385 1.341 . S
C383 C381 1.400 . S
C383 C382 1.387 . S
N384 Co375 2.022 . S
N384 C381 1.351 . S
N384 N385 1.365 . S
N385 C382 1.341 . S
N385 N384 1.365 . S
N385 H405 0.862 . S
C386 C381 1.501 . S
C386 H387 0.961 . S
C386 H388 0.961 . S
C386 H389 0.960 . S
H387 C386 0.961 . S
H388 C386 0.961 . S
H389 C386 0.960 . S
C390 N391 1.342 . S
C390 C394 1.401 . S
C390 C395 1.499 . S
N391 Co374 1.989 . S
N391 C390 1.342 . S
N391 N392 1.388 . S
N392 Co375 1.993 . S
N392 N391 1.388 . S
N392 C393 1.346 . S
C393 N392 1.346 . S
C393 C394 1.396 . S
C393 C403 1.510 . S
C394 C390 1.401 . S
C394 C393 1.396 . S
C395 C390 1.499 . S
C395 H396 0.959 . S
C395 H397 0.960 . S
C395 H398 0.961 . S
H396 C395 0.959 . S
H397 C395 0.960 . S
H398 C395 0.961 . S
O399 Co374 1.967 . S
O399 C407 1.258 . S
O400 Co375 1.941 . S
O400 C407 1.266 . S
H401 C403 0.959 . S
H402 C403 0.961 . S
C403 C393 1.510 . S
C403 H401 0.959 . S
C403 H402 0.961 . S
C403 H404 0.960 . S
H404 C403 0.960 . S
H405 N385 0.862 . S
O406 Co374 1.920 . S
O406 C379 1.289 . S
C407 O399 1.258 . S
C407 O400 1.266 . S
Co408 O411 1.970 . S
Co408 N425 1.989 1_545 S
Co408 O433 1.967 . S
Co408 O440 1.920 . S
Co409 O412 1.966 . S
Co409 N418 2.022 . S
Co409 N426 1.993 1_545 S
Co409 O434 1.941 . S
C410 O411 1.258 . S
C410 O412 1.263 . S
O411 Co408 1.970 . S
O411 C410 1.258 . S
O412 Co409 1.966 . S
O412 C410 1.263 . S
C413 O414 1.235 . S
C413 O440 1.289 1_565 S
O414 C413 1.235 . S
C415 C417 1.400 . S
C415 N418 1.351 . S
C415 C420 1.501 1_545 S
C416 C417 1.387 . S
C416 N419 1.341 . S
C417 C415 1.400 . S
C417 C416 1.387 . S
N418 Co409 2.022 . S
N418 C415 1.351 . S
N418 N419 1.365 . S
N419 C416 1.341 . S
N419 N418 1.365 . S
N419 H439 0.862 . S
C420 C415 1.501 1_565 S
C420 H421 0.961 1_565 S
C420 H422 0.961 . S
C420 H423 0.960 1_565 S
H421 C420 0.961 1_545 S
H422 C420 0.961 . S
H423 C420 0.960 1_545 S
C424 N425 1.342 . S
C424 C428 1.401 . S
C424 C429 1.499 . S
N425 Co408 1.989 1_565 S
N425 C424 1.342 . S
N425 N426 1.388 . S
N426 Co409 1.993 1_565 S
N426 N425 1.388 . S
N426 C427 1.346 . S
C427 N426 1.346 . S
C427 C428 1.396 . S
C427 C437 1.510 . S
C428 C424 1.401 . S
C428 C427 1.396 . S
C429 C424 1.499 . S
C429 H430 0.959 . S
C429 H431 0.960 . S
C429 H432 0.961 . S
H430 C429 0.959 . S
H431 C429 0.960 . S
H432 C429 0.961 . S
O433 Co408 1.967 . S
O433 C441 1.258 . S
O434 Co409 1.941 . S
O434 C441 1.266 . S
H435 C437 0.959 . S
H436 C437 0.961 . S
C437 C427 1.510 . S
C437 H435 0.959 . S
C437 H436 0.961 . S
C437 H438 0.960 . S
H438 C437 0.960 . S
H439 N419 0.862 . S
O440 Co408 1.920 . S
O440 C413 1.289 1_545 S
C441 O433 1.258 . S
C441 O434 1.266 . S
Co442 O445 1.970 . S
Co442 N459 1.989 . S
Co442 O467 1.967 . S
Co442 O474 1.920 . S
Co443 O446 1.966 . S
Co443 N452 2.022 . S
Co443 N460 1.993 . S
Co443 O468 1.941 . S
C444 O445 1.258 . S
C444 O446 1.263 . S
O445 Co442 1.970 . S
O445 C444 1.258 . S
O446 Co443 1.966 . S
O446 C444 1.263 . S
C447 O448 1.235 . S
C447 O474 1.289 . S
O448 C447 1.235 . S
C449 C451 1.400 . S
C449 N452 1.351 . S
C449 C454 1.501 . S
C450 C451 1.387 . S
C450 N453 1.341 . S
C451 C449 1.400 . S
C451 C450 1.387 . S
N452 Co443 2.022 . S
N452 C449 1.351 . S
N452 N453 1.365 . S
N453 C450 1.341 . S
N453 N452 1.365 . S
N453 H473 0.862 . S
C454 C449 1.501 . S
C454 H455 0.961 . S
C454 H456 0.961 . S
C454 H457 0.960 . S
H455 C454 0.961 . S
H456 C454 0.961 . S
H457 C454 0.960 . S
C458 N459 1.342 . S
C458 C462 1.401 . S
C458 C463 1.499 . S
N459 Co442 1.989 . S
N459 C458 1.342 . S
N459 N460 1.388 . S
N460 Co443 1.993 . S
N460 N459 1.388 . S
N460 C461 1.346 . S
C461 N460 1.346 . S
C461 C462 1.396 . S
C461 C471 1.510 . S
C462 C458 1.401 . S
C462 C461 1.396 . S
C463 C458 1.499 . S
C463 H464 0.959 . S
C463 H465 0.960 . S
C463 H466 0.961 . S
H464 C463 0.959 . S
H465 C463 0.960 . S
H466 C463 0.961 . S
O467 Co442 1.967 . S
O467 C475 1.258 . S
O468 Co443 1.941 . S
O468 C475 1.266 . S
H469 C471 0.959 . S
H470 C471 0.961 . S
C471 C461 1.510 . S
C471 H469 0.959 . S
C471 H470 0.961 . S
C471 H472 0.960 . S
H472 C471 0.960 . S
H473 N453 0.862 . S
O474 Co442 1.920 . S
O474 C447 1.289 . S
C475 O467 1.258 . S
C475 O468 1.266 . S
Co476 O479 1.970 . S
Co476 N493 1.989 1_465 S
Co476 O501 1.967 . S
Co476 O508 1.920 . S
Co477 O480 1.966 . S
Co477 N486 2.022 . S
Co477 N494 1.993 1_565 S
Co477 O502 1.941 . S
C478 O479 1.258 1_655 S
C478 O480 1.263 . S
O479 Co476 1.970 . S
O479 C478 1.258 1_455 S
O480 Co477 1.966 . S
O480 C478 1.263 . S
C481 O482 1.235 . S
C481 O508 1.289 1_545 S
O482 C481 1.235 . S
C483 C485 1.400 . S
C483 N486 1.351 . S
C483 C488 1.501 1_565 S
C484 C485 1.387 . S
C484 N487 1.341 . S
C485 C483 1.400 . S
C485 C484 1.387 . S
N486 Co477 2.022 . S
N486 C483 1.351 . S
N486 N487 1.365 . S
N487 C484 1.341 . S
N487 N486 1.365 . S
N487 H507 0.862 . S
C488 C483 1.501 1_545 S
C488 H489 0.961 1_545 S
C488 H490 0.961 . S
C488 H491 0.960 1_545 S
H489 C488 0.961 1_565 S
H490 C488 0.961 . S
H491 C488 0.960 1_565 S
C492 N493 1.342 . S
C492 C496 1.401 . S
C492 C497 1.499 1_655 S
N493 Co476 1.989 1_645 S
N493 C492 1.342 . S
N493 N494 1.388 . S
N494 Co477 1.993 1_545 S
N494 N493 1.388 . S
N494 C495 1.346 . S
C495 N494 1.346 . S
C495 C496 1.396 . S
C495 C505 1.510 . S
C496 C492 1.401 . S
C496 C495 1.396 . S
C497 C492 1.499 1_455 S
C497 H498 0.959 . S
C497 H499 0.960 . S
C497 H500 0.961 . S
H498 C497 0.959 . S
H499 C497 0.960 . S
H500 C497 0.961 . S
O501 Co476 1.967 . S
O501 C509 1.258 1_455 S
O502 Co477 1.941 . S
O502 C509 1.266 . S
H503 C505 0.959 . S
H504 C505 0.961 . S
C505 C495 1.510 . S
C505 H503 0.959 . S
C505 H504 0.961 . S
C505 H506 0.960 . S
H506 C505 0.960 . S
H507 N487 0.862 . S
O508 Co476 1.920 . S
O508 C481 1.289 1_565 S
C509 O501 1.258 1_655 S
C509 O502 1.266 . S
Co510 O513 1.970 . S
Co510 N527 1.989 . S
Co510 O535 1.967 . S
Co510 O542 1.920 . S
Co511 O514 1.966 . S
Co511 N520 2.022 . S
Co511 N528 1.993 . S
Co511 O536 1.941 . S
C512 O513 1.258 . S
C512 O514 1.263 . S
O513 Co510 1.970 . S
O513 C512 1.258 . S
O514 Co511 1.966 . S
O514 C512 1.263 . S
C515 O516 1.235 . S
C515 O542 1.289 . S
O516 C515 1.235 . S
C517 C519 1.400 . S
C517 N520 1.351 . S
C517 C522 1.501 . S
C518 C519 1.387 . S
C518 N521 1.341 . S
C519 C517 1.400 . S
C519 C518 1.387 . S
N520 Co511 2.022 . S
N520 C517 1.351 . S
N520 N521 1.365 . S
N521 C518 1.341 . S
N521 N520 1.365 . S
N521 H541 0.862 . S
C522 C517 1.501 . S
C522 H523 0.961 . S
C522 H524 0.961 . S
C522 H525 0.960 . S
H523 C522 0.961 . S
H524 C522 0.961 . S
H525 C522 0.960 . S
C526 N527 1.342 . S
C526 C530 1.401 . S
C526 C531 1.499 . S
N527 Co510 1.989 . S
N527 C526 1.342 . S
N527 N528 1.388 . S
N528 Co511 1.993 . S
N528 N527 1.388 . S
N528 C529 1.346 . S
C529 N528 1.346 . S
C529 C530 1.396 . S
C529 C539 1.510 . S
C530 C526 1.401 . S
C530 C529 1.396 . S
C531 C526 1.499 . S
C531 H532 0.959 . S
C531 H533 0.960 . S
C531 H534 0.961 . S
H532 C531 0.959 . S
H533 C531 0.960 . S
H534 C531 0.961 . S
O535 Co510 1.967 . S
O535 C543 1.258 . S
O536 Co511 1.941 . S
O536 C543 1.266 . S
H537 C539 0.959 . S
H538 C539 0.961 . S
C539 C529 1.510 . S
C539 H537 0.959 . S
C539 H538 0.961 . S
C539 H540 0.960 . S
H540 C539 0.960 . S
H541 N521 0.862 . S
O542 Co510 1.920 . S
O542 C515 1.289 . S
C543 O535 1.258 . S
C543 O536 1.266 . S
Co544 O547 1.970 . S
Co544 N561 1.989 1_455 S
Co544 O569 1.967 . S
Co544 O576 1.920 . S
Co545 O548 1.966 . S
Co545 N554 2.022 . S
Co545 N562 1.993 . S
Co545 O570 1.941 . S
C546 O547 1.258 1_655 S
C546 O548 1.263 . S
O547 Co544 1.970 . S
O547 C546 1.258 1_455 S
O548 Co545 1.966 . S
O548 C546 1.263 . S
C549 O550 1.235 . S
C549 O576 1.289 . S
O550 C549 1.235 . S
C551 C553 1.400 . S
C551 N554 1.351 . S
C551 C556 1.501 . S
C552 C553 1.387 . S
C552 N555 1.341 . S
C553 C551 1.400 . S
C553 C552 1.387 . S
N554 Co545 2.022 . S
N554 C551 1.351 . S
N554 N555 1.365 . S
N555 C552 1.341 . S
N555 N554 1.365 . S
N555 H575 0.862 . S
C556 C551 1.501 . S
C556 H557 0.961 . S
C556 H558 0.961 . S
C556 H559 0.960 . S
H557 C556 0.961 . S
H558 C556 0.961 . S
H559 C556 0.960 . S
C560 N561 1.342 . S
C560 C564 1.401 . S
C560 C565 1.499 1_655 S
N561 Co544 1.989 1_655 S
N561 C560 1.342 . S
N561 N562 1.388 . S
N562 Co545 1.993 . S
N562 N561 1.388 . S
N562 C563 1.346 . S
C563 N562 1.346 . S
C563 C564 1.396 . S
C563 C573 1.510 . S
C564 C560 1.401 . S
C564 C563 1.396 . S
C565 C560 1.499 1_455 S
C565 H566 0.959 . S
C565 H567 0.960 . S
C565 H568 0.961 . S
H566 C565 0.959 . S
H567 C565 0.960 . S
H568 C565 0.961 . S
O569 Co544 1.967 . S
O569 C577 1.258 1_455 S
O570 Co545 1.941 . S
O570 C577 1.266 . S
H571 C573 0.959 . S
H572 C573 0.961 . S
C573 C563 1.510 . S
C573 H571 0.959 . S
C573 H572 0.961 . S
C573 H574 0.960 . S
H574 C573 0.960 . S
H575 N555 0.862 . S
O576 Co544 1.920 . S
O576 C549 1.289 . S
C577 O569 1.258 1_655 S
C577 O570 1.266 . S
Co578 O581 1.970 . S
Co578 N595 1.989 . S
Co578 O603 1.967 . S
Co578 O610 1.920 . S
Co579 O582 1.966 . S
Co579 N588 2.022 . S
Co579 N596 1.993 . S
Co579 O604 1.941 . S
C580 O581 1.258 . S
C580 O582 1.263 . S
O581 Co578 1.970 . S
O581 C580 1.258 . S
O582 Co579 1.966 . S
O582 C580 1.263 . S
C583 O584 1.235 . S
C583 O610 1.289 . S
O584 C583 1.235 . S
C585 C587 1.400 . S
C585 N588 1.351 . S
C585 C590 1.501 . S
C586 C587 1.387 . S
C586 N589 1.341 . S
C587 C585 1.400 . S
C587 C586 1.387 . S
N588 Co579 2.022 . S
N588 C585 1.351 . S
N588 N589 1.365 . S
N589 C586 1.341 . S
N589 N588 1.365 . S
N589 H609 0.862 . S
C590 C585 1.501 . S
C590 H591 0.961 . S
C590 H592 0.961 . S
C590 H593 0.960 . S
H591 C590 0.961 . S
H592 C590 0.961 . S
H593 C590 0.960 . S
C594 N595 1.342 . S
C594 C598 1.401 . S
C594 C599 1.499 . S
N595 Co578 1.989 . S
N595 C594 1.342 . S
N595 N596 1.388 . S
N596 Co579 1.993 . S
N596 N595 1.388 . S
N596 C597 1.346 . S
C597 N596 1.346 . S
C597 C598 1.396 . S
C597 C607 1.510 . S
C598 C594 1.401 . S
C598 C597 1.396 . S
C599 C594 1.499 . S
C599 H600 0.959 . S
C599 H601 0.960 . S
C599 H602 0.961 . S
H600 C599 0.959 . S
H601 C599 0.960 . S
H602 C599 0.961 . S
O603 Co578 1.967 . S
O603 C611 1.258 . S
O604 Co579 1.941 . S
O604 C611 1.266 . S
H605 C607 0.959 . S
H606 C607 0.961 . S
C607 C597 1.510 . S
C607 H605 0.959 . S
C607 H606 0.961 . S
C607 H608 0.960 . S
H608 C607 0.960 . S
H609 N589 0.862 . S
O610 Co578 1.920 . S
O610 C583 1.289 . S
C611 O603 1.258 . S
C611 O604 1.266 . S
Co612 O615 1.970 . S
Co612 N629 1.989 . S
Co612 O637 1.967 . S
Co612 O644 1.920 . S
Co613 O616 1.966 . S
Co613 N622 2.022 . S
Co613 N630 1.993 . S
Co613 O638 1.941 . S
C614 O615 1.258 . S
C614 O616 1.263 . S
O615 Co612 1.970 . S
O615 C614 1.258 . S
O616 Co613 1.966 . S
O616 C614 1.263 . S
C617 O618 1.235 . S
C617 O644 1.289 . S
O618 C617 1.235 . S
C619 C621 1.400 . S
C619 N622 1.351 . S
C619 C624 1.501 . S
C620 C621 1.387 . S
C620 N623 1.341 . S
C621 C619 1.400 . S
C621 C620 1.387 . S
N622 Co613 2.022 . S
N622 C619 1.351 . S
N622 N623 1.365 . S
N623 C620 1.341 . S
N623 N622 1.365 . S
N623 H643 0.862 . S
C624 C619 1.501 . S
C624 H625 0.961 . S
C624 H626 0.961 . S
C624 H627 0.960 . S
H625 C624 0.961 . S
H626 C624 0.961 . S
H627 C624 0.960 . S
C628 N629 1.342 . S
C628 C632 1.401 . S
C628 C633 1.499 . S
N629 Co612 1.989 . S
N629 C628 1.342 . S
N629 N630 1.388 . S
N630 Co613 1.993 . S
N630 N629 1.388 . S
N630 C631 1.346 . S
C631 N630 1.346 . S
C631 C632 1.396 . S
C631 C641 1.510 . S
C632 C628 1.401 . S
C632 C631 1.396 . S
C633 C628 1.499 . S
C633 H634 0.959 . S
C633 H635 0.960 . S
C633 H636 0.961 . S
H634 C633 0.959 . S
H635 C633 0.960 . S
H636 C633 0.961 . S
O637 Co612 1.967 . S
O637 C645 1.258 . S
O638 Co613 1.941 . S
O638 C645 1.266 . S
H639 C641 0.959 . S
H640 C641 0.961 . S
C641 C631 1.510 . S
C641 H639 0.959 . S
C641 H640 0.961 . S
C641 H642 0.960 . S
H642 C641 0.960 . S
H643 N623 0.862 . S
O644 Co612 1.920 . S
O644 C617 1.289 . S
C645 O637 1.258 . S
C645 O638 1.266 . S
Co646 O649 1.970 . S
Co646 N663 1.989 . S
Co646 O671 1.967 . S
Co646 O678 1.920 . S
Co647 O650 1.966 . S
Co647 N656 2.022 . S
Co647 N664 1.993 . S
Co647 O672 1.941 . S
C648 O649 1.258 . S
C648 O650 1.263 . S
O649 Co646 1.970 . S
O649 C648 1.258 . S
O650 Co647 1.966 . S
O650 C648 1.263 . S
C651 O652 1.235 . S
C651 O678 1.289 . S
O652 C651 1.235 . S
C653 C655 1.400 . S
C653 N656 1.351 . S
C653 C658 1.501 . S
C654 C655 1.387 . S
C654 N657 1.341 . S
C655 C653 1.400 . S
C655 C654 1.387 . S
N656 Co647 2.022 . S
N656 C653 1.351 . S
N656 N657 1.365 . S
N657 C654 1.341 . S
N657 N656 1.365 . S
N657 H677 0.862 . S
C658 C653 1.501 . S
C658 H659 0.961 . S
C658 H660 0.961 . S
C658 H661 0.960 . S
H659 C658 0.961 . S
H660 C658 0.961 . S
H661 C658 0.960 . S
C662 N663 1.342 . S
C662 C666 1.401 . S
C662 C667 1.499 . S
N663 Co646 1.989 . S
N663 C662 1.342 . S
N663 N664 1.388 . S
N664 Co647 1.993 . S
N664 N663 1.388 . S
N664 C665 1.346 . S
C665 N664 1.346 . S
C665 C666 1.396 . S
C665 C675 1.510 . S
C666 C662 1.401 . S
C666 C665 1.396 . S
C667 C662 1.499 . S
C667 H668 0.959 . S
C667 H669 0.960 . S
C667 H670 0.961 . S
H668 C667 0.959 . S
H669 C667 0.960 . S
H670 C667 0.961 . S
O671 Co646 1.967 . S
O671 C679 1.258 . S
O672 Co647 1.941 . S
O672 C679 1.266 . S
H673 C675 0.959 . S
H674 C675 0.961 . S
C675 C665 1.510 . S
C675 H673 0.959 . S
C675 H674 0.961 . S
C675 H676 0.960 . S
H676 C675 0.960 . S
H677 N657 0.862 . S
O678 Co646 1.920 . S
O678 C651 1.289 . S
C679 O671 1.258 . S
C679 O672 1.266 . S
Co680 O683 1.970 . S
Co680 N697 1.989 1_455 S
Co680 O705 1.967 . S
Co680 O712 1.920 . S
Co681 O684 1.966 . S
Co681 N690 2.022 . S
Co681 N698 1.993 . S
Co681 O706 1.941 . S
C682 O683 1.258 1_655 S
C682 O684 1.263 . S
O683 Co680 1.970 . S
O683 C682 1.258 1_455 S
O684 Co681 1.966 . S
O684 C682 1.263 . S
C685 O686 1.235 . S
C685 O712 1.289 . S
O686 C685 1.235 . S
C687 C689 1.400 . S
C687 N690 1.351 . S
C687 C692 1.501 . S
C688 C689 1.387 . S
C688 N691 1.341 . S
C689 C687 1.400 . S
C689 C688 1.387 . S
N690 Co681 2.022 . S
N690 C687 1.351 . S
N690 N691 1.365 . S
N691 C688 1.341 . S
N691 N690 1.365 . S
N691 H711 0.862 . S
C692 C687 1.501 . S
C692 H693 0.961 . S
C692 H694 0.961 . S
C692 H695 0.960 . S
H693 C692 0.961 . S
H694 C692 0.961 . S
H695 C692 0.960 . S
C696 N697 1.342 . S
C696 C700 1.401 . S
C696 C701 1.499 1_655 S
N697 Co680 1.989 1_655 S
N697 C696 1.342 . S
N697 N698 1.388 . S
N698 Co681 1.993 . S
N698 N697 1.388 . S
N698 C699 1.346 . S
C699 N698 1.346 . S
C699 C700 1.396 . S
C699 C709 1.510 . S
C700 C696 1.401 . S
C700 C699 1.396 . S
C701 C696 1.499 1_455 S
C701 H702 0.959 . S
C701 H703 0.960 . S
C701 H704 0.961 . S
H702 C701 0.959 . S
H703 C701 0.960 . S
H704 C701 0.961 . S
O705 Co680 1.967 . S
O705 C713 1.258 1_455 S
O706 Co681 1.941 . S
O706 C713 1.266 . S
H707 C709 0.959 . S
H708 C709 0.961 . S
C709 C699 1.510 . S
C709 H707 0.959 . S
C709 H708 0.961 . S
C709 H710 0.960 . S
H710 C709 0.960 . S
H711 N691 0.862 . S
O712 Co680 1.920 . S
O712 C685 1.289 . S
C713 O705 1.258 1_655 S
C713 O706 1.266 . S
Co714 O717 1.970 . S
Co714 N731 1.989 . S
Co714 O739 1.967 . S
Co714 O746 1.920 . S
Co715 O718 1.966 . S
Co715 N724 2.022 . S
Co715 N732 1.993 . S
Co715 O740 1.941 . S
C716 O717 1.258 . S
C716 O718 1.263 . S
O717 Co714 1.970 . S
O717 C716 1.258 . S
O718 Co715 1.966 . S
O718 C716 1.263 . S
C719 O720 1.235 . S
C719 O746 1.289 . S
O720 C719 1.235 . S
C721 C723 1.400 . S
C721 N724 1.351 . S
C721 C726 1.501 . S
C722 C723 1.387 . S
C722 N725 1.341 . S
C723 C721 1.400 . S
C723 C722 1.387 . S
N724 Co715 2.022 . S
N724 C721 1.351 . S
N724 N725 1.365 . S
N725 C722 1.341 . S
N725 N724 1.365 . S
N725 H745 0.862 . S
C726 C721 1.501 . S
C726 H727 0.961 . S
C726 H728 0.961 . S
C726 H729 0.960 . S
H727 C726 0.961 . S
H728 C726 0.961 . S
H729 C726 0.960 . S
C730 N731 1.342 . S
C730 C734 1.401 . S
C730 C735 1.499 . S
N731 Co714 1.989 . S
N731 C730 1.342 . S
N731 N732 1.388 . S
N732 Co715 1.993 . S
N732 N731 1.388 . S
N732 C733 1.346 . S
C733 N732 1.346 . S
C733 C734 1.396 . S
C733 C743 1.510 . S
C734 C730 1.401 . S
C734 C733 1.396 . S
C735 C730 1.499 . S
C735 H736 0.959 . S
C735 H737 0.960 . S
C735 H738 0.961 . S
H736 C735 0.959 . S
H737 C735 0.960 . S
H738 C735 0.961 . S
O739 Co714 1.967 . S
O739 C747 1.258 . S
O740 Co715 1.941 . S
O740 C747 1.266 . S
H741 C743 0.959 . S
H742 C743 0.961 . S
C743 C733 1.510 . S
C743 H741 0.959 . S
C743 H742 0.961 . S
C743 H744 0.960 . S
H744 C743 0.960 . S
H745 N725 0.862 . S
O746 Co714 1.920 . S
O746 C719 1.289 . S
C747 O739 1.258 . S
C747 O740 1.266 . S
Co748 O751 1.970 . S
Co748 N765 1.989 . S
Co748 O773 1.967 . S
Co748 O780 1.920 . S
Co749 O752 1.966 . S
Co749 N758 2.022 . S
Co749 N766 1.993 . S
Co749 O774 1.941 . S
C750 O751 1.258 . S
C750 O752 1.263 . S
O751 Co748 1.970 . S
O751 C750 1.258 . S
O752 Co749 1.966 . S
O752 C750 1.263 . S
C753 O754 1.235 . S
C753 O780 1.289 . S
O754 C753 1.235 . S
C755 C757 1.400 . S
C755 N758 1.351 . S
C755 C760 1.501 . S
C756 C757 1.387 . S
C756 N759 1.341 . S
C757 C755 1.400 . S
C757 C756 1.387 . S
N758 Co749 2.022 . S
N758 C755 1.351 . S
N758 N759 1.365 . S
N759 C756 1.341 . S
N759 N758 1.365 . S
N759 H779 0.862 . S
C760 C755 1.501 . S
C760 H761 0.961 . S
C760 H762 0.961 . S
C760 H763 0.960 . S
H761 C760 0.961 . S
H762 C760 0.961 . S
H763 C760 0.960 . S
C764 N765 1.342 . S
C764 C768 1.401 . S
C764 C769 1.499 . S
N765 Co748 1.989 . S
N765 C764 1.342 . S
N765 N766 1.388 . S
N766 Co749 1.993 . S
N766 N765 1.388 . S
N766 C767 1.346 . S
C767 N766 1.346 . S
C767 C768 1.396 . S
C767 C777 1.510 . S
C768 C764 1.401 . S
C768 C767 1.396 . S
C769 C764 1.499 . S
C769 H770 0.959 . S
C769 H771 0.960 . S
C769 H772 0.961 . S
H770 C769 0.959 . S
H771 C769 0.960 . S
H772 C769 0.961 . S
O773 Co748 1.967 . S
O773 C781 1.258 . S
O774 Co749 1.941 . S
O774 C781 1.266 . S
H775 C777 0.959 . S
H776 C777 0.961 . S
C777 C767 1.510 . S
C777 H775 0.959 . S
C777 H776 0.961 . S
C777 H778 0.960 . S
H778 C777 0.960 . S
H779 N759 0.862 . S
O780 Co748 1.920 . S
O780 C753 1.289 . S
C781 O773 1.258 . S
C781 O774 1.266 . S
Co782 O785 1.970 . S
Co782 N799 1.989 . S
Co782 O807 1.967 . S
Co782 O814 1.920 . S
Co783 O786 1.966 . S
Co783 N792 2.022 . S
Co783 N800 1.993 . S
Co783 O808 1.941 . S
C784 O785 1.258 . S
C784 O786 1.263 . S
O785 Co782 1.970 . S
O785 C784 1.258 . S
O786 Co783 1.966 . S
O786 C784 1.263 . S
C787 O788 1.235 . S
C787 O814 1.289 . S
O788 C787 1.235 . S
C789 C791 1.400 . S
C789 N792 1.351 . S
C789 C794 1.501 . S
C790 C791 1.387 . S
C790 N793 1.341 . S
C791 C789 1.400 . S
C791 C790 1.387 . S
N792 Co783 2.022 . S
N792 C789 1.351 . S
N792 N793 1.365 . S
N793 C790 1.341 . S
N793 N792 1.365 . S
N793 H813 0.862 . S
C794 C789 1.501 . S
C794 H795 0.961 . S
C794 H796 0.961 . S
C794 H797 0.960 . S
H795 C794 0.961 . S
H796 C794 0.961 . S
H797 C794 0.960 . S
C798 N799 1.342 . S
C798 C802 1.401 . S
C798 C803 1.499 . S
N799 Co782 1.989 . S
N799 C798 1.342 . S
N799 N800 1.388 . S
N800 Co783 1.993 . S
N800 N799 1.388 . S
N800 C801 1.346 . S
C801 N800 1.346 . S
C801 C802 1.396 . S
C801 C811 1.510 . S
C802 C798 1.401 . S
C802 C801 1.396 . S
C803 C798 1.499 . S
C803 H804 0.959 . S
C803 H805 0.960 . S
C803 H806 0.961 . S
H804 C803 0.959 . S
H805 C803 0.960 . S
H806 C803 0.961 . S
O807 Co782 1.967 . S
O807 C815 1.258 . S
O808 Co783 1.941 . S
O808 C815 1.266 . S
H809 C811 0.959 . S
H810 C811 0.961 . S
C811 C801 1.510 . S
C811 H809 0.959 . S
C811 H810 0.961 . S
C811 H812 0.960 . S
H812 C811 0.960 . S
H813 N793 0.862 . S
O814 Co782 1.920 . S
O814 C787 1.289 . S
C815 O807 1.258 . S
C815 O808 1.266 . S
Co816 O819 1.970 . S
Co816 N833 1.989 1_655 S
Co816 O841 1.967 . S
Co816 O848 1.920 . S
Co817 O820 1.966 . S
Co817 N826 2.022 . S
Co817 N834 1.993 . S
Co817 O842 1.941 . S
C818 O819 1.258 1_455 S
C818 O820 1.263 . S
O819 Co816 1.970 . S
O819 C818 1.258 1_655 S
O820 Co817 1.966 . S
O820 C818 1.263 . S
C821 O822 1.235 . S
C821 O848 1.289 . S
O822 C821 1.235 . S
C823 C825 1.400 . S
C823 N826 1.351 . S
C823 C828 1.501 . S
C824 C825 1.387 . S
C824 N827 1.341 . S
C825 C823 1.400 . S
C825 C824 1.387 . S
N826 Co817 2.022 . S
N826 C823 1.351 . S
N826 N827 1.365 . S
N827 C824 1.341 . S
N827 N826 1.365 . S
N827 H847 0.862 . S
C828 C823 1.501 . S
C828 H829 0.961 . S
C828 H830 0.961 . S
C828 H831 0.960 . S
H829 C828 0.961 . S
H830 C828 0.961 . S
H831 C828 0.960 . S
C832 N833 1.342 . S
C832 C836 1.401 . S
C832 C837 1.499 1_455 S
N833 Co816 1.989 1_455 S
N833 C832 1.342 . S
N833 N834 1.388 . S
N834 Co817 1.993 . S
N834 N833 1.388 . S
N834 C835 1.346 . S
C835 N834 1.346 . S
C835 C836 1.396 . S
C835 C845 1.510 . S
C836 C832 1.401 . S
C836 C835 1.396 . S
C837 C832 1.499 1_655 S
C837 H838 0.959 . S
C837 H839 0.960 . S
C837 H840 0.961 . S
H838 C837 0.959 . S
H839 C837 0.960 . S
H840 C837 0.961 . S
O841 Co816 1.967 . S
O841 C849 1.258 1_655 S
O842 Co817 1.941 . S
O842 C849 1.266 . S
H843 C845 0.959 . S
H844 C845 0.961 . S
C845 C835 1.510 . S
C845 H843 0.959 . S
C845 H844 0.961 . S
C845 H846 0.960 . S
H846 C845 0.960 . S
H847 N827 0.862 . S
O848 Co816 1.920 . S
O848 C821 1.289 . S
C849 O841 1.258 1_455 S
C849 O842 1.266 . S
Co850 O853 1.970 . S
Co850 N867 1.989 . S
Co850 O875 1.967 . S
Co850 O882 1.920 . S
Co851 O854 1.966 . S
Co851 N860 2.022 . S
Co851 N868 1.993 . S
Co851 O876 1.941 . S
C852 O853 1.258 . S
C852 O854 1.263 . S
O853 Co850 1.970 . S
O853 C852 1.258 . S
O854 Co851 1.966 . S
O854 C852 1.263 . S
C855 O856 1.235 . S
C855 O882 1.289 . S
O856 C855 1.235 . S
C857 C859 1.400 . S
C857 N860 1.351 . S
C857 C862 1.501 . S
C858 C859 1.387 . S
C858 N861 1.341 . S
C859 C857 1.400 . S
C859 C858 1.387 . S
N860 Co851 2.022 . S
N860 C857 1.351 . S
N860 N861 1.365 . S
N861 C858 1.341 . S
N861 N860 1.365 . S
N861 H881 0.862 . S
C862 C857 1.501 . S
C862 H863 0.961 . S
C862 H864 0.961 . S
C862 H865 0.960 . S
H863 C862 0.961 . S
H864 C862 0.961 . S
H865 C862 0.960 . S
C866 N867 1.342 . S
C866 C870 1.401 . S
C866 C871 1.499 . S
N867 Co850 1.989 . S
N867 C866 1.342 . S
N867 N868 1.388 . S
N868 Co851 1.993 . S
N868 N867 1.388 . S
N868 C869 1.346 . S
C869 N868 1.346 . S
C869 C870 1.396 . S
C869 C879 1.510 . S
C870 C866 1.401 . S
C870 C869 1.396 . S
C871 C866 1.499 . S
C871 H872 0.959 . S
C871 H873 0.960 . S
C871 H874 0.961 . S
H872 C871 0.959 . S
H873 C871 0.960 . S
H874 C871 0.961 . S
O875 Co850 1.967 . S
O875 C883 1.258 . S
O876 Co851 1.941 . S
O876 C883 1.266 . S
H877 C879 0.959 . S
H878 C879 0.961 . S
C879 C869 1.510 . S
C879 H877 0.959 . S
C879 H878 0.961 . S
C879 H880 0.960 . S
H880 C879 0.960 . S
H881 N861 0.862 . S
O882 Co850 1.920 . S
O882 C855 1.289 . S
C883 O875 1.258 . S
C883 O876 1.266 . S
Co884 O887 1.970 . S
Co884 N901 1.989 . S
Co884 O909 1.967 . S
Co884 O916 1.920 . S
Co885 O888 1.966 . S
Co885 N894 2.022 . S
Co885 N902 1.993 . S
Co885 O910 1.941 . S
C886 O887 1.258 . S
C886 O888 1.263 . S
O887 Co884 1.970 . S
O887 C886 1.258 . S
O888 Co885 1.966 . S
O888 C886 1.263 . S
C889 O890 1.235 . S
C889 O916 1.289 . S
O890 C889 1.235 . S
C891 C893 1.400 . S
C891 N894 1.351 . S
C891 C896 1.501 . S
C892 C893 1.387 . S
C892 N895 1.341 . S
C893 C891 1.400 . S
C893 C892 1.387 . S
N894 Co885 2.022 . S
N894 C891 1.351 . S
N894 N895 1.365 . S
N895 C892 1.341 . S
N895 N894 1.365 . S
N895 H915 0.862 . S
C896 C891 1.501 . S
C896 H897 0.961 . S
C896 H898 0.961 . S
C896 H899 0.960 . S
H897 C896 0.961 . S
H898 C896 0.961 . S
H899 C896 0.960 . S
C900 N901 1.342 . S
C900 C904 1.401 . S
C900 C905 1.499 . S
N901 Co884 1.989 . S
N901 C900 1.342 . S
N901 N902 1.388 . S
N902 Co885 1.993 . S
N902 N901 1.388 . S
N902 C903 1.346 . S
C903 N902 1.346 . S
C903 C904 1.396 . S
C903 C913 1.510 . S
C904 C900 1.401 . S
C904 C903 1.396 . S
C905 C900 1.499 . S
C905 H906 0.959 . S
C905 H907 0.960 . S
C905 H908 0.961 . S
H906 C905 0.959 . S
H907 C905 0.960 . S
H908 C905 0.961 . S
O909 Co884 1.967 . S
O909 C917 1.258 . S
O910 Co885 1.941 . S
O910 C917 1.266 . S
H911 C913 0.959 . S
H912 C913 0.961 . S
C913 C903 1.510 . S
C913 H911 0.959 . S
C913 H912 0.961 . S
C913 H914 0.960 . S
H914 C913 0.960 . S
H915 N895 0.862 . S
O916 Co884 1.920 . S
O916 C889 1.289 . S
C917 O909 1.258 . S
C917 O910 1.266 . S
Co918 O921 1.970 . S
Co918 N935 1.989 . S
Co918 O943 1.967 . S
Co918 O950 1.920 . S
Co919 O922 1.966 . S
Co919 N928 2.022 . S
Co919 N936 1.993 . S
Co919 O944 1.941 . S
C920 O921 1.258 . S
C920 O922 1.263 . S
O921 Co918 1.970 . S
O921 C920 1.258 . S
O922 Co919 1.966 . S
O922 C920 1.263 . S
C923 O924 1.235 . S
C923 O950 1.289 . S
O924 C923 1.235 . S
C925 C927 1.400 . S
C925 N928 1.351 . S
C925 C930 1.501 . S
C926 C927 1.387 . S
C926 N929 1.341 . S
C927 C925 1.400 . S
C927 C926 1.387 . S
N928 Co919 2.022 . S
N928 C925 1.351 . S
N928 N929 1.365 . S
N929 C926 1.341 . S
N929 N928 1.365 . S
N929 H949 0.862 . S
C930 C925 1.501 . S
C930 H931 0.961 . S
C930 H932 0.961 . S
C930 H933 0.960 . S
H931 C930 0.961 . S
H932 C930 0.961 . S
H933 C930 0.960 . S
C934 N935 1.342 . S
C934 C938 1.401 . S
C934 C939 1.499 . S
N935 Co918 1.989 . S
N935 C934 1.342 . S
N935 N936 1.388 . S
N936 Co919 1.993 . S
N936 N935 1.388 . S
N936 C937 1.346 . S
C937 N936 1.346 . S
C937 C938 1.396 . S
C937 C947 1.510 . S
C938 C934 1.401 . S
C938 C937 1.396 . S
C939 C934 1.499 . S
C939 H940 0.959 . S
C939 H941 0.960 . S
C939 H942 0.961 . S
H940 C939 0.959 . S
H941 C939 0.960 . S
H942 C939 0.961 . S
O943 Co918 1.967 . S
O943 C951 1.258 . S
O944 Co919 1.941 . S
O944 C951 1.266 . S
H945 C947 0.959 . S
H946 C947 0.961 . S
C947 C937 1.510 . S
C947 H945 0.959 . S
C947 H946 0.961 . S
C947 H948 0.960 . S
H948 C947 0.960 . S
H949 N929 0.862 . S
O950 Co918 1.920 . S
O950 C923 1.289 . S
C951 O943 1.258 . S
C951 O944 1.266 . S
Co952 O955 1.970 . S
Co952 N969 1.989 1_655 S
Co952 O977 1.967 . S
Co952 O984 1.920 . S
Co953 O956 1.966 . S
Co953 N962 2.022 . S
Co953 N970 1.993 . S
Co953 O978 1.941 . S
C954 O955 1.258 1_455 S
C954 O956 1.263 . S
O955 Co952 1.970 . S
O955 C954 1.258 1_655 S
O956 Co953 1.966 . S
O956 C954 1.263 . S
C957 O958 1.235 . S
C957 O984 1.289 . S
O958 C957 1.235 . S
C959 C961 1.400 . S
C959 N962 1.351 . S
C959 C964 1.501 . S
C960 C961 1.387 . S
C960 N963 1.341 . S
C961 C959 1.400 . S
C961 C960 1.387 . S
N962 Co953 2.022 . S
N962 C959 1.351 . S
N962 N963 1.365 . S
N963 C960 1.341 . S
N963 N962 1.365 . S
N963 H983 0.862 . S
C964 C959 1.501 . S
C964 H965 0.961 . S
C964 H966 0.961 . S
C964 H967 0.960 . S
H965 C964 0.961 . S
H966 C964 0.961 . S
H967 C964 0.960 . S
C968 N969 1.342 . S
C968 C972 1.401 . S
C968 C973 1.499 1_455 S
N969 Co952 1.989 1_455 S
N969 C968 1.342 . S
N969 N970 1.388 . S
N970 Co953 1.993 . S
N970 N969 1.388 . S
N970 C971 1.346 . S
C971 N970 1.346 . S
C971 C972 1.396 . S
C971 C981 1.510 . S
C972 C968 1.401 . S
C972 C971 1.396 . S
C973 C968 1.499 1_655 S
C973 H974 0.959 . S
C973 H975 0.960 . S
C973 H976 0.961 . S
H974 C973 0.959 . S
H975 C973 0.960 . S
H976 C973 0.961 . S
O977 Co952 1.967 . S
O977 C985 1.258 1_655 S
O978 Co953 1.941 . S
O978 C985 1.266 . S
H979 C981 0.959 . S
H980 C981 0.961 . S
C981 C971 1.510 . S
C981 H979 0.959 . S
C981 H980 0.961 . S
C981 H982 0.960 . S
H982 C981 0.960 . S
H983 N963 0.862 . S
O984 Co952 1.920 . S
O984 C957 1.289 . S
C985 O977 1.258 1_455 S
C985 O978 1.266 . S
Co986 O989 1.970 . S
Co986 N1003 1.989 . S
Co986 O1011 1.967 . S
Co986 O1018 1.920 . S
Co987 O990 1.966 . S
Co987 N996 2.022 . S
Co987 N1004 1.993 . S
Co987 O1012 1.941 . S
C988 O989 1.258 . S
C988 O990 1.263 . S
O989 Co986 1.970 . S
O989 C988 1.258 . S
O990 Co987 1.966 . S
O990 C988 1.263 . S
C991 O992 1.235 . S
C991 O1018 1.289 . S
O992 C991 1.235 . S
C993 C995 1.400 . S
C993 N996 1.351 . S
C993 C998 1.501 . S
C994 C995 1.387 . S
C994 N997 1.341 . S
C995 C993 1.400 . S
C995 C994 1.387 . S
N996 Co987 2.022 . S
N996 C993 1.351 . S
N996 N997 1.365 . S
N997 C994 1.341 . S
N997 N996 1.365 . S
N997 H1017 0.862 . S
C998 C993 1.501 . S
C998 H999 0.961 . S
C998 H1000 0.961 . S
C998 H1001 0.960 . S
H999 C998 0.961 . S
H1000 C998 0.961 . S
H1001 C998 0.960 . S
C1002 N1003 1.342 . S
C1002 C1006 1.401 . S
C1002 C1007 1.499 . S
N1003 Co986 1.989 . S
N1003 C1002 1.342 . S
N1003 N1004 1.388 . S
N1004 Co987 1.993 . S
N1004 N1003 1.388 . S
N1004 C1005 1.346 . S
C1005 N1004 1.346 . S
C1005 C1006 1.396 . S
C1005 C1015 1.510 . S
C1006 C1002 1.401 . S
C1006 C1005 1.396 . S
C1007 C1002 1.499 . S
C1007 H1008 0.959 . S
C1007 H1009 0.960 . S
C1007 H1010 0.961 . S
H1008 C1007 0.959 . S
H1009 C1007 0.960 . S
H1010 C1007 0.961 . S
O1011 Co986 1.967 . S
O1011 C1019 1.258 . S
O1012 Co987 1.941 . S
O1012 C1019 1.266 . S
H1013 C1015 0.959 . S
H1014 C1015 0.961 . S
C1015 C1005 1.510 . S
C1015 H1013 0.959 . S
C1015 H1014 0.961 . S
C1015 H1016 0.960 . S
H1016 C1015 0.960 . S
H1017 N997 0.862 . S
O1018 Co986 1.920 . S
O1018 C991 1.289 . S
C1019 O1011 1.258 . S
C1019 O1012 1.266 . S
Co1020 O1023 1.970 . S
Co1020 N1037 1.989 . S
Co1020 O1045 1.967 . S
Co1020 O1052 1.920 . S
Co1021 O1024 1.966 . S
Co1021 N1030 2.022 . S
Co1021 N1038 1.993 . S
Co1021 O1046 1.941 . S
C1022 O1023 1.258 . S
C1022 O1024 1.263 . S
O1023 Co1020 1.970 . S
O1023 C1022 1.258 . S
O1024 Co1021 1.966 . S
O1024 C1022 1.263 . S
C1025 O1026 1.235 . S
C1025 O1052 1.289 . S
O1026 C1025 1.235 . S
C1027 C1029 1.400 . S
C1027 N1030 1.351 . S
C1027 C1032 1.501 . S
C1028 C1029 1.387 . S
C1028 N1031 1.341 . S
C1029 C1027 1.400 . S
C1029 C1028 1.387 . S
N1030 Co1021 2.022 . S
N1030 C1027 1.351 . S
N1030 N1031 1.365 . S
N1031 C1028 1.341 . S
N1031 N1030 1.365 . S
N1031 H1051 0.862 . S
C1032 C1027 1.501 . S
C1032 H1033 0.961 . S
C1032 H1034 0.961 . S
C1032 H1035 0.960 . S
H1033 C1032 0.961 . S
H1034 C1032 0.961 . S
H1035 C1032 0.960 . S
C1036 N1037 1.342 . S
C1036 C1040 1.401 . S
C1036 C1041 1.499 . S
N1037 Co1020 1.989 . S
N1037 C1036 1.342 . S
N1037 N1038 1.388 . S
N1038 Co1021 1.993 . S
N1038 N1037 1.388 . S
N1038 C1039 1.346 . S
C1039 N1038 1.346 . S
C1039 C1040 1.396 . S
C1039 C1049 1.510 . S
C1040 C1036 1.401 . S
C1040 C1039 1.396 . S
C1041 C1036 1.499 . S
C1041 H1042 0.959 . S
C1041 H1043 0.960 . S
C1041 H1044 0.961 . S
H1042 C1041 0.959 . S
H1043 C1041 0.960 . S
H1044 C1041 0.961 . S
O1045 Co1020 1.967 . S
O1045 C1053 1.258 . S
O1046 Co1021 1.941 . S
O1046 C1053 1.266 . S
H1047 C1049 0.959 . S
H1048 C1049 0.961 . S
C1049 C1039 1.510 . S
C1049 H1047 0.959 . S
C1049 H1048 0.961 . S
C1049 H1050 0.960 . S
H1050 C1049 0.960 . S
H1051 N1031 0.862 . S
O1052 Co1020 1.920 . S
O1052 C1025 1.289 . S
C1053 O1045 1.258 . S
C1053 O1046 1.266 . S
Co1054 O1057 1.970 . S
Co1054 N1071 1.989 . S
Co1054 O1079 1.967 . S
Co1054 O1086 1.920 . S
Co1055 O1058 1.966 . S
Co1055 N1064 2.022 . S
Co1055 N1072 1.993 . S
Co1055 O1080 1.941 . S
C1056 O1057 1.258 . S
C1056 O1058 1.263 . S
O1057 Co1054 1.970 . S
O1057 C1056 1.258 . S
O1058 Co1055 1.966 . S
O1058 C1056 1.263 . S
C1059 O1060 1.235 . S
C1059 O1086 1.289 . S
O1060 C1059 1.235 . S
C1061 C1063 1.400 . S
C1061 N1064 1.351 . S
C1061 C1066 1.501 . S
C1062 C1063 1.387 . S
C1062 N1065 1.341 . S
C1063 C1061 1.400 . S
C1063 C1062 1.387 . S
N1064 Co1055 2.022 . S
N1064 C1061 1.351 . S
N1064 N1065 1.365 . S
N1065 C1062 1.341 . S
N1065 N1064 1.365 . S
N1065 H1085 0.862 . S
C1066 C1061 1.501 . S
C1066 H1067 0.961 . S
C1066 H1068 0.961 . S
C1066 H1069 0.960 . S
H1067 C1066 0.961 . S
H1068 C1066 0.961 . S
H1069 C1066 0.960 . S
C1070 N1071 1.342 . S
C1070 C1074 1.401 . S
C1070 C1075 1.499 . S
N1071 Co1054 1.989 . S
N1071 C1070 1.342 . S
N1071 N1072 1.388 . S
N1072 Co1055 1.993 . S
N1072 N1071 1.388 . S
N1072 C1073 1.346 . S
C1073 N1072 1.346 . S
C1073 C1074 1.396 . S
C1073 C1083 1.510 . S
C1074 C1070 1.401 . S
C1074 C1073 1.396 . S
C1075 C1070 1.499 . S
C1075 H1076 0.959 . S
C1075 H1077 0.960 . S
C1075 H1078 0.961 . S
H1076 C1075 0.959 . S
H1077 C1075 0.960 . S
H1078 C1075 0.961 . S
O1079 Co1054 1.967 . S
O1079 C1087 1.258 . S
O1080 Co1055 1.941 . S
O1080 C1087 1.266 . S
H1081 C1083 0.959 . S
H1082 C1083 0.961 . S
C1083 C1073 1.510 . S
C1083 H1081 0.959 . S
C1083 H1082 0.961 . S
C1083 H1084 0.960 . S
H1084 C1083 0.960 . S
H1085 N1065 0.862 . S
O1086 Co1054 1.920 . S
O1086 C1059 1.289 . S
C1087 O1079 1.258 . S
C1087 O1080 1.266 . S
C1088 C1089 1.369 . S
C1088 C1090 1.419 1_554 S
C1088 H1092 0.930 . S
C1089 C1088 1.369 . S
C1089 C1098 1.429 1_545 S
C1090 C1088 1.419 1_556 S
C1090 C1091 1.363 1_545 S
C1090 H1093 0.929 . S
C1091 C1090 1.363 1_565 S
C1091 C1097 1.428 . S
H1092 C1088 0.930 . S
H1093 C1090 0.929 . S
S1094 N1095 1.646 . S
S1094 N1096 1.577 1_554 S
N1095 S1094 1.646 . S
N1095 C1098 1.350 . S
N1096 S1094 1.577 1_556 S
N1096 C1097 1.351 . S
C1097 C1091 1.428 . S
C1097 N1096 1.351 . S
C1097 C1098 1.434 1_556 S
C1098 C1089 1.429 1_565 S
C1098 N1095 1.350 . S
C1098 C1097 1.434 1_554 S
C1099 C1100 1.369 . S
C1099 C1101 1.419 . S
C1099 H1103 0.930 . S
C1100 C1099 1.369 . S
C1100 C1109 1.429 . S
C1101 C1099 1.419 . S
C1101 C1102 1.363 . S
C1101 H1104 0.929 . S
C1102 C1101 1.363 . S
C1102 C1108 1.428 . S
H1103 C1099 0.930 . S
H1104 C1101 0.929 . S
S1105 N1106 1.613 . S
S1105 N1107 1.610 . S
N1106 S1105 1.613 . S
N1106 C1109 1.350 . S
N1107 S1105 1.610 . S
N1107 C1108 1.351 . S
C1108 C1102 1.428 . S
C1108 N1107 1.351 . S
C1108 C1109 1.434 . S
C1109 C1100 1.429 . S
C1109 N1106 1.350 . S
C1109 C1108 1.434 . S
C1110 C1111 1.369 1_455 S
C1110 C1112 1.419 1_545 S
C1110 H1114 0.930 . S
C1111 C1110 1.369 1_655 S
C1111 C1120 1.429 . S
C1112 C1110 1.419 1_565 S
C1112 C1113 1.363 . S
C1112 H1115 0.929 . S
C1113 C1112 1.363 . S
C1113 C1119 1.430 1_455 S
H1114 C1110 0.930 . S
H1115 C1112 0.929 . S
S1116 N1117 1.613 . S
S1116 N1118 1.610 . S
N1117 S1116 1.613 . S
N1117 C1120 1.350 . S
N1118 S1116 1.610 . S
N1118 C1119 1.351 1_545 S
C1119 C1113 1.430 1_655 S
C1119 N1118 1.351 1_565 S
C1119 C1120 1.433 1_565 S
C1120 C1111 1.429 . S
C1120 N1117 1.350 . S
C1120 C1119 1.433 1_545 S
C1121 C1122 1.369 . S
C1121 C1123 1.419 . S
C1121 H1125 0.930 . S
C1122 C1121 1.369 . S
C1122 C1131 1.429 . S
C1123 C1121 1.419 . S
C1123 C1124 1.363 . S
C1123 H1126 0.929 . S
C1124 C1123 1.363 . S
C1124 C1130 1.428 . S
H1125 C1121 0.930 . S
H1126 C1123 0.929 . S
S1127 N1128 1.613 . S
S1127 N1129 1.610 . S
N1128 S1127 1.613 . S
N1128 C1131 1.350 . S
N1129 S1127 1.610 . S
N1129 C1130 1.351 . S
C1130 C1124 1.428 . S
C1130 N1129 1.351 . S
C1130 C1131 1.434 . S
C1131 C1122 1.429 . S
C1131 N1128 1.350 . S
C1131 C1130 1.434 . S
C1132 C1133 1.369 1_565 S
C1132 C1134 1.419 . S
C1132 H1136 0.930 . S
C1133 C1132 1.369 1_545 S
C1133 C1142 1.429 . S
C1134 C1132 1.419 . S
C1134 C1135 1.363 . S
C1134 H1137 0.929 . S
C1135 C1134 1.363 . S
C1135 C1141 1.428 1_565 S
H1136 C1132 0.930 . S
H1137 C1134 0.929 . S
S1138 N1139 1.613 . S
S1138 N1140 1.610 . S
N1139 S1138 1.613 . S
N1139 C1142 1.350 . S
N1140 S1138 1.610 . S
N1140 C1141 1.351 . S
C1141 C1135 1.428 1_545 S
C1141 N1140 1.351 . S
C1141 C1142 1.434 . S
C1142 C1133 1.429 . S
C1142 N1139 1.350 . S
C1142 C1141 1.434 . S
C1143 C1144 1.369 . S
C1143 C1145 1.419 . S
C1143 H1147 0.930 . S
C1144 C1143 1.369 . S
C1144 C1153 1.429 . S
C1145 C1143 1.419 . S
C1145 C1146 1.363 . S
C1145 H1148 0.929 . S
C1146 C1145 1.363 . S
C1146 C1152 1.428 . S
H1147 C1143 0.930 . S
H1148 C1145 0.929 . S
S1149 N1150 1.613 . S
S1149 N1151 1.610 . S
N1150 S1149 1.613 . S
N1150 C1153 1.350 . S
N1151 S1149 1.610 . S
N1151 C1152 1.351 . S
C1152 C1146 1.428 . S
C1152 N1151 1.351 . S
C1152 C1153 1.434 . S
C1153 C1144 1.429 . S
C1153 N1150 1.350 . S
C1153 C1152 1.434 . S
C1154 C1155 1.369 . S
C1154 C1156 1.419 1_554 S
C1154 H1158 0.930 . S
C1155 C1154 1.369 . S
C1155 C1164 1.429 1_665 S
C1156 C1154 1.419 1_556 S
C1156 C1157 1.363 1_665 S
C1156 H1159 0.929 . S
C1157 C1156 1.363 1_445 S
C1157 C1163 1.428 . S
H1158 C1154 0.930 . S
H1159 C1156 0.929 . S
S1160 N1161 1.613 . S
S1160 N1162 1.610 1_554 S
N1161 S1160 1.613 . S
N1161 C1164 1.350 . S
N1162 S1160 1.610 1_556 S
N1162 C1163 1.351 . S
C1163 C1157 1.428 . S
C1163 N1162 1.351 . S
C1163 C1164 1.434 1_556 S
C1164 C1155 1.429 1_445 S
C1164 N1161 1.350 . S
C1164 C1163 1.434 1_554 S
C1165 C1166 1.369 . S
C1165 C1167 1.419 . S
C1165 H1169 0.930 . S
C1166 C1165 1.369 . S
C1166 C1175 1.429 . S
C1167 C1165 1.419 . S
C1167 C1168 1.363 . S
C1167 H1170 0.929 . S
C1168 C1167 1.363 . S
C1168 C1174 1.428 . S
H1169 C1165 0.930 . S
H1170 C1167 0.929 . S
S1171 N1172 1.613 . S
S1171 N1173 1.610 . S
N1172 S1171 1.613 . S
N1172 C1175 1.350 . S
N1173 S1171 1.610 . S
N1173 C1174 1.351 . S
C1174 C1168 1.428 . S
C1174 N1173 1.351 . S
C1174 C1175 1.434 . S
C1175 C1166 1.429 . S
C1175 N1172 1.350 . S
C1175 C1174 1.434 . S
C1176 C1177 1.369 . S
C1176 C1178 1.419 . S
C1176 H1180 0.930 . S
C1177 C1176 1.369 . S
C1177 C1186 1.429 . S
C1178 C1176 1.419 . S
C1178 C1179 1.363 . S
C1178 H1181 0.929 . S
C1179 C1178 1.363 . S
C1179 C1185 1.428 . S
H1180 C1176 0.930 . S
H1181 C1178 0.929 . S
S1182 N1183 1.613 . S
S1182 N1184 1.610 . S
N1183 S1182 1.613 . S
N1183 C1186 1.350 . S
N1184 S1182 1.610 . S
N1184 C1185 1.351 . S
C1185 C1179 1.428 . S
C1185 N1184 1.351 . S
C1185 C1186 1.434 . S
C1186 C1177 1.429 . S
C1186 N1183 1.350 . S
C1186 C1185 1.434 . S
C1187 C1188 1.369 . S
C1187 C1189 1.419 . S
C1187 H1191 0.930 . S
C1188 C1187 1.369 . S
C1188 C1197 1.429 . S
C1189 C1187 1.419 . S
C1189 C1190 1.363 . S
C1189 H1192 0.929 . S
C1190 C1189 1.363 . S
C1190 C1196 1.428 . S
H1191 C1187 0.930 . S
H1192 C1189 0.929 . S
S1193 N1194 1.613 . S
S1193 N1195 1.610 . S
N1194 S1193 1.613 . S
N1194 C1197 1.350 . S
N1195 S1193 1.610 . S
N1195 C1196 1.351 . S
C1196 C1190 1.428 . S
C1196 N1195 1.351 . S
C1196 C1197 1.434 . S
C1197 C1188 1.429 . S
C1197 N1194 1.350 . S
C1197 C1196 1.434 . S
C1198 C1199 1.369 . S
C1198 C1200 1.419 . S
C1198 H1202 0.930 . S
C1199 C1198 1.369 . S
C1199 C1208 1.429 . S
C1200 C1198 1.419 . S
C1200 C1201 1.363 . S
C1200 H1203 0.929 . S
C1201 C1200 1.363 . S
C1201 C1207 1.428 . S
H1202 C1198 0.930 . S
H1203 C1200 0.929 . S
S1204 N1205 1.613 . S
S1204 N1206 1.610 . S
N1205 S1204 1.613 . S
N1205 C1208 1.350 . S
N1206 S1204 1.610 . S
N1206 C1207 1.351 . S
C1207 C1201 1.428 . S
C1207 N1206 1.351 . S
C1207 C1208 1.434 . S
C1208 C1199 1.429 . S
C1208 N1205 1.350 . S
C1208 C1207 1.434 . S
C1209 C1210 1.369 . S
C1209 C1211 1.419 . S
C1209 H1213 0.930 . S
C1210 C1209 1.369 . S
C1210 C1219 1.429 . S
C1211 C1209 1.419 . S
C1211 C1212 1.363 . S
C1211 H1214 0.929 . S
C1212 C1211 1.363 . S
C1212 C1218 1.428 . S
H1213 C1209 0.930 . S
H1214 C1211 0.929 . S
S1215 N1216 1.613 . S
S1215 N1217 1.610 . S
N1216 S1215 1.613 . S
N1216 C1219 1.350 . S
N1217 S1215 1.610 . S
N1217 C1218 1.351 . S
C1218 C1212 1.428 . S
C1218 N1217 1.351 . S
C1218 C1219 1.434 . S
C1219 C1210 1.429 . S
C1219 N1216 1.350 . S
C1219 C1218 1.434 . S
C1220 C1221 1.369 . S
C1220 C1222 1.419 . S
C1220 H1224 0.930 . S
C1221 C1220 1.369 . S
C1221 C1230 1.429 1_655 S
C1222 C1220 1.419 . S
C1222 C1223 1.363 1_655 S
C1222 H1225 0.929 . S
C1223 C1222 1.363 1_455 S
C1223 C1229 1.428 . S
H1224 C1220 0.930 . S
H1225 C1222 0.929 . S
S1226 N1227 1.613 . S
S1226 N1228 1.610 . S
N1227 S1226 1.613 . S
N1227 C1230 1.350 . S
N1228 S1226 1.610 . S
N1228 C1229 1.351 . S
C1229 C1223 1.428 . S
C1229 N1228 1.351 . S
C1229 C1230 1.434 . S
C1230 C1221 1.429 1_455 S
C1230 N1227 1.350 . S
C1230 C1229 1.434 . S
C1231 C1232 1.369 . S
C1231 C1233 1.419 1_556 S
C1231 H1235 0.930 . S
C1232 C1231 1.369 . S
C1232 C1241 1.429 . S
C1233 C1231 1.419 1_554 S
C1233 C1234 1.363 . S
C1233 H1236 0.929 . S
C1234 C1233 1.363 . S
C1234 C1240 1.428 . S
H1235 C1231 0.930 . S
H1236 C1233 0.929 . S
S1237 N1238 1.613 . S
S1237 N1239 1.610 1_556 S
N1238 S1237 1.613 . S
N1238 C1241 1.350 . S
N1239 S1237 1.610 1_554 S
N1239 C1240 1.351 . S
C1240 C1234 1.428 . S
C1240 N1239 1.351 . S
C1240 C1241 1.434 1_554 S
C1241 C1232 1.429 . S
C1241 N1238 1.350 . S
C1241 C1240 1.434 1_556 S
C1242 C1243 1.369 . S
C1242 C1244 1.419 1_554 S
C1242 H1246 0.930 . S
C1243 C1242 1.369 . S
C1243 C1252 1.429 1_455 S
C1244 C1242 1.419 1_556 S
C1244 C1245 1.363 1_455 S
C1244 H1247 0.929 . S
C1245 C1244 1.363 1_655 S
C1245 C1251 1.428 . S
H1246 C1242 0.930 . S
H1247 C1244 0.929 . S
S1248 N1249 1.609 1_556 S
S1248 N1250 1.615 . S
N1249 S1248 1.609 1_554 S
N1249 C1252 1.350 . S
N1250 S1248 1.615 . S
N1250 C1251 1.351 . S
C1251 C1245 1.428 . S
C1251 N1250 1.351 . S
C1251 C1252 1.434 1_556 S
C1252 C1243 1.429 1_655 S
C1252 N1249 1.350 . S
C1252 C1251 1.434 1_554 S
C1253 C1254 1.369 . S
C1253 C1255 1.419 . S
C1253 H1257 0.930 . S
C1254 C1253 1.369 . S
C1254 C1263 1.429 . S
C1255 C1253 1.419 . S
C1255 C1256 1.363 . S
C1255 H1258 0.929 . S
C1256 C1255 1.363 . S
C1256 C1262 1.428 . S
H1257 C1253 0.930 . S
H1258 C1255 0.929 . S
S1259 N1260 1.613 . S
S1259 N1261 1.610 . S
N1260 S1259 1.613 . S
N1260 C1263 1.350 . S
N1261 S1259 1.610 . S
N1261 C1262 1.351 . S
C1262 C1256 1.428 . S
C1262 N1261 1.351 . S
C1262 C1263 1.434 . S
C1263 C1254 1.429 . S
C1263 N1260 1.350 . S
C1263 C1262 1.434 . S
C1264 C1265 1.369 . S
C1264 C1266 1.419 . S
C1264 H1268 0.930 . S
C1265 C1264 1.369 . S
C1265 C1274 1.429 1_565 S
C1266 C1264 1.419 . S
C1266 C1267 1.363 . S
C1266 H1269 0.929 . S
C1267 C1266 1.363 . S
C1267 C1273 1.428 1_565 S
H1268 C1264 0.930 . S
H1269 C1266 0.929 . S
S1270 N1271 1.613 . S
S1270 N1272 1.610 . S
N1271 S1270 1.613 . S
N1271 C1274 1.350 . S
N1272 S1270 1.610 . S
N1272 C1273 1.351 . S
C1273 C1267 1.428 1_545 S
C1273 N1272 1.351 . S
C1273 C1274 1.434 . S
C1274 C1265 1.429 1_545 S
C1274 N1271 1.350 . S
C1274 C1273 1.434 . S
C1275 C1276 1.369 . S
C1275 C1277 1.419 . S
C1275 H1279 0.930 . S
C1276 C1275 1.369 . S
C1276 C1285 1.429 . S
C1277 C1275 1.419 . S
C1277 C1278 1.363 . S
C1277 H1280 0.929 . S
C1278 C1277 1.363 . S
C1278 C1284 1.428 . S
H1279 C1275 0.930 . S
H1280 C1277 0.929 . S
S1281 N1282 1.613 . S
S1281 N1283 1.610 . S
N1282 S1281 1.613 . S
N1282 C1285 1.350 . S
N1283 S1281 1.610 . S
N1283 C1284 1.351 . S
C1284 C1278 1.428 . S
C1284 N1283 1.351 . S
C1284 C1285 1.434 . S
C1285 C1276 1.429 . S
C1285 N1282 1.350 . S
C1285 C1284 1.434 . S
C1286 C1287 1.369 . S
C1286 C1288 1.419 . S
C1286 H1290 0.930 . S
C1287 C1286 1.369 . S
C1287 C1296 1.429 1_545 S
C1288 C1286 1.419 . S
C1288 C1289 1.363 . S
C1288 H1291 0.929 . S
C1289 C1288 1.363 . S
C1289 C1295 1.428 1_545 S
H1290 C1286 0.930 . S
H1291 C1288 0.929 . S
S1292 N1293 1.613 . S
S1292 N1294 1.610 . S
N1293 S1292 1.613 . S
N1293 C1296 1.350 . S
N1294 S1292 1.610 . S
N1294 C1295 1.351 . S
C1295 C1289 1.428 1_565 S
C1295 N1294 1.351 . S
C1295 C1296 1.434 . S
C1296 C1287 1.429 1_565 S
C1296 N1293 1.350 . S
C1296 C1295 1.434 . S
C1297 C1298 1.369 . S
C1297 C1299 1.419 . S
C1297 H1301 0.930 . S
C1298 C1297 1.369 . S
C1298 C1307 1.429 . S
C1299 C1297 1.419 . S
C1299 C1300 1.363 . S
C1299 H1302 0.929 . S
C1300 C1299 1.363 . S
C1300 C1306 1.428 . S
H1301 C1297 0.930 . S
H1302 C1299 0.929 . S
S1303 N1304 1.613 . S
S1303 N1305 1.610 . S
N1304 S1303 1.613 . S
N1304 C1307 1.350 . S
N1305 S1303 1.610 . S
N1305 C1306 1.351 . S
C1306 C1300 1.428 . S
C1306 N1305 1.351 . S
C1306 C1307 1.434 . S
C1307 C1298 1.429 . S
C1307 N1304 1.350 . S
C1307 C1306 1.434 . S
C1308 C1309 1.369 . S
C1308 C1310 1.419 . S
C1308 H1312 0.930 . S
C1309 C1308 1.369 . S
C1309 C1318 1.429 1_545 S
C1310 C1308 1.419 . S
C1310 C1311 1.363 . S
C1310 H1313 0.929 . S
C1311 C1310 1.363 . S
C1311 C1317 1.428 1_545 S
H1312 C1308 0.930 . S
H1313 C1310 0.929 . S
S1314 N1315 1.613 . S
S1314 N1316 1.610 . S
N1315 S1314 1.613 . S
N1315 C1318 1.350 . S
N1316 S1314 1.610 . S
N1316 C1317 1.351 . S
C1317 C1311 1.428 1_565 S
C1317 N1316 1.351 . S
C1317 C1318 1.434 . S
C1318 C1309 1.429 1_565 S
C1318 N1315 1.350 . S
C1318 C1317 1.434 . S
C1319 C1320 1.369 . S
C1319 C1321 1.419 . S
C1319 H1323 0.930 . S
C1320 C1319 1.369 . S
C1320 C1329 1.429 . S
C1321 C1319 1.419 . S
C1321 C1322 1.363 . S
C1321 H1324 0.929 . S
C1322 C1321 1.363 . S
C1322 C1328 1.428 . S
H1323 C1319 0.930 . S
H1324 C1321 0.929 . S
S1325 N1326 1.613 . S
S1325 N1327 1.610 . S
N1326 S1325 1.613 . S
N1326 C1329 1.350 . S
N1327 S1325 1.610 . S
N1327 C1328 1.351 . S
C1328 C1322 1.428 . S
C1328 N1327 1.351 . S
C1328 C1329 1.434 . S
C1329 C1320 1.429 . S
C1329 N1326 1.350 . S
C1329 C1328 1.434 . S
C1330 C1331 1.369 . S
C1330 C1332 1.419 . S
C1330 H1334 0.930 . S
C1331 C1330 1.369 . S
C1331 C1340 1.429 1_565 S
C1332 C1330 1.419 . S
C1332 C1333 1.363 . S
C1332 H1335 0.929 . S
C1333 C1332 1.363 . S
C1333 C1339 1.428 1_565 S
H1334 C1330 0.930 . S
H1335 C1332 0.929 . S
S1336 N1337 1.613 . S
S1336 N1338 1.610 . S
N1337 S1336 1.613 . S
N1337 C1340 1.350 . S
N1338 S1336 1.610 . S
N1338 C1339 1.351 . S
C1339 C1333 1.428 1_545 S
C1339 N1338 1.351 . S
C1339 C1340 1.434 . S
C1340 C1331 1.429 1_545 S
C1340 N1337 1.350 . S
C1340 C1339 1.434 . S
C1341 C1342 1.369 . S
C1341 C1343 1.419 . S
C1341 H1345 0.930 . S
C1342 C1341 1.369 . S
C1342 C1351 1.429 . S
C1343 C1341 1.419 . S
C1343 C1344 1.363 . S
C1343 H1346 0.929 . S
C1344 C1343 1.363 . S
C1344 C1350 1.428 . S
H1345 C1341 0.930 . S
H1346 C1343 0.929 . S
S1347 N1348 1.613 . S
S1347 N1349 1.610 . S
N1348 S1347 1.613 . S
N1348 C1351 1.350 . S
N1349 S1347 1.610 . S
N1349 C1350 1.351 . S
C1350 C1344 1.428 . S
C1350 N1349 1.351 . S
C1350 C1351 1.434 . S
C1351 C1342 1.429 . S
C1351 N1348 1.350 . S
C1351 C1350 1.434 . S
C1352 C1353 1.377 . S
C1352 C1354 1.417 1_545 S
C1352 H1356 0.924 1_545 S
C1353 C1352 1.377 . S
C1353 C1362 1.429 . S
C1354 C1352 1.417 1_565 S
C1354 C1355 1.363 1_565 S
C1354 H1357 0.929 . S
C1355 C1354 1.363 1_545 S
C1355 C1361 1.428 . S
H1356 C1352 0.924 1_565 S
H1357 C1354 0.929 . S
S1358 N1359 1.613 . S
S1358 N1360 1.610 . S
N1359 S1358 1.613 . S
N1359 C1362 1.350 . S
N1360 S1358 1.610 . S
N1360 C1361 1.351 . S
C1361 C1355 1.428 . S
C1361 N1360 1.351 . S
C1361 C1362 1.434 . S
C1362 C1353 1.429 . S
C1362 N1359 1.350 . S
C1362 C1361 1.434 . S
C1363 C1364 1.369 . S
C1363 C1365 1.419 . S
C1363 H1367 0.930 . S
C1364 C1363 1.369 . S
C1364 C1373 1.429 . S
C1365 C1363 1.419 . S
C1365 C1366 1.363 . S
C1365 H1368 0.929 . S
C1366 C1365 1.363 . S
C1366 C1372 1.428 . S
H1367 C1363 0.930 . S
H1368 C1365 0.929 . S
S1369 N1370 1.613 . S
S1369 N1371 1.610 . S
N1370 S1369 1.613 . S
N1370 C1373 1.350 . S
N1371 S1369 1.610 . S
N1371 C1372 1.351 . S
C1372 C1366 1.428 . S
C1372 N1371 1.351 . S
C1372 C1373 1.434 . S
C1373 C1364 1.429 . S
C1373 N1370 1.350 . S
C1373 C1372 1.434 . S
C1374 C1375 1.369 1_545 S
C1374 C1376 1.419 . S
C1374 H1378 0.930 . S
C1375 C1374 1.369 1_565 S
C1375 C1384 1.429 . S
C1376 C1374 1.419 . S
C1376 C1377 1.363 1_545 S
C1376 H1379 0.929 . S
C1377 C1376 1.363 1_565 S
C1377 C1383 1.428 . S
H1378 C1374 0.930 . S
H1379 C1376 0.929 . S
S1380 N1381 1.613 . S
S1380 N1382 1.610 . S
N1381 S1380 1.613 . S
N1381 C1384 1.350 . S
N1382 S1380 1.610 . S
N1382 C1383 1.351 . S
C1383 C1377 1.428 . S
C1383 N1382 1.351 . S
C1383 C1384 1.434 . S
C1384 C1375 1.429 . S
C1384 N1381 1.350 . S
C1384 C1383 1.434 . S
C1385 C1386 1.369 . S
C1385 C1387 1.419 . S
C1385 H1389 0.930 . S
C1386 C1385 1.369 . S
C1386 C1395 1.429 . S
C1387 C1385 1.419 . S
C1387 C1388 1.363 . S
C1387 H1390 0.929 . S
C1388 C1387 1.363 . S
C1388 C1394 1.428 . S
H1389 C1385 0.930 . S
H1390 C1387 0.929 . S
S1391 N1392 1.613 . S
S1391 N1393 1.610 . S
N1392 S1391 1.613 . S
N1392 C1395 1.350 . S
N1393 S1391 1.610 . S
N1393 C1394 1.351 . S
C1394 C1388 1.428 . S
C1394 N1393 1.351 . S
C1394 C1395 1.434 . S
C1395 C1386 1.429 . S
C1395 N1392 1.350 . S
C1395 C1394 1.434 . S
C1396 C1397 1.369 1_545 S
C1396 C1398 1.419 . S
C1396 H1400 0.930 . S
C1397 C1396 1.369 1_565 S
C1397 C1406 1.429 . S
C1398 C1396 1.419 . S
C1398 C1399 1.363 1_545 S
C1398 H1401 0.929 . S
C1399 C1398 1.363 1_565 S
C1399 C1405 1.428 . S
H1400 C1396 0.930 . S
H1401 C1398 0.929 . S
S1402 N1403 1.613 . S
S1402 N1404 1.610 . S
N1403 S1402 1.613 . S
N1403 C1406 1.350 . S
N1404 S1402 1.610 . S
N1404 C1405 1.351 . S
C1405 C1399 1.428 . S
C1405 N1404 1.351 . S
C1405 C1406 1.434 . S
C1406 C1397 1.429 . S
C1406 N1403 1.350 . S
C1406 C1405 1.434 . S
C1407 C1408 1.369 . S
C1407 C1409 1.419 . S
C1407 H1411 0.930 . S
C1408 C1407 1.369 . S
C1408 C1417 1.429 . S
C1409 C1407 1.419 . S
C1409 C1410 1.363 . S
C1409 H1412 0.929 . S
C1410 C1409 1.363 . S
C1410 C1416 1.428 . S
H1411 C1407 0.930 . S
H1412 C1409 0.929 . S
S1413 N1414 1.613 . S
S1413 N1415 1.610 . S
N1414 S1413 1.613 . S
N1414 C1417 1.350 . S
N1415 S1413 1.610 . S
N1415 C1416 1.351 . S
C1416 C1410 1.428 . S
C1416 N1415 1.351 . S
C1416 C1417 1.434 . S
C1417 C1408 1.429 . S
C1417 N1414 1.350 . S
C1417 C1416 1.434 . S
C1418 C1419 1.369 . S
C1418 C1420 1.419 . S
C1418 H1422 0.930 . S
C1419 C1418 1.369 . S
C1419 C1428 1.429 . S
C1420 C1418 1.419 . S
C1420 C1421 1.363 . S
C1420 H1423 0.929 . S
C1421 C1420 1.363 . S
C1421 C1427 1.428 . S
H1422 C1418 0.930 . S
H1423 C1420 0.929 . S
S1424 N1425 1.613 . S
S1424 N1426 1.610 . S
N1425 S1424 1.613 . S
N1425 C1428 1.350 . S
N1426 S1424 1.610 . S
N1426 C1427 1.351 . S
C1427 C1421 1.428 . S
C1427 N1426 1.351 . S
C1427 C1428 1.434 . S
C1428 C1419 1.429 . S
C1428 N1425 1.350 . S
C1428 C1427 1.434 . S
C1429 C1430 1.369 . S
C1429 C1431 1.419 . S
C1429 H1433 0.930 . S
C1430 C1429 1.369 . S
C1430 C1439 1.429 . S
C1431 C1429 1.419 . S
C1431 C1432 1.363 . S
C1431 H1434 0.929 . S
C1432 C1431 1.363 . S
C1432 C1438 1.428 . S
H1433 C1429 0.930 . S
H1434 C1431 0.929 . S
S1435 N1436 1.613 . S
S1435 N1437 1.610 . S
N1436 S1435 1.613 . S
N1436 C1439 1.350 . S
N1437 S1435 1.610 . S
N1437 C1438 1.351 . S
C1438 C1432 1.428 . S
C1438 N1437 1.351 . S
C1438 C1439 1.434 . S
C1439 C1430 1.429 . S
C1439 N1436 1.350 . S
C1439 C1438 1.434 . S
C1440 C1441 1.369 . S
C1440 C1442 1.419 . S
C1440 H1444 0.930 . S
C1441 C1440 1.369 . S
C1441 C1450 1.429 . S
C1442 C1440 1.419 . S
C1442 C1443 1.363 . S
C1442 H1445 0.929 . S
C1443 C1442 1.363 . S
C1443 C1449 1.428 . S
H1444 C1440 0.930 . S
H1445 C1442 0.929 . S
S1446 N1447 1.613 . S
S1446 N1448 1.610 . S
N1447 S1446 1.613 . S
N1447 C1450 1.350 . S
N1448 S1446 1.610 . S
N1448 C1449 1.351 . S
C1449 C1443 1.428 . S
C1449 N1448 1.351 . S
C1449 C1450 1.434 . S
C1450 C1441 1.429 . S
C1450 N1447 1.350 . S
C1450 C1449 1.434 . S
C1451 C1452 1.369 . S
C1451 C1453 1.419 . S
C1451 H1455 0.930 . S
C1452 C1451 1.369 . S
C1452 C1461 1.429 . S
C1453 C1451 1.419 . S
C1453 C1454 1.363 . S
C1453 H1456 0.929 . S
C1454 C1453 1.363 . S
C1454 C1460 1.428 . S
H1455 C1451 0.930 . S
H1456 C1453 0.929 . S
S1457 N1458 1.613 . S
S1457 N1459 1.610 . S
N1458 S1457 1.613 . S
N1458 C1461 1.350 . S
N1459 S1457 1.610 . S
N1459 C1460 1.351 . S
C1460 C1454 1.428 . S
C1460 N1459 1.351 . S
C1460 C1461 1.434 . S
C1461 C1452 1.429 . S
C1461 N1458 1.350 . S
C1461 C1460 1.434 . S
C1462 C1463 1.369 . S
C1462 C1464 1.419 . S
C1462 H1466 0.930 . S
C1463 C1462 1.369 . S
C1463 C1472 1.429 . S
C1464 C1462 1.419 . S
C1464 C1465 1.363 . S
C1464 H1467 0.929 . S
C1465 C1464 1.363 . S
C1465 C1471 1.428 . S
H1466 C1462 0.930 . S
H1467 C1464 0.929 . S
S1468 N1469 1.613 . S
S1468 N1470 1.610 . S
N1469 S1468 1.613 . S
N1469 C1472 1.350 . S
N1470 S1468 1.610 . S
N1470 C1471 1.351 . S
C1471 C1465 1.428 . S
C1471 N1470 1.351 . S
C1471 C1472 1.434 . S
C1472 C1463 1.429 . S
C1472 N1469 1.350 . S
C1472 C1471 1.434 . S
C1473 C1474 1.369 . S
C1473 C1475 1.419 . S
C1473 H1477 0.930 . S
C1474 C1473 1.369 . S
C1474 C1483 1.429 . S
C1475 C1473 1.419 . S
C1475 C1476 1.363 . S
C1475 H1478 0.929 . S
C1476 C1475 1.363 . S
C1476 C1482 1.428 . S
H1477 C1473 0.930 . S
H1478 C1475 0.929 . S
S1479 N1480 1.613 . S
S1479 N1481 1.610 . S
N1480 S1479 1.613 . S
N1480 C1483 1.350 . S
N1481 S1479 1.610 . S
N1481 C1482 1.351 . S
C1482 C1476 1.428 . S
C1482 N1481 1.351 . S
C1482 C1483 1.434 . S
C1483 C1474 1.429 . S
C1483 N1480 1.350 . S
C1483 C1482 1.434 . S
C1484 C1485 1.369 . S
C1484 C1486 1.419 . S
C1484 H1488 0.930 . S
C1485 C1484 1.369 . S
C1485 C1494 1.429 . S
C1486 C1484 1.419 . S
C1486 C1487 1.363 . S
C1486 H1489 0.929 . S
C1487 C1486 1.363 . S
C1487 C1493 1.428 . S
H1488 C1484 0.930 . S
H1489 C1486 0.929 . S
S1490 N1491 1.613 . S
S1490 N1492 1.610 . S
N1491 S1490 1.613 . S
N1491 C1494 1.350 . S
N1492 S1490 1.610 . S
N1492 C1493 1.351 . S
C1493 C1487 1.428 . S
C1493 N1492 1.351 . S
C1493 C1494 1.434 . S
C1494 C1485 1.429 . S
C1494 N1491 1.350 . S
C1494 C1493 1.434 . S
C1495 C1496 1.369 . S
C1495 C1497 1.419 . S
C1495 H1499 0.930 . S
C1496 C1495 1.369 . S
C1496 C1505 1.429 . S
C1497 C1495 1.419 . S
C1497 C1498 1.363 . S
C1497 H1500 0.929 . S
C1498 C1497 1.363 . S
C1498 C1504 1.428 . S
H1499 C1495 0.930 . S
H1500 C1497 0.929 . S
S1501 N1502 1.613 . S
S1501 N1503 1.610 . S
N1502 S1501 1.613 . S
N1502 C1505 1.350 . S
N1503 S1501 1.610 . S
N1503 C1504 1.351 . S
C1504 C1498 1.428 . S
C1504 N1503 1.351 . S
C1504 C1505 1.434 . S
C1505 C1496 1.429 . S
C1505 N1502 1.350 . S
C1505 C1504 1.434 . S
C1506 C1507 1.369 . S
C1506 C1508 1.419 . S
C1506 H1510 0.930 . S
C1507 C1506 1.369 . S
C1507 C1516 1.429 . S
C1508 C1506 1.419 . S
C1508 C1509 1.363 . S
C1508 H1511 0.929 . S
C1509 C1508 1.363 . S
C1509 C1515 1.428 . S
H1510 C1506 0.930 . S
H1511 C1508 0.929 . S
S1512 N1513 1.613 . S
S1512 N1514 1.610 . S
N1513 S1512 1.613 . S
N1513 C1516 1.350 . S
N1514 S1512 1.610 . S
N1514 C1515 1.351 . S
C1515 C1509 1.428 . S
C1515 N1514 1.351 . S
C1515 C1516 1.434 . S
C1516 C1507 1.429 . S
C1516 N1513 1.350 . S
C1516 C1515 1.434 . S
C1517 C1518 1.369 . S
C1517 C1519 1.419 . S
C1517 H1521 0.930 . S
C1518 C1517 1.369 . S
C1518 C1527 1.429 . S
C1519 C1517 1.419 . S
C1519 C1520 1.363 . S
C1519 H1522 0.929 . S
C1520 C1519 1.363 . S
C1520 C1526 1.428 . S
H1521 C1517 0.930 . S
H1522 C1519 0.929 . S
S1523 N1524 1.613 1_565 S
S1523 N1525 1.610 . S
N1524 S1523 1.613 1_545 S
N1524 C1527 1.350 . S
N1525 S1523 1.610 . S
N1525 C1526 1.351 1_565 S
C1526 C1520 1.428 . S
C1526 N1525 1.351 1_545 S
C1526 C1527 1.434 . S
C1527 C1518 1.429 . S
C1527 N1524 1.350 . S
C1527 C1526 1.434 . S
C1528 C1529 1.369 . S
C1528 C1530 1.419 . S
C1528 H1532 0.930 . S
C1529 C1528 1.369 . S
C1529 C1538 1.429 . S
C1530 C1528 1.419 . S
C1530 C1531 1.363 . S
C1530 H1533 0.929 . S
C1531 C1530 1.363 . S
C1531 C1537 1.428 . S
H1532 C1528 0.930 . S
H1533 C1530 0.929 . S
S1534 N1535 1.613 . S
S1534 N1536 1.610 . S
N1535 S1534 1.613 . S
N1535 C1538 1.350 . S
N1536 S1534 1.610 . S
N1536 C1537 1.351 . S
C1537 C1531 1.428 . S
C1537 N1536 1.351 . S
C1537 C1538 1.434 . S
C1538 C1529 1.429 . S
C1538 N1535 1.350 . S
C1538 C1537 1.434 . S
C1539 C1540 1.369 . S
C1539 C1541 1.419 . S
C1539 H1543 0.930 . S
C1540 C1539 1.369 . S
C1540 C1549 1.429 . S
C1541 C1539 1.419 . S
C1541 C1542 1.363 . S
C1541 H1544 0.929 . S
C1542 C1541 1.363 . S
C1542 C1548 1.428 . S
H1543 C1539 0.930 . S
H1544 C1541 0.929 . S
S1545 N1546 1.613 . S
S1545 N1547 1.610 . S
N1546 S1545 1.613 . S
N1546 C1549 1.350 . S
N1547 S1545 1.610 . S
N1547 C1548 1.351 . S
C1548 C1542 1.428 . S
C1548 N1547 1.351 . S
C1548 C1549 1.434 . S
C1549 C1540 1.429 . S
C1549 N1546 1.350 . S
C1549 C1548 1.434 . S
C1550 C1551 1.369 . S
C1550 C1552 1.419 . S
C1550 H1554 0.930 . S
C1551 C1550 1.369 . S
C1551 C1560 1.429 . S
C1552 C1550 1.419 . S
C1552 C1553 1.363 . S
C1552 H1555 0.929 . S
C1553 C1552 1.363 . S
C1553 C1559 1.428 . S
H1554 C1550 0.930 . S
H1555 C1552 0.929 . S
S1556 N1557 1.613 . S
S1556 N1558 1.610 . S
N1557 S1556 1.613 . S
N1557 C1560 1.350 . S
N1558 S1556 1.610 . S
N1558 C1559 1.351 . S
C1559 C1553 1.428 . S
C1559 N1558 1.351 . S
C1559 C1560 1.434 . S
C1560 C1551 1.429 . S
C1560 N1557 1.350 . S
C1560 C1559 1.434 . S
C1561 C1562 1.369 . S
C1561 C1563 1.419 . S
C1561 H1565 0.930 . S
C1562 C1561 1.369 . S
C1562 C1571 1.429 . S
C1563 C1561 1.419 . S
C1563 C1564 1.363 . S
C1563 H1566 0.929 . S
C1564 C1563 1.363 . S
C1564 C1570 1.428 . S
H1565 C1561 0.930 . S
H1566 C1563 0.929 . S
S1567 N1568 1.632 . S
S1567 N1569 1.604 1_565 S
N1568 S1567 1.632 . S
N1568 C1571 1.350 . S
N1569 S1567 1.604 1_545 S
N1569 C1570 1.351 1_545 S
C1570 C1564 1.428 . S
C1570 N1569 1.351 1_565 S
C1570 C1571 1.434 . S
C1571 C1562 1.429 . S
C1571 N1568 1.350 . S
C1571 C1570 1.434 . S
C1572 C1573 1.369 . S
C1572 C1574 1.419 . S
C1572 H1576 0.930 . S
C1573 C1572 1.369 . S
C1573 C1582 1.429 . S
C1574 C1572 1.419 . S
C1574 C1575 1.363 . S
C1574 H1577 0.929 . S
C1575 C1574 1.363 . S
C1575 C1581 1.428 . S
H1576 C1572 0.930 . S
H1577 C1574 0.929 . S
S1578 N1579 1.613 . S
S1578 N1580 1.610 . S
N1579 S1578 1.613 . S
N1579 C1582 1.350 . S
N1580 S1578 1.610 . S
N1580 C1581 1.351 . S
C1581 C1575 1.428 . S
C1581 N1580 1.351 . S
C1581 C1582 1.434 . S
C1582 C1573 1.429 . S
C1582 N1579 1.350 . S
C1582 C1581 1.434 . S
C1583 C1584 1.369 . S
C1583 C1585 1.419 . S
C1583 H1587 0.930 . S
C1584 C1583 1.369 . S
C1584 C1593 1.429 . S
C1585 C1583 1.419 . S
C1585 C1586 1.363 . S
C1585 H1588 0.929 . S
C1586 C1585 1.363 . S
C1586 C1592 1.428 . S
H1587 C1583 0.930 . S
H1588 C1585 0.929 . S
S1589 N1590 1.613 . S
S1589 N1591 1.610 . S
N1590 S1589 1.613 . S
N1590 C1593 1.350 . S
N1591 S1589 1.610 . S
N1591 C1592 1.351 . S
C1592 C1586 1.428 . S
C1592 N1591 1.351 . S
C1592 C1593 1.434 . S
C1593 C1584 1.429 . S
C1593 N1590 1.350 . S
C1593 C1592 1.434 . S
C1594 C1595 1.369 . S
C1594 C1596 1.419 . S
C1594 H1598 0.930 . S
C1595 C1594 1.369 . S
C1595 C1604 1.429 . S
C1596 C1594 1.419 . S
C1596 C1597 1.363 . S
C1596 H1599 0.929 . S
C1597 C1596 1.363 . S
C1597 C1603 1.428 . S
H1598 C1594 0.930 . S
H1599 C1596 0.929 . S
S1600 N1601 1.613 . S
S1600 N1602 1.610 . S
N1601 S1600 1.613 . S
N1601 C1604 1.350 . S
N1602 S1600 1.610 . S
N1602 C1603 1.351 . S
C1603 C1597 1.428 . S
C1603 N1602 1.351 . S
C1603 C1604 1.434 . S
C1604 C1595 1.429 . S
C1604 N1601 1.350 . S
C1604 C1603 1.434 . S
C1605 C1606 1.369 . S
C1605 C1607 1.419 . S
C1605 H1609 0.930 . S
C1606 C1605 1.369 . S
C1606 C1615 1.429 . S
C1607 C1605 1.419 . S
C1607 C1608 1.363 . S
C1607 H1610 0.929 . S
C1608 C1607 1.363 . S
C1608 C1614 1.428 . S
H1609 C1605 0.930 . S
H1610 C1607 0.929 . S
S1611 N1612 1.613 1_565 S
S1611 N1613 1.610 . S
N1612 S1611 1.613 1_545 S
N1612 C1615 1.350 1_545 S
N1613 S1611 1.610 . S
N1613 C1614 1.351 . S
C1614 C1608 1.428 . S
C1614 N1613 1.351 . S
C1614 C1615 1.434 . S
C1615 C1606 1.429 . S
C1615 N1612 1.350 1_565 S
C1615 C1614 1.434 . S
C1616 C1617 1.369 . S
C1616 C1618 1.419 . S
C1616 H1620 0.930 . S
C1617 C1616 1.369 . S
C1617 C1626 1.429 . S
C1618 C1616 1.419 . S
C1618 C1619 1.363 . S
C1618 H1621 0.929 . S
C1619 C1618 1.363 . S
C1619 C1625 1.428 . S
H1620 C1616 0.930 . S
H1621 C1618 0.929 . S
S1622 N1623 1.613 . S
S1622 N1624 1.610 . S
N1623 S1622 1.613 . S
N1623 C1626 1.350 . S
N1624 S1622 1.610 . S
N1624 C1625 1.351 . S
C1625 C1619 1.428 . S
C1625 N1624 1.351 . S
C1625 C1626 1.434 . S
C1626 C1617 1.429 . S
C1626 N1623 1.350 . S
C1626 C1625 1.434 . S
C1627 C1628 1.369 . S
C1627 C1629 1.419 . S
C1627 H1631 0.930 . S
C1628 C1627 1.369 . S
C1628 C1637 1.429 . S
C1629 C1627 1.419 . S
C1629 C1630 1.363 . S
C1629 H1632 0.929 . S
C1630 C1629 1.363 . S
C1630 C1636 1.428 . S
H1631 C1627 0.930 . S
H1632 C1629 0.929 . S
S1633 N1634 1.613 . S
S1633 N1635 1.610 . S
N1634 S1633 1.613 . S
N1634 C1637 1.350 . S
N1635 S1633 1.610 . S
N1635 C1636 1.351 . S
C1636 C1630 1.428 . S
C1636 N1635 1.351 . S
C1636 C1637 1.434 . S
C1637 C1628 1.429 . S
C1637 N1634 1.350 . S
C1637 C1636 1.434 . S
C1638 C1639 1.369 . S
C1638 C1640 1.419 . S
C1638 H1642 0.930 . S
C1639 C1638 1.369 . S
C1639 C1648 1.429 . S
C1640 C1638 1.419 . S
C1640 C1641 1.363 . S
C1640 H1643 0.929 . S
C1641 C1640 1.363 . S
C1641 C1647 1.428 . S
H1642 C1638 0.930 . S
H1643 C1640 0.929 . S
S1644 N1645 1.613 . S
S1644 N1646 1.610 . S
N1645 S1644 1.613 . S
N1645 C1648 1.350 . S
N1646 S1644 1.610 . S
N1646 C1647 1.351 . S
C1647 C1641 1.428 . S
C1647 N1646 1.351 . S
C1647 C1648 1.434 . S
C1648 C1639 1.429 . S
C1648 N1645 1.350 . S
C1648 C1647 1.434 . S
C1649 C1650 1.369 . S
C1649 C1651 1.419 . S
C1649 H1653 0.930 . S
C1650 C1649 1.369 . S
C1650 C1659 1.429 . S
C1651 C1649 1.419 . S
C1651 C1652 1.363 . S
C1651 H1654 0.929 . S
C1652 C1651 1.363 . S
C1652 C1658 1.428 . S
H1653 C1649 0.930 . S
H1654 C1651 0.929 . S
S1655 N1656 1.613 . S
S1655 N1657 1.610 . S
N1656 S1655 1.613 . S
N1656 C1659 1.350 . S
N1657 S1655 1.610 . S
N1657 C1658 1.351 . S
C1658 C1652 1.428 . S
C1658 N1657 1.351 . S
C1658 C1659 1.434 . S
C1659 C1650 1.429 . S
C1659 N1656 1.350 . S
C1659 C1658 1.434 . S
C1660 C1661 1.369 . S
C1660 C1662 1.419 . S
C1660 H1664 0.930 . S
C1661 C1660 1.369 . S
C1661 C1670 1.429 . S
C1662 C1660 1.419 . S
C1662 C1663 1.363 . S
C1662 H1665 0.929 . S
C1663 C1662 1.363 . S
C1663 C1669 1.428 . S
H1664 C1660 0.930 . S
H1665 C1662 0.929 . S
S1666 N1667 1.613 . S
S1666 N1668 1.610 . S
N1667 S1666 1.613 . S
N1667 C1670 1.350 . S
N1668 S1666 1.610 . S
N1668 C1669 1.351 . S
C1669 C1663 1.428 . S
C1669 N1668 1.351 . S
C1669 C1670 1.434 . S
C1670 C1661 1.429 . S
C1670 N1667 1.350 . S
C1670 C1669 1.434 . S
C1671 C1672 1.369 . S
C1671 C1673 1.419 . S
C1671 H1675 0.930 . S
C1672 C1671 1.369 . S
C1672 C1681 1.429 . S
C1673 C1671 1.419 . S
C1673 C1674 1.363 . S
C1673 H1676 0.929 . S
C1674 C1673 1.363 . S
C1674 C1680 1.428 . S
H1675 C1671 0.930 . S
H1676 C1673 0.929 . S
S1677 N1678 1.613 . S
S1677 N1679 1.610 . S
N1678 S1677 1.613 . S
N1678 C1681 1.350 . S
N1679 S1677 1.610 . S
N1679 C1680 1.351 . S
C1680 C1674 1.428 . S
C1680 N1679 1.351 . S
C1680 C1681 1.434 . S
C1681 C1672 1.429 . S
C1681 N1678 1.350 . S
C1681 C1680 1.434 . S
C1682 C1683 1.369 . S
C1682 C1684 1.419 . S
C1682 H1686 0.930 . S
C1683 C1682 1.369 . S
C1683 C1692 1.429 . S
C1684 C1682 1.419 . S
C1684 C1685 1.363 . S
C1684 H1687 0.929 . S
C1685 C1684 1.363 . S
C1685 C1691 1.428 . S
H1686 C1682 0.930 . S
H1687 C1684 0.929 . S
S1688 N1689 1.613 . S
S1688 N1690 1.610 . S
N1689 S1688 1.613 . S
N1689 C1692 1.350 . S
N1690 S1688 1.610 . S
N1690 C1691 1.351 . S
C1691 C1685 1.428 . S
C1691 N1690 1.351 . S
C1691 C1692 1.434 . S
C1692 C1683 1.429 . S
C1692 N1689 1.350 . S
C1692 C1691 1.434 . S
C1693 C1694 1.369 . S
C1693 C1695 1.419 . S
C1693 H1697 0.930 . S
C1694 C1693 1.369 . S
C1694 C1703 1.429 . S
C1695 C1693 1.419 . S
C1695 C1696 1.363 . S
C1695 H1698 0.929 . S
C1696 C1695 1.363 . S
C1696 C1702 1.428 . S
H1697 C1693 0.930 . S
H1698 C1695 0.929 . S
S1699 N1700 1.613 . S
S1699 N1701 1.610 . S
N1700 S1699 1.613 . S
N1700 C1703 1.350 . S
N1701 S1699 1.610 . S
N1701 C1702 1.351 . S
C1702 C1696 1.428 . S
C1702 N1701 1.351 . S
C1702 C1703 1.434 . S
C1703 C1694 1.429 . S
C1703 N1700 1.350 . S
C1703 C1702 1.434 . S
C1704 C1705 1.369 . S
C1704 C1706 1.419 . S
C1704 H1708 0.930 . S
C1705 C1704 1.369 . S
C1705 C1714 1.429 . S
C1706 C1704 1.419 . S
C1706 C1707 1.363 . S
C1706 H1709 0.929 . S
C1707 C1706 1.363 . S
C1707 C1713 1.428 . S
H1708 C1704 0.930 . S
H1709 C1706 0.929 . S
S1710 N1711 1.613 . S
S1710 N1712 1.610 . S
N1711 S1710 1.613 . S
N1711 C1714 1.350 . S
N1712 S1710 1.610 . S
N1712 C1713 1.351 . S
C1713 C1707 1.428 . S
C1713 N1712 1.351 . S
C1713 C1714 1.434 . S
C1714 C1705 1.429 . S
C1714 N1711 1.350 . S
C1714 C1713 1.434 . S
C1715 C1716 1.369 . S
C1715 C1717 1.419 . S
C1715 H1719 0.930 . S
C1716 C1715 1.369 . S
C1716 C1725 1.429 . S
C1717 C1715 1.419 . S
C1717 C1718 1.363 . S
C1717 H1720 0.929 . S
C1718 C1717 1.363 . S
C1718 C1724 1.428 . S
H1719 C1715 0.930 . S
H1720 C1717 0.929 . S
S1721 N1722 1.613 . S
S1721 N1723 1.610 . S
N1722 S1721 1.613 . S
N1722 C1725 1.350 . S
N1723 S1721 1.610 . S
N1723 C1724 1.351 . S
C1724 C1718 1.428 . S
C1724 N1723 1.351 . S
C1724 C1725 1.434 . S
C1725 C1716 1.429 . S
C1725 N1722 1.350 . S
C1725 C1724 1.434 . S
C1726 C1727 1.369 . S
C1726 C1728 1.419 . S
C1726 H1730 0.930 . S
C1727 C1726 1.369 . S
C1727 C1736 1.429 . S
C1728 C1726 1.419 . S
C1728 C1729 1.363 . S
C1728 H1731 0.929 . S
C1729 C1728 1.363 . S
C1729 C1735 1.428 . S
H1730 C1726 0.930 . S
H1731 C1728 0.929 . S
S1732 N1733 1.613 . S
S1732 N1734 1.610 . S
N1733 S1732 1.613 . S
N1733 C1736 1.350 . S
N1734 S1732 1.610 . S
N1734 C1735 1.351 . S
C1735 C1729 1.428 . S
C1735 N1734 1.351 . S
C1735 C1736 1.434 . S
C1736 C1727 1.429 . S
C1736 N1733 1.350 . S
C1736 C1735 1.434 . S
C1737 C1738 1.369 . S
C1737 C1739 1.419 . S
C1737 H1741 0.930 . S
C1738 C1737 1.369 . S
C1738 C1747 1.429 . S
C1739 C1737 1.419 . S
C1739 C1740 1.363 . S
C1739 H1742 0.929 . S
C1740 C1739 1.363 . S
C1740 C1746 1.428 . S
H1741 C1737 0.930 . S
H1742 C1739 0.929 . S
S1743 N1744 1.613 . S
S1743 N1745 1.610 . S
N1744 S1743 1.613 . S
N1744 C1747 1.350 . S
N1745 S1743 1.610 . S
N1745 C1746 1.351 . S
C1746 C1740 1.428 . S
C1746 N1745 1.351 . S
C1746 C1747 1.434 . S
C1747 C1738 1.429 . S
C1747 N1744 1.350 . S
C1747 C1746 1.434 . S
C1748 C1749 1.369 . S
C1748 C1750 1.419 . S
C1748 H1752 0.930 . S
C1749 C1748 1.369 . S
C1749 C1758 1.429 . S
C1750 C1748 1.419 . S
C1750 C1751 1.363 . S
C1750 H1753 0.929 . S
C1751 C1750 1.363 . S
C1751 C1757 1.428 . S
H1752 C1748 0.930 . S
H1753 C1750 0.929 . S
S1754 N1755 1.613 . S
S1754 N1756 1.610 . S
N1755 S1754 1.613 . S
N1755 C1758 1.350 . S
N1756 S1754 1.610 . S
N1756 C1757 1.351 . S
C1757 C1751 1.428 . S
C1757 N1756 1.351 . S
C1757 C1758 1.434 . S
C1758 C1749 1.429 . S
C1758 N1755 1.350 . S
C1758 C1757 1.434 . S
C1759 C1760 1.369 . S
C1759 C1761 1.419 . S
C1759 H1763 0.930 . S
C1760 C1759 1.369 . S
C1760 C1769 1.429 . S
C1761 C1759 1.419 . S
C1761 C1762 1.363 . S
C1761 H1764 0.929 . S
C1762 C1761 1.363 . S
C1762 C1768 1.428 . S
H1763 C1759 0.930 . S
H1764 C1761 0.929 . S
S1765 N1766 1.613 . S
S1765 N1767 1.610 . S
N1766 S1765 1.613 . S
N1766 C1769 1.350 . S
N1767 S1765 1.610 . S
N1767 C1768 1.351 . S
C1768 C1762 1.428 . S
C1768 N1767 1.351 . S
C1768 C1769 1.434 . S
C1769 C1760 1.429 . S
C1769 N1766 1.350 . S
C1769 C1768 1.434 . S
C1770 C1771 1.369 . S
C1770 C1772 1.419 . S
C1770 H1774 0.930 . S
C1771 C1770 1.369 . S
C1771 C1780 1.429 . S
C1772 C1770 1.419 . S
C1772 C1773 1.363 . S
C1772 H1775 0.929 . S
C1773 C1772 1.363 . S
C1773 C1779 1.428 . S
H1774 C1770 0.930 . S
H1775 C1772 0.929 . S
S1776 N1777 1.613 . S
S1776 N1778 1.610 . S
N1777 S1776 1.613 . S
N1777 C1780 1.350 . S
N1778 S1776 1.610 . S
N1778 C1779 1.351 . S
C1779 C1773 1.428 . S
C1779 N1778 1.351 . S
C1779 C1780 1.434 . S
C1780 C1771 1.429 . S
C1780 N1777 1.350 . S
C1780 C1779 1.434 . S
C1781 C1782 1.369 . S
C1781 C1783 1.419 . S
C1781 H1785 0.930 . S
C1782 C1781 1.369 . S
C1782 C1791 1.429 . S
C1783 C1781 1.419 . S
C1783 C1784 1.363 . S
C1783 H1786 0.929 . S
C1784 C1783 1.363 . S
C1784 C1790 1.428 . S
H1785 C1781 0.930 . S
H1786 C1783 0.929 . S
S1787 N1788 1.613 . S
S1787 N1789 1.610 . S
N1788 S1787 1.613 . S
N1788 C1791 1.350 . S
N1789 S1787 1.610 . S
N1789 C1790 1.351 . S
C1790 C1784 1.428 . S
C1790 N1789 1.351 . S
C1790 C1791 1.434 . S
C1791 C1782 1.429 . S
C1791 N1788 1.350 . S
C1791 C1790 1.434 . S
C1792 C1793 1.369 . S
C1792 C1794 1.419 . S
C1792 H1796 0.930 . S
C1793 C1792 1.369 . S
C1793 C1802 1.429 . S
C1794 C1792 1.419 . S
C1794 C1795 1.363 . S
C1794 H1797 0.929 . S
C1795 C1794 1.363 . S
C1795 C1801 1.428 . S
H1796 C1792 0.930 . S
H1797 C1794 0.929 . S
S1798 N1799 1.613 . S
S1798 N1800 1.610 . S
N1799 S1798 1.613 . S
N1799 C1802 1.350 . S
N1800 S1798 1.610 . S
N1800 C1801 1.351 . S
C1801 C1795 1.428 . S
C1801 N1800 1.351 . S
C1801 C1802 1.434 . S
C1802 C1793 1.429 . S
C1802 N1799 1.350 . S
C1802 C1801 1.434 . S
C1803 C1804 1.369 . S
C1803 C1805 1.419 1_655 S
C1803 H1807 0.930 . S
C1804 C1803 1.369 . S
C1804 C1813 1.429 . S
C1805 C1803 1.419 1_455 S
C1805 C1806 1.363 . S
C1805 H1808 0.929 . S
C1806 C1805 1.363 . S
C1806 C1812 1.428 . S
H1807 C1803 0.930 . S
H1808 C1805 0.929 . S
S1809 N1810 1.613 1_455 S
S1809 N1811 1.610 . S
N1810 S1809 1.613 1_655 S
N1810 C1813 1.350 . S
N1811 S1809 1.610 . S
N1811 C1812 1.351 . S
C1812 C1806 1.428 . S
C1812 N1811 1.351 . S
C1812 C1813 1.434 1_455 S
C1813 C1804 1.429 . S
C1813 N1810 1.350 . S
C1813 C1812 1.434 1_655 S
C1814 C1815 1.369 . S
C1814 C1816 1.419 . S
C1814 H1818 0.930 . S
C1815 C1814 1.369 . S
C1815 C1824 1.429 1_655 S
C1816 C1814 1.419 . S
C1816 C1817 1.363 1_655 S
C1816 H1819 0.929 . S
C1817 C1816 1.363 1_455 S
C1817 C1823 1.428 . S
H1818 C1814 0.930 . S
H1819 C1816 0.929 . S
S1820 N1821 1.613 . S
S1820 N1822 1.610 . S
N1821 S1820 1.613 . S
N1821 C1824 1.350 . S
N1822 S1820 1.610 . S
N1822 C1823 1.351 . S
C1823 C1817 1.428 . S
C1823 N1822 1.351 . S
C1823 C1824 1.434 . S
C1824 C1815 1.429 1_455 S
C1824 N1821 1.350 . S
C1824 C1823 1.434 . S
C1825 C1826 1.369 . S
C1825 C1827 1.419 . S
C1825 H1829 0.930 . S
C1826 C1825 1.369 . S
C1826 C1835 1.429 . S
C1827 C1825 1.419 . S
C1827 C1828 1.363 . S
C1827 H1830 0.929 . S
C1828 C1827 1.363 . S
C1828 C1834 1.428 . S
H1829 C1825 0.930 . S
H1830 C1827 0.929 . S
S1831 N1832 1.613 . S
S1831 N1833 1.610 . S
N1832 S1831 1.613 . S
N1832 C1835 1.350 . S
N1833 S1831 1.610 . S
N1833 C1834 1.351 . S
C1834 C1828 1.428 . S
C1834 N1833 1.351 . S
C1834 C1835 1.434 . S
C1835 C1826 1.429 . S
C1835 N1832 1.350 . S
C1835 C1834 1.434 . S
C1836 C1837 1.369 . S
C1836 C1838 1.419 . S
C1836 H1840 0.930 . S
C1837 C1836 1.369 . S
C1837 C1846 1.429 . S
C1838 C1836 1.419 . S
C1838 C1839 1.363 . S
C1838 H1841 0.929 . S
C1839 C1838 1.363 . S
C1839 C1845 1.428 . S
H1840 C1836 0.930 . S
H1841 C1838 0.929 . S
S1842 N1843 1.613 . S
S1842 N1844 1.610 . S
N1843 S1842 1.613 . S
N1843 C1846 1.350 . S
N1844 S1842 1.610 . S
N1844 C1845 1.351 . S
C1845 C1839 1.428 . S
C1845 N1844 1.351 . S
C1845 C1846 1.434 . S
C1846 C1837 1.429 . S
C1846 N1843 1.350 . S
C1846 C1845 1.434 . S
C1847 C1848 1.369 . S
C1847 C1849 1.419 . S
C1847 H1851 0.930 . S
C1848 C1847 1.369 . S
C1848 C1857 1.429 . S
C1849 C1847 1.419 . S
C1849 C1850 1.363 . S
C1849 H1852 0.929 . S
C1850 C1849 1.363 . S
C1850 C1856 1.428 . S
H1851 C1847 0.930 . S
H1852 C1849 0.929 . S
S1853 N1854 1.613 . S
S1853 N1855 1.610 . S
N1854 S1853 1.613 . S
N1854 C1857 1.350 . S
N1855 S1853 1.610 . S
N1855 C1856 1.351 . S
C1856 C1850 1.428 . S
C1856 N1855 1.351 . S
C1856 C1857 1.434 . S
C1857 C1848 1.429 . S
C1857 N1854 1.350 . S
C1857 C1856 1.434 . S
C1858 C1859 1.369 . S
C1858 C1860 1.419 . S
C1858 H1862 0.930 . S
C1859 C1858 1.369 . S
C1859 C1868 1.429 1_455 S
C1860 C1858 1.419 . S
C1860 C1861 1.363 1_455 S
C1860 H1863 0.929 . S
C1861 C1860 1.363 1_655 S
C1861 C1867 1.428 . S
H1862 C1858 0.930 . S
H1863 C1860 0.929 . S
S1864 N1865 1.613 . S
S1864 N1866 1.610 . S
N1865 S1864 1.613 . S
N1865 C1868 1.350 . S
N1866 S1864 1.610 . S
N1866 C1867 1.351 . S
C1867 C1861 1.428 . S
C1867 N1866 1.351 . S
C1867 C1868 1.434 . S
C1868 C1859 1.429 1_655 S
C1868 N1865 1.350 . S
C1868 C1867 1.434 . S
C1869 C1870 1.369 . S
C1869 C1871 1.419 1_655 S
C1869 H1873 0.930 . S
C1870 C1869 1.369 . S
C1870 C1879 1.429 . S
C1871 C1869 1.419 1_455 S
C1871 C1872 1.363 . S
C1871 H1874 0.929 . S
C1872 C1871 1.363 . S
C1872 C1878 1.428 . S
H1873 C1869 0.930 . S
H1874 C1871 0.929 . S
S1875 N1876 1.613 1_455 S
S1875 N1877 1.610 . S
N1876 S1875 1.613 1_655 S
N1876 C1879 1.350 . S
N1877 S1875 1.610 . S
N1877 C1878 1.351 . S
C1878 C1872 1.428 . S
C1878 N1877 1.351 . S
C1878 C1879 1.434 1_455 S
C1879 C1870 1.429 . S
C1879 N1876 1.350 . S
C1879 C1878 1.434 1_655 S
C1880 C1881 1.369 . S
C1880 C1882 1.419 . S
C1880 H1884 0.930 . S
C1881 C1880 1.369 . S
C1881 C1890 1.429 . S
C1882 C1880 1.419 . S
C1882 C1883 1.363 . S
C1882 H1885 0.929 . S
C1883 C1882 1.363 . S
C1883 C1889 1.428 . S
H1884 C1880 0.930 . S
H1885 C1882 0.929 . S
S1886 N1887 1.613 . S
S1886 N1888 1.610 . S
N1887 S1886 1.613 . S
N1887 C1890 1.350 . S
N1888 S1886 1.610 . S
N1888 C1889 1.351 . S
C1889 C1883 1.428 . S
C1889 N1888 1.351 . S
C1889 C1890 1.434 . S
C1890 C1881 1.429 . S
C1890 N1887 1.350 . S
C1890 C1889 1.434 . S
C1891 C1892 1.369 . S
C1891 C1893 1.419 1_655 S
C1891 H1895 0.930 . S
C1892 C1891 1.369 . S
C1892 C1901 1.429 . S
C1893 C1891 1.419 1_455 S
C1893 C1894 1.363 . S
C1893 H1896 0.929 . S
C1894 C1893 1.363 . S
C1894 C1900 1.428 . S
H1895 C1891 0.930 . S
H1896 C1893 0.929 . S
S1897 N1898 1.613 . S
S1897 N1899 1.610 1_655 S
N1898 S1897 1.613 . S
N1898 C1901 1.350 . S
N1899 S1897 1.610 1_455 S
N1899 C1900 1.351 . S
C1900 C1894 1.428 . S
C1900 N1899 1.351 . S
C1900 C1901 1.434 1_455 S
C1901 C1892 1.429 . S
C1901 N1898 1.350 . S
C1901 C1900 1.434 1_655 S
C1902 C1903 1.369 . S
C1902 C1904 1.419 . S
C1902 H1906 0.930 . S
C1903 C1902 1.369 . S
C1903 C1912 1.429 1_655 S
C1904 C1902 1.419 . S
C1904 C1905 1.363 1_655 S
C1904 H1907 0.929 . S
C1905 C1904 1.363 1_455 S
C1905 C1911 1.428 . S
H1906 C1902 0.930 . S
H1907 C1904 0.929 . S
S1908 N1909 1.613 . S
S1908 N1910 1.610 . S
N1909 S1908 1.613 . S
N1909 C1912 1.350 . S
N1910 S1908 1.610 . S
N1910 C1911 1.351 . S
C1911 C1905 1.428 . S
C1911 N1910 1.351 . S
C1911 C1912 1.434 . S
C1912 C1903 1.429 1_455 S
C1912 N1909 1.350 . S
C1912 C1911 1.434 . S
C1913 C1914 1.369 . S
C1913 C1915 1.419 . S
C1913 H1917 0.930 . S
C1914 C1913 1.369 . S
C1914 C1923 1.429 . S
C1915 C1913 1.419 . S
C1915 C1916 1.363 . S
C1915 H1918 0.929 . S
C1916 C1915 1.363 . S
C1916 C1922 1.428 . S
H1917 C1913 0.930 . S
H1918 C1915 0.929 . S
S1919 N1920 1.613 . S
S1919 N1921 1.610 . S
N1920 S1919 1.613 . S
N1920 C1923 1.350 . S
N1921 S1919 1.610 . S
N1921 C1922 1.351 . S
C1922 C1916 1.428 . S
C1922 N1921 1.351 . S
C1922 C1923 1.434 . S
C1923 C1914 1.429 . S
C1923 N1920 1.350 . S
C1923 C1922 1.434 . S
C1924 C1925 1.369 . S
C1924 C1926 1.419 . S
C1924 H1928 0.930 . S
C1925 C1924 1.369 . S
C1925 C1934 1.429 . S
C1926 C1924 1.419 . S
C1926 C1927 1.363 . S
C1926 H1929 0.929 . S
C1927 C1926 1.363 . S
C1927 C1933 1.428 . S
H1928 C1924 0.930 . S
H1929 C1926 0.929 . S
S1930 N1931 1.613 . S
S1930 N1932 1.610 . S
N1931 S1930 1.613 . S
N1931 C1934 1.350 . S
N1932 S1930 1.610 . S
N1932 C1933 1.351 . S
C1933 C1927 1.428 . S
C1933 N1932 1.351 . S
C1933 C1934 1.434 . S
C1934 C1925 1.429 . S
C1934 N1931 1.350 . S
C1934 C1933 1.434 . S
C1935 C1936 1.369 . S
C1935 C1937 1.419 . S
C1935 H1939 0.930 . S
C1936 C1935 1.369 . S
C1936 C1945 1.429 . S
C1937 C1935 1.419 . S
C1937 C1938 1.363 . S
C1937 H1940 0.929 . S
C1938 C1937 1.363 . S
C1938 C1944 1.428 . S
H1939 C1935 0.930 . S
H1940 C1937 0.929 . S
S1941 N1942 1.613 . S
S1941 N1943 1.610 . S
N1942 S1941 1.613 . S
N1942 C1945 1.350 . S
N1943 S1941 1.610 . S
N1943 C1944 1.351 . S
C1944 C1938 1.428 . S
C1944 N1943 1.351 . S
C1944 C1945 1.434 . S
C1945 C1936 1.429 . S
C1945 N1942 1.350 . S
C1945 C1944 1.434 . S
C1946 C1947 1.369 . S
C1946 C1948 1.419 . S
C1946 H1950 0.930 . S
C1947 C1946 1.369 . S
C1947 C1956 1.429 1_655 S
C1948 C1946 1.419 . S
C1948 C1949 1.363 1_655 S
C1948 H1951 0.929 . S
C1949 C1948 1.363 1_455 S
C1949 C1955 1.428 . S
H1950 C1946 0.930 . S
H1951 C1948 0.929 . S
S1952 N1953 1.613 . S
S1952 N1954 1.610 . S
N1953 S1952 1.613 . S
N1953 C1956 1.350 . S
N1954 S1952 1.610 . S
N1954 C1955 1.351 . S
C1955 C1949 1.428 . S
C1955 N1954 1.351 . S
C1955 C1956 1.434 . S
C1956 C1947 1.429 1_455 S
C1956 N1953 1.350 . S
C1956 C1955 1.434 . S
C1957 C1958 1.369 . S
C1957 C1959 1.419 1_455 S
C1957 H1961 0.930 . S
C1958 C1957 1.369 . S
C1958 C1967 1.429 . S
C1959 C1957 1.419 1_655 S
C1959 C1960 1.363 . S
C1959 H1962 0.929 . S
C1960 C1959 1.363 . S
C1960 C1966 1.428 . S
H1961 C1957 0.930 . S
H1962 C1959 0.929 . S
S1963 N1964 1.613 1_655 S
S1963 N1965 1.610 . S
N1964 S1963 1.613 1_455 S
N1964 C1967 1.350 . S
N1965 S1963 1.610 . S
N1965 C1966 1.351 . S
C1966 C1960 1.428 . S
C1966 N1965 1.351 . S
C1966 C1967 1.434 1_655 S
C1967 C1958 1.429 . S
C1967 N1964 1.350 . S
C1967 C1966 1.434 1_455 S
C1089 C2 1.553 . S
C1091 C274 1.553 . S
C1100 C36 1.554 . S
C1102 C852 1.553 . S
C1111 C342 1.555 . S
C1113 C70 1.552 . S
C1122 C920 1.552 . S
C1124 C104 1.555 . S
C1133 C410 1.553 . S
C1135 C138 1.554 . S
C1144 C172 1.555 . S
C1146 C988 1.552 . S
C1155 C478 1.553 . S
C1157 C206 1.554 . S
C1166 C1056 1.555 . S
C1168 C240 1.552 . S
C1177 C308 1.553 . S
C1179 C580 1.554 . S
C1188 C376 1.552 . S
C1190 C648 1.554 . S
C1199 C716 1.552 . S
C1201 C444 1.554 . S
C1210 C512 1.555 . S
C1212 C784 1.552 . S
C1221 C546 1.552 . S
C1223 C818 1.555 . S
C1232 C886 1.553 . S
C1234 C614 1.554 . S
C1243 C954 1.552 . S
C1245 C682 1.554 . S
C1254 C750 1.552 . S
C1256 C1022 1.555 . S
C1265 C5 1.000 . S
C1267 C485 0.923 . S
C1276 C1063 0.915 . S
C1278 C39 1.003 . S
C1287 C417 0.934 . S
C1289 C73 0.992 . S
C1298 C995 0.934 . S
C1300 C107 0.991 . S
C1309 C349 0.911 . S
C1311 C141 1.004 . S
C1320 C175 1.006 . S
C1322 C927 0.912 . S
C1331 C281 0.932 . S
C1333 C209 0.994 . S
C1342 C243 1.000 . S
C1344 C859 0.914 . S
C1353 C277 1.004 . S
C1355 C213 0.911 . S
C1364 C311 0.992 . S
C1366 C791 0.920 . S
C1375 C345 0.988 . S
C1377 C145 0.926 . S
C1386 C723 0.933 . S
C1388 C379 0.990 . S
C1397 C77 0.910 . S
C1399 C413 1.004 . S
C1408 C655 0.910 . S
C1410 C447 1.004 . S
C1419 C481 1.006 . S
C1421 C9 0.912 . S
C1430 C587 0.931 . S
C1432 C515 0.996 . S
C1441 C549 1.002 . S
C1443 C1029 0.921 . S
C1452 C519 0.922 1_565 S
C1454 C583 0.993 . S
C1463 C961 0.910 . S
C1465 C617 1.004 . S
C1474 C651 0.993 . S
C1476 C451 0.921 1_545 S
C1485 C893 0.912 . S
C1487 C685 1.004 . S
C1496 C383 0.917 1_565 S
C1498 C719 1.003 . S
C1507 C753 0.999 . S
C1509 C825 0.915 . S
C1518 C787 1.006 . S
C1520 C315 0.915 1_545 S
C1529 C821 1.005 . S
C1531 C757 0.911 . S
C1540 C855 0.988 . S
C1542 C247 0.926 1_545 S
C1551 C889 1.004 . S
C1553 C689 0.911 . S
C1562 C923 1.006 . S
C1564 C179 0.912 1_565 S
C1573 C621 0.933 . S
C1575 C957 0.994 . S
C1584 C991 1.000 . S
C1586 C111 0.925 1_545 S
C1595 C553 0.925 . S
C1597 C1025 1.000 . S
C1606 C43 0.918 1_565 S
C1608 C1059 1.003 . S
C1617 C258 1.896 . S
C1619 C20 1.903 . S
C1628 C156 1.904 . S
C1630 C54 1.897 . S
C1639 C88 1.901 . S
C1641 C190 1.898 . S
C1650 C122 1.903 . S
C1652 C224 1.897 . S
C1661 C530 1.897 . S
C1663 C292 1.901 . S
C1672 C326 1.904 . S
C1674 C428 1.897 . S
C1683 C462 1.896 . S
C1685 C360 1.902 . S
C1694 C496 1.897 . S
C1696 C394 1.903 . S
C1705 C564 1.896 . S
C1707 C802 1.903 . S
C1716 C598 1.901 . S
C1718 C700 1.900 . S
C1727 C632 1.901 . S
C1729 C734 1.898 . S
C1738 C768 1.901 . S
C1740 C666 1.898 . S
C1749 C1074 1.896 . S
C1751 C836 1.902 . S
C1760 C972 1.902 . S
C1762 C870 1.900 . S
C1771 C904 1.897 . S
C1773 C1006 1.901 . S
C1782 C938 1.898 . S
C1784 C1040 1.903 . S
C1793 C33 2.258 . S
C1795 C645 2.258 . S
C1804 C679 2.258 . S
C1806 C67 2.258 . S
C1815 C577 2.259 . S
C1817 C101 2.259 . S
C1826 C611 2.259 . S
C1828 C135 2.259 . S
C1837 C781 2.258 . S
C1839 C169 2.258 . S
C1848 C815 2.258 . S
C1850 C203 2.258 . S
C1859 C237 2.259 . S
C1861 C713 2.259 . S
C1870 C747 2.259 . S
C1872 C271 2.259 . S
C1881 C917 2.259 . S
C1883 C305 2.259 . S
C1892 C339 2.259 . S
C1894 C951 2.259 . S
C1903 C373 2.258 . S
C1905 C849 2.258 . S
C1914 C407 2.258 . S
C1916 C883 2.258 . S
C1925 C441 2.259 . S
C1927 C1053 2.259 . S
C1936 C1087 2.258 . S
C1938 C475 2.258 . S
C1947 C509 2.259 . S
C1949 C985 2.259 . S
C1958 C1019 2.259 . S
C1960 C543 2.259 . S
