# Generated by pormake.
# Topology vma, (5)-cn, num edge types: 1
# Building blocks:
#     Node 0, Type 0, BuildingBlock: BEQFEK_clean_sbu_0, # of connection points: 5
#     Node 1, Type 0, BuildingBlock: BEQFEK_clean_sbu_0, # of connection points: 5
#     Node 2, Type 0, BuildingBlock: BEQFEK_clean_sbu_0, # of connection points: 5
#     Node 3, Type 0, BuildingBlock: BEQFEK_clean_sbu_0, # of connection points: 5
#     Node 4, Type 0, BuildingBlock: BEQFEK_clean_sbu_0, # of connection points: 5
#     Node 5, Type 0, BuildingBlock: BEQFEK_clean_sbu_0, # of connection points: 5
#     Node 6, Type 0, BuildingBlock: BEQFEK_clean_sbu_0, # of connection points: 5
#     Node 7, Type 0, BuildingBlock: BEQFEK_clean_sbu_0, # of connection points: 5
#     Edge 8, Type (0, 0), BuildingBlock: EZIPEK_clean_linker_0, # of connection points: 2
#     Edge 9, Type (0, 0), BuildingBlock: EZIPEK_clean_linker_0, # of connection points: 2
#     Edge 10, Type (0, 0), BuildingBlock: EZIPEK_clean_linker_0, # of connection points: 2
#     Edge 11, Type (0, 0), BuildingBlock: EZIPEK_clean_linker_0, # of connection points: 2
#     Edge 12, Type (0, 0), BuildingBlock: EZIPEK_clean_linker_0, # of connection points: 2
#     Edge 13, Type (0, 0), BuildingBlock: EZIPEK_clean_linker_0, # of connection points: 2
#     Edge 14, Type (0, 0), BuildingBlock: EZIPEK_clean_linker_0, # of connection points: 2
#     Edge 15, Type (0, 0), BuildingBlock: EZIPEK_clean_linker_0, # of connection points: 2
#     Edge 16, Type (0, 0), BuildingBlock: EZIPEK_clean_linker_0, # of connection points: 2
#     Edge 17, Type (0, 0), BuildingBlock: EZIPEK_clean_linker_0, # of connection points: 2
#     Edge 18, Type (0, 0), BuildingBlock: EZIPEK_clean_linker_0, # of connection points: 2
#     Edge 19, Type (0, 0), BuildingBlock: EZIPEK_clean_linker_0, # of connection points: 2
#     Edge 20, Type (0, 0), BuildingBlock: EZIPEK_clean_linker_0, # of connection points: 2
#     Edge 21, Type (0, 0), BuildingBlock: EZIPEK_clean_linker_0, # of connection points: 2
#     Edge 22, Type (0, 0), BuildingBlock: EZIPEK_clean_linker_0, # of connection points: 2
#     Edge 23, Type (0, 0), BuildingBlock: EZIPEK_clean_linker_0, # of connection points: 2
#     Edge 24, Type (0, 0), BuildingBlock: EZIPEK_clean_linker_0, # of connection points: 2
#     Edge 25, Type (0, 0), BuildingBlock: EZIPEK_clean_linker_0, # of connection points: 2
#     Edge 26, Type (0, 0), BuildingBlock: EZIPEK_clean_linker_0, # of connection points: 2
#     Edge 27, Type (0, 0), BuildingBlock: EZIPEK_clean_linker_0, # of connection points: 2
# Relax obj value: 0.015
# Max RMSD: 0.084
# Mean RMSD: 0.084
data_MOF--net-vma--node1-BEQFEK_clean_sbu_0--edge1-EZIPEK_clean_linker_0
_symmetry_space_group_name_H-M    P1
_symmetry_Int_Tables_number       1
_symmetry_cell_setting            triclinic
loop_
_symmetry_equiv_pos_as_xyz
'x, y, z'
_cell_length_a     28.454798
_cell_length_b     22.720574
_cell_length_c     32.406152
_cell_angle_alpha  90.041329
_cell_angle_beta   94.416128
_cell_angle_gamma 89.917923
loop_
_atom_site_label
_atom_site_type_symbol
_atom_site_fract_x
_atom_site_fract_y
_atom_site_fract_z
_atom_type_partial_charge
Co0 Co 0.38011 0.10278 0.3746 0.0
Co1 Co 0.31799 0.18249 0.31174 0.0
C2 C 0.4216 0.16457 0.30427 0.0
O3 O 0.42578 0.13267 0.33664 0.0
O4 O 0.38224 0.1873 0.29136 0.0
C5 C 0.45846 0.06564 0.43095 0.0
O6 O 0.4841 0.09872 0.40823 0.0
C7 C 0.288 0.29583 0.27501 0.0
C8 C 0.21695 0.27583 0.24618 0.0
C9 C 0.24947 0.32076 0.25285 0.0
N10 N 0.27884 0.23861 0.28127 0.0
N11 N 0.23641 0.22684 0.26369 0.0
C12 C 0.33213 0.32637 0.29111 0.0
H13 H 0.35059 0.30056 0.31655 0.0
H14 H 0.32389 0.37122 0.30214 0.0
H15 H 0.35576 0.3309 0.26561 0.0
C16 C 0.33399 0.17558 0.43468 0.0
N17 N 0.34364 0.16348 0.39553 0.0
N18 N 0.31734 0.19689 0.36982 0.0
C19 C 0.28995 0.23124 0.39214 0.0
C20 C 0.29979 0.21892 0.43381 0.0
C21 C 0.35367 0.14221 0.47186 0.0
H22 H 0.39257 0.14613 0.47444 0.0
H23 H 0.3398 0.15896 0.50074 0.0
H24 H 0.34463 0.09493 0.46803 0.0
O25 O 0.33842 0.04593 0.34324 0.0
O26 O 0.29408 0.10142 0.29865 0.0
H27 H 0.2294 0.28755 0.39794 0.0
H28 H 0.26944 0.31008 0.36054 0.0
C29 C 0.25237 0.27162 0.3741 0.0
H30 H 0.23056 0.24872 0.34924 0.0
H31 H 0.2204 0.18558 0.26423 0.0
O32 O 0.4144 0.06072 0.42167 0.0
C33 C 0.3063 0.05136 0.31384 0.0
Co34 Co 0.62319 0.10326 0.1313 0.0
Co35 Co 0.68272 0.18045 0.19669 0.0
C36 C 0.57975 0.16517 0.20179 0.0
O37 O 0.57734 0.13135 0.17031 0.0
O38 O 0.6182 0.18966 0.21493 0.0
C39 C 0.55231 0.07809 0.06565 0.0
O40 O 0.53875 0.13241 0.07218 0.0
C41 C 0.71314 0.2925 0.23531 0.0
C42 C 0.78437 0.27189 0.26344 0.0
C43 C 0.75185 0.3171 0.25744 0.0
N44 N 0.72223 0.23531 0.22839 0.0
N45 N 0.76479 0.22318 0.24562 0.0
C46 C 0.66892 0.32341 0.21963 0.0
H47 H 0.64406 0.32378 0.24439 0.0
H48 H 0.652 0.30005 0.19231 0.0
H49 H 0.67653 0.36972 0.21154 0.0
C50 C 0.67013 0.17869 0.07275 0.0
N51 N 0.65948 0.1645 0.11129 0.0
N52 N 0.68533 0.19645 0.13835 0.0
C53 C 0.71289 0.23241 0.11738 0.0
C54 C 0.70391 0.22216 0.07536 0.0
C55 C 0.65429 0.14533 0.03448 0.0
H56 H 0.66864 0.10009 0.03746 0.0
H57 H 0.61543 0.14369 0.03084 0.0
H58 H 0.66706 0.16574 0.00632 0.0
O59 O 0.66566 0.04658 0.15976 0.0
O60 O 0.70194 0.09649 0.21163 0.0
H61 H 0.77162 0.24838 0.16124 0.0
H62 H 0.77296 0.28983 0.11367 0.0
C63 C 0.74986 0.27233 0.13686 0.0
H64 H 0.73231 0.30983 0.15125 0.0
H65 H 0.78085 0.18197 0.24447 0.0
O66 O 0.58767 0.05747 0.08714 0.0
C67 C 0.6925 0.04782 0.19292 0.0
Co68 Co 0.62134 0.91951 0.63575 0.0
Co69 Co 0.68453 0.84056 0.69833 0.0
C70 C 0.58136 0.85732 0.70743 0.0
O71 O 0.57681 0.88929 0.67505 0.0
O72 O 0.62089 0.83463 0.72002 0.0
C73 C 0.542 0.95192 0.57891 0.0
O74 O 0.5177 0.91602 0.6008 0.0
C75 C 0.71862 0.73586 0.74683 0.0
C76 C 0.795 0.74142 0.73953 0.0
C77 C 0.76093 0.70535 0.75458 0.0
N78 N 0.72741 0.78634 0.72696 0.0
N79 N 0.77331 0.78994 0.72376 0.0
C80 C 0.67063 0.71778 0.75789 0.0
H81 H 0.65431 0.7544 0.7744 0.0
H82 H 0.64798 0.70906 0.72912 0.0
H83 H 0.67216 0.67804 0.77783 0.0
C84 C 0.66733 0.84694 0.57522 0.0
N85 N 0.65805 0.8592 0.61448 0.0
N86 N 0.68312 0.82421 0.64001 0.0
C87 C 0.70817 0.78735 0.61724 0.0
C88 C 0.69939 0.80114 0.57576 0.0
C89 C 0.64933 0.88205 0.53829 0.0
H90 H 0.6106 0.87676 0.53358 0.0
H91 H 0.66551 0.86766 0.50986 0.0
H92 H 0.65694 0.92937 0.54397 0.0
O93 O 0.6627 0.9777 0.6656 0.0
O94 O 0.70781 0.92313 0.71012 0.0
H95 H 0.74847 0.70804 0.61011 0.0
H96 H 0.72733 0.71869 0.66062 0.0
C97 C 0.74181 0.74122 0.63415 0.0
H98 H 0.77589 0.76217 0.64433 0.0
H99 H 0.78955 0.82427 0.70891 0.0
O100 O 0.58558 0.96013 0.58888 0.0
C101 C 0.69524 0.97299 0.69466 0.0
Co102 Co 0.37382 0.91342 0.87629 0.0
Co103 Co 0.31777 0.83433 0.81006 0.0
C104 C 0.42215 0.85321 0.80908 0.0
O105 O 0.4236 0.88464 0.84169 0.0
O106 O 0.38383 0.83031 0.79394 0.0
C107 C 0.44008 0.93974 0.94429 0.0
O108 O 0.45395 0.8855 0.93794 0.0
C109 C 0.28964 0.72067 0.77286 0.0
C110 C 0.22656 0.7451 0.73248 0.0
C111 C 0.25463 0.6977 0.74542 0.0
N112 N 0.28254 0.77898 0.77607 0.0
N113 N 0.2451 0.7934 0.75146 0.0
C114 C 0.32817 0.68756 0.79679 0.0
H115 H 0.34294 0.71395 0.82356 0.0
H116 H 0.31479 0.64475 0.80748 0.0
H117 H 0.35684 0.67835 0.77635 0.0
C118 C 0.32266 0.83842 0.93333 0.0
N119 N 0.33575 0.85183 0.89533 0.0
N120 N 0.31162 0.81888 0.86769 0.0
C121 C 0.28221 0.78389 0.88755 0.0
C122 C 0.28877 0.79492 0.92969 0.0
C123 C 0.33685 0.87209 0.97184 0.0
H124 H 0.37565 0.87248 0.97728 0.0
H125 H 0.32183 0.85279 0.99939 0.0
H126 H 0.32374 0.91777 0.96774 0.0
O127 O 0.33441 0.9695 0.84271 0.0
O128 O 0.29379 0.91485 0.79535 0.0
H129 H 0.21709 0.73511 0.88796 0.0
H130 H 0.26056 0.70415 0.85691 0.0
C131 C 0.24462 0.7459 0.8667 0.0
H132 H 0.22809 0.76851 0.83896 0.0
H133 H 0.23167 0.83605 0.74824 0.0
O134 O 0.40552 0.96052 0.92182 0.0
C135 C 0.3047 0.96463 0.81154 0.0
Co136 Co 0.87779 0.5963 0.37872 0.0
Co137 Co 0.8188 0.68035 0.3174 0.0
C138 C 0.92153 0.66079 0.30972 0.0
O139 O 0.9242 0.62705 0.34123 0.0
O140 O 0.88295 0.68561 0.2969 0.0
C141 C 0.95416 0.5631 0.43716 0.0
O142 O 0.97836 0.60227 0.4179 0.0
C143 C 0.78722 0.78679 0.26989 0.0
C144 C 0.71076 0.78361 0.27738 0.0
C145 C 0.74552 0.81847 0.26226 0.0
N146 N 0.77743 0.73663 0.28969 0.0
N147 N 0.73152 0.73454 0.29315 0.0
C148 C 0.83547 0.8034 0.25867 0.0
H149 H 0.85095 0.76635 0.24196 0.0
H150 H 0.85842 0.8113 0.28739 0.0
H151 H 0.83463 0.8433 0.2389 0.0
C152 C 0.83137 0.66682 0.44011 0.0
N153 N 0.84182 0.65638 0.40091 0.0
N154 N 0.81929 0.69438 0.37592 0.0
C155 C 0.79525 0.73183 0.39908 0.0
C156 C 0.80159 0.71492 0.44018 0.0
C157 C 0.84641 0.62851 0.47626 0.0
H158 H 0.88492 0.63312 0.48341 0.0
H159 H 0.82818 0.64072 0.50412 0.0
H160 H 0.83894 0.58179 0.46825 0.0
O161 O 0.83617 0.54071 0.34704 0.0
O162 O 0.79385 0.59907 0.30308 0.0
H163 H 0.76039 0.81475 0.40742 0.0
H164 H 0.78089 0.80324 0.35671 0.0
C165 C 0.76489 0.78164 0.38281 0.0
H166 H 0.72951 0.76455 0.37232 0.0
H167 H 0.71465 0.70069 0.30797 0.0
O168 O 0.91154 0.55275 0.42481 0.0
C169 C 0.80463 0.54804 0.31749 0.0
Co170 Co 0.11963 0.60137 0.13595 0.0
Co171 Co 0.18271 0.68279 0.19578 0.0
C172 C 0.07946 0.66342 0.20654 0.0
O173 O 0.07467 0.63089 0.1745 0.0
O174 O 0.11891 0.68701 0.21823 0.0
C175 C 0.04126 0.55434 0.08455 0.0
O176 O 0.0144 0.58104 0.10993 0.0
C177 C 0.21333 0.79658 0.23163 0.0
C178 C 0.28581 0.777 0.25737 0.0
C179 C 0.25266 0.82158 0.25249 0.0
N180 N 0.22264 0.73959 0.22447 0.0
N181 N 0.26597 0.72812 0.24013 0.0
C182 C 0.16816 0.82672 0.21778 0.0
H183 H 0.14883 0.80138 0.19257 0.0
H184 H 0.17518 0.87211 0.20721 0.0
H185 H 0.14588 0.82979 0.24434 0.0
C186 C 0.16034 0.67434 0.07308 0.0
N187 N 0.15351 0.66242 0.11288 0.0
N188 N 0.18109 0.6961 0.13726 0.0
C189 C 0.20697 0.73006 0.11338 0.0
C190 C 0.19456 0.71734 0.07203 0.0
C191 C 0.13784 0.64125 0.03685 0.0
H192 H 0.09898 0.6432 0.03757 0.0
H193 H 0.1479 0.65967 0.00707 0.0
H194 H 0.14878 0.5944 0.03905 0.0
O195 O 0.16305 0.54597 0.16652 0.0
O196 O 0.20848 0.60253 0.20928 0.0
H197 H 0.26622 0.78705 0.10452 0.0
H198 H 0.22896 0.80887 0.14444 0.0
C199 C 0.24522 0.77074 0.12963 0.0
H200 H 0.26874 0.74787 0.15335 0.0
H201 H 0.28224 0.68706 0.23859 0.0
O202 O 0.08579 0.55684 0.09064 0.0
C203 C 0.19622 0.55212 0.19484 0.0
Co204 Co 0.11927 0.40814 0.63508 0.0
Co205 Co 0.18674 0.33405 0.69625 0.0
C206 C 0.08325 0.34322 0.70674 0.0
O207 O 0.07654 0.37679 0.67539 0.0
O208 O 0.12389 0.323 0.71811 0.0
C209 C 0.03883 0.43802 0.57925 0.0
O210 O 0.01555 0.40047 0.60073 0.0
C211 C 0.21931 0.22271 0.73205 0.0
C212 C 0.29109 0.2428 0.75911 0.0
C213 C 0.2584 0.19787 0.75323 0.0
N214 N 0.2282 0.27987 0.72557 0.0
N215 N 0.27111 0.2918 0.74202 0.0
C216 C 0.17469 0.19219 0.71707 0.0
H217 H 0.15048 0.19188 0.74232 0.0
H218 H 0.15719 0.21579 0.6901 0.0
H219 H 0.18195 0.14587 0.70863 0.0
C220 C 0.16518 0.33711 0.57366 0.0
N221 N 0.15687 0.34945 0.6131 0.0
N222 N 0.18599 0.31885 0.63829 0.0
C223 C 0.21389 0.28606 0.61542 0.0
C224 C 0.20146 0.29653 0.57386 0.0
C225 C 0.14213 0.36793 0.53667 0.0
H226 H 0.10353 0.3611 0.53572 0.0
H227 H 0.15531 0.35139 0.50745 0.0
H228 H 0.149 0.41588 0.53942 0.0
O229 O 0.16017 0.46805 0.66344 0.0
O230 O 0.20737 0.41721 0.70859 0.0
H231 H 0.27662 0.23426 0.60815 0.0
H232 H 0.23993 0.20983 0.64763 0.0
C233 C 0.25418 0.24911 0.6327 0.0
H234 H 0.27591 0.27439 0.65638 0.0
H235 H 0.28696 0.33311 0.74106 0.0
O236 O 0.08207 0.44817 0.58929 0.0
C237 C 0.19302 0.46592 0.69239 0.0
Co238 Co 0.88339 0.40963 0.8788 0.0
Co239 Co 0.81968 0.34065 0.81166 0.0
C240 C 0.92451 0.34933 0.80772 0.0
O241 O 0.9288 0.37838 0.84138 0.0
O242 O 0.88446 0.33094 0.79284 0.0
C243 C 0.9611 0.43632 0.93796 0.0
O244 O 0.98498 0.39881 0.91686 0.0
C245 C 0.78599 0.22936 0.77435 0.0
C246 C 0.71912 0.25424 0.73973 0.0
C247 C 0.74843 0.20676 0.74967 0.0
N248 N 0.77947 0.28762 0.77894 0.0
N249 N 0.73947 0.30229 0.75795 0.0
C250 C 0.82669 0.19555 0.79428 0.0
H251 H 0.84639 0.22248 0.81839 0.0
H252 H 0.81399 0.15441 0.80814 0.0
H253 H 0.85061 0.18294 0.77027 0.0
C254 C 0.83459 0.33665 0.93539 0.0
N255 N 0.84457 0.35099 0.89681 0.0
N256 N 0.81587 0.32316 0.86965 0.0
C257 C 0.7861 0.29035 0.89069 0.0
C258 C 0.79738 0.29777 0.93283 0.0
C259 C 0.85696 0.36441 0.97391 0.0
H260 H 0.89549 0.35693 0.97539 0.0
H261 H 0.84289 0.34605 1.00219 0.0
H262 H 0.85052 0.41257 0.97286 0.0
O263 O 0.84387 0.47085 0.85045 0.0
O264 O 0.80229 0.42536 0.79923 0.0
H265 H 0.72821 0.2803 0.84484 0.0
H266 H 0.71958 0.24563 0.89405 0.0
C267 C 0.74567 0.25572 0.8713 0.0
H268 H 0.7594 0.21362 0.8598 0.0
H269 H 0.72573 0.34486 0.75652 0.0
O270 O 0.91828 0.44739 0.9267 0.0
C271 C 0.815 0.47263 0.81844 0.0
C272 C 0.21484 0.22185 0.51909 0.0
C273 C 0.22662 0.2768 0.53786 0.0
C274 C 0.28562 0.29463 0.48783 0.0
C275 C 0.27381 0.23963 0.46909 0.0
N276 N 0.22329 0.1546 0.46181 0.0
N277 N 0.27555 0.36331 0.5441 0.0
C278 C 0.23744 0.20408 0.48344 0.0
C279 C 0.2625 0.31285 0.52315 0.0
N280 N 0.183 0.18601 0.53624 0.0
N281 N 0.31819 0.32983 0.47106 0.0
H282 H 0.25906 0.37829 0.56977 0.0
H283 H 0.30425 0.38917 0.53786 0.0
H284 H 0.33671 0.31701 0.44599 0.0
H285 H 0.32551 0.3729 0.48023 0.0
H286 H 0.17647 0.14266 0.52727 0.0
H287 H 0.16475 0.19841 0.56159 0.0
H288 H 0.19387 0.1298 0.46771 0.0
H289 H 0.23912 0.14007 0.43567 0.0
C290 C 0.76896 0.21201 0.02807 0.0
C291 C 0.72975 0.2443 0.04055 0.0
C292 C 0.73445 0.31167 0.98201 0.0
C293 C 0.77155 0.27694 0.968 0.0
N294 N 0.82058 0.19048 0.97369 0.0
N295 N 0.67129 0.32027 0.0279 0.0
C296 C 0.78783 0.22604 0.98993 0.0
C297 C 0.71144 0.29297 0.01712 0.0
N298 N 0.78848 0.16854 0.05307 0.0
N299 N 0.72212 0.36331 0.96236 0.0
H300 H 0.65472 0.30948 0.0545 0.0
H301 H 0.65276 0.35124 0.00939 0.0
H302 H 0.73681 0.37727 0.93553 0.0
H303 H 0.69942 0.39417 0.97386 0.0
H304 H 0.81999 0.14738 0.04805 0.0
H305 H 0.77505 0.15642 0.08088 0.0
H306 H 0.83056 0.14953 0.98578 0.0
H307 H 0.83532 0.19983 0.94593 0.0
C308 C 0.70642 0.73234 0.51596 0.0
C309 C 0.72539 0.77924 0.5408 0.0
C310 C 0.7959 0.7809 0.50169 0.0
C311 C 0.77547 0.73681 0.47507 0.0
N312 N 0.70976 0.67419 0.45339 0.0
N313 N 0.78481 0.85365 0.55496 0.0
C314 C 0.73024 0.71354 0.48122 0.0
C315 C 0.76926 0.80505 0.53304 0.0
N316 N 0.66631 0.70476 0.52637 0.0
N317 N 0.84116 0.79875 0.49746 0.0
H318 H 0.76684 0.87186 0.57877 0.0
H319 H 0.81371 0.87862 0.5478 0.0
H320 H 0.86119 0.78319 0.47409 0.0
H321 H 0.86016 0.82576 0.51863 0.0
H322 H 0.65339 0.66608 0.51256 0.0
H323 H 0.64737 0.71835 0.55101 0.0
H324 H 0.6748 0.66074 0.45322 0.0
H325 H 0.72682 0.65743 0.42856 0.0
C326 C 0.22292 0.8043 0.97653 0.0
C327 C 0.26176 0.7717 0.96362 0.0
C328 C 0.2548 0.70148 0.02031 0.0
C329 C 0.2184 0.73673 0.03513 0.0
N330 N 0.17049 0.82426 0.03063 0.0
N331 N 0.31788 0.69271 0.97426 0.0
C332 C 0.20313 0.78886 0.01409 0.0
C333 C 0.27842 0.72099 0.98567 0.0
N334 N 0.20459 0.84941 0.95241 0.0
N335 N 0.26636 0.64898 0.03912 0.0
H336 H 0.33488 0.70424 0.94804 0.0
H337 H 0.33547 0.66 0.99182 0.0
H338 H 0.25177 0.63463 0.06589 0.0
H339 H 0.28837 0.61783 0.02702 0.0
H340 H 0.17348 0.87134 0.95765 0.0
H341 H 0.2186 0.8622 0.92499 0.0
H342 H 0.16146 0.86603 0.0195 0.0
H343 H 0.1545 0.81357 0.05754 0.0
C344 C 0.52309 0.11331 0.24416 0.0
C345 C 0.53925 0.16695 0.22799 0.0
C346 C 0.48083 0.22105 0.26534 0.0
C347 C 0.46158 0.16662 0.27747 0.0
N348 N 0.45718 0.0609 0.2687 0.0
N349 N 0.53025 0.27171 0.21877 0.0
C350 C 0.4806 0.11273 0.26406 0.0
C351 C 0.51725 0.22095 0.23738 0.0
N352 N 0.54953 0.06317 0.24248 0.0
N353 N 0.46553 0.27249 0.28161 0.0
H354 H 0.55673 0.27298 0.19824 0.0
H355 H 0.51241 0.31147 0.22108 0.0
H356 H 0.43937 0.27395 0.30243 0.0
H357 H 0.48134 0.31307 0.27722 0.0
H358 H 0.54145 0.02435 0.25751 0.0
H359 H 0.58238 0.06215 0.23032 0.0
H360 H 0.46727 0.02148 0.25545 0.0
H361 H 0.42488 0.05816 0.28173 0.0
C362 C 0.52304 0.90807 0.74919 0.0
C363 C 0.54144 0.8546 0.73438 0.0
C364 C 0.48513 0.799 0.7731 0.0
C365 C 0.46377 0.85275 0.78406 0.0
N366 N 0.45578 0.95794 0.7739 0.0
N367 N 0.53663 0.74908 0.7278 0.0
C368 C 0.48092 0.90715 0.76978 0.0
C369 C 0.5217 0.79987 0.74526 0.0
N370 N 0.54671 0.95984 0.74506 0.0
N371 N 0.47131 0.74744 0.79013 0.0
H372 H 0.56293 0.74831 0.7071 0.0
H373 H 0.52047 0.70845 0.73113 0.0
H374 H 0.44473 0.74544 0.81054 0.0
H375 H 0.48859 0.7075 0.78674 0.0
H376 H 0.53767 0.99875 0.75957 0.0
H377 H 0.57819 0.96295 0.73079 0.0
H378 H 0.46396 0.99733 0.75966 0.0
H379 H 0.42397 0.95976 0.78777 0.0
C380 C 0.02298 0.61056 0.24869 0.0
C381 C 0.04026 0.66482 0.23432 0.0
C382 C 0.98292 0.71786 0.27364 0.0
C383 C 0.96239 0.66327 0.28379 0.0
N384 N 0.95629 0.55826 0.27195 0.0
N385 N 0.03329 0.7703 0.2288 0.0
C386 C 0.9806 0.60978 0.26884 0.0
C387 C 0.01941 0.7187 0.24571 0.0
N388 N 0.04797 0.55969 0.24457 0.0
N389 N 0.96864 0.76855 0.29166 0.0
H390 H 0.05971 0.77234 0.20826 0.0
H391 H 0.01617 0.81028 0.23248 0.0
H392 H 0.94246 0.7693 0.31249 0.0
H393 H 0.98534 0.80891 0.28874 0.0
H394 H 0.03948 0.52025 0.2586 0.0
H395 H 0.08 0.558 0.23102 0.0
H396 H 0.9655 0.51948 0.25737 0.0
H397 H 0.92412 0.55536 0.28516 0.0
C398 C 0.01497 0.29036 0.73599 0.0
C399 C 0.0456 0.3394 0.73562 0.0
C400 C 0.99492 0.39497 0.77862 0.0
C401 C 0.96618 0.34452 0.78279 0.0
N402 N 0.95509 0.24001 0.7721 0.0
N403 N 0.07334 0.42908 0.7687 0.0
C404 C 0.97785 0.2908 0.76328 0.0
C405 C 0.03834 0.38868 0.76089 0.0
N406 N 0.02107 0.24393 0.71018 0.0
N407 N 0.97969 0.44978 0.78887 0.0
H408 H 0.10684 0.42345 0.7583 0.0
H409 H 0.07084 0.4636 0.78966 0.0
H410 H 0.94596 0.45804 0.79791 0.0
H411 H 0.99832 0.48799 0.78303 0.0
H412 H 0.99696 0.2096 0.70589 0.0
H413 H 0.04899 0.24181 0.69113 0.0
H414 H 0.9648 0.19881 0.76146 0.0
H415 H 0.92957 0.23824 0.79346 0.0
C416 C 0.24473 0.90353 0.30364 0.0
C417 C 0.2601 0.88377 0.26535 0.0
C418 C 0.30102 0.97732 0.25639 0.0
C419 C 0.2858 0.99703 0.29476 0.0
N420 N 0.23602 0.98537 0.35089 0.0
N421 N 0.29427 0.90483 0.20125 0.0
C422 C 0.25532 0.96204 0.31713 0.0
C423 C 0.28547 0.92177 0.24042 0.0
N424 N 0.22163 0.86555 0.32777 0.0
N425 N 0.33232 0.01033 0.23629 0.0
H426 H 0.28453 0.86381 0.18902 0.0
H427 H 0.30787 0.93279 0.17972 0.0
H428 H 0.34341 0.05209 0.24617 0.0
H429 H 0.34961 0.99517 0.21119 0.0
H430 H 0.21417 0.87466 0.35806 0.0
H431 H 0.21206 0.82305 0.31829 0.0
H432 H 0.2101 0.96458 0.36651 0.0
H433 H 0.2432 0.02814 0.36132 0.0
C434 C 0.75214 0.98285 0.23515 0.0
C435 C 0.70836 0.98985 0.21127 0.0
C436 C 0.69801 0.88294 0.21265 0.0
C437 C 0.73672 0.87712 0.24241 0.0
N438 N 0.79292 0.92687 0.29035 0.0
N439 N 0.63215 0.94473 0.19199 0.0
C440 C 0.76188 0.92852 0.25612 0.0
C441 C 0.67905 0.93941 0.20405 0.0
N442 N 0.78516 0.02645 0.23696 0.0
N443 N 0.67915 0.8348 0.19231 0.0
H444 H 0.61435 0.98482 0.19075 0.0
H445 H 0.60961 0.90852 0.18927 0.0
H446 H 0.69374 0.7928 0.196 0.0
H447 H 0.65273 0.83826 0.16825 0.0
H448 H 0.81878 0.02081 0.25166 0.0
H449 H 0.78126 0.06511 0.21978 0.0
H450 H 0.80888 0.96462 0.30322 0.0
H451 H 0.79855 0.88926 0.30842 0.0
C452 C 0.69745 0.05152 0.74909 0.0
C453 C 0.71562 0.0281 0.71292 0.0
C454 C 0.75803 0.12034 0.70238 0.0
C455 C 0.73917 0.1442 0.73813 0.0
N456 N 0.69693 0.13113 0.7991 0.0
N457 N 0.76945 0.03418 0.6595 0.0
C458 C 0.7108 0.10919 0.76265 0.0
C459 C 0.74794 0.06078 0.69092 0.0
N460 N 0.66576 0.0194 0.76939 0.0
N461 N 0.78422 0.15541 0.67868 0.0
H462 H 0.7627 0.9906 0.65074 0.0
H463 H 0.79648 0.05315 0.64424 0.0
H464 H 0.79337 0.19856 0.68681 0.0
H465 H 0.79493 0.14327 0.6499 0.0
H466 H 0.64616 0.03619 0.79252 0.0
H467 H 0.65748 0.97579 0.76195 0.0
H468 H 0.68102 0.10612 0.82099 0.0
H469 H 0.70367 0.17423 0.80874 0.0
C470 C 0.24587 0.11371 0.80135 0.0
C471 C 0.26551 0.13542 0.76539 0.0
C472 C 0.30531 0.04105 0.75606 0.0
C473 C 0.2858 0.01946 0.7921 0.0
N474 N 0.23048 0.02906 0.84414 0.0
N475 N 0.30585 0.11743 0.70385 0.0
C476 C 0.25375 0.05398 0.81318 0.0
C477 C 0.29269 0.09825 0.74125 0.0
N478 N 0.22136 0.15092 0.82505 0.0
N479 N 0.33774 0.00802 0.73722 0.0
H480 H 0.29854 0.15969 0.69263 0.0
H481 H 0.32094 0.09039 0.68254 0.0
H482 H 0.34639 0.96496 0.74597 0.0
H483 H 0.35806 0.02411 0.71438 0.0
H484 H 0.21057 0.13989 0.85401 0.0
H485 H 0.21421 0.19462 0.81696 0.0
H486 H 0.20337 0.04973 0.85842 0.0
H487 H 0.23559 0.98529 0.85321 0.0
C488 C 0.75077 0.46106 0.31847 0.0
C489 C 0.78348 0.49456 0.29746 0.0
C490 C 0.78758 0.41614 0.24566 0.0
C491 C 0.7596 0.37974 0.26959 0.0
N492 N 0.71512 0.36564 0.32912 0.0
N493 N 0.83421 0.50507 0.24173 0.0
C494 C 0.74081 0.40194 0.30586 0.0
C495 C 0.80165 0.47276 0.26084 0.0
N496 N 0.72896 0.48638 0.3502 0.0
N497 N 0.80028 0.39668 0.20817 0.0
H498 H 0.84355 0.54786 0.25061 0.0
H499 H 0.85378 0.48879 0.21839 0.0
H500 H 0.79221 0.3547 0.19686 0.0
H501 H 0.81592 0.42317 0.18692 0.0
H502 H 0.70163 0.46677 0.36472 0.0
H503 H 0.73566 0.52963 0.35982 0.0
H504 H 0.70473 0.3766 0.35824 0.0
H505 H 0.70626 0.32266 0.32031 0.0
C506 C 0.24852 0.46395 0.19133 0.0
C507 C 0.2175 0.49811 0.2138 0.0
C508 C 0.21568 0.42034 0.26614 0.0
C509 C 0.2419 0.38338 0.24103 0.0
N510 N 0.28303 0.36801 0.17966 0.0
N511 N 0.17046 0.51019 0.272 0.0
C512 C 0.25879 0.40488 0.2038 0.0
C513 C 0.20138 0.47706 0.25144 0.0
N514 N 0.2685 0.4886 0.15841 0.0
N515 N 0.20478 0.40119 0.30424 0.0
H516 H 0.16106 0.55308 0.26343 0.0
H517 H 0.15225 0.49455 0.29637 0.0
H518 H 0.21284 0.35902 0.31519 0.0
H519 H 0.19061 0.428 0.32619 0.0
H520 H 0.29464 0.46841 0.14264 0.0
H521 H 0.26154 0.53182 0.14886 0.0
H522 H 0.29191 0.37844 0.14999 0.0
H523 H 0.29232 0.32513 0.18846 0.0
C524 C 0.18223 0.55914 0.732 0.0
C525 C 0.21178 0.52243 0.70962 0.0
C526 C 0.27185 0.60012 0.71216 0.0
C527 C 0.24317 0.63503 0.73654 0.0
N528 N 0.178 0.64051 0.77971 0.0
N529 N 0.2878 0.50351 0.68415 0.0
C530 C 0.20053 0.61218 0.74963 0.0
C531 C 0.25785 0.5413 0.70191 0.0
N532 N 0.13609 0.54464 0.73531 0.0
N533 N 0.31091 0.62417 0.69684 0.0
H534 H 0.27797 0.46117 0.67453 0.0
H535 H 0.32334 0.51255 0.68167 0.0
H536 H 0.32187 0.66718 0.70332 0.0
H537 H 0.33043 0.6032 0.67524 0.0
H538 H 0.11185 0.57306 0.74738 0.0
H539 H 0.12072 0.50665 0.72251 0.0
H540 H 0.14933 0.62265 0.79345 0.0
H541 H 0.19104 0.67881 0.79415 0.0
C542 C 0.81019 0.63888 0.80205 0.0
C543 C 0.77063 0.64591 0.77321 0.0
C544 C 0.75457 0.54033 0.77978 0.0
C545 C 0.79908 0.53193 0.80227 0.0
N546 N 0.87604 0.57569 0.82039 0.0
N547 N 0.71364 0.59725 0.72533 0.0
C548 C 0.82894 0.58187 0.80952 0.0
C549 C 0.74497 0.59499 0.75934 0.0
N550 N 0.83001 0.68626 0.8226 0.0
N551 N 0.7207 0.49779 0.7788 0.0
H552 H 0.70852 0.63485 0.70719 0.0
H553 H 0.69716 0.55975 0.71255 0.0
H554 H 0.72417 0.4593 0.79622 0.0
H555 H 0.68683 0.50453 0.76489 0.0
H556 H 0.85709 0.68188 0.846 0.0
H557 H 0.81566 0.72849 0.81984 0.0
H558 H 0.89888 0.61159 0.82325 0.0
H559 H 0.89352 0.53542 0.82027 0.0
C560 C 0.49776 0.07159 0.5029 0.0
C561 C 0.48027 0.03659 0.46869 0.0
C562 C 0.50229 0.94624 0.50712 0.0
C563 C 0.5193 0.98107 0.54153 0.0
N564 N 0.53516 0.07583 0.57299 0.0
N565 N 0.46112 0.94164 0.43873 0.0
C566 C 0.51761 0.04354 0.53959 0.0
C567 C 0.48107 0.97419 0.47104 0.0
N568 N 0.49302 0.13155 0.5009 0.0
N569 N 0.50915 0.88657 0.50801 0.0
H570 H 0.44876 0.95998 0.41046 0.0
H571 H 0.45453 0.8967 0.44032 0.0
H572 H 0.52436 0.86415 0.53373 0.0
H573 H 0.50302 0.85916 0.48245 0.0
H574 H 0.5011 0.16015 0.52543 0.0
H575 H 0.4787 0.15367 0.47471 0.0
H576 H 0.54006 0.12113 0.5729 0.0
H577 H 0.54617 0.05701 0.60145 0.0
C578 C 0.47506 0.03479 0.03905 0.0
C579 C 0.52426 0.04033 0.03544 0.0
C580 C 0.51704 0.98353 0.97072 0.0
C581 C 0.46793 0.97772 0.97443 0.0
N582 N 0.39839 0.0088 0.00707 0.0
N583 N 0.59374 0.00839 1.00284 0.0
C584 C 0.44636 1.00657 0.00708 0.0
C585 C 0.54578 0.01133 1.00279 0.0
N586 N 0.45632 0.05231 0.07475 0.0
N587 N 0.53571 0.96654 0.93485 0.0
H588 H 0.61657 0.02814 0.0251 0.0
H589 H 0.61126 0.98142 0.98303 0.0
H590 H 0.51555 0.94873 0.90965 0.0
H591 H 0.57 0.97604 0.92793 0.0
H592 H 0.42193 0.04328 0.08162 0.0
H593 H 0.47645 0.0703 0.0999 0.0
H594 H 0.38057 0.03543 0.02685 0.0
H595 H 0.37584 0.98849 0.98482 0.0
C596 C 0.00931 0.53151 0.5458 0.0
C597 C 0.01507 0.46953 0.54356 0.0
C598 C 0.98169 0.46923 0.47143 0.0
C599 C 0.97599 0.53123 0.47358 0.0
N600 N 0.98708 0.62296 0.51065 0.0
N601 N 0.00161 0.37766 0.5072 0.0
C602 C 0.99063 0.56286 0.51018 0.0
C603 C 0.99962 0.43785 0.50725 0.0
N604 N 0.01925 0.55966 0.58283 0.0
N605 N 0.97277 0.441 0.43431 0.0
H606 H 0.01668 0.35309 0.53194 0.0
H607 H 0.9858 0.35139 0.48379 0.0
H608 H 0.96048 0.46259 0.40721 0.0
H609 H 0.98094 0.39711 0.42915 0.0
H610 H 0.01197 0.60371 0.58823 0.0
H611 H 0.03201 0.53787 0.60973 0.0
H612 H 0.00191 0.64963 0.53424 0.0
H613 H 0.97088 0.6473 0.48629 0.0
C614 C 0.99978 0.5574 0.01373 0.0
C615 C 0.02018 0.52385 0.04742 0.0
C616 C 0.00133 0.43233 0.00964 0.0
C617 C 0.9836 0.46604 0.97495 0.0
N618 N 0.97424 0.55996 0.94064 0.0
N619 N 0.04626 0.43047 0.07632 0.0
C620 C 0.98492 0.52845 0.97611 0.0
C621 C 0.0229 0.46161 0.04495 0.0
N622 N 0.99465 0.61698 0.01763 0.0
N623 N 0.99547 0.37258 0.00971 0.0
H624 H 0.05987 0.4498 0.10389 0.0
H625 H 0.05472 0.38604 0.07412 0.0
H626 H 0.98034 0.34914 0.98444 0.0
H627 H 0.00231 0.34641 0.03584 0.0
H628 H 0.97496 0.6428 0.99611 0.0
H629 H 0.00743 0.64045 0.04377 0.0
H630 H 0.97929 0.60516 0.93831 0.0
H631 H 0.96445 0.54027 0.91218 0.0
loop_
_geom_bond_atom_site_label_1
_geom_bond_atom_site_label_2
_geom_bond_distance
_geom_bond_site_symmetry_2
_ccdc_geom_bond_type
Co0 O3 1.970 . S
Co0 N17 1.989 . S
Co0 O25 1.967 . S
Co0 O32 1.920 . S
Co1 O4 1.966 . S
Co1 N10 2.022 . S
Co1 N18 1.993 . S
Co1 O26 1.941 . S
C2 O3 1.258 . S
C2 O4 1.263 . S
O3 Co0 1.970 . S
O3 C2 1.258 . S
O4 Co1 1.966 . S
O4 C2 1.263 . S
C5 O6 1.235 . S
C5 O32 1.289 . S
O6 C5 1.235 . S
C7 C9 1.400 . S
C7 N10 1.351 . S
C7 C12 1.501 . S
C8 C9 1.387 . S
C8 N11 1.341 . S
C9 C7 1.400 . S
C9 C8 1.387 . S
N10 Co1 2.022 . S
N10 C7 1.351 . S
N10 N11 1.365 . S
N11 C8 1.341 . S
N11 N10 1.365 . S
N11 H31 0.862 . S
C12 C7 1.501 . S
C12 H13 0.961 . S
C12 H14 0.961 . S
C12 H15 0.960 . S
H13 C12 0.961 . S
H14 C12 0.961 . S
H15 C12 0.960 . S
C16 N17 1.342 . S
C16 C20 1.401 . S
C16 C21 1.499 . S
N17 Co0 1.989 . S
N17 C16 1.342 . S
N17 N18 1.388 . S
N18 Co1 1.993 . S
N18 N17 1.388 . S
N18 C19 1.346 . S
C19 N18 1.346 . S
C19 C20 1.396 . S
C19 C29 1.510 . S
C20 C16 1.401 . S
C20 C19 1.396 . S
C21 C16 1.499 . S
C21 H22 0.959 . S
C21 H23 0.960 . S
C21 H24 0.961 . S
H22 C21 0.959 . S
H23 C21 0.960 . S
H24 C21 0.961 . S
O25 Co0 1.967 . S
O25 C33 1.258 . S
O26 Co1 1.941 . S
O26 C33 1.266 . S
H27 C29 0.959 . S
H28 C29 0.961 . S
C29 C19 1.510 . S
C29 H27 0.959 . S
C29 H28 0.961 . S
C29 H30 0.960 . S
H30 C29 0.960 . S
H31 N11 0.862 . S
O32 Co0 1.920 . S
O32 C5 1.289 . S
C33 O25 1.258 . S
C33 O26 1.266 . S
Co34 O37 1.970 . S
Co34 N51 1.989 . S
Co34 O59 1.967 . S
Co34 O66 1.920 . S
Co35 O38 1.966 . S
Co35 N44 2.022 . S
Co35 N52 1.993 . S
Co35 O60 1.941 . S
C36 O37 1.258 . S
C36 O38 1.263 . S
O37 Co34 1.970 . S
O37 C36 1.258 . S
O38 Co35 1.966 . S
O38 C36 1.263 . S
C39 O40 1.235 . S
C39 O66 1.289 . S
O40 C39 1.235 . S
C41 C43 1.400 . S
C41 N44 1.351 . S
C41 C46 1.501 . S
C42 C43 1.387 . S
C42 N45 1.341 . S
C43 C41 1.400 . S
C43 C42 1.387 . S
N44 Co35 2.022 . S
N44 C41 1.351 . S
N44 N45 1.365 . S
N45 C42 1.341 . S
N45 N44 1.365 . S
N45 H65 0.862 . S
C46 C41 1.501 . S
C46 H47 0.961 . S
C46 H48 0.961 . S
C46 H49 0.960 . S
H47 C46 0.961 . S
H48 C46 0.961 . S
H49 C46 0.960 . S
C50 N51 1.342 . S
C50 C54 1.401 . S
C50 C55 1.499 . S
N51 Co34 1.989 . S
N51 C50 1.342 . S
N51 N52 1.388 . S
N52 Co35 1.993 . S
N52 N51 1.388 . S
N52 C53 1.346 . S
C53 N52 1.346 . S
C53 C54 1.396 . S
C53 C63 1.510 . S
C54 C50 1.401 . S
C54 C53 1.396 . S
C55 C50 1.499 . S
C55 H56 0.959 . S
C55 H57 0.960 . S
C55 H58 0.961 . S
H56 C55 0.959 . S
H57 C55 0.960 . S
H58 C55 0.961 . S
O59 Co34 1.967 . S
O59 C67 1.258 . S
O60 Co35 1.941 . S
O60 C67 1.266 . S
H61 C63 0.959 . S
H62 C63 0.961 . S
C63 C53 1.510 . S
C63 H61 0.959 . S
C63 H62 0.961 . S
C63 H64 0.960 . S
H64 C63 0.960 . S
H65 N45 0.862 . S
O66 Co34 1.920 . S
O66 C39 1.289 . S
C67 O59 1.258 . S
C67 O60 1.266 . S
Co68 O71 1.970 . S
Co68 N85 1.989 . S
Co68 O93 1.967 . S
Co68 O100 1.920 . S
Co69 O72 1.966 . S
Co69 N78 2.022 . S
Co69 N86 1.993 . S
Co69 O94 1.941 . S
C70 O71 1.258 . S
C70 O72 1.263 . S
O71 Co68 1.970 . S
O71 C70 1.258 . S
O72 Co69 1.966 . S
O72 C70 1.263 . S
C73 O74 1.235 . S
C73 O100 1.289 . S
O74 C73 1.235 . S
C75 C77 1.400 . S
C75 N78 1.351 . S
C75 C80 1.501 . S
C76 C77 1.387 . S
C76 N79 1.341 . S
C77 C75 1.400 . S
C77 C76 1.387 . S
N78 Co69 2.022 . S
N78 C75 1.351 . S
N78 N79 1.365 . S
N79 C76 1.341 . S
N79 N78 1.365 . S
N79 H99 0.862 . S
C80 C75 1.501 . S
C80 H81 0.961 . S
C80 H82 0.961 . S
C80 H83 0.960 . S
H81 C80 0.961 . S
H82 C80 0.961 . S
H83 C80 0.960 . S
C84 N85 1.342 . S
C84 C88 1.401 . S
C84 C89 1.499 . S
N85 Co68 1.989 . S
N85 C84 1.342 . S
N85 N86 1.388 . S
N86 Co69 1.993 . S
N86 N85 1.388 . S
N86 C87 1.346 . S
C87 N86 1.346 . S
C87 C88 1.396 . S
C87 C97 1.510 . S
C88 C84 1.401 . S
C88 C87 1.396 . S
C89 C84 1.499 . S
C89 H90 0.959 . S
C89 H91 0.960 . S
C89 H92 0.961 . S
H90 C89 0.959 . S
H91 C89 0.960 . S
H92 C89 0.961 . S
O93 Co68 1.967 . S
O93 C101 1.258 . S
O94 Co69 1.941 . S
O94 C101 1.266 . S
H95 C97 0.959 . S
H96 C97 0.961 . S
C97 C87 1.510 . S
C97 H95 0.959 . S
C97 H96 0.961 . S
C97 H98 0.960 . S
H98 C97 0.960 . S
H99 N79 0.862 . S
O100 Co68 1.920 . S
O100 C73 1.289 . S
C101 O93 1.258 . S
C101 O94 1.266 . S
Co102 O105 1.970 . S
Co102 N119 1.989 . S
Co102 O127 1.967 . S
Co102 O134 1.920 . S
Co103 O106 1.966 . S
Co103 N112 2.022 . S
Co103 N120 1.993 . S
Co103 O128 1.941 . S
C104 O105 1.258 . S
C104 O106 1.263 . S
O105 Co102 1.970 . S
O105 C104 1.258 . S
O106 Co103 1.966 . S
O106 C104 1.263 . S
C107 O108 1.235 . S
C107 O134 1.289 . S
O108 C107 1.235 . S
C109 C111 1.400 . S
C109 N112 1.351 . S
C109 C114 1.501 . S
C110 C111 1.387 . S
C110 N113 1.341 . S
C111 C109 1.400 . S
C111 C110 1.387 . S
N112 Co103 2.022 . S
N112 C109 1.351 . S
N112 N113 1.365 . S
N113 C110 1.341 . S
N113 N112 1.365 . S
N113 H133 0.862 . S
C114 C109 1.501 . S
C114 H115 0.961 . S
C114 H116 0.961 . S
C114 H117 0.960 . S
H115 C114 0.961 . S
H116 C114 0.961 . S
H117 C114 0.960 . S
C118 N119 1.342 . S
C118 C122 1.401 . S
C118 C123 1.499 . S
N119 Co102 1.989 . S
N119 C118 1.342 . S
N119 N120 1.388 . S
N120 Co103 1.993 . S
N120 N119 1.388 . S
N120 C121 1.346 . S
C121 N120 1.346 . S
C121 C122 1.396 . S
C121 C131 1.510 . S
C122 C118 1.401 . S
C122 C121 1.396 . S
C123 C118 1.499 . S
C123 H124 0.959 . S
C123 H125 0.960 . S
C123 H126 0.961 . S
H124 C123 0.959 . S
H125 C123 0.960 . S
H126 C123 0.961 . S
O127 Co102 1.967 . S
O127 C135 1.258 . S
O128 Co103 1.941 . S
O128 C135 1.266 . S
H129 C131 0.959 . S
H130 C131 0.961 . S
C131 C121 1.510 . S
C131 H129 0.959 . S
C131 H130 0.961 . S
C131 H132 0.960 . S
H132 C131 0.960 . S
H133 N113 0.862 . S
O134 Co102 1.920 . S
O134 C107 1.289 . S
C135 O127 1.258 . S
C135 O128 1.266 . S
Co136 O139 1.970 . S
Co136 N153 1.989 . S
Co136 O161 1.967 . S
Co136 O168 1.920 . S
Co137 O140 1.966 . S
Co137 N146 2.022 . S
Co137 N154 1.993 . S
Co137 O162 1.941 . S
C138 O139 1.258 . S
C138 O140 1.263 . S
O139 Co136 1.970 . S
O139 C138 1.258 . S
O140 Co137 1.966 . S
O140 C138 1.263 . S
C141 O142 1.235 . S
C141 O168 1.289 . S
O142 C141 1.235 . S
C143 C145 1.400 . S
C143 N146 1.351 . S
C143 C148 1.501 . S
C144 C145 1.387 . S
C144 N147 1.341 . S
C145 C143 1.400 . S
C145 C144 1.387 . S
N146 Co137 2.022 . S
N146 C143 1.351 . S
N146 N147 1.365 . S
N147 C144 1.341 . S
N147 N146 1.365 . S
N147 H167 0.862 . S
C148 C143 1.501 . S
C148 H149 0.961 . S
C148 H150 0.961 . S
C148 H151 0.960 . S
H149 C148 0.961 . S
H150 C148 0.961 . S
H151 C148 0.960 . S
C152 N153 1.342 . S
C152 C156 1.401 . S
C152 C157 1.499 . S
N153 Co136 1.989 . S
N153 C152 1.342 . S
N153 N154 1.388 . S
N154 Co137 1.993 . S
N154 N153 1.388 . S
N154 C155 1.346 . S
C155 N154 1.346 . S
C155 C156 1.396 . S
C155 C165 1.510 . S
C156 C152 1.401 . S
C156 C155 1.396 . S
C157 C152 1.499 . S
C157 H158 0.959 . S
C157 H159 0.960 . S
C157 H160 0.961 . S
H158 C157 0.959 . S
H159 C157 0.960 . S
H160 C157 0.961 . S
O161 Co136 1.967 . S
O161 C169 1.258 . S
O162 Co137 1.941 . S
O162 C169 1.266 . S
H163 C165 0.959 . S
H164 C165 0.961 . S
C165 C155 1.510 . S
C165 H163 0.959 . S
C165 H164 0.961 . S
C165 H166 0.960 . S
H166 C165 0.960 . S
H167 N147 0.862 . S
O168 Co136 1.920 . S
O168 C141 1.289 . S
C169 O161 1.258 . S
C169 O162 1.266 . S
Co170 O173 1.970 . S
Co170 N187 1.989 . S
Co170 O195 1.967 . S
Co170 O202 1.920 . S
Co171 O174 1.966 . S
Co171 N180 2.022 . S
Co171 N188 1.993 . S
Co171 O196 1.941 . S
C172 O173 1.258 . S
C172 O174 1.263 . S
O173 Co170 1.970 . S
O173 C172 1.258 . S
O174 Co171 1.966 . S
O174 C172 1.263 . S
C175 O176 1.235 . S
C175 O202 1.289 . S
O176 C175 1.235 . S
C177 C179 1.400 . S
C177 N180 1.351 . S
C177 C182 1.501 . S
C178 C179 1.387 . S
C178 N181 1.341 . S
C179 C177 1.400 . S
C179 C178 1.387 . S
N180 Co171 2.022 . S
N180 C177 1.351 . S
N180 N181 1.365 . S
N181 C178 1.341 . S
N181 N180 1.365 . S
N181 H201 0.862 . S
C182 C177 1.501 . S
C182 H183 0.961 . S
C182 H184 0.961 . S
C182 H185 0.960 . S
H183 C182 0.961 . S
H184 C182 0.961 . S
H185 C182 0.960 . S
C186 N187 1.342 . S
C186 C190 1.401 . S
C186 C191 1.499 . S
N187 Co170 1.989 . S
N187 C186 1.342 . S
N187 N188 1.388 . S
N188 Co171 1.993 . S
N188 N187 1.388 . S
N188 C189 1.346 . S
C189 N188 1.346 . S
C189 C190 1.396 . S
C189 C199 1.510 . S
C190 C186 1.401 . S
C190 C189 1.396 . S
C191 C186 1.499 . S
C191 H192 0.959 . S
C191 H193 0.960 . S
C191 H194 0.961 . S
H192 C191 0.959 . S
H193 C191 0.960 . S
H194 C191 0.961 . S
O195 Co170 1.967 . S
O195 C203 1.258 . S
O196 Co171 1.941 . S
O196 C203 1.266 . S
H197 C199 0.959 . S
H198 C199 0.961 . S
C199 C189 1.510 . S
C199 H197 0.959 . S
C199 H198 0.961 . S
C199 H200 0.960 . S
H200 C199 0.960 . S
H201 N181 0.862 . S
O202 Co170 1.920 . S
O202 C175 1.289 . S
C203 O195 1.258 . S
C203 O196 1.266 . S
Co204 O207 1.970 . S
Co204 N221 1.989 . S
Co204 O229 1.967 . S
Co204 O236 1.920 . S
Co205 O208 1.966 . S
Co205 N214 2.022 . S
Co205 N222 1.993 . S
Co205 O230 1.941 . S
C206 O207 1.258 . S
C206 O208 1.263 . S
O207 Co204 1.970 . S
O207 C206 1.258 . S
O208 Co205 1.966 . S
O208 C206 1.263 . S
C209 O210 1.235 . S
C209 O236 1.289 . S
O210 C209 1.235 . S
C211 C213 1.400 . S
C211 N214 1.351 . S
C211 C216 1.501 . S
C212 C213 1.387 . S
C212 N215 1.341 . S
C213 C211 1.400 . S
C213 C212 1.387 . S
N214 Co205 2.022 . S
N214 C211 1.351 . S
N214 N215 1.365 . S
N215 C212 1.341 . S
N215 N214 1.365 . S
N215 H235 0.862 . S
C216 C211 1.501 . S
C216 H217 0.961 . S
C216 H218 0.961 . S
C216 H219 0.960 . S
H217 C216 0.961 . S
H218 C216 0.961 . S
H219 C216 0.960 . S
C220 N221 1.342 . S
C220 C224 1.401 . S
C220 C225 1.499 . S
N221 Co204 1.989 . S
N221 C220 1.342 . S
N221 N222 1.388 . S
N222 Co205 1.993 . S
N222 N221 1.388 . S
N222 C223 1.346 . S
C223 N222 1.346 . S
C223 C224 1.396 . S
C223 C233 1.510 . S
C224 C220 1.401 . S
C224 C223 1.396 . S
C225 C220 1.499 . S
C225 H226 0.959 . S
C225 H227 0.960 . S
C225 H228 0.961 . S
H226 C225 0.959 . S
H227 C225 0.960 . S
H228 C225 0.961 . S
O229 Co204 1.967 . S
O229 C237 1.258 . S
O230 Co205 1.941 . S
O230 C237 1.266 . S
H231 C233 0.959 . S
H232 C233 0.961 . S
C233 C223 1.510 . S
C233 H231 0.959 . S
C233 H232 0.961 . S
C233 H234 0.960 . S
H234 C233 0.960 . S
H235 N215 0.862 . S
O236 Co204 1.920 . S
O236 C209 1.289 . S
C237 O229 1.258 . S
C237 O230 1.266 . S
Co238 O241 1.970 . S
Co238 N255 1.989 . S
Co238 O263 1.967 . S
Co238 O270 1.920 . S
Co239 O242 1.966 . S
Co239 N248 2.022 . S
Co239 N256 1.993 . S
Co239 O264 1.941 . S
C240 O241 1.258 . S
C240 O242 1.263 . S
O241 Co238 1.970 . S
O241 C240 1.258 . S
O242 Co239 1.966 . S
O242 C240 1.263 . S
C243 O244 1.235 . S
C243 O270 1.289 . S
O244 C243 1.235 . S
C245 C247 1.400 . S
C245 N248 1.351 . S
C245 C250 1.501 . S
C246 C247 1.387 . S
C246 N249 1.341 . S
C247 C245 1.400 . S
C247 C246 1.387 . S
N248 Co239 2.022 . S
N248 C245 1.351 . S
N248 N249 1.365 . S
N249 C246 1.341 . S
N249 N248 1.365 . S
N249 H269 0.862 . S
C250 C245 1.501 . S
C250 H251 0.961 . S
C250 H252 0.961 . S
C250 H253 0.960 . S
H251 C250 0.961 . S
H252 C250 0.961 . S
H253 C250 0.960 . S
C254 N255 1.342 . S
C254 C258 1.401 . S
C254 C259 1.499 . S
N255 Co238 1.989 . S
N255 C254 1.342 . S
N255 N256 1.388 . S
N256 Co239 1.993 . S
N256 N255 1.388 . S
N256 C257 1.346 . S
C257 N256 1.346 . S
C257 C258 1.396 . S
C257 C267 1.510 . S
C258 C254 1.401 . S
C258 C257 1.396 . S
C259 C254 1.499 . S
C259 H260 0.959 . S
C259 H261 0.960 . S
C259 H262 0.961 . S
H260 C259 0.959 . S
H261 C259 0.960 . S
H262 C259 0.961 . S
O263 Co238 1.967 . S
O263 C271 1.258 . S
O264 Co239 1.941 . S
O264 C271 1.266 . S
H265 C267 0.959 . S
H266 C267 0.961 . S
C267 C257 1.510 . S
C267 H265 0.959 . S
C267 H266 0.961 . S
C267 H268 0.960 . S
H268 C267 0.960 . S
H269 N249 0.862 . S
O270 Co238 1.920 . S
O270 C243 1.289 . S
C271 O263 1.258 . S
C271 O264 1.266 . S
C272 C273 1.363 . S
C272 C278 1.379 . S
C272 N280 1.356 . S
C273 C272 1.363 . S
C273 C279 1.363 . S
C274 C275 1.363 . S
C274 C279 1.379 . S
C274 N281 1.356 . S
C275 C274 1.363 . S
C275 C278 1.363 . S
N276 C278 1.356 . S
N276 H288 0.984 . S
N276 H289 0.985 . S
N277 C279 1.356 . S
N277 H282 0.984 . S
N277 H283 0.985 . S
C278 C272 1.379 . S
C278 C275 1.363 . S
C278 N276 1.356 . S
C279 C273 1.363 . S
C279 C274 1.379 . S
C279 N277 1.356 . S
N280 C272 1.356 . S
N280 H286 0.984 . S
N280 H287 0.984 . S
N281 C274 1.356 . S
N281 H284 0.984 . S
N281 H285 0.985 . S
H282 N277 0.984 . S
H283 N277 0.985 . S
H284 N281 0.984 . S
H285 N281 0.985 . S
H286 N280 0.984 . S
H287 N280 0.984 . S
H288 N276 0.984 . S
H289 N276 0.985 . S
C290 C291 1.363 . S
C290 C296 1.379 1_554 S
C290 N298 1.356 . S
C291 C290 1.363 . S
C291 C297 1.363 . S
C292 C293 1.363 . S
C292 C297 1.379 1_556 S
C292 N299 1.356 . S
C293 C292 1.363 . S
C293 C296 1.363 . S
N294 C296 1.356 . S
N294 H306 0.984 . S
N294 H307 0.985 . S
N295 C297 1.356 . S
N295 H300 0.984 . S
N295 H301 0.985 . S
C296 C290 1.379 1_556 S
C296 C293 1.363 . S
C296 N294 1.356 . S
C297 C291 1.363 . S
C297 C292 1.379 1_554 S
C297 N295 1.356 . S
N298 C290 1.356 . S
N298 H304 0.984 . S
N298 H305 0.984 . S
N299 C292 1.356 . S
N299 H302 0.984 . S
N299 H303 0.985 . S
H300 N295 0.984 . S
H301 N295 0.985 . S
H302 N299 0.984 . S
H303 N299 0.985 . S
H304 N298 0.984 . S
H305 N298 0.984 . S
H306 N294 0.984 . S
H307 N294 0.985 . S
C308 C309 1.363 . S
C308 C314 1.379 . S
C308 N316 1.356 . S
C309 C308 1.363 . S
C309 C315 1.363 . S
C310 C311 1.363 . S
C310 C315 1.379 . S
C310 N317 1.356 . S
C311 C310 1.363 . S
C311 C314 1.363 . S
N312 C314 1.356 . S
N312 H324 0.984 . S
N312 H325 0.985 . S
N313 C315 1.356 . S
N313 H318 0.984 . S
N313 H319 0.985 . S
C314 C308 1.379 . S
C314 C311 1.363 . S
C314 N312 1.356 . S
C315 C309 1.363 . S
C315 C310 1.379 . S
C315 N313 1.356 . S
N316 C308 1.356 . S
N316 H322 0.984 . S
N316 H323 0.984 . S
N317 C310 1.356 . S
N317 H320 0.984 . S
N317 H321 0.985 . S
H318 N313 0.984 . S
H319 N313 0.985 . S
H320 N317 0.984 . S
H321 N317 0.985 . S
H322 N316 0.984 . S
H323 N316 0.984 . S
H324 N312 0.984 . S
H325 N312 0.985 . S
C326 C327 1.340 1_554 S
C326 C332 1.403 . S
C326 N334 1.348 1_554 S
C327 C326 1.340 1_556 S
C327 C333 1.363 . S
C328 C329 1.340 1_556 S
C328 C333 1.403 . S
C328 N335 1.348 1_556 S
C329 C328 1.340 1_554 S
C329 C332 1.363 . S
N330 C332 1.356 . S
N330 H342 0.984 . S
N330 H343 0.985 . S
N331 C333 1.356 . S
N331 H336 0.984 . S
N331 H337 0.985 . S
C332 C326 1.403 . S
C332 C329 1.363 . S
C332 N330 1.356 . S
C333 C327 1.363 . S
C333 C328 1.403 . S
C333 N331 1.356 . S
N334 C326 1.348 1_556 S
N334 H340 0.984 1_556 S
N334 H341 0.984 . S
N335 C328 1.348 1_554 S
N335 H338 0.984 . S
N335 H339 0.985 1_554 S
H336 N331 0.984 . S
H337 N331 0.985 . S
H338 N335 0.984 . S
H339 N335 0.985 1_556 S
H340 N334 0.984 1_554 S
H341 N334 0.984 . S
H342 N330 0.984 . S
H343 N330 0.985 . S
C344 C345 1.363 . S
C344 C350 1.379 . S
C344 N352 1.356 . S
C345 C344 1.363 . S
C345 C351 1.363 . S
C346 C347 1.363 . S
C346 C351 1.379 . S
C346 N353 1.356 . S
C347 C346 1.363 . S
C347 C350 1.363 . S
N348 C350 1.356 . S
N348 H360 0.984 . S
N348 H361 0.985 . S
N349 C351 1.356 . S
N349 H354 0.984 . S
N349 H355 0.985 . S
C350 C344 1.379 . S
C350 C347 1.363 . S
C350 N348 1.356 . S
C351 C345 1.363 . S
C351 C346 1.379 . S
C351 N349 1.356 . S
N352 C344 1.356 . S
N352 H358 0.984 . S
N352 H359 0.984 . S
N353 C346 1.356 . S
N353 H356 0.984 . S
N353 H357 0.985 . S
H354 N349 0.984 . S
H355 N349 0.985 . S
H356 N353 0.984 . S
H357 N353 0.985 . S
H358 N352 0.984 . S
H359 N352 0.984 . S
H360 N348 0.984 . S
H361 N348 0.985 . S
C362 C363 1.363 . S
C362 C368 1.379 . S
C362 N370 1.356 . S
C363 C362 1.363 . S
C363 C369 1.363 . S
C364 C365 1.363 . S
C364 C369 1.379 . S
C364 N371 1.356 . S
C365 C364 1.363 . S
C365 C368 1.363 . S
N366 C368 1.356 . S
N366 H378 0.984 . S
N366 H379 0.985 . S
N367 C369 1.356 . S
N367 H372 0.984 . S
N367 H373 0.985 . S
C368 C362 1.379 . S
C368 C365 1.363 . S
C368 N366 1.356 . S
C369 C363 1.363 . S
C369 C364 1.379 . S
C369 N367 1.356 . S
N370 C362 1.356 . S
N370 H376 0.984 . S
N370 H377 0.984 . S
N371 C364 1.356 . S
N371 H374 0.984 . S
N371 H375 0.985 . S
H372 N367 0.984 . S
H373 N367 0.985 . S
H374 N371 0.984 . S
H375 N371 0.985 . S
H376 N370 0.984 . S
H377 N370 0.984 . S
H378 N366 0.984 . S
H379 N366 0.985 . S
C380 C381 1.363 . S
C380 C386 1.379 1_455 S
C380 N388 1.356 . S
C381 C380 1.363 . S
C381 C387 1.363 . S
C382 C383 1.363 . S
C382 C387 1.379 1_655 S
C382 N389 1.356 . S
C383 C382 1.363 . S
C383 C386 1.363 . S
N384 C386 1.356 . S
N384 H396 0.984 . S
N384 H397 0.985 . S
N385 C387 1.356 . S
N385 H390 0.984 . S
N385 H391 0.985 . S
C386 C380 1.379 1_655 S
C386 C383 1.363 . S
C386 N384 1.356 . S
C387 C381 1.363 . S
C387 C382 1.379 1_455 S
C387 N385 1.356 . S
N388 C380 1.356 . S
N388 H394 0.984 1_455 S
N388 H395 0.984 . S
N389 C382 1.356 . S
N389 H392 0.984 . S
N389 H393 0.985 1_655 S
H390 N385 0.984 . S
H391 N385 0.985 . S
H392 N389 0.984 . S
H393 N389 0.985 1_455 S
H394 N388 0.984 1_655 S
H395 N388 0.984 . S
H396 N384 0.984 . S
H397 N384 0.985 . S
C398 C399 1.363 . S
C398 C404 1.379 1_455 S
C398 N406 1.356 . S
C399 C398 1.363 . S
C399 C405 1.363 . S
C400 C401 1.363 . S
C400 C405 1.379 1_655 S
C400 N407 1.356 . S
C401 C400 1.363 . S
C401 C404 1.363 . S
N402 C404 1.356 . S
N402 H414 0.984 . S
N402 H415 0.985 . S
N403 C405 1.356 . S
N403 H408 0.984 . S
N403 H409 0.985 . S
C404 C398 1.379 1_655 S
C404 C401 1.363 . S
C404 N402 1.356 . S
C405 C399 1.363 . S
C405 C400 1.379 1_455 S
C405 N403 1.356 . S
N406 C398 1.356 . S
N406 H412 0.984 1_455 S
N406 H413 0.984 . S
N407 C400 1.356 . S
N407 H410 0.984 . S
N407 H411 0.985 1_655 S
H408 N403 0.984 . S
H409 N403 0.985 . S
H410 N407 0.984 . S
H411 N407 0.985 1_455 S
H412 N406 0.984 1_655 S
H413 N406 0.984 . S
H414 N402 0.984 . S
H415 N402 0.985 . S
C416 C417 1.363 . S
C416 C422 1.379 . S
C416 N424 1.356 . S
C417 C416 1.363 . S
C417 C423 1.363 . S
C418 C419 1.363 . S
C418 C423 1.379 1_545 S
C418 N425 1.356 . S
C419 C418 1.363 . S
C419 C422 1.363 1_545 S
N420 C422 1.356 . S
N420 H432 0.984 . S
N420 H433 0.985 1_565 S
N421 C423 1.356 . S
N421 H426 0.984 . S
N421 H427 0.985 . S
C422 C416 1.379 . S
C422 C419 1.363 1_565 S
C422 N420 1.356 . S
C423 C417 1.363 . S
C423 C418 1.379 1_565 S
C423 N421 1.356 . S
N424 C416 1.356 . S
N424 H430 0.984 . S
N424 H431 0.984 . S
N425 C418 1.356 . S
N425 H428 0.984 . S
N425 H429 0.985 . S
H426 N421 0.984 . S
H427 N421 0.985 . S
H428 N425 0.984 . S
H429 N425 0.985 . S
H430 N424 0.984 . S
H431 N424 0.984 . S
H432 N420 0.984 . S
H433 N420 0.985 1_545 S
C434 C435 1.363 . S
C434 C440 1.379 1_545 S
C434 N442 1.356 . S
C435 C434 1.363 . S
C435 C441 1.363 1_545 S
C436 C437 1.363 . S
C436 C441 1.379 . S
C436 N443 1.356 . S
C437 C436 1.363 . S
C437 C440 1.363 . S
N438 C440 1.356 . S
N438 H450 0.984 . S
N438 H451 0.985 . S
N439 C441 1.356 . S
N439 H444 0.984 1_565 S
N439 H445 0.985 . S
C440 C434 1.379 1_565 S
C440 C437 1.363 . S
C440 N438 1.356 . S
C441 C435 1.363 1_565 S
C441 C436 1.379 . S
C441 N439 1.356 . S
N442 C434 1.356 . S
N442 H448 0.984 . S
N442 H449 0.984 . S
N443 C436 1.356 . S
N443 H446 0.984 . S
N443 H447 0.985 . S
H444 N439 0.984 1_545 S
H445 N439 0.985 . S
H446 N443 0.984 . S
H447 N443 0.985 . S
H448 N442 0.984 . S
H449 N442 0.984 . S
H450 N438 0.984 . S
H451 N438 0.985 . S
C452 C453 1.363 1_545 S
C452 C458 1.379 . S
C452 N460 1.356 1_545 S
C453 C452 1.363 1_565 S
C453 C459 1.363 1_565 S
C454 C455 1.363 . S
C454 C459 1.379 . S
C454 N461 1.356 . S
C455 C454 1.363 . S
C455 C458 1.363 . S
N456 C458 1.356 . S
N456 H468 0.984 . S
N456 H469 0.985 . S
N457 C459 1.356 1_565 S
N457 H462 0.984 . S
N457 H463 0.985 . S
C458 C452 1.379 . S
C458 C455 1.363 . S
C458 N456 1.356 . S
C459 C453 1.363 1_545 S
C459 C454 1.379 . S
C459 N457 1.356 1_545 S
N460 C452 1.356 1_565 S
N460 H466 0.984 . S
N460 H467 0.984 . S
N461 C454 1.356 . S
N461 H464 0.984 . S
N461 H465 0.985 . S
H462 N457 0.984 . S
H463 N457 0.985 . S
H464 N461 0.984 . S
H465 N461 0.985 . S
H466 N460 0.984 . S
H467 N460 0.984 . S
H468 N456 0.984 . S
H469 N456 0.985 . S
C470 C471 1.363 . S
C470 C476 1.379 . S
C470 N478 1.356 . S
C471 C470 1.363 . S
C471 C477 1.363 . S
C472 C473 1.363 . S
C472 C477 1.379 1_565 S
C472 N479 1.356 . S
C473 C472 1.363 . S
C473 C476 1.363 1_565 S
N474 C476 1.356 . S
N474 H486 0.984 . S
N474 H487 0.985 1_545 S
N475 C477 1.356 . S
N475 H480 0.984 . S
N475 H481 0.985 . S
C476 C470 1.379 . S
C476 C473 1.363 1_545 S
C476 N474 1.356 . S
C477 C471 1.363 . S
C477 C472 1.379 1_545 S
C477 N475 1.356 . S
N478 C470 1.356 . S
N478 H484 0.984 . S
N478 H485 0.984 . S
N479 C472 1.356 . S
N479 H482 0.984 . S
N479 H483 0.985 . S
H480 N475 0.984 . S
H481 N475 0.985 . S
H482 N479 0.984 . S
H483 N479 0.985 . S
H484 N478 0.984 . S
H485 N478 0.984 . S
H486 N474 0.984 . S
H487 N474 0.985 1_565 S
C488 C489 1.363 . S
C488 C494 1.379 . S
C488 N496 1.356 . S
C489 C488 1.363 . S
C489 C495 1.363 . S
C490 C491 1.363 . S
C490 C495 1.379 . S
C490 N497 1.356 . S
C491 C490 1.363 . S
C491 C494 1.363 . S
N492 C494 1.356 . S
N492 H504 0.984 . S
N492 H505 0.985 . S
N493 C495 1.356 . S
N493 H498 0.984 . S
N493 H499 0.985 . S
C494 C488 1.379 . S
C494 C491 1.363 . S
C494 N492 1.356 . S
C495 C489 1.363 . S
C495 C490 1.379 . S
C495 N493 1.356 . S
N496 C488 1.356 . S
N496 H502 0.984 . S
N496 H503 0.984 . S
N497 C490 1.356 . S
N497 H500 0.984 . S
N497 H501 0.985 . S
H498 N493 0.984 . S
H499 N493 0.985 . S
H500 N497 0.984 . S
H501 N497 0.985 . S
H502 N496 0.984 . S
H503 N496 0.984 . S
H504 N492 0.984 . S
H505 N492 0.985 . S
C506 C507 1.363 . S
C506 C512 1.379 . S
C506 N514 1.356 . S
C507 C506 1.363 . S
C507 C513 1.363 . S
C508 C509 1.363 . S
C508 C513 1.379 . S
C508 N515 1.356 . S
C509 C508 1.363 . S
C509 C512 1.363 . S
N510 C512 1.356 . S
N510 H522 0.984 . S
N510 H523 0.985 . S
N511 C513 1.356 . S
N511 H516 0.984 . S
N511 H517 0.985 . S
C512 C506 1.379 . S
C512 C509 1.363 . S
C512 N510 1.356 . S
C513 C507 1.363 . S
C513 C508 1.379 . S
C513 N511 1.356 . S
N514 C506 1.356 . S
N514 H520 0.984 . S
N514 H521 0.984 . S
N515 C508 1.356 . S
N515 H518 0.984 . S
N515 H519 0.985 . S
H516 N511 0.984 . S
H517 N511 0.985 . S
H518 N515 0.984 . S
H519 N515 0.985 . S
H520 N514 0.984 . S
H521 N514 0.984 . S
H522 N510 0.984 . S
H523 N510 0.985 . S
C524 C525 1.363 . S
C524 C530 1.379 . S
C524 N532 1.356 . S
C525 C524 1.363 . S
C525 C531 1.363 . S
C526 C527 1.363 . S
C526 C531 1.379 . S
C526 N533 1.356 . S
C527 C526 1.363 . S
C527 C530 1.363 . S
N528 C530 1.356 . S
N528 H540 0.984 . S
N528 H541 0.985 . S
N529 C531 1.356 . S
N529 H534 0.984 . S
N529 H535 0.985 . S
C530 C524 1.379 . S
C530 C527 1.363 . S
C530 N528 1.356 . S
C531 C525 1.363 . S
C531 C526 1.379 . S
C531 N529 1.356 . S
N532 C524 1.356 . S
N532 H538 0.984 . S
N532 H539 0.984 . S
N533 C526 1.356 . S
N533 H536 0.984 . S
N533 H537 0.985 . S
H534 N529 0.984 . S
H535 N529 0.985 . S
H536 N533 0.984 . S
H537 N533 0.985 . S
H538 N532 0.984 . S
H539 N532 0.984 . S
H540 N528 0.984 . S
H541 N528 0.985 . S
C542 C543 1.363 . S
C542 C548 1.379 . S
C542 N550 1.356 . S
C543 C542 1.363 . S
C543 C549 1.363 . S
C544 C545 1.363 . S
C544 C549 1.379 . S
C544 N551 1.356 . S
C545 C544 1.363 . S
C545 C548 1.363 . S
N546 C548 1.356 . S
N546 H558 0.984 . S
N546 H559 0.985 . S
N547 C549 1.356 . S
N547 H552 0.984 . S
N547 H553 0.985 . S
C548 C542 1.379 . S
C548 C545 1.363 . S
C548 N546 1.356 . S
C549 C543 1.363 . S
C549 C544 1.379 . S
C549 N547 1.356 . S
N550 C542 1.356 . S
N550 H556 0.984 . S
N550 H557 0.984 . S
N551 C544 1.356 . S
N551 H554 0.984 . S
N551 H555 0.985 . S
H552 N547 0.984 . S
H553 N547 0.985 . S
H554 N551 0.984 . S
H555 N551 0.985 . S
H556 N550 0.984 . S
H557 N550 0.984 . S
H558 N546 0.984 . S
H559 N546 0.985 . S
C560 C561 1.363 . S
C560 C566 1.379 . S
C560 N568 1.356 . S
C561 C560 1.363 . S
C561 C567 1.363 1_545 S
C562 C563 1.363 . S
C562 C567 1.379 . S
C562 N569 1.356 . S
C563 C562 1.363 . S
C563 C566 1.363 1_565 S
N564 C566 1.356 . S
N564 H576 0.984 . S
N564 H577 0.985 . S
N565 C567 1.356 . S
N565 H570 0.984 . S
N565 H571 0.985 . S
C566 C560 1.379 . S
C566 C563 1.363 1_545 S
C566 N564 1.356 . S
C567 C561 1.363 1_565 S
C567 C562 1.379 . S
C567 N565 1.356 . S
N568 C560 1.356 . S
N568 H574 0.984 . S
N568 H575 0.984 . S
N569 C562 1.356 . S
N569 H572 0.984 . S
N569 H573 0.985 . S
H570 N565 0.984 . S
H571 N565 0.985 . S
H572 N569 0.984 . S
H573 N569 0.985 . S
H574 N568 0.984 . S
H575 N568 0.984 . S
H576 N564 0.984 . S
H577 N564 0.985 . S
C578 C579 1.363 . S
C578 C584 1.379 1_554 S
C578 N586 1.356 . S
C579 C578 1.363 . S
C579 C585 1.363 1_545 S
C580 C581 1.363 . S
C580 C585 1.379 1_556 S
C580 N587 1.356 . S
C581 C580 1.363 . S
C581 C584 1.363 1_565 S
N582 C584 1.356 . S
N582 H594 0.984 . S
N582 H595 0.985 . S
N583 C585 1.356 . S
N583 H588 0.984 . S
N583 H589 0.985 . S
C584 C578 1.379 1_556 S
C584 C581 1.363 1_545 S
C584 N582 1.356 . S
C585 C579 1.363 1_565 S
C585 C580 1.379 1_554 S
C585 N583 1.356 . S
N586 C578 1.356 . S
N586 H592 0.984 . S
N586 H593 0.984 . S
N587 C580 1.356 . S
N587 H590 0.984 . S
N587 H591 0.985 . S
H588 N583 0.984 . S
H589 N583 0.985 . S
H590 N587 0.984 . S
H591 N587 0.985 . S
H592 N586 0.984 . S
H593 N586 0.984 . S
H594 N582 0.984 . S
H595 N582 0.985 . S
C596 C597 1.363 1_655 S
C596 C602 1.379 . S
C596 N604 1.356 1_655 S
C597 C596 1.363 1_455 S
C597 C603 1.363 . S
C598 C599 1.363 1_455 S
C598 C603 1.379 . S
C598 N605 1.356 1_455 S
C599 C598 1.363 1_655 S
C599 C602 1.363 . S
N600 C602 1.356 . S
N600 H612 0.984 . S
N600 H613 0.985 . S
N601 C603 1.356 . S
N601 H606 0.984 . S
N601 H607 0.985 . S
C602 C596 1.379 . S
C602 C599 1.363 . S
C602 N600 1.356 . S
C603 C597 1.363 . S
C603 C598 1.379 . S
C603 N601 1.356 . S
N604 C596 1.356 1_455 S
N604 H610 0.984 1_455 S
N604 H611 0.984 . S
N605 C598 1.356 1_655 S
N605 H608 0.984 . S
N605 H609 0.985 1_655 S
H606 N601 0.984 . S
H607 N601 0.985 . S
H608 N605 0.984 . S
H609 N605 0.985 1_455 S
H610 N604 0.984 1_655 S
H611 N604 0.984 . S
H612 N600 0.984 . S
H613 N600 0.985 . S
C614 C615 1.363 . S
C614 C620 1.379 1_454 S
C614 N622 1.356 . S
C615 C614 1.363 . S
C615 C621 1.363 . S
C616 C617 1.363 . S
C616 C621 1.379 1_656 S
C616 N623 1.356 . S
C617 C616 1.363 . S
C617 C620 1.363 . S
N618 C620 1.356 . S
N618 H630 0.984 . S
N618 H631 0.985 . S
N619 C621 1.356 . S
N619 H624 0.984 . S
N619 H625 0.985 . S
C620 C614 1.379 1_656 S
C620 C617 1.363 . S
C620 N618 1.356 . S
C621 C615 1.363 . S
C621 C616 1.379 1_454 S
C621 N619 1.356 . S
N622 C614 1.356 . S
N622 H628 0.984 1_554 S
N622 H629 0.984 . S
N623 C616 1.356 . S
N623 H626 0.984 . S
N623 H627 0.985 1_556 S
H624 N619 0.984 . S
H625 N619 0.985 . S
H626 N623 0.984 . S
H627 N623 0.985 1_554 S
H628 N622 0.984 1_556 S
H629 N622 0.984 . S
H630 N618 0.984 . S
H631 N618 0.985 . S
C273 C224 1.279 . S
C275 C20 1.279 . S
C291 C54 1.279 . S
C293 C258 1.279 . S
C309 C88 1.279 . S
C311 C156 1.279 . S
C327 C122 1.279 . S
C329 C190 1.279 . S
C345 C36 1.652 . S
C347 C2 1.652 . S
C363 C70 1.652 . S
C365 C104 1.652 . S
C381 C172 1.652 . S
C383 C138 1.652 . S
C399 C206 1.652 . S
C401 C240 1.652 . S
C417 C179 1.534 . S
C419 C33 1.571 . S
C435 C67 1.571 . S
C437 C145 1.534 . S
C453 C101 1.571 . S
C455 C247 1.534 . S
C471 C213 1.534 . S
C473 C135 1.571 . S
C489 C169 1.571 . S
C491 C43 1.534 . S
C507 C203 1.571 . S
C509 C9 1.534 . S
C525 C237 1.571 . S
C527 C111 1.534 . S
C543 C77 1.534 . S
C545 C271 1.571 . S
C561 C5 1.524 . S
C563 C73 1.524 . S
C579 C39 1.524 . S
C581 C107 1.524 . S
C597 C209 1.524 . S
C599 C141 1.524 . S
C615 C175 1.524 . S
C617 C243 1.524 . S
