# Generated by pormake.
# Topology uoe, (4)-cn, num edge types: 1
# Building blocks:
#     Node 0, Type 0, BuildingBlock: CEKHIL_clean_sbu_0, # of connection points: 4
#     Node 1, Type 0, BuildingBlock: CEKHIL_clean_sbu_0, # of connection points: 4
#     Node 2, Type 0, BuildingBlock: CEKHIL_clean_sbu_0, # of connection points: 4
#     Node 3, Type 0, BuildingBlock: CEKHIL_clean_sbu_0, # of connection points: 4
#     Node 4, Type 0, BuildingBlock: CEKHIL_clean_sbu_0, # of connection points: 4
#     Node 5, Type 0, BuildingBlock: CEKHIL_clean_sbu_0, # of connection points: 4
#     Node 6, Type 0, BuildingBlock: CEKHIL_clean_sbu_0, # of connection points: 4
#     Node 7, Type 0, BuildingBlock: CEKHIL_clean_sbu_0, # of connection points: 4
#     Node 8, Type 0, BuildingBlock: CEKHIL_clean_sbu_0, # of connection points: 4
#     Node 9, Type 0, BuildingBlock: CEKHIL_clean_sbu_0, # of connection points: 4
#     Node 10, Type 0, BuildingBlock: CEKHIL_clean_sbu_0, # of connection points: 4
#     Node 11, Type 0, BuildingBlock: CEKHIL_clean_sbu_0, # of connection points: 4
#     Node 12, Type 0, BuildingBlock: CEKHIL_clean_sbu_0, # of connection points: 4
#     Node 13, Type 0, BuildingBlock: CEKHIL_clean_sbu_0, # of connection points: 4
#     Node 14, Type 0, BuildingBlock: CEKHIL_clean_sbu_0, # of connection points: 4
#     Node 15, Type 0, BuildingBlock: CEKHIL_clean_sbu_0, # of connection points: 4
#     Node 16, Type 0, BuildingBlock: CEKHIL_clean_sbu_0, # of connection points: 4
#     Node 17, Type 0, BuildingBlock: CEKHIL_clean_sbu_0, # of connection points: 4
#     Node 18, Type 0, BuildingBlock: CEKHIL_clean_sbu_0, # of connection points: 4
#     Node 19, Type 0, BuildingBlock: CEKHIL_clean_sbu_0, # of connection points: 4
#     Node 20, Type 0, BuildingBlock: CEKHIL_clean_sbu_0, # of connection points: 4
#     Node 21, Type 0, BuildingBlock: CEKHIL_clean_sbu_0, # of connection points: 4
#     Node 22, Type 0, BuildingBlock: CEKHIL_clean_sbu_0, # of connection points: 4
#     Node 23, Type 0, BuildingBlock: CEKHIL_clean_sbu_0, # of connection points: 4
#     Node 24, Type 0, BuildingBlock: CEKHIL_clean_sbu_0, # of connection points: 4
#     Node 25, Type 0, BuildingBlock: CEKHIL_clean_sbu_0, # of connection points: 4
#     Node 26, Type 0, BuildingBlock: CEKHIL_clean_sbu_0, # of connection points: 4
#     Node 27, Type 0, BuildingBlock: CEKHIL_clean_sbu_0, # of connection points: 4
#     Node 28, Type 0, BuildingBlock: CEKHIL_clean_sbu_0, # of connection points: 4
#     Node 29, Type 0, BuildingBlock: CEKHIL_clean_sbu_0, # of connection points: 4
#     Node 30, Type 0, BuildingBlock: CEKHIL_clean_sbu_0, # of connection points: 4
#     Node 31, Type 0, BuildingBlock: CEKHIL_clean_sbu_0, # of connection points: 4
#     Edge 32, Type (0, 0), BuildingBlock: XIVTED_clean_linker_0, # of connection points: 2
#     Edge 33, Type (0, 0), BuildingBlock: XIVTED_clean_linker_0, # of connection points: 2
#     Edge 34, Type (0, 0), BuildingBlock: XIVTED_clean_linker_0, # of connection points: 2
#     Edge 35, Type (0, 0), BuildingBlock: XIVTED_clean_linker_0, # of connection points: 2
#     Edge 36, Type (0, 0), BuildingBlock: XIVTED_clean_linker_0, # of connection points: 2
#     Edge 37, Type (0, 0), BuildingBlock: XIVTED_clean_linker_0, # of connection points: 2
#     Edge 38, Type (0, 0), BuildingBlock: XIVTED_clean_linker_0, # of connection points: 2
#     Edge 39, Type (0, 0), BuildingBlock: XIVTED_clean_linker_0, # of connection points: 2
#     Edge 40, Type (0, 0), BuildingBlock: XIVTED_clean_linker_0, # of connection points: 2
#     Edge 41, Type (0, 0), BuildingBlock: XIVTED_clean_linker_0, # of connection points: 2
#     Edge 42, Type (0, 0), BuildingBlock: XIVTED_clean_linker_0, # of connection points: 2
#     Edge 43, Type (0, 0), BuildingBlock: XIVTED_clean_linker_0, # of connection points: 2
#     Edge 44, Type (0, 0), BuildingBlock: XIVTED_clean_linker_0, # of connection points: 2
#     Edge 45, Type (0, 0), BuildingBlock: XIVTED_clean_linker_0, # of connection points: 2
#     Edge 46, Type (0, 0), BuildingBlock: XIVTED_clean_linker_0, # of connection points: 2
#     Edge 47, Type (0, 0), BuildingBlock: XIVTED_clean_linker_0, # of connection points: 2
#     Edge 48, Type (0, 0), BuildingBlock: XIVTED_clean_linker_0, # of connection points: 2
#     Edge 49, Type (0, 0), BuildingBlock: XIVTED_clean_linker_0, # of connection points: 2
#     Edge 50, Type (0, 0), BuildingBlock: XIVTED_clean_linker_0, # of connection points: 2
#     Edge 51, Type (0, 0), BuildingBlock: XIVTED_clean_linker_0, # of connection points: 2
#     Edge 52, Type (0, 0), BuildingBlock: XIVTED_clean_linker_0, # of connection points: 2
#     Edge 53, Type (0, 0), BuildingBlock: XIVTED_clean_linker_0, # of connection points: 2
#     Edge 54, Type (0, 0), BuildingBlock: XIVTED_clean_linker_0, # of connection points: 2
#     Edge 55, Type (0, 0), BuildingBlock: XIVTED_clean_linker_0, # of connection points: 2
#     Edge 56, Type (0, 0), BuildingBlock: XIVTED_clean_linker_0, # of connection points: 2
#     Edge 57, Type (0, 0), BuildingBlock: XIVTED_clean_linker_0, # of connection points: 2
#     Edge 58, Type (0, 0), BuildingBlock: XIVTED_clean_linker_0, # of connection points: 2
#     Edge 59, Type (0, 0), BuildingBlock: XIVTED_clean_linker_0, # of connection points: 2
#     Edge 60, Type (0, 0), BuildingBlock: XIVTED_clean_linker_0, # of connection points: 2
#     Edge 61, Type (0, 0), BuildingBlock: XIVTED_clean_linker_0, # of connection points: 2
#     Edge 62, Type (0, 0), BuildingBlock: XIVTED_clean_linker_0, # of connection points: 2
#     Edge 63, Type (0, 0), BuildingBlock: XIVTED_clean_linker_0, # of connection points: 2
#     Edge 64, Type (0, 0), BuildingBlock: XIVTED_clean_linker_0, # of connection points: 2
#     Edge 65, Type (0, 0), BuildingBlock: XIVTED_clean_linker_0, # of connection points: 2
#     Edge 66, Type (0, 0), BuildingBlock: XIVTED_clean_linker_0, # of connection points: 2
#     Edge 67, Type (0, 0), BuildingBlock: XIVTED_clean_linker_0, # of connection points: 2
#     Edge 68, Type (0, 0), BuildingBlock: XIVTED_clean_linker_0, # of connection points: 2
#     Edge 69, Type (0, 0), BuildingBlock: XIVTED_clean_linker_0, # of connection points: 2
#     Edge 70, Type (0, 0), BuildingBlock: XIVTED_clean_linker_0, # of connection points: 2
#     Edge 71, Type (0, 0), BuildingBlock: XIVTED_clean_linker_0, # of connection points: 2
#     Edge 72, Type (0, 0), BuildingBlock: XIVTED_clean_linker_0, # of connection points: 2
#     Edge 73, Type (0, 0), BuildingBlock: XIVTED_clean_linker_0, # of connection points: 2
#     Edge 74, Type (0, 0), BuildingBlock: XIVTED_clean_linker_0, # of connection points: 2
#     Edge 75, Type (0, 0), BuildingBlock: XIVTED_clean_linker_0, # of connection points: 2
#     Edge 76, Type (0, 0), BuildingBlock: XIVTED_clean_linker_0, # of connection points: 2
#     Edge 77, Type (0, 0), BuildingBlock: XIVTED_clean_linker_0, # of connection points: 2
#     Edge 78, Type (0, 0), BuildingBlock: XIVTED_clean_linker_0, # of connection points: 2
#     Edge 79, Type (0, 0), BuildingBlock: XIVTED_clean_linker_0, # of connection points: 2
#     Edge 80, Type (0, 0), BuildingBlock: XIVTED_clean_linker_0, # of connection points: 2
#     Edge 81, Type (0, 0), BuildingBlock: XIVTED_clean_linker_0, # of connection points: 2
#     Edge 82, Type (0, 0), BuildingBlock: XIVTED_clean_linker_0, # of connection points: 2
#     Edge 83, Type (0, 0), BuildingBlock: XIVTED_clean_linker_0, # of connection points: 2
#     Edge 84, Type (0, 0), BuildingBlock: XIVTED_clean_linker_0, # of connection points: 2
#     Edge 85, Type (0, 0), BuildingBlock: XIVTED_clean_linker_0, # of connection points: 2
#     Edge 86, Type (0, 0), BuildingBlock: XIVTED_clean_linker_0, # of connection points: 2
#     Edge 87, Type (0, 0), BuildingBlock: XIVTED_clean_linker_0, # of connection points: 2
#     Edge 88, Type (0, 0), BuildingBlock: XIVTED_clean_linker_0, # of connection points: 2
#     Edge 89, Type (0, 0), BuildingBlock: XIVTED_clean_linker_0, # of connection points: 2
#     Edge 90, Type (0, 0), BuildingBlock: XIVTED_clean_linker_0, # of connection points: 2
#     Edge 91, Type (0, 0), BuildingBlock: XIVTED_clean_linker_0, # of connection points: 2
#     Edge 92, Type (0, 0), BuildingBlock: XIVTED_clean_linker_0, # of connection points: 2
#     Edge 93, Type (0, 0), BuildingBlock: XIVTED_clean_linker_0, # of connection points: 2
#     Edge 94, Type (0, 0), BuildingBlock: XIVTED_clean_linker_0, # of connection points: 2
#     Edge 95, Type (0, 0), BuildingBlock: XIVTED_clean_linker_0, # of connection points: 2
# Relax obj value: 0.179
# Max RMSD: 0.206
# Mean RMSD: 0.206
data_MOF--net-uoe--node1-CEKHIL_clean_sbu_0--edge1-XIVTED_clean_linker_0
_symmetry_space_group_name_H-M    P1
_symmetry_Int_Tables_number       1
_symmetry_cell_setting            triclinic
loop_
_symmetry_equiv_pos_as_xyz
'x, y, z'
_cell_length_a     75.144874
_cell_length_b     75.125794
_cell_length_c     26.647561
_cell_angle_alpha  89.935343
_cell_angle_beta   90.026036
_cell_angle_gamma 90.116503
loop_
_atom_site_label
_atom_site_type_symbol
_atom_site_fract_x
_atom_site_fract_y
_atom_site_fract_z
_atom_type_partial_charge
Co0 Co 0.10259 0.46915 0.03322 0.0
O1 O 0.12213 0.45252 0.0345 0.0
O2 O 0.09637 0.44865 0.07348 0.0
C3 C 0.1028 0.4758 0.95124 0.0
O4 O 0.07921 0.48285 0.03889 0.0
Co5 Co 0.10899 0.50894 0.00617 0.0
O6 O 0.08258 0.51005 0.00469 0.0
C7 C 0.12101 0.49547 0.10329 0.0
C8 C 0.11238 0.44292 0.0644 0.0
C9 C 0.07284 0.49783 0.02354 0.0
O10 O 0.11244 0.48097 0.0948 0.0
O11 O 0.12251 0.50799 0.07098 0.0
O12 O 0.09527 0.46113 0.9665 0.0
O13 O 0.11175 0.48441 0.98467 0.0
Co14 Co 0.79271 0.8499 0.28185 0.0
O15 O 0.80614 0.87163 0.28446 0.0
O16 O 0.81414 0.84656 0.32179 0.0
C17 C 0.78643 0.85032 0.19955 0.0
O18 O 0.782 0.82482 0.28594 0.0
Co19 Co 0.75238 0.85244 0.25383 0.0
O20 O 0.75358 0.82616 0.25897 0.0
C21 C 0.76457 0.86531 0.35131 0.0
C22 C 0.81722 0.8634 0.3137 0.0
C23 C 0.76702 0.81739 0.27445 0.0
O24 O 0.77957 0.85758 0.34381 0.0
O25 O 0.75235 0.86628 0.318 0.0
O26 O 0.80185 0.84451 0.21447 0.0
O27 O 0.77659 0.85743 0.23356 0.0
Co28 Co 0.40853 0.54645 0.53056 0.0
O29 O 0.38942 0.56347 0.53382 0.0
O30 O 0.41554 0.5666 0.5714 0.0
C31 C 0.40676 0.54099 0.44814 0.0
O32 O 0.43169 0.53238 0.53388 0.0
Co33 Co 0.40194 0.50718 0.49913 0.0
O34 O 0.42831 0.50603 0.49513 0.0
C35 C 0.39147 0.51902 0.60003 0.0
C36 C 0.39969 0.57283 0.56279 0.0
C37 C 0.43807 0.51781 0.51594 0.0
O38 O 0.39906 0.53412 0.59206 0.0
O39 O 0.3901 0.50687 0.56659 0.0
O40 O 0.41546 0.55492 0.46381 0.0
O41 O 0.39831 0.53198 0.48168 0.0
Co42 Co 0.72067 0.15008 0.78394 0.0
O43 O 0.70367 0.1308 0.78436 0.0
O44 O 0.70024 0.15648 0.82402 0.0
C45 C 0.72735 0.15013 0.70202 0.0
O46 O 0.73472 0.17326 0.79025 0.0
Co47 Co 0.76036 0.14334 0.75715 0.0
O48 O 0.76182 0.16975 0.75581 0.0
C49 C 0.74684 0.1316 0.85457 0.0
C50 C 0.69415 0.14066 0.81401 0.0
C51 C 0.74974 0.17954 0.77484 0.0
O52 O 0.73227 0.13994 0.84553 0.0
O53 O 0.75943 0.13016 0.82255 0.0
O54 O 0.71279 0.15775 0.71748 0.0
O55 O 0.73583 0.14091 0.73517 0.0
Co56 Co 0.09806 0.53945 0.53288 0.0
O57 O 0.1194 0.55343 0.53617 0.0
O58 O 0.09492 0.56166 0.49633 0.0
C59 C 0.097 0.53111 0.61364 0.0
O60 O 0.07339 0.52827 0.5235 0.0
Co61 Co 0.10112 0.49864 0.5533 0.0
O62 O 0.07476 0.50001 0.55185 0.0
C63 C 0.11558 0.51353 0.46063 0.0
C64 C 0.11149 0.56495 0.50761 0.0
C65 C 0.06598 0.51331 0.53535 0.0
O66 O 0.10721 0.52807 0.46979 0.0
O67 O 0.11623 0.50053 0.4916 0.0
O68 O 0.09112 0.54675 0.60073 0.0
O69 O 0.10514 0.52238 0.57901 0.0
Co70 Co 0.71789 0.85818 0.78843 0.0
O71 O 0.70117 0.87757 0.78612 0.0
O72 O 0.69671 0.85097 0.75241 0.0
C73 C 0.72588 0.86048 0.86919 0.0
O74 O 0.73159 0.83476 0.78531 0.0
Co75 Co 0.75803 0.86515 0.80981 0.0
O76 O 0.7591 0.83881 0.81669 0.0
C77 C 0.74317 0.8744 0.71142 0.0
C78 C 0.69104 0.86711 0.75984 0.0
C79 C 0.74671 0.8287 0.80059 0.0
O80 O 0.72861 0.86648 0.72349 0.0
O81 O 0.75613 0.87658 0.74198 0.0
O82 O 0.71111 0.85239 0.85738 0.0
O83 O 0.73384 0.86862 0.83297 0.0
Co84 Co 0.40366 0.46989 0.03957 0.0
O85 O 0.38445 0.45284 0.03703 0.0
O86 O 0.41127 0.44865 0.00469 0.0
C87 C 0.40059 0.478 0.12014 0.0
O88 O 0.42697 0.48379 0.03687 0.0
Co89 Co 0.39671 0.51 0.0605 0.0
O90 O 0.42301 0.51128 0.06814 0.0
C91 C 0.38775 0.495 0.96176 0.0
C92 C 0.39518 0.44272 0.01175 0.0
C93 C 0.43308 0.49888 0.05219 0.0
O94 O 0.39555 0.48039 0.9739 0.0
O95 O 0.38554 0.50791 -0.00758 0.0
O96 O 0.40917 0.46347 0.10922 0.0
O97 O 0.39277 0.4858 0.08317 0.0
Co98 Co 0.78998 0.16018 0.28316 0.0
O99 O 0.8064 0.14049 0.28435 0.0
O100 O 0.81111 0.16614 0.2453 0.0
C101 C 0.7823 0.15992 0.36442 0.0
O102 O 0.7767 0.18373 0.27553 0.0
Co103 Co 0.74979 0.15434 0.30592 0.0
O104 O 0.74896 0.18077 0.3062 0.0
C105 C 0.76479 0.14109 0.21189 0.0
C106 C 0.81656 0.15013 0.25568 0.0
C107 C 0.76158 0.19031 0.28883 0.0
O108 O 0.77894 0.15025 0.22046 0.0
O109 O 0.75204 0.13968 0.24346 0.0
O110 O 0.79718 0.16741 0.35082 0.0
O111 O 0.77396 0.15123 0.32994 0.0
Co112 Co 0.90849 0.54437 0.03626 0.0
O113 O 0.88708 0.55823 0.03711 0.0
O114 O 0.91213 0.56667 0.00046 0.0
C115 C 0.90838 0.53597 0.11707 0.0
O116 O 0.93333 0.53337 0.02953 0.0
Co117 Co 0.9054 0.50352 0.05687 0.0
O118 O 0.93173 0.50514 0.05802 0.0
C119 C 0.89195 0.51823 0.96281 0.0
C120 C 0.89543 0.56988 0.00986 0.0
C121 C 0.94065 0.51848 0.04224 0.0
O122 O 0.90018 0.53287 0.97224 0.0
O123 O 0.89095 0.50534 -0.00594 0.0
O124 O 0.91444 0.55166 0.10502 0.0
O125 O 0.90081 0.52725 0.08141 0.0
Co126 Co 0.21953 0.15626 0.78707 0.0
O127 O 0.20567 0.1348 0.78655 0.0
O128 O 0.1977 0.15989 0.74922 0.0
C129 C 0.22707 0.15633 0.86852 0.0
O130 O 0.23058 0.18113 0.78121 0.0
Co131 Co 0.26009 0.15343 0.81113 0.0
O132 O 0.25823 0.17976 0.81376 0.0
C133 C 0.24663 0.14029 0.71529 0.0
C134 C 0.19443 0.14313 0.75802 0.0
C135 C 0.24514 0.18859 0.79621 0.0
O136 O 0.23174 0.14807 0.72413 0.0
O137 O 0.2593 0.13948 0.74726 0.0
O138 O 0.21151 0.16227 0.85504 0.0
O139 O 0.23612 0.14864 0.83377 0.0
Co140 Co 0.60137 0.46935 0.53907 0.0
O141 O 0.6223 0.45479 0.5416 0.0
O142 O 0.59735 0.44733 0.50265 0.0
C143 C 0.60066 0.47764 0.61982 0.0
O144 O 0.57698 0.48103 0.5302 0.0
Co145 Co 0.60522 0.51003 0.56006 0.0
O146 O 0.57884 0.50897 0.56049 0.0
C147 C 0.61873 0.49535 0.4661 0.0
C148 C 0.61383 0.44354 0.51333 0.0
C149 C 0.56981 0.49592 0.54329 0.0
O150 O 0.61061 0.48067 0.47585 0.0
O151 O 0.61954 0.50836 0.49694 0.0
O152 O 0.59436 0.46214 0.60698 0.0
O153 O 0.60903 0.48618 0.58514 0.0
Co154 Co 0.29038 0.84356 0.2751 0.0
O155 O 0.30466 0.86471 0.27856 0.0
O156 O 0.31284 0.83992 0.24035 0.0
C157 C 0.28145 0.84313 0.35545 0.0
O158 O 0.27902 0.81897 0.26573 0.0
Co159 Co 0.24946 0.84687 0.29324 0.0
O160 O 0.25057 0.82051 0.29213 0.0
C161 C 0.26519 0.86125 0.20134 0.0
C162 C 0.31633 0.85645 0.25138 0.0
C163 C 0.26393 0.81164 0.27658 0.0
O164 O 0.27958 0.85266 0.21099 0.0
O165 O 0.25205 0.86202 0.23177 0.0
O166 O 0.29707 0.83689 0.34384 0.0
O167 O 0.27305 0.85106 0.31978 0.0
Co168 Co 0.9016 0.46927 0.53084 0.0
O169 O 0.88064 0.45462 0.53263 0.0
O170 O 0.90641 0.4474 0.56732 0.0
C171 C 0.90067 0.47716 0.44977 0.0
O172 O 0.92615 0.48103 0.53494 0.0
Co173 Co 0.89771 0.50985 0.50822 0.0
O174 O 0.92405 0.50888 0.50397 0.0
C175 C 0.88602 0.49576 0.6051 0.0
C176 C 0.88974 0.44346 0.55956 0.0
C177 C 0.93323 0.49583 0.52029 0.0
O178 O 0.89373 0.48094 0.59492 0.0
O179 O 0.88473 0.50858 0.57368 0.0
O180 O 0.90717 0.46173 0.46233 0.0
O181 O 0.89301 0.48587 0.4853 0.0
Co182 Co 0.29122 0.16265 0.28595 0.0
O183 O 0.30533 0.14145 0.28129 0.0
O184 O 0.31375 0.16596 0.32073 0.0
C185 C 0.28215 0.16381 0.20584 0.0
O186 O 0.28009 0.18721 0.29667 0.0
Co187 Co 0.25025 0.15955 0.26788 0.0
O188 O 0.25163 0.18591 0.27015 0.0
C189 C 0.26591 0.14463 0.35896 0.0
C190 C 0.3171 0.14949 0.30882 0.0
C191 C 0.26506 0.19465 0.2861 0.0
O192 O 0.28037 0.15319 0.34957 0.0
O193 O 0.25277 0.14401 0.3285 0.0
O194 O 0.29787 0.16983 0.21765 0.0
O195 O 0.27379 0.15555 0.241 0.0
Co196 Co 0.59808 0.54157 0.03704 0.0
O197 O 0.61951 0.55538 0.03295 0.0
O198 O 0.5952 0.56389 0.07303 0.0
C199 C 0.59666 0.53302 0.95654 0.0
O200 O 0.57334 0.53061 0.04728 0.0
Co201 Co 0.60086 0.50068 0.01727 0.0
O202 O 0.57454 0.50227 0.01969 0.0
C203 C 0.61559 0.51558 0.10943 0.0
C204 C 0.61175 0.56703 0.06133 0.0
C205 C 0.56585 0.51564 0.03608 0.0
O206 O 0.60736 0.53021 0.10016 0.0
O207 O 0.61607 0.50254 0.07867 0.0
O208 O 0.59095 0.54875 0.96909 0.0
O209 O 0.60488 0.52436 -0.00879 0.0
Co210 Co 0.21928 0.85816 0.77301 0.0
O211 O 0.20243 0.8775 0.77286 0.0
O212 O 0.19867 0.8518 0.81249 0.0
C213 C 0.22629 0.8581 0.69125 0.0
O214 O 0.23314 0.83495 0.78004 0.0
Co215 Co 0.25911 0.86478 0.74697 0.0
O216 O 0.26031 0.83836 0.74591 0.0
C217 C 0.24557 0.87602 0.84481 0.0
C218 C 0.19274 0.86765 0.8023 0.0
C219 C 0.24817 0.82862 0.76509 0.0
O220 O 0.23077 0.86818 0.83494 0.0
O221 O 0.25833 0.87732 0.81326 0.0
O222 O 0.21163 0.85051 0.70629 0.0
O223 O 0.23466 0.86731 0.72462 0.0
Co224 Co 0.60185 0.96981 0.53223 0.0
O225 O 0.62089 0.95264 0.52991 0.0
O226 O 0.59569 0.9492 0.57205 0.0
C227 C 0.60101 0.97705 0.45062 0.0
O228 O 0.57903 0.98406 0.54197 0.0
Co229 Co 0.60891 0.0096 0.50682 0.0
O230 O 0.58254 0.01153 0.50973 0.0
C231 C 0.62233 0.99493 0.60112 0.0
C232 C 0.61134 0.94309 0.56046 0.0
C233 C 0.57283 0.99938 0.52903 0.0
O234 O 0.61299 0.98086 0.5932 0.0
O235 O 0.62379 0.00754 0.56907 0.0
O236 O 0.59328 0.96249 0.46597 0.0
O237 O 0.61064 0.98521 0.48344 0.0
Co238 Co 0.29534 0.35028 0.7848 0.0
O239 O 0.31222 0.36957 0.78771 0.0
O240 O 0.31549 0.34359 0.82603 0.0
C241 C 0.28975 0.35182 0.70243 0.0
O242 O 0.28131 0.32703 0.78866 0.0
Co243 Co 0.25602 0.35672 0.75406 0.0
O244 O 0.25484 0.33032 0.75046 0.0
C245 C 0.26822 0.36767 0.8541 0.0
C246 C 0.32153 0.35956 0.81748 0.0
C247 C 0.26665 0.3206 0.77112 0.0
O248 O 0.28313 0.35984 0.84608 0.0
O249 O 0.25595 0.36898 0.82096 0.0
O250 O 0.30374 0.34328 0.71812 0.0
O251 O 0.28078 0.3603 0.73588 0.0
Co252 Co 0.9071 0.04369 0.04181 0.0
O253 O 0.88718 0.05982 0.0421 0.0
O254 O 0.913 0.06476 0.07998 0.0
C255 C 0.90653 0.03625 0.96039 0.0
O256 O 0.93088 0.03071 0.04766 0.0
Co257 Co 0.90161 1.00351 0.01781 0.0
O258 O 0.92801 1.00332 0.01452 0.0
C259 C 0.88927 0.01767 0.11376 0.0
C260 C 0.89686 0.07004 0.07046 0.0
C261 C 0.93755 0.01588 0.03227 0.0
O262 O 0.89778 0.03219 0.10472 0.0
O263 O 0.88786 1.00501 0.08194 0.0
O264 O 0.91387 0.05121 0.974 0.0
O265 O 0.89807 0.02776 -0.00497 0.0
Co266 Co 0.22352 0.64677 0.27518 0.0
O267 O 0.20936 0.62557 0.28083 0.0
O268 O 0.20129 0.652 0.30941 0.0
C269 C 0.23188 0.64387 0.19474 0.0
O270 O 0.23471 0.6716 0.27456 0.0
Co271 Co 0.26425 0.64326 0.25459 0.0
O272 O 0.2626 0.66938 0.24414 0.0
C273 C 0.2503 0.63506 0.35481 0.0
C274 C 0.19781 0.63508 0.30503 0.0
C275 C 0.24935 0.67865 0.25864 0.0
O276 O 0.23501 0.64113 0.34152 0.0
O277 O 0.26337 0.6334 0.32443 0.0
O278 O 0.21628 0.65039 0.20532 0.0
O279 O 0.24052 0.63729 0.23215 0.0
Co280 Co 0.60007 0.03747 0.02762 0.0
O281 O 0.61967 0.05403 0.03124 0.0
O282 O 0.59458 0.05866 -0.0105 0.0
C283 C 0.59912 0.02943 0.10857 0.0
O284 O 0.57676 0.02395 0.01702 0.0
Co285 Co 0.60606 0.99726 0.04945 0.0
O286 O 0.57966 0.99611 0.04712 0.0
C287 C 0.61996 0.01272 0.95674 0.0
C288 C 0.61046 0.06415 0.00142 0.0
C289 C 0.57019 0.00865 0.0291 0.0
O290 O 0.61087 0.02681 0.96574 0.0
O291 O 0.62105 0.99968 -0.01251 0.0
O292 O 0.59182 0.04433 0.09448 0.0
O293 O 0.60844 0.02134 0.075 0.0
Co294 Co 0.21897 0.35747 0.29315 0.0
O295 O 0.20274 0.37729 0.29125 0.0
O296 O 0.19741 0.35076 0.25808 0.0
C297 C 0.22738 0.36 0.37367 0.0
O298 O 0.23202 0.33371 0.28973 0.0
Co299 Co 0.25935 0.36326 0.31333 0.0
O300 O 0.25971 0.33692 0.32056 0.0
C301 C 0.24438 0.37282 0.21509 0.0
C302 C 0.19221 0.36707 0.26545 0.0
C303 C 0.24697 0.32719 0.3047 0.0
O304 O 0.22959 0.36542 0.22759 0.0
O305 O 0.2575 0.37458 0.24534 0.0
O306 O 0.2125 0.35195 0.36277 0.0
O307 O 0.23536 0.36769 0.33678 0.0
Co308 Co 0.90549 0.97061 0.54481 0.0
O309 O 0.88423 0.9564 0.54619 0.0
O310 O 0.90923 0.94849 0.50858 0.0
C311 C 0.9059 0.9788 0.6257 0.0
O312 O 0.93019 0.98185 0.53729 0.0
Co313 Co 0.90257 0.01135 0.5661 0.0
O314 O 0.92893 0.00993 0.56672 0.0
C315 C 0.88899 0.99699 0.47168 0.0
C316 C 0.89263 0.94494 0.51859 0.0
C317 C 0.93768 0.99665 0.55014 0.0
O318 O 0.89687 0.98219 0.48123 0.0
O319 O 0.88825 0.00988 0.50292 0.0
O320 O 0.91191 0.96319 0.61301 0.0
O321 O 0.89797 0.98756 0.59068 0.0
Co322 Co 0.2993 0.66638 0.78714 0.0
O323 O 0.3149 0.64607 0.78577 0.0
O324 O 0.32032 0.67179 0.74788 0.0
C325 C 0.29268 0.6654 0.86913 0.0
O326 O 0.28675 0.69045 0.78206 0.0
Co327 Co 0.2592 0.66143 0.81394 0.0
O328 O 0.25873 0.68779 0.81101 0.0
C329 C 0.27234 0.64944 0.71622 0.0
C330 C 0.32525 0.65552 0.75718 0.0
C331 C 0.2716 0.69719 0.79442 0.0
O332 O 0.28715 0.6575 0.72468 0.0
O333 O 0.25993 0.64811 0.74888 0.0
O334 O 0.30756 0.67268 0.85475 0.0
O335 O 0.28356 0.65748 0.83485 0.0
Co336 Co 0.40877 0.04601 0.54449 0.0
O337 O 0.3871 0.05925 0.53767 0.0
O338 O 0.41286 0.06727 0.50424 0.0
C339 C 0.40659 0.04036 0.62683 0.0
O340 O 0.4339 0.03555 0.54493 0.0
Co341 Co 0.40636 0.00598 0.57548 0.0
O342 O 0.4326 0.00821 0.57963 0.0
C343 C 0.39637 0.01664 0.47348 0.0
C344 C 0.3959 0.07029 0.50958 0.0
C345 C 0.44141 0.0213 0.56182 0.0
O346 O 0.40247 0.03235 0.4821 0.0
O347 O 0.39543 1.00446 0.50699 0.0
O348 O 0.41296 0.05559 0.61194 0.0
O349 O 0.40016 0.0302 0.59244 0.0
Co350 Co 0.72073 0.65373 0.28969 0.0
O351 O 0.70576 0.63297 0.2891 0.0
O352 O 0.69911 0.6585 0.25208 0.0
C353 C 0.72826 0.65357 0.37104 0.0
O354 O 0.73291 0.67803 0.28384 0.0
Co355 Co 0.76113 0.64936 0.31372 0.0
O356 O 0.76059 0.67577 0.31575 0.0
C357 C 0.7473 0.63716 0.21717 0.0
C358 C 0.6949 0.64197 0.26098 0.0
C359 C 0.74778 0.685 0.29824 0.0
O360 O 0.73252 0.64506 0.22667 0.0
O361 O 0.76003 0.63598 0.24886 0.0
O362 O 0.71297 0.66013 0.3574 0.0
O363 O 0.737 0.64537 0.33652 0.0
Co364 Co 0.10046 0.96885 0.02837 0.0
O365 O 0.12041 0.95277 0.02875 0.0
O366 O 0.09487 0.94788 -0.01067 0.0
C367 C 0.10046 0.97607 0.10993 0.0
O368 O 0.07673 0.98187 0.02157 0.0
Co369 Co 0.10599 0.00895 0.053 0.0
O370 O 0.07957 0.00926 0.05477 0.0
C371 C 0.11886 0.9949 0.9576 0.0
C372 C 0.11098 0.94266 -0.00057 0.0
C373 C 0.07006 0.99674 0.03661 0.0
O374 O 0.11019 0.98046 0.96619 0.0
O375 O 0.12015 0.00755 -0.01052 0.0
O376 O 0.09325 0.96113 0.0956 0.0
O377 O 0.10917 0.98466 0.07596 0.0
Co378 Co 0.79298 0.34459 0.78921 0.0
O379 O 0.8066 0.36618 0.79122 0.0
O380 O 0.81518 0.3416 0.75259 0.0
C381 C 0.7848 0.34393 0.87007 0.0
O382 O 0.78216 0.31968 0.7812 0.0
Co383 Co 0.75216 0.34732 0.81036 0.0
O384 O 0.75384 0.321 0.80893 0.0
C385 C 0.76672 0.36174 0.71738 0.0
C386 C 0.81819 0.35829 0.76292 0.0
C387 C 0.76722 0.31223 0.79304 0.0
O388 O 0.78126 0.35326 0.72592 0.0
O389 O 0.75394 0.36254 0.74894 0.0
O390 O 0.80052 0.33819 0.85753 0.0
O391 O 0.77594 0.35168 0.835 0.0
Co392 Co 0.40542 0.96449 0.02882 0.0
O393 O 0.38394 0.95078 0.03329 0.0
O394 O 0.41023 0.94154 0.05995 0.0
C395 C 0.40172 0.97419 0.94972 0.0
O396 O 0.43052 0.97511 0.02862 0.0
Co397 Co 0.40276 0.00558 0.01288 0.0
O398 O 0.42873 1.00338 0.00083 0.0
C399 C 0.39393 0.99004 0.11104 0.0
C400 C 0.3932 0.93858 0.05567 0.0
C401 C 0.43779 0.98977 0.01368 0.0
O402 O 0.40028 0.97498 0.09678 0.0
O403 O 0.39226 1.00343 0.08169 0.0
O404 O 0.4084 0.95845 0.95761 0.0
O405 O 0.39593 0.98233 -0.01116 0.0
Co406 Co 0.79167 0.66437 0.78849 0.0
O407 O 0.80582 0.64317 0.78603 0.0
O408 O 0.81394 0.66799 0.82442 0.0
C409 C 0.7832 0.66487 0.70781 0.0
O410 O 0.78032 0.68898 0.79703 0.0
Co411 Co 0.75085 0.6607 0.76832 0.0
O412 O 0.75196 0.68707 0.76978 0.0
C413 C 0.76609 0.64639 0.86063 0.0
C414 C 0.81734 0.6514 0.81393 0.0
C415 C 0.76521 0.69611 0.78559 0.0
O416 O 0.78039 0.6553 0.85198 0.0
O417 O 0.75322 0.64535 0.82935 0.0
O418 O 0.79881 0.67104 0.72009 0.0
O419 O 0.77463 0.65685 0.74302 0.0
Co420 Co 0.10219 0.03974 0.52782 0.0
O421 O 0.12328 0.05418 0.52532 0.0
O422 O 0.09848 0.06175 0.56455 0.0
C423 C 0.10126 0.03164 0.44694 0.0
O424 O 0.0777 0.02821 0.53669 0.0
Co425 Co 0.10549 0.99906 0.50644 0.0
O426 O 0.07911 1.00013 0.50731 0.0
C427 C 0.1195 0.01358 0.60016 0.0
C428 C 0.11498 0.06546 0.55372 0.0
C429 C 0.07031 0.01331 0.52432 0.0
O430 O 0.11139 0.02826 0.5908 0.0
O431 O 0.12015 1.00063 0.56908 0.0
O432 O 0.09519 0.04717 0.46016 0.0
O433 O 0.10957 0.02291 0.48136 0.0
Co434 Co 0.72053 0.3552 0.28528 0.0
O435 O 0.70625 0.37635 0.28569 0.0
O436 O 0.6985 0.35087 0.32141 0.0
C437 C 0.72866 0.3556 0.20445 0.0
O438 O 0.73185 0.33052 0.29055 0.0
Co439 Co 0.76121 0.35871 0.26374 0.0
O440 O 0.75966 0.33238 0.25933 0.0
C441 C 0.74705 0.37073 0.35999 0.0
C442 C 0.69487 0.36754 0.31269 0.0
C443 C 0.74652 0.3233 0.27572 0.0
O444 O 0.73214 0.36319 0.3494 0.0
O445 O 0.75999 0.37182 0.32896 0.0
O446 O 0.71308 0.34937 0.21684 0.0
O447 O 0.73737 0.36338 0.23985 0.0
H448 H 0.96602 0.54258 0.00919 0.0
H449 H 0.04701 0.47534 0.05978 0.0
H450 H 0.9602 0.48923 0.06769 0.0
H451 H 0.05419 0.52776 -0.00394 0.0
H452 H 0.01508 0.48077 0.06426 0.0
H453 H 0.99834 0.53796 0.00501 0.0
C454 C 0.97148 0.52993 0.02113 0.0
C455 C 0.96028 0.5163 0.0388 0.0
C456 C 0.02363 0.49111 0.04932 0.0
C457 C 0.99721 0.51095 0.0342 0.0
C458 C 0.04192 0.48801 0.0468 0.0
C459 C 0.0534 0.50108 0.02749 0.0
C460 C 0.01666 0.50742 0.03243 0.0
C461 C 0.04591 0.51726 0.01123 0.0
C462 C 0.98992 0.5273 0.01874 0.0
C463 C 0.96818 0.50018 0.05375 0.0
N464 N 0.02803 0.51996 0.01404 0.0
N465 N 0.98606 0.49799 0.05111 0.0
H466 H 0.79083 0.79247 0.31087 0.0
H467 H 0.72472 0.7102 0.26094 0.0
H468 H 0.73817 0.79742 0.24723 0.0
H469 H 0.77696 0.70451 0.32674 0.0
H470 H 0.72966 0.7423 0.25527 0.0
H471 H 0.78627 0.76018 0.31671 0.0
C472 C 0.77835 0.78683 0.29812 0.0
C473 C 0.76489 0.79777 0.27863 0.0
C474 C 0.74004 0.73402 0.27097 0.0
C475 C 0.75959 0.76086 0.28513 0.0
C476 C 0.73722 0.71566 0.27421 0.0
C477 C 0.75042 0.70456 0.29432 0.0
C478 C 0.75618 0.74139 0.28796 0.0
C479 C 0.76637 0.71248 0.31088 0.0
C480 C 0.77574 0.76839 0.30148 0.0
C481 C 0.74896 0.78964 0.26271 0.0
N482 N 0.76879 0.73037 0.30733 0.0
N483 N 0.74679 0.77175 0.26631 0.0
H484 H 0.46351 0.53915 0.55883 0.0
H485 H 0.54479 0.47298 0.50304 0.0
H486 H 0.45702 0.48884 0.48258 0.0
H487 H 0.55014 0.52461 0.57277 0.0
H488 H 0.51262 0.47798 0.49613 0.0
H489 H 0.49533 0.53348 0.56526 0.0
C490 C 0.46874 0.5269 0.5434 0.0
C491 C 0.45748 0.51447 0.52013 0.0
C492 C 0.52089 0.48818 0.51291 0.0
C493 C 0.49411 0.50786 0.52739 0.0
C494 C 0.53925 0.48533 0.5169 0.0
C495 C 0.55027 0.49838 0.53845 0.0
C496 C 0.5135 0.50416 0.53072 0.0
C497 C 0.54229 0.51414 0.55573 0.0
C498 C 0.48697 0.52366 0.54709 0.0
C499 C 0.46514 0.49882 0.5009 0.0
N500 N 0.52447 0.51655 0.5515 0.0
N501 N 0.48296 0.49596 0.50496 0.0
H502 H 0.7801 0.19802 0.74951 0.0
H503 H 0.73727 0.29274 0.81172 0.0
H504 H 0.72705 0.20556 0.80802 0.0
H505 H 0.79202 0.28679 0.76531 0.0
H506 H 0.73349 0.26077 0.80774 0.0
H507 H 0.78488 0.2302 0.75313 0.0
C508 C 0.76946 0.20639 0.76326 0.0
C509 C 0.7531 0.19898 0.77846 0.0
C510 C 0.74636 0.26638 0.79843 0.0
C511 C 0.75854 0.2359 0.78242 0.0
C512 C 0.74857 0.28474 0.80061 0.0
C513 C 0.76506 0.29261 0.78896 0.0
C514 C 0.7607 0.25556 0.78443 0.0
C515 C 0.77908 0.28136 0.77465 0.0
C516 C 0.77222 0.22479 0.76527 0.0
C517 C 0.73987 0.21057 0.79591 0.0
N518 N 0.77659 0.26338 0.77282 0.0
N519 N 0.74287 0.2284 0.79727 0.0
H520 H 0.04091 0.53799 0.50518 0.0
H521 H 0.95857 0.47152 0.54972 0.0
H522 H 0.04622 0.48349 0.55485 0.0
H523 H 0.95279 0.52536 0.49506 0.0
H524 H 0.99083 0.47579 0.5518 0.0
H525 H 0.0086 0.53373 0.50066 0.0
C526 C 0.03534 0.52514 0.515 0.0
C527 C 0.04639 0.51112 0.53056 0.0
C528 C 0.98248 0.48667 0.53933 0.0
C529 C 0.00941 0.50616 0.52562 0.0
C530 C 0.96404 0.48423 0.5382 0.0
C531 C 0.95287 0.49808 0.52226 0.0
C532 C 0.98986 0.50308 0.52449 0.0
C533 C 0.96081 0.51427 0.50768 0.0
C534 C 0.01688 0.52271 0.51246 0.0
C535 C 0.03834 0.49475 0.54278 0.0
N536 N 0.97877 0.51631 0.5092 0.0
N537 N 0.02041 0.49276 0.54015 0.0
H538 H 0.73492 0.71508 0.76744 0.0
H539 H 0.77704 0.81056 0.82739 0.0
H540 H 0.78959 0.72195 0.81398 0.0
H541 H 0.72371 0.80221 0.77151 0.0
H542 H 0.78188 0.77839 0.8256 0.0
H543 H 0.73066 0.74698 0.77217 0.0
C544 C 0.7461 0.72326 0.77876 0.0
C545 C 0.76271 0.71568 0.79016 0.0
C546 C 0.76914 0.78361 0.81372 0.0
C547 C 0.7578 0.75263 0.79557 0.0
C548 C 0.76633 0.802 0.81469 0.0
C549 C 0.74991 0.8092 0.79945 0.0
C550 C 0.75543 0.77228 0.79751 0.0
C551 C 0.73658 0.79737 0.78351 0.0
C552 C 0.74361 0.74159 0.7814 0.0
C553 C 0.77657 0.72715 0.80476 0.0
N554 N 0.73964 0.77955 0.78299 0.0
N555 N 0.77381 0.74508 0.80697 0.0
H556 H 0.54636 0.48543 0.02098 0.0
H557 H 0.45159 0.52921 0.07811 0.0
H558 H 0.54054 0.54062 0.06333 0.0
H559 H 0.45925 0.47556 0.02426 0.0
H560 H 0.48387 0.53369 0.07648 0.0
H561 H 0.51441 0.48168 0.02628 0.0
C562 C 0.53839 0.49683 0.0315 0.0
C563 C 0.54628 0.51344 0.04148 0.0
C564 C 0.47845 0.52096 0.06502 0.0
C565 C 0.50927 0.50912 0.04754 0.0
C566 C 0.46001 0.51836 0.0659 0.0
C567 C 0.45261 0.50196 0.05118 0.0
C568 C 0.4896 0.50705 0.04945 0.0
C569 C 0.46425 0.48844 0.03584 0.0
C570 C 0.52004 0.49464 0.03447 0.0
C571 C 0.53508 0.52759 0.0552 0.0
N572 N 0.4821 0.49129 0.03543 0.0
N573 N 0.51712 0.52512 0.05772 0.0
H574 H 0.7753 0.30363 0.24651 0.0
H575 H 0.73177 0.20938 0.31414 0.0
H576 H 0.72237 0.29797 0.30785 0.0
H577 H 0.78486 0.21589 0.25471 0.0
H578 H 0.72771 0.24157 0.31034 0.0
H579 H 0.77861 0.27148 0.24805 0.0
C580 C 0.76433 0.29566 0.26042 0.0
C581 C 0.7485 0.30364 0.2772 0.0
C582 C 0.74023 0.23595 0.29805 0.0
C583 C 0.7523 0.26652 0.27891 0.0
C584 C 0.74258 0.21753 0.30012 0.0
C585 C 0.75873 0.20982 0.28483 0.0
C586 C 0.75412 0.24683 0.28058 0.0
C587 C 0.7722 0.22116 0.267 0.0
C588 C 0.76626 0.27723 0.2612 0.0
C589 C 0.73482 0.29247 0.29461 0.0
N590 N 0.76959 0.23906 0.26548 0.0
N591 N 0.73703 0.27448 0.29504 0.0
H592 H 0.2874 0.29536 0.81702 0.0
H593 H 0.22273 0.21335 0.75255 0.0
H594 H 0.23809 0.30143 0.73545 0.0
H595 H 0.27251 0.20876 0.8326 0.0
H596 H 0.22749 0.24563 0.7468 0.0
H597 H 0.28161 0.26353 0.82381 0.0
C598 C 0.27535 0.29004 0.80048 0.0
C599 C 0.26324 0.30118 0.7756 0.0
C600 C 0.23733 0.23751 0.76565 0.0
C601 C 0.25649 0.26454 0.78325 0.0
C602 C 0.23461 0.21908 0.769 0.0
C603 C 0.24725 0.20823 0.79289 0.0
C604 C 0.25278 0.24512 0.78645 0.0
C605 C 0.2624 0.21646 0.81351 0.0
C606 C 0.27203 0.27181 0.80441 0.0
C607 C 0.24782 0.29341 0.75505 0.0
N608 N 0.26472 0.23433 0.80975 0.0
N609 N 0.2449 0.27558 0.75929 0.0
H610 H 0.23422 0.79188 0.29726 0.0
H611 H 0.27804 0.69831 0.227 0.0
H612 H 0.28825 0.78662 0.24403 0.0
H613 H 0.22527 0.704 0.28912 0.0
H614 H 0.28158 0.73056 0.22898 0.0
H615 H 0.23043 0.75987 0.29051 0.0
C616 C 0.24534 0.78403 0.28403 0.0
C617 C 0.26165 0.79208 0.27133 0.0
C618 C 0.26922 0.72477 0.24212 0.0
C619 C 0.25729 0.7551 0.26356 0.0
C620 C 0.26715 0.70631 0.24101 0.0
C621 C 0.25132 0.69832 0.25818 0.0
C622 C 0.25538 0.73543 0.26046 0.0
C623 C 0.23771 0.70949 0.27563 0.0
C624 C 0.24312 0.76567 0.28023 0.0
C625 C 0.27547 0.78106 0.25436 0.0
N626 N 0.24008 0.72744 0.27641 0.0
N627 N 0.27298 0.76313 0.25105 0.0
H628 H 0.28992 0.21963 0.31647 0.0
H629 H 0.22304 0.30153 0.27584 0.0
H630 H 0.23521 0.21442 0.26869 0.0
H631 H 0.27682 0.30805 0.33024 0.0
H632 H 0.22759 0.26944 0.27343 0.0
H633 H 0.28569 0.25195 0.32262 0.0
C634 C 0.27704 0.22522 0.3074 0.0
C635 C 0.26295 0.21421 0.29186 0.0
C636 C 0.23841 0.27787 0.28595 0.0
C637 C 0.25803 0.25115 0.29867 0.0
C638 C 0.23582 0.29625 0.28727 0.0
C639 C 0.24957 0.3076 0.30314 0.0
C640 C 0.25488 0.27067 0.30049 0.0
C641 C 0.26583 0.29987 0.31763 0.0
C642 C 0.27463 0.24367 0.31089 0.0
C643 C 0.24653 0.22227 0.28067 0.0
N644 N 0.26804 0.28191 0.31588 0.0
N645 N 0.24458 0.24016 0.28419 0.0
H646 H 0.29441 0.7227 0.75656 0.0
H647 H 0.22626 0.80294 0.80503 0.0
H648 H 0.24215 0.71624 0.82167 0.0
H649 H 0.27796 0.81003 0.73692 0.0
H650 H 0.23218 0.77111 0.81228 0.0
H651 H 0.28895 0.75475 0.74974 0.0
C652 C 0.28181 0.72797 0.76942 0.0
C653 C 0.26873 0.71667 0.78964 0.0
C654 C 0.24224 0.77963 0.79575 0.0
C655 C 0.26241 0.75336 0.78201 0.0
C656 C 0.23887 0.79784 0.79162 0.0
C657 C 0.25161 0.80926 0.77031 0.0
C658 C 0.25849 0.7727 0.77847 0.0
C659 C 0.26771 0.80179 0.75364 0.0
C660 C 0.27869 0.74628 0.7655 0.0
C661 C 0.25265 0.72433 0.80568 0.0
N662 N 0.27067 0.78401 0.75805 0.0
N663 N 0.24997 0.74213 0.80152 0.0
H664 H 0.46611 0.0439 0.51859 0.0
H665 H 0.54779 0.97829 0.57493 0.0
H666 H 0.46168 0.99439 0.60028 0.0
H667 H 0.55395 0.029 0.50031 0.0
H668 H 0.51616 0.98443 0.58532 0.0
H669 H 0.49834 0.03926 0.51261 0.0
C670 C 0.47187 0.03213 0.53547 0.0
C671 C 0.46107 0.01948 0.55968 0.0
C672 C 0.52443 0.99426 0.56676 0.0
C673 C 0.49791 0.01406 0.55283 0.0
C674 C 0.54253 0.99073 0.56075 0.0
C675 C 0.55362 1.00311 0.53658 0.0
C676 C 0.51725 0.01025 0.54832 0.0
C677 C 0.54596 0.01904 0.51918 0.0
C678 C 0.49027 0.02947 0.53198 0.0
C679 C 0.46935 1.00447 0.58088 0.0
N680 N 0.52826 0.02212 0.52524 0.0
N681 N 0.48719 1.00218 0.57678 0.0
H682 H 0.96329 0.03915 0.06575 0.0
H683 H 0.04435 0.97358 0.00236 0.0
H684 H 0.95658 0.98659 0.00283 0.0
H685 H 0.05105 0.02616 0.06514 0.0
H686 H 0.01216 0.9782 0.00154 0.0
H687 H 0.9955 0.03462 0.06591 0.0
C688 C 0.96854 0.02664 0.0521 0.0
C689 C 0.95712 0.01325 0.03426 0.0
C690 C 0.02069 0.98873 0.01542 0.0
C691 C 0.99407 0.008 0.03415 0.0
C692 C 0.0391 0.98611 0.01582 0.0
C693 C 0.05051 0.99947 0.03389 0.0
C694 C 0.01358 1.00482 0.03326 0.0
C695 C 0.04285 0.01544 0.05087 0.0
C696 C 0.98696 0.02407 0.05212 0.0
C697 C 0.96479 0.99732 0.01698 0.0
N698 N 0.02491 0.01764 0.05021 0.0
N699 N 0.98273 0.99517 0.01732 0.0
H700 H 0.54495 0.03134 -0.00943 0.0
H701 H 0.46301 0.96546 0.04474 0.0
H702 H 0.55108 0.97865 0.05323 0.0
H703 H 0.45765 0.01791 0.97992 0.0
H704 H 0.49538 0.96944 0.04537 0.0
H705 H 0.51297 0.02608 0.98364 0.0
C706 C 0.53962 0.01865 0.00274 0.0
C707 C 0.5508 0.00547 0.02271 0.0
C708 C 0.48709 0.98004 0.03087 0.0
C709 C 0.51406 0.99936 0.01499 0.0
C710 C 0.46859 0.97776 0.03046 0.0
C711 C 0.4575 0.99139 0.01255 0.0
C712 C 0.49456 0.99605 0.01326 0.0
C713 C 0.46557 0.00704 -0.00557 0.0
C714 C 0.52132 0.01564 -0.00123 0.0
C715 C 0.54304 0.98925 0.03771 0.0
N716 N 0.48354 0.00894 -0.00457 0.0
N717 N 0.52518 0.98669 0.03372 0.0
H718 H 0.04563 0.03767 0.55778 0.0
H719 H 0.96234 0.97208 0.51758 0.0
H720 H 0.05023 0.98383 0.50256 0.0
H721 H 0.95788 0.0259 0.57309 0.0
H722 H 0.99463 0.97607 0.51198 0.0
H723 H 0.01341 0.03352 0.56421 0.0
C724 C 0.03992 0.02499 0.54708 0.0
C725 C 0.05074 0.01112 0.52954 0.0
C726 C 0.98655 0.98699 0.52538 0.0
C727 C 0.01381 0.00627 0.53671 0.0
C728 C 0.9681 0.98472 0.52855 0.0
C729 C 0.95729 0.99865 0.54582 0.0
C730 C 0.99427 1.00331 0.53957 0.0
C731 C 0.96559 0.01474 0.55953 0.0
C732 C 0.0215 0.02262 0.55072 0.0
C733 C 0.0425 0.99496 0.51624 0.0
N734 N 0.98352 0.01661 0.55611 0.0
N735 N 0.02458 0.993 0.52006 0.0
H736 H 0.08795 0.45985 0.86849 0.0
H737 H 0.09016 0.54837 0.70194 0.0
H738 H 0.10942 0.5098 0.92114 0.0
H739 H 0.09707 0.496 0.63862 0.0
H740 H 0.08842 0.53481 0.78582 0.0
H741 H 0.08289 0.47362 0.78589 0.0
C742 C 0.09149 0.47369 0.8628 0.0
C743 C 0.09927 0.48365 0.90151 0.0
C744 C 0.09012 0.52634 0.7533 0.0
C745 C 0.09314 0.49945 0.80833 0.0
C746 C 0.09107 0.53404 0.70564 0.0
C747 C 0.09404 0.52329 0.66358 0.0
C748 C 0.0918 0.50781 0.75845 0.0
C749 C 0.09504 0.50478 0.6702 0.0
C750 C 0.08857 0.48151 0.8159 0.0
C751 C 0.1035 0.50157 0.89235 0.0
N752 N 0.09396 0.4976 0.71682 0.0
N753 N 0.10036 0.50891 0.84673 0.0
H754 H 0.71619 0.83847 0.94677 0.0
H755 H 0.80121 0.86389 0.11441 0.0
H756 H 0.75643 0.87624 0.9012 0.0
H757 H 0.75666 0.83323 0.16834 0.0
H758 H 0.78712 0.86514 0.03119 0.0
H759 H 0.73265 0.83342 0.02483 0.0
C760 C 0.7284 0.84579 0.95338 0.0
C761 C 0.73489 0.85788 0.91775 0.0
C762 C 0.78057 0.8579 0.06112 0.0
C763 C 0.75387 0.85205 0.00634 0.0
C764 C 0.78867 0.85708 0.10828 0.0
C765 C 0.77998 0.8485 0.14794 0.0
C766 C 0.76379 0.84993 0.05394 0.0
C767 C 0.76366 0.84011 0.13877 0.0
C768 C 0.73785 0.84283 -0.00228 0.0
C769 C 0.75092 0.86683 0.9278 0.0
N770 N 0.75604 0.84106 0.09274 0.0
N771 N 0.75985 0.86375 0.97118 0.0
H772 H 0.377 0.50132 0.15836 0.0
H773 H 0.43575 0.53093 0.3931 0.0
H774 H 0.42684 0.47554 0.19206 0.0
H775 H 0.37864 0.53548 0.38795 0.0
H776 H 0.43499 0.51521 0.31176 0.0
H777 H 0.37952 0.51835 0.23579 0.0
C778 C 0.38843 0.49916 0.1824 0.0
C779 C 0.40163 0.48689 0.16925 0.0
C780 C 0.42269 0.51988 0.32827 0.0
C781 C 0.40479 0.50662 0.25743 0.0
C782 C 0.42315 0.52902 0.37404 0.0
C783 C 0.40723 0.53465 0.39628 0.0
C784 C 0.40622 0.51672 0.30482 0.0
C785 C 0.39117 0.53147 0.3714 0.0
C786 C 0.38988 0.50891 0.22648 0.0
C787 C 0.41625 0.4847 0.20145 0.0
N788 N 0.39107 0.52278 0.32687 0.0
N789 N 0.41752 0.49459 0.24415 0.0
H790 H 0.71144 0.16549 0.62019 0.0
H791 H 0.79958 0.16659 0.453 0.0
H792 H 0.76136 0.14371 0.67159 0.0
H793 H 0.74735 0.158 0.39012 0.0
H794 H 0.78618 0.16701 0.53729 0.0
H795 H 0.72517 0.1713 0.53803 0.0
C796 C 0.72527 0.16202 0.6143 0.0
C797 C 0.73523 0.15395 0.65252 0.0
C798 C 0.77772 0.16525 0.50476 0.0
C799 C 0.751 0.16094 0.55982 0.0
C800 C 0.78532 0.16505 0.45689 0.0
C801 C 0.77457 0.16202 0.41479 0.0
C802 C 0.75927 0.16281 0.51001 0.0
C803 C 0.75614 0.16014 0.42165 0.0
C804 C 0.73307 0.16537 0.56765 0.0
C805 C 0.75314 0.14984 0.64312 0.0
N806 N 0.74906 0.16056 0.4684 0.0
N807 N 0.76047 0.15342 0.59773 0.0
H808 H 0.91381 0.55269 0.20723 0.0
H809 H 0.91539 0.4622 0.3656 0.0
H810 H 0.90869 0.50072 0.13985 0.0
H811 H 0.89428 0.51154 0.42311 0.0
H812 H 0.9209 0.47704 0.28484 0.0
H813 H 0.9149 0.5384 0.29033 0.0
C814 C 0.91317 0.53831 0.20988 0.0
C815 C 0.91091 0.52787 0.16684 0.0
C816 C 0.91517 0.48456 0.31547 0.0
C817 C 0.9124 0.51158 0.26072 0.0
C818 C 0.91198 0.47612 0.36132 0.0
C819 C 0.90422 0.48561 0.40087 0.0
C820 C 0.91081 0.50263 0.30971 0.0
C821 C 0.9002 0.50368 0.39358 0.0
C822 C 0.91374 0.5302 0.25708 0.0
C823 C 0.91019 0.50929 0.1721 0.0
N824 N 0.90356 0.51161 0.34887 0.0
N825 N 0.91091 0.50173 0.21821 0.0
H826 H 0.26167 0.15195 0.89554 0.0
H827 H 0.24682 0.16315 0.18363 0.0
H828 H 0.21101 0.16949 0.95342 0.0
H829 H 0.29843 0.17107 0.1162 0.0
H830 H 0.23315 0.1649 0.10084 0.0
H831 H 0.2752 0.15789 0.97656 0.0
C832 C 0.25337 0.15714 0.92522 0.0
C833 C 0.23513 0.16016 0.91775 0.0
C834 C 0.24743 0.1665 0.10421 0.0
C835 C 0.25061 0.16679 0.01102 0.0
C836 C 0.25528 0.16541 0.15141 0.0
C837 C 0.27382 0.16675 0.15659 0.0
C838 C 0.25825 0.16849 0.06181 0.0
C839 C 0.2841 0.16986 0.11366 0.0
C840 C 0.26117 0.16063 0.97145 0.0
C841 C 0.22509 0.16689 0.95775 0.0
N842 N 0.27619 0.17031 0.06778 0.0
N843 N 0.23293 0.16976 0.00308 0.0
H844 H 0.59642 0.49775 0.93376 0.0
H845 H 0.60499 0.51249 0.64485 0.0
H846 H 0.58905 0.54965 0.8675 0.0
H847 H 0.58756 0.46208 0.70546 0.0
H848 H 0.59975 0.52633 0.72592 0.0
H849 H 0.59346 0.48428 0.85119 0.0
C850 C 0.59404 0.50633 0.90185 0.0
C851 C 0.5932 0.52488 0.90731 0.0
C852 C 0.59686 0.51229 0.72137 0.0
C853 C 0.59006 0.50951 0.81259 0.0
C854 C 0.59996 0.50432 0.67515 0.0
C855 C 0.59684 0.48605 0.66854 0.0
C856 C 0.59101 0.50185 0.76169 0.0
C857 C 0.59025 0.47618 0.70915 0.0
C858 C 0.59225 0.49859 0.85474 0.0
C859 C 0.5899 0.5353 0.86472 0.0
N860 N 0.5878 0.48417 0.75439 0.0
N861 N 0.58877 0.52748 0.81882 0.0
H862 H 0.25998 0.86612 0.6608 0.0
H863 H 0.24627 0.84155 0.37836 0.0
H864 H 0.2116 0.84058 0.61088 0.0
H865 H 0.29839 0.84082 0.44616 0.0
H866 H 0.23287 0.84232 0.46169 0.0
H867 H 0.27395 0.85874 0.58108 0.0
C868 C 0.25227 0.85893 0.63312 0.0
C869 C 0.23455 0.854 0.64245 0.0
C870 C 0.24723 0.84175 0.45838 0.0
C871 C 0.2505 0.84567 0.5509 0.0
C872 C 0.25489 0.84138 0.41087 0.0
C873 C 0.27346 0.84129 0.40554 0.0
C874 C 0.25822 0.84254 0.50077 0.0
C875 C 0.28401 0.84092 0.44884 0.0
C876 C 0.26033 0.85461 0.58775 0.0
C877 C 0.22526 0.8447 0.60507 0.0
N878 N 0.27624 0.84191 0.49484 0.0
N879 N 0.23329 0.84101 0.56055 0.0
H880 H 0.60235 0.99455 0.13475 0.0
H881 H 0.60535 0.01165 0.42277 0.0
H882 H 0.5889 0.04603 0.19533 0.0
H883 H 0.58906 0.96046 0.36532 0.0
H884 H 0.60115 0.02451 0.33972 0.0
H885 H 0.59919 0.98158 0.21823 0.0
C886 C 0.59863 1.00312 0.16558 0.0
C887 C 0.59604 0.02143 0.1583 0.0
C888 C 0.5983 0.01051 0.3454 0.0
C889 C 0.59267 0.00668 0.25389 0.0
C890 C 0.60081 1.00311 0.39274 0.0
C891 C 0.59766 0.98491 0.40084 0.0
C892 C 0.5931 0.99957 0.30551 0.0
C893 C 0.59169 0.97454 0.3605 0.0
C894 C 0.59672 0.99567 0.21313 0.0
C895 C 0.5911 0.03187 0.19952 0.0
N896 N 0.58988 0.98196 0.31418 0.0
N897 N 0.58987 0.02439 0.2459 0.0
H898 H 0.25151 0.38283 0.41208 0.0
H899 H 0.27891 0.32313 0.64715 0.0
H900 H 0.2241 0.33371 0.44533 0.0
H901 H 0.28531 0.3801 0.64212 0.0
H902 H 0.2634 0.32435 0.56547 0.0
H903 H 0.26842 0.37975 0.48963 0.0
C904 C 0.24897 0.37144 0.43603 0.0
C905 C 0.23627 0.35861 0.42274 0.0
C906 C 0.26843 0.33651 0.58209 0.0
C907 C 0.25585 0.35481 0.51105 0.0
C908 C 0.27745 0.33578 0.62806 0.0
C909 C 0.28354 0.35153 0.65041 0.0
C910 C 0.26585 0.35307 0.55859 0.0
C911 C 0.28094 0.36769 0.62547 0.0
C912 C 0.25865 0.36967 0.48017 0.0
C913 C 0.2336 0.34402 0.45483 0.0
N914 N 0.27235 0.36805 0.58076 0.0
N915 N 0.24343 0.34243 0.4976 0.0
H916 H 0.91904 0.05199 0.8742 0.0
H917 H 0.91549 0.96229 0.71339 0.0
H918 H 0.90094 1.00172 0.93419 0.0
H919 H 0.90436 0.01396 0.64983 0.0
H920 H 0.91915 0.97642 0.79596 0.0
H921 H 0.92248 0.03773 0.79164 0.0
C922 C 0.91595 0.03798 0.87014 0.0
C923 C 0.90952 0.02807 0.91089 0.0
C924 C 0.9161 0.9846 0.7636 0.0
C925 C 0.9138 0.01174 0.81778 0.0
C926 C 0.91401 0.97658 0.7167 0.0
C927 C 0.90937 0.98694 0.67498 0.0
C928 C 0.91387 1.00309 0.76824 0.0
C929 C 0.90772 0.00543 0.68109 0.0
C930 C 0.91794 0.02988 0.82327 0.0
C931 C 0.90581 0.00992 0.90381 0.0
N932 N 0.90995 0.01293 0.7269 0.0
N933 N 0.90801 1.00233 0.85816 0.0
H934 H 0.26408 0.68348 0.90413 0.0
H935 H 0.26333 0.63005 0.16333 0.0
H936 H 0.30589 0.64792 0.95011 0.0
H937 H 0.22139 0.66572 0.11756 0.0
H938 H 0.27978 0.63759 0.08741 0.0
H939 H 0.2495 0.67923 0.98514 0.0
C940 C 0.2703 0.67498 0.93173 0.0
C941 C 0.28615 0.66604 0.92082 0.0
C942 C 0.26699 0.64378 0.09385 0.0
C943 C 0.26939 0.66067 0.0129 0.0
C944 C 0.25753 0.6394 0.13707 0.0
C945 C 0.24092 0.64721 0.14657 0.0
C946 C 0.25982 0.65608 0.05979 0.0
C947 C 0.23407 0.65926 0.11139 0.0
C948 C 0.26195 0.67248 0.97788 0.0
C949 C 0.29375 0.65519 0.95766 0.0
N950 N 0.24357 0.66335 0.0695 0.0
N951 N 0.28519 0.65264 0.00202 0.0
H952 H 0.42453 0.96815 0.87082 0.0
H953 H 0.38102 0.04273 0.6975 0.0
H954 H 0.38169 1.00208 0.91992 0.0
H955 H 0.43393 0.02284 0.67169 0.0
H956 H 0.38028 0.02684 0.7778 0.0
H957 H 0.42719 0.98625 0.79413 0.0
C958 C 0.41557 0.97925 0.86511 0.0
C959 C 0.4028 0.9836 0.90136 0.0
C960 C 0.39217 0.02614 0.75497 0.0
C961 C 0.40581 1.00429 0.81468 0.0
C962 C 0.39262 0.03531 0.70951 0.0
C963 C 0.40761 0.03414 0.67871 0.0
C964 C 0.40667 0.0154 0.76889 0.0
C965 C 0.42219 0.02405 0.69486 0.0
C966 C 0.41721 0.98967 0.82178 0.0
C967 C 0.3917 0.99827 0.89276 0.0
N968 N 0.4213 0.01487 0.73877 0.0
N969 N 0.3934 0.00803 0.85023 0.0
H970 H 0.76253 0.64743 0.39919 0.0
H971 H 0.748 0.66569 0.68475 0.0
H972 H 0.71297 0.66898 0.45378 0.0
H973 H 0.80011 0.66939 0.61764 0.0
H974 H 0.73465 0.66625 0.60152 0.0
H975 H 0.77638 0.65421 0.47947 0.0
C976 C 0.75454 0.65364 0.42801 0.0
C977 C 0.73652 0.65757 0.41988 0.0
C978 C 0.74899 0.66718 0.60497 0.0
C979 C 0.75233 0.6652 0.51208 0.0
C980 C 0.75664 0.66678 0.65246 0.0
C981 C 0.7752 0.66729 0.65793 0.0
C982 C 0.75999 0.66761 0.56261 0.0
C983 C 0.78574 0.66889 0.61485 0.0
C984 C 0.76253 0.65762 0.47373 0.0
C985 C 0.72687 0.66563 0.45867 0.0
N986 N 0.77799 0.66865 0.56873 0.0
N987 N 0.73486 0.669 0.50348 0.0
H988 H 0.09094 0.0484 0.3604 0.0
H989 H 0.08866 0.95955 0.19568 0.0
H990 H 0.10322 0.99662 0.42143 0.0
H991 H 0.10498 0.01065 0.1372 0.0
H992 H 0.08523 0.97324 0.279 0.0
H993 H 0.08715 0.03467 0.27739 0.0
C994 C 0.09265 0.03416 0.35644 0.0
C995 C 0.09766 0.02366 0.39753 0.0
C996 C 0.08939 0.9814 0.24756 0.0
C997 C 0.09304 0.00795 0.30372 0.0
C998 C 0.09135 0.97363 0.20024 0.0
C999 C 0.09732 0.98394 0.15972 0.0
C1000 C 0.09306 0.99961 0.25375 0.0
C1001 C 0.10052 1.00215 0.16744 0.0
C1002 C 0.0905 0.02636 0.30928 0.0
C1003 C 0.0996 1.00524 0.39059 0.0
N1004 N 0.09835 0.00941 0.21354 0.0
N1005 N 0.09731 0.99795 0.34451 0.0
H1006 H 0.76301 0.36222 0.17763 0.0
H1007 H 0.74972 0.34109 0.89282 0.0
H1008 H 0.71408 0.33941 0.12183 0.0
H1009 H 0.80186 0.34093 0.96063 0.0
H1010 H 0.73631 0.34049 0.97574 0.0
H1011 H 0.77742 0.35515 0.09837 0.0
C1012 C 0.75528 0.35567 0.14875 0.0
C1013 C 0.73725 0.35149 0.15619 0.0
C1014 C 0.75068 0.34033 0.9726 0.0
C1015 C 0.75372 0.34349 0.06525 0.0
C1016 C 0.75837 0.34075 0.92522 0.0
C1017 C 0.77693 0.34127 0.91998 0.0
C1018 C 0.76162 0.34094 0.0151 0.0
C1019 C 0.78748 0.34062 0.96325 0.0
C1020 C 0.76358 0.35153 0.10364 0.0
C1021 C 0.72795 0.34299 0.11743 0.0
N1022 N 0.77966 0.34084 0.00927 0.0
N1023 N 0.73625 0.33944 0.07327 0.0
H1024 H 0.12911 0.48312 0.41864 0.0
H1025 H 0.13138 0.52687 0.14696 0.0
H1026 H 0.1207 0.539 0.38855 0.0
H1027 H 0.12666 0.47048 0.176 0.0
H1028 H 0.13725 0.53174 0.23613 0.0
H1029 H 0.1379 0.47897 0.33127 0.0
C1030 C 0.12934 0.49457 0.39392 0.0
C1031 C 0.12362 0.51133 0.41053 0.0
C1032 C 0.13523 0.51828 0.22273 0.0
C1033 C 0.13367 0.50664 0.31073 0.0
C1034 C 0.13192 0.51548 0.17186 0.0
C1035 C 0.12801 0.4983 0.15436 0.0
C1036 C 0.13466 0.5038 0.25604 0.0
C1037 C 0.12912 0.48401 0.18816 0.0
C1038 C 0.13437 0.49218 0.34406 0.0
C1039 C 0.12452 0.52574 0.37701 0.0
N1040 N 0.13208 0.48711 0.23757 0.0
N1041 N 0.12917 0.52301 0.32845 0.0
H1042 H 0.77365 0.88618 0.66551 0.0
H1043 H 0.73237 0.87451 0.39194 0.0
H1044 H 0.71823 0.87467 0.63642 0.0
H1045 H 0.78858 0.87259 0.42553 0.0
H1046 H 0.72652 0.88275 0.47907 0.0
H1047 H 0.77848 0.88968 0.57551 0.0
C1048 C 0.76243 0.88466 0.64036 0.0
C1049 C 0.7456 0.87967 0.65847 0.0
C1050 C 0.74014 0.88074 0.46712 0.0
C1051 C 0.75109 0.8836 0.55557 0.0
C1052 C 0.7435 0.87605 0.41742 0.0
C1053 C 0.76096 0.87246 0.40179 0.0
C1054 C 0.75434 0.88193 0.50118 0.0
C1055 C 0.77487 0.87483 0.43629 0.0
C1056 C 0.76522 0.88662 0.58897 0.0
C1057 C 0.73152 0.87813 0.62407 0.0
N1058 N 0.77124 0.87924 0.48453 0.0
N1059 N 0.73464 0.87984 0.57415 0.0
H1060 H 0.38305 0.48648 0.64032 0.0
H1061 H 0.37484 0.52534 0.91779 0.0
H1062 H 0.3857 0.54244 0.67689 0.0
H1063 H 0.38852 0.47074 0.88478 0.0
H1064 H 0.37053 0.53072 0.82838 0.0
H1065 H 0.37691 0.47986 0.72845 0.0
C1066 C 0.38207 0.49741 0.66667 0.0
C1067 C 0.38522 0.51503 0.65138 0.0
C1068 C 0.37428 0.51752 0.84084 0.0
C1069 C 0.37817 0.50749 0.75201 0.0
C1070 C 0.37672 0.5144 0.89191 0.0
C1071 C 0.38245 0.49765 0.90882 0.0
C1072 C 0.37751 0.50379 0.80642 0.0
C1073 C 0.38442 0.48396 0.87342 0.0
C1074 C 0.37862 0.49359 0.71695 0.0
C1075 C 0.38368 0.52863 0.68716 0.0
N1076 N 0.38215 0.48739 0.82378 0.0
N1077 N 0.38041 0.52456 0.73592 0.0
H1078 H 0.7348 0.12613 0.17093 0.0
H1079 H 0.77837 0.12223 0.89913 0.0
H1080 H 0.7902 0.13686 0.13934 0.0
H1081 H 0.72192 0.12606 0.9276 0.0
H1082 H 0.78336 0.11766 -0.01115 0.0
H1083 H 0.73082 0.11645 0.08419 0.0
C1084 C 0.74619 0.12624 0.14602 0.0
C1085 C 0.76274 0.13281 0.16202 0.0
C1086 C 0.76987 0.11919 0.97523 0.0
C1087 C 0.75825 0.1217 0.063 0.0
C1088 C 0.76699 0.12174 0.92404 0.0
C1089 C 0.74975 0.12505 0.90612 0.0
C1090 C 0.75539 0.11989 0.00846 0.0
C1091 C 0.73549 0.12403 0.94002 0.0
C1092 C 0.74389 0.12069 0.09655 0.0
C1093 C 0.77708 0.13235 0.12828 0.0
N1094 N 0.73866 0.12182 -0.01027 0.0
N1095 N 0.77444 0.12713 0.08012 0.0
H1096 H 0.88088 0.47086 0.67868 0.0
H1097 H 0.88647 0.5434 0.8901 0.0
H1098 H 0.87688 0.52729 0.6495 0.0
H1099 H 0.88006 0.48724 0.92037 0.0
H1100 H 0.87826 0.53807 0.8029 0.0
H1101 H 0.87573 0.47658 0.76747 0.0
C1102 C 0.8787 0.48444 0.69086 0.0
C1103 C 0.87981 0.49868 0.65689 0.0
C1104 C 0.87838 0.52695 0.82878 0.0
C1105 C 0.87405 0.50532 0.75843 0.0
C1106 C 0.88317 0.52997 0.87853 0.0
C1107 C 0.88445 0.51566 0.9122 0.0
C1108 C 0.87511 0.50947 0.8125 0.0
C1109 C 0.87959 0.49863 0.89547 0.0
C1110 C 0.87568 0.4877 0.74156 0.0
C1111 C 0.87646 0.51594 0.67454 0.0
N1112 N 0.87546 0.49595 0.84651 0.0
N1113 N 0.87409 0.51882 0.72432 0.0
H1114 H 0.27829 0.13024 0.67298 0.0
H1115 H 0.23582 0.12995 0.40004 0.0
H1116 H 0.22201 0.13417 0.64171 0.0
H1117 H 0.29128 0.14035 0.43178 0.0
H1118 H 0.2315 0.12137 0.48749 0.0
H1119 H 0.28363 0.12384 0.58445 0.0
C1120 C 0.26702 0.12947 0.64772 0.0
C1121 C 0.24974 0.1333 0.66439 0.0
C1122 C 0.24467 0.12527 0.47504 0.0
C1123 C 0.25578 0.12597 0.56341 0.0
C1124 C 0.24716 0.13019 0.42514 0.0
C1125 C 0.26381 0.13646 0.40897 0.0
C1126 C 0.25891 0.12663 0.50885 0.0
C1127 C 0.27808 0.13611 0.44296 0.0
C1128 C 0.27009 0.12582 0.59723 0.0
C1129 C 0.23562 0.13181 0.63017 0.0
N1130 N 0.27524 0.13158 0.49158 0.0
N1131 N 0.23899 0.12852 0.58107 0.0
H1132 H 0.62244 0.54116 0.17987 0.0
H1133 H 0.62503 0.46989 0.39504 0.0
H1134 H 0.62699 0.48464 0.15323 0.0
H1135 H 0.62908 0.5265 0.42114 0.0
H1136 H 0.63158 0.47494 0.30664 0.0
H1137 H 0.63062 0.53627 0.26727 0.0
C1138 C 0.62536 0.52773 0.19226 0.0
C1139 C 0.62349 0.51321 0.15962 0.0
C1140 C 0.63135 0.48624 0.33182 0.0
C1141 C 0.63276 0.50752 0.25962 0.0
C1142 C 0.62752 0.48337 0.3823 0.0
C1143 C 0.62596 0.49786 0.41517 0.0
C1144 C 0.63333 0.50374 0.31402 0.0
C1145 C 0.62979 0.51497 0.39691 0.0
C1146 C 0.63012 0.52496 0.24215 0.0
C1147 C 0.6279 0.49619 0.17736 0.0
N1148 N 0.63292 0.51748 0.34727 0.0
N1149 N 0.63197 0.49376 0.22648 0.0
H1150 H 0.22066 0.88244 0.91719 0.0
H1151 H 0.29113 0.8668 0.13078 0.0
H1152 H 0.27739 0.88268 0.89138 0.0
H1153 H 0.23517 0.87538 0.1588 0.0
H1154 H 0.28701 0.87745 0.04511 0.0
H1155 H 0.22612 0.88526 0.00693 0.0
C1156 C 0.23427 0.8834 0.93035 0.0
C1157 C 0.24861 0.88185 0.89693 0.0
C1158 C 0.27567 0.87725 0.0702 0.0
C1159 C 0.25496 0.88479 -0.00036 0.0
C1160 C 0.27799 0.87105 0.11907 0.0
C1161 C 0.26337 0.86974 0.15162 0.0
C1162 C 0.25857 0.88194 0.0536 0.0
C1163 C 0.24677 0.87584 0.13475 0.0
C1164 C 0.23739 0.88503 0.98164 0.0
C1165 C 0.26595 0.88355 0.91591 0.0
N1166 N 0.24476 0.88138 0.08661 0.0
N1167 N 0.26865 0.88452 0.9662 0.0
H1168 H 0.63935 0.02437 0.63944 0.0
H1169 H 0.62613 0.03919 0.88863 0.0
H1170 H 0.62371 0.97067 0.6776 0.0
H1171 H 0.63271 0.98263 0.91098 0.0
H1172 H 0.6343 0.03561 0.80131 0.0
H1173 H 0.647 0.02957 0.72715 0.0
C1174 C 0.63762 0.01363 0.66615 0.0
C1175 C 0.63019 0.99729 0.65148 0.0
C1176 C 0.6346 0.02401 0.82535 0.0
C1177 C 0.63836 1.00333 0.75211 0.0
C1178 C 0.62967 0.02603 0.87535 0.0
C1179 C 0.62827 0.0111 0.90682 0.0
C1180 C 0.63803 0.00689 0.80656 0.0
C1181 C 0.63333 0.99447 0.88783 0.0
C1182 C 0.64184 0.01667 0.71641 0.0
C1183 C 0.62881 0.98369 0.68745 0.0
N1184 N 0.63759 0.99275 0.83856 0.0
N1185 N 0.63254 0.98713 0.73625 0.0
H1186 H 0.2193 0.3742 0.1404 0.0
H1187 H 0.29244 0.37474 0.92795 0.0
H1188 H 0.27516 0.38349 0.16882 0.0
H1189 H 0.23605 0.37573 0.89674 0.0
H1190 H 0.28617 0.38154 0.01554 0.0
H1191 H 0.22471 0.37836 0.0509 0.0
C1192 C 0.23267 0.37733 0.12795 0.0
C1193 C 0.24688 0.3781 0.16213 0.0
C1194 C 0.27516 0.38052 -0.01055 0.0
C1195 C 0.25316 0.38276 0.05969 0.0
C1196 C 0.27874 0.37657 0.93943 0.0
C1197 C 0.26472 0.37433 0.90521 0.0
C1198 C 0.25744 0.38196 0.00556 0.0
C1199 C 0.24725 0.37716 0.92198 0.0
C1200 C 0.23574 0.37975 0.0768 0.0
C1201 C 0.26384 0.3825 0.14384 0.0
N1202 N 0.24408 0.38052 0.97123 0.0
N1203 N 0.26656 0.38437 0.09378 0.0
H1204 H 0.87706 0.02811 0.42987 0.0
H1205 H 0.87677 0.98669 0.15535 0.0
H1206 H 0.88437 0.97226 0.39737 0.0
H1207 H 0.88521 0.04239 0.18822 0.0
H1208 H 0.86972 0.98154 0.2436 0.0
H1209 H 0.87016 0.03332 0.34158 0.0
C1210 C 0.87696 0.01689 0.4044 0.0
C1211 C 0.88182 0.9998 0.42073 0.0
C1212 C 0.87285 0.99492 0.23123 0.0
C1213 C 0.87392 0.00572 0.31992 0.0
C1214 C 0.87687 0.99789 0.18089 0.0
C1215 C 0.88209 0.01491 0.16468 0.0
C1216 C 0.874 0.00906 0.26541 0.0
C1217 C 0.8817 0.02896 0.19933 0.0
C1218 C 0.87302 0.01989 0.35403 0.0
C1219 C 0.88115 0.98573 0.38617 0.0
N1220 N 0.87799 0.02567 0.24827 0.0
N1221 N 0.87755 0.98905 0.33717 0.0
H1222 H 0.2408 0.63791 0.67583 0.0
H1223 H 0.28188 0.62736 0.40147 0.0
H1224 H 0.29655 0.6446 0.64076 0.0
H1225 H 0.2258 0.63446 0.43103 0.0
H1226 H 0.28734 0.62609 0.49161 0.0
H1227 H 0.23529 0.62931 0.58883 0.0
C1228 C 0.25192 0.63738 0.65005 0.0
C1229 C 0.26912 0.64231 0.6654 0.0
C1230 C 0.27382 0.62772 0.47828 0.0
C1231 C 0.26288 0.63243 0.56599 0.0
C1232 C 0.27066 0.6284 0.4268 0.0
C1233 C 0.25339 0.63141 0.4086 0.0
C1234 C 0.25961 0.63 0.51178 0.0
C1235 C 0.23938 0.63245 0.44334 0.0
C1236 C 0.24875 0.63249 0.6004 0.0
C1237 C 0.28302 0.64122 0.63039 0.0
N1238 N 0.24283 0.63195 0.49333 0.0
N1239 N 0.27957 0.63654 0.5822 0.0
H1240 H 0.39574 0.96546 0.18735 0.0
H1241 H 0.38825 0.03964 0.39747 0.0
H1242 H 0.38192 0.02025 0.15711 0.0
H1243 H 0.39272 0.98359 0.43131 0.0
H1244 H 0.38319 0.03225 0.30962 0.0
H1245 H 0.39196 0.97111 0.27695 0.0
C1246 C 0.39174 0.97862 0.19942 0.0
C1247 C 0.3895 0.9925 0.16463 0.0
C1248 C 0.38508 0.02154 0.33629 0.0
C1249 C 0.38522 0.99903 0.26706 0.0
C1250 C 0.38804 0.02576 0.38646 0.0
C1251 C 0.3912 0.01221 0.42158 0.0
C1252 C 0.38554 1.00366 0.32097 0.0
C1253 C 0.39047 0.99445 0.40537 0.0
C1254 C 0.38955 0.98182 0.2506 0.0
C1255 C 0.38408 0.0092 0.18249 0.0
N1256 N 0.38799 0.99069 0.35602 0.0
N1257 N 0.38236 0.01205 0.23248 0.0
H1258 H 0.77885 0.62761 0.17333 0.0
H1259 H 0.73597 0.63151 0.90089 0.0
H1260 H 0.7225 0.6319 0.14353 0.0
H1261 H 0.79138 0.64183 0.93345 0.0
H1262 H 0.73175 0.6218 0.98749 0.0
H1263 H 0.78402 0.62276 0.08393 0.0
C1264 C 0.76753 0.6272 0.1482 0.0
C1265 C 0.75027 0.63071 0.16564 0.0
C1266 C 0.74487 0.62596 0.97539 0.0
C1267 C 0.75613 0.62521 0.06365 0.0
C1268 C 0.74731 0.63152 0.926 0.0
C1269 C 0.76394 0.63802 0.91035 0.0
C1270 C 0.75916 0.62688 0.0092 0.0
C1271 C 0.77821 0.6374 0.94429 0.0
C1272 C 0.77051 0.62446 0.09719 0.0
C1273 C 0.73609 0.62975 0.13147 0.0
N1274 N 0.77543 0.63219 -0.0076 0.0
N1275 N 0.73936 0.62736 0.08191 0.0
H1276 H 0.13121 0.02584 0.91521 0.0
H1277 H 0.13152 0.98265 0.64306 0.0
H1278 H 0.124 0.9698 0.88488 0.0
H1279 H 0.12483 0.03877 0.67272 0.0
H1280 H 0.13872 0.978 0.73143 0.0
H1281 H 0.13876 0.03053 0.82701 0.0
C1282 C 0.13149 0.01447 0.89025 0.0
C1283 C 0.12644 0.99749 0.90706 0.0
C1284 C 0.13595 0.99137 0.71834 0.0
C1285 C 0.13507 1.00279 0.80644 0.0
C1286 C 0.13184 0.99405 0.6679 0.0
C1287 C 0.12701 0.01104 0.65083 0.0
C1288 C 0.13522 0.00578 0.75174 0.0
C1289 C 0.12797 0.02535 0.68457 0.0
C1290 C 0.13579 0.01717 0.83995 0.0
C1291 C 0.12732 0.98321 0.87323 0.0
N1292 N 0.13169 0.02235 0.73365 0.0
N1293 N 0.13127 0.98623 0.82431 0.0
H1294 H 0.73603 0.37526 0.6771 0.0
H1295 H 0.7784 0.3809 0.40423 0.0
H1296 H 0.79171 0.36703 0.64416 0.0
H1297 H 0.72221 0.37471 0.43418 0.0
H1298 H 0.78353 0.38554 0.49371 0.0
H1299 H 0.73133 0.38458 0.59037 0.0
C1300 C 0.74732 0.37562 0.65187 0.0
C1301 C 0.76419 0.36985 0.66748 0.0
C1302 C 0.77006 0.38344 0.48048 0.0
C1303 C 0.75887 0.38055 0.56848 0.0
C1304 C 0.76709 0.38081 0.42942 0.0
C1305 C 0.74991 0.37687 0.41192 0.0
C1306 C 0.75574 0.38214 0.51406 0.0
C1307 C 0.73575 0.37723 0.44621 0.0
C1308 C 0.74461 0.38097 0.60241 0.0
C1309 C 0.77837 0.37091 0.63337 0.0
N1310 N 0.73902 0.37952 0.49583 0.0
N1311 N 0.77534 0.37591 0.5852 0.0
H1312 H 0.10197 0.42964 0.15531 0.0
H1313 H 0.17019 0.3932 0.29951 0.0
H1314 H 0.14083 0.42222 0.03815 0.0
H1315 H 0.17901 0.35863 0.173 0.0
H1316 H 0.14718 0.40884 0.25146 0.0
H1317 H 0.11825 0.40829 0.20778 0.0
C1318 C 0.1137 0.42324 0.1402 0.0
C1319 C 0.12015 0.42779 0.09245 0.0
C1320 C 0.15383 0.39754 0.23469 0.0
C1321 C 0.13881 0.40352 0.15224 0.0
C1322 C 0.16699 0.38868 0.26199 0.0
C1323 C 0.17636 0.37453 0.24028 0.0
C1324 C 0.1504 0.39255 0.18482 0.0
C1325 C 0.17189 0.36932 0.19128 0.0
C1326 C 0.12305 0.41122 0.17035 0.0
C1327 C 0.13549 0.41918 0.07491 0.0
N1328 N 0.1595 0.37861 0.1647 0.0
N1329 N 0.14432 0.40745 0.10483 0.0
H1330 H 0.8569 0.93958 0.51785 0.0
H1331 H 0.84627 0.85099 0.36762 0.0
H1332 H 0.90587 0.91671 0.46325 0.0
H1333 H 0.81889 0.89916 0.32504 0.0
H1334 H 0.86647 0.86904 0.42062 0.0
H1335 H 0.84019 0.91806 0.46811 0.0
C1336 C 0.86419 0.92983 0.49616 0.0
C1337 C 0.88285 0.93007 0.49441 0.0
C1338 C 0.85611 0.87552 0.39906 0.0
C1339 C 0.86365 0.90528 0.43777 0.0
C1340 C 0.84462 0.8653 0.36896 0.0
C1341 C 0.8309 0.87359 0.34175 0.0
C1342 C 0.85338 0.89395 0.40289 0.0
C1343 C 0.82929 0.89217 0.34504 0.0
C1344 C 0.8546 0.91762 0.46765 0.0
C1345 C 0.89149 0.91704 0.4654 0.0
N1346 N 0.84018 0.90164 0.37561 0.0
N1347 N 0.8818 0.90512 0.43795 0.0
H1348 H 0.37505 0.59646 0.52836 0.0
H1349 H 0.34673 0.62913 0.79254 0.0
H1350 H 0.40811 0.58494 0.65657 0.0
H1351 H 0.33795 0.66248 0.66315 0.0
H1352 H 0.36862 0.61199 0.74444 0.0
H1353 H 0.36039 0.62007 0.57645 0.0
C1354 C 0.37939 0.59911 0.5664 0.0
C1355 C 0.39278 0.58878 0.58861 0.0
C1356 C 0.36216 0.62328 0.72691 0.0
C1357 C 0.37578 0.61534 0.64412 0.0
C1358 C 0.34967 0.63302 0.75426 0.0
C1359 C 0.34058 0.64722 0.73171 0.0
C1360 C 0.36509 0.62739 0.67619 0.0
C1361 C 0.34479 0.65169 0.68197 0.0
C1362 C 0.37107 0.61259 0.59373 0.0
C1363 C 0.39791 0.5927 0.63803 0.0
N1364 N 0.35647 0.64156 0.65545 0.0
N1365 N 0.38913 0.60544 0.66457 0.0
H1366 H 0.68186 0.14889 0.90748 0.0
H1367 H 0.60367 0.07681 0.90742 0.0
H1368 H 0.67105 0.11524 0.78004 0.0
H1369 H 0.63688 0.08582 0.03697 0.0
H1370 H 0.62159 0.09848 0.86022 0.0
H1371 H 0.65856 0.13315 0.95481 0.0
C1372 C 0.67429 0.13849 0.88909 0.0
C1373 C 0.67837 0.13329 0.83987 0.0
C1374 C 0.62469 0.09593 0.89927 0.0
C1375 C 0.65172 0.11549 0.89341 0.0
C1376 C 0.61441 0.08371 0.92633 0.0
C1377 C 0.61885 0.07953 0.97612 0.0
C1378 C 0.63921 0.1043 0.92258 0.0
C1379 C 0.63308 0.08865 -0.00141 0.0
C1380 C 0.66112 0.12947 0.91619 0.0
C1381 C 0.66833 0.11957 0.818 0.0
N1382 N 0.64278 0.10062 0.97165 0.0
N1383 N 0.65544 0.11114 0.84491 0.0
H1384 H 0.19428 0.59996 0.32582 0.0
H1385 H 0.10046 0.59047 0.43908 0.0
H1386 H 0.16746 0.65022 0.34593 0.0
H1387 H 0.14674 0.57169 0.51916 0.0
H1388 H 0.12005 0.61001 0.38868 0.0
H1389 H 0.1717 0.58558 0.37756 0.0
C1390 C 0.18348 0.60796 0.3404 0.0
C1391 C 0.18282 0.62636 0.33165 0.0
C1392 C 0.12571 0.60181 0.41806 0.0
C1393 C 0.15682 0.6098 0.39057 0.0
C1394 C 0.11461 0.5907 0.44679 0.0
C1395 C 0.12198 0.57929 0.48315 0.0
C1396 C 0.1442 0.60109 0.42526 0.0
C1397 C 0.14043 0.58009 0.49138 0.0
C1398 C 0.17068 0.59973 0.37013 0.0
C1399 C 0.16849 0.63601 0.35198 0.0
N1400 N 0.1509 0.59048 0.462 0.0
N1401 N 0.15594 0.62759 0.38057 0.0
H1402 H 0.6373 0.92063 0.52681 0.0
H1403 H 0.66828 0.89279 0.79279 0.0
H1404 H 0.60363 0.93093 0.65447 0.0
H1405 H 0.67838 0.85809 0.66731 0.0
H1406 H 0.64528 0.90796 0.74337 0.0
H1407 H 0.65352 0.89842 0.57654 0.0
C1408 C 0.63313 0.91797 0.565 0.0
C1409 C 0.61911 0.92758 0.5866 0.0
C1410 C 0.65229 0.8968 0.72704 0.0
C1411 C 0.63788 0.90269 0.64392 0.0
C1412 C 0.6654 0.88818 0.75514 0.0
C1413 C 0.67516 0.87417 0.73405 0.0
C1414 C 0.64939 0.89177 0.67696 0.0
C1415 C 0.67102 0.86875 0.68502 0.0
C1416 C 0.64235 0.9053 0.59328 0.0
C1417 C 0.61428 0.92371 0.63632 0.0
N1418 N 0.65871 0.87782 0.65766 0.0
N1419 N 0.62391 0.91183 0.66371 0.0
H1420 H 0.33113 0.35291 0.91449 0.0
H1421 H 0.40637 0.4282 0.92332 0.0
H1422 H 0.3458 0.38399 0.7848 0.0
H1423 H 0.36854 0.42055 0.04307 0.0
H1424 H 0.39163 0.40434 0.87578 0.0
H1425 H 0.35244 0.37016 0.96507 0.0
C1426 C 0.33923 0.36299 0.89638 0.0
C1427 C 0.33673 0.3671 0.84549 0.0
C1428 C 0.38682 0.40769 0.9129 0.0
C1429 C 0.36107 0.38665 0.90275 0.0
C1430 C 0.39527 0.42119 0.94014 0.0
C1431 C 0.38857 0.42639 0.98702 0.0
C1432 C 0.37188 0.39909 0.93328 0.0
C1433 C 0.37402 0.417 0.00688 0.0
C1434 C 0.35123 0.37289 0.92529 0.0
C1435 C 0.34732 0.38048 0.82398 0.0
N1436 N 0.36612 0.40381 0.97987 0.0
N1437 N 0.35903 0.38981 0.85273 0.0
H1438 H 0.82957 0.15787 0.16265 0.0
H1439 H 0.90448 0.08276 0.16389 0.0
H1440 H 0.83854 0.12401 0.29093 0.0
H1441 H 0.87081 0.09211 0.03549 0.0
H1442 H 0.88761 0.10528 0.21082 0.0
H1443 H 0.85216 0.14104 0.11599 0.0
C1444 C 0.83663 0.1472 0.1814 0.0
C1445 C 0.8322 0.14226 0.23063 0.0
C1446 C 0.88419 0.1026 0.17206 0.0
C1447 C 0.85803 0.1232 0.17784 0.0
C1448 C 0.89385 0.08989 0.14519 0.0
C1449 C 0.88896 0.08559 0.09583 0.0
C1450 C 0.86989 0.11134 0.14889 0.0
C1451 C 0.87493 0.09502 0.07355 0.0
C1452 C 0.84938 0.13757 0.15467 0.0
C1453 C 0.84155 0.12818 0.25296 0.0
N1454 N 0.86586 0.10748 0.10024 0.0
N1455 N 0.85405 0.11912 0.22639 0.0
H1456 H 0.8596 0.57369 0.00552 0.0
H1457 H 0.84583 0.664 0.86988 0.0
H1458 H 0.90827 0.59906 0.95711 0.0
H1459 H 0.82166 0.61559 0.81507 0.0
H1460 H 0.867 0.64577 0.91906 0.0
H1461 H 0.84266 0.59506 0.9561 0.0
C1462 C 0.86676 0.58395 0.98524 0.0
C1463 C 0.88543 0.5845 0.98529 0.0
C1464 C 0.85717 0.6393 0.89552 0.0
C1465 C 0.86595 0.60913 0.92898 0.0
C1466 C 0.84513 0.64962 0.86757 0.0
C1467 C 0.83192 0.64131 0.83838 0.0
C1468 C 0.85555 0.62069 0.89509 0.0
C1469 C 0.83157 0.62263 0.83693 0.0
C1470 C 0.85705 0.59607 0.95688 0.0
C1471 C 0.8939 0.59813 0.95793 0.0
N1472 N 0.84295 0.61299 0.86557 0.0
N1473 N 0.88407 0.61 0.93069 0.0
H1474 H 0.10209 0.0927 0.6134 0.0
H1475 H 0.19308 0.10751 0.74366 0.0
H1476 H 0.15062 0.07139 0.55124 0.0
H1477 H 0.16435 0.15571 0.70923 0.0
H1478 H 0.1725 0.09082 0.69092 0.0
H1479 H 0.12009 0.11377 0.66347 0.0
C1480 C 0.11643 0.09263 0.60962 0.0
C1481 C 0.12486 0.08018 0.57826 0.0
C1482 C 0.1706 0.10503 0.69539 0.0
C1483 C 0.14526 0.10373 0.63593 0.0
C1484 C 0.18225 0.11458 0.72575 0.0
C1485 C 0.18045 0.13307 0.73088 0.0
C1486 C 0.15676 0.11387 0.67067 0.0
C1487 C 0.1662 0.14147 0.70616 0.0
C1488 C 0.12663 0.10463 0.6381 0.0
C1489 C 0.1435 0.08065 0.57494 0.0
N1490 N 0.15476 0.13177 0.67711 0.0
N1491 N 0.15305 0.09195 0.60412 0.0
H1492 H 0.68875 0.40314 0.31374 0.0
H1493 H 0.60065 0.41657 0.45303 0.0
H1494 H 0.66728 0.35353 0.3693 0.0
H1495 H 0.64941 0.4374 0.51576 0.0
H1496 H 0.61845 0.3956 0.4023 0.0
H1497 H 0.66713 0.41925 0.36455 0.0
C1498 C 0.67929 0.39558 0.33585 0.0
C1499 C 0.67994 0.37692 0.33753 0.0
C1500 C 0.62507 0.40461 0.428 0.0
C1501 C 0.65506 0.39542 0.39517 0.0
C1502 C 0.615 0.41654 0.45685 0.0
C1503 C 0.62356 0.42882 0.48857 0.0
C1504 C 0.6437 0.40538 0.43031 0.0
C1505 C 0.6422 0.42825 0.49185 0.0
C1506 C 0.66702 0.40482 0.36488 0.0
C1507 C 0.66728 0.36792 0.36711 0.0
N1508 N 0.65164 0.417 0.46235 0.0
N1509 N 0.6553 0.37728 0.3951 0.0
H1510 H 0.40778 0.90886 0.10193 0.0
H1511 H 0.32383 0.89157 0.2627 0.0
H1512 H 0.35767 0.93416 0.06768 0.0
H1513 H 0.34268 0.84445 0.18697 0.0
H1514 H 0.34469 0.90944 0.21394 0.0
H1515 H 0.39145 0.88638 0.1521 0.0
C1516 C 0.39341 0.90957 0.10435 0.0
C1517 C 0.38408 0.92346 0.08069 0.0
C1518 C 0.34445 0.89513 0.20877 0.0
C1519 C 0.36568 0.89831 0.1384 0.0
C1520 C 0.33259 0.88488 0.23659 0.0
C1521 C 0.33132 0.86646 0.22854 0.0
C1522 C 0.35539 0.88698 0.17312 0.0
C1523 C 0.34316 0.85862 0.19414 0.0
C1524 C 0.38418 0.89678 0.13283 0.0
C1525 C 0.36547 0.92377 0.08519 0.0
N1526 N 0.35469 0.86897 0.1672 0.0
N1527 N 0.35695 0.91161 0.11417 0.0
H1528 H 0.84525 0.3469 0.69994 0.0
H1529 H 0.85423 0.43889 0.57198 0.0
H1530 H 0.82282 0.39407 0.76715 0.0
H1531 H 0.90456 0.41425 0.60733 0.0
H1532 H 0.83914 0.41663 0.6234 0.0
H1533 H 0.86492 0.36615 0.64884 0.0
C1534 C 0.84466 0.3612 0.70462 0.0
C1535 C 0.83229 0.36888 0.73771 0.0
C1536 C 0.85348 0.416 0.6193 0.0
C1537 C 0.85421 0.39067 0.67892 0.0
C1538 C 0.86212 0.42861 0.58979 0.0
C1539 C 0.88072 0.42849 0.58549 0.0
C1540 C 0.86339 0.40288 0.64399 0.0
C1541 C 0.8902 0.41485 0.60986 0.0
C1542 C 0.85584 0.37211 0.67552 0.0
C1543 C 0.83205 0.38751 0.7421 0.0
N1544 N 0.88141 0.40248 0.63821 0.0
N1545 N 0.84255 0.39773 0.71237 0.0
H1546 H 0.40883 0.10132 0.46613 0.0
H1547 H 0.32367 0.11415 0.29869 0.0
H1548 H 0.36104 0.07006 0.48494 0.0
H1549 H 0.34437 0.16137 0.37044 0.0
H1550 H 0.3448 0.09622 0.34607 0.0
H1551 H 0.39178 0.1224 0.41317 0.0
C1552 C 0.39481 0.09895 0.45938 0.0
C1553 C 0.38629 0.08398 0.48019 0.0
C1554 C 0.34488 0.11054 0.35081 0.0
C1555 C 0.36715 0.10747 0.41905 0.0
C1556 C 0.33288 0.12084 0.32369 0.0
C1557 C 0.33207 0.13932 0.33101 0.0
C1558 C 0.35643 0.11871 0.38504 0.0
C1559 C 0.34447 0.14715 0.36393 0.0
C1560 C 0.38516 0.11094 0.42938 0.0
C1561 C 0.36813 0.08147 0.47013 0.0
N1562 N 0.35614 0.13677 0.39012 0.0
N1563 N 0.35927 0.09292 0.43982 0.0
H1564 H 0.64735 0.57243 0.05316 0.0
H1565 H 0.6657 0.65671 0.21318 0.0
H1566 H 0.60059 0.59412 0.12447 0.0
H1567 H 0.69064 0.60647 0.24778 0.0
H1568 H 0.64335 0.64058 0.16224 0.0
H1569 H 0.66583 0.59246 0.10281 0.0
C1570 C 0.64089 0.58164 0.0785 0.0
C1571 C 0.62235 0.58144 0.08497 0.0
C1572 C 0.65364 0.63322 0.18169 0.0
C1573 C 0.64359 0.60455 0.14144 0.0
C1574 C 0.66636 0.64235 0.21057 0.0
C1575 C 0.68003 0.6329 0.23483 0.0
C1576 C 0.65507 0.61471 0.17606 0.0
C1577 C 0.68032 0.61431 0.23004 0.0
C1578 C 0.65149 0.593 0.1069 0.0
C1579 C 0.61483 0.59378 0.11851 0.0
N1580 N 0.66825 0.60588 0.20055 0.0
N1581 N 0.62551 0.60486 0.14585 0.0
H1582 H 0.1703 0.89368 0.76878 0.0
H1583 H 0.1372 0.92072 0.03385 0.0
H1584 H 0.17992 0.85903 0.89498 0.0
H1585 H 0.1042 0.93084 0.90457 0.0
H1586 H 0.15425 0.89909 0.98453 0.0
H1587 H 0.14706 0.90882 0.81729 0.0
C1588 C 0.16731 0.8891 0.80641 0.0
C1589 C 0.17699 0.87509 0.82794 0.0
C1590 C 0.14306 0.9058 0.9673 0.0
C1591 C 0.15089 0.89261 0.8839 0.0
C1592 C 0.13336 0.91812 -0.00465 0.0
C1593 C 0.11926 0.92748 0.97323 0.0
C1594 C 0.139 0.9033 0.91635 0.0
C1595 C 0.11488 0.92375 0.92311 0.0
C1596 C 0.15406 0.89769 0.83397 0.0
C1597 C 0.17266 0.86969 0.87691 0.0
N1598 N 0.12497 0.91222 0.89596 0.0
N1599 N 0.16017 0.8787 0.90367 0.0
loop_
_geom_bond_atom_site_label_1
_geom_bond_atom_site_label_2
_geom_bond_distance
_geom_bond_site_symmetry_2
_ccdc_geom_bond_type
Co0 O1 2.216 . S
Co0 O2 2.091 . S
Co0 O4 2.004 . S
Co0 O10 2.021 . S
Co0 O12 2.137 1_554 S
Co0 O13 2.244 . S
O1 Co0 2.216 . S
O1 C8 1.247 . S
O2 Co0 2.091 . S
O2 C8 1.261 . S
C3 O12 1.247 . S
C3 O13 1.272 1_556 S
O4 Co0 2.004 . S
O4 C9 1.259 . S
Co5 O6 2.061 . S
Co5 O11 2.052 . S
Co5 O13 2.135 . S
O6 Co5 2.061 . S
O6 C9 1.235 . S
C7 O10 1.238 . S
C7 O11 1.241 . S
C8 O1 1.247 . S
C8 O2 1.261 . S
C9 O4 1.259 . S
C9 O6 1.235 . S
O10 Co0 2.021 . S
O10 C7 1.238 . S
O11 Co5 2.052 . S
O11 C7 1.241 . S
O12 Co0 2.137 1_556 S
O12 C3 1.247 . S
O13 Co0 2.244 . S
O13 C3 1.272 1_554 S
O13 Co5 2.135 . S
Co14 O15 2.216 . S
Co14 O16 2.091 . S
Co14 O18 2.004 . S
Co14 O24 2.021 . S
Co14 O26 2.137 . S
Co14 O27 2.244 . S
O15 Co14 2.216 . S
O15 C22 1.247 . S
O16 Co14 2.091 . S
O16 C22 1.261 . S
C17 O26 1.247 . S
C17 O27 1.272 . S
O18 Co14 2.004 . S
O18 C23 1.259 . S
Co19 O20 2.061 . S
Co19 O25 2.052 . S
Co19 O27 2.135 . S
O20 Co19 2.061 . S
O20 C23 1.235 . S
C21 O24 1.238 . S
C21 O25 1.241 . S
C22 O15 1.247 . S
C22 O16 1.261 . S
C23 O18 1.259 . S
C23 O20 1.235 . S
O24 Co14 2.021 . S
O24 C21 1.238 . S
O25 Co19 2.052 . S
O25 C21 1.241 . S
O26 Co14 2.137 . S
O26 C17 1.247 . S
O27 Co14 2.244 . S
O27 C17 1.272 . S
O27 Co19 2.135 . S
Co28 O29 2.216 . S
Co28 O30 2.091 . S
Co28 O32 2.004 . S
Co28 O38 2.021 . S
Co28 O40 2.137 . S
Co28 O41 2.244 . S
O29 Co28 2.216 . S
O29 C36 1.247 . S
O30 Co28 2.091 . S
O30 C36 1.261 . S
C31 O40 1.247 . S
C31 O41 1.272 . S
O32 Co28 2.004 . S
O32 C37 1.259 . S
Co33 O34 2.061 . S
Co33 O39 2.052 . S
Co33 O41 2.135 . S
O34 Co33 2.061 . S
O34 C37 1.235 . S
C35 O38 1.238 . S
C35 O39 1.241 . S
C36 O29 1.247 . S
C36 O30 1.261 . S
C37 O32 1.259 . S
C37 O34 1.235 . S
O38 Co28 2.021 . S
O38 C35 1.238 . S
O39 Co33 2.052 . S
O39 C35 1.241 . S
O40 Co28 2.137 . S
O40 C31 1.247 . S
O41 Co28 2.244 . S
O41 C31 1.272 . S
O41 Co33 2.135 . S
Co42 O43 2.216 . S
Co42 O44 2.091 . S
Co42 O46 2.004 . S
Co42 O52 2.021 . S
Co42 O54 2.137 . S
Co42 O55 2.244 . S
O43 Co42 2.216 . S
O43 C50 1.247 . S
O44 Co42 2.091 . S
O44 C50 1.261 . S
C45 O54 1.247 . S
C45 O55 1.272 . S
O46 Co42 2.004 . S
O46 C51 1.259 . S
Co47 O48 2.061 . S
Co47 O53 2.052 . S
Co47 O55 2.135 . S
O48 Co47 2.061 . S
O48 C51 1.235 . S
C49 O52 1.238 . S
C49 O53 1.241 . S
C50 O43 1.247 . S
C50 O44 1.261 . S
C51 O46 1.259 . S
C51 O48 1.235 . S
O52 Co42 2.021 . S
O52 C49 1.238 . S
O53 Co47 2.052 . S
O53 C49 1.241 . S
O54 Co42 2.137 . S
O54 C45 1.247 . S
O55 Co42 2.244 . S
O55 C45 1.272 . S
O55 Co47 2.135 . S
Co56 O57 2.216 . S
Co56 O58 2.091 . S
Co56 O60 2.004 . S
Co56 O66 2.021 . S
Co56 O68 2.137 . S
Co56 O69 2.244 . S
O57 Co56 2.216 . S
O57 C64 1.247 . S
O58 Co56 2.091 . S
O58 C64 1.261 . S
C59 O68 1.247 . S
C59 O69 1.272 . S
O60 Co56 2.004 . S
O60 C65 1.259 . S
Co61 O62 2.061 . S
Co61 O67 2.052 . S
Co61 O69 2.135 . S
O62 Co61 2.061 . S
O62 C65 1.235 . S
C63 O66 1.238 . S
C63 O67 1.241 . S
C64 O57 1.247 . S
C64 O58 1.261 . S
C65 O60 1.259 . S
C65 O62 1.235 . S
O66 Co56 2.021 . S
O66 C63 1.238 . S
O67 Co61 2.052 . S
O67 C63 1.241 . S
O68 Co56 2.137 . S
O68 C59 1.247 . S
O69 Co56 2.244 . S
O69 C59 1.272 . S
O69 Co61 2.135 . S
Co70 O71 2.216 . S
Co70 O72 2.091 . S
Co70 O74 2.004 . S
Co70 O80 2.021 . S
Co70 O82 2.137 . S
Co70 O83 2.244 . S
O71 Co70 2.216 . S
O71 C78 1.247 . S
O72 Co70 2.091 . S
O72 C78 1.261 . S
C73 O82 1.247 . S
C73 O83 1.272 . S
O74 Co70 2.004 . S
O74 C79 1.259 . S
Co75 O76 2.061 . S
Co75 O81 2.052 . S
Co75 O83 2.135 . S
O76 Co75 2.061 . S
O76 C79 1.235 . S
C77 O80 1.238 . S
C77 O81 1.241 . S
C78 O71 1.247 . S
C78 O72 1.261 . S
C79 O74 1.259 . S
C79 O76 1.235 . S
O80 Co70 2.021 . S
O80 C77 1.238 . S
O81 Co75 2.052 . S
O81 C77 1.241 . S
O82 Co70 2.137 . S
O82 C73 1.247 . S
O83 Co70 2.244 . S
O83 C73 1.272 . S
O83 Co75 2.135 . S
Co84 O85 2.216 . S
Co84 O86 2.091 . S
Co84 O88 2.004 . S
Co84 O94 2.021 1_554 S
Co84 O96 2.137 . S
Co84 O97 2.244 . S
O85 Co84 2.216 . S
O85 C92 1.247 . S
O86 Co84 2.091 . S
O86 C92 1.261 . S
C87 O96 1.247 . S
C87 O97 1.272 . S
O88 Co84 2.004 . S
O88 C93 1.259 . S
Co89 O90 2.061 . S
Co89 O95 2.052 1_554 S
Co89 O97 2.135 . S
O90 Co89 2.061 . S
O90 C93 1.235 . S
C91 O94 1.238 . S
C91 O95 1.241 . S
C92 O85 1.247 . S
C92 O86 1.261 . S
C93 O88 1.259 . S
C93 O90 1.235 . S
O94 Co84 2.021 1_556 S
O94 C91 1.238 . S
O95 Co89 2.052 1_556 S
O95 C91 1.241 . S
O96 Co84 2.137 . S
O96 C87 1.247 . S
O97 Co84 2.244 . S
O97 C87 1.272 . S
O97 Co89 2.135 . S
Co98 O99 2.216 . S
Co98 O100 2.091 . S
Co98 O102 2.004 . S
Co98 O108 2.021 . S
Co98 O110 2.137 . S
Co98 O111 2.244 . S
O99 Co98 2.216 . S
O99 C106 1.247 . S
O100 Co98 2.091 . S
O100 C106 1.261 . S
C101 O110 1.247 . S
C101 O111 1.272 . S
O102 Co98 2.004 . S
O102 C107 1.259 . S
Co103 O104 2.061 . S
Co103 O109 2.052 . S
Co103 O111 2.135 . S
O104 Co103 2.061 . S
O104 C107 1.235 . S
C105 O108 1.238 . S
C105 O109 1.241 . S
C106 O99 1.247 . S
C106 O100 1.261 . S
C107 O102 1.259 . S
C107 O104 1.235 . S
O108 Co98 2.021 . S
O108 C105 1.238 . S
O109 Co103 2.052 . S
O109 C105 1.241 . S
O110 Co98 2.137 . S
O110 C101 1.247 . S
O111 Co98 2.244 . S
O111 C101 1.272 . S
O111 Co103 2.135 . S
Co112 O113 2.216 . S
Co112 O114 2.091 . S
Co112 O116 2.004 . S
Co112 O122 2.021 1_554 S
Co112 O124 2.137 . S
Co112 O125 2.244 . S
O113 Co112 2.216 . S
O113 C120 1.247 . S
O114 Co112 2.091 . S
O114 C120 1.261 . S
C115 O124 1.247 . S
C115 O125 1.272 . S
O116 Co112 2.004 . S
O116 C121 1.259 . S
Co117 O118 2.061 . S
Co117 O123 2.052 1_554 S
Co117 O125 2.135 . S
O118 Co117 2.061 . S
O118 C121 1.235 . S
C119 O122 1.238 . S
C119 O123 1.241 . S
C120 O113 1.247 . S
C120 O114 1.261 . S
C121 O116 1.259 . S
C121 O118 1.235 . S
O122 Co112 2.021 1_556 S
O122 C119 1.238 . S
O123 Co117 2.052 1_556 S
O123 C119 1.241 . S
O124 Co112 2.137 . S
O124 C115 1.247 . S
O125 Co112 2.244 . S
O125 C115 1.272 . S
O125 Co117 2.135 . S
Co126 O127 2.216 . S
Co126 O128 2.091 . S
Co126 O130 2.004 . S
Co126 O136 2.021 . S
Co126 O138 2.137 . S
Co126 O139 2.244 . S
O127 Co126 2.216 . S
O127 C134 1.247 . S
O128 Co126 2.091 . S
O128 C134 1.261 . S
C129 O138 1.247 . S
C129 O139 1.272 . S
O130 Co126 2.004 . S
O130 C135 1.259 . S
Co131 O132 2.061 . S
Co131 O137 2.052 . S
Co131 O139 2.135 . S
O132 Co131 2.061 . S
O132 C135 1.235 . S
C133 O136 1.238 . S
C133 O137 1.241 . S
C134 O127 1.247 . S
C134 O128 1.261 . S
C135 O130 1.259 . S
C135 O132 1.235 . S
O136 Co126 2.021 . S
O136 C133 1.238 . S
O137 Co131 2.052 . S
O137 C133 1.241 . S
O138 Co126 2.137 . S
O138 C129 1.247 . S
O139 Co126 2.244 . S
O139 C129 1.272 . S
O139 Co131 2.135 . S
Co140 O141 2.216 . S
Co140 O142 2.091 . S
Co140 O144 2.004 . S
Co140 O150 2.021 . S
Co140 O152 2.137 . S
Co140 O153 2.244 . S
O141 Co140 2.216 . S
O141 C148 1.247 . S
O142 Co140 2.091 . S
O142 C148 1.261 . S
C143 O152 1.247 . S
C143 O153 1.272 . S
O144 Co140 2.004 . S
O144 C149 1.259 . S
Co145 O146 2.061 . S
Co145 O151 2.052 . S
Co145 O153 2.135 . S
O146 Co145 2.061 . S
O146 C149 1.235 . S
C147 O150 1.238 . S
C147 O151 1.241 . S
C148 O141 1.247 . S
C148 O142 1.261 . S
C149 O144 1.259 . S
C149 O146 1.235 . S
O150 Co140 2.021 . S
O150 C147 1.238 . S
O151 Co145 2.052 . S
O151 C147 1.241 . S
O152 Co140 2.137 . S
O152 C143 1.247 . S
O153 Co140 2.244 . S
O153 C143 1.272 . S
O153 Co145 2.135 . S
Co154 O155 2.216 . S
Co154 O156 2.091 . S
Co154 O158 2.004 . S
Co154 O164 2.021 . S
Co154 O166 2.137 . S
Co154 O167 2.244 . S
O155 Co154 2.216 . S
O155 C162 1.247 . S
O156 Co154 2.091 . S
O156 C162 1.261 . S
C157 O166 1.247 . S
C157 O167 1.272 . S
O158 Co154 2.004 . S
O158 C163 1.259 . S
Co159 O160 2.061 . S
Co159 O165 2.052 . S
Co159 O167 2.135 . S
O160 Co159 2.061 . S
O160 C163 1.235 . S
C161 O164 1.238 . S
C161 O165 1.241 . S
C162 O155 1.247 . S
C162 O156 1.261 . S
C163 O158 1.259 . S
C163 O160 1.235 . S
O164 Co154 2.021 . S
O164 C161 1.238 . S
O165 Co159 2.052 . S
O165 C161 1.241 . S
O166 Co154 2.137 . S
O166 C157 1.247 . S
O167 Co154 2.244 . S
O167 C157 1.272 . S
O167 Co159 2.135 . S
Co168 O169 2.216 . S
Co168 O170 2.091 . S
Co168 O172 2.004 . S
Co168 O178 2.021 . S
Co168 O180 2.137 . S
Co168 O181 2.244 . S
O169 Co168 2.216 . S
O169 C176 1.247 . S
O170 Co168 2.091 . S
O170 C176 1.261 . S
C171 O180 1.247 . S
C171 O181 1.272 . S
O172 Co168 2.004 . S
O172 C177 1.259 . S
Co173 O174 2.061 . S
Co173 O179 2.052 . S
Co173 O181 2.135 . S
O174 Co173 2.061 . S
O174 C177 1.235 . S
C175 O178 1.238 . S
C175 O179 1.241 . S
C176 O169 1.247 . S
C176 O170 1.261 . S
C177 O172 1.259 . S
C177 O174 1.235 . S
O178 Co168 2.021 . S
O178 C175 1.238 . S
O179 Co173 2.052 . S
O179 C175 1.241 . S
O180 Co168 2.137 . S
O180 C171 1.247 . S
O181 Co168 2.244 . S
O181 C171 1.272 . S
O181 Co173 2.135 . S
Co182 O183 2.216 . S
Co182 O184 2.091 . S
Co182 O186 2.004 . S
Co182 O192 2.021 . S
Co182 O194 2.137 . S
Co182 O195 2.244 . S
O183 Co182 2.216 . S
O183 C190 1.247 . S
O184 Co182 2.091 . S
O184 C190 1.261 . S
C185 O194 1.247 . S
C185 O195 1.272 . S
O186 Co182 2.004 . S
O186 C191 1.259 . S
Co187 O188 2.061 . S
Co187 O193 2.052 . S
Co187 O195 2.135 . S
O188 Co187 2.061 . S
O188 C191 1.235 . S
C189 O192 1.238 . S
C189 O193 1.241 . S
C190 O183 1.247 . S
C190 O184 1.261 . S
C191 O186 1.259 . S
C191 O188 1.235 . S
O192 Co182 2.021 . S
O192 C189 1.238 . S
O193 Co187 2.052 . S
O193 C189 1.241 . S
O194 Co182 2.137 . S
O194 C185 1.247 . S
O195 Co182 2.244 . S
O195 C185 1.272 . S
O195 Co187 2.135 . S
Co196 O197 2.216 . S
Co196 O198 2.091 . S
Co196 O200 2.004 . S
Co196 O206 2.021 . S
Co196 O208 2.137 1_554 S
Co196 O209 2.244 . S
O197 Co196 2.216 . S
O197 C204 1.247 . S
O198 Co196 2.091 . S
O198 C204 1.261 . S
C199 O208 1.247 . S
C199 O209 1.272 1_556 S
O200 Co196 2.004 . S
O200 C205 1.259 . S
Co201 O202 2.061 . S
Co201 O207 2.052 . S
Co201 O209 2.135 . S
O202 Co201 2.061 . S
O202 C205 1.235 . S
C203 O206 1.238 . S
C203 O207 1.241 . S
C204 O197 1.247 . S
C204 O198 1.261 . S
C205 O200 1.259 . S
C205 O202 1.235 . S
O206 Co196 2.021 . S
O206 C203 1.238 . S
O207 Co201 2.052 . S
O207 C203 1.241 . S
O208 Co196 2.137 1_556 S
O208 C199 1.247 . S
O209 Co196 2.244 . S
O209 C199 1.272 1_554 S
O209 Co201 2.135 . S
Co210 O211 2.216 . S
Co210 O212 2.091 . S
Co210 O214 2.004 . S
Co210 O220 2.021 . S
Co210 O222 2.137 . S
Co210 O223 2.244 . S
O211 Co210 2.216 . S
O211 C218 1.247 . S
O212 Co210 2.091 . S
O212 C218 1.261 . S
C213 O222 1.247 . S
C213 O223 1.272 . S
O214 Co210 2.004 . S
O214 C219 1.259 . S
Co215 O216 2.061 . S
Co215 O221 2.052 . S
Co215 O223 2.135 . S
O216 Co215 2.061 . S
O216 C219 1.235 . S
C217 O220 1.238 . S
C217 O221 1.241 . S
C218 O211 1.247 . S
C218 O212 1.261 . S
C219 O214 1.259 . S
C219 O216 1.235 . S
O220 Co210 2.021 . S
O220 C217 1.238 . S
O221 Co215 2.052 . S
O221 C217 1.241 . S
O222 Co210 2.137 . S
O222 C213 1.247 . S
O223 Co210 2.244 . S
O223 C213 1.272 . S
O223 Co215 2.135 . S
Co224 O225 2.216 . S
Co224 O226 2.091 . S
Co224 O228 2.004 . S
Co224 O234 2.021 . S
Co224 O236 2.137 . S
Co224 O237 2.244 . S
O225 Co224 2.216 . S
O225 C232 1.247 . S
O226 Co224 2.091 . S
O226 C232 1.261 . S
C227 O236 1.247 . S
C227 O237 1.272 . S
O228 Co224 2.004 . S
O228 C233 1.259 . S
Co229 O230 2.067 . S
Co229 O235 2.052 . S
Co229 O237 2.135 1_545 S
O230 Co229 2.067 . S
O230 C233 1.227 1_545 S
C231 O234 1.238 . S
C231 O235 1.241 1_565 S
C232 O225 1.247 . S
C232 O226 1.261 . S
C233 O228 1.259 . S
C233 O230 1.227 1_565 S
O234 Co224 2.021 . S
O234 C231 1.238 . S
O235 Co229 2.052 . S
O235 C231 1.241 1_545 S
O236 Co224 2.137 . S
O236 C227 1.247 . S
O237 Co224 2.244 . S
O237 C227 1.272 . S
O237 Co229 2.135 1_565 S
Co238 O239 2.216 . S
Co238 O240 2.091 . S
Co238 O242 2.004 . S
Co238 O248 2.021 . S
Co238 O250 2.137 . S
Co238 O251 2.244 . S
O239 Co238 2.216 . S
O239 C246 1.247 . S
O240 Co238 2.091 . S
O240 C246 1.261 . S
C241 O250 1.247 . S
C241 O251 1.272 . S
O242 Co238 2.004 . S
O242 C247 1.259 . S
Co243 O244 2.061 . S
Co243 O249 2.052 . S
Co243 O251 2.135 . S
O244 Co243 2.061 . S
O244 C247 1.235 . S
C245 O248 1.238 . S
C245 O249 1.241 . S
C246 O239 1.247 . S
C246 O240 1.261 . S
C247 O242 1.259 . S
C247 O244 1.235 . S
O248 Co238 2.021 . S
O248 C245 1.238 . S
O249 Co243 2.052 . S
O249 C245 1.241 . S
O250 Co238 2.137 . S
O250 C241 1.247 . S
O251 Co238 2.244 . S
O251 C241 1.272 . S
O251 Co243 2.135 . S
Co252 O253 2.216 . S
Co252 O254 2.091 . S
Co252 O256 2.004 . S
Co252 O262 2.021 . S
Co252 O264 2.137 1_554 S
Co252 O265 2.244 . S
O253 Co252 2.216 . S
O253 C260 1.247 . S
O254 Co252 2.091 . S
O254 C260 1.261 . S
C255 O264 1.247 . S
C255 O265 1.272 1_556 S
O256 Co252 2.004 . S
O256 C261 1.259 . S
Co257 O258 2.065 . S
Co257 O263 2.052 . S
Co257 O265 2.135 1_565 S
O258 Co257 2.065 . S
O258 C261 1.229 1_565 S
C259 O262 1.238 . S
C259 O263 1.241 1_545 S
C260 O253 1.247 . S
C260 O254 1.261 . S
C261 O256 1.259 . S
C261 O258 1.229 1_545 S
O262 Co252 2.021 . S
O262 C259 1.238 . S
O263 Co257 2.052 . S
O263 C259 1.241 1_565 S
O264 Co252 2.137 1_556 S
O264 C255 1.247 . S
O265 Co252 2.244 . S
O265 C255 1.272 1_554 S
O265 Co257 2.135 1_545 S
Co266 O267 2.216 . S
Co266 O268 2.091 . S
Co266 O270 2.004 . S
Co266 O276 2.021 . S
Co266 O278 2.137 . S
Co266 O279 2.244 . S
O267 Co266 2.216 . S
O267 C274 1.247 . S
O268 Co266 2.091 . S
O268 C274 1.261 . S
C269 O278 1.247 . S
C269 O279 1.272 . S
O270 Co266 2.004 . S
O270 C275 1.259 . S
Co271 O272 2.061 . S
Co271 O277 2.052 . S
Co271 O279 2.135 . S
O272 Co271 2.061 . S
O272 C275 1.235 . S
C273 O276 1.238 . S
C273 O277 1.241 . S
C274 O267 1.247 . S
C274 O268 1.261 . S
C275 O270 1.259 . S
C275 O272 1.235 . S
O276 Co266 2.021 . S
O276 C273 1.238 . S
O277 Co271 2.052 . S
O277 C273 1.241 . S
O278 Co266 2.137 . S
O278 C269 1.247 . S
O279 Co266 2.244 . S
O279 C269 1.272 . S
O279 Co271 2.135 . S
Co280 O281 2.216 . S
Co280 O282 2.091 . S
Co280 O284 2.004 . S
Co280 O290 2.021 1_554 S
Co280 O292 2.137 . S
Co280 O293 2.244 . S
O281 Co280 2.216 . S
O281 C288 1.247 . S
O282 Co280 2.091 . S
O282 C288 1.261 . S
C283 O292 1.247 . S
C283 O293 1.272 . S
O284 Co280 2.004 . S
O284 C289 1.259 . S
Co285 O286 2.065 . S
Co285 O291 2.052 1_554 S
Co285 O293 2.135 1_565 S
O286 Co285 2.065 . S
O286 C289 1.229 1_565 S
C287 O290 1.238 . S
C287 O291 1.241 1_545 S
C288 O281 1.247 . S
C288 O282 1.261 . S
C289 O284 1.259 . S
C289 O286 1.229 1_545 S
O290 Co280 2.021 1_556 S
O290 C287 1.238 . S
O291 Co285 2.052 1_556 S
O291 C287 1.241 1_565 S
O292 Co280 2.137 . S
O292 C283 1.247 . S
O293 Co280 2.244 . S
O293 C283 1.272 . S
O293 Co285 2.135 1_545 S
Co294 O295 2.216 . S
Co294 O296 2.091 . S
Co294 O298 2.004 . S
Co294 O304 2.021 . S
Co294 O306 2.137 . S
Co294 O307 2.244 . S
O295 Co294 2.216 . S
O295 C302 1.247 . S
O296 Co294 2.091 . S
O296 C302 1.261 . S
C297 O306 1.247 . S
C297 O307 1.272 . S
O298 Co294 2.004 . S
O298 C303 1.259 . S
Co299 O300 2.061 . S
Co299 O305 2.052 . S
Co299 O307 2.135 . S
O300 Co299 2.061 . S
O300 C303 1.235 . S
C301 O304 1.238 . S
C301 O305 1.241 . S
C302 O295 1.247 . S
C302 O296 1.261 . S
C303 O298 1.259 . S
C303 O300 1.235 . S
O304 Co294 2.021 . S
O304 C301 1.238 . S
O305 Co299 2.052 . S
O305 C301 1.241 . S
O306 Co294 2.137 . S
O306 C297 1.247 . S
O307 Co294 2.244 . S
O307 C297 1.272 . S
O307 Co299 2.135 . S
Co308 O309 2.216 . S
Co308 O310 2.091 . S
Co308 O312 2.004 . S
Co308 O318 2.021 . S
Co308 O320 2.137 . S
Co308 O321 2.244 . S
O309 Co308 2.216 . S
O309 C316 1.247 . S
O310 Co308 2.091 . S
O310 C316 1.261 . S
C311 O320 1.247 . S
C311 O321 1.272 . S
O312 Co308 2.004 . S
O312 C317 1.259 . S
Co313 O314 2.065 . S
Co313 O319 2.052 . S
Co313 O321 2.135 1_545 S
O314 Co313 2.065 . S
O314 C317 1.229 1_545 S
C315 O318 1.238 . S
C315 O319 1.241 1_565 S
C316 O309 1.247 . S
C316 O310 1.261 . S
C317 O312 1.259 . S
C317 O314 1.229 1_565 S
O318 Co308 2.021 . S
O318 C315 1.238 . S
O319 Co313 2.052 . S
O319 C315 1.241 1_545 S
O320 Co308 2.137 . S
O320 C311 1.247 . S
O321 Co308 2.244 . S
O321 C311 1.272 . S
O321 Co313 2.135 1_565 S
Co322 O323 2.216 . S
Co322 O324 2.091 . S
Co322 O326 2.004 . S
Co322 O332 2.021 . S
Co322 O334 2.137 . S
Co322 O335 2.244 . S
O323 Co322 2.216 . S
O323 C330 1.247 . S
O324 Co322 2.091 . S
O324 C330 1.261 . S
C325 O334 1.247 . S
C325 O335 1.272 . S
O326 Co322 2.004 . S
O326 C331 1.259 . S
Co327 O328 2.061 . S
Co327 O333 2.052 . S
Co327 O335 2.135 . S
O328 Co327 2.061 . S
O328 C331 1.235 . S
C329 O332 1.238 . S
C329 O333 1.241 . S
C330 O323 1.247 . S
C330 O324 1.261 . S
C331 O326 1.259 . S
C331 O328 1.235 . S
O332 Co322 2.021 . S
O332 C329 1.238 . S
O333 Co327 2.052 . S
O333 C329 1.241 . S
O334 Co322 2.137 . S
O334 C325 1.247 . S
O335 Co322 2.244 . S
O335 C325 1.272 . S
O335 Co327 2.135 . S
Co336 O337 2.216 . S
Co336 O338 2.091 . S
Co336 O340 2.004 . S
Co336 O346 2.021 . S
Co336 O348 2.137 . S
Co336 O349 2.244 . S
O337 Co336 2.216 . S
O337 C344 1.247 . S
O338 Co336 2.091 . S
O338 C344 1.261 . S
C339 O348 1.247 . S
C339 O349 1.272 . S
O340 Co336 2.004 . S
O340 C345 1.259 . S
Co341 O342 2.065 . S
Co341 O347 2.052 . S
Co341 O349 2.135 1_565 S
O342 Co341 2.065 . S
O342 C345 1.229 1_565 S
C343 O346 1.238 . S
C343 O347 1.241 1_545 S
C344 O337 1.247 . S
C344 O338 1.261 . S
C345 O340 1.259 . S
C345 O342 1.229 1_545 S
O346 Co336 2.021 . S
O346 C343 1.238 . S
O347 Co341 2.052 . S
O347 C343 1.241 1_565 S
O348 Co336 2.137 . S
O348 C339 1.247 . S
O349 Co336 2.244 . S
O349 C339 1.272 . S
O349 Co341 2.135 1_545 S
Co350 O351 2.216 . S
Co350 O352 2.091 . S
Co350 O354 2.004 . S
Co350 O360 2.021 . S
Co350 O362 2.137 . S
Co350 O363 2.244 . S
O351 Co350 2.216 . S
O351 C358 1.247 . S
O352 Co350 2.091 . S
O352 C358 1.261 . S
C353 O362 1.247 . S
C353 O363 1.272 . S
O354 Co350 2.004 . S
O354 C359 1.259 . S
Co355 O356 2.061 . S
Co355 O361 2.052 . S
Co355 O363 2.135 . S
O356 Co355 2.061 . S
O356 C359 1.235 . S
C357 O360 1.238 . S
C357 O361 1.241 . S
C358 O351 1.247 . S
C358 O352 1.261 . S
C359 O354 1.259 . S
C359 O356 1.235 . S
O360 Co350 2.021 . S
O360 C357 1.238 . S
O361 Co355 2.052 . S
O361 C357 1.241 . S
O362 Co350 2.137 . S
O362 C353 1.247 . S
O363 Co350 2.244 . S
O363 C353 1.272 . S
O363 Co355 2.135 . S
Co364 O365 2.216 . S
Co364 O366 2.091 . S
Co364 O368 2.004 . S
Co364 O374 2.021 1_554 S
Co364 O376 2.137 . S
Co364 O377 2.244 . S
O365 Co364 2.216 . S
O365 C372 1.247 . S
O366 Co364 2.091 . S
O366 C372 1.261 . S
C367 O376 1.247 . S
C367 O377 1.272 . S
O368 Co364 2.004 . S
O368 C373 1.259 . S
Co369 O370 2.065 . S
Co369 O375 2.052 1_554 S
Co369 O377 2.135 1_545 S
O370 Co369 2.065 . S
O370 C373 1.229 1_545 S
C371 O374 1.238 . S
C371 O375 1.241 1_565 S
C372 O365 1.247 . S
C372 O366 1.261 . S
C373 O368 1.259 . S
C373 O370 1.229 1_565 S
O374 Co364 2.021 1_556 S
O374 C371 1.238 . S
O375 Co369 2.052 1_556 S
O375 C371 1.241 1_545 S
O376 Co364 2.137 . S
O376 C367 1.247 . S
O377 Co364 2.244 . S
O377 C367 1.272 . S
O377 Co369 2.135 1_565 S
Co378 O379 2.216 . S
Co378 O380 2.091 . S
Co378 O382 2.004 . S
Co378 O388 2.021 . S
Co378 O390 2.137 . S
Co378 O391 2.244 . S
O379 Co378 2.216 . S
O379 C386 1.247 . S
O380 Co378 2.091 . S
O380 C386 1.261 . S
C381 O390 1.247 . S
C381 O391 1.272 . S
O382 Co378 2.004 . S
O382 C387 1.259 . S
Co383 O384 2.061 . S
Co383 O389 2.052 . S
Co383 O391 2.135 . S
O384 Co383 2.061 . S
O384 C387 1.235 . S
C385 O388 1.238 . S
C385 O389 1.241 . S
C386 O379 1.247 . S
C386 O380 1.261 . S
C387 O382 1.259 . S
C387 O384 1.235 . S
O388 Co378 2.021 . S
O388 C385 1.238 . S
O389 Co383 2.052 . S
O389 C385 1.241 . S
O390 Co378 2.137 . S
O390 C381 1.247 . S
O391 Co378 2.244 . S
O391 C381 1.272 . S
O391 Co383 2.135 . S
Co392 O393 2.216 . S
Co392 O394 2.091 . S
Co392 O396 2.004 . S
Co392 O402 2.021 . S
Co392 O404 2.137 1_554 S
Co392 O405 2.244 . S
O393 Co392 2.216 . S
O393 C400 1.247 . S
O394 Co392 2.091 . S
O394 C400 1.261 . S
C395 O404 1.247 . S
C395 O405 1.272 1_556 S
O396 Co392 2.004 . S
O396 C401 1.259 . S
Co397 O398 2.065 . S
Co397 O403 2.052 . S
Co397 O405 2.135 1_545 S
O398 Co397 2.065 . S
O398 C401 1.229 1_545 S
C399 O402 1.238 . S
C399 O403 1.241 1_565 S
C400 O393 1.247 . S
C400 O394 1.261 . S
C401 O396 1.259 . S
C401 O398 1.229 1_565 S
O402 Co392 2.021 . S
O402 C399 1.238 . S
O403 Co397 2.052 . S
O403 C399 1.241 1_545 S
O404 Co392 2.137 1_556 S
O404 C395 1.247 . S
O405 Co392 2.244 . S
O405 C395 1.272 1_554 S
O405 Co397 2.135 1_565 S
Co406 O407 2.216 . S
Co406 O408 2.091 . S
Co406 O410 2.004 . S
Co406 O416 2.021 . S
Co406 O418 2.137 . S
Co406 O419 2.244 . S
O407 Co406 2.216 . S
O407 C414 1.247 . S
O408 Co406 2.091 . S
O408 C414 1.261 . S
C409 O418 1.247 . S
C409 O419 1.272 . S
O410 Co406 2.004 . S
O410 C415 1.259 . S
Co411 O412 2.061 . S
Co411 O417 2.052 . S
Co411 O419 2.135 . S
O412 Co411 2.061 . S
O412 C415 1.235 . S
C413 O416 1.238 . S
C413 O417 1.241 . S
C414 O407 1.247 . S
C414 O408 1.261 . S
C415 O410 1.259 . S
C415 O412 1.235 . S
O416 Co406 2.021 . S
O416 C413 1.238 . S
O417 Co411 2.052 . S
O417 C413 1.241 . S
O418 Co406 2.137 . S
O418 C409 1.247 . S
O419 Co406 2.244 . S
O419 C409 1.272 . S
O419 Co411 2.135 . S
Co420 O421 2.216 . S
Co420 O422 2.091 . S
Co420 O424 2.004 . S
Co420 O430 2.021 . S
Co420 O432 2.137 . S
Co420 O433 2.244 . S
O421 Co420 2.216 . S
O421 C428 1.247 . S
O422 Co420 2.091 . S
O422 C428 1.261 . S
C423 O432 1.247 . S
C423 O433 1.272 . S
O424 Co420 2.004 . S
O424 C429 1.259 . S
Co425 O426 2.067 . S
Co425 O431 2.052 . S
Co425 O433 2.135 1_565 S
O426 Co425 2.067 . S
O426 C429 1.227 1_565 S
C427 O430 1.238 . S
C427 O431 1.241 1_545 S
C428 O421 1.247 . S
C428 O422 1.261 . S
C429 O424 1.259 . S
C429 O426 1.227 1_545 S
O430 Co420 2.021 . S
O430 C427 1.238 . S
O431 Co425 2.052 . S
O431 C427 1.241 1_565 S
O432 Co420 2.137 . S
O432 C423 1.247 . S
O433 Co420 2.244 . S
O433 C423 1.272 . S
O433 Co425 2.135 1_545 S
Co434 O435 2.216 . S
Co434 O436 2.091 . S
Co434 O438 2.004 . S
Co434 O444 2.021 . S
Co434 O446 2.137 . S
Co434 O447 2.244 . S
O435 Co434 2.216 . S
O435 C442 1.247 . S
O436 Co434 2.091 . S
O436 C442 1.261 . S
C437 O446 1.247 . S
C437 O447 1.272 . S
O438 Co434 2.004 . S
O438 C443 1.259 . S
Co439 O440 2.061 . S
Co439 O445 2.052 . S
Co439 O447 2.135 . S
O440 Co439 2.061 . S
O440 C443 1.235 . S
C441 O444 1.238 . S
C441 O445 1.241 . S
C442 O435 1.247 . S
C442 O436 1.261 . S
C443 O438 1.259 . S
C443 O440 1.235 . S
O444 Co434 2.021 . S
O444 C441 1.238 . S
O445 Co439 2.052 . S
O445 C441 1.241 . S
O446 Co434 2.137 . S
O446 C437 1.247 . S
O447 Co434 2.244 . S
O447 C437 1.272 . S
O447 Co439 2.135 . S
H448 C454 0.930 1_556 S
H449 C458 0.930 . S
H450 C463 0.929 . S
H451 C461 0.929 1_556 S
H452 C456 0.929 . S
H453 C462 0.929 1_556 S
C454 H448 0.930 1_554 S
C454 C455 1.367 . S
C454 C462 1.378 . S
C455 C454 1.367 . S
C455 C463 1.433 . S
C456 H452 0.929 . S
C456 C458 1.378 . S
C456 C460 1.350 . S
C457 C460 1.463 1_655 S
C457 C462 1.350 . S
C457 N465 1.427 . S
C458 H449 0.930 . S
C458 C456 1.378 . S
C458 C459 1.367 . S
C459 C458 1.367 . S
C459 C461 1.433 . S
C460 C456 1.350 . S
C460 C457 1.463 1_455 S
C460 N464 1.427 . S
C461 H451 0.929 1_554 S
C461 C459 1.433 . S
C461 N464 1.384 . S
C462 H453 0.929 1_554 S
C462 C454 1.378 . S
C462 C457 1.350 . S
C463 H450 0.929 . S
C463 C455 1.433 . S
C463 N465 1.384 . S
N464 C460 1.427 . S
N464 C461 1.384 . S
N465 C457 1.427 . S
N465 C463 1.384 . S
H466 C472 0.930 . S
H467 C476 0.930 . S
H468 C481 0.929 . S
H469 C479 0.929 . S
H470 C474 0.929 . S
H471 C480 0.929 . S
C472 H466 0.930 . S
C472 C473 1.367 . S
C472 C480 1.378 . S
C473 C472 1.367 . S
C473 C481 1.433 . S
C474 H470 0.929 . S
C474 C476 1.378 . S
C474 C478 1.350 . S
C475 C478 1.463 . S
C475 C480 1.350 . S
C475 N483 1.427 . S
C476 H467 0.930 . S
C476 C474 1.378 . S
C476 C477 1.367 . S
C477 C476 1.367 . S
C477 C479 1.433 . S
C478 C474 1.350 . S
C478 C475 1.463 . S
C478 N482 1.427 . S
C479 H469 0.929 . S
C479 C477 1.433 . S
C479 N482 1.384 . S
C480 H471 0.929 . S
C480 C472 1.378 . S
C480 C475 1.350 . S
C481 H468 0.929 . S
C481 C473 1.433 . S
C481 N483 1.384 . S
N482 C478 1.427 . S
N482 C479 1.384 . S
N483 C475 1.427 . S
N483 C481 1.384 . S
H484 C490 0.930 . S
H485 C494 0.930 . S
H486 C499 0.929 . S
H487 C497 0.929 . S
H488 C492 0.929 . S
H489 C498 0.929 . S
C490 H484 0.930 . S
C490 C491 1.367 . S
C490 C498 1.378 . S
C491 C490 1.367 . S
C491 C499 1.433 . S
C492 H488 0.929 . S
C492 C494 1.378 . S
C492 C496 1.350 . S
C493 C496 1.463 . S
C493 C498 1.350 . S
C493 N501 1.427 . S
C494 H485 0.930 . S
C494 C492 1.378 . S
C494 C495 1.367 . S
C495 C494 1.367 . S
C495 C497 1.433 . S
C496 C492 1.350 . S
C496 C493 1.463 . S
C496 N500 1.427 . S
C497 H487 0.929 . S
C497 C495 1.433 . S
C497 N500 1.384 . S
C498 H489 0.929 . S
C498 C490 1.378 . S
C498 C493 1.350 . S
C499 H486 0.929 . S
C499 C491 1.433 . S
C499 N501 1.384 . S
N500 C496 1.427 . S
N500 C497 1.384 . S
N501 C493 1.427 . S
N501 C499 1.384 . S
H502 C508 0.930 . S
H503 C512 0.930 . S
H504 C517 0.929 . S
H505 C515 0.929 . S
H506 C510 0.929 . S
H507 C516 0.929 . S
C508 H502 0.930 . S
C508 C509 1.367 . S
C508 C516 1.378 . S
C509 C508 1.367 . S
C509 C517 1.433 . S
C510 H506 0.929 . S
C510 C512 1.378 . S
C510 C514 1.350 . S
C511 C514 1.463 . S
C511 C516 1.350 . S
C511 N519 1.427 . S
C512 H503 0.930 . S
C512 C510 1.378 . S
C512 C513 1.367 . S
C513 C512 1.367 . S
C513 C515 1.433 . S
C514 C510 1.350 . S
C514 C511 1.463 . S
C514 N518 1.427 . S
C515 H505 0.929 . S
C515 C513 1.433 . S
C515 N518 1.384 . S
C516 H507 0.929 . S
C516 C508 1.378 . S
C516 C511 1.350 . S
C517 H504 0.929 . S
C517 C509 1.433 . S
C517 N519 1.384 . S
N518 C514 1.427 . S
N518 C515 1.384 . S
N519 C511 1.427 . S
N519 C517 1.384 . S
H520 C526 0.930 . S
H521 C530 0.930 . S
H522 C535 0.929 . S
H523 C533 0.929 . S
H524 C528 0.929 . S
H525 C534 0.929 . S
C526 H520 0.930 . S
C526 C527 1.367 . S
C526 C534 1.378 . S
C527 C526 1.367 . S
C527 C535 1.433 . S
C528 H524 0.929 . S
C528 C530 1.378 . S
C528 C532 1.350 . S
C529 C532 1.463 1_455 S
C529 C534 1.350 . S
C529 N537 1.427 . S
C530 H521 0.930 . S
C530 C528 1.378 . S
C530 C531 1.367 . S
C531 C530 1.367 . S
C531 C533 1.433 . S
C532 C528 1.350 . S
C532 C529 1.463 1_655 S
C532 N536 1.427 . S
C533 H523 0.929 . S
C533 C531 1.433 . S
C533 N536 1.384 . S
C534 H525 0.929 . S
C534 C526 1.378 . S
C534 C529 1.350 . S
C535 H522 0.929 . S
C535 C527 1.433 . S
C535 N537 1.384 . S
N536 C532 1.427 . S
N536 C533 1.384 . S
N537 C529 1.427 . S
N537 C535 1.384 . S
H538 C544 0.930 . S
H539 C548 0.930 . S
H540 C553 0.929 . S
H541 C551 0.929 . S
H542 C546 0.929 . S
H543 C552 0.929 . S
C544 H538 0.930 . S
C544 C545 1.367 . S
C544 C552 1.378 . S
C545 C544 1.367 . S
C545 C553 1.433 . S
C546 H542 0.929 . S
C546 C548 1.378 . S
C546 C550 1.350 . S
C547 C550 1.463 . S
C547 C552 1.350 . S
C547 N555 1.427 . S
C548 H539 0.930 . S
C548 C546 1.378 . S
C548 C549 1.367 . S
C549 C548 1.367 . S
C549 C551 1.433 . S
C550 C546 1.350 . S
C550 C547 1.463 . S
C550 N554 1.427 . S
C551 H541 0.929 . S
C551 C549 1.433 . S
C551 N554 1.384 . S
C552 H543 0.929 . S
C552 C544 1.378 . S
C552 C547 1.350 . S
C553 H540 0.929 . S
C553 C545 1.433 . S
C553 N555 1.384 . S
N554 C550 1.427 . S
N554 C551 1.384 . S
N555 C547 1.427 . S
N555 C553 1.384 . S
H556 C562 0.930 1_556 S
H557 C566 0.930 . S
H558 C571 0.929 . S
H559 C569 0.929 . S
H560 C564 0.929 . S
H561 C570 0.929 1_556 S
C562 H556 0.930 1_554 S
C562 C563 1.367 . S
C562 C570 1.378 . S
C563 C562 1.367 . S
C563 C571 1.433 . S
C564 H560 0.929 . S
C564 C566 1.378 . S
C564 C568 1.350 . S
C565 C568 1.463 . S
C565 C570 1.350 . S
C565 N573 1.427 . S
C566 H557 0.930 . S
C566 C564 1.378 . S
C566 C567 1.367 . S
C567 C566 1.367 . S
C567 C569 1.433 1_554 S
C568 C564 1.350 . S
C568 C565 1.463 . S
C568 N572 1.408 1_554 S
C569 H559 0.929 . S
C569 C567 1.433 1_556 S
C569 N572 1.385 . S
C570 H561 0.929 1_554 S
C570 C562 1.378 . S
C570 C565 1.350 . S
C571 H558 0.929 . S
C571 C563 1.433 . S
C571 N573 1.384 . S
N572 C568 1.408 1_556 S
N572 C569 1.385 . S
N573 C565 1.427 . S
N573 C571 1.384 . S
H574 C580 0.930 . S
H575 C584 0.930 . S
H576 C589 0.929 . S
H577 C587 0.929 . S
H578 C582 0.929 . S
H579 C588 0.929 . S
C580 H574 0.930 . S
C580 C581 1.367 . S
C580 C588 1.378 . S
C581 C580 1.367 . S
C581 C589 1.433 . S
C582 H578 0.929 . S
C582 C584 1.378 . S
C582 C586 1.350 . S
C583 C586 1.463 . S
C583 C588 1.350 . S
C583 N591 1.427 . S
C584 H575 0.930 . S
C584 C582 1.378 . S
C584 C585 1.367 . S
C585 C584 1.367 . S
C585 C587 1.433 . S
C586 C582 1.350 . S
C586 C583 1.463 . S
C586 N590 1.427 . S
C587 H577 0.929 . S
C587 C585 1.433 . S
C587 N590 1.384 . S
C588 H579 0.929 . S
C588 C580 1.378 . S
C588 C583 1.350 . S
C589 H576 0.929 . S
C589 C581 1.433 . S
C589 N591 1.384 . S
N590 C586 1.427 . S
N590 C587 1.384 . S
N591 C583 1.427 . S
N591 C589 1.384 . S
H592 C598 0.930 . S
H593 C602 0.930 . S
H594 C607 0.929 . S
H595 C605 0.929 . S
H596 C600 0.929 . S
H597 C606 0.929 . S
C598 H592 0.930 . S
C598 C599 1.367 . S
C598 C606 1.378 . S
C599 C598 1.367 . S
C599 C607 1.433 . S
C600 H596 0.929 . S
C600 C602 1.378 . S
C600 C604 1.350 . S
C601 C604 1.463 . S
C601 C606 1.350 . S
C601 N609 1.427 . S
C602 H593 0.930 . S
C602 C600 1.378 . S
C602 C603 1.367 . S
C603 C602 1.367 . S
C603 C605 1.433 . S
C604 C600 1.350 . S
C604 C601 1.463 . S
C604 N608 1.427 . S
C605 H595 0.929 . S
C605 C603 1.433 . S
C605 N608 1.384 . S
C606 H597 0.929 . S
C606 C598 1.378 . S
C606 C601 1.350 . S
C607 H594 0.929 . S
C607 C599 1.433 . S
C607 N609 1.384 . S
N608 C604 1.427 . S
N608 C605 1.384 . S
N609 C601 1.427 . S
N609 C607 1.384 . S
H610 C616 0.930 . S
H611 C620 0.930 . S
H612 C625 0.929 . S
H613 C623 0.929 . S
H614 C618 0.929 . S
H615 C624 0.929 . S
C616 H610 0.930 . S
C616 C617 1.367 . S
C616 C624 1.378 . S
C617 C616 1.367 . S
C617 C625 1.433 . S
C618 H614 0.929 . S
C618 C620 1.378 . S
C618 C622 1.350 . S
C619 C622 1.463 . S
C619 C624 1.350 . S
C619 N627 1.427 . S
C620 H611 0.930 . S
C620 C618 1.378 . S
C620 C621 1.367 . S
C621 C620 1.367 . S
C621 C623 1.433 . S
C622 C618 1.350 . S
C622 C619 1.463 . S
C622 N626 1.427 . S
C623 H613 0.929 . S
C623 C621 1.433 . S
C623 N626 1.384 . S
C624 H615 0.929 . S
C624 C616 1.378 . S
C624 C619 1.350 . S
C625 H612 0.929 . S
C625 C617 1.433 . S
C625 N627 1.384 . S
N626 C622 1.427 . S
N626 C623 1.384 . S
N627 C619 1.427 . S
N627 C625 1.384 . S
H628 C634 0.930 . S
H629 C638 0.930 . S
H630 C643 0.929 . S
H631 C641 0.929 . S
H632 C636 0.929 . S
H633 C642 0.929 . S
C634 H628 0.930 . S
C634 C635 1.367 . S
C634 C642 1.378 . S
C635 C634 1.367 . S
C635 C643 1.433 . S
C636 H632 0.929 . S
C636 C638 1.378 . S
C636 C640 1.350 . S
C637 C640 1.463 . S
C637 C642 1.350 . S
C637 N645 1.427 . S
C638 H629 0.930 . S
C638 C636 1.378 . S
C638 C639 1.367 . S
C639 C638 1.367 . S
C639 C641 1.433 . S
C640 C636 1.350 . S
C640 C637 1.463 . S
C640 N644 1.427 . S
C641 H631 0.929 . S
C641 C639 1.433 . S
C641 N644 1.384 . S
C642 H633 0.929 . S
C642 C634 1.378 . S
C642 C637 1.350 . S
C643 H630 0.929 . S
C643 C635 1.433 . S
C643 N645 1.384 . S
N644 C640 1.427 . S
N644 C641 1.384 . S
N645 C637 1.427 . S
N645 C643 1.384 . S
H646 C652 0.930 . S
H647 C656 0.930 . S
H648 C661 0.929 . S
H649 C659 0.929 . S
H650 C654 0.929 . S
H651 C660 0.929 . S
C652 H646 0.930 . S
C652 C653 1.367 . S
C652 C660 1.378 . S
C653 C652 1.367 . S
C653 C661 1.433 . S
C654 H650 0.929 . S
C654 C656 1.378 . S
C654 C658 1.350 . S
C655 C658 1.463 . S
C655 C660 1.350 . S
C655 N663 1.427 . S
C656 H647 0.930 . S
C656 C654 1.378 . S
C656 C657 1.367 . S
C657 C656 1.367 . S
C657 C659 1.433 . S
C658 C654 1.350 . S
C658 C655 1.463 . S
C658 N662 1.427 . S
C659 H649 0.929 . S
C659 C657 1.433 . S
C659 N662 1.384 . S
C660 H651 0.929 . S
C660 C652 1.378 . S
C660 C655 1.350 . S
C661 H648 0.929 . S
C661 C653 1.433 . S
C661 N663 1.384 . S
N662 C658 1.427 . S
N662 C659 1.384 . S
N663 C655 1.427 . S
N663 C661 1.384 . S
H664 C670 0.930 . S
H665 C674 0.930 . S
H666 C679 0.929 . S
H667 C677 0.929 . S
H668 C672 0.929 . S
H669 C678 0.929 . S
C670 H664 0.930 . S
C670 C671 1.367 . S
C670 C678 1.378 1_545 S
C671 C670 1.367 . S
C671 C679 1.433 . S
C672 H668 0.929 . S
C672 C674 1.378 1_545 S
C672 C676 1.350 1_545 S
C673 C676 1.463 1_545 S
C673 C678 1.350 1_545 S
C673 N681 1.427 . S
C674 H665 0.930 . S
C674 C672 1.378 1_565 S
C674 C675 1.367 . S
C675 C674 1.367 . S
C675 C677 1.433 . S
C676 C672 1.350 1_565 S
C676 C673 1.463 1_565 S
C676 N680 1.427 . S
C677 H667 0.929 . S
C677 C675 1.433 . S
C677 N680 1.384 . S
C678 H669 0.929 . S
C678 C670 1.378 1_565 S
C678 C673 1.350 1_565 S
C679 H666 0.929 . S
C679 C671 1.433 . S
C679 N681 1.384 . S
N680 C676 1.427 . S
N680 C677 1.384 . S
N681 C673 1.427 . S
N681 C679 1.384 . S
H682 C688 0.930 . S
H683 C692 0.930 . S
H684 C697 0.929 1_556 S
H685 C695 0.929 . S
H686 C690 0.929 1_545 S
H687 C696 0.929 1_565 S
C688 H682 0.930 . S
C688 C689 1.367 . S
C688 C696 1.378 . S
C689 C688 1.367 . S
C689 C697 1.433 . S
C690 H686 0.929 1_565 S
C690 C692 1.378 . S
C690 C694 1.350 1_556 S
C691 C694 1.463 1_645 S
C691 C696 1.350 . S
C691 N699 1.427 . S
C692 H683 0.930 . S
C692 C690 1.378 . S
C692 C693 1.367 1_556 S
C693 C692 1.367 1_554 S
C693 C695 1.433 . S
C694 C690 1.350 1_554 S
C694 C691 1.463 1_465 S
C694 N698 1.427 . S
C695 H685 0.929 . S
C695 C693 1.433 . S
C695 N698 1.384 . S
C696 H687 0.929 1_545 S
C696 C688 1.378 . S
C696 C691 1.350 . S
C697 H684 0.929 1_554 S
C697 C689 1.433 . S
C697 N699 1.384 . S
N698 C694 1.427 . S
N698 C695 1.384 . S
N699 C691 1.427 . S
N699 C697 1.384 . S
H700 C706 0.941 . S
H701 C710 0.930 . S
H702 C715 0.929 . S
H703 C713 0.929 1_556 S
H704 C708 0.951 . S
H705 C714 0.952 1_556 S
C706 H700 0.941 . S
C706 C707 1.356 1_556 S
C706 C714 1.364 1_546 S
C707 C706 1.356 1_554 S
C707 C715 1.433 . S
C708 H704 0.951 . S
C708 C710 1.365 1_545 S
C708 C712 1.342 1_545 S
C709 C712 1.463 1_545 S
C709 C714 1.342 1_545 S
C709 N717 1.427 . S
C710 H701 0.930 . S
C710 C708 1.365 1_565 S
C710 C711 1.367 . S
C711 C710 1.367 . S
C711 C713 1.433 . S
C712 C708 1.342 1_565 S
C712 C709 1.463 1_565 S
C712 N716 1.427 . S
C713 H703 0.929 1_554 S
C713 C711 1.433 . S
C713 N716 1.384 . S
C714 H705 0.952 1_554 S
C714 C706 1.364 1_564 S
C714 C709 1.342 1_565 S
C715 H702 0.929 . S
C715 C707 1.433 . S
C715 N717 1.384 . S
N716 C712 1.427 . S
N716 C713 1.384 . S
N717 C709 1.427 . S
N717 C715 1.384 . S
H718 C724 0.930 . S
H719 C728 0.930 . S
H720 C733 0.929 . S
H721 C731 0.929 . S
H722 C726 0.929 . S
H723 C732 0.929 . S
C724 H718 0.930 . S
C724 C725 1.367 . S
C724 C732 1.378 . S
C725 C724 1.367 . S
C725 C733 1.433 1_545 S
C726 H722 0.929 . S
C726 C728 1.378 . S
C726 C730 1.350 . S
C727 C730 1.463 1_445 S
C727 C732 1.350 . S
C727 N735 1.427 1_545 S
C728 H719 0.930 . S
C728 C726 1.378 . S
C728 C729 1.367 . S
C729 C728 1.367 . S
C729 C731 1.433 1_565 S
C730 C726 1.350 . S
C730 C727 1.463 1_665 S
C730 N734 1.427 1_565 S
C731 H721 0.929 . S
C731 C729 1.433 1_545 S
C731 N734 1.384 . S
C732 H723 0.929 . S
C732 C724 1.378 . S
C732 C727 1.350 . S
C733 H720 0.929 . S
C733 C725 1.433 1_565 S
C733 N735 1.384 . S
N734 C730 1.427 1_545 S
N734 C731 1.384 . S
N735 C727 1.427 1_565 S
N735 C733 1.384 . S
H736 C742 0.930 . S
H737 C746 0.930 . S
H738 C751 0.929 . S
H739 C749 0.929 . S
H740 C744 0.929 . S
H741 C750 0.929 . S
C742 H736 0.930 . S
C742 C743 1.367 . S
C742 C750 1.378 . S
C743 C742 1.367 . S
C743 C751 1.433 . S
C744 H740 0.929 . S
C744 C746 1.378 . S
C744 C748 1.350 . S
C745 C748 1.463 . S
C745 C750 1.350 . S
C745 N753 1.427 . S
C746 H737 0.930 . S
C746 C744 1.378 . S
C746 C747 1.367 . S
C747 C746 1.367 . S
C747 C749 1.433 . S
C748 C744 1.350 . S
C748 C745 1.463 . S
C748 N752 1.427 . S
C749 H739 0.929 . S
C749 C747 1.433 . S
C749 N752 1.384 . S
C750 H741 0.929 . S
C750 C742 1.378 . S
C750 C745 1.350 . S
C751 H738 0.929 . S
C751 C743 1.433 . S
C751 N753 1.384 . S
N752 C748 1.427 . S
N752 C749 1.384 . S
N753 C745 1.427 . S
N753 C751 1.384 . S
H754 C760 0.930 . S
H755 C764 0.930 . S
H756 C769 0.929 . S
H757 C767 0.929 . S
H758 C762 0.929 . S
H759 C768 0.929 1_554 S
C760 H754 0.930 . S
C760 C761 1.367 . S
C760 C768 1.378 . S
C761 C760 1.367 . S
C761 C769 1.433 . S
C762 H758 0.929 . S
C762 C764 1.378 . S
C762 C766 1.350 . S
C763 C766 1.463 . S
C763 C768 1.350 1_554 S
C763 N771 1.427 1_554 S
C764 H755 0.930 . S
C764 C762 1.378 . S
C764 C765 1.367 . S
C765 C764 1.367 . S
C765 C767 1.433 . S
C766 C762 1.350 . S
C766 C763 1.463 . S
C766 N770 1.427 . S
C767 H757 0.929 . S
C767 C765 1.433 . S
C767 N770 1.384 . S
C768 H759 0.929 1_556 S
C768 C760 1.378 . S
C768 C763 1.350 1_556 S
C769 H756 0.929 . S
C769 C761 1.433 . S
C769 N771 1.384 . S
N770 C766 1.427 . S
N770 C767 1.384 . S
N771 C763 1.427 1_556 S
N771 C769 1.384 . S
H772 C778 0.930 . S
H773 C782 0.930 . S
H774 C787 0.929 . S
H775 C785 0.929 . S
H776 C780 0.929 . S
H777 C786 0.929 . S
C778 H772 0.930 . S
C778 C779 1.367 . S
C778 C786 1.378 . S
C779 C778 1.367 . S
C779 C787 1.433 . S
C780 H776 0.929 . S
C780 C782 1.378 . S
C780 C784 1.350 . S
C781 C784 1.463 . S
C781 C786 1.350 . S
C781 N789 1.427 . S
C782 H773 0.930 . S
C782 C780 1.378 . S
C782 C783 1.367 . S
C783 C782 1.367 . S
C783 C785 1.433 . S
C784 C780 1.350 . S
C784 C781 1.463 . S
C784 N788 1.427 . S
C785 H775 0.929 . S
C785 C783 1.433 . S
C785 N788 1.384 . S
C786 H777 0.929 . S
C786 C778 1.378 . S
C786 C781 1.350 . S
C787 H774 0.929 . S
C787 C779 1.433 . S
C787 N789 1.384 . S
N788 C784 1.427 . S
N788 C785 1.384 . S
N789 C781 1.427 . S
N789 C787 1.384 . S
H790 C796 0.930 . S
H791 C800 0.930 . S
H792 C805 0.929 . S
H793 C803 0.929 . S
H794 C798 0.929 . S
H795 C804 0.929 . S
C796 H790 0.930 . S
C796 C797 1.367 . S
C796 C804 1.378 . S
C797 C796 1.367 . S
C797 C805 1.433 . S
C798 H794 0.929 . S
C798 C800 1.378 . S
C798 C802 1.350 . S
C799 C802 1.463 . S
C799 C804 1.350 . S
C799 N807 1.427 . S
C800 H791 0.930 . S
C800 C798 1.378 . S
C800 C801 1.367 . S
C801 C800 1.367 . S
C801 C803 1.433 . S
C802 C798 1.350 . S
C802 C799 1.463 . S
C802 N806 1.427 . S
C803 H793 0.929 . S
C803 C801 1.433 . S
C803 N806 1.384 . S
C804 H795 0.929 . S
C804 C796 1.378 . S
C804 C799 1.350 . S
C805 H792 0.929 . S
C805 C797 1.433 . S
C805 N807 1.384 . S
N806 C802 1.427 . S
N806 C803 1.384 . S
N807 C799 1.427 . S
N807 C805 1.384 . S
H808 C814 0.930 . S
H809 C818 0.930 . S
H810 C823 0.929 . S
H811 C821 0.929 . S
H812 C816 0.929 . S
H813 C822 0.929 . S
C814 H808 0.930 . S
C814 C815 1.367 . S
C814 C822 1.378 . S
C815 C814 1.367 . S
C815 C823 1.433 . S
C816 H812 0.929 . S
C816 C818 1.378 . S
C816 C820 1.350 . S
C817 C820 1.463 . S
C817 C822 1.350 . S
C817 N825 1.427 . S
C818 H809 0.930 . S
C818 C816 1.378 . S
C818 C819 1.367 . S
C819 C818 1.367 . S
C819 C821 1.433 . S
C820 C816 1.350 . S
C820 C817 1.463 . S
C820 N824 1.427 . S
C821 H811 0.929 . S
C821 C819 1.433 . S
C821 N824 1.384 . S
C822 H813 0.929 . S
C822 C814 1.378 . S
C822 C817 1.350 . S
C823 H810 0.929 . S
C823 C815 1.433 . S
C823 N825 1.384 . S
N824 C820 1.427 . S
N824 C821 1.384 . S
N825 C817 1.427 . S
N825 C823 1.384 . S
H826 C832 0.930 . S
H827 C836 0.930 . S
H828 C841 0.929 . S
H829 C839 0.929 . S
H830 C834 0.929 . S
H831 C840 0.929 1_554 S
C832 H826 0.930 . S
C832 C833 1.367 . S
C832 C840 1.378 . S
C833 C832 1.367 . S
C833 C841 1.433 . S
C834 H830 0.929 . S
C834 C836 1.378 . S
C834 C838 1.350 . S
C835 C838 1.463 . S
C835 C840 1.350 1_554 S
C835 N843 1.426 1_554 S
C836 H827 0.930 . S
C836 C834 1.378 . S
C836 C837 1.367 . S
C837 C836 1.367 . S
C837 C839 1.433 . S
C838 C834 1.350 . S
C838 C835 1.463 . S
C838 N842 1.427 . S
C839 H829 0.929 . S
C839 C837 1.433 . S
C839 N842 1.384 . S
C840 H831 0.929 1_556 S
C840 C832 1.378 . S
C840 C835 1.350 1_556 S
C841 H828 0.929 . S
C841 C833 1.433 . S
C841 N843 1.388 . S
N842 C838 1.427 . S
N842 C839 1.384 . S
N843 C835 1.426 1_556 S
N843 C841 1.388 . S
H844 C850 0.930 . S
H845 C854 0.930 . S
H846 C859 0.929 . S
H847 C857 0.929 . S
H848 C852 0.929 . S
H849 C858 0.929 . S
C850 H844 0.930 . S
C850 C851 1.367 . S
C850 C858 1.378 . S
C851 C850 1.367 . S
C851 C859 1.433 . S
C852 H848 0.929 . S
C852 C854 1.378 . S
C852 C856 1.350 . S
C853 C856 1.463 . S
C853 C858 1.350 . S
C853 N861 1.427 . S
C854 H845 0.930 . S
C854 C852 1.378 . S
C854 C855 1.367 . S
C855 C854 1.367 . S
C855 C857 1.433 . S
C856 C852 1.350 . S
C856 C853 1.463 . S
C856 N860 1.427 . S
C857 H847 0.929 . S
C857 C855 1.433 . S
C857 N860 1.384 . S
C858 H849 0.929 . S
C858 C850 1.378 . S
C858 C853 1.350 . S
C859 H846 0.929 . S
C859 C851 1.433 . S
C859 N861 1.384 . S
N860 C856 1.427 . S
N860 C857 1.384 . S
N861 C853 1.427 . S
N861 C859 1.384 . S
H862 C868 0.930 . S
H863 C872 0.930 . S
H864 C877 0.929 . S
H865 C875 0.929 . S
H866 C870 0.929 . S
H867 C876 0.929 . S
C868 H862 0.930 . S
C868 C869 1.367 . S
C868 C876 1.378 . S
C869 C868 1.367 . S
C869 C877 1.433 . S
C870 H866 0.929 . S
C870 C872 1.378 . S
C870 C874 1.350 . S
C871 C874 1.463 . S
C871 C876 1.350 . S
C871 N879 1.427 . S
C872 H863 0.930 . S
C872 C870 1.378 . S
C872 C873 1.367 . S
C873 C872 1.367 . S
C873 C875 1.433 . S
C874 C870 1.350 . S
C874 C871 1.463 . S
C874 N878 1.427 . S
C875 H865 0.929 . S
C875 C873 1.433 . S
C875 N878 1.384 . S
C876 H867 0.929 . S
C876 C868 1.378 . S
C876 C871 1.350 . S
C877 H864 0.929 . S
C877 C869 1.433 . S
C877 N879 1.384 . S
N878 C874 1.427 . S
N878 C875 1.384 . S
N879 C871 1.427 . S
N879 C877 1.384 . S
H880 C886 0.930 . S
H881 C890 0.930 . S
H882 C895 0.929 . S
H883 C893 0.929 . S
H884 C888 0.929 . S
H885 C894 0.929 . S
C886 H880 0.930 . S
C886 C887 1.367 1_565 S
C886 C894 1.378 . S
C887 C886 1.367 1_545 S
C887 C895 1.433 . S
C888 H884 0.929 . S
C888 C890 1.378 . S
C888 C892 1.306 1_545 S
C889 C892 1.456 1_545 S
C889 C894 1.304 1_545 S
C889 N897 1.483 . S
C890 H881 0.930 . S
C890 C888 1.378 . S
C890 C891 1.367 1_545 S
C891 C890 1.367 1_565 S
C891 C893 1.433 . S
C892 C888 1.306 1_565 S
C892 C889 1.456 1_565 S
C892 N896 1.481 . S
C893 H883 0.929 . S
C893 C891 1.433 . S
C893 N896 1.384 . S
C894 H885 0.929 . S
C894 C886 1.378 . S
C894 C889 1.304 1_565 S
C895 H882 0.929 . S
C895 C887 1.433 . S
C895 N897 1.384 . S
N896 C892 1.481 . S
N896 C893 1.384 . S
N897 C889 1.483 . S
N897 C895 1.384 . S
H898 C904 0.930 . S
H899 C908 0.930 . S
H900 C913 0.929 . S
H901 C911 0.929 . S
H902 C906 0.929 . S
H903 C912 0.929 . S
C904 H898 0.930 . S
C904 C905 1.367 . S
C904 C912 1.378 . S
C905 C904 1.367 . S
C905 C913 1.433 . S
C906 H902 0.929 . S
C906 C908 1.378 . S
C906 C910 1.350 . S
C907 C910 1.463 . S
C907 C912 1.350 . S
C907 N915 1.427 . S
C908 H899 0.930 . S
C908 C906 1.378 . S
C908 C909 1.367 . S
C909 C908 1.367 . S
C909 C911 1.433 . S
C910 C906 1.350 . S
C910 C907 1.463 . S
C910 N914 1.427 . S
C911 H901 0.929 . S
C911 C909 1.433 . S
C911 N914 1.384 . S
C912 H903 0.929 . S
C912 C904 1.378 . S
C912 C907 1.350 . S
C913 H900 0.929 . S
C913 C905 1.433 . S
C913 N915 1.384 . S
N914 C910 1.427 . S
N914 C911 1.384 . S
N915 C907 1.427 . S
N915 C913 1.384 . S
H916 C922 0.930 . S
H917 C926 0.930 . S
H918 C931 0.929 . S
H919 C929 0.929 . S
H920 C924 0.929 . S
H921 C930 0.929 . S
C922 H916 0.930 . S
C922 C923 1.367 . S
C922 C930 1.378 . S
C923 C922 1.367 . S
C923 C931 1.433 1_545 S
C924 H920 0.929 . S
C924 C926 1.378 . S
C924 C928 1.350 . S
C925 C928 1.463 1_545 S
C925 C930 1.350 . S
C925 N933 1.427 1_545 S
C926 H917 0.930 . S
C926 C924 1.378 . S
C926 C927 1.367 . S
C927 C926 1.367 . S
C927 C929 1.433 1_565 S
C928 C924 1.350 . S
C928 C925 1.463 1_565 S
C928 N932 1.427 1_565 S
C929 H919 0.929 . S
C929 C927 1.433 1_545 S
C929 N932 1.384 . S
C930 H921 0.929 . S
C930 C922 1.378 . S
C930 C925 1.350 . S
C931 H918 0.929 . S
C931 C923 1.433 1_565 S
C931 N933 1.384 . S
N932 C928 1.427 1_545 S
N932 C929 1.384 . S
N933 C925 1.427 1_565 S
N933 C931 1.384 . S
H934 C940 0.930 . S
H935 C944 0.930 . S
H936 C949 0.929 . S
H937 C947 0.929 . S
H938 C942 0.929 . S
H939 C948 0.929 1_554 S
C940 H934 0.930 . S
C940 C941 1.367 . S
C940 C948 1.378 . S
C941 C940 1.367 . S
C941 C949 1.433 . S
C942 H938 0.929 . S
C942 C944 1.378 . S
C942 C946 1.350 . S
C943 C946 1.463 . S
C943 C948 1.350 1_554 S
C943 N951 1.427 1_554 S
C944 H935 0.930 . S
C944 C942 1.378 . S
C944 C945 1.367 . S
C945 C944 1.367 . S
C945 C947 1.433 . S
C946 C942 1.350 . S
C946 C943 1.463 . S
C946 N950 1.427 . S
C947 H937 0.929 . S
C947 C945 1.433 . S
C947 N950 1.384 . S
C948 H939 0.929 1_556 S
C948 C940 1.378 . S
C948 C943 1.350 1_556 S
C949 H936 0.929 . S
C949 C941 1.433 . S
C949 N951 1.384 . S
N950 C946 1.427 . S
N950 C947 1.384 . S
N951 C943 1.427 1_556 S
N951 C949 1.384 . S
H952 C958 0.930 . S
H953 C962 0.930 . S
H954 C967 0.929 . S
H955 C965 0.929 . S
H956 C960 0.925 1_565 S
H957 C966 0.925 1_545 S
C958 H952 0.930 . S
C958 C959 1.367 . S
C958 C966 1.381 . S
C959 C958 1.367 . S
C959 C967 1.433 . S
C960 H956 0.925 1_545 S
C960 C962 1.380 . S
C960 C964 1.351 . S
C961 C964 1.463 1_565 S
C961 C966 1.351 . S
C961 N969 1.427 . S
C962 H953 0.930 . S
C962 C960 1.380 . S
C962 C963 1.367 . S
C963 C962 1.367 . S
C963 C965 1.433 . S
C964 C960 1.351 . S
C964 C961 1.463 1_545 S
C964 N968 1.427 . S
C965 H955 0.929 . S
C965 C963 1.433 . S
C965 N968 1.384 . S
C966 H957 0.925 1_565 S
C966 C958 1.381 . S
C966 C961 1.351 . S
C967 H954 0.929 . S
C967 C959 1.433 . S
C967 N969 1.384 . S
N968 C964 1.427 . S
N968 C965 1.384 . S
N969 C961 1.427 . S
N969 C967 1.384 . S
H970 C976 0.930 . S
H971 C980 0.930 . S
H972 C985 0.929 . S
H973 C983 0.929 . S
H974 C978 0.929 . S
H975 C984 0.929 . S
C976 H970 0.930 . S
C976 C977 1.367 . S
C976 C984 1.378 . S
C977 C976 1.367 . S
C977 C985 1.433 . S
C978 H974 0.929 . S
C978 C980 1.378 . S
C978 C982 1.350 . S
C979 C982 1.463 . S
C979 C984 1.350 . S
C979 N987 1.427 . S
C980 H971 0.930 . S
C980 C978 1.378 . S
C980 C981 1.367 . S
C981 C980 1.367 . S
C981 C983 1.433 . S
C982 C978 1.350 . S
C982 C979 1.463 . S
C982 N986 1.427 . S
C983 H973 0.929 . S
C983 C981 1.433 . S
C983 N986 1.384 . S
C984 H975 0.929 . S
C984 C976 1.378 . S
C984 C979 1.350 . S
C985 H972 0.929 . S
C985 C977 1.433 . S
C985 N987 1.384 . S
N986 C982 1.427 . S
N986 C983 1.384 . S
N987 C979 1.427 . S
N987 C985 1.384 . S
H988 C994 0.930 . S
H989 C998 0.930 . S
H990 C1003 0.929 . S
H991 C1001 0.929 . S
H992 C996 0.929 . S
H993 C1002 0.929 . S
C994 H988 0.930 . S
C994 C995 1.367 . S
C994 C1002 1.378 . S
C995 C994 1.367 . S
C995 C1003 1.433 1_545 S
C996 H992 0.929 . S
C996 C998 1.378 . S
C996 C1000 1.350 . S
C997 C1000 1.463 1_545 S
C997 C1002 1.350 . S
C997 N1005 1.427 1_545 S
C998 H989 0.930 . S
C998 C996 1.378 . S
C998 C999 1.367 . S
C999 C998 1.367 . S
C999 C1001 1.433 1_565 S
C1000 C996 1.350 . S
C1000 C997 1.463 1_565 S
C1000 N1004 1.427 1_565 S
C1001 H991 0.929 . S
C1001 C999 1.433 1_545 S
C1001 N1004 1.384 . S
C1002 H993 0.929 . S
C1002 C994 1.378 . S
C1002 C997 1.350 . S
C1003 H990 0.929 . S
C1003 C995 1.433 1_565 S
C1003 N1005 1.384 . S
N1004 C1000 1.427 1_545 S
N1004 C1001 1.384 . S
N1005 C997 1.427 1_565 S
N1005 C1003 1.384 . S
H1006 C1012 0.930 . S
H1007 C1016 0.930 . S
H1008 C1021 0.929 . S
H1009 C1019 0.929 . S
H1010 C1014 0.929 1_554 S
H1011 C1020 0.929 . S
C1012 H1006 0.930 . S
C1012 C1013 1.367 . S
C1012 C1020 1.378 . S
C1013 C1012 1.367 . S
C1013 C1021 1.433 . S
C1014 H1010 0.929 1_556 S
C1014 C1016 1.378 . S
C1014 C1018 1.350 1_556 S
C1015 C1018 1.463 . S
C1015 C1020 1.350 . S
C1015 N1023 1.427 . S
C1016 H1007 0.930 . S
C1016 C1014 1.378 . S
C1016 C1017 1.367 . S
C1017 C1016 1.367 . S
C1017 C1019 1.433 . S
C1018 C1014 1.350 1_554 S
C1018 C1015 1.463 . S
C1018 N1022 1.427 1_554 S
C1019 H1009 0.929 . S
C1019 C1017 1.433 . S
C1019 N1022 1.384 . S
C1020 H1011 0.929 . S
C1020 C1012 1.378 . S
C1020 C1015 1.350 . S
C1021 H1008 0.929 . S
C1021 C1013 1.433 . S
C1021 N1023 1.384 . S
N1022 C1018 1.427 1_556 S
N1022 C1019 1.384 . S
N1023 C1015 1.427 . S
N1023 C1021 1.384 . S
H1024 C1030 0.930 . S
H1025 C1034 0.930 . S
H1026 C1039 0.929 . S
H1027 C1037 0.929 . S
H1028 C1032 0.929 . S
H1029 C1038 0.929 . S
C1030 H1024 0.930 . S
C1030 C1031 1.367 . S
C1030 C1038 1.378 . S
C1031 C1030 1.367 . S
C1031 C1039 1.433 . S
C1032 H1028 0.929 . S
C1032 C1034 1.378 . S
C1032 C1036 1.350 . S
C1033 C1036 1.463 . S
C1033 C1038 1.350 . S
C1033 N1041 1.427 . S
C1034 H1025 0.930 . S
C1034 C1032 1.378 . S
C1034 C1035 1.367 . S
C1035 C1034 1.367 . S
C1035 C1037 1.433 . S
C1036 C1032 1.350 . S
C1036 C1033 1.463 . S
C1036 N1040 1.427 . S
C1037 H1027 0.929 . S
C1037 C1035 1.433 . S
C1037 N1040 1.384 . S
C1038 H1029 0.929 . S
C1038 C1030 1.378 . S
C1038 C1033 1.350 . S
C1039 H1026 0.929 . S
C1039 C1031 1.433 . S
C1039 N1041 1.384 . S
N1040 C1036 1.427 . S
N1040 C1037 1.384 . S
N1041 C1033 1.427 . S
N1041 C1039 1.384 . S
H1042 C1048 0.930 . S
H1043 C1052 0.930 . S
H1044 C1057 0.929 . S
H1045 C1055 0.929 . S
H1046 C1050 0.929 . S
H1047 C1056 0.929 . S
C1048 H1042 0.930 . S
C1048 C1049 1.367 . S
C1048 C1056 1.378 . S
C1049 C1048 1.367 . S
C1049 C1057 1.433 . S
C1050 H1046 0.929 . S
C1050 C1052 1.378 . S
C1050 C1054 1.350 . S
C1051 C1054 1.463 . S
C1051 C1056 1.350 . S
C1051 N1059 1.427 . S
C1052 H1043 0.930 . S
C1052 C1050 1.378 . S
C1052 C1053 1.367 . S
C1053 C1052 1.367 . S
C1053 C1055 1.433 . S
C1054 C1050 1.350 . S
C1054 C1051 1.463 . S
C1054 N1058 1.427 . S
C1055 H1045 0.929 . S
C1055 C1053 1.433 . S
C1055 N1058 1.384 . S
C1056 H1047 0.929 . S
C1056 C1048 1.378 . S
C1056 C1051 1.350 . S
C1057 H1044 0.929 . S
C1057 C1049 1.433 . S
C1057 N1059 1.384 . S
N1058 C1054 1.427 . S
N1058 C1055 1.384 . S
N1059 C1051 1.427 . S
N1059 C1057 1.384 . S
H1060 C1066 0.930 . S
H1061 C1070 0.930 . S
H1062 C1075 0.929 . S
H1063 C1073 0.929 . S
H1064 C1068 0.929 . S
H1065 C1074 0.929 . S
C1066 H1060 0.930 . S
C1066 C1067 1.367 . S
C1066 C1074 1.378 . S
C1067 C1066 1.367 . S
C1067 C1075 1.433 . S
C1068 H1064 0.929 . S
C1068 C1070 1.378 . S
C1068 C1072 1.350 . S
C1069 C1072 1.463 . S
C1069 C1074 1.350 . S
C1069 N1077 1.427 . S
C1070 H1061 0.930 . S
C1070 C1068 1.378 . S
C1070 C1071 1.367 . S
C1071 C1070 1.367 . S
C1071 C1073 1.433 . S
C1072 C1068 1.350 . S
C1072 C1069 1.463 . S
C1072 N1076 1.427 . S
C1073 H1063 0.929 . S
C1073 C1071 1.433 . S
C1073 N1076 1.384 . S
C1074 H1065 0.929 . S
C1074 C1066 1.378 . S
C1074 C1069 1.350 . S
C1075 H1062 0.929 . S
C1075 C1067 1.433 . S
C1075 N1077 1.384 . S
N1076 C1072 1.427 . S
N1076 C1073 1.384 . S
N1077 C1069 1.427 . S
N1077 C1075 1.384 . S
H1078 C1084 0.930 . S
H1079 C1088 0.930 . S
H1080 C1093 0.929 . S
H1081 C1091 0.929 . S
H1082 C1086 0.929 1_554 S
H1083 C1092 0.929 . S
C1084 H1078 0.930 . S
C1084 C1085 1.367 . S
C1084 C1092 1.378 . S
C1085 C1084 1.367 . S
C1085 C1093 1.433 . S
C1086 H1082 0.929 1_556 S
C1086 C1088 1.378 . S
C1086 C1090 1.350 1_556 S
C1087 C1090 1.463 . S
C1087 C1092 1.350 . S
C1087 N1095 1.427 . S
C1088 H1079 0.930 . S
C1088 C1086 1.378 . S
C1088 C1089 1.367 . S
C1089 C1088 1.367 . S
C1089 C1091 1.433 . S
C1090 C1086 1.350 1_554 S
C1090 C1087 1.463 . S
C1090 N1094 1.427 1_554 S
C1091 H1081 0.929 . S
C1091 C1089 1.433 . S
C1091 N1094 1.384 . S
C1092 H1083 0.929 . S
C1092 C1084 1.378 . S
C1092 C1087 1.350 . S
C1093 H1080 0.929 . S
C1093 C1085 1.433 . S
C1093 N1095 1.384 . S
N1094 C1090 1.427 1_556 S
N1094 C1091 1.384 . S
N1095 C1087 1.427 . S
N1095 C1093 1.384 . S
H1096 C1102 0.930 . S
H1097 C1106 0.930 . S
H1098 C1111 0.929 . S
H1099 C1109 0.929 . S
H1100 C1104 0.929 . S
H1101 C1110 0.929 . S
C1102 H1096 0.930 . S
C1102 C1103 1.367 . S
C1102 C1110 1.378 . S
C1103 C1102 1.367 . S
C1103 C1111 1.433 . S
C1104 H1100 0.929 . S
C1104 C1106 1.378 . S
C1104 C1108 1.350 . S
C1105 C1108 1.463 . S
C1105 C1110 1.350 . S
C1105 N1113 1.427 . S
C1106 H1097 0.930 . S
C1106 C1104 1.378 . S
C1106 C1107 1.367 . S
C1107 C1106 1.367 . S
C1107 C1109 1.433 . S
C1108 C1104 1.350 . S
C1108 C1105 1.463 . S
C1108 N1112 1.427 . S
C1109 H1099 0.929 . S
C1109 C1107 1.433 . S
C1109 N1112 1.384 . S
C1110 H1101 0.929 . S
C1110 C1102 1.378 . S
C1110 C1105 1.350 . S
C1111 H1098 0.929 . S
C1111 C1103 1.433 . S
C1111 N1113 1.384 . S
N1112 C1108 1.427 . S
N1112 C1109 1.384 . S
N1113 C1105 1.427 . S
N1113 C1111 1.384 . S
H1114 C1120 0.930 . S
H1115 C1124 0.930 . S
H1116 C1129 0.929 . S
H1117 C1127 0.929 . S
H1118 C1122 0.929 . S
H1119 C1128 0.929 . S
C1120 H1114 0.930 . S
C1120 C1121 1.367 . S
C1120 C1128 1.378 . S
C1121 C1120 1.367 . S
C1121 C1129 1.433 . S
C1122 H1118 0.929 . S
C1122 C1124 1.378 . S
C1122 C1126 1.350 . S
C1123 C1126 1.463 . S
C1123 C1128 1.350 . S
C1123 N1131 1.427 . S
C1124 H1115 0.930 . S
C1124 C1122 1.378 . S
C1124 C1125 1.367 . S
C1125 C1124 1.367 . S
C1125 C1127 1.433 . S
C1126 C1122 1.350 . S
C1126 C1123 1.463 . S
C1126 N1130 1.427 . S
C1127 H1117 0.929 . S
C1127 C1125 1.433 . S
C1127 N1130 1.384 . S
C1128 H1119 0.929 . S
C1128 C1120 1.378 . S
C1128 C1123 1.350 . S
C1129 H1116 0.929 . S
C1129 C1121 1.433 . S
C1129 N1131 1.384 . S
N1130 C1126 1.427 . S
N1130 C1127 1.384 . S
N1131 C1123 1.427 . S
N1131 C1129 1.384 . S
H1132 C1138 0.930 . S
H1133 C1142 0.930 . S
H1134 C1147 0.929 . S
H1135 C1145 0.929 . S
H1136 C1140 0.929 . S
H1137 C1146 0.929 . S
C1138 H1132 0.930 . S
C1138 C1139 1.367 . S
C1138 C1146 1.378 . S
C1139 C1138 1.367 . S
C1139 C1147 1.433 . S
C1140 H1136 0.929 . S
C1140 C1142 1.378 . S
C1140 C1144 1.350 . S
C1141 C1144 1.463 . S
C1141 C1146 1.350 . S
C1141 N1149 1.427 . S
C1142 H1133 0.930 . S
C1142 C1140 1.378 . S
C1142 C1143 1.367 . S
C1143 C1142 1.367 . S
C1143 C1145 1.433 . S
C1144 C1140 1.350 . S
C1144 C1141 1.463 . S
C1144 N1148 1.427 . S
C1145 H1135 0.929 . S
C1145 C1143 1.433 . S
C1145 N1148 1.384 . S
C1146 H1137 0.929 . S
C1146 C1138 1.378 . S
C1146 C1141 1.350 . S
C1147 H1134 0.929 . S
C1147 C1139 1.433 . S
C1147 N1149 1.384 . S
N1148 C1144 1.427 . S
N1148 C1145 1.384 . S
N1149 C1141 1.427 . S
N1149 C1147 1.384 . S
H1150 C1156 0.930 . S
H1151 C1160 0.930 . S
H1152 C1165 0.929 . S
H1153 C1163 0.929 . S
H1154 C1158 0.929 . S
H1155 C1164 0.929 1_554 S
C1156 H1150 0.930 . S
C1156 C1157 1.367 . S
C1156 C1164 1.378 . S
C1157 C1156 1.367 . S
C1157 C1165 1.433 . S
C1158 H1154 0.929 . S
C1158 C1160 1.378 . S
C1158 C1162 1.350 . S
C1159 C1162 1.463 . S
C1159 C1164 1.350 1_554 S
C1159 N1167 1.427 1_554 S
C1160 H1151 0.930 . S
C1160 C1158 1.378 . S
C1160 C1161 1.367 . S
C1161 C1160 1.367 . S
C1161 C1163 1.433 . S
C1162 C1158 1.350 . S
C1162 C1159 1.463 . S
C1162 N1166 1.427 . S
C1163 H1153 0.929 . S
C1163 C1161 1.433 . S
C1163 N1166 1.384 . S
C1164 H1155 0.929 1_556 S
C1164 C1156 1.378 . S
C1164 C1159 1.350 1_556 S
C1165 H1152 0.929 . S
C1165 C1157 1.433 . S
C1165 N1167 1.384 . S
N1166 C1162 1.427 . S
N1166 C1163 1.384 . S
N1167 C1159 1.427 1_556 S
N1167 C1165 1.384 . S
H1168 C1174 0.930 . S
H1169 C1178 0.930 . S
H1170 C1183 0.929 . S
H1171 C1181 0.929 . S
H1172 C1176 0.929 . S
H1173 C1182 0.929 . S
C1174 H1168 0.930 . S
C1174 C1175 1.365 . S
C1174 C1182 1.378 . S
C1175 C1174 1.365 . S
C1175 C1183 1.435 1_545 S
C1176 H1172 0.929 . S
C1176 C1178 1.378 . S
C1176 C1180 1.350 . S
C1177 C1180 1.462 1_545 S
C1177 C1182 1.350 . S
C1177 N1185 1.427 1_545 S
C1178 H1169 0.930 . S
C1178 C1176 1.378 . S
C1178 C1179 1.368 1_565 S
C1179 C1178 1.368 1_545 S
C1179 C1181 1.432 . S
C1180 C1176 1.350 . S
C1180 C1177 1.462 1_565 S
C1180 N1184 1.427 1_565 S
C1181 H1171 0.929 . S
C1181 C1179 1.432 . S
C1181 N1184 1.384 . S
C1182 H1173 0.929 . S
C1182 C1174 1.378 . S
C1182 C1177 1.350 . S
C1183 H1170 0.929 . S
C1183 C1175 1.435 1_565 S
C1183 N1185 1.384 . S
N1184 C1180 1.427 1_545 S
N1184 C1181 1.384 . S
N1185 C1177 1.427 1_565 S
N1185 C1183 1.384 . S
H1186 C1192 0.930 . S
H1187 C1196 0.930 . S
H1188 C1201 0.929 . S
H1189 C1199 0.929 . S
H1190 C1194 0.929 1_554 S
H1191 C1200 0.929 . S
C1192 H1186 0.930 . S
C1192 C1193 1.367 . S
C1192 C1200 1.378 . S
C1193 C1192 1.367 . S
C1193 C1201 1.433 . S
C1194 H1190 0.929 1_556 S
C1194 C1196 1.378 . S
C1194 C1198 1.350 1_556 S
C1195 C1198 1.463 . S
C1195 C1200 1.350 . S
C1195 N1203 1.427 . S
C1196 H1187 0.930 . S
C1196 C1194 1.378 . S
C1196 C1197 1.367 . S
C1197 C1196 1.367 . S
C1197 C1199 1.433 . S
C1198 C1194 1.350 1_554 S
C1198 C1195 1.463 . S
C1198 N1202 1.427 1_554 S
C1199 H1189 0.929 . S
C1199 C1197 1.433 . S
C1199 N1202 1.384 . S
C1200 H1191 0.929 . S
C1200 C1192 1.378 . S
C1200 C1195 1.350 . S
C1201 H1188 0.929 . S
C1201 C1193 1.433 . S
C1201 N1203 1.384 . S
N1202 C1198 1.427 1_556 S
N1202 C1199 1.384 . S
N1203 C1195 1.427 . S
N1203 C1201 1.384 . S
H1204 C1210 0.930 . S
H1205 C1214 0.930 . S
H1206 C1219 0.929 . S
H1207 C1217 0.929 . S
H1208 C1212 0.929 . S
H1209 C1218 0.929 . S
C1210 H1204 0.930 . S
C1210 C1211 1.371 . S
C1210 C1218 1.378 . S
C1211 C1210 1.371 . S
C1211 C1219 1.429 1_545 S
C1212 H1208 0.929 . S
C1212 C1214 1.378 . S
C1212 C1216 1.363 . S
C1213 C1216 1.461 1_545 S
C1213 C1218 1.364 . S
C1213 N1221 1.414 1_545 S
C1214 H1205 0.930 . S
C1214 C1212 1.378 . S
C1214 C1215 1.370 . S
C1215 C1214 1.370 . S
C1215 C1217 1.430 1_565 S
C1216 C1212 1.363 . S
C1216 C1213 1.461 1_565 S
C1216 N1220 1.414 1_565 S
C1217 H1207 0.929 . S
C1217 C1215 1.430 1_545 S
C1217 N1220 1.384 . S
C1218 H1209 0.929 . S
C1218 C1210 1.378 . S
C1218 C1213 1.364 . S
C1219 H1206 0.929 . S
C1219 C1211 1.429 1_565 S
C1219 N1221 1.384 . S
N1220 C1216 1.414 1_545 S
N1220 C1217 1.384 . S
N1221 C1213 1.414 1_565 S
N1221 C1219 1.384 . S
H1222 C1228 0.930 . S
H1223 C1232 0.930 . S
H1224 C1237 0.929 . S
H1225 C1235 0.929 . S
H1226 C1230 0.929 . S
H1227 C1236 0.929 . S
C1228 H1222 0.930 . S
C1228 C1229 1.367 . S
C1228 C1236 1.378 . S
C1229 C1228 1.367 . S
C1229 C1237 1.433 . S
C1230 H1226 0.929 . S
C1230 C1232 1.378 . S
C1230 C1234 1.350 . S
C1231 C1234 1.463 . S
C1231 C1236 1.350 . S
C1231 N1239 1.427 . S
C1232 H1223 0.930 . S
C1232 C1230 1.378 . S
C1232 C1233 1.367 . S
C1233 C1232 1.367 . S
C1233 C1235 1.433 . S
C1234 C1230 1.350 . S
C1234 C1231 1.463 . S
C1234 N1238 1.427 . S
C1235 H1225 0.929 . S
C1235 C1233 1.433 . S
C1235 N1238 1.384 . S
C1236 H1227 0.929 . S
C1236 C1228 1.378 . S
C1236 C1231 1.350 . S
C1237 H1224 0.929 . S
C1237 C1229 1.433 . S
C1237 N1239 1.384 . S
N1238 C1234 1.427 . S
N1238 C1235 1.384 . S
N1239 C1231 1.427 . S
N1239 C1237 1.384 . S
H1240 C1246 0.930 . S
H1241 C1250 0.930 . S
H1242 C1255 0.929 . S
H1243 C1253 0.929 . S
H1244 C1248 0.929 . S
H1245 C1254 0.929 . S
C1246 H1240 0.930 . S
C1246 C1247 1.382 . S
C1246 C1254 1.378 . S
C1247 C1246 1.382 . S
C1247 C1255 1.418 1_565 S
C1248 H1244 0.929 . S
C1248 C1250 1.378 . S
C1248 C1252 1.368 . S
C1249 C1252 1.461 1_565 S
C1249 C1254 1.368 . S
C1249 N1257 1.409 1_565 S
C1250 H1241 0.930 . S
C1250 C1248 1.378 . S
C1250 C1251 1.382 . S
C1251 C1250 1.382 . S
C1251 C1253 1.418 1_545 S
C1252 C1248 1.368 . S
C1252 C1249 1.461 1_545 S
C1252 N1256 1.409 1_545 S
C1253 H1243 0.929 . S
C1253 C1251 1.418 1_565 S
C1253 N1256 1.384 . S
C1254 H1245 0.929 . S
C1254 C1246 1.378 . S
C1254 C1249 1.368 . S
C1255 H1242 0.929 . S
C1255 C1247 1.418 1_545 S
C1255 N1257 1.384 . S
N1256 C1252 1.409 1_565 S
N1256 C1253 1.384 . S
N1257 C1249 1.409 1_545 S
N1257 C1255 1.384 . S
H1258 C1264 0.930 . S
H1259 C1268 0.930 . S
H1260 C1273 0.929 . S
H1261 C1271 0.929 . S
H1262 C1266 0.929 1_554 S
H1263 C1272 0.929 . S
C1264 H1258 0.930 . S
C1264 C1265 1.367 . S
C1264 C1272 1.378 . S
C1265 C1264 1.367 . S
C1265 C1273 1.433 . S
C1266 H1262 0.929 1_556 S
C1266 C1268 1.378 . S
C1266 C1270 1.350 1_556 S
C1267 C1270 1.463 . S
C1267 C1272 1.350 . S
C1267 N1275 1.427 . S
C1268 H1259 0.930 . S
C1268 C1266 1.378 . S
C1268 C1269 1.367 . S
C1269 C1268 1.367 . S
C1269 C1271 1.433 . S
C1270 C1266 1.350 1_554 S
C1270 C1267 1.463 . S
C1270 N1274 1.427 1_554 S
C1271 H1261 0.929 . S
C1271 C1269 1.433 . S
C1271 N1274 1.384 . S
C1272 H1263 0.929 . S
C1272 C1264 1.378 . S
C1272 C1267 1.350 . S
C1273 H1260 0.929 . S
C1273 C1265 1.433 . S
C1273 N1275 1.384 . S
N1274 C1270 1.427 1_556 S
N1274 C1271 1.384 . S
N1275 C1267 1.427 . S
N1275 C1273 1.384 . S
H1276 C1282 0.930 . S
H1277 C1286 0.930 . S
H1278 C1291 0.929 . S
H1279 C1289 0.929 . S
H1280 C1284 0.929 . S
H1281 C1290 0.929 . S
C1282 H1276 0.930 . S
C1282 C1283 1.378 . S
C1282 C1290 1.378 . S
C1283 C1282 1.378 . S
C1283 C1291 1.422 1_545 S
C1284 H1280 0.929 . S
C1284 C1286 1.378 . S
C1284 C1288 1.379 . S
C1285 C1288 1.460 1_545 S
C1285 C1290 1.377 . S
C1285 N1293 1.400 1_545 S
C1286 H1277 0.930 . S
C1286 C1284 1.378 . S
C1286 C1287 1.380 . S
C1287 C1286 1.380 . S
C1287 C1289 1.420 1_565 S
C1288 C1284 1.379 . S
C1288 C1285 1.460 1_565 S
C1288 N1292 1.398 1_565 S
C1289 H1279 0.929 . S
C1289 C1287 1.420 1_545 S
C1289 N1292 1.384 . S
C1290 H1281 0.929 . S
C1290 C1282 1.378 . S
C1290 C1285 1.377 . S
C1291 H1278 0.929 . S
C1291 C1283 1.422 1_565 S
C1291 N1293 1.384 . S
N1292 C1288 1.398 1_545 S
N1292 C1289 1.384 . S
N1293 C1285 1.400 1_565 S
N1293 C1291 1.384 . S
H1294 C1300 0.930 . S
H1295 C1304 0.930 . S
H1296 C1309 0.929 . S
H1297 C1307 0.929 . S
H1298 C1302 0.929 . S
H1299 C1308 0.929 . S
C1300 H1294 0.930 . S
C1300 C1301 1.367 . S
C1300 C1308 1.378 . S
C1301 C1300 1.367 . S
C1301 C1309 1.433 . S
C1302 H1298 0.929 . S
C1302 C1304 1.378 . S
C1302 C1306 1.350 . S
C1303 C1306 1.463 . S
C1303 C1308 1.350 . S
C1303 N1311 1.427 . S
C1304 H1295 0.930 . S
C1304 C1302 1.378 . S
C1304 C1305 1.367 . S
C1305 C1304 1.367 . S
C1305 C1307 1.433 . S
C1306 C1302 1.350 . S
C1306 C1303 1.463 . S
C1306 N1310 1.427 . S
C1307 H1297 0.929 . S
C1307 C1305 1.433 . S
C1307 N1310 1.384 . S
C1308 H1299 0.929 . S
C1308 C1300 1.378 . S
C1308 C1303 1.350 . S
C1309 H1296 0.929 . S
C1309 C1301 1.433 . S
C1309 N1311 1.384 . S
N1310 C1306 1.427 . S
N1310 C1307 1.384 . S
N1311 C1303 1.427 . S
N1311 C1309 1.384 . S
H1312 C1318 0.930 . S
H1313 C1322 0.930 . S
H1314 C1327 0.929 . S
H1315 C1325 0.929 . S
H1316 C1320 0.929 . S
H1317 C1326 0.929 . S
C1318 H1312 0.930 . S
C1318 C1319 1.367 . S
C1318 C1326 1.378 . S
C1319 C1318 1.367 . S
C1319 C1327 1.433 . S
C1320 H1316 0.929 . S
C1320 C1322 1.378 . S
C1320 C1324 1.350 . S
C1321 C1324 1.463 . S
C1321 C1326 1.350 . S
C1321 N1329 1.427 . S
C1322 H1313 0.930 . S
C1322 C1320 1.378 . S
C1322 C1323 1.367 . S
C1323 C1322 1.367 . S
C1323 C1325 1.433 . S
C1324 C1320 1.350 . S
C1324 C1321 1.463 . S
C1324 N1328 1.427 . S
C1325 H1315 0.929 . S
C1325 C1323 1.433 . S
C1325 N1328 1.384 . S
C1326 H1317 0.929 . S
C1326 C1318 1.378 . S
C1326 C1321 1.350 . S
C1327 H1314 0.929 . S
C1327 C1319 1.433 . S
C1327 N1329 1.384 . S
N1328 C1324 1.427 . S
N1328 C1325 1.384 . S
N1329 C1321 1.427 . S
N1329 C1327 1.384 . S
H1330 C1336 0.930 . S
H1331 C1340 0.930 . S
H1332 C1345 0.929 . S
H1333 C1343 0.929 . S
H1334 C1338 0.929 . S
H1335 C1344 0.929 . S
C1336 H1330 0.930 . S
C1336 C1337 1.367 . S
C1336 C1344 1.378 . S
C1337 C1336 1.367 . S
C1337 C1345 1.433 . S
C1338 H1334 0.929 . S
C1338 C1340 1.378 . S
C1338 C1342 1.350 . S
C1339 C1342 1.463 . S
C1339 C1344 1.350 . S
C1339 N1347 1.427 . S
C1340 H1331 0.930 . S
C1340 C1338 1.378 . S
C1340 C1341 1.367 . S
C1341 C1340 1.367 . S
C1341 C1343 1.433 . S
C1342 C1338 1.350 . S
C1342 C1339 1.463 . S
C1342 N1346 1.427 . S
C1343 H1333 0.929 . S
C1343 C1341 1.433 . S
C1343 N1346 1.384 . S
C1344 H1335 0.929 . S
C1344 C1336 1.378 . S
C1344 C1339 1.350 . S
C1345 H1332 0.929 . S
C1345 C1337 1.433 . S
C1345 N1347 1.384 . S
N1346 C1342 1.427 . S
N1346 C1343 1.384 . S
N1347 C1339 1.427 . S
N1347 C1345 1.384 . S
H1348 C1354 0.930 . S
H1349 C1358 0.930 . S
H1350 C1363 0.929 . S
H1351 C1361 0.929 . S
H1352 C1356 0.929 . S
H1353 C1362 0.929 . S
C1354 H1348 0.930 . S
C1354 C1355 1.367 . S
C1354 C1362 1.378 . S
C1355 C1354 1.367 . S
C1355 C1363 1.433 . S
C1356 H1352 0.929 . S
C1356 C1358 1.378 . S
C1356 C1360 1.350 . S
C1357 C1360 1.463 . S
C1357 C1362 1.350 . S
C1357 N1365 1.427 . S
C1358 H1349 0.930 . S
C1358 C1356 1.378 . S
C1358 C1359 1.367 . S
C1359 C1358 1.367 . S
C1359 C1361 1.433 . S
C1360 C1356 1.350 . S
C1360 C1357 1.463 . S
C1360 N1364 1.427 . S
C1361 H1351 0.929 . S
C1361 C1359 1.433 . S
C1361 N1364 1.384 . S
C1362 H1353 0.929 . S
C1362 C1354 1.378 . S
C1362 C1357 1.350 . S
C1363 H1350 0.929 . S
C1363 C1355 1.433 . S
C1363 N1365 1.384 . S
N1364 C1360 1.427 . S
N1364 C1361 1.384 . S
N1365 C1357 1.427 . S
N1365 C1363 1.384 . S
H1366 C1372 0.930 . S
H1367 C1376 0.930 . S
H1368 C1381 0.929 . S
H1369 C1379 0.929 . S
H1370 C1374 0.929 . S
H1371 C1380 0.929 . S
C1372 H1366 0.930 . S
C1372 C1373 1.367 . S
C1372 C1380 1.378 . S
C1373 C1372 1.367 . S
C1373 C1381 1.433 . S
C1374 H1370 0.929 . S
C1374 C1376 1.378 . S
C1374 C1378 1.350 . S
C1375 C1378 1.463 . S
C1375 C1380 1.350 . S
C1375 N1383 1.427 . S
C1376 H1367 0.930 . S
C1376 C1374 1.378 . S
C1376 C1377 1.367 . S
C1377 C1376 1.367 . S
C1377 C1379 1.433 1_556 S
C1378 C1374 1.350 . S
C1378 C1375 1.463 . S
C1378 N1382 1.427 . S
C1379 H1369 0.929 . S
C1379 C1377 1.433 1_554 S
C1379 N1382 1.384 1_554 S
C1380 H1371 0.929 . S
C1380 C1372 1.378 . S
C1380 C1375 1.350 . S
C1381 H1368 0.929 . S
C1381 C1373 1.433 . S
C1381 N1383 1.384 . S
N1382 C1378 1.427 . S
N1382 C1379 1.384 1_556 S
N1383 C1375 1.427 . S
N1383 C1381 1.384 . S
H1384 C1390 0.930 . S
H1385 C1394 0.930 . S
H1386 C1399 0.929 . S
H1387 C1397 0.929 . S
H1388 C1392 0.929 . S
H1389 C1398 0.929 . S
C1390 H1384 0.930 . S
C1390 C1391 1.367 . S
C1390 C1398 1.378 . S
C1391 C1390 1.367 . S
C1391 C1399 1.433 . S
C1392 H1388 0.929 . S
C1392 C1394 1.378 . S
C1392 C1396 1.350 . S
C1393 C1396 1.463 . S
C1393 C1398 1.350 . S
C1393 N1401 1.427 . S
C1394 H1385 0.930 . S
C1394 C1392 1.378 . S
C1394 C1395 1.367 . S
C1395 C1394 1.367 . S
C1395 C1397 1.433 . S
C1396 C1392 1.350 . S
C1396 C1393 1.463 . S
C1396 N1400 1.427 . S
C1397 H1387 0.929 . S
C1397 C1395 1.433 . S
C1397 N1400 1.384 . S
C1398 H1389 0.929 . S
C1398 C1390 1.378 . S
C1398 C1393 1.350 . S
C1399 H1386 0.929 . S
C1399 C1391 1.433 . S
C1399 N1401 1.384 . S
N1400 C1396 1.427 . S
N1400 C1397 1.384 . S
N1401 C1393 1.427 . S
N1401 C1399 1.384 . S
H1402 C1408 0.930 . S
H1403 C1412 0.930 . S
H1404 C1417 0.929 . S
H1405 C1415 0.929 . S
H1406 C1410 0.929 . S
H1407 C1416 0.929 . S
C1408 H1402 0.930 . S
C1408 C1409 1.367 . S
C1408 C1416 1.378 . S
C1409 C1408 1.367 . S
C1409 C1417 1.433 . S
C1410 H1406 0.929 . S
C1410 C1412 1.378 . S
C1410 C1414 1.350 . S
C1411 C1414 1.463 . S
C1411 C1416 1.350 . S
C1411 N1419 1.427 . S
C1412 H1403 0.930 . S
C1412 C1410 1.378 . S
C1412 C1413 1.367 . S
C1413 C1412 1.367 . S
C1413 C1415 1.433 . S
C1414 C1410 1.350 . S
C1414 C1411 1.463 . S
C1414 N1418 1.427 . S
C1415 H1405 0.929 . S
C1415 C1413 1.433 . S
C1415 N1418 1.384 . S
C1416 H1407 0.929 . S
C1416 C1408 1.378 . S
C1416 C1411 1.350 . S
C1417 H1404 0.929 . S
C1417 C1409 1.433 . S
C1417 N1419 1.384 . S
N1418 C1414 1.427 . S
N1418 C1415 1.384 . S
N1419 C1411 1.427 . S
N1419 C1417 1.384 . S
H1420 C1426 0.930 . S
H1421 C1430 0.930 . S
H1422 C1435 0.929 . S
H1423 C1433 0.929 . S
H1424 C1428 0.929 . S
H1425 C1434 0.929 . S
C1426 H1420 0.930 . S
C1426 C1427 1.367 . S
C1426 C1434 1.378 . S
C1427 C1426 1.367 . S
C1427 C1435 1.433 . S
C1428 H1424 0.929 . S
C1428 C1430 1.378 . S
C1428 C1432 1.350 . S
C1429 C1432 1.463 . S
C1429 C1434 1.350 . S
C1429 N1437 1.427 . S
C1430 H1421 0.930 . S
C1430 C1428 1.378 . S
C1430 C1431 1.367 . S
C1431 C1430 1.367 . S
C1431 C1433 1.433 1_556 S
C1432 C1428 1.350 . S
C1432 C1429 1.463 . S
C1432 N1436 1.427 . S
C1433 H1423 0.929 . S
C1433 C1431 1.433 1_554 S
C1433 N1436 1.384 1_554 S
C1434 H1425 0.929 . S
C1434 C1426 1.378 . S
C1434 C1429 1.350 . S
C1435 H1422 0.929 . S
C1435 C1427 1.433 . S
C1435 N1437 1.384 . S
N1436 C1432 1.427 . S
N1436 C1433 1.384 1_556 S
N1437 C1429 1.427 . S
N1437 C1435 1.384 . S
H1438 C1444 0.930 . S
H1439 C1448 0.930 . S
H1440 C1453 0.929 . S
H1441 C1451 0.929 . S
H1442 C1446 0.929 . S
H1443 C1452 0.929 . S
C1444 H1438 0.930 . S
C1444 C1445 1.367 . S
C1444 C1452 1.378 . S
C1445 C1444 1.367 . S
C1445 C1453 1.433 . S
C1446 H1442 0.929 . S
C1446 C1448 1.378 . S
C1446 C1450 1.350 . S
C1447 C1450 1.463 . S
C1447 C1452 1.350 . S
C1447 N1455 1.427 . S
C1448 H1439 0.930 . S
C1448 C1446 1.378 . S
C1448 C1449 1.367 . S
C1449 C1448 1.367 . S
C1449 C1451 1.433 . S
C1450 C1446 1.350 . S
C1450 C1447 1.463 . S
C1450 N1454 1.427 . S
C1451 H1441 0.929 . S
C1451 C1449 1.433 . S
C1451 N1454 1.384 . S
C1452 H1443 0.929 . S
C1452 C1444 1.378 . S
C1452 C1447 1.350 . S
C1453 H1440 0.929 . S
C1453 C1445 1.433 . S
C1453 N1455 1.384 . S
N1454 C1450 1.427 . S
N1454 C1451 1.384 . S
N1455 C1447 1.427 . S
N1455 C1453 1.384 . S
H1456 C1462 0.930 . S
H1457 C1466 0.930 . S
H1458 C1471 0.929 . S
H1459 C1469 0.929 . S
H1460 C1464 0.929 . S
H1461 C1470 0.929 . S
C1462 H1456 0.930 . S
C1462 C1463 1.367 . S
C1462 C1470 1.378 . S
C1463 C1462 1.367 . S
C1463 C1471 1.433 1_556 S
C1464 H1460 0.929 . S
C1464 C1466 1.378 . S
C1464 C1468 1.350 . S
C1465 C1468 1.463 . S
C1465 C1470 1.350 . S
C1465 N1473 1.427 . S
C1466 H1457 0.930 . S
C1466 C1464 1.378 . S
C1466 C1467 1.367 . S
C1467 C1466 1.367 . S
C1467 C1469 1.433 . S
C1468 C1464 1.350 . S
C1468 C1465 1.463 . S
C1468 N1472 1.427 . S
C1469 H1459 0.929 . S
C1469 C1467 1.433 . S
C1469 N1472 1.384 . S
C1470 H1461 0.929 . S
C1470 C1462 1.378 . S
C1470 C1465 1.350 . S
C1471 H1458 0.929 . S
C1471 C1463 1.433 1_554 S
C1471 N1473 1.384 1_554 S
N1472 C1468 1.427 . S
N1472 C1469 1.384 . S
N1473 C1465 1.427 . S
N1473 C1471 1.384 1_556 S
H1474 C1480 0.930 . S
H1475 C1484 0.930 . S
H1476 C1489 0.929 . S
H1477 C1487 0.929 . S
H1478 C1482 0.929 . S
H1479 C1488 0.929 . S
C1480 H1474 0.930 . S
C1480 C1481 1.367 . S
C1480 C1488 1.378 . S
C1481 C1480 1.367 . S
C1481 C1489 1.433 . S
C1482 H1478 0.929 . S
C1482 C1484 1.378 . S
C1482 C1486 1.350 . S
C1483 C1486 1.463 . S
C1483 C1488 1.350 . S
C1483 N1491 1.427 . S
C1484 H1475 0.930 . S
C1484 C1482 1.378 . S
C1484 C1485 1.367 . S
C1485 C1484 1.367 . S
C1485 C1487 1.433 . S
C1486 C1482 1.350 . S
C1486 C1483 1.463 . S
C1486 N1490 1.427 . S
C1487 H1477 0.929 . S
C1487 C1485 1.433 . S
C1487 N1490 1.384 . S
C1488 H1479 0.929 . S
C1488 C1480 1.378 . S
C1488 C1483 1.350 . S
C1489 H1476 0.929 . S
C1489 C1481 1.433 . S
C1489 N1491 1.384 . S
N1490 C1486 1.427 . S
N1490 C1487 1.384 . S
N1491 C1483 1.427 . S
N1491 C1489 1.384 . S
H1492 C1498 0.930 . S
H1493 C1502 0.930 . S
H1494 C1507 0.929 . S
H1495 C1505 0.929 . S
H1496 C1500 0.929 . S
H1497 C1506 0.929 . S
C1498 H1492 0.930 . S
C1498 C1499 1.367 . S
C1498 C1506 1.378 . S
C1499 C1498 1.367 . S
C1499 C1507 1.433 . S
C1500 H1496 0.929 . S
C1500 C1502 1.378 . S
C1500 C1504 1.350 . S
C1501 C1504 1.463 . S
C1501 C1506 1.350 . S
C1501 N1509 1.427 . S
C1502 H1493 0.930 . S
C1502 C1500 1.378 . S
C1502 C1503 1.367 . S
C1503 C1502 1.367 . S
C1503 C1505 1.433 . S
C1504 C1500 1.350 . S
C1504 C1501 1.463 . S
C1504 N1508 1.427 . S
C1505 H1495 0.929 . S
C1505 C1503 1.433 . S
C1505 N1508 1.384 . S
C1506 H1497 0.929 . S
C1506 C1498 1.378 . S
C1506 C1501 1.350 . S
C1507 H1494 0.929 . S
C1507 C1499 1.433 . S
C1507 N1509 1.384 . S
N1508 C1504 1.427 . S
N1508 C1505 1.384 . S
N1509 C1501 1.427 . S
N1509 C1507 1.384 . S
H1510 C1516 0.930 . S
H1511 C1520 0.930 . S
H1512 C1525 0.929 . S
H1513 C1523 0.929 . S
H1514 C1518 0.929 . S
H1515 C1524 0.929 . S
C1516 H1510 0.930 . S
C1516 C1517 1.367 . S
C1516 C1524 1.378 . S
C1517 C1516 1.367 . S
C1517 C1525 1.433 . S
C1518 H1514 0.929 . S
C1518 C1520 1.378 . S
C1518 C1522 1.350 . S
C1519 C1522 1.463 . S
C1519 C1524 1.350 . S
C1519 N1527 1.427 . S
C1520 H1511 0.930 . S
C1520 C1518 1.378 . S
C1520 C1521 1.367 . S
C1521 C1520 1.367 . S
C1521 C1523 1.433 . S
C1522 C1518 1.350 . S
C1522 C1519 1.463 . S
C1522 N1526 1.427 . S
C1523 H1513 0.929 . S
C1523 C1521 1.433 . S
C1523 N1526 1.384 . S
C1524 H1515 0.929 . S
C1524 C1516 1.378 . S
C1524 C1519 1.350 . S
C1525 H1512 0.929 . S
C1525 C1517 1.433 . S
C1525 N1527 1.384 . S
N1526 C1522 1.427 . S
N1526 C1523 1.384 . S
N1527 C1519 1.427 . S
N1527 C1525 1.384 . S
H1528 C1534 0.930 . S
H1529 C1538 0.930 . S
H1530 C1543 0.929 . S
H1531 C1541 0.929 . S
H1532 C1536 0.929 . S
H1533 C1542 0.929 . S
C1534 H1528 0.930 . S
C1534 C1535 1.367 . S
C1534 C1542 1.378 . S
C1535 C1534 1.367 . S
C1535 C1543 1.433 . S
C1536 H1532 0.929 . S
C1536 C1538 1.378 . S
C1536 C1540 1.350 . S
C1537 C1540 1.463 . S
C1537 C1542 1.350 . S
C1537 N1545 1.427 . S
C1538 H1529 0.930 . S
C1538 C1536 1.378 . S
C1538 C1539 1.367 . S
C1539 C1538 1.367 . S
C1539 C1541 1.433 . S
C1540 C1536 1.350 . S
C1540 C1537 1.463 . S
C1540 N1544 1.427 . S
C1541 H1531 0.929 . S
C1541 C1539 1.433 . S
C1541 N1544 1.384 . S
C1542 H1533 0.929 . S
C1542 C1534 1.378 . S
C1542 C1537 1.350 . S
C1543 H1530 0.929 . S
C1543 C1535 1.433 . S
C1543 N1545 1.384 . S
N1544 C1540 1.427 . S
N1544 C1541 1.384 . S
N1545 C1537 1.427 . S
N1545 C1543 1.384 . S
H1546 C1552 0.930 . S
H1547 C1556 0.930 . S
H1548 C1561 0.929 . S
H1549 C1559 0.929 . S
H1550 C1554 0.929 . S
H1551 C1560 0.929 . S
C1552 H1546 0.930 . S
C1552 C1553 1.367 . S
C1552 C1560 1.378 . S
C1553 C1552 1.367 . S
C1553 C1561 1.433 . S
C1554 H1550 0.929 . S
C1554 C1556 1.378 . S
C1554 C1558 1.350 . S
C1555 C1558 1.463 . S
C1555 C1560 1.350 . S
C1555 N1563 1.427 . S
C1556 H1547 0.930 . S
C1556 C1554 1.378 . S
C1556 C1557 1.367 . S
C1557 C1556 1.367 . S
C1557 C1559 1.433 . S
C1558 C1554 1.350 . S
C1558 C1555 1.463 . S
C1558 N1562 1.427 . S
C1559 H1549 0.929 . S
C1559 C1557 1.433 . S
C1559 N1562 1.384 . S
C1560 H1551 0.929 . S
C1560 C1552 1.378 . S
C1560 C1555 1.350 . S
C1561 H1548 0.929 . S
C1561 C1553 1.433 . S
C1561 N1563 1.384 . S
N1562 C1558 1.427 . S
N1562 C1559 1.384 . S
N1563 C1555 1.427 . S
N1563 C1561 1.384 . S
H1564 C1570 0.930 . S
H1565 C1574 0.930 . S
H1566 C1579 0.929 . S
H1567 C1577 0.929 . S
H1568 C1572 0.929 . S
H1569 C1578 0.929 . S
C1570 H1564 0.930 . S
C1570 C1571 1.367 . S
C1570 C1578 1.378 . S
C1571 C1570 1.367 . S
C1571 C1579 1.433 . S
C1572 H1568 0.929 . S
C1572 C1574 1.378 . S
C1572 C1576 1.350 . S
C1573 C1576 1.463 . S
C1573 C1578 1.350 . S
C1573 N1581 1.427 . S
C1574 H1565 0.930 . S
C1574 C1572 1.378 . S
C1574 C1575 1.367 . S
C1575 C1574 1.367 . S
C1575 C1577 1.433 . S
C1576 C1572 1.350 . S
C1576 C1573 1.463 . S
C1576 N1580 1.427 . S
C1577 H1567 0.929 . S
C1577 C1575 1.433 . S
C1577 N1580 1.384 . S
C1578 H1569 0.929 . S
C1578 C1570 1.378 . S
C1578 C1573 1.350 . S
C1579 H1566 0.929 . S
C1579 C1571 1.433 . S
C1579 N1581 1.384 . S
N1580 C1576 1.427 . S
N1580 C1577 1.384 . S
N1581 C1573 1.427 . S
N1581 C1579 1.384 . S
H1582 C1588 0.930 . S
H1583 C1592 0.930 . S
H1584 C1597 0.929 . S
H1585 C1595 0.929 . S
H1586 C1590 0.929 1_554 S
H1587 C1596 0.929 . S
C1588 H1582 0.930 . S
C1588 C1589 1.367 . S
C1588 C1596 1.378 . S
C1589 C1588 1.367 . S
C1589 C1597 1.433 . S
C1590 H1586 0.929 1_556 S
C1590 C1592 1.378 1_556 S
C1590 C1594 1.350 . S
C1591 C1594 1.463 . S
C1591 C1596 1.350 . S
C1591 N1599 1.427 . S
C1592 H1583 0.930 . S
C1592 C1590 1.378 1_554 S
C1592 C1593 1.367 1_554 S
C1593 C1592 1.367 1_556 S
C1593 C1595 1.433 . S
C1594 C1590 1.350 . S
C1594 C1591 1.463 . S
C1594 N1598 1.427 . S
C1595 H1585 0.929 . S
C1595 C1593 1.433 . S
C1595 N1598 1.384 . S
C1596 H1587 0.929 . S
C1596 C1588 1.378 . S
C1596 C1591 1.350 . S
C1597 H1584 0.929 . S
C1597 C1589 1.433 . S
C1597 N1599 1.384 . S
N1598 C1594 1.427 . S
N1598 C1595 1.384 . S
N1599 C1591 1.427 . S
N1599 C1597 1.384 . S
C455 C121 1.387 . S
C459 C9 1.387 . S
C473 C23 1.399 . S
C477 C359 1.399 . S
C491 C37 1.398 . S
C495 C149 1.398 . S
C509 C51 1.385 . S
C513 C387 1.385 . S
C527 C65 1.395 . S
C531 C177 1.395 . S
C545 C415 1.385 . S
C549 C79 1.385 . S
C563 C205 1.389 . S
C567 C93 1.389 . S
C581 C443 1.387 . S
C585 C107 1.387 . S
C599 C247 1.389 . S
C603 C135 1.389 . S
C617 C163 1.389 . S
C621 C275 1.389 . S
C635 C191 1.396 . S
C639 C303 1.396 . S
C653 C331 1.389 . S
C657 C219 1.389 . S
C671 C345 1.388 . S
C675 C233 1.388 . S
C689 C261 1.390 . S
C693 C373 1.390 . S
C707 C289 1.388 . S
C711 C401 1.388 . S
C725 C429 1.398 . S
C729 C317 1.398 . S
C743 C3 1.329 . S
C747 C59 1.332 . S
C761 C73 1.334 . S
C765 C17 1.340 . S
C779 C87 1.340 . S
C783 C31 1.337 . S
C797 C45 1.331 . S
C801 C101 1.330 . S
C815 C115 1.332 . S
C819 C171 1.330 . S
C833 C129 1.340 . S
C837 C185 1.336 . S
C851 C199 1.337 . S
C855 C143 1.340 . S
C869 C213 1.341 . S
C873 C157 1.336 . S
C887 C283 1.338 . S
C891 C227 1.340 . S
C905 C297 1.336 . S
C909 C241 1.329 . S
C923 C255 1.330 . S
C927 C311 1.332 . S
C941 C325 1.334 . S
C945 C269 1.341 . S
C959 C395 1.332 . S
C963 C339 1.339 . S
C977 C353 1.340 . S
C981 C409 1.337 . S
C995 C423 1.334 . S
C999 C367 1.329 . S
C1013 C437 1.341 . S
C1017 C381 1.335 . S
C1031 C63 0.508 . S
C1035 C7 0.522 . S
C1049 C77 0.523 . S
C1053 C21 0.505 . S
C1067 C35 0.503 . S
C1071 C91 0.523 . S
C1085 C105 0.523 . S
C1089 C49 0.500 . S
C1103 C175 0.499 . S
C1107 C119 0.511 . S
C1121 C133 0.502 . S
C1125 C189 0.523 . S
C1139 C203 0.507 . S
C1143 C147 0.502 . S
C1157 C217 0.516 . S
C1161 C161 0.497 . S
C1175 C231 0.501 1_545 S
C1179 C287 0.521 . S
C1193 C301 0.497 . S
C1197 C245 0.520 . S
C1211 C315 0.505 1_545 S
C1215 C259 0.521 1_565 S
C1229 C329 0.523 . S
C1233 C273 0.504 . S
C1247 C399 0.502 . S
C1251 C343 0.517 . S
C1265 C357 0.502 . S
C1269 C413 0.523 . S
C1283 C371 0.512 1_545 S
C1287 C427 0.512 1_565 S
C1301 C385 0.507 . S
C1305 C441 0.522 . S
C1319 C8 1.510 . S
C1323 C302 1.509 . S
C1337 C316 1.506 . S
C1341 C22 1.507 . S
C1355 C36 1.515 . S
C1359 C330 1.514 . S
C1373 C50 1.505 . S
C1377 C288 1.505 1_556 S
C1391 C274 1.506 . S
C1395 C64 1.507 . S
C1409 C232 1.514 . S
C1413 C78 1.513 . S
C1427 C246 1.505 . S
C1431 C92 1.505 1_556 S
C1445 C106 1.505 . S
C1449 C260 1.505 . S
C1463 C120 1.506 1_556 S
C1467 C414 1.507 . S
C1481 C428 1.510 . S
C1485 C134 1.509 . S
C1499 C442 1.509 . S
C1503 C148 1.510 . S
C1517 C400 1.506 . S
C1521 C162 1.505 . S
C1535 C386 1.507 . S
C1539 C176 1.506 . S
C1553 C344 1.510 . S
C1557 C190 1.508 . S
C1571 C204 1.509 . S
C1575 C358 1.510 . S
C1589 C218 1.514 . S
C1593 C372 1.514 1_556 S
