# Generated by pormake.
# Topology sml, (6)-cn, num edge types: 1
# Building blocks:
#     Node 0, Type 0, BuildingBlock: UKALOJ_clean_sbu_0, # of connection points: 6
#     Node 1, Type 0, BuildingBlock: UKALOJ_clean_sbu_0, # of connection points: 6
#     Node 2, Type 0, BuildingBlock: UKALOJ_clean_sbu_0, # of connection points: 6
#     Node 3, Type 0, BuildingBlock: UKALOJ_clean_sbu_0, # of connection points: 6
#     Node 4, Type 0, BuildingBlock: UKALOJ_clean_sbu_0, # of connection points: 6
#     Node 5, Type 0, BuildingBlock: UKALOJ_clean_sbu_0, # of connection points: 6
#     Edge 6, Type (0, 0), BuildingBlock: XIVTED_clean_linker_0, # of connection points: 2
#     Edge 7, Type (0, 0), BuildingBlock: XIVTED_clean_linker_0, # of connection points: 2
#     Edge 8, Type (0, 0), BuildingBlock: XIVTED_clean_linker_0, # of connection points: 2
#     Edge 9, Type (0, 0), BuildingBlock: XIVTED_clean_linker_0, # of connection points: 2
#     Edge 10, Type (0, 0), BuildingBlock: XIVTED_clean_linker_0, # of connection points: 2
#     Edge 11, Type (0, 0), BuildingBlock: XIVTED_clean_linker_0, # of connection points: 2
#     Edge 12, Type (0, 0), BuildingBlock: XIVTED_clean_linker_0, # of connection points: 2
#     Edge 13, Type (0, 0), BuildingBlock: XIVTED_clean_linker_0, # of connection points: 2
#     Edge 14, Type (0, 0), BuildingBlock: XIVTED_clean_linker_0, # of connection points: 2
#     Edge 15, Type (0, 0), BuildingBlock: XIVTED_clean_linker_0, # of connection points: 2
#     Edge 16, Type (0, 0), BuildingBlock: XIVTED_clean_linker_0, # of connection points: 2
#     Edge 17, Type (0, 0), BuildingBlock: XIVTED_clean_linker_0, # of connection points: 2
#     Edge 18, Type (0, 0), BuildingBlock: XIVTED_clean_linker_0, # of connection points: 2
#     Edge 19, Type (0, 0), BuildingBlock: XIVTED_clean_linker_0, # of connection points: 2
#     Edge 20, Type (0, 0), BuildingBlock: XIVTED_clean_linker_0, # of connection points: 2
#     Edge 21, Type (0, 0), BuildingBlock: XIVTED_clean_linker_0, # of connection points: 2
#     Edge 22, Type (0, 0), BuildingBlock: XIVTED_clean_linker_0, # of connection points: 2
#     Edge 23, Type (0, 0), BuildingBlock: XIVTED_clean_linker_0, # of connection points: 2
# Relax obj value: 0.315
# Max RMSD: 0.226
# Mean RMSD: 0.226
data_MOF--net-sml--node1-UKALOJ_clean_sbu_0--edge1-XIVTED_clean_linker_0
_symmetry_space_group_name_H-M    P1
_symmetry_Int_Tables_number       1
_symmetry_cell_setting            triclinic
loop_
_symmetry_equiv_pos_as_xyz
'x, y, z'
_cell_length_a     36.842197
_cell_length_b     37.232306
_cell_length_c     19.359066
_cell_angle_alpha  90.142917
_cell_angle_beta   90.002587
_cell_angle_gamma 120.46861
loop_
_atom_site_label
_atom_site_type_symbol
_atom_site_fract_x
_atom_site_fract_y
_atom_site_fract_z
_atom_type_partial_charge
Zn0 Zn 0.20892 0.40925 0.03005 0.0
O1 O 0.2092 0.46338 0.05799 0.0
C2 C 0.11277 0.36316 0.03062 0.0
Zn3 Zn 0.17757 0.41432 0.935 0.0
C4 C 0.19419 0.4823 0.02522 0.0
O5 O 0.17687 0.46871 0.96676 0.0
C6 C 0.1929 0.34103 0.94158 0.0
O7 O 0.24051 0.45201 0.90138 0.0
O8 O 0.27153 0.44716 0.99482 0.0
N9 N 0.15767 0.41753 0.83731 0.0
C10 C 0.17003 0.4101 0.7759 0.0
C11 C 0.12641 0.43026 0.75452 0.0
N12 N 0.13053 0.43005 0.82389 0.0
N13 N 0.15057 0.41736 0.72365 0.0
C14 C 0.21725 0.41587 0.18867 0.0
C15 C 0.25732 0.39177 0.21236 0.0
N16 N 0.22852 0.40631 0.12807 0.0
N17 N 0.25346 0.39134 0.1429 0.0
N18 N 0.2353 0.40756 0.24196 0.0
H19 H 0.20387 0.46523 0.19998 0.0
H20 H 0.16788 0.41842 0.24514 0.0
H21 H 0.16388 0.42108 0.15353 0.0
C22 C 0.18631 0.43069 0.19687 0.0
C23 C 0.20367 0.39907 0.76526 0.0
H24 H 0.22641 0.42003 0.72588 0.0
H25 H 0.18912 0.36694 0.7446 0.0
H26 H 0.22108 0.40105 0.81262 0.0
O27 O 0.17742 0.35894 0.90656 0.0
O28 O 0.20959 0.35593 -0.00011 0.0
C29 C 0.27401 0.46115 0.93406 0.0
O30 O 0.14588 0.3708 0.06311 0.0
O31 O 0.11555 0.37818 0.97075 0.0
Zn32 Zn 0.75529 0.17994 0.30451 0.0
O33 O 0.75679 0.23426 0.27424 0.0
C34 C 0.85078 0.22903 0.30876 0.0
Zn35 Zn 0.78414 0.21725 0.40093 0.0
C36 C 0.77171 0.26866 0.3062 0.0
O37 O 0.78765 0.27276 0.36599 0.0
C38 C 0.76682 0.12816 0.40082 0.0
O39 O 0.72011 0.19288 0.42881 0.0
O40 O 0.69209 0.15601 0.33435 0.0
N41 N 0.8058 0.24084 0.4988 0.0
C42 C 0.78782 0.2246 0.56032 0.0
C43 C 0.85275 0.26727 0.5797 0.0
N44 N 0.84615 0.26762 0.51113 0.0
N45 N 0.81665 0.24 0.61153 0.0
C46 C 0.75297 0.17525 0.14528 0.0
C47 C 0.72298 0.11012 0.12451 0.0
N48 N 0.73896 0.15538 0.20624 0.0
N49 N 0.72021 0.11488 0.19315 0.0
N50 N 0.74391 0.14761 0.09355 0.0
H51 H 0.7497 0.23087 0.15015 0.0
H52 H 0.7817 0.23164 0.08175 0.0
H53 H 0.80111 0.23835 0.16922 0.0
C54 C 0.77288 0.22155 0.13582 0.0
C55 C 0.74163 0.19548 0.57079 0.0
H56 H 0.72427 0.21008 0.54957 0.0
H57 H 0.73285 0.18937 0.62599 0.0
H58 H 0.73176 0.16559 0.54378 0.0
O59 O 0.78077 0.16184 0.43477 0.0
O60 O 0.7534 0.12595 0.33963 0.0
C61 C 0.68773 0.16824 0.3935 0.0
O62 O 0.81837 0.20403 0.27438 0.0
O63 O 0.84674 0.24115 0.36803 0.0
Zn64 Zn 0.57958 0.80149 0.73427 0.0
O65 O 0.53305 0.74057 0.76353 0.0
C66 C 0.64242 0.7717 0.73098 0.0
Zn67 Zn 0.58165 0.77087 0.63682 0.0
C68 C 0.51907 0.70778 0.72705 0.0
O69 O 0.53318 0.71033 0.66623 0.0
C70 C 0.64292 0.86386 0.64583 0.0
O71 O 0.53568 0.78462 0.603 0.0
O72 O 0.53163 0.81294 0.70001 0.0
N73 N 0.58352 0.75064 0.53923 0.0
C74 C 0.58955 0.77049 0.4784 0.0
C75 C 0.57768 0.70939 0.45578 0.0
N76 N 0.5762 0.71267 0.52511 0.0
N77 N 0.58659 0.74552 0.42567 0.0
C78 C 0.57646 0.80448 0.89325 0.0
C79 C 0.57786 0.86146 0.91389 0.0
N80 N 0.57797 0.82208 0.83168 0.0
N81 N 0.57882 0.8575 0.84459 0.0
N82 N 0.57595 0.82829 0.94506 0.0
H83 H 0.58112 0.75128 0.85639 0.0
H84 H 0.55073 0.7426 0.93328 0.0
H85 H 0.60662 0.77361 0.93737 0.0
C86 C 0.57888 0.76581 0.9045 0.0
C87 C 0.5953 0.81319 0.46912 0.0
H88 H 0.5849 0.82372 0.51416 0.0
H89 H 0.57752 0.8137 0.42323 0.0
H90 H 0.6291 0.83585 0.46002 0.0
O91 O 0.63061 0.83092 0.61051 0.0
O92 O 0.62563 0.86185 0.70356 0.0
C93 C 0.52001 0.80241 0.63776 0.0
O94 O 0.62829 0.79098 0.76562 0.0
O95 O 0.62733 0.75751 0.6715 0.0
Zn96 Zn 0.78936 0.56096 0.93808 0.0
O97 O 0.72703 0.52265 0.90058 0.0
C98 C 0.77242 0.63207 0.95321 0.0
Zn99 Zn 0.75512 0.5598 0.03366 0.0
C100 C 0.69267 0.5122 0.93149 0.0
O101 O 0.69359 0.52423 0.99333 0.0
C102 C 0.85152 0.60766 0.04035 0.0
O103 O 0.75366 0.50436 0.05473 0.0
O104 O 0.79161 0.50678 0.96542 0.0
N105 N 0.73335 0.55925 0.13136 0.0
C106 C 0.74373 0.54842 0.19153 0.0
C107 C 0.70496 0.57392 0.21618 0.0
N108 N 0.70914 0.57497 0.14679 0.0
N109 N 0.72597 0.5569 0.24519 0.0
C110 C 0.79928 0.5691 0.7795 0.0
C111 C 0.84226 0.54822 0.75731 0.0
N112 N 0.81112 0.56077 0.84058 0.0
N113 N 0.8379 0.54786 0.82666 0.0
N114 N 0.81868 0.56193 0.72691 0.0
H115 H 0.74708 0.57623 0.8161 0.0
H116 H 0.74467 0.56227 0.7268 0.0
H117 H 0.78156 0.61406 0.75452 0.0
C118 C 0.76611 0.58083 0.76961 0.0
C119 C 0.77374 0.53242 0.199 0.0
H120 H 0.75536 0.49789 0.20168 0.0
H121 H 0.79245 0.54429 0.24721 0.0
H122 H 0.79595 0.54142 0.15558 0.0
O123 O 0.81716 0.59569 0.07226 0.0
O124 O 0.85066 0.5981 0.97708 0.0
C125 C 0.77172 0.48898 0.02025 0.0
O126 O 0.7881 0.61578 0.91456 0.0
O127 O 0.75575 0.61488 0.01025 0.0
Zn128 Zn 0.18596 0.75991 0.4007 0.0
O129 O 0.24825 0.78344 0.43693 0.0
C130 C 0.20376 0.84865 0.38967 0.0
Zn131 Zn 0.2203 0.79426 0.30592 0.0
C132 C 0.28272 0.80738 0.40635 0.0
O133 O 0.28208 0.81929 0.34509 0.0
C134 C 0.1237 0.74584 0.3002 0.0
O135 O 0.22072 0.73995 0.28229 0.0
O136 O 0.18306 0.70342 0.37104 0.0
N137 N 0.24161 0.81588 0.20809 0.0
C138 C 0.23089 0.79468 0.1477 0.0
C139 C 0.27023 0.85901 0.12353 0.0
N140 N 0.26614 0.85586 0.19295 0.0
N141 N 0.24881 0.82095 0.09421 0.0
C142 C 0.17699 0.75784 0.55955 0.0
C143 C 0.1333 0.69403 0.58149 0.0
N144 N 0.1647 0.73767 0.49833 0.0
N145 N 0.1375 0.69799 0.51211 0.0
N146 N 0.15743 0.73133 0.61204 0.0
H147 H 0.23224 0.80514 0.61189 0.0
H148 H 0.19575 0.82072 0.5862 0.0
H149 H 0.22945 0.8172 0.52312 0.0
C150 C 0.21065 0.80267 0.56975 0.0
C151 C 0.20044 0.74866 0.13981 0.0
H152 H 0.17789 0.73568 0.18283 0.0
H153 H 0.21843 0.73216 0.1376 0.0
H154 H 0.18209 0.74194 0.09127 0.0
O155 O 0.15801 0.76882 0.26849 0.0
O156 O 0.12466 0.7362 0.3628 0.0
C157 C 0.20258 0.70603 0.31546 0.0
O158 O 0.18774 0.81595 0.42643 0.0
O159 O 0.22066 0.84912 0.33223 0.0
Zn160 Zn 0.38899 0.21297 0.60427 0.0
O161 O 0.43592 0.19994 0.57176 0.0
C162 C 0.32727 0.11967 0.61084 0.0
Zn163 Zn 0.38954 0.18151 0.70146 0.0
C164 C 0.45043 0.18122 0.60681 0.0
O165 O 0.4372 0.16966 0.668 0.0
C166 C 0.32696 0.21131 0.69753 0.0
O167 O 0.43618 0.2422 0.73201 0.0
O168 O 0.43691 0.27347 0.63571 0.0
N169 N 0.3907 0.16082 0.79883 0.0
C170 C 0.39143 0.17819 0.86044 0.0
C171 C 0.3928 0.12265 0.88098 0.0
N172 N 0.39155 0.12628 0.81168 0.0
N173 N 0.39302 0.15508 0.91218 0.0
C174 C 0.38361 0.21454 0.44552 0.0
C175 C 0.39027 0.27376 0.42426 0.0
N176 N 0.38775 0.23356 0.50685 0.0
N177 N 0.39188 0.27038 0.49356 0.0
N178 N 0.38459 0.23883 0.39348 0.0
H179 H 0.38758 0.16096 0.48189 0.0
H180 H 0.40508 0.17731 0.395 0.0
H181 H 0.35021 0.15045 0.41428 0.0
C182 C 0.38167 0.17358 0.43467 0.0
C183 C 0.38779 0.21621 0.87185 0.0
H184 H 0.38778 0.23191 0.82381 0.0
H185 H 0.41413 0.23885 0.90484 0.0
H186 H 0.35831 0.20706 0.90058 0.0
O187 O 0.34115 0.19212 0.73197 0.0
O188 O 0.34229 0.22575 0.63835 0.0
C189 C 0.45054 0.27535 0.69673 0.0
O190 O 0.34055 0.15268 0.57555 0.0
O191 O 0.34335 0.12153 0.66973 0.0
H192 H 0.28729 0.24995 0.64083 0.0
H193 H 0.22629 0.2971 -0.00077 0.0
H194 H 0.29308 0.18863 0.82614 0.0
H195 H 0.16817 0.30727 0.81242 0.0
H196 H 0.24723 0.25334 0.9375 0.0
H197 H 0.24077 0.26876 0.70098 0.0
C198 C 0.2784 0.24003 0.69377 0.0
C199 C 0.29479 0.21852 0.729 0.0
C200 C 0.22926 0.26458 0.91028 0.0
C201 C 0.24203 0.23998 0.79784 0.0
C202 C 0.21732 0.28959 0.94552 0.0
C203 C 0.19678 0.30705 0.91019 0.0
C204 C 0.22128 0.25775 0.83911 0.0
C205 C 0.18533 0.29568 0.84092 0.0
C206 C 0.25169 0.25054 0.72791 0.0
C207 C 0.28186 0.20597 0.79734 0.0
N208 N 0.1987 0.27258 0.80699 0.0
N209 N 0.25685 0.21755 0.82995 0.0
H210 H 0.05011 0.38142 0.03402 0.0
H211 H 0.88139 0.18773 0.23612 0.0
H212 H 0.08469 0.29396 0.10966 0.0
H213 H 0.91193 0.31051 0.30292 0.0
H214 H 0.94606 0.21921 0.16625 0.0
H215 H -0.01309 0.34807 0.10745 0.0
C216 C 0.04382 0.35464 0.06494 0.0
C217 C 0.07213 0.34003 0.06587 0.0
C218 C 0.93866 0.23903 0.19693 0.0
C219 C 0.00075 0.30219 0.14863 0.0
C220 C 0.90215 0.22124 0.23675 0.0
C221 C 0.89205 0.24673 0.27575 0.0
C222 C 0.96398 0.2825 0.19427 0.0
C223 C 0.91929 0.28997 0.27433 0.0
C224 C 0.00828 0.33611 0.10716 0.0
C225 C 0.06329 0.30584 0.10767 0.0
N226 N 0.95385 0.3067 0.23308 0.0
N227 N 0.028 0.28769 0.14716 0.0
H228 H 0.74489 0.05263 0.34314 0.0
H229 H 0.69259 0.87711 0.53325 0.0
H230 H 0.77713 0.11878 0.53776 0.0
H231 H 0.66551 0.94231 0.69109 0.0
H232 H 0.73523 0.94283 0.47275 0.0
H233 H 0.72603 -0.01147 0.40491 0.0
C234 C 0.74892 0.05382 0.39869 0.0
C235 C 0.76219 0.09091 0.43541 0.0
C236 C 0.7199 0.94273 0.5205 0.0
C237 C 0.74112 0.01793 0.50647 0.0
C238 C 0.69572 0.90531 0.5553 0.0
C239 C 0.6744 0.90414 0.61612 0.0
C240 C 0.72259 0.97914 0.54673 0.0
C241 C 0.68079 0.94175 0.64367 0.0
C242 C 0.73852 0.01727 0.43398 0.0
C243 C 0.76683 0.09077 0.50741 0.0
N244 N 0.70399 0.97779 0.60821 0.0
N245 N 0.75546 0.05459 0.54077 0.0
H246 H 0.68624 0.73909 0.66907 0.0
H247 H 0.73765 0.67269 0.01874 0.0
H248 H 0.67103 0.78673 0.86386 0.0
H249 H 0.79912 0.67197 0.82927 0.0
H250 H 0.71802 0.71964 0.96507 0.0
H251 H 0.73184 0.7183 0.72628 0.0
C252 C 0.69287 0.74558 0.72365 0.0
C253 C 0.67414 0.76381 0.76211 0.0
C254 C 0.73648 0.70981 0.93565 0.0
C255 C 0.72589 0.74001 0.82775 0.0
C256 C 0.74765 0.68296 0.96625 0.0
C257 C 0.7688 0.66731 0.92757 0.0
C258 C 0.74594 0.72037 0.86573 0.0
C259 C 0.78158 0.6822 0.86018 0.0
C260 C 0.7191 0.73398 0.75619 0.0
C261 C 0.68424 0.77208 0.83248 0.0
N262 N 0.76906 0.70715 0.83073 0.0
N263 N 0.70882 0.75938 0.86339 0.0
H264 H 0.11288 0.75194 0.16229 0.0
H265 H 0.86206 0.62234 0.17893 0.0
H266 H 0.04328 0.70076 0.35121 0.0
H267 H 0.93208 0.64553 0.98911 0.0
H268 H 0.92811 0.6583 0.24277 0.0
H269 H 0.04674 0.72055 0.09847 0.0
C270 C 0.08366 0.73433 0.19052 0.0
C271 C 0.08357 0.72888 0.2623 0.0
C272 C 0.92904 0.6556 0.18717 0.0
C273 C 0.00779 0.69286 0.18925 0.0
C274 C 0.89135 0.63519 0.15053 0.0
C275 C 0.89158 0.63088 0.07846 0.0
C276 C 0.9673 0.67212 0.15155 0.0
C277 C 0.93049 0.64808 0.0446 0.0
C278 C 0.04593 0.71628 0.15388 0.0
C279 C 0.04477 0.70566 0.29594 0.0
N280 N 0.96687 0.66802 0.08152 0.0
N281 N 0.00836 0.68847 0.25905 0.0
H282 H 0.29108 0.10546 0.4831 0.0
H283 H 0.17544 0.85886 0.51438 0.0
H284 H 0.2911 0.04211 0.66966 0.0
H285 H 0.23871 0.92561 0.32908 0.0
H286 H 0.19437 0.92502 0.57017 0.0
H287 H 0.24853 0.03802 0.42636 0.0
C288 C 0.28187 0.07742 0.51237 0.0
C289 C 0.29584 0.07937 0.58052 0.0
C290 C 0.20342 0.92494 0.51694 0.0
C291 C 0.24615 0.0025 0.51655 0.0
C292 C 0.19285 0.88733 0.4851 0.0
C293 C 0.20688 0.88692 0.41782 0.0
C294 C 0.22731 0.96218 0.48063 0.0
C295 C 0.22803 0.92461 0.38152 0.0
C296 C 0.25741 0.03906 0.48 0.0
C297 C 0.28172 0.04201 0.61664 0.0
N298 N 0.23806 0.96092 0.41375 0.0
N299 N 0.25787 0.00495 0.58392 0.0
H300 H 0.17994 0.48052 0.6324 0.0
H301 H 0.20777 0.3456 0.33516 0.0
H302 H 0.13845 0.3502 0.65184 0.0
H303 H 0.24551 0.47485 0.3118 0.0
H304 H 0.1846 0.3473 0.45341 0.0
H305 H 0.20344 0.47933 0.51397 0.0
C306 C 0.17514 0.45155 0.61089 0.0
C307 C 0.15755 0.41547 0.65122 0.0
C308 C 0.19817 0.37542 0.42266 0.0
C309 C 0.18499 0.4138 0.51752 0.0
C310 C 0.21178 0.37448 0.35571 0.0
C311 C 0.22815 0.41003 0.31422 0.0
C312 C 0.20116 0.41228 0.44805 0.0
C313 C 0.23254 0.44674 0.34242 0.0
C314 C 0.18893 0.45088 0.5439 0.0
C315 C 0.15233 0.37868 0.62206 0.0
N316 N 0.21884 0.44689 0.40749 0.0
N317 N 0.16624 0.3788 0.5571 0.0
H318 H 0.69705 0.11163 0.97941 0.0
H319 H 0.84788 0.28649 0.72747 0.0
H320 H 0.82267 0.20054 0.04736 0.0
H321 H 0.77752 0.15979 0.65404 0.0
H322 H 0.83433 0.26028 0.84713 0.0
H323 H 0.71977 0.13177 0.8589 0.0
C324 C 0.72937 0.13521 0.9687 0.0
C325 C 0.75766 0.15571 0.0229 0.0
C326 C 0.82202 0.23836 0.80453 0.0
C327 C 0.78352 0.17911 0.88696 0.0
C328 C 0.82969 0.25326 0.73673 0.0
C329 C 0.81226 0.2253 0.68139 0.0
C330 C 0.79643 0.19537 0.81642 0.0
C331 C 0.78973 0.18239 0.69561 0.0
C332 C 0.74229 0.14668 0.90042 0.0
C333 C 0.79954 0.18544 0.00678 0.0
N334 N 0.78156 0.16869 0.76181 0.0
N335 N 0.81104 0.19709 0.94025 0.0
H336 H 0.52574 0.70069 0.33267 0.0
H337 H 0.63787 0.87299 0.03645 0.0
H338 H 0.64826 0.81015 0.35572 0.0
H339 H 0.51432 0.76482 0.01595 0.0
H340 H 0.64217 0.85153 0.15475 0.0
H341 H 0.52188 0.72233 0.21453 0.0
C342 C 0.55209 0.72889 0.31203 0.0
C343 C 0.58718 0.75395 0.35338 0.0
C344 C 0.61392 0.83263 0.12469 0.0
C345 C 0.5829 0.77948 0.21987 0.0
C346 C 0.61137 0.8452 0.05784 0.0
C347 C 0.57573 0.82052 0.01743 0.0
C348 C 0.5805 0.79509 0.1507 0.0
C349 C 0.5423 0.78441 0.04615 0.0
C350 C 0.54977 0.74155 0.24519 0.0
C351 C 0.62051 0.79043 0.32519 0.0
N352 N 0.54556 0.77256 0.11098 0.0
N353 N 0.61747 0.80232 0.26026 0.0
H354 H 0.82816 0.62775 0.65458 0.0
H355 H 0.71672 0.49069 0.31686 0.0
H356 H 0.79017 0.49816 0.63634 0.0
H357 H 0.75514 0.62039 0.33622 0.0
H358 H 0.74214 0.49208 0.4345 0.0
H359 H 0.8029 0.62608 0.53689 0.0
C360 C 0.81488 0.5991 0.62504 0.0
C361 C 0.81093 0.563 0.65458 0.0
C362 C 0.74481 0.52021 0.41334 0.0
C363 C 0.78154 0.56045 0.52077 0.0
C364 C 0.73013 0.5193 0.34656 0.0
C365 C 0.73424 0.55556 0.31729 0.0
C366 C 0.76368 0.55771 0.45097 0.0
C367 C 0.75138 0.59184 0.35747 0.0
C368 C 0.80029 0.59801 0.55821 0.0
C369 C 0.7939 0.52661 0.6147 0.0
N370 N 0.76582 0.59212 0.42218 0.0
N371 N 0.77947 0.52612 0.54984 0.0
H372 H 0.1475 0.78763 0.68402 0.0
H373 H 0.25846 0.76396 0.023 0.0
H374 H 0.18613 0.69673 0.70299 0.0
H375 H 0.22002 0.85498 0.00251 0.0
H376 H 0.23349 0.73951 0.90519 0.0
H377 H 0.17257 0.81183 0.80171 0.0
C378 C 0.16086 0.77252 0.71374 0.0
C379 C 0.16501 0.74038 0.68441 0.0
C380 C 0.23073 0.76502 0.92612 0.0
C381 C 0.19423 0.76794 0.81824 0.0
C382 C 0.24516 0.77903 0.993 0.0
C383 C 0.2409 0.81121 0.02202 0.0
C384 C 0.21193 0.78342 0.88812 0.0
C385 C 0.22389 0.83017 0.98147 0.0
C386 C 0.17535 0.78638 0.78057 0.0
C387 C 0.1822 0.72141 0.72448 0.0
N388 N 0.20966 0.81575 0.91666 0.0
N389 N 0.19653 0.73569 0.78936 0.0
H390 H 0.32051 0.17583 0.32491 0.0
H391 H 0.45726 0.21706 0.98152 0.0
H392 H 0.44567 0.28071 0.29969 0.0
H393 H 0.33086 0.11408 0.00447 0.0
H394 H 0.45459 0.23992 0.09939 0.0
H395 H 0.32306 0.153 0.20708 0.0
C396 C 0.34825 0.19429 0.29366 0.0
C397 C 0.38294 0.23003 0.32116 0.0
C398 C 0.42753 0.21206 0.07917 0.0
C399 C 0.38664 0.20409 0.18751 0.0
C400 C 0.4293 0.1989 0.01246 0.0
C401 C 0.39436 0.16364 0.98446 0.0
C402 C 0.39038 0.18974 0.11781 0.0
C403 C 0.3585 0.14114 0.02527 0.0
C404 C 0.34989 0.18123 0.22684 0.0
C405 C 0.41827 0.25318 0.27948 0.0
N406 N 0.35728 0.15472 0.09 0.0
N407 N 0.41941 0.23962 0.21469 0.0
H408 H 0.13151 0.501 0.03732 0.0
H409 H 0.2693 0.70362 0.26479 0.0
H410 H 0.26045 0.54366 0.09297 0.0
H411 H 0.13477 0.62892 0.2902 0.0
H412 H 0.26733 0.6499 0.18949 0.0
H413 H 0.1327 0.55435 0.11465 0.0
C414 C 0.16028 0.52233 0.06442 0.0
C415 C 0.19608 0.51853 0.05866 0.0
C416 C 0.23829 0.64489 0.21236 0.0
C417 C 0.19747 0.57832 0.14703 0.0
C418 C 0.23949 0.67527 0.2557 0.0
C419 C 0.20225 0.67002 0.28442 0.0
C420 C 0.19941 0.60957 0.19619 0.0
C421 C 0.16419 0.63339 0.27003 0.0
C422 C 0.16075 0.55212 0.10919 0.0
C423 C 0.23235 0.54598 0.09592 0.0
N424 N 0.1636 0.60457 0.22594 0.0
N425 N 0.23216 0.5748 0.13845 0.0
H426 H 0.62288 0.16633 0.32239 0.0
H427 H 0.49535 0.14931 0.66807 0.0
H428 H 0.65788 0.14583 0.52445 0.0
H429 H 0.47553 0.19202 0.47219 0.0
H430 H 0.5475 0.1363 0.61296 0.0
H431 H 0.55975 0.16225 0.37268 0.0
C432 C 0.61679 0.16018 0.37711 0.0
C433 C 0.64592 0.15734 0.41979 0.0
C434 C 0.53152 0.14832 0.58208 0.0
C435 C 0.57452 0.15317 0.4777 0.0
C436 C 0.50186 0.15583 0.61354 0.0
C437 C 0.48144 0.17224 0.57492 0.0
C438 C 0.54059 0.15706 0.51147 0.0
C439 C 0.49085 0.17981 0.50424 0.0
C440 C 0.58107 0.15824 0.40592 0.0
C441 C 0.63683 0.14953 0.49031 0.0
N442 N 0.51981 0.1723 0.4749 0.0
N443 N 0.60211 0.14807 0.51727 0.0
H444 H 0.29112 0.47635 0.79698 0.0
H445 H 0.49806 0.69032 0.8624 0.0
H446 H 0.34952 0.51261 -0.00205 0.0
H447 H 0.46752 0.63332 0.66031 0.0
H448 H 0.44392 0.62525 0.91244 0.0
H449 H 0.35536 0.53216 0.74493 0.0
C450 C 0.31774 0.49571 0.83007 0.0
C451 C 0.31491 0.49017 0.902 0.0
C452 C 0.44931 0.62672 0.85726 0.0
C453 C 0.38819 0.55448 0.84279 0.0
C454 C 0.48015 0.66401 0.82848 0.0
C455 C 0.48726 0.66741 0.75695 0.0
C456 C 0.42456 0.59259 0.81414 0.0
C457 C 0.46299 0.6321 0.71568 0.0
C458 C 0.35442 0.52749 0.80024 0.0
C459 C 0.35039 0.51591 0.94233 0.0
N460 N 0.43222 0.59623 0.7448 0.0
N461 N 0.38538 0.54749 0.91226 0.0
H462 H 0.83455 0.35045 0.29886 0.0
H463 H 0.70371 0.41768 0.06152 0.0
H464 H 0.70825 0.26374 0.23001 0.0
H465 H 0.83903 0.48 0.04942 0.0
H466 H 0.70366 0.36404 0.13408 0.0
H467 H 0.83573 0.40353 0.22142 0.0
C468 C 0.80685 0.34303 0.2686 0.0
C469 C 0.77114 0.30307 0.27078 0.0
C470 C 0.73334 0.38901 0.11461 0.0
C471 C 0.77243 0.36259 0.18242 0.0
C472 C 0.73331 0.41928 0.07282 0.0
C473 C 0.77135 0.45251 0.04873 0.0
C474 C 0.77181 0.39275 0.13398 0.0
C475 C 0.80907 0.45412 0.06597 0.0
C476 C 0.80776 0.3729 0.22384 0.0
C477 C 0.73629 0.29438 0.22973 0.0
N478 N 0.80846 0.42482 0.1086 0.0
N479 N 0.73774 0.32394 0.18733 0.0
H480 H 0.29611 0.80864 0.54468 0.0
H481 H 0.5056 0.80271 0.5 0.0
H482 H 0.3594 0.82996 0.3486 0.0
H483 H 0.46491 0.82234 0.69844 0.0
H484 H 0.45294 0.81375 0.44393 0.0
H485 H 0.35822 0.81575 0.60246 0.0
C486 C 0.32337 0.81543 0.51385 0.0
C487 C 0.32252 0.81835 0.44164 0.0
C488 C 0.45575 0.81608 0.49966 0.0
C489 C 0.39347 0.82581 0.50746 0.0
C490 C 0.48564 0.8095 0.53187 0.0
C491 C 0.48934 0.81117 0.60418 0.0
C492 C 0.42876 0.82373 0.53996 0.0
C493 C 0.46294 0.82055 0.64262 0.0
C494 C 0.35885 0.81954 0.54694 0.0
C495 C 0.35878 0.82743 0.40434 0.0
N496 N 0.43332 0.82595 0.61005 0.0
N497 N 0.39261 0.83014 0.43761 0.0
H498 H 0.61469 0.46297 0.98889 0.0
H499 H 0.50584 0.34927 0.63248 0.0
H500 H 0.67953 0.49743 0.79312 0.0
H501 H 0.46757 0.29221 0.83327 0.0
H502 H 0.56138 0.41304 0.68851 0.0
H503 H 0.55125 0.4097 0.9294 0.0
C504 C 0.61536 0.45981 0.93334 0.0
C505 C 0.65252 0.4842 0.89601 0.0
C506 C 0.5404 0.38656 0.72007 0.0
C507 C 0.58036 0.42362 0.82786 0.0
C508 C 0.50878 0.3503 0.68822 0.0
C509 C 0.48233 0.31527 0.72826 0.0
C510 C 0.5449 0.38781 0.79232 0.0
C511 C 0.48743 0.31827 0.80032 0.0
C512 C 0.57929 0.42934 0.89949 0.0
C513 C 0.65166 0.47886 0.824 0.0
N514 N 0.51808 0.3538 0.82998 0.0
N515 N 0.61623 0.44895 0.79227 0.0
loop_
_geom_bond_atom_site_label_1
_geom_bond_atom_site_label_2
_geom_bond_distance
_geom_bond_site_symmetry_2
_ccdc_geom_bond_type
Zn0 O1 2.055 . S
Zn0 O8 2.046 . S
Zn0 N16 2.036 . S
Zn0 O28 2.053 . S
Zn0 O30 2.066 . S
O1 Zn0 2.055 . S
O1 C4 1.259 . S
C2 O30 1.256 . S
C2 O31 1.244 1_554 S
Zn3 O5 2.046 . S
Zn3 O7 2.055 . S
Zn3 N9 2.036 . S
Zn3 O27 2.066 . S
Zn3 O31 2.053 . S
C4 O1 1.259 . S
C4 O5 1.254 1_554 S
O5 Zn3 2.046 . S
O5 C4 1.254 1_556 S
C6 O27 1.256 . S
C6 O28 1.244 1_556 S
O7 Zn3 2.055 . S
O7 C29 1.259 . S
O8 Zn0 2.046 . S
O8 C29 1.254 1_554 S
N9 Zn3 2.036 . S
N9 C10 1.298 . S
N9 N12 1.398 . S
C10 N9 1.298 . S
C10 N13 1.367 . S
C10 C23 1.481 . S
C11 N12 1.299 . S
C11 N13 1.379 . S
N12 N9 1.398 . S
N12 C11 1.299 . S
N13 C10 1.367 . S
N13 C11 1.379 . S
C14 N16 1.298 . S
C14 N18 1.367 . S
C14 C22 1.481 . S
C15 N17 1.299 . S
C15 N18 1.379 . S
N16 Zn0 2.036 . S
N16 C14 1.298 . S
N16 N17 1.398 . S
N17 C15 1.299 . S
N17 N16 1.398 . S
N18 C14 1.367 . S
N18 C15 1.379 . S
H19 C22 0.980 . S
H20 C22 0.981 . S
H21 C22 0.981 . S
C22 C14 1.481 . S
C22 H19 0.980 . S
C22 H20 0.981 . S
C22 H21 0.981 . S
C23 C10 1.481 . S
C23 H24 0.980 . S
C23 H25 0.981 . S
C23 H26 0.981 . S
H24 C23 0.980 . S
H25 C23 0.981 . S
H26 C23 0.981 . S
O27 Zn3 2.066 . S
O27 C6 1.256 . S
O28 Zn0 2.053 . S
O28 C6 1.244 1_554 S
C29 O7 1.259 . S
C29 O8 1.254 1_556 S
O30 Zn0 2.066 . S
O30 C2 1.256 . S
O31 C2 1.244 1_556 S
O31 Zn3 2.053 . S
Zn32 O33 2.055 . S
Zn32 O40 2.046 . S
Zn32 N48 2.036 . S
Zn32 O60 2.053 . S
Zn32 O62 2.066 . S
O33 Zn32 2.055 . S
O33 C36 1.259 . S
C34 O62 1.256 . S
C34 O63 1.244 . S
Zn35 O37 2.046 . S
Zn35 O39 2.055 . S
Zn35 N41 2.036 . S
Zn35 O59 2.066 . S
Zn35 O63 2.053 . S
C36 O33 1.259 . S
C36 O37 1.254 . S
O37 Zn35 2.046 . S
O37 C36 1.254 . S
C38 O59 1.256 . S
C38 O60 1.244 . S
O39 Zn35 2.055 . S
O39 C61 1.259 . S
O40 Zn32 2.046 . S
O40 C61 1.254 . S
N41 Zn35 2.036 . S
N41 C42 1.298 . S
N41 N44 1.398 . S
C42 N41 1.298 . S
C42 N45 1.367 . S
C42 C55 1.481 . S
C43 N44 1.299 . S
C43 N45 1.379 . S
N44 N41 1.398 . S
N44 C43 1.299 . S
N45 C42 1.367 . S
N45 C43 1.379 . S
C46 N48 1.298 . S
C46 N50 1.367 . S
C46 C54 1.481 . S
C47 N49 1.299 . S
C47 N50 1.379 . S
N48 Zn32 2.036 . S
N48 C46 1.298 . S
N48 N49 1.398 . S
N49 C47 1.299 . S
N49 N48 1.398 . S
N50 C46 1.367 . S
N50 C47 1.379 . S
H51 C54 0.980 . S
H52 C54 0.981 . S
H53 C54 0.981 . S
C54 C46 1.481 . S
C54 H51 0.980 . S
C54 H52 0.981 . S
C54 H53 0.981 . S
C55 C42 1.481 . S
C55 H56 0.980 . S
C55 H57 0.981 . S
C55 H58 0.981 . S
H56 C55 0.980 . S
H57 C55 0.981 . S
H58 C55 0.981 . S
O59 Zn35 2.066 . S
O59 C38 1.256 . S
O60 Zn32 2.053 . S
O60 C38 1.244 . S
C61 O39 1.259 . S
C61 O40 1.254 . S
O62 Zn32 2.066 . S
O62 C34 1.256 . S
O63 C34 1.244 . S
O63 Zn35 2.053 . S
Zn64 O65 2.055 . S
Zn64 O72 2.046 . S
Zn64 N80 2.036 . S
Zn64 O92 2.053 . S
Zn64 O94 2.066 . S
O65 Zn64 2.055 . S
O65 C68 1.259 . S
C66 O94 1.256 . S
C66 O95 1.244 . S
Zn67 O69 2.046 . S
Zn67 O71 2.055 . S
Zn67 N73 2.036 . S
Zn67 O91 2.066 . S
Zn67 O95 2.053 . S
C68 O65 1.259 . S
C68 O69 1.254 . S
O69 Zn67 2.046 . S
O69 C68 1.254 . S
C70 O91 1.256 . S
C70 O92 1.244 . S
O71 Zn67 2.055 . S
O71 C93 1.259 . S
O72 Zn64 2.046 . S
O72 C93 1.254 . S
N73 Zn67 2.036 . S
N73 C74 1.298 . S
N73 N76 1.398 . S
C74 N73 1.298 . S
C74 N77 1.367 . S
C74 C87 1.481 . S
C75 N76 1.299 . S
C75 N77 1.379 . S
N76 N73 1.398 . S
N76 C75 1.299 . S
N77 C74 1.367 . S
N77 C75 1.379 . S
C78 N80 1.298 . S
C78 N82 1.367 . S
C78 C86 1.481 . S
C79 N81 1.299 . S
C79 N82 1.379 . S
N80 Zn64 2.036 . S
N80 C78 1.298 . S
N80 N81 1.398 . S
N81 C79 1.299 . S
N81 N80 1.398 . S
N82 C78 1.367 . S
N82 C79 1.379 . S
H83 C86 0.980 . S
H84 C86 0.981 . S
H85 C86 0.981 . S
C86 C78 1.481 . S
C86 H83 0.980 . S
C86 H84 0.981 . S
C86 H85 0.981 . S
C87 C74 1.481 . S
C87 H88 0.980 . S
C87 H89 0.981 . S
C87 H90 0.981 . S
H88 C87 0.980 . S
H89 C87 0.981 . S
H90 C87 0.981 . S
O91 Zn67 2.066 . S
O91 C70 1.256 . S
O92 Zn64 2.053 . S
O92 C70 1.244 . S
C93 O71 1.259 . S
C93 O72 1.254 . S
O94 Zn64 2.066 . S
O94 C66 1.256 . S
O95 C66 1.244 . S
O95 Zn67 2.053 . S
Zn96 O97 2.055 . S
Zn96 O104 2.046 . S
Zn96 N112 2.036 . S
Zn96 O124 2.053 . S
Zn96 O126 2.066 . S
O97 Zn96 2.055 . S
O97 C100 1.259 . S
C98 O126 1.256 . S
C98 O127 1.244 1_556 S
Zn99 O101 2.046 . S
Zn99 O103 2.055 . S
Zn99 N105 2.036 . S
Zn99 O123 2.066 . S
Zn99 O127 2.053 . S
C100 O97 1.259 . S
C100 O101 1.254 1_556 S
O101 Zn99 2.046 . S
O101 C100 1.254 1_554 S
C102 O123 1.256 . S
C102 O124 1.244 1_554 S
O103 Zn99 2.055 . S
O103 C125 1.259 . S
O104 Zn96 2.046 . S
O104 C125 1.254 1_556 S
N105 Zn99 2.036 . S
N105 C106 1.298 . S
N105 N108 1.398 . S
C106 N105 1.298 . S
C106 N109 1.367 . S
C106 C119 1.481 . S
C107 N108 1.299 . S
C107 N109 1.379 . S
N108 N105 1.398 . S
N108 C107 1.299 . S
N109 C106 1.367 . S
N109 C107 1.379 . S
C110 N112 1.298 . S
C110 N114 1.367 . S
C110 C118 1.481 . S
C111 N113 1.299 . S
C111 N114 1.379 . S
N112 Zn96 2.036 . S
N112 C110 1.298 . S
N112 N113 1.398 . S
N113 C111 1.299 . S
N113 N112 1.398 . S
N114 C110 1.367 . S
N114 C111 1.379 . S
H115 C118 0.980 . S
H116 C118 0.981 . S
H117 C118 0.981 . S
C118 C110 1.481 . S
C118 H115 0.980 . S
C118 H116 0.981 . S
C118 H117 0.981 . S
C119 C106 1.481 . S
C119 H120 0.980 . S
C119 H121 0.981 . S
C119 H122 0.981 . S
H120 C119 0.980 . S
H121 C119 0.981 . S
H122 C119 0.981 . S
O123 Zn99 2.066 . S
O123 C102 1.256 . S
O124 Zn96 2.053 . S
O124 C102 1.244 1_556 S
C125 O103 1.259 . S
C125 O104 1.254 1_554 S
O126 Zn96 2.066 . S
O126 C98 1.256 . S
O127 C98 1.244 1_554 S
O127 Zn99 2.053 . S
Zn128 O129 2.055 . S
Zn128 O136 2.046 . S
Zn128 N144 2.036 . S
Zn128 O156 2.053 . S
Zn128 O158 2.066 . S
O129 Zn128 2.055 . S
O129 C132 1.259 . S
C130 O158 1.256 . S
C130 O159 1.244 . S
Zn131 O133 2.046 . S
Zn131 O135 2.055 . S
Zn131 N137 2.036 . S
Zn131 O155 2.066 . S
Zn131 O159 2.053 . S
C132 O129 1.259 . S
C132 O133 1.254 . S
O133 Zn131 2.046 . S
O133 C132 1.254 . S
C134 O155 1.256 . S
C134 O156 1.244 . S
O135 Zn131 2.055 . S
O135 C157 1.259 . S
O136 Zn128 2.046 . S
O136 C157 1.254 . S
N137 Zn131 2.036 . S
N137 C138 1.298 . S
N137 N140 1.398 . S
C138 N137 1.298 . S
C138 N141 1.367 . S
C138 C151 1.481 . S
C139 N140 1.299 . S
C139 N141 1.379 . S
N140 N137 1.398 . S
N140 C139 1.299 . S
N141 C138 1.367 . S
N141 C139 1.379 . S
C142 N144 1.298 . S
C142 N146 1.367 . S
C142 C150 1.481 . S
C143 N145 1.299 . S
C143 N146 1.379 . S
N144 Zn128 2.036 . S
N144 C142 1.298 . S
N144 N145 1.398 . S
N145 C143 1.299 . S
N145 N144 1.398 . S
N146 C142 1.367 . S
N146 C143 1.379 . S
H147 C150 0.980 . S
H148 C150 0.981 . S
H149 C150 0.981 . S
C150 C142 1.481 . S
C150 H147 0.980 . S
C150 H148 0.981 . S
C150 H149 0.981 . S
C151 C138 1.481 . S
C151 H152 0.980 . S
C151 H153 0.981 . S
C151 H154 0.981 . S
H152 C151 0.980 . S
H153 C151 0.981 . S
H154 C151 0.981 . S
O155 Zn131 2.066 . S
O155 C134 1.256 . S
O156 Zn128 2.053 . S
O156 C134 1.244 . S
C157 O135 1.259 . S
C157 O136 1.254 . S
O158 Zn128 2.066 . S
O158 C130 1.256 . S
O159 C130 1.244 . S
O159 Zn131 2.053 . S
Zn160 O161 2.055 . S
Zn160 O168 2.046 . S
Zn160 N176 2.036 . S
Zn160 O188 2.053 . S
Zn160 O190 2.066 . S
O161 Zn160 2.055 . S
O161 C164 1.259 . S
C162 O190 1.256 . S
C162 O191 1.244 . S
Zn163 O165 2.046 . S
Zn163 O167 2.055 . S
Zn163 N169 2.036 . S
Zn163 O187 2.066 . S
Zn163 O191 2.053 . S
C164 O161 1.259 . S
C164 O165 1.254 . S
O165 Zn163 2.046 . S
O165 C164 1.254 . S
C166 O187 1.256 . S
C166 O188 1.244 . S
O167 Zn163 2.055 . S
O167 C189 1.259 . S
O168 Zn160 2.046 . S
O168 C189 1.254 . S
N169 Zn163 2.036 . S
N169 C170 1.298 . S
N169 N172 1.398 . S
C170 N169 1.298 . S
C170 N173 1.367 . S
C170 C183 1.481 . S
C171 N172 1.299 . S
C171 N173 1.379 . S
N172 N169 1.398 . S
N172 C171 1.299 . S
N173 C170 1.367 . S
N173 C171 1.379 . S
C174 N176 1.298 . S
C174 N178 1.367 . S
C174 C182 1.481 . S
C175 N177 1.299 . S
C175 N178 1.379 . S
N176 Zn160 2.036 . S
N176 C174 1.298 . S
N176 N177 1.398 . S
N177 C175 1.299 . S
N177 N176 1.398 . S
N178 C174 1.367 . S
N178 C175 1.379 . S
H179 C182 0.980 . S
H180 C182 0.981 . S
H181 C182 0.981 . S
C182 C174 1.481 . S
C182 H179 0.980 . S
C182 H180 0.981 . S
C182 H181 0.981 . S
C183 C170 1.481 . S
C183 H184 0.980 . S
C183 H185 0.981 . S
C183 H186 0.981 . S
H184 C183 0.980 . S
H185 C183 0.981 . S
H186 C183 0.981 . S
O187 Zn163 2.066 . S
O187 C166 1.256 . S
O188 Zn160 2.053 . S
O188 C166 1.244 . S
C189 O167 1.259 . S
C189 O168 1.254 . S
O190 Zn160 2.066 . S
O190 C162 1.256 . S
O191 C162 1.244 . S
O191 Zn163 2.053 . S
H192 C198 0.930 . S
H193 C202 0.930 . S
H194 C207 0.929 . S
H195 C205 0.929 . S
H196 C200 0.929 . S
H197 C206 0.929 . S
C198 H192 0.930 . S
C198 C199 1.367 . S
C198 C206 1.378 . S
C199 C198 1.367 . S
C199 C207 1.433 . S
C200 H196 0.929 . S
C200 C202 1.378 . S
C200 C204 1.350 . S
C201 C204 1.463 . S
C201 C206 1.350 . S
C201 N209 1.427 . S
C202 H193 0.930 . S
C202 C200 1.378 . S
C202 C203 1.367 . S
C203 C202 1.367 . S
C203 C205 1.433 . S
C204 C200 1.350 . S
C204 C201 1.463 . S
C204 N208 1.427 . S
C205 H195 0.929 . S
C205 C203 1.433 . S
C205 N208 1.384 . S
C206 H197 0.929 . S
C206 C198 1.378 . S
C206 C201 1.350 . S
C207 H194 0.929 . S
C207 C199 1.433 . S
C207 N209 1.384 . S
N208 C204 1.427 . S
N208 C205 1.384 . S
N209 C201 1.427 . S
N209 C207 1.384 . S
H210 C216 0.930 . S
H211 C220 0.930 . S
H212 C225 0.929 . S
H213 C223 0.929 . S
H214 C218 0.929 . S
H215 C224 0.929 . S
C216 H210 0.930 . S
C216 C217 1.367 . S
C216 C224 1.378 . S
C217 C216 1.367 . S
C217 C225 1.433 . S
C218 H214 0.929 . S
C218 C220 1.378 . S
C218 C222 1.350 . S
C219 C222 1.463 1_455 S
C219 C224 1.350 . S
C219 N227 1.427 . S
C220 H211 0.930 . S
C220 C218 1.378 . S
C220 C221 1.367 . S
C221 C220 1.367 . S
C221 C223 1.433 . S
C222 C218 1.350 . S
C222 C219 1.463 1_655 S
C222 N226 1.427 . S
C223 H213 0.929 . S
C223 C221 1.433 . S
C223 N226 1.384 . S
C224 H215 0.929 . S
C224 C216 1.378 . S
C224 C219 1.350 . S
C225 H212 0.929 . S
C225 C217 1.433 . S
C225 N227 1.384 . S
N226 C222 1.427 . S
N226 C223 1.384 . S
N227 C219 1.427 . S
N227 C225 1.384 . S
H228 C234 0.930 . S
H229 C238 0.930 . S
H230 C243 0.929 . S
H231 C241 0.929 . S
H232 C236 0.929 . S
H233 C242 0.929 . S
C234 H228 0.930 . S
C234 C235 1.367 . S
C234 C242 1.378 . S
C235 C234 1.367 . S
C235 C243 1.433 . S
C236 H232 0.929 . S
C236 C238 1.378 . S
C236 C240 1.350 . S
C237 C240 1.463 1_545 S
C237 C242 1.350 . S
C237 N245 1.427 . S
C238 H229 0.930 . S
C238 C236 1.378 . S
C238 C239 1.367 . S
C239 C238 1.367 . S
C239 C241 1.433 . S
C240 C236 1.350 . S
C240 C237 1.463 1_565 S
C240 N244 1.427 . S
C241 H231 0.929 . S
C241 C239 1.433 . S
C241 N244 1.384 . S
C242 H233 0.929 . S
C242 C234 1.378 . S
C242 C237 1.350 . S
C243 H230 0.929 . S
C243 C235 1.433 . S
C243 N245 1.384 . S
N244 C240 1.427 . S
N244 C241 1.384 . S
N245 C237 1.427 . S
N245 C243 1.384 . S
H246 C252 0.930 . S
H247 C256 0.930 1_554 S
H248 C261 0.929 . S
H249 C259 0.929 . S
H250 C254 0.929 . S
H251 C260 0.929 . S
C252 H246 0.930 . S
C252 C253 1.367 . S
C252 C260 1.378 . S
C253 C252 1.367 . S
C253 C261 1.433 . S
C254 H250 0.929 . S
C254 C256 1.378 . S
C254 C258 1.350 . S
C255 C258 1.463 . S
C255 C260 1.350 . S
C255 N263 1.427 . S
C256 H247 0.930 1_556 S
C256 C254 1.378 . S
C256 C257 1.367 . S
C257 C256 1.367 . S
C257 C259 1.433 . S
C258 C254 1.350 . S
C258 C255 1.463 . S
C258 N262 1.427 . S
C259 H249 0.929 . S
C259 C257 1.433 . S
C259 N262 1.384 . S
C260 H251 0.929 . S
C260 C252 1.378 . S
C260 C255 1.350 . S
C261 H248 0.929 . S
C261 C253 1.433 . S
C261 N263 1.384 . S
N262 C258 1.427 . S
N262 C259 1.384 . S
N263 C255 1.427 . S
N263 C261 1.384 . S
H264 C270 0.930 . S
H265 C274 0.930 . S
H266 C279 0.929 . S
H267 C277 0.929 1_556 S
H268 C272 0.929 . S
H269 C278 0.929 . S
C270 H264 0.930 . S
C270 C271 1.367 . S
C270 C278 1.378 . S
C271 C270 1.367 . S
C271 C279 1.433 . S
C272 H268 0.929 . S
C272 C274 1.378 . S
C272 C276 1.350 . S
C273 C276 1.463 1_455 S
C273 C278 1.350 . S
C273 N281 1.427 . S
C274 H265 0.930 . S
C274 C272 1.378 . S
C274 C275 1.367 . S
C275 C274 1.367 . S
C275 C277 1.433 . S
C276 C272 1.350 . S
C276 C273 1.463 1_655 S
C276 N280 1.427 . S
C277 H267 0.929 1_554 S
C277 C275 1.433 . S
C277 N280 1.384 . S
C278 H269 0.929 . S
C278 C270 1.378 . S
C278 C273 1.350 . S
C279 H266 0.929 . S
C279 C271 1.433 . S
C279 N281 1.384 . S
N280 C276 1.427 . S
N280 C277 1.384 . S
N281 C273 1.427 . S
N281 C279 1.384 . S
H282 C288 0.930 . S
H283 C292 0.930 . S
H284 C297 0.929 . S
H285 C295 0.929 . S
H286 C290 0.929 . S
H287 C296 0.929 . S
C288 H282 0.930 . S
C288 C289 1.367 . S
C288 C296 1.378 . S
C289 C288 1.367 . S
C289 C297 1.433 . S
C290 H286 0.929 . S
C290 C292 1.378 . S
C290 C294 1.350 . S
C291 C294 1.463 1_545 S
C291 C296 1.350 . S
C291 N299 1.427 . S
C292 H283 0.930 . S
C292 C290 1.378 . S
C292 C293 1.367 . S
C293 C292 1.367 . S
C293 C295 1.433 . S
C294 C290 1.350 . S
C294 C291 1.463 1_565 S
C294 N298 1.427 . S
C295 H285 0.929 . S
C295 C293 1.433 . S
C295 N298 1.384 . S
C296 H287 0.929 . S
C296 C288 1.378 . S
C296 C291 1.350 . S
C297 H284 0.929 . S
C297 C289 1.433 . S
C297 N299 1.384 . S
N298 C294 1.427 . S
N298 C295 1.384 . S
N299 C291 1.427 . S
N299 C297 1.384 . S
H300 C306 0.930 . S
H301 C310 0.930 . S
H302 C315 0.929 . S
H303 C313 0.929 . S
H304 C308 0.929 . S
H305 C314 0.929 . S
C306 H300 0.930 . S
C306 C307 1.367 . S
C306 C314 1.378 . S
C307 C306 1.367 . S
C307 C315 1.433 . S
C308 H304 0.929 . S
C308 C310 1.378 . S
C308 C312 1.350 . S
C309 C312 1.463 . S
C309 C314 1.350 . S
C309 N317 1.427 . S
C310 H301 0.930 . S
C310 C308 1.378 . S
C310 C311 1.367 . S
C311 C310 1.367 . S
C311 C313 1.433 . S
C312 C308 1.350 . S
C312 C309 1.463 . S
C312 N316 1.427 . S
C313 H303 0.929 . S
C313 C311 1.433 . S
C313 N316 1.384 . S
C314 H305 0.929 . S
C314 C306 1.378 . S
C314 C309 1.350 . S
C315 H302 0.929 . S
C315 C307 1.433 . S
C315 N317 1.384 . S
N316 C312 1.427 . S
N316 C313 1.384 . S
N317 C309 1.427 . S
N317 C315 1.384 . S
H318 C324 0.930 . S
H319 C328 0.930 . S
H320 C333 0.929 1_554 S
H321 C331 0.929 . S
H322 C326 0.929 . S
H323 C332 0.929 . S
C324 H318 0.930 . S
C324 C325 1.367 1_556 S
C324 C332 1.378 . S
C325 C324 1.367 1_554 S
C325 C333 1.433 1_554 S
C326 H322 0.929 . S
C326 C328 1.378 . S
C326 C330 1.350 . S
C327 C330 1.463 . S
C327 C332 1.350 . S
C327 N335 1.427 . S
C328 H319 0.930 . S
C328 C326 1.378 . S
C328 C329 1.367 . S
C329 C328 1.367 . S
C329 C331 1.433 . S
C330 C326 1.350 . S
C330 C327 1.463 . S
C330 N334 1.427 . S
C331 H321 0.929 . S
C331 C329 1.433 . S
C331 N334 1.384 . S
C332 H323 0.929 . S
C332 C324 1.378 . S
C332 C327 1.350 . S
C333 H320 0.929 1_556 S
C333 C325 1.433 1_556 S
C333 N335 1.384 . S
N334 C330 1.427 . S
N334 C331 1.384 . S
N335 C327 1.427 . S
N335 C333 1.384 . S
H336 C342 0.930 . S
H337 C346 0.930 . S
H338 C351 0.929 . S
H339 C349 0.929 1_556 S
H340 C344 0.929 . S
H341 C350 0.929 . S
C342 H336 0.930 . S
C342 C343 1.367 . S
C342 C350 1.378 . S
C343 C342 1.367 . S
C343 C351 1.433 . S
C344 H340 0.929 . S
C344 C346 1.378 . S
C344 C348 1.350 . S
C345 C348 1.463 . S
C345 C350 1.350 . S
C345 N353 1.427 . S
C346 H337 0.930 . S
C346 C344 1.378 . S
C346 C347 1.367 . S
C347 C346 1.367 . S
C347 C349 1.433 . S
C348 C344 1.350 . S
C348 C345 1.463 . S
C348 N352 1.427 . S
C349 H339 0.929 1_554 S
C349 C347 1.433 . S
C349 N352 1.384 . S
C350 H341 0.929 . S
C350 C342 1.378 . S
C350 C345 1.350 . S
C351 H338 0.929 . S
C351 C343 1.433 . S
C351 N353 1.384 . S
N352 C348 1.427 . S
N352 C349 1.384 . S
N353 C345 1.427 . S
N353 C351 1.384 . S
H354 C360 0.930 . S
H355 C364 0.930 . S
H356 C369 0.929 . S
H357 C367 0.929 . S
H358 C362 0.929 . S
H359 C368 0.929 . S
C360 H354 0.930 . S
C360 C361 1.367 . S
C360 C368 1.378 . S
C361 C360 1.367 . S
C361 C369 1.433 . S
C362 H358 0.929 . S
C362 C364 1.378 . S
C362 C366 1.350 . S
C363 C366 1.463 . S
C363 C368 1.350 . S
C363 N371 1.427 . S
C364 H355 0.930 . S
C364 C362 1.378 . S
C364 C365 1.367 . S
C365 C364 1.367 . S
C365 C367 1.433 . S
C366 C362 1.350 . S
C366 C363 1.463 . S
C366 N370 1.427 . S
C367 H357 0.929 . S
C367 C365 1.433 . S
C367 N370 1.384 . S
C368 H359 0.929 . S
C368 C360 1.378 . S
C368 C363 1.350 . S
C369 H356 0.929 . S
C369 C361 1.433 . S
C369 N371 1.384 . S
N370 C366 1.427 . S
N370 C367 1.384 . S
N371 C363 1.427 . S
N371 C369 1.384 . S
H372 C378 0.930 . S
H373 C382 0.930 1_554 S
H374 C387 0.929 . S
H375 C385 0.929 . S
H376 C380 0.929 . S
H377 C386 0.929 . S
C378 H372 0.930 . S
C378 C379 1.367 . S
C378 C386 1.378 . S
C379 C378 1.367 . S
C379 C387 1.433 . S
C380 H376 0.929 . S
C380 C382 1.378 . S
C380 C384 1.350 . S
C381 C384 1.463 . S
C381 C386 1.350 . S
C381 N389 1.427 . S
C382 H373 0.930 1_556 S
C382 C380 1.378 . S
C382 C383 1.367 1_556 S
C383 C382 1.367 1_554 S
C383 C385 1.433 1_554 S
C384 C380 1.350 . S
C384 C381 1.463 . S
C384 N388 1.427 . S
C385 H375 0.929 . S
C385 C383 1.433 1_556 S
C385 N388 1.384 . S
C386 H377 0.929 . S
C386 C378 1.378 . S
C386 C381 1.350 . S
C387 H374 0.929 . S
C387 C379 1.433 . S
C387 N389 1.384 . S
N388 C384 1.427 . S
N388 C385 1.384 . S
N389 C381 1.427 . S
N389 C387 1.384 . S
H390 C396 0.930 . S
H391 C400 0.930 1_556 S
H392 C405 0.929 . S
H393 C403 0.929 . S
H394 C398 0.929 . S
H395 C404 0.929 . S
C396 H390 0.930 . S
C396 C397 1.367 . S
C396 C404 1.378 . S
C397 C396 1.367 . S
C397 C405 1.433 . S
C398 H394 0.929 . S
C398 C400 1.378 . S
C398 C402 1.350 . S
C399 C402 1.463 . S
C399 C404 1.350 . S
C399 N407 1.427 . S
C400 H391 0.930 1_554 S
C400 C398 1.378 . S
C400 C401 1.367 . S
C401 C400 1.367 . S
C401 C403 1.433 . S
C402 C398 1.350 . S
C402 C399 1.463 . S
C402 N406 1.427 . S
C403 H393 0.929 . S
C403 C401 1.433 . S
C403 N406 1.384 . S
C404 H395 0.929 . S
C404 C396 1.378 . S
C404 C399 1.350 . S
C405 H392 0.929 . S
C405 C397 1.433 . S
C405 N407 1.384 . S
N406 C402 1.427 . S
N406 C403 1.384 . S
N407 C399 1.427 . S
N407 C405 1.384 . S
H408 C414 0.930 . S
H409 C418 0.930 . S
H410 C423 0.929 . S
H411 C421 0.929 . S
H412 C416 0.929 . S
H413 C422 0.929 . S
C414 H408 0.930 . S
C414 C415 1.367 . S
C414 C422 1.378 . S
C415 C414 1.367 . S
C415 C423 1.433 . S
C416 H412 0.929 . S
C416 C418 1.378 . S
C416 C420 1.350 . S
C417 C420 1.463 . S
C417 C422 1.350 . S
C417 N425 1.427 . S
C418 H409 0.930 . S
C418 C416 1.378 . S
C418 C419 1.367 . S
C419 C418 1.367 . S
C419 C421 1.433 . S
C420 C416 1.350 . S
C420 C417 1.463 . S
C420 N424 1.427 . S
C421 H411 0.929 . S
C421 C419 1.433 . S
C421 N424 1.384 . S
C422 H413 0.929 . S
C422 C414 1.378 . S
C422 C417 1.350 . S
C423 H410 0.929 . S
C423 C415 1.433 . S
C423 N425 1.384 . S
N424 C420 1.427 . S
N424 C421 1.384 . S
N425 C417 1.427 . S
N425 C423 1.384 . S
H426 C432 0.930 . S
H427 C436 0.930 . S
H428 C441 0.929 . S
H429 C439 0.929 . S
H430 C434 0.929 . S
H431 C440 0.929 . S
C432 H426 0.930 . S
C432 C433 1.367 . S
C432 C440 1.378 . S
C433 C432 1.367 . S
C433 C441 1.433 . S
C434 H430 0.929 . S
C434 C436 1.378 . S
C434 C438 1.350 . S
C435 C438 1.463 . S
C435 C440 1.350 . S
C435 N443 1.427 . S
C436 H427 0.930 . S
C436 C434 1.378 . S
C436 C437 1.367 . S
C437 C436 1.367 . S
C437 C439 1.433 . S
C438 C434 1.350 . S
C438 C435 1.463 . S
C438 N442 1.427 . S
C439 H429 0.929 . S
C439 C437 1.433 . S
C439 N442 1.384 . S
C440 H431 0.929 . S
C440 C432 1.378 . S
C440 C435 1.350 . S
C441 H428 0.929 . S
C441 C433 1.433 . S
C441 N443 1.384 . S
N442 C438 1.427 . S
N442 C439 1.384 . S
N443 C435 1.427 . S
N443 C441 1.384 . S
H444 C450 0.930 . S
H445 C454 0.930 . S
H446 C459 0.929 1_554 S
H447 C457 0.929 . S
H448 C452 0.929 . S
H449 C458 0.929 . S
C450 H444 0.930 . S
C450 C451 1.367 . S
C450 C458 1.378 . S
C451 C450 1.367 . S
C451 C459 1.433 . S
C452 H448 0.929 . S
C452 C454 1.378 . S
C452 C456 1.350 . S
C453 C456 1.463 . S
C453 C458 1.350 . S
C453 N461 1.427 . S
C454 H445 0.930 . S
C454 C452 1.378 . S
C454 C455 1.367 . S
C455 C454 1.367 . S
C455 C457 1.433 . S
C456 C452 1.350 . S
C456 C453 1.463 . S
C456 N460 1.427 . S
C457 H447 0.929 . S
C457 C455 1.433 . S
C457 N460 1.384 . S
C458 H449 0.929 . S
C458 C450 1.378 . S
C458 C453 1.350 . S
C459 H446 0.929 1_556 S
C459 C451 1.433 . S
C459 N461 1.384 . S
N460 C456 1.427 . S
N460 C457 1.384 . S
N461 C453 1.427 . S
N461 C459 1.384 . S
H462 C468 0.930 . S
H463 C472 0.930 . S
H464 C477 0.929 . S
H465 C475 0.929 . S
H466 C470 0.929 . S
H467 C476 0.929 . S
C468 H462 0.930 . S
C468 C469 1.367 . S
C468 C476 1.378 . S
C469 C468 1.367 . S
C469 C477 1.433 . S
C470 H466 0.929 . S
C470 C472 1.378 . S
C470 C474 1.350 . S
C471 C474 1.463 . S
C471 C476 1.350 . S
C471 N479 1.427 . S
C472 H463 0.930 . S
C472 C470 1.378 . S
C472 C473 1.367 . S
C473 C472 1.367 . S
C473 C475 1.433 . S
C474 C470 1.350 . S
C474 C471 1.463 . S
C474 N478 1.427 . S
C475 H465 0.929 . S
C475 C473 1.433 . S
C475 N478 1.384 . S
C476 H467 0.929 . S
C476 C468 1.378 . S
C476 C471 1.350 . S
C477 H464 0.929 . S
C477 C469 1.433 . S
C477 N479 1.384 . S
N478 C474 1.427 . S
N478 C475 1.384 . S
N479 C471 1.427 . S
N479 C477 1.384 . S
H480 C486 0.930 . S
H481 C490 0.930 . S
H482 C495 0.929 . S
H483 C493 0.929 . S
H484 C488 0.929 . S
H485 C494 0.929 . S
C486 H480 0.930 . S
C486 C487 1.367 . S
C486 C494 1.378 . S
C487 C486 1.367 . S
C487 C495 1.433 . S
C488 H484 0.929 . S
C488 C490 1.378 . S
C488 C492 1.350 . S
C489 C492 1.463 . S
C489 C494 1.350 . S
C489 N497 1.427 . S
C490 H481 0.930 . S
C490 C488 1.378 . S
C490 C491 1.367 . S
C491 C490 1.367 . S
C491 C493 1.433 . S
C492 C488 1.350 . S
C492 C489 1.463 . S
C492 N496 1.427 . S
C493 H483 0.929 . S
C493 C491 1.433 . S
C493 N496 1.384 . S
C494 H485 0.929 . S
C494 C486 1.378 . S
C494 C489 1.350 . S
C495 H482 0.929 . S
C495 C487 1.433 . S
C495 N497 1.384 . S
N496 C492 1.427 . S
N496 C493 1.384 . S
N497 C489 1.427 . S
N497 C495 1.384 . S
H498 C504 0.930 . S
H499 C508 0.930 . S
H500 C513 0.929 . S
H501 C511 0.929 . S
H502 C506 0.929 . S
H503 C512 0.929 . S
C504 H498 0.930 . S
C504 C505 1.367 . S
C504 C512 1.378 . S
C505 C504 1.367 . S
C505 C513 1.433 . S
C506 H502 0.929 . S
C506 C508 1.378 . S
C506 C510 1.350 . S
C507 C510 1.463 . S
C507 C512 1.350 . S
C507 N515 1.427 . S
C508 H499 0.930 . S
C508 C506 1.378 . S
C508 C509 1.367 . S
C509 C508 1.367 . S
C509 C511 1.433 . S
C510 C506 1.350 . S
C510 C507 1.463 . S
C510 N514 1.427 . S
C511 H501 0.929 . S
C511 C509 1.433 . S
C511 N514 1.384 . S
C512 H503 0.929 . S
C512 C504 1.378 . S
C512 C507 1.350 . S
C513 H500 0.929 . S
C513 C505 1.433 . S
C513 N515 1.384 . S
N514 C510 1.427 . S
N514 C511 1.384 . S
N515 C507 1.427 . S
N515 C513 1.384 . S
C199 C166 1.474 . S
C203 C6 1.470 . S
C217 C2 1.468 . S
C221 C34 1.472 . S
C235 C38 1.468 . S
C239 C70 1.473 . S
C253 C66 1.474 . S
C257 C98 1.475 . S
C271 C134 1.468 . S
C275 C102 1.467 . S
C289 C162 1.467 . S
C293 C130 1.468 . S
C307 N13 1.089 . S
C311 N18 1.092 . S
C325 N50 1.095 . S
C329 N45 1.096 . S
C343 N77 1.094 . S
C347 N82 1.096 1_554 S
C361 N114 1.096 . S
C365 N109 1.094 . S
C379 N146 1.091 . S
C383 N141 1.088 . S
C397 N178 1.092 . S
C401 N173 1.089 1_554 S
C415 C4 1.551 . S
C419 C157 1.540 . S
C433 C61 1.543 . S
C437 C164 1.551 . S
C451 C29 1.544 . S
C455 C68 1.542 . S
C469 C36 1.551 . S
C473 C125 1.540 . S
C487 C132 1.546 . S
C491 C93 1.540 . S
C505 C100 1.551 . S
C509 C189 1.541 . S
