# Generated by pormake.
# Topology ukv, (4)-cn, num edge types: 1
# Building blocks:
#     Node 0, Type 0, BuildingBlock: GALJAG_clean_sbu_0, # of connection points: 4
#     Node 1, Type 0, BuildingBlock: GALJAG_clean_sbu_0, # of connection points: 4
#     Node 2, Type 0, BuildingBlock: GALJAG_clean_sbu_0, # of connection points: 4
#     Node 3, Type 0, BuildingBlock: GALJAG_clean_sbu_0, # of connection points: 4
#     Node 4, Type 0, BuildingBlock: GALJAG_clean_sbu_0, # of connection points: 4
#     Node 5, Type 0, BuildingBlock: GALJAG_clean_sbu_0, # of connection points: 4
#     Node 6, Type 0, BuildingBlock: GALJAG_clean_sbu_0, # of connection points: 4
#     Node 7, Type 0, BuildingBlock: GALJAG_clean_sbu_0, # of connection points: 4
#     Node 8, Type 0, BuildingBlock: GALJAG_clean_sbu_0, # of connection points: 4
#     Node 9, Type 0, BuildingBlock: GALJAG_clean_sbu_0, # of connection points: 4
#     Node 10, Type 0, BuildingBlock: GALJAG_clean_sbu_0, # of connection points: 4
#     Node 11, Type 0, BuildingBlock: GALJAG_clean_sbu_0, # of connection points: 4
#     Node 12, Type 0, BuildingBlock: GALJAG_clean_sbu_0, # of connection points: 4
#     Node 13, Type 0, BuildingBlock: GALJAG_clean_sbu_0, # of connection points: 4
#     Node 14, Type 0, BuildingBlock: GALJAG_clean_sbu_0, # of connection points: 4
#     Node 15, Type 0, BuildingBlock: GALJAG_clean_sbu_0, # of connection points: 4
#     Node 16, Type 0, BuildingBlock: GALJAG_clean_sbu_0, # of connection points: 4
#     Node 17, Type 0, BuildingBlock: GALJAG_clean_sbu_0, # of connection points: 4
#     Node 18, Type 0, BuildingBlock: GALJAG_clean_sbu_0, # of connection points: 4
#     Node 19, Type 0, BuildingBlock: GALJAG_clean_sbu_0, # of connection points: 4
#     Node 20, Type 0, BuildingBlock: GALJAG_clean_sbu_0, # of connection points: 4
#     Node 21, Type 0, BuildingBlock: GALJAG_clean_sbu_0, # of connection points: 4
#     Node 22, Type 0, BuildingBlock: GALJAG_clean_sbu_0, # of connection points: 4
#     Node 23, Type 0, BuildingBlock: GALJAG_clean_sbu_0, # of connection points: 4
#     Node 24, Type 0, BuildingBlock: GALJAG_clean_sbu_0, # of connection points: 4
#     Node 25, Type 0, BuildingBlock: GALJAG_clean_sbu_0, # of connection points: 4
#     Node 26, Type 0, BuildingBlock: GALJAG_clean_sbu_0, # of connection points: 4
#     Node 27, Type 0, BuildingBlock: GALJAG_clean_sbu_0, # of connection points: 4
#     Node 28, Type 0, BuildingBlock: GALJAG_clean_sbu_0, # of connection points: 4
#     Node 29, Type 0, BuildingBlock: GALJAG_clean_sbu_0, # of connection points: 4
#     Node 30, Type 0, BuildingBlock: GALJAG_clean_sbu_0, # of connection points: 4
#     Node 31, Type 0, BuildingBlock: GALJAG_clean_sbu_0, # of connection points: 4
#     Node 32, Type 0, BuildingBlock: GALJAG_clean_sbu_0, # of connection points: 4
#     Node 33, Type 0, BuildingBlock: GALJAG_clean_sbu_0, # of connection points: 4
#     Node 34, Type 0, BuildingBlock: GALJAG_clean_sbu_0, # of connection points: 4
#     Node 35, Type 0, BuildingBlock: GALJAG_clean_sbu_0, # of connection points: 4
#     Edge 36, Type (0, 0), BuildingBlock: KIFKEQ_clean_linker_1, # of connection points: 2
#     Edge 37, Type (0, 0), BuildingBlock: KIFKEQ_clean_linker_1, # of connection points: 2
#     Edge 38, Type (0, 0), BuildingBlock: KIFKEQ_clean_linker_1, # of connection points: 2
#     Edge 39, Type (0, 0), BuildingBlock: KIFKEQ_clean_linker_1, # of connection points: 2
#     Edge 40, Type (0, 0), BuildingBlock: KIFKEQ_clean_linker_1, # of connection points: 2
#     Edge 41, Type (0, 0), BuildingBlock: KIFKEQ_clean_linker_1, # of connection points: 2
#     Edge 42, Type (0, 0), BuildingBlock: KIFKEQ_clean_linker_1, # of connection points: 2
#     Edge 43, Type (0, 0), BuildingBlock: KIFKEQ_clean_linker_1, # of connection points: 2
#     Edge 44, Type (0, 0), BuildingBlock: KIFKEQ_clean_linker_1, # of connection points: 2
#     Edge 45, Type (0, 0), BuildingBlock: KIFKEQ_clean_linker_1, # of connection points: 2
#     Edge 46, Type (0, 0), BuildingBlock: KIFKEQ_clean_linker_1, # of connection points: 2
#     Edge 47, Type (0, 0), BuildingBlock: KIFKEQ_clean_linker_1, # of connection points: 2
#     Edge 48, Type (0, 0), BuildingBlock: KIFKEQ_clean_linker_1, # of connection points: 2
#     Edge 49, Type (0, 0), BuildingBlock: KIFKEQ_clean_linker_1, # of connection points: 2
#     Edge 50, Type (0, 0), BuildingBlock: KIFKEQ_clean_linker_1, # of connection points: 2
#     Edge 51, Type (0, 0), BuildingBlock: KIFKEQ_clean_linker_1, # of connection points: 2
#     Edge 52, Type (0, 0), BuildingBlock: KIFKEQ_clean_linker_1, # of connection points: 2
#     Edge 53, Type (0, 0), BuildingBlock: KIFKEQ_clean_linker_1, # of connection points: 2
#     Edge 54, Type (0, 0), BuildingBlock: KIFKEQ_clean_linker_1, # of connection points: 2
#     Edge 55, Type (0, 0), BuildingBlock: KIFKEQ_clean_linker_1, # of connection points: 2
#     Edge 56, Type (0, 0), BuildingBlock: KIFKEQ_clean_linker_1, # of connection points: 2
#     Edge 57, Type (0, 0), BuildingBlock: KIFKEQ_clean_linker_1, # of connection points: 2
#     Edge 58, Type (0, 0), BuildingBlock: KIFKEQ_clean_linker_1, # of connection points: 2
#     Edge 59, Type (0, 0), BuildingBlock: KIFKEQ_clean_linker_1, # of connection points: 2
#     Edge 60, Type (0, 0), BuildingBlock: KIFKEQ_clean_linker_1, # of connection points: 2
#     Edge 61, Type (0, 0), BuildingBlock: KIFKEQ_clean_linker_1, # of connection points: 2
#     Edge 62, Type (0, 0), BuildingBlock: KIFKEQ_clean_linker_1, # of connection points: 2
#     Edge 63, Type (0, 0), BuildingBlock: KIFKEQ_clean_linker_1, # of connection points: 2
#     Edge 64, Type (0, 0), BuildingBlock: KIFKEQ_clean_linker_1, # of connection points: 2
#     Edge 65, Type (0, 0), BuildingBlock: KIFKEQ_clean_linker_1, # of connection points: 2
#     Edge 66, Type (0, 0), BuildingBlock: KIFKEQ_clean_linker_1, # of connection points: 2
#     Edge 67, Type (0, 0), BuildingBlock: KIFKEQ_clean_linker_1, # of connection points: 2
#     Edge 68, Type (0, 0), BuildingBlock: KIFKEQ_clean_linker_1, # of connection points: 2
#     Edge 69, Type (0, 0), BuildingBlock: KIFKEQ_clean_linker_1, # of connection points: 2
#     Edge 70, Type (0, 0), BuildingBlock: KIFKEQ_clean_linker_1, # of connection points: 2
#     Edge 71, Type (0, 0), BuildingBlock: KIFKEQ_clean_linker_1, # of connection points: 2
#     Edge 72, Type (0, 0), BuildingBlock: KIFKEQ_clean_linker_1, # of connection points: 2
#     Edge 73, Type (0, 0), BuildingBlock: KIFKEQ_clean_linker_1, # of connection points: 2
#     Edge 74, Type (0, 0), BuildingBlock: KIFKEQ_clean_linker_1, # of connection points: 2
#     Edge 75, Type (0, 0), BuildingBlock: KIFKEQ_clean_linker_1, # of connection points: 2
#     Edge 76, Type (0, 0), BuildingBlock: KIFKEQ_clean_linker_1, # of connection points: 2
#     Edge 77, Type (0, 0), BuildingBlock: KIFKEQ_clean_linker_1, # of connection points: 2
#     Edge 78, Type (0, 0), BuildingBlock: KIFKEQ_clean_linker_1, # of connection points: 2
#     Edge 79, Type (0, 0), BuildingBlock: KIFKEQ_clean_linker_1, # of connection points: 2
#     Edge 80, Type (0, 0), BuildingBlock: KIFKEQ_clean_linker_1, # of connection points: 2
#     Edge 81, Type (0, 0), BuildingBlock: KIFKEQ_clean_linker_1, # of connection points: 2
#     Edge 82, Type (0, 0), BuildingBlock: KIFKEQ_clean_linker_1, # of connection points: 2
#     Edge 83, Type (0, 0), BuildingBlock: KIFKEQ_clean_linker_1, # of connection points: 2
#     Edge 84, Type (0, 0), BuildingBlock: KIFKEQ_clean_linker_1, # of connection points: 2
#     Edge 85, Type (0, 0), BuildingBlock: KIFKEQ_clean_linker_1, # of connection points: 2
#     Edge 86, Type (0, 0), BuildingBlock: KIFKEQ_clean_linker_1, # of connection points: 2
#     Edge 87, Type (0, 0), BuildingBlock: KIFKEQ_clean_linker_1, # of connection points: 2
#     Edge 88, Type (0, 0), BuildingBlock: KIFKEQ_clean_linker_1, # of connection points: 2
#     Edge 89, Type (0, 0), BuildingBlock: KIFKEQ_clean_linker_1, # of connection points: 2
#     Edge 90, Type (0, 0), BuildingBlock: KIFKEQ_clean_linker_1, # of connection points: 2
#     Edge 91, Type (0, 0), BuildingBlock: KIFKEQ_clean_linker_1, # of connection points: 2
#     Edge 92, Type (0, 0), BuildingBlock: KIFKEQ_clean_linker_1, # of connection points: 2
#     Edge 93, Type (0, 0), BuildingBlock: KIFKEQ_clean_linker_1, # of connection points: 2
#     Edge 94, Type (0, 0), BuildingBlock: KIFKEQ_clean_linker_1, # of connection points: 2
#     Edge 95, Type (0, 0), BuildingBlock: KIFKEQ_clean_linker_1, # of connection points: 2
#     Edge 96, Type (0, 0), BuildingBlock: KIFKEQ_clean_linker_1, # of connection points: 2
#     Edge 97, Type (0, 0), BuildingBlock: KIFKEQ_clean_linker_1, # of connection points: 2
#     Edge 98, Type (0, 0), BuildingBlock: KIFKEQ_clean_linker_1, # of connection points: 2
#     Edge 99, Type (0, 0), BuildingBlock: KIFKEQ_clean_linker_1, # of connection points: 2
#     Edge 100, Type (0, 0), BuildingBlock: KIFKEQ_clean_linker_1, # of connection points: 2
#     Edge 101, Type (0, 0), BuildingBlock: KIFKEQ_clean_linker_1, # of connection points: 2
#     Edge 102, Type (0, 0), BuildingBlock: KIFKEQ_clean_linker_1, # of connection points: 2
#     Edge 103, Type (0, 0), BuildingBlock: KIFKEQ_clean_linker_1, # of connection points: 2
#     Edge 104, Type (0, 0), BuildingBlock: KIFKEQ_clean_linker_1, # of connection points: 2
#     Edge 105, Type (0, 0), BuildingBlock: KIFKEQ_clean_linker_1, # of connection points: 2
#     Edge 106, Type (0, 0), BuildingBlock: KIFKEQ_clean_linker_1, # of connection points: 2
#     Edge 107, Type (0, 0), BuildingBlock: KIFKEQ_clean_linker_1, # of connection points: 2
# Relax obj value: 0.157
# Max RMSD: 0.129
# Mean RMSD: 0.129
data_MOF--net-ukv--node1-GALJAG_clean_sbu_0--edge1-KIFKEQ_clean_linker_1
_symmetry_space_group_name_H-M    P1
_symmetry_Int_Tables_number       1
_symmetry_cell_setting            triclinic
loop_
_symmetry_equiv_pos_as_xyz
'x, y, z'
_cell_length_a     90.853941
_cell_length_b     90.834713
_cell_length_c     24.357748
_cell_angle_alpha  89.953301
_cell_angle_beta   90.03854
_cell_angle_gamma 120.03521
loop_
_atom_site_label
_atom_site_type_symbol
_atom_site_fract_x
_atom_site_fract_y
_atom_site_fract_z
_atom_type_partial_charge
In0 In 0.24873 0.07246 0.06028 0.0
O1 O 0.26048 0.08916 0.1359 0.0
O2 O 0.2348 0.0814 0.11558 0.0
C3 C 0.27683 0.07475 0.01565 0.0
C4 C 0.22994 0.04125 0.10367 0.0
C5 C 0.2427 0.08818 0.97743 0.0
O6 O 0.27727 0.08271 0.05879 0.0
O7 O 0.26214 0.06517 0.99639 0.0
O8 O 0.2352 0.07212 0.9803 0.0
O9 O 0.25274 0.09593 0.01643 0.0
C10 C 0.24712 0.08953 0.14786 0.0
O11 O 0.22335 0.04826 0.0761 0.0
O12 O 0.24594 0.04953 0.10623 0.0
In13 In 0.92401 0.17188 0.05549 0.0
O14 O 0.90826 0.16832 0.13245 0.0
O15 O 0.91494 0.14952 0.1135 0.0
C16 C 0.9169 0.19431 0.00773 0.0
C17 C 0.95595 0.18632 0.09517 0.0
C18 C 0.91003 0.14879 0.97503 0.0
O19 O 0.9113 0.18803 0.05464 0.0
O20 O 0.92675 0.18989 0.98625 0.0
O21 O 0.92575 0.15964 0.97526 0.0
O22 O 0.90183 0.14947 0.0157 0.0
C23 C 0.90742 0.15445 0.14568 0.0
O24 O 0.94834 0.17152 0.07537 0.0
O25 O 0.94792 0.19425 0.09163 0.0
In26 In 0.82358 0.74653 0.07997 0.0
O27 O 0.82255 0.77107 0.09146 0.0
O28 O 0.8051 0.74878 0.13545 0.0
C29 C 0.84325 0.74987 0.9937 0.0
C30 C 0.84351 0.74766 0.16334 0.0
C31 C 0.79586 0.72054 0.03478 0.0
O32 O 0.83999 0.7615 0.00598 0.0
O33 O 0.83705 0.73725 0.02562 0.0
O34 O 0.80306 0.71872 0.07662 0.0
O35 O 0.80231 0.73562 0.01716 0.0
C36 C 0.81054 0.7643 0.12596 0.0
O37 O 0.82957 0.73444 0.1521 0.0
O38 O 0.84739 0.7602 0.13228 0.0
In39 In 0.07358 0.23839 0.45205 0.0
O40 O 0.04812 0.21747 0.41927 0.0
O41 O 0.05683 0.24273 0.39201 0.0
C42 C 0.07586 0.22485 0.54778 0.0
C43 C 0.09295 0.23251 0.38233 0.0
C44 C 0.08364 0.27001 0.48832 0.0
O45 O 0.06308 0.22628 0.53621 0.0
O46 O 0.08699 0.22975 0.51078 0.0
O47 O 0.09116 0.26719 0.44956 0.0
O48 O 0.07086 0.25695 0.50744 0.0
C49 C 0.04568 0.22723 0.38862 0.0
O50 O 0.09752 0.24725 0.40025 0.0
O51 O 0.07877 0.22093 0.3998 0.0
In52 In 0.76112 0.83924 0.45633 0.0
O53 O 0.78151 0.83396 0.4222 0.0
O54 O 0.75645 0.81979 0.39037 0.0
C55 C 0.77637 0.85548 0.55013 0.0
C56 C 0.76313 0.8634 0.38801 0.0
C57 C 0.73053 0.81624 0.49768 0.0
O58 O 0.77407 0.84094 0.53865 0.0
O59 O 0.77176 0.86204 0.51331 0.0
O60 O 0.73215 0.82669 0.46066 0.0
O61 O 0.74425 0.8172 0.51286 0.0
C62 C 0.77159 0.82291 0.38837 0.0
O63 O 0.74973 0.85354 0.41418 0.0
O64 O 0.77561 0.86124 0.39713 0.0
In65 In 0.16249 0.92763 0.46926 0.0
O66 O 0.16155 0.94911 0.42316 0.0
O67 O 0.18509 0.94961 0.42621 0.0
C68 C 0.14637 0.92601 0.56379 0.0
C69 C 0.14231 0.90593 0.39176 0.0
C70 C 0.18289 0.91657 0.51008 0.0
O71 O 0.16071 0.93855 0.55205 0.0
O72 O 0.13994 0.91483 0.5269 0.0
O73 O 0.17139 0.90824 0.47528 0.0
O74 O 0.18428 0.9306 0.52378 0.0
C75 C 0.17683 0.95627 0.40788 0.0
O76 O 0.1577 0.90997 0.39767 0.0
O77 O 0.13694 0.91267 0.42577 0.0
In78 In 0.74686 0.92118 0.93817 0.0
O79 O 0.74212 0.8986 0.88525 0.0
O80 O 0.76777 0.91706 0.90498 0.0
C81 C 0.71621 0.91663 0.9651 0.0
C82 C 0.75808 0.94778 0.86983 0.0
C83 C 0.7539 0.9145 0.0388 0.0
O84 O 0.71789 0.90648 0.93359 0.0
O85 O 0.72998 0.92935 0.9806 0.0
O86 O 0.7627 0.92914 0.01762 0.0
O87 O 0.74223 0.90364 0.00865 0.0
C88 C 0.75777 0.90346 0.88012 0.0
O89 O 0.76387 0.94941 0.91818 0.0
O90 O 0.74655 0.93297 0.85717 0.0
In91 In 0.08028 0.83004 0.94904 0.0
O92 O 0.10332 0.8485 0.89864 0.0
O93 O 0.08485 0.85557 0.91849 0.0
C94 C 0.08601 0.80441 0.97125 0.0
C95 C 0.05344 0.81441 0.88154 0.0
C96 C 0.0855 0.842 0.0519 0.0
O97 O 0.09577 0.81673 0.94054 0.0
O98 O 0.07299 0.80468 0.98805 0.0
O99 O 0.07207 0.83876 0.02624 0.0
O100 O 0.096 0.83962 0.02524 0.0
C101 C 0.09858 0.85939 0.89426 0.0
O102 O 0.05177 0.81739 0.93125 0.0
O103 O 0.06845 0.81903 0.86693 0.0
In104 In 0.16559 0.24236 0.94994 0.0
O105 O 0.17356 0.22345 0.92065 0.0
O106 O 0.18353 0.24716 0.8791 0.0
C107 C 0.14964 0.22878 0.04518 0.0
C108 C 0.13925 0.2344 0.88295 0.0
C109 C 0.1884 0.2735 0.98701 0.0
O110 O 0.16321 0.22898 0.03224 0.0
O111 O 0.14417 0.23502 0.00997 0.0
O112 O 0.17706 0.27124 0.95247 0.0
O113 O 0.18831 0.26015 0.0018 0.0
C114 C 0.18261 0.23287 0.88182 0.0
O115 O 0.14897 0.24948 0.89931 0.0
O116 O 0.14283 0.22351 0.90075 0.0
In117 In 0.92316 0.74023 0.57837 0.0
O118 O 0.90732 0.73021 0.6558 0.0
O119 O 0.91517 0.75564 0.63133 0.0
C120 C 0.91693 0.71071 0.53254 0.0
C121 C 0.95438 0.75545 0.6234 0.0
C122 C 0.90952 0.74895 0.49568 0.0
O123 O 0.90903 0.71133 0.57428 0.0
O124 O 0.92844 0.72497 0.51524 0.0
O125 O 0.92543 0.7549 0.49907 0.0
O126 O 0.90094 0.73921 0.53441 0.0
C127 C 0.90731 0.74386 0.66578 0.0
O128 O 0.95012 0.76302 0.58879 0.0
O129 O 0.94328 0.74019 0.63239 0.0
In130 In 0.25048 0.1759 0.55976 0.0
O131 O 0.26185 0.16963 0.63312 0.0
O132 O 0.23529 0.15395 0.61785 0.0
C133 C 0.27893 0.20064 0.51333 0.0
C134 C 0.23469 0.1915 0.60293 0.0
C135 C 0.243 0.15339 0.47831 0.0
O136 O 0.27916 0.19321 0.55701 0.0
O137 O 0.26431 0.19587 0.49411 0.0
O138 O 0.23616 0.16257 0.48092 0.0
O139 O 0.25303 0.1554 0.51706 0.0
C140 C 0.24786 0.15696 0.64765 0.0
O141 O 0.22681 0.17825 0.57392 0.0
O142 O 0.25041 0.19708 0.60772 0.0
In143 In 0.81861 0.07672 0.55969 0.0
O144 O 0.82756 0.09425 0.63352 0.0
O145 O 0.84107 0.08141 0.61263 0.0
C146 C 0.79602 0.08415 0.51533 0.0
C147 C 0.80076 0.04585 0.60618 0.0
C148 C 0.84123 0.09003 0.47786 0.0
O149 O 0.80401 0.09101 0.55904 0.0
O150 O 0.79896 0.07307 0.49522 0.0
O151 O 0.83092 0.07417 0.48074 0.0
O152 O 0.84019 0.0987 0.51645 0.0
C153 C 0.8396 0.09152 0.64466 0.0
O154 O 0.8116 0.0488 0.56891 0.0
O155 O 0.79845 0.0581 0.61703 0.0
In156 In 0.92344 0.40861 0.39618 0.0
O157 O 0.93197 0.42683 0.46818 0.0
O158 O 0.90568 0.41404 0.44626 0.0
C159 C 0.95279 0.41315 0.35463 0.0
C160 C 0.90946 0.37818 0.44583 0.0
C161 C 0.91597 0.4226 0.31154 0.0
O162 O 0.95229 0.4214 0.39566 0.0
O163 O 0.93845 0.40222 0.33594 0.0
O164 O 0.90855 0.40659 0.3176 0.0
O165 O 0.92663 0.43111 0.34834 0.0
C166 C 0.91723 0.42434 0.47812 0.0
O167 O 0.90236 0.38073 0.40504 0.0
O168 O 0.92366 0.39064 0.45911 0.0
In169 In 0.58475 0.49586 0.36262 0.0
O170 O 0.61263 0.50955 0.38936 0.0
O171 O 0.59483 0.51187 0.4398 0.0
C172 C 0.5866 0.48152 0.2684 0.0
C173 C 0.56815 0.46794 0.42502 0.0
C174 C 0.57173 0.5149 0.32441 0.0
O175 O 0.59847 0.4959 0.28356 0.0
O176 O 0.57422 0.47447 0.30102 0.0
O177 O 0.56471 0.50416 0.36243 0.0
O178 O 0.58536 0.51622 0.30673 0.0
C179 C 0.60999 0.51542 0.43287 0.0
O180 O 0.56113 0.47602 0.4072 0.0
O181 O 0.58348 0.47391 0.41082 0.0
In182 In 0.49916 0.09456 0.35754 0.0
O183 O 0.49966 0.11703 0.40162 0.0
O184 O 0.47606 0.09406 0.39628 0.0
C185 C 0.51411 0.11039 0.26291 0.0
C186 C 0.5178 0.09262 0.43969 0.0
C187 C 0.48236 0.06267 0.31695 0.0
O188 O 0.49826 0.10324 0.27 0.0
O189 O 0.52234 0.11055 0.30469 0.0
O190 O 0.49754 0.06955 0.33359 0.0
O191 O 0.47553 0.07176 0.32181 0.0
C192 C 0.48418 0.10899 0.4147 0.0
O193 O 0.50203 0.08239 0.43519 0.0
O194 O 0.5242 0.10363 0.40217 0.0
In195 In 0.7343 0.58978 0.7575 0.0
O196 O 0.70675 0.56829 0.74583 0.0
O197 O 0.71635 0.59041 0.69544 0.0
C198 C 0.74835 0.58186 0.84079 0.0
C199 C 0.75068 0.58471 0.67488 0.0
C200 C 0.738 0.61838 0.80276 0.0
O201 O 0.73234 0.57439 0.8348 0.0
O202 O 0.75681 0.59281 0.80466 0.0
O203 O 0.74653 0.61856 0.7615 0.0
O204 O 0.72722 0.60374 0.81983 0.0
C205 C 0.70411 0.57582 0.70649 0.0
O206 O 0.75292 0.59928 0.68632 0.0
O207 O 0.74027 0.57278 0.70544 0.0
In208 In 0.40944 0.15477 0.74961 0.0
O209 O 0.43467 0.15545 0.73522 0.0
O210 O 0.41214 0.13512 0.7005 0.0
C211 C 0.41388 0.17475 0.83618 0.0
C212 C 0.41164 0.17496 0.66536 0.0
C213 C 0.38185 0.12797 0.79251 0.0
O214 O 0.42415 0.16949 0.82628 0.0
O215 O 0.40192 0.17019 0.80212 0.0
O216 O 0.38116 0.13562 0.74997 0.0
O217 O 0.39662 0.1334 0.81181 0.0
C218 C 0.42807 0.14232 0.70534 0.0
O219 O 0.39841 0.16078 0.67407 0.0
O220 O 0.4235 0.17888 0.69931 0.0
In221 In 0.83206 0.25084 0.76451 0.0
O222 O 0.81522 0.22848 0.70901 0.0
O223 O 0.81015 0.24899 0.71498 0.0
C224 C 0.85459 0.24233 0.8037 0.0
C225 C 0.85049 0.2782 0.70081 0.0
C226 C 0.81402 0.24637 0.85652 0.0
O227 O 0.84373 0.23355 0.76752 0.0
O228 O 0.85423 0.25541 0.81872 0.0
O229 O 0.82675 0.26063 0.84474 0.0
O230 O 0.81044 0.23477 0.82188 0.0
C231 C 0.80614 0.23474 0.69409 0.0
O232 O 0.84351 0.27907 0.74465 0.0
O233 O 0.84858 0.26374 0.69044 0.0
In234 In 0.41453 0.26049 0.25094 0.0
O235 O 0.40362 0.24633 0.17077 0.0
O236 O 0.42763 0.25009 0.19721 0.0
C237 C 0.38554 0.25596 0.29548 0.0
C238 C 0.43232 0.2924 0.21143 0.0
C239 C 0.42093 0.24509 0.33408 0.0
O240 O 0.38575 0.24826 0.25253 0.0
O241 O 0.4 0.26633 0.31477 0.0
O242 O 0.42787 0.26114 0.33178 0.0
O243 O 0.41143 0.23724 0.29405 0.0
C244 C 0.41603 0.24407 0.16145 0.0
O245 O 0.43951 0.28544 0.23608 0.0
O246 O 0.41636 0.28358 0.20943 0.0
In247 In 0.73508 0.16468 0.27077 0.0
O248 O 0.70827 0.15725 0.24193 0.0
O249 O 0.7196 0.1434 0.21064 0.0
C250 C 0.73869 0.18283 0.36226 0.0
C251 C 0.75358 0.18845 0.19565 0.0
C252 C 0.74417 0.14308 0.31357 0.0
O253 O 0.72541 0.16875 0.35323 0.0
O254 O 0.74955 0.18792 0.32436 0.0
O255 O 0.75207 0.15278 0.27375 0.0
O256 O 0.73163 0.14412 0.33071 0.0
C257 C 0.70702 0.14568 0.21017 0.0
O258 O 0.75895 0.17958 0.21899 0.0
O259 O 0.73898 0.18532 0.21046 0.0
In260 In 0.83 0.57805 0.26061 0.0
O261 O 0.82585 0.59142 0.18801 0.0
O262 O 0.80803 0.56517 0.20102 0.0
C263 C 0.85571 0.60554 0.3084 0.0
C264 C 0.84325 0.56012 0.21646 0.0
C265 C 0.80786 0.57127 0.34287 0.0
O266 O 0.84879 0.60649 0.26445 0.0
O267 O 0.84995 0.59068 0.32711 0.0
O268 O 0.81655 0.56392 0.33976 0.0
O269 O 0.81011 0.58138 0.30414 0.0
C270 C 0.81244 0.57828 0.17227 0.0
O271 O 0.82879 0.55291 0.23898 0.0
O272 O 0.85116 0.57611 0.2188 0.0
In273 In 0.58395 0.0795 0.87771 0.0
O274 O 0.56321 0.0739 0.94052 0.0
O275 O 0.58177 0.09979 0.92479 0.0
C276 C 0.574 0.04783 0.84245 0.0
C277 C 0.61375 0.09109 0.93034 0.0
C278 C 0.57547 0.08987 0.78613 0.0
O279 O 0.56771 0.05062 0.88478 0.0
O280 O 0.58572 0.06095 0.81966 0.0
O281 O 0.59041 0.09252 0.79325 0.0
O282 O 0.56534 0.08243 0.82518 0.0
C283 C 0.56858 0.08944 0.95072 0.0
O284 O 0.61182 0.09931 0.89186 0.0
O285 O 0.60094 0.07675 0.94014 0.0
In286 In 0.90963 0.50266 0.89044 0.0
O287 O 0.92372 0.49904 0.96211 0.0
O288 O 0.89747 0.48092 0.95107 0.0
C289 C 0.93673 0.52787 0.8389 0.0
C290 C 0.89144 0.51547 0.93579 0.0
C291 C 0.90189 0.47986 0.80976 0.0
O292 O 0.93803 0.52155 0.88371 0.0
O293 O 0.92171 0.52188 0.8214 0.0
O294 O 0.89498 0.48897 0.81241 0.0
O295 O 0.91207 0.48205 0.84819 0.0
C296 C 0.9108 0.48559 0.97886 0.0
O297 O 0.88442 0.50112 0.91264 0.0
O298 O 0.90744 0.5236 0.93331 0.0
In299 In 0.50599 0.41076 0.8605 0.0
O300 O 0.49639 0.38372 0.89192 0.0
O301 O 0.48707 0.3984 0.93029 0.0
C302 C 0.52 0.40915 0.76512 0.0
C303 C 0.53322 0.42925 0.92446 0.0
C304 C 0.48672 0.4236 0.82317 0.0
O305 O 0.50521 0.39781 0.77896 0.0
O306 O 0.52767 0.42082 0.79988 0.0
O307 O 0.49693 0.43016 0.8628 0.0
O308 O 0.48597 0.41041 0.8034 0.0
C309 C 0.48732 0.38467 0.92941 0.0
O310 O 0.5246 0.43532 0.904 0.0
O311 O 0.52818 0.41396 0.91201 0.0
In312 In 0.58873 0.74404 0.73822 0.0
O313 O 0.59815 0.76066 0.81457 0.0
O314 O 0.57194 0.74945 0.79376 0.0
C315 C 0.61912 0.75237 0.69453 0.0
C316 C 0.57418 0.71211 0.77809 0.0
C317 C 0.5796 0.75747 0.65589 0.0
O318 O 0.61768 0.75832 0.73981 0.0
O319 O 0.60523 0.74169 0.67255 0.0
O320 O 0.57462 0.74172 0.65766 0.0
O321 O 0.5886 0.76598 0.69599 0.0
C322 C 0.58375 0.75874 0.82646 0.0
O323 O 0.56608 0.71714 0.74881 0.0
O324 O 0.58971 0.72285 0.78438 0.0
In325 In 0.25851 0.84408 0.71871 0.0
O326 O 0.23651 0.82928 0.77713 0.0
O327 O 0.25599 0.82272 0.77395 0.0
C328 C 0.24592 0.86347 0.68065 0.0
C329 C 0.28768 0.8642 0.77342 0.0
C330 C 0.2541 0.82543 0.62795 0.0
O331 O 0.24028 0.85452 0.72342 0.0
O332 O 0.25808 0.86292 0.65791 0.0
O333 O 0.26677 0.84017 0.63363 0.0
O334 O 0.24413 0.82007 0.66838 0.0
C335 C 0.24213 0.81996 0.79503 0.0
O336 O 0.28684 0.8543 0.73567 0.0
O337 O 0.27409 0.86437 0.78172 0.0
In338 In 0.16501 0.41307 0.72184 0.0
O339 O 0.17291 0.40368 0.79652 0.0
O340 O 0.18761 0.42997 0.7756 0.0
C341 C 0.14224 0.38306 0.67758 0.0
C342 C 0.14775 0.4269 0.76705 0.0
C343 C 0.18752 0.42252 0.63976 0.0
O344 O 0.15009 0.38416 0.7216 0.0
O345 O 0.14551 0.39712 0.6568 0.0
O346 O 0.17692 0.42769 0.64214 0.0
O347 O 0.18675 0.41304 0.67879 0.0
C348 C 0.18542 0.41815 0.80782 0.0
O349 O 0.16002 0.43523 0.73453 0.0
O350 O 0.14379 0.4116 0.77363 0.0
In351 In 0.40876 0.91311 0.11338 0.0
O352 O 0.38061 0.89893 0.09012 0.0
O353 O 0.39789 0.91889 0.03783 0.0
C354 C 0.40746 0.89759 0.20921 0.0
C355 C 0.42356 0.90107 0.04589 0.0
C356 C 0.42376 0.94583 0.14675 0.0
O357 O 0.3967 0.90199 0.19732 0.0
O358 O 0.41839 0.90066 0.17262 0.0
O359 O 0.4315 0.94016 0.11864 0.0
O360 O 0.40846 0.93511 0.15695 0.0
C361 C 0.38278 0.90735 0.04657 0.0
O362 O 0.43111 0.91632 0.06241 0.0
O363 O 0.40859 0.89192 0.06372 0.0
In364 In 0.08666 0.49403 0.08384 0.0
O365 O 0.10994 0.4919 0.05847 0.0
O366 O 0.08532 0.4728 0.03288 0.0
C367 C 0.0962 0.51572 0.16882 0.0
C368 C 0.08603 0.51255 -0.00082 0.0
C369 C 0.05858 0.46975 0.1337 0.0
O370 O 0.10152 0.50529 0.16402 0.0
O371 O 0.08699 0.51556 0.1299 0.0
O372 O 0.05797 0.47778 0.0922 0.0
O373 O 0.07338 0.47371 0.14922 0.0
C374 C 0.10109 0.47848 0.03101 0.0
O375 O 0.07301 0.49908 0.01505 0.0
O376 O 0.09943 0.51676 0.02629 0.0
In377 In 0.49846 0.59023 0.11636 0.0
O378 O 0.5078 0.61748 0.08741 0.0
O379 O 0.5192 0.60422 0.05248 0.0
C380 C 0.48326 0.59036 0.21103 0.0
C381 C 0.47218 0.572 0.0485 0.0
C382 C 0.51694 0.57666 0.1545 0.0
O383 O 0.49833 0.60169 0.20005 0.0
O384 O 0.47585 0.57958 0.17356 0.0
O385 O 0.50793 0.5712 0.11173 0.0
O386 O 0.51698 0.58918 0.17688 0.0
C387 C 0.51823 0.61757 0.05305 0.0
O388 O 0.48069 0.56595 0.07004 0.0
O389 O 0.47691 0.58718 0.0615 0.0
In390 In 0.07029 0.58484 0.57606 0.0
O391 O 0.09063 0.613 0.568 0.0
O392 O 0.0729 0.60117 0.50284 0.0
C393 C 0.07686 0.57413 0.67048 0.0
C394 C 0.07597 0.56571 0.50441 0.0
C395 C 0.04092 0.58219 0.61035 0.0
O396 O 0.08769 0.58814 0.64916 0.0
O397 O 0.06328 0.56573 0.6437 0.0
O398 O 0.04146 0.57241 0.57447 0.0
O399 O 0.05527 0.59387 0.6266 0.0
C400 C 0.08576 0.61438 0.52054 0.0
O401 O 0.06176 0.56501 0.50828 0.0
O402 O 0.08713 0.5757 0.53775 0.0
In403 In 0.41523 0.50083 0.61551 0.0
O404 O 0.43879 0.51912 0.56662 0.0
O405 O 0.41714 0.52238 0.56337 0.0
C406 C 0.42839 0.48204 0.65431 0.0
C407 C 0.38857 0.48106 0.55008 0.0
C408 C 0.41503 0.51631 0.70928 0.0
O409 O 0.43471 0.49189 0.61367 0.0
O410 O 0.41531 0.48144 0.67441 0.0
O411 O 0.40312 0.50157 0.69733 0.0
O412 O 0.42658 0.52312 0.6737 0.0
C413 C 0.43218 0.52747 0.54777 0.0
O414 O 0.38783 0.49046 0.58683 0.0
O415 O 0.40241 0.48103 0.54833 0.0
In416 In 0.4892 0.90297 0.61615 0.0
O417 O 0.47263 0.9109 0.56958 0.0
O418 O 0.46673 0.88506 0.56333 0.0
C419 C 0.51098 0.93404 0.6575 0.0
C420 C 0.50709 0.89424 0.54863 0.0
C421 C 0.47219 0.88746 0.70844 0.0
O422 O 0.50098 0.93193 0.61844 0.0
O423 O 0.51024 0.9206 0.6746 0.0
O424 O 0.48616 0.88841 0.69634 0.0
O425 O 0.46676 0.8938 0.67346 0.0
C426 C 0.46313 0.89629 0.54933 0.0
O427 O 0.49967 0.88567 0.5909 0.0
O428 O 0.50587 0.90733 0.54163 0.0
In429 In 0.26662 0.41678 0.21938 0.0
O430 O 0.29324 0.43941 0.23473 0.0
O431 O 0.28802 0.41501 0.26128 0.0
C432 C 0.25436 0.42763 0.13844 0.0
C433 C 0.25116 0.4201 0.30839 0.0
C434 C 0.25657 0.38622 0.17394 0.0
O435 O 0.26962 0.43082 0.13814 0.0
O436 O 0.24584 0.41959 0.17991 0.0
O437 O 0.25156 0.38789 0.22066 0.0
O438 O 0.26721 0.39996 0.15109 0.0
C439 C 0.29846 0.43074 0.25984 0.0
O440 O 0.24979 0.40606 0.29459 0.0
O441 O 0.26039 0.43246 0.27736 0.0
In442 In 0.58251 0.84194 0.23607 0.0
O443 O 0.55991 0.84631 0.24804 0.0
O444 O 0.58249 0.86113 0.29442 0.0
C445 C 0.57395 0.81837 0.15759 0.0
C446 C 0.58063 0.82277 0.32236 0.0
C447 C 0.61003 0.86628 0.18365 0.0
O448 O 0.56672 0.82719 0.16094 0.0
O449 O 0.58488 0.82127 0.19423 0.0
O450 O 0.61107 0.8598 0.22838 0.0
O451 O 0.59508 0.86098 0.1667 0.0
C452 C 0.56739 0.85742 0.28494 0.0
O453 O 0.59448 0.8355 0.30708 0.0
O454 O 0.56778 0.81972 0.29386 0.0
In455 In 0.16637 0.74611 0.22081 0.0
O456 O 0.15738 0.71801 0.2371 0.0
O457 O 0.14799 0.73063 0.28774 0.0
C458 C 0.18777 0.75618 0.1352 0.0
C459 C 0.18958 0.76375 0.29804 0.0
C460 C 0.14251 0.75126 0.17381 0.0
O461 O 0.17768 0.74053 0.14446 0.0
O462 O 0.18716 0.76621 0.16962 0.0
O463 O 0.15029 0.75897 0.21695 0.0
O464 O 0.1464 0.74065 0.15571 0.0
C465 C 0.14825 0.71715 0.2776 0.0
O466 O 0.17932 0.76824 0.28024 0.0
O467 O 0.18802 0.75033 0.277 0.0
H468 H 0.15923 0.96367 0.33302 0.0
H469 H 0.21011 0.97842 0.38597 0.0
H470 H 0.17069 0.98245 0.25382 0.0
H471 H 0.22172 0.99799 0.30888 0.0
H472 H 0.23922 0.01902 0.1422 0.0
H473 H 0.22537 0.99799 0.21448 0.0
H474 H 0.18515 0.01031 0.22138 0.0
H475 H 0.19857 0.03054 0.14667 0.0
C476 C 0.1729 0.97129 0.32839 0.0
C477 C 0.18381 0.96962 0.36548 0.0
C478 C 0.17949 0.98206 0.28294 0.0
C479 C 0.19717 0.9916 0.27421 0.0
C480 C 0.20804 0.99046 0.31307 0.0
C481 C 0.20143 0.97944 0.35781 0.0
C482 C 0.22719 0.01687 0.15834 0.0
C483 C 0.21995 0.02635 0.13897 0.0
C484 C 0.21936 0.00502 0.20039 0.0
C485 C 0.20433 0.00271 0.225 0.0
C486 C 0.19664 0.01162 0.20343 0.0
C487 C 0.20431 0.02322 0.16047 0.0
H488 H 0.96521 0.16723 0.15513 0.0
H489 H 0.98038 0.21917 0.11514 0.0
H490 H 0.98659 0.17689 0.22649 0.0
H491 H 0.00301 0.22916 0.18335 0.0
H492 H 0.02875 0.24266 0.34907 0.0
H493 H 0.00792 0.23278 0.27509 0.0
H494 H 0.01371 0.18856 0.25471 0.0
H495 H 0.03322 0.19782 0.33189 0.0
C496 C 0.97361 0.18078 0.16039 0.0
C497 C 0.9712 0.19247 0.12971 0.0
C498 C 0.98597 0.1864 0.2014 0.0
C499 C 0.99661 0.2039 0.21164 0.0
C500 C 0.99479 0.21559 0.17826 0.0
C501 C 0.98202 0.20992 0.13841 0.0
C502 C 0.02526 0.23069 0.32911 0.0
C503 C 0.03231 0.22085 0.34649 0.0
C504 C 0.01352 0.22511 0.28602 0.0
C505 C 0.00905 0.20984 0.25804 0.0
C506 C 0.01636 0.20013 0.27563 0.0
C507 C 0.02762 0.20544 0.3199 0.0
H508 H 0.75202 0.7986 0.31414 0.0
H509 H 0.80395 0.8293 0.36939 0.0
H510 H 0.76119 0.78563 0.24468 0.0
H511 H 0.81312 0.81611 0.3 0.0
H512 H 0.82485 0.79885 0.13652 0.0
H513 H 0.81534 0.81395 0.19745 0.0
H514 H 0.77236 0.76595 0.24691 0.0
H515 H 0.7817 0.75101 0.18627 0.0
C516 C 0.7654 0.80253 0.31156 0.0
C517 C 0.77726 0.81485 0.34745 0.0
C518 C 0.77064 0.7951 0.27177 0.0
C519 C 0.78786 0.79986 0.26694 0.0
C520 C 0.79978 0.81235 0.3024 0.0
C521 C 0.79452 0.81976 0.34244 0.0
C522 C 0.81324 0.79161 0.1598 0.0
C523 C 0.80402 0.77378 0.15681 0.0
C524 C 0.80789 0.80021 0.19496 0.0
C525 C 0.79316 0.7911 0.22705 0.0
C526 C 0.78367 0.77333 0.22235 0.0
C527 C 0.78906 0.76477 0.18775 0.0
H528 H 0.77743 0.98187 0.89024 0.0
H529 H 0.75307 0.94544 0.75948 0.0
H530 H 0.78729 0.00509 0.82345 0.0
H531 H 0.76309 0.96862 0.69291 0.0
H532 H 0.80264 0.01686 0.59198 0.0
H533 H 0.79228 0.99264 0.65527 0.0
H534 H 0.77164 0.016 0.76088 0.0
H535 H 0.78169 0.03993 0.69788 0.0
C536 C 0.77425 0.97884 0.8473 0.0
C537 C 0.76442 0.9619 0.83005 0.0
C538 C 0.77983 0.99209 0.80919 0.0
C539 C 0.77589 0.98858 0.75316 0.0
C540 C 0.76636 0.97163 0.73582 0.0
C541 C 0.76056 0.95841 0.77397 0.0
C542 C 0.79568 0.01666 0.6283 0.0
C543 C 0.79298 0.03027 0.63998 0.0
C544 C 0.78979 0.00286 0.66447 0.0
C545 C 0.78137 0.00262 0.71317 0.0
C546 C 0.77832 0.01602 0.72402 0.0
C547 C 0.78396 0.02963 0.68765 0.0
H548 H 0.01946 0.79692 0.90486 0.0
H549 H 0.05522 0.81381 0.77031 0.0
H550 H 0.99593 0.78286 0.83946 0.0
H551 H 0.03172 0.79996 0.70515 0.0
H552 H 0.9813 0.78787 0.61146 0.0
H553 H 0.00571 0.80275 0.67349 0.0
H554 H 0.98674 0.75747 0.77279 0.0
H555 H 0.96263 0.74258 0.71098 0.0
C556 C 0.02226 0.79769 0.86139 0.0
C557 C 0.03912 0.80634 0.84263 0.0
C558 C 0.00885 0.78963 0.82407 0.0
C559 C 0.01208 0.79033 0.76739 0.0
C560 C 0.02892 0.79932 0.7486 0.0
C561 C 0.04233 0.80714 0.78592 0.0
C562 C 0.98251 0.78107 0.64612 0.0
C563 C 0.97009 0.76409 0.65638 0.0
C564 C 0.99641 0.78957 0.68156 0.0
C565 C 0.99792 0.78127 0.72816 0.0
C566 C 0.98572 0.76421 0.73758 0.0
C567 C 0.97201 0.75567 0.70188 0.0
H568 H 0.24948 0.22217 0.65371 0.0
H569 H 0.20081 0.17703 0.62634 0.0
H570 H 0.23648 0.23241 0.71943 0.0
H571 H 0.18772 0.18737 0.69229 0.0
H572 H 0.17845 0.20114 0.86824 0.0
H573 H 0.19016 0.19163 0.79498 0.0
H574 H 0.21561 0.24233 0.72663 0.0
H575 H 0.20405 0.25185 0.79984 0.0
C576 C 0.23592 0.21459 0.66103 0.0
C577 C 0.22615 0.1988 0.63507 0.0
C578 C 0.22848 0.22047 0.69861 0.0
C579 C 0.21113 0.2106 0.71133 0.0
C580 C 0.20118 0.19511 0.68372 0.0
C581 C 0.20862 0.18929 0.64561 0.0
C582 C 0.18663 0.21025 0.83774 0.0
C583 C 0.19043 0.22724 0.83988 0.0
C584 C 0.19316 0.20477 0.79551 0.0
C585 C 0.20369 0.21623 0.75495 0.0
C586 C 0.20759 0.23325 0.75749 0.0
C587 C 0.20099 0.23869 0.79942 0.0
H588 H 0.86201 0.31178 0.72112 0.0
H589 H 0.85883 0.27707 0.59429 0.0
H590 H 0.8764 0.33555 0.65682 0.0
H591 H 0.87295 0.30082 0.52993 0.0
H592 H 0.88032 0.34799 0.4239 0.0
H593 H 0.86596 0.32325 0.4851 0.0
H594 H 0.9056 0.34899 0.60567 0.0
H595 H 0.92002 0.37342 0.54486 0.0
C596 C 0.86439 0.30925 0.67958 0.0
C597 C 0.85942 0.29264 0.66275 0.0
C598 C 0.87261 0.32282 0.6429 0.0
C599 C 0.87572 0.31994 0.58854 0.0
C600 C 0.87058 0.30331 0.57153 0.0
C601 C 0.86264 0.28979 0.60846 0.0
C602 C 0.88602 0.34824 0.46321 0.0
C603 C 0.90127 0.3626 0.4796 0.0
C604 C 0.87784 0.33413 0.4981 0.0
C605 C 0.88465 0.33436 0.55015 0.0
C606 C 0.90001 0.3486 0.56601 0.0
C607 C 0.9083 0.36252 0.53096 0.0
H608 H 0.64432 0.53048 0.4196 0.0
H609 H 0.60561 0.52133 0.53949 0.0
H610 H 0.6663 0.54548 0.48917 0.0
H611 H 0.62762 0.53607 0.60922 0.0
H612 H 0.67487 0.54514 0.72145 0.0
H613 H 0.65125 0.53069 0.65616 0.0
H614 H 0.6759 0.57353 0.54602 0.0
H615 H 0.6992 0.58804 0.61094 0.0
C616 C 0.64053 0.5317 0.46075 0.0
C617 C 0.62331 0.52486 0.47414 0.0
C618 C 0.65307 0.54028 0.50043 0.0
C619 C 0.64857 0.54188 0.55437 0.0
C620 C 0.63136 0.53491 0.56794 0.0
C621 C 0.61883 0.5266 0.52799 0.0
C622 C 0.67507 0.55154 0.68368 0.0
C623 C 0.68887 0.56768 0.67123 0.0
C624 C 0.6616 0.5433 0.64646 0.0
C625 C 0.66193 0.55099 0.59601 0.0
C626 C 0.67548 0.56729 0.5844 0.0
C627 C 0.68874 0.5756 0.62178 0.0
H628 H 0.41832 0.11083 0.66585 0.0
H629 H 0.46009 0.16252 0.66605 0.0
H630 H 0.43275 0.10328 0.59679 0.0
H631 H 0.47414 0.1554 0.59428 0.0
H632 H 0.50087 0.13386 0.49069 0.0
H633 H 0.48845 0.14155 0.5661 0.0
H634 H 0.43816 0.10675 0.50349 0.0
H635 H 0.45069 0.09837 0.43038 0.0
C636 C 0.4307 0.12053 0.65131 0.0
C637 C 0.43813 0.13722 0.67121 0.0
C638 C 0.43887 0.11631 0.61107 0.0
C639 C 0.45447 0.1288 0.58869 0.0
C640 C 0.46223 0.14537 0.61058 0.0
C641 C 0.4542 0.14949 0.65183 0.0
C642 C 0.48716 0.12803 0.49285 0.0
C643 C 0.47672 0.11552 0.45483 0.0
C644 C 0.48001 0.13243 0.53611 0.0
C645 C 0.46224 0.12463 0.54166 0.0
C646 C 0.45187 0.11266 0.50182 0.0
C647 C 0.45902 0.10801 0.45933 0.0
H648 H 0.41938 0.3108 0.16608 0.0
H649 H 0.46606 0.30961 0.1843 0.0
H650 H 0.43312 0.3339 0.10008 0.0
H651 H 0.47995 0.33297 0.11837 0.0
H652 H 0.48901 0.35572 0.94308 0.0
H653 H 0.47681 0.33505 0.01763 0.0
H654 H 0.45532 0.36375 0.08814 0.0
H655 H 0.46733 0.38429 0.01331 0.0
C656 C 0.4327 0.31574 0.15682 0.0
C657 C 0.44164 0.30837 0.18008 0.0
C658 C 0.44058 0.329 0.11907 0.0
C659 C 0.45755 0.33511 0.10357 0.0
C660 C 0.46676 0.32831 0.12893 0.0
C661 C 0.45889 0.31509 0.16708 0.0
C662 C 0.48158 0.35753 0.97431 0.0
C663 C 0.47902 0.37154 0.97223 0.0
C664 C 0.47477 0.34582 0.01733 0.0
C665 C 0.46523 0.34786 0.05897 0.0
C666 C 0.46255 0.3618 0.05651 0.0
C667 C 0.4694 0.37353 0.01363 0.0
H668 H 0.6828 0.15365 0.18158 0.0
H669 H 0.69945 0.11745 0.15046 0.0
H670 H 0.66097 0.14014 0.11064 0.0
H671 H 0.67756 0.1039 0.07987 0.0
H672 H 0.62242 0.07462 0.00586 0.0
H673 H 0.64509 0.08741 0.0743 0.0
H674 H 0.66138 0.13709 0.00579 0.0
H675 H 0.63878 0.1243 0.93702 0.0
C676 C 0.68165 0.1427 0.16004 0.0
C677 C 0.69278 0.13658 0.17149 0.0
C678 C 0.6693 0.13509 0.11914 0.0
C679 C 0.66772 0.12109 0.08954 0.0
C680 C 0.67851 0.11466 0.10217 0.0
C681 C 0.69101 0.12241 0.14252 0.0
C682 C 0.63102 0.08824 0.00488 0.0
C683 C 0.62886 0.09848 0.96619 0.0
C684 C 0.64397 0.09554 0.04401 0.0
C685 C 0.65482 0.11324 0.04561 0.0
C686 C 0.65301 0.12342 0.00583 0.0
C687 C 0.64021 0.1161 0.9662 0.0
H688 H 0.87606 0.56954 0.19552 0.0
H689 H 0.82451 0.53081 0.15891 0.0
H690 H 0.88658 0.55773 0.12667 0.0
H691 H 0.83486 0.51948 0.08727 0.0
H692 H 0.86156 0.49599 0.98963 0.0
H693 H 0.84939 0.50529 0.06168 0.0
H694 H 0.88822 0.5575 0.03155 0.0
H695 H 0.90084 0.54799 0.96221 0.0
C696 C 0.867 0.55837 0.17292 0.0
C697 C 0.84952 0.55106 0.18238 0.0
C698 C 0.87298 0.55174 0.13279 0.0
C699 C 0.86157 0.53791 0.10012 0.0
C700 C 0.84405 0.53009 0.11161 0.0
C701 C 0.8381 0.53653 0.15274 0.0
C702 C 0.86726 0.50947 -0.00205 0.0
C703 C 0.88215 0.52129 0.97069 0.0
C704 C 0.86033 0.51482 0.03933 0.0
C705 C 0.86802 0.53214 0.05347 0.0
C706 C 0.88229 0.54401 0.02333 0.0
C707 C 0.8894 0.53862 0.98294 0.0
H708 H 0.58939 0.69771 0.83603 0.0
H709 H 0.54016 0.6908 0.79338 0.0
H710 H 0.57597 0.67427 0.90139 0.0
H711 H 0.52673 0.66729 0.85882 0.0
H712 H 0.51388 0.64474 0.03395 0.0
H713 H 0.52713 0.66624 0.96215 0.0
H714 H 0.55594 0.64285 0.90853 0.0
H715 H 0.54271 0.62134 0.98041 0.0
C716 C 0.57567 0.69096 0.83985 0.0
C717 C 0.56582 0.69611 0.80977 0.0
C718 C 0.56799 0.67754 0.87726 0.0
C719 C 0.55034 0.66911 0.88568 0.0
C720 C 0.5404 0.67375 0.85374 0.0
C721 C 0.54806 0.68708 0.8159 0.0
C722 C 0.52314 0.64428 0.00713 0.0
C723 C 0.5273 0.6314 0.01285 0.0
C724 C 0.53058 0.65646 0.96567 0.0
C725 C 0.54243 0.6561 0.92942 0.0
C726 C 0.54687 0.64345 0.93595 0.0
C727 C 0.53932 0.63116 0.9771 0.0
H728 H 0.34863 0.88693 0.062 0.0
H729 H 0.38602 0.91818 0.94073 0.0
H730 H 0.32613 0.87851 0.99342 0.0
H731 H 0.36352 0.90956 0.8721 0.0
H732 H 0.31935 0.86811 0.76037 0.0
H733 H 0.34287 0.88047 0.82625 0.0
H734 H 0.31294 0.89275 0.93446 0.0
H735 H 0.28955 0.88063 0.86864 0.0
C736 C 0.352 0.8921 0.02086 0.0
C737 C 0.36904 0.9032 0.00666 0.0
C738 C 0.33915 0.88733 0.98174 0.0
C739 C 0.34315 0.89339 0.92756 0.0
C740 C 0.36015 0.90466 0.91353 0.0
C741 C 0.37297 0.90964 0.95287 0.0
C742 C 0.31792 0.8737 0.79782 0.0
C743 C 0.30263 0.87337 0.80946 0.0
C744 C 0.33136 0.88079 0.83539 0.0
C745 C 0.32962 0.88743 0.88549 0.0
C746 C 0.31452 0.88756 0.89634 0.0
C747 C 0.3012 0.88071 0.8585 0.0
H748 H 0.12111 0.41072 0.83667 0.0
H749 H 0.15728 0.46063 0.77532 0.0
H750 H 0.11051 0.42336 0.90189 0.0
H751 H 0.14628 0.47339 0.84024 0.0
H752 H 0.13468 0.48994 0.00722 0.0
H753 H 0.14585 0.47778 0.94051 0.0
H754 H 0.09462 0.43791 0.90444 0.0
H755 H 0.08363 0.44966 0.97143 0.0
C756 C 0.1266 0.42441 0.83648 0.0
C757 C 0.13999 0.43469 0.80076 0.0
C758 C 0.1205 0.43166 0.87389 0.0
C759 C 0.12759 0.44939 0.87639 0.0
C760 C 0.14073 0.4597 0.83977 0.0
C761 C 0.14687 0.4524 0.80217 0.0
C762 C 0.12589 0.47846 0.98545 0.0
C763 C 0.10831 0.47069 0.99476 0.0
C764 C 0.13224 0.47162 0.94684 0.0
C765 C 0.1211 0.4569 0.91711 0.0
C766 C 0.10356 0.44911 0.92709 0.0
C767 C 0.09726 0.45589 0.9655 0.0
H768 H 0.08117 0.61721 0.41181 0.0
H769 H 0.11117 0.64603 0.55123 0.0
H770 H 0.0968 0.64202 0.35301 0.0
H771 H 0.12677 0.67101 0.49205 0.0
H772 H 0.13385 0.71521 0.37689 0.0
H773 H 0.11921 0.69047 0.43669 0.0
H774 H 0.1275 0.66005 0.3181 0.0
H775 H 0.14236 0.68494 0.2581 0.0
C776 C 0.09105 0.62889 0.42996 0.0
C777 C 0.09492 0.62973 0.48617 0.0
C778 C 0.10008 0.64302 0.39616 0.0
C779 C 0.11301 0.65837 0.41797 0.0
C780 C 0.11679 0.65931 0.47432 0.0
C781 C 0.10789 0.64506 0.5081 0.0
C782 C 0.13254 0.70324 0.36348 0.0
C783 C 0.13917 0.70196 0.31272 0.0
C784 C 0.12428 0.68914 0.39794 0.0
C785 C 0.12228 0.6734 0.38203 0.0
C786 C 0.12882 0.67206 0.33114 0.0
C787 C 0.13732 0.68626 0.29692 0.0
H788 H 0.36062 0.48422 0.53307 0.0
H789 H 0.3867 0.45883 0.47147 0.0
H790 H 0.34028 0.47238 0.45758 0.0
H791 H 0.36635 0.44701 0.39588 0.0
H792 H 0.31291 0.41456 0.3119 0.0
H793 H 0.33523 0.42644 0.38149 0.0
H794 H 0.34118 0.47614 0.35482 0.0
H795 H 0.31882 0.46426 0.28522 0.0
C796 C 0.36189 0.47597 0.50374 0.0
C797 C 0.37522 0.47242 0.50817 0.0
C798 C 0.35038 0.46936 0.4602 0.0
C799 C 0.35188 0.45896 0.42052 0.0
C800 C 0.36489 0.45498 0.4259 0.0
C801 C 0.37651 0.46173 0.46917 0.0
C802 C 0.31924 0.42809 0.32007 0.0
C803 C 0.31409 0.43848 0.29333 0.0
C804 C 0.332 0.43488 0.35993 0.0
C805 C 0.33974 0.45215 0.3741 0.0
C806 C 0.3352 0.46271 0.34531 0.0
C807 C 0.32255 0.45595 0.30507 0.0
H808 H 0.519 0.87232 0.56493 0.0
H809 H 0.5147 0.90436 0.44233 0.0
H810 H 0.5336 0.8639 0.49814 0.0
H811 H 0.5289 0.89558 0.37537 0.0
H812 H 0.53665 0.85558 0.26729 0.0
H813 H 0.52171 0.86482 0.33032 0.0
H814 H 0.56353 0.88282 0.44446 0.0
H815 H 0.57859 0.87409 0.38159 0.0
C816 C 0.52112 0.87749 0.52373 0.0
C817 C 0.51585 0.88906 0.50882 0.0
C818 C 0.52945 0.8727 0.48567 0.0
C819 C 0.53228 0.87911 0.43182 0.0
C820 C 0.52675 0.89043 0.41661 0.0
C821 C 0.51876 0.89551 0.45498 0.0
C822 C 0.5427 0.86171 0.30552 0.0
C823 C 0.55877 0.86415 0.3195 0.0
C824 C 0.53418 0.86696 0.34144 0.0
C825 C 0.54148 0.87435 0.39222 0.0
C826 C 0.55762 0.877 0.40572 0.0
C827 C 0.56625 0.87211 0.36952 0.0
H828 H 0.2194 0.12857 0.68391 0.0
H829 H 0.27275 0.16148 0.7195 0.0
H830 H 0.2167 0.11133 0.76448 0.0
H831 H 0.27009 0.14416 0.79945 0.0
H832 H 0.25583 0.12222 0.96946 0.0
H833 H 0.25609 0.13841 0.88968 0.0
H834 H 0.22658 0.09174 0.79902 0.0
H835 H 0.22612 0.07538 0.87974 0.0
C836 C 0.23055 0.13208 0.70888 0.0
C837 C 0.24627 0.1464 0.69569 0.0
C838 C 0.22901 0.12217 0.75475 0.0
C839 C 0.24315 0.12647 0.78836 0.0
C840 C 0.2589 0.1407 0.77475 0.0
C841 C 0.26045 0.15057 0.72886 0.0
C842 C 0.24925 0.11537 0.93271 0.0
C843 C 0.24106 0.09754 0.9306 0.0
C844 C 0.24951 0.12466 0.88692 0.0
C845 C 0.24159 0.11635 0.83793 0.0
C846 C 0.23276 0.09847 0.83637 0.0
C847 C 0.23251 0.08912 0.88243 0.0
H848 H 0.86874 0.09113 0.66905 0.0
H849 H 0.83586 0.10943 0.72733 0.0
H850 H 0.88694 0.10342 0.74989 0.0
H851 H 0.85394 0.12156 0.80777 0.0
H852 H 0.87715 0.12365 0.97133 0.0
H853 H 0.8608 0.10872 0.89043 0.0
H854 H 0.90626 0.13374 0.79145 0.0
H855 H 0.9228 0.14885 0.87297 0.0
C856 C 0.86543 0.09778 0.69908 0.0
C857 C 0.85088 0.0993 0.69218 0.0
C858 C 0.87586 0.10483 0.74507 0.0
C859 C 0.87171 0.11325 0.7851 0.0
C860 C 0.85726 0.11489 0.7778 0.0
C861 C 0.84698 0.10804 0.73167 0.0
C862 C 0.88375 0.12578 0.93255 0.0
C863 C 0.9012 0.13757 0.9282 0.0
C864 C 0.87437 0.11728 0.88627 0.0
C865 C 0.88225 0.12035 0.83476 0.0
C866 C 0.89992 0.13121 0.83086 0.0
C867 C 0.90936 0.13982 0.87738 0.0
H868 H 0.89799 0.72482 0.75857 0.0
H869 H 0.8976 0.76751 0.68204 0.0
H870 H 0.88354 0.72764 0.83828 0.0
H871 H 0.88221 0.76983 0.76074 0.0
H872 H 0.86667 0.77746 0.93425 0.0
H873 H 0.88317 0.77701 0.85523 0.0
H874 H 0.85644 0.72204 0.86211 0.0
H875 H 0.8409 0.72265 0.9418 0.0
C876 C 0.89464 0.73472 0.75869 0.0
C877 C 0.89876 0.74585 0.7141 0.0
C878 C 0.88626 0.7363 0.80423 0.0
C879 C 0.88143 0.7488 0.80571 0.0
C880 C 0.88584 0.76015 0.76129 0.0
C881 C 0.89454 0.75876 0.71605 0.0
C882 C 0.86444 0.76536 0.91862 0.0
C883 C 0.85274 0.75012 0.94443 0.0
C884 C 0.8738 0.76506 0.87331 0.0
C885 C 0.87135 0.74948 0.85273 0.0
C886 C 0.85913 0.73429 0.87775 0.0
C887 C 0.8501 0.73463 0.9233 0.0
H888 H 0.12759 0.25479 0.84291 0.0
H889 H 0.1196 0.20379 0.83353 0.0
H890 H 0.10713 0.24818 0.76859 0.0
H891 H 0.09922 0.19725 0.7592 0.0
H892 H 0.0951 0.21076 0.5727 0.0
H893 H 0.10624 0.20978 0.66276 0.0
H894 H 0.076 0.229 0.73673 0.0
H895 H 0.0646 0.22973 0.64607 0.0
C896 C 0.12123 0.2421 0.82565 0.0
C897 C 0.12535 0.22989 0.84338 0.0
C898 C 0.10942 0.23826 0.78351 0.0
C899 C 0.10165 0.22221 0.75818 0.0
C900 C 0.10509 0.20973 0.77796 0.0
C901 C 0.11677 0.21351 0.82039 0.0
C902 C 0.09042 0.21424 0.60844 0.0
C903 C 0.07908 0.22038 0.60267 0.0
C904 C 0.09674 0.21364 0.65999 0.0
C905 C 0.09205 0.21944 0.70655 0.0
C906 C 0.07984 0.22454 0.70132 0.0
C907 C 0.07325 0.22483 0.64967 0.0
H908 H 0.78998 0.88864 0.57856 0.0
H909 H 0.77125 0.83846 0.64662 0.0
H910 H 0.78925 0.89945 0.66953 0.0
H911 H 0.7702 0.84925 0.73778 0.0
H912 H 0.73951 0.87202 0.83389 0.0
H913 H 0.749 0.85984 0.76236 0.0
H914 H 0.79951 0.90358 0.77093 0.0
H915 H 0.79011 0.91571 0.84308 0.0
C916 C 0.78627 0.88007 0.61336 0.0
C917 C 0.78057 0.86273 0.60571 0.0
C918 C 0.78589 0.88625 0.66542 0.0
C919 C 0.77951 0.87512 0.71042 0.0
C920 C 0.7751 0.85804 0.70356 0.0
C921 C 0.77581 0.85192 0.65157 0.0
C922 C 0.75272 0.87884 0.82139 0.0
C923 C 0.76402 0.89487 0.8435 0.0
C924 C 0.75819 0.87181 0.78084 0.0
C925 C 0.77498 0.88082 0.76123 0.0
C926 C 0.78651 0.89643 0.78543 0.0
C927 C 0.78111 0.90333 0.82661 0.0
H928 H 0.11331 0.90597 0.59263 0.0
H929 H 0.16343 0.93804 0.66013 0.0
H930 H 0.10264 0.89453 0.68387 0.0
H931 H 0.15279 0.92627 0.75156 0.0
H932 H 0.13016 0.8728 0.84899 0.0
H933 H 0.14235 0.89446 0.77724 0.0
H934 H 0.09855 0.90108 0.78514 0.0
H935 H 0.08643 0.8796 0.85755 0.0
C936 C 0.12189 0.91096 0.62734 0.0
C937 C 0.13917 0.92279 0.61949 0.0
C938 C 0.11579 0.90446 0.67954 0.0
C939 C 0.12695 0.90945 0.72452 0.0
C940 C 0.14397 0.92222 0.71739 0.0
C941 C 0.15001 0.929 0.66524 0.0
C942 C 0.12335 0.8792 0.83639 0.0
C943 C 0.10729 0.87441 0.85831 0.0
C944 C 0.13037 0.89167 0.79567 0.0
C945 C 0.12133 0.89937 0.77571 0.0
C946 C 0.10573 0.8953 0.79989 0.0
C947 C 0.09883 0.88302 0.84125 0.0
H948 H 0.73185 0.88675 0.09615 0.0
H949 H 0.78115 0.93216 0.10837 0.0
H950 H 0.73533 0.87808 0.18694 0.0
H951 H 0.78469 0.92333 0.20075 0.0
H952 H 0.78914 0.8831 0.31798 0.0
H953 H 0.78794 0.89889 0.23845 0.0
H954 H 0.73714 0.88661 0.28436 0.0
H955 H 0.7382 0.87062 0.36319 0.0
C956 C 0.74344 0.89495 0.11848 0.0
C957 C 0.75629 0.91009 0.09508 0.0
C958 C 0.74534 0.89006 0.17084 0.0
C959 C 0.76021 0.90011 0.20117 0.0
C960 C 0.77309 0.91537 0.17816 0.0
C961 C 0.77107 0.92042 0.12554 0.0
C962 C 0.77786 0.88407 0.31166 0.0
C963 C 0.76364 0.87538 0.34612 0.0
C964 C 0.77723 0.89321 0.26635 0.0
C965 C 0.76236 0.89377 0.25488 0.0
C966 C 0.74866 0.88615 0.2918 0.0
C967 C 0.74927 0.87701 0.33693 0.0
H968 H 0.07836 0.8645 0.10372 0.0
H969 H 0.1012 0.83322 0.12749 0.0
H970 H 0.09014 0.87856 0.192 0.0
H971 H 0.11225 0.84652 0.21603 0.0
H972 H 0.15197 0.89155 0.31272 0.0
H973 H 0.13536 0.87424 0.23599 0.0
H974 H 0.09187 0.87727 0.29265 0.0
H975 H 0.10884 0.89516 0.36944 0.0
C976 C 0.08544 0.86031 0.12868 0.0
C977 C 0.08917 0.84805 0.10883 0.0
C978 C 0.09216 0.8683 0.17914 0.0
C979 C 0.10247 0.86392 0.21036 0.0
C980 C 0.10482 0.85056 0.19222 0.0
C981 C 0.09841 0.84287 0.14174 0.0
C982 C 0.13883 0.88845 0.30914 0.0
C983 C 0.13169 0.89468 0.34709 0.0
C984 C 0.12924 0.8784 0.26532 0.0
C985 C 0.1122 0.8742 0.2585 0.0
C986 C 0.10497 0.88034 0.2967 0.0
C987 C 0.11465 0.89049 0.34071 0.0
H988 H 0.11623 0.21445 0.06822 0.0
H989 H 0.1653 0.23273 0.144 0.0
H990 H 0.10352 0.21222 0.15811 0.0
H991 H 0.15259 0.23085 0.23459 0.0
H992 H 0.1249 0.25439 0.34403 0.0
H993 H 0.13962 0.24942 0.26853 0.0
H994 H 0.09792 0.19792 0.25317 0.0
H995 H 0.08324 0.20279 0.32873 0.0
C996 C 0.12417 0.21753 0.10442 0.0
C997 C 0.14169 0.22376 0.09952 0.0
C998 C 0.11692 0.21622 0.15582 0.0
C999 C 0.12712 0.22145 0.20311 0.0
C1000 C 0.1445 0.22678 0.19859 0.0
C1001 C 0.15172 0.22773 0.14702 0.0
C1002 C 0.11904 0.24193 0.32517 0.0
C1003 C 0.10285 0.22905 0.34167 0.0
C1004 C 0.12752 0.23903 0.28239 0.0
C1005 C 0.11985 0.22329 0.25515 0.0
C1006 C 0.10406 0.21017 0.27351 0.0
C1007 C 0.09567 0.21299 0.31662 0.0
H1008 H 0.87409 0.77454 0.19431 0.0
H1009 H 0.83704 0.7229 0.23831 0.0
H1010 H 0.89102 0.77651 0.27503 0.0
H1011 H 0.854 0.72481 0.31835 0.0
H1012 H 0.87632 0.73982 0.48722 0.0
H1013 H 0.86117 0.74048 0.40591 0.0
H1014 H 0.90821 0.76429 0.31441 0.0
H1015 H 0.92355 0.76381 0.39667 0.0
C1016 C 0.86963 0.76358 0.22103 0.0
C1017 C 0.8542 0.74859 0.2103 0.0
C1018 C 0.87935 0.7647 0.26704 0.0
C1019 C 0.87374 0.75088 0.30322 0.0
C1020 C 0.85849 0.73578 0.2917 0.0
C1021 C 0.84882 0.73465 0.24571 0.0
C1022 C 0.8835 0.74538 0.44997 0.0
C1023 C 0.9011 0.75164 0.4481 0.0
C1024 C 0.87479 0.74564 0.4033 0.0
C1025 C 0.88346 0.75214 0.35359 0.0
C1026 C 0.90121 0.7592 0.35224 0.0
C1027 C 0.90998 0.75894 0.39922 0.0
H1028 H 0.21973 0.09205 0.17962 0.0
H1029 H 0.27149 0.10753 0.22455 0.0
H1030 H 0.21719 0.10651 0.26037 0.0
H1031 H 0.26905 0.12222 0.30478 0.0
H1032 H 0.25372 0.13048 0.47224 0.0
H1033 H 0.25383 0.11455 0.3923 0.0
H1034 H 0.2283 0.13547 0.29793 0.0
H1035 H 0.22794 0.15131 0.37878 0.0
C1036 C 0.23059 0.09861 0.20666 0.0
C1037 C 0.2458 0.09862 0.19599 0.0
C1038 C 0.22914 0.10695 0.2527 0.0
C1039 C 0.24287 0.11541 0.28903 0.0
C1040 C 0.25815 0.11556 0.27798 0.0
C1041 C 0.2596 0.10724 0.23191 0.0
C1042 C 0.24795 0.13155 0.43462 0.0
C1043 C 0.24092 0.14222 0.43155 0.0
C1044 C 0.24814 0.12252 0.38872 0.0
C1045 C 0.24134 0.12399 0.33862 0.0
C1046 C 0.23361 0.13407 0.33609 0.0
C1047 C 0.23339 0.14313 0.38227 0.0
H1048 H 0.86627 0.12293 0.47147 0.0
H1049 H 0.84201 0.07611 0.37875 0.0
H1050 H 0.88295 0.13807 0.39144 0.0
H1051 H 0.85868 0.09143 0.2978 0.0
H1052 H 0.90314 0.1239 0.17893 0.0
H1053 H 0.88814 0.10759 0.26038 0.0
H1054 H 0.87584 0.14631 0.30358 0.0
H1055 H 0.891 0.1627 0.22264 0.0
C1056 C 0.8646 0.11584 0.43401 0.0
C1057 C 0.85274 0.09836 0.43112 0.0
C1058 C 0.87409 0.12455 0.38809 0.0
C1059 C 0.87191 0.116 0.33817 0.0
C1060 C 0.86063 0.09834 0.33585 0.0
C1061 C 0.8511 0.08957 0.38206 0.0
C1062 C 0.89724 0.12892 0.20592 0.0
C1063 C 0.89827 0.14459 0.19465 0.0
C1064 C 0.88859 0.11954 0.25232 0.0
C1065 C 0.88091 0.12571 0.28843 0.0
C1066 C 0.88188 0.14136 0.27691 0.0
C1067 C 0.89047 0.1507 0.23046 0.0
H1068 H 0.92848 0.45639 0.29826 0.0
H1069 H 0.89793 0.40809 0.21719 0.0
H1070 H 0.92666 0.47114 0.21768 0.0
H1071 H 0.89634 0.423 0.13544 0.0
H1072 H 0.88446 0.45659 0.0213 0.0
H1073 H 0.88473 0.44079 0.102 0.0
H1074 H 0.93817 0.47671 0.12496 0.0
H1075 H 0.93782 0.49268 0.04488 0.0
C1076 C 0.92131 0.44891 0.26316 0.0
C1077 C 0.9134 0.43108 0.26386 0.0
C1078 C 0.92039 0.45739 0.21682 0.0
C1079 C 0.91157 0.44826 0.16993 0.0
C1080 C 0.90319 0.43037 0.1711 0.0
C1081 C 0.9041 0.42184 0.21776 0.0
C1082 C 0.89627 0.4611 0.04362 0.0
C1083 C 0.91112 0.47592 0.02705 0.0
C1084 C 0.89643 0.45198 0.0896 0.0
C1085 C 0.91144 0.45753 0.11996 0.0
C1086 C 0.92633 0.47226 0.10289 0.0
C1087 C 0.92617 0.48136 0.05692 0.0
H1088 H 0.60166 0.4985 0.17375 0.0
H1089 H 0.56917 0.44832 0.24024 0.0
H1090 H 0.59413 0.48693 0.08048 0.0
H1091 H 0.56178 0.43679 0.14787 0.0
H1092 H 0.5516 0.41774 0.9795 0.0
H1093 H 0.57082 0.43147 0.05669 0.0
H1094 H 0.56521 0.47564 0.03622 0.0
H1095 H 0.5461 0.462 0.95888 0.0
C1096 C 0.59341 0.48493 0.16835 0.0
C1097 C 0.58583 0.47428 0.21385 0.0
C1098 C 0.58904 0.47834 0.11514 0.0
C1099 C 0.57728 0.461 0.107 0.0
C1100 C 0.57099 0.45017 0.15277 0.0
C1101 C 0.57513 0.45678 0.20569 0.0
C1102 C 0.5548 0.43055 0.99068 0.0
C1103 C 0.54713 0.4387 0.96394 0.0
C1104 C 0.5658 0.43839 0.03477 0.0
C1105 C 0.56938 0.45454 0.05268 0.0
C1106 C 0.5628 0.46325 0.02302 0.0
C1107 C 0.55173 0.45537 0.97906 0.0
H1108 H 0.53804 0.07018 0.00146 0.0
H1109 H 0.5797 0.12177 0.98624 0.0
H1110 H 0.52437 0.07962 0.06768 0.0
H1111 H 0.56598 0.13122 0.05253 0.0
H1112 H 0.5478 0.12801 0.23839 0.0
H1113 H 0.56066 0.12571 0.15353 0.0
H1114 H 0.51094 0.09794 0.07895 0.0
H1115 H 0.49804 0.10023 0.16407 0.0
C1116 C 0.54419 0.08355 0.01195 0.0
C1117 C 0.55999 0.0952 0.98919 0.0
C1118 C 0.53628 0.089 0.04933 0.0
C1119 C 0.54408 0.10619 0.06491 0.0
C1120 C 0.55971 0.11791 0.04122 0.0
C1121 C 0.56755 0.11248 0.00345 0.0
C1122 C 0.53968 0.12198 0.20321 0.0
C1123 C 0.52193 0.11407 0.20801 0.0
C1124 C 0.54704 0.12067 0.15458 0.0
C1125 C 0.53674 0.11133 0.11014 0.0
C1126 C 0.51913 0.10496 0.11303 0.0
C1127 C 0.51177 0.10643 0.16155 0.0
H1128 H 0.78207 0.59376 0.85213 0.0
H1129 H 0.73407 0.564 0.93567 0.0
H1130 H 0.79706 0.59208 0.93226 0.0
H1131 H 0.74923 0.56255 0.01698 0.0
H1132 H 0.78335 0.5515 0.13192 0.0
H1133 H 0.76721 0.55108 0.05116 0.0
H1134 H 0.80285 0.6044 0.02409 0.0
H1135 H 0.81913 0.60473 0.10417 0.0
C1136 C 0.7747 0.58678 0.88765 0.0
C1137 C 0.7569 0.57911 0.88785 0.0
C1138 C 0.78332 0.58593 0.93371 0.0
C1139 C 0.77435 0.57743 0.98122 0.0
C1140 C 0.75647 0.56917 0.98084 0.0
C1141 C 0.7478 0.57 0.93443 0.0
C1142 C 0.78772 0.56312 0.10866 0.0
C1143 C 0.80255 0.57814 0.12408 0.0
C1144 C 0.77842 0.5629 0.06265 0.0
C1145 C 0.78381 0.57767 0.03113 0.0
C1146 C 0.79853 0.59273 0.04706 0.0
C1147 C 0.80782 0.59296 0.09304 0.0
H1148 H 0.38836 0.17749 0.88205 0.0
H1149 H 0.44188 0.19485 0.89945 0.0
H1150 H 0.38954 0.19434 0.96067 0.0
H1151 H 0.44341 0.21269 0.97707 0.0
H1152 H 0.43552 0.22934 0.14763 0.0
H1153 H 0.43562 0.21263 0.06943 0.0
H1154 H 0.39907 0.22224 0.98678 0.0
H1155 H 0.39832 0.23802 0.06629 0.0
C1156 C 0.40046 0.18512 0.90249 0.0
C1157 C 0.41506 0.18498 0.88458 0.0
C1158 C 0.40119 0.19492 0.94737 0.0
C1159 C 0.41663 0.20515 0.97489 0.0
C1160 C 0.43127 0.20487 0.95721 0.0
C1161 C 0.43044 0.19474 0.91266 0.0
C1162 C 0.42754 0.22784 0.11259 0.0
C1163 C 0.41678 0.23479 0.11305 0.0
C1164 C 0.42767 0.21837 0.0676 0.0
C1165 C 0.41724 0.21592 0.02181 0.0
C1166 C 0.40693 0.22343 0.02184 0.0
C1167 C 0.40655 0.23259 0.06721 0.0
H1168 H 0.82649 0.26034 0.95707 0.0
H1169 H 0.78089 0.22356 0.87332 0.0
H1170 H 0.8122 0.24967 0.04584 0.0
H1171 H 0.76657 0.21322 0.96129 0.0
H1172 H 0.74215 0.20426 0.12728 0.0
H1173 H 0.75702 0.22247 0.04886 0.0
H1174 H 0.80161 0.21915 0.08801 0.0
H1175 H 0.78671 0.20076 0.16622 0.0
C1176 C 0.81328 0.25037 0.95771 0.0
C1177 C 0.80474 0.2427 0.90871 0.0
C1178 C 0.80517 0.24422 0.00828 0.0
C1179 C 0.78833 0.23063 0.01019 0.0
C1180 C 0.7795 0.22381 0.96092 0.0
C1181 C 0.7877 0.22967 0.91067 0.0
C1182 C 0.75521 0.20763 0.11966 0.0
C1183 C 0.76323 0.20095 0.15236 0.0
C1184 C 0.76369 0.21805 0.0749 0.0
C1185 C 0.78042 0.22218 0.06258 0.0
C1186 C 0.78877 0.21628 0.09707 0.0
C1187 C 0.7802 0.20566 0.14144 0.0
H1188 H 0.43422 0.25765 0.43584 0.0
H1189 H 0.41014 0.21143 0.34009 0.0
H1190 H 0.43238 0.24109 0.51762 0.0
H1191 H 0.40859 0.19504 0.42096 0.0
H1192 H 0.38837 0.16915 0.58515 0.0
H1193 H 0.39194 0.1869 0.50541 0.0
H1194 H 0.4428 0.2232 0.55898 0.0
H1195 H 0.43911 0.20559 0.63926 0.0
C1196 C 0.42883 0.24402 0.4321 0.0
C1197 C 0.42221 0.23581 0.3818 0.0
C1198 C 0.42777 0.23454 0.47883 0.0
C1199 C 0.42008 0.21672 0.47585 0.0
C1200 C 0.4142 0.20868 0.42488 0.0
C1201 C 0.41523 0.21811 0.37844 0.0
C1202 C 0.40027 0.18095 0.57999 0.0
C1203 C 0.41347 0.18595 0.61825 0.0
C1204 C 0.40237 0.19107 0.53418 0.0
C1205 C 0.41772 0.20638 0.52568 0.0
C1206 C 0.4308 0.21154 0.56458 0.0
C1207 C 0.4287 0.20141 0.61039 0.0
H1208 H 0.79218 0.20253 0.65311 0.0
H1209 H 0.78902 0.24837 0.64314 0.0
H1210 H 0.7713 0.18998 0.5792 0.0
H1211 H 0.76825 0.23583 0.56897 0.0
H1212 H 0.72724 0.16817 0.46247 0.0
H1213 H 0.74028 0.18054 0.55123 0.0
H1214 H 0.7732 0.22852 0.47163 0.0
H1215 H 0.76041 0.21614 0.38323 0.0
C1216 C 0.78685 0.20981 0.63565 0.0
C1217 C 0.79234 0.22647 0.65341 0.0
C1218 C 0.77479 0.20258 0.59375 0.0
C1219 C 0.76817 0.21196 0.56852 0.0
C1220 C 0.77318 0.22837 0.58774 0.0
C1221 C 0.78507 0.23551 0.63009 0.0
C1222 C 0.73684 0.18152 0.46439 0.0
C1223 C 0.74291 0.19122 0.4162 0.0
C1224 C 0.74438 0.18853 0.51498 0.0
C1225 C 0.75782 0.20541 0.51806 0.0
C1226 C 0.7628 0.2155 0.47047 0.0
C1227 C 0.7555 0.20842 0.4199 0.0
H1228 H 0.77119 0.60766 0.59845 0.0
H1229 H 0.74929 0.55497 0.64612 0.0
H1230 H 0.78404 0.60245 0.51848 0.0
H1231 H 0.76214 0.54975 0.56561 0.0
H1232 H 0.80569 0.55624 0.44274 0.0
H1233 H 0.79143 0.55844 0.52532 0.0
H1234 H 0.77215 0.58565 0.4322 0.0
H1235 H 0.78631 0.58357 0.3505 0.0
C1236 C 0.76918 0.59499 0.59192 0.0
C1237 C 0.75916 0.58171 0.62823 0.0
C1238 C 0.77645 0.59198 0.54603 0.0
C1239 C 0.77391 0.57565 0.53562 0.0
C1240 C 0.76431 0.56245 0.57278 0.0
C1241 C 0.75692 0.56544 0.61862 0.0
C1242 C 0.79814 0.5624 0.43989 0.0
C1243 C 0.79724 0.56989 0.39046 0.0
C1244 C 0.79002 0.56367 0.48703 0.0
C1245 C 0.78098 0.57251 0.48522 0.0
C1246 C 0.77935 0.57912 0.435 0.0
C1247 C 0.78738 0.57782 0.38817 0.0
H1248 H 0.5463 0.09041 0.77149 0.0
H1249 H 0.59081 0.09729 0.68491 0.0
H1250 H 0.53364 0.09182 0.68527 0.0
H1251 H 0.5779 0.0985 0.59765 0.0
H1252 H 0.55148 0.11421 0.46087 0.0
H1253 H 0.56715 0.11528 0.54401 0.0
H1254 H 0.52217 0.07148 0.60772 0.0
H1255 H 0.50652 0.07052 0.52541 0.0
C1256 C 0.55345 0.0924 0.73395 0.0
C1257 C 0.56944 0.09355 0.73469 0.0
C1258 C 0.54615 0.09309 0.68458 0.0
C1259 C 0.55463 0.09487 0.63477 0.0
C1260 C 0.57108 0.09706 0.63557 0.0
C1261 C 0.57846 0.0964 0.68534 0.0
C1262 C 0.54502 0.10474 0.49252 0.0
C1263 C 0.52775 0.09237 0.48704 0.0
C1264 C 0.554 0.10534 0.53991 0.0
C1265 C 0.54579 0.09363 0.58252 0.0
C1266 C 0.52871 0.08089 0.57595 0.0
C1267 C 0.51978 0.08027 0.52871 0.0
H1268 H 0.93919 0.44397 0.55794 0.0
H1269 H 0.88716 0.42271 0.50369 0.0
H1270 H 0.933 0.45593 0.63819 0.0
H1271 H 0.88097 0.43473 0.58451 0.0
H1272 H 0.88756 0.47841 0.70923 0.0
H1273 H 0.88983 0.46415 0.62678 0.0
H1274 H 0.91476 0.44284 0.72209 0.0
H1275 H 0.9126 0.45699 0.80375 0.0
C1276 C 0.92645 0.44192 0.56307 0.0
C1277 C 0.91363 0.43234 0.52483 0.0
C1278 C 0.92288 0.44866 0.60913 0.0
C1279 C 0.90645 0.44605 0.61775 0.0
C1280 C 0.89372 0.43691 0.57872 0.0
C1281 C 0.89727 0.43002 0.53271 0.0
C1282 C 0.89317 0.47037 0.71262 0.0
C1283 C 0.9001 0.46896 0.76259 0.0
C1284 C 0.89448 0.46225 0.66556 0.0
C1285 C 0.90278 0.45271 0.66807 0.0
C1286 C 0.90865 0.45043 0.71886 0.0
C1287 C 0.90732 0.45846 0.76562 0.0
H1288 H 0.5814 0.45003 0.47326 0.0
H1289 H 0.53562 0.45327 0.46312 0.0
H1290 H 0.56893 0.42947 0.54795 0.0
H1291 H 0.52326 0.43291 0.53806 0.0
H1292 H 0.50245 0.39507 0.67047 0.0
H1293 H 0.51326 0.404 0.57709 0.0
H1294 H 0.56381 0.43586 0.64219 0.0
H1295 H 0.55305 0.42696 0.73473 0.0
C1296 C 0.56855 0.44609 0.48624 0.0
C1297 C 0.55958 0.45347 0.46317 0.0
C1298 C 0.56142 0.43432 0.52892 0.0
C1299 C 0.54519 0.4297 0.54913 0.0
C1300 C 0.53573 0.43608 0.52305 0.0
C1301 C 0.54287 0.44788 0.48048 0.0
C1302 C 0.51596 0.40349 0.66445 0.0
C1303 C 0.52691 0.41053 0.7096 0.0
C1304 C 0.52211 0.40868 0.61115 0.0
C1305 C 0.53933 0.42078 0.60243 0.0
C1306 C 0.55051 0.42644 0.64742 0.0
C1307 C 0.54434 0.42142 0.70052 0.0
H1308 H 0.60558 0.82885 0.39593 0.0
H1309 H 0.55309 0.79318 0.3569 0.0
H1310 H 0.60354 0.81213 0.47688 0.0
H1311 H 0.55106 0.77643 0.4383 0.0
H1312 H 0.56445 0.74337 0.55729 0.0
H1313 H 0.56362 0.75865 0.47531 0.0
H1314 H 0.58779 0.80577 0.56623 0.0
H1315 H 0.58868 0.79068 0.64747 0.0
C1316 C 0.59362 0.81742 0.40462 0.0
C1317 C 0.57948 0.81235 0.37034 0.0
C1318 C 0.59242 0.80791 0.45108 0.0
C1319 C 0.57709 0.79307 0.46401 0.0
C1320 C 0.56303 0.78778 0.42912 0.0
C1321 C 0.56419 0.7974 0.38278 0.0
C1322 C 0.56932 0.75694 0.55983 0.0
C1323 C 0.57677 0.76587 0.60853 0.0
C1324 C 0.56885 0.76566 0.51304 0.0
C1325 C 0.5759 0.78342 0.51436 0.0
C1326 C 0.58258 0.79214 0.56382 0.0
C1327 C 0.58299 0.78347 0.61039 0.0
H1328 H 0.23373 0.79148 0.61378 0.0
H1329 H 0.26386 0.83836 0.52482 0.0
H1330 H 0.22127 0.77673 0.52774 0.0
H1331 H 0.25115 0.82359 0.43847 0.0
H1332 H 0.19972 0.79574 0.33482 0.0
H1333 H 0.21946 0.81088 0.40971 0.0
H1334 H 0.22774 0.76845 0.43297 0.0
H1335 H 0.20811 0.75333 0.35756 0.0
C1336 C 0.23799 0.79851 0.5756 0.0
C1337 C 0.24966 0.81604 0.57577 0.0
C1338 C 0.23091 0.79007 0.52642 0.0
C1339 C 0.23517 0.79909 0.47668 0.0
C1340 C 0.24761 0.81642 0.47644 0.0
C1341 C 0.25495 0.82481 0.52567 0.0
C1342 C 0.2059 0.78973 0.35552 0.0
C1343 C 0.2023 0.77332 0.3408 0.0
C1344 C 0.21732 0.79846 0.39795 0.0
C1345 C 0.22514 0.79082 0.42684 0.0
C1346 C 0.22186 0.77458 0.41123 0.0
C1347 C 0.21064 0.76596 0.36822 0.0
H1348 H 0.21294 0.41528 0.63419 0.0
H1349 H 0.18796 0.43682 0.53997 0.0
H1350 H 0.22926 0.41633 0.55382 0.0
H1351 H 0.20441 0.43779 0.45876 0.0
H1352 H 0.24918 0.44795 0.33948 0.0
H1353 H 0.23493 0.45081 0.42072 0.0
H1354 H 0.21936 0.39913 0.46693 0.0
H1355 H 0.23354 0.39625 0.38624 0.0
C1356 C 0.21108 0.42044 0.59639 0.0
C1357 C 0.19903 0.42578 0.59305 0.0
C1358 C 0.22038 0.42096 0.55037 0.0
C1359 C 0.21785 0.42685 0.50001 0.0
C1360 C 0.20656 0.43318 0.49725 0.0
C1361 C 0.19717 0.43262 0.54356 0.0
C1362 C 0.24271 0.43723 0.36711 0.0
C1363 C 0.24252 0.4219 0.35685 0.0
C1364 C 0.23452 0.43886 0.4133 0.0
C1365 C 0.22619 0.42525 0.45016 0.0
C1366 C 0.22591 0.40991 0.43954 0.0
C1367 C 0.23395 0.40823 0.39327 0.0
H1368 H 0.44317 0.86685 0.49354 0.0
H1369 H 0.45263 0.91809 0.5147 0.0
H1370 H 0.42388 0.86265 0.41759 0.0
H1371 H 0.4335 0.91394 0.4386 0.0
H1372 H 0.42333 0.88001 0.23458 0.0
H1373 H 0.43188 0.87601 0.32538 0.0
H1374 H 0.4041 0.89814 0.39852 0.0
H1375 H 0.39548 0.90213 0.30686 0.0
C1376 C 0.44088 0.8771 0.48262 0.0
C1377 C 0.4496 0.8929 0.50936 0.0
C1378 C 0.42985 0.87468 0.43921 0.0
C1379 C 0.42728 0.88799 0.42198 0.0
C1380 C 0.43508 0.90338 0.4513 0.0
C1381 C 0.44617 0.90582 0.49454 0.0
C1382 C 0.41863 0.88356 0.27013 0.0
C1383 C 0.40892 0.89154 0.26387 0.0
C1384 C 0.42344 0.88118 0.3222 0.0
C1385 C 0.41878 0.88691 0.36902 0.0
C1386 C 0.40798 0.89374 0.36301 0.0
C1387 C 0.40296 0.89592 0.31072 0.0
H1388 H 0.10514 0.56438 0.48982 0.0
H1389 H 0.05556 0.54756 0.41939 0.0
H1390 H 0.1127 0.55303 0.41008 0.0
H1391 H 0.06316 0.53639 0.34014 0.0
H1392 H 0.08947 0.54136 0.18001 0.0
H1393 H 0.08573 0.55302 0.2652 0.0
H1394 H 0.10263 0.52362 0.35748 0.0
H1395 H 0.10634 0.51172 0.27143 0.0
C1396 C 0.0958 0.55807 0.45772 0.0
C1397 C 0.07981 0.55697 0.4605 0.0
C1398 C 0.10013 0.55158 0.41229 0.0
C1399 C 0.0886 0.54412 0.36879 0.0
C1400 C 0.07237 0.54236 0.37283 0.0
C1401 C 0.06799 0.54866 0.41831 0.0
C1402 C 0.09273 0.5376 0.21831 0.0
C1403 C 0.09801 0.52548 0.21919 0.0
C1404 C 0.09047 0.5442 0.26705 0.0
C1405 C 0.09351 0.53889 0.31775 0.0
C1406 C 0.10011 0.52781 0.31875 0.0
C1407 C 0.10231 0.52109 0.26964 0.0
H1408 H 0.46444 0.54084 0.5079 0.0
H1409 H 0.4196 0.54574 0.49812 0.0
H1410 H 0.47738 0.56138 0.43348 0.0
H1411 H 0.4326 0.56639 0.42397 0.0
H1412 H 0.44991 0.57199 0.23796 0.0
H1413 H 0.43829 0.56111 0.32851 0.0
H1414 H 0.48827 0.59119 0.39967 0.0
H1415 H 0.49995 0.60213 0.30844 0.0
C1416 C 0.4575 0.54656 0.49056 0.0
C1417 C 0.44093 0.54151 0.50815 0.0
C1418 C 0.46496 0.55844 0.44832 0.0
C1419 C 0.45596 0.56543 0.4228 0.0
C1420 C 0.43977 0.5611 0.44263 0.0
C1421 C 0.43234 0.54928 0.48501 0.0
C1422 C 0.45831 0.57671 0.27318 0.0
C1423 C 0.47583 0.58774 0.26628 0.0
C1424 C 0.45166 0.57053 0.32512 0.0
C1425 C 0.46243 0.57515 0.37106 0.0
C1426 C 0.47973 0.5873 0.36479 0.0
C1427 C 0.48638 0.59365 0.31274 0.0
H1428 H 0.1067 0.57918 0.71556 0.0
H1429 H 0.05258 0.55455 0.74307 0.0
H1430 H 0.10967 0.56501 0.79702 0.0
H1431 H 0.05551 0.54122 0.82548 0.0
H1432 H 0.06139 0.50249 0.92191 0.0
H1433 H 0.06024 0.51872 0.84454 0.0
H1434 H 0.10815 0.56186 0.89465 0.0
H1435 H 0.10962 0.54514 0.97099 0.0
C1436 C 0.09553 0.57102 0.73977 0.0
C1437 C 0.0794 0.5677 0.72289 0.0
C1438 C 0.0972 0.56294 0.78644 0.0
C1439 C 0.08277 0.55168 0.81724 0.0
C1440 C 0.06682 0.54932 0.80179 0.0
C1441 C 0.06514 0.55706 0.75482 0.0
C1442 C 0.07167 0.51543 0.91639 0.0
C1443 C 0.08554 0.52259 0.95247 0.0
C1444 C 0.07098 0.52482 0.87226 0.0
C1445 C 0.08399 0.54173 0.86371 0.0
C1446 C 0.09797 0.54885 0.89973 0.0
C1447 C 0.09878 0.53932 0.94357 0.0
H1448 H 0.45941 0.53915 0.01539 0.0
H1449 H 0.45413 0.58341 0.99091 0.0
H1450 H 0.43996 0.52495 0.93924 0.0
H1451 H 0.43457 0.56912 0.9149 0.0
H1452 H 0.40161 0.50058 0.8071 0.0
H1453 H 0.41068 0.5133 0.89843 0.0
H1454 H 0.44213 0.5625 0.82356 0.0
H1455 H 0.43316 0.54983 0.73307 0.0
C1456 C 0.45381 0.54569 0.99448 0.0
C1457 C 0.4585 0.56248 0.00837 0.0
C1458 C 0.44254 0.5375 0.95123 0.0
C1459 C 0.43583 0.54598 0.92099 0.0
C1460 C 0.43966 0.56236 0.93728 0.0
C1461 C 0.45087 0.57052 0.9807 0.0
C1462 C 0.41001 0.51419 0.81047 0.0
C1463 C 0.41685 0.52424 0.7633 0.0
C1464 C 0.41527 0.52144 0.86257 0.0
C1465 C 0.42721 0.53884 0.86801 0.0
C1466 C 0.43282 0.54908 0.82077 0.0
C1467 C 0.42776 0.54182 0.7689 0.0
H1468 H 0.43913 0.87575 0.73296 0.0
H1469 H 0.48726 0.88803 0.80595 0.0
H1470 H 0.42738 0.87456 0.82367 0.0
H1471 H 0.47549 0.88696 0.89734 0.0
H1472 H 0.45621 0.91728 0.00854 0.0
H1473 H 0.46778 0.90843 0.93348 0.0
H1474 H 0.41984 0.86162 0.91798 0.0
H1475 H 0.40823 0.87048 0.9932 0.0
C1476 C 0.447 0.87763 0.76866 0.0
C1477 C 0.46411 0.88213 0.76264 0.0
C1478 C 0.44027 0.87688 0.82064 0.0
C1479 C 0.4506 0.88085 0.86747 0.0
C1480 C 0.46732 0.88397 0.86177 0.0
C1481 C 0.474 0.88446 0.80963 0.0
C1482 C 0.44825 0.90496 0.98982 0.0
C1483 C 0.43126 0.89468 0.00607 0.0
C1484 C 0.45493 0.89981 0.94723 0.0
C1485 C 0.44468 0.88435 0.91986 0.0
C1486 C 0.42798 0.87363 0.93827 0.0
C1487 C 0.42135 0.87872 0.98121 0.0
H1488 H 0.18002 0.39654 0.89251 0.0
H1489 H 0.21582 0.4465 0.83051 0.0
H1490 H 0.19795 0.40171 0.97299 0.0
H1491 H 0.23388 0.45161 0.91123 0.0
H1492 H 0.26736 0.4388 0.03537 0.0
H1493 H 0.25127 0.43832 0.95377 0.0
H1494 H 0.20667 0.42257 0.05408 0.0
H1495 H 0.22258 0.42309 0.13511 0.0
C1496 C 0.19174 0.40859 0.89605 0.0
C1497 C 0.19652 0.42114 0.85551 0.0
C1498 C 0.20194 0.4116 0.94217 0.0
C1499 C 0.21718 0.42712 0.94832 0.0
C1500 C 0.22217 0.43955 0.90728 0.0
C1501 C 0.21183 0.43664 0.86137 0.0
C1502 C 0.25424 0.43565 0.04003 0.0
C1503 C 0.24614 0.43077 0.09133 0.0
C1504 C 0.24506 0.43536 0.99347 0.0
C1505 C 0.22769 0.43009 -0.00221 0.0
C1506 C 0.21998 0.42636 0.04965 0.0
C1507 C 0.22912 0.42674 0.09599 0.0
H1508 H 0.6066 0.77732 0.90595 0.0
H1509 H 0.55445 0.75807 0.85628 0.0
H1510 H 0.60186 0.79014 0.98687 0.0
H1511 H 0.54967 0.77086 0.93782 0.0
H1512 H 0.55837 0.81563 0.0585 0.0
H1513 H 0.5593 0.80006 0.97758 0.0
H1514 H 0.58518 0.77973 0.07285 0.0
H1515 H 0.58442 0.79529 0.15287 0.0
C1516 C 0.59412 0.77581 0.9124 0.0
C1517 C 0.58088 0.76666 0.87499 0.0
C1518 C 0.59137 0.78306 0.95888 0.0
C1519 C 0.57534 0.78135 0.96885 0.0
C1520 C 0.56215 0.7724 0.93102 0.0
C1521 C 0.56488 0.76505 0.88457 0.0
C1522 C 0.56392 0.80754 0.06224 0.0
C1523 C 0.5715 0.80681 0.11165 0.0
C1524 C 0.56447 0.79866 0.01603 0.0
C1525 C 0.57262 0.78897 0.01879 0.0
C1526 C 0.57919 0.78742 0.06923 0.0
C1527 C 0.57865 0.79625 0.11512 0.0
H1528 H 0.25102 0.79766 0.8382 0.0
H1529 H 0.21407 0.81419 0.85226 0.0
H1530 H 0.23851 0.77926 0.91883 0.0
H1531 H 0.20184 0.79598 0.93265 0.0
H1532 H 0.2128 0.78847 0.11725 0.0
H1533 H 0.22592 0.8013 0.02983 0.0
H1534 H 0.19929 0.7522 0.95153 0.0
H1535 H 0.18578 0.7391 0.03972 0.0
C1536 C 0.2401 0.79716 0.85792 0.0
C1537 C 0.23359 0.80746 0.83935 0.0
C1538 C 0.23294 0.7866 0.90365 0.0
C1539 C 0.21928 0.7863 0.93127 0.0
C1540 C 0.21235 0.79603 0.91147 0.0
C1541 C 0.21938 0.80645 0.8657 0.0
C1542 C 0.20996 0.78029 0.08178 0.0
C1543 C 0.19813 0.76281 0.08508 0.0
C1544 C 0.21749 0.78765 0.03191 0.0
C1545 C 0.21345 0.77768 0.9845 0.0
C1546 C 0.20255 0.76003 0.98801 0.0
C1547 C 0.1949 0.75259 0.03825 0.0
H1548 H 0.37996 0.11316 0.89182 0.0
H1549 H 0.34888 0.11458 0.75995 0.0
H1550 H 0.3545 0.09634 0.94713 0.0
H1551 H 0.3235 0.09796 0.81534 0.0
H1552 H 0.30976 0.0952 0.04759 0.0
H1553 H 0.33522 0.10427 0.99231 0.0
H1554 H 0.30455 0.07084 0.86153 0.0
H1555 H 0.27902 0.06191 0.91669 0.0
C1556 C 0.36767 0.10959 0.87423 0.0
C1557 C 0.36641 0.11531 0.82174 0.0
C1558 C 0.35311 0.10005 0.90604 0.0
C1559 C 0.337 0.09596 0.88584 0.0
C1560 C 0.33569 0.10076 0.83196 0.0
C1561 C 0.35025 0.11036 0.80028 0.0
C1562 C 0.30849 0.08954 0.00749 0.0
C1563 C 0.29239 0.07798 0.98625 0.0
C1564 C 0.32309 0.09466 0.97589 0.0
C1565 C 0.32188 0.08836 0.92234 0.0
C1566 C 0.30586 0.07607 0.90236 0.0
C1567 C 0.29126 0.0709 0.93407 0.0
H1568 H 0.92102 0.20259 0.899 0.0
H1569 H 0.89851 0.20813 0.04806 0.0
H1570 H 0.9077 0.21582 0.84677 0.0
H1571 H 0.88528 0.22141 0.99587 0.0
H1572 H 0.87547 0.25714 0.89123 0.0
H1573 H 0.89272 0.24755 0.93931 0.0
H1574 H 0.8769 0.20641 0.82336 0.0
H1575 H 0.85954 0.21598 0.77512 0.0
C1576 C 0.91347 0.2069 0.92073 0.0
C1577 C 0.91078 0.20432 0.9776 0.0
C1578 C 0.90575 0.21434 0.89076 0.0
C1579 C 0.8954 0.21955 0.91722 0.0
C1580 C 0.8933 0.21762 0.97445 0.0
C1581 C 0.90084 0.20999 0.0043 0.0
C1582 C 0.87579 0.24614 0.87562 0.0
C1583 C 0.86609 0.23725 0.82954 0.0
C1584 C 0.88561 0.24063 0.90333 0.0
C1585 C 0.88609 0.22621 0.8852 0.0
C1586 C 0.87687 0.21765 0.83796 0.0
C1587 C 0.86688 0.22307 0.81053 0.0
H1588 H 0.7604 0.65117 0.77418 0.0
H1589 H 0.72455 0.62072 0.90022 0.0
H1590 H 0.77044 0.67633 0.83169 0.0
H1591 H 0.73452 0.64597 0.95769 0.0
H1592 H 0.78185 0.72096 0.93611 0.0
H1593 H 0.76372 0.69651 0.87835 0.0
H1594 H 0.762 0.66272 0.00632 0.0
H1595 H 0.77996 0.68711 0.06413 0.0
C1596 C 0.75439 0.64993 0.81364 0.0
C1597 C 0.74184 0.63397 0.83297 0.0
C1598 C 0.76007 0.66437 0.84649 0.0
C1599 C 0.75335 0.66309 0.8994 0.0
C1600 C 0.74006 0.64729 0.91734 0.0
C1601 C 0.73431 0.63287 0.88434 0.0
C1602 C 0.77727 0.7083 0.95236 0.0
C1603 C 0.78246 0.70592 0.00438 0.0
C1604 C 0.76697 0.69432 0.91918 0.0
C1605 C 0.76158 0.67772 0.9376 0.0
C1606 C 0.76582 0.67535 0.99112 0.0
C1607 C 0.77619 0.68932 0.02416 0.0
H1608 H 0.12985 0.37783 0.57301 0.0
H1609 H 0.12991 0.35127 0.72013 0.0
H1610 H 0.11388 0.35066 0.52494 0.0
H1611 H 0.11388 0.32416 0.67219 0.0
H1612 H 0.07283 0.27788 0.58216 0.0
H1613 H 0.08515 0.30552 0.62743 0.0
H1614 H 0.12127 0.32818 0.49507 0.0
H1615 H 0.109 0.30049 0.44975 0.0
C1616 C 0.12625 0.36618 0.59526 0.0
C1617 C 0.13115 0.36664 0.65026 0.0
C1618 C 0.1172 0.35067 0.56766 0.0
C1619 C 0.11269 0.33533 0.59483 0.0
C1620 C 0.11707 0.33578 0.65039 0.0
C1621 C 0.1263 0.35129 0.67775 0.0
C1622 C 0.08327 0.2888 0.56238 0.0
C1623 C 0.09002 0.28703 0.51254 0.0
C1624 C 0.09035 0.30458 0.58844 0.0
C1625 C 0.10419 0.31895 0.56486 0.0
C1626 C 0.11052 0.31733 0.51394 0.0
C1627 C 0.10355 0.30148 0.48815 0.0
H1628 H 0.72504 0.79705 0.58957 0.0
H1629 H 0.69889 0.80915 0.46499 0.0
H1630 H 0.69808 0.77939 0.63696 0.0
H1631 H 0.67192 0.79142 0.51232 0.0
H1632 H 0.62467 0.74699 0.58835 0.0
H1633 H 0.6517 0.76061 0.53882 0.0
H1634 H 0.6778 0.78618 0.68762 0.0
H1635 H 0.65079 0.77265 0.73713 0.0
C1636 C 0.71351 0.79578 0.572 0.0
C1637 C 0.71406 0.80451 0.52369 0.0
C1638 C 0.69811 0.78574 0.59925 0.0
C1639 C 0.68294 0.78406 0.57836 0.0
C1640 C 0.68341 0.79236 0.52907 0.0
C1641 C 0.69884 0.80257 0.50215 0.0
C1642 C 0.63622 0.75531 0.61067 0.0
C1643 C 0.63564 0.75881 0.66657 0.0
C1644 C 0.65165 0.76318 0.58222 0.0
C1645 C 0.66681 0.77451 0.60932 0.0
C1646 C 0.66632 0.77741 0.66579 0.0
C1647 C 0.65086 0.76971 0.69408 0.0
H1648 H 0.18737 0.89096 0.47158 0.0
H1649 H 0.20204 0.92749 0.60329 0.0
H1650 H 0.20396 0.87945 0.51347 0.0
H1651 H 0.21843 0.91574 0.64563 0.0
H1652 H 0.22403 0.87169 0.73014 0.0
H1653 H 0.20991 0.88591 0.68848 0.0
H1654 H 0.23597 0.8905 0.53581 0.0
H1655 H 0.25029 0.87655 0.57752 0.0
C1656 C 0.19419 0.89655 0.50936 0.0
C1657 C 0.19345 0.91011 0.53421 0.0
C1658 C 0.20372 0.89002 0.53315 0.0
C1659 C 0.21244 0.89673 0.5827 0.0
C1660 C 0.21175 0.91032 0.60752 0.0
C1661 C 0.20246 0.91707 0.58318 0.0
C1662 C 0.22686 0.8759 0.68788 0.0
C1663 C 0.23822 0.87302 0.65702 0.0
C1664 C 0.21884 0.88407 0.66417 0.0
C1665 C 0.22185 0.88922 0.60896 0.0
C1666 C 0.23339 0.88655 0.57836 0.0
C1667 C 0.24162 0.87865 0.60231 0.0
H1668 H 0.7106 0.93367 0.04672 0.0
H1669 H 0.68462 0.89055 0.93807 0.0
H1670 H 0.68423 0.92438 0.09743 0.0
H1671 H 0.6582 0.88135 0.98874 0.0
H1672 H 0.61091 0.87463 0.07571 0.0
H1673 H 0.63607 0.88967 0.01737 0.0
H1674 H 0.66827 0.89804 0.15805 0.0
H1675 H 0.64318 0.88289 0.21623 0.0
C1676 C 0.69917 0.92243 0.03288 0.0
C1677 C 0.69969 0.91274 0.98871 0.0
C1678 C 0.68412 0.91709 0.0621 0.0
C1679 C 0.66925 0.90209 0.04726 0.0
C1680 C 0.66948 0.89302 0.00084 0.0
C1681 C 0.6846 0.89825 0.97195 0.0
C1682 C 0.62338 0.87997 0.09432 0.0
C1683 C 0.62512 0.87755 0.15045 0.0
C1684 C 0.63774 0.88848 0.06088 0.0
C1685 C 0.65408 0.89496 0.0832 0.0
C1686 C 0.65582 0.89331 0.13987 0.0
C1687 C 0.64147 0.88459 0.17312 0.0
H1688 H 0.13134 0.74288 0.06854 0.0
H1689 H 0.12801 0.76941 0.21089 0.0
H1690 H 0.11502 0.75263 0.01513 0.0
H1691 H 0.11148 0.77892 0.15761 0.0
H1692 H 0.07152 0.78262 0.05701 0.0
H1693 H 0.08279 0.76677 0.10507 0.0
H1694 H 0.12289 0.78328 0.9849 0.0
H1695 H 0.11179 0.79937 0.93705 0.0
C1696 C 0.12686 0.75054 0.08866 0.0
C1697 C 0.13098 0.75546 0.1438 0.0
C1698 C 0.1176 0.75615 0.05802 0.0
C1699 C 0.11203 0.76651 0.0823 0.0
C1700 C 0.11551 0.77081 0.13809 0.0
C1701 C 0.12502 0.76544 0.16848 0.0
C1702 C 0.08253 0.78257 0.04011 0.0
C1703 C 0.09086 0.79231 0.99345 0.0
C1704 C 0.08901 0.77359 0.06785 0.0
C1705 C 0.10376 0.77394 0.04888 0.0
C1706 C 0.11144 0.78275 0.00018 0.0
C1707 C 0.10511 0.79196 0.97288 0.0
H1708 H 0.23724 0.35482 0.21911 0.0
H1709 H 0.25883 0.38026 0.06541 0.0
H1710 H 0.22231 0.3276 0.17112 0.0
H1711 H 0.24377 0.35298 0.01733 0.0
H1712 H 0.19361 0.30466 0.95539 0.0
H1713 H 0.21216 0.33212 -0.00076 0.0
H1714 H 0.22848 0.3075 0.11638 0.0
H1715 H 0.21007 0.28013 0.0726 0.0
C1716 C 0.23897 0.35455 0.17519 0.0
C1717 C 0.24918 0.36962 0.14597 0.0
C1718 C 0.23047 0.33898 0.14777 0.0
C1719 C 0.23185 0.33823 0.09051 0.0
C1720 C 0.2424 0.35325 0.06144 0.0
C1721 C 0.2511 0.36881 0.089 0.0
C1722 C 0.20129 0.30517 0.99016 0.0
C1723 C 0.20035 0.29027 0.01072 0.0
C1724 C 0.21196 0.32086 0.01504 0.0
C1725 C 0.2217 0.32188 0.06126 0.0
C1726 C 0.221 0.30703 0.08108 0.0
C1727 C 0.21051 0.2914 0.05587 0.0
H1728 H 0.87021 0.63876 0.27673 0.0
H1729 H 0.86965 0.60662 0.40853 0.0
H1730 H 0.88812 0.66389 0.33196 0.0
H1731 H 0.88768 0.63178 0.46361 0.0
H1732 H 0.89365 0.67853 0.56416 0.0
H1733 H 0.88181 0.65278 0.50866 0.0
H1734 H 0.91632 0.68105 0.37695 0.0
H1735 H 0.92813 0.7069 0.43248 0.0
C1736 C 0.87417 0.63708 0.31709 0.0
C1737 C 0.86841 0.62074 0.3385 0.0
C1738 C 0.88451 0.65148 0.34862 0.0
C1739 C 0.88922 0.64979 0.40226 0.0
C1740 C 0.88409 0.63345 0.42265 0.0
C1741 C 0.87383 0.61907 0.39101 0.0
C1742 C 0.89893 0.67918 0.52377 0.0
C1743 C 0.91172 0.69473 0.50251 0.0
C1744 C 0.8922 0.66441 0.49205 0.0
C1745 C 0.89807 0.66493 0.4383 0.0
C1746 C 0.91143 0.68033 0.41801 0.0
C1747 C 0.91825 0.69508 0.44993 0.0
H1748 H 0.3117 0.21312 0.54679 0.0
H1749 H 0.28146 0.21514 0.41317 0.0
H1750 H 0.33742 0.22978 0.49277 0.0
H1751 H 0.30724 0.23195 0.35926 0.0
H1752 H 0.35305 0.23442 0.26184 0.0
H1753 H 0.32713 0.22423 0.31564 0.0
H1754 H 0.35622 0.25767 0.44856 0.0
H1755 H 0.38222 0.26779 0.39486 0.0
C1756 C 0.31059 0.2174 0.50629 0.0
C1757 C 0.29458 0.21272 0.484 0.0
C1758 C 0.32532 0.22703 0.47546 0.0
C1759 C 0.32432 0.23208 0.42166 0.0
C1760 C 0.30836 0.22807 0.40038 0.0
C1761 C 0.29363 0.21852 0.43134 0.0
C1762 C 0.35387 0.23982 0.30213 0.0
C1763 C 0.36965 0.25178 0.32435 0.0
C1764 C 0.33901 0.23406 0.33284 0.0
C1765 C 0.33968 0.24009 0.38645 0.0
C1766 C 0.35537 0.25267 0.40759 0.0
C1767 C 0.37022 0.25851 0.37674 0.0
H1768 H 0.78384 0.07687 0.41065 0.0
H1769 H 0.78488 0.10486 0.55534 0.0
H1770 H 0.76948 0.08931 0.35988 0.0
H1771 H 0.77046 0.1172 0.50466 0.0
H1772 H 0.73205 0.12526 0.40855 0.0
H1773 H 0.7425 0.10879 0.45717 0.0
H1774 H 0.77918 0.11964 0.32834 0.0
H1775 H 0.76877 0.1362 0.2796 0.0
C1776 C 0.78075 0.08546 0.43182 0.0
C1777 C 0.7855 0.08994 0.48688 0.0
C1778 C 0.77265 0.09265 0.40267 0.0
C1779 C 0.76895 0.10426 0.42831 0.0
C1780 C 0.77306 0.10818 0.48402 0.0
C1781 C 0.78135 0.10116 0.51296 0.0
C1782 C 0.74223 0.12399 0.39031 0.0
C1783 C 0.74966 0.13206 0.3404 0.0
C1784 C 0.74824 0.11463 0.41827 0.0
C1785 C 0.76165 0.11299 0.39656 0.0
C1786 C 0.76871 0.12058 0.34573 0.0
C1787 C 0.76282 0.13012 0.31802 0.0
H1788 H 0.98512 0.43545 0.38803 0.0
H1789 H 0.95654 0.4008 0.25694 0.0
H1790 H 0.01111 0.44605 0.33412 0.0
H1791 H 0.98257 0.41139 0.2031 0.0
H1792 H 0.05701 0.45574 0.23417 0.0
H1793 H 0.03161 0.43866 0.28975 0.0
H1794 H 0.00027 0.43989 0.15847 0.0
H1795 H 0.02557 0.45691 0.103 0.0
C1796 C 0.98446 0.42985 0.34821 0.0
C1797 C 0.9688 0.41743 0.32645 0.0
C1798 C -0.00065 0.43586 0.31745 0.0
C1799 C -0.00119 0.42963 0.26425 0.0
C1800 C 0.98329 0.41653 0.24377 0.0
C1801 C 0.96843 0.41043 0.2747 0.0
C1802 C 0.04466 0.45211 0.2169 0.0
C1803 C 0.04324 0.45773 0.16443 0.0
C1804 C 0.03016 0.4424 0.24878 0.0
C1805 C 0.014 0.43799 0.22846 0.0
C1806 C 0.01255 0.44294 0.17496 0.0
C1807 C 0.02704 0.45278 0.14334 0.0
H1808 H 0.53016 0.58102 0.25741 0.0
H1809 H 0.5238 0.55363 0.10617 0.0
H1810 H 0.54375 0.56637 0.2993 0.0
H1811 H 0.53764 0.53916 0.14802 0.0
H1812 H 0.58046 0.53257 0.22843 0.0
H1813 H 0.56763 0.54797 0.1868 0.0
H1814 H 0.53354 0.53482 0.32487 0.0
H1815 H 0.54622 0.51916 0.36635 0.0
C1816 C 0.5318 0.57198 0.233 0.0
C1817 C 0.52595 0.56846 0.17852 0.0
C1818 C 0.53947 0.56354 0.2571 0.0
C1819 C 0.54169 0.55164 0.22688 0.0
C1820 C 0.53615 0.54836 0.17206 0.0
C1821 C 0.52821 0.55659 0.14821 0.0
C1822 C 0.57027 0.53301 0.24999 0.0
C1823 C 0.56432 0.52469 0.30062 0.0
C1824 C 0.56289 0.54174 0.22602 0.0
C1825 C 0.54961 0.54254 0.25264 0.0
C1826 C 0.54384 0.53446 0.30371 0.0
C1827 C 0.55104 0.52548 0.3273 0.0
H1828 H 0.45662 0.97112 0.13158 0.0
H1829 H 0.40973 0.96001 0.21147 0.0
H1830 H 0.47067 -0.00038 0.17137 0.0
H1831 H 0.42382 0.9883 0.25219 0.0
H1832 H 0.45042 0.046 0.27327 0.0
H1833 H 0.43622 0.01814 0.22921 0.0
H1834 H 0.48016 0.01283 0.26083 0.0
H1835 H 0.49446 0.04083 0.30375 0.0
C1836 C 0.44932 0.97479 0.15753 0.0
C1837 C 0.4321 0.96335 0.16845 0.0
C1838 C 0.45738 0.99106 0.18064 0.0
C1839 C 0.44838 0.99621 0.21518 0.0
C1840 C 0.43107 0.98482 0.2253 0.0
C1841 C 0.42302 0.96858 0.20216 0.0
C1842 C 0.45701 0.03885 0.27088 0.0
C1843 C 0.47353 0.04557 0.29199 0.0
C1844 C 0.44887 0.02287 0.24581 0.0
C1845 C 0.45707 0.01327 0.24139 0.0
C1846 C 0.47358 0.02 0.26279 0.0
C1847 C 0.48173 0.03599 0.28778 0.0
H1848 H 0.55119 0.01719 0.88765 0.0
H1849 H 0.58068 0.04004 0.74107 0.0
H1850 H 0.53732 0.98941 0.84234 0.0
H1851 H 0.56669 0.01234 0.6958 0.0
H1852 H 0.51876 0.96537 0.61915 0.0
H1853 H 0.53571 0.99279 0.66506 0.0
H1854 H 0.54459 0.96766 0.80092 0.0
H1855 H 0.52781 0.94027 0.75486 0.0
C1856 C 0.55486 0.01623 0.84607 0.0
C1857 C 0.56699 0.03076 0.81786 0.0
C1858 C 0.54695 0.00036 0.82022 0.0
C1859 C 0.55087 0.99879 0.76549 0.0
C1860 C 0.56333 0.01324 0.73784 0.0
C1861 C 0.5714 0.02905 0.7639 0.0
C1862 C 0.52446 0.96574 0.65857 0.0
C1863 C 0.52198 0.95072 0.68344 0.0
C1864 C 0.5342 0.98141 0.68471 0.0
C1865 C 0.54142 0.9823 0.73653 0.0
C1866 C 0.53907 0.9673 0.76115 0.0
C1867 C 0.52955 0.95166 0.73465 0.0
H1868 H 0.00856 0.55851 0.58126 0.0
H1869 H 0.03723 0.59709 0.70253 0.0
H1870 H 0.9829 0.5486 0.63634 0.0
H1871 H 0.0115 0.58717 0.75764 0.0
H1872 H 0.97014 0.54361 0.86915 0.0
H1873 H 0.99488 0.56016 0.81076 0.0
H1874 H 0.96187 0.55567 0.67631 0.0
H1875 H 0.93709 0.53907 0.7347 0.0
C1876 C 0.00929 0.56513 0.61902 0.0
C1877 C 0.02492 0.57849 0.63776 0.0
C1878 C 0.99457 0.55949 0.65051 0.0
C1879 C 0.99523 0.56701 0.70158 0.0
C1880 C 0.01067 0.58101 0.71876 0.0
C1881 C 0.02536 0.58676 0.68701 0.0
C1882 C 0.96818 0.54643 0.82745 0.0
C1883 C 0.95168 0.53995 0.80639 0.0
C1884 C 0.98235 0.55598 0.79408 0.0
C1885 C 0.98031 0.55914 0.73885 0.0
C1886 C 0.96382 0.5533 0.71855 0.0
C1887 C 0.94965 0.54387 0.75207 0.0
H1888 H 0.45228 0.476 0.60844 0.0
H1889 H 0.4219 0.46674 0.75447 0.0
H1890 H 0.46563 0.461 0.64996 0.0
H1891 H 0.43544 0.452 0.79614 0.0
H1892 H 0.48132 0.44797 0.86858 0.0
H1893 H 0.46638 0.46141 0.82735 0.0
H1894 H 0.45585 0.43014 0.68304 0.0
H1895 H 0.47055 0.41651 0.72443 0.0
C1896 C 0.44844 0.47072 0.64928 0.0
C1897 C 0.43606 0.4725 0.67822 0.0
C1898 C 0.45602 0.46211 0.67291 0.0
C1899 C 0.45156 0.4554 0.72624 0.0
C1900 C 0.43916 0.45716 0.75511 0.0
C1901 C 0.43138 0.4655 0.73114 0.0
C1902 C 0.4757 0.4439 0.82824 0.0
C1903 C 0.47707 0.4312 0.79971 0.0
C1904 C 0.46713 0.45154 0.80477 0.0
C1905 C 0.46003 0.44682 0.752 0.0
C1906 C 0.46132 0.43407 0.72361 0.0
C1907 C 0.46964 0.42623 0.74744 0.0
loop_
_geom_bond_atom_site_label_1
_geom_bond_atom_site_label_2
_geom_bond_distance
_geom_bond_site_symmetry_2
_ccdc_geom_bond_type
In0 O1 2.294 . S
In0 O2 2.326 . S
In0 O6 2.266 . S
In0 O7 2.326 . S
In0 O8 2.284 . S
In0 O9 2.326 . S
In0 O11 2.294 . S
In0 O12 2.326 . S
O1 In0 2.294 . S
O1 C10 1.240 . S
O2 In0 2.326 . S
O2 C10 1.252 . S
C3 O6 1.252 . S
C3 O7 1.260 . S
C4 O11 1.240 . S
C4 O12 1.252 . S
C5 O8 1.248 1_556 S
C5 O9 1.260 1_556 S
O6 In0 2.266 . S
O6 C3 1.252 . S
O7 In0 2.326 . S
O7 C3 1.260 . S
O8 In0 2.284 . S
O8 C5 1.248 1_554 S
O9 In0 2.326 . S
O9 C5 1.260 1_554 S
C10 O1 1.240 . S
C10 O2 1.252 . S
O11 In0 2.294 . S
O11 C4 1.240 . S
O12 In0 2.326 . S
O12 C4 1.252 . S
In13 O14 2.294 . S
In13 O15 2.326 . S
In13 O19 2.266 . S
In13 O20 2.326 . S
In13 O21 2.284 . S
In13 O22 2.326 . S
In13 O24 2.294 . S
In13 O25 2.326 . S
O14 In13 2.294 . S
O14 C23 1.240 . S
O15 In13 2.326 . S
O15 C23 1.252 . S
C16 O19 1.252 . S
C16 O20 1.260 . S
C17 O24 1.240 . S
C17 O25 1.252 . S
C18 O21 1.248 1_556 S
C18 O22 1.260 1_556 S
O19 In13 2.266 . S
O19 C16 1.252 . S
O20 In13 2.326 . S
O20 C16 1.260 . S
O21 In13 2.284 . S
O21 C18 1.248 1_554 S
O22 In13 2.326 . S
O22 C18 1.260 1_554 S
C23 O14 1.240 . S
C23 O15 1.252 . S
O24 In13 2.294 . S
O24 C17 1.240 . S
O25 In13 2.326 . S
O25 C17 1.252 . S
In26 O27 2.294 . S
In26 O28 2.326 . S
In26 O32 2.266 . S
In26 O33 2.326 . S
In26 O34 2.266 . S
In26 O35 2.326 . S
In26 O37 2.294 . S
In26 O38 2.326 . S
O27 In26 2.294 . S
O27 C36 1.240 . S
O28 In26 2.326 . S
O28 C36 1.252 . S
C29 O32 1.252 1_556 S
C29 O33 1.260 1_556 S
C30 O37 1.240 . S
C30 O38 1.252 . S
C31 O34 1.252 . S
C31 O35 1.260 . S
O32 In26 2.266 . S
O32 C29 1.252 1_554 S
O33 In26 2.326 . S
O33 C29 1.260 1_554 S
O34 In26 2.266 . S
O34 C31 1.252 . S
O35 In26 2.326 . S
O35 C31 1.260 . S
C36 O27 1.240 . S
C36 O28 1.252 . S
O37 In26 2.294 . S
O37 C30 1.240 . S
O38 In26 2.326 . S
O38 C30 1.252 . S
In39 O40 2.294 . S
In39 O41 2.326 . S
In39 O45 2.266 . S
In39 O46 2.326 . S
In39 O47 2.266 . S
In39 O48 2.326 . S
In39 O50 2.294 . S
In39 O51 2.326 . S
O40 In39 2.294 . S
O40 C49 1.240 . S
O41 In39 2.326 . S
O41 C49 1.252 . S
C42 O45 1.252 . S
C42 O46 1.260 . S
C43 O50 1.240 . S
C43 O51 1.252 . S
C44 O47 1.252 . S
C44 O48 1.260 . S
O45 In39 2.266 . S
O45 C42 1.252 . S
O46 In39 2.326 . S
O46 C42 1.260 . S
O47 In39 2.266 . S
O47 C44 1.252 . S
O48 In39 2.326 . S
O48 C44 1.260 . S
C49 O40 1.240 . S
C49 O41 1.252 . S
O50 In39 2.294 . S
O50 C43 1.240 . S
O51 In39 2.326 . S
O51 C43 1.252 . S
In52 O53 2.294 . S
In52 O54 2.326 . S
In52 O58 2.266 . S
In52 O59 2.326 . S
In52 O60 2.266 . S
In52 O61 2.326 . S
In52 O63 2.294 . S
In52 O64 2.326 . S
O53 In52 2.294 . S
O53 C62 1.240 . S
O54 In52 2.326 . S
O54 C62 1.252 . S
C55 O58 1.252 . S
C55 O59 1.260 . S
C56 O63 1.240 . S
C56 O64 1.252 . S
C57 O60 1.252 . S
C57 O61 1.260 . S
O58 In52 2.266 . S
O58 C55 1.252 . S
O59 In52 2.326 . S
O59 C55 1.260 . S
O60 In52 2.266 . S
O60 C57 1.252 . S
O61 In52 2.326 . S
O61 C57 1.260 . S
C62 O53 1.240 . S
C62 O54 1.252 . S
O63 In52 2.294 . S
O63 C56 1.240 . S
O64 In52 2.326 . S
O64 C56 1.252 . S
In65 O66 2.294 . S
In65 O67 2.326 . S
In65 O71 2.266 . S
In65 O72 2.326 . S
In65 O73 2.266 . S
In65 O74 2.326 . S
In65 O76 2.294 . S
In65 O77 2.326 . S
O66 In65 2.294 . S
O66 C75 1.240 . S
O67 In65 2.326 . S
O67 C75 1.252 . S
C68 O71 1.252 . S
C68 O72 1.260 . S
C69 O76 1.240 . S
C69 O77 1.252 . S
C70 O73 1.252 . S
C70 O74 1.260 . S
O71 In65 2.266 . S
O71 C68 1.252 . S
O72 In65 2.326 . S
O72 C68 1.260 . S
O73 In65 2.266 . S
O73 C70 1.252 . S
O74 In65 2.326 . S
O74 C70 1.260 . S
C75 O66 1.240 . S
C75 O67 1.252 . S
O76 In65 2.294 . S
O76 C69 1.240 . S
O77 In65 2.326 . S
O77 C69 1.252 . S
In78 O79 2.294 . S
In78 O80 2.326 . S
In78 O84 2.266 . S
In78 O85 2.326 . S
In78 O86 2.284 . S
In78 O87 2.326 . S
In78 O89 2.294 . S
In78 O90 2.326 . S
O79 In78 2.294 . S
O79 C88 1.240 . S
O80 In78 2.326 . S
O80 C88 1.252 . S
C81 O84 1.252 . S
C81 O85 1.260 . S
C82 O89 1.240 . S
C82 O90 1.252 . S
C83 O86 1.248 1_554 S
C83 O87 1.260 1_554 S
O84 In78 2.266 . S
O84 C81 1.252 . S
O85 In78 2.326 . S
O85 C81 1.260 . S
O86 In78 2.284 . S
O86 C83 1.248 1_556 S
O87 In78 2.326 . S
O87 C83 1.260 1_556 S
C88 O79 1.240 . S
C88 O80 1.252 . S
O89 In78 2.294 . S
O89 C82 1.240 . S
O90 In78 2.326 . S
O90 C82 1.252 . S
In91 O92 2.294 . S
In91 O93 2.326 . S
In91 O97 2.266 . S
In91 O98 2.326 . S
In91 O99 2.284 . S
In91 O100 2.326 . S
In91 O102 2.294 . S
In91 O103 2.326 . S
O92 In91 2.294 . S
O92 C101 1.240 . S
O93 In91 2.326 . S
O93 C101 1.252 . S
C94 O97 1.252 . S
C94 O98 1.260 . S
C95 O102 1.240 . S
C95 O103 1.252 . S
C96 O99 1.248 1_554 S
C96 O100 1.260 1_554 S
O97 In91 2.266 . S
O97 C94 1.252 . S
O98 In91 2.326 . S
O98 C94 1.260 . S
O99 In91 2.284 . S
O99 C96 1.248 1_556 S
O100 In91 2.326 . S
O100 C96 1.260 1_556 S
C101 O92 1.240 . S
C101 O93 1.252 . S
O102 In91 2.294 . S
O102 C95 1.240 . S
O103 In91 2.326 . S
O103 C95 1.252 . S
In104 O105 2.294 . S
In104 O106 2.326 . S
In104 O110 2.266 . S
In104 O111 2.326 . S
In104 O112 2.266 . S
In104 O113 2.326 . S
In104 O115 2.294 . S
In104 O116 2.326 . S
O105 In104 2.294 . S
O105 C114 1.240 . S
O106 In104 2.326 . S
O106 C114 1.252 . S
C107 O110 1.252 1_554 S
C107 O111 1.260 1_554 S
C108 O115 1.240 . S
C108 O116 1.252 . S
C109 O112 1.252 . S
C109 O113 1.260 . S
O110 In104 2.266 . S
O110 C107 1.252 1_556 S
O111 In104 2.326 . S
O111 C107 1.260 1_556 S
O112 In104 2.266 . S
O112 C109 1.252 . S
O113 In104 2.326 . S
O113 C109 1.260 . S
C114 O105 1.240 . S
C114 O106 1.252 . S
O115 In104 2.294 . S
O115 C108 1.240 . S
O116 In104 2.326 . S
O116 C108 1.252 . S
In117 O118 2.294 . S
In117 O119 2.326 . S
In117 O123 2.266 . S
In117 O124 2.326 . S
In117 O125 2.266 . S
In117 O126 2.326 . S
In117 O128 2.294 . S
In117 O129 2.326 . S
O118 In117 2.294 . S
O118 C127 1.240 . S
O119 In117 2.326 . S
O119 C127 1.252 . S
C120 O123 1.252 . S
C120 O124 1.260 . S
C121 O128 1.240 . S
C121 O129 1.252 . S
C122 O125 1.252 . S
C122 O126 1.260 . S
O123 In117 2.266 . S
O123 C120 1.252 . S
O124 In117 2.326 . S
O124 C120 1.260 . S
O125 In117 2.266 . S
O125 C122 1.252 . S
O126 In117 2.326 . S
O126 C122 1.260 . S
C127 O118 1.240 . S
C127 O119 1.252 . S
O128 In117 2.294 . S
O128 C121 1.240 . S
O129 In117 2.326 . S
O129 C121 1.252 . S
In130 O131 2.294 . S
In130 O132 2.326 . S
In130 O136 2.266 . S
In130 O137 2.326 . S
In130 O138 2.266 . S
In130 O139 2.326 . S
In130 O141 2.294 . S
In130 O142 2.326 . S
O131 In130 2.294 . S
O131 C140 1.240 . S
O132 In130 2.326 . S
O132 C140 1.252 . S
C133 O136 1.252 . S
C133 O137 1.260 . S
C134 O141 1.240 . S
C134 O142 1.252 . S
C135 O138 1.252 . S
C135 O139 1.260 . S
O136 In130 2.266 . S
O136 C133 1.252 . S
O137 In130 2.326 . S
O137 C133 1.260 . S
O138 In130 2.266 . S
O138 C135 1.252 . S
O139 In130 2.326 . S
O139 C135 1.260 . S
C140 O131 1.240 . S
C140 O132 1.252 . S
O141 In130 2.294 . S
O141 C134 1.240 . S
O142 In130 2.326 . S
O142 C134 1.252 . S
In143 O144 2.294 . S
In143 O145 2.326 . S
In143 O149 2.266 . S
In143 O150 2.326 . S
In143 O151 2.266 . S
In143 O152 2.326 . S
In143 O154 2.294 . S
In143 O155 2.326 . S
O144 In143 2.294 . S
O144 C153 1.240 . S
O145 In143 2.326 . S
O145 C153 1.252 . S
C146 O149 1.252 . S
C146 O150 1.260 . S
C147 O154 1.240 . S
C147 O155 1.252 . S
C148 O151 1.252 . S
C148 O152 1.260 . S
O149 In143 2.266 . S
O149 C146 1.252 . S
O150 In143 2.326 . S
O150 C146 1.260 . S
O151 In143 2.266 . S
O151 C148 1.252 . S
O152 In143 2.326 . S
O152 C148 1.260 . S
C153 O144 1.240 . S
C153 O145 1.252 . S
O154 In143 2.294 . S
O154 C147 1.240 . S
O155 In143 2.326 . S
O155 C147 1.252 . S
In156 O157 2.294 . S
In156 O158 2.326 . S
In156 O162 2.266 . S
In156 O163 2.326 . S
In156 O164 2.266 . S
In156 O165 2.326 . S
In156 O167 2.294 . S
In156 O168 2.326 . S
O157 In156 2.294 . S
O157 C166 1.240 . S
O158 In156 2.326 . S
O158 C166 1.252 . S
C159 O162 1.252 . S
C159 O163 1.260 . S
C160 O167 1.240 . S
C160 O168 1.252 . S
C161 O164 1.252 . S
C161 O165 1.260 . S
O162 In156 2.266 . S
O162 C159 1.252 . S
O163 In156 2.326 . S
O163 C159 1.260 . S
O164 In156 2.266 . S
O164 C161 1.252 . S
O165 In156 2.326 . S
O165 C161 1.260 . S
C166 O157 1.240 . S
C166 O158 1.252 . S
O167 In156 2.294 . S
O167 C160 1.240 . S
O168 In156 2.326 . S
O168 C160 1.252 . S
In169 O170 2.294 . S
In169 O171 2.326 . S
In169 O175 2.266 . S
In169 O176 2.326 . S
In169 O177 2.266 . S
In169 O178 2.326 . S
In169 O180 2.294 . S
In169 O181 2.326 . S
O170 In169 2.294 . S
O170 C179 1.240 . S
O171 In169 2.326 . S
O171 C179 1.252 . S
C172 O175 1.252 . S
C172 O176 1.260 . S
C173 O180 1.240 . S
C173 O181 1.252 . S
C174 O177 1.252 . S
C174 O178 1.260 . S
O175 In169 2.266 . S
O175 C172 1.252 . S
O176 In169 2.326 . S
O176 C172 1.260 . S
O177 In169 2.266 . S
O177 C174 1.252 . S
O178 In169 2.326 . S
O178 C174 1.260 . S
C179 O170 1.240 . S
C179 O171 1.252 . S
O180 In169 2.294 . S
O180 C173 1.240 . S
O181 In169 2.326 . S
O181 C173 1.252 . S
In182 O183 2.294 . S
In182 O184 2.326 . S
In182 O188 2.266 . S
In182 O189 2.326 . S
In182 O190 2.266 . S
In182 O191 2.326 . S
In182 O193 2.294 . S
In182 O194 2.326 . S
O183 In182 2.294 . S
O183 C192 1.240 . S
O184 In182 2.326 . S
O184 C192 1.252 . S
C185 O188 1.252 . S
C185 O189 1.260 . S
C186 O193 1.240 . S
C186 O194 1.252 . S
C187 O190 1.252 . S
C187 O191 1.260 . S
O188 In182 2.266 . S
O188 C185 1.252 . S
O189 In182 2.326 . S
O189 C185 1.260 . S
O190 In182 2.266 . S
O190 C187 1.252 . S
O191 In182 2.326 . S
O191 C187 1.260 . S
C192 O183 1.240 . S
C192 O184 1.252 . S
O193 In182 2.294 . S
O193 C186 1.240 . S
O194 In182 2.326 . S
O194 C186 1.252 . S
In195 O196 2.294 . S
In195 O197 2.326 . S
In195 O201 2.266 . S
In195 O202 2.326 . S
In195 O203 2.266 . S
In195 O204 2.326 . S
In195 O206 2.294 . S
In195 O207 2.326 . S
O196 In195 2.294 . S
O196 C205 1.240 . S
O197 In195 2.326 . S
O197 C205 1.252 . S
C198 O201 1.252 . S
C198 O202 1.260 . S
C199 O206 1.240 . S
C199 O207 1.252 . S
C200 O203 1.252 . S
C200 O204 1.260 . S
O201 In195 2.266 . S
O201 C198 1.252 . S
O202 In195 2.326 . S
O202 C198 1.260 . S
O203 In195 2.266 . S
O203 C200 1.252 . S
O204 In195 2.326 . S
O204 C200 1.260 . S
C205 O196 1.240 . S
C205 O197 1.252 . S
O206 In195 2.294 . S
O206 C199 1.240 . S
O207 In195 2.326 . S
O207 C199 1.252 . S
In208 O209 2.294 . S
In208 O210 2.326 . S
In208 O214 2.266 . S
In208 O215 2.326 . S
In208 O216 2.266 . S
In208 O217 2.326 . S
In208 O219 2.294 . S
In208 O220 2.326 . S
O209 In208 2.294 . S
O209 C218 1.240 . S
O210 In208 2.326 . S
O210 C218 1.252 . S
C211 O214 1.252 . S
C211 O215 1.260 . S
C212 O219 1.240 . S
C212 O220 1.252 . S
C213 O216 1.252 . S
C213 O217 1.260 . S
O214 In208 2.266 . S
O214 C211 1.252 . S
O215 In208 2.326 . S
O215 C211 1.260 . S
O216 In208 2.266 . S
O216 C213 1.252 . S
O217 In208 2.326 . S
O217 C213 1.260 . S
C218 O209 1.240 . S
C218 O210 1.252 . S
O219 In208 2.294 . S
O219 C212 1.240 . S
O220 In208 2.326 . S
O220 C212 1.252 . S
In221 O222 2.294 . S
In221 O223 2.326 . S
In221 O227 2.266 . S
In221 O228 2.326 . S
In221 O229 2.266 . S
In221 O230 2.326 . S
In221 O232 2.294 . S
In221 O233 2.326 . S
O222 In221 2.294 . S
O222 C231 1.240 . S
O223 In221 2.326 . S
O223 C231 1.252 . S
C224 O227 1.252 . S
C224 O228 1.260 . S
C225 O232 1.240 . S
C225 O233 1.252 . S
C226 O229 1.252 . S
C226 O230 1.260 . S
O227 In221 2.266 . S
O227 C224 1.252 . S
O228 In221 2.326 . S
O228 C224 1.260 . S
O229 In221 2.266 . S
O229 C226 1.252 . S
O230 In221 2.326 . S
O230 C226 1.260 . S
C231 O222 1.240 . S
C231 O223 1.252 . S
O232 In221 2.294 . S
O232 C225 1.240 . S
O233 In221 2.326 . S
O233 C225 1.252 . S
In234 O235 2.294 . S
In234 O236 2.326 . S
In234 O240 2.266 . S
In234 O241 2.326 . S
In234 O242 2.266 . S
In234 O243 2.326 . S
In234 O245 2.294 . S
In234 O246 2.326 . S
O235 In234 2.294 . S
O235 C244 1.240 . S
O236 In234 2.326 . S
O236 C244 1.252 . S
C237 O240 1.252 . S
C237 O241 1.260 . S
C238 O245 1.240 . S
C238 O246 1.252 . S
C239 O242 1.252 . S
C239 O243 1.260 . S
O240 In234 2.266 . S
O240 C237 1.252 . S
O241 In234 2.326 . S
O241 C237 1.260 . S
O242 In234 2.266 . S
O242 C239 1.252 . S
O243 In234 2.326 . S
O243 C239 1.260 . S
C244 O235 1.240 . S
C244 O236 1.252 . S
O245 In234 2.294 . S
O245 C238 1.240 . S
O246 In234 2.326 . S
O246 C238 1.252 . S
In247 O248 2.294 . S
In247 O249 2.326 . S
In247 O253 2.266 . S
In247 O254 2.326 . S
In247 O255 2.266 . S
In247 O256 2.326 . S
In247 O258 2.294 . S
In247 O259 2.326 . S
O248 In247 2.294 . S
O248 C257 1.240 . S
O249 In247 2.326 . S
O249 C257 1.252 . S
C250 O253 1.252 . S
C250 O254 1.260 . S
C251 O258 1.240 . S
C251 O259 1.252 . S
C252 O255 1.252 . S
C252 O256 1.260 . S
O253 In247 2.266 . S
O253 C250 1.252 . S
O254 In247 2.326 . S
O254 C250 1.260 . S
O255 In247 2.266 . S
O255 C252 1.252 . S
O256 In247 2.326 . S
O256 C252 1.260 . S
C257 O248 1.240 . S
C257 O249 1.252 . S
O258 In247 2.294 . S
O258 C251 1.240 . S
O259 In247 2.326 . S
O259 C251 1.252 . S
In260 O261 2.294 . S
In260 O262 2.326 . S
In260 O266 2.266 . S
In260 O267 2.326 . S
In260 O268 2.266 . S
In260 O269 2.326 . S
In260 O271 2.294 . S
In260 O272 2.326 . S
O261 In260 2.294 . S
O261 C270 1.240 . S
O262 In260 2.326 . S
O262 C270 1.252 . S
C263 O266 1.252 . S
C263 O267 1.260 . S
C264 O271 1.240 . S
C264 O272 1.252 . S
C265 O268 1.252 . S
C265 O269 1.260 . S
O266 In260 2.266 . S
O266 C263 1.252 . S
O267 In260 2.326 . S
O267 C263 1.260 . S
O268 In260 2.266 . S
O268 C265 1.252 . S
O269 In260 2.326 . S
O269 C265 1.260 . S
C270 O261 1.240 . S
C270 O262 1.252 . S
O271 In260 2.294 . S
O271 C264 1.240 . S
O272 In260 2.326 . S
O272 C264 1.252 . S
In273 O274 2.294 . S
In273 O275 2.326 . S
In273 O279 2.266 . S
In273 O280 2.326 . S
In273 O281 2.266 . S
In273 O282 2.326 . S
In273 O284 2.294 . S
In273 O285 2.326 . S
O274 In273 2.294 . S
O274 C283 1.240 1_556 S
O275 In273 2.326 . S
O275 C283 1.252 1_556 S
C276 O279 1.252 . S
C276 O280 1.260 . S
C277 O284 1.240 . S
C277 O285 1.252 . S
C278 O281 1.252 . S
C278 O282 1.260 . S
O279 In273 2.266 . S
O279 C276 1.252 . S
O280 In273 2.326 . S
O280 C276 1.260 . S
O281 In273 2.266 . S
O281 C278 1.252 . S
O282 In273 2.326 . S
O282 C278 1.260 . S
C283 O274 1.240 1_554 S
C283 O275 1.252 1_554 S
O284 In273 2.294 . S
O284 C277 1.240 . S
O285 In273 2.326 . S
O285 C277 1.252 . S
In286 O287 2.294 . S
In286 O288 2.326 . S
In286 O292 2.266 . S
In286 O293 2.326 . S
In286 O294 2.266 . S
In286 O295 2.326 . S
In286 O297 2.294 . S
In286 O298 2.326 . S
O287 In286 2.294 . S
O287 C296 1.240 1_556 S
O288 In286 2.326 . S
O288 C296 1.252 1_556 S
C289 O292 1.252 . S
C289 O293 1.260 . S
C290 O297 1.240 . S
C290 O298 1.252 . S
C291 O294 1.252 . S
C291 O295 1.260 . S
O292 In286 2.266 . S
O292 C289 1.252 . S
O293 In286 2.326 . S
O293 C289 1.260 . S
O294 In286 2.266 . S
O294 C291 1.252 . S
O295 In286 2.326 . S
O295 C291 1.260 . S
C296 O287 1.240 1_554 S
C296 O288 1.252 1_554 S
O297 In286 2.294 . S
O297 C290 1.240 . S
O298 In286 2.326 . S
O298 C290 1.252 . S
In299 O300 2.294 . S
In299 O301 2.326 . S
In299 O305 2.266 . S
In299 O306 2.326 . S
In299 O307 2.266 . S
In299 O308 2.326 . S
In299 O310 2.294 . S
In299 O311 2.326 . S
O300 In299 2.294 . S
O300 C309 1.240 . S
O301 In299 2.326 . S
O301 C309 1.252 . S
C302 O305 1.252 . S
C302 O306 1.260 . S
C303 O310 1.240 1_554 S
C303 O311 1.252 1_554 S
C304 O307 1.252 . S
C304 O308 1.260 . S
O305 In299 2.266 . S
O305 C302 1.252 . S
O306 In299 2.326 . S
O306 C302 1.260 . S
O307 In299 2.266 . S
O307 C304 1.252 . S
O308 In299 2.326 . S
O308 C304 1.260 . S
C309 O300 1.240 . S
C309 O301 1.252 . S
O310 In299 2.294 . S
O310 C303 1.240 1_556 S
O311 In299 2.326 . S
O311 C303 1.252 1_556 S
In312 O313 2.294 . S
In312 O314 2.326 . S
In312 O318 2.266 . S
In312 O319 2.326 . S
In312 O320 2.266 . S
In312 O321 2.326 . S
In312 O323 2.294 . S
In312 O324 2.326 . S
O313 In312 2.294 . S
O313 C322 1.240 . S
O314 In312 2.326 . S
O314 C322 1.252 . S
C315 O318 1.252 . S
C315 O319 1.260 . S
C316 O323 1.240 . S
C316 O324 1.252 . S
C317 O320 1.252 . S
C317 O321 1.260 . S
O318 In312 2.266 . S
O318 C315 1.252 . S
O319 In312 2.326 . S
O319 C315 1.260 . S
O320 In312 2.266 . S
O320 C317 1.252 . S
O321 In312 2.326 . S
O321 C317 1.260 . S
C322 O313 1.240 . S
C322 O314 1.252 . S
O323 In312 2.294 . S
O323 C316 1.240 . S
O324 In312 2.326 . S
O324 C316 1.252 . S
In325 O326 2.294 . S
In325 O327 2.326 . S
In325 O331 2.266 . S
In325 O332 2.326 . S
In325 O333 2.266 . S
In325 O334 2.326 . S
In325 O336 2.294 . S
In325 O337 2.326 . S
O326 In325 2.294 . S
O326 C335 1.240 . S
O327 In325 2.326 . S
O327 C335 1.252 . S
C328 O331 1.252 . S
C328 O332 1.260 . S
C329 O336 1.240 . S
C329 O337 1.252 . S
C330 O333 1.252 . S
C330 O334 1.260 . S
O331 In325 2.266 . S
O331 C328 1.252 . S
O332 In325 2.326 . S
O332 C328 1.260 . S
O333 In325 2.266 . S
O333 C330 1.252 . S
O334 In325 2.326 . S
O334 C330 1.260 . S
C335 O326 1.240 . S
C335 O327 1.252 . S
O336 In325 2.294 . S
O336 C329 1.240 . S
O337 In325 2.326 . S
O337 C329 1.252 . S
In338 O339 2.294 . S
In338 O340 2.326 . S
In338 O344 2.266 . S
In338 O345 2.326 . S
In338 O346 2.266 . S
In338 O347 2.326 . S
In338 O349 2.294 . S
In338 O350 2.326 . S
O339 In338 2.294 . S
O339 C348 1.240 . S
O340 In338 2.326 . S
O340 C348 1.252 . S
C341 O344 1.252 . S
C341 O345 1.260 . S
C342 O349 1.240 . S
C342 O350 1.252 . S
C343 O346 1.252 . S
C343 O347 1.260 . S
O344 In338 2.266 . S
O344 C341 1.252 . S
O345 In338 2.326 . S
O345 C341 1.260 . S
O346 In338 2.266 . S
O346 C343 1.252 . S
O347 In338 2.326 . S
O347 C343 1.260 . S
C348 O339 1.240 . S
C348 O340 1.252 . S
O349 In338 2.294 . S
O349 C342 1.240 . S
O350 In338 2.326 . S
O350 C342 1.252 . S
In351 O352 2.294 . S
In351 O353 2.326 . S
In351 O357 2.266 . S
In351 O358 2.326 . S
In351 O359 2.266 . S
In351 O360 2.326 . S
In351 O362 2.294 . S
In351 O363 2.326 . S
O352 In351 2.294 . S
O352 C361 1.240 . S
O353 In351 2.326 . S
O353 C361 1.252 . S
C354 O357 1.252 . S
C354 O358 1.260 . S
C355 O362 1.240 1_556 S
C355 O363 1.252 1_556 S
C356 O359 1.252 . S
C356 O360 1.260 . S
O357 In351 2.266 . S
O357 C354 1.252 . S
O358 In351 2.326 . S
O358 C354 1.260 . S
O359 In351 2.266 . S
O359 C356 1.252 . S
O360 In351 2.326 . S
O360 C356 1.260 . S
C361 O352 1.240 . S
C361 O353 1.252 . S
O362 In351 2.294 . S
O362 C355 1.240 1_554 S
O363 In351 2.326 . S
O363 C355 1.252 1_554 S
In364 O365 2.294 . S
In364 O366 2.326 . S
In364 O370 2.266 . S
In364 O371 2.326 . S
In364 O372 2.266 . S
In364 O373 2.326 . S
In364 O375 2.294 . S
In364 O376 2.326 . S
O365 In364 2.294 . S
O365 C374 1.240 . S
O366 In364 2.326 . S
O366 C374 1.252 . S
C367 O370 1.252 . S
C367 O371 1.260 . S
C368 O375 1.240 1_556 S
C368 O376 1.252 1_556 S
C369 O372 1.252 . S
C369 O373 1.260 . S
O370 In364 2.266 . S
O370 C367 1.252 . S
O371 In364 2.326 . S
O371 C367 1.260 . S
O372 In364 2.266 . S
O372 C369 1.252 . S
O373 In364 2.326 . S
O373 C369 1.260 . S
C374 O365 1.240 . S
C374 O366 1.252 . S
O375 In364 2.294 . S
O375 C368 1.240 1_554 S
O376 In364 2.326 . S
O376 C368 1.252 1_554 S
In377 O378 2.294 . S
In377 O379 2.326 . S
In377 O383 2.266 . S
In377 O384 2.326 . S
In377 O385 2.266 . S
In377 O386 2.326 . S
In377 O388 2.294 . S
In377 O389 2.326 . S
O378 In377 2.294 . S
O378 C387 1.240 . S
O379 In377 2.326 . S
O379 C387 1.252 . S
C380 O383 1.252 . S
C380 O384 1.260 . S
C381 O388 1.240 1_556 S
C381 O389 1.252 1_556 S
C382 O385 1.252 . S
C382 O386 1.260 . S
O383 In377 2.266 . S
O383 C380 1.252 . S
O384 In377 2.326 . S
O384 C380 1.260 . S
O385 In377 2.266 . S
O385 C382 1.252 . S
O386 In377 2.326 . S
O386 C382 1.260 . S
C387 O378 1.240 . S
C387 O379 1.252 . S
O388 In377 2.294 . S
O388 C381 1.240 1_554 S
O389 In377 2.326 . S
O389 C381 1.252 1_554 S
In390 O391 2.294 . S
In390 O392 2.326 . S
In390 O396 2.266 . S
In390 O397 2.326 . S
In390 O398 2.266 . S
In390 O399 2.326 . S
In390 O401 2.294 . S
In390 O402 2.326 . S
O391 In390 2.294 . S
O391 C400 1.240 . S
O392 In390 2.326 . S
O392 C400 1.252 . S
C393 O396 1.252 . S
C393 O397 1.260 . S
C394 O401 1.240 . S
C394 O402 1.252 . S
C395 O398 1.252 . S
C395 O399 1.260 . S
O396 In390 2.266 . S
O396 C393 1.252 . S
O397 In390 2.326 . S
O397 C393 1.260 . S
O398 In390 2.266 . S
O398 C395 1.252 . S
O399 In390 2.326 . S
O399 C395 1.260 . S
C400 O391 1.240 . S
C400 O392 1.252 . S
O401 In390 2.294 . S
O401 C394 1.240 . S
O402 In390 2.326 . S
O402 C394 1.252 . S
In403 O404 2.294 . S
In403 O405 2.326 . S
In403 O409 2.266 . S
In403 O410 2.326 . S
In403 O411 2.266 . S
In403 O412 2.326 . S
In403 O414 2.294 . S
In403 O415 2.326 . S
O404 In403 2.294 . S
O404 C413 1.240 . S
O405 In403 2.326 . S
O405 C413 1.252 . S
C406 O409 1.252 . S
C406 O410 1.260 . S
C407 O414 1.240 . S
C407 O415 1.252 . S
C408 O411 1.252 . S
C408 O412 1.260 . S
O409 In403 2.266 . S
O409 C406 1.252 . S
O410 In403 2.326 . S
O410 C406 1.260 . S
O411 In403 2.266 . S
O411 C408 1.252 . S
O412 In403 2.326 . S
O412 C408 1.260 . S
C413 O404 1.240 . S
C413 O405 1.252 . S
O414 In403 2.294 . S
O414 C407 1.240 . S
O415 In403 2.326 . S
O415 C407 1.252 . S
In416 O417 2.294 . S
In416 O418 2.326 . S
In416 O422 2.266 . S
In416 O423 2.326 . S
In416 O424 2.266 . S
In416 O425 2.326 . S
In416 O427 2.294 . S
In416 O428 2.326 . S
O417 In416 2.294 . S
O417 C426 1.240 . S
O418 In416 2.326 . S
O418 C426 1.252 . S
C419 O422 1.252 . S
C419 O423 1.260 . S
C420 O427 1.240 . S
C420 O428 1.252 . S
C421 O424 1.252 . S
C421 O425 1.260 . S
O422 In416 2.266 . S
O422 C419 1.252 . S
O423 In416 2.326 . S
O423 C419 1.260 . S
O424 In416 2.266 . S
O424 C421 1.252 . S
O425 In416 2.326 . S
O425 C421 1.260 . S
C426 O417 1.240 . S
C426 O418 1.252 . S
O427 In416 2.294 . S
O427 C420 1.240 . S
O428 In416 2.326 . S
O428 C420 1.252 . S
In429 O430 2.294 . S
In429 O431 2.326 . S
In429 O435 2.266 . S
In429 O436 2.326 . S
In429 O437 2.266 . S
In429 O438 2.326 . S
In429 O440 2.294 . S
In429 O441 2.326 . S
O430 In429 2.294 . S
O430 C439 1.240 . S
O431 In429 2.326 . S
O431 C439 1.252 . S
C432 O435 1.252 . S
C432 O436 1.260 . S
C433 O440 1.240 . S
C433 O441 1.252 . S
C434 O437 1.252 . S
C434 O438 1.260 . S
O435 In429 2.266 . S
O435 C432 1.252 . S
O436 In429 2.326 . S
O436 C432 1.260 . S
O437 In429 2.266 . S
O437 C434 1.252 . S
O438 In429 2.326 . S
O438 C434 1.260 . S
C439 O430 1.240 . S
C439 O431 1.252 . S
O440 In429 2.294 . S
O440 C433 1.240 . S
O441 In429 2.326 . S
O441 C433 1.252 . S
In442 O443 2.294 . S
In442 O444 2.326 . S
In442 O448 2.266 . S
In442 O449 2.326 . S
In442 O450 2.266 . S
In442 O451 2.326 . S
In442 O453 2.294 . S
In442 O454 2.326 . S
O443 In442 2.294 . S
O443 C452 1.240 . S
O444 In442 2.326 . S
O444 C452 1.252 . S
C445 O448 1.252 . S
C445 O449 1.260 . S
C446 O453 1.240 . S
C446 O454 1.252 . S
C447 O450 1.252 . S
C447 O451 1.260 . S
O448 In442 2.266 . S
O448 C445 1.252 . S
O449 In442 2.326 . S
O449 C445 1.260 . S
O450 In442 2.266 . S
O450 C447 1.252 . S
O451 In442 2.326 . S
O451 C447 1.260 . S
C452 O443 1.240 . S
C452 O444 1.252 . S
O453 In442 2.294 . S
O453 C446 1.240 . S
O454 In442 2.326 . S
O454 C446 1.252 . S
In455 O456 2.294 . S
In455 O457 2.326 . S
In455 O461 2.266 . S
In455 O462 2.326 . S
In455 O463 2.266 . S
In455 O464 2.326 . S
In455 O466 2.294 . S
In455 O467 2.326 . S
O456 In455 2.294 . S
O456 C465 1.240 . S
O457 In455 2.326 . S
O457 C465 1.252 . S
C458 O461 1.252 . S
C458 O462 1.260 . S
C459 O466 1.240 . S
C459 O467 1.252 . S
C460 O463 1.252 . S
C460 O464 1.260 . S
O461 In455 2.266 . S
O461 C458 1.252 . S
O462 In455 2.326 . S
O462 C458 1.260 . S
O463 In455 2.266 . S
O463 C460 1.252 . S
O464 In455 2.326 . S
O464 C460 1.260 . S
C465 O456 1.240 . S
C465 O457 1.252 . S
O466 In455 2.294 . S
O466 C459 1.240 . S
O467 In455 2.326 . S
O467 C459 1.252 . S
H468 C476 0.950 . S
H469 C481 0.950 . S
H470 C478 0.950 1_545 S
H471 C480 0.950 . S
H472 C482 0.950 . S
H473 C484 0.950 1_565 S
H474 C486 0.950 . S
H475 C487 0.950 . S
C476 H468 0.950 . S
C476 C477 1.386 . S
C476 C478 1.391 . S
C477 C476 1.386 . S
C477 C481 1.393 . S
C478 H470 0.950 1_565 S
C478 C476 1.391 . S
C478 C479 1.400 . S
C479 C478 1.400 . S
C479 C480 1.398 . S
C479 C485 1.491 1_565 S
C480 H471 0.950 . S
C480 C479 1.398 . S
C480 C481 1.391 . S
C481 H469 0.950 . S
C481 C477 1.393 . S
C481 C480 1.391 . S
C482 H472 0.950 . S
C482 C483 1.386 . S
C482 C484 1.391 . S
C483 C482 1.386 . S
C483 C487 1.393 . S
C484 H473 0.950 1_545 S
C484 C482 1.391 . S
C484 C485 1.400 . S
C485 C479 1.491 1_545 S
C485 C484 1.400 . S
C485 C486 1.398 . S
C486 H474 0.950 . S
C486 C485 1.398 . S
C486 C487 1.391 . S
C487 H475 0.950 . S
C487 C483 1.393 . S
C487 C486 1.391 . S
H488 C496 0.950 . S
H489 C501 0.950 . S
H490 C498 0.950 1_455 S
H491 C500 0.950 . S
H492 C502 0.950 . S
H493 C504 0.950 1_655 S
H494 C506 0.950 . S
H495 C507 0.950 . S
C496 H488 0.950 . S
C496 C497 1.386 . S
C496 C498 1.391 . S
C497 C496 1.386 . S
C497 C501 1.393 . S
C498 H490 0.950 1_655 S
C498 C496 1.391 . S
C498 C499 1.400 . S
C499 C498 1.400 . S
C499 C500 1.398 . S
C499 C505 1.491 1_655 S
C500 H491 0.950 . S
C500 C499 1.398 . S
C500 C501 1.391 . S
C501 H489 0.950 . S
C501 C497 1.393 . S
C501 C500 1.391 . S
C502 H492 0.950 . S
C502 C503 1.386 . S
C502 C504 1.391 . S
C503 C502 1.386 . S
C503 C507 1.393 . S
C504 H493 0.950 1_455 S
C504 C502 1.391 . S
C504 C505 1.400 . S
C505 C499 1.491 1_455 S
C505 C504 1.400 . S
C505 C506 1.398 . S
C506 H494 0.950 . S
C506 C505 1.398 . S
C506 C507 1.391 . S
C507 H495 0.950 . S
C507 C503 1.393 . S
C507 C506 1.391 . S
H508 C516 0.950 . S
H509 C521 0.950 . S
H510 C518 0.950 . S
H511 C520 0.950 . S
H512 C522 0.950 . S
H513 C524 0.950 . S
H514 C526 0.950 . S
H515 C527 0.950 . S
C516 H508 0.950 . S
C516 C517 1.386 . S
C516 C518 1.391 . S
C517 C516 1.386 . S
C517 C521 1.393 . S
C518 H510 0.950 . S
C518 C516 1.391 . S
C518 C519 1.400 . S
C519 C518 1.400 . S
C519 C520 1.398 . S
C519 C525 1.491 . S
C520 H511 0.950 . S
C520 C519 1.398 . S
C520 C521 1.391 . S
C521 H509 0.950 . S
C521 C517 1.393 . S
C521 C520 1.391 . S
C522 H512 0.950 . S
C522 C523 1.386 . S
C522 C524 1.391 . S
C523 C522 1.386 . S
C523 C527 1.393 . S
C524 H513 0.950 . S
C524 C522 1.391 . S
C524 C525 1.400 . S
C525 C519 1.491 . S
C525 C524 1.400 . S
C525 C526 1.398 . S
C526 H514 0.950 . S
C526 C525 1.398 . S
C526 C527 1.391 . S
C527 H515 0.950 . S
C527 C523 1.393 . S
C527 C526 1.391 . S
H528 C536 0.950 . S
H529 C541 0.950 . S
H530 C538 0.950 1_545 S
H531 C540 0.950 . S
H532 C542 0.950 . S
H533 C544 0.950 1_565 S
H534 C546 0.950 . S
H535 C547 0.950 . S
C536 H528 0.950 . S
C536 C537 1.386 . S
C536 C538 1.391 . S
C537 C536 1.386 . S
C537 C541 1.393 . S
C538 H530 0.950 1_565 S
C538 C536 1.391 . S
C538 C539 1.400 . S
C539 C538 1.400 . S
C539 C540 1.398 . S
C539 C545 1.491 1_565 S
C540 H531 0.950 . S
C540 C539 1.398 . S
C540 C541 1.391 . S
C541 H529 0.950 . S
C541 C537 1.393 . S
C541 C540 1.391 . S
C542 H532 0.950 . S
C542 C543 1.386 . S
C542 C544 1.391 . S
C543 C542 1.386 . S
C543 C547 1.393 . S
C544 H533 0.950 1_545 S
C544 C542 1.391 . S
C544 C545 1.400 . S
C545 C539 1.491 1_545 S
C545 C544 1.400 . S
C545 C546 1.398 . S
C546 H534 0.950 . S
C546 C545 1.398 . S
C546 C547 1.391 . S
C547 H535 0.950 . S
C547 C543 1.393 . S
C547 C546 1.391 . S
H548 C556 0.950 . S
H549 C561 0.950 . S
H550 C558 0.950 1_655 S
H551 C560 0.950 . S
H552 C562 0.950 . S
H553 C564 0.950 1_455 S
H554 C566 0.950 . S
H555 C567 0.950 . S
C556 H548 0.950 . S
C556 C557 1.386 . S
C556 C558 1.391 . S
C557 C556 1.386 . S
C557 C561 1.393 . S
C558 H550 0.950 1_455 S
C558 C556 1.391 . S
C558 C559 1.400 . S
C559 C558 1.400 . S
C559 C560 1.398 . S
C559 C565 1.491 1_455 S
C560 H551 0.950 . S
C560 C559 1.398 . S
C560 C561 1.391 . S
C561 H549 0.950 . S
C561 C557 1.393 . S
C561 C560 1.391 . S
C562 H552 0.950 . S
C562 C563 1.386 . S
C562 C564 1.391 . S
C563 C562 1.386 . S
C563 C567 1.393 . S
C564 H553 0.950 1_655 S
C564 C562 1.391 . S
C564 C565 1.400 . S
C565 C559 1.491 1_655 S
C565 C564 1.400 . S
C565 C566 1.398 . S
C566 H554 0.950 . S
C566 C565 1.398 . S
C566 C567 1.391 . S
C567 H555 0.950 . S
C567 C563 1.393 . S
C567 C566 1.391 . S
H568 C576 0.950 . S
H569 C581 0.950 . S
H570 C578 0.950 . S
H571 C580 0.950 . S
H572 C582 0.950 . S
H573 C584 0.950 . S
H574 C586 0.950 . S
H575 C587 0.950 . S
C576 H568 0.950 . S
C576 C577 1.386 . S
C576 C578 1.391 . S
C577 C576 1.386 . S
C577 C581 1.393 . S
C578 H570 0.950 . S
C578 C576 1.391 . S
C578 C579 1.400 . S
C579 C578 1.400 . S
C579 C580 1.398 . S
C579 C585 1.491 . S
C580 H571 0.950 . S
C580 C579 1.398 . S
C580 C581 1.391 . S
C581 H569 0.950 . S
C581 C577 1.393 . S
C581 C580 1.391 . S
C582 H572 0.950 . S
C582 C583 1.386 . S
C582 C584 1.391 . S
C583 C582 1.386 . S
C583 C587 1.393 . S
C584 H573 0.950 . S
C584 C582 1.391 . S
C584 C585 1.400 . S
C585 C579 1.491 . S
C585 C584 1.400 . S
C585 C586 1.398 . S
C586 H574 0.950 . S
C586 C585 1.398 . S
C586 C587 1.391 . S
C587 H575 0.950 . S
C587 C583 1.393 . S
C587 C586 1.391 . S
H588 C596 0.950 . S
H589 C601 0.950 . S
H590 C598 0.950 . S
H591 C600 0.950 . S
H592 C602 0.950 . S
H593 C604 0.950 . S
H594 C606 0.950 . S
H595 C607 0.950 . S
C596 H588 0.950 . S
C596 C597 1.386 . S
C596 C598 1.391 . S
C597 C596 1.386 . S
C597 C601 1.393 . S
C598 H590 0.950 . S
C598 C596 1.391 . S
C598 C599 1.400 . S
C599 C598 1.400 . S
C599 C600 1.398 . S
C599 C605 1.491 . S
C600 H591 0.950 . S
C600 C599 1.398 . S
C600 C601 1.391 . S
C601 H589 0.950 . S
C601 C597 1.393 . S
C601 C600 1.391 . S
C602 H592 0.950 . S
C602 C603 1.386 . S
C602 C604 1.391 . S
C603 C602 1.386 . S
C603 C607 1.393 . S
C604 H593 0.950 . S
C604 C602 1.391 . S
C604 C605 1.400 . S
C605 C599 1.491 . S
C605 C604 1.400 . S
C605 C606 1.398 . S
C606 H594 0.950 . S
C606 C605 1.398 . S
C606 C607 1.391 . S
C607 H595 0.950 . S
C607 C603 1.393 . S
C607 C606 1.391 . S
H608 C616 0.950 . S
H609 C621 0.950 . S
H610 C618 0.950 . S
H611 C620 0.950 . S
H612 C622 0.950 . S
H613 C624 0.950 . S
H614 C626 0.950 . S
H615 C627 0.950 . S
C616 H608 0.950 . S
C616 C617 1.386 . S
C616 C618 1.391 . S
C617 C616 1.386 . S
C617 C621 1.393 . S
C618 H610 0.950 . S
C618 C616 1.391 . S
C618 C619 1.400 . S
C619 C618 1.400 . S
C619 C620 1.398 . S
C619 C625 1.491 . S
C620 H611 0.950 . S
C620 C619 1.398 . S
C620 C621 1.391 . S
C621 H609 0.950 . S
C621 C617 1.393 . S
C621 C620 1.391 . S
C622 H612 0.950 . S
C622 C623 1.386 . S
C622 C624 1.391 . S
C623 C622 1.386 . S
C623 C627 1.393 . S
C624 H613 0.950 . S
C624 C622 1.391 . S
C624 C625 1.400 . S
C625 C619 1.491 . S
C625 C624 1.400 . S
C625 C626 1.398 . S
C626 H614 0.950 . S
C626 C625 1.398 . S
C626 C627 1.391 . S
C627 H615 0.950 . S
C627 C623 1.393 . S
C627 C626 1.391 . S
H628 C636 0.950 . S
H629 C641 0.950 . S
H630 C638 0.950 . S
H631 C640 0.950 . S
H632 C642 0.950 . S
H633 C644 0.950 . S
H634 C646 0.950 . S
H635 C647 0.950 . S
C636 H628 0.950 . S
C636 C637 1.386 . S
C636 C638 1.391 . S
C637 C636 1.386 . S
C637 C641 1.393 . S
C638 H630 0.950 . S
C638 C636 1.391 . S
C638 C639 1.400 . S
C639 C638 1.400 . S
C639 C640 1.398 . S
C639 C645 1.491 . S
C640 H631 0.950 . S
C640 C639 1.398 . S
C640 C641 1.391 . S
C641 H629 0.950 . S
C641 C637 1.393 . S
C641 C640 1.391 . S
C642 H632 0.950 . S
C642 C643 1.386 . S
C642 C644 1.391 . S
C643 C642 1.386 . S
C643 C647 1.393 . S
C644 H633 0.950 . S
C644 C642 1.391 . S
C644 C645 1.400 . S
C645 C639 1.491 . S
C645 C644 1.400 . S
C645 C646 1.398 . S
C646 H634 0.950 . S
C646 C645 1.398 . S
C646 C647 1.391 . S
C647 H635 0.950 . S
C647 C643 1.393 . S
C647 C646 1.391 . S
H648 C656 0.950 . S
H649 C661 0.950 . S
H650 C658 0.950 . S
H651 C660 0.950 . S
H652 C662 0.950 . S
H653 C664 0.950 . S
H654 C666 0.950 . S
H655 C667 0.950 . S
C656 H648 0.950 . S
C656 C657 1.386 . S
C656 C658 1.391 . S
C657 C656 1.386 . S
C657 C661 1.393 . S
C658 H650 0.950 . S
C658 C656 1.391 . S
C658 C659 1.400 . S
C659 C658 1.400 . S
C659 C660 1.398 . S
C659 C665 1.491 . S
C660 H651 0.950 . S
C660 C659 1.398 . S
C660 C661 1.391 . S
C661 H649 0.950 . S
C661 C657 1.393 . S
C661 C660 1.391 . S
C662 H652 0.950 . S
C662 C663 1.386 . S
C662 C664 1.391 1_556 S
C663 C662 1.386 . S
C663 C667 1.393 1_556 S
C664 H653 0.950 . S
C664 C662 1.391 1_554 S
C664 C665 1.400 . S
C665 C659 1.491 . S
C665 C664 1.400 . S
C665 C666 1.398 . S
C666 H654 0.950 . S
C666 C665 1.398 . S
C666 C667 1.391 . S
C667 H655 0.950 . S
C667 C663 1.393 1_554 S
C667 C666 1.391 . S
H668 C676 0.950 . S
H669 C681 0.950 . S
H670 C678 0.950 . S
H671 C680 0.950 . S
H672 C682 0.950 . S
H673 C684 0.950 . S
H674 C686 0.950 . S
H675 C687 0.950 . S
C676 H668 0.950 . S
C676 C677 1.386 . S
C676 C678 1.391 . S
C677 C676 1.386 . S
C677 C681 1.393 . S
C678 H670 0.950 . S
C678 C676 1.391 . S
C678 C679 1.400 . S
C679 C678 1.400 . S
C679 C680 1.398 . S
C679 C685 1.491 . S
C680 H671 0.950 . S
C680 C679 1.398 . S
C680 C681 1.391 . S
C681 H669 0.950 . S
C681 C677 1.393 . S
C681 C680 1.391 . S
C682 H672 0.950 . S
C682 C683 1.386 1_554 S
C682 C684 1.391 . S
C683 C682 1.386 1_556 S
C683 C687 1.393 . S
C684 H673 0.950 . S
C684 C682 1.391 . S
C684 C685 1.400 . S
C685 C679 1.491 . S
C685 C684 1.400 . S
C685 C686 1.398 . S
C686 H674 0.950 . S
C686 C685 1.398 . S
C686 C687 1.391 1_554 S
C687 H675 0.950 . S
C687 C683 1.393 . S
C687 C686 1.391 1_556 S
H688 C696 0.950 . S
H689 C701 0.950 . S
H690 C698 0.950 . S
H691 C700 0.950 . S
H692 C702 0.950 . S
H693 C704 0.950 . S
H694 C706 0.950 . S
H695 C707 0.950 . S
C696 H688 0.950 . S
C696 C697 1.386 . S
C696 C698 1.391 . S
C697 C696 1.386 . S
C697 C701 1.393 . S
C698 H690 0.950 . S
C698 C696 1.391 . S
C698 C699 1.400 . S
C699 C698 1.400 . S
C699 C700 1.398 . S
C699 C705 1.491 . S
C700 H691 0.950 . S
C700 C699 1.398 . S
C700 C701 1.391 . S
C701 H689 0.950 . S
C701 C697 1.393 . S
C701 C700 1.391 . S
C702 H692 0.950 . S
C702 C703 1.386 1_554 S
C702 C704 1.391 . S
C703 C702 1.386 1_556 S
C703 C707 1.393 . S
C704 H693 0.950 . S
C704 C702 1.391 . S
C704 C705 1.400 . S
C705 C699 1.491 . S
C705 C704 1.400 . S
C705 C706 1.398 . S
C706 H694 0.950 . S
C706 C705 1.398 . S
C706 C707 1.391 1_554 S
C707 H695 0.950 . S
C707 C703 1.393 . S
C707 C706 1.391 1_556 S
H708 C716 0.950 . S
H709 C721 0.950 . S
H710 C718 0.950 . S
H711 C720 0.950 . S
H712 C722 0.950 . S
H713 C724 0.950 . S
H714 C726 0.950 . S
H715 C727 0.950 . S
C716 H708 0.950 . S
C716 C717 1.386 . S
C716 C718 1.391 . S
C717 C716 1.386 . S
C717 C721 1.393 . S
C718 H710 0.950 . S
C718 C716 1.391 . S
C718 C719 1.400 . S
C719 C718 1.400 . S
C719 C720 1.398 . S
C719 C725 1.491 . S
C720 H711 0.950 . S
C720 C719 1.398 . S
C720 C721 1.391 . S
C721 H709 0.950 . S
C721 C717 1.393 . S
C721 C720 1.391 . S
C722 H712 0.950 . S
C722 C723 1.386 1_556 S
C722 C724 1.391 . S
C723 C722 1.386 1_554 S
C723 C727 1.393 . S
C724 H713 0.950 . S
C724 C722 1.391 . S
C724 C725 1.400 . S
C725 C719 1.491 . S
C725 C724 1.400 . S
C725 C726 1.398 . S
C726 H714 0.950 . S
C726 C725 1.398 . S
C726 C727 1.391 1_556 S
C727 H715 0.950 . S
C727 C723 1.393 . S
C727 C726 1.391 1_554 S
H728 C736 0.950 . S
H729 C741 0.950 . S
H730 C738 0.950 1_554 S
H731 C740 0.950 . S
H732 C742 0.950 . S
H733 C744 0.950 . S
H734 C746 0.950 . S
H735 C747 0.950 . S
C736 H728 0.950 . S
C736 C737 1.386 . S
C736 C738 1.391 1_554 S
C737 C736 1.386 . S
C737 C741 1.393 1_554 S
C738 H730 0.950 1_556 S
C738 C736 1.391 1_556 S
C738 C739 1.400 . S
C739 C738 1.400 . S
C739 C740 1.398 . S
C739 C745 1.491 . S
C740 H731 0.950 . S
C740 C739 1.398 . S
C740 C741 1.391 . S
C741 H729 0.950 . S
C741 C737 1.393 1_556 S
C741 C740 1.391 . S
C742 H732 0.950 . S
C742 C743 1.386 . S
C742 C744 1.391 . S
C743 C742 1.386 . S
C743 C747 1.393 . S
C744 H733 0.950 . S
C744 C742 1.391 . S
C744 C745 1.400 . S
C745 C739 1.491 . S
C745 C744 1.400 . S
C745 C746 1.398 . S
C746 H734 0.950 . S
C746 C745 1.398 . S
C746 C747 1.391 . S
C747 H735 0.950 . S
C747 C743 1.393 . S
C747 C746 1.391 . S
H748 C756 0.950 . S
H749 C761 0.950 . S
H750 C758 0.950 . S
H751 C760 0.950 . S
H752 C762 0.950 . S
H753 C764 0.950 . S
H754 C766 0.950 . S
H755 C767 0.950 . S
C756 H748 0.950 . S
C756 C757 1.386 . S
C756 C758 1.391 . S
C757 C756 1.386 . S
C757 C761 1.393 . S
C758 H750 0.950 . S
C758 C756 1.391 . S
C758 C759 1.400 . S
C759 C758 1.400 . S
C759 C760 1.398 . S
C759 C765 1.491 . S
C760 H751 0.950 . S
C760 C759 1.398 . S
C760 C761 1.391 . S
C761 H749 0.950 . S
C761 C757 1.393 . S
C761 C760 1.391 . S
C762 H752 0.950 . S
C762 C763 1.386 1_556 S
C762 C764 1.391 . S
C763 C762 1.386 1_554 S
C763 C767 1.393 . S
C764 H753 0.950 . S
C764 C762 1.391 . S
C764 C765 1.400 . S
C765 C759 1.491 . S
C765 C764 1.400 . S
C765 C766 1.398 . S
C766 H754 0.950 . S
C766 C765 1.398 . S
C766 C767 1.391 1_556 S
C767 H755 0.950 . S
C767 C763 1.393 . S
C767 C766 1.391 1_554 S
H768 C776 0.950 . S
H769 C781 0.950 . S
H770 C778 0.950 . S
H771 C780 0.950 . S
H772 C782 0.950 . S
H773 C784 0.950 . S
H774 C786 0.950 . S
H775 C787 0.950 . S
C776 H768 0.950 . S
C776 C777 1.386 . S
C776 C778 1.391 . S
C777 C776 1.386 . S
C777 C781 1.393 . S
C778 H770 0.950 . S
C778 C776 1.391 . S
C778 C779 1.400 . S
C779 C778 1.400 . S
C779 C780 1.398 . S
C779 C785 1.491 . S
C780 H771 0.950 . S
C780 C779 1.398 . S
C780 C781 1.391 . S
C781 H769 0.950 . S
C781 C777 1.393 . S
C781 C780 1.391 . S
C782 H772 0.950 . S
C782 C783 1.386 . S
C782 C784 1.391 . S
C783 C782 1.386 . S
C783 C787 1.393 . S
C784 H773 0.950 . S
C784 C782 1.391 . S
C784 C785 1.400 . S
C785 C779 1.491 . S
C785 C784 1.400 . S
C785 C786 1.398 . S
C786 H774 0.950 . S
C786 C785 1.398 . S
C786 C787 1.391 . S
C787 H775 0.950 . S
C787 C783 1.393 . S
C787 C786 1.391 . S
H788 C796 0.950 . S
H789 C801 0.950 . S
H790 C798 0.950 . S
H791 C800 0.950 . S
H792 C802 0.950 . S
H793 C804 0.950 . S
H794 C806 0.950 . S
H795 C807 0.950 . S
C796 H788 0.950 . S
C796 C797 1.386 . S
C796 C798 1.391 . S
C797 C796 1.386 . S
C797 C801 1.393 . S
C798 H790 0.950 . S
C798 C796 1.391 . S
C798 C799 1.400 . S
C799 C798 1.400 . S
C799 C800 1.398 . S
C799 C805 1.491 . S
C800 H791 0.950 . S
C800 C799 1.398 . S
C800 C801 1.391 . S
C801 H789 0.950 . S
C801 C797 1.393 . S
C801 C800 1.391 . S
C802 H792 0.950 . S
C802 C803 1.386 . S
C802 C804 1.391 . S
C803 C802 1.386 . S
C803 C807 1.393 . S
C804 H793 0.950 . S
C804 C802 1.391 . S
C804 C805 1.400 . S
C805 C799 1.491 . S
C805 C804 1.400 . S
C805 C806 1.398 . S
C806 H794 0.950 . S
C806 C805 1.398 . S
C806 C807 1.391 . S
C807 H795 0.950 . S
C807 C803 1.393 . S
C807 C806 1.391 . S
H808 C816 0.950 . S
H809 C821 0.950 . S
H810 C818 0.950 . S
H811 C820 0.950 . S
H812 C822 0.950 . S
H813 C824 0.950 . S
H814 C826 0.950 . S
H815 C827 0.950 . S
C816 H808 0.950 . S
C816 C817 1.386 . S
C816 C818 1.391 . S
C817 C816 1.386 . S
C817 C821 1.393 . S
C818 H810 0.950 . S
C818 C816 1.391 . S
C818 C819 1.400 . S
C819 C818 1.400 . S
C819 C820 1.398 . S
C819 C825 1.491 . S
C820 H811 0.950 . S
C820 C819 1.398 . S
C820 C821 1.391 . S
C821 H809 0.950 . S
C821 C817 1.393 . S
C821 C820 1.391 . S
C822 H812 0.950 . S
C822 C823 1.386 . S
C822 C824 1.391 . S
C823 C822 1.386 . S
C823 C827 1.393 . S
C824 H813 0.950 . S
C824 C822 1.391 . S
C824 C825 1.400 . S
C825 C819 1.491 . S
C825 C824 1.400 . S
C825 C826 1.398 . S
C826 H814 0.950 . S
C826 C825 1.398 . S
C826 C827 1.391 . S
C827 H815 0.950 . S
C827 C823 1.393 . S
C827 C826 1.391 . S
H828 C836 0.950 . S
H829 C841 0.950 . S
H830 C838 0.950 . S
H831 C840 0.950 . S
H832 C842 0.950 . S
H833 C844 0.950 . S
H834 C846 0.950 . S
H835 C847 0.950 . S
C836 H828 0.950 . S
C836 C837 1.386 . S
C836 C838 1.391 . S
C837 C836 1.386 . S
C837 C841 1.393 . S
C838 H830 0.950 . S
C838 C836 1.391 . S
C838 C839 1.400 . S
C839 C838 1.400 . S
C839 C840 1.398 . S
C839 C845 1.491 . S
C840 H831 0.950 . S
C840 C839 1.398 . S
C840 C841 1.391 . S
C841 H829 0.950 . S
C841 C837 1.393 . S
C841 C840 1.391 . S
C842 H832 0.950 . S
C842 C843 1.386 . S
C842 C844 1.391 . S
C843 C842 1.386 . S
C843 C847 1.393 . S
C844 H833 0.950 . S
C844 C842 1.391 . S
C844 C845 1.400 . S
C845 C839 1.491 . S
C845 C844 1.400 . S
C845 C846 1.398 . S
C846 H834 0.950 . S
C846 C845 1.398 . S
C846 C847 1.391 . S
C847 H835 0.950 . S
C847 C843 1.393 . S
C847 C846 1.391 . S
H848 C856 0.950 . S
H849 C861 0.950 . S
H850 C858 0.950 . S
H851 C860 0.950 . S
H852 C862 0.950 . S
H853 C864 0.950 . S
H854 C866 0.950 . S
H855 C867 0.950 . S
C856 H848 0.950 . S
C856 C857 1.386 . S
C856 C858 1.391 . S
C857 C856 1.386 . S
C857 C861 1.393 . S
C858 H850 0.950 . S
C858 C856 1.391 . S
C858 C859 1.400 . S
C859 C858 1.400 . S
C859 C860 1.398 . S
C859 C865 1.491 . S
C860 H851 0.950 . S
C860 C859 1.398 . S
C860 C861 1.391 . S
C861 H849 0.950 . S
C861 C857 1.393 . S
C861 C860 1.391 . S
C862 H852 0.950 . S
C862 C863 1.386 . S
C862 C864 1.391 . S
C863 C862 1.386 . S
C863 C867 1.393 . S
C864 H853 0.950 . S
C864 C862 1.391 . S
C864 C865 1.400 . S
C865 C859 1.491 . S
C865 C864 1.400 . S
C865 C866 1.398 . S
C866 H854 0.950 . S
C866 C865 1.398 . S
C866 C867 1.391 . S
C867 H855 0.950 . S
C867 C863 1.393 . S
C867 C866 1.391 . S
H868 C876 0.950 . S
H869 C881 0.950 . S
H870 C878 0.950 . S
H871 C880 0.950 . S
H872 C882 0.950 . S
H873 C884 0.950 . S
H874 C886 0.950 . S
H875 C887 0.950 . S
C876 H868 0.950 . S
C876 C877 1.386 . S
C876 C878 1.391 . S
C877 C876 1.386 . S
C877 C881 1.393 . S
C878 H870 0.950 . S
C878 C876 1.391 . S
C878 C879 1.400 . S
C879 C878 1.400 . S
C879 C880 1.398 . S
C879 C885 1.491 . S
C880 H871 0.950 . S
C880 C879 1.398 . S
C880 C881 1.391 . S
C881 H869 0.950 . S
C881 C877 1.393 . S
C881 C880 1.391 . S
C882 H872 0.950 . S
C882 C883 1.386 . S
C882 C884 1.391 . S
C883 C882 1.386 . S
C883 C887 1.393 . S
C884 H873 0.950 . S
C884 C882 1.391 . S
C884 C885 1.400 . S
C885 C879 1.491 . S
C885 C884 1.400 . S
C885 C886 1.398 . S
C886 H874 0.950 . S
C886 C885 1.398 . S
C886 C887 1.391 . S
C887 H875 0.950 . S
C887 C883 1.393 . S
C887 C886 1.391 . S
H888 C896 0.950 . S
H889 C901 0.950 . S
H890 C898 0.950 . S
H891 C900 0.950 . S
H892 C902 0.950 . S
H893 C904 0.950 . S
H894 C906 0.950 . S
H895 C907 0.950 . S
C896 H888 0.950 . S
C896 C897 1.386 . S
C896 C898 1.391 . S
C897 C896 1.386 . S
C897 C901 1.393 . S
C898 H890 0.950 . S
C898 C896 1.391 . S
C898 C899 1.400 . S
C899 C898 1.400 . S
C899 C900 1.398 . S
C899 C905 1.491 . S
C900 H891 0.950 . S
C900 C899 1.398 . S
C900 C901 1.391 . S
C901 H889 0.950 . S
C901 C897 1.393 . S
C901 C900 1.391 . S
C902 H892 0.950 . S
C902 C903 1.386 . S
C902 C904 1.391 . S
C903 C902 1.386 . S
C903 C907 1.393 . S
C904 H893 0.950 . S
C904 C902 1.391 . S
C904 C905 1.400 . S
C905 C899 1.491 . S
C905 C904 1.400 . S
C905 C906 1.398 . S
C906 H894 0.950 . S
C906 C905 1.398 . S
C906 C907 1.391 . S
C907 H895 0.950 . S
C907 C903 1.393 . S
C907 C906 1.391 . S
H908 C916 0.950 . S
H909 C921 0.950 . S
H910 C918 0.950 . S
H911 C920 0.950 . S
H912 C922 0.950 . S
H913 C924 0.950 . S
H914 C926 0.950 . S
H915 C927 0.950 . S
C916 H908 0.950 . S
C916 C917 1.386 . S
C916 C918 1.391 . S
C917 C916 1.386 . S
C917 C921 1.393 . S
C918 H910 0.950 . S
C918 C916 1.391 . S
C918 C919 1.400 . S
C919 C918 1.400 . S
C919 C920 1.398 . S
C919 C925 1.491 . S
C920 H911 0.950 . S
C920 C919 1.398 . S
C920 C921 1.391 . S
C921 H909 0.950 . S
C921 C917 1.393 . S
C921 C920 1.391 . S
C922 H912 0.950 . S
C922 C923 1.386 . S
C922 C924 1.391 . S
C923 C922 1.386 . S
C923 C927 1.393 . S
C924 H913 0.950 . S
C924 C922 1.391 . S
C924 C925 1.400 . S
C925 C919 1.491 . S
C925 C924 1.400 . S
C925 C926 1.398 . S
C926 H914 0.950 . S
C926 C925 1.398 . S
C926 C927 1.391 . S
C927 H915 0.950 . S
C927 C923 1.393 . S
C927 C926 1.391 . S
H928 C936 0.950 . S
H929 C941 0.950 . S
H930 C938 0.950 . S
H931 C940 0.950 . S
H932 C942 0.950 . S
H933 C944 0.950 . S
H934 C946 0.950 . S
H935 C947 0.950 . S
C936 H928 0.950 . S
C936 C937 1.386 . S
C936 C938 1.391 . S
C937 C936 1.386 . S
C937 C941 1.393 . S
C938 H930 0.950 . S
C938 C936 1.391 . S
C938 C939 1.400 . S
C939 C938 1.400 . S
C939 C940 1.398 . S
C939 C945 1.491 . S
C940 H931 0.950 . S
C940 C939 1.398 . S
C940 C941 1.391 . S
C941 H929 0.950 . S
C941 C937 1.393 . S
C941 C940 1.391 . S
C942 H932 0.950 . S
C942 C943 1.386 . S
C942 C944 1.391 . S
C943 C942 1.386 . S
C943 C947 1.393 . S
C944 H933 0.950 . S
C944 C942 1.391 . S
C944 C945 1.400 . S
C945 C939 1.491 . S
C945 C944 1.400 . S
C945 C946 1.398 . S
C946 H934 0.950 . S
C946 C945 1.398 . S
C946 C947 1.391 . S
C947 H935 0.950 . S
C947 C943 1.393 . S
C947 C946 1.391 . S
H948 C956 0.950 . S
H949 C961 0.950 . S
H950 C958 0.950 . S
H951 C960 0.950 . S
H952 C962 0.950 . S
H953 C964 0.950 . S
H954 C966 0.950 . S
H955 C967 0.950 . S
C956 H948 0.950 . S
C956 C957 1.386 . S
C956 C958 1.391 . S
C957 C956 1.386 . S
C957 C961 1.393 . S
C958 H950 0.950 . S
C958 C956 1.391 . S
C958 C959 1.400 . S
C959 C958 1.400 . S
C959 C960 1.398 . S
C959 C965 1.491 . S
C960 H951 0.950 . S
C960 C959 1.398 . S
C960 C961 1.391 . S
C961 H949 0.950 . S
C961 C957 1.393 . S
C961 C960 1.391 . S
C962 H952 0.950 . S
C962 C963 1.386 . S
C962 C964 1.391 . S
C963 C962 1.386 . S
C963 C967 1.393 . S
C964 H953 0.950 . S
C964 C962 1.391 . S
C964 C965 1.400 . S
C965 C959 1.491 . S
C965 C964 1.400 . S
C965 C966 1.398 . S
C966 H954 0.950 . S
C966 C965 1.398 . S
C966 C967 1.391 . S
C967 H955 0.950 . S
C967 C963 1.393 . S
C967 C966 1.391 . S
H968 C976 0.950 . S
H969 C981 0.950 . S
H970 C978 0.950 . S
H971 C980 0.950 . S
H972 C982 0.950 . S
H973 C984 0.950 . S
H974 C986 0.950 . S
H975 C987 0.950 . S
C976 H968 0.950 . S
C976 C977 1.386 . S
C976 C978 1.391 . S
C977 C976 1.386 . S
C977 C981 1.393 . S
C978 H970 0.950 . S
C978 C976 1.391 . S
C978 C979 1.400 . S
C979 C978 1.400 . S
C979 C980 1.398 . S
C979 C985 1.491 . S
C980 H971 0.950 . S
C980 C979 1.398 . S
C980 C981 1.391 . S
C981 H969 0.950 . S
C981 C977 1.393 . S
C981 C980 1.391 . S
C982 H972 0.950 . S
C982 C983 1.386 . S
C982 C984 1.391 . S
C983 C982 1.386 . S
C983 C987 1.393 . S
C984 H973 0.950 . S
C984 C982 1.391 . S
C984 C985 1.400 . S
C985 C979 1.491 . S
C985 C984 1.400 . S
C985 C986 1.398 . S
C986 H974 0.950 . S
C986 C985 1.398 . S
C986 C987 1.391 . S
C987 H975 0.950 . S
C987 C983 1.393 . S
C987 C986 1.391 . S
H988 C996 0.950 . S
H989 C1001 0.950 . S
H990 C998 0.950 . S
H991 C1000 0.950 . S
H992 C1002 0.950 . S
H993 C1004 0.950 . S
H994 C1006 0.950 . S
H995 C1007 0.950 . S
C996 H988 0.950 . S
C996 C997 1.386 . S
C996 C998 1.391 . S
C997 C996 1.386 . S
C997 C1001 1.393 . S
C998 H990 0.950 . S
C998 C996 1.391 . S
C998 C999 1.400 . S
C999 C998 1.400 . S
C999 C1000 1.398 . S
C999 C1005 1.491 . S
C1000 H991 0.950 . S
C1000 C999 1.398 . S
C1000 C1001 1.391 . S
C1001 H989 0.950 . S
C1001 C997 1.393 . S
C1001 C1000 1.391 . S
C1002 H992 0.950 . S
C1002 C1003 1.386 . S
C1002 C1004 1.391 . S
C1003 C1002 1.386 . S
C1003 C1007 1.393 . S
C1004 H993 0.950 . S
C1004 C1002 1.391 . S
C1004 C1005 1.400 . S
C1005 C999 1.491 . S
C1005 C1004 1.400 . S
C1005 C1006 1.398 . S
C1006 H994 0.950 . S
C1006 C1005 1.398 . S
C1006 C1007 1.391 . S
C1007 H995 0.950 . S
C1007 C1003 1.393 . S
C1007 C1006 1.391 . S
H1008 C1016 0.950 . S
H1009 C1021 0.950 . S
H1010 C1018 0.950 . S
H1011 C1020 0.950 . S
H1012 C1022 0.950 . S
H1013 C1024 0.950 . S
H1014 C1026 0.950 . S
H1015 C1027 0.950 . S
C1016 H1008 0.950 . S
C1016 C1017 1.386 . S
C1016 C1018 1.391 . S
C1017 C1016 1.386 . S
C1017 C1021 1.393 . S
C1018 H1010 0.950 . S
C1018 C1016 1.391 . S
C1018 C1019 1.400 . S
C1019 C1018 1.400 . S
C1019 C1020 1.398 . S
C1019 C1025 1.491 . S
C1020 H1011 0.950 . S
C1020 C1019 1.398 . S
C1020 C1021 1.391 . S
C1021 H1009 0.950 . S
C1021 C1017 1.393 . S
C1021 C1020 1.391 . S
C1022 H1012 0.950 . S
C1022 C1023 1.386 . S
C1022 C1024 1.391 . S
C1023 C1022 1.386 . S
C1023 C1027 1.393 . S
C1024 H1013 0.950 . S
C1024 C1022 1.391 . S
C1024 C1025 1.400 . S
C1025 C1019 1.491 . S
C1025 C1024 1.400 . S
C1025 C1026 1.398 . S
C1026 H1014 0.950 . S
C1026 C1025 1.398 . S
C1026 C1027 1.391 . S
C1027 H1015 0.950 . S
C1027 C1023 1.393 . S
C1027 C1026 1.391 . S
H1028 C1036 0.950 . S
H1029 C1041 0.950 . S
H1030 C1038 0.950 . S
H1031 C1040 0.950 . S
H1032 C1042 0.950 . S
H1033 C1044 0.950 . S
H1034 C1046 0.950 . S
H1035 C1047 0.950 . S
C1036 H1028 0.950 . S
C1036 C1037 1.386 . S
C1036 C1038 1.391 . S
C1037 C1036 1.386 . S
C1037 C1041 1.393 . S
C1038 H1030 0.950 . S
C1038 C1036 1.391 . S
C1038 C1039 1.400 . S
C1039 C1038 1.400 . S
C1039 C1040 1.398 . S
C1039 C1045 1.491 . S
C1040 H1031 0.950 . S
C1040 C1039 1.398 . S
C1040 C1041 1.391 . S
C1041 H1029 0.950 . S
C1041 C1037 1.393 . S
C1041 C1040 1.391 . S
C1042 H1032 0.950 . S
C1042 C1043 1.386 . S
C1042 C1044 1.391 . S
C1043 C1042 1.386 . S
C1043 C1047 1.393 . S
C1044 H1033 0.950 . S
C1044 C1042 1.391 . S
C1044 C1045 1.400 . S
C1045 C1039 1.491 . S
C1045 C1044 1.400 . S
C1045 C1046 1.398 . S
C1046 H1034 0.950 . S
C1046 C1045 1.398 . S
C1046 C1047 1.391 . S
C1047 H1035 0.950 . S
C1047 C1043 1.393 . S
C1047 C1046 1.391 . S
H1048 C1056 0.950 . S
H1049 C1061 0.950 . S
H1050 C1058 0.950 . S
H1051 C1060 0.950 . S
H1052 C1062 0.950 . S
H1053 C1064 0.950 . S
H1054 C1066 0.950 . S
H1055 C1067 0.950 . S
C1056 H1048 0.950 . S
C1056 C1057 1.386 . S
C1056 C1058 1.391 . S
C1057 C1056 1.386 . S
C1057 C1061 1.393 . S
C1058 H1050 0.950 . S
C1058 C1056 1.391 . S
C1058 C1059 1.400 . S
C1059 C1058 1.400 . S
C1059 C1060 1.398 . S
C1059 C1065 1.491 . S
C1060 H1051 0.950 . S
C1060 C1059 1.398 . S
C1060 C1061 1.391 . S
C1061 H1049 0.950 . S
C1061 C1057 1.393 . S
C1061 C1060 1.391 . S
C1062 H1052 0.950 . S
C1062 C1063 1.386 . S
C1062 C1064 1.391 . S
C1063 C1062 1.386 . S
C1063 C1067 1.393 . S
C1064 H1053 0.950 . S
C1064 C1062 1.391 . S
C1064 C1065 1.400 . S
C1065 C1059 1.491 . S
C1065 C1064 1.400 . S
C1065 C1066 1.398 . S
C1066 H1054 0.950 . S
C1066 C1065 1.398 . S
C1066 C1067 1.391 . S
C1067 H1055 0.950 . S
C1067 C1063 1.393 . S
C1067 C1066 1.391 . S
H1068 C1076 0.950 . S
H1069 C1081 0.950 . S
H1070 C1078 0.950 . S
H1071 C1080 0.950 . S
H1072 C1082 0.950 . S
H1073 C1084 0.950 . S
H1074 C1086 0.950 . S
H1075 C1087 0.950 . S
C1076 H1068 0.950 . S
C1076 C1077 1.386 . S
C1076 C1078 1.391 . S
C1077 C1076 1.386 . S
C1077 C1081 1.393 . S
C1078 H1070 0.950 . S
C1078 C1076 1.391 . S
C1078 C1079 1.400 . S
C1079 C1078 1.400 . S
C1079 C1080 1.398 . S
C1079 C1085 1.491 . S
C1080 H1071 0.950 . S
C1080 C1079 1.398 . S
C1080 C1081 1.391 . S
C1081 H1069 0.950 . S
C1081 C1077 1.393 . S
C1081 C1080 1.391 . S
C1082 H1072 0.950 . S
C1082 C1083 1.386 . S
C1082 C1084 1.391 . S
C1083 C1082 1.386 . S
C1083 C1087 1.393 . S
C1084 H1073 0.950 . S
C1084 C1082 1.391 . S
C1084 C1085 1.400 . S
C1085 C1079 1.491 . S
C1085 C1084 1.400 . S
C1085 C1086 1.398 . S
C1086 H1074 0.950 . S
C1086 C1085 1.398 . S
C1086 C1087 1.391 . S
C1087 H1075 0.950 . S
C1087 C1083 1.393 . S
C1087 C1086 1.391 . S
H1088 C1096 0.950 . S
H1089 C1101 0.950 . S
H1090 C1098 0.950 . S
H1091 C1100 0.950 . S
H1092 C1102 0.950 . S
H1093 C1104 0.950 . S
H1094 C1106 0.950 . S
H1095 C1107 0.950 . S
C1096 H1088 0.950 . S
C1096 C1097 1.386 . S
C1096 C1098 1.391 . S
C1097 C1096 1.386 . S
C1097 C1101 1.393 . S
C1098 H1090 0.950 . S
C1098 C1096 1.391 . S
C1098 C1099 1.400 . S
C1099 C1098 1.400 . S
C1099 C1100 1.398 . S
C1099 C1105 1.491 . S
C1100 H1091 0.950 . S
C1100 C1099 1.398 . S
C1100 C1101 1.391 . S
C1101 H1089 0.950 . S
C1101 C1097 1.393 . S
C1101 C1100 1.391 . S
C1102 H1092 0.950 . S
C1102 C1103 1.386 . S
C1102 C1104 1.391 . S
C1103 C1102 1.386 . S
C1103 C1107 1.393 . S
C1104 H1093 0.950 . S
C1104 C1102 1.391 . S
C1104 C1105 1.400 . S
C1105 C1099 1.491 . S
C1105 C1104 1.400 . S
C1105 C1106 1.398 . S
C1106 H1094 0.950 . S
C1106 C1105 1.398 . S
C1106 C1107 1.391 . S
C1107 H1095 0.950 . S
C1107 C1103 1.393 . S
C1107 C1106 1.391 . S
H1108 C1116 0.950 . S
H1109 C1121 0.950 . S
H1110 C1118 0.950 . S
H1111 C1120 0.950 . S
H1112 C1122 0.950 . S
H1113 C1124 0.950 . S
H1114 C1126 0.950 . S
H1115 C1127 0.950 . S
C1116 H1108 0.950 . S
C1116 C1117 1.386 . S
C1116 C1118 1.391 . S
C1117 C1116 1.386 . S
C1117 C1121 1.393 . S
C1118 H1110 0.950 . S
C1118 C1116 1.391 . S
C1118 C1119 1.400 . S
C1119 C1118 1.400 . S
C1119 C1120 1.398 . S
C1119 C1125 1.491 . S
C1120 H1111 0.950 . S
C1120 C1119 1.398 . S
C1120 C1121 1.391 . S
C1121 H1109 0.950 . S
C1121 C1117 1.393 . S
C1121 C1120 1.391 . S
C1122 H1112 0.950 . S
C1122 C1123 1.386 . S
C1122 C1124 1.391 . S
C1123 C1122 1.386 . S
C1123 C1127 1.393 . S
C1124 H1113 0.950 . S
C1124 C1122 1.391 . S
C1124 C1125 1.400 . S
C1125 C1119 1.491 . S
C1125 C1124 1.400 . S
C1125 C1126 1.398 . S
C1126 H1114 0.950 . S
C1126 C1125 1.398 . S
C1126 C1127 1.391 . S
C1127 H1115 0.950 . S
C1127 C1123 1.393 . S
C1127 C1126 1.391 . S
H1128 C1136 0.950 . S
H1129 C1141 0.950 . S
H1130 C1138 0.950 . S
H1131 C1140 0.950 1_554 S
H1132 C1142 0.950 . S
H1133 C1144 0.950 . S
H1134 C1146 0.950 1_556 S
H1135 C1147 0.950 . S
C1136 H1128 0.950 . S
C1136 C1137 1.386 . S
C1136 C1138 1.391 . S
C1137 C1136 1.386 . S
C1137 C1141 1.393 . S
C1138 H1130 0.950 . S
C1138 C1136 1.391 . S
C1138 C1139 1.400 . S
C1139 C1138 1.400 . S
C1139 C1140 1.398 . S
C1139 C1145 1.491 1_556 S
C1140 H1131 0.950 1_556 S
C1140 C1139 1.398 . S
C1140 C1141 1.391 . S
C1141 H1129 0.950 . S
C1141 C1137 1.393 . S
C1141 C1140 1.391 . S
C1142 H1132 0.950 . S
C1142 C1143 1.386 . S
C1142 C1144 1.391 . S
C1143 C1142 1.386 . S
C1143 C1147 1.393 . S
C1144 H1133 0.950 . S
C1144 C1142 1.391 . S
C1144 C1145 1.400 . S
C1145 C1139 1.491 1_554 S
C1145 C1144 1.400 . S
C1145 C1146 1.398 . S
C1146 H1134 0.950 1_554 S
C1146 C1145 1.398 . S
C1146 C1147 1.391 . S
C1147 H1135 0.950 . S
C1147 C1143 1.393 . S
C1147 C1146 1.391 . S
H1148 C1156 0.950 . S
H1149 C1161 0.950 . S
H1150 C1158 0.950 . S
H1151 C1160 0.950 . S
H1152 C1162 0.950 . S
H1153 C1164 0.950 . S
H1154 C1166 0.950 . S
H1155 C1167 0.950 . S
C1156 H1148 0.950 . S
C1156 C1157 1.386 . S
C1156 C1158 1.391 . S
C1157 C1156 1.386 . S
C1157 C1161 1.393 . S
C1158 H1150 0.950 . S
C1158 C1156 1.391 . S
C1158 C1159 1.400 . S
C1159 C1158 1.400 . S
C1159 C1160 1.398 . S
C1159 C1165 1.491 1_556 S
C1160 H1151 0.950 . S
C1160 C1159 1.398 . S
C1160 C1161 1.391 . S
C1161 H1149 0.950 . S
C1161 C1157 1.393 . S
C1161 C1160 1.391 . S
C1162 H1152 0.950 . S
C1162 C1163 1.386 . S
C1162 C1164 1.391 . S
C1163 C1162 1.386 . S
C1163 C1167 1.393 . S
C1164 H1153 0.950 . S
C1164 C1162 1.391 . S
C1164 C1165 1.400 . S
C1165 C1159 1.491 1_554 S
C1165 C1164 1.400 . S
C1165 C1166 1.398 . S
C1166 H1154 0.950 . S
C1166 C1165 1.398 . S
C1166 C1167 1.391 . S
C1167 H1155 0.950 . S
C1167 C1163 1.393 . S
C1167 C1166 1.391 . S
H1168 C1176 0.950 . S
H1169 C1181 0.950 . S
H1170 C1178 0.950 1_554 S
H1171 C1180 0.950 . S
H1172 C1182 0.950 . S
H1173 C1184 0.950 1_556 S
H1174 C1186 0.950 . S
H1175 C1187 0.950 . S
C1176 H1168 0.950 . S
C1176 C1177 1.386 . S
C1176 C1178 1.391 . S
C1177 C1176 1.386 . S
C1177 C1181 1.393 . S
C1178 H1170 0.950 1_556 S
C1178 C1176 1.391 . S
C1178 C1179 1.400 . S
C1179 C1178 1.400 . S
C1179 C1180 1.398 . S
C1179 C1185 1.491 1_556 S
C1180 H1171 0.950 . S
C1180 C1179 1.398 . S
C1180 C1181 1.391 . S
C1181 H1169 0.950 . S
C1181 C1177 1.393 . S
C1181 C1180 1.391 . S
C1182 H1172 0.950 . S
C1182 C1183 1.386 . S
C1182 C1184 1.391 . S
C1183 C1182 1.386 . S
C1183 C1187 1.393 . S
C1184 H1173 0.950 1_554 S
C1184 C1182 1.391 . S
C1184 C1185 1.400 . S
C1185 C1179 1.491 1_554 S
C1185 C1184 1.400 . S
C1185 C1186 1.398 . S
C1186 H1174 0.950 . S
C1186 C1185 1.398 . S
C1186 C1187 1.391 . S
C1187 H1175 0.950 . S
C1187 C1183 1.393 . S
C1187 C1186 1.391 . S
H1188 C1196 0.950 . S
H1189 C1201 0.950 . S
H1190 C1198 0.950 . S
H1191 C1200 0.950 . S
H1192 C1202 0.950 . S
H1193 C1204 0.950 . S
H1194 C1206 0.950 . S
H1195 C1207 0.950 . S
C1196 H1188 0.950 . S
C1196 C1197 1.386 . S
C1196 C1198 1.391 . S
C1197 C1196 1.386 . S
C1197 C1201 1.393 . S
C1198 H1190 0.950 . S
C1198 C1196 1.391 . S
C1198 C1199 1.400 . S
C1199 C1198 1.400 . S
C1199 C1200 1.398 . S
C1199 C1205 1.491 . S
C1200 H1191 0.950 . S
C1200 C1199 1.398 . S
C1200 C1201 1.391 . S
C1201 H1189 0.950 . S
C1201 C1197 1.393 . S
C1201 C1200 1.391 . S
C1202 H1192 0.950 . S
C1202 C1203 1.386 . S
C1202 C1204 1.391 . S
C1203 C1202 1.386 . S
C1203 C1207 1.393 . S
C1204 H1193 0.950 . S
C1204 C1202 1.391 . S
C1204 C1205 1.400 . S
C1205 C1199 1.491 . S
C1205 C1204 1.400 . S
C1205 C1206 1.398 . S
C1206 H1194 0.950 . S
C1206 C1205 1.398 . S
C1206 C1207 1.391 . S
C1207 H1195 0.950 . S
C1207 C1203 1.393 . S
C1207 C1206 1.391 . S
H1208 C1216 0.950 . S
H1209 C1221 0.950 . S
H1210 C1218 0.950 . S
H1211 C1220 0.950 . S
H1212 C1222 0.950 . S
H1213 C1224 0.950 . S
H1214 C1226 0.950 . S
H1215 C1227 0.950 . S
C1216 H1208 0.950 . S
C1216 C1217 1.386 . S
C1216 C1218 1.391 . S
C1217 C1216 1.386 . S
C1217 C1221 1.393 . S
C1218 H1210 0.950 . S
C1218 C1216 1.391 . S
C1218 C1219 1.400 . S
C1219 C1218 1.400 . S
C1219 C1220 1.398 . S
C1219 C1225 1.491 . S
C1220 H1211 0.950 . S
C1220 C1219 1.398 . S
C1220 C1221 1.391 . S
C1221 H1209 0.950 . S
C1221 C1217 1.393 . S
C1221 C1220 1.391 . S
C1222 H1212 0.950 . S
C1222 C1223 1.386 . S
C1222 C1224 1.391 . S
C1223 C1222 1.386 . S
C1223 C1227 1.393 . S
C1224 H1213 0.950 . S
C1224 C1222 1.391 . S
C1224 C1225 1.400 . S
C1225 C1219 1.491 . S
C1225 C1224 1.400 . S
C1225 C1226 1.398 . S
C1226 H1214 0.950 . S
C1226 C1225 1.398 . S
C1226 C1227 1.391 . S
C1227 H1215 0.950 . S
C1227 C1223 1.393 . S
C1227 C1226 1.391 . S
H1228 C1236 0.950 . S
H1229 C1241 0.950 . S
H1230 C1238 0.950 . S
H1231 C1240 0.950 . S
H1232 C1242 0.950 . S
H1233 C1244 0.950 . S
H1234 C1246 0.950 . S
H1235 C1247 0.950 . S
C1236 H1228 0.950 . S
C1236 C1237 1.386 . S
C1236 C1238 1.391 . S
C1237 C1236 1.386 . S
C1237 C1241 1.393 . S
C1238 H1230 0.950 . S
C1238 C1236 1.391 . S
C1238 C1239 1.400 . S
C1239 C1238 1.400 . S
C1239 C1240 1.398 . S
C1239 C1245 1.491 . S
C1240 H1231 0.950 . S
C1240 C1239 1.398 . S
C1240 C1241 1.391 . S
C1241 H1229 0.950 . S
C1241 C1237 1.393 . S
C1241 C1240 1.391 . S
C1242 H1232 0.950 . S
C1242 C1243 1.386 . S
C1242 C1244 1.391 . S
C1243 C1242 1.386 . S
C1243 C1247 1.393 . S
C1244 H1233 0.950 . S
C1244 C1242 1.391 . S
C1244 C1245 1.400 . S
C1245 C1239 1.491 . S
C1245 C1244 1.400 . S
C1245 C1246 1.398 . S
C1246 H1234 0.950 . S
C1246 C1245 1.398 . S
C1246 C1247 1.391 . S
C1247 H1235 0.950 . S
C1247 C1243 1.393 . S
C1247 C1246 1.391 . S
H1248 C1256 0.950 . S
H1249 C1261 0.950 . S
H1250 C1258 0.950 . S
H1251 C1260 0.950 . S
H1252 C1262 0.950 . S
H1253 C1264 0.950 . S
H1254 C1266 0.950 . S
H1255 C1267 0.950 . S
C1256 H1248 0.950 . S
C1256 C1257 1.386 . S
C1256 C1258 1.391 . S
C1257 C1256 1.386 . S
C1257 C1261 1.393 . S
C1258 H1250 0.950 . S
C1258 C1256 1.391 . S
C1258 C1259 1.400 . S
C1259 C1258 1.400 . S
C1259 C1260 1.398 . S
C1259 C1265 1.491 . S
C1260 H1251 0.950 . S
C1260 C1259 1.398 . S
C1260 C1261 1.391 . S
C1261 H1249 0.950 . S
C1261 C1257 1.393 . S
C1261 C1260 1.391 . S
C1262 H1252 0.950 . S
C1262 C1263 1.386 . S
C1262 C1264 1.391 . S
C1263 C1262 1.386 . S
C1263 C1267 1.393 . S
C1264 H1253 0.950 . S
C1264 C1262 1.391 . S
C1264 C1265 1.400 . S
C1265 C1259 1.491 . S
C1265 C1264 1.400 . S
C1265 C1266 1.398 . S
C1266 H1254 0.950 . S
C1266 C1265 1.398 . S
C1266 C1267 1.391 . S
C1267 H1255 0.950 . S
C1267 C1263 1.393 . S
C1267 C1266 1.391 . S
H1268 C1276 0.950 . S
H1269 C1281 0.950 . S
H1270 C1278 0.950 . S
H1271 C1280 0.950 . S
H1272 C1282 0.950 . S
H1273 C1284 0.950 . S
H1274 C1286 0.950 . S
H1275 C1287 0.950 . S
C1276 H1268 0.950 . S
C1276 C1277 1.386 . S
C1276 C1278 1.391 . S
C1277 C1276 1.386 . S
C1277 C1281 1.393 . S
C1278 H1270 0.950 . S
C1278 C1276 1.391 . S
C1278 C1279 1.400 . S
C1279 C1278 1.400 . S
C1279 C1280 1.398 . S
C1279 C1285 1.491 . S
C1280 H1271 0.950 . S
C1280 C1279 1.398 . S
C1280 C1281 1.391 . S
C1281 H1269 0.950 . S
C1281 C1277 1.393 . S
C1281 C1280 1.391 . S
C1282 H1272 0.950 . S
C1282 C1283 1.386 . S
C1282 C1284 1.391 . S
C1283 C1282 1.386 . S
C1283 C1287 1.393 . S
C1284 H1273 0.950 . S
C1284 C1282 1.391 . S
C1284 C1285 1.400 . S
C1285 C1279 1.491 . S
C1285 C1284 1.400 . S
C1285 C1286 1.398 . S
C1286 H1274 0.950 . S
C1286 C1285 1.398 . S
C1286 C1287 1.391 . S
C1287 H1275 0.950 . S
C1287 C1283 1.393 . S
C1287 C1286 1.391 . S
H1288 C1296 0.950 . S
H1289 C1301 0.950 . S
H1290 C1298 0.950 . S
H1291 C1300 0.950 . S
H1292 C1302 0.950 . S
H1293 C1304 0.950 . S
H1294 C1306 0.950 . S
H1295 C1307 0.950 . S
C1296 H1288 0.950 . S
C1296 C1297 1.386 . S
C1296 C1298 1.391 . S
C1297 C1296 1.386 . S
C1297 C1301 1.393 . S
C1298 H1290 0.950 . S
C1298 C1296 1.391 . S
C1298 C1299 1.400 . S
C1299 C1298 1.400 . S
C1299 C1300 1.398 . S
C1299 C1305 1.491 . S
C1300 H1291 0.950 . S
C1300 C1299 1.398 . S
C1300 C1301 1.391 . S
C1301 H1289 0.950 . S
C1301 C1297 1.393 . S
C1301 C1300 1.391 . S
C1302 H1292 0.950 . S
C1302 C1303 1.386 . S
C1302 C1304 1.391 . S
C1303 C1302 1.386 . S
C1303 C1307 1.393 . S
C1304 H1293 0.950 . S
C1304 C1302 1.391 . S
C1304 C1305 1.400 . S
C1305 C1299 1.491 . S
C1305 C1304 1.400 . S
C1305 C1306 1.398 . S
C1306 H1294 0.950 . S
C1306 C1305 1.398 . S
C1306 C1307 1.391 . S
C1307 H1295 0.950 . S
C1307 C1303 1.393 . S
C1307 C1306 1.391 . S
H1308 C1316 0.950 . S
H1309 C1321 0.950 . S
H1310 C1318 0.950 . S
H1311 C1320 0.950 . S
H1312 C1322 0.950 . S
H1313 C1324 0.950 . S
H1314 C1326 0.950 . S
H1315 C1327 0.950 . S
C1316 H1308 0.950 . S
C1316 C1317 1.386 . S
C1316 C1318 1.391 . S
C1317 C1316 1.386 . S
C1317 C1321 1.393 . S
C1318 H1310 0.950 . S
C1318 C1316 1.391 . S
C1318 C1319 1.400 . S
C1319 C1318 1.400 . S
C1319 C1320 1.398 . S
C1319 C1325 1.491 . S
C1320 H1311 0.950 . S
C1320 C1319 1.398 . S
C1320 C1321 1.391 . S
C1321 H1309 0.950 . S
C1321 C1317 1.393 . S
C1321 C1320 1.391 . S
C1322 H1312 0.950 . S
C1322 C1323 1.386 . S
C1322 C1324 1.391 . S
C1323 C1322 1.386 . S
C1323 C1327 1.393 . S
C1324 H1313 0.950 . S
C1324 C1322 1.391 . S
C1324 C1325 1.400 . S
C1325 C1319 1.491 . S
C1325 C1324 1.400 . S
C1325 C1326 1.398 . S
C1326 H1314 0.950 . S
C1326 C1325 1.398 . S
C1326 C1327 1.391 . S
C1327 H1315 0.950 . S
C1327 C1323 1.393 . S
C1327 C1326 1.391 . S
H1328 C1336 0.950 . S
H1329 C1341 0.950 . S
H1330 C1338 0.950 . S
H1331 C1340 0.950 . S
H1332 C1342 0.950 . S
H1333 C1344 0.950 . S
H1334 C1346 0.950 . S
H1335 C1347 0.950 . S
C1336 H1328 0.950 . S
C1336 C1337 1.386 . S
C1336 C1338 1.391 . S
C1337 C1336 1.386 . S
C1337 C1341 1.393 . S
C1338 H1330 0.950 . S
C1338 C1336 1.391 . S
C1338 C1339 1.400 . S
C1339 C1338 1.400 . S
C1339 C1340 1.398 . S
C1339 C1345 1.491 . S
C1340 H1331 0.950 . S
C1340 C1339 1.398 . S
C1340 C1341 1.391 . S
C1341 H1329 0.950 . S
C1341 C1337 1.393 . S
C1341 C1340 1.391 . S
C1342 H1332 0.950 . S
C1342 C1343 1.386 . S
C1342 C1344 1.391 . S
C1343 C1342 1.386 . S
C1343 C1347 1.393 . S
C1344 H1333 0.950 . S
C1344 C1342 1.391 . S
C1344 C1345 1.400 . S
C1345 C1339 1.491 . S
C1345 C1344 1.400 . S
C1345 C1346 1.398 . S
C1346 H1334 0.950 . S
C1346 C1345 1.398 . S
C1346 C1347 1.391 . S
C1347 H1335 0.950 . S
C1347 C1343 1.393 . S
C1347 C1346 1.391 . S
H1348 C1356 0.950 . S
H1349 C1361 0.950 . S
H1350 C1358 0.950 . S
H1351 C1360 0.950 . S
H1352 C1362 0.950 . S
H1353 C1364 0.950 . S
H1354 C1366 0.950 . S
H1355 C1367 0.950 . S
C1356 H1348 0.950 . S
C1356 C1357 1.386 . S
C1356 C1358 1.391 . S
C1357 C1356 1.386 . S
C1357 C1361 1.393 . S
C1358 H1350 0.950 . S
C1358 C1356 1.391 . S
C1358 C1359 1.400 . S
C1359 C1358 1.400 . S
C1359 C1360 1.398 . S
C1359 C1365 1.491 . S
C1360 H1351 0.950 . S
C1360 C1359 1.398 . S
C1360 C1361 1.391 . S
C1361 H1349 0.950 . S
C1361 C1357 1.393 . S
C1361 C1360 1.391 . S
C1362 H1352 0.950 . S
C1362 C1363 1.386 . S
C1362 C1364 1.391 . S
C1363 C1362 1.386 . S
C1363 C1367 1.393 . S
C1364 H1353 0.950 . S
C1364 C1362 1.391 . S
C1364 C1365 1.400 . S
C1365 C1359 1.491 . S
C1365 C1364 1.400 . S
C1365 C1366 1.398 . S
C1366 H1354 0.950 . S
C1366 C1365 1.398 . S
C1366 C1367 1.391 . S
C1367 H1355 0.950 . S
C1367 C1363 1.393 . S
C1367 C1366 1.391 . S
H1368 C1376 0.950 . S
H1369 C1381 0.950 . S
H1370 C1378 0.950 . S
H1371 C1380 0.950 . S
H1372 C1382 0.950 . S
H1373 C1384 0.950 . S
H1374 C1386 0.950 . S
H1375 C1387 0.950 . S
C1376 H1368 0.950 . S
C1376 C1377 1.386 . S
C1376 C1378 1.391 . S
C1377 C1376 1.386 . S
C1377 C1381 1.393 . S
C1378 H1370 0.950 . S
C1378 C1376 1.391 . S
C1378 C1379 1.400 . S
C1379 C1378 1.400 . S
C1379 C1380 1.398 . S
C1379 C1385 1.491 . S
C1380 H1371 0.950 . S
C1380 C1379 1.398 . S
C1380 C1381 1.391 . S
C1381 H1369 0.950 . S
C1381 C1377 1.393 . S
C1381 C1380 1.391 . S
C1382 H1372 0.950 . S
C1382 C1383 1.386 . S
C1382 C1384 1.391 . S
C1383 C1382 1.386 . S
C1383 C1387 1.393 . S
C1384 H1373 0.950 . S
C1384 C1382 1.391 . S
C1384 C1385 1.400 . S
C1385 C1379 1.491 . S
C1385 C1384 1.400 . S
C1385 C1386 1.398 . S
C1386 H1374 0.950 . S
C1386 C1385 1.398 . S
C1386 C1387 1.391 . S
C1387 H1375 0.950 . S
C1387 C1383 1.393 . S
C1387 C1386 1.391 . S
H1388 C1396 0.950 . S
H1389 C1401 0.950 . S
H1390 C1398 0.950 . S
H1391 C1400 0.950 . S
H1392 C1402 0.950 . S
H1393 C1404 0.950 . S
H1394 C1406 0.950 . S
H1395 C1407 0.950 . S
C1396 H1388 0.950 . S
C1396 C1397 1.386 . S
C1396 C1398 1.391 . S
C1397 C1396 1.386 . S
C1397 C1401 1.393 . S
C1398 H1390 0.950 . S
C1398 C1396 1.391 . S
C1398 C1399 1.400 . S
C1399 C1398 1.400 . S
C1399 C1400 1.398 . S
C1399 C1405 1.491 . S
C1400 H1391 0.950 . S
C1400 C1399 1.398 . S
C1400 C1401 1.391 . S
C1401 H1389 0.950 . S
C1401 C1397 1.393 . S
C1401 C1400 1.391 . S
C1402 H1392 0.950 . S
C1402 C1403 1.386 . S
C1402 C1404 1.391 . S
C1403 C1402 1.386 . S
C1403 C1407 1.393 . S
C1404 H1393 0.950 . S
C1404 C1402 1.391 . S
C1404 C1405 1.400 . S
C1405 C1399 1.491 . S
C1405 C1404 1.400 . S
C1405 C1406 1.398 . S
C1406 H1394 0.950 . S
C1406 C1405 1.398 . S
C1406 C1407 1.391 . S
C1407 H1395 0.950 . S
C1407 C1403 1.393 . S
C1407 C1406 1.391 . S
H1408 C1416 0.950 . S
H1409 C1421 0.950 . S
H1410 C1418 0.950 . S
H1411 C1420 0.950 . S
H1412 C1422 0.950 . S
H1413 C1424 0.950 . S
H1414 C1426 0.950 . S
H1415 C1427 0.950 . S
C1416 H1408 0.950 . S
C1416 C1417 1.386 . S
C1416 C1418 1.391 . S
C1417 C1416 1.386 . S
C1417 C1421 1.393 . S
C1418 H1410 0.950 . S
C1418 C1416 1.391 . S
C1418 C1419 1.400 . S
C1419 C1418 1.400 . S
C1419 C1420 1.398 . S
C1419 C1425 1.491 . S
C1420 H1411 0.950 . S
C1420 C1419 1.398 . S
C1420 C1421 1.391 . S
C1421 H1409 0.950 . S
C1421 C1417 1.393 . S
C1421 C1420 1.391 . S
C1422 H1412 0.950 . S
C1422 C1423 1.386 . S
C1422 C1424 1.391 . S
C1423 C1422 1.386 . S
C1423 C1427 1.393 . S
C1424 H1413 0.950 . S
C1424 C1422 1.391 . S
C1424 C1425 1.400 . S
C1425 C1419 1.491 . S
C1425 C1424 1.400 . S
C1425 C1426 1.398 . S
C1426 H1414 0.950 . S
C1426 C1425 1.398 . S
C1426 C1427 1.391 . S
C1427 H1415 0.950 . S
C1427 C1423 1.393 . S
C1427 C1426 1.391 . S
H1428 C1436 0.950 . S
H1429 C1441 0.950 . S
H1430 C1438 0.950 . S
H1431 C1440 0.950 . S
H1432 C1442 0.950 . S
H1433 C1444 0.950 . S
H1434 C1446 0.950 . S
H1435 C1447 0.950 . S
C1436 H1428 0.950 . S
C1436 C1437 1.386 . S
C1436 C1438 1.391 . S
C1437 C1436 1.386 . S
C1437 C1441 1.393 . S
C1438 H1430 0.950 . S
C1438 C1436 1.391 . S
C1438 C1439 1.400 . S
C1439 C1438 1.400 . S
C1439 C1440 1.398 . S
C1439 C1445 1.491 . S
C1440 H1431 0.950 . S
C1440 C1439 1.398 . S
C1440 C1441 1.391 . S
C1441 H1429 0.950 . S
C1441 C1437 1.393 . S
C1441 C1440 1.391 . S
C1442 H1432 0.950 . S
C1442 C1443 1.386 . S
C1442 C1444 1.391 . S
C1443 C1442 1.386 . S
C1443 C1447 1.393 . S
C1444 H1433 0.950 . S
C1444 C1442 1.391 . S
C1444 C1445 1.400 . S
C1445 C1439 1.491 . S
C1445 C1444 1.400 . S
C1445 C1446 1.398 . S
C1446 H1434 0.950 . S
C1446 C1445 1.398 . S
C1446 C1447 1.391 . S
C1447 H1435 0.950 . S
C1447 C1443 1.393 . S
C1447 C1446 1.391 . S
H1448 C1456 0.950 . S
H1449 C1461 0.950 . S
H1450 C1458 0.950 . S
H1451 C1460 0.950 . S
H1452 C1462 0.950 . S
H1453 C1464 0.950 . S
H1454 C1466 0.950 . S
H1455 C1467 0.950 . S
C1456 H1448 0.950 . S
C1456 C1457 1.386 . S
C1456 C1458 1.391 . S
C1457 C1456 1.386 . S
C1457 C1461 1.393 . S
C1458 H1450 0.950 . S
C1458 C1456 1.391 . S
C1458 C1459 1.400 . S
C1459 C1458 1.400 . S
C1459 C1460 1.398 . S
C1459 C1465 1.491 . S
C1460 H1451 0.950 . S
C1460 C1459 1.398 . S
C1460 C1461 1.391 . S
C1461 H1449 0.950 . S
C1461 C1457 1.393 . S
C1461 C1460 1.391 . S
C1462 H1452 0.950 . S
C1462 C1463 1.386 . S
C1462 C1464 1.391 . S
C1463 C1462 1.386 . S
C1463 C1467 1.393 . S
C1464 H1453 0.950 . S
C1464 C1462 1.391 . S
C1464 C1465 1.400 . S
C1465 C1459 1.491 . S
C1465 C1464 1.400 . S
C1465 C1466 1.398 . S
C1466 H1454 0.950 . S
C1466 C1465 1.398 . S
C1466 C1467 1.391 . S
C1467 H1455 0.950 . S
C1467 C1463 1.393 . S
C1467 C1466 1.391 . S
H1468 C1476 0.950 . S
H1469 C1481 0.950 . S
H1470 C1478 0.950 . S
H1471 C1480 0.950 . S
H1472 C1482 0.950 . S
H1473 C1484 0.950 . S
H1474 C1486 0.950 . S
H1475 C1487 0.950 . S
C1476 H1468 0.950 . S
C1476 C1477 1.386 . S
C1476 C1478 1.391 . S
C1477 C1476 1.386 . S
C1477 C1481 1.393 . S
C1478 H1470 0.950 . S
C1478 C1476 1.391 . S
C1478 C1479 1.400 . S
C1479 C1478 1.400 . S
C1479 C1480 1.398 . S
C1479 C1485 1.491 . S
C1480 H1471 0.950 . S
C1480 C1479 1.398 . S
C1480 C1481 1.391 . S
C1481 H1469 0.950 . S
C1481 C1477 1.393 . S
C1481 C1480 1.391 . S
C1482 H1472 0.950 . S
C1482 C1483 1.386 . S
C1482 C1484 1.391 . S
C1483 C1482 1.386 . S
C1483 C1487 1.393 . S
C1484 H1473 0.950 . S
C1484 C1482 1.391 . S
C1484 C1485 1.400 . S
C1485 C1479 1.491 . S
C1485 C1484 1.400 . S
C1485 C1486 1.398 . S
C1486 H1474 0.950 . S
C1486 C1485 1.398 . S
C1486 C1487 1.391 . S
C1487 H1475 0.950 . S
C1487 C1483 1.393 . S
C1487 C1486 1.391 . S
H1488 C1496 0.950 . S
H1489 C1501 0.950 . S
H1490 C1498 0.950 1_554 S
H1491 C1500 0.950 . S
H1492 C1502 0.950 . S
H1493 C1504 0.950 1_556 S
H1494 C1506 0.950 . S
H1495 C1507 0.950 . S
C1496 H1488 0.950 . S
C1496 C1497 1.386 . S
C1496 C1498 1.391 . S
C1497 C1496 1.386 . S
C1497 C1501 1.393 . S
C1498 H1490 0.950 1_556 S
C1498 C1496 1.391 . S
C1498 C1499 1.400 . S
C1499 C1498 1.400 . S
C1499 C1500 1.398 . S
C1499 C1505 1.491 1_556 S
C1500 H1491 0.950 . S
C1500 C1499 1.398 . S
C1500 C1501 1.391 . S
C1501 H1489 0.950 . S
C1501 C1497 1.393 . S
C1501 C1500 1.391 . S
C1502 H1492 0.950 . S
C1502 C1503 1.386 . S
C1502 C1504 1.391 . S
C1503 C1502 1.386 . S
C1503 C1507 1.393 . S
C1504 H1493 0.950 1_554 S
C1504 C1502 1.391 . S
C1504 C1505 1.400 . S
C1505 C1499 1.491 1_554 S
C1505 C1504 1.400 . S
C1505 C1506 1.398 . S
C1506 H1494 0.950 . S
C1506 C1505 1.398 . S
C1506 C1507 1.391 . S
C1507 H1495 0.950 . S
C1507 C1503 1.393 . S
C1507 C1506 1.391 . S
H1508 C1516 0.950 . S
H1509 C1521 0.950 . S
H1510 C1518 0.950 . S
H1511 C1520 0.950 . S
H1512 C1522 0.950 . S
H1513 C1524 0.950 . S
H1514 C1526 0.950 . S
H1515 C1527 0.950 . S
C1516 H1508 0.950 . S
C1516 C1517 1.386 . S
C1516 C1518 1.391 . S
C1517 C1516 1.386 . S
C1517 C1521 1.393 . S
C1518 H1510 0.950 . S
C1518 C1516 1.391 . S
C1518 C1519 1.400 . S
C1519 C1518 1.400 . S
C1519 C1520 1.398 . S
C1519 C1525 1.491 1_556 S
C1520 H1511 0.950 . S
C1520 C1519 1.398 . S
C1520 C1521 1.391 . S
C1521 H1509 0.950 . S
C1521 C1517 1.393 . S
C1521 C1520 1.391 . S
C1522 H1512 0.950 . S
C1522 C1523 1.386 . S
C1522 C1524 1.391 . S
C1523 C1522 1.386 . S
C1523 C1527 1.393 . S
C1524 H1513 0.950 . S
C1524 C1522 1.391 . S
C1524 C1525 1.400 . S
C1525 C1519 1.491 1_554 S
C1525 C1524 1.400 . S
C1525 C1526 1.398 . S
C1526 H1514 0.950 . S
C1526 C1525 1.398 . S
C1526 C1527 1.391 . S
C1527 H1515 0.950 . S
C1527 C1523 1.393 . S
C1527 C1526 1.391 . S
H1528 C1536 0.950 . S
H1529 C1541 0.950 . S
H1530 C1538 0.950 . S
H1531 C1540 0.950 1_554 S
H1532 C1542 0.950 . S
H1533 C1544 0.950 . S
H1534 C1546 0.950 1_556 S
H1535 C1547 0.950 . S
C1536 H1528 0.950 . S
C1536 C1537 1.386 . S
C1536 C1538 1.391 . S
C1537 C1536 1.386 . S
C1537 C1541 1.393 . S
C1538 H1530 0.950 . S
C1538 C1536 1.391 . S
C1538 C1539 1.400 . S
C1539 C1538 1.400 . S
C1539 C1540 1.398 . S
C1539 C1545 1.491 1_556 S
C1540 H1531 0.950 1_556 S
C1540 C1539 1.398 . S
C1540 C1541 1.391 . S
C1541 H1529 0.950 . S
C1541 C1537 1.393 . S
C1541 C1540 1.391 . S
C1542 H1532 0.950 . S
C1542 C1543 1.386 . S
C1542 C1544 1.391 . S
C1543 C1542 1.386 . S
C1543 C1547 1.393 . S
C1544 H1533 0.950 . S
C1544 C1542 1.391 . S
C1544 C1545 1.400 . S
C1545 C1539 1.491 1_554 S
C1545 C1544 1.400 . S
C1545 C1546 1.398 . S
C1546 H1534 0.950 1_554 S
C1546 C1545 1.398 . S
C1546 C1547 1.391 . S
C1547 H1535 0.950 . S
C1547 C1543 1.393 . S
C1547 C1546 1.391 . S
H1548 C1556 0.950 . S
H1549 C1561 0.950 . S
H1550 C1558 0.950 . S
H1551 C1560 0.950 . S
H1552 C1562 0.950 . S
H1553 C1564 0.950 . S
H1554 C1566 0.950 . S
H1555 C1567 0.952 . S
C1556 H1548 0.950 . S
C1556 C1557 1.386 . S
C1556 C1558 1.391 . S
C1557 C1556 1.386 . S
C1557 C1561 1.393 . S
C1558 H1550 0.950 . S
C1558 C1556 1.391 . S
C1558 C1559 1.400 . S
C1559 C1558 1.400 . S
C1559 C1560 1.398 . S
C1559 C1565 1.491 . S
C1560 H1551 0.950 . S
C1560 C1559 1.398 . S
C1560 C1561 1.391 . S
C1561 H1549 0.950 . S
C1561 C1557 1.393 . S
C1561 C1560 1.391 . S
C1562 H1552 0.950 . S
C1562 C1563 1.386 . S
C1562 C1564 1.391 . S
C1563 C1562 1.386 . S
C1563 C1567 1.393 . S
C1564 H1553 0.950 . S
C1564 C1562 1.391 . S
C1564 C1565 1.400 . S
C1565 C1559 1.491 . S
C1565 C1564 1.400 . S
C1565 C1566 1.398 . S
C1566 H1554 0.950 . S
C1566 C1565 1.398 . S
C1566 C1567 1.391 . S
C1567 H1555 0.952 . S
C1567 C1563 1.393 . S
C1567 C1566 1.391 . S
H1568 C1576 0.950 . S
H1569 C1581 0.950 . S
H1570 C1578 0.950 . S
H1571 C1580 0.950 1_554 S
H1572 C1582 0.950 . S
H1573 C1584 0.950 . S
H1574 C1586 0.950 . S
H1575 C1587 0.950 . S
C1576 H1568 0.950 . S
C1576 C1577 1.386 . S
C1576 C1578 1.391 . S
C1577 C1576 1.386 . S
C1577 C1581 1.393 1_556 S
C1578 H1570 0.950 . S
C1578 C1576 1.391 . S
C1578 C1579 1.400 . S
C1579 C1578 1.400 . S
C1579 C1580 1.398 . S
C1579 C1585 1.491 . S
C1580 H1571 0.950 1_556 S
C1580 C1579 1.398 . S
C1580 C1581 1.391 1_556 S
C1581 H1569 0.950 . S
C1581 C1577 1.393 1_554 S
C1581 C1580 1.391 1_554 S
C1582 H1572 0.950 . S
C1582 C1583 1.386 . S
C1582 C1584 1.391 . S
C1583 C1582 1.386 . S
C1583 C1587 1.393 . S
C1584 H1573 0.950 . S
C1584 C1582 1.391 . S
C1584 C1585 1.400 . S
C1585 C1579 1.491 . S
C1585 C1584 1.400 . S
C1585 C1586 1.398 . S
C1586 H1574 0.950 . S
C1586 C1585 1.398 . S
C1586 C1587 1.391 . S
C1587 H1575 0.950 . S
C1587 C1583 1.393 . S
C1587 C1586 1.391 . S
H1588 C1596 0.950 . S
H1589 C1601 0.950 . S
H1590 C1598 0.950 . S
H1591 C1600 0.950 . S
H1592 C1602 0.950 1_554 S
H1593 C1604 0.950 . S
H1594 C1606 0.950 . S
H1595 C1607 0.950 . S
C1596 H1588 0.950 . S
C1596 C1597 1.386 . S
C1596 C1598 1.391 . S
C1597 C1596 1.386 . S
C1597 C1601 1.393 . S
C1598 H1590 0.950 . S
C1598 C1596 1.391 . S
C1598 C1599 1.400 . S
C1599 C1598 1.400 . S
C1599 C1600 1.398 . S
C1599 C1605 1.491 . S
C1600 H1591 0.950 . S
C1600 C1599 1.398 . S
C1600 C1601 1.391 . S
C1601 H1589 0.950 . S
C1601 C1597 1.393 . S
C1601 C1600 1.391 . S
C1602 H1592 0.950 1_556 S
C1602 C1603 1.386 . S
C1602 C1604 1.391 . S
C1603 C1602 1.386 . S
C1603 C1607 1.393 . S
C1604 H1593 0.950 . S
C1604 C1602 1.391 . S
C1604 C1605 1.400 . S
C1605 C1599 1.491 . S
C1605 C1604 1.400 . S
C1605 C1606 1.398 . S
C1606 H1594 0.950 . S
C1606 C1605 1.398 . S
C1606 C1607 1.391 . S
C1607 H1595 0.950 . S
C1607 C1603 1.393 . S
C1607 C1606 1.391 . S
H1608 C1616 0.950 . S
H1609 C1621 0.950 . S
H1610 C1618 0.950 . S
H1611 C1620 0.950 . S
H1612 C1622 0.950 . S
H1613 C1624 0.950 . S
H1614 C1626 0.950 . S
H1615 C1627 0.950 . S
C1616 H1608 0.950 . S
C1616 C1617 1.386 . S
C1616 C1618 1.391 . S
C1617 C1616 1.386 . S
C1617 C1621 1.393 . S
C1618 H1610 0.950 . S
C1618 C1616 1.391 . S
C1618 C1619 1.400 . S
C1619 C1618 1.400 . S
C1619 C1620 1.398 . S
C1619 C1625 1.491 . S
C1620 H1611 0.950 . S
C1620 C1619 1.398 . S
C1620 C1621 1.391 . S
C1621 H1609 0.950 . S
C1621 C1617 1.393 . S
C1621 C1620 1.391 . S
C1622 H1612 0.950 . S
C1622 C1623 1.386 . S
C1622 C1624 1.391 . S
C1623 C1622 1.386 . S
C1623 C1627 1.393 . S
C1624 H1613 0.950 . S
C1624 C1622 1.391 . S
C1624 C1625 1.400 . S
C1625 C1619 1.491 . S
C1625 C1624 1.400 . S
C1625 C1626 1.398 . S
C1626 H1614 0.950 . S
C1626 C1625 1.398 . S
C1626 C1627 1.391 . S
C1627 H1615 0.950 . S
C1627 C1623 1.393 . S
C1627 C1626 1.391 . S
H1628 C1636 0.950 . S
H1629 C1641 0.950 . S
H1630 C1638 0.950 . S
H1631 C1640 0.950 . S
H1632 C1642 0.950 . S
H1633 C1644 0.950 . S
H1634 C1646 0.950 . S
H1635 C1647 0.950 . S
C1636 H1628 0.950 . S
C1636 C1637 1.386 . S
C1636 C1638 1.391 . S
C1637 C1636 1.386 . S
C1637 C1641 1.393 . S
C1638 H1630 0.950 . S
C1638 C1636 1.391 . S
C1638 C1639 1.400 . S
C1639 C1638 1.400 . S
C1639 C1640 1.398 . S
C1639 C1645 1.491 . S
C1640 H1631 0.950 . S
C1640 C1639 1.398 . S
C1640 C1641 1.391 . S
C1641 H1629 0.950 . S
C1641 C1637 1.393 . S
C1641 C1640 1.391 . S
C1642 H1632 0.950 . S
C1642 C1643 1.386 . S
C1642 C1644 1.391 . S
C1643 C1642 1.386 . S
C1643 C1647 1.393 . S
C1644 H1633 0.950 . S
C1644 C1642 1.391 . S
C1644 C1645 1.400 . S
C1645 C1639 1.491 . S
C1645 C1644 1.400 . S
C1645 C1646 1.398 . S
C1646 H1634 0.950 . S
C1646 C1645 1.398 . S
C1646 C1647 1.391 . S
C1647 H1635 0.950 . S
C1647 C1643 1.393 . S
C1647 C1646 1.391 . S
H1648 C1656 0.950 . S
H1649 C1661 0.950 . S
H1650 C1658 0.950 . S
H1651 C1660 0.950 . S
H1652 C1662 0.950 . S
H1653 C1664 0.950 . S
H1654 C1666 0.950 . S
H1655 C1667 0.950 . S
C1656 H1648 0.950 . S
C1656 C1657 1.386 . S
C1656 C1658 1.391 . S
C1657 C1656 1.386 . S
C1657 C1661 1.393 . S
C1658 H1650 0.950 . S
C1658 C1656 1.391 . S
C1658 C1659 1.400 . S
C1659 C1658 1.400 . S
C1659 C1660 1.398 . S
C1659 C1665 1.491 . S
C1660 H1651 0.950 . S
C1660 C1659 1.398 . S
C1660 C1661 1.391 . S
C1661 H1649 0.950 . S
C1661 C1657 1.393 . S
C1661 C1660 1.391 . S
C1662 H1652 0.950 . S
C1662 C1663 1.386 . S
C1662 C1664 1.391 . S
C1663 C1662 1.386 . S
C1663 C1667 1.393 . S
C1664 H1653 0.950 . S
C1664 C1662 1.391 . S
C1664 C1665 1.400 . S
C1665 C1659 1.491 . S
C1665 C1664 1.400 . S
C1665 C1666 1.398 . S
C1666 H1654 0.950 . S
C1666 C1665 1.398 . S
C1666 C1667 1.391 . S
C1667 H1655 0.950 . S
C1667 C1663 1.393 . S
C1667 C1666 1.391 . S
H1668 C1676 0.950 . S
H1669 C1681 0.950 . S
H1670 C1678 0.950 . S
H1671 C1680 0.950 1_556 S
H1672 C1682 0.950 . S
H1673 C1684 0.950 . S
H1674 C1686 0.950 . S
H1675 C1687 0.950 . S
C1676 H1668 0.950 . S
C1676 C1677 1.386 . S
C1676 C1678 1.391 . S
C1677 C1676 1.386 . S
C1677 C1681 1.393 1_554 S
C1678 H1670 0.950 . S
C1678 C1676 1.391 . S
C1678 C1679 1.400 . S
C1679 C1678 1.400 . S
C1679 C1680 1.398 . S
C1679 C1685 1.491 . S
C1680 H1671 0.950 1_554 S
C1680 C1679 1.398 . S
C1680 C1681 1.391 1_554 S
C1681 H1669 0.950 . S
C1681 C1677 1.393 1_556 S
C1681 C1680 1.391 1_556 S
C1682 H1672 0.950 . S
C1682 C1683 1.386 . S
C1682 C1684 1.391 . S
C1683 C1682 1.386 . S
C1683 C1687 1.393 . S
C1684 H1673 0.950 . S
C1684 C1682 1.391 . S
C1684 C1685 1.400 . S
C1685 C1679 1.491 . S
C1685 C1684 1.400 . S
C1685 C1686 1.398 . S
C1686 H1674 0.950 . S
C1686 C1685 1.398 . S
C1686 C1687 1.391 . S
C1687 H1675 0.950 . S
C1687 C1683 1.393 . S
C1687 C1686 1.391 . S
H1688 C1696 0.950 . S
H1689 C1701 0.950 . S
H1690 C1698 0.950 . S
H1691 C1700 0.950 . S
H1692 C1702 0.950 . S
H1693 C1704 0.950 . S
H1694 C1706 0.950 1_556 S
H1695 C1707 0.950 . S
C1696 H1688 0.950 . S
C1696 C1697 1.386 . S
C1696 C1698 1.391 . S
C1697 C1696 1.386 . S
C1697 C1701 1.393 . S
C1698 H1690 0.950 . S
C1698 C1696 1.391 . S
C1698 C1699 1.400 . S
C1699 C1698 1.400 . S
C1699 C1700 1.398 . S
C1699 C1705 1.491 . S
C1700 H1691 0.950 . S
C1700 C1699 1.398 . S
C1700 C1701 1.391 . S
C1701 H1689 0.950 . S
C1701 C1697 1.393 . S
C1701 C1700 1.391 . S
C1702 H1692 0.950 . S
C1702 C1703 1.386 . S
C1702 C1704 1.391 . S
C1703 C1702 1.386 . S
C1703 C1707 1.393 1_554 S
C1704 H1693 0.950 . S
C1704 C1702 1.391 . S
C1704 C1705 1.400 . S
C1705 C1699 1.491 . S
C1705 C1704 1.400 . S
C1705 C1706 1.398 . S
C1706 H1694 0.950 1_554 S
C1706 C1705 1.398 . S
C1706 C1707 1.391 1_554 S
C1707 H1695 0.950 . S
C1707 C1703 1.393 1_556 S
C1707 C1706 1.391 1_556 S
H1708 C1716 0.950 . S
H1709 C1721 0.950 . S
H1710 C1718 0.950 . S
H1711 C1720 0.950 . S
H1712 C1722 0.950 1_556 S
H1713 C1724 0.950 . S
H1714 C1726 0.950 . S
H1715 C1727 0.950 . S
C1716 H1708 0.950 . S
C1716 C1717 1.386 . S
C1716 C1718 1.391 . S
C1717 C1716 1.386 . S
C1717 C1721 1.393 . S
C1718 H1710 0.950 . S
C1718 C1716 1.391 . S
C1718 C1719 1.400 . S
C1719 C1718 1.400 . S
C1719 C1720 1.398 . S
C1719 C1725 1.491 . S
C1720 H1711 0.950 . S
C1720 C1719 1.398 . S
C1720 C1721 1.391 . S
C1721 H1709 0.950 . S
C1721 C1717 1.393 . S
C1721 C1720 1.391 . S
C1722 H1712 0.950 1_554 S
C1722 C1723 1.386 . S
C1722 C1724 1.391 . S
C1723 C1722 1.386 . S
C1723 C1727 1.393 . S
C1724 H1713 0.950 . S
C1724 C1722 1.391 . S
C1724 C1725 1.400 . S
C1725 C1719 1.491 . S
C1725 C1724 1.400 . S
C1725 C1726 1.398 . S
C1726 H1714 0.950 . S
C1726 C1725 1.398 . S
C1726 C1727 1.391 . S
C1727 H1715 0.950 . S
C1727 C1723 1.393 . S
C1727 C1726 1.391 . S
H1728 C1736 0.950 . S
H1729 C1741 0.950 . S
H1730 C1738 0.950 . S
H1731 C1740 0.950 . S
H1732 C1742 0.950 . S
H1733 C1744 0.950 . S
H1734 C1746 0.950 . S
H1735 C1747 0.950 . S
C1736 H1728 0.950 . S
C1736 C1737 1.386 . S
C1736 C1738 1.391 . S
C1737 C1736 1.386 . S
C1737 C1741 1.393 . S
C1738 H1730 0.950 . S
C1738 C1736 1.391 . S
C1738 C1739 1.400 . S
C1739 C1738 1.400 . S
C1739 C1740 1.398 . S
C1739 C1745 1.491 . S
C1740 H1731 0.950 . S
C1740 C1739 1.398 . S
C1740 C1741 1.391 . S
C1741 H1729 0.950 . S
C1741 C1737 1.393 . S
C1741 C1740 1.391 . S
C1742 H1732 0.950 . S
C1742 C1743 1.386 . S
C1742 C1744 1.391 . S
C1743 C1742 1.386 . S
C1743 C1747 1.393 . S
C1744 H1733 0.950 . S
C1744 C1742 1.391 . S
C1744 C1745 1.400 . S
C1745 C1739 1.491 . S
C1745 C1744 1.400 . S
C1745 C1746 1.398 . S
C1746 H1734 0.950 . S
C1746 C1745 1.398 . S
C1746 C1747 1.391 . S
C1747 H1735 0.950 . S
C1747 C1743 1.393 . S
C1747 C1746 1.391 . S
H1748 C1756 0.950 . S
H1749 C1761 0.950 . S
H1750 C1758 0.950 . S
H1751 C1760 0.950 . S
H1752 C1762 0.950 . S
H1753 C1764 0.950 . S
H1754 C1766 0.950 . S
H1755 C1767 0.950 . S
C1756 H1748 0.950 . S
C1756 C1757 1.386 . S
C1756 C1758 1.391 . S
C1757 C1756 1.386 . S
C1757 C1761 1.393 . S
C1758 H1750 0.950 . S
C1758 C1756 1.391 . S
C1758 C1759 1.400 . S
C1759 C1758 1.400 . S
C1759 C1760 1.398 . S
C1759 C1765 1.491 . S
C1760 H1751 0.950 . S
C1760 C1759 1.398 . S
C1760 C1761 1.391 . S
C1761 H1749 0.950 . S
C1761 C1757 1.393 . S
C1761 C1760 1.391 . S
C1762 H1752 0.950 . S
C1762 C1763 1.386 . S
C1762 C1764 1.391 . S
C1763 C1762 1.386 . S
C1763 C1767 1.393 . S
C1764 H1753 0.950 . S
C1764 C1762 1.391 . S
C1764 C1765 1.400 . S
C1765 C1759 1.491 . S
C1765 C1764 1.400 . S
C1765 C1766 1.398 . S
C1766 H1754 0.950 . S
C1766 C1765 1.398 . S
C1766 C1767 1.391 . S
C1767 H1755 0.950 . S
C1767 C1763 1.393 . S
C1767 C1766 1.391 . S
H1768 C1776 0.950 . S
H1769 C1781 0.950 . S
H1770 C1778 0.950 . S
H1771 C1780 0.950 . S
H1772 C1782 0.950 . S
H1773 C1784 0.950 . S
H1774 C1786 0.950 . S
H1775 C1787 0.950 . S
C1776 H1768 0.950 . S
C1776 C1777 1.386 . S
C1776 C1778 1.391 . S
C1777 C1776 1.386 . S
C1777 C1781 1.393 . S
C1778 H1770 0.950 . S
C1778 C1776 1.391 . S
C1778 C1779 1.400 . S
C1779 C1778 1.400 . S
C1779 C1780 1.398 . S
C1779 C1785 1.491 . S
C1780 H1771 0.950 . S
C1780 C1779 1.398 . S
C1780 C1781 1.391 . S
C1781 H1769 0.950 . S
C1781 C1777 1.393 . S
C1781 C1780 1.391 . S
C1782 H1772 0.950 . S
C1782 C1783 1.386 . S
C1782 C1784 1.391 . S
C1783 C1782 1.386 . S
C1783 C1787 1.393 . S
C1784 H1773 0.950 . S
C1784 C1782 1.391 . S
C1784 C1785 1.400 . S
C1785 C1779 1.491 . S
C1785 C1784 1.400 . S
C1785 C1786 1.398 . S
C1786 H1774 0.950 . S
C1786 C1785 1.398 . S
C1786 C1787 1.391 . S
C1787 H1775 0.950 . S
C1787 C1783 1.393 . S
C1787 C1786 1.391 . S
H1788 C1796 0.950 . S
H1789 C1801 0.950 . S
H1790 C1798 0.950 . S
H1791 C1800 0.950 . S
H1792 C1802 0.950 . S
H1793 C1804 0.950 . S
H1794 C1806 0.950 . S
H1795 C1807 0.950 . S
C1796 H1788 0.950 . S
C1796 C1797 1.386 . S
C1796 C1798 1.391 . S
C1797 C1796 1.386 . S
C1797 C1801 1.393 . S
C1798 H1790 0.950 . S
C1798 C1796 1.391 . S
C1798 C1799 1.400 . S
C1799 C1798 1.400 . S
C1799 C1800 1.398 . S
C1799 C1805 1.491 1_655 S
C1800 H1791 0.950 . S
C1800 C1799 1.398 . S
C1800 C1801 1.391 . S
C1801 H1789 0.950 . S
C1801 C1797 1.393 . S
C1801 C1800 1.391 . S
C1802 H1792 0.950 . S
C1802 C1803 1.386 . S
C1802 C1804 1.391 . S
C1803 C1802 1.386 . S
C1803 C1807 1.393 . S
C1804 H1793 0.950 . S
C1804 C1802 1.391 . S
C1804 C1805 1.400 . S
C1805 C1799 1.491 1_455 S
C1805 C1804 1.400 . S
C1805 C1806 1.398 . S
C1806 H1794 0.950 . S
C1806 C1805 1.398 . S
C1806 C1807 1.391 . S
C1807 H1795 0.950 . S
C1807 C1803 1.393 . S
C1807 C1806 1.391 . S
H1808 C1816 0.950 . S
H1809 C1821 0.950 . S
H1810 C1818 0.950 . S
H1811 C1820 0.950 . S
H1812 C1822 0.950 . S
H1813 C1824 0.950 . S
H1814 C1826 0.950 . S
H1815 C1827 0.950 . S
C1816 H1808 0.950 . S
C1816 C1817 1.386 . S
C1816 C1818 1.391 . S
C1817 C1816 1.386 . S
C1817 C1821 1.393 . S
C1818 H1810 0.950 . S
C1818 C1816 1.391 . S
C1818 C1819 1.400 . S
C1819 C1818 1.400 . S
C1819 C1820 1.398 . S
C1819 C1825 1.491 . S
C1820 H1811 0.950 . S
C1820 C1819 1.398 . S
C1820 C1821 1.391 . S
C1821 H1809 0.950 . S
C1821 C1817 1.393 . S
C1821 C1820 1.391 . S
C1822 H1812 0.950 . S
C1822 C1823 1.386 . S
C1822 C1824 1.391 . S
C1823 C1822 1.386 . S
C1823 C1827 1.393 . S
C1824 H1813 0.950 . S
C1824 C1822 1.391 . S
C1824 C1825 1.400 . S
C1825 C1819 1.491 . S
C1825 C1824 1.400 . S
C1825 C1826 1.398 . S
C1826 H1814 0.950 . S
C1826 C1825 1.398 . S
C1826 C1827 1.391 . S
C1827 H1815 0.950 . S
C1827 C1823 1.393 . S
C1827 C1826 1.391 . S
H1828 C1836 0.950 . S
H1829 C1841 0.950 . S
H1830 C1838 0.950 . S
H1831 C1840 0.950 . S
H1832 C1842 0.950 . S
H1833 C1844 0.950 . S
H1834 C1846 0.950 . S
H1835 C1847 0.950 . S
C1836 H1828 0.950 . S
C1836 C1837 1.386 . S
C1836 C1838 1.391 . S
C1837 C1836 1.386 . S
C1837 C1841 1.393 . S
C1838 H1830 0.950 . S
C1838 C1836 1.391 . S
C1838 C1839 1.400 . S
C1839 C1838 1.400 . S
C1839 C1840 1.398 . S
C1839 C1845 1.491 1_565 S
C1840 H1831 0.950 . S
C1840 C1839 1.398 . S
C1840 C1841 1.391 . S
C1841 H1829 0.950 . S
C1841 C1837 1.393 . S
C1841 C1840 1.391 . S
C1842 H1832 0.950 . S
C1842 C1843 1.386 . S
C1842 C1844 1.391 . S
C1843 C1842 1.386 . S
C1843 C1847 1.393 . S
C1844 H1833 0.950 . S
C1844 C1842 1.391 . S
C1844 C1845 1.400 . S
C1845 C1839 1.491 1_545 S
C1845 C1844 1.400 . S
C1845 C1846 1.398 . S
C1846 H1834 0.950 . S
C1846 C1845 1.398 . S
C1846 C1847 1.391 . S
C1847 H1835 0.950 . S
C1847 C1843 1.393 . S
C1847 C1846 1.391 . S
H1848 C1856 0.950 . S
H1849 C1861 0.950 . S
H1850 C1858 0.950 1_565 S
H1851 C1860 0.950 . S
H1852 C1862 0.950 . S
H1853 C1864 0.950 1_545 S
H1854 C1866 0.950 . S
H1855 C1867 0.950 . S
C1856 H1848 0.950 . S
C1856 C1857 1.386 . S
C1856 C1858 1.391 . S
C1857 C1856 1.386 . S
C1857 C1861 1.393 . S
C1858 H1850 0.950 1_545 S
C1858 C1856 1.391 . S
C1858 C1859 1.400 . S
C1859 C1858 1.400 . S
C1859 C1860 1.398 . S
C1859 C1865 1.491 1_545 S
C1860 H1851 0.950 . S
C1860 C1859 1.398 . S
C1860 C1861 1.391 . S
C1861 H1849 0.950 . S
C1861 C1857 1.393 . S
C1861 C1860 1.391 . S
C1862 H1852 0.950 . S
C1862 C1863 1.386 . S
C1862 C1864 1.391 . S
C1863 C1862 1.386 . S
C1863 C1867 1.393 . S
C1864 H1853 0.950 1_565 S
C1864 C1862 1.391 . S
C1864 C1865 1.400 . S
C1865 C1859 1.491 1_565 S
C1865 C1864 1.400 . S
C1865 C1866 1.398 . S
C1866 H1854 0.950 . S
C1866 C1865 1.398 . S
C1866 C1867 1.391 . S
C1867 H1855 0.950 . S
C1867 C1863 1.393 . S
C1867 C1866 1.391 . S
H1868 C1876 0.950 . S
H1869 C1881 0.950 . S
H1870 C1878 0.950 . S
H1871 C1880 0.950 . S
H1872 C1882 0.950 . S
H1873 C1884 0.950 . S
H1874 C1886 0.950 . S
H1875 C1887 0.950 . S
C1876 H1868 0.950 . S
C1876 C1877 1.386 . S
C1876 C1878 1.391 . S
C1877 C1876 1.386 . S
C1877 C1881 1.393 . S
C1878 H1870 0.950 . S
C1878 C1876 1.391 . S
C1878 C1879 1.400 . S
C1879 C1878 1.400 . S
C1879 C1880 1.398 . S
C1879 C1885 1.491 1_455 S
C1880 H1871 0.950 . S
C1880 C1879 1.398 . S
C1880 C1881 1.391 . S
C1881 H1869 0.950 . S
C1881 C1877 1.393 . S
C1881 C1880 1.391 . S
C1882 H1872 0.950 . S
C1882 C1883 1.386 . S
C1882 C1884 1.391 . S
C1883 C1882 1.386 . S
C1883 C1887 1.393 . S
C1884 H1873 0.950 . S
C1884 C1882 1.391 . S
C1884 C1885 1.400 . S
C1885 C1879 1.491 1_655 S
C1885 C1884 1.400 . S
C1885 C1886 1.398 . S
C1886 H1874 0.950 . S
C1886 C1885 1.398 . S
C1886 C1887 1.391 . S
C1887 H1875 0.950 . S
C1887 C1883 1.393 . S
C1887 C1886 1.391 . S
H1888 C1896 0.950 . S
H1889 C1901 0.950 . S
H1890 C1898 0.950 . S
H1891 C1900 0.950 . S
H1892 C1902 0.950 . S
H1893 C1904 0.950 . S
H1894 C1906 0.950 . S
H1895 C1907 0.950 . S
C1896 H1888 0.950 . S
C1896 C1897 1.386 . S
C1896 C1898 1.391 . S
C1897 C1896 1.386 . S
C1897 C1901 1.393 . S
C1898 H1890 0.950 . S
C1898 C1896 1.391 . S
C1898 C1899 1.400 . S
C1899 C1898 1.400 . S
C1899 C1900 1.398 . S
C1899 C1905 1.491 . S
C1900 H1891 0.950 . S
C1900 C1899 1.398 . S
C1900 C1901 1.391 . S
C1901 H1889 0.950 . S
C1901 C1897 1.393 . S
C1901 C1900 1.391 . S
C1902 H1892 0.950 . S
C1902 C1903 1.386 . S
C1902 C1904 1.391 . S
C1903 C1902 1.386 . S
C1903 C1907 1.393 . S
C1904 H1893 0.950 . S
C1904 C1902 1.391 . S
C1904 C1905 1.400 . S
C1905 C1899 1.491 . S
C1905 C1904 1.400 . S
C1905 C1906 1.398 . S
C1906 H1894 0.950 . S
C1906 C1905 1.398 . S
C1906 C1907 1.391 . S
C1907 H1895 0.950 . S
C1907 C1903 1.393 . S
C1907 C1906 1.391 . S
C477 C75 1.142 . S
C483 C4 1.138 . S
C497 C17 1.142 . S
C503 C49 1.138 . S
C517 C62 1.126 . S
C523 C36 1.127 . S
C537 C82 1.135 . S
C543 C147 1.140 . S
C557 C95 1.137 . S
C563 C121 1.141 . S
C577 C134 1.144 . S
C583 C114 1.146 . S
C597 C225 1.133 . S
C603 C160 1.129 . S
C617 C179 1.135 . S
C623 C205 1.131 . S
C637 C218 1.129 . S
C643 C192 1.133 . S
C657 C238 1.143 . S
C663 C309 1.145 . S
C677 C257 1.129 . S
C683 C277 1.126 . S
C697 C264 1.144 . S
C703 C290 1.140 . S
C717 C316 1.127 . S
C723 C387 1.130 . S
C737 C361 1.138 . S
C743 C329 1.134 . S
C757 C342 1.128 . S
C763 C374 1.132 . S
C777 C400 1.134 . S
C783 C465 1.130 . S
C797 C407 1.126 . S
C803 C439 1.129 . S
C817 C420 1.137 . S
C823 C452 1.141 . S
C837 C140 1.391 . S
C843 C5 1.377 . S
C857 C153 1.389 . S
C863 C18 1.382 . S
C877 C127 1.394 . S
C883 C29 1.380 . S
C897 C108 1.392 . S
C903 C42 1.383 . S
C917 C55 1.373 . S
C923 C88 1.394 . S
C937 C68 1.373 . S
C943 C101 1.394 . S
C957 C83 1.383 . S
C963 C56 1.389 . S
C977 C96 1.382 . S
C983 C69 1.392 . S
C997 C107 1.387 . S
C1003 C43 1.390 . S
C1017 C30 1.395 . S
C1023 C122 1.375 . S
C1037 C10 1.395 . S
C1043 C135 1.377 . S
C1057 C148 1.383 . S
C1063 C23 1.389 . S
C1077 C161 1.375 . S
C1083 C296 1.396 . S
C1097 C172 1.387 . S
C1103 C303 1.389 . S
C1117 C283 1.392 . S
C1123 C185 1.383 . S
C1137 C198 1.376 . S
C1143 C270 1.395 . S
C1157 C211 1.382 . S
C1163 C244 1.393 . S
C1177 C226 1.388 . S
C1183 C251 1.389 . S
C1197 C239 1.375 . S
C1203 C212 1.395 . S
C1217 C231 1.389 . S
C1223 C250 1.383 . S
C1237 C199 1.390 . S
C1243 C265 1.379 . S
C1257 C278 1.379 . S
C1263 C186 1.391 . S
C1277 C166 1.392 . S
C1283 C291 1.375 . S
C1297 C173 1.392 . S
C1303 C302 1.383 . S
C1317 C446 1.396 . S
C1323 C317 1.374 . S
C1337 C330 1.373 . S
C1343 C459 1.394 . S
C1357 C343 1.376 . S
C1363 C433 1.395 . S
C1377 C426 1.388 . S
C1383 C354 1.387 . S
C1397 C394 1.391 . S
C1403 C367 1.378 . S
C1417 C413 1.388 . S
C1423 C380 1.388 . S
C1437 C393 1.377 . S
C1443 C368 1.395 . S
C1457 C381 1.388 . S
C1463 C408 1.387 . S
C1477 C421 1.387 . S
C1483 C355 1.389 . S
C1497 C348 1.388 . S
C1503 C432 1.386 . S
C1517 C322 1.390 . S
C1523 C445 1.379 . S
C1537 C335 1.395 . S
C1543 C458 1.377 . S
C1557 C213 1.386 . S
C1563 C3 1.391 1_556 S
C1577 C16 1.381 1_556 S
C1583 C224 1.398 . S
C1597 C200 1.394 . S
C1603 C31 1.386 1_556 S
C1617 C341 1.382 . S
C1623 C44 1.397 . S
C1637 C57 1.382 . S
C1643 C315 1.398 . S
C1657 C70 1.396 . S
C1663 C328 1.382 . S
C1677 C81 1.397 1_554 S
C1683 C447 1.381 . S
C1697 C460 1.398 . S
C1703 C94 1.382 1_554 S
C1717 C434 1.386 . S
C1723 C109 1.392 1_554 S
C1737 C263 1.382 . S
C1743 C120 1.397 . S
C1757 C133 1.384 . S
C1763 C237 1.394 . S
C1777 C146 1.396 . S
C1783 C252 1.382 . S
C1797 C159 1.391 . S
C1803 C369 1.390 . S
C1817 C382 1.382 . S
C1823 C174 1.395 . S
C1837 C356 1.394 . S
C1843 C187 1.386 . S
C1857 C276 1.382 . S
C1863 C419 1.397 . S
C1877 C395 1.385 . S
C1883 C289 1.393 . S
C1897 C406 1.382 . S
C1903 C304 1.397 . S
