# Generated by pormake.
# Topology tfs, (6)-cn, num edge types: 1
# Building blocks:
#     Node 0, Type 0, BuildingBlock: HISSIN_clean_sbu_0, # of connection points: 6
#     Node 1, Type 0, BuildingBlock: HISSIN_clean_sbu_0, # of connection points: 6
#     Node 2, Type 0, BuildingBlock: HISSIN_clean_sbu_0, # of connection points: 6
#     Node 3, Type 0, BuildingBlock: HISSIN_clean_sbu_0, # of connection points: 6
#     Node 4, Type 0, BuildingBlock: HISSIN_clean_sbu_0, # of connection points: 6
#     Node 5, Type 0, BuildingBlock: HISSIN_clean_sbu_0, # of connection points: 6
#     Edge 6, Type (0, 0), BuildingBlock: ZUJKAS_clean_linker_0, # of connection points: 2
#     Edge 7, Type (0, 0), BuildingBlock: ZUJKAS_clean_linker_0, # of connection points: 2
#     Edge 8, Type (0, 0), BuildingBlock: ZUJKAS_clean_linker_0, # of connection points: 2
#     Edge 9, Type (0, 0), BuildingBlock: ZUJKAS_clean_linker_0, # of connection points: 2
#     Edge 10, Type (0, 0), BuildingBlock: ZUJKAS_clean_linker_0, # of connection points: 2
#     Edge 11, Type (0, 0), BuildingBlock: ZUJKAS_clean_linker_0, # of connection points: 2
#     Edge 12, Type (0, 0), BuildingBlock: ZUJKAS_clean_linker_0, # of connection points: 2
#     Edge 13, Type (0, 0), BuildingBlock: ZUJKAS_clean_linker_0, # of connection points: 2
#     Edge 14, Type (0, 0), BuildingBlock: ZUJKAS_clean_linker_0, # of connection points: 2
#     Edge 15, Type (0, 0), BuildingBlock: ZUJKAS_clean_linker_0, # of connection points: 2
#     Edge 16, Type (0, 0), BuildingBlock: ZUJKAS_clean_linker_0, # of connection points: 2
#     Edge 17, Type (0, 0), BuildingBlock: ZUJKAS_clean_linker_0, # of connection points: 2
#     Edge 18, Type (0, 0), BuildingBlock: ZUJKAS_clean_linker_0, # of connection points: 2
#     Edge 19, Type (0, 0), BuildingBlock: ZUJKAS_clean_linker_0, # of connection points: 2
#     Edge 20, Type (0, 0), BuildingBlock: ZUJKAS_clean_linker_0, # of connection points: 2
#     Edge 21, Type (0, 0), BuildingBlock: ZUJKAS_clean_linker_0, # of connection points: 2
#     Edge 22, Type (0, 0), BuildingBlock: ZUJKAS_clean_linker_0, # of connection points: 2
#     Edge 23, Type (0, 0), BuildingBlock: ZUJKAS_clean_linker_0, # of connection points: 2
# Relax obj value: 0.522
# Max RMSD: 0.292
# Mean RMSD: 0.292
data_MOF--net-tfs--node1-HISSIN_clean_sbu_0--edge1-ZUJKAS_clean_linker_0
_symmetry_space_group_name_H-M    P1
_symmetry_Int_Tables_number       1
_symmetry_cell_setting            triclinic
loop_
_symmetry_equiv_pos_as_xyz
'x, y, z'
_cell_length_a     67.30545
_cell_length_b     67.297531
_cell_length_c     19.723379
_cell_angle_alpha  90.007106
_cell_angle_beta   89.98308
_cell_angle_gamma 120.01378
loop_
_atom_site_label
_atom_site_type_symbol
_atom_site_fract_x
_atom_site_fract_y
_atom_site_fract_z
_atom_type_partial_charge
Eu0 Eu 0.21457 0.40282 0.0034 0.0
Eu1 Eu 0.19087 0.43566 0.00479 0.0
C2 C 0.20159 0.41807 0.13868 0.0
C3 C 0.23114 0.35443 0.00011 0.0
C4 C 0.22532 0.33928 0.05525 0.0
C5 C 0.23971 0.32912 0.93372 0.0
C6 C 0.22736 0.31968 0.05037 0.0
C7 C 0.23774 0.34881 0.93866 0.0
C8 C 0.23536 0.31483 0.99035 0.0
C9 C 0.23387 0.37746 0.01055 0.0
O10 O 0.2284 0.45967 0.02493 0.0
O11 O 0.24321 0.43846 0.97891 0.0
C12 C 0.24571 0.45804 0.00067 0.0
O13 O 0.20143 0.40174 0.89807 0.0
O14 O 0.18112 0.45676 0.06426 0.0
O15 O 0.17292 0.45151 0.95705 0.0
O16 O 0.20448 0.43723 0.89947 0.0
C17 C 0.20289 0.41957 0.86621 0.0
O18 O 0.17654 0.37781 0.01371 0.0
O19 O 0.162 0.40064 0.9781 0.0
O20 O 0.18468 0.41763 0.10485 0.0
O21 O 0.23552 0.38989 0.95768 0.0
O22 O 0.22253 0.37999 0.06028 0.0
O23 O 0.21892 0.41896 0.10604 0.0
C24 C 0.17949 0.48657 0.0067 0.0
C25 C 0.19429 0.50088 0.95564 0.0
C26 C 0.17667 0.51866 0.05147 0.0
C27 C 0.20009 0.52397 0.95231 0.0
C28 C 0.17078 0.49565 0.05445 0.0
C29 C 0.19137 0.53309 0.00038 0.0
C30 C 0.1729 0.46222 0.01223 0.0
C31 C 0.15937 0.38045 -0.00665 0.0
H32 H 0.22035 0.34317 0.10351 0.0
H33 H 0.24613 0.32595 0.88699 0.0
H34 H 0.22369 0.30885 0.09463 0.0
H35 H 0.2426 0.36025 0.89546 0.0
H36 H 0.20138 0.49427 0.91851 0.0
H37 H 0.1694 0.52508 0.08861 0.0
H38 H 0.21158 0.53473 0.91268 0.0
H39 H 0.15932 0.48487 0.09417 0.0
Eu40 Eu 0.8139 0.21512 -0.00318 0.0
Eu41 Eu 0.75737 0.19134 -0.00418 0.0
C42 C 0.78504 0.20196 0.13131 0.0
C43 C 0.87884 0.23175 -0.00463 0.0
C44 C 0.88809 0.22597 0.05082 0.0
C45 C 0.91269 0.23999 0.92931 0.0
C46 C 0.90965 0.22783 0.04619 0.0
C47 C 0.8911 0.2382 0.93397 0.0
C48 C 0.92252 0.23561 0.98614 0.0
C49 C 0.85854 0.23449 0.00532 0.0
O50 O 0.77058 0.22873 0.0171 0.0
O51 O 0.80697 0.2439 0.97336 0.0
C52 C 0.7897 0.24622 -0.00561 0.0
O53 O 0.80229 0.20206 0.89112 0.0
O54 O 0.72586 0.1813 0.05144 0.0
O55 O 0.72413 0.17329 0.94433 0.0
O56 O 0.77027 0.20574 0.89179 0.0
C57 C 0.78619 0.20384 0.85881 0.0
O58 O 0.80088 0.17711 0.0081 0.0
O59 O 0.76378 0.16258 0.97011 0.0
O60 O 0.76844 0.1852 0.09731 0.0
O61 O 0.84793 0.23621 0.95215 0.0
O62 O 0.84451 0.22306 0.05464 0.0
O63 O 0.80168 0.21924 0.09899 0.0
C64 C 0.69532 0.1803 0.98832 0.0
C65 C 0.67759 0.16839 0.94142 0.0
C66 C 0.67735 0.20237 0.02238 0.0
C67 C 0.65977 0.17325 0.93539 0.0
C68 C 0.69526 0.19762 0.02803 0.0
C69 C 0.6592 0.19002 0.97668 0.0
C70 C 0.71281 0.17344 -0.00212 0.0
C71 C 0.78119 0.15992 0.98695 0.0
H72 H 0.8792 0.22113 0.09904 0.0
H73 H 0.92229 0.24624 0.88253 0.0
H74 H 0.9167 0.22412 0.09061 0.0
H75 H 0.8846 0.24302 0.89055 0.0
H76 H 0.6773 0.155 0.9102 0.0
H77 H 0.67738 0.21521 0.05553 0.0
H78 H 0.64631 0.1637 0.89878 0.0
H79 H 0.70873 0.20714 0.06464 0.0
Eu80 Eu 0.59924 0.81367 0.00557 0.0
Eu81 Eu 0.56683 0.75718 0.00408 0.0
C82 C 0.58345 0.78486 0.13953 0.0
C83 C 0.64746 0.87875 0.0052 0.0
C84 C 0.66172 0.88872 0.06184 0.0
C85 C 0.67362 0.91207 0.93807 0.0
C86 C 0.68132 0.91037 0.05716 0.0
C87 C 0.65393 0.89039 0.94278 0.0
C88 C 0.68707 0.92261 -0.00419 0.0
C89 C 0.62447 0.85832 0.01456 0.0
O90 O 0.54221 0.76999 0.02387 0.0
O91 O 0.56352 0.80674 0.9825 0.0
C92 C 0.54387 0.78923 0.00216 0.0
O93 O 0.60036 0.80219 0.8993 0.0
O94 O 0.5457 0.72584 0.06105 0.0
O95 O 0.55192 0.72374 0.95423 0.0
O96 O 0.56483 0.76985 0.90022 0.0
C97 C 0.58248 0.78599 0.86713 0.0
O98 O 0.6241 0.80052 0.01812 0.0
O99 O 0.60194 0.76413 0.97475 0.0
O100 O 0.58416 0.76857 0.1054 0.0
O101 O 0.61228 0.84773 0.96114 0.0
O102 O 0.62184 0.84425 0.06378 0.0
O103 O 0.58252 0.80132 0.10717 0.0
C104 C 0.51612 0.69473 -0.00025 0.0
C105 C 0.50733 0.68493 0.93596 0.0
C106 C 0.47907 0.6685 0.05027 0.0
C107 C 0.48465 0.66704 0.9295 0.0
C108 C 0.50171 0.6863 0.05677 0.0
C109 C 0.47032 0.65853 0.98669 0.0
C110 C 0.54053 0.71255 0.00807 0.0
C111 C 0.6219 0.78133 -0.00651 0.0
H112 H 0.65713 0.88031 0.11082 0.0
H113 H 0.67748 0.92117 0.89023 0.0
H114 H 0.69149 0.91796 0.10234 0.0
H115 H 0.64319 0.88331 0.89835 0.0
H116 H 0.51804 0.69086 0.89111 0.0
H117 H 0.46862 0.66207 0.09551 0.0
H118 H 0.47835 0.65981 0.87975 0.0
H119 H 0.50804 0.69319 0.10682 0.0
Eu120 Eu 0.78748 0.59798 0.00464 0.0
Eu121 Eu 0.81323 0.56724 0.00161 0.0
C122 C 0.80152 0.58303 0.13752 0.0
C123 C 0.76792 0.64413 0.00115 0.0
C124 C 0.76921 0.65785 0.05652 0.0
C125 C 0.76176 0.66939 0.92665 0.0
C126 C 0.76629 0.67681 0.04738 0.0
C127 C 0.76472 0.6504 0.93581 0.0
C128 C 0.76185 0.68241 0.98261 0.0
C129 C 0.76667 0.62189 0.01404 0.0
O130 O 0.77612 0.54151 0.02175 0.0
O131 O 0.75954 0.56185 0.98123 0.0
C132 C 0.75812 0.54248 0.00052 0.0
O133 O 0.80085 0.6003 0.89875 0.0
O134 O 0.82495 0.54732 0.05881 0.0
O135 O 0.83241 0.55317 0.95128 0.0
O136 O 0.79827 0.56506 0.89785 0.0
C137 C 0.7996 0.58278 0.86566 0.0
O138 O 0.8253 0.62379 0.01717 0.0
O139 O 0.8405 0.60273 0.97205 0.0
O140 O 0.81886 0.58475 0.10277 0.0
O141 O 0.7643 0.60865 0.96257 0.0
O142 O 0.77975 0.62109 0.06159 0.0
O143 O 0.78361 0.58109 0.10569 0.0
C144 C 0.82828 0.51872 -0.00083 0.0
C145 C 0.81634 0.50496 0.94328 0.0
C146 C 0.8316 0.48713 0.04588 0.0
C147 C 0.81223 0.48244 0.93858 0.0
C148 C 0.83579 0.50959 0.05033 0.0
C149 C 0.81992 0.4733 0.98974 0.0
C150 C 0.83341 0.54265 0.00569 0.0
C151 C 0.84263 0.62234 0.99173 0.0
H152 H 0.77135 0.65326 0.10755 0.0
H153 H 0.75866 0.67342 0.87599 0.0
H154 H 0.76616 0.68625 0.09171 0.0
H155 H 0.76355 0.64014 0.89207 0.0
H156 H 0.8103 0.51159 0.90314 0.0
H157 H 0.83736 0.48054 0.08689 0.0
H158 H 0.80335 0.47233 0.8944 0.0
H159 H 0.84495 0.51988 0.09401 0.0
Eu160 Eu 0.19082 0.78783 0.00511 0.0
Eu161 Eu 0.24732 0.81334 0.00065 0.0
C162 C 0.22028 0.80193 0.1374 0.0
C163 C 0.12516 0.76849 0.00384 0.0
C164 C 0.11261 0.76913 0.05985 0.0
C165 C 0.09396 0.7633 0.92994 0.0
C166 C 0.09077 0.76637 0.05128 0.0
C167 C 0.11586 0.76609 0.93854 0.0
C168 C 0.0809 0.76275 0.98641 0.0
C169 C 0.14614 0.76715 0.01578 0.0
O170 O 0.23581 0.77619 0.02046 0.0
O171 O 0.19875 0.75976 0.98116 0.0
C172 C 0.2167 0.75824 -0.00025 0.0
O173 O 0.20166 0.80111 0.899 0.0
O174 O 0.27924 0.82404 0.05498 0.0
O175 O 0.2803 0.83318 0.94913 0.0
O176 O 0.23409 0.79815 0.89742 0.0
C177 C 0.21776 0.79966 0.86554 0.0
O178 O 0.20291 0.82565 0.01747 0.0
O179 O 0.23917 0.84077 0.9724 0.0
O180 O 0.236 0.81917 0.1025 0.0
O181 O 0.15681 0.76478 0.96378 0.0
O182 O 0.16018 0.78015 0.06313 0.0
O183 O 0.20416 0.78406 0.10577 0.0
C184 C 0.3104 0.82804 0.9904 0.0
C185 C 0.3054 0.80545 0.9785 0.0
C186 C 0.35106 0.84081 0.98778 0.0
C187 C 0.32322 0.80054 0.97173 0.0
C188 C 0.33328 0.84567 -0.00552 0.0
C189 C 0.34628 0.81818 0.97677 0.0
C190 C 0.29213 0.8335 0.00193 0.0
C191 C 0.22173 0.84295 -0.00787 0.0
H192 H 0.11922 0.77064 0.11083 0.0
H193 H 0.08695 0.76084 0.87921 0.0
H194 H 0.08112 0.76572 0.09598 0.0
H195 H 0.12506 0.76546 0.8943 0.0
H196 H 0.28775 0.79162 0.97532 0.0
H197 H 0.36856 0.85474 -0.0069 0.0
H198 H 0.31895 0.78297 0.96264 0.0
H199 H 0.3374 0.86318 0.00413 0.0
Eu200 Eu 0.40406 0.19035 0.01668 0.0
Eu201 Eu 0.43657 0.24719 0.01634 0.0
C202 C 0.41949 0.21915 0.15145 0.0
C203 C 0.35691 0.12496 0.00969 0.0
C204 C 0.34272 0.11233 0.06404 0.0
C205 C 0.3319 0.09414 0.93313 0.0
C206 C 0.32365 0.09062 0.05341 0.0
C207 C 0.351 0.11591 0.9438 0.0
C208 C 0.3184 0.08096 0.98812 0.0
C209 C 0.37923 0.14566 0.0243 0.0
O210 O 0.46122 0.23443 0.03512 0.0
O211 O 0.43993 0.19758 -0.00563 0.0
C212 C 0.45957 0.21518 0.01366 0.0
O213 O 0.40283 0.20205 0.91094 0.0
O214 O 0.45935 0.27849 0.07151 0.0
O215 O 0.45002 0.28066 0.96769 0.0
O216 O 0.4382 0.23466 0.91186 0.0
C217 C 0.42057 0.21845 0.87885 0.0
O218 O 0.37862 0.20289 0.02569 0.0
O219 O 0.40128 0.24056 -0.00794 0.0
O220 O 0.41927 0.23573 0.11759 0.0
O221 O 0.39306 0.15651 0.97391 0.0
O222 O 0.37989 0.15949 0.07179 0.0
O223 O 0.42016 0.20253 0.11911 0.0
C224 C 0.48621 0.30974 0.00653 0.0
C225 C 0.50293 0.30417 0.98761 0.0
C226 C 0.51512 0.35011 0.00617 0.0
C227 C 0.52573 0.32155 0.97832 0.0
C228 C 0.49241 0.33276 0.01537 0.0
C229 C 0.53211 0.34474 0.98784 0.0
C230 C 0.46245 0.29188 0.01998 0.0
C231 C 0.38117 0.2228 0.00674 0.0
H232 H 0.34703 0.11874 0.11548 0.0
H233 H 0.32814 0.0873 0.88209 0.0
H234 H 0.31385 0.08087 0.09705 0.0
H235 H 0.36163 0.12517 0.90081 0.0
H236 H 0.49837 0.28641 0.9807 0.0
H237 H 0.51947 0.36771 0.0151 0.0
H238 H 0.53834 0.31685 0.96362 0.0
H239 H 0.47971 0.33731 0.03045 0.0
H240 H 0.38113 0.26306 -0.00145 0.0
H241 H 0.34849 0.26888 0.98792 0.0
H242 H 0.30244 0.19566 0.99047 0.0
H243 H 0.33537 0.18959 0.00291 0.0
H244 H 0.31686 0.25484 0.88666 0.0
H245 H 0.27469 0.21805 0.13437 0.0
H246 H 0.3035 0.22433 0.11575 0.0
H247 H 0.27943 0.19962 0.07893 0.0
C248 C 0.36411 0.2481 -0.00297 0.0
C249 C 0.36089 0.22583 0.00159 0.0
C250 C 0.34542 0.25149 0.99083 0.0
C251 C 0.323 0.23274 0.98868 0.0
C252 C 0.31958 0.2104 -0.00692 0.0
H253 H 0.22685 0.28242 0.89232 0.0
H254 H 0.24252 0.25641 0.88684 0.0
C255 C 0.3384 0.20696 -3e-05 0.0
C256 C 0.30367 0.23725 0.98137 0.0
H257 H 0.25965 0.2366 0.0693 0.0
C258 C 0.30406 0.25054 0.92597 0.0
C259 C 0.28703 0.23157 0.03277 0.0
C260 C 0.28608 0.21774 0.09414 0.0
C261 C 0.28945 0.25977 0.92293 0.0
C262 C 0.27341 0.2549 0.97579 0.0
C263 C 0.27192 0.24026 0.02881 0.0
C264 C 0.26069 0.26757 0.98236 0.0
C265 C 0.29261 0.27604 0.86578 0.0
C266 C 0.26462 0.2815 0.03944 0.0
C267 C 0.25541 0.29598 0.04317 0.0
C268 C 0.24213 0.29695 0.9897 0.0
C269 C 0.23725 0.2822 0.9339 0.0
C270 C 0.24625 0.26742 0.93062 0.0
H271 H 0.30867 0.28135 0.83688 0.0
H272 H 0.27801 0.26746 0.82996 0.0
H273 H 0.29304 0.29171 0.88546 0.0
H274 H 0.27573 0.28198 0.07993 0.0
H275 H 0.25972 0.30731 0.08647 0.0
H276 H 0.14643 0.33468 0.00248 0.0
H277 H 0.10757 0.30158 0.99002 0.0
H278 H 0.08103 0.34746 0.95965 0.0
H279 H 0.11941 0.38029 0.97045 0.0
H280 H 0.06917 0.28869 0.06384 0.0
H281 H 0.05294 0.30463 0.80141 0.0
H282 H 0.08135 0.31885 0.83791 0.0
H283 H 0.06229 0.33007 0.8511 0.0
C284 C 0.1323 0.33767 -0.00727 0.0
C285 C 0.13609 0.36016 0.9869 0.0
C286 C 0.11014 0.31875 0.9855 0.0
C287 C 0.09149 0.32204 0.97211 0.0
C288 C 0.09524 0.34446 0.96765 0.0
H289 H 0.95465 0.25963 0.08203 0.0
H290 H 0.99579 0.27472 0.07564 0.0
C291 C 0.11726 0.36327 0.97443 0.0
C292 C 0.06775 0.30239 0.96635 0.0
H293 H 0.01906 0.28404 0.87292 0.0
C294 C 0.0583 0.28729 0.0214 0.0
C295 C 0.05367 0.3 0.91012 0.0
C296 C 0.0632 0.31411 0.84652 0.0
C297 C 0.03471 0.2713 0.02434 0.0
C298 C 0.02017 0.27093 0.97181 0.0
C299 C 0.03002 0.28456 0.914 0.0
C300 C 0.9948 0.25889 0.97909 0.0
C301 C 0.02559 0.25541 0.08457 0.0
C302 C 0.98035 0.2452 0.92641 0.0
C303 C 0.95668 0.23682 0.92947 0.0
C304 C 0.94704 0.24189 0.98544 0.0
C305 C 0.96145 0.25496 0.03896 0.0
C306 C 0.98504 0.26351 0.03553 0.0
H307 H 0.03848 0.25096 0.10306 0.0
H308 H 0.02213 0.26422 0.12664 0.0
H309 H 0.0095 0.23931 0.07218 0.0
H310 H 0.98748 0.24157 0.88203 0.0
H311 H 0.94597 0.22678 0.88753 0.0
H312 H 0.81354 0.14658 0.0033 0.0
H313 H 0.8075 0.10752 -0.00573 0.0
H314 H 0.73578 0.08162 0.95251 0.0
H315 H 0.74163 0.12016 0.95987 0.0
H316 H 0.78054 0.06963 0.06808 0.0
H317 H 0.75223 0.05218 0.80208 0.0
H318 H 0.76618 0.08081 0.83713 0.0
H319 H 0.73566 0.06207 0.84687 0.0
C320 C 0.79653 0.13256 0.99165 0.0
C321 C 0.77812 0.13657 0.9818 0.0
C322 C 0.79313 0.11028 0.98641 0.0
C323 C 0.77131 0.09173 0.97095 0.0
C324 C 0.75293 0.09573 0.96218 0.0
H325 H 0.69381 0.95563 0.08705 0.0
H326 H 0.72012 0.9967 0.07894 0.0
C327 C 0.7563 0.11785 0.96701 0.0
C328 C 0.76697 0.06785 0.96789 0.0
H329 H 0.73732 0.01865 0.87599 0.0
C330 C 0.77158 0.05856 0.02544 0.0
C331 C 0.75592 0.05348 0.91157 0.0
C332 C 0.75248 0.06276 0.84569 0.0
C333 C 0.76354 0.03492 0.03048 0.0
C334 C 0.74999 0.02017 0.97742 0.0
C335 C 0.74727 0.02979 0.91743 0.0
C336 C 0.73625 0.99485 0.98591 0.0
C337 C 0.76921 0.026 0.0934 0.0
C338 C 0.73609 0.97996 0.93561 0.0
C339 C 0.72066 0.95632 0.93962 0.0
C340 C 0.70521 0.94717 -0.00583 0.0
C341 C 0.70586 0.96205 0.04524 0.0
C342 C 0.72104 0.9856 0.04083 0.0
H343 H 0.78632 0.03883 0.11352 0.0
H344 H 0.75637 0.02293 0.13335 0.0
H345 H 0.76913 0.00972 0.08348 0.0
H346 H 0.74749 0.98669 0.89238 0.0
H347 H 0.72054 0.94525 0.89955 0.0
H348 H 0.7802 0.72457 0.0447 0.0
H349 H 0.76484 0.75081 0.04349 0.0
H350 H 0.71209 0.70609 0.90357 0.0
H351 H 0.7272 0.67988 0.90451 0.0
H352 H 0.73082 0.7529 0.87318 0.0
H353 H 0.70532 0.73414 0.14477 0.0
H354 H 0.73517 0.74532 0.12582 0.0
H355 H 0.71427 0.71732 0.09597 0.0
C356 C 0.76543 0.72044 0.01327 0.0
C357 C 0.75485 0.70005 0.97501 0.0
C358 C 0.75668 0.73543 0.01271 0.0
C359 C 0.7371 0.73019 0.97433 0.0
C360 C 0.72722 0.71047 0.93355 0.0
H361 H 0.62577 0.74983 0.91697 0.0
H362 H 0.65794 0.74294 0.91128 0.0
C363 C 0.73597 0.69554 0.9339 0.0
C364 C 0.72577 0.7442 0.97928 0.0
H365 H 0.69326 0.75641 0.08575 0.0
C366 C 0.72292 0.754 0.9199 0.0
C367 C 0.71555 0.7457 0.0404 0.0
C368 C 0.71752 0.73497 0.1054 0.0
C369 C 0.70928 0.76437 0.91935 0.0
C370 C 0.69801 0.76468 0.97949 0.0
C371 C 0.70198 0.75616 0.03977 0.0
C372 C 0.67966 0.77072 0.97896 0.0
C373 C 0.70648 0.7743 0.85391 0.0
C374 C 0.6811 0.78855 0.01952 0.0
C375 C 0.66261 0.79259 0.02292 0.0
C376 C 0.64227 0.77854 0.98683 0.0
C377 C 0.64111 0.76092 0.94568 0.0
C378 C 0.65959 0.75707 0.94181 0.0
H379 H 0.72134 0.77934 0.81955 0.0
H380 H 0.69084 0.76115 0.82747 0.0
H381 H 0.70456 0.78952 0.86347 0.0
H382 H 0.69638 0.7991 0.04916 0.0
H383 H 0.66399 0.80623 0.05526 0.0
H384 H 0.05711 0.78047 0.05202 0.0
H385 H 0.01554 0.76531 0.0507 0.0
H386 H 0.00757 0.71431 0.90403 0.0
H387 H 0.04887 0.72922 0.9051 0.0
H388 H 0.97969 0.73371 0.87781 0.0
H389 H 0.97232 0.70446 0.14573 0.0
H390 H 0.99117 0.73452 0.13003 0.0
H391 H 0.99815 0.71392 0.09676 0.0
C392 C 0.0465 0.76614 0.01909 0.0
C393 C 0.05631 0.75597 0.97898 0.0
C394 C 0.02277 0.7575 0.01846 0.0
C395 C 0.00845 0.73845 0.97811 0.0
C396 C 0.01832 0.72903 0.93554 0.0
H397 H 0.8779 0.62799 0.91151 0.0
H398 H 0.91677 0.66058 0.90755 0.0
C399 C 0.04198 0.73767 0.93598 0.0
C400 C 0.98311 0.72715 0.98281 0.0
H401 H 0.93814 0.69321 0.08683 0.0
C402 C 0.97058 0.72517 0.92382 0.0
C403 C 0.97124 0.7161 0.04301 0.0
C404 C 0.98381 0.71714 0.1075 0.0
C405 C 0.94657 0.71159 0.92259 0.0
C406 C 0.93485 0.69947 0.98161 0.0
C407 C 0.94721 0.70258 0.04171 0.0
C408 C 0.91048 0.68105 0.97964 0.0
C409 C 0.93399 0.70975 0.85754 0.0
C410 C 0.894 0.68165 0.02197 0.0
C411 C 0.87157 0.66291 0.02438 0.0
C412 C 0.86551 0.64315 0.9855 0.0
C413 C 0.88201 0.64288 0.94238 0.0
C414 C 0.90422 0.66161 0.93951 0.0
H415 H 0.94383 0.72518 0.82525 0.0
H416 H 0.93171 0.69462 0.82853 0.0
H417 H 0.91676 0.70752 0.86778 0.0
H418 H 0.8986 0.69643 0.0539 0.0
H419 H 0.85926 0.66358 0.05828 0.0
H420 H 0.19632 0.85927 0.05566 0.0
H421 H 0.20252 0.89848 0.05022 0.0
H422 H 0.25817 0.91732 0.90942 0.0
H423 H 0.25217 0.87858 0.91434 0.0
H424 H 0.24435 0.93825 0.08615 0.0
H425 H 0.22119 0.94379 0.82079 0.0
H426 H 0.21166 0.91673 0.86347 0.0
H427 H 0.23996 0.93213 0.82709 0.0
C428 C 0.20963 0.8717 0.02277 0.0
C429 C 0.22382 0.86584 0.98568 0.0
C430 C 0.21313 0.89406 0.01974 0.0
C431 C 0.23056 0.91068 0.97858 0.0
C432 C 0.24431 0.90465 0.94038 0.0
H433 H 0.32106 0.0491 0.909 0.0
H434 H 0.29473 0.00781 0.90636 0.0
C435 C 0.24099 0.88251 0.94383 0.0
C436 C 0.23621 0.93497 0.97983 0.0
H437 H 0.24777 0.97977 0.87468 0.0
C438 C 0.24456 0.94731 0.04043 0.0
C439 C 0.23644 0.94666 0.92003 0.0
C440 C 0.22661 0.93409 0.85431 0.0
C441 C 0.25483 0.97132 0.04167 0.0
C442 C 0.25636 0.98318 0.98083 0.0
C443 C 0.24666 0.97066 0.92118 0.0
C444 C 0.27037 0.00854 0.97646 0.0
C445 C 0.26541 0.9839 0.10697 0.0
C446 C 0.26501 0.02277 0.01495 0.0
C447 C 0.28007 0.04651 0.01645 0.0
C448 C 0.30066 0.05641 0.97909 0.0
C449 C 0.30526 0.04216 0.93773 0.0
C450 C 0.29026 0.01849 0.93641 0.0
H451 H 0.26611 0.97243 0.14627 0.0
H452 H 0.2831 0.99829 0.09795 0.0
H453 H 0.25505 0.99119 0.12726 0.0
H454 H 0.24951 0.01547 0.04519 0.0
H455 H 0.27586 0.05706 0.04803 0.0
H456 H 0.24958 0.74762 0.03674 0.0
H457 H 0.24696 0.71007 0.03281 0.0
H458 H 0.17851 0.68015 0.9511 0.0
H459 H 0.18076 0.71746 0.95591 0.0
H460 H 0.18137 0.65521 0.05594 0.0
H461 H 0.25033 0.67517 0.86837 0.0
H462 H 0.25939 0.69433 0.93965 0.0
H463 H 0.23837 0.69362 0.88193 0.0
C464 C 0.23398 0.73308 0.01769 0.0
C465 C 0.21537 0.73559 -0.00335 0.0
C466 C 0.2326 0.71166 0.01499 0.0
C467 C 0.21268 0.69239 0.99066 0.0
C468 C 0.19409 0.69483 0.96973 0.0
H469 H 0.19221 0.55762 0.88852 0.0
H470 H 0.19829 0.5967 0.88549 0.0
C471 C 0.19542 0.7162 0.97256 0.0
C472 C 0.21074 0.66945 0.98973 0.0
H473 H 0.23498 0.63932 0.92563 0.0
C474 C 0.19306 0.65172 0.0273 0.0
C475 C 0.22584 0.66487 0.95164 0.0
C476 C 0.24442 0.68293 0.90756 0.0
C477 C 0.19021 0.6296 0.02861 0.0
C478 C 0.20577 0.62522 -0.00756 0.0
C479 C 0.22325 0.64283 0.95394 0.0
C480 C 0.20391 0.60232 -0.00648 0.0
C481 C 0.1703 0.61104 0.06781 0.0
C482 C 0.20576 0.59284 0.05489 0.0
C483 C 0.20227 0.57058 0.05677 0.0
C484 C 0.19708 0.55743 -0.00285 0.0
C485 C 0.19628 0.56736 0.93521 0.0
C486 C 0.19967 0.58963 0.93345 0.0
H487 H 0.15675 0.61554 0.07731 0.0
H488 H 0.16253 0.59442 0.04033 0.0
H489 H 0.17651 0.60873 0.11767 0.0
H490 H 0.20958 0.60256 0.10157 0.0
H491 H 0.20344 0.56356 0.10504 0.0
H492 H 0.46293 0.17732 0.98262 0.0
H493 H 0.49775 0.17464 0.97503 0.0
H494 H 0.53869 0.24637 0.02605 0.0
H495 H 0.50398 0.24917 0.03495 0.0
H496 H 0.53515 0.19814 0.89063 0.0
H497 H 0.56152 0.21643 0.16062 0.0
H498 H 0.5333 0.20943 0.13189 0.0
H499 H 0.55724 0.2379 0.12023 0.0
C500 C 0.47931 0.19252 -0.00737 0.0
C501 C 0.48062 0.21343 0.00986 0.0
C502 C 0.4992 0.19095 0.98816 0.0
C503 C 0.52077 0.21021 0.00094 0.0
C504 C 0.52218 0.23116 0.01748 0.0
H505 H 0.65936 0.23085 0.98689 0.0
H506 H 0.62617 0.23654 0.98983 0.0
C507 C 0.5023 0.23274 0.02225 0.0
C508 C 0.54178 0.20843 -0.0046 0.0
H509 H 0.58783 0.21433 0.08513 0.0
C510 C 0.54664 0.20164 0.93318 0.0
C511 C 0.55677 0.21305 0.05099 0.0
C512 C 0.5519 0.21941 0.1199 0.0
C513 C 0.56617 0.19944 0.92495 0.0
C514 C 0.58106 0.20396 0.98057 0.0
C515 C 0.57638 0.21099 0.04255 0.0
C516 C 0.60115 0.20064 0.97625 0.0
C517 C 0.57086 0.19248 0.85674 0.0
C518 C 0.59798 0.17855 0.96804 0.0
C519 C 0.61684 0.17518 0.96715 0.0
C520 C 0.63927 0.19387 0.97438 0.0
C521 C 0.64234 0.21604 0.98197 0.0
C522 C 0.62343 0.21936 0.98328 0.0
H523 H 0.56087 0.19476 0.81568 0.0
H524 H 0.5894 0.20263 0.84408 0.0
H525 H 0.56595 0.1741 0.85833 0.0
H526 H 0.58087 0.16383 0.96379 0.0
H527 H 0.61375 0.15782 0.96266 0.0
H528 H 0.43136 0.65294 0.04804 0.0
H529 H 0.39297 0.61894 0.04559 0.0
H530 H 0.41721 0.58554 0.90945 0.0
H531 H 0.45576 0.61923 0.91277 0.0
H532 H 0.36343 0.59572 0.9308 0.0
H533 H 0.38929 0.54084 0.07271 0.0
H534 H 0.40663 0.57175 0.071 0.0
H535 H 0.40629 0.55515 -0.00073 0.0
C536 C 0.42852 0.63833 0.0177 0.0
C537 C 0.44664 0.63871 0.98099 0.0
C538 C 0.40658 0.61901 0.01606 0.0
C539 C 0.40239 0.59967 0.97811 0.0
C540 C 0.42021 0.60021 0.93978 0.0
H541 H 0.28436 0.46286 0.93941 0.0
H542 H 0.32197 0.49753 0.93128 0.0
C543 C 0.44216 0.61955 0.94122 0.0
C544 C 0.37947 0.57878 0.97978 0.0
H545 H 0.35124 0.52295 0.03199 0.0
C546 C 0.3607 0.57978 0.95293 0.0
C547 C 0.37607 0.55807 0.00864 0.0
C548 C 0.39556 0.5563 0.04009 0.0
C549 C 0.33857 0.56046 0.95329 0.0
C550 C 0.3351 0.53979 0.98279 0.0
C551 C 0.35394 0.5388 0.00941 0.0
C552 C 0.31209 0.51895 0.98692 0.0
C553 C 0.31922 0.56226 0.92082 0.0
C554 C 0.29412 0.51941 0.02167 0.0
C555 C 0.27255 0.49964 0.02612 0.0
C556 C 0.26862 0.47894 -0.00334 0.0
C557 C 0.28677 0.47848 0.96274 0.0
C558 C 0.30829 0.49829 0.95797 0.0
H559 H 0.32573 0.57668 0.88406 0.0
H560 H 0.30716 0.54613 0.89411 0.0
H561 H 0.30955 0.56547 0.96073 0.0
H562 H 0.29684 0.53501 0.04594 0.0
H563 H 0.25901 0.50058 0.05306 0.0
H564 H 0.78146 0.43457 0.94401 0.0
H565 H 0.77466 0.39523 0.9411 0.0
H566 H 0.84216 0.41871 0.0231 0.0
H567 H 0.8494 0.45807 0.02455 0.0
H568 H 0.80312 0.37802 0.87514 0.0
H569 H 0.79552 0.36688 0.15502 0.0
H570 H 0.7921 0.38862 0.11162 0.0
H571 H 0.82025 0.39263 0.12514 0.0
C572 C 0.79498 0.43143 0.96058 0.0
C573 C 0.81591 0.44949 0.98511 0.0
C574 C 0.79101 0.40894 0.95921 0.0
C575 C 0.8078 0.40411 0.98279 0.0
C576 C 0.82886 0.42209 0.00577 0.0
H577 H 0.82522 0.28605 0.9433 0.0
H578 H 0.82834 0.3238 0.93835 0.0
C579 C 0.8329 0.44455 0.00682 0.0
C580 C 0.80337 0.38026 0.98401 0.0
H581 H 0.79729 0.33785 0.09164 0.0
C582 C 0.8017 0.36915 0.92236 0.0
C583 C 0.80133 0.36873 0.04578 0.0
C584 C 0.80219 0.37968 0.11329 0.0
C585 C 0.79865 0.34692 0.92091 0.0
C586 C 0.79741 0.3357 0.98275 0.0
C587 C 0.79844 0.34659 0.04435 0.0
C588 C 0.79529 0.31272 0.98471 0.0
C589 C 0.7967 0.33557 0.85335 0.0
C590 C 0.77586 0.29411 0.01366 0.0
C591 C 0.77402 0.27249 0.01677 0.0
C592 C 0.7917 0.26916 0.99153 0.0
C593 C 0.81125 0.28796 0.96309 0.0
C594 C 0.81302 0.30953 0.95978 0.0
H595 H 0.79243 0.34399 0.81192 0.0
H596 H 0.81335 0.33678 0.84093 0.0
H597 H 0.78337 0.31712 0.85507 0.0
H598 H 0.76207 0.29629 0.03356 0.0
H599 H 0.75874 0.25843 0.0391 0.0
H600 H 0.34812 0.78178 0.03251 0.0
H601 H 0.38082 0.77527 0.03389 0.0
H602 H 0.42039 0.83665 0.91577 0.0
H603 H 0.38773 0.8431 0.91291 0.0
H604 H 0.40775 0.772 0.92056 0.0
H605 H 0.45836 0.8458 0.09294 0.0
H606 H 0.42771 0.83301 0.08256 0.0
H607 H 0.44686 0.85203 0.01891 0.0
C608 C 0.36363 0.79369 0.00582 0.0
C609 C 0.36537 0.81309 0.97311 0.0
C610 C 0.38233 0.79 0.007 0.0
C611 C 0.40308 0.80569 0.97587 0.0
C612 C 0.40462 0.82458 0.94114 0.0
H613 H 0.53966 0.82482 0.95159 0.0
H614 H 0.50496 0.82769 0.9443 0.0
C615 C 0.38596 0.82826 0.93973 0.0
C616 C 0.42336 0.8027 0.98113 0.0
H617 H 0.4774 0.82734 0.04721 0.0
C618 C 0.42296 0.78399 0.94846 0.0
C619 C 0.44312 0.81842 0.0176 0.0
C620 C 0.44411 0.83837 0.05555 0.0
C621 C 0.44213 0.78091 0.94985 0.0
C622 C 0.46196 0.7967 0.98616 0.0
C623 C 0.46221 0.81528 0.01931 0.0
C624 C 0.4828 0.79452 0.9898 0.0
C625 C 0.4412 0.76117 0.91086 0.0
C626 C 0.48192 0.77502 0.01856 0.0
C627 C 0.50173 0.77328 0.02263 0.0
C628 C 0.52287 0.79112 -0.00138 0.0
C629 C 0.52371 0.81075 0.97059 0.0
C630 C 0.50388 0.81243 0.96632 0.0
H631 H 0.42747 0.75448 0.87177 0.0
H632 H 0.45785 0.76638 0.88562 0.0
H633 H 0.4375 0.74696 0.94646 0.0
H634 H 0.46594 0.76124 0.03846 0.0
H635 H 0.50047 0.75797 0.04489 0.0
H636 H 0.71721 0.53722 0.95624 0.0
H637 H 0.68007 0.50186 0.95093 0.0
H638 H 0.71066 0.46377 0.03104 0.0
H639 H 0.7479 0.49906 0.0371 0.0
H640 H 0.6686 0.46037 0.87932 0.0
H641 H 0.65535 0.44676 0.15763 0.0
H642 H 0.6762 0.47396 0.12138 0.0
H643 H 0.68215 0.45079 0.12576 0.0
C644 C 0.71609 0.52137 0.973 0.0
C645 C 0.73556 0.52104 -0.00251 0.0
C646 C 0.69484 0.50116 0.96975 0.0
C647 C 0.69259 0.48028 0.99129 0.0
C648 C 0.71198 0.4798 0.01518 0.0
H649 H 0.5708 0.34466 0.03093 0.0
H650 H 0.61051 0.37629 0.02607 0.0
C651 C 0.73326 0.49999 0.01837 0.0
C652 C 0.66994 0.45901 0.98817 0.0
H653 H 0.62745 0.41821 0.08685 0.0
C654 C 0.65959 0.4511 0.92462 0.0
C655 C 0.65834 0.44692 0.04736 0.0
C656 C 0.66842 0.45506 0.11704 0.0
C657 C 0.63787 0.43137 0.91864 0.0
C658 C 0.62602 0.41956 0.97797 0.0
C659 C 0.63658 0.42727 0.04143 0.0
C660 C 0.60225 0.39982 0.97584 0.0
C661 C 0.62795 0.42326 0.84882 0.0
C662 C 0.58444 0.40252 0.94899 0.0
C663 C 0.56179 0.38444 0.95109 0.0
C664 C 0.55642 0.36333 0.98084 0.0
C665 C 0.57435 0.36056 0.00685 0.0
C666 C 0.59704 0.37867 0.00456 0.0
H667 H 0.64161 0.42952 0.80955 0.0
H668 H 0.61782 0.40423 0.84633 0.0
H669 H 0.61642 0.43009 0.83629 0.0
H670 H 0.58797 0.41882 0.92782 0.0
H671 H 0.54844 0.38709 0.93 0.0
H672 H 0.20311 0.45209 0.78255 0.0
H673 H 0.20209 0.45184 0.65866 0.0
H674 H 0.20161 0.38752 0.65652 0.0
H675 H 0.20228 0.38739 0.78029 0.0
H676 H 0.23313 0.45105 0.56751 0.0
H677 H 0.14666 0.37442 0.53718 0.0
H678 H 0.15684 0.3892 0.61706 0.0
H679 H 0.16579 0.3695 0.58863 0.0
C680 C 0.20273 0.43785 0.75581 0.0
C681 C 0.20264 0.41969 0.79132 0.0
C682 C 0.20215 0.43775 0.68504 0.0
C683 C 0.2014 0.41949 0.64865 0.0
C684 C 0.20168 0.40152 0.68382 0.0
H685 H 0.23285 0.41693 0.22446 0.0
H686 H 0.23276 0.41767 0.34833 0.0
C687 C 0.20219 0.40156 0.75455 0.0
C688 C 0.20082 0.41947 0.57377 0.0
H689 H 0.16927 0.38876 0.43728 0.0
C690 C 0.21914 0.43751 0.53894 0.0
C691 C 0.18238 0.40191 0.53688 0.0
C692 C 0.16168 0.38277 0.57175 0.0
C693 C 0.21973 0.43823 0.46789 0.0
C694 C 0.20171 0.42021 0.43101 0.0
C695 C 0.18317 0.40242 0.46584 0.0
C696 C 0.20168 0.41957 0.35613 0.0
C697 C 0.23948 0.4584 0.433 0.0
C698 C 0.18388 0.41974 0.3197 0.0
C699 C 0.18376 0.41913 0.24895 0.0
C700 C 0.20143 0.41825 0.21351 0.0
C701 C 0.21908 0.41777 0.25025 0.0
C702 C 0.21914 0.41833 0.321 0.0
H703 H 0.24839 0.47338 0.46751 0.0
H704 H 0.25215 0.45345 0.41625 0.0
H705 H 0.23351 0.46369 0.3876 0.0
H706 H 0.17018 0.42057 0.34605 0.0
H707 H 0.1699 0.41948 0.22213 0.0
H708 H 0.75418 0.2045 0.77513 0.0
H709 H 0.75327 0.20325 0.65135 0.0
H710 H 0.81656 0.2017 0.64912 0.0
H711 H 0.81748 0.20259 0.77298 0.0
H712 H 0.78513 0.23387 0.56018 0.0
H713 H 0.77412 0.14691 0.53002 0.0
H714 H 0.76983 0.15729 0.60996 0.0
H715 H 0.79836 0.16595 0.58102 0.0
C716 C 0.7679 0.20385 0.74841 0.0
C717 C 0.78585 0.20353 0.78393 0.0
C718 C 0.76734 0.20313 0.6777 0.0
C719 C 0.78465 0.20202 0.6413 0.0
C720 C 0.80277 0.20205 0.67644 0.0
H721 H 0.81782 0.23283 0.21689 0.0
H722 H 0.81724 0.23267 0.34068 0.0
C723 C 0.80333 0.20269 0.7472 0.0
C724 C 0.78398 0.20136 0.56642 0.0
H725 H 0.78217 0.16936 0.42988 0.0
C726 C 0.78439 0.21974 0.5316 0.0
C727 C 0.7827 0.18274 0.52953 0.0
C728 C 0.781 0.16198 0.56444 0.0
C729 C 0.78399 0.2202 0.46059 0.0
C730 C 0.78357 0.20198 0.42367 0.0
C731 C 0.78271 0.18339 0.45848 0.0
C732 C 0.78401 0.2019 0.34879 0.0
C733 C 0.78371 0.24003 0.42577 0.0
C734 C 0.76579 0.18428 0.31252 0.0
C735 C 0.76614 0.1842 0.24173 0.0
C736 C 0.78477 0.20173 0.20614 0.0
C737 C 0.80313 0.21918 0.24276 0.0
C738 C 0.80279 0.2192 0.31349 0.0
H739 H 0.77789 0.24912 0.46048 0.0
H740 H 0.80133 0.25255 0.40858 0.0
H741 H 0.77231 0.23411 0.38067 0.0
H742 H 0.75121 0.1707 0.33903 0.0
H743 H 0.75175 0.17049 0.21499 0.0
H744 H 0.55009 0.75354 0.78368 0.0
H745 H 0.55036 0.75258 0.6599 0.0
H746 H 0.61438 0.81674 0.65715 0.0
H747 H 0.6145 0.81772 0.78101 0.0
H748 H 0.55068 0.78379 0.56832 0.0
H749 H 0.62804 0.7752 0.53848 0.0
H750 H 0.61334 0.77068 0.61847 0.0
H751 H 0.63267 0.79932 0.58913 0.0
C752 C 0.56427 0.76745 0.75685 0.0
C753 C 0.58235 0.78566 0.79224 0.0
C754 C 0.56437 0.76685 0.68613 0.0
C755 C 0.58256 0.78439 0.64957 0.0
C756 C 0.60044 0.80278 0.68458 0.0
H757 H 0.58414 0.81706 0.22519 0.0
H758 H 0.58352 0.81635 0.34897 0.0
C759 C 0.6004 0.80337 0.75534 0.0
C760 C 0.58255 0.78364 0.57469 0.0
H761 H 0.61324 0.7827 0.43824 0.0
C762 C 0.5643 0.78346 0.5398 0.0
C763 C 0.60018 0.78288 0.53785 0.0
C764 C 0.61957 0.7818 0.5728 0.0
C765 C 0.56343 0.78299 0.46878 0.0
C766 C 0.58151 0.78312 0.43191 0.0
C767 C 0.59953 0.78283 0.46679 0.0
C768 C 0.58208 0.78359 0.35702 0.0
C769 C 0.54303 0.78206 0.43389 0.0
C770 C 0.58211 0.76568 0.3207 0.0
C771 C 0.58264 0.7661 0.24991 0.0
C772 C 0.58323 0.78449 0.21437 0.0
C773 C 0.58351 0.80255 0.25103 0.0
C774 C 0.58303 0.80213 0.32175 0.0
H775 H 0.52806 0.77585 0.46855 0.0
H776 H 0.54765 0.79956 0.41673 0.0
H777 H 0.53784 0.77068 0.38876 0.0
H778 H 0.58151 0.75129 0.34717 0.0
H779 H 0.58246 0.75196 0.22314 0.0
H780 H 0.78537 0.54649 0.7792 0.0
H781 H 0.78678 0.54749 0.65534 0.0
H782 H 0.81759 0.62121 0.65972 0.0
H783 H 0.81534 0.62021 0.78343 0.0
H784 H 0.78567 0.60387 0.56692 0.0
H785 H 0.8411 0.56548 0.53618 0.0
H786 H 0.81553 0.547 0.58283 0.0
H787 H 0.83616 0.57447 0.61753 0.0
C788 C 0.7925 0.56291 0.75371 0.0
C789 C 0.80032 0.58328 0.79091 0.0
C790 C 0.79346 0.56348 0.68295 0.0
C791 C 0.8028 0.58448 0.64825 0.0
C792 C 0.81044 0.60482 0.68541 0.0
H793 H 0.83904 0.59839 0.21959 0.0
H794 H 0.83995 0.60008 0.3436 0.0
C795 C 0.80912 0.60422 0.75608 0.0
C796 C 0.80393 0.58522 0.57316 0.0
H797 H 0.82219 0.56769 0.43623 0.0
C798 C 0.79382 0.59612 0.53836 0.0
C799 C 0.81495 0.5755 0.5359 0.0
C800 C 0.82776 0.56519 0.57008 0.0
C801 C 0.79399 0.59713 0.46735 0.0
C802 C 0.8038 0.58621 0.43005 0.0
C803 C 0.81438 0.57578 0.46483 0.0
C804 C 0.80322 0.58532 0.35495 0.0
C805 C 0.78402 0.61029 0.43331 0.0
C806 C 0.78226 0.57615 0.3202 0.0
C807 C 0.78175 0.57551 0.24948 0.0
C808 C 0.80214 0.58352 0.21224 0.0
C809 C 0.82306 0.5921 0.24703 0.0
C810 C 0.8236 0.59308 0.31782 0.0
H811 H 0.78435 0.62356 0.46756 0.0
H812 H 0.79352 0.61883 0.38625 0.0
H813 H 0.76585 0.59826 0.41993 0.0
H814 H 0.76625 0.56936 0.34776 0.0
H815 H 0.76534 0.56851 0.22403 0.0
H816 H 0.19836 0.76586 0.22412 0.0
H817 H 0.19827 0.76688 0.34781 0.0
H818 H 0.24179 0.84052 0.34333 0.0
H819 H 0.24271 0.8395 0.21932 0.0
H820 H 0.25597 0.82262 0.4368 0.0
H821 H 0.16229 0.78548 0.46635 0.0
H822 H 0.16893 0.76678 0.41915 0.0
H823 H 0.17638 0.79453 0.38523 0.0
C824 C 0.20787 0.78228 0.24948 0.0
C825 C 0.22044 0.80262 0.21213 0.0
C826 C 0.20765 0.78286 0.32018 0.0
C827 C 0.21953 0.80383 0.35484 0.0
C828 C 0.23235 0.82415 0.31762 0.0
H829 H 0.19622 0.81567 0.78359 0.0
H830 H 0.1976 0.81813 0.65988 0.0
C831 C 0.23288 0.82355 0.24684 0.0
C832 C 0.21908 0.80446 0.42993 0.0
H833 H 0.18298 0.78646 0.56616 0.0
C834 C 0.24001 0.8149 0.4651 0.0
C835 C 0.19826 0.79478 0.46687 0.0
C836 C 0.17522 0.785 0.4324 0.0
C837 C 0.24071 0.8154 0.53619 0.0
C838 C 0.21987 0.80445 0.57308 0.0
C839 C 0.19895 0.79454 0.5379 0.0
C840 C 0.21933 0.80313 0.64816 0.0
C841 C 0.26377 0.82804 0.57079 0.0
C842 C 0.2308 0.79357 0.68269 0.0
C843 C 0.23034 0.79247 0.75342 0.0
C844 C 0.2179 0.80039 0.79079 0.0
C845 C 0.20591 0.80937 0.75612 0.0
C846 C 0.2067 0.81082 0.68545 0.0
H847 H 0.27693 0.8414 0.5372 0.0
H848 H 0.26286 0.83637 0.61835 0.0
H849 H 0.2696 0.8157 0.58342 0.0
H850 H 0.24003 0.78683 0.65497 0.0
H851 H 0.23951 0.7852 0.77877 0.0
H852 H 0.45299 0.2508 0.79514 0.0
H853 H 0.45268 0.25164 0.67133 0.0
H854 H 0.38847 0.18766 0.66919 0.0
H855 H 0.3884 0.18678 0.79301 0.0
H856 H 0.45197 0.21989 0.58011 0.0
H857 H 0.37524 0.22956 0.55024 0.0
H858 H 0.39003 0.23415 0.63006 0.0
H859 H 0.37043 0.2055 0.60148 0.0
C860 C 0.43876 0.23691 0.76844 0.0
C861 C 0.42065 0.21878 0.80397 0.0
C862 C 0.43863 0.23744 0.69771 0.0
C863 C 0.42038 0.21991 0.66134 0.0
C864 C 0.40246 0.2016 0.69649 0.0
H865 H 0.41805 0.18658 0.23707 0.0
H866 H 0.41862 0.18725 0.36088 0.0
C867 C 0.40253 0.20108 0.76724 0.0
C868 C 0.42037 0.22055 0.58648 0.0
H869 H 0.3898 0.22172 0.4501 0.0
C870 C 0.43844 0.22038 0.55159 0.0
C871 C 0.40283 0.2215 0.54968 0.0
C872 C 0.38363 0.22291 0.58467 0.0
C873 C 0.43925 0.2207 0.48057 0.0
C874 C 0.42127 0.2208 0.44375 0.0
C875 C 0.40343 0.22142 0.47863 0.0
C876 C 0.42069 0.22031 0.36889 0.0
C877 C 0.45946 0.22124 0.44562 0.0
C878 C 0.42102 0.23839 0.3326 0.0
C879 C 0.42052 0.23799 0.26183 0.0
C880 C 0.4196 0.21944 0.22628 0.0
C881 C 0.41895 0.2012 0.26292 0.0
C882 C 0.41939 0.2016 0.33365 0.0
H883 H 0.4744 0.22722 0.48022 0.0
H884 H 0.45453 0.20366 0.42846 0.0
H885 H 0.4648 0.23262 0.40048 0.0
H886 H 0.42189 0.25291 0.35908 0.0
H887 H 0.421 0.25228 0.23509 0.0
loop_
_geom_bond_atom_site_label_1
_geom_bond_atom_site_label_2
_geom_bond_distance
_geom_bond_site_symmetry_2
_ccdc_geom_bond_type
Eu0 C9 2.828 1_556 S
Eu0 O11 2.392 . S
Eu0 O13 2.418 . S
Eu0 O18 2.373 . S
Eu0 O21 2.488 . S
Eu0 O22 2.471 1_556 S
Eu0 O23 2.349 1_556 S
Eu1 O10 2.373 . S
Eu1 O14 2.488 . S
Eu1 O15 2.471 1_554 S
Eu1 O16 2.349 1_554 S
Eu1 O19 2.392 . S
Eu1 O20 2.418 . S
Eu1 C30 2.828 1_554 S
C2 O20 1.244 . S
C2 O23 1.265 . S
C3 C4 1.379 . S
C3 C7 1.373 1_554 S
C3 C9 1.505 . S
C4 C3 1.379 . S
C4 C6 1.369 . S
C4 H32 0.930 . S
C5 C7 1.383 . S
C5 C8 1.382 1_556 S
C5 H33 0.930 . S
C6 C4 1.369 . S
C6 C8 1.392 . S
C6 H34 0.930 . S
C7 C3 1.373 1_556 S
C7 C5 1.383 . S
C7 H35 0.931 . S
C8 C5 1.382 1_554 S
C8 C6 1.392 . S
C9 Eu0 2.828 1_554 S
C9 C3 1.505 . S
C9 O21 1.249 1_554 S
C9 O22 1.244 . S
O10 Eu1 2.373 . S
O10 C12 1.258 . S
O11 Eu0 2.392 . S
O11 C12 1.242 1_556 S
C12 O10 1.258 . S
C12 O11 1.242 1_554 S
O13 Eu0 2.418 . S
O13 C17 1.244 . S
O14 Eu1 2.488 . S
O14 C30 1.249 1_554 S
O15 Eu1 2.471 1_556 S
O15 C30 1.244 . S
O16 Eu1 2.349 1_556 S
O16 C17 1.265 . S
C17 O13 1.244 . S
C17 O16 1.265 . S
O18 Eu0 2.373 . S
O18 C31 1.258 . S
O19 Eu1 2.392 . S
O19 C31 1.242 1_554 S
O20 Eu1 2.418 . S
O20 C2 1.244 . S
O21 Eu0 2.488 . S
O21 C9 1.249 1_556 S
O22 Eu0 2.471 1_554 S
O22 C9 1.244 . S
O23 Eu0 2.349 1_554 S
O23 C2 1.265 . S
C24 C25 1.379 . S
C24 C28 1.373 1_556 S
C24 C30 1.505 . S
C25 C24 1.379 . S
C25 C27 1.369 . S
C25 H36 0.930 . S
C26 C28 1.383 . S
C26 C29 1.382 1_554 S
C26 H37 0.930 . S
C27 C25 1.369 . S
C27 C29 1.392 . S
C27 H38 0.930 . S
C28 C24 1.373 1_554 S
C28 C26 1.383 . S
C28 H39 0.931 . S
C29 C26 1.382 1_556 S
C29 C27 1.392 . S
C30 Eu1 2.828 1_556 S
C30 O14 1.249 1_556 S
C30 O15 1.244 . S
C30 C24 1.505 . S
C31 O18 1.258 . S
C31 O19 1.242 1_556 S
H32 C4 0.930 . S
H33 C5 0.930 . S
H34 C6 0.930 . S
H35 C7 0.931 . S
H36 C25 0.930 . S
H37 C26 0.930 . S
H38 C27 0.930 . S
H39 C28 0.931 . S
Eu40 C49 2.828 1_556 S
Eu40 O51 2.392 . S
Eu40 O53 2.418 . S
Eu40 O58 2.373 . S
Eu40 O61 2.488 . S
Eu40 O62 2.471 1_556 S
Eu40 O63 2.349 1_556 S
Eu41 O50 2.373 . S
Eu41 O54 2.488 . S
Eu41 O55 2.471 1_554 S
Eu41 O56 2.349 1_554 S
Eu41 O59 2.392 . S
Eu41 O60 2.418 . S
Eu41 C70 2.828 1_554 S
C42 O60 1.244 . S
C42 O63 1.265 . S
C43 C44 1.379 . S
C43 C47 1.373 1_554 S
C43 C49 1.505 . S
C44 C43 1.379 . S
C44 C46 1.369 . S
C44 H72 0.930 . S
C45 C47 1.383 . S
C45 C48 1.382 1_556 S
C45 H73 0.930 . S
C46 C44 1.369 . S
C46 C48 1.392 . S
C46 H74 0.930 . S
C47 C43 1.373 1_556 S
C47 C45 1.383 . S
C47 H75 0.931 . S
C48 C45 1.382 1_554 S
C48 C46 1.392 . S
C49 Eu40 2.828 1_554 S
C49 C43 1.505 . S
C49 O61 1.249 1_554 S
C49 O62 1.244 . S
O50 Eu41 2.373 . S
O50 C52 1.258 . S
O51 Eu40 2.392 . S
O51 C52 1.242 1_556 S
C52 O50 1.258 . S
C52 O51 1.242 1_554 S
O53 Eu40 2.418 . S
O53 C57 1.244 . S
O54 Eu41 2.488 . S
O54 C70 1.249 1_554 S
O55 Eu41 2.471 1_556 S
O55 C70 1.244 . S
O56 Eu41 2.349 1_556 S
O56 C57 1.265 . S
C57 O53 1.244 . S
C57 O56 1.265 . S
O58 Eu40 2.373 . S
O58 C71 1.258 . S
O59 Eu41 2.392 . S
O59 C71 1.242 1_554 S
O60 Eu41 2.418 . S
O60 C42 1.244 . S
O61 Eu40 2.488 . S
O61 C49 1.249 1_556 S
O62 Eu40 2.471 1_554 S
O62 C49 1.244 . S
O63 Eu40 2.349 1_554 S
O63 C42 1.265 . S
C64 C65 1.379 . S
C64 C68 1.373 1_556 S
C64 C70 1.505 . S
C65 C64 1.379 . S
C65 C67 1.369 . S
C65 H76 0.930 . S
C66 C68 1.383 . S
C66 C69 1.382 1_554 S
C66 H77 0.930 . S
C67 C65 1.369 . S
C67 C69 1.392 . S
C67 H78 0.930 . S
C68 C64 1.373 1_554 S
C68 C66 1.383 . S
C68 H79 0.931 . S
C69 C66 1.382 1_556 S
C69 C67 1.392 . S
C70 Eu41 2.828 1_556 S
C70 O54 1.249 1_556 S
C70 O55 1.244 . S
C70 C64 1.505 . S
C71 O58 1.258 . S
C71 O59 1.242 1_556 S
H72 C44 0.930 . S
H73 C45 0.930 . S
H74 C46 0.930 . S
H75 C47 0.931 . S
H76 C65 0.930 . S
H77 C66 0.930 . S
H78 C67 0.930 . S
H79 C68 0.931 . S
Eu80 C89 2.828 1_556 S
Eu80 O91 2.392 . S
Eu80 O93 2.418 . S
Eu80 O98 2.373 . S
Eu80 O101 2.488 . S
Eu80 O102 2.471 1_556 S
Eu80 O103 2.349 1_556 S
Eu81 O90 2.373 . S
Eu81 O94 2.488 . S
Eu81 O95 2.471 1_554 S
Eu81 O96 2.349 1_554 S
Eu81 O99 2.392 . S
Eu81 O100 2.418 . S
Eu81 C110 2.828 1_554 S
C82 O100 1.244 . S
C82 O103 1.265 . S
C83 C84 1.379 . S
C83 C87 1.373 1_554 S
C83 C89 1.505 . S
C84 C83 1.379 . S
C84 C86 1.369 . S
C84 H112 0.930 . S
C85 C87 1.383 . S
C85 C88 1.382 1_556 S
C85 H113 0.930 . S
C86 C84 1.369 . S
C86 C88 1.392 . S
C86 H114 0.930 . S
C87 C83 1.373 1_556 S
C87 C85 1.383 . S
C87 H115 0.931 . S
C88 C85 1.382 1_554 S
C88 C86 1.392 . S
C89 Eu80 2.828 1_554 S
C89 C83 1.505 . S
C89 O101 1.249 1_554 S
C89 O102 1.244 . S
O90 Eu81 2.373 . S
O90 C92 1.258 . S
O91 Eu80 2.392 . S
O91 C92 1.242 1_556 S
C92 O90 1.258 . S
C92 O91 1.242 1_554 S
O93 Eu80 2.418 . S
O93 C97 1.244 . S
O94 Eu81 2.488 . S
O94 C110 1.249 1_554 S
O95 Eu81 2.471 1_556 S
O95 C110 1.244 . S
O96 Eu81 2.349 1_556 S
O96 C97 1.265 . S
C97 O93 1.244 . S
C97 O96 1.265 . S
O98 Eu80 2.373 . S
O98 C111 1.258 . S
O99 Eu81 2.392 . S
O99 C111 1.242 1_554 S
O100 Eu81 2.418 . S
O100 C82 1.244 . S
O101 Eu80 2.488 . S
O101 C89 1.249 1_556 S
O102 Eu80 2.471 1_554 S
O102 C89 1.244 . S
O103 Eu80 2.349 1_554 S
O103 C82 1.265 . S
C104 C105 1.379 . S
C104 C108 1.373 1_556 S
C104 C110 1.505 . S
C105 C104 1.379 . S
C105 C107 1.369 . S
C105 H116 0.930 . S
C106 C108 1.383 . S
C106 C109 1.382 1_554 S
C106 H117 0.930 . S
C107 C105 1.369 . S
C107 C109 1.392 . S
C107 H118 0.930 . S
C108 C104 1.373 1_554 S
C108 C106 1.383 . S
C108 H119 0.931 . S
C109 C106 1.382 1_556 S
C109 C107 1.392 . S
C110 Eu81 2.828 1_556 S
C110 O94 1.249 1_556 S
C110 O95 1.244 . S
C110 C104 1.505 . S
C111 O98 1.258 . S
C111 O99 1.242 1_556 S
H112 C84 0.930 . S
H113 C85 0.930 . S
H114 C86 0.930 . S
H115 C87 0.931 . S
H116 C105 0.930 . S
H117 C106 0.930 . S
H118 C107 0.930 . S
H119 C108 0.931 . S
Eu120 C129 2.828 1_556 S
Eu120 O131 2.392 . S
Eu120 O133 2.418 . S
Eu120 O138 2.373 . S
Eu120 O141 2.488 . S
Eu120 O142 2.471 1_556 S
Eu120 O143 2.349 1_556 S
Eu121 O130 2.373 . S
Eu121 O134 2.488 . S
Eu121 O135 2.471 1_554 S
Eu121 O136 2.349 1_554 S
Eu121 O139 2.392 . S
Eu121 O140 2.418 . S
Eu121 C150 2.828 1_554 S
C122 O140 1.244 . S
C122 O143 1.265 . S
C123 C124 1.379 . S
C123 C127 1.373 1_554 S
C123 C129 1.505 . S
C124 C123 1.379 . S
C124 C126 1.369 . S
C124 H152 0.930 . S
C125 C127 1.383 . S
C125 C128 1.382 1_556 S
C125 H153 0.930 . S
C126 C124 1.369 . S
C126 C128 1.392 . S
C126 H154 0.930 . S
C127 C123 1.373 1_556 S
C127 C125 1.383 . S
C127 H155 0.931 . S
C128 C125 1.382 1_554 S
C128 C126 1.392 . S
C129 Eu120 2.828 1_554 S
C129 C123 1.505 . S
C129 O141 1.249 1_554 S
C129 O142 1.244 . S
O130 Eu121 2.373 . S
O130 C132 1.258 . S
O131 Eu120 2.392 . S
O131 C132 1.242 1_556 S
C132 O130 1.258 . S
C132 O131 1.242 1_554 S
O133 Eu120 2.418 . S
O133 C137 1.244 . S
O134 Eu121 2.488 . S
O134 C150 1.249 1_554 S
O135 Eu121 2.471 1_556 S
O135 C150 1.244 . S
O136 Eu121 2.349 1_556 S
O136 C137 1.265 . S
C137 O133 1.244 . S
C137 O136 1.265 . S
O138 Eu120 2.373 . S
O138 C151 1.258 . S
O139 Eu121 2.392 . S
O139 C151 1.242 1_554 S
O140 Eu121 2.418 . S
O140 C122 1.244 . S
O141 Eu120 2.488 . S
O141 C129 1.249 1_556 S
O142 Eu120 2.471 1_554 S
O142 C129 1.244 . S
O143 Eu120 2.349 1_554 S
O143 C122 1.265 . S
C144 C145 1.379 . S
C144 C148 1.373 1_556 S
C144 C150 1.505 . S
C145 C144 1.379 . S
C145 C147 1.369 . S
C145 H156 0.930 . S
C146 C148 1.383 . S
C146 C149 1.382 1_554 S
C146 H157 0.930 . S
C147 C145 1.369 . S
C147 C149 1.392 . S
C147 H158 0.930 . S
C148 C144 1.373 1_554 S
C148 C146 1.383 . S
C148 H159 0.931 . S
C149 C146 1.382 1_556 S
C149 C147 1.392 . S
C150 Eu121 2.828 1_556 S
C150 O134 1.249 1_556 S
C150 O135 1.244 . S
C150 C144 1.505 . S
C151 O138 1.258 . S
C151 O139 1.242 1_556 S
H152 C124 0.930 . S
H153 C125 0.930 . S
H154 C126 0.930 . S
H155 C127 0.931 . S
H156 C145 0.930 . S
H157 C146 0.930 . S
H158 C147 0.930 . S
H159 C148 0.931 . S
Eu160 C169 2.828 1_556 S
Eu160 O171 2.392 . S
Eu160 O173 2.418 . S
Eu160 O178 2.373 . S
Eu160 O181 2.488 . S
Eu160 O182 2.471 1_556 S
Eu160 O183 2.349 1_556 S
Eu161 O170 2.373 . S
Eu161 O174 2.488 . S
Eu161 O175 2.471 1_554 S
Eu161 O176 2.349 1_554 S
Eu161 O179 2.392 . S
Eu161 O180 2.418 . S
Eu161 C190 2.828 1_554 S
C162 O180 1.244 . S
C162 O183 1.265 . S
C163 C164 1.379 . S
C163 C167 1.373 1_554 S
C163 C169 1.505 . S
C164 C163 1.379 . S
C164 C166 1.369 . S
C164 H192 0.930 . S
C165 C167 1.383 . S
C165 C168 1.382 1_556 S
C165 H193 0.930 . S
C166 C164 1.369 . S
C166 C168 1.392 . S
C166 H194 0.930 . S
C167 C163 1.373 1_556 S
C167 C165 1.383 . S
C167 H195 0.931 . S
C168 C165 1.382 1_554 S
C168 C166 1.392 . S
C169 Eu160 2.828 1_554 S
C169 C163 1.505 . S
C169 O181 1.249 1_554 S
C169 O182 1.244 . S
O170 Eu161 2.373 . S
O170 C172 1.258 . S
O171 Eu160 2.392 . S
O171 C172 1.242 1_556 S
C172 O170 1.258 . S
C172 O171 1.242 1_554 S
O173 Eu160 2.418 . S
O173 C177 1.244 . S
O174 Eu161 2.488 . S
O174 C190 1.249 1_554 S
O175 Eu161 2.471 1_556 S
O175 C190 1.244 . S
O176 Eu161 2.349 1_556 S
O176 C177 1.265 . S
C177 O173 1.244 . S
C177 O176 1.265 . S
O178 Eu160 2.373 . S
O178 C191 1.258 . S
O179 Eu161 2.392 . S
O179 C191 1.242 1_554 S
O180 Eu161 2.418 . S
O180 C162 1.244 . S
O181 Eu160 2.488 . S
O181 C169 1.249 1_556 S
O182 Eu160 2.471 1_554 S
O182 C169 1.244 . S
O183 Eu160 2.349 1_554 S
O183 C162 1.265 . S
C184 C185 1.379 . S
C184 C188 1.373 1_556 S
C184 C190 1.505 . S
C185 C184 1.379 . S
C185 C187 1.369 . S
C185 H196 0.930 . S
C186 C188 1.383 . S
C186 C189 1.382 1_554 S
C186 H197 0.930 . S
C187 C185 1.369 . S
C187 C189 1.392 . S
C187 H198 0.930 . S
C188 C184 1.373 1_554 S
C188 C186 1.383 . S
C188 H199 0.931 . S
C189 C186 1.382 1_556 S
C189 C187 1.392 . S
C190 Eu161 2.828 1_556 S
C190 O174 1.249 1_556 S
C190 O175 1.244 . S
C190 C184 1.505 . S
C191 O178 1.258 . S
C191 O179 1.242 1_556 S
H192 C164 0.930 . S
H193 C165 0.930 . S
H194 C166 0.930 . S
H195 C167 0.931 . S
H196 C185 0.930 . S
H197 C186 0.930 . S
H198 C187 0.930 . S
H199 C188 0.931 . S
Eu200 C209 2.828 1_556 S
Eu200 O211 2.392 . S
Eu200 O213 2.418 . S
Eu200 O218 2.373 . S
Eu200 O221 2.488 . S
Eu200 O222 2.471 1_556 S
Eu200 O223 2.349 1_556 S
Eu201 O210 2.373 . S
Eu201 O214 2.488 . S
Eu201 O215 2.471 1_554 S
Eu201 O216 2.349 1_554 S
Eu201 O219 2.392 . S
Eu201 O220 2.418 . S
Eu201 C230 2.828 1_554 S
C202 O220 1.244 . S
C202 O223 1.265 . S
C203 C204 1.379 . S
C203 C207 1.373 1_554 S
C203 C209 1.505 . S
C204 C203 1.379 . S
C204 C206 1.369 . S
C204 H232 0.930 . S
C205 C207 1.383 . S
C205 C208 1.382 1_556 S
C205 H233 0.930 . S
C206 C204 1.369 . S
C206 C208 1.392 . S
C206 H234 0.930 . S
C207 C203 1.373 1_556 S
C207 C205 1.383 . S
C207 H235 0.931 . S
C208 C205 1.382 1_554 S
C208 C206 1.392 . S
C209 Eu200 2.828 1_554 S
C209 C203 1.505 . S
C209 O221 1.249 1_554 S
C209 O222 1.244 . S
O210 Eu201 2.373 . S
O210 C212 1.258 . S
O211 Eu200 2.392 . S
O211 C212 1.242 1_556 S
C212 O210 1.258 . S
C212 O211 1.242 1_554 S
O213 Eu200 2.418 . S
O213 C217 1.244 . S
O214 Eu201 2.488 . S
O214 C230 1.249 1_554 S
O215 Eu201 2.471 1_556 S
O215 C230 1.244 . S
O216 Eu201 2.349 1_556 S
O216 C217 1.265 . S
C217 O213 1.244 . S
C217 O216 1.265 . S
O218 Eu200 2.373 . S
O218 C231 1.258 . S
O219 Eu201 2.392 . S
O219 C231 1.242 1_554 S
O220 Eu201 2.418 . S
O220 C202 1.244 . S
O221 Eu200 2.488 . S
O221 C209 1.249 1_556 S
O222 Eu200 2.471 1_554 S
O222 C209 1.244 . S
O223 Eu200 2.349 1_554 S
O223 C202 1.265 . S
C224 C225 1.379 . S
C224 C228 1.373 1_556 S
C224 C230 1.505 . S
C225 C224 1.379 . S
C225 C227 1.369 . S
C225 H236 0.930 . S
C226 C228 1.383 . S
C226 C229 1.382 1_554 S
C226 H237 0.930 . S
C227 C225 1.369 . S
C227 C229 1.392 . S
C227 H238 0.930 . S
C228 C224 1.373 1_554 S
C228 C226 1.383 . S
C228 H239 0.931 . S
C229 C226 1.382 1_556 S
C229 C227 1.392 . S
C230 Eu201 2.828 1_556 S
C230 O214 1.249 1_556 S
C230 O215 1.244 . S
C230 C224 1.505 . S
C231 O218 1.258 . S
C231 O219 1.242 1_556 S
H232 C204 0.930 . S
H233 C205 0.930 . S
H234 C206 0.930 . S
H235 C207 0.931 . S
H236 C225 0.930 . S
H237 C226 0.930 . S
H238 C227 0.930 . S
H239 C228 0.931 . S
H240 C248 0.929 . S
H241 C250 0.930 . S
H242 C252 0.930 . S
H243 C255 0.929 . S
H244 C258 0.930 . S
H245 C260 0.960 . S
H246 C260 0.960 . S
H247 C260 0.960 1_556 S
C248 H240 0.929 . S
C248 C249 1.376 1_554 S
C248 C250 1.384 . S
C249 C248 1.376 1_556 S
C249 C255 1.391 . S
C250 H241 0.930 . S
C250 C248 1.384 . S
C250 C251 1.372 . S
C251 C250 1.372 . S
C251 C252 1.400 1_554 S
C251 C256 1.490 . S
C252 H242 0.930 . S
C252 C251 1.400 1_556 S
C252 C255 1.386 . S
H253 C269 0.930 . S
H254 C270 0.931 . S
C255 H243 0.929 . S
C255 C249 1.391 . S
C255 C252 1.386 . S
C256 C251 1.490 . S
C256 C258 1.395 . S
C256 C259 1.403 . S
H257 C263 0.930 . S
C258 H244 0.930 . S
C258 C256 1.395 . S
C258 C261 1.403 . S
C259 C256 1.403 . S
C259 C260 1.524 . S
C259 C263 1.400 . S
C260 H245 0.960 . S
C260 H246 0.960 . S
C260 H247 0.960 1_554 S
C260 C259 1.524 . S
C261 C258 1.403 . S
C261 C262 1.392 . S
C261 C265 1.495 . S
C262 C261 1.392 . S
C262 C263 1.385 . S
C262 C264 1.478 . S
C263 H257 0.930 . S
C263 C259 1.400 . S
C263 C262 1.385 . S
C264 C262 1.478 . S
C264 C266 1.381 . S
C264 C270 1.383 1_554 S
C265 C261 1.495 . S
C265 H271 0.959 . S
C265 H272 0.961 1_554 S
C265 H273 0.960 . S
C266 C264 1.381 . S
C266 C267 1.394 . S
C266 H274 0.930 . S
C267 C266 1.394 . S
C267 C268 1.383 . S
C267 H275 0.929 . S
C268 C267 1.383 . S
C268 C269 1.377 1_554 S
C269 H253 0.930 . S
C269 C268 1.377 1_556 S
C269 C270 1.379 . S
C270 H254 0.931 . S
C270 C264 1.383 1_556 S
C270 C269 1.379 . S
H271 C265 0.959 . S
H272 C265 0.961 1_556 S
H273 C265 0.960 . S
H274 C266 0.930 . S
H275 C267 0.929 . S
H276 C284 0.929 . S
H277 C286 0.930 . S
H278 C288 0.930 . S
H279 C291 0.929 . S
H280 C294 0.930 . S
H281 C296 0.960 . S
H282 C296 0.960 . S
H283 C296 0.960 . S
C284 H276 0.929 . S
C284 C285 1.377 . S
C284 C286 1.384 . S
C285 C284 1.377 . S
C285 C291 1.390 1_556 S
C286 H277 0.930 . S
C286 C284 1.384 . S
C286 C287 1.372 1_556 S
C287 C286 1.372 1_554 S
C287 C288 1.400 . S
C287 C292 1.490 . S
C288 H278 0.930 . S
C288 C287 1.400 . S
C288 C291 1.386 . S
H289 C305 0.930 . S
H290 C306 0.931 . S
C291 H279 0.929 . S
C291 C285 1.390 1_554 S
C291 C288 1.386 . S
C292 C287 1.490 . S
C292 C294 1.395 . S
C292 C295 1.403 1_554 S
H293 C299 0.930 . S
C294 H280 0.930 . S
C294 C292 1.395 . S
C294 C297 1.403 . S
C295 C292 1.403 1_556 S
C295 C296 1.524 . S
C295 C299 1.400 . S
C296 H281 0.960 . S
C296 H282 0.960 . S
C296 H283 0.960 . S
C296 C295 1.524 . S
C297 C294 1.403 . S
C297 C298 1.392 . S
C297 C301 1.495 . S
C298 C297 1.392 . S
C298 C299 1.385 1_554 S
C298 C300 1.478 1_455 S
C299 H293 0.930 . S
C299 C295 1.400 . S
C299 C298 1.385 1_556 S
C300 C298 1.478 1_655 S
C300 C302 1.381 . S
C300 C306 1.383 . S
C301 C297 1.495 . S
C301 H307 0.959 . S
C301 H308 0.961 . S
C301 H309 0.960 . S
C302 C300 1.381 . S
C302 C303 1.394 . S
C302 H310 0.930 1_554 S
C303 C302 1.394 . S
C303 C304 1.383 . S
C303 H311 0.929 1_554 S
C304 C303 1.383 . S
C304 C305 1.377 . S
C305 H289 0.930 . S
C305 C304 1.377 . S
C305 C306 1.379 . S
C306 H290 0.931 . S
C306 C300 1.383 . S
C306 C305 1.379 . S
H307 C301 0.959 . S
H308 C301 0.961 . S
H309 C301 0.960 . S
H310 C302 0.930 1_556 S
H311 C303 0.929 1_556 S
H312 C320 0.929 . S
H313 C322 0.930 . S
H314 C324 0.930 . S
H315 C327 0.929 . S
H316 C330 0.930 . S
H317 C332 0.960 . S
H318 C332 0.960 . S
H319 C332 0.960 . S
C320 H312 0.929 . S
C320 C321 1.377 . S
C320 C322 1.384 . S
C321 C320 1.377 . S
C321 C327 1.390 1_556 S
C322 H313 0.930 . S
C322 C320 1.384 . S
C322 C323 1.372 1_556 S
C323 C322 1.372 1_554 S
C323 C324 1.400 . S
C323 C328 1.490 . S
C324 H314 0.930 . S
C324 C323 1.400 . S
C324 C327 1.386 . S
H325 C341 0.930 . S
H326 C342 0.931 . S
C327 H315 0.929 . S
C327 C321 1.390 1_554 S
C327 C324 1.386 . S
C328 C323 1.490 . S
C328 C330 1.395 . S
C328 C331 1.403 1_554 S
H329 C335 0.930 . S
C330 H316 0.930 . S
C330 C328 1.395 . S
C330 C333 1.403 . S
C331 C328 1.403 1_556 S
C331 C332 1.524 . S
C331 C335 1.400 . S
C332 H317 0.960 . S
C332 H318 0.960 . S
C332 H319 0.960 . S
C332 C331 1.524 . S
C333 C330 1.403 . S
C333 C334 1.392 . S
C333 C337 1.495 . S
C334 C333 1.392 . S
C334 C335 1.385 1_554 S
C334 C336 1.478 1_545 S
C335 H329 0.930 . S
C335 C331 1.400 . S
C335 C334 1.385 1_556 S
C336 C334 1.478 1_565 S
C336 C338 1.381 . S
C336 C342 1.383 . S
C337 C333 1.495 . S
C337 H343 0.959 . S
C337 H344 0.961 . S
C337 H345 0.960 . S
C338 C336 1.381 . S
C338 C339 1.394 . S
C338 H346 0.930 . S
C339 C338 1.394 . S
C339 C340 1.383 . S
C339 H347 0.929 . S
C340 C339 1.383 . S
C340 C341 1.377 . S
C341 H325 0.930 . S
C341 C340 1.377 . S
C341 C342 1.379 . S
C342 H326 0.931 . S
C342 C336 1.383 . S
C342 C341 1.379 . S
H343 C337 0.959 . S
H344 C337 0.961 . S
H345 C337 0.960 . S
H346 C338 0.930 . S
H347 C339 0.929 . S
H348 C356 0.929 . S
H349 C358 0.930 . S
H350 C360 0.930 . S
H351 C363 0.929 . S
H352 C366 0.930 1_556 S
H353 C368 0.960 . S
H354 C368 0.960 . S
H355 C368 0.960 . S
C356 H348 0.929 . S
C356 C357 1.377 . S
C356 C358 1.384 . S
C357 C356 1.377 . S
C357 C363 1.390 1_554 S
C358 H349 0.930 . S
C358 C356 1.384 . S
C358 C359 1.372 . S
C359 C358 1.372 . S
C359 C360 1.400 1_554 S
C359 C364 1.490 . S
C360 H350 0.930 . S
C360 C359 1.400 1_556 S
C360 C363 1.386 . S
H361 C377 0.930 . S
H362 C378 0.931 . S
C363 H351 0.929 . S
C363 C357 1.390 1_556 S
C363 C360 1.386 . S
C364 C359 1.490 . S
C364 C366 1.395 . S
C364 C367 1.403 . S
H365 C371 0.930 . S
C366 H352 0.930 1_554 S
C366 C364 1.395 . S
C366 C369 1.403 1_554 S
C367 C364 1.403 . S
C367 C368 1.524 . S
C367 C371 1.400 . S
C368 H353 0.960 . S
C368 H354 0.960 . S
C368 H355 0.960 . S
C368 C367 1.524 . S
C369 C366 1.403 1_556 S
C369 C370 1.392 1_556 S
C369 C373 1.495 . S
C370 C369 1.392 1_554 S
C370 C371 1.385 . S
C370 C372 1.478 . S
C371 H365 0.930 . S
C371 C367 1.400 . S
C371 C370 1.385 . S
C372 C370 1.478 . S
C372 C374 1.381 . S
C372 C378 1.383 1_554 S
C373 C369 1.495 . S
C373 H379 0.959 . S
C373 H380 0.961 . S
C373 H381 0.960 1_556 S
C374 C372 1.381 . S
C374 C375 1.394 . S
C374 H382 0.930 . S
C375 C374 1.394 . S
C375 C376 1.383 1_554 S
C375 H383 0.929 . S
C376 C375 1.383 1_556 S
C376 C377 1.377 . S
C377 H361 0.930 . S
C377 C376 1.377 . S
C377 C378 1.379 . S
C378 H362 0.931 . S
C378 C372 1.383 1_556 S
C378 C377 1.379 . S
H379 C373 0.959 . S
H380 C373 0.961 . S
H381 C373 0.960 1_554 S
H382 C374 0.930 . S
H383 C375 0.929 . S
H384 C392 0.929 . S
H385 C394 0.930 . S
H386 C396 0.930 . S
H387 C399 0.929 . S
H388 C402 0.930 . S
H389 C404 0.960 . S
H390 C404 0.960 . S
H391 C404 0.995 . S
C392 H384 0.929 . S
C392 C393 1.377 . S
C392 C394 1.384 . S
C393 C392 1.377 . S
C393 C399 1.390 1_554 S
C394 H385 0.930 . S
C394 C392 1.384 . S
C394 C395 1.372 . S
C395 C394 1.372 . S
C395 C396 1.400 1_554 S
C395 C400 1.490 1_455 S
C396 H386 0.930 . S
C396 C395 1.400 1_556 S
C396 C399 1.386 . S
H397 C413 0.930 . S
H398 C414 0.931 . S
C399 H387 0.929 . S
C399 C393 1.390 1_556 S
C399 C396 1.386 . S
C400 C395 1.490 1_655 S
C400 C402 1.395 . S
C400 C403 1.403 . S
H401 C407 0.930 . S
C402 H388 0.930 . S
C402 C400 1.395 . S
C402 C405 1.403 . S
C403 C400 1.403 . S
C403 C404 1.524 . S
C403 C407 1.400 . S
C404 H389 0.960 . S
C404 H390 0.960 . S
C404 H391 0.995 . S
C404 C403 1.524 . S
C405 C402 1.403 . S
C405 C406 1.392 . S
C405 C409 1.495 1_554 S
C406 C405 1.392 . S
C406 C407 1.385 . S
C406 C408 1.478 . S
C407 H401 0.930 . S
C407 C403 1.400 . S
C407 C406 1.385 . S
C408 C406 1.478 . S
C408 C410 1.381 . S
C408 C414 1.383 1_554 S
C409 C405 1.495 1_556 S
C409 H415 0.959 . S
C409 H416 0.961 . S
C409 H417 0.960 1_556 S
C410 C408 1.381 . S
C410 C411 1.394 . S
C410 H418 0.930 . S
C411 C410 1.394 . S
C411 C412 1.383 1_554 S
C411 H419 0.929 . S
C412 C411 1.383 1_556 S
C412 C413 1.377 . S
C413 H397 0.930 . S
C413 C412 1.377 . S
C413 C414 1.379 . S
C414 H398 0.931 . S
C414 C408 1.383 1_556 S
C414 C413 1.379 . S
H415 C409 0.959 . S
H416 C409 0.961 . S
H417 C409 0.960 1_554 S
H418 C410 0.930 . S
H419 C411 0.929 . S
H420 C428 0.929 . S
H421 C430 0.930 . S
H422 C432 0.930 . S
H423 C435 0.929 . S
H424 C438 0.930 . S
H425 C440 0.960 . S
H426 C440 0.960 . S
H427 C440 0.960 . S
C428 H420 0.929 . S
C428 C429 1.377 1_554 S
C428 C430 1.384 . S
C429 C428 1.377 1_556 S
C429 C435 1.390 . S
C430 H421 0.930 . S
C430 C428 1.384 . S
C430 C431 1.372 . S
C431 C430 1.372 . S
C431 C432 1.400 1_554 S
C431 C436 1.490 . S
C432 H422 0.930 . S
C432 C431 1.400 1_556 S
C432 C435 1.386 . S
H433 C449 0.930 1_556 S
H434 C450 0.931 1_556 S
C435 H423 0.929 . S
C435 C429 1.390 . S
C435 C432 1.386 . S
C436 C431 1.490 . S
C436 C438 1.395 . S
C436 C439 1.403 1_554 S
H437 C443 0.930 . S
C438 H424 0.930 . S
C438 C436 1.395 . S
C438 C441 1.403 . S
C439 C436 1.403 1_556 S
C439 C440 1.524 . S
C439 C443 1.400 . S
C440 H425 0.960 . S
C440 H426 0.960 . S
C440 H427 0.960 . S
C440 C439 1.524 . S
C441 C438 1.403 . S
C441 C442 1.392 . S
C441 C445 1.495 . S
C442 C441 1.392 . S
C442 C443 1.385 1_554 S
C442 C444 1.478 1_565 S
C443 H437 0.930 . S
C443 C439 1.400 . S
C443 C442 1.385 1_556 S
C444 C442 1.478 1_545 S
C444 C446 1.381 . S
C444 C450 1.383 . S
C445 C441 1.495 . S
C445 H451 0.959 . S
C445 H452 0.961 . S
C445 H453 0.960 . S
C446 C444 1.381 . S
C446 C447 1.394 . S
C446 H454 0.930 . S
C447 C446 1.394 . S
C447 C448 1.383 . S
C447 H455 0.929 . S
C448 C447 1.383 . S
C448 C449 1.377 . S
C449 H433 0.930 1_554 S
C449 C448 1.377 . S
C449 C450 1.379 . S
C450 H434 0.931 1_554 S
C450 C444 1.383 . S
C450 C449 1.379 . S
H451 C445 0.959 . S
H452 C445 0.961 . S
H453 C445 0.960 . S
H454 C446 0.930 . S
H455 C447 0.929 . S
H456 C464 0.929 . S
H457 C466 0.930 . S
H458 C468 0.930 . S
H459 C471 0.929 . S
H460 C474 0.930 . S
H461 C476 0.960 . S
H462 C476 0.960 . S
H463 C476 0.960 . S
C464 H456 0.929 . S
C464 C465 1.390 . S
C464 C466 1.384 . S
C465 C464 1.390 . S
C465 C471 1.376 1_554 S
C466 H457 0.930 . S
C466 C464 1.384 . S
C466 C467 1.372 1_554 S
C467 C466 1.372 1_556 S
C467 C468 1.400 . S
C467 C472 1.490 . S
C468 H458 0.930 . S
C468 C467 1.400 . S
C468 C471 1.386 . S
H469 C485 0.930 . S
H470 C486 0.931 . S
C471 H459 0.929 . S
C471 C465 1.376 1_556 S
C471 C468 1.386 . S
C472 C467 1.490 . S
C472 C474 1.395 1_556 S
C472 C475 1.403 . S
H473 C479 0.930 . S
C474 H460 0.930 . S
C474 C472 1.395 1_554 S
C474 C477 1.403 . S
C475 C472 1.403 . S
C475 C476 1.524 . S
C475 C479 1.400 . S
C476 H461 0.960 . S
C476 H462 0.960 . S
C476 H463 0.960 . S
C476 C475 1.524 . S
C477 C474 1.403 . S
C477 C478 1.392 1_554 S
C477 C481 1.495 . S
C478 C477 1.392 1_556 S
C478 C479 1.385 . S
C478 C480 1.478 . S
C479 H473 0.930 . S
C479 C475 1.400 . S
C479 C478 1.385 . S
C480 C478 1.478 . S
C480 C482 1.381 1_556 S
C480 C486 1.383 . S
C481 C477 1.495 . S
C481 H487 0.959 . S
C481 H488 0.961 . S
C481 H489 0.960 . S
C482 C480 1.381 1_554 S
C482 C483 1.394 . S
C482 H490 0.930 . S
C483 C482 1.394 . S
C483 C484 1.383 1_554 S
C483 H491 0.929 . S
C484 C483 1.383 1_556 S
C484 C485 1.377 . S
C485 H469 0.930 . S
C485 C484 1.377 . S
C485 C486 1.379 . S
C486 H470 0.931 . S
C486 C480 1.383 . S
C486 C485 1.379 . S
H487 C481 0.959 . S
H488 C481 0.961 . S
H489 C481 0.960 . S
H490 C482 0.930 . S
H491 C483 0.929 . S
H492 C500 0.929 . S
H493 C502 0.930 . S
H494 C504 0.930 . S
H495 C507 0.929 . S
H496 C510 0.930 . S
H497 C512 0.960 . S
H498 C512 0.960 . S
H499 C512 0.960 . S
C500 H492 0.929 . S
C500 C501 1.370 1_556 S
C500 C502 1.384 . S
C501 C500 1.370 1_554 S
C501 C507 1.397 . S
C502 H493 0.930 . S
C502 C500 1.384 . S
C502 C503 1.372 . S
C503 C502 1.372 . S
C503 C504 1.400 1_556 S
C503 C508 1.490 . S
C504 H494 0.930 . S
C504 C503 1.400 1_554 S
C504 C507 1.386 . S
H505 C521 0.930 1_554 S
H506 C522 0.931 1_554 S
C507 H495 0.929 . S
C507 C501 1.397 . S
C507 C504 1.386 . S
C508 C503 1.490 . S
C508 C510 1.395 . S
C508 C511 1.403 1_556 S
H509 C515 0.930 . S
C510 H496 0.930 . S
C510 C508 1.395 . S
C510 C513 1.403 . S
C511 C508 1.403 1_554 S
C511 C512 1.524 . S
C511 C515 1.400 . S
C512 H497 0.960 . S
C512 H498 0.960 . S
C512 H499 0.960 . S
C512 C511 1.524 . S
C513 C510 1.403 . S
C513 C514 1.392 . S
C513 C517 1.495 . S
C514 C513 1.392 . S
C514 C515 1.385 1_556 S
C514 C516 1.478 . S
C515 H509 0.930 . S
C515 C511 1.400 . S
C515 C514 1.385 1_554 S
C516 C514 1.478 . S
C516 C518 1.381 . S
C516 C522 1.383 . S
C517 C513 1.495 . S
C517 H523 0.959 . S
C517 H524 0.961 . S
C517 H525 0.960 . S
C518 C516 1.381 . S
C518 C519 1.394 . S
C518 H526 0.930 . S
C519 C518 1.394 . S
C519 C520 1.383 . S
C519 H527 0.929 . S
C520 C519 1.383 . S
C520 C521 1.377 . S
C521 H505 0.930 1_556 S
C521 C520 1.377 . S
C521 C522 1.379 . S
C522 H506 0.931 1_556 S
C522 C516 1.383 . S
C522 C521 1.379 . S
H523 C517 0.959 . S
H524 C517 0.961 . S
H525 C517 0.960 . S
H526 C518 0.930 . S
H527 C519 0.929 . S
H528 C536 0.929 . S
H529 C538 0.930 . S
H530 C540 0.930 . S
H531 C543 0.929 . S
H532 C546 0.930 . S
H533 C548 0.960 . S
H534 C548 0.960 . S
H535 C548 0.960 . S
C536 H528 0.929 . S
C536 C537 1.377 1_554 S
C536 C538 1.384 . S
C537 C536 1.377 1_556 S
C537 C543 1.390 . S
C538 H529 0.930 . S
C538 C536 1.384 . S
C538 C539 1.372 1_554 S
C539 C538 1.372 1_556 S
C539 C540 1.400 . S
C539 C544 1.490 . S
C540 H530 0.930 . S
C540 C539 1.400 . S
C540 C543 1.386 . S
H541 C557 0.930 . S
H542 C558 0.931 . S
C543 H531 0.929 . S
C543 C537 1.390 . S
C543 C540 1.386 . S
C544 C539 1.490 . S
C544 C546 1.395 1_556 S
C544 C547 1.403 . S
H545 C551 0.930 . S
C546 H532 0.930 . S
C546 C544 1.395 1_554 S
C546 C549 1.403 . S
C547 C544 1.403 . S
C547 C548 1.524 . S
C547 C551 1.400 . S
C548 H533 0.960 . S
C548 H534 0.960 . S
C548 H535 0.960 . S
C548 C547 1.524 . S
C549 C546 1.403 . S
C549 C550 1.392 1_554 S
C549 C553 1.495 . S
C550 C549 1.392 1_556 S
C550 C551 1.385 . S
C550 C552 1.478 . S
C551 H545 0.930 . S
C551 C547 1.400 . S
C551 C550 1.385 . S
C552 C550 1.478 . S
C552 C554 1.372 1_556 S
C552 C558 1.392 . S
C553 C549 1.495 . S
C553 H559 0.959 . S
C553 H560 0.961 . S
C553 H561 0.960 . S
C554 C552 1.372 1_554 S
C554 C555 1.394 . S
C554 H562 0.930 . S
C555 C554 1.394 . S
C555 C556 1.383 . S
C555 H563 0.929 . S
C556 C555 1.383 . S
C556 C557 1.377 1_554 S
C557 H541 0.930 . S
C557 C556 1.377 1_556 S
C557 C558 1.379 . S
C558 H542 0.931 . S
C558 C552 1.392 . S
C558 C557 1.379 . S
H559 C553 0.959 . S
H560 C553 0.961 . S
H561 C553 0.960 . S
H562 C554 0.930 . S
H563 C555 0.929 . S
H564 C572 0.929 . S
H565 C574 0.930 . S
H566 C576 0.930 . S
H567 C579 0.929 . S
H568 C582 0.930 . S
H569 C584 0.960 . S
H570 C584 0.960 . S
H571 C584 0.960 . S
C572 H564 0.929 . S
C572 C573 1.377 . S
C572 C574 1.384 . S
C573 C572 1.377 . S
C573 C579 1.390 1_556 S
C574 H565 0.930 . S
C574 C572 1.384 . S
C574 C575 1.372 . S
C575 C574 1.372 . S
C575 C576 1.400 1_556 S
C575 C580 1.490 . S
C576 H566 0.930 . S
C576 C575 1.400 1_554 S
C576 C579 1.386 . S
H577 C593 0.930 . S
H578 C594 0.931 . S
C579 H567 0.929 . S
C579 C573 1.390 1_554 S
C579 C576 1.386 . S
C580 C575 1.490 . S
C580 C582 1.395 . S
C580 C583 1.403 1_556 S
H581 C587 0.930 . S
C582 H568 0.930 . S
C582 C580 1.395 . S
C582 C585 1.403 . S
C583 C580 1.403 1_554 S
C583 C584 1.524 . S
C583 C587 1.400 . S
C584 H569 0.960 . S
C584 H570 0.960 . S
C584 H571 0.960 . S
C584 C583 1.524 . S
C585 C582 1.403 . S
C585 C586 1.392 . S
C585 C589 1.495 . S
C586 C585 1.392 . S
C586 C587 1.385 1_556 S
C586 C588 1.478 . S
C587 H581 0.930 . S
C587 C583 1.400 . S
C587 C586 1.385 1_554 S
C588 C586 1.478 . S
C588 C590 1.381 . S
C588 C594 1.383 1_556 S
C589 C585 1.495 . S
C589 H595 0.959 . S
C589 H596 0.961 . S
C589 H597 0.960 . S
C590 C588 1.381 . S
C590 C591 1.394 . S
C590 H598 0.930 . S
C591 C590 1.394 . S
C591 C592 1.383 . S
C591 H599 0.929 . S
C592 C591 1.383 . S
C592 C593 1.377 1_556 S
C593 H577 0.930 . S
C593 C592 1.377 1_554 S
C593 C594 1.379 . S
C594 H578 0.931 . S
C594 C588 1.383 1_554 S
C594 C593 1.379 . S
H595 C589 0.959 . S
H596 C589 0.961 . S
H597 C589 0.960 . S
H598 C590 0.930 . S
H599 C591 0.929 . S
H600 C608 0.929 . S
H601 C610 0.930 . S
H602 C612 0.930 . S
H603 C615 0.929 . S
H604 C618 0.930 . S
H605 C620 0.960 . S
H606 C620 0.960 . S
H607 C620 0.960 . S
C608 H600 0.929 . S
C608 C609 1.377 . S
C608 C610 1.384 . S
C609 C608 1.377 . S
C609 C615 1.390 . S
C610 H601 0.930 . S
C610 C608 1.384 . S
C610 C611 1.372 . S
C611 C610 1.372 . S
C611 C612 1.400 . S
C611 C616 1.490 . S
C612 H602 0.930 . S
C612 C611 1.400 . S
C612 C615 1.386 . S
H613 C629 0.930 . S
H614 C630 0.931 . S
C615 H603 0.929 . S
C615 C609 1.390 . S
C615 C612 1.386 . S
C616 C611 1.490 . S
C616 C618 1.395 . S
C616 C619 1.403 1_556 S
H617 C623 0.930 . S
C618 H604 0.930 . S
C618 C616 1.395 . S
C618 C621 1.403 . S
C619 C616 1.403 1_554 S
C619 C620 1.524 . S
C619 C623 1.400 . S
C620 H605 0.960 . S
C620 H606 0.960 . S
C620 H607 0.960 . S
C620 C619 1.524 . S
C621 C618 1.403 . S
C621 C622 1.392 . S
C621 C625 1.495 . S
C622 C621 1.392 . S
C622 C623 1.385 1_556 S
C622 C624 1.478 . S
C623 H617 0.930 . S
C623 C619 1.400 . S
C623 C622 1.385 1_554 S
C624 C622 1.478 . S
C624 C626 1.381 . S
C624 C630 1.383 . S
C625 C621 1.495 . S
C625 H631 0.959 . S
C625 H632 0.961 . S
C625 H633 0.960 . S
C626 C624 1.381 . S
C626 C627 1.396 . S
C626 H634 0.930 . S
C627 C626 1.396 . S
C627 C628 1.384 . S
C627 H635 0.927 1_556 S
C628 C627 1.384 . S
C628 C629 1.377 . S
C629 H613 0.930 . S
C629 C628 1.377 . S
C629 C630 1.379 . S
C630 H614 0.931 . S
C630 C624 1.383 . S
C630 C629 1.379 . S
H631 C625 0.959 . S
H632 C625 0.961 . S
H633 C625 0.960 . S
H634 C626 0.930 . S
H635 C627 0.927 1_554 S
H636 C644 0.929 . S
H637 C646 0.930 . S
H638 C648 0.930 . S
H639 C651 0.929 . S
H640 C654 0.930 . S
H641 C656 0.960 . S
H642 C656 0.960 . S
H643 C656 0.960 . S
C644 H636 0.929 . S
C644 C645 1.377 . S
C644 C646 1.384 . S
C645 C644 1.377 . S
C645 C651 1.390 1_554 S
C646 H637 0.930 . S
C646 C644 1.384 . S
C646 C647 1.372 1_554 S
C647 C646 1.372 1_556 S
C647 C648 1.400 . S
C647 C652 1.490 . S
C648 H638 0.930 . S
C648 C647 1.400 . S
C648 C651 1.386 . S
H649 C665 0.930 . S
H650 C666 0.931 . S
C651 H639 0.929 . S
C651 C645 1.390 1_556 S
C651 C648 1.386 . S
C652 C647 1.490 . S
C652 C654 1.395 . S
C652 C655 1.403 1_556 S
H653 C659 0.930 . S
C654 H640 0.930 . S
C654 C652 1.395 . S
C654 C657 1.403 . S
C655 C652 1.403 1_554 S
C655 C656 1.524 . S
C655 C659 1.400 . S
C656 H641 0.960 . S
C656 H642 0.960 . S
C656 H643 0.960 . S
C656 C655 1.524 . S
C657 C654 1.403 . S
C657 C658 1.392 . S
C657 C661 1.495 . S
C658 C657 1.392 . S
C658 C659 1.385 1_556 S
C658 C660 1.478 . S
C659 H653 0.930 . S
C659 C655 1.400 . S
C659 C658 1.385 1_554 S
C660 C658 1.478 . S
C660 C662 1.384 . S
C660 C666 1.383 . S
C661 C657 1.495 . S
C661 H667 0.959 . S
C661 H668 0.961 . S
C661 H669 0.960 . S
C662 C660 1.384 . S
C662 C663 1.394 . S
C662 H670 0.927 1_556 S
C663 C662 1.394 . S
C663 C664 1.383 . S
C663 H671 0.929 1_556 S
C664 C663 1.383 . S
C664 C665 1.377 . S
C665 H649 0.930 . S
C665 C664 1.377 . S
C665 C666 1.379 . S
C666 H650 0.931 . S
C666 C660 1.383 . S
C666 C665 1.379 . S
H667 C661 0.959 . S
H668 C661 0.961 . S
H669 C661 0.960 . S
H670 C662 0.927 1_554 S
H671 C663 0.929 1_554 S
H672 C680 0.929 . S
H673 C682 0.930 . S
H674 C684 0.930 . S
H675 C687 0.929 . S
H676 C690 0.930 . S
H677 C692 0.960 . S
H678 C692 0.960 . S
H679 C692 0.960 . S
C680 H672 0.929 . S
C680 C681 1.377 . S
C680 C682 1.384 . S
C681 C680 1.377 . S
C681 C687 1.390 . S
C682 H673 0.930 . S
C682 C680 1.384 . S
C682 C683 1.372 . S
C683 C682 1.372 . S
C683 C684 1.400 . S
C683 C688 1.490 . S
C684 H674 0.930 . S
C684 C683 1.400 . S
C684 C687 1.386 . S
H685 C701 0.930 . S
H686 C702 0.931 . S
C687 H675 0.929 . S
C687 C681 1.390 . S
C687 C684 1.386 . S
C688 C683 1.490 . S
C688 C690 1.395 . S
C688 C691 1.403 . S
H689 C695 0.930 . S
C690 H676 0.930 . S
C690 C688 1.395 . S
C690 C693 1.403 . S
C691 C688 1.403 . S
C691 C692 1.524 . S
C691 C695 1.400 . S
C692 H677 0.960 . S
C692 H678 0.960 . S
C692 H679 0.960 . S
C692 C691 1.524 . S
C693 C690 1.403 . S
C693 C694 1.392 . S
C693 C697 1.495 . S
C694 C693 1.392 . S
C694 C695 1.385 . S
C694 C696 1.478 . S
C695 H689 0.930 . S
C695 C691 1.400 . S
C695 C694 1.385 . S
C696 C694 1.478 . S
C696 C698 1.381 . S
C696 C702 1.383 . S
C697 C693 1.495 . S
C697 H703 0.959 . S
C697 H704 0.961 . S
C697 H705 0.960 . S
C698 C696 1.381 . S
C698 C699 1.394 . S
C698 H706 0.930 . S
C699 C698 1.394 . S
C699 C700 1.383 . S
C699 H707 0.929 . S
C700 C699 1.383 . S
C700 C701 1.377 . S
C701 H685 0.930 . S
C701 C700 1.377 . S
C701 C702 1.379 . S
C702 H686 0.931 . S
C702 C696 1.383 . S
C702 C701 1.379 . S
H703 C697 0.959 . S
H704 C697 0.961 . S
H705 C697 0.960 . S
H706 C698 0.930 . S
H707 C699 0.929 . S
H708 C716 0.929 . S
H709 C718 0.930 . S
H710 C720 0.930 . S
H711 C723 0.929 . S
H712 C726 0.930 . S
H713 C728 0.960 . S
H714 C728 0.960 . S
H715 C728 0.960 . S
C716 H708 0.929 . S
C716 C717 1.377 . S
C716 C718 1.384 . S
C717 C716 1.377 . S
C717 C723 1.390 . S
C718 H709 0.930 . S
C718 C716 1.384 . S
C718 C719 1.372 . S
C719 C718 1.372 . S
C719 C720 1.400 . S
C719 C724 1.490 . S
C720 H710 0.930 . S
C720 C719 1.400 . S
C720 C723 1.386 . S
H721 C737 0.930 . S
H722 C738 0.931 . S
C723 H711 0.929 . S
C723 C717 1.390 . S
C723 C720 1.386 . S
C724 C719 1.490 . S
C724 C726 1.395 . S
C724 C727 1.403 . S
H725 C731 0.930 . S
C726 H712 0.930 . S
C726 C724 1.395 . S
C726 C729 1.403 . S
C727 C724 1.403 . S
C727 C728 1.524 . S
C727 C731 1.400 . S
C728 H713 0.960 . S
C728 H714 0.960 . S
C728 H715 0.960 . S
C728 C727 1.524 . S
C729 C726 1.403 . S
C729 C730 1.392 . S
C729 C733 1.495 . S
C730 C729 1.392 . S
C730 C731 1.385 . S
C730 C732 1.478 . S
C731 H725 0.930 . S
C731 C727 1.400 . S
C731 C730 1.385 . S
C732 C730 1.478 . S
C732 C734 1.381 . S
C732 C738 1.383 . S
C733 C729 1.495 . S
C733 H739 0.959 . S
C733 H740 0.961 . S
C733 H741 0.960 . S
C734 C732 1.381 . S
C734 C735 1.394 . S
C734 H742 0.930 . S
C735 C734 1.394 . S
C735 C736 1.383 . S
C735 H743 0.929 . S
C736 C735 1.383 . S
C736 C737 1.377 . S
C737 H721 0.930 . S
C737 C736 1.377 . S
C737 C738 1.379 . S
C738 H722 0.931 . S
C738 C732 1.383 . S
C738 C737 1.379 . S
H739 C733 0.959 . S
H740 C733 0.961 . S
H741 C733 0.960 . S
H742 C734 0.930 . S
H743 C735 0.929 . S
H744 C752 0.929 . S
H745 C754 0.930 . S
H746 C756 0.930 . S
H747 C759 0.929 . S
H748 C762 0.930 . S
H749 C764 0.960 . S
H750 C764 0.960 . S
H751 C764 0.960 . S
C752 H744 0.929 . S
C752 C753 1.377 . S
C752 C754 1.384 . S
C753 C752 1.377 . S
C753 C759 1.390 . S
C754 H745 0.930 . S
C754 C752 1.384 . S
C754 C755 1.372 . S
C755 C754 1.372 . S
C755 C756 1.400 . S
C755 C760 1.490 . S
C756 H746 0.930 . S
C756 C755 1.400 . S
C756 C759 1.386 . S
H757 C773 0.930 . S
H758 C774 0.931 . S
C759 H747 0.929 . S
C759 C753 1.390 . S
C759 C756 1.386 . S
C760 C755 1.490 . S
C760 C762 1.395 . S
C760 C763 1.403 . S
H761 C767 0.930 . S
C762 H748 0.930 . S
C762 C760 1.395 . S
C762 C765 1.403 . S
C763 C760 1.403 . S
C763 C764 1.524 . S
C763 C767 1.400 . S
C764 H749 0.960 . S
C764 H750 0.960 . S
C764 H751 0.960 . S
C764 C763 1.524 . S
C765 C762 1.403 . S
C765 C766 1.392 . S
C765 C769 1.495 . S
C766 C765 1.392 . S
C766 C767 1.385 . S
C766 C768 1.478 . S
C767 H761 0.930 . S
C767 C763 1.400 . S
C767 C766 1.385 . S
C768 C766 1.478 . S
C768 C770 1.381 . S
C768 C774 1.383 . S
C769 C765 1.495 . S
C769 H775 0.959 . S
C769 H776 0.961 . S
C769 H777 0.960 . S
C770 C768 1.381 . S
C770 C771 1.394 . S
C770 H778 0.930 . S
C771 C770 1.394 . S
C771 C772 1.383 . S
C771 H779 0.929 . S
C772 C771 1.383 . S
C772 C773 1.377 . S
C773 H757 0.930 . S
C773 C772 1.377 . S
C773 C774 1.379 . S
C774 H758 0.931 . S
C774 C768 1.383 . S
C774 C773 1.379 . S
H775 C769 0.959 . S
H776 C769 0.961 . S
H777 C769 0.960 . S
H778 C770 0.930 . S
H779 C771 0.929 . S
H780 C788 0.929 . S
H781 C790 0.930 . S
H782 C792 0.930 . S
H783 C795 0.929 . S
H784 C798 0.930 . S
H785 C800 0.960 . S
H786 C800 0.960 . S
H787 C800 0.960 . S
C788 H780 0.929 . S
C788 C789 1.377 . S
C788 C790 1.384 . S
C789 C788 1.377 . S
C789 C795 1.390 . S
C790 H781 0.930 . S
C790 C788 1.384 . S
C790 C791 1.372 . S
C791 C790 1.372 . S
C791 C792 1.400 . S
C791 C796 1.490 . S
C792 H782 0.930 . S
C792 C791 1.400 . S
C792 C795 1.386 . S
H793 C809 0.930 . S
H794 C810 0.931 . S
C795 H783 0.929 . S
C795 C789 1.390 . S
C795 C792 1.386 . S
C796 C791 1.490 . S
C796 C798 1.395 . S
C796 C799 1.403 . S
H797 C803 0.930 . S
C798 H784 0.930 . S
C798 C796 1.395 . S
C798 C801 1.403 . S
C799 C796 1.403 . S
C799 C800 1.524 . S
C799 C803 1.400 . S
C800 H785 0.960 . S
C800 H786 0.960 . S
C800 H787 0.960 . S
C800 C799 1.524 . S
C801 C798 1.403 . S
C801 C802 1.392 . S
C801 C805 1.495 . S
C802 C801 1.392 . S
C802 C803 1.385 . S
C802 C804 1.478 . S
C803 H797 0.930 . S
C803 C799 1.400 . S
C803 C802 1.385 . S
C804 C802 1.478 . S
C804 C806 1.381 . S
C804 C810 1.383 . S
C805 C801 1.495 . S
C805 H811 0.959 . S
C805 H812 0.961 . S
C805 H813 0.960 . S
C806 C804 1.381 . S
C806 C807 1.394 . S
C806 H814 0.930 . S
C807 C806 1.394 . S
C807 C808 1.383 . S
C807 H815 0.929 . S
C808 C807 1.383 . S
C808 C809 1.377 . S
C809 H793 0.930 . S
C809 C808 1.377 . S
C809 C810 1.379 . S
C810 H794 0.931 . S
C810 C804 1.383 . S
C810 C809 1.379 . S
H811 C805 0.959 . S
H812 C805 0.961 . S
H813 C805 0.960 . S
H814 C806 0.930 . S
H815 C807 0.929 . S
H816 C824 0.929 . S
H817 C826 0.930 . S
H818 C828 0.930 . S
H819 C831 0.929 . S
H820 C834 0.930 . S
H821 C836 0.960 . S
H822 C836 0.960 . S
H823 C836 0.960 . S
C824 H816 0.929 . S
C824 C825 1.377 . S
C824 C826 1.384 . S
C825 C824 1.377 . S
C825 C831 1.390 . S
C826 H817 0.930 . S
C826 C824 1.384 . S
C826 C827 1.372 . S
C827 C826 1.372 . S
C827 C828 1.400 . S
C827 C832 1.490 . S
C828 H818 0.930 . S
C828 C827 1.400 . S
C828 C831 1.386 . S
H829 C845 0.930 . S
H830 C846 0.931 . S
C831 H819 0.929 . S
C831 C825 1.390 . S
C831 C828 1.386 . S
C832 C827 1.490 . S
C832 C834 1.395 . S
C832 C835 1.403 . S
H833 C839 0.930 . S
C834 H820 0.930 . S
C834 C832 1.395 . S
C834 C837 1.403 . S
C835 C832 1.403 . S
C835 C836 1.524 . S
C835 C839 1.400 . S
C836 H821 0.960 . S
C836 H822 0.960 . S
C836 H823 0.960 . S
C836 C835 1.524 . S
C837 C834 1.403 . S
C837 C838 1.392 . S
C837 C841 1.495 . S
C838 C837 1.392 . S
C838 C839 1.385 . S
C838 C840 1.478 . S
C839 H833 0.930 . S
C839 C835 1.400 . S
C839 C838 1.385 . S
C840 C838 1.478 . S
C840 C842 1.381 . S
C840 C846 1.383 . S
C841 C837 1.495 . S
C841 H847 0.959 . S
C841 H848 0.961 . S
C841 H849 0.960 . S
C842 C840 1.381 . S
C842 C843 1.394 . S
C842 H850 0.930 . S
C843 C842 1.394 . S
C843 C844 1.383 . S
C843 H851 0.929 . S
C844 C843 1.383 . S
C844 C845 1.377 . S
C845 H829 0.930 . S
C845 C844 1.377 . S
C845 C846 1.379 . S
C846 H830 0.931 . S
C846 C840 1.383 . S
C846 C845 1.379 . S
H847 C841 0.959 . S
H848 C841 0.961 . S
H849 C841 0.960 . S
H850 C842 0.930 . S
H851 C843 0.929 . S
H852 C860 0.929 . S
H853 C862 0.930 . S
H854 C864 0.930 . S
H855 C867 0.929 . S
H856 C870 0.930 . S
H857 C872 0.960 . S
H858 C872 0.960 . S
H859 C872 0.960 . S
C860 H852 0.929 . S
C860 C861 1.377 . S
C860 C862 1.384 . S
C861 C860 1.377 . S
C861 C867 1.390 . S
C862 H853 0.930 . S
C862 C860 1.384 . S
C862 C863 1.372 . S
C863 C862 1.372 . S
C863 C864 1.400 . S
C863 C868 1.490 . S
C864 H854 0.930 . S
C864 C863 1.400 . S
C864 C867 1.386 . S
H865 C881 0.930 . S
H866 C882 0.931 . S
C867 H855 0.929 . S
C867 C861 1.390 . S
C867 C864 1.386 . S
C868 C863 1.490 . S
C868 C870 1.395 . S
C868 C871 1.403 . S
H869 C875 0.930 . S
C870 H856 0.930 . S
C870 C868 1.395 . S
C870 C873 1.403 . S
C871 C868 1.403 . S
C871 C872 1.524 . S
C871 C875 1.400 . S
C872 H857 0.960 . S
C872 H858 0.960 . S
C872 H859 0.960 . S
C872 C871 1.524 . S
C873 C870 1.403 . S
C873 C874 1.392 . S
C873 C877 1.495 . S
C874 C873 1.392 . S
C874 C875 1.385 . S
C874 C876 1.478 . S
C875 H869 0.930 . S
C875 C871 1.400 . S
C875 C874 1.385 . S
C876 C874 1.478 . S
C876 C878 1.381 . S
C876 C882 1.383 . S
C877 C873 1.495 . S
C877 H883 0.959 . S
C877 H884 0.961 . S
C877 H885 0.960 . S
C878 C876 1.381 . S
C878 C879 1.394 . S
C878 H886 0.930 . S
C879 C878 1.394 . S
C879 C880 1.383 . S
C879 H887 0.929 . S
C880 C879 1.383 . S
C880 C881 1.377 . S
C881 H865 0.930 . S
C881 C880 1.377 . S
C881 C882 1.379 . S
C882 H866 0.931 . S
C882 C876 1.383 . S
C882 C881 1.379 . S
H883 C877 0.959 . S
H884 C877 0.961 . S
H885 C877 0.960 . S
H886 C878 0.930 . S
H887 C879 0.929 . S
C249 C231 1.618 . S
C268 C8 1.394 . S
C285 C31 1.620 . S
C304 C48 1.476 . S
C321 C71 1.620 . S
C340 C88 1.472 . S
C357 C128 1.442 . S
C376 C111 1.631 . S
C393 C168 1.441 . S
C412 C151 1.631 . S
C429 C191 1.621 . S
C448 C208 1.440 . S
C465 C172 2.012 . S
C484 C29 1.974 . S
C501 C212 2.011 . S
C520 C69 1.995 . S
C537 C109 1.988 . S
C556 C12 2.010 . S
C573 C149 1.992 . S
C592 C52 2.003 1_556 S
C609 C189 1.990 . S
C628 C92 2.005 1_556 S
C645 C132 2.011 . S
C664 C229 1.984 . S
C681 C17 1.463 . S
C700 C2 1.446 . S
C717 C57 1.464 . S
C736 C42 1.460 . S
C753 C97 1.462 . S
C772 C82 1.444 . S
C789 C137 1.462 . S
C808 C122 1.483 . S
C825 C162 1.462 . S
C844 C177 1.483 . S
C861 C217 1.464 . S
C880 C202 1.463 . S
