# Generated by pormake.
# Topology wjz, (5)-cn, num edge types: 1
# Building blocks:
#     Node 0, Type 0, BuildingBlock: XOMCOT_clean_sbu_0, # of connection points: 5
#     Node 1, Type 0, BuildingBlock: XOMCOT_clean_sbu_0, # of connection points: 5
#     Node 2, Type 0, BuildingBlock: XOMCOT_clean_sbu_0, # of connection points: 5
#     Node 3, Type 0, BuildingBlock: XOMCOT_clean_sbu_0, # of connection points: 5
#     Node 4, Type 0, BuildingBlock: XOMCOT_clean_sbu_0, # of connection points: 5
#     Node 5, Type 0, BuildingBlock: XOMCOT_clean_sbu_0, # of connection points: 5
#     Node 6, Type 0, BuildingBlock: XOMCOT_clean_sbu_0, # of connection points: 5
#     Node 7, Type 0, BuildingBlock: XOMCOT_clean_sbu_0, # of connection points: 5
#     Node 8, Type 0, BuildingBlock: XOMCOT_clean_sbu_0, # of connection points: 5
#     Node 9, Type 0, BuildingBlock: XOMCOT_clean_sbu_0, # of connection points: 5
#     Node 10, Type 0, BuildingBlock: XOMCOT_clean_sbu_0, # of connection points: 5
#     Node 11, Type 0, BuildingBlock: XOMCOT_clean_sbu_0, # of connection points: 5
#     Edge 12, Type (0, 0), BuildingBlock: OJICUG_clean_linker_0, # of connection points: 2
#     Edge 13, Type (0, 0), BuildingBlock: OJICUG_clean_linker_0, # of connection points: 2
#     Edge 14, Type (0, 0), BuildingBlock: OJICUG_clean_linker_0, # of connection points: 2
#     Edge 15, Type (0, 0), BuildingBlock: OJICUG_clean_linker_0, # of connection points: 2
#     Edge 16, Type (0, 0), BuildingBlock: OJICUG_clean_linker_0, # of connection points: 2
#     Edge 17, Type (0, 0), BuildingBlock: OJICUG_clean_linker_0, # of connection points: 2
#     Edge 18, Type (0, 0), BuildingBlock: OJICUG_clean_linker_0, # of connection points: 2
#     Edge 19, Type (0, 0), BuildingBlock: OJICUG_clean_linker_0, # of connection points: 2
#     Edge 20, Type (0, 0), BuildingBlock: OJICUG_clean_linker_0, # of connection points: 2
#     Edge 21, Type (0, 0), BuildingBlock: OJICUG_clean_linker_0, # of connection points: 2
#     Edge 22, Type (0, 0), BuildingBlock: OJICUG_clean_linker_0, # of connection points: 2
#     Edge 23, Type (0, 0), BuildingBlock: OJICUG_clean_linker_0, # of connection points: 2
#     Edge 24, Type (0, 0), BuildingBlock: OJICUG_clean_linker_0, # of connection points: 2
#     Edge 25, Type (0, 0), BuildingBlock: OJICUG_clean_linker_0, # of connection points: 2
#     Edge 26, Type (0, 0), BuildingBlock: OJICUG_clean_linker_0, # of connection points: 2
#     Edge 27, Type (0, 0), BuildingBlock: OJICUG_clean_linker_0, # of connection points: 2
#     Edge 28, Type (0, 0), BuildingBlock: OJICUG_clean_linker_0, # of connection points: 2
#     Edge 29, Type (0, 0), BuildingBlock: OJICUG_clean_linker_0, # of connection points: 2
#     Edge 30, Type (0, 0), BuildingBlock: OJICUG_clean_linker_0, # of connection points: 2
#     Edge 31, Type (0, 0), BuildingBlock: OJICUG_clean_linker_0, # of connection points: 2
#     Edge 32, Type (0, 0), BuildingBlock: OJICUG_clean_linker_0, # of connection points: 2
#     Edge 33, Type (0, 0), BuildingBlock: OJICUG_clean_linker_0, # of connection points: 2
#     Edge 34, Type (0, 0), BuildingBlock: OJICUG_clean_linker_0, # of connection points: 2
#     Edge 35, Type (0, 0), BuildingBlock: OJICUG_clean_linker_0, # of connection points: 2
#     Edge 36, Type (0, 0), BuildingBlock: OJICUG_clean_linker_0, # of connection points: 2
#     Edge 37, Type (0, 0), BuildingBlock: OJICUG_clean_linker_0, # of connection points: 2
#     Edge 38, Type (0, 0), BuildingBlock: OJICUG_clean_linker_0, # of connection points: 2
#     Edge 39, Type (0, 0), BuildingBlock: OJICUG_clean_linker_0, # of connection points: 2
#     Edge 40, Type (0, 0), BuildingBlock: OJICUG_clean_linker_0, # of connection points: 2
#     Edge 41, Type (0, 0), BuildingBlock: OJICUG_clean_linker_0, # of connection points: 2
# Relax obj value: 0.153
# Max RMSD: 0.183
# Mean RMSD: 0.183
data_MOF--net-wjz--node1-XOMCOT_clean_sbu_0--edge1-OJICUG_clean_linker_0
_symmetry_space_group_name_H-M    P1
_symmetry_Int_Tables_number       1
_symmetry_cell_setting            triclinic
loop_
_symmetry_equiv_pos_as_xyz
'x, y, z'
_cell_length_a     55.047038
_cell_length_b     55.009869
_cell_length_c     13.480593
_cell_angle_alpha  89.949272
_cell_angle_beta   90.044505
_cell_angle_gamma 120.00713
loop_
_atom_site_label
_atom_site_type_symbol
_atom_site_fract_x
_atom_site_fract_y
_atom_site_fract_z
_atom_type_partial_charge
Co0 Co 0.33181 0.49172 0.13821 0.0
C1 C 0.33534 0.4918 0.35761 0.0
C2 C 0.36204 0.5327 0.2975 0.0
C3 C 0.36227 0.5348 0.39934 0.0
N4 N 0.34575 0.50554 0.27109 0.0
N5 N 0.34526 0.50902 0.43681 0.0
H6 H 0.3193 0.47007 0.36292 0.0
H7 H 0.37159 0.55017 0.24643 0.0
C8 C 0.39298 0.53154 0.09998 0.0
O9 O 0.39906 0.52038 0.17546 0.0
N10 N 0.31766 0.47863 1.00673 0.0
C11 C 0.30067 0.45191 0.97783 0.0
C12 C 0.29905 0.45132 0.87569 0.0
C13 C 0.32591 0.49391 0.92274 0.0
N14 N 0.31517 0.47775 0.84135 0.0
C15 C 0.33698 0.44517 0.20979 0.0
C16 C 0.37746 0.45061 0.07645 0.0
C17 C 0.36991 0.43109 0.15395 0.0
C18 C 0.34861 0.42782 0.2189 0.0
C19 C 0.36512 0.46744 0.06991 0.0
N20 N 0.34672 0.4661 0.14076 0.0
H21 H 0.31983 0.44136 0.25756 0.0
H22 H 0.3708 0.48191 1.00853 0.0
H23 H 0.2913 0.43401 0.02718 0.0
H24 H 0.3401 0.51633 0.92101 0.0
O25 O 0.29496 0.46714 0.19261 0.0
O26 O 0.31087 0.51119 0.14507 0.0
O27 O 0.36741 0.52286 0.07736 0.0
C28 C 0.2908 0.48836 0.18484 0.0
H29 H 0.37263 0.55404 0.44189 0.0
H30 H 0.28812 0.43269 0.83021 0.0
H31 H 0.39328 0.45345 0.02269 0.0
H32 H 0.34085 0.41189 0.27624 0.0
Co33 Co 0.84054 0.32992 0.27736 0.0
C34 C 0.84455 0.33449 0.4962 0.0
C35 C 0.82634 0.35763 0.4354 0.0
C36 C 0.82407 0.35745 0.53726 0.0
N37 N 0.83979 0.34375 0.40947 0.0
N38 N 0.83534 0.34262 0.57527 0.0
H39 H 0.85267 0.32039 0.50165 0.0
H40 H 0.817 0.36564 0.38371 0.0
C41 C 0.85985 0.39124 0.23775 0.0
O42 O 0.87427 0.39904 0.32075 0.0
N43 N 0.84037 0.3159 0.1463 0.0
C44 C 0.85208 0.30071 0.11711 0.0
C45 C 0.85103 0.29907 0.01493 0.0
C46 C 0.83207 0.32299 0.06244 0.0
N47 N 0.83864 0.31333 0.98061 0.0
C48 C 0.89132 0.33328 0.35024 0.0
C49 C 0.92805 0.37764 0.23262 0.0
C50 C 0.93895 0.36818 0.30777 0.0
C51 C 0.92015 0.34505 0.36472 0.0
C52 C 0.89902 0.36525 0.22098 0.0
N53 N 0.881 0.34477 0.28456 0.0
H54 H 0.87736 0.3147 0.39138 0.0
H55 H 0.89121 0.37226 0.16053 0.0
H56 H 0.86197 0.29266 0.16621 0.0
H57 H 0.82215 0.3357 0.06143 0.0
O58 O 0.82736 0.2929 0.33273 0.0
O59 O 0.80009 0.30927 0.28005 0.0
O60 O 0.84565 0.36538 0.21375 0.0
C61 C 0.80217 0.28906 0.32192 0.0
H62 H 0.81322 0.36588 0.57929 0.0
H63 H 0.86013 0.28947 0.96952 0.0
H64 H 0.94175 0.39488 0.18452 0.0
H65 H 0.92765 0.33597 0.4197 0.0
Co66 Co 0.5073 0.84076 0.47222 0.0
C67 C 0.50763 0.84468 0.69124 0.0
C68 C 0.46794 0.83564 0.63201 0.0
C69 C 0.46614 0.83462 0.73414 0.0
N70 N 0.49424 0.84261 0.60486 0.0
N71 N 0.49121 0.84034 0.77107 0.0
H72 H 0.52819 0.84686 0.6962 0.0
H73 H 0.45062 0.82995 0.58173 0.0
C74 C 0.46899 0.86375 0.41901 0.0
O75 O 0.48092 0.88385 0.48528 0.0
N76 N 0.51987 0.8383 0.34081 0.0
C77 C 0.54623 0.84577 0.31373 0.0
C78 C 0.54738 0.84527 0.21165 0.0
C79 C 0.50532 0.83311 0.25537 0.0
N80 N 0.52166 0.83754 0.17505 0.0
C81 C 0.55389 0.8925 0.54309 0.0
C82 C 0.54983 0.92717 0.40387 0.0
C83 C 0.56848 0.93921 0.48339 0.0
C84 C 0.5713 0.92152 0.55116 0.0
C85 C 0.53332 0.89796 0.39737 0.0
N86 N 0.53374 0.88114 0.47129 0.0
H87 H 0.5567 0.87927 0.59492 0.0
H88 H 0.51947 0.88899 0.3345 0.0
H89 H 0.56367 0.85243 0.36436 0.0
H90 H 0.4836 0.82783 0.25162 0.0
O91 O 0.53125 0.82784 0.52835 0.0
O92 O 0.48693 0.80037 0.48303 0.0
O93 O 0.4765 0.84537 0.40958 0.0
C94 C 0.50961 0.80266 0.52223 0.0
H95 H 0.44756 0.82919 0.77744 0.0
H96 H 0.56597 0.851 0.168 0.0
H97 H 0.5479 0.94023 0.3478 0.0
H98 H 0.5862 0.93007 0.61172 0.0
Co99 Co 0.67261 0.5124 0.60663 0.0
C100 C 0.66841 0.51236 0.82604 0.0
C101 C 0.63953 0.47208 0.76647 0.0
C102 C 0.63908 0.47009 0.86862 0.0
N103 N 0.65739 0.4989 0.73933 0.0
N104 N 0.65733 0.49555 0.90587 0.0
H105 H 0.68625 0.53329 0.83111 0.0
H106 H 0.62893 0.45461 0.71596 0.0
C107 C 0.61185 0.47292 0.55643 0.0
O108 O 0.60375 0.48273 0.63039 0.0
N109 N 0.68827 0.52527 0.47579 0.0
C110 C 0.70582 0.55198 0.44824 0.0
C111 C 0.70757 0.55306 0.34617 0.0
C112 C 0.68002 0.51041 0.3906 0.0
N113 N 0.69102 0.52692 0.30982 0.0
C114 C 0.66324 0.55669 0.67711 0.0
C115 C 0.62958 0.5544 0.52138 0.0
C116 C 0.63295 0.57191 0.6023 0.0
C117 C 0.65067 0.57332 0.67985 0.0
C118 C 0.64195 0.53758 0.52311 0.0
N119 N 0.6574 0.53776 0.6028 0.0
H120 H 0.67768 0.55924 0.73504 0.0
H121 H 0.6388 0.52416 0.46025 0.0
H122 H 0.71533 0.56967 0.49845 0.0
H123 H 0.66487 0.48825 0.38747 0.0
O124 O 0.70892 0.53703 0.66509 0.0
O125 O 0.6933 0.49285 0.61979 0.0
O126 O 0.6378 0.4816 0.54151 0.0
C127 C 0.71298 0.51567 0.66085 0.0
H128 H 0.62708 0.45113 0.9116 0.0
H129 H 0.71932 0.57189 0.30233 0.0
H130 H 0.61736 0.55344 0.45706 0.0
H131 H 0.65448 0.58664 0.74375 0.0
Co132 Co 0.15986 0.67126 0.7792 0.0
C133 C 0.156 0.66687 0.99812 0.0
C134 C 0.17347 0.64307 0.93756 0.0
C135 C 0.17579 0.64326 0.03941 0.0
N136 N 0.16043 0.65736 0.91148 0.0
N137 N 0.16497 0.65849 0.07728 0.0
H138 H 0.14831 0.68133 1.00342 0.0
H139 H 0.18252 0.63476 0.88597 0.0
C140 C 0.13987 0.60987 0.73985 0.0
O141 O 0.12527 0.60222 0.82244 0.0
N142 N 0.16022 0.68536 0.64802 0.0
C143 C 0.14878 0.7008 0.6186 0.0
C144 C 0.1499 0.70247 0.51642 0.0
C145 C 0.16843 0.67816 0.56431 0.0
N146 N 0.16206 0.68799 0.48236 0.0
C147 C 0.10911 0.66793 0.85218 0.0
C148 C 0.07246 0.62405 0.73273 0.0
C149 C 0.06151 0.63321 0.80852 0.0
C150 C 0.08026 0.65613 0.86639 0.0
C151 C 0.10148 0.63647 0.72136 0.0
N152 N 0.11944 0.65666 0.78588 0.0
H153 H 0.12304 0.68636 0.894 0.0
H154 H 0.10936 0.62968 0.66054 0.0
H155 H 0.13902 0.709 0.66752 0.0
H156 H 0.17813 0.66525 0.5635 0.0
O157 O 0.17321 0.7083 0.83435 0.0
O158 O 0.20028 0.69164 0.78224 0.0
O159 O 0.15448 0.63571 0.71598 0.0
C160 C 0.19833 0.71194 0.82387 0.0
H161 H 0.18636 0.63451 0.08153 0.0
H162 H 0.141 0.71226 0.47082 0.0
H163 H 0.0588 0.60699 0.68394 0.0
H164 H 0.07272 0.665 0.92188 0.0
Co165 Co 0.4918 0.15915 0.96183 0.0
C166 C 0.49163 0.15543 0.18094 0.0
C167 C 0.53159 0.16541 0.12179 0.0
C168 C 0.53341 0.16649 0.22392 0.0
N169 N 0.50512 0.1578 0.0946 0.0
N170 N 0.50817 0.16018 0.26079 0.0
H171 H 0.47088 0.15277 0.18585 0.0
H172 H 0.54896 0.17146 0.0715 0.0
C173 C 0.53073 0.13681 0.91071 0.0
O174 O 0.51911 0.11699 0.97819 0.0
N175 N 0.47898 0.16113 0.83031 0.0
C176 C 0.45251 0.15317 0.8031 0.0
C177 C 0.45135 0.15365 0.70102 0.0
C178 C 0.4936 0.16659 0.74499 0.0
N179 N 0.47719 0.16188 0.66458 0.0
C180 C 0.44545 0.10751 0.03369 0.0
C181 C 0.45015 0.07253 0.89785 0.0
C182 C 0.43145 0.0607 0.97731 0.0
C183 C 0.42829 0.07851 0.04328 0.0
C184 C 0.46642 0.10173 0.88979 0.0
N185 N 0.46571 0.11874 0.96228 0.0
H186 H 0.44235 0.12084 0.08403 0.0
H187 H 0.48027 0.11057 0.82689 0.0
H188 H 0.43503 0.14623 0.85367 0.0
H189 H 0.51544 0.17233 0.7414 0.0
O190 O 0.46755 0.17173 0.01739 0.0
O191 O 0.51174 0.19954 0.97137 0.0
O192 O 0.52281 0.15484 0.89961 0.0
C193 C 0.48899 0.19701 0.01073 0.0
H194 H 0.5521 0.17236 0.26727 0.0
H195 H 0.4327 0.14761 0.65723 0.0
H196 H 0.4523 0.05934 0.84303 0.0
H197 H 0.41332 0.07011 0.10361 0.0
Co198 Co 0.50822 0.66517 0.72613 0.0
C199 C 0.50713 0.66197 0.50938 0.0
C200 C 0.46567 0.63683 0.56872 0.0
C201 C 0.46398 0.63684 0.46638 0.0
N202 N 0.49278 0.6526 0.59507 0.0
N203 N 0.4901 0.65291 0.42931 0.0
H204 H 0.5296 0.67584 0.5063 0.0
H205 H 0.44829 0.6271 0.62012 0.0
C206 C 0.48268 0.61484 0.85597 0.0
O207 O 0.50857 0.62266 0.88241 0.0
N208 N 0.52334 0.67851 0.85862 0.0
C209 C 0.55016 0.69358 0.88996 0.0
C210 C 0.55037 0.69571 0.99192 0.0
C211 C 0.50773 0.67307 0.94184 0.0
N212 N 0.52363 0.68235 0.02457 0.0
C213 C 0.56093 0.66699 0.68882 0.0
C214 C 0.53773 0.61001 0.65781 0.0
C215 C 0.56698 0.62709 0.65229 0.0
C216 C 0.57847 0.65613 0.66604 0.0
C217 C 0.52108 0.62183 0.67846 0.0
N218 N 0.53275 0.64967 0.70114 0.0
H219 H 0.56996 0.68944 0.69271 0.0
H220 H 0.49859 0.60838 0.67579 0.0
H221 H 0.56855 0.7023 0.84377 0.0
H222 H 0.48504 0.66155 0.94203 0.0
O223 O 0.53161 0.70252 0.67329 0.0
O224 O 0.48873 0.68616 0.73359 0.0
O225 O 0.47822 0.62863 0.78838 0.0
C226 C 0.51067 0.70659 0.69074 0.0
H227 H 0.44485 0.62689 0.42314 0.0
H228 H 0.56885 0.70528 0.03854 0.0
H229 H 0.52749 0.58754 0.64681 0.0
H230 H 0.60072 0.6705 0.65704 0.0
Co231 Co 0.84325 0.51325 0.91267 0.0
C232 C 0.8477 0.51269 0.69391 0.0
C233 C 0.82851 0.47126 0.75461 0.0
C234 C 0.82625 0.46922 0.65274 0.0
N235 N 0.84254 0.4986 0.78065 0.0
N236 N 0.83813 0.49537 0.61477 0.0
H237 H 0.85636 0.53502 0.68849 0.0
H238 H 0.81872 0.45393 0.80623 0.0
C239 C 0.86134 0.47033 0.95313 0.0
O240 O 0.8758 0.47665 0.8703 0.0
N241 N 0.84305 0.52717 0.04365 0.0
C242 C 0.85507 0.55411 0.07286 0.0
C243 C 0.85405 0.55473 0.17505 0.0
C244 C 0.83461 0.5118 0.12756 0.0
N245 N 0.84138 0.52806 0.20942 0.0
C246 C 0.8943 0.56048 0.84167 0.0
C247 C 0.9307 0.5522 0.95877 0.0
C248 C 0.94179 0.57288 0.88471 0.0
C249 C 0.92315 0.57753 0.82805 0.0
C250 C 0.90163 0.53561 0.9697 0.0
N251 N 0.88379 0.53846 0.90643 0.0
H252 H 0.8805 0.56532 0.80055 0.0
H253 H 0.89367 0.52057 0.02944 0.0
H254 H 0.86517 0.57204 0.0238 0.0
H255 H 0.82448 0.48915 0.12857 0.0
O256 O 0.83081 0.53755 0.85646 0.0
O257 O 0.80281 0.49397 0.90852 0.0
O258 O 0.84763 0.48252 0.97679 0.0
C259 C 0.80545 0.51643 0.86599 0.0
H260 H 0.81496 0.44997 0.61069 0.0
H261 H 0.86339 0.57346 0.22042 0.0
H262 H 0.94428 0.54842 1.0066 0.0
H263 H 0.93079 0.59432 0.77391 0.0
Co264 Co 0.33467 0.84276 0.06027 0.0
C265 C 0.33781 0.84581 0.84116 0.0
C266 C 0.3686 0.83704 0.90093 0.0
C267 C 0.36901 0.83536 0.79895 0.0
N268 N 0.34942 0.84426 0.92762 0.0
N269 N 0.34944 0.84071 0.76165 0.0
H270 H 0.32001 0.84893 0.83627 0.0
H271 H 0.38019 0.83138 0.9515 0.0
C272 C 0.39581 0.86486 0.11429 0.0
O273 O 0.4044 0.88514 0.04847 0.0
N274 N 0.31988 0.84054 0.19169 0.0
C275 C 0.30208 0.84924 0.22078 0.0
C276 C 0.30051 0.84816 0.32298 0.0
C277 C 0.32867 0.83407 0.27577 0.0
N278 N 0.3175 0.83889 0.35719 0.0
C279 C 0.34031 0.89454 0.98894 0.0
C280 C 0.37921 0.92925 0.12744 0.0
C281 C 0.37243 0.94123 0.04809 0.0
C282 C 0.35189 0.92353 0.98064 0.0
C283 C 0.36652 0.90004 0.13424 0.0
N284 N 0.34913 0.88319 0.06071 0.0
H285 H 0.3242 0.88132 0.93742 0.0
H286 H 0.37139 0.89106 0.19715 0.0
H287 H 0.29218 0.85725 0.17159 0.0
H288 H 0.34366 0.82683 0.27781 0.0
O289 O 0.29795 0.83053 1.00456 0.0
O290 O 0.31406 0.80239 0.04961 0.0
O291 O 0.36982 0.84673 0.12292 0.0
C292 C 0.29396 0.80517 0.01033 0.0
H293 H 0.38151 0.82897 0.75625 0.0
H294 H 0.28907 0.85523 0.36862 0.0
H295 H 0.39425 0.94234 0.18324 0.0
H296 H 0.34544 0.93203 0.92018 0.0
Co297 Co 0.49078 0.33252 0.23693 0.0
C298 C 0.49118 0.33732 0.01812 0.0
C299 C 0.53263 0.35971 0.07843 0.0
C300 C 0.5346 0.35966 0.97654 0.0
N301 N 0.50531 0.34625 0.1047 0.0
N302 N 0.50845 0.34531 0.93887 0.0
H303 H 0.46889 0.32354 0.0128 0.0
H304 H 0.54999 0.36733 0.12989 0.0
C305 C 0.53348 0.39362 0.27504 0.0
O306 O 0.52686 0.40144 0.19206 0.0
N307 N 0.47691 0.31857 0.36808 0.0
C308 C 0.44999 0.30322 0.39698 0.0
C309 C 0.44928 0.3017 0.49919 0.0
C310 C 0.49219 0.32589 0.45217 0.0
N311 N 0.47587 0.3162 0.53378 0.0
C312 C 0.44352 0.33664 0.16586 0.0
C313 C 0.45178 0.38074 0.28609 0.0
C314 C 0.4309 0.37138 0.21287 0.0
C315 C 0.42635 0.34843 0.15426 0.0
C316 C 0.4684 0.36828 0.29511 0.0
N317 N 0.46555 0.34785 0.23058 0.0
H318 H 0.43868 0.31814 0.12378 0.0
H319 H 0.48344 0.3751 0.35478 0.0
H320 H 0.43211 0.29499 0.34762 0.0
H321 H 0.5148 0.33877 0.45352 0.0
O322 O 0.4666 0.29555 0.18169 0.0
O323 O 0.5102 0.31154 0.23403 0.0
O324 O 0.52148 0.36781 0.30001 0.0
C325 C 0.4878 0.29146 0.19241 0.0
H326 H 0.55381 0.36781 0.93416 0.0
H327 H 0.43054 0.29199 0.54441 0.0
H328 H 0.45565 0.39788 0.33519 0.0
H329 H 0.40945 0.33943 0.10059 0.0
Co330 Co 0.15702 0.48853 0.41612 0.0
C331 C 0.15287 0.48909 0.19728 0.0
C332 C 0.17136 0.53048 0.25785 0.0
C333 C 0.17363 0.53255 0.15599 0.0
N334 N 0.15774 0.50312 0.28394 0.0
N335 N 0.16218 0.50643 0.11812 0.0
H336 H 0.14459 0.46683 0.19195 0.0
H337 H 0.18082 0.54782 0.30945 0.0
C338 C 0.13805 0.53078 0.4557 0.0
O339 O 0.12366 0.52438 0.37266 0.0
N340 N 0.15723 0.47467 0.54726 0.0
C341 C 0.14549 0.44775 0.57661 0.0
C342 C 0.14654 0.44716 0.67881 0.0
C343 C 0.16554 0.49006 0.63107 0.0
N344 N 0.15895 0.47382 0.713 0.0
C345 C 0.10627 0.441 0.34384 0.0
C346 C 0.0695 0.44873 0.46052 0.0
C347 C 0.05862 0.42824 0.38591 0.0
C348 C 0.07744 0.42386 0.32943 0.0
C349 C 0.09853 0.46544 0.47213 0.0
N350 N 0.11656 0.46289 0.40902 0.0
H351 H 0.12024 0.43635 0.303 0.0
H352 H 0.10632 0.48036 0.53221 0.0
H353 H 0.13559 0.42981 0.52762 0.0
H354 H 0.17546 0.51269 0.63195 0.0
O355 O 0.17018 0.46472 0.36075 0.0
O356 O 0.19745 0.50838 0.41335 0.0
O357 O 0.15201 0.51887 0.47966 0.0
C358 C 0.19535 0.48611 0.37137 0.0
H359 H 0.18461 0.55183 0.11387 0.0
H360 H 0.13742 0.42844 0.72431 0.0
H361 H 0.05578 0.45232 0.50824 0.0
H362 H 0.06997 0.4072 0.27486 0.0
Co363 Co 0.66607 0.15759 0.55802 0.0
C364 C 0.66234 0.15355 0.33897 0.0
C365 C 0.63229 0.16345 0.39801 0.0
C366 C 0.63157 0.16454 0.29588 0.0
N367 N 0.65121 0.15591 0.4253 0.0
N368 N 0.65055 0.1583 0.25905 0.0
H369 H 0.68045 0.15092 0.33413 0.0
H370 H 0.62097 0.16953 0.4482 0.0
C371 C 0.60493 0.13561 0.61079 0.0
O372 O 0.59647 0.11541 0.54478 0.0
N373 N 0.68105 0.1599 0.68949 0.0
C374 C 0.69971 0.15211 0.71671 0.0
C375 C 0.70138 0.15262 0.81879 0.0
C376 C 0.67185 0.16529 0.77486 0.0
N377 N 0.68365 0.16068 0.85526 0.0
C378 C 0.66046 0.10564 0.48807 0.0
C379 C 0.62141 0.07117 0.62663 0.0
C380 C 0.62817 0.05903 0.54792 0.0
C381 C 0.6488 0.07661 0.48043 0.0
C382 C 0.63417 0.1004 0.63277 0.0
N383 N 0.65164 0.11714 0.55918 0.0
H384 H 0.67663 0.11878 0.43655 0.0
H385 H 0.62927 0.10947 0.69521 0.0
H386 H 0.71031 0.14523 0.66618 0.0
H387 H 0.65562 0.17085 0.77853 0.0
O388 O 0.70279 0.16994 0.50184 0.0
O389 O 0.68658 0.19796 0.54683 0.0
O390 O 0.63092 0.15363 0.62049 0.0
C391 C 0.70669 0.19526 0.50741 0.0
H392 H 0.61875 0.17042 0.25252 0.0
H393 H 0.71407 0.14667 0.86255 0.0
H394 H 0.60632 0.0582 0.68248 0.0
H395 H 0.65524 0.06798 0.42048 0.0
C396 C 0.35581 0.51728 0.61584 0.0
C397 C 0.33726 0.50171 0.53908 0.0
H398 H 0.36356 0.52167 0.7719 0.0
C399 C 0.31091 0.47869 0.56378 0.0
H400 H 0.37633 0.53492 0.59927 0.0
C401 C 0.30354 0.47109 0.66279 0.0
C402 C 0.32226 0.48637 0.73948 0.0
H403 H 0.29581 0.46663 0.50681 0.0
H404 H 0.28311 0.45331 0.67935 0.0
C405 C 0.34842 0.50969 0.71489 0.0
C406 C 0.83452 0.34386 0.85391 0.0
C407 C 0.83626 0.31988 0.87842 0.0
H408 H 0.83346 0.37018 0.73901 0.0
C409 C 0.83667 0.303 0.80105 0.0
H410 H 0.83421 0.35749 0.91083 0.0
C411 C 0.83602 0.31022 0.70203 0.0
C412 C 0.83508 0.33463 0.67759 0.0
H413 H 0.8374 0.28409 0.81686 0.0
H414 H 0.83603 0.29644 0.64491 0.0
C415 C 0.83403 0.35118 0.75489 0.0
C416 C 0.48577 0.82199 0.0421 0.0
C417 C 0.51397 0.83761 0.07257 0.0
H418 H 0.45639 0.81045 0.92257 0.0
C419 C 0.53439 0.8542 1.00195 0.0
H420 H 0.4695 0.80874 0.09402 0.0
C421 C 0.52684 0.85519 0.90374 0.0
C422 C 0.49868 0.83962 0.87327 0.0
H423 H 0.5562 0.86697 0.02272 0.0
H424 H 0.54308 0.86856 0.8519 0.0
C425 C 0.47821 0.82303 0.94369 0.0
C426 C 0.6629 0.48304 0.07838 0.0
C427 C 0.66564 0.50318 1.00809 0.0
H428 H 0.66942 0.47483 0.22841 0.0
C429 C 0.67716 0.53123 0.03886 0.0
H430 H 0.65445 0.46131 0.05725 0.0
C431 C 0.68582 0.53901 0.13688 0.0
C432 C 0.68318 0.51897 0.20737 0.0
H433 H 0.67912 0.54723 0.98741 0.0
H434 H 0.69398 0.56072 0.15754 0.0
C435 C 0.6716 0.49084 0.17671 0.0
C436 C 0.16489 0.69119 0.20383 0.0
C437 C 0.1654 0.66655 0.17954 0.0
H438 H 0.16391 0.71753 0.31851 0.0
C439 C 0.16612 0.64982 0.25695 0.0
H440 H 0.16514 0.7051 0.14664 0.0
C441 C 0.16572 0.65719 0.35592 0.0
C442 C 0.16439 0.68139 0.38026 0.0
H443 H 0.16635 0.63065 0.2412 0.0
H444 H 0.16576 0.64342 0.41294 0.0
C445 C 0.16432 0.69845 0.3028 0.0
C446 C 0.46477 0.1452 0.49147 0.0
C447 C 0.485 0.16208 0.56217 0.0
H448 H 0.45637 0.13088 0.3414 0.0
C449 C 0.51316 0.17827 0.53184 0.0
H450 H 0.44301 0.132 0.51216 0.0
C451 C 0.52086 0.17752 0.43346 0.0
C452 C 0.50058 0.16064 0.36295 0.0
H453 H 0.52927 0.19175 0.58385 0.0
H454 H 0.54263 0.19052 0.41243 0.0
C455 C 0.47246 0.14448 0.3933 0.0
C456 C 0.52275 0.68582 0.30291 0.0
C457 C 0.49803 0.66072 0.32688 0.0
H458 H 0.54995 0.7126 0.18842 0.0
C459 C 0.48127 0.64346 0.24903 0.0
H460 H 0.5359 0.70002 0.36044 0.0
C461 C 0.48929 0.65087 0.15002 0.0
C462 C 0.51429 0.67572 0.12628 0.0
H463 H 0.46227 0.62388 0.26451 0.0
H464 H 0.47627 0.63665 0.09229 0.0
C465 C 0.53079 0.69318 0.20403 0.0
C466 C 0.83633 0.48536 0.43509 0.0
C467 C 0.83793 0.50318 0.5125 0.0
H468 H 0.83601 0.47904 0.27913 0.0
C469 C 0.83938 0.52878 0.48818 0.0
H470 H 0.83534 0.4656 0.45087 0.0
C471 C 0.83998 0.53666 0.38917 0.0
C472 C 0.83901 0.51913 0.31166 0.0
H473 H 0.83982 0.54275 0.54541 0.0
H474 H 0.8411 0.55648 0.37351 0.0
C475 C 0.83676 0.49318 0.33609 0.0
C476 C 0.35218 0.84321 0.48317 0.0
C477 C 0.32513 0.83807 0.45893 0.0
H478 H 0.38122 0.8485 0.59831 0.0
C479 C 0.30601 0.83305 0.53578 0.0
H480 H 0.3676 0.84762 0.42585 0.0
C481 C 0.3138 0.83346 0.6347 0.0
C482 C 0.34104 0.83917 0.65928 0.0
H483 H 0.28494 0.82864 0.51933 0.0
H484 H 0.29832 0.8291 0.69164 0.0
C485 C 0.36003 0.84377 0.58217 0.0
C486 C 0.51798 0.35437 0.75939 0.0
C487 C 0.50062 0.3375 0.83663 0.0
H488 H 0.52384 0.36103 0.60338 0.0
C489 C 0.47544 0.31293 0.81229 0.0
H490 H 0.53738 0.37351 0.77541 0.0
C491 C 0.46757 0.30575 0.71328 0.0
C492 C 0.48468 0.32287 0.63594 0.0
H493 H 0.46184 0.29899 0.86953 0.0
H494 H 0.44811 0.28666 0.69741 0.0
C495 C 0.51015 0.34714 0.66038 0.0
C496 C 0.16143 0.4733 0.99165 0.0
C497 C 0.16244 0.49869 0.01587 0.0
H498 H 0.16003 0.44576 0.87707 0.0
C499 C 0.16358 0.51632 0.93841 0.0
H500 H 0.16135 0.45948 0.04892 0.0
C501 C 0.16312 0.50851 0.83945 0.0
C502 C 0.16131 0.48275 0.81514 0.0
H503 H 0.16421 0.53592 0.95413 0.0
H504 H 0.16349 0.52247 0.7824 0.0
C505 C 0.16081 0.46543 0.89269 0.0
C506 C 0.66378 0.17673 0.98813 0.0
C507 C 0.67595 0.16073 0.9577 0.0
H508 H 0.6463 0.18867 0.10755 0.0
C509 C 0.67942 0.14389 0.02831 0.0
H510 H 0.66105 0.19018 0.9362 0.0
C511 C 0.67091 0.14299 0.12647 0.0
C512 C 0.65872 0.15894 0.1569 0.0
H513 H 0.68814 0.13084 1.00757 0.0
H514 H 0.67349 0.12942 0.17826 0.0
C515 C 0.65522 0.1758 0.08648 0.0
C516 C 0.43123 0.58472 0.89476 0.0
C517 C 0.45928 0.59253 0.9141 0.0
H518 H 0.38825 0.55947 0.93859 0.0
C519 C 0.46521 0.58001 0.99458 0.0
H520 H 0.42595 0.59406 0.83372 0.0
C521 C 0.44373 0.56043 0.05501 0.0
C522 C 0.4157 0.55273 0.0364 0.0
H523 H 0.48658 0.58559 0.0122 0.0
H524 H 0.44918 0.55137 0.11644 0.0
C525 C 0.40964 0.56497 0.95522 0.0
C526 C 0.86305 0.4372 0.19727 0.0
C527 C 0.86195 0.41241 0.16558 0.0
H528 H 0.86378 0.47504 0.15358 0.0
C529 C 0.86225 0.40751 0.06328 0.0
H530 H 0.86304 0.44156 0.27563 0.0
C531 C 0.86289 0.4267 0.99363 0.0
C532 C 0.86272 0.45087 0.02531 0.0
H533 H 0.86216 0.38886 0.0373 0.0
H534 H 0.86275 0.42227 0.91527 0.0
C535 C 0.86318 0.45614 0.12762 0.0
C536 C 0.41094 0.83928 0.22881 0.0
C537 C 0.41536 0.86481 0.18926 0.0
H538 H 0.42469 0.81902 0.33214 0.0
C539 C 0.43702 0.89012 0.22815 0.0
H540 H 0.39423 0.81949 0.2007 0.0
C541 C 0.4538 0.88985 0.30596 0.0
C542 C 0.44962 0.86427 0.34431 0.0
H543 H 0.44055 0.91008 0.20005 0.0
H544 H 0.47047 0.90962 0.33441 0.0
C545 C 0.4282 0.83901 0.3044 0.0
C546 C 0.5779 0.4381 0.31344 0.0
C547 C 0.55296 0.41476 0.34605 0.0
H548 H 0.61632 0.47471 0.35547 0.0
C549 C 0.54695 0.4112 0.44817 0.0
H550 H 0.58293 0.44129 0.23511 0.0
C551 C 0.56574 0.43051 0.51686 0.0
C552 C 0.59117 0.45326 0.48455 0.0
H553 H 0.52758 0.39355 0.47471 0.0
H554 H 0.56073 0.42726 0.59521 0.0
C555 C 0.59704 0.45701 0.3823 0.0
C556 C 0.13594 0.54477 0.62999 0.0
C557 C 0.13646 0.55011 0.52768 0.0
H558 H 0.13619 0.55935 0.77796 0.0
C559 C 0.13642 0.57434 0.4959 0.0
H560 H 0.13528 0.52583 0.65599 0.0
C561 C 0.13718 0.59356 0.5655 0.0
C562 C 0.13749 0.58862 0.6678 0.0
H563 H 0.13665 0.57883 0.41752 0.0
H564 H 0.13744 0.6123 0.5395 0.0
C565 C 0.13619 0.56374 0.69958 0.0
C566 C 0.58923 0.16125 0.72243 0.0
C567 C 0.58513 0.1357 0.68446 0.0
H568 H 0.57494 0.18155 0.82328 0.0
C569 C 0.56348 0.11041 0.72352 0.0
H570 H 0.60592 0.18103 0.69408 0.0
C571 C 0.54642 0.11071 0.80009 0.0
C572 C 0.55029 0.13631 0.83692 0.0
H573 H 0.56018 0.09043 0.69657 0.0
H574 H 0.52979 0.09096 0.82882 0.0
C575 C 0.57167 0.16155 0.79669 0.0
C576 C 0.26674 0.51266 0.2555 0.0
C577 C 0.26593 0.48756 0.22951 0.0
H578 H 0.2453 0.53181 0.32311 0.0
C579 C 0.24194 0.46184 0.25267 0.0
H580 H 0.28509 0.5328 0.23966 0.0
C581 C 0.219 0.46126 0.29981 0.0
C582 C 0.21997 0.48639 0.32674 0.0
H583 H 0.24084 0.44216 0.23395 0.0
H584 H 0.20059 0.44117 0.31554 0.0
C585 C 0.24409 0.51208 0.30442 0.0
C586 C 0.7532 0.26581 0.38718 0.0
C587 C 0.7775 0.26452 0.36586 0.0
H588 H 0.71206 0.2452 0.45082 0.0
C589 C 0.77858 0.24041 0.39307 0.0
H590 H 0.75188 0.28426 0.36822 0.0
C591 C 0.75562 0.21788 0.43968 0.0
C592 C 0.73146 0.21937 0.46201 0.0
H593 H 0.79713 0.23894 0.37811 0.0
H594 H 0.75685 0.1994 0.45887 0.0
C595 C 0.73052 0.24358 0.43554 0.0
C596 C 0.53558 0.77905 0.58411 0.0
C597 C 0.51005 0.77816 0.56527 0.0
H598 H 0.55581 0.75695 0.63831 0.0
C599 C 0.48484 0.754 0.59167 0.0
H600 H 0.55534 0.79747 0.56491 0.0
C601 C 0.48514 0.73116 0.63596 0.0
C602 C 0.51063 0.7318 0.65299 0.0
H603 H 0.46485 0.75284 0.57904 0.0
H604 H 0.46535 0.71272 0.65459 0.0
C605 C 0.53586 0.75594 0.62648 0.0
C606 C 0.7573 0.49106 0.79371 0.0
C607 C 0.78137 0.51655 0.81813 0.0
H608 H 0.71717 0.47085 0.72254 0.0
C609 C 0.78305 0.54188 0.78891 0.0
H610 H 0.75557 0.4712 0.81404 0.0
C611 C 0.76091 0.54169 0.73702 0.0
C612 C 0.73704 0.51615 0.71135 0.0
H613 H 0.80147 0.56183 0.80613 0.0
H614 H 0.76256 0.56149 0.71635 0.0
C615 C 0.73547 0.49086 0.74011 0.0
C616 C 0.26993 0.75689 0.93848 0.0
C617 C 0.26915 0.78118 0.9649 0.0
H618 H 0.2484 0.71628 0.87085 0.0
C619 C 0.24513 0.78288 0.94217 0.0
H620 H 0.28829 0.75512 0.95403 0.0
C621 C 0.22213 0.7605 0.89521 0.0
C622 C 0.22305 0.73633 0.86806 0.0
H623 H 0.24403 0.80144 0.96126 0.0
H624 H 0.20369 0.76215 0.87992 0.0
C625 C 0.24722 0.7348 0.88977 0.0
C626 C 0.51327 0.2679 0.12793 0.0
C627 C 0.48773 0.26679 0.14892 0.0
H628 H 0.53364 0.24699 0.06563 0.0
C629 C 0.46249 0.2427 0.1223 0.0
H630 H 0.53308 0.28633 0.14647 0.0
C631 C 0.46282 0.21999 0.07673 0.0
C632 C 0.4884 0.22129 0.05485 0.0
H633 H 0.44251 0.24136 0.13707 0.0
H634 H 0.44307 0.2015 0.05806 0.0
C635 C 0.5136 0.2455 0.08059 0.0
C636 C 0.39258 0.40442 0.0871 0.0
C637 C 0.3844 0.41463 0.16851 0.0
H638 H 0.41376 0.38298 0.03715 0.0
C639 C 0.39088 0.40968 0.26474 0.0
H640 H 0.38768 0.40756 0.01203 0.0
C641 C 0.40546 0.39524 0.27921 0.0
C642 C 0.41407 0.38545 0.19783 0.0
H643 H 0.3852 0.4175 0.32919 0.0
H644 H 0.41002 0.39179 0.35439 0.0
C645 C 0.40724 0.39 0.10159 0.0
C646 C 0.97973 0.38743 0.42555 0.0
C647 C 0.96962 0.38248 0.32749 0.0
H648 H 0.01564 0.40547 0.52105 0.0
C649 C 0.98902 0.39199 0.24903 0.0
H650 H 0.96535 0.38063 0.4877 0.0
C651 C 0.01784 0.40641 0.26818 0.0
C652 C 0.02796 0.41176 0.36623 0.0
H653 H 0.98194 0.38828 0.17268 0.0
H654 H 0.03223 0.41392 0.20601 0.0
C655 C 0.00856 0.40195 0.4447 0.0
C656 C 0.58375 0.0135 0.52476 0.0
C657 C 0.61309 0.02825 0.5337 0.0
H658 H 0.54674 0.97371 0.4994 0.0
C659 C 0.62784 0.01364 0.52466 0.0
H660 H 0.57199 0.02441 0.53053 0.0
C661 C 0.61339 0.98462 0.50834 0.0
C662 C 0.58407 0.96996 0.49814 0.0
H663 H 0.6505 0.02465 0.53108 0.0
H664 H 0.6251 0.97367 0.50269 0.0
C665 C 0.56939 0.98466 0.50608 0.0
C666 C 0.59068 0.5766 0.56356 0.0
C667 C 0.61732 0.58763 0.60766 0.0
H668 H 0.55479 0.58085 0.53812 0.0
C669 C 0.62805 0.61299 0.66085 0.0
H670 H 0.58132 0.55703 0.5229 0.0
C671 C 0.61205 0.62607 0.67377 0.0
C672 C 0.58508 0.61453 0.63201 0.0
H673 H 0.64872 0.62271 0.69393 0.0
H674 H 0.6206 0.6448 0.71905 0.0
C675 C 0.57503 0.59005 0.5743 0.0
C676 C 0.01152 0.60954 0.74913 0.0
C677 C 0.03083 0.61882 0.82788 0.0
H678 H 0.96839 0.58768 0.70537 0.0
C679 C 0.02063 0.6135 0.92579 0.0
H680 H 0.01867 0.61353 0.6729 0.0
C681 C 0.99178 0.59887 0.94448 0.0
C682 C 0.97248 0.58932 0.86568 0.0
H683 H 0.03495 0.62011 0.98815 0.0
H684 H 0.98462 0.5951 0.0207 0.0
C685 C 0.98269 0.595 0.76781 0.0
C686 C 0.38676 0.01528 1.00416 0.0
C687 C 0.41607 0.03003 0.99384 0.0
H688 H 0.34982 0.97527 0.02866 0.0
C689 C 0.43092 0.01555 1.00362 0.0
H690 H 0.37492 0.02608 0.99715 0.0
C691 C 0.41672 0.9868 0.02407 0.0
C692 C 0.38738 0.97195 0.03301 0.0
H693 H 0.45357 0.02659 0.99693 0.0
H694 H 0.42859 0.97603 0.03104 0.0
C695 C 0.37247 0.98636 0.02232 0.0
loop_
_geom_bond_atom_site_label_1
_geom_bond_atom_site_label_2
_geom_bond_distance
_geom_bond_site_symmetry_2
_ccdc_geom_bond_type
Co0 N4 2.148 . S
Co0 N10 2.128 1_554 S
Co0 N20 2.194 . S
Co0 O25 2.351 . S
Co0 O26 2.155 . S
Co0 O27 2.096 . S
C1 N4 1.301 . S
C1 N5 1.328 . S
C1 H6 0.930 . S
C2 C3 1.333 . S
C2 N4 1.317 . S
C2 H7 0.930 . S
C3 C2 1.333 . S
C3 N5 1.350 . S
C3 H29 0.931 . S
N4 Co0 2.148 . S
N4 C1 1.301 . S
N4 C2 1.317 . S
N5 C1 1.328 . S
N5 C3 1.350 . S
H6 C1 0.930 . S
H7 C2 0.930 . S
C8 O9 1.224 . S
C8 O27 1.247 . S
O9 C8 1.224 . S
N10 Co0 2.128 1_556 S
N10 C11 1.355 . S
N10 C13 1.311 . S
C11 N10 1.355 . S
C11 C12 1.363 . S
C11 H23 0.929 . S
C12 C11 1.363 . S
C12 N14 1.375 . S
C12 H30 0.931 . S
C13 N10 1.311 . S
C13 N14 1.347 . S
C13 H24 0.929 . S
N14 C12 1.375 . S
N14 C13 1.347 . S
C15 C18 1.365 . S
C15 N20 1.328 . S
C15 H21 0.929 . S
C16 C17 1.362 . S
C16 C19 1.378 . S
C16 H31 0.929 . S
C17 C16 1.362 . S
C17 C18 1.366 . S
C18 C15 1.365 . S
C18 C17 1.366 . S
C18 H32 0.930 . S
C19 C16 1.378 . S
C19 N20 1.315 . S
C19 H22 0.930 . S
N20 Co0 2.194 . S
N20 C15 1.328 . S
N20 C19 1.315 . S
H21 C15 0.929 . S
H22 C19 0.930 . S
H23 C11 0.929 . S
H24 C13 0.929 . S
O25 Co0 2.351 . S
O25 C28 1.244 . S
O26 Co0 2.155 . S
O26 C28 1.240 . S
O27 Co0 2.096 . S
O27 C8 1.247 . S
C28 O25 1.244 . S
C28 O26 1.240 . S
H29 C3 0.931 . S
H30 C12 0.931 . S
H31 C16 0.929 . S
H32 C18 0.930 . S
Co33 N37 2.148 . S
Co33 N43 2.128 . S
Co33 N53 2.194 . S
Co33 O58 2.351 . S
Co33 O59 2.155 . S
Co33 O60 2.096 . S
C34 N37 1.301 . S
C34 N38 1.328 . S
C34 H39 0.930 . S
C35 C36 1.333 . S
C35 N37 1.317 . S
C35 H40 0.930 . S
C36 C35 1.333 . S
C36 N38 1.350 . S
C36 H62 0.931 . S
N37 Co33 2.148 . S
N37 C34 1.301 . S
N37 C35 1.317 . S
N38 C34 1.328 . S
N38 C36 1.350 . S
H39 C34 0.930 . S
H40 C35 0.930 . S
C41 O42 1.224 . S
C41 O60 1.247 . S
O42 C41 1.224 . S
N43 Co33 2.128 . S
N43 C44 1.355 . S
N43 C46 1.311 . S
C44 N43 1.355 . S
C44 C45 1.363 1_554 S
C44 H56 0.929 . S
C45 C44 1.363 1_556 S
C45 N47 1.375 . S
C45 H63 0.931 . S
C46 N43 1.311 . S
C46 N47 1.347 1_554 S
C46 H57 0.929 . S
N47 C45 1.375 . S
N47 C46 1.347 1_556 S
C48 C51 1.365 . S
C48 N53 1.328 . S
C48 H54 0.929 . S
C49 C50 1.362 . S
C49 C52 1.378 . S
C49 H64 0.929 . S
C50 C49 1.362 . S
C50 C51 1.366 . S
C51 C48 1.365 . S
C51 C50 1.366 . S
C51 H65 0.930 . S
C52 C49 1.378 . S
C52 N53 1.315 . S
C52 H55 0.930 . S
N53 Co33 2.194 . S
N53 C48 1.328 . S
N53 C52 1.315 . S
H54 C48 0.929 . S
H55 C52 0.930 . S
H56 C44 0.929 . S
H57 C46 0.929 . S
O58 Co33 2.351 . S
O58 C61 1.244 . S
O59 Co33 2.155 . S
O59 C61 1.240 . S
O60 Co33 2.096 . S
O60 C41 1.247 . S
C61 O58 1.244 . S
C61 O59 1.240 . S
H62 C36 0.931 . S
H63 C45 0.931 . S
H64 C49 0.929 . S
H65 C51 0.930 . S
Co66 N70 2.148 . S
Co66 N76 2.128 . S
Co66 N86 2.194 . S
Co66 O91 2.351 . S
Co66 O92 2.155 . S
Co66 O93 2.096 . S
C67 N70 1.301 . S
C67 N71 1.328 . S
C67 H72 0.930 . S
C68 C69 1.333 . S
C68 N70 1.317 . S
C68 H73 0.930 . S
C69 C68 1.333 . S
C69 N71 1.350 . S
C69 H95 0.931 . S
N70 Co66 2.148 . S
N70 C67 1.301 . S
N70 C68 1.317 . S
N71 C67 1.328 . S
N71 C69 1.350 . S
H72 C67 0.930 . S
H73 C68 0.930 . S
C74 O75 1.224 . S
C74 O93 1.247 . S
O75 C74 1.224 . S
N76 Co66 2.128 . S
N76 C77 1.355 . S
N76 C79 1.311 . S
C77 N76 1.355 . S
C77 C78 1.363 . S
C77 H89 0.929 . S
C78 C77 1.363 . S
C78 N80 1.375 . S
C78 H96 0.931 . S
C79 N76 1.311 . S
C79 N80 1.347 . S
C79 H90 0.929 . S
N80 C78 1.375 . S
N80 C79 1.347 . S
C81 C84 1.365 . S
C81 N86 1.328 . S
C81 H87 0.929 . S
C82 C83 1.362 . S
C82 C85 1.378 . S
C82 H97 0.929 . S
C83 C82 1.362 . S
C83 C84 1.366 . S
C84 C81 1.365 . S
C84 C83 1.366 . S
C84 H98 0.930 . S
C85 C82 1.378 . S
C85 N86 1.315 . S
C85 H88 0.930 . S
N86 Co66 2.194 . S
N86 C81 1.328 . S
N86 C85 1.315 . S
H87 C81 0.929 . S
H88 C85 0.930 . S
H89 C77 0.929 . S
H90 C79 0.929 . S
O91 Co66 2.351 . S
O91 C94 1.244 . S
O92 Co66 2.155 . S
O92 C94 1.240 . S
O93 Co66 2.096 . S
O93 C74 1.247 . S
C94 O91 1.244 . S
C94 O92 1.240 . S
H95 C69 0.931 . S
H96 C78 0.931 . S
H97 C82 0.929 . S
H98 C84 0.930 . S
Co99 N103 2.148 . S
Co99 N109 2.128 . S
Co99 N119 2.194 . S
Co99 O124 2.351 . S
Co99 O125 2.155 . S
Co99 O126 2.096 . S
C100 N103 1.301 . S
C100 N104 1.328 . S
C100 H105 0.930 . S
C101 C102 1.333 . S
C101 N103 1.317 . S
C101 H106 0.930 . S
C102 C101 1.333 . S
C102 N104 1.350 . S
C102 H128 0.931 . S
N103 Co99 2.148 . S
N103 C100 1.301 . S
N103 C101 1.317 . S
N104 C100 1.328 . S
N104 C102 1.350 . S
H105 C100 0.930 . S
H106 C101 0.930 . S
C107 O108 1.224 . S
C107 O126 1.247 . S
O108 C107 1.224 . S
N109 Co99 2.128 . S
N109 C110 1.355 . S
N109 C112 1.311 . S
C110 N109 1.355 . S
C110 C111 1.363 . S
C110 H122 0.929 . S
C111 C110 1.363 . S
C111 N113 1.375 . S
C111 H129 0.931 . S
C112 N109 1.311 . S
C112 N113 1.347 . S
C112 H123 0.929 . S
N113 C111 1.375 . S
N113 C112 1.347 . S
C114 C117 1.365 . S
C114 N119 1.328 . S
C114 H120 0.929 . S
C115 C116 1.362 . S
C115 C118 1.378 . S
C115 H130 0.929 . S
C116 C115 1.362 . S
C116 C117 1.366 . S
C117 C114 1.365 . S
C117 C116 1.366 . S
C117 H131 0.930 . S
C118 C115 1.378 . S
C118 N119 1.315 . S
C118 H121 0.930 . S
N119 Co99 2.194 . S
N119 C114 1.328 . S
N119 C118 1.315 . S
H120 C114 0.929 . S
H121 C118 0.930 . S
H122 C110 0.929 . S
H123 C112 0.929 . S
O124 Co99 2.351 . S
O124 C127 1.244 . S
O125 Co99 2.155 . S
O125 C127 1.240 . S
O126 Co99 2.096 . S
O126 C107 1.247 . S
C127 O124 1.244 . S
C127 O125 1.240 . S
H128 C102 0.931 . S
H129 C111 0.931 . S
H130 C115 0.929 . S
H131 C117 0.930 . S
Co132 N136 2.148 . S
Co132 N142 2.128 . S
Co132 N152 2.194 . S
Co132 O157 2.351 . S
Co132 O158 2.155 . S
Co132 O159 2.096 . S
C133 N136 1.301 . S
C133 N137 1.328 1_556 S
C133 H138 0.930 . S
C134 C135 1.333 1_556 S
C134 N136 1.317 . S
C134 H139 0.930 . S
C135 C134 1.333 1_554 S
C135 N137 1.350 . S
C135 H161 0.931 . S
N136 Co132 2.148 . S
N136 C133 1.301 . S
N136 C134 1.317 . S
N137 C133 1.328 1_554 S
N137 C135 1.350 . S
H138 C133 0.930 . S
H139 C134 0.930 . S
C140 O141 1.224 . S
C140 O159 1.247 . S
O141 C140 1.224 . S
N142 Co132 2.128 . S
N142 C143 1.355 . S
N142 C145 1.311 . S
C143 N142 1.355 . S
C143 C144 1.363 . S
C143 H155 0.929 . S
C144 C143 1.363 . S
C144 N146 1.375 . S
C144 H162 0.931 . S
C145 N142 1.311 . S
C145 N146 1.347 . S
C145 H156 0.929 . S
N146 C144 1.375 . S
N146 C145 1.347 . S
C147 C150 1.365 . S
C147 N152 1.328 . S
C147 H153 0.929 . S
C148 C149 1.362 . S
C148 C151 1.378 . S
C148 H163 0.929 . S
C149 C148 1.362 . S
C149 C150 1.366 . S
C150 C147 1.365 . S
C150 C149 1.366 . S
C150 H164 0.930 . S
C151 C148 1.378 . S
C151 N152 1.315 . S
C151 H154 0.930 . S
N152 Co132 2.194 . S
N152 C147 1.328 . S
N152 C151 1.315 . S
H153 C147 0.929 . S
H154 C151 0.930 . S
H155 C143 0.929 . S
H156 C145 0.929 . S
O157 Co132 2.351 . S
O157 C160 1.244 . S
O158 Co132 2.155 . S
O158 C160 1.240 . S
O159 Co132 2.096 . S
O159 C140 1.247 . S
C160 O157 1.244 . S
C160 O158 1.240 . S
H161 C135 0.931 . S
H162 C144 0.931 . S
H163 C148 0.929 . S
H164 C150 0.930 . S
Co165 N169 2.148 1_556 S
Co165 N175 2.128 . S
Co165 N185 2.194 . S
Co165 O190 2.351 . S
Co165 O191 2.155 . S
Co165 O192 2.096 . S
C166 N169 1.301 . S
C166 N170 1.328 . S
C166 H171 0.930 . S
C167 C168 1.333 . S
C167 N169 1.317 . S
C167 H172 0.930 . S
C168 C167 1.333 . S
C168 N170 1.350 . S
C168 H194 0.931 . S
N169 Co165 2.148 1_554 S
N169 C166 1.301 . S
N169 C167 1.317 . S
N170 C166 1.328 . S
N170 C168 1.350 . S
H171 C166 0.930 . S
H172 C167 0.930 . S
C173 O174 1.224 . S
C173 O192 1.247 . S
O174 C173 1.224 . S
N175 Co165 2.128 . S
N175 C176 1.355 . S
N175 C178 1.311 . S
C176 N175 1.355 . S
C176 C177 1.363 . S
C176 H188 0.929 . S
C177 C176 1.363 . S
C177 N179 1.375 . S
C177 H195 0.931 . S
C178 N175 1.311 . S
C178 N179 1.347 . S
C178 H189 0.929 . S
N179 C177 1.375 . S
N179 C178 1.347 . S
C180 C183 1.365 1_556 S
C180 N185 1.328 . S
C180 H186 0.929 1_556 S
C181 C182 1.362 . S
C181 C184 1.378 . S
C181 H196 0.929 . S
C182 C181 1.362 . S
C182 C183 1.366 1_556 S
C183 C180 1.365 1_554 S
C183 C182 1.366 1_554 S
C183 H197 0.930 . S
C184 C181 1.378 . S
C184 N185 1.315 . S
C184 H187 0.930 . S
N185 Co165 2.194 . S
N185 C180 1.328 . S
N185 C184 1.315 . S
H186 C180 0.929 1_554 S
H187 C184 0.930 . S
H188 C176 0.929 . S
H189 C178 0.929 . S
O190 Co165 2.351 . S
O190 C193 1.244 . S
O191 Co165 2.155 . S
O191 C193 1.240 . S
O192 Co165 2.096 . S
O192 C173 1.247 . S
C193 O190 1.244 . S
C193 O191 1.240 . S
H194 C168 0.931 . S
H195 C177 0.931 . S
H196 C181 0.929 . S
H197 C183 0.930 . S
Co198 N202 2.148 . S
Co198 N208 2.128 . S
Co198 N218 2.194 . S
Co198 O223 2.351 . S
Co198 O224 2.155 . S
Co198 O225 2.096 . S
C199 N202 1.301 . S
C199 N203 1.328 . S
C199 H204 0.930 . S
C200 C201 1.333 . S
C200 N202 1.317 . S
C200 H205 0.930 . S
C201 C200 1.333 . S
C201 N203 1.350 . S
C201 H227 0.931 . S
N202 Co198 2.148 . S
N202 C199 1.301 . S
N202 C200 1.317 . S
N203 C199 1.328 . S
N203 C201 1.350 . S
H204 C199 0.930 . S
H205 C200 0.930 . S
C206 O207 1.224 . S
C206 O225 1.247 . S
O207 C206 1.224 . S
N208 Co198 2.128 . S
N208 C209 1.355 . S
N208 C211 1.311 . S
C209 N208 1.355 . S
C209 C210 1.363 1_556 S
C209 H221 0.929 . S
C210 C209 1.363 1_554 S
C210 N212 1.375 . S
C210 H228 0.931 . S
C211 N208 1.311 . S
C211 N212 1.347 1_556 S
C211 H222 0.929 . S
N212 C210 1.375 . S
N212 C211 1.347 1_554 S
C213 C216 1.365 . S
C213 N218 1.328 . S
C213 H219 0.929 . S
C214 C215 1.362 . S
C214 C217 1.378 . S
C214 H229 0.929 . S
C215 C214 1.362 . S
C215 C216 1.366 . S
C216 C213 1.365 . S
C216 C215 1.366 . S
C216 H230 0.930 . S
C217 C214 1.378 . S
C217 N218 1.315 . S
C217 H220 0.930 . S
N218 Co198 2.194 . S
N218 C213 1.328 . S
N218 C217 1.315 . S
H219 C213 0.929 . S
H220 C217 0.930 . S
H221 C209 0.929 . S
H222 C211 0.929 . S
O223 Co198 2.351 . S
O223 C226 1.244 . S
O224 Co198 2.155 . S
O224 C226 1.240 . S
O225 Co198 2.096 . S
O225 C206 1.247 . S
C226 O223 1.244 . S
C226 O224 1.240 . S
H227 C201 0.931 . S
H228 C210 0.931 . S
H229 C214 0.929 . S
H230 C216 0.930 . S
Co231 N235 2.148 . S
Co231 N241 2.128 1_556 S
Co231 N251 2.194 . S
Co231 O256 2.351 . S
Co231 O257 2.155 . S
Co231 O258 2.096 . S
C232 N235 1.301 . S
C232 N236 1.328 . S
C232 H237 0.930 . S
C233 C234 1.333 . S
C233 N235 1.317 . S
C233 H238 0.930 . S
C234 C233 1.333 . S
C234 N236 1.350 . S
C234 H260 0.931 . S
N235 Co231 2.148 . S
N235 C232 1.301 . S
N235 C233 1.317 . S
N236 C232 1.328 . S
N236 C234 1.350 . S
H237 C232 0.930 . S
H238 C233 0.930 . S
C239 O240 1.224 . S
C239 O258 1.247 . S
O240 C239 1.224 . S
N241 Co231 2.128 1_554 S
N241 C242 1.355 . S
N241 C244 1.311 . S
C242 N241 1.355 . S
C242 C243 1.363 . S
C242 H254 0.929 . S
C243 C242 1.363 . S
C243 N245 1.375 . S
C243 H261 0.931 . S
C244 N241 1.311 . S
C244 N245 1.347 . S
C244 H255 0.929 . S
N245 C243 1.375 . S
N245 C244 1.347 . S
C246 C249 1.365 . S
C246 N251 1.328 . S
C246 H252 0.929 . S
C247 C248 1.362 . S
C247 C250 1.378 . S
C247 H262 0.929 . S
C248 C247 1.362 . S
C248 C249 1.366 . S
C249 C246 1.365 . S
C249 C248 1.366 . S
C249 H263 0.930 . S
C250 C247 1.378 . S
C250 N251 1.315 . S
C250 H253 0.930 . S
N251 Co231 2.194 . S
N251 C246 1.328 . S
N251 C250 1.315 . S
H252 C246 0.929 . S
H253 C250 0.930 . S
H254 C242 0.929 . S
H255 C244 0.929 . S
O256 Co231 2.351 . S
O256 C259 1.244 . S
O257 Co231 2.155 . S
O257 C259 1.240 . S
O258 Co231 2.096 . S
O258 C239 1.247 . S
C259 O256 1.244 . S
C259 O257 1.240 . S
H260 C234 0.931 . S
H261 C243 0.931 . S
H262 C247 0.929 . S
H263 C249 0.930 . S
Co264 N268 2.148 1_554 S
Co264 N274 2.128 . S
Co264 N284 2.194 . S
Co264 O289 2.351 . S
Co264 O290 2.155 . S
Co264 O291 2.096 . S
C265 N268 1.301 . S
C265 N269 1.328 . S
C265 H270 0.930 . S
C266 C267 1.333 . S
C266 N268 1.317 . S
C266 H271 0.930 . S
C267 C266 1.333 . S
C267 N269 1.350 . S
C267 H293 0.931 . S
N268 Co264 2.148 1_556 S
N268 C265 1.301 . S
N268 C266 1.317 . S
N269 C265 1.328 . S
N269 C267 1.350 . S
H270 C265 0.930 . S
H271 C266 0.930 . S
C272 O273 1.224 . S
C272 O291 1.247 . S
O273 C272 1.224 . S
N274 Co264 2.128 . S
N274 C275 1.355 . S
N274 C277 1.311 . S
C275 N274 1.355 . S
C275 C276 1.363 . S
C275 H287 0.929 . S
C276 C275 1.363 . S
C276 N278 1.375 . S
C276 H294 0.931 . S
C277 N274 1.311 . S
C277 N278 1.347 . S
C277 H288 0.929 . S
N278 C276 1.375 . S
N278 C277 1.347 . S
C279 C282 1.365 . S
C279 N284 1.328 . S
C279 H285 0.929 1_554 S
C280 C281 1.362 . S
C280 C283 1.378 . S
C280 H295 0.929 . S
C281 C280 1.362 . S
C281 C282 1.366 . S
C282 C279 1.365 . S
C282 C281 1.366 . S
C282 H296 0.930 1_554 S
C283 C280 1.378 . S
C283 N284 1.315 . S
C283 H286 0.930 . S
N284 Co264 2.194 . S
N284 C279 1.328 . S
N284 C283 1.315 . S
H285 C279 0.929 1_556 S
H286 C283 0.930 . S
H287 C275 0.929 . S
H288 C277 0.929 . S
O289 Co264 2.351 . S
O289 C292 1.244 . S
O290 Co264 2.155 . S
O290 C292 1.240 . S
O291 Co264 2.096 . S
O291 C272 1.247 . S
C292 O289 1.244 . S
C292 O290 1.240 . S
H293 C267 0.931 . S
H294 C276 0.931 . S
H295 C280 0.929 . S
H296 C282 0.930 1_556 S
Co297 N301 2.148 . S
Co297 N307 2.128 . S
Co297 N317 2.194 . S
Co297 O322 2.351 . S
Co297 O323 2.155 . S
Co297 O324 2.096 . S
C298 N301 1.301 . S
C298 N302 1.328 1_554 S
C298 H303 0.930 . S
C299 C300 1.333 1_554 S
C299 N301 1.317 . S
C299 H304 0.930 . S
C300 C299 1.333 1_556 S
C300 N302 1.350 . S
C300 H326 0.931 . S
N301 Co297 2.148 . S
N301 C298 1.301 . S
N301 C299 1.317 . S
N302 C298 1.328 1_556 S
N302 C300 1.350 . S
H303 C298 0.930 . S
H304 C299 0.930 . S
C305 O306 1.224 . S
C305 O324 1.247 . S
O306 C305 1.224 . S
N307 Co297 2.128 . S
N307 C308 1.355 . S
N307 C310 1.311 . S
C308 N307 1.355 . S
C308 C309 1.363 . S
C308 H320 0.929 . S
C309 C308 1.363 . S
C309 N311 1.375 . S
C309 H327 0.931 . S
C310 N307 1.311 . S
C310 N311 1.347 . S
C310 H321 0.929 . S
N311 C309 1.375 . S
N311 C310 1.347 . S
C312 C315 1.365 . S
C312 N317 1.328 . S
C312 H318 0.929 . S
C313 C314 1.362 . S
C313 C316 1.378 . S
C313 H328 0.929 . S
C314 C313 1.362 . S
C314 C315 1.366 . S
C315 C312 1.365 . S
C315 C314 1.366 . S
C315 H329 0.930 . S
C316 C313 1.378 . S
C316 N317 1.315 . S
C316 H319 0.930 . S
N317 Co297 2.194 . S
N317 C312 1.328 . S
N317 C316 1.315 . S
H318 C312 0.929 . S
H319 C316 0.930 . S
H320 C308 0.929 . S
H321 C310 0.929 . S
O322 Co297 2.351 . S
O322 C325 1.244 . S
O323 Co297 2.155 . S
O323 C325 1.240 . S
O324 Co297 2.096 . S
O324 C305 1.247 . S
C325 O322 1.244 . S
C325 O323 1.240 . S
H326 C300 0.931 . S
H327 C309 0.931 . S
H328 C313 0.929 . S
H329 C315 0.930 . S
Co330 N334 2.148 . S
Co330 N340 2.128 . S
Co330 N350 2.194 . S
Co330 O355 2.351 . S
Co330 O356 2.155 . S
Co330 O357 2.096 . S
C331 N334 1.301 . S
C331 N335 1.328 . S
C331 H336 0.930 . S
C332 C333 1.333 . S
C332 N334 1.317 . S
C332 H337 0.930 . S
C333 C332 1.333 . S
C333 N335 1.350 . S
C333 H359 0.931 . S
N334 Co330 2.148 . S
N334 C331 1.301 . S
N334 C332 1.317 . S
N335 C331 1.328 . S
N335 C333 1.350 . S
H336 C331 0.930 . S
H337 C332 0.930 . S
C338 O339 1.224 . S
C338 O357 1.247 . S
O339 C338 1.224 . S
N340 Co330 2.128 . S
N340 C341 1.355 . S
N340 C343 1.311 . S
C341 N340 1.355 . S
C341 C342 1.363 . S
C341 H353 0.929 . S
C342 C341 1.363 . S
C342 N344 1.375 . S
C342 H360 0.931 . S
C343 N340 1.311 . S
C343 N344 1.347 . S
C343 H354 0.929 . S
N344 C342 1.375 . S
N344 C343 1.347 . S
C345 C348 1.365 . S
C345 N350 1.328 . S
C345 H351 0.929 . S
C346 C347 1.362 . S
C346 C349 1.378 . S
C346 H361 0.929 . S
C347 C346 1.362 . S
C347 C348 1.366 . S
C348 C345 1.365 . S
C348 C347 1.366 . S
C348 H362 0.930 . S
C349 C346 1.378 . S
C349 N350 1.315 . S
C349 H352 0.930 . S
N350 Co330 2.194 . S
N350 C345 1.328 . S
N350 C349 1.315 . S
H351 C345 0.929 . S
H352 C349 0.930 . S
H353 C341 0.929 . S
H354 C343 0.929 . S
O355 Co330 2.351 . S
O355 C358 1.244 . S
O356 Co330 2.155 . S
O356 C358 1.240 . S
O357 Co330 2.096 . S
O357 C338 1.247 . S
C358 O355 1.244 . S
C358 O356 1.240 . S
H359 C333 0.931 . S
H360 C342 0.931 . S
H361 C346 0.929 . S
H362 C348 0.930 . S
Co363 N367 2.148 . S
Co363 N373 2.128 . S
Co363 N383 2.194 . S
Co363 O388 2.351 . S
Co363 O389 2.155 . S
Co363 O390 2.096 . S
C364 N367 1.301 . S
C364 N368 1.328 . S
C364 H369 0.930 . S
C365 C366 1.333 . S
C365 N367 1.317 . S
C365 H370 0.930 . S
C366 C365 1.333 . S
C366 N368 1.350 . S
C366 H392 0.931 . S
N367 Co363 2.148 . S
N367 C364 1.301 . S
N367 C365 1.317 . S
N368 C364 1.328 . S
N368 C366 1.350 . S
H369 C364 0.930 . S
H370 C365 0.930 . S
C371 O372 1.224 . S
C371 O390 1.247 . S
O372 C371 1.224 . S
N373 Co363 2.128 . S
N373 C374 1.355 . S
N373 C376 1.311 . S
C374 N373 1.355 . S
C374 C375 1.363 . S
C374 H386 0.929 . S
C375 C374 1.363 . S
C375 N377 1.375 . S
C375 H393 0.931 . S
C376 N373 1.311 . S
C376 N377 1.347 . S
C376 H387 0.929 . S
N377 C375 1.375 . S
N377 C376 1.347 . S
C378 C381 1.365 . S
C378 N383 1.328 . S
C378 H384 0.929 . S
C379 C380 1.362 . S
C379 C382 1.378 . S
C379 H394 0.929 . S
C380 C379 1.362 . S
C380 C381 1.366 . S
C381 C378 1.365 . S
C381 C380 1.366 . S
C381 H395 0.930 . S
C382 C379 1.378 . S
C382 N383 1.315 . S
C382 H385 0.930 . S
N383 Co363 2.194 . S
N383 C378 1.328 . S
N383 C382 1.315 . S
H384 C378 0.929 . S
H385 C382 0.930 . S
H386 C374 0.929 . S
H387 C376 0.929 . S
O388 Co363 2.351 . S
O388 C391 1.244 . S
O389 Co363 2.155 . S
O389 C391 1.240 . S
O390 Co363 2.096 . S
O390 C371 1.247 . S
C391 O388 1.244 . S
C391 O389 1.240 . S
H392 C366 0.931 . S
H393 C375 0.931 . S
H394 C379 0.929 . S
H395 C381 0.930 . S
C396 C397 1.387 . S
C396 H400 0.950 . S
C396 C405 1.390 . S
C397 C396 1.387 . S
C397 C399 1.387 . S
H398 C405 0.950 . S
C399 C397 1.387 . S
C399 C401 1.390 . S
C399 H403 0.950 . S
H400 C396 0.950 . S
C401 C399 1.390 . S
C401 C402 1.387 . S
C401 H404 0.950 . S
C402 C401 1.387 . S
C402 C405 1.387 . S
H403 C399 0.950 . S
H404 C401 0.950 . S
C405 C396 1.390 . S
C405 H398 0.950 . S
C405 C402 1.387 . S
C406 C407 1.387 . S
C406 H410 0.950 . S
C406 C415 1.390 . S
C407 C406 1.387 . S
C407 C409 1.387 . S
H408 C415 0.950 . S
C409 C407 1.387 . S
C409 C411 1.390 . S
C409 H413 0.950 . S
H410 C406 0.950 . S
C411 C409 1.390 . S
C411 C412 1.387 . S
C411 H414 0.950 . S
C412 C411 1.387 . S
C412 C415 1.387 . S
H413 C409 0.950 . S
H414 C411 0.950 . S
C415 C406 1.390 . S
C415 H408 0.950 . S
C415 C412 1.387 . S
C416 C417 1.387 1_556 S
C416 H420 0.950 1_556 S
C416 C425 1.390 . S
C417 C416 1.387 1_554 S
C417 C419 1.387 1_554 S
H418 C425 0.950 . S
C419 C417 1.387 1_556 S
C419 C421 1.390 . S
C419 H423 0.950 1_556 S
H420 C416 0.950 1_554 S
C421 C419 1.390 . S
C421 C422 1.387 . S
C421 H424 0.950 . S
C422 C421 1.387 . S
C422 C425 1.387 . S
H423 C419 0.950 1_554 S
H424 C421 0.950 . S
C425 C416 1.390 . S
C425 H418 0.950 . S
C425 C422 1.387 . S
C426 C427 1.387 . S
C426 H430 0.950 . S
C426 C435 1.390 . S
C427 C426 1.387 . S
C427 C429 1.387 . S
H428 C435 0.950 . S
C429 C427 1.387 . S
C429 C431 1.390 . S
C429 H433 0.950 . S
H430 C426 0.950 . S
C431 C429 1.390 . S
C431 C432 1.387 . S
C431 H434 0.950 . S
C432 C431 1.387 . S
C432 C435 1.387 . S
H433 C429 0.950 . S
H434 C431 0.950 . S
C435 C426 1.390 . S
C435 H428 0.950 . S
C435 C432 1.387 . S
C436 C437 1.387 . S
C436 H440 0.950 . S
C436 C445 1.390 . S
C437 C436 1.387 . S
C437 C439 1.387 . S
H438 C445 0.950 . S
C439 C437 1.387 . S
C439 C441 1.390 . S
C439 H443 0.950 . S
H440 C436 0.950 . S
C441 C439 1.390 . S
C441 C442 1.387 . S
C441 H444 0.950 . S
C442 C441 1.387 . S
C442 C445 1.387 . S
H443 C439 0.950 . S
H444 C441 0.950 . S
C445 C436 1.390 . S
C445 H438 0.950 . S
C445 C442 1.387 . S
C446 C447 1.387 . S
C446 H450 0.950 . S
C446 C455 1.390 . S
C447 C446 1.387 . S
C447 C449 1.387 . S
H448 C455 0.950 . S
C449 C447 1.387 . S
C449 C451 1.390 . S
C449 H453 0.950 . S
H450 C446 0.950 . S
C451 C449 1.390 . S
C451 C452 1.387 . S
C451 H454 0.950 . S
C452 C451 1.387 . S
C452 C455 1.387 . S
H453 C449 0.950 . S
H454 C451 0.950 . S
C455 C446 1.390 . S
C455 H448 0.950 . S
C455 C452 1.387 . S
C456 C457 1.387 . S
C456 H460 0.950 . S
C456 C465 1.390 . S
C457 C456 1.387 . S
C457 C459 1.387 . S
H458 C465 0.950 . S
C459 C457 1.387 . S
C459 C461 1.390 . S
C459 H463 0.950 . S
H460 C456 0.950 . S
C461 C459 1.390 . S
C461 C462 1.387 . S
C461 H464 0.950 . S
C462 C461 1.387 . S
C462 C465 1.387 . S
H463 C459 0.950 . S
H464 C461 0.950 . S
C465 C456 1.390 . S
C465 H458 0.950 . S
C465 C462 1.387 . S
C466 C467 1.387 . S
C466 H470 0.950 . S
C466 C475 1.390 . S
C467 C466 1.387 . S
C467 C469 1.387 . S
H468 C475 0.950 . S
C469 C467 1.387 . S
C469 C471 1.390 . S
C469 H473 0.950 . S
H470 C466 0.950 . S
C471 C469 1.390 . S
C471 C472 1.387 . S
C471 H474 0.950 . S
C472 C471 1.387 . S
C472 C475 1.387 . S
H473 C469 0.950 . S
H474 C471 0.950 . S
C475 C466 1.390 . S
C475 H468 0.950 . S
C475 C472 1.387 . S
C476 C477 1.387 . S
C476 H480 0.950 . S
C476 C485 1.390 . S
C477 C476 1.387 . S
C477 C479 1.387 . S
H478 C485 0.950 . S
C479 C477 1.387 . S
C479 C481 1.390 . S
C479 H483 0.950 . S
H480 C476 0.950 . S
C481 C479 1.390 . S
C481 C482 1.387 . S
C481 H484 0.950 . S
C482 C481 1.387 . S
C482 C485 1.387 . S
H483 C479 0.950 . S
H484 C481 0.950 . S
C485 C476 1.390 . S
C485 H478 0.950 . S
C485 C482 1.387 . S
C486 C487 1.387 . S
C486 H490 0.950 . S
C486 C495 1.390 . S
C487 C486 1.387 . S
C487 C489 1.387 . S
H488 C495 0.950 . S
C489 C487 1.387 . S
C489 C491 1.390 . S
C489 H493 0.950 . S
H490 C486 0.950 . S
C491 C489 1.390 . S
C491 C492 1.387 . S
C491 H494 0.950 . S
C492 C491 1.387 . S
C492 C495 1.387 . S
H493 C489 0.950 . S
H494 C491 0.950 . S
C495 C486 1.390 . S
C495 H488 0.950 . S
C495 C492 1.387 . S
C496 C497 1.387 1_556 S
C496 H500 0.950 1_556 S
C496 C505 1.390 . S
C497 C496 1.387 1_554 S
C497 C499 1.387 1_554 S
H498 C505 0.950 . S
C499 C497 1.387 1_556 S
C499 C501 1.390 . S
C499 H503 0.950 . S
H500 C496 0.950 1_554 S
C501 C499 1.390 . S
C501 C502 1.387 . S
C501 H504 0.950 . S
C502 C501 1.387 . S
C502 C505 1.387 . S
H503 C499 0.950 . S
H504 C501 0.950 . S
C505 C496 1.390 . S
C505 H498 0.950 . S
C505 C502 1.387 . S
C506 C507 1.387 1_554 S
C506 H510 0.950 1_554 S
C506 C515 1.390 . S
C507 C506 1.387 1_556 S
C507 C509 1.387 1_556 S
H508 C515 0.950 . S
C509 C507 1.387 1_554 S
C509 C511 1.390 . S
C509 H513 0.950 . S
H510 C506 0.950 1_556 S
C511 C509 1.390 . S
C511 C512 1.387 . S
C511 H514 0.950 . S
C512 C511 1.387 . S
C512 C515 1.387 . S
H513 C509 0.950 . S
H514 C511 0.950 . S
C515 C506 1.390 . S
C515 H508 0.950 . S
C515 C512 1.387 . S
C516 C517 1.387 . S
C516 H520 0.950 . S
C516 C525 1.390 . S
C517 C516 1.387 . S
C517 C519 1.387 . S
H518 C525 0.950 1_554 S
C519 C517 1.387 . S
C519 C521 1.390 . S
C519 H523 0.950 . S
H520 C516 0.950 . S
C521 C519 1.390 . S
C521 C522 1.387 . S
C521 H524 0.950 . S
C522 C521 1.387 . S
C522 C525 1.387 . S
H523 C519 0.950 . S
H524 C521 0.950 . S
C525 C516 1.390 . S
C525 H518 0.950 1_556 S
C525 C522 1.387 . S
C526 C527 1.387 . S
C526 H530 0.950 . S
C526 C535 1.390 . S
C527 C526 1.387 . S
C527 C529 1.387 . S
H528 C535 0.950 . S
C529 C527 1.387 . S
C529 C531 1.390 1_554 S
C529 H533 0.950 . S
H530 C526 0.950 . S
C531 C529 1.390 1_556 S
C531 C532 1.387 1_556 S
C531 H534 0.950 . S
C532 C531 1.387 1_554 S
C532 C535 1.387 . S
H533 C529 0.950 . S
H534 C531 0.950 . S
C535 C526 1.390 . S
C535 H528 0.950 . S
C535 C532 1.387 . S
C536 C537 1.387 . S
C536 H540 0.950 . S
C536 C545 1.390 . S
C537 C536 1.387 . S
C537 C539 1.387 . S
H538 C545 0.950 . S
C539 C537 1.387 . S
C539 C541 1.390 . S
C539 H543 0.950 . S
H540 C536 0.950 . S
C541 C539 1.390 . S
C541 C542 1.387 . S
C541 H544 0.950 . S
C542 C541 1.387 . S
C542 C545 1.387 . S
H543 C539 0.950 . S
H544 C541 0.950 . S
C545 C536 1.390 . S
C545 H538 0.950 . S
C545 C542 1.387 . S
C546 C547 1.387 . S
C546 H550 0.950 . S
C546 C555 1.390 . S
C547 C546 1.387 . S
C547 C549 1.387 . S
H548 C555 0.950 . S
C549 C547 1.387 . S
C549 C551 1.390 . S
C549 H553 0.950 . S
H550 C546 0.950 . S
C551 C549 1.390 . S
C551 C552 1.387 . S
C551 H554 0.950 . S
C552 C551 1.387 . S
C552 C555 1.387 . S
H553 C549 0.950 . S
H554 C551 0.950 . S
C555 C546 1.390 . S
C555 H548 0.950 . S
C555 C552 1.387 . S
C556 C557 1.387 . S
C556 H560 0.950 . S
C556 C565 1.390 . S
C557 C556 1.387 . S
C557 C559 1.387 . S
H558 C565 0.950 . S
C559 C557 1.387 . S
C559 C561 1.390 . S
C559 H563 0.950 . S
H560 C556 0.950 . S
C561 C559 1.390 . S
C561 C562 1.387 . S
C561 H564 0.950 . S
C562 C561 1.387 . S
C562 C565 1.387 . S
H563 C559 0.950 . S
H564 C561 0.950 . S
C565 C556 1.390 . S
C565 H558 0.950 . S
C565 C562 1.387 . S
C566 C567 1.387 . S
C566 H570 0.950 . S
C566 C575 1.390 . S
C567 C566 1.387 . S
C567 C569 1.387 . S
H568 C575 0.950 . S
C569 C567 1.387 . S
C569 C571 1.390 . S
C569 H573 0.950 . S
H570 C566 0.950 . S
C571 C569 1.390 . S
C571 C572 1.387 . S
C571 H574 0.950 . S
C572 C571 1.387 . S
C572 C575 1.387 . S
H573 C569 0.950 . S
H574 C571 0.950 . S
C575 C566 1.390 . S
C575 H568 0.950 . S
C575 C572 1.387 . S
C576 C577 1.387 . S
C576 H580 0.950 . S
C576 C585 1.390 . S
C577 C576 1.387 . S
C577 C579 1.387 . S
H578 C585 0.950 . S
C579 C577 1.387 . S
C579 C581 1.390 . S
C579 H583 0.950 . S
H580 C576 0.950 . S
C581 C579 1.390 . S
C581 C582 1.387 . S
C581 H584 0.950 . S
C582 C581 1.387 . S
C582 C585 1.387 . S
H583 C579 0.950 . S
H584 C581 0.950 . S
C585 C576 1.390 . S
C585 H578 0.950 . S
C585 C582 1.387 . S
C586 C587 1.387 . S
C586 H590 0.950 . S
C586 C595 1.390 . S
C587 C586 1.387 . S
C587 C589 1.387 . S
H588 C595 0.950 . S
C589 C587 1.387 . S
C589 C591 1.390 . S
C589 H593 0.950 . S
H590 C586 0.950 . S
C591 C589 1.390 . S
C591 C592 1.387 . S
C591 H594 0.950 . S
C592 C591 1.387 . S
C592 C595 1.387 . S
H593 C589 0.950 . S
H594 C591 0.950 . S
C595 C586 1.390 . S
C595 H588 0.950 . S
C595 C592 1.387 . S
C596 C597 1.387 . S
C596 H600 0.950 . S
C596 C605 1.390 . S
C597 C596 1.387 . S
C597 C599 1.387 . S
H598 C605 0.950 . S
C599 C597 1.387 . S
C599 C601 1.390 . S
C599 H603 0.950 . S
H600 C596 0.950 . S
C601 C599 1.390 . S
C601 C602 1.387 . S
C601 H604 0.950 . S
C602 C601 1.387 . S
C602 C605 1.387 . S
H603 C599 0.950 . S
H604 C601 0.950 . S
C605 C596 1.390 . S
C605 H598 0.950 . S
C605 C602 1.387 . S
C606 C607 1.387 . S
C606 H610 0.950 . S
C606 C615 1.390 . S
C607 C606 1.387 . S
C607 C609 1.387 . S
H608 C615 0.950 . S
C609 C607 1.387 . S
C609 C611 1.390 . S
C609 H613 0.950 . S
H610 C606 0.950 . S
C611 C609 1.390 . S
C611 C612 1.387 . S
C611 H614 0.950 . S
C612 C611 1.387 . S
C612 C615 1.387 . S
H613 C609 0.950 . S
H614 C611 0.950 . S
C615 C606 1.390 . S
C615 H608 0.950 . S
C615 C612 1.387 . S
C616 C617 1.387 . S
C616 H620 0.950 1_556 S
C616 C625 1.390 . S
C617 C616 1.387 . S
C617 C619 1.387 . S
H618 C625 0.950 . S
C619 C617 1.387 . S
C619 C621 1.390 . S
C619 H623 0.950 . S
H620 C616 0.950 1_554 S
C621 C619 1.390 . S
C621 C622 1.387 . S
C621 H624 0.950 . S
C622 C621 1.387 . S
C622 C625 1.387 . S
H623 C619 0.950 . S
H624 C621 0.950 . S
C625 C616 1.390 . S
C625 H618 0.950 . S
C625 C622 1.387 . S
C626 C627 1.387 . S
C626 H630 0.950 . S
C626 C635 1.390 . S
C627 C626 1.387 . S
C627 C629 1.387 . S
H628 C635 0.950 . S
C629 C627 1.387 . S
C629 C631 1.390 . S
C629 H633 0.950 . S
H630 C626 0.950 . S
C631 C629 1.390 . S
C631 C632 1.387 . S
C631 H634 0.950 1_554 S
C632 C631 1.387 . S
C632 C635 1.387 . S
H633 C629 0.950 . S
H634 C631 0.950 1_556 S
C635 C626 1.390 . S
C635 H628 0.950 . S
C635 C632 1.387 . S
C636 C637 1.387 . S
C636 H640 0.950 . S
C636 C645 1.390 . S
C637 C636 1.387 . S
C637 C639 1.387 . S
H638 C645 0.950 . S
C639 C637 1.387 . S
C639 C641 1.390 . S
C639 H643 0.950 . S
H640 C636 0.950 . S
C641 C639 1.390 . S
C641 C642 1.387 . S
C641 H644 0.950 . S
C642 C641 1.387 . S
C642 C645 1.387 . S
H643 C639 0.950 . S
H644 C641 0.950 . S
C645 C636 1.390 . S
C645 H638 0.950 . S
C645 C642 1.387 . S
C646 C647 1.387 . S
C646 H650 0.950 . S
C646 C655 1.390 1_655 S
C647 C646 1.387 . S
C647 C649 1.387 . S
H648 C655 0.950 . S
C649 C647 1.387 . S
C649 C651 1.390 1_655 S
C649 H653 0.950 . S
H650 C646 0.950 . S
C651 C649 1.390 1_455 S
C651 C652 1.387 . S
C651 H654 0.950 . S
C652 C651 1.387 . S
C652 C655 1.387 . S
H653 C649 0.950 . S
H654 C651 0.950 . S
C655 C646 1.390 1_455 S
C655 H648 0.950 . S
C655 C652 1.387 . S
C656 C657 1.387 . S
C656 H660 0.950 . S
C656 C665 1.390 1_545 S
C657 C656 1.387 . S
C657 C659 1.387 . S
H658 C665 0.950 . S
C659 C657 1.387 . S
C659 C661 1.390 1_545 S
C659 H663 0.950 . S
H660 C656 0.950 . S
C661 C659 1.390 1_565 S
C661 C662 1.387 . S
C661 H664 0.950 . S
C662 C661 1.387 . S
C662 C665 1.387 . S
H663 C659 0.950 . S
H664 C661 0.950 . S
C665 C656 1.390 1_565 S
C665 H658 0.950 . S
C665 C662 1.387 . S
C666 C667 1.387 . S
C666 H670 0.950 . S
C666 C675 1.390 . S
C667 C666 1.387 . S
C667 C669 1.387 . S
H668 C675 0.950 . S
C669 C667 1.387 . S
C669 C671 1.390 . S
C669 H673 0.950 . S
H670 C666 0.950 . S
C671 C669 1.390 . S
C671 C672 1.387 . S
C671 H674 0.950 . S
C672 C671 1.387 . S
C672 C675 1.387 . S
H673 C669 0.950 . S
H674 C671 0.950 . S
C675 C666 1.390 . S
C675 H668 0.950 . S
C675 C672 1.387 . S
C676 C677 1.387 . S
C676 H680 0.950 . S
C676 C685 1.390 1_455 S
C677 C676 1.387 . S
C677 C679 1.387 . S
H678 C685 0.950 . S
C679 C677 1.387 . S
C679 C681 1.390 1_455 S
C679 H683 0.950 . S
H680 C676 0.950 . S
C681 C679 1.390 1_655 S
C681 C682 1.387 . S
C681 H684 0.950 . S
C682 C681 1.387 . S
C682 C685 1.387 . S
H683 C679 0.950 . S
H684 C681 0.950 . S
C685 C676 1.390 1_655 S
C685 H678 0.950 . S
C685 C682 1.387 . S
C686 C687 1.387 . S
C686 H690 0.950 . S
C686 C695 1.390 1_546 S
C687 C686 1.387 . S
C687 C689 1.387 . S
H688 C695 0.950 . S
C689 C687 1.387 . S
C689 C691 1.390 1_546 S
C689 H693 0.950 . S
H690 C686 0.950 . S
C691 C689 1.390 1_564 S
C691 C692 1.387 . S
C691 H694 0.950 . S
C692 C691 1.387 . S
C692 C695 1.387 . S
H693 C689 0.950 . S
H694 C691 0.950 . S
C695 C686 1.390 1_564 S
C695 H688 0.950 . S
C695 C692 1.387 . S
C397 N5 1.400 . S
C402 N14 1.401 . S
C407 N47 1.401 . S
C412 N38 1.400 . S
C417 N80 1.401 . S
C422 N71 1.400 . S
C427 N104 1.400 1_554 S
C432 N113 1.401 . S
C437 N137 1.401 . S
C442 N146 1.401 . S
C447 N179 1.401 . S
C452 N170 1.400 . S
C457 N203 1.400 . S
C462 N212 1.401 . S
C467 N236 1.400 . S
C472 N245 1.401 . S
C477 N278 1.401 . S
C482 N269 1.400 . S
C487 N302 1.400 . S
C492 N311 1.401 . S
C497 N335 1.401 . S
C502 N344 1.401 . S
C507 N377 1.401 . S
C512 N368 1.400 . S
C517 C206 1.546 . S
C522 C8 1.547 1_556 S
C527 C41 1.548 . S
C532 C239 1.547 1_554 S
C537 C272 1.547 . S
C542 C74 1.547 . S
C547 C305 1.548 . S
C552 C107 1.547 . S
C557 C338 1.546 . S
C562 C140 1.548 . S
C567 C371 1.546 . S
C572 C173 1.546 . S
C577 C28 1.265 . S
C582 C358 1.265 . S
C587 C61 1.265 . S
C592 C391 1.265 . S
C597 C94 1.266 . S
C602 C226 1.267 . S
C607 C259 1.265 . S
C612 C127 1.265 . S
C617 C292 1.265 1_556 S
C622 C160 1.266 . S
C627 C325 1.265 . S
C632 C193 1.265 1_554 S
C637 C17 1.557 . S
C642 C314 1.556 . S
C647 C50 1.557 . S
C652 C347 1.558 . S
C657 C380 1.558 . S
C662 C83 1.558 . S
C667 C116 1.558 . S
C672 C215 1.557 . S
C677 C149 1.558 . S
C682 C248 1.556 . S
C687 C182 1.556 . S
C692 C281 1.556 . S
