# Generated by pormake.
# Topology pcu-g, (3)-cn, num edge types: 1
# Building blocks:
#     Node 0, Type 0, BuildingBlock: OLANEW_clean_sbu_2, # of connection points: 3
#     Node 1, Type 0, BuildingBlock: OLANEW_clean_sbu_2, # of connection points: 3
#     Node 2, Type 0, BuildingBlock: OLANEW_clean_sbu_2, # of connection points: 3
#     Node 3, Type 0, BuildingBlock: OLANEW_clean_sbu_2, # of connection points: 3
#     Node 4, Type 0, BuildingBlock: OLANEW_clean_sbu_2, # of connection points: 3
#     Node 5, Type 0, BuildingBlock: OLANEW_clean_sbu_2, # of connection points: 3
#     Node 6, Type 0, BuildingBlock: OLANEW_clean_sbu_2, # of connection points: 3
#     Node 7, Type 0, BuildingBlock: OLANEW_clean_sbu_2, # of connection points: 3
#     Node 8, Type 0, BuildingBlock: OLANEW_clean_sbu_2, # of connection points: 3
#     Node 9, Type 0, BuildingBlock: OLANEW_clean_sbu_2, # of connection points: 3
#     Node 10, Type 0, BuildingBlock: OLANEW_clean_sbu_2, # of connection points: 3
#     Node 11, Type 0, BuildingBlock: OLANEW_clean_sbu_2, # of connection points: 3
#     Node 12, Type 0, BuildingBlock: OLANEW_clean_sbu_2, # of connection points: 3
#     Node 13, Type 0, BuildingBlock: OLANEW_clean_sbu_2, # of connection points: 3
#     Node 14, Type 0, BuildingBlock: OLANEW_clean_sbu_2, # of connection points: 3
#     Node 15, Type 0, BuildingBlock: OLANEW_clean_sbu_2, # of connection points: 3
#     Node 16, Type 0, BuildingBlock: OLANEW_clean_sbu_2, # of connection points: 3
#     Node 17, Type 0, BuildingBlock: OLANEW_clean_sbu_2, # of connection points: 3
#     Node 18, Type 0, BuildingBlock: OLANEW_clean_sbu_2, # of connection points: 3
#     Node 19, Type 0, BuildingBlock: OLANEW_clean_sbu_2, # of connection points: 3
#     Node 20, Type 0, BuildingBlock: OLANEW_clean_sbu_2, # of connection points: 3
#     Node 21, Type 0, BuildingBlock: OLANEW_clean_sbu_2, # of connection points: 3
#     Node 22, Type 0, BuildingBlock: OLANEW_clean_sbu_2, # of connection points: 3
#     Node 23, Type 0, BuildingBlock: OLANEW_clean_sbu_2, # of connection points: 3
#     Node 24, Type 0, BuildingBlock: OLANEW_clean_sbu_2, # of connection points: 3
#     Node 25, Type 0, BuildingBlock: OLANEW_clean_sbu_2, # of connection points: 3
#     Node 26, Type 0, BuildingBlock: OLANEW_clean_sbu_2, # of connection points: 3
#     Node 27, Type 0, BuildingBlock: OLANEW_clean_sbu_2, # of connection points: 3
#     Node 28, Type 0, BuildingBlock: OLANEW_clean_sbu_2, # of connection points: 3
#     Node 29, Type 0, BuildingBlock: OLANEW_clean_sbu_2, # of connection points: 3
#     Node 30, Type 0, BuildingBlock: OLANEW_clean_sbu_2, # of connection points: 3
#     Node 31, Type 0, BuildingBlock: OLANEW_clean_sbu_2, # of connection points: 3
#     Node 32, Type 0, BuildingBlock: OLANEW_clean_sbu_2, # of connection points: 3
#     Node 33, Type 0, BuildingBlock: OLANEW_clean_sbu_2, # of connection points: 3
#     Node 34, Type 0, BuildingBlock: OLANEW_clean_sbu_2, # of connection points: 3
#     Node 35, Type 0, BuildingBlock: OLANEW_clean_sbu_2, # of connection points: 3
#     Node 36, Type 0, BuildingBlock: OLANEW_clean_sbu_2, # of connection points: 3
#     Node 37, Type 0, BuildingBlock: OLANEW_clean_sbu_2, # of connection points: 3
#     Node 38, Type 0, BuildingBlock: OLANEW_clean_sbu_2, # of connection points: 3
#     Node 39, Type 0, BuildingBlock: OLANEW_clean_sbu_2, # of connection points: 3
#     Node 40, Type 0, BuildingBlock: OLANEW_clean_sbu_2, # of connection points: 3
#     Node 41, Type 0, BuildingBlock: OLANEW_clean_sbu_2, # of connection points: 3
#     Node 42, Type 0, BuildingBlock: OLANEW_clean_sbu_2, # of connection points: 3
#     Node 43, Type 0, BuildingBlock: OLANEW_clean_sbu_2, # of connection points: 3
#     Node 44, Type 0, BuildingBlock: OLANEW_clean_sbu_2, # of connection points: 3
#     Node 45, Type 0, BuildingBlock: OLANEW_clean_sbu_2, # of connection points: 3
#     Node 46, Type 0, BuildingBlock: OLANEW_clean_sbu_2, # of connection points: 3
#     Node 47, Type 0, BuildingBlock: OLANEW_clean_sbu_2, # of connection points: 3
#     Edge 48, Type (0, 0), BuildingBlock: ZUJKAS_clean_linker_0, # of connection points: 2
#     Edge 49, Type (0, 0), BuildingBlock: ZUJKAS_clean_linker_0, # of connection points: 2
#     Edge 50, Type (0, 0), BuildingBlock: ZUJKAS_clean_linker_0, # of connection points: 2
#     Edge 51, Type (0, 0), BuildingBlock: ZUJKAS_clean_linker_0, # of connection points: 2
#     Edge 52, Type (0, 0), BuildingBlock: ZUJKAS_clean_linker_0, # of connection points: 2
#     Edge 53, Type (0, 0), BuildingBlock: ZUJKAS_clean_linker_0, # of connection points: 2
#     Edge 54, Type (0, 0), BuildingBlock: ZUJKAS_clean_linker_0, # of connection points: 2
#     Edge 55, Type (0, 0), BuildingBlock: ZUJKAS_clean_linker_0, # of connection points: 2
#     Edge 56, Type (0, 0), BuildingBlock: ZUJKAS_clean_linker_0, # of connection points: 2
#     Edge 57, Type (0, 0), BuildingBlock: ZUJKAS_clean_linker_0, # of connection points: 2
#     Edge 58, Type (0, 0), BuildingBlock: ZUJKAS_clean_linker_0, # of connection points: 2
#     Edge 59, Type (0, 0), BuildingBlock: ZUJKAS_clean_linker_0, # of connection points: 2
#     Edge 60, Type (0, 0), BuildingBlock: ZUJKAS_clean_linker_0, # of connection points: 2
#     Edge 61, Type (0, 0), BuildingBlock: ZUJKAS_clean_linker_0, # of connection points: 2
#     Edge 62, Type (0, 0), BuildingBlock: ZUJKAS_clean_linker_0, # of connection points: 2
#     Edge 63, Type (0, 0), BuildingBlock: ZUJKAS_clean_linker_0, # of connection points: 2
#     Edge 64, Type (0, 0), BuildingBlock: ZUJKAS_clean_linker_0, # of connection points: 2
#     Edge 65, Type (0, 0), BuildingBlock: ZUJKAS_clean_linker_0, # of connection points: 2
#     Edge 66, Type (0, 0), BuildingBlock: ZUJKAS_clean_linker_0, # of connection points: 2
#     Edge 67, Type (0, 0), BuildingBlock: ZUJKAS_clean_linker_0, # of connection points: 2
#     Edge 68, Type (0, 0), BuildingBlock: ZUJKAS_clean_linker_0, # of connection points: 2
#     Edge 69, Type (0, 0), BuildingBlock: ZUJKAS_clean_linker_0, # of connection points: 2
#     Edge 70, Type (0, 0), BuildingBlock: ZUJKAS_clean_linker_0, # of connection points: 2
#     Edge 71, Type (0, 0), BuildingBlock: ZUJKAS_clean_linker_0, # of connection points: 2
#     Edge 72, Type (0, 0), BuildingBlock: ZUJKAS_clean_linker_0, # of connection points: 2
#     Edge 73, Type (0, 0), BuildingBlock: ZUJKAS_clean_linker_0, # of connection points: 2
#     Edge 74, Type (0, 0), BuildingBlock: ZUJKAS_clean_linker_0, # of connection points: 2
#     Edge 75, Type (0, 0), BuildingBlock: ZUJKAS_clean_linker_0, # of connection points: 2
#     Edge 76, Type (0, 0), BuildingBlock: ZUJKAS_clean_linker_0, # of connection points: 2
#     Edge 77, Type (0, 0), BuildingBlock: ZUJKAS_clean_linker_0, # of connection points: 2
#     Edge 78, Type (0, 0), BuildingBlock: ZUJKAS_clean_linker_0, # of connection points: 2
#     Edge 79, Type (0, 0), BuildingBlock: ZUJKAS_clean_linker_0, # of connection points: 2
#     Edge 80, Type (0, 0), BuildingBlock: ZUJKAS_clean_linker_0, # of connection points: 2
#     Edge 81, Type (0, 0), BuildingBlock: ZUJKAS_clean_linker_0, # of connection points: 2
#     Edge 82, Type (0, 0), BuildingBlock: ZUJKAS_clean_linker_0, # of connection points: 2
#     Edge 83, Type (0, 0), BuildingBlock: ZUJKAS_clean_linker_0, # of connection points: 2
#     Edge 84, Type (0, 0), BuildingBlock: ZUJKAS_clean_linker_0, # of connection points: 2
#     Edge 85, Type (0, 0), BuildingBlock: ZUJKAS_clean_linker_0, # of connection points: 2
#     Edge 86, Type (0, 0), BuildingBlock: ZUJKAS_clean_linker_0, # of connection points: 2
#     Edge 87, Type (0, 0), BuildingBlock: ZUJKAS_clean_linker_0, # of connection points: 2
#     Edge 88, Type (0, 0), BuildingBlock: ZUJKAS_clean_linker_0, # of connection points: 2
#     Edge 89, Type (0, 0), BuildingBlock: ZUJKAS_clean_linker_0, # of connection points: 2
#     Edge 90, Type (0, 0), BuildingBlock: ZUJKAS_clean_linker_0, # of connection points: 2
#     Edge 91, Type (0, 0), BuildingBlock: ZUJKAS_clean_linker_0, # of connection points: 2
#     Edge 92, Type (0, 0), BuildingBlock: ZUJKAS_clean_linker_0, # of connection points: 2
#     Edge 93, Type (0, 0), BuildingBlock: ZUJKAS_clean_linker_0, # of connection points: 2
#     Edge 94, Type (0, 0), BuildingBlock: ZUJKAS_clean_linker_0, # of connection points: 2
#     Edge 95, Type (0, 0), BuildingBlock: ZUJKAS_clean_linker_0, # of connection points: 2
#     Edge 96, Type (0, 0), BuildingBlock: ZUJKAS_clean_linker_0, # of connection points: 2
#     Edge 97, Type (0, 0), BuildingBlock: ZUJKAS_clean_linker_0, # of connection points: 2
#     Edge 98, Type (0, 0), BuildingBlock: ZUJKAS_clean_linker_0, # of connection points: 2
#     Edge 99, Type (0, 0), BuildingBlock: ZUJKAS_clean_linker_0, # of connection points: 2
#     Edge 100, Type (0, 0), BuildingBlock: ZUJKAS_clean_linker_0, # of connection points: 2
#     Edge 101, Type (0, 0), BuildingBlock: ZUJKAS_clean_linker_0, # of connection points: 2
#     Edge 102, Type (0, 0), BuildingBlock: ZUJKAS_clean_linker_0, # of connection points: 2
#     Edge 103, Type (0, 0), BuildingBlock: ZUJKAS_clean_linker_0, # of connection points: 2
#     Edge 104, Type (0, 0), BuildingBlock: ZUJKAS_clean_linker_0, # of connection points: 2
#     Edge 105, Type (0, 0), BuildingBlock: ZUJKAS_clean_linker_0, # of connection points: 2
#     Edge 106, Type (0, 0), BuildingBlock: ZUJKAS_clean_linker_0, # of connection points: 2
#     Edge 107, Type (0, 0), BuildingBlock: ZUJKAS_clean_linker_0, # of connection points: 2
#     Edge 108, Type (0, 0), BuildingBlock: ZUJKAS_clean_linker_0, # of connection points: 2
#     Edge 109, Type (0, 0), BuildingBlock: ZUJKAS_clean_linker_0, # of connection points: 2
#     Edge 110, Type (0, 0), BuildingBlock: ZUJKAS_clean_linker_0, # of connection points: 2
#     Edge 111, Type (0, 0), BuildingBlock: ZUJKAS_clean_linker_0, # of connection points: 2
#     Edge 112, Type (0, 0), BuildingBlock: ZUJKAS_clean_linker_0, # of connection points: 2
#     Edge 113, Type (0, 0), BuildingBlock: ZUJKAS_clean_linker_0, # of connection points: 2
#     Edge 114, Type (0, 0), BuildingBlock: ZUJKAS_clean_linker_0, # of connection points: 2
#     Edge 115, Type (0, 0), BuildingBlock: ZUJKAS_clean_linker_0, # of connection points: 2
#     Edge 116, Type (0, 0), BuildingBlock: ZUJKAS_clean_linker_0, # of connection points: 2
#     Edge 117, Type (0, 0), BuildingBlock: ZUJKAS_clean_linker_0, # of connection points: 2
#     Edge 118, Type (0, 0), BuildingBlock: ZUJKAS_clean_linker_0, # of connection points: 2
#     Edge 119, Type (0, 0), BuildingBlock: ZUJKAS_clean_linker_0, # of connection points: 2
# Relax obj value: 0.006
# Max RMSD: 0.087
# Mean RMSD: 0.070
data_MOF--net-pcu-g--node1-OLANEW_clean_sbu_2--edge1-ZUJKAS_clean_linker_0
_symmetry_space_group_name_H-M    P1
_symmetry_Int_Tables_number       1
_symmetry_cell_setting            triclinic
loop_
_symmetry_equiv_pos_as_xyz
'x, y, z'
_cell_length_a     106.60733
_cell_length_b     111.01919
_cell_length_c     113.18871
_cell_angle_alpha  87.668255
_cell_angle_beta   89.970694
_cell_angle_gamma 90.017406
loop_
_atom_site_label
_atom_site_type_symbol
_atom_site_fract_x
_atom_site_fract_y
_atom_site_fract_z
_atom_type_partial_charge
O0 O 0.0328 0.16714 0.44351 0.0
Cd1 Cd 0.01664 0.16984 0.4283 0.0
O2 O 0.04417 0.15491 0.43307 0.0
Cd3 Cd 0.03072 0.15429 0.41856 0.0
O4 O 0.01758 0.14679 0.40601 0.0
C5 C 0.01948 0.13595 0.40328 0.0
O6 O 0.02921 0.13019 0.40786 0.0
C7 C 0.04254 0.16067 0.44244 0.0
C8 C 0.00649 0.19303 0.42772 0.0
O9 O 0.00193 0.18463 0.43454 0.0
O10 O 0.01586 0.19046 0.42118 0.0
O11 O 0.9625 0.34892 0.40798 0.0
Cd12 Cd 0.94671 0.33679 0.41868 0.0
O13 O 0.97185 0.35434 0.42425 0.0
Cd14 Cd 0.95624 0.34835 0.43551 0.0
O15 O 0.93913 0.35201 0.44538 0.0
C16 C 0.92957 0.3556 0.43954 0.0
O17 O 0.93019 0.3562 0.42793 0.0
C18 C 0.97151 0.35419 0.41302 0.0
C19 C 0.95498 0.31297 0.42129 0.0
O20 O 0.94872 0.31662 0.41217 0.0
O21 O 0.95718 0.32055 0.42929 0.0
O22 O 0.02801 0.82809 0.02416 0.0
Cd23 Cd 0.00923 0.82692 0.0366 0.0
O24 O 0.04033 0.83311 0.03874 0.0
Cd25 Cd 0.02481 0.8349 0.0511 0.0
O26 O 0.01135 0.84524 0.0611 0.0
C27 C 0.0056 0.85368 0.05545 0.0
O28 O 0.00754 0.85519 0.04402 0.0
C29 C 0.03889 0.83062 0.02796 0.0
C30 C 0.00157 0.8032 0.04141 0.0
O31 O -0.00259 0.80925 0.03235 0.0
O32 O 0.00937 0.80837 0.04817 0.0
O33 O 0.97072 0.64561 0.08134 0.0
Cd34 Cd 0.95344 0.65775 0.07308 0.0
O35 O 0.97757 0.6408 0.06381 0.0
Cd36 Cd 0.96106 0.64794 0.05453 0.0
O37 O 0.94322 0.64645 0.04522 0.0
C38 C 0.93354 0.64325 0.05111 0.0
O39 O 0.93446 0.64171 0.06265 0.0
C40 C 0.9788 0.64046 0.075 0.0
C41 C 0.96102 0.68141 0.06769 0.0
O42 O 0.95651 0.67837 0.07788 0.0
O43 O 0.9619 0.67327 0.06003 0.0
O44 O 0.44433 0.02935 0.15147 0.0
Cd45 Cd 0.43617 0.01178 0.1627 0.0
O46 O 0.42927 0.02621 0.13889 0.0
Cd47 Cd 0.41812 0.02749 0.12266 0.0
O48 O 0.40488 0.02231 0.10905 0.0
C49 C 0.40808 0.02178 0.09827 0.0
O50 O 0.41952 0.02496 0.09512 0.0
C51 C 0.43876 0.03236 0.14187 0.0
C52 C 0.44638 0.00877 0.18529 0.0
O53 O 0.45172 0.00422 0.17635 0.0
O54 O 0.43629 0.01485 0.1835 0.0
O55 O 0.56591 0.47238 0.14528 0.0
Cd56 Cd 0.55279 0.45839 0.15705 0.0
O57 O 0.57217 0.45899 0.13275 0.0
Cd58 Cd 0.56024 0.44442 0.13985 0.0
O59 O 0.54794 0.42872 0.13908 0.0
C60 C 0.53731 0.4302 0.13417 0.0
O61 O 0.53398 0.4411 0.13046 0.0
C62 C 0.57248 0.46966 0.1364 0.0
C63 C 0.54956 0.46714 0.17962 0.0
O64 O 0.55876 0.4602 0.17729 0.0
O65 O 0.54175 0.46979 0.17131 0.0
O66 O 0.4989 0.96797 0.33637 0.0
Cd67 Cd 0.50148 0.98804 0.32702 0.0
O68 O 0.48394 0.97503 0.34735 0.0
Cd69 Cd 0.47009 0.97572 0.36161 0.0
O70 O 0.45555 0.98073 0.37413 0.0
C71 C 0.45831 0.98295 0.38474 0.0
O72 O 0.47001 0.9818 0.38825 0.0
C73 C 0.49078 0.96621 0.34449 0.0
C74 C 0.4924 0.98981 0.30392 0.0
O75 O 0.50372 0.98649 0.30608 0.0
O76 O 0.48536 0.99218 0.31271 0.0
O77 O 0.56008 0.50982 0.32876 0.0
Cd78 Cd 0.54815 0.52521 0.31758 0.0
O79 O 0.56167 0.5197 0.34515 0.0
Cd80 Cd 0.55032 0.53514 0.33914 0.0
O81 O 0.5381 0.55064 0.34161 0.0
C82 C 0.54273 0.55995 0.34613 0.0
O83 O 0.55481 0.56016 0.34844 0.0
C84 C 0.56407 0.51045 0.33929 0.0
C85 C 0.54583 0.51804 0.29433 0.0
O86 O 0.55513 0.52447 0.2975 0.0
O87 O 0.53746 0.51523 0.3021 0.0
O88 O 0.14125 0.38578 0.01471 0.0
Cd89 Cd 0.15525 0.39836 0.0261 0.0
O90 O 0.12566 0.38753 0.02727 0.0
Cd91 Cd 0.13504 0.39987 0.03894 0.0
O92 O 0.13621 0.41395 0.05183 0.0
C93 C 0.13043 0.41218 0.06158 0.0
O94 O 0.12468 0.40184 0.06362 0.0
C95 C 0.13008 0.38324 0.0179 0.0
C96 C 0.17852 0.40184 0.01514 0.0
O97 O 0.17652 0.39275 0.02224 0.0
O98 O 0.1695 0.40929 0.0132 0.0
O99 O 0.13678 0.60758 0.44425 0.0
Cd100 Cd 0.15102 0.59973 0.4295 0.0
O101 O 0.12921 0.58955 0.44877 0.0
Cd102 Cd 0.13792 0.58077 0.43394 0.0
O103 O 0.13791 0.56944 0.41863 0.0
C104 C 0.1286 0.5707 0.41168 0.0
O105 O 0.12017 0.57896 0.41384 0.0
C106 C 0.12977 0.60075 0.45067 0.0
C107 C 0.1738 0.59389 0.44041 0.0
O108 O 0.17191 0.60439 0.43561 0.0
O109 O 0.165 0.58607 0.43984 0.0
O110 O 0.82773 0.91757 0.47631 0.0
Cd111 Cd 0.81211 0.92607 0.46253 0.0
O112 O 0.84123 0.93229 0.47286 0.0
Cd113 Cd 0.83079 0.94114 0.45837 0.0
O114 O 0.83029 0.9515 0.44156 0.0
C115 C 0.8336 0.94634 0.43223 0.0
O116 O 0.83628 0.93478 0.43293 0.0
C117 C 0.83816 0.92258 0.47847 0.0
C118 C 0.78806 0.92299 0.47194 0.0
O119 O 0.79294 0.91505 0.46543 0.0
O120 O 0.79451 0.93245 0.47388 0.0
O121 O 0.32409 0.57645 0.51639 0.0
Cd122 Cd 0.30543 0.56639 0.52456 0.0
O123 O 0.3359 0.56424 0.52721 0.0
Cd124 Cd 0.35303 0.55668 0.53524 0.0
O125 O 0.36779 0.54711 0.54523 0.0
C126 C 0.3694 0.54939 0.55603 0.0
O127 O 0.36234 0.55763 0.56075 0.0
C128 C 0.33497 0.57295 0.5196 0.0
C129 C 0.28443 0.57062 0.51028 0.0
O130 O 0.28716 0.57764 0.51862 0.0
O131 O 0.29164 0.56159 0.5087 0.0
O132 O 0.97743 0.8224 0.57393 0.0
Cd133 Cd 0.96896 0.80697 0.56133 0.0
O134 O 0.96117 0.83302 0.56816 0.0
Cd135 Cd 0.94881 0.84859 0.56521 0.0
O136 O 0.93402 0.86024 0.55783 0.0
C137 C 0.93505 0.86403 0.54713 0.0
O138 O 0.94516 0.86122 0.54118 0.0
C139 C 0.97122 0.83216 0.57418 0.0
C140 C 0.97995 0.78431 0.56467 0.0
O141 O 0.98469 0.79226 0.55743 0.0
O142 O 0.97013 0.78717 0.57047 0.0
O143 O 0.04828 0.63692 0.55141 0.0
Cd144 Cd 0.03414 0.6387 0.56824 0.0
O145 O 0.03377 0.6297 0.53983 0.0
Cd146 Cd 0.02022 0.62715 0.55417 0.0
O147 O 0.00984 0.61649 0.56755 0.0
C148 C 0.01607 0.61156 0.57601 0.0
O149 O 0.02817 0.61369 0.57665 0.0
C150 C 0.04493 0.63339 0.54134 0.0
C151 C 0.02531 0.66228 0.56906 0.0
O152 O 0.03551 0.65907 0.57429 0.0
O153 O 0.0192 0.65429 0.56357 0.0
O154 O 0.97123 0.14284 0.92093 0.0
Cd155 Cd 0.96088 0.15394 0.93641 0.0
O156 O 0.95548 0.13036 0.9185 0.0
Cd157 Cd 0.94411 0.13634 0.93321 0.0
O158 O 0.93058 0.13263 0.94742 0.0
C159 C 0.93198 0.12275 0.95335 0.0
O160 O 0.94162 0.11588 0.95098 0.0
C161 C 0.96633 0.13418 0.91555 0.0
C162 C 0.96854 0.17803 0.93538 0.0
O163 O 0.97467 0.17001 0.94146 0.0
O164 O 0.95872 0.17468 0.92988 0.0
O165 O 0.03862 0.32793 0.93534 0.0
Cd166 Cd 0.02168 0.32416 0.92139 0.0
O167 O 0.0259 0.33455 0.94893 0.0
Cd168 Cd 0.0099 0.33577 0.93691 0.0
O169 O -0.00225 0.34698 0.92546 0.0
C170 C -0.00248 0.35804 0.92794 0.0
O171 O 0.00405 0.3615 0.93705 0.0
C172 C 0.03689 0.33168 0.94569 0.0
C173 C 0.01282 0.30053 0.92401 0.0
O174 O 0.02207 0.30319 0.91715 0.0
O175 O 0.00772 0.30906 0.92962 0.0
O176 O 0.57989 0.97673 0.83561 0.0
Cd177 Cd 0.56828 0.96176 0.82471 0.0
O178 O 0.59205 0.9634 0.84484 0.0
Cd179 Cd 0.58149 0.94802 0.83867 0.0
O180 O 0.56877 0.93261 0.84033 0.0
C181 C 0.55815 0.93443 0.84503 0.0
O182 O 0.55526 0.94541 0.84799 0.0
C183 C 0.58896 0.97432 0.84261 0.0
C184 C 0.56669 0.96883 0.8008 0.0
O185 O 0.5582 0.97183 0.80815 0.0
O186 O 0.57586 0.96238 0.80475 0.0
O187 O 0.39521 0.52311 0.82602 0.0
Cd188 Cd 0.40061 0.53782 0.81017 0.0
O189 O 0.40124 0.53676 0.83816 0.0
Cd190 Cd 0.40647 0.545 0.85469 0.0
O191 O 0.41521 0.55769 0.86644 0.0
C192 C 0.41897 0.55475 0.87681 0.0
O193 O 0.41729 0.54364 0.88094 0.0
C194 C 0.3968 0.52631 0.83657 0.0
C195 C 0.41152 0.52778 0.79045 0.0
O196 O 0.41828 0.53108 0.79911 0.0
O197 O 0.3996 0.52907 0.79121 0.0
O198 O 0.5834 0.00488 0.64453 0.0
Cd199 Cd 0.57156 0.01954 0.65562 0.0
O200 O 0.59563 0.0185 0.6358 0.0
Cd201 Cd 0.58475 0.03365 0.64203 0.0
O202 O 0.57162 0.0486 0.63932 0.0
C203 C 0.56038 0.04605 0.63664 0.0
O204 O 0.55708 0.03466 0.63641 0.0
C205 C 0.59258 0.00752 0.63772 0.0
C206 C 0.56921 0.01195 0.67933 0.0
O207 O 0.56094 0.00914 0.6717 0.0
O208 O 0.57854 0.01841 0.67576 0.0
O209 O 0.45869 0.49295 0.64316 0.0
Cd210 Cd 0.47207 0.48392 0.65866 0.0
O211 O 0.45736 0.47531 0.63537 0.0
Cd212 Cd 0.45295 0.46155 0.62269 0.0
O213 O 0.45344 0.44473 0.61334 0.0
C214 C 0.4504 0.44402 0.60254 0.0
O215 O 0.44649 0.45375 0.59665 0.0
C216 C 0.45443 0.48643 0.63511 0.0
C217 C 0.46393 0.4899 0.68109 0.0
O218 O 0.47189 0.49652 0.67534 0.0
O219 O 0.45987 0.48042 0.67625 0.0
O220 O 0.83287 0.57373 0.99347 0.0
Cd221 Cd 0.8205 0.55828 0.984 0.0
O222 O 0.84153 0.58079 0.97696 0.0
Cd223 Cd 0.83436 0.56628 0.96641 0.0
O224 O 0.83791 0.55118 0.9551 0.0
C225 C 0.84144 0.54116 0.95982 0.0
O226 O 0.84187 0.53994 0.97141 0.0
C227 C 0.83994 0.58135 0.98806 0.0
C228 C 0.79554 0.55973 0.99121 0.0
O229 O 0.8035 0.55329 -0.00286 0.0
O230 O 0.79936 0.56535 0.98177 0.0
O231 O 0.81482 0.41321 0.48959 0.0
Cd232 Cd 0.79737 0.42401 0.49835 0.0
O233 O 0.8271 0.42142 0.50247 0.0
Cd234 Cd 0.84482 0.42631 0.51082 0.0
O235 O 0.86048 0.4331 0.52106 0.0
C236 C 0.86722 0.44175 0.51695 0.0
O237 O 0.86484 0.44636 0.50632 0.0
C238 C 0.82572 0.41448 0.4939 0.0
C239 C 0.77458 0.42016 0.48702 0.0
O240 O 0.78169 0.42901 0.48379 0.0
O241 O 0.7783 0.41311 0.49556 0.0
O242 O 0.12226 0.10759 0.538 0.0
Cd243 Cd 0.13238 0.09434 0.55293 0.0
O244 O 0.11135 0.11769 0.55079 0.0
Cd245 Cd 0.11628 0.1052 0.56544 0.0
O246 O 0.11321 0.08983 0.57774 0.0
C247 C 0.11009 0.07994 0.57329 0.0
O248 O 0.10955 0.07941 0.56173 0.0
C249 C 0.11473 0.1161 0.54019 0.0
C250 C 0.1559 0.08718 0.54498 0.0
O251 O 0.14611 0.08082 0.54317 0.0
O252 O 0.15459 0.09685 0.55067 0.0
O253 O 0.62142 0.37525 0.43843 0.0
Cd254 Cd 0.63218 0.38928 0.4246 0.0
O255 O 0.60896 0.3682 0.42485 0.0
Cd256 Cd 0.61514 0.38142 0.41129 0.0
O257 O 0.61434 0.3973 0.39929 0.0
C258 C 0.61308 0.40755 0.40375 0.0
O259 O 0.61297 0.40819 0.41532 0.0
C260 C 0.61283 0.36801 0.43549 0.0
C261 C 0.65553 0.39591 0.43336 0.0
O262 O 0.6457 0.40216 0.43535 0.0
O263 O 0.65431 0.38657 0.42716 0.0
O264 O 0.52653 0.66057 0.9634 0.0
Cd265 Cd 0.50619 0.66217 0.95344 0.0
O266 O 0.5369 0.6569 0.94714 0.0
Cd267 Cd 0.51973 0.65543 0.93682 0.0
O268 O 0.50389 0.6461 0.92907 0.0
C269 C 0.49953 0.63708 0.93501 0.0
O270 O 0.50441 0.6343 0.94542 0.0
C271 C 0.53686 0.65861 0.95818 0.0
C272 C 0.49962 0.68595 0.94736 0.0
O273 O 0.49643 0.68104 0.95736 0.0
O274 O 0.50597 0.67962 0.94026 0.0
O275 O 0.46904 0.84087 0.89536 0.0
Cd276 Cd 0.45264 0.82956 0.90612 0.0
O277 O 0.47557 0.84963 0.91132 0.0
Cd278 Cd 0.4603 0.84255 0.92242 0.0
O279 O 0.44321 0.84315 0.93303 0.0
C280 C 0.43327 0.847 0.92797 0.0
O281 O 0.43357 0.84973 0.91657 0.0
C282 C 0.47666 0.84789 0.90033 0.0
C283 C 0.46061 0.80639 0.91303 0.0
O284 O 0.45513 0.80847 0.90307 0.0
O285 O 0.46231 0.81528 0.91973 0.0
O286 O 0.51769 0.31409 0.51604 0.0
Cd287 Cd 0.49873 0.31139 0.52805 0.0
O288 O 0.5293 0.31947 0.53099 0.0
Cd289 Cd 0.51327 0.32089 0.54285 0.0
O290 O 0.49999 0.33203 0.55223 0.0
C291 C 0.49294 0.33907 0.54609 0.0
O292 O 0.49338 0.33868 0.5345 0.0
C293 C 0.52831 0.31707 0.52015 0.0
C294 C 0.49266 0.2871 0.53201 0.0
O295 O 0.4885 0.2931 0.52292 0.0
O296 O 0.4997 0.2926 0.53923 0.0
O297 O 0.47054 0.12821 0.57042 0.0
Cd298 Cd 0.45468 0.13782 0.55759 0.0
O299 O 0.47376 0.11338 0.55847 0.0
Cd300 Cd 0.45843 0.11799 0.54633 0.0
O301 O 0.44241 0.11372 0.53522 0.0
C302 C 0.43218 0.11959 0.53514 0.0
O303 O 0.43118 0.12907 0.54166 0.0
C304 C 0.47646 0.11872 0.56787 0.0
C305 C 0.46038 0.16212 0.55303 0.0
O306 O 0.45369 0.15873 0.56198 0.0
O307 O 0.4643 0.15401 0.54618 0.0
O308 O 0.98591 0.50363 0.65264 0.0
Cd309 Cd 0.98363 0.48363 0.66222 0.0
O310 O 0.97235 0.49807 0.63944 0.0
Cd311 Cd 0.96148 0.49876 0.62303 0.0
O312 O 0.94935 0.49497 0.60808 0.0
C313 C 0.95401 0.49143 0.59848 0.0
O314 O 0.96625 0.49051 0.59753 0.0
C315 C 0.97966 0.50608 0.64329 0.0
C316 C 0.98131 0.48429 0.6867 0.0
O317 O 0.99212 0.48371 0.68179 0.0
O318 O 0.97161 0.48464 0.68002 0.0
O319 O 0.04596 0.98194 0.6467 0.0
Cd320 Cd 0.0334 0.96668 0.65744 0.0
O321 O 0.04456 0.97385 0.62931 0.0
Cd322 Cd 0.03273 0.95856 0.63484 0.0
O323 O 0.02199 0.94213 0.6321 0.0
C324 C 0.02787 0.9332 0.62809 0.0
O325 O 0.04004 0.93412 0.62643 0.0
C326 C 0.04864 0.98211 0.63575 0.0
C327 C 0.03256 0.9722 0.68128 0.0
O328 O 0.04126 0.96551 0.67729 0.0
O329 O 0.02411 0.97609 0.67404 0.0
O330 O 0.96729 0.46199 0.84732 0.0
Cd331 Cd 0.96446 0.48186 0.83759 0.0
O332 O 0.94917 0.46457 0.85587 0.0
Cd333 Cd 0.93389 0.46166 0.86858 0.0
O334 O 0.91864 0.46592 0.88059 0.0
C335 C 0.92128 0.46861 0.89111 0.0
O336 O 0.93304 0.46807 0.89457 0.0
C337 C 0.95886 0.45811 0.85444 0.0
C338 C 0.96746 0.48185 0.81314 0.0
O339 O 0.97687 0.48342 0.81997 0.0
O340 O 0.95665 0.48019 0.81791 0.0
O341 O 0.06528 0.00878 0.83182 0.0
Cd342 Cd 0.05118 0.02283 0.82124 0.0
O343 O 0.06649 0.01966 0.84761 0.0
Cd344 Cd 0.05343 0.03376 0.84158 0.0
O345 O 0.0402 0.0484 0.84435 0.0
C346 C 0.04436 0.05796 0.84877 0.0
O347 O 0.05645 0.05887 0.85077 0.0
C348 C 0.06963 0.01037 0.8421 0.0
C349 C 0.04612 0.01501 0.79859 0.0
O350 O 0.05552 0.02186 0.80052 0.0
O351 O 0.03905 0.01192 0.80736 0.0
O352 O 0.63438 0.87965 0.52751 0.0
Cd353 Cd 0.64801 0.8904 0.5409 0.0
O354 O 0.62464 0.89627 0.52154 0.0
Cd355 Cd 0.63352 0.90757 0.53448 0.0
O356 O 0.63509 0.92001 0.54887 0.0
C357 C 0.62862 0.91767 0.55811 0.0
O358 O 0.62189 0.90774 0.55871 0.0
C359 C 0.62632 0.88497 0.52087 0.0
C360 C 0.6706 0.89686 0.52986 0.0
O361 O 0.66944 0.88679 0.53572 0.0
O362 O 0.66108 0.90391 0.52928 0.0
O363 O 0.63081 0.10603 0.94935 0.0
Cd364 Cd 0.64496 0.09647 0.93553 0.0
O365 O 0.62197 0.08879 0.95485 0.0
Cd366 Cd 0.6312 0.07829 0.94146 0.0
O367 O 0.63277 0.06558 0.92731 0.0
C368 C 0.62607 0.06752 0.91814 0.0
O369 O 0.61913 0.0773 0.91741 0.0
C370 C 0.62309 0.1001 0.95589 0.0
C371 C 0.66762 0.0905 0.94665 0.0
O372 O 0.66605 0.1008 0.94131 0.0
O373 O 0.6585 0.08297 0.94662 0.0
O374 O 0.33918 0.40673 0.96867 0.0
Cd375 Cd 0.32621 0.42051 0.95652 0.0
O376 O 0.35734 0.41319 0.96163 0.0
Cd377 Cd 0.35011 0.42711 0.94924 0.0
O378 O 0.35205 0.44162 0.9357 0.0
C379 C 0.35688 0.439 0.92586 0.0
O380 O 0.35982 0.42772 0.92412 0.0
C381 C 0.35109 0.40614 0.96853 0.0
C382 C 0.30137 0.41902 0.96434 0.0
O383 O 0.30551 0.41204 0.95647 0.0
O384 O 0.30893 0.42684 0.96836 0.0
O385 O 0.82114 0.06939 0.0162 0.0
Cd386 Cd 0.80291 0.05841 0.02411 0.0
O387 O 0.8334 0.05831 0.0277 0.0
Cd388 Cd 0.85073 0.05228 0.03651 0.0
O389 O 0.86523 0.0442 0.04799 0.0
C390 C 0.86435 0.04555 0.05906 0.0
O391 O 0.855 0.05193 0.06305 0.0
C392 C 0.83211 0.06674 0.01983 0.0
C393 C 0.78125 0.0636 0.01103 0.0
O394 O 0.78434 0.06992 0.0198 0.0
O395 O 0.78841 0.05483 0.00843 0.0
O396 O 0.46669 0.33165 0.07804 0.0
Cd397 Cd 0.45421 0.31998 0.06441 0.0
O398 O 0.45037 0.33899 0.0872 0.0
Cd399 Cd 0.4369 0.33181 0.07478 0.0
O400 O 0.42337 0.33408 0.06039 0.0
C401 C 0.42734 0.33888 0.05071 0.0
O402 O 0.43935 0.34143 0.0497 0.0
C403 C 0.46219 0.338 0.08612 0.0
C404 C 0.46294 0.29634 0.06342 0.0
O405 O 0.46753 0.30479 0.05668 0.0
O406 O 0.45418 0.29906 0.0706 0.0
O407 O 0.53357 0.14837 0.04472 0.0
Cd408 Cd 0.51796 0.15094 0.06027 0.0
O409 O 0.52061 0.1389 0.03317 0.0
Cd410 Cd 0.50568 0.13768 0.04637 0.0
O411 O 0.4934 0.12881 0.0595 0.0
C412 C 0.4986 0.12317 0.06817 0.0
O413 O 0.51088 0.12351 0.06908 0.0
C414 C 0.53138 0.14339 0.03502 0.0
C415 C 0.50911 0.1746 0.06036 0.0
O416 O 0.51899 0.17141 0.06613 0.0
O417 O 0.50339 0.16658 0.05454 0.0
O418 O 0.4724 0.64527 0.41951 0.0
Cd419 Cd 0.46193 0.65595 0.43522 0.0
O420 O 0.45546 0.63535 0.41455 0.0
Cd421 Cd 0.44407 0.64102 0.42937 0.0
O422 O 0.43115 0.63701 0.44401 0.0
C423 C 0.43367 0.62776 0.45057 0.0
O424 O 0.44401 0.62174 0.44855 0.0
C425 C 0.46694 0.63797 0.41282 0.0
C426 C 0.4685 0.68032 0.43433 0.0
O427 O 0.47505 0.67252 0.44026 0.0
O428 O 0.45879 0.67661 0.42888 0.0
O429 O 0.53618 0.8302 0.43686 0.0
Cd430 Cd 0.52018 0.82685 0.42186 0.0
O431 O 0.5235 0.84043 0.44806 0.0
Cd432 Cd 0.50891 0.84197 0.43456 0.0
O433 O 0.49986 0.8531 0.42068 0.0
C434 C 0.50687 0.857 0.41228 0.0
O435 O 0.51862 0.85346 0.41208 0.0
C436 C 0.53415 0.83565 0.44635 0.0
C437 C 0.51073 0.8034 0.4238 0.0
O438 O 0.52042 0.80593 0.41746 0.0
O439 O 0.50548 0.81198 0.4292 0.0
O440 O 0.08572 0.47598 0.32921 0.0
Cd441 Cd 0.07512 0.4606 0.31801 0.0
O442 O 0.07273 0.47388 0.34427 0.0
Cd443 Cd 0.06248 0.45832 0.3381 0.0
O444 O 0.05159 0.44208 0.34249 0.0
C445 C 0.05481 0.43644 0.352 0.0
O446 O 0.06448 0.4404 0.3579 0.0
C447 C 0.08201 0.47919 0.33928 0.0
C448 C 0.07256 0.46845 0.29439 0.0
O449 O 0.064 0.47056 0.30199 0.0
O450 O 0.08225 0.46251 0.29795 0.0
O451 O 0.89963 0.02273 0.34159 0.0
Cd452 Cd 0.91534 0.03634 0.33264 0.0
O453 O 0.88993 0.03721 0.35066 0.0
Cd454 Cd 0.9035 0.05106 0.34515 0.0
O455 O 0.91818 0.06466 0.34647 0.0
C456 C 0.92929 0.06123 0.34891 0.0
O457 O 0.93167 0.04962 0.34993 0.0
C458 C 0.89078 0.02616 0.34821 0.0
C459 C 0.92208 0.02992 0.30993 0.0
O460 O 0.92781 0.02547 0.31905 0.0
O461 O 0.91313 0.03739 0.31156 0.0
O462 O 0.08098 0.50647 0.13881 0.0
Cd463 Cd 0.06939 0.52136 0.14981 0.0
O464 O 0.09212 0.51986 0.1285 0.0
Cd465 Cd 0.08132 0.53524 0.13437 0.0
O466 O 0.06916 0.55092 0.13143 0.0
C467 C 0.06961 0.55579 0.12108 0.0
O468 O 0.07738 0.55135 0.11336 0.0
C469 C 0.08958 0.50893 0.13131 0.0
C470 C 0.06821 0.514 0.17367 0.0
O471 O 0.05963 0.51101 0.16642 0.0
O472 O 0.07724 0.52061 0.16967 0.0
O473 O 0.953 0.00464 0.15385 0.0
Cd474 Cd 0.96854 -0.00083 0.16902 0.0
O475 O 0.95657 0.9873 0.14599 0.0
Cd476 Cd 0.95431 0.97241 0.13409 0.0
O477 O 0.95647 0.95548 0.12513 0.0
C478 C 0.95685 0.95513 0.11393 0.0
O479 O 0.95552 0.96519 0.10754 0.0
C480 C 0.9508 -0.00266 0.14574 0.0
C481 C 0.9604 0.00367 0.19185 0.0
O482 O 0.96605 0.01181 0.1855 0.0
O483 O 0.95852 0.9934 0.18736 0.0
O484 O 0.31443 0.06684 0.48634 0.0
Cd485 Cd 0.29631 0.05626 0.47852 0.0
O486 O 0.32625 0.05662 0.47452 0.0
Cd487 Cd 0.34335 0.05132 0.46531 0.0
O488 O 0.35881 0.04408 0.45509 0.0
C489 C 0.36416 0.03435 0.45861 0.0
O490 O 0.36043 0.02895 0.46854 0.0
C491 C 0.32527 0.06443 0.4824 0.0
C492 C 0.27408 0.06095 0.49051 0.0
O493 O 0.28108 0.05203 0.49373 0.0
O494 O 0.27765 0.0677 0.48168 0.0
O495 O 0.33352 0.91566 0.98537 0.0
Cd496 Cd 0.32064 0.93154 0.99354 0.0
O497 O 0.34005 0.90851 0.0027 0.0
Cd498 Cd 0.33235 0.92355 0.01221 0.0
O499 O 0.33505 0.93941 0.02271 0.0
C500 C 0.34392 0.94644 0.01943 0.0
O501 O 0.3502 0.94408 0.0098 0.0
C502 C 0.33969 0.90786 0.99152 0.0
C503 C 0.29568 0.92899 0.98668 0.0
O504 O 0.30346 0.93511 0.98022 0.0
O505 O 0.29967 0.92418 -0.00355 0.0
O506 O 0.6361 0.59919 0.03032 0.0
Cd507 Cd 0.64628 0.5834 0.04259 0.0
O508 O 0.62435 0.60553 0.04479 0.0
Cd509 Cd 0.63035 0.59139 0.05752 0.0
O510 O 0.62823 0.57607 0.07008 0.0
C511 C 0.62934 0.56536 0.06665 0.0
O512 O 0.63248 0.56369 0.05561 0.0
C513 C 0.62792 0.60644 0.03407 0.0
C514 C 0.67042 0.57856 0.03455 0.0
O515 O 0.66086 0.57314 0.03041 0.0
O516 O 0.66856 0.58624 0.04252 0.0
O517 O 0.13438 0.88881 0.95114 0.0
Cd518 Cd 0.14524 0.90416 0.93883 0.0
O519 O 0.12649 0.87959 0.936 0.0
Cd520 Cd 0.13343 0.89299 0.92295 0.0
O521 O 0.13191 0.9078 0.90975 0.0
C522 C 0.1288 0.91812 0.91322 0.0
O523 O 0.12736 0.91959 0.9246 0.0
C524 C 0.12788 0.8803 0.94711 0.0
C525 C 0.16953 0.9085 0.94678 0.0
O526 O 0.16014 0.91423 0.95085 0.0
O527 O 0.16743 0.9007 0.93898 0.0
H528 H 0.11878 0.11426 0.51646 0.0
H529 H 0.10801 0.12513 0.50026 0.0
H530 H 0.0875 0.14573 0.52534 0.0
H531 H 0.09809 0.13477 0.54165 0.0
H532 H 0.07231 0.13505 0.50934 0.0
H533 H 0.11103 0.15916 0.48586 0.0
H534 H 0.11405 0.14335 0.48831 0.0
H535 H 0.11264 0.15286 0.50074 0.0
C536 C 0.11214 0.12124 0.51855 0.0
C537 C 0.10927 0.12361 0.53036 0.0
C538 C 0.10605 0.12751 0.50926 0.0
C539 C 0.09708 0.13635 0.51159 0.0
C540 C 0.09446 0.13899 0.52335 0.0
H541 H 0.04171 0.17098 0.46403 0.0
H542 H 0.05538 0.16667 0.48105 0.0
C543 C 0.10052 0.13271 0.53266 0.0
C544 C 0.08956 0.14194 0.50181 0.0
H545 H 0.09179 0.15725 0.4751 0.0
C546 C 0.07654 0.14007 0.50194 0.0
C547 C 0.09511 0.14843 0.49215 0.0
C548 C 0.10897 0.15118 0.49178 0.0
C549 C 0.06897 0.14409 0.49244 0.0
C550 C 0.07456 0.15034 0.48265 0.0
C551 C 0.08754 0.15246 0.48263 0.0
C552 C 0.06714 0.15407 0.47206 0.0
C553 C 0.05514 0.14115 0.49275 0.0
C554 C 0.06957 0.1488 0.46124 0.0
C555 C 0.06184 0.15129 0.45149 0.0
C556 C 0.05153 0.15912 0.45237 0.0
C557 C 0.0495 0.16483 0.46307 0.0
C558 C 0.05726 0.16234 0.47283 0.0
H559 H 0.05285 0.13414 0.4997 0.0
H560 H 0.04976 0.14941 0.49466 0.0
H561 H 0.05196 0.13796 0.48407 0.0
H562 H 0.07719 0.14242 0.46047 0.0
H563 H 0.06373 0.14678 0.44337 0.0
H564 H 0.82868 0.40823 0.4711 0.0
H565 H 0.8463 0.39743 0.46254 0.0
H566 H 0.86457 0.39542 0.49655 0.0
H567 H 0.84682 0.4059 0.50523 0.0
H568 H 0.87209 0.40459 0.46232 0.0
H569 H 0.86469 0.36021 0.48584 0.0
H570 H 0.85267 0.37167 0.48484 0.0
H571 H 0.86542 0.37299 0.49507 0.0
C572 C 0.83645 0.40546 0.47676 0.0
C573 C 0.83649 0.40812 0.48879 0.0
C574 C 0.8465 0.39932 0.47185 0.0
C575 C 0.85668 0.39557 0.47893 0.0
C576 C 0.85674 0.39816 0.49096 0.0
H577 H 0.9263 0.35846 0.46329 0.0
H578 H 0.90855 0.36797 0.473 0.0
C579 C 0.8467 0.40435 0.49586 0.0
C580 C 0.86735 0.38919 0.47361 0.0
H581 H 0.88293 0.3623 0.474 0.0
C582 C 0.87446 0.39533 0.46484 0.0
C583 C 0.87043 0.37715 0.47699 0.0
C584 C 0.86287 0.37004 0.48613 0.0
C585 C 0.88465 0.38979 0.45941 0.0
C586 C 0.88762 0.37768 0.46265 0.0
C587 C 0.8806 0.37156 0.47151 0.0
C588 C 0.89798 0.37122 0.45688 0.0
C589 C 0.89228 0.39703 0.4504 0.0
C590 C 0.89773 0.36957 0.44466 0.0
C591 C 0.90785 0.36418 0.43908 0.0
C592 C 0.91838 0.36024 0.44565 0.0
C593 C 0.91836 0.36143 0.45797 0.0
C594 C 0.90823 0.36686 0.46354 0.0
H595 H 0.89096 0.40688 0.45129 0.0
H596 H 0.90242 0.39492 0.45128 0.0
H597 H 0.88923 0.39476 0.44139 0.0
H598 H 0.88976 0.3726 0.4394 0.0
H599 H 0.9075 0.3633 0.4296 0.0
H600 H 0.11194 0.86211 0.94141 0.0
H601 H 0.09838 0.85018 0.95481 0.0
H602 H 0.11444 0.86752 0.98465 0.0
H603 H 0.12809 0.87951 0.97134 0.0
H604 H 0.10958 0.84069 0.98729 0.0
H605 H 0.06899 0.86852 0.97153 0.0
H606 H 0.07851 0.86192 0.96037 0.0
H607 H 0.08503 0.87333 0.96934 0.0
C608 C 0.11275 0.86327 0.95083 0.0
C609 C 0.12101 0.87188 0.95529 0.0
C610 C 0.10498 0.85645 0.95846 0.0
C611 C 0.10534 0.85809 0.97067 0.0
C612 C 0.11404 0.86615 0.97523 0.0
H613 H 0.06274 0.83812 0.03268 0.0
H614 H 0.07939 0.84289 0.01848 0.0
C615 C 0.1218 0.87301 0.96761 0.0
C616 C 0.09592 0.8522 0.97856 0.0
H617 H 0.06488 0.85309 0.98578 0.0
C618 C 0.09979 0.84332 0.98695 0.0
C619 C 0.08317 0.85568 0.97805 0.0
C620 C 0.07861 0.86544 0.96941 0.0
C621 C 0.09118 0.8378 -0.00513 0.0
C622 C 0.07847 0.84147 -0.00548 0.0
C623 C 0.07461 0.85022 0.98599 0.0
C624 C 0.06907 0.83697 0.00331 0.0
C625 C 0.09576 0.82803 0.00346 0.0
C626 C 0.05769 0.83205 -0.00048 0.0
C627 C 0.04806 0.82945 0.00762 0.0
C628 C 0.04961 0.83176 0.01965 0.0
C629 C 0.06122 0.83619 0.02349 0.0
C630 C 0.07082 0.83884 0.01538 0.0
H631 H 0.10436 0.82363 0.00015 0.0
H632 H 0.09813 0.83208 0.01198 0.0
H633 H 0.08846 0.82103 0.00515 0.0
H634 H 0.05612 0.83059 0.99023 0.0
H635 H 0.03925 0.82603 0.00436 0.0
H636 H 0.83902 0.585 0.01183 0.0
H637 H 0.85242 0.59824 0.02309 0.0
H638 H 0.8706 0.61083 0.99086 0.0
H639 H 0.85714 0.59781 0.9795 0.0
H640 H 0.87791 0.59622 0.02405 0.0
H641 H 0.86499 0.64216 0.00741 0.0
H642 H 0.85526 0.62915 0.00506 0.0
H643 H 0.86872 0.6322 -0.00418 0.0
C644 C 0.84571 0.59075 0.0071 0.0
C645 C 0.84703 0.59031 -0.00524 0.0
C646 C 0.85336 0.59831 0.01356 0.0
C647 C 0.86241 0.60563 0.00781 0.0
C648 C 0.86349 0.60548 -0.00454 0.0
H649 H 0.9292 0.64326 0.02725 0.0
H650 H 0.91095 0.63505 0.01725 0.0
C651 C 0.85583 0.59794 0.98899 0.0
C652 C 0.87158 0.61241 0.01479 0.0
H653 H 0.88437 0.64031 0.01807 0.0
C654 C 0.8792 0.60588 0.02287 0.0
C655 C 0.8733 0.62501 0.01316 0.0
C656 C 0.86505 0.63257 0.00497 0.0
C657 C 0.88876 0.61153 0.0291 0.0
C658 C 0.89061 0.62409 0.02735 0.0
C659 C 0.8829 0.63068 0.0194 0.0
C660 C 0.90088 0.63037 0.03339 0.0
C661 C 0.8971 0.60392 0.03719 0.0
C662 C 0.90106 0.63082 0.04575 0.0
C663 C 0.91148 0.63547 0.0515 0.0
C664 C 0.92189 0.6398 0.04498 0.0
C665 C 0.92138 0.63994 0.03255 0.0
C666 C 0.91095 0.63527 0.02681 0.0
H667 H 0.89616 0.59415 0.0356 0.0
H668 H 0.90709 0.60654 0.03602 0.0
H669 H 0.89446 0.60535 0.04651 0.0
H670 H 0.89328 0.62726 0.05097 0.0
H671 H 0.91152 0.63532 0.06108 0.0
H672 H 0.47325 0.11898 0.06787 0.0
H673 H 0.46129 0.10508 0.08093 0.0
H674 H 0.49508 0.09586 0.10016 0.0
H675 H 0.50706 0.10978 0.0873 0.0
H676 H 0.46523 0.08037 0.08385 0.0
H677 H 0.47032 0.10243 0.12662 0.0
H678 H 0.47356 0.11016 0.1126 0.0
H679 H 0.48503 0.10017 0.11931 0.0
C680 C 0.4781 0.11412 0.07498 0.0
C681 C 0.49111 0.11551 0.07655 0.0
C682 C 0.47126 0.10617 0.08242 0.0
C683 C 0.47727 0.09956 0.09161 0.0
C684 C 0.4902 0.10106 0.09329 0.0
H685 H 0.46266 0.04085 0.14102 0.0
H686 H 0.47102 0.0575 0.12859 0.0
C687 C 0.49705 0.10898 0.08587 0.0
C688 C 0.47025 0.0905 0.09897 0.0
H689 H 0.46354 0.08187 0.12757 0.0
C690 C 0.4647 0.08077 0.0934 0.0
C691 C 0.46958 0.09105 0.11142 0.0
C692 C 0.47483 0.10158 0.11784 0.0
C693 C 0.45896 0.07129 0.09999 0.0
C694 C 0.45861 0.07168 0.11246 0.0
C695 C 0.46387 0.08157 0.118 0.0
C696 C 0.45335 0.06166 0.11995 0.0
C697 C 0.45377 0.06071 0.09359 0.0
C698 C 0.4406 0.05859 0.11933 0.0
C699 C 0.43579 0.04906 0.12643 0.0
C700 C 0.44366 0.04245 0.13427 0.0
C701 C 0.45637 0.04572 0.13502 0.0
C702 C 0.46116 0.05523 0.12793 0.0
H703 H 0.45713 0.06061 0.0843 0.0
H704 H 0.45644 0.05207 0.09821 0.0
H705 H 0.44338 0.06126 0.09345 0.0
H706 H 0.43435 0.06365 0.11345 0.0
H707 H 0.42588 0.0471 0.12598 0.0
H708 H 0.48786 0.33895 0.08551 0.0
H709 H 0.50153 0.35256 0.09605 0.0
H710 H 0.46939 0.36697 0.11381 0.0
H711 H 0.45567 0.3533 0.10346 0.0
H712 H 0.49983 0.37717 0.0936 0.0
H713 H 0.49461 0.3626 0.14076 0.0
H714 H 0.49009 0.35319 0.12882 0.0
H715 H 0.4799 0.36507 0.13334 0.0
C716 C 0.48371 0.34484 0.09184 0.0
C717 C 0.47065 0.34506 0.0936 0.0
C718 C 0.49154 0.35262 0.09785 0.0
C719 C 0.48649 0.3607 0.1058 0.0
C720 C 0.47353 0.36064 0.1079 0.0
H721 H 0.51462 0.43036 0.12297 0.0
H722 H 0.50252 0.41302 0.1168 0.0
C723 C 0.46568 0.35286 0.10191 0.0
C724 C 0.49456 0.37005 0.11088 0.0
H725 H 0.50357 0.38217 0.13682 0.0
C726 C 0.50075 0.37818 0.10306 0.0
C727 C 0.49581 0.37131 0.12322 0.0
C728 C 0.48985 0.36251 0.13204 0.0
C729 C 0.50785 0.38775 0.10721 0.0
C730 C 0.50864 0.38934 0.11952 0.0
C731 C 0.50281 0.381 0.12739 0.0
C732 C 0.51539 0.39973 0.12428 0.0
C733 C 0.51446 0.39611 0.09838 0.0
C734 C 0.5264 0.39797 0.1309 0.0
C735 C 0.53335 0.40787 0.13448 0.0
C736 C 0.52936 0.4197 0.13152 0.0
C737 C 0.51802 0.42139 0.12533 0.0
C738 C 0.5111 0.4115 0.12176 0.0
H739 H 0.51545 0.39202 0.08963 0.0
H740 H 0.50892 0.40453 0.09713 0.0
H741 H 0.52392 0.39855 0.10161 0.0
H742 H 0.52981 0.38894 0.13298 0.0
H743 H 0.54201 0.40625 0.13928 0.0
H744 H 0.48386 0.8681 0.41144 0.0
H745 H 0.47751 0.88526 0.39852 0.0
H746 H 0.51351 0.88473 0.38117 0.0
H747 H 0.51985 0.86754 0.39385 0.0
H748 H 0.48894 0.90731 0.3976 0.0
H749 H 0.48993 0.88828 0.35323 0.0
H750 H 0.48976 0.87891 0.36665 0.0
H751 H 0.50424 0.88537 0.36117 0.0
C752 C 0.49034 0.87149 0.40472 0.0
C753 C 0.50238 0.86646 0.40369 0.0
C754 C 0.48669 0.88131 0.39736 0.0
C755 C 0.49497 0.88618 0.38877 0.0
C756 C 0.50685 0.88095 0.38753 0.0
H757 H 0.50925 0.94948 0.34691 0.0
H758 H 0.50841 0.92986 0.35745 0.0
C759 C 0.5105 0.87116 0.39486 0.0
C760 C 0.49175 0.89738 0.38186 0.0
H761 H 0.4916 0.90993 0.35381 0.0
C762 C 0.48926 0.90785 0.38801 0.0
C763 C 0.49216 0.89806 0.36935 0.0
C764 C 0.49404 0.88702 0.36222 0.0
C765 C 0.48791 0.9191 0.38203 0.0
C766 C 0.48895 0.91985 0.36957 0.0
C767 C 0.49089 0.90932 0.36338 0.0
C768 C 0.48906 0.9316 0.3629 0.0
C769 C 0.48605 0.9302 0.38911 0.0
C770 C 0.47839 0.93899 0.36231 0.0
C771 C 0.47883 0.95024 0.35625 0.0
C772 C 0.48998 0.95427 0.35075 0.0
C773 C 0.50054 0.94668 0.35112 0.0
C774 C 0.50008 0.93546 0.35714 0.0
H775 H 0.48744 0.92831 0.39873 0.0
H776 H 0.49264 0.93744 0.3861 0.0
H777 H 0.47636 0.93363 0.38773 0.0
H778 H 0.46971 0.93603 0.36648 0.0
H779 H 0.47039 0.95561 0.3557 0.0
H780 H 0.51715 0.56152 0.34434 0.0
H781 H 0.50347 0.57658 0.35286 0.0
H782 H 0.53585 0.59538 0.36557 0.0
H783 H 0.5496 0.58049 0.35697 0.0
H784 H 0.50262 0.58058 0.37677 0.0
H785 H 0.51448 0.62294 0.35161 0.0
H786 H 0.51846 0.60824 0.34643 0.0
H787 H 0.52792 0.61504 0.3575 0.0
C788 C 0.52138 0.56898 0.34875 0.0
C789 C 0.53448 0.56977 0.35001 0.0
C790 C 0.51354 0.57757 0.35361 0.0
C791 C 0.51864 0.58717 0.35974 0.0
C792 C 0.53172 0.5882 0.36067 0.0
H793 H 0.49221 0.63914 0.4084 0.0
H794 H 0.50419 0.62726 0.39456 0.0
C795 C 0.53957 0.57961 0.35582 0.0
C796 C 0.51032 0.59534 0.36619 0.0
H797 H 0.50309 0.62497 0.36964 0.0
C798 C 0.50259 0.59027 0.37511 0.0
C799 C 0.5104 0.60799 0.36406 0.0
C800 C 0.51817 0.61388 0.35431 0.0
C801 C 0.4952 0.59752 0.38221 0.0
C802 C 0.49536 0.61018 0.38017 0.0
C803 C 0.50298 0.61526 0.37116 0.0
C804 C 0.48796 0.61824 0.38761 0.0
C805 C 0.48763 0.59157 0.39211 0.0
C806 C 0.47484 0.61738 0.388 0.0
C807 C 0.46797 0.62409 0.39593 0.0
C808 C 0.4741 0.63189 0.40355 0.0
C809 C 0.4872 0.63319 0.4027 0.0
C810 C 0.49406 0.62642 0.39478 0.0
H811 H 0.49084 0.58222 0.39424 0.0
H812 H 0.48822 0.59681 0.40024 0.0
H813 H 0.47764 0.59117 0.3894 0.0
H814 H 0.46993 0.61129 0.38236 0.0
H815 H 0.45788 0.62296 0.39626 0.0
H816 H 0.13981 0.43516 0.05944 0.0
H817 H 0.13585 0.45181 0.07247 0.0
H818 H 0.11383 0.42819 0.09546 0.0
H819 H 0.11786 0.41149 0.08263 0.0
H820 H 0.11242 0.46082 0.07724 0.0
H821 H 0.13567 0.44543 0.11894 0.0
H822 H 0.13891 0.43878 0.10496 0.0
H823 H 0.12514 0.43445 0.11328 0.0
C824 C 0.1343 0.43346 0.06737 0.0
C825 C 0.12913 0.42199 0.06998 0.0
C826 C 0.13204 0.44299 0.0748 0.0
C827 C 0.12468 0.44121 0.08501 0.0
C828 C 0.11977 0.42971 0.08778 0.0
H829 H 0.08577 0.4846 0.13434 0.0
H830 H 0.0954 0.46855 0.12327 0.0
C831 C 0.12202 0.42018 0.08037 0.0
C832 C 0.12115 0.45157 0.09217 0.0
H833 H 0.12097 0.46163 0.12029 0.0
C834 C 0.11444 0.46109 0.08662 0.0
C835 C 0.12374 0.45185 0.10441 0.0
C836 C 0.13137 0.44213 0.11074 0.0
C837 C 0.10987 0.47068 0.09306 0.0
C838 C 0.11226 0.47086 0.10535 0.0
C839 C 0.11916 0.46145 0.11087 0.0
C840 C 0.10725 0.48053 0.11265 0.0
C841 C 0.1021 0.48032 0.08675 0.0
C842 C 0.11098 0.49255 0.11054 0.0
C843 C 0.10547 0.50175 0.11682 0.0
C844 C 0.09618 0.49909 0.12538 0.0
C845 C 0.09285 0.48698 0.12778 0.0
C846 C 0.09836 0.47778 0.12148 0.0
H847 H 0.0988 0.47746 0.07799 0.0
H848 H 0.09382 0.48269 0.09213 0.0
H849 H 0.10788 0.48856 0.0853 0.0
H850 H 0.118 0.49482 0.1039 0.0
H851 H 0.10833 0.51097 0.1148 0.0
H852 H 0.10321 0.4916 0.33222 0.0
H853 H 0.11427 0.50718 0.3429 0.0
H854 H 0.08655 0.50452 0.37064 0.0
H855 H 0.07558 0.4889 0.3602 0.0
H856 H 0.10609 0.5295 0.35005 0.0
H857 H 0.11937 0.50025 0.38877 0.0
H858 H 0.11382 0.49427 0.37513 0.0
H859 H 0.10286 0.49969 0.38578 0.0
C860 C 0.09948 0.49432 0.34061 0.0
C861 C 0.08856 0.48892 0.3454 0.0
C862 C 0.10582 0.50322 0.34669 0.0
C863 C 0.10137 0.50681 0.35767 0.0
C864 C 0.09032 0.50165 0.36232 0.0
H865 H 0.10862 0.56995 0.39669 0.0
H866 H 0.10403 0.5548 0.38233 0.0
C867 C 0.08402 0.49277 0.35629 0.0
C868 C 0.10804 0.51613 0.36426 0.0
H869 H 0.12008 0.52159 0.39144 0.0
C870 C 0.10933 0.52775 0.35904 0.0
C871 C 0.11251 0.51377 0.37589 0.0
C872 C 0.1122 0.50128 0.38168 0.0
C873 C 0.11431 0.53724 0.3654 0.0
C874 C 0.11786 0.53507 0.37735 0.0
C875 C 0.11723 0.52329 0.38233 0.0
C876 C 0.12137 0.54495 0.38514 0.0
C877 C 0.1156 0.5495 0.35929 0.0
C878 C 0.13259 0.54441 0.39163 0.0
C879 C 0.13519 0.553 0.4 0.0
C880 C 0.12656 0.56227 0.40205 0.0
C881 C 0.1155 0.56297 0.3953 0.0
C882 C 0.1129 0.55436 0.38699 0.0
H883 H 0.11674 0.54877 0.34959 0.0
H884 H 0.10696 0.5548 0.36081 0.0
H885 H 0.12373 0.55452 0.36275 0.0
H886 H 0.13922 0.53717 0.39041 0.0
H887 H 0.14379 0.55221 0.40505 0.0
H888 H 0.84206 0.93829 0.41114 0.0
H889 H 0.84905 0.9505 0.3939 0.0
H890 H 0.83814 0.98283 0.41108 0.0
H891 H 0.83101 0.97072 0.42833 0.0
H892 H 0.8325 0.98261 0.38594 0.0
H893 H 0.8819 0.97022 0.39675 0.0
H894 H 0.87124 0.95788 0.395 0.0
H895 H 0.86922 0.96766 0.40711 0.0
C896 C 0.84097 0.94799 0.4112 0.0
C897 C 0.83614 0.95355 0.42118 0.0
C898 C 0.845 0.95495 0.40134 0.0
C899 C 0.8443 0.96756 0.40132 0.0
C900 C 0.8388 0.9731 0.41096 0.0
H901 H 0.87192 0.03029 0.3639 0.0
H902 H 0.85947 0.01535 0.37509 0.0
C903 C 0.83476 0.96616 0.42082 0.0
C904 C 0.85016 0.97505 0.39171 0.0
H905 H 0.87865 0.98332 0.38027 0.0
C906 C 0.84258 0.98272 0.38462 0.0
C907 C 0.86331 0.97514 0.39002 0.0
C908 C 0.87195 0.96737 0.39765 0.0
C909 C 0.84783 0.99058 0.37591 0.0
C910 C 0.86101 0.99092 0.37446 0.0
C911 C 0.86854 0.98301 0.38136 0.0
C912 C 0.86735 -1e-05 0.36654 0.0
C913 C 0.83921 -0.00158 0.36835 0.0
C914 C 0.876 -0.00366 0.35803 0.0
C915 C 0.88326 0.00487 0.35169 0.0
C916 C 0.88206 0.01722 0.3538 0.0
C917 C 0.87306 0.02086 0.36202 0.0
C918 C 0.86584 0.01233 0.36837 0.0
H919 H 0.82971 0.99436 0.36775 0.0
H920 H 0.83818 0.0073 0.3724 0.0
H921 H 0.84301 -8e-05 0.35927 0.0
H922 H 0.87737 0.98685 0.35654 0.0
H923 H 0.89009 0.00175 0.34542 0.0
H924 H 0.45408 0.50988 0.62731 0.0
H925 H 0.43995 0.51951 0.61279 0.0
H926 H 0.42243 0.48521 0.60713 0.0
H927 H 0.43622 0.47559 0.62199 0.0
H928 H 0.43592 0.51523 0.58885 0.0
H929 H 0.39298 0.50691 0.61587 0.0
H930 H 0.40857 0.50502 0.62186 0.0
H931 H 0.40195 0.49369 0.61284 0.0
C932 C 0.44724 0.50437 0.62295 0.0
C933 C 0.44638 0.49193 0.6257 0.0
C934 C 0.43922 0.50988 0.61462 0.0
C935 C 0.43009 0.50309 0.60896 0.0
C936 C 0.42935 0.49063 0.61149 0.0
H937 H 0.38462 0.53093 0.54943 0.0
H938 H 0.39952 0.51935 0.5618 0.0
C939 C 0.43739 0.4851 0.61984 0.0
C940 C 0.42116 0.50922 0.60067 0.0
H941 H 0.3902 0.5163 0.59697 0.0
C942 C 0.42591 0.51542 0.59058 0.0
C943 C 0.40814 0.50958 0.60305 0.0
C944 C 0.40257 0.50354 0.61403 0.0
C945 C 0.41799 0.52203 0.58281 0.0
C946 C 0.40495 0.52227 0.58512 0.0
C947 C 0.4002 0.51602 0.59518 0.0
C948 C 0.3961 0.52936 0.5775 0.0
C949 C 0.42368 0.52897 0.5724 0.0
C950 C 0.38909 0.53868 0.58227 0.0
C951 C 0.38053 0.54526 0.57526 0.0
C952 C 0.37876 0.54261 0.56333 0.0
C953 C 0.38581 0.53326 0.55856 0.0
C954 C 0.39437 0.52666 0.5656 0.0
H955 H 0.43396 0.53015 0.57343 0.0
H956 H 0.42203 0.52398 0.56424 0.0
H957 H 0.41928 0.53801 0.57119 0.0
H958 H 0.39027 0.54089 0.59144 0.0
H959 H 0.37525 0.55239 0.57922 0.0
H960 H 0.91217 0.86991 0.55632 0.0
H961 H 0.8946 0.87983 0.54594 0.0
H962 H 0.91692 0.88337 0.51421 0.0
H963 H 0.93446 0.87335 0.52443 0.0
H964 H 0.89284 0.90264 0.53434 0.0
H965 H 0.88529 0.86588 0.50336 0.0
H966 H 0.8948 0.86399 0.5165 0.0
H967 H 0.9011 0.87145 0.5034 0.0
C968 C 0.91336 0.87284 0.54715 0.0
C969 C 0.92468 0.87075 0.54117 0.0
C970 C 0.90331 0.8785 0.54124 0.0
C971 C 0.90439 0.88212 0.52926 0.0
C972 C 0.91581 0.8804 0.52339 0.0
H973 H 0.86097 0.93111 0.48529 0.0
H974 H 0.87611 0.92127 0.49864 0.0
C975 C 0.92584 0.87473 0.52927 0.0
C976 C 0.89361 0.88767 0.52285 0.0
H977 H 0.87462 0.88437 0.49893 0.0
C978 C 0.88878 0.89861 0.52665 0.0
C979 C 0.88819 0.88228 0.51295 0.0
C980 C 0.89251 0.87019 0.50886 0.0
C981 C 0.87896 0.90455 0.52053 0.0
C982 C 0.87399 0.89946 0.51028 0.0
C983 C 0.87852 0.8883 0.50674 0.0
C984 C 0.86442 0.90574 0.50281 0.0
C985 C 0.87399 0.91619 0.52512 0.0
C986 C 0.85287 0.90019 0.50059 0.0
C987 C 0.84419 0.90577 0.49288 0.0
C988 C 0.84697 0.91695 0.48718 0.0
C989 C 0.8585 0.92253 0.48955 0.0
C990 C 0.86715 0.91695 0.49726 0.0
H991 H 0.8761 0.917 0.53466 0.0
H992 H 0.87852 0.92388 0.52022 0.0
H993 H 0.86369 0.91692 0.52381 0.0
H994 H 0.85063 0.89149 0.50474 0.0
H995 H 0.83542 0.90121 0.49124 0.0
H996 H 0.06962 0.64025 0.54151 0.0
H997 H 0.08522 0.6378 0.52593 0.0
H998 H 0.05692 0.62262 0.50375 0.0
H999 H 0.04123 0.6252 0.51914 0.0
H1000 H 0.09243 0.61642 0.51715 0.0
H1001 H 0.07416 0.64641 0.48089 0.0
H1002 H 0.06886 0.64728 0.49598 0.0
H1003 H 0.0625 0.63608 0.48661 0.0
C1004 C 0.06666 0.63656 0.53324 0.0
C1005 C 0.05417 0.63291 0.53158 0.0
C1006 C 0.0756 0.63517 0.52436 0.0
C1007 C 0.0722 0.63018 0.51362 0.0
C1008 C 0.05969 0.62675 0.51185 0.0
H1009 H 0.11409 0.5885 0.46599 0.0
H1010 H 0.10118 0.59666 0.48154 0.0
C1011 C 0.05075 0.62816 0.52071 0.0
C1012 C 0.08188 0.62756 0.50469 0.0
H1013 H 0.08893 0.63125 0.47534 0.0
C1014 C 0.09177 0.6198 0.50804 0.0
C1015 C 0.08111 0.6321 0.49285 0.0
C1016 C 0.07116 0.64103 0.48889 0.0
C1017 C 0.10056 0.61601 0.49976 0.0
C1018 C 0.0993 0.61993 0.48777 0.0
C1019 C 0.08978 0.62814 0.48451 0.0
C1020 C 0.10734 0.61509 0.47841 0.0
C1021 C 0.11105 0.60776 0.50389 0.0
C1022 C 0.11488 0.62279 0.4713 0.0
C1023 C 0.12226 0.61816 0.46232 0.0
C1024 C 0.12214 0.60574 0.46026 0.0
C1025 C 0.11449 0.59809 0.46737 0.0
C1026 C 0.10714 0.60273 0.47632 0.0
H1027 H 0.11293 0.60854 0.51349 0.0
H1028 H 0.10836 0.59828 0.50241 0.0
H1029 H 0.11984 0.60976 0.49892 0.0
H1030 H 0.11508 0.63238 0.47273 0.0
H1031 H 0.12801 0.62431 0.45698 0.0
H1032 H 0.93188 0.10161 0.96655 0.0
H1033 H 0.91514 0.0936 0.97935 0.0
H1034 H 0.89367 0.12608 0.97271 0.0
H1035 H 0.9103 0.13412 0.9597 0.0
H1036 H 0.90365 0.10227 -0.00028 0.0
H1037 H 0.86997 0.09932 0.96247 0.0
H1038 H 0.88653 0.10185 0.96018 0.0
H1039 H 0.87655 0.11402 0.96431 0.0
C1040 C 0.92364 0.1071 0.96785 0.0
C1041 C 0.92237 0.11846 0.96199 0.0
C1042 C 0.91409 0.10251 0.9752 0.0
C1043 C 0.90309 0.10916 0.97681 0.0
C1044 C 0.902 0.12071 0.97139 0.0
H1045 H 0.83241 0.08986 0.01099 0.0
H1046 H 0.84992 0.10078 0.00155 0.0
C1047 C 0.91154 0.12531 0.96401 0.0
C1048 C 0.8926 0.10376 0.98381 0.0
H1049 H 0.86239 0.09394 0.98152 0.0
C1050 C 0.89461 0.10047 -0.00423 0.0
C1051 C 0.88085 0.10138 0.9786 0.0
C1052 C 0.87832 0.10422 0.96566 0.0
C1053 C 0.88512 0.09494 0.00269 0.0
C1054 C 0.87341 0.09247 -0.00255 0.0
C1055 C 0.87137 0.09587 0.98552 0.0
C1056 C 0.86317 0.08614 0.00403 0.0
C1057 C 0.88766 0.0919 0.01558 0.0
C1058 C 0.86481 0.07427 0.00853 0.0
C1059 C 0.85481 0.068 0.01393 0.0
C1060 C 0.843 0.0735 0.0149 0.0
C1061 C 0.84142 0.0854 0.01043 0.0
C1062 C 0.85141 0.09166 0.00505 0.0
H1063 H 0.89564 0.09721 0.01896 0.0
H1064 H 0.87925 0.09359 0.02106 0.0
H1065 H 0.89009 0.0822 0.01668 0.0
H1066 H 0.8737 0.06971 0.00751 0.0
H1067 H 0.85621 0.05871 0.01684 0.0
H1068 H 0.1363 0.37204 -0.0025 0.0
H1069 H 0.12247 0.36033 0.98503 0.0
H1070 H 0.09181 0.36571 0.00912 0.0
H1071 H 0.10554 0.37719 0.02171 0.0
H1072 H 0.09323 0.34221 0.00162 0.0
H1073 H 0.09551 0.37554 0.9636 0.0
H1074 H 0.11036 0.36971 0.96869 0.0
H1075 H 0.10116 0.37888 0.97813 0.0
C1076 C 0.12663 0.37069 0.00017 0.0
C1077 C 0.12201 0.37564 0.01056 0.0
C1078 C 0.11873 0.36404 0.993 0.0
C1079 C 0.10607 0.36232 -0.00394 0.0
C1080 C 0.10154 0.36696 0.00658 0.0
H1081 H 0.0364 0.33864 0.96858 0.0
H1082 H 0.0542 0.34424 0.98076 0.0
C1083 C 0.10942 0.37355 0.01375 0.0
C1084 C 0.09735 0.35599 0.98822 0.0
H1085 H 0.08303 0.35835 0.96125 0.0
C1086 C 0.09107 0.34568 0.99276 0.0
C1087 C 0.09455 0.36053 0.97666 0.0
C1088 C 0.10065 0.37182 0.97147 0.0
C1089 C 0.0819 0.33991 0.98611 0.0
C1090 C 0.07885 0.34466 0.97469 0.0
C1091 C 0.08543 0.35471 0.97 0.0
C1092 C 0.06826 0.33995 0.96779 0.0
C1093 C 0.0755 0.32882 0.99138 0.0
C1094 C 0.07025 0.33569 0.95644 0.0
C1095 C 0.06008 0.33249 0.94943 0.0
C1096 C 0.04771 0.33365 0.95359 0.0
C1097 C 0.04579 0.33761 0.9651 0.0
C1098 C 0.05596 0.34075 0.97211 0.0
H1099 H 0.08128 0.32435 -0.00156 0.0
H1100 H 0.06646 0.33148 -0.00463 0.0
H1101 H 0.0735 0.32223 0.9845 0.0
H1102 H 0.07967 0.33509 0.95292 0.0
H1103 H 0.0619 0.32951 0.9406 0.0
H1104 H 0.56171 0.9104 0.84132 0.0
H1105 H 0.54822 0.89355 0.84791 0.0
H1106 H 0.52212 0.91855 0.86263 0.0
H1107 H 0.53536 0.93539 0.85594 0.0
H1108 H 0.54193 0.88728 0.87068 0.0
H1109 H 0.49888 0.89688 0.84475 0.0
H1110 H 0.51374 0.90396 0.84118 0.0
H1111 H 0.50393 0.90972 0.85261 0.0
C1112 C 0.553 0.91232 0.8458 0.0
C1113 C 0.54961 0.92424 0.8481 0.0
C1114 C 0.54532 0.90268 0.84957 0.0
C1115 C 0.53408 0.9048 0.85561 0.0
C1116 C 0.53059 0.91671 0.85774 0.0
H1117 H 0.49385 0.86398 0.90815 0.0
H1118 H 0.50854 0.87627 0.89636 0.0
C1119 C 0.53824 0.92633 0.85397 0.0
C1120 C 0.52643 0.89461 0.86051 0.0
H1121 H 0.49645 0.8839 0.86219 0.0
C1122 C 0.53203 0.88642 0.86868 0.0
C1123 C 0.51357 0.89337 0.85777 0.0
C1124 C 0.50721 0.90138 0.8485 0.0
C1125 C 0.52494 0.87741 0.87465 0.0
C1126 C 0.51189 0.87674 0.87255 0.0
C1127 C 0.50643 0.88452 0.86391 0.0
C1128 C 0.50358 0.8686 0.87972 0.0
C1129 C 0.5315 0.86879 0.88325 0.0
C1130 C 0.49576 0.8603 0.87426 0.0
C1131 C 0.48725 0.8533 0.88099 0.0
C1132 C 0.48634 0.85454 0.89328 0.0
C1133 C 0.49434 0.86274 0.89872 0.0
C1134 C 0.50282 0.86973 0.892 0.0
H1135 H 0.54159 0.86787 0.88101 0.0
H1136 H 0.53089 0.87231 0.89227 0.0
H1137 H 0.52709 0.85972 0.88338 0.0
H1138 H 0.49614 0.85936 0.86478 0.0
H1139 H 0.48121 0.84711 0.87651 0.0
H1140 H 0.42849 0.55157 0.89921 0.0
H1141 H 0.44059 0.56604 0.91034 0.0
H1142 H 0.43722 0.59229 0.88138 0.0
H1143 H 0.42498 0.57802 0.87028 0.0
H1144 H 0.46313 0.57629 0.90385 0.0
H1145 H 0.42749 0.61194 0.90945 0.0
H1146 H 0.42346 0.59699 0.905 0.0
H1147 H 0.42949 0.60799 0.89435 0.0
C1148 C 0.4302 0.56047 0.89526 0.0
C1149 C 0.42574 0.56364 0.88386 0.0
C1150 C 0.43711 0.56872 0.90164 0.0
C1151 C 0.43964 0.5803 0.89677 0.0
C1152 C 0.43513 0.58351 0.88543 0.0
H1153 H 0.48779 0.63983 0.91352 0.0
H1154 H 0.47282 0.62603 0.90477 0.0
C1155 C 0.4282 0.5753 0.87906 0.0
C1156 C 0.44766 0.58877 0.90319 0.0
H1157 H 0.44873 0.61722 0.91356 0.0
C1158 C 0.45994 0.58519 0.90609 0.0
C1159 C 0.44349 0.60039 0.90606 0.0
C1160 C 0.43022 0.60453 0.90366 0.0
C1161 C 0.46828 0.59304 0.9115 0.0
C1162 C 0.46416 0.60472 0.91422 0.0
C1163 C 0.45185 0.60827 0.91143 0.0
C1164 C 0.4726 0.6134 0.91983 0.0
C1165 C 0.48154 0.58891 0.91398 0.0
C1166 C 0.47717 0.61099 0.93129 0.0
C1167 C 0.4857 0.61884 0.93632 0.0
C1168 C 0.4898 0.62927 0.92997 0.0
C1169 C 0.48487 0.63186 0.91862 0.0
C1170 C 0.47631 0.62399 0.91361 0.0
H1171 H 0.48399 0.58078 0.90906 0.0
H1172 H 0.48835 0.59618 0.91158 0.0
H1173 H 0.48257 0.58664 0.92357 0.0
H1174 H 0.47425 0.60294 0.9363 0.0
H1175 H 0.48924 0.61661 0.94511 0.0
H1176 H 0.56476 0.07036 0.63414 0.0
H1177 H 0.5509 0.08572 0.6251 0.0
H1178 H 0.5225 0.0587 0.62027 0.0
H1179 H 0.53615 0.04337 0.62942 0.0
H1180 H 0.54238 0.08573 0.60247 0.0
H1181 H 0.50202 0.086 0.63315 0.0
H1182 H 0.51694 0.07935 0.63724 0.0
H1183 H 0.50576 0.07104 0.62885 0.0
C1184 C 0.55547 0.06773 0.63136 0.0
C1185 C 0.55157 0.05563 0.63248 0.0
C1186 C 0.54757 0.07652 0.62619 0.0
C1187 C 0.53561 0.07339 0.62214 0.0
C1188 C 0.53157 0.06138 0.62357 0.0
H1189 H 0.49136 0.09916 0.56452 0.0
H1190 H 0.50647 0.08991 0.57825 0.0
C1191 C 0.53944 0.0526 0.62873 0.0
C1192 C 0.52781 0.08232 0.61538 0.0
H1193 H 0.49812 0.0937 0.61323 0.0
C1194 C 0.53277 0.08764 0.60493 0.0
C1195 C 0.51534 0.08495 0.61867 0.0
C1196 C 0.50975 0.08013 0.63016 0.0
C1197 C 0.52536 0.09497 0.59734 0.0
C1198 C 0.51261 0.09685 0.60019 0.0
C1199 C 0.50786 0.09212 0.61098 0.0
C1200 C 0.50386 0.10295 0.59173 0.0
C1201 C 0.53119 0.10046 0.58623 0.0
C1202 C 0.49721 0.11326 0.59483 0.0
C1203 C 0.48848 0.11858 0.58699 0.0
C1204 C 0.48618 0.11359 0.57597 0.0
C1205 C 0.49293 0.10329 0.5729 0.0
C1206 C 0.50164 0.09801 0.58072 0.0
H1207 H 0.54152 0.10138 0.58716 0.0
H1208 H 0.52936 0.09452 0.57877 0.0
H1209 H 0.52715 0.10948 0.58397 0.0
H1210 H 0.49873 0.11715 0.60334 0.0
H1211 H 0.48341 0.12648 0.58965 0.0
H1212 H 0.44595 0.4395 0.57929 0.0
H1213 H 0.45002 0.42079 0.56921 0.0
H1214 H 0.46292 0.40397 0.602 0.0
H1215 H 0.45874 0.42251 0.61217 0.0
H1216 H 0.47309 0.40992 0.56733 0.0
H1217 H 0.43957 0.37837 0.58964 0.0
H1218 H 0.4383 0.39453 0.59051 0.0
H1219 H 0.44922 0.38621 0.5998 0.0
C1220 C 0.44949 0.43177 0.58439 0.0
C1221 C 0.45203 0.43251 0.59653 0.0
C1222 C 0.45181 0.42109 0.57862 0.0
C1223 C 0.4566 0.41094 0.58489 0.0
C1224 C 0.45895 0.4116 0.59704 0.0
H1225 H 0.49169 0.34378 0.56963 0.0
H1226 H 0.48159 0.36099 0.57855 0.0
C1227 C 0.45664 0.42225 0.60282 0.0
C1228 C 0.46014 0.39999 0.5786 0.0
H1229 H 0.45611 0.36945 0.57862 0.0
C1230 C 0.46925 0.4011 0.56967 0.0
C1231 C 0.45515 0.38848 0.58172 0.0
C1232 C 0.44493 0.38681 0.59087 0.0
C1233 C 0.47386 0.39096 0.56408 0.0
C1234 C 0.46905 0.37942 0.56736 0.0
C1235 C 0.45977 0.37832 0.57613 0.0
C1236 C 0.47397 0.36838 0.5621 0.0
C1237 C 0.48417 0.39262 0.55501 0.0
C1238 C 0.47268 0.36664 0.54995 0.0
C1239 C 0.47845 0.35683 0.54482 0.0
C1240 C 0.48558 0.34856 0.55175 0.0
C1241 C 0.48632 0.35001 0.56403 0.0
C1242 C 0.48054 0.35983 0.56915 0.0
H1243 H 0.48867 0.40163 0.55537 0.0
H1244 H 0.49151 0.3856 0.55634 0.0
H1245 H 0.48017 0.39178 0.54604 0.0
H1246 H 0.46745 0.37303 0.5444 0.0
H1247 H 0.47761 0.35594 0.53536 0.0
H1248 H 0.92419 0.47633 0.91355 0.0
H1249 H 0.90869 0.4865 0.92553 0.0
H1250 H 0.88096 0.48256 0.89824 0.0
H1251 H 0.89637 0.47228 0.8862 0.0
H1252 H 0.89702 0.50807 0.91799 0.0
H1253 H 0.86195 0.47226 0.92884 0.0
H1254 H 0.87767 0.46897 0.92392 0.0
H1255 H 0.86599 0.47409 0.91345 0.0
C1256 C 0.91474 0.47744 0.91015 0.0
C1257 C 0.91154 0.47354 0.89888 0.0
C1258 C 0.9059 0.48326 0.91702 0.0
C1259 C 0.89366 0.4852 0.91281 0.0
C1260 C 0.89029 0.48097 0.90174 0.0
H1261 H 0.8441 0.54173 0.93574 0.0
H1262 H 0.85568 0.52747 0.92396 0.0
C1263 C 0.89914 0.47516 0.89484 0.0
C1264 C 0.88484 0.49262 0.91954 0.0
H1265 H 0.85652 0.49224 0.93371 0.0
C1266 C 0.88817 0.50461 0.92144 0.0
C1267 C 0.87334 0.48804 0.92406 0.0
C1268 C 0.86952 0.47511 0.92257 0.0
C1269 C 0.88029 0.51218 0.9277 0.0
C1270 C 0.86868 0.50769 0.93203 0.0
C1271 C 0.86537 0.49567 0.93024 0.0
C1272 C 0.86016 0.51534 0.9388 0.0
C1273 C 0.88454 0.52489 0.9298 0.0
C1274 C 0.85841 0.51296 0.95095 0.0
C1275 C 0.85178 0.52108 0.95772 0.0
C1276 C 0.84677 0.53171 0.95242 0.0
C1277 C 0.84791 0.53369 0.94011 0.0
C1278 C 0.85455 0.52556 0.93337 0.0
H1279 H 0.89472 0.52614 0.92802 0.0
H1280 H 0.87929 0.53127 0.92383 0.0
H1281 H 0.88259 0.52729 0.93905 0.0
H1282 H 0.86264 0.50509 0.95528 0.0
H1283 H 0.85101 0.51925 0.96716 0.0
H1284 H 0.88331 0.46021 0.5109 0.0
H1285 H 0.89939 0.46909 0.52329 0.0
H1286 H 0.88968 0.44407 0.55198 0.0
H1287 H 0.87374 0.43502 0.53964 0.0
H1288 H 0.89619 0.48015 0.54443 0.0
H1289 H 0.92767 0.44068 0.55034 0.0
H1290 H 0.91557 0.44156 0.53918 0.0
H1291 H 0.91169 0.43732 0.55425 0.0
C1292 C 0.88467 0.45652 0.51981 0.0
C1293 C 0.87726 0.44688 0.52427 0.0
C1294 C 0.89385 0.46162 0.52688 0.0
C1295 C 0.89585 0.45713 0.53849 0.0
C1296 C 0.88848 0.4475 0.54296 0.0
H1297 H 0.92835 0.49093 0.5982 0.0
H1298 H 0.91474 0.48339 0.58281 0.0
C1299 C 0.87932 0.44239 0.53591 0.0
C1300 C 0.90524 0.46283 0.54614 0.0
H1301 H 0.93083 0.45673 0.56348 0.0
C1302 C 0.90384 0.47507 0.54851 0.0
C1303 C 0.91532 0.45623 0.55132 0.0
C1304 C 0.91776 0.44325 0.54856 0.0
C1305 C 0.91199 0.48078 0.55625 0.0
C1306 C 0.92165 0.47401 0.56192 0.0
C1307 C 0.92333 0.46188 0.55922 0.0
C1308 C 0.92991 0.47919 0.57094 0.0
C1309 C 0.91019 0.49402 0.55826 0.0
C1310 C 0.94298 0.47917 0.56947 0.0
C1311 C 0.95081 0.48339 0.57831 0.0
C1312 C 0.94571 0.48765 0.58881 0.0
C1313 C 0.9326 0.48778 0.59019 0.0
C1314 C 0.92479 0.48354 0.58137 0.0
H1315 H 0.90507 0.4986 0.5508 0.0
H1316 H 0.90457 0.49506 0.56641 0.0
H1317 H 0.91933 0.49863 0.5594 0.0
H1318 H 0.94713 0.47579 0.56152 0.0
H1319 H 0.96087 0.48315 0.57697 0.0
H1320 H 0.1023 0.05789 0.56636 0.0
H1321 H 0.09375 0.04133 0.57875 0.0
H1322 H 0.10008 0.06167 0.60985 0.0
H1323 H 0.10852 0.0784 0.5975 0.0
H1324 H 0.10421 0.02769 0.59794 0.0
H1325 H 0.06236 0.0538 0.61134 0.0
H1326 H 0.0724 0.05874 0.59925 0.0
H1327 H 0.0773 0.06056 0.61425 0.0
C1328 C 0.10195 0.05884 0.57584 0.0
C1329 C 0.10599 0.06952 0.58093 0.0
C1330 C 0.09708 0.04935 0.5829 0.0
C1331 C 0.0961 0.05037 0.59518 0.0
C1332 C 0.10054 0.06081 0.60036 0.0
H1333 H 0.05858 0.00156 0.64665 0.0
H1334 H 0.07117 0.01795 0.63764 0.0
C1335 C 0.10543 0.07033 0.59329 0.0
C1336 C 0.09008 0.04057 0.60243 0.0
H1337 H 0.06412 0.03389 0.61913 0.0
C1338 C 0.09548 0.02904 0.60263 0.0
C1339 C 0.0787 0.0424 0.60855 0.0
C1340 C 0.07226 0.05451 0.60831 0.0
C1341 C 0.08975 0.01924 0.60872 0.0
C1342 C 0.07821 0.021 0.61457 0.0
C1343 C 0.07297 0.03259 0.61463 0.0
C1344 C 0.07106 0.01083 0.62014 0.0
C1345 C 0.09611 0.0071 0.60885 0.0
C1346 C 0.06673 0.00147 0.61325 0.0
C1347 C 0.05954 0.99211 0.61834 0.0
C1348 C 0.05646 0.99196 0.63044 0.0
C1349 C 0.0608 0.00138 0.63732 0.0
C1350 C 0.068 0.01075 0.6322 0.0
H1351 H 0.10633 0.00798 0.60708 0.0
H1352 H 0.09476 0.00214 0.61747 0.0
H1353 H 0.09199 0.00164 0.60182 0.0
H1354 H 0.06874 0.0015 0.60387 0.0
H1355 H 0.05631 0.98505 0.61276 0.0
H1356 H 0.60902 0.43054 0.41063 0.0
H1357 H 0.60277 0.44804 0.39822 0.0
H1358 H 0.60517 0.42681 0.36724 0.0
H1359 H 0.61129 0.40918 0.37959 0.0
H1360 H 0.61455 0.46002 0.37836 0.0
H1361 H 0.56878 0.43948 0.36684 0.0
H1362 H 0.57847 0.43352 0.37877 0.0
H1363 H 0.58242 0.43065 0.36371 0.0
C1364 C 0.60831 0.42959 0.40117 0.0
C1365 C 0.61052 0.41842 0.39611 0.0
C1366 C 0.60476 0.43962 0.39409 0.0
C1367 C 0.60331 0.43865 0.38185 0.0
C1368 C 0.60602 0.42767 0.3767 0.0
H1369 H 0.57111 0.48939 0.32937 0.0
H1370 H 0.58187 0.47218 0.33899 0.0
C1371 C 0.60957 0.41762 0.38377 0.0
C1372 C 0.5985 0.44905 0.37459 0.0
H1373 H 0.5733 0.45864 0.35819 0.0
C1374 C 0.60556 0.45973 0.3739 0.0
C1375 C 0.58677 0.44861 0.3688 0.0
C1376 C 0.57859 0.4375 0.36961 0.0
C1377 C 0.60118 0.47001 0.36755 0.0
C1378 C 0.58933 0.46963 0.36195 0.0
C1379 C 0.58239 0.45888 0.36247 0.0
C1380 C 0.58367 0.48041 0.35591 0.0
C1381 C 0.60931 0.48114 0.36682 0.0
C1382 C 0.58108 0.49072 0.36224 0.0
C1383 C 0.57495 0.50058 0.35678 0.0
C1384 C 0.57118 0.50026 0.34488 0.0
C1385 C 0.57389 0.48994 0.33853 0.0
C1386 C 0.58004 0.4801 0.34401 0.0
H1387 H 0.61934 0.4789 0.36843 0.0
H1388 H 0.60845 0.48592 0.35805 0.0
H1389 H 0.60628 0.48737 0.37369 0.0
H1390 H 0.58352 0.49104 0.37151 0.0
H1391 H 0.57296 0.50834 0.36196 0.0
H1392 H 0.5605 0.65423 0.9499 0.0
H1393 H 0.57911 0.64882 0.96157 0.0
H1394 H 0.55842 0.65393 -0.00629 0.0
H1395 H 0.5398 0.65952 0.98216 0.0
H1396 H 0.58402 0.66231 -0.00588 0.0
H1397 H 0.57951 0.61541 0.97899 0.0
H1398 H 0.58074 0.62703 0.96753 0.0
H1399 H 0.56718 0.62642 0.97696 0.0
C1400 C 0.55994 0.6544 0.95945 0.0
C1401 C 0.54859 0.65714 0.9651 0.0
C1402 C 0.57059 0.65127 0.9661 0.0
C1403 C 0.57005 0.65076 0.97849 0.0
C1404 C 0.559 0.65423 0.98415 0.0
H1405 H 0.60906 0.62219 0.03888 0.0
H1406 H 0.59687 0.63451 0.02475 0.0
C1407 C 0.54835 0.65739 0.97752 0.0
C1408 C 0.58059 0.64565 0.98558 0.0
H1409 H 0.5958 0.61921 0.99223 0.0
C1410 C 0.58669 0.65292 0.99366 0.0
C1411 C 0.58404 0.63339 0.98493 0.0
C1412 C 0.57749 0.62505 0.97672 0.0
C1413 C 0.59609 0.64819 0.00121 0.0
C1414 C 0.59926 0.63584 0.00081 0.0
C1415 C 0.5934 0.62869 0.99248 0.0
C1416 C 0.60783 0.62981 0.00951 0.0
C1417 C 0.60251 0.65646 0.00956 0.0
C1418 C 0.61806 0.62304 0.00565 0.0
C1419 C 0.62498 0.61586 0.01371 0.0
C1420 C 0.62175 0.61526 0.02577 0.0
C1421 C 0.61183 0.62245 0.02966 0.0
C1422 C 0.6049 0.6296 0.0216 0.0
H1423 H 0.60219 0.66599 0.00616 0.0
H1424 H 0.59759 0.65595 0.01821 0.0
H1425 H 0.61245 0.65383 0.01103 0.0
H1426 H 0.62042 0.62302 -0.00366 0.0
H1427 H 0.63258 0.61045 0.01041 0.0
H1428 H 0.35424 0.8901 0.00194 0.0
H1429 H 0.36854 0.87644 0.99218 0.0
H1430 H 0.35674 0.89111 0.95813 0.0
H1431 H 0.3423 0.90473 0.96777 0.0
H1432 H 0.35995 0.86525 0.95949 0.0
H1433 H 0.40102 0.89005 0.9767 0.0
H1434 H 0.38998 0.88447 0.98761 0.0
H1435 H 0.3853 0.89606 0.97699 0.0
C1436 C 0.35456 0.89034 0.99237 0.0
C1437 C 0.34723 0.89862 0.98564 0.0
C1438 C 0.36277 0.88255 0.98682 0.0
C1439 C 0.36384 0.88293 0.97446 0.0
C1440 C 0.35608 0.89073 0.96769 0.0
H1441 H 0.41132 0.85713 0.92007 0.0
H1442 H 0.39382 0.86401 0.93193 0.0
C1443 C 0.34786 0.89852 0.97322 0.0
C1444 C 0.37357 0.87579 0.96858 0.0
H1445 H 0.40526 0.87352 0.96503 0.0
C1446 C 0.36987 0.86699 0.96074 0.0
C1447 C 0.38649 0.87809 0.97025 0.0
C1448 C 0.391 0.88773 0.97827 0.0
C1449 C 0.37877 0.86044 0.95446 0.0
C1450 C 0.39168 0.86296 0.95592 0.0
C1451 C 0.39536 0.87157 0.96397 0.0
C1452 C 0.40154 0.85742 0.94866 0.0
C1453 C 0.37427 0.85088 0.94638 0.0
C1454 C 0.41175 0.85147 0.95411 0.0
C1455 C 0.42187 0.84762 0.94735 0.0
C1456 C 0.42198 0.84974 0.93501 0.0
C1457 C 0.41153 0.85533 0.92955 0.0
C1458 C 0.40145 0.85919 0.93631 0.0
H1459 H 0.36489 0.84738 0.94909 0.0
H1460 H 0.37342 0.85485 0.93725 0.0
H1461 H 0.38095 0.84321 0.94624 0.0
H1462 H 0.41205 0.85008 0.96363 0.0
H1463 H 0.42976 0.84334 0.95183 0.0
H1464 H 0.55228 0.32337 0.52598 0.0
H1465 H 0.56933 0.3292 0.51246 0.0
H1466 H 0.54605 0.32107 0.48269 0.0
H1467 H 0.52898 0.31506 0.49611 0.0
H1468 H 0.57191 0.31394 0.48051 0.0
H1469 H 0.56637 0.36152 0.49328 0.0
H1470 H 0.56919 0.35075 0.50526 0.0
H1471 H 0.55486 0.35006 0.49697 0.0
C1472 C 0.55083 0.32264 0.51656 0.0
C1473 C 0.5392 0.3189 0.51212 0.0
C1474 C 0.56058 0.32602 0.50886 0.0
C1475 C 0.55885 0.32578 0.49659 0.0
C1476 C 0.54754 0.32137 0.49214 0.0
H1477 H 0.59342 0.35232 0.43242 0.0
H1478 H 0.58185 0.34084 0.44768 0.0
C1479 C 0.53779 0.31796 0.49983 0.0
C1480 C 0.56841 0.33095 0.48837 0.0
H1481 H 0.58201 0.3576 0.47935 0.0
C1482 C 0.5742 0.32346 0.48028 0.0
C1483 C 0.57135 0.34339 0.48811 0.0
C1484 C 0.56507 0.35195 0.49629 0.0
C1485 C 0.58283 0.32811 0.4719 0.0
C1486 C 0.58555 0.3406 0.47147 0.0
C1487 C 0.57996 0.34802 0.47973 0.0
C1488 C 0.59352 0.34639 0.46212 0.0
C1489 C 0.589 0.31962 0.4636 0.0
C1490 C 0.6039 0.3534 0.46517 0.0
C1491 C 0.61048 0.36009 0.45646 0.0
C1492 C 0.60675 0.35995 0.44455 0.0
C1493 C 0.59658 0.35262 0.44149 0.0
C1494 C 0.59 0.34595 0.4502 0.0
H1495 H 0.58905 0.31022 0.46736 0.0
H1496 H 0.58366 0.3197 0.45518 0.0
H1497 H 0.5988 0.32239 0.46158 0.0
H1498 H 0.60671 0.35392 0.47433 0.0
H1499 H 0.61826 0.36563 0.45912 0.0
H1500 H 0.326 0.08694 0.491 0.0
H1501 H 0.34416 0.09751 0.49884 0.0
H1502 H 0.36759 0.06689 0.49213 0.0
H1503 H 0.34945 0.05618 0.48455 0.0
H1504 H 0.35944 0.08952 0.51812 0.0
H1505 H 0.38705 0.09575 0.4767 0.0
H1506 H 0.3705 0.09224 0.47675 0.0
H1507 H 0.38183 0.08059 0.47998 0.0
C1508 C 0.33505 0.0825 0.49112 0.0
C1509 C 0.33637 0.07085 0.48683 0.0
C1510 C 0.3454 0.08855 0.49558 0.0
C1511 C 0.35726 0.08309 0.49582 0.0
C1512 C 0.35859 0.07141 0.49168 0.0
H1513 H 0.43067 0.0992 0.52248 0.0
H1514 H 0.41224 0.09112 0.51274 0.0
C1515 C 0.34823 0.06533 0.48725 0.0
C1516 C 0.36811 0.08935 0.50096 0.0
H1517 H 0.39738 0.10027 0.49458 0.0
C1518 C 0.3677 0.09198 0.51297 0.0
C1519 C 0.37887 0.09248 0.4942 0.0
C1520 C 0.37961 0.09023 0.48116 0.0
C1521 C 0.37793 0.09735 0.51852 0.0
C1522 C 0.38874 0.10043 0.51178 0.0
C1523 C 0.38908 0.09793 0.49972 0.0
C1524 C 0.39999 0.10579 0.51719 0.0
C1525 C 0.37724 0.09929 0.53162 0.0
C1526 C 0.3993 0.11688 0.5227 0.0
C1527 C 0.40982 0.12151 0.52835 0.0
C1528 C 0.42125 0.11518 0.52849 0.0
C1529 C 0.42201 0.10429 0.52259 0.0
C1530 C 0.41148 0.09966 0.517 0.0
H1531 H 0.36973 0.09376 0.53597 0.0
H1532 H 0.3863 0.09704 0.53601 0.0
H1533 H 0.37513 0.10891 0.53305 0.0
H1534 H 0.3906 0.1219 0.52272 0.0
H1535 H 0.40895 0.12997 0.53272 0.0
H1536 H 0.99189 0.60313 0.57573 0.0
H1537 H 0.98288 0.5868 0.58823 0.0
H1538 H 0.01786 0.58311 0.60714 0.0
H1539 H 0.02689 0.59945 0.59483 0.0
H1540 H 0.99187 0.56339 0.58963 0.0
H1541 H 0.99225 0.58283 0.63389 0.0
H1542 H 0.99379 0.59198 0.6204 0.0
H1543 H 0.00715 0.58406 0.62656 0.0
C1544 C -0.0024 0.59898 0.58268 0.0
C1545 C 0.01012 0.60258 0.58427 0.0
C1546 C 0.99243 0.58965 0.5898 0.0
C1547 C -0.00035 0.58385 0.5987 0.0
C1548 C 0.01204 0.58763 0.60049 0.0
H1549 H 0.0005 0.52015 0.64316 0.0
H1550 H 0.0039 0.53938 0.63233 0.0
C1551 C 0.01721 0.59693 0.59338 0.0
C1552 C 0.99468 0.57317 0.60545 0.0
H1553 H 0.99053 0.56128 0.63347 0.0
C1554 C 0.99136 0.56297 0.59921 0.0
C1555 C 0.99405 0.57267 0.61794 0.0
C1556 C -0.00312 0.58351 0.62509 0.0
C1557 C 0.98803 0.55209 0.60514 0.0
C1558 C 0.98784 0.55147 0.61764 0.0
C1559 C 0.99074 0.56178 0.62388 0.0
C1560 C 0.98544 0.54001 0.62442 0.0
C1561 C 0.98533 0.54119 0.598 0.0
C1562 C 0.97384 0.53409 0.62371 0.0
C1563 C 0.97187 0.52308 0.62989 0.0
C1564 C 0.98147 0.51781 0.63685 0.0
C1565 C 0.99294 0.52394 0.63779 0.0
C1566 C -0.00509 0.53492 0.63162 0.0
H1567 H 0.9883 0.54255 0.58863 0.0
H1568 H 0.99015 0.5331 0.60187 0.0
H1569 H 0.97509 0.53939 0.59813 0.0
H1570 H 0.9663 0.53803 0.61844 0.0
H1571 H 0.96276 0.51885 0.62939 0.0
H1572 H 0.03783 0.9127 0.61943 0.0
H1573 H 0.02659 0.89545 0.61189 0.0
H1574 H 0.99131 0.91173 0.62086 0.0
H1575 H 0.00248 0.92913 0.62835 0.0
H1576 H 0.00907 0.87936 0.62328 0.0
H1577 H 0.98805 0.90546 0.58522 0.0
H1578 H 0.00094 0.91115 0.59369 0.0
H1579 H 0.9853 0.9113 0.59957 0.0
C1580 C 0.02768 0.91261 0.61987 0.0
C1581 C 0.02105 0.92235 0.62441 0.0
C1582 C 0.02128 0.90273 0.61556 0.0
C1583 C 0.00813 0.90241 0.61566 0.0
C1584 C 0.00147 0.91191 0.62052 0.0
H1585 H 0.95781 0.85018 0.5843 0.0
H1586 H 0.96609 0.86713 0.59507 0.0
C1587 C 0.00787 0.92181 0.62486 0.0
C1588 C 0.00148 0.89219 0.61042 0.0
H1589 H 0.9829 0.88485 0.58722 0.0
C1590 C 0.00329 0.88055 0.61543 0.0
C1591 C 0.99393 0.8938 0.60021 0.0
C1592 C 0.99197 0.90607 0.59426 0.0
C1593 C -0.00219 0.87045 0.61044 0.0
C1594 C 0.99055 0.87201 0.60003 0.0
C1595 C 0.98848 0.88368 0.5952 0.0
C1596 C 0.98549 0.86163 0.59371 0.0
C1597 C -0.00019 0.85819 0.6164 0.0
C1598 C 0.99365 0.853 0.58927 0.0
C1599 C 0.98896 0.84339 0.58301 0.0
C1600 C 0.97602 0.84233 0.58092 0.0
C1601 C 0.96785 0.85096 0.58541 0.0
C1602 C 0.97255 0.86057 0.5917 0.0
H1603 H 0.00222 0.8589 0.62589 0.0
H1604 H 0.99133 0.85245 0.61569 0.0
H1605 H 0.00773 0.85363 0.61204 0.0
H1606 H 0.00369 0.85378 0.59049 0.0
H1607 H -0.0045 0.8369 0.57964 0.0
H1608 H 0.9811 0.44802 0.86096 0.0
H1609 H 0.98466 0.4293 0.87254 0.0
H1610 H 0.94472 0.42338 0.87483 0.0
H1611 H 0.9411 0.44216 0.8632 0.0
H1612 H 0.95621 0.4198 0.89617 0.0
H1613 H 0.98173 0.39495 0.86232 0.0
H1614 H 0.98874 0.40936 0.86456 0.0
H1615 H 0.97304 0.40858 0.85878 0.0
C1616 C 0.97307 0.4427 0.86386 0.0
C1617 C 0.96081 0.44666 0.86132 0.0
C1618 C 0.97512 0.43196 0.87042 0.0
C1619 C 0.96496 0.42484 0.87439 0.0
C1620 C 0.95269 0.42874 0.87184 0.0
H1621 H 0.98346 0.3543 0.90809 0.0
H1622 H 0.97334 0.36962 0.89511 0.0
C1623 C 0.95063 0.43954 0.86531 0.0
C1624 C 0.96725 0.41364 0.88165 0.0
H1625 H 0.98457 0.38777 0.88254 0.0
C1626 C 0.96225 0.41269 0.89312 0.0
C1627 C 0.97491 0.40424 0.87761 0.0
C1628 C 0.97979 0.40426 0.86509 0.0
C1629 C 0.96531 0.40296 0.90089 0.0
C1630 C 0.9738 0.39408 0.89716 0.0
C1631 C 0.9782 0.39465 0.88546 0.0
C1632 C 0.97899 0.38467 0.90546 0.0
C1633 C 0.95951 0.40237 0.91307 0.0
C1634 C 0.98555 0.38804 0.91555 0.0
C1635 C 0.99128 0.37934 0.92297 0.0
C1636 C 0.99072 0.36707 0.92039 0.0
C1637 C 0.98405 0.36368 0.91033 0.0
C1638 C 0.97826 0.37241 0.90291 0.0
H1639 H 0.95031 0.40707 0.91311 0.0
H1640 H 0.95814 0.3929 0.91635 0.0
H1641 H 0.96579 0.40693 0.91929 0.0
H1642 H 0.98654 0.39746 0.91752 0.0
H1643 H -0.00361 0.3823 0.93059 0.0
H1644 H 0.05025 0.07888 0.85941 0.0
H1645 H 0.03582 0.093 0.86835 0.0
H1646 H 0.00433 0.07236 0.85644 0.0
H1647 H 0.01868 0.05809 0.84757 0.0
H1648 H 0.01522 0.10722 0.85903 0.0
H1649 H 0.00037 0.0723 0.89282 0.0
H1650 H 0.01408 0.07057 0.88368 0.0
H1651 H -0.00129 0.06822 0.8777 0.0
C1652 C 0.04025 0.0774 0.85858 0.0
C1653 C 0.03562 0.06727 0.8529 0.0
C1654 C 0.03202 0.0855 0.86367 0.0
C1655 C 0.01903 0.0836 0.86321 0.0
C1656 C 0.01434 0.07386 0.85705 0.0
H1657 H 0.95807 0.11645 0.90139 0.0
H1658 H 0.97032 0.10508 0.88742 0.0
C1659 C 0.02256 0.06574 0.85195 0.0
C1660 C 0.01048 0.09143 0.86978 0.0
H1661 H 0.99056 0.09124 0.89339 0.0
C1662 C 0.00978 0.10375 0.86652 0.0
C1663 C 0.00344 0.08685 0.87956 0.0
C1664 C 0.00422 0.07379 0.88375 0.0
C1665 C 0.00213 0.11161 0.87275 0.0
C1666 C -0.00478 0.10705 0.88263 0.0
C1667 C -0.00417 0.09471 0.88579 0.0
C1668 C 0.98755 0.11489 0.89009 0.0
C1669 C 0.00141 0.12469 0.86863 0.0
C1670 C 0.99315 0.12427 0.89617 0.0
C1671 C 0.98616 0.13083 0.90415 0.0
C1672 C 0.97347 0.12804 0.9063 0.0
C1673 C 0.96783 0.11883 0.89998 0.0
C1674 C 0.97481 0.11231 0.89198 0.0
H1675 H 0.00416 0.12596 0.85919 0.0
H1676 H 0.99181 0.12832 0.86977 0.0
H1677 H 0.00797 0.13002 0.87396 0.0
H1678 H 0.00304 0.12623 0.89506 0.0
H1679 H 0.99081 0.13783 0.90891 0.0
H1680 H 0.61432 0.91596 0.57814 0.0
H1681 H 0.61117 0.93131 0.59271 0.0
H1682 H 0.6377 0.95457 0.57423 0.0
H1683 H 0.64078 0.93934 0.55946 0.0
H1684 H 0.62769 0.94315 0.60783 0.0
H1685 H 0.60565 0.97495 0.57476 0.0
H1686 H 0.60836 0.9593 0.57189 0.0
H1687 H 0.6211 0.9699 0.57103 0.0
C1688 C 0.61957 0.9243 0.5772 0.0
C1689 C 0.62769 0.92648 0.56755 0.0
C1690 C 0.61777 0.93305 0.58556 0.0
C1691 C 0.62404 0.94415 0.58443 0.0
C1692 C 0.63259 0.94615 0.57513 0.0
H1693 H 0.61213 0.01009 0.62214 0.0
H1694 H 0.62138 0.99461 0.6101 0.0
C1695 C 0.63437 0.93741 0.56673 0.0
C1696 C 0.62115 0.95376 0.59272 0.0
H1697 H 0.60795 0.98168 0.59409 0.0
C1698 C 0.62343 0.9516 0.60484 0.0
C1699 C 0.61557 0.96477 0.58878 0.0
C1700 C 0.61241 0.96738 0.57593 0.0
C1701 C 0.62026 0.96017 0.61314 0.0
C1702 C 0.61448 0.97108 0.6092 0.0
C1703 C 0.61243 0.97332 0.59707 0.0
C1704 C 0.60992 0.98009 0.6175 0.0
C1705 C 0.62315 0.9575 0.62602 0.0
C1706 C 0.60048 0.97704 0.62573 0.0
C1707 C 0.59516 0.98586 0.63264 0.0
C1708 C 0.59913 -0.00206 0.63137 0.0
C1709 C 0.60885 0.00089 0.62335 0.0
C1710 C 0.61415 0.99205 0.61645 0.0
H1711 H 0.63069 0.95064 0.62715 0.0
H1712 H 0.62606 0.96579 0.63046 0.0
H1713 H 0.61462 0.95389 0.63051 0.0
H1714 H 0.59688 0.96792 0.6265 0.0
H1715 H 0.58767 0.98328 0.63869 0.0
H1716 H 0.61146 0.06843 0.89831 0.0
H1717 H 0.60807 0.05246 0.88442 0.0
H1718 H 0.63498 0.03 0.90329 0.0
H1719 H 0.63832 0.04586 0.91736 0.0
H1720 H 0.62443 0.03989 0.86953 0.0
H1721 H 0.60276 0.00966 0.90424 0.0
H1722 H 0.60552 0.02546 0.90634 0.0
H1723 H 0.61827 0.0149 0.90751 0.0
C1724 C 0.61675 0.06013 0.89947 0.0
C1725 C 0.62505 0.05836 0.90903 0.0
C1726 C 0.61481 0.05103 0.8915 0.0
C1727 C 0.62111 0.03999 0.89295 0.0
C1728 C 0.62985 0.03838 0.90215 0.0
H1729 H 0.60841 0.97232 0.85835 0.0
H1730 H 0.61775 0.98829 0.86971 0.0
C1731 C 0.63178 0.04748 0.91015 0.0
C1732 C 0.61805 0.03 0.88516 0.0
H1733 H 0.60468 0.00206 0.88522 0.0
C1734 C 0.62016 0.03159 0.87295 0.0
C1735 C 0.61247 0.01919 0.88966 0.0
C1736 C 0.6095 0.01718 0.90263 0.0
C1737 C 0.61683 0.02264 0.8651 0.0
C1738 C 0.61105 0.01193 0.86959 0.0
C1739 C 0.60915 0.01026 0.88182 0.0
C1740 C 0.60632 0.00254 0.86178 0.0
C1741 C 0.61958 0.0247 0.85211 0.0
C1742 C 0.59685 0.00527 0.8535 0.0
C1743 C 0.59149 -0.00383 0.84697 0.0
C1744 C 0.59543 0.98413 0.84869 0.0
C1745 C 0.60514 0.98148 0.8568 0.0
C1746 C 0.6105 0.9906 0.86331 0.0
H1747 H 0.62716 0.03145 0.85058 0.0
H1748 H 0.62235 0.01618 0.84801 0.0
H1749 H 0.61101 0.02818 0.84757 0.0
H1750 H 0.59329 0.01438 0.85236 0.0
H1751 H 0.584 -0.00147 0.84084 0.0
H1752 H 0.38901 0.53181 0.85882 0.0
H1753 H 0.38278 0.5177 0.87498 0.0
H1754 H 0.39012 0.48781 0.85281 0.0
H1755 H 0.3966 0.50183 0.83673 0.0
H1756 H 0.36298 0.50021 0.8739 0.0
H1757 H 0.40907 0.47892 0.8839 0.0
H1758 H 0.40759 0.49323 0.87584 0.0
H1759 H 0.40486 0.47941 0.86852 0.0
C1760 C 0.38964 0.52224 0.8575 0.0
C1761 C 0.39356 0.51792 0.84659 0.0
C1762 C 0.38594 0.51419 0.86669 0.0
C1763 C 0.38618 0.50172 0.86514 0.0
C1764 C 0.39009 0.4974 0.85426 0.0
H1765 H 0.36643 0.43617 0.90377 0.0
H1766 H 0.37294 0.4519 0.88934 0.0
C1767 C 0.39372 0.50542 0.84507 0.0
C1768 C 0.38179 0.49318 0.87465 0.0
H1769 H 0.39111 0.4692 0.89232 0.0
C1770 C 0.36913 0.49349 0.87804 0.0
C1771 C 0.38985 0.48444 0.87997 0.0
C1772 C 0.40363 0.484 0.87697 0.0
C1773 C 0.3642 0.48499 0.88633 0.0
C1774 C 0.37224 0.47612 0.89152 0.0
C1775 C 0.38495 0.47598 0.88829 0.0
C1776 C 0.36763 0.46671 0.90014 0.0
C1777 C 0.35037 0.48533 0.88914 0.0
C1778 C 0.36244 0.46981 0.911 0.0
C1779 C 0.35863 0.46083 0.91926 0.0
C1780 C 0.36007 0.44857 0.91685 0.0
C1781 C 0.36518 0.44551 0.90591 0.0
C1782 C 0.36893 0.45449 0.89766 0.0
H1783 H 0.34503 0.49064 0.8823 0.0
H1784 H 0.3464 0.47608 0.88989 0.0
H1785 H 0.349 0.48962 0.89773 0.0
H1786 H 0.36157 0.47918 0.91319 0.0
H1787 H 0.35481 0.46349 0.92763 0.0
H1788 H 0.88404 0.03073 0.05395 0.0
H1789 H 0.89866 0.02081 0.06792 0.0
H1790 H 0.88004 0.03754 0.09685 0.0
H1791 H 0.8653 0.04731 0.08303 0.0
H1792 H 0.91517 0.03091 0.08362 0.0
H1793 H 0.8804 0.00214 0.10779 0.0
H1794 H 0.87697 0.00972 0.09375 0.0
H1795 H 0.8762 0.01781 0.10719 0.0
C1796 C 0.88303 0.03227 0.06329 0.0
C1797 C 0.87345 0.03975 0.06738 0.0
C1798 C 0.89139 0.02659 0.07126 0.0
C1799 C 0.89028 0.02825 0.08344 0.0
C1800 C 0.88087 0.03589 0.08751 0.0
H1801 H 0.93056 0.012 0.14743 0.0
H1802 H 0.91607 0.01859 0.13171 0.0
C1803 C 0.87251 0.04154 0.07958 0.0
C1804 C 0.89915 0.0223 0.09191 0.0
H1805 H 0.90046 0.00412 0.11696 0.0
C1806 C 0.91199 0.02493 0.09083 0.0
C1807 C 0.89497 0.01446 0.10128 0.0
C1808 C 0.8814 0.01076 0.10253 0.0
C1809 C 0.9207 0.02033 0.09916 0.0
C1810 C 0.91645 0.01281 0.10872 0.0
C1811 C 0.90366 0.00993 0.10964 0.0
C1812 C 0.92502 0.00835 0.11821 0.0
C1813 C 0.9343 0.02393 0.09793 0.0
C1814 C 0.93475 0.00028 0.11585 0.0
C1815 C 0.94305 -0.00351 0.12483 0.0
C1816 C 0.94168 0.00065 0.13632 0.0
C1817 C 0.93183 0.00862 0.13867 0.0
C1818 C 0.92353 0.01237 0.12971 0.0
H1819 H 0.93564 0.03154 0.09137 0.0
H1820 H 0.93815 0.02656 0.10657 0.0
H1821 H 0.93981 0.01613 0.09496 0.0
H1822 H 0.93601 -0.00297 0.10703 0.0
H1823 H 0.95075 0.99065 0.12265 0.0
H1824 H 0.34093 0.38997 0.98485 0.0
H1825 H 0.35216 0.37592 -0.00168 0.0
H1826 H 0.38744 0.3884 0.98377 0.0
H1827 H 0.37637 0.40236 0.97021 0.0
H1828 H 0.38534 0.3628 0.98673 0.0
H1829 H 0.37221 0.38643 0.02738 0.0
H1830 H 0.35947 0.38214 0.01804 0.0
H1831 H 0.3705 0.39335 0.01276 0.0
C1832 C 0.35108 0.38971 0.9845 0.0
C1833 C 0.35775 0.39736 0.9765 0.0
C1834 C 0.35747 0.38171 0.99223 0.0
C1835 C 0.37063 0.38124 0.99213 0.0
C1836 C 0.37729 0.38865 0.984 0.0
H1837 H 0.43286 0.35031 0.02955 0.0
H1838 H 0.41819 0.3589 0.01499 0.0
C1839 C 0.37093 0.39665 0.97628 0.0
C1840 C 0.37756 0.37321 0.0006 0.0
H1841 H 0.38485 0.36918 0.02985 0.0
C1842 C 0.38517 0.36413 -0.00383 0.0
C1843 C 0.37727 0.37494 0.01291 0.0
C1844 C 0.36951 0.38479 0.01811 0.0
C1845 C 0.39267 0.35681 0.00371 0.0
C1846 C 0.39271 0.35882 0.01598 0.0
C1847 C 0.38479 0.36765 0.02044 0.0
C1848 C 0.40154 0.35251 0.02424 0.0
C1849 C 0.40047 0.34703 -0.00152 0.0
C1850 C 0.39707 0.34614 0.03434 0.0
C1851 C 0.40546 0.34128 0.04276 0.0
C1852 C 0.41847 0.34281 0.04126 0.0
C1853 C 0.42291 0.34893 0.03097 0.0
C1854 C 0.41453 0.35378 0.02258 0.0
H1855 H 0.39643 0.34411 0.99001 0.0
H1856 H 0.41004 0.35056 -0.0034 0.0
H1857 H 0.40129 0.33906 0.00467 0.0
H1858 H 0.38708 0.34513 0.03583 0.0
H1859 H 0.40173 0.33663 0.0506 0.0
H1860 H 0.55589 0.15062 0.03659 0.0
H1861 H 0.57302 0.14656 0.02291 0.0
H1862 H 0.54713 0.12874 0.00014 0.0
H1863 H 0.52995 0.13287 0.01363 0.0
H1864 H 0.58101 0.12412 0.01722 0.0
H1865 H 0.56677 0.15003 0.97664 0.0
H1866 H 0.56 0.15264 0.99094 0.0
H1867 H 0.55446 0.14043 0.98235 0.0
C1868 C 0.55379 0.14602 0.02857 0.0
C1869 C 0.54154 0.14206 0.02622 0.0
C1870 C 0.5636 0.1437 0.02077 0.0
C1871 C 0.56132 0.13748 0.01044 0.0
C1872 C 0.54906 0.13379 0.00793 0.0
H1873 H 0.60628 0.08994 0.97154 0.0
H1874 H 0.59256 0.10014 0.98517 0.0
C1875 C 0.53925 0.13609 0.0157 0.0
C1876 C 0.57187 0.13388 0.00281 0.0
H1877 H 0.58175 0.1341 0.9741 0.0
C1878 C 0.58128 0.12645 0.00782 0.0
C1879 C 0.57232 0.13705 0.99058 0.0
C1880 C 0.56291 0.14558 0.98483 0.0
C1881 C 0.59076 0.12163 0.00083 0.0
C1882 C 0.59069 0.12414 0.98848 0.0
C1883 C 0.58168 0.13207 0.98355 0.0
C1884 C 0.59941 0.11805 0.98046 0.0
C1885 C 0.60066 0.11375 0.00671 0.0
C1886 C 0.60767 0.12476 0.97312 0.0
C1887 C 0.61553 0.11894 0.96525 0.0
C1888 C 0.61516 0.10632 0.96451 0.0
C1889 C 0.60686 0.09966 0.9719 0.0
C1890 C 0.59905 0.10547 0.97976 0.0
H1891 H 0.60168 0.11567 0.01622 0.0
H1892 H 0.5979 0.10416 0.00613 0.0
H1893 H 0.60991 0.11503 0.00231 0.0
H1894 H 0.60801 0.13449 0.97347 0.0
H1895 H 0.62178 0.12435 0.95965 0.0
H1896 H 0.35834 0.56345 0.51586 0.0
H1897 H 0.37636 0.57351 0.50645 0.0
H1898 H 0.35446 0.60592 0.50101 0.0
H1899 H 0.3366 0.59609 0.51091 0.0
H1900 H 0.37723 0.58237 0.48375 0.0
H1901 H 0.38681 0.61929 0.51402 0.0
H1902 H 0.37703 0.60652 0.51818 0.0
H1903 H 0.37079 0.61885 0.50919 0.0
C1904 C 0.35751 0.57285 0.5131 0.0
C1905 C 0.34615 0.57907 0.51445 0.0
C1906 C 0.36777 0.57855 0.50756 0.0
C1907 C 0.36685 0.59055 0.50324 0.0
C1908 C 0.35551 0.59677 0.50456 0.0
H1909 H 0.4108 0.63724 0.45629 0.0
H1910 H 0.39505 0.62831 0.46978 0.0
C1911 C 0.34528 0.5911 0.51012 0.0
C1912 C 0.37737 0.59625 0.4965 0.0
H1913 H 0.39663 0.62088 0.49501 0.0
C1914 C 0.38156 0.59072 0.48629 0.0
C1915 C 0.38297 0.60718 0.49979 0.0
C1916 C 0.37926 0.61325 0.51095 0.0
C1917 C 0.39099 0.59596 0.47912 0.0
C1918 C 0.39647 0.60695 0.48234 0.0
C1919 C 0.39237 0.61246 0.49258 0.0
C1920 C 0.40641 0.61287 0.47503 0.0
C1921 C 0.39478 0.58987 0.46799 0.0
C1922 C 0.4181 0.60729 0.4738 0.0
C1923 C 0.42711 0.61235 0.46612 0.0
C1924 C 0.42458 0.62311 0.45955 0.0
C1925 C 0.41302 0.62893 0.46118 0.0
C1926 C 0.40402 0.62386 0.46889 0.0
H1927 H 0.38787 0.58292 0.46549 0.0
H1928 H 0.39581 0.59657 0.4605 0.0
H1929 H 0.40398 0.58537 0.46942 0.0
H1930 H 0.42017 0.59889 0.4786 0.0
H1931 H 0.43593 0.60767 0.46515 0.0
H1932 H 0.55863 0.82835 0.4447 0.0
H1933 H 0.57603 0.83327 0.45775 0.0
H1934 H 0.5505 0.85201 0.48015 0.0
H1935 H 0.53306 0.84703 0.4673 0.0
H1936 H 0.58375 0.85624 0.46194 0.0
H1937 H 0.57122 0.8324 0.50418 0.0
H1938 H 0.56411 0.82882 0.49027 0.0
H1939 H 0.55855 0.84142 0.49831 0.0
C1940 C 0.55667 0.83332 0.45253 0.0
C1941 C 0.54444 0.83731 0.45493 0.0
C1942 C 0.56664 0.83613 0.45996 0.0
C1943 C 0.56454 0.84289 0.46999 0.0
C1944 C 0.5523 0.84656 0.47261 0.0
H1945 H 0.60903 0.89378 0.50496 0.0
H1946 H 0.59541 0.8824 0.49218 0.0
C1947 C 0.54234 0.84377 0.46519 0.0
C1948 C 0.57523 0.84712 0.47709 0.0
H1949 H 0.58587 0.84883 0.50541 0.0
C1950 C 0.58433 0.85446 0.47142 0.0
C1951 C 0.57608 0.84468 0.48942 0.0
C1952 C 0.56704 0.83629 0.49589 0.0
C1953 C 0.59386 0.85993 0.47785 0.0
C1954 C 0.59419 0.85815 0.49029 0.0
C1955 C 0.58551 0.8503 0.49589 0.0
C1956 C 0.60292 0.86496 0.4977 0.0
C1957 C 0.6034 0.8677 0.47129 0.0
C1958 C 0.61154 0.85891 0.50519 0.0
C1959 C 0.61935 0.8654 0.51257 0.0
C1960 C 0.61856 0.87805 0.51266 0.0
C1961 C 0.60993 0.88406 0.50509 0.0
C1962 C 0.60218 0.87757 0.49772 0.0
H1963 H 0.60422 0.86524 0.4619 0.0
H1964 H 0.6004 0.87726 0.4714 0.0
H1965 H 0.61278 0.86691 0.4755 0.0
H1966 H 0.61218 0.84916 0.50536 0.0
H1967 H 0.62585 0.8605 0.51831 0.0
H1968 H 0.03376 0.42626 0.34259 0.0
H1969 H 0.02024 0.41074 0.35196 0.0
H1970 H 0.04501 0.40829 0.38204 0.0
H1971 H 0.05857 0.42371 0.37282 0.0
H1972 H 0.02726 0.38559 0.36244 0.0
H1973 H 0.00873 0.41809 0.39429 0.0
H1974 H 0.016 0.42288 0.38047 0.0
H1975 H 0.0255 0.41751 0.39266 0.0
C1976 C 0.0364 0.42233 0.35114 0.0
C1977 C 0.04719 0.4263 0.357 0.0
C1978 C 0.02868 0.41346 0.35646 0.0
C1979 C 0.0316 0.4085 0.36771 0.0
C1980 C 0.04257 0.41211 0.37338 0.0
H1981 H 0.99303 0.36462 0.42083 0.0
H1982 H 0.00807 0.37682 0.40928 0.0
C1983 C 0.05031 0.42092 0.36808 0.0
C1984 C 0.02288 0.40001 0.37388 0.0
H1985 H 0.00266 0.39776 0.39721 0.0
C1986 C 0.02182 0.38822 0.37001 0.0
C1987 C 0.01586 0.40353 0.38375 0.0
C1988 C 0.01646 0.41621 0.38804 0.0
C1989 C 0.01409 0.3797 0.37598 0.0
C1990 C 0.00708 0.38321 0.3859 0.0
C1991 C 0.00809 0.39507 0.38965 0.0
C1992 C -0.00141 0.37482 0.39257 0.0
C1993 C 0.01377 0.36697 0.37182 0.0
C1994 C 0.98833 0.36955 0.38699 0.0
C1995 C 0.97974 0.36249 0.39357 0.0
C1996 C 0.98118 0.36072 0.40587 0.0
C1997 C 0.99162 0.36583 0.41138 0.0
C1998 C 0.00023 0.3728 0.4048 0.0
H1999 H 0.02214 0.36492 0.3664 0.0
H2000 H 0.01327 0.36033 0.37942 0.0
H2001 H 0.00533 0.3658 0.36625 0.0
H2002 H 0.98671 0.3712 0.37762 0.0
H2003 H 0.97177 0.35875 0.38906 0.0
H2004 H 0.92705 0.0858 0.34925 0.0
H2005 H 0.9427 0.1002 0.3558 0.0
H2006 H 0.96914 0.07121 0.36186 0.0
H2007 H 0.95364 0.05678 0.35521 0.0
H2008 H 0.95322 0.09963 0.37817 0.0
H2009 H 0.99034 0.09668 0.34413 0.0
H2010 H 0.97459 0.09121 0.34193 0.0
H2011 H 0.98569 0.08226 0.35042 0.0
C2012 C 0.93626 0.0825 0.35179 0.0
C2013 C 0.93909 0.07013 0.35172 0.0
C2014 C 0.94519 0.09075 0.35553 0.0
C2015 C 0.95712 0.0868 0.35918 0.0
C2016 C 0.96007 0.0745 0.35884 0.0
H2017 H 0.02053 0.11257 0.39678 0.0
H2018 H 0.00517 0.1017 0.38528 0.0
C2019 C 0.95116 0.06625 0.35511 0.0
C2020 C 0.96611 0.09532 0.36432 0.0
H2021 H -0.00383 0.10581 0.36215 0.0
C2022 C 0.96255 0.10113 0.37458 0.0
C2023 C 0.97828 0.09721 0.35963 0.0
C2024 C 0.98244 0.0916 0.34836 0.0
C2025 C 0.97101 0.10841 0.38056 0.0
C2026 C 0.98328 0.11008 0.37602 0.0
C2027 C 0.98675 0.1045 0.3656 0.0
C2028 C 0.99286 0.11702 0.38235 0.0
C2029 C 0.96691 0.11381 0.39197 0.0
C2030 C 0.99116 0.12932 0.38432 0.0
C2031 C -9e-05 0.13557 0.39095 0.0
C2032 C 0.01055 0.12963 0.39566 0.0
C2033 C 0.01241 0.11741 0.39333 0.0
C2034 C 0.00366 0.11118 0.38673 0.0
H2035 H 0.95822 0.10951 0.39556 0.0
H2036 H 0.97439 0.11288 0.39876 0.0
H2037 H 0.96499 0.12355 0.39034 0.0
H2038 H 0.98299 0.13405 0.38082 0.0
H2039 H -0.00176 0.14499 0.39251 0.0
H2040 H -0.00143 0.62988 0.06406 0.0
H2041 H 0.0145 0.61664 0.07304 0.0
H2042 H -0.00162 0.62149 0.10746 0.0
H2043 H 0.98248 0.63496 0.09858 0.0
H2044 H 0.02474 0.6219 0.1074 0.0
H2045 H 0.00632 0.58221 0.08474 0.0
H2046 H 0.01018 0.59467 0.0748 0.0
H2047 H -0.00228 0.59617 0.08536 0.0
C2048 C -0.00156 0.62822 0.07356 0.0
C2049 C 0.98916 0.63338 0.08059 0.0
C2050 C 0.00753 0.6206 0.07866 0.0
C2051 C 0.00744 0.61788 0.09088 0.0
C2052 C -0.00146 0.62341 0.098 0.0
H2053 H 0.05209 0.56706 0.13458 0.0
H2054 H 0.03714 0.58272 0.12799 0.0
C2055 C 0.98947 0.6311 0.09291 0.0
C2056 C 0.0164 0.60897 0.09611 0.0
H2057 H 0.02596 0.57974 0.09447 0.0
C2058 C 0.02497 0.61265 0.10466 0.0
C2059 C 0.01658 0.59689 0.09257 0.0
C2060 C 0.00713 0.59219 0.08395 0.0
C2061 C 0.03403 0.60466 0.10945 0.0
C2062 C 0.0344 0.59269 0.10566 0.0
C2063 C 0.02568 0.58896 0.09729 0.0
C2064 C 0.04396 0.58391 0.10997 0.0
C2065 C 0.04335 0.60913 0.11828 0.0
C2066 C 0.05268 0.57939 0.10201 0.0
C2067 C 0.06119 0.57047 0.10572 0.0
C2068 C 0.06107 0.5658 0.11746 0.0
C2069 C 0.05243 0.57048 0.12549 0.0
C2070 C 0.04393 0.57946 0.12176 0.0
H2071 H 0.04325 0.61911 0.11868 0.0
H2072 H 0.04102 0.60524 0.1272 0.0
H2073 H 0.05299 0.60617 0.11605 0.0
H2074 H 0.0528 0.58268 0.09287 0.0
H2075 H 0.0677 0.56708 0.09931 0.0
H2076 H 0.00041 0.85385 0.07917 0.0
H2077 H 0.98947 0.86955 0.08971 0.0
H2078 H 0.98292 0.88928 0.05668 0.0
H2079 H 0.9936 0.87358 0.04607 0.0
H2080 H -0.00295 0.89302 0.09014 0.0
H2081 H 0.94877 0.891 0.07229 0.0
H2082 H 0.96001 0.87902 0.07061 0.0
H2083 H 0.96049 0.89227 0.06093 0.0
C2084 C -0.00355 0.86143 0.07412 0.0
C2085 C -0.0021 0.86247 0.06177 0.0
C2086 C 0.99021 0.87039 0.08016 0.0
C2087 C 0.98524 0.88051 0.07397 0.0
C2088 C 0.98641 0.88142 0.06162 0.0
H2089 H 0.95924 0.95132 0.09028 0.0
H2090 H 0.96541 0.93264 0.08107 0.0
C2091 C 0.99261 0.87246 0.05557 0.0
C2092 C 0.9799 0.89065 0.08047 0.0
H2093 H 0.95421 0.90887 0.08233 0.0
C2094 C 0.98762 0.89638 0.08856 0.0
C2095 C 0.96762 0.89506 0.07833 0.0
C2096 C 0.9587 0.88895 0.07015 0.0
C2097 C 0.98356 0.90664 0.0943 0.0
C2098 C 0.97137 0.91118 0.092 0.0
C2099 C 0.96356 0.90536 0.08405 0.0
C2100 C 0.96675 0.92218 0.09756 0.0
C2101 C 0.99249 0.91278 0.10247 0.0
C2102 C 0.96518 0.92237 0.10985 0.0
C2103 C 0.96168 0.93301 0.11515 0.0
C2104 C 0.95964 0.94365 0.10823 0.0
C2105 C 0.96079 0.9433 0.09587 0.0
C2106 C 0.96429 0.93264 0.09058 0.0
H2107 H 0.00232 0.90973 0.1013 0.0
H2108 H 0.99214 0.92272 0.10095 0.0
H2109 H 0.98972 0.91066 0.11177 0.0
H2110 H 0.96684 0.91432 0.11536 0.0
H2111 H 0.96079 0.93294 0.12468 0.0
H2112 H 0.43357 0.98748 0.37989 0.0
H2113 H 0.41786 -0.00407 0.39294 0.0
H2114 H 0.4452 -0.00312 0.42095 0.0
H2115 H 0.46104 0.98859 0.40792 0.0
H2116 H 0.40863 0.9874 0.41472 0.0
H2117 H 0.43231 0.03164 0.41846 0.0
H2118 H 0.43664 0.02107 0.40746 0.0
H2119 H 0.44193 0.01885 0.42247 0.0
C2120 C 0.43626 0.98946 0.38883 0.0
C2121 C 0.4486 0.98744 0.39283 0.0
C2122 C 0.42726 0.99428 0.39628 0.0
C2123 C 0.43043 -0.00278 0.40784 0.0
C2124 C 0.44263 -0.00509 0.41198 0.0
H2125 H 0.37744 0.01368 0.4636 0.0
H2126 H 0.39358 0.00456 0.45148 0.0
C2127 C 0.45166 0.99011 0.40453 0.0
C2128 C 0.42093 0.00272 0.41553 0.0
H2129 H 0.41448 0.02802 0.4306 0.0
C2130 C 0.4099 -0.00372 0.4182 0.0
C2131 C 0.42255 0.01437 0.41992 0.0
C2132 C 0.43394 0.02196 0.41686 0.0
C2133 C 0.40046 0.00113 0.42524 0.0
C2134 C 0.40222 0.01266 0.42988 0.0
C2135 C 0.41321 0.01914 0.42712 0.0
C2136 C 0.39263 0.01828 0.43737 0.0
C2137 C 0.38858 0.99399 0.42744 0.0
C2138 C 0.387 0.0292 0.43362 0.0
C2139 C 0.37784 0.03448 0.44056 0.0
C2140 C 0.37416 0.02896 0.45142 0.0
C2141 C 0.37999 0.01813 0.45525 0.0
C2142 C 0.38917 0.01286 0.4483 0.0
H2143 H 0.38739 0.98684 0.42095 0.0
H2144 H 0.38896 0.98958 0.43641 0.0
H2145 H 0.38022 -3e-05 0.42701 0.0
H2146 H 0.3896 0.03356 0.42523 0.0
H2147 H 0.37357 0.04284 0.43736 0.0
H2148 H 0.36368 0.96176 0.01563 0.0
H2149 H 0.37196 0.97651 0.02901 0.0
H2150 H 0.34181 0.96848 0.0535 0.0
H2151 H 0.33356 0.95348 0.04025 0.0
H2152 H 0.36193 -0.00295 0.03891 0.0
H2153 H 0.3732 0.96154 0.07335 0.0
H2154 H 0.3689 0.95804 0.05847 0.0
H2155 H 0.35705 0.96215 0.06886 0.0
C2156 C 0.35873 0.96317 0.02381 0.0
C2157 C 0.34804 0.95632 0.02694 0.0
C2158 C 0.36347 0.97164 0.03144 0.0
C2159 C 0.35764 0.97342 0.04233 0.0
C2160 C 0.34661 0.96705 0.04523 0.0
H2161 H 0.38435 0.01316 0.10226 0.0
H2162 H 0.37089 0.00273 0.0885 0.0
C2163 C 0.34187 0.95853 0.03762 0.0
C2164 C 0.36351 0.98151 0.05084 0.0
H2165 H 0.37778 0.98157 0.07783 0.0
C2166 C 0.36534 0.9937 0.04745 0.0
C2167 C 0.36799 0.97709 0.06196 0.0
C2168 C 0.3668 0.96398 0.06588 0.0
C2169 C 0.37157 0.00158 0.05488 0.0
C2170 C 0.37621 -0.0029 0.0659 0.0
C2171 C 0.37416 0.98498 0.06939 0.0
C2172 C 0.38376 0.0046 0.07377 0.0
C2173 C 0.37309 0.01463 0.0509 0.0
C2174 C 0.39544 0.00918 0.07001 0.0
C2175 C 0.40318 0.01514 0.07786 0.0
C2176 C 0.39941 0.01655 0.08963 0.0
C2177 C 0.38755 0.01223 0.09326 0.0
C2178 C 0.37983 0.00626 0.08541 0.0
H2179 H 0.36612 0.01735 0.044 0.0
H2180 H 0.37211 0.02063 0.05845 0.0
H2181 H 0.3826 0.01598 0.04706 0.0
H2182 H 0.39876 0.00778 0.06113 0.0
H2183 H 0.41226 0.01833 0.07478 0.0
H2184 H 0.58652 0.46725 0.11639 0.0
H2185 H 0.59822 0.48292 0.10533 0.0
H2186 H 0.58739 0.50888 0.13074 0.0
H2187 H 0.57571 0.49326 0.14194 0.0
H2188 H 0.58766 0.5043 0.0954 0.0
H2189 H 0.62554 0.5141 0.12727 0.0
H2190 H 0.61626 0.50049 0.12837 0.0
H2191 H 0.60995 0.51443 0.13328 0.0
C2192 C 0.58672 0.47625 0.11972 0.0
C2193 C 0.58016 0.47899 0.13006 0.0
C2194 C 0.59342 0.48519 0.11338 0.0
C2195 C 0.59379 0.49701 0.1173 0.0
C2196 C 0.58741 0.49976 0.12769 0.0
H2197 H 0.62004 0.56586 0.08917 0.0
H2198 H 0.61219 0.54886 0.10144 0.0
C2199 C 0.58067 0.49083 0.13403 0.0
C2200 C 0.60014 0.50662 0.11008 0.0
H2201 H 0.62348 0.52767 0.11057 0.0
C2202 C 0.59557 0.50935 0.09867 0.0
C2203 C 0.61039 0.51321 0.11441 0.0
C2204 C 0.61592 0.51037 0.12647 0.0
C2205 C 0.60077 0.51871 0.09155 0.0
C2206 C 0.61101 0.52533 0.09588 0.0
C2207 C 0.61565 0.52255 0.10727 0.0
C2208 C 0.61676 0.53542 0.08881 0.0
C2209 C 0.59498 0.52167 0.07961 0.0
C2210 C 0.62227 0.53344 0.0778 0.0
C2211 C 0.62671 0.54314 0.07073 0.0
C2212 C 0.62582 0.55499 0.0746 0.0
C2213 C 0.62082 0.55686 0.08589 0.0
C2214 C 0.61634 0.54716 0.09293 0.0
H2215 H 0.58541 0.51781 0.07887 0.0
H2216 H 0.59443 0.53157 0.07787 0.0
H2217 H 0.60089 0.51782 0.07263 0.0
H2218 H 0.62292 0.52441 0.07457 0.0
H2219 H 0.63061 0.54137 0.06213 0.0
H2220 H 0.12162 0.94108 0.91781 0.0
H2221 H 0.1141 0.95668 0.90369 0.0
H2222 H 0.12103 0.93322 0.87496 0.0
H2223 H 0.12849 0.91748 0.88904 0.0
H2224 H 0.12583 0.96804 0.88301 0.0
H2225 H 0.08313 0.94165 0.87247 0.0
H2226 H 0.09275 0.93805 0.88525 0.0
H2227 H 0.09793 0.93415 0.8708 0.0
C2228 C 0.12166 0.93925 0.90849 0.0
C2229 C 0.12553 0.92798 0.90456 0.0
C2230 C 0.11738 0.94819 0.90043 0.0
C2231 C 0.11685 0.94602 0.88832 0.0
C2232 C 0.1212 0.93498 0.8843 0.0
H2233 H 0.07871 0.98956 0.83299 0.0
H2234 H 0.09163 0.97409 0.84309 0.0
C2235 C 0.1255 0.92603 0.89236 0.0
C2236 C 0.1112 0.95514 0.88004 0.0
H2237 H 0.08535 0.96071 0.86291 0.0
C2238 C 0.11703 0.96643 0.87853 0.0
C2239 C 0.09975 0.95297 0.8742 0.0
C2240 C 0.09293 0.94109 0.87578 0.0
C2241 C 0.11161 0.97569 0.87142 0.0
C2242 C 0.09993 0.97365 0.86591 0.0
C2243 C 0.0943 0.96224 0.86714 0.0
C2244 C 0.09296 0.98342 0.85946 0.0
C2245 C 0.11846 0.98754 0.86989 0.0
C2246 C 0.08938 0.99377 0.86532 0.0
C2247 C 0.08205 0.00262 0.85959 0.0
C2248 C 0.078 0.00125 0.84789 0.0
C2249 C 0.08167 0.99091 0.84199 0.0
C2250 C 0.08906 0.98206 0.84774 0.0
H2251 H 0.12871 0.98639 0.87129 0.0
H2252 H 0.11689 0.99174 0.86094 0.0
H2253 H 0.11497 0.99381 0.87653 0.0
H2254 H 0.09199 0.99487 0.87446 0.0
H2255 H 0.07933 0.01043 0.86443 0.0
H2256 H 0.96708 0.30206 0.44018 0.0
H2257 H 0.97553 0.28157 0.44172 0.0
H2258 H 0.96245 0.27519 0.40647 0.0
H2259 H 0.95373 0.29556 0.40495 0.0
H2260 H 0.95741 0.25628 0.42188 0.0
H2261 H 0.00721 0.27013 0.42573 0.0
H2262 H -0.00283 0.27622 0.43673 0.0
H2263 H -0.00505 0.2806 0.4214 0.0
C2264 C 0.96599 0.2963 0.43276 0.0
C2265 C 0.95979 0.30047 0.42241 0.0
C2266 C 0.9709 0.28461 0.43363 0.0
C2267 C 0.96983 0.27694 0.42412 0.0
C2268 C 0.96343 0.28099 0.41388 0.0
H2269 H 0.01271 0.21211 0.41283 0.0
H2270 H 0.00349 0.2323 0.41204 0.0
C2271 C 0.95846 0.29264 0.41303 0.0
C2272 C 0.9753 0.26464 0.42484 0.0
H2273 H 0.00283 0.24927 0.42873 0.0
C2274 C 0.96734 0.25474 0.42336 0.0
C2275 C 0.98829 0.26266 0.42661 0.0
C2276 C -0.00257 0.27296 0.42759 0.0
C2277 C 0.972 0.2429 0.4237 0.0
C2278 C 0.98493 0.2409 0.42583 0.0
C2279 C 0.9929 0.25081 0.42721 0.0
C2280 C 0.99044 0.22862 0.42639 0.0
C2281 C 0.96307 0.23268 0.4215 0.0
C2282 C 0.98628 0.2199 0.43482 0.0
C2283 C 0.99147 0.20832 0.43525 0.0
C2284 C 0.00104 0.20531 0.42734 0.0
C2285 C 0.00534 0.21413 0.41904 0.0
C2286 C 9e-05 0.22568 0.41858 0.0
H2287 H 0.95445 0.23591 0.41687 0.0
H2288 H 0.9676 0.22573 0.41614 0.0
H2289 H 0.96022 0.22836 0.43009 0.0
H2290 H 0.97906 0.22205 0.44113 0.0
H2291 H 0.98803 0.20177 0.44181 0.0
H2292 H 0.98487 0.78995 0.02895 0.0
H2293 H 0.97795 0.76925 0.03339 0.0
H2294 H 0.00183 0.76733 0.06413 0.0
H2295 H 0.00892 0.78799 0.05972 0.0
H2296 H 0.00357 0.74713 0.04994 0.0
H2297 H 0.95406 0.75819 0.06031 0.0
H2298 H 0.95952 0.76414 0.04623 0.0
H2299 H 0.96632 0.76943 0.05958 0.0
C2300 C 0.98865 0.78514 0.03667 0.0
C2301 C -0.00259 0.79064 0.04402 0.0
C2302 C 0.98462 0.77333 0.03922 0.0
C2303 C 0.98924 0.76683 0.04918 0.0
C2304 C -0.00189 0.77223 0.05644 0.0
H2305 H 0.96004 0.70068 0.08197 0.0
H2306 H 0.96713 0.7213 0.07739 0.0
C2307 C 0.00213 0.78404 0.05391 0.0
C2308 C 0.98498 0.75433 0.05195 0.0
H2309 H 0.95909 0.73746 0.05914 0.0
C2310 C 0.99385 0.745 0.05197 0.0
C2311 C 0.97232 0.75163 0.05471 0.0
C2312 C 0.9625 0.76137 0.05533 0.0
C2313 C 0.99037 0.73298 0.05455 0.0
C2314 C 0.97766 0.73024 0.05702 0.0
C2315 C 0.96881 0.73959 0.05714 0.0
C2316 C 0.97337 0.71773 0.05969 0.0
C2317 C 0.00036 0.72335 0.0548 0.0
C2318 C 0.97439 0.70893 0.05119 0.0
C2319 C 0.97035 0.69713 0.05377 0.0
C2320 C 0.96517 0.69394 0.06489 0.0
C2321 C 0.96402 0.70282 0.07334 0.0
C2322 C 0.96805 0.71462 0.07074 0.0
H2323 H 0.00992 0.72724 0.05557 0.0
H2324 H -0.00116 0.71674 0.0623 0.0
H2325 H -5e-05 0.71842 0.04648 0.0
H2326 H 0.97826 0.7112 0.04253 0.0
H2327 H 0.97131 0.69051 0.04705 0.0
H2328 H 0.43614 0.0156 0.20612 0.0
H2329 H 0.44449 0.012 0.22608 0.0
H2330 H 0.47657 0.99398 0.21177 0.0
H2331 H 0.46832 -0.00246 0.19174 0.0
H2332 H 0.45068 0.98858 0.23707 0.0
H2333 H 0.49153 0.01972 0.23366 0.0
H2334 H 0.47836 0.02088 0.22365 0.0
H2335 H 0.4899 0.0093 0.22201 0.0
C2336 C 0.44501 0.01093 0.20719 0.0
C2337 C 0.45158 0.00688 0.19734 0.0
C2338 C 0.44974 0.00887 0.21861 0.0
C2339 C 0.46118 0.00283 0.22036 0.0
C2340 C 0.4678 -0.0012 0.21056 0.0
H2341 H 0.50464 0.98435 0.28357 0.0
H2342 H 0.49692 0.98684 0.26326 0.0
C2343 C 0.46305 0.00081 0.19914 0.0
C2344 C 0.46601 0.00048 0.23248 0.0
H2345 H 0.48969 0.00763 0.25123 0.0
C2346 C 0.45919 0.99274 0.2402 0.0
C2347 C 0.47716 0.00588 0.23646 0.0
C2348 C 0.48466 0.01449 0.22858 0.0
C2349 C 0.46329 0.99017 0.25181 0.0
C2350 C 0.47434 -0.00427 0.25587 0.0
C2351 C 0.48122 0.00339 0.2481 0.0
C2352 C 0.47883 0.99389 0.26821 0.0
C2353 C 0.45588 0.98135 0.25954 0.0
C2354 C 0.47125 -0.00288 0.27771 0.0
C2355 C 0.47559 -0.00435 0.28933 0.0
C2356 C 0.48767 0.99105 0.29164 0.0
C2357 C 0.49528 0.98789 0.28209 0.0
C2358 C 0.4909 0.98932 0.27048 0.0
H2359 H 0.45002 0.97534 0.25418 0.0
H2360 H 0.46216 0.97569 0.26528 0.0
H2361 H 0.4495 0.98641 0.26529 0.0
H2362 H 0.46202 0.00093 0.27615 0.0
H2363 H 0.46954 -0.00175 0.29647 0.0
H2364 H 0.53073 0.48156 0.18748 0.0
H2365 H 0.52892 0.4904 0.20686 0.0
H2366 H 0.56349 0.47318 0.21784 0.0
H2367 H 0.56528 0.46414 0.19858 0.0
H2368 H 0.54487 0.471 0.23476 0.0
H2369 H 0.54979 0.51855 0.21819 0.0
H2370 H 0.53737 0.51038 0.21139 0.0
H2371 H 0.55339 0.50594 0.20921 0.0
C2372 C 0.53794 0.47964 0.19402 0.0
C2373 C 0.54819 0.47219 0.19146 0.0
C2374 C 0.53693 0.48476 0.20507 0.0
C2375 C 0.54618 0.48262 0.21371 0.0
C2376 C 0.55628 0.475 0.21127 0.0
H2377 H 0.56283 0.52131 0.2764 0.0
H2378 H 0.56224 0.51276 0.25684 0.0
C2379 C 0.55728 0.46985 0.20025 0.0
C2380 C 0.54537 0.48824 0.22535 0.0
H2381 H 0.54507 0.51537 0.23853 0.0
C2382 C 0.54489 0.4807 0.2356 0.0
C2383 C 0.54555 0.5009 0.2264 0.0
C2384 C 0.54667 0.50944 0.21573 0.0
C2385 C 0.54456 0.48548 0.24689 0.0
C2386 C 0.54449 0.49813 0.24794 0.0
C2387 C 0.545 0.50567 0.23769 0.0
C2388 C 0.54444 0.50372 0.25961 0.0
C2389 C 0.54466 0.47692 0.2576 0.0
C2390 C 0.53448 0.50169 0.26757 0.0
C2391 C 0.53481 0.50652 0.27878 0.0
C2392 C 0.54505 0.51357 0.2822 0.0
C2393 C 0.55481 0.5159 0.27406 0.0
C2394 C 0.55449 0.51103 0.26287 0.0
H2395 H 0.54781 0.46775 0.25536 0.0
H2396 H 0.5509 0.48029 0.26459 0.0
H2397 H 0.53502 0.47615 0.26126 0.0
H2398 H 0.5265 0.49628 0.26513 0.0
H2399 H 0.5271 0.50463 0.28481 0.0
H2400 H 0.28944 0.43331 0.97995 0.0
H2401 H 0.26829 0.43078 0.98808 0.0
H2402 H 0.26287 0.39943 0.96739 0.0
H2403 H 0.2839 0.40203 0.95903 0.0
H2404 H 0.2423 0.41429 0.96692 0.0
H2405 H 0.25828 0.40523 0.01307 0.0
H2406 H 0.26385 0.41928 0.00662 0.0
H2407 H 0.26887 0.40531 0.00063 0.0
C2408 C 0.28374 0.42589 0.97711 0.0
C2409 C 0.28838 0.41782 0.9689 0.0
C2410 C 0.27168 0.42442 0.98182 0.0
C2411 C 0.2641 0.41478 0.97852 0.0
C2412 C 0.26859 0.40689 0.97011 0.0
H2413 H 0.19883 0.38681 0.01624 0.0
H2414 H 0.21932 0.38995 0.0069 0.0
C2415 C 0.28062 0.40839 0.96535 0.0
C2416 C 0.2515 0.41287 0.98385 0.0
H2417 H 0.23638 0.40771 0.01017 0.0
C2418 C 0.24099 0.41283 0.97637 0.0
C2419 C 0.24984 0.41079 -0.00383 0.0
C2420 C 0.26081 0.41003 0.00459 0.0
C2421 C 0.22885 0.41091 0.9809 0.0
C2422 C 0.22716 0.40921 0.99326 0.0
C2423 C 0.23768 0.40912 0.00071 0.0
C2424 C 0.21459 0.40729 -0.00134 0.0
C2425 C 0.218 0.41045 0.97238 0.0
C2426 C 0.20515 0.41603 -0.0028 0.0
C2427 C 0.19339 0.41423 0.00247 0.0
C2428 C 0.19091 0.4037 0.00942 0.0
C2429 C 0.20043 0.39501 0.01094 0.0
C2430 C 0.21215 0.39679 0.00562 0.0
H2431 H 0.22119 0.40858 0.96329 0.0
H2432 H 0.21111 0.40342 0.97527 0.0
H2433 H 0.21315 0.4193 0.97201 0.0
H2434 H 0.20691 0.42432 0.9921 0.0
H2435 H 0.1863 0.42114 0.0012 0.0
H2436 H 0.18029 0.57271 0.45202 0.0
H2437 H 0.19938 0.5684 0.46341 0.0
H2438 H 0.21305 0.60424 0.45479 0.0
H2439 H 0.19406 0.60861 0.44327 0.0
H2440 H 0.23123 0.58596 0.45252 0.0
H2441 H 0.20678 0.58234 0.49588 0.0
H2442 H 0.20062 0.57279 0.48483 0.0
H2443 H 0.1995 0.58888 0.48274 0.0
C2444 C 0.18737 0.57966 0.4525 0.0
C2445 C 0.18562 0.59103 0.44679 0.0
C2446 C 0.19824 0.5772 0.45907 0.0
C2447 C 0.20752 0.58607 0.46009 0.0
C2448 C 0.20596 0.5973 0.45415 0.0
H2449 H 0.26733 0.58886 0.51161 0.0
H2450 H 0.24892 0.59256 0.49911 0.0
C2451 C 0.19509 0.59978 0.44758 0.0
C2452 C 0.21881 0.58369 0.46744 0.0
H2453 H 0.22837 0.57733 0.49579 0.0
C2454 C 0.23063 0.58407 0.46198 0.0
C2455 C 0.21797 0.58138 0.4798 0.0
C2456 C 0.20556 0.58142 0.48621 0.0
C2457 C 0.24166 0.58207 0.46854 0.0
C2458 C 0.2408 0.57948 0.48086 0.0
C2459 C 0.22898 0.57922 0.48633 0.0
C2460 C 0.25206 0.57723 0.48829 0.0
C2461 C 0.25415 0.58297 0.46229 0.0
C2462 C 0.25986 0.56731 0.48641 0.0
C2463 C 0.2704 0.56516 0.49354 0.0
C2464 C 0.27329 0.57288 0.50271 0.0
C2465 C 0.26539 0.58276 0.50461 0.0
C2466 C 0.25486 0.58489 0.49748 0.0
H2467 H 0.25337 0.58784 0.45355 0.0
H2468 H 0.26115 0.58767 0.46773 0.0
H2469 H 0.25771 0.57376 0.46081 0.0
H2470 H 0.25773 0.56116 0.4795 0.0
H2471 H 0.27625 0.55744 0.49188 0.0
H2472 H 0.69249 0.88403 0.52991 0.0
H2473 H 0.71214 0.88947 0.5199 0.0
H2474 H 0.69548 0.9226 0.50633 0.0
H2475 H 0.67572 0.9172 0.51623 0.0
H2476 H 0.70862 0.90976 0.48923 0.0
H2477 H 0.73721 0.91551 0.52958 0.0
H2478 H 0.72914 0.90132 0.52926 0.0
H2479 H 0.72028 0.91506 0.52986 0.0
C2480 C 0.693 0.8925 0.52483 0.0
C2481 C 0.68255 0.90021 0.52391 0.0
C2482 C 0.70426 0.89562 0.51917 0.0
C2483 C 0.70531 0.90651 0.51252 0.0
C2484 C 0.69488 0.91418 0.51148 0.0
H2485 H 0.77554 0.93784 0.48663 0.0
H2486 H 0.75508 0.93442 0.49597 0.0
C2487 C 0.68361 0.91108 0.51716 0.0
C2488 C 0.71722 0.90977 0.50644 0.0
H2489 H 0.74826 0.91521 0.51133 0.0
C2490 C 0.71728 0.91102 0.49405 0.0
C2491 C 0.72846 0.91156 0.51277 0.0
C2492 C 0.72881 0.91091 0.52611 0.0
C2493 C 0.72838 0.91371 0.48779 0.0
C2494 C 0.73971 0.91503 0.49411 0.0
C2495 C 0.73958 0.91409 0.50651 0.0
C2496 C 0.75185 0.91729 0.48803 0.0
C2497 C 0.72787 0.91521 0.47449 0.0
C2498 C 0.75684 0.90877 0.48051 0.0
C2499 C 0.76853 0.91069 0.47515 0.0
C2500 C 0.77548 0.92115 0.47727 0.0
C2501 C 0.77042 0.9297 0.48478 0.0
C2502 C 0.75874 0.92776 0.49014 0.0
H2503 H 0.71818 0.91709 0.47131 0.0
H2504 H 0.7341 0.92264 0.47125 0.0
H2505 H 0.73109 0.90675 0.47056 0.0
H2506 H 0.75179 0.90052 0.47894 0.0
H2507 H 0.77218 0.9039 0.46947 0.0
H2508 H 0.97055 0.76482 0.57727 0.0
H2509 H 0.97903 0.74437 0.5786 0.0
H2510 H 0.01023 0.75566 0.55654 0.0
H2511 H 0.00166 0.7761 0.55494 0.0
H2512 H -0.00025 0.73506 0.54931 0.0
H2513 H 0.00847 0.73115 0.59756 0.0
H2514 H 0.99261 0.73528 0.594 0.0
H2515 H 0.00522 0.74539 0.58991 0.0
C2516 C 0.97928 0.76299 0.57279 0.0
C2517 C 0.98545 0.77209 0.56602 0.0
C2518 C 0.98416 0.7513 0.57362 0.0
C2519 C -0.00463 0.74853 0.56783 0.0
C2520 C 0.0016 0.75762 0.56113 0.0
H2521 H 0.03721 0.68161 0.57825 0.0
H2522 H 0.03017 0.7026 0.57775 0.0
C2523 C -0.00331 0.7693 0.56024 0.0
C2524 C 0.00029 0.73602 0.56827 0.0
H2525 H 0.00935 0.71289 0.58715 0.0
C2526 C 0.00193 0.73023 0.55758 0.0
C2527 C 0.00327 0.72979 0.57905 0.0
C2528 C 0.00243 0.73575 0.59077 0.0
C2529 C 0.00623 0.7183 0.55739 0.0
C2530 C 0.00869 0.71189 0.5682 0.0
C2531 C 0.00731 0.71776 0.57888 0.0
C2532 C 0.0128 0.69913 0.56862 0.0
C2533 C 0.00829 0.71274 0.54559 0.0
C2534 C 0.00527 0.69018 0.56382 0.0
C2535 C 0.00929 0.67819 0.56403 0.0
C2536 C 0.02086 0.67491 0.56916 0.0
C2537 C 0.02825 0.68385 0.57421 0.0
C2538 C 0.02425 0.69584 0.57394 0.0
H2539 H 0.00944 0.71973 0.53836 0.0
H2540 H 0.0167 0.70684 0.54579 0.0
H2541 H 1e-05 0.70717 0.54346 0.0
H2542 H -0.00374 0.69247 0.55993 0.0
H2543 H 0.00333 0.67151 0.56015 0.0
H2544 H 0.95656 0.19743 0.92485 0.0
H2545 H 0.96389 0.21831 0.9232 0.0
H2546 H -0.00241 0.20823 0.9422 0.0
H2547 H 0.9902 0.18739 0.94414 0.0
H2548 H 0.98754 0.22901 0.94993 0.0
H2549 H 0.99098 0.23128 0.901 0.0
H2550 H 0.97568 0.22707 0.90636 0.0
H2551 H 0.98882 0.21726 0.90939 0.0
C2552 C 0.96553 0.19965 0.92868 0.0
C2553 C 0.97283 0.19073 0.93457 0.0
C2554 C 0.96974 0.21158 0.92766 0.0
C2555 C 0.9814 0.21478 0.93237 0.0
C2556 C 0.9886 0.20594 0.93844 0.0
H2557 H 0.02305 0.28028 0.91499 0.0
H2558 H 0.01549 0.25953 0.91744 0.0
C2559 C 0.98436 0.19403 0.93953 0.0
C2560 C 0.98605 0.22737 0.9311 0.0
H2561 H 0.99351 0.24971 0.91067 0.0
C2562 C 0.98888 0.23353 0.94135 0.0
C2563 C 0.98797 0.2332 0.91989 0.0
C2564 C 0.98583 0.22683 0.90853 0.0
C2565 C 0.99343 0.24541 0.94071 0.0
C2566 C -0.00508 0.25138 0.92951 0.0
C2567 C 0.99224 0.24517 0.91926 0.0
C2568 C -0.0005 0.264 0.9282 0.0
C2569 C -0.00316 0.25135 0.95203 0.0
C2570 C 0.99295 0.27343 0.93334 0.0
C2571 C -0.0027 0.28529 0.93202 0.0
C2572 C 0.00819 0.28797 0.92542 0.0
C2573 C 0.01463 0.27853 0.92015 0.0
C2574 C 0.01032 0.26666 0.92153 0.0
H2575 H -0.00149 0.2446 0.95938 0.0
H2576 H 0.00538 0.25701 0.95086 0.0
H2577 H 0.98899 0.25723 0.95467 0.0
H2578 H 0.98441 0.27163 0.93828 0.0
H2579 H 0.99206 0.29237 0.93612 0.0
H2580 H 0.5484 0.98242 0.78977 0.0
H2581 H 0.5476 0.98939 0.76899 0.0
H2582 H 0.58276 0.97159 0.76259 0.0
H2583 H 0.58356 0.96444 0.78328 0.0
H2584 H 0.56457 0.00396 0.75669 0.0
H2585 H 0.56046 0.95961 0.7362 0.0
H2586 H 0.55783 0.96153 0.75177 0.0
H2587 H 0.57354 0.96056 0.7461 0.0
C2588 C 0.55592 0.97991 0.78392 0.0
C2589 C 0.56602 0.97283 0.78817 0.0
C2590 C 0.55545 0.98391 0.77206 0.0
C2591 C 0.56503 0.98087 0.76421 0.0
C2592 C 0.57513 0.97383 0.76843 0.0
H2593 H 0.58549 0.01596 0.69741 0.0
H2594 H 0.58386 0.00866 0.71802 0.0
C2595 C 0.57561 0.96981 0.78028 0.0
C2596 C 0.5647 0.98544 0.75172 0.0
H2597 H 0.5652 0.97646 0.72323 0.0
C2598 C 0.56462 -0.00205 0.74937 0.0
C2599 C 0.5646 0.97758 0.74219 0.0
C2600 C 0.56399 0.96407 0.74416 0.0
C2601 C 0.56478 0.00283 0.73773 0.0
C2602 C 0.56525 -0.00503 0.72821 0.0
C2603 C 0.56498 0.98246 0.73055 0.0
C2604 C 0.56613 -0.00045 0.71574 0.0
C2605 C 0.56434 0.01634 0.73574 0.0
C2606 C 0.55684 -0.00338 0.70756 0.0
C2607 C 0.55779 0.00072 0.69574 0.0
C2608 C 0.56809 0.00776 0.69188 0.0
C2609 C 0.5774 0.01062 0.70011 0.0
C2610 C 0.57645 0.00652 0.71191 0.0
H2611 H 0.56052 0.02084 0.74356 0.0
H2612 H 0.574 0.01978 0.73415 0.0
H2613 H 0.55852 0.01893 0.72791 0.0
H2614 H 0.54883 0.9912 0.71032 0.0
H2615 H 0.55047 -0.00168 0.68963 0.0
H2616 H 0.43643 0.52374 0.78627 0.0
H2617 H 0.44603 0.51685 0.76808 0.0
H2618 H 0.40943 0.51401 0.75226 0.0
H2619 H 0.39974 0.52096 0.77035 0.0
H2620 H 0.44193 0.49518 0.75572 0.0
H2621 H 0.42934 0.53639 0.72885 0.0
H2622 H 0.42884 0.53574 0.74481 0.0
H2623 H 0.4164 0.5292 0.73649 0.0
C2624 C 0.43041 0.52161 0.77894 0.0
C2625 C 0.41732 0.52298 0.77973 0.0
C2626 C 0.43592 0.51766 0.76857 0.0
C2627 C 0.42844 0.5151 0.75879 0.0
C2628 C 0.41536 0.51614 0.75965 0.0
H2629 H 0.44709 0.47777 0.69542 0.0
H2630 H 0.43915 0.48366 0.71462 0.0
C2631 C 0.40985 0.52006 0.77001 0.0
C2632 C 0.43431 0.51147 0.74763 0.0
H2633 H 0.43776 0.52008 0.71852 0.0
C2634 C 0.44107 0.50062 0.74758 0.0
C2635 C 0.43331 0.51869 0.73709 0.0
C2636 C 0.42669 0.53071 0.73678 0.0
C2637 C 0.44661 0.49666 0.73717 0.0
C2638 C 0.44523 0.50369 0.72654 0.0
C2639 C 0.43872 0.51466 0.72666 0.0
C2640 C 0.45043 0.49984 0.71516 0.0
C2641 C 0.45402 0.48508 0.73765 0.0
C2642 C 0.45925 0.50709 0.70901 0.0
C2643 C 0.46375 0.50378 0.69801 0.0
C2644 C 0.45945 0.49321 0.69291 0.0
C2645 C 0.45063 0.48594 0.69912 0.0
C2646 C 0.44614 0.48926 0.71013 0.0
H2647 H 0.45692 0.48246 0.74683 0.0
H2648 H 0.44811 0.47772 0.73431 0.0
H2649 H 0.46253 0.48588 0.73202 0.0
H2650 H 0.46261 0.51533 0.71272 0.0
H2651 H 0.47052 0.50958 0.69346 0.0
H2652 H 0.67714 0.56496 0.01595 0.0
H2653 H 0.69829 0.56125 0.00855 0.0
H2654 H 0.7138 0.58263 0.03598 0.0
H2655 H 0.69267 0.58664 0.04324 0.0
H2656 H 0.72407 0.58838 0.01475 0.0
H2657 H 0.72469 0.53875 0.02246 0.0
H2658 H 0.71178 0.54395 0.01346 0.0
H2659 H 0.71277 0.54819 0.02861 0.0
C2660 C 0.68506 0.56882 0.02045 0.0
C2661 C 0.68323 0.57607 0.03021 0.0
C2662 C 0.69715 0.56662 0.01625 0.0
C2663 C 0.70764 0.57148 0.02184 0.0
C2664 C 0.70584 0.57874 0.03156 0.0
H2665 H 0.78547 0.55126 0.01216 0.0
H2666 H 0.76412 0.55417 0.01941 0.0
C2667 C 0.69375 0.58102 0.03571 0.0
C2668 C 0.72049 0.56936 0.01732 0.0
H2669 H 0.74146 0.54727 0.01102 0.0
C2670 C 0.72789 0.57939 0.01397 0.0
C2671 C 0.72552 0.55763 0.01645 0.0
C2672 C 0.71833 0.54652 0.02054 0.0
C2673 C 0.74013 0.57803 0.00966 0.0
C2674 C 0.745 0.56629 0.00839 0.0
C2675 C 0.73766 0.55626 0.01187 0.0
C2676 C 0.75781 0.56425 0.00375 0.0
C2677 C 0.74782 0.58919 0.00678 0.0
C2678 C 0.76128 0.56873 0.99245 0.0
C2679 C 0.77351 0.56717 0.98831 0.0
C2680 C 0.78244 0.56093 -0.00465 0.0
C2681 C 0.77882 0.55612 0.00652 0.0
C2682 C 0.76662 0.55777 0.01068 0.0
H2683 H 0.74412 0.59715 0.01129 0.0
H2684 H 0.75778 0.58784 0.00939 0.0
H2685 H 0.74748 0.59124 -0.00289 0.0
H2686 H 0.75454 0.57349 0.98683 0.0
H2687 H 0.77596 0.57088 0.97962 0.0
H2688 H 0.6614 0.41586 0.44565 0.0
H2689 H 0.68175 0.42113 0.45399 0.0
H2690 H 0.69781 0.38868 0.44072 0.0
H2691 H 0.67759 0.38347 0.43215 0.0
H2692 H 0.69539 0.40874 0.4707 0.0
H2693 H 0.72292 0.414 0.42929 0.0
H2694 H 0.706 0.41328 0.4294 0.0
H2695 H 0.71515 0.39968 0.43083 0.0
C2696 C 0.66928 0.40989 0.44442 0.0
C2697 C 0.66789 0.39926 0.4382 0.0
C2698 C 0.6809 0.41291 0.4492 0.0
C2699 C 0.69134 0.4054 0.44782 0.0
C2700 C 0.68996 0.39477 0.44165 0.0
H2701 H 0.7582 0.40148 0.49097 0.0
H2702 H 0.73796 0.39838 0.48143 0.0
C2703 C 0.67837 0.39176 0.43682 0.0
C2704 C 0.70353 0.40839 0.4533 0.0
H2705 H 0.73463 0.41273 0.44729 0.0
C2706 C 0.70396 0.4097 0.46558 0.0
C2707 C 0.71466 0.40981 0.44658 0.0
C2708 C 0.71467 0.40925 0.43328 0.0
C2709 C 0.71528 0.41208 0.47136 0.0
C2710 C 0.72651 0.41291 0.46471 0.0
C2711 C 0.72603 0.41193 0.45239 0.0
C2712 C 0.73886 0.41473 0.47038 0.0
C2713 C 0.71507 0.41381 0.48451 0.0
C2714 C 0.74627 0.42476 0.46707 0.0
C2715 C 0.75792 0.4265 0.47242 0.0
C2716 C 0.76237 0.41821 0.48116 0.0
C2717 C 0.755 0.40809 0.48433 0.0
C2718 C 0.74339 0.40633 0.47895 0.0
H2719 H 0.70557 0.41637 0.4876 0.0
H2720 H 0.7177 0.40521 0.48922 0.0
H2721 H 0.72184 0.42086 0.48701 0.0
H2722 H 0.74298 0.43131 0.46042 0.0
H2723 H 0.76338 0.43438 0.46975 0.0
H2724 H 0.1619 0.0667 0.53358 0.0
H2725 H 0.18224 0.06124 0.52534 0.0
H2726 H 0.19816 0.0943 0.53733 0.0
H2727 H 0.17795 0.09972 0.54579 0.0
H2728 H 0.19548 0.07325 0.50807 0.0
H2729 H 0.22373 0.0696 0.54914 0.0
H2730 H 0.20681 0.07014 0.54928 0.0
H2731 H 0.21579 0.08379 0.54725 0.0
C2732 C 0.16976 0.07276 0.53457 0.0
C2733 C 0.16831 0.08363 0.54038 0.0
C2734 C 0.18137 0.06962 0.52985 0.0
C2735 C 0.19176 0.07728 0.53087 0.0
C2736 C 0.19035 0.08812 0.53668 0.0
H2737 H 0.25791 0.07978 0.48649 0.0
H2738 H 0.23797 0.0834 0.4964 0.0
C2739 C 0.17876 0.09124 0.54145 0.0
C2740 C 0.20389 0.07422 0.52531 0.0
H2741 H 0.23512 0.07023 0.53094 0.0
C2742 C 0.20413 0.07251 0.51309 0.0
C2743 C 0.21515 0.0731 0.53188 0.0
C2744 C 0.21537 0.07413 0.54513 0.0
C2745 C 0.21536 0.06999 0.50721 0.0
C2746 C 0.22671 0.06942 0.5137 0.0
C2747 C 0.22643 0.07082 0.52596 0.0
C2748 C 0.23895 0.06737 0.5079 0.0
C2749 C 0.21494 0.06783 0.49414 0.0
C2750 C 0.24633 0.05737 0.51134 0.0
C2751 C 0.2578 0.05533 0.50577 0.0
C2752 C 0.26212 0.06329 0.49667 0.0
C2753 C 0.25481 0.07342 0.4934 0.0
C2754 C 0.24337 0.07547 0.499 0.0
H2755 H 0.20539 0.0652 0.49127 0.0
H2756 H 0.21756 0.07625 0.48913 0.0
H2757 H 0.22164 0.06065 0.49178 0.0
H2758 H 0.24313 0.05105 0.51824 0.0
H2759 H 0.26322 0.04746 0.50852 0.0
H2760 H 0.48555 0.70135 0.9602 0.0
H2761 H 0.47912 0.72193 0.9545 0.0
H2762 H 0.49882 0.71953 0.92141 0.0
H2763 H 0.50538 0.69897 0.92705 0.0
H2764 H 0.50319 0.74123 0.93323 0.0
H2765 H 0.45237 0.731 0.92929 0.0
H2766 H 0.45938 0.72624 0.94314 0.0
H2767 H 0.46425 0.7194 0.92978 0.0
C2768 C 0.48852 0.70519 0.9517 0.0
C2769 C 0.49593 0.69849 0.94405 0.0
C2770 C 0.48479 0.71693 0.94845 0.0
C2771 C 0.48835 0.72217 0.93747 0.0
C2772 C 0.49593 0.71561 0.9299 0.0
H2773 H 0.45774 0.78569 0.90103 0.0
H2774 H 0.4648 0.76539 0.90702 0.0
C2775 C 0.49965 0.70386 0.93313 0.0
C2776 C 0.48424 0.73453 0.93389 0.0
H2777 H 0.45826 0.75158 0.9276 0.0
C2778 C 0.49337 0.74351 0.93199 0.0
C2779 C 0.47143 0.73742 0.93215 0.0
C2780 C 0.46127 0.72801 0.93359 0.0
C2781 C 0.49002 0.75537 0.92853 0.0
C2782 C 0.47719 0.75832 0.92706 0.0
C2783 C 0.46808 0.7493 0.92883 0.0
C2784 C 0.47304 0.77066 0.92349 0.0
C2785 C 0.50023 0.76459 0.92627 0.0
C2786 C 0.47522 0.78033 0.93083 0.0
C2787 C 0.47119 0.79195 0.92744 0.0
C2788 C 0.46486 0.79409 0.91666 0.0
C2789 C 0.46261 0.78436 0.90937 0.0
C2790 C 0.46663 0.77275 0.91278 0.0
H2791 H 0.50953 0.76028 0.92507 0.0
H2792 H 0.4981 0.77038 0.91829 0.0
H2793 H 0.50088 0.77046 0.93394 0.0
H2794 H 0.47996 0.77887 0.93923 0.0
H2795 H 0.47302 0.79923 0.93328 0.0
H2796 H 0.47876 0.27278 0.5179 0.0
H2797 H 0.47326 0.25156 0.5215 0.0
H2798 H 0.49342 0.2511 0.55454 0.0
H2799 H 0.49915 0.27228 0.55092 0.0
H2800 H 0.49864 0.23137 0.54132 0.0
H2801 H 0.44725 0.23818 0.54498 0.0
H2802 H 0.4539 0.24442 0.5315 0.0
H2803 H 0.45831 0.25046 0.54541 0.0
C2804 C 0.48201 0.26818 0.52595 0.0
C2805 C 0.48935 0.27424 0.53415 0.0
C2806 C 0.47879 0.25607 0.52802 0.0
C2807 C 0.48275 0.24982 0.53838 0.0
C2808 C 0.49021 0.25579 0.54651 0.0
H2809 H 0.45435 0.18119 0.56649 0.0
H2810 H 0.46006 0.20236 0.56296 0.0
C2811 C 0.49346 0.26789 0.54444 0.0
C2812 C 0.47931 0.23698 0.54064 0.0
H2813 H 0.45431 0.21793 0.54416 0.0
C2814 C 0.48895 0.22843 0.54197 0.0
C2815 C 0.46667 0.23319 0.54165 0.0
C2816 C 0.45593 0.24204 0.54093 0.0
C2817 C 0.48629 0.21614 0.54411 0.0
C2818 C 0.47364 0.2123 0.54472 0.0
C2819 C 0.464 0.22088 0.54357 0.0
C2820 C 0.47019 0.19944 0.54676 0.0
C2821 C 0.49704 0.20743 0.54591 0.0
C2822 C 0.47384 0.19079 0.53873 0.0
C2823 C 0.47062 0.17867 0.54074 0.0
C2824 C 0.4636 0.17499 0.55077 0.0
C2825 C 0.45979 0.18371 0.55869 0.0
C2826 C 0.46303 0.19582 0.55669 0.0
H2827 H 0.50584 0.21212 0.54829 0.0
H2828 H 0.49486 0.2005 0.55296 0.0
H2829 H 0.49875 0.20277 0.53757 0.0
H2830 H 0.47913 0.19343 0.53087 0.0
H2831 H 0.47364 0.17219 0.53442 0.0
H2832 H 0.98927 0.48401 0.80049 0.0
H2833 H 0.99172 0.48477 0.77897 0.0
H2834 H 0.95172 0.48096 0.77488 0.0
H2835 H 0.94915 0.48024 0.79638 0.0
H2836 H 0.98385 0.46695 0.76271 0.0
H2837 H 0.96082 0.51132 0.75399 0.0
H2838 H 0.96641 0.50643 0.76846 0.0
H2839 H 0.95193 0.50063 0.76292 0.0
C2840 C 0.98098 0.48335 0.79502 0.0
C2841 C 0.96901 0.48211 0.80014 0.0
C2842 C 0.98241 0.48378 0.78273 0.0
C2843 C 0.97188 0.48308 0.77537 0.0
C2844 C 0.95993 0.48172 0.78044 0.0
H2845 H 0.95971 0.4841 0.69974 0.0
H2846 H 0.95771 0.48367 0.72129 0.0
C2847 C 0.9585 0.48124 0.79272 0.0
C2848 C 0.97342 0.48355 0.76237 0.0
H2849 H 0.96599 0.50012 0.73729 0.0
C2850 C 0.98001 0.47422 0.75714 0.0
C2851 C 0.96836 0.49304 0.75516 0.0
C2852 C 0.96157 0.5035 0.76039 0.0
C2853 C 0.98145 0.47399 0.74482 0.0
C2854 C 0.97639 0.48349 0.7376 0.0
C2855 C 0.96985 0.49285 0.74285 0.0
C2856 C 0.9777 0.48385 0.72456 0.0
C2857 C 0.98808 0.46341 0.73964 0.0
C2858 C 0.98961 0.48429 0.71926 0.0
C2859 C 0.99079 0.48448 0.70696 0.0
C2860 C 0.98007 0.48436 0.69972 0.0
C2861 C 0.96815 0.48417 0.70506 0.0
C2862 C 0.96699 0.48393 0.71737 0.0
H2863 H 0.9884 0.45551 0.74598 0.0
H2864 H 0.98341 0.46068 0.73141 0.0
H2865 H -0.00211 0.46601 0.73745 0.0
H2866 H -0.00201 0.48451 0.72465 0.0
H2867 H 0.0001 0.48472 0.70313 0.0
H2868 H 0.06015 0.01896 0.77859 0.0
H2869 H 0.05626 0.01145 0.75893 0.0
H2870 H 0.02256 0.99382 0.77174 0.0
H2871 H 0.0265 0.00112 0.79151 0.0
H2872 H 0.03711 0.97911 0.75846 0.0
H2873 H 0.03029 0.02334 0.73489 0.0
H2874 H 0.04484 0.02236 0.74285 0.0
H2875 H 0.03023 0.0216 0.75081 0.0
C2876 C 0.05187 0.01354 0.77722 0.0
C2877 C 0.04361 0.01068 0.78661 0.0
C2878 C 0.04962 0.00932 0.76596 0.0
C2879 C 0.039 0.00225 0.76382 0.0
C2880 C 0.03077 -0.00068 0.77318 0.0
H2881 H 0.01509 0.98572 0.69251 0.0
H2882 H 0.01568 0.99231 0.71287 0.0
C2883 C 0.03303 0.00352 0.78447 0.0
C2884 C 0.03674 -0.0024 0.75191 0.0
H2885 H 0.03331 0.00641 0.72285 0.0
C2886 C 0.03618 0.98508 0.75068 0.0
C2887 C 0.03532 0.00539 0.74179 0.0
C2888 C 0.03507 0.01892 0.74264 0.0
C2889 C 0.03463 0.98013 0.73955 0.0
C2890 C 0.03387 0.98792 0.72937 0.0
C2891 C 0.03403 0.00044 0.73064 0.0
C2892 C 0.03316 0.9833 0.71727 0.0
C2893 C 0.03375 0.96662 0.73882 0.0
C2894 C 0.04279 0.97606 0.71297 0.0
C2895 C 0.04246 0.97223 0.70137 0.0
C2896 C 0.03254 0.97568 0.69378 0.0
C2897 C 0.02285 0.98288 0.69812 0.0
C2898 C 0.02318 0.98667 0.70975 0.0
H2899 H 0.0307 0.96229 0.74737 0.0
H2900 H 0.02707 0.96406 0.73182 0.0
H2901 H 0.04312 0.96297 0.73667 0.0
H2902 H 0.05073 0.97358 0.71852 0.0
H2903 H 0.05011 0.96676 0.69828 0.0
H2904 H 0.67389 0.06935 0.95844 0.0
H2905 H 0.69335 0.06463 0.96909 0.0
H2906 H 0.70763 0.10008 0.95967 0.0
H2907 H 0.68828 0.10483 0.94885 0.0
H2908 H 0.72508 0.08182 0.95656 0.0
H2909 H 0.70321 0.07775 0.00107 0.0
H2910 H 0.69624 0.06831 0.99036 0.0
H2911 H 0.69518 0.08442 0.98839 0.0
C2912 C 0.68117 0.07615 0.95862 0.0
C2913 C 0.67951 0.08749 0.95285 0.0
C2914 C 0.69225 0.07345 0.96477 0.0
C2915 C 0.70184 0.08208 0.96533 0.0
C2916 C 0.70032 0.09332 0.95939 0.0
H2917 H 0.76452 0.08188 0.0141 0.0
H2918 H 0.7455 0.0864 0.00269 0.0
C2919 C 0.68925 0.09602 0.95323 0.0
C2920 C 0.7135 0.07938 0.97206 0.0
H2921 H 0.72459 0.07204 -0.00028 0.0
C2922 C 0.72499 0.0797 0.966 0.0
C2923 C 0.71335 0.07677 0.9844 0.0
C2924 C 0.70136 0.07689 0.99149 0.0
C2925 C 0.73635 0.07733 0.97193 0.0
C2926 C 0.73616 0.07438 0.98421 0.0
C2927 C 0.72468 0.0742 0.99029 0.0
C2928 C 0.74779 0.07164 0.99097 0.0
C2929 C 0.74846 0.07823 0.96504 0.0
C2930 C 0.75532 0.06177 0.98823 0.0
C2931 C 0.76622 0.05918 -0.00528 0.0
C2932 C 0.76973 0.06636 0.00412 0.0
C2933 C 0.7621 0.07618 0.0069 0.0
C2934 C 0.75122 0.07877 0.0004 0.0
H2935 H 0.74729 0.08354 0.95658 0.0
H2936 H 0.75594 0.08247 0.97029 0.0
H2937 H 0.75161 0.06904 0.96292 0.0
H2938 H 0.75271 0.056 0.98115 0.0
H2939 H 0.77185 0.0515 0.99239 0.0
H2940 H 0.45335 0.27604 0.07456 0.0
H2941 H 0.46125 0.25541 0.07383 0.0
H2942 H 0.49124 0.26771 0.05075 0.0
H2943 H 0.48319 0.28831 0.05117 0.0
H2944 H 0.48058 0.24739 0.04315 0.0
H2945 H 0.49159 0.24161 0.09089 0.0
H2946 H 0.47554 0.24567 0.08813 0.0
H2947 H 0.48785 0.25609 0.08396 0.0
C2948 C 0.46164 0.27436 0.06934 0.0
C2949 C 0.46768 0.28383 0.06297 0.0
C2950 C 0.4662 0.26257 0.069 0.0
C2951 C 0.47698 0.26005 0.06242 0.0
C2952 C 0.48294 0.26946 0.05593 0.0
H2953 H 0.52066 0.1941 0.06955 0.0
H2954 H 0.51301 0.21486 0.06957 0.0
C2955 C 0.47833 0.28123 0.0562 0.0
C2956 C 0.48195 0.24757 0.06213 0.0
H2957 H 0.49247 0.22396 0.07969 0.0
C2958 C 0.48323 0.24227 0.05113 0.0
C2959 C 0.48558 0.24098 0.07253 0.0
C2960 C 0.4852 0.24641 0.08454 0.0
C2961 C 0.48786 0.23051 0.05027 0.0
C2962 C 0.49102 0.22374 0.06072 0.0
C2963 C 0.48992 0.2291 0.07169 0.0
C2964 C 0.49566 0.21115 0.06048 0.0
C2965 C 0.48958 0.22554 0.03816 0.0
C2966 C 0.4884 0.20212 0.05546 0.0
C2967 C 0.4928 0.19026 0.05534 0.0
C2968 C 0.50446 0.18716 0.06041 0.0
C2969 C 0.51164 0.19619 0.06557 0.0
C2970 C 0.50728 0.20806 0.0656 0.0
H2971 H 0.49026 0.23287 0.0312 0.0
H2972 H 0.49813 0.21987 0.03779 0.0
H2973 H 0.48135 0.21989 0.03607 0.0
H2974 H 0.47927 0.20422 0.05173 0.0
H2975 H 0.487 0.1835 0.05139 0.0
H2976 H 0.52085 0.78308 0.41481 0.0
H2977 H 0.5128 0.76248 0.41675 0.0
H2978 H 0.48139 0.77485 0.43698 0.0
H2979 H 0.48951 0.79547 0.4353 0.0
H2980 H 0.49202 0.75458 0.44702 0.0
H2981 H 0.48331 0.74837 0.39939 0.0
H2982 H 0.49914 0.75279 0.40244 0.0
H2983 H 0.48643 0.76295 0.40524 0.0
C2984 C 0.5122 0.78144 0.41963 0.0
C2985 C 0.50579 0.79093 0.42486 0.0
C2986 C 0.50757 0.76966 0.42067 0.0
C2987 C 0.49637 0.76716 0.42682 0.0
C2988 C 0.49 0.7766 0.43213 0.0
H2989 H 0.45573 0.69922 0.42375 0.0
H2990 H 0.46194 0.72045 0.42247 0.0
C2991 C 0.49466 0.78838 0.43115 0.0
C2992 C 0.49149 0.75465 0.42799 0.0
H2993 H 0.48248 0.73068 0.41204 0.0
C2994 C 0.48986 0.74937 0.43937 0.0
C2995 C 0.48849 0.74793 0.41802 0.0
C2996 C 0.4893 0.75333 0.40559 0.0
C2997 C 0.48559 0.73746 0.44104 0.0
C2998 C 0.48315 0.73056 0.43106 0.0
C2999 C 0.48449 0.73593 0.41968 0.0
C3000 C 0.47925 0.71773 0.43218 0.0
C3001 C 0.4836 0.73243 0.45349 0.0
C3002 C 0.48697 0.70913 0.43799 0.0
C3003 C 0.48341 0.697 0.4388 0.0
C3004 C 0.47213 0.69321 0.43369 0.0
C3005 C 0.46446 0.70184 0.4278 0.0
C3006 C 0.468 0.71397 0.42705 0.0
H3007 H 0.48229 0.73973 0.45981 0.0
H3008 H 0.4753 0.72639 0.45402 0.0
H3009 H 0.49198 0.72715 0.45633 0.0
H3010 H 0.49584 0.71177 0.44177 0.0
H3011 H 0.48958 0.69058 0.44332 0.0
H3012 H 0.08528 0.51839 0.19099 0.0
H3013 H 0.08517 0.51057 0.2115 0.0
H3014 H 0.05026 0.49222 0.20536 0.0
H3015 H 0.05036 0.49988 0.18478 0.0
H3016 H 0.06741 0.51338 0.22939 0.0
H3017 H 0.07312 0.46526 0.2188 0.0
H3018 H 0.07578 0.47745 0.20804 0.0
H3019 H 0.06006 0.47274 0.21166 0.0
C3020 C 0.07757 0.5127 0.19399 0.0
C3021 C 0.06787 0.5097 0.18622 0.0
C3022 C 0.07752 0.50825 0.20572 0.0
C3023 C 0.06781 0.50067 0.20989 0.0
C3024 C 0.05797 0.49787 0.20225 0.0
H3025 H 0.05318 0.48123 0.28416 0.0
H3026 H 0.05162 0.48903 0.26367 0.0
C3027 C 0.05801 0.50231 0.19051 0.0
C3028 C 0.06803 0.49572 0.22225 0.0
H3029 H 0.06964 0.46941 0.23889 0.0
C3030 C 0.06789 0.50377 0.23149 0.0
C3031 C 0.0688 0.48318 0.22493 0.0
C3032 C 0.06957 0.47413 0.21535 0.0
C3033 C 0.06841 0.49962 0.24336 0.0
C3034 C 0.06892 0.48707 0.24604 0.0
C3035 C 0.06914 0.47902 0.2368 0.0
C3036 C 0.06966 0.48212 0.25838 0.0
C3037 C 0.06873 0.5087 0.25292 0.0
C3038 C 0.08016 0.47536 0.26211 0.0
C3039 C 0.08105 0.47083 0.27378 0.0
C3040 C 0.07142 0.47293 0.28194 0.0
C3041 C 0.0608 0.47952 0.27812 0.0
C3042 C 0.05992 0.48404 0.26643 0.0
H3043 H 0.07131 0.51784 0.24935 0.0
H3044 H 0.05929 0.50927 0.25699 0.0
H3045 H 0.07551 0.50595 0.25996 0.0
H3046 H 0.08776 0.47373 0.25602 0.0
H3047 H 0.08934 0.46577 0.27642 0.0
H3048 H 0.91292 0.03907 0.28886 0.0
H3049 H 0.91929 0.03386 0.26896 0.0
H3050 H 0.94575 0.00804 0.28375 0.0
H3051 H 0.93962 0.01336 0.3037 0.0
H3052 H 0.95602 0.02229 0.2661 0.0
H3053 H 0.91057 0.00377 0.25146 0.0
H3054 H 0.90931 0.01876 0.25671 0.0
H3055 H 0.91387 0.00657 0.26675 0.0
C3056 C 0.92005 0.03224 0.28789 0.0
C3057 C 0.92573 0.0266 0.29787 0.0
C3058 C 0.92362 0.02921 0.2765 0.0
C3059 C 0.93284 0.02041 0.27487 0.0
C3060 C 0.93857 0.01481 0.28481 0.0
H3061 H 0.94963 0.9878 0.20797 0.0
H3062 H 0.94329 0.99161 0.22826 0.0
C3063 C 0.93504 0.01786 0.29621 0.0
C3064 C 0.93683 0.01736 0.2628 0.0
H3065 H 0.926 0.00751 0.2365 0.0
C3066 C 0.94947 0.01899 0.25964 0.0
C3067 C 0.92832 0.0129 0.25445 0.0
C3068 C 0.91479 0.01027 0.25753 0.0
C3069 C 0.95378 0.01654 0.24827 0.0
C3070 C 0.94515 0.01258 0.23976 0.0
C3071 C 0.93257 0.01068 0.243 0.0
C3072 C 0.94899 0.01033 0.22745 0.0
C3073 C 0.96756 0.01805 0.24554 0.0
C3074 C 0.95413 0.01964 0.22022 0.0
C3075 C 0.95781 0.01749 0.20864 0.0
C3076 C 0.9563 0.006 0.20404 0.0
C3077 C 0.95094 -0.00326 0.21125 0.0
C3078 C 0.94731 -0.0011 0.22284 0.0
H3079 H 0.97332 0.01776 0.25372 0.0
H3080 H 0.97093 0.01092 0.23971 0.0
H3081 H 0.96909 0.02693 0.24092 0.0
H3082 H 0.95524 0.02861 0.2235 0.0
H3083 H 0.96182 0.02483 0.2033 0.0
H3084 H 0.27641 0.91837 -0.00077 0.0
H3085 H 0.25485 0.91524 0.99264 0.0
H3086 H 0.26369 0.9325 0.95884 0.0
H3087 H 0.28518 0.93593 0.96545 0.0
H3088 H 0.24133 0.94008 0.96738 0.0
H3089 H 0.24356 0.89014 0.96992 0.0
H3090 H 0.24736 0.8969 0.9836 0.0
H3091 H 0.25735 0.89947 0.97093 0.0
C3092 C 0.27377 0.9215 0.99039 0.0
C3093 C 0.28254 0.92734 0.98284 0.0
C3094 C 0.26146 0.91964 0.98662 0.0
C3095 C 0.25773 0.92342 0.97517 0.0
C3096 C 0.26639 0.92945 0.96769 0.0
H3097 H 0.1915 0.89956 0.93828 0.0
H3098 H 0.2128 0.9036 0.94505 0.0
C3099 C 0.27868 0.93139 0.97148 0.0
C3100 C 0.24478 0.92118 0.97098 0.0
H3101 H 0.2235 0.89886 0.96641 0.0
C3102 C 0.23743 0.93107 0.96713 0.0
C3103 C 0.23978 0.9094 0.97051 0.0
C3104 C 0.24745 0.89836 0.97385 0.0
C3105 C 0.22517 0.92952 0.96295 0.0
C3106 C 0.22002 0.91777 0.96286 0.0
C3107 C 0.22742 0.90787 0.96659 0.0
C3108 C 0.20705 0.91549 0.95874 0.0
C3109 C 0.21795 0.94045 0.95842 0.0
C3110 C 0.19673 0.92073 0.96427 0.0
C3111 C 0.18454 0.9185 0.96036 0.0
C3112 C 0.18243 0.91086 0.95094 0.0
C3113 C 0.19279 0.90549 0.94554 0.0
C3114 C 0.20497 0.90779 0.9494 0.0
H3115 H 0.22431 0.94809 0.95598 0.0
H3116 H 0.21222 0.93836 0.95057 0.0
H3117 H 0.21155 0.94343 0.96545 0.0
H3118 H 0.19808 0.92646 0.97167 0.0
H3119 H 0.17676 0.9227 0.96477 0.0
loop_
_geom_bond_atom_site_label_1
_geom_bond_atom_site_label_2
_geom_bond_distance
_geom_bond_site_symmetry_2
_ccdc_geom_bond_type
O0 Cd1 2.300 . S
O0 C7 1.275 . S
Cd1 O0 2.300 . S
Cd1 O9 2.381 . S
Cd1 O10 2.378 . S
O2 Cd3 2.385 . S
O2 C7 1.255 . S
Cd3 O2 2.385 . S
Cd3 O4 2.317 . S
O4 Cd3 2.317 . S
O4 C5 1.232 . S
C5 O4 1.232 . S
C5 O6 1.218 . S
O6 C5 1.218 . S
C7 O0 1.275 . S
C7 O2 1.255 . S
C8 O9 1.258 . S
C8 O10 1.256 . S
O9 Cd1 2.381 . S
O9 C8 1.258 . S
O10 Cd1 2.378 . S
O10 C8 1.256 . S
O11 Cd12 2.300 . S
O11 C18 1.275 . S
Cd12 O11 2.300 . S
Cd12 O20 2.381 . S
Cd12 O21 2.378 . S
O13 Cd14 2.385 . S
O13 C18 1.255 . S
Cd14 O13 2.385 . S
Cd14 O15 2.317 . S
O15 Cd14 2.317 . S
O15 C16 1.232 . S
C16 O15 1.232 . S
C16 O17 1.218 . S
O17 C16 1.218 . S
C18 O11 1.275 . S
C18 O13 1.255 . S
C19 O20 1.258 . S
C19 O21 1.256 . S
O20 Cd12 2.381 . S
O20 C19 1.258 . S
O21 Cd12 2.378 . S
O21 C19 1.256 . S
O22 Cd23 2.300 . S
O22 C29 1.275 . S
Cd23 O22 2.300 . S
Cd23 O31 2.381 . S
Cd23 O32 2.378 . S
O24 Cd25 2.385 . S
O24 C29 1.255 . S
Cd25 O24 2.385 . S
Cd25 O26 2.317 . S
O26 Cd25 2.317 . S
O26 C27 1.232 . S
C27 O26 1.232 . S
C27 O28 1.218 . S
O28 C27 1.218 . S
C29 O22 1.275 . S
C29 O24 1.255 . S
C30 O31 1.258 . S
C30 O32 1.256 . S
O31 Cd23 2.381 . S
O31 C30 1.258 . S
O32 Cd23 2.378 . S
O32 C30 1.256 . S
O33 Cd34 2.300 . S
O33 C40 1.275 . S
Cd34 O33 2.300 . S
Cd34 O42 2.381 . S
Cd34 O43 2.378 . S
O35 Cd36 2.385 . S
O35 C40 1.255 . S
Cd36 O35 2.385 . S
Cd36 O37 2.317 . S
O37 Cd36 2.317 . S
O37 C38 1.232 . S
C38 O37 1.232 . S
C38 O39 1.218 . S
O39 C38 1.218 . S
C40 O33 1.275 . S
C40 O35 1.255 . S
C41 O42 1.258 . S
C41 O43 1.256 . S
O42 Cd34 2.381 . S
O42 C41 1.258 . S
O43 Cd34 2.378 . S
O43 C41 1.256 . S
O44 Cd45 2.300 . S
O44 C51 1.275 . S
Cd45 O44 2.300 . S
Cd45 O53 2.381 . S
Cd45 O54 2.378 . S
O46 Cd47 2.385 . S
O46 C51 1.255 . S
Cd47 O46 2.385 . S
Cd47 O48 2.317 1_545 S
O48 Cd47 2.317 1_565 S
O48 C49 1.232 . S
C49 O48 1.232 . S
C49 O50 1.218 1_565 S
O50 C49 1.218 1_545 S
C51 O44 1.275 . S
C51 O46 1.255 . S
C52 O53 1.258 . S
C52 O54 1.256 . S
O53 Cd45 2.381 . S
O53 C52 1.258 . S
O54 Cd45 2.378 . S
O54 C52 1.256 . S
O55 Cd56 2.300 . S
O55 C62 1.275 . S
Cd56 O55 2.300 . S
Cd56 O64 2.381 . S
Cd56 O65 2.378 . S
O57 Cd58 2.385 . S
O57 C62 1.255 . S
Cd58 O57 2.385 . S
Cd58 O59 2.317 . S
O59 Cd58 2.317 . S
O59 C60 1.232 . S
C60 O59 1.232 . S
C60 O61 1.218 . S
O61 C60 1.218 . S
C62 O55 1.275 . S
C62 O57 1.255 . S
C63 O64 1.258 . S
C63 O65 1.256 . S
O64 Cd56 2.381 . S
O64 C63 1.258 . S
O65 Cd56 2.378 . S
O65 C63 1.256 . S
O66 Cd67 2.300 . S
O66 C73 1.275 . S
Cd67 O66 2.300 . S
Cd67 O75 2.381 . S
Cd67 O76 2.378 . S
O68 Cd69 2.385 . S
O68 C73 1.255 . S
Cd69 O68 2.385 . S
Cd69 O70 2.317 . S
O70 Cd69 2.317 . S
O70 C71 1.232 . S
C71 O70 1.232 . S
C71 O72 1.218 . S
O72 C71 1.218 . S
C73 O66 1.275 . S
C73 O68 1.255 . S
C74 O75 1.258 . S
C74 O76 1.256 . S
O75 Cd67 2.381 . S
O75 C74 1.258 . S
O76 Cd67 2.378 . S
O76 C74 1.256 . S
O77 Cd78 2.300 . S
O77 C84 1.275 . S
Cd78 O77 2.300 . S
Cd78 O86 2.381 . S
Cd78 O87 2.378 . S
O79 Cd80 2.385 . S
O79 C84 1.255 . S
Cd80 O79 2.385 . S
Cd80 O81 2.317 . S
O81 Cd80 2.317 . S
O81 C82 1.232 . S
C82 O81 1.232 . S
C82 O83 1.218 . S
O83 C82 1.218 . S
C84 O77 1.275 . S
C84 O79 1.255 . S
C85 O86 1.258 . S
C85 O87 1.256 . S
O86 Cd78 2.381 . S
O86 C85 1.258 . S
O87 Cd78 2.378 . S
O87 C85 1.256 . S
O88 Cd89 2.300 . S
O88 C95 1.275 . S
Cd89 O88 2.300 . S
Cd89 O97 2.381 . S
Cd89 O98 2.378 . S
O90 Cd91 2.385 . S
O90 C95 1.255 . S
Cd91 O90 2.385 . S
Cd91 O92 2.317 . S
O92 Cd91 2.317 . S
O92 C93 1.232 . S
C93 O92 1.232 . S
C93 O94 1.218 . S
O94 C93 1.218 . S
C95 O88 1.275 . S
C95 O90 1.255 . S
C96 O97 1.258 . S
C96 O98 1.256 . S
O97 Cd89 2.381 . S
O97 C96 1.258 . S
O98 Cd89 2.378 . S
O98 C96 1.256 . S
O99 Cd100 2.300 . S
O99 C106 1.275 . S
Cd100 O99 2.300 . S
Cd100 O108 2.381 . S
Cd100 O109 2.378 . S
O101 Cd102 2.385 . S
O101 C106 1.255 . S
Cd102 O101 2.385 . S
Cd102 O103 2.317 . S
O103 Cd102 2.317 . S
O103 C104 1.232 . S
C104 O103 1.232 . S
C104 O105 1.218 . S
O105 C104 1.218 . S
C106 O99 1.275 . S
C106 O101 1.255 . S
C107 O108 1.258 . S
C107 O109 1.256 . S
O108 Cd100 2.381 . S
O108 C107 1.258 . S
O109 Cd100 2.378 . S
O109 C107 1.256 . S
O110 Cd111 2.300 . S
O110 C117 1.275 . S
Cd111 O110 2.300 . S
Cd111 O119 2.381 . S
Cd111 O120 2.378 . S
O112 Cd113 2.385 . S
O112 C117 1.255 . S
Cd113 O112 2.385 . S
Cd113 O114 2.317 . S
O114 Cd113 2.317 . S
O114 C115 1.232 . S
C115 O114 1.232 . S
C115 O116 1.218 . S
O116 C115 1.218 . S
C117 O110 1.275 . S
C117 O112 1.255 . S
C118 O119 1.258 . S
C118 O120 1.256 . S
O119 Cd111 2.381 . S
O119 C118 1.258 . S
O120 Cd111 2.378 . S
O120 C118 1.256 . S
O121 Cd122 2.300 . S
O121 C128 1.275 . S
Cd122 O121 2.300 . S
Cd122 O130 2.381 . S
Cd122 O131 2.378 . S
O123 Cd124 2.385 . S
O123 C128 1.255 . S
Cd124 O123 2.385 . S
Cd124 O125 2.317 . S
O125 Cd124 2.317 . S
O125 C126 1.232 . S
C126 O125 1.232 . S
C126 O127 1.218 . S
O127 C126 1.218 . S
C128 O121 1.275 . S
C128 O123 1.255 . S
C129 O130 1.258 . S
C129 O131 1.256 . S
O130 Cd122 2.381 . S
O130 C129 1.258 . S
O131 Cd122 2.378 . S
O131 C129 1.256 . S
O132 Cd133 2.300 . S
O132 C139 1.275 . S
Cd133 O132 2.300 . S
Cd133 O141 2.381 . S
Cd133 O142 2.378 . S
O134 Cd135 2.385 . S
O134 C139 1.255 . S
Cd135 O134 2.385 . S
Cd135 O136 2.317 . S
O136 Cd135 2.317 . S
O136 C137 1.232 . S
C137 O136 1.232 . S
C137 O138 1.218 . S
O138 C137 1.218 . S
C139 O132 1.275 . S
C139 O134 1.255 . S
C140 O141 1.258 . S
C140 O142 1.256 . S
O141 Cd133 2.381 . S
O141 C140 1.258 . S
O142 Cd133 2.378 . S
O142 C140 1.256 . S
O143 Cd144 2.300 . S
O143 C150 1.275 . S
Cd144 O143 2.300 . S
Cd144 O152 2.381 . S
Cd144 O153 2.378 . S
O145 Cd146 2.385 . S
O145 C150 1.255 . S
Cd146 O145 2.385 . S
Cd146 O147 2.317 . S
O147 Cd146 2.317 . S
O147 C148 1.232 . S
C148 O147 1.232 . S
C148 O149 1.218 . S
O149 C148 1.218 . S
C150 O143 1.275 . S
C150 O145 1.255 . S
C151 O152 1.258 . S
C151 O153 1.256 . S
O152 Cd144 2.381 . S
O152 C151 1.258 . S
O153 Cd144 2.378 . S
O153 C151 1.256 . S
O154 Cd155 2.300 . S
O154 C161 1.275 . S
Cd155 O154 2.300 . S
Cd155 O163 2.381 . S
Cd155 O164 2.378 . S
O156 Cd157 2.385 . S
O156 C161 1.255 . S
Cd157 O156 2.385 . S
Cd157 O158 2.317 . S
O158 Cd157 2.317 . S
O158 C159 1.232 . S
C159 O158 1.232 . S
C159 O160 1.218 . S
O160 C159 1.218 . S
C161 O154 1.275 . S
C161 O156 1.255 . S
C162 O163 1.258 . S
C162 O164 1.256 . S
O163 Cd155 2.381 . S
O163 C162 1.258 . S
O164 Cd155 2.378 . S
O164 C162 1.256 . S
O165 Cd166 2.300 . S
O165 C172 1.275 . S
Cd166 O165 2.300 . S
Cd166 O174 2.381 . S
Cd166 O175 2.378 . S
O167 Cd168 2.385 . S
O167 C172 1.255 . S
Cd168 O167 2.385 . S
Cd168 O169 2.317 . S
O169 Cd168 2.317 . S
O169 C170 1.232 . S
C170 O169 1.232 . S
C170 O171 1.218 . S
O171 C170 1.218 . S
C172 O165 1.275 . S
C172 O167 1.255 . S
C173 O174 1.258 . S
C173 O175 1.256 . S
O174 Cd166 2.381 . S
O174 C173 1.258 . S
O175 Cd166 2.378 . S
O175 C173 1.256 . S
O176 Cd177 2.300 . S
O176 C183 1.275 . S
Cd177 O176 2.300 . S
Cd177 O185 2.381 . S
Cd177 O186 2.378 . S
O178 Cd179 2.385 . S
O178 C183 1.255 . S
Cd179 O178 2.385 . S
Cd179 O180 2.317 . S
O180 Cd179 2.317 . S
O180 C181 1.232 . S
C181 O180 1.232 . S
C181 O182 1.218 . S
O182 C181 1.218 . S
C183 O176 1.275 . S
C183 O178 1.255 . S
C184 O185 1.258 . S
C184 O186 1.256 . S
O185 Cd177 2.381 . S
O185 C184 1.258 . S
O186 Cd177 2.378 . S
O186 C184 1.256 . S
O187 Cd188 2.300 . S
O187 C194 1.275 . S
Cd188 O187 2.300 . S
Cd188 O196 2.381 . S
Cd188 O197 2.378 . S
O189 Cd190 2.385 . S
O189 C194 1.255 . S
Cd190 O189 2.385 . S
Cd190 O191 2.317 . S
O191 Cd190 2.317 . S
O191 C192 1.232 . S
C192 O191 1.232 . S
C192 O193 1.218 . S
O193 C192 1.218 . S
C194 O187 1.275 . S
C194 O189 1.255 . S
C195 O196 1.258 . S
C195 O197 1.256 . S
O196 Cd188 2.381 . S
O196 C195 1.258 . S
O197 Cd188 2.378 . S
O197 C195 1.256 . S
O198 Cd199 2.300 . S
O198 C205 1.275 . S
Cd199 O198 2.300 . S
Cd199 O207 2.381 . S
Cd199 O208 2.378 . S
O200 Cd201 2.385 . S
O200 C205 1.255 . S
Cd201 O200 2.385 . S
Cd201 O202 2.317 . S
O202 Cd201 2.317 . S
O202 C203 1.232 . S
C203 O202 1.232 . S
C203 O204 1.218 . S
O204 C203 1.218 . S
C205 O198 1.275 . S
C205 O200 1.255 . S
C206 O207 1.258 . S
C206 O208 1.256 . S
O207 Cd199 2.381 . S
O207 C206 1.258 . S
O208 Cd199 2.378 . S
O208 C206 1.256 . S
O209 Cd210 2.300 . S
O209 C216 1.275 . S
Cd210 O209 2.300 . S
Cd210 O218 2.381 . S
Cd210 O219 2.378 . S
O211 Cd212 2.385 . S
O211 C216 1.255 . S
Cd212 O211 2.385 . S
Cd212 O213 2.317 . S
O213 Cd212 2.317 . S
O213 C214 1.232 . S
C214 O213 1.232 . S
C214 O215 1.218 . S
O215 C214 1.218 . S
C216 O209 1.275 . S
C216 O211 1.255 . S
C217 O218 1.258 . S
C217 O219 1.256 . S
O218 Cd210 2.381 . S
O218 C217 1.258 . S
O219 Cd210 2.378 . S
O219 C217 1.256 . S
O220 Cd221 2.300 . S
O220 C227 1.275 . S
Cd221 O220 2.300 . S
Cd221 O229 2.381 . S
Cd221 O230 2.378 . S
O222 Cd223 2.385 . S
O222 C227 1.255 . S
Cd223 O222 2.385 . S
Cd223 O224 2.317 . S
O224 Cd223 2.317 . S
O224 C225 1.232 . S
C225 O224 1.232 . S
C225 O226 1.218 . S
O226 C225 1.218 . S
C227 O220 1.275 . S
C227 O222 1.255 . S
C228 O229 1.258 . S
C228 O230 1.256 . S
O229 Cd221 2.381 . S
O229 C228 1.258 . S
O230 Cd221 2.378 . S
O230 C228 1.256 . S
O231 Cd232 2.300 . S
O231 C238 1.275 . S
Cd232 O231 2.300 . S
Cd232 O240 2.381 . S
Cd232 O241 2.378 . S
O233 Cd234 2.385 . S
O233 C238 1.255 . S
Cd234 O233 2.385 . S
Cd234 O235 2.317 . S
O235 Cd234 2.317 . S
O235 C236 1.232 . S
C236 O235 1.232 . S
C236 O237 1.218 . S
O237 C236 1.218 . S
C238 O231 1.275 . S
C238 O233 1.255 . S
C239 O240 1.258 . S
C239 O241 1.256 . S
O240 Cd232 2.381 . S
O240 C239 1.258 . S
O241 Cd232 2.378 . S
O241 C239 1.256 . S
O242 Cd243 2.300 . S
O242 C249 1.275 . S
Cd243 O242 2.300 . S
Cd243 O251 2.381 . S
Cd243 O252 2.378 . S
O244 Cd245 2.385 . S
O244 C249 1.255 . S
Cd245 O244 2.385 . S
Cd245 O246 2.317 . S
O246 Cd245 2.317 . S
O246 C247 1.232 . S
C247 O246 1.232 . S
C247 O248 1.218 . S
O248 C247 1.218 . S
C249 O242 1.275 . S
C249 O244 1.255 . S
C250 O251 1.258 . S
C250 O252 1.256 . S
O251 Cd243 2.381 . S
O251 C250 1.258 . S
O252 Cd243 2.378 . S
O252 C250 1.256 . S
O253 Cd254 2.300 . S
O253 C260 1.275 . S
Cd254 O253 2.300 . S
Cd254 O262 2.381 . S
Cd254 O263 2.378 . S
O255 Cd256 2.385 . S
O255 C260 1.255 . S
Cd256 O255 2.385 . S
Cd256 O257 2.317 . S
O257 Cd256 2.317 . S
O257 C258 1.232 . S
C258 O257 1.232 . S
C258 O259 1.218 . S
O259 C258 1.218 . S
C260 O253 1.275 . S
C260 O255 1.255 . S
C261 O262 1.258 . S
C261 O263 1.256 . S
O262 Cd254 2.381 . S
O262 C261 1.258 . S
O263 Cd254 2.378 . S
O263 C261 1.256 . S
O264 Cd265 2.300 . S
O264 C271 1.275 . S
Cd265 O264 2.300 . S
Cd265 O273 2.381 . S
Cd265 O274 2.378 . S
O266 Cd267 2.385 . S
O266 C271 1.255 . S
Cd267 O266 2.385 . S
Cd267 O268 2.317 . S
O268 Cd267 2.317 . S
O268 C269 1.232 . S
C269 O268 1.232 . S
C269 O270 1.218 . S
O270 C269 1.218 . S
C271 O264 1.275 . S
C271 O266 1.255 . S
C272 O273 1.258 . S
C272 O274 1.256 . S
O273 Cd265 2.381 . S
O273 C272 1.258 . S
O274 Cd265 2.378 . S
O274 C272 1.256 . S
O275 Cd276 2.300 . S
O275 C282 1.275 . S
Cd276 O275 2.300 . S
Cd276 O284 2.381 . S
Cd276 O285 2.378 . S
O277 Cd278 2.385 . S
O277 C282 1.255 . S
Cd278 O277 2.385 . S
Cd278 O279 2.317 . S
O279 Cd278 2.317 . S
O279 C280 1.232 . S
C280 O279 1.232 . S
C280 O281 1.218 . S
O281 C280 1.218 . S
C282 O275 1.275 . S
C282 O277 1.255 . S
C283 O284 1.258 . S
C283 O285 1.256 . S
O284 Cd276 2.381 . S
O284 C283 1.258 . S
O285 Cd276 2.378 . S
O285 C283 1.256 . S
O286 Cd287 2.300 . S
O286 C293 1.275 . S
Cd287 O286 2.300 . S
Cd287 O295 2.381 . S
Cd287 O296 2.378 . S
O288 Cd289 2.385 . S
O288 C293 1.255 . S
Cd289 O288 2.385 . S
Cd289 O290 2.317 . S
O290 Cd289 2.317 . S
O290 C291 1.232 . S
C291 O290 1.232 . S
C291 O292 1.218 . S
O292 C291 1.218 . S
C293 O286 1.275 . S
C293 O288 1.255 . S
C294 O295 1.258 . S
C294 O296 1.256 . S
O295 Cd287 2.381 . S
O295 C294 1.258 . S
O296 Cd287 2.378 . S
O296 C294 1.256 . S
O297 Cd298 2.300 . S
O297 C304 1.275 . S
Cd298 O297 2.300 . S
Cd298 O306 2.381 . S
Cd298 O307 2.378 . S
O299 Cd300 2.385 . S
O299 C304 1.255 . S
Cd300 O299 2.385 . S
Cd300 O301 2.317 . S
O301 Cd300 2.317 . S
O301 C302 1.232 . S
C302 O301 1.232 . S
C302 O303 1.218 . S
O303 C302 1.218 . S
C304 O297 1.275 . S
C304 O299 1.255 . S
C305 O306 1.258 . S
C305 O307 1.256 . S
O306 Cd298 2.381 . S
O306 C305 1.258 . S
O307 Cd298 2.378 . S
O307 C305 1.256 . S
O308 Cd309 2.300 . S
O308 C315 1.275 . S
Cd309 O308 2.300 . S
Cd309 O317 2.381 . S
Cd309 O318 2.378 . S
O310 Cd311 2.385 . S
O310 C315 1.255 . S
Cd311 O310 2.385 . S
Cd311 O312 2.317 . S
O312 Cd311 2.317 . S
O312 C313 1.232 . S
C313 O312 1.232 . S
C313 O314 1.218 . S
O314 C313 1.218 . S
C315 O308 1.275 . S
C315 O310 1.255 . S
C316 O317 1.258 . S
C316 O318 1.256 . S
O317 Cd309 2.381 . S
O317 C316 1.258 . S
O318 Cd309 2.378 . S
O318 C316 1.256 . S
O319 Cd320 2.300 . S
O319 C326 1.275 . S
Cd320 O319 2.300 . S
Cd320 O328 2.381 . S
Cd320 O329 2.378 . S
O321 Cd322 2.385 . S
O321 C326 1.255 . S
Cd322 O321 2.385 . S
Cd322 O323 2.317 . S
O323 Cd322 2.317 . S
O323 C324 1.232 . S
C324 O323 1.232 . S
C324 O325 1.218 . S
O325 C324 1.218 . S
C326 O319 1.275 . S
C326 O321 1.255 . S
C327 O328 1.258 . S
C327 O329 1.256 . S
O328 Cd320 2.381 . S
O328 C327 1.258 . S
O329 Cd320 2.378 . S
O329 C327 1.256 . S
O330 Cd331 2.300 . S
O330 C337 1.275 . S
Cd331 O330 2.300 . S
Cd331 O339 2.381 . S
Cd331 O340 2.378 . S
O332 Cd333 2.385 . S
O332 C337 1.255 . S
Cd333 O332 2.385 . S
Cd333 O334 2.317 . S
O334 Cd333 2.317 . S
O334 C335 1.232 . S
C335 O334 1.232 . S
C335 O336 1.218 . S
O336 C335 1.218 . S
C337 O330 1.275 . S
C337 O332 1.255 . S
C338 O339 1.258 . S
C338 O340 1.256 . S
O339 Cd331 2.381 . S
O339 C338 1.258 . S
O340 Cd331 2.378 . S
O340 C338 1.256 . S
O341 Cd342 2.300 . S
O341 C348 1.275 . S
Cd342 O341 2.300 . S
Cd342 O350 2.381 . S
Cd342 O351 2.378 . S
O343 Cd344 2.385 . S
O343 C348 1.255 . S
Cd344 O343 2.385 . S
Cd344 O345 2.317 . S
O345 Cd344 2.317 . S
O345 C346 1.232 . S
C346 O345 1.232 . S
C346 O347 1.218 . S
O347 C346 1.218 . S
C348 O341 1.275 . S
C348 O343 1.255 . S
C349 O350 1.258 . S
C349 O351 1.256 . S
O350 Cd342 2.381 . S
O350 C349 1.258 . S
O351 Cd342 2.378 . S
O351 C349 1.256 . S
O352 Cd353 2.300 . S
O352 C359 1.275 . S
Cd353 O352 2.300 . S
Cd353 O361 2.381 . S
Cd353 O362 2.378 . S
O354 Cd355 2.385 . S
O354 C359 1.255 . S
Cd355 O354 2.385 . S
Cd355 O356 2.317 . S
O356 Cd355 2.317 . S
O356 C357 1.232 . S
C357 O356 1.232 . S
C357 O358 1.218 . S
O358 C357 1.218 . S
C359 O352 1.275 . S
C359 O354 1.255 . S
C360 O361 1.258 . S
C360 O362 1.256 . S
O361 Cd353 2.381 . S
O361 C360 1.258 . S
O362 Cd353 2.378 . S
O362 C360 1.256 . S
O363 Cd364 2.300 . S
O363 C370 1.275 . S
Cd364 O363 2.300 . S
Cd364 O372 2.381 . S
Cd364 O373 2.378 . S
O365 Cd366 2.385 . S
O365 C370 1.255 . S
Cd366 O365 2.385 . S
Cd366 O367 2.317 . S
O367 Cd366 2.317 . S
O367 C368 1.232 . S
C368 O367 1.232 . S
C368 O369 1.218 . S
O369 C368 1.218 . S
C370 O363 1.275 . S
C370 O365 1.255 . S
C371 O372 1.258 . S
C371 O373 1.256 . S
O372 Cd364 2.381 . S
O372 C371 1.258 . S
O373 Cd364 2.378 . S
O373 C371 1.256 . S
O374 Cd375 2.300 . S
O374 C381 1.275 . S
Cd375 O374 2.300 . S
Cd375 O383 2.381 . S
Cd375 O384 2.378 . S
O376 Cd377 2.385 . S
O376 C381 1.255 . S
Cd377 O376 2.385 . S
Cd377 O378 2.317 . S
O378 Cd377 2.317 . S
O378 C379 1.232 . S
C379 O378 1.232 . S
C379 O380 1.218 . S
O380 C379 1.218 . S
C381 O374 1.275 . S
C381 O376 1.255 . S
C382 O383 1.258 . S
C382 O384 1.256 . S
O383 Cd375 2.381 . S
O383 C382 1.258 . S
O384 Cd375 2.378 . S
O384 C382 1.256 . S
O385 Cd386 2.300 . S
O385 C392 1.275 . S
Cd386 O385 2.300 . S
Cd386 O394 2.381 . S
Cd386 O395 2.378 . S
O387 Cd388 2.385 . S
O387 C392 1.255 . S
Cd388 O387 2.385 . S
Cd388 O389 2.317 . S
O389 Cd388 2.317 . S
O389 C390 1.232 . S
C390 O389 1.232 . S
C390 O391 1.218 . S
O391 C390 1.218 . S
C392 O385 1.275 . S
C392 O387 1.255 . S
C393 O394 1.258 . S
C393 O395 1.256 . S
O394 Cd386 2.381 . S
O394 C393 1.258 . S
O395 Cd386 2.378 . S
O395 C393 1.256 . S
O396 Cd397 2.300 . S
O396 C403 1.275 . S
Cd397 O396 2.300 . S
Cd397 O405 2.381 . S
Cd397 O406 2.378 . S
O398 Cd399 2.385 . S
O398 C403 1.255 . S
Cd399 O398 2.385 . S
Cd399 O400 2.317 . S
O400 Cd399 2.317 . S
O400 C401 1.232 . S
C401 O400 1.232 . S
C401 O402 1.218 . S
O402 C401 1.218 . S
C403 O396 1.275 . S
C403 O398 1.255 . S
C404 O405 1.258 . S
C404 O406 1.256 . S
O405 Cd397 2.381 . S
O405 C404 1.258 . S
O406 Cd397 2.378 . S
O406 C404 1.256 . S
O407 Cd408 2.300 . S
O407 C414 1.275 . S
Cd408 O407 2.300 . S
Cd408 O416 2.381 . S
Cd408 O417 2.378 . S
O409 Cd410 2.385 . S
O409 C414 1.255 . S
Cd410 O409 2.385 . S
Cd410 O411 2.317 . S
O411 Cd410 2.317 . S
O411 C412 1.232 . S
C412 O411 1.232 . S
C412 O413 1.218 . S
O413 C412 1.218 . S
C414 O407 1.275 . S
C414 O409 1.255 . S
C415 O416 1.258 . S
C415 O417 1.256 . S
O416 Cd408 2.381 . S
O416 C415 1.258 . S
O417 Cd408 2.378 . S
O417 C415 1.256 . S
O418 Cd419 2.300 . S
O418 C425 1.275 . S
Cd419 O418 2.300 . S
Cd419 O427 2.381 . S
Cd419 O428 2.378 . S
O420 Cd421 2.385 . S
O420 C425 1.255 . S
Cd421 O420 2.385 . S
Cd421 O422 2.317 . S
O422 Cd421 2.317 . S
O422 C423 1.232 . S
C423 O422 1.232 . S
C423 O424 1.218 . S
O424 C423 1.218 . S
C425 O418 1.275 . S
C425 O420 1.255 . S
C426 O427 1.258 . S
C426 O428 1.256 . S
O427 Cd419 2.381 . S
O427 C426 1.258 . S
O428 Cd419 2.378 . S
O428 C426 1.256 . S
O429 Cd430 2.300 . S
O429 C436 1.275 . S
Cd430 O429 2.300 . S
Cd430 O438 2.381 . S
Cd430 O439 2.378 . S
O431 Cd432 2.385 . S
O431 C436 1.255 . S
Cd432 O431 2.385 . S
Cd432 O433 2.317 . S
O433 Cd432 2.317 . S
O433 C434 1.232 . S
C434 O433 1.232 . S
C434 O435 1.218 . S
O435 C434 1.218 . S
C436 O429 1.275 . S
C436 O431 1.255 . S
C437 O438 1.258 . S
C437 O439 1.256 . S
O438 Cd430 2.381 . S
O438 C437 1.258 . S
O439 Cd430 2.378 . S
O439 C437 1.256 . S
O440 Cd441 2.300 . S
O440 C447 1.275 . S
Cd441 O440 2.300 . S
Cd441 O449 2.381 . S
Cd441 O450 2.378 . S
O442 Cd443 2.385 . S
O442 C447 1.255 . S
Cd443 O442 2.385 . S
Cd443 O444 2.317 . S
O444 Cd443 2.317 . S
O444 C445 1.232 . S
C445 O444 1.232 . S
C445 O446 1.218 . S
O446 C445 1.218 . S
C447 O440 1.275 . S
C447 O442 1.255 . S
C448 O449 1.258 . S
C448 O450 1.256 . S
O449 Cd441 2.381 . S
O449 C448 1.258 . S
O450 Cd441 2.378 . S
O450 C448 1.256 . S
O451 Cd452 2.300 . S
O451 C458 1.275 . S
Cd452 O451 2.300 . S
Cd452 O460 2.381 . S
Cd452 O461 2.378 . S
O453 Cd454 2.385 . S
O453 C458 1.255 . S
Cd454 O453 2.385 . S
Cd454 O455 2.317 . S
O455 Cd454 2.317 . S
O455 C456 1.232 . S
C456 O455 1.232 . S
C456 O457 1.218 . S
O457 C456 1.218 . S
C458 O451 1.275 . S
C458 O453 1.255 . S
C459 O460 1.258 . S
C459 O461 1.256 . S
O460 Cd452 2.381 . S
O460 C459 1.258 . S
O461 Cd452 2.378 . S
O461 C459 1.256 . S
O462 Cd463 2.300 . S
O462 C469 1.275 . S
Cd463 O462 2.300 . S
Cd463 O471 2.381 . S
Cd463 O472 2.378 . S
O464 Cd465 2.385 . S
O464 C469 1.255 . S
Cd465 O464 2.385 . S
Cd465 O466 2.317 . S
O466 Cd465 2.317 . S
O466 C467 1.232 . S
C467 O466 1.232 . S
C467 O468 1.218 . S
O468 C467 1.218 . S
C469 O462 1.275 . S
C469 O464 1.255 . S
C470 O471 1.258 . S
C470 O472 1.256 . S
O471 Cd463 2.381 . S
O471 C470 1.258 . S
O472 Cd463 2.378 . S
O472 C470 1.256 . S
O473 Cd474 2.300 . S
O473 C480 1.275 . S
Cd474 O473 2.300 . S
Cd474 O482 2.381 . S
Cd474 O483 2.378 . S
O475 Cd476 2.385 . S
O475 C480 1.255 . S
Cd476 O475 2.385 . S
Cd476 O477 2.317 . S
O477 Cd476 2.317 . S
O477 C478 1.232 . S
C478 O477 1.232 . S
C478 O479 1.218 . S
O479 C478 1.218 . S
C480 O473 1.275 . S
C480 O475 1.255 . S
C481 O482 1.258 . S
C481 O483 1.256 . S
O482 Cd474 2.381 . S
O482 C481 1.258 . S
O483 Cd474 2.378 . S
O483 C481 1.256 . S
O484 Cd485 2.300 . S
O484 C491 1.275 . S
Cd485 O484 2.300 . S
Cd485 O493 2.381 . S
Cd485 O494 2.378 . S
O486 Cd487 2.385 . S
O486 C491 1.255 . S
Cd487 O486 2.385 . S
Cd487 O488 2.317 . S
O488 Cd487 2.317 . S
O488 C489 1.232 . S
C489 O488 1.232 . S
C489 O490 1.218 . S
O490 C489 1.218 . S
C491 O484 1.275 . S
C491 O486 1.255 . S
C492 O493 1.258 . S
C492 O494 1.256 . S
O493 Cd485 2.381 . S
O493 C492 1.258 . S
O494 Cd485 2.378 . S
O494 C492 1.256 . S
O495 Cd496 2.300 1_556 S
O495 C502 1.275 1_556 S
Cd496 O495 2.300 1_554 S
Cd496 O504 2.381 1_554 S
Cd496 O505 2.378 . S
O497 Cd498 2.385 . S
O497 C502 1.255 . S
Cd498 O497 2.385 . S
Cd498 O499 2.317 . S
O499 Cd498 2.317 . S
O499 C500 1.232 . S
C500 O499 1.232 . S
C500 O501 1.218 . S
O501 C500 1.218 . S
C502 O495 1.275 1_554 S
C502 O497 1.255 . S
C503 O504 1.258 1_554 S
C503 O505 1.256 . S
O504 Cd496 2.381 1_556 S
O504 C503 1.258 1_556 S
O505 Cd496 2.378 . S
O505 C503 1.256 . S
O506 Cd507 2.300 . S
O506 C513 1.275 . S
Cd507 O506 2.300 . S
Cd507 O515 2.381 . S
Cd507 O516 2.378 . S
O508 Cd509 2.385 . S
O508 C513 1.255 . S
Cd509 O508 2.385 . S
Cd509 O510 2.317 . S
O510 Cd509 2.317 . S
O510 C511 1.232 . S
C511 O510 1.232 . S
C511 O512 1.218 . S
O512 C511 1.218 . S
C513 O506 1.275 . S
C513 O508 1.255 . S
C514 O515 1.258 . S
C514 O516 1.256 . S
O515 Cd507 2.381 . S
O515 C514 1.258 . S
O516 Cd507 2.378 . S
O516 C514 1.256 . S
O517 Cd518 2.300 . S
O517 C524 1.275 . S
Cd518 O517 2.300 . S
Cd518 O526 2.381 . S
Cd518 O527 2.378 . S
O519 Cd520 2.385 . S
O519 C524 1.255 . S
Cd520 O519 2.385 . S
Cd520 O521 2.317 . S
O521 Cd520 2.317 . S
O521 C522 1.232 . S
C522 O521 1.232 . S
C522 O523 1.218 . S
O523 C522 1.218 . S
C524 O517 1.275 . S
C524 O519 1.255 . S
C525 O526 1.258 . S
C525 O527 1.256 . S
O526 Cd518 2.381 . S
O526 C525 1.258 . S
O527 Cd518 2.378 . S
O527 C525 1.256 . S
H528 C536 0.929 . S
H529 C538 0.930 . S
H530 C540 0.930 . S
H531 C543 0.929 . S
H532 C546 0.930 . S
H533 C548 0.960 . S
H534 C548 0.960 . S
H535 C548 0.960 . S
C536 H528 0.929 . S
C536 C537 1.377 . S
C536 C538 1.384 . S
C537 C536 1.377 . S
C537 C543 1.390 . S
C538 H529 0.930 . S
C538 C536 1.384 . S
C538 C539 1.372 . S
C539 C538 1.372 . S
C539 C540 1.400 . S
C539 C544 1.490 . S
C540 H530 0.930 . S
C540 C539 1.400 . S
C540 C543 1.386 . S
H541 C557 0.930 . S
H542 C558 0.931 . S
C543 H531 0.929 . S
C543 C537 1.390 . S
C543 C540 1.386 . S
C544 C539 1.490 . S
C544 C546 1.395 . S
C544 C547 1.403 . S
H545 C551 0.930 . S
C546 H532 0.930 . S
C546 C544 1.395 . S
C546 C549 1.403 . S
C547 C544 1.403 . S
C547 C548 1.524 . S
C547 C551 1.400 . S
C548 H533 0.960 . S
C548 H534 0.960 . S
C548 H535 0.960 . S
C548 C547 1.524 . S
C549 C546 1.403 . S
C549 C550 1.392 . S
C549 C553 1.495 . S
C550 C549 1.392 . S
C550 C551 1.385 . S
C550 C552 1.478 . S
C551 H545 0.930 . S
C551 C547 1.400 . S
C551 C550 1.385 . S
C552 C550 1.478 . S
C552 C554 1.381 . S
C552 C558 1.383 . S
C553 C549 1.495 . S
C553 H559 0.959 . S
C553 H560 0.961 . S
C553 H561 0.960 . S
C554 C552 1.381 . S
C554 C555 1.394 . S
C554 H562 0.930 . S
C555 C554 1.394 . S
C555 C556 1.383 . S
C555 H563 0.929 . S
C556 C555 1.383 . S
C556 C557 1.377 . S
C557 H541 0.930 . S
C557 C556 1.377 . S
C557 C558 1.379 . S
C558 H542 0.931 . S
C558 C552 1.383 . S
C558 C557 1.379 . S
H559 C553 0.959 . S
H560 C553 0.961 . S
H561 C553 0.960 . S
H562 C554 0.930 . S
H563 C555 0.929 . S
H564 C572 0.929 . S
H565 C574 0.930 . S
H566 C576 0.930 . S
H567 C579 0.929 . S
H568 C582 0.930 . S
H569 C584 0.960 . S
H570 C584 0.960 . S
H571 C584 0.960 . S
C572 H564 0.929 . S
C572 C573 1.377 . S
C572 C574 1.384 . S
C573 C572 1.377 . S
C573 C579 1.390 . S
C574 H565 0.930 . S
C574 C572 1.384 . S
C574 C575 1.372 . S
C575 C574 1.372 . S
C575 C576 1.400 . S
C575 C580 1.490 . S
C576 H566 0.930 . S
C576 C575 1.400 . S
C576 C579 1.386 . S
H577 C593 0.930 . S
H578 C594 0.931 . S
C579 H567 0.929 . S
C579 C573 1.390 . S
C579 C576 1.386 . S
C580 C575 1.490 . S
C580 C582 1.395 . S
C580 C583 1.403 . S
H581 C587 0.930 . S
C582 H568 0.930 . S
C582 C580 1.395 . S
C582 C585 1.403 . S
C583 C580 1.403 . S
C583 C584 1.524 . S
C583 C587 1.400 . S
C584 H569 0.960 . S
C584 H570 0.960 . S
C584 H571 0.960 . S
C584 C583 1.524 . S
C585 C582 1.403 . S
C585 C586 1.392 . S
C585 C589 1.495 . S
C586 C585 1.392 . S
C586 C587 1.385 . S
C586 C588 1.478 . S
C587 H581 0.930 . S
C587 C583 1.400 . S
C587 C586 1.385 . S
C588 C586 1.478 . S
C588 C590 1.381 . S
C588 C594 1.383 . S
C589 C585 1.495 . S
C589 H595 0.959 . S
C589 H596 0.961 . S
C589 H597 0.960 . S
C590 C588 1.381 . S
C590 C591 1.394 . S
C590 H598 0.930 . S
C591 C590 1.394 . S
C591 C592 1.383 . S
C591 H599 0.929 . S
C592 C591 1.383 . S
C592 C593 1.377 . S
C593 H577 0.930 . S
C593 C592 1.377 . S
C593 C594 1.379 . S
C594 H578 0.931 . S
C594 C588 1.383 . S
C594 C593 1.379 . S
H595 C589 0.959 . S
H596 C589 0.961 . S
H597 C589 0.960 . S
H598 C590 0.930 . S
H599 C591 0.929 . S
H600 C608 0.929 . S
H601 C610 0.930 . S
H602 C612 0.930 . S
H603 C615 0.929 . S
H604 C618 0.930 . S
H605 C620 0.960 . S
H606 C620 0.960 . S
H607 C620 0.960 . S
C608 H600 0.929 . S
C608 C609 1.377 . S
C608 C610 1.384 . S
C609 C608 1.377 . S
C609 C615 1.390 . S
C610 H601 0.930 . S
C610 C608 1.384 . S
C610 C611 1.372 . S
C611 C610 1.372 . S
C611 C612 1.400 . S
C611 C616 1.490 . S
C612 H602 0.930 . S
C612 C611 1.400 . S
C612 C615 1.386 . S
H613 C629 0.930 . S
H614 C630 0.931 . S
C615 H603 0.929 . S
C615 C609 1.390 . S
C615 C612 1.386 . S
C616 C611 1.490 . S
C616 C618 1.395 . S
C616 C619 1.403 . S
H617 C623 0.930 . S
C618 H604 0.930 . S
C618 C616 1.395 . S
C618 C621 1.403 1_556 S
C619 C616 1.403 . S
C619 C620 1.524 . S
C619 C623 1.400 1_556 S
C620 H605 0.960 . S
C620 H606 0.960 . S
C620 H607 0.960 . S
C620 C619 1.524 . S
C621 C618 1.403 1_554 S
C621 C622 1.392 . S
C621 C625 1.495 . S
C622 C621 1.392 . S
C622 C623 1.385 . S
C622 C624 1.478 . S
C623 H617 0.930 . S
C623 C619 1.400 1_554 S
C623 C622 1.385 . S
C624 C622 1.478 . S
C624 C626 1.381 . S
C624 C630 1.383 . S
C625 C621 1.495 . S
C625 H631 0.959 . S
C625 H632 0.961 . S
C625 H633 0.960 . S
C626 C624 1.381 . S
C626 C627 1.394 . S
C626 H634 0.930 . S
C627 C626 1.394 . S
C627 C628 1.383 . S
C627 H635 0.929 . S
C628 C627 1.383 . S
C628 C629 1.377 . S
C629 H613 0.930 . S
C629 C628 1.377 . S
C629 C630 1.379 . S
C630 H614 0.931 . S
C630 C624 1.383 . S
C630 C629 1.379 . S
H631 C625 0.959 . S
H632 C625 0.961 . S
H633 C625 0.960 . S
H634 C626 0.930 . S
H635 C627 0.929 . S
H636 C644 0.929 . S
H637 C646 0.930 . S
H638 C648 0.930 . S
H639 C651 0.929 . S
H640 C654 0.930 . S
H641 C656 0.972 . S
H642 C656 1.007 . S
H643 C656 0.894 1_556 S
C644 H636 0.929 . S
C644 C645 1.377 1_554 S
C644 C646 1.384 . S
C645 C644 1.377 1_556 S
C645 C651 1.390 . S
C646 H637 0.930 . S
C646 C644 1.384 . S
C646 C647 1.324 1_554 S
C647 C646 1.324 1_556 S
C647 C648 1.476 . S
C647 C652 1.467 1_556 S
C648 H638 0.930 . S
C648 C647 1.476 . S
C648 C651 1.386 . S
H649 C665 0.930 . S
H650 C666 0.931 1_556 S
C651 H639 0.929 . S
C651 C645 1.390 . S
C651 C648 1.386 . S
C652 C647 1.467 1_554 S
C652 C654 1.395 . S
C652 C655 1.403 . S
H653 C659 0.930 . S
C654 H640 0.930 . S
C654 C652 1.395 . S
C654 C657 1.403 . S
C655 C652 1.403 . S
C655 C656 1.537 . S
C655 C659 1.400 . S
C656 H641 0.972 . S
C656 H642 1.007 . S
C656 H643 0.894 1_554 S
C656 C655 1.537 . S
C657 C654 1.403 . S
C657 C658 1.392 . S
C657 C661 1.495 . S
C658 C657 1.392 . S
C658 C659 1.385 . S
C658 C660 1.478 . S
C659 H653 0.930 . S
C659 C655 1.400 . S
C659 C658 1.385 . S
C660 C658 1.478 . S
C660 C662 1.381 . S
C660 C666 1.383 . S
C661 C657 1.495 . S
C661 H667 0.959 . S
C661 H668 0.961 . S
C661 H669 0.960 . S
C662 C660 1.381 . S
C662 C663 1.394 . S
C662 H670 0.930 . S
C663 C662 1.394 . S
C663 C664 1.383 . S
C663 H671 0.929 . S
C664 C663 1.383 . S
C664 C665 1.377 . S
C665 H649 0.930 . S
C665 C664 1.377 . S
C665 C666 1.379 . S
C666 H650 0.931 1_554 S
C666 C660 1.383 . S
C666 C665 1.379 . S
H667 C661 0.959 . S
H668 C661 0.961 . S
H669 C661 0.960 . S
H670 C662 0.930 . S
H671 C663 0.929 . S
H672 C680 0.929 . S
H673 C682 0.930 . S
H674 C684 0.930 . S
H675 C687 0.929 . S
H676 C690 0.930 . S
H677 C692 0.960 . S
H678 C692 0.960 . S
H679 C692 0.960 . S
C680 H672 0.929 . S
C680 C681 1.377 . S
C680 C682 1.384 . S
C681 C680 1.377 . S
C681 C687 1.390 . S
C682 H673 0.930 . S
C682 C680 1.384 . S
C682 C683 1.372 . S
C683 C682 1.372 . S
C683 C684 1.400 . S
C683 C688 1.490 . S
C684 H674 0.930 . S
C684 C683 1.400 . S
C684 C687 1.386 . S
H685 C701 0.930 . S
H686 C702 0.931 . S
C687 H675 0.929 . S
C687 C681 1.390 . S
C687 C684 1.386 . S
C688 C683 1.490 . S
C688 C690 1.395 . S
C688 C691 1.403 . S
H689 C695 0.930 . S
C690 H676 0.930 . S
C690 C688 1.395 . S
C690 C693 1.403 . S
C691 C688 1.403 . S
C691 C692 1.524 . S
C691 C695 1.400 . S
C692 H677 0.960 . S
C692 H678 0.960 . S
C692 H679 0.960 . S
C692 C691 1.524 . S
C693 C690 1.403 . S
C693 C694 1.392 . S
C693 C697 1.495 . S
C694 C693 1.392 . S
C694 C695 1.385 . S
C694 C696 1.478 . S
C695 H689 0.930 . S
C695 C691 1.400 . S
C695 C694 1.385 . S
C696 C694 1.478 . S
C696 C698 1.381 . S
C696 C702 1.383 . S
C697 C693 1.495 . S
C697 H703 0.959 . S
C697 H704 0.961 . S
C697 H705 0.960 . S
C698 C696 1.381 . S
C698 C699 1.394 . S
C698 H706 0.930 . S
C699 C698 1.394 . S
C699 C700 1.383 . S
C699 H707 0.929 . S
C700 C699 1.383 . S
C700 C701 1.377 . S
C701 H685 0.930 . S
C701 C700 1.377 . S
C701 C702 1.379 . S
C702 H686 0.931 . S
C702 C696 1.383 . S
C702 C701 1.379 . S
H703 C697 0.959 . S
H704 C697 0.961 . S
H705 C697 0.960 . S
H706 C698 0.930 . S
H707 C699 0.929 . S
H708 C716 0.929 . S
H709 C718 0.930 . S
H710 C720 0.930 . S
H711 C723 0.929 . S
H712 C726 0.930 . S
H713 C728 0.960 . S
H714 C728 0.960 . S
H715 C728 0.960 . S
C716 H708 0.929 . S
C716 C717 1.377 . S
C716 C718 1.384 . S
C717 C716 1.377 . S
C717 C723 1.390 . S
C718 H709 0.930 . S
C718 C716 1.384 . S
C718 C719 1.372 . S
C719 C718 1.372 . S
C719 C720 1.400 . S
C719 C724 1.490 . S
C720 H710 0.930 . S
C720 C719 1.400 . S
C720 C723 1.386 . S
H721 C737 0.930 . S
H722 C738 0.931 . S
C723 H711 0.929 . S
C723 C717 1.390 . S
C723 C720 1.386 . S
C724 C719 1.490 . S
C724 C726 1.395 . S
C724 C727 1.403 . S
H725 C731 0.930 . S
C726 H712 0.930 . S
C726 C724 1.395 . S
C726 C729 1.403 . S
C727 C724 1.403 . S
C727 C728 1.524 . S
C727 C731 1.400 . S
C728 H713 0.960 . S
C728 H714 0.960 . S
C728 H715 0.960 . S
C728 C727 1.524 . S
C729 C726 1.403 . S
C729 C730 1.392 . S
C729 C733 1.495 . S
C730 C729 1.392 . S
C730 C731 1.385 . S
C730 C732 1.478 . S
C731 H725 0.930 . S
C731 C727 1.400 . S
C731 C730 1.385 . S
C732 C730 1.478 . S
C732 C734 1.381 . S
C732 C738 1.383 . S
C733 C729 1.495 . S
C733 H739 0.959 . S
C733 H740 0.961 . S
C733 H741 0.960 . S
C734 C732 1.381 . S
C734 C735 1.394 . S
C734 H742 0.930 . S
C735 C734 1.394 . S
C735 C736 1.383 . S
C735 H743 0.929 . S
C736 C735 1.383 . S
C736 C737 1.377 . S
C737 H721 0.930 . S
C737 C736 1.377 . S
C737 C738 1.379 . S
C738 H722 0.931 . S
C738 C732 1.383 . S
C738 C737 1.379 . S
H739 C733 0.959 . S
H740 C733 0.961 . S
H741 C733 0.960 . S
H742 C734 0.930 . S
H743 C735 0.929 . S
H744 C752 0.929 . S
H745 C754 0.930 . S
H746 C756 0.930 . S
H747 C759 0.929 . S
H748 C762 0.930 . S
H749 C764 0.960 . S
H750 C764 0.960 . S
H751 C764 0.960 . S
C752 H744 0.929 . S
C752 C753 1.377 . S
C752 C754 1.384 . S
C753 C752 1.377 . S
C753 C759 1.390 . S
C754 H745 0.930 . S
C754 C752 1.384 . S
C754 C755 1.372 . S
C755 C754 1.372 . S
C755 C756 1.400 . S
C755 C760 1.490 . S
C756 H746 0.930 . S
C756 C755 1.400 . S
C756 C759 1.386 . S
H757 C773 0.930 . S
H758 C774 0.931 . S
C759 H747 0.929 . S
C759 C753 1.390 . S
C759 C756 1.386 . S
C760 C755 1.490 . S
C760 C762 1.395 . S
C760 C763 1.403 . S
H761 C767 0.930 . S
C762 H748 0.930 . S
C762 C760 1.395 . S
C762 C765 1.403 . S
C763 C760 1.403 . S
C763 C764 1.524 . S
C763 C767 1.400 . S
C764 H749 0.960 . S
C764 H750 0.960 . S
C764 H751 0.960 . S
C764 C763 1.524 . S
C765 C762 1.403 . S
C765 C766 1.392 . S
C765 C769 1.495 . S
C766 C765 1.392 . S
C766 C767 1.385 . S
C766 C768 1.478 . S
C767 H761 0.930 . S
C767 C763 1.400 . S
C767 C766 1.385 . S
C768 C766 1.478 . S
C768 C770 1.381 . S
C768 C774 1.383 . S
C769 C765 1.495 . S
C769 H775 0.959 . S
C769 H776 0.961 . S
C769 H777 0.960 . S
C770 C768 1.381 . S
C770 C771 1.394 . S
C770 H778 0.930 . S
C771 C770 1.394 . S
C771 C772 1.383 . S
C771 H779 0.929 . S
C772 C771 1.383 . S
C772 C773 1.377 . S
C773 H757 0.930 . S
C773 C772 1.377 . S
C773 C774 1.379 . S
C774 H758 0.931 . S
C774 C768 1.383 . S
C774 C773 1.379 . S
H775 C769 0.959 . S
H776 C769 0.961 . S
H777 C769 0.960 . S
H778 C770 0.930 . S
H779 C771 0.929 . S
H780 C788 0.929 . S
H781 C790 0.930 . S
H782 C792 0.930 . S
H783 C795 0.929 . S
H784 C798 0.930 . S
H785 C800 0.960 . S
H786 C800 0.960 . S
H787 C800 0.960 . S
C788 H780 0.929 . S
C788 C789 1.377 . S
C788 C790 1.384 . S
C789 C788 1.377 . S
C789 C795 1.390 . S
C790 H781 0.930 . S
C790 C788 1.384 . S
C790 C791 1.372 . S
C791 C790 1.372 . S
C791 C792 1.400 . S
C791 C796 1.490 . S
C792 H782 0.930 . S
C792 C791 1.400 . S
C792 C795 1.386 . S
H793 C809 0.930 . S
H794 C810 0.931 . S
C795 H783 0.929 . S
C795 C789 1.390 . S
C795 C792 1.386 . S
C796 C791 1.490 . S
C796 C798 1.395 . S
C796 C799 1.403 . S
H797 C803 0.930 . S
C798 H784 0.930 . S
C798 C796 1.395 . S
C798 C801 1.403 . S
C799 C796 1.403 . S
C799 C800 1.524 . S
C799 C803 1.400 . S
C800 H785 0.960 . S
C800 H786 0.960 . S
C800 H787 0.960 . S
C800 C799 1.524 . S
C801 C798 1.403 . S
C801 C802 1.392 . S
C801 C805 1.495 . S
C802 C801 1.392 . S
C802 C803 1.385 . S
C802 C804 1.478 . S
C803 H797 0.930 . S
C803 C799 1.400 . S
C803 C802 1.385 . S
C804 C802 1.478 . S
C804 C806 1.381 . S
C804 C810 1.383 . S
C805 C801 1.495 . S
C805 H811 0.959 . S
C805 H812 0.961 . S
C805 H813 0.960 . S
C806 C804 1.381 . S
C806 C807 1.394 . S
C806 H814 0.930 . S
C807 C806 1.394 . S
C807 C808 1.383 . S
C807 H815 0.929 . S
C808 C807 1.383 . S
C808 C809 1.377 . S
C809 H793 0.930 . S
C809 C808 1.377 . S
C809 C810 1.379 . S
C810 H794 0.931 . S
C810 C804 1.383 . S
C810 C809 1.379 . S
H811 C805 0.959 . S
H812 C805 0.961 . S
H813 C805 0.960 . S
H814 C806 0.930 . S
H815 C807 0.929 . S
H816 C824 0.929 . S
H817 C826 0.930 . S
H818 C828 0.930 . S
H819 C831 0.929 . S
H820 C834 0.930 . S
H821 C836 0.960 . S
H822 C836 0.960 . S
H823 C836 0.960 . S
C824 H816 0.929 . S
C824 C825 1.377 . S
C824 C826 1.384 . S
C825 C824 1.377 . S
C825 C831 1.390 . S
C826 H817 0.930 . S
C826 C824 1.384 . S
C826 C827 1.372 . S
C827 C826 1.372 . S
C827 C828 1.400 . S
C827 C832 1.490 . S
C828 H818 0.930 . S
C828 C827 1.400 . S
C828 C831 1.386 . S
H829 C845 0.930 . S
H830 C846 0.931 . S
C831 H819 0.929 . S
C831 C825 1.390 . S
C831 C828 1.386 . S
C832 C827 1.490 . S
C832 C834 1.395 . S
C832 C835 1.403 . S
H833 C839 0.930 . S
C834 H820 0.930 . S
C834 C832 1.395 . S
C834 C837 1.403 . S
C835 C832 1.403 . S
C835 C836 1.524 . S
C835 C839 1.400 . S
C836 H821 0.960 . S
C836 H822 0.960 . S
C836 H823 0.960 . S
C836 C835 1.524 . S
C837 C834 1.403 . S
C837 C838 1.392 . S
C837 C841 1.495 . S
C838 C837 1.392 . S
C838 C839 1.385 . S
C838 C840 1.478 . S
C839 H833 0.930 . S
C839 C835 1.400 . S
C839 C838 1.385 . S
C840 C838 1.478 . S
C840 C842 1.381 . S
C840 C846 1.383 . S
C841 C837 1.495 . S
C841 H847 0.959 . S
C841 H848 0.961 . S
C841 H849 0.960 . S
C842 C840 1.381 . S
C842 C843 1.394 . S
C842 H850 0.930 . S
C843 C842 1.394 . S
C843 C844 1.383 . S
C843 H851 0.929 . S
C844 C843 1.383 . S
C844 C845 1.377 . S
C845 H829 0.930 . S
C845 C844 1.377 . S
C845 C846 1.379 . S
C846 H830 0.931 . S
C846 C840 1.383 . S
C846 C845 1.379 . S
H847 C841 0.959 . S
H848 C841 0.961 . S
H849 C841 0.960 . S
H850 C842 0.930 . S
H851 C843 0.929 . S
H852 C860 0.929 . S
H853 C862 0.930 . S
H854 C864 0.930 . S
H855 C867 0.929 . S
H856 C870 0.930 . S
H857 C872 0.960 . S
H858 C872 0.960 . S
H859 C872 0.960 . S
C860 H852 0.929 . S
C860 C861 1.377 . S
C860 C862 1.384 . S
C861 C860 1.377 . S
C861 C867 1.390 . S
C862 H853 0.930 . S
C862 C860 1.384 . S
C862 C863 1.372 . S
C863 C862 1.372 . S
C863 C864 1.400 . S
C863 C868 1.490 . S
C864 H854 0.930 . S
C864 C863 1.400 . S
C864 C867 1.386 . S
H865 C881 0.930 . S
H866 C882 0.931 . S
C867 H855 0.929 . S
C867 C861 1.390 . S
C867 C864 1.386 . S
C868 C863 1.490 . S
C868 C870 1.395 . S
C868 C871 1.403 . S
H869 C875 0.930 . S
C870 H856 0.930 . S
C870 C868 1.395 . S
C870 C873 1.403 . S
C871 C868 1.403 . S
C871 C872 1.524 . S
C871 C875 1.400 . S
C872 H857 0.960 . S
C872 H858 0.960 . S
C872 H859 0.960 . S
C872 C871 1.524 . S
C873 C870 1.403 . S
C873 C874 1.392 . S
C873 C877 1.495 . S
C874 C873 1.392 . S
C874 C875 1.385 . S
C874 C876 1.478 . S
C875 H869 0.930 . S
C875 C871 1.400 . S
C875 C874 1.385 . S
C876 C874 1.478 . S
C876 C878 1.381 . S
C876 C882 1.383 . S
C877 C873 1.495 . S
C877 H883 0.959 . S
C877 H884 0.961 . S
C877 H885 0.960 . S
C878 C876 1.381 . S
C878 C879 1.394 . S
C878 H886 0.930 . S
C879 C878 1.394 . S
C879 C880 1.383 . S
C879 H887 0.929 . S
C880 C879 1.383 . S
C880 C881 1.377 . S
C881 H865 0.930 . S
C881 C880 1.377 . S
C881 C882 1.379 . S
C882 H866 0.931 . S
C882 C876 1.383 . S
C882 C881 1.379 . S
H883 C877 0.959 . S
H884 C877 0.961 . S
H885 C877 0.960 . S
H886 C878 0.930 . S
H887 C879 0.929 . S
H888 C896 0.929 . S
H889 C898 0.930 . S
H890 C900 0.930 . S
H891 C903 0.929 . S
H892 C906 0.930 . S
H893 C908 0.960 . S
H894 C908 0.960 . S
H895 C908 0.960 . S
C896 H888 0.929 . S
C896 C897 1.377 . S
C896 C898 1.384 . S
C897 C896 1.377 . S
C897 C903 1.390 . S
C898 H889 0.930 . S
C898 C896 1.384 . S
C898 C899 1.372 . S
C899 C898 1.372 . S
C899 C900 1.400 . S
C899 C904 1.490 . S
C900 H890 0.930 . S
C900 C899 1.400 . S
C900 C903 1.386 . S
H901 C917 0.930 . S
H902 C918 0.952 . S
C903 H891 0.929 . S
C903 C897 1.390 . S
C903 C900 1.386 . S
C904 C899 1.490 . S
C904 C906 1.395 . S
C904 C907 1.403 . S
H905 C911 0.930 . S
C906 H892 0.930 . S
C906 C904 1.395 . S
C906 C909 1.403 . S
C907 C904 1.403 . S
C907 C908 1.524 . S
C907 C911 1.400 . S
C908 H893 0.960 . S
C908 H894 0.960 . S
C908 H895 0.960 . S
C908 C907 1.524 . S
C909 C906 1.403 . S
C909 C910 1.392 . S
C909 C913 1.495 . S
C910 C909 1.392 . S
C910 C911 1.385 . S
C910 C912 1.478 . S
C911 H905 0.930 . S
C911 C907 1.400 . S
C911 C910 1.385 . S
C912 C910 1.478 . S
C912 C914 1.381 . S
C912 C918 1.339 1_565 S
C913 C909 1.495 . S
C913 H919 0.964 . S
C913 H920 0.961 1_565 S
C913 H921 0.960 . S
C914 C912 1.381 . S
C914 C915 1.394 . S
C914 H922 0.930 . S
C915 C914 1.394 . S
C915 C916 1.383 1_565 S
C915 H923 0.929 . S
C916 C915 1.383 1_545 S
C916 C917 1.377 . S
C917 H901 0.930 . S
C917 C916 1.377 . S
C917 C918 1.408 . S
C918 H902 0.952 . S
C918 C912 1.339 1_545 S
C918 C917 1.408 . S
H919 C913 0.964 . S
H920 C913 0.961 1_545 S
H921 C913 0.960 . S
H922 C914 0.930 . S
H923 C915 0.929 . S
H924 C932 0.929 . S
H925 C934 0.930 . S
H926 C936 0.930 . S
H927 C939 0.929 . S
H928 C942 0.930 . S
H929 C944 0.960 . S
H930 C944 0.960 . S
H931 C944 0.960 . S
C932 H924 0.929 . S
C932 C933 1.377 . S
C932 C934 1.384 . S
C933 C932 1.377 . S
C933 C939 1.390 . S
C934 H925 0.930 . S
C934 C932 1.384 . S
C934 C935 1.372 . S
C935 C934 1.372 . S
C935 C936 1.400 . S
C935 C940 1.490 . S
C936 H926 0.930 . S
C936 C935 1.400 . S
C936 C939 1.386 . S
H937 C953 0.930 . S
H938 C954 0.931 . S
C939 H927 0.929 . S
C939 C933 1.390 . S
C939 C936 1.386 . S
C940 C935 1.490 . S
C940 C942 1.395 . S
C940 C943 1.403 . S
H941 C947 0.930 . S
C942 H928 0.930 . S
C942 C940 1.395 . S
C942 C945 1.403 . S
C943 C940 1.403 . S
C943 C944 1.524 . S
C943 C947 1.400 . S
C944 H929 0.960 . S
C944 H930 0.960 . S
C944 H931 0.960 . S
C944 C943 1.524 . S
C945 C942 1.403 . S
C945 C946 1.392 . S
C945 C949 1.495 . S
C946 C945 1.392 . S
C946 C947 1.385 . S
C946 C948 1.478 . S
C947 H941 0.930 . S
C947 C943 1.400 . S
C947 C946 1.385 . S
C948 C946 1.478 . S
C948 C950 1.381 . S
C948 C954 1.383 . S
C949 C945 1.495 . S
C949 H955 0.959 . S
C949 H956 0.961 . S
C949 H957 0.960 . S
C950 C948 1.381 . S
C950 C951 1.394 . S
C950 H958 0.930 . S
C951 C950 1.394 . S
C951 C952 1.383 . S
C951 H959 0.929 . S
C952 C951 1.383 . S
C952 C953 1.377 . S
C953 H937 0.930 . S
C953 C952 1.377 . S
C953 C954 1.379 . S
C954 H938 0.931 . S
C954 C948 1.383 . S
C954 C953 1.379 . S
H955 C949 0.959 . S
H956 C949 0.961 . S
H957 C949 0.960 . S
H958 C950 0.930 . S
H959 C951 0.929 . S
H960 C968 0.929 . S
H961 C970 0.930 . S
H962 C972 0.930 . S
H963 C975 0.929 . S
H964 C978 0.930 . S
H965 C980 0.960 . S
H966 C980 0.960 . S
H967 C980 0.960 . S
C968 H960 0.929 . S
C968 C969 1.377 . S
C968 C970 1.384 . S
C969 C968 1.377 . S
C969 C975 1.390 . S
C970 H961 0.930 . S
C970 C968 1.384 . S
C970 C971 1.372 . S
C971 C970 1.372 . S
C971 C972 1.400 . S
C971 C976 1.490 . S
C972 H962 0.930 . S
C972 C971 1.400 . S
C972 C975 1.386 . S
H973 C989 0.930 . S
H974 C990 0.931 . S
C975 H963 0.929 . S
C975 C969 1.390 . S
C975 C972 1.386 . S
C976 C971 1.490 . S
C976 C978 1.395 . S
C976 C979 1.403 . S
H977 C983 0.930 . S
C978 H964 0.930 . S
C978 C976 1.395 . S
C978 C981 1.403 . S
C979 C976 1.403 . S
C979 C980 1.524 . S
C979 C983 1.400 . S
C980 H965 0.960 . S
C980 H966 0.960 . S
C980 H967 0.960 . S
C980 C979 1.524 . S
C981 C978 1.403 . S
C981 C982 1.392 . S
C981 C985 1.495 . S
C982 C981 1.392 . S
C982 C983 1.385 . S
C982 C984 1.478 . S
C983 H977 0.930 . S
C983 C979 1.400 . S
C983 C982 1.385 . S
C984 C982 1.478 . S
C984 C986 1.381 . S
C984 C990 1.383 . S
C985 C981 1.495 . S
C985 H991 0.959 . S
C985 H992 0.961 . S
C985 H993 0.960 . S
C986 C984 1.381 . S
C986 C987 1.394 . S
C986 H994 0.930 . S
C987 C986 1.394 . S
C987 C988 1.383 . S
C987 H995 0.929 . S
C988 C987 1.383 . S
C988 C989 1.377 . S
C989 H973 0.930 . S
C989 C988 1.377 . S
C989 C990 1.379 . S
C990 H974 0.931 . S
C990 C984 1.383 . S
C990 C989 1.379 . S
H991 C985 0.959 . S
H992 C985 0.961 . S
H993 C985 0.960 . S
H994 C986 0.930 . S
H995 C987 0.929 . S
H996 C1004 0.929 . S
H997 C1006 0.930 . S
H998 C1008 0.930 . S
H999 C1011 0.929 . S
H1000 C1014 0.930 . S
H1001 C1016 0.960 . S
H1002 C1016 0.960 . S
H1003 C1016 0.960 . S
C1004 H996 0.929 . S
C1004 C1005 1.377 . S
C1004 C1006 1.384 . S
C1005 C1004 1.377 . S
C1005 C1011 1.390 . S
C1006 H997 0.930 . S
C1006 C1004 1.384 . S
C1006 C1007 1.372 . S
C1007 C1006 1.372 . S
C1007 C1008 1.400 . S
C1007 C1012 1.490 . S
C1008 H998 0.930 . S
C1008 C1007 1.400 . S
C1008 C1011 1.386 . S
H1009 C1025 0.930 . S
H1010 C1026 0.931 . S
C1011 H999 0.929 . S
C1011 C1005 1.390 . S
C1011 C1008 1.386 . S
C1012 C1007 1.490 . S
C1012 C1014 1.395 . S
C1012 C1015 1.403 . S
H1013 C1019 0.930 . S
C1014 H1000 0.930 . S
C1014 C1012 1.395 . S
C1014 C1017 1.403 . S
C1015 C1012 1.403 . S
C1015 C1016 1.524 . S
C1015 C1019 1.400 . S
C1016 H1001 0.960 . S
C1016 H1002 0.960 . S
C1016 H1003 0.960 . S
C1016 C1015 1.524 . S
C1017 C1014 1.403 . S
C1017 C1018 1.392 . S
C1017 C1021 1.495 . S
C1018 C1017 1.392 . S
C1018 C1019 1.385 . S
C1018 C1020 1.478 . S
C1019 H1013 0.930 . S
C1019 C1015 1.400 . S
C1019 C1018 1.385 . S
C1020 C1018 1.478 . S
C1020 C1022 1.381 . S
C1020 C1026 1.383 . S
C1021 C1017 1.495 . S
C1021 H1027 0.959 . S
C1021 H1028 0.961 . S
C1021 H1029 0.960 . S
C1022 C1020 1.381 . S
C1022 C1023 1.394 . S
C1022 H1030 0.930 . S
C1023 C1022 1.394 . S
C1023 C1024 1.383 . S
C1023 H1031 0.929 . S
C1024 C1023 1.383 . S
C1024 C1025 1.377 . S
C1025 H1009 0.930 . S
C1025 C1024 1.377 . S
C1025 C1026 1.379 . S
C1026 H1010 0.931 . S
C1026 C1020 1.383 . S
C1026 C1025 1.379 . S
H1027 C1021 0.959 . S
H1028 C1021 0.961 . S
H1029 C1021 0.960 . S
H1030 C1022 0.930 . S
H1031 C1023 0.929 . S
H1032 C1040 0.929 . S
H1033 C1042 0.930 . S
H1034 C1044 0.930 . S
H1035 C1047 0.929 . S
H1036 C1050 0.930 . S
H1037 C1052 0.960 . S
H1038 C1052 0.960 . S
H1039 C1052 0.960 . S
C1040 H1032 0.929 . S
C1040 C1041 1.377 . S
C1040 C1042 1.384 . S
C1041 C1040 1.377 . S
C1041 C1047 1.390 . S
C1042 H1033 0.930 . S
C1042 C1040 1.384 . S
C1042 C1043 1.372 . S
C1043 C1042 1.372 . S
C1043 C1044 1.400 . S
C1043 C1048 1.490 . S
C1044 H1034 0.930 . S
C1044 C1043 1.400 . S
C1044 C1047 1.386 . S
H1045 C1061 0.930 . S
H1046 C1062 0.931 . S
C1047 H1035 0.929 . S
C1047 C1041 1.390 . S
C1047 C1044 1.386 . S
C1048 C1043 1.490 . S
C1048 C1050 1.395 1_556 S
C1048 C1051 1.403 . S
H1049 C1055 0.930 . S
C1050 H1036 0.930 . S
C1050 C1048 1.395 1_554 S
C1050 C1053 1.403 . S
C1051 C1048 1.403 . S
C1051 C1052 1.524 . S
C1051 C1055 1.400 . S
C1052 H1037 0.960 . S
C1052 H1038 0.960 . S
C1052 H1039 0.960 . S
C1052 C1051 1.524 . S
C1053 C1050 1.403 . S
C1053 C1054 1.392 . S
C1053 C1057 1.495 . S
C1054 C1053 1.392 . S
C1054 C1055 1.385 1_554 S
C1054 C1056 1.478 . S
C1055 H1049 0.930 . S
C1055 C1051 1.400 . S
C1055 C1054 1.385 1_556 S
C1056 C1054 1.478 . S
C1056 C1058 1.381 . S
C1056 C1062 1.383 . S
C1057 C1053 1.495 . S
C1057 H1063 0.959 . S
C1057 H1064 0.961 . S
C1057 H1065 0.960 . S
C1058 C1056 1.381 . S
C1058 C1059 1.394 . S
C1058 H1066 0.930 . S
C1059 C1058 1.394 . S
C1059 C1060 1.383 . S
C1059 H1067 0.929 . S
C1060 C1059 1.383 . S
C1060 C1061 1.377 . S
C1061 H1045 0.930 . S
C1061 C1060 1.377 . S
C1061 C1062 1.379 . S
C1062 H1046 0.931 . S
C1062 C1056 1.383 . S
C1062 C1061 1.379 . S
H1063 C1057 0.959 . S
H1064 C1057 0.961 . S
H1065 C1057 0.960 . S
H1066 C1058 0.930 . S
H1067 C1059 0.929 . S
H1068 C1076 0.929 . S
H1069 C1078 0.930 . S
H1070 C1080 0.930 . S
H1071 C1083 0.914 1_556 S
H1072 C1086 0.930 1_554 S
H1073 C1088 0.960 . S
H1074 C1088 0.960 . S
H1075 C1088 0.960 . S
C1076 H1068 0.929 . S
C1076 C1077 1.377 . S
C1076 C1078 1.384 . S
C1077 C1076 1.377 . S
C1077 C1083 1.430 . S
C1078 H1069 0.930 . S
C1078 C1076 1.384 . S
C1078 C1079 1.372 1_554 S
C1079 C1078 1.372 1_556 S
C1079 C1080 1.400 . S
C1079 C1084 1.490 . S
C1080 H1070 0.930 . S
C1080 C1079 1.400 . S
C1080 C1083 1.361 1_556 S
H1081 C1097 0.930 . S
H1082 C1098 0.931 . S
C1083 H1071 0.914 1_554 S
C1083 C1077 1.430 . S
C1083 C1080 1.361 1_554 S
C1084 C1079 1.490 . S
C1084 C1086 1.395 . S
C1084 C1087 1.403 . S
H1085 C1091 0.930 . S
C1086 H1072 0.930 1_556 S
C1086 C1084 1.395 . S
C1086 C1089 1.403 . S
C1087 C1084 1.403 . S
C1087 C1088 1.524 . S
C1087 C1091 1.400 . S
C1088 H1073 0.960 . S
C1088 H1074 0.960 . S
C1088 H1075 0.960 . S
C1088 C1087 1.524 . S
C1089 C1086 1.403 . S
C1089 C1090 1.392 . S
C1089 C1093 1.495 . S
C1090 C1089 1.392 . S
C1090 C1091 1.385 . S
C1090 C1092 1.478 . S
C1091 H1085 0.930 . S
C1091 C1087 1.400 . S
C1091 C1090 1.385 . S
C1092 C1090 1.478 . S
C1092 C1094 1.381 . S
C1092 C1098 1.383 . S
C1093 C1089 1.495 . S
C1093 H1099 1.030 . S
C1093 H1100 0.961 . S
C1093 H1101 0.960 . S
C1094 C1092 1.381 . S
C1094 C1095 1.394 . S
C1094 H1102 0.930 . S
C1095 C1094 1.394 . S
C1095 C1096 1.383 . S
C1095 H1103 0.929 . S
C1096 C1095 1.383 . S
C1096 C1097 1.377 . S
C1097 H1081 0.930 . S
C1097 C1096 1.377 . S
C1097 C1098 1.379 . S
C1098 H1082 0.931 . S
C1098 C1092 1.383 . S
C1098 C1097 1.379 . S
H1099 C1093 1.030 . S
H1100 C1093 0.961 . S
H1101 C1093 0.960 . S
H1102 C1094 0.930 . S
H1103 C1095 0.929 . S
H1104 C1112 0.929 . S
H1105 C1114 0.930 . S
H1106 C1116 0.930 . S
H1107 C1119 0.929 . S
H1108 C1122 0.930 . S
H1109 C1124 0.960 . S
H1110 C1124 0.960 . S
H1111 C1124 0.960 . S
C1112 H1104 0.929 . S
C1112 C1113 1.377 . S
C1112 C1114 1.384 . S
C1113 C1112 1.377 . S
C1113 C1119 1.390 . S
C1114 H1105 0.930 . S
C1114 C1112 1.384 . S
C1114 C1115 1.372 . S
C1115 C1114 1.372 . S
C1115 C1116 1.400 . S
C1115 C1120 1.490 . S
C1116 H1106 0.930 . S
C1116 C1115 1.400 . S
C1116 C1119 1.386 . S
H1117 C1133 0.930 . S
H1118 C1134 0.931 . S
C1119 H1107 0.929 . S
C1119 C1113 1.390 . S
C1119 C1116 1.386 . S
C1120 C1115 1.490 . S
C1120 C1122 1.395 . S
C1120 C1123 1.403 . S
H1121 C1127 0.930 . S
C1122 H1108 0.930 . S
C1122 C1120 1.395 . S
C1122 C1125 1.403 . S
C1123 C1120 1.403 . S
C1123 C1124 1.524 . S
C1123 C1127 1.400 . S
C1124 H1109 0.960 . S
C1124 H1110 0.960 . S
C1124 H1111 0.960 . S
C1124 C1123 1.524 . S
C1125 C1122 1.403 . S
C1125 C1126 1.392 . S
C1125 C1129 1.495 . S
C1126 C1125 1.392 . S
C1126 C1127 1.385 . S
C1126 C1128 1.478 . S
C1127 H1121 0.930 . S
C1127 C1123 1.400 . S
C1127 C1126 1.385 . S
C1128 C1126 1.478 . S
C1128 C1130 1.381 . S
C1128 C1134 1.383 . S
C1129 C1125 1.495 . S
C1129 H1135 0.959 . S
C1129 H1136 0.961 . S
C1129 H1137 0.960 . S
C1130 C1128 1.381 . S
C1130 C1131 1.394 . S
C1130 H1138 0.930 . S
C1131 C1130 1.394 . S
C1131 C1132 1.383 . S
C1131 H1139 0.929 . S
C1132 C1131 1.383 . S
C1132 C1133 1.377 . S
C1133 H1117 0.930 . S
C1133 C1132 1.377 . S
C1133 C1134 1.379 . S
C1134 H1118 0.931 . S
C1134 C1128 1.383 . S
C1134 C1133 1.379 . S
H1135 C1129 0.959 . S
H1136 C1129 0.961 . S
H1137 C1129 0.960 . S
H1138 C1130 0.930 . S
H1139 C1131 0.929 . S
H1140 C1148 0.929 . S
H1141 C1150 0.930 . S
H1142 C1152 0.930 . S
H1143 C1155 0.929 . S
H1144 C1158 0.930 . S
H1145 C1160 0.960 . S
H1146 C1160 0.960 . S
H1147 C1160 0.960 . S
C1148 H1140 0.929 . S
C1148 C1149 1.377 . S
C1148 C1150 1.384 . S
C1149 C1148 1.377 . S
C1149 C1155 1.390 . S
C1150 H1141 0.930 . S
C1150 C1148 1.384 . S
C1150 C1151 1.372 . S
C1151 C1150 1.372 . S
C1151 C1152 1.400 . S
C1151 C1156 1.490 . S
C1152 H1142 0.930 . S
C1152 C1151 1.400 . S
C1152 C1155 1.386 . S
H1153 C1169 0.930 . S
H1154 C1170 0.931 . S
C1155 H1143 0.929 . S
C1155 C1149 1.390 . S
C1155 C1152 1.386 . S
C1156 C1151 1.490 . S
C1156 C1158 1.395 . S
C1156 C1159 1.403 . S
H1157 C1163 0.930 . S
C1158 H1144 0.930 . S
C1158 C1156 1.395 . S
C1158 C1161 1.403 . S
C1159 C1156 1.403 . S
C1159 C1160 1.524 . S
C1159 C1163 1.400 . S
C1160 H1145 0.960 . S
C1160 H1146 0.960 . S
C1160 H1147 0.960 . S
C1160 C1159 1.524 . S
C1161 C1158 1.403 . S
C1161 C1162 1.392 . S
C1161 C1165 1.495 . S
C1162 C1161 1.392 . S
C1162 C1163 1.385 . S
C1162 C1164 1.478 . S
C1163 H1157 0.930 . S
C1163 C1159 1.400 . S
C1163 C1162 1.385 . S
C1164 C1162 1.478 . S
C1164 C1166 1.381 . S
C1164 C1170 1.383 . S
C1165 C1161 1.495 . S
C1165 H1171 0.959 . S
C1165 H1172 0.961 . S
C1165 H1173 0.960 . S
C1166 C1164 1.381 . S
C1166 C1167 1.394 . S
C1166 H1174 0.930 . S
C1167 C1166 1.394 . S
C1167 C1168 1.383 . S
C1167 H1175 0.929 . S
C1168 C1167 1.383 . S
C1168 C1169 1.377 . S
C1169 H1153 0.930 . S
C1169 C1168 1.377 . S
C1169 C1170 1.379 . S
C1170 H1154 0.931 . S
C1170 C1164 1.383 . S
C1170 C1169 1.379 . S
H1171 C1165 0.959 . S
H1172 C1165 0.961 . S
H1173 C1165 0.960 . S
H1174 C1166 0.930 . S
H1175 C1167 0.929 . S
H1176 C1184 0.929 . S
H1177 C1186 0.930 . S
H1178 C1188 0.930 . S
H1179 C1191 0.929 . S
H1180 C1194 0.930 . S
H1181 C1196 0.960 . S
H1182 C1196 0.960 . S
H1183 C1196 0.960 . S
C1184 H1176 0.929 . S
C1184 C1185 1.377 . S
C1184 C1186 1.384 . S
C1185 C1184 1.377 . S
C1185 C1191 1.390 . S
C1186 H1177 0.930 . S
C1186 C1184 1.384 . S
C1186 C1187 1.372 . S
C1187 C1186 1.372 . S
C1187 C1188 1.400 . S
C1187 C1192 1.490 . S
C1188 H1178 0.930 . S
C1188 C1187 1.400 . S
C1188 C1191 1.386 . S
H1189 C1205 0.930 . S
H1190 C1206 0.931 . S
C1191 H1179 0.929 . S
C1191 C1185 1.390 . S
C1191 C1188 1.386 . S
C1192 C1187 1.490 . S
C1192 C1194 1.395 . S
C1192 C1195 1.403 . S
H1193 C1199 0.930 . S
C1194 H1180 0.930 . S
C1194 C1192 1.395 . S
C1194 C1197 1.403 . S
C1195 C1192 1.403 . S
C1195 C1196 1.524 . S
C1195 C1199 1.400 . S
C1196 H1181 0.960 . S
C1196 H1182 0.960 . S
C1196 H1183 0.960 . S
C1196 C1195 1.524 . S
C1197 C1194 1.403 . S
C1197 C1198 1.392 . S
C1197 C1201 1.495 . S
C1198 C1197 1.392 . S
C1198 C1199 1.385 . S
C1198 C1200 1.478 . S
C1199 H1193 0.930 . S
C1199 C1195 1.400 . S
C1199 C1198 1.385 . S
C1200 C1198 1.478 . S
C1200 C1202 1.381 . S
C1200 C1206 1.383 . S
C1201 C1197 1.495 . S
C1201 H1207 0.959 . S
C1201 H1208 0.961 . S
C1201 H1209 0.960 . S
C1202 C1200 1.381 . S
C1202 C1203 1.394 . S
C1202 H1210 0.930 . S
C1203 C1202 1.394 . S
C1203 C1204 1.383 . S
C1203 H1211 0.929 . S
C1204 C1203 1.383 . S
C1204 C1205 1.377 . S
C1205 H1189 0.930 . S
C1205 C1204 1.377 . S
C1205 C1206 1.379 . S
C1206 H1190 0.931 . S
C1206 C1200 1.383 . S
C1206 C1205 1.379 . S
H1207 C1201 0.959 . S
H1208 C1201 0.961 . S
H1209 C1201 0.960 . S
H1210 C1202 0.930 . S
H1211 C1203 0.929 . S
H1212 C1220 0.929 . S
H1213 C1222 0.930 . S
H1214 C1224 0.930 . S
H1215 C1227 0.929 . S
H1216 C1230 0.930 . S
H1217 C1232 0.960 . S
H1218 C1232 0.960 . S
H1219 C1232 0.960 . S
C1220 H1212 0.929 . S
C1220 C1221 1.377 . S
C1220 C1222 1.384 . S
C1221 C1220 1.377 . S
C1221 C1227 1.390 . S
C1222 H1213 0.930 . S
C1222 C1220 1.384 . S
C1222 C1223 1.372 . S
C1223 C1222 1.372 . S
C1223 C1224 1.400 . S
C1223 C1228 1.490 . S
C1224 H1214 0.930 . S
C1224 C1223 1.400 . S
C1224 C1227 1.386 . S
H1225 C1241 0.930 . S
H1226 C1242 0.931 . S
C1227 H1215 0.929 . S
C1227 C1221 1.390 . S
C1227 C1224 1.386 . S
C1228 C1223 1.490 . S
C1228 C1230 1.395 . S
C1228 C1231 1.403 . S
H1229 C1235 0.930 . S
C1230 H1216 0.930 . S
C1230 C1228 1.395 . S
C1230 C1233 1.403 . S
C1231 C1228 1.403 . S
C1231 C1232 1.524 . S
C1231 C1235 1.400 . S
C1232 H1217 0.960 . S
C1232 H1218 0.960 . S
C1232 H1219 0.960 . S
C1232 C1231 1.524 . S
C1233 C1230 1.403 . S
C1233 C1234 1.392 . S
C1233 C1237 1.495 . S
C1234 C1233 1.392 . S
C1234 C1235 1.385 . S
C1234 C1236 1.478 . S
C1235 H1229 0.930 . S
C1235 C1231 1.400 . S
C1235 C1234 1.385 . S
C1236 C1234 1.478 . S
C1236 C1238 1.381 . S
C1236 C1242 1.383 . S
C1237 C1233 1.495 . S
C1237 H1243 0.959 . S
C1237 H1244 0.961 . S
C1237 H1245 0.960 . S
C1238 C1236 1.381 . S
C1238 C1239 1.394 . S
C1238 H1246 0.930 . S
C1239 C1238 1.394 . S
C1239 C1240 1.383 . S
C1239 H1247 0.929 . S
C1240 C1239 1.383 . S
C1240 C1241 1.377 . S
C1241 H1225 0.930 . S
C1241 C1240 1.377 . S
C1241 C1242 1.379 . S
C1242 H1226 0.931 . S
C1242 C1236 1.383 . S
C1242 C1241 1.379 . S
H1243 C1237 0.959 . S
H1244 C1237 0.961 . S
H1245 C1237 0.960 . S
H1246 C1238 0.930 . S
H1247 C1239 0.929 . S
H1248 C1256 0.929 . S
H1249 C1258 0.930 . S
H1250 C1260 0.930 . S
H1251 C1263 0.929 . S
H1252 C1266 0.930 . S
H1253 C1268 0.960 . S
H1254 C1268 0.960 . S
H1255 C1268 0.960 . S
C1256 H1248 0.929 . S
C1256 C1257 1.377 . S
C1256 C1258 1.384 . S
C1257 C1256 1.377 . S
C1257 C1263 1.390 . S
C1258 H1249 0.930 . S
C1258 C1256 1.384 . S
C1258 C1259 1.372 . S
C1259 C1258 1.372 . S
C1259 C1260 1.400 . S
C1259 C1264 1.490 . S
C1260 H1250 0.930 . S
C1260 C1259 1.400 . S
C1260 C1263 1.386 . S
H1261 C1277 0.930 . S
H1262 C1278 0.931 . S
C1263 H1251 0.929 . S
C1263 C1257 1.390 . S
C1263 C1260 1.386 . S
C1264 C1259 1.490 . S
C1264 C1266 1.395 . S
C1264 C1267 1.403 . S
H1265 C1271 0.930 . S
C1266 H1252 0.930 . S
C1266 C1264 1.395 . S
C1266 C1269 1.403 . S
C1267 C1264 1.403 . S
C1267 C1268 1.524 . S
C1267 C1271 1.400 . S
C1268 H1253 0.960 . S
C1268 H1254 0.960 . S
C1268 H1255 0.960 . S
C1268 C1267 1.524 . S
C1269 C1266 1.403 . S
C1269 C1270 1.392 . S
C1269 C1273 1.495 . S
C1270 C1269 1.392 . S
C1270 C1271 1.385 . S
C1270 C1272 1.478 . S
C1271 H1265 0.930 . S
C1271 C1267 1.400 . S
C1271 C1270 1.385 . S
C1272 C1270 1.478 . S
C1272 C1274 1.381 . S
C1272 C1278 1.383 . S
C1273 C1269 1.495 . S
C1273 H1279 0.959 . S
C1273 H1280 0.961 . S
C1273 H1281 0.960 . S
C1274 C1272 1.381 . S
C1274 C1275 1.394 . S
C1274 H1282 0.930 . S
C1275 C1274 1.394 . S
C1275 C1276 1.383 . S
C1275 H1283 0.929 . S
C1276 C1275 1.383 . S
C1276 C1277 1.377 . S
C1277 H1261 0.930 . S
C1277 C1276 1.377 . S
C1277 C1278 1.379 . S
C1278 H1262 0.931 . S
C1278 C1272 1.383 . S
C1278 C1277 1.379 . S
H1279 C1273 0.959 . S
H1280 C1273 0.961 . S
H1281 C1273 0.960 . S
H1282 C1274 0.930 . S
H1283 C1275 0.929 . S
H1284 C1292 0.929 . S
H1285 C1294 0.930 . S
H1286 C1296 0.930 . S
H1287 C1299 0.929 . S
H1288 C1302 0.930 . S
H1289 C1304 0.960 . S
H1290 C1304 0.960 . S
H1291 C1304 0.960 . S
C1292 H1284 0.929 . S
C1292 C1293 1.377 . S
C1292 C1294 1.384 . S
C1293 C1292 1.377 . S
C1293 C1299 1.390 . S
C1294 H1285 0.930 . S
C1294 C1292 1.384 . S
C1294 C1295 1.372 . S
C1295 C1294 1.372 . S
C1295 C1296 1.400 . S
C1295 C1300 1.490 . S
C1296 H1286 0.930 . S
C1296 C1295 1.400 . S
C1296 C1299 1.386 . S
H1297 C1313 0.930 . S
H1298 C1314 0.931 . S
C1299 H1287 0.929 . S
C1299 C1293 1.390 . S
C1299 C1296 1.386 . S
C1300 C1295 1.490 . S
C1300 C1302 1.395 . S
C1300 C1303 1.403 . S
H1301 C1307 0.930 . S
C1302 H1288 0.930 . S
C1302 C1300 1.395 . S
C1302 C1305 1.403 . S
C1303 C1300 1.403 . S
C1303 C1304 1.524 . S
C1303 C1307 1.400 . S
C1304 H1289 0.960 . S
C1304 H1290 0.960 . S
C1304 H1291 0.960 . S
C1304 C1303 1.524 . S
C1305 C1302 1.403 . S
C1305 C1306 1.392 . S
C1305 C1309 1.495 . S
C1306 C1305 1.392 . S
C1306 C1307 1.385 . S
C1306 C1308 1.478 . S
C1307 H1301 0.930 . S
C1307 C1303 1.400 . S
C1307 C1306 1.385 . S
C1308 C1306 1.478 . S
C1308 C1310 1.381 . S
C1308 C1314 1.383 . S
C1309 C1305 1.495 . S
C1309 H1315 0.959 . S
C1309 H1316 0.961 . S
C1309 H1317 0.960 . S
C1310 C1308 1.381 . S
C1310 C1311 1.394 . S
C1310 H1318 0.930 . S
C1311 C1310 1.394 . S
C1311 C1312 1.383 . S
C1311 H1319 0.929 . S
C1312 C1311 1.383 . S
C1312 C1313 1.377 . S
C1313 H1297 0.930 . S
C1313 C1312 1.377 . S
C1313 C1314 1.379 . S
C1314 H1298 0.931 . S
C1314 C1308 1.383 . S
C1314 C1313 1.379 . S
H1315 C1309 0.959 . S
H1316 C1309 0.961 . S
H1317 C1309 0.960 . S
H1318 C1310 0.930 . S
H1319 C1311 0.929 . S
H1320 C1328 0.929 . S
H1321 C1330 0.930 . S
H1322 C1332 0.930 . S
H1323 C1335 0.929 . S
H1324 C1338 0.930 . S
H1325 C1340 0.960 . S
H1326 C1340 0.960 . S
H1327 C1340 0.960 . S
C1328 H1320 0.929 . S
C1328 C1329 1.377 . S
C1328 C1330 1.384 . S
C1329 C1328 1.377 . S
C1329 C1335 1.390 . S
C1330 H1321 0.930 . S
C1330 C1328 1.384 . S
C1330 C1331 1.372 . S
C1331 C1330 1.372 . S
C1331 C1332 1.400 . S
C1331 C1336 1.490 . S
C1332 H1322 0.930 . S
C1332 C1331 1.400 . S
C1332 C1335 1.386 . S
H1333 C1349 0.930 . S
H1334 C1350 0.931 . S
C1335 H1323 0.929 . S
C1335 C1329 1.390 . S
C1335 C1332 1.386 . S
C1336 C1331 1.490 . S
C1336 C1338 1.395 . S
C1336 C1339 1.403 . S
H1337 C1343 0.930 . S
C1338 H1324 0.930 . S
C1338 C1336 1.395 . S
C1338 C1341 1.403 . S
C1339 C1336 1.403 . S
C1339 C1340 1.524 . S
C1339 C1343 1.400 . S
C1340 H1325 0.960 . S
C1340 H1326 0.960 . S
C1340 H1327 0.960 . S
C1340 C1339 1.524 . S
C1341 C1338 1.403 . S
C1341 C1342 1.392 . S
C1341 C1345 1.495 1_545 S
C1342 C1341 1.392 . S
C1342 C1343 1.385 . S
C1342 C1344 1.478 . S
C1343 H1337 0.930 . S
C1343 C1339 1.400 . S
C1343 C1342 1.385 . S
C1344 C1342 1.478 . S
C1344 C1346 1.381 . S
C1344 C1350 1.383 1_545 S
C1345 C1341 1.495 1_565 S
C1345 H1351 0.959 . S
C1345 H1352 0.961 . S
C1345 H1353 0.972 . S
C1346 C1344 1.381 . S
C1346 C1347 1.394 1_545 S
C1346 H1354 0.930 . S
C1347 C1346 1.394 1_565 S
C1347 C1348 1.383 . S
C1347 H1355 0.929 . S
C1348 C1347 1.383 . S
C1348 C1349 1.377 . S
C1349 H1333 0.930 . S
C1349 C1348 1.377 . S
C1349 C1350 1.379 . S
C1350 H1334 0.931 . S
C1350 C1344 1.383 1_565 S
C1350 C1349 1.379 . S
H1351 C1345 0.959 . S
H1352 C1345 0.961 . S
H1353 C1345 0.972 . S
H1354 C1346 0.930 . S
H1355 C1347 0.929 . S
H1356 C1364 0.929 . S
H1357 C1366 0.930 . S
H1358 C1368 0.930 . S
H1359 C1371 0.929 . S
H1360 C1374 0.930 . S
H1361 C1376 0.960 . S
H1362 C1376 0.960 . S
H1363 C1376 0.960 . S
C1364 H1356 0.929 . S
C1364 C1365 1.377 . S
C1364 C1366 1.384 . S
C1365 C1364 1.377 . S
C1365 C1371 1.390 . S
C1366 H1357 0.930 . S
C1366 C1364 1.384 . S
C1366 C1367 1.372 . S
C1367 C1366 1.372 . S
C1367 C1368 1.400 . S
C1367 C1372 1.490 . S
C1368 H1358 0.930 . S
C1368 C1367 1.400 . S
C1368 C1371 1.386 . S
H1369 C1385 0.930 . S
H1370 C1386 0.931 . S
C1371 H1359 0.929 . S
C1371 C1365 1.390 . S
C1371 C1368 1.386 . S
C1372 C1367 1.490 . S
C1372 C1374 1.395 . S
C1372 C1375 1.403 . S
H1373 C1379 0.930 . S
C1374 H1360 0.930 . S
C1374 C1372 1.395 . S
C1374 C1377 1.403 . S
C1375 C1372 1.403 . S
C1375 C1376 1.524 . S
C1375 C1379 1.400 . S
C1376 H1361 0.960 . S
C1376 H1362 0.960 . S
C1376 H1363 0.960 . S
C1376 C1375 1.524 . S
C1377 C1374 1.403 . S
C1377 C1378 1.392 . S
C1377 C1381 1.495 . S
C1378 C1377 1.392 . S
C1378 C1379 1.385 . S
C1378 C1380 1.478 . S
C1379 H1373 0.930 . S
C1379 C1375 1.400 . S
C1379 C1378 1.385 . S
C1380 C1378 1.478 . S
C1380 C1382 1.381 . S
C1380 C1386 1.383 . S
C1381 C1377 1.495 . S
C1381 H1387 0.959 . S
C1381 H1388 0.961 . S
C1381 H1389 0.960 . S
C1382 C1380 1.381 . S
C1382 C1383 1.394 . S
C1382 H1390 0.930 . S
C1383 C1382 1.394 . S
C1383 C1384 1.383 . S
C1383 H1391 0.929 . S
C1384 C1383 1.383 . S
C1384 C1385 1.377 . S
C1385 H1369 0.930 . S
C1385 C1384 1.377 . S
C1385 C1386 1.379 . S
C1386 H1370 0.931 . S
C1386 C1380 1.383 . S
C1386 C1385 1.379 . S
H1387 C1381 0.959 . S
H1388 C1381 0.961 . S
H1389 C1381 0.960 . S
H1390 C1382 0.930 . S
H1391 C1383 0.929 . S
H1392 C1400 0.929 . S
H1393 C1402 0.930 . S
H1394 C1404 0.930 . S
H1395 C1407 0.929 . S
H1396 C1410 0.930 . S
H1397 C1412 0.960 . S
H1398 C1412 0.960 . S
H1399 C1412 0.960 . S
C1400 H1392 0.929 . S
C1400 C1401 1.377 . S
C1400 C1402 1.384 . S
C1401 C1400 1.377 . S
C1401 C1407 1.390 . S
C1402 H1393 0.930 . S
C1402 C1400 1.384 . S
C1402 C1403 1.372 . S
C1403 C1402 1.372 . S
C1403 C1404 1.400 . S
C1403 C1408 1.490 . S
C1404 H1394 0.930 . S
C1404 C1403 1.400 . S
C1404 C1407 1.386 . S
H1405 C1421 0.930 . S
H1406 C1422 0.931 . S
C1407 H1395 0.929 . S
C1407 C1401 1.390 . S
C1407 C1404 1.386 . S
C1408 C1403 1.490 . S
C1408 C1410 1.395 . S
C1408 C1411 1.403 . S
H1409 C1415 0.930 . S
C1410 H1396 0.930 . S
C1410 C1408 1.395 . S
C1410 C1413 1.403 1_556 S
C1411 C1408 1.403 . S
C1411 C1412 1.524 . S
C1411 C1415 1.400 . S
C1412 H1397 0.960 . S
C1412 H1398 0.960 . S
C1412 H1399 0.960 . S
C1412 C1411 1.524 . S
C1413 C1410 1.403 1_554 S
C1413 C1414 1.392 . S
C1413 C1417 1.495 . S
C1414 C1413 1.392 . S
C1414 C1415 1.385 1_554 S
C1414 C1416 1.478 . S
C1415 H1409 0.930 . S
C1415 C1411 1.400 . S
C1415 C1414 1.385 1_556 S
C1416 C1414 1.478 . S
C1416 C1418 1.381 . S
C1416 C1422 1.383 . S
C1417 C1413 1.495 . S
C1417 H1423 0.959 . S
C1417 H1424 0.961 . S
C1417 H1425 0.960 . S
C1418 C1416 1.381 . S
C1418 C1419 1.394 . S
C1418 H1426 0.930 . S
C1419 C1418 1.394 . S
C1419 C1420 1.383 . S
C1419 H1427 0.929 . S
C1420 C1419 1.383 . S
C1420 C1421 1.377 . S
C1421 H1405 0.930 . S
C1421 C1420 1.377 . S
C1421 C1422 1.379 . S
C1422 H1406 0.931 . S
C1422 C1416 1.383 . S
C1422 C1421 1.379 . S
H1423 C1417 0.959 . S
H1424 C1417 0.961 . S
H1425 C1417 0.960 . S
H1426 C1418 0.930 . S
H1427 C1419 0.929 . S
H1428 C1436 0.929 . S
H1429 C1438 0.930 . S
H1430 C1440 0.930 . S
H1431 C1443 0.929 . S
H1432 C1446 0.930 . S
H1433 C1448 0.960 . S
H1434 C1448 0.960 . S
H1435 C1448 0.960 . S
C1436 H1428 0.929 . S
C1436 C1437 1.377 1_556 S
C1436 C1438 1.384 . S
C1437 C1436 1.377 1_554 S
C1437 C1443 1.390 . S
C1438 H1429 0.930 . S
C1438 C1436 1.384 . S
C1438 C1439 1.372 . S
C1439 C1438 1.372 . S
C1439 C1440 1.400 1_556 S
C1439 C1444 1.490 . S
C1440 H1430 0.930 . S
C1440 C1439 1.400 1_554 S
C1440 C1443 1.386 . S
H1441 C1457 0.930 . S
H1442 C1458 0.931 . S
C1443 H1431 0.929 . S
C1443 C1437 1.390 . S
C1443 C1440 1.386 . S
C1444 C1439 1.490 . S
C1444 C1446 1.395 . S
C1444 C1447 1.450 . S
H1445 C1451 0.937 1_554 S
C1446 H1432 0.930 . S
C1446 C1444 1.395 . S
C1446 C1449 1.403 . S
C1447 C1444 1.450 . S
C1447 C1448 1.452 1_556 S
C1447 C1451 1.430 . S
C1448 H1433 0.960 . S
C1448 H1434 0.960 . S
C1448 H1435 0.960 . S
C1448 C1447 1.452 1_554 S
C1449 C1446 1.403 . S
C1449 C1450 1.392 . S
C1449 C1453 1.495 . S
C1450 C1449 1.392 . S
C1450 C1451 1.385 . S
C1450 C1452 1.478 . S
C1451 H1445 0.937 1_556 S
C1451 C1447 1.430 . S
C1451 C1450 1.385 . S
C1452 C1450 1.478 . S
C1452 C1454 1.381 . S
C1452 C1458 1.383 . S
C1453 C1449 1.495 . S
C1453 H1459 0.959 . S
C1453 H1460 0.961 . S
C1453 H1461 0.960 . S
C1454 C1452 1.381 . S
C1454 C1455 1.394 . S
C1454 H1462 0.930 . S
C1455 C1454 1.394 . S
C1455 C1456 1.383 . S
C1455 H1463 0.929 . S
C1456 C1455 1.383 . S
C1456 C1457 1.377 . S
C1457 H1441 0.930 . S
C1457 C1456 1.377 . S
C1457 C1458 1.379 . S
C1458 H1442 0.931 . S
C1458 C1452 1.383 . S
C1458 C1457 1.379 . S
H1459 C1453 0.959 . S
H1460 C1453 0.961 . S
H1461 C1453 0.960 . S
H1462 C1454 0.930 . S
H1463 C1455 0.929 . S
H1464 C1472 0.929 . S
H1465 C1474 0.930 . S
H1466 C1476 0.930 . S
H1467 C1479 0.929 . S
H1468 C1482 0.930 . S
H1469 C1484 0.960 . S
H1470 C1484 0.960 . S
H1471 C1484 0.960 . S
C1472 H1464 0.929 . S
C1472 C1473 1.377 . S
C1472 C1474 1.384 . S
C1473 C1472 1.377 . S
C1473 C1479 1.390 . S
C1474 H1465 0.930 . S
C1474 C1472 1.384 . S
C1474 C1475 1.372 . S
C1475 C1474 1.372 . S
C1475 C1476 1.400 . S
C1475 C1480 1.490 . S
C1476 H1466 0.930 . S
C1476 C1475 1.400 . S
C1476 C1479 1.386 . S
H1477 C1493 0.930 . S
H1478 C1494 0.931 . S
C1479 H1467 0.929 . S
C1479 C1473 1.390 . S
C1479 C1476 1.386 . S
C1480 C1475 1.490 . S
C1480 C1482 1.395 . S
C1480 C1483 1.403 . S
H1481 C1487 0.930 . S
C1482 H1468 0.930 . S
C1482 C1480 1.395 . S
C1482 C1485 1.403 . S
C1483 C1480 1.403 . S
C1483 C1484 1.524 . S
C1483 C1487 1.400 . S
C1484 H1469 0.960 . S
C1484 H1470 0.960 . S
C1484 H1471 0.960 . S
C1484 C1483 1.524 . S
C1485 C1482 1.403 . S
C1485 C1486 1.392 . S
C1485 C1489 1.495 . S
C1486 C1485 1.392 . S
C1486 C1487 1.385 . S
C1486 C1488 1.478 . S
C1487 H1481 0.930 . S
C1487 C1483 1.400 . S
C1487 C1486 1.385 . S
C1488 C1486 1.478 . S
C1488 C1490 1.381 . S
C1488 C1494 1.383 . S
C1489 C1485 1.495 . S
C1489 H1495 0.959 . S
C1489 H1496 0.961 . S
C1489 H1497 0.960 . S
C1490 C1488 1.381 . S
C1490 C1491 1.394 . S
C1490 H1498 0.930 . S
C1491 C1490 1.394 . S
C1491 C1492 1.383 . S
C1491 H1499 0.929 . S
C1492 C1491 1.383 . S
C1492 C1493 1.377 . S
C1493 H1477 0.930 . S
C1493 C1492 1.377 . S
C1493 C1494 1.379 . S
C1494 H1478 0.931 . S
C1494 C1488 1.383 . S
C1494 C1493 1.379 . S
H1495 C1489 0.959 . S
H1496 C1489 0.961 . S
H1497 C1489 0.960 . S
H1498 C1490 0.930 . S
H1499 C1491 0.929 . S
H1500 C1508 0.929 . S
H1501 C1510 0.930 . S
H1502 C1512 0.930 . S
H1503 C1515 0.929 . S
H1504 C1518 0.930 . S
H1505 C1520 0.960 . S
H1506 C1520 0.960 . S
H1507 C1520 0.960 . S
C1508 H1500 0.929 . S
C1508 C1509 1.377 . S
C1508 C1510 1.384 . S
C1509 C1508 1.377 . S
C1509 C1515 1.390 . S
C1510 H1501 0.930 . S
C1510 C1508 1.384 . S
C1510 C1511 1.372 . S
C1511 C1510 1.372 . S
C1511 C1512 1.400 . S
C1511 C1516 1.490 . S
C1512 H1502 0.930 . S
C1512 C1511 1.400 . S
C1512 C1515 1.386 . S
H1513 C1529 0.930 . S
H1514 C1530 0.931 . S
C1515 H1503 0.929 . S
C1515 C1509 1.390 . S
C1515 C1512 1.386 . S
C1516 C1511 1.490 . S
C1516 C1518 1.395 . S
C1516 C1519 1.403 . S
H1517 C1523 0.930 . S
C1518 H1504 0.930 . S
C1518 C1516 1.395 . S
C1518 C1521 1.403 . S
C1519 C1516 1.403 . S
C1519 C1520 1.524 . S
C1519 C1523 1.400 . S
C1520 H1505 0.960 . S
C1520 H1506 0.960 . S
C1520 H1507 0.960 . S
C1520 C1519 1.524 . S
C1521 C1518 1.403 . S
C1521 C1522 1.392 . S
C1521 C1525 1.495 . S
C1522 C1521 1.392 . S
C1522 C1523 1.385 . S
C1522 C1524 1.478 . S
C1523 H1517 0.930 . S
C1523 C1519 1.400 . S
C1523 C1522 1.385 . S
C1524 C1522 1.478 . S
C1524 C1526 1.381 . S
C1524 C1530 1.383 . S
C1525 C1521 1.495 . S
C1525 H1531 0.959 . S
C1525 H1532 0.961 . S
C1525 H1533 0.960 . S
C1526 C1524 1.381 . S
C1526 C1527 1.394 . S
C1526 H1534 0.930 . S
C1527 C1526 1.394 . S
C1527 C1528 1.383 . S
C1527 H1535 0.929 . S
C1528 C1527 1.383 . S
C1528 C1529 1.377 . S
C1529 H1513 0.930 . S
C1529 C1528 1.377 . S
C1529 C1530 1.379 . S
C1530 H1514 0.931 . S
C1530 C1524 1.383 . S
C1530 C1529 1.379 . S
H1531 C1525 0.959 . S
H1532 C1525 0.961 . S
H1533 C1525 0.960 . S
H1534 C1526 0.930 . S
H1535 C1527 0.929 . S
H1536 C1544 0.929 . S
H1537 C1546 0.930 . S
H1538 C1548 0.930 . S
H1539 C1551 0.929 . S
H1540 C1554 0.930 . S
H1541 C1556 0.960 . S
H1542 C1556 0.993 . S
H1543 C1556 0.960 . S
C1544 H1536 0.929 . S
C1544 C1545 1.377 1_655 S
C1544 C1546 1.384 . S
C1545 C1544 1.377 1_455 S
C1545 C1551 1.390 . S
C1546 H1537 0.930 . S
C1546 C1544 1.384 . S
C1546 C1547 1.372 . S
C1547 C1546 1.372 . S
C1547 C1548 1.400 1_655 S
C1547 C1552 1.490 . S
C1548 H1538 0.930 . S
C1548 C1547 1.400 1_455 S
C1548 C1551 1.386 . S
H1549 C1565 0.930 . S
H1550 C1566 0.931 . S
C1551 H1539 0.929 . S
C1551 C1545 1.390 . S
C1551 C1548 1.386 . S
C1552 C1547 1.490 . S
C1552 C1554 1.395 . S
C1552 C1555 1.403 . S
H1553 C1559 0.930 . S
C1554 H1540 0.930 . S
C1554 C1552 1.395 . S
C1554 C1557 1.403 . S
C1555 C1552 1.403 . S
C1555 C1556 1.524 1_655 S
C1555 C1559 1.400 . S
C1556 H1541 0.960 . S
C1556 H1542 0.993 . S
C1556 H1543 0.960 . S
C1556 C1555 1.524 1_455 S
C1557 C1554 1.403 . S
C1557 C1558 1.392 . S
C1557 C1561 1.495 . S
C1558 C1557 1.392 . S
C1558 C1559 1.385 . S
C1558 C1560 1.478 . S
C1559 H1553 0.930 . S
C1559 C1555 1.400 . S
C1559 C1558 1.385 . S
C1560 C1558 1.478 . S
C1560 C1562 1.381 . S
C1560 C1566 1.383 . S
C1561 C1557 1.495 . S
C1561 H1567 0.959 . S
C1561 H1568 0.961 . S
C1561 H1569 0.960 . S
C1562 C1560 1.381 . S
C1562 C1563 1.394 . S
C1562 H1570 0.930 . S
C1563 C1562 1.394 . S
C1563 C1564 1.383 . S
C1563 H1571 0.929 . S
C1564 C1563 1.383 . S
C1564 C1565 1.377 . S
C1565 H1549 0.930 . S
C1565 C1564 1.377 . S
C1565 C1566 1.379 . S
C1566 H1550 0.931 . S
C1566 C1560 1.383 . S
C1566 C1565 1.379 . S
H1567 C1561 0.959 . S
H1568 C1561 0.961 . S
H1569 C1561 0.960 . S
H1570 C1562 0.930 . S
H1571 C1563 0.929 . S
H1572 C1580 0.929 . S
H1573 C1582 0.930 . S
H1574 C1584 0.930 . S
H1575 C1587 0.901 1_655 S
H1576 C1590 0.930 . S
H1577 C1592 0.960 . S
H1578 C1592 0.960 1_455 S
H1579 C1592 0.960 . S
C1580 H1572 0.929 . S
C1580 C1581 1.377 . S
C1580 C1582 1.384 . S
C1581 C1580 1.377 . S
C1581 C1587 1.425 . S
C1582 H1573 0.930 . S
C1582 C1580 1.384 . S
C1582 C1583 1.372 . S
C1583 C1582 1.372 . S
C1583 C1584 1.400 1_455 S
C1583 C1588 1.490 . S
C1584 H1574 0.930 . S
C1584 C1583 1.400 1_655 S
C1584 C1587 1.379 1_655 S
H1585 C1601 0.930 . S
H1586 C1602 0.931 . S
C1587 H1575 0.901 1_455 S
C1587 C1581 1.425 . S
C1587 C1584 1.379 1_455 S
C1588 C1583 1.490 . S
C1588 C1590 1.395 . S
C1588 C1591 1.410 . S
H1589 C1595 0.930 . S
C1590 H1576 0.930 . S
C1590 C1588 1.395 . S
C1590 C1593 1.403 . S
C1591 C1588 1.410 . S
C1591 C1592 1.521 1_455 S
C1591 C1595 1.396 1_455 S
C1592 H1577 0.960 . S
C1592 H1578 0.960 1_655 S
C1592 H1579 0.960 . S
C1592 C1591 1.521 1_655 S
C1593 C1590 1.403 . S
C1593 C1594 1.387 1_455 S
C1593 C1597 1.495 . S
C1594 C1593 1.387 1_655 S
C1594 C1595 1.387 . S
C1594 C1596 1.481 . S
C1595 H1589 0.930 . S
C1595 C1591 1.396 1_655 S
C1595 C1594 1.387 . S
C1596 C1594 1.481 . S
C1596 C1598 1.381 1_655 S
C1596 C1602 1.383 . S
C1597 C1593 1.495 . S
C1597 H1603 0.959 . S
C1597 H1604 0.890 1_455 S
C1597 H1605 0.960 . S
C1598 C1596 1.381 1_455 S
C1598 C1599 1.394 . S
C1598 H1606 0.930 . S
C1599 C1598 1.394 . S
C1599 C1600 1.383 1_455 S
C1599 H1607 0.929 . S
C1600 C1599 1.383 1_655 S
C1600 C1601 1.377 . S
C1601 H1585 0.930 . S
C1601 C1600 1.377 . S
C1601 C1602 1.379 . S
C1602 H1586 0.931 . S
C1602 C1596 1.383 . S
C1602 C1601 1.379 . S
H1603 C1597 0.959 . S
H1604 C1597 0.890 1_655 S
H1605 C1597 0.960 . S
H1606 C1598 0.930 . S
H1607 C1599 0.929 . S
H1608 C1616 0.929 . S
H1609 C1618 0.930 . S
H1610 C1620 0.930 . S
H1611 C1623 0.929 . S
H1612 C1626 0.930 . S
H1613 C1628 0.960 . S
H1614 C1628 0.983 . S
H1615 C1628 0.960 . S
C1616 H1608 0.929 . S
C1616 C1617 1.377 . S
C1616 C1618 1.384 . S
C1617 C1616 1.377 . S
C1617 C1623 1.390 . S
C1618 H1609 0.930 . S
C1618 C1616 1.384 . S
C1618 C1619 1.372 . S
C1619 C1618 1.372 . S
C1619 C1620 1.400 . S
C1619 C1624 1.490 . S
C1620 H1610 0.930 . S
C1620 C1619 1.400 . S
C1620 C1623 1.386 . S
H1621 C1637 0.930 . S
H1622 C1638 0.931 . S
C1623 H1611 0.929 . S
C1623 C1617 1.390 . S
C1623 C1620 1.386 . S
C1624 C1619 1.490 . S
C1624 C1626 1.395 . S
C1624 C1627 1.403 . S
H1625 C1631 0.942 . S
C1626 H1612 0.930 . S
C1626 C1624 1.395 . S
C1626 C1629 1.403 . S
C1627 C1624 1.403 . S
C1627 C1628 1.524 . S
C1627 C1631 1.400 . S
C1628 H1613 0.960 . S
C1628 H1614 0.983 . S
C1628 H1615 0.960 . S
C1628 C1627 1.524 . S
C1629 C1626 1.403 . S
C1629 C1630 1.392 . S
C1629 C1633 1.495 . S
C1630 C1629 1.392 . S
C1630 C1631 1.385 . S
C1630 C1632 1.478 . S
C1631 H1625 0.942 . S
C1631 C1627 1.400 . S
C1631 C1630 1.385 . S
C1632 C1630 1.478 . S
C1632 C1634 1.381 1_655 S
C1632 C1638 1.383 . S
C1633 C1629 1.495 . S
C1633 H1639 0.959 . S
C1633 H1640 0.961 . S
C1633 H1641 0.960 . S
C1634 C1632 1.381 1_455 S
C1634 C1635 1.394 . S
C1634 H1642 0.930 . S
C1635 C1634 1.394 . S
C1635 C1636 1.383 . S
C1635 H1643 0.929 . S
C1636 C1635 1.383 . S
C1636 C1637 1.377 1_455 S
C1637 H1621 0.930 . S
C1637 C1636 1.377 1_655 S
C1637 C1638 1.379 . S
C1638 H1622 0.931 . S
C1638 C1632 1.383 . S
C1638 C1637 1.379 . S
H1639 C1633 0.959 . S
H1640 C1633 0.961 . S
H1641 C1633 0.960 . S
H1642 C1634 0.930 . S
H1643 C1635 0.929 . S
H1644 C1652 0.929 . S
H1645 C1654 0.930 . S
H1646 C1656 0.930 1_655 S
H1647 C1659 0.911 1_655 S
H1648 C1662 0.930 . S
H1649 C1664 0.960 . S
H1650 C1664 0.960 . S
H1651 C1664 0.960 . S
C1652 H1644 0.929 . S
C1652 C1653 1.377 . S
C1652 C1654 1.384 . S
C1653 C1652 1.377 . S
C1653 C1659 1.390 . S
C1654 H1645 0.930 . S
C1654 C1652 1.384 . S
C1654 C1655 1.372 . S
C1655 C1654 1.372 . S
C1655 C1656 1.400 . S
C1655 C1660 1.490 . S
C1656 H1646 0.930 1_455 S
C1656 C1655 1.400 . S
C1656 C1659 1.386 . S
H1657 C1673 0.930 . S
H1658 C1674 0.931 . S
C1659 H1647 0.911 1_455 S
C1659 C1653 1.390 . S
C1659 C1656 1.386 . S
C1660 C1655 1.490 . S
C1660 C1662 1.395 . S
C1660 C1663 1.403 1_455 S
H1661 C1667 0.930 . S
C1662 H1648 0.930 . S
C1662 C1660 1.395 . S
C1662 C1665 1.403 . S
C1663 C1660 1.403 1_655 S
C1663 C1664 1.524 . S
C1663 C1667 1.400 . S
C1664 H1649 0.960 . S
C1664 H1650 0.960 . S
C1664 H1651 0.960 . S
C1664 C1663 1.524 . S
C1665 C1662 1.403 . S
C1665 C1666 1.392 . S
C1665 C1669 1.495 . S
C1666 C1665 1.392 . S
C1666 C1667 1.385 1_455 S
C1666 C1668 1.478 1_455 S
C1667 H1661 0.930 . S
C1667 C1663 1.400 . S
C1667 C1666 1.385 1_655 S
C1668 C1666 1.478 1_655 S
C1668 C1670 1.381 1_655 S
C1668 C1674 1.383 . S
C1669 C1665 1.495 . S
C1669 H1675 0.959 . S
C1669 H1676 0.961 . S
C1669 H1677 0.960 . S
C1670 C1668 1.381 1_455 S
C1670 C1671 1.379 1_455 S
C1670 H1678 0.930 . S
C1671 C1670 1.379 1_655 S
C1671 C1672 1.423 . S
C1671 H1679 0.909 1_655 S
C1672 C1671 1.423 . S
C1672 C1673 1.377 . S
C1673 H1657 0.930 . S
C1673 C1672 1.377 . S
C1673 C1674 1.379 . S
C1674 H1658 0.931 . S
C1674 C1668 1.383 . S
C1674 C1673 1.379 . S
H1675 C1669 0.959 . S
H1676 C1669 0.961 . S
H1677 C1669 0.960 . S
H1678 C1670 0.930 . S
H1679 C1671 0.909 1_455 S
H1680 C1688 0.929 . S
H1681 C1690 0.930 . S
H1682 C1692 0.930 . S
H1683 C1695 0.929 . S
H1684 C1698 0.930 . S
H1685 C1700 0.960 . S
H1686 C1700 0.960 . S
H1687 C1700 0.960 . S
C1688 H1680 0.929 . S
C1688 C1689 1.377 . S
C1688 C1690 1.384 . S
C1689 C1688 1.377 . S
C1689 C1695 1.390 . S
C1690 H1681 0.930 . S
C1690 C1688 1.384 . S
C1690 C1691 1.372 . S
C1691 C1690 1.372 . S
C1691 C1692 1.400 . S
C1691 C1696 1.490 . S
C1692 H1682 0.930 . S
C1692 C1691 1.400 . S
C1692 C1695 1.386 . S
H1693 C1709 0.930 . S
H1694 C1710 0.931 1_545 S
C1695 H1683 0.929 . S
C1695 C1689 1.390 . S
C1695 C1692 1.386 . S
C1696 C1691 1.490 . S
C1696 C1698 1.395 . S
C1696 C1699 1.403 . S
H1697 C1703 0.930 . S
C1698 H1684 0.930 . S
C1698 C1696 1.395 . S
C1698 C1701 1.403 . S
C1699 C1696 1.403 . S
C1699 C1700 1.524 . S
C1699 C1703 1.400 . S
C1700 H1685 0.960 . S
C1700 H1686 0.960 . S
C1700 H1687 0.960 . S
C1700 C1699 1.524 . S
C1701 C1698 1.403 . S
C1701 C1702 1.392 . S
C1701 C1705 1.495 . S
C1702 C1701 1.392 . S
C1702 C1703 1.385 . S
C1702 C1704 1.478 . S
C1703 H1697 0.930 . S
C1703 C1699 1.400 . S
C1703 C1702 1.385 . S
C1704 C1702 1.478 . S
C1704 C1706 1.381 . S
C1704 C1710 1.383 . S
C1705 C1701 1.495 . S
C1705 H1711 0.959 . S
C1705 H1712 0.961 . S
C1705 H1713 0.960 . S
C1706 C1704 1.381 . S
C1706 C1707 1.394 . S
C1706 H1714 0.930 . S
C1707 C1706 1.394 . S
C1707 C1708 1.336 1_565 S
C1707 H1715 0.929 . S
C1708 C1707 1.336 1_545 S
C1708 C1709 1.396 . S
C1709 H1693 0.930 . S
C1709 C1708 1.396 . S
C1709 C1710 1.379 1_545 S
C1710 H1694 0.931 1_565 S
C1710 C1704 1.383 . S
C1710 C1709 1.379 1_565 S
H1711 C1705 0.959 . S
H1712 C1705 0.961 . S
H1713 C1705 0.960 . S
H1714 C1706 0.930 . S
H1715 C1707 0.929 . S
H1716 C1724 0.929 . S
H1717 C1726 0.930 . S
H1718 C1728 0.930 . S
H1719 C1731 0.929 . S
H1720 C1734 0.930 . S
H1721 C1736 0.960 . S
H1722 C1736 0.960 . S
H1723 C1736 0.960 . S
C1724 H1716 0.929 . S
C1724 C1725 1.377 . S
C1724 C1726 1.384 . S
C1725 C1724 1.377 . S
C1725 C1731 1.390 . S
C1726 H1717 0.930 . S
C1726 C1724 1.384 . S
C1726 C1727 1.372 . S
C1727 C1726 1.372 . S
C1727 C1728 1.400 . S
C1727 C1732 1.490 . S
C1728 H1718 0.930 . S
C1728 C1727 1.400 . S
C1728 C1731 1.386 . S
H1729 C1745 0.930 . S
H1730 C1746 0.931 . S
C1731 H1719 0.929 . S
C1731 C1725 1.390 . S
C1731 C1728 1.386 . S
C1732 C1727 1.490 . S
C1732 C1734 1.395 . S
C1732 C1735 1.403 . S
H1733 C1739 0.930 . S
C1734 H1720 0.930 . S
C1734 C1732 1.395 . S
C1734 C1737 1.403 . S
C1735 C1732 1.403 . S
C1735 C1736 1.524 . S
C1735 C1739 1.400 . S
C1736 H1721 0.960 . S
C1736 H1722 0.960 . S
C1736 H1723 0.960 . S
C1736 C1735 1.524 . S
C1737 C1734 1.403 . S
C1737 C1738 1.392 . S
C1737 C1741 1.495 . S
C1738 C1737 1.392 . S
C1738 C1739 1.385 . S
C1738 C1740 1.478 . S
C1739 H1733 0.930 . S
C1739 C1735 1.400 . S
C1739 C1738 1.385 . S
C1740 C1738 1.478 . S
C1740 C1742 1.381 . S
C1740 C1746 1.383 1_545 S
C1741 C1737 1.495 . S
C1741 H1747 0.959 . S
C1741 H1748 0.961 . S
C1741 H1749 0.960 . S
C1742 C1740 1.381 . S
C1742 C1743 1.394 . S
C1742 H1750 0.930 . S
C1743 C1742 1.394 . S
C1743 C1744 1.383 1_545 S
C1743 H1751 0.929 . S
C1744 C1743 1.383 1_565 S
C1744 C1745 1.377 . S
C1745 H1729 0.930 . S
C1745 C1744 1.377 . S
C1745 C1746 1.379 . S
C1746 H1730 0.931 . S
C1746 C1740 1.383 1_565 S
C1746 C1745 1.379 . S
H1747 C1741 0.959 . S
H1748 C1741 0.961 . S
H1749 C1741 0.960 . S
H1750 C1742 0.930 . S
H1751 C1743 0.929 . S
H1752 C1760 0.929 . S
H1753 C1762 0.930 . S
H1754 C1764 0.930 . S
H1755 C1767 0.929 . S
H1756 C1770 0.930 . S
H1757 C1772 0.960 . S
H1758 C1772 0.960 . S
H1759 C1772 0.960 . S
C1760 H1752 0.929 . S
C1760 C1761 1.377 . S
C1760 C1762 1.384 . S
C1761 C1760 1.377 . S
C1761 C1767 1.390 . S
C1762 H1753 0.930 . S
C1762 C1760 1.384 . S
C1762 C1763 1.372 . S
C1763 C1762 1.372 . S
C1763 C1764 1.400 . S
C1763 C1768 1.490 . S
C1764 H1754 0.930 . S
C1764 C1763 1.400 . S
C1764 C1767 1.386 . S
H1765 C1781 0.930 . S
H1766 C1782 0.931 . S
C1767 H1755 0.929 . S
C1767 C1761 1.390 . S
C1767 C1764 1.386 . S
C1768 C1763 1.490 . S
C1768 C1770 1.395 . S
C1768 C1771 1.403 . S
H1769 C1775 0.930 . S
C1770 H1756 0.930 . S
C1770 C1768 1.395 . S
C1770 C1773 1.403 . S
C1771 C1768 1.403 . S
C1771 C1772 1.524 . S
C1771 C1775 1.400 . S
C1772 H1757 0.960 . S
C1772 H1758 0.960 . S
C1772 H1759 0.960 . S
C1772 C1771 1.524 . S
C1773 C1770 1.403 . S
C1773 C1774 1.392 . S
C1773 C1777 1.495 . S
C1774 C1773 1.392 . S
C1774 C1775 1.385 . S
C1774 C1776 1.478 . S
C1775 H1769 0.930 . S
C1775 C1771 1.400 . S
C1775 C1774 1.385 . S
C1776 C1774 1.478 . S
C1776 C1778 1.381 . S
C1776 C1782 1.383 . S
C1777 C1773 1.495 . S
C1777 H1783 0.959 . S
C1777 H1784 0.961 . S
C1777 H1785 0.960 . S
C1778 C1776 1.381 . S
C1778 C1779 1.394 . S
C1778 H1786 0.930 . S
C1779 C1778 1.394 . S
C1779 C1780 1.383 . S
C1779 H1787 0.929 . S
C1780 C1779 1.383 . S
C1780 C1781 1.377 . S
C1781 H1765 0.930 . S
C1781 C1780 1.377 . S
C1781 C1782 1.379 . S
C1782 H1766 0.931 . S
C1782 C1776 1.383 . S
C1782 C1781 1.379 . S
H1783 C1777 0.959 . S
H1784 C1777 0.961 . S
H1785 C1777 0.960 . S
H1786 C1778 0.930 . S
H1787 C1779 0.929 . S
H1788 C1796 0.929 . S
H1789 C1798 0.930 . S
H1790 C1800 0.930 . S
H1791 C1803 0.929 . S
H1792 C1806 0.930 . S
H1793 C1808 0.960 . S
H1794 C1808 0.960 . S
H1795 C1808 0.960 . S
C1796 H1788 0.929 . S
C1796 C1797 1.377 . S
C1796 C1798 1.384 . S
C1797 C1796 1.377 . S
C1797 C1803 1.390 . S
C1798 H1789 0.930 . S
C1798 C1796 1.384 . S
C1798 C1799 1.372 . S
C1799 C1798 1.372 . S
C1799 C1800 1.400 . S
C1799 C1804 1.490 . S
C1800 H1790 0.930 . S
C1800 C1799 1.400 . S
C1800 C1803 1.386 . S
H1801 C1817 0.930 . S
H1802 C1818 0.931 . S
C1803 H1791 0.929 . S
C1803 C1797 1.390 . S
C1803 C1800 1.386 . S
C1804 C1799 1.490 . S
C1804 C1806 1.395 . S
C1804 C1807 1.403 . S
H1805 C1811 0.930 . S
C1806 H1792 0.930 . S
C1806 C1804 1.395 . S
C1806 C1809 1.403 . S
C1807 C1804 1.403 . S
C1807 C1808 1.524 . S
C1807 C1811 1.400 . S
C1808 H1793 0.960 . S
C1808 H1794 0.960 . S
C1808 H1795 0.960 . S
C1808 C1807 1.524 . S
C1809 C1806 1.403 . S
C1809 C1810 1.392 . S
C1809 C1813 1.495 . S
C1810 C1809 1.392 . S
C1810 C1811 1.385 . S
C1810 C1812 1.478 . S
C1811 H1805 0.930 . S
C1811 C1807 1.400 . S
C1811 C1810 1.385 . S
C1812 C1810 1.478 . S
C1812 C1814 1.381 1_545 S
C1812 C1818 1.383 . S
C1813 C1809 1.495 . S
C1813 H1819 0.959 . S
C1813 H1820 0.961 . S
C1813 H1821 0.960 1_545 S
C1814 C1812 1.381 1_565 S
C1814 C1815 1.394 . S
C1814 H1822 0.930 . S
C1815 C1814 1.394 . S
C1815 C1816 1.383 . S
C1815 H1823 0.929 . S
C1816 C1815 1.383 . S
C1816 C1817 1.377 1_565 S
C1817 H1801 0.930 . S
C1817 C1816 1.377 1_545 S
C1817 C1818 1.379 . S
C1818 H1802 0.931 . S
C1818 C1812 1.383 . S
C1818 C1817 1.379 . S
H1819 C1813 0.959 . S
H1820 C1813 0.961 . S
H1821 C1813 0.960 1_565 S
H1822 C1814 0.930 . S
H1823 C1815 0.929 . S
H1824 C1832 0.929 . S
H1825 C1834 0.930 . S
H1826 C1836 0.950 . S
H1827 C1839 0.929 . S
H1828 C1842 0.930 . S
H1829 C1844 0.958 1_554 S
H1830 C1844 0.963 . S
H1831 C1844 0.959 1_554 S
C1832 H1824 0.929 . S
C1832 C1833 1.377 . S
C1832 C1834 1.384 . S
C1833 C1832 1.377 . S
C1833 C1839 1.390 . S
C1834 H1825 0.930 . S
C1834 C1832 1.384 . S
C1834 C1835 1.372 . S
C1835 C1834 1.372 . S
C1835 C1836 1.400 . S
C1835 C1840 1.490 . S
C1836 H1826 0.950 . S
C1836 C1835 1.400 . S
C1836 C1839 1.386 . S
H1837 C1853 0.930 . S
H1838 C1854 0.931 . S
C1839 H1827 0.929 . S
C1839 C1833 1.390 . S
C1839 C1836 1.386 . S
C1840 C1835 1.490 . S
C1840 C1842 1.395 . S
C1840 C1843 1.403 . S
H1841 C1847 0.930 . S
C1842 H1828 0.930 . S
C1842 C1840 1.395 . S
C1842 C1845 1.403 . S
C1843 C1840 1.403 . S
C1843 C1844 1.524 . S
C1843 C1847 1.400 1_556 S
C1844 H1829 0.958 1_556 S
C1844 H1830 0.963 . S
C1844 H1831 0.959 1_556 S
C1844 C1843 1.524 . S
C1845 C1842 1.403 . S
C1845 C1846 1.387 1_556 S
C1845 C1849 1.495 . S
C1846 C1845 1.387 1_554 S
C1846 C1847 1.387 . S
C1846 C1848 1.482 . S
C1847 H1841 0.930 . S
C1847 C1843 1.400 1_554 S
C1847 C1846 1.387 . S
C1848 C1846 1.482 . S
C1848 C1850 1.366 1_554 S
C1848 C1854 1.383 . S
C1849 C1845 1.495 . S
C1849 H1855 0.959 . S
C1849 H1856 0.961 . S
C1849 H1857 0.960 . S
C1850 C1848 1.366 1_556 S
C1850 C1851 1.382 1_556 S
C1850 H1858 0.958 . S
C1851 C1850 1.382 1_554 S
C1851 C1852 1.383 . S
C1851 H1859 0.981 . S
C1852 C1851 1.383 . S
C1852 C1853 1.377 . S
C1853 H1837 0.930 . S
C1853 C1852 1.377 . S
C1853 C1854 1.379 . S
C1854 H1838 0.931 . S
C1854 C1848 1.383 . S
C1854 C1853 1.379 . S
H1855 C1849 0.959 . S
H1856 C1849 0.961 . S
H1857 C1849 0.960 . S
H1858 C1850 0.958 . S
H1859 C1851 0.981 . S
H1860 C1868 0.929 . S
H1861 C1870 0.930 . S
H1862 C1872 0.930 . S
H1863 C1875 0.929 . S
H1864 C1878 0.930 . S
H1865 C1880 0.963 . S
H1866 C1880 0.958 1_554 S
H1867 C1880 0.959 1_554 S
C1868 H1860 0.929 . S
C1868 C1869 1.377 . S
C1868 C1870 1.384 . S
C1869 C1868 1.377 . S
C1869 C1875 1.390 . S
C1870 H1861 0.930 . S
C1870 C1868 1.384 . S
C1870 C1871 1.372 . S
C1871 C1870 1.372 . S
C1871 C1872 1.400 . S
C1871 C1876 1.490 . S
C1872 H1862 0.930 . S
C1872 C1871 1.400 . S
C1872 C1875 1.386 . S
H1873 C1889 0.930 . S
H1874 C1890 0.931 . S
C1875 H1863 0.929 . S
C1875 C1869 1.390 . S
C1875 C1872 1.386 . S
C1876 C1871 1.490 . S
C1876 C1878 1.395 . S
C1876 C1879 1.403 . S
H1877 C1883 0.935 1_556 S
C1878 H1864 0.930 . S
C1878 C1876 1.395 . S
C1878 C1881 1.403 . S
C1879 C1876 1.403 . S
C1879 C1880 1.522 1_554 S
C1879 C1883 1.397 . S
C1880 H1865 0.963 . S
C1880 H1866 0.958 1_556 S
C1880 H1867 0.959 1_556 S
C1880 C1879 1.522 1_556 S
C1881 C1878 1.403 . S
C1881 C1882 1.392 . S
C1881 C1885 1.495 . S
C1882 C1881 1.392 . S
C1882 C1883 1.383 . S
C1882 C1884 1.478 1_554 S
C1883 H1877 0.935 1_554 S
C1883 C1879 1.397 . S
C1883 C1882 1.383 . S
C1884 C1882 1.478 1_556 S
C1884 C1886 1.394 . S
C1884 C1890 1.383 . S
C1885 C1881 1.495 . S
C1885 H1891 0.959 . S
C1885 H1892 0.961 . S
C1885 H1893 0.960 . S
C1886 C1884 1.394 . S
C1886 C1887 1.454 . S
C1886 H1894 0.863 1_556 S
C1887 C1886 1.454 . S
C1887 C1888 1.383 . S
C1887 H1895 0.929 . S
C1888 C1887 1.383 . S
C1888 C1889 1.377 . S
C1889 H1873 0.930 . S
C1889 C1888 1.377 . S
C1889 C1890 1.379 . S
C1890 H1874 0.931 . S
C1890 C1884 1.383 . S
C1890 C1889 1.379 . S
H1891 C1885 0.959 . S
H1892 C1885 0.961 . S
H1893 C1885 0.960 . S
H1894 C1886 0.863 1_554 S
H1895 C1887 0.929 . S
H1896 C1904 0.929 . S
H1897 C1906 0.930 . S
H1898 C1908 0.930 . S
H1899 C1911 0.929 . S
H1900 C1914 0.930 . S
H1901 C1916 0.960 . S
H1902 C1916 0.960 . S
H1903 C1916 0.960 . S
C1904 H1896 0.929 . S
C1904 C1905 1.377 . S
C1904 C1906 1.384 . S
C1905 C1904 1.377 . S
C1905 C1911 1.390 . S
C1906 H1897 0.930 . S
C1906 C1904 1.384 . S
C1906 C1907 1.372 . S
C1907 C1906 1.372 . S
C1907 C1908 1.400 . S
C1907 C1912 1.490 . S
C1908 H1898 0.930 . S
C1908 C1907 1.400 . S
C1908 C1911 1.386 . S
H1909 C1925 0.930 . S
H1910 C1926 0.931 . S
C1911 H1899 0.929 . S
C1911 C1905 1.390 . S
C1911 C1908 1.386 . S
C1912 C1907 1.490 . S
C1912 C1914 1.395 . S
C1912 C1915 1.403 . S
H1913 C1919 0.930 . S
C1914 H1900 0.930 . S
C1914 C1912 1.395 . S
C1914 C1917 1.403 . S
C1915 C1912 1.403 . S
C1915 C1916 1.524 . S
C1915 C1919 1.400 . S
C1916 H1901 0.960 . S
C1916 H1902 0.960 . S
C1916 H1903 0.960 . S
C1916 C1915 1.524 . S
C1917 C1914 1.403 . S
C1917 C1918 1.392 . S
C1917 C1921 1.495 . S
C1918 C1917 1.392 . S
C1918 C1919 1.385 . S
C1918 C1920 1.478 . S
C1919 H1913 0.930 . S
C1919 C1915 1.400 . S
C1919 C1918 1.385 . S
C1920 C1918 1.478 . S
C1920 C1922 1.381 . S
C1920 C1926 1.383 . S
C1921 C1917 1.495 . S
C1921 H1927 0.959 . S
C1921 H1928 0.961 . S
C1921 H1929 0.960 . S
C1922 C1920 1.381 . S
C1922 C1923 1.394 . S
C1922 H1930 0.930 . S
C1923 C1922 1.394 . S
C1923 C1924 1.383 . S
C1923 H1931 0.929 . S
C1924 C1923 1.383 . S
C1924 C1925 1.377 . S
C1925 H1909 0.930 . S
C1925 C1924 1.377 . S
C1925 C1926 1.379 . S
C1926 H1910 0.931 . S
C1926 C1920 1.383 . S
C1926 C1925 1.379 . S
H1927 C1921 0.959 . S
H1928 C1921 0.961 . S
H1929 C1921 0.960 . S
H1930 C1922 0.930 . S
H1931 C1923 0.929 . S
H1932 C1940 0.929 . S
H1933 C1942 0.930 . S
H1934 C1944 0.930 . S
H1935 C1947 0.929 . S
H1936 C1950 0.930 . S
H1937 C1952 0.960 . S
H1938 C1952 0.960 . S
H1939 C1952 0.960 . S
C1940 H1932 0.929 . S
C1940 C1941 1.377 . S
C1940 C1942 1.384 . S
C1941 C1940 1.377 . S
C1941 C1947 1.390 . S
C1942 H1933 0.930 . S
C1942 C1940 1.384 . S
C1942 C1943 1.372 . S
C1943 C1942 1.372 . S
C1943 C1944 1.400 . S
C1943 C1948 1.490 . S
C1944 H1934 0.930 . S
C1944 C1943 1.400 . S
C1944 C1947 1.386 . S
H1945 C1961 0.930 . S
H1946 C1962 0.931 . S
C1947 H1935 0.929 . S
C1947 C1941 1.390 . S
C1947 C1944 1.386 . S
C1948 C1943 1.490 . S
C1948 C1950 1.395 . S
C1948 C1951 1.403 . S
H1949 C1955 0.930 . S
C1950 H1936 0.930 . S
C1950 C1948 1.395 . S
C1950 C1953 1.403 . S
C1951 C1948 1.403 . S
C1951 C1952 1.524 . S
C1951 C1955 1.400 . S
C1952 H1937 0.960 . S
C1952 H1938 0.960 . S
C1952 H1939 0.960 . S
C1952 C1951 1.524 . S
C1953 C1950 1.403 . S
C1953 C1954 1.392 . S
C1953 C1957 1.495 . S
C1954 C1953 1.392 . S
C1954 C1955 1.385 . S
C1954 C1956 1.478 . S
C1955 H1949 0.930 . S
C1955 C1951 1.400 . S
C1955 C1954 1.385 . S
C1956 C1954 1.478 . S
C1956 C1958 1.381 . S
C1956 C1962 1.383 . S
C1957 C1953 1.495 . S
C1957 H1963 0.959 . S
C1957 H1964 0.961 . S
C1957 H1965 0.960 . S
C1958 C1956 1.381 . S
C1958 C1959 1.394 . S
C1958 H1966 0.930 . S
C1959 C1958 1.394 . S
C1959 C1960 1.383 . S
C1959 H1967 0.929 . S
C1960 C1959 1.383 . S
C1960 C1961 1.377 . S
C1961 H1945 0.930 . S
C1961 C1960 1.377 . S
C1961 C1962 1.379 . S
C1962 H1946 0.931 . S
C1962 C1956 1.383 . S
C1962 C1961 1.379 . S
H1963 C1957 0.959 . S
H1964 C1957 0.961 . S
H1965 C1957 0.960 . S
H1966 C1958 0.930 . S
H1967 C1959 0.929 . S
H1968 C1976 0.929 . S
H1969 C1978 0.930 . S
H1970 C1980 0.930 . S
H1971 C1983 0.929 . S
H1972 C1986 0.930 . S
H1973 C1988 0.960 . S
H1974 C1988 0.960 . S
H1975 C1988 0.960 . S
C1976 H1968 0.929 . S
C1976 C1977 1.377 . S
C1976 C1978 1.384 . S
C1977 C1976 1.377 . S
C1977 C1983 1.390 . S
C1978 H1969 0.930 . S
C1978 C1976 1.384 . S
C1978 C1979 1.372 . S
C1979 C1978 1.372 . S
C1979 C1980 1.400 . S
C1979 C1984 1.490 . S
C1980 H1970 0.930 . S
C1980 C1979 1.400 . S
C1980 C1983 1.386 . S
H1981 C1997 0.930 . S
H1982 C1998 0.931 . S
C1983 H1971 0.929 . S
C1983 C1977 1.390 . S
C1983 C1980 1.386 . S
C1984 C1979 1.490 . S
C1984 C1986 1.395 . S
C1984 C1987 1.403 . S
H1985 C1991 0.930 . S
C1986 H1972 0.930 . S
C1986 C1984 1.395 . S
C1986 C1989 1.403 . S
C1987 C1984 1.403 . S
C1987 C1988 1.524 . S
C1987 C1991 1.400 . S
C1988 H1973 0.960 . S
C1988 H1974 0.960 . S
C1988 H1975 0.960 . S
C1988 C1987 1.524 . S
C1989 C1986 1.403 . S
C1989 C1990 1.392 . S
C1989 C1993 1.516 . S
C1990 C1989 1.392 . S
C1990 C1991 1.385 . S
C1990 C1992 1.488 . S
C1991 H1985 0.930 . S
C1991 C1987 1.400 . S
C1991 C1990 1.385 . S
C1992 C1990 1.488 . S
C1992 C1994 1.350 1_455 S
C1992 C1998 1.403 . S
C1993 C1989 1.516 . S
C1993 H1999 0.968 . S
C1993 H2000 1.002 . S
C1993 H2001 0.895 1_455 S
C1994 C1992 1.350 1_655 S
C1994 C1995 1.394 . S
C1994 H2002 0.930 . S
C1995 C1994 1.394 . S
C1995 C1996 1.383 . S
C1995 H2003 0.929 . S
C1996 C1995 1.383 . S
C1996 C1997 1.377 1_655 S
C1997 H1981 0.930 . S
C1997 C1996 1.377 1_455 S
C1997 C1998 1.379 . S
C1998 H1982 0.931 . S
C1998 C1992 1.403 . S
C1998 C1997 1.379 . S
H1999 C1993 0.968 . S
H2000 C1993 1.002 . S
H2001 C1993 0.895 1_655 S
H2002 C1994 0.930 . S
H2003 C1995 0.929 . S
H2004 C2012 0.929 . S
H2005 C2014 0.930 . S
H2006 C2016 0.930 . S
H2007 C2019 0.929 . S
H2008 C2022 0.930 . S
H2009 C2024 0.960 . S
H2010 C2024 0.960 . S
H2011 C2024 0.960 . S
C2012 H2004 0.929 . S
C2012 C2013 1.377 . S
C2012 C2014 1.384 . S
C2013 C2012 1.377 . S
C2013 C2019 1.390 . S
C2014 H2005 0.930 . S
C2014 C2012 1.384 . S
C2014 C2015 1.372 . S
C2015 C2014 1.372 . S
C2015 C2016 1.400 . S
C2015 C2020 1.490 . S
C2016 H2006 0.930 . S
C2016 C2015 1.400 . S
C2016 C2019 1.386 . S
H2017 C2033 0.930 . S
H2018 C2034 0.931 . S
C2019 H2007 0.929 . S
C2019 C2013 1.390 . S
C2019 C2016 1.386 . S
C2020 C2015 1.490 . S
C2020 C2022 1.395 . S
C2020 C2023 1.403 . S
H2021 C2027 0.930 . S
C2022 H2008 0.930 . S
C2022 C2020 1.395 . S
C2022 C2025 1.403 . S
C2023 C2020 1.403 . S
C2023 C2024 1.524 . S
C2023 C2027 1.400 . S
C2024 H2009 0.960 . S
C2024 H2010 0.960 . S
C2024 H2011 0.960 . S
C2024 C2023 1.524 . S
C2025 C2022 1.403 . S
C2025 C2026 1.392 . S
C2025 C2029 1.495 . S
C2026 C2025 1.392 . S
C2026 C2027 1.385 . S
C2026 C2028 1.496 . S
C2027 H2021 0.930 . S
C2027 C2023 1.400 . S
C2027 C2026 1.385 . S
C2028 C2026 1.496 . S
C2028 C2030 1.329 1_655 S
C2028 C2034 1.418 . S
C2029 C2025 1.495 . S
C2029 H2035 0.959 . S
C2029 H2036 0.961 . S
C2029 H2037 0.960 1_655 S
C2030 C2028 1.329 1_455 S
C2030 C2031 1.394 . S
C2030 H2038 0.930 . S
C2031 C2030 1.394 . S
C2031 C2032 1.383 . S
C2031 H2039 0.929 . S
C2032 C2031 1.383 . S
C2032 C2033 1.377 1_455 S
C2033 H2017 0.930 . S
C2033 C2032 1.377 1_655 S
C2033 C2034 1.379 . S
C2034 H2018 0.931 . S
C2034 C2028 1.418 . S
C2034 C2033 1.379 . S
H2035 C2029 0.959 . S
H2036 C2029 0.961 . S
H2037 C2029 0.960 1_455 S
H2038 C2030 0.930 . S
H2039 C2031 0.929 . S
H2040 C2048 0.929 . S
H2041 C2050 0.930 . S
H2042 C2052 0.930 . S
H2043 C2055 0.929 . S
H2044 C2058 0.930 . S
H2045 C2060 0.960 . S
H2046 C2060 0.960 . S
H2047 C2060 0.960 . S
C2048 H2040 0.929 . S
C2048 C2049 1.377 1_455 S
C2048 C2050 1.384 . S
C2049 C2048 1.377 1_655 S
C2049 C2055 1.390 . S
C2050 H2041 0.930 . S
C2050 C2048 1.384 . S
C2050 C2051 1.372 . S
C2051 C2050 1.372 . S
C2051 C2052 1.400 1_455 S
C2051 C2056 1.490 . S
C2052 H2042 0.930 . S
C2052 C2051 1.400 1_655 S
C2052 C2055 1.386 . S
H2053 C2069 0.930 . S
H2054 C2070 0.931 . S
C2055 H2043 0.929 . S
C2055 C2049 1.390 . S
C2055 C2052 1.386 . S
C2056 C2051 1.490 . S
C2056 C2058 1.395 . S
C2056 C2059 1.403 . S
H2057 C2063 0.930 . S
C2058 H2044 0.930 . S
C2058 C2056 1.395 . S
C2058 C2061 1.403 . S
C2059 C2056 1.403 . S
C2059 C2060 1.524 1_455 S
C2059 C2063 1.400 . S
C2060 H2045 0.960 . S
C2060 H2046 0.960 . S
C2060 H2047 0.960 . S
C2060 C2059 1.524 1_655 S
C2061 C2058 1.403 . S
C2061 C2062 1.392 . S
C2061 C2065 1.495 . S
C2062 C2061 1.392 . S
C2062 C2063 1.385 . S
C2062 C2064 1.478 . S
C2063 H2057 0.930 . S
C2063 C2059 1.400 . S
C2063 C2062 1.385 . S
C2064 C2062 1.478 . S
C2064 C2066 1.381 . S
C2064 C2070 1.383 . S
C2065 C2061 1.495 . S
C2065 H2071 0.959 . S
C2065 H2072 0.961 . S
C2065 H2073 0.960 . S
C2066 C2064 1.381 . S
C2066 C2067 1.394 . S
C2066 H2074 0.930 . S
C2067 C2066 1.394 . S
C2067 C2068 1.383 . S
C2067 H2075 0.929 . S
C2068 C2067 1.383 . S
C2068 C2069 1.377 . S
C2069 H2053 0.930 . S
C2069 C2068 1.377 . S
C2069 C2070 1.379 . S
C2070 H2054 0.931 . S
C2070 C2064 1.383 . S
C2070 C2069 1.379 . S
H2071 C2065 0.959 . S
H2072 C2065 0.961 . S
H2073 C2065 0.960 . S
H2074 C2066 0.930 . S
H2075 C2067 0.929 . S
H2076 C2084 0.929 . S
H2077 C2086 0.930 . S
H2078 C2088 0.930 . S
H2079 C2091 0.929 . S
H2080 C2094 0.930 . S
H2081 C2096 0.960 . S
H2082 C2096 0.960 . S
H2083 C2096 0.960 1_455 S
C2084 H2076 0.929 . S
C2084 C2085 1.377 1_655 S
C2084 C2086 1.384 . S
C2085 C2084 1.377 1_455 S
C2085 C2091 1.390 . S
C2086 H2077 0.930 . S
C2086 C2084 1.384 . S
C2086 C2087 1.372 . S
C2087 C2086 1.372 . S
C2087 C2088 1.400 1_655 S
C2087 C2092 1.490 . S
C2088 H2078 0.930 . S
C2088 C2087 1.400 1_455 S
C2088 C2091 1.386 . S
H2089 C2105 0.930 . S
H2090 C2106 0.931 . S
C2091 H2079 0.929 . S
C2091 C2085 1.390 . S
C2091 C2088 1.386 . S
C2092 C2087 1.490 . S
C2092 C2094 1.395 . S
C2092 C2095 1.403 . S
H2093 C2099 0.930 . S
C2094 H2080 0.930 . S
C2094 C2092 1.395 . S
C2094 C2097 1.403 . S
C2095 C2092 1.403 . S
C2095 C2096 1.524 . S
C2095 C2099 1.400 . S
C2096 H2081 0.960 . S
C2096 H2082 0.960 . S
C2096 H2083 0.960 1_655 S
C2096 C2095 1.524 . S
C2097 C2094 1.403 . S
C2097 C2098 1.392 . S
C2097 C2101 1.495 . S
C2098 C2097 1.392 . S
C2098 C2099 1.385 . S
C2098 C2100 1.478 . S
C2099 H2093 0.930 . S
C2099 C2095 1.400 . S
C2099 C2098 1.385 . S
C2100 C2098 1.478 . S
C2100 C2102 1.381 . S
C2100 C2106 1.383 . S
C2101 C2097 1.495 . S
C2101 H2107 0.959 . S
C2101 H2108 0.961 . S
C2101 H2109 0.960 . S
C2102 C2100 1.381 . S
C2102 C2103 1.394 . S
C2102 H2110 0.930 . S
C2103 C2102 1.394 . S
C2103 C2104 1.383 . S
C2103 H2111 0.929 . S
C2104 C2103 1.383 . S
C2104 C2105 1.377 . S
C2105 H2089 0.930 . S
C2105 C2104 1.377 . S
C2105 C2106 1.379 . S
C2106 H2090 0.931 . S
C2106 C2100 1.383 . S
C2106 C2105 1.379 . S
H2107 C2101 0.959 . S
H2108 C2101 0.961 . S
H2109 C2101 0.960 . S
H2110 C2102 0.930 . S
H2111 C2103 0.929 . S
H2112 C2120 0.929 . S
H2113 C2122 0.930 . S
H2114 C2124 0.930 . S
H2115 C2127 0.929 . S
H2116 C2130 0.930 . S
H2117 C2132 0.960 . S
H2118 C2132 0.960 . S
H2119 C2132 0.960 . S
C2120 H2112 0.929 . S
C2120 C2121 1.377 . S
C2120 C2122 1.384 . S
C2121 C2120 1.377 . S
C2121 C2127 1.390 . S
C2122 H2113 0.930 . S
C2122 C2120 1.384 . S
C2122 C2123 1.372 . S
C2123 C2122 1.372 . S
C2123 C2124 1.400 . S
C2123 C2128 1.490 . S
C2124 H2114 0.930 . S
C2124 C2123 1.400 . S
C2124 C2127 1.386 . S
H2125 C2141 0.930 . S
H2126 C2142 0.931 . S
C2127 H2115 0.929 . S
C2127 C2121 1.390 . S
C2127 C2124 1.386 . S
C2128 C2123 1.490 . S
C2128 C2130 1.395 . S
C2128 C2131 1.403 . S
H2129 C2135 0.930 . S
C2130 H2116 0.930 . S
C2130 C2128 1.395 . S
C2130 C2133 1.403 . S
C2131 C2128 1.403 . S
C2131 C2132 1.524 . S
C2131 C2135 1.400 . S
C2132 H2117 0.960 . S
C2132 H2118 0.960 . S
C2132 H2119 0.960 . S
C2132 C2131 1.524 . S
C2133 C2130 1.403 . S
C2133 C2134 1.392 . S
C2133 C2137 1.495 . S
C2134 C2133 1.392 . S
C2134 C2135 1.385 . S
C2134 C2136 1.478 . S
C2135 H2129 0.930 . S
C2135 C2131 1.400 . S
C2135 C2134 1.385 . S
C2136 C2134 1.478 . S
C2136 C2138 1.381 . S
C2136 C2142 1.383 . S
C2137 C2133 1.495 . S
C2137 H2143 0.943 1_545 S
C2137 H2144 0.986 . S
C2137 H2145 0.960 . S
C2138 C2136 1.381 . S
C2138 C2139 1.394 . S
C2138 H2146 0.930 . S
C2139 C2138 1.394 . S
C2139 C2140 1.383 . S
C2139 H2147 0.929 . S
C2140 C2139 1.383 . S
C2140 C2141 1.377 . S
C2141 H2125 0.930 . S
C2141 C2140 1.377 . S
C2141 C2142 1.379 . S
C2142 H2126 0.931 . S
C2142 C2136 1.383 . S
C2142 C2141 1.379 . S
H2143 C2137 0.943 1_565 S
H2144 C2137 0.986 . S
H2145 C2137 0.960 . S
H2146 C2138 0.930 . S
H2147 C2139 0.929 . S
H2148 C2156 0.929 . S
H2149 C2158 0.930 . S
H2150 C2160 0.930 . S
H2151 C2163 0.929 . S
H2152 C2166 0.930 . S
H2153 C2168 0.960 . S
H2154 C2168 0.960 . S
H2155 C2168 0.960 . S
C2156 H2148 0.929 . S
C2156 C2157 1.377 . S
C2156 C2158 1.384 . S
C2157 C2156 1.377 . S
C2157 C2163 1.390 . S
C2158 H2149 0.930 . S
C2158 C2156 1.384 . S
C2158 C2159 1.372 . S
C2159 C2158 1.372 . S
C2159 C2160 1.400 . S
C2159 C2164 1.490 . S
C2160 H2150 0.930 . S
C2160 C2159 1.400 . S
C2160 C2163 1.386 . S
H2161 C2177 0.930 1_545 S
H2162 C2178 0.944 . S
C2163 H2151 0.929 . S
C2163 C2157 1.390 . S
C2163 C2160 1.386 . S
C2164 C2159 1.490 . S
C2164 C2166 1.395 . S
C2164 C2167 1.403 . S
H2165 C2171 0.930 . S
C2166 H2152 0.930 . S
C2166 C2164 1.395 . S
C2166 C2169 1.403 . S
C2167 C2164 1.403 . S
C2167 C2168 1.524 . S
C2167 C2171 1.400 . S
C2168 H2153 0.960 . S
C2168 H2154 0.960 . S
C2168 H2155 0.960 . S
C2168 C2167 1.524 . S
C2169 C2166 1.403 . S
C2169 C2170 1.392 . S
C2169 C2173 1.495 . S
C2170 C2169 1.392 . S
C2170 C2171 1.385 . S
C2170 C2172 1.478 . S
C2171 H2165 0.930 . S
C2171 C2167 1.400 . S
C2171 C2170 1.385 . S
C2172 C2170 1.478 . S
C2172 C2174 1.381 . S
C2172 C2178 1.383 . S
C2173 C2169 1.495 . S
C2173 H2179 0.959 . S
C2173 H2180 0.961 . S
C2173 H2181 0.960 . S
C2174 C2172 1.381 . S
C2174 C2175 1.394 . S
C2174 H2182 0.930 . S
C2175 C2174 1.394 . S
C2175 C2176 1.383 . S
C2175 H2183 0.929 . S
C2176 C2175 1.383 . S
C2176 C2177 1.377 . S
C2177 H2161 0.930 1_565 S
C2177 C2176 1.377 . S
C2177 C2178 1.379 . S
C2178 H2162 0.944 . S
C2178 C2172 1.383 . S
C2178 C2177 1.379 . S
H2179 C2173 0.959 . S
H2180 C2173 0.961 . S
H2181 C2173 0.960 . S
H2182 C2174 0.930 . S
H2183 C2175 0.929 . S
H2184 C2192 0.929 . S
H2185 C2194 0.930 . S
H2186 C2196 0.930 . S
H2187 C2199 0.929 . S
H2188 C2202 0.930 . S
H2189 C2204 0.960 . S
H2190 C2204 0.960 . S
H2191 C2204 0.960 . S
C2192 H2184 0.929 . S
C2192 C2193 1.377 . S
C2192 C2194 1.384 . S
C2193 C2192 1.377 . S
C2193 C2199 1.390 . S
C2194 H2185 0.930 . S
C2194 C2192 1.384 . S
C2194 C2195 1.372 . S
C2195 C2194 1.372 . S
C2195 C2196 1.400 . S
C2195 C2200 1.490 . S
C2196 H2186 0.930 . S
C2196 C2195 1.400 . S
C2196 C2199 1.386 . S
H2197 C2213 0.930 . S
H2198 C2214 0.931 . S
C2199 H2187 0.929 . S
C2199 C2193 1.390 . S
C2199 C2196 1.386 . S
C2200 C2195 1.490 . S
C2200 C2202 1.395 . S
C2200 C2203 1.403 . S
H2201 C2207 0.930 . S
C2202 H2188 0.930 . S
C2202 C2200 1.395 . S
C2202 C2205 1.403 . S
C2203 C2200 1.403 . S
C2203 C2204 1.524 . S
C2203 C2207 1.400 . S
C2204 H2189 0.960 . S
C2204 H2190 0.960 . S
C2204 H2191 0.960 . S
C2204 C2203 1.524 . S
C2205 C2202 1.403 . S
C2205 C2206 1.392 . S
C2205 C2209 1.495 . S
C2206 C2205 1.392 . S
C2206 C2207 1.385 . S
C2206 C2208 1.478 . S
C2207 H2201 0.930 . S
C2207 C2203 1.400 . S
C2207 C2206 1.385 . S
C2208 C2206 1.478 . S
C2208 C2210 1.381 . S
C2208 C2214 1.383 . S
C2209 C2205 1.495 . S
C2209 H2215 0.959 . S
C2209 H2216 0.961 . S
C2209 H2217 0.960 . S
C2210 C2208 1.381 . S
C2210 C2211 1.394 . S
C2210 H2218 0.930 . S
C2211 C2210 1.394 . S
C2211 C2212 1.383 . S
C2211 H2219 0.929 . S
C2212 C2211 1.383 . S
C2212 C2213 1.377 . S
C2213 H2197 0.930 . S
C2213 C2212 1.377 . S
C2213 C2214 1.379 . S
C2214 H2198 0.931 . S
C2214 C2208 1.383 . S
C2214 C2213 1.379 . S
H2215 C2209 0.959 . S
H2216 C2209 0.961 . S
H2217 C2209 0.960 . S
H2218 C2210 0.930 . S
H2219 C2211 0.929 . S
H2220 C2228 0.929 . S
H2221 C2230 0.930 . S
H2222 C2232 0.930 . S
H2223 C2235 0.929 . S
H2224 C2238 0.930 . S
H2225 C2240 0.960 . S
H2226 C2240 0.960 . S
H2227 C2240 0.960 . S
C2228 H2220 0.929 . S
C2228 C2229 1.377 . S
C2228 C2230 1.384 . S
C2229 C2228 1.377 . S
C2229 C2235 1.390 . S
C2230 H2221 0.930 . S
C2230 C2228 1.384 . S
C2230 C2231 1.372 . S
C2231 C2230 1.372 . S
C2231 C2232 1.400 . S
C2231 C2236 1.490 . S
C2232 H2222 0.930 . S
C2232 C2231 1.400 . S
C2232 C2235 1.386 . S
H2233 C2249 0.930 . S
H2234 C2250 0.931 . S
C2235 H2223 0.929 . S
C2235 C2229 1.390 . S
C2235 C2232 1.386 . S
C2236 C2231 1.490 . S
C2236 C2238 1.395 . S
C2236 C2239 1.403 . S
H2237 C2243 0.930 . S
C2238 H2224 0.930 . S
C2238 C2236 1.395 . S
C2238 C2241 1.403 . S
C2239 C2236 1.403 . S
C2239 C2240 1.524 . S
C2239 C2243 1.400 . S
C2240 H2225 0.960 . S
C2240 H2226 0.960 . S
C2240 H2227 0.960 . S
C2240 C2239 1.524 . S
C2241 C2238 1.403 . S
C2241 C2242 1.392 . S
C2241 C2245 1.495 . S
C2242 C2241 1.392 . S
C2242 C2243 1.385 . S
C2242 C2244 1.478 . S
C2243 H2237 0.930 . S
C2243 C2239 1.400 . S
C2243 C2242 1.385 . S
C2244 C2242 1.478 . S
C2244 C2246 1.381 . S
C2244 C2250 1.383 1_565 S
C2245 C2241 1.495 . S
C2245 H2251 0.959 . S
C2245 H2252 0.961 . S
C2245 H2253 0.960 . S
C2246 C2244 1.381 . S
C2246 C2247 1.394 . S
C2246 H2254 0.930 . S
C2247 C2246 1.394 . S
C2247 C2248 1.383 1_565 S
C2247 H2255 0.929 . S
C2248 C2247 1.383 1_545 S
C2248 C2249 1.377 . S
C2249 H2233 0.930 . S
C2249 C2248 1.377 . S
C2249 C2250 1.379 . S
C2250 H2234 0.931 . S
C2250 C2244 1.383 1_545 S
C2250 C2249 1.379 . S
H2251 C2245 0.959 . S
H2252 C2245 0.961 . S
H2253 C2245 0.960 . S
H2254 C2246 0.930 . S
H2255 C2247 0.929 . S
H2256 C2264 0.929 . S
H2257 C2266 0.930 . S
H2258 C2268 0.909 1_455 S
H2259 C2271 0.929 . S
H2260 C2274 0.930 . S
H2261 C2276 0.960 . S
H2262 C2276 0.960 . S
H2263 C2276 0.960 . S
C2264 H2256 0.929 . S
C2264 C2265 1.377 . S
C2264 C2266 1.384 . S
C2265 C2264 1.377 . S
C2265 C2271 1.390 . S
C2266 H2257 0.930 . S
C2266 C2264 1.384 . S
C2266 C2267 1.372 . S
C2267 C2266 1.372 . S
C2267 C2268 1.400 . S
C2267 C2272 1.496 . S
C2268 H2258 0.909 1_655 S
C2268 C2267 1.400 . S
C2268 C2271 1.386 . S
H2269 C2285 0.930 . S
H2270 C2286 0.931 . S
C2271 H2259 0.929 . S
C2271 C2265 1.390 . S
C2271 C2268 1.386 . S
C2272 C2267 1.496 . S
C2272 C2274 1.419 . S
C2272 C2275 1.374 1_655 S
H2273 C2279 0.930 . S
C2274 H2260 0.930 . S
C2274 C2272 1.419 . S
C2274 C2277 1.403 . S
C2275 C2272 1.374 1_455 S
C2275 C2276 1.524 . S
C2275 C2279 1.400 . S
C2276 H2261 0.960 . S
C2276 H2262 0.960 . S
C2276 H2263 0.960 . S
C2276 C2275 1.524 . S
C2277 C2274 1.403 . S
C2277 C2278 1.392 1_655 S
C2277 C2281 1.495 . S
C2278 C2277 1.392 1_455 S
C2278 C2279 1.385 . S
C2278 C2280 1.478 . S
C2279 H2273 0.930 . S
C2279 C2275 1.400 . S
C2279 C2278 1.385 . S
C2280 C2278 1.478 . S
C2280 C2282 1.381 . S
C2280 C2286 1.383 . S
C2281 C2277 1.495 . S
C2281 H2287 0.959 . S
C2281 H2288 0.961 . S
C2281 H2289 0.960 . S
C2282 C2280 1.381 . S
C2282 C2283 1.394 . S
C2282 H2290 0.930 . S
C2283 C2282 1.394 . S
C2283 C2284 1.383 . S
C2283 H2291 0.929 . S
C2284 C2283 1.383 . S
C2284 C2285 1.377 . S
C2285 H2269 0.930 . S
C2285 C2284 1.377 . S
C2285 C2286 1.379 . S
C2286 H2270 0.931 . S
C2286 C2280 1.383 . S
C2286 C2285 1.379 . S
H2287 C2281 0.959 . S
H2288 C2281 0.961 . S
H2289 C2281 0.960 . S
H2290 C2282 0.930 . S
H2291 C2283 0.929 . S
H2292 C2300 0.929 . S
H2293 C2302 0.930 . S
H2294 C2304 0.930 . S
H2295 C2307 0.929 . S
H2296 C2310 0.930 . S
H2297 C2312 0.960 . S
H2298 C2312 0.960 . S
H2299 C2312 0.960 . S
C2300 H2292 0.929 . S
C2300 C2301 1.377 . S
C2300 C2302 1.384 . S
C2301 C2300 1.377 . S
C2301 C2307 1.390 . S
C2302 H2293 0.930 . S
C2302 C2300 1.384 . S
C2302 C2303 1.372 . S
C2303 C2302 1.372 . S
C2303 C2304 1.400 . S
C2303 C2308 1.490 . S
C2304 H2294 0.930 . S
C2304 C2303 1.400 . S
C2304 C2307 1.386 . S
H2305 C2321 0.930 . S
H2306 C2322 0.931 . S
C2307 H2295 0.929 . S
C2307 C2301 1.390 . S
C2307 C2304 1.386 . S
C2308 C2303 1.490 . S
C2308 C2310 1.395 . S
C2308 C2311 1.403 1_455 S
H2309 C2315 0.930 . S
C2310 H2296 0.930 . S
C2310 C2308 1.395 . S
C2310 C2313 1.403 . S
C2311 C2308 1.403 1_655 S
C2311 C2312 1.524 . S
C2311 C2315 1.400 . S
C2312 H2297 0.960 . S
C2312 H2298 0.960 . S
C2312 H2299 0.960 . S
C2312 C2311 1.524 . S
C2313 C2310 1.403 . S
C2313 C2314 1.392 . S
C2313 C2317 1.495 . S
C2314 C2313 1.392 . S
C2314 C2315 1.385 1_455 S
C2314 C2316 1.476 1_455 S
C2315 H2309 0.930 . S
C2315 C2311 1.400 . S
C2315 C2314 1.385 1_655 S
C2316 C2314 1.476 1_655 S
C2316 C2318 1.381 1_655 S
C2316 C2322 1.385 . S
C2317 C2313 1.495 . S
C2317 H2323 0.959 . S
C2317 H2324 0.961 . S
C2317 H2325 0.960 . S
C2318 C2316 1.381 1_455 S
C2318 C2319 1.393 1_455 S
C2318 H2326 0.932 . S
C2319 C2318 1.393 1_655 S
C2319 C2320 1.383 . S
C2319 H2327 0.929 . S
C2320 C2319 1.383 . S
C2320 C2321 1.377 . S
C2321 H2305 0.930 . S
C2321 C2320 1.377 . S
C2321 C2322 1.379 . S
C2322 H2306 0.931 . S
C2322 C2316 1.385 . S
C2322 C2321 1.379 . S
H2323 C2317 0.959 . S
H2324 C2317 0.961 . S
H2325 C2317 0.960 . S
H2326 C2318 0.932 . S
H2327 C2319 0.929 . S
H2328 C2336 0.928 1_545 S
H2329 C2338 0.929 . S
H2330 C2340 0.930 . S
H2331 C2343 0.929 . S
H2332 C2346 0.930 . S
H2333 C2348 0.960 . S
H2334 C2348 0.960 . S
H2335 C2348 0.960 . S
C2336 H2328 0.928 1_565 S
C2336 C2337 1.375 . S
C2336 C2338 1.385 . S
C2337 C2336 1.375 . S
C2337 C2343 1.394 . S
C2338 H2329 0.929 . S
C2338 C2336 1.385 . S
C2338 C2339 1.375 . S
C2339 C2338 1.375 . S
C2339 C2340 1.400 . S
C2339 C2344 1.490 . S
C2340 H2330 0.930 . S
C2340 C2339 1.400 . S
C2340 C2343 1.386 . S
H2341 C2357 0.930 . S
H2342 C2358 0.931 . S
C2343 H2331 0.929 . S
C2343 C2337 1.394 . S
C2343 C2340 1.386 . S
C2344 C2339 1.490 . S
C2344 C2346 1.395 . S
C2344 C2347 1.403 1_565 S
H2345 C2351 0.930 . S
C2346 H2332 0.930 . S
C2346 C2344 1.395 . S
C2346 C2349 1.403 . S
C2347 C2344 1.403 1_545 S
C2347 C2348 1.524 . S
C2347 C2351 1.400 . S
C2348 H2333 0.960 . S
C2348 H2334 0.960 . S
C2348 H2335 0.960 . S
C2348 C2347 1.524 . S
C2349 C2346 1.403 . S
C2349 C2350 1.392 . S
C2349 C2353 1.495 . S
C2350 C2349 1.392 . S
C2350 C2351 1.385 1_565 S
C2350 C2352 1.478 . S
C2351 H2345 0.930 . S
C2351 C2347 1.400 . S
C2351 C2350 1.385 1_545 S
C2352 C2350 1.478 . S
C2352 C2354 1.381 . S
C2352 C2358 1.383 . S
C2353 C2349 1.495 . S
C2353 H2359 0.959 . S
C2353 H2360 0.961 . S
C2353 H2361 0.960 . S
C2354 C2352 1.381 . S
C2354 C2355 1.394 . S
C2354 H2362 0.930 . S
C2355 C2354 1.394 . S
C2355 C2356 1.383 . S
C2355 H2363 0.929 . S
C2356 C2355 1.383 . S
C2356 C2357 1.377 . S
C2357 H2341 0.930 . S
C2357 C2356 1.377 . S
C2357 C2358 1.379 . S
C2358 H2342 0.931 . S
C2358 C2352 1.383 . S
C2358 C2357 1.379 . S
H2359 C2353 0.959 . S
H2360 C2353 0.961 . S
H2361 C2353 0.960 . S
H2362 C2354 0.930 . S
H2363 C2355 0.929 . S
H2364 C2372 0.929 . S
H2365 C2374 0.930 . S
H2366 C2376 0.930 . S
H2367 C2379 0.929 . S
H2368 C2382 0.930 . S
H2369 C2384 0.960 . S
H2370 C2384 0.960 . S
H2371 C2384 0.960 . S
C2372 H2364 0.929 . S
C2372 C2373 1.377 . S
C2372 C2374 1.384 . S
C2373 C2372 1.377 . S
C2373 C2379 1.390 . S
C2374 H2365 0.930 . S
C2374 C2372 1.384 . S
C2374 C2375 1.372 . S
C2375 C2374 1.372 . S
C2375 C2376 1.400 . S
C2375 C2380 1.490 . S
C2376 H2366 0.930 . S
C2376 C2375 1.400 . S
C2376 C2379 1.386 . S
H2377 C2393 0.930 . S
H2378 C2394 0.931 . S
C2379 H2367 0.929 . S
C2379 C2373 1.390 . S
C2379 C2376 1.386 . S
C2380 C2375 1.490 . S
C2380 C2382 1.395 . S
C2380 C2383 1.403 . S
H2381 C2387 0.930 . S
C2382 H2368 0.930 . S
C2382 C2380 1.395 . S
C2382 C2385 1.403 . S
C2383 C2380 1.403 . S
C2383 C2384 1.524 . S
C2383 C2387 1.400 . S
C2384 H2369 0.960 . S
C2384 H2370 0.960 . S
C2384 H2371 0.960 . S
C2384 C2383 1.524 . S
C2385 C2382 1.403 . S
C2385 C2386 1.392 . S
C2385 C2389 1.495 . S
C2386 C2385 1.392 . S
C2386 C2387 1.385 . S
C2386 C2388 1.478 . S
C2387 H2381 0.930 . S
C2387 C2383 1.400 . S
C2387 C2386 1.385 . S
C2388 C2386 1.478 . S
C2388 C2390 1.381 . S
C2388 C2394 1.383 . S
C2389 C2385 1.495 . S
C2389 H2395 0.959 . S
C2389 H2396 0.961 . S
C2389 H2397 0.960 . S
C2390 C2388 1.381 . S
C2390 C2391 1.394 . S
C2390 H2398 0.930 . S
C2391 C2390 1.394 . S
C2391 C2392 1.383 . S
C2391 H2399 0.929 . S
C2392 C2391 1.383 . S
C2392 C2393 1.377 . S
C2393 H2377 0.930 . S
C2393 C2392 1.377 . S
C2393 C2394 1.379 . S
C2394 H2378 0.931 . S
C2394 C2388 1.383 . S
C2394 C2393 1.379 . S
H2395 C2389 0.959 . S
H2396 C2389 0.961 . S
H2397 C2389 0.960 . S
H2398 C2390 0.930 . S
H2399 C2391 0.929 . S
H2400 C2408 0.929 . S
H2401 C2410 0.930 . S
H2402 C2412 0.930 . S
H2403 C2415 0.929 . S
H2404 C2418 0.930 . S
H2405 C2420 0.960 . S
H2406 C2420 0.960 . S
H2407 C2420 0.960 1_556 S
C2408 H2400 0.929 . S
C2408 C2409 1.377 . S
C2408 C2410 1.384 . S
C2409 C2408 1.377 . S
C2409 C2415 1.390 . S
C2410 H2401 0.930 . S
C2410 C2408 1.384 . S
C2410 C2411 1.372 . S
C2411 C2410 1.372 . S
C2411 C2412 1.400 . S
C2411 C2416 1.490 . S
C2412 H2402 0.930 . S
C2412 C2411 1.400 . S
C2412 C2415 1.386 . S
H2413 C2429 0.930 . S
H2414 C2430 0.924 1_556 S
C2415 H2403 0.929 . S
C2415 C2409 1.390 . S
C2415 C2412 1.386 . S
C2416 C2411 1.490 . S
C2416 C2418 1.395 . S
C2416 C2419 1.403 . S
H2417 C2423 0.930 . S
C2418 H2404 0.930 . S
C2418 C2416 1.395 . S
C2418 C2421 1.403 . S
C2419 C2416 1.403 . S
C2419 C2420 1.524 1_556 S
C2419 C2423 1.400 1_556 S
C2420 H2405 0.960 . S
C2420 H2406 0.960 . S
C2420 H2407 0.960 1_554 S
C2420 C2419 1.524 1_554 S
C2421 C2418 1.403 . S
C2421 C2422 1.392 . S
C2421 C2425 1.495 . S
C2422 C2421 1.392 . S
C2422 C2423 1.385 1_556 S
C2422 C2424 1.478 1_556 S
C2423 H2417 0.930 . S
C2423 C2419 1.400 1_554 S
C2423 C2422 1.385 1_554 S
C2424 C2422 1.478 1_554 S
C2424 C2426 1.381 . S
C2424 C2430 1.386 . S
C2425 C2421 1.495 . S
C2425 H2431 0.959 . S
C2425 H2432 0.961 . S
C2425 H2433 0.960 . S
C2426 C2424 1.381 . S
C2426 C2427 1.394 . S
C2426 H2434 0.930 . S
C2427 C2426 1.394 . S
C2427 C2428 1.383 . S
C2427 H2435 0.929 . S
C2428 C2427 1.383 . S
C2428 C2429 1.377 . S
C2429 H2413 0.930 . S
C2429 C2428 1.377 . S
C2429 C2430 1.384 . S
C2430 H2414 0.924 1_554 S
C2430 C2424 1.386 . S
C2430 C2429 1.384 . S
H2431 C2425 0.959 . S
H2432 C2425 0.961 . S
H2433 C2425 0.960 . S
H2434 C2426 0.930 . S
H2435 C2427 0.929 . S
H2436 C2444 0.929 . S
H2437 C2446 0.930 . S
H2438 C2448 0.930 . S
H2439 C2451 0.929 . S
H2440 C2454 0.930 . S
H2441 C2456 0.960 . S
H2442 C2456 0.960 . S
H2443 C2456 0.960 . S
C2444 H2436 0.929 . S
C2444 C2445 1.377 . S
C2444 C2446 1.384 . S
C2445 C2444 1.377 . S
C2445 C2451 1.390 . S
C2446 H2437 0.930 . S
C2446 C2444 1.384 . S
C2446 C2447 1.372 . S
C2447 C2446 1.372 . S
C2447 C2448 1.400 . S
C2447 C2452 1.490 . S
C2448 H2438 0.930 . S
C2448 C2447 1.400 . S
C2448 C2451 1.386 . S
H2449 C2465 0.930 . S
H2450 C2466 0.931 . S
C2451 H2439 0.929 . S
C2451 C2445 1.390 . S
C2451 C2448 1.386 . S
C2452 C2447 1.490 . S
C2452 C2454 1.395 . S
C2452 C2455 1.403 . S
H2453 C2459 0.930 . S
C2454 H2440 0.930 . S
C2454 C2452 1.395 . S
C2454 C2457 1.403 . S
C2455 C2452 1.403 . S
C2455 C2456 1.524 . S
C2455 C2459 1.400 . S
C2456 H2441 0.960 . S
C2456 H2442 0.960 . S
C2456 H2443 0.960 . S
C2456 C2455 1.524 . S
C2457 C2454 1.403 . S
C2457 C2458 1.392 . S
C2457 C2461 1.495 . S
C2458 C2457 1.392 . S
C2458 C2459 1.385 . S
C2458 C2460 1.478 . S
C2459 H2453 0.930 . S
C2459 C2455 1.400 . S
C2459 C2458 1.385 . S
C2460 C2458 1.478 . S
C2460 C2462 1.381 . S
C2460 C2466 1.383 . S
C2461 C2457 1.495 . S
C2461 H2467 0.959 . S
C2461 H2468 0.961 . S
C2461 H2469 0.960 . S
C2462 C2460 1.381 . S
C2462 C2463 1.394 . S
C2462 H2470 0.930 . S
C2463 C2462 1.394 . S
C2463 C2464 1.383 . S
C2463 H2471 0.929 . S
C2464 C2463 1.383 . S
C2464 C2465 1.377 . S
C2465 H2449 0.930 . S
C2465 C2464 1.377 . S
C2465 C2466 1.379 . S
C2466 H2450 0.931 . S
C2466 C2460 1.383 . S
C2466 C2465 1.379 . S
H2467 C2461 0.959 . S
H2468 C2461 0.961 . S
H2469 C2461 0.960 . S
H2470 C2462 0.930 . S
H2471 C2463 0.929 . S
H2472 C2480 0.929 . S
H2473 C2482 0.930 . S
H2474 C2484 0.930 . S
H2475 C2487 0.929 . S
H2476 C2490 0.930 . S
H2477 C2492 0.960 . S
H2478 C2492 0.960 . S
H2479 C2492 0.960 . S
C2480 H2472 0.929 . S
C2480 C2481 1.377 . S
C2480 C2482 1.384 . S
C2481 C2480 1.377 . S
C2481 C2487 1.390 . S
C2482 H2473 0.930 . S
C2482 C2480 1.384 . S
C2482 C2483 1.372 . S
C2483 C2482 1.372 . S
C2483 C2484 1.400 . S
C2483 C2488 1.490 . S
C2484 H2474 0.930 . S
C2484 C2483 1.400 . S
C2484 C2487 1.386 . S
H2485 C2501 0.930 . S
H2486 C2502 0.931 . S
C2487 H2475 0.929 . S
C2487 C2481 1.390 . S
C2487 C2484 1.386 . S
C2488 C2483 1.490 . S
C2488 C2490 1.395 . S
C2488 C2491 1.403 . S
H2489 C2495 0.930 . S
C2490 H2476 0.930 . S
C2490 C2488 1.395 . S
C2490 C2493 1.403 . S
C2491 C2488 1.403 . S
C2491 C2492 1.524 . S
C2491 C2495 1.400 . S
C2492 H2477 0.960 . S
C2492 H2478 0.960 . S
C2492 H2479 0.960 . S
C2492 C2491 1.524 . S
C2493 C2490 1.403 . S
C2493 C2494 1.392 . S
C2493 C2497 1.495 . S
C2494 C2493 1.392 . S
C2494 C2495 1.385 . S
C2494 C2496 1.478 . S
C2495 H2489 0.930 . S
C2495 C2491 1.400 . S
C2495 C2494 1.385 . S
C2496 C2494 1.478 . S
C2496 C2498 1.381 . S
C2496 C2502 1.383 . S
C2497 C2493 1.495 . S
C2497 H2503 0.959 . S
C2497 H2504 0.961 . S
C2497 H2505 0.960 . S
C2498 C2496 1.381 . S
C2498 C2499 1.394 . S
C2498 H2506 0.930 . S
C2499 C2498 1.394 . S
C2499 C2500 1.383 . S
C2499 H2507 0.929 . S
C2500 C2499 1.383 . S
C2500 C2501 1.377 . S
C2501 H2485 0.930 . S
C2501 C2500 1.377 . S
C2501 C2502 1.379 . S
C2502 H2486 0.931 . S
C2502 C2496 1.383 . S
C2502 C2501 1.379 . S
H2503 C2497 0.959 . S
H2504 C2497 0.961 . S
H2505 C2497 0.960 . S
H2506 C2498 0.930 . S
H2507 C2499 0.929 . S
H2508 C2516 0.929 . S
H2509 C2518 0.930 . S
H2510 C2520 0.930 . S
H2511 C2523 0.929 . S
H2512 C2526 0.930 . S
H2513 C2528 0.960 . S
H2514 C2528 0.960 . S
H2515 C2528 0.960 . S
C2516 H2508 0.929 . S
C2516 C2517 1.377 . S
C2516 C2518 1.384 . S
C2517 C2516 1.377 . S
C2517 C2523 1.390 1_655 S
C2518 H2509 0.930 . S
C2518 C2516 1.384 . S
C2518 C2519 1.412 . S
C2519 C2518 1.412 . S
C2519 C2520 1.368 1_655 S
C2519 C2524 1.483 1_655 S
C2520 H2510 0.930 . S
C2520 C2519 1.368 1_455 S
C2520 C2523 1.386 . S
H2521 C2537 0.930 . S
H2522 C2538 0.931 . S
C2523 H2511 0.929 . S
C2523 C2517 1.390 1_455 S
C2523 C2520 1.386 . S
C2524 C2519 1.483 1_455 S
C2524 C2526 1.395 1_455 S
C2524 C2527 1.403 . S
H2525 C2531 0.930 . S
C2526 H2512 0.930 . S
C2526 C2524 1.395 1_655 S
C2526 C2529 1.403 . S
C2527 C2524 1.403 . S
C2527 C2528 1.524 . S
C2527 C2531 1.400 . S
C2528 H2513 0.960 . S
C2528 H2514 0.960 . S
C2528 H2515 0.960 . S
C2528 C2527 1.524 . S
C2529 C2526 1.403 . S
C2529 C2530 1.392 1_655 S
C2529 C2533 1.495 . S
C2530 C2529 1.392 1_455 S
C2530 C2531 1.385 . S
C2530 C2532 1.478 . S
C2531 H2525 0.930 . S
C2531 C2527 1.400 . S
C2531 C2530 1.385 . S
C2532 C2530 1.478 . S
C2532 C2534 1.399 . S
C2532 C2538 1.383 . S
C2533 C2529 1.495 . S
C2533 H2539 0.959 . S
C2533 H2540 0.961 . S
C2533 H2541 0.960 . S
C2534 C2532 1.399 . S
C2534 C2535 1.401 . S
C2534 H2542 0.905 1_455 S
C2535 C2534 1.401 . S
C2535 C2536 1.383 . S
C2535 H2543 0.929 1_455 S
C2536 C2535 1.383 . S
C2536 C2537 1.377 . S
C2537 H2521 0.930 . S
C2537 C2536 1.377 . S
C2537 C2538 1.379 . S
C2538 H2522 0.931 . S
C2538 C2532 1.383 . S
C2538 C2537 1.379 . S
H2539 C2533 0.959 . S
H2540 C2533 0.961 . S
H2541 C2533 0.960 . S
H2542 C2534 0.905 1_655 S
H2543 C2535 0.929 1_655 S
H2544 C2552 0.929 . S
H2545 C2554 0.930 . S
H2546 C2556 0.930 . S
H2547 C2559 0.929 . S
H2548 C2562 0.930 . S
H2549 C2564 0.960 . S
H2550 C2564 0.960 . S
H2551 C2564 0.960 . S
C2552 H2544 0.929 . S
C2552 C2553 1.377 . S
C2552 C2554 1.384 . S
C2553 C2552 1.377 . S
C2553 C2559 1.390 1_655 S
C2554 H2545 0.930 . S
C2554 C2552 1.384 . S
C2554 C2555 1.386 . S
C2555 C2554 1.386 . S
C2555 C2556 1.389 1_655 S
C2555 C2560 1.487 1_655 S
C2556 H2546 0.930 . S
C2556 C2555 1.389 1_455 S
C2556 C2559 1.386 . S
H2557 C2573 0.930 . S
H2558 C2574 0.931 . S
C2559 H2547 0.929 . S
C2559 C2553 1.390 1_455 S
C2559 C2556 1.386 . S
C2560 C2555 1.487 1_455 S
C2560 C2562 1.395 1_455 S
C2560 C2563 1.403 . S
H2561 C2567 0.930 . S
C2562 H2548 0.930 . S
C2562 C2560 1.395 1_655 S
C2562 C2565 1.403 . S
C2563 C2560 1.403 . S
C2563 C2564 1.524 . S
C2563 C2567 1.400 . S
C2564 H2549 0.960 . S
C2564 H2550 0.960 . S
C2564 H2551 0.960 . S
C2564 C2563 1.524 . S
C2565 C2562 1.403 . S
C2565 C2566 1.392 1_655 S
C2565 C2569 1.495 . S
C2566 C2565 1.392 1_455 S
C2566 C2567 1.385 . S
C2566 C2568 1.478 . S
C2567 H2561 0.930 . S
C2567 C2563 1.400 . S
C2567 C2566 1.385 . S
C2568 C2566 1.478 . S
C2568 C2570 1.381 . S
C2568 C2574 1.383 . S
C2569 C2565 1.495 . S
C2569 H2575 0.959 . S
C2569 H2576 0.961 . S
C2569 H2577 0.960 . S
C2570 C2568 1.381 . S
C2570 C2571 1.394 . S
C2570 H2578 0.930 1_455 S
C2571 C2570 1.394 . S
C2571 C2572 1.383 . S
C2571 H2579 0.929 . S
C2572 C2571 1.383 . S
C2572 C2573 1.377 . S
C2573 H2557 0.930 . S
C2573 C2572 1.377 . S
C2573 C2574 1.379 . S
C2574 H2558 0.931 . S
C2574 C2568 1.383 . S
C2574 C2573 1.379 . S
H2575 C2569 0.959 . S
H2576 C2569 0.961 . S
H2577 C2569 0.960 . S
H2578 C2570 0.930 1_655 S
H2579 C2571 0.929 . S
H2580 C2588 0.929 . S
H2581 C2590 0.930 . S
H2582 C2592 0.930 . S
H2583 C2595 0.929 . S
H2584 C2598 0.930 . S
H2585 C2600 0.960 . S
H2586 C2600 0.960 . S
H2587 C2600 0.960 . S
C2588 H2580 0.929 . S
C2588 C2589 1.377 . S
C2588 C2590 1.384 . S
C2589 C2588 1.377 . S
C2589 C2595 1.390 . S
C2590 H2581 0.930 . S
C2590 C2588 1.384 . S
C2590 C2591 1.372 . S
C2591 C2590 1.372 . S
C2591 C2592 1.400 . S
C2591 C2596 1.490 . S
C2592 H2582 0.930 . S
C2592 C2591 1.400 . S
C2592 C2595 1.386 . S
H2593 C2609 0.930 . S
H2594 C2610 0.931 . S
C2595 H2583 0.929 . S
C2595 C2589 1.390 . S
C2595 C2592 1.386 . S
C2596 C2591 1.490 . S
C2596 C2598 1.395 1_565 S
C2596 C2599 1.403 . S
H2597 C2603 0.930 . S
C2598 H2584 0.930 . S
C2598 C2596 1.395 1_545 S
C2598 C2601 1.403 . S
C2599 C2596 1.403 . S
C2599 C2600 1.524 . S
C2599 C2603 1.400 . S
C2600 H2585 0.960 . S
C2600 H2586 0.960 . S
C2600 H2587 0.960 . S
C2600 C2599 1.524 . S
C2601 C2598 1.403 . S
C2601 C2602 1.392 . S
C2601 C2605 1.495 . S
C2602 C2601 1.392 . S
C2602 C2603 1.385 1_545 S
C2602 C2604 1.478 . S
C2603 H2597 0.930 . S
C2603 C2599 1.400 . S
C2603 C2602 1.385 1_565 S
C2604 C2602 1.478 . S
C2604 C2606 1.381 . S
C2604 C2610 1.383 . S
C2605 C2601 1.495 . S
C2605 H2611 0.959 . S
C2605 H2612 0.961 . S
C2605 H2613 0.960 . S
C2606 C2604 1.381 . S
C2606 C2607 1.394 . S
C2606 H2614 0.954 . S
C2607 C2606 1.394 . S
C2607 C2608 1.383 . S
C2607 H2615 0.929 . S
C2608 C2607 1.383 . S
C2608 C2609 1.377 . S
C2609 H2593 0.930 . S
C2609 C2608 1.377 . S
C2609 C2610 1.379 . S
C2610 H2594 0.931 . S
C2610 C2604 1.383 . S
C2610 C2609 1.379 . S
H2611 C2605 0.959 . S
H2612 C2605 0.961 . S
H2613 C2605 0.960 . S
H2614 C2606 0.954 . S
H2615 C2607 0.929 . S
H2616 C2624 0.929 . S
H2617 C2626 0.930 . S
H2618 C2628 0.930 . S
H2619 C2631 0.929 . S
H2620 C2634 0.930 . S
H2621 C2636 0.960 . S
H2622 C2636 0.960 . S
H2623 C2636 0.960 . S
C2624 H2616 0.929 . S
C2624 C2625 1.377 . S
C2624 C2626 1.384 . S
C2625 C2624 1.377 . S
C2625 C2631 1.390 . S
C2626 H2617 0.930 . S
C2626 C2624 1.384 . S
C2626 C2627 1.372 . S
C2627 C2626 1.372 . S
C2627 C2628 1.400 . S
C2627 C2632 1.490 . S
C2628 H2618 0.930 . S
C2628 C2627 1.400 . S
C2628 C2631 1.386 . S
H2629 C2645 0.930 . S
H2630 C2646 0.931 . S
C2631 H2619 0.929 . S
C2631 C2625 1.390 . S
C2631 C2628 1.386 . S
C2632 C2627 1.490 . S
C2632 C2634 1.395 . S
C2632 C2635 1.403 . S
H2633 C2639 0.930 . S
C2634 H2620 0.930 . S
C2634 C2632 1.395 . S
C2634 C2637 1.403 . S
C2635 C2632 1.403 . S
C2635 C2636 1.524 . S
C2635 C2639 1.400 . S
C2636 H2621 0.960 . S
C2636 H2622 0.960 . S
C2636 H2623 0.960 . S
C2636 C2635 1.524 . S
C2637 C2634 1.403 . S
C2637 C2638 1.392 . S
C2637 C2641 1.495 . S
C2638 C2637 1.392 . S
C2638 C2639 1.385 . S
C2638 C2640 1.478 . S
C2639 H2633 0.930 . S
C2639 C2635 1.400 . S
C2639 C2638 1.385 . S
C2640 C2638 1.478 . S
C2640 C2642 1.381 . S
C2640 C2646 1.383 . S
C2641 C2637 1.495 . S
C2641 H2647 0.959 . S
C2641 H2648 0.961 . S
C2641 H2649 0.960 . S
C2642 C2640 1.381 . S
C2642 C2643 1.394 . S
C2642 H2650 0.930 . S
C2643 C2642 1.394 . S
C2643 C2644 1.383 . S
C2643 H2651 0.929 . S
C2644 C2643 1.383 . S
C2644 C2645 1.377 . S
C2645 H2629 0.930 . S
C2645 C2644 1.377 . S
C2645 C2646 1.379 . S
C2646 H2630 0.931 . S
C2646 C2640 1.383 . S
C2646 C2645 1.379 . S
H2647 C2641 0.959 . S
H2648 C2641 0.961 . S
H2649 C2641 0.960 . S
H2650 C2642 0.930 . S
H2651 C2643 0.929 . S
H2652 C2660 0.929 . S
H2653 C2662 0.930 . S
H2654 C2664 0.930 . S
H2655 C2667 0.929 . S
H2656 C2670 0.930 . S
H2657 C2672 0.960 . S
H2658 C2672 0.960 . S
H2659 C2672 0.960 . S
C2660 H2652 0.929 . S
C2660 C2661 1.377 . S
C2660 C2662 1.384 . S
C2661 C2660 1.377 . S
C2661 C2667 1.390 . S
C2662 H2653 0.930 . S
C2662 C2660 1.384 . S
C2662 C2663 1.372 . S
C2663 C2662 1.372 . S
C2663 C2664 1.400 . S
C2663 C2668 1.490 . S
C2664 H2654 0.930 . S
C2664 C2663 1.400 . S
C2664 C2667 1.386 . S
H2665 C2681 0.930 . S
H2666 C2682 0.931 . S
C2667 H2655 0.929 . S
C2667 C2661 1.390 . S
C2667 C2664 1.386 . S
C2668 C2663 1.490 . S
C2668 C2670 1.395 . S
C2668 C2671 1.403 . S
H2669 C2675 0.930 . S
C2670 H2656 0.930 . S
C2670 C2668 1.395 . S
C2670 C2673 1.403 . S
C2671 C2668 1.403 . S
C2671 C2672 1.524 . S
C2671 C2675 1.400 . S
C2672 H2657 0.960 . S
C2672 H2658 0.960 . S
C2672 H2659 0.960 . S
C2672 C2671 1.524 . S
C2673 C2670 1.403 . S
C2673 C2674 1.392 . S
C2673 C2677 1.495 . S
C2674 C2673 1.392 . S
C2674 C2675 1.385 . S
C2674 C2676 1.478 . S
C2675 H2669 0.930 . S
C2675 C2671 1.400 . S
C2675 C2674 1.385 . S
C2676 C2674 1.478 . S
C2676 C2678 1.381 1_554 S
C2676 C2682 1.383 . S
C2677 C2673 1.495 . S
C2677 H2683 0.959 . S
C2677 H2684 0.961 . S
C2677 H2685 0.960 . S
C2678 C2676 1.381 1_556 S
C2678 C2679 1.394 . S
C2678 H2686 0.930 . S
C2679 C2678 1.394 . S
C2679 C2680 1.383 . S
C2679 H2687 0.929 . S
C2680 C2679 1.383 . S
C2680 C2681 1.377 1_556 S
C2681 H2665 0.930 . S
C2681 C2680 1.377 1_554 S
C2681 C2682 1.379 . S
C2682 H2666 0.931 . S
C2682 C2676 1.383 . S
C2682 C2681 1.379 . S
H2683 C2677 0.959 . S
H2684 C2677 0.961 . S
H2685 C2677 0.960 . S
H2686 C2678 0.930 . S
H2687 C2679 0.929 . S
H2688 C2696 0.929 . S
H2689 C2698 0.930 . S
H2690 C2700 0.930 . S
H2691 C2703 0.929 . S
H2692 C2706 0.930 . S
H2693 C2708 0.960 . S
H2694 C2708 0.960 . S
H2695 C2708 0.960 . S
C2696 H2688 0.929 . S
C2696 C2697 1.377 . S
C2696 C2698 1.384 . S
C2697 C2696 1.377 . S
C2697 C2703 1.390 . S
C2698 H2689 0.930 . S
C2698 C2696 1.384 . S
C2698 C2699 1.372 . S
C2699 C2698 1.372 . S
C2699 C2700 1.400 . S
C2699 C2704 1.490 . S
C2700 H2690 0.930 . S
C2700 C2699 1.400 . S
C2700 C2703 1.386 . S
H2701 C2717 0.930 . S
H2702 C2718 0.931 . S
C2703 H2691 0.929 . S
C2703 C2697 1.390 . S
C2703 C2700 1.386 . S
C2704 C2699 1.490 . S
C2704 C2706 1.395 . S
C2704 C2707 1.403 . S
H2705 C2711 0.930 . S
C2706 H2692 0.930 . S
C2706 C2704 1.395 . S
C2706 C2709 1.403 . S
C2707 C2704 1.403 . S
C2707 C2708 1.524 . S
C2707 C2711 1.400 . S
C2708 H2693 0.960 . S
C2708 H2694 0.960 . S
C2708 H2695 0.960 . S
C2708 C2707 1.524 . S
C2709 C2706 1.403 . S
C2709 C2710 1.392 . S
C2709 C2713 1.495 . S
C2710 C2709 1.392 . S
C2710 C2711 1.385 . S
C2710 C2712 1.478 . S
C2711 H2705 0.930 . S
C2711 C2707 1.400 . S
C2711 C2710 1.385 . S
C2712 C2710 1.478 . S
C2712 C2714 1.381 . S
C2712 C2718 1.383 . S
C2713 C2709 1.495 . S
C2713 H2719 0.959 . S
C2713 H2720 0.961 . S
C2713 H2721 0.960 . S
C2714 C2712 1.381 . S
C2714 C2715 1.394 . S
C2714 H2722 0.930 . S
C2715 C2714 1.394 . S
C2715 C2716 1.383 . S
C2715 H2723 0.929 . S
C2716 C2715 1.383 . S
C2716 C2717 1.377 . S
C2717 H2701 0.930 . S
C2717 C2716 1.377 . S
C2717 C2718 1.379 . S
C2718 H2702 0.931 . S
C2718 C2712 1.383 . S
C2718 C2717 1.379 . S
H2719 C2713 0.959 . S
H2720 C2713 0.961 . S
H2721 C2713 0.960 . S
H2722 C2714 0.930 . S
H2723 C2715 0.929 . S
H2724 C2732 0.929 . S
H2725 C2734 0.930 . S
H2726 C2736 0.930 . S
H2727 C2739 0.929 . S
H2728 C2742 0.930 . S
H2729 C2744 0.960 . S
H2730 C2744 0.960 . S
H2731 C2744 0.960 . S
C2732 H2724 0.929 . S
C2732 C2733 1.377 . S
C2732 C2734 1.384 . S
C2733 C2732 1.377 . S
C2733 C2739 1.390 . S
C2734 H2725 0.930 . S
C2734 C2732 1.384 . S
C2734 C2735 1.372 . S
C2735 C2734 1.372 . S
C2735 C2736 1.400 . S
C2735 C2740 1.490 . S
C2736 H2726 0.930 . S
C2736 C2735 1.400 . S
C2736 C2739 1.386 . S
H2737 C2753 0.930 . S
H2738 C2754 0.931 . S
C2739 H2727 0.929 . S
C2739 C2733 1.390 . S
C2739 C2736 1.386 . S
C2740 C2735 1.490 . S
C2740 C2742 1.395 . S
C2740 C2743 1.403 . S
H2741 C2747 0.930 . S
C2742 H2728 0.930 . S
C2742 C2740 1.395 . S
C2742 C2745 1.403 . S
C2743 C2740 1.403 . S
C2743 C2744 1.524 . S
C2743 C2747 1.400 . S
C2744 H2729 0.960 . S
C2744 H2730 0.960 . S
C2744 H2731 0.960 . S
C2744 C2743 1.524 . S
C2745 C2742 1.403 . S
C2745 C2746 1.392 . S
C2745 C2749 1.495 . S
C2746 C2745 1.392 . S
C2746 C2747 1.385 . S
C2746 C2748 1.478 . S
C2747 H2741 0.930 . S
C2747 C2743 1.400 . S
C2747 C2746 1.385 . S
C2748 C2746 1.478 . S
C2748 C2750 1.381 . S
C2748 C2754 1.383 . S
C2749 C2745 1.495 . S
C2749 H2755 0.959 . S
C2749 H2756 0.961 . S
C2749 H2757 0.960 . S
C2750 C2748 1.381 . S
C2750 C2751 1.394 . S
C2750 H2758 0.930 . S
C2751 C2750 1.394 . S
C2751 C2752 1.383 . S
C2751 H2759 0.929 . S
C2752 C2751 1.383 . S
C2752 C2753 1.377 . S
C2753 H2737 0.930 . S
C2753 C2752 1.377 . S
C2753 C2754 1.379 . S
C2754 H2738 0.931 . S
C2754 C2748 1.383 . S
C2754 C2753 1.379 . S
H2755 C2749 0.959 . S
H2756 C2749 0.961 . S
H2757 C2749 0.960 . S
H2758 C2750 0.930 . S
H2759 C2751 0.929 . S
H2760 C2768 0.929 . S
H2761 C2770 0.930 . S
H2762 C2772 0.930 . S
H2763 C2775 0.929 . S
H2764 C2778 0.930 . S
H2765 C2780 0.960 . S
H2766 C2780 0.960 . S
H2767 C2780 0.960 . S
C2768 H2760 0.929 . S
C2768 C2769 1.377 . S
C2768 C2770 1.384 . S
C2769 C2768 1.377 . S
C2769 C2775 1.390 . S
C2770 H2761 0.930 . S
C2770 C2768 1.384 . S
C2770 C2771 1.372 . S
C2771 C2770 1.372 . S
C2771 C2772 1.400 . S
C2771 C2776 1.490 . S
C2772 H2762 0.930 . S
C2772 C2771 1.400 . S
C2772 C2775 1.386 . S
H2773 C2789 0.930 . S
H2774 C2790 0.931 . S
C2775 H2763 0.929 . S
C2775 C2769 1.390 . S
C2775 C2772 1.386 . S
C2776 C2771 1.490 . S
C2776 C2778 1.395 . S
C2776 C2779 1.403 . S
H2777 C2783 0.930 . S
C2778 H2764 0.930 . S
C2778 C2776 1.395 . S
C2778 C2781 1.403 . S
C2779 C2776 1.403 . S
C2779 C2780 1.524 . S
C2779 C2783 1.400 . S
C2780 H2765 0.960 . S
C2780 H2766 0.960 . S
C2780 H2767 0.960 . S
C2780 C2779 1.524 . S
C2781 C2778 1.403 . S
C2781 C2782 1.392 . S
C2781 C2785 1.495 . S
C2782 C2781 1.392 . S
C2782 C2783 1.385 . S
C2782 C2784 1.478 . S
C2783 H2777 0.930 . S
C2783 C2779 1.400 . S
C2783 C2782 1.385 . S
C2784 C2782 1.478 . S
C2784 C2786 1.381 . S
C2784 C2790 1.383 . S
C2785 C2781 1.495 . S
C2785 H2791 0.959 . S
C2785 H2792 0.961 . S
C2785 H2793 0.960 . S
C2786 C2784 1.381 . S
C2786 C2787 1.394 . S
C2786 H2794 0.930 . S
C2787 C2786 1.394 . S
C2787 C2788 1.383 . S
C2787 H2795 0.929 . S
C2788 C2787 1.383 . S
C2788 C2789 1.377 . S
C2789 H2773 0.930 . S
C2789 C2788 1.377 . S
C2789 C2790 1.379 . S
C2790 H2774 0.931 . S
C2790 C2784 1.383 . S
C2790 C2789 1.379 . S
H2791 C2785 0.959 . S
H2792 C2785 0.961 . S
H2793 C2785 0.960 . S
H2794 C2786 0.930 . S
H2795 C2787 0.929 . S
H2796 C2804 0.929 . S
H2797 C2806 0.930 . S
H2798 C2808 0.930 . S
H2799 C2811 0.929 . S
H2800 C2814 0.930 . S
H2801 C2816 0.960 . S
H2802 C2816 0.960 . S
H2803 C2816 0.960 . S
C2804 H2796 0.929 . S
C2804 C2805 1.377 . S
C2804 C2806 1.384 . S
C2805 C2804 1.377 . S
C2805 C2811 1.390 . S
C2806 H2797 0.930 . S
C2806 C2804 1.384 . S
C2806 C2807 1.372 . S
C2807 C2806 1.372 . S
C2807 C2808 1.400 . S
C2807 C2812 1.490 . S
C2808 H2798 0.930 . S
C2808 C2807 1.400 . S
C2808 C2811 1.386 . S
H2809 C2825 0.930 . S
H2810 C2826 0.931 . S
C2811 H2799 0.929 . S
C2811 C2805 1.390 . S
C2811 C2808 1.386 . S
C2812 C2807 1.490 . S
C2812 C2814 1.395 . S
C2812 C2815 1.403 . S
H2813 C2819 0.930 . S
C2814 H2800 0.930 . S
C2814 C2812 1.395 . S
C2814 C2817 1.403 . S
C2815 C2812 1.403 . S
C2815 C2816 1.524 . S
C2815 C2819 1.400 . S
C2816 H2801 0.960 . S
C2816 H2802 0.960 . S
C2816 H2803 0.960 . S
C2816 C2815 1.524 . S
C2817 C2814 1.403 . S
C2817 C2818 1.392 . S
C2817 C2821 1.495 . S
C2818 C2817 1.392 . S
C2818 C2819 1.385 . S
C2818 C2820 1.478 . S
C2819 H2813 0.930 . S
C2819 C2815 1.400 . S
C2819 C2818 1.385 . S
C2820 C2818 1.478 . S
C2820 C2822 1.381 . S
C2820 C2826 1.383 . S
C2821 C2817 1.495 . S
C2821 H2827 0.959 . S
C2821 H2828 0.961 . S
C2821 H2829 0.960 . S
C2822 C2820 1.381 . S
C2822 C2823 1.394 . S
C2822 H2830 0.930 . S
C2823 C2822 1.394 . S
C2823 C2824 1.383 . S
C2823 H2831 0.929 . S
C2824 C2823 1.383 . S
C2824 C2825 1.377 . S
C2825 H2809 0.930 . S
C2825 C2824 1.377 . S
C2825 C2826 1.379 . S
C2826 H2810 0.931 . S
C2826 C2820 1.383 . S
C2826 C2825 1.379 . S
H2827 C2821 0.959 . S
H2828 C2821 0.961 . S
H2829 C2821 0.960 . S
H2830 C2822 0.930 . S
H2831 C2823 0.929 . S
H2832 C2840 0.929 . S
H2833 C2842 0.930 . S
H2834 C2844 0.930 . S
H2835 C2847 0.929 . S
H2836 C2850 0.930 . S
H2837 C2852 0.960 . S
H2838 C2852 0.960 . S
H2839 C2852 0.960 . S
C2840 H2832 0.929 . S
C2840 C2841 1.377 . S
C2840 C2842 1.384 . S
C2841 C2840 1.377 . S
C2841 C2847 1.390 . S
C2842 H2833 0.930 . S
C2842 C2840 1.384 . S
C2842 C2843 1.372 . S
C2843 C2842 1.372 . S
C2843 C2844 1.400 . S
C2843 C2848 1.490 . S
C2844 H2834 0.930 . S
C2844 C2843 1.400 . S
C2844 C2847 1.386 . S
H2845 C2861 0.930 . S
H2846 C2862 0.931 . S
C2847 H2835 0.929 . S
C2847 C2841 1.390 . S
C2847 C2844 1.386 . S
C2848 C2843 1.490 . S
C2848 C2850 1.395 . S
C2848 C2851 1.403 . S
H2849 C2855 0.930 . S
C2850 H2836 0.930 . S
C2850 C2848 1.395 . S
C2850 C2853 1.403 . S
C2851 C2848 1.403 . S
C2851 C2852 1.524 . S
C2851 C2855 1.400 . S
C2852 H2837 0.960 . S
C2852 H2838 0.960 . S
C2852 H2839 0.960 . S
C2852 C2851 1.524 . S
C2853 C2850 1.403 . S
C2853 C2854 1.392 . S
C2853 C2857 1.495 . S
C2854 C2853 1.392 . S
C2854 C2855 1.385 . S
C2854 C2856 1.478 . S
C2855 H2849 0.930 . S
C2855 C2851 1.400 . S
C2855 C2854 1.385 . S
C2856 C2854 1.478 . S
C2856 C2858 1.381 . S
C2856 C2862 1.383 . S
C2857 C2853 1.495 . S
C2857 H2863 0.959 . S
C2857 H2864 0.961 . S
C2857 H2865 0.960 . S
C2858 C2856 1.381 . S
C2858 C2859 1.394 . S
C2858 H2866 0.930 . S
C2859 C2858 1.394 . S
C2859 C2860 1.383 . S
C2859 H2867 0.929 . S
C2860 C2859 1.383 . S
C2860 C2861 1.377 . S
C2861 H2845 0.930 . S
C2861 C2860 1.377 . S
C2861 C2862 1.379 . S
C2862 H2846 0.931 . S
C2862 C2856 1.383 . S
C2862 C2861 1.379 . S
H2863 C2857 0.959 . S
H2864 C2857 0.961 . S
H2865 C2857 0.960 . S
H2866 C2858 0.930 . S
H2867 C2859 0.929 . S
H2868 C2876 0.931 . S
H2869 C2878 0.945 . S
H2870 C2880 0.930 . S
H2871 C2883 0.929 . S
H2872 C2886 0.930 . S
H2873 C2888 0.960 . S
H2874 C2888 0.960 . S
H2875 C2888 0.960 . S
C2876 H2868 0.931 . S
C2876 C2877 1.377 . S
C2876 C2878 1.377 1_545 S
C2877 C2876 1.377 . S
C2877 C2883 1.390 . S
C2878 H2869 0.945 . S
C2878 C2876 1.377 1_565 S
C2878 C2879 1.365 1_565 S
C2879 C2878 1.365 1_545 S
C2879 C2880 1.400 . S
C2879 C2884 1.491 1_545 S
C2880 H2870 0.930 . S
C2880 C2879 1.400 . S
C2880 C2883 1.386 . S
H2881 C2897 0.930 . S
H2882 C2898 0.931 . S
C2883 H2871 0.929 . S
C2883 C2877 1.390 . S
C2883 C2880 1.386 . S
C2884 C2879 1.491 1_565 S
C2884 C2886 1.392 . S
C2884 C2887 1.404 1_565 S
H2885 C2891 0.930 . S
C2886 H2872 0.930 . S
C2886 C2884 1.392 . S
C2886 C2889 1.403 . S
C2887 C2884 1.404 1_545 S
C2887 C2888 1.524 . S
C2887 C2891 1.400 . S
C2888 H2873 0.960 . S
C2888 H2874 0.960 . S
C2888 H2875 0.960 . S
C2888 C2887 1.524 . S
C2889 C2886 1.403 . S
C2889 C2890 1.392 . S
C2889 C2893 1.495 . S
C2890 C2889 1.392 . S
C2890 C2891 1.385 1_565 S
C2890 C2892 1.478 . S
C2891 H2885 0.930 . S
C2891 C2887 1.400 . S
C2891 C2890 1.385 1_545 S
C2892 C2890 1.478 . S
C2892 C2894 1.381 . S
C2892 C2898 1.383 . S
C2893 C2889 1.495 . S
C2893 H2899 0.959 . S
C2893 H2900 0.961 . S
C2893 H2901 0.960 . S
C2894 C2892 1.381 . S
C2894 C2895 1.394 . S
C2894 H2902 0.930 . S
C2895 C2894 1.394 . S
C2895 C2896 1.383 . S
C2895 H2903 0.929 . S
C2896 C2895 1.383 . S
C2896 C2897 1.377 . S
C2897 H2881 0.930 . S
C2897 C2896 1.377 . S
C2897 C2898 1.379 . S
C2898 H2882 0.931 . S
C2898 C2892 1.383 . S
C2898 C2897 1.379 . S
H2899 C2893 0.959 . S
H2900 C2893 0.961 . S
H2901 C2893 0.960 . S
H2902 C2894 0.930 . S
H2903 C2895 0.929 . S
H2904 C2912 0.929 . S
H2905 C2914 0.930 . S
H2906 C2916 0.861 1_554 S
H2907 C2919 0.929 . S
H2908 C2922 0.930 . S
H2909 C2924 0.960 . S
H2910 C2924 0.960 . S
H2911 C2924 0.960 . S
C2912 H2904 0.929 . S
C2912 C2913 1.377 . S
C2912 C2914 1.384 . S
C2913 C2912 1.377 . S
C2913 C2919 1.390 . S
C2914 H2905 0.930 . S
C2914 C2912 1.384 . S
C2914 C2915 1.372 . S
C2915 C2914 1.372 . S
C2915 C2916 1.400 . S
C2915 C2920 1.490 . S
C2916 H2906 0.861 1_556 S
C2916 C2915 1.400 . S
C2916 C2919 1.386 . S
H2917 C2933 0.930 . S
H2918 C2934 0.931 . S
C2919 H2907 0.929 . S
C2919 C2913 1.390 . S
C2919 C2916 1.386 . S
C2920 C2915 1.490 . S
C2920 C2922 1.395 . S
C2920 C2923 1.403 1_556 S
H2921 C2927 0.930 . S
C2922 H2908 0.930 . S
C2922 C2920 1.395 . S
C2922 C2925 1.403 . S
C2923 C2920 1.403 1_554 S
C2923 C2924 1.524 . S
C2923 C2927 1.400 . S
C2924 H2909 0.960 . S
C2924 H2910 0.960 . S
C2924 H2911 0.960 . S
C2924 C2923 1.524 . S
C2925 C2922 1.403 . S
C2925 C2926 1.392 1_556 S
C2925 C2929 1.495 . S
C2926 C2925 1.392 1_554 S
C2926 C2927 1.385 . S
C2926 C2928 1.478 . S
C2927 H2921 0.930 . S
C2927 C2923 1.400 . S
C2927 C2926 1.385 . S
C2928 C2926 1.478 . S
C2928 C2930 1.381 . S
C2928 C2934 1.383 . S
C2929 C2925 1.495 . S
C2929 H2935 0.959 . S
C2929 H2936 0.961 . S
C2929 H2937 0.960 . S
C2930 C2928 1.381 . S
C2930 C2931 1.394 . S
C2930 H2938 0.930 1_554 S
C2931 C2930 1.394 . S
C2931 C2932 1.383 . S
C2931 H2939 0.929 . S
C2932 C2931 1.383 . S
C2932 C2933 1.377 . S
C2933 H2917 0.930 . S
C2933 C2932 1.377 . S
C2933 C2934 1.379 . S
C2934 H2918 0.931 . S
C2934 C2928 1.383 . S
C2934 C2933 1.379 . S
H2935 C2929 0.959 . S
H2936 C2929 0.961 . S
H2937 C2929 0.960 . S
H2938 C2930 0.930 1_556 S
H2939 C2931 0.929 . S
H2940 C2948 0.929 . S
H2941 C2950 0.930 . S
H2942 C2952 0.930 . S
H2943 C2955 0.929 . S
H2944 C2958 0.930 . S
H2945 C2960 0.960 . S
H2946 C2960 0.960 . S
H2947 C2960 0.960 . S
C2948 H2940 0.929 . S
C2948 C2949 1.377 . S
C2948 C2950 1.384 . S
C2949 C2948 1.377 . S
C2949 C2955 1.390 . S
C2950 H2941 0.930 . S
C2950 C2948 1.384 . S
C2950 C2951 1.372 . S
C2951 C2950 1.372 . S
C2951 C2952 1.400 . S
C2951 C2956 1.490 . S
C2952 H2942 0.930 . S
C2952 C2951 1.400 . S
C2952 C2955 1.386 . S
H2953 C2969 0.930 . S
H2954 C2970 0.931 . S
C2955 H2943 0.929 . S
C2955 C2949 1.390 . S
C2955 C2952 1.386 . S
C2956 C2951 1.490 . S
C2956 C2958 1.395 . S
C2956 C2959 1.403 . S
H2957 C2963 0.930 . S
C2958 H2944 0.930 . S
C2958 C2956 1.395 . S
C2958 C2961 1.403 . S
C2959 C2956 1.403 . S
C2959 C2960 1.524 . S
C2959 C2963 1.400 . S
C2960 H2945 0.960 . S
C2960 H2946 0.960 . S
C2960 H2947 0.960 . S
C2960 C2959 1.524 . S
C2961 C2958 1.403 . S
C2961 C2962 1.392 . S
C2961 C2965 1.495 . S
C2962 C2961 1.392 . S
C2962 C2963 1.385 . S
C2962 C2964 1.478 . S
C2963 H2957 0.930 . S
C2963 C2959 1.400 . S
C2963 C2962 1.385 . S
C2964 C2962 1.478 . S
C2964 C2966 1.381 . S
C2964 C2970 1.383 . S
C2965 C2961 1.495 . S
C2965 H2971 0.959 . S
C2965 H2972 0.961 . S
C2965 H2973 0.960 . S
C2966 C2964 1.381 . S
C2966 C2967 1.394 . S
C2966 H2974 0.930 . S
C2967 C2966 1.394 . S
C2967 C2968 1.383 . S
C2967 H2975 0.929 . S
C2968 C2967 1.383 . S
C2968 C2969 1.377 . S
C2969 H2953 0.930 . S
C2969 C2968 1.377 . S
C2969 C2970 1.379 . S
C2970 H2954 0.931 . S
C2970 C2964 1.383 . S
C2970 C2969 1.379 . S
H2971 C2965 0.959 . S
H2972 C2965 0.961 . S
H2973 C2965 0.960 . S
H2974 C2966 0.930 . S
H2975 C2967 0.929 . S
H2976 C2984 0.929 . S
H2977 C2986 0.930 . S
H2978 C2988 0.930 . S
H2979 C2991 0.929 . S
H2980 C2994 0.930 . S
H2981 C2996 0.960 . S
H2982 C2996 0.960 . S
H2983 C2996 0.960 . S
C2984 H2976 0.929 . S
C2984 C2985 1.377 . S
C2984 C2986 1.384 . S
C2985 C2984 1.377 . S
C2985 C2991 1.390 . S
C2986 H2977 0.930 . S
C2986 C2984 1.384 . S
C2986 C2987 1.372 . S
C2987 C2986 1.372 . S
C2987 C2988 1.400 . S
C2987 C2992 1.490 . S
C2988 H2978 0.930 . S
C2988 C2987 1.400 . S
C2988 C2991 1.386 . S
H2989 C3005 0.930 . S
H2990 C3006 0.931 . S
C2991 H2979 0.929 . S
C2991 C2985 1.390 . S
C2991 C2988 1.386 . S
C2992 C2987 1.490 . S
C2992 C2994 1.395 . S
C2992 C2995 1.403 . S
H2993 C2999 0.930 . S
C2994 H2980 0.930 . S
C2994 C2992 1.395 . S
C2994 C2997 1.403 . S
C2995 C2992 1.403 . S
C2995 C2996 1.524 . S
C2995 C2999 1.400 . S
C2996 H2981 0.960 . S
C2996 H2982 0.960 . S
C2996 H2983 0.960 . S
C2996 C2995 1.524 . S
C2997 C2994 1.403 . S
C2997 C2998 1.392 . S
C2997 C3001 1.495 . S
C2998 C2997 1.392 . S
C2998 C2999 1.385 . S
C2998 C3000 1.478 . S
C2999 H2993 0.930 . S
C2999 C2995 1.400 . S
C2999 C2998 1.385 . S
C3000 C2998 1.478 . S
C3000 C3002 1.381 . S
C3000 C3006 1.383 . S
C3001 C2997 1.495 . S
C3001 H3007 0.959 . S
C3001 H3008 0.961 . S
C3001 H3009 0.960 . S
C3002 C3000 1.381 . S
C3002 C3003 1.394 . S
C3002 H3010 0.930 . S
C3003 C3002 1.394 . S
C3003 C3004 1.383 . S
C3003 H3011 0.929 . S
C3004 C3003 1.383 . S
C3004 C3005 1.377 . S
C3005 H2989 0.930 . S
C3005 C3004 1.377 . S
C3005 C3006 1.379 . S
C3006 H2990 0.931 . S
C3006 C3000 1.383 . S
C3006 C3005 1.379 . S
H3007 C3001 0.959 . S
H3008 C3001 0.961 . S
H3009 C3001 0.960 . S
H3010 C3002 0.930 . S
H3011 C3003 0.929 . S
H3012 C3020 0.929 . S
H3013 C3022 0.930 . S
H3014 C3024 0.930 . S
H3015 C3027 0.929 . S
H3016 C3030 0.930 . S
H3017 C3032 0.960 . S
H3018 C3032 0.960 . S
H3019 C3032 0.960 . S
C3020 H3012 0.929 . S
C3020 C3021 1.377 . S
C3020 C3022 1.384 . S
C3021 C3020 1.377 . S
C3021 C3027 1.390 . S
C3022 H3013 0.930 . S
C3022 C3020 1.384 . S
C3022 C3023 1.372 . S
C3023 C3022 1.372 . S
C3023 C3024 1.400 . S
C3023 C3028 1.490 . S
C3024 H3014 0.930 . S
C3024 C3023 1.400 . S
C3024 C3027 1.386 . S
H3025 C3041 0.930 . S
H3026 C3042 0.931 . S
C3027 H3015 0.929 . S
C3027 C3021 1.390 . S
C3027 C3024 1.386 . S
C3028 C3023 1.490 . S
C3028 C3030 1.395 . S
C3028 C3031 1.403 . S
H3029 C3035 0.930 . S
C3030 H3016 0.930 . S
C3030 C3028 1.395 . S
C3030 C3033 1.403 . S
C3031 C3028 1.403 . S
C3031 C3032 1.524 . S
C3031 C3035 1.400 . S
C3032 H3017 0.960 . S
C3032 H3018 0.960 . S
C3032 H3019 0.960 . S
C3032 C3031 1.524 . S
C3033 C3030 1.403 . S
C3033 C3034 1.392 . S
C3033 C3037 1.495 . S
C3034 C3033 1.392 . S
C3034 C3035 1.385 . S
C3034 C3036 1.478 . S
C3035 H3029 0.930 . S
C3035 C3031 1.400 . S
C3035 C3034 1.385 . S
C3036 C3034 1.478 . S
C3036 C3038 1.381 . S
C3036 C3042 1.383 . S
C3037 C3033 1.495 . S
C3037 H3043 0.959 . S
C3037 H3044 0.961 . S
C3037 H3045 0.960 . S
C3038 C3036 1.381 . S
C3038 C3039 1.394 . S
C3038 H3046 0.930 . S
C3039 C3038 1.394 . S
C3039 C3040 1.383 . S
C3039 H3047 0.929 . S
C3040 C3039 1.383 . S
C3040 C3041 1.377 . S
C3041 H3025 0.930 . S
C3041 C3040 1.377 . S
C3041 C3042 1.379 . S
C3042 H3026 0.931 . S
C3042 C3036 1.383 . S
C3042 C3041 1.379 . S
H3043 C3037 0.959 . S
H3044 C3037 0.961 . S
H3045 C3037 0.960 . S
H3046 C3038 0.930 . S
H3047 C3039 0.929 . S
H3048 C3056 0.929 . S
H3049 C3058 0.930 . S
H3050 C3060 0.930 . S
H3051 C3063 0.929 . S
H3052 C3066 0.930 . S
H3053 C3068 0.960 . S
H3054 C3068 0.960 . S
H3055 C3068 0.960 . S
C3056 H3048 0.929 . S
C3056 C3057 1.377 . S
C3056 C3058 1.384 . S
C3057 C3056 1.377 . S
C3057 C3063 1.390 1_545 S
C3058 H3049 0.930 . S
C3058 C3056 1.384 . S
C3058 C3059 1.372 . S
C3059 C3058 1.372 . S
C3059 C3060 1.400 1_545 S
C3059 C3064 1.500 . S
C3060 H3050 0.930 . S
C3060 C3059 1.400 1_565 S
C3060 C3063 1.386 . S
H3061 C3077 0.930 . S
H3062 C3078 0.931 . S
C3063 H3051 0.929 . S
C3063 C3057 1.390 1_565 S
C3063 C3060 1.386 . S
C3064 C3059 1.500 . S
C3064 C3066 1.437 . S
C3064 C3067 1.353 1_545 S
H3065 C3071 0.930 . S
C3066 H3052 0.930 . S
C3066 C3064 1.437 . S
C3066 C3069 1.403 . S
C3067 C3064 1.353 1_565 S
C3067 C3068 1.524 . S
C3067 C3071 1.400 . S
C3068 H3053 0.960 . S
C3068 H3054 0.960 . S
C3068 H3055 0.960 . S
C3068 C3067 1.524 . S
C3069 C3066 1.403 . S
C3069 C3070 1.392 1_545 S
C3069 C3073 1.495 . S
C3070 C3069 1.392 1_565 S
C3070 C3071 1.385 . S
C3070 C3072 1.478 . S
C3071 H3065 0.930 . S
C3071 C3067 1.400 . S
C3071 C3070 1.385 . S
C3072 C3070 1.478 . S
C3072 C3074 1.358 1_565 S
C3072 C3078 1.383 . S
C3073 C3069 1.495 . S
C3073 H3079 0.959 . S
C3073 H3080 0.961 . S
C3073 H3081 0.960 . S
C3074 C3072 1.358 1_545 S
C3074 C3075 1.377 1_545 S
C3074 H3082 0.975 . S
C3075 C3074 1.377 1_565 S
C3075 C3076 1.383 . S
C3075 H3083 0.929 1_565 S
C3076 C3075 1.383 . S
C3076 C3077 1.377 . S
C3077 H3061 0.930 . S
C3077 C3076 1.377 . S
C3077 C3078 1.379 . S
C3078 H3062 0.931 . S
C3078 C3072 1.383 . S
C3078 C3077 1.379 . S
H3079 C3073 0.959 . S
H3080 C3073 0.961 . S
H3081 C3073 0.960 . S
H3082 C3074 0.975 . S
H3083 C3075 0.929 1_545 S
H3084 C3092 0.929 . S
H3085 C3094 0.930 . S
H3086 C3096 0.930 . S
H3087 C3099 0.929 . S
H3088 C3102 0.971 . S
H3089 C3104 0.960 . S
H3090 C3104 0.960 . S
H3091 C3104 0.960 . S
C3092 H3084 0.929 . S
C3092 C3093 1.377 1_554 S
C3092 C3094 1.384 . S
C3093 C3092 1.377 1_556 S
C3093 C3099 1.390 . S
C3094 H3085 0.930 . S
C3094 C3092 1.384 . S
C3094 C3095 1.372 1_554 S
C3095 C3094 1.372 1_556 S
C3095 C3096 1.400 . S
C3095 C3100 1.490 . S
C3096 H3086 0.930 . S
C3096 C3095 1.400 . S
C3096 C3099 1.386 . S
H3097 C3113 0.930 . S
H3098 C3114 0.931 . S
C3099 H3087 0.929 . S
C3099 C3093 1.390 . S
C3099 C3096 1.386 . S
C3100 C3095 1.490 . S
C3100 C3102 1.395 . S
C3100 C3103 1.403 . S
H3101 C3107 0.930 . S
C3102 H3088 0.971 . S
C3102 C3100 1.395 . S
C3102 C3105 1.403 . S
C3103 C3100 1.403 . S
C3103 C3104 1.524 . S
C3103 C3107 1.400 . S
C3104 H3089 0.960 . S
C3104 H3090 0.960 . S
C3104 H3091 0.960 . S
C3104 C3103 1.524 . S
C3105 C3102 1.403 . S
C3105 C3106 1.392 . S
C3105 C3109 1.495 . S
C3106 C3105 1.392 . S
C3106 C3107 1.385 . S
C3106 C3108 1.478 . S
C3107 H3101 0.930 . S
C3107 C3103 1.400 . S
C3107 C3106 1.385 . S
C3108 C3106 1.478 . S
C3108 C3110 1.381 . S
C3108 C3114 1.383 . S
C3109 C3105 1.495 . S
C3109 H3115 0.959 1_556 S
C3109 H3116 0.961 . S
C3109 H3117 0.937 1_556 S
C3110 C3108 1.381 . S
C3110 C3111 1.394 . S
C3110 H3118 0.930 . S
C3111 C3110 1.394 . S
C3111 C3112 1.383 . S
C3111 H3119 0.929 . S
C3112 C3111 1.383 . S
C3112 C3113 1.377 . S
C3113 H3097 0.930 . S
C3113 C3112 1.377 . S
C3113 C3114 1.379 . S
C3114 H3098 0.931 . S
C3114 C3108 1.383 . S
C3114 C3113 1.379 . S
H3115 C3109 0.959 1_554 S
H3116 C3109 0.961 . S
H3117 C3109 0.937 1_554 S
H3118 C3110 0.930 . S
H3119 C3111 0.929 . S
C537 C249 1.536 . S
C556 C7 1.536 . S
C573 C238 1.309 . S
C592 C16 1.190 . S
C609 C524 1.537 . S
C628 C29 1.499 . S
C645 C227 1.310 . S
C664 C38 1.179 . S
C681 C412 1.328 . S
C700 C51 1.471 . S
C717 C403 1.571 . S
C736 C60 1.462 . S
C753 C434 1.326 . S
C772 C73 1.481 . S
C789 C82 1.448 . S
C808 C425 1.596 . S
C825 C93 1.488 . S
C844 C469 1.701 . S
C861 C447 1.691 . S
C880 C104 1.504 . S
C897 C115 1.208 . S
C916 C458 1.326 . S
C933 C216 1.350 . S
C952 C126 1.157 . S
C969 C137 1.233 . S
C988 C117 1.414 . S
C1005 C150 1.679 . S
C1024 C106 1.632 . S
C1041 C159 1.220 . S
C1060 C392 1.451 . S
C1077 C95 1.659 . S
C1096 C172 1.663 . S
C1113 C181 1.297 . S
C1132 C282 1.488 . S
C1149 C192 1.208 . S
C1168 C269 1.221 . S
C1185 C203 1.299 . S
C1204 C304 1.486 . S
C1221 C214 1.216 . S
C1240 C291 1.191 . S
C1257 C335 1.121 . S
C1276 C225 1.071 . S
C1293 C236 1.115 . S
C1312 C313 1.070 . S
C1329 C247 1.455 . S
C1348 C326 1.605 . S
C1365 C258 1.456 . S
C1384 C84 1.605 . S
C1401 C271 1.523 . S
C1420 C513 1.519 . S
C1437 C502 1.306 . S
C1456 C280 1.241 . S
C1473 C293 1.530 . S
C1492 C260 1.521 . S
C1509 C491 1.307 . S
C1528 C302 1.221 . S
C1545 C148 1.325 . S
C1564 C315 1.483 . S
C1581 C324 1.448 . S
C1600 C139 1.552 . S
C1617 C337 1.473 . S
C1636 C170 1.266 . S
C1653 C346 1.441 . S
C1672 C161 1.575 . S
C1689 C357 1.477 . S
C1708 C205 1.702 . S
C1725 C368 1.485 . S
C1744 C183 1.672 . S
C1761 C194 1.353 . S
C1780 C379 1.251 . S
C1797 C390 1.200 . S
C1816 C480 1.378 . S
C1833 C381 1.443 . S
C1852 C401 1.263 . S
C1869 C414 1.678 . S
C1888 C370 1.629 . S
C1905 C128 1.438 . S
C1924 C423 1.176 . S
C1941 C436 1.678 . S
C1960 C359 1.630 . S
C1977 C445 1.309 . S
C1996 C18 1.499 . S
C2013 C456 1.229 . S
C2032 C5 1.219 . S
C2049 C40 1.502 . S
C2068 C467 1.265 . S
C2085 C27 1.255 . S
C2104 C478 1.207 . S
C2121 C71 1.122 1_545 S
C2140 C489 1.164 . S
C2157 C500 1.112 . S
C2176 C49 1.133 . S
C2193 C62 1.595 . S
C2212 C511 1.461 . S
C2229 C522 1.454 . S
C2248 C348 1.593 . S
C2265 C19 1.473 . S
C2284 C8 1.473 . S
C2301 C30 1.468 . S
C2320 C41 1.466 . S
C2337 C52 1.438 1_565 S
C2356 C74 1.427 . S
C2373 C63 1.611 . S
C2392 C85 1.602 . S
C2409 C382 1.536 . S
C2428 C96 1.510 . S
C2445 C107 1.528 . S
C2464 C129 1.529 . S
C2481 C360 1.532 . S
C2500 C118 1.543 . S
C2517 C140 1.590 . S
C2536 C151 1.590 . S
C2553 C162 1.592 . S
C2572 C173 1.593 . S
C2589 C184 1.641 . S
C2608 C206 1.637 . S
C2625 C195 1.411 . S
C2644 C217 1.397 . S
C2661 C514 1.530 . S
C2680 C228 1.492 . S
C2697 C261 1.530 . S
C2716 C239 1.508 . S
C2733 C250 1.530 . S
C2752 C492 1.499 . S
C2769 C272 1.468 . S
C2788 C283 1.466 . S
C2805 C294 1.468 . S
C2824 C305 1.468 . S
C2841 C338 1.452 . S
C2860 C316 1.458 . S
C2877 C349 1.613 . S
C2896 C327 1.616 . S
C2913 C371 1.527 . S
C2932 C393 1.525 . S
C2949 C404 1.590 . S
C2968 C415 1.593 . S
C2985 C437 1.606 . S
C3004 C426 1.605 . S
C3021 C470 1.641 . S
C3040 C448 1.638 . S
C3057 C459 1.408 . S
C3076 C481 1.420 . S
C3093 C503 1.504 1_556 S
C3112 C525 1.531 . S
