# Generated by pormake.
# Topology uml, (4)-cn, num edge types: 1
# Building blocks:
#     Node 0, Type 0, BuildingBlock: CEKHIL_clean_sbu_0, # of connection points: 4
#     Node 1, Type 0, BuildingBlock: CEKHIL_clean_sbu_0, # of connection points: 4
#     Node 2, Type 0, BuildingBlock: CEKHIL_clean_sbu_0, # of connection points: 4
#     Node 3, Type 0, BuildingBlock: CEKHIL_clean_sbu_0, # of connection points: 4
#     Node 4, Type 0, BuildingBlock: CEKHIL_clean_sbu_0, # of connection points: 4
#     Node 5, Type 0, BuildingBlock: CEKHIL_clean_sbu_0, # of connection points: 4
#     Node 6, Type 0, BuildingBlock: CEKHIL_clean_sbu_0, # of connection points: 4
#     Node 7, Type 0, BuildingBlock: CEKHIL_clean_sbu_0, # of connection points: 4
#     Node 8, Type 0, BuildingBlock: CEKHIL_clean_sbu_0, # of connection points: 4
#     Node 9, Type 0, BuildingBlock: CEKHIL_clean_sbu_0, # of connection points: 4
#     Node 10, Type 0, BuildingBlock: CEKHIL_clean_sbu_0, # of connection points: 4
#     Node 11, Type 0, BuildingBlock: CEKHIL_clean_sbu_0, # of connection points: 4
#     Node 12, Type 0, BuildingBlock: CEKHIL_clean_sbu_0, # of connection points: 4
#     Node 13, Type 0, BuildingBlock: CEKHIL_clean_sbu_0, # of connection points: 4
#     Node 14, Type 0, BuildingBlock: CEKHIL_clean_sbu_0, # of connection points: 4
#     Node 15, Type 0, BuildingBlock: CEKHIL_clean_sbu_0, # of connection points: 4
#     Node 16, Type 0, BuildingBlock: CEKHIL_clean_sbu_0, # of connection points: 4
#     Node 17, Type 0, BuildingBlock: CEKHIL_clean_sbu_0, # of connection points: 4
#     Node 18, Type 0, BuildingBlock: CEKHIL_clean_sbu_0, # of connection points: 4
#     Node 19, Type 0, BuildingBlock: CEKHIL_clean_sbu_0, # of connection points: 4
#     Node 20, Type 0, BuildingBlock: CEKHIL_clean_sbu_0, # of connection points: 4
#     Node 21, Type 0, BuildingBlock: CEKHIL_clean_sbu_0, # of connection points: 4
#     Node 22, Type 0, BuildingBlock: CEKHIL_clean_sbu_0, # of connection points: 4
#     Node 23, Type 0, BuildingBlock: CEKHIL_clean_sbu_0, # of connection points: 4
#     Node 24, Type 0, BuildingBlock: CEKHIL_clean_sbu_0, # of connection points: 4
#     Node 25, Type 0, BuildingBlock: CEKHIL_clean_sbu_0, # of connection points: 4
#     Node 26, Type 0, BuildingBlock: CEKHIL_clean_sbu_0, # of connection points: 4
#     Node 27, Type 0, BuildingBlock: CEKHIL_clean_sbu_0, # of connection points: 4
#     Node 28, Type 0, BuildingBlock: CEKHIL_clean_sbu_0, # of connection points: 4
#     Node 29, Type 0, BuildingBlock: CEKHIL_clean_sbu_0, # of connection points: 4
#     Node 30, Type 0, BuildingBlock: CEKHIL_clean_sbu_0, # of connection points: 4
#     Node 31, Type 0, BuildingBlock: CEKHIL_clean_sbu_0, # of connection points: 4
#     Node 32, Type 0, BuildingBlock: CEKHIL_clean_sbu_0, # of connection points: 4
#     Node 33, Type 0, BuildingBlock: CEKHIL_clean_sbu_0, # of connection points: 4
#     Node 34, Type 0, BuildingBlock: CEKHIL_clean_sbu_0, # of connection points: 4
#     Node 35, Type 0, BuildingBlock: CEKHIL_clean_sbu_0, # of connection points: 4
#     Edge 36, Type (0, 0), BuildingBlock: AJUNOK_clean_linker_0, # of connection points: 2
#     Edge 37, Type (0, 0), BuildingBlock: AJUNOK_clean_linker_0, # of connection points: 2
#     Edge 38, Type (0, 0), BuildingBlock: AJUNOK_clean_linker_0, # of connection points: 2
#     Edge 39, Type (0, 0), BuildingBlock: AJUNOK_clean_linker_0, # of connection points: 2
#     Edge 40, Type (0, 0), BuildingBlock: AJUNOK_clean_linker_0, # of connection points: 2
#     Edge 41, Type (0, 0), BuildingBlock: AJUNOK_clean_linker_0, # of connection points: 2
#     Edge 42, Type (0, 0), BuildingBlock: AJUNOK_clean_linker_0, # of connection points: 2
#     Edge 43, Type (0, 0), BuildingBlock: AJUNOK_clean_linker_0, # of connection points: 2
#     Edge 44, Type (0, 0), BuildingBlock: AJUNOK_clean_linker_0, # of connection points: 2
#     Edge 45, Type (0, 0), BuildingBlock: AJUNOK_clean_linker_0, # of connection points: 2
#     Edge 46, Type (0, 0), BuildingBlock: AJUNOK_clean_linker_0, # of connection points: 2
#     Edge 47, Type (0, 0), BuildingBlock: AJUNOK_clean_linker_0, # of connection points: 2
#     Edge 48, Type (0, 0), BuildingBlock: AJUNOK_clean_linker_0, # of connection points: 2
#     Edge 49, Type (0, 0), BuildingBlock: AJUNOK_clean_linker_0, # of connection points: 2
#     Edge 50, Type (0, 0), BuildingBlock: AJUNOK_clean_linker_0, # of connection points: 2
#     Edge 51, Type (0, 0), BuildingBlock: AJUNOK_clean_linker_0, # of connection points: 2
#     Edge 52, Type (0, 0), BuildingBlock: AJUNOK_clean_linker_0, # of connection points: 2
#     Edge 53, Type (0, 0), BuildingBlock: AJUNOK_clean_linker_0, # of connection points: 2
#     Edge 54, Type (0, 0), BuildingBlock: AJUNOK_clean_linker_0, # of connection points: 2
#     Edge 55, Type (0, 0), BuildingBlock: AJUNOK_clean_linker_0, # of connection points: 2
#     Edge 56, Type (0, 0), BuildingBlock: AJUNOK_clean_linker_0, # of connection points: 2
#     Edge 57, Type (0, 0), BuildingBlock: AJUNOK_clean_linker_0, # of connection points: 2
#     Edge 58, Type (0, 0), BuildingBlock: AJUNOK_clean_linker_0, # of connection points: 2
#     Edge 59, Type (0, 0), BuildingBlock: AJUNOK_clean_linker_0, # of connection points: 2
#     Edge 60, Type (0, 0), BuildingBlock: AJUNOK_clean_linker_0, # of connection points: 2
#     Edge 61, Type (0, 0), BuildingBlock: AJUNOK_clean_linker_0, # of connection points: 2
#     Edge 62, Type (0, 0), BuildingBlock: AJUNOK_clean_linker_0, # of connection points: 2
#     Edge 63, Type (0, 0), BuildingBlock: AJUNOK_clean_linker_0, # of connection points: 2
#     Edge 64, Type (0, 0), BuildingBlock: AJUNOK_clean_linker_0, # of connection points: 2
#     Edge 65, Type (0, 0), BuildingBlock: AJUNOK_clean_linker_0, # of connection points: 2
#     Edge 66, Type (0, 0), BuildingBlock: AJUNOK_clean_linker_0, # of connection points: 2
#     Edge 67, Type (0, 0), BuildingBlock: AJUNOK_clean_linker_0, # of connection points: 2
#     Edge 68, Type (0, 0), BuildingBlock: AJUNOK_clean_linker_0, # of connection points: 2
#     Edge 69, Type (0, 0), BuildingBlock: AJUNOK_clean_linker_0, # of connection points: 2
#     Edge 70, Type (0, 0), BuildingBlock: AJUNOK_clean_linker_0, # of connection points: 2
#     Edge 71, Type (0, 0), BuildingBlock: AJUNOK_clean_linker_0, # of connection points: 2
#     Edge 72, Type (0, 0), BuildingBlock: AJUNOK_clean_linker_0, # of connection points: 2
#     Edge 73, Type (0, 0), BuildingBlock: AJUNOK_clean_linker_0, # of connection points: 2
#     Edge 74, Type (0, 0), BuildingBlock: AJUNOK_clean_linker_0, # of connection points: 2
#     Edge 75, Type (0, 0), BuildingBlock: AJUNOK_clean_linker_0, # of connection points: 2
#     Edge 76, Type (0, 0), BuildingBlock: AJUNOK_clean_linker_0, # of connection points: 2
#     Edge 77, Type (0, 0), BuildingBlock: AJUNOK_clean_linker_0, # of connection points: 2
#     Edge 78, Type (0, 0), BuildingBlock: AJUNOK_clean_linker_0, # of connection points: 2
#     Edge 79, Type (0, 0), BuildingBlock: AJUNOK_clean_linker_0, # of connection points: 2
#     Edge 80, Type (0, 0), BuildingBlock: AJUNOK_clean_linker_0, # of connection points: 2
#     Edge 81, Type (0, 0), BuildingBlock: AJUNOK_clean_linker_0, # of connection points: 2
#     Edge 82, Type (0, 0), BuildingBlock: AJUNOK_clean_linker_0, # of connection points: 2
#     Edge 83, Type (0, 0), BuildingBlock: AJUNOK_clean_linker_0, # of connection points: 2
#     Edge 84, Type (0, 0), BuildingBlock: AJUNOK_clean_linker_0, # of connection points: 2
#     Edge 85, Type (0, 0), BuildingBlock: AJUNOK_clean_linker_0, # of connection points: 2
#     Edge 86, Type (0, 0), BuildingBlock: AJUNOK_clean_linker_0, # of connection points: 2
#     Edge 87, Type (0, 0), BuildingBlock: AJUNOK_clean_linker_0, # of connection points: 2
#     Edge 88, Type (0, 0), BuildingBlock: AJUNOK_clean_linker_0, # of connection points: 2
#     Edge 89, Type (0, 0), BuildingBlock: AJUNOK_clean_linker_0, # of connection points: 2
#     Edge 90, Type (0, 0), BuildingBlock: AJUNOK_clean_linker_0, # of connection points: 2
#     Edge 91, Type (0, 0), BuildingBlock: AJUNOK_clean_linker_0, # of connection points: 2
#     Edge 92, Type (0, 0), BuildingBlock: AJUNOK_clean_linker_0, # of connection points: 2
#     Edge 93, Type (0, 0), BuildingBlock: AJUNOK_clean_linker_0, # of connection points: 2
#     Edge 94, Type (0, 0), BuildingBlock: AJUNOK_clean_linker_0, # of connection points: 2
#     Edge 95, Type (0, 0), BuildingBlock: AJUNOK_clean_linker_0, # of connection points: 2
#     Edge 96, Type (0, 0), BuildingBlock: AJUNOK_clean_linker_0, # of connection points: 2
#     Edge 97, Type (0, 0), BuildingBlock: AJUNOK_clean_linker_0, # of connection points: 2
#     Edge 98, Type (0, 0), BuildingBlock: AJUNOK_clean_linker_0, # of connection points: 2
#     Edge 99, Type (0, 0), BuildingBlock: AJUNOK_clean_linker_0, # of connection points: 2
#     Edge 100, Type (0, 0), BuildingBlock: AJUNOK_clean_linker_0, # of connection points: 2
#     Edge 101, Type (0, 0), BuildingBlock: AJUNOK_clean_linker_0, # of connection points: 2
#     Edge 102, Type (0, 0), BuildingBlock: AJUNOK_clean_linker_0, # of connection points: 2
#     Edge 103, Type (0, 0), BuildingBlock: AJUNOK_clean_linker_0, # of connection points: 2
#     Edge 104, Type (0, 0), BuildingBlock: AJUNOK_clean_linker_0, # of connection points: 2
#     Edge 105, Type (0, 0), BuildingBlock: AJUNOK_clean_linker_0, # of connection points: 2
#     Edge 106, Type (0, 0), BuildingBlock: AJUNOK_clean_linker_0, # of connection points: 2
#     Edge 107, Type (0, 0), BuildingBlock: AJUNOK_clean_linker_0, # of connection points: 2
# Relax obj value: 0.148
# Max RMSD: 0.484
# Mean RMSD: 0.264
data_MOF--net-uml--node1-CEKHIL_clean_sbu_0--edge1-AJUNOK_clean_linker_0
_symmetry_space_group_name_H-M    P1
_symmetry_Int_Tables_number       1
_symmetry_cell_setting            triclinic
loop_
_symmetry_equiv_pos_as_xyz
'x, y, z'
_cell_length_a     68.196761
_cell_length_b     66.120022
_cell_length_c     20.474214
_cell_angle_alpha  89.960413
_cell_angle_beta   90.152982
_cell_angle_gamma 116.49224
loop_
_atom_site_label
_atom_site_type_symbol
_atom_site_fract_x
_atom_site_fract_y
_atom_site_fract_z
_atom_type_partial_charge
Co0 Co 0.34764 0.10675 0.16038 0.0
O1 O 0.35507 0.08231 0.15294 0.0
O2 O 0.37595 0.11748 0.11938 0.0
C3 C 0.33606 0.10114 0.26452 0.0
O4 O 0.34484 0.13597 0.16154 0.0
Co5 Co 0.29822 0.09386 0.17891 0.0
O6 O 0.30938 0.12705 0.18224 0.0
C7 C 0.31449 0.09235 0.04753 0.0
C8 C 0.3728 0.09663 0.12444 0.0
C9 C 0.32912 0.14132 0.171 0.0
O10 O 0.33388 0.09976 0.07096 0.0
O11 O 0.29753 0.08776 0.08256 0.0
O12 O 0.35681 0.11162 0.25106 0.0
O13 O 0.32337 0.09146 0.21526 0.0
Co14 Co 0.88721 0.28416 0.18477 0.0
O15 O 0.88208 0.28624 0.2765 0.0
O16 O 0.9052 0.27429 0.23678 0.0
C17 C 0.89006 0.31833 0.15385 0.0
O18 O 0.89693 0.28039 0.09284 0.0
Co19 Co 0.85101 0.28194 0.08834 0.0
O20 O 0.87214 0.28205 0.02227 0.0
C21 C 0.84482 0.24074 0.1575 0.0
C22 C 0.89607 0.2783 0.28768 0.0
C23 C 0.88978 0.28057 0.03455 0.0
O24 O 0.86389 0.25193 0.18283 0.0
O25 O 0.83575 0.25 0.12141 0.0
O26 O 0.90653 0.31658 0.18056 0.0
O27 O 0.87176 0.30001 0.15477 0.0
Co28 Co 0.72383 0.62886 0.15607 0.0
O29 O 0.69262 0.61935 0.15028 0.0
O30 O 0.70796 0.59877 0.11376 0.0
C31 C 0.7255 0.63752 0.26639 0.0
O32 O 0.7561 0.63775 0.15923 0.0
Co33 Co 0.72339 0.65789 0.13498 0.0
O34 O 0.75672 0.67124 0.14915 0.0
C35 C 0.71661 0.64282 0.02539 0.0
C36 C 0.69008 0.60097 0.12244 0.0
C37 C 0.76715 0.65938 0.15674 0.0
O38 O 0.72974 0.639 0.06127 0.0
O39 O 0.70564 0.65139 0.05286 0.0
O40 O 0.71922 0.61769 0.24351 0.0
O41 O 0.73064 0.65392 0.22509 0.0
Co42 Co 0.09543 0.35141 0.31776 0.0
O43 O 0.07415 0.36283 0.32462 0.0
O44 O 0.10883 0.38204 0.35394 0.0
C45 C 0.08642 0.33704 0.21518 0.0
O46 O 0.12131 0.34356 0.31538 0.0
Co47 Co 0.07578 0.29936 0.31264 0.0
O48 O 0.10639 0.30639 0.29035 0.0
C49 C 0.07836 0.32078 0.43901 0.0
C50 C 0.08929 0.38097 0.35011 0.0
C51 C 0.12294 0.32542 0.29976 0.0
O52 O 0.08897 0.33983 0.41035 0.0
O53 O 0.06971 0.302 0.40795 0.0
O54 O 0.0992 0.35835 0.22455 0.0
O55 O 0.07724 0.32592 0.26778 0.0
Co56 Co 0.62301 0.76058 0.31328 0.0
O57 O 0.61728 0.76217 0.2219 0.0
O58 O 0.64642 0.75995 0.26201 0.0
C59 C 0.58985 0.73275 0.34102 0.0
O60 O 0.63313 0.7573 0.40511 0.0
Co61 Co 0.5986 0.7769 0.409 0.0
O62 O 0.60957 0.76216 0.47288 0.0
C63 C 0.63875 0.8109 0.34985 0.0
C64 C 0.63527 0.7606 0.211 0.0
C65 C 0.62456 0.75621 0.46185 0.0
O66 O 0.63995 0.7947 0.31841 0.0
O67 O 0.62276 0.80769 0.38782 0.0
O68 O 0.6046 0.72861 0.31273 0.0
O69 O 0.59412 0.75407 0.34251 0.0
Co70 Co 0.2417 0.91281 0.33494 0.0
O71 O 0.27325 0.92509 0.33319 0.0
O72 O 0.25166 0.89207 0.37613 0.0
C73 C 0.23813 0.92141 0.22931 0.0
O74 O 0.20778 0.89516 0.34199 0.0
Co75 Co 0.22303 0.94758 0.31581 0.0
O76 O 0.19477 0.91997 0.31382 0.0
C77 C 0.23994 0.9438 0.44523 0.0
C78 C 0.27155 0.90714 0.36279 0.0
C79 C 0.19173 0.90024 0.33098 0.0
O80 O 0.24286 0.92701 0.42389 0.0
O81 O 0.23389 0.95558 0.40805 0.0
O82 O 0.24011 0.90326 0.24324 0.0
O83 O 0.24087 0.93478 0.27803 0.0
Co84 Co 0.65721 0.92473 0.82292 0.0
O85 O 0.65106 0.92099 0.73213 0.0
O86 O 0.6845 0.93711 0.77429 0.0
C87 C 0.63346 0.93822 0.8482 0.0
O88 O 0.66844 0.93125 0.9168 0.0
Co89 Co 0.61851 0.89517 0.91585 0.0
O90 O 0.63866 0.91551 0.98208 0.0
C91 C 0.64724 0.87667 0.86095 0.0
C92 C 0.67197 0.93073 0.72257 0.0
C93 C 0.65912 0.92749 0.9733 0.0
O94 O 0.65791 0.89468 0.8275 0.0
O95 O 0.63076 0.87336 0.89685 0.0
O96 O 0.6525 0.95159 0.82447 0.0
O97 O 0.62828 0.91693 0.84626 0.0
Co98 Co 0.09419 0.76693 0.81896 0.0
O99 O 0.09914 0.76586 0.7267 0.0
O100 O 0.07266 0.77229 0.76885 0.0
C101 C 0.09754 0.7353 0.84577 0.0
O102 O 0.08384 0.76852 0.91213 0.0
Co103 Co 0.13173 0.77381 0.91622 0.0
O104 O 0.10892 0.76807 0.98301 0.0
C105 C 0.13326 0.81287 0.84248 0.0
C106 C 0.08244 0.76991 0.71692 0.0
C107 C 0.0905 0.76789 0.97095 0.0
O108 O 0.11388 0.80057 0.82037 0.0
O109 O 0.14391 0.80494 0.87707 0.0
O110 O 0.07927 0.73391 0.82237 0.0
O111 O 0.11371 0.75535 0.84592 0.0
Co112 Co 0.24926 0.37795 0.84235 0.0
O113 O 0.24589 0.38515 0.75465 0.0
O114 O 0.25112 0.35563 0.78537 0.0
C115 C 0.2749 0.4128 0.87228 0.0
O116 O 0.2539 0.36712 0.93151 0.0
Co117 Co 0.23086 0.40083 0.93854 0.0
O118 O 0.24215 0.38589 1.00042 0.0
C119 C 0.20014 0.35812 0.88 0.0
C120 C 0.2482 0.36746 0.73866 0.0
C121 C 0.25105 0.37292 0.98946 0.0
O122 O 0.21639 0.35806 0.84869 0.0
O123 O 0.2021 0.37437 0.9175 0.0
O124 O 0.28011 0.39895 0.84098 0.0
O125 O 0.25392 0.40666 0.87521 0.0
Co126 Co 0.90424 0.6687 0.69017 0.0
O127 O 0.90309 0.66424 0.78219 0.0
O128 O 0.91017 0.69688 0.73494 0.0
C129 C 0.92437 0.65059 0.66557 0.0
O130 O 0.90657 0.67816 0.59458 0.0
Co131 Co 0.88112 0.62433 0.60708 0.0
O132 O 0.89472 0.64603 0.53484 0.0
C133 C 0.85489 0.64342 0.67235 0.0
C134 C 0.90707 0.68517 0.7886 0.0
C135 C 0.90286 0.66749 0.53962 0.0
O136 O 0.87232 0.66101 0.68851 0.0
O137 O 0.85485 0.62594 0.6455 0.0
O138 O 0.93393 0.67139 0.68601 0.0
O139 O 0.90335 0.64087 0.67053 0.0
Co140 Co 0.378 0.28557 0.6998 0.0
O141 O 0.39096 0.28137 0.77832 0.0
O142 O 0.35726 0.27824 0.77061 0.0
C143 C 0.40484 0.32027 0.67174 0.0
O144 O 0.36264 0.28909 0.61992 0.0
Co145 Co 0.40501 0.27417 0.61709 0.0
O146 O 0.38718 0.28383 0.55775 0.0
C147 C 0.36821 0.23662 0.65354 0.0
C148 C 0.37309 0.27846 0.80694 0.0
C149 C 0.3708 0.28832 0.56368 0.0
O150 O 0.36393 0.25201 0.67788 0.0
O151 O 0.38701 0.2413 0.63061 0.0
O152 O 0.39123 0.3173 0.71784 0.0
O153 O 0.40487 0.3018 0.65003 0.0
Co154 Co 0.72865 0.12752 0.69408 0.0
O155 O 0.72701 0.13355 0.78587 0.0
O156 O 0.74112 0.11179 0.74737 0.0
C157 C 0.69333 0.11952 0.66913 0.0
O158 O 0.73284 0.11716 0.60283 0.0
Co159 Co 0.72304 0.15716 0.58712 0.0
O160 O 0.71913 0.13209 0.52746 0.0
C161 C 0.76718 0.17037 0.64527 0.0
C162 C 0.73611 0.12041 0.79805 0.0
C163 C 0.72731 0.11888 0.54341 0.0
O164 O 0.75872 0.15397 0.68616 0.0
O165 O 0.75555 0.17488 0.60387 0.0
O166 O 0.69845 0.10468 0.69546 0.0
O167 O 0.70943 0.13968 0.66437 0.0
Co168 Co 0.01756 0.4366 0.50793 0.0
O169 O 0.02587 0.41274 0.50043 0.0
O170 O 0.04569 0.44686 0.4615 0.0
C171 C 0.00879 0.4309 0.61591 0.0
O172 O 0.01199 0.46488 0.51084 0.0
Co173 Co 0.96799 0.41941 0.5394 0.0
O174 O 0.97802 0.45213 0.55412 0.0
C175 C 0.98176 0.41985 0.40276 0.0
C176 C 0.04339 0.42635 0.47045 0.0
C177 C 0.99593 0.46813 0.53411 0.0
O178 O 0.00183 0.42815 0.4212 0.0
O179 O 0.96569 0.41366 0.44271 0.0
O180 O 0.02888 0.44278 0.59751 0.0
O181 O 0.99536 0.42069 0.56872 0.0
Co182 Co 0.54905 0.61821 0.51192 0.0
O183 O 0.54424 0.6191 0.60486 0.0
O184 O 0.56784 0.60859 0.56118 0.0
C185 C 0.55031 0.65245 0.48607 0.0
O186 O 0.55887 0.61567 0.41827 0.0
Co187 Co 0.51286 0.61614 0.41609 0.0
O188 O 0.53333 0.61587 0.34815 0.0
C189 C 0.50719 0.57466 0.48338 0.0
C190 C 0.55858 0.61146 0.61355 0.0
C191 C 0.55136 0.61516 0.3599 0.0
O192 O 0.52639 0.58562 0.50825 0.0
O193 O 0.49799 0.58421 0.44909 0.0
O194 O 0.56733 0.65105 0.50996 0.0
O195 O 0.53263 0.63353 0.48535 0.0
Co196 Co 0.38839 0.96223 0.49717 0.0
O197 O 0.35705 0.94947 0.49837 0.0
O198 O 0.3749 0.93213 0.4551 0.0
C199 C 0.39295 0.97393 0.6021 0.0
O200 O 0.42228 0.97359 0.49252 0.0
Co201 Co 0.40883 0.01388 0.50701 0.0
O202 O 0.43578 0.01047 0.52159 0.0
C203 C 0.39426 0.99359 0.37928 0.0
C204 C 0.35611 0.93226 0.46699 0.0
C205 C 0.43844 0.9931 0.50772 0.0
O206 O 0.38888 0.97466 0.40754 0.0
O207 O 0.40214 0.01235 0.41024 0.0
O208 O 0.38872 0.95333 0.58736 0.0
O209 O 0.39125 0.9858 0.55366 0.0
Co210 Co 0.74115 0.66673 0.64677 0.0
O211 O 0.72017 0.67819 0.64141 0.0
O212 O 0.75209 0.69533 0.69273 0.0
C213 C 0.73934 0.65727 0.54179 0.0
O214 O 0.76683 0.65934 0.66014 0.0
Co215 Co 0.7246 0.61554 0.6227 0.0
O216 O 0.75581 0.6228 0.63326 0.0
C217 C 0.71664 0.63068 0.74903 0.0
C218 C 0.7334 0.69495 0.67695 0.0
C219 C 0.77036 0.64191 0.65271 0.0
O220 O 0.72753 0.65104 0.72959 0.0
O221 O 0.71274 0.6134 0.71354 0.0
O222 O 0.7517 0.67786 0.56055 0.0
O223 O 0.72678 0.6436 0.58591 0.0
Co224 Co 0.29046 0.09581 0.62972 0.0
O225 O 0.28405 0.09504 0.53812 0.0
O226 O 0.31594 0.09994 0.57967 0.0
C227 C 0.26064 0.0649 0.66248 0.0
O228 O 0.30172 0.09663 0.72355 0.0
Co229 Co 0.26089 0.10825 0.71696 0.0
O230 O 0.27676 0.10103 0.78684 0.0
C231 C 0.2976 0.14491 0.65386 0.0
C232 C 0.30394 0.09812 0.52832 0.0
C233 C 0.29386 0.09806 0.77986 0.0
O234 O 0.30249 0.12964 0.63181 0.0
O235 O 0.28013 0.14019 0.6865 0.0
O236 O 0.27654 0.06343 0.63188 0.0
O237 O 0.26105 0.08481 0.65921 0.0
Co238 Co 0.91124 0.24193 0.65598 0.0
O239 O 0.94227 0.25722 0.65821 0.0
O240 O 0.92375 0.22255 0.69427 0.0
C241 C 0.90846 0.25277 0.55204 0.0
O242 O 0.87771 0.2222 0.6573 0.0
Co243 Co 0.89057 0.27543 0.64444 0.0
O244 O 0.86398 0.24661 0.62995 0.0
C245 C 0.90771 0.26998 0.7707 0.0
C246 C 0.94278 0.24002 0.68622 0.0
C247 C 0.86157 0.22668 0.64198 0.0
O248 O 0.91007 0.25325 0.74679 0.0
O249 O 0.90221 0.28275 0.736 0.0
O250 O 0.91184 0.2352 0.56254 0.0
O251 O 0.90925 0.26413 0.60399 0.0
Co252 Co 0.34118 0.27568 0.16287 0.0
O253 O 0.341 0.27283 0.0714 0.0
O254 O 0.37123 0.28945 0.13239 0.0
C255 C 0.31527 0.2872 0.17 0.0
O256 O 0.34578 0.28154 0.26028 0.0
Co257 Co 0.29871 0.24426 0.23745 0.0
O258 O 0.31293 0.26551 0.3105 0.0
C259 C 0.32733 0.22608 0.18274 0.0
C260 C 0.36212 0.28313 0.07513 0.0
C261 C 0.33341 0.27863 0.31059 0.0
O262 O 0.34238 0.24608 0.17237 0.0
O263 O 0.30802 0.22166 0.20204 0.0
O264 O 0.33519 0.30168 0.15564 0.0
O265 O 0.31139 0.26625 0.16867 0.0
Co266 Co 0.76744 0.09645 0.16313 0.0
O267 O 0.77113 0.09515 0.07007 0.0
O268 O 0.74599 0.10285 0.11614 0.0
C269 C 0.77017 0.06433 0.1886 0.0
O270 O 0.75874 0.09894 0.258 0.0
Co271 Co 0.80661 0.10289 0.25315 0.0
O272 O 0.78608 0.10082 0.32374 0.0
C273 C 0.80678 0.14253 0.18685 0.0
C274 C 0.75516 0.10054 0.06277 0.0
C275 C 0.76746 0.10059 0.31516 0.0
O276 O 0.78774 0.12979 0.16339 0.0
O277 O 0.81783 0.13478 0.22029 0.0
O278 O 0.75176 0.06342 0.16797 0.0
O279 O 0.78665 0.08414 0.18662 0.0
Co280 Co 0.90756 0.7263 0.15959 0.0
O281 O 0.90907 0.73568 0.06994 0.0
O282 O 0.90256 0.70133 0.10238 0.0
C283 C 0.93912 0.75558 0.19388 0.0
O284 O 0.90605 0.71131 0.24785 0.0
Co285 Co 0.89921 0.75319 0.26468 0.0
O286 O 0.91129 0.73788 0.32319 0.0
C287 C 0.86086 0.7185 0.19802 0.0
C288 C 0.90552 0.71534 0.05442 0.0
C289 C 0.91037 0.719 0.30667 0.0
O290 O 0.87463 0.71562 0.16125 0.0
O291 O 0.86726 0.73355 0.24295 0.0
O292 O 0.93884 0.73843 0.163 0.0
O293 O 0.92034 0.75648 0.19582 0.0
Co294 Co 0.56602 0.99051 0.03252 0.0
O295 O 0.56314 0.98521 0.12408 0.0
O296 O 0.57303 0.01867 0.07793 0.0
C297 C 0.5854 0.97146 0.0117 0.0
O298 O 0.57061 0.00106 0.93759 0.0
Co299 Co 0.54315 0.9478 0.94361 0.0
O300 O 0.5595 0.96971 0.87483 0.0
C301 C 0.51786 0.97087 0.99422 0.0
C302 C 0.56909 0.0066 0.13107 0.0
C303 C 0.56793 0.99108 0.88178 0.0
O304 O 0.53473 0.98491 0.02557 0.0
O305 O 0.5176 0.95435 0.96093 0.0
O306 O 0.59495 0.99194 0.0341 0.0
O307 O 0.56422 0.96217 0.01215 0.0
Co308 Co 0.04757 0.62112 0.00996 0.0
O309 O 0.05535 0.62353 0.10022 0.0
O310 O 0.02209 0.61518 0.06271 0.0
C311 C 0.07567 0.65332 0.97459 0.0
O312 O 0.03486 0.61784 0.91852 0.0
Co313 Co 0.07902 0.61146 0.92267 0.0
O314 O 0.05819 0.61087 0.85529 0.0
C315 C 0.04294 0.57296 0.9827 0.0
C316 C 0.03508 0.6184 0.11262 0.0
C317 C 0.04108 0.61376 0.86278 0.0
O318 O 0.03822 0.58752 0.01102 0.0
O319 O 0.05978 0.5789 0.94613 0.0
O320 O 0.05886 0.65356 0.00301 0.0
O321 O 0.07684 0.63422 0.97871 0.0
Co322 Co 0.39126 0.46463 0.01384 0.0
O323 O 0.38964 0.47115 0.10494 0.0
O324 O 0.40168 0.44729 0.06733 0.0
C325 C 0.35732 0.46007 0.98656 0.0
O326 O 0.39435 0.45326 0.92317 0.0
Co327 Co 0.39059 0.49819 0.91015 0.0
O328 O 0.38677 0.4737 0.84817 0.0
C329 C 0.43201 0.50831 0.9784 0.0
C330 C 0.39743 0.45691 0.11712 0.0
C331 C 0.39079 0.45727 0.86368 0.0
O332 O 0.42247 0.48924 0.00792 0.0
O333 O 0.42183 0.516 0.94091 0.0
O334 O 0.36017 0.44388 0.01385 0.0
O335 O 0.37466 0.47933 0.98308 0.0
Co336 Co 0.67314 0.76009 0.84178 0.0
O337 O 0.67785 0.73402 0.8341 0.0
O338 O 0.70131 0.76845 0.80113 0.0
C339 C 0.66125 0.75449 0.94519 0.0
O340 O 0.67246 0.79052 0.84374 0.0
Co341 Co 0.62423 0.74983 0.85668 0.0
O342 O 0.63782 0.78286 0.87223 0.0
C343 C 0.64065 0.74643 0.72756 0.0
C344 C 0.69602 0.74695 0.80516 0.0
C345 C 0.65765 0.79662 0.85974 0.0
O346 O 0.65982 0.75428 0.75252 0.0
O347 O 0.62339 0.74138 0.76172 0.0
O348 O 0.68208 0.76381 0.93262 0.0
O349 O 0.64844 0.74616 0.89526 0.0
Co350 Co 0.21622 0.95226 0.86174 0.0
O351 O 0.20954 0.95143 0.95366 0.0
O352 O 0.23275 0.94 0.91191 0.0
C353 C 0.22224 0.98798 0.83856 0.0
O354 O 0.22694 0.95104 0.76814 0.0
Co355 Co 0.18257 0.95497 0.76515 0.0
O356 O 0.20672 0.96184 0.70226 0.0
C357 C 0.17397 0.91091 0.81929 0.0
C358 C 0.22321 0.94301 0.96345 0.0
C359 C 0.22248 0.95676 0.71152 0.0
O360 O 0.1922 0.92086 0.85002 0.0
O361 O 0.16586 0.9216 0.78521 0.0
O362 O 0.23681 0.98368 0.86801 0.0
O363 O 0.20288 0.97087 0.83539 0.0
Co364 Co 0.06148 0.28866 0.84361 0.0
O365 O 0.03142 0.28233 0.84291 0.0
O366 O 0.04316 0.2589 0.80288 0.0
C367 C 0.06762 0.30128 0.94858 0.0
O368 O 0.09325 0.29229 0.84136 0.0
Co369 Co 0.09156 0.33981 0.85396 0.0
O370 O 0.11254 0.32811 0.87815 0.0
C371 C 0.07581 0.32124 0.72439 0.0
C372 C 0.0268 0.26381 0.81207 0.0
C373 C 0.11119 0.3089 0.86245 0.0
O374 O 0.06534 0.30199 0.75243 0.0
O375 O 0.08733 0.33933 0.75638 0.0
O376 O 0.05945 0.27987 0.9354 0.0
O377 O 0.06908 0.31388 0.89842 0.0
Co378 Co 0.41522 0.01406 0.97951 0.0
O379 O 0.39564 0.02722 0.97486 0.0
O380 O 0.42903 0.04429 0.01699 0.0
C381 C 0.40959 0.00155 0.87527 0.0
O382 O 0.43963 0.00437 0.98901 0.0
Co383 Co 0.39459 0.96306 0.9728 0.0
O384 O 0.42484 0.9684 0.95359 0.0
C385 C 0.39401 0.98348 0.09815 0.0
C386 C 0.4105 0.04474 0.00366 0.0
C387 C 0.44126 0.9865 0.97113 0.0
O388 O 0.40429 0.0025 0.06955 0.0
O389 O 0.38762 0.96463 0.06822 0.0
O390 O 0.42366 0.02194 0.89005 0.0
O391 O 0.3975 0.98965 0.92358 0.0
Co392 Co 0.9651 0.42868 0.98463 0.0
O393 O 0.96027 0.42623 0.89204 0.0
O394 O 0.99088 0.43002 0.93899 0.0
C395 C 0.93287 0.3994 0.01398 0.0
O396 O 0.97358 0.43084 0.08192 0.0
Co397 Co 0.93392 0.44498 0.05044 0.0
O398 O 0.94931 0.4411 0.1274 0.0
C399 C 0.97422 0.47916 0.99478 0.0
C400 C 0.97971 0.42784 0.88529 0.0
C401 C 0.96488 0.43553 0.13234 0.0
O402 O 0.97875 0.46288 0.97962 0.0
O403 O 0.95589 0.47567 0.02032 0.0
O404 O 0.94915 0.39603 0.9939 0.0
O405 O 0.93539 0.41988 0.00525 0.0
Co406 Co 0.57561 0.5769 0.98329 0.0
O407 O 0.6071 0.58885 0.98345 0.0
O408 O 0.5849 0.55574 0.0249 0.0
C409 C 0.57281 0.58631 0.87742 0.0
O410 O 0.5417 0.5599 0.98882 0.0
Co411 Co 0.55844 0.61294 0.9657 0.0
O412 O 0.52977 0.58582 0.96327 0.0
C413 C 0.57333 0.60681 0.09568 0.0
C414 C 0.60496 0.57087 0.0137 0.0
C415 C 0.52611 0.56579 0.97907 0.0
O416 O 0.57631 0.59031 0.07271 0.0
O417 O 0.56798 0.61941 0.0596 0.0
O418 O 0.57437 0.5679 0.89121 0.0
O419 O 0.57548 0.59933 0.92708 0.0
Co420 Co 0.98796 0.59312 0.47825 0.0
O421 O 0.98156 0.58863 0.38699 0.0
O422 O 0.01495 0.60386 0.42986 0.0
C423 C 0.96601 0.60919 0.5025 0.0
O424 O 0.99997 0.60081 0.57047 0.0
Co425 Co 0.95127 0.56776 0.57905 0.0
O426 O 0.97126 0.59203 0.63776 0.0
C427 C 0.97716 0.54542 0.5254 0.0
C428 C 0.00257 0.5982 0.37793 0.0
C429 C 0.99174 0.6017 0.62635 0.0
O430 O 0.98743 0.56236 0.4873 0.0
O431 O 0.96168 0.54407 0.56328 0.0
O432 O 0.98493 0.62089 0.47575 0.0
O433 O 0.95956 0.58754 0.50408 0.0
Co434 Co 0.42565 0.43216 0.4817 0.0
O435 O 0.43093 0.43221 0.38992 0.0
O436 O 0.40624 0.44126 0.4337 0.0
C437 C 0.42444 0.39838 0.50579 0.0
O438 O 0.41606 0.43365 0.57614 0.0
Co439 Co 0.46241 0.43464 0.57454 0.0
O440 O 0.44001 0.42889 0.64264 0.0
C441 C 0.46669 0.4763 0.51204 0.0
C442 C 0.41607 0.43912 0.38155 0.0
C443 C 0.42262 0.4312 0.6337 0.0
O444 O 0.44769 0.46469 0.48709 0.0
O445 O 0.47647 0.46732 0.54633 0.0
O446 O 0.40757 0.3998 0.48087 0.0
O447 O 0.44243 0.41707 0.50578 0.0
Co448 Co 0.57884 0.05088 0.50087 0.0
O449 O 0.58182 0.06015 0.41115 0.0
O450 O 0.57445 0.0257 0.44565 0.0
C451 C 0.60954 0.08012 0.53912 0.0
O452 O 0.57553 0.03596 0.59029 0.0
Co453 Co 0.5689 0.07787 0.60355 0.0
O454 O 0.58076 0.06299 0.66425 0.0
C455 C 0.53179 0.04239 0.53387 0.0
C456 C 0.57786 0.03957 0.39702 0.0
C457 C 0.57923 0.04374 0.64914 0.0
O458 O 0.546 0.04052 0.49668 0.0
O459 O 0.53735 0.05649 0.58127 0.0
O460 O 0.61015 0.06316 0.50949 0.0
O461 O 0.59063 0.08071 0.53715 0.0
Co462 Co 0.2473 0.32905 0.37365 0.0
O463 O 0.24099 0.32279 0.46342 0.0
O464 O 0.25362 0.357 0.41796 0.0
C465 C 0.26625 0.30942 0.35955 0.0
O466 O 0.2561 0.34063 0.28122 0.0
Co467 Co 0.22774 0.28914 0.2757 0.0
O468 O 0.24988 0.31093 0.21612 0.0
C469 C 0.2011 0.31181 0.31784 0.0
C470 C 0.24771 0.34432 0.46995 0.0
C471 C 0.25793 0.33211 0.2262 0.0
O472 O 0.21675 0.32485 0.35526 0.0
O473 O 0.20187 0.29575 0.28482 0.0
O474 O 0.27549 0.32929 0.3862 0.0
O475 O 0.24515 0.30067 0.35373 0.0
Co476 Co 0.7173 0.94969 0.3554 0.0
O477 O 0.72525 0.95304 0.4462 0.0
O478 O 0.6919 0.94365 0.40706 0.0
C479 C 0.74471 0.98181 0.31897 0.0
O480 O 0.70345 0.94552 0.26519 0.0
Co481 Co 0.74544 0.94004 0.25942 0.0
O482 O 0.72864 0.94691 0.19251 0.0
C483 C 0.71134 0.90163 0.32605 0.0
C484 C 0.70474 0.94733 0.45742 0.0
C485 C 0.71055 0.94691 0.20646 0.0
O486 O 0.7087 0.91643 0.36007 0.0
O487 O 0.72568 0.90722 0.28076 0.0
O488 O 0.72754 0.98147 0.34665 0.0
O489 O 0.74678 0.96307 0.32243 0.0
Co490 Co 0.05614 0.7975 0.35024 0.0
O491 O 0.05411 0.80181 0.44294 0.0
O492 O 0.06514 0.77806 0.39982 0.0
C493 C 0.02263 0.79486 0.32189 0.0
O494 O 0.05973 0.78805 0.2575 0.0
Co495 Co 0.0575 0.83397 0.25362 0.0
O496 O 0.05479 0.81134 0.18632 0.0
C497 C 0.0979 0.84153 0.3245 0.0
C498 C 0.06122 0.7868 0.45216 0.0
C499 C 0.05773 0.794 0.19875 0.0
O500 O 0.08785 0.82162 0.34924 0.0
O501 O 0.08825 0.85041 0.28923 0.0
O502 O 0.02464 0.77767 0.34541 0.0
O503 O 0.04049 0.8137 0.32271 0.0
C504 C 0.2983 0.08602 0.41158 0.0
C505 C 0.31229 0.09945 0.46141 0.0
C506 C 0.30597 0.08677 0.34765 0.0
C507 C 0.32784 0.10118 0.33137 0.0
H508 H 0.2814 0.07452 0.42236 0.0
H509 H 0.29478 0.0758 0.31108 0.0
S510 S 0.36989 0.14233 0.44246 0.0
N511 N 0.34822 0.12904 0.48928 0.0
N512 N 0.36267 0.13097 0.36921 0.0
C513 C 0.34167 0.11543 0.38039 0.0
C514 C 0.3339 0.11442 0.44546 0.0
C515 C 0.90845 0.24877 0.43015 0.0
C516 C 0.90537 0.2598 0.48525 0.0
C517 C 0.90606 0.25527 0.36637 0.0
C518 C 0.90017 0.27283 0.35516 0.0
H519 H 0.91281 0.23501 0.43619 0.0
H520 H 0.90836 0.24611 0.32562 0.0
S521 S 0.89084 0.30765 0.48205 0.0
N522 N 0.89676 0.28971 0.52378 0.0
N523 N 0.89182 0.30152 0.40435 0.0
C524 C 0.89714 0.28407 0.40967 0.0
C525 C 0.89986 0.27768 0.47455 0.0
C526 C 0.7392 0.66866 0.427 0.0
C527 C 0.73644 0.65162 0.47222 0.0
C528 C 0.73548 0.66385 0.36056 0.0
C529 C 0.72911 0.64188 0.33692 0.0
H530 H 0.74381 0.6858 0.44313 0.0
H531 H 0.73755 0.6775 0.32765 0.0
S532 S 0.72138 0.59166 0.43557 0.0
N533 N 0.72793 0.61225 0.48944 0.0
N534 N 0.72126 0.60305 0.36387 0.0
C535 C 0.72673 0.62472 0.38167 0.0
C536 C 0.73031 0.62963 0.44959 0.0
C537 C 0.08271 0.3333 0.02936 0.0
C538 C 0.0731 0.30997 0.01681 0.0
C539 C 0.08716 0.34174 0.09353 0.0
C540 C 0.08195 0.32721 0.14808 0.0
H541 H 0.08673 0.34521 0.98935 0.0
H542 H 0.09445 0.35988 0.10037 0.0
S543 S 0.05792 0.26468 0.14201 0.0
N544 N 0.05958 0.27239 0.06472 0.0
N545 N 0.06759 0.28832 0.18482 0.0
C546 C 0.07271 0.30385 0.13627 0.0
C547 C 0.06841 0.29523 0.07085 0.0
C548 C 0.63 0.76089 0.08993 0.0
C549 C 0.64188 0.75849 0.14346 0.0
C550 C 0.63562 0.75856 0.02542 0.0
C551 C 0.65347 0.75407 0.01237 0.0
H552 H 0.61633 0.76475 0.09774 0.0
H553 H 0.62635 0.76097 0.98576 0.0
S554 S 0.68847 0.74398 0.13402 0.0
N555 N 0.67129 0.74959 0.17829 0.0
N556 N 0.68201 0.7457 0.05718 0.0
C557 C 0.66509 0.75105 0.0651 0.0
C558 C 0.65929 0.75318 0.13064 0.0
C559 C 0.21387 0.92406 0.14119 0.0
C560 C 0.23466 0.92705 0.1617 0.0
C561 C 0.21032 0.92914 0.07678 0.0
C562 C 0.22738 0.93717 0.03048 0.0
H563 H 0.20026 0.91767 0.17502 0.0
H564 H 0.19403 0.92659 0.06298 0.0
S565 S 0.28519 0.94947 0.0619 0.0
N566 N 0.27273 0.93955 0.13219 0.0
N567 N 0.26608 0.94893 0.01114 0.0
C568 C 0.24827 0.94035 0.05076 0.0
C569 C 0.2519 0.93533 0.11642 0.0
C570 C 0.7024 0.94965 0.64208 0.0
C571 C 0.68051 0.93443 0.65519 0.0
C572 C 0.71014 0.95398 0.57766 0.0
C573 C 0.69618 0.94339 0.52449 0.0
H574 H 0.71353 0.95843 0.68162 0.0
H575 H 0.72712 0.96581 0.56943 0.0
S576 S 0.63802 0.9008 0.53283 0.0
N577 N 0.64538 0.9077 0.60954 0.0
N578 N 0.65992 0.91624 0.48914 0.0
C579 C 0.6744 0.92797 0.537 0.0
C580 C 0.66658 0.92336 0.60224 0.0
C581 C 0.05917 0.78941 0.57425 0.0
C582 C 0.0654 0.78081 0.51925 0.0
C583 C 0.06405 0.78521 0.63813 0.0
C584 C 0.07561 0.77247 0.64959 0.0
H585 H 0.05068 0.79977 0.56804 0.0
H586 H 0.05929 0.79257 0.67867 0.0
S587 S 0.09425 0.74466 0.52325 0.0
N588 N 0.08264 0.75776 0.48125 0.0
N589 N 0.09202 0.75013 0.60077 0.0
C590 C 0.0814 0.76324 0.59524 0.0
C591 C 0.07624 0.76732 0.53028 0.0
C592 C 0.26342 0.34974 0.57992 0.0
C593 C 0.24968 0.35344 0.53529 0.0
C594 C 0.26265 0.35395 0.64643 0.0
C595 C 0.24805 0.36187 0.66969 0.0
H596 H 0.27441 0.343 0.56338 0.0
H597 H 0.27356 0.35108 0.67963 0.0
S598 S 0.20787 0.3729 0.57241 0.0
N599 N 0.22072 0.36467 0.51817 0.0
N600 N 0.21918 0.37273 0.64372 0.0
C601 C 0.23434 0.36579 0.62528 0.0
C602 C 0.23519 0.36154 0.55765 0.0
C603 C 0.89831 0.67852 0.90662 0.0
C604 C 0.90666 0.69405 0.85475 0.0
C605 C 0.89778 0.68561 0.97048 0.0
C606 C 0.90551 0.70857 0.98553 0.0
H607 H 0.89207 0.66054 0.89812 0.0
H608 H 0.89127 0.67289 0.00837 0.0
S609 S 0.92904 0.75632 0.86807 0.0
N610 N 0.92276 0.73358 0.82273 0.0
N611 N 0.92181 0.74708 0.94339 0.0
C612 C 0.91369 0.72442 0.93423 0.0
C613 C 0.91424 0.71713 0.86872 0.0
C614 C 0.37317 0.30293 0.97219 0.0
C615 C 0.37411 0.2867 0.0145 0.0
C616 C 0.37258 0.29988 0.9046 0.0
C617 C 0.37321 0.28067 0.87776 0.0
H618 H 0.37065 0.31686 0.99149 0.0
H619 H 0.37106 0.31231 0.87321 0.0
S620 S 0.37908 0.23512 0.96765 0.0
N621 N 0.37784 0.25201 0.02528 0.0
N622 N 0.37779 0.24681 0.89736 0.0
C623 C 0.37637 0.26551 0.91917 0.0
C624 C 0.37665 0.26845 0.98805 0.0
C625 C 0.75043 0.10119 0.87753 0.0
C626 C 0.74025 0.11529 0.86632 0.0
C627 C 0.75476 0.09624 0.94113 0.0
C628 C 0.74889 0.10495 0.99648 0.0
H629 H 0.7553 0.094 0.83682 0.0
H630 H 0.76287 0.0855 0.94689 0.0
S631 S 0.72206 0.14296 0.99468 0.0
N632 N 0.72452 0.13809 0.91676 0.0
N633 N 0.7325 0.12856 0.03591 0.0
C634 C 0.73849 0.11889 0.98624 0.0
C635 C 0.73424 0.12412 0.92136 0.0
C636 C 0.973 0.41688 0.76764 0.0
C637 C 0.98809 0.42758 0.81852 0.0
C638 C 0.97981 0.41779 0.70261 0.0
C639 C 0.002 0.42969 0.68546 0.0
H640 H 0.95564 0.40777 0.77805 0.0
H641 H 0.96751 0.40933 0.66547 0.0
S642 S 0.04805 0.46124 0.79989 0.0
N643 N 0.02618 0.4506 0.84718 0.0
N644 N 0.03912 0.4527 0.72506 0.0
C645 C 0.0173 0.44047 0.73591 0.0
C646 C 0.01034 0.43928 0.80236 0.0
C647 C 0.56153 0.61706 0.73512 0.0
C648 C 0.56302 0.60517 0.67985 0.0
C649 C 0.56483 0.61095 0.79859 0.0
C650 C 0.56926 0.59235 0.80958 0.0
H651 H 0.55793 0.63135 0.72929 0.0
H652 H 0.5637 0.6208 0.83938 0.0
S653 S 0.57339 0.55466 0.68137 0.0
N654 N 0.56855 0.57347 0.64033 0.0
N655 N 0.57421 0.56161 0.75914 0.0
C656 C 0.57041 0.58006 0.75463 0.0
C657 C 0.56746 0.58657 0.68995 0.0
C658 C 0.39433 0.97186 0.78777 0.0
C659 C 0.40513 0.99473 0.80556 0.0
C660 C 0.39053 0.96543 0.72176 0.0
C661 C 0.39698 0.98161 0.67105 0.0
H662 H 0.38907 0.95885 0.82494 0.0
H663 H 0.38232 0.94755 0.71048 0.0
S664 S 0.42552 0.04373 0.69154 0.0
N665 N 0.42219 0.03371 0.76668 0.0
N666 N 0.41453 0.02142 0.64337 0.0
C667 C 0.40752 0.0045 0.68818 0.0
C668 C 0.41174 0.01109 0.7552 0.0
C669 C 0.56592 0.00883 0.31476 0.0
C670 C 0.57632 0.03202 0.32864 0.0
C671 C 0.56346 0.00102 0.25057 0.0
C672 C 0.5714 0.01606 0.1975 0.0
H673 H 0.55935 0.99653 0.3537 0.0
H674 H 0.55519 0.98292 0.24273 0.0
S675 S 0.60102 0.07853 0.2079 0.0
N676 N 0.59534 0.07012 0.28448 0.0
N677 N 0.59076 0.05528 0.16321 0.0
C678 C 0.58203 0.03935 0.21054 0.0
C679 C 0.5845 0.04736 0.27627 0.0
C680 C 0.99707 0.59634 0.25733 0.0
C681 C 0.01152 0.6036 0.3111 0.0
C682 C 0.00472 0.60181 0.1933 0.0
C683 C 0.02712 0.61468 0.18058 0.0
H684 H 0.97964 0.58625 0.26453 0.0
H685 H 0.99303 0.59548 0.15351 0.0
S686 S 0.07164 0.63909 0.30403 0.0
N687 N 0.04921 0.62521 0.34737 0.0
N688 N 0.06365 0.63548 0.22695 0.0
C689 C 0.04174 0.62241 0.23385 0.0
C690 C 0.03393 0.61686 0.29912 0.0
C691 C 0.3858 0.44553 0.23264 0.0
C692 C 0.40225 0.45284 0.18458 0.0
C693 C 0.39034 0.44154 0.29717 0.0
C694 C 0.4115 0.44494 0.31535 0.0
H695 H 0.36928 0.44248 0.21993 0.0
H696 H 0.37715 0.43527 0.33248 0.0
S697 S 0.46091 0.46814 0.21004 0.0
N698 N 0.44078 0.46588 0.16097 0.0
N699 N 0.44952 0.45884 0.28193 0.0
C700 C 0.42823 0.45337 0.26822 0.0
C701 C 0.42355 0.4572 0.20282 0.0
C702 C 0.31989 0.19096 0.12417 0.0
C703 C 0.33216 0.207 0.1713 0.0
C704 C 0.32047 0.17017 0.1211 0.0
C705 C 0.3333 0.16489 0.16519 0.0
H706 H 0.30893 0.19407 0.0918 0.0
H707 H 0.30988 0.15765 0.08644 0.0
S708 S 0.36967 0.20193 0.29411 0.0
N709 N 0.35873 0.21717 0.25969 0.0
N710 N 0.35965 0.17766 0.25414 0.0
C711 C 0.34683 0.18135 0.2095 0.0
C712 C 0.3463 0.20263 0.21253 0.0
C713 C 0.83663 0.18178 0.20376 0.0
C714 C 0.81588 0.16747 0.17791 0.0
C715 C 0.84544 0.2053 0.19837 0.0
C716 C 0.83397 0.21576 0.1667 0.0
H717 H 0.8463 0.17482 0.22854 0.0
H718 H 0.86161 0.21531 0.21865 0.0
S719 S 0.77854 0.1862 0.09258 0.0
N720 N 0.7837 0.16567 0.1208 0.0
N721 N 0.80035 0.20989 0.11065 0.0
C722 C 0.81305 0.20173 0.14131 0.0
C723 C 0.80401 0.17767 0.14682 0.0
C724 C 0.82947 0.68654 0.1386 0.0
C725 C 0.83678 0.70277 0.18961 0.0
C726 C 0.80706 0.67138 0.13005 0.0
C727 C 0.791 0.67172 0.17229 0.0
H728 H 0.8411 0.6857 0.10413 0.0
H729 H 0.80222 0.65995 0.08871 0.0
S730 S 0.80091 0.70903 0.31645 0.0
N731 N 0.82554 0.71678 0.28536 0.0
N732 N 0.78387 0.68864 0.26864 0.0
C733 C 0.79804 0.68726 0.22435 0.0
C734 C 0.82074 0.70263 0.23324 0.0
C735 C 0.16009 0.33558 0.34691 0.0
C736 C 0.14452 0.32523 0.29736 0.0
C737 C 0.17843 0.33127 0.35312 0.0
C738 C 0.18178 0.31644 0.31 0.0
H739 H 0.15754 0.34613 0.38305 0.0
H740 H 0.18972 0.33919 0.39307 0.0
S741 S 0.1472 0.2879 0.16603 0.0
N742 N 0.13468 0.30146 0.2006 0.0
N743 N 0.16902 0.29352 0.21155 0.0
C744 C 0.16686 0.30705 0.25808 0.0
C745 C 0.14829 0.31143 0.25192 0.0
C746 C 0.67019 0.84084 0.28741 0.0
C747 C 0.65759 0.83389 0.34499 0.0
C748 C 0.68836 0.86227 0.28254 0.0
C749 C 0.69488 0.87755 0.33537 0.0
H750 H 0.66568 0.82979 0.24519 0.0
H751 H 0.69684 0.8672 0.23624 0.0
S752 S 0.66939 0.8663 0.5001 0.0
N753 N 0.65427 0.84329 0.45781 0.0
N754 N 0.68836 0.8832 0.4492 0.0
C755 C 0.68298 0.87035 0.39413 0.0
C756 C 0.66439 0.84869 0.39879 0.0
C757 C 0.15985 0.86091 0.31952 0.0
C758 C 0.16826 0.88356 0.34035 0.0
C759 C 0.13697 0.84679 0.31771 0.0
C760 C 0.12183 0.85494 0.33614 0.0
H761 H 0.17086 0.85445 0.3014 0.0
H762 H 0.13106 0.8298 0.29861 0.0
S763 S 0.13539 0.91149 0.40419 0.0
N764 N 0.1594 0.91224 0.38795 0.0
N765 N 0.11693 0.88606 0.38222 0.0
C766 C 0.1301 0.87698 0.36047 0.0
C767 C 0.15315 0.89116 0.36328 0.0
C768 C 0.65953 0.85106 0.80285 0.0
C769 C 0.65498 0.8592 0.86144 0.0
C770 C 0.66316 0.83175 0.80292 0.0
C771 C 0.66269 0.82051 0.86163 0.0
H772 H 0.65869 0.85861 0.7566 0.0
H773 H 0.66449 0.82454 0.75661 0.0
S774 S 0.65621 0.8381 0.02843 0.0
N775 N 0.65376 0.85684 0.98 0.0
N776 N 0.66048 0.82055 0.97978 0.0
C777 C 0.66035 0.82985 0.92065 0.0
C778 C 0.65652 0.84927 0.92065 0.0
C779 C 0.14039 0.87314 0.82106 0.0
C780 C 0.16332 0.88582 0.81999 0.0
C781 C 0.13063 0.84939 0.82616 0.0
C782 C 0.14348 0.8376 0.83018 0.0
H783 H 0.13 0.88163 0.82002 0.0
H784 H 0.11294 0.8403 0.82917 0.0
S785 S 0.20399 0.8627 0.81792 0.0
N786 N 0.19842 0.88455 0.81542 0.0
N787 N 0.18011 0.84026 0.82509 0.0
C788 C 0.16632 0.85006 0.82571 0.0
C789 C 0.17621 0.87407 0.82057 0.0
C790 C 0.14325 0.31449 0.92684 0.0
C791 C 0.1325 0.30819 0.86598 0.0
C792 C 0.16556 0.32973 0.93094 0.0
C793 C 0.17824 0.33831 0.87441 0.0
H794 H 0.13368 0.31049 0.97136 0.0
H795 H 0.17257 0.33599 0.97862 0.0
S796 S 0.15966 0.32105 0.70428 0.0
N797 N 0.13731 0.30772 0.7487 0.0
N798 N 0.1797 0.3351 0.75647 0.0
C799 C 0.16866 0.32901 0.81389 0.0
C800 C 0.14569 0.31398 0.80972 0.0
C801 C 0.81114 0.66284 0.64818 0.0
C802 C 0.79218 0.64367 0.6673 0.0
C803 C 0.83178 0.66319 0.65354 0.0
C804 C 0.83391 0.64437 0.67805 0.0
H805 H 0.80991 0.67712 0.62598 0.0
H806 H 0.84597 0.67774 0.63514 0.0
S807 S 0.78987 0.59213 0.74624 0.0
N808 N 0.7772 0.60686 0.7202 0.0
N809 N 0.81605 0.60755 0.7293 0.0
C810 C 0.81532 0.62584 0.7013 0.0
C811 C 0.79439 0.62549 0.6962 0.0
C812 C 0.35394 0.19479 0.66589 0.0
C813 C 0.35021 0.21334 0.64917 0.0
C814 C 0.3367 0.17282 0.66651 0.0
C815 C 0.31506 0.16852 0.65025 0.0
H816 H 0.37017 0.19732 0.68034 0.0
H817 H 0.34028 0.15908 0.68131 0.0
S818 S 0.29756 0.21086 0.59066 0.0
N819 N 0.32388 0.22576 0.60766 0.0
N820 N 0.29146 0.18437 0.60925 0.0
C821 C 0.31127 0.18679 0.6305 0.0
C822 C 0.32887 0.20922 0.62973 0.0
C823 C 0.80516 0.18209 0.693 0.0
C824 C 0.79164 0.18359 0.64252 0.0
C825 C 0.82822 0.1946 0.69082 0.0
C826 C 0.83859 0.20884 0.63769 0.0
H827 H 0.79787 0.17168 0.73546 0.0
H828 H 0.83783 0.19405 0.73237 0.0
S829 S 0.81145 0.2167 0.48925 0.0
N830 N 0.79108 0.19914 0.53497 0.0
N831 N 0.83395 0.22222 0.53121 0.0
C832 C 0.82542 0.20948 0.58557 0.0
C833 C 0.80212 0.19703 0.58787 0.0
C834 C 1.00051 0.50417 0.47948 0.0
C835 C 0.99654 0.49086 0.53616 0.0
C836 C 0.99474 0.52221 0.47639 0.0
C837 C 0.98447 0.52725 0.52949 0.0
H838 H 0.00682 0.49977 0.43607 0.0
H839 H 0.99747 0.5316 0.43121 0.0
S840 S 0.97365 0.49941 0.69213 0.0
N841 N 0.98409 0.48558 0.64863 0.0
N842 N 0.97319 0.51899 0.64301 0.0
C843 C 0.98175 0.51486 0.58757 0.0
C844 C 0.98781 0.49683 0.59083 0.0
C845 C 0.49554 0.51538 0.5397 0.0
C846 C 0.47696 0.5013 0.50302 0.0
C847 C 0.50487 0.539 0.53403 0.0
C848 C 0.49603 0.54963 0.49149 0.0
H849 H 0.50291 0.50817 0.57358 0.0
H850 H 0.51923 0.54897 0.56331 0.0
S851 S 0.44766 0.5205 0.38309 0.0
N852 N 0.45021 0.49987 0.42151 0.0
N853 N 0.46765 0.54405 0.41132 0.0
C854 C 0.47741 0.53575 0.45454 0.0
C855 C 0.46794 0.5117 0.4601 0.0
C856 C 0.49516 0.01346 0.57498 0.0
C857 C 0.50813 0.02664 0.52311 0.0
C858 C 0.47252 0.99933 0.56691 0.0
C859 C 0.46188 0.9978 0.50669 0.0
H860 H 0.50243 0.01458 0.62278 0.0
H861 H 0.46295 0.991 0.60956 0.0
S862 S 0.48858 0.02852 0.35525 0.0
N863 N 0.50886 0.03641 0.40866 0.0
N864 N 0.4664 0.01061 0.39416 0.0
C865 C 0.47497 0.0101 0.45379 0.0
C866 C 0.49803 0.02429 0.46178 0.0
C867 C 0.46737 0.97342 0.92716 0.0
C868 C 0.46234 0.98552 0.9752 0.0
C869 C 0.48522 0.9686 0.93436 0.0
C870 C 0.49866 0.97558 0.99017 0.0
H871 H 0.45715 0.96723 0.88406 0.0
H872 H 0.4885 0.95939 0.89562 0.0
S873 S 0.49232 0.00784 0.13025 0.0
N874 N 0.47208 0.00454 0.08018 0.0
N875 N 0.5059 0.99563 0.09408 0.0
C876 C 0.49412 0.98822 0.03803 0.0
C877 C 0.47589 0.99317 0.03044 0.0
C878 C 0.00602 0.543 0.01722 0.0
C879 C 0.02644 0.54862 0.98724 0.0
C880 C 0.98918 0.5208 0.0176 0.0
C881 C 0.99185 0.50293 0.98838 0.0
H882 H 0.00273 0.55593 0.04016 0.0
H883 H 0.974 0.51767 0.0419 0.0
S884 S 0.042 0.50815 0.90307 0.0
N885 N 0.04822 0.53414 0.92718 0.0
N886 N 0.01672 0.49244 0.92821 0.0
C887 C 0.01218 0.50819 0.95821 0.0
C888 C 0.02937 0.53093 0.95762 0.0
C889 C 0.47072 0.51323 0.96738 0.0
C890 C 0.45602 0.52183 0.98663 0.0
C891 C 0.49364 0.52697 0.968 0.0
C892 C 0.50251 0.54967 0.98846 0.0
H893 H 0.46442 0.49611 0.94902 0.0
H894 H 0.50432 0.52013 0.94959 0.0
S895 S 0.47086 0.57864 0.05453 0.0
N896 N 0.45195 0.55336 0.03316 0.0
N897 N 0.49458 0.5789 0.03683 0.0
C898 C 0.48783 0.55775 0.01208 0.0
C899 C 0.46471 0.54394 0.01041 0.0
C900 C 0.38457 0.06143 0.00396 0.0
C901 C 0.40456 0.06245 0.02628 0.0
C902 C 0.37516 0.07379 0.03421 0.0
C903 C 0.38559 0.08803 0.08689 0.0
H904 H 0.37536 0.04997 0.96512 0.0
H905 H 0.35911 0.07141 0.01813 0.0
S906 S 0.43919 0.09922 0.15913 0.0
N907 N 0.43538 0.08051 0.10087 0.0
N908 N 0.41757 0.10431 0.15712 0.0
C909 C 0.40625 0.0907 0.10686 0.0
C910 C 0.41585 0.07782 0.0764 0.0
C911 C 0.89523 0.33907 0.04857 0.0
C912 C 0.8936 0.33892 0.11689 0.0
C913 C 0.90553 0.35942 0.01382 0.0
C914 C 0.91413 0.38046 0.04581 0.0
H915 H 0.89037 0.32352 0.0221 0.0
H916 H 0.90856 0.3586 0.96215 0.0
S917 S 0.90959 0.38912 0.22306 0.0
N918 N 0.8987 0.36139 0.21459 0.0
N919 N 0.91666 0.39966 0.14885 0.0
C920 C 0.91012 0.3805 0.11316 0.0
C921 C 0.90026 0.35971 0.14887 0.0
C922 C 0.66427 0.5818 0.02985 0.0
C923 C 0.66791 0.58542 0.09744 0.0
C924 C 0.64313 0.57473 0.00289 0.0
C925 C 0.62479 0.57039 0.04263 0.0
H926 H 0.67808 0.58662 0.99708 0.0
H927 H 0.64139 0.5742 0.95023 0.0
S928 S 0.6254 0.57599 0.22262 0.0
N929 N 0.65119 0.58316 0.20351 0.0
N930 N 0.61164 0.56912 0.15308 0.0
C931 C 0.628 0.57224 0.11049 0.0
C932 C 0.6495 0.57993 0.13777 0.0
C933 C 0.0731 0.4275 0.39365 0.0
C934 C 0.05888 0.41763 0.44679 0.0
C935 C 0.08462 0.41657 0.36446 0.0
C936 C 0.08244 0.39569 0.38827 0.0
H937 H 0.07434 0.44299 0.37214 0.0
H938 H 0.09425 0.42384 0.32105 0.0
S939 S 0.04904 0.36371 0.52926 0.0
N940 N 0.04487 0.38641 0.52463 0.0
N941 N 0.06619 0.36629 0.4696 0.0
C942 C 0.06932 0.38641 0.4433 0.0
C943 C 0.05766 0.3973 0.47272 0.0
C944 C 0.56536 0.69211 0.34315 0.0
C945 C 0.57131 0.71332 0.37241 0.0
C946 C 0.55651 0.67219 0.37965 0.0
C947 C 0.55305 0.67242 0.44685 0.0
H948 H 0.56969 0.69106 0.29277 0.0
H949 H 0.55414 0.65686 0.35579 0.0
S950 S 0.55793 0.72208 0.54226 0.0
N951 N 0.56696 0.73241 0.4688 0.0
N952 N 0.55127 0.69479 0.53862 0.0
C953 C 0.55599 0.69297 0.47517 0.0
C954 C 0.5647 0.71345 0.4374 0.0
C955 C 0.29481 0.9027 0.4516 0.0
C956 C 0.29181 0.90585 0.38508 0.0
C957 C 0.31588 0.90848 0.4772 0.0
C958 C 0.33468 0.91701 0.4371 0.0
H959 H 0.2812 0.89789 0.48515 0.0
H960 H 0.31773 0.90815 0.52972 0.0
S961 S 0.33517 0.92568 0.25828 0.0
N962 N 0.30913 0.9162 0.27867 0.0
N963 N 0.3484 0.92632 0.32656 0.0
C964 C 0.33153 0.91819 0.36968 0.0
C965 C 0.3102 0.91284 0.3438 0.0
C966 C 0.58695 0.94264 0.93585 0.0
C967 C 0.59791 0.96204 0.9747 0.0
C968 C 0.5986 0.93507 0.89447 0.0
C969 C 0.62149 0.94683 0.89007 0.0
H970 H 0.56925 0.93345 0.93639 0.0
H971 H 0.58963 0.92012 0.86502 0.0
S972 S 0.65811 0.99675 0.98766 0.0
N973 N 0.63315 0.99146 0.0109 0.0
N974 N 0.65492 0.97752 0.93185 0.0
C975 C 0.63271 0.96578 0.93009 0.0
C976 C 0.62093 0.97327 0.97291 0.0
C977 C 0.10397 0.71489 0.94025 0.0
C978 C 0.09882 0.71532 0.87397 0.0
C979 C 0.09948 0.69436 0.97165 0.0
C980 C 0.09038 0.67368 0.93747 0.0
H981 H 0.1096 0.73007 0.96944 0.0
H982 H 0.10117 0.69441 0.02431 0.0
S983 S 0.07893 0.66689 0.75957 0.0
N984 N 0.08717 0.6941 0.77305 0.0
N985 N 0.08037 0.65595 0.83089 0.0
C986 C 0.08794 0.67452 0.86949 0.0
C987 C 0.09168 0.69524 0.83802 0.0
C988 C 0.33256 0.45642 0.89235 0.0
C989 C 0.33559 0.45561 0.95992 0.0
C990 C 0.31159 0.44503 0.86438 0.0
C991 C 0.29285 0.43287 0.90297 0.0
H992 H 0.34653 0.46389 0.86026 0.0
H993 H 0.31033 0.44383 0.8116 0.0
S994 S 0.2919 0.43049 0.08388 0.0
N995 N 0.31811 0.44474 0.06562 0.0
N996 N 0.27864 0.42474 0.01345 0.0
C997 C 0.2955 0.43462 0.97113 0.0
C998 C 0.31692 0.44557 0.99949 0.0
C999 C 0.92465 0.61751 0.60808 0.0
C1000 C 0.93588 0.64034 0.62694 0.0
C1001 C 0.93441 0.60766 0.56718 0.0
C1002 C 0.95569 0.62031 0.54303 0.0
H1003 H 0.90809 0.60714 0.62473 0.0
H1004 H 0.92517 0.59 0.55423 0.0
S1005 S 0.99242 0.68067 0.57963 0.0
N1006 N 0.96966 0.67522 0.61977 0.0
N1007 N 0.98804 0.65686 0.54259 0.0
C1008 C 0.96722 0.64316 0.56198 0.0
C1009 C 0.95732 0.65312 0.60415 0.0
C1010 C 0.43341 0.36721 0.54569 0.0
C1011 C 0.42082 0.37924 0.54928 0.0
C1012 C 0.42848 0.34805 0.58547 0.0
C1013 C 0.41137 0.34102 0.63145 0.0
H1014 H 0.44665 0.37221 0.51076 0.0
H1015 H 0.43803 0.33875 0.58024 0.0
S1016 S 0.37333 0.36709 0.65734 0.0
N1017 N 0.3902 0.38241 0.59972 0.0
N1018 N 0.38149 0.34781 0.67599 0.0
C1019 C 0.39887 0.35332 0.63515 0.0
C1020 C 0.40348 0.37209 0.59373 0.0
C1021 C 0.63409 0.08122 0.62867 0.0
C1022 C 0.62804 0.09345 0.58357 0.0
C1023 C 0.65466 0.09054 0.65858 0.0
C1024 C 0.67069 0.11246 0.64346 0.0
H1025 H 0.62343 0.06356 0.63749 0.0
H1026 H 0.65836 0.07982 0.69133 0.0
S1027 S 0.6631 0.15213 0.52952 0.0
N1028 N 0.63944 0.12909 0.52658 0.0
N1029 N 0.67862 0.14682 0.58226 0.0
C1030 C 0.66467 0.12545 0.60049 0.0
C1031 C 0.6433 0.11588 0.57044 0.0
C1032 C 0.69409 0.71712 0.73119 0.0
C1033 C 0.70719 0.73631 0.768 0.0
C1034 C 0.70312 0.70468 0.69957 0.0
C1035 C 0.72563 0.71069 0.70441 0.0
H1036 H 0.67654 0.7114 0.72758 0.0
H1037 H 0.69206 0.6897 0.67319 0.0
S1038 S 0.76711 0.76049 0.79224 0.0
N1039 N 0.74377 0.76179 0.805 0.0
N1040 N 0.76105 0.73788 0.74646 0.0
C1041 C 0.73911 0.73034 0.73945 0.0
C1042 C 0.72981 0.74334 0.77096 0.0
C1043 C 0.25246 0.01837 0.77999 0.0
C1044 C 0.23017 0.00854 0.79663 0.0
C1045 C 0.26163 0.03694 0.7391 0.0
C1046 C 0.24935 0.04732 0.71283 0.0
H1047 H 0.26314 0.01126 0.7968 0.0
H1048 H 0.2787 0.04281 0.72646 0.0
S1049 S 0.19025 0.02904 0.74194 0.0
N1050 N 0.19568 0.01079 0.78427 0.0
N1051 N 0.21352 0.04675 0.70729 0.0
C1052 C 0.22707 0.03831 0.72992 0.0
C1053 C 0.21736 0.01865 0.77154 0.0
C1054 C 1.00138 0.2707 0.74241 0.0
C1055 C 0.00615 0.25452 0.7735 0.0
C1056 C 0.98142 0.26509 0.71223 0.0
C1057 C 0.96428 0.24296 0.71358 0.0
H1058 H 0.01308 0.2884 0.74319 0.0
H1059 H 0.97932 0.27888 0.69006 0.0
S1060 S 0.96777 0.19376 0.79047 0.0
N1061 N 0.99223 0.21501 0.80391 0.0
N1062 N 0.95351 0.20428 0.74921 0.0
C1063 C 0.96859 0.22621 0.74432 0.0
C1064 C 0.98972 0.23201 0.77392 0.0
C1065 C 0.31132 0.31433 0.24576 0.0
C1066 C 0.30164 0.2938 0.21147 0.0
C1067 C 0.30025 0.31865 0.29688 0.0
C1068 C 0.27909 0.30263 0.31515 0.0
H1069 H 0.32784 0.32684 0.23479 0.0
H1070 H 0.30822 0.33488 0.3212 0.0
S1071 S 0.24679 0.24632 0.24048 0.0
N1072 N 0.26966 0.25759 0.19783 0.0
N1073 N 0.24922 0.26529 0.29627 0.0
C1074 C 0.26936 0.28201 0.28155 0.0
C1075 C 0.28044 0.27782 0.22862 0.0
C1076 C 0.76354 0.02321 0.32357 0.0
C1077 C 0.76037 0.00346 0.28947 0.0
C1078 C 0.76854 0.04351 0.29087 0.0
C1079 C 0.7708 0.04496 0.22282 0.0
H1080 H 0.75984 0.02235 0.37526 0.0
H1081 H 0.76879 0.05751 0.31862 0.0
S1082 S 0.76985 1.00014 0.11252 0.0
N1083 N 0.7643 0.9881 0.18534 0.0
N1084 N 0.7732 0.02627 0.12332 0.0
C1085 C 0.77014 0.02621 0.18884 0.0
C1086 C 0.76525 0.00548 0.22245 0.0
C1087 C 1.00001 0.78323 0.22107 0.0
C1088 C 0.00253 0.79134 0.28526 0.0
C1089 C 0.97961 0.77415 0.18975 0.0
C1090 C 0.96053 0.77229 0.22148 0.0
H1091 H 0.01353 0.78232 0.19616 0.0
H1092 H 0.97851 0.76694 0.14157 0.0
S1093 S 0.95878 0.79358 0.38775 0.0
N1094 N 0.9847 0.79891 0.37808 0.0
N1095 N 0.94613 0.78188 0.31882 0.0
C1096 C 0.96307 0.782 0.28398 0.0
C1097 C 0.98408 0.79133 0.31614 0.0
C1098 C 0.31269 0.11392 0.9517 0.0
C1099 C 0.31247 0.09408 0.97664 0.0
C1100 C 0.30905 0.11588 0.88536 0.0
C1101 C 0.30511 0.0981 0.84147 0.0
H1102 H 0.31484 0.1277 0.98422 0.0
H1103 H 0.30791 0.13092 0.86889 0.0
S1104 S 0.30573 0.04375 0.88198 0.0
N1105 N 0.3102 0.05718 0.95265 0.0
N1106 N 0.30346 0.06091 0.82697 0.0
C1107 C 0.30648 0.07881 0.86512 0.0
C1108 C 0.3101 0.07677 0.93317 0.0
C1109 C 0.91077 0.2975 0.93463 0.0
C1110 C 0.90178 0.27887 0.977 0.0
C1111 C 0.91426 0.29473 0.86854 0.0
C1112 C 0.90893 0.27322 0.84253 0.0
H1113 H 0.91346 0.31407 0.95138 0.0
H1114 H 0.91992 0.30936 0.83682 0.0
S1115 S 0.88712 0.21936 0.93541 0.0
N1116 N 0.88931 0.23857 0.99026 0.0
N1117 N 0.8962 0.23322 0.86618 0.0
C1118 C 0.90179 0.25473 0.88587 0.0
C1119 C 0.8981 0.2576 0.95317 0.0
C1120 C 0.70036 0.64148 0.9148 0.0
C1121 C 0.71469 0.63704 0.9552 0.0
C1122 C 0.69943 0.63735 0.84748 0.0
C1123 C 0.71228 0.62804 0.81898 0.0
H1124 H 0.69045 0.64901 0.93478 0.0
H1125 H 0.68942 0.64249 0.81702 0.0
S1126 S 0.75172 0.61242 0.90252 0.0
N1127 N 0.74152 0.62197 0.96124 0.0
N1128 N 0.73925 0.61402 0.83496 0.0
C1129 C 0.72578 0.62243 0.8589 0.0
C1130 C 0.7271 0.62696 0.92707 0.0
C1131 C 0.09492 0.33566 0.61711 0.0
C1132 C 0.07569 0.32192 0.65152 0.0
C1133 C 0.0956 0.33519 0.54843 0.0
C1134 C 0.07711 0.3209 0.51144 0.0
H1135 H 0.10972 0.34644 0.64345 0.0
H1136 H 0.11085 0.34581 0.52411 0.0
S1137 S 0.02225 0.28348 0.57705 0.0
N1138 N 0.03743 0.29472 0.64247 0.0
N1139 N 0.03871 0.29404 0.51394 0.0
C1140 C 0.05774 0.30749 0.54498 0.0
C1141 C 0.05704 0.30795 0.61478 0.0
C1142 C 0.6198 0.73001 0.62473 0.0
C1143 C 0.63902 0.74559 0.6555 0.0
C1144 C 0.61661 0.73153 0.55771 0.0
C1145 C 0.63231 0.74888 0.51961 0.0
H1146 H 0.60671 0.71727 0.65306 0.0
H1147 H 0.601 0.72018 0.53651 0.0
S1148 S 0.68616 0.79262 0.5749 0.0
N1149 N 0.67497 0.77767 0.64109 0.0
N1150 N 0.66829 0.78071 0.51542 0.0
C1151 C 0.65226 0.76339 0.54834 0.0
C1152 C 0.65574 0.76175 0.61643 0.0
C1153 C 0.23939 0.97278 0.60477 0.0
C1154 C 0.23395 0.95547 0.65138 0.0
C1155 C 0.243 0.9694 0.53914 0.0
C1156 C 0.24125 0.94848 0.51699 0.0
H1157 H 0.2393 0.9886 0.61827 0.0
H1158 H 0.24593 0.98292 0.50483 0.0
S1159 S 0.22941 0.89829 0.62109 0.0
N1160 N 0.22867 0.91725 0.67224 0.0
N1161 N 0.23557 0.91077 0.54897 0.0
C1162 C 0.23756 0.93159 0.56425 0.0
C1163 C 0.23389 0.93512 0.6314 0.0
C1164 C 0.67943 0.92206 0.13955 0.0
C1165 C 0.69586 0.94385 0.15189 0.0
C1166 C 0.66783 0.91714 0.08093 0.0
C1167 C 0.67244 0.93382 0.03273 0.0
H1168 H 0.67613 0.90854 0.17428 0.0
H1169 H 0.65544 0.89997 0.07263 0.0
S1170 S 0.7135 0.99375 0.04383 0.0
N1171 N 0.71591 0.98246 0.11361 0.0
N1172 N 0.69413 0.97308 0.00189 0.0
C1173 C 0.68877 0.95575 0.04473 0.0
C1174 C 0.70049 0.96081 0.10496 0.0
C1175 C 0.07674 0.77328 0.14771 0.0
C1176 C 0.06156 0.78215 0.14228 0.0
C1177 C 0.08474 0.76711 0.09202 0.0
C1178 C 0.07786 0.7695 0.0285 0.0
H1179 H 0.08369 0.77256 0.1948 0.0
H1180 H 0.09735 0.76158 0.09893 0.0
S1181 S 0.03443 0.78699 0.98972 0.0
N1182 N 0.03709 0.7894 0.06989 0.0
N1183 N 0.05212 0.77786 0.9651 0.0
C1184 C 0.06099 0.77615 0.02311 0.0
C1185 C 0.05289 0.78251 0.07999 0.0
C1186 C 0.25837 0.36457 0.16778 0.0
C1187 C 0.26381 0.34655 0.16803 0.0
C1188 C 0.25535 0.37341 0.10946 0.0
C1189 C 0.25805 0.36497 0.04852 0.0
H1190 H 0.25427 0.37054 0.21257 0.0
H1191 H 0.24967 0.38627 0.11302 0.0
S1192 S 0.27919 0.32267 0.02419 0.0
N1193 N 0.27656 0.32371 0.10417 0.0
N1194 N 0.27133 0.34094 0.99281 0.0
C1195 C 0.26634 0.34897 0.04816 0.0
C1196 C 0.26921 0.33968 0.10838 0.0
C1197 C 0.92415 0.70083 0.46784 0.0
C1198 C 0.90579 0.68001 0.4781 0.0
C1199 C 0.92634 0.71287 0.40962 0.0
C1200 C 0.91033 0.70429 0.36016 0.0
H1201 H 0.93669 0.70793 0.50514 0.0
H1202 H 0.94031 0.72926 0.40392 0.0
S1203 S 0.85826 0.6518 0.36646 0.0
N1204 N 0.87073 0.65209 0.43592 0.0
N1205 N 0.8751 0.67466 0.32664 0.0
C1206 C 0.89204 0.6835 0.36976 0.0
C1207 C 0.8897 0.67137 0.42886 0.0
C1208 C 0.37428 0.29274 0.44431 0.0
C1209 C 0.36214 0.29202 0.50088 0.0
C1210 C 0.36531 0.29021 0.38252 0.0
C1211 C 0.34393 0.28737 0.3739 0.0
H1212 H 0.39056 0.29377 0.44719 0.0
H1213 H 0.37479 0.28885 0.34185 0.0
S1214 S 0.30832 0.29315 0.50202 0.0
N1215 N 0.32972 0.29412 0.5427 0.0
N1216 N 0.31278 0.28998 0.4242 0.0
C1217 C 0.33261 0.28988 0.4285 0.0
C1218 C 0.34178 0.29219 0.4926 0.0
C1219 C 0.72396 0.09861 0.43665 0.0
C1220 C 0.73682 0.1113 0.48955 0.0
C1221 C 0.73375 0.09488 0.38015 0.0
C1222 C 0.75671 0.10409 0.37445 0.0
H1223 H 0.7063 0.09188 0.43857 0.0
H1224 H 0.72332 0.0849 0.34069 0.0
S1225 S 0.79741 0.14182 0.49533 0.0
N1226 N 0.77345 0.13474 0.53014 0.0
N1227 N 0.79186 0.12848 0.42456 0.0
C1228 C 0.76961 0.11733 0.42669 0.0
C1229 C 0.75967 0.12075 0.48404 0.0
C1230 C 0.98403 0.42183 0.21585 0.0
C1231 C 0.97097 0.43282 0.20097 0.0
C1232 C 0.98751 0.4173 0.28126 0.0
C1233 C 0.9774 0.4229 0.3335 0.0
H1234 H 0.99136 0.41645 0.17692 0.0
H1235 H 0.99788 0.40912 0.29098 0.0
S1236 S 0.94383 0.45407 0.32287 0.0
N1237 N 0.94987 0.45127 0.24663 0.0
N1238 N 0.95545 0.44151 0.36685 0.0
C1239 C 0.96481 0.43427 0.31946 0.0
C1240 C 0.96186 0.43956 0.25401 0.0
C1241 C 0.57664 0.63082 0.19367 0.0
C1242 C 0.5734 0.60983 0.16786 0.0
C1243 C 0.57195 0.63302 0.25919 0.0
C1244 C 0.56379 0.61436 0.30169 0.0
H1245 H 0.58167 0.64543 0.1621 0.0
H1246 H 0.57331 0.64917 0.27527 0.0
S1247 S 0.55428 0.55613 0.26094 0.0
N1248 N 0.56328 0.57033 0.19218 0.0
N1249 N 0.55419 0.57461 0.31507 0.0
C1250 C 0.56202 0.59368 0.27817 0.0
C1251 C 0.56693 0.59139 0.21135 0.0
C1252 C 0.41179 0.99167 0.27506 0.0
C1253 C 0.39421 0.99304 0.3072 0.0
C1254 C 0.41107 0.98756 0.20761 0.0
C1255 C 0.39259 0.98424 0.17004 0.0
H1256 H 0.4261 0.99352 0.30252 0.0
H1257 H 0.42519 0.9872 0.18448 0.0
S1258 S 0.34211 0.9856 0.23114 0.0
N1259 N 0.35762 0.99015 0.29696 0.0
N1260 N 0.3564 0.98282 0.16967 0.0
C1261 C 0.37488 0.98548 0.20154 0.0
C1262 C 0.37562 0.98967 0.27037 0.0
C1263 C 0.59091 0.0241 0.81117 0.0
C1264 C 0.57158 0.00419 0.82137 0.0
C1265 C 0.59395 0.03638 0.75305 0.0
C1266 C 0.57786 0.02887 0.70359 0.0
H1267 H 0.60359 0.03023 0.84828 0.0
H1268 H 0.6087 0.05209 0.74743 0.0
S1269 S 0.5233 0.97959 0.7111 0.0
N1270 N 0.53539 0.9787 0.78024 0.0
N1271 N 0.5414 0.00162 0.67086 0.0
C1272 C 0.55848 0.00915 0.71362 0.0
C1273 C 0.55526 0.99684 0.77271 0.0
C1274 C 0.02197 0.60079 0.68854 0.0
C1275 C 0.00617 0.60874 0.68327 0.0
C1276 C 0.03289 0.60251 0.74707 0.0
C1277 C 0.02872 0.61258 0.80262 0.0
H1278 H 0.02506 0.59197 0.64827 0.0
H1279 H 0.04438 0.59532 0.74881 0.0
S1280 S 0.99072 0.63878 0.81051 0.0
N1281 N 0.98776 0.62853 0.73557 0.0
N1282 N 0.00911 0.6326 0.84642 0.0
C1283 C 0.01366 0.62163 0.79708 0.0
C1284 C 0.00221 0.61955 0.73712 0.0
C1285 C 0.42109 0.43472 0.75538 0.0
C1286 C 0.41112 0.43315 0.69366 0.0
C1287 C 0.41318 0.44053 0.81184 0.0
C1288 C 0.39496 0.44503 0.80909 0.0
H1289 H 0.43595 0.43271 0.76 0.0
H1290 H 0.42238 0.44312 0.85686 0.0
S1291 S 0.3598 0.43827 0.66424 0.0
N1292 N 0.37972 0.43292 0.63634 0.0
N1293 N 0.36496 0.44399 0.74271 0.0
C1294 C 0.3836 0.44151 0.74942 0.0
C1295 C 0.39162 0.43552 0.69171 0.0
loop_
_geom_bond_atom_site_label_1
_geom_bond_atom_site_label_2
_geom_bond_distance
_geom_bond_site_symmetry_2
_ccdc_geom_bond_type
Co0 O1 2.216 . S
Co0 O2 2.091 . S
Co0 O4 2.004 . S
Co0 O10 2.021 . S
Co0 O12 2.137 . S
Co0 O13 2.244 . S
O1 Co0 2.216 . S
O1 C8 1.247 . S
O2 Co0 2.091 . S
O2 C8 1.261 . S
C3 O12 1.247 . S
C3 O13 1.272 . S
O4 Co0 2.004 . S
O4 C9 1.259 . S
Co5 O6 2.061 . S
Co5 O11 2.052 . S
Co5 O13 2.135 . S
O6 Co5 2.061 . S
O6 C9 1.235 . S
C7 O10 1.238 . S
C7 O11 1.241 . S
C8 O1 1.247 . S
C8 O2 1.261 . S
C9 O4 1.259 . S
C9 O6 1.235 . S
O10 Co0 2.021 . S
O10 C7 1.238 . S
O11 Co5 2.052 . S
O11 C7 1.241 . S
O12 Co0 2.137 . S
O12 C3 1.247 . S
O13 Co0 2.244 . S
O13 C3 1.272 . S
O13 Co5 2.135 . S
Co14 O15 2.216 . S
Co14 O16 2.091 . S
Co14 O18 2.004 . S
Co14 O24 2.021 . S
Co14 O26 2.137 . S
Co14 O27 2.244 . S
O15 Co14 2.216 . S
O15 C22 1.247 . S
O16 Co14 2.091 . S
O16 C22 1.261 . S
C17 O26 1.247 . S
C17 O27 1.272 . S
O18 Co14 2.004 . S
O18 C23 1.259 . S
Co19 O20 2.061 . S
Co19 O25 2.052 . S
Co19 O27 2.135 . S
O20 Co19 2.061 . S
O20 C23 1.235 . S
C21 O24 1.238 . S
C21 O25 1.241 . S
C22 O15 1.247 . S
C22 O16 1.261 . S
C23 O18 1.259 . S
C23 O20 1.235 . S
O24 Co14 2.021 . S
O24 C21 1.238 . S
O25 Co19 2.052 . S
O25 C21 1.241 . S
O26 Co14 2.137 . S
O26 C17 1.247 . S
O27 Co14 2.244 . S
O27 C17 1.272 . S
O27 Co19 2.135 . S
Co28 O29 2.216 . S
Co28 O30 2.091 . S
Co28 O32 2.004 . S
Co28 O38 2.021 . S
Co28 O40 2.137 . S
Co28 O41 2.244 . S
O29 Co28 2.216 . S
O29 C36 1.247 . S
O30 Co28 2.091 . S
O30 C36 1.261 . S
C31 O40 1.247 . S
C31 O41 1.272 . S
O32 Co28 2.004 . S
O32 C37 1.259 . S
Co33 O34 2.061 . S
Co33 O39 2.052 . S
Co33 O41 2.135 . S
O34 Co33 2.061 . S
O34 C37 1.235 . S
C35 O38 1.238 . S
C35 O39 1.241 . S
C36 O29 1.247 . S
C36 O30 1.261 . S
C37 O32 1.259 . S
C37 O34 1.235 . S
O38 Co28 2.021 . S
O38 C35 1.238 . S
O39 Co33 2.052 . S
O39 C35 1.241 . S
O40 Co28 2.137 . S
O40 C31 1.247 . S
O41 Co28 2.244 . S
O41 C31 1.272 . S
O41 Co33 2.135 . S
Co42 O43 2.216 . S
Co42 O44 2.091 . S
Co42 O46 2.004 . S
Co42 O52 2.021 . S
Co42 O54 2.137 . S
Co42 O55 2.244 . S
O43 Co42 2.216 . S
O43 C50 1.247 . S
O44 Co42 2.091 . S
O44 C50 1.261 . S
C45 O54 1.247 . S
C45 O55 1.272 . S
O46 Co42 2.004 . S
O46 C51 1.259 . S
Co47 O48 2.061 . S
Co47 O53 2.052 . S
Co47 O55 2.135 . S
O48 Co47 2.061 . S
O48 C51 1.235 . S
C49 O52 1.238 . S
C49 O53 1.241 . S
C50 O43 1.247 . S
C50 O44 1.261 . S
C51 O46 1.259 . S
C51 O48 1.235 . S
O52 Co42 2.021 . S
O52 C49 1.238 . S
O53 Co47 2.052 . S
O53 C49 1.241 . S
O54 Co42 2.137 . S
O54 C45 1.247 . S
O55 Co42 2.244 . S
O55 C45 1.272 . S
O55 Co47 2.135 . S
Co56 O57 2.216 . S
Co56 O58 2.091 . S
Co56 O60 2.004 . S
Co56 O66 2.021 . S
Co56 O68 2.137 . S
Co56 O69 2.244 . S
O57 Co56 2.216 . S
O57 C64 1.247 . S
O58 Co56 2.091 . S
O58 C64 1.261 . S
C59 O68 1.247 . S
C59 O69 1.272 . S
O60 Co56 2.004 . S
O60 C65 1.259 . S
Co61 O62 2.061 . S
Co61 O67 2.052 . S
Co61 O69 2.135 . S
O62 Co61 2.061 . S
O62 C65 1.235 . S
C63 O66 1.238 . S
C63 O67 1.241 . S
C64 O57 1.247 . S
C64 O58 1.261 . S
C65 O60 1.259 . S
C65 O62 1.235 . S
O66 Co56 2.021 . S
O66 C63 1.238 . S
O67 Co61 2.052 . S
O67 C63 1.241 . S
O68 Co56 2.137 . S
O68 C59 1.247 . S
O69 Co56 2.244 . S
O69 C59 1.272 . S
O69 Co61 2.135 . S
Co70 O71 2.216 . S
Co70 O72 2.091 . S
Co70 O74 2.004 . S
Co70 O80 2.021 . S
Co70 O82 2.137 . S
Co70 O83 2.244 . S
O71 Co70 2.216 . S
O71 C78 1.247 . S
O72 Co70 2.091 . S
O72 C78 1.261 . S
C73 O82 1.247 . S
C73 O83 1.272 . S
O74 Co70 2.004 . S
O74 C79 1.259 . S
Co75 O76 2.061 . S
Co75 O81 2.052 . S
Co75 O83 2.135 . S
O76 Co75 2.061 . S
O76 C79 1.235 . S
C77 O80 1.238 . S
C77 O81 1.241 . S
C78 O71 1.247 . S
C78 O72 1.261 . S
C79 O74 1.259 . S
C79 O76 1.235 . S
O80 Co70 2.021 . S
O80 C77 1.238 . S
O81 Co75 2.052 . S
O81 C77 1.241 . S
O82 Co70 2.137 . S
O82 C73 1.247 . S
O83 Co70 2.244 . S
O83 C73 1.272 . S
O83 Co75 2.135 . S
Co84 O85 2.216 . S
Co84 O86 2.091 . S
Co84 O88 2.004 . S
Co84 O94 2.021 . S
Co84 O96 2.137 . S
Co84 O97 2.244 . S
O85 Co84 2.216 . S
O85 C92 1.247 . S
O86 Co84 2.091 . S
O86 C92 1.261 . S
C87 O96 1.247 . S
C87 O97 1.272 . S
O88 Co84 2.004 . S
O88 C93 1.259 . S
Co89 O90 2.061 . S
Co89 O95 2.052 . S
Co89 O97 2.135 . S
O90 Co89 2.061 . S
O90 C93 1.235 . S
C91 O94 1.238 . S
C91 O95 1.241 . S
C92 O85 1.247 . S
C92 O86 1.261 . S
C93 O88 1.259 . S
C93 O90 1.235 . S
O94 Co84 2.021 . S
O94 C91 1.238 . S
O95 Co89 2.052 . S
O95 C91 1.241 . S
O96 Co84 2.137 . S
O96 C87 1.247 . S
O97 Co84 2.244 . S
O97 C87 1.272 . S
O97 Co89 2.135 . S
Co98 O99 2.216 . S
Co98 O100 2.091 . S
Co98 O102 2.004 . S
Co98 O108 2.021 . S
Co98 O110 2.137 . S
Co98 O111 2.244 . S
O99 Co98 2.216 . S
O99 C106 1.247 . S
O100 Co98 2.091 . S
O100 C106 1.261 . S
C101 O110 1.247 . S
C101 O111 1.272 . S
O102 Co98 2.004 . S
O102 C107 1.259 . S
Co103 O104 2.061 . S
Co103 O109 2.052 . S
Co103 O111 2.135 . S
O104 Co103 2.061 . S
O104 C107 1.235 . S
C105 O108 1.238 . S
C105 O109 1.241 . S
C106 O99 1.247 . S
C106 O100 1.261 . S
C107 O102 1.259 . S
C107 O104 1.235 . S
O108 Co98 2.021 . S
O108 C105 1.238 . S
O109 Co103 2.052 . S
O109 C105 1.241 . S
O110 Co98 2.137 . S
O110 C101 1.247 . S
O111 Co98 2.244 . S
O111 C101 1.272 . S
O111 Co103 2.135 . S
Co112 O113 2.216 . S
Co112 O114 2.091 . S
Co112 O116 2.004 . S
Co112 O122 2.021 . S
Co112 O124 2.137 . S
Co112 O125 2.244 . S
O113 Co112 2.216 . S
O113 C120 1.247 . S
O114 Co112 2.091 . S
O114 C120 1.261 . S
C115 O124 1.247 . S
C115 O125 1.272 . S
O116 Co112 2.004 . S
O116 C121 1.259 . S
Co117 O118 2.061 . S
Co117 O123 2.052 . S
Co117 O125 2.135 . S
O118 Co117 2.061 . S
O118 C121 1.235 . S
C119 O122 1.238 . S
C119 O123 1.241 . S
C120 O113 1.247 . S
C120 O114 1.261 . S
C121 O116 1.259 . S
C121 O118 1.235 . S
O122 Co112 2.021 . S
O122 C119 1.238 . S
O123 Co117 2.052 . S
O123 C119 1.241 . S
O124 Co112 2.137 . S
O124 C115 1.247 . S
O125 Co112 2.244 . S
O125 C115 1.272 . S
O125 Co117 2.135 . S
Co126 O127 2.216 . S
Co126 O128 2.091 . S
Co126 O130 2.004 . S
Co126 O136 2.021 . S
Co126 O138 2.137 . S
Co126 O139 2.244 . S
O127 Co126 2.216 . S
O127 C134 1.247 . S
O128 Co126 2.091 . S
O128 C134 1.261 . S
C129 O138 1.247 . S
C129 O139 1.272 . S
O130 Co126 2.004 . S
O130 C135 1.259 . S
Co131 O132 2.061 . S
Co131 O137 2.052 . S
Co131 O139 2.135 . S
O132 Co131 2.061 . S
O132 C135 1.235 . S
C133 O136 1.238 . S
C133 O137 1.241 . S
C134 O127 1.247 . S
C134 O128 1.261 . S
C135 O130 1.259 . S
C135 O132 1.235 . S
O136 Co126 2.021 . S
O136 C133 1.238 . S
O137 Co131 2.052 . S
O137 C133 1.241 . S
O138 Co126 2.137 . S
O138 C129 1.247 . S
O139 Co126 2.244 . S
O139 C129 1.272 . S
O139 Co131 2.135 . S
Co140 O141 2.216 . S
Co140 O142 2.091 . S
Co140 O144 2.004 . S
Co140 O150 2.021 . S
Co140 O152 2.137 . S
Co140 O153 2.244 . S
O141 Co140 2.216 . S
O141 C148 1.247 . S
O142 Co140 2.091 . S
O142 C148 1.261 . S
C143 O152 1.247 . S
C143 O153 1.272 . S
O144 Co140 2.004 . S
O144 C149 1.259 . S
Co145 O146 2.061 . S
Co145 O151 2.052 . S
Co145 O153 2.135 . S
O146 Co145 2.061 . S
O146 C149 1.235 . S
C147 O150 1.238 . S
C147 O151 1.241 . S
C148 O141 1.247 . S
C148 O142 1.261 . S
C149 O144 1.259 . S
C149 O146 1.235 . S
O150 Co140 2.021 . S
O150 C147 1.238 . S
O151 Co145 2.052 . S
O151 C147 1.241 . S
O152 Co140 2.137 . S
O152 C143 1.247 . S
O153 Co140 2.244 . S
O153 C143 1.272 . S
O153 Co145 2.135 . S
Co154 O155 2.216 . S
Co154 O156 2.091 . S
Co154 O158 2.004 . S
Co154 O164 2.021 . S
Co154 O166 2.137 . S
Co154 O167 2.244 . S
O155 Co154 2.216 . S
O155 C162 1.247 . S
O156 Co154 2.091 . S
O156 C162 1.261 . S
C157 O166 1.247 . S
C157 O167 1.272 . S
O158 Co154 2.004 . S
O158 C163 1.259 . S
Co159 O160 2.061 . S
Co159 O165 2.052 . S
Co159 O167 2.135 . S
O160 Co159 2.061 . S
O160 C163 1.235 . S
C161 O164 1.238 . S
C161 O165 1.241 . S
C162 O155 1.247 . S
C162 O156 1.261 . S
C163 O158 1.259 . S
C163 O160 1.235 . S
O164 Co154 2.021 . S
O164 C161 1.238 . S
O165 Co159 2.052 . S
O165 C161 1.241 . S
O166 Co154 2.137 . S
O166 C157 1.247 . S
O167 Co154 2.244 . S
O167 C157 1.272 . S
O167 Co159 2.135 . S
Co168 O169 2.216 . S
Co168 O170 2.091 . S
Co168 O172 2.004 . S
Co168 O178 2.021 1_455 S
Co168 O180 2.137 . S
Co168 O181 2.244 1_455 S
O169 Co168 2.216 . S
O169 C176 1.247 . S
O170 Co168 2.091 . S
O170 C176 1.261 . S
C171 O180 1.247 1_655 S
C171 O181 1.272 . S
O172 Co168 2.004 . S
O172 C177 1.259 . S
Co173 O174 2.061 . S
Co173 O179 2.052 . S
Co173 O181 2.135 . S
O174 Co173 2.061 . S
O174 C177 1.235 1_655 S
C175 O178 1.238 . S
C175 O179 1.241 . S
C176 O169 1.247 . S
C176 O170 1.261 . S
C177 O172 1.259 . S
C177 O174 1.235 1_455 S
O178 Co168 2.021 1_655 S
O178 C175 1.238 . S
O179 Co173 2.052 . S
O179 C175 1.241 . S
O180 Co168 2.137 . S
O180 C171 1.247 1_455 S
O181 Co168 2.244 1_655 S
O181 C171 1.272 . S
O181 Co173 2.135 . S
Co182 O183 2.216 . S
Co182 O184 2.091 . S
Co182 O186 2.004 . S
Co182 O192 2.021 . S
Co182 O194 2.137 . S
Co182 O195 2.244 . S
O183 Co182 2.216 . S
O183 C190 1.247 . S
O184 Co182 2.091 . S
O184 C190 1.261 . S
C185 O194 1.247 . S
C185 O195 1.272 . S
O186 Co182 2.004 . S
O186 C191 1.259 . S
Co187 O188 2.061 . S
Co187 O193 2.052 . S
Co187 O195 2.135 . S
O188 Co187 2.061 . S
O188 C191 1.235 . S
C189 O192 1.238 . S
C189 O193 1.241 . S
C190 O183 1.247 . S
C190 O184 1.261 . S
C191 O186 1.259 . S
C191 O188 1.235 . S
O192 Co182 2.021 . S
O192 C189 1.238 . S
O193 Co187 2.052 . S
O193 C189 1.241 . S
O194 Co182 2.137 . S
O194 C185 1.247 . S
O195 Co182 2.244 . S
O195 C185 1.272 . S
O195 Co187 2.135 . S
Co196 O197 2.216 . S
Co196 O198 2.091 . S
Co196 O200 2.004 . S
Co196 O206 2.021 . S
Co196 O208 2.137 . S
Co196 O209 2.244 . S
O197 Co196 2.216 . S
O197 C204 1.247 . S
O198 Co196 2.091 . S
O198 C204 1.261 . S
C199 O208 1.247 . S
C199 O209 1.272 . S
O200 Co196 2.004 . S
O200 C205 1.259 . S
Co201 O202 2.061 1_545 S
Co201 O207 2.052 . S
Co201 O209 2.135 1_545 S
O202 Co201 2.061 1_565 S
O202 C205 1.235 . S
C203 O206 1.238 . S
C203 O207 1.241 1_565 S
C204 O197 1.247 . S
C204 O198 1.261 . S
C205 O200 1.259 . S
C205 O202 1.235 . S
O206 Co196 2.021 . S
O206 C203 1.238 . S
O207 Co201 2.052 . S
O207 C203 1.241 1_545 S
O208 Co196 2.137 . S
O208 C199 1.247 . S
O209 Co196 2.244 . S
O209 C199 1.272 . S
O209 Co201 2.135 1_565 S
Co210 O211 2.216 . S
Co210 O212 2.091 . S
Co210 O214 2.004 . S
Co210 O220 2.021 . S
Co210 O222 2.137 . S
Co210 O223 2.244 . S
O211 Co210 2.216 . S
O211 C218 1.247 . S
O212 Co210 2.091 . S
O212 C218 1.261 . S
C213 O222 1.247 . S
C213 O223 1.272 . S
O214 Co210 2.004 . S
O214 C219 1.259 . S
Co215 O216 2.061 . S
Co215 O221 2.052 . S
Co215 O223 2.135 . S
O216 Co215 2.061 . S
O216 C219 1.235 . S
C217 O220 1.238 . S
C217 O221 1.241 . S
C218 O211 1.247 . S
C218 O212 1.261 . S
C219 O214 1.259 . S
C219 O216 1.235 . S
O220 Co210 2.021 . S
O220 C217 1.238 . S
O221 Co215 2.052 . S
O221 C217 1.241 . S
O222 Co210 2.137 . S
O222 C213 1.247 . S
O223 Co210 2.244 . S
O223 C213 1.272 . S
O223 Co215 2.135 . S
Co224 O225 2.216 . S
Co224 O226 2.091 . S
Co224 O228 2.004 . S
Co224 O234 2.021 . S
Co224 O236 2.137 . S
Co224 O237 2.244 . S
O225 Co224 2.216 . S
O225 C232 1.247 . S
O226 Co224 2.091 . S
O226 C232 1.261 . S
C227 O236 1.247 . S
C227 O237 1.272 . S
O228 Co224 2.004 . S
O228 C233 1.259 . S
Co229 O230 2.061 . S
Co229 O235 2.052 . S
Co229 O237 2.135 . S
O230 Co229 2.061 . S
O230 C233 1.235 . S
C231 O234 1.238 . S
C231 O235 1.241 . S
C232 O225 1.247 . S
C232 O226 1.261 . S
C233 O228 1.259 . S
C233 O230 1.235 . S
O234 Co224 2.021 . S
O234 C231 1.238 . S
O235 Co229 2.052 . S
O235 C231 1.241 . S
O236 Co224 2.137 . S
O236 C227 1.247 . S
O237 Co224 2.244 . S
O237 C227 1.272 . S
O237 Co229 2.135 . S
Co238 O239 2.216 . S
Co238 O240 2.091 . S
Co238 O242 2.004 . S
Co238 O248 2.021 . S
Co238 O250 2.137 . S
Co238 O251 2.244 . S
O239 Co238 2.216 . S
O239 C246 1.247 . S
O240 Co238 2.091 . S
O240 C246 1.261 . S
C241 O250 1.247 . S
C241 O251 1.272 . S
O242 Co238 2.004 . S
O242 C247 1.259 . S
Co243 O244 2.061 . S
Co243 O249 2.052 . S
Co243 O251 2.135 . S
O244 Co243 2.061 . S
O244 C247 1.235 . S
C245 O248 1.238 . S
C245 O249 1.241 . S
C246 O239 1.247 . S
C246 O240 1.261 . S
C247 O242 1.259 . S
C247 O244 1.235 . S
O248 Co238 2.021 . S
O248 C245 1.238 . S
O249 Co243 2.052 . S
O249 C245 1.241 . S
O250 Co238 2.137 . S
O250 C241 1.247 . S
O251 Co238 2.244 . S
O251 C241 1.272 . S
O251 Co243 2.135 . S
Co252 O253 2.216 . S
Co252 O254 2.091 . S
Co252 O256 2.004 . S
Co252 O262 2.021 . S
Co252 O264 2.137 . S
Co252 O265 2.244 . S
O253 Co252 2.216 . S
O253 C260 1.247 . S
O254 Co252 2.091 . S
O254 C260 1.261 . S
C255 O264 1.247 . S
C255 O265 1.272 . S
O256 Co252 2.004 . S
O256 C261 1.259 . S
Co257 O258 2.061 . S
Co257 O263 2.052 . S
Co257 O265 2.135 . S
O258 Co257 2.061 . S
O258 C261 1.235 . S
C259 O262 1.238 . S
C259 O263 1.241 . S
C260 O253 1.247 . S
C260 O254 1.261 . S
C261 O256 1.259 . S
C261 O258 1.235 . S
O262 Co252 2.021 . S
O262 C259 1.238 . S
O263 Co257 2.052 . S
O263 C259 1.241 . S
O264 Co252 2.137 . S
O264 C255 1.247 . S
O265 Co252 2.244 . S
O265 C255 1.272 . S
O265 Co257 2.135 . S
Co266 O267 2.216 . S
Co266 O268 2.091 . S
Co266 O270 2.004 . S
Co266 O276 2.021 . S
Co266 O278 2.137 . S
Co266 O279 2.244 . S
O267 Co266 2.216 . S
O267 C274 1.247 . S
O268 Co266 2.091 . S
O268 C274 1.261 . S
C269 O278 1.247 . S
C269 O279 1.272 . S
O270 Co266 2.004 . S
O270 C275 1.259 . S
Co271 O272 2.061 . S
Co271 O277 2.052 . S
Co271 O279 2.135 . S
O272 Co271 2.061 . S
O272 C275 1.235 . S
C273 O276 1.238 . S
C273 O277 1.241 . S
C274 O267 1.247 . S
C274 O268 1.261 . S
C275 O270 1.259 . S
C275 O272 1.235 . S
O276 Co266 2.021 . S
O276 C273 1.238 . S
O277 Co271 2.052 . S
O277 C273 1.241 . S
O278 Co266 2.137 . S
O278 C269 1.247 . S
O279 Co266 2.244 . S
O279 C269 1.272 . S
O279 Co271 2.135 . S
Co280 O281 2.216 . S
Co280 O282 2.091 . S
Co280 O284 2.004 . S
Co280 O290 2.021 . S
Co280 O292 2.137 . S
Co280 O293 2.244 . S
O281 Co280 2.216 . S
O281 C288 1.247 . S
O282 Co280 2.091 . S
O282 C288 1.261 . S
C283 O292 1.247 . S
C283 O293 1.272 . S
O284 Co280 2.004 . S
O284 C289 1.259 . S
Co285 O286 2.061 . S
Co285 O291 2.052 . S
Co285 O293 2.135 . S
O286 Co285 2.061 . S
O286 C289 1.235 . S
C287 O290 1.238 . S
C287 O291 1.241 . S
C288 O281 1.247 . S
C288 O282 1.261 . S
C289 O284 1.259 . S
C289 O286 1.235 . S
O290 Co280 2.021 . S
O290 C287 1.238 . S
O291 Co285 2.052 . S
O291 C287 1.241 . S
O292 Co280 2.137 . S
O292 C283 1.247 . S
O293 Co280 2.244 . S
O293 C283 1.272 . S
O293 Co285 2.135 . S
Co294 O295 2.216 1_545 S
Co294 O296 2.091 . S
Co294 O298 2.004 1_554 S
Co294 O304 2.021 . S
Co294 O306 2.137 1_545 S
Co294 O307 2.244 1_544 S
O295 Co294 2.216 1_565 S
O295 C302 1.247 1_565 S
O296 Co294 2.091 . S
O296 C302 1.261 . S
C297 O306 1.247 1_556 S
C297 O307 1.272 . S
O298 Co294 2.004 1_556 S
O298 C303 1.259 . S
Co299 O300 2.061 . S
Co299 O305 2.052 . S
Co299 O307 2.135 . S
O300 Co299 2.061 . S
O300 C303 1.235 1_565 S
C301 O304 1.238 1_566 S
C301 O305 1.241 . S
C302 O295 1.247 1_545 S
C302 O296 1.261 . S
C303 O298 1.259 . S
C303 O300 1.235 1_545 S
O304 Co294 2.021 . S
O304 C301 1.238 1_544 S
O305 Co299 2.052 . S
O305 C301 1.241 . S
O306 Co294 2.137 1_565 S
O306 C297 1.247 1_554 S
O307 Co294 2.244 1_566 S
O307 C297 1.272 . S
O307 Co299 2.135 . S
Co308 O309 2.216 . S
Co308 O310 2.091 . S
Co308 O312 2.004 1_554 S
Co308 O318 2.021 . S
Co308 O320 2.137 . S
Co308 O321 2.244 1_554 S
O309 Co308 2.216 . S
O309 C316 1.247 . S
O310 Co308 2.091 . S
O310 C316 1.261 . S
C311 O320 1.247 1_556 S
C311 O321 1.272 . S
O312 Co308 2.004 1_556 S
O312 C317 1.259 . S
Co313 O314 2.061 . S
Co313 O319 2.052 . S
Co313 O321 2.135 . S
O314 Co313 2.061 . S
O314 C317 1.235 . S
C315 O318 1.238 1_556 S
C315 O319 1.241 . S
C316 O309 1.247 . S
C316 O310 1.261 . S
C317 O312 1.259 . S
C317 O314 1.235 . S
O318 Co308 2.021 . S
O318 C315 1.238 1_554 S
O319 Co313 2.052 . S
O319 C315 1.241 . S
O320 Co308 2.137 . S
O320 C311 1.247 1_554 S
O321 Co308 2.244 1_556 S
O321 C311 1.272 . S
O321 Co313 2.135 . S
Co322 O323 2.216 . S
Co322 O324 2.091 . S
Co322 O326 2.004 1_554 S
Co322 O332 2.021 . S
Co322 O334 2.137 . S
Co322 O335 2.244 1_554 S
O323 Co322 2.216 . S
O323 C330 1.247 . S
O324 Co322 2.091 . S
O324 C330 1.261 . S
C325 O334 1.247 1_556 S
C325 O335 1.272 . S
O326 Co322 2.004 1_556 S
O326 C331 1.259 . S
Co327 O328 2.061 . S
Co327 O333 2.052 . S
Co327 O335 2.135 . S
O328 Co327 2.061 . S
O328 C331 1.235 . S
C329 O332 1.238 1_556 S
C329 O333 1.241 . S
C330 O323 1.247 . S
C330 O324 1.261 . S
C331 O326 1.259 . S
C331 O328 1.235 . S
O332 Co322 2.021 . S
O332 C329 1.238 1_554 S
O333 Co327 2.052 . S
O333 C329 1.241 . S
O334 Co322 2.137 . S
O334 C325 1.247 1_554 S
O335 Co322 2.244 1_556 S
O335 C325 1.272 . S
O335 Co327 2.135 . S
Co336 O337 2.216 . S
Co336 O338 2.091 . S
Co336 O340 2.004 . S
Co336 O346 2.021 . S
Co336 O348 2.137 . S
Co336 O349 2.244 . S
O337 Co336 2.216 . S
O337 C344 1.247 . S
O338 Co336 2.091 . S
O338 C344 1.261 . S
C339 O348 1.247 . S
C339 O349 1.272 . S
O340 Co336 2.004 . S
O340 C345 1.259 . S
Co341 O342 2.061 . S
Co341 O347 2.052 . S
Co341 O349 2.135 . S
O342 Co341 2.061 . S
O342 C345 1.235 . S
C343 O346 1.238 . S
C343 O347 1.241 . S
C344 O337 1.247 . S
C344 O338 1.261 . S
C345 O340 1.259 . S
C345 O342 1.235 . S
O346 Co336 2.021 . S
O346 C343 1.238 . S
O347 Co341 2.052 . S
O347 C343 1.241 . S
O348 Co336 2.137 . S
O348 C339 1.247 . S
O349 Co336 2.244 . S
O349 C339 1.272 . S
O349 Co341 2.135 . S
Co350 O351 2.216 . S
Co350 O352 2.091 . S
Co350 O354 2.004 . S
Co350 O360 2.021 . S
Co350 O362 2.137 . S
Co350 O363 2.244 . S
O351 Co350 2.216 . S
O351 C358 1.247 . S
O352 Co350 2.091 . S
O352 C358 1.261 . S
C353 O362 1.247 . S
C353 O363 1.272 . S
O354 Co350 2.004 . S
O354 C359 1.259 . S
Co355 O356 2.061 . S
Co355 O361 2.052 . S
Co355 O363 2.135 . S
O356 Co355 2.061 . S
O356 C359 1.235 . S
C357 O360 1.238 . S
C357 O361 1.241 . S
C358 O351 1.247 . S
C358 O352 1.261 . S
C359 O354 1.259 . S
C359 O356 1.235 . S
O360 Co350 2.021 . S
O360 C357 1.238 . S
O361 Co355 2.052 . S
O361 C357 1.241 . S
O362 Co350 2.137 . S
O362 C353 1.247 . S
O363 Co350 2.244 . S
O363 C353 1.272 . S
O363 Co355 2.135 . S
Co364 O365 2.216 . S
Co364 O366 2.091 . S
Co364 O368 2.004 . S
Co364 O374 2.021 . S
Co364 O376 2.137 . S
Co364 O377 2.244 . S
O365 Co364 2.216 . S
O365 C372 1.247 . S
O366 Co364 2.091 . S
O366 C372 1.261 . S
C367 O376 1.247 . S
C367 O377 1.272 . S
O368 Co364 2.004 . S
O368 C373 1.259 . S
Co369 O370 2.061 . S
Co369 O375 2.052 . S
Co369 O377 2.135 . S
O370 Co369 2.061 . S
O370 C373 1.235 . S
C371 O374 1.238 . S
C371 O375 1.241 . S
C372 O365 1.247 . S
C372 O366 1.261 . S
C373 O368 1.259 . S
C373 O370 1.235 . S
O374 Co364 2.021 . S
O374 C371 1.238 . S
O375 Co369 2.052 . S
O375 C371 1.241 . S
O376 Co364 2.137 . S
O376 C367 1.247 . S
O377 Co364 2.244 . S
O377 C367 1.272 . S
O377 Co369 2.135 . S
Co378 O379 2.216 1_556 S
Co378 O380 2.091 1_556 S
Co378 O382 2.004 . S
Co378 O388 2.021 1_546 S
Co378 O390 2.137 . S
Co378 O391 2.244 1_545 S
O379 Co378 2.216 1_554 S
O379 C386 1.247 . S
O380 Co378 2.091 1_554 S
O380 C386 1.261 . S
C381 O390 1.247 1_565 S
C381 O391 1.272 . S
O382 Co378 2.004 . S
O382 C387 1.259 . S
Co383 O384 2.061 . S
Co383 O389 2.052 1_556 S
Co383 O391 2.135 . S
O384 Co383 2.061 . S
O384 C387 1.235 1_565 S
C385 O388 1.238 . S
C385 O389 1.241 . S
C386 O379 1.247 . S
C386 O380 1.261 . S
C387 O382 1.259 . S
C387 O384 1.235 1_545 S
O388 Co378 2.021 1_564 S
O388 C385 1.238 . S
O389 Co383 2.052 1_554 S
O389 C385 1.241 . S
O390 Co378 2.137 . S
O390 C381 1.247 1_545 S
O391 Co378 2.244 1_565 S
O391 C381 1.272 . S
O391 Co383 2.135 . S
Co392 O393 2.216 . S
Co392 O394 2.091 . S
Co392 O396 2.004 1_556 S
Co392 O402 2.021 . S
Co392 O404 2.137 . S
Co392 O405 2.244 1_556 S
O393 Co392 2.216 . S
O393 C400 1.247 . S
O394 Co392 2.091 . S
O394 C400 1.261 . S
C395 O404 1.247 1_554 S
C395 O405 1.272 . S
O396 Co392 2.004 1_554 S
O396 C401 1.259 . S
Co397 O398 2.061 . S
Co397 O403 2.052 . S
Co397 O405 2.135 . S
O398 Co397 2.061 . S
O398 C401 1.235 . S
C399 O402 1.238 1_554 S
C399 O403 1.241 . S
C400 O393 1.247 . S
C400 O394 1.261 . S
C401 O396 1.259 . S
C401 O398 1.235 . S
O402 Co392 2.021 . S
O402 C399 1.238 1_556 S
O403 Co397 2.052 . S
O403 C399 1.241 . S
O404 Co392 2.137 . S
O404 C395 1.247 1_556 S
O405 Co392 2.244 1_554 S
O405 C395 1.272 . S
O405 Co397 2.135 . S
Co406 O407 2.216 1_556 S
Co406 O408 2.091 1_556 S
Co406 O410 2.004 . S
Co406 O416 2.021 1_556 S
Co406 O418 2.137 . S
Co406 O419 2.244 . S
O407 Co406 2.216 1_554 S
O407 C414 1.247 . S
O408 Co406 2.091 1_554 S
O408 C414 1.261 . S
C409 O418 1.247 . S
C409 O419 1.272 . S
O410 Co406 2.004 . S
O410 C415 1.259 . S
Co411 O412 2.061 . S
Co411 O417 2.052 1_556 S
Co411 O419 2.135 . S
O412 Co411 2.061 . S
O412 C415 1.235 . S
C413 O416 1.238 . S
C413 O417 1.241 . S
C414 O407 1.247 . S
C414 O408 1.261 . S
C415 O410 1.259 . S
C415 O412 1.235 . S
O416 Co406 2.021 1_554 S
O416 C413 1.238 . S
O417 Co411 2.052 1_554 S
O417 C413 1.241 . S
O418 Co406 2.137 . S
O418 C409 1.247 . S
O419 Co406 2.244 . S
O419 C409 1.272 . S
O419 Co411 2.135 . S
Co420 O421 2.216 1_455 S
Co420 O422 2.091 . S
Co420 O424 2.004 . S
Co420 O430 2.021 . S
Co420 O432 2.137 1_455 S
Co420 O433 2.244 1_455 S
O421 Co420 2.216 1_655 S
O421 C428 1.247 1_655 S
O422 Co420 2.091 . S
O422 C428 1.261 . S
C423 O432 1.247 . S
C423 O433 1.272 . S
O424 Co420 2.004 . S
O424 C429 1.259 . S
Co425 O426 2.061 . S
Co425 O431 2.052 . S
Co425 O433 2.135 . S
O426 Co425 2.061 . S
O426 C429 1.235 1_655 S
C427 O430 1.238 1_655 S
C427 O431 1.241 . S
C428 O421 1.247 1_455 S
C428 O422 1.261 . S
C429 O424 1.259 . S
C429 O426 1.235 1_455 S
O430 Co420 2.021 . S
O430 C427 1.238 1_455 S
O431 Co425 2.052 . S
O431 C427 1.241 . S
O432 Co420 2.137 1_655 S
O432 C423 1.247 . S
O433 Co420 2.244 1_655 S
O433 C423 1.272 . S
O433 Co425 2.135 . S
Co434 O435 2.216 . S
Co434 O436 2.091 . S
Co434 O438 2.004 . S
Co434 O444 2.021 . S
Co434 O446 2.137 . S
Co434 O447 2.244 . S
O435 Co434 2.216 . S
O435 C442 1.247 . S
O436 Co434 2.091 . S
O436 C442 1.261 . S
C437 O446 1.247 . S
C437 O447 1.272 . S
O438 Co434 2.004 . S
O438 C443 1.259 . S
Co439 O440 2.061 . S
Co439 O445 2.052 . S
Co439 O447 2.135 . S
O440 Co439 2.061 . S
O440 C443 1.235 . S
C441 O444 1.238 . S
C441 O445 1.241 . S
C442 O435 1.247 . S
C442 O436 1.261 . S
C443 O438 1.259 . S
C443 O440 1.235 . S
O444 Co434 2.021 . S
O444 C441 1.238 . S
O445 Co439 2.052 . S
O445 C441 1.241 . S
O446 Co434 2.137 . S
O446 C437 1.247 . S
O447 Co434 2.244 . S
O447 C437 1.272 . S
O447 Co439 2.135 . S
Co448 O449 2.216 . S
Co448 O450 2.091 . S
Co448 O452 2.004 . S
Co448 O458 2.021 . S
Co448 O460 2.137 . S
Co448 O461 2.244 . S
O449 Co448 2.216 . S
O449 C456 1.247 . S
O450 Co448 2.091 . S
O450 C456 1.261 . S
C451 O460 1.247 . S
C451 O461 1.272 . S
O452 Co448 2.004 . S
O452 C457 1.259 . S
Co453 O454 2.061 . S
Co453 O459 2.052 . S
Co453 O461 2.135 . S
O454 Co453 2.061 . S
O454 C457 1.235 . S
C455 O458 1.238 . S
C455 O459 1.241 . S
C456 O449 1.247 . S
C456 O450 1.261 . S
C457 O452 1.259 . S
C457 O454 1.235 . S
O458 Co448 2.021 . S
O458 C455 1.238 . S
O459 Co453 2.052 . S
O459 C455 1.241 . S
O460 Co448 2.137 . S
O460 C451 1.247 . S
O461 Co448 2.244 . S
O461 C451 1.272 . S
O461 Co453 2.135 . S
Co462 O463 2.216 . S
Co462 O464 2.091 . S
Co462 O466 2.004 . S
Co462 O472 2.021 . S
Co462 O474 2.137 . S
Co462 O475 2.244 . S
O463 Co462 2.216 . S
O463 C470 1.247 . S
O464 Co462 2.091 . S
O464 C470 1.261 . S
C465 O474 1.247 . S
C465 O475 1.272 . S
O466 Co462 2.004 . S
O466 C471 1.259 . S
Co467 O468 2.061 . S
Co467 O473 2.052 . S
Co467 O475 2.135 . S
O468 Co467 2.061 . S
O468 C471 1.235 . S
C469 O472 1.238 . S
C469 O473 1.241 . S
C470 O463 1.247 . S
C470 O464 1.261 . S
C471 O466 1.259 . S
C471 O468 1.235 . S
O472 Co462 2.021 . S
O472 C469 1.238 . S
O473 Co467 2.052 . S
O473 C469 1.241 . S
O474 Co462 2.137 . S
O474 C465 1.247 . S
O475 Co462 2.244 . S
O475 C465 1.272 . S
O475 Co467 2.135 . S
Co476 O477 2.216 . S
Co476 O478 2.091 . S
Co476 O480 2.004 . S
Co476 O486 2.021 . S
Co476 O488 2.137 . S
Co476 O489 2.244 . S
O477 Co476 2.216 . S
O477 C484 1.247 . S
O478 Co476 2.091 . S
O478 C484 1.261 . S
C479 O488 1.247 . S
C479 O489 1.272 . S
O480 Co476 2.004 . S
O480 C485 1.259 . S
Co481 O482 2.061 . S
Co481 O487 2.052 . S
Co481 O489 2.135 . S
O482 Co481 2.061 . S
O482 C485 1.235 . S
C483 O486 1.238 . S
C483 O487 1.241 . S
C484 O477 1.247 . S
C484 O478 1.261 . S
C485 O480 1.259 . S
C485 O482 1.235 . S
O486 Co476 2.021 . S
O486 C483 1.238 . S
O487 Co481 2.052 . S
O487 C483 1.241 . S
O488 Co476 2.137 . S
O488 C479 1.247 . S
O489 Co476 2.244 . S
O489 C479 1.272 . S
O489 Co481 2.135 . S
Co490 O491 2.216 . S
Co490 O492 2.091 . S
Co490 O494 2.004 . S
Co490 O500 2.021 . S
Co490 O502 2.137 . S
Co490 O503 2.244 . S
O491 Co490 2.216 . S
O491 C498 1.247 . S
O492 Co490 2.091 . S
O492 C498 1.261 . S
C493 O502 1.247 . S
C493 O503 1.272 . S
O494 Co490 2.004 . S
O494 C499 1.259 . S
Co495 O496 2.061 . S
Co495 O501 2.052 . S
Co495 O503 2.135 . S
O496 Co495 2.061 . S
O496 C499 1.235 . S
C497 O500 1.238 . S
C497 O501 1.241 . S
C498 O491 1.247 . S
C498 O492 1.261 . S
C499 O494 1.259 . S
C499 O496 1.235 . S
O500 Co490 2.021 . S
O500 C497 1.238 . S
O501 Co495 2.052 . S
O501 C497 1.241 . S
O502 Co490 2.137 . S
O502 C493 1.247 . S
O503 Co490 2.244 . S
O503 C493 1.272 . S
O503 Co495 2.135 . S
C504 C505 1.369 . S
C504 C506 1.419 . S
C504 H508 0.930 . S
C505 C504 1.369 . S
C505 C514 1.429 . S
C506 C504 1.419 . S
C506 C507 1.363 . S
C506 H509 0.929 . S
C507 C506 1.363 . S
C507 C513 1.428 . S
H508 C504 0.930 . S
H509 C506 0.929 . S
S510 N511 1.613 . S
S510 N512 1.610 . S
N511 S510 1.613 . S
N511 C514 1.350 . S
N512 S510 1.610 . S
N512 C513 1.351 . S
C513 C507 1.428 . S
C513 N512 1.351 . S
C513 C514 1.434 . S
C514 C505 1.429 . S
C514 N511 1.350 . S
C514 C513 1.434 . S
C515 C516 1.369 . S
C515 C517 1.419 . S
C515 H519 0.930 . S
C516 C515 1.369 . S
C516 C525 1.429 . S
C517 C515 1.419 . S
C517 C518 1.363 . S
C517 H520 0.929 . S
C518 C517 1.363 . S
C518 C524 1.428 . S
H519 C515 0.930 . S
H520 C517 0.929 . S
S521 N522 1.613 . S
S521 N523 1.610 . S
N522 S521 1.613 . S
N522 C525 1.350 . S
N523 S521 1.610 . S
N523 C524 1.351 . S
C524 C518 1.428 . S
C524 N523 1.351 . S
C524 C525 1.434 . S
C525 C516 1.429 . S
C525 N522 1.350 . S
C525 C524 1.434 . S
C526 C527 1.369 . S
C526 C528 1.419 . S
C526 H530 0.930 . S
C527 C526 1.369 . S
C527 C536 1.429 . S
C528 C526 1.419 . S
C528 C529 1.363 . S
C528 H531 0.929 . S
C529 C528 1.363 . S
C529 C535 1.428 . S
H530 C526 0.930 . S
H531 C528 0.929 . S
S532 N533 1.613 . S
S532 N534 1.610 . S
N533 S532 1.613 . S
N533 C536 1.350 . S
N534 S532 1.610 . S
N534 C535 1.351 . S
C535 C529 1.428 . S
C535 N534 1.351 . S
C535 C536 1.434 . S
C536 C527 1.429 . S
C536 N533 1.350 . S
C536 C535 1.434 . S
C537 C538 1.369 . S
C537 C539 1.419 . S
C537 H541 0.930 . S
C538 C537 1.369 . S
C538 C547 1.429 . S
C539 C537 1.419 . S
C539 C540 1.363 . S
C539 H542 0.929 . S
C540 C539 1.363 . S
C540 C546 1.428 . S
H541 C537 0.930 . S
H542 C539 0.929 . S
S543 N544 1.613 . S
S543 N545 1.610 . S
N544 S543 1.613 . S
N544 C547 1.350 . S
N545 S543 1.610 . S
N545 C546 1.351 . S
C546 C540 1.428 . S
C546 N545 1.351 . S
C546 C547 1.434 . S
C547 C538 1.429 . S
C547 N544 1.350 . S
C547 C546 1.434 . S
C548 C549 1.369 . S
C548 C550 1.419 . S
C548 H552 0.930 . S
C549 C548 1.369 . S
C549 C558 1.429 . S
C550 C548 1.419 . S
C550 C551 1.363 1_554 S
C550 H553 0.929 1_554 S
C551 C550 1.363 1_556 S
C551 C557 1.428 1_556 S
H552 C548 0.930 . S
H553 C550 0.929 1_556 S
S554 N555 1.613 . S
S554 N556 1.610 . S
N555 S554 1.613 . S
N555 C558 1.350 . S
N556 S554 1.610 . S
N556 C557 1.351 . S
C557 C551 1.428 1_554 S
C557 N556 1.351 . S
C557 C558 1.434 . S
C558 C549 1.429 . S
C558 N555 1.350 . S
C558 C557 1.434 . S
C559 C560 1.369 . S
C559 C561 1.419 . S
C559 H563 0.930 . S
C560 C559 1.369 . S
C560 C569 1.429 . S
C561 C559 1.419 . S
C561 C562 1.363 . S
C561 H564 0.929 . S
C562 C561 1.363 . S
C562 C568 1.428 . S
H563 C559 0.930 . S
H564 C561 0.929 . S
S565 N566 1.613 . S
S565 N567 1.610 . S
N566 S565 1.613 . S
N566 C569 1.350 . S
N567 S565 1.610 . S
N567 C568 1.351 . S
C568 C562 1.428 . S
C568 N567 1.351 . S
C568 C569 1.434 . S
C569 C560 1.429 . S
C569 N566 1.350 . S
C569 C568 1.434 . S
C570 C571 1.369 . S
C570 C572 1.419 . S
C570 H574 0.930 . S
C571 C570 1.369 . S
C571 C580 1.429 . S
C572 C570 1.419 . S
C572 C573 1.363 . S
C572 H575 0.929 . S
C573 C572 1.363 . S
C573 C579 1.428 . S
H574 C570 0.930 . S
H575 C572 0.929 . S
S576 N577 1.613 . S
S576 N578 1.610 . S
N577 S576 1.613 . S
N577 C580 1.350 . S
N578 S576 1.610 . S
N578 C579 1.351 . S
C579 C573 1.428 . S
C579 N578 1.351 . S
C579 C580 1.434 . S
C580 C571 1.429 . S
C580 N577 1.350 . S
C580 C579 1.434 . S
C581 C582 1.369 . S
C581 C583 1.419 . S
C581 H585 0.930 . S
C582 C581 1.369 . S
C582 C591 1.429 . S
C583 C581 1.419 . S
C583 C584 1.363 . S
C583 H586 0.929 . S
C584 C583 1.363 . S
C584 C590 1.428 . S
H585 C581 0.930 . S
H586 C583 0.929 . S
S587 N588 1.613 . S
S587 N589 1.610 . S
N588 S587 1.613 . S
N588 C591 1.350 . S
N589 S587 1.610 . S
N589 C590 1.351 . S
C590 C584 1.428 . S
C590 N589 1.351 . S
C590 C591 1.434 . S
C591 C582 1.429 . S
C591 N588 1.350 . S
C591 C590 1.434 . S
C592 C593 1.369 . S
C592 C594 1.419 . S
C592 H596 0.930 . S
C593 C592 1.369 . S
C593 C602 1.429 . S
C594 C592 1.419 . S
C594 C595 1.363 . S
C594 H597 0.929 . S
C595 C594 1.363 . S
C595 C601 1.428 . S
H596 C592 0.930 . S
H597 C594 0.929 . S
S598 N599 1.613 . S
S598 N600 1.610 . S
N599 S598 1.613 . S
N599 C602 1.350 . S
N600 S598 1.610 . S
N600 C601 1.351 . S
C601 C595 1.428 . S
C601 N600 1.351 . S
C601 C602 1.434 . S
C602 C593 1.429 . S
C602 N599 1.350 . S
C602 C601 1.434 . S
C603 C604 1.369 . S
C603 C605 1.419 . S
C603 H607 0.930 . S
C604 C603 1.369 . S
C604 C613 1.429 . S
C605 C603 1.419 . S
C605 C606 1.363 . S
C605 H608 0.929 . S
C606 C605 1.363 . S
C606 C612 1.428 . S
H607 C603 0.930 . S
H608 C605 0.929 . S
S609 N610 1.613 . S
S609 N611 1.610 . S
N610 S609 1.613 . S
N610 C613 1.350 . S
N611 S609 1.610 . S
N611 C612 1.351 . S
C612 C606 1.428 . S
C612 N611 1.351 . S
C612 C613 1.434 . S
C613 C604 1.429 . S
C613 N610 1.350 . S
C613 C612 1.434 . S
C614 C615 1.369 . S
C614 C616 1.419 . S
C614 H618 0.930 . S
C615 C614 1.369 . S
C615 C624 1.429 . S
C616 C614 1.419 . S
C616 C617 1.363 . S
C616 H619 0.929 . S
C617 C616 1.363 . S
C617 C623 1.428 . S
H618 C614 0.930 . S
H619 C616 0.929 . S
S620 N621 1.613 . S
S620 N622 1.610 . S
N621 S620 1.613 . S
N621 C624 1.350 . S
N622 S620 1.610 . S
N622 C623 1.351 . S
C623 C617 1.428 . S
C623 N622 1.351 . S
C623 C624 1.434 . S
C624 C615 1.429 . S
C624 N621 1.350 . S
C624 C623 1.434 . S
C625 C626 1.369 . S
C625 C627 1.419 . S
C625 H629 0.930 . S
C626 C625 1.369 . S
C626 C635 1.429 . S
C627 C625 1.419 . S
C627 C628 1.363 . S
C627 H630 0.929 . S
C628 C627 1.363 . S
C628 C634 1.428 . S
H629 C625 0.930 . S
H630 C627 0.929 . S
S631 N632 1.613 . S
S631 N633 1.610 . S
N632 S631 1.613 . S
N632 C635 1.350 . S
N633 S631 1.610 . S
N633 C634 1.351 . S
C634 C628 1.428 . S
C634 N633 1.351 . S
C634 C635 1.434 . S
C635 C626 1.429 . S
C635 N632 1.350 . S
C635 C634 1.434 . S
C636 C637 1.369 . S
C636 C638 1.419 . S
C636 H640 0.930 . S
C637 C636 1.369 . S
C637 C646 1.429 . S
C638 C636 1.419 . S
C638 C639 1.363 . S
C638 H641 0.929 . S
C639 C638 1.363 . S
C639 C645 1.428 . S
H640 C636 0.930 . S
H641 C638 0.929 . S
S642 N643 1.613 . S
S642 N644 1.610 . S
N643 S642 1.613 . S
N643 C646 1.350 1_455 S
N644 S642 1.610 . S
N644 C645 1.351 1_455 S
C645 C639 1.428 . S
C645 N644 1.351 1_655 S
C645 C646 1.434 . S
C646 C637 1.429 . S
C646 N643 1.350 1_655 S
C646 C645 1.434 . S
C647 C648 1.369 . S
C647 C649 1.419 . S
C647 H651 0.930 . S
C648 C647 1.369 . S
C648 C657 1.429 . S
C649 C647 1.419 . S
C649 C650 1.363 . S
C649 H652 0.929 . S
C650 C649 1.363 . S
C650 C656 1.428 . S
H651 C647 0.930 . S
H652 C649 0.929 . S
S653 N654 1.613 . S
S653 N655 1.610 . S
N654 S653 1.613 . S
N654 C657 1.350 . S
N655 S653 1.610 . S
N655 C656 1.351 . S
C656 C650 1.428 . S
C656 N655 1.351 . S
C656 C657 1.434 . S
C657 C648 1.429 . S
C657 N654 1.350 . S
C657 C656 1.434 . S
C658 C659 1.369 . S
C658 C660 1.419 . S
C658 H662 0.930 . S
C659 C658 1.369 . S
C659 C668 1.429 1_565 S
C660 C658 1.419 . S
C660 C661 1.363 . S
C660 H663 0.929 . S
C661 C660 1.363 . S
C661 C667 1.428 1_565 S
H662 C658 0.930 . S
H663 C660 0.929 . S
S664 N665 1.613 . S
S664 N666 1.610 . S
N665 S664 1.613 . S
N665 C668 1.350 . S
N666 S664 1.610 . S
N666 C667 1.351 . S
C667 C661 1.428 1_545 S
C667 N666 1.351 . S
C667 C668 1.434 . S
C668 C659 1.429 1_545 S
C668 N665 1.350 . S
C668 C667 1.434 . S
C669 C670 1.369 . S
C669 C671 1.419 . S
C669 H673 0.930 1_545 S
C670 C669 1.369 . S
C670 C679 1.429 . S
C671 C669 1.419 . S
C671 C672 1.363 . S
C671 H674 0.929 1_545 S
C672 C671 1.363 . S
C672 C678 1.428 . S
H673 C669 0.930 1_565 S
H674 C671 0.929 1_565 S
S675 N676 1.613 . S
S675 N677 1.610 . S
N676 S675 1.613 . S
N676 C679 1.350 . S
N677 S675 1.610 . S
N677 C678 1.351 . S
C678 C672 1.428 . S
C678 N677 1.351 . S
C678 C679 1.434 . S
C679 C670 1.429 . S
C679 N676 1.350 . S
C679 C678 1.434 . S
C680 C681 1.369 . S
C680 C682 1.419 . S
C680 H684 0.930 1_455 S
C681 C680 1.369 . S
C681 C690 1.429 . S
C682 C680 1.419 . S
C682 C683 1.363 . S
C682 H685 0.929 1_455 S
C683 C682 1.363 . S
C683 C689 1.428 . S
H684 C680 0.930 1_655 S
H685 C682 0.929 1_655 S
S686 N687 1.613 . S
S686 N688 1.610 . S
N687 S686 1.613 . S
N687 C690 1.350 . S
N688 S686 1.610 . S
N688 C689 1.351 . S
C689 C683 1.428 . S
C689 N688 1.351 . S
C689 C690 1.434 . S
C690 C681 1.429 . S
C690 N687 1.350 . S
C690 C689 1.434 . S
C691 C692 1.369 . S
C691 C693 1.419 . S
C691 H695 0.930 . S
C692 C691 1.369 . S
C692 C701 1.429 . S
C693 C691 1.419 . S
C693 C694 1.363 . S
C693 H696 0.929 . S
C694 C693 1.363 . S
C694 C700 1.428 . S
H695 C691 0.930 . S
H696 C693 0.929 . S
S697 N698 1.613 . S
S697 N699 1.610 . S
N698 S697 1.613 . S
N698 C701 1.350 . S
N699 S697 1.610 . S
N699 C700 1.351 . S
C700 C694 1.428 . S
C700 N699 1.351 . S
C700 C701 1.434 . S
C701 C692 1.429 . S
C701 N698 1.350 . S
C701 C700 1.434 . S
C702 C703 1.369 . S
C702 C704 1.419 . S
C702 H706 0.930 . S
C703 C702 1.369 . S
C703 C712 1.429 . S
C704 C702 1.419 . S
C704 C705 1.363 . S
C704 H707 0.929 . S
C705 C704 1.363 . S
C705 C711 1.428 . S
H706 C702 0.930 . S
H707 C704 0.929 . S
S708 N709 1.613 . S
S708 N710 1.610 . S
N709 S708 1.613 . S
N709 C712 1.350 . S
N710 S708 1.610 . S
N710 C711 1.351 . S
C711 C705 1.428 . S
C711 N710 1.351 . S
C711 C712 1.434 . S
C712 C703 1.429 . S
C712 N709 1.350 . S
C712 C711 1.434 . S
C713 C714 1.369 . S
C713 C715 1.419 . S
C713 H717 0.930 . S
C714 C713 1.369 . S
C714 C723 1.429 . S
C715 C713 1.419 . S
C715 C716 1.363 . S
C715 H718 0.929 . S
C716 C715 1.363 . S
C716 C722 1.428 . S
H717 C713 0.930 . S
H718 C715 0.929 . S
S719 N720 1.613 . S
S719 N721 1.610 . S
N720 S719 1.613 . S
N720 C723 1.350 . S
N721 S719 1.610 . S
N721 C722 1.351 . S
C722 C716 1.428 . S
C722 N721 1.351 . S
C722 C723 1.434 . S
C723 C714 1.429 . S
C723 N720 1.350 . S
C723 C722 1.434 . S
C724 C725 1.369 . S
C724 C726 1.419 . S
C724 H728 0.930 . S
C725 C724 1.369 . S
C725 C734 1.429 . S
C726 C724 1.419 . S
C726 C727 1.363 . S
C726 H729 0.929 . S
C727 C726 1.363 . S
C727 C733 1.428 . S
H728 C724 0.930 . S
H729 C726 0.929 . S
S730 N731 1.613 . S
S730 N732 1.610 . S
N731 S730 1.613 . S
N731 C734 1.350 . S
N732 S730 1.610 . S
N732 C733 1.351 . S
C733 C727 1.428 . S
C733 N732 1.351 . S
C733 C734 1.434 . S
C734 C725 1.429 . S
C734 N731 1.350 . S
C734 C733 1.434 . S
C735 C736 1.369 . S
C735 C737 1.419 . S
C735 H739 0.930 . S
C736 C735 1.369 . S
C736 C745 1.429 . S
C737 C735 1.419 . S
C737 C738 1.363 . S
C737 H740 0.929 . S
C738 C737 1.363 . S
C738 C744 1.428 . S
H739 C735 0.930 . S
H740 C737 0.929 . S
S741 N742 1.613 . S
S741 N743 1.610 . S
N742 S741 1.613 . S
N742 C745 1.350 . S
N743 S741 1.610 . S
N743 C744 1.351 . S
C744 C738 1.428 . S
C744 N743 1.351 . S
C744 C745 1.434 . S
C745 C736 1.429 . S
C745 N742 1.350 . S
C745 C744 1.434 . S
C746 C747 1.369 . S
C746 C748 1.419 . S
C746 H750 0.930 . S
C747 C746 1.369 . S
C747 C756 1.429 . S
C748 C746 1.419 . S
C748 C749 1.363 . S
C748 H751 0.929 . S
C749 C748 1.363 . S
C749 C755 1.428 . S
H750 C746 0.930 . S
H751 C748 0.929 . S
S752 N753 1.613 . S
S752 N754 1.610 . S
N753 S752 1.613 . S
N753 C756 1.350 . S
N754 S752 1.610 . S
N754 C755 1.351 . S
C755 C749 1.428 . S
C755 N754 1.351 . S
C755 C756 1.434 . S
C756 C747 1.429 . S
C756 N753 1.350 . S
C756 C755 1.434 . S
C757 C758 1.369 . S
C757 C759 1.419 . S
C757 H761 0.930 . S
C758 C757 1.369 . S
C758 C767 1.429 . S
C759 C757 1.419 . S
C759 C760 1.363 . S
C759 H762 0.929 . S
C760 C759 1.363 . S
C760 C766 1.428 . S
H761 C757 0.930 . S
H762 C759 0.929 . S
S763 N764 1.613 . S
S763 N765 1.610 . S
N764 S763 1.613 . S
N764 C767 1.350 . S
N765 S763 1.610 . S
N765 C766 1.351 . S
C766 C760 1.428 . S
C766 N765 1.351 . S
C766 C767 1.434 . S
C767 C758 1.429 . S
C767 N764 1.350 . S
C767 C766 1.434 . S
C768 C769 1.369 . S
C768 C770 1.419 . S
C768 H772 0.930 . S
C769 C768 1.369 . S
C769 C778 1.429 . S
C770 C768 1.419 . S
C770 C771 1.363 . S
C770 H773 0.929 . S
C771 C770 1.363 . S
C771 C777 1.428 . S
H772 C768 0.930 . S
H773 C770 0.929 . S
S774 N775 1.609 1_554 S
S774 N776 1.605 1_554 S
N775 S774 1.609 1_556 S
N775 C778 1.350 . S
N776 S774 1.605 1_556 S
N776 C777 1.351 . S
C777 C771 1.428 . S
C777 N776 1.351 . S
C777 C778 1.434 . S
C778 C769 1.429 . S
C778 N775 1.350 . S
C778 C777 1.434 . S
C779 C780 1.369 . S
C779 C781 1.419 . S
C779 H783 0.930 . S
C780 C779 1.369 . S
C780 C789 1.429 . S
C781 C779 1.419 . S
C781 C782 1.363 . S
C781 H784 0.929 . S
C782 C781 1.363 . S
C782 C788 1.428 . S
H783 C779 0.930 . S
H784 C781 0.929 . S
S785 N786 1.613 . S
S785 N787 1.610 . S
N786 S785 1.613 . S
N786 C789 1.350 . S
N787 S785 1.610 . S
N787 C788 1.351 . S
C788 C782 1.428 . S
C788 N787 1.351 . S
C788 C789 1.434 . S
C789 C780 1.429 . S
C789 N786 1.350 . S
C789 C788 1.434 . S
C790 C791 1.369 . S
C790 C792 1.419 . S
C790 H794 0.930 . S
C791 C790 1.369 . S
C791 C800 1.429 . S
C792 C790 1.419 . S
C792 C793 1.363 . S
C792 H795 0.929 . S
C793 C792 1.363 . S
C793 C799 1.428 . S
H794 C790 0.930 . S
H795 C792 0.929 . S
S796 N797 1.613 . S
S796 N798 1.610 . S
N797 S796 1.613 . S
N797 C800 1.350 . S
N798 S796 1.610 . S
N798 C799 1.351 . S
C799 C793 1.428 . S
C799 N798 1.351 . S
C799 C800 1.434 . S
C800 C791 1.429 . S
C800 N797 1.350 . S
C800 C799 1.434 . S
C801 C802 1.369 . S
C801 C803 1.419 . S
C801 H805 0.930 . S
C802 C801 1.369 . S
C802 C811 1.429 . S
C803 C801 1.419 . S
C803 C804 1.363 . S
C803 H806 0.929 . S
C804 C803 1.363 . S
C804 C810 1.428 . S
H805 C801 0.930 . S
H806 C803 0.929 . S
S807 N808 1.613 . S
S807 N809 1.610 . S
N808 S807 1.613 . S
N808 C811 1.350 . S
N809 S807 1.610 . S
N809 C810 1.351 . S
C810 C804 1.428 . S
C810 N809 1.351 . S
C810 C811 1.434 . S
C811 C802 1.429 . S
C811 N808 1.350 . S
C811 C810 1.434 . S
C812 C813 1.369 . S
C812 C814 1.419 . S
C812 H816 0.930 . S
C813 C812 1.369 . S
C813 C822 1.429 . S
C814 C812 1.419 . S
C814 C815 1.363 . S
C814 H817 0.929 . S
C815 C814 1.363 . S
C815 C821 1.428 . S
H816 C812 0.930 . S
H817 C814 0.929 . S
S818 N819 1.613 . S
S818 N820 1.610 . S
N819 S818 1.613 . S
N819 C822 1.350 . S
N820 S818 1.610 . S
N820 C821 1.351 . S
C821 C815 1.428 . S
C821 N820 1.351 . S
C821 C822 1.434 . S
C822 C813 1.429 . S
C822 N819 1.350 . S
C822 C821 1.434 . S
C823 C824 1.369 . S
C823 C825 1.419 . S
C823 H827 0.930 . S
C824 C823 1.369 . S
C824 C833 1.429 . S
C825 C823 1.419 . S
C825 C826 1.363 . S
C825 H828 0.929 . S
C826 C825 1.363 . S
C826 C832 1.428 . S
H827 C823 0.930 . S
H828 C825 0.929 . S
S829 N830 1.613 . S
S829 N831 1.610 . S
N830 S829 1.613 . S
N830 C833 1.350 . S
N831 S829 1.610 . S
N831 C832 1.351 . S
C832 C826 1.428 . S
C832 N831 1.351 . S
C832 C833 1.434 . S
C833 C824 1.429 . S
C833 N830 1.350 . S
C833 C832 1.434 . S
C834 C835 1.369 . S
C834 C836 1.419 . S
C834 H838 0.930 . S
C835 C834 1.369 . S
C835 C844 1.429 1_455 S
C836 C834 1.419 . S
C836 C837 1.363 1_455 S
C836 H839 0.929 . S
C837 C836 1.363 1_655 S
C837 C843 1.428 . S
H838 C834 0.930 . S
H839 C836 0.929 . S
S840 N841 1.613 . S
S840 N842 1.610 . S
N841 S840 1.613 . S
N841 C844 1.350 . S
N842 S840 1.610 . S
N842 C843 1.351 . S
C843 C837 1.428 . S
C843 N842 1.351 . S
C843 C844 1.434 . S
C844 C835 1.429 1_655 S
C844 N841 1.350 . S
C844 C843 1.434 . S
C845 C846 1.369 . S
C845 C847 1.419 . S
C845 H849 0.930 . S
C846 C845 1.369 . S
C846 C855 1.429 . S
C847 C845 1.419 . S
C847 C848 1.363 . S
C847 H850 0.929 . S
C848 C847 1.363 . S
C848 C854 1.428 . S
H849 C845 0.930 . S
H850 C847 0.929 . S
S851 N852 1.613 . S
S851 N853 1.610 . S
N852 S851 1.613 . S
N852 C855 1.350 . S
N853 S851 1.610 . S
N853 C854 1.351 . S
C854 C848 1.428 . S
C854 N853 1.351 . S
C854 C855 1.434 . S
C855 C846 1.429 . S
C855 N852 1.350 . S
C855 C854 1.434 . S
C856 C857 1.360 1_565 S
C856 C858 1.424 . S
C856 H860 0.922 . S
C857 C856 1.360 1_545 S
C857 C866 1.429 . S
C858 C856 1.424 . S
C858 C859 1.363 . S
C858 H861 0.929 . S
C859 C858 1.363 . S
C859 C865 1.428 . S
H860 C856 0.922 . S
H861 C858 0.929 . S
S862 N863 1.613 . S
S862 N864 1.610 . S
N863 S862 1.613 . S
N863 C866 1.350 . S
N864 S862 1.610 . S
N864 C865 1.351 1_545 S
C865 C859 1.428 . S
C865 N864 1.351 1_565 S
C865 C866 1.434 1_565 S
C866 C857 1.429 . S
C866 N863 1.350 . S
C866 C865 1.434 1_545 S
C867 C868 1.369 1_565 S
C867 C869 1.419 . S
C867 H871 0.930 . S
C868 C867 1.369 1_545 S
C868 C877 1.429 1_556 S
C869 C867 1.419 . S
C869 C870 1.363 1_556 S
C869 H872 0.929 . S
C870 C869 1.363 1_554 S
C870 C876 1.428 . S
H871 C867 0.930 . S
H872 C869 0.929 . S
S873 N874 1.613 . S
S873 N875 1.643 . S
N874 S873 1.613 . S
N874 C877 1.350 . S
N875 S873 1.643 . S
N875 C876 1.354 1_545 S
C876 C870 1.428 . S
C876 N875 1.354 1_565 S
C876 C877 1.434 1_565 S
C877 C868 1.429 1_554 S
C877 N874 1.350 . S
C877 C876 1.434 1_545 S
C878 C879 1.369 . S
C878 C880 1.419 1_455 S
C878 H882 0.930 . S
C879 C878 1.369 . S
C879 C888 1.429 1_554 S
C880 C878 1.419 1_655 S
C880 C881 1.363 1_554 S
C880 H883 0.929 . S
C881 C880 1.363 1_556 S
C881 C887 1.388 1_655 S
H882 C878 0.930 . S
H883 C880 0.929 . S
S884 N885 1.613 . S
S884 N886 1.610 . S
N885 S884 1.613 . S
N885 C888 1.350 . S
N886 S884 1.610 . S
N886 C887 1.370 . S
C887 C881 1.388 1_455 S
C887 N886 1.370 . S
C887 C888 1.461 . S
C888 C879 1.429 1_556 S
C888 N885 1.350 . S
C888 C887 1.461 . S
C889 C890 1.369 1_556 S
C889 C891 1.419 . S
C889 H893 0.930 . S
C890 C889 1.369 1_554 S
C890 C899 1.429 . S
C891 C889 1.419 . S
C891 C892 1.363 . S
C891 H894 0.929 . S
C892 C891 1.363 . S
C892 C898 1.428 1_556 S
H893 C889 0.930 . S
H894 C891 0.929 . S
S895 N896 1.613 . S
S895 N897 1.610 . S
N896 S895 1.613 . S
N896 C899 1.350 . S
N897 S895 1.610 . S
N897 C898 1.351 . S
C898 C892 1.428 1_554 S
C898 N897 1.351 . S
C898 C899 1.434 . S
C899 C890 1.429 . S
C899 N896 1.350 . S
C899 C898 1.434 . S
C900 C901 1.369 . S
C900 C902 1.419 . S
C900 H904 0.930 1_554 S
C901 C900 1.369 . S
C901 C910 1.429 . S
C902 C900 1.419 . S
C902 C903 1.363 . S
C902 H905 0.929 . S
C903 C902 1.363 . S
C903 C909 1.428 . S
H904 C900 0.930 1_556 S
H905 C902 0.929 . S
S906 N907 1.613 . S
S906 N908 1.610 . S
N907 S906 1.613 . S
N907 C910 1.350 . S
N908 S906 1.610 . S
N908 C909 1.351 . S
C909 C903 1.428 . S
C909 N908 1.351 . S
C909 C910 1.434 . S
C910 C901 1.429 . S
C910 N907 1.350 . S
C910 C909 1.434 . S
C911 C912 1.369 . S
C911 C913 1.419 . S
C911 H915 0.930 . S
C912 C911 1.369 . S
C912 C921 1.429 . S
C913 C911 1.419 . S
C913 C914 1.363 . S
C913 H916 0.929 1_554 S
C914 C913 1.363 . S
C914 C920 1.428 . S
H915 C911 0.930 . S
H916 C913 0.929 1_556 S
S917 N918 1.613 . S
S917 N919 1.610 . S
N918 S917 1.613 . S
N918 C921 1.350 . S
N919 S917 1.610 . S
N919 C920 1.351 . S
C920 C914 1.428 . S
C920 N919 1.351 . S
C920 C921 1.434 . S
C921 C912 1.429 . S
C921 N918 1.350 . S
C921 C920 1.434 . S
C922 C923 1.369 . S
C922 C924 1.419 . S
C922 H926 0.930 . S
C923 C922 1.369 . S
C923 C932 1.429 . S
C924 C922 1.419 . S
C924 C925 1.363 . S
C924 H927 0.929 1_554 S
C925 C924 1.363 . S
C925 C931 1.428 . S
H926 C922 0.930 . S
H927 C924 0.929 1_556 S
S928 N929 1.613 . S
S928 N930 1.610 . S
N929 S928 1.613 . S
N929 C932 1.350 . S
N930 S928 1.610 . S
N930 C931 1.351 . S
C931 C925 1.428 . S
C931 N930 1.351 . S
C931 C932 1.434 . S
C932 C923 1.429 . S
C932 N929 1.350 . S
C932 C931 1.434 . S
C933 C934 1.369 . S
C933 C935 1.419 . S
C933 H937 0.930 . S
C934 C933 1.369 . S
C934 C943 1.429 . S
C935 C933 1.419 . S
C935 C936 1.363 . S
C935 H938 0.929 . S
C936 C935 1.363 . S
C936 C942 1.428 . S
H937 C933 0.930 . S
H938 C935 0.929 . S
S939 N940 1.613 . S
S939 N941 1.610 . S
N940 S939 1.613 . S
N940 C943 1.350 . S
N941 S939 1.610 . S
N941 C942 1.351 . S
C942 C936 1.428 . S
C942 N941 1.351 . S
C942 C943 1.434 . S
C943 C934 1.429 . S
C943 N940 1.350 . S
C943 C942 1.434 . S
C944 C945 1.369 . S
C944 C946 1.419 . S
C944 H948 0.930 . S
C945 C944 1.369 . S
C945 C954 1.429 . S
C946 C944 1.419 . S
C946 C947 1.363 . S
C946 H949 0.929 . S
C947 C946 1.363 . S
C947 C953 1.428 . S
H948 C944 0.930 . S
H949 C946 0.929 . S
S950 N951 1.613 . S
S950 N952 1.610 . S
N951 S950 1.613 . S
N951 C954 1.350 . S
N952 S950 1.610 . S
N952 C953 1.351 . S
C953 C947 1.428 . S
C953 N952 1.351 . S
C953 C954 1.434 . S
C954 C945 1.429 . S
C954 N951 1.350 . S
C954 C953 1.434 . S
C955 C956 1.369 . S
C955 C957 1.419 . S
C955 H959 0.930 . S
C956 C955 1.369 . S
C956 C965 1.429 . S
C957 C955 1.419 . S
C957 C958 1.363 . S
C957 H960 0.929 . S
C958 C957 1.363 . S
C958 C964 1.428 . S
H959 C955 0.930 . S
H960 C957 0.929 . S
S961 N962 1.613 . S
S961 N963 1.610 . S
N962 S961 1.613 . S
N962 C965 1.350 . S
N963 S961 1.610 . S
N963 C964 1.351 . S
C964 C958 1.428 . S
C964 N963 1.351 . S
C964 C965 1.434 . S
C965 C956 1.429 . S
C965 N962 1.350 . S
C965 C964 1.434 . S
C966 C967 1.369 . S
C966 C968 1.419 . S
C966 H970 0.930 . S
C967 C966 1.369 . S
C967 C976 1.429 . S
C968 C966 1.419 . S
C968 C969 1.363 . S
C968 H971 0.929 . S
C969 C968 1.363 . S
C969 C975 1.428 . S
H970 C966 0.930 . S
H971 C968 0.929 . S
S972 N973 1.613 . S
S972 N974 1.610 1_554 S
N973 S972 1.613 . S
N973 C976 1.350 1_554 S
N974 S972 1.610 1_556 S
N974 C975 1.351 . S
C975 C969 1.428 . S
C975 N974 1.351 . S
C975 C976 1.434 . S
C976 C967 1.429 . S
C976 N973 1.350 1_556 S
C976 C975 1.434 . S
C977 C978 1.369 . S
C977 C979 1.419 . S
C977 H981 0.930 . S
C978 C977 1.369 . S
C978 C987 1.429 . S
C979 C977 1.419 . S
C979 C980 1.363 . S
C979 H982 0.929 1_556 S
C980 C979 1.363 . S
C980 C986 1.428 . S
H981 C977 0.930 . S
H982 C979 0.929 1_554 S
S983 N984 1.613 . S
S983 N985 1.610 . S
N984 S983 1.613 . S
N984 C987 1.350 . S
N985 S983 1.610 . S
N985 C986 1.351 . S
C986 C980 1.428 . S
C986 N985 1.351 . S
C986 C987 1.434 . S
C987 C978 1.429 . S
C987 N984 1.350 . S
C987 C986 1.434 . S
C988 C989 1.369 . S
C988 C990 1.419 . S
C988 H992 0.930 . S
C989 C988 1.369 . S
C989 C998 1.429 . S
C990 C988 1.419 . S
C990 C991 1.363 . S
C990 H993 0.929 . S
C991 C990 1.363 . S
C991 C997 1.428 . S
H992 C988 0.930 . S
H993 C990 0.929 . S
S994 N995 1.613 . S
S994 N996 1.610 . S
N995 S994 1.613 . S
N995 C998 1.350 1_554 S
N996 S994 1.610 . S
N996 C997 1.351 1_554 S
C997 C991 1.428 . S
C997 N996 1.351 1_556 S
C997 C998 1.434 . S
C998 C989 1.429 . S
C998 N995 1.350 1_556 S
C998 C997 1.434 . S
C999 C1000 1.369 . S
C999 C1001 1.419 . S
C999 H1003 0.930 . S
C1000 C999 1.369 . S
C1000 C1009 1.429 . S
C1001 C999 1.419 . S
C1001 C1002 1.363 . S
C1001 H1004 0.929 . S
C1002 C1001 1.363 . S
C1002 C1008 1.428 . S
H1003 C999 0.930 . S
H1004 C1001 0.929 . S
S1005 N1006 1.613 . S
S1005 N1007 1.610 . S
N1006 S1005 1.613 . S
N1006 C1009 1.350 . S
N1007 S1005 1.610 . S
N1007 C1008 1.351 . S
C1008 C1002 1.428 . S
C1008 N1007 1.351 . S
C1008 C1009 1.434 . S
C1009 C1000 1.429 . S
C1009 N1006 1.350 . S
C1009 C1008 1.434 . S
C1010 C1011 1.369 . S
C1010 C1012 1.419 . S
C1010 H1014 0.930 . S
C1011 C1010 1.369 . S
C1011 C1020 1.429 . S
C1012 C1010 1.419 . S
C1012 C1013 1.363 . S
C1012 H1015 0.929 . S
C1013 C1012 1.363 . S
C1013 C1019 1.428 . S
H1014 C1010 0.930 . S
H1015 C1012 0.929 . S
S1016 N1017 1.613 . S
S1016 N1018 1.610 . S
N1017 S1016 1.613 . S
N1017 C1020 1.350 . S
N1018 S1016 1.610 . S
N1018 C1019 1.351 . S
C1019 C1013 1.428 . S
C1019 N1018 1.351 . S
C1019 C1020 1.434 . S
C1020 C1011 1.429 . S
C1020 N1017 1.350 . S
C1020 C1019 1.434 . S
C1021 C1022 1.369 . S
C1021 C1023 1.419 . S
C1021 H1025 0.930 . S
C1022 C1021 1.369 . S
C1022 C1031 1.429 . S
C1023 C1021 1.419 . S
C1023 C1024 1.363 . S
C1023 H1026 0.929 . S
C1024 C1023 1.363 . S
C1024 C1030 1.428 . S
H1025 C1021 0.930 . S
H1026 C1023 0.929 . S
S1027 N1028 1.613 . S
S1027 N1029 1.610 . S
N1028 S1027 1.613 . S
N1028 C1031 1.350 . S
N1029 S1027 1.610 . S
N1029 C1030 1.351 . S
C1030 C1024 1.428 . S
C1030 N1029 1.351 . S
C1030 C1031 1.434 . S
C1031 C1022 1.429 . S
C1031 N1028 1.350 . S
C1031 C1030 1.434 . S
C1032 C1033 1.369 . S
C1032 C1034 1.419 . S
C1032 H1036 0.930 . S
C1033 C1032 1.369 . S
C1033 C1042 1.429 . S
C1034 C1032 1.419 . S
C1034 C1035 1.363 . S
C1034 H1037 0.929 . S
C1035 C1034 1.363 . S
C1035 C1041 1.428 . S
H1036 C1032 0.930 . S
H1037 C1034 0.929 . S
S1038 N1039 1.613 . S
S1038 N1040 1.610 . S
N1039 S1038 1.613 . S
N1039 C1042 1.350 . S
N1040 S1038 1.610 . S
N1040 C1041 1.351 . S
C1041 C1035 1.428 . S
C1041 N1040 1.351 . S
C1041 C1042 1.434 . S
C1042 C1033 1.429 . S
C1042 N1039 1.350 . S
C1042 C1041 1.434 . S
C1043 C1044 1.369 . S
C1043 C1045 1.419 . S
C1043 H1047 0.930 . S
C1044 C1043 1.369 . S
C1044 C1053 1.429 . S
C1045 C1043 1.419 . S
C1045 C1046 1.363 . S
C1045 H1048 0.929 . S
C1046 C1045 1.363 . S
C1046 C1052 1.428 . S
H1047 C1043 0.930 . S
H1048 C1045 0.929 . S
S1049 N1050 1.613 . S
S1049 N1051 1.610 . S
N1050 S1049 1.613 . S
N1050 C1053 1.350 . S
N1051 S1049 1.610 . S
N1051 C1052 1.351 . S
C1052 C1046 1.428 . S
C1052 N1051 1.351 . S
C1052 C1053 1.434 . S
C1053 C1044 1.429 . S
C1053 N1050 1.350 . S
C1053 C1052 1.434 . S
C1054 C1055 1.369 . S
C1054 C1056 1.419 1_455 S
C1054 H1058 0.930 . S
C1055 C1054 1.369 . S
C1055 C1064 1.429 1_455 S
C1056 C1054 1.419 1_655 S
C1056 C1057 1.363 . S
C1056 H1059 0.929 . S
C1057 C1056 1.363 . S
C1057 C1063 1.428 . S
H1058 C1054 0.930 . S
H1059 C1056 0.929 . S
S1060 N1061 1.613 . S
S1060 N1062 1.610 . S
N1061 S1060 1.613 . S
N1061 C1064 1.350 . S
N1062 S1060 1.610 . S
N1062 C1063 1.351 . S
C1063 C1057 1.428 . S
C1063 N1062 1.351 . S
C1063 C1064 1.434 . S
C1064 C1055 1.429 1_655 S
C1064 N1061 1.350 . S
C1064 C1063 1.434 . S
C1065 C1066 1.369 . S
C1065 C1067 1.419 . S
C1065 H1069 0.930 . S
C1066 C1065 1.369 . S
C1066 C1075 1.429 . S
C1067 C1065 1.419 . S
C1067 C1068 1.363 . S
C1067 H1070 0.929 . S
C1068 C1067 1.363 . S
C1068 C1074 1.428 . S
H1069 C1065 0.930 . S
H1070 C1067 0.929 . S
S1071 N1072 1.613 . S
S1071 N1073 1.610 . S
N1072 S1071 1.613 . S
N1072 C1075 1.350 . S
N1073 S1071 1.610 . S
N1073 C1074 1.351 . S
C1074 C1068 1.428 . S
C1074 N1073 1.351 . S
C1074 C1075 1.434 . S
C1075 C1066 1.429 . S
C1075 N1072 1.350 . S
C1075 C1074 1.434 . S
C1076 C1077 1.369 . S
C1076 C1078 1.419 . S
C1076 H1080 0.930 . S
C1077 C1076 1.369 . S
C1077 C1086 1.429 . S
C1078 C1076 1.419 . S
C1078 C1079 1.363 . S
C1078 H1081 0.929 . S
C1079 C1078 1.363 . S
C1079 C1085 1.428 . S
H1080 C1076 0.930 . S
H1081 C1078 0.929 . S
S1082 N1083 1.613 . S
S1082 N1084 1.610 1_565 S
N1083 S1082 1.613 . S
N1083 C1086 1.350 1_565 S
N1084 S1082 1.610 1_545 S
N1084 C1085 1.351 . S
C1085 C1079 1.428 . S
C1085 N1084 1.351 . S
C1085 C1086 1.434 . S
C1086 C1077 1.429 . S
C1086 N1083 1.350 1_545 S
C1086 C1085 1.434 . S
C1087 C1088 1.369 1_655 S
C1087 C1089 1.419 . S
C1087 H1091 0.930 1_655 S
C1088 C1087 1.369 1_455 S
C1088 C1097 1.429 1_455 S
C1089 C1087 1.419 . S
C1089 C1090 1.363 . S
C1089 H1092 0.929 . S
C1090 C1089 1.363 . S
C1090 C1096 1.428 . S
H1091 C1087 0.930 1_455 S
H1092 C1089 0.929 . S
S1093 N1094 1.613 . S
S1093 N1095 1.610 . S
N1094 S1093 1.613 . S
N1094 C1097 1.350 . S
N1095 S1093 1.610 . S
N1095 C1096 1.351 . S
C1096 C1090 1.428 . S
C1096 N1095 1.351 . S
C1096 C1097 1.434 . S
C1097 C1088 1.429 1_655 S
C1097 N1094 1.350 . S
C1097 C1096 1.434 . S
C1098 C1099 1.369 . S
C1098 C1100 1.419 . S
C1098 H1102 0.930 . S
C1099 C1098 1.369 . S
C1099 C1108 1.429 . S
C1100 C1098 1.419 . S
C1100 C1101 1.363 . S
C1100 H1103 0.929 . S
C1101 C1100 1.363 . S
C1101 C1107 1.428 . S
H1102 C1098 0.930 . S
H1103 C1100 0.929 . S
S1104 N1105 1.613 . S
S1104 N1106 1.610 . S
N1105 S1104 1.613 . S
N1105 C1108 1.350 . S
N1106 S1104 1.610 . S
N1106 C1107 1.351 . S
C1107 C1101 1.428 . S
C1107 N1106 1.351 . S
C1107 C1108 1.434 . S
C1108 C1099 1.429 . S
C1108 N1105 1.350 . S
C1108 C1107 1.434 . S
C1109 C1110 1.369 . S
C1109 C1111 1.419 . S
C1109 H1113 0.930 . S
C1110 C1109 1.369 . S
C1110 C1119 1.429 . S
C1111 C1109 1.419 . S
C1111 C1112 1.363 . S
C1111 H1114 0.929 . S
C1112 C1111 1.363 . S
C1112 C1118 1.428 . S
H1113 C1109 0.930 . S
H1114 C1111 0.929 . S
S1115 N1116 1.613 . S
S1115 N1117 1.610 . S
N1116 S1115 1.613 . S
N1116 C1119 1.350 . S
N1117 S1115 1.610 . S
N1117 C1118 1.351 . S
C1118 C1112 1.428 . S
C1118 N1117 1.351 . S
C1118 C1119 1.434 . S
C1119 C1110 1.429 . S
C1119 N1116 1.350 . S
C1119 C1118 1.434 . S
C1120 C1121 1.369 . S
C1120 C1122 1.419 . S
C1120 H1124 0.930 . S
C1121 C1120 1.369 . S
C1121 C1130 1.429 . S
C1122 C1120 1.419 . S
C1122 C1123 1.363 . S
C1122 H1125 0.929 . S
C1123 C1122 1.363 . S
C1123 C1129 1.428 . S
H1124 C1120 0.930 . S
H1125 C1122 0.929 . S
S1126 N1127 1.613 . S
S1126 N1128 1.610 . S
N1127 S1126 1.613 . S
N1127 C1130 1.350 . S
N1128 S1126 1.610 . S
N1128 C1129 1.351 . S
C1129 C1123 1.428 . S
C1129 N1128 1.351 . S
C1129 C1130 1.434 . S
C1130 C1121 1.429 . S
C1130 N1127 1.350 . S
C1130 C1129 1.434 . S
C1131 C1132 1.369 . S
C1131 C1133 1.419 . S
C1131 H1135 0.930 . S
C1132 C1131 1.369 . S
C1132 C1141 1.429 . S
C1133 C1131 1.419 . S
C1133 C1134 1.363 . S
C1133 H1136 0.929 . S
C1134 C1133 1.363 . S
C1134 C1140 1.428 . S
H1135 C1131 0.930 . S
H1136 C1133 0.929 . S
S1137 N1138 1.613 . S
S1137 N1139 1.610 . S
N1138 S1137 1.613 . S
N1138 C1141 1.350 . S
N1139 S1137 1.610 . S
N1139 C1140 1.351 . S
C1140 C1134 1.428 . S
C1140 N1139 1.351 . S
C1140 C1141 1.434 . S
C1141 C1132 1.429 . S
C1141 N1138 1.350 . S
C1141 C1140 1.434 . S
C1142 C1143 1.369 . S
C1142 C1144 1.419 . S
C1142 H1146 0.930 . S
C1143 C1142 1.369 . S
C1143 C1152 1.429 . S
C1144 C1142 1.419 . S
C1144 C1145 1.363 . S
C1144 H1147 0.929 . S
C1145 C1144 1.363 . S
C1145 C1151 1.428 . S
H1146 C1142 0.930 . S
H1147 C1144 0.929 . S
S1148 N1149 1.613 . S
S1148 N1150 1.610 . S
N1149 S1148 1.613 . S
N1149 C1152 1.350 . S
N1150 S1148 1.610 . S
N1150 C1151 1.351 . S
C1151 C1145 1.428 . S
C1151 N1150 1.351 . S
C1151 C1152 1.434 . S
C1152 C1143 1.429 . S
C1152 N1149 1.350 . S
C1152 C1151 1.434 . S
C1153 C1154 1.369 . S
C1153 C1155 1.419 . S
C1153 H1157 0.930 . S
C1154 C1153 1.369 . S
C1154 C1163 1.429 . S
C1155 C1153 1.419 . S
C1155 C1156 1.363 . S
C1155 H1158 0.929 . S
C1156 C1155 1.363 . S
C1156 C1162 1.428 . S
H1157 C1153 0.930 . S
H1158 C1155 0.929 . S
S1159 N1160 1.613 . S
S1159 N1161 1.610 . S
N1160 S1159 1.613 . S
N1160 C1163 1.350 . S
N1161 S1159 1.610 . S
N1161 C1162 1.351 . S
C1162 C1156 1.428 . S
C1162 N1161 1.351 . S
C1162 C1163 1.434 . S
C1163 C1154 1.429 . S
C1163 N1160 1.350 . S
C1163 C1162 1.434 . S
C1164 C1165 1.369 . S
C1164 C1166 1.419 . S
C1164 H1168 0.930 . S
C1165 C1164 1.369 . S
C1165 C1174 1.429 . S
C1166 C1164 1.419 . S
C1166 C1167 1.363 . S
C1166 H1169 0.929 . S
C1167 C1166 1.363 . S
C1167 C1173 1.428 . S
H1168 C1164 0.930 . S
H1169 C1166 0.929 . S
S1170 N1171 1.613 . S
S1170 N1172 1.610 . S
N1171 S1170 1.613 . S
N1171 C1174 1.350 . S
N1172 S1170 1.610 . S
N1172 C1173 1.351 . S
C1173 C1167 1.428 . S
C1173 N1172 1.351 . S
C1173 C1174 1.434 . S
C1174 C1165 1.429 . S
C1174 N1171 1.350 . S
C1174 C1173 1.434 . S
C1175 C1176 1.369 . S
C1175 C1177 1.419 . S
C1175 H1179 0.930 . S
C1176 C1175 1.369 . S
C1176 C1185 1.429 . S
C1177 C1175 1.419 . S
C1177 C1178 1.363 . S
C1177 H1180 0.929 . S
C1178 C1177 1.363 . S
C1178 C1184 1.428 . S
H1179 C1175 0.930 . S
H1180 C1177 0.929 . S
S1181 N1182 1.613 . S
S1181 N1183 1.610 . S
N1182 S1181 1.613 . S
N1182 C1185 1.350 . S
N1183 S1181 1.610 . S
N1183 C1184 1.351 . S
C1184 C1178 1.428 . S
C1184 N1183 1.351 . S
C1184 C1185 1.434 . S
C1185 C1176 1.429 . S
C1185 N1182 1.350 . S
C1185 C1184 1.434 . S
C1186 C1187 1.369 . S
C1186 C1188 1.419 . S
C1186 H1190 0.930 . S
C1187 C1186 1.369 . S
C1187 C1196 1.429 . S
C1188 C1186 1.419 . S
C1188 C1189 1.363 . S
C1188 H1191 0.929 . S
C1189 C1188 1.363 . S
C1189 C1195 1.428 . S
H1190 C1186 0.930 . S
H1191 C1188 0.929 . S
S1192 N1193 1.613 . S
S1192 N1194 1.610 . S
N1193 S1192 1.613 . S
N1193 C1196 1.350 . S
N1194 S1192 1.610 . S
N1194 C1195 1.351 . S
C1195 C1189 1.428 . S
C1195 N1194 1.351 . S
C1195 C1196 1.434 . S
C1196 C1187 1.429 . S
C1196 N1193 1.350 . S
C1196 C1195 1.434 . S
C1197 C1198 1.369 . S
C1197 C1199 1.419 . S
C1197 H1201 0.930 . S
C1198 C1197 1.369 . S
C1198 C1207 1.429 . S
C1199 C1197 1.419 . S
C1199 C1200 1.363 . S
C1199 H1202 0.929 . S
C1200 C1199 1.363 . S
C1200 C1206 1.428 . S
H1201 C1197 0.930 . S
H1202 C1199 0.929 . S
S1203 N1204 1.613 . S
S1203 N1205 1.610 . S
N1204 S1203 1.613 . S
N1204 C1207 1.350 . S
N1205 S1203 1.610 . S
N1205 C1206 1.351 . S
C1206 C1200 1.428 . S
C1206 N1205 1.351 . S
C1206 C1207 1.434 . S
C1207 C1198 1.429 . S
C1207 N1204 1.350 . S
C1207 C1206 1.434 . S
C1208 C1209 1.369 . S
C1208 C1210 1.419 . S
C1208 H1212 0.930 . S
C1209 C1208 1.369 . S
C1209 C1218 1.429 . S
C1210 C1208 1.419 . S
C1210 C1211 1.363 . S
C1210 H1213 0.929 . S
C1211 C1210 1.363 . S
C1211 C1217 1.428 . S
H1212 C1208 0.930 . S
H1213 C1210 0.929 . S
S1214 N1215 1.613 . S
S1214 N1216 1.610 . S
N1215 S1214 1.613 . S
N1215 C1218 1.350 . S
N1216 S1214 1.610 . S
N1216 C1217 1.351 . S
C1217 C1211 1.428 . S
C1217 N1216 1.351 . S
C1217 C1218 1.434 . S
C1218 C1209 1.429 . S
C1218 N1215 1.350 . S
C1218 C1217 1.434 . S
C1219 C1220 1.369 . S
C1219 C1221 1.419 . S
C1219 H1223 0.930 . S
C1220 C1219 1.369 . S
C1220 C1229 1.429 . S
C1221 C1219 1.419 . S
C1221 C1222 1.363 . S
C1221 H1224 0.929 . S
C1222 C1221 1.363 . S
C1222 C1228 1.428 . S
H1223 C1219 0.930 . S
H1224 C1221 0.929 . S
S1225 N1226 1.613 . S
S1225 N1227 1.610 . S
N1226 S1225 1.613 . S
N1226 C1229 1.350 . S
N1227 S1225 1.610 . S
N1227 C1228 1.351 . S
C1228 C1222 1.428 . S
C1228 N1227 1.351 . S
C1228 C1229 1.434 . S
C1229 C1220 1.429 . S
C1229 N1226 1.350 . S
C1229 C1228 1.434 . S
C1230 C1231 1.369 . S
C1230 C1232 1.419 . S
C1230 H1234 0.930 1_655 S
C1231 C1230 1.369 . S
C1231 C1240 1.429 . S
C1232 C1230 1.419 . S
C1232 C1233 1.363 . S
C1232 H1235 0.929 1_655 S
C1233 C1232 1.363 . S
C1233 C1239 1.428 . S
H1234 C1230 0.930 1_455 S
H1235 C1232 0.929 1_455 S
S1236 N1237 1.613 . S
S1236 N1238 1.610 . S
N1237 S1236 1.613 . S
N1237 C1240 1.350 . S
N1238 S1236 1.610 . S
N1238 C1239 1.351 . S
C1239 C1233 1.428 . S
C1239 N1238 1.351 . S
C1239 C1240 1.434 . S
C1240 C1231 1.429 . S
C1240 N1237 1.350 . S
C1240 C1239 1.434 . S
C1241 C1242 1.369 . S
C1241 C1243 1.419 . S
C1241 H1245 0.930 . S
C1242 C1241 1.369 . S
C1242 C1251 1.429 . S
C1243 C1241 1.419 . S
C1243 C1244 1.363 . S
C1243 H1246 0.929 . S
C1244 C1243 1.363 . S
C1244 C1250 1.428 . S
H1245 C1241 0.930 . S
H1246 C1243 0.929 . S
S1247 N1248 1.613 . S
S1247 N1249 1.610 . S
N1248 S1247 1.613 . S
N1248 C1251 1.350 . S
N1249 S1247 1.610 . S
N1249 C1250 1.351 . S
C1250 C1244 1.428 . S
C1250 N1249 1.351 . S
C1250 C1251 1.434 . S
C1251 C1242 1.429 . S
C1251 N1248 1.350 . S
C1251 C1250 1.434 . S
C1252 C1253 1.369 . S
C1252 C1254 1.419 . S
C1252 H1256 0.930 . S
C1253 C1252 1.369 . S
C1253 C1262 1.429 . S
C1254 C1252 1.419 . S
C1254 C1255 1.363 . S
C1254 H1257 0.929 . S
C1255 C1254 1.363 . S
C1255 C1261 1.428 . S
H1256 C1252 0.930 . S
H1257 C1254 0.929 . S
S1258 N1259 1.613 . S
S1258 N1260 1.610 . S
N1259 S1258 1.613 . S
N1259 C1262 1.350 . S
N1260 S1258 1.610 . S
N1260 C1261 1.351 . S
C1261 C1255 1.428 . S
C1261 N1260 1.351 . S
C1261 C1262 1.434 . S
C1262 C1253 1.429 . S
C1262 N1259 1.350 . S
C1262 C1261 1.434 . S
C1263 C1264 1.369 . S
C1263 C1265 1.419 . S
C1263 H1267 0.930 . S
C1264 C1263 1.369 . S
C1264 C1273 1.429 . S
C1265 C1263 1.419 . S
C1265 C1266 1.363 . S
C1265 H1268 0.929 . S
C1266 C1265 1.363 . S
C1266 C1272 1.428 . S
H1267 C1263 0.930 . S
H1268 C1265 0.929 . S
S1269 N1270 1.613 1_565 S
S1269 N1271 1.610 . S
N1270 S1269 1.613 1_545 S
N1270 C1273 1.351 . S
N1271 S1269 1.610 . S
N1271 C1272 1.351 1_565 S
C1272 C1266 1.428 . S
C1272 N1271 1.351 1_545 S
C1272 C1273 1.434 . S
C1273 C1264 1.429 . S
C1273 N1270 1.351 . S
C1273 C1272 1.434 . S
C1274 C1275 1.369 . S
C1274 C1276 1.419 . S
C1274 H1278 0.930 . S
C1275 C1274 1.369 . S
C1275 C1284 1.429 . S
C1276 C1274 1.419 . S
C1276 C1277 1.363 . S
C1276 H1279 0.929 . S
C1277 C1276 1.363 . S
C1277 C1283 1.428 . S
H1278 C1274 0.930 . S
H1279 C1276 0.929 . S
S1280 N1281 1.613 . S
S1280 N1282 1.610 . S
N1281 S1280 1.613 . S
N1281 C1284 1.350 . S
N1282 S1280 1.610 . S
N1282 C1283 1.351 . S
C1283 C1277 1.428 . S
C1283 N1282 1.351 . S
C1283 C1284 1.434 . S
C1284 C1275 1.429 . S
C1284 N1281 1.350 . S
C1284 C1283 1.434 . S
C1285 C1286 1.369 . S
C1285 C1287 1.419 . S
C1285 H1289 0.930 . S
C1286 C1285 1.369 . S
C1286 C1295 1.429 . S
C1287 C1285 1.419 . S
C1287 C1288 1.363 . S
C1287 H1290 0.929 . S
C1288 C1287 1.363 . S
C1288 C1294 1.428 . S
H1289 C1285 0.930 . S
H1290 C1287 0.929 . S
S1291 N1292 1.613 . S
S1291 N1293 1.610 . S
N1292 S1291 1.613 . S
N1292 C1295 1.350 . S
N1293 S1291 1.610 . S
N1293 C1294 1.351 . S
C1294 C1288 1.428 . S
C1294 N1293 1.351 . S
C1294 C1295 1.434 . S
C1295 C1286 1.429 . S
C1295 N1292 1.350 . S
C1295 C1294 1.434 . S
C505 C232 1.592 . S
C507 C3 1.553 . S
C516 C241 1.501 . S
C518 C22 1.526 . S
C527 C213 1.673 . S
C529 C31 1.682 . S
C538 C367 1.709 1_554 S
C540 C45 1.712 . S
C549 C64 1.566 . S
C551 C339 1.508 . S
C560 C73 1.485 . S
C562 C358 1.518 1_554 S
C571 C92 1.393 . S
C573 C484 1.402 . S
C582 C498 1.385 . S
C584 C106 1.381 . S
C593 C470 1.749 . S
C595 C120 1.760 . S
C604 C134 1.399 . S
C606 C288 1.404 1_556 S
C615 C260 1.405 1_556 S
C617 C148 1.410 . S
C626 C162 1.348 . S
C628 C274 1.349 1_556 S
C637 C400 1.522 . S
C639 C171 1.478 . S
C648 C190 1.473 . S
C650 C409 1.448 . S
C659 C381 1.593 . S
C661 C199 1.598 . S
C670 C456 1.322 . S
C672 C302 1.320 . S
C681 C428 1.341 . S
C683 C316 1.343 . S
C692 C330 1.344 . S
C694 C442 1.329 . S
C703 C259 1.262 . S
C705 C9 1.239 . S
C714 C273 1.478 . S
C716 C21 1.467 . S
C725 C287 2.344 . S
C727 C37 2.050 . S
C736 C51 1.323 . S
C738 C469 1.375 . S
C747 C63 2.299 . S
C749 C483 2.243 . S
C758 C79 1.404 . S
C760 C497 1.462 . S
C769 C91 1.258 . S
C771 C345 1.230 . S
C780 C357 1.504 . S
C782 C105 1.521 . S
C791 C373 1.460 . S
C793 C119 1.677 . S
C802 C219 1.270 . S
C804 C133 1.290 . S
C813 C147 2.250 . S
C815 C231 2.330 . S
C824 C161 1.554 . S
C826 C247 1.489 . S
C835 C177 1.255 . S
C837 C427 1.342 . S
C846 C441 1.387 . S
C848 C189 1.380 . S
C857 C455 1.991 . S
C859 C205 1.684 . S
C868 C387 1.332 . S
C870 C301 1.370 1_554 S
C879 C315 2.015 1_554 S
C881 C399 2.054 1_556 S
C890 C329 1.822 1_554 S
C892 C415 1.786 . S
C901 C386 1.538 . S
C903 C8 1.538 . S
C912 C17 1.572 . S
C914 C395 1.461 . S
C923 C36 1.686 . S
C925 C414 1.828 . S
C934 C176 1.505 . S
C936 C50 1.496 . S
C945 C59 1.416 . S
C947 C185 1.612 . S
C956 C78 1.713 . S
C958 C204 1.608 . S
C967 C297 1.487 . S
C969 C87 1.530 . S
C978 C101 1.715 . S
C980 C311 1.516 . S
C989 C325 1.476 . S
C991 C115 1.690 . S
C1000 C129 1.479 . S
C1002 C423 1.463 . S
C1011 C437 2.023 . S
C1013 C143 1.710 . S
C1022 C451 1.371 . S
C1024 C157 1.385 . S
C1033 C344 1.591 . S
C1035 C218 1.587 . S
C1044 C353 1.599 1_545 S
C1046 C227 1.466 . S
C1055 C372 1.527 . S
C1057 C246 1.588 . S
C1066 C255 1.501 . S
C1068 C465 1.462 . S
C1077 C479 1.647 1_545 S
C1079 C269 1.919 . S
C1088 C493 1.675 . S
C1090 C283 1.477 . S
C1099 C7 1.175 1_556 S
C1101 C233 1.128 . S
C1110 C23 1.108 1_556 S
C1112 C245 1.202 . S
C1121 C35 1.336 1_556 S
C1123 C217 1.315 . S
C1132 C371 1.357 . S
C1134 C49 1.353 . S
C1143 C343 1.192 . S
C1145 C65 1.135 . S
C1154 C359 1.118 . S
C1156 C77 1.203 . S
C1165 C485 0.962 . S
C1167 C93 0.954 1_554 S
C1176 C499 0.998 . S
C1178 C107 1.012 1_554 S
C1187 C471 1.348 . S
C1189 C121 1.355 1_554 S
C1198 C135 0.980 . S
C1200 C289 1.001 . S
C1209 C149 1.022 . S
C1211 C261 0.995 . S
C1220 C163 0.991 . S
C1222 C275 0.985 . S
C1231 C401 1.125 . S
C1233 C175 1.205 . S
C1242 C413 1.243 . S
C1244 C191 1.151 . S
C1253 C203 1.389 . S
C1255 C385 1.377 . S
C1264 C303 1.026 . S
C1266 C457 1.055 . S
C1275 C429 1.008 . S
C1277 C317 1.013 . S
C1286 C443 1.013 . S
C1288 C331 0.999 . S
