# Generated by pormake.
# Topology whk, (6)-cn, num edge types: 1
# Building blocks:
#     Node 0, Type 0, BuildingBlock: IZENUY_clean_sbu_0, # of connection points: 6
#     Node 1, Type 0, BuildingBlock: IZENUY_clean_sbu_0, # of connection points: 6
#     Node 2, Type 0, BuildingBlock: IZENUY_clean_sbu_0, # of connection points: 6
#     Node 3, Type 0, BuildingBlock: IZENUY_clean_sbu_0, # of connection points: 6
#     Node 4, Type 0, BuildingBlock: IZENUY_clean_sbu_0, # of connection points: 6
#     Node 5, Type 0, BuildingBlock: IZENUY_clean_sbu_0, # of connection points: 6
#     Node 6, Type 0, BuildingBlock: IZENUY_clean_sbu_0, # of connection points: 6
#     Node 7, Type 0, BuildingBlock: IZENUY_clean_sbu_0, # of connection points: 6
#     Node 8, Type 0, BuildingBlock: IZENUY_clean_sbu_0, # of connection points: 6
#     Node 9, Type 0, BuildingBlock: IZENUY_clean_sbu_0, # of connection points: 6
#     Node 10, Type 0, BuildingBlock: IZENUY_clean_sbu_0, # of connection points: 6
#     Node 11, Type 0, BuildingBlock: IZENUY_clean_sbu_0, # of connection points: 6
#     Node 12, Type 0, BuildingBlock: IZENUY_clean_sbu_0, # of connection points: 6
#     Node 13, Type 0, BuildingBlock: IZENUY_clean_sbu_0, # of connection points: 6
#     Node 14, Type 0, BuildingBlock: IZENUY_clean_sbu_0, # of connection points: 6
#     Node 15, Type 0, BuildingBlock: IZENUY_clean_sbu_0, # of connection points: 6
#     Edge 16, Type (0, 0), BuildingBlock: AJUNOK_clean_linker_0, # of connection points: 2
#     Edge 17, Type (0, 0), BuildingBlock: AJUNOK_clean_linker_0, # of connection points: 2
#     Edge 18, Type (0, 0), BuildingBlock: AJUNOK_clean_linker_0, # of connection points: 2
#     Edge 19, Type (0, 0), BuildingBlock: AJUNOK_clean_linker_0, # of connection points: 2
#     Edge 20, Type (0, 0), BuildingBlock: AJUNOK_clean_linker_0, # of connection points: 2
#     Edge 21, Type (0, 0), BuildingBlock: AJUNOK_clean_linker_0, # of connection points: 2
#     Edge 22, Type (0, 0), BuildingBlock: AJUNOK_clean_linker_0, # of connection points: 2
#     Edge 23, Type (0, 0), BuildingBlock: AJUNOK_clean_linker_0, # of connection points: 2
#     Edge 24, Type (0, 0), BuildingBlock: AJUNOK_clean_linker_0, # of connection points: 2
#     Edge 25, Type (0, 0), BuildingBlock: AJUNOK_clean_linker_0, # of connection points: 2
#     Edge 26, Type (0, 0), BuildingBlock: AJUNOK_clean_linker_0, # of connection points: 2
#     Edge 27, Type (0, 0), BuildingBlock: AJUNOK_clean_linker_0, # of connection points: 2
#     Edge 28, Type (0, 0), BuildingBlock: AJUNOK_clean_linker_0, # of connection points: 2
#     Edge 29, Type (0, 0), BuildingBlock: AJUNOK_clean_linker_0, # of connection points: 2
#     Edge 30, Type (0, 0), BuildingBlock: AJUNOK_clean_linker_0, # of connection points: 2
#     Edge 31, Type (0, 0), BuildingBlock: AJUNOK_clean_linker_0, # of connection points: 2
#     Edge 32, Type (0, 0), BuildingBlock: AJUNOK_clean_linker_0, # of connection points: 2
#     Edge 33, Type (0, 0), BuildingBlock: AJUNOK_clean_linker_0, # of connection points: 2
#     Edge 34, Type (0, 0), BuildingBlock: AJUNOK_clean_linker_0, # of connection points: 2
#     Edge 35, Type (0, 0), BuildingBlock: AJUNOK_clean_linker_0, # of connection points: 2
#     Edge 36, Type (0, 0), BuildingBlock: AJUNOK_clean_linker_0, # of connection points: 2
#     Edge 37, Type (0, 0), BuildingBlock: AJUNOK_clean_linker_0, # of connection points: 2
#     Edge 38, Type (0, 0), BuildingBlock: AJUNOK_clean_linker_0, # of connection points: 2
#     Edge 39, Type (0, 0), BuildingBlock: AJUNOK_clean_linker_0, # of connection points: 2
#     Edge 40, Type (0, 0), BuildingBlock: AJUNOK_clean_linker_0, # of connection points: 2
#     Edge 41, Type (0, 0), BuildingBlock: AJUNOK_clean_linker_0, # of connection points: 2
#     Edge 42, Type (0, 0), BuildingBlock: AJUNOK_clean_linker_0, # of connection points: 2
#     Edge 43, Type (0, 0), BuildingBlock: AJUNOK_clean_linker_0, # of connection points: 2
#     Edge 44, Type (0, 0), BuildingBlock: AJUNOK_clean_linker_0, # of connection points: 2
#     Edge 45, Type (0, 0), BuildingBlock: AJUNOK_clean_linker_0, # of connection points: 2
#     Edge 46, Type (0, 0), BuildingBlock: AJUNOK_clean_linker_0, # of connection points: 2
#     Edge 47, Type (0, 0), BuildingBlock: AJUNOK_clean_linker_0, # of connection points: 2
#     Edge 48, Type (0, 0), BuildingBlock: AJUNOK_clean_linker_0, # of connection points: 2
#     Edge 49, Type (0, 0), BuildingBlock: AJUNOK_clean_linker_0, # of connection points: 2
#     Edge 50, Type (0, 0), BuildingBlock: AJUNOK_clean_linker_0, # of connection points: 2
#     Edge 51, Type (0, 0), BuildingBlock: AJUNOK_clean_linker_0, # of connection points: 2
#     Edge 52, Type (0, 0), BuildingBlock: AJUNOK_clean_linker_0, # of connection points: 2
#     Edge 53, Type (0, 0), BuildingBlock: AJUNOK_clean_linker_0, # of connection points: 2
#     Edge 54, Type (0, 0), BuildingBlock: AJUNOK_clean_linker_0, # of connection points: 2
#     Edge 55, Type (0, 0), BuildingBlock: AJUNOK_clean_linker_0, # of connection points: 2
#     Edge 56, Type (0, 0), BuildingBlock: AJUNOK_clean_linker_0, # of connection points: 2
#     Edge 57, Type (0, 0), BuildingBlock: AJUNOK_clean_linker_0, # of connection points: 2
#     Edge 58, Type (0, 0), BuildingBlock: AJUNOK_clean_linker_0, # of connection points: 2
#     Edge 59, Type (0, 0), BuildingBlock: AJUNOK_clean_linker_0, # of connection points: 2
#     Edge 60, Type (0, 0), BuildingBlock: AJUNOK_clean_linker_0, # of connection points: 2
#     Edge 61, Type (0, 0), BuildingBlock: AJUNOK_clean_linker_0, # of connection points: 2
#     Edge 62, Type (0, 0), BuildingBlock: AJUNOK_clean_linker_0, # of connection points: 2
#     Edge 63, Type (0, 0), BuildingBlock: AJUNOK_clean_linker_0, # of connection points: 2
# Relax obj value: 0.292
# Max RMSD: 0.220
# Mean RMSD: 0.220
data_MOF--net-whk--node1-IZENUY_clean_sbu_0--edge1-AJUNOK_clean_linker_0
_symmetry_space_group_name_H-M    P1
_symmetry_Int_Tables_number       1
_symmetry_cell_setting            triclinic
loop_
_symmetry_equiv_pos_as_xyz
'x, y, z'
_cell_length_a     26.914927
_cell_length_b     26.950686
_cell_length_c     36.296606
_cell_angle_alpha  90.071862
_cell_angle_beta   90.191108
_cell_angle_gamma 90.076201
loop_
_atom_site_label
_atom_site_type_symbol
_atom_site_fract_x
_atom_site_fract_y
_atom_site_fract_z
_atom_type_partial_charge
Fe0 Fe 0.57959 0.15985 0.4379 0.0
Fe1 Fe 0.51631 0.22849 0.48699 0.0
O2 O 0.55887 0.21986 0.45064 0.0
Fe3 Fe 0.58246 0.27292 0.42708 0.0
O4 O 0.6413 0.2611 0.44642 0.0
O5 O 0.64475 0.1815 0.43207 0.0
O6 O 0.5986 0.14373 0.48369 0.0
C7 C 0.57723 0.14978 0.51395 0.0
C8 C 0.58895 0.19739 0.37045 0.0
O9 O 0.53944 0.17754 0.51665 0.0
C10 C 0.48634 0.29803 0.4308 0.0
O11 O 0.51777 0.13034 0.44271 0.0
O12 O 0.47045 0.18991 0.46501 0.0
O13 O 0.60106 0.23952 0.38352 0.0
O14 O 0.56295 0.16977 0.39026 0.0
C15 C 0.5753 0.30901 0.49979 0.0
O16 O 0.48628 0.28112 0.46361 0.0
O17 O 0.52152 0.28808 0.40866 0.0
C18 C 0.47507 0.14867 0.44909 0.0
O19 O 0.5591 0.26836 0.51188 0.0
O20 O 0.5742 0.31755 0.46551 0.0
C21 C 0.66457 0.22096 0.44491 0.0
Fe22 Fe 0.29181 0.51685 0.48574 0.0
Fe23 Fe 0.24802 0.57858 0.42276 0.0
O24 O 0.30053 0.55842 0.44873 0.0
Fe25 Fe 0.3606 0.5808 0.43777 0.0
O26 O 0.37206 0.60343 0.48361 0.0
O27 O 0.34256 0.54116 0.51548 0.0
O28 O 0.25094 0.5599 0.50912 0.0
C29 C 0.2107 0.57572 0.49565 0.0
C30 C 0.37342 0.47745 0.4503 0.0
O31 O 0.20281 0.57282 0.46117 0.0
C32 C 0.32702 0.58243 0.36841 0.0
O33 O 0.23949 0.4853 0.46309 0.0
O34 O 0.23443 0.51608 0.40678 0.0
O35 O 0.39168 0.52069 0.44627 0.0
O36 O 0.33114 0.47136 0.46439 0.0
C37 C 0.29669 0.66353 0.4378 0.0
O38 O 0.28341 0.59376 0.37918 0.0
O39 O 0.35488 0.56047 0.39066 0.0
C40 C 0.2234 0.48283 0.43014 0.0
O41 O 0.25732 0.63912 0.43909 0.0
O42 O 0.33777 0.64442 0.42796 0.0
C43 C 0.36697 0.58135 0.51374 0.0
Fe44 Fe 0.94326 0.24727 0.42295 0.0
Fe45 Fe 0.9394 0.35936 0.43844 0.0
O46 O 0.96175 0.29956 0.44973 0.0
Fe47 Fe 1.00239 0.29099 0.48747 0.0
O48 O 0.9589 0.24968 0.50975 0.0
O49 O 0.94818 0.20171 0.46143 0.0
O50 O 0.88192 0.25518 0.43757 0.0
C51 C 0.85685 0.29383 0.43441 0.0
C52 C 0.03903 0.22408 0.43223 0.0
O53 O 0.87603 0.33595 0.42717 0.0
C54 C 0.04235 0.37287 0.45281 0.0
O55 O 0.92898 0.28304 0.37936 0.0
O56 O 0.96194 0.35411 0.39204 0.0
O57 O 0.03521 0.23917 0.46533 0.0
O58 O 1.00653 0.23546 0.40834 0.0
C59 C 0.93579 0.36463 0.51422 0.0
O60 O 0.99908 0.39099 0.4484 0.0
O61 O 0.04824 0.33075 0.46711 0.0
C62 C 0.9402 0.32692 0.36927 0.0
O63 O 0.91486 0.37001 0.48362 0.0
O64 O 0.97649 0.34117 0.51674 0.0
C65 C 0.94395 0.2094 0.49588 0.0
Fe66 Fe 0.22641 0.9977 0.48637 0.0
Fe67 Fe 0.27063 0.93631 0.42363 0.0
O68 O 0.2177 0.9577 0.44837 0.0
Fe69 Fe 0.15747 0.93777 0.43522 0.0
O70 O 0.14288 0.91452 0.48014 0.0
O71 O 0.17418 0.97358 0.51459 0.0
O72 O 0.26481 0.95232 0.50946 0.0
C73 C 0.30514 0.93578 0.49699 0.0
C74 C 0.14728 0.04111 0.45003 0.0
O75 O 0.31512 0.94088 0.46304 0.0
C76 C 0.1934 0.93427 0.36742 0.0
O77 O 0.28023 0.0287 0.46506 0.0
O78 O 0.28618 0.99855 0.40843 0.0
O79 O 0.12819 0.99872 0.44368 0.0
O80 O 0.18903 0.04523 0.46551 0.0
C81 C 0.21862 0.85257 0.4358 0.0
O82 O 0.23638 0.9221 0.3792 0.0
O83 O 0.1666 0.95893 0.38868 0.0
C84 C 0.29643 0.03173 0.43217 0.0
O85 O 0.25868 0.8757 0.43934 0.0
O86 O 0.17856 0.87348 0.42545 0.0
C87 C 0.14812 0.93458 0.51107 0.0
Fe88 Fe 0.0153 0.79571 0.1366 0.0
Fe89 Fe 0.07431 0.74413 0.19721 0.0
O90 O 0.05687 0.79931 0.17404 0.0
Fe91 Fe 0.08202 0.85721 0.18737 0.0
O92 O 0.10699 0.86832 0.14207 0.0
O93 O 0.04034 0.84943 0.11061 0.0
O94 O 0.05817 0.75763 0.11134 0.0
C95 C 0.07211 0.71528 0.12167 0.0
C96 C 0.97917 0.87343 0.1765 0.0
O97 O 0.06842 0.70309 0.15558 0.0
C98 C 0.08038 0.81958 0.25512 0.0
O99 O 0.98264 0.74145 0.15522 0.0
O100 O 0.0112 0.7314 0.21166 0.0
O101 O 0.02308 0.89118 0.17869 0.0
O102 O 0.9711 0.83273 0.16064 0.0
C103 C 0.16184 0.78857 0.19016 0.0
O104 O 0.08929 0.7759 0.24283 0.0
O105 O 0.05999 0.85 0.2339 0.0
C106 C 0.97856 0.7229 0.18726 0.0
O107 O 0.13524 0.7523 0.18254 0.0
O108 O 0.14426 0.83106 0.19811 0.0
C109 C 0.0839 0.86709 0.11206 0.0
Fe110 Fe 0.7301 0.0104 0.14114 0.0
Fe111 Fe 0.77531 0.07791 0.19967 0.0
O112 O 0.72213 0.05419 0.17668 0.0
Fe113 Fe 0.66257 0.07596 0.18908 0.0
O114 O 0.6476 0.09481 0.14322 0.0
O115 O 0.67762 0.03202 0.11188 0.0
O116 O 0.76873 0.05251 0.115 0.0
C117 C 0.80942 0.06976 0.12647 0.0
C118 C 0.65094 0.9717 0.17964 0.0
O119 O 0.81918 0.06884 0.16071 0.0
C120 C 0.70011 0.08515 0.25648 0.0
O121 O 0.78399 0.98171 0.16438 0.0
O122 O 0.79003 0.01807 0.21896 0.0
O123 O 0.63233 0.01471 0.18384 0.0
O124 O 0.6927 0.9658 0.16482 0.0
C125 C 0.72486 0.16031 0.1833 0.0
O126 O 0.7422 0.09725 0.24326 0.0
O127 O 0.67212 0.05928 0.23668 0.0
C128 C 0.80038 0.98261 0.19742 0.0
O129 O 0.76352 0.13543 0.17956 0.0
O130 O 0.68493 0.14076 0.19541 0.0
C131 C 0.65148 0.07113 0.1137 0.0
Fe132 Fe 0.44003 0.65772 0.18005 0.0
Fe133 Fe 0.50549 0.72805 0.13432 0.0
O134 O 0.46318 0.71782 0.17063 0.0
Fe135 Fe 0.44286 0.76923 0.19723 0.0
O136 O 0.38333 0.76147 0.17917 0.0
O137 O 0.3764 0.68091 0.18869 0.0
O138 O 0.41862 0.64871 0.13363 0.0
C139 C 0.44026 0.6564 0.1037 0.0
C140 C 0.43566 0.6887 0.24998 0.0
O141 O 0.48156 0.67894 0.10295 0.0
C142 C 0.53896 0.79199 0.19283 0.0
O143 O 0.50063 0.62721 0.17246 0.0
O144 O 0.54993 0.68821 0.1552 0.0
O145 O 0.42519 0.73257 0.23954 0.0
O146 O 0.4582 0.66112 0.22789 0.0
C147 C 0.44801 0.80964 0.12542 0.0
O148 O 0.53694 0.77896 0.15909 0.0
O149 O 0.50472 0.78015 0.21503 0.0
C150 C 0.54364 0.64668 0.17002 0.0
O151 O 0.46307 0.76965 0.11148 0.0
O152 O 0.45077 0.81626 0.16006 0.0
C153 C 0.35802 0.72266 0.1795 0.0
Fe154 Fe 0.85408 0.43834 0.18755 0.0
Fe155 Fe 0.78181 0.4993 0.14028 0.0
O156 O 0.79357 0.46088 0.17866 0.0
Fe157 Fe 0.74342 0.44479 0.20802 0.0
O158 O 0.74961 0.38317 0.19508 0.0
O159 O 0.83108 0.37594 0.20171 0.0
O160 O 0.8595 0.41148 0.14214 0.0
C161 C 0.85203 0.43181 0.11156 0.0
C162 C 0.82744 0.44239 0.25826 0.0
O163 O 0.8303 0.47329 0.10973 0.0
C164 C 0.72089 0.53952 0.1972 0.0
O165 O 0.88493 0.49799 0.17479 0.0
O166 O 0.82231 0.54563 0.15801 0.0
O167 O 0.78227 0.43296 0.25039 0.0
O168 O 0.85378 0.46221 0.23399 0.0
C169 C 0.70021 0.44044 0.13667 0.0
O170 O 0.73159 0.53276 0.16351 0.0
O171 O 0.73385 0.50851 0.2214 0.0
C172 C 0.86606 0.54093 0.16945 0.0
O173 O 0.73935 0.45441 0.12075 0.0
O174 O 0.69491 0.44751 0.17115 0.0
C175 C 0.78741 0.35751 0.19997 0.0
Fe176 Fe 0.44015 0.85729 0.68851 0.0
Fe177 Fe 0.50328 0.7883 0.63983 0.0
O178 O 0.46258 0.7974 0.67729 0.0
Fe179 Fe 0.44297 0.74494 0.70342 0.0
O180 O 0.38297 0.75291 0.68648 0.0
O181 O 0.37641 0.83351 0.69679 0.0
O182 O 0.41767 0.86891 0.6429 0.0
C183 C 0.43652 0.86056 0.61208 0.0
C184 C 0.4354 0.82447 0.75736 0.0
O185 O 0.47723 0.8373 0.60946 0.0
C186 C 0.53901 0.72261 0.69672 0.0
O187 O 0.50065 0.88832 0.68095 0.0
O188 O 0.54876 0.82864 0.6597 0.0
O189 O 0.42553 0.78053 0.74654 0.0
O190 O 0.45952 0.8515 0.73592 0.0
C191 C 0.44624 0.70588 0.63088 0.0
O192 O 0.53613 0.7374 0.66341 0.0
O193 O 0.50553 0.7336 0.71991 0.0
C194 C 0.54355 0.86998 0.67523 0.0
O195 O 0.46023 0.74656 0.61749 0.0
O196 O 0.44995 0.69855 0.6654 0.0
C197 C 0.35806 0.79194 0.68672 0.0
Fe198 Fe 0.6593 0.43703 0.69194 0.0
Fe199 Fe 0.72834 0.49935 0.64297 0.0
O200 O 0.71952 0.45751 0.67969 0.0
Fe201 Fe 0.77224 0.43477 0.70414 0.0
O202 O 0.7604 0.37546 0.68639 0.0
O203 O 0.68065 0.37238 0.70002 0.0
O204 O 0.64489 0.41582 0.64641 0.0
C205 C 0.65062 0.43715 0.6161 0.0
C206 C 0.69567 0.43205 0.76019 0.0
O207 O 0.67645 0.47641 0.61378 0.0
C208 C 0.7985 0.53003 0.6985 0.0
O209 O 0.6298 0.49825 0.68493 0.0
O210 O 0.69081 0.54564 0.66495 0.0
O211 O 0.738 0.41879 0.74801 0.0
O212 O 0.66818 0.45623 0.73904 0.0
C213 C 0.80776 0.4392 0.63084 0.0
O214 O 0.78189 0.52909 0.6656 0.0
O215 O 0.78774 0.49602 0.72127 0.0
C216 C 0.64891 0.54089 0.67982 0.0
O217 O 0.76724 0.45572 0.61855 0.0
O218 O 0.81672 0.44093 0.6652 0.0
C219 C 0.72019 0.35239 0.68779 0.0
Fe220 Fe 0.07973 0.65903 0.68478 0.0
Fe221 Fe 0.01138 0.72335 0.63645 0.0
O222 O 0.0538 0.71729 0.67325 0.0
Fe223 Fe 0.0714 0.771 0.69842 0.0
O224 O 0.13105 0.76551 0.68068 0.0
O225 O 0.14234 0.68627 0.69369 0.0
O226 O 0.10223 0.64814 0.63914 0.0
C227 C 0.07967 0.65165 0.60907 0.0
C228 C 0.08221 0.6928 0.75347 0.0
O229 O 0.0381 0.67365 0.60707 0.0
C230 C 0.97496 0.7903 0.69216 0.0
O231 O 0.02096 0.62458 0.67712 0.0
O232 O 0.96853 0.68221 0.65836 0.0
O233 O 0.09088 0.73683 0.74209 0.0
O234 O 0.05991 0.66414 0.73203 0.0
C235 C 0.06565 0.80721 0.6254 0.0
O236 O 0.97748 0.77425 0.65915 0.0
O237 O 0.00885 0.78009 0.71531 0.0
C238 C 0.97684 0.64094 0.67331 0.0
O239 O 0.05213 0.76584 0.61257 0.0
O240 O 0.06181 0.81566 0.65977 0.0
C241 C 0.15876 0.72933 0.68552 0.0
Fe242 Fe 0.78874 0.01676 0.63674 0.0
Fe243 Fe 0.74742 0.0779 0.70058 0.0
O244 O 0.799 0.05721 0.67418 0.0
Fe245 Fe 0.85953 0.07776 0.6857 0.0
O246 O 0.87159 0.10133 0.64041 0.0
O247 O 0.83896 0.04159 0.60704 0.0
O248 O 0.74799 0.0608 0.61442 0.0
C249 C 0.70759 0.0753 0.6281 0.0
C250 C 0.87005 0.9746 0.67114 0.0
O251 O 0.70076 0.07254 0.66267 0.0
C252 C 0.82728 0.07977 0.75458 0.0
O253 O 0.73683 0.98525 0.65993 0.0
O254 O 0.73405 0.01579 0.71655 0.0
O255 O 0.88934 0.01719 0.67634 0.0
O256 O 0.82774 0.9701 0.65672 0.0
C257 C 0.79673 0.16225 0.68788 0.0
O258 O 0.78393 0.09261 0.74403 0.0
O259 O 0.85286 0.05577 0.7322 0.0
C260 C 0.72277 0.9824 0.69335 0.0
O261 O 0.75742 0.13815 0.68408 0.0
O262 O 0.83787 0.14184 0.6965 0.0
C263 C 0.86487 0.08082 0.60977 0.0
Fe264 Fe 0.93954 0.16068 0.93404 0.0
Fe265 Fe 0.99565 0.23125 0.98621 0.0
O266 O 0.95771 0.22139 0.94719 0.0
Fe267 Fe 0.93727 0.27374 0.92138 0.0
O268 O 0.87616 0.26125 0.93456 0.0
O269 O 0.8753 0.1804 0.92243 0.0
O270 O 0.91436 0.14623 0.97855 0.0
C271 C 0.93321 0.15243 1.00983 0.0
C272 C 0.93954 0.1965 0.86581 0.0
O273 O 0.97192 0.17868 1.0138 0.0
C274 C 0.0316 0.30059 0.93278 0.0
O275 O 1.00087 0.13283 0.94429 0.0
O276 O 0.04471 0.19523 0.96666 0.0
O277 O 0.92611 0.2392 0.87694 0.0
O278 O 0.96262 0.16945 0.88793 0.0
C279 C 0.93166 0.30823 0.99472 0.0
O280 O 0.02644 0.28564 0.96579 0.0
O281 O 1.00007 0.2895 0.90813 0.0
C282 C 0.04245 0.15315 0.95176 0.0
O283 O 0.94812 0.26831 1.00788 0.0
O284 O 0.93871 0.31836 0.96092 0.0
C285 C 0.85358 0.22123 0.92961 0.0
Fe286 Fe 0.2442 0.94702 0.92365 0.0
Fe287 Fe 0.35682 0.93994 0.9366 0.0
O288 O 0.29818 0.96384 0.94914 0.0
Fe289 Fe 0.29213 1.00386 0.98727 0.0
O290 O 0.25152 0.96003 1.01014 0.0
O291 O 0.20033 0.95323 0.96318 0.0
O292 O 0.25132 0.88553 0.93837 0.0
C293 C 0.28893 0.85906 0.93415 0.0
C294 C 0.22428 0.04309 0.93379 0.0
O295 O 0.33104 0.87757 0.92572 0.0
C296 C 0.37242 0.04224 0.95012 0.0
O297 O 0.27784 0.93173 0.87921 0.0
O298 O 0.35039 0.96256 0.89017 0.0
O299 O 0.23992 0.03746 0.96663 0.0
O300 O 0.23329 0.01066 0.90933 0.0
C301 C 0.36608 0.93674 1.01209 0.0
O302 O 0.39 0.99875 0.94595 0.0
O303 O 0.33147 0.04917 0.96596 0.0
C304 C 0.32188 0.94102 0.86817 0.0
O305 O 0.3688 0.91506 0.98161 0.0
O306 O 0.34352 0.97771 1.01501 0.0
C307 C 0.21013 0.94654 0.99712 0.0
Fe308 Fe 0.51488 0.28173 0.99156 0.0
Fe309 Fe 0.5825 0.24266 0.93076 0.0
O310 O 0.55857 0.29342 0.95652 0.0
Fe311 Fe 0.58007 0.35425 0.94729 0.0
O312 O 0.59845 0.36557 0.99409 0.0
O313 O 0.53672 0.33058 1.02377 0.0
O314 O 0.55692 0.24014 1.01531 0.0
C315 C 0.57304 0.20042 1.00155 0.0
C316 C 0.47559 0.36425 0.95698 0.0
O317 O 0.57334 0.19482 0.96689 0.0
C318 C 0.58877 0.32273 0.8778 0.0
O319 O 0.48585 0.23098 0.96529 0.0
O320 O 0.52236 0.22943 0.91065 0.0
O321 O 0.51853 0.38338 0.9533 0.0
O322 O 0.46994 0.32157 0.97032 0.0
C323 C 0.6645 0.2924 0.95131 0.0
O324 O 0.60161 0.27991 0.88909 0.0
O325 O 0.5639 0.3493 0.89913 0.0
C326 C 0.48649 0.2179 0.93154 0.0
O327 O 0.64052 0.25268 0.95158 0.0
O328 O 0.64501 0.33291 0.94035 0.0
C329 C 0.57529 0.35762 1.02339 0.0
Fe330 Fe 0.27533 0.56957 0.91546 0.0
Fe331 Fe 0.16315 0.57887 0.92946 0.0
O332 O 0.22207 0.55663 0.9428 0.0
Fe333 Fe 0.22889 0.52117 0.98336 0.0
O334 O 0.26961 0.56759 1.00283 0.0
O335 O 0.32 0.56913 0.95532 0.0
O336 O 0.26922 0.63281 0.92476 0.0
C337 C 0.23174 0.6584 0.91795 0.0
C338 C 0.29585 0.47557 0.93237 0.0
O339 O 0.18835 0.63988 0.91434 0.0
C340 C 0.1478 0.47841 0.94995 0.0
O341 O 0.2405 0.57894 0.8704 0.0
O342 O 0.16857 0.55049 0.88485 0.0
O343 O 0.28113 0.48512 0.96487 0.0
O344 O 0.28515 0.50432 0.90594 0.0
C345 C 0.15503 0.59098 1.00445 0.0
O346 O 0.13023 0.52129 0.94295 0.0
O347 O 0.18939 0.47348 0.96539 0.0
C348 C 0.19543 0.57048 0.8612 0.0
O349 O 0.15285 0.6092 0.97276 0.0
O350 O 0.17765 0.55042 1.00974 0.0
C351 C 0.31051 0.58024 0.98876 0.0
C352 C 0.60105 0.12631 0.32593 0.0
C353 C 0.61727 0.17293 0.33917 0.0
C354 C 0.62916 0.09794 0.30089 0.0
C355 C 0.67573 0.11394 0.28752 0.0
H356 H 0.5661 0.11098 0.33534 0.0
H357 H 0.61372 0.0629 0.29166 0.0
S358 S 0.73672 0.23303 0.31317 0.0
N359 N 0.68376 0.23408 0.33612 0.0
N360 N 0.73702 0.18023 0.29001 0.0
C361 C 0.69287 0.16043 0.30052 0.0
C362 C 0.66362 0.18997 0.3258 0.0
C363 C 0.36232 0.6801 0.29459 0.0
C364 C 0.4093 0.66385 0.28196 0.0
C365 C 0.33425 0.65244 0.32068 0.0
C366 C 0.3519 0.60735 0.33575 0.0
H367 H 0.34642 0.7139 0.28359 0.0
H368 H 0.29882 0.66705 0.32954 0.0
S369 S 0.47215 0.54764 0.31155 0.0
N370 N 0.47136 0.59879 0.28664 0.0
N371 N 0.41962 0.54769 0.33484 0.0
C372 C 0.39861 0.59069 0.32297 0.0
C373 C 0.42691 0.61859 0.29654 0.0
C374 C 0.86544 0.33876 0.32638 0.0
C375 C 0.91349 0.35321 0.33814 0.0
C376 C 0.83661 0.36872 0.30222 0.0
C377 C 0.85435 0.41467 0.28863 0.0
H378 H 0.84934 0.30466 0.33664 0.0
H379 H 0.80051 0.35516 0.29355 0.0
S380 S 0.9777 0.46969 0.31065 0.0
N381 N 0.97715 0.41694 0.3337 0.0
N382 N 0.92368 0.47247 0.28911 0.0
C383 C 0.90234 0.42924 0.30015 0.0
C384 C 0.93155 0.39888 0.32452 0.0
C385 C 0.11568 0.91284 0.33068 0.0
C386 C 0.16699 0.90493 0.33727 0.0
C387 C 0.08768 0.88294 0.3062 0.0
C388 C 0.10867 0.84236 0.28725 0.0
H389 H 0.09649 0.94272 0.34463 0.0
H390 H 0.04907 0.89243 0.30151 0.0
S391 S 0.24186 0.80617 0.29261 0.0
N392 N 0.23806 0.85453 0.32042 0.0
N393 N 0.18507 0.79684 0.27666 0.0
C394 C 0.15979 0.83361 0.29376 0.0
C395 C 0.18886 0.86514 0.31794 0.0
C396 C 0.39449 0.92637 0.8252 0.0
C397 C 0.34663 0.91213 0.83722 0.0
C398 C 0.423 0.89682 0.80101 0.0
C399 C 0.40601 0.85059 0.78749 0.0
H400 H 0.41067 0.96079 0.83499 0.0
H401 H 0.45902 0.91072 0.79264 0.0
S402 S 0.28307 0.79551 0.81 0.0
N403 N 0.28347 0.84816 0.83319 0.0
N404 N 0.33668 0.79259 0.78802 0.0
C405 C 0.35808 0.83571 0.79916 0.0
C406 C 0.32865 0.86636 0.82367 0.0
C407 C 0.66213 0.33363 0.83368 0.0
C408 C 0.61463 0.34846 0.84604 0.0
C409 C 0.68986 0.36233 0.80809 0.0
C410 C 0.67089 0.40657 0.79263 0.0
H411 H 0.67851 0.29991 0.84433 0.0
H412 H 0.72599 0.34897 0.79964 0.0
S413 S 0.54828 0.46236 0.81569 0.0
N414 N 0.55046 0.41137 0.84074 0.0
N415 N 0.60114 0.46398 0.79284 0.0
C416 C 0.62345 0.42178 0.80498 0.0
C417 C 0.59572 0.39306 0.83126 0.0
C418 C 0.0888 0.63163 0.80601 0.0
C419 C 0.1119 0.66803 0.78405 0.0
C420 C 0.11615 0.59986 0.82953 0.0
C421 C 0.16875 0.60149 0.8321 0.0
H422 H 0.04885 0.62696 0.80453 0.0
H423 H 0.0954 0.57355 0.84596 0.0
S424 S 0.24876 0.68449 0.77651 0.0
N425 N 0.19176 0.701 0.7649 0.0
N426 N 0.24281 0.64047 0.80774 0.0
C427 C 0.19258 0.6368 0.80963 0.0
C428 C 0.16447 0.67006 0.78614 0.0
C429 C 0.83298 0.14661 0.80493 0.0
C430 C 0.85504 0.10748 0.78489 0.0
C431 C 0.86101 0.17764 0.82887 0.0
C432 C 0.91242 0.17033 0.83488 0.0
H433 H 0.79358 0.15318 0.80241 0.0
H434 H 0.8417 0.20638 0.84391 0.0
S435 S 0.98827 0.07072 0.79242 0.0
N436 N 0.93228 0.06223 0.77484 0.0
N437 N 0.98349 0.11901 0.82016 0.0
C438 C 0.93462 0.13049 0.81602 0.0
C439 C 0.90646 0.09946 0.79128 0.0
C440 C 0.43054 0.07187 0.42594 0.0
C441 C 0.42862 0.12104 0.43916 0.0
C442 C 0.38681 0.04419 0.41988 0.0
C443 C 0.33965 0.06469 0.42682 0.0
H444 H 0.46601 0.05385 0.4217 0.0
H445 H 0.3901 1.00547 0.41222 0.0
S446 S 0.31297 0.1932 0.45668 0.0
N447 N 0.37417 0.19046 0.4548 0.0
N448 N 0.29309 0.13763 0.44439 0.0
C449 C 0.33699 0.11438 0.43782 0.0
C450 C 0.38113 0.14276 0.44369 0.0
C451 C 0.3802 0.38502 0.44589 0.0
C452 C 0.40169 0.43208 0.43961 0.0
C453 C 0.40624 0.34116 0.43892 0.0
C454 C 0.45474 0.34211 0.4249 0.0
H455 H 0.34345 0.38169 0.45772 0.0
H456 H 0.38937 0.30617 0.44669 0.0
S457 S 0.5263 0.45461 0.3993 0.0
N458 N 0.4731 0.47643 0.41503 0.0
N459 N 0.52217 0.39357 0.4021 0.0
C460 C 0.47559 0.38848 0.41592 0.0
C461 C 0.44911 0.43351 0.4233 0.0
C462 C 0.13493 0.37887 0.44844 0.0
C463 C 0.08801 0.40059 0.44179 0.0
C464 C 0.17913 0.40393 0.44052 0.0
C465 C 0.17872 0.45162 0.42513 0.0
H466 H 0.13793 0.34268 0.46119 0.0
H467 H 0.21402 0.387 0.44858 0.0
S468 S 0.06676 0.52346 0.39842 0.0
N469 N 0.04432 0.47137 0.41565 0.0
N470 N 0.12786 0.51863 0.40096 0.0
C471 C 0.13246 0.47271 0.41596 0.0
C472 C 0.08705 0.44723 0.42431 0.0
C473 C 0.14202 0.13384 0.4501 0.0
C474 C 0.12057 0.08778 0.44036 0.0
C475 C 0.11723 0.17863 0.44385 0.0
C476 C 0.07025 0.17963 0.42704 0.0
H477 H 0.17764 0.13554 0.46402 0.0
H478 H 0.13381 0.21266 0.45409 0.0
S479 S 0.99936 0.07064 0.39284 0.0
N480 N 0.05074 0.04669 0.41029 0.0
N481 N 1.00421 0.13127 0.39851 0.0
C482 C 0.04954 0.13443 0.41495 0.0
C483 C 0.07461 0.08846 0.42168 0.0
C484 C 0.9361 0.95274 0.19425 0.0
C485 C 0.93511 0.90094 0.18997 0.0
C486 C 0.89213 0.97916 0.20111 0.0
C487 C 0.84609 0.95451 0.20389 0.0
H488 H 0.97026 0.97323 0.19001 0.0
H489 H 0.8936 0.01934 0.20128 0.0
S490 S 0.82469 0.8192 0.20228 0.0
N491 N 0.88499 0.82559 0.19543 0.0
N492 N 0.8027 0.87605 0.20648 0.0
C493 C 0.84521 0.90284 0.20277 0.0
C494 C 0.88972 0.87582 0.19636 0.0
C495 C 0.61939 0.83523 0.1887 0.0
C496 C 0.57005 0.83559 0.20073 0.0
C497 C 0.64565 0.87942 0.18384 0.0
C498 C 0.62322 0.92607 0.18996 0.0
H499 H 0.63684 0.80069 0.18075 0.0
H500 H 0.68321 0.8767 0.1734 0.0
S501 S 0.49563 0.94653 0.22523 0.0
N502 N 0.50059 0.88562 0.22177 0.0
N503 N 0.54978 0.96927 0.21213 0.0
C504 C 0.57477 0.92677 0.20439 0.0
C505 C 0.54823 0.88139 0.20989 0.0
C506 C 0.58676 0.57129 0.19518 0.0
C507 C 0.58861 0.62119 0.18408 0.0
C508 C 0.63037 0.54593 0.20475 0.0
C509 C 0.67691 0.56975 0.20349 0.0
H510 H 0.552 0.551 0.1946 0.0
H511 H 0.62813 0.50643 0.21003 0.0
S512 S 0.70144 0.70173 0.18346 0.0
N513 N 0.6408 0.69535 0.17846 0.0
N514 N 0.72217 0.64631 0.19504 0.0
C515 C 0.67887 0.62027 0.1957 0.0
C516 C 0.63481 0.64638 0.18633 0.0
C517 C 0.96403 0.63354 0.20362 0.0
C518 C 0.94579 0.67907 0.19008 0.0
C519 C 0.93857 0.58864 0.1968 0.0
C520 C 0.89412 0.58788 0.17621 0.0
H521 H 0.99951 0.63219 0.21775 0.0
H522 H 0.95413 0.55439 0.2073 0.0
S523 S 0.83024 0.6985 0.13642 0.0
N524 N 0.88015 0.72109 0.15683 0.0
N525 N 0.83235 0.63817 0.14365 0.0
C526 C 0.87493 0.63387 0.16374 0.0
C527 C 0.90067 0.67901 0.17085 0.0
C528 C 0.63221 0.97366 0.70385 0.0
C529 C 0.67903 0.95112 0.69975 0.0
C530 C 0.58817 0.94698 0.69714 0.0
C531 C 0.58968 0.89695 0.68604 0.0
H532 H 0.62967 0.01306 0.7095 0.0
H533 H 0.55302 0.96633 0.69895 0.0
S534 S 0.70395 0.81979 0.67715 0.0
N535 N 0.72468 0.8757 0.68766 0.0
N536 N 0.64283 0.82451 0.67626 0.0
C537 C 0.63663 0.87327 0.68478 0.0
C538 C 0.68108 0.90065 0.69129 0.0
C539 C 0.64307 0.63351 0.68035 0.0
C540 C 0.62195 0.58727 0.68981 0.0
C541 C 0.61787 0.67807 0.68641 0.0
C542 C 0.57073 0.67867 0.70272 0.0
H543 H 0.6787 0.63554 0.66664 0.0
H544 H 0.63418 0.71218 0.67625 0.0
S545 S 0.50103 0.56914 0.73686 0.0
N546 N 0.55265 0.54561 0.71966 0.0
N547 N 0.50519 0.62978 0.73105 0.0
C548 C 0.55047 0.63333 0.71481 0.0
C549 C 0.57602 0.58756 0.70829 0.0
C550 C 0.88571 0.63573 0.68515 0.0
C551 C 0.93272 0.6124 0.686 0.0
C552 C 0.84219 0.6099 0.69353 0.0
C553 C 0.84368 0.55993 0.70386 0.0
H554 H 0.8819 0.67398 0.67646 0.0
H555 H 0.80678 0.62833 0.68964 0.0
S556 S 0.95664 0.48243 0.71443 0.0
N557 N 0.97801 0.53702 0.70113 0.0
N558 N 0.8957 0.48849 0.71724 0.0
C559 C 0.89035 0.53688 0.70758 0.0
C560 C 0.93499 0.56311 0.69858 0.0
C561 C 0.87363 0.8819 0.67355 0.0
C562 C 0.89646 0.92798 0.68143 0.0
C563 C 0.89744 0.83689 0.68087 0.0
C564 C 0.94487 0.83565 0.6969 0.0
H565 H 0.83753 0.88022 0.66033 0.0
H566 H 0.87972 0.80275 0.67198 0.0
S567 S 0.01934 0.94483 0.72648 0.0
N568 N 0.96806 0.96903 0.70905 0.0
N569 N 0.01289 0.88406 0.72283 0.0
C570 C 0.96704 0.88104 0.70719 0.0
C571 C 0.9429 0.92723 0.69938 0.0
C572 C 0.0919 0.08555 0.92062 0.0
C573 C 0.09023 0.12771 0.94361 0.0
C574 C 0.13696 0.06072 0.9138 0.0
C575 C 0.18177 0.07724 0.92982 0.0
H576 H 0.05808 0.07087 0.90855 0.0
H577 H 0.13606 0.02656 0.89806 0.0
S578 S 0.19872 0.18731 0.98988 0.0
N579 N 0.13876 0.18627 0.9805 0.0
N580 N 0.22227 0.13952 0.96764 0.0
C581 C 0.18095 0.12073 0.95105 0.0
C582 C 0.13554 0.14589 0.95807 0.0
C583 C 0.45161 0.08408 0.93033 0.0
C584 C 0.40039 0.08667 0.93765 0.0
C585 C 0.47916 0.12728 0.92313 0.0
C586 C 0.45626 0.17422 0.92291 0.0
H587 H 0.47109 0.04904 0.93233 0.0
H588 H 0.51919 0.12437 0.92098 0.0
S589 S 0.32239 0.20054 0.93302 0.0
N590 N 0.32691 0.13981 0.93799 0.0
N591 N 0.37954 0.22048 0.92592 0.0
C592 C 0.40481 0.17686 0.9269 0.0
C593 C 0.37663 0.13318 0.9339 0.0
C594 C 0.38327 0.37336 0.95801 0.0
C595 C 0.42984 0.39177 0.94651 0.0
C596 C 0.33918 0.39858 0.95014 0.0
C597 C 0.33948 0.44281 0.92988 0.0
H598 H 0.38069 0.33997 0.97448 0.0
H599 H 0.30475 0.38463 0.9616 0.0
S600 S 0.45024 0.5048 0.89023 0.0
N601 N 0.47284 0.45546 0.91138 0.0
N602 N 0.38951 0.50289 0.89649 0.0
C603 C 0.38517 0.46036 0.9163 0.0
C604 C 0.43044 0.43492 0.92472 0.0
C605 C 0.06958 0.43471 0.92942 0.0
C606 C 0.11959 0.43249 0.94077 0.0
C607 C 0.04205 0.39116 0.92311 0.0
C608 C 0.0637 0.34408 0.92782 0.0
H609 H 0.05099 0.47016 0.92678 0.0
H610 H 1.00278 0.39431 0.91689 0.0
S611 S 0.19448 0.31718 0.95184 0.0
N612 N 0.19089 0.3783 0.95203 0.0
N613 N 0.1382 0.29731 0.9412 0.0
C614 C 0.11403 0.34122 0.93698 0.0
C615 C 0.14225 0.3852 0.94313 0.0
C616 C 0.74442 0.2225 0.4143 0.0
C617 C 0.71763 0.22829 0.44685 0.0
C618 C 0.78664 0.25109 0.40798 0.0
C619 C 0.80432 0.2846 0.43477 0.0
H620 H 0.73121 0.19769 0.39298 0.0
H621 H 0.80752 0.24476 0.38292 0.0
S622 S 0.75198 0.30591 0.52747 0.0
N623 N 0.71355 0.26597 0.50772 0.0
N624 N 0.79561 0.31737 0.49669 0.0
C625 C 0.77951 0.28839 0.46836 0.0
C626 C 0.73607 0.25997 0.47453 0.0
C627 C 0.27906 0.73948 0.40539 0.0
C628 C 0.28786 0.71598 0.43912 0.0
C629 C 0.24784 0.78053 0.40349 0.0
C630 C 0.22547 0.79979 0.43527 0.0
H631 H 0.29411 0.72442 0.38012 0.0
H632 H 0.2437 0.79929 0.37745 0.0
S633 S 0.23542 0.75008 0.52989 0.0
N634 N 0.27025 0.71282 0.50469 0.0
N635 N 0.21333 0.79229 0.50122 0.0
C636 C 0.23371 0.77641 0.46908 0.0
C637 C 0.26516 0.73445 0.47106 0.0
C638 C 0.29018 0.77565 0.15966 0.0
C639 C 0.30546 0.73243 0.17853 0.0
C640 C 0.24549 0.79842 0.16776 0.0
C641 C 0.21346 0.77644 0.19278 0.0
H642 H 0.31437 0.79349 0.13984 0.0
H643 H 0.23485 0.8317 0.15304 0.0
S644 S 0.23284 0.66003 0.24578 0.0
N645 N 0.28458 0.66759 0.22216 0.0
N646 N 0.19685 0.70715 0.23433 0.0
C647 C 0.22695 0.73174 0.21044 0.0
C648 C 0.27353 0.70986 0.20346 0.0
C649 C 0.80135 0.27416 0.17809 0.0
C650 C 0.77702 0.30535 0.20246 0.0
C651 C 0.77971 0.22949 0.16823 0.0
C652 C 0.73493 0.21311 0.18458 0.0
H653 H 0.83541 0.2857 0.16475 0.0
H654 H 0.79952 0.20639 0.14874 0.0
S655 S 0.65546 0.2841 0.2484 0.0
N656 N 0.70464 0.31957 0.24156 0.0
N657 N 0.66535 0.23316 0.22423 0.0
C658 C 0.71006 0.24421 0.20894 0.0
C659 C 0.73152 0.29036 0.2184 0.0
C660 C 0.24438 0.72014 0.66563 0.0
C661 C 0.21012 0.74315 0.68843 0.0
C662 C 0.29133 0.74049 0.66198 0.0
C663 C 0.30552 0.78321 0.68214 0.0
H664 H 0.23439 0.68755 0.6497 0.0
H665 H 0.31757 0.7215 0.64433 0.0
S666 S 0.22517 0.86176 0.74002 0.0
N667 N 0.19012 0.81419 0.72775 0.0
N668 N 0.27991 0.85165 0.72108 0.0
C669 C 0.27062 0.80827 0.70317 0.0
C670 C 0.22263 0.78789 0.70675 0.0
C671 C 0.78704 0.24176 0.65853 0.0
C672 C 0.78755 0.21451 0.69127 0.0
C673 C 0.75712 0.28364 0.65529 0.0
C674 C 0.72732 0.29962 0.68488 0.0
H675 H 0.80792 0.22925 0.63478 0.0
H676 H 0.75977 0.30573 0.63041 0.0
S677 S 0.71057 0.23663 0.77418 0.0
N678 N 0.75228 0.2031 0.75217 0.0
N679 N 0.69639 0.28269 0.74612 0.0
C680 C 0.72584 0.27149 0.71697 0.0
C681 C 0.75669 0.22932 0.72045 0.0
C682 C 0.7813 0.26254 0.90645 0.0
C683 C 0.80076 0.2266 0.93059 0.0
C684 C 0.74071 0.29128 0.9165 0.0
C685 C 0.71712 0.28323 0.95017 0.0
H686 H 0.80024 0.27132 0.88095 0.0
H687 H 0.72617 0.31804 0.89708 0.0
S688 S 0.75264 0.19225 1.02224 0.0
N689 N 0.79411 0.18448 0.9893 0.0
N690 N 0.71533 0.23683 1.00772 0.0
C691 C 0.73625 0.24737 0.97456 0.0
C692 C 0.7778 0.21846 0.96441 0.0
C693 C 0.23218 0.78949 0.94575 0.0
C694 C 0.27774 0.80644 0.93099 0.0
C695 C 0.21401 0.74257 0.93772 0.0
C696 C 0.24144 0.71084 0.91546 0.0
H697 H 0.20993 0.81292 0.96352 0.0
H698 H 0.18008 0.73007 0.95084 0.0
S699 S 0.36428 0.73498 0.87252 0.0
N700 N 0.35073 0.78681 0.89459 0.0
N701 N 0.31652 0.69761 0.87927 0.0
C702 C 0.28707 0.72691 0.90054 0.0
C703 C 0.30568 0.77474 0.90886 0.0
C704 C 0.60531 0.15015 0.58059 0.0
C705 C 0.60029 0.12523 0.54658 0.0
C706 C 0.6379 0.13234 0.60823 0.0
C707 C 0.66669 0.08936 0.60252 0.0
H708 H 0.58661 0.18523 0.58493 0.0
H709 H 0.64287 0.15396 0.63315 0.0
S710 S 0.66082 1.00633 0.52105 0.0
N711 N 0.62208 0.05185 0.51112 0.0
N712 N 0.68325 0.01931 0.56233 0.0
C713 C 0.65915 0.06246 0.5698 0.0
C714 C 0.62595 0.08012 0.54207 0.0
C715 C 0.45162 0.66555 0.56927 0.0
C716 C 0.43036 0.66623 0.60463 0.0
C717 C 0.43269 0.63534 0.54115 0.0
C718 C 0.3912 0.60436 0.54673 0.0
H719 H 0.48235 0.69001 0.56278 0.0
H720 H 0.44972 0.63787 0.5142 0.0
S721 S 0.32343 0.58971 0.63495 0.0
N722 N 0.36741 0.63066 0.64454 0.0
N723 N 0.33093 0.57427 0.59122 0.0
C724 C 0.37108 0.60242 0.58252 0.0
C725 C 0.39084 0.63322 0.61153 0.0
C726 C 0.87792 0.42712 0.5409 0.0
C727 C 0.91059 0.38705 0.54681 0.0
C728 C 0.84641 0.44447 0.56864 0.0
C729 C 0.84613 0.42297 0.60391 0.0
H730 H 0.87538 0.44445 0.51403 0.0
H731 H 0.82118 0.4745 0.56204 0.0
S732 S 0.92482 0.31776 0.63448 0.0
N733 N 0.94129 0.32682 0.59116 0.0
N734 N 0.88228 0.36012 0.64374 0.0
C735 C 0.87996 0.38423 0.61095 0.0
C736 C 0.91212 0.36616 0.58236 0.0
C737 C 0.06569 0.8439 0.56241 0.0
C738 C 0.08264 0.8461 0.59903 0.0
C739 C 0.08509 0.87498 0.53517 0.0
C740 C 0.12301 0.90972 0.54288 0.0
H741 H 0.03785 0.81688 0.55432 0.0
H742 H 0.07117 0.87029 0.50734 0.0
S743 S 0.17859 0.93262 0.63512 0.0
N744 N 0.1377 0.8879 0.64233 0.0
N745 N 0.17493 0.94621 0.59078 0.0
C746 C 0.13884 0.91414 0.57982 0.0
C747 C 0.11855 0.88238 0.60791 0.0
C748 C 0.12566 0.94056 1.02747 0.0
C749 C 0.1741 0.92206 1.02208 0.0
C750 C 0.09465 0.92103 1.05538 0.0
C751 C 0.11124 0.8823 0.07837 0.0
H752 H 0.11268 0.97178 1.01134 0.0
H753 H 0.05871 0.93785 1.06013 0.0
S754 S 0.23126 0.81571 0.0706 0.0
N755 N 0.23452 0.85952 1.03902 0.0
N756 N 0.17649 0.82228 0.0904 0.0
C757 C 0.15818 0.86159 0.0713 0.0
C758 C 0.18956 0.88161 1.04344 0.0
C759 C 0.64945 0.09804 1.04708 0.0
C760 C 0.62536 0.0925 0.08123 0.0
C761 C 0.63063 0.13074 1.02 0.0
C762 C 0.5877 0.15934 1.02658 0.0
H763 H 0.68474 0.07991 1.04229 0.0
H764 H 0.65158 0.13613 0.99489 0.0
S765 S 0.50646 0.15149 0.10865 0.0
N766 N 0.55252 0.11294 0.11763 0.0
N767 N 0.51831 0.17472 0.06756 0.0
C768 C 0.56148 0.15105 1.05936 0.0
C769 C 0.58001 0.11752 0.08644 0.0
C770 C 0.39808 0.59391 1.0138 0.0
C771 C 0.34706 0.60614 1.01309 0.0
C772 C 0.42999 0.61263 1.04177 0.0
C773 C 0.41172 0.64426 0.06958 0.0
H774 H 0.4127 0.5676 0.99404 0.0
H775 H 0.46818 0.60011 1.04283 0.0
S776 S 0.28317 0.69303 0.07652 0.0
N777 N 0.2817 0.65613 1.04025 0.0
N778 N 0.34088 0.69106 0.09189 0.0
C779 C 0.36175 0.65925 0.0673 0.0
C780 C 0.32966 0.6403 1.03932 0.0
C781 C 0.89758 0.42392 1.05061 0.0
C782 C 0.86621 0.40381 0.07784 0.0
C783 C 0.91693 0.39377 1.02205 0.0
C784 C 0.90547 0.34272 1.0201 0.0
H785 H 0.90916 0.46235 1.05243 0.0
H786 H 0.9429 0.40981 1.00268 0.0
S787 S 0.81834 0.27489 0.08075 0.0
N788 N 0.81969 0.33164 0.09785 0.0
N789 N 0.85618 0.2754 1.04511 0.0
C790 C 0.87168 0.32343 1.04576 0.0
C791 C 0.85203 0.35384 0.07438 0.0
C792 C 0.42469 0.89807 0.54802 0.0
C793 C 0.40558 0.87389 0.57935 0.0
C794 C 0.39249 0.91657 0.52024 0.0
C795 C 0.34037 0.91155 0.52314 0.0
H796 H 0.46426 0.90466 0.54577 0.0
H797 H 0.40829 0.93674 0.49728 0.0
S798 S 0.27276 0.84413 0.59665 0.0
N799 N 0.33171 0.84081 0.60888 0.0
N800 N 0.2722 0.87555 0.55771 0.0
C801 C 0.32153 0.88479 0.55319 0.0
C802 C 0.35385 0.86599 0.58096 0.0
C803 C 0.58678 0.38054 0.5893 0.0
C804 C 0.62712 0.41299 0.58338 0.0
C805 C 0.56947 0.34859 0.5617 0.0
C806 C 0.59113 0.34786 0.52655 0.0
H807 H 0.56948 0.37823 0.61616 0.0
H808 H 0.53946 0.32333 0.56832 0.0
S809 S 0.69547 0.42746 0.49543 0.0
N810 N 0.68685 0.44392 0.53883 0.0
N811 N 0.65329 0.38445 0.48638 0.0
C812 C 0.62957 0.38203 0.5193 0.0
C813 C 0.64775 0.41447 0.54779 0.0
C814 C 0.1662 0.5683 0.5555 0.0
C815 C 0.17095 0.59214 0.52129 0.0
C816 C 0.13345 0.58589 0.58239 0.0
C817 C 0.10413 0.62848 0.57658 0.0
H818 H 0.18899 0.53635 0.56199 0.0
H819 H 0.13265 0.567 0.60873 0.0
S820 S 0.10238 0.70457 0.49152 0.0
N821 N 0.14262 0.65992 0.48246 0.0
N822 N 0.08151 0.69371 0.53354 0.0
C823 C 0.10697 0.65173 0.54194 0.0
C824 C 0.1403 0.63342 0.51421 0.0
C825 C 0.93185 0.13337 0.58301 0.0
C826 C 0.8885 0.10495 0.57725 0.0
C827 C 0.95049 0.16507 0.55584 0.0
C828 C 0.92706 0.16966 0.52136 0.0
H829 H 0.95063 0.13268 0.60947 0.0
H830 H 0.98289 0.18738 0.56235 0.0
S831 S 0.81344 0.10268 0.49132 0.0
N832 N 0.82334 0.08254 0.53373 0.0
N833 N 0.85908 0.14186 0.48222 0.0
C834 C 0.88516 0.13972 0.51428 0.0
C835 C 0.86576 0.10741 0.54228 0.0
C836 C 0.87414 0.08938 1.03488 0.0
C837 C 0.90785 0.12842 1.04176 0.0
C838 C 0.84401 0.06987 0.06271 0.0
C839 C 0.84624 0.08803 0.09902 0.0
H840 H 0.86985 0.07438 1.00734 0.0
H841 H 0.81799 0.04073 1.05543 0.0
S842 S 0.92816 0.18965 0.13225 0.0
N843 N 0.9418 0.18439 0.08806 0.0
N844 N 0.88569 0.14686 0.1407 0.0
C845 C 0.88092 0.12587 0.10684 0.0
C846 C 0.91155 0.14622 0.0782 0.0
C847 C 0.43257 0.88247 1.03727 0.0
C848 C 0.39101 0.91273 1.04402 0.0
C849 C 0.45218 0.85154 0.06455 0.0
C850 C 0.43138 0.84949 0.1 0.0
H851 H 0.44908 0.88116 1.0101 0.0
H852 H 0.48304 0.82768 1.05732 0.0
S853 S 0.32391 0.9231 0.1328 0.0
N854 N 0.33082 0.94034 0.08942 0.0
N855 N 0.36851 0.88251 0.14118 0.0
C856 C 0.39163 0.88161 0.10799 0.0
C857 C 0.37124 0.91315 0.0799 0.0
C858 C 0.6465 0.44968 0.08138 0.0
C859 C 0.65864 0.42262 0.1132 0.0
C860 C 0.61547 0.42972 1.05407 0.0
C861 C 0.59543 0.38161 1.0572 0.0
H862 H 0.66312 0.48577 0.07668 0.0
H863 H 0.60942 0.45112 1.0292 0.0
S864 S 0.61435 0.29605 0.13596 0.0
N865 N 0.64646 0.34616 0.14736 0.0
N866 N 0.58832 0.30815 0.09562 0.0
C867 C 0.60486 0.35514 0.08991 0.0
C868 C 0.6365 0.37575 0.11799 0.0
C869 C 0.12127 0.6398 0.10079 0.0
C870 C 0.0891 0.67963 0.09272 0.0
C871 C 0.14141 0.60987 0.07246 0.0
C872 C 0.12997 0.61865 1.03502 0.0
H873 H 0.13241 0.6328 0.12903 0.0
H874 H 0.16731 0.58083 0.07984 0.0
S875 S 0.04332 0.71517 0.99957 0.0
N876 N 0.04391 0.72348 1.04455 0.0
N877 N 0.08099 0.66813 0.9921 0.0
C878 C 0.0961 0.65709 1.02698 0.0
C879 C 0.07589 0.6873 1.05552 0.0
loop_
_geom_bond_atom_site_label_1
_geom_bond_atom_site_label_2
_geom_bond_distance
_geom_bond_site_symmetry_2
_ccdc_geom_bond_type
Fe0 O2 1.918 . S
Fe0 O5 1.997 . S
Fe0 O6 2.002 . S
Fe0 O11 1.976 . S
Fe0 O14 1.996 . S
Fe1 O2 1.918 . S
Fe1 O9 1.997 . S
Fe1 O12 1.996 . S
Fe1 O16 1.976 . S
Fe1 O19 2.002 . S
O2 Fe0 1.918 . S
O2 Fe1 1.918 . S
O2 Fe3 1.918 . S
Fe3 O2 1.918 . S
Fe3 O4 2.002 . S
Fe3 O13 1.976 . S
Fe3 O17 1.996 . S
Fe3 O20 1.997 . S
O4 Fe3 2.002 . S
O4 C21 1.295 . S
O5 Fe0 1.997 . S
O5 C21 1.235 . S
O6 Fe0 2.002 . S
O6 C7 1.295 . S
C7 O6 1.295 . S
C7 O9 1.235 . S
C8 O13 1.287 . S
C8 O14 1.255 . S
O9 Fe1 1.997 . S
O9 C7 1.235 . S
C10 O16 1.287 . S
C10 O17 1.255 . S
O11 Fe0 1.976 . S
O11 C18 1.287 . S
O12 Fe1 1.996 . S
O12 C18 1.255 . S
O13 Fe3 1.976 . S
O13 C8 1.287 . S
O14 Fe0 1.996 . S
O14 C8 1.255 . S
C15 O19 1.295 . S
C15 O20 1.235 . S
O16 Fe1 1.976 . S
O16 C10 1.287 . S
O17 Fe3 1.996 . S
O17 C10 1.255 . S
C18 O11 1.287 . S
C18 O12 1.255 . S
O19 Fe1 2.002 . S
O19 C15 1.295 . S
O20 Fe3 1.997 . S
O20 C15 1.235 . S
C21 O4 1.295 . S
C21 O5 1.235 . S
Fe22 O24 1.918 . S
Fe22 O27 1.997 . S
Fe22 O28 2.002 . S
Fe22 O33 1.976 . S
Fe22 O36 1.996 . S
Fe23 O24 1.918 . S
Fe23 O31 1.997 . S
Fe23 O34 1.996 . S
Fe23 O38 1.976 . S
Fe23 O41 2.002 . S
O24 Fe22 1.918 . S
O24 Fe23 1.918 . S
O24 Fe25 1.918 . S
Fe25 O24 1.918 . S
Fe25 O26 2.002 . S
Fe25 O35 1.976 . S
Fe25 O39 1.996 . S
Fe25 O42 1.997 . S
O26 Fe25 2.002 . S
O26 C43 1.295 . S
O27 Fe22 1.997 . S
O27 C43 1.235 . S
O28 Fe22 2.002 . S
O28 C29 1.295 . S
C29 O28 1.295 . S
C29 O31 1.235 . S
C30 O35 1.287 . S
C30 O36 1.255 . S
O31 Fe23 1.997 . S
O31 C29 1.235 . S
C32 O38 1.287 . S
C32 O39 1.255 . S
O33 Fe22 1.976 . S
O33 C40 1.287 . S
O34 Fe23 1.996 . S
O34 C40 1.255 . S
O35 Fe25 1.976 . S
O35 C30 1.287 . S
O36 Fe22 1.996 . S
O36 C30 1.255 . S
C37 O41 1.295 . S
C37 O42 1.235 . S
O38 Fe23 1.976 . S
O38 C32 1.287 . S
O39 Fe25 1.996 . S
O39 C32 1.255 . S
C40 O33 1.287 . S
C40 O34 1.255 . S
O41 Fe23 2.002 . S
O41 C37 1.295 . S
O42 Fe25 1.997 . S
O42 C37 1.235 . S
C43 O26 1.295 . S
C43 O27 1.235 . S
Fe44 O46 1.918 . S
Fe44 O49 1.997 . S
Fe44 O50 2.002 . S
Fe44 O55 1.976 . S
Fe44 O58 1.996 . S
Fe45 O46 1.918 . S
Fe45 O53 1.997 . S
Fe45 O56 1.996 . S
Fe45 O60 1.976 . S
Fe45 O63 2.002 . S
O46 Fe44 1.918 . S
O46 Fe45 1.918 . S
O46 Fe47 1.918 . S
Fe47 O46 1.918 . S
Fe47 O48 2.002 . S
Fe47 O57 1.976 1_655 S
Fe47 O61 1.996 1_655 S
Fe47 O64 1.997 . S
O48 Fe47 2.002 . S
O48 C65 1.295 . S
O49 Fe44 1.997 . S
O49 C65 1.235 . S
O50 Fe44 2.002 . S
O50 C51 1.295 . S
C51 O50 1.295 . S
C51 O53 1.235 . S
C52 O57 1.287 . S
C52 O58 1.255 1_455 S
O53 Fe45 1.997 . S
O53 C51 1.235 . S
C54 O60 1.287 1_455 S
C54 O61 1.255 . S
O55 Fe44 1.976 . S
O55 C62 1.287 . S
O56 Fe45 1.996 . S
O56 C62 1.255 . S
O57 Fe47 1.976 1_455 S
O57 C52 1.287 . S
O58 Fe44 1.996 . S
O58 C52 1.255 1_655 S
C59 O63 1.295 . S
C59 O64 1.235 . S
O60 Fe45 1.976 . S
O60 C54 1.287 1_655 S
O61 Fe47 1.996 1_455 S
O61 C54 1.255 . S
C62 O55 1.287 . S
C62 O56 1.255 . S
O63 Fe45 2.002 . S
O63 C59 1.295 . S
O64 Fe47 1.997 . S
O64 C59 1.235 . S
C65 O48 1.295 . S
C65 O49 1.235 . S
Fe66 O68 1.918 . S
Fe66 O71 1.997 . S
Fe66 O72 2.002 . S
Fe66 O77 1.976 1_565 S
Fe66 O80 1.996 1_565 S
Fe67 O68 1.918 . S
Fe67 O75 1.997 . S
Fe67 O78 1.996 . S
Fe67 O82 1.976 . S
Fe67 O85 2.002 . S
O68 Fe66 1.918 . S
O68 Fe67 1.918 . S
O68 Fe69 1.918 . S
Fe69 O68 1.918 . S
Fe69 O70 2.002 . S
Fe69 O79 1.976 . S
Fe69 O83 1.996 . S
Fe69 O86 1.997 . S
O70 Fe69 2.002 . S
O70 C87 1.295 . S
O71 Fe66 1.997 . S
O71 C87 1.235 . S
O72 Fe66 2.002 . S
O72 C73 1.295 . S
C73 O72 1.295 . S
C73 O75 1.235 . S
C74 O79 1.287 1_545 S
C74 O80 1.255 . S
O75 Fe67 1.997 . S
O75 C73 1.235 . S
C76 O82 1.287 . S
C76 O83 1.255 . S
O77 Fe66 1.976 1_545 S
O77 C84 1.287 . S
O78 Fe67 1.996 . S
O78 C84 1.255 1_565 S
O79 Fe69 1.976 . S
O79 C74 1.287 1_565 S
O80 Fe66 1.996 1_545 S
O80 C74 1.255 . S
C81 O85 1.295 . S
C81 O86 1.235 . S
O82 Fe67 1.976 . S
O82 C76 1.287 . S
O83 Fe69 1.996 . S
O83 C76 1.255 . S
C84 O77 1.287 . S
C84 O78 1.255 1_545 S
O85 Fe67 2.002 . S
O85 C81 1.295 . S
O86 Fe69 1.997 . S
O86 C81 1.235 . S
C87 O70 1.295 . S
C87 O71 1.235 . S
Fe88 O90 1.918 . S
Fe88 O93 1.997 . S
Fe88 O94 2.002 . S
Fe88 O99 1.976 1_455 S
Fe88 O102 1.996 1_455 S
Fe89 O90 1.918 . S
Fe89 O97 1.997 . S
Fe89 O100 1.996 . S
Fe89 O104 1.976 . S
Fe89 O107 2.002 . S
O90 Fe88 1.918 . S
O90 Fe89 1.918 . S
O90 Fe91 1.918 . S
Fe91 O90 1.918 . S
Fe91 O92 2.002 . S
Fe91 O101 1.976 . S
Fe91 O105 1.996 . S
Fe91 O108 1.997 . S
O92 Fe91 2.002 . S
O92 C109 1.295 . S
O93 Fe88 1.997 . S
O93 C109 1.235 . S
O94 Fe88 2.002 . S
O94 C95 1.295 . S
C95 O94 1.295 . S
C95 O97 1.235 . S
C96 O101 1.287 1_655 S
C96 O102 1.255 . S
O97 Fe89 1.997 . S
O97 C95 1.235 . S
C98 O104 1.287 . S
C98 O105 1.255 . S
O99 Fe88 1.976 1_655 S
O99 C106 1.287 . S
O100 Fe89 1.996 . S
O100 C106 1.255 1_455 S
O101 Fe91 1.976 . S
O101 C96 1.287 1_455 S
O102 Fe88 1.996 1_655 S
O102 C96 1.255 . S
C103 O107 1.295 . S
C103 O108 1.235 . S
O104 Fe89 1.976 . S
O104 C98 1.287 . S
O105 Fe91 1.996 . S
O105 C98 1.255 . S
C106 O99 1.287 . S
C106 O100 1.255 1_655 S
O107 Fe89 2.002 . S
O107 C103 1.295 . S
O108 Fe91 1.997 . S
O108 C103 1.235 . S
C109 O92 1.295 . S
C109 O93 1.235 . S
Fe110 O112 1.918 . S
Fe110 O115 1.997 . S
Fe110 O116 2.002 . S
Fe110 O121 1.976 1_545 S
Fe110 O124 1.996 1_545 S
Fe111 O112 1.918 . S
Fe111 O119 1.997 . S
Fe111 O122 1.996 . S
Fe111 O126 1.976 . S
Fe111 O129 2.002 . S
O112 Fe110 1.918 . S
O112 Fe111 1.918 . S
O112 Fe113 1.918 . S
Fe113 O112 1.918 . S
Fe113 O114 2.002 . S
Fe113 O123 1.976 . S
Fe113 O127 1.996 . S
Fe113 O130 1.997 . S
O114 Fe113 2.002 . S
O114 C131 1.295 . S
O115 Fe110 1.997 . S
O115 C131 1.235 . S
O116 Fe110 2.002 . S
O116 C117 1.295 . S
C117 O116 1.295 . S
C117 O119 1.235 . S
C118 O123 1.287 1_565 S
C118 O124 1.255 . S
O119 Fe111 1.997 . S
O119 C117 1.235 . S
C120 O126 1.287 . S
C120 O127 1.255 . S
O121 Fe110 1.976 1_565 S
O121 C128 1.287 . S
O122 Fe111 1.996 . S
O122 C128 1.255 1_545 S
O123 Fe113 1.976 . S
O123 C118 1.287 1_545 S
O124 Fe110 1.996 1_565 S
O124 C118 1.255 . S
C125 O129 1.295 . S
C125 O130 1.235 . S
O126 Fe111 1.976 . S
O126 C120 1.287 . S
O127 Fe113 1.996 . S
O127 C120 1.255 . S
C128 O121 1.287 . S
C128 O122 1.255 1_565 S
O129 Fe111 2.002 . S
O129 C125 1.295 . S
O130 Fe113 1.997 . S
O130 C125 1.235 . S
C131 O114 1.295 . S
C131 O115 1.235 . S
Fe132 O134 1.918 . S
Fe132 O137 1.997 . S
Fe132 O138 2.002 . S
Fe132 O143 1.976 . S
Fe132 O146 1.996 . S
Fe133 O134 1.918 . S
Fe133 O141 1.997 . S
Fe133 O144 1.996 . S
Fe133 O148 1.976 . S
Fe133 O151 2.002 . S
O134 Fe132 1.918 . S
O134 Fe133 1.918 . S
O134 Fe135 1.918 . S
Fe135 O134 1.918 . S
Fe135 O136 2.002 . S
Fe135 O145 1.976 . S
Fe135 O149 1.996 . S
Fe135 O152 1.997 . S
O136 Fe135 2.002 . S
O136 C153 1.295 . S
O137 Fe132 1.997 . S
O137 C153 1.235 . S
O138 Fe132 2.002 . S
O138 C139 1.295 . S
C139 O138 1.295 . S
C139 O141 1.235 . S
C140 O145 1.287 . S
C140 O146 1.255 . S
O141 Fe133 1.997 . S
O141 C139 1.235 . S
C142 O148 1.287 . S
C142 O149 1.255 . S
O143 Fe132 1.976 . S
O143 C150 1.287 . S
O144 Fe133 1.996 . S
O144 C150 1.255 . S
O145 Fe135 1.976 . S
O145 C140 1.287 . S
O146 Fe132 1.996 . S
O146 C140 1.255 . S
C147 O151 1.295 . S
C147 O152 1.235 . S
O148 Fe133 1.976 . S
O148 C142 1.287 . S
O149 Fe135 1.996 . S
O149 C142 1.255 . S
C150 O143 1.287 . S
C150 O144 1.255 . S
O151 Fe133 2.002 . S
O151 C147 1.295 . S
O152 Fe135 1.997 . S
O152 C147 1.235 . S
C153 O136 1.295 . S
C153 O137 1.235 . S
Fe154 O156 1.918 . S
Fe154 O159 1.997 . S
Fe154 O160 2.002 . S
Fe154 O165 1.976 . S
Fe154 O168 1.996 . S
Fe155 O156 1.918 . S
Fe155 O163 1.997 . S
Fe155 O166 1.996 . S
Fe155 O170 1.976 . S
Fe155 O173 2.002 . S
O156 Fe154 1.918 . S
O156 Fe155 1.918 . S
O156 Fe157 1.918 . S
Fe157 O156 1.918 . S
Fe157 O158 2.002 . S
Fe157 O167 1.976 . S
Fe157 O171 1.996 . S
Fe157 O174 1.997 . S
O158 Fe157 2.002 . S
O158 C175 1.295 . S
O159 Fe154 1.997 . S
O159 C175 1.235 . S
O160 Fe154 2.002 . S
O160 C161 1.295 . S
C161 O160 1.295 . S
C161 O163 1.235 . S
C162 O167 1.287 . S
C162 O168 1.255 . S
O163 Fe155 1.997 . S
O163 C161 1.235 . S
C164 O170 1.287 . S
C164 O171 1.255 . S
O165 Fe154 1.976 . S
O165 C172 1.287 . S
O166 Fe155 1.996 . S
O166 C172 1.255 . S
O167 Fe157 1.976 . S
O167 C162 1.287 . S
O168 Fe154 1.996 . S
O168 C162 1.255 . S
C169 O173 1.295 . S
C169 O174 1.235 . S
O170 Fe155 1.976 . S
O170 C164 1.287 . S
O171 Fe157 1.996 . S
O171 C164 1.255 . S
C172 O165 1.287 . S
C172 O166 1.255 . S
O173 Fe155 2.002 . S
O173 C169 1.295 . S
O174 Fe157 1.997 . S
O174 C169 1.235 . S
C175 O158 1.295 . S
C175 O159 1.235 . S
Fe176 O178 1.918 . S
Fe176 O181 1.997 . S
Fe176 O182 2.002 . S
Fe176 O187 1.976 . S
Fe176 O190 1.996 . S
Fe177 O178 1.918 . S
Fe177 O185 1.997 . S
Fe177 O188 1.996 . S
Fe177 O192 1.976 . S
Fe177 O195 2.002 . S
O178 Fe176 1.918 . S
O178 Fe177 1.918 . S
O178 Fe179 1.918 . S
Fe179 O178 1.918 . S
Fe179 O180 2.002 . S
Fe179 O189 1.976 . S
Fe179 O193 1.996 . S
Fe179 O196 1.997 . S
O180 Fe179 2.002 . S
O180 C197 1.295 . S
O181 Fe176 1.997 . S
O181 C197 1.235 . S
O182 Fe176 2.002 . S
O182 C183 1.295 . S
C183 O182 1.295 . S
C183 O185 1.235 . S
C184 O189 1.287 . S
C184 O190 1.255 . S
O185 Fe177 1.997 . S
O185 C183 1.235 . S
C186 O192 1.287 . S
C186 O193 1.255 . S
O187 Fe176 1.976 . S
O187 C194 1.287 . S
O188 Fe177 1.996 . S
O188 C194 1.255 . S
O189 Fe179 1.976 . S
O189 C184 1.287 . S
O190 Fe176 1.996 . S
O190 C184 1.255 . S
C191 O195 1.295 . S
C191 O196 1.235 . S
O192 Fe177 1.976 . S
O192 C186 1.287 . S
O193 Fe179 1.996 . S
O193 C186 1.255 . S
C194 O187 1.287 . S
C194 O188 1.255 . S
O195 Fe177 2.002 . S
O195 C191 1.295 . S
O196 Fe179 1.997 . S
O196 C191 1.235 . S
C197 O180 1.295 . S
C197 O181 1.235 . S
Fe198 O200 1.918 . S
Fe198 O203 1.997 . S
Fe198 O204 2.002 . S
Fe198 O209 1.976 . S
Fe198 O212 1.996 . S
Fe199 O200 1.918 . S
Fe199 O207 1.997 . S
Fe199 O210 1.996 . S
Fe199 O214 1.976 . S
Fe199 O217 2.002 . S
O200 Fe198 1.918 . S
O200 Fe199 1.918 . S
O200 Fe201 1.918 . S
Fe201 O200 1.918 . S
Fe201 O202 2.002 . S
Fe201 O211 1.976 . S
Fe201 O215 1.996 . S
Fe201 O218 1.997 . S
O202 Fe201 2.002 . S
O202 C219 1.295 . S
O203 Fe198 1.997 . S
O203 C219 1.235 . S
O204 Fe198 2.002 . S
O204 C205 1.295 . S
C205 O204 1.295 . S
C205 O207 1.235 . S
C206 O211 1.287 . S
C206 O212 1.255 . S
O207 Fe199 1.997 . S
O207 C205 1.235 . S
C208 O214 1.287 . S
C208 O215 1.255 . S
O209 Fe198 1.976 . S
O209 C216 1.287 . S
O210 Fe199 1.996 . S
O210 C216 1.255 . S
O211 Fe201 1.976 . S
O211 C206 1.287 . S
O212 Fe198 1.996 . S
O212 C206 1.255 . S
C213 O217 1.295 . S
C213 O218 1.235 . S
O214 Fe199 1.976 . S
O214 C208 1.287 . S
O215 Fe201 1.996 . S
O215 C208 1.255 . S
C216 O209 1.287 . S
C216 O210 1.255 . S
O217 Fe199 2.002 . S
O217 C213 1.295 . S
O218 Fe201 1.997 . S
O218 C213 1.235 . S
C219 O202 1.295 . S
C219 O203 1.235 . S
Fe220 O222 1.918 . S
Fe220 O225 1.997 . S
Fe220 O226 2.002 . S
Fe220 O231 1.976 . S
Fe220 O234 1.996 . S
Fe221 O222 1.918 . S
Fe221 O229 1.997 . S
Fe221 O232 1.996 1_455 S
Fe221 O236 1.976 1_455 S
Fe221 O239 2.002 . S
O222 Fe220 1.918 . S
O222 Fe221 1.918 . S
O222 Fe223 1.918 . S
Fe223 O222 1.918 . S
Fe223 O224 2.002 . S
Fe223 O233 1.976 . S
Fe223 O237 1.996 . S
Fe223 O240 1.997 . S
O224 Fe223 2.002 . S
O224 C241 1.295 . S
O225 Fe220 1.997 . S
O225 C241 1.235 . S
O226 Fe220 2.002 . S
O226 C227 1.295 . S
C227 O226 1.295 . S
C227 O229 1.235 . S
C228 O233 1.287 . S
C228 O234 1.255 . S
O229 Fe221 1.997 . S
O229 C227 1.235 . S
C230 O236 1.287 . S
C230 O237 1.255 1_655 S
O231 Fe220 1.976 . S
O231 C238 1.287 1_455 S
O232 Fe221 1.996 1_655 S
O232 C238 1.255 . S
O233 Fe223 1.976 . S
O233 C228 1.287 . S
O234 Fe220 1.996 . S
O234 C228 1.255 . S
C235 O239 1.295 . S
C235 O240 1.235 . S
O236 Fe221 1.976 1_655 S
O236 C230 1.287 . S
O237 Fe223 1.996 . S
O237 C230 1.255 1_455 S
C238 O231 1.287 1_655 S
C238 O232 1.255 . S
O239 Fe221 2.002 . S
O239 C235 1.295 . S
O240 Fe223 1.997 . S
O240 C235 1.235 . S
C241 O224 1.295 . S
C241 O225 1.235 . S
Fe242 O244 1.918 . S
Fe242 O247 1.997 . S
Fe242 O248 2.002 . S
Fe242 O253 1.976 1_545 S
Fe242 O256 1.996 1_545 S
Fe243 O244 1.918 . S
Fe243 O251 1.997 . S
Fe243 O254 1.996 . S
Fe243 O258 1.976 . S
Fe243 O261 2.002 . S
O244 Fe242 1.918 . S
O244 Fe243 1.918 . S
O244 Fe245 1.918 . S
Fe245 O244 1.918 . S
Fe245 O246 2.002 . S
Fe245 O255 1.976 . S
Fe245 O259 1.996 . S
Fe245 O262 1.997 . S
O246 Fe245 2.002 . S
O246 C263 1.295 . S
O247 Fe242 1.997 . S
O247 C263 1.235 . S
O248 Fe242 2.002 . S
O248 C249 1.295 . S
C249 O248 1.295 . S
C249 O251 1.235 . S
C250 O255 1.287 1_565 S
C250 O256 1.255 . S
O251 Fe243 1.997 . S
O251 C249 1.235 . S
C252 O258 1.287 . S
C252 O259 1.255 . S
O253 Fe242 1.976 1_565 S
O253 C260 1.287 . S
O254 Fe243 1.996 . S
O254 C260 1.255 1_545 S
O255 Fe245 1.976 . S
O255 C250 1.287 1_545 S
O256 Fe242 1.996 1_565 S
O256 C250 1.255 . S
C257 O261 1.295 . S
C257 O262 1.235 . S
O258 Fe243 1.976 . S
O258 C252 1.287 . S
O259 Fe245 1.996 . S
O259 C252 1.255 . S
C260 O253 1.287 . S
C260 O254 1.255 1_565 S
O261 Fe243 2.002 . S
O261 C257 1.295 . S
O262 Fe245 1.997 . S
O262 C257 1.235 . S
C263 O246 1.295 . S
C263 O247 1.235 . S
Fe264 O266 1.918 . S
Fe264 O269 1.997 . S
Fe264 O270 2.002 . S
Fe264 O275 1.976 . S
Fe264 O278 1.996 . S
Fe265 O266 1.918 . S
Fe265 O273 1.997 . S
Fe265 O276 1.996 1_655 S
Fe265 O280 1.976 1_655 S
Fe265 O283 2.002 . S
O266 Fe264 1.918 . S
O266 Fe265 1.918 . S
O266 Fe267 1.918 . S
Fe267 O266 1.918 . S
Fe267 O268 2.002 . S
Fe267 O277 1.976 . S
Fe267 O281 1.996 . S
Fe267 O284 1.997 . S
O268 Fe267 2.002 . S
O268 C285 1.295 . S
O269 Fe264 1.997 . S
O269 C285 1.235 . S
O270 Fe264 2.002 . S
O270 C271 1.295 . S
C271 O270 1.295 . S
C271 O273 1.235 . S
C272 O277 1.287 . S
C272 O278 1.255 . S
O273 Fe265 1.997 . S
O273 C271 1.235 . S
C274 O280 1.287 . S
C274 O281 1.255 1_455 S
O275 Fe264 1.976 . S
O275 C282 1.287 1_655 S
O276 Fe265 1.996 1_455 S
O276 C282 1.255 . S
O277 Fe267 1.976 . S
O277 C272 1.287 . S
O278 Fe264 1.996 . S
O278 C272 1.255 . S
C279 O283 1.295 . S
C279 O284 1.235 . S
O280 Fe265 1.976 1_455 S
O280 C274 1.287 . S
O281 Fe267 1.996 . S
O281 C274 1.255 1_655 S
C282 O275 1.287 1_455 S
C282 O276 1.255 . S
O283 Fe265 2.002 . S
O283 C279 1.295 . S
O284 Fe267 1.997 . S
O284 C279 1.235 . S
C285 O268 1.295 . S
C285 O269 1.235 . S
Fe286 O288 1.918 . S
Fe286 O291 1.997 . S
Fe286 O292 2.002 . S
Fe286 O297 1.976 . S
Fe286 O300 1.996 . S
Fe287 O288 1.918 . S
Fe287 O295 1.997 . S
Fe287 O298 1.996 . S
Fe287 O302 1.976 . S
Fe287 O305 2.002 . S
O288 Fe286 1.918 . S
O288 Fe287 1.918 . S
O288 Fe289 1.918 . S
Fe289 O288 1.918 . S
Fe289 O290 2.002 . S
Fe289 O299 1.976 1_565 S
Fe289 O303 1.996 1_565 S
Fe289 O306 1.997 . S
O290 Fe289 2.002 . S
O290 C307 1.295 . S
O291 Fe286 1.997 . S
O291 C307 1.235 . S
O292 Fe286 2.002 . S
O292 C293 1.295 . S
C293 O292 1.295 . S
C293 O295 1.235 . S
C294 O299 1.287 . S
C294 O300 1.255 1_545 S
O295 Fe287 1.997 . S
O295 C293 1.235 . S
C296 O302 1.287 1_545 S
C296 O303 1.255 . S
O297 Fe286 1.976 . S
O297 C304 1.287 . S
O298 Fe287 1.996 . S
O298 C304 1.255 . S
O299 Fe289 1.976 1_545 S
O299 C294 1.287 . S
O300 Fe286 1.996 . S
O300 C294 1.255 1_565 S
C301 O305 1.295 . S
C301 O306 1.235 . S
O302 Fe287 1.976 . S
O302 C296 1.287 1_565 S
O303 Fe289 1.996 1_545 S
O303 C296 1.255 . S
C304 O297 1.287 . S
C304 O298 1.255 . S
O305 Fe287 2.002 . S
O305 C301 1.295 . S
O306 Fe289 1.997 . S
O306 C301 1.235 . S
C307 O290 1.295 . S
C307 O291 1.235 . S
Fe308 O310 1.918 . S
Fe308 O313 1.997 . S
Fe308 O314 2.002 . S
Fe308 O319 1.976 . S
Fe308 O322 1.996 . S
Fe309 O310 1.918 . S
Fe309 O317 1.997 . S
Fe309 O320 1.996 . S
Fe309 O324 1.976 . S
Fe309 O327 2.002 . S
O310 Fe308 1.918 . S
O310 Fe309 1.918 . S
O310 Fe311 1.918 . S
Fe311 O310 1.918 . S
Fe311 O312 2.002 . S
Fe311 O321 1.976 . S
Fe311 O325 1.996 . S
Fe311 O328 1.997 . S
O312 Fe311 2.002 . S
O312 C329 1.295 . S
O313 Fe308 1.997 . S
O313 C329 1.235 . S
O314 Fe308 2.002 . S
O314 C315 1.295 . S
C315 O314 1.295 . S
C315 O317 1.235 . S
C316 O321 1.287 . S
C316 O322 1.255 . S
O317 Fe309 1.997 . S
O317 C315 1.235 . S
C318 O324 1.287 . S
C318 O325 1.255 . S
O319 Fe308 1.976 . S
O319 C326 1.287 . S
O320 Fe309 1.996 . S
O320 C326 1.255 . S
O321 Fe311 1.976 . S
O321 C316 1.287 . S
O322 Fe308 1.996 . S
O322 C316 1.255 . S
C323 O327 1.295 . S
C323 O328 1.235 . S
O324 Fe309 1.976 . S
O324 C318 1.287 . S
O325 Fe311 1.996 . S
O325 C318 1.255 . S
C326 O319 1.287 . S
C326 O320 1.255 . S
O327 Fe309 2.002 . S
O327 C323 1.295 . S
O328 Fe311 1.997 . S
O328 C323 1.235 . S
C329 O312 1.295 . S
C329 O313 1.235 . S
Fe330 O332 1.918 . S
Fe330 O335 1.997 . S
Fe330 O336 2.002 . S
Fe330 O341 1.976 . S
Fe330 O344 1.996 . S
Fe331 O332 1.918 . S
Fe331 O339 1.997 . S
Fe331 O342 1.996 . S
Fe331 O346 1.976 . S
Fe331 O349 2.002 . S
O332 Fe330 1.918 . S
O332 Fe331 1.918 . S
O332 Fe333 1.918 . S
Fe333 O332 1.918 . S
Fe333 O334 2.002 . S
Fe333 O343 1.976 . S
Fe333 O347 1.996 . S
Fe333 O350 1.997 . S
O334 Fe333 2.002 . S
O334 C351 1.295 . S
O335 Fe330 1.997 . S
O335 C351 1.235 . S
O336 Fe330 2.002 . S
O336 C337 1.295 . S
C337 O336 1.295 . S
C337 O339 1.235 . S
C338 O343 1.287 . S
C338 O344 1.255 . S
O339 Fe331 1.997 . S
O339 C337 1.235 . S
C340 O346 1.287 . S
C340 O347 1.255 . S
O341 Fe330 1.976 . S
O341 C348 1.287 . S
O342 Fe331 1.996 . S
O342 C348 1.255 . S
O343 Fe333 1.976 . S
O343 C338 1.287 . S
O344 Fe330 1.996 . S
O344 C338 1.255 . S
C345 O349 1.295 . S
C345 O350 1.235 . S
O346 Fe331 1.976 . S
O346 C340 1.287 . S
O347 Fe333 1.996 . S
O347 C340 1.255 . S
C348 O341 1.287 . S
C348 O342 1.255 . S
O349 Fe331 2.002 . S
O349 C345 1.295 . S
O350 Fe333 1.997 . S
O350 C345 1.235 . S
C351 O334 1.295 . S
C351 O335 1.235 . S
C352 C353 1.369 . S
C352 C354 1.419 . S
C352 H356 0.930 . S
C353 C352 1.369 . S
C353 C362 1.429 . S
C354 C352 1.419 . S
C354 C355 1.363 . S
C354 H357 0.929 . S
C355 C354 1.363 . S
C355 C361 1.428 . S
H356 C352 0.930 . S
H357 C354 0.929 . S
S358 N359 1.613 . S
S358 N360 1.610 . S
N359 S358 1.613 . S
N359 C362 1.350 . S
N360 S358 1.610 . S
N360 C361 1.351 . S
C361 C355 1.428 . S
C361 N360 1.351 . S
C361 C362 1.434 . S
C362 C353 1.429 . S
C362 N359 1.350 . S
C362 C361 1.434 . S
C363 C364 1.369 . S
C363 C365 1.419 . S
C363 H367 0.930 . S
C364 C363 1.369 . S
C364 C373 1.429 . S
C365 C363 1.419 . S
C365 C366 1.363 . S
C365 H368 0.929 . S
C366 C365 1.363 . S
C366 C372 1.428 . S
H367 C363 0.930 . S
H368 C365 0.929 . S
S369 N370 1.613 . S
S369 N371 1.610 . S
N370 S369 1.613 . S
N370 C373 1.350 . S
N371 S369 1.610 . S
N371 C372 1.351 . S
C372 C366 1.428 . S
C372 N371 1.351 . S
C372 C373 1.434 . S
C373 C364 1.429 . S
C373 N370 1.350 . S
C373 C372 1.434 . S
C374 C375 1.369 . S
C374 C376 1.419 . S
C374 H378 0.930 . S
C375 C374 1.369 . S
C375 C384 1.429 . S
C376 C374 1.419 . S
C376 C377 1.363 . S
C376 H379 0.929 . S
C377 C376 1.363 . S
C377 C383 1.428 . S
H378 C374 0.930 . S
H379 C376 0.929 . S
S380 N381 1.613 . S
S380 N382 1.610 . S
N381 S380 1.613 . S
N381 C384 1.350 . S
N382 S380 1.610 . S
N382 C383 1.351 . S
C383 C377 1.428 . S
C383 N382 1.351 . S
C383 C384 1.434 . S
C384 C375 1.429 . S
C384 N381 1.350 . S
C384 C383 1.434 . S
C385 C386 1.369 . S
C385 C387 1.419 . S
C385 H389 0.930 . S
C386 C385 1.369 . S
C386 C395 1.429 . S
C387 C385 1.419 . S
C387 C388 1.363 . S
C387 H390 0.929 . S
C388 C387 1.363 . S
C388 C394 1.428 . S
H389 C385 0.930 . S
H390 C387 0.929 . S
S391 N392 1.613 . S
S391 N393 1.610 . S
N392 S391 1.613 . S
N392 C395 1.350 . S
N393 S391 1.610 . S
N393 C394 1.351 . S
C394 C388 1.428 . S
C394 N393 1.351 . S
C394 C395 1.434 . S
C395 C386 1.429 . S
C395 N392 1.350 . S
C395 C394 1.434 . S
C396 C397 1.369 . S
C396 C398 1.419 . S
C396 H400 0.930 . S
C397 C396 1.369 . S
C397 C406 1.429 . S
C398 C396 1.419 . S
C398 C399 1.363 . S
C398 H401 0.929 . S
C399 C398 1.363 . S
C399 C405 1.428 . S
H400 C396 0.930 . S
H401 C398 0.929 . S
S402 N403 1.613 . S
S402 N404 1.610 . S
N403 S402 1.613 . S
N403 C406 1.350 . S
N404 S402 1.610 . S
N404 C405 1.351 . S
C405 C399 1.428 . S
C405 N404 1.351 . S
C405 C406 1.434 . S
C406 C397 1.429 . S
C406 N403 1.350 . S
C406 C405 1.434 . S
C407 C408 1.369 . S
C407 C409 1.419 . S
C407 H411 0.930 . S
C408 C407 1.369 . S
C408 C417 1.429 . S
C409 C407 1.419 . S
C409 C410 1.363 . S
C409 H412 0.929 . S
C410 C409 1.363 . S
C410 C416 1.428 . S
H411 C407 0.930 . S
H412 C409 0.929 . S
S413 N414 1.613 . S
S413 N415 1.610 . S
N414 S413 1.613 . S
N414 C417 1.350 . S
N415 S413 1.610 . S
N415 C416 1.351 . S
C416 C410 1.428 . S
C416 N415 1.351 . S
C416 C417 1.434 . S
C417 C408 1.429 . S
C417 N414 1.350 . S
C417 C416 1.434 . S
C418 C419 1.369 . S
C418 C420 1.419 . S
C418 H422 0.930 . S
C419 C418 1.369 . S
C419 C428 1.429 . S
C420 C418 1.419 . S
C420 C421 1.363 . S
C420 H423 0.929 . S
C421 C420 1.363 . S
C421 C427 1.428 . S
H422 C418 0.930 . S
H423 C420 0.929 . S
S424 N425 1.613 . S
S424 N426 1.610 . S
N425 S424 1.613 . S
N425 C428 1.350 . S
N426 S424 1.610 . S
N426 C427 1.351 . S
C427 C421 1.428 . S
C427 N426 1.351 . S
C427 C428 1.434 . S
C428 C419 1.429 . S
C428 N425 1.350 . S
C428 C427 1.434 . S
C429 C430 1.369 . S
C429 C431 1.419 . S
C429 H433 0.930 . S
C430 C429 1.369 . S
C430 C439 1.429 . S
C431 C429 1.419 . S
C431 C432 1.363 . S
C431 H434 0.929 . S
C432 C431 1.363 . S
C432 C438 1.428 . S
H433 C429 0.930 . S
H434 C431 0.929 . S
S435 N436 1.613 . S
S435 N437 1.610 . S
N436 S435 1.613 . S
N436 C439 1.350 . S
N437 S435 1.610 . S
N437 C438 1.351 . S
C438 C432 1.428 . S
C438 N437 1.351 . S
C438 C439 1.434 . S
C439 C430 1.429 . S
C439 N436 1.350 . S
C439 C438 1.434 . S
C440 C441 1.369 . S
C440 C442 1.419 . S
C440 H444 0.930 . S
C441 C440 1.369 . S
C441 C450 1.429 . S
C442 C440 1.419 . S
C442 C443 1.363 . S
C442 H445 0.929 . S
C443 C442 1.363 . S
C443 C449 1.428 . S
H444 C440 0.930 . S
H445 C442 0.929 . S
S446 N447 1.613 . S
S446 N448 1.610 . S
N447 S446 1.613 . S
N447 C450 1.350 . S
N448 S446 1.610 . S
N448 C449 1.351 . S
C449 C443 1.428 . S
C449 N448 1.351 . S
C449 C450 1.434 . S
C450 C441 1.429 . S
C450 N447 1.350 . S
C450 C449 1.434 . S
C451 C452 1.369 . S
C451 C453 1.419 . S
C451 H455 0.930 . S
C452 C451 1.369 . S
C452 C461 1.429 . S
C453 C451 1.419 . S
C453 C454 1.363 . S
C453 H456 0.929 . S
C454 C453 1.363 . S
C454 C460 1.428 . S
H455 C451 0.930 . S
H456 C453 0.929 . S
S457 N458 1.613 . S
S457 N459 1.610 . S
N458 S457 1.613 . S
N458 C461 1.350 . S
N459 S457 1.610 . S
N459 C460 1.351 . S
C460 C454 1.428 . S
C460 N459 1.351 . S
C460 C461 1.434 . S
C461 C452 1.429 . S
C461 N458 1.350 . S
C461 C460 1.434 . S
C462 C463 1.369 . S
C462 C464 1.419 . S
C462 H466 0.930 . S
C463 C462 1.369 . S
C463 C472 1.429 . S
C464 C462 1.419 . S
C464 C465 1.363 . S
C464 H467 0.929 . S
C465 C464 1.363 . S
C465 C471 1.428 . S
H466 C462 0.930 . S
H467 C464 0.929 . S
S468 N469 1.613 . S
S468 N470 1.610 . S
N469 S468 1.613 . S
N469 C472 1.350 . S
N470 S468 1.610 . S
N470 C471 1.351 . S
C471 C465 1.428 . S
C471 N470 1.351 . S
C471 C472 1.434 . S
C472 C463 1.429 . S
C472 N469 1.350 . S
C472 C471 1.434 . S
C473 C474 1.369 . S
C473 C475 1.419 . S
C473 H477 0.930 . S
C474 C473 1.369 . S
C474 C483 1.429 . S
C475 C473 1.419 . S
C475 C476 1.363 . S
C475 H478 0.929 . S
C476 C475 1.363 . S
C476 C482 1.428 . S
H477 C473 0.930 . S
H478 C475 0.929 . S
S479 N480 1.608 1_655 S
S479 N481 1.610 . S
N480 S479 1.608 1_455 S
N480 C483 1.350 . S
N481 S479 1.610 . S
N481 C482 1.345 1_655 S
C482 C476 1.428 . S
C482 N481 1.345 1_455 S
C482 C483 1.434 . S
C483 C474 1.429 . S
C483 N480 1.350 . S
C483 C482 1.434 . S
C484 C485 1.369 . S
C484 C486 1.419 . S
C484 H488 0.930 . S
C485 C484 1.369 . S
C485 C494 1.429 . S
C486 C484 1.419 . S
C486 C487 1.363 . S
C486 H489 0.929 . S
C487 C486 1.363 . S
C487 C493 1.428 . S
H488 C484 0.930 . S
H489 C486 0.929 . S
S490 N491 1.613 . S
S490 N492 1.610 . S
N491 S490 1.613 . S
N491 C494 1.350 . S
N492 S490 1.610 . S
N492 C493 1.351 . S
C493 C487 1.428 . S
C493 N492 1.351 . S
C493 C494 1.434 . S
C494 C485 1.429 . S
C494 N491 1.350 . S
C494 C493 1.434 . S
C495 C496 1.369 . S
C495 C497 1.419 . S
C495 H499 0.930 . S
C496 C495 1.369 . S
C496 C505 1.429 . S
C497 C495 1.419 . S
C497 C498 1.363 . S
C497 H500 0.929 . S
C498 C497 1.363 . S
C498 C504 1.428 . S
H499 C495 0.930 . S
H500 C497 0.929 . S
S501 N502 1.613 . S
S501 N503 1.610 . S
N502 S501 1.613 . S
N502 C505 1.350 . S
N503 S501 1.610 . S
N503 C504 1.351 . S
C504 C498 1.428 . S
C504 N503 1.351 . S
C504 C505 1.434 . S
C505 C496 1.429 . S
C505 N502 1.350 . S
C505 C504 1.434 . S
C506 C507 1.369 . S
C506 C508 1.419 . S
C506 H510 0.930 . S
C507 C506 1.369 . S
C507 C516 1.429 . S
C508 C506 1.419 . S
C508 C509 1.363 . S
C508 H511 0.929 . S
C509 C508 1.363 . S
C509 C515 1.428 . S
H510 C506 0.930 . S
H511 C508 0.929 . S
S512 N513 1.613 . S
S512 N514 1.610 . S
N513 S512 1.613 . S
N513 C516 1.350 . S
N514 S512 1.610 . S
N514 C515 1.351 . S
C515 C509 1.428 . S
C515 N514 1.351 . S
C515 C516 1.434 . S
C516 C507 1.429 . S
C516 N513 1.350 . S
C516 C515 1.434 . S
C517 C518 1.369 . S
C517 C519 1.419 . S
C517 H521 0.930 . S
C518 C517 1.369 . S
C518 C527 1.429 . S
C519 C517 1.419 . S
C519 C520 1.363 . S
C519 H522 0.929 . S
C520 C519 1.363 . S
C520 C526 1.428 . S
H521 C517 0.930 . S
H522 C519 0.929 . S
S523 N524 1.613 . S
S523 N525 1.610 . S
N524 S523 1.613 . S
N524 C527 1.350 . S
N525 S523 1.610 . S
N525 C526 1.351 . S
C526 C520 1.428 . S
C526 N525 1.351 . S
C526 C527 1.434 . S
C527 C518 1.429 . S
C527 N524 1.350 . S
C527 C526 1.434 . S
C528 C529 1.369 . S
C528 C530 1.419 . S
C528 H532 0.930 . S
C529 C528 1.369 . S
C529 C538 1.429 . S
C530 C528 1.419 . S
C530 C531 1.363 . S
C530 H533 0.929 . S
C531 C530 1.363 . S
C531 C537 1.428 . S
H532 C528 0.930 . S
H533 C530 0.929 . S
S534 N535 1.613 . S
S534 N536 1.610 . S
N535 S534 1.613 . S
N535 C538 1.350 . S
N536 S534 1.610 . S
N536 C537 1.351 . S
C537 C531 1.428 . S
C537 N536 1.351 . S
C537 C538 1.434 . S
C538 C529 1.429 . S
C538 N535 1.350 . S
C538 C537 1.434 . S
C539 C540 1.369 . S
C539 C541 1.419 . S
C539 H543 0.930 . S
C540 C539 1.369 . S
C540 C549 1.429 . S
C541 C539 1.419 . S
C541 C542 1.363 . S
C541 H544 0.929 . S
C542 C541 1.363 . S
C542 C548 1.428 . S
H543 C539 0.930 . S
H544 C541 0.929 . S
S545 N546 1.613 . S
S545 N547 1.610 . S
N546 S545 1.613 . S
N546 C549 1.350 . S
N547 S545 1.610 . S
N547 C548 1.351 . S
C548 C542 1.428 . S
C548 N547 1.351 . S
C548 C549 1.434 . S
C549 C540 1.429 . S
C549 N546 1.350 . S
C549 C548 1.434 . S
C550 C551 1.369 . S
C550 C552 1.419 . S
C550 H554 0.930 . S
C551 C550 1.369 . S
C551 C560 1.429 . S
C552 C550 1.419 . S
C552 C553 1.363 . S
C552 H555 0.929 . S
C553 C552 1.363 . S
C553 C559 1.428 . S
H554 C550 0.930 . S
H555 C552 0.929 . S
S556 N557 1.613 . S
S556 N558 1.610 . S
N557 S556 1.613 . S
N557 C560 1.350 . S
N558 S556 1.610 . S
N558 C559 1.351 . S
C559 C553 1.428 . S
C559 N558 1.351 . S
C559 C560 1.434 . S
C560 C551 1.429 . S
C560 N557 1.350 . S
C560 C559 1.434 . S
C561 C562 1.369 . S
C561 C563 1.419 . S
C561 H565 0.930 . S
C562 C561 1.369 . S
C562 C571 1.429 . S
C563 C561 1.419 . S
C563 C564 1.363 . S
C563 H566 0.929 . S
C564 C563 1.363 . S
C564 C570 1.428 . S
H565 C561 0.930 . S
H566 C563 0.929 . S
S567 N568 1.613 . S
S567 N569 1.610 . S
N568 S567 1.613 . S
N568 C571 1.350 . S
N569 S567 1.610 . S
N569 C570 1.351 . S
C570 C564 1.428 . S
C570 N569 1.351 . S
C570 C571 1.434 . S
C571 C562 1.429 . S
C571 N568 1.350 . S
C571 C570 1.434 . S
C572 C573 1.369 . S
C572 C574 1.419 . S
C572 H576 0.930 . S
C573 C572 1.369 . S
C573 C582 1.429 . S
C574 C572 1.419 . S
C574 C575 1.363 . S
C574 H577 0.928 . S
C575 C574 1.363 . S
C575 C581 1.428 . S
H576 C572 0.930 . S
H577 C574 0.928 . S
S578 N579 1.613 . S
S578 N580 1.610 . S
N579 S578 1.613 . S
N579 C582 1.350 . S
N580 S578 1.610 . S
N580 C581 1.351 . S
C581 C575 1.428 . S
C581 N580 1.351 . S
C581 C582 1.434 . S
C582 C573 1.429 . S
C582 N579 1.350 . S
C582 C581 1.434 . S
C583 C584 1.369 . S
C583 C585 1.419 . S
C583 H587 0.930 . S
C584 C583 1.369 . S
C584 C593 1.429 . S
C585 C583 1.419 . S
C585 C586 1.363 . S
C585 H588 0.929 . S
C586 C585 1.363 . S
C586 C592 1.428 . S
H587 C583 0.930 . S
H588 C585 0.929 . S
S589 N590 1.613 . S
S589 N591 1.610 . S
N590 S589 1.613 . S
N590 C593 1.350 . S
N591 S589 1.610 . S
N591 C592 1.351 . S
C592 C586 1.428 . S
C592 N591 1.351 . S
C592 C593 1.434 . S
C593 C584 1.429 . S
C593 N590 1.350 . S
C593 C592 1.434 . S
C594 C595 1.369 . S
C594 C596 1.419 . S
C594 H598 0.930 . S
C595 C594 1.369 . S
C595 C604 1.429 . S
C596 C594 1.419 . S
C596 C597 1.363 . S
C596 H599 0.929 . S
C597 C596 1.363 . S
C597 C603 1.428 . S
H598 C594 0.930 . S
H599 C596 0.929 . S
S600 N601 1.613 . S
S600 N602 1.610 . S
N601 S600 1.613 . S
N601 C604 1.350 . S
N602 S600 1.610 . S
N602 C603 1.351 . S
C603 C597 1.428 . S
C603 N602 1.351 . S
C603 C604 1.434 . S
C604 C595 1.429 . S
C604 N601 1.350 . S
C604 C603 1.434 . S
C605 C606 1.369 . S
C605 C607 1.419 . S
C605 H609 0.930 . S
C606 C605 1.369 . S
C606 C615 1.429 . S
C607 C605 1.419 . S
C607 C608 1.363 . S
C607 H610 0.929 . S
C608 C607 1.363 . S
C608 C614 1.428 . S
H609 C605 0.930 . S
H610 C607 0.929 . S
S611 N612 1.613 . S
S611 N613 1.610 . S
N612 S611 1.613 . S
N612 C615 1.350 . S
N613 S611 1.610 . S
N613 C614 1.351 . S
C614 C608 1.428 . S
C614 N613 1.351 . S
C614 C615 1.434 . S
C615 C606 1.429 . S
C615 N612 1.350 . S
C615 C614 1.434 . S
C616 C617 1.369 . S
C616 C618 1.419 . S
C616 H620 0.930 . S
C617 C616 1.369 . S
C617 C626 1.429 . S
C618 C616 1.419 . S
C618 C619 1.363 . S
C618 H621 0.929 . S
C619 C618 1.363 . S
C619 C625 1.428 . S
H620 C616 0.930 . S
H621 C618 0.929 . S
S622 N623 1.613 . S
S622 N624 1.610 . S
N623 S622 1.613 . S
N623 C626 1.350 . S
N624 S622 1.610 . S
N624 C625 1.351 . S
C625 C619 1.428 . S
C625 N624 1.351 . S
C625 C626 1.434 . S
C626 C617 1.429 . S
C626 N623 1.350 . S
C626 C625 1.434 . S
C627 C628 1.369 . S
C627 C629 1.419 . S
C627 H631 0.930 . S
C628 C627 1.369 . S
C628 C637 1.429 . S
C629 C627 1.419 . S
C629 C630 1.363 . S
C629 H632 0.929 . S
C630 C629 1.363 . S
C630 C636 1.428 . S
H631 C627 0.930 . S
H632 C629 0.929 . S
S633 N634 1.613 . S
S633 N635 1.610 . S
N634 S633 1.613 . S
N634 C637 1.350 . S
N635 S633 1.610 . S
N635 C636 1.351 . S
C636 C630 1.428 . S
C636 N635 1.351 . S
C636 C637 1.434 . S
C637 C628 1.429 . S
C637 N634 1.350 . S
C637 C636 1.434 . S
C638 C639 1.369 . S
C638 C640 1.419 . S
C638 H642 0.930 . S
C639 C638 1.369 . S
C639 C648 1.429 . S
C640 C638 1.419 . S
C640 C641 1.363 . S
C640 H643 0.929 . S
C641 C640 1.363 . S
C641 C647 1.428 . S
H642 C638 0.930 . S
H643 C640 0.929 . S
S644 N645 1.613 . S
S644 N646 1.610 . S
N645 S644 1.613 . S
N645 C648 1.350 . S
N646 S644 1.610 . S
N646 C647 1.351 . S
C647 C641 1.428 . S
C647 N646 1.351 . S
C647 C648 1.434 . S
C648 C639 1.429 . S
C648 N645 1.350 . S
C648 C647 1.434 . S
C649 C650 1.369 . S
C649 C651 1.419 . S
C649 H653 0.930 . S
C650 C649 1.369 . S
C650 C659 1.429 . S
C651 C649 1.419 . S
C651 C652 1.363 . S
C651 H654 0.929 . S
C652 C651 1.363 . S
C652 C658 1.428 . S
H653 C649 0.930 . S
H654 C651 0.929 . S
S655 N656 1.613 . S
S655 N657 1.610 . S
N656 S655 1.613 . S
N656 C659 1.350 . S
N657 S655 1.610 . S
N657 C658 1.351 . S
C658 C652 1.428 . S
C658 N657 1.351 . S
C658 C659 1.434 . S
C659 C650 1.429 . S
C659 N656 1.350 . S
C659 C658 1.434 . S
C660 C661 1.369 . S
C660 C662 1.419 . S
C660 H664 0.930 . S
C661 C660 1.369 . S
C661 C670 1.429 . S
C662 C660 1.419 . S
C662 C663 1.363 . S
C662 H665 0.929 . S
C663 C662 1.363 . S
C663 C669 1.428 . S
H664 C660 0.930 . S
H665 C662 0.929 . S
S666 N667 1.613 . S
S666 N668 1.610 . S
N667 S666 1.613 . S
N667 C670 1.350 . S
N668 S666 1.610 . S
N668 C669 1.351 . S
C669 C663 1.428 . S
C669 N668 1.351 . S
C669 C670 1.434 . S
C670 C661 1.429 . S
C670 N667 1.350 . S
C670 C669 1.434 . S
C671 C672 1.369 . S
C671 C673 1.419 . S
C671 H675 0.930 . S
C672 C671 1.369 . S
C672 C681 1.429 . S
C673 C671 1.419 . S
C673 C674 1.363 . S
C673 H676 0.929 . S
C674 C673 1.363 . S
C674 C680 1.428 . S
H675 C671 0.930 . S
H676 C673 0.929 . S
S677 N678 1.613 . S
S677 N679 1.610 . S
N678 S677 1.613 . S
N678 C681 1.350 . S
N679 S677 1.610 . S
N679 C680 1.351 . S
C680 C674 1.428 . S
C680 N679 1.351 . S
C680 C681 1.434 . S
C681 C672 1.429 . S
C681 N678 1.350 . S
C681 C680 1.434 . S
C682 C683 1.369 . S
C682 C684 1.419 . S
C682 H686 0.930 . S
C683 C682 1.369 . S
C683 C692 1.429 . S
C684 C682 1.419 . S
C684 C685 1.363 . S
C684 H687 0.929 . S
C685 C684 1.363 . S
C685 C691 1.428 . S
H686 C682 0.930 . S
H687 C684 0.929 . S
S688 N689 1.613 . S
S688 N690 1.610 . S
N689 S688 1.613 . S
N689 C692 1.350 . S
N690 S688 1.610 . S
N690 C691 1.351 . S
C691 C685 1.428 . S
C691 N690 1.351 . S
C691 C692 1.434 . S
C692 C683 1.429 . S
C692 N689 1.350 . S
C692 C691 1.434 . S
C693 C694 1.369 . S
C693 C695 1.419 . S
C693 H697 0.930 . S
C694 C693 1.369 . S
C694 C703 1.429 . S
C695 C693 1.419 . S
C695 C696 1.363 . S
C695 H698 0.929 . S
C696 C695 1.363 . S
C696 C702 1.428 . S
H697 C693 0.930 . S
H698 C695 0.929 . S
S699 N700 1.613 . S
S699 N701 1.610 . S
N700 S699 1.613 . S
N700 C703 1.350 . S
N701 S699 1.610 . S
N701 C702 1.351 . S
C702 C696 1.428 . S
C702 N701 1.351 . S
C702 C703 1.434 . S
C703 C694 1.429 . S
C703 N700 1.350 . S
C703 C702 1.434 . S
C704 C705 1.369 . S
C704 C706 1.419 . S
C704 H708 0.930 . S
C705 C704 1.369 . S
C705 C714 1.429 . S
C706 C704 1.419 . S
C706 C707 1.363 . S
C706 H709 0.929 . S
C707 C706 1.363 . S
C707 C713 1.428 . S
H708 C704 0.930 . S
H709 C706 0.929 . S
S710 N711 1.613 . S
S710 N712 1.610 . S
N711 S710 1.613 . S
N711 C714 1.350 . S
N712 S710 1.610 . S
N712 C713 1.351 . S
C713 C707 1.428 . S
C713 N712 1.351 . S
C713 C714 1.434 . S
C714 C705 1.429 . S
C714 N711 1.350 . S
C714 C713 1.434 . S
C715 C716 1.369 . S
C715 C717 1.419 . S
C715 H719 0.930 . S
C716 C715 1.369 . S
C716 C725 1.429 . S
C717 C715 1.419 . S
C717 C718 1.363 . S
C717 H720 0.929 . S
C718 C717 1.363 . S
C718 C724 1.428 . S
H719 C715 0.930 . S
H720 C717 0.929 . S
S721 N722 1.613 . S
S721 N723 1.610 . S
N722 S721 1.613 . S
N722 C725 1.350 . S
N723 S721 1.610 . S
N723 C724 1.351 . S
C724 C718 1.428 . S
C724 N723 1.351 . S
C724 C725 1.434 . S
C725 C716 1.429 . S
C725 N722 1.350 . S
C725 C724 1.434 . S
C726 C727 1.369 . S
C726 C728 1.419 . S
C726 H730 0.930 . S
C727 C726 1.369 . S
C727 C736 1.429 . S
C728 C726 1.419 . S
C728 C729 1.363 . S
C728 H731 0.929 . S
C729 C728 1.363 . S
C729 C735 1.428 . S
H730 C726 0.930 . S
H731 C728 0.929 . S
S732 N733 1.613 . S
S732 N734 1.610 . S
N733 S732 1.613 . S
N733 C736 1.350 . S
N734 S732 1.610 . S
N734 C735 1.351 . S
C735 C729 1.428 . S
C735 N734 1.351 . S
C735 C736 1.434 . S
C736 C727 1.429 . S
C736 N733 1.350 . S
C736 C735 1.434 . S
C737 C738 1.369 . S
C737 C739 1.419 . S
C737 H741 0.930 . S
C738 C737 1.369 . S
C738 C747 1.429 . S
C739 C737 1.419 . S
C739 C740 1.363 . S
C739 H742 0.929 . S
C740 C739 1.363 . S
C740 C746 1.428 . S
H741 C737 0.930 . S
H742 C739 0.929 . S
S743 N744 1.613 . S
S743 N745 1.610 . S
N744 S743 1.613 . S
N744 C747 1.350 . S
N745 S743 1.610 . S
N745 C746 1.351 . S
C746 C740 1.428 . S
C746 N745 1.351 . S
C746 C747 1.434 . S
C747 C738 1.429 . S
C747 N744 1.350 . S
C747 C746 1.434 . S
C748 C749 1.369 . S
C748 C750 1.419 1_556 S
C748 H752 0.930 . S
C749 C748 1.369 . S
C749 C758 1.429 . S
C750 C748 1.419 1_554 S
C750 C751 1.363 . S
C750 H753 0.929 . S
C751 C750 1.363 . S
C751 C757 1.428 . S
H752 C748 0.930 . S
H753 C750 0.929 . S
S754 N755 1.613 . S
S754 N756 1.610 1_556 S
N755 S754 1.613 . S
N755 C758 1.350 . S
N756 S754 1.610 1_554 S
N756 C757 1.351 . S
C757 C751 1.428 . S
C757 N756 1.351 . S
C757 C758 1.434 1_554 S
C758 C749 1.429 . S
C758 N755 1.350 . S
C758 C757 1.434 1_556 S
C759 C760 1.369 1_556 S
C759 C761 1.419 . S
C759 H763 0.930 . S
C760 C759 1.369 1_554 S
C760 C769 1.429 . S
C761 C759 1.419 . S
C761 C762 1.363 . S
C761 H764 0.929 . S
C762 C761 1.363 . S
C762 C768 1.428 . S
H763 C759 0.930 . S
H764 C761 0.929 . S
S765 N766 1.613 . S
S765 N767 1.610 1_554 S
N766 S765 1.613 . S
N766 C769 1.350 . S
N767 S765 1.610 1_556 S
N767 C768 1.351 . S
C768 C762 1.428 . S
C768 N767 1.351 . S
C768 C769 1.434 1_556 S
C769 C760 1.429 . S
C769 N766 1.350 . S
C769 C768 1.434 1_554 S
C770 C771 1.369 . S
C770 C772 1.419 1_556 S
C770 H774 0.930 . S
C771 C770 1.369 . S
C771 C780 1.429 . S
C772 C770 1.419 1_554 S
C772 C773 1.363 . S
C772 H775 0.929 . S
C773 C772 1.363 . S
C773 C779 1.428 . S
H774 C770 0.930 . S
H775 C772 0.929 . S
S776 N777 1.613 1_554 S
S776 N778 1.610 . S
N777 S776 1.613 1_556 S
N777 C780 1.350 . S
N778 S776 1.610 . S
N778 C779 1.351 . S
C779 C773 1.428 . S
C779 N778 1.351 . S
C779 C780 1.434 1_554 S
C780 C771 1.429 . S
C780 N777 1.350 . S
C780 C779 1.434 1_556 S
C781 C782 1.369 . S
C781 C783 1.419 1_554 S
C781 H785 0.930 . S
C782 C781 1.369 . S
C782 C791 1.429 . S
C783 C781 1.419 1_556 S
C783 C784 1.363 . S
C783 H786 0.929 . S
C784 C783 1.363 . S
C784 C790 1.428 . S
H785 C781 0.930 . S
H786 C783 0.929 . S
S787 N788 1.613 . S
S787 N789 1.610 1_554 S
N788 S787 1.613 . S
N788 C791 1.350 . S
N789 S787 1.610 1_556 S
N789 C790 1.351 . S
C790 C784 1.428 . S
C790 N789 1.351 . S
C790 C791 1.434 1_556 S
C791 C782 1.429 . S
C791 N788 1.350 . S
C791 C790 1.434 1_554 S
C792 C793 1.369 . S
C792 C794 1.419 . S
C792 H796 0.930 . S
C793 C792 1.369 . S
C793 C802 1.429 . S
C794 C792 1.419 . S
C794 C795 1.363 . S
C794 H797 0.929 . S
C795 C794 1.363 . S
C795 C801 1.428 . S
H796 C792 0.930 . S
H797 C794 0.929 . S
S798 N799 1.613 . S
S798 N800 1.610 . S
N799 S798 1.613 . S
N799 C802 1.350 . S
N800 S798 1.610 . S
N800 C801 1.351 . S
C801 C795 1.428 . S
C801 N800 1.351 . S
C801 C802 1.434 . S
C802 C793 1.429 . S
C802 N799 1.350 . S
C802 C801 1.434 . S
C803 C804 1.369 . S
C803 C805 1.419 . S
C803 H807 0.930 . S
C804 C803 1.369 . S
C804 C813 1.429 . S
C805 C803 1.419 . S
C805 C806 1.363 . S
C805 H808 0.929 . S
C806 C805 1.363 . S
C806 C812 1.428 . S
H807 C803 0.930 . S
H808 C805 0.929 . S
S809 N810 1.613 . S
S809 N811 1.610 . S
N810 S809 1.613 . S
N810 C813 1.350 . S
N811 S809 1.610 . S
N811 C812 1.351 . S
C812 C806 1.428 . S
C812 N811 1.351 . S
C812 C813 1.434 . S
C813 C804 1.429 . S
C813 N810 1.350 . S
C813 C812 1.434 . S
C814 C815 1.369 . S
C814 C816 1.419 . S
C814 H818 0.930 . S
C815 C814 1.369 . S
C815 C824 1.429 . S
C816 C814 1.419 . S
C816 C817 1.363 . S
C816 H819 0.929 . S
C817 C816 1.363 . S
C817 C823 1.428 . S
H818 C814 0.930 . S
H819 C816 0.929 . S
S820 N821 1.613 . S
S820 N822 1.610 . S
N821 S820 1.613 . S
N821 C824 1.350 . S
N822 S820 1.610 . S
N822 C823 1.351 . S
C823 C817 1.428 . S
C823 N822 1.351 . S
C823 C824 1.434 . S
C824 C815 1.429 . S
C824 N821 1.350 . S
C824 C823 1.434 . S
C825 C826 1.369 . S
C825 C827 1.419 . S
C825 H829 0.930 . S
C826 C825 1.369 . S
C826 C835 1.429 . S
C827 C825 1.419 . S
C827 C828 1.363 . S
C827 H830 0.929 . S
C828 C827 1.363 . S
C828 C834 1.428 . S
H829 C825 0.930 . S
H830 C827 0.929 . S
S831 N832 1.613 . S
S831 N833 1.610 . S
N832 S831 1.613 . S
N832 C835 1.350 . S
N833 S831 1.610 . S
N833 C834 1.351 . S
C834 C828 1.428 . S
C834 N833 1.351 . S
C834 C835 1.434 . S
C835 C826 1.429 . S
C835 N832 1.350 . S
C835 C834 1.434 . S
C836 C837 1.369 . S
C836 C838 1.419 1_556 S
C836 H840 0.930 . S
C837 C836 1.369 . S
C837 C846 1.429 1_556 S
C838 C836 1.419 1_554 S
C838 C839 1.363 . S
C838 H841 0.929 . S
C839 C838 1.363 . S
C839 C845 1.428 . S
H840 C836 0.930 . S
H841 C838 0.929 . S
S842 N843 1.613 . S
S842 N844 1.610 . S
N843 S842 1.613 . S
N843 C846 1.350 . S
N844 S842 1.610 . S
N844 C845 1.351 . S
C845 C839 1.428 . S
C845 N844 1.351 . S
C845 C846 1.434 . S
C846 C837 1.429 1_554 S
C846 N843 1.350 . S
C846 C845 1.434 . S
C847 C848 1.369 . S
C847 C849 1.419 1_556 S
C847 H851 0.930 . S
C848 C847 1.369 . S
C848 C857 1.429 1_556 S
C849 C847 1.419 1_554 S
C849 C850 1.363 . S
C849 H852 0.929 . S
C850 C849 1.363 . S
C850 C856 1.428 . S
H851 C847 0.930 . S
H852 C849 0.929 . S
S853 N854 1.613 . S
S853 N855 1.610 . S
N854 S853 1.613 . S
N854 C857 1.350 . S
N855 S853 1.610 . S
N855 C856 1.351 . S
C856 C850 1.428 . S
C856 N855 1.351 . S
C856 C857 1.434 . S
C857 C848 1.429 1_554 S
C857 N854 1.350 . S
C857 C856 1.434 . S
C858 C859 1.369 . S
C858 C860 1.419 1_554 S
C858 H862 0.930 . S
C859 C858 1.369 . S
C859 C868 1.429 . S
C860 C858 1.419 1_556 S
C860 C861 1.363 . S
C860 H863 0.929 . S
C861 C860 1.363 . S
C861 C867 1.428 . S
H862 C858 0.930 . S
H863 C860 0.929 . S
S864 N865 1.613 . S
S864 N866 1.610 1_554 S
N865 S864 1.613 . S
N865 C868 1.350 . S
N866 S864 1.610 1_556 S
N866 C867 1.351 . S
C867 C861 1.428 . S
C867 N866 1.351 . S
C867 C868 1.434 1_556 S
C868 C859 1.429 . S
C868 N865 1.350 . S
C868 C867 1.434 1_554 S
C869 C870 1.369 . S
C869 C871 1.419 . S
C869 H873 0.930 . S
C870 C869 1.369 . S
C870 C879 1.429 . S
C871 C869 1.419 . S
C871 C872 1.363 1_554 S
C871 H874 0.929 . S
C872 C871 1.363 1_556 S
C872 C878 1.428 . S
H873 C869 0.930 . S
H874 C871 0.929 . S
S875 N876 1.613 1_556 S
S875 N877 1.610 . S
N876 S875 1.613 1_554 S
N876 C879 1.350 . S
N877 S875 1.610 . S
N877 C878 1.351 . S
C878 C872 1.428 . S
C878 N877 1.351 . S
C878 C879 1.434 1_556 S
C879 C870 1.429 . S
C879 N876 1.350 . S
C879 C878 1.434 1_554 S
C353 C8 2.184 . S
C355 C120 2.177 . S
C364 C140 2.175 . S
C366 C32 2.184 . S
C375 C62 2.181 . S
C377 C162 2.180 . S
C386 C76 2.182 . S
C388 C98 2.179 . S
C397 C304 2.176 . S
C399 C184 2.183 . S
C408 C318 2.185 . S
C410 C206 2.177 . S
C419 C228 2.176 . S
C421 C348 2.183 . S
C430 C252 2.185 . S
C432 C272 2.177 . S
C441 C18 1.578 . S
C443 C84 1.530 . S
C452 C30 1.578 . S
C454 C10 1.533 . S
C463 C54 1.576 . S
C465 C40 1.536 . S
C474 C74 1.578 . S
C476 C52 1.533 . S
C485 C96 1.576 . S
C487 C128 1.533 . S
C496 C142 1.528 . S
C498 C118 1.578 . S
C507 C150 1.576 . S
C509 C164 1.534 . S
C518 C106 1.533 . S
C520 C172 1.576 . S
C529 C260 1.530 . S
C531 C194 1.577 . S
C540 C216 1.579 . S
C542 C186 1.533 . S
C551 C238 1.577 . S
C553 C208 1.535 . S
C562 C250 1.579 . S
C564 C230 1.532 . S
C573 C282 1.576 . S
C575 C294 1.536 . S
C584 C296 1.576 . S
C586 C326 1.535 . S
C595 C316 1.579 . S
C597 C338 1.530 . S
C606 C340 1.577 . S
C608 C274 1.531 . S
C617 C21 0.605 . S
C619 C51 0.608 . S
C628 C37 0.614 . S
C630 C81 0.602 . S
C639 C153 0.616 . S
C641 C103 0.598 . S
C650 C175 0.598 . S
C652 C125 0.612 . S
C661 C241 0.604 . S
C663 C197 0.606 . S
C672 C257 0.596 . S
C674 C219 0.615 . S
C683 C285 0.599 . S
C685 C323 0.614 . S
C694 C293 0.611 . S
C696 C337 0.601 . S
C705 C7 1.310 . S
C707 C249 1.300 . S
C716 C191 1.304 . S
C718 C43 1.310 . S
C727 C59 1.309 . S
C729 C213 1.301 . S
C738 C235 1.303 . S
C740 C87 1.311 . S
C749 C307 1.303 . S
C751 C109 1.309 . S
C760 C131 1.311 . S
C762 C315 1.300 . S
C771 C351 1.302 . S
C773 C139 1.309 . S
C782 C161 1.309 . S
C784 C279 1.301 . S
C793 C183 1.309 . S
C795 C73 1.303 . S
C804 C205 1.309 . S
C806 C15 1.303 . S
C815 C29 1.304 . S
C817 C227 1.309 . S
C826 C263 1.311 . S
C828 C65 1.304 . S
C837 C271 1.310 . S
C839 C117 1.304 . S
C848 C301 1.310 . S
C850 C147 1.304 . S
C859 C169 1.301 . S
C861 C329 1.309 . S
C870 C95 1.299 . S
C872 C345 1.310 . S
