# Generated by pormake.
# Topology wna, (6)-cn, num edge types: 1
# Building blocks:
#     Node 0, Type 0, BuildingBlock: BETGAK_clean_sbu_0, # of connection points: 6
#     Node 1, Type 0, BuildingBlock: BETGAK_clean_sbu_0, # of connection points: 6
#     Node 2, Type 0, BuildingBlock: BETGAK_clean_sbu_0, # of connection points: 6
#     Node 3, Type 0, BuildingBlock: BETGAK_clean_sbu_0, # of connection points: 6
#     Node 4, Type 0, BuildingBlock: BETGAK_clean_sbu_0, # of connection points: 6
#     Node 5, Type 0, BuildingBlock: BETGAK_clean_sbu_0, # of connection points: 6
#     Node 6, Type 0, BuildingBlock: BETGAK_clean_sbu_0, # of connection points: 6
#     Node 7, Type 0, BuildingBlock: BETGAK_clean_sbu_0, # of connection points: 6
#     Node 8, Type 0, BuildingBlock: BETGAK_clean_sbu_0, # of connection points: 6
#     Node 9, Type 0, BuildingBlock: BETGAK_clean_sbu_0, # of connection points: 6
#     Node 10, Type 0, BuildingBlock: BETGAK_clean_sbu_0, # of connection points: 6
#     Node 11, Type 0, BuildingBlock: BETGAK_clean_sbu_0, # of connection points: 6
#     Node 12, Type 0, BuildingBlock: BETGAK_clean_sbu_0, # of connection points: 6
#     Node 13, Type 0, BuildingBlock: BETGAK_clean_sbu_0, # of connection points: 6
#     Node 14, Type 0, BuildingBlock: BETGAK_clean_sbu_0, # of connection points: 6
#     Node 15, Type 0, BuildingBlock: BETGAK_clean_sbu_0, # of connection points: 6
#     Node 16, Type 0, BuildingBlock: BETGAK_clean_sbu_0, # of connection points: 6
#     Node 17, Type 0, BuildingBlock: BETGAK_clean_sbu_0, # of connection points: 6
#     Node 18, Type 0, BuildingBlock: BETGAK_clean_sbu_0, # of connection points: 6
#     Node 19, Type 0, BuildingBlock: BETGAK_clean_sbu_0, # of connection points: 6
#     Node 20, Type 0, BuildingBlock: BETGAK_clean_sbu_0, # of connection points: 6
#     Node 21, Type 0, BuildingBlock: BETGAK_clean_sbu_0, # of connection points: 6
#     Node 22, Type 0, BuildingBlock: BETGAK_clean_sbu_0, # of connection points: 6
#     Node 23, Type 0, BuildingBlock: BETGAK_clean_sbu_0, # of connection points: 6
#     Node 24, Type 0, BuildingBlock: BETGAK_clean_sbu_0, # of connection points: 6
#     Node 25, Type 0, BuildingBlock: BETGAK_clean_sbu_0, # of connection points: 6
#     Node 26, Type 0, BuildingBlock: BETGAK_clean_sbu_0, # of connection points: 6
#     Node 27, Type 0, BuildingBlock: BETGAK_clean_sbu_0, # of connection points: 6
#     Node 28, Type 0, BuildingBlock: BETGAK_clean_sbu_0, # of connection points: 6
#     Node 29, Type 0, BuildingBlock: BETGAK_clean_sbu_0, # of connection points: 6
#     Node 30, Type 0, BuildingBlock: BETGAK_clean_sbu_0, # of connection points: 6
#     Node 31, Type 0, BuildingBlock: BETGAK_clean_sbu_0, # of connection points: 6
#     Node 32, Type 0, BuildingBlock: BETGAK_clean_sbu_0, # of connection points: 6
#     Node 33, Type 0, BuildingBlock: BETGAK_clean_sbu_0, # of connection points: 6
#     Node 34, Type 0, BuildingBlock: BETGAK_clean_sbu_0, # of connection points: 6
#     Node 35, Type 0, BuildingBlock: BETGAK_clean_sbu_0, # of connection points: 6
#     Edge 36, Type (0, 0), BuildingBlock: AJUNOK_clean_linker_0, # of connection points: 2
#     Edge 37, Type (0, 0), BuildingBlock: AJUNOK_clean_linker_0, # of connection points: 2
#     Edge 38, Type (0, 0), BuildingBlock: AJUNOK_clean_linker_0, # of connection points: 2
#     Edge 39, Type (0, 0), BuildingBlock: AJUNOK_clean_linker_0, # of connection points: 2
#     Edge 40, Type (0, 0), BuildingBlock: AJUNOK_clean_linker_0, # of connection points: 2
#     Edge 41, Type (0, 0), BuildingBlock: AJUNOK_clean_linker_0, # of connection points: 2
#     Edge 42, Type (0, 0), BuildingBlock: AJUNOK_clean_linker_0, # of connection points: 2
#     Edge 43, Type (0, 0), BuildingBlock: AJUNOK_clean_linker_0, # of connection points: 2
#     Edge 44, Type (0, 0), BuildingBlock: AJUNOK_clean_linker_0, # of connection points: 2
#     Edge 45, Type (0, 0), BuildingBlock: AJUNOK_clean_linker_0, # of connection points: 2
#     Edge 46, Type (0, 0), BuildingBlock: AJUNOK_clean_linker_0, # of connection points: 2
#     Edge 47, Type (0, 0), BuildingBlock: AJUNOK_clean_linker_0, # of connection points: 2
#     Edge 48, Type (0, 0), BuildingBlock: AJUNOK_clean_linker_0, # of connection points: 2
#     Edge 49, Type (0, 0), BuildingBlock: AJUNOK_clean_linker_0, # of connection points: 2
#     Edge 50, Type (0, 0), BuildingBlock: AJUNOK_clean_linker_0, # of connection points: 2
#     Edge 51, Type (0, 0), BuildingBlock: AJUNOK_clean_linker_0, # of connection points: 2
#     Edge 52, Type (0, 0), BuildingBlock: AJUNOK_clean_linker_0, # of connection points: 2
#     Edge 53, Type (0, 0), BuildingBlock: AJUNOK_clean_linker_0, # of connection points: 2
#     Edge 54, Type (0, 0), BuildingBlock: AJUNOK_clean_linker_0, # of connection points: 2
#     Edge 55, Type (0, 0), BuildingBlock: AJUNOK_clean_linker_0, # of connection points: 2
#     Edge 56, Type (0, 0), BuildingBlock: AJUNOK_clean_linker_0, # of connection points: 2
#     Edge 57, Type (0, 0), BuildingBlock: AJUNOK_clean_linker_0, # of connection points: 2
#     Edge 58, Type (0, 0), BuildingBlock: AJUNOK_clean_linker_0, # of connection points: 2
#     Edge 59, Type (0, 0), BuildingBlock: AJUNOK_clean_linker_0, # of connection points: 2
#     Edge 60, Type (0, 0), BuildingBlock: AJUNOK_clean_linker_0, # of connection points: 2
#     Edge 61, Type (0, 0), BuildingBlock: AJUNOK_clean_linker_0, # of connection points: 2
#     Edge 62, Type (0, 0), BuildingBlock: AJUNOK_clean_linker_0, # of connection points: 2
#     Edge 63, Type (0, 0), BuildingBlock: AJUNOK_clean_linker_0, # of connection points: 2
#     Edge 64, Type (0, 0), BuildingBlock: AJUNOK_clean_linker_0, # of connection points: 2
#     Edge 65, Type (0, 0), BuildingBlock: AJUNOK_clean_linker_0, # of connection points: 2
#     Edge 66, Type (0, 0), BuildingBlock: AJUNOK_clean_linker_0, # of connection points: 2
#     Edge 67, Type (0, 0), BuildingBlock: AJUNOK_clean_linker_0, # of connection points: 2
#     Edge 68, Type (0, 0), BuildingBlock: AJUNOK_clean_linker_0, # of connection points: 2
#     Edge 69, Type (0, 0), BuildingBlock: AJUNOK_clean_linker_0, # of connection points: 2
#     Edge 70, Type (0, 0), BuildingBlock: AJUNOK_clean_linker_0, # of connection points: 2
#     Edge 71, Type (0, 0), BuildingBlock: AJUNOK_clean_linker_0, # of connection points: 2
#     Edge 72, Type (0, 0), BuildingBlock: AJUNOK_clean_linker_0, # of connection points: 2
#     Edge 73, Type (0, 0), BuildingBlock: AJUNOK_clean_linker_0, # of connection points: 2
#     Edge 74, Type (0, 0), BuildingBlock: AJUNOK_clean_linker_0, # of connection points: 2
#     Edge 75, Type (0, 0), BuildingBlock: AJUNOK_clean_linker_0, # of connection points: 2
#     Edge 76, Type (0, 0), BuildingBlock: AJUNOK_clean_linker_0, # of connection points: 2
#     Edge 77, Type (0, 0), BuildingBlock: AJUNOK_clean_linker_0, # of connection points: 2
#     Edge 78, Type (0, 0), BuildingBlock: AJUNOK_clean_linker_0, # of connection points: 2
#     Edge 79, Type (0, 0), BuildingBlock: AJUNOK_clean_linker_0, # of connection points: 2
#     Edge 80, Type (0, 0), BuildingBlock: AJUNOK_clean_linker_0, # of connection points: 2
#     Edge 81, Type (0, 0), BuildingBlock: AJUNOK_clean_linker_0, # of connection points: 2
#     Edge 82, Type (0, 0), BuildingBlock: AJUNOK_clean_linker_0, # of connection points: 2
#     Edge 83, Type (0, 0), BuildingBlock: AJUNOK_clean_linker_0, # of connection points: 2
#     Edge 84, Type (0, 0), BuildingBlock: AJUNOK_clean_linker_0, # of connection points: 2
#     Edge 85, Type (0, 0), BuildingBlock: AJUNOK_clean_linker_0, # of connection points: 2
#     Edge 86, Type (0, 0), BuildingBlock: AJUNOK_clean_linker_0, # of connection points: 2
#     Edge 87, Type (0, 0), BuildingBlock: AJUNOK_clean_linker_0, # of connection points: 2
#     Edge 88, Type (0, 0), BuildingBlock: AJUNOK_clean_linker_0, # of connection points: 2
#     Edge 89, Type (0, 0), BuildingBlock: AJUNOK_clean_linker_0, # of connection points: 2
#     Edge 90, Type (0, 0), BuildingBlock: AJUNOK_clean_linker_0, # of connection points: 2
#     Edge 91, Type (0, 0), BuildingBlock: AJUNOK_clean_linker_0, # of connection points: 2
#     Edge 92, Type (0, 0), BuildingBlock: AJUNOK_clean_linker_0, # of connection points: 2
#     Edge 93, Type (0, 0), BuildingBlock: AJUNOK_clean_linker_0, # of connection points: 2
#     Edge 94, Type (0, 0), BuildingBlock: AJUNOK_clean_linker_0, # of connection points: 2
#     Edge 95, Type (0, 0), BuildingBlock: AJUNOK_clean_linker_0, # of connection points: 2
#     Edge 96, Type (0, 0), BuildingBlock: AJUNOK_clean_linker_0, # of connection points: 2
#     Edge 97, Type (0, 0), BuildingBlock: AJUNOK_clean_linker_0, # of connection points: 2
#     Edge 98, Type (0, 0), BuildingBlock: AJUNOK_clean_linker_0, # of connection points: 2
#     Edge 99, Type (0, 0), BuildingBlock: AJUNOK_clean_linker_0, # of connection points: 2
#     Edge 100, Type (0, 0), BuildingBlock: AJUNOK_clean_linker_0, # of connection points: 2
#     Edge 101, Type (0, 0), BuildingBlock: AJUNOK_clean_linker_0, # of connection points: 2
#     Edge 102, Type (0, 0), BuildingBlock: AJUNOK_clean_linker_0, # of connection points: 2
#     Edge 103, Type (0, 0), BuildingBlock: AJUNOK_clean_linker_0, # of connection points: 2
#     Edge 104, Type (0, 0), BuildingBlock: AJUNOK_clean_linker_0, # of connection points: 2
#     Edge 105, Type (0, 0), BuildingBlock: AJUNOK_clean_linker_0, # of connection points: 2
#     Edge 106, Type (0, 0), BuildingBlock: AJUNOK_clean_linker_0, # of connection points: 2
#     Edge 107, Type (0, 0), BuildingBlock: AJUNOK_clean_linker_0, # of connection points: 2
#     Edge 108, Type (0, 0), BuildingBlock: AJUNOK_clean_linker_0, # of connection points: 2
#     Edge 109, Type (0, 0), BuildingBlock: AJUNOK_clean_linker_0, # of connection points: 2
#     Edge 110, Type (0, 0), BuildingBlock: AJUNOK_clean_linker_0, # of connection points: 2
#     Edge 111, Type (0, 0), BuildingBlock: AJUNOK_clean_linker_0, # of connection points: 2
#     Edge 112, Type (0, 0), BuildingBlock: AJUNOK_clean_linker_0, # of connection points: 2
#     Edge 113, Type (0, 0), BuildingBlock: AJUNOK_clean_linker_0, # of connection points: 2
#     Edge 114, Type (0, 0), BuildingBlock: AJUNOK_clean_linker_0, # of connection points: 2
#     Edge 115, Type (0, 0), BuildingBlock: AJUNOK_clean_linker_0, # of connection points: 2
#     Edge 116, Type (0, 0), BuildingBlock: AJUNOK_clean_linker_0, # of connection points: 2
#     Edge 117, Type (0, 0), BuildingBlock: AJUNOK_clean_linker_0, # of connection points: 2
#     Edge 118, Type (0, 0), BuildingBlock: AJUNOK_clean_linker_0, # of connection points: 2
#     Edge 119, Type (0, 0), BuildingBlock: AJUNOK_clean_linker_0, # of connection points: 2
#     Edge 120, Type (0, 0), BuildingBlock: AJUNOK_clean_linker_0, # of connection points: 2
#     Edge 121, Type (0, 0), BuildingBlock: AJUNOK_clean_linker_0, # of connection points: 2
#     Edge 122, Type (0, 0), BuildingBlock: AJUNOK_clean_linker_0, # of connection points: 2
#     Edge 123, Type (0, 0), BuildingBlock: AJUNOK_clean_linker_0, # of connection points: 2
#     Edge 124, Type (0, 0), BuildingBlock: AJUNOK_clean_linker_0, # of connection points: 2
#     Edge 125, Type (0, 0), BuildingBlock: AJUNOK_clean_linker_0, # of connection points: 2
#     Edge 126, Type (0, 0), BuildingBlock: AJUNOK_clean_linker_0, # of connection points: 2
#     Edge 127, Type (0, 0), BuildingBlock: AJUNOK_clean_linker_0, # of connection points: 2
#     Edge 128, Type (0, 0), BuildingBlock: AJUNOK_clean_linker_0, # of connection points: 2
#     Edge 129, Type (0, 0), BuildingBlock: AJUNOK_clean_linker_0, # of connection points: 2
#     Edge 130, Type (0, 0), BuildingBlock: AJUNOK_clean_linker_0, # of connection points: 2
#     Edge 131, Type (0, 0), BuildingBlock: AJUNOK_clean_linker_0, # of connection points: 2
#     Edge 132, Type (0, 0), BuildingBlock: AJUNOK_clean_linker_0, # of connection points: 2
#     Edge 133, Type (0, 0), BuildingBlock: AJUNOK_clean_linker_0, # of connection points: 2
#     Edge 134, Type (0, 0), BuildingBlock: AJUNOK_clean_linker_0, # of connection points: 2
#     Edge 135, Type (0, 0), BuildingBlock: AJUNOK_clean_linker_0, # of connection points: 2
#     Edge 136, Type (0, 0), BuildingBlock: AJUNOK_clean_linker_0, # of connection points: 2
#     Edge 137, Type (0, 0), BuildingBlock: AJUNOK_clean_linker_0, # of connection points: 2
#     Edge 138, Type (0, 0), BuildingBlock: AJUNOK_clean_linker_0, # of connection points: 2
#     Edge 139, Type (0, 0), BuildingBlock: AJUNOK_clean_linker_0, # of connection points: 2
#     Edge 140, Type (0, 0), BuildingBlock: AJUNOK_clean_linker_0, # of connection points: 2
#     Edge 141, Type (0, 0), BuildingBlock: AJUNOK_clean_linker_0, # of connection points: 2
#     Edge 142, Type (0, 0), BuildingBlock: AJUNOK_clean_linker_0, # of connection points: 2
#     Edge 143, Type (0, 0), BuildingBlock: AJUNOK_clean_linker_0, # of connection points: 2
# Relax obj value: 0.147
# Max RMSD: 0.226
# Mean RMSD: 0.209
data_MOF--net-wna--node1-BETGAK_clean_sbu_0--edge1-AJUNOK_clean_linker_0
_symmetry_space_group_name_H-M    P1
_symmetry_Int_Tables_number       1
_symmetry_cell_setting            triclinic
loop_
_symmetry_equiv_pos_as_xyz
'x, y, z'
_cell_length_a     30.15412
_cell_length_b     30.230524
_cell_length_c     129.87167
_cell_angle_alpha  90.009785
_cell_angle_beta   89.883834
_cell_angle_gamma 119.98726
loop_
_atom_site_label
_atom_site_type_symbol
_atom_site_fract_x
_atom_site_fract_y
_atom_site_fract_z
_atom_type_partial_charge
La0 La 0.13675 0.26423 0.1805 0.0
La1 La 0.14119 0.25944 0.20296 0.0
C2 C 0.1329 0.29132 0.16213 0.0
C3 C 0.15552 0.31037 0.15171 0.0
C4 C 0.179 0.28803 0.146 0.0
C5 C 0.19084 0.29985 0.1355 0.0
C6 C 0.17891 0.33379 0.13038 0.0
C7 C 0.15762 0.35777 0.13627 0.0
C8 C 0.14605 0.34615 0.14675 0.0
C9 C 0.15291 0.18953 0.18665 0.0
C10 C 0.24749 0.32587 0.1913 0.0
C11 C 0.13718 0.23769 0.22208 0.0
C12 C 0.1109 0.23027 0.23227 0.0
C13 C 0.10268 0.26786 0.23684 0.0
C14 C 0.08346 0.26173 0.24698 0.0
C15 C 0.0723 0.21804 0.25286 0.0
C16 C 0.0799 0.18031 0.24818 0.0
C17 C 0.09876 0.1863 0.23806 0.0
C18 C 0.11468 0.32808 0.19604 0.0
C19 C 0.03873 0.17925 0.19151 0.0
O20 O 0.1224 0.24548 0.16485 0.0
O21 O 0.14647 0.32252 0.17001 0.0
O22 O 0.13034 0.19001 0.17823 0.0
O23 O 0.17128 0.23314 0.19087 0.0
O24 O 0.21879 0.32204 0.1832 0.0
O25 O 0.22486 0.29831 0.19968 0.0
O26 O 0.16369 0.28371 0.21827 0.0
O27 O 0.11386 0.20395 0.21484 0.0
O28 O 0.14304 0.33331 0.20389 0.0
O29 O 0.1005 0.28396 0.19254 0.0
O30 O 0.06819 0.1886 0.1997 0.0
O31 O 0.0555 0.21138 0.18363 0.0
H32 H 0.18671 0.26016 0.14955 0.0
H33 H 0.20859 0.28168 0.13135 0.0
H34 H 0.14775 0.38399 0.13266 0.0
H35 H 0.12736 0.36349 0.15088 0.0
H36 H 0.11219 0.30255 0.23268 0.0
H37 H 0.07892 0.29202 0.25034 0.0
H38 H 0.07154 0.14604 0.25238 0.0
H39 H 0.10517 0.15689 0.23484 0.0
La40 La 0.78804 0.88112 0.18021 0.0
La41 La 0.7977 0.89609 0.20485 0.0
C42 C 0.75834 0.83858 0.16278 0.0
C43 C 0.74484 0.84406 0.15199 0.0
C44 C 0.77122 0.89018 0.14646 0.0
C45 C 0.76167 0.89207 0.13589 0.0
C46 C 0.72585 0.84781 0.13056 0.0
C47 C 0.69852 0.80222 0.13623 0.0
C48 C 0.70795 0.80041 0.14677 0.0
C49 C 0.85566 0.97777 0.18542 0.0
C50 C 0.73073 0.9333 0.19151 0.0
C51 C 0.82267 0.92529 0.22332 0.0
C52 C 0.82978 0.90675 0.23358 0.0
C53 C 0.78877 0.86755 0.23916 0.0
C54 C 0.79636 0.8536 0.2491 0.0
C55 C 0.84515 0.87824 0.25374 0.0
C56 C 0.88593 0.91749 0.24814 0.0
C57 C 0.87836 0.93143 0.23825 0.0
C58 C 0.73439 0.79637 0.19924 0.0
C59 C 0.87573 0.87288 0.19256 0.0
O60 O 0.80649 0.86605 0.16552 0.0
O61 O 0.72686 0.83389 0.17027 0.0
O62 O 0.84317 0.9612 0.17603 0.0
O63 O 0.8285 0.93987 0.19118 0.0
O64 O 0.73391 0.9087 0.18324 0.0
O65 O 0.75538 0.93619 0.20029 0.0
O66 O 0.77601 0.90661 0.2197 0.0
O67 O 0.8556 0.93197 0.21602 0.0
O68 O 0.74472 0.814 0.20854 0.0
O69 O 0.75969 0.83577 0.19376 0.0
O70 O 0.86601 0.89131 0.20102 0.0
O71 O 0.84536 0.85913 0.18432 0.0
H72 H 0.79992 0.92452 0.15026 0.0
H73 H 0.78258 0.92823 0.1319 0.0
H74 H 0.67083 0.7673 0.13245 0.0
H75 H 0.68735 0.76424 0.15079 0.0
H76 H 0.75066 0.84788 0.2359 0.0
H77 H 0.76398 0.82326 0.25314 0.0
H78 H 0.92377 0.9384 0.25149 0.0
H79 H 0.91062 0.96236 0.23429 0.0
La80 La 0.1707 0.91579 0.18185 0.0
La81 La 0.16602 0.91381 0.20433 0.0
C82 C 0.19008 0.91038 0.1631 0.0
C83 C 0.19919 0.90656 0.15191 0.0
C84 C 0.1596 0.89388 0.14477 0.0
C85 C 0.16674 0.88831 0.13428 0.0
C86 C 0.21364 0.89506 0.1306 0.0
C87 C 0.25374 0.90894 0.1377 0.0
C88 C 0.24655 0.91442 0.14824 0.0
C89 C 0.08216 0.90218 0.18895 0.0
C90 C 0.12727 0.8076 0.19313 0.0
C91 C 0.15054 0.91958 0.22353 0.0
C92 C 0.16842 0.94816 0.23354 0.0
C93 C 0.21002 0.95125 0.23911 0.0
C94 C 0.22073 0.97088 0.24923 0.0
C95 C 0.18971 0.98725 0.25417 0.0
C96 C 0.14929 0.98575 0.24845 0.0
C97 C 0.13879 0.96644 0.23834 0.0
C98 C 0.26002 0.94014 0.19667 0.0
C99 C 0.18587 1.01519 0.19219 0.0
O100 O 0.1468 0.905 0.16644 0.0
O101 O 0.22339 0.91929 0.17042 0.0
O102 O 0.10515 0.92678 0.18067 0.0
O103 O 0.10714 0.88235 0.19275 0.0
O104 O 0.15308 0.83675 0.18519 0.0
O105 O 0.12134 0.82985 0.20145 0.0
O106 O 0.17424 0.89694 0.21976 0.0
O107 O 0.13441 0.93773 0.21622 0.0
O108 O 0.23871 0.91244 0.20472 0.0
O109 O 0.22895 0.95341 0.19338 0.0
O110 O 0.17109 0.98823 0.20086 0.0
O111 O 0.19622 0.99658 0.18387 0.0
H112 H 0.1227 0.88783 0.14728 0.0
H113 H 0.1354 0.87884 0.12902 0.0
H114 H 0.29039 0.91454 0.13513 0.0
H115 H 0.2779 0.92437 0.15352 0.0
H116 H 0.23345 0.93706 0.23577 0.0
H117 H 0.25221 0.97144 0.25334 0.0
H118 H 0.12518 0.99897 0.25185 0.0
H119 H 0.10617 0.96425 0.23438 0.0
La120 La 0.27717 0.12846 0.36955 0.0
La121 La 0.2763 0.1349 0.34688 0.0
C122 C 0.30226 0.12358 0.38803 0.0
C123 C 0.32157 0.14595 0.39846 0.0
C124 C 0.29496 0.1627 0.40483 0.0
C125 C 0.30778 0.17382 0.41531 0.0
C126 C 0.34739 0.16825 0.41973 0.0
C127 C 0.37503 0.15322 0.41325 0.0
C128 C 0.36233 0.14229 0.40279 0.0
C129 C 0.20376 0.14522 0.36281 0.0
C130 C 0.34155 0.23964 0.35893 0.0
C131 C 0.25694 0.13255 0.32767 0.0
C132 C 0.245 0.10382 0.31768 0.0
C133 C 0.27842 0.08967 0.31305 0.0
C134 C 0.26889 0.06851 0.30305 0.0
C135 C 0.22577 0.06095 0.29736 0.0
C136 C 0.19245 0.07502 0.30207 0.0
C137 C 0.20182 0.09585 0.31205 0.0
C138 C 0.34253 0.10657 0.35437 0.0
C139 C 0.194 0.03168 0.35795 0.0
O140 O 0.25703 0.1148 0.38518 0.0
O141 O 0.33387 0.13573 0.38021 0.0
O142 O 0.20265 0.12235 0.37131 0.0
O143 O 0.24833 0.16383 0.35892 0.0
O144 O 0.3353 0.21053 0.36712 0.0
O145 O 0.31645 0.21794 0.35028 0.0
O146 O 0.3029 0.15202 0.33154 0.0
O147 O 0.22209 0.11593 0.33491 0.0
O148 O 0.34997 0.13553 0.34648 0.0
O149 O 0.29793 0.09313 0.35756 0.0
O150 O 0.20625 0.06101 0.34966 0.0
O151 O 0.22316 0.04791 0.36628 0.0
H152 H 0.26276 0.16517 0.40184 0.0
H153 H 0.28499 0.18441 0.42005 0.0
H154 H 0.40588 0.14871 0.41634 0.0
H155 H 0.38307 0.12869 0.39818 0.0
H156 H 0.31246 0.0958 0.31707 0.0
H157 H 0.2955 0.05822 0.29975 0.0
H158 H 0.15973 0.0715 0.29793 0.0
H159 H 0.1759 0.10732 0.31525 0.0
La160 La 0.92643 0.15901 0.36844 0.0
La161 La 0.92646 0.15588 0.34598 0.0
C162 C 0.91911 0.17593 0.38725 0.0
C163 C 0.91316 0.18321 0.39843 0.0
C164 C 0.88386 0.14058 0.40478 0.0
C165 C 0.8787 0.14644 0.41535 0.0
C166 C 0.90319 0.19509 0.41995 0.0
C167 C 0.93177 0.23792 0.41356 0.0
C168 C 0.9367 0.23205 0.40293 0.0
C169 C 0.91515 0.07177 0.36131 0.0
C170 C 0.81925 0.11549 0.35687 0.0
C171 C 0.93319 0.14121 0.3268 0.0
C172 C 0.96095 0.15995 0.31674 0.0
C173 C 0.968 0.20468 0.31187 0.0
C174 C 0.98798 0.21719 0.30178 0.0
C175 C 1.00088 0.18505 0.2962 0.0
C176 C 0.99494 0.14109 0.30123 0.0
C177 C 0.97527 0.12878 0.3113 0.0
C178 C 0.95103 0.24897 0.35373 0.0
C179 C 1.0275 0.17544 0.35823 0.0
O180 O 0.90665 0.13111 0.38353 0.0
O181 O 0.93614 0.21218 0.38028 0.0
O182 O 0.93944 0.09494 0.36959 0.0
O183 O 0.8949 0.09619 0.35743 0.0
O184 O 0.84771 0.14251 0.36478 0.0
O185 O 0.84254 0.10954 0.34874 0.0
O186 O 0.90793 0.16225 0.33057 0.0
O187 O 0.954 0.1279 0.33409 0.0
O188 O 0.92422 0.22797 0.34558 0.0
O189 O 0.96441 0.21811 0.35705 0.0
O190 O 1.0011 0.16155 0.34949 0.0
O191 O 1.00768 0.18384 0.36662 0.0
H192 H 0.86464 0.10242 0.40157 0.0
H193 H 0.85507 0.11267 0.41991 0.0
H194 H 0.95111 0.27598 0.41681 0.0
H195 H 0.95949 0.26569 0.39826 0.0
H196 H 0.95722 0.22956 0.31578 0.0
H197 H 0.99312 0.25207 0.29834 0.0
H198 H 1.004 0.11509 0.29726 0.0
H199 H 0.96967 0.09367 0.31474 0.0
La200 La 0.89685 0.78151 0.36857 0.0
La201 La 0.90493 0.78434 0.34583 0.0
C202 C 0.86622 0.75535 0.38704 0.0
C203 C 0.87291 0.74005 0.39766 0.0
C204 C 0.90172 0.77756 0.40509 0.0
C205 C 0.90017 0.76474 0.41554 0.0
C206 C 0.86987 0.71399 0.41894 0.0
C207 C 0.84227 0.67616 0.41148 0.0
C208 C 0.84357 0.68904 0.40101 0.0
C209 C 0.98738 0.85566 0.36211 0.0
C210 C 0.94586 0.71966 0.35774 0.0
C211 C 0.92299 0.80587 0.3267 0.0
C212 C 0.90654 0.81648 0.31656 0.0
C213 C 0.85708 0.78602 0.31247 0.0
C214 C 0.84534 0.795 0.30242 0.0
C215 C 0.88294 0.83405 0.29618 0.0
C216 C 0.93185 0.86507 0.30044 0.0
C217 C 0.94338 0.85643 0.31045 0.0
C218 C 0.81057 0.71685 0.3532 0.0
C219 C 0.8829 0.86494 0.35711 0.0
O220 O 0.89751 0.80208 0.38401 0.0
O221 O 0.85188 0.72292 0.37935 0.0
O222 O 0.96564 0.85497 0.37075 0.0
O223 O 0.96153 0.81193 0.35794 0.0
O224 O 0.92221 0.72453 0.36598 0.0
O225 O 0.94908 0.74533 0.34918 0.0
O226 O 0.89973 0.75946 0.33041 0.0
O227 O 0.93611 0.83972 0.334 0.0
O228 O 0.83212 0.71079 0.34514 0.0
O229 O 0.84125 0.76104 0.35653 0.0
O230 O 0.90111 0.85403 0.34882 0.0
O231 O 0.86918 0.83473 0.36529 0.0
H232 H 0.92404 0.8174 0.40291 0.0
H233 H 0.92207 0.7949 0.42101 0.0
H234 H 0.81777 0.63681 0.4138 0.0
H235 H 0.81985 0.65927 0.3956 0.0
H236 H 0.82781 0.7548 0.31694 0.0
H237 H 0.80723 0.77044 0.29942 0.0
H238 H 0.96153 0.89611 0.296 0.0
H239 H 0.98182 0.88052 0.31336 0.0
La240 La 0.92861 0.78368 0.84703 0.0
La241 La 0.93617 0.7816 0.86949 0.0
C242 C 0.93173 0.80415 0.82783 0.0
C243 C 0.95981 0.81427 0.81774 0.0
C244 C 0.96613 0.77671 0.81257 0.0
C245 C 0.98566 0.78487 0.80242 0.0
C246 C 0.99866 0.83042 0.79707 0.0
C247 C 0.99394 0.86848 0.8024 0.0
C248 C 0.9748 0.86049 0.81253 0.0
C249 C 0.955 0.71504 0.85402 0.0
C250 C 1.03332 0.86345 0.8579 0.0
C251 C 0.94017 0.75654 0.88806 0.0
C252 C 0.91703 0.74081 0.8986 0.0
C253 C 0.92883 0.77814 0.90625 0.0
C254 C 0.91602 0.76452 0.91663 0.0
C255 C 0.89079 0.713 0.91976 0.0
C256 C 0.87777 0.6755 0.91207 0.0
C257 C 0.89082 0.68918 0.90166 0.0
C258 C 0.92337 0.85784 0.86314 0.0
C259 C 0.82365 0.72022 0.8592 0.0
O260 O 0.90915 0.75807 0.83168 0.0
O261 O 0.95086 0.83862 0.83508 0.0
O262 O 0.9255 0.70913 0.84633 0.0
O263 O 0.96998 0.75953 0.85739 0.0
O264 O 1.00337 0.85305 0.84976 0.0
O265 O 1.01724 0.83263 0.86599 0.0
O266 O 0.95428 0.80282 0.88496 0.0
O267 O 0.92387 0.724 0.88038 0.0
O268 O 0.94733 0.85772 0.87136 0.0
O269 O 0.90173 0.81324 0.85922 0.0
O270 O 0.85336 0.72588 0.86724 0.0
O271 O 0.8452 0.74504 0.85051 0.0
H272 H 0.95465 0.7404 0.81625 0.0
H273 H 0.98881 0.75468 0.79861 0.0
H274 H 1.0045 0.90448 0.79868 0.0
H275 H 0.97016 0.89013 0.8162 0.0
H276 H 0.95022 0.81835 0.90431 0.0
H277 H 0.92814 0.79474 0.92227 0.0
H278 H 0.85829 0.63542 0.91413 0.0
H279 H 0.88195 0.65933 0.89607 0.0
La280 La 0.2764 0.1546 0.84672 0.0
La281 La 0.28017 0.16217 0.86935 0.0
C282 C 0.25465 0.13877 0.82753 0.0
C283 C 0.2486 0.15989 0.81744 0.0
C284 C 0.28864 0.18079 0.81014 0.0
C285 C 0.28079 0.19349 0.80011 0.0
C286 C 0.23259 0.18567 0.797 0.0
C287 C 0.1927 0.16523 0.80435 0.0
C288 C 0.20053 0.15252 0.81437 0.0
C289 C 0.34407 0.24931 0.85398 0.0
C290 C 0.19596 0.17595 0.85831 0.0
C291 C 0.30602 0.19131 0.88786 0.0
C292 C 0.32103 0.1839 0.89845 0.0
C293 C 0.28402 0.14946 0.90545 0.0
C294 C 0.29545 0.15006 0.91596 0.0
C295 C 0.34414 0.18525 0.91984 0.0
C296 C 0.3819 0.21796 0.91278 0.0
C297 C 0.37039 0.21756 0.90226 0.0
C298 C 0.20581 0.07161 0.86292 0.0
C299 C 0.34268 0.11442 0.85832 0.0
O300 O 0.30045 0.15573 0.83133 0.0
O301 O 0.22119 0.12893 0.83485 0.0
O302 O 0.34974 0.22786 0.84588 0.0
O303 O 0.3001 0.21835 0.85744 0.0
O304 O 0.20489 0.15532 0.85014 0.0
O305 O 0.22853 0.19179 0.8661 0.0
O306 O 0.25921 0.16049 0.8848 0.0
O307 O 0.33876 0.20604 0.88019 0.0
O308 O 0.20627 0.09352 0.8715 0.0
O309 O 0.24963 0.09761 0.85874 0.0
O310 O 0.3384 0.13862 0.8665 0.0
O311 O 0.31553 0.11001 0.8499 0.0
H312 H 0.3259 0.18608 0.81208 0.0
H313 H 0.31255 0.20909 0.79474 0.0
H314 H 0.15465 0.15721 0.80226 0.0
H315 H 0.16826 0.13526 0.81962 0.0
H316 H 0.2454 0.12326 0.9029 0.0
H317 H 0.26567 0.12357 0.9211 0.0
H318 H 0.41979 0.24561 0.91547 0.0
H319 H 0.3996 0.24525 0.89717 0.0
La320 La 0.91224 0.13366 0.84539 0.0
La321 La 0.89803 0.12762 0.87005 0.0
C322 C 0.94246 0.13997 0.8269 0.0
C323 C 0.92497 0.11672 0.81647 0.0
C324 C 0.87441 0.09743 0.81299 0.0
C325 C 0.86016 0.07747 0.80295 0.0
C326 C 0.89604 0.07622 0.79611 0.0
C327 C 0.9465 0.0955 0.79968 0.0
C328 C 0.96063 0.11529 0.80969 0.0
C329 C 0.81221 0.09542 0.85119 0.0
C330 C 0.89272 0.03362 0.85764 0.0
C331 C 0.85697 0.11565 0.88766 0.0
C332 C 0.86521 0.13425 0.89857 0.0
C333 C 0.88026 0.11091 0.90611 0.0
C334 C 0.88085 0.12256 0.9166 0.0
C335 C 0.86635 0.15787 0.91991 0.0
C336 C 0.85225 0.18202 0.91236 0.0
C337 C 0.85155 0.17028 0.90185 0.0
C338 C 0.99495 0.15828 0.86464 0.0
C339 C 0.94976 0.23743 0.85892 0.0
O340 O 0.92353 0.16736 0.8307 0.0
O341 O 0.94744 0.11184 0.83398 0.0
O342 O 0.8295 0.1031 0.84185 0.0
O343 O 0.85198 0.11035 0.8566 0.0
O344 O 0.91035 0.06192 0.84918 0.0
O345 O 0.8787 0.04905 0.86602 0.0
O346 O 0.88066 0.09166 0.88451 0.0
O347 O 0.85396 0.14419 0.88036 0.0
O348 O 0.97851 0.15347 0.87408 0.0
O349 O 0.95676 0.14721 0.85896 0.0
O350 O 0.92559 0.20922 0.86717 0.0
O351 O 0.95184 0.216 0.85001 0.0
H352 H 0.84603 0.09817 0.818 0.0
H353 H 0.8212 0.06392 0.80047 0.0
H354 H 0.9752 0.09499 0.79474 0.0
H355 H 0.99988 0.12991 0.81213 0.0
H356 H 0.89016 0.08231 0.90395 0.0
H357 H 0.89206 0.10328 0.92216 0.0
H358 H 0.8398 0.2086 0.9146 0.0
H359 H 0.83865 0.18823 0.89633 0.0
La360 La 0.79613 0.91519 0.70434 0.0
La361 La 0.79302 0.916 0.68189 0.0
C362 C 0.81797 0.92226 0.72349 0.0
C363 C 0.82882 0.9525 0.73327 0.0
C364 C 0.78945 0.95265 0.73911 0.0
C365 C 0.79908 0.97441 0.74904 0.0
C366 C 0.84823 0.99619 0.75349 0.0
C367 C 0.88783 0.99744 0.74749 0.0
C368 C 0.87824 0.97581 0.73757 0.0
C369 C 0.72691 0.93914 0.69681 0.0
C370 C 0.87742 1.01637 0.69219 0.0
C371 C 0.76812 0.91056 0.66316 0.0
C372 C 0.75508 0.90676 0.65197 0.0
C373 C 0.7818 0.89398 0.64477 0.0
C374 C 0.7691 0.88864 0.63428 0.0
C375 C 0.72911 0.8957 0.63066 0.0
C376 C 0.70307 0.90965 0.63782 0.0
C377 C 0.71576 0.91491 0.64835 0.0
C378 C 0.86864 0.90385 0.68911 0.0
C379 C 0.73015 0.80803 0.6934 0.0
O380 O 0.77143 0.89887 0.71981 0.0
O381 O 0.85202 0.93986 0.7161 0.0
O382 O 0.72136 0.91156 0.70483 0.0
O383 O 0.77136 0.95339 0.69335 0.0
O384 O 0.86459 0.98995 0.70091 0.0
O385 O 0.84939 0.99699 0.68378 0.0
O386 O 0.80491 0.90345 0.66648 0.0
O387 O 0.74485 0.9211 0.67048 0.0
O388 O 0.87015 0.92782 0.68074 0.0
O389 O 0.82368 0.8838 0.69282 0.0
O390 O 0.73239 0.83597 0.68532 0.0
O391 O 0.75846 0.83159 0.70161 0.0
H392 H 0.75078 0.93479 0.73614 0.0
H393 H 0.76776 0.97374 0.75326 0.0
H394 H 0.92612 1.01359 0.7506 0.0
H395 H 0.90937 0.97576 0.7334 0.0
H396 H 0.81255 0.88775 0.64723 0.0
H397 H 0.79084 0.87912 0.62899 0.0
H398 H 0.67215 0.91547 0.6353 0.0
H399 H 0.69448 0.92492 0.65367 0.0
La400 La 0.146 0.89219 0.70403 0.0
La401 La 0.13988 0.8849 0.68142 0.0
C402 C 0.14238 0.90865 0.72326 0.0
C403 C 0.11466 0.89103 0.73338 0.0
C404 C 0.10537 0.84563 0.73831 0.0
C405 C 0.08435 0.83362 0.74835 0.0
C406 C 0.07209 0.86666 0.75378 0.0
C407 C 0.08157 0.91198 0.74878 0.0
C408 C 0.10223 0.92377 0.73877 0.0
C409 C 0.11816 0.79774 0.6966 0.0
C410 C 0.04283 0.87065 0.69299 0.0
C411 C 0.13521 0.85581 0.66285 0.0
C412 C 0.15742 0.8633 0.65223 0.0
C413 C 0.14277 0.88649 0.64458 0.0
C414 C 0.155 0.88558 0.63416 0.0
C415 C 0.18245 0.8615 0.63101 0.0
C416 C 0.19824 0.83935 0.6387 0.0
C417 C 0.18579 0.84009 0.64914 0.0
C418 C 0.15662 0.97534 0.68804 0.0
C419 C 0.25131 0.93256 0.69192 0.0
O420 O 0.16564 0.88576 0.71939 0.0
O421 O 0.12223 0.92298 0.71604 0.0
O422 O 0.14665 0.81932 0.70452 0.0
O423 O 0.10462 0.82858 0.69335 0.0
O424 O 0.07267 0.88968 0.70116 0.0
O425 O 0.05891 0.85584 0.68491 0.0
O426 O 0.12003 0.8871 0.66603 0.0
O427 O 0.15311 0.84064 0.67044 0.0
O428 O 0.13416 0.95326 0.67955 0.0
O429 O 0.17509 0.94951 0.69202 0.0
O430 O 0.22207 0.90908 0.6838 0.0
O431 O 0.22945 0.93614 0.70056 0.0
H432 H 0.11507 0.81974 0.73449 0.0
H433 H 0.07777 0.79839 0.75188 0.0
H434 H 0.07448 0.93943 0.75271 0.0
H435 H 0.10994 0.95961 0.73534 0.0
H436 H 0.11965 0.90349 0.64656 0.0
H437 H 0.14076 0.90179 0.62853 0.0
H438 H 0.21948 0.82049 0.63661 0.0
H439 H 0.1969 0.82091 0.65474 0.0
La440 La 0.16674 0.26336 0.70375 0.0
La441 La 0.1764 0.26597 0.68127 0.0
C442 C 0.14987 0.2423 0.72297 0.0
C443 C 0.17108 0.23759 0.73315 0.0
C444 C 0.18986 0.27775 0.74037 0.0
C445 C 0.20213 0.27101 0.75051 0.0
C446 C 0.19555 0.22368 0.75384 0.0
C447 C 0.17842 0.18402 0.74652 0.0
C448 C 0.16606 0.19073 0.73638 0.0
C449 C 0.26209 0.33179 0.6968 0.0
C450 C 0.1893 0.18253 0.6927 0.0
C451 C 0.2066 0.29153 0.66274 0.0
C452 C 0.19977 0.3063 0.65207 0.0
C453 C 0.18037 0.26912 0.64423 0.0
C454 C 0.18239 0.28287 0.63383 0.0
C455 C 0.20422 0.3344 0.63086 0.0
C456 C 0.22161 0.37152 0.63875 0.0
C457 C 0.2198 0.35774 0.64918 0.0
C458 C 0.08525 0.19134 0.6875 0.0
C459 C 0.12632 0.32788 0.69172 0.0
O460 O 0.16609 0.2876 0.71903 0.0
O461 O 0.14109 0.20875 0.71577 0.0
O462 O 0.23877 0.33729 0.7046 0.0
O463 O 0.23229 0.28752 0.69335 0.0
O464 O 0.16894 0.19259 0.70076 0.0
O465 O 0.20508 0.21382 0.68469 0.0
O466 O 0.17558 0.24488 0.66583 0.0
O467 O 0.22081 0.32416 0.67039 0.0
O468 O 0.10851 0.1917 0.6791 0.0
O469 O 0.11035 0.23529 0.69161 0.0
O470 O 0.15113 0.32296 0.6837 0.0
O471 O 0.1218 0.3018 0.70029 0.0
H472 H 0.19375 0.31421 0.73829 0.0
H473 H 0.21639 0.30298 0.75577 0.0
H474 H 0.17273 0.147 0.74874 0.0
H475 H 0.15094 0.15851 0.73116 0.0
H476 H 0.16553 0.22921 0.64608 0.0
H477 H 0.16877 0.25308 0.62806 0.0
H478 H 0.23745 0.41149 0.63685 0.0
H479 H 0.2356 0.38759 0.65494 0.0
La480 La 0.80942 0.60087 0.5135 0.0
La481 La 0.80949 0.59216 0.53725 0.0
C482 C 0.80036 0.62974 0.49564 0.0
C483 C 0.81993 0.64142 0.48477 0.0
C484 C 0.80012 0.60275 0.47722 0.0
C485 C 0.8116 0.61432 0.46673 0.0
C486 C 0.84335 0.665 0.46339 0.0
C487 C 0.86391 0.70363 0.47095 0.0
C488 C 0.85228 0.69205 0.48147 0.0
C489 C 0.84015 0.53448 0.51868 0.0
C490 C 0.91609 0.65675 0.52545 0.0
C491 C 0.80315 0.56714 0.55622 0.0
C492 C 0.77908 0.56449 0.56653 0.0
C493 C 0.80267 0.60485 0.57366 0.0
C494 C 0.78462 0.59928 0.58387 0.0
C495 C 0.74273 0.55293 0.58735 0.0
C496 C 0.71819 0.51315 0.58012 0.0
C497 C 0.73622 0.51871 0.56992 0.0
C498 C 0.78608 0.66234 0.52987 0.0
C499 C 0.71122 0.5109 0.52459 0.0
O500 O 0.77807 0.58203 0.49867 0.0
O501 O 0.82647 0.66148 0.50311 0.0
O502 O 0.83682 0.54779 0.50933 0.0
O503 O 0.82818 0.56043 0.52452 0.0
O504 O 0.8893 0.65865 0.51748 0.0
O505 O 0.89215 0.627 0.53353 0.0
O506 O 0.83712 0.61166 0.5525 0.0
O507 O 0.77465 0.53637 0.54891 0.0
O508 O 0.80868 0.66485 0.53848 0.0
O509 O 0.77447 0.61931 0.5261 0.0
O510 O 0.73647 0.52334 0.53345 0.0
O511 O 0.73033 0.53969 0.51623 0.0
H512 H 0.77396 0.56347 0.47937 0.0
H513 H 0.79371 0.58357 0.4612 0.0
H514 H 0.88851 0.74311 0.46872 0.0
H515 H 0.86744 0.72305 0.48698 0.0
H516 H 0.83607 0.6405 0.57145 0.0
H517 H 0.80391 0.63132 0.58908 0.0
H518 H 0.68598 0.47685 0.58246 0.0
H519 H 0.71746 0.48636 0.56476 0.0
La520 La 0.45894 0.21411 0.51446 0.0
La521 La 0.46413 0.22485 0.53702 0.0
C522 C 0.43126 0.1829 0.49612 0.0
C523 C 0.41197 0.18702 0.48576 0.0
C524 C 0.4384 0.23104 0.47959 0.0
C525 C 0.42569 0.23037 0.46913 0.0
C526 C 0.38637 0.18564 0.46454 0.0
C527 C 0.35887 0.14233 0.47085 0.0
C528 C 0.37145 0.14306 0.48128 0.0
C529 C 0.53411 0.30483 0.52046 0.0
C530 C 0.39756 0.26383 0.52521 0.0
C531 C 0.48653 0.24324 0.55613 0.0
C532 C 0.49664 0.22537 0.56622 0.0
C533 C 0.45747 0.18498 0.57194 0.0
C534 C 0.46623 0.17432 0.58209 0.0
C535 C 0.51412 0.20418 0.58691 0.0
C536 C 0.55362 0.24333 0.58103 0.0
C537 C 0.54498 0.25377 0.5709 0.0
C538 C 0.39508 0.12972 0.53029 0.0
C539 C 0.54387 0.20149 0.52547 0.0
O540 O 0.47744 0.21781 0.49879 0.0
O541 O 0.4002 0.16542 0.50406 0.0
O542 O 0.53343 0.28154 0.51206 0.0
O543 O 0.49034 0.28001 0.52471 0.0
O544 O 0.40155 0.23884 0.51715 0.0
O545 O 0.42483 0.26895 0.53364 0.0
O546 O 0.44001 0.22073 0.55246 0.0
O547 O 0.52038 0.2571 0.54873 0.0
O548 O 0.38996 0.15318 0.53811 0.0
O549 O 0.43925 0.15937 0.52671 0.0
O550 O 0.53401 0.22095 0.53371 0.0
O551 O 0.51219 0.18634 0.51752 0.0
H552 H 0.47038 0.26541 0.4827 0.0
H553 H 0.44836 0.26424 0.46452 0.0
H554 H 0.32822 0.10729 0.46763 0.0
H555 H 0.35084 0.10829 0.48576 0.0
H556 H 0.41954 0.16248 0.5687 0.0
H557 H 0.43484 0.14383 0.58632 0.0
H558 H 0.59132 0.26652 0.58433 0.0
H559 H 0.57597 0.2854 0.56681 0.0
La560 La 0.84355 0.24969 0.51392 0.0
La561 La 0.83028 0.24966 0.5385 0.0
C562 C 0.88626 0.26009 0.49659 0.0
C563 C 0.88216 0.24163 0.4858 0.0
C564 C 0.84377 0.23732 0.47903 0.0
C565 C 0.84544 0.22713 0.46851 0.0
C566 C 0.88544 0.22091 0.46448 0.0
C567 C 0.92329 0.22451 0.47132 0.0
C568 C 0.9216 0.23466 0.48182 0.0
C569 C 0.74691 0.22217 0.51913 0.0
C570 C 0.79136 0.14262 0.52602 0.0
C571 C 0.80267 0.25066 0.55695 0.0
C572 C 0.82189 0.27548 0.56724 0.0
C573 C 0.84807 0.26022 0.57406 0.0
C574 C 0.86178 0.28145 0.58402 0.0
C575 C 0.84977 0.31854 0.58744 0.0
C576 C 0.82337 0.33343 0.58061 0.0
C577 C 0.80969 0.31227 0.57071 0.0
C578 C 0.92973 0.28471 0.53269 0.0
C579 C 0.85214 0.34773 0.52525 0.0
O580 O 0.85994 0.28225 0.49917 0.0
O581 O 0.88936 0.23284 0.50415 0.0
O582 O 0.76343 0.22469 0.50975 0.0
O583 O 0.78491 0.23357 0.52493 0.0
O584 O 0.81604 0.16867 0.51758 0.0
O585 O 0.78908 0.16628 0.5346 0.0
O586 O 0.81574 0.21787 0.55349 0.0
O587 O 0.80184 0.27973 0.54957 0.0
O588 O 0.91288 0.27872 0.54204 0.0
O589 O 0.8898 0.26953 0.52735 0.0
O590 O 0.8326 0.3208 0.53382 0.0
O591 O 0.86674 0.32972 0.51737 0.0
H592 H 0.81314 0.24308 0.4818 0.0
H593 H 0.81561 0.22455 0.46348 0.0
H594 H 0.95539 0.22129 0.46851 0.0
H595 H 0.95234 0.23889 0.48678 0.0
H596 H 0.85744 0.23141 0.57177 0.0
H597 H 0.88188 0.26884 0.58905 0.0
H598 H 0.81198 0.36062 0.58302 0.0
H599 H 0.78843 0.32408 0.56581 0.0
La600 La 0.94985 0.46313 0.70351 0.0
La601 La 0.93864 0.46487 0.67891 0.0
C602 C 0.97913 0.45206 0.72114 0.0
C603 C 0.98872 0.47042 0.73207 0.0
C604 C 0.95042 0.44522 0.73959 0.0
C605 C 0.96089 0.45664 0.75009 0.0
C606 C 1.01002 0.4936 0.75344 0.0
C607 C 0.04814 0.51969 0.74592 0.0
C608 C 0.03769 0.50813 0.73538 0.0
C609 C 0.88177 0.49142 0.6981 0.0
C610 C 1.00593 0.57082 0.69171 0.0
C611 C 0.91264 0.46727 0.66045 0.0
C612 C 0.90731 0.44205 0.6502 0.0
C613 C 0.94601 0.46503 0.64267 0.0
C614 C 0.93897 0.44465 0.63268 0.0
C615 C 0.89274 0.40092 0.62982 0.0
C616 C 0.85457 0.37711 0.63742 0.0
C617 C 0.86161 0.39747 0.64743 0.0
C618 C 1.00299 0.42985 0.68462 0.0
C619 C 0.86115 0.36574 0.6917 0.0
O620 O 0.93149 0.42744 0.71798 0.0
O621 O 1.01064 0.48096 0.71385 0.0
O622 O 0.895 0.48894 0.70753 0.0
O623 O 0.90845 0.4796 0.69245 0.0
O624 O 1.00396 0.54438 0.70011 0.0
O625 O 0.98064 0.54765 0.68308 0.0
O626 O 0.95897 0.49725 0.66405 0.0
O627 O 0.88042 0.4402 0.66779 0.0
O628 O 0.99183 0.43588 0.67531 0.0
O629 O 0.97801 0.44447 0.6901 0.0
O630 O 0.87066 0.39229 0.68303 0.0
O631 O 0.89149 0.38361 0.69992 0.0
H632 H 0.9125 0.41532 0.73741 0.0
H633 H 0.93053 0.43585 0.75564 0.0
H634 H 0.08669 0.54767 0.74819 0.0
H635 H 0.0685 0.5276 0.72987 0.0
H636 H 0.98156 0.49953 0.64444 0.0
H637 H 0.9698 0.46347 0.62715 0.0
H638 H 0.81844 0.34351 0.63555 0.0
H639 H 0.83058 0.37884 0.65293 0.0
La640 La 0.60082 0.49554 0.70288 0.0
La641 La 0.59599 0.48733 0.6803 0.0
C642 C 0.60479 0.52569 0.72131 0.0
C643 C 0.58192 0.51953 0.73182 0.0
C644 C 0.58608 0.48754 0.73918 0.0
C645 C 0.57463 0.48953 0.7496 0.0
C646 C 0.55857 0.52353 0.75302 0.0
C647 C 0.55275 0.55427 0.7456 0.0
C648 C 0.56436 0.55239 0.73516 0.0
C649 C 0.58428 0.40502 0.69646 0.0
C650 C 0.48998 0.44743 0.69213 0.0
C651 C 0.60026 0.4708 0.6611 0.0
C652 C 0.62784 0.4916 0.65104 0.0
C653 C 0.61017 0.51432 0.64388 0.0
C654 C 0.63074 0.52689 0.63386 0.0
C655 C 0.66968 0.51712 0.63061 0.0
C656 C 0.6878 0.49496 0.63782 0.0
C657 C 0.6672 0.48236 0.64784 0.0
C658 C 0.62279 0.58188 0.68758 0.0
C659 C 0.69868 0.50944 0.69166 0.0
O660 O 0.61899 0.49329 0.71837 0.0
O661 O 0.5882 0.54129 0.71357 0.0
O662 O 0.60646 0.42719 0.70497 0.0
O663 O 0.56616 0.43076 0.69236 0.0
O664 O 0.51877 0.47156 0.70027 0.0
O665 O 0.51239 0.44301 0.68365 0.0
O666 O 0.57348 0.48992 0.665 0.0
O667 O 0.62252 0.45886 0.66834 0.0
O668 O 0.59524 0.56027 0.67955 0.0
O669 O 0.63644 0.55128 0.69089 0.0
O670 O 0.66905 0.48919 0.68349 0.0
O671 O 0.682 0.52483 0.69955 0.0
H672 H 0.60061 0.46256 0.73699 0.0
H673 H 0.58087 0.46612 0.75506 0.0
H674 H 0.54033 0.58081 0.7479 0.0
H675 H 0.56166 0.57833 0.72979 0.0
H676 H 0.57924 0.52112 0.64593 0.0
H677 H 0.61569 0.54387 0.62858 0.0
H678 H 0.71671 0.48552 0.6356 0.0
H679 H 0.68104 0.46374 0.65299 0.0
La680 La 0.56309 0.11339 0.70244 0.0
La681 La 0.57432 0.11906 0.67991 0.0
C682 C 0.53163 0.08636 0.72083 0.0
C683 C 0.53932 0.07244 0.73149 0.0
C684 C 0.55539 0.1093 0.73937 0.0
C685 C 0.55431 0.09579 0.74975 0.0
C686 C 0.53679 0.04483 0.75265 0.0
C687 C 0.52267 1.00818 0.74473 0.0
C688 C 0.52351 1.0217 0.73431 0.0
C689 C 0.65474 0.18846 0.69666 0.0
C690 C 0.61263 0.05204 0.69169 0.0
C691 C 0.59355 0.14193 0.66082 0.0
C692 C 0.5767 0.15214 0.65065 0.0
C693 C 0.52872 0.11888 0.6462 0.0
C694 C 0.51682 0.12766 0.63614 0.0
C695 C 0.55251 0.16985 0.63022 0.0
C696 C 0.60041 0.20279 0.63476 0.0
C697 C 0.61211 0.1942 0.64478 0.0
C698 C 0.47873 0.04986 0.68666 0.0
C699 C 0.55035 0.19783 0.69137 0.0
O700 O 0.561 0.13348 0.71782 0.0
O701 O 0.51959 0.05407 0.71317 0.0
O702 O 0.63107 0.1869 0.70508 0.0
O703 O 0.62977 0.14525 0.69224 0.0
O704 O 0.58725 0.05575 0.69973 0.0
O705 O 0.61837 0.07972 0.68329 0.0
O706 O 0.57106 0.09543 0.66446 0.0
O707 O 0.60594 0.17539 0.6682 0.0
O708 O 0.5022 0.04509 0.67879 0.0
O709 O 0.50842 0.09383 0.69023 0.0
O710 O 0.57124 0.18912 0.68322 0.0
O711 O 0.53352 0.16482 0.69909 0.0
H712 H 0.56686 0.14858 0.73756 0.0
H713 H 0.56522 0.12515 0.75555 0.0
H714 H 0.51018 0.96875 0.74659 0.0
H715 H 0.51035 0.9921 0.7285 0.0
H716 H 0.50064 0.08572 0.65042 0.0
H717 H 0.47954 0.1013 0.63299 0.0
H718 H 0.62976 0.23471 0.63045 0.0
H719 H 0.64979 0.21997 0.64786 0.0
La720 La 0.59393 0.1189 0.17972 0.0
La721 La 0.59807 0.1136 0.20226 0.0
C722 C 0.59892 0.14186 0.16062 0.0
C723 C 0.6259 0.15066 0.15043 0.0
C724 C 0.62581 0.11087 0.14474 0.0
C725 C 0.64492 0.11903 0.13456 0.0
C726 C 0.66387 0.16692 0.1297 0.0
C727 C 0.66538 0.20695 0.13554 0.0
C728 C 0.64664 0.19891 0.1457 0.0
C729 C 0.62051 0.05045 0.18656 0.0
C730 C 0.6958 0.19939 0.19131 0.0
C731 C 0.60226 0.08599 0.22056 0.0
C732 C 0.58021 0.06598 0.23097 0.0
C733 C 0.55396 0.08546 0.23665 0.0
C734 C 0.5424 0.07307 0.24715 0.0
C735 C 0.55741 0.04148 0.25228 0.0
C736 C 0.58158 1.02031 0.24641 0.0
C737 C 0.59284 0.03245 0.23593 0.0
C738 C 0.58214 0.18853 0.19613 0.0
C739 C 0.48743 0.05271 0.19137 0.0
O740 O 0.57246 0.09553 0.16429 0.0
O741 O 0.62138 0.17508 0.16798 0.0
O742 O 0.59248 0.04537 0.17867 0.0
O743 O 0.63438 0.09431 0.19017 0.0
O744 O 0.66661 0.18927 0.18306 0.0
O745 O 0.67927 0.16779 0.19928 0.0
O746 O 0.61118 0.13147 0.21796 0.0
O747 O 0.58975 0.05531 0.21261 0.0
O748 O 0.60435 0.18774 0.20459 0.0
O749 O 0.56386 0.14494 0.19189 0.0
O750 O 0.51575 0.05625 0.19953 0.0
O751 O 0.51042 0.07998 0.18298 0.0
H752 H 0.60973 0.07303 0.14804 0.0
H753 H 0.64317 0.08727 0.13035 0.0
H754 H 0.68063 0.24463 0.1322 0.0
H755 H 0.64697 0.23035 0.14978 0.0
H756 H 0.54381 0.11157 0.23309 0.0
H757 H 0.52241 0.08899 0.25128 0.0
H758 H 0.59388 0.99598 0.25003 0.0
H759 H 0.6137 1.01738 0.23182 0.0
La760 La 0.93844 0.48583 0.17871 0.0
La761 La 0.94727 0.49625 0.20343 0.0
C762 C 0.91305 0.45875 0.1601 0.0
C763 C 0.90811 0.47609 0.14959 0.0
C764 C 0.94069 0.52577 0.14583 0.0
C765 C 0.93439 0.53967 0.13577 0.0
C766 C 0.89547 0.50422 0.12919 0.0
C767 C 0.86293 0.45475 0.13308 0.0
C768 C 0.86918 0.44101 0.14308 0.0
C769 C 1.00281 0.58406 0.18505 0.0
C770 C 0.85943 0.50583 0.19154 0.0
C771 C 0.97621 0.53588 0.22111 0.0
C772 C 0.98668 0.5278 0.23202 0.0
C773 C 0.95175 0.52219 0.23983 0.0
C774 C 0.96364 0.52201 0.25027 0.0
C775 C 1.0111 0.52789 0.25328 0.0
C776 C 0.04547 0.5318 0.24546 0.0
C777 C 1.03357 0.53206 0.23499 0.0
C778 C 0.87911 0.40064 0.19774 0.0
C779 C 1.00442 0.44559 0.19156 0.0
O780 O 0.95887 0.47362 0.16383 0.0
O781 O 0.88175 0.45773 0.16722 0.0
O782 O 0.99349 0.56824 0.17562 0.0
O783 O 0.97612 0.54388 0.1902 0.0
O784 O 0.86964 0.48942 0.18285 0.0
O785 O 0.88942 0.51807 0.19981 0.0
O786 O 0.92843 0.512 0.21803 0.0
O787 O 1.00785 0.53932 0.21376 0.0
O788 O 0.89198 0.41581 0.2072 0.0
O789 O 0.90654 0.43917 0.19211 0.0
O790 O 1.00145 0.46927 0.2 0.0
O791 O 0.97962 0.44382 0.18286 0.0
H792 H 0.97083 0.55386 0.15067 0.0
H793 H 0.95959 0.57847 0.13321 0.0
H794 H 0.83278 0.42613 0.12832 0.0
H795 H 0.84344 0.40246 0.14574 0.0
H796 H 0.91565 0.51971 0.23788 0.0
H797 H 0.93626 0.51919 0.25602 0.0
H798 H 0.08193 0.53525 0.24744 0.0
H799 H 0.06169 0.53685 0.22923 0.0
La800 La 0.57146 0.46607 0.18017 0.0
La801 La 0.5611 0.45948 0.20264 0.0
C802 C 0.58952 0.462 0.16102 0.0
C803 C 0.5712 0.43411 0.15095 0.0
C804 C 0.53061 0.43288 0.14533 0.0
C805 C 0.51937 0.41305 0.13521 0.0
C806 C 0.54882 0.39459 0.13035 0.0
C807 C 0.58821 0.39432 0.13613 0.0
C808 C 0.59925 0.41384 0.14623 0.0
C809 C 0.47578 0.43875 0.18698 0.0
C810 C 0.54885 0.36282 0.1914 0.0
C811 C 0.52966 0.45503 0.22103 0.0
C812 C 0.53324 0.47754 0.23147 0.0
C813 C 0.57899 0.50024 0.23719 0.0
C814 C 0.57898 0.51187 0.2477 0.0
C815 C 0.53316 0.50058 0.25283 0.0
C816 C 0.48797 0.48007 0.24694 0.0
C817 C 0.48804 0.46863 0.23644 0.0
C818 C 0.6522 0.47538 0.19656 0.0
C819 C 0.61122 0.5712 0.19213 0.0
O820 O 0.56781 0.48668 0.16476 0.0
O821 O 0.60257 0.44128 0.16837 0.0
O822 O 0.49934 0.46797 0.17925 0.0
O823 O 0.50574 0.42451 0.1905 0.0
O824 O 0.56783 0.39239 0.18318 0.0
O825 O 0.53406 0.37886 0.19949 0.0
O826 O 0.56515 0.44467 0.21828 0.0
O827 O 0.51196 0.46862 0.21316 0.0
O828 O 0.62834 0.45198 0.20488 0.0
O829 O 0.62746 0.49461 0.19239 0.0
O830 O 0.58649 0.54163 0.20016 0.0
O831 O 0.61562 0.54953 0.18355 0.0
H832 H 0.50837 0.44854 0.14862 0.0
H833 H 0.4887 0.41388 0.13105 0.0
H834 H 0.61109 0.37947 0.1328 0.0
H835 H 0.63102 0.41448 0.15024 0.0
H836 H 0.61454 0.5075 0.23364 0.0
H837 H 0.61487 0.52901 0.25186 0.0
H838 H 0.45192 0.47072 0.25055 0.0
H839 H 0.45203 0.45052 0.23231 0.0
La840 La 0.46054 0.24565 0.03752 0.0
La841 La 0.45854 0.25023 1.01478 0.0
C842 C 0.48172 0.24975 0.0567 0.0
C843 C 0.49224 0.27673 0.06687 0.0
C844 C 0.45947 0.29197 0.07139 0.0
C845 C 0.46892 0.31301 0.08142 0.0
C846 C 0.51131 0.31931 0.08724 0.0
C847 C 0.54365 0.30365 0.08265 0.0
C848 C 0.53442 0.28306 0.07266 0.0
C849 C 0.39333 0.27265 0.03003 0.0
C850 C 0.54087 0.34824 0.02605 0.0
C851 C 0.43439 0.2547 0.99619 0.0
C852 C 0.42059 0.234 0.98547 0.0
C853 C 0.45705 0.25718 0.97755 0.0
C854 C 0.44355 0.24532 0.96716 0.0
C855 C 0.39294 0.20998 0.96428 0.0
C856 C 0.35676 0.1852 0.97224 0.0
C857 C 0.37028 0.19733 0.98268 0.0
C858 C 0.53254 0.23398 1.02157 0.0
C859 C 0.39487 0.13987 0.02562 0.0
O860 O 0.43529 0.2264 0.05296 0.0
O861 O 0.51577 0.27039 0.04939 0.0
O862 O 0.38711 0.24546 0.03815 0.0
O863 O 0.43755 0.28575 0.02668 0.0
O864 O 0.53097 0.31914 0.03433 0.0
O865 O 0.50937 0.33126 1.01809 0.0
O866 O 0.481 0.27052 0.99938 0.0
O867 O 0.40097 0.23569 1.00374 0.0
O868 O 0.53269 0.2553 1.01293 0.0
O869 O 0.48825 0.21603 0.02554 0.0
O870 O 0.40029 0.16862 1.01742 0.0
O871 O 0.42078 0.16209 0.03419 0.0
H872 H 0.42624 0.28714 0.06723 0.0
H873 H 0.44299 0.32443 0.08463 0.0
H874 H 0.57563 0.30598 0.08689 0.0
H875 H 0.55983 0.27076 0.06953 0.0
H876 H 0.49592 0.28633 0.97936 0.0
H877 H 0.47252 0.26555 0.96133 0.0
H878 H 0.3177 0.1568 0.9704 0.0
H879 H 0.34097 0.17897 0.98852 0.0
La880 La 0.81249 0.22547 0.03698 0.0
La881 La 0.80375 0.21671 1.01434 0.0
C882 C 0.81047 0.24356 0.05616 0.0
C883 C 0.78136 0.2272 0.06615 0.0
C884 C 0.76505 0.17904 0.07065 0.0
C885 C 0.74345 0.16755 0.08064 0.0
C886 C 0.73757 0.20385 0.08644 0.0
C887 C 0.75375 0.25183 0.08184 0.0
C888 C 0.77501 0.26314 0.07188 0.0
C889 C 0.78487 0.13101 0.02968 0.0
C890 C 0.70708 0.20108 0.02624 0.0
C891 C 0.7986 0.1873 0.99581 0.0
C892 C 0.82166 0.19284 0.98533 0.0
C893 C 0.81614 0.22327 0.97779 0.0
C894 C 0.82813 0.22099 0.96742 0.0
C895 C 0.84611 0.18823 0.96421 0.0
C896 C 0.85308 0.15889 0.9718 0.0
C897 C 0.84092 0.16106 0.98219 0.0
C898 C 0.81879 0.30569 1.02113 0.0
C899 C 0.91666 0.26589 1.02447 0.0
O900 O 0.82952 0.21658 0.05235 0.0
O901 O 0.7943 0.26184 0.04888 0.0
O902 O 0.81414 0.15312 0.03749 0.0
O903 O 0.77057 0.16136 0.02649 0.0
O904 O 0.73731 0.21983 0.03438 0.0
O905 O 0.72296 0.18731 1.01797 0.0
O906 O 0.78728 0.22171 0.99884 0.0
O907 O 0.8129 0.16926 1.00351 0.0
O908 O 0.79358 0.2828 1.01292 0.0
O909 O 0.83959 0.28143 1.02476 0.0
O910 O 0.88656 0.24293 1.01641 0.0
O911 O 0.89571 0.26854 0.03332 0.0
H912 H 0.76982 0.1505 0.06655 0.0
H913 H 0.73151 0.13017 0.08384 0.0
H914 H 0.7516 0.28156 0.08607 0.0
H915 H 0.78811 0.30095 0.06877 0.0
H916 H 0.80019 0.24724 0.97981 0.0
H917 H 0.82089 0.2432 0.96183 0.0
H918 H 0.86692 0.13329 0.96966 0.0
H919 H 0.84471 0.13627 0.9877 0.0
La920 La 0.82996 0.59487 0.03705 0.0
La921 La 0.83867 0.59513 1.01452 0.0
C922 C 0.81365 0.57564 0.05632 0.0
C923 C 0.83299 0.56577 0.06623 0.0
C924 C 0.8738 0.60515 0.07178 0.0
C925 C 0.8865 0.59639 0.08174 0.0
C926 C 0.85867 0.54807 0.0865 0.0
C927 C 0.81843 0.50864 0.08086 0.0
C928 C 0.80584 0.51735 0.07092 0.0
C929 C 0.92498 0.66147 0.02975 0.0
C930 C 0.84929 0.51128 0.02635 0.0
C931 C 0.8684 0.61905 0.99594 0.0
C932 C 0.86123 0.63364 0.98528 0.0
C933 C 0.83872 0.59577 0.97762 0.0
C934 C 0.84005 0.60881 0.9672 0.0
C935 C 0.86385 0.66019 0.96405 0.0
C936 C 0.88502 0.69819 0.97173 0.0
C937 C 0.88396 0.68512 0.98219 0.0
C938 C 0.74713 0.52317 1.02116 0.0
C939 C 0.79112 0.65998 1.02486 0.0
O940 O 0.83707 0.62151 0.05235 0.0
O941 O 0.79737 0.54083 0.04913 0.0
O942 O 0.90225 0.66847 0.03748 0.0
O943 O 0.8948 0.61677 0.02654 0.0
O944 O 0.8296 0.52286 0.03429 0.0
O945 O 0.8657 0.54148 1.01817 0.0
O946 O 0.83671 0.57278 0.99915 0.0
O947 O 0.88371 0.65219 1.0035 0.0
O948 O 0.76914 0.52155 1.01272 0.0
O949 O 0.77358 0.56751 1.02497 0.0
O950 O 0.81474 0.65365 1.01677 0.0
O951 O 0.78671 0.63455 0.03351 0.0
H952 H 0.89508 0.64323 0.06856 0.0
H953 H 0.91703 0.62811 0.08585 0.0
H954 H 0.79614 0.47088 0.08418 0.0
H955 H 0.77367 0.48629 0.067 0.0
H956 H 0.82173 0.55575 0.97962 0.0
H957 H 0.82316 0.57848 0.96155 0.0
H958 H 0.90444 0.7382 0.96961 0.0
H959 H 0.90272 0.71543 0.98779 0.0
La960 La 0.47537 0.93314 0.84763 0.0
La961 La 0.48022 0.9295 0.87014 0.0
C962 C 0.47197 0.95974 0.82917 0.0
C963 C 0.4941 0.97422 0.81854 0.0
C964 C 0.4894 0.9366 0.81149 0.0
C965 C 0.49974 0.94777 0.80096 0.0
C966 C 0.51495 0.99685 0.79711 0.0
C967 C 0.52221 0.03516 0.8042 0.0
C968 C 0.51153 0.02391 0.81475 0.0
C969 C 0.49072 0.858 0.85379 0.0
C970 C 0.5867 0.9937 0.85837 0.0
C971 C 0.47602 0.9077 0.88928 0.0
C972 C 0.44848 0.89684 0.89941 0.0
C973 C 0.43242 0.92912 0.90382 0.0
C974 C 0.41144 0.9199 0.91387 0.0
C975 C 0.40603 0.87826 0.9198 0.0
C976 C 0.42226 0.84626 0.9153 0.0
C977 C 0.44281 0.85526 0.90529 0.0
C978 C 0.45437 0.99837 0.86303 0.0
C979 C 0.37744 0.84949 0.85879 0.0
O980 O 0.45516 0.91285 0.83222 0.0
O981 O 0.49083 0.99223 0.83683 0.0
O982 O 0.46889 0.85906 0.84531 0.0
O983 O 0.5093 0.90163 0.85806 0.0
O984 O 0.55814 0.98894 0.85017 0.0
O985 O 0.56389 0.96829 0.86694 0.0
O986 O 0.49892 0.9541 0.88558 0.0
O987 O 0.45611 0.87383 0.88195 0.0
O988 O 0.48291 1.00388 0.87087 0.0
O989 O 0.43987 0.95401 0.85962 0.0
O990 O 0.40635 0.85984 0.86709 0.0
O991 O 0.39424 0.88047 0.85074 0.0
H992 H 0.47558 0.89773 0.81403 0.0
H993 H 0.49466 0.91753 0.79578 0.0
H994 H 0.53383 0.07337 0.80152 0.0
H995 H 0.51471 0.05363 0.81987 0.0
H996 H 0.43672 0.96188 0.89958 0.0
H997 H 0.3995 0.94551 0.917 0.0
H998 H 0.42056 0.81485 0.91963 0.0
H999 H 0.45574 0.83027 0.90223 0.0
La1000 La 0.1292 0.55048 0.84779 0.0
La1001 La 0.13466 0.56081 0.87022 0.0
C1002 C 0.10156 0.51919 0.82947 0.0
C1003 C 0.0848 0.52564 0.819 0.0
C1004 C 0.12076 0.55856 0.81168 0.0
C1005 C 0.1073 0.5569 0.80127 0.0
C1006 C 0.05743 0.52231 0.79784 0.0
C1007 C 1.02102 0.49066 0.80523 0.0
C1008 C 1.03453 0.49223 0.81564 0.0
C1009 C 0.20383 0.64194 0.85367 0.0
C1010 C 0.06752 0.59967 0.85859 0.0
C1011 C 0.15786 0.57866 0.8893 0.0
C1012 C 0.16387 0.55789 0.8994 0.0
C1013 C 0.12386 0.53748 0.9067 0.0
C1014 C 0.13182 0.52555 0.91677 0.0
C1015 C 0.18021 0.5341 0.91993 0.0
C1016 C 0.21975 0.5529 0.91252 0.0
C1017 C 0.21183 0.56491 0.90246 0.0
C1018 C 0.06597 0.46511 0.86356 0.0
C1019 C 0.21453 0.5384 0.85874 0.0
O1020 O 0.14861 0.55085 0.83228 0.0
O1021 O 0.06977 0.50472 0.8373 0.0
O1022 O 0.20292 0.61888 0.84522 0.0
O1023 O 0.16046 0.61649 0.85803 0.0
O1024 O 0.07124 0.57449 0.85053 0.0
O1025 O 0.0953 0.60505 0.86695 0.0
O1026 O 0.11195 0.56217 0.8856 0.0
O1027 O 0.19069 0.5871 0.88193 0.0
O1028 O 0.06116 0.48835 0.87144 0.0
O1029 O 0.10984 0.49522 0.85992 0.0
O1030 O 0.20606 0.56001 0.86679 0.0
O1031 O 0.18145 0.52158 0.85103 0.0
H1032 H 0.16016 0.58406 0.81387 0.0
H1033 H 0.13681 0.58107 0.79584 0.0
H1034 H 0.98221 0.46366 0.80291 0.0
H1035 H 1.00606 0.46565 0.82099 0.0
H1036 H 0.08657 0.53204 0.90474 0.0
H1037 H 0.10002 0.51007 0.92213 0.0
H1038 H 0.25755 0.56015 0.91463 0.0
H1039 H 0.24393 0.58136 0.89716 0.0
La1040 La 0.51232 0.58415 0.84733 0.0
La1041 La 0.49812 0.58205 0.87192 0.0
C1042 C 0.55336 0.59543 0.82974 0.0
C1043 C 0.54439 0.577 0.81882 0.0
C1044 C 0.52991 0.60122 0.81136 0.0
C1045 C 0.52856 0.58962 0.80086 0.0
C1046 C 0.54166 0.55345 0.79744 0.0
C1047 C 0.55513 0.52838 0.8049 0.0
C1048 C 0.55665 0.54011 0.81543 0.0
C1049 C 0.41565 0.5557 0.85257 0.0
C1050 C 0.45988 0.47623 0.85906 0.0
C1051 C 0.46879 0.57882 0.89038 0.0
C1052 C 0.4876 0.60367 0.90071 0.0
C1053 C 0.50029 0.57931 0.90847 0.0
C1054 C 0.51239 0.59941 0.91852 0.0
C1055 C 0.51153 0.64416 0.92119 0.0
C1056 C 0.5001 0.66922 0.91337 0.0
C1057 C 0.48814 0.64923 0.90331 0.0
C1058 C 0.59792 0.61756 0.86631 0.0
C1059 C 0.52003 0.68117 0.85913 0.0
O1060 O 0.53067 0.62034 0.83292 0.0
O1061 O 0.5555 0.5663 0.83702 0.0
O1062 O 0.43194 0.55845 0.84318 0.0
O1063 O 0.45377 0.56735 0.85831 0.0
O1064 O 0.48475 0.50282 0.85069 0.0
O1065 O 0.45751 0.49929 0.8677 0.0
O1066 O 0.48597 0.54953 0.88678 0.0
O1067 O 0.46364 0.60581 0.88306 0.0
O1068 O 0.58035 0.61152 0.8756 0.0
O1069 O 0.55845 0.60272 0.8608 0.0
O1070 O 0.50258 0.6545 0.86779 0.0
O1071 O 0.53316 0.66353 0.85095 0.0
H1072 H 0.52107 0.63048 0.8136 0.0
H1073 H 0.51788 0.60962 0.79537 0.0
H1074 H 0.56646 0.50105 0.80257 0.0
H1075 H 0.56907 0.52145 0.82089 0.0
H1076 H 0.49966 0.54386 0.90685 0.0
H1077 H 0.5209 0.57893 0.92431 0.0
H1078 H 0.50015 0.70435 0.91501 0.0
H1079 H 0.47833 0.66912 0.89763 0.0
La1080 La 0.61269 0.79405 0.03584 0.0
La1081 La 0.60653 0.79788 1.01332 0.0
C1082 C 0.64117 0.79038 0.0541 0.0
C1083 C 0.66101 0.81284 0.0645 0.0
C1084 C 0.63439 0.82915 0.07097 0.0
C1085 C 0.64767 0.84025 0.08143 0.0
C1086 C 0.6879 0.83534 0.08573 0.0
C1087 C 0.71541 0.82052 0.07915 0.0
C1088 C 0.70218 0.80952 0.06871 0.0
C1089 C 0.53716 0.80949 0.02994 0.0
C1090 C 0.67282 0.90427 1.02482 0.0
C1091 C 0.58293 0.79235 0.99429 0.0
C1092 C 0.57423 0.76375 0.98434 0.0
C1093 C 0.61332 0.78021 0.97687 0.0
C1094 C 0.60316 0.75888 0.96691 0.0
C1095 C 0.55343 0.72092 0.96404 0.0
C1096 C 0.51475 0.70323 0.97163 0.0
C1097 C 0.52491 0.72443 0.98159 0.0
C1098 C 0.67572 0.77184 1.02002 0.0
C1099 C 0.52655 0.69622 1.025 0.0
O1100 O 0.59508 0.77999 0.05155 0.0
O1101 O 0.67184 0.80358 0.04611 0.0
O1102 O 0.53857 0.7877 0.03841 0.0
O1103 O 0.58052 0.82772 0.02553 0.0
O1104 O 0.66956 0.87626 0.03301 0.0
O1105 O 0.64539 0.88114 1.01648 0.0
O1106 O 0.6295 0.81916 0.99785 0.0
O1107 O 0.54986 0.77086 1.00176 0.0
O1108 O 0.68044 0.79971 1.01211 0.0
O1109 O 0.6318 0.7579 1.0237 0.0
O1110 O 0.53676 0.72467 1.01664 0.0
O1111 O 0.55766 0.7132 0.03304 0.0
H1112 H 0.602 0.83152 0.06807 0.0
H1113 H 0.62566 0.85168 0.08621 0.0
H1114 H 0.74572 0.81496 0.08217 0.0
H1115 H 0.72268 0.79589 0.06404 0.0
H1116 H 0.65157 0.81091 0.97859 0.0
H1117 H 0.63397 0.77358 0.96132 0.0
H1118 H 0.47625 0.67328 0.96983 0.0
H1119 H 0.49357 0.71097 0.98704 0.0
La1120 La 0.26059 0.82415 0.03533 0.0
La1121 La 0.25893 0.81927 1.01296 0.0
C1122 C 0.25521 0.84363 0.05407 0.0
C1123 C 0.25153 0.85283 0.06526 0.0
C1124 C 0.24072 0.814 0.07249 0.0
C1125 C 0.23545 0.82123 0.08298 0.0
C1126 C 0.24053 0.86741 0.0866 0.0
C1127 C 0.2525 0.90678 0.07941 0.0
C1128 C 0.25776 0.89951 0.06886 0.0
C1129 C 0.24775 0.73582 0.0284 0.0
C1130 C 0.1522 0.77941 1.02408 0.0
C1131 C 0.265 0.8042 0.99375 0.0
C1132 C 0.2938 0.82251 0.98375 0.0
C1133 C 0.29419 0.86216 0.97794 0.0
C1134 C 0.31391 0.87285 0.96781 0.0
C1135 C 0.3331 0.84373 0.9631 0.0
C1136 C 0.33438 0.80541 0.96906 0.0
C1137 C 0.31495 0.79492 0.97918 0.0
C1138 C 0.28323 0.91273 1.02044 0.0
C1139 C 0.36084 0.84021 1.02497 0.0
O1140 O 0.24837 0.79994 0.05074 0.0
O1141 O 0.26548 0.87728 0.04675 0.0
O1142 O 0.27261 0.75931 0.0366 0.0
O1143 O 0.22766 0.76042 1.02455 0.0
O1144 O 0.18096 0.80578 0.03201 0.0
O1145 O 0.17503 0.77339 1.01587 0.0
O1146 O 0.24182 0.82733 0.99754 0.0
O1147 O 0.28343 0.78832 1.00106 0.0
O1148 O 0.25508 0.89025 1.01252 0.0
O1149 O 0.29783 0.88279 1.0238 0.0
O1150 O 0.33402 0.82566 1.0163 0.0
O1151 O 0.34171 0.84962 0.03334 0.0
H1152 H 0.23604 0.77766 0.07003 0.0
H1153 H 0.22754 0.79052 0.0883 0.0
H1154 H 0.25677 0.94287 0.08192 0.0
H1155 H 0.2662 0.93026 0.06352 0.0
H1156 H 0.27774 0.88394 0.98109 0.0
H1157 H 0.31228 0.90268 0.9635 0.0
H1158 H 0.34981 0.78286 0.96584 0.0
H1159 H 0.3149 0.7638 0.98333 0.0
La1160 La 0.22799 0.44479 0.03582 0.0
La1161 La 0.24247 0.45398 1.01199 0.0
C1162 C 0.19197 0.41389 0.05378 0.0
C1163 C 0.19734 0.39697 0.06429 0.0
C1164 C 0.24035 0.42661 0.07054 0.0
C1165 C 0.24038 0.41448 0.08101 0.0
C1166 C 0.19746 0.37242 0.08555 0.0
C1167 C 0.15503 0.34226 0.07919 0.0
C1168 C 0.15508 0.35431 0.06874 0.0
C1169 C 0.31859 0.52129 0.02987 0.0
C1170 C 0.27994 0.38591 1.0247 0.0
C1171 C 0.27067 0.48002 0.99344 0.0
C1172 C 0.25128 0.48562 0.98312 0.0
C1173 C 0.23062 0.44529 0.97593 0.0
C1174 C 0.21724 0.45238 0.96592 0.0
C1175 C 0.22407 0.50001 0.96274 0.0
C1176 C 0.24475 0.54028 0.96994 0.0
C1177 C 0.25815 0.53323 0.97993 0.0
C1178 C 0.14174 0.39129 1.01713 0.0
C1179 C 0.21597 0.52907 1.02405 0.0
O1180 O 0.22221 0.46169 0.05126 0.0
O1181 O 0.18157 0.38323 0.04588 0.0
O1182 O 0.296 0.51832 0.03856 0.0
O1183 O 0.29292 0.4786 0.02527 0.0
O1184 O 0.26039 0.39382 0.03329 0.0
O1185 O 0.27912 0.40757 1.01576 0.0
O1186 O 0.25456 0.43391 0.99708 0.0
O1187 O 0.27509 0.51189 1.00075 0.0
O1188 O 0.1606 0.40135 1.00793 0.0
O1189 O 0.18046 0.41617 1.02275 0.0
O1190 O 0.24027 0.52316 1.01614 0.0
O1191 O 0.1973 0.49481 0.03162 0.0
H1192 H 0.27339 0.46016 0.06743 0.0
H1193 H 0.2738 0.43858 0.08562 0.0
H1194 H 0.12069 0.31047 0.08239 0.0
H1195 H 0.12092 0.3314 0.06422 0.0
H1196 H 0.22555 0.40831 0.97798 0.0
H1197 H 0.20155 0.42042 0.96063 0.0
H1198 H 0.25207 0.57792 0.96776 0.0
H1199 H 0.27508 0.56564 0.98511 0.0
La1200 La 0.2603 0.44835 0.51311 0.0
La1201 La 0.26647 0.44613 0.53565 0.0
C1202 C 0.26425 0.46907 0.49391 0.0
C1203 C 0.29139 0.47742 0.48377 0.0
C1204 C 0.29705 0.43907 0.47879 0.0
C1205 C 0.31699 0.4464 0.46868 0.0
C1206 C 0.33145 0.49209 0.46323 0.0
C1207 C 0.32641 0.53051 0.46832 0.0
C1208 C 0.30683 0.52331 0.4784 0.0
C1209 C 0.28635 0.37987 0.52024 0.0
C1210 C 0.36376 0.52902 0.52413 0.0
C1211 C 0.27071 0.42087 0.5542 0.0
C1212 C 0.24921 0.40685 0.56491 0.0
C1213 C 0.25811 0.44522 0.57215 0.0
C1214 C 0.24784 0.43379 0.58268 0.0
C1215 C 0.22851 0.38365 0.58637 0.0
C1216 C 0.21724 0.34482 0.5791 0.0
C1217 C 0.22785 0.35631 0.56854 0.0
C1218 C 0.25067 0.52074 0.52923 0.0
C1219 C 0.15461 0.38486 0.52511 0.0
O1220 O 0.23883 0.42307 0.49777 0.0
O1221 O 0.28626 0.5032 0.50113 0.0
O1222 O 0.25774 0.37419 0.51241 0.0
O1223 O 0.30101 0.42428 0.52364 0.0
O1224 O 0.33381 0.51863 0.516 0.0
O1225 O 0.34763 0.49793 0.53218 0.0
O1226 O 0.28716 0.46753 0.55103 0.0
O1227 O 0.25171 0.38792 0.54662 0.0
O1228 O 0.27302 0.52053 0.5377 0.0
O1229 O 0.23185 0.47666 0.5252 0.0
O1230 O 0.18363 0.38982 0.53325 0.0
O1231 O 0.17694 0.41021 0.51651 0.0
H1232 H 0.28494 0.40291 0.48259 0.0
H1233 H 0.31943 0.41553 0.46501 0.0
H1234 H 0.33731 0.56628 0.46446 0.0
H1235 H 0.30244 0.5534 0.48192 0.0
H1236 H 0.27511 0.48472 0.56975 0.0
H1237 H 0.25611 0.46459 0.58799 0.0
H1238 H 0.20239 0.30578 0.58163 0.0
H1239 H 0.22134 0.32586 0.56328 0.0
La1240 La 0.61209 0.82194 0.51301 0.0
La1241 La 0.61171 0.82415 0.53543 0.0
C1242 C 0.59251 0.80898 0.49375 0.0
C1243 C 0.58128 0.82842 0.48401 0.0
C1244 C 0.61969 0.87052 0.47855 0.0
C1245 C 0.61015 0.88319 0.46867 0.0
C1246 C 0.56212 0.85381 0.46386 0.0
C1247 C 0.52338 0.81274 0.46948 0.0
C1248 C 0.53286 0.80019 0.47936 0.0
C1249 C 0.67791 0.91527 0.52103 0.0
C1250 C 0.5272 0.83801 0.52464 0.0
C1251 C 0.63559 0.84389 0.55419 0.0
C1252 C 0.64816 0.85342 0.56538 0.0
C1253 C 0.61954 0.81501 0.57266 0.0
C1254 C 0.6321 0.82239 0.58315 0.0
C1255 C 0.67374 0.86837 0.58671 0.0
C1256 C 0.70159 0.90741 0.57948 0.0
C1257 C 0.68909 0.89995 0.56894 0.0
C1258 C 0.53812 0.73617 0.52796 0.0
C1259 C 0.67715 0.78016 0.52413 0.0
O1260 O 0.6386 0.83323 0.49763 0.0
O1261 O 0.55773 0.79051 0.50099 0.0
O1262 O 0.68582 0.89458 0.51305 0.0
O1263 O 0.63323 0.88374 0.52414 0.0
O1264 O 0.54155 0.82457 0.51611 0.0
O1265 O 0.55498 0.84853 0.53315 0.0
O1266 O 0.59589 0.80197 0.55094 0.0
O1267 O 0.66227 0.87562 0.54678 0.0
O1268 O 0.53541 0.75794 0.53633 0.0
O1269 O 0.58344 0.76183 0.52438 0.0
O1270 O 0.6721 0.80343 0.53237 0.0
O1271 O 0.65121 0.77737 0.51568 0.0
H1272 H 0.6576 0.89307 0.4818 0.0
H1273 H 0.64069 0.9159 0.46476 0.0
H1274 H 0.48598 0.78897 0.4661 0.0
H1275 H 0.50256 0.76706 0.48323 0.0
H1276 H 0.58756 0.77879 0.57024 0.0
H1277 H 0.60902 0.79192 0.5885 0.0
H1278 H 0.73382 0.94334 0.58195 0.0
H1279 H 0.71183 0.93042 0.56356 0.0
La1280 La 0.23822 0.79762 0.5136 0.0
La1281 La 0.23107 0.79156 0.53639 0.0
C1282 C 0.25526 0.79518 0.49436 0.0
C1283 C 0.238 0.76729 0.48428 0.0
C1284 C 0.19319 0.75918 0.47922 0.0
C1285 C 0.18224 0.73984 0.46908 0.0
C1286 C 0.21612 0.72883 0.46363 0.0
C1287 C 0.25991 0.73534 0.46885 0.0
C1288 C 0.27066 0.75428 0.47898 0.0
C1289 C 0.14381 0.77 0.52111 0.0
C1290 C 0.21693 0.69466 0.52476 0.0
C1291 C 0.20157 0.78695 0.55494 0.0
C1292 C 0.20912 0.80941 0.56553 0.0
C1293 C 0.23412 0.79652 0.57311 0.0
C1294 C 0.23325 0.80874 0.58352 0.0
C1295 C 0.20742 0.83434 0.58672 0.0
C1296 C 0.18371 0.84872 0.57911 0.0
C1297 C 0.18433 0.8362 0.56867 0.0
C1298 C 0.32093 0.80791 0.52949 0.0
C1299 C 0.27864 0.90263 0.52571 0.0
O1300 O 0.23047 0.81641 0.49828 0.0
O1301 O 0.27169 0.77679 0.50156 0.0
O1302 O 0.16536 0.79832 0.51315 0.0
O1303 O 0.17477 0.75656 0.5244 0.0
O1304 O 0.23418 0.72368 0.51642 0.0
O1305 O 0.20355 0.71099 0.53302 0.0
O1306 O 0.23307 0.7719 0.5518 0.0
O1307 O 0.18627 0.80455 0.54732 0.0
O1308 O 0.30063 0.78716 0.53824 0.0
O1309 O 0.29473 0.82611 0.52564 0.0
O1310 O 0.25568 0.87366 0.53392 0.0
O1311 O 0.28182 0.88076 0.51705 0.0
H1312 H 0.16726 0.7691 0.48298 0.0
H1313 H 0.1481 0.73526 0.46535 0.0
H1314 H 0.2864 0.72631 0.46505 0.0
H1315 H 0.30565 0.76032 0.48258 0.0
H1316 H 0.25277 0.77502 0.57109 0.0
H1317 H 0.25208 0.7972 0.58912 0.0
H1318 H 0.16269 0.86768 0.58128 0.0
H1319 H 0.16363 0.84575 0.56313 0.0
La1320 La 0.12886 0.58202 0.37071 0.0
La1321 La 0.12552 0.586 0.34796 0.0
C1322 C 0.15052 0.58674 0.38987 0.0
C1323 C 0.16045 0.61421 0.39998 0.0
C1324 C 0.12338 0.62139 0.40515 0.0
C1325 C 0.13258 0.64228 0.41518 0.0
C1326 C 0.17897 0.65642 0.42036 0.0
C1327 C 0.21578 0.64906 0.41511 0.0
C1328 C 0.20675 0.62861 0.40511 0.0
C1329 C 0.06152 0.60899 0.36337 0.0
C1330 C 0.21025 0.68363 0.3591 0.0
C1331 C 0.09863 0.58976 0.32958 0.0
C1332 C 0.08205 0.56742 0.31905 0.0
C1333 C 0.11631 0.56354 0.31221 0.0
C1334 C 0.10447 0.55313 0.30171 0.0
C1335 C 0.05818 0.54656 0.2977 0.0
C1336 C 1.02284 0.54783 0.30463 0.0
C1337 C 1.03476 0.55844 0.31514 0.0
C1338 C 0.19964 0.5697 0.35446 0.0
C1339 C 0.0634 0.47574 0.35899 0.0
O1340 O 0.10406 0.56198 0.38616 0.0
O1341 O 0.18428 0.60798 0.38253 0.0
O1342 O 0.05554 0.58191 0.37148 0.0
O1343 O 0.1056 0.62201 0.35993 0.0
O1344 O 0.19957 0.65468 0.36741 0.0
O1345 O 0.1791 0.667 0.35106 0.0
O1346 O 0.14544 0.60422 0.33245 0.0
O1347 O 0.06648 0.57285 0.33736 0.0
O1348 O 0.199 0.59004 0.34573 0.0
O1349 O 0.15583 0.55225 0.35863 0.0
O1350 O 0.06803 0.50388 0.35073 0.0
O1351 O 0.08956 0.49865 0.36749 0.0
H1352 H 0.08696 0.61016 0.40152 0.0
H1353 H 0.10317 0.64722 0.4189 0.0
H1354 H 0.25124 0.65762 0.41885 0.0
H1355 H 0.23569 0.62257 0.40148 0.0
H1356 H 0.1533 0.57059 0.31488 0.0
H1357 H 0.13218 0.55136 0.29666 0.0
H1358 H 0.98687 0.54302 0.30184 0.0
H1359 H 1.00785 0.56201 0.32012 0.0
La1360 La 0.47833 0.56133 0.37034 0.0
La1361 La 0.4726 0.55141 0.34782 0.0
C1362 C 0.47412 0.57886 0.38948 0.0
C1363 C 0.44701 0.55947 0.39959 0.0
C1364 C 0.43739 0.51288 0.40399 0.0
C1365 C 0.41698 0.49898 0.41405 0.0
C1366 C 0.40616 0.53151 0.42005 0.0
C1367 C 0.41489 0.57751 0.41547 0.0
C1368 C 0.43493 0.59118 0.40545 0.0
C1369 C 0.45237 0.46652 0.36353 0.0
C1370 C 0.37546 0.53903 0.35914 0.0
C1371 C 0.46847 0.52007 0.32945 0.0
C1372 C 0.49112 0.52397 0.31898 0.0
C1373 C 0.50539 0.56657 0.31255 0.0
C1374 C 0.51697 0.56533 0.30207 0.0
C1375 C 0.51463 0.52151 0.2977 0.0
C1376 C 0.50167 0.4795 0.30423 0.0
C1377 C 0.49017 0.48078 0.31469 0.0
C1378 C 0.48771 0.642 0.35386 0.0
C1379 C 0.58388 0.60208 0.35851 0.0
O1380 O 0.50051 0.55914 0.38567 0.0
O1381 O 0.45139 0.58996 0.38222 0.0
O1382 O 0.48103 0.48992 0.37132 0.0
O1383 O 0.4377 0.49603 0.35998 0.0
O1384 O 0.40529 0.5583 0.36728 0.0
O1385 O 0.39144 0.52404 0.35106 0.0
O1386 O 0.45704 0.55474 0.3322 0.0
O1387 O 0.48272 0.50301 0.33733 0.0
O1388 O 0.46517 0.61851 0.34547 0.0
O1389 O 0.50686 0.61736 0.35809 0.0
O1390 O 0.5553 0.57725 0.35039 0.0
O1391 O 0.56129 0.60633 0.36695 0.0
H1392 H 0.44625 0.48745 0.39973 0.0
H1393 H 0.40965 0.46261 0.4171 0.0
H1394 H 0.40755 0.60392 0.41976 0.0
H1395 H 0.44236 0.62756 0.40236 0.0
H1396 H 0.50587 0.60031 0.3155 0.0
H1397 H 0.52689 0.59849 0.29733 0.0
H1398 H 0.49808 0.44455 0.30117 0.0
H1399 H 0.47812 0.44685 0.31933 0.0
La1400 La 0.49689 0.9269 0.37156 0.0
La1401 La 0.50679 0.93606 0.34682 0.0
C1402 C 0.46942 0.90179 0.39018 0.0
C1403 C 0.48691 0.8977 0.40073 0.0
C1404 C 0.53604 0.93203 0.40453 0.0
C1405 C 0.5501 0.92688 0.41464 0.0
C1406 C 0.51542 0.88728 0.42121 0.0
C1407 C 0.46637 0.85318 0.41732 0.0
C1408 C 0.45247 0.85827 0.40725 0.0
C1409 C 0.59527 0.99048 0.3651 0.0
C1410 C 0.51632 0.84803 0.35866 0.0
C1411 C 0.54711 0.9661 0.32919 0.0
C1412 C 0.54151 0.98013 0.31843 0.0
C1413 C 0.49955 0.94798 0.31216 0.0
C1414 C 0.49906 0.95908 0.30163 0.0
C1415 C 0.54044 1.00259 0.29709 0.0
C1416 C 0.58195 0.03492 0.30345 0.0
C1417 C 0.58237 0.02389 0.31395 0.0
C1418 C 0.41112 0.86793 0.35266 0.0
C1419 C 0.45612 0.99273 0.35883 0.0
O1420 O 0.48377 0.94725 0.38636 0.0
O1421 O 0.4691 0.87059 0.38315 0.0
O1422 O 0.57976 0.98126 0.37457 0.0
O1423 O 0.55472 0.9645 0.36001 0.0
O1424 O 0.49991 0.85817 0.36736 0.0
O1425 O 0.52848 0.878 0.35037 0.0
O1426 O 0.52007 0.91801 0.33194 0.0
O1427 O 0.55249 0.99732 0.33674 0.0
O1428 O 0.42609 0.88095 0.34317 0.0
O1429 O 0.44987 0.89533 0.35823 0.0
O1430 O 0.47935 0.98987 0.35029 0.0
O1431 O 0.4552 0.96829 0.36752 0.0
H1432 H 0.56343 0.96294 0.39971 0.0
H1433 H 0.58789 0.95451 0.41737 0.0
H1434 H 0.43864 0.82203 0.42204 0.0
H1435 H 0.41435 0.8312 0.40455 0.0
H1436 H 0.46763 0.91362 0.31531 0.0
H1437 H 0.46642 0.93327 0.297 0.0
H1438 H 0.6152 0.06793 0.30025 0.0
H1439 H 0.61572 0.0488 0.31851 0.0
C1440 C 0.17143 0.12247 0.1801 0.0
C1441 C 0.16845 0.15018 0.18854 0.0
C1442 C 0.17981 0.08104 0.1814 0.0
C1443 C 0.18443 0.06411 0.19124 0.0
H1444 H 0.1663 0.13226 0.17234 0.0
H1445 H 0.1804 0.06076 0.17457 0.0
S1446 S 0.1819 0.12485 0.21596 0.0
N1447 N 0.17379 0.15947 0.20712 0.0
N1448 N 0.18743 0.08033 0.20966 0.0
C1449 C 0.18286 0.09229 0.19978 0.0
C1450 C 0.1755 0.13555 0.19842 0.0
C1451 C 0.97394 0.08998 0.19797 0.0
C1452 C 0.98785 0.13019 0.1908 0.0
C1453 C 0.92947 0.04141 0.19665 0.0
C1454 C 0.89713 0.03089 0.18809 0.0
H1455 H 0.99863 0.09531 0.20446 0.0
H1456 H 0.92191 1.01128 0.20209 0.0
S1457 S 0.91194 0.12368 0.16773 0.0
N1458 N 0.9618 0.15632 0.1753 0.0
N1459 N 0.87977 0.06606 0.17283 0.0
C1460 C 0.90918 0.07133 0.18118 0.0
C1461 C 0.95397 0.12057 0.18252 0.0
C1462 C 1.00904 0.89471 0.1998 0.0
C1463 C 1.02665 0.8843 0.19058 0.0
C1464 C 0.95944 0.88859 0.20052 0.0
C1465 C 0.92517 0.87164 0.19207 0.0
H1466 H 1.0347 0.91042 0.2063 0.0
H1467 H 0.94878 0.89926 0.20767 0.0
S1468 S 0.95175 0.83409 0.16652 0.0
N1469 N 1.00497 0.8527 0.1731 0.0
N1470 N 0.91235 0.84049 0.17442 0.0
C1471 C 0.94173 0.85838 0.18301 0.0
C1472 C 0.99221 0.86499 0.18227 0.0
C1473 C 0.1387 0.15191 0.35161 0.0
C1474 C 0.1662 0.16297 0.36089 0.0
C1475 C 0.0955 0.1584 0.35062 0.0
C1476 C 0.07798 0.17635 0.35888 0.0
H1477 H 0.14879 0.13542 0.34525 0.0
H1478 H 0.07441 0.14709 0.34345 0.0
S1479 S 0.14095 0.2164 0.38446 0.0
N1480 N 0.17545 0.19652 0.3782 0.0
N1481 N 0.09572 0.20949 0.37638 0.0
C1482 C 0.10731 0.19028 0.368 0.0
C1483 C 0.15084 0.18331 0.369 0.0
C1484 C 0.88309 0.93568 0.36735 0.0
C1485 C 0.88302 0.91468 0.35767 0.0
C1486 C 0.89119 0.98552 0.36833 0.0
C1487 C 0.89846 1.01662 0.35967 0.0
H1488 H 0.87936 0.91445 0.37433 0.0
H1489 H 0.89308 1.00033 0.37601 0.0
S1490 S 0.89736 0.97909 0.33247 0.0
N1491 N 0.88833 0.92862 0.33912 0.0
N1492 N 0.90182 1.02155 0.34104 0.0
C1493 C 0.89565 0.99536 0.34991 0.0
C1494 C 0.88846 0.94473 0.34889 0.0
C1495 C 0.07608 0.91362 0.36871 0.0
C1496 C 0.0426 0.89394 0.36024 0.0
C1497 C 0.12577 0.95601 0.36775 0.0
C1498 C 0.14427 0.98171 0.35829 0.0
H1499 H 0.06318 0.897 0.37628 0.0
H1500 H 0.1489 0.97008 0.37463 0.0
S1501 S 0.07261 0.94415 0.33356 0.0
N1502 N 1.0326 0.90195 0.34195 0.0
N1503 N 0.12511 0.98209 0.34008 0.0
C1504 C 0.1118 0.96119 0.34964 0.0
C1505 C 0.06134 0.91731 0.35063 0.0
C1506 C 0.87052 0.89644 0.85621 0.0
C1507 C 0.91588 0.90212 0.8606 0.0
C1508 C 0.86255 0.93881 0.85519 0.0
C1509 C 0.89965 0.98811 0.85854 0.0
H1510 H 0.8405 0.85897 0.85384 0.0
H1511 H 0.827 0.93284 0.8519 0.0
S1512 S 1.02671 0.02435 0.86951 0.0
N1513 N 0.99964 0.96224 0.86755 0.0
N1514 N 0.98432 0.04028 0.86573 0.0
C1515 C 0.94548 0.99425 0.86258 0.0
C1516 C 0.95366 0.95173 0.86359 0.0
C1517 C 0.14362 0.98427 0.86957 0.0
C1518 C 0.16762 1.01647 0.86105 0.0
C1519 C 0.10259 0.93412 0.86838 0.0
C1520 C 0.08242 0.91378 0.85862 0.0
H1521 H 0.15591 0.99835 0.87731 0.0
H1522 H 0.08496 0.91205 0.87528 0.0
S1523 S 0.13266 0.98145 0.83371 0.0
N1524 N 0.16982 0.02335 0.84244 0.0
N1525 N 0.09154 0.92987 0.84015 0.0
C1526 C 0.10697 0.94509 0.84998 0.0
C1527 C 0.14977 0.99606 0.8512 0.0
C1528 C 0.05835 0.14832 0.85326 0.0
C1529 C 0.04808 0.17016 0.86187 0.0
C1530 C 0.10679 0.15204 0.85191 0.0
C1531 C 0.14711 0.17811 0.85906 0.0
H1532 H 1.02804 0.12584 0.84785 0.0
H1533 H 0.11191 0.13256 0.84542 0.0
S1534 S 0.1414 0.24784 0.88215 0.0
N1535 N 0.08362 0.22262 0.8771 0.0
N1536 N 0.17381 0.23038 0.87454 0.0
C1537 C 0.13783 0.20257 0.86735 0.0
C1538 C 0.08867 0.1984 0.86874 0.0
C1539 C 0.9345 0.89746 0.69999 0.0
C1540 C 0.90589 0.88577 0.69085 0.0
C1541 C 0.97714 0.89008 0.70082 0.0
C1542 C 0.99279 0.87044 0.69255 0.0
H1543 H 0.92566 0.91502 0.70634 0.0
H1544 H 0.9992 0.90187 0.70787 0.0
S1545 S 0.92647 0.82873 0.66732 0.0
N1546 N 0.8936 0.85022 0.67367 0.0
N1547 N 0.97234 0.83548 0.67519 0.0
C1548 C 0.96231 0.85592 0.68359 0.0
C1549 C 0.91939 0.8639 0.68274 0.0
C1550 C 0.19081 0.11263 0.68239 0.0
C1551 C 0.18891 0.13258 0.69209 0.0
C1552 C 0.18284 0.06282 0.68131 0.0
C1553 C 0.17379 0.03063 0.68987 0.0
H1554 H 0.196 0.13469 0.67547 0.0
H1555 H 0.18241 0.04888 0.6736 0.0
S1556 S 0.16931 0.06524 0.71709 0.0
N1557 N 0.17974 0.11646 0.71055 0.0
N1558 N 0.16661 0.02378 0.70846 0.0
C1559 C 0.17461 0.0509 0.69966 0.0
C1560 C 0.18162 0.10146 0.70078 0.0
C1561 C 0.94939 0.08484 0.6817 0.0
C1562 C 0.92756 0.0659 0.69145 0.0
C1563 C 0.99935 0.12657 0.68061 0.0
C1564 C 1.02994 0.15248 0.6892 0.0
H1565 H 0.92868 0.06589 0.67477 0.0
H1566 H 1.01459 0.13789 0.67289 0.0
S1567 S 0.99055 0.12154 0.7165 0.0
N1568 N 0.94044 0.07857 0.70997 0.0
N1569 N 1.03361 0.15785 0.70782 0.0
C1570 C 1.00797 0.1359 0.699 0.0
C1571 C 0.95716 0.09251 0.70015 0.0
C1572 C 0.83157 0.41566 0.53153 0.0
C1573 C 0.85487 0.39893 0.52418 0.0
C1574 C 0.8291 0.46093 0.5301 0.0
C1575 C 0.84958 0.49138 0.52123 0.0
H1576 H 0.81354 0.39277 0.53831 0.0
H1577 H 0.80907 0.47084 0.53575 0.0
S1578 S 0.91949 0.46874 0.50017 0.0
N1579 N 0.90261 0.42014 0.50808 0.0
N1580 N 0.89742 0.50369 0.50541 0.0
C1581 C 0.87483 0.47639 0.51408 0.0
C1582 C 0.87763 0.43075 0.51554 0.0
C1583 C 0.59823 0.37795 0.53149 0.0
C1584 C 0.57262 0.36 0.52205 0.0
C1585 C 0.64163 0.42741 0.53237 0.0
C1586 C 0.6611 0.4612 0.52386 0.0
H1587 H 0.58638 0.35272 0.5381 0.0
H1588 H 0.66111 0.43843 0.53972 0.0
S1589 S 0.60346 0.43391 0.49769 0.0
N1590 N 0.56722 0.38107 0.50425 0.0
N1591 N 0.64728 0.47336 0.50586 0.0
C1592 C 0.63369 0.44429 0.51453 0.0
C1593 C 0.59002 0.39398 0.51364 0.0
C1594 C 0.60859 0.1903 0.51512 0.0
C1595 C 0.59357 0.20106 0.52465 0.0
C1596 C 0.65735 0.19569 0.51367 0.0
C1597 C 0.6938 0.21172 0.52166 0.0
H1598 H 0.58315 0.1792 0.50856 0.0
H1599 H 0.66694 0.18826 0.50606 0.0
S1600 S 0.67294 0.24066 0.54839 0.0
N1601 N 0.61892 0.22596 0.54245 0.0
N1602 N 0.70975 0.23498 0.53967 0.0
C1603 C 0.67865 0.22038 0.53135 0.0
C1604 C 0.62894 0.21539 0.53284 0.0
C1605 C 0.80748 0.4797 0.68685 0.0
C1606 C 0.84034 0.50293 0.69529 0.0
C1607 C 0.76301 0.48378 0.68543 0.0
C1608 C 0.74967 0.51147 0.69236 0.0
H1609 H 0.81463 0.45605 0.68162 0.0
H1610 H 0.73783 0.46328 0.67908 0.0
S1611 S 0.82734 0.58523 0.71489 0.0
N1612 N 0.85899 0.55848 0.71009 0.0
N1613 N 0.77696 0.56676 0.7074 0.0
C1614 C 0.78416 0.53725 0.70046 0.0
C1615 C 0.82893 0.5328 0.70192 0.0
C1616 C 0.5658 0.28231 0.68392 0.0
C1617 C 0.55055 0.24767 0.69229 0.0
C1618 C 0.57325 0.33218 0.68506 0.0
C1619 C 0.56644 0.34975 0.69464 0.0
H1620 H 0.57376 0.27149 0.67649 0.0
H1621 H 0.58707 0.35797 0.67854 0.0
S1622 S 0.52294 0.27407 0.7188 0.0
N1623 N 0.52554 0.23461 0.71036 0.0
N1624 N 0.54044 0.32765 0.71246 0.0
C1625 C 0.54922 0.31502 0.70293 0.0
C1626 C 0.54097 0.26426 0.70176 0.0
C1627 C 0.78846 0.29956 0.70239 0.0
C1628 C 0.81141 0.31606 0.69264 0.0
C1629 C 0.73882 0.25735 0.70352 0.0
C1630 C 0.70975 0.22849 0.695 0.0
H1631 H 0.80801 0.32082 0.70923 0.0
H1632 H 0.72267 0.24793 0.7112 0.0
S1633 S 0.75319 0.25222 0.66781 0.0
N1634 N 0.80161 0.29804 0.67425 0.0
N1635 N 0.70922 0.21766 0.67649 0.0
C1636 C 0.73303 0.24271 0.68524 0.0
C1637 C 0.78342 0.28668 0.68404 0.0
C1638 C 0.55947 0.2523 0.20296 0.0
C1639 C 0.56586 0.2274 0.19438 0.0
C1640 C 0.55106 0.29385 0.20185 0.0
C1641 C 0.54989 0.31365 0.1921 0.0
H1642 H 0.56208 0.24028 0.21069 0.0
H1643 H 0.54787 0.31206 0.20878 0.0
S1644 S 0.56213 0.26094 0.16707 0.0
N1645 N 0.56738 0.22386 0.17575 0.0
N1646 N 0.55372 0.30314 0.17359 0.0
C1647 C 0.55478 0.28821 0.18341 0.0
C1648 C 0.56213 0.24487 0.18456 0.0
C1649 C 0.82046 0.30875 0.20234 0.0
C1650 C 0.83662 0.34812 0.19495 0.0
C1651 C 0.77655 0.26048 0.20089 0.0
C1652 C 0.74605 0.24894 0.19199 0.0
H1653 H 0.8413 0.31567 0.20949 0.0
H1654 H 0.76568 0.23251 0.207 0.0
S1655 S 0.77191 0.33821 0.17011 0.0
N1656 N 0.81886 0.37156 0.17828 0.0
N1657 N 0.73673 0.28149 0.17545 0.0
C1658 C 0.76268 0.28751 0.18437 0.0
C1659 C 0.80771 0.33676 0.18587 0.0
C1660 C 0.78627 0.49843 0.20223 0.0
C1661 C 0.80931 0.5052 0.19248 0.0
C1662 C 0.73649 0.49076 0.20338 0.0
C1663 C 0.70733 0.49062 0.19488 0.0
H1664 H 0.80589 0.49672 0.20907 0.0
H1665 H 0.72031 0.48382 0.21107 0.0
S1666 S 0.75074 0.51082 0.16769 0.0
N1667 N 0.79935 0.51356 0.1741 0.0
N1668 N 0.70669 0.50112 0.17639 0.0
C1669 C 0.73062 0.49988 0.18512 0.0
C1670 C 0.78117 0.50654 0.1839 0.0
C1671 C 0.63225 0.19447 1.01628 0.0
C1672 C 0.65717 0.2011 0.02582 0.0
C1673 C 0.5904 0.20257 1.01518 0.0
C1674 C 0.57041 0.21663 1.02358 0.0
H1675 H 0.64664 0.18533 1.00944 0.0
H1676 H 0.57447 0.19925 1.00756 0.0
S1677 S 0.61882 0.23603 0.05037 0.0
N1678 N 0.65668 0.22074 0.04398 0.0
N1679 N 0.57744 0.23452 0.04187 0.0
C1680 C 0.59302 0.22081 0.03326 0.0
C1681 C 0.63641 0.21343 0.03438 0.0
C1682 C 0.87781 0.40076 1.02414 0.0
C1683 C 0.82825 0.35742 1.02407 0.0
C1684 C 0.88509 0.45082 1.0249 0.0
C1685 C 0.84312 0.45903 0.02588 0.0
H1686 H 0.9109 0.39611 1.0231 0.0
H1687 H 0.92363 0.4832 1.02465 0.0
S1688 S 0.70604 0.35829 0.02626 0.0
N1689 N 0.73709 0.32651 1.02498 0.0
N1690 N 0.75063 0.41913 0.02692 0.0
C1691 C 0.79379 0.41579 0.02614 0.0
C1692 C 0.78641 0.36544 1.02509 0.0
C1693 C 0.62504 0.41742 0.03364 0.0
C1694 C 0.59015 0.39871 0.02532 0.0
C1695 C 0.6746 0.46064 0.03258 0.0
C1696 C 0.69165 0.48645 1.02311 0.0
H1697 H 0.61486 0.39735 0.04093 0.0
H1698 H 0.70081 0.47176 0.03902 0.0
S1699 S 0.61448 0.45768 0.99927 0.0
N1700 N 0.57572 0.41379 1.00753 0.0
N1701 N 0.66842 0.49312 1.00556 0.0
C1702 C 0.65645 0.46998 1.01493 0.0
C1703 C 0.60594 0.42673 1.01603 0.0
C1704 C 0.50736 0.78975 0.84711 0.0
C1705 C 0.50579 0.81816 0.85559 0.0
C1706 C 0.51478 0.74763 0.84833 0.0
C1707 C 0.51982 0.73073 0.85814 0.0
H1708 H 0.50173 0.79946 0.83938 0.0
H1709 H 0.51419 0.72676 0.8415 0.0
S1710 S 0.52146 0.79329 0.88291 0.0
N1711 N 0.5133 0.82814 0.87413 0.0
N1712 N 0.52517 0.7479 0.87655 0.0
C1713 C 0.51982 0.75966 0.8667 0.0
C1714 C 0.51345 0.80355 0.86541 0.0
C1715 C 0.26882 0.72811 0.84693 0.0
C1716 C 0.24275 0.69693 0.85546 0.0
C1717 C 0.31007 0.77815 0.84814 0.0
C1718 C 0.32836 0.79928 0.85795 0.0
H1719 H 0.25792 0.71337 0.83919 0.0
H1720 H 0.32928 0.7995 0.84127 0.0
S1721 S 0.27214 0.73462 0.88285 0.0
N1722 N 0.23644 0.69206 0.87408 0.0
N1723 N 0.3152 0.78522 0.87643 0.0
C1724 C 0.30176 0.76903 0.86657 0.0
C1725 C 0.25872 0.71825 0.86531 0.0
C1726 C 0.35255 0.56716 0.86374 0.0
C1727 C 0.36261 0.54441 0.85526 0.0
C1728 C 0.30406 0.56335 0.86506 0.0
C1729 C 0.2635 0.53642 0.858 0.0
H1730 H 0.38299 0.59019 0.86908 0.0
H1731 H 0.29906 0.58337 0.87148 0.0
S1732 S 0.26872 0.46448 0.83525 0.0
N1733 N 0.32666 0.49031 0.84024 0.0
N1734 N 0.23645 0.48264 0.84274 0.0
C1735 C 0.27263 0.51123 0.84984 0.0
C1736 C 0.32181 0.51538 0.84847 0.0
C1737 C 0.46899 0.82602 0.03673 0.0
C1738 C 0.49728 0.82454 0.02821 0.0
C1739 C 0.42709 0.83387 0.03558 0.0
C1740 C 0.41028 0.83952 0.02581 0.0
H1741 H 0.47867 0.82004 0.04444 0.0
H1742 H 0.40634 0.83321 0.04245 0.0
S1743 S 0.4726 0.84148 1.00095 0.0
N1744 N 0.50732 0.83264 1.00966 0.0
N1745 N 0.42732 0.84538 1.00738 0.0
C1746 C 0.43907 0.83958 1.01719 0.0
C1747 C 0.48279 0.83271 1.01842 0.0
C1748 C 0.23593 0.66183 1.0173 0.0
C1749 C 0.22999 0.68036 0.02683 0.0
C1750 C 0.22899 0.61209 1.01636 0.0
C1751 C 0.21513 0.57844 1.02489 0.0
H1752 H 0.24874 0.68681 1.01065 0.0
H1753 H 0.23625 0.60062 1.00894 0.0
S1754 S 0.19025 0.6075 0.05137 0.0
N1755 N 0.2063 0.66018 0.04481 0.0
N1756 N 0.19238 0.56728 0.04306 0.0
C1757 C 0.20634 0.59588 0.03432 0.0
C1758 C 0.21409 0.64659 0.03529 0.0
C1759 C 0.40293 0.58973 0.03669 0.0
C1760 C 0.37364 0.56126 0.02815 0.0
C1761 C 0.45303 0.63114 0.0356 0.0
C1762 C 0.47626 0.64727 0.02587 0.0
H1763 H 0.38672 0.58053 0.04437 0.0
H1764 H 0.47279 0.65212 0.04245 0.0
S1765 S 0.41805 0.58424 1.001 0.0
N1766 N 0.37356 0.55022 1.00965 0.0
N1767 N 0.46667 0.6296 1.00748 0.0
C1768 C 0.4481 0.61845 1.01725 0.0
C1769 C 0.39726 0.57513 1.01841 0.0
C1770 C 0.225 0.58223 0.53606 0.0
C1771 C 0.23372 0.55905 0.52747 0.0
C1772 C 0.21662 0.62381 0.53502 0.0
C1773 C 0.21773 0.64532 0.52532 0.0
H1774 H 0.2259 0.56891 0.54376 0.0
H1775 H 0.21165 0.64068 0.54197 0.0
S1776 S 0.23666 0.59742 0.50026 0.0
N1777 N 0.24003 0.55897 0.50887 0.0
N1778 N 0.22615 0.63813 0.50683 0.0
C1779 C 0.22481 0.62147 0.5166 0.0
C1780 C 0.23226 0.57818 0.51769 0.0
C1781 C 0.47245 0.66384 0.51705 0.0
C1782 C 0.50142 0.68073 0.52615 0.0
C1783 C 0.42964 0.61396 0.51626 0.0
C1784 C 0.41398 0.57875 0.52454 0.0
H1785 H 0.48107 0.6902 0.51071 0.0
H1786 H 0.4074 0.60377 0.50924 0.0
S1787 S 0.48048 0.60354 0.54976 0.0
N1788 N 0.51362 0.65757 0.54335 0.0
N1789 N 0.43445 0.5645 0.54191 0.0
C1790 C 0.44463 0.59472 0.53348 0.0
C1791 C 0.48781 0.64544 0.53427 0.0
C1792 C 0.46436 0.86053 0.53275 0.0
C1793 C 0.47624 0.83587 0.52489 0.0
C1794 C 0.41479 0.8541 0.53376 0.0
C1795 C 0.37496 0.82305 0.52693 0.0
H1796 H 0.49318 0.88392 0.53835 0.0
H1797 H 0.40707 0.87217 0.54017 0.0
S1798 S 0.38403 0.74723 0.50545 0.0
N1799 N 0.44242 0.77766 0.51029 0.0
N1800 N 0.35014 0.76572 0.51234 0.0
C1801 C 0.38627 0.79872 0.51899 0.0
C1802 C 0.43662 0.80518 0.51792 0.0
C1803 C 0.25514 0.53471 0.34839 0.0
C1804 C 0.23796 0.55316 0.35655 0.0
C1805 C 0.29756 0.5274 0.34947 0.0
C1806 C 0.32561 0.53916 0.35873 0.0
H1807 H 0.23651 0.5273 0.34096 0.0
H1808 H 0.30973 0.51454 0.34282 0.0
S1809 S 0.29602 0.58831 0.38252 0.0
N1810 N 0.2517 0.58193 0.37425 0.0
N1811 N 0.33135 0.56906 0.37638 0.0
C1812 C 0.30771 0.55618 0.36707 0.0
C1813 C 0.26405 0.56297 0.36596 0.0
C1814 C 0.506 0.72705 0.34696 0.0
C1815 C 0.5028 0.6969 0.35553 0.0
C1816 C 0.51315 0.77654 0.34806 0.0
C1817 C 0.51628 0.79824 0.35782 0.0
H1818 H 0.50184 0.71183 0.33924 0.0
H1819 H 0.51391 0.79698 0.34115 0.0
S1820 S 0.51259 0.73639 0.38284 0.0
N1821 N 0.50624 0.69371 0.37414 0.0
N1822 N 0.51784 0.78577 0.37633 0.0
C1823 C 0.51461 0.76906 0.3665 0.0
C1824 C 0.50843 0.71883 0.36533 0.0
C1825 C 0.27097 0.76479 0.34958 0.0
C1826 C 0.25969 0.73404 0.35845 0.0
C1827 C 0.31911 0.80896 0.34814 0.0
C1828 C 0.35865 0.82517 0.35549 0.0
H1829 H 0.24288 0.75396 0.34351 0.0
H1830 H 0.32581 0.82998 0.34101 0.0
S1831 S 0.34943 0.75982 0.38023 0.0
N1832 N 0.29264 0.72447 0.37491 0.0
N1833 N 0.38249 0.80716 0.37209 0.0
C1834 C 0.34754 0.796 0.36454 0.0
C1835 C 0.29839 0.75067 0.36604 0.0
C1836 C 0.33787 0.34882 0.19732 0.0
C1837 C 0.30587 0.3567 0.19048 0.0
C1838 C 0.39222 0.37526 0.19626 0.0
C1839 C 0.41774 0.41156 0.18837 0.0
H1840 H 0.32077 0.32114 0.20348 0.0
H1841 H 0.4144 0.36692 0.20166 0.0
S1842 S 0.35293 0.44869 0.16863 0.0
N1843 N 0.30529 0.40519 0.17562 0.0
N1844 N 0.40571 0.4547 0.17376 0.0
C1845 C 0.38624 0.42053 0.18162 0.0
C1846 C 0.3311 0.3933 0.18263 0.0
C1847 C 0.68233 0.02944 0.1962 0.0
C1848 C 0.64694 1.01918 0.18815 0.0
C1849 C 0.70809 1.00104 0.19742 0.0
C1850 C 0.70034 0.96117 0.19059 0.0
H1851 H 0.69053 0.05996 0.20158 0.0
H1852 H 0.73522 1.01128 0.20366 0.0
S1853 S 0.61028 0.91746 0.16842 0.0
N1854 N 0.60463 0.96454 0.17345 0.0
N1855 N 0.65271 0.9126 0.17561 0.0
C1856 C 0.66451 0.95029 0.18261 0.0
C1857 C 0.63804 0.97873 0.18144 0.0
C1858 C 0.062 0.71556 0.19901 0.0
C1859 C 0.0996 0.74947 0.19191 0.0
C1860 C 1.03235 0.66177 0.1972 0.0
C1861 C 0.0386 0.63928 0.18817 0.0
H1862 H 0.05418 0.73083 0.20587 0.0
H1863 H 1.00295 0.63808 0.2027 0.0
S1864 S 0.13461 0.70893 0.16759 0.0
N1865 N 0.1432 0.75404 0.17583 0.0
N1866 N 0.08805 0.65532 0.17246 0.0
C1867 C 0.07729 0.67244 0.18128 0.0
C1868 C 0.10749 0.72659 0.18312 0.0
C1869 C 0.36559 0.32972 0.3528 0.0
C1870 C 0.37207 0.29766 0.35987 0.0
C1871 C 0.39147 0.38378 0.35394 0.0
C1872 C 0.42581 0.40887 0.36212 0.0
H1873 H 0.33939 0.31288 0.34641 0.0
H1874 H 0.38428 0.40607 0.34836 0.0
S1875 S 0.45856 0.3437 0.38257 0.0
N1876 N 0.41693 0.29643 0.37528 0.0
N1877 N 0.4656 0.39649 0.37728 0.0
C1878 C 0.43341 0.37733 0.36911 0.0
C1879 C 0.40666 0.32244 0.36803 0.0
C1880 C 0.68523 0.05968 0.3692 0.0
C1881 C 0.65072 0.02494 0.3619 0.0
C1882 C 0.73841 0.08954 0.36731 0.0
C1883 C 0.76098 0.08635 0.358 0.0
H1884 H 0.67108 0.06339 0.37664 0.0
H1885 H 0.76223 0.11456 0.3734 0.0
S1886 S 0.68811 1.00168 0.33609 0.0
N1887 N 0.64346 0.98971 0.3448 0.0
N1888 N 0.74293 0.04529 0.34119 0.0
C1889 C 0.72678 0.0524 0.35048 0.0
C1890 C 0.6721 1.02202 0.35243 0.0
C1891 C 0.96529 0.65684 0.36703 0.0
C1892 C 0.97429 0.68994 0.35861 0.0
C1893 C 0.99274 0.63046 0.36833 0.0
C1894 C 1.03142 0.63611 0.36138 0.0
H1895 H 0.93674 0.65124 0.37274 0.0
H1896 H 0.98395 0.60588 0.37499 0.0
S1897 S 0.07058 0.71747 0.33795 0.0
N1898 N 1.02505 0.72582 0.34305 0.0
N1899 N 0.07666 0.67731 0.34564 0.0
C1900 C 0.04071 0.66873 0.35289 0.0
C1901 C 1.01229 0.6952 0.35148 0.0
C1902 C 0.67724 0.66455 0.85438 0.0
C1903 C 0.65426 0.6389 0.86368 0.0
C1904 C 0.73142 0.68961 0.85284 0.0
C1905 C 0.76536 0.69006 0.86047 0.0
H1906 H 0.6535 0.66684 0.8484 0.0
H1907 H 0.74688 0.70983 0.84566 0.0
S1908 S 0.72408 0.62431 0.88583 0.0
N1909 N 0.67019 0.61318 0.88034 0.0
N1910 N 0.7697 0.65873 0.87747 0.0
C1911 C 0.7422 0.66275 0.86961 0.0
C1912 C 0.68759 0.63775 0.87118 0.0
C1913 C 0.36385 0.04535 0.85263 0.0
C1914 C 0.37348 0.08692 0.85913 0.0
C1915 C 0.39001 1.01728 0.8538 0.0
C1916 C 0.42775 0.02957 0.86145 0.0
H1917 H 0.33488 0.03348 0.84671 0.0
H1918 H 0.38019 0.98535 0.8487 0.0
S1919 S 0.47032 0.13681 0.88008 0.0
N1920 N 0.42553 0.13956 0.8733 0.0
N1921 N 0.47455 0.08838 0.87534 0.0
C1922 C 0.43862 0.07187 0.8678 0.0
C1923 C 0.41167 0.09994 0.86669 0.0
C1924 C 1.01028 0.32852 0.85208 0.0
C1925 C 0.97811 0.29571 0.85998 0.0
C1926 C 0.03862 0.3827 0.85322 0.0
C1927 C 0.03594 0.40722 0.86228 0.0
H1928 H 1.01419 0.31227 0.84494 0.0
H1929 H 0.06268 0.40558 0.8469 0.0
S1930 S 0.95905 0.34026 0.8855 0.0
N1931 N 0.947 0.2936 0.87739 0.0
N1932 N 0.99868 0.39348 0.87939 0.0
C1933 C 1.00392 0.37497 0.87021 0.0
C1934 C 0.97561 0.32008 0.86911 0.0
C1935 C 0.64072 0.67139 0.68307 0.0
C1936 C 0.64902 0.63901 0.68966 0.0
C1937 C 0.66611 0.72511 0.68446 0.0
C1938 C 0.70093 0.74984 0.6926 0.0
H1939 H 0.61477 0.65519 0.67662 0.0
H1940 H 0.65849 0.74753 0.67899 0.0
S1941 S 0.7358 0.68291 0.71228 0.0
N1942 N 0.69461 0.63629 0.7048 0.0
N1943 N 0.74141 0.73616 0.70751 0.0
C1944 C 0.70886 0.71772 0.69939 0.0
C1945 C 0.68331 0.66293 0.6979 0.0
C1946 C 0.39616 0.02724 0.69658 0.0
C1947 C 0.42096 1.0185 0.68823 0.0
C1948 C 0.34201 0.99876 0.69788 0.0
C1949 C 0.30953 0.96038 0.69084 0.0
H1950 H 0.41877 0.05656 0.70216 0.0
H1951 H 0.32542 1.00776 0.70439 0.0
S1952 S 0.35473 0.92135 0.66773 0.0
N1953 N 0.40786 0.96708 0.67293 0.0
N1954 N 0.30771 0.91508 0.67524 0.0
C1955 C 0.33407 0.95109 0.68252 0.0
C1956 C 0.38903 0.97957 0.68126 0.0
C1957 C 1.03497 0.3828 0.69653 0.0
C1958 C 0.03817 0.40888 0.68728 0.0
C1959 C 0.06417 0.35789 0.69807 0.0
C1960 C 0.09827 0.35806 0.69048 0.0
H1961 H 1.00844 0.38 0.70248 0.0
H1962 H 0.05897 0.33729 0.7052 0.0
S1963 S 0.12423 0.42509 0.66525 0.0
N1964 N 0.08095 0.43565 0.67071 0.0
N1965 N 0.13506 0.39041 0.67358 0.0
C1966 C 0.10297 0.38584 0.6814 0.0
C1967 C 0.07327 0.41066 0.67982 0.0
C1968 C 1.00006 0.72318 0.5171 0.0
C1969 C 0.97451 0.68658 0.52494 0.0
C1970 C 0.05414 0.75018 0.51612 0.0
C1971 C 0.08617 0.74194 0.52284 0.0
H1972 H 0.97809 0.73112 0.51158 0.0
H1973 H 0.07094 0.77743 0.50988 0.0
S1974 S 0.04017 0.65112 0.54482 0.0
N1975 N 0.98702 0.64454 0.53973 0.0
N1976 N 0.08769 0.69455 0.53777 0.0
C1977 C 0.06145 0.70588 0.53077 0.0
C1978 C 1.00621 0.67856 0.53185 0.0
C1979 C 0.37478 0.33147 0.53103 0.0
C1980 C 0.36695 0.29139 0.52426 0.0
C1981 C 0.34875 0.35958 0.5298 0.0
C1982 C 0.31296 0.34878 0.52182 0.0
H1983 H 0.40216 0.34208 0.53724 0.0
H1984 H 0.35704 0.39029 0.53514 0.0
S1985 S 0.27615 0.24636 0.50223 0.0
N1986 N 0.31904 0.24209 0.50938 0.0
N1987 N 0.27028 0.29341 0.50721 0.0
C1988 C 0.30399 0.30809 0.51515 0.0
C1989 C 0.3308 0.27998 0.51633 0.0
C1990 C 0.74782 1.00549 0.51638 0.0
C1991 C 0.7071 0.97276 0.52296 0.0
C1992 C 0.77468 0.05936 0.51754 0.0
C1993 C 0.7632 0.08421 0.52547 0.0
H1994 H 0.75879 0.98941 0.51009 0.0
H1995 H 0.80489 0.08178 0.51208 0.0
S1996 S 0.66065 1.01671 0.54507 0.0
N1997 N 0.65708 0.96998 0.53787 0.0
N1998 N 0.70763 0.07024 0.54019 0.0
C1999 C 0.72311 0.05185 0.53227 0.0
C2000 C 0.69522 0.99677 0.53098 0.0
C2001 C 0.09801 0.70797 0.70148 0.0
C2002 C 0.09045 0.74034 0.69475 0.0
C2003 C 0.07131 0.6541 0.70035 0.0
C2004 C 0.03582 0.6291 0.69231 0.0
H2005 H 0.12443 0.72433 0.70786 0.0
H2006 H 0.07863 0.63183 0.70591 0.0
S2007 S 1.00227 0.69584 0.67235 0.0
N2008 N 0.0447 0.74275 0.67961 0.0
N2009 N 0.99542 0.64252 0.67736 0.0
C2010 C 1.02853 0.66116 0.68539 0.0
C2011 C 0.05542 0.71617 0.68663 0.0
C2012 C 0.34531 0.35208 0.68736 0.0
C2013 C 0.31999 0.36275 0.69532 0.0
C2014 C 0.39958 0.38008 0.6862 0.0
C2015 C 0.43168 0.41993 0.69303 0.0
H2016 H 0.32303 0.32156 0.68198 0.0
H2017 H 0.41657 0.36958 0.68 0.0
S2018 S 0.38513 0.46465 0.71502 0.0
N2019 N 0.33228 0.41783 0.70996 0.0
N2020 N 0.43261 0.46891 0.70794 0.0
C2021 C 0.40665 0.43121 0.70094 0.0
C2022 C 0.35158 0.40322 0.70204 0.0
C2023 C 0.70801 1.00246 0.68724 0.0
C2024 C 0.69602 0.96591 0.69513 0.0
C2025 C 0.6804 0.02899 0.68599 0.0
C2026 C 0.63963 1.0209 0.69263 0.0
H2027 H 0.73938 1.01107 0.68202 0.0
H2028 H 0.69198 0.05699 0.67988 0.0
S2029 S 0.59108 0.92786 0.71429 0.0
N2030 N 0.63855 0.92205 0.70945 0.0
N2031 N 0.58815 0.97172 0.70724 0.0
C2032 C 0.62692 0.9839 0.70044 0.0
C2033 C 0.65454 0.9566 0.70164 0.0
C2034 C 0.35033 0.96068 0.20148 0.0
C2035 C 0.31759 0.96796 0.19477 0.0
C2036 C 0.40437 0.98751 0.20026 0.0
C2037 C 0.42908 1.02275 0.19217 0.0
H2038 H 0.33414 0.93439 0.20788 0.0
H2039 H 0.42701 0.98049 0.20579 0.0
S2040 S 0.36148 0.05572 0.17228 0.0
N2041 N 0.31472 1.01352 0.17964 0.0
N2042 N 0.41507 0.06266 0.1772 0.0
C2043 C 0.39667 0.02978 0.18528 0.0
C2044 C 0.34158 1.00289 0.18662 0.0
C2045 C 1.02514 0.37637 0.18564 0.0
C2046 C 1.03492 0.4177 0.19223 0.0
C2047 C 0.05092 0.34787 0.18677 0.0
C2048 C 0.08833 0.3595 0.19447 0.0
H2049 H 0.99634 0.36499 0.1797 0.0
H2050 H 0.04104 0.31613 0.18162 0.0
S2051 S 0.13119 0.46587 0.21332 0.0
N2052 N 0.08694 0.46944 0.20651 0.0
N2053 N 0.135 0.41738 0.20849 0.0
C2054 C 0.09935 0.40156 0.20089 0.0
C2055 C 0.07289 0.43007 0.19982 0.0
C2056 C 0.67336 0.66328 0.18578 0.0
C2057 C 0.63935 0.62938 0.19338 0.0
C2058 C 0.70259 0.71731 0.18733 0.0
C2059 C 0.69954 0.74018 0.19661 0.0
H2060 H 0.67844 0.64791 0.17863 0.0
H2061 H 0.72897 0.74101 0.18138 0.0
S2062 S 0.61398 0.6704 0.21869 0.0
N2063 N 0.60298 0.62499 0.21033 0.0
N2064 N 0.65711 0.72414 0.21322 0.0
C2065 C 0.6646 0.70688 0.20408 0.0
C2066 C 0.63488 0.65245 0.20249 0.0
C2067 C 0.34548 0.99512 0.03013 0.0
C2068 C 0.30985 0.9704 1.0221 0.0
C2069 C 0.37156 0.04921 0.03142 0.0
C2070 C 0.364 0.08171 1.02467 0.0
H2071 H 0.35365 0.97253 0.03545 0.0
H2072 H 0.39884 0.06573 0.03765 0.0
S2073 S 0.2736 0.03681 1.00257 0.0
N2074 N 0.26753 0.98374 1.0075 0.0
N2075 N 0.31642 0.08363 1.00977 0.0
C2076 C 0.32799 0.05726 1.0167 0.0
C2077 C 0.3011 1.00241 1.01547 0.0
C2078 C 0.06278 0.35677 0.02913 0.0
C2079 C 0.08543 0.35605 1.01964 0.0
C2080 C 1.00881 0.32687 0.03078 0.0
C2081 C 0.97477 0.2945 1.02305 0.0
H2082 H 0.08664 0.38173 0.03523 0.0
H2083 H 0.99358 0.3301 0.03812 0.0
S2084 S 1.01518 0.27556 0.99709 0.0
N2085 N 0.06913 0.31769 1.00263 0.0
N2086 N 0.96988 0.26222 1.00569 0.0
C2087 C 0.99759 0.29238 1.01368 0.0
C2088 C 0.05203 0.32281 1.01201 0.0
C2089 C 0.72629 0.68589 0.03102 0.0
C2090 C 0.76369 0.69063 1.02378 0.0
C2091 C 0.69829 0.71201 0.02985 0.0
C2092 C 0.70657 0.7449 1.02143 0.0
H2093 H 0.71773 0.66094 0.03761 0.0
H2094 H 0.66976 0.70622 0.03558 0.0
S2095 S 0.80097 0.77251 1.00038 0.0
N2096 N 0.80744 0.73209 1.0079 0.0
N2097 N 0.75637 0.78121 1.00581 0.0
C2098 C 0.74448 0.75068 1.01424 0.0
C2099 C 0.77245 0.72368 1.01537 0.0
C2100 C 0.72159 0.06969 0.84623 0.0
C2101 C 0.7559 0.07257 0.85396 0.0
C2102 C 0.66809 0.04572 0.84785 0.0
C2103 C 0.64503 1.02254 0.85732 0.0
H2104 H 0.73618 0.08578 0.83869 0.0
H2105 H 0.64451 0.04468 0.84148 0.0
S2106 S 0.71703 1.0189 0.88028 0.0
N2107 N 0.76225 0.04983 0.87157 0.0
N2108 N 0.66234 1.005 0.87471 0.0
C2109 C 0.67896 0.02568 0.86522 0.0
C2110 C 0.73389 0.05048 0.86354 0.0
C2111 C 1.01753 0.69443 0.86347 0.0
C2112 C 0.98204 0.68416 0.85544 0.0
C2113 C 0.04385 0.66651 0.8646 0.0
C2114 C 0.03667 0.62713 0.85769 0.0
H2115 H 1.02531 0.72454 0.86893 0.0
H2116 H 0.07089 0.6767 0.87086 0.0
S2117 S 0.94726 0.58399 0.83543 0.0
N2118 N 0.94063 0.63024 0.8406 0.0
N2119 N 0.98988 0.57929 0.84258 0.0
C2120 C 1.00092 0.61633 0.8497 0.0
C2121 C 0.97382 0.64426 0.84862 0.0
C2122 C 0.41349 0.33922 0.84901 0.0
C2123 C 0.37408 0.30669 0.85586 0.0
C2124 C 0.44093 0.39306 0.8502 0.0
C2125 C 0.43125 0.41792 0.8584 0.0
H2126 H 0.42292 0.32299 0.84251 0.0
H2127 H 0.47008 0.41543 0.84455 0.0
S2128 S 0.33259 0.35071 0.87873 0.0
N2129 N 0.32732 0.30396 0.8713 0.0
N2130 N 0.37873 0.40414 0.87364 0.0
C2131 C 0.39242 0.38569 0.86544 0.0
C2132 C 0.36405 0.3307 0.86415 0.0
C2133 C 0.73803 0.98738 0.03357 0.0
C2134 C 0.70266 0.96244 0.02552 0.0
C2135 C 0.76479 0.04129 0.03468 0.0
C2136 C 0.75729 0.0736 0.02791 0.0
H2137 H 0.74518 0.96502 0.03914 0.0
H2138 H 0.79117 0.05773 0.04106 0.0
S2139 S 0.66934 0.02902 1.00548 0.0
N2140 N 0.66246 0.97577 1.01052 0.0
N2141 N 0.71164 0.07594 1.01275 0.0
C2142 C 0.7223 0.0494 1.0198 0.0
C2143 C 0.69545 0.99445 1.01857 0.0
C2144 C 1.0074 0.68215 1.01988 0.0
C2145 C 0.98262 0.69282 0.02796 0.0
C2146 C 0.06153 0.71089 1.01845 0.0
C2147 C 0.09392 0.75155 1.02509 0.0
H2148 H 0.98483 0.65108 1.01463 0.0
H2149 H 0.07818 0.70031 1.0122 0.0
S2150 S 0.04868 0.7962 0.04734 0.0
N2151 N 0.99569 0.74848 0.04253 0.0
N2152 N 0.0956 0.80102 0.03999 0.0
C2153 C 0.06934 0.76279 0.03311 0.0
C2154 C 1.0145 0.73401 0.0345 0.0
C2155 C 0.29883 0.32254 0.03389 0.0
C2156 C 0.30774 0.35553 0.02545 0.0
C2157 C 0.32565 0.2955 0.03513 0.0
C2158 C 0.36374 0.3004 0.0281 0.0
H2159 H 0.27074 0.31748 0.03968 0.0
H2160 H 0.3169 0.27104 0.0418 0.0
S2161 S 0.40278 0.38152 1.00463 0.0
N2162 N 0.35793 0.39069 1.00982 0.0
N2163 N 0.4085 0.341 1.01227 0.0
C2164 C 0.37301 0.33297 1.01959 0.0
C2165 C 0.34512 0.36006 1.01824 0.0
C2166 C 0.0736 0.33256 0.53573 0.0
C2167 C 0.09636 0.35608 0.52626 0.0
C2168 C 1.02018 0.30882 0.53744 0.0
C2169 C 0.98574 0.30654 0.52981 0.0
H2170 H 0.09738 0.33322 0.54203 0.0
H2171 H 1.00577 0.29253 0.54498 0.0
S2172 S 1.0238 0.36149 0.50357 0.0
N2173 N 0.07859 0.37462 0.509 0.0
N2174 N 0.97889 0.33036 0.51231 0.0
C2175 C 1.00743 0.32895 0.52023 0.0
C2176 C 0.06223 0.35348 0.51845 0.0
C2177 C 0.73929 0.75949 0.53343 0.0
C2178 C 0.70698 0.75165 0.52493 0.0
C2179 C 0.76514 0.73149 0.53475 0.0
C2180 C 0.75986 0.69334 0.52773 0.0
H2181 H 0.74454 0.78745 0.53923 0.0
H2182 H 0.78898 0.73941 0.5415 0.0
S2183 S 0.68053 0.6571 0.50405 0.0
N2184 N 0.67226 0.70247 0.5092 0.0
N2185 N 0.71978 0.64988 0.51182 0.0
C2186 C 0.72814 0.68528 0.51914 0.0
C2187 C 0.70215 0.71424 0.51771 0.0
C2188 C 0.34423 0.99288 0.51946 0.0
C2189 C 0.30634 0.96071 0.52666 0.0
C2190 C 0.37251 0.04697 0.52059 0.0
C2191 C 0.36401 0.072 0.52891 0.0
H2192 H 0.35297 0.97611 0.51295 0.0
H2193 H 0.40144 0.06935 0.51489 0.0
S2194 S 0.26823 1.00655 0.54978 0.0
N2195 N 0.26184 0.95937 0.54237 0.0
N2196 N 0.31341 0.05941 0.54437 0.0
C2197 C 0.32558 0.04034 0.53604 0.0
C2198 C 0.29735 0.98545 0.53496 0.0
C2199 C 0.99783 0.39291 0.35019 0.0
C2200 C 1.03343 0.41755 0.35822 0.0
C2201 C 0.97103 0.33902 0.34899 0.0
C2202 C 0.97872 0.30637 0.35563 0.0
H2203 H 0.99051 0.41549 0.34471 0.0
H2204 H 0.94443 0.32286 0.34264 0.0
S2205 S 0.06798 0.35023 0.37787 0.0
N2206 N 0.07436 0.40364 0.37302 0.0
N2207 N 1.02539 0.30359 0.37058 0.0
C2208 C 1.01411 0.33032 0.36371 0.0
C2209 C 0.04093 0.38525 0.36504 0.0
C2210 C 0.72057 0.64816 0.34817 0.0
C2211 C 0.75322 0.68696 0.35508 0.0
C2212 C 0.66661 0.62097 0.34938 0.0
C2213 C 0.64206 0.63043 0.35767 0.0
H2214 H 0.73677 0.63907 0.34161 0.0
H2215 H 0.64394 0.59225 0.34371 0.0
S2216 S 0.70975 0.72725 0.37818 0.0
N2217 N 0.75644 0.7328 0.37065 0.0
N2218 N 0.6561 0.68176 0.37307 0.0
C2219 C 0.67443 0.6686 0.36476 0.0
C2220 C 0.72943 0.6967 0.36344 0.0
C2221 C 0.41142 0.08546 0.34927 0.0
C2222 C 0.37186 0.07833 0.35612 0.0
C2223 C 0.43829 0.05835 0.3503 0.0
C2224 C 0.42794 0.02292 0.35834 0.0
H2225 H 0.4214 0.11185 0.34289 0.0
H2226 H 0.46759 0.06537 0.34466 0.0
S2227 S 0.32877 0.99052 0.3786 0.0
N2228 N 0.32418 0.033 0.37137 0.0
N2229 N 0.3748 0.98312 0.37345 0.0
C2230 C 0.38903 1.01609 0.36538 0.0
C2231 C 0.36112 0.04333 0.36424 0.0
C2232 C 0.21159 0.40192 0.10414 0.0
C2233 C 0.19564 0.36185 0.09694 0.0
C2234 C 0.20695 0.3927 0.11485 0.0
C2235 C 0.18652 0.34297 0.11892 0.0
H2236 H 0.22657 0.44079 0.10148 0.0
H2237 H 0.2193 0.42495 0.11999 0.0
S2238 S 0.14083 0.22459 0.10346 0.0
N2239 N 0.16049 0.27048 0.09477 0.0
N2240 N 0.15063 0.25305 0.11475 0.0
C2241 C 0.17137 0.30264 0.11181 0.0
C2242 C 0.17607 0.31205 0.1009 0.0
C2243 C 0.65825 0.81967 0.10433 0.0
C2244 C 0.69877 0.84217 0.09714 0.0
C2245 C 0.6673 0.82244 0.11502 0.0
C2246 C 0.71732 0.84821 0.11911 0.0
H2247 H 0.61903 0.79845 0.10166 0.0
H2248 H 0.63462 0.80394 0.12015 0.0
S2249 S 0.83707 0.91555 0.1037 0.0
N2250 N 0.79106 0.89306 0.095 0.0
N2251 N 0.80806 0.89733 0.11497 0.0
C2252 C 0.75819 0.87179 0.11202 0.0
C2253 C 0.74896 0.86889 0.10112 0.0
C2254 C 0.26294 0.92405 0.11381 0.0
C2255 C 0.22027 0.88719 0.1194 0.0
C2256 C 0.26894 0.91783 0.10322 0.0
C2257 C 0.23293 0.8741 0.0978 0.0
H2258 H 0.29162 0.95837 0.11761 0.0
H2259 H 0.30243 0.94722 0.09927 0.0
S2260 S 0.11468 0.76592 0.10887 0.0
N2261 N 0.14178 0.80496 0.11868 0.0
N2262 N 0.15267 0.79361 0.0989 0.0
C2263 C 0.19022 0.83692 0.10333 0.0
C2264 C 0.18398 0.84338 0.11407 0.0
C2265 C 0.37147 0.14086 0.44738 0.0
C2266 C 0.37618 0.18262 0.45312 0.0
C2267 C 0.36273 0.13699 0.43668 0.0
C2268 C 0.35772 0.17442 0.43115 0.0
H2269 H 0.3752 0.11099 0.45118 0.0
H2270 H 0.3592 0.10386 0.43272 0.0
S2271 S 0.36669 0.29157 0.44243 0.0
N2272 N 0.37481 0.26228 0.45237 0.0
N2273 N 0.3587 0.25516 0.43232 0.0
C2274 C 0.3622 0.21638 0.43678 0.0
C2275 C 0.3715 0.22052 0.4477 0.0
C2276 C 0.88775 0.23809 0.43518 0.0
C2277 C 0.89878 0.20098 0.43135 0.0
C2278 C 0.88266 0.24367 0.44583 0.0
C2279 C 0.88889 0.21275 0.45315 0.0
H2280 H 0.88245 0.26277 0.42989 0.0
H2281 H 0.87459 0.27308 0.44835 0.0
S2282 S 0.91829 0.10991 0.44724 0.0
N2283 N 0.91646 0.13323 0.43585 0.0
N2284 N 0.90587 0.14296 0.45573 0.0
C2285 C 0.89984 0.17546 0.44943 0.0
C2286 C 0.90494 0.16973 0.4386 0.0
C2287 C 0.85552 0.73102 0.43739 0.0
C2288 C 0.86491 0.7014 0.43027 0.0
C2289 C 0.84938 0.71947 0.44801 0.0
C2290 C 0.85249 0.67778 0.45206 0.0
H2291 H 0.85179 0.76294 0.43472 0.0
H2292 H 0.84096 0.74286 0.45305 0.0
S2293 S 0.88168 0.59116 0.43686 0.0
N2294 N 0.88022 0.63031 0.42818 0.0
N2295 N 0.86936 0.60897 0.44803 0.0
C2296 C 0.8631 0.64856 0.44504 0.0
C2297 C 0.86911 0.66022 0.43421 0.0
C2298 C 0.89195 0.66191 0.93514 0.0
C2299 C 0.88126 0.69878 0.93103 0.0
C2300 C 0.88585 0.64959 0.94572 0.0
C2301 C 0.86895 0.67363 0.95276 0.0
H2302 H 0.90634 0.64308 0.93018 0.0
H2303 H 0.89553 0.62161 0.94844 0.0
S2304 S 0.83092 0.7693 0.94595 0.0
N2305 N 0.84932 0.75663 0.93489 0.0
N2306 N 0.8386 0.73398 0.95468 0.0
C2307 C 0.85722 0.70988 0.94875 0.0
C2308 C 0.86315 0.72227 0.93795 0.0
C2309 C 0.39952 0.19147 0.93509 0.0
C2310 C 0.35486 0.18943 0.93124 0.0
C2311 C 0.41086 0.19691 0.94572 0.0
C2312 C 0.37828 0.20093 0.95304 0.0
H2313 H 0.42594 0.18864 0.92984 0.0
H2314 H 0.44561 0.19798 0.94823 0.0
S2315 S 0.25849 0.20201 0.94689 0.0
N2316 N 0.27899 0.19421 0.93561 0.0
N2317 N 0.30044 0.20508 0.95542 0.0
C2318 C 0.33363 0.19928 0.94926 0.0
C2319 C 0.32197 0.19345 0.93844 0.0
C2320 C 0.83978 0.12563 0.93813 0.0
C2321 C 0.86336 0.16714 0.93123 0.0
C2322 C 0.8352 0.13288 0.94872 0.0
C2323 C 0.85406 0.18203 0.95295 0.0
H2324 H 0.82364 0.08692 0.9353 0.0
H2325 H 0.81554 0.09943 0.95358 0.0
S2326 S 0.92363 0.30401 0.93843 0.0
N2327 N 0.90872 0.25956 0.92958 0.0
N2328 N 0.90047 0.27322 0.94939 0.0
C2329 C 0.87878 0.22399 0.94617 0.0
C2330 C 0.88332 0.21656 0.93537 0.0
C2331 C 0.69632 0.9188 0.60335 0.0
C2332 C 0.68827 0.87504 0.5979 0.0
C2333 C 0.70877 0.92495 0.61393 0.0
C2334 C 0.71452 0.88801 0.61947 0.0
H2335 H 0.69231 0.94826 0.59945 0.0
H2336 H 0.71461 0.95927 0.61776 0.0
S2337 S 0.69816 0.76673 0.6088 0.0
N2338 N 0.68772 0.79449 0.59889 0.0
N2339 N 0.71047 0.80574 0.61864 0.0
C2340 C 0.70673 0.84421 0.61409 0.0
C2341 C 0.69376 0.83781 0.60337 0.0
C2342 C 0.18863 0.80302 0.60515 0.0
C2343 C 0.20287 0.84307 0.59801 0.0
C2344 C 0.18299 0.80957 0.61573 0.0
C2345 C 0.19148 0.85658 0.61973 0.0
H2346 H 0.18069 0.76577 0.60252 0.0
H2347 H 0.17067 0.77699 0.62079 0.0
S2348 S 0.2345 0.97527 0.60448 0.0
N2349 N 0.22841 0.93247 0.59584 0.0
N2350 N 0.21851 0.94504 0.61564 0.0
C2351 C 0.20694 0.89734 0.61269 0.0
C2352 C 0.21242 0.89054 0.6019 0.0
C2353 C 0.17684 0.33162 0.60181 0.0
C2354 C 0.2224 0.37242 0.59776 0.0
C2355 C 0.17094 0.32024 0.61245 0.0
C2356 C 0.21043 0.3489 0.61958 0.0
H2357 H 0.14523 0.30842 0.59671 0.0
H2358 H 0.13492 0.28868 0.61512 0.0
S2359 S 0.33931 0.4567 0.61284 0.0
N2360 N 0.30876 0.43981 0.60173 0.0
N2361 N 0.29813 0.41821 0.62154 0.0
C2362 C 0.25643 0.38942 0.61559 0.0
C2363 C 0.26229 0.40114 0.60477 0.0
C2364 C 1.0058 0.46061 0.77151 0.0
C2365 C 1.02179 0.50246 0.76477 0.0
C2366 C 1.01688 0.46745 0.78211 0.0
C2367 C 0.04441 0.51652 0.78654 0.0
H2368 H 0.9853 0.422 0.76853 0.0
H2369 H 1.00462 0.43382 0.78686 0.0
S2370 S 0.0911 0.63898 0.77247 0.0
N2371 N 0.0642 0.59491 0.76345 0.0
N2372 N 0.08468 0.60781 0.78332 0.0
C2373 C 0.05982 0.55876 0.77992 0.0
C2374 C 0.04864 0.55175 0.76909 0.0
C2375 C 0.57243 0.57882 0.76866 0.0
C2376 C 0.55161 0.52963 0.76432 0.0
C2377 C 0.56863 0.58596 0.77927 0.0
C2378 C 0.54395 0.5443 0.78611 0.0
H2379 H 0.59296 0.61234 0.76384 0.0
H2380 H 0.58618 0.62466 0.78218 0.0
S2381 S 0.47876 0.40749 0.77867 0.0
N2382 N 0.50235 0.43838 0.76773 0.0
N2383 N 0.49563 0.45185 0.78762 0.0
C2384 C 0.52214 0.49489 0.78187 0.0
C2385 C 0.52585 0.48757 0.77104 0.0
C2386 C 0.56988 0.0615 0.77104 0.0
C2387 C 0.5316 0.03033 0.7639 0.0
C2388 C 0.56453 0.0504 0.78168 0.0
C2389 C 0.52079 1.00738 0.7857 0.0
H2390 H 0.60446 0.09493 0.76838 0.0
H2391 H 0.59506 0.07566 0.7868 0.0
S2392 S 0.4075 0.91543 0.77057 0.0
N2393 N 0.44695 0.95582 0.76187 0.0
N2394 N 0.43739 0.93475 0.78171 0.0
C2395 C 0.48219 0.97595 0.77868 0.0
C2396 C 0.48747 0.98739 0.76786 0.0
C2397 C 0.53288 0.98266 0.26779 0.0
C2398 C 0.55001 0.03193 0.26373 0.0
C2399 C 0.52861 0.97333 0.27849 0.0
C2400 C 0.54167 1.01289 0.2857 0.0
H2401 H 0.52288 0.95087 0.26263 0.0
H2402 H 0.51625 0.93492 0.28114 0.0
S2403 S 0.5871 0.14866 0.27923 0.0
N2404 N 0.57959 0.12079 0.26793 0.0
N2405 N 0.57038 0.10308 0.2879 0.0
C2406 C 0.55785 0.06213 0.28175 0.0
C2407 C 0.56218 0.07164 0.27085 0.0
C2408 C 1.00006 0.50291 0.28246 0.0
C2409 C 0.04774 0.54091 0.2863 0.0
C2410 C 0.98895 0.49834 0.27183 0.0
C2411 C 1.0249 0.53169 0.26453 0.0
H2412 H 0.97102 0.47631 0.28771 0.0
H2413 H 0.95174 0.46833 0.26931 0.0
S2414 S 0.15393 0.64048 0.27063 0.0
N2415 N 0.13031 0.61408 0.28193 0.0
N2416 N 0.10946 0.60583 0.2621 0.0
C2417 C 0.07263 0.57004 0.26829 0.0
C2418 C 0.08398 0.57458 0.2791 0.0
C2419 C 0.50303 0.52964 0.26836 0.0
C2420 C 0.5316 0.50827 0.2643 0.0
C2421 C 0.49884 0.53484 0.27907 0.0
C2422 C 0.52258 0.51849 0.28629 0.0
H2423 H 0.48351 0.54243 0.26321 0.0
H2424 H 0.47562 0.55071 0.28171 0.0
S2425 S 0.60278 0.4608 0.27981 0.0
N2426 N 0.58436 0.47082 0.26851 0.0
N2427 N 0.57738 0.48154 0.28848 0.0
C2428 C 0.5519 0.49774 0.28234 0.0
C2429 C 0.55627 0.49253 0.27143 0.0
C2430 C 0.06003 0.18849 0.28187 0.0
C2431 C 1.0198 0.19628 0.28517 0.0
C2432 C 0.07682 0.19606 0.27153 0.0
C2433 C 0.05448 0.21204 0.26392 0.0
H2434 H 0.07898 0.17646 0.28734 0.0
H2435 H 0.1079 0.18949 0.26949 0.0
S2436 S 0.94617 0.2355 0.26823 0.0
N2437 N 0.95688 0.21937 0.27971 0.0
N2438 N 0.98879 0.23409 0.26044 0.0
C2439 C 1.01445 0.22031 0.2671 0.0
C2440 C 0.99711 0.21235 0.27763 0.0
C2441 C 0.82888 0.84688 0.28277 0.0
C2442 C 0.87201 0.84234 0.28522 0.0
C2443 C 0.81993 0.85753 0.27261 0.0
C2444 C 0.8536 0.864 0.26442 0.0
H2445 H 0.80247 0.84346 0.28879 0.0
H2446 H 0.78697 0.86198 0.27122 0.0
S2447 S 0.96791 0.84839 0.26642 0.0
N2448 N 0.94594 0.84033 0.27834 0.0
N2449 N 0.92907 0.85978 0.25942 0.0
C2450 C 0.89571 0.85754 0.26673 0.0
C2451 C 0.90487 0.84688 0.27704 0.0
C2452 C 0.25657 0.05714 0.27924 0.0
C2453 C 0.21622 0.04004 0.28648 0.0
C2454 C 0.24797 0.03975 0.26892 0.0
C2455 C 0.19853 1.00458 0.26529 0.0
H2456 H 0.29515 0.08514 0.2815 0.0
H2457 H 0.28027 0.05485 0.26368 0.0
S2458 S 0.08051 0.94294 0.28132 0.0
N2459 N 0.12541 0.98207 0.28934 0.0
N2460 N 0.1093 0.95024 0.2701 0.0
C2461 C 0.15811 0.98615 0.27251 0.0
C2462 C 0.16689 1.00359 0.28301 0.0
C2463 C 0.05411 0.82766 0.78249 0.0
C2464 C 1.01567 0.8379 0.78592 0.0
C2465 C 0.07146 0.83616 0.77215 0.0
C2466 C 0.05105 0.85504 0.76468 0.0
H2467 H 0.07183 0.81403 0.78791 0.0
H2468 H 0.10206 0.82895 0.77006 0.0
S2469 S 0.9446 0.88132 0.76929 0.0
N2470 N 0.95472 0.86383 0.78068 0.0
N2471 N 0.98637 0.87891 0.76141 0.0
C2472 C 1.01124 0.86359 0.76795 0.0
C2473 C 0.99387 0.85527 0.77847 0.0
C2474 C 0.2329 0.19013 0.76729 0.0
C2475 C 0.20533 0.21524 0.76492 0.0
C2476 C 0.24209 0.18151 0.77758 0.0
C2477 C 0.22359 0.19689 0.78606 0.0
H2478 H 0.24795 0.17728 0.76113 0.0
H2479 H 0.2632 0.16173 0.77888 0.0
S2480 S 0.14873 0.26382 0.7842 0.0
N2481 N 0.15903 0.2548 0.7721 0.0
N2482 N 0.17676 0.23937 0.79125 0.0
C2483 C 0.19597 0.22205 0.7838 0.0
C2484 C 0.18686 0.23108 0.77333 0.0
C2485 C 0.91435 0.08217 0.77691 0.0
C2486 C 0.88176 0.05571 0.78527 0.0
C2487 C 0.90296 0.06317 0.76675 0.0
C2488 C 0.85835 1.01664 0.76439 0.0
H2489 H 0.94908 0.11823 0.77822 0.0
H2490 H 0.92941 0.08539 0.76067 0.0
S2491 S 0.76173 0.9304 0.78349 0.0
N2492 N 0.80365 0.97913 0.79045 0.0
N2493 N 0.78243 0.94349 0.77149 0.0
C2494 C 0.82544 0.98968 0.77268 0.0
C2495 C 0.83703 1.00911 0.78303 0.0
C2496 C 0.65531 0.51369 0.61127 0.0
C2497 C 0.68953 0.52795 0.61966 0.0
C2498 C 0.67265 0.52193 0.60096 0.0
C2499 C 0.7252 0.54545 0.59846 0.0
H2500 H 0.61447 0.49507 0.61268 0.0
H2501 H 0.6445 0.50996 0.59487 0.0
S2502 S 0.83113 0.59069 0.61746 0.0
N2503 N 0.77899 0.56772 0.62464 0.0
N2504 N 0.81132 0.5824 0.6054 0.0
C2505 C 0.75989 0.56022 0.60677 0.0
C2506 C 0.7422 0.55161 0.61728 0.0
C2507 C 0.51623 0.13823 0.61224 0.0
C2508 C 0.54077 0.17895 0.61932 0.0
C2509 C 0.50725 0.14639 0.60189 0.0
C2510 C 0.52261 0.19572 0.59806 0.0
H2511 H 0.50479 0.09968 0.61464 0.0
H2512 H 0.48905 0.11379 0.59678 0.0
S2513 S 0.58233 0.3148 0.61361 0.0
N2514 N 0.57582 0.27018 0.6218 0.0
N2515 N 0.55976 0.28533 0.60253 0.0
C2516 C 0.5458 0.23652 0.60512 0.0
C2517 C 0.55464 0.22822 0.61565 0.0
C2518 C 0.86223 0.32817 0.61695 0.0
C2519 C 0.8837 0.38088 0.61892 0.0
C2520 C 0.85253 0.30856 0.60681 0.0
C2521 C 0.86319 0.34061 0.59816 0.0
H2522 H 0.85295 0.30173 0.6233 0.0
H2523 H 0.83546 0.26772 0.60577 0.0
S2524 S 0.91985 0.48154 0.59901 0.0
N2525 N 0.91511 0.46467 0.61123 0.0
N2526 N 0.8978 0.42819 0.59233 0.0
C2527 C 0.88504 0.39341 0.60003 0.0
C2528 C 0.8951 0.41338 0.61033 0.0
C2529 C 0.73174 0.16743 0.10444 0.0
C2530 C 0.71643 0.19263 0.09733 0.0
C2531 C 0.71432 0.15871 0.11477 0.0
C2532 C 0.68092 0.17502 0.11855 0.0
H2533 H 0.75843 0.15525 0.10207 0.0
H2534 H 0.72806 0.13998 0.11991 0.0
S2535 S 0.62406 0.23714 0.10293 0.0
N2536 N 0.6618 0.22959 0.09477 0.0
N2537 N 0.63002 0.21402 0.11403 0.0
C2538 C 0.66421 0.19898 0.11147 0.0
C2539 C 0.68165 0.20756 0.10095 0.0
C2540 C 0.83798 0.50139 0.11462 0.0
C2541 C 0.88781 0.51802 0.11837 0.0
C2542 C 0.8292 0.51148 0.10444 0.0
C2543 C 0.86973 0.53889 0.09743 0.0
H2544 H 0.80517 0.48041 0.11961 0.0
H2545 H 0.79006 0.49789 0.10207 0.0
S2546 S 1.00753 0.58917 0.10307 0.0
N2547 N 0.97835 0.56225 0.11399 0.0
N2548 N 0.96192 0.58132 0.09499 0.0
C2549 C 0.91981 0.55599 0.10106 0.0
C2550 C 0.92879 0.5456 0.11145 0.0
C2551 C 0.48983 0.34314 0.11558 0.0
C2552 C 0.53961 0.37696 0.11925 0.0
C2553 C 0.4809 0.32538 0.10528 0.0
C2554 C 0.52127 0.34073 0.09809 0.0
H2555 H 0.45746 0.32936 0.12078 0.0
H2556 H 0.44202 0.29843 0.103 0.0
S2557 S 0.65816 0.43409 0.10337 0.0
N2558 N 0.62933 0.42827 0.11452 0.0
N2559 N 0.61275 0.39584 0.09533 0.0
C2560 C 0.57103 0.37591 0.1016 0.0
C2561 C 0.5801 0.39371 0.11208 0.0
C2562 C 0.40038 0.90976 0.93772 0.0
C2563 C 0.38517 0.86894 0.93071 0.0
C2564 C 0.38323 0.90156 0.94807 0.0
C2565 C 0.35023 0.85208 0.95196 0.0
H2566 H 0.42676 0.94848 0.93527 0.0
H2567 H 0.39684 0.93427 0.95313 0.0
S2568 S 0.29376 0.73242 0.93662 0.0
N2569 N 0.33104 0.77726 0.92835 0.0
N2570 N 0.29979 0.76204 0.94765 0.0
C2571 C 0.33363 0.8111 0.94498 0.0
C2572 C 0.35078 0.81943 0.93444 0.0
C2573 C 0.22668 0.49013 0.94333 0.0
C2574 C 0.21125 0.50805 0.95189 0.0
C2575 C 0.21661 0.49862 0.93311 0.0
C2576 C 0.18995 0.52482 0.93092 0.0
H2577 H 0.24763 0.47009 0.94452 0.0
H2578 H 0.22961 0.48417 0.92686 0.0
S2579 S 0.14055 0.5793 0.95047 0.0
N2580 N 0.16702 0.55275 0.95736 0.0
N2581 N 0.14886 0.56916 0.93831 0.0
C2582 C 0.17401 0.54265 0.9394 0.0
C2583 C 0.18451 0.53426 0.9498 0.0
C2584 C 0.56358 0.668 0.93771 0.0
C2585 C 0.52158 0.66392 0.93212 0.0
C2586 C 0.57371 0.68651 0.94793 0.0
C2587 C 0.54185 0.70106 0.95313 0.0
H2588 H 0.58933 0.65737 0.93411 0.0
H2589 H 0.60657 0.68894 0.95183 0.0
S2590 S 0.4265 0.69749 0.94208 0.0
N2591 N 0.44752 0.67564 0.93273 0.0
N2592 N 0.46666 0.71058 0.95174 0.0
C2593 C 0.49961 0.69697 0.94764 0.0
C2594 C 0.48954 0.67852 0.93722 0.0
C2595 C 0.33048 0.51978 0.44482 0.0
C2596 C 0.34993 0.49955 0.45218 0.0
C2597 C 0.34801 0.52885 0.43453 0.0
C2598 C 0.38622 0.51846 0.43101 0.0
H2599 H 0.30106 0.52856 0.44702 0.0
H2600 H 0.33121 0.54416 0.42928 0.0
S2601 S 0.45182 0.46723 0.44724 0.0
N2602 N 0.41059 0.4703 0.45518 0.0
N2603 N 0.44394 0.48785 0.436 0.0
C2604 C 0.40592 0.49798 0.43828 0.0
C2605 C 0.38779 0.48847 0.44878 0.0
C2606 C 0.49465 0.87063 0.44027 0.0
C2607 C 0.52948 0.88122 0.43209 0.0
C2608 C 0.50576 0.8627 0.45043 0.0
C2609 C 0.55231 0.86486 0.45298 0.0
H2610 H 0.4583 0.86857 0.43883 0.0
H2611 H 0.4775 0.85491 0.45637 0.0
S2612 S 0.65549 0.88792 0.43435 0.0
N2613 N 0.61198 0.89148 0.42726 0.0
N2614 N 0.63269 0.87642 0.44622 0.0
C2615 C 0.5875 0.87537 0.44487 0.0
C2616 C 0.57619 0.88356 0.43451 0.0
C2617 C 0.15852 0.67235 0.44919 0.0
C2618 C 0.20673 0.71191 0.4525 0.0
C2619 C 0.14967 0.65525 0.43885 0.0
C2620 C 0.18847 0.67706 0.43127 0.0
H2621 H 0.12756 0.6536 0.4547 0.0
H2622 H 0.11227 0.62379 0.43685 0.0
S2623 S 0.31979 0.78635 0.43559 0.0
N2624 N 0.29262 0.77509 0.44706 0.0
N2625 N 0.276 0.74393 0.42779 0.0
C2626 C 0.23637 0.71786 0.43443 0.0
C2627 C 0.24544 0.73496 0.44495 0.0
loop_
_geom_bond_atom_site_label_1
_geom_bond_atom_site_label_2
_geom_bond_distance
_geom_bond_site_symmetry_2
_ccdc_geom_bond_type
La0 C2 2.928 . S
La0 O20 2.521 . S
La0 O21 2.628 . S
La0 O22 2.554 . S
La0 O23 2.757 . S
La0 O24 2.470 . S
La0 O29 2.482 . S
La0 O31 2.503 . S
La1 C11 2.928 . S
La1 O23 2.482 . S
La1 O25 2.503 . S
La1 O26 2.521 . S
La1 O27 2.628 . S
La1 O28 2.554 . S
La1 O29 2.757 . S
La1 O30 2.470 . S
C2 La0 2.928 . S
C2 C3 1.503 . S
C2 O20 1.261 . S
C2 O21 1.243 . S
C3 C2 1.503 . S
C3 C4 1.394 . S
C3 C8 1.373 . S
C4 C3 1.394 . S
C4 C5 1.380 . S
C4 H32 0.930 . S
C5 C4 1.380 . S
C5 C6 1.376 . S
C5 H33 0.930 . S
C6 C5 1.376 . S
C6 C7 1.370 . S
C7 C6 1.370 . S
C7 C8 1.396 . S
C7 H34 0.929 . S
C8 C3 1.373 . S
C8 C7 1.396 . S
C8 H35 0.929 . S
C9 O22 1.240 . S
C9 O23 1.289 . S
C10 O24 1.258 . S
C10 O25 1.256 . S
C11 La1 2.928 . S
C11 C12 1.503 . S
C11 O26 1.261 . S
C11 O27 1.243 . S
C12 C11 1.503 . S
C12 C13 1.394 . S
C12 C17 1.373 . S
C13 C12 1.394 . S
C13 C14 1.380 . S
C13 H36 0.930 . S
C14 C13 1.380 . S
C14 C15 1.376 . S
C14 H37 0.930 . S
C15 C14 1.376 . S
C15 C16 1.370 . S
C16 C15 1.370 . S
C16 C17 1.396 . S
C16 H38 0.929 . S
C17 C12 1.373 . S
C17 C16 1.396 . S
C17 H39 0.929 . S
C18 O28 1.240 . S
C18 O29 1.289 . S
C19 O30 1.258 . S
C19 O31 1.256 . S
O20 La0 2.521 . S
O20 C2 1.261 . S
O21 La0 2.628 . S
O21 C2 1.243 . S
O22 La0 2.554 . S
O22 C9 1.240 . S
O23 La0 2.757 . S
O23 La1 2.482 . S
O23 C9 1.289 . S
O24 La0 2.470 . S
O24 C10 1.258 . S
O25 La1 2.503 . S
O25 C10 1.256 . S
O26 La1 2.521 . S
O26 C11 1.261 . S
O27 La1 2.628 . S
O27 C11 1.243 . S
O28 La1 2.554 . S
O28 C18 1.240 . S
O29 La0 2.482 . S
O29 La1 2.757 . S
O29 C18 1.289 . S
O30 La1 2.470 . S
O30 C19 1.258 . S
O31 La0 2.503 . S
O31 C19 1.256 . S
H32 C4 0.930 . S
H33 C5 0.930 . S
H34 C7 0.929 . S
H35 C8 0.929 . S
H36 C13 0.930 . S
H37 C14 0.930 . S
H38 C16 0.929 . S
H39 C17 0.929 . S
La40 C42 2.928 . S
La40 O60 2.521 . S
La40 O61 2.628 . S
La40 O62 2.554 . S
La40 O63 2.757 . S
La40 O64 2.470 . S
La40 O69 2.482 . S
La40 O71 2.503 . S
La41 C51 2.928 . S
La41 O63 2.482 . S
La41 O65 2.503 . S
La41 O66 2.521 . S
La41 O67 2.628 . S
La41 O68 2.554 . S
La41 O69 2.757 . S
La41 O70 2.470 . S
C42 La40 2.928 . S
C42 C43 1.503 . S
C42 O60 1.261 . S
C42 O61 1.243 . S
C43 C42 1.503 . S
C43 C44 1.394 . S
C43 C48 1.373 . S
C44 C43 1.394 . S
C44 C45 1.380 . S
C44 H72 0.930 . S
C45 C44 1.380 . S
C45 C46 1.376 . S
C45 H73 0.930 . S
C46 C45 1.376 . S
C46 C47 1.370 . S
C47 C46 1.370 . S
C47 C48 1.396 . S
C47 H74 0.929 . S
C48 C43 1.373 . S
C48 C47 1.396 . S
C48 H75 0.929 . S
C49 O62 1.240 . S
C49 O63 1.289 . S
C50 O64 1.258 . S
C50 O65 1.256 . S
C51 La41 2.928 . S
C51 C52 1.503 . S
C51 O66 1.261 . S
C51 O67 1.243 . S
C52 C51 1.503 . S
C52 C53 1.394 . S
C52 C57 1.373 . S
C53 C52 1.394 . S
C53 C54 1.380 . S
C53 H76 0.930 . S
C54 C53 1.380 . S
C54 C55 1.376 . S
C54 H77 0.930 . S
C55 C54 1.376 . S
C55 C56 1.370 . S
C56 C55 1.370 . S
C56 C57 1.396 . S
C56 H78 0.929 . S
C57 C52 1.373 . S
C57 C56 1.396 . S
C57 H79 0.929 . S
C58 O68 1.240 . S
C58 O69 1.289 . S
C59 O70 1.258 . S
C59 O71 1.256 . S
O60 La40 2.521 . S
O60 C42 1.261 . S
O61 La40 2.628 . S
O61 C42 1.243 . S
O62 La40 2.554 . S
O62 C49 1.240 . S
O63 La40 2.757 . S
O63 La41 2.482 . S
O63 C49 1.289 . S
O64 La40 2.470 . S
O64 C50 1.258 . S
O65 La41 2.503 . S
O65 C50 1.256 . S
O66 La41 2.521 . S
O66 C51 1.261 . S
O67 La41 2.628 . S
O67 C51 1.243 . S
O68 La41 2.554 . S
O68 C58 1.240 . S
O69 La40 2.482 . S
O69 La41 2.757 . S
O69 C58 1.289 . S
O70 La41 2.470 . S
O70 C59 1.258 . S
O71 La40 2.503 . S
O71 C59 1.256 . S
H72 C44 0.930 . S
H73 C45 0.930 . S
H74 C47 0.929 . S
H75 C48 0.929 . S
H76 C53 0.930 . S
H77 C54 0.930 . S
H78 C56 0.929 . S
H79 C57 0.929 . S
La80 C82 2.928 . S
La80 O100 2.521 . S
La80 O101 2.628 . S
La80 O102 2.554 . S
La80 O103 2.757 . S
La80 O104 2.470 . S
La80 O109 2.482 . S
La80 O111 2.503 . S
La81 C91 2.928 . S
La81 O103 2.482 . S
La81 O105 2.503 . S
La81 O106 2.521 . S
La81 O107 2.628 . S
La81 O108 2.554 . S
La81 O109 2.757 . S
La81 O110 2.470 . S
C82 La80 2.928 . S
C82 C83 1.503 . S
C82 O100 1.261 . S
C82 O101 1.243 . S
C83 C82 1.503 . S
C83 C84 1.394 . S
C83 C88 1.373 . S
C84 C83 1.394 . S
C84 C85 1.380 . S
C84 H112 0.930 . S
C85 C84 1.380 . S
C85 C86 1.376 . S
C85 H113 0.930 . S
C86 C85 1.376 . S
C86 C87 1.370 . S
C87 C86 1.370 . S
C87 C88 1.396 . S
C87 H114 0.929 . S
C88 C83 1.373 . S
C88 C87 1.396 . S
C88 H115 0.929 . S
C89 O102 1.240 . S
C89 O103 1.289 . S
C90 O104 1.258 . S
C90 O105 1.256 . S
C91 La81 2.928 . S
C91 C92 1.503 . S
C91 O106 1.261 . S
C91 O107 1.243 . S
C92 C91 1.503 . S
C92 C93 1.394 . S
C92 C97 1.373 . S
C93 C92 1.394 . S
C93 C94 1.380 . S
C93 H116 0.930 . S
C94 C93 1.380 . S
C94 C95 1.376 . S
C94 H117 0.930 . S
C95 C94 1.376 . S
C95 C96 1.370 . S
C96 C95 1.370 . S
C96 C97 1.396 . S
C96 H118 0.929 . S
C97 C92 1.373 . S
C97 C96 1.396 . S
C97 H119 0.929 . S
C98 O108 1.240 . S
C98 O109 1.289 . S
C99 O110 1.258 . S
C99 O111 1.256 . S
O100 La80 2.521 . S
O100 C82 1.261 . S
O101 La80 2.628 . S
O101 C82 1.243 . S
O102 La80 2.554 . S
O102 C89 1.240 . S
O103 La80 2.757 . S
O103 La81 2.482 . S
O103 C89 1.289 . S
O104 La80 2.470 . S
O104 C90 1.258 . S
O105 La81 2.503 . S
O105 C90 1.256 . S
O106 La81 2.521 . S
O106 C91 1.261 . S
O107 La81 2.628 . S
O107 C91 1.243 . S
O108 La81 2.554 . S
O108 C98 1.240 . S
O109 La80 2.482 . S
O109 La81 2.757 . S
O109 C98 1.289 . S
O110 La81 2.470 . S
O110 C99 1.258 . S
O111 La80 2.503 . S
O111 C99 1.256 . S
H112 C84 0.930 . S
H113 C85 0.930 . S
H114 C87 0.929 . S
H115 C88 0.929 . S
H116 C93 0.930 . S
H117 C94 0.930 . S
H118 C96 0.929 . S
H119 C97 0.929 . S
La120 C122 2.928 . S
La120 O140 2.521 . S
La120 O141 2.628 . S
La120 O142 2.554 . S
La120 O143 2.757 . S
La120 O144 2.470 . S
La120 O149 2.482 . S
La120 O151 2.503 . S
La121 C131 2.928 . S
La121 O143 2.482 . S
La121 O145 2.503 . S
La121 O146 2.521 . S
La121 O147 2.628 . S
La121 O148 2.554 . S
La121 O149 2.757 . S
La121 O150 2.470 . S
C122 La120 2.928 . S
C122 C123 1.503 . S
C122 O140 1.261 . S
C122 O141 1.243 . S
C123 C122 1.503 . S
C123 C124 1.394 . S
C123 C128 1.373 . S
C124 C123 1.394 . S
C124 C125 1.380 . S
C124 H152 0.930 . S
C125 C124 1.380 . S
C125 C126 1.376 . S
C125 H153 0.930 . S
C126 C125 1.376 . S
C126 C127 1.370 . S
C127 C126 1.370 . S
C127 C128 1.396 . S
C127 H154 0.929 . S
C128 C123 1.373 . S
C128 C127 1.396 . S
C128 H155 0.929 . S
C129 O142 1.240 . S
C129 O143 1.289 . S
C130 O144 1.258 . S
C130 O145 1.256 . S
C131 La121 2.928 . S
C131 C132 1.503 . S
C131 O146 1.261 . S
C131 O147 1.243 . S
C132 C131 1.503 . S
C132 C133 1.394 . S
C132 C137 1.373 . S
C133 C132 1.394 . S
C133 C134 1.380 . S
C133 H156 0.930 . S
C134 C133 1.380 . S
C134 C135 1.376 . S
C134 H157 0.930 . S
C135 C134 1.376 . S
C135 C136 1.370 . S
C136 C135 1.370 . S
C136 C137 1.396 . S
C136 H158 0.929 . S
C137 C132 1.373 . S
C137 C136 1.396 . S
C137 H159 0.929 . S
C138 O148 1.240 . S
C138 O149 1.289 . S
C139 O150 1.258 . S
C139 O151 1.256 . S
O140 La120 2.521 . S
O140 C122 1.261 . S
O141 La120 2.628 . S
O141 C122 1.243 . S
O142 La120 2.554 . S
O142 C129 1.240 . S
O143 La120 2.757 . S
O143 La121 2.482 . S
O143 C129 1.289 . S
O144 La120 2.470 . S
O144 C130 1.258 . S
O145 La121 2.503 . S
O145 C130 1.256 . S
O146 La121 2.521 . S
O146 C131 1.261 . S
O147 La121 2.628 . S
O147 C131 1.243 . S
O148 La121 2.554 . S
O148 C138 1.240 . S
O149 La120 2.482 . S
O149 La121 2.757 . S
O149 C138 1.289 . S
O150 La121 2.470 . S
O150 C139 1.258 . S
O151 La120 2.503 . S
O151 C139 1.256 . S
H152 C124 0.930 . S
H153 C125 0.930 . S
H154 C127 0.929 . S
H155 C128 0.929 . S
H156 C133 0.930 . S
H157 C134 0.930 . S
H158 C136 0.929 . S
H159 C137 0.929 . S
La160 C162 2.928 . S
La160 O180 2.521 . S
La160 O181 2.628 . S
La160 O182 2.554 . S
La160 O183 2.757 . S
La160 O184 2.470 . S
La160 O189 2.482 . S
La160 O191 2.503 . S
La161 C171 2.928 . S
La161 O183 2.482 . S
La161 O185 2.503 . S
La161 O186 2.521 . S
La161 O187 2.628 . S
La161 O188 2.554 . S
La161 O189 2.757 . S
La161 O190 2.470 . S
C162 La160 2.928 . S
C162 C163 1.503 . S
C162 O180 1.261 . S
C162 O181 1.243 . S
C163 C162 1.503 . S
C163 C164 1.394 . S
C163 C168 1.373 . S
C164 C163 1.394 . S
C164 C165 1.380 . S
C164 H192 0.930 . S
C165 C164 1.380 . S
C165 C166 1.376 . S
C165 H193 0.930 . S
C166 C165 1.376 . S
C166 C167 1.370 . S
C167 C166 1.370 . S
C167 C168 1.396 . S
C167 H194 0.929 . S
C168 C163 1.373 . S
C168 C167 1.396 . S
C168 H195 0.929 . S
C169 O182 1.240 . S
C169 O183 1.289 . S
C170 O184 1.258 . S
C170 O185 1.256 . S
C171 La161 2.928 . S
C171 C172 1.503 . S
C171 O186 1.261 . S
C171 O187 1.243 . S
C172 C171 1.503 . S
C172 C173 1.394 . S
C172 C177 1.373 . S
C173 C172 1.394 . S
C173 C174 1.380 . S
C173 H196 0.930 . S
C174 C173 1.380 . S
C174 C175 1.376 . S
C174 H197 0.930 . S
C175 C174 1.376 . S
C175 C176 1.370 . S
C176 C175 1.370 . S
C176 C177 1.396 . S
C176 H198 0.929 . S
C177 C172 1.373 . S
C177 C176 1.396 . S
C177 H199 0.929 . S
C178 O188 1.240 . S
C178 O189 1.289 . S
C179 O190 1.258 . S
C179 O191 1.256 . S
O180 La160 2.521 . S
O180 C162 1.261 . S
O181 La160 2.628 . S
O181 C162 1.243 . S
O182 La160 2.554 . S
O182 C169 1.240 . S
O183 La160 2.757 . S
O183 La161 2.482 . S
O183 C169 1.289 . S
O184 La160 2.470 . S
O184 C170 1.258 . S
O185 La161 2.503 . S
O185 C170 1.256 . S
O186 La161 2.521 . S
O186 C171 1.261 . S
O187 La161 2.628 . S
O187 C171 1.243 . S
O188 La161 2.554 . S
O188 C178 1.240 . S
O189 La160 2.482 . S
O189 La161 2.757 . S
O189 C178 1.289 . S
O190 La161 2.470 . S
O190 C179 1.258 . S
O191 La160 2.503 . S
O191 C179 1.256 . S
H192 C164 0.930 . S
H193 C165 0.930 . S
H194 C167 0.929 . S
H195 C168 0.929 . S
H196 C173 0.930 . S
H197 C174 0.930 . S
H198 C176 0.929 . S
H199 C177 0.929 . S
La200 C202 2.928 . S
La200 O220 2.521 . S
La200 O221 2.628 . S
La200 O222 2.554 . S
La200 O223 2.757 . S
La200 O224 2.470 . S
La200 O229 2.482 . S
La200 O231 2.503 . S
La201 C211 2.928 . S
La201 O223 2.482 . S
La201 O225 2.503 . S
La201 O226 2.521 . S
La201 O227 2.628 . S
La201 O228 2.554 . S
La201 O229 2.757 . S
La201 O230 2.470 . S
C202 La200 2.928 . S
C202 C203 1.503 . S
C202 O220 1.261 . S
C202 O221 1.243 . S
C203 C202 1.503 . S
C203 C204 1.394 . S
C203 C208 1.373 . S
C204 C203 1.394 . S
C204 C205 1.380 . S
C204 H232 0.930 . S
C205 C204 1.380 . S
C205 C206 1.376 . S
C205 H233 0.930 . S
C206 C205 1.376 . S
C206 C207 1.370 . S
C207 C206 1.370 . S
C207 C208 1.396 . S
C207 H234 0.929 . S
C208 C203 1.373 . S
C208 C207 1.396 . S
C208 H235 0.929 . S
C209 O222 1.240 . S
C209 O223 1.289 . S
C210 O224 1.258 . S
C210 O225 1.256 . S
C211 La201 2.928 . S
C211 C212 1.503 . S
C211 O226 1.261 . S
C211 O227 1.243 . S
C212 C211 1.503 . S
C212 C213 1.394 . S
C212 C217 1.373 . S
C213 C212 1.394 . S
C213 C214 1.380 . S
C213 H236 0.930 . S
C214 C213 1.380 . S
C214 C215 1.376 . S
C214 H237 0.930 . S
C215 C214 1.376 . S
C215 C216 1.370 . S
C216 C215 1.370 . S
C216 C217 1.396 . S
C216 H238 0.929 . S
C217 C212 1.373 . S
C217 C216 1.396 . S
C217 H239 0.929 . S
C218 O228 1.240 . S
C218 O229 1.289 . S
C219 O230 1.258 . S
C219 O231 1.256 . S
O220 La200 2.521 . S
O220 C202 1.261 . S
O221 La200 2.628 . S
O221 C202 1.243 . S
O222 La200 2.554 . S
O222 C209 1.240 . S
O223 La200 2.757 . S
O223 La201 2.482 . S
O223 C209 1.289 . S
O224 La200 2.470 . S
O224 C210 1.258 . S
O225 La201 2.503 . S
O225 C210 1.256 . S
O226 La201 2.521 . S
O226 C211 1.261 . S
O227 La201 2.628 . S
O227 C211 1.243 . S
O228 La201 2.554 . S
O228 C218 1.240 . S
O229 La200 2.482 . S
O229 La201 2.757 . S
O229 C218 1.289 . S
O230 La201 2.470 . S
O230 C219 1.258 . S
O231 La200 2.503 . S
O231 C219 1.256 . S
H232 C204 0.930 . S
H233 C205 0.930 . S
H234 C207 0.929 . S
H235 C208 0.929 . S
H236 C213 0.930 . S
H237 C214 0.930 . S
H238 C216 0.929 . S
H239 C217 0.929 . S
La240 C242 2.928 . S
La240 O260 2.521 . S
La240 O261 2.628 . S
La240 O262 2.554 . S
La240 O263 2.757 . S
La240 O264 2.470 . S
La240 O269 2.482 . S
La240 O271 2.503 . S
La241 C251 2.928 . S
La241 O263 2.482 . S
La241 O265 2.503 . S
La241 O266 2.521 . S
La241 O267 2.628 . S
La241 O268 2.554 . S
La241 O269 2.757 . S
La241 O270 2.470 . S
C242 La240 2.928 . S
C242 C243 1.503 . S
C242 O260 1.261 . S
C242 O261 1.243 . S
C243 C242 1.503 . S
C243 C244 1.394 . S
C243 C248 1.373 . S
C244 C243 1.394 . S
C244 C245 1.380 . S
C244 H272 0.930 . S
C245 C244 1.380 . S
C245 C246 1.376 . S
C245 H273 0.930 . S
C246 C245 1.376 . S
C246 C247 1.370 . S
C247 C246 1.370 . S
C247 C248 1.396 . S
C247 H274 0.929 . S
C248 C243 1.373 . S
C248 C247 1.396 . S
C248 H275 0.929 . S
C249 O262 1.240 . S
C249 O263 1.289 . S
C250 O264 1.258 . S
C250 O265 1.256 . S
C251 La241 2.928 . S
C251 C252 1.503 . S
C251 O266 1.261 . S
C251 O267 1.243 . S
C252 C251 1.503 . S
C252 C253 1.394 . S
C252 C257 1.373 . S
C253 C252 1.394 . S
C253 C254 1.380 . S
C253 H276 0.930 . S
C254 C253 1.380 . S
C254 C255 1.376 . S
C254 H277 0.930 . S
C255 C254 1.376 . S
C255 C256 1.370 . S
C256 C255 1.370 . S
C256 C257 1.396 . S
C256 H278 0.929 . S
C257 C252 1.373 . S
C257 C256 1.396 . S
C257 H279 0.929 . S
C258 O268 1.240 . S
C258 O269 1.289 . S
C259 O270 1.258 . S
C259 O271 1.256 . S
O260 La240 2.521 . S
O260 C242 1.261 . S
O261 La240 2.628 . S
O261 C242 1.243 . S
O262 La240 2.554 . S
O262 C249 1.240 . S
O263 La240 2.757 . S
O263 La241 2.482 . S
O263 C249 1.289 . S
O264 La240 2.470 . S
O264 C250 1.258 . S
O265 La241 2.503 . S
O265 C250 1.256 . S
O266 La241 2.521 . S
O266 C251 1.261 . S
O267 La241 2.628 . S
O267 C251 1.243 . S
O268 La241 2.554 . S
O268 C258 1.240 . S
O269 La240 2.482 . S
O269 La241 2.757 . S
O269 C258 1.289 . S
O270 La241 2.470 . S
O270 C259 1.258 . S
O271 La240 2.503 . S
O271 C259 1.256 . S
H272 C244 0.930 . S
H273 C245 0.930 . S
H274 C247 0.929 . S
H275 C248 0.929 . S
H276 C253 0.930 . S
H277 C254 0.930 . S
H278 C256 0.929 . S
H279 C257 0.929 . S
La280 C282 2.928 . S
La280 O300 2.521 . S
La280 O301 2.628 . S
La280 O302 2.554 . S
La280 O303 2.757 . S
La280 O304 2.470 . S
La280 O309 2.482 . S
La280 O311 2.503 . S
La281 C291 2.928 . S
La281 O303 2.482 . S
La281 O305 2.503 . S
La281 O306 2.521 . S
La281 O307 2.628 . S
La281 O308 2.554 . S
La281 O309 2.757 . S
La281 O310 2.470 . S
C282 La280 2.928 . S
C282 C283 1.503 . S
C282 O300 1.261 . S
C282 O301 1.243 . S
C283 C282 1.503 . S
C283 C284 1.394 . S
C283 C288 1.373 . S
C284 C283 1.394 . S
C284 C285 1.380 . S
C284 H312 0.930 . S
C285 C284 1.380 . S
C285 C286 1.376 . S
C285 H313 0.930 . S
C286 C285 1.376 . S
C286 C287 1.370 . S
C287 C286 1.370 . S
C287 C288 1.396 . S
C287 H314 0.929 . S
C288 C283 1.373 . S
C288 C287 1.396 . S
C288 H315 0.929 . S
C289 O302 1.240 . S
C289 O303 1.289 . S
C290 O304 1.258 . S
C290 O305 1.256 . S
C291 La281 2.928 . S
C291 C292 1.503 . S
C291 O306 1.261 . S
C291 O307 1.243 . S
C292 C291 1.503 . S
C292 C293 1.394 . S
C292 C297 1.373 . S
C293 C292 1.394 . S
C293 C294 1.380 . S
C293 H316 0.930 . S
C294 C293 1.380 . S
C294 C295 1.376 . S
C294 H317 0.930 . S
C295 C294 1.376 . S
C295 C296 1.370 . S
C296 C295 1.370 . S
C296 C297 1.396 . S
C296 H318 0.929 . S
C297 C292 1.373 . S
C297 C296 1.396 . S
C297 H319 0.929 . S
C298 O308 1.240 . S
C298 O309 1.289 . S
C299 O310 1.258 . S
C299 O311 1.256 . S
O300 La280 2.521 . S
O300 C282 1.261 . S
O301 La280 2.628 . S
O301 C282 1.243 . S
O302 La280 2.554 . S
O302 C289 1.240 . S
O303 La280 2.757 . S
O303 La281 2.482 . S
O303 C289 1.289 . S
O304 La280 2.470 . S
O304 C290 1.258 . S
O305 La281 2.503 . S
O305 C290 1.256 . S
O306 La281 2.521 . S
O306 C291 1.261 . S
O307 La281 2.628 . S
O307 C291 1.243 . S
O308 La281 2.554 . S
O308 C298 1.240 . S
O309 La280 2.482 . S
O309 La281 2.757 . S
O309 C298 1.289 . S
O310 La281 2.470 . S
O310 C299 1.258 . S
O311 La280 2.503 . S
O311 C299 1.256 . S
H312 C284 0.930 . S
H313 C285 0.930 . S
H314 C287 0.929 . S
H315 C288 0.929 . S
H316 C293 0.930 . S
H317 C294 0.930 . S
H318 C296 0.929 . S
H319 C297 0.929 . S
La320 C322 2.928 . S
La320 O340 2.521 . S
La320 O341 2.628 . S
La320 O342 2.554 . S
La320 O343 2.757 . S
La320 O344 2.470 . S
La320 O349 2.482 . S
La320 O351 2.503 . S
La321 C331 2.928 . S
La321 O343 2.482 . S
La321 O345 2.503 . S
La321 O346 2.521 . S
La321 O347 2.628 . S
La321 O348 2.554 . S
La321 O349 2.757 . S
La321 O350 2.470 . S
C322 La320 2.928 . S
C322 C323 1.503 . S
C322 O340 1.261 . S
C322 O341 1.243 . S
C323 C322 1.503 . S
C323 C324 1.394 . S
C323 C328 1.373 . S
C324 C323 1.394 . S
C324 C325 1.380 . S
C324 H352 0.930 . S
C325 C324 1.380 . S
C325 C326 1.376 . S
C325 H353 0.930 . S
C326 C325 1.376 . S
C326 C327 1.370 . S
C327 C326 1.370 . S
C327 C328 1.396 . S
C327 H354 0.929 . S
C328 C323 1.373 . S
C328 C327 1.396 . S
C328 H355 0.929 . S
C329 O342 1.240 . S
C329 O343 1.289 . S
C330 O344 1.258 . S
C330 O345 1.256 . S
C331 La321 2.928 . S
C331 C332 1.503 . S
C331 O346 1.261 . S
C331 O347 1.243 . S
C332 C331 1.503 . S
C332 C333 1.394 . S
C332 C337 1.373 . S
C333 C332 1.394 . S
C333 C334 1.380 . S
C333 H356 0.930 . S
C334 C333 1.380 . S
C334 C335 1.376 . S
C334 H357 0.930 . S
C335 C334 1.376 . S
C335 C336 1.370 . S
C336 C335 1.370 . S
C336 C337 1.396 . S
C336 H358 0.929 . S
C337 C332 1.373 . S
C337 C336 1.396 . S
C337 H359 0.929 . S
C338 O348 1.240 . S
C338 O349 1.289 . S
C339 O350 1.258 . S
C339 O351 1.256 . S
O340 La320 2.521 . S
O340 C322 1.261 . S
O341 La320 2.628 . S
O341 C322 1.243 . S
O342 La320 2.554 . S
O342 C329 1.240 . S
O343 La320 2.757 . S
O343 La321 2.482 . S
O343 C329 1.289 . S
O344 La320 2.470 . S
O344 C330 1.258 . S
O345 La321 2.503 . S
O345 C330 1.256 . S
O346 La321 2.521 . S
O346 C331 1.261 . S
O347 La321 2.628 . S
O347 C331 1.243 . S
O348 La321 2.554 . S
O348 C338 1.240 . S
O349 La320 2.482 . S
O349 La321 2.757 . S
O349 C338 1.289 . S
O350 La321 2.470 . S
O350 C339 1.258 . S
O351 La320 2.503 . S
O351 C339 1.256 . S
H352 C324 0.930 . S
H353 C325 0.930 . S
H354 C327 0.929 . S
H355 C328 0.929 . S
H356 C333 0.930 . S
H357 C334 0.930 . S
H358 C336 0.929 . S
H359 C337 0.929 . S
La360 C362 2.928 . S
La360 O380 2.521 . S
La360 O381 2.628 . S
La360 O382 2.554 . S
La360 O383 2.757 . S
La360 O384 2.470 . S
La360 O389 2.482 . S
La360 O391 2.503 . S
La361 C371 2.928 . S
La361 O383 2.482 . S
La361 O385 2.503 . S
La361 O386 2.521 . S
La361 O387 2.628 . S
La361 O388 2.554 . S
La361 O389 2.757 . S
La361 O390 2.470 . S
C362 La360 2.928 . S
C362 C363 1.503 . S
C362 O380 1.261 . S
C362 O381 1.243 . S
C363 C362 1.503 . S
C363 C364 1.394 . S
C363 C368 1.373 . S
C364 C363 1.394 . S
C364 C365 1.380 . S
C364 H392 0.930 . S
C365 C364 1.380 . S
C365 C366 1.376 . S
C365 H393 0.930 . S
C366 C365 1.376 . S
C366 C367 1.370 . S
C367 C366 1.370 . S
C367 C368 1.396 . S
C367 H394 0.929 . S
C368 C363 1.373 . S
C368 C367 1.396 . S
C368 H395 0.929 . S
C369 O382 1.240 . S
C369 O383 1.289 . S
C370 O384 1.258 . S
C370 O385 1.256 . S
C371 La361 2.928 . S
C371 C372 1.503 . S
C371 O386 1.261 . S
C371 O387 1.243 . S
C372 C371 1.503 . S
C372 C373 1.394 . S
C372 C377 1.373 . S
C373 C372 1.394 . S
C373 C374 1.380 . S
C373 H396 0.930 . S
C374 C373 1.380 . S
C374 C375 1.376 . S
C374 H397 0.930 . S
C375 C374 1.376 . S
C375 C376 1.370 . S
C376 C375 1.370 . S
C376 C377 1.396 . S
C376 H398 0.929 . S
C377 C372 1.373 . S
C377 C376 1.396 . S
C377 H399 0.929 . S
C378 O388 1.240 . S
C378 O389 1.289 . S
C379 O390 1.258 . S
C379 O391 1.256 . S
O380 La360 2.521 . S
O380 C362 1.261 . S
O381 La360 2.628 . S
O381 C362 1.243 . S
O382 La360 2.554 . S
O382 C369 1.240 . S
O383 La360 2.757 . S
O383 La361 2.482 . S
O383 C369 1.289 . S
O384 La360 2.470 . S
O384 C370 1.258 . S
O385 La361 2.503 . S
O385 C370 1.256 . S
O386 La361 2.521 . S
O386 C371 1.261 . S
O387 La361 2.628 . S
O387 C371 1.243 . S
O388 La361 2.554 . S
O388 C378 1.240 . S
O389 La360 2.482 . S
O389 La361 2.757 . S
O389 C378 1.289 . S
O390 La361 2.470 . S
O390 C379 1.258 . S
O391 La360 2.503 . S
O391 C379 1.256 . S
H392 C364 0.930 . S
H393 C365 0.930 . S
H394 C367 0.929 . S
H395 C368 0.929 . S
H396 C373 0.930 . S
H397 C374 0.930 . S
H398 C376 0.929 . S
H399 C377 0.929 . S
La400 C402 2.928 . S
La400 O420 2.521 . S
La400 O421 2.628 . S
La400 O422 2.554 . S
La400 O423 2.757 . S
La400 O424 2.470 . S
La400 O429 2.482 . S
La400 O431 2.503 . S
La401 C411 2.928 . S
La401 O423 2.482 . S
La401 O425 2.503 . S
La401 O426 2.521 . S
La401 O427 2.628 . S
La401 O428 2.554 . S
La401 O429 2.757 . S
La401 O430 2.470 . S
C402 La400 2.928 . S
C402 C403 1.503 . S
C402 O420 1.261 . S
C402 O421 1.243 . S
C403 C402 1.503 . S
C403 C404 1.394 . S
C403 C408 1.373 . S
C404 C403 1.394 . S
C404 C405 1.380 . S
C404 H432 0.930 . S
C405 C404 1.380 . S
C405 C406 1.376 . S
C405 H433 0.930 . S
C406 C405 1.376 . S
C406 C407 1.370 . S
C407 C406 1.370 . S
C407 C408 1.396 . S
C407 H434 0.929 . S
C408 C403 1.373 . S
C408 C407 1.396 . S
C408 H435 0.929 . S
C409 O422 1.240 . S
C409 O423 1.289 . S
C410 O424 1.258 . S
C410 O425 1.256 . S
C411 La401 2.928 . S
C411 C412 1.503 . S
C411 O426 1.261 . S
C411 O427 1.243 . S
C412 C411 1.503 . S
C412 C413 1.394 . S
C412 C417 1.373 . S
C413 C412 1.394 . S
C413 C414 1.380 . S
C413 H436 0.930 . S
C414 C413 1.380 . S
C414 C415 1.376 . S
C414 H437 0.930 . S
C415 C414 1.376 . S
C415 C416 1.370 . S
C416 C415 1.370 . S
C416 C417 1.396 . S
C416 H438 0.929 . S
C417 C412 1.373 . S
C417 C416 1.396 . S
C417 H439 0.929 . S
C418 O428 1.240 . S
C418 O429 1.289 . S
C419 O430 1.258 . S
C419 O431 1.256 . S
O420 La400 2.521 . S
O420 C402 1.261 . S
O421 La400 2.628 . S
O421 C402 1.243 . S
O422 La400 2.554 . S
O422 C409 1.240 . S
O423 La400 2.757 . S
O423 La401 2.482 . S
O423 C409 1.289 . S
O424 La400 2.470 . S
O424 C410 1.258 . S
O425 La401 2.503 . S
O425 C410 1.256 . S
O426 La401 2.521 . S
O426 C411 1.261 . S
O427 La401 2.628 . S
O427 C411 1.243 . S
O428 La401 2.554 . S
O428 C418 1.240 . S
O429 La400 2.482 . S
O429 La401 2.757 . S
O429 C418 1.289 . S
O430 La401 2.470 . S
O430 C419 1.258 . S
O431 La400 2.503 . S
O431 C419 1.256 . S
H432 C404 0.930 . S
H433 C405 0.930 . S
H434 C407 0.929 . S
H435 C408 0.929 . S
H436 C413 0.930 . S
H437 C414 0.930 . S
H438 C416 0.929 . S
H439 C417 0.929 . S
La440 C442 2.928 . S
La440 O460 2.521 . S
La440 O461 2.628 . S
La440 O462 2.554 . S
La440 O463 2.757 . S
La440 O464 2.470 . S
La440 O469 2.482 . S
La440 O471 2.503 . S
La441 C451 2.928 . S
La441 O463 2.482 . S
La441 O465 2.503 . S
La441 O466 2.521 . S
La441 O467 2.628 . S
La441 O468 2.554 . S
La441 O469 2.757 . S
La441 O470 2.470 . S
C442 La440 2.928 . S
C442 C443 1.503 . S
C442 O460 1.261 . S
C442 O461 1.243 . S
C443 C442 1.503 . S
C443 C444 1.394 . S
C443 C448 1.373 . S
C444 C443 1.394 . S
C444 C445 1.380 . S
C444 H472 0.930 . S
C445 C444 1.380 . S
C445 C446 1.376 . S
C445 H473 0.930 . S
C446 C445 1.376 . S
C446 C447 1.370 . S
C447 C446 1.370 . S
C447 C448 1.396 . S
C447 H474 0.929 . S
C448 C443 1.373 . S
C448 C447 1.396 . S
C448 H475 0.929 . S
C449 O462 1.240 . S
C449 O463 1.289 . S
C450 O464 1.258 . S
C450 O465 1.256 . S
C451 La441 2.928 . S
C451 C452 1.503 . S
C451 O466 1.261 . S
C451 O467 1.243 . S
C452 C451 1.503 . S
C452 C453 1.394 . S
C452 C457 1.373 . S
C453 C452 1.394 . S
C453 C454 1.380 . S
C453 H476 0.930 . S
C454 C453 1.380 . S
C454 C455 1.376 . S
C454 H477 0.930 . S
C455 C454 1.376 . S
C455 C456 1.370 . S
C456 C455 1.370 . S
C456 C457 1.396 . S
C456 H478 0.929 . S
C457 C452 1.373 . S
C457 C456 1.396 . S
C457 H479 0.929 . S
C458 O468 1.240 . S
C458 O469 1.289 . S
C459 O470 1.258 . S
C459 O471 1.256 . S
O460 La440 2.521 . S
O460 C442 1.261 . S
O461 La440 2.628 . S
O461 C442 1.243 . S
O462 La440 2.554 . S
O462 C449 1.240 . S
O463 La440 2.757 . S
O463 La441 2.482 . S
O463 C449 1.289 . S
O464 La440 2.470 . S
O464 C450 1.258 . S
O465 La441 2.503 . S
O465 C450 1.256 . S
O466 La441 2.521 . S
O466 C451 1.261 . S
O467 La441 2.628 . S
O467 C451 1.243 . S
O468 La441 2.554 . S
O468 C458 1.240 . S
O469 La440 2.482 . S
O469 La441 2.757 . S
O469 C458 1.289 . S
O470 La441 2.470 . S
O470 C459 1.258 . S
O471 La440 2.503 . S
O471 C459 1.256 . S
H472 C444 0.930 . S
H473 C445 0.930 . S
H474 C447 0.929 . S
H475 C448 0.929 . S
H476 C453 0.930 . S
H477 C454 0.930 . S
H478 C456 0.929 . S
H479 C457 0.929 . S
La480 C482 2.928 . S
La480 O500 2.521 . S
La480 O501 2.628 . S
La480 O502 2.554 . S
La480 O503 2.757 . S
La480 O504 2.470 . S
La480 O509 2.482 . S
La480 O511 2.503 . S
La481 C491 2.928 . S
La481 O503 2.482 . S
La481 O505 2.503 . S
La481 O506 2.521 . S
La481 O507 2.628 . S
La481 O508 2.554 . S
La481 O509 2.757 . S
La481 O510 2.470 . S
C482 La480 2.928 . S
C482 C483 1.503 . S
C482 O500 1.261 . S
C482 O501 1.243 . S
C483 C482 1.503 . S
C483 C484 1.394 . S
C483 C488 1.373 . S
C484 C483 1.394 . S
C484 C485 1.380 . S
C484 H512 0.930 . S
C485 C484 1.380 . S
C485 C486 1.376 . S
C485 H513 0.930 . S
C486 C485 1.376 . S
C486 C487 1.370 . S
C487 C486 1.370 . S
C487 C488 1.396 . S
C487 H514 0.929 . S
C488 C483 1.373 . S
C488 C487 1.396 . S
C488 H515 0.929 . S
C489 O502 1.240 . S
C489 O503 1.289 . S
C490 O504 1.258 . S
C490 O505 1.256 . S
C491 La481 2.928 . S
C491 C492 1.503 . S
C491 O506 1.261 . S
C491 O507 1.243 . S
C492 C491 1.503 . S
C492 C493 1.394 . S
C492 C497 1.373 . S
C493 C492 1.394 . S
C493 C494 1.380 . S
C493 H516 0.930 . S
C494 C493 1.380 . S
C494 C495 1.376 . S
C494 H517 0.930 . S
C495 C494 1.376 . S
C495 C496 1.370 . S
C496 C495 1.370 . S
C496 C497 1.396 . S
C496 H518 0.929 . S
C497 C492 1.373 . S
C497 C496 1.396 . S
C497 H519 0.929 . S
C498 O508 1.240 . S
C498 O509 1.289 . S
C499 O510 1.258 . S
C499 O511 1.256 . S
O500 La480 2.521 . S
O500 C482 1.261 . S
O501 La480 2.628 . S
O501 C482 1.243 . S
O502 La480 2.554 . S
O502 C489 1.240 . S
O503 La480 2.757 . S
O503 La481 2.482 . S
O503 C489 1.289 . S
O504 La480 2.470 . S
O504 C490 1.258 . S
O505 La481 2.503 . S
O505 C490 1.256 . S
O506 La481 2.521 . S
O506 C491 1.261 . S
O507 La481 2.628 . S
O507 C491 1.243 . S
O508 La481 2.554 . S
O508 C498 1.240 . S
O509 La480 2.482 . S
O509 La481 2.757 . S
O509 C498 1.289 . S
O510 La481 2.470 . S
O510 C499 1.258 . S
O511 La480 2.503 . S
O511 C499 1.256 . S
H512 C484 0.930 . S
H513 C485 0.930 . S
H514 C487 0.929 . S
H515 C488 0.929 . S
H516 C493 0.930 . S
H517 C494 0.930 . S
H518 C496 0.929 . S
H519 C497 0.929 . S
La520 C522 2.928 . S
La520 O540 2.521 . S
La520 O541 2.628 . S
La520 O542 2.554 . S
La520 O543 2.757 . S
La520 O544 2.470 . S
La520 O549 2.482 . S
La520 O551 2.503 . S
La521 C531 2.928 . S
La521 O543 2.482 . S
La521 O545 2.503 . S
La521 O546 2.521 . S
La521 O547 2.628 . S
La521 O548 2.554 . S
La521 O549 2.757 . S
La521 O550 2.470 . S
C522 La520 2.928 . S
C522 C523 1.503 . S
C522 O540 1.261 . S
C522 O541 1.243 . S
C523 C522 1.503 . S
C523 C524 1.394 . S
C523 C528 1.373 . S
C524 C523 1.394 . S
C524 C525 1.380 . S
C524 H552 0.930 . S
C525 C524 1.380 . S
C525 C526 1.376 . S
C525 H553 0.930 . S
C526 C525 1.376 . S
C526 C527 1.370 . S
C527 C526 1.370 . S
C527 C528 1.396 . S
C527 H554 0.929 . S
C528 C523 1.373 . S
C528 C527 1.396 . S
C528 H555 0.929 . S
C529 O542 1.240 . S
C529 O543 1.289 . S
C530 O544 1.258 . S
C530 O545 1.256 . S
C531 La521 2.928 . S
C531 C532 1.503 . S
C531 O546 1.261 . S
C531 O547 1.243 . S
C532 C531 1.503 . S
C532 C533 1.394 . S
C532 C537 1.373 . S
C533 C532 1.394 . S
C533 C534 1.380 . S
C533 H556 0.930 . S
C534 C533 1.380 . S
C534 C535 1.376 . S
C534 H557 0.930 . S
C535 C534 1.376 . S
C535 C536 1.370 . S
C536 C535 1.370 . S
C536 C537 1.396 . S
C536 H558 0.929 . S
C537 C532 1.373 . S
C537 C536 1.396 . S
C537 H559 0.929 . S
C538 O548 1.240 . S
C538 O549 1.289 . S
C539 O550 1.258 . S
C539 O551 1.256 . S
O540 La520 2.521 . S
O540 C522 1.261 . S
O541 La520 2.628 . S
O541 C522 1.243 . S
O542 La520 2.554 . S
O542 C529 1.240 . S
O543 La520 2.757 . S
O543 La521 2.482 . S
O543 C529 1.289 . S
O544 La520 2.470 . S
O544 C530 1.258 . S
O545 La521 2.503 . S
O545 C530 1.256 . S
O546 La521 2.521 . S
O546 C531 1.261 . S
O547 La521 2.628 . S
O547 C531 1.243 . S
O548 La521 2.554 . S
O548 C538 1.240 . S
O549 La520 2.482 . S
O549 La521 2.757 . S
O549 C538 1.289 . S
O550 La521 2.470 . S
O550 C539 1.258 . S
O551 La520 2.503 . S
O551 C539 1.256 . S
H552 C524 0.930 . S
H553 C525 0.930 . S
H554 C527 0.929 . S
H555 C528 0.929 . S
H556 C533 0.930 . S
H557 C534 0.930 . S
H558 C536 0.929 . S
H559 C537 0.929 . S
La560 C562 2.928 . S
La560 O580 2.521 . S
La560 O581 2.628 . S
La560 O582 2.554 . S
La560 O583 2.757 . S
La560 O584 2.470 . S
La560 O589 2.482 . S
La560 O591 2.503 . S
La561 C571 2.928 . S
La561 O583 2.482 . S
La561 O585 2.503 . S
La561 O586 2.521 . S
La561 O587 2.628 . S
La561 O588 2.554 . S
La561 O589 2.757 . S
La561 O590 2.470 . S
C562 La560 2.928 . S
C562 C563 1.503 . S
C562 O580 1.261 . S
C562 O581 1.243 . S
C563 C562 1.503 . S
C563 C564 1.394 . S
C563 C568 1.373 . S
C564 C563 1.394 . S
C564 C565 1.380 . S
C564 H592 0.930 . S
C565 C564 1.380 . S
C565 C566 1.376 . S
C565 H593 0.930 . S
C566 C565 1.376 . S
C566 C567 1.370 . S
C567 C566 1.370 . S
C567 C568 1.396 . S
C567 H594 0.929 . S
C568 C563 1.373 . S
C568 C567 1.396 . S
C568 H595 0.929 . S
C569 O582 1.240 . S
C569 O583 1.289 . S
C570 O584 1.258 . S
C570 O585 1.256 . S
C571 La561 2.928 . S
C571 C572 1.503 . S
C571 O586 1.261 . S
C571 O587 1.243 . S
C572 C571 1.503 . S
C572 C573 1.394 . S
C572 C577 1.373 . S
C573 C572 1.394 . S
C573 C574 1.380 . S
C573 H596 0.930 . S
C574 C573 1.380 . S
C574 C575 1.376 . S
C574 H597 0.930 . S
C575 C574 1.376 . S
C575 C576 1.370 . S
C576 C575 1.370 . S
C576 C577 1.396 . S
C576 H598 0.929 . S
C577 C572 1.373 . S
C577 C576 1.396 . S
C577 H599 0.929 . S
C578 O588 1.240 . S
C578 O589 1.289 . S
C579 O590 1.258 . S
C579 O591 1.256 . S
O580 La560 2.521 . S
O580 C562 1.261 . S
O581 La560 2.628 . S
O581 C562 1.243 . S
O582 La560 2.554 . S
O582 C569 1.240 . S
O583 La560 2.757 . S
O583 La561 2.482 . S
O583 C569 1.289 . S
O584 La560 2.470 . S
O584 C570 1.258 . S
O585 La561 2.503 . S
O585 C570 1.256 . S
O586 La561 2.521 . S
O586 C571 1.261 . S
O587 La561 2.628 . S
O587 C571 1.243 . S
O588 La561 2.554 . S
O588 C578 1.240 . S
O589 La560 2.482 . S
O589 La561 2.757 . S
O589 C578 1.289 . S
O590 La561 2.470 . S
O590 C579 1.258 . S
O591 La560 2.503 . S
O591 C579 1.256 . S
H592 C564 0.930 . S
H593 C565 0.930 . S
H594 C567 0.929 . S
H595 C568 0.929 . S
H596 C573 0.930 . S
H597 C574 0.930 . S
H598 C576 0.929 . S
H599 C577 0.929 . S
La600 C602 2.928 . S
La600 O620 2.521 . S
La600 O621 2.628 . S
La600 O622 2.554 . S
La600 O623 2.757 . S
La600 O624 2.470 . S
La600 O629 2.482 . S
La600 O631 2.503 . S
La601 C611 2.928 . S
La601 O623 2.482 . S
La601 O625 2.503 . S
La601 O626 2.521 . S
La601 O627 2.628 . S
La601 O628 2.554 . S
La601 O629 2.757 . S
La601 O630 2.470 . S
C602 La600 2.928 . S
C602 C603 1.503 . S
C602 O620 1.261 . S
C602 O621 1.243 . S
C603 C602 1.503 . S
C603 C604 1.394 . S
C603 C608 1.373 1_655 S
C604 C603 1.394 . S
C604 C605 1.380 . S
C604 H632 0.930 . S
C605 C604 1.380 . S
C605 C606 1.376 1_655 S
C605 H633 0.930 . S
C606 C605 1.376 1_455 S
C606 C607 1.370 . S
C607 C606 1.370 . S
C607 C608 1.396 . S
C607 H634 0.929 . S
C608 C603 1.373 1_455 S
C608 C607 1.396 . S
C608 H635 0.929 . S
C609 O622 1.240 . S
C609 O623 1.289 . S
C610 O624 1.258 . S
C610 O625 1.256 . S
C611 La601 2.928 . S
C611 C612 1.503 . S
C611 O626 1.261 . S
C611 O627 1.243 . S
C612 C611 1.503 . S
C612 C613 1.394 . S
C612 C617 1.373 . S
C613 C612 1.394 . S
C613 C614 1.380 . S
C613 H636 0.930 . S
C614 C613 1.380 . S
C614 C615 1.376 . S
C614 H637 0.930 . S
C615 C614 1.376 . S
C615 C616 1.370 . S
C616 C615 1.370 . S
C616 C617 1.396 . S
C616 H638 0.929 . S
C617 C612 1.373 . S
C617 C616 1.396 . S
C617 H639 0.929 . S
C618 O628 1.240 . S
C618 O629 1.289 . S
C619 O630 1.258 . S
C619 O631 1.256 . S
O620 La600 2.521 . S
O620 C602 1.261 . S
O621 La600 2.628 . S
O621 C602 1.243 . S
O622 La600 2.554 . S
O622 C609 1.240 . S
O623 La600 2.757 . S
O623 La601 2.482 . S
O623 C609 1.289 . S
O624 La600 2.470 . S
O624 C610 1.258 . S
O625 La601 2.503 . S
O625 C610 1.256 . S
O626 La601 2.521 . S
O626 C611 1.261 . S
O627 La601 2.628 . S
O627 C611 1.243 . S
O628 La601 2.554 . S
O628 C618 1.240 . S
O629 La600 2.482 . S
O629 La601 2.757 . S
O629 C618 1.289 . S
O630 La601 2.470 . S
O630 C619 1.258 . S
O631 La600 2.503 . S
O631 C619 1.256 . S
H632 C604 0.930 . S
H633 C605 0.930 . S
H634 C607 0.929 . S
H635 C608 0.929 . S
H636 C613 0.930 . S
H637 C614 0.930 . S
H638 C616 0.929 . S
H639 C617 0.929 . S
La640 C642 2.928 . S
La640 O660 2.521 . S
La640 O661 2.628 . S
La640 O662 2.554 . S
La640 O663 2.757 . S
La640 O664 2.470 . S
La640 O669 2.482 . S
La640 O671 2.503 . S
La641 C651 2.928 . S
La641 O663 2.482 . S
La641 O665 2.503 . S
La641 O666 2.521 . S
La641 O667 2.628 . S
La641 O668 2.554 . S
La641 O669 2.757 . S
La641 O670 2.470 . S
C642 La640 2.928 . S
C642 C643 1.503 . S
C642 O660 1.261 . S
C642 O661 1.243 . S
C643 C642 1.503 . S
C643 C644 1.394 . S
C643 C648 1.373 . S
C644 C643 1.394 . S
C644 C645 1.380 . S
C644 H672 0.930 . S
C645 C644 1.380 . S
C645 C646 1.376 . S
C645 H673 0.930 . S
C646 C645 1.376 . S
C646 C647 1.370 . S
C647 C646 1.370 . S
C647 C648 1.396 . S
C647 H674 0.929 . S
C648 C643 1.373 . S
C648 C647 1.396 . S
C648 H675 0.929 . S
C649 O662 1.240 . S
C649 O663 1.289 . S
C650 O664 1.258 . S
C650 O665 1.256 . S
C651 La641 2.928 . S
C651 C652 1.503 . S
C651 O666 1.261 . S
C651 O667 1.243 . S
C652 C651 1.503 . S
C652 C653 1.394 . S
C652 C657 1.373 . S
C653 C652 1.394 . S
C653 C654 1.380 . S
C653 H676 0.930 . S
C654 C653 1.380 . S
C654 C655 1.376 . S
C654 H677 0.930 . S
C655 C654 1.376 . S
C655 C656 1.370 . S
C656 C655 1.370 . S
C656 C657 1.396 . S
C656 H678 0.929 . S
C657 C652 1.373 . S
C657 C656 1.396 . S
C657 H679 0.929 . S
C658 O668 1.240 . S
C658 O669 1.289 . S
C659 O670 1.258 . S
C659 O671 1.256 . S
O660 La640 2.521 . S
O660 C642 1.261 . S
O661 La640 2.628 . S
O661 C642 1.243 . S
O662 La640 2.554 . S
O662 C649 1.240 . S
O663 La640 2.757 . S
O663 La641 2.482 . S
O663 C649 1.289 . S
O664 La640 2.470 . S
O664 C650 1.258 . S
O665 La641 2.503 . S
O665 C650 1.256 . S
O666 La641 2.521 . S
O666 C651 1.261 . S
O667 La641 2.628 . S
O667 C651 1.243 . S
O668 La641 2.554 . S
O668 C658 1.240 . S
O669 La640 2.482 . S
O669 La641 2.757 . S
O669 C658 1.289 . S
O670 La641 2.470 . S
O670 C659 1.258 . S
O671 La640 2.503 . S
O671 C659 1.256 . S
H672 C644 0.930 . S
H673 C645 0.930 . S
H674 C647 0.929 . S
H675 C648 0.929 . S
H676 C653 0.930 . S
H677 C654 0.930 . S
H678 C656 0.929 . S
H679 C657 0.929 . S
La680 C682 2.928 . S
La680 O700 2.521 . S
La680 O701 2.628 . S
La680 O702 2.554 . S
La680 O703 2.757 . S
La680 O704 2.470 . S
La680 O709 2.482 . S
La680 O711 2.503 . S
La681 C691 2.928 . S
La681 O703 2.482 . S
La681 O705 2.503 . S
La681 O706 2.521 . S
La681 O707 2.628 . S
La681 O708 2.554 . S
La681 O709 2.757 . S
La681 O710 2.470 . S
C682 La680 2.928 . S
C682 C683 1.503 . S
C682 O700 1.261 . S
C682 O701 1.243 . S
C683 C682 1.503 . S
C683 C684 1.394 . S
C683 C688 1.373 1_545 S
C684 C683 1.394 . S
C684 C685 1.380 . S
C684 H712 0.930 . S
C685 C684 1.380 . S
C685 C686 1.376 1_545 S
C685 H713 0.930 . S
C686 C685 1.376 1_565 S
C686 C687 1.370 . S
C687 C686 1.370 . S
C687 C688 1.396 . S
C687 H714 0.929 . S
C688 C683 1.373 1_565 S
C688 C687 1.396 . S
C688 H715 0.929 . S
C689 O702 1.240 . S
C689 O703 1.289 . S
C690 O704 1.258 . S
C690 O705 1.256 . S
C691 La681 2.928 . S
C691 C692 1.503 . S
C691 O706 1.261 . S
C691 O707 1.243 . S
C692 C691 1.503 . S
C692 C693 1.394 . S
C692 C697 1.373 . S
C693 C692 1.394 . S
C693 C694 1.380 . S
C693 H716 0.930 . S
C694 C693 1.380 . S
C694 C695 1.376 . S
C694 H717 0.930 . S
C695 C694 1.376 . S
C695 C696 1.370 . S
C696 C695 1.370 . S
C696 C697 1.396 . S
C696 H718 0.929 . S
C697 C692 1.373 . S
C697 C696 1.396 . S
C697 H719 0.929 . S
C698 O708 1.240 . S
C698 O709 1.289 . S
C699 O710 1.258 . S
C699 O711 1.256 . S
O700 La680 2.521 . S
O700 C682 1.261 . S
O701 La680 2.628 . S
O701 C682 1.243 . S
O702 La680 2.554 . S
O702 C689 1.240 . S
O703 La680 2.757 . S
O703 La681 2.482 . S
O703 C689 1.289 . S
O704 La680 2.470 . S
O704 C690 1.258 . S
O705 La681 2.503 . S
O705 C690 1.256 . S
O706 La681 2.521 . S
O706 C691 1.261 . S
O707 La681 2.628 . S
O707 C691 1.243 . S
O708 La681 2.554 . S
O708 C698 1.240 . S
O709 La680 2.482 . S
O709 La681 2.757 . S
O709 C698 1.289 . S
O710 La681 2.470 . S
O710 C699 1.258 . S
O711 La680 2.503 . S
O711 C699 1.256 . S
H712 C684 0.930 . S
H713 C685 0.930 . S
H714 C687 0.929 . S
H715 C688 0.929 . S
H716 C693 0.930 . S
H717 C694 0.930 . S
H718 C696 0.929 . S
H719 C697 0.929 . S
La720 C722 2.928 . S
La720 O740 2.521 . S
La720 O741 2.628 . S
La720 O742 2.554 . S
La720 O743 2.757 . S
La720 O744 2.470 . S
La720 O749 2.482 . S
La720 O751 2.503 . S
La721 C731 2.928 . S
La721 O743 2.482 . S
La721 O745 2.503 . S
La721 O746 2.521 . S
La721 O747 2.628 . S
La721 O748 2.554 . S
La721 O749 2.757 . S
La721 O750 2.470 . S
C722 La720 2.928 . S
C722 C723 1.503 . S
C722 O740 1.261 . S
C722 O741 1.243 . S
C723 C722 1.503 . S
C723 C724 1.394 . S
C723 C728 1.373 . S
C724 C723 1.394 . S
C724 C725 1.380 . S
C724 H752 0.930 . S
C725 C724 1.380 . S
C725 C726 1.376 . S
C725 H753 0.930 . S
C726 C725 1.376 . S
C726 C727 1.370 . S
C727 C726 1.370 . S
C727 C728 1.396 . S
C727 H754 0.929 . S
C728 C723 1.373 . S
C728 C727 1.396 . S
C728 H755 0.929 . S
C729 O742 1.240 . S
C729 O743 1.289 . S
C730 O744 1.258 . S
C730 O745 1.256 . S
C731 La721 2.928 . S
C731 C732 1.503 . S
C731 O746 1.261 . S
C731 O747 1.243 . S
C732 C731 1.503 . S
C732 C733 1.394 . S
C732 C737 1.373 1_545 S
C733 C732 1.394 . S
C733 C734 1.380 . S
C733 H756 0.930 . S
C734 C733 1.380 . S
C734 C735 1.354 1_545 S
C734 H757 0.930 . S
C735 C734 1.354 1_565 S
C735 C736 1.389 . S
C736 C735 1.389 . S
C736 C737 1.396 . S
C736 H758 0.929 . S
C737 C732 1.373 1_565 S
C737 C736 1.396 . S
C737 H759 0.929 . S
C738 O748 1.240 . S
C738 O749 1.289 . S
C739 O750 1.258 . S
C739 O751 1.256 . S
O740 La720 2.521 . S
O740 C722 1.261 . S
O741 La720 2.628 . S
O741 C722 1.243 . S
O742 La720 2.554 . S
O742 C729 1.240 . S
O743 La720 2.757 . S
O743 La721 2.482 . S
O743 C729 1.289 . S
O744 La720 2.470 . S
O744 C730 1.258 . S
O745 La721 2.503 . S
O745 C730 1.256 . S
O746 La721 2.521 . S
O746 C731 1.261 . S
O747 La721 2.628 . S
O747 C731 1.243 . S
O748 La721 2.554 . S
O748 C738 1.240 . S
O749 La720 2.482 . S
O749 La721 2.757 . S
O749 C738 1.289 . S
O750 La721 2.470 . S
O750 C739 1.258 . S
O751 La720 2.503 . S
O751 C739 1.256 . S
H752 C724 0.930 . S
H753 C725 0.930 . S
H754 C727 0.929 . S
H755 C728 0.929 . S
H756 C733 0.930 . S
H757 C734 0.930 . S
H758 C736 0.929 . S
H759 C737 0.929 . S
La760 C762 2.928 . S
La760 O780 2.521 . S
La760 O781 2.628 . S
La760 O782 2.554 . S
La760 O783 2.757 . S
La760 O784 2.470 . S
La760 O789 2.482 . S
La760 O791 2.503 . S
La761 C771 2.928 . S
La761 O783 2.482 . S
La761 O785 2.503 . S
La761 O786 2.521 . S
La761 O787 2.628 . S
La761 O788 2.554 . S
La761 O789 2.757 . S
La761 O790 2.470 . S
C762 La760 2.928 . S
C762 C763 1.503 . S
C762 O780 1.261 . S
C762 O781 1.243 . S
C763 C762 1.503 . S
C763 C764 1.394 . S
C763 C768 1.373 . S
C764 C763 1.394 . S
C764 C765 1.380 . S
C764 H792 0.930 . S
C765 C764 1.380 . S
C765 C766 1.376 . S
C765 H793 0.930 . S
C766 C765 1.376 . S
C766 C767 1.370 . S
C767 C766 1.370 . S
C767 C768 1.396 . S
C767 H794 0.929 . S
C768 C763 1.373 . S
C768 C767 1.396 . S
C768 H795 0.929 . S
C769 O782 1.240 . S
C769 O783 1.289 . S
C770 O784 1.258 . S
C770 O785 1.256 . S
C771 La761 2.928 . S
C771 C772 1.503 . S
C771 O786 1.261 . S
C771 O787 1.243 . S
C772 C771 1.503 . S
C772 C773 1.394 . S
C772 C777 1.373 1_655 S
C773 C772 1.394 . S
C773 C774 1.380 . S
C773 H796 0.930 . S
C774 C773 1.380 . S
C774 C775 1.364 1_655 S
C774 H797 0.930 . S
C775 C774 1.364 1_455 S
C775 C776 1.374 . S
C776 C775 1.374 . S
C776 C777 1.396 . S
C776 H798 0.929 . S
C777 C772 1.373 1_455 S
C777 C776 1.396 . S
C777 H799 0.929 . S
C778 O788 1.240 . S
C778 O789 1.289 . S
C779 O790 1.258 . S
C779 O791 1.256 . S
O780 La760 2.521 . S
O780 C762 1.261 . S
O781 La760 2.628 . S
O781 C762 1.243 . S
O782 La760 2.554 . S
O782 C769 1.240 . S
O783 La760 2.757 . S
O783 La761 2.482 . S
O783 C769 1.289 . S
O784 La760 2.470 . S
O784 C770 1.258 . S
O785 La761 2.503 . S
O785 C770 1.256 . S
O786 La761 2.521 . S
O786 C771 1.261 . S
O787 La761 2.628 . S
O787 C771 1.243 . S
O788 La761 2.554 . S
O788 C778 1.240 . S
O789 La760 2.482 . S
O789 La761 2.757 . S
O789 C778 1.289 . S
O790 La761 2.470 . S
O790 C779 1.258 . S
O791 La760 2.503 . S
O791 C779 1.256 . S
H792 C764 0.930 . S
H793 C765 0.930 . S
H794 C767 0.929 . S
H795 C768 0.929 . S
H796 C773 0.930 . S
H797 C774 0.930 . S
H798 C776 0.929 . S
H799 C777 0.929 . S
La800 C802 2.928 . S
La800 O820 2.521 . S
La800 O821 2.628 . S
La800 O822 2.554 . S
La800 O823 2.757 . S
La800 O824 2.470 . S
La800 O829 2.482 . S
La800 O831 2.503 . S
La801 C811 2.928 . S
La801 O823 2.482 . S
La801 O825 2.503 . S
La801 O826 2.521 . S
La801 O827 2.628 . S
La801 O828 2.554 . S
La801 O829 2.757 . S
La801 O830 2.470 . S
C802 La800 2.928 . S
C802 C803 1.503 . S
C802 O820 1.261 . S
C802 O821 1.243 . S
C803 C802 1.503 . S
C803 C804 1.394 . S
C803 C808 1.373 . S
C804 C803 1.394 . S
C804 C805 1.380 . S
C804 H832 0.930 . S
C805 C804 1.380 . S
C805 C806 1.376 . S
C805 H833 0.930 . S
C806 C805 1.376 . S
C806 C807 1.370 . S
C807 C806 1.370 . S
C807 C808 1.396 . S
C807 H834 0.929 . S
C808 C803 1.373 . S
C808 C807 1.396 . S
C808 H835 0.929 . S
C809 O822 1.240 . S
C809 O823 1.289 . S
C810 O824 1.258 . S
C810 O825 1.256 . S
C811 La801 2.928 . S
C811 C812 1.503 . S
C811 O826 1.261 . S
C811 O827 1.243 . S
C812 C811 1.503 . S
C812 C813 1.394 . S
C812 C817 1.373 . S
C813 C812 1.394 . S
C813 C814 1.380 . S
C813 H836 0.930 . S
C814 C813 1.380 . S
C814 C815 1.376 . S
C814 H837 0.930 . S
C815 C814 1.376 . S
C815 C816 1.370 . S
C816 C815 1.370 . S
C816 C817 1.396 . S
C816 H838 0.929 . S
C817 C812 1.373 . S
C817 C816 1.396 . S
C817 H839 0.929 . S
C818 O828 1.240 . S
C818 O829 1.289 . S
C819 O830 1.258 . S
C819 O831 1.256 . S
O820 La800 2.521 . S
O820 C802 1.261 . S
O821 La800 2.628 . S
O821 C802 1.243 . S
O822 La800 2.554 . S
O822 C809 1.240 . S
O823 La800 2.757 . S
O823 La801 2.482 . S
O823 C809 1.289 . S
O824 La800 2.470 . S
O824 C810 1.258 . S
O825 La801 2.503 . S
O825 C810 1.256 . S
O826 La801 2.521 . S
O826 C811 1.261 . S
O827 La801 2.628 . S
O827 C811 1.243 . S
O828 La801 2.554 . S
O828 C818 1.240 . S
O829 La800 2.482 . S
O829 La801 2.757 . S
O829 C818 1.289 . S
O830 La801 2.470 . S
O830 C819 1.258 . S
O831 La800 2.503 . S
O831 C819 1.256 . S
H832 C804 0.930 . S
H833 C805 0.930 . S
H834 C807 0.929 . S
H835 C808 0.929 . S
H836 C813 0.930 . S
H837 C814 0.930 . S
H838 C816 0.929 . S
H839 C817 0.929 . S
La840 C842 2.928 . S
La840 O860 2.521 . S
La840 O861 2.628 . S
La840 O862 2.554 . S
La840 O863 2.757 1_554 S
La840 O864 2.470 . S
La840 O869 2.482 . S
La840 O871 2.503 . S
La841 C851 2.928 . S
La841 O863 2.482 . S
La841 O865 2.503 . S
La841 O866 2.521 . S
La841 O867 2.628 . S
La841 O868 2.554 . S
La841 O869 2.757 1_556 S
La841 O870 2.470 . S
C842 La840 2.928 . S
C842 C843 1.503 . S
C842 O860 1.261 . S
C842 O861 1.243 . S
C843 C842 1.503 . S
C843 C844 1.394 . S
C843 C848 1.373 . S
C844 C843 1.394 . S
C844 C845 1.380 . S
C844 H872 0.930 . S
C845 C844 1.380 . S
C845 C846 1.376 . S
C845 H873 0.930 . S
C846 C845 1.376 . S
C846 C847 1.370 . S
C847 C846 1.370 . S
C847 C848 1.396 . S
C847 H874 0.929 . S
C848 C843 1.373 . S
C848 C847 1.396 . S
C848 H875 0.929 . S
C849 O862 1.240 . S
C849 O863 1.289 1_554 S
C850 O864 1.258 . S
C850 O865 1.256 1_554 S
C851 La841 2.928 . S
C851 C852 1.503 . S
C851 O866 1.261 . S
C851 O867 1.243 . S
C852 C851 1.503 . S
C852 C853 1.394 . S
C852 C857 1.373 . S
C853 C852 1.394 . S
C853 C854 1.380 . S
C853 H876 0.930 . S
C854 C853 1.380 . S
C854 C855 1.376 . S
C854 H877 0.930 . S
C855 C854 1.376 . S
C855 C856 1.370 . S
C856 C855 1.370 . S
C856 C857 1.396 . S
C856 H878 0.929 . S
C857 C852 1.373 . S
C857 C856 1.396 . S
C857 H879 0.929 . S
C858 O868 1.240 . S
C858 O869 1.289 1_556 S
C859 O870 1.258 . S
C859 O871 1.256 1_556 S
O860 La840 2.521 . S
O860 C842 1.261 . S
O861 La840 2.628 . S
O861 C842 1.243 . S
O862 La840 2.554 . S
O862 C849 1.240 . S
O863 La840 2.757 1_556 S
O863 La841 2.482 . S
O863 C849 1.289 1_556 S
O864 La840 2.470 . S
O864 C850 1.258 . S
O865 La841 2.503 . S
O865 C850 1.256 1_556 S
O866 La841 2.521 . S
O866 C851 1.261 . S
O867 La841 2.628 . S
O867 C851 1.243 . S
O868 La841 2.554 . S
O868 C858 1.240 . S
O869 La840 2.482 . S
O869 La841 2.757 1_554 S
O869 C858 1.289 1_554 S
O870 La841 2.470 . S
O870 C859 1.258 . S
O871 La840 2.503 . S
O871 C859 1.256 1_554 S
H872 C844 0.930 . S
H873 C845 0.930 . S
H874 C847 0.929 . S
H875 C848 0.929 . S
H876 C853 0.930 . S
H877 C854 0.930 . S
H878 C856 0.929 . S
H879 C857 0.929 . S
La880 C882 2.928 . S
La880 O900 2.521 . S
La880 O901 2.628 . S
La880 O902 2.554 . S
La880 O903 2.757 1_554 S
La880 O904 2.470 . S
La880 O909 2.482 . S
La880 O911 2.503 . S
La881 C891 2.928 . S
La881 O903 2.482 . S
La881 O905 2.503 . S
La881 O906 2.521 . S
La881 O907 2.628 . S
La881 O908 2.554 . S
La881 O909 2.757 1_556 S
La881 O910 2.470 . S
C882 La880 2.928 . S
C882 C883 1.503 . S
C882 O900 1.261 . S
C882 O901 1.243 . S
C883 C882 1.503 . S
C883 C884 1.394 . S
C883 C888 1.373 . S
C884 C883 1.394 . S
C884 C885 1.380 . S
C884 H912 0.930 . S
C885 C884 1.380 . S
C885 C886 1.376 . S
C885 H913 0.930 . S
C886 C885 1.376 . S
C886 C887 1.370 . S
C887 C886 1.370 . S
C887 C888 1.396 . S
C887 H914 0.929 . S
C888 C883 1.373 . S
C888 C887 1.396 . S
C888 H915 0.929 . S
C889 O902 1.240 . S
C889 O903 1.289 1_554 S
C890 O904 1.258 . S
C890 O905 1.256 1_554 S
C891 La881 2.928 . S
C891 C892 1.503 . S
C891 O906 1.261 . S
C891 O907 1.243 . S
C892 C891 1.503 . S
C892 C893 1.394 . S
C892 C897 1.373 . S
C893 C892 1.394 . S
C893 C894 1.380 . S
C893 H916 0.930 . S
C894 C893 1.380 . S
C894 C895 1.376 . S
C894 H917 0.930 . S
C895 C894 1.376 . S
C895 C896 1.370 . S
C896 C895 1.370 . S
C896 C897 1.396 . S
C896 H918 0.929 . S
C897 C892 1.373 . S
C897 C896 1.396 . S
C897 H919 0.929 . S
C898 O908 1.240 . S
C898 O909 1.289 1_556 S
C899 O910 1.258 . S
C899 O911 1.256 1_556 S
O900 La880 2.521 . S
O900 C882 1.261 . S
O901 La880 2.628 . S
O901 C882 1.243 . S
O902 La880 2.554 . S
O902 C889 1.240 . S
O903 La880 2.757 1_556 S
O903 La881 2.482 . S
O903 C889 1.289 1_556 S
O904 La880 2.470 . S
O904 C890 1.258 . S
O905 La881 2.503 . S
O905 C890 1.256 1_556 S
O906 La881 2.521 . S
O906 C891 1.261 . S
O907 La881 2.628 . S
O907 C891 1.243 . S
O908 La881 2.554 . S
O908 C898 1.240 . S
O909 La880 2.482 . S
O909 La881 2.757 1_554 S
O909 C898 1.289 1_554 S
O910 La881 2.470 . S
O910 C899 1.258 . S
O911 La880 2.503 . S
O911 C899 1.256 1_554 S
H912 C884 0.930 . S
H913 C885 0.930 . S
H914 C887 0.929 . S
H915 C888 0.929 . S
H916 C893 0.930 . S
H917 C894 0.930 . S
H918 C896 0.929 . S
H919 C897 0.929 . S
La920 C922 2.928 . S
La920 O940 2.521 . S
La920 O941 2.628 . S
La920 O942 2.554 . S
La920 O943 2.757 1_554 S
La920 O944 2.470 . S
La920 O949 2.482 . S
La920 O951 2.503 . S
La921 C931 2.928 . S
La921 O943 2.482 . S
La921 O945 2.503 . S
La921 O946 2.521 . S
La921 O947 2.628 . S
La921 O948 2.554 . S
La921 O949 2.757 1_556 S
La921 O950 2.470 . S
C922 La920 2.928 . S
C922 C923 1.503 . S
C922 O940 1.261 . S
C922 O941 1.243 . S
C923 C922 1.503 . S
C923 C924 1.394 . S
C923 C928 1.373 . S
C924 C923 1.394 . S
C924 C925 1.380 . S
C924 H952 0.930 . S
C925 C924 1.380 . S
C925 C926 1.376 . S
C925 H953 0.930 . S
C926 C925 1.376 . S
C926 C927 1.370 . S
C927 C926 1.370 . S
C927 C928 1.396 . S
C927 H954 0.929 . S
C928 C923 1.373 . S
C928 C927 1.396 . S
C928 H955 0.929 . S
C929 O942 1.240 . S
C929 O943 1.289 1_554 S
C930 O944 1.258 . S
C930 O945 1.256 1_554 S
C931 La921 2.928 . S
C931 C932 1.503 . S
C931 O946 1.261 . S
C931 O947 1.243 . S
C932 C931 1.503 . S
C932 C933 1.394 . S
C932 C937 1.373 . S
C933 C932 1.394 . S
C933 C934 1.380 . S
C933 H956 0.930 . S
C934 C933 1.380 . S
C934 C935 1.376 . S
C934 H957 0.930 . S
C935 C934 1.376 . S
C935 C936 1.370 . S
C936 C935 1.370 . S
C936 C937 1.396 . S
C936 H958 0.929 . S
C937 C932 1.373 . S
C937 C936 1.396 . S
C937 H959 0.929 . S
C938 O948 1.240 . S
C938 O949 1.289 1_556 S
C939 O950 1.258 . S
C939 O951 1.256 1_556 S
O940 La920 2.521 . S
O940 C922 1.261 . S
O941 La920 2.628 . S
O941 C922 1.243 . S
O942 La920 2.554 . S
O942 C929 1.240 . S
O943 La920 2.757 1_556 S
O943 La921 2.482 . S
O943 C929 1.289 1_556 S
O944 La920 2.470 . S
O944 C930 1.258 . S
O945 La921 2.503 . S
O945 C930 1.256 1_556 S
O946 La921 2.521 . S
O946 C931 1.261 . S
O947 La921 2.628 . S
O947 C931 1.243 . S
O948 La921 2.554 . S
O948 C938 1.240 . S
O949 La920 2.482 . S
O949 La921 2.757 1_554 S
O949 C938 1.289 1_554 S
O950 La921 2.470 . S
O950 C939 1.258 . S
O951 La920 2.503 . S
O951 C939 1.256 1_554 S
H952 C924 0.930 . S
H953 C925 0.930 . S
H954 C927 0.929 . S
H955 C928 0.929 . S
H956 C933 0.930 . S
H957 C934 0.930 . S
H958 C936 0.929 . S
H959 C937 0.929 . S
La960 C962 2.928 . S
La960 O980 2.521 . S
La960 O981 2.628 . S
La960 O982 2.554 . S
La960 O983 2.757 . S
La960 O984 2.470 . S
La960 O989 2.482 . S
La960 O991 2.503 . S
La961 C971 2.928 . S
La961 O983 2.482 . S
La961 O985 2.503 . S
La961 O986 2.521 . S
La961 O987 2.628 . S
La961 O988 2.554 . S
La961 O989 2.757 . S
La961 O990 2.470 . S
C962 La960 2.928 . S
C962 C963 1.503 . S
C962 O980 1.261 . S
C962 O981 1.243 . S
C963 C962 1.503 . S
C963 C964 1.394 . S
C963 C968 1.373 1_565 S
C964 C963 1.394 . S
C964 C965 1.380 . S
C964 H992 0.930 . S
C965 C964 1.380 . S
C965 C966 1.354 1_565 S
C965 H993 0.930 . S
C966 C965 1.354 1_545 S
C966 C967 1.389 . S
C967 C966 1.389 . S
C967 C968 1.396 . S
C967 H994 0.929 . S
C968 C963 1.373 1_545 S
C968 C967 1.396 . S
C968 H995 0.929 . S
C969 O982 1.240 . S
C969 O983 1.289 . S
C970 O984 1.258 . S
C970 O985 1.256 . S
C971 La961 2.928 . S
C971 C972 1.503 . S
C971 O986 1.261 . S
C971 O987 1.243 . S
C972 C971 1.503 . S
C972 C973 1.394 . S
C972 C977 1.373 . S
C973 C972 1.394 . S
C973 C974 1.380 . S
C973 H996 0.930 . S
C974 C973 1.380 . S
C974 C975 1.376 . S
C974 H997 0.930 . S
C975 C974 1.376 . S
C975 C976 1.370 . S
C976 C975 1.370 . S
C976 C977 1.396 . S
C976 H998 0.929 . S
C977 C972 1.373 . S
C977 C976 1.396 . S
C977 H999 0.929 . S
C978 O988 1.240 . S
C978 O989 1.289 . S
C979 O990 1.258 . S
C979 O991 1.256 . S
O980 La960 2.521 . S
O980 C962 1.261 . S
O981 La960 2.628 . S
O981 C962 1.243 . S
O982 La960 2.554 . S
O982 C969 1.240 . S
O983 La960 2.757 . S
O983 La961 2.482 . S
O983 C969 1.289 . S
O984 La960 2.470 . S
O984 C970 1.258 . S
O985 La961 2.503 . S
O985 C970 1.256 . S
O986 La961 2.521 . S
O986 C971 1.261 . S
O987 La961 2.628 . S
O987 C971 1.243 . S
O988 La961 2.554 . S
O988 C978 1.240 . S
O989 La960 2.482 . S
O989 La961 2.757 . S
O989 C978 1.289 . S
O990 La961 2.470 . S
O990 C979 1.258 . S
O991 La960 2.503 . S
O991 C979 1.256 . S
H992 C964 0.930 . S
H993 C965 0.930 . S
H994 C967 0.929 . S
H995 C968 0.929 . S
H996 C973 0.930 . S
H997 C974 0.930 . S
H998 C976 0.929 . S
H999 C977 0.929 . S
La1000 C1002 2.928 . S
La1000 O1020 2.521 . S
La1000 O1021 2.628 . S
La1000 O1022 2.554 . S
La1000 O1023 2.757 . S
La1000 O1024 2.470 . S
La1000 O1029 2.482 . S
La1000 O1031 2.503 . S
La1001 C1011 2.928 . S
La1001 O1023 2.482 . S
La1001 O1025 2.503 . S
La1001 O1026 2.521 . S
La1001 O1027 2.628 . S
La1001 O1028 2.554 . S
La1001 O1029 2.757 . S
La1001 O1030 2.470 . S
C1002 La1000 2.928 . S
C1002 C1003 1.503 . S
C1002 O1020 1.261 . S
C1002 O1021 1.243 . S
C1003 C1002 1.503 . S
C1003 C1004 1.394 . S
C1003 C1008 1.373 1_455 S
C1004 C1003 1.394 . S
C1004 C1005 1.380 . S
C1004 H1032 0.930 . S
C1005 C1004 1.380 . S
C1005 C1006 1.364 1_455 S
C1005 H1033 0.930 . S
C1006 C1005 1.364 1_655 S
C1006 C1007 1.374 . S
C1007 C1006 1.374 . S
C1007 C1008 1.396 . S
C1007 H1034 0.929 . S
C1008 C1003 1.373 1_655 S
C1008 C1007 1.396 . S
C1008 H1035 0.929 . S
C1009 O1022 1.240 . S
C1009 O1023 1.289 . S
C1010 O1024 1.258 . S
C1010 O1025 1.256 . S
C1011 La1001 2.928 . S
C1011 C1012 1.503 . S
C1011 O1026 1.261 . S
C1011 O1027 1.243 . S
C1012 C1011 1.503 . S
C1012 C1013 1.394 . S
C1012 C1017 1.373 . S
C1013 C1012 1.394 . S
C1013 C1014 1.380 . S
C1013 H1036 0.930 . S
C1014 C1013 1.380 . S
C1014 C1015 1.376 . S
C1014 H1037 0.930 . S
C1015 C1014 1.376 . S
C1015 C1016 1.370 . S
C1016 C1015 1.370 . S
C1016 C1017 1.396 . S
C1016 H1038 0.929 . S
C1017 C1012 1.373 . S
C1017 C1016 1.396 . S
C1017 H1039 0.929 . S
C1018 O1028 1.240 . S
C1018 O1029 1.289 . S
C1019 O1030 1.258 . S
C1019 O1031 1.256 . S
O1020 La1000 2.521 . S
O1020 C1002 1.261 . S
O1021 La1000 2.628 . S
O1021 C1002 1.243 . S
O1022 La1000 2.554 . S
O1022 C1009 1.240 . S
O1023 La1000 2.757 . S
O1023 La1001 2.482 . S
O1023 C1009 1.289 . S
O1024 La1000 2.470 . S
O1024 C1010 1.258 . S
O1025 La1001 2.503 . S
O1025 C1010 1.256 . S
O1026 La1001 2.521 . S
O1026 C1011 1.261 . S
O1027 La1001 2.628 . S
O1027 C1011 1.243 . S
O1028 La1001 2.554 . S
O1028 C1018 1.240 . S
O1029 La1000 2.482 . S
O1029 La1001 2.757 . S
O1029 C1018 1.289 . S
O1030 La1001 2.470 . S
O1030 C1019 1.258 . S
O1031 La1000 2.503 . S
O1031 C1019 1.256 . S
H1032 C1004 0.930 . S
H1033 C1005 0.930 . S
H1034 C1007 0.929 . S
H1035 C1008 0.929 . S
H1036 C1013 0.930 . S
H1037 C1014 0.930 . S
H1038 C1016 0.929 . S
H1039 C1017 0.929 . S
La1040 C1042 2.928 . S
La1040 O1060 2.521 . S
La1040 O1061 2.628 . S
La1040 O1062 2.554 . S
La1040 O1063 2.757 . S
La1040 O1064 2.470 . S
La1040 O1069 2.482 . S
La1040 O1071 2.503 . S
La1041 C1051 2.928 . S
La1041 O1063 2.482 . S
La1041 O1065 2.503 . S
La1041 O1066 2.521 . S
La1041 O1067 2.628 . S
La1041 O1068 2.554 . S
La1041 O1069 2.757 . S
La1041 O1070 2.470 . S
C1042 La1040 2.928 . S
C1042 C1043 1.503 . S
C1042 O1060 1.261 . S
C1042 O1061 1.243 . S
C1043 C1042 1.503 . S
C1043 C1044 1.394 . S
C1043 C1048 1.373 . S
C1044 C1043 1.394 . S
C1044 C1045 1.380 . S
C1044 H1072 0.930 . S
C1045 C1044 1.380 . S
C1045 C1046 1.376 . S
C1045 H1073 0.930 . S
C1046 C1045 1.376 . S
C1046 C1047 1.370 . S
C1047 C1046 1.370 . S
C1047 C1048 1.396 . S
C1047 H1074 0.929 . S
C1048 C1043 1.373 . S
C1048 C1047 1.396 . S
C1048 H1075 0.929 . S
C1049 O1062 1.240 . S
C1049 O1063 1.289 . S
C1050 O1064 1.258 . S
C1050 O1065 1.256 . S
C1051 La1041 2.928 . S
C1051 C1052 1.503 . S
C1051 O1066 1.261 . S
C1051 O1067 1.243 . S
C1052 C1051 1.503 . S
C1052 C1053 1.394 . S
C1052 C1057 1.373 . S
C1053 C1052 1.394 . S
C1053 C1054 1.380 . S
C1053 H1076 0.930 . S
C1054 C1053 1.380 . S
C1054 C1055 1.376 . S
C1054 H1077 0.930 . S
C1055 C1054 1.376 . S
C1055 C1056 1.370 . S
C1056 C1055 1.370 . S
C1056 C1057 1.396 . S
C1056 H1078 0.929 . S
C1057 C1052 1.373 . S
C1057 C1056 1.396 . S
C1057 H1079 0.929 . S
C1058 O1068 1.240 . S
C1058 O1069 1.289 . S
C1059 O1070 1.258 . S
C1059 O1071 1.256 . S
O1060 La1040 2.521 . S
O1060 C1042 1.261 . S
O1061 La1040 2.628 . S
O1061 C1042 1.243 . S
O1062 La1040 2.554 . S
O1062 C1049 1.240 . S
O1063 La1040 2.757 . S
O1063 La1041 2.482 . S
O1063 C1049 1.289 . S
O1064 La1040 2.470 . S
O1064 C1050 1.258 . S
O1065 La1041 2.503 . S
O1065 C1050 1.256 . S
O1066 La1041 2.521 . S
O1066 C1051 1.261 . S
O1067 La1041 2.628 . S
O1067 C1051 1.243 . S
O1068 La1041 2.554 . S
O1068 C1058 1.240 . S
O1069 La1040 2.482 . S
O1069 La1041 2.757 . S
O1069 C1058 1.289 . S
O1070 La1041 2.470 . S
O1070 C1059 1.258 . S
O1071 La1040 2.503 . S
O1071 C1059 1.256 . S
H1072 C1044 0.930 . S
H1073 C1045 0.930 . S
H1074 C1047 0.929 . S
H1075 C1048 0.929 . S
H1076 C1053 0.930 . S
H1077 C1054 0.930 . S
H1078 C1056 0.929 . S
H1079 C1057 0.929 . S
La1080 C1082 2.928 . S
La1080 O1100 2.521 . S
La1080 O1101 2.628 . S
La1080 O1102 2.554 . S
La1080 O1103 2.757 1_554 S
La1080 O1104 2.470 . S
La1080 O1109 2.482 . S
La1080 O1111 2.503 . S
La1081 C1091 2.928 . S
La1081 O1103 2.482 . S
La1081 O1105 2.503 . S
La1081 O1106 2.521 . S
La1081 O1107 2.628 . S
La1081 O1108 2.554 . S
La1081 O1109 2.757 1_556 S
La1081 O1110 2.470 . S
C1082 La1080 2.928 . S
C1082 C1083 1.503 . S
C1082 O1100 1.261 . S
C1082 O1101 1.243 . S
C1083 C1082 1.503 . S
C1083 C1084 1.394 . S
C1083 C1088 1.373 . S
C1084 C1083 1.394 . S
C1084 C1085 1.380 . S
C1084 H1112 0.930 . S
C1085 C1084 1.380 . S
C1085 C1086 1.376 . S
C1085 H1113 0.930 . S
C1086 C1085 1.376 . S
C1086 C1087 1.370 . S
C1087 C1086 1.370 . S
C1087 C1088 1.396 . S
C1087 H1114 0.929 . S
C1088 C1083 1.373 . S
C1088 C1087 1.396 . S
C1088 H1115 0.929 . S
C1089 O1102 1.240 . S
C1089 O1103 1.289 1_554 S
C1090 O1104 1.258 . S
C1090 O1105 1.256 1_554 S
C1091 La1081 2.928 . S
C1091 C1092 1.503 . S
C1091 O1106 1.261 . S
C1091 O1107 1.243 . S
C1092 C1091 1.503 . S
C1092 C1093 1.394 . S
C1092 C1097 1.373 . S
C1093 C1092 1.394 . S
C1093 C1094 1.380 . S
C1093 H1116 0.930 . S
C1094 C1093 1.380 . S
C1094 C1095 1.376 . S
C1094 H1117 0.930 . S
C1095 C1094 1.376 . S
C1095 C1096 1.370 . S
C1096 C1095 1.370 . S
C1096 C1097 1.396 . S
C1096 H1118 0.929 . S
C1097 C1092 1.373 . S
C1097 C1096 1.396 . S
C1097 H1119 0.929 . S
C1098 O1108 1.240 . S
C1098 O1109 1.289 1_556 S
C1099 O1110 1.258 . S
C1099 O1111 1.256 1_556 S
O1100 La1080 2.521 . S
O1100 C1082 1.261 . S
O1101 La1080 2.628 . S
O1101 C1082 1.243 . S
O1102 La1080 2.554 . S
O1102 C1089 1.240 . S
O1103 La1080 2.757 1_556 S
O1103 La1081 2.482 . S
O1103 C1089 1.289 1_556 S
O1104 La1080 2.470 . S
O1104 C1090 1.258 . S
O1105 La1081 2.503 . S
O1105 C1090 1.256 1_556 S
O1106 La1081 2.521 . S
O1106 C1091 1.261 . S
O1107 La1081 2.628 . S
O1107 C1091 1.243 . S
O1108 La1081 2.554 . S
O1108 C1098 1.240 . S
O1109 La1080 2.482 . S
O1109 La1081 2.757 1_554 S
O1109 C1098 1.289 1_554 S
O1110 La1081 2.470 . S
O1110 C1099 1.258 . S
O1111 La1080 2.503 . S
O1111 C1099 1.256 1_554 S
H1112 C1084 0.930 . S
H1113 C1085 0.930 . S
H1114 C1087 0.929 . S
H1115 C1088 0.929 . S
H1116 C1093 0.930 . S
H1117 C1094 0.930 . S
H1118 C1096 0.929 . S
H1119 C1097 0.929 . S
La1120 C1122 2.928 . S
La1120 O1140 2.521 . S
La1120 O1141 2.628 . S
La1120 O1142 2.554 . S
La1120 O1143 2.757 1_554 S
La1120 O1144 2.470 . S
La1120 O1149 2.482 . S
La1120 O1151 2.503 . S
La1121 C1131 2.928 . S
La1121 O1143 2.482 . S
La1121 O1145 2.503 . S
La1121 O1146 2.521 . S
La1121 O1147 2.628 . S
La1121 O1148 2.554 . S
La1121 O1149 2.757 1_556 S
La1121 O1150 2.470 . S
C1122 La1120 2.928 . S
C1122 C1123 1.503 . S
C1122 O1140 1.261 . S
C1122 O1141 1.243 . S
C1123 C1122 1.503 . S
C1123 C1124 1.394 . S
C1123 C1128 1.373 . S
C1124 C1123 1.394 . S
C1124 C1125 1.380 . S
C1124 H1152 0.930 . S
C1125 C1124 1.380 . S
C1125 C1126 1.376 . S
C1125 H1153 0.930 . S
C1126 C1125 1.376 . S
C1126 C1127 1.370 . S
C1127 C1126 1.370 . S
C1127 C1128 1.396 . S
C1127 H1154 0.929 . S
C1128 C1123 1.373 . S
C1128 C1127 1.396 . S
C1128 H1155 0.929 . S
C1129 O1142 1.240 . S
C1129 O1143 1.289 1_554 S
C1130 O1144 1.258 . S
C1130 O1145 1.256 1_554 S
C1131 La1121 2.928 . S
C1131 C1132 1.503 . S
C1131 O1146 1.261 . S
C1131 O1147 1.243 . S
C1132 C1131 1.503 . S
C1132 C1133 1.394 . S
C1132 C1137 1.373 . S
C1133 C1132 1.394 . S
C1133 C1134 1.380 . S
C1133 H1156 0.930 . S
C1134 C1133 1.380 . S
C1134 C1135 1.376 . S
C1134 H1157 0.930 . S
C1135 C1134 1.376 . S
C1135 C1136 1.370 . S
C1136 C1135 1.370 . S
C1136 C1137 1.396 . S
C1136 H1158 0.929 . S
C1137 C1132 1.373 . S
C1137 C1136 1.396 . S
C1137 H1159 0.929 . S
C1138 O1148 1.240 . S
C1138 O1149 1.289 1_556 S
C1139 O1150 1.258 . S
C1139 O1151 1.256 1_556 S
O1140 La1120 2.521 . S
O1140 C1122 1.261 . S
O1141 La1120 2.628 . S
O1141 C1122 1.243 . S
O1142 La1120 2.554 . S
O1142 C1129 1.240 . S
O1143 La1120 2.757 1_556 S
O1143 La1121 2.482 . S
O1143 C1129 1.289 1_556 S
O1144 La1120 2.470 . S
O1144 C1130 1.258 . S
O1145 La1121 2.503 . S
O1145 C1130 1.256 1_556 S
O1146 La1121 2.521 . S
O1146 C1131 1.261 . S
O1147 La1121 2.628 . S
O1147 C1131 1.243 . S
O1148 La1121 2.554 . S
O1148 C1138 1.240 . S
O1149 La1120 2.482 . S
O1149 La1121 2.757 1_554 S
O1149 C1138 1.289 1_554 S
O1150 La1121 2.470 . S
O1150 C1139 1.258 . S
O1151 La1120 2.503 . S
O1151 C1139 1.256 1_554 S
H1152 C1124 0.930 . S
H1153 C1125 0.930 . S
H1154 C1127 0.929 . S
H1155 C1128 0.929 . S
H1156 C1133 0.930 . S
H1157 C1134 0.930 . S
H1158 C1136 0.929 . S
H1159 C1137 0.929 . S
La1160 C1162 2.928 . S
La1160 O1180 2.521 . S
La1160 O1181 2.628 . S
La1160 O1182 2.554 . S
La1160 O1183 2.757 1_554 S
La1160 O1184 2.470 . S
La1160 O1189 2.482 . S
La1160 O1191 2.503 . S
La1161 C1171 2.928 . S
La1161 O1183 2.482 . S
La1161 O1185 2.503 . S
La1161 O1186 2.521 . S
La1161 O1187 2.628 . S
La1161 O1188 2.554 . S
La1161 O1189 2.757 1_556 S
La1161 O1190 2.470 . S
C1162 La1160 2.928 . S
C1162 C1163 1.503 . S
C1162 O1180 1.261 . S
C1162 O1181 1.243 . S
C1163 C1162 1.503 . S
C1163 C1164 1.394 . S
C1163 C1168 1.373 . S
C1164 C1163 1.394 . S
C1164 C1165 1.380 . S
C1164 H1192 0.930 . S
C1165 C1164 1.380 . S
C1165 C1166 1.376 . S
C1165 H1193 0.930 . S
C1166 C1165 1.376 . S
C1166 C1167 1.370 . S
C1167 C1166 1.370 . S
C1167 C1168 1.396 . S
C1167 H1194 0.929 . S
C1168 C1163 1.373 . S
C1168 C1167 1.396 . S
C1168 H1195 0.929 . S
C1169 O1182 1.240 . S
C1169 O1183 1.289 1_554 S
C1170 O1184 1.258 . S
C1170 O1185 1.256 1_554 S
C1171 La1161 2.928 . S
C1171 C1172 1.503 . S
C1171 O1186 1.261 . S
C1171 O1187 1.243 . S
C1172 C1171 1.503 . S
C1172 C1173 1.394 . S
C1172 C1177 1.373 . S
C1173 C1172 1.394 . S
C1173 C1174 1.380 . S
C1173 H1196 0.930 . S
C1174 C1173 1.380 . S
C1174 C1175 1.376 . S
C1174 H1197 0.930 . S
C1175 C1174 1.376 . S
C1175 C1176 1.370 . S
C1176 C1175 1.370 . S
C1176 C1177 1.396 . S
C1176 H1198 0.929 . S
C1177 C1172 1.373 . S
C1177 C1176 1.396 . S
C1177 H1199 0.929 . S
C1178 O1188 1.240 . S
C1178 O1189 1.289 1_556 S
C1179 O1190 1.258 . S
C1179 O1191 1.256 1_556 S
O1180 La1160 2.521 . S
O1180 C1162 1.261 . S
O1181 La1160 2.628 . S
O1181 C1162 1.243 . S
O1182 La1160 2.554 . S
O1182 C1169 1.240 . S
O1183 La1160 2.757 1_556 S
O1183 La1161 2.482 . S
O1183 C1169 1.289 1_556 S
O1184 La1160 2.470 . S
O1184 C1170 1.258 . S
O1185 La1161 2.503 . S
O1185 C1170 1.256 1_556 S
O1186 La1161 2.521 . S
O1186 C1171 1.261 . S
O1187 La1161 2.628 . S
O1187 C1171 1.243 . S
O1188 La1161 2.554 . S
O1188 C1178 1.240 . S
O1189 La1160 2.482 . S
O1189 La1161 2.757 1_554 S
O1189 C1178 1.289 1_554 S
O1190 La1161 2.470 . S
O1190 C1179 1.258 . S
O1191 La1160 2.503 . S
O1191 C1179 1.256 1_554 S
H1192 C1164 0.930 . S
H1193 C1165 0.930 . S
H1194 C1167 0.929 . S
H1195 C1168 0.929 . S
H1196 C1173 0.930 . S
H1197 C1174 0.930 . S
H1198 C1176 0.929 . S
H1199 C1177 0.929 . S
La1200 C1202 2.928 . S
La1200 O1220 2.521 . S
La1200 O1221 2.628 . S
La1200 O1222 2.554 . S
La1200 O1223 2.757 . S
La1200 O1224 2.470 . S
La1200 O1229 2.482 . S
La1200 O1231 2.503 . S
La1201 C1211 2.928 . S
La1201 O1223 2.482 . S
La1201 O1225 2.503 . S
La1201 O1226 2.521 . S
La1201 O1227 2.628 . S
La1201 O1228 2.554 . S
La1201 O1229 2.757 . S
La1201 O1230 2.470 . S
C1202 La1200 2.928 . S
C1202 C1203 1.503 . S
C1202 O1220 1.261 . S
C1202 O1221 1.243 . S
C1203 C1202 1.503 . S
C1203 C1204 1.394 . S
C1203 C1208 1.373 . S
C1204 C1203 1.394 . S
C1204 C1205 1.380 . S
C1204 H1232 0.930 . S
C1205 C1204 1.380 . S
C1205 C1206 1.376 . S
C1205 H1233 0.930 . S
C1206 C1205 1.376 . S
C1206 C1207 1.370 . S
C1207 C1206 1.370 . S
C1207 C1208 1.396 . S
C1207 H1234 0.929 . S
C1208 C1203 1.373 . S
C1208 C1207 1.396 . S
C1208 H1235 0.929 . S
C1209 O1222 1.240 . S
C1209 O1223 1.289 . S
C1210 O1224 1.258 . S
C1210 O1225 1.256 . S
C1211 La1201 2.928 . S
C1211 C1212 1.503 . S
C1211 O1226 1.261 . S
C1211 O1227 1.243 . S
C1212 C1211 1.503 . S
C1212 C1213 1.394 . S
C1212 C1217 1.373 . S
C1213 C1212 1.394 . S
C1213 C1214 1.380 . S
C1213 H1236 0.930 . S
C1214 C1213 1.380 . S
C1214 C1215 1.376 . S
C1214 H1237 0.930 . S
C1215 C1214 1.376 . S
C1215 C1216 1.370 . S
C1216 C1215 1.370 . S
C1216 C1217 1.396 . S
C1216 H1238 0.929 . S
C1217 C1212 1.373 . S
C1217 C1216 1.396 . S
C1217 H1239 0.929 . S
C1218 O1228 1.240 . S
C1218 O1229 1.289 . S
C1219 O1230 1.258 . S
C1219 O1231 1.256 . S
O1220 La1200 2.521 . S
O1220 C1202 1.261 . S
O1221 La1200 2.628 . S
O1221 C1202 1.243 . S
O1222 La1200 2.554 . S
O1222 C1209 1.240 . S
O1223 La1200 2.757 . S
O1223 La1201 2.482 . S
O1223 C1209 1.289 . S
O1224 La1200 2.470 . S
O1224 C1210 1.258 . S
O1225 La1201 2.503 . S
O1225 C1210 1.256 . S
O1226 La1201 2.521 . S
O1226 C1211 1.261 . S
O1227 La1201 2.628 . S
O1227 C1211 1.243 . S
O1228 La1201 2.554 . S
O1228 C1218 1.240 . S
O1229 La1200 2.482 . S
O1229 La1201 2.757 . S
O1229 C1218 1.289 . S
O1230 La1201 2.470 . S
O1230 C1219 1.258 . S
O1231 La1200 2.503 . S
O1231 C1219 1.256 . S
H1232 C1204 0.930 . S
H1233 C1205 0.930 . S
H1234 C1207 0.929 . S
H1235 C1208 0.929 . S
H1236 C1213 0.930 . S
H1237 C1214 0.930 . S
H1238 C1216 0.929 . S
H1239 C1217 0.929 . S
La1240 C1242 2.928 . S
La1240 O1260 2.521 . S
La1240 O1261 2.628 . S
La1240 O1262 2.554 . S
La1240 O1263 2.757 . S
La1240 O1264 2.470 . S
La1240 O1269 2.482 . S
La1240 O1271 2.503 . S
La1241 C1251 2.928 . S
La1241 O1263 2.482 . S
La1241 O1265 2.503 . S
La1241 O1266 2.521 . S
La1241 O1267 2.628 . S
La1241 O1268 2.554 . S
La1241 O1269 2.757 . S
La1241 O1270 2.470 . S
C1242 La1240 2.928 . S
C1242 C1243 1.503 . S
C1242 O1260 1.261 . S
C1242 O1261 1.243 . S
C1243 C1242 1.503 . S
C1243 C1244 1.394 . S
C1243 C1248 1.373 . S
C1244 C1243 1.394 . S
C1244 C1245 1.380 . S
C1244 H1272 0.930 . S
C1245 C1244 1.380 . S
C1245 C1246 1.376 . S
C1245 H1273 0.930 . S
C1246 C1245 1.376 . S
C1246 C1247 1.370 . S
C1247 C1246 1.370 . S
C1247 C1248 1.396 . S
C1247 H1274 0.929 . S
C1248 C1243 1.373 . S
C1248 C1247 1.396 . S
C1248 H1275 0.929 . S
C1249 O1262 1.240 . S
C1249 O1263 1.289 . S
C1250 O1264 1.258 . S
C1250 O1265 1.256 . S
C1251 La1241 2.928 . S
C1251 C1252 1.503 . S
C1251 O1266 1.261 . S
C1251 O1267 1.243 . S
C1252 C1251 1.503 . S
C1252 C1253 1.394 . S
C1252 C1257 1.373 . S
C1253 C1252 1.394 . S
C1253 C1254 1.380 . S
C1253 H1276 0.930 . S
C1254 C1253 1.380 . S
C1254 C1255 1.376 . S
C1254 H1277 0.930 . S
C1255 C1254 1.376 . S
C1255 C1256 1.370 . S
C1256 C1255 1.370 . S
C1256 C1257 1.396 . S
C1256 H1278 0.929 . S
C1257 C1252 1.373 . S
C1257 C1256 1.396 . S
C1257 H1279 0.929 . S
C1258 O1268 1.240 . S
C1258 O1269 1.289 . S
C1259 O1270 1.258 . S
C1259 O1271 1.256 . S
O1260 La1240 2.521 . S
O1260 C1242 1.261 . S
O1261 La1240 2.628 . S
O1261 C1242 1.243 . S
O1262 La1240 2.554 . S
O1262 C1249 1.240 . S
O1263 La1240 2.757 . S
O1263 La1241 2.482 . S
O1263 C1249 1.289 . S
O1264 La1240 2.470 . S
O1264 C1250 1.258 . S
O1265 La1241 2.503 . S
O1265 C1250 1.256 . S
O1266 La1241 2.521 . S
O1266 C1251 1.261 . S
O1267 La1241 2.628 . S
O1267 C1251 1.243 . S
O1268 La1241 2.554 . S
O1268 C1258 1.240 . S
O1269 La1240 2.482 . S
O1269 La1241 2.757 . S
O1269 C1258 1.289 . S
O1270 La1241 2.470 . S
O1270 C1259 1.258 . S
O1271 La1240 2.503 . S
O1271 C1259 1.256 . S
H1272 C1244 0.930 . S
H1273 C1245 0.930 . S
H1274 C1247 0.929 . S
H1275 C1248 0.929 . S
H1276 C1253 0.930 . S
H1277 C1254 0.930 . S
H1278 C1256 0.929 . S
H1279 C1257 0.929 . S
La1280 C1282 2.928 . S
La1280 O1300 2.521 . S
La1280 O1301 2.628 . S
La1280 O1302 2.554 . S
La1280 O1303 2.757 . S
La1280 O1304 2.470 . S
La1280 O1309 2.482 . S
La1280 O1311 2.503 . S
La1281 C1291 2.928 . S
La1281 O1303 2.482 . S
La1281 O1305 2.503 . S
La1281 O1306 2.521 . S
La1281 O1307 2.628 . S
La1281 O1308 2.554 . S
La1281 O1309 2.757 . S
La1281 O1310 2.470 . S
C1282 La1280 2.928 . S
C1282 C1283 1.503 . S
C1282 O1300 1.261 . S
C1282 O1301 1.243 . S
C1283 C1282 1.503 . S
C1283 C1284 1.394 . S
C1283 C1288 1.373 . S
C1284 C1283 1.394 . S
C1284 C1285 1.380 . S
C1284 H1312 0.930 . S
C1285 C1284 1.380 . S
C1285 C1286 1.376 . S
C1285 H1313 0.930 . S
C1286 C1285 1.376 . S
C1286 C1287 1.370 . S
C1287 C1286 1.370 . S
C1287 C1288 1.396 . S
C1287 H1314 0.929 . S
C1288 C1283 1.373 . S
C1288 C1287 1.396 . S
C1288 H1315 0.929 . S
C1289 O1302 1.240 . S
C1289 O1303 1.289 . S
C1290 O1304 1.258 . S
C1290 O1305 1.256 . S
C1291 La1281 2.928 . S
C1291 C1292 1.503 . S
C1291 O1306 1.261 . S
C1291 O1307 1.243 . S
C1292 C1291 1.503 . S
C1292 C1293 1.394 . S
C1292 C1297 1.373 . S
C1293 C1292 1.394 . S
C1293 C1294 1.380 . S
C1293 H1316 0.930 . S
C1294 C1293 1.380 . S
C1294 C1295 1.376 . S
C1294 H1317 0.930 . S
C1295 C1294 1.376 . S
C1295 C1296 1.370 . S
C1296 C1295 1.370 . S
C1296 C1297 1.396 . S
C1296 H1318 0.929 . S
C1297 C1292 1.373 . S
C1297 C1296 1.396 . S
C1297 H1319 0.929 . S
C1298 O1308 1.240 . S
C1298 O1309 1.289 . S
C1299 O1310 1.258 . S
C1299 O1311 1.256 . S
O1300 La1280 2.521 . S
O1300 C1282 1.261 . S
O1301 La1280 2.628 . S
O1301 C1282 1.243 . S
O1302 La1280 2.554 . S
O1302 C1289 1.240 . S
O1303 La1280 2.757 . S
O1303 La1281 2.482 . S
O1303 C1289 1.289 . S
O1304 La1280 2.470 . S
O1304 C1290 1.258 . S
O1305 La1281 2.503 . S
O1305 C1290 1.256 . S
O1306 La1281 2.521 . S
O1306 C1291 1.261 . S
O1307 La1281 2.628 . S
O1307 C1291 1.243 . S
O1308 La1281 2.554 . S
O1308 C1298 1.240 . S
O1309 La1280 2.482 . S
O1309 La1281 2.757 . S
O1309 C1298 1.289 . S
O1310 La1281 2.470 . S
O1310 C1299 1.258 . S
O1311 La1280 2.503 . S
O1311 C1299 1.256 . S
H1312 C1284 0.930 . S
H1313 C1285 0.930 . S
H1314 C1287 0.929 . S
H1315 C1288 0.929 . S
H1316 C1293 0.930 . S
H1317 C1294 0.930 . S
H1318 C1296 0.929 . S
H1319 C1297 0.929 . S
La1320 C1322 2.928 . S
La1320 O1340 2.521 . S
La1320 O1341 2.628 . S
La1320 O1342 2.554 . S
La1320 O1343 2.757 . S
La1320 O1344 2.470 . S
La1320 O1349 2.482 . S
La1320 O1351 2.503 . S
La1321 C1331 2.928 . S
La1321 O1343 2.482 . S
La1321 O1345 2.503 . S
La1321 O1346 2.521 . S
La1321 O1347 2.628 . S
La1321 O1348 2.554 . S
La1321 O1349 2.757 . S
La1321 O1350 2.470 . S
C1322 La1320 2.928 . S
C1322 C1323 1.503 . S
C1322 O1340 1.261 . S
C1322 O1341 1.243 . S
C1323 C1322 1.503 . S
C1323 C1324 1.394 . S
C1323 C1328 1.373 . S
C1324 C1323 1.394 . S
C1324 C1325 1.380 . S
C1324 H1352 0.930 . S
C1325 C1324 1.380 . S
C1325 C1326 1.376 . S
C1325 H1353 0.930 . S
C1326 C1325 1.376 . S
C1326 C1327 1.370 . S
C1327 C1326 1.370 . S
C1327 C1328 1.396 . S
C1327 H1354 0.929 . S
C1328 C1323 1.373 . S
C1328 C1327 1.396 . S
C1328 H1355 0.929 . S
C1329 O1342 1.240 . S
C1329 O1343 1.289 . S
C1330 O1344 1.258 . S
C1330 O1345 1.256 . S
C1331 La1321 2.928 . S
C1331 C1332 1.503 . S
C1331 O1346 1.261 . S
C1331 O1347 1.243 . S
C1332 C1331 1.503 . S
C1332 C1333 1.394 . S
C1332 C1337 1.373 1_455 S
C1333 C1332 1.394 . S
C1333 C1334 1.380 . S
C1333 H1356 0.930 . S
C1334 C1333 1.380 . S
C1334 C1335 1.376 1_455 S
C1334 H1357 0.930 . S
C1335 C1334 1.376 1_655 S
C1335 C1336 1.370 . S
C1336 C1335 1.370 . S
C1336 C1337 1.396 . S
C1336 H1358 0.929 . S
C1337 C1332 1.373 1_655 S
C1337 C1336 1.396 . S
C1337 H1359 0.929 . S
C1338 O1348 1.240 . S
C1338 O1349 1.289 . S
C1339 O1350 1.258 . S
C1339 O1351 1.256 . S
O1340 La1320 2.521 . S
O1340 C1322 1.261 . S
O1341 La1320 2.628 . S
O1341 C1322 1.243 . S
O1342 La1320 2.554 . S
O1342 C1329 1.240 . S
O1343 La1320 2.757 . S
O1343 La1321 2.482 . S
O1343 C1329 1.289 . S
O1344 La1320 2.470 . S
O1344 C1330 1.258 . S
O1345 La1321 2.503 . S
O1345 C1330 1.256 . S
O1346 La1321 2.521 . S
O1346 C1331 1.261 . S
O1347 La1321 2.628 . S
O1347 C1331 1.243 . S
O1348 La1321 2.554 . S
O1348 C1338 1.240 . S
O1349 La1320 2.482 . S
O1349 La1321 2.757 . S
O1349 C1338 1.289 . S
O1350 La1321 2.470 . S
O1350 C1339 1.258 . S
O1351 La1320 2.503 . S
O1351 C1339 1.256 . S
H1352 C1324 0.930 . S
H1353 C1325 0.930 . S
H1354 C1327 0.929 . S
H1355 C1328 0.929 . S
H1356 C1333 0.930 . S
H1357 C1334 0.930 . S
H1358 C1336 0.929 . S
H1359 C1337 0.929 . S
La1360 C1362 2.928 . S
La1360 O1380 2.521 . S
La1360 O1381 2.628 . S
La1360 O1382 2.554 . S
La1360 O1383 2.757 . S
La1360 O1384 2.470 . S
La1360 O1389 2.482 . S
La1360 O1391 2.503 . S
La1361 C1371 2.928 . S
La1361 O1383 2.482 . S
La1361 O1385 2.503 . S
La1361 O1386 2.521 . S
La1361 O1387 2.628 . S
La1361 O1388 2.554 . S
La1361 O1389 2.757 . S
La1361 O1390 2.470 . S
C1362 La1360 2.928 . S
C1362 C1363 1.503 . S
C1362 O1380 1.261 . S
C1362 O1381 1.243 . S
C1363 C1362 1.503 . S
C1363 C1364 1.394 . S
C1363 C1368 1.373 . S
C1364 C1363 1.394 . S
C1364 C1365 1.380 . S
C1364 H1392 0.930 . S
C1365 C1364 1.380 . S
C1365 C1366 1.376 . S
C1365 H1393 0.930 . S
C1366 C1365 1.376 . S
C1366 C1367 1.370 . S
C1367 C1366 1.370 . S
C1367 C1368 1.396 . S
C1367 H1394 0.929 . S
C1368 C1363 1.373 . S
C1368 C1367 1.396 . S
C1368 H1395 0.929 . S
C1369 O1382 1.240 . S
C1369 O1383 1.289 . S
C1370 O1384 1.258 . S
C1370 O1385 1.256 . S
C1371 La1361 2.928 . S
C1371 C1372 1.503 . S
C1371 O1386 1.261 . S
C1371 O1387 1.243 . S
C1372 C1371 1.503 . S
C1372 C1373 1.394 . S
C1372 C1377 1.373 . S
C1373 C1372 1.394 . S
C1373 C1374 1.380 . S
C1373 H1396 0.930 . S
C1374 C1373 1.380 . S
C1374 C1375 1.376 . S
C1374 H1397 0.930 . S
C1375 C1374 1.376 . S
C1375 C1376 1.370 . S
C1376 C1375 1.370 . S
C1376 C1377 1.396 . S
C1376 H1398 0.929 . S
C1377 C1372 1.373 . S
C1377 C1376 1.396 . S
C1377 H1399 0.929 . S
C1378 O1388 1.240 . S
C1378 O1389 1.289 . S
C1379 O1390 1.258 . S
C1379 O1391 1.256 . S
O1380 La1360 2.521 . S
O1380 C1362 1.261 . S
O1381 La1360 2.628 . S
O1381 C1362 1.243 . S
O1382 La1360 2.554 . S
O1382 C1369 1.240 . S
O1383 La1360 2.757 . S
O1383 La1361 2.482 . S
O1383 C1369 1.289 . S
O1384 La1360 2.470 . S
O1384 C1370 1.258 . S
O1385 La1361 2.503 . S
O1385 C1370 1.256 . S
O1386 La1361 2.521 . S
O1386 C1371 1.261 . S
O1387 La1361 2.628 . S
O1387 C1371 1.243 . S
O1388 La1361 2.554 . S
O1388 C1378 1.240 . S
O1389 La1360 2.482 . S
O1389 La1361 2.757 . S
O1389 C1378 1.289 . S
O1390 La1361 2.470 . S
O1390 C1379 1.258 . S
O1391 La1360 2.503 . S
O1391 C1379 1.256 . S
H1392 C1364 0.930 . S
H1393 C1365 0.930 . S
H1394 C1367 0.929 . S
H1395 C1368 0.929 . S
H1396 C1373 0.930 . S
H1397 C1374 0.930 . S
H1398 C1376 0.929 . S
H1399 C1377 0.929 . S
La1400 C1402 2.928 . S
La1400 O1420 2.521 . S
La1400 O1421 2.628 . S
La1400 O1422 2.554 . S
La1400 O1423 2.757 . S
La1400 O1424 2.470 . S
La1400 O1429 2.482 . S
La1400 O1431 2.503 . S
La1401 C1411 2.928 . S
La1401 O1423 2.482 . S
La1401 O1425 2.503 . S
La1401 O1426 2.521 . S
La1401 O1427 2.628 . S
La1401 O1428 2.554 . S
La1401 O1429 2.757 . S
La1401 O1430 2.470 . S
C1402 La1400 2.928 . S
C1402 C1403 1.503 . S
C1402 O1420 1.261 . S
C1402 O1421 1.243 . S
C1403 C1402 1.503 . S
C1403 C1404 1.394 . S
C1403 C1408 1.373 . S
C1404 C1403 1.394 . S
C1404 C1405 1.380 . S
C1404 H1432 0.930 . S
C1405 C1404 1.380 . S
C1405 C1406 1.376 . S
C1405 H1433 0.930 . S
C1406 C1405 1.376 . S
C1406 C1407 1.370 . S
C1407 C1406 1.370 . S
C1407 C1408 1.396 . S
C1407 H1434 0.929 . S
C1408 C1403 1.373 . S
C1408 C1407 1.396 . S
C1408 H1435 0.929 . S
C1409 O1422 1.240 . S
C1409 O1423 1.289 . S
C1410 O1424 1.258 . S
C1410 O1425 1.256 . S
C1411 La1401 2.928 . S
C1411 C1412 1.503 . S
C1411 O1426 1.261 . S
C1411 O1427 1.243 . S
C1412 C1411 1.503 . S
C1412 C1413 1.394 . S
C1412 C1417 1.373 1_565 S
C1413 C1412 1.394 . S
C1413 C1414 1.380 . S
C1413 H1436 0.930 . S
C1414 C1413 1.380 . S
C1414 C1415 1.376 1_565 S
C1414 H1437 0.930 . S
C1415 C1414 1.376 1_545 S
C1415 C1416 1.370 . S
C1416 C1415 1.370 . S
C1416 C1417 1.396 . S
C1416 H1438 0.929 . S
C1417 C1412 1.373 1_545 S
C1417 C1416 1.396 . S
C1417 H1439 0.929 . S
C1418 O1428 1.240 . S
C1418 O1429 1.289 . S
C1419 O1430 1.258 . S
C1419 O1431 1.256 . S
O1420 La1400 2.521 . S
O1420 C1402 1.261 . S
O1421 La1400 2.628 . S
O1421 C1402 1.243 . S
O1422 La1400 2.554 . S
O1422 C1409 1.240 . S
O1423 La1400 2.757 . S
O1423 La1401 2.482 . S
O1423 C1409 1.289 . S
O1424 La1400 2.470 . S
O1424 C1410 1.258 . S
O1425 La1401 2.503 . S
O1425 C1410 1.256 . S
O1426 La1401 2.521 . S
O1426 C1411 1.261 . S
O1427 La1401 2.628 . S
O1427 C1411 1.243 . S
O1428 La1401 2.554 . S
O1428 C1418 1.240 . S
O1429 La1400 2.482 . S
O1429 La1401 2.757 . S
O1429 C1418 1.289 . S
O1430 La1401 2.470 . S
O1430 C1419 1.258 . S
O1431 La1400 2.503 . S
O1431 C1419 1.256 . S
H1432 C1404 0.930 . S
H1433 C1405 0.930 . S
H1434 C1407 0.929 . S
H1435 C1408 0.929 . S
H1436 C1413 0.930 . S
H1437 C1414 0.930 . S
H1438 C1416 0.929 . S
H1439 C1417 0.929 . S
C1440 C1441 1.369 . S
C1440 C1442 1.419 . S
C1440 H1444 0.930 . S
C1441 C1440 1.369 . S
C1441 C1450 1.429 . S
C1442 C1440 1.419 . S
C1442 C1443 1.363 . S
C1442 H1445 0.929 . S
C1443 C1442 1.363 . S
C1443 C1449 1.428 . S
H1444 C1440 0.930 . S
H1445 C1442 0.929 . S
S1446 N1447 1.613 . S
S1446 N1448 1.610 . S
N1447 S1446 1.613 . S
N1447 C1450 1.350 . S
N1448 S1446 1.610 . S
N1448 C1449 1.351 . S
C1449 C1443 1.428 . S
C1449 N1448 1.351 . S
C1449 C1450 1.434 . S
C1450 C1441 1.429 . S
C1450 N1447 1.350 . S
C1450 C1449 1.434 . S
C1451 C1452 1.369 . S
C1451 C1453 1.419 . S
C1451 H1455 0.930 . S
C1452 C1451 1.369 . S
C1452 C1461 1.429 . S
C1453 C1451 1.419 . S
C1453 C1454 1.363 . S
C1453 H1456 0.929 . S
C1454 C1453 1.363 . S
C1454 C1460 1.428 . S
H1455 C1451 0.930 . S
H1456 C1453 0.929 . S
S1457 N1458 1.613 . S
S1457 N1459 1.610 . S
N1458 S1457 1.613 . S
N1458 C1461 1.350 . S
N1459 S1457 1.610 . S
N1459 C1460 1.351 . S
C1460 C1454 1.428 . S
C1460 N1459 1.351 . S
C1460 C1461 1.434 . S
C1461 C1452 1.429 . S
C1461 N1458 1.350 . S
C1461 C1460 1.434 . S
C1462 C1463 1.369 . S
C1462 C1464 1.419 . S
C1462 H1466 0.930 . S
C1463 C1462 1.369 . S
C1463 C1472 1.429 . S
C1464 C1462 1.419 . S
C1464 C1465 1.363 . S
C1464 H1467 0.929 . S
C1465 C1464 1.363 . S
C1465 C1471 1.428 . S
H1466 C1462 0.930 . S
H1467 C1464 0.929 . S
S1468 N1469 1.613 . S
S1468 N1470 1.610 . S
N1469 S1468 1.613 . S
N1469 C1472 1.350 . S
N1470 S1468 1.610 . S
N1470 C1471 1.351 . S
C1471 C1465 1.428 . S
C1471 N1470 1.351 . S
C1471 C1472 1.434 . S
C1472 C1463 1.429 . S
C1472 N1469 1.350 . S
C1472 C1471 1.434 . S
C1473 C1474 1.369 . S
C1473 C1475 1.419 . S
C1473 H1477 0.930 . S
C1474 C1473 1.369 . S
C1474 C1483 1.429 . S
C1475 C1473 1.419 . S
C1475 C1476 1.363 . S
C1475 H1478 0.929 . S
C1476 C1475 1.363 . S
C1476 C1482 1.428 . S
H1477 C1473 0.930 . S
H1478 C1475 0.929 . S
S1479 N1480 1.613 . S
S1479 N1481 1.610 . S
N1480 S1479 1.613 . S
N1480 C1483 1.350 . S
N1481 S1479 1.610 . S
N1481 C1482 1.351 . S
C1482 C1476 1.428 . S
C1482 N1481 1.351 . S
C1482 C1483 1.434 . S
C1483 C1474 1.429 . S
C1483 N1480 1.350 . S
C1483 C1482 1.434 . S
C1484 C1485 1.369 . S
C1484 C1486 1.419 . S
C1484 H1488 0.930 . S
C1485 C1484 1.369 . S
C1485 C1494 1.429 . S
C1486 C1484 1.419 . S
C1486 C1487 1.363 . S
C1486 H1489 0.929 . S
C1487 C1486 1.363 . S
C1487 C1493 1.428 . S
H1488 C1484 0.930 . S
H1489 C1486 0.929 . S
S1490 N1491 1.613 . S
S1490 N1492 1.610 . S
N1491 S1490 1.613 . S
N1491 C1494 1.350 . S
N1492 S1490 1.610 . S
N1492 C1493 1.351 . S
C1493 C1487 1.428 . S
C1493 N1492 1.351 . S
C1493 C1494 1.434 . S
C1494 C1485 1.429 . S
C1494 N1491 1.350 . S
C1494 C1493 1.434 . S
C1495 C1496 1.369 . S
C1495 C1497 1.419 . S
C1495 H1499 0.930 . S
C1496 C1495 1.369 . S
C1496 C1505 1.429 . S
C1497 C1495 1.419 . S
C1497 C1498 1.363 . S
C1497 H1500 0.929 . S
C1498 C1497 1.363 . S
C1498 C1504 1.428 . S
H1499 C1495 0.930 . S
H1500 C1497 0.929 . S
S1501 N1502 1.613 . S
S1501 N1503 1.610 1_665 S
N1502 S1501 1.613 . S
N1502 C1505 1.350 1_655 S
N1503 S1501 1.610 1_445 S
N1503 C1504 1.351 1_545 S
C1504 C1498 1.428 . S
C1504 N1503 1.351 1_565 S
C1504 C1505 1.434 . S
C1505 C1496 1.429 . S
C1505 N1502 1.350 1_455 S
C1505 C1504 1.434 . S
C1506 C1507 1.369 . S
C1506 C1508 1.419 . S
C1506 H1510 0.930 . S
C1507 C1506 1.369 . S
C1507 C1516 1.429 . S
C1508 C1506 1.419 . S
C1508 C1509 1.363 . S
C1508 H1511 0.929 . S
C1509 C1508 1.363 . S
C1509 C1515 1.428 . S
H1510 C1506 0.930 . S
H1511 C1508 0.929 . S
S1512 N1513 1.613 . S
S1512 N1514 1.610 1_565 S
N1513 S1512 1.613 . S
N1513 C1516 1.350 . S
N1514 S1512 1.610 1_545 S
N1514 C1515 1.351 1_545 S
C1515 C1509 1.428 . S
C1515 N1514 1.351 1_565 S
C1515 C1516 1.434 . S
C1516 C1507 1.429 . S
C1516 N1513 1.350 . S
C1516 C1515 1.434 . S
C1517 C1518 1.369 . S
C1517 C1519 1.419 . S
C1517 H1521 0.930 . S
C1518 C1517 1.369 . S
C1518 C1527 1.429 . S
C1519 C1517 1.419 . S
C1519 C1520 1.363 . S
C1519 H1522 0.929 . S
C1520 C1519 1.363 . S
C1520 C1526 1.428 . S
H1521 C1517 0.930 . S
H1522 C1519 0.929 . S
S1523 N1524 1.613 . S
S1523 N1525 1.610 . S
N1524 S1523 1.613 . S
N1524 C1527 1.350 . S
N1525 S1523 1.610 . S
N1525 C1526 1.351 . S
C1526 C1520 1.428 . S
C1526 N1525 1.351 . S
C1526 C1527 1.434 . S
C1527 C1518 1.429 . S
C1527 N1524 1.350 . S
C1527 C1526 1.434 . S
C1528 C1529 1.369 . S
C1528 C1530 1.419 . S
C1528 H1532 0.930 . S
C1529 C1528 1.369 . S
C1529 C1538 1.429 . S
C1530 C1528 1.419 . S
C1530 C1531 1.363 . S
C1530 H1533 0.929 . S
C1531 C1530 1.363 . S
C1531 C1537 1.428 . S
H1532 C1528 0.930 . S
H1533 C1530 0.929 . S
S1534 N1535 1.613 . S
S1534 N1536 1.610 . S
N1535 S1534 1.613 . S
N1535 C1538 1.350 . S
N1536 S1534 1.610 . S
N1536 C1537 1.351 . S
C1537 C1531 1.428 . S
C1537 N1536 1.351 . S
C1537 C1538 1.434 . S
C1538 C1529 1.429 . S
C1538 N1535 1.350 . S
C1538 C1537 1.434 . S
C1539 C1540 1.369 . S
C1539 C1541 1.419 . S
C1539 H1543 0.930 . S
C1540 C1539 1.369 . S
C1540 C1549 1.429 . S
C1541 C1539 1.419 . S
C1541 C1542 1.363 . S
C1541 H1544 0.929 . S
C1542 C1541 1.363 . S
C1542 C1548 1.428 . S
H1543 C1539 0.930 . S
H1544 C1541 0.929 . S
S1545 N1546 1.613 . S
S1545 N1547 1.610 . S
N1546 S1545 1.613 . S
N1546 C1549 1.350 . S
N1547 S1545 1.610 . S
N1547 C1548 1.351 . S
C1548 C1542 1.428 . S
C1548 N1547 1.351 . S
C1548 C1549 1.434 . S
C1549 C1540 1.429 . S
C1549 N1546 1.350 . S
C1549 C1548 1.434 . S
C1550 C1551 1.369 . S
C1550 C1552 1.419 . S
C1550 H1554 0.930 . S
C1551 C1550 1.369 . S
C1551 C1560 1.429 . S
C1552 C1550 1.419 . S
C1552 C1553 1.363 . S
C1552 H1555 0.929 . S
C1553 C1552 1.363 . S
C1553 C1559 1.428 . S
H1554 C1550 0.930 . S
H1555 C1552 0.929 . S
S1556 N1557 1.613 . S
S1556 N1558 1.610 1_545 S
N1557 S1556 1.613 . S
N1557 C1560 1.350 . S
N1558 S1556 1.610 1_565 S
N1558 C1559 1.351 1_565 S
C1559 C1553 1.428 . S
C1559 N1558 1.351 1_545 S
C1559 C1560 1.434 . S
C1560 C1551 1.429 . S
C1560 N1557 1.350 . S
C1560 C1559 1.434 . S
C1561 C1562 1.369 . S
C1561 C1563 1.419 . S
C1561 H1565 0.930 . S
C1562 C1561 1.369 . S
C1562 C1571 1.429 . S
C1563 C1561 1.419 . S
C1563 C1564 1.363 . S
C1563 H1566 0.929 . S
C1564 C1563 1.363 . S
C1564 C1570 1.428 . S
H1565 C1561 0.930 . S
H1566 C1563 0.929 . S
S1567 N1568 1.613 . S
S1567 N1569 1.610 . S
N1568 S1567 1.613 . S
N1568 C1571 1.350 . S
N1569 S1567 1.610 . S
N1569 C1570 1.351 . S
C1570 C1564 1.428 . S
C1570 N1569 1.351 . S
C1570 C1571 1.434 . S
C1571 C1562 1.429 . S
C1571 N1568 1.350 . S
C1571 C1570 1.434 . S
C1572 C1573 1.369 . S
C1572 C1574 1.419 . S
C1572 H1576 0.930 . S
C1573 C1572 1.369 . S
C1573 C1582 1.429 . S
C1574 C1572 1.419 . S
C1574 C1575 1.363 . S
C1574 H1577 0.929 . S
C1575 C1574 1.363 . S
C1575 C1581 1.428 . S
H1576 C1572 0.930 . S
H1577 C1574 0.929 . S
S1578 N1579 1.613 . S
S1578 N1580 1.610 . S
N1579 S1578 1.613 . S
N1579 C1582 1.350 . S
N1580 S1578 1.610 . S
N1580 C1581 1.351 . S
C1581 C1575 1.428 . S
C1581 N1580 1.351 . S
C1581 C1582 1.434 . S
C1582 C1573 1.429 . S
C1582 N1579 1.350 . S
C1582 C1581 1.434 . S
C1583 C1584 1.369 . S
C1583 C1585 1.419 . S
C1583 H1587 0.930 . S
C1584 C1583 1.369 . S
C1584 C1593 1.429 . S
C1585 C1583 1.419 . S
C1585 C1586 1.363 . S
C1585 H1588 0.929 . S
C1586 C1585 1.363 . S
C1586 C1592 1.428 . S
H1587 C1583 0.930 . S
H1588 C1585 0.929 . S
S1589 N1590 1.613 . S
S1589 N1591 1.610 . S
N1590 S1589 1.613 . S
N1590 C1593 1.350 . S
N1591 S1589 1.610 . S
N1591 C1592 1.351 . S
C1592 C1586 1.428 . S
C1592 N1591 1.351 . S
C1592 C1593 1.434 . S
C1593 C1584 1.429 . S
C1593 N1590 1.350 . S
C1593 C1592 1.434 . S
C1594 C1595 1.369 . S
C1594 C1596 1.419 . S
C1594 H1598 0.930 . S
C1595 C1594 1.369 . S
C1595 C1604 1.429 . S
C1596 C1594 1.419 . S
C1596 C1597 1.363 . S
C1596 H1599 0.929 . S
C1597 C1596 1.363 . S
C1597 C1603 1.428 . S
H1598 C1594 0.930 . S
H1599 C1596 0.929 . S
S1600 N1601 1.613 . S
S1600 N1602 1.610 . S
N1601 S1600 1.613 . S
N1601 C1604 1.350 . S
N1602 S1600 1.610 . S
N1602 C1603 1.351 . S
C1603 C1597 1.428 . S
C1603 N1602 1.351 . S
C1603 C1604 1.434 . S
C1604 C1595 1.429 . S
C1604 N1601 1.350 . S
C1604 C1603 1.434 . S
C1605 C1606 1.369 . S
C1605 C1607 1.419 . S
C1605 H1609 0.930 . S
C1606 C1605 1.369 . S
C1606 C1615 1.429 . S
C1607 C1605 1.419 . S
C1607 C1608 1.363 . S
C1607 H1610 0.929 . S
C1608 C1607 1.363 . S
C1608 C1614 1.428 . S
H1609 C1605 0.930 . S
H1610 C1607 0.929 . S
S1611 N1612 1.613 . S
S1611 N1613 1.610 . S
N1612 S1611 1.613 . S
N1612 C1615 1.350 . S
N1613 S1611 1.610 . S
N1613 C1614 1.351 . S
C1614 C1608 1.428 . S
C1614 N1613 1.351 . S
C1614 C1615 1.434 . S
C1615 C1606 1.429 . S
C1615 N1612 1.350 . S
C1615 C1614 1.434 . S
C1616 C1617 1.369 . S
C1616 C1618 1.419 . S
C1616 H1620 0.930 . S
C1617 C1616 1.369 . S
C1617 C1626 1.429 . S
C1618 C1616 1.419 . S
C1618 C1619 1.363 . S
C1618 H1621 0.929 . S
C1619 C1618 1.363 . S
C1619 C1625 1.428 . S
H1620 C1616 0.930 . S
H1621 C1618 0.929 . S
S1622 N1623 1.613 . S
S1622 N1624 1.610 . S
N1623 S1622 1.613 . S
N1623 C1626 1.350 . S
N1624 S1622 1.610 . S
N1624 C1625 1.351 . S
C1625 C1619 1.428 . S
C1625 N1624 1.351 . S
C1625 C1626 1.434 . S
C1626 C1617 1.429 . S
C1626 N1623 1.350 . S
C1626 C1625 1.434 . S
C1627 C1628 1.369 . S
C1627 C1629 1.419 . S
C1627 H1631 0.930 . S
C1628 C1627 1.369 . S
C1628 C1637 1.429 . S
C1629 C1627 1.419 . S
C1629 C1630 1.363 . S
C1629 H1632 0.929 . S
C1630 C1629 1.363 . S
C1630 C1636 1.428 . S
H1631 C1627 0.930 . S
H1632 C1629 0.929 . S
S1633 N1634 1.613 . S
S1633 N1635 1.610 . S
N1634 S1633 1.613 . S
N1634 C1637 1.350 . S
N1635 S1633 1.610 . S
N1635 C1636 1.351 . S
C1636 C1630 1.428 . S
C1636 N1635 1.351 . S
C1636 C1637 1.434 . S
C1637 C1628 1.429 . S
C1637 N1634 1.350 . S
C1637 C1636 1.434 . S
C1638 C1639 1.369 . S
C1638 C1640 1.419 . S
C1638 H1642 0.930 . S
C1639 C1638 1.369 . S
C1639 C1648 1.429 . S
C1640 C1638 1.419 . S
C1640 C1641 1.363 . S
C1640 H1643 0.929 . S
C1641 C1640 1.363 . S
C1641 C1647 1.428 . S
H1642 C1638 0.930 . S
H1643 C1640 0.929 . S
S1644 N1645 1.613 . S
S1644 N1646 1.610 . S
N1645 S1644 1.613 . S
N1645 C1648 1.350 . S
N1646 S1644 1.610 . S
N1646 C1647 1.351 . S
C1647 C1641 1.428 . S
C1647 N1646 1.351 . S
C1647 C1648 1.434 . S
C1648 C1639 1.429 . S
C1648 N1645 1.350 . S
C1648 C1647 1.434 . S
C1649 C1650 1.369 . S
C1649 C1651 1.419 . S
C1649 H1653 0.930 . S
C1650 C1649 1.369 . S
C1650 C1659 1.429 . S
C1651 C1649 1.419 . S
C1651 C1652 1.363 . S
C1651 H1654 0.929 . S
C1652 C1651 1.363 . S
C1652 C1658 1.428 . S
H1653 C1649 0.930 . S
H1654 C1651 0.929 . S
S1655 N1656 1.613 . S
S1655 N1657 1.610 . S
N1656 S1655 1.613 . S
N1656 C1659 1.350 . S
N1657 S1655 1.610 . S
N1657 C1658 1.351 . S
C1658 C1652 1.428 . S
C1658 N1657 1.351 . S
C1658 C1659 1.434 . S
C1659 C1650 1.429 . S
C1659 N1656 1.350 . S
C1659 C1658 1.434 . S
C1660 C1661 1.369 . S
C1660 C1662 1.419 . S
C1660 H1664 0.930 . S
C1661 C1660 1.369 . S
C1661 C1670 1.429 . S
C1662 C1660 1.419 . S
C1662 C1663 1.363 . S
C1662 H1665 0.929 . S
C1663 C1662 1.363 . S
C1663 C1669 1.428 . S
H1664 C1660 0.930 . S
H1665 C1662 0.929 . S
S1666 N1667 1.613 . S
S1666 N1668 1.610 . S
N1667 S1666 1.613 . S
N1667 C1670 1.350 . S
N1668 S1666 1.610 . S
N1668 C1669 1.351 . S
C1669 C1663 1.428 . S
C1669 N1668 1.351 . S
C1669 C1670 1.434 . S
C1670 C1661 1.429 . S
C1670 N1667 1.350 . S
C1670 C1669 1.434 . S
C1671 C1672 1.369 . S
C1671 C1673 1.419 . S
C1671 H1675 0.930 . S
C1672 C1671 1.369 . S
C1672 C1681 1.429 . S
C1673 C1671 1.419 . S
C1673 C1674 1.363 . S
C1673 H1676 0.929 . S
C1674 C1673 1.363 . S
C1674 C1680 1.428 . S
H1675 C1671 0.930 . S
H1676 C1673 0.929 . S
S1677 N1678 1.613 . S
S1677 N1679 1.610 . S
N1678 S1677 1.613 . S
N1678 C1681 1.350 . S
N1679 S1677 1.610 . S
N1679 C1680 1.351 . S
C1680 C1674 1.428 . S
C1680 N1679 1.351 . S
C1680 C1681 1.434 . S
C1681 C1672 1.429 . S
C1681 N1678 1.350 . S
C1681 C1680 1.434 . S
C1682 C1683 1.369 . S
C1682 C1684 1.419 . S
C1682 H1686 0.930 . S
C1683 C1682 1.369 . S
C1683 C1692 1.429 1_554 S
C1684 C1682 1.419 . S
C1684 C1685 1.363 . S
C1684 H1687 0.929 . S
C1685 C1684 1.363 . S
C1685 C1691 1.428 1_554 S
H1686 C1682 0.930 . S
H1687 C1684 0.929 . S
S1688 N1689 1.613 . S
S1688 N1690 1.610 . S
N1689 S1688 1.613 . S
N1689 C1692 1.350 . S
N1690 S1688 1.610 . S
N1690 C1691 1.351 . S
C1691 C1685 1.428 1_556 S
C1691 N1690 1.351 . S
C1691 C1692 1.434 . S
C1692 C1683 1.429 1_556 S
C1692 N1689 1.350 . S
C1692 C1691 1.434 . S
C1693 C1694 1.369 . S
C1693 C1695 1.419 . S
C1693 H1697 0.930 . S
C1694 C1693 1.369 . S
C1694 C1703 1.429 1_554 S
C1695 C1693 1.419 . S
C1695 C1696 1.363 . S
C1695 H1698 0.929 . S
C1696 C1695 1.363 . S
C1696 C1702 1.428 1_554 S
H1697 C1693 0.930 . S
H1698 C1695 0.929 . S
S1699 N1700 1.613 . S
S1699 N1701 1.610 . S
N1700 S1699 1.613 . S
N1700 C1703 1.350 . S
N1701 S1699 1.610 . S
N1701 C1702 1.351 . S
C1702 C1696 1.428 1_556 S
C1702 N1701 1.351 . S
C1702 C1703 1.434 . S
C1703 C1694 1.429 1_556 S
C1703 N1700 1.350 . S
C1703 C1702 1.434 . S
C1704 C1705 1.369 . S
C1704 C1706 1.419 . S
C1704 H1708 0.930 . S
C1705 C1704 1.369 . S
C1705 C1714 1.429 . S
C1706 C1704 1.419 . S
C1706 C1707 1.363 . S
C1706 H1709 0.929 . S
C1707 C1706 1.363 . S
C1707 C1713 1.428 . S
H1708 C1704 0.930 . S
H1709 C1706 0.929 . S
S1710 N1711 1.613 . S
S1710 N1712 1.610 . S
N1711 S1710 1.613 . S
N1711 C1714 1.350 . S
N1712 S1710 1.610 . S
N1712 C1713 1.351 . S
C1713 C1707 1.428 . S
C1713 N1712 1.351 . S
C1713 C1714 1.434 . S
C1714 C1705 1.429 . S
C1714 N1711 1.350 . S
C1714 C1713 1.434 . S
C1715 C1716 1.369 . S
C1715 C1717 1.419 . S
C1715 H1719 0.930 . S
C1716 C1715 1.369 . S
C1716 C1725 1.429 . S
C1717 C1715 1.419 . S
C1717 C1718 1.363 . S
C1717 H1720 0.929 . S
C1718 C1717 1.363 . S
C1718 C1724 1.428 . S
H1719 C1715 0.930 . S
H1720 C1717 0.929 . S
S1721 N1722 1.613 . S
S1721 N1723 1.610 . S
N1722 S1721 1.613 . S
N1722 C1725 1.350 . S
N1723 S1721 1.610 . S
N1723 C1724 1.351 . S
C1724 C1718 1.428 . S
C1724 N1723 1.351 . S
C1724 C1725 1.434 . S
C1725 C1716 1.429 . S
C1725 N1722 1.350 . S
C1725 C1724 1.434 . S
C1726 C1727 1.369 . S
C1726 C1728 1.419 . S
C1726 H1730 0.930 . S
C1727 C1726 1.369 . S
C1727 C1736 1.429 . S
C1728 C1726 1.419 . S
C1728 C1729 1.363 . S
C1728 H1731 0.929 . S
C1729 C1728 1.363 . S
C1729 C1735 1.428 . S
H1730 C1726 0.930 . S
H1731 C1728 0.929 . S
S1732 N1733 1.613 . S
S1732 N1734 1.610 . S
N1733 S1732 1.613 . S
N1733 C1736 1.350 . S
N1734 S1732 1.610 . S
N1734 C1735 1.351 . S
C1735 C1729 1.428 . S
C1735 N1734 1.351 . S
C1735 C1736 1.434 . S
C1736 C1727 1.429 . S
C1736 N1733 1.350 . S
C1736 C1735 1.434 . S
C1737 C1738 1.369 1_554 S
C1737 C1739 1.419 . S
C1737 H1741 0.930 . S
C1738 C1737 1.369 1_556 S
C1738 C1747 1.429 . S
C1739 C1737 1.419 . S
C1739 C1740 1.363 1_554 S
C1739 H1742 0.929 . S
C1740 C1739 1.363 1_556 S
C1740 C1746 1.428 . S
H1741 C1737 0.930 . S
H1742 C1739 0.929 . S
S1743 N1744 1.613 . S
S1743 N1745 1.610 . S
N1744 S1743 1.613 . S
N1744 C1747 1.350 . S
N1745 S1743 1.610 . S
N1745 C1746 1.351 . S
C1746 C1740 1.428 . S
C1746 N1745 1.351 . S
C1746 C1747 1.434 . S
C1747 C1738 1.429 . S
C1747 N1744 1.350 . S
C1747 C1746 1.434 . S
C1748 C1749 1.369 . S
C1748 C1750 1.419 . S
C1748 H1752 0.930 . S
C1749 C1748 1.369 . S
C1749 C1758 1.429 1_556 S
C1750 C1748 1.419 . S
C1750 C1751 1.363 . S
C1750 H1753 0.929 . S
C1751 C1750 1.363 . S
C1751 C1757 1.428 1_556 S
H1752 C1748 0.930 . S
H1753 C1750 0.929 . S
S1754 N1755 1.613 . S
S1754 N1756 1.610 . S
N1755 S1754 1.613 . S
N1755 C1758 1.350 . S
N1756 S1754 1.610 . S
N1756 C1757 1.351 . S
C1757 C1751 1.428 1_554 S
C1757 N1756 1.351 . S
C1757 C1758 1.434 . S
C1758 C1749 1.429 1_554 S
C1758 N1755 1.350 . S
C1758 C1757 1.434 . S
C1759 C1760 1.353 1_554 S
C1759 C1761 1.410 1_554 S
C1759 H1763 0.963 . S
C1760 C1759 1.353 1_556 S
C1760 C1769 1.429 . S
C1761 C1759 1.410 1_556 S
C1761 C1762 1.378 . S
C1761 H1764 0.920 1_556 S
C1762 C1761 1.378 . S
C1762 C1768 1.428 . S
H1763 C1759 0.963 . S
H1764 C1761 0.920 1_554 S
S1765 N1766 1.613 . S
S1765 N1767 1.610 . S
N1766 S1765 1.613 . S
N1766 C1769 1.350 . S
N1767 S1765 1.610 . S
N1767 C1768 1.351 . S
C1768 C1762 1.428 . S
C1768 N1767 1.351 . S
C1768 C1769 1.434 . S
C1769 C1760 1.429 . S
C1769 N1766 1.350 . S
C1769 C1768 1.434 . S
C1770 C1771 1.369 . S
C1770 C1772 1.419 . S
C1770 H1774 0.930 . S
C1771 C1770 1.369 . S
C1771 C1780 1.429 . S
C1772 C1770 1.419 . S
C1772 C1773 1.363 . S
C1772 H1775 0.929 . S
C1773 C1772 1.363 . S
C1773 C1779 1.428 . S
H1774 C1770 0.930 . S
H1775 C1772 0.929 . S
S1776 N1777 1.613 . S
S1776 N1778 1.610 . S
N1777 S1776 1.613 . S
N1777 C1780 1.350 . S
N1778 S1776 1.610 . S
N1778 C1779 1.351 . S
C1779 C1773 1.428 . S
C1779 N1778 1.351 . S
C1779 C1780 1.434 . S
C1780 C1771 1.429 . S
C1780 N1777 1.350 . S
C1780 C1779 1.434 . S
C1781 C1782 1.369 . S
C1781 C1783 1.419 . S
C1781 H1785 0.930 . S
C1782 C1781 1.369 . S
C1782 C1791 1.429 . S
C1783 C1781 1.419 . S
C1783 C1784 1.363 . S
C1783 H1786 0.929 . S
C1784 C1783 1.363 . S
C1784 C1790 1.428 . S
H1785 C1781 0.930 . S
H1786 C1783 0.929 . S
S1787 N1788 1.613 . S
S1787 N1789 1.610 . S
N1788 S1787 1.613 . S
N1788 C1791 1.350 . S
N1789 S1787 1.610 . S
N1789 C1790 1.351 . S
C1790 C1784 1.428 . S
C1790 N1789 1.351 . S
C1790 C1791 1.434 . S
C1791 C1782 1.429 . S
C1791 N1788 1.350 . S
C1791 C1790 1.434 . S
C1792 C1793 1.369 . S
C1792 C1794 1.419 . S
C1792 H1796 0.930 . S
C1793 C1792 1.369 . S
C1793 C1802 1.429 . S
C1794 C1792 1.419 . S
C1794 C1795 1.363 . S
C1794 H1797 0.929 . S
C1795 C1794 1.363 . S
C1795 C1801 1.428 . S
H1796 C1792 0.930 . S
H1797 C1794 0.929 . S
S1798 N1799 1.613 . S
S1798 N1800 1.610 . S
N1799 S1798 1.613 . S
N1799 C1802 1.350 . S
N1800 S1798 1.610 . S
N1800 C1801 1.351 . S
C1801 C1795 1.428 . S
C1801 N1800 1.351 . S
C1801 C1802 1.434 . S
C1802 C1793 1.429 . S
C1802 N1799 1.350 . S
C1802 C1801 1.434 . S
C1803 C1804 1.369 . S
C1803 C1805 1.419 . S
C1803 H1807 0.930 . S
C1804 C1803 1.369 . S
C1804 C1813 1.429 . S
C1805 C1803 1.419 . S
C1805 C1806 1.363 . S
C1805 H1808 0.929 . S
C1806 C1805 1.363 . S
C1806 C1812 1.428 . S
H1807 C1803 0.930 . S
H1808 C1805 0.929 . S
S1809 N1810 1.613 . S
S1809 N1811 1.610 . S
N1810 S1809 1.613 . S
N1810 C1813 1.350 . S
N1811 S1809 1.610 . S
N1811 C1812 1.351 . S
C1812 C1806 1.428 . S
C1812 N1811 1.351 . S
C1812 C1813 1.434 . S
C1813 C1804 1.429 . S
C1813 N1810 1.350 . S
C1813 C1812 1.434 . S
C1814 C1815 1.369 . S
C1814 C1816 1.419 . S
C1814 H1818 0.930 . S
C1815 C1814 1.369 . S
C1815 C1824 1.429 . S
C1816 C1814 1.419 . S
C1816 C1817 1.363 . S
C1816 H1819 0.929 . S
C1817 C1816 1.363 . S
C1817 C1823 1.428 . S
H1818 C1814 0.930 . S
H1819 C1816 0.929 . S
S1820 N1821 1.613 . S
S1820 N1822 1.610 . S
N1821 S1820 1.613 . S
N1821 C1824 1.350 . S
N1822 S1820 1.610 . S
N1822 C1823 1.351 . S
C1823 C1817 1.428 . S
C1823 N1822 1.351 . S
C1823 C1824 1.434 . S
C1824 C1815 1.429 . S
C1824 N1821 1.350 . S
C1824 C1823 1.434 . S
C1825 C1826 1.369 . S
C1825 C1827 1.419 . S
C1825 H1829 0.930 . S
C1826 C1825 1.369 . S
C1826 C1835 1.429 . S
C1827 C1825 1.419 . S
C1827 C1828 1.363 . S
C1827 H1830 0.929 . S
C1828 C1827 1.363 . S
C1828 C1834 1.428 . S
H1829 C1825 0.930 . S
H1830 C1827 0.929 . S
S1831 N1832 1.613 . S
S1831 N1833 1.610 . S
N1832 S1831 1.613 . S
N1832 C1835 1.350 . S
N1833 S1831 1.610 . S
N1833 C1834 1.351 . S
C1834 C1828 1.428 . S
C1834 N1833 1.351 . S
C1834 C1835 1.434 . S
C1835 C1826 1.429 . S
C1835 N1832 1.350 . S
C1835 C1834 1.434 . S
C1836 C1837 1.369 . S
C1836 C1838 1.419 . S
C1836 H1840 0.930 . S
C1837 C1836 1.369 . S
C1837 C1846 1.429 . S
C1838 C1836 1.419 . S
C1838 C1839 1.363 . S
C1838 H1841 0.929 . S
C1839 C1838 1.363 . S
C1839 C1845 1.428 . S
H1840 C1836 0.930 . S
H1841 C1838 0.929 . S
S1842 N1843 1.613 . S
S1842 N1844 1.610 . S
N1843 S1842 1.613 . S
N1843 C1846 1.350 . S
N1844 S1842 1.610 . S
N1844 C1845 1.351 . S
C1845 C1839 1.428 . S
C1845 N1844 1.351 . S
C1845 C1846 1.434 . S
C1846 C1837 1.429 . S
C1846 N1843 1.350 . S
C1846 C1845 1.434 . S
C1847 C1848 1.369 . S
C1847 C1849 1.419 . S
C1847 H1851 0.930 . S
C1848 C1847 1.369 . S
C1848 C1857 1.429 . S
C1849 C1847 1.419 . S
C1849 C1850 1.363 . S
C1849 H1852 0.929 . S
C1850 C1849 1.363 . S
C1850 C1856 1.428 . S
H1851 C1847 0.930 . S
H1852 C1849 0.929 . S
S1853 N1854 1.613 . S
S1853 N1855 1.610 1_545 S
N1854 S1853 1.613 . S
N1854 C1857 1.350 1_545 S
N1855 S1853 1.610 1_565 S
N1855 C1856 1.351 . S
C1856 C1850 1.428 . S
C1856 N1855 1.351 . S
C1856 C1857 1.434 . S
C1857 C1848 1.429 . S
C1857 N1854 1.350 1_565 S
C1857 C1856 1.434 . S
C1858 C1859 1.369 . S
C1858 C1860 1.419 1_455 S
C1858 H1862 0.930 . S
C1859 C1858 1.369 . S
C1859 C1868 1.429 . S
C1860 C1858 1.419 1_655 S
C1860 C1861 1.363 1_655 S
C1860 H1863 0.929 . S
C1861 C1860 1.363 1_455 S
C1861 C1867 1.428 . S
H1862 C1858 0.930 . S
H1863 C1860 0.929 . S
S1864 N1865 1.613 . S
S1864 N1866 1.610 . S
N1865 S1864 1.613 . S
N1865 C1868 1.350 . S
N1866 S1864 1.610 . S
N1866 C1867 1.351 . S
C1867 C1861 1.428 . S
C1867 N1866 1.351 . S
C1867 C1868 1.434 . S
C1868 C1859 1.429 . S
C1868 N1865 1.350 . S
C1868 C1867 1.434 . S
C1869 C1870 1.369 . S
C1869 C1871 1.419 . S
C1869 H1873 0.930 . S
C1870 C1869 1.369 . S
C1870 C1879 1.429 . S
C1871 C1869 1.419 . S
C1871 C1872 1.363 . S
C1871 H1874 0.929 . S
C1872 C1871 1.363 . S
C1872 C1878 1.428 . S
H1873 C1869 0.930 . S
H1874 C1871 0.929 . S
S1875 N1876 1.613 . S
S1875 N1877 1.610 . S
N1876 S1875 1.613 . S
N1876 C1879 1.350 . S
N1877 S1875 1.610 . S
N1877 C1878 1.351 . S
C1878 C1872 1.428 . S
C1878 N1877 1.351 . S
C1878 C1879 1.434 . S
C1879 C1870 1.429 . S
C1879 N1876 1.350 . S
C1879 C1878 1.434 . S
C1880 C1881 1.369 . S
C1880 C1882 1.419 . S
C1880 H1884 0.930 . S
C1881 C1880 1.369 . S
C1881 C1890 1.429 . S
C1882 C1880 1.419 . S
C1882 C1883 1.363 . S
C1882 H1885 0.929 . S
C1883 C1882 1.363 . S
C1883 C1889 1.428 . S
H1884 C1880 0.930 . S
H1885 C1882 0.929 . S
S1886 N1887 1.613 . S
S1886 N1888 1.610 1_565 S
N1887 S1886 1.613 . S
N1887 C1890 1.350 1_565 S
N1888 S1886 1.610 1_545 S
N1888 C1889 1.351 . S
C1889 C1883 1.428 . S
C1889 N1888 1.351 . S
C1889 C1890 1.434 . S
C1890 C1881 1.429 . S
C1890 N1887 1.350 1_545 S
C1890 C1889 1.434 . S
C1891 C1892 1.369 . S
C1891 C1893 1.419 . S
C1891 H1895 0.930 . S
C1892 C1891 1.369 . S
C1892 C1901 1.429 . S
C1893 C1891 1.419 . S
C1893 C1894 1.363 . S
C1893 H1896 0.929 . S
C1894 C1893 1.363 . S
C1894 C1900 1.428 1_655 S
H1895 C1891 0.930 . S
H1896 C1893 0.929 . S
S1897 N1898 1.613 . S
S1897 N1899 1.610 . S
N1898 S1897 1.613 . S
N1898 C1901 1.350 1_455 S
N1899 S1897 1.610 . S
N1899 C1900 1.351 . S
C1900 C1894 1.428 1_455 S
C1900 N1899 1.351 . S
C1900 C1901 1.434 1_455 S
C1901 C1892 1.429 . S
C1901 N1898 1.350 1_655 S
C1901 C1900 1.434 1_655 S
C1902 C1903 1.369 . S
C1902 C1904 1.419 . S
C1902 H1906 0.930 . S
C1903 C1902 1.369 . S
C1903 C1912 1.429 . S
C1904 C1902 1.419 . S
C1904 C1905 1.363 . S
C1904 H1907 0.929 . S
C1905 C1904 1.363 . S
C1905 C1911 1.428 . S
H1906 C1902 0.930 . S
H1907 C1904 0.929 . S
S1908 N1909 1.613 . S
S1908 N1910 1.610 . S
N1909 S1908 1.613 . S
N1909 C1912 1.350 . S
N1910 S1908 1.610 . S
N1910 C1911 1.351 . S
C1911 C1905 1.428 . S
C1911 N1910 1.351 . S
C1911 C1912 1.434 . S
C1912 C1903 1.429 . S
C1912 N1909 1.350 . S
C1912 C1911 1.434 . S
C1913 C1914 1.369 . S
C1913 C1915 1.419 1_545 S
C1913 H1917 0.930 1_545 S
C1914 C1913 1.369 . S
C1914 C1923 1.429 . S
C1915 C1913 1.419 1_565 S
C1915 C1916 1.363 1_565 S
C1915 H1918 0.929 . S
C1916 C1915 1.363 1_545 S
C1916 C1922 1.428 . S
H1917 C1913 0.930 1_565 S
H1918 C1915 0.929 . S
S1919 N1920 1.613 . S
S1919 N1921 1.610 . S
N1920 S1919 1.613 . S
N1920 C1923 1.350 . S
N1921 S1919 1.610 . S
N1921 C1922 1.351 . S
C1922 C1916 1.428 . S
C1922 N1921 1.351 . S
C1922 C1923 1.434 . S
C1923 C1914 1.429 . S
C1923 N1920 1.350 . S
C1923 C1922 1.434 . S
C1924 C1925 1.369 . S
C1924 C1926 1.419 . S
C1924 H1928 0.930 . S
C1925 C1924 1.369 . S
C1925 C1934 1.429 . S
C1926 C1924 1.419 . S
C1926 C1927 1.363 . S
C1926 H1929 0.929 . S
C1927 C1926 1.363 . S
C1927 C1933 1.428 1_655 S
H1928 C1924 0.930 . S
H1929 C1926 0.929 . S
S1930 N1931 1.613 . S
S1930 N1932 1.610 . S
N1931 S1930 1.613 . S
N1931 C1934 1.350 1_455 S
N1932 S1930 1.610 . S
N1932 C1933 1.351 . S
C1933 C1927 1.428 1_455 S
C1933 N1932 1.351 . S
C1933 C1934 1.434 1_455 S
C1934 C1925 1.429 . S
C1934 N1931 1.350 1_655 S
C1934 C1933 1.434 1_655 S
C1935 C1936 1.369 . S
C1935 C1937 1.419 . S
C1935 H1939 0.930 . S
C1936 C1935 1.369 . S
C1936 C1945 1.429 . S
C1937 C1935 1.419 . S
C1937 C1938 1.363 . S
C1937 H1940 0.929 . S
C1938 C1937 1.363 . S
C1938 C1944 1.428 . S
H1939 C1935 0.930 . S
H1940 C1937 0.929 . S
S1941 N1942 1.613 . S
S1941 N1943 1.610 . S
N1942 S1941 1.613 . S
N1942 C1945 1.350 . S
N1943 S1941 1.610 . S
N1943 C1944 1.351 . S
C1944 C1938 1.428 . S
C1944 N1943 1.351 . S
C1944 C1945 1.434 . S
C1945 C1936 1.429 . S
C1945 N1942 1.350 . S
C1945 C1944 1.434 . S
C1946 C1947 1.369 . S
C1946 C1948 1.419 . S
C1946 H1950 0.930 . S
C1947 C1946 1.369 . S
C1947 C1956 1.429 1_565 S
C1948 C1946 1.419 . S
C1948 C1949 1.363 . S
C1948 H1951 0.929 . S
C1949 C1948 1.363 . S
C1949 C1955 1.428 . S
H1950 C1946 0.930 . S
H1951 C1948 0.929 . S
S1952 N1953 1.613 . S
S1952 N1954 1.610 . S
N1953 S1952 1.613 . S
N1953 C1956 1.350 . S
N1954 S1952 1.610 . S
N1954 C1955 1.351 1_545 S
C1955 C1949 1.428 . S
C1955 N1954 1.351 1_565 S
C1955 C1956 1.434 1_565 S
C1956 C1947 1.429 1_545 S
C1956 N1953 1.350 . S
C1956 C1955 1.434 1_545 S
C1957 C1958 1.370 1_655 S
C1957 C1959 1.409 1_655 S
C1957 H1961 0.940 . S
C1958 C1957 1.370 1_455 S
C1958 C1967 1.429 . S
C1959 C1957 1.409 1_455 S
C1959 C1960 1.363 . S
C1959 H1962 0.929 . S
C1960 C1959 1.363 . S
C1960 C1966 1.428 . S
H1961 C1957 0.940 . S
H1962 C1959 0.929 . S
S1963 N1964 1.613 . S
S1963 N1965 1.610 . S
N1964 S1963 1.613 . S
N1964 C1967 1.350 . S
N1965 S1963 1.610 . S
N1965 C1966 1.351 . S
C1966 C1960 1.428 . S
C1966 N1965 1.351 . S
C1966 C1967 1.434 . S
C1967 C1958 1.429 . S
C1967 N1964 1.350 . S
C1967 C1966 1.434 . S
C1968 C1969 1.369 1_455 S
C1968 C1970 1.419 . S
C1968 H1972 0.930 1_455 S
C1969 C1968 1.369 1_655 S
C1969 C1978 1.429 1_655 S
C1970 C1968 1.419 . S
C1970 C1971 1.363 . S
C1970 H1973 0.929 . S
C1971 C1970 1.363 . S
C1971 C1977 1.428 . S
H1972 C1968 0.930 1_655 S
H1973 C1970 0.929 . S
S1974 N1975 1.613 1_455 S
S1974 N1976 1.610 . S
N1975 S1974 1.613 1_655 S
N1975 C1978 1.350 1_655 S
N1976 S1974 1.610 . S
N1976 C1977 1.351 . S
C1977 C1971 1.428 . S
C1977 N1976 1.351 . S
C1977 C1978 1.434 . S
C1978 C1969 1.429 1_455 S
C1978 N1975 1.350 1_455 S
C1978 C1977 1.434 . S
C1979 C1980 1.369 . S
C1979 C1981 1.419 . S
C1979 H1983 0.930 . S
C1980 C1979 1.369 . S
C1980 C1989 1.429 . S
C1981 C1979 1.419 . S
C1981 C1982 1.363 . S
C1981 H1984 0.929 . S
C1982 C1981 1.363 . S
C1982 C1988 1.428 . S
H1983 C1979 0.930 . S
H1984 C1981 0.929 . S
S1985 N1986 1.613 . S
S1985 N1987 1.610 . S
N1986 S1985 1.613 . S
N1986 C1989 1.350 . S
N1987 S1985 1.610 . S
N1987 C1988 1.351 . S
C1988 C1982 1.428 . S
C1988 N1987 1.351 . S
C1988 C1989 1.434 . S
C1989 C1980 1.429 . S
C1989 N1986 1.350 . S
C1989 C1988 1.434 . S
C1990 C1991 1.369 . S
C1990 C1992 1.419 . S
C1990 H1994 0.930 . S
C1991 C1990 1.369 . S
C1991 C2000 1.429 . S
C1992 C1990 1.419 . S
C1992 C1993 1.363 1_565 S
C1992 H1995 0.929 1_565 S
C1993 C1992 1.363 1_545 S
C1993 C1999 1.428 1_545 S
H1994 C1990 0.930 . S
H1995 C1992 0.929 1_545 S
S1996 N1997 1.613 . S
S1996 N1998 1.610 1_565 S
N1997 S1996 1.613 . S
N1997 C2000 1.350 . S
N1998 S1996 1.610 1_545 S
N1998 C1999 1.351 1_545 S
C1999 C1993 1.428 1_565 S
C1999 N1998 1.351 1_565 S
C1999 C2000 1.434 . S
C2000 C1991 1.429 . S
C2000 N1997 1.350 . S
C2000 C1999 1.434 . S
C2001 C2002 1.369 . S
C2001 C2003 1.419 . S
C2001 H2005 0.930 . S
C2002 C2001 1.369 . S
C2002 C2011 1.429 . S
C2003 C2001 1.419 . S
C2003 C2004 1.363 . S
C2003 H2006 0.929 . S
C2004 C2003 1.363 . S
C2004 C2010 1.428 . S
H2005 C2001 0.930 . S
H2006 C2003 0.929 . S
S2007 N2008 1.613 1_655 S
S2007 N2009 1.610 . S
N2008 S2007 1.613 1_455 S
N2008 C2011 1.350 . S
N2009 S2007 1.610 . S
N2009 C2010 1.351 1_655 S
C2010 C2004 1.428 . S
C2010 N2009 1.351 1_455 S
C2010 C2011 1.434 . S
C2011 C2002 1.429 . S
C2011 N2008 1.350 . S
C2011 C2010 1.434 . S
C2012 C2013 1.369 . S
C2012 C2014 1.419 . S
C2012 H2016 0.930 . S
C2013 C2012 1.369 . S
C2013 C2022 1.429 . S
C2014 C2012 1.419 . S
C2014 C2015 1.363 . S
C2014 H2017 0.929 . S
C2015 C2014 1.363 . S
C2015 C2021 1.428 . S
H2016 C2012 0.930 . S
H2017 C2014 0.929 . S
S2018 N2019 1.613 . S
S2018 N2020 1.610 . S
N2019 S2018 1.613 . S
N2019 C2022 1.350 . S
N2020 S2018 1.610 . S
N2020 C2021 1.351 . S
C2021 C2015 1.428 . S
C2021 N2020 1.351 . S
C2021 C2022 1.434 . S
C2022 C2013 1.429 . S
C2022 N2019 1.350 . S
C2022 C2021 1.434 . S
C2023 C2024 1.369 . S
C2023 C2025 1.419 . S
C2023 H2027 0.930 . S
C2024 C2023 1.369 . S
C2024 C2033 1.429 . S
C2025 C2023 1.419 . S
C2025 C2026 1.363 . S
C2025 H2028 0.929 1_565 S
C2026 C2025 1.363 . S
C2026 C2032 1.428 . S
H2027 C2023 0.930 . S
H2028 C2025 0.929 1_545 S
S2029 N2030 1.613 . S
S2029 N2031 1.610 . S
N2030 S2029 1.613 . S
N2030 C2033 1.350 . S
N2031 S2029 1.610 . S
N2031 C2032 1.351 . S
C2032 C2026 1.428 . S
C2032 N2031 1.351 . S
C2032 C2033 1.434 . S
C2033 C2024 1.429 . S
C2033 N2030 1.350 . S
C2033 C2032 1.434 . S
C2034 C2035 1.369 . S
C2034 C2036 1.419 . S
C2034 H2038 0.930 . S
C2035 C2034 1.369 . S
C2035 C2044 1.429 . S
C2036 C2034 1.419 . S
C2036 C2037 1.363 . S
C2036 H2039 0.929 . S
C2037 C2036 1.363 . S
C2037 C2043 1.428 . S
H2038 C2034 0.930 . S
H2039 C2036 0.929 . S
S2040 N2041 1.613 1_545 S
S2040 N2042 1.610 . S
N2041 S2040 1.613 1_565 S
N2041 C2044 1.350 . S
N2042 S2040 1.610 . S
N2042 C2043 1.351 1_545 S
C2043 C2037 1.428 . S
C2043 N2042 1.351 1_565 S
C2043 C2044 1.434 . S
C2044 C2035 1.429 . S
C2044 N2041 1.350 . S
C2044 C2043 1.434 . S
C2045 C2046 1.369 . S
C2045 C2047 1.419 . S
C2045 H2049 0.930 1_455 S
C2046 C2045 1.369 . S
C2046 C2055 1.429 . S
C2047 C2045 1.419 . S
C2047 C2048 1.363 . S
C2047 H2050 0.929 . S
C2048 C2047 1.363 . S
C2048 C2054 1.428 . S
H2049 C2045 0.930 1_655 S
H2050 C2047 0.929 . S
S2051 N2052 1.613 . S
S2051 N2053 1.610 . S
N2052 S2051 1.613 . S
N2052 C2055 1.350 . S
N2053 S2051 1.610 . S
N2053 C2054 1.351 . S
C2054 C2048 1.428 . S
C2054 N2053 1.351 . S
C2054 C2055 1.434 . S
C2055 C2046 1.429 . S
C2055 N2052 1.350 . S
C2055 C2054 1.434 . S
C2056 C2057 1.369 . S
C2056 C2058 1.419 . S
C2056 H2060 0.930 . S
C2057 C2056 1.369 . S
C2057 C2066 1.429 . S
C2058 C2056 1.419 . S
C2058 C2059 1.363 . S
C2058 H2061 0.929 . S
C2059 C2058 1.363 . S
C2059 C2065 1.428 . S
H2060 C2056 0.930 . S
H2061 C2058 0.929 . S
S2062 N2063 1.613 . S
S2062 N2064 1.610 . S
N2063 S2062 1.613 . S
N2063 C2066 1.350 . S
N2064 S2062 1.610 . S
N2064 C2065 1.351 . S
C2065 C2059 1.428 . S
C2065 N2064 1.351 . S
C2065 C2066 1.434 . S
C2066 C2057 1.429 . S
C2066 N2063 1.350 . S
C2066 C2065 1.434 . S
C2067 C2068 1.359 1_554 S
C2067 C2069 1.402 1_554 S
C2067 H2071 0.955 . S
C2068 C2067 1.359 1_556 S
C2068 C2077 1.447 . S
C2069 C2067 1.402 1_556 S
C2069 C2070 1.397 1_565 S
C2069 H2072 0.922 1_565 S
C2070 C2069 1.397 1_545 S
C2070 C2076 1.428 . S
H2071 C2067 0.955 . S
H2072 C2069 0.922 1_545 S
S2073 N2074 1.613 . S
S2073 N2075 1.610 1_565 S
N2074 S2073 1.613 . S
N2074 C2077 1.350 . S
N2075 S2073 1.610 1_545 S
N2075 C2076 1.351 . S
C2076 C2070 1.428 . S
C2076 N2075 1.351 . S
C2076 C2077 1.434 1_545 S
C2077 C2068 1.447 . S
C2077 N2074 1.350 . S
C2077 C2076 1.434 1_565 S
C2078 C2079 1.328 1_554 S
C2078 C2080 1.419 1_455 S
C2078 H2082 0.930 . S
C2079 C2078 1.328 1_556 S
C2079 C2088 1.483 . S
C2080 C2078 1.419 1_655 S
C2080 C2081 1.363 1_554 S
C2080 H2083 0.929 . S
C2081 C2080 1.363 1_556 S
C2081 C2087 1.413 1_655 S
H2082 C2078 0.930 . S
H2083 C2080 0.929 . S
S2084 N2085 1.613 . S
S2084 N2086 1.610 1_455 S
N2085 S2084 1.613 . S
N2085 C2088 1.350 . S
N2086 S2084 1.610 1_655 S
N2086 C2087 1.350 1_655 S
C2087 C2081 1.413 1_455 S
C2087 N2086 1.350 1_455 S
C2087 C2088 1.453 . S
C2088 C2079 1.483 . S
C2088 N2085 1.350 . S
C2088 C2087 1.453 . S
C2089 C2090 1.369 1_554 S
C2089 C2091 1.419 . S
C2089 H2093 0.930 . S
C2090 C2089 1.369 1_556 S
C2090 C2099 1.429 . S
C2091 C2089 1.419 . S
C2091 C2092 1.331 1_554 S
C2091 H2094 0.929 . S
C2092 C2091 1.331 1_556 S
C2092 C2098 1.480 . S
H2093 C2089 0.930 . S
H2094 C2091 0.929 . S
S2095 N2096 1.613 . S
S2095 N2097 1.610 . S
N2096 S2095 1.613 . S
N2096 C2099 1.350 . S
N2097 S2095 1.610 . S
N2097 C2098 1.351 . S
C2098 C2092 1.480 . S
C2098 N2097 1.351 . S
C2098 C2099 1.434 . S
C2099 C2090 1.429 . S
C2099 N2096 1.350 . S
C2099 C2098 1.434 . S
C2100 C2101 1.369 . S
C2100 C2102 1.419 . S
C2100 H2104 0.930 . S
C2101 C2100 1.369 . S
C2101 C2110 1.429 . S
C2102 C2100 1.419 . S
C2102 C2103 1.363 . S
C2102 H2105 0.929 . S
C2103 C2102 1.363 . S
C2103 C2109 1.428 . S
H2104 C2100 0.930 . S
H2105 C2102 0.929 . S
S2106 N2107 1.613 . S
S2106 N2108 1.610 . S
N2107 S2106 1.613 . S
N2107 C2110 1.350 . S
N2108 S2106 1.610 . S
N2108 C2109 1.351 . S
C2109 C2103 1.428 . S
C2109 N2108 1.351 . S
C2109 C2110 1.434 . S
C2110 C2101 1.429 . S
C2110 N2107 1.350 . S
C2110 C2109 1.434 . S
C2111 C2112 1.369 . S
C2111 C2113 1.419 . S
C2111 H2115 0.930 . S
C2112 C2111 1.369 . S
C2112 C2121 1.429 . S
C2113 C2111 1.419 . S
C2113 C2114 1.363 . S
C2113 H2116 0.929 . S
C2114 C2113 1.363 . S
C2114 C2120 1.428 . S
H2115 C2111 0.930 . S
H2116 C2113 0.929 . S
S2117 N2118 1.613 1_455 S
S2117 N2119 1.610 . S
N2118 S2117 1.613 1_655 S
N2118 C2121 1.350 . S
N2119 S2117 1.610 . S
N2119 C2120 1.351 1_455 S
C2120 C2114 1.428 . S
C2120 N2119 1.351 1_655 S
C2120 C2121 1.434 . S
C2121 C2112 1.429 . S
C2121 N2118 1.350 . S
C2121 C2120 1.434 . S
C2122 C2123 1.369 . S
C2122 C2124 1.419 . S
C2122 H2126 0.930 . S
C2123 C2122 1.369 . S
C2123 C2132 1.429 . S
C2124 C2122 1.419 . S
C2124 C2125 1.363 . S
C2124 H2127 0.929 . S
C2125 C2124 1.363 . S
C2125 C2131 1.428 . S
H2126 C2122 0.930 . S
H2127 C2124 0.929 . S
S2128 N2129 1.613 . S
S2128 N2130 1.610 . S
N2129 S2128 1.613 . S
N2129 C2132 1.350 . S
N2130 S2128 1.610 . S
N2130 C2131 1.351 . S
C2131 C2125 1.428 . S
C2131 N2130 1.351 . S
C2131 C2132 1.434 . S
C2132 C2123 1.429 . S
C2132 N2129 1.350 . S
C2132 C2131 1.434 . S
C2133 C2134 1.369 1_545 S
C2133 C2135 1.419 . S
C2133 H2137 0.930 1_545 S
C2134 C2133 1.369 1_565 S
C2134 C2143 1.429 1_554 S
C2135 C2133 1.419 . S
C2135 C2136 1.422 . S
C2135 H2138 0.929 . S
C2136 C2135 1.422 . S
C2136 C2142 1.379 1_554 S
H2137 C2133 0.930 1_565 S
H2138 C2135 0.929 . S
S2139 N2140 1.613 1_545 S
S2139 N2141 1.610 . S
N2140 S2139 1.613 1_565 S
N2140 C2143 1.350 . S
N2141 S2139 1.610 . S
N2141 C2142 1.351 . S
C2142 C2136 1.379 1_556 S
C2142 N2141 1.351 . S
C2142 C2143 1.434 1_545 S
C2143 C2134 1.429 1_556 S
C2143 N2140 1.350 . S
C2143 C2142 1.434 1_565 S
C2144 C2145 1.346 1_556 S
C2144 C2146 1.419 1_655 S
C2144 H2148 0.930 . S
C2145 C2144 1.346 1_554 S
C2145 C2154 1.465 . S
C2146 C2144 1.419 1_455 S
C2146 C2147 1.363 1_556 S
C2146 H2149 0.929 . S
C2147 C2146 1.363 1_554 S
C2147 C2153 1.428 1_455 S
H2148 C2144 0.930 . S
H2149 C2146 0.929 . S
S2150 N2151 1.613 . S
S2150 N2152 1.610 1_655 S
N2151 S2150 1.613 . S
N2151 C2154 1.350 . S
N2152 S2150 1.610 1_455 S
N2152 C2153 1.351 1_455 S
C2153 C2147 1.428 1_655 S
C2153 N2152 1.351 1_655 S
C2153 C2154 1.434 . S
C2154 C2145 1.465 . S
C2154 N2151 1.350 . S
C2154 C2153 1.434 . S
C2155 C2156 1.369 . S
C2155 C2157 1.419 . S
C2155 H2159 0.930 . S
C2156 C2155 1.369 . S
C2156 C2165 1.384 1_554 S
C2157 C2155 1.419 . S
C2157 C2158 1.393 . S
C2157 H2160 0.929 . S
C2158 C2157 1.393 . S
C2158 C2164 1.410 1_554 S
H2159 C2155 0.930 . S
H2160 C2157 0.929 . S
S2161 N2162 1.613 . S
S2161 N2163 1.610 . S
N2162 S2161 1.613 . S
N2162 C2165 1.395 . S
N2163 S2161 1.610 . S
N2163 C2164 1.351 . S
C2164 C2158 1.410 1_556 S
C2164 N2163 1.351 . S
C2164 C2165 1.454 . S
C2165 C2156 1.384 1_556 S
C2165 N2162 1.395 . S
C2165 C2164 1.454 . S
C2166 C2167 1.361 1_655 S
C2166 C2168 1.433 . S
C2166 H2170 0.924 1_655 S
C2167 C2166 1.361 1_455 S
C2167 C2176 1.429 1_455 S
C2168 C2166 1.433 . S
C2168 C2169 1.363 . S
C2168 H2171 0.929 . S
C2169 C2168 1.363 . S
C2169 C2175 1.428 . S
H2170 C2166 0.924 1_455 S
H2171 C2168 0.929 . S
S2172 N2173 1.613 1_655 S
S2172 N2174 1.610 . S
N2173 S2172 1.613 1_455 S
N2173 C2176 1.350 1_455 S
N2174 S2172 1.610 . S
N2174 C2175 1.351 . S
C2175 C2169 1.428 . S
C2175 N2174 1.351 . S
C2175 C2176 1.434 . S
C2176 C2167 1.429 1_655 S
C2176 N2173 1.350 1_655 S
C2176 C2175 1.434 . S
C2177 C2178 1.369 . S
C2177 C2179 1.419 . S
C2177 H2181 0.930 . S
C2178 C2177 1.369 . S
C2178 C2187 1.429 . S
C2179 C2177 1.419 . S
C2179 C2180 1.363 . S
C2179 H2182 0.929 . S
C2180 C2179 1.363 . S
C2180 C2186 1.428 . S
H2181 C2177 0.930 . S
H2182 C2179 0.929 . S
S2183 N2184 1.613 . S
S2183 N2185 1.610 . S
N2184 S2183 1.613 . S
N2184 C2187 1.350 . S
N2185 S2183 1.610 . S
N2185 C2186 1.351 . S
C2186 C2180 1.428 . S
C2186 N2185 1.351 . S
C2186 C2187 1.434 . S
C2187 C2178 1.429 . S
C2187 N2184 1.350 . S
C2187 C2186 1.434 . S
C2188 C2189 1.361 1_545 S
C2188 C2190 1.428 . S
C2188 H2192 0.928 1_545 S
C2189 C2188 1.361 1_565 S
C2189 C2198 1.429 1_565 S
C2190 C2188 1.428 . S
C2190 C2191 1.363 . S
C2190 H2193 0.929 . S
C2191 C2190 1.363 . S
C2191 C2197 1.428 . S
H2192 C2188 0.928 1_565 S
H2193 C2190 0.929 . S
S2194 N2195 1.613 1_545 S
S2194 N2196 1.610 . S
N2195 S2194 1.613 1_565 S
N2195 C2198 1.350 1_565 S
N2196 S2194 1.610 . S
N2196 C2197 1.351 . S
C2197 C2191 1.428 . S
C2197 N2196 1.351 . S
C2197 C2198 1.434 . S
C2198 C2189 1.429 1_545 S
C2198 N2195 1.350 1_545 S
C2198 C2197 1.434 . S
C2199 C2200 1.369 . S
C2199 C2201 1.419 . S
C2199 H2203 0.930 . S
C2200 C2199 1.369 . S
C2200 C2209 1.429 . S
C2201 C2199 1.419 . S
C2201 C2202 1.363 . S
C2201 H2204 0.929 . S
C2202 C2201 1.363 . S
C2202 C2208 1.428 . S
H2203 C2199 0.930 . S
H2204 C2201 0.929 . S
S2205 N2206 1.613 . S
S2205 N2207 1.610 1_455 S
N2206 S2205 1.613 . S
N2206 C2209 1.350 1_455 S
N2207 S2205 1.610 1_655 S
N2207 C2208 1.351 . S
C2208 C2202 1.428 . S
C2208 N2207 1.351 . S
C2208 C2209 1.434 . S
C2209 C2200 1.429 . S
C2209 N2206 1.350 1_655 S
C2209 C2208 1.434 . S
C2210 C2211 1.369 . S
C2210 C2212 1.419 . S
C2210 H2214 0.930 . S
C2211 C2210 1.369 . S
C2211 C2220 1.429 . S
C2212 C2210 1.419 . S
C2212 C2213 1.363 . S
C2212 H2215 0.929 . S
C2213 C2212 1.363 . S
C2213 C2219 1.428 . S
H2214 C2210 0.930 . S
H2215 C2212 0.929 . S
S2216 N2217 1.613 . S
S2216 N2218 1.610 . S
N2217 S2216 1.613 . S
N2217 C2220 1.350 . S
N2218 S2216 1.610 . S
N2218 C2219 1.351 . S
C2219 C2213 1.428 . S
C2219 N2218 1.351 . S
C2219 C2220 1.434 . S
C2220 C2211 1.429 . S
C2220 N2217 1.350 . S
C2220 C2219 1.434 . S
C2221 C2222 1.369 . S
C2221 C2223 1.419 . S
C2221 H2225 0.930 . S
C2222 C2221 1.369 . S
C2222 C2231 1.429 . S
C2223 C2221 1.419 . S
C2223 C2224 1.363 . S
C2223 H2226 0.929 . S
C2224 C2223 1.363 . S
C2224 C2230 1.428 . S
H2225 C2221 0.930 . S
H2226 C2223 0.929 . S
S2227 N2228 1.613 . S
S2227 N2229 1.610 . S
N2228 S2227 1.613 . S
N2228 C2231 1.350 . S
N2229 S2227 1.610 . S
N2229 C2230 1.351 . S
C2230 C2224 1.428 . S
C2230 N2229 1.351 . S
C2230 C2231 1.434 . S
C2231 C2222 1.429 . S
C2231 N2228 1.350 . S
C2231 C2230 1.434 . S
C2232 C2233 1.369 . S
C2232 C2234 1.419 . S
C2232 H2236 0.930 . S
C2233 C2232 1.369 . S
C2233 C2242 1.429 . S
C2234 C2232 1.419 . S
C2234 C2235 1.363 . S
C2234 H2237 0.929 . S
C2235 C2234 1.363 . S
C2235 C2241 1.428 . S
H2236 C2232 0.930 . S
H2237 C2234 0.929 . S
S2238 N2239 1.613 . S
S2238 N2240 1.610 . S
N2239 S2238 1.613 . S
N2239 C2242 1.350 . S
N2240 S2238 1.610 . S
N2240 C2241 1.351 . S
C2241 C2235 1.428 . S
C2241 N2240 1.351 . S
C2241 C2242 1.434 . S
C2242 C2233 1.429 . S
C2242 N2239 1.350 . S
C2242 C2241 1.434 . S
C2243 C2244 1.369 . S
C2243 C2245 1.419 . S
C2243 H2247 0.930 . S
C2244 C2243 1.369 . S
C2244 C2253 1.429 . S
C2245 C2243 1.419 . S
C2245 C2246 1.363 . S
C2245 H2248 0.929 . S
C2246 C2245 1.363 . S
C2246 C2252 1.428 . S
H2247 C2243 0.930 . S
H2248 C2245 0.929 . S
S2249 N2250 1.613 . S
S2249 N2251 1.609 1_545 S
N2250 S2249 1.613 . S
N2250 C2253 1.350 1_545 S
N2251 S2249 1.609 1_565 S
N2251 C2252 1.352 . S
C2252 C2246 1.428 . S
C2252 N2251 1.352 . S
C2252 C2253 1.434 . S
C2253 C2244 1.429 . S
C2253 N2250 1.350 1_565 S
C2253 C2252 1.434 . S
C2254 C2255 1.369 . S
C2254 C2256 1.419 . S
C2254 H2258 0.930 . S
C2255 C2254 1.369 . S
C2255 C2264 1.429 . S
C2256 C2254 1.419 . S
C2256 C2257 1.363 . S
C2256 H2259 0.929 . S
C2257 C2256 1.363 . S
C2257 C2263 1.428 . S
H2258 C2254 0.930 . S
H2259 C2256 0.929 . S
S2260 N2261 1.613 . S
S2260 N2262 1.610 . S
N2261 S2260 1.613 . S
N2261 C2264 1.350 1_655 S
N2262 S2260 1.610 . S
N2262 C2263 1.351 1_655 S
C2263 C2257 1.428 . S
C2263 N2262 1.351 1_455 S
C2263 C2264 1.434 . S
C2264 C2255 1.429 . S
C2264 N2261 1.350 1_455 S
C2264 C2263 1.434 . S
C2265 C2266 1.369 . S
C2265 C2267 1.419 . S
C2265 H2269 0.930 . S
C2266 C2265 1.369 . S
C2266 C2275 1.429 . S
C2267 C2265 1.419 . S
C2267 C2268 1.363 . S
C2267 H2270 0.929 . S
C2268 C2267 1.363 . S
C2268 C2274 1.428 . S
H2269 C2265 0.930 . S
H2270 C2267 0.929 . S
S2271 N2272 1.613 . S
S2271 N2273 1.610 . S
N2272 S2271 1.613 . S
N2272 C2275 1.350 . S
N2273 S2271 1.610 . S
N2273 C2274 1.351 . S
C2274 C2268 1.428 . S
C2274 N2273 1.351 . S
C2274 C2275 1.434 . S
C2275 C2266 1.429 . S
C2275 N2272 1.350 . S
C2275 C2274 1.434 . S
C2276 C2277 1.369 . S
C2276 C2278 1.419 . S
C2276 H2280 0.930 . S
C2277 C2276 1.369 . S
C2277 C2286 1.429 . S
C2278 C2276 1.419 . S
C2278 C2279 1.363 . S
C2278 H2281 0.929 . S
C2279 C2278 1.363 . S
C2279 C2285 1.428 . S
H2280 C2276 0.930 . S
H2281 C2278 0.929 . S
S2282 N2283 1.613 1_565 S
S2282 N2284 1.610 . S
N2283 S2282 1.613 1_545 S
N2283 C2286 1.350 . S
N2284 S2282 1.610 . S
N2284 C2285 1.351 1_565 S
C2285 C2279 1.428 . S
C2285 N2284 1.351 1_545 S
C2285 C2286 1.434 . S
C2286 C2277 1.429 . S
C2286 N2283 1.350 . S
C2286 C2285 1.434 . S
C2287 C2288 1.369 . S
C2287 C2289 1.419 . S
C2287 H2291 0.930 . S
C2288 C2287 1.369 . S
C2288 C2297 1.429 . S
C2289 C2287 1.419 . S
C2289 C2290 1.363 . S
C2289 H2292 0.929 . S
C2290 C2289 1.363 . S
C2290 C2296 1.428 . S
H2291 C2287 0.930 . S
H2292 C2289 0.929 . S
S2293 N2294 1.613 . S
S2293 N2295 1.610 . S
N2294 S2293 1.613 . S
N2294 C2297 1.350 . S
N2295 S2293 1.610 . S
N2295 C2296 1.351 . S
C2296 C2290 1.428 . S
C2296 N2295 1.351 . S
C2296 C2297 1.434 . S
C2297 C2288 1.429 . S
C2297 N2294 1.350 . S
C2297 C2296 1.434 . S
C2298 C2299 1.369 . S
C2298 C2300 1.419 . S
C2298 H2302 0.930 . S
C2299 C2298 1.369 . S
C2299 C2308 1.429 . S
C2300 C2298 1.419 . S
C2300 C2301 1.363 . S
C2300 H2303 0.929 . S
C2301 C2300 1.363 . S
C2301 C2307 1.428 . S
H2302 C2298 0.930 . S
H2303 C2300 0.929 . S
S2304 N2305 1.613 . S
S2304 N2306 1.610 . S
N2305 S2304 1.613 . S
N2305 C2308 1.350 . S
N2306 S2304 1.610 . S
N2306 C2307 1.351 . S
C2307 C2301 1.428 . S
C2307 N2306 1.351 . S
C2307 C2308 1.434 . S
C2308 C2299 1.429 . S
C2308 N2305 1.350 . S
C2308 C2307 1.434 . S
C2309 C2310 1.369 . S
C2309 C2311 1.419 . S
C2309 H2313 0.930 . S
C2310 C2309 1.369 . S
C2310 C2319 1.429 . S
C2311 C2309 1.419 . S
C2311 C2312 1.363 . S
C2311 H2314 0.929 . S
C2312 C2311 1.363 . S
C2312 C2318 1.428 . S
H2313 C2309 0.930 . S
H2314 C2311 0.929 . S
S2315 N2316 1.613 . S
S2315 N2317 1.610 . S
N2316 S2315 1.613 . S
N2316 C2319 1.350 . S
N2317 S2315 1.610 . S
N2317 C2318 1.351 . S
C2318 C2312 1.428 . S
C2318 N2317 1.351 . S
C2318 C2319 1.434 . S
C2319 C2310 1.429 . S
C2319 N2316 1.350 . S
C2319 C2318 1.434 . S
C2320 C2321 1.369 . S
C2320 C2322 1.419 . S
C2320 H2324 0.930 . S
C2321 C2320 1.369 . S
C2321 C2330 1.429 . S
C2322 C2320 1.419 . S
C2322 C2323 1.363 . S
C2322 H2325 0.929 . S
C2323 C2322 1.363 . S
C2323 C2329 1.428 . S
H2324 C2320 0.930 . S
H2325 C2322 0.929 . S
S2326 N2327 1.613 . S
S2326 N2328 1.610 . S
N2327 S2326 1.613 . S
N2327 C2330 1.350 . S
N2328 S2326 1.610 . S
N2328 C2329 1.351 . S
C2329 C2323 1.428 . S
C2329 N2328 1.351 . S
C2329 C2330 1.434 . S
C2330 C2321 1.429 . S
C2330 N2327 1.350 . S
C2330 C2329 1.434 . S
C2331 C2332 1.369 . S
C2331 C2333 1.419 . S
C2331 H2335 0.930 . S
C2332 C2331 1.369 . S
C2332 C2341 1.429 . S
C2333 C2331 1.419 . S
C2333 C2334 1.363 . S
C2333 H2336 0.929 . S
C2334 C2333 1.363 . S
C2334 C2340 1.428 . S
H2335 C2331 0.930 . S
H2336 C2333 0.929 . S
S2337 N2338 1.613 . S
S2337 N2339 1.610 . S
N2338 S2337 1.613 . S
N2338 C2341 1.350 . S
N2339 S2337 1.610 . S
N2339 C2340 1.351 . S
C2340 C2334 1.428 . S
C2340 N2339 1.351 . S
C2340 C2341 1.434 . S
C2341 C2332 1.429 . S
C2341 N2338 1.350 . S
C2341 C2340 1.434 . S
C2342 C2343 1.369 . S
C2342 C2344 1.419 . S
C2342 H2346 0.930 . S
C2343 C2342 1.369 . S
C2343 C2352 1.429 . S
C2344 C2342 1.419 . S
C2344 C2345 1.363 . S
C2344 H2347 0.929 . S
C2345 C2344 1.363 . S
C2345 C2351 1.428 . S
H2346 C2342 0.930 . S
H2347 C2344 0.929 . S
S2348 N2349 1.613 . S
S2348 N2350 1.610 . S
N2349 S2348 1.613 . S
N2349 C2352 1.350 1_545 S
N2350 S2348 1.610 . S
N2350 C2351 1.351 1_545 S
C2351 C2345 1.428 . S
C2351 N2350 1.351 1_565 S
C2351 C2352 1.434 . S
C2352 C2343 1.429 . S
C2352 N2349 1.350 1_565 S
C2352 C2351 1.434 . S
C2353 C2354 1.369 . S
C2353 C2355 1.419 . S
C2353 H2357 0.930 1_455 S
C2354 C2353 1.369 . S
C2354 C2363 1.429 . S
C2355 C2353 1.419 . S
C2355 C2356 1.363 . S
C2355 H2358 0.929 1_455 S
C2356 C2355 1.363 . S
C2356 C2362 1.428 . S
H2357 C2353 0.930 1_655 S
H2358 C2355 0.929 1_655 S
S2359 N2360 1.613 . S
S2359 N2361 1.610 . S
N2360 S2359 1.613 . S
N2360 C2363 1.350 . S
N2361 S2359 1.610 . S
N2361 C2362 1.351 . S
C2362 C2356 1.428 . S
C2362 N2361 1.351 . S
C2362 C2363 1.434 . S
C2363 C2354 1.429 . S
C2363 N2360 1.350 . S
C2363 C2362 1.434 . S
C2364 C2365 1.369 1_655 S
C2364 C2366 1.419 . S
C2364 H2368 0.930 . S
C2365 C2364 1.369 1_455 S
C2365 C2374 1.429 . S
C2366 C2364 1.419 . S
C2366 C2367 1.363 . S
C2366 H2369 0.929 . S
C2367 C2366 1.363 . S
C2367 C2373 1.428 1_655 S
H2368 C2364 0.930 . S
H2369 C2366 0.929 . S
S2370 N2371 1.613 . S
S2370 N2372 1.610 . S
N2371 S2370 1.613 . S
N2371 C2374 1.350 . S
N2372 S2370 1.610 . S
N2372 C2373 1.351 . S
C2373 C2367 1.428 1_455 S
C2373 N2372 1.351 . S
C2373 C2374 1.434 . S
C2374 C2365 1.429 . S
C2374 N2371 1.350 . S
C2374 C2373 1.434 . S
C2375 C2376 1.369 . S
C2375 C2377 1.419 . S
C2375 H2379 0.930 . S
C2376 C2375 1.369 . S
C2376 C2385 1.429 . S
C2377 C2375 1.419 . S
C2377 C2378 1.363 . S
C2377 H2380 0.929 . S
C2378 C2377 1.363 . S
C2378 C2384 1.428 . S
H2379 C2375 0.930 . S
H2380 C2377 0.929 . S
S2381 N2382 1.613 . S
S2381 N2383 1.610 . S
N2382 S2381 1.613 . S
N2382 C2385 1.350 . S
N2383 S2381 1.610 . S
N2383 C2384 1.351 . S
C2384 C2378 1.428 . S
C2384 N2383 1.351 . S
C2384 C2385 1.434 . S
C2385 C2376 1.429 . S
C2385 N2382 1.350 . S
C2385 C2384 1.434 . S
C2386 C2387 1.369 1_545 S
C2386 C2388 1.419 . S
C2386 H2390 0.930 . S
C2387 C2386 1.369 1_565 S
C2387 C2396 1.429 . S
C2388 C2386 1.419 . S
C2388 C2389 1.363 . S
C2388 H2391 0.929 . S
C2389 C2388 1.363 . S
C2389 C2395 1.428 1_545 S
H2390 C2386 0.930 . S
H2391 C2388 0.929 . S
S2392 N2393 1.613 . S
S2392 N2394 1.610 . S
N2393 S2392 1.613 . S
N2393 C2396 1.350 . S
N2394 S2392 1.610 . S
N2394 C2395 1.351 . S
C2395 C2389 1.428 1_565 S
C2395 N2394 1.351 . S
C2395 C2396 1.434 . S
C2396 C2387 1.429 . S
C2396 N2393 1.350 . S
C2396 C2395 1.434 . S
C2397 C2398 1.369 . S
C2397 C2399 1.419 . S
C2397 H2401 0.930 . S
C2398 C2397 1.369 . S
C2398 C2407 1.429 1_565 S
C2399 C2397 1.419 . S
C2399 C2400 1.363 1_565 S
C2399 H2402 0.929 . S
C2400 C2399 1.363 1_545 S
C2400 C2406 1.428 . S
H2401 C2397 0.930 . S
H2402 C2399 0.929 . S
S2403 N2404 1.613 . S
S2403 N2405 1.610 . S
N2404 S2403 1.613 . S
N2404 C2407 1.350 . S
N2405 S2403 1.610 . S
N2405 C2406 1.351 . S
C2406 C2400 1.428 . S
C2406 N2405 1.351 . S
C2406 C2407 1.434 . S
C2407 C2398 1.429 1_545 S
C2407 N2404 1.350 . S
C2407 C2406 1.434 . S
C2408 C2409 1.369 . S
C2408 C2410 1.419 . S
C2408 H2412 0.930 . S
C2409 C2408 1.369 . S
C2409 C2418 1.429 1_655 S
C2410 C2408 1.419 . S
C2410 C2411 1.363 1_655 S
C2410 H2413 0.929 . S
C2411 C2410 1.363 1_455 S
C2411 C2417 1.428 . S
H2412 C2408 0.930 . S
H2413 C2410 0.929 . S
S2414 N2415 1.613 . S
S2414 N2416 1.610 . S
N2415 S2414 1.613 . S
N2415 C2418 1.350 . S
N2416 S2414 1.610 . S
N2416 C2417 1.351 . S
C2417 C2411 1.428 . S
C2417 N2416 1.351 . S
C2417 C2418 1.434 . S
C2418 C2409 1.429 1_455 S
C2418 N2415 1.350 . S
C2418 C2417 1.434 . S
C2419 C2420 1.369 . S
C2419 C2421 1.419 . S
C2419 H2423 0.930 . S
C2420 C2419 1.369 . S
C2420 C2429 1.429 . S
C2421 C2419 1.419 . S
C2421 C2422 1.363 . S
C2421 H2424 0.929 . S
C2422 C2421 1.363 . S
C2422 C2428 1.428 . S
H2423 C2419 0.930 . S
H2424 C2421 0.929 . S
S2425 N2426 1.613 . S
S2425 N2427 1.610 . S
N2426 S2425 1.613 . S
N2426 C2429 1.350 . S
N2427 S2425 1.610 . S
N2427 C2428 1.351 . S
C2428 C2422 1.428 . S
C2428 N2427 1.351 . S
C2428 C2429 1.434 . S
C2429 C2420 1.429 . S
C2429 N2426 1.350 . S
C2429 C2428 1.434 . S
C2430 C2431 1.369 1_455 S
C2430 C2432 1.419 . S
C2430 H2434 0.930 . S
C2431 C2430 1.369 1_655 S
C2431 C2440 1.429 . S
C2432 C2430 1.419 . S
C2432 C2433 1.363 . S
C2432 H2435 0.929 . S
C2433 C2432 1.363 . S
C2433 C2439 1.428 1_455 S
H2434 C2430 0.930 . S
H2435 C2432 0.929 . S
S2436 N2437 1.613 . S
S2436 N2438 1.610 . S
N2437 S2436 1.613 . S
N2437 C2440 1.350 . S
N2438 S2436 1.610 . S
N2438 C2439 1.351 . S
C2439 C2433 1.428 1_655 S
C2439 N2438 1.351 . S
C2439 C2440 1.434 . S
C2440 C2431 1.429 . S
C2440 N2437 1.350 . S
C2440 C2439 1.434 . S
C2441 C2442 1.369 . S
C2441 C2443 1.419 . S
C2441 H2445 0.930 . S
C2442 C2441 1.369 . S
C2442 C2451 1.429 . S
C2443 C2441 1.419 . S
C2443 C2444 1.363 . S
C2443 H2446 0.929 . S
C2444 C2443 1.363 . S
C2444 C2450 1.428 . S
H2445 C2441 0.930 . S
H2446 C2443 0.929 . S
S2447 N2448 1.613 . S
S2447 N2449 1.610 . S
N2448 S2447 1.613 . S
N2448 C2451 1.350 . S
N2449 S2447 1.610 . S
N2449 C2450 1.351 . S
C2450 C2444 1.428 . S
C2450 N2449 1.351 . S
C2450 C2451 1.434 . S
C2451 C2442 1.429 . S
C2451 N2448 1.350 . S
C2451 C2450 1.434 . S
C2452 C2453 1.369 . S
C2452 C2454 1.419 . S
C2452 H2456 0.930 . S
C2453 C2452 1.369 . S
C2453 C2462 1.429 1_545 S
C2454 C2452 1.419 . S
C2454 C2455 1.363 1_545 S
C2454 H2457 0.929 . S
C2455 C2454 1.363 1_565 S
C2455 C2461 1.428 . S
H2456 C2452 0.930 . S
H2457 C2454 0.929 . S
S2458 N2459 1.613 . S
S2458 N2460 1.610 . S
N2459 S2458 1.613 . S
N2459 C2462 1.350 . S
N2460 S2458 1.610 . S
N2460 C2461 1.351 . S
C2461 C2455 1.428 . S
C2461 N2460 1.351 . S
C2461 C2462 1.434 . S
C2462 C2453 1.429 1_565 S
C2462 N2459 1.350 . S
C2462 C2461 1.434 . S
C2463 C2464 1.369 1_455 S
C2463 C2465 1.419 . S
C2463 H2467 0.930 . S
C2464 C2463 1.369 1_655 S
C2464 C2473 1.429 . S
C2465 C2463 1.419 . S
C2465 C2466 1.363 . S
C2465 H2468 0.929 . S
C2466 C2465 1.363 . S
C2466 C2472 1.428 1_455 S
H2467 C2463 0.930 . S
H2468 C2465 0.929 . S
S2469 N2470 1.613 . S
S2469 N2471 1.610 . S
N2470 S2469 1.613 . S
N2470 C2473 1.350 . S
N2471 S2469 1.610 . S
N2471 C2472 1.351 . S
C2472 C2466 1.428 1_655 S
C2472 N2471 1.351 . S
C2472 C2473 1.434 . S
C2473 C2464 1.429 . S
C2473 N2470 1.350 . S
C2473 C2472 1.434 . S
C2474 C2475 1.369 . S
C2474 C2476 1.419 . S
C2474 H2478 0.930 . S
C2475 C2474 1.369 . S
C2475 C2484 1.429 . S
C2476 C2474 1.419 . S
C2476 C2477 1.363 . S
C2476 H2479 0.929 . S
C2477 C2476 1.363 . S
C2477 C2483 1.428 . S
H2478 C2474 0.930 . S
H2479 C2476 0.929 . S
S2480 N2481 1.613 . S
S2480 N2482 1.610 . S
N2481 S2480 1.613 . S
N2481 C2484 1.350 . S
N2482 S2480 1.610 . S
N2482 C2483 1.351 . S
C2483 C2477 1.428 . S
C2483 N2482 1.351 . S
C2483 C2484 1.434 . S
C2484 C2475 1.429 . S
C2484 N2481 1.350 . S
C2484 C2483 1.434 . S
C2485 C2486 1.369 . S
C2485 C2487 1.419 . S
C2485 H2489 0.930 . S
C2486 C2485 1.369 . S
C2486 C2495 1.429 1_545 S
C2487 C2485 1.419 . S
C2487 C2488 1.363 1_545 S
C2487 H2490 0.929 . S
C2488 C2487 1.363 1_565 S
C2488 C2494 1.428 . S
H2489 C2485 0.930 . S
H2490 C2487 0.929 . S
S2491 N2492 1.613 . S
S2491 N2493 1.610 . S
N2492 S2491 1.613 . S
N2492 C2495 1.350 . S
N2493 S2491 1.610 . S
N2493 C2494 1.351 . S
C2494 C2488 1.428 . S
C2494 N2493 1.351 . S
C2494 C2495 1.434 . S
C2495 C2486 1.429 1_565 S
C2495 N2492 1.350 . S
C2495 C2494 1.434 . S
C2496 C2497 1.369 . S
C2496 C2498 1.419 . S
C2496 H2500 0.930 . S
C2497 C2496 1.369 . S
C2497 C2506 1.429 . S
C2498 C2496 1.419 . S
C2498 C2499 1.363 . S
C2498 H2501 0.929 . S
C2499 C2498 1.363 . S
C2499 C2505 1.428 . S
H2500 C2496 0.930 . S
H2501 C2498 0.929 . S
S2502 N2503 1.613 . S
S2502 N2504 1.610 . S
N2503 S2502 1.613 . S
N2503 C2506 1.350 . S
N2504 S2502 1.610 . S
N2504 C2505 1.351 . S
C2505 C2499 1.428 . S
C2505 N2504 1.351 . S
C2505 C2506 1.434 . S
C2506 C2497 1.429 . S
C2506 N2503 1.350 . S
C2506 C2505 1.434 . S
C2507 C2508 1.369 . S
C2507 C2509 1.419 . S
C2507 H2511 0.930 . S
C2508 C2507 1.369 . S
C2508 C2517 1.429 . S
C2509 C2507 1.419 . S
C2509 C2510 1.363 . S
C2509 H2512 0.929 . S
C2510 C2509 1.363 . S
C2510 C2516 1.428 . S
H2511 C2507 0.930 . S
H2512 C2509 0.929 . S
S2513 N2514 1.613 . S
S2513 N2515 1.610 . S
N2514 S2513 1.613 . S
N2514 C2517 1.350 . S
N2515 S2513 1.610 . S
N2515 C2516 1.351 . S
C2516 C2510 1.428 . S
C2516 N2515 1.351 . S
C2516 C2517 1.434 . S
C2517 C2508 1.429 . S
C2517 N2514 1.350 . S
C2517 C2516 1.434 . S
C2518 C2519 1.369 . S
C2518 C2520 1.419 . S
C2518 H2522 0.930 . S
C2519 C2518 1.369 . S
C2519 C2528 1.429 . S
C2520 C2518 1.419 . S
C2520 C2521 1.363 . S
C2520 H2523 0.929 . S
C2521 C2520 1.363 . S
C2521 C2527 1.428 . S
H2522 C2518 0.930 . S
H2523 C2520 0.929 . S
S2524 N2525 1.613 . S
S2524 N2526 1.610 . S
N2525 S2524 1.613 . S
N2525 C2528 1.350 . S
N2526 S2524 1.610 . S
N2526 C2527 1.351 . S
C2527 C2521 1.428 . S
C2527 N2526 1.351 . S
C2527 C2528 1.434 . S
C2528 C2519 1.429 . S
C2528 N2525 1.350 . S
C2528 C2527 1.434 . S
C2529 C2530 1.369 . S
C2529 C2531 1.419 . S
C2529 H2533 0.930 . S
C2530 C2529 1.369 . S
C2530 C2539 1.429 . S
C2531 C2529 1.419 . S
C2531 C2532 1.363 . S
C2531 H2534 0.929 . S
C2532 C2531 1.363 . S
C2532 C2538 1.428 . S
H2533 C2529 0.930 . S
H2534 C2531 0.929 . S
S2535 N2536 1.613 . S
S2535 N2537 1.610 . S
N2536 S2535 1.613 . S
N2536 C2539 1.350 . S
N2537 S2535 1.610 . S
N2537 C2538 1.351 . S
C2538 C2532 1.428 . S
C2538 N2537 1.351 . S
C2538 C2539 1.434 . S
C2539 C2530 1.429 . S
C2539 N2536 1.350 . S
C2539 C2538 1.434 . S
C2540 C2541 1.369 . S
C2540 C2542 1.419 . S
C2540 H2544 0.930 . S
C2541 C2540 1.369 . S
C2541 C2550 1.429 . S
C2542 C2540 1.419 . S
C2542 C2543 1.363 . S
C2542 H2545 0.929 . S
C2543 C2542 1.363 . S
C2543 C2549 1.428 . S
H2544 C2540 0.930 . S
H2545 C2542 0.929 . S
S2546 N2547 1.613 . S
S2546 N2548 1.610 . S
N2547 S2546 1.613 . S
N2547 C2550 1.350 . S
N2548 S2546 1.610 . S
N2548 C2549 1.351 . S
C2549 C2543 1.428 . S
C2549 N2548 1.351 . S
C2549 C2550 1.434 . S
C2550 C2541 1.429 . S
C2550 N2547 1.350 . S
C2550 C2549 1.434 . S
C2551 C2552 1.369 . S
C2551 C2553 1.419 . S
C2551 H2555 0.930 . S
C2552 C2551 1.369 . S
C2552 C2561 1.429 . S
C2553 C2551 1.419 . S
C2553 C2554 1.363 . S
C2553 H2556 0.929 . S
C2554 C2553 1.363 . S
C2554 C2560 1.428 . S
H2555 C2551 0.930 . S
H2556 C2553 0.929 . S
S2557 N2558 1.613 . S
S2557 N2559 1.610 . S
N2558 S2557 1.613 . S
N2558 C2561 1.350 . S
N2559 S2557 1.610 . S
N2559 C2560 1.351 . S
C2560 C2554 1.428 . S
C2560 N2559 1.351 . S
C2560 C2561 1.434 . S
C2561 C2552 1.429 . S
C2561 N2558 1.350 . S
C2561 C2560 1.434 . S
C2562 C2563 1.369 . S
C2562 C2564 1.419 . S
C2562 H2566 0.930 . S
C2563 C2562 1.369 . S
C2563 C2572 1.429 . S
C2564 C2562 1.419 . S
C2564 C2565 1.363 . S
C2564 H2567 0.929 . S
C2565 C2564 1.363 . S
C2565 C2571 1.428 . S
H2566 C2562 0.930 . S
H2567 C2564 0.929 . S
S2568 N2569 1.613 . S
S2568 N2570 1.610 . S
N2569 S2568 1.613 . S
N2569 C2572 1.350 . S
N2570 S2568 1.610 . S
N2570 C2571 1.351 . S
C2571 C2565 1.428 . S
C2571 N2570 1.351 . S
C2571 C2572 1.434 . S
C2572 C2563 1.429 . S
C2572 N2569 1.350 . S
C2572 C2571 1.434 . S
C2573 C2574 1.369 . S
C2573 C2575 1.419 . S
C2573 H2577 0.930 . S
C2574 C2573 1.369 . S
C2574 C2583 1.429 . S
C2575 C2573 1.419 . S
C2575 C2576 1.363 . S
C2575 H2578 0.929 . S
C2576 C2575 1.363 . S
C2576 C2582 1.428 . S
H2577 C2573 0.930 . S
H2578 C2575 0.929 . S
S2579 N2580 1.613 . S
S2579 N2581 1.610 . S
N2580 S2579 1.613 . S
N2580 C2583 1.350 . S
N2581 S2579 1.610 . S
N2581 C2582 1.351 . S
C2582 C2576 1.428 . S
C2582 N2581 1.351 . S
C2582 C2583 1.434 . S
C2583 C2574 1.429 . S
C2583 N2580 1.350 . S
C2583 C2582 1.434 . S
C2584 C2585 1.369 . S
C2584 C2586 1.419 . S
C2584 H2588 0.930 . S
C2585 C2584 1.369 . S
C2585 C2594 1.429 . S
C2586 C2584 1.419 . S
C2586 C2587 1.363 . S
C2586 H2589 0.929 . S
C2587 C2586 1.363 . S
C2587 C2593 1.428 . S
H2588 C2584 0.930 . S
H2589 C2586 0.929 . S
S2590 N2591 1.613 . S
S2590 N2592 1.610 . S
N2591 S2590 1.613 . S
N2591 C2594 1.350 . S
N2592 S2590 1.610 . S
N2592 C2593 1.351 . S
C2593 C2587 1.428 . S
C2593 N2592 1.351 . S
C2593 C2594 1.434 . S
C2594 C2585 1.429 . S
C2594 N2591 1.350 . S
C2594 C2593 1.434 . S
C2595 C2596 1.369 . S
C2595 C2597 1.419 . S
C2595 H2599 0.930 . S
C2596 C2595 1.369 . S
C2596 C2605 1.429 . S
C2597 C2595 1.419 . S
C2597 C2598 1.363 . S
C2597 H2600 0.929 . S
C2598 C2597 1.363 . S
C2598 C2604 1.428 . S
H2599 C2595 0.930 . S
H2600 C2597 0.929 . S
S2601 N2602 1.613 . S
S2601 N2603 1.610 . S
N2602 S2601 1.613 . S
N2602 C2605 1.350 . S
N2603 S2601 1.610 . S
N2603 C2604 1.351 . S
C2604 C2598 1.428 . S
C2604 N2603 1.351 . S
C2604 C2605 1.434 . S
C2605 C2596 1.429 . S
C2605 N2602 1.350 . S
C2605 C2604 1.434 . S
C2606 C2607 1.369 . S
C2606 C2608 1.419 . S
C2606 H2610 0.930 . S
C2607 C2606 1.369 . S
C2607 C2616 1.429 . S
C2608 C2606 1.419 . S
C2608 C2609 1.363 . S
C2608 H2611 0.929 . S
C2609 C2608 1.363 . S
C2609 C2615 1.428 . S
H2610 C2606 0.930 . S
H2611 C2608 0.929 . S
S2612 N2613 1.613 . S
S2612 N2614 1.610 . S
N2613 S2612 1.613 . S
N2613 C2616 1.350 . S
N2614 S2612 1.610 . S
N2614 C2615 1.351 . S
C2615 C2609 1.428 . S
C2615 N2614 1.351 . S
C2615 C2616 1.434 . S
C2616 C2607 1.429 . S
C2616 N2613 1.350 . S
C2616 C2615 1.434 . S
C2617 C2618 1.369 . S
C2617 C2619 1.419 . S
C2617 H2621 0.930 . S
C2618 C2617 1.369 . S
C2618 C2627 1.429 . S
C2619 C2617 1.419 . S
C2619 C2620 1.363 . S
C2619 H2622 0.929 . S
C2620 C2619 1.363 . S
C2620 C2626 1.428 . S
H2621 C2617 0.930 . S
H2622 C2619 0.929 . S
S2623 N2624 1.613 . S
S2623 N2625 1.610 . S
N2624 S2623 1.613 . S
N2624 C2627 1.350 . S
N2625 S2623 1.610 . S
N2625 C2626 1.351 . S
C2626 C2620 1.428 . S
C2626 N2625 1.351 . S
C2626 C2627 1.434 . S
C2627 C2618 1.429 . S
C2627 N2624 1.350 . S
C2627 C2626 1.434 . S
C1441 C9 1.769 . S
C1443 C99 1.828 1_545 S
C1452 C19 1.821 1_655 S
C1454 C49 1.767 1_545 S
C1463 C89 1.768 1_655 S
C1465 C59 1.823 . S
C1474 C129 1.833 . S
C1476 C179 1.887 1_455 S
C1485 C219 1.893 . S
C1487 C169 1.835 1_565 S
C1496 C209 1.830 1_455 S
C1498 C139 1.891 1_565 S
C1507 C258 1.763 . S
C1509 C330 1.824 1_565 S
C1518 C298 1.767 1_565 S
C1520 C250 1.828 1_455 S
C1529 C338 1.772 1_455 S
C1531 C290 1.824 . S
C1540 C378 1.834 . S
C1542 C410 1.887 1_655 S
C1551 C450 1.893 . S
C1553 C418 1.832 1_545 S
C1562 C370 1.891 1_545 S
C1564 C458 1.835 1_655 S
C1573 C579 1.877 . S
C1575 C489 1.819 . S
C1584 C529 1.821 . S
C1586 C499 1.877 . S
C1595 C539 1.883 . S
C1597 C569 1.824 . S
C1606 C609 1.849 . S
C1608 C659 1.902 . S
C1617 C699 1.903 . S
C1619 C649 1.845 . S
C1628 C619 1.904 . S
C1630 C689 1.851 . S
C1639 C738 1.794 . S
C1641 C810 1.853 . S
C1650 C778 1.791 . S
C1652 C730 1.852 . S
C1661 C770 1.848 . S
C1663 C818 1.796 . S
C1672 C890 1.758 . S
C1674 C858 1.708 1_554 S
C1683 C898 1.705 1_554 S
C1685 C930 1.755 . S
C1694 C850 1.752 . S
C1696 C938 1.710 1_554 S
C1705 C969 1.798 . S
C1707 C1059 1.851 . S
C1716 C1009 1.798 . S
C1718 C979 1.850 . S
C1727 C1049 1.794 . S
C1729 C1019 1.848 . S
C1738 C1089 1.714 1_556 S
C1740 C1139 1.754 . S
C1749 C1129 1.707 1_556 S
C1751 C1179 1.753 . S
C1760 C1169 1.713 1_556 S
C1762 C1099 1.754 . S
C1771 C1218 1.824 . S
C1773 C1290 1.883 . S
C1782 C1258 1.826 . S
C1784 C1210 1.879 . S
C1793 C1250 1.883 . S
C1795 C1298 1.820 . S
C1804 C1338 1.844 . S
C1806 C1370 1.905 . S
C1815 C1378 1.850 . S
C1817 C1410 1.908 . S
C1826 C1330 1.907 . S
C1828 C1418 1.849 . S
C1837 C10 1.853 . S
C1839 C809 1.829 . S
C1848 C729 1.828 1_565 S
C1850 C50 1.852 . S
C1859 C90 1.853 . S
C1861 C769 1.829 1_455 S
C1870 C130 1.772 . S
C1872 C1369 1.738 . S
C1881 C1409 1.741 1_545 S
C1883 C170 1.766 . S
C1892 C210 1.766 . S
C1894 C1329 1.741 1_655 S
C1903 C1058 1.829 . S
C1905 C259 1.852 . S
C1914 C299 1.851 . S
C1916 C978 1.833 1_545 S
C1925 C339 1.849 . S
C1927 C1018 1.828 1_655 S
C1936 C658 1.742 . S
C1938 C379 1.766 . S
C1947 C698 1.736 1_565 S
C1949 C419 1.767 . S
C1958 C618 1.737 1_455 S
C1960 C459 1.771 . S
C1969 C490 1.812 . S
C1971 C1289 1.789 . S
C1980 C530 1.811 . S
C1982 C1209 1.783 . S
C1991 C1249 1.789 . S
C1993 C570 1.808 . S
C2002 C409 1.774 . S
C2004 C610 1.800 1_455 S
C2013 C449 1.776 . S
C2015 C650 1.804 . S
C2024 C369 1.777 . S
C2026 C690 1.805 1_565 S
C2035 C98 1.827 . S
C2037 C739 1.842 1_565 S
C2046 C779 1.847 1_455 S
C2048 C18 1.829 . S
C2057 C819 1.848 . S
C2059 C58 1.827 . S
C2068 C1138 1.796 . S
C2070 C859 1.829 . S
C2079 C1178 1.795 . S
C2081 C899 1.829 . S
C2090 C939 1.828 . S
C2092 C1098 1.795 . S
C2101 C329 1.830 . S
C2103 C970 1.843 1_545 S
C2112 C249 1.824 . S
C2114 C1010 1.845 1_655 S
C2123 C289 1.831 . S
C2125 C1050 1.845 . S
C2134 C1090 1.824 . S
C2136 C889 1.799 . S
C2145 C929 1.794 . S
C2147 C1130 1.826 . S
C2156 C1170 1.822 . S
C2158 C849 1.797 . S
C2167 C1219 1.808 . S
C2169 C578 1.789 . S
C2178 C1259 1.807 . S
C2180 C498 1.784 . S
C2189 C1299 1.811 . S
C2191 C538 1.782 . S
C2200 C1339 1.799 1_655 S
C2202 C178 1.775 . S
C2211 C218 1.776 . S
C2213 C1379 1.799 . S
C2222 C138 1.780 . S
C2224 C1419 1.803 1_545 S
C2233 C1166 2.260 . S
C2235 C6 2.246 . S
C2244 C1086 2.260 . S
C2246 C46 2.247 . S
C2255 C86 2.265 . S
C2257 C1126 2.245 . S
C2266 C526 2.429 . S
C2268 C126 2.424 . S
C2277 C166 2.423 . S
C2279 C566 2.429 . S
C2288 C206 2.427 . S
C2290 C486 2.424 . S
C2299 C255 2.260 . S
C2301 C935 2.247 . S
C2310 C295 2.260 . S
C2312 C855 2.244 . S
C2321 C335 2.265 . S
C2323 C895 2.244 . S
C2332 C1255 2.427 . S
C2334 C375 2.426 . S
C2343 C1295 2.429 . S
C2345 C415 2.424 . S
C2354 C1215 2.425 . S
C2356 C455 2.423 . S
C2365 C606 2.461 . S
C2367 C1006 2.463 . S
C2376 C646 2.458 . S
C2378 C1046 2.463 . S
C2387 C686 2.457 . S
C2389 C966 2.460 . S
C2398 C735 2.458 . S
C2400 C1415 2.458 . S
C2409 C1335 2.456 . S
C2411 C775 2.462 . S
C2420 C815 2.459 . S
C2422 C1375 2.458 . S
C2431 C175 1.238 . S
C2433 C15 1.242 . S
C2442 C215 1.240 . S
C2444 C55 1.243 . S
C2453 C135 1.242 . S
C2455 C95 1.241 . S
C2464 C246 1.240 . S
C2466 C406 1.241 . S
C2475 C446 1.238 . S
C2477 C286 1.242 . S
C2486 C326 1.243 . S
C2488 C366 1.239 . S
C2497 C655 1.305 . S
C2499 C495 1.304 . S
C2508 C695 1.307 . S
C2510 C535 1.306 . S
C2519 C615 1.305 . S
C2521 C575 1.308 . S
C2530 C886 1.528 . S
C2532 C726 1.556 . S
C2541 C766 1.542 . S
C2543 C926 1.537 . S
C2552 C806 1.540 . S
C2554 C846 1.540 . S
C2563 C975 1.545 . S
C2565 C1135 1.539 . S
C2574 C1175 1.526 . S
C2576 C1015 1.554 . S
C2585 C1055 1.544 . S
C2587 C1095 1.539 . S
C2596 C1206 1.307 . S
C2598 C1366 1.303 . S
C2607 C1406 1.307 . S
C2609 C1246 1.305 . S
C2618 C1286 1.304 . S
C2620 C1326 1.306 . S
