# Generated by pormake.
# Topology ato, (4)-cn, num edge types: 1
# Building blocks:
#     Node 0, Type 0, BuildingBlock: AZAVOO_clean_sbu_0, # of connection points: 4
#     Node 1, Type 0, BuildingBlock: AZAVOO_clean_sbu_0, # of connection points: 4
#     Node 2, Type 0, BuildingBlock: AZAVOO_clean_sbu_0, # of connection points: 4
#     Node 3, Type 0, BuildingBlock: AZAVOO_clean_sbu_0, # of connection points: 4
#     Node 4, Type 0, BuildingBlock: AZAVOO_clean_sbu_0, # of connection points: 4
#     Node 5, Type 0, BuildingBlock: AZAVOO_clean_sbu_0, # of connection points: 4
#     Node 6, Type 0, BuildingBlock: AZAVOO_clean_sbu_0, # of connection points: 4
#     Node 7, Type 0, BuildingBlock: AZAVOO_clean_sbu_0, # of connection points: 4
#     Node 8, Type 0, BuildingBlock: AZAVOO_clean_sbu_0, # of connection points: 4
#     Node 9, Type 0, BuildingBlock: AZAVOO_clean_sbu_0, # of connection points: 4
#     Node 10, Type 0, BuildingBlock: AZAVOO_clean_sbu_0, # of connection points: 4
#     Node 11, Type 0, BuildingBlock: AZAVOO_clean_sbu_0, # of connection points: 4
#     Node 12, Type 0, BuildingBlock: AZAVOO_clean_sbu_0, # of connection points: 4
#     Node 13, Type 0, BuildingBlock: AZAVOO_clean_sbu_0, # of connection points: 4
#     Node 14, Type 0, BuildingBlock: AZAVOO_clean_sbu_0, # of connection points: 4
#     Node 15, Type 0, BuildingBlock: AZAVOO_clean_sbu_0, # of connection points: 4
#     Node 16, Type 0, BuildingBlock: AZAVOO_clean_sbu_0, # of connection points: 4
#     Node 17, Type 0, BuildingBlock: AZAVOO_clean_sbu_0, # of connection points: 4
#     Node 18, Type 0, BuildingBlock: AZAVOO_clean_sbu_0, # of connection points: 4
#     Node 19, Type 0, BuildingBlock: AZAVOO_clean_sbu_0, # of connection points: 4
#     Node 20, Type 0, BuildingBlock: AZAVOO_clean_sbu_0, # of connection points: 4
#     Node 21, Type 0, BuildingBlock: AZAVOO_clean_sbu_0, # of connection points: 4
#     Node 22, Type 0, BuildingBlock: AZAVOO_clean_sbu_0, # of connection points: 4
#     Node 23, Type 0, BuildingBlock: AZAVOO_clean_sbu_0, # of connection points: 4
#     Node 24, Type 0, BuildingBlock: AZAVOO_clean_sbu_0, # of connection points: 4
#     Node 25, Type 0, BuildingBlock: AZAVOO_clean_sbu_0, # of connection points: 4
#     Node 26, Type 0, BuildingBlock: AZAVOO_clean_sbu_0, # of connection points: 4
#     Node 27, Type 0, BuildingBlock: AZAVOO_clean_sbu_0, # of connection points: 4
#     Node 28, Type 0, BuildingBlock: AZAVOO_clean_sbu_0, # of connection points: 4
#     Node 29, Type 0, BuildingBlock: AZAVOO_clean_sbu_0, # of connection points: 4
#     Node 30, Type 0, BuildingBlock: AZAVOO_clean_sbu_0, # of connection points: 4
#     Node 31, Type 0, BuildingBlock: AZAVOO_clean_sbu_0, # of connection points: 4
#     Node 32, Type 0, BuildingBlock: AZAVOO_clean_sbu_0, # of connection points: 4
#     Node 33, Type 0, BuildingBlock: AZAVOO_clean_sbu_0, # of connection points: 4
#     Node 34, Type 0, BuildingBlock: AZAVOO_clean_sbu_0, # of connection points: 4
#     Node 35, Type 0, BuildingBlock: AZAVOO_clean_sbu_0, # of connection points: 4
#     Edge 36, Type (0, 0), None
#     Edge 37, Type (0, 0), None
#     Edge 38, Type (0, 0), None
#     Edge 39, Type (0, 0), None
#     Edge 40, Type (0, 0), None
#     Edge 41, Type (0, 0), None
#     Edge 42, Type (0, 0), None
#     Edge 43, Type (0, 0), None
#     Edge 44, Type (0, 0), None
#     Edge 45, Type (0, 0), None
#     Edge 46, Type (0, 0), None
#     Edge 47, Type (0, 0), None
#     Edge 48, Type (0, 0), None
#     Edge 49, Type (0, 0), None
#     Edge 50, Type (0, 0), None
#     Edge 51, Type (0, 0), None
#     Edge 52, Type (0, 0), None
#     Edge 53, Type (0, 0), None
#     Edge 54, Type (0, 0), None
#     Edge 55, Type (0, 0), None
#     Edge 56, Type (0, 0), None
#     Edge 57, Type (0, 0), None
#     Edge 58, Type (0, 0), None
#     Edge 59, Type (0, 0), None
#     Edge 60, Type (0, 0), None
#     Edge 61, Type (0, 0), None
#     Edge 62, Type (0, 0), None
#     Edge 63, Type (0, 0), None
#     Edge 64, Type (0, 0), None
#     Edge 65, Type (0, 0), None
#     Edge 66, Type (0, 0), None
#     Edge 67, Type (0, 0), None
#     Edge 68, Type (0, 0), None
#     Edge 69, Type (0, 0), None
#     Edge 70, Type (0, 0), None
#     Edge 71, Type (0, 0), None
#     Edge 72, Type (0, 0), None
#     Edge 73, Type (0, 0), None
#     Edge 74, Type (0, 0), None
#     Edge 75, Type (0, 0), None
#     Edge 76, Type (0, 0), None
#     Edge 77, Type (0, 0), None
#     Edge 78, Type (0, 0), None
#     Edge 79, Type (0, 0), None
#     Edge 80, Type (0, 0), None
#     Edge 81, Type (0, 0), None
#     Edge 82, Type (0, 0), None
#     Edge 83, Type (0, 0), None
#     Edge 84, Type (0, 0), None
#     Edge 85, Type (0, 0), None
#     Edge 86, Type (0, 0), None
#     Edge 87, Type (0, 0), None
#     Edge 88, Type (0, 0), None
#     Edge 89, Type (0, 0), None
#     Edge 90, Type (0, 0), None
#     Edge 91, Type (0, 0), None
#     Edge 92, Type (0, 0), None
#     Edge 93, Type (0, 0), None
#     Edge 94, Type (0, 0), None
#     Edge 95, Type (0, 0), None
#     Edge 96, Type (0, 0), None
#     Edge 97, Type (0, 0), None
#     Edge 98, Type (0, 0), None
#     Edge 99, Type (0, 0), None
#     Edge 100, Type (0, 0), None
#     Edge 101, Type (0, 0), None
#     Edge 102, Type (0, 0), None
#     Edge 103, Type (0, 0), None
#     Edge 104, Type (0, 0), None
#     Edge 105, Type (0, 0), None
#     Edge 106, Type (0, 0), None
#     Edge 107, Type (0, 0), None
# Relax obj value: 0.060
# Max RMSD: 0.096
# Mean RMSD: 0.096
data_MOF--net-ato--node1-AZAVOO_clean_sbu_0--edge1-none
_symmetry_space_group_name_H-M    P1
_symmetry_Int_Tables_number       1
_symmetry_cell_setting            triclinic
loop_
_symmetry_equiv_pos_as_xyz
'x, y, z'
_cell_length_a     44.738958
_cell_length_b     44.739705
_cell_length_c     12.174853
_cell_angle_alpha  90.0053
_cell_angle_beta   89.993938
_cell_angle_gamma 120.00428
loop_
_atom_site_label
_atom_site_type_symbol
_atom_site_fract_x
_atom_site_fract_y
_atom_site_fract_z
_atom_type_partial_charge
Mg0 Mg 0.26189 0.05619 0.18673 0.0
O1 O 0.31679 0.06776 0.15232 0.0
O2 O 0.31577 0.01726 0.14291 0.0
Mg3 Mg 0.25937 0.97355 0.16232 0.0
C4 C 0.33192 0.05023 0.13951 0.0
C5 C 0.26299 0.1179 0.30271 0.0
O6 O 0.23913 0.09168 0.35852 0.0
O7 O 0.26628 0.04162 0.36266 0.0
O8 O 0.25823 0.9882 0.34385 0.0
O9 O 0.25245 0.05463 0.00744 0.0
O10 O 0.24156 1.00882 0.10713 0.0
C11 C 0.26221 0.01351 0.40319 0.0
C12 C 0.24256 0.0221 0.01244 0.0
O13 O 0.2802 0.11239 0.23058 0.0
Mg14 Mg 0.97248 0.21139 0.18738 0.0
O15 O 0.96094 0.25474 0.15303 0.0
O16 O 1.01144 0.30421 0.14373 0.0
Mg17 Mg 0.05514 0.29151 0.16312 0.0
C18 C 0.97848 0.28741 0.1403 0.0
C19 C 0.9107 0.1507 0.30273 0.0
O20 O 0.93688 0.15298 0.35854 0.0
O21 O 0.98702 0.23033 0.36338 0.0
O22 O 0.04045 0.2757 0.34461 0.0
O23 O 0.97407 0.20353 0.00811 0.0
O24 O 0.01987 0.23843 0.10786 0.0
C25 C 1.01514 0.25437 0.40393 0.0
C26 C 1.0066 0.22617 0.01314 0.0
O27 O 0.91626 0.17352 0.23093 0.0
Mg28 Mg 0.81734 0.76684 0.18654 0.0
O29 O 0.77401 0.71194 0.15218 0.0
O30 O 0.72453 0.71295 0.14281 0.0
Mg31 Mg 0.73721 0.76934 0.16218 0.0
C32 C 0.74134 0.6968 0.13942 0.0
C33 C 0.87792 0.76572 0.30265 0.0
O34 O 0.87554 0.78955 0.35853 0.0
O35 O 0.79837 0.76244 0.36247 0.0
O36 O 0.753 0.77048 0.3437 0.0
O37 O 0.82522 0.77629 0.00724 0.0
O38 O 0.7903 0.78717 0.10695 0.0
C39 C 0.77432 0.7665 0.40302 0.0
C40 C 0.80257 0.78617 0.01225 0.0
O41 O 0.85522 0.74853 0.2304 0.0
Mg42 Mg 0.06191 0.25609 0.73986 0.0
O43 O 0.07348 0.31099 0.77427 0.0
O44 O 0.02299 0.30997 0.78371 0.0
Mg45 Mg 0.97927 0.25358 0.76429 0.0
C46 C 0.05595 0.32612 0.78709 0.0
C47 C 0.12363 0.25719 0.62392 0.0
O48 O 0.09741 0.23332 0.56815 0.0
O49 O 0.04733 0.26048 0.56392 0.0
O50 O 0.99391 0.25243 0.58276 0.0
O51 O 0.06035 0.24666 0.91914 0.0
O52 O 1.01454 0.23576 0.81946 0.0
C53 C 0.01922 0.25641 0.5234 0.0
C54 C 0.02782 0.23677 0.91415 0.0
O55 O 0.11811 0.27442 0.69601 0.0
Mg56 Mg 0.77262 0.81154 0.73898 0.0
O57 O 0.71772 0.7682 0.77338 0.0
O58 O 0.71875 0.71873 0.78274 0.0
Mg59 Mg 0.77514 0.73142 0.76332 0.0
C60 C 0.70259 0.73554 0.78615 0.0
C61 C 0.77146 0.8721 0.62286 0.0
O62 O 0.79528 0.86973 0.56691 0.0
O63 O 0.76822 0.79258 0.56305 0.0
O64 O 0.77627 0.74721 0.58181 0.0
O65 O 0.78207 0.81942 0.91827 0.0
O66 O 0.79296 0.78451 0.81855 0.0
C67 C 0.77228 0.76853 0.52249 0.0
C68 C 0.79196 0.79678 0.91326 0.0
O69 O 0.7543 0.84941 0.69515 0.0
Mg70 Mg 0.21718 0.96677 0.73918 0.0
O71 O 0.26052 0.95522 0.77349 0.0
O72 O 0.31 1.00572 0.78282 0.0
Mg73 Mg 0.29731 0.04942 0.76348 0.0
C74 C 0.29319 0.97276 0.78622 0.0
C75 C 0.15654 0.90502 0.62349 0.0
O76 O 0.15885 0.93121 0.56769 0.0
O77 O 0.23613 0.98132 0.56321 0.0
O78 O 0.2815 0.03475 0.58198 0.0
O79 O 0.20932 0.96834 0.91846 0.0
O80 O 0.24422 0.01415 0.81873 0.0
C81 C 0.26018 1.00944 0.52266 0.0
C82 C 0.23195 1.00087 0.91344 0.0
O83 O 0.17931 0.91056 0.69547 0.0
Mg84 Mg 0.77265 0.96672 0.73844 0.0
O85 O 0.71775 0.95517 0.77284 0.0
O86 O 0.71878 1.00567 0.78217 0.0
Mg87 Mg 0.77517 0.04937 0.76271 0.0
C88 C 0.70262 0.97271 0.7856 0.0
C89 C 0.77147 0.90493 0.6227 0.0
O90 O 0.79532 0.93109 0.56668 0.0
O91 O 0.76823 0.98126 0.56246 0.0
O92 O 0.77629 0.03468 0.58123 0.0
O93 O 0.7821 0.96832 0.91771 0.0
O94 O 0.793 0.01412 0.81796 0.0
C95 C 0.7723 1.00937 0.52191 0.0
C96 C 0.792 1.00086 0.91267 0.0
O97 O 0.75429 0.91051 0.69481 0.0
Mg98 Mg 0.06199 0.81161 0.73962 0.0
O99 O 0.07355 0.76827 0.77396 0.0
O100 O 0.02305 0.7188 0.78335 0.0
Mg101 Mg 0.97934 0.73149 0.76403 0.0
C102 C 0.05601 0.73561 0.78673 0.0
C103 C 0.12371 0.8722 0.6236 0.0
O104 O 0.09751 0.86986 0.56779 0.0
O105 O 0.0474 0.79265 0.56369 0.0
O106 O 0.99397 0.74728 0.5825 0.0
O107 O 0.06043 0.81949 0.91892 0.0
O108 O 1.01462 0.78458 0.81923 0.0
C109 C 0.01928 0.76861 0.52315 0.0
C110 C 0.0279 0.79685 0.91392 0.0
O111 O 0.11819 0.84947 0.69574 0.0
Mg112 Mg 0.21707 0.25604 0.73959 0.0
O113 O 0.26041 0.31093 0.77397 0.0
O114 O 0.30988 0.3099 0.78333 0.0
Mg115 Mg 0.29718 0.2535 0.7639 0.0
C116 C 0.29308 0.32606 0.78675 0.0
C117 C 0.15644 0.25717 0.62385 0.0
O118 O 0.15874 0.23329 0.56799 0.0
O119 O 0.23602 0.26042 0.56362 0.0
O120 O 0.28139 0.25236 0.5824 0.0
O121 O 0.2092 0.24659 0.91888 0.0
O122 O 0.2441 0.23568 0.81913 0.0
C123 C 0.26007 0.25635 0.52307 0.0
C124 C 0.23183 0.23669 0.91385 0.0
O125 O 0.17921 0.27439 0.69588 0.0
Mg126 Mg 0.97255 0.76691 0.18716 0.0
O127 O 0.961 0.71202 0.15276 0.0
O128 O 1.01151 0.71305 0.14341 0.0
Mg129 Mg 0.0552 0.76945 0.16286 0.0
C130 C 0.97854 0.69689 0.13999 0.0
C131 C 0.91075 0.76574 0.30283 0.0
O132 O 0.93691 0.78961 0.3588 0.0
O133 O 0.98709 0.76251 0.36314 0.0
O134 O 0.04052 0.77057 0.34435 0.0
O135 O 0.97414 0.77636 0.00788 0.0
O136 O 0.01994 0.78727 0.10763 0.0
C137 C 1.01521 0.76657 0.40368 0.0
C138 C 1.00667 0.78625 0.01292 0.0
O139 O 0.91633 0.74854 0.23079 0.0
Mg140 Mg 0.2618 0.21132 0.18707 0.0
O141 O 0.31669 0.25466 0.15266 0.0
O142 O 0.31566 0.30413 0.14333 0.0
Mg143 Mg 0.25927 0.29144 0.16277 0.0
C144 C 0.33182 0.28733 0.13989 0.0
C145 C 0.26296 0.15071 0.30281 0.0
O146 O 0.23908 0.153 0.35872 0.0
O147 O 0.26619 0.23027 0.36304 0.0
O148 O 0.25812 0.27564 0.34427 0.0
O149 O 0.25235 0.20345 0.00778 0.0
O150 O 0.24144 0.23835 0.10754 0.0
C151 C 0.26211 0.25431 0.40359 0.0
C152 C 0.24245 0.22608 0.01282 0.0
O153 O 0.28016 0.17347 0.23075 0.0
Mg154 Mg 0.81736 0.05616 0.18601 0.0
O155 O 0.77403 0.06773 0.15167 0.0
O156 O 0.72455 0.01723 0.14224 0.0
Mg157 Mg 0.73723 0.97352 0.16154 0.0
C158 C 0.74136 0.05019 0.13888 0.0
C159 C 0.87789 0.11786 0.30237 0.0
O160 O 0.87552 0.09164 0.35818 0.0
O161 O 0.79838 0.04156 0.36191 0.0
O162 O 0.75301 0.98813 0.34309 0.0
O163 O 0.82525 0.05461 0.00669 0.0
O164 O 0.79033 1.0088 0.10636 0.0
C165 C 0.77433 0.01344 0.40244 0.0
C166 C 0.8026 0.02208 0.01167 0.0
O167 O 0.85521 0.11235 0.23004 0.0
Mg168 Mg 0.92852 0.38958 0.52087 0.0
O169 O 0.98341 0.40112 0.4865 0.0
O170 O 0.98237 0.35062 0.47719 0.0
Mg171 Mg 0.92597 0.30692 0.49659 0.0
C172 C 0.99854 0.38358 0.47376 0.0
C173 C 0.9297 0.45137 0.63663 0.0
O174 O 0.90584 0.42519 0.69259 0.0
O175 O 0.93292 0.37504 0.69684 0.0
O176 O 0.92485 0.32161 0.67808 0.0
O177 O 0.91907 0.38799 0.3416 0.0
O178 O 0.90816 0.34219 0.44134 0.0
C179 C 0.92885 0.34693 0.7374 0.0
C180 C 0.90917 0.35546 0.34663 0.0
O181 O 0.94689 0.4458 0.56454 0.0
Mg182 Mg 0.63919 0.54466 0.51995 0.0
O183 O 0.62763 0.588 0.48557 0.0
O184 O 0.67813 0.63747 0.47618 0.0
Mg185 Mg 0.72184 0.62479 0.49555 0.0
C186 C 0.64517 0.62067 0.47278 0.0
C187 C 0.57745 0.48407 0.63595 0.0
O188 O 0.60366 0.48642 0.69178 0.0
O189 O 0.65377 0.56363 0.69589 0.0
O190 O 0.7072 0.60899 0.67707 0.0
O191 O 0.64075 0.53679 0.34065 0.0
O192 O 0.68656 0.5717 0.44035 0.0
C193 C 0.68189 0.58767 0.73642 0.0
C194 C 0.67329 0.55943 0.34565 0.0
O195 O 0.58298 0.5068 0.56379 0.0
Mg196 Mg 0.48407 0.10023 0.51982 0.0
O197 O 0.44073 0.04533 0.48542 0.0
O198 O 0.39125 0.04635 0.47607 0.0
Mg199 Mg 0.40394 0.10275 0.49549 0.0
C200 C 0.40806 0.0302 0.47264 0.0
C201 C 0.5447 0.0991 0.63554 0.0
O202 O 0.54239 0.12298 0.69138 0.0
O203 O 0.46511 0.09583 0.69579 0.0
O204 O 0.41974 0.10389 0.677 0.0
O205 O 0.49194 0.10968 0.34053 0.0
O206 O 0.45704 0.12058 0.44027 0.0
C207 C 0.44106 0.09991 0.73633 0.0
C208 C 0.4693 0.11957 0.34556 0.0
O209 O 0.52193 0.08188 0.56352 0.0
Mg210 Mg 0.72863 0.58939 0.07241 0.0
O211 O 0.74018 0.64428 0.10678 0.0
O212 O 0.68968 0.64324 0.11612 0.0
Mg213 Mg 0.64598 0.58685 0.09672 0.0
C214 C 0.72264 0.6594 0.11953 0.0
C215 C 0.79042 0.59055 0.95671 0.0
O216 O 0.76425 0.56668 0.90081 0.0
O217 O 0.71408 0.59378 0.89643 0.0
O218 O 0.66065 0.58571 0.91523 0.0
O219 O 0.72705 0.57994 0.25168 0.0
O220 O 0.68124 0.56903 0.15195 0.0
C221 C 0.68596 0.58971 0.85589 0.0
C222 C 0.69451 0.57004 0.24666 0.0
O223 O 0.78485 0.60775 0.02874 0.0
Mg224 Mg 0.43933 0.14494 0.07234 0.0
O225 O 0.38445 0.10159 0.10677 0.0
O226 O 0.38548 0.05213 0.11611 0.0
Mg227 Mg 0.44187 0.06483 0.09664 0.0
C228 C 0.36932 0.06893 0.11956 0.0
C229 C 0.43816 0.20555 0.95661 0.0
O230 O 0.46203 0.20324 0.90069 0.0
O231 O 0.43494 0.12598 0.89636 0.0
O232 O 0.44301 0.08062 0.91514 0.0
O233 O 0.44879 0.15281 0.25162 0.0
O234 O 0.4597 0.11792 0.15187 0.0
C235 C 0.43902 0.10194 0.85581 0.0
C236 C 0.45869 0.13018 0.24658 0.0
O237 O 0.42097 0.18278 0.02867 0.0
Mg238 Mg 0.88379 0.30015 0.0733 0.0
O239 O 0.92712 0.28858 0.10764 0.0
O240 O 0.9766 0.33908 0.11706 0.0
Mg241 Mg 0.96392 0.38279 0.09775 0.0
C242 C 0.95978 0.30611 0.12042 0.0
C243 C 0.82325 0.23845 0.95697 0.0
O244 O 0.82563 0.26467 0.90118 0.0
O245 O 0.90276 0.31474 0.8974 0.0
O246 O 0.94814 0.36817 0.91621 0.0
O247 O 0.87591 0.3017 0.25262 0.0
O248 O 0.91083 0.34751 0.15294 0.0
C249 C 0.92681 0.34286 0.85687 0.0
C250 C 0.89855 0.33423 0.24763 0.0
O251 O 0.84593 0.24396 0.02929 0.0
Mg252 Mg 0.43925 0.30006 0.07278 0.0
O253 O 0.38435 0.2885 0.10717 0.0
O254 O 0.38538 0.339 0.11658 0.0
Mg255 Mg 0.44177 0.38271 0.0972 0.0
C256 C 0.36922 0.30603 0.11997 0.0
C257 C 0.43814 0.23836 0.95672 0.0
O258 O 0.46198 0.26457 0.90086 0.0
O259 O 0.43487 0.31464 0.89686 0.0
O260 O 0.44293 0.36807 0.91567 0.0
O261 O 0.44869 0.30163 0.25207 0.0
O262 O 0.45959 0.34744 0.15239 0.0
C263 C 0.43894 0.34276 0.85633 0.0
C264 C 0.45858 0.33416 0.24708 0.0
O265 O 0.42093 0.24387 0.02891 0.0
Mg266 Mg 0.72866 0.14491 0.07195 0.0
O267 O 0.74021 0.10156 0.10628 0.0
O268 O 0.6897 0.05209 0.11558 0.0
Mg269 Mg 0.64601 0.06478 0.09618 0.0
C270 C 0.72267 0.0689 0.11901 0.0
C271 C 0.79044 0.20561 0.95659 0.0
O272 O 0.76426 0.20333 0.90075 0.0
O273 O 0.71412 0.12598 0.89595 0.0
O274 O 0.66069 0.08061 0.91471 0.0
O275 O 0.72707 0.15276 0.25122 0.0
O276 O 0.68127 0.11787 0.15146 0.0
C277 C 0.68601 0.10193 0.85539 0.0
C278 C 0.69454 0.13013 0.24618 0.0
O279 O 0.78488 0.18279 0.02841 0.0
Mg280 Mg 0.88385 0.58946 0.0729 0.0
O281 O 0.92718 0.64436 0.10729 0.0
O282 O 0.97666 0.64335 0.11667 0.0
Mg283 Mg 0.96398 0.58696 0.09726 0.0
C284 C 0.95985 0.6595 0.12007 0.0
C285 C 0.82326 0.59057 0.95685 0.0
O286 O 0.82562 0.56673 0.90098 0.0
O287 O 0.90282 0.59387 0.89696 0.0
O288 O 0.94819 0.58583 0.91574 0.0
O289 O 0.87597 0.58001 0.25219 0.0
O290 O 0.91089 0.56913 0.15248 0.0
C291 C 0.92687 0.58981 0.85642 0.0
C292 C 0.89861 0.57014 0.24718 0.0
O293 O 0.84597 0.60777 0.02905 0.0
Mg294 Mg 0.63922 0.10019 0.51947 0.0
O295 O 0.62767 0.04529 0.48509 0.0
O296 O 0.67817 0.04633 0.47566 0.0
Mg297 Mg 0.72187 0.10273 0.49503 0.0
C298 C 0.6452 0.03017 0.47228 0.0
C299 C 0.57751 0.09909 0.63545 0.0
O300 O 0.60372 0.12296 0.69125 0.0
O301 O 0.65381 0.09582 0.6954 0.0
O302 O 0.70724 0.10388 0.67657 0.0
O303 O 0.64078 0.10962 0.34018 0.0
O304 O 0.68659 0.12053 0.43986 0.0
C305 C 0.68193 0.0999 0.73592 0.0
C306 C 0.67331 0.11951 0.34517 0.0
O307 O 0.58303 0.08186 0.56334 0.0
Mg308 Mg 0.92856 0.54477 0.52045 0.0
O309 O 0.98346 0.5881 0.48604 0.0
O310 O 0.98245 0.63758 0.47668 0.0
Mg311 Mg 0.92606 0.6249 0.49611 0.0
C312 C 0.9986 0.62076 0.47326 0.0
C313 C 0.92971 0.4842 0.63652 0.0
O314 O 0.90588 0.48656 0.69247 0.0
O315 O 0.93297 0.56374 0.69639 0.0
O316 O 0.92493 0.60911 0.67762 0.0
O317 O 0.91911 0.53688 0.34117 0.0
O318 O 0.90823 0.5718 0.44088 0.0
C319 C 0.92891 0.58779 0.73694 0.0
C320 C 0.90923 0.55953 0.34618 0.0
O321 O 0.94689 0.5069 0.56428 0.0
Mg322 Mg 0.48398 0.3895 0.52034 0.0
O323 O 0.44064 0.40105 0.48601 0.0
O324 O 0.39116 0.35055 0.47667 0.0
Mg325 Mg 0.40385 0.30685 0.49604 0.0
C326 C 0.40797 0.38351 0.47326 0.0
C327 C 0.54462 0.45125 0.63606 0.0
O328 O 0.54231 0.42507 0.69194 0.0
O329 O 0.46503 0.37494 0.69631 0.0
O330 O 0.41966 0.32152 0.67753 0.0
O331 O 0.49184 0.38791 0.34105 0.0
O332 O 0.45694 0.34211 0.44079 0.0
C333 C 0.44098 0.34683 0.73686 0.0
C334 C 0.4692 0.35538 0.34608 0.0
O335 O 0.52186 0.44571 0.56403 0.0
Mg336 Mg 0.59517 0.72282 0.85323 0.0
O337 O 0.65007 0.73437 0.81885 0.0
O338 O 0.64904 0.68387 0.80948 0.0
Mg339 Mg 0.59264 0.64017 0.82888 0.0
C340 C 0.66519 0.71684 0.80607 0.0
C341 C 0.59629 0.78459 -0.03113 0.0
O342 O 0.5724 0.75841 0.0247 0.0
O343 O 0.59956 0.70826 0.0292 0.0
O344 O 0.5915 0.65483 0.01039 0.0
O345 O 0.58573 0.72124 0.67395 0.0
O346 O 0.57482 0.67544 0.77368 0.0
C347 C 0.59548 0.68014 0.06974 0.0
C348 C 0.57583 0.68871 0.67897 0.0
O349 O 0.61352 0.77903 0.89691 0.0
Mg350 Mg 0.30592 0.87806 0.85312 0.0
O351 O 0.29436 0.92139 0.81881 0.0
O352 O 0.34486 0.97087 0.80943 0.0
Mg353 Mg 0.38857 0.95819 0.82874 0.0
C354 C 0.3119 0.95406 0.80606 0.0
C355 C 0.24422 0.81746 -0.03088 0.0
O356 O 0.27044 0.8198 0.02485 0.0
O357 O 0.3205 0.89702 0.02905 0.0
O358 O 0.37392 0.9424 0.01026 0.0
O359 O 0.30749 0.87019 0.67382 0.0
O360 O 0.3533 0.9051 0.77352 0.0
C361 C 0.34861 0.92107 0.06959 0.0
C362 C 0.34002 0.89283 0.67882 0.0
O363 O 0.24973 0.84019 0.897 0.0
Mg364 Mg 0.15067 0.43353 0.85429 0.0
O365 O 0.10732 0.37864 0.81985 0.0
O366 O 0.05786 0.37968 0.81052 0.0
Mg367 Mg 0.07057 0.43607 0.83003 0.0
C368 C 0.07466 0.36352 0.80707 0.0
C369 C 0.21126 0.43232 -0.02989 0.0
O370 O 0.20893 0.45615 0.02615 0.0
O371 O 0.13172 0.42912 0.03027 0.0
O372 O 0.08637 0.43719 0.01152 0.0
O373 O 0.15855 0.44299 0.67502 0.0
O374 O 0.12365 0.4539 0.77478 0.0
C375 C 0.10768 0.4332 0.07084 0.0
C376 C 0.13592 0.45289 0.68006 0.0
O377 O 0.18852 0.41516 0.89795 0.0
Mg378 Mg 0.39535 0.92278 0.40554 0.0
O379 O 0.40691 0.97768 0.43993 0.0
O380 O 0.3564 0.97664 0.44931 0.0
Mg381 Mg 0.3127 0.92025 0.4299 0.0
C382 C 0.38937 0.9928 0.45272 0.0
C383 C 0.45708 0.92393 0.28949 0.0
O384 O 0.43088 0.90009 0.23359 0.0
O385 O 0.38079 0.92718 0.2296 0.0
O386 O 0.32737 0.91912 0.24839 0.0
O387 O 0.39378 0.91333 0.58482 0.0
O388 O 0.34797 0.90243 0.48512 0.0
C389 C 0.35268 0.92311 0.18906 0.0
C390 C 0.36124 0.90344 0.57982 0.0
O391 O 0.45155 0.94111 0.3617 0.0
Mg392 Mg 0.10598 0.47827 0.40678 0.0
O393 O 0.05108 0.43494 0.44113 0.0
O394 O 0.05209 0.38546 0.45051 0.0
Mg395 Mg 0.10848 0.39813 0.43117 0.0
C396 C 0.03594 0.40227 0.45389 0.0
C397 C 0.10488 0.53886 0.29072 0.0
O398 O 0.12873 0.5365 0.23492 0.0
O399 O 0.10159 0.45929 0.23085 0.0
O400 O 0.10963 0.41392 0.24964 0.0
O401 O 0.11542 0.48615 0.58608 0.0
O402 O 0.12631 0.45122 0.48638 0.0
C403 C 0.10565 0.43524 0.19031 0.0
C404 C 0.1253 0.4635 0.58108 0.0
O405 O 0.08767 0.51614 0.3629 0.0
Mg406 Mg 0.55046 0.63337 0.40573 0.0
O407 O 0.5938 0.62182 0.4401 0.0
O408 O 0.64327 0.67233 0.44944 0.0
Mg409 Mg 0.63058 0.71602 0.43005 0.0
C410 C 0.62646 0.63936 0.45286 0.0
C411 C 0.48981 0.57161 0.29005 0.0
O412 O 0.49213 0.5978 0.23419 0.0
O413 O 0.56941 0.64794 0.22975 0.0
O414 O 0.61477 0.70137 0.24854 0.0
O415 O 0.54259 0.63495 0.58501 0.0
O416 O 0.57749 0.68076 0.48528 0.0
C417 C 0.59345 0.67606 0.18921 0.0
C418 C 0.56522 0.66748 0.57999 0.0
O419 O 0.51259 0.57716 0.36204 0.0
Mg420 Mg 0.10601 0.63345 0.40618 0.0
O421 O 0.05112 0.62191 0.44055 0.0
O422 O 0.05216 0.67242 0.44992 0.0
Mg423 Mg 0.10856 0.71611 0.43051 0.0
C424 C 0.036 0.63946 0.45333 0.0
C425 C 0.10488 0.57168 0.29054 0.0
O426 O 0.12878 0.59786 0.23469 0.0
O427 O 0.10163 0.64802 0.2302 0.0
O428 O 0.1097 0.70144 0.24901 0.0
O429 O 0.11545 0.63503 0.58546 0.0
O430 O 0.12637 0.68084 0.48572 0.0
C431 C 0.10571 0.67614 0.18967 0.0
C432 C 0.12535 0.66756 0.58043 0.0
O433 O 0.08765 0.57724 0.3625 0.0
Mg434 Mg 0.39525 0.47821 0.40628 0.0
O435 O 0.40681 0.43488 0.44062 0.0
O436 O 0.35631 0.3854 0.45001 0.0
Mg437 Mg 0.3126 0.39808 0.43067 0.0
C438 C 0.38927 0.40221 0.45339 0.0
C439 C 0.45698 0.53879 0.2902 0.0
O440 O 0.43078 0.53644 0.23432 0.0
O441 O 0.38068 0.45924 0.23034 0.0
O442 O 0.32725 0.41387 0.24915 0.0
O443 O 0.39368 0.48608 0.58558 0.0
O444 O 0.34787 0.45117 0.48588 0.0
C445 C 0.35256 0.43519 0.18981 0.0
C446 C 0.36115 0.46344 0.58058 0.0
O447 O 0.45145 0.51608 0.36241 0.0
Mg448 Mg 0.5505 0.92275 0.40516 0.0
O449 O 0.59384 0.97764 0.43957 0.0
O450 O 0.64331 0.97662 0.44889 0.0
Mg451 Mg 0.63062 0.92023 0.42943 0.0
C452 C 0.62651 0.99277 0.45234 0.0
C453 C 0.4899 0.92392 0.28937 0.0
O454 O 0.49221 0.90007 0.23339 0.0
O455 O 0.56945 0.92715 0.22918 0.0
O456 O 0.61482 0.91909 0.24793 0.0
O457 O 0.54263 0.91329 0.58442 0.0
O458 O 0.57753 0.90239 0.48468 0.0
C459 C 0.59349 0.92308 0.18862 0.0
C460 C 0.56526 0.90339 0.57939 0.0
O461 O 0.51265 0.9411 0.36149 0.0
Mg462 Mg 0.30582 0.43349 0.85387 0.0
O463 O 0.29425 0.37859 0.81946 0.0
O464 O 0.34475 0.37961 0.81007 0.0
Mg465 Mg 0.38846 0.436 0.82948 0.0
C466 C 0.31178 0.36346 0.80667 0.0
C467 C 0.24408 0.43231 -0.02999 0.0
O468 O 0.27027 0.45612 0.02603 0.0
O469 O 0.32038 0.42908 0.0298 0.0
O470 O 0.3738 0.43714 0.011 0.0
O471 O 0.3074 0.44294 0.67458 0.0
O472 O 0.3532 0.45383 0.77428 0.0
C473 C 0.34849 0.43315 0.07034 0.0
C474 C 0.33993 0.45283 0.67958 0.0
O475 O 0.24962 0.41516 0.8977 0.0
Mg476 Mg 0.59519 0.87801 0.85267 0.0
O477 O 0.65009 0.92134 0.8183 0.0
O478 O 0.64907 0.97082 0.8089 0.0
Mg479 Mg 0.59268 0.95814 0.82828 0.0
C480 C 0.66522 0.95401 0.80551 0.0
C481 C 0.5963 0.81742 -0.03129 0.0
O482 O 0.57244 0.81977 0.02454 0.0
O483 O 0.59958 0.89698 0.0286 0.0
O484 O 0.59154 0.94236 0.00981 0.0
O485 O 0.58575 0.87013 0.67337 0.0
O486 O 0.57486 0.90505 0.77308 0.0
C487 C 0.59552 0.92104 0.06914 0.0
C488 C 0.57587 0.89278 0.67838 0.0
O489 O 0.61351 0.84014 0.89654 0.0
Mg490 Mg 0.15073 0.7229 0.85367 0.0
O491 O 0.10738 0.73445 0.81935 0.0
O492 O 0.05791 0.68395 0.81001 0.0
Mg493 Mg 0.0706 0.64025 0.82936 0.0
C494 C 0.07471 0.71691 0.8066 0.0
C495 C 0.21139 0.78464 -0.03072 0.0
O496 O 0.2091 0.75845 0.02504 0.0
O497 O 0.13178 0.70833 0.02965 0.0
O498 O 0.08641 0.6549 0.01087 0.0
O499 O 0.15859 0.72132 0.67439 0.0
O500 O 0.12369 0.67551 0.77412 0.0
C501 C 0.10774 0.68021 0.07019 0.0
C502 C 0.13596 0.68879 0.67941 0.0
O503 O 0.1886 0.7791 0.89737 0.0
loop_
_geom_bond_atom_site_label_1
_geom_bond_atom_site_label_2
_geom_bond_distance
_geom_bond_site_symmetry_2
_ccdc_geom_bond_type
Mg0 O1 2.028 . S
Mg0 O7 1.986 . S
Mg0 O9 2.114 . S
Mg0 O10 2.251 1_545 S
Mg0 O13 2.010 . S
O1 Mg0 2.028 . S
O1 C4 1.250 . S
O2 Mg3 2.028 1_545 S
O2 C4 1.248 . S
Mg3 O2 2.028 1_565 S
Mg3 O8 2.032 . S
Mg3 O10 2.079 . S
C4 O1 1.250 . S
C4 O2 1.248 . S
C5 O6 1.264 . S
C5 O13 1.249 . S
O6 C5 1.264 . S
O7 Mg0 1.986 . S
O7 C11 1.246 . S
O8 Mg3 2.032 . S
O8 C11 1.259 1_565 S
O9 Mg0 2.114 . S
O9 C12 1.252 . S
O10 Mg0 2.251 1_565 S
O10 Mg3 2.079 . S
O10 C12 1.273 1_565 S
C11 O7 1.246 . S
C11 O8 1.259 1_545 S
C12 O9 1.252 . S
C12 O10 1.273 1_545 S
O13 Mg0 2.010 . S
O13 C5 1.249 . S
Mg14 O15 2.028 . S
Mg14 O21 1.986 . S
Mg14 O23 2.114 . S
Mg14 O24 2.251 1_655 S
Mg14 O27 2.010 . S
O15 Mg14 2.028 . S
O15 C18 1.250 . S
O16 Mg17 2.028 1_655 S
O16 C18 1.248 . S
Mg17 O16 2.028 1_455 S
Mg17 O22 2.032 . S
Mg17 O24 2.079 . S
C18 O15 1.250 . S
C18 O16 1.248 . S
C19 O20 1.264 . S
C19 O27 1.249 . S
O20 C19 1.264 . S
O21 Mg14 1.986 . S
O21 C25 1.246 . S
O22 Mg17 2.032 . S
O22 C25 1.259 1_455 S
O23 Mg14 2.114 . S
O23 C26 1.252 . S
O24 Mg14 2.251 1_455 S
O24 Mg17 2.079 . S
O24 C26 1.273 1_455 S
C25 O21 1.246 . S
C25 O22 1.259 1_655 S
C26 O23 1.252 . S
C26 O24 1.273 1_655 S
O27 Mg14 2.010 . S
O27 C19 1.249 . S
Mg28 O29 2.028 . S
Mg28 O35 1.986 . S
Mg28 O37 2.114 . S
Mg28 O38 2.251 . S
Mg28 O41 2.010 . S
O29 Mg28 2.028 . S
O29 C32 1.250 . S
O30 Mg31 2.028 . S
O30 C32 1.248 . S
Mg31 O30 2.028 . S
Mg31 O36 2.032 . S
Mg31 O38 2.079 . S
C32 O29 1.250 . S
C32 O30 1.248 . S
C33 O34 1.264 . S
C33 O41 1.249 . S
O34 C33 1.264 . S
O35 Mg28 1.986 . S
O35 C39 1.246 . S
O36 Mg31 2.032 . S
O36 C39 1.259 . S
O37 Mg28 2.114 . S
O37 C40 1.252 . S
O38 Mg28 2.251 . S
O38 Mg31 2.079 . S
O38 C40 1.273 . S
C39 O35 1.246 . S
C39 O36 1.259 . S
C40 O37 1.252 . S
C40 O38 1.273 . S
O41 Mg28 2.010 . S
O41 C33 1.249 . S
Mg42 O43 2.028 . S
Mg42 O49 1.986 . S
Mg42 O51 2.114 . S
Mg42 O52 2.251 1_455 S
Mg42 O55 2.010 . S
O43 Mg42 2.028 . S
O43 C46 1.250 . S
O44 Mg45 2.028 1_455 S
O44 C46 1.248 . S
Mg45 O44 2.028 1_655 S
Mg45 O50 2.032 . S
Mg45 O52 2.079 . S
C46 O43 1.250 . S
C46 O44 1.248 . S
C47 O48 1.264 . S
C47 O55 1.249 . S
O48 C47 1.264 . S
O49 Mg42 1.986 . S
O49 C53 1.246 . S
O50 Mg45 2.032 . S
O50 C53 1.259 1_655 S
O51 Mg42 2.114 . S
O51 C54 1.252 . S
O52 Mg42 2.251 1_655 S
O52 Mg45 2.079 . S
O52 C54 1.273 1_655 S
C53 O49 1.246 . S
C53 O50 1.259 1_455 S
C54 O51 1.252 . S
C54 O52 1.273 1_455 S
O55 Mg42 2.010 . S
O55 C47 1.249 . S
Mg56 O57 2.028 . S
Mg56 O63 1.986 . S
Mg56 O65 2.114 . S
Mg56 O66 2.251 . S
Mg56 O69 2.010 . S
O57 Mg56 2.028 . S
O57 C60 1.250 . S
O58 Mg59 2.028 . S
O58 C60 1.248 . S
Mg59 O58 2.028 . S
Mg59 O64 2.032 . S
Mg59 O66 2.079 . S
C60 O57 1.250 . S
C60 O58 1.248 . S
C61 O62 1.264 . S
C61 O69 1.249 . S
O62 C61 1.264 . S
O63 Mg56 1.986 . S
O63 C67 1.246 . S
O64 Mg59 2.032 . S
O64 C67 1.259 . S
O65 Mg56 2.114 . S
O65 C68 1.252 . S
O66 Mg56 2.251 . S
O66 Mg59 2.079 . S
O66 C68 1.273 . S
C67 O63 1.246 . S
C67 O64 1.259 . S
C68 O65 1.252 . S
C68 O66 1.273 . S
O69 Mg56 2.010 . S
O69 C61 1.249 . S
Mg70 O71 2.028 . S
Mg70 O77 1.986 . S
Mg70 O79 2.114 . S
Mg70 O80 2.251 1_565 S
Mg70 O83 2.010 . S
O71 Mg70 2.028 . S
O71 C74 1.250 . S
O72 Mg73 2.028 1_565 S
O72 C74 1.248 . S
Mg73 O72 2.028 1_545 S
Mg73 O78 2.032 . S
Mg73 O80 2.079 . S
C74 O71 1.250 . S
C74 O72 1.248 . S
C75 O76 1.264 . S
C75 O83 1.249 . S
O76 C75 1.264 . S
O77 Mg70 1.986 . S
O77 C81 1.246 . S
O78 Mg73 2.032 . S
O78 C81 1.259 1_545 S
O79 Mg70 2.114 . S
O79 C82 1.252 . S
O80 Mg70 2.251 1_545 S
O80 Mg73 2.079 . S
O80 C82 1.273 1_545 S
C81 O77 1.246 . S
C81 O78 1.259 1_565 S
C82 O79 1.252 . S
C82 O80 1.273 1_565 S
O83 Mg70 2.010 . S
O83 C75 1.249 . S
Mg84 O85 2.028 . S
Mg84 O91 1.986 . S
Mg84 O93 2.114 . S
Mg84 O94 2.251 1_565 S
Mg84 O97 2.010 . S
O85 Mg84 2.028 . S
O85 C88 1.250 . S
O86 Mg87 2.028 1_565 S
O86 C88 1.248 . S
Mg87 O86 2.028 1_545 S
Mg87 O92 2.032 . S
Mg87 O94 2.079 . S
C88 O85 1.250 . S
C88 O86 1.248 . S
C89 O90 1.264 . S
C89 O97 1.249 . S
O90 C89 1.264 . S
O91 Mg84 1.986 . S
O91 C95 1.246 . S
O92 Mg87 2.032 . S
O92 C95 1.259 1_545 S
O93 Mg84 2.114 . S
O93 C96 1.252 . S
O94 Mg84 2.251 1_545 S
O94 Mg87 2.079 . S
O94 C96 1.273 1_545 S
C95 O91 1.246 . S
C95 O92 1.259 1_565 S
C96 O93 1.252 . S
C96 O94 1.273 1_565 S
O97 Mg84 2.010 . S
O97 C89 1.249 . S
Mg98 O99 2.028 . S
Mg98 O105 1.986 . S
Mg98 O107 2.114 . S
Mg98 O108 2.251 1_455 S
Mg98 O111 2.010 . S
O99 Mg98 2.028 . S
O99 C102 1.250 . S
O100 Mg101 2.028 1_455 S
O100 C102 1.248 . S
Mg101 O100 2.028 1_655 S
Mg101 O106 2.032 . S
Mg101 O108 2.079 . S
C102 O99 1.250 . S
C102 O100 1.248 . S
C103 O104 1.264 . S
C103 O111 1.249 . S
O104 C103 1.264 . S
O105 Mg98 1.986 . S
O105 C109 1.246 . S
O106 Mg101 2.032 . S
O106 C109 1.259 1_655 S
O107 Mg98 2.114 . S
O107 C110 1.252 . S
O108 Mg98 2.251 1_655 S
O108 Mg101 2.079 . S
O108 C110 1.273 1_655 S
C109 O105 1.246 . S
C109 O106 1.259 1_455 S
C110 O107 1.252 . S
C110 O108 1.273 1_455 S
O111 Mg98 2.010 . S
O111 C103 1.249 . S
Mg112 O113 2.028 . S
Mg112 O119 1.986 . S
Mg112 O121 2.114 . S
Mg112 O122 2.251 . S
Mg112 O125 2.010 . S
O113 Mg112 2.028 . S
O113 C116 1.250 . S
O114 Mg115 2.028 . S
O114 C116 1.248 . S
Mg115 O114 2.028 . S
Mg115 O120 2.032 . S
Mg115 O122 2.079 . S
C116 O113 1.250 . S
C116 O114 1.248 . S
C117 O118 1.264 . S
C117 O125 1.249 . S
O118 C117 1.264 . S
O119 Mg112 1.986 . S
O119 C123 1.246 . S
O120 Mg115 2.032 . S
O120 C123 1.259 . S
O121 Mg112 2.114 . S
O121 C124 1.252 . S
O122 Mg112 2.251 . S
O122 Mg115 2.079 . S
O122 C124 1.273 . S
C123 O119 1.246 . S
C123 O120 1.259 . S
C124 O121 1.252 . S
C124 O122 1.273 . S
O125 Mg112 2.010 . S
O125 C117 1.249 . S
Mg126 O127 2.028 . S
Mg126 O133 1.986 . S
Mg126 O135 2.114 . S
Mg126 O136 2.251 1_655 S
Mg126 O139 2.010 . S
O127 Mg126 2.028 . S
O127 C130 1.250 . S
O128 Mg129 2.028 1_655 S
O128 C130 1.248 . S
Mg129 O128 2.028 1_455 S
Mg129 O134 2.032 . S
Mg129 O136 2.079 . S
C130 O127 1.250 . S
C130 O128 1.248 . S
C131 O132 1.264 . S
C131 O139 1.249 . S
O132 C131 1.264 . S
O133 Mg126 1.986 . S
O133 C137 1.246 . S
O134 Mg129 2.032 . S
O134 C137 1.259 1_455 S
O135 Mg126 2.114 . S
O135 C138 1.252 . S
O136 Mg126 2.251 1_455 S
O136 Mg129 2.079 . S
O136 C138 1.273 1_455 S
C137 O133 1.246 . S
C137 O134 1.259 1_655 S
C138 O135 1.252 . S
C138 O136 1.273 1_655 S
O139 Mg126 2.010 . S
O139 C131 1.249 . S
Mg140 O141 2.028 . S
Mg140 O147 1.986 . S
Mg140 O149 2.114 . S
Mg140 O150 2.251 . S
Mg140 O153 2.010 . S
O141 Mg140 2.028 . S
O141 C144 1.250 . S
O142 Mg143 2.028 . S
O142 C144 1.248 . S
Mg143 O142 2.028 . S
Mg143 O148 2.032 . S
Mg143 O150 2.079 . S
C144 O141 1.250 . S
C144 O142 1.248 . S
C145 O146 1.264 . S
C145 O153 1.249 . S
O146 C145 1.264 . S
O147 Mg140 1.986 . S
O147 C151 1.246 . S
O148 Mg143 2.032 . S
O148 C151 1.259 . S
O149 Mg140 2.114 . S
O149 C152 1.252 . S
O150 Mg140 2.251 . S
O150 Mg143 2.079 . S
O150 C152 1.273 . S
C151 O147 1.246 . S
C151 O148 1.259 . S
C152 O149 1.252 . S
C152 O150 1.273 . S
O153 Mg140 2.010 . S
O153 C145 1.249 . S
Mg154 O155 2.028 . S
Mg154 O161 1.986 . S
Mg154 O163 2.114 . S
Mg154 O164 2.251 1_545 S
Mg154 O167 2.010 . S
O155 Mg154 2.028 . S
O155 C158 1.250 . S
O156 Mg157 2.028 1_545 S
O156 C158 1.248 . S
Mg157 O156 2.028 1_565 S
Mg157 O162 2.032 . S
Mg157 O164 2.079 . S
C158 O155 1.250 . S
C158 O156 1.248 . S
C159 O160 1.264 . S
C159 O167 1.249 . S
O160 C159 1.264 . S
O161 Mg154 1.986 . S
O161 C165 1.246 . S
O162 Mg157 2.032 . S
O162 C165 1.259 1_565 S
O163 Mg154 2.114 . S
O163 C166 1.252 . S
O164 Mg154 2.251 1_565 S
O164 Mg157 2.079 . S
O164 C166 1.273 1_565 S
C165 O161 1.246 . S
C165 O162 1.259 1_545 S
C166 O163 1.252 . S
C166 O164 1.273 1_545 S
O167 Mg154 2.010 . S
O167 C159 1.249 . S
Mg168 O169 2.028 . S
Mg168 O175 1.986 . S
Mg168 O177 2.114 . S
Mg168 O178 2.251 . S
Mg168 O181 2.010 . S
O169 Mg168 2.028 . S
O169 C172 1.250 . S
O170 Mg171 2.028 . S
O170 C172 1.248 . S
Mg171 O170 2.028 . S
Mg171 O176 2.032 . S
Mg171 O178 2.079 . S
C172 O169 1.250 . S
C172 O170 1.248 . S
C173 O174 1.264 . S
C173 O181 1.249 . S
O174 C173 1.264 . S
O175 Mg168 1.986 . S
O175 C179 1.246 . S
O176 Mg171 2.032 . S
O176 C179 1.259 . S
O177 Mg168 2.114 . S
O177 C180 1.252 . S
O178 Mg168 2.251 . S
O178 Mg171 2.079 . S
O178 C180 1.273 . S
C179 O175 1.246 . S
C179 O176 1.259 . S
C180 O177 1.252 . S
C180 O178 1.273 . S
O181 Mg168 2.010 . S
O181 C173 1.249 . S
Mg182 O183 2.028 . S
Mg182 O189 1.986 . S
Mg182 O191 2.114 . S
Mg182 O192 2.251 . S
Mg182 O195 2.010 . S
O183 Mg182 2.028 . S
O183 C186 1.250 . S
O184 Mg185 2.028 . S
O184 C186 1.248 . S
Mg185 O184 2.028 . S
Mg185 O190 2.032 . S
Mg185 O192 2.079 . S
C186 O183 1.250 . S
C186 O184 1.248 . S
C187 O188 1.264 . S
C187 O195 1.249 . S
O188 C187 1.264 . S
O189 Mg182 1.986 . S
O189 C193 1.246 . S
O190 Mg185 2.032 . S
O190 C193 1.259 . S
O191 Mg182 2.114 . S
O191 C194 1.252 . S
O192 Mg182 2.251 . S
O192 Mg185 2.079 . S
O192 C194 1.273 . S
C193 O189 1.246 . S
C193 O190 1.259 . S
C194 O191 1.252 . S
C194 O192 1.273 . S
O195 Mg182 2.010 . S
O195 C187 1.249 . S
Mg196 O197 2.028 . S
Mg196 O203 1.986 . S
Mg196 O205 2.114 . S
Mg196 O206 2.251 . S
Mg196 O209 2.010 . S
O197 Mg196 2.028 . S
O197 C200 1.250 . S
O198 Mg199 2.028 . S
O198 C200 1.248 . S
Mg199 O198 2.028 . S
Mg199 O204 2.032 . S
Mg199 O206 2.079 . S
C200 O197 1.250 . S
C200 O198 1.248 . S
C201 O202 1.264 . S
C201 O209 1.249 . S
O202 C201 1.264 . S
O203 Mg196 1.986 . S
O203 C207 1.246 . S
O204 Mg199 2.032 . S
O204 C207 1.259 . S
O205 Mg196 2.114 . S
O205 C208 1.252 . S
O206 Mg196 2.251 . S
O206 Mg199 2.079 . S
O206 C208 1.273 . S
C207 O203 1.246 . S
C207 O204 1.259 . S
C208 O205 1.252 . S
C208 O206 1.273 . S
O209 Mg196 2.010 . S
O209 C201 1.249 . S
Mg210 O211 2.028 . S
Mg210 O217 1.986 1_554 S
Mg210 O219 2.114 . S
Mg210 O220 2.251 . S
Mg210 O223 2.010 . S
O211 Mg210 2.028 . S
O211 C214 1.250 . S
O212 Mg213 2.028 . S
O212 C214 1.248 . S
Mg213 O212 2.028 . S
Mg213 O218 2.032 1_554 S
Mg213 O220 2.079 . S
C214 O211 1.250 . S
C214 O212 1.248 . S
C215 O216 1.264 . S
C215 O223 1.249 . S
O216 C215 1.264 . S
O217 Mg210 1.986 1_556 S
O217 C221 1.246 . S
O218 Mg213 2.032 1_556 S
O218 C221 1.259 . S
O219 Mg210 2.114 . S
O219 C222 1.252 . S
O220 Mg210 2.251 . S
O220 Mg213 2.079 . S
O220 C222 1.273 . S
C221 O217 1.246 . S
C221 O218 1.259 . S
C222 O219 1.252 . S
C222 O220 1.273 . S
O223 Mg210 2.010 . S
O223 C215 1.249 . S
Mg224 O225 2.028 . S
Mg224 O231 1.986 1_554 S
Mg224 O233 2.114 . S
Mg224 O234 2.251 . S
Mg224 O237 2.010 . S
O225 Mg224 2.028 . S
O225 C228 1.250 . S
O226 Mg227 2.028 . S
O226 C228 1.248 . S
Mg227 O226 2.028 . S
Mg227 O232 2.032 1_554 S
Mg227 O234 2.079 . S
C228 O225 1.250 . S
C228 O226 1.248 . S
C229 O230 1.264 . S
C229 O237 1.249 . S
O230 C229 1.264 . S
O231 Mg224 1.986 1_556 S
O231 C235 1.246 . S
O232 Mg227 2.032 1_556 S
O232 C235 1.259 . S
O233 Mg224 2.114 . S
O233 C236 1.252 . S
O234 Mg224 2.251 . S
O234 Mg227 2.079 . S
O234 C236 1.273 . S
C235 O231 1.246 . S
C235 O232 1.259 . S
C236 O233 1.252 . S
C236 O234 1.273 . S
O237 Mg224 2.010 . S
O237 C229 1.249 . S
Mg238 O239 2.028 . S
Mg238 O245 1.986 1_554 S
Mg238 O247 2.114 . S
Mg238 O248 2.251 . S
Mg238 O251 2.010 . S
O239 Mg238 2.028 . S
O239 C242 1.250 . S
O240 Mg241 2.028 . S
O240 C242 1.248 . S
Mg241 O240 2.028 . S
Mg241 O246 2.032 1_554 S
Mg241 O248 2.079 . S
C242 O239 1.250 . S
C242 O240 1.248 . S
C243 O244 1.264 . S
C243 O251 1.249 . S
O244 C243 1.264 . S
O245 Mg238 1.986 1_556 S
O245 C249 1.246 . S
O246 Mg241 2.032 1_556 S
O246 C249 1.259 . S
O247 Mg238 2.114 . S
O247 C250 1.252 . S
O248 Mg238 2.251 . S
O248 Mg241 2.079 . S
O248 C250 1.273 . S
C249 O245 1.246 . S
C249 O246 1.259 . S
C250 O247 1.252 . S
C250 O248 1.273 . S
O251 Mg238 2.010 . S
O251 C243 1.249 . S
Mg252 O253 2.028 . S
Mg252 O259 1.986 1_554 S
Mg252 O261 2.114 . S
Mg252 O262 2.251 . S
Mg252 O265 2.010 . S
O253 Mg252 2.028 . S
O253 C256 1.250 . S
O254 Mg255 2.028 . S
O254 C256 1.248 . S
Mg255 O254 2.028 . S
Mg255 O260 2.032 1_554 S
Mg255 O262 2.079 . S
C256 O253 1.250 . S
C256 O254 1.248 . S
C257 O258 1.264 . S
C257 O265 1.249 . S
O258 C257 1.264 . S
O259 Mg252 1.986 1_556 S
O259 C263 1.246 . S
O260 Mg255 2.032 1_556 S
O260 C263 1.259 . S
O261 Mg252 2.114 . S
O261 C264 1.252 . S
O262 Mg252 2.251 . S
O262 Mg255 2.079 . S
O262 C264 1.273 . S
C263 O259 1.246 . S
C263 O260 1.259 . S
C264 O261 1.252 . S
C264 O262 1.273 . S
O265 Mg252 2.010 . S
O265 C257 1.249 . S
Mg266 O267 2.028 . S
Mg266 O273 1.986 1_554 S
Mg266 O275 2.114 . S
Mg266 O276 2.251 . S
Mg266 O279 2.010 . S
O267 Mg266 2.028 . S
O267 C270 1.250 . S
O268 Mg269 2.028 . S
O268 C270 1.248 . S
Mg269 O268 2.028 . S
Mg269 O274 2.032 1_554 S
Mg269 O276 2.079 . S
C270 O267 1.250 . S
C270 O268 1.248 . S
C271 O272 1.264 . S
C271 O279 1.249 . S
O272 C271 1.264 . S
O273 Mg266 1.986 1_556 S
O273 C277 1.246 . S
O274 Mg269 2.032 1_556 S
O274 C277 1.259 . S
O275 Mg266 2.114 . S
O275 C278 1.252 . S
O276 Mg266 2.251 . S
O276 Mg269 2.079 . S
O276 C278 1.273 . S
C277 O273 1.246 . S
C277 O274 1.259 . S
C278 O275 1.252 . S
C278 O276 1.273 . S
O279 Mg266 2.010 . S
O279 C271 1.249 . S
Mg280 O281 2.028 . S
Mg280 O287 1.986 1_554 S
Mg280 O289 2.114 . S
Mg280 O290 2.251 . S
Mg280 O293 2.010 . S
O281 Mg280 2.028 . S
O281 C284 1.250 . S
O282 Mg283 2.028 . S
O282 C284 1.248 . S
Mg283 O282 2.028 . S
Mg283 O288 2.032 1_554 S
Mg283 O290 2.079 . S
C284 O281 1.250 . S
C284 O282 1.248 . S
C285 O286 1.264 . S
C285 O293 1.249 . S
O286 C285 1.264 . S
O287 Mg280 1.986 1_556 S
O287 C291 1.246 . S
O288 Mg283 2.032 1_556 S
O288 C291 1.259 . S
O289 Mg280 2.114 . S
O289 C292 1.252 . S
O290 Mg280 2.251 . S
O290 Mg283 2.079 . S
O290 C292 1.273 . S
C291 O287 1.246 . S
C291 O288 1.259 . S
C292 O289 1.252 . S
C292 O290 1.273 . S
O293 Mg280 2.010 . S
O293 C285 1.249 . S
Mg294 O295 2.028 . S
Mg294 O301 1.986 . S
Mg294 O303 2.114 . S
Mg294 O304 2.251 . S
Mg294 O307 2.010 . S
O295 Mg294 2.028 . S
O295 C298 1.250 . S
O296 Mg297 2.028 . S
O296 C298 1.248 . S
Mg297 O296 2.028 . S
Mg297 O302 2.032 . S
Mg297 O304 2.079 . S
C298 O295 1.250 . S
C298 O296 1.248 . S
C299 O300 1.264 . S
C299 O307 1.249 . S
O300 C299 1.264 . S
O301 Mg294 1.986 . S
O301 C305 1.246 . S
O302 Mg297 2.032 . S
O302 C305 1.259 . S
O303 Mg294 2.114 . S
O303 C306 1.252 . S
O304 Mg294 2.251 . S
O304 Mg297 2.079 . S
O304 C306 1.273 . S
C305 O301 1.246 . S
C305 O302 1.259 . S
C306 O303 1.252 . S
C306 O304 1.273 . S
O307 Mg294 2.010 . S
O307 C299 1.249 . S
Mg308 O309 2.028 . S
Mg308 O315 1.986 . S
Mg308 O317 2.114 . S
Mg308 O318 2.251 . S
Mg308 O321 2.010 . S
O309 Mg308 2.028 . S
O309 C312 1.250 . S
O310 Mg311 2.028 . S
O310 C312 1.248 . S
Mg311 O310 2.028 . S
Mg311 O316 2.032 . S
Mg311 O318 2.079 . S
C312 O309 1.250 . S
C312 O310 1.248 . S
C313 O314 1.264 . S
C313 O321 1.249 . S
O314 C313 1.264 . S
O315 Mg308 1.986 . S
O315 C319 1.246 . S
O316 Mg311 2.032 . S
O316 C319 1.259 . S
O317 Mg308 2.114 . S
O317 C320 1.252 . S
O318 Mg308 2.251 . S
O318 Mg311 2.079 . S
O318 C320 1.273 . S
C319 O315 1.246 . S
C319 O316 1.259 . S
C320 O317 1.252 . S
C320 O318 1.273 . S
O321 Mg308 2.010 . S
O321 C313 1.249 . S
Mg322 O323 2.028 . S
Mg322 O329 1.986 . S
Mg322 O331 2.114 . S
Mg322 O332 2.251 . S
Mg322 O335 2.010 . S
O323 Mg322 2.028 . S
O323 C326 1.250 . S
O324 Mg325 2.028 . S
O324 C326 1.248 . S
Mg325 O324 2.028 . S
Mg325 O330 2.032 . S
Mg325 O332 2.079 . S
C326 O323 1.250 . S
C326 O324 1.248 . S
C327 O328 1.264 . S
C327 O335 1.249 . S
O328 C327 1.264 . S
O329 Mg322 1.986 . S
O329 C333 1.246 . S
O330 Mg325 2.032 . S
O330 C333 1.259 . S
O331 Mg322 2.114 . S
O331 C334 1.252 . S
O332 Mg322 2.251 . S
O332 Mg325 2.079 . S
O332 C334 1.273 . S
C333 O329 1.246 . S
C333 O330 1.259 . S
C334 O331 1.252 . S
C334 O332 1.273 . S
O335 Mg322 2.010 . S
O335 C327 1.249 . S
Mg336 O337 2.028 . S
Mg336 O343 1.986 1_556 S
Mg336 O345 2.114 . S
Mg336 O346 2.251 . S
Mg336 O349 2.010 . S
O337 Mg336 2.028 . S
O337 C340 1.250 . S
O338 Mg339 2.028 . S
O338 C340 1.248 . S
Mg339 O338 2.028 . S
Mg339 O344 2.032 1_556 S
Mg339 O346 2.079 . S
C340 O337 1.250 . S
C340 O338 1.248 . S
C341 O342 1.264 . S
C341 O349 1.249 . S
O342 C341 1.264 . S
O343 Mg336 1.986 1_554 S
O343 C347 1.246 . S
O344 Mg339 2.032 1_554 S
O344 C347 1.259 . S
O345 Mg336 2.114 . S
O345 C348 1.252 . S
O346 Mg336 2.251 . S
O346 Mg339 2.079 . S
O346 C348 1.273 . S
C347 O343 1.246 . S
C347 O344 1.259 . S
C348 O345 1.252 . S
C348 O346 1.273 . S
O349 Mg336 2.010 . S
O349 C341 1.249 . S
Mg350 O351 2.028 . S
Mg350 O357 1.986 1_556 S
Mg350 O359 2.114 . S
Mg350 O360 2.251 . S
Mg350 O363 2.010 . S
O351 Mg350 2.028 . S
O351 C354 1.250 . S
O352 Mg353 2.028 . S
O352 C354 1.248 . S
Mg353 O352 2.028 . S
Mg353 O358 2.032 1_556 S
Mg353 O360 2.079 . S
C354 O351 1.250 . S
C354 O352 1.248 . S
C355 O356 1.264 . S
C355 O363 1.249 . S
O356 C355 1.264 . S
O357 Mg350 1.986 1_554 S
O357 C361 1.246 . S
O358 Mg353 2.032 1_554 S
O358 C361 1.259 . S
O359 Mg350 2.114 . S
O359 C362 1.252 . S
O360 Mg350 2.251 . S
O360 Mg353 2.079 . S
O360 C362 1.273 . S
C361 O357 1.246 . S
C361 O358 1.259 . S
C362 O359 1.252 . S
C362 O360 1.273 . S
O363 Mg350 2.010 . S
O363 C355 1.249 . S
Mg364 O365 2.028 . S
Mg364 O371 1.986 1_556 S
Mg364 O373 2.114 . S
Mg364 O374 2.251 . S
Mg364 O377 2.010 . S
O365 Mg364 2.028 . S
O365 C368 1.250 . S
O366 Mg367 2.028 . S
O366 C368 1.248 . S
Mg367 O366 2.028 . S
Mg367 O372 2.032 1_556 S
Mg367 O374 2.079 . S
C368 O365 1.250 . S
C368 O366 1.248 . S
C369 O370 1.264 . S
C369 O377 1.249 . S
O370 C369 1.264 . S
O371 Mg364 1.986 1_554 S
O371 C375 1.246 . S
O372 Mg367 2.032 1_554 S
O372 C375 1.259 . S
O373 Mg364 2.114 . S
O373 C376 1.252 . S
O374 Mg364 2.251 . S
O374 Mg367 2.079 . S
O374 C376 1.273 . S
C375 O371 1.246 . S
C375 O372 1.259 . S
C376 O373 1.252 . S
C376 O374 1.273 . S
O377 Mg364 2.010 . S
O377 C369 1.249 . S
Mg378 O379 2.028 . S
Mg378 O385 1.986 . S
Mg378 O387 2.114 . S
Mg378 O388 2.251 . S
Mg378 O391 2.010 . S
O379 Mg378 2.028 . S
O379 C382 1.250 . S
O380 Mg381 2.028 . S
O380 C382 1.248 . S
Mg381 O380 2.028 . S
Mg381 O386 2.032 . S
Mg381 O388 2.079 . S
C382 O379 1.250 . S
C382 O380 1.248 . S
C383 O384 1.264 . S
C383 O391 1.249 . S
O384 C383 1.264 . S
O385 Mg378 1.986 . S
O385 C389 1.246 . S
O386 Mg381 2.032 . S
O386 C389 1.259 . S
O387 Mg378 2.114 . S
O387 C390 1.252 . S
O388 Mg378 2.251 . S
O388 Mg381 2.079 . S
O388 C390 1.273 . S
C389 O385 1.246 . S
C389 O386 1.259 . S
C390 O387 1.252 . S
C390 O388 1.273 . S
O391 Mg378 2.010 . S
O391 C383 1.249 . S
Mg392 O393 2.028 . S
Mg392 O399 1.986 . S
Mg392 O401 2.114 . S
Mg392 O402 2.251 . S
Mg392 O405 2.010 . S
O393 Mg392 2.028 . S
O393 C396 1.250 . S
O394 Mg395 2.028 . S
O394 C396 1.248 . S
Mg395 O394 2.028 . S
Mg395 O400 2.032 . S
Mg395 O402 2.079 . S
C396 O393 1.250 . S
C396 O394 1.248 . S
C397 O398 1.264 . S
C397 O405 1.249 . S
O398 C397 1.264 . S
O399 Mg392 1.986 . S
O399 C403 1.246 . S
O400 Mg395 2.032 . S
O400 C403 1.259 . S
O401 Mg392 2.114 . S
O401 C404 1.252 . S
O402 Mg392 2.251 . S
O402 Mg395 2.079 . S
O402 C404 1.273 . S
C403 O399 1.246 . S
C403 O400 1.259 . S
C404 O401 1.252 . S
C404 O402 1.273 . S
O405 Mg392 2.010 . S
O405 C397 1.249 . S
Mg406 O407 2.028 . S
Mg406 O413 1.986 . S
Mg406 O415 2.114 . S
Mg406 O416 2.251 . S
Mg406 O419 2.010 . S
O407 Mg406 2.028 . S
O407 C410 1.250 . S
O408 Mg409 2.028 . S
O408 C410 1.248 . S
Mg409 O408 2.028 . S
Mg409 O414 2.032 . S
Mg409 O416 2.079 . S
C410 O407 1.250 . S
C410 O408 1.248 . S
C411 O412 1.264 . S
C411 O419 1.249 . S
O412 C411 1.264 . S
O413 Mg406 1.986 . S
O413 C417 1.246 . S
O414 Mg409 2.032 . S
O414 C417 1.259 . S
O415 Mg406 2.114 . S
O415 C418 1.252 . S
O416 Mg406 2.251 . S
O416 Mg409 2.079 . S
O416 C418 1.273 . S
C417 O413 1.246 . S
C417 O414 1.259 . S
C418 O415 1.252 . S
C418 O416 1.273 . S
O419 Mg406 2.010 . S
O419 C411 1.249 . S
Mg420 O421 2.028 . S
Mg420 O427 1.986 . S
Mg420 O429 2.114 . S
Mg420 O430 2.251 . S
Mg420 O433 2.010 . S
O421 Mg420 2.028 . S
O421 C424 1.250 . S
O422 Mg423 2.028 . S
O422 C424 1.248 . S
Mg423 O422 2.028 . S
Mg423 O428 2.032 . S
Mg423 O430 2.079 . S
C424 O421 1.250 . S
C424 O422 1.248 . S
C425 O426 1.264 . S
C425 O433 1.249 . S
O426 C425 1.264 . S
O427 Mg420 1.986 . S
O427 C431 1.246 . S
O428 Mg423 2.032 . S
O428 C431 1.259 . S
O429 Mg420 2.114 . S
O429 C432 1.252 . S
O430 Mg420 2.251 . S
O430 Mg423 2.079 . S
O430 C432 1.273 . S
C431 O427 1.246 . S
C431 O428 1.259 . S
C432 O429 1.252 . S
C432 O430 1.273 . S
O433 Mg420 2.010 . S
O433 C425 1.249 . S
Mg434 O435 2.028 . S
Mg434 O441 1.986 . S
Mg434 O443 2.114 . S
Mg434 O444 2.251 . S
Mg434 O447 2.010 . S
O435 Mg434 2.028 . S
O435 C438 1.250 . S
O436 Mg437 2.028 . S
O436 C438 1.248 . S
Mg437 O436 2.028 . S
Mg437 O442 2.032 . S
Mg437 O444 2.079 . S
C438 O435 1.250 . S
C438 O436 1.248 . S
C439 O440 1.264 . S
C439 O447 1.249 . S
O440 C439 1.264 . S
O441 Mg434 1.986 . S
O441 C445 1.246 . S
O442 Mg437 2.032 . S
O442 C445 1.259 . S
O443 Mg434 2.114 . S
O443 C446 1.252 . S
O444 Mg434 2.251 . S
O444 Mg437 2.079 . S
O444 C446 1.273 . S
C445 O441 1.246 . S
C445 O442 1.259 . S
C446 O443 1.252 . S
C446 O444 1.273 . S
O447 Mg434 2.010 . S
O447 C439 1.249 . S
Mg448 O449 2.028 . S
Mg448 O455 1.986 . S
Mg448 O457 2.114 . S
Mg448 O458 2.251 . S
Mg448 O461 2.010 . S
O449 Mg448 2.028 . S
O449 C452 1.250 . S
O450 Mg451 2.028 . S
O450 C452 1.248 . S
Mg451 O450 2.028 . S
Mg451 O456 2.032 . S
Mg451 O458 2.079 . S
C452 O449 1.250 . S
C452 O450 1.248 . S
C453 O454 1.264 . S
C453 O461 1.249 . S
O454 C453 1.264 . S
O455 Mg448 1.986 . S
O455 C459 1.246 . S
O456 Mg451 2.032 . S
O456 C459 1.259 . S
O457 Mg448 2.114 . S
O457 C460 1.252 . S
O458 Mg448 2.251 . S
O458 Mg451 2.079 . S
O458 C460 1.273 . S
C459 O455 1.246 . S
C459 O456 1.259 . S
C460 O457 1.252 . S
C460 O458 1.273 . S
O461 Mg448 2.010 . S
O461 C453 1.249 . S
Mg462 O463 2.028 . S
Mg462 O469 1.986 1_556 S
Mg462 O471 2.114 . S
Mg462 O472 2.251 . S
Mg462 O475 2.010 . S
O463 Mg462 2.028 . S
O463 C466 1.250 . S
O464 Mg465 2.028 . S
O464 C466 1.248 . S
Mg465 O464 2.028 . S
Mg465 O470 2.032 1_556 S
Mg465 O472 2.079 . S
C466 O463 1.250 . S
C466 O464 1.248 . S
C467 O468 1.264 . S
C467 O475 1.249 . S
O468 C467 1.264 . S
O469 Mg462 1.986 1_554 S
O469 C473 1.246 . S
O470 Mg465 2.032 1_554 S
O470 C473 1.259 . S
O471 Mg462 2.114 . S
O471 C474 1.252 . S
O472 Mg462 2.251 . S
O472 Mg465 2.079 . S
O472 C474 1.273 . S
C473 O469 1.246 . S
C473 O470 1.259 . S
C474 O471 1.252 . S
C474 O472 1.273 . S
O475 Mg462 2.010 . S
O475 C467 1.249 . S
Mg476 O477 2.028 . S
Mg476 O483 1.986 1_556 S
Mg476 O485 2.114 . S
Mg476 O486 2.251 . S
Mg476 O489 2.010 . S
O477 Mg476 2.028 . S
O477 C480 1.250 . S
O478 Mg479 2.028 . S
O478 C480 1.248 . S
Mg479 O478 2.028 . S
Mg479 O484 2.032 1_556 S
Mg479 O486 2.079 . S
C480 O477 1.250 . S
C480 O478 1.248 . S
C481 O482 1.264 . S
C481 O489 1.249 . S
O482 C481 1.264 . S
O483 Mg476 1.986 1_554 S
O483 C487 1.246 . S
O484 Mg479 2.032 1_554 S
O484 C487 1.259 . S
O485 Mg476 2.114 . S
O485 C488 1.252 . S
O486 Mg476 2.251 . S
O486 Mg479 2.079 . S
O486 C488 1.273 . S
C487 O483 1.246 . S
C487 O484 1.259 . S
C488 O485 1.252 . S
C488 O486 1.273 . S
O489 Mg476 2.010 . S
O489 C481 1.249 . S
Mg490 O491 2.028 . S
Mg490 O497 1.986 1_556 S
Mg490 O499 2.114 . S
Mg490 O500 2.251 . S
Mg490 O503 2.010 . S
O491 Mg490 2.028 . S
O491 C494 1.250 . S
O492 Mg493 2.028 . S
O492 C494 1.248 . S
Mg493 O492 2.028 . S
Mg493 O498 2.032 1_556 S
Mg493 O500 2.079 . S
C494 O491 1.250 . S
C494 O492 1.248 . S
C495 O496 1.264 . S
C495 O503 1.249 . S
O496 C495 1.264 . S
O497 Mg490 1.986 1_554 S
O497 C501 1.246 . S
O498 Mg493 2.032 1_554 S
O498 C501 1.259 . S
O499 Mg490 2.114 . S
O499 C502 1.252 . S
O500 Mg490 2.251 . S
O500 Mg493 2.079 . S
O500 C502 1.273 . S
C501 O497 1.246 . S
C501 O498 1.259 . S
C502 O499 1.252 . S
C502 O500 1.273 . S
O503 Mg490 2.010 . S
O503 C495 1.249 . S
C81 C11 1.513 1_565 S
C53 C25 1.513 1_455 S
C39 C67 1.513 . S
C95 C165 1.513 1_565 S
C109 C137 1.513 1_455 S
C151 C123 1.513 . S
C179 C249 1.513 . S
C193 C221 1.513 . S
C207 C235 1.514 . S
C333 C263 1.513 . S
C277 C305 1.513 . S
C319 C291 1.514 . S
C417 C347 1.513 . S
C389 C361 1.513 . S
C403 C375 1.514 . S
C431 C501 1.513 . S
C445 C473 1.513 . S
C459 C487 1.514 . S
C82 C12 1.132 1_566 S
C26 C54 1.132 1_654 S
C68 C40 1.132 1_556 S
C96 C166 1.132 1_566 S
C110 C138 1.132 1_456 S
C152 C124 1.132 1_554 S
C180 C250 1.132 . S
C222 C194 1.132 . S
C236 C208 1.132 . S
C264 C334 1.132 . S
C278 C306 1.132 . S
C320 C292 1.132 . S
C418 C348 1.132 . S
C362 C390 1.132 . S
C376 C404 1.132 . S
C502 C432 1.132 . S
C474 C446 1.132 . S
C488 C460 1.132 . S
C228 C4 1.521 . S
C242 C18 1.520 . S
C214 C32 1.521 . S
C46 C368 1.521 . S
C60 C340 1.521 . S
C74 C354 1.520 . S
C88 C480 1.521 . S
C102 C494 1.521 . S
C116 C466 1.521 . S
C130 C284 1.521 . S
C256 C144 1.521 . S
C270 C158 1.520 . S
C396 C172 1.521 1_455 S
C186 C410 1.521 . S
C200 C382 1.521 1_545 S
C298 C452 1.521 1_545 S
C312 C424 1.521 1_655 S
C438 C326 1.521 . S
C5 C145 0.835 . S
C159 C19 0.835 . S
C131 C33 0.835 . S
C47 C117 0.835 . S
C61 C89 0.835 . S
C75 C103 0.835 . S
C173 C313 0.835 . S
C327 C187 0.835 . S
C299 C201 0.835 . S
C215 C285 0.836 . S
C229 C257 0.836 . S
C271 C243 0.835 . S
C341 C481 0.836 . S
C495 C355 0.835 . S
C369 C467 0.836 . S
C383 C453 0.835 . S
C425 C397 0.835 . S
C411 C439 0.835 . S
