# Generated by pormake.
# Topology wkb, (5)-cn, num edge types: 1
# Building blocks:
#     Node 0, Type 0, BuildingBlock: XOMCOT_clean_sbu_1, # of connection points: 5
#     Node 1, Type 0, BuildingBlock: XOMCOT_clean_sbu_1, # of connection points: 5
#     Node 2, Type 0, BuildingBlock: XOMCOT_clean_sbu_1, # of connection points: 5
#     Node 3, Type 0, BuildingBlock: XOMCOT_clean_sbu_1, # of connection points: 5
#     Node 4, Type 0, BuildingBlock: XOMCOT_clean_sbu_1, # of connection points: 5
#     Node 5, Type 0, BuildingBlock: XOMCOT_clean_sbu_1, # of connection points: 5
#     Node 6, Type 0, BuildingBlock: XOMCOT_clean_sbu_1, # of connection points: 5
#     Node 7, Type 0, BuildingBlock: XOMCOT_clean_sbu_1, # of connection points: 5
#     Node 8, Type 0, BuildingBlock: XOMCOT_clean_sbu_1, # of connection points: 5
#     Node 9, Type 0, BuildingBlock: XOMCOT_clean_sbu_1, # of connection points: 5
#     Node 10, Type 0, BuildingBlock: XOMCOT_clean_sbu_1, # of connection points: 5
#     Node 11, Type 0, BuildingBlock: XOMCOT_clean_sbu_1, # of connection points: 5
#     Edge 12, Type (0, 0), None
#     Edge 13, Type (0, 0), None
#     Edge 14, Type (0, 0), None
#     Edge 15, Type (0, 0), None
#     Edge 16, Type (0, 0), None
#     Edge 17, Type (0, 0), None
#     Edge 18, Type (0, 0), None
#     Edge 19, Type (0, 0), None
#     Edge 20, Type (0, 0), None
#     Edge 21, Type (0, 0), None
#     Edge 22, Type (0, 0), None
#     Edge 23, Type (0, 0), None
#     Edge 24, Type (0, 0), None
#     Edge 25, Type (0, 0), None
#     Edge 26, Type (0, 0), None
#     Edge 27, Type (0, 0), None
#     Edge 28, Type (0, 0), None
#     Edge 29, Type (0, 0), None
#     Edge 30, Type (0, 0), None
#     Edge 31, Type (0, 0), None
#     Edge 32, Type (0, 0), None
#     Edge 33, Type (0, 0), None
#     Edge 34, Type (0, 0), None
#     Edge 35, Type (0, 0), None
#     Edge 36, Type (0, 0), None
#     Edge 37, Type (0, 0), None
#     Edge 38, Type (0, 0), None
#     Edge 39, Type (0, 0), None
#     Edge 40, Type (0, 0), None
#     Edge 41, Type (0, 0), None
# Relax obj value: 0.128
# Max RMSD: 0.130
# Mean RMSD: 0.130
data_MOF--net-wkb--node1-XOMCOT_clean_sbu_1--edge1-none
_symmetry_space_group_name_H-M    P1
_symmetry_Int_Tables_number       1
_symmetry_cell_setting            triclinic
loop_
_symmetry_equiv_pos_as_xyz
'x, y, z'
_cell_length_a     23.147394
_cell_length_b     23.164549
_cell_length_c     20.530229
_cell_angle_alpha  89.998368
_cell_angle_beta   89.999066
_cell_angle_gamma 120.06974
loop_
_atom_site_label
_atom_site_type_symbol
_atom_site_fract_x
_atom_site_fract_y
_atom_site_fract_z
_atom_type_partial_charge
C0 C 0.14594 0.402 0.93103 0.0
C1 C 0.12852 0.39993 0.8669 0.0
N2 N 0.06708 0.34717 0.86014 0.0
N3 N 0.09583 0.35022 0.96316 0.0
C4 C 1.04757 0.31772 0.91872 0.0
H5 H 0.19287 0.43798 0.95292 0.0
Co6 Co 0.10824 0.33362 0.04673 0.0
C7 C 0.96211 0.19752 0.07888 0.0
O8 O 0.92815 0.14757 0.03878 0.0
N9 N 0.12193 0.31869 0.13194 0.0
C10 C 0.10645 0.30684 0.23914 0.0
C11 C 0.08165 0.3147 0.18165 0.0
C12 C 0.17131 0.31328 0.16025 0.0
N13 N 0.16258 0.30603 0.22536 0.0
O14 O 0.14888 0.28068 0.0079 0.0
H15 H 1.03836 0.32032 0.17698 0.0
H16 H 0.21358 0.31703 0.13403 0.0
O17 O 1.01783 0.24739 0.05724 0.0
C18 C 0.20707 0.30663 0.97964 0.0
O19 O 0.25232 0.36768 0.99573 0.0
N20 N 0.07736 0.39246 0.07477 0.0
C21 C 0.06573 0.50815 0.08324 0.0
C22 C 1.01171 0.44674 0.06203 0.0
C23 C 1.01873 0.38941 0.05762 0.0
C24 C 0.12857 0.45052 0.09878 0.0
C25 C 0.12358 0.5081 0.10405 0.0
H26 H 0.97903 0.34424 0.03616 0.0
H27 H 0.17566 0.45351 0.11005 0.0
H28 H 1.00053 0.27282 0.92831 0.0
H29 H 0.1578 0.43421 0.82852 0.0
H30 H 0.08632 0.30451 0.28713 0.0
H31 H 0.96608 0.44398 0.04518 0.0
H32 H 0.16632 0.55332 0.12197 0.0
C33 C 0.7758 0.12951 0.09779 0.0
C34 C 0.76049 0.1121 0.03365 0.0
N35 N 0.752 0.05082 0.02686 0.0
N36 N 0.77763 0.07955 0.12991 0.0
C37 C 0.762 1.03138 0.08544 0.0
H38 H 0.78666 0.17635 0.11969 0.0
Co39 Co 0.80676 0.09205 0.21345 0.0
C40 C 0.79683 0.94612 0.24558 0.0
O41 O 0.81298 0.91236 0.20544 0.0
N42 N 0.83549 0.10583 0.29864 0.0
C43 C 0.83193 0.09035 0.40582 0.0
C44 C 0.79926 0.06547 0.34834 0.0
C45 C 0.89026 0.15534 0.32694 0.0
N46 N 0.88883 0.14662 0.39205 0.0
O47 O 0.90042 0.13286 0.17455 0.0
H48 H 0.75035 1.02208 0.34366 0.0
H49 H 0.92872 0.19771 0.30073 0.0
O50 O 0.80266 1.00179 0.22402 0.0
C51 C 0.93258 0.19108 0.14642 0.0
O52 O 0.91672 0.23617 0.16272 0.0
N53 N 0.71695 0.06108 0.24158 0.0
C54 C 0.58954 0.0495 0.25001 0.0
C55 C 0.59686 0.99554 0.22873 0.0
C56 C 0.66125 1.00253 0.22434 0.0
C57 C 0.71016 0.11222 0.26568 0.0
C58 C 0.64755 0.10725 0.27093 0.0
H59 H 0.66669 0.9629 0.2028 0.0
H60 H 0.75434 0.15925 0.277 0.0
H61 H 0.76001 0.98448 0.09501 0.0
H62 H 0.7554 0.14129 0.99528 0.0
H63 H 0.81415 0.07018 0.45382 0.0
H64 H 0.55389 0.94998 0.21179 0.0
H65 H 0.64512 0.14994 0.28891 0.0
C66 C 0.67838 0.75978 0.26446 0.0
C67 C 0.68043 0.74448 0.20031 0.0
N68 N 0.73329 0.73607 0.19349 0.0
N69 N 0.73025 0.76167 0.29654 0.0
C70 C 0.7628 0.7461 0.25205 0.0
H71 H 0.64235 0.77057 0.28639 0.0
Co72 Co 0.74688 0.79077 0.3801 0.0
C73 C 0.88302 0.78097 0.41226 0.0
O74 O 0.93314 0.79737 0.37225 0.0
N75 N 0.76184 0.8195 0.46531 0.0
C76 C 0.77372 0.81597 0.57251 0.0
C77 C 0.76596 0.78333 0.51503 0.0
C78 C 0.76706 0.87418 0.4936 0.0
N79 N 0.77433 0.87277 0.55872 0.0
O80 O 0.79977 0.8844 0.34119 0.0
H81 H 0.76045 0.73449 0.51037 0.0
H82 H 0.76315 0.91257 0.46738 0.0
O83 O 0.83317 0.78681 0.39067 0.0
C84 C 0.77366 0.91648 0.31307 0.0
O85 O 0.7126 0.90051 0.32936 0.0
N86 N 0.68805 0.70101 0.40821 0.0
C87 C 0.57224 0.5735 0.41662 0.0
C88 C 0.63367 0.58103 0.39538 0.0
C89 C 0.69106 0.64546 0.391 0.0
C90 C 0.62998 0.69402 0.43229 0.0
C91 C 0.57234 0.63136 0.43753 0.0
H92 H 0.73625 0.65106 0.36949 0.0
H93 H 0.62702 0.73808 0.4436 0.0
H94 H 0.80778 0.74415 0.26159 0.0
H95 H 0.64607 0.73934 0.16197 0.0
H96 H 0.77609 0.79822 0.62051 0.0
H97 H 0.63638 0.53818 0.37846 0.0
H98 H 0.5271 0.62875 0.45547 0.0
C99 C 0.95042 0.66215 0.43105 0.0
C100 C 0.96783 0.66422 0.36691 0.0
N101 N 1.02927 0.71698 0.36014 0.0
N102 N 1.00052 0.71393 0.46317 0.0
C103 C 0.04878 0.74644 0.41872 0.0
H104 H 0.90349 0.62618 0.45294 0.0
Co105 Co 0.98812 0.73054 0.54673 0.0
C106 C 0.13425 0.86665 0.57887 0.0
O107 O 0.16821 0.9166 0.53877 0.0
N108 N 0.97443 0.74547 0.63195 0.0
C109 C 0.98991 0.75733 0.73914 0.0
C110 C 1.0147 0.74947 0.68165 0.0
C111 C 0.92505 0.75088 0.66025 0.0
N112 N 0.93377 0.75813 0.72537 0.0
O113 O 0.94747 0.78347 0.50789 0.0
H114 H 0.05799 0.74385 0.67698 0.0
H115 H 0.88277 0.74713 0.63404 0.0
O116 O 0.07852 0.81678 0.55723 0.0
C117 C 0.88927 0.75751 0.47966 0.0
O118 O 0.84399 0.69646 0.49572 0.0
N119 N 1.019 0.67171 0.57478 0.0
C120 C 1.03063 0.55601 0.58325 0.0
C121 C 0.08464 0.61742 0.56203 0.0
C122 C 0.07763 0.67475 0.55762 0.0
C123 C 0.96779 0.61365 0.59881 0.0
C124 C 0.97278 0.55607 0.60407 0.0
H125 H 0.11733 0.71992 0.53615 0.0
H126 H 0.92071 0.61066 0.61008 0.0
H127 H 0.09582 0.79133 0.4283 0.0
H128 H 0.93854 0.62994 0.32854 0.0
H129 H 1.01004 0.75965 0.78714 0.0
H130 H 0.13028 0.62018 0.54518 0.0
H131 H 0.93004 0.51085 0.622 0.0
C132 C 0.32056 0.93465 0.5978 0.0
C133 C 0.33588 0.95206 0.53366 0.0
N134 N 0.34437 1.01334 0.52686 0.0
N135 N 0.31872 0.98461 0.6299 0.0
C136 C 0.33435 0.03277 0.58543 0.0
H137 H 0.30971 0.88782 0.61971 0.0
Co138 Co 0.28959 0.97211 0.71345 0.0
C139 C 0.29952 0.11805 0.74556 0.0
O140 O 0.28339 0.15182 0.70543 0.0
N141 N 0.26084 0.95834 0.79863 0.0
C142 C 0.26439 0.97382 0.90581 0.0
C143 C 0.29707 0.99869 0.84833 0.0
C144 C 0.20607 0.90884 0.82693 0.0
N145 N 0.2075 0.91756 0.89204 0.0
O146 O 0.19593 0.93131 0.67454 0.0
H147 H 0.34599 0.04208 0.84365 0.0
H148 H 0.16761 0.86647 0.80073 0.0
O149 O 0.29369 0.06238 0.724 0.0
C150 C 0.16377 0.87309 0.64641 0.0
O151 O 0.17964 0.828 0.66271 0.0
N152 N 0.37939 1.00308 0.74158 0.0
C153 C 0.5068 1.01466 0.75002 0.0
C154 C 0.49949 0.06862 0.72873 0.0
C155 C 0.4351 0.06163 0.72433 0.0
C156 C 0.38618 0.95194 0.7657 0.0
C157 C 0.44878 0.9569 0.77096 0.0
H158 H 0.42966 0.10126 0.70278 0.0
H159 H 0.34199 0.90491 0.77703 0.0
H160 H 0.33633 0.07968 0.59499 0.0
H161 H 0.34098 0.92287 0.49529 0.0
H162 H 0.28217 0.99399 0.95381 0.0
H163 H 0.54246 0.11417 0.71178 0.0
H164 H 0.45121 0.91422 0.78894 0.0
C165 C 0.41799 0.30439 0.76445 0.0
C166 C 0.41593 0.31968 0.7003 0.0
N167 N 0.36307 0.32809 0.69347 0.0
N168 N 0.36611 0.30249 0.79653 0.0
C169 C 0.33356 0.31806 0.75204 0.0
H170 H 0.45402 0.2936 0.78638 0.0
Co171 Co 0.34946 0.27338 0.88009 0.0
C172 C 0.21333 0.28319 0.91224 0.0
O173 O 0.16322 0.2668 0.87222 0.0
N174 N 0.3345 0.24465 0.96529 0.0
C175 C 0.3226 0.24817 0.07249 0.0
C176 C 0.33037 0.2808 0.01501 0.0
C177 C 0.32927 0.18996 0.99359 0.0
N178 N 0.322 0.19137 0.05871 0.0
O179 O 0.29658 0.17975 0.84118 0.0
H180 H 0.33588 0.32964 0.01035 0.0
H181 H 0.33319 0.15157 0.96737 0.0
O182 O 0.26319 0.27735 0.89065 0.0
C183 C 0.32269 0.14768 0.81305 0.0
O184 O 0.38375 0.16364 0.82934 0.0
N185 N 0.40829 0.36314 0.90821 0.0
C186 C 0.52411 0.49064 0.91662 0.0
C187 C 0.46268 0.48312 0.89537 0.0
C188 C 0.40529 0.41869 0.89099 0.0
C189 C 0.46636 0.37012 0.93229 0.0
C190 C 0.524 0.43278 0.93753 0.0
H191 H 0.36011 0.4131 0.86948 0.0
H192 H 0.46933 0.32606 0.9436 0.0
H193 H 0.28858 0.32 0.76158 0.0
H194 H 0.4503 0.32483 0.66196 0.0
H195 H 0.32022 0.26591 0.1205 0.0
H196 H 0.45997 0.52597 0.87845 0.0
H197 H 0.56925 0.43538 0.95548 0.0
C198 C 0.67832 0.9344 0.89881 0.0
C199 C 0.6804 0.95182 0.96294 0.0
N200 N 0.73318 1.01322 0.96968 0.0
N201 N 0.73013 0.98447 0.86666 0.0
C202 C 0.76266 0.03271 0.9111 0.0
H203 H 0.64233 0.88749 0.87693 0.0
Co204 Co 0.7467 0.97201 0.78309 0.0
C205 C 0.88287 0.11807 0.75089 0.0
O206 O 0.93296 0.15189 0.79092 0.0
N207 N 0.76158 0.95826 0.69786 0.0
C208 C 0.77343 0.97371 0.59066 0.0
C209 C 0.76561 0.99852 0.64815 0.0
C210 C 0.76692 0.90888 0.66956 0.0
N211 N 0.77413 0.91756 0.60444 0.0
O212 O 0.79963 0.93135 0.82193 0.0
H213 H 0.76007 0.04183 0.65283 0.0
H214 H 0.76319 0.86665 0.69578 0.0
O215 O 0.83299 0.06235 0.7725 0.0
C216 C 0.77362 0.87317 0.85013 0.0
O217 O 0.71254 0.82798 0.83396 0.0
N218 N 0.68786 1.0029 0.75505 0.0
C219 C 0.57213 1.0146 0.74664 0.0
C220 C 0.63361 0.06857 0.7678 0.0
C221 C 0.69096 0.06152 0.77219 0.0
C222 C 0.62972 0.95174 0.73106 0.0
C223 C 0.57213 0.95677 0.72582 0.0
H224 H 0.73619 0.10118 0.79362 0.0
H225 H 0.62669 0.90467 0.71981 0.0
H226 H 0.80759 0.07971 0.9015 0.0
H227 H 0.64611 0.92255 0.00132 0.0
H228 H 0.77584 0.99386 0.54266 0.0
H229 H 0.63641 0.11419 0.78464 0.0
H230 H 0.52684 0.91407 0.70794 0.0
C231 C 0.77577 0.66233 0.06538 0.0
C232 C 0.76045 0.66442 0.12952 0.0
N233 N 0.75201 0.71724 0.13629 0.0
N234 N 0.77767 0.71414 0.03326 0.0
C235 C 0.76208 0.7467 0.07772 0.0
H236 H 0.78658 0.62633 0.04349 0.0
Co237 Co 0.80681 0.73074 0.9497 0.0
C238 C 0.79701 0.86681 0.91754 0.0
O239 O 0.81339 0.91683 0.95762 0.0
N240 N 0.83556 0.74567 0.86451 0.0
C241 C 0.83204 0.7576 0.75732 0.0
C242 C 0.79939 0.74984 0.81481 0.0
C243 C 0.89028 0.75087 0.83621 0.0
N244 N 0.88884 0.75812 0.77109 0.0
O245 O 0.90049 0.78361 0.98862 0.0
H246 H 0.75054 0.7444 0.81949 0.0
H247 H 0.92871 0.74698 0.86242 0.0
O248 O 0.80282 0.81696 0.93907 0.0
C249 C 0.93258 0.7575 0.01672 0.0
O250 O 0.9166 0.69652 0.00031 0.0
N251 N 0.717 0.6719 0.92158 0.0
C252 C 0.58949 0.55604 0.9132 0.0
C253 C 0.59692 0.61739 0.93443 0.0
C254 C 0.66136 0.6748 0.9388 0.0
C255 C 0.7101 0.61391 0.8975 0.0
C256 C 0.64744 0.55625 0.89227 0.0
H257 H 0.66688 0.71992 0.96032 0.0
H258 H 0.75423 0.61103 0.88619 0.0
H259 H 0.76016 0.79166 0.06814 0.0
H260 H 0.75533 0.63013 0.1679 0.0
H261 H 0.81432 0.76007 0.70933 0.0
H262 H 0.554 0.62001 0.95136 0.0
H263 H 0.64492 0.51108 0.87433 0.0
C264 C 0.14579 0.75982 0.23212 0.0
C265 C 0.12832 0.74446 0.29625 0.0
N266 N 0.0669 0.73575 0.30297 0.0
N267 N 0.09574 0.7615 0.19996 0.0
C268 C 1.04745 0.74572 0.24438 0.0
H269 H 0.19272 0.77082 0.21027 0.0
Co270 Co 0.10821 0.79054 0.1164 0.0
C271 C 0.96214 0.78051 0.08426 0.0
O272 O 0.92825 0.79649 0.12443 0.0
N273 N 0.12195 0.81919 0.0312 0.0
C274 C 0.10643 0.81557 0.92402 0.0
C275 C 0.08162 0.7829 0.98151 0.0
C276 C 0.17138 0.874 0.00289 0.0
N277 N 0.16265 0.87251 0.93778 0.0
O278 O 0.14892 0.88417 0.15524 0.0
H279 H 1.03826 0.73398 0.98621 0.0
H280 H 0.21367 0.91256 0.02909 0.0
O281 O 1.01785 0.78635 0.10584 0.0
C282 C 0.20713 0.91643 0.18346 0.0
O283 O 0.25234 0.90065 0.16728 0.0
N284 N 0.0773 0.70079 0.08835 0.0
C285 C 0.06572 0.57347 0.07991 0.0
C286 C 1.01169 0.58077 0.10111 0.0
C287 C 1.01868 0.64511 0.10552 0.0
C288 C 0.12851 0.69402 0.06432 0.0
C289 C 0.12355 0.63146 0.05906 0.0
H290 H 0.97898 0.65052 0.12699 0.0
H291 H 0.17559 0.73818 0.05304 0.0
H292 H 1.00046 0.7436 0.23477 0.0
H293 H 0.15757 0.73949 0.33465 0.0
H294 H 0.08623 0.79779 0.87603 0.0
H295 H 0.96606 0.53782 0.11798 0.0
H296 H 0.16629 0.62904 0.04113 0.0
C297 C 0.41803 0.12975 0.39879 0.0
C298 C 0.41596 0.11233 0.46292 0.0
N299 N 0.36318 0.05093 0.46967 0.0
N300 N 0.36622 0.07968 0.36665 0.0
C301 C 0.33369 1.03144 0.4111 0.0
H302 H 0.45402 0.17665 0.3769 0.0
Co303 Co 0.34963 0.09213 0.28308 0.0
C304 C 0.21346 0.94607 0.2509 0.0
O305 O 0.16338 0.91224 0.29095 0.0
N306 N 0.33474 0.10587 0.19786 0.0
C307 C 0.32289 0.09042 0.09066 0.0
C308 C 0.33071 0.06561 0.14815 0.0
C309 C 0.3294 0.15525 0.16955 0.0
N310 N 0.32219 0.14657 0.10443 0.0
O311 O 0.2967 0.13279 0.32193 0.0
H312 H 0.33624 1.0223 0.15283 0.0
H313 H 0.33314 0.19749 0.19577 0.0
O314 O 0.26334 1.00179 0.27251 0.0
C315 C 0.32272 0.19097 0.35013 0.0
O316 O 0.3838 0.23616 0.33395 0.0
N317 N 0.40848 0.06124 0.25504 0.0
C318 C 0.5242 0.04955 0.24662 0.0
C319 C 0.46272 0.99558 0.26779 0.0
C320 C 0.40538 1.00263 0.27218 0.0
C321 C 0.4666 0.1124 0.23104 0.0
C322 C 0.5242 0.10738 0.2258 0.0
H323 H 0.36015 0.96297 0.29363 0.0
H324 H 0.46963 0.15946 0.21977 0.0
H325 H 0.28876 0.98444 0.40151 0.0
H326 H 0.45025 0.1416 0.5013 0.0
H327 H 0.32047 0.07026 0.04266 0.0
H328 H 0.45993 0.94996 0.28464 0.0
H329 H 0.56949 0.15007 0.2079 0.0
C330 C 0.32057 0.40181 0.56537 0.0
C331 C 0.33589 0.39972 0.62951 0.0
N332 N 0.34434 0.34692 0.63628 0.0
N333 N 0.31868 0.35 0.53325 0.0
C334 C 0.33427 0.31744 0.57771 0.0
H335 H 0.30975 0.43781 0.54348 0.0
Co336 Co 0.28954 0.3334 0.4497 0.0
C337 C 0.29933 0.19733 0.41754 0.0
O338 O 0.28295 0.14731 0.45762 0.0
N339 N 0.26078 0.31848 0.36451 0.0
C340 C 0.26431 0.30656 0.25731 0.0
C341 C 0.29696 0.31431 0.3148 0.0
C342 C 0.20607 0.31329 0.3362 0.0
N343 N 0.20751 0.30604 0.27109 0.0
O344 O 0.19585 0.28053 0.48861 0.0
H345 H 0.34581 0.31975 0.31948 0.0
H346 H 0.16764 0.31718 0.36242 0.0
O347 O 0.29352 0.24718 0.43906 0.0
C348 C 0.16376 0.30665 0.51671 0.0
O349 O 0.17974 0.36762 0.5003 0.0
N350 N 0.37935 0.39224 0.42157 0.0
C351 C 0.50685 0.5081 0.41319 0.0
C352 C 0.49943 0.44676 0.43443 0.0
C353 C 0.43499 0.38934 0.43879 0.0
C354 C 0.38625 0.45024 0.39749 0.0
C355 C 0.44891 0.50789 0.39226 0.0
H356 H 0.42946 0.34422 0.46031 0.0
H357 H 0.34212 0.45312 0.38618 0.0
H358 H 0.3362 0.2725 0.56814 0.0
H359 H 0.34101 0.43402 0.66788 0.0
H360 H 0.28204 0.30409 0.20932 0.0
H361 H 0.54235 0.44413 0.45136 0.0
H362 H 0.45144 0.55307 0.37431 0.0
C363 C 0.95055 0.30431 0.73213 0.0
C364 C 0.96802 0.31967 0.79626 0.0
N365 N 1.02945 0.3284 0.80297 0.0
N366 N 1.00061 0.30265 0.69996 0.0
C367 C 0.04889 0.31843 0.74437 0.0
H368 H 0.90361 0.29331 0.71028 0.0
Co369 Co 0.98813 0.27361 0.6164 0.0
C370 C 0.13419 0.28363 0.58425 0.0
O371 O 0.16807 0.26764 0.62442 0.0
N372 N 0.97438 0.24497 0.5312 0.0
C373 C 0.9899 0.2486 0.42402 0.0
C374 C 1.01471 0.28126 0.48151 0.0
C375 C 0.92495 0.19017 0.50289 0.0
N376 N 0.93367 0.19166 0.43778 0.0
O377 O 0.9474 0.17998 0.65524 0.0
H378 H 0.05808 0.33017 0.4862 0.0
H379 H 0.88265 0.1516 0.5291 0.0
O380 O 0.07848 0.27779 0.60583 0.0
C381 C 0.88918 0.14772 0.68344 0.0
O382 O 0.84395 0.16347 0.66731 0.0
N383 N 1.01905 0.36337 0.58835 0.0
C384 C 1.03064 0.4907 0.57991 0.0
C385 C 0.08467 0.48339 0.60112 0.0
C386 C 0.07767 0.41904 0.60552 0.0
C387 C 0.96784 0.37015 0.56433 0.0
C388 C 0.9728 0.43271 0.55907 0.0
H389 H 0.11737 0.41362 0.62698 0.0
H390 H 0.92076 0.32599 0.55305 0.0
H391 H 0.09589 0.32056 0.73475 0.0
H392 H 0.93877 0.32463 0.83467 0.0
H393 H 1.0101 0.26638 0.37603 0.0
H394 H 0.13029 0.52633 0.61798 0.0
H395 H 0.93006 0.43513 0.54115 0.0
loop_
_geom_bond_atom_site_label_1
_geom_bond_atom_site_label_2
_geom_bond_distance
_geom_bond_site_symmetry_2
_ccdc_geom_bond_type
C0 C1 1.351 . S
C0 N3 1.368 . S
C0 H5 0.931 . S
C1 C0 1.351 . S
C1 N2 1.373 1_455 S
C1 H29 0.930 . S
N2 C1 1.373 1_655 S
N2 C4 1.340 . S
N3 C0 1.368 . S
N3 C4 1.321 1_455 S
N3 Co6 2.135 1_556 S
C4 N2 1.340 . S
C4 N3 1.321 1_655 S
C4 H28 0.930 . S
H5 C0 0.931 . S
Co6 N3 2.135 1_554 S
Co6 N9 2.121 . S
Co6 O14 2.055 . S
Co6 O17 2.039 1_455 S
Co6 N20 2.140 . S
C7 O8 1.227 . S
C7 O17 1.265 . S
O8 C7 1.227 . S
N9 Co6 2.121 . S
N9 C11 1.375 . S
N9 C12 1.313 . S
C10 C11 1.338 . S
C10 N13 1.377 . S
C10 H30 0.930 . S
C11 N9 1.375 . S
C11 C10 1.338 . S
C11 H15 0.931 . S
C12 N9 1.313 . S
C12 N13 1.344 . S
C12 H16 0.930 . S
N13 C10 1.377 . S
N13 C12 1.344 . S
O14 Co6 2.055 . S
O14 C18 1.253 . S
H15 C11 0.931 . S
H16 C12 0.930 . S
O17 Co6 2.039 1_655 S
O17 C7 1.265 . S
C18 O14 1.253 . S
C18 O19 1.227 . S
O19 C18 1.227 . S
N20 Co6 2.140 . S
N20 C23 1.346 . S
N20 C24 1.345 . S
C21 C22 1.387 . S
C21 C25 1.391 . S
C22 C21 1.387 . S
C22 C23 1.369 . S
C22 H31 0.929 . S
C23 N20 1.346 . S
C23 C22 1.369 . S
C23 H26 0.925 1_455 S
C24 N20 1.345 . S
C24 C25 1.371 . S
C24 H27 0.931 . S
C25 C21 1.391 . S
C25 C24 1.371 . S
C25 H32 0.930 . S
H26 C23 0.925 1_655 S
H27 C24 0.931 . S
H28 C4 0.930 . S
H29 C1 0.930 . S
H30 C10 0.930 . S
H31 C22 0.929 . S
H32 C25 0.930 . S
C33 C34 1.351 . S
C33 N36 1.368 . S
C33 H38 0.931 . S
C34 C33 1.351 . S
C34 N35 1.373 1_545 S
C34 H62 0.930 1_554 S
N35 C34 1.373 1_565 S
N35 C37 1.340 . S
N36 C33 1.368 . S
N36 C37 1.321 1_545 S
N36 Co39 2.135 . S
C37 N35 1.340 . S
C37 N36 1.321 1_565 S
C37 H61 0.930 . S
H38 C33 0.931 . S
Co39 N36 2.135 . S
Co39 N42 2.121 . S
Co39 O47 2.055 . S
Co39 O50 2.039 1_545 S
Co39 N53 2.140 . S
C40 O41 1.227 . S
C40 O50 1.265 . S
O41 C40 1.227 . S
N42 Co39 2.121 . S
N42 C44 1.375 . S
N42 C45 1.313 . S
C43 C44 1.338 . S
C43 N46 1.377 . S
C43 H63 0.930 . S
C44 N42 1.375 . S
C44 C43 1.338 . S
C44 H48 0.931 . S
C45 N42 1.313 . S
C45 N46 1.344 . S
C45 H49 0.930 . S
N46 C43 1.377 . S
N46 C45 1.344 . S
O47 Co39 2.055 . S
O47 C51 1.253 . S
H48 C44 0.931 . S
H49 C45 0.930 . S
O50 Co39 2.039 1_565 S
O50 C40 1.265 . S
C51 O47 1.253 . S
C51 O52 1.227 . S
O52 C51 1.227 . S
N53 Co39 2.140 . S
N53 C56 1.346 . S
N53 C57 1.345 . S
C54 C55 1.387 . S
C54 C58 1.391 . S
C55 C54 1.387 . S
C55 C56 1.369 . S
C55 H64 0.929 . S
C56 N53 1.346 . S
C56 C55 1.369 . S
C56 H59 0.922 1_545 S
C57 N53 1.345 . S
C57 C58 1.371 . S
C57 H60 0.931 . S
C58 C54 1.391 . S
C58 C57 1.371 . S
C58 H65 0.930 . S
H59 C56 0.922 1_565 S
H60 C57 0.931 . S
H61 C37 0.930 . S
H62 C34 0.930 1_556 S
H63 C43 0.930 . S
H64 C55 0.929 . S
H65 C58 0.930 . S
C66 C67 1.351 . S
C66 N69 1.368 . S
C66 H71 0.931 . S
C67 C66 1.351 . S
C67 N68 1.373 . S
C67 H95 0.930 . S
N68 C67 1.373 . S
N68 C70 1.340 . S
N69 C66 1.368 . S
N69 C70 1.321 . S
N69 Co72 2.135 . S
C70 N68 1.340 . S
C70 N69 1.321 . S
C70 H94 0.930 . S
H71 C66 0.931 . S
Co72 N69 2.135 . S
Co72 N75 2.121 . S
Co72 O80 2.055 . S
Co72 O83 2.039 . S
Co72 N86 2.140 . S
C73 O74 1.227 . S
C73 O83 1.265 . S
O74 C73 1.227 . S
N75 Co72 2.121 . S
N75 C77 1.375 . S
N75 C78 1.313 . S
C76 C77 1.338 . S
C76 N79 1.377 . S
C76 H96 0.930 . S
C77 N75 1.375 . S
C77 C76 1.338 . S
C77 H81 0.931 . S
C78 N75 1.313 . S
C78 N79 1.344 . S
C78 H82 0.930 . S
N79 C76 1.377 . S
N79 C78 1.344 . S
O80 Co72 2.055 . S
O80 C84 1.253 . S
H81 C77 0.931 . S
H82 C78 0.930 . S
O83 Co72 2.039 . S
O83 C73 1.265 . S
C84 O80 1.253 . S
C84 O85 1.227 . S
O85 C84 1.227 . S
N86 Co72 2.140 . S
N86 C89 1.346 . S
N86 C90 1.345 . S
C87 C88 1.387 . S
C87 C91 1.391 . S
C88 C87 1.387 . S
C88 C89 1.369 . S
C88 H97 0.929 . S
C89 N86 1.346 . S
C89 C88 1.369 . S
C89 H92 0.928 . S
C90 N86 1.345 . S
C90 C91 1.371 . S
C90 H93 0.931 . S
C91 C87 1.391 . S
C91 C90 1.371 . S
C91 H98 0.930 . S
H92 C89 0.928 . S
H93 C90 0.931 . S
H94 C70 0.930 . S
H95 C67 0.930 . S
H96 C76 0.930 . S
H97 C88 0.929 . S
H98 C91 0.930 . S
C99 C100 1.351 . S
C99 N102 1.368 . S
C99 H104 0.931 . S
C100 C99 1.351 . S
C100 N101 1.373 1_655 S
C100 H128 0.930 . S
N101 C100 1.373 1_455 S
N101 C103 1.340 . S
N102 C99 1.368 . S
N102 C103 1.321 1_655 S
N102 Co105 2.135 . S
C103 N101 1.340 . S
C103 N102 1.321 1_455 S
C103 H127 0.930 . S
H104 C99 0.931 . S
Co105 N102 2.135 . S
Co105 N108 2.121 . S
Co105 O113 2.055 . S
Co105 O116 2.039 1_655 S
Co105 N119 2.140 . S
C106 O107 1.227 . S
C106 O116 1.265 . S
O107 C106 1.227 . S
N108 Co105 2.121 . S
N108 C110 1.375 . S
N108 C111 1.313 . S
C109 C110 1.338 . S
C109 N112 1.377 . S
C109 H129 0.930 . S
C110 N108 1.375 . S
C110 C109 1.338 . S
C110 H114 0.931 . S
C111 N108 1.313 . S
C111 N112 1.344 . S
C111 H115 0.930 . S
N112 C109 1.377 . S
N112 C111 1.344 . S
O113 Co105 2.055 . S
O113 C117 1.253 . S
H114 C110 0.931 . S
H115 C111 0.930 . S
O116 Co105 2.039 1_455 S
O116 C106 1.265 . S
C117 O113 1.253 . S
C117 O118 1.227 . S
O118 C117 1.227 . S
N119 Co105 2.140 . S
N119 C122 1.346 . S
N119 C123 1.345 . S
C120 C121 1.387 . S
C120 C124 1.391 . S
C121 C120 1.387 . S
C121 C122 1.369 . S
C121 H130 0.929 . S
C122 N119 1.346 . S
C122 C121 1.369 . S
C122 H125 0.925 1_655 S
C123 N119 1.345 . S
C123 C124 1.371 . S
C123 H126 0.931 . S
C124 C120 1.391 . S
C124 C123 1.371 . S
C124 H131 0.930 . S
H125 C122 0.925 1_455 S
H126 C123 0.931 . S
H127 C103 0.930 . S
H128 C100 0.930 . S
H129 C109 0.930 . S
H130 C121 0.929 . S
H131 C124 0.930 . S
C132 C133 1.351 . S
C132 N135 1.368 . S
C132 H137 0.931 . S
C133 C132 1.351 . S
C133 N134 1.373 1_565 S
C133 H161 0.930 . S
N134 C133 1.373 1_545 S
N134 C136 1.340 . S
N135 C132 1.368 . S
N135 C136 1.321 1_565 S
N135 Co138 2.135 . S
C136 N134 1.340 . S
C136 N135 1.321 1_545 S
C136 H160 0.930 . S
H137 C132 0.931 . S
Co138 N135 2.135 . S
Co138 N141 2.121 . S
Co138 O146 2.055 . S
Co138 O149 2.039 1_565 S
Co138 N152 2.140 . S
C139 O140 1.227 . S
C139 O149 1.265 . S
O140 C139 1.227 . S
N141 Co138 2.121 . S
N141 C143 1.375 . S
N141 C144 1.313 . S
C142 C143 1.338 . S
C142 N145 1.377 . S
C142 H162 0.930 . S
C143 N141 1.375 . S
C143 C142 1.338 . S
C143 H147 0.931 . S
C144 N141 1.313 . S
C144 N145 1.344 . S
C144 H148 0.930 . S
N145 C142 1.377 . S
N145 C144 1.344 . S
O146 Co138 2.055 . S
O146 C150 1.253 . S
H147 C143 0.931 . S
H148 C144 0.930 . S
O149 Co138 2.039 1_545 S
O149 C139 1.265 . S
C150 O146 1.253 . S
C150 O151 1.227 . S
O151 C150 1.227 . S
N152 Co138 2.140 . S
N152 C155 1.346 . S
N152 C156 1.345 . S
C153 C154 1.387 . S
C153 C157 1.391 . S
C154 C153 1.387 . S
C154 C155 1.369 . S
C154 H163 0.929 . S
C155 N152 1.346 . S
C155 C154 1.369 . S
C155 H158 0.922 1_565 S
C156 N152 1.345 . S
C156 C157 1.371 . S
C156 H159 0.931 . S
C157 C153 1.391 . S
C157 C156 1.371 . S
C157 H164 0.930 . S
H158 C155 0.922 1_545 S
H159 C156 0.931 . S
H160 C136 0.930 . S
H161 C133 0.930 . S
H162 C142 0.930 . S
H163 C154 0.929 . S
H164 C157 0.930 . S
C165 C166 1.351 . S
C165 N168 1.368 . S
C165 H170 0.931 . S
C166 C165 1.351 . S
C166 N167 1.373 . S
C166 H194 0.930 . S
N167 C166 1.373 . S
N167 C169 1.340 . S
N168 C165 1.368 . S
N168 C169 1.321 . S
N168 Co171 2.135 . S
C169 N167 1.340 . S
C169 N168 1.321 . S
C169 H193 0.930 . S
H170 C165 0.931 . S
Co171 N168 2.135 . S
Co171 N174 2.121 . S
Co171 O179 2.055 . S
Co171 O182 2.039 . S
Co171 N185 2.140 . S
C172 O173 1.227 . S
C172 O182 1.265 . S
O173 C172 1.227 . S
N174 Co171 2.121 . S
N174 C176 1.375 1_556 S
N174 C177 1.313 1_556 S
C175 C176 1.338 . S
C175 N178 1.377 . S
C175 H195 0.930 . S
C176 N174 1.375 1_554 S
C176 C175 1.338 . S
C176 H180 0.931 . S
C177 N174 1.313 1_554 S
C177 N178 1.344 . S
C177 H181 0.930 1_554 S
N178 C175 1.377 . S
N178 C177 1.344 . S
O179 Co171 2.055 . S
O179 C183 1.253 . S
H180 C176 0.931 . S
H181 C177 0.930 1_556 S
O182 Co171 2.039 . S
O182 C172 1.265 . S
C183 O179 1.253 . S
C183 O184 1.227 . S
O184 C183 1.227 . S
N185 Co171 2.140 . S
N185 C188 1.346 . S
N185 C189 1.345 . S
C186 C187 1.387 . S
C186 C190 1.391 . S
C187 C186 1.387 . S
C187 C188 1.369 . S
C187 H196 0.929 . S
C188 N185 1.346 . S
C188 C187 1.369 . S
C188 H191 0.928 . S
C189 N185 1.345 . S
C189 C190 1.371 . S
C189 H192 0.931 . S
C190 C186 1.391 . S
C190 C189 1.371 . S
C190 H197 0.930 . S
H191 C188 0.928 . S
H192 C189 0.931 . S
H193 C169 0.930 . S
H194 C166 0.930 . S
H195 C175 0.930 . S
H196 C187 0.929 . S
H197 C190 0.930 . S
C198 C199 1.351 . S
C198 N201 1.368 . S
C198 H203 0.931 . S
C199 C198 1.351 . S
C199 N200 1.373 1_565 S
C199 H227 0.930 1_556 S
N200 C199 1.373 1_545 S
N200 C202 1.340 . S
N201 C198 1.368 . S
N201 C202 1.321 1_565 S
N201 Co204 2.135 . S
C202 N200 1.340 . S
C202 N201 1.321 1_545 S
C202 H226 0.930 . S
H203 C198 0.931 . S
Co204 N201 2.135 . S
Co204 N207 2.121 . S
Co204 O212 2.055 . S
Co204 O215 2.039 1_565 S
Co204 N218 2.140 . S
C205 O206 1.227 . S
C205 O215 1.265 . S
O206 C205 1.227 . S
N207 Co204 2.121 . S
N207 C209 1.375 . S
N207 C210 1.313 . S
C208 C209 1.338 . S
C208 N211 1.377 . S
C208 H228 0.930 . S
C209 N207 1.375 . S
C209 C208 1.338 . S
C209 H213 0.931 . S
C210 N207 1.313 . S
C210 N211 1.344 . S
C210 H214 0.930 . S
N211 C208 1.377 . S
N211 C210 1.344 . S
O212 Co204 2.055 . S
O212 C216 1.253 . S
H213 C209 0.931 . S
H214 C210 0.930 . S
O215 Co204 2.039 1_545 S
O215 C205 1.265 . S
C216 O212 1.253 . S
C216 O217 1.227 . S
O217 C216 1.227 . S
N218 Co204 2.140 . S
N218 C221 1.346 . S
N218 C222 1.345 . S
C219 C220 1.387 . S
C219 C223 1.391 . S
C220 C219 1.387 . S
C220 C221 1.369 . S
C220 H229 0.929 . S
C221 N218 1.346 . S
C221 C220 1.369 . S
C221 H224 0.925 1_565 S
C222 N218 1.345 . S
C222 C223 1.371 . S
C222 H225 0.931 . S
C223 C219 1.391 . S
C223 C222 1.371 . S
C223 H230 0.930 . S
H224 C221 0.925 1_545 S
H225 C222 0.931 . S
H226 C202 0.930 . S
H227 C199 0.930 1_554 S
H228 C208 0.930 . S
H229 C220 0.929 . S
H230 C223 0.930 . S
C231 C232 1.351 . S
C231 N234 1.368 . S
C231 H236 0.931 . S
C232 C231 1.351 . S
C232 N233 1.373 . S
C232 H260 0.930 . S
N233 C232 1.373 . S
N233 C235 1.340 . S
N234 C231 1.368 . S
N234 C235 1.321 . S
N234 Co237 2.135 1_554 S
C235 N233 1.340 . S
C235 N234 1.321 . S
C235 H259 0.930 . S
H236 C231 0.931 . S
Co237 N234 2.135 1_556 S
Co237 N240 2.121 . S
Co237 O245 2.055 . S
Co237 O248 2.039 . S
Co237 N251 2.140 . S
C238 O239 1.227 . S
C238 O248 1.265 . S
O239 C238 1.227 . S
N240 Co237 2.121 . S
N240 C242 1.375 . S
N240 C243 1.313 . S
C241 C242 1.338 . S
C241 N244 1.377 . S
C241 H261 0.930 . S
C242 N240 1.375 . S
C242 C241 1.338 . S
C242 H246 0.931 . S
C243 N240 1.313 . S
C243 N244 1.344 . S
C243 H247 0.930 . S
N244 C241 1.377 . S
N244 C243 1.344 . S
O245 Co237 2.055 . S
O245 C249 1.253 . S
H246 C242 0.931 . S
H247 C243 0.930 . S
O248 Co237 2.039 . S
O248 C238 1.265 . S
C249 O245 1.253 . S
C249 O250 1.227 . S
O250 C249 1.227 . S
N251 Co237 2.140 . S
N251 C254 1.346 . S
N251 C255 1.345 . S
C252 C253 1.387 . S
C252 C256 1.391 . S
C253 C252 1.387 . S
C253 C254 1.369 . S
C253 H262 0.929 . S
C254 N251 1.346 . S
C254 C253 1.369 . S
C254 H257 0.928 . S
C255 N251 1.345 . S
C255 C256 1.371 . S
C255 H258 0.931 . S
C256 C252 1.391 . S
C256 C255 1.371 . S
C256 H263 0.930 . S
H257 C254 0.928 . S
H258 C255 0.931 . S
H259 C235 0.930 . S
H260 C232 0.930 . S
H261 C241 0.930 . S
H262 C253 0.929 . S
H263 C256 0.930 . S
C264 C265 1.351 . S
C264 N267 1.368 . S
C264 H269 0.931 . S
C265 C264 1.351 . S
C265 N266 1.373 1_455 S
C265 H293 0.930 . S
N266 C265 1.373 1_655 S
N266 C268 1.340 . S
N267 C264 1.368 . S
N267 C268 1.321 1_455 S
N267 Co270 2.135 . S
C268 N266 1.340 . S
C268 N267 1.321 1_655 S
C268 H292 0.930 . S
H269 C264 0.931 . S
Co270 N267 2.135 . S
Co270 N273 2.121 . S
Co270 O278 2.055 . S
Co270 O281 2.039 1_455 S
Co270 N284 2.140 . S
C271 O272 1.227 . S
C271 O281 1.265 . S
O272 C271 1.227 . S
N273 Co270 2.121 . S
N273 C275 1.375 1_554 S
N273 C276 1.313 1_554 S
C274 C275 1.338 . S
C274 N277 1.377 . S
C274 H294 0.930 . S
C275 N273 1.375 1_556 S
C275 C274 1.338 . S
C275 H279 0.931 . S
C276 N273 1.313 1_556 S
C276 N277 1.344 . S
C276 H280 0.930 1_556 S
N277 C274 1.377 . S
N277 C276 1.344 . S
O278 Co270 2.055 . S
O278 C282 1.253 . S
H279 C275 0.931 . S
H280 C276 0.930 1_554 S
O281 Co270 2.039 1_655 S
O281 C271 1.265 . S
C282 O278 1.253 . S
C282 O283 1.227 . S
O283 C282 1.227 . S
N284 Co270 2.140 . S
N284 C287 1.346 . S
N284 C288 1.345 . S
C285 C286 1.387 . S
C285 C289 1.391 . S
C286 C285 1.387 . S
C286 C287 1.369 . S
C286 H295 0.929 . S
C287 N284 1.346 . S
C287 C286 1.369 . S
C287 H290 0.922 1_455 S
C288 N284 1.345 . S
C288 C289 1.371 . S
C288 H291 0.931 . S
C289 C285 1.391 . S
C289 C288 1.371 . S
C289 H296 0.930 . S
H290 C287 0.922 1_655 S
H291 C288 0.931 . S
H292 C268 0.930 . S
H293 C265 0.930 . S
H294 C274 0.930 . S
H295 C286 0.929 . S
H296 C289 0.930 . S
C297 C298 1.351 . S
C297 N300 1.368 . S
C297 H302 0.931 . S
C298 C297 1.351 . S
C298 N299 1.373 1_545 S
C298 H326 0.930 . S
N299 C298 1.373 1_565 S
N299 C301 1.340 . S
N300 C297 1.368 . S
N300 C301 1.321 1_545 S
N300 Co303 2.135 . S
C301 N299 1.340 . S
C301 N300 1.321 1_565 S
C301 H325 0.930 . S
H302 C297 0.931 . S
Co303 N300 2.135 . S
Co303 N306 2.121 . S
Co303 O311 2.055 . S
Co303 O314 2.039 1_545 S
Co303 N317 2.140 . S
C304 O305 1.227 . S
C304 O314 1.265 . S
O305 C304 1.227 . S
N306 Co303 2.121 . S
N306 C308 1.375 . S
N306 C309 1.313 . S
C307 C308 1.338 . S
C307 N310 1.377 . S
C307 H327 0.930 . S
C308 N306 1.375 . S
C308 C307 1.338 . S
C308 H312 0.931 . S
C309 N306 1.313 . S
C309 N310 1.344 . S
C309 H313 0.930 . S
N310 C307 1.377 . S
N310 C309 1.344 . S
O311 Co303 2.055 . S
O311 C315 1.253 . S
H312 C308 0.931 . S
H313 C309 0.930 . S
O314 Co303 2.039 1_565 S
O314 C304 1.265 . S
C315 O311 1.253 . S
C315 O316 1.227 . S
O316 C315 1.227 . S
N317 Co303 2.140 . S
N317 C320 1.346 . S
N317 C321 1.345 . S
C318 C319 1.387 . S
C318 C322 1.391 . S
C319 C318 1.387 . S
C319 C320 1.369 . S
C319 H328 0.929 . S
C320 N317 1.346 . S
C320 C319 1.369 . S
C320 H323 0.925 1_545 S
C321 N317 1.345 . S
C321 C322 1.371 . S
C321 H324 0.931 . S
C322 C318 1.391 . S
C322 C321 1.371 . S
C322 H329 0.930 . S
H323 C320 0.925 1_565 S
H324 C321 0.931 . S
H325 C301 0.930 . S
H326 C298 0.930 . S
H327 C307 0.930 . S
H328 C319 0.929 . S
H329 C322 0.930 . S
C330 C331 1.351 . S
C330 N333 1.368 . S
C330 H335 0.931 . S
C331 C330 1.351 . S
C331 N332 1.373 . S
C331 H359 0.930 . S
N332 C331 1.373 . S
N332 C334 1.340 . S
N333 C330 1.368 . S
N333 C334 1.321 . S
N333 Co336 2.135 . S
C334 N332 1.340 . S
C334 N333 1.321 . S
C334 H358 0.930 . S
H335 C330 0.931 . S
Co336 N333 2.135 . S
Co336 N339 2.121 . S
Co336 O344 2.055 . S
Co336 O347 2.039 . S
Co336 N350 2.140 . S
C337 O338 1.227 . S
C337 O347 1.265 . S
O338 C337 1.227 . S
N339 Co336 2.121 . S
N339 C341 1.375 . S
N339 C342 1.313 . S
C340 C341 1.338 . S
C340 N343 1.377 . S
C340 H360 0.930 . S
C341 N339 1.375 . S
C341 C340 1.338 . S
C341 H345 0.931 . S
C342 N339 1.313 . S
C342 N343 1.344 . S
C342 H346 0.930 . S
N343 C340 1.377 . S
N343 C342 1.344 . S
O344 Co336 2.055 . S
O344 C348 1.253 . S
H345 C341 0.931 . S
H346 C342 0.930 . S
O347 Co336 2.039 . S
O347 C337 1.265 . S
C348 O344 1.253 . S
C348 O349 1.227 . S
O349 C348 1.227 . S
N350 Co336 2.140 . S
N350 C353 1.346 . S
N350 C354 1.345 . S
C351 C352 1.387 . S
C351 C355 1.391 . S
C352 C351 1.387 . S
C352 C353 1.369 . S
C352 H361 0.929 . S
C353 N350 1.346 . S
C353 C352 1.369 . S
C353 H356 0.928 . S
C354 N350 1.345 . S
C354 C355 1.371 . S
C354 H357 0.931 . S
C355 C351 1.391 . S
C355 C354 1.371 . S
C355 H362 0.930 . S
H356 C353 0.928 . S
H357 C354 0.931 . S
H358 C334 0.930 . S
H359 C331 0.930 . S
H360 C340 0.930 . S
H361 C352 0.929 . S
H362 C355 0.930 . S
C363 C364 1.351 . S
C363 N366 1.368 . S
C363 H368 0.931 . S
C364 C363 1.351 . S
C364 N365 1.373 1_655 S
C364 H392 0.930 . S
N365 C364 1.373 1_455 S
N365 C367 1.340 . S
N366 C363 1.368 . S
N366 C367 1.321 1_655 S
N366 Co369 2.135 . S
C367 N365 1.340 . S
C367 N366 1.321 1_455 S
C367 H391 0.930 . S
H368 C363 0.931 . S
Co369 N366 2.135 . S
Co369 N372 2.121 . S
Co369 O377 2.055 . S
Co369 O380 2.039 1_655 S
Co369 N383 2.140 . S
C370 O371 1.227 . S
C370 O380 1.265 . S
O371 C370 1.227 . S
N372 Co369 2.121 . S
N372 C374 1.375 . S
N372 C375 1.313 . S
C373 C374 1.338 . S
C373 N376 1.377 . S
C373 H393 0.930 . S
C374 N372 1.375 . S
C374 C373 1.338 . S
C374 H378 0.931 . S
C375 N372 1.313 . S
C375 N376 1.344 . S
C375 H379 0.930 . S
N376 C373 1.377 . S
N376 C375 1.344 . S
O377 Co369 2.055 . S
O377 C381 1.253 . S
H378 C374 0.931 . S
H379 C375 0.930 . S
O380 Co369 2.039 1_455 S
O380 C370 1.265 . S
C381 O377 1.253 . S
C381 O382 1.227 . S
O382 C381 1.227 . S
N383 Co369 2.140 . S
N383 C386 1.346 . S
N383 C387 1.345 . S
C384 C385 1.387 . S
C384 C388 1.391 . S
C385 C384 1.387 . S
C385 C386 1.369 . S
C385 H394 0.929 . S
C386 N383 1.346 . S
C386 C385 1.369 . S
C386 H389 0.922 1_655 S
C387 N383 1.345 . S
C387 C388 1.371 . S
C387 H390 0.931 . S
C388 C384 1.391 . S
C388 C387 1.371 . S
C388 H395 0.930 . S
H389 C386 0.922 1_455 S
H390 C387 0.931 . S
H391 C367 0.930 . S
H392 C364 0.930 . S
H393 C373 0.930 . S
H394 C385 0.929 . S
H395 C388 0.930 . S
N343 N13 0.756 . S
N46 N376 0.757 . S
N79 N211 0.756 . S
N112 N244 0.756 . S
N145 N277 0.757 . S
N178 N310 0.756 . S
C21 C285 1.533 . S
C318 C54 1.533 . S
C87 C351 1.533 . S
C120 C384 1.533 . S
C153 C219 1.533 . S
C186 C252 1.533 . S
N365 N2 1.272 1_455 S
N200 N35 1.272 1_546 S
N233 N68 1.272 . S
N101 N266 1.272 1_455 S
N134 N299 1.272 1_545 S
N332 N167 1.272 . S
C172 C18 2.545 1_556 S
C7 C51 2.545 . S
C84 C40 2.545 . S
C73 C117 2.545 . S
C150 C106 2.545 . S
C183 C139 2.545 . S
C238 C216 2.545 . S
C249 C271 2.545 1_556 S
C282 C304 2.545 . S
C337 C315 2.545 . S
C370 C348 2.545 . S
C381 C205 2.545 . S
