# Generated by pormake.
# Topology wmi, (6)-cn, num edge types: 1
# Building blocks:
#     Node 0, Type 0, BuildingBlock: PAMTOO_clean_sbu_0, # of connection points: 6
#     Node 1, Type 0, BuildingBlock: PAMTOO_clean_sbu_0, # of connection points: 6
#     Node 2, Type 0, BuildingBlock: PAMTOO_clean_sbu_0, # of connection points: 6
#     Node 3, Type 0, BuildingBlock: PAMTOO_clean_sbu_0, # of connection points: 6
#     Node 4, Type 0, BuildingBlock: PAMTOO_clean_sbu_0, # of connection points: 6
#     Node 5, Type 0, BuildingBlock: PAMTOO_clean_sbu_0, # of connection points: 6
#     Node 6, Type 0, BuildingBlock: PAMTOO_clean_sbu_0, # of connection points: 6
#     Node 7, Type 0, BuildingBlock: PAMTOO_clean_sbu_0, # of connection points: 6
#     Node 8, Type 0, BuildingBlock: PAMTOO_clean_sbu_0, # of connection points: 6
#     Node 9, Type 0, BuildingBlock: PAMTOO_clean_sbu_0, # of connection points: 6
#     Node 10, Type 0, BuildingBlock: PAMTOO_clean_sbu_0, # of connection points: 6
#     Node 11, Type 0, BuildingBlock: PAMTOO_clean_sbu_0, # of connection points: 6
#     Node 12, Type 0, BuildingBlock: PAMTOO_clean_sbu_0, # of connection points: 6
#     Node 13, Type 0, BuildingBlock: PAMTOO_clean_sbu_0, # of connection points: 6
#     Node 14, Type 0, BuildingBlock: PAMTOO_clean_sbu_0, # of connection points: 6
#     Node 15, Type 0, BuildingBlock: PAMTOO_clean_sbu_0, # of connection points: 6
#     Node 16, Type 0, BuildingBlock: PAMTOO_clean_sbu_0, # of connection points: 6
#     Node 17, Type 0, BuildingBlock: PAMTOO_clean_sbu_0, # of connection points: 6
#     Edge 18, Type (0, 0), BuildingBlock: EZIPEK_clean_linker_0, # of connection points: 2
#     Edge 19, Type (0, 0), BuildingBlock: EZIPEK_clean_linker_0, # of connection points: 2
#     Edge 20, Type (0, 0), BuildingBlock: EZIPEK_clean_linker_0, # of connection points: 2
#     Edge 21, Type (0, 0), BuildingBlock: EZIPEK_clean_linker_0, # of connection points: 2
#     Edge 22, Type (0, 0), BuildingBlock: EZIPEK_clean_linker_0, # of connection points: 2
#     Edge 23, Type (0, 0), BuildingBlock: EZIPEK_clean_linker_0, # of connection points: 2
#     Edge 24, Type (0, 0), BuildingBlock: EZIPEK_clean_linker_0, # of connection points: 2
#     Edge 25, Type (0, 0), BuildingBlock: EZIPEK_clean_linker_0, # of connection points: 2
#     Edge 26, Type (0, 0), BuildingBlock: EZIPEK_clean_linker_0, # of connection points: 2
#     Edge 27, Type (0, 0), BuildingBlock: EZIPEK_clean_linker_0, # of connection points: 2
#     Edge 28, Type (0, 0), BuildingBlock: EZIPEK_clean_linker_0, # of connection points: 2
#     Edge 29, Type (0, 0), BuildingBlock: EZIPEK_clean_linker_0, # of connection points: 2
#     Edge 30, Type (0, 0), BuildingBlock: EZIPEK_clean_linker_0, # of connection points: 2
#     Edge 31, Type (0, 0), BuildingBlock: EZIPEK_clean_linker_0, # of connection points: 2
#     Edge 32, Type (0, 0), BuildingBlock: EZIPEK_clean_linker_0, # of connection points: 2
#     Edge 33, Type (0, 0), BuildingBlock: EZIPEK_clean_linker_0, # of connection points: 2
#     Edge 34, Type (0, 0), BuildingBlock: EZIPEK_clean_linker_0, # of connection points: 2
#     Edge 35, Type (0, 0), BuildingBlock: EZIPEK_clean_linker_0, # of connection points: 2
#     Edge 36, Type (0, 0), BuildingBlock: EZIPEK_clean_linker_0, # of connection points: 2
#     Edge 37, Type (0, 0), BuildingBlock: EZIPEK_clean_linker_0, # of connection points: 2
#     Edge 38, Type (0, 0), BuildingBlock: EZIPEK_clean_linker_0, # of connection points: 2
#     Edge 39, Type (0, 0), BuildingBlock: EZIPEK_clean_linker_0, # of connection points: 2
#     Edge 40, Type (0, 0), BuildingBlock: EZIPEK_clean_linker_0, # of connection points: 2
#     Edge 41, Type (0, 0), BuildingBlock: EZIPEK_clean_linker_0, # of connection points: 2
#     Edge 42, Type (0, 0), BuildingBlock: EZIPEK_clean_linker_0, # of connection points: 2
#     Edge 43, Type (0, 0), BuildingBlock: EZIPEK_clean_linker_0, # of connection points: 2
#     Edge 44, Type (0, 0), BuildingBlock: EZIPEK_clean_linker_0, # of connection points: 2
#     Edge 45, Type (0, 0), BuildingBlock: EZIPEK_clean_linker_0, # of connection points: 2
#     Edge 46, Type (0, 0), BuildingBlock: EZIPEK_clean_linker_0, # of connection points: 2
#     Edge 47, Type (0, 0), BuildingBlock: EZIPEK_clean_linker_0, # of connection points: 2
#     Edge 48, Type (0, 0), BuildingBlock: EZIPEK_clean_linker_0, # of connection points: 2
#     Edge 49, Type (0, 0), BuildingBlock: EZIPEK_clean_linker_0, # of connection points: 2
#     Edge 50, Type (0, 0), BuildingBlock: EZIPEK_clean_linker_0, # of connection points: 2
#     Edge 51, Type (0, 0), BuildingBlock: EZIPEK_clean_linker_0, # of connection points: 2
#     Edge 52, Type (0, 0), BuildingBlock: EZIPEK_clean_linker_0, # of connection points: 2
#     Edge 53, Type (0, 0), BuildingBlock: EZIPEK_clean_linker_0, # of connection points: 2
#     Edge 54, Type (0, 0), BuildingBlock: EZIPEK_clean_linker_0, # of connection points: 2
#     Edge 55, Type (0, 0), BuildingBlock: EZIPEK_clean_linker_0, # of connection points: 2
#     Edge 56, Type (0, 0), BuildingBlock: EZIPEK_clean_linker_0, # of connection points: 2
#     Edge 57, Type (0, 0), BuildingBlock: EZIPEK_clean_linker_0, # of connection points: 2
#     Edge 58, Type (0, 0), BuildingBlock: EZIPEK_clean_linker_0, # of connection points: 2
#     Edge 59, Type (0, 0), BuildingBlock: EZIPEK_clean_linker_0, # of connection points: 2
#     Edge 60, Type (0, 0), BuildingBlock: EZIPEK_clean_linker_0, # of connection points: 2
#     Edge 61, Type (0, 0), BuildingBlock: EZIPEK_clean_linker_0, # of connection points: 2
#     Edge 62, Type (0, 0), BuildingBlock: EZIPEK_clean_linker_0, # of connection points: 2
#     Edge 63, Type (0, 0), BuildingBlock: EZIPEK_clean_linker_0, # of connection points: 2
#     Edge 64, Type (0, 0), BuildingBlock: EZIPEK_clean_linker_0, # of connection points: 2
#     Edge 65, Type (0, 0), BuildingBlock: EZIPEK_clean_linker_0, # of connection points: 2
#     Edge 66, Type (0, 0), BuildingBlock: EZIPEK_clean_linker_0, # of connection points: 2
#     Edge 67, Type (0, 0), BuildingBlock: EZIPEK_clean_linker_0, # of connection points: 2
#     Edge 68, Type (0, 0), BuildingBlock: EZIPEK_clean_linker_0, # of connection points: 2
#     Edge 69, Type (0, 0), BuildingBlock: EZIPEK_clean_linker_0, # of connection points: 2
#     Edge 70, Type (0, 0), BuildingBlock: EZIPEK_clean_linker_0, # of connection points: 2
#     Edge 71, Type (0, 0), BuildingBlock: EZIPEK_clean_linker_0, # of connection points: 2
# Relax obj value: 0.090
# Max RMSD: 0.228
# Mean RMSD: 0.228
data_MOF--net-wmi--node1-PAMTOO_clean_sbu_0--edge1-EZIPEK_clean_linker_0
_symmetry_space_group_name_H-M    P1
_symmetry_Int_Tables_number       1
_symmetry_cell_setting            triclinic
loop_
_symmetry_equiv_pos_as_xyz
'x, y, z'
_cell_length_a     32.106693
_cell_length_b     32.128833
_cell_length_c     58.663731
_cell_angle_alpha  90.134045
_cell_angle_beta   89.895527
_cell_angle_gamma 120.14142
loop_
_atom_site_label
_atom_site_type_symbol
_atom_site_fract_x
_atom_site_fract_y
_atom_site_fract_z
_atom_type_partial_charge
Dy0 Dy 0.44164 1.0004 0.07577 0.0
Dy1 Dy 0.55051 0.06693 0.09819 0.0
C2 C 0.4519 1.01058 0.12798 0.0
O3 O 0.45101 0.07413 0.08352 0.0
O4 O 0.53319 0.11745 0.08028 0.0
O5 O 0.36446 0.96991 0.07775 0.0
O6 O 0.39556 0.94928 0.05022 0.0
O7 O 0.55883 0.04847 0.06181 0.0
O8 O 0.48868 0.0387 0.04648 0.0
O9 O 0.52949 0.99168 0.10734 0.0
O10 O 0.4782 0.95642 0.07757 0.0
O11 O 0.62218 0.07885 0.10429 0.0
O12 O 0.60422 0.13198 0.11542 0.0
C13 C 0.49169 0.11586 0.08202 0.0
O14 O 0.43624 0.97899 0.11164 0.0
O15 O 0.49381 0.05111 0.12595 0.0
C16 C 0.3245 0.88737 0.06698 0.0
C17 C 0.26551 0.78823 0.07679 0.0
C18 C 0.29312 0.82077 0.09406 0.0
C19 C 0.32259 0.86986 0.08918 0.0
C20 C 0.29734 0.8547 0.0497 0.0
C21 C 0.26814 0.8056 0.05455 0.0
C22 C 0.35643 0.93896 0.06145 0.0
C23 C 0.53164 0.04405 0.04411 0.0
C24 C 0.50476 0.95424 0.09406 0.0
C25 C 0.68644 0.16112 0.10394 0.0
C26 C 0.78069 0.23487 0.09124 0.0
C27 C 0.74936 0.24611 0.10299 0.0
C28 C 0.70292 0.20971 0.10932 0.0
C29 C 0.71777 0.15014 0.09185 0.0
C30 C 0.7642 0.18656 0.08553 0.0
C31 C 0.63861 0.12205 0.11249 0.0
H32 H 0.29142 0.80824 0.11135 0.0
H33 H 0.34374 0.89411 0.10279 0.0
H34 H 0.29867 0.8672 0.03243 0.0
H35 H 0.24695 0.78116 0.041 0.0
H36 H 0.76122 0.28306 0.10763 0.0
H37 H 0.68019 0.21957 0.11882 0.0
H38 H 0.7068 0.11323 0.08759 0.0
H39 H 0.78764 0.17694 0.07651 0.0
Dy40 Dy 0.08629 0.47153 0.07828 0.0
Dy41 Dy 1.01583 0.51299 0.09803 0.0
C42 C 0.05633 0.46084 0.12875 0.0
O43 O 1.01215 0.40822 0.0712 0.0
O44 O 0.96609 0.43483 0.09017 0.0
O45 O 0.12849 0.45048 0.05712 0.0
O46 O 0.13676 0.45535 0.09392 0.0
O47 O 1.025 0.52831 0.06 0.0
O48 O 0.06882 0.49399 0.04607 0.0
O49 O 0.08886 0.5744 0.10471 0.0
O50 O 0.1314 0.55269 0.08079 0.0
O51 O 0.99911 0.56986 0.10061 0.0
O52 O 0.95195 0.50131 0.11662 0.0
C53 C 0.97049 0.40133 0.07924 0.0
O54 O 0.04946 0.43629 0.11025 0.0
O55 O 0.05103 0.49882 0.12826 0.0
C56 C 0.20639 0.47618 0.07313 0.0
C57 C 0.30703 0.52499 0.08004 0.0
C58 C 0.28245 0.55083 0.07884 0.0
C59 C 0.23251 0.52659 0.07527 0.0
C60 C 0.23121 0.45064 0.07357 0.0
C61 C 0.28112 0.47485 0.07691 0.0
C62 C 0.15332 0.44951 0.0746 0.0
C63 C 0.04598 0.51789 0.04324 0.0
C64 C 0.12723 0.58527 0.09263 0.0
C65 C 0.91694 0.54793 0.10391 0.0
C66 C 0.84284 0.56691 0.09146 0.0
C67 C 0.87546 0.56836 0.07501 0.0
C68 C 0.91213 0.55883 0.08116 0.0
C69 C 0.88369 0.54554 0.12018 0.0
C70 C 0.84701 0.55489 0.11403 0.0
C71 C 0.95882 0.54385 0.11152 0.0
H72 H 0.30169 0.58948 0.08129 0.0
H73 H 0.21395 0.54688 0.07516 0.0
H74 H 0.2117 0.41173 0.07235 0.0
H75 H 0.29937 0.45425 0.07784 0.0
H76 H 0.87294 0.57759 0.05752 0.0
H77 H 0.93739 0.56113 0.06826 0.0
H78 H 0.88686 0.53767 0.13783 0.0
H79 H 0.8223 0.55359 0.12699 0.0
Dy80 Dy 0.61934 0.65216 0.08566 0.0
Dy81 Dy 0.56954 0.53619 0.0993 0.0
C82 C 0.62231 0.62442 0.1338 0.0
O83 O 0.67631 0.63345 0.07567 0.0
O84 O 0.64704 0.55989 0.09401 0.0
O85 O 0.64839 0.72303 0.09998 0.0
O86 O 0.64316 0.71374 0.06326 0.0
O87 O 0.58001 0.54325 0.06091 0.0
O88 O 0.57264 0.61012 0.057 0.0
O89 O 0.50811 0.54752 0.09216 0.0
O90 O 0.54523 0.62834 0.09989 0.0
O91 O 0.51131 0.4629 0.09544 0.0
O92 O 0.56779 0.47891 0.11987 0.0
C93 C 0.68126 0.59716 0.08306 0.0
O94 O 0.65081 0.64101 0.11646 0.0
O95 O 0.58101 0.58401 0.13065 0.0
C96 C 0.62586 0.77102 0.07962 0.0
C97 C 0.58086 0.82673 0.08327 0.0
C98 C 0.55593 0.77798 0.08934 0.0
C99 C 0.57822 0.75037 0.08752 0.0
C100 C 0.65043 0.81947 0.07292 0.0
C101 C 0.62799 0.84722 0.07468 0.0
C102 C 0.65074 0.743 0.08031 0.0
C103 C 0.57235 0.57263 0.04816 0.0
C104 C 0.50612 0.58658 0.09602 0.0
C105 C 0.52437 0.3983 0.10487 0.0
C106 C 0.5104 0.30558 0.09469 0.0
C107 C 0.53632 0.34442 0.07966 0.0
C108 C 0.54311 0.39038 0.08466 0.0
C109 C 0.49853 0.35947 0.11978 0.0
C110 C 0.49162 0.31373 0.11477 0.0
C111 C 0.52831 0.44537 0.11038 0.0
H112 H 0.51963 0.76164 0.09606 0.0
H113 H 0.55874 0.71329 0.09303 0.0
H114 H 0.68729 0.83613 0.06693 0.0
H115 H 0.64775 0.88489 0.06997 0.0
H116 H 0.55158 0.33922 0.06418 0.0
H117 H 0.56286 0.41964 0.07279 0.0
H118 H 0.48336 0.36448 0.13535 0.0
H119 H 0.47191 0.28462 0.12673 0.0
Dy120 Dy 1.00962 0.43792 0.91809 0.0
Dy121 Dy 0.07716 0.54509 0.89446 0.0
C122 C 1.01887 0.44508 0.86581 0.0
O123 O 0.08261 0.44537 0.91017 0.0
O124 O 0.12783 0.52767 0.91209 0.0
O125 O 0.97879 0.3607 0.91752 0.0
O126 O 0.95809 0.39406 0.94396 0.0
O127 O 0.06109 0.55545 0.93097 0.0
O128 O 0.0515 0.48565 0.94647 0.0
O129 O 1.00201 0.52415 0.88505 0.0
O130 O 0.96685 0.47591 0.91575 0.0
O131 O 0.09062 0.61709 0.88817 0.0
O132 O 0.14128 0.59662 0.87589 0.0
C133 C 0.12496 0.48554 0.91108 0.0
O134 O 0.98761 0.43042 0.88227 0.0
O135 O 0.05979 0.48672 0.86744 0.0
C136 C 0.89644 0.32162 0.92817 0.0
C137 C 0.79765 0.26106 0.91821 0.0
C138 C 0.82911 0.29256 0.90158 0.0
C139 C 0.87806 0.32274 0.90654 0.0
C140 C 0.86484 0.29056 0.94485 0.0
C141 C 0.81587 0.26048 0.93992 0.0
C142 C 0.94791 0.35401 0.93366 0.0
C143 C 0.05809 0.52903 0.94873 0.0
C144 C 0.96449 0.50061 0.8984 0.0
C145 C 0.17301 0.67916 0.88639 0.0
C146 C 0.24766 0.77249 0.89932 0.0
C147 C 0.21382 0.74144 0.91545 0.0
C148 C 0.17696 0.69519 0.90908 0.0
C149 C 0.20711 0.71004 0.87038 0.0
C150 C 0.24398 0.75612 0.87676 0.0
C151 C 0.13252 0.63178 0.87874 0.0
H152 H 0.81587 0.29335 0.88471 0.0
H153 H 0.90157 0.34684 0.89345 0.0
H154 H 0.87807 0.28947 0.96169 0.0
H155 H 0.7922 0.23625 0.95294 0.0
H156 H 0.21576 0.75319 0.93293 0.0
H157 H 0.15121 0.67221 0.9218 0.0
H158 H 0.20482 0.69874 0.85279 0.0
H159 H 0.26948 0.7793 0.86399 0.0
Dy160 Dy 0.65661 0.60666 0.91373 0.0
Dy161 Dy 0.54331 0.5626 0.89517 0.0
C162 C 0.63604 0.5972 0.86269 0.0
O163 O 0.646 0.6716 0.91001 0.0
O164 O 0.56382 0.63682 0.90494 0.0
O165 O 0.73221 0.65174 0.9058 0.0
O166 O 0.71033 0.60868 0.93656 0.0
O167 O 0.53979 0.55767 0.93409 0.0
O168 O 0.61948 0.60565 0.94495 0.0
O169 O 0.56155 0.50433 0.89132 0.0
O170 O 0.6165 0.52681 0.92028 0.0
O171 O 0.48801 0.56818 0.87637 0.0
O172 O 0.47098 0.50127 0.89247 0.0
C173 C 0.60649 0.67486 0.90798 0.0
O174 O 0.64986 0.57932 0.8788 0.0
O175 O 0.59585 0.59845 0.86553 0.0
C176 C 0.777 0.61503 0.91685 0.0
C177 C 0.83321 0.57213 0.9076 0.0
C178 C 0.79249 0.56055 0.8943 0.0
C179 C 0.76462 0.5819 0.89886 0.0
C180 C 0.81791 0.62687 0.93003 0.0
C181 C 0.84595 0.60566 0.9254 0.0
C182 C 0.74577 0.63492 0.92273 0.0
C183 C 0.57371 0.57925 0.94986 0.0
C184 C 0.58365 0.49345 0.907 0.0
C185 C 0.40621 0.51651 0.88811 0.0
C186 C 0.31324 0.50064 0.89932 0.0
C187 C 0.3542 0.53497 0.91133 0.0
C188 C 0.40035 0.54282 0.90579 0.0
C189 C 0.36513 0.48159 0.87653 0.0
C190 C 0.31923 0.47381 0.88202 0.0
C191 C 0.45424 0.52446 0.88117 0.0
H192 H 0.78215 0.53476 0.8805 0.0
H193 H 0.7331 0.57213 0.88853 0.0
H194 H 0.82781 0.65207 0.94407 0.0
H195 H 0.87726 0.61495 0.93582 0.0
H196 H 0.35058 0.5565 0.92456 0.0
H197 H 0.43142 0.56982 0.91505 0.0
H198 H 0.36865 0.46073 0.8629 0.0
H199 H 0.28838 0.44757 0.87236 0.0
Dy200 Dy 0.48471 0.07895 0.91983 0.0
Dy201 Dy 0.52301 1.01028 0.89487 0.0
C202 C 0.48467 0.07108 0.86649 0.0
O203 O 0.41754 1.00651 0.91403 0.0
O204 O 0.45188 0.95887 0.91028 0.0
O205 O 0.43944 0.11092 0.91944 0.0
O206 O 0.49241 0.12959 0.94618 0.0
O207 O 0.54668 0.0213 0.93186 0.0
O208 O 0.48986 0.03598 0.94786 0.0
O209 O 0.58089 0.08624 0.88858 0.0
O210 O 0.56559 0.12067 0.91938 0.0
O211 O 0.58149 0.99774 0.8866 0.0
O212 O 0.50916 0.94554 0.87651 0.0
C213 C 0.41369 0.96362 0.91238 0.0
O214 O 0.49856 0.10061 0.88378 0.0
O215 O 0.48622 0.03069 0.8674 0.0
C216 C 0.48266 0.19229 0.93139 0.0
C217 C 0.52113 0.29146 0.9229 0.0
C218 C 0.52398 0.26161 0.90619 0.0
C219 C 0.50511 0.21246 0.91044 0.0
C220 C 0.48036 0.22223 0.94817 0.0
C221 C 0.49945 0.27142 0.94397 0.0
C222 C 0.46307 0.14057 0.93607 0.0
C223 C 0.52494 0.02662 0.94978 0.0
C224 C 0.59524 0.12059 0.90391 0.0
C225 C 0.56302 0.9163 0.88447 0.0
C226 C 0.58451 0.84331 0.89608 0.0
C227 C 0.58227 0.87325 0.91303 0.0
C228 C 0.57155 0.90937 0.90729 0.0
C229 C 0.56541 0.88648 0.86759 0.0
C230 C 0.57601 0.8504 0.87331 0.0
C231 C 0.55379 0.95552 0.87766 0.0
H232 H 0.54032 0.27628 0.8898 0.0
H233 H 0.5078 0.19017 0.8973 0.0
H234 H 0.46363 0.20752 0.96449 0.0
H235 H 0.49671 0.29382 0.95704 0.0
H236 H 0.58852 0.86841 0.93071 0.0
H237 H 0.57012 0.93198 0.92064 0.0
H238 H 0.55929 0.89126 0.84988 0.0
H239 H 0.57735 0.82777 0.85995 0.0
Dy240 Dy 0.11587 0.33578 0.40807 0.0
Dy241 Dy 0.22504 0.40244 0.43111 0.0
C242 C 0.12709 0.33914 0.46007 0.0
O243 O 0.1247 0.40836 0.41793 0.0
O244 O 0.20695 0.45354 0.41481 0.0
O245 O 0.03891 0.30495 0.41143 0.0
O246 O 0.06828 0.28677 0.38226 0.0
O247 O 0.23419 0.39307 0.39336 0.0
O248 O 0.16119 0.37923 0.37943 0.0
O249 O 0.20654 0.3263 0.43548 0.0
O250 O 0.15548 0.29484 0.40489 0.0
O251 O 0.2966 0.41469 0.43768 0.0
O252 O 0.27693 0.46571 0.4502 0.0
C253 C 0.16491 0.45056 0.41666 0.0
O254 O 0.1139 0.3098 0.44283 0.0
O255 O 0.16743 0.38129 0.45889 0.0
C256 C 0.99812 0.22367 0.39901 0.0
C257 C 0.93929 0.124 0.40732 0.0
C258 C 0.96987 0.15469 0.42444 0.0
C259 C 0.99924 0.20405 0.42029 0.0
C260 C 0.96791 0.19289 0.38184 0.0
C261 C 0.93877 0.14347 0.38595 0.0
C262 C 1.02983 0.27557 0.39428 0.0
C263 C 0.20532 0.38825 0.37626 0.0
C264 C 0.18577 0.29349 0.41955 0.0
C265 C 0.3603 0.49611 0.44127 0.0
C266 C 0.456 0.56958 0.43092 0.0
C267 C 0.42628 0.53725 0.41395 0.0
C268 C 0.3789 0.50091 0.41905 0.0
C269 C 0.38999 0.52859 0.45813 0.0
C270 C 0.43724 0.56487 0.45303 0.0
C271 C 0.31157 0.45604 0.44768 0.0
H272 H 0.97067 0.14047 0.44106 0.0
H273 H 1.02273 0.22688 0.43374 0.0
H274 H 0.96686 0.20709 0.36526 0.0
H275 H 0.91529 0.12041 0.37255 0.0
H276 H 0.43982 0.54016 0.39675 0.0
H277 H 0.35699 0.4763 0.40571 0.0
H278 H 0.37677 0.52555 0.47541 0.0
H279 H 0.45927 0.58932 0.4664 0.0
Dy280 Dy 0.76635 0.80811 0.41704 0.0
Dy281 Dy 0.6952 0.84844 0.43522 0.0
C282 C 0.75523 0.81785 0.46808 0.0
O283 O 0.69174 0.74133 0.42077 0.0
O284 O 0.64282 0.77456 0.42396 0.0
O285 O 0.80086 0.76708 0.42527 0.0
O286 O 0.817 0.80633 0.39337 0.0
O287 O 0.69599 0.85384 0.39632 0.0
O288 O 0.73127 0.80947 0.38572 0.0
O289 O 0.77097 0.90904 0.43882 0.0
O290 O 0.80516 0.8877 0.41025 0.0
O291 O 0.68343 0.90865 0.43871 0.0
O292 O 0.6328 0.84038 0.4538 0.0
C293 C 0.64836 0.73699 0.42165 0.0
O294 O 0.78681 0.83598 0.45183 0.0
O295 O 0.71276 0.81414 0.46506 0.0
C296 C 0.8819 0.80718 0.4122 0.0
C297 C 0.98205 0.85319 0.41958 0.0
C298 C 0.9513 0.85112 0.43714 0.0
C299 C 0.90154 0.82856 0.43343 0.0
C300 C 0.91287 0.81022 0.39459 0.0
C301 C 0.96252 0.83313 0.39822 0.0
C302 C 0.82973 0.7838 0.4077 0.0
C303 C 0.70993 0.83375 0.38054 0.0
C304 C 0.80452 0.92063 0.42332 0.0
C305 C 0.60231 0.89066 0.44124 0.0
C306 C 0.52884 0.90945 0.42747 0.0
C307 C 0.55993 0.90712 0.41124 0.0
C308 C 0.59633 0.8977 0.41806 0.0
C309 C 0.57105 0.89275 0.45735 0.0
C310 C 0.53468 0.90203 0.45055 0.0
C311 C 0.6424 0.884 0.4492 0.0
H312 H 0.96569 0.86599 0.45379 0.0
H313 H 0.87848 0.82748 0.4472 0.0
H314 H 0.89858 0.79459 0.37803 0.0
H315 H 0.98569 0.83404 0.38454 0.0
H316 H 0.55603 0.91269 0.39335 0.0
H317 H 0.6201 0.89645 0.40529 0.0
H318 H 0.57513 0.88776 0.4753 0.0
H319 H 0.51112 0.90362 0.46333 0.0
Dy320 Dy 0.29871 0.98463 0.41573 0.0
Dy321 Dy 0.25147 0.87138 0.43352 0.0
C322 C 0.30544 0.96272 0.4657 0.0
O323 O 0.35833 0.96878 0.4079 0.0
O324 O 0.32964 0.89746 0.42821 0.0
O325 O 0.31991 0.05217 0.43186 0.0
O326 O 0.32311 0.04884 0.39495 0.0
O327 O 0.24301 0.86848 0.39459 0.0
O328 O 0.27634 0.94811 0.38302 0.0
O329 O 0.19536 0.88931 0.44215 0.0
O330 O 0.21784 0.95154 0.41721 0.0
O331 O 0.19155 0.79854 0.43413 0.0
O332 O 0.25688 0.81622 0.45248 0.0
C333 C 0.36362 0.93358 0.41654 0.0
O334 O 0.3317 0.97995 0.44767 0.0
O335 O 0.26605 0.92031 0.46435 0.0
C336 C 0.29682 0.10018 0.41127 0.0
C337 C 0.25121 0.1557 0.41058 0.0
C338 C 0.24479 0.12583 0.42917 0.0
C339 C 0.26723 0.09827 0.42951 0.0
C340 C 0.30175 0.1288 0.39226 0.0
C341 C 0.27891 0.15622 0.39187 0.0
C342 C 0.32401 0.07422 0.41263 0.0
C343 C 0.25449 0.90194 0.37868 0.0
C344 C 0.18516 0.91682 0.4299 0.0
C345 C 0.2061 0.7343 0.44057 0.0
C346 C 0.18728 0.64055 0.42971 0.0
C347 C 0.22067 0.68043 0.41684 0.0
C348 C 0.22995 0.72707 0.42219 0.0
C349 C 0.17242 0.69436 0.45316 0.0
C350 C 0.16313 0.648 0.44782 0.0
C351 C 0.21368 0.78233 0.44667 0.0
H352 H 0.22381 0.12518 0.44379 0.0
H353 H 0.26238 0.07656 0.44445 0.0
H354 H 0.32425 0.13094 0.37801 0.0
H355 H 0.28445 0.17938 0.37742 0.0
H356 H 0.24006 0.67553 0.40295 0.0
H357 H 0.25578 0.75736 0.41213 0.0
H358 H 0.15334 0.69907 0.46727 0.0
H359 H 0.13764 0.61791 0.4581 0.0
Dy360 Dy 0.66949 0.7608 0.24291 0.0
Dy361 Dy 0.73933 0.87602 0.22858 0.0
C362 C 0.68168 0.78854 0.19345 0.0
O363 O 0.74568 0.77374 0.24006 0.0
O364 O 0.79281 0.85665 0.24012 0.0
O365 O 0.63971 0.68822 0.23022 0.0
O366 O 0.62175 0.70094 0.26424 0.0
O367 O 0.73903 0.87621 0.26743 0.0
O368 O 0.69364 0.79505 0.27608 0.0
O369 O 0.66316 0.8599 0.22681 0.0
O370 O 0.62457 0.79427 0.25046 0.0
O371 O 0.74901 0.9477 0.22808 0.0
O372 O 0.79936 0.93356 0.21007 0.0
C373 C 0.78822 0.81373 0.24081 0.0
O374 O 0.64944 0.77516 0.20932 0.0
O375 O 0.7246 0.82562 0.19804 0.0
C376 C 0.55928 0.63912 0.24303 0.0
C377 C 0.45937 0.58339 0.23569 0.0
C378 C 0.48967 0.61292 0.21825 0.0
C379 C 0.53932 0.64093 0.22194 0.0
C380 C 0.5288 0.6095 0.26038 0.0
C381 C 0.47924 0.58198 0.25677 0.0
C382 C 0.6111 0.66989 0.24777 0.0
C383 C 0.71882 0.84028 0.28224 0.0
C384 C 0.62751 0.83224 0.24052 0.0
C385 C 0.82773 1.01461 0.22266 0.0
C386 C 0.9024 0.10896 0.23384 0.0
C387 C 0.89323 0.06956 0.24776 0.0
C388 C 0.85607 0.02271 0.24225 0.0
C389 C 0.83643 0.05414 0.20909 0.0
C390 C 0.87333 0.1007 0.21457 0.0
C391 C 0.7883 0.96601 0.21599 0.0
H392 H 0.47493 0.61399 0.20181 0.0
H393 H 0.56196 0.66399 0.20835 0.0
H394 H 0.54335 0.60789 0.27679 0.0
H395 H 0.45634 0.55899 0.27033 0.0
H396 H 0.91561 0.07489 0.26251 0.0
H397 H 0.84986 0.99285 0.25306 0.0
H398 H 0.81492 0.0489 0.194 0.0
H399 H 0.88005 0.13027 0.20342 0.0
Dy400 Dy 0.3254 0.94626 0.24376 0.0
Dy401 Dy 0.21108 0.89995 0.22932 0.0
C402 C 0.29968 0.95101 0.19483 0.0
O403 O 0.30856 1.00496 0.25298 0.0
O404 O 0.2364 0.97787 0.23376 0.0
O405 O 0.39685 0.97237 0.23074 0.0
O406 O 0.38526 0.97069 0.26727 0.0
O407 O 0.21667 0.90979 0.26782 0.0
O408 O 0.28148 0.89927 0.27196 0.0
O409 O 0.21953 0.83671 0.2359 0.0
O410 O 0.30088 0.87154 0.22991 0.0
O411 O 0.13788 0.84127 0.23116 0.0
O412 O 0.15501 0.90194 0.20928 0.0
C413 C 0.27366 1.01142 0.24492 0.0
O414 O 0.31935 0.97901 0.21217 0.0
O415 O 0.25818 0.91084 0.19795 0.0
C416 C 0.44302 0.95169 0.2535 0.0
C417 C 0.49782 0.90577 0.25243 0.0
C418 C 0.44809 0.87927 0.24848 0.0
C419 C 0.42092 0.90216 0.24894 0.0
C420 C 0.49246 0.97786 0.25823 0.0
C421 C 0.51978 0.95498 0.25772 0.0
C422 C 0.41551 0.9766 0.25094 0.0
C423 C 0.24476 0.90056 0.28074 0.0
C424 C 0.25785 0.83315 0.23249 0.0
C425 C 0.07444 0.85782 0.22416 0.0
C426 C 0.98023 0.83982 0.23368 0.0
C427 C 1.00686 0.83224 0.25049 0.0
C428 C 0.05356 0.84125 0.2458 0.0
C429 C 0.04799 0.86617 0.20756 0.0
C430 C 1.00144 0.85737 0.21228 0.0
C431 C 0.12097 0.86146 0.21771 0.0
H432 H 0.43069 0.84132 0.24431 0.0
H433 H 0.38303 0.8816 0.24485 0.0
H434 H 0.51014 1.01618 0.26157 0.0
H435 H 0.55821 0.97586 0.26076 0.0
H436 H 0.99117 0.81866 0.2671 0.0
H437 H 0.07278 0.83413 0.25896 0.0
H438 H 0.06288 0.87834 0.19068 0.0
H439 H 0.98155 0.86341 0.19906 0.0
Dy440 Dy 0.14521 0.41486 0.24757 0.0
Dy441 Dy 0.1806 0.33991 0.22769 0.0
C442 C 0.14429 0.39826 0.19606 0.0
O443 O 0.07813 0.34139 0.24137 0.0
O444 O 0.11314 0.29543 0.24719 0.0
O445 O 0.10261 0.44925 0.24307 0.0
O446 O 0.15141 0.46874 0.2717 0.0
O447 O 0.20819 0.36046 0.26397 0.0
O448 O 0.15388 0.3806 0.27843 0.0
O449 O 0.23825 0.41246 0.21715 0.0
O450 O 0.22627 0.45549 0.24509 0.0
O451 O 0.23714 0.32443 0.21958 0.0
O452 O 0.16308 0.27001 0.21379 0.0
C453 C 0.0745 0.29883 0.24451 0.0
O454 O 0.16329 0.43177 0.21146 0.0
O455 O 0.14173 0.35629 0.19939 0.0
C456 C 0.14698 0.53174 0.25347 0.0
C457 C 0.19245 0.63103 0.2431 0.0
C458 C 0.19823 0.59933 0.22866 0.0
C459 C 0.17557 0.55008 0.23378 0.0
C460 C 0.14154 0.56349 0.26796 0.0
C461 C 0.164 0.61269 0.26281 0.0
C462 C 0.12473 0.48017 0.25948 0.0
C463 C 0.18879 0.37119 0.28125 0.0
C464 C 0.25436 0.4504 0.23031 0.0
C465 C 0.21813 0.24252 0.2231 0.0
C466 C 0.24292 0.17243 0.23584 0.0
C467 C 0.20232 0.15976 0.22221 0.0
C468 C 0.19016 0.19442 0.21586 0.0
C469 C 0.2582 0.25485 0.23725 0.0
C470 C 0.2704 0.22015 0.24355 0.0
C471 C 0.20769 0.27976 0.21409 0.0
H472 H 0.22007 0.61269 0.21341 0.0
H473 H 0.18044 0.5263 0.22238 0.0
H474 H 0.12004 0.55025 0.28332 0.0
H475 H 0.15915 0.63653 0.27418 0.0
H476 H 0.18063 0.12319 0.21605 0.0
H477 H 0.15943 0.18383 0.2048 0.0
H478 H 0.28081 0.29154 0.24307 0.0
H479 H 0.30185 0.23071 0.25408 0.0
Dy480 Dy 0.77845 0.67345 0.74755 0.0
Dy481 Dy 0.88998 0.73753 0.76821 0.0
C482 C 0.79416 0.69369 0.79846 0.0
O483 O 0.80222 0.75006 0.73724 0.0
O484 O 0.86252 0.78841 0.764 0.0
O485 O 0.70279 0.64101 0.75531 0.0
O486 O 0.72491 0.62778 0.72258 0.0
O487 O 0.89705 0.74315 0.72973 0.0
O488 O 0.82541 0.67613 0.71943 0.0
O489 O 0.87988 0.66561 0.76039 0.0
O490 O 0.79759 0.62124 0.76323 0.0
O491 O 0.96224 0.74918 0.77272 0.0
O492 O 0.94325 0.79867 0.78771 0.0
C493 C 0.83272 0.78898 0.74887 0.0
O494 O 0.7783 0.70543 0.78071 0.0
O495 O 0.837 0.69719 0.79729 0.0
C496 C 0.65942 0.56173 0.74098 0.0
C497 C 0.60048 0.4619 0.74855 0.0
C498 C 0.63354 0.49134 0.76522 0.0
C499 C 0.66302 0.54076 0.76141 0.0
C500 C 0.62694 0.53213 0.72418 0.0
C501 C 0.59776 0.48259 0.72791 0.0
C502 C 0.68966 0.61413 0.73711 0.0
C503 C 0.86915 0.71037 0.71457 0.0
C504 C 0.83997 0.62424 0.76212 0.0
C505 C 1.02581 0.83045 0.77683 0.0
C506 C 0.11943 0.91227 0.76773 0.0
C507 C 0.07674 0.90697 0.75759 0.0
C508 C 1.03083 0.86773 0.76265 0.0
C509 C 0.06774 0.83156 0.78429 0.0
C510 C 0.11349 0.87074 0.77921 0.0
C511 C 0.97784 0.7896 0.78363 0.0
H512 H 0.63602 0.47616 0.78128 0.0
H513 H 0.68823 0.56265 0.77457 0.0
H514 H 0.62382 0.54741 0.70827 0.0
H515 H 0.57232 0.46046 0.71487 0.0
H516 H 0.0777 0.93208 0.74517 0.0
H517 H 0.99929 0.86639 0.75528 0.0
H518 H 0.06521 0.80175 0.79403 0.0
H519 H 0.14379 0.86703 0.78411 0.0
Dy520 Dy 0.42675 0.14791 0.74522 0.0
Dy521 Dy 0.35265 0.18231 0.76628 0.0
C522 C 0.4126 0.14739 0.79694 0.0
O523 O 0.35352 0.08103 0.75116 0.0
O524 O 0.30839 0.11639 0.74566 0.0
O525 O 0.45988 0.10417 0.74954 0.0
O526 O 0.48035 0.1534 0.72107 0.0
O527 O 0.36988 0.20961 0.72991 0.0
O528 O 0.39191 0.15716 0.7147 0.0
O529 O 0.42631 0.24296 0.77425 0.0
O530 O 0.46736 0.22877 0.74603 0.0
O531 O 0.33539 0.2373 0.77503 0.0
O532 O 0.28313 0.16271 0.78139 0.0
C533 C 0.31118 0.07717 0.74725 0.0
O534 O 0.44521 0.16747 0.78118 0.0
O535 O 0.36967 0.1429 0.79396 0.0
C536 C 0.54248 0.14783 0.73956 0.0
C537 C 0.64113 0.1913 0.75085 0.0
C538 C 0.60909 0.19625 0.7654 0.0
C539 C 0.56016 0.17469 0.7598 0.0
C540 C 0.57461 0.14331 0.72494 0.0
C541 C 0.62356 0.16485 0.73055 0.0
C542 C 0.49114 0.12623 0.73326 0.0
C543 C 0.38096 0.19113 0.71238 0.0
C544 C 0.4632 0.25812 0.76034 0.0
C545 C 0.25284 0.21579 0.77337 0.0
C546 C 0.18185 0.23911 0.76023 0.0
C547 C 0.21812 0.24497 0.74485 0.0
C548 C 0.25327 0.23336 0.75134 0.0
C549 C 0.21623 0.20942 0.78856 0.0
C550 C 0.18118 0.22095 0.78208 0.0
C551 C 0.29159 0.2069 0.78148 0.0
H552 H 0.62194 0.21651 0.78112 0.0
H553 H 0.53612 0.17899 0.77127 0.0
H554 H 0.56185 0.12316 0.70919 0.0
H555 H 0.64774 0.16065 0.71912 0.0
H556 H 0.21944 0.25895 0.72792 0.0
H557 H 0.28116 0.23877 0.73929 0.0
H558 H 0.2152 0.19624 0.80565 0.0
H559 H 0.15367 0.21614 0.79425 0.0
Dy560 Dy 0.95409 0.32042 0.75296 0.0
Dy561 Dy 0.9074 0.20488 0.76508 0.0
C562 C 0.95801 0.29041 0.80086 0.0
O563 O 1.01491 0.3062 0.74417 0.0
O564 O 0.98526 0.22999 0.75978 0.0
O565 O 0.98129 0.39035 0.76803 0.0
O566 O 0.97353 0.38235 0.73129 0.0
O567 O 0.91828 0.21255 0.72683 0.0
O568 O 0.91201 0.28023 0.72277 0.0
O569 O 0.8451 0.21438 0.75749 0.0
O570 O 0.87977 0.29361 0.76752 0.0
O571 O 0.84877 0.13184 0.76196 0.0
O572 O 0.90806 0.14767 0.78461 0.0
C573 C 1.02014 0.26933 0.75042 0.0
O574 O 0.98645 0.31055 0.78374 0.0
O575 O 0.91739 0.24978 0.79713 0.0
C576 C 0.95153 0.43472 0.74959 0.0
C577 C 0.90133 0.48534 0.75428 0.0
C578 C 0.88437 0.44091 0.76514 0.0
C579 C 0.90916 0.41573 0.76276 0.0
C580 C 0.96773 0.47856 0.73823 0.0
C581 C 0.94275 0.50372 0.74055 0.0
C582 C 0.97996 0.41012 0.74886 0.0
C583 C 0.91143 0.24245 0.71408 0.0
C584 C 0.84146 0.25192 0.76277 0.0
C585 C 0.86464 0.06833 0.76876 0.0
C586 C 0.85092 0.97713 0.75631 0.0
C587 C 0.86315 1.01303 0.73974 0.0
C588 C 0.86997 0.05834 0.74591 0.0
C589 C 0.85261 0.03244 0.78523 0.0
C590 C 0.84583 0.98731 0.77909 0.0
C591 C 0.86783 0.11421 0.77568 0.0
H592 H 0.8527 0.42639 0.77592 0.0
H593 H 0.89593 0.38207 0.77178 0.0
H594 H 1.00028 0.49389 0.72806 0.0
H595 H 0.95648 0.5382 0.73219 0.0
H596 H 0.86749 1.00598 0.72209 0.0
H597 H 0.87895 0.08535 0.73285 0.0
H598 H 0.8479 0.03916 0.8029 0.0
H599 H 0.83668 0.96027 0.79214 0.0
Dy600 Dy 0.35263 0.10026 0.58757 0.0
Dy601 Dy 0.42434 0.20832 0.56455 0.0
C602 C 0.37421 0.10976 0.53527 0.0
O603 O 0.42809 0.11735 0.59651 0.0
O604 O 0.46602 0.17 0.56689 0.0
O605 O 0.31741 0.02274 0.58526 0.0
O606 O 0.30036 0.05569 0.61306 0.0
O607 O 0.42798 0.22258 0.6024 0.0
O608 O 0.36482 0.15092 0.61558 0.0
O609 O 0.356 0.20619 0.57349 0.0
O610 O 0.30651 0.12477 0.56987 0.0
O611 O 0.43847 0.27397 0.54684 0.0
O612 O 0.49707 0.26296 0.55667 0.0
C613 C 0.46594 0.14216 0.58322 0.0
O614 O 0.37471 0.08804 0.55387 0.0
O615 O 0.38526 0.15545 0.53545 0.0
C616 C 0.23615 0.98579 0.59698 0.0
C617 C 0.13705 0.92732 0.58771 0.0
C618 C 0.16779 0.96075 0.57148 0.0
C619 C 0.21697 0.99001 0.57613 0.0
C620 C 0.20528 0.95303 0.61333 0.0
C621 C 0.15609 0.92402 0.60874 0.0
C622 C 0.28796 1.01605 0.60198 0.0
C623 C 0.39777 0.19603 0.6186 0.0
C624 C 0.31294 0.16851 0.57111 0.0
C625 C 0.51458 0.34413 0.55613 0.0
C626 C 0.5837 0.44132 0.56639 0.0
C627 C 0.57495 0.40429 0.58177 0.0
C628 C 0.54067 0.35622 0.57674 0.0
C629 C 0.52157 0.3815 0.54138 0.0
C630 C 0.55562 0.42958 0.54648 0.0
C631 C 0.48511 0.29313 0.54846 0.0
H632 H 0.15383 0.96358 0.55511 0.0
H633 H 0.24011 1.01555 0.56337 0.0
H634 H 0.21929 0.94959 0.62956 0.0
H635 H 0.13295 0.89824 0.62141 0.0
H636 H 0.59623 0.41232 0.59716 0.0
H637 H 0.53616 0.32831 0.5885 0.0
H638 H 0.50226 0.37331 0.52536 0.0
H639 H 0.56185 0.45742 0.5343 0.0
Dy640 Dy 0.99848 0.27094 0.579 0.0
Dy641 Dy 0.88464 0.22988 0.56141 0.0
C642 C 0.97473 0.26006 0.52815 0.0
O643 O 0.98921 0.33702 0.57655 0.0
O644 O 0.90753 0.30507 0.57047 0.0
O645 O 0.07335 0.31246 0.56901 0.0
O646 O 0.05388 0.27529 0.60144 0.0
O647 O 0.88206 0.23075 0.60016 0.0
O648 O 0.96198 0.26526 0.61124 0.0
O649 O 0.89931 0.16889 0.55911 0.0
O650 O 0.95909 0.1914 0.58575 0.0
O651 O 0.81225 0.16914 0.56035 0.0
O652 O 0.82839 0.23462 0.54282 0.0
C653 C 0.95068 0.34193 0.57415 0.0
O654 O 0.98779 0.24145 0.54428 0.0
O655 O 0.93576 0.26342 0.53114 0.0
C656 C 0.11873 0.27711 0.58174 0.0
C657 C 0.17525 0.23361 0.57448 0.0
C658 C 0.13682 0.22359 0.55977 0.0
C659 C 0.10864 0.24508 0.56341 0.0
C660 C 0.15721 0.28712 0.59635 0.0
C661 C 0.18523 0.26554 0.59276 0.0
C662 C 0.08805 0.29829 0.58655 0.0
C663 C 0.91612 0.24638 0.61595 0.0
C664 C 0.92244 0.15793 0.5742 0.0
C665 C 0.74814 0.18618 0.55753 0.0
C666 C 0.65516 0.16703 0.57123 0.0
C667 C 0.6857 0.16203 0.58676 0.0
C668 C 0.73176 0.17163 0.58001 0.0
C669 C 0.71774 0.19172 0.54216 0.0
C670 C 0.67184 0.18231 0.54892 0.0
C671 C 0.79471 0.19196 0.54924 0.0
H672 H 0.12857 0.199 0.5456 0.0
H673 H 0.07879 0.23641 0.55204 0.0
H674 H 0.16531 0.31134 0.61068 0.0
H675 H 0.2147 0.27365 0.60428 0.0
H676 H 0.67367 0.15026 0.60403 0.0
H677 H 0.75418 0.16685 0.59228 0.0
H678 H 0.72917 0.20247 0.52472 0.0
H679 H 0.649 0.18638 0.53663 0.0
Dy680 Dy 0.82337 0.7443 0.58877 0.0
Dy681 Dy 0.86381 0.67668 0.5648 0.0
C682 C 0.82833 0.74007 0.53639 0.0
O683 O 0.7584 0.67252 0.5789 0.0
O684 O 0.79414 0.62641 0.58161 0.0
O685 O 0.7756 0.77331 0.58754 0.0
O686 O 0.82781 0.79427 0.61483 0.0
O687 O 0.88744 0.68932 0.60183 0.0
O688 O 0.82871 0.70197 0.61713 0.0
O689 O 0.92178 0.75238 0.55876 0.0
O690 O 0.90434 0.78738 0.5887 0.0
O691 O 0.92218 0.66382 0.55681 0.0
O692 O 0.84987 0.61159 0.54662 0.0
C693 C 0.75534 0.62996 0.57986 0.0
O694 O 0.84381 0.76959 0.5536 0.0
O695 O 0.82716 0.69826 0.53745 0.0
C696 C 0.8143 0.85461 0.5997 0.0
C697 C 0.84186 0.95248 0.59047 0.0
C698 C 0.84905 0.92377 0.57428 0.0
C699 C 0.83433 0.87542 0.57859 0.0
C700 C 0.81305 0.884 0.61693 0.0
C701 C 0.82809 0.93242 0.61264 0.0
C702 C 0.79747 0.8033 0.60429 0.0
C703 C 0.8648 0.6942 0.61953 0.0
C704 C 0.93496 0.78701 0.57383 0.0
C705 C 0.90365 0.58191 0.55476 0.0
C706 C 0.92678 0.50927 0.56494 0.0
C707 C 0.93923 0.54773 0.58012 0.0
C708 C 0.9278 0.58367 0.57511 0.0
C709 C 0.89086 0.54315 0.53975 0.0
C710 C 0.9022 0.50724 0.54478 0.0
C711 C 0.89442 0.62138 0.54806 0.0
H712 H 0.86688 0.93817 0.55821 0.0
H713 H 0.83903 0.85442 0.56541 0.0
H714 H 0.80096 0.86967 0.6339 0.0
H715 H 0.82961 0.95354 0.62723 0.0
H716 H 0.95793 0.54997 0.59583 0.0
H717 H 0.93831 0.61307 0.58704 0.0
H718 H 0.87256 0.54095 0.52391 0.0
H719 H 0.89199 0.47788 0.53286 0.0
C720 C 0.49626 0.87705 0.07759 0.0
C721 C 0.51397 0.9126 0.09504 0.0
C722 C 0.56963 0.88535 0.10724 0.0
C723 C 0.55798 0.85648 0.0873 0.0
N724 N 0.51247 0.82691 0.05249 0.0
N725 N 0.54767 0.93042 0.13289 0.0
C726 C 0.52168 0.85265 0.07226 0.0
C727 C 0.54524 0.91124 0.11179 0.0
N728 N 0.45269 0.86309 0.0677 0.0
N729 N 0.6046 0.88862 0.12166 0.0
H730 H 0.52489 0.94315 0.13777 0.0
H731 H 0.56667 0.92748 0.14654 0.0
H732 H 0.62133 0.86817 0.11967 0.0
H733 H 0.61925 0.9137 0.13481 0.0
H734 H 0.43644 0.83501 0.05598 0.0
H735 H 0.42928 0.87403 0.07396 0.0
H736 H 0.49045 0.82759 0.03964 0.0
H737 H 0.5301 0.80824 0.04804 0.0
C738 C 0.24748 0.70417 0.08754 0.0
C739 C 0.23092 0.73657 0.08217 0.0
C740 C 0.14785 0.66931 0.0817 0.0
C741 C 0.16354 0.63741 0.08938 0.0
N742 N 0.22808 0.6265 0.1032 0.0
N743 N 0.16454 0.75143 0.07969 0.0
C744 C 0.2134 0.6554 0.09329 0.0
C745 C 0.18085 0.71954 0.081 0.0
N746 N 0.29557 0.71952 0.08643 0.0
N747 N 0.10212 0.65164 0.07362 0.0
H748 H 0.18747 0.78865 0.07942 0.0
H749 H 0.12826 0.74108 0.08124 0.0
H750 H 0.07729 0.61507 0.07244 0.0
H751 H 0.09063 0.67303 0.06561 0.0
H752 H 0.30942 0.69645 0.08774 0.0
H753 H 0.32142 0.75484 0.08236 0.0
H754 H 0.26329 0.63881 0.10854 0.0
H755 H 0.20409 0.59104 0.10788 0.0
C756 C 0.39491 0.57851 0.06969 0.0
C757 C 0.35934 0.54945 0.08596 0.0
C758 C 0.42212 0.55327 0.1112 0.0
C759 C 0.45774 0.58215 0.09491 0.0
N760 N 0.4796 0.63216 0.06141 0.0
N761 N 0.33996 0.52063 0.12458 0.0
C762 C 0.44461 0.59838 0.07515 0.0
C763 C 0.37333 0.5406 0.10753 0.0
N764 N 0.38119 0.58476 0.04852 0.0
N765 N 0.43469 0.53648 0.12981 0.0
H766 H 0.30405 0.5114 0.12248 0.0
H767 H 0.34865 0.51746 0.14134 0.0
H768 H 0.47028 0.54656 0.13353 0.0
H769 H 0.40974 0.51055 0.14083 0.0
H770 H 0.40505 0.60059 0.03499 0.0
H771 H 0.34527 0.57094 0.04388 0.0
H772 H 0.4725 0.64895 0.04804 0.0
H773 H 0.51621 0.64683 0.06464 0.0
C774 C 0.92282 0.54205 0.88017 0.0
C775 C 0.92211 0.5085 0.89616 0.0
C776 C 0.85494 0.50861 0.91626 0.0
C777 C 0.86221 0.54861 0.90295 0.0
N778 N 0.90377 0.60468 0.87245 0.0
N779 N 0.86925 0.44169 0.92007 0.0
C780 C 0.89599 0.56536 0.88479 0.0
C781 C 0.88284 0.48634 0.91164 0.0
N782 N 0.94511 0.54809 0.8596 0.0
N783 N 0.82212 0.49258 0.93364 0.0
H784 H 0.88418 0.42141 0.91414 0.0
H785 H 0.83884 0.42182 0.93014 0.0
H786 H 0.79931 0.5063 0.93681 0.0
H787 H 0.81949 0.46775 0.94576 0.0
H788 H 0.94371 0.56928 0.84656 0.0
H789 H 0.95825 0.52595 0.85417 0.0
H790 H 0.93199 0.62204 0.86087 0.0
H791 H 0.88433 0.62232 0.87502 0.0
C792 C 0.50342 0.35789 0.91539 0.0
C793 C 0.53794 0.34309 0.91794 0.0
C794 C 0.60275 0.42612 0.91058 0.0
C795 C 0.56842 0.44172 0.91076 0.0
N796 N 0.48694 0.42306 0.91869 0.0
N797 N 0.6211 0.36395 0.92104 0.0
C798 C 0.51894 0.40773 0.91455 0.0
C799 C 0.58788 0.37746 0.91637 0.0
N800 N 0.45567 0.32429 0.91321 0.0
N801 N 0.6491 0.45718 0.904 0.0
H802 H 0.61156 0.32871 0.92521 0.0
H803 H 0.65783 0.38831 0.92258 0.0
H804 H 0.66091 0.49256 0.89911 0.0
H805 H 0.67462 0.44671 0.90134 0.0
H806 H 0.42956 0.33305 0.90885 0.0
H807 H 0.44275 0.28732 0.9135 0.0
H808 H 0.45156 0.4002 0.92392 0.0
H809 H 0.49713 0.45927 0.91951 0.0
C810 C 0.66303 0.20711 0.90518 0.0
C811 C 0.64754 0.15719 0.90568 0.0
C812 C 0.73157 0.17674 0.91014 0.0
C813 C 0.74625 0.2261 0.91259 0.0
N814 N 0.72556 0.2885 0.91478 0.0
N815 N 0.66661 0.09478 0.91363 0.0
C816 C 0.71188 0.24146 0.91065 0.0
C817 C 0.68171 0.14203 0.90934 0.0
N818 N 0.63139 0.22171 0.89889 0.0
N819 N 0.76536 0.16293 0.90823 0.0
H820 H 0.63051 0.06829 0.91436 0.0
H821 H 0.68966 0.08268 0.91894 0.0
H822 H 0.80232 0.18727 0.90869 0.0
H823 H 0.75682 0.12803 0.90395 0.0
H824 H 0.64142 0.25753 0.89609 0.0
H825 H 0.59571 0.19756 0.89448 0.0
H826 H 0.70134 0.30098 0.91609 0.0
H827 H 0.76099 0.31459 0.91857 0.0
C828 C 0.26743 0.24007 0.41474 0.0
C829 C 0.23359 0.19046 0.41202 0.0
C830 C 0.16736 0.20746 0.41604 0.0
C831 C 0.20148 0.25752 0.41645 0.0
N832 N 0.28342 0.32113 0.40976 0.0
N833 N 0.15141 0.12712 0.40655 0.0
C834 C 0.25136 0.27375 0.41399 0.0
C835 C 0.18346 0.17415 0.41161 0.0
N836 N 0.31482 0.25512 0.41891 0.0
N837 N 0.12003 0.19163 0.42083 0.0
H838 H 0.16207 0.10191 0.40323 0.0
H839 H 0.11488 0.11408 0.40377 0.0
H840 H 0.10713 0.21488 0.42458 0.0
H841 H 0.09435 0.15548 0.42303 0.0
H842 H 0.3398 0.29038 0.4235 0.0
H843 H 0.32832 0.23169 0.42007 0.0
H844 H 0.31936 0.33384 0.40552 0.0
H845 H 0.27305 0.34679 0.40779 0.0
C846 C 0.92302 0.03939 0.41474 0.0
C847 C 0.90554 0.07193 0.41209 0.0
C848 C 0.82261 1.00458 0.41435 0.0
C849 C 0.83982 0.97258 0.41931 0.0
N850 N 0.90671 0.96085 0.4278 0.0
N851 N 0.83907 0.08676 0.41442 0.0
C852 C 0.8902 0.99032 0.42046 0.0
C853 C 0.85543 0.05486 0.41342 0.0
N854 N 0.9707 0.055 0.41112 0.0
N855 N 0.77514 0.98686 0.40925 0.0
H856 H 0.86192 0.12399 0.41408 0.0
H857 H 0.80331 0.07641 0.41787 0.0
H858 H 0.75026 0.95019 0.40865 0.0
H859 H 0.76159 1.00814 0.40314 0.0
H860 H 0.98477 0.03204 0.41042 0.0
H861 H 0.99569 0.09056 0.40697 0.0
H862 H 0.94283 0.9729 0.43121 0.0
H863 H 0.88381 0.92505 0.43241 0.0
C864 C 0.09943 0.85332 0.42274 0.0
C865 C 0.13337 0.90234 0.42753 0.0
C866 C 0.06774 0.9208 0.4263 0.0
C867 C 0.0339 0.87087 0.42403 0.0
N868 N 1.01708 0.78887 0.42612 0.0
N869 N 0.14885 0.98192 0.43718 0.0
C870 C 0.04966 0.83695 0.42424 0.0
C871 C 0.11731 0.93603 0.43022 0.0
N872 N 0.11449 0.82282 0.41515 0.0
N873 N 0.05281 0.9536 0.42407 0.0
H874 H 0.18505 0.99397 0.44043 0.0
H875 H 0.13839 1.00679 0.44153 0.0
H876 H 1.01683 0.94359 0.42148 0.0
H877 H 0.07642 0.99058 0.42311 0.0
H878 H 0.09095 0.78805 0.40935 0.0
H879 H 0.15044 0.83418 0.41181 0.0
H880 H 1.02727 0.76311 0.42862 0.0
H881 H 0.98007 0.77527 0.4276 0.0
C882 C 0.54448 0.86975 0.26913 0.0
C883 C 0.52746 0.88259 0.24964 0.0
C884 C 0.56587 0.8502 0.22487 0.0
C885 C 0.58886 0.84408 0.24413 0.0
N886 N 0.60356 0.85206 0.28477 0.0
N887 N 0.52582 0.89011 0.20875 0.0
C888 C 0.57872 0.85437 0.26638 0.0
C889 C 0.53901 0.87401 0.22742 0.0
N890 N 0.52736 0.87162 0.29024 0.0
N891 N 0.56844 0.83173 0.20426 0.0
H892 H 0.50585 0.90753 0.20984 0.0
H893 H 0.53795 0.88971 0.19231 0.0
H894 H 0.58618 0.81231 0.20218 0.0
H895 H 0.54882 0.83101 0.19 0.0
H896 H 0.53433 0.8578 0.30486 0.0
H897 H 0.50268 0.88327 0.29286 0.0
H898 H 0.60198 0.86481 0.3009 0.0
H899 H 0.62866 0.84069 0.28369 0.0
C900 C 0.26953 0.76734 0.2495 0.0
C901 C 0.2505 0.78344 0.23196 0.0
C902 C 0.19602 0.69949 0.22032 0.0
C903 C 0.21554 0.6835 0.23764 0.0
N904 N 0.27897 0.70226 0.26465 0.0
N905 N 0.20454 0.76604 0.19733 0.0
C906 C 0.25507 0.71756 0.25087 0.0
C907 C 0.2167 0.74976 0.21625 0.0
N908 N 0.29876 0.79881 0.26583 0.0
N909 N 0.1561 0.6668 0.20857 0.0
H910 H 0.21893 0.80259 0.19392 0.0
H911 H 0.18391 0.74374 0.18402 0.0
H912 H 0.13996 0.62973 0.21093 0.0
H913 H 0.13677 0.67643 0.19768 0.0
H914 H 0.30902 0.78813 0.28052 0.0
H915 H 0.30996 0.83534 0.26564 0.0
H916 H 0.31102 0.72565 0.27297 0.0
H917 H 0.26918 0.6661 0.26605 0.0
C918 C 0.37473 0.56841 0.23049 0.0
C919 C 0.40718 0.55059 0.23164 0.0
C920 C 0.33973 0.46832 0.23348 0.0
C921 C 0.30694 0.48537 0.23034 0.0
N922 N 0.29389 0.55112 0.22126 0.0
N923 N 0.42075 0.48359 0.22786 0.0
C924 C 0.32461 0.53537 0.22751 0.0
C925 C 0.38966 0.50051 0.23099 0.0
N926 N 0.39149 0.61654 0.23302 0.0
N927 N 0.32374 0.42222 0.24049 0.0
H928 H 0.45776 0.50623 0.22572 0.0
H929 H 0.40916 0.44734 0.22502 0.0
H930 H 0.28791 0.39832 0.24438 0.0
H931 H 0.34675 0.40963 0.24515 0.0
H932 H 0.36897 0.63097 0.23481 0.0
H933 H 0.42795 0.64174 0.23503 0.0
H934 H 0.30537 0.58669 0.21692 0.0
H935 H 0.25734 0.52771 0.21831 0.0
C936 C 0.82551 0.545 0.74605 0.0
C937 C 0.84488 0.58068 0.76344 0.0
C938 C 0.89622 0.54919 0.77671 0.0
C939 C 0.8783 0.5148 0.75882 0.0
N940 N 0.81826 0.47167 0.73011 0.0
N941 N 0.888 0.60846 0.7989 0.0
C942 C 0.84021 0.50989 0.74474 0.0
C943 C 0.8768 0.57996 0.77995 0.0
N944 N 0.79558 0.54646 0.72992 0.0
N945 N 0.9331 0.55361 0.79009 0.0
H946 H 0.8745 0.63155 0.80171 0.0
H947 H 0.90695 0.60623 0.81277 0.0
H948 H 0.94682 0.53033 0.78896 0.0
H949 H 0.95203 0.58187 0.80146 0.0
H950 H 0.78512 0.52543 0.71522 0.0
H951 H 0.78327 0.57088 0.73039 0.0
H952 H 0.78707 0.46297 0.72106 0.0
H953 H 0.82908 0.44614 0.72839 0.0
C954 C 0.51653 0.39413 0.75564 0.0
C955 C 0.5662 0.40999 0.75322 0.0
C956 C 0.54904 0.32733 0.75991 0.0
C957 C 0.49884 0.31067 0.75905 0.0
N958 N 0.43551 0.32837 0.75061 0.0
N959 N 0.62965 0.39084 0.75008 0.0
C960 C 0.48269 0.34409 0.75557 0.0
C961 C 0.58254 0.37637 0.7546 0.0
N962 N 0.50156 0.42684 0.75842 0.0
N963 N 0.56473 0.29678 0.76652 0.0
H964 H 0.65513 0.42632 0.74607 0.0
H965 H 0.64253 0.36699 0.74843 0.0
H966 H 0.54125 0.26121 0.77128 0.0
H967 H 0.60082 0.3079 0.76948 0.0
H968 H 0.46622 0.41698 0.76263 0.0
H969 H 0.52528 0.46392 0.75889 0.0
H970 H 0.42314 0.35134 0.74557 0.0
H971 H 0.40966 0.29221 0.74896 0.0
C972 C 0.72824 0.25539 0.74612 0.0
C973 C 0.69301 0.21262 0.757 0.0
C974 C 0.75704 0.20768 0.77742 0.0
C975 C 0.79207 0.24517 0.76361 0.0
N976 N 0.81139 0.30413 0.73396 0.0
N977 N 0.6733 0.14626 0.78237 0.0
C978 C 0.77794 0.26955 0.748 0.0
C979 C 0.70723 0.18859 0.77273 0.0
N980 N 0.71408 0.28257 0.73412 0.0
N981 N 0.77164 0.19081 0.79526 0.0
H982 H 0.63643 0.13143 0.77966 0.0
H983 H 0.68174 0.12408 0.79181 0.0
H984 H 0.8079 0.20463 0.79928 0.0
H985 H 0.74816 0.16677 0.80736 0.0
H986 H 0.73801 0.3166 0.72771 0.0
H987 H 0.67798 0.2729 0.73231 0.0
H988 H 0.80256 0.31902 0.72037 0.0
H989 H 0.84809 0.31605 0.73494 0.0
C990 C 0.19779 0.17142 0.58471 0.0
C991 C 0.20549 0.21094 0.57093 0.0
C992 C 0.27405 0.21053 0.55262 0.0
C993 C 0.27152 0.17697 0.56906 0.0
N994 N 0.23175 0.1262 0.60157 0.0
N995 N 0.25215 0.27011 0.54237 0.0
C996 C 0.23308 0.15688 0.5851 0.0
C997 C 0.24368 0.23075 0.55486 0.0
N998 N 0.1565 0.14764 0.5973 0.0
N999 N 0.30479 0.22211 0.53453 0.0
H1000 H 0.23011 0.28531 0.54315 0.0
H1001 H 0.2828 0.28972 0.5324 0.0
H1002 H 0.3264 0.20673 0.53207 0.0
H1003 H 0.30528 0.24285 0.52081 0.0
H1004 H 0.14616 0.11553 0.60584 0.0
H1005 H 0.13028 0.15776 0.59754 0.0
H1006 H 0.20814 0.11504 0.61535 0.0
H1007 H 0.25661 0.11448 0.60255 0.0
C1008 C 0.85243 0.03504 0.60192 0.0
C1009 C 0.85377 1.00408 0.58498 0.0
C1010 C 0.8973 0.07463 0.56003 0.0
C1011 C 0.90426 0.10579 0.57863 0.0
N1012 N 0.89192 0.11401 0.61877 0.0
N1013 N 0.84479 0.99606 0.54416 0.0
C1014 C 0.88341 0.08555 0.60007 0.0
C1015 C 0.86732 0.02399 0.56272 0.0
N1016 N 0.81496 1.01773 0.61694 0.0
N1017 N 0.92038 0.09324 0.53987 0.0
H1018 H 0.81543 0.96127 0.54585 0.0
H1019 H 0.85003 1.00961 0.52762 0.0
H1020 H 0.94412 0.12997 0.53767 0.0
H1021 H 0.91987 0.07175 0.5264 0.0
H1022 H 0.8098 0.03972 0.62834 0.0
H1023 H 0.78516 0.9832 0.61521 0.0
H1024 H 0.88068 0.0996 0.63505 0.0
H1025 H 0.91328 0.15132 0.61848 0.0
C1026 C 0.07117 0.84355 0.57909 0.0
C1027 C 0.08569 0.8927 0.58217 0.0
C1028 C 1.00226 0.87367 0.57577 0.0
C1029 C 0.98701 0.8238 0.57586 0.0
N1030 N 1.00684 0.7616 0.58311 0.0
N1031 N 0.0646 0.9546 0.58603 0.0
C1032 C 1.02144 0.80876 0.57886 0.0
C1033 C 0.05112 0.90791 0.58114 0.0
N1034 N 0.10495 0.83001 0.57605 0.0
N1035 N 0.9705 0.88838 0.56988 0.0
H1036 H 0.10002 0.98062 0.58988 0.0
H1037 H 0.04015 0.96667 0.58799 0.0
H1038 H 0.93483 0.86437 0.56541 0.0
H1039 H 0.98056 0.9243 0.56738 0.0
H1040 H 0.09615 0.79522 0.57137 0.0
H1041 H 0.14188 0.85451 0.57589 0.0
H1042 H 1.03045 0.74975 0.58779 0.0
H1043 H 0.97087 0.73509 0.58458 0.0
C1044 C 0.52932 0.99373 0.01107 0.0
C1045 C 0.54679 0.04016 0.02072 0.0
C1046 C 0.57245 0.07567 0.98293 0.0
C1047 C 0.544 0.02946 0.97309 0.0
N1048 N 0.50002 0.94359 0.9771 0.0
N1049 N 0.58811 0.12616 0.01632 0.0
C1050 C 0.52447 0.98803 0.98697 0.0
C1051 C 0.57011 0.08155 0.00682 0.0
N1052 N 0.5178 0.95553 0.02502 0.0
N1053 N 0.602 0.11349 0.96933 0.0
H1054 H 0.58861 0.1314 0.03391 0.0
H1055 H 0.6005 0.15749 0.00677 0.0
H1056 H 0.60673 0.10837 0.9522 0.0
H1057 H 0.6259 0.14783 0.97547 0.0
H1058 H 0.50736 0.92105 0.01917 0.0
H1059 H 0.52407 0.95998 0.04251 0.0
H1060 H 0.47995 0.91184 0.98622 0.0
H1061 H 0.49903 0.93901 0.95944 0.0
C1062 C 0.09882 0.56525 0.98563 0.0
C1063 C 0.05664 0.54501 0.97222 0.0
C1064 C 1.00626 0.52113 0.00657 0.0
C1065 C 0.04837 0.53701 0.01992 0.0
N1066 N 0.13395 0.59006 0.02329 0.0
N1067 N 0.97263 0.5196 0.96924 0.0
C1068 C 0.09452 0.56458 0.00974 0.0
C1069 C 1.01107 0.52851 0.98256 0.0
N1070 N 0.14263 0.58283 0.97529 0.0
N1071 N 0.96191 0.49669 0.01657 0.0
H1072 H 0.97627 0.52643 0.95176 0.0
H1073 H 0.93884 0.51046 0.97564 0.0
H1074 H 0.95721 0.49288 0.03416 0.0
H1075 H 0.92982 0.47882 0.00745 0.0
H1076 H 0.17441 0.59278 0.9841 0.0
H1077 H 0.14662 0.58571 0.95759 0.0
H1078 H 0.16825 0.61367 0.01702 0.0
H1079 H 0.13108 0.59121 0.04096 0.0
C1080 C 0.53712 0.53014 0.98623 0.0
C1081 C 0.56296 0.57535 0.97481 0.0
C1082 C 0.60074 0.61357 0.01085 0.0
C1083 C 0.57117 0.57025 0.02282 0.0
N1084 N 0.50434 0.48884 0.02217 0.0
N1085 N 0.60824 0.6621 0.97833 0.0
C1086 C 0.53716 0.52885 0.01062 0.0
C1087 C 0.59057 0.61765 0.98791 0.0
N1088 N 0.51492 0.48831 0.97406 0.0
N1089 N 0.64062 0.65027 0.02099 0.0
H1090 H 0.6026 0.667 0.96133 0.0
H1091 H 0.62459 0.6938 0.98788 0.0
H1092 H 0.65187 0.64731 0.03722 0.0
H1093 H 0.66569 0.68094 0.01223 0.0
H1094 H 0.50049 0.45447 0.98156 0.0
H1095 H 0.51401 0.48741 0.95638 0.0
H1096 H 0.47562 0.45946 0.01418 0.0
H1097 H 0.50363 0.48667 0.03991 0.0
C1098 C 0.23195 0.42929 0.33864 0.0
C1099 C 0.22007 0.3887 0.35229 0.0
C1100 C 0.2002 0.3378 0.31816 0.0
C1101 C 0.20918 0.3779 0.30462 0.0
N1102 N 0.25108 0.46411 0.3009 0.0
N1103 N 0.20904 0.30917 0.35513 0.0
C1104 C 0.23078 0.42451 0.31457 0.0
C1105 C 0.20984 0.34453 0.342 0.0
N1106 N 0.24247 0.47184 0.34873 0.0
N1107 N 0.1801 0.29312 0.3085 0.0
H1108 H 0.21787 0.31449 0.37238 0.0
H1109 H 0.20499 0.27719 0.3486 0.0
H1110 H 0.17388 0.28744 0.29102 0.0
H1111 H 0.1675 0.26157 0.31788 0.0
H1112 H 0.24549 0.50117 0.33976 0.0
H1113 H 0.24608 0.47687 0.36636 0.0
H1114 H 0.27031 0.49927 0.30702 0.0
H1115 H 0.25381 0.4612 0.28339 0.0
C1116 C 0.71242 0.88005 0.34386 0.0
C1117 C 0.70382 0.83718 0.35533 0.0
C1118 C 0.72258 0.80972 0.3202 0.0
C1119 C 0.72334 0.8475 0.30754 0.0
N1120 N 0.71089 0.91594 0.30769 0.0
N1121 N 0.68101 0.7535 0.35019 0.0
C1122 C 0.71612 0.88222 0.31941 0.0
C1123 C 0.70205 0.79944 0.34202 0.0
N1124 N 0.71828 0.919 0.35587 0.0
N1125 N 0.74139 0.78323 0.31143 0.0
H1126 H 0.66339 0.74368 0.36587 0.0
H1127 H 0.67676 0.72469 0.3402 0.0
H1128 H 0.75919 0.79117 0.29577 0.0
H1129 H 0.74383 0.75712 0.32094 0.0
H1130 H 0.73072 0.95265 0.34844 0.0
H1131 H 0.71295 0.91859 0.37333 0.0
H1132 H 0.70008 0.93819 0.31546 0.0
H1133 H 0.71358 0.91934 0.29005 0.0
C1134 C 0.28656 0.92841 0.31787 0.0
C1135 C 0.24259 0.89985 0.30613 0.0
C1136 C 0.20364 0.8652 0.34292 0.0
C1137 C 0.24929 0.89037 0.35388 0.0
N1138 N 0.33565 0.93344 0.34988 0.0
N1139 N 0.16013 0.83502 0.30716 0.0
C1140 C 0.29116 0.91739 0.34059 0.0
C1141 C 0.20115 0.86635 0.31854 0.0
N1142 N 0.3234 0.96807 0.30773 0.0
N1143 N 0.16281 0.84176 0.3557 0.0
H1144 H 0.15717 0.8354 0.28947 0.0
H1145 H 0.1304 0.80672 0.31513 0.0
H1146 H 0.1639 0.83893 0.37332 0.0
H1147 H 0.12829 0.8274 0.34895 0.0
H1148 H 0.35477 0.99228 0.31633 0.0
H1149 H 0.31986 0.97997 0.29176 0.0
H1150 H 0.36726 0.95009 0.34027 0.0
H1151 H 0.34019 0.92532 0.36655 0.0
C1152 C 0.90295 0.75092 0.67638 0.0
C1153 C 0.88541 0.71001 0.69075 0.0
C1154 C 0.86839 0.65819 0.65704 0.0
C1155 C 0.88406 0.69893 0.64297 0.0
N1156 N 0.93656 0.78417 0.63941 0.0
N1157 N 0.86958 0.62867 0.69492 0.0
C1158 C 0.90834 0.74542 0.65276 0.0
C1159 C 0.87431 0.66486 0.68107 0.0
N1160 N 0.91075 0.79397 0.6846 0.0
N1161 N 0.84621 0.61332 0.64757 0.0
H1162 H 0.87588 0.63366 0.71244 0.0
H1163 H 0.86469 0.59605 0.6888 0.0
H1164 H 0.84333 0.608 0.62994 0.0
H1165 H 0.82911 0.58183 0.65717 0.0
H1166 H 0.91852 0.82314 0.67412 0.0
H1167 H 0.90526 0.79926 0.70153 0.0
H1168 H 0.95751 0.81894 0.64583 0.0
H1169 H 0.94406 0.77969 0.6226 0.0
C1170 C 0.43891 0.23676 0.65571 0.0
C1171 C 0.39756 0.21595 0.64156 0.0
C1172 C 0.34507 0.1957 0.67511 0.0
C1173 C 0.38586 0.21127 0.68916 0.0
N1174 N 0.47072 0.26526 0.69363 0.0
N1175 N 0.3152 0.19637 0.63722 0.0
C1176 C 0.43265 0.23803 0.67966 0.0
C1177 C 0.35186 0.20263 0.65118 0.0
N1178 N 0.48361 0.25299 0.64664 0.0
N1179 N 0.30004 0.17218 0.68446 0.0
H1180 H 0.32049 0.20308 0.61974 0.0
H1181 H 0.28184 0.18973 0.64317 0.0
H1182 H 0.29445 0.16843 0.70205 0.0
H1183 H 0.26863 0.15491 0.6748 0.0
H1184 H 0.51397 0.26205 0.65648 0.0
H1185 H 0.49028 0.25644 0.6292 0.0
H1186 H 0.50556 0.28827 0.68779 0.0
H1187 H 0.46562 0.26931 0.71085 0.0
C1188 C 0.93835 0.28636 0.6536 0.0
C1189 C 0.9053 0.24561 0.64075 0.0
C1190 C 0.8719 0.20169 0.67677 0.0
C1191 C 0.91061 0.23987 0.6888 0.0
N1192 N 0.98669 0.31434 0.68748 0.0
N1193 N 0.84004 0.16286 0.64029 0.0
C1194 C 0.9454 0.28102 0.67686 0.0
C1195 C 0.87142 0.20281 0.65236 0.0
N1196 N 0.96335 0.33059 0.64351 0.0
N1197 N 0.83509 0.16518 0.68864 0.0
H1198 H 0.83701 0.16235 0.62264 0.0
H1199 H 0.81873 0.12922 0.64771 0.0
H1200 H 0.83505 0.16294 0.70638 0.0
H1201 H 0.80323 0.13908 0.68109 0.0
H1202 H 0.984 0.36226 0.6527 0.0
H1203 H 0.95967 0.33629 0.62635 0.0
H1204 H 1.01547 0.34247 0.67889 0.0
H1205 H 0.99455 0.3107 0.70429 0.0
C1206 C 0.35323 0.93377 0.16984 0.0
C1207 C 0.33181 0.9623 0.17444 0.0
C1208 C 0.39329 0.02662 0.14998 0.0
C1209 C 0.41723 0.99978 0.14727 0.0
N1210 N 0.42488 0.93193 0.1582 0.0
N1211 N 0.33335 0.03762 0.17017 0.0
C1212 C 0.39843 0.95452 0.15828 0.0
C1213 C 0.35249 1.00922 0.1648 0.0
N1214 N 0.33026 0.88656 0.17625 0.0
N1215 N 0.40811 0.06773 0.13765 0.0
H1216 H 0.30117 0.02476 0.17921 0.0
H1217 H 0.35027 0.07426 0.16655 0.0
H1218 H 0.43906 0.08309 0.12766 0.0
H1219 H 0.38851 0.08542 0.13641 0.0
H1220 H 0.34176 0.86269 0.17155 0.0
H1221 H 0.2967 0.86971 0.18407 0.0
H1222 H 0.41612 0.90135 0.16776 0.0
H1223 H 0.45855 0.94699 0.1504 0.0
C1224 C 0.12716 0.47398 0.15212 0.0
C1225 C 0.07667 0.44748 0.14837 0.0
C1226 C 0.07039 0.38372 0.17395 0.0
C1227 C 0.1214 0.4088 0.17643 0.0
N1228 N 0.19884 0.4728 0.16434 0.0
N1229 N 1.00069 0.37436 0.15329 0.0
C1230 C 0.14983 0.45253 0.16443 0.0
C1231 C 0.04851 0.40148 0.15857 0.0
N1232 N 0.15355 0.51984 0.14393 0.0
N1233 N 0.04247 0.34426 0.18709 0.0
H1234 H 0.98265 0.38757 0.14357 0.0
H1235 H 0.9795 0.33814 0.15753 0.0
H1236 H 0.05665 0.32866 0.19772 0.0
H1237 H 1.00521 0.32839 0.1884 0.0
H1238 H 0.18962 0.54289 0.14794 0.0
H1239 H 0.13829 0.53655 0.13476 0.0
H1240 H 0.2218 0.50202 0.15421 0.0
H1241 H 0.21626 0.45722 0.17274 0.0
C1242 C 0.6221 0.72655 0.16651 0.0
C1243 C 0.67039 0.75227 0.17456 0.0
C1244 C 0.68251 0.68714 0.15998 0.0
C1245 C 0.63366 0.66055 0.15265 0.0
N1246 N 0.55427 0.6511 0.15371 0.0
N1247 N 0.75043 0.76427 0.1709 0.0
C1248 C 0.60263 0.67916 0.15727 0.0
C1249 C 0.70181 0.73461 0.16914 0.0
N1250 N 0.59584 0.74932 0.1664 0.0
N1251 N 0.71022 0.66594 0.15874 0.0
H1252 H 0.76627 0.8003 0.17551 0.0
H1253 H 0.77536 0.75519 0.16487 0.0
H1254 H 0.69673 0.6309 0.15269 0.0
H1255 H 0.74446 0.68079 0.16587 0.0
H1256 H 0.56203 0.73521 0.1589 0.0
H1257 H 0.61092 0.78529 0.17127 0.0
H1258 H 0.5292 0.66085 0.15868 0.0
H1259 H 0.53835 0.61551 0.14841 0.0
C1260 C 0.03377 0.3846 0.84505 0.0
C1261 C 1.00752 0.4093 0.84706 0.0
C1262 C 0.94059 0.34406 0.82547 0.0
C1263 C 0.96881 0.32216 0.82128 0.0
N1264 N 0.04356 0.32275 0.82611 0.0
N1265 N 0.93975 0.41689 0.8357 0.0
C1266 C 1.01573 0.34282 0.83092 0.0
C1267 C 0.96202 0.39015 0.83619 0.0
N1268 N 0.07497 0.39974 0.85739 0.0
N1269 N 0.89302 0.32056 0.81962 0.0
H1270 H 0.95509 0.45108 0.84301 0.0
H1271 H 0.909 0.40761 0.82612 0.0
H1272 H 0.87553 0.28585 0.81297 0.0
H1273 H 0.86956 0.33287 0.82387 0.0
H1274 H 0.09216 0.37977 0.85919 0.0
H1275 H 0.09092 0.43143 0.86682 0.0
H1276 H 0.08022 0.3394 0.82971 0.0
H1277 H 1.03014 0.28996 0.81754 0.0
C1278 C 0.69282 0.59519 0.83387 0.0
C1279 C 0.67109 0.62055 0.84331 0.0
C1280 C 0.73617 0.6957 0.82651 0.0
C1281 C 0.75852 0.67053 0.81758 0.0
N1282 N 0.76213 0.59747 0.81593 0.0
N1283 N 0.66636 0.69318 0.844 0.0
C1284 C 0.73795 0.62056 0.82218 0.0
C1285 C 0.6911 0.67033 0.83832 0.0
N1286 N 0.66845 0.54601 0.83506 0.0
N1287 N 0.75973 0.74476 0.82462 0.0
H1288 H 0.63362 0.67662 0.85257 0.0
H1289 H 0.67582 0.72752 0.8384 0.0
H1290 H 0.79326 0.76431 0.81671 0.0
H1291 H 0.74885 0.76658 0.83272 0.0
H1292 H 0.67901 0.52425 0.82667 0.0
H1293 H 0.63447 0.52649 0.84257 0.0
H1294 H 0.75193 0.56245 0.82069 0.0
H1295 H 0.79535 0.61482 0.80784 0.0
C1296 C 0.47109 0.15651 0.82726 0.0
C1297 C 0.4258 0.12677 0.81672 0.0
C1298 C 0.42006 0.05666 0.83705 0.0
C1299 C 0.46718 0.08622 0.8461 0.0
N1300 N 0.542 0.16154 0.84445 0.0
N1301 N 0.36029 0.04661 0.80892 0.0
C1302 C 0.49394 0.13535 0.83953 0.0
C1303 C 0.40101 0.07629 0.82094 0.0
N1304 N 0.49195 0.20543 0.82593 0.0
N1305 N 0.39267 1.01021 0.84426 0.0
H1306 H 0.344 0.0592 0.79775 0.0
H1307 H 0.34421 1.00928 0.80895 0.0
H1308 H 0.40562 0.99344 0.85492 0.0
H1309 H 0.35614 0.98889 0.84064 0.0
H1310 H 0.52269 0.22914 0.83504 0.0
H1311 H 0.47554 0.22216 0.81763 0.0
H1312 H 0.56455 0.19622 0.83833 0.0
H1313 H 0.56034 0.14651 0.85249 0.0
C1314 C 1.03047 0.33015 0.5021 0.0
C1315 C 1.00853 0.28062 0.5082 0.0
C1316 C 0.07265 0.27565 0.48753 0.0
C1317 C 0.09208 0.32355 0.47955 0.0
N1318 N 0.08233 0.39305 0.47566 0.0
N1319 N 1.00165 0.20377 0.50082 0.0
C1320 C 0.0691 0.35001 0.48587 0.0
C1321 C 1.02763 0.25274 0.49908 0.0
N1322 N 1.01593 0.35898 0.51228 0.0
N1323 N 0.09776 0.2521 0.48436 0.0
H1324 H 0.96716 0.18597 0.50788 0.0
H1325 H 1.01162 0.18106 0.49285 0.0
H1326 H 0.13157 0.26831 0.47658 0.0
H1327 H 0.08747 0.21871 0.49161 0.0
H1328 H 0.03442 0.39627 0.51048 0.0
H1329 H 0.98733 0.34628 0.5237 0.0
H1330 H 0.06299 0.41095 0.47744 0.0
H1331 H 0.11035 0.40915 0.46395 0.0
C1332 C 0.73989 0.74943 0.49549 0.0
C1333 C 0.76884 0.79811 0.48817 0.0
C1334 C 0.83837 0.8021 0.50797 0.0
C1335 C 0.80893 0.75512 0.51684 0.0
N1336 N 0.72888 0.68758 0.52253 0.0
N1337 N 0.842 0.87411 0.49315 0.0
C1338 C 0.75889 0.72967 0.51154 0.0
C1339 C 0.817 0.82534 0.4962 0.0
N1340 N 0.69492 0.72116 0.48665 0.0
N1341 N 0.88724 0.82438 0.51049 0.0
H1342 H 0.82664 0.8926 0.48557 0.0
H1343 H 0.87563 0.89658 0.5004 0.0
H1344 H 0.90415 0.80792 0.51858 0.0
H1345 H 0.91102 0.85672 0.50251 0.0
H1346 H 0.67482 0.68414 0.48926 0.0
H1347 H 0.67851 0.73374 0.47557 0.0
H1348 H 0.69147 0.67075 0.52177 0.0
H1349 H 0.74115 0.67108 0.53376 0.0
C1350 C 0.36674 1.01618 0.4942 0.0
C1351 C 0.31915 0.99627 0.48557 0.0
C1352 C 0.30998 0.05741 0.50703 0.0
C1353 C 0.35855 0.07885 0.51447 0.0
N1354 N 0.43578 0.08439 0.51187 0.0
N1355 N 0.24801 1.00288 0.48086 0.0
C1356 C 0.38766 0.05986 0.50698 0.0
C1357 C 0.29133 1.01811 0.49127 0.0
N1358 N 0.39153 0.99244 0.49053 0.0
N1359 N 0.28113 0.07366 0.5156 0.0
H1360 H 0.2323 0.97344 0.46989 0.0
H1361 H 0.22893 0.02114 0.48199 0.0
H1362 H 0.29436 0.1044 0.52574 0.0
H1363 H 0.24389 0.05557 0.51351 0.0
H1364 H 0.42462 1.00233 0.498 0.0
H1365 H 0.37681 0.95993 0.48163 0.0
H1366 H 0.46031 0.07532 0.50529 0.0
H1367 H 0.45194 0.1168 0.52091 0.0
C1368 C 0.53183 0.24228 0.10442 0.0
C1369 C 0.50554 0.25707 0.09054 0.0
C1370 C 0.46979 0.17908 0.07018 0.0
C1371 C 0.49293 0.16292 0.08551 0.0
N1372 N 0.53631 0.17581 0.12082 0.0
N1373 N 0.44403 0.23708 0.06222 0.0
C1374 C 0.52127 0.19368 0.10361 0.0
C1375 C 0.47293 0.22473 0.07395 0.0
N1376 N 0.56808 0.27509 0.11802 0.0
N1377 N 0.44637 0.15173 0.05157 0.0
H1378 H 0.44581 0.27018 0.06434 0.0
H1379 H 0.41598 0.21332 0.05171 0.0
H1380 H 0.44317 0.11828 0.04842 0.0
H1381 H 0.43327 0.16367 0.03841 0.0
H1382 H 0.59205 0.26769 0.12657 0.0
H1383 H 0.57732 0.31116 0.119 0.0
H1384 H 0.55268 0.19495 0.13564 0.0
H1385 H 0.52755 0.13999 0.1215 0.0
C1386 C 0.87067 0.27901 0.09881 0.0
C1387 C 0.8312 0.27369 0.08557 0.0
C1388 C 0.88625 0.34752 0.06442 0.0
C1389 C 0.92557 0.35299 0.07779 0.0
N1390 N 0.95745 0.31783 0.10359 0.0
N1391 N 0.80283 0.29669 0.05265 0.0
C1392 C 0.91845 0.31653 0.09357 0.0
C1393 C 0.83952 0.30609 0.06736 0.0
N1394 N 0.86223 0.24977 0.11722 0.0
N1395 N 0.89363 0.38272 0.04922 0.0
H1396 H 0.76836 0.26686 0.05439 0.0
H1397 H 0.80724 0.31606 0.03778 0.0
H1398 H 0.92798 0.41116 0.04545 0.0
H1399 H 0.86604 0.38471 0.04094 0.0
H1400 H 0.88839 0.25533 0.12922 0.0
H1401 H 0.82802 0.22183 0.12158 0.0
H1402 H 0.95535 0.29015 0.11363 0.0
H1403 H 0.9927 0.34456 0.10008 0.0
C1404 C 0.76937 0.63051 0.09239 0.0
C1405 C 0.72755 0.59732 0.08012 0.0
C1406 C 0.76323 0.54619 0.07323 0.0
C1407 C 0.80503 0.57933 0.08549 0.0
N1408 N 0.85314 0.65861 0.10153 0.0
N1409 N 0.69009 0.53104 0.05383 0.0
C1410 C 0.80975 0.62336 0.09335 0.0
C1411 C 0.72643 0.55761 0.06886 0.0
N1412 N 0.7696 0.66723 0.1043 0.0
N1413 N 0.7575 0.50271 0.06678 0.0
H1414 H 0.66329 0.53929 0.05006 0.0
H1415 H 0.68917 0.50421 0.04348 0.0
H1416 H 0.78363 0.49308 0.06955 0.0
H1417 H 0.72551 0.47479 0.06017 0.0
H1418 H 0.79619 0.68849 0.11605 0.0
H1419 H 0.74171 0.67483 0.10348 0.0
H1420 H 0.86041 0.69327 0.10541 0.0
H1421 H 0.88337 0.65455 0.10243 0.0
C1422 C 0.24962 0.52035 0.88789 0.0
C1423 C 0.26479 0.49613 0.90295 0.0
C1424 C 0.18772 0.4638 0.92385 0.0
C1425 C 0.17133 0.48532 0.90771 0.0
N1426 N 0.18316 0.52483 0.87135 0.0
N1427 N 0.2463 0.43961 0.93351 0.0
C1428 C 0.20139 0.51103 0.88891 0.0
C1429 C 0.23318 0.46626 0.92043 0.0
N1430 N 0.28178 0.55342 0.87286 0.0
N1431 N 0.16084 0.44279 0.94292 0.0
H1432 H 0.27961 0.44158 0.93182 0.0
H1433 H 0.22315 0.41327 0.94489 0.0
H1434 H 0.1275 0.44009 0.94581 0.0
H1435 H 0.17292 0.43108 0.95658 0.0
H1436 H 0.27465 0.57652 0.86339 0.0
H1437 H 0.31726 0.56094 0.87128 0.0
H1438 H 0.2013 0.5387 0.85603 0.0
H1439 H 0.14784 0.51774 0.87105 0.0
C1440 C 0.55824 0.76149 0.91314 0.0
C1441 C 0.59408 0.80335 0.90202 0.0
C1442 C 0.64307 0.76438 0.89689 0.0
C1443 C 0.60767 0.72265 0.90879 0.0
N1444 N 0.53905 0.68987 0.93441 0.0
N1445 N 0.67571 0.84938 0.88861 0.0
C1446 C 0.56774 0.72399 0.91887 0.0
C1447 C 0.63814 0.80625 0.89563 0.0
N1448 N 0.51393 0.75622 0.91731 0.0
N1449 N 0.67994 0.76376 0.88555 0.0
H1450 H 0.67325 0.88047 0.88743 0.0
H1451 H 0.71046 0.85543 0.88613 0.0
H1452 H 0.68641 0.73523 0.88592 0.0
H1453 H 0.70248 0.79059 0.8742 0.0
H1454 H 0.48449 0.72397 0.92276 0.0
H1455 H 0.50518 0.78256 0.9134 0.0
H1456 H 0.51304 0.69223 0.94407 0.0
H1457 H 0.54431 0.66187 0.93951 0.0
C1458 C 0.32584 0.91025 0.89915 0.0
C1459 C 0.36537 0.91767 0.91313 0.0
C1460 C 0.32556 0.83009 0.91969 0.0
C1461 C 0.28639 0.82261 0.90569 0.0
N1462 N 0.24287 0.85639 0.88761 0.0
N1463 N 0.39251 0.88615 0.94319 0.0
C1464 C 0.28457 0.86304 0.89719 0.0
C1465 C 0.36187 0.87792 0.92543 0.0
N1466 N 0.3281 0.94733 0.88685 0.0
N1467 N 0.32941 0.79168 0.92678 0.0
H1468 H 0.41724 0.92088 0.94869 0.0
H1469 H 0.38941 0.85914 0.95407 0.0
H1470 H 0.30385 0.75613 0.92291 0.0
H1471 H 0.35995 0.79533 0.93486 0.0
H1472 H 0.30348 0.94253 0.87413 0.0
H1473 H 0.35575 0.98279 0.88829 0.0
H1474 H 0.23712 0.88455 0.88333 0.0
H1475 H 0.21211 0.82253 0.88598 0.0
C1476 C 0.15023 0.56119 0.40813 0.0
C1477 C 0.18053 0.59146 0.42587 0.0
C1478 C 0.19117 0.52544 0.43976 0.0
C1479 C 0.16527 0.49675 0.42067 0.0
N1480 N 0.12437 0.48903 0.38521 0.0
N1481 N 0.23648 0.60514 0.45625 0.0
C1482 C 0.14563 0.51496 0.40449 0.0
C1483 C 0.20282 0.57428 0.44103 0.0
N1484 N 0.12515 0.57628 0.39507 0.0
N1485 N 0.20331 0.50545 0.4572 0.0
H1486 H 0.24611 0.64124 0.45779 0.0
H1487 H 0.25809 0.59623 0.46589 0.0
H1488 H 0.19474 0.46964 0.45716 0.0
H1489 H 0.21739 0.52278 0.47267 0.0
H1490 H 0.09864 0.55419 0.38348 0.0
H1491 H 0.12849 0.61012 0.397 0.0
H1492 H 0.11414 0.50245 0.37152 0.0
H1493 H 0.11981 0.45495 0.38226 0.0
C1494 C 0.56256 0.68672 0.40798 0.0
C1495 C 0.60219 0.68876 0.41999 0.0
C1496 C 0.54667 0.60633 0.43405 0.0
C1497 C 0.50656 0.60895 0.42565 0.0
N1498 N 0.47631 0.6544 0.40627 0.0
N1499 N 0.63059 0.64862 0.44524 0.0
C1500 C 0.51455 0.64971 0.41289 0.0
C1501 C 0.59407 0.64773 0.43297 0.0
N1502 N 0.57084 0.71974 0.39135 0.0
N1503 N 0.5395 0.56378 0.44274 0.0
H1504 H 0.66618 0.67619 0.44434 0.0
H1505 H 0.62516 0.62285 0.45742 0.0
H1506 H 0.50547 0.53308 0.44385 0.0
H1507 H 0.56744 0.55753 0.44682 0.0
H1508 H 0.54407 0.7172 0.38045 0.0
H1509 H 0.60527 0.74674 0.38676 0.0
H1510 H 0.48012 0.68599 0.39938 0.0
H1511 H 0.44059 0.62828 0.40943 0.0
C1512 C 0.49422 0.96462 0.4258 0.0
C1513 C 0.48975 0.91936 0.42059 0.0
C1514 C 0.40845 0.89138 0.40563 0.0
C1515 C 0.40998 0.93354 0.41426 0.0
N1516 N 0.45348 1.00899 0.43456 0.0
N1517 N 0.44131 0.83796 0.40692 0.0
C1518 C 0.45292 0.97026 0.42455 0.0
C1519 C 0.44672 0.88246 0.41057 0.0
N1520 N 0.53816 1.00236 0.43182 0.0
N1521 N 0.37018 0.85982 0.39261 0.0
H1522 H 0.46851 0.83002 0.41011 0.0
H1523 H 0.40876 0.80789 0.40232 0.0
H1524 H 0.34134 0.86496 0.38886 0.0
H1525 H 0.36898 0.83101 0.38386 0.0
H1526 H 0.54501 0.03751 0.4336 0.0
H1527 H 0.56898 0.99934 0.43294 0.0
H1528 H 0.48146 0.03349 0.4449 0.0
H1529 H 0.42456 1.01506 0.4339 0.0
C1530 C 0.84399 0.78318 0.22714 0.0
C1531 C 0.83418 0.81215 0.24221 0.0
C1532 C 0.92008 0.85757 0.25276 0.0
C1533 C 0.92954 0.82815 0.2381 0.0
N1534 N 0.89864 0.75488 0.21638 0.0
N1535 N 0.86068 0.86603 0.27457 0.0
C1536 C 0.89081 0.78832 0.22694 0.0
C1537 C 0.87162 0.84587 0.25667 0.0
N1538 N 0.80998 0.75277 0.21198 0.0
N1539 N 0.95744 0.89803 0.2622 0.0
H1540 H 0.82553 0.85733 0.27844 0.0
H1541 H 0.88562 0.88718 0.28697 0.0
H1542 H 0.99344 0.90799 0.25977 0.0
H1543 H 0.95289 0.92383 0.27085 0.0
H1544 H 0.81747 0.73594 0.19871 0.0
H1545 H 0.77503 0.74662 0.21142 0.0
H1546 H 0.871 0.72233 0.21008 0.0
H1547 H 0.93236 0.75747 0.21593 0.0
C1548 C 0.30452 0.09656 0.23208 0.0
C1549 C 0.27555 0.05864 0.24733 0.0
C1550 C 0.23361 0.1019 0.25892 0.0
C1551 C 0.25738 0.13581 0.2412 0.0
N1552 N 0.3143 0.16501 0.21016 0.0
N1553 N 0.21319 0.0248 0.27576 0.0
C1554 C 0.29307 0.13343 0.22778 0.0
C1555 C 0.24062 0.06155 0.26109 0.0
N1556 N 0.3428 0.09706 0.22159 0.0
N1557 N 0.20473 0.10871 0.2738 0.0
H1558 H 0.21985 0.9967 0.27888 0.0
H1559 H 0.18301 0.02111 0.28422 0.0
H1560 H 0.19867 0.13763 0.27251 0.0
H1561 H 0.18975 0.08812 0.28838 0.0
H1562 H 0.36806 0.12563 0.2118 0.0
H1563 H 0.35196 0.07064 0.22438 0.0
H1564 H 0.33615 0.16184 0.19798 0.0
H1565 H 0.30761 0.19297 0.20676 0.0
C1566 C 0.94571 0.19121 0.25335 0.0
C1567 C 0.94595 0.15779 0.23744 0.0
C1568 C 1.02506 0.22027 0.22367 0.0
C1569 C 1.02771 0.25237 0.24115 0.0
N1570 N 0.99213 0.26647 0.27426 0.0
N1571 N 0.99011 0.13804 0.21047 0.0
C1572 C 0.98827 0.2374 0.2564 0.0
C1573 C 0.98692 0.17167 0.22353 0.0
N1574 N 0.90455 0.1791 0.26523 0.0
N1575 N 0.0579 0.2368 0.20637 0.0
H1576 H 0.96296 0.10202 0.20973 0.0
H1577 H 1.02154 0.14482 0.20209 0.0
H1578 H 0.08524 0.27241 0.20531 0.0
H1579 H 0.05488 0.21676 0.19184 0.0
H1580 H 0.90009 0.2033 0.2753 0.0
H1581 H 0.87351 0.14541 0.26376 0.0
H1582 H 0.96705 0.25577 0.28742 0.0
H1583 H 1.02228 0.30047 0.27669 0.0
C1584 C 0.88071 0.87843 0.74286 0.0
C1585 C 0.8348 0.83628 0.74585 0.0
C1586 C 0.79849 0.88767 0.74981 0.0
C1587 C 0.84511 0.92921 0.75028 0.0
N1588 N 0.93135 0.96418 0.74932 0.0
N1589 N 0.75035 0.80132 0.75504 0.0
C1590 C 0.8864 0.92466 0.74708 0.0
C1591 C 0.79355 0.84093 0.74973 0.0
N1592 N 0.9191 0.87429 0.73588 0.0
N1593 N 0.75886 0.89299 0.74938 0.0
H1594 H 0.745 0.76658 0.75558 0.0
H1595 H 0.72064 0.80327 0.76075 0.0
H1596 H 0.76133 0.92664 0.74959 0.0
H1597 H 0.72404 0.86449 0.7467 0.0
H1598 H 0.95187 0.90343 0.73077 0.0
H1599 H 0.91707 0.84126 0.73338 0.0
H1600 H 0.96274 0.96227 0.75016 0.0
H1601 H 0.93727 0.9988 0.75209 0.0
C1602 C 0.25805 0.99209 0.76331 0.0
C1603 C 0.26381 0.0298 0.74869 0.0
C1604 C 0.17626 0.99775 0.7512 0.0
C1605 C 0.16965 0.95766 0.76435 0.0
N1606 N 0.21163 0.94432 0.79505 0.0
N1607 N 0.22389 0.05603 0.72247 0.0
C1608 C 0.2125 0.96167 0.77377 0.0
C1609 C 0.22142 0.02843 0.74062 0.0
N1610 N 0.29498 0.98345 0.76679 0.0
N1611 N 0.14348 1.01279 0.75253 0.0
H1612 H 0.2556 0.07606 0.71316 0.0
H1613 H 0.19326 0.05388 0.71515 0.0
H1614 H 0.11601 0.99886 0.76469 0.0
H1615 H 0.14864 0.04413 0.74466 0.0
H1616 H 0.2906 0.9541 0.7763 0.0
H1617 H 0.32705 1.00075 0.75763 0.0
H1618 H 0.24272 0.94995 0.80341 0.0
H1619 H 0.18151 0.93196 0.80561 0.0
C1620 C 0.10518 0.22198 0.73979 0.0
C1621 C 0.14482 0.25265 0.75393 0.0
C1622 C 0.1073 0.30192 0.76192 0.0
C1623 C 0.0674 0.2709 0.74797 0.0
N1624 N 0.03453 0.20991 0.71892 0.0
N1625 N 0.18947 0.32825 0.77368 0.0
C1626 C 0.06855 0.23372 0.73535 0.0
C1627 C 0.14772 0.29478 0.76342 0.0
N1628 N 0.10121 0.18032 0.73154 0.0
N1629 N 0.10554 0.33648 0.77481 0.0
H1630 H 0.21955 0.32406 0.77507 0.0
H1631 H 0.19588 0.36194 0.77894 0.0
H1632 H 0.07786 0.3443 0.77352 0.0
H1633 H 0.13019 0.35573 0.78764 0.0
H1634 H 0.07054 0.15366 0.7234 0.0
H1635 H 0.1274 0.17072 0.7342 0.0
H1636 H 0.03543 0.18532 0.70764 0.0
H1637 H 1.00799 0.21852 0.71512 0.0
C1638 C 0.5505 0.17697 0.5973 0.0
C1639 C 0.51081 0.13939 0.58559 0.0
C1640 C 0.5646 0.11313 0.56927 0.0
C1641 C 0.60523 0.15537 0.57795 0.0
N1642 N 0.63727 0.22917 0.59949 0.0
N1643 N 0.47898 0.07106 0.56047 0.0
C1644 C 0.59827 0.18743 0.59208 0.0
C1645 C 0.5175 0.10688 0.5718 0.0
N1646 N 0.54217 0.20258 0.61347 0.0
N1647 N 0.57111 0.07868 0.55889 0.0
H1648 H 0.44385 0.06395 0.5631 0.0
H1649 H 0.48188 0.04979 0.54787 0.0
H1650 H 0.60498 0.08209 0.55686 0.0
H1651 H 0.54294 0.0451 0.55401 0.0
H1652 H 0.56872 0.22795 0.62412 0.0
H1653 H 0.50738 0.19467 0.61772 0.0
H1654 H 0.63468 0.25659 0.60765 0.0
H1655 H 0.67268 0.2381 0.59607 0.0
C1656 C 0.91608 0.39272 0.5882 0.0
C1657 C 0.95322 0.39027 0.57587 0.0
C1658 C 0.97888 0.47102 0.55988 0.0
C1659 C 0.93844 0.4704 0.57023 0.0
N1660 N 0.86653 0.42955 0.59297 0.0
N1661 N 1.02699 0.43268 0.55409 0.0
C1662 C 0.90698 0.43128 0.58431 0.0
C1663 C 0.98693 0.43122 0.56301 0.0
N1664 N 0.89039 0.35879 0.6044 0.0
N1665 N 1.00839 0.50902 0.54619 0.0
H1666 H 0.03445 0.40492 0.55561 0.0
H1667 H 0.0552 0.46269 0.54636 0.0
H1668 H 1.00487 0.53943 0.54448 0.0
H1669 H 0.03516 0.51026 0.53574 0.0
H1670 H 0.86713 0.36143 0.61592 0.0
H1671 H 0.89561 0.33002 0.60796 0.0
H1672 H 0.83844 0.39917 0.6006 0.0
H1673 H 0.85914 0.45747 0.59111 0.0
C1674 C 0.66708 0.50667 0.55534 0.0
C1675 C 0.6262 0.49104 0.56962 0.0
C1676 C 0.66914 0.56771 0.59093 0.0
C1677 C 0.70857 0.58435 0.57556 0.0
N1678 N 0.73863 0.574 0.53952 0.0
N1679 N 0.58502 0.50946 0.59879 0.0
C1680 C 0.70554 0.55505 0.55671 0.0
C1681 C 0.62625 0.52247 0.58678 0.0
N1682 N 0.67034 0.47472 0.54104 0.0
N1683 N 0.67337 0.59411 0.60997 0.0
H1684 H 0.55339 0.47667 0.59626 0.0
H1685 H 0.581 0.53251 0.60991 0.0
H1686 H 0.70386 0.62735 0.61335 0.0
H1687 H 0.64823 0.58167 0.62315 0.0
H1688 H 0.70168 0.48274 0.53222 0.0
H1689 H 0.64352 0.43868 0.53967 0.0
H1690 H 0.73541 0.55608 0.52423 0.0
H1691 H 0.76641 0.60965 0.53947 0.0
loop_
_geom_bond_atom_site_label_1
_geom_bond_atom_site_label_2
_geom_bond_distance
_geom_bond_site_symmetry_2
_ccdc_geom_bond_type
Dy0 O3 2.307 1_565 S
Dy0 O5 2.395 . S
Dy0 O6 2.379 . S
Dy0 O8 2.339 . S
Dy0 O10 2.298 . S
Dy0 O14 2.275 . S
Dy0 C22 2.738 . S
Dy1 O4 2.298 . S
Dy1 O7 2.275 . S
Dy1 O9 2.307 1_545 S
Dy1 O11 2.395 . S
Dy1 O12 2.379 . S
Dy1 O15 2.339 . S
Dy1 C31 2.738 . S
C2 O14 1.254 1_545 S
C2 O15 1.259 . S
O3 Dy0 2.307 1_545 S
O3 C13 1.266 . S
O4 Dy1 2.298 . S
O4 C13 1.236 . S
O5 Dy0 2.395 . S
O5 C22 1.255 . S
O6 Dy0 2.379 . S
O6 C22 1.249 . S
O7 Dy1 2.275 . S
O7 C23 1.254 . S
O8 Dy0 2.339 . S
O8 C23 1.257 1_565 S
O9 Dy1 2.307 1_565 S
O9 C24 1.266 . S
O10 Dy0 2.298 . S
O10 C24 1.236 . S
O11 Dy1 2.395 . S
O11 C31 1.255 . S
O12 Dy1 2.379 . S
O12 C31 1.249 . S
C13 O3 1.266 . S
C13 O4 1.236 . S
O14 Dy0 2.275 . S
O14 C2 1.254 1_565 S
O15 Dy1 2.339 . S
O15 C2 1.259 . S
C16 C19 1.344 . S
C16 C20 1.328 . S
C16 C22 1.516 . S
C17 C18 1.304 . S
C17 C21 1.323 . S
C18 C17 1.304 . S
C18 C19 1.371 . S
C18 H32 0.930 . S
C19 C16 1.344 . S
C19 C18 1.371 . S
C19 H33 0.931 . S
C20 C16 1.328 . S
C20 C21 1.433 . S
C20 H34 0.931 . S
C21 C17 1.323 . S
C21 C20 1.433 . S
C21 H35 0.933 . S
C22 Dy0 2.738 . S
C22 O5 1.255 . S
C22 O6 1.249 . S
C22 C16 1.516 . S
C23 O7 1.254 . S
C23 O8 1.257 1_545 S
C24 O9 1.266 . S
C24 O10 1.236 . S
C25 C28 1.344 . S
C25 C29 1.328 . S
C25 C31 1.516 . S
C26 C27 1.304 . S
C26 C30 1.323 . S
C27 C26 1.304 . S
C27 C28 1.371 . S
C27 H36 0.930 . S
C28 C25 1.344 . S
C28 C27 1.371 . S
C28 H37 0.931 . S
C29 C25 1.328 . S
C29 C30 1.433 . S
C29 H38 0.931 . S
C30 C26 1.323 . S
C30 C29 1.433 . S
C30 H39 0.933 . S
C31 Dy1 2.738 . S
C31 O11 1.255 . S
C31 O12 1.249 . S
C31 C25 1.516 . S
H32 C18 0.930 . S
H33 C19 0.931 . S
H34 C20 0.931 . S
H35 C21 0.933 . S
H36 C27 0.930 . S
H37 C28 0.931 . S
H38 C29 0.931 . S
H39 C30 0.933 . S
Dy40 O43 2.307 1_455 S
Dy40 O45 2.395 . S
Dy40 O46 2.379 . S
Dy40 O48 2.339 . S
Dy40 O50 2.298 . S
Dy40 O54 2.275 . S
Dy40 C62 2.738 . S
Dy41 O44 2.298 . S
Dy41 O47 2.275 1_655 S
Dy41 O49 2.307 1_655 S
Dy41 O51 2.395 . S
Dy41 O52 2.379 . S
Dy41 O55 2.339 1_655 S
Dy41 C71 2.738 . S
C42 O54 1.254 . S
C42 O55 1.257 . S
O43 Dy40 2.307 1_655 S
O43 C53 1.266 . S
O44 Dy41 2.298 . S
O44 C53 1.236 . S
O45 Dy40 2.395 . S
O45 C62 1.255 . S
O46 Dy40 2.379 . S
O46 C62 1.249 . S
O47 Dy41 2.275 1_455 S
O47 C63 1.254 . S
O48 Dy40 2.339 . S
O48 C63 1.257 . S
O49 Dy41 2.307 1_455 S
O49 C64 1.266 . S
O50 Dy40 2.298 . S
O50 C64 1.236 . S
O51 Dy41 2.395 . S
O51 C71 1.255 . S
O52 Dy41 2.379 . S
O52 C71 1.249 . S
C53 O43 1.266 . S
C53 O44 1.236 . S
O54 Dy40 2.275 . S
O54 C42 1.254 . S
O55 Dy41 2.339 1_455 S
O55 C42 1.257 . S
C56 C59 1.344 . S
C56 C60 1.328 . S
C56 C62 1.516 . S
C57 C58 1.304 . S
C57 C61 1.323 . S
C58 C57 1.304 . S
C58 C59 1.371 . S
C58 H72 0.930 . S
C59 C56 1.344 . S
C59 C58 1.371 . S
C59 H73 0.931 . S
C60 C56 1.328 . S
C60 C61 1.433 . S
C60 H74 0.931 . S
C61 C57 1.323 . S
C61 C60 1.433 . S
C61 H75 0.933 . S
C62 Dy40 2.738 . S
C62 O45 1.255 . S
C62 O46 1.249 . S
C62 C56 1.516 . S
C63 O47 1.254 . S
C63 O48 1.257 . S
C64 O49 1.266 . S
C64 O50 1.236 . S
C65 C68 1.344 . S
C65 C69 1.328 . S
C65 C71 1.516 . S
C66 C67 1.304 . S
C66 C70 1.323 . S
C67 C66 1.304 . S
C67 C68 1.371 . S
C67 H76 0.930 . S
C68 C65 1.344 . S
C68 C67 1.371 . S
C68 H77 0.931 . S
C69 C65 1.328 . S
C69 C70 1.433 . S
C69 H78 0.931 . S
C70 C66 1.323 . S
C70 C69 1.433 . S
C70 H79 0.933 . S
C71 Dy41 2.738 . S
C71 O51 1.255 . S
C71 O52 1.249 . S
C71 C65 1.516 . S
H72 C58 0.930 . S
H73 C59 0.931 . S
H74 C60 0.931 . S
H75 C61 0.933 . S
H76 C67 0.930 . S
H77 C68 0.931 . S
H78 C69 0.931 . S
H79 C70 0.933 . S
Dy80 O83 2.307 . S
Dy80 O85 2.395 . S
Dy80 O86 2.379 . S
Dy80 O88 2.339 . S
Dy80 O90 2.298 . S
Dy80 O94 2.275 . S
Dy80 C102 2.738 . S
Dy81 O84 2.298 . S
Dy81 O87 2.275 . S
Dy81 O89 2.307 . S
Dy81 O91 2.395 . S
Dy81 O92 2.379 . S
Dy81 O95 2.339 . S
Dy81 C111 2.738 . S
C82 O94 1.254 . S
C82 O95 1.257 . S
O83 Dy80 2.307 . S
O83 C93 1.266 . S
O84 Dy81 2.298 . S
O84 C93 1.236 . S
O85 Dy80 2.395 . S
O85 C102 1.255 . S
O86 Dy80 2.379 . S
O86 C102 1.249 . S
O87 Dy81 2.275 . S
O87 C103 1.254 . S
O88 Dy80 2.339 . S
O88 C103 1.257 . S
O89 Dy81 2.307 . S
O89 C104 1.266 . S
O90 Dy80 2.298 . S
O90 C104 1.236 . S
O91 Dy81 2.395 . S
O91 C111 1.255 . S
O92 Dy81 2.379 . S
O92 C111 1.249 . S
C93 O83 1.266 . S
C93 O84 1.236 . S
O94 Dy80 2.275 . S
O94 C82 1.254 . S
O95 Dy81 2.339 . S
O95 C82 1.257 . S
C96 C99 1.344 . S
C96 C100 1.328 . S
C96 C102 1.516 . S
C97 C98 1.304 . S
C97 C101 1.323 . S
C98 C97 1.304 . S
C98 C99 1.371 . S
C98 H112 0.930 . S
C99 C96 1.344 . S
C99 C98 1.371 . S
C99 H113 0.931 . S
C100 C96 1.328 . S
C100 C101 1.433 . S
C100 H114 0.931 . S
C101 C97 1.323 . S
C101 C100 1.433 . S
C101 H115 0.933 . S
C102 Dy80 2.738 . S
C102 O85 1.255 . S
C102 O86 1.249 . S
C102 C96 1.516 . S
C103 O87 1.254 . S
C103 O88 1.257 . S
C104 O89 1.266 . S
C104 O90 1.236 . S
C105 C108 1.344 . S
C105 C109 1.328 . S
C105 C111 1.516 . S
C106 C107 1.304 . S
C106 C110 1.323 . S
C107 C106 1.304 . S
C107 C108 1.371 . S
C107 H116 0.930 . S
C108 C105 1.344 . S
C108 C107 1.371 . S
C108 H117 0.931 . S
C109 C105 1.328 . S
C109 C110 1.433 . S
C109 H118 0.931 . S
C110 C106 1.323 . S
C110 C109 1.433 . S
C110 H119 0.933 . S
C111 Dy81 2.738 . S
C111 O91 1.255 . S
C111 O92 1.249 . S
C111 C105 1.516 . S
H112 C98 0.930 . S
H113 C99 0.931 . S
H114 C100 0.931 . S
H115 C101 0.933 . S
H116 C107 0.930 . S
H117 C108 0.931 . S
H118 C109 0.931 . S
H119 C110 0.933 . S
Dy120 O123 2.307 1_655 S
Dy120 O125 2.395 . S
Dy120 O126 2.379 . S
Dy120 O128 2.339 . S
Dy120 O130 2.298 . S
Dy120 O134 2.275 . S
Dy120 C142 2.738 . S
Dy121 O124 2.298 . S
Dy121 O127 2.275 . S
Dy121 O129 2.307 1_455 S
Dy121 O131 2.395 . S
Dy121 O132 2.379 . S
Dy121 O135 2.339 . S
Dy121 C151 2.738 . S
C122 O134 1.254 1_455 S
C122 O135 1.259 . S
O123 Dy120 2.307 1_455 S
O123 C133 1.266 . S
O124 Dy121 2.298 . S
O124 C133 1.236 . S
O125 Dy120 2.395 . S
O125 C142 1.255 . S
O126 Dy120 2.379 . S
O126 C142 1.249 . S
O127 Dy121 2.275 . S
O127 C143 1.254 . S
O128 Dy120 2.339 . S
O128 C143 1.257 1_655 S
O129 Dy121 2.307 1_655 S
O129 C144 1.266 . S
O130 Dy120 2.298 . S
O130 C144 1.236 . S
O131 Dy121 2.395 . S
O131 C151 1.255 . S
O132 Dy121 2.379 . S
O132 C151 1.249 . S
C133 O123 1.266 . S
C133 O124 1.236 . S
O134 Dy120 2.275 . S
O134 C122 1.254 1_655 S
O135 Dy121 2.339 . S
O135 C122 1.259 . S
C136 C139 1.344 . S
C136 C140 1.328 . S
C136 C142 1.516 . S
C137 C138 1.304 . S
C137 C141 1.323 . S
C138 C137 1.304 . S
C138 C139 1.371 . S
C138 H152 0.930 . S
C139 C136 1.344 . S
C139 C138 1.371 . S
C139 H153 0.931 . S
C140 C136 1.328 . S
C140 C141 1.433 . S
C140 H154 0.931 . S
C141 C137 1.323 . S
C141 C140 1.433 . S
C141 H155 0.933 . S
C142 Dy120 2.738 . S
C142 O125 1.255 . S
C142 O126 1.249 . S
C142 C136 1.516 . S
C143 O127 1.254 . S
C143 O128 1.257 1_455 S
C144 O129 1.266 . S
C144 O130 1.236 . S
C145 C148 1.344 . S
C145 C149 1.328 . S
C145 C151 1.516 . S
C146 C147 1.304 . S
C146 C150 1.323 . S
C147 C146 1.304 . S
C147 C148 1.371 . S
C147 H156 0.930 . S
C148 C145 1.344 . S
C148 C147 1.371 . S
C148 H157 0.931 . S
C149 C145 1.328 . S
C149 C150 1.433 . S
C149 H158 0.931 . S
C150 C146 1.323 . S
C150 C149 1.433 . S
C150 H159 0.933 . S
C151 Dy121 2.738 . S
C151 O131 1.255 . S
C151 O132 1.249 . S
C151 C145 1.516 . S
H152 C138 0.930 . S
H153 C139 0.931 . S
H154 C140 0.931 . S
H155 C141 0.933 . S
H156 C147 0.930 . S
H157 C148 0.931 . S
H158 C149 0.931 . S
H159 C150 0.933 . S
Dy160 O163 2.307 . S
Dy160 O165 2.395 . S
Dy160 O166 2.379 . S
Dy160 O168 2.339 . S
Dy160 O170 2.298 . S
Dy160 O174 2.275 . S
Dy160 C182 2.738 . S
Dy161 O164 2.298 . S
Dy161 O167 2.275 . S
Dy161 O169 2.307 . S
Dy161 O171 2.395 . S
Dy161 O172 2.379 . S
Dy161 O175 2.339 . S
Dy161 C191 2.738 . S
C162 O174 1.254 . S
C162 O175 1.257 . S
O163 Dy160 2.307 . S
O163 C173 1.266 . S
O164 Dy161 2.298 . S
O164 C173 1.236 . S
O165 Dy160 2.395 . S
O165 C182 1.255 . S
O166 Dy160 2.379 . S
O166 C182 1.249 . S
O167 Dy161 2.275 . S
O167 C183 1.254 . S
O168 Dy160 2.339 . S
O168 C183 1.257 . S
O169 Dy161 2.307 . S
O169 C184 1.266 . S
O170 Dy160 2.298 . S
O170 C184 1.236 . S
O171 Dy161 2.395 . S
O171 C191 1.255 . S
O172 Dy161 2.379 . S
O172 C191 1.249 . S
C173 O163 1.266 . S
C173 O164 1.236 . S
O174 Dy160 2.275 . S
O174 C162 1.254 . S
O175 Dy161 2.339 . S
O175 C162 1.257 . S
C176 C179 1.344 . S
C176 C180 1.328 . S
C176 C182 1.516 . S
C177 C178 1.304 . S
C177 C181 1.323 . S
C178 C177 1.304 . S
C178 C179 1.371 . S
C178 H192 0.930 . S
C179 C176 1.344 . S
C179 C178 1.371 . S
C179 H193 0.931 . S
C180 C176 1.328 . S
C180 C181 1.433 . S
C180 H194 0.931 . S
C181 C177 1.323 . S
C181 C180 1.433 . S
C181 H195 0.933 . S
C182 Dy160 2.738 . S
C182 O165 1.255 . S
C182 O166 1.249 . S
C182 C176 1.516 . S
C183 O167 1.254 . S
C183 O168 1.257 . S
C184 O169 1.266 . S
C184 O170 1.236 . S
C185 C188 1.344 . S
C185 C189 1.328 . S
C185 C191 1.516 . S
C186 C187 1.304 . S
C186 C190 1.323 . S
C187 C186 1.304 . S
C187 C188 1.371 . S
C187 H196 0.930 . S
C188 C185 1.344 . S
C188 C187 1.371 . S
C188 H197 0.931 . S
C189 C185 1.328 . S
C189 C190 1.433 . S
C189 H198 0.931 . S
C190 C186 1.323 . S
C190 C189 1.433 . S
C190 H199 0.933 . S
C191 Dy161 2.738 . S
C191 O171 1.255 . S
C191 O172 1.249 . S
C191 C185 1.516 . S
H192 C178 0.930 . S
H193 C179 0.931 . S
H194 C180 0.931 . S
H195 C181 0.933 . S
H196 C187 0.930 . S
H197 C188 0.931 . S
H198 C189 0.931 . S
H199 C190 0.933 . S
Dy200 O203 2.307 1_545 S
Dy200 O205 2.395 . S
Dy200 O206 2.379 . S
Dy200 O208 2.339 . S
Dy200 O210 2.298 . S
Dy200 O214 2.275 . S
Dy200 C222 2.738 . S
Dy201 O204 2.298 . S
Dy201 O207 2.275 1_565 S
Dy201 O209 2.307 1_565 S
Dy201 O211 2.395 . S
Dy201 O212 2.379 . S
Dy201 O215 2.339 1_565 S
Dy201 C231 2.738 . S
C202 O214 1.254 . S
C202 O215 1.257 . S
O203 Dy200 2.307 1_565 S
O203 C213 1.266 . S
O204 Dy201 2.298 . S
O204 C213 1.236 . S
O205 Dy200 2.395 . S
O205 C222 1.255 . S
O206 Dy200 2.379 . S
O206 C222 1.249 . S
O207 Dy201 2.275 1_545 S
O207 C223 1.254 . S
O208 Dy200 2.339 . S
O208 C223 1.257 . S
O209 Dy201 2.307 1_545 S
O209 C224 1.266 . S
O210 Dy200 2.298 . S
O210 C224 1.236 . S
O211 Dy201 2.395 . S
O211 C231 1.255 . S
O212 Dy201 2.379 . S
O212 C231 1.249 . S
C213 O203 1.266 . S
C213 O204 1.236 . S
O214 Dy200 2.275 . S
O214 C202 1.254 . S
O215 Dy201 2.339 1_545 S
O215 C202 1.257 . S
C216 C219 1.344 . S
C216 C220 1.328 . S
C216 C222 1.516 . S
C217 C218 1.304 . S
C217 C221 1.323 . S
C218 C217 1.304 . S
C218 C219 1.371 . S
C218 H232 0.930 . S
C219 C216 1.344 . S
C219 C218 1.371 . S
C219 H233 0.931 . S
C220 C216 1.328 . S
C220 C221 1.433 . S
C220 H234 0.931 . S
C221 C217 1.323 . S
C221 C220 1.433 . S
C221 H235 0.933 . S
C222 Dy200 2.738 . S
C222 O205 1.255 . S
C222 O206 1.249 . S
C222 C216 1.516 . S
C223 O207 1.254 . S
C223 O208 1.257 . S
C224 O209 1.266 . S
C224 O210 1.236 . S
C225 C228 1.344 . S
C225 C229 1.328 . S
C225 C231 1.516 . S
C226 C227 1.304 . S
C226 C230 1.323 . S
C227 C226 1.304 . S
C227 C228 1.371 . S
C227 H236 0.930 . S
C228 C225 1.344 . S
C228 C227 1.371 . S
C228 H237 0.931 . S
C229 C225 1.328 . S
C229 C230 1.433 . S
C229 H238 0.931 . S
C230 C226 1.323 . S
C230 C229 1.433 . S
C230 H239 0.933 . S
C231 Dy201 2.738 . S
C231 O211 1.255 . S
C231 O212 1.249 . S
C231 C225 1.516 . S
H232 C218 0.930 . S
H233 C219 0.931 . S
H234 C220 0.931 . S
H235 C221 0.933 . S
H236 C227 0.930 . S
H237 C228 0.931 . S
H238 C229 0.931 . S
H239 C230 0.933 . S
Dy240 O243 2.307 . S
Dy240 O245 2.395 . S
Dy240 O246 2.379 . S
Dy240 O248 2.339 . S
Dy240 O250 2.298 . S
Dy240 O254 2.275 . S
Dy240 C262 2.738 . S
Dy241 O244 2.298 . S
Dy241 O247 2.275 . S
Dy241 O249 2.307 . S
Dy241 O251 2.395 . S
Dy241 O252 2.379 . S
Dy241 O255 2.339 . S
Dy241 C271 2.738 . S
C242 O254 1.254 . S
C242 O255 1.257 . S
O243 Dy240 2.307 . S
O243 C253 1.266 . S
O244 Dy241 2.298 . S
O244 C253 1.236 . S
O245 Dy240 2.395 . S
O245 C262 1.255 . S
O246 Dy240 2.379 . S
O246 C262 1.249 . S
O247 Dy241 2.275 . S
O247 C263 1.254 . S
O248 Dy240 2.339 . S
O248 C263 1.257 . S
O249 Dy241 2.307 . S
O249 C264 1.266 . S
O250 Dy240 2.298 . S
O250 C264 1.236 . S
O251 Dy241 2.395 . S
O251 C271 1.255 . S
O252 Dy241 2.379 . S
O252 C271 1.249 . S
C253 O243 1.266 . S
C253 O244 1.236 . S
O254 Dy240 2.275 . S
O254 C242 1.254 . S
O255 Dy241 2.339 . S
O255 C242 1.257 . S
C256 C259 1.344 . S
C256 C260 1.328 . S
C256 C262 1.516 1_655 S
C257 C258 1.304 . S
C257 C261 1.323 . S
C258 C257 1.304 . S
C258 C259 1.371 . S
C258 H272 0.930 . S
C259 C256 1.344 . S
C259 C258 1.371 . S
C259 H273 0.931 . S
C260 C256 1.328 . S
C260 C261 1.433 . S
C260 H274 0.931 . S
C261 C257 1.323 . S
C261 C260 1.433 . S
C261 H275 0.933 . S
C262 Dy240 2.738 . S
C262 O245 1.255 . S
C262 O246 1.249 . S
C262 C256 1.516 1_455 S
C263 O247 1.254 . S
C263 O248 1.257 . S
C264 O249 1.266 . S
C264 O250 1.236 . S
C265 C268 1.344 . S
C265 C269 1.328 . S
C265 C271 1.516 . S
C266 C267 1.304 . S
C266 C270 1.323 . S
C267 C266 1.304 . S
C267 C268 1.371 . S
C267 H276 0.930 . S
C268 C265 1.344 . S
C268 C267 1.371 . S
C268 H277 0.931 . S
C269 C265 1.328 . S
C269 C270 1.433 . S
C269 H278 0.931 . S
C270 C266 1.323 . S
C270 C269 1.433 . S
C270 H279 0.933 . S
C271 Dy241 2.738 . S
C271 O251 1.255 . S
C271 O252 1.249 . S
C271 C265 1.516 . S
H272 C258 0.930 . S
H273 C259 0.931 . S
H274 C260 0.931 . S
H275 C261 0.933 . S
H276 C267 0.930 . S
H277 C268 0.931 . S
H278 C269 0.931 . S
H279 C270 0.933 . S
Dy280 O283 2.307 . S
Dy280 O285 2.395 . S
Dy280 O286 2.379 . S
Dy280 O288 2.339 . S
Dy280 O290 2.298 . S
Dy280 O294 2.275 . S
Dy280 C302 2.738 . S
Dy281 O284 2.298 . S
Dy281 O287 2.275 . S
Dy281 O289 2.307 . S
Dy281 O291 2.395 . S
Dy281 O292 2.379 . S
Dy281 O295 2.339 . S
Dy281 C311 2.738 . S
C282 O294 1.254 . S
C282 O295 1.257 . S
O283 Dy280 2.307 . S
O283 C293 1.266 . S
O284 Dy281 2.298 . S
O284 C293 1.236 . S
O285 Dy280 2.395 . S
O285 C302 1.255 . S
O286 Dy280 2.379 . S
O286 C302 1.249 . S
O287 Dy281 2.275 . S
O287 C303 1.254 . S
O288 Dy280 2.339 . S
O288 C303 1.257 . S
O289 Dy281 2.307 . S
O289 C304 1.266 . S
O290 Dy280 2.298 . S
O290 C304 1.236 . S
O291 Dy281 2.395 . S
O291 C311 1.255 . S
O292 Dy281 2.379 . S
O292 C311 1.249 . S
C293 O283 1.266 . S
C293 O284 1.236 . S
O294 Dy280 2.275 . S
O294 C282 1.254 . S
O295 Dy281 2.339 . S
O295 C282 1.257 . S
C296 C299 1.344 . S
C296 C300 1.328 . S
C296 C302 1.516 . S
C297 C298 1.304 . S
C297 C301 1.323 . S
C298 C297 1.304 . S
C298 C299 1.371 . S
C298 H312 0.930 . S
C299 C296 1.344 . S
C299 C298 1.371 . S
C299 H313 0.931 . S
C300 C296 1.328 . S
C300 C301 1.433 . S
C300 H314 0.931 . S
C301 C297 1.323 . S
C301 C300 1.433 . S
C301 H315 0.933 . S
C302 Dy280 2.738 . S
C302 O285 1.255 . S
C302 O286 1.249 . S
C302 C296 1.516 . S
C303 O287 1.254 . S
C303 O288 1.257 . S
C304 O289 1.266 . S
C304 O290 1.236 . S
C305 C308 1.344 . S
C305 C309 1.328 . S
C305 C311 1.516 . S
C306 C307 1.304 . S
C306 C310 1.323 . S
C307 C306 1.304 . S
C307 C308 1.371 . S
C307 H316 0.930 . S
C308 C305 1.344 . S
C308 C307 1.371 . S
C308 H317 0.931 . S
C309 C305 1.328 . S
C309 C310 1.433 . S
C309 H318 0.931 . S
C310 C306 1.323 . S
C310 C309 1.433 . S
C310 H319 0.933 . S
C311 Dy281 2.738 . S
C311 O291 1.255 . S
C311 O292 1.249 . S
C311 C305 1.516 . S
H312 C298 0.930 . S
H313 C299 0.931 . S
H314 C300 0.931 . S
H315 C301 0.933 . S
H316 C307 0.930 . S
H317 C308 0.931 . S
H318 C309 0.931 . S
H319 C310 0.933 . S
Dy320 O323 2.307 . S
Dy320 O325 2.395 1_565 S
Dy320 O326 2.379 1_565 S
Dy320 O328 2.339 . S
Dy320 O330 2.298 . S
Dy320 O334 2.275 . S
Dy320 C342 2.738 1_565 S
Dy321 O324 2.298 . S
Dy321 O327 2.275 . S
Dy321 O329 2.307 . S
Dy321 O331 2.395 . S
Dy321 O332 2.379 . S
Dy321 O335 2.339 . S
Dy321 C351 2.738 . S
C322 O334 1.254 . S
C322 O335 1.257 . S
O323 Dy320 2.307 . S
O323 C333 1.266 . S
O324 Dy321 2.298 . S
O324 C333 1.236 . S
O325 Dy320 2.395 1_545 S
O325 C342 1.255 . S
O326 Dy320 2.379 1_545 S
O326 C342 1.249 . S
O327 Dy321 2.275 . S
O327 C343 1.254 . S
O328 Dy320 2.339 . S
O328 C343 1.257 . S
O329 Dy321 2.307 . S
O329 C344 1.266 . S
O330 Dy320 2.298 . S
O330 C344 1.236 . S
O331 Dy321 2.395 . S
O331 C351 1.255 . S
O332 Dy321 2.379 . S
O332 C351 1.249 . S
C333 O323 1.266 . S
C333 O324 1.236 . S
O334 Dy320 2.275 . S
O334 C322 1.254 . S
O335 Dy321 2.339 . S
O335 C322 1.257 . S
C336 C339 1.344 . S
C336 C340 1.328 . S
C336 C342 1.516 . S
C337 C338 1.304 . S
C337 C341 1.323 . S
C338 C337 1.304 . S
C338 C339 1.371 . S
C338 H352 0.930 . S
C339 C336 1.344 . S
C339 C338 1.371 . S
C339 H353 0.931 . S
C340 C336 1.328 . S
C340 C341 1.433 . S
C340 H354 0.931 . S
C341 C337 1.323 . S
C341 C340 1.433 . S
C341 H355 0.933 . S
C342 Dy320 2.738 1_545 S
C342 O325 1.255 . S
C342 O326 1.249 . S
C342 C336 1.516 . S
C343 O327 1.254 . S
C343 O328 1.257 . S
C344 O329 1.266 . S
C344 O330 1.236 . S
C345 C348 1.344 . S
C345 C349 1.328 . S
C345 C351 1.516 . S
C346 C347 1.304 . S
C346 C350 1.323 . S
C347 C346 1.304 . S
C347 C348 1.371 . S
C347 H356 0.930 . S
C348 C345 1.344 . S
C348 C347 1.371 . S
C348 H357 0.931 . S
C349 C345 1.328 . S
C349 C350 1.433 . S
C349 H358 0.931 . S
C350 C346 1.323 . S
C350 C349 1.433 . S
C350 H359 0.933 . S
C351 Dy321 2.738 . S
C351 O331 1.255 . S
C351 O332 1.249 . S
C351 C345 1.516 . S
H352 C338 0.930 . S
H353 C339 0.931 . S
H354 C340 0.931 . S
H355 C341 0.933 . S
H356 C347 0.930 . S
H357 C348 0.931 . S
H358 C349 0.931 . S
H359 C350 0.933 . S
Dy360 O363 2.307 . S
Dy360 O365 2.395 . S
Dy360 O366 2.379 . S
Dy360 O368 2.339 . S
Dy360 O370 2.298 . S
Dy360 O374 2.275 . S
Dy360 C382 2.738 . S
Dy361 O364 2.298 . S
Dy361 O367 2.275 . S
Dy361 O369 2.307 . S
Dy361 O371 2.395 . S
Dy361 O372 2.379 . S
Dy361 O375 2.339 . S
Dy361 C391 2.738 . S
C362 O374 1.254 . S
C362 O375 1.257 . S
O363 Dy360 2.307 . S
O363 C373 1.266 . S
O364 Dy361 2.298 . S
O364 C373 1.236 . S
O365 Dy360 2.395 . S
O365 C382 1.255 . S
O366 Dy360 2.379 . S
O366 C382 1.249 . S
O367 Dy361 2.275 . S
O367 C383 1.254 . S
O368 Dy360 2.339 . S
O368 C383 1.257 . S
O369 Dy361 2.307 . S
O369 C384 1.266 . S
O370 Dy360 2.298 . S
O370 C384 1.236 . S
O371 Dy361 2.395 . S
O371 C391 1.255 . S
O372 Dy361 2.379 . S
O372 C391 1.249 . S
C373 O363 1.266 . S
C373 O364 1.236 . S
O374 Dy360 2.275 . S
O374 C362 1.254 . S
O375 Dy361 2.339 . S
O375 C362 1.257 . S
C376 C379 1.344 . S
C376 C380 1.328 . S
C376 C382 1.516 . S
C377 C378 1.304 . S
C377 C381 1.323 . S
C378 C377 1.304 . S
C378 C379 1.371 . S
C378 H392 0.930 . S
C379 C376 1.344 . S
C379 C378 1.371 . S
C379 H393 0.931 . S
C380 C376 1.328 . S
C380 C381 1.433 . S
C380 H394 0.931 . S
C381 C377 1.323 . S
C381 C380 1.433 . S
C381 H395 0.933 . S
C382 Dy360 2.738 . S
C382 O365 1.255 . S
C382 O366 1.249 . S
C382 C376 1.516 . S
C383 O367 1.254 . S
C383 O368 1.257 . S
C384 O369 1.266 . S
C384 O370 1.236 . S
C385 C388 1.344 . S
C385 C389 1.328 . S
C385 C391 1.516 1_545 S
C386 C387 1.304 . S
C386 C390 1.323 . S
C387 C386 1.304 . S
C387 C388 1.371 . S
C387 H396 0.930 . S
C388 C385 1.344 . S
C388 C387 1.371 . S
C388 H397 0.926 1_545 S
C389 C385 1.328 . S
C389 C390 1.433 . S
C389 H398 0.931 . S
C390 C386 1.323 . S
C390 C389 1.433 . S
C390 H399 0.933 . S
C391 Dy361 2.738 . S
C391 O371 1.255 . S
C391 O372 1.249 . S
C391 C385 1.516 1_565 S
H392 C378 0.930 . S
H393 C379 0.931 . S
H394 C380 0.931 . S
H395 C381 0.933 . S
H396 C387 0.930 . S
H397 C388 0.926 1_565 S
H398 C389 0.931 . S
H399 C390 0.933 . S
Dy400 O403 2.307 . S
Dy400 O405 2.395 . S
Dy400 O406 2.379 . S
Dy400 O408 2.339 . S
Dy400 O410 2.298 . S
Dy400 O414 2.275 . S
Dy400 C422 2.738 . S
Dy401 O404 2.298 . S
Dy401 O407 2.275 . S
Dy401 O409 2.307 . S
Dy401 O411 2.395 . S
Dy401 O412 2.379 . S
Dy401 O415 2.339 . S
Dy401 C431 2.738 . S
C402 O414 1.254 . S
C402 O415 1.257 . S
O403 Dy400 2.307 . S
O403 C413 1.266 . S
O404 Dy401 2.298 . S
O404 C413 1.236 . S
O405 Dy400 2.395 . S
O405 C422 1.255 . S
O406 Dy400 2.379 . S
O406 C422 1.249 . S
O407 Dy401 2.275 . S
O407 C423 1.254 . S
O408 Dy400 2.339 . S
O408 C423 1.257 . S
O409 Dy401 2.307 . S
O409 C424 1.266 . S
O410 Dy400 2.298 . S
O410 C424 1.236 . S
O411 Dy401 2.395 . S
O411 C431 1.255 . S
O412 Dy401 2.379 . S
O412 C431 1.249 . S
C413 O403 1.266 . S
C413 O404 1.236 . S
O414 Dy400 2.275 . S
O414 C402 1.254 . S
O415 Dy401 2.339 . S
O415 C402 1.257 . S
C416 C419 1.344 . S
C416 C420 1.328 . S
C416 C422 1.516 . S
C417 C418 1.304 . S
C417 C421 1.323 . S
C418 C417 1.304 . S
C418 C419 1.371 . S
C418 H432 0.930 . S
C419 C416 1.344 . S
C419 C418 1.371 . S
C419 H433 0.931 . S
C420 C416 1.328 . S
C420 C421 1.433 . S
C420 H434 0.931 . S
C421 C417 1.323 . S
C421 C420 1.433 . S
C421 H435 0.933 . S
C422 Dy400 2.738 . S
C422 O405 1.255 . S
C422 O406 1.249 . S
C422 C416 1.516 . S
C423 O407 1.254 . S
C423 O408 1.257 . S
C424 O409 1.266 . S
C424 O410 1.236 . S
C425 C428 1.344 . S
C425 C429 1.328 . S
C425 C431 1.516 . S
C426 C427 1.304 . S
C426 C430 1.323 . S
C427 C426 1.304 . S
C427 C428 1.371 1_655 S
C427 H436 0.930 . S
C428 C425 1.344 . S
C428 C427 1.371 1_455 S
C428 H437 0.931 . S
C429 C425 1.328 . S
C429 C430 1.433 1_455 S
C429 H438 0.931 . S
C430 C426 1.323 . S
C430 C429 1.433 1_655 S
C430 H439 0.933 . S
C431 Dy401 2.738 . S
C431 O411 1.255 . S
C431 O412 1.249 . S
C431 C425 1.516 . S
H432 C418 0.930 . S
H433 C419 0.931 . S
H434 C420 0.931 . S
H435 C421 0.933 . S
H436 C427 0.930 . S
H437 C428 0.931 . S
H438 C429 0.931 . S
H439 C430 0.933 . S
Dy440 O443 2.307 . S
Dy440 O445 2.395 . S
Dy440 O446 2.379 . S
Dy440 O448 2.339 . S
Dy440 O450 2.298 . S
Dy440 O454 2.275 . S
Dy440 C462 2.738 . S
Dy441 O444 2.298 . S
Dy441 O447 2.275 . S
Dy441 O449 2.307 . S
Dy441 O451 2.395 . S
Dy441 O452 2.379 . S
Dy441 O455 2.339 . S
Dy441 C471 2.738 . S
C442 O454 1.254 . S
C442 O455 1.257 . S
O443 Dy440 2.307 . S
O443 C453 1.266 . S
O444 Dy441 2.298 . S
O444 C453 1.236 . S
O445 Dy440 2.395 . S
O445 C462 1.255 . S
O446 Dy440 2.379 . S
O446 C462 1.249 . S
O447 Dy441 2.275 . S
O447 C463 1.254 . S
O448 Dy440 2.339 . S
O448 C463 1.257 . S
O449 Dy441 2.307 . S
O449 C464 1.266 . S
O450 Dy440 2.298 . S
O450 C464 1.236 . S
O451 Dy441 2.395 . S
O451 C471 1.255 . S
O452 Dy441 2.379 . S
O452 C471 1.249 . S
C453 O443 1.266 . S
C453 O444 1.236 . S
O454 Dy440 2.275 . S
O454 C442 1.254 . S
O455 Dy441 2.339 . S
O455 C442 1.257 . S
C456 C459 1.344 . S
C456 C460 1.328 . S
C456 C462 1.516 . S
C457 C458 1.304 . S
C457 C461 1.323 . S
C458 C457 1.304 . S
C458 C459 1.371 . S
C458 H472 0.930 . S
C459 C456 1.344 . S
C459 C458 1.371 . S
C459 H473 0.931 . S
C460 C456 1.328 . S
C460 C461 1.433 . S
C460 H474 0.931 . S
C461 C457 1.323 . S
C461 C460 1.433 . S
C461 H475 0.933 . S
C462 Dy440 2.738 . S
C462 O445 1.255 . S
C462 O446 1.249 . S
C462 C456 1.516 . S
C463 O447 1.254 . S
C463 O448 1.257 . S
C464 O449 1.266 . S
C464 O450 1.236 . S
C465 C468 1.344 . S
C465 C469 1.328 . S
C465 C471 1.516 . S
C466 C467 1.304 . S
C466 C470 1.323 . S
C467 C466 1.304 . S
C467 C468 1.371 . S
C467 H476 0.930 . S
C468 C465 1.344 . S
C468 C467 1.371 . S
C468 H477 0.931 . S
C469 C465 1.328 . S
C469 C470 1.433 . S
C469 H478 0.931 . S
C470 C466 1.323 . S
C470 C469 1.433 . S
C470 H479 0.933 . S
C471 Dy441 2.738 . S
C471 O451 1.255 . S
C471 O452 1.249 . S
C471 C465 1.516 . S
H472 C458 0.930 . S
H473 C459 0.931 . S
H474 C460 0.931 . S
H475 C461 0.933 . S
H476 C467 0.930 . S
H477 C468 0.931 . S
H478 C469 0.931 . S
H479 C470 0.933 . S
Dy480 O483 2.307 . S
Dy480 O485 2.395 . S
Dy480 O486 2.379 . S
Dy480 O488 2.339 . S
Dy480 O490 2.298 . S
Dy480 O494 2.275 . S
Dy480 C502 2.738 . S
Dy481 O484 2.298 . S
Dy481 O487 2.275 . S
Dy481 O489 2.307 . S
Dy481 O491 2.395 . S
Dy481 O492 2.379 . S
Dy481 O495 2.339 . S
Dy481 C511 2.738 . S
C482 O494 1.254 . S
C482 O495 1.257 . S
O483 Dy480 2.307 . S
O483 C493 1.266 . S
O484 Dy481 2.298 . S
O484 C493 1.236 . S
O485 Dy480 2.395 . S
O485 C502 1.255 . S
O486 Dy480 2.379 . S
O486 C502 1.249 . S
O487 Dy481 2.275 . S
O487 C503 1.254 . S
O488 Dy480 2.339 . S
O488 C503 1.257 . S
O489 Dy481 2.307 . S
O489 C504 1.266 . S
O490 Dy480 2.298 . S
O490 C504 1.236 . S
O491 Dy481 2.395 . S
O491 C511 1.255 . S
O492 Dy481 2.379 . S
O492 C511 1.249 . S
C493 O483 1.266 . S
C493 O484 1.236 . S
O494 Dy480 2.275 . S
O494 C482 1.254 . S
O495 Dy481 2.339 . S
O495 C482 1.257 . S
C496 C499 1.344 . S
C496 C500 1.328 . S
C496 C502 1.516 . S
C497 C498 1.304 . S
C497 C501 1.323 . S
C498 C497 1.304 . S
C498 C499 1.371 . S
C498 H512 0.930 . S
C499 C496 1.344 . S
C499 C498 1.371 . S
C499 H513 0.931 . S
C500 C496 1.328 . S
C500 C501 1.433 . S
C500 H514 0.931 . S
C501 C497 1.323 . S
C501 C500 1.433 . S
C501 H515 0.933 . S
C502 Dy480 2.738 . S
C502 O485 1.255 . S
C502 O486 1.249 . S
C502 C496 1.516 . S
C503 O487 1.254 . S
C503 O488 1.257 . S
C504 O489 1.266 . S
C504 O490 1.236 . S
C505 C508 1.344 . S
C505 C509 1.328 . S
C505 C511 1.516 1_455 S
C506 C507 1.304 . S
C506 C510 1.323 . S
C507 C506 1.304 . S
C507 C508 1.371 . S
C507 H516 0.930 . S
C508 C505 1.344 . S
C508 C507 1.371 . S
C508 H517 0.926 1_455 S
C509 C505 1.328 . S
C509 C510 1.433 . S
C509 H518 0.931 . S
C510 C506 1.323 . S
C510 C509 1.433 . S
C510 H519 0.933 . S
C511 Dy481 2.738 . S
C511 O491 1.255 . S
C511 O492 1.249 . S
C511 C505 1.516 1_655 S
H512 C498 0.930 . S
H513 C499 0.931 . S
H514 C500 0.931 . S
H515 C501 0.933 . S
H516 C507 0.930 . S
H517 C508 0.926 1_655 S
H518 C509 0.931 . S
H519 C510 0.933 . S
Dy520 O523 2.307 . S
Dy520 O525 2.395 . S
Dy520 O526 2.379 . S
Dy520 O528 2.339 . S
Dy520 O530 2.298 . S
Dy520 O534 2.275 . S
Dy520 C542 2.738 . S
Dy521 O524 2.298 . S
Dy521 O527 2.275 . S
Dy521 O529 2.307 . S
Dy521 O531 2.395 . S
Dy521 O532 2.379 . S
Dy521 O535 2.339 . S
Dy521 C551 2.738 . S
C522 O534 1.254 . S
C522 O535 1.257 . S
O523 Dy520 2.307 . S
O523 C533 1.266 . S
O524 Dy521 2.298 . S
O524 C533 1.236 . S
O525 Dy520 2.395 . S
O525 C542 1.255 . S
O526 Dy520 2.379 . S
O526 C542 1.249 . S
O527 Dy521 2.275 . S
O527 C543 1.254 . S
O528 Dy520 2.339 . S
O528 C543 1.257 . S
O529 Dy521 2.307 . S
O529 C544 1.266 . S
O530 Dy520 2.298 . S
O530 C544 1.236 . S
O531 Dy521 2.395 . S
O531 C551 1.255 . S
O532 Dy521 2.379 . S
O532 C551 1.249 . S
C533 O523 1.266 . S
C533 O524 1.236 . S
O534 Dy520 2.275 . S
O534 C522 1.254 . S
O535 Dy521 2.339 . S
O535 C522 1.257 . S
C536 C539 1.344 . S
C536 C540 1.328 . S
C536 C542 1.516 . S
C537 C538 1.304 . S
C537 C541 1.323 . S
C538 C537 1.304 . S
C538 C539 1.371 . S
C538 H552 0.930 . S
C539 C536 1.344 . S
C539 C538 1.371 . S
C539 H553 0.931 . S
C540 C536 1.328 . S
C540 C541 1.433 . S
C540 H554 0.931 . S
C541 C537 1.323 . S
C541 C540 1.433 . S
C541 H555 0.933 . S
C542 Dy520 2.738 . S
C542 O525 1.255 . S
C542 O526 1.249 . S
C542 C536 1.516 . S
C543 O527 1.254 . S
C543 O528 1.257 . S
C544 O529 1.266 . S
C544 O530 1.236 . S
C545 C548 1.344 . S
C545 C549 1.328 . S
C545 C551 1.516 . S
C546 C547 1.304 . S
C546 C550 1.323 . S
C547 C546 1.304 . S
C547 C548 1.371 . S
C547 H556 0.930 . S
C548 C545 1.344 . S
C548 C547 1.371 . S
C548 H557 0.931 . S
C549 C545 1.328 . S
C549 C550 1.433 . S
C549 H558 0.931 . S
C550 C546 1.323 . S
C550 C549 1.433 . S
C550 H559 0.933 . S
C551 Dy521 2.738 . S
C551 O531 1.255 . S
C551 O532 1.249 . S
C551 C545 1.516 . S
H552 C538 0.930 . S
H553 C539 0.931 . S
H554 C540 0.931 . S
H555 C541 0.933 . S
H556 C547 0.930 . S
H557 C548 0.931 . S
H558 C549 0.931 . S
H559 C550 0.933 . S
Dy560 O563 2.307 . S
Dy560 O565 2.395 . S
Dy560 O566 2.379 . S
Dy560 O568 2.339 . S
Dy560 O570 2.298 . S
Dy560 O574 2.275 . S
Dy560 C582 2.738 . S
Dy561 O564 2.298 . S
Dy561 O567 2.275 . S
Dy561 O569 2.307 . S
Dy561 O571 2.395 . S
Dy561 O572 2.379 . S
Dy561 O575 2.339 . S
Dy561 C591 2.738 . S
C562 O574 1.254 . S
C562 O575 1.257 . S
O563 Dy560 2.307 . S
O563 C573 1.266 . S
O564 Dy561 2.298 . S
O564 C573 1.236 . S
O565 Dy560 2.395 . S
O565 C582 1.255 . S
O566 Dy560 2.379 . S
O566 C582 1.249 . S
O567 Dy561 2.275 . S
O567 C583 1.254 . S
O568 Dy560 2.339 . S
O568 C583 1.257 . S
O569 Dy561 2.307 . S
O569 C584 1.266 . S
O570 Dy560 2.298 . S
O570 C584 1.236 . S
O571 Dy561 2.395 . S
O571 C591 1.255 . S
O572 Dy561 2.379 . S
O572 C591 1.249 . S
C573 O563 1.266 . S
C573 O564 1.236 . S
O574 Dy560 2.275 . S
O574 C562 1.254 . S
O575 Dy561 2.339 . S
O575 C562 1.257 . S
C576 C579 1.344 . S
C576 C580 1.328 . S
C576 C582 1.516 . S
C577 C578 1.304 . S
C577 C581 1.323 . S
C578 C577 1.304 . S
C578 C579 1.371 . S
C578 H592 0.930 . S
C579 C576 1.344 . S
C579 C578 1.371 . S
C579 H593 0.931 . S
C580 C576 1.328 . S
C580 C581 1.433 . S
C580 H594 0.931 . S
C581 C577 1.323 . S
C581 C580 1.433 . S
C581 H595 0.933 . S
C582 Dy560 2.738 . S
C582 O565 1.255 . S
C582 O566 1.249 . S
C582 C576 1.516 . S
C583 O567 1.254 . S
C583 O568 1.257 . S
C584 O569 1.266 . S
C584 O570 1.236 . S
C585 C588 1.344 . S
C585 C589 1.328 . S
C585 C591 1.516 . S
C586 C587 1.304 . S
C586 C590 1.323 . S
C587 C586 1.304 . S
C587 C588 1.371 1_565 S
C587 H596 0.930 . S
C588 C585 1.344 . S
C588 C587 1.371 1_545 S
C588 H597 0.931 . S
C589 C585 1.328 . S
C589 C590 1.433 1_545 S
C589 H598 0.931 . S
C590 C586 1.323 . S
C590 C589 1.433 1_565 S
C590 H599 0.933 . S
C591 Dy561 2.738 . S
C591 O571 1.255 . S
C591 O572 1.249 . S
C591 C585 1.516 . S
H592 C578 0.930 . S
H593 C579 0.931 . S
H594 C580 0.931 . S
H595 C581 0.933 . S
H596 C587 0.930 . S
H597 C588 0.931 . S
H598 C589 0.931 . S
H599 C590 0.933 . S
Dy600 O603 2.307 . S
Dy600 O605 2.395 . S
Dy600 O606 2.379 . S
Dy600 O608 2.339 . S
Dy600 O610 2.298 . S
Dy600 O614 2.275 . S
Dy600 C622 2.738 . S
Dy601 O604 2.298 . S
Dy601 O607 2.275 . S
Dy601 O609 2.307 . S
Dy601 O611 2.395 . S
Dy601 O612 2.379 . S
Dy601 O615 2.339 . S
Dy601 C631 2.738 . S
C602 O614 1.254 . S
C602 O615 1.257 . S
O603 Dy600 2.307 . S
O603 C613 1.266 . S
O604 Dy601 2.298 . S
O604 C613 1.236 . S
O605 Dy600 2.395 . S
O605 C622 1.255 . S
O606 Dy600 2.379 . S
O606 C622 1.249 . S
O607 Dy601 2.275 . S
O607 C623 1.254 . S
O608 Dy600 2.339 . S
O608 C623 1.257 . S
O609 Dy601 2.307 . S
O609 C624 1.266 . S
O610 Dy600 2.298 . S
O610 C624 1.236 . S
O611 Dy601 2.395 . S
O611 C631 1.255 . S
O612 Dy601 2.379 . S
O612 C631 1.249 . S
C613 O603 1.266 . S
C613 O604 1.236 . S
O614 Dy600 2.275 . S
O614 C602 1.254 . S
O615 Dy601 2.339 . S
O615 C602 1.257 . S
C616 C619 1.344 . S
C616 C620 1.328 . S
C616 C622 1.516 1_565 S
C617 C618 1.304 . S
C617 C621 1.323 . S
C618 C617 1.304 . S
C618 C619 1.371 . S
C618 H632 0.930 . S
C619 C616 1.344 . S
C619 C618 1.371 . S
C619 H633 0.931 . S
C620 C616 1.328 . S
C620 C621 1.433 . S
C620 H634 0.931 . S
C621 C617 1.323 . S
C621 C620 1.433 . S
C621 H635 0.933 . S
C622 Dy600 2.738 . S
C622 O605 1.255 . S
C622 O606 1.249 . S
C622 C616 1.516 1_545 S
C623 O607 1.254 . S
C623 O608 1.257 . S
C624 O609 1.266 . S
C624 O610 1.236 . S
C625 C628 1.344 . S
C625 C629 1.328 . S
C625 C631 1.516 . S
C626 C627 1.304 . S
C626 C630 1.323 . S
C627 C626 1.304 . S
C627 C628 1.371 . S
C627 H636 0.930 . S
C628 C625 1.344 . S
C628 C627 1.371 . S
C628 H637 0.931 . S
C629 C625 1.328 . S
C629 C630 1.433 . S
C629 H638 0.931 . S
C630 C626 1.323 . S
C630 C629 1.433 . S
C630 H639 0.933 . S
C631 Dy601 2.738 . S
C631 O611 1.255 . S
C631 O612 1.249 . S
C631 C625 1.516 . S
H632 C618 0.930 . S
H633 C619 0.931 . S
H634 C620 0.931 . S
H635 C621 0.933 . S
H636 C627 0.930 . S
H637 C628 0.931 . S
H638 C629 0.931 . S
H639 C630 0.933 . S
Dy640 O643 2.307 . S
Dy640 O645 2.395 1_655 S
Dy640 O646 2.379 1_655 S
Dy640 O648 2.339 . S
Dy640 O650 2.298 . S
Dy640 O654 2.275 . S
Dy640 C662 2.738 1_655 S
Dy641 O644 2.298 . S
Dy641 O647 2.275 . S
Dy641 O649 2.307 . S
Dy641 O651 2.395 . S
Dy641 O652 2.379 . S
Dy641 O655 2.339 . S
Dy641 C671 2.738 . S
C642 O654 1.254 . S
C642 O655 1.257 . S
O643 Dy640 2.307 . S
O643 C653 1.266 . S
O644 Dy641 2.298 . S
O644 C653 1.236 . S
O645 Dy640 2.395 1_455 S
O645 C662 1.255 . S
O646 Dy640 2.379 1_455 S
O646 C662 1.249 . S
O647 Dy641 2.275 . S
O647 C663 1.254 . S
O648 Dy640 2.339 . S
O648 C663 1.257 . S
O649 Dy641 2.307 . S
O649 C664 1.266 . S
O650 Dy640 2.298 . S
O650 C664 1.236 . S
O651 Dy641 2.395 . S
O651 C671 1.255 . S
O652 Dy641 2.379 . S
O652 C671 1.249 . S
C653 O643 1.266 . S
C653 O644 1.236 . S
O654 Dy640 2.275 . S
O654 C642 1.254 . S
O655 Dy641 2.339 . S
O655 C642 1.257 . S
C656 C659 1.344 . S
C656 C660 1.328 . S
C656 C662 1.516 . S
C657 C658 1.304 . S
C657 C661 1.323 . S
C658 C657 1.304 . S
C658 C659 1.371 . S
C658 H672 0.930 . S
C659 C656 1.344 . S
C659 C658 1.371 . S
C659 H673 0.931 . S
C660 C656 1.328 . S
C660 C661 1.433 . S
C660 H674 0.931 . S
C661 C657 1.323 . S
C661 C660 1.433 . S
C661 H675 0.933 . S
C662 Dy640 2.738 1_455 S
C662 O645 1.255 . S
C662 O646 1.249 . S
C662 C656 1.516 . S
C663 O647 1.254 . S
C663 O648 1.257 . S
C664 O649 1.266 . S
C664 O650 1.236 . S
C665 C668 1.344 . S
C665 C669 1.328 . S
C665 C671 1.516 . S
C666 C667 1.304 . S
C666 C670 1.323 . S
C667 C666 1.304 . S
C667 C668 1.371 . S
C667 H676 0.930 . S
C668 C665 1.344 . S
C668 C667 1.371 . S
C668 H677 0.931 . S
C669 C665 1.328 . S
C669 C670 1.433 . S
C669 H678 0.931 . S
C670 C666 1.323 . S
C670 C669 1.433 . S
C670 H679 0.933 . S
C671 Dy641 2.738 . S
C671 O651 1.255 . S
C671 O652 1.249 . S
C671 C665 1.516 . S
H672 C658 0.930 . S
H673 C659 0.931 . S
H674 C660 0.931 . S
H675 C661 0.933 . S
H676 C667 0.930 . S
H677 C668 0.931 . S
H678 C669 0.931 . S
H679 C670 0.933 . S
Dy680 O683 2.307 . S
Dy680 O685 2.395 . S
Dy680 O686 2.379 . S
Dy680 O688 2.339 . S
Dy680 O690 2.298 . S
Dy680 O694 2.275 . S
Dy680 C702 2.738 . S
Dy681 O684 2.298 . S
Dy681 O687 2.275 . S
Dy681 O689 2.307 . S
Dy681 O691 2.395 . S
Dy681 O692 2.379 . S
Dy681 O695 2.339 . S
Dy681 C711 2.738 . S
C682 O694 1.254 . S
C682 O695 1.257 . S
O683 Dy680 2.307 . S
O683 C693 1.266 . S
O684 Dy681 2.298 . S
O684 C693 1.236 . S
O685 Dy680 2.395 . S
O685 C702 1.255 . S
O686 Dy680 2.379 . S
O686 C702 1.249 . S
O687 Dy681 2.275 . S
O687 C703 1.254 . S
O688 Dy680 2.339 . S
O688 C703 1.257 . S
O689 Dy681 2.307 . S
O689 C704 1.266 . S
O690 Dy680 2.298 . S
O690 C704 1.236 . S
O691 Dy681 2.395 . S
O691 C711 1.255 . S
O692 Dy681 2.379 . S
O692 C711 1.249 . S
C693 O683 1.266 . S
C693 O684 1.236 . S
O694 Dy680 2.275 . S
O694 C682 1.254 . S
O695 Dy681 2.339 . S
O695 C682 1.257 . S
C696 C699 1.344 . S
C696 C700 1.328 . S
C696 C702 1.516 . S
C697 C698 1.304 . S
C697 C701 1.323 . S
C698 C697 1.304 . S
C698 C699 1.371 . S
C698 H712 0.930 . S
C699 C696 1.344 . S
C699 C698 1.371 . S
C699 H713 0.931 . S
C700 C696 1.328 . S
C700 C701 1.433 . S
C700 H714 0.931 . S
C701 C697 1.323 . S
C701 C700 1.433 . S
C701 H715 0.933 . S
C702 Dy680 2.738 . S
C702 O685 1.255 . S
C702 O686 1.249 . S
C702 C696 1.516 . S
C703 O687 1.254 . S
C703 O688 1.257 . S
C704 O689 1.266 . S
C704 O690 1.236 . S
C705 C708 1.344 . S
C705 C709 1.328 . S
C705 C711 1.516 . S
C706 C707 1.304 . S
C706 C710 1.323 . S
C707 C706 1.304 . S
C707 C708 1.371 . S
C707 H716 0.930 . S
C708 C705 1.344 . S
C708 C707 1.371 . S
C708 H717 0.931 . S
C709 C705 1.328 . S
C709 C710 1.433 . S
C709 H718 0.931 . S
C710 C706 1.323 . S
C710 C709 1.433 . S
C710 H719 0.933 . S
C711 Dy681 2.738 . S
C711 O691 1.255 . S
C711 O692 1.249 . S
C711 C705 1.516 . S
H712 C698 0.930 . S
H713 C699 0.931 . S
H714 C700 0.931 . S
H715 C701 0.933 . S
H716 C707 0.930 . S
H717 C708 0.931 . S
H718 C709 0.931 . S
H719 C710 0.933 . S
C720 C721 1.363 . S
C720 C726 1.379 . S
C720 N728 1.356 . S
C721 C720 1.363 . S
C721 C727 1.363 . S
C722 C723 1.363 . S
C722 C727 1.379 . S
C722 N729 1.356 . S
C723 C722 1.363 . S
C723 C726 1.363 . S
N724 C726 1.356 . S
N724 H736 0.984 . S
N724 H737 0.985 . S
N725 C727 1.356 . S
N725 H730 0.984 . S
N725 H731 0.985 . S
C726 C720 1.379 . S
C726 C723 1.363 . S
C726 N724 1.356 . S
C727 C721 1.363 . S
C727 C722 1.379 . S
C727 N725 1.356 . S
N728 C720 1.356 . S
N728 H734 0.984 . S
N728 H735 0.984 . S
N729 C722 1.356 . S
N729 H732 0.984 . S
N729 H733 0.985 . S
H730 N725 0.984 . S
H731 N725 0.985 . S
H732 N729 0.984 . S
H733 N729 0.985 . S
H734 N728 0.984 . S
H735 N728 0.984 . S
H736 N724 0.984 . S
H737 N724 0.985 . S
C738 C739 1.363 . S
C738 C744 1.379 . S
C738 N746 1.356 . S
C739 C738 1.363 . S
C739 C745 1.363 . S
C740 C741 1.363 . S
C740 C745 1.379 . S
C740 N747 1.356 . S
C741 C740 1.363 . S
C741 C744 1.363 . S
N742 C744 1.356 . S
N742 H754 0.984 . S
N742 H755 0.985 . S
N743 C745 1.356 . S
N743 H748 0.984 . S
N743 H749 0.985 . S
C744 C738 1.379 . S
C744 C741 1.363 . S
C744 N742 1.356 . S
C745 C739 1.363 . S
C745 C740 1.379 . S
C745 N743 1.356 . S
N746 C738 1.356 . S
N746 H752 0.984 . S
N746 H753 0.984 . S
N747 C740 1.356 . S
N747 H750 0.984 . S
N747 H751 0.985 . S
H748 N743 0.984 . S
H749 N743 0.985 . S
H750 N747 0.984 . S
H751 N747 0.985 . S
H752 N746 0.984 . S
H753 N746 0.984 . S
H754 N742 0.984 . S
H755 N742 0.985 . S
C756 C757 1.363 . S
C756 C762 1.379 . S
C756 N764 1.356 . S
C757 C756 1.363 . S
C757 C763 1.363 . S
C758 C759 1.363 . S
C758 C763 1.379 . S
C758 N765 1.356 . S
C759 C758 1.363 . S
C759 C762 1.363 . S
N760 C762 1.356 . S
N760 H772 0.984 . S
N760 H773 0.985 . S
N761 C763 1.356 . S
N761 H766 0.984 . S
N761 H767 0.985 . S
C762 C756 1.379 . S
C762 C759 1.363 . S
C762 N760 1.356 . S
C763 C757 1.363 . S
C763 C758 1.379 . S
C763 N761 1.356 . S
N764 C756 1.356 . S
N764 H770 0.984 . S
N764 H771 0.984 . S
N765 C758 1.356 . S
N765 H768 0.984 . S
N765 H769 0.985 . S
H766 N761 0.984 . S
H767 N761 0.985 . S
H768 N765 0.984 . S
H769 N765 0.985 . S
H770 N764 0.984 . S
H771 N764 0.984 . S
H772 N760 0.984 . S
H773 N760 0.985 . S
C774 C775 1.363 . S
C774 C780 1.379 . S
C774 N782 1.356 . S
C775 C774 1.363 . S
C775 C781 1.363 . S
C776 C777 1.363 . S
C776 C781 1.379 . S
C776 N783 1.356 . S
C777 C776 1.363 . S
C777 C780 1.363 . S
N778 C780 1.356 . S
N778 H790 0.984 . S
N778 H791 0.985 . S
N779 C781 1.356 . S
N779 H784 0.984 . S
N779 H785 0.985 . S
C780 C774 1.379 . S
C780 C777 1.363 . S
C780 N778 1.356 . S
C781 C775 1.363 . S
C781 C776 1.379 . S
C781 N779 1.356 . S
N782 C774 1.356 . S
N782 H788 0.984 . S
N782 H789 0.984 . S
N783 C776 1.356 . S
N783 H786 0.984 . S
N783 H787 0.985 . S
H784 N779 0.984 . S
H785 N779 0.985 . S
H786 N783 0.984 . S
H787 N783 0.985 . S
H788 N782 0.984 . S
H789 N782 0.984 . S
H790 N778 0.984 . S
H791 N778 0.985 . S
C792 C793 1.363 . S
C792 C798 1.379 . S
C792 N800 1.356 . S
C793 C792 1.363 . S
C793 C799 1.363 . S
C794 C795 1.363 . S
C794 C799 1.379 . S
C794 N801 1.356 . S
C795 C794 1.363 . S
C795 C798 1.363 . S
N796 C798 1.356 . S
N796 H808 0.984 . S
N796 H809 0.985 . S
N797 C799 1.356 . S
N797 H802 0.984 . S
N797 H803 0.985 . S
C798 C792 1.379 . S
C798 C795 1.363 . S
C798 N796 1.356 . S
C799 C793 1.363 . S
C799 C794 1.379 . S
C799 N797 1.356 . S
N800 C792 1.356 . S
N800 H806 0.984 . S
N800 H807 0.984 . S
N801 C794 1.356 . S
N801 H804 0.984 . S
N801 H805 0.985 . S
H802 N797 0.984 . S
H803 N797 0.985 . S
H804 N801 0.984 . S
H805 N801 0.985 . S
H806 N800 0.984 . S
H807 N800 0.984 . S
H808 N796 0.984 . S
H809 N796 0.985 . S
C810 C811 1.363 . S
C810 C816 1.379 . S
C810 N818 1.356 . S
C811 C810 1.363 . S
C811 C817 1.363 . S
C812 C813 1.363 . S
C812 C817 1.379 . S
C812 N819 1.356 . S
C813 C812 1.363 . S
C813 C816 1.363 . S
N814 C816 1.356 . S
N814 H826 0.984 . S
N814 H827 0.985 . S
N815 C817 1.356 . S
N815 H820 0.984 . S
N815 H821 0.985 . S
C816 C810 1.379 . S
C816 C813 1.363 . S
C816 N814 1.356 . S
C817 C811 1.363 . S
C817 C812 1.379 . S
C817 N815 1.356 . S
N818 C810 1.356 . S
N818 H824 0.984 . S
N818 H825 0.984 . S
N819 C812 1.356 . S
N819 H822 0.984 . S
N819 H823 0.985 . S
H820 N815 0.984 . S
H821 N815 0.985 . S
H822 N819 0.984 . S
H823 N819 0.985 . S
H824 N818 0.984 . S
H825 N818 0.984 . S
H826 N814 0.984 . S
H827 N814 0.985 . S
C828 C829 1.363 . S
C828 C834 1.379 . S
C828 N836 1.356 . S
C829 C828 1.363 . S
C829 C835 1.363 . S
C830 C831 1.363 . S
C830 C835 1.379 . S
C830 N837 1.356 . S
C831 C830 1.363 . S
C831 C834 1.363 . S
N832 C834 1.356 . S
N832 H844 0.984 . S
N832 H845 0.985 . S
N833 C835 1.356 . S
N833 H838 0.984 . S
N833 H839 0.985 . S
C834 C828 1.379 . S
C834 C831 1.363 . S
C834 N832 1.356 . S
C835 C829 1.363 . S
C835 C830 1.379 . S
C835 N833 1.356 . S
N836 C828 1.356 . S
N836 H842 0.984 . S
N836 H843 0.984 . S
N837 C830 1.356 . S
N837 H840 0.984 . S
N837 H841 0.985 . S
H838 N833 0.984 . S
H839 N833 0.985 . S
H840 N837 0.984 . S
H841 N837 0.985 . S
H842 N836 0.984 . S
H843 N836 0.984 . S
H844 N832 0.984 . S
H845 N832 0.985 . S
C846 C847 1.363 . S
C846 C852 1.379 1_545 S
C846 N854 1.356 . S
C847 C846 1.363 . S
C847 C853 1.363 . S
C848 C849 1.363 . S
C848 C853 1.379 1_565 S
C848 N855 1.356 . S
C849 C848 1.363 . S
C849 C852 1.363 . S
N850 C852 1.356 . S
N850 H862 0.984 . S
N850 H863 0.985 . S
N851 C853 1.356 . S
N851 H856 0.984 . S
N851 H857 0.985 . S
C852 C846 1.379 1_565 S
C852 C849 1.363 . S
C852 N850 1.356 . S
C853 C847 1.363 . S
C853 C848 1.379 1_545 S
C853 N851 1.356 . S
N854 C846 1.356 . S
N854 H860 0.984 . S
N854 H861 0.984 . S
N855 C848 1.356 . S
N855 H858 0.984 . S
N855 H859 0.985 . S
H856 N851 0.984 . S
H857 N851 0.985 . S
H858 N855 0.984 . S
H859 N855 0.985 . S
H860 N854 0.984 . S
H861 N854 0.984 . S
H862 N850 0.984 . S
H863 N850 0.985 . S
C864 C865 1.363 . S
C864 C870 1.379 . S
C864 N872 1.356 . S
C865 C864 1.363 . S
C865 C871 1.363 . S
C866 C867 1.363 1_455 S
C866 C871 1.379 . S
C866 N873 1.356 1_455 S
C867 C866 1.363 1_655 S
C867 C870 1.363 1_655 S
N868 C870 1.356 1_655 S
N868 H880 0.984 . S
N868 H881 0.985 . S
N869 C871 1.356 . S
N869 H874 0.984 . S
N869 H875 0.985 . S
C870 C864 1.379 . S
C870 C867 1.363 1_455 S
C870 N868 1.356 1_455 S
C871 C865 1.363 . S
C871 C866 1.379 . S
C871 N869 1.356 . S
N872 C864 1.356 . S
N872 H878 0.984 . S
N872 H879 0.984 . S
N873 C866 1.356 1_655 S
N873 H876 0.984 . S
N873 H877 0.985 1_655 S
H874 N869 0.984 . S
H875 N869 0.985 . S
H876 N873 0.984 . S
H877 N873 0.985 1_455 S
H878 N872 0.984 . S
H879 N872 0.984 . S
H880 N868 0.984 . S
H881 N868 0.985 . S
C882 C883 1.363 . S
C882 C888 1.379 . S
C882 N890 1.356 . S
C883 C882 1.363 . S
C883 C889 1.363 . S
C884 C885 1.363 . S
C884 C889 1.379 . S
C884 N891 1.356 . S
C885 C884 1.363 . S
C885 C888 1.363 . S
N886 C888 1.356 . S
N886 H898 0.984 . S
N886 H899 0.985 . S
N887 C889 1.356 . S
N887 H892 0.984 . S
N887 H893 0.985 . S
C888 C882 1.379 . S
C888 C885 1.363 . S
C888 N886 1.356 . S
C889 C883 1.363 . S
C889 C884 1.379 . S
C889 N887 1.356 . S
N890 C882 1.356 . S
N890 H896 0.984 . S
N890 H897 0.984 . S
N891 C884 1.356 . S
N891 H894 0.984 . S
N891 H895 0.985 . S
H892 N887 0.984 . S
H893 N887 0.985 . S
H894 N891 0.984 . S
H895 N891 0.985 . S
H896 N890 0.984 . S
H897 N890 0.984 . S
H898 N886 0.984 . S
H899 N886 0.985 . S
C900 C901 1.363 . S
C900 C906 1.379 . S
C900 N908 1.356 . S
C901 C900 1.363 . S
C901 C907 1.363 . S
C902 C903 1.363 . S
C902 C907 1.379 . S
C902 N909 1.356 . S
C903 C902 1.363 . S
C903 C906 1.363 . S
N904 C906 1.356 . S
N904 H916 0.984 . S
N904 H917 0.985 . S
N905 C907 1.356 . S
N905 H910 0.984 . S
N905 H911 0.985 . S
C906 C900 1.379 . S
C906 C903 1.363 . S
C906 N904 1.356 . S
C907 C901 1.363 . S
C907 C902 1.379 . S
C907 N905 1.356 . S
N908 C900 1.356 . S
N908 H914 0.984 . S
N908 H915 0.984 . S
N909 C902 1.356 . S
N909 H912 0.984 . S
N909 H913 0.985 . S
H910 N905 0.984 . S
H911 N905 0.985 . S
H912 N909 0.984 . S
H913 N909 0.985 . S
H914 N908 0.984 . S
H915 N908 0.984 . S
H916 N904 0.984 . S
H917 N904 0.985 . S
C918 C919 1.363 . S
C918 C924 1.379 . S
C918 N926 1.356 . S
C919 C918 1.363 . S
C919 C925 1.363 . S
C920 C921 1.363 . S
C920 C925 1.379 . S
C920 N927 1.356 . S
C921 C920 1.363 . S
C921 C924 1.363 . S
N922 C924 1.356 . S
N922 H934 0.984 . S
N922 H935 0.985 . S
N923 C925 1.356 . S
N923 H928 0.984 . S
N923 H929 0.985 . S
C924 C918 1.379 . S
C924 C921 1.363 . S
C924 N922 1.356 . S
C925 C919 1.363 . S
C925 C920 1.379 . S
C925 N923 1.356 . S
N926 C918 1.356 . S
N926 H932 0.984 . S
N926 H933 0.984 . S
N927 C920 1.356 . S
N927 H930 0.984 . S
N927 H931 0.985 . S
H928 N923 0.984 . S
H929 N923 0.985 . S
H930 N927 0.984 . S
H931 N927 0.985 . S
H932 N926 0.984 . S
H933 N926 0.984 . S
H934 N922 0.984 . S
H935 N922 0.985 . S
C936 C937 1.363 . S
C936 C942 1.379 . S
C936 N944 1.356 . S
C937 C936 1.363 . S
C937 C943 1.363 . S
C938 C939 1.363 . S
C938 C943 1.379 . S
C938 N945 1.356 . S
C939 C938 1.363 . S
C939 C942 1.363 . S
N940 C942 1.356 . S
N940 H952 0.984 . S
N940 H953 0.985 . S
N941 C943 1.356 . S
N941 H946 0.984 . S
N941 H947 0.985 . S
C942 C936 1.379 . S
C942 C939 1.363 . S
C942 N940 1.356 . S
C943 C937 1.363 . S
C943 C938 1.379 . S
C943 N941 1.356 . S
N944 C936 1.356 . S
N944 H950 0.984 . S
N944 H951 0.984 . S
N945 C938 1.356 . S
N945 H948 0.984 . S
N945 H949 0.985 . S
H946 N941 0.984 . S
H947 N941 0.985 . S
H948 N945 0.984 . S
H949 N945 0.985 . S
H950 N944 0.984 . S
H951 N944 0.984 . S
H952 N940 0.984 . S
H953 N940 0.985 . S
C954 C955 1.363 . S
C954 C960 1.379 . S
C954 N962 1.356 . S
C955 C954 1.363 . S
C955 C961 1.363 . S
C956 C957 1.363 . S
C956 C961 1.379 . S
C956 N963 1.356 . S
C957 C956 1.363 . S
C957 C960 1.363 . S
N958 C960 1.356 . S
N958 H970 0.984 . S
N958 H971 0.985 . S
N959 C961 1.356 . S
N959 H964 0.984 . S
N959 H965 0.985 . S
C960 C954 1.379 . S
C960 C957 1.363 . S
C960 N958 1.356 . S
C961 C955 1.363 . S
C961 C956 1.379 . S
C961 N959 1.356 . S
N962 C954 1.356 . S
N962 H968 0.984 . S
N962 H969 0.984 . S
N963 C956 1.356 . S
N963 H966 0.984 . S
N963 H967 0.985 . S
H964 N959 0.984 . S
H965 N959 0.985 . S
H966 N963 0.984 . S
H967 N963 0.985 . S
H968 N962 0.984 . S
H969 N962 0.984 . S
H970 N958 0.984 . S
H971 N958 0.985 . S
C972 C973 1.363 . S
C972 C978 1.379 . S
C972 N980 1.356 . S
C973 C972 1.363 . S
C973 C979 1.363 . S
C974 C975 1.363 . S
C974 C979 1.379 . S
C974 N981 1.356 . S
C975 C974 1.363 . S
C975 C978 1.363 . S
N976 C978 1.356 . S
N976 H988 0.984 . S
N976 H989 0.985 . S
N977 C979 1.356 . S
N977 H982 0.984 . S
N977 H983 0.985 . S
C978 C972 1.379 . S
C978 C975 1.363 . S
C978 N976 1.356 . S
C979 C973 1.363 . S
C979 C974 1.379 . S
C979 N977 1.356 . S
N980 C972 1.356 . S
N980 H986 0.984 . S
N980 H987 0.984 . S
N981 C974 1.356 . S
N981 H984 0.984 . S
N981 H985 0.985 . S
H982 N977 0.984 . S
H983 N977 0.985 . S
H984 N981 0.984 . S
H985 N981 0.985 . S
H986 N980 0.984 . S
H987 N980 0.984 . S
H988 N976 0.984 . S
H989 N976 0.985 . S
C990 C991 1.363 . S
C990 C996 1.379 . S
C990 N998 1.356 . S
C991 C990 1.363 . S
C991 C997 1.363 . S
C992 C993 1.363 . S
C992 C997 1.379 . S
C992 N999 1.356 . S
C993 C992 1.363 . S
C993 C996 1.363 . S
N994 C996 1.356 . S
N994 H1006 0.984 . S
N994 H1007 0.985 . S
N995 C997 1.356 . S
N995 H1000 0.984 . S
N995 H1001 0.985 . S
C996 C990 1.379 . S
C996 C993 1.363 . S
C996 N994 1.356 . S
C997 C991 1.363 . S
C997 C992 1.379 . S
C997 N995 1.356 . S
N998 C990 1.356 . S
N998 H1004 0.984 . S
N998 H1005 0.984 . S
N999 C992 1.356 . S
N999 H1002 0.984 . S
N999 H1003 0.985 . S
H1000 N995 0.984 . S
H1001 N995 0.985 . S
H1002 N999 0.984 . S
H1003 N999 0.985 . S
H1004 N998 0.984 . S
H1005 N998 0.984 . S
H1006 N994 0.984 . S
H1007 N994 0.985 . S
C1008 C1009 1.363 1_545 S
C1008 C1014 1.379 . S
C1008 N1016 1.356 . S
C1009 C1008 1.363 1_565 S
C1009 C1015 1.363 1_565 S
C1010 C1011 1.363 . S
C1010 C1015 1.379 . S
C1010 N1017 1.356 . S
C1011 C1010 1.363 . S
C1011 C1014 1.363 . S
N1012 C1014 1.356 . S
N1012 H1024 0.984 . S
N1012 H1025 0.985 . S
N1013 C1015 1.356 1_565 S
N1013 H1018 0.984 . S
N1013 H1019 0.985 . S
C1014 C1008 1.379 . S
C1014 C1011 1.363 . S
C1014 N1012 1.356 . S
C1015 C1009 1.363 1_545 S
C1015 C1010 1.379 . S
C1015 N1013 1.356 1_545 S
N1016 C1008 1.356 . S
N1016 H1022 0.984 . S
N1016 H1023 0.984 1_545 S
N1017 C1010 1.356 . S
N1017 H1020 0.984 . S
N1017 H1021 0.985 . S
H1018 N1013 0.984 . S
H1019 N1013 0.985 . S
H1020 N1017 0.984 . S
H1021 N1017 0.985 . S
H1022 N1016 0.984 . S
H1023 N1016 0.984 1_565 S
H1024 N1012 0.984 . S
H1025 N1012 0.985 . S
C1026 C1027 1.363 . S
C1026 C1032 1.379 1_455 S
C1026 N1034 1.356 . S
C1027 C1026 1.363 . S
C1027 C1033 1.363 . S
C1028 C1029 1.363 . S
C1028 C1033 1.379 1_655 S
C1028 N1035 1.356 . S
C1029 C1028 1.363 . S
C1029 C1032 1.363 . S
N1030 C1032 1.356 . S
N1030 H1042 0.984 . S
N1030 H1043 0.985 . S
N1031 C1033 1.356 . S
N1031 H1036 0.984 . S
N1031 H1037 0.985 . S
C1032 C1026 1.379 1_655 S
C1032 C1029 1.363 . S
C1032 N1030 1.356 . S
C1033 C1027 1.363 . S
C1033 C1028 1.379 1_455 S
C1033 N1031 1.356 . S
N1034 C1026 1.356 . S
N1034 H1040 0.984 . S
N1034 H1041 0.984 . S
N1035 C1028 1.356 . S
N1035 H1038 0.984 . S
N1035 H1039 0.985 . S
H1036 N1031 0.984 . S
H1037 N1031 0.985 . S
H1038 N1035 0.984 . S
H1039 N1035 0.985 . S
H1040 N1034 0.984 . S
H1041 N1034 0.984 . S
H1042 N1030 0.984 . S
H1043 N1030 0.985 . S
C1044 C1045 1.363 1_565 S
C1044 C1050 1.379 1_554 S
C1044 N1052 1.356 . S
C1045 C1044 1.363 1_545 S
C1045 C1051 1.363 . S
C1046 C1047 1.363 . S
C1046 C1051 1.379 1_556 S
C1046 N1053 1.356 . S
C1047 C1046 1.363 . S
C1047 C1050 1.363 1_545 S
N1048 C1050 1.356 . S
N1048 H1060 0.984 . S
N1048 H1061 0.985 . S
N1049 C1051 1.356 . S
N1049 H1054 0.984 . S
N1049 H1055 0.985 . S
C1050 C1044 1.379 1_556 S
C1050 C1047 1.363 1_565 S
C1050 N1048 1.356 . S
C1051 C1045 1.363 . S
C1051 C1046 1.379 1_554 S
C1051 N1049 1.356 . S
N1052 C1044 1.356 . S
N1052 H1058 0.984 . S
N1052 H1059 0.984 . S
N1053 C1046 1.356 . S
N1053 H1056 0.984 . S
N1053 H1057 0.985 . S
H1054 N1049 0.984 . S
H1055 N1049 0.985 . S
H1056 N1053 0.984 . S
H1057 N1053 0.985 . S
H1058 N1052 0.984 . S
H1059 N1052 0.984 . S
H1060 N1048 0.984 . S
H1061 N1048 0.985 . S
C1062 C1063 1.363 . S
C1062 C1068 1.379 1_556 S
C1062 N1070 1.356 . S
C1063 C1062 1.363 . S
C1063 C1069 1.363 1_455 S
C1064 C1065 1.363 1_655 S
C1064 C1069 1.379 1_554 S
C1064 N1071 1.356 . S
C1065 C1064 1.363 1_455 S
C1065 C1068 1.363 . S
N1066 C1068 1.356 . S
N1066 H1078 0.984 . S
N1066 H1079 0.985 . S
N1067 C1069 1.356 . S
N1067 H1072 0.984 . S
N1067 H1073 0.985 . S
C1068 C1062 1.379 1_554 S
C1068 C1065 1.363 . S
C1068 N1066 1.356 . S
C1069 C1063 1.363 1_655 S
C1069 C1064 1.379 1_556 S
C1069 N1067 1.356 . S
N1070 C1062 1.356 . S
N1070 H1076 0.984 . S
N1070 H1077 0.984 . S
N1071 C1064 1.356 . S
N1071 H1074 0.984 . S
N1071 H1075 0.985 . S
H1072 N1067 0.984 . S
H1073 N1067 0.985 . S
H1074 N1071 0.984 . S
H1075 N1071 0.985 . S
H1076 N1070 0.984 . S
H1077 N1070 0.984 . S
H1078 N1066 0.984 . S
H1079 N1066 0.985 . S
C1080 C1081 1.363 . S
C1080 C1086 1.379 1_556 S
C1080 N1088 1.356 . S
C1081 C1080 1.363 . S
C1081 C1087 1.363 . S
C1082 C1083 1.363 . S
C1082 C1087 1.379 1_554 S
C1082 N1089 1.356 . S
C1083 C1082 1.363 . S
C1083 C1086 1.363 . S
N1084 C1086 1.356 . S
N1084 H1096 0.984 . S
N1084 H1097 0.985 . S
N1085 C1087 1.356 . S
N1085 H1090 0.984 . S
N1085 H1091 0.985 . S
C1086 C1080 1.379 1_554 S
C1086 C1083 1.363 . S
C1086 N1084 1.356 . S
C1087 C1081 1.363 . S
C1087 C1082 1.379 1_556 S
C1087 N1085 1.356 . S
N1088 C1080 1.356 . S
N1088 H1094 0.984 . S
N1088 H1095 0.984 . S
N1089 C1082 1.356 . S
N1089 H1092 0.984 . S
N1089 H1093 0.985 . S
H1090 N1085 0.984 . S
H1091 N1085 0.985 . S
H1092 N1089 0.984 . S
H1093 N1089 0.985 . S
H1094 N1088 0.984 . S
H1095 N1088 0.984 . S
H1096 N1084 0.984 . S
H1097 N1084 0.985 . S
C1098 C1099 1.363 . S
C1098 C1104 1.379 . S
C1098 N1106 1.356 . S
C1099 C1098 1.363 . S
C1099 C1105 1.363 . S
C1100 C1101 1.363 . S
C1100 C1105 1.379 . S
C1100 N1107 1.356 . S
C1101 C1100 1.363 . S
C1101 C1104 1.363 . S
N1102 C1104 1.356 . S
N1102 H1114 0.984 . S
N1102 H1115 0.985 . S
N1103 C1105 1.356 . S
N1103 H1108 0.984 . S
N1103 H1109 0.985 . S
C1104 C1098 1.379 . S
C1104 C1101 1.363 . S
C1104 N1102 1.356 . S
C1105 C1099 1.363 . S
C1105 C1100 1.379 . S
C1105 N1103 1.356 . S
N1106 C1098 1.356 . S
N1106 H1112 0.984 . S
N1106 H1113 0.984 . S
N1107 C1100 1.356 . S
N1107 H1110 0.984 . S
N1107 H1111 0.985 . S
H1108 N1103 0.984 . S
H1109 N1103 0.985 . S
H1110 N1107 0.984 . S
H1111 N1107 0.985 . S
H1112 N1106 0.984 . S
H1113 N1106 0.984 . S
H1114 N1102 0.984 . S
H1115 N1102 0.985 . S
C1116 C1117 1.363 . S
C1116 C1122 1.379 . S
C1116 N1124 1.356 . S
C1117 C1116 1.363 . S
C1117 C1123 1.363 . S
C1118 C1119 1.363 . S
C1118 C1123 1.379 . S
C1118 N1125 1.356 . S
C1119 C1118 1.363 . S
C1119 C1122 1.363 . S
N1120 C1122 1.356 . S
N1120 H1132 0.984 . S
N1120 H1133 0.985 . S
N1121 C1123 1.356 . S
N1121 H1126 0.984 . S
N1121 H1127 0.985 . S
C1122 C1116 1.379 . S
C1122 C1119 1.363 . S
C1122 N1120 1.356 . S
C1123 C1117 1.363 . S
C1123 C1118 1.379 . S
C1123 N1121 1.356 . S
N1124 C1116 1.356 . S
N1124 H1130 0.984 . S
N1124 H1131 0.984 . S
N1125 C1118 1.356 . S
N1125 H1128 0.984 . S
N1125 H1129 0.985 . S
H1126 N1121 0.984 . S
H1127 N1121 0.985 . S
H1128 N1125 0.984 . S
H1129 N1125 0.985 . S
H1130 N1124 0.984 . S
H1131 N1124 0.984 . S
H1132 N1120 0.984 . S
H1133 N1120 0.985 . S
C1134 C1135 1.363 . S
C1134 C1140 1.379 . S
C1134 N1142 1.356 . S
C1135 C1134 1.363 . S
C1135 C1141 1.363 . S
C1136 C1137 1.363 . S
C1136 C1141 1.379 . S
C1136 N1143 1.356 . S
C1137 C1136 1.363 . S
C1137 C1140 1.363 . S
N1138 C1140 1.356 . S
N1138 H1150 0.984 . S
N1138 H1151 0.985 . S
N1139 C1141 1.356 . S
N1139 H1144 0.984 . S
N1139 H1145 0.985 . S
C1140 C1134 1.379 . S
C1140 C1137 1.363 . S
C1140 N1138 1.356 . S
C1141 C1135 1.363 . S
C1141 C1136 1.379 . S
C1141 N1139 1.356 . S
N1142 C1134 1.356 . S
N1142 H1148 0.984 . S
N1142 H1149 0.984 . S
N1143 C1136 1.356 . S
N1143 H1146 0.984 . S
N1143 H1147 0.985 . S
H1144 N1139 0.984 . S
H1145 N1139 0.985 . S
H1146 N1143 0.984 . S
H1147 N1143 0.985 . S
H1148 N1142 0.984 . S
H1149 N1142 0.984 . S
H1150 N1138 0.984 . S
H1151 N1138 0.985 . S
C1152 C1153 1.363 . S
C1152 C1158 1.379 . S
C1152 N1160 1.356 . S
C1153 C1152 1.363 . S
C1153 C1159 1.363 . S
C1154 C1155 1.363 . S
C1154 C1159 1.379 . S
C1154 N1161 1.356 . S
C1155 C1154 1.363 . S
C1155 C1158 1.363 . S
N1156 C1158 1.356 . S
N1156 H1168 0.984 . S
N1156 H1169 0.985 . S
N1157 C1159 1.356 . S
N1157 H1162 0.984 . S
N1157 H1163 0.985 . S
C1158 C1152 1.379 . S
C1158 C1155 1.363 . S
C1158 N1156 1.356 . S
C1159 C1153 1.363 . S
C1159 C1154 1.379 . S
C1159 N1157 1.356 . S
N1160 C1152 1.356 . S
N1160 H1166 0.984 . S
N1160 H1167 0.984 . S
N1161 C1154 1.356 . S
N1161 H1164 0.984 . S
N1161 H1165 0.985 . S
H1162 N1157 0.984 . S
H1163 N1157 0.985 . S
H1164 N1161 0.984 . S
H1165 N1161 0.985 . S
H1166 N1160 0.984 . S
H1167 N1160 0.984 . S
H1168 N1156 0.984 . S
H1169 N1156 0.985 . S
C1170 C1171 1.363 . S
C1170 C1176 1.379 . S
C1170 N1178 1.356 . S
C1171 C1170 1.363 . S
C1171 C1177 1.363 . S
C1172 C1173 1.363 . S
C1172 C1177 1.379 . S
C1172 N1179 1.356 . S
C1173 C1172 1.363 . S
C1173 C1176 1.363 . S
N1174 C1176 1.356 . S
N1174 H1186 0.984 . S
N1174 H1187 0.985 . S
N1175 C1177 1.356 . S
N1175 H1180 0.984 . S
N1175 H1181 0.985 . S
C1176 C1170 1.379 . S
C1176 C1173 1.363 . S
C1176 N1174 1.356 . S
C1177 C1171 1.363 . S
C1177 C1172 1.379 . S
C1177 N1175 1.356 . S
N1178 C1170 1.356 . S
N1178 H1184 0.984 . S
N1178 H1185 0.984 . S
N1179 C1172 1.356 . S
N1179 H1182 0.984 . S
N1179 H1183 0.985 . S
H1180 N1175 0.984 . S
H1181 N1175 0.985 . S
H1182 N1179 0.984 . S
H1183 N1179 0.985 . S
H1184 N1178 0.984 . S
H1185 N1178 0.984 . S
H1186 N1174 0.984 . S
H1187 N1174 0.985 . S
C1188 C1189 1.363 . S
C1188 C1194 1.379 . S
C1188 N1196 1.356 . S
C1189 C1188 1.363 . S
C1189 C1195 1.363 . S
C1190 C1191 1.363 . S
C1190 C1195 1.379 . S
C1190 N1197 1.356 . S
C1191 C1190 1.363 . S
C1191 C1194 1.363 . S
N1192 C1194 1.356 . S
N1192 H1204 0.984 . S
N1192 H1205 0.985 . S
N1193 C1195 1.356 . S
N1193 H1198 0.984 . S
N1193 H1199 0.985 . S
C1194 C1188 1.379 . S
C1194 C1191 1.363 . S
C1194 N1192 1.356 . S
C1195 C1189 1.363 . S
C1195 C1190 1.379 . S
C1195 N1193 1.356 . S
N1196 C1188 1.356 . S
N1196 H1202 0.984 . S
N1196 H1203 0.984 . S
N1197 C1190 1.356 . S
N1197 H1200 0.984 . S
N1197 H1201 0.985 . S
H1198 N1193 0.984 . S
H1199 N1193 0.985 . S
H1200 N1197 0.984 . S
H1201 N1197 0.985 . S
H1202 N1196 0.984 . S
H1203 N1196 0.984 . S
H1204 N1192 0.984 . S
H1205 N1192 0.985 . S
C1206 C1207 1.363 . S
C1206 C1212 1.379 . S
C1206 N1214 1.356 . S
C1207 C1206 1.363 . S
C1207 C1213 1.363 . S
C1208 C1209 1.363 . S
C1208 C1213 1.379 . S
C1208 N1215 1.356 1_565 S
C1209 C1208 1.363 . S
C1209 C1212 1.363 . S
N1210 C1212 1.356 . S
N1210 H1222 0.984 . S
N1210 H1223 0.985 . S
N1211 C1213 1.356 . S
N1211 H1216 0.984 . S
N1211 H1217 0.985 . S
C1212 C1206 1.379 . S
C1212 C1209 1.363 . S
C1212 N1210 1.356 . S
C1213 C1207 1.363 . S
C1213 C1208 1.379 . S
C1213 N1211 1.356 . S
N1214 C1206 1.356 . S
N1214 H1220 0.984 . S
N1214 H1221 0.984 . S
N1215 C1208 1.356 1_545 S
N1215 H1218 0.984 . S
N1215 H1219 0.985 . S
H1216 N1211 0.984 . S
H1217 N1211 0.985 . S
H1218 N1215 0.984 . S
H1219 N1215 0.985 . S
H1220 N1214 0.984 . S
H1221 N1214 0.984 . S
H1222 N1210 0.984 . S
H1223 N1210 0.985 . S
C1224 C1225 1.363 . S
C1224 C1230 1.379 . S
C1224 N1232 1.356 . S
C1225 C1224 1.363 . S
C1225 C1231 1.363 . S
C1226 C1227 1.363 . S
C1226 C1231 1.379 . S
C1226 N1233 1.356 . S
C1227 C1226 1.363 . S
C1227 C1230 1.363 . S
N1228 C1230 1.356 . S
N1228 H1240 0.984 . S
N1228 H1241 0.985 . S
N1229 C1231 1.356 . S
N1229 H1234 0.984 . S
N1229 H1235 0.985 . S
C1230 C1224 1.379 . S
C1230 C1227 1.363 . S
C1230 N1228 1.356 . S
C1231 C1225 1.363 . S
C1231 C1226 1.379 . S
C1231 N1229 1.356 . S
N1232 C1224 1.356 . S
N1232 H1238 0.984 . S
N1232 H1239 0.984 . S
N1233 C1226 1.356 . S
N1233 H1236 0.984 . S
N1233 H1237 0.985 . S
H1234 N1229 0.984 . S
H1235 N1229 0.985 . S
H1236 N1233 0.984 . S
H1237 N1233 0.985 . S
H1238 N1232 0.984 . S
H1239 N1232 0.984 . S
H1240 N1228 0.984 . S
H1241 N1228 0.985 . S
C1242 C1243 1.363 . S
C1242 C1248 1.379 . S
C1242 N1250 1.356 . S
C1243 C1242 1.363 . S
C1243 C1249 1.363 . S
C1244 C1245 1.363 . S
C1244 C1249 1.379 . S
C1244 N1251 1.356 . S
C1245 C1244 1.363 . S
C1245 C1248 1.363 . S
N1246 C1248 1.356 . S
N1246 H1258 0.984 . S
N1246 H1259 0.985 . S
N1247 C1249 1.356 . S
N1247 H1252 0.984 . S
N1247 H1253 0.985 . S
C1248 C1242 1.379 . S
C1248 C1245 1.363 . S
C1248 N1246 1.356 . S
C1249 C1243 1.363 . S
C1249 C1244 1.379 . S
C1249 N1247 1.356 . S
N1250 C1242 1.356 . S
N1250 H1256 0.984 . S
N1250 H1257 0.984 . S
N1251 C1244 1.356 . S
N1251 H1254 0.984 . S
N1251 H1255 0.985 . S
H1252 N1247 0.984 . S
H1253 N1247 0.985 . S
H1254 N1251 0.984 . S
H1255 N1251 0.985 . S
H1256 N1250 0.984 . S
H1257 N1250 0.984 . S
H1258 N1246 0.984 . S
H1259 N1246 0.985 . S
C1260 C1261 1.363 . S
C1260 C1266 1.379 . S
C1260 N1268 1.353 1_655 S
C1261 C1260 1.363 . S
C1261 C1267 1.363 . S
C1262 C1263 1.363 . S
C1262 C1267 1.379 . S
C1262 N1269 1.356 . S
C1263 C1262 1.363 . S
C1263 C1266 1.363 . S
N1264 C1266 1.356 . S
N1264 H1276 0.984 . S
N1264 H1277 0.985 . S
N1265 C1267 1.356 . S
N1265 H1270 0.984 . S
N1265 H1271 0.985 . S
C1266 C1260 1.379 . S
C1266 C1263 1.363 . S
C1266 N1264 1.356 . S
C1267 C1261 1.363 . S
C1267 C1262 1.379 . S
C1267 N1265 1.356 . S
N1268 C1260 1.353 1_455 S
N1268 H1274 0.990 . S
N1268 H1275 0.983 . S
N1269 C1262 1.356 . S
N1269 H1272 0.984 . S
N1269 H1273 0.985 . S
H1270 N1265 0.984 . S
H1271 N1265 0.985 . S
H1272 N1269 0.984 . S
H1273 N1269 0.985 . S
H1274 N1268 0.990 . S
H1275 N1268 0.983 . S
H1276 N1264 0.984 . S
H1277 N1264 0.985 . S
C1278 C1279 1.363 . S
C1278 C1284 1.379 . S
C1278 N1286 1.356 . S
C1279 C1278 1.363 . S
C1279 C1285 1.363 . S
C1280 C1281 1.363 . S
C1280 C1285 1.379 . S
C1280 N1287 1.356 . S
C1281 C1280 1.363 . S
C1281 C1284 1.363 . S
N1282 C1284 1.356 . S
N1282 H1294 0.984 . S
N1282 H1295 0.985 . S
N1283 C1285 1.356 . S
N1283 H1288 0.984 . S
N1283 H1289 0.985 . S
C1284 C1278 1.379 . S
C1284 C1281 1.363 . S
C1284 N1282 1.356 . S
C1285 C1279 1.363 . S
C1285 C1280 1.379 . S
C1285 N1283 1.356 . S
N1286 C1278 1.356 . S
N1286 H1292 0.984 . S
N1286 H1293 0.984 . S
N1287 C1280 1.356 . S
N1287 H1290 0.984 . S
N1287 H1291 0.985 . S
H1288 N1283 0.984 . S
H1289 N1283 0.985 . S
H1290 N1287 0.984 . S
H1291 N1287 0.985 . S
H1292 N1286 0.984 . S
H1293 N1286 0.984 . S
H1294 N1282 0.984 . S
H1295 N1282 0.985 . S
C1296 C1297 1.363 . S
C1296 C1302 1.379 . S
C1296 N1304 1.356 . S
C1297 C1296 1.363 . S
C1297 C1303 1.363 . S
C1298 C1299 1.363 . S
C1298 C1303 1.379 . S
C1298 N1305 1.356 . S
C1299 C1298 1.363 . S
C1299 C1302 1.363 . S
N1300 C1302 1.356 . S
N1300 H1312 0.984 . S
N1300 H1313 0.985 . S
N1301 C1303 1.356 . S
N1301 H1306 0.984 . S
N1301 H1307 0.985 . S
C1302 C1296 1.379 . S
C1302 C1299 1.363 . S
C1302 N1300 1.356 . S
C1303 C1297 1.363 . S
C1303 C1298 1.379 . S
C1303 N1301 1.356 . S
N1304 C1296 1.356 . S
N1304 H1310 0.984 . S
N1304 H1311 0.984 . S
N1305 C1298 1.356 . S
N1305 H1308 0.984 . S
N1305 H1309 0.985 1_545 S
H1306 N1301 0.984 . S
H1307 N1301 0.985 . S
H1308 N1305 0.984 . S
H1309 N1305 0.985 1_565 S
H1310 N1304 0.984 . S
H1311 N1304 0.984 . S
H1312 N1300 0.984 . S
H1313 N1300 0.985 . S
C1314 C1315 1.363 1_455 S
C1314 C1320 1.379 . S
C1314 N1322 1.356 1_455 S
C1315 C1314 1.363 1_655 S
C1315 C1321 1.363 . S
C1316 C1317 1.363 . S
C1316 C1321 1.379 1_455 S
C1316 N1323 1.356 . S
C1317 C1316 1.363 . S
C1317 C1320 1.363 . S
N1318 C1320 1.356 . S
N1318 H1330 0.984 . S
N1318 H1331 0.985 . S
N1319 C1321 1.356 . S
N1319 H1324 0.984 . S
N1319 H1325 0.985 . S
C1320 C1314 1.379 . S
C1320 C1317 1.363 . S
C1320 N1318 1.356 . S
C1321 C1315 1.363 . S
C1321 C1316 1.379 1_655 S
C1321 N1319 1.356 . S
N1322 C1314 1.356 1_655 S
N1322 H1328 0.984 . S
N1322 H1329 0.984 . S
N1323 C1316 1.356 . S
N1323 H1326 0.984 . S
N1323 H1327 0.985 . S
H1324 N1319 0.984 . S
H1325 N1319 0.985 . S
H1326 N1323 0.984 . S
H1327 N1323 0.985 . S
H1328 N1322 0.984 . S
H1329 N1322 0.984 . S
H1330 N1318 0.984 . S
H1331 N1318 0.985 . S
C1332 C1333 1.363 . S
C1332 C1338 1.379 . S
C1332 N1340 1.356 . S
C1333 C1332 1.363 . S
C1333 C1339 1.363 . S
C1334 C1335 1.363 . S
C1334 C1339 1.379 . S
C1334 N1341 1.356 . S
C1335 C1334 1.363 . S
C1335 C1338 1.363 . S
N1336 C1338 1.356 . S
N1336 H1348 0.984 . S
N1336 H1349 0.985 . S
N1337 C1339 1.356 . S
N1337 H1342 0.984 . S
N1337 H1343 0.985 . S
C1338 C1332 1.379 . S
C1338 C1335 1.363 . S
C1338 N1336 1.356 . S
C1339 C1333 1.363 . S
C1339 C1334 1.379 . S
C1339 N1337 1.356 . S
N1340 C1332 1.356 . S
N1340 H1346 0.984 . S
N1340 H1347 0.984 . S
N1341 C1334 1.356 . S
N1341 H1344 0.984 . S
N1341 H1345 0.985 . S
H1342 N1337 0.984 . S
H1343 N1337 0.985 . S
H1344 N1341 0.984 . S
H1345 N1341 0.985 . S
H1346 N1340 0.984 . S
H1347 N1340 0.984 . S
H1348 N1336 0.984 . S
H1349 N1336 0.985 . S
C1350 C1351 1.363 1_545 S
C1350 C1356 1.379 . S
C1350 N1358 1.356 1_545 S
C1351 C1350 1.363 1_565 S
C1351 C1357 1.363 . S
C1352 C1353 1.363 . S
C1352 C1357 1.379 1_545 S
C1352 N1359 1.356 . S
C1353 C1352 1.363 . S
C1353 C1356 1.363 . S
N1354 C1356 1.356 . S
N1354 H1366 0.984 . S
N1354 H1367 0.985 . S
N1355 C1357 1.356 . S
N1355 H1360 0.984 . S
N1355 H1361 0.985 . S
C1356 C1350 1.379 . S
C1356 C1353 1.363 . S
C1356 N1354 1.356 . S
C1357 C1351 1.363 . S
C1357 C1352 1.379 1_565 S
C1357 N1355 1.356 . S
N1358 C1350 1.356 1_565 S
N1358 H1364 0.984 1_565 S
N1358 H1365 0.984 . S
N1359 C1352 1.356 . S
N1359 H1362 0.984 . S
N1359 H1363 0.985 . S
H1360 N1355 0.984 . S
H1361 N1355 0.985 . S
H1362 N1359 0.984 . S
H1363 N1359 0.985 . S
H1364 N1358 0.984 1_545 S
H1365 N1358 0.984 . S
H1366 N1354 0.984 . S
H1367 N1354 0.985 . S
C1368 C1369 1.363 . S
C1368 C1374 1.379 . S
C1368 N1376 1.356 . S
C1369 C1368 1.363 . S
C1369 C1375 1.363 . S
C1370 C1371 1.363 . S
C1370 C1375 1.379 . S
C1370 N1377 1.356 . S
C1371 C1370 1.363 . S
C1371 C1374 1.363 . S
N1372 C1374 1.356 . S
N1372 H1384 0.984 . S
N1372 H1385 0.985 . S
N1373 C1375 1.356 . S
N1373 H1378 0.984 . S
N1373 H1379 0.985 . S
C1374 C1368 1.379 . S
C1374 C1371 1.363 . S
C1374 N1372 1.356 . S
C1375 C1369 1.363 . S
C1375 C1370 1.379 . S
C1375 N1373 1.356 . S
N1376 C1368 1.356 . S
N1376 H1382 0.984 . S
N1376 H1383 0.984 . S
N1377 C1370 1.356 . S
N1377 H1380 0.984 . S
N1377 H1381 0.985 . S
H1378 N1373 0.984 . S
H1379 N1373 0.985 . S
H1380 N1377 0.984 . S
H1381 N1377 0.985 . S
H1382 N1376 0.984 . S
H1383 N1376 0.984 . S
H1384 N1372 0.984 . S
H1385 N1372 0.985 . S
C1386 C1387 1.363 . S
C1386 C1392 1.379 . S
C1386 N1394 1.356 . S
C1387 C1386 1.363 . S
C1387 C1393 1.363 . S
C1388 C1389 1.363 . S
C1388 C1393 1.379 . S
C1388 N1395 1.356 . S
C1389 C1388 1.363 . S
C1389 C1392 1.363 . S
N1390 C1392 1.356 . S
N1390 H1402 0.984 . S
N1390 H1403 0.985 . S
N1391 C1393 1.356 . S
N1391 H1396 0.984 . S
N1391 H1397 0.985 . S
C1392 C1386 1.379 . S
C1392 C1389 1.363 . S
C1392 N1390 1.356 . S
C1393 C1387 1.363 . S
C1393 C1388 1.379 . S
C1393 N1391 1.356 . S
N1394 C1386 1.356 . S
N1394 H1400 0.984 . S
N1394 H1401 0.984 . S
N1395 C1388 1.356 . S
N1395 H1398 0.984 . S
N1395 H1399 0.985 . S
H1396 N1391 0.984 . S
H1397 N1391 0.985 . S
H1398 N1395 0.984 . S
H1399 N1395 0.985 . S
H1400 N1394 0.984 . S
H1401 N1394 0.984 . S
H1402 N1390 0.984 . S
H1403 N1390 0.985 . S
C1404 C1405 1.363 . S
C1404 C1410 1.379 . S
C1404 N1412 1.356 . S
C1405 C1404 1.363 . S
C1405 C1411 1.363 . S
C1406 C1407 1.363 . S
C1406 C1411 1.379 . S
C1406 N1413 1.356 . S
C1407 C1406 1.363 . S
C1407 C1410 1.363 . S
N1408 C1410 1.356 . S
N1408 H1420 0.984 . S
N1408 H1421 0.985 . S
N1409 C1411 1.356 . S
N1409 H1414 0.984 . S
N1409 H1415 0.985 . S
C1410 C1404 1.379 . S
C1410 C1407 1.363 . S
C1410 N1408 1.356 . S
C1411 C1405 1.363 . S
C1411 C1406 1.379 . S
C1411 N1409 1.356 . S
N1412 C1404 1.356 . S
N1412 H1418 0.984 . S
N1412 H1419 0.984 . S
N1413 C1406 1.356 . S
N1413 H1416 0.984 . S
N1413 H1417 0.985 . S
H1414 N1409 0.984 . S
H1415 N1409 0.985 . S
H1416 N1413 0.984 . S
H1417 N1413 0.985 . S
H1418 N1412 0.984 . S
H1419 N1412 0.984 . S
H1420 N1408 0.984 . S
H1421 N1408 0.985 . S
C1422 C1423 1.363 . S
C1422 C1428 1.379 . S
C1422 N1430 1.356 . S
C1423 C1422 1.363 . S
C1423 C1429 1.363 . S
C1424 C1425 1.363 . S
C1424 C1429 1.379 . S
C1424 N1431 1.356 . S
C1425 C1424 1.363 . S
C1425 C1428 1.363 . S
N1426 C1428 1.356 . S
N1426 H1438 0.984 . S
N1426 H1439 0.985 . S
N1427 C1429 1.356 . S
N1427 H1432 0.984 . S
N1427 H1433 0.985 . S
C1428 C1422 1.379 . S
C1428 C1425 1.363 . S
C1428 N1426 1.356 . S
C1429 C1423 1.363 . S
C1429 C1424 1.379 . S
C1429 N1427 1.356 . S
N1430 C1422 1.356 . S
N1430 H1436 0.984 . S
N1430 H1437 0.984 . S
N1431 C1424 1.356 . S
N1431 H1434 0.984 . S
N1431 H1435 0.985 . S
H1432 N1427 0.984 . S
H1433 N1427 0.985 . S
H1434 N1431 0.984 . S
H1435 N1431 0.985 . S
H1436 N1430 0.984 . S
H1437 N1430 0.984 . S
H1438 N1426 0.984 . S
H1439 N1426 0.985 . S
C1440 C1441 1.363 . S
C1440 C1446 1.379 . S
C1440 N1448 1.356 . S
C1441 C1440 1.363 . S
C1441 C1447 1.363 . S
C1442 C1443 1.363 . S
C1442 C1447 1.379 . S
C1442 N1449 1.356 . S
C1443 C1442 1.363 . S
C1443 C1446 1.363 . S
N1444 C1446 1.356 . S
N1444 H1456 0.984 . S
N1444 H1457 0.985 . S
N1445 C1447 1.356 . S
N1445 H1450 0.984 . S
N1445 H1451 0.985 . S
C1446 C1440 1.379 . S
C1446 C1443 1.363 . S
C1446 N1444 1.356 . S
C1447 C1441 1.363 . S
C1447 C1442 1.379 . S
C1447 N1445 1.356 . S
N1448 C1440 1.356 . S
N1448 H1454 0.984 . S
N1448 H1455 0.984 . S
N1449 C1442 1.356 . S
N1449 H1452 0.984 . S
N1449 H1453 0.985 . S
H1450 N1445 0.984 . S
H1451 N1445 0.985 . S
H1452 N1449 0.984 . S
H1453 N1449 0.985 . S
H1454 N1448 0.984 . S
H1455 N1448 0.984 . S
H1456 N1444 0.984 . S
H1457 N1444 0.985 . S
C1458 C1459 1.363 . S
C1458 C1464 1.379 . S
C1458 N1466 1.356 . S
C1459 C1458 1.363 . S
C1459 C1465 1.363 . S
C1460 C1461 1.363 . S
C1460 C1465 1.379 . S
C1460 N1467 1.356 . S
C1461 C1460 1.363 . S
C1461 C1464 1.363 . S
N1462 C1464 1.356 . S
N1462 H1474 0.984 . S
N1462 H1475 0.985 . S
N1463 C1465 1.356 . S
N1463 H1468 0.984 . S
N1463 H1469 0.985 . S
C1464 C1458 1.379 . S
C1464 C1461 1.363 . S
C1464 N1462 1.356 . S
C1465 C1459 1.363 . S
C1465 C1460 1.379 . S
C1465 N1463 1.356 . S
N1466 C1458 1.356 . S
N1466 H1472 0.984 . S
N1466 H1473 0.984 . S
N1467 C1460 1.356 . S
N1467 H1470 0.984 . S
N1467 H1471 0.985 . S
H1468 N1463 0.984 . S
H1469 N1463 0.985 . S
H1470 N1467 0.984 . S
H1471 N1467 0.985 . S
H1472 N1466 0.984 . S
H1473 N1466 0.984 . S
H1474 N1462 0.984 . S
H1475 N1462 0.985 . S
C1476 C1477 1.363 . S
C1476 C1482 1.379 . S
C1476 N1484 1.356 . S
C1477 C1476 1.363 . S
C1477 C1483 1.363 . S
C1478 C1479 1.363 . S
C1478 C1483 1.379 . S
C1478 N1485 1.356 . S
C1479 C1478 1.363 . S
C1479 C1482 1.363 . S
N1480 C1482 1.356 . S
N1480 H1492 0.984 . S
N1480 H1493 0.985 . S
N1481 C1483 1.356 . S
N1481 H1486 0.984 . S
N1481 H1487 0.985 . S
C1482 C1476 1.379 . S
C1482 C1479 1.363 . S
C1482 N1480 1.356 . S
C1483 C1477 1.363 . S
C1483 C1478 1.379 . S
C1483 N1481 1.356 . S
N1484 C1476 1.356 . S
N1484 H1490 0.984 . S
N1484 H1491 0.984 . S
N1485 C1478 1.356 . S
N1485 H1488 0.984 . S
N1485 H1489 0.985 . S
H1486 N1481 0.984 . S
H1487 N1481 0.985 . S
H1488 N1485 0.984 . S
H1489 N1485 0.985 . S
H1490 N1484 0.984 . S
H1491 N1484 0.984 . S
H1492 N1480 0.984 . S
H1493 N1480 0.985 . S
C1494 C1495 1.363 . S
C1494 C1500 1.379 . S
C1494 N1502 1.356 . S
C1495 C1494 1.363 . S
C1495 C1501 1.363 . S
C1496 C1497 1.363 . S
C1496 C1501 1.379 . S
C1496 N1503 1.356 . S
C1497 C1496 1.363 . S
C1497 C1500 1.363 . S
N1498 C1500 1.356 . S
N1498 H1510 0.984 . S
N1498 H1511 0.985 . S
N1499 C1501 1.356 . S
N1499 H1504 0.984 . S
N1499 H1505 0.985 . S
C1500 C1494 1.379 . S
C1500 C1497 1.363 . S
C1500 N1498 1.356 . S
C1501 C1495 1.363 . S
C1501 C1496 1.379 . S
C1501 N1499 1.356 . S
N1502 C1494 1.356 . S
N1502 H1508 0.984 . S
N1502 H1509 0.984 . S
N1503 C1496 1.356 . S
N1503 H1506 0.984 . S
N1503 H1507 0.985 . S
H1504 N1499 0.984 . S
H1505 N1499 0.985 . S
H1506 N1503 0.984 . S
H1507 N1503 0.985 . S
H1508 N1502 0.984 . S
H1509 N1502 0.984 . S
H1510 N1498 0.984 . S
H1511 N1498 0.985 . S
C1512 C1513 1.363 . S
C1512 C1518 1.379 . S
C1512 N1520 1.356 . S
C1513 C1512 1.363 . S
C1513 C1519 1.363 . S
C1514 C1515 1.363 . S
C1514 C1519 1.379 . S
C1514 N1521 1.356 . S
C1515 C1514 1.363 . S
C1515 C1518 1.363 . S
N1516 C1518 1.356 . S
N1516 H1528 0.984 . S
N1516 H1529 0.985 . S
N1517 C1519 1.356 . S
N1517 H1522 0.984 . S
N1517 H1523 0.985 . S
C1518 C1512 1.379 . S
C1518 C1515 1.363 . S
C1518 N1516 1.356 . S
C1519 C1513 1.363 . S
C1519 C1514 1.379 . S
C1519 N1517 1.356 . S
N1520 C1512 1.356 . S
N1520 H1526 0.984 . S
N1520 H1527 0.984 . S
N1521 C1514 1.356 . S
N1521 H1524 0.984 . S
N1521 H1525 0.985 . S
H1522 N1517 0.984 . S
H1523 N1517 0.985 . S
H1524 N1521 0.984 . S
H1525 N1521 0.985 . S
H1526 N1520 0.984 . S
H1527 N1520 0.984 . S
H1528 N1516 0.984 . S
H1529 N1516 0.985 . S
C1530 C1531 1.363 . S
C1530 C1536 1.379 . S
C1530 N1538 1.356 . S
C1531 C1530 1.363 . S
C1531 C1537 1.363 . S
C1532 C1533 1.363 . S
C1532 C1537 1.379 . S
C1532 N1539 1.356 . S
C1533 C1532 1.363 . S
C1533 C1536 1.363 . S
N1534 C1536 1.356 . S
N1534 H1546 0.984 . S
N1534 H1547 0.985 . S
N1535 C1537 1.356 . S
N1535 H1540 0.984 . S
N1535 H1541 0.985 . S
C1536 C1530 1.379 . S
C1536 C1533 1.363 . S
C1536 N1534 1.356 . S
C1537 C1531 1.363 . S
C1537 C1532 1.379 . S
C1537 N1535 1.356 . S
N1538 C1530 1.356 . S
N1538 H1544 0.984 . S
N1538 H1545 0.984 . S
N1539 C1532 1.356 . S
N1539 H1542 0.984 . S
N1539 H1543 0.985 . S
H1540 N1535 0.984 . S
H1541 N1535 0.985 . S
H1542 N1539 0.984 . S
H1543 N1539 0.985 . S
H1544 N1538 0.984 . S
H1545 N1538 0.984 . S
H1546 N1534 0.984 . S
H1547 N1534 0.985 . S
C1548 C1549 1.363 1_545 S
C1548 C1554 1.379 . S
C1548 N1556 1.356 1_545 S
C1549 C1548 1.363 1_565 S
C1549 C1555 1.363 1_565 S
C1550 C1551 1.363 . S
C1550 C1555 1.379 . S
C1550 N1557 1.356 . S
C1551 C1550 1.363 . S
C1551 C1554 1.363 . S
N1552 C1554 1.356 . S
N1552 H1564 0.984 . S
N1552 H1565 0.985 . S
N1553 C1555 1.356 . S
N1553 H1558 0.984 1_545 S
N1553 H1559 0.985 . S
C1554 C1548 1.379 . S
C1554 C1551 1.363 . S
C1554 N1552 1.356 . S
C1555 C1549 1.363 1_545 S
C1555 C1550 1.379 . S
C1555 N1553 1.356 . S
N1556 C1548 1.356 1_565 S
N1556 H1562 0.984 . S
N1556 H1563 0.984 . S
N1557 C1550 1.356 . S
N1557 H1560 0.984 . S
N1557 H1561 0.985 . S
H1558 N1553 0.984 1_565 S
H1559 N1553 0.985 . S
H1560 N1557 0.984 . S
H1561 N1557 0.985 . S
H1562 N1556 0.984 . S
H1563 N1556 0.984 . S
H1564 N1552 0.984 . S
H1565 N1552 0.985 . S
C1566 C1567 1.363 . S
C1566 C1572 1.379 1_655 S
C1566 N1574 1.356 . S
C1567 C1566 1.363 . S
C1567 C1573 1.363 1_655 S
C1568 C1569 1.363 . S
C1568 C1573 1.379 . S
C1568 N1575 1.356 . S
C1569 C1568 1.363 . S
C1569 C1572 1.363 . S
N1570 C1572 1.356 . S
N1570 H1582 0.984 1_455 S
N1570 H1583 0.985 . S
N1571 C1573 1.356 . S
N1571 H1576 0.984 1_455 S
N1571 H1577 0.985 . S
C1572 C1566 1.379 1_455 S
C1572 C1569 1.363 . S
C1572 N1570 1.356 . S
C1573 C1567 1.363 1_455 S
C1573 C1568 1.379 . S
C1573 N1571 1.356 . S
N1574 C1566 1.356 . S
N1574 H1580 0.984 . S
N1574 H1581 0.984 . S
N1575 C1568 1.356 . S
N1575 H1578 0.984 . S
N1575 H1579 0.985 . S
H1576 N1571 0.984 1_655 S
H1577 N1571 0.985 . S
H1578 N1575 0.984 . S
H1579 N1575 0.985 . S
H1580 N1574 0.984 . S
H1581 N1574 0.984 . S
H1582 N1570 0.984 1_655 S
H1583 N1570 0.985 . S
C1584 C1585 1.363 . S
C1584 C1590 1.379 . S
C1584 N1592 1.356 . S
C1585 C1584 1.363 . S
C1585 C1591 1.363 . S
C1586 C1587 1.363 . S
C1586 C1591 1.379 . S
C1586 N1593 1.356 . S
C1587 C1586 1.363 . S
C1587 C1590 1.363 . S
N1588 C1590 1.356 . S
N1588 H1600 0.984 . S
N1588 H1601 0.985 . S
N1589 C1591 1.356 . S
N1589 H1594 0.984 . S
N1589 H1595 0.985 . S
C1590 C1584 1.379 . S
C1590 C1587 1.363 . S
C1590 N1588 1.356 . S
C1591 C1585 1.363 . S
C1591 C1586 1.379 . S
C1591 N1589 1.356 . S
N1592 C1584 1.356 . S
N1592 H1598 0.984 . S
N1592 H1599 0.984 . S
N1593 C1586 1.356 . S
N1593 H1596 0.984 . S
N1593 H1597 0.985 . S
H1594 N1589 0.984 . S
H1595 N1589 0.985 . S
H1596 N1593 0.984 . S
H1597 N1593 0.985 . S
H1598 N1592 0.984 . S
H1599 N1592 0.984 . S
H1600 N1588 0.984 . S
H1601 N1588 0.985 . S
C1602 C1603 1.363 . S
C1602 C1608 1.379 1_545 S
C1602 N1610 1.356 . S
C1603 C1602 1.363 . S
C1603 C1609 1.363 . S
C1604 C1605 1.363 . S
C1604 C1609 1.379 1_565 S
C1604 N1611 1.356 . S
C1605 C1604 1.363 . S
C1605 C1608 1.363 . S
N1606 C1608 1.356 . S
N1606 H1618 0.984 . S
N1606 H1619 0.985 . S
N1607 C1609 1.356 . S
N1607 H1612 0.984 . S
N1607 H1613 0.985 . S
C1608 C1602 1.379 1_565 S
C1608 C1605 1.363 . S
C1608 N1606 1.356 . S
C1609 C1603 1.363 . S
C1609 C1604 1.379 1_545 S
C1609 N1607 1.356 . S
N1610 C1602 1.356 . S
N1610 H1616 0.984 . S
N1610 H1617 0.984 . S
N1611 C1604 1.356 . S
N1611 H1614 0.984 . S
N1611 H1615 0.985 . S
H1612 N1607 0.984 . S
H1613 N1607 0.985 . S
H1614 N1611 0.984 . S
H1615 N1611 0.985 . S
H1616 N1610 0.984 . S
H1617 N1610 0.984 . S
H1618 N1606 0.984 . S
H1619 N1606 0.985 . S
C1620 C1621 1.363 . S
C1620 C1626 1.379 1_455 S
C1620 N1628 1.356 . S
C1621 C1620 1.363 . S
C1621 C1627 1.363 . S
C1622 C1623 1.363 1_455 S
C1622 C1627 1.379 . S
C1622 N1629 1.356 . S
C1623 C1622 1.363 1_655 S
C1623 C1626 1.363 . S
N1624 C1626 1.356 . S
N1624 H1636 0.984 . S
N1624 H1637 0.985 . S
N1625 C1627 1.356 . S
N1625 H1630 0.984 . S
N1625 H1631 0.985 . S
C1626 C1620 1.379 1_655 S
C1626 C1623 1.363 . S
C1626 N1624 1.356 . S
C1627 C1621 1.363 . S
C1627 C1622 1.379 . S
C1627 N1625 1.356 . S
N1628 C1620 1.356 . S
N1628 H1634 0.984 . S
N1628 H1635 0.984 . S
N1629 C1622 1.356 . S
N1629 H1632 0.984 . S
N1629 H1633 0.985 . S
H1630 N1625 0.984 . S
H1631 N1625 0.985 . S
H1632 N1629 0.984 . S
H1633 N1629 0.985 . S
H1634 N1628 0.984 . S
H1635 N1628 0.984 . S
H1636 N1624 0.984 . S
H1637 N1624 0.985 . S
C1638 C1639 1.363 . S
C1638 C1644 1.379 . S
C1638 N1646 1.356 . S
C1639 C1638 1.363 . S
C1639 C1645 1.363 . S
C1640 C1641 1.363 . S
C1640 C1645 1.379 . S
C1640 N1647 1.356 . S
C1641 C1640 1.363 . S
C1641 C1644 1.363 . S
N1642 C1644 1.356 . S
N1642 H1654 0.984 . S
N1642 H1655 0.985 . S
N1643 C1645 1.356 . S
N1643 H1648 0.984 . S
N1643 H1649 0.985 . S
C1644 C1638 1.379 . S
C1644 C1641 1.363 . S
C1644 N1642 1.356 . S
C1645 C1639 1.363 . S
C1645 C1640 1.379 . S
C1645 N1643 1.356 . S
N1646 C1638 1.356 . S
N1646 H1652 0.984 . S
N1646 H1653 0.984 . S
N1647 C1640 1.356 . S
N1647 H1650 0.984 . S
N1647 H1651 0.985 . S
H1648 N1643 0.984 . S
H1649 N1643 0.985 . S
H1650 N1647 0.984 . S
H1651 N1647 0.985 . S
H1652 N1646 0.984 . S
H1653 N1646 0.984 . S
H1654 N1642 0.984 . S
H1655 N1642 0.985 . S
C1656 C1657 1.363 . S
C1656 C1662 1.379 . S
C1656 N1664 1.356 . S
C1657 C1656 1.363 . S
C1657 C1663 1.363 . S
C1658 C1659 1.363 . S
C1658 C1663 1.379 . S
C1658 N1665 1.356 . S
C1659 C1658 1.363 . S
C1659 C1662 1.363 . S
N1660 C1662 1.356 . S
N1660 H1672 0.984 . S
N1660 H1673 0.985 . S
N1661 C1663 1.356 . S
N1661 H1666 0.984 . S
N1661 H1667 0.985 . S
C1662 C1656 1.379 . S
C1662 C1659 1.363 . S
C1662 N1660 1.356 . S
C1663 C1657 1.363 . S
C1663 C1658 1.379 . S
C1663 N1661 1.356 . S
N1664 C1656 1.356 . S
N1664 H1670 0.984 . S
N1664 H1671 0.984 . S
N1665 C1658 1.356 . S
N1665 H1668 0.984 . S
N1665 H1669 0.985 . S
H1666 N1661 0.984 . S
H1667 N1661 0.985 . S
H1668 N1665 0.984 . S
H1669 N1665 0.985 . S
H1670 N1664 0.984 . S
H1671 N1664 0.984 . S
H1672 N1660 0.984 . S
H1673 N1660 0.985 . S
C1674 C1675 1.363 . S
C1674 C1680 1.379 . S
C1674 N1682 1.356 . S
C1675 C1674 1.363 . S
C1675 C1681 1.363 . S
C1676 C1677 1.363 . S
C1676 C1681 1.379 . S
C1676 N1683 1.356 . S
C1677 C1676 1.363 . S
C1677 C1680 1.363 . S
N1678 C1680 1.356 . S
N1678 H1690 0.984 . S
N1678 H1691 0.985 . S
N1679 C1681 1.356 . S
N1679 H1684 0.984 . S
N1679 H1685 0.985 . S
C1680 C1674 1.379 . S
C1680 C1677 1.363 . S
C1680 N1678 1.356 . S
C1681 C1675 1.363 . S
C1681 C1676 1.379 . S
C1681 N1679 1.356 . S
N1682 C1674 1.356 . S
N1682 H1688 0.984 . S
N1682 H1689 0.984 . S
N1683 C1676 1.356 . S
N1683 H1686 0.984 . S
N1683 H1687 0.985 . S
H1684 N1679 0.984 . S
H1685 N1679 0.985 . S
H1686 N1683 0.984 . S
H1687 N1683 0.985 . S
H1688 N1682 0.984 . S
H1689 N1682 0.984 . S
H1690 N1678 0.984 . S
H1691 N1678 0.985 . S
C721 C24 1.241 . S
C723 C97 1.240 . S
C739 C17 1.240 . S
C741 C64 1.241 . S
C757 C57 1.240 . S
C759 C104 1.241 . S
C775 C144 1.241 . S
C777 C177 1.240 . S
C793 C217 1.240 . S
C795 C184 1.241 . S
C811 C224 1.241 . S
C813 C137 1.240 . S
C829 C337 1.240 . S
C831 C264 1.241 . S
C847 C257 1.240 . S
C849 C304 1.241 . S
C865 C344 1.241 . S
C867 C297 1.240 . S
C883 C417 1.240 . S
C885 C384 1.241 . S
C901 C424 1.241 . S
C903 C457 1.240 . S
C919 C377 1.240 . S
C921 C464 1.241 . S
C937 C504 1.241 . S
C939 C577 1.240 . S
C955 C497 1.240 . S
C957 C544 1.241 . S
C973 C537 1.240 . S
C975 C584 1.241 . S
C991 C657 1.240 . S
C993 C624 1.241 . S
C1009 C697 1.240 . S
C1011 C664 1.241 . S
C1027 C617 1.240 . S
C1029 C704 1.241 . S
C1045 C23 1.688 . S
C1047 C223 1.688 . S
C1063 C143 1.688 . S
C1065 C63 1.688 . S
C1081 C183 1.688 . S
C1083 C103 1.688 . S
C1099 C263 1.688 . S
C1101 C463 1.688 . S
C1117 C303 1.688 . S
C1119 C383 1.688 . S
C1135 C423 1.688 . S
C1137 C343 1.688 . S
C1153 C503 1.688 . S
C1155 C703 1.688 . S
C1171 C623 1.688 . S
C1173 C543 1.688 . S
C1189 C663 1.688 . S
C1191 C583 1.688 . S
C1207 C402 2.461 . S
C1209 C2 2.460 1_565 S
C1225 C42 2.461 . S
C1227 C442 2.461 . S
C1243 C362 2.461 . S
C1245 C82 2.461 . S
C1261 C122 2.460 1_655 S
C1263 C562 2.461 . S
C1279 C162 2.461 . S
C1281 C482 2.461 . S
C1297 C522 2.461 . S
C1299 C202 2.461 . S
C1315 C642 2.461 . S
C1317 C242 2.461 . S
C1333 C282 2.461 . S
C1335 C682 2.461 . S
C1351 C322 2.461 . S
C1353 C602 2.461 . S
C1369 C106 1.733 . S
C1371 C13 1.737 . S
C1387 C26 1.733 . S
C1389 C53 1.737 . S
C1405 C93 1.737 . S
C1407 C66 1.733 . S
C1423 C186 1.733 . S
C1425 C133 1.737 . S
C1441 C226 1.733 . S
C1443 C173 1.737 . S
C1459 C213 1.737 . S
C1461 C146 1.733 . S
C1477 C346 1.733 . S
C1479 C253 1.737 . S
C1495 C293 1.737 . S
C1497 C266 1.733 . S
C1513 C306 1.733 . S
C1515 C333 1.737 . S
C1531 C373 1.737 . S
C1533 C426 1.733 . S
C1549 C413 1.737 . S
C1551 C466 1.733 . S
C1567 C386 1.733 . S
C1569 C453 1.737 . S
C1585 C493 1.737 . S
C1587 C586 1.733 . S
C1603 C533 1.737 . S
C1605 C506 1.733 . S
C1621 C546 1.733 . S
C1623 C573 1.737 . S
C1639 C613 1.737 . S
C1641 C666 1.733 . S
C1657 C653 1.737 . S
C1659 C706 1.733 . S
C1675 C626 1.733 . S
C1677 C693 1.737 . S
