# Generated by pormake.
# Topology ukn, (4)-cn, num edge types: 1
# Building blocks:
#     Node 0, Type 0, BuildingBlock: NAHDIM_clean_sbu_0, # of connection points: 4
#     Node 1, Type 0, BuildingBlock: NAHDIM_clean_sbu_0, # of connection points: 4
#     Node 2, Type 0, BuildingBlock: NAHDIM_clean_sbu_0, # of connection points: 4
#     Node 3, Type 0, BuildingBlock: NAHDIM_clean_sbu_0, # of connection points: 4
#     Node 4, Type 0, BuildingBlock: NAHDIM_clean_sbu_0, # of connection points: 4
#     Node 5, Type 0, BuildingBlock: NAHDIM_clean_sbu_0, # of connection points: 4
#     Node 6, Type 0, BuildingBlock: NAHDIM_clean_sbu_0, # of connection points: 4
#     Node 7, Type 0, BuildingBlock: NAHDIM_clean_sbu_0, # of connection points: 4
#     Node 8, Type 0, BuildingBlock: NAHDIM_clean_sbu_0, # of connection points: 4
#     Node 9, Type 0, BuildingBlock: NAHDIM_clean_sbu_0, # of connection points: 4
#     Node 10, Type 0, BuildingBlock: NAHDIM_clean_sbu_0, # of connection points: 4
#     Node 11, Type 0, BuildingBlock: NAHDIM_clean_sbu_0, # of connection points: 4
#     Node 12, Type 0, BuildingBlock: NAHDIM_clean_sbu_0, # of connection points: 4
#     Node 13, Type 0, BuildingBlock: NAHDIM_clean_sbu_0, # of connection points: 4
#     Node 14, Type 0, BuildingBlock: NAHDIM_clean_sbu_0, # of connection points: 4
#     Node 15, Type 0, BuildingBlock: NAHDIM_clean_sbu_0, # of connection points: 4
#     Node 16, Type 0, BuildingBlock: NAHDIM_clean_sbu_0, # of connection points: 4
#     Node 17, Type 0, BuildingBlock: NAHDIM_clean_sbu_0, # of connection points: 4
#     Node 18, Type 0, BuildingBlock: NAHDIM_clean_sbu_0, # of connection points: 4
#     Node 19, Type 0, BuildingBlock: NAHDIM_clean_sbu_0, # of connection points: 4
#     Node 20, Type 0, BuildingBlock: NAHDIM_clean_sbu_0, # of connection points: 4
#     Node 21, Type 0, BuildingBlock: NAHDIM_clean_sbu_0, # of connection points: 4
#     Node 22, Type 0, BuildingBlock: NAHDIM_clean_sbu_0, # of connection points: 4
#     Node 23, Type 0, BuildingBlock: NAHDIM_clean_sbu_0, # of connection points: 4
#     Node 24, Type 0, BuildingBlock: NAHDIM_clean_sbu_0, # of connection points: 4
#     Node 25, Type 0, BuildingBlock: NAHDIM_clean_sbu_0, # of connection points: 4
#     Node 26, Type 0, BuildingBlock: NAHDIM_clean_sbu_0, # of connection points: 4
#     Node 27, Type 0, BuildingBlock: NAHDIM_clean_sbu_0, # of connection points: 4
#     Node 28, Type 0, BuildingBlock: NAHDIM_clean_sbu_0, # of connection points: 4
#     Node 29, Type 0, BuildingBlock: NAHDIM_clean_sbu_0, # of connection points: 4
#     Node 30, Type 0, BuildingBlock: NAHDIM_clean_sbu_0, # of connection points: 4
#     Node 31, Type 0, BuildingBlock: NAHDIM_clean_sbu_0, # of connection points: 4
#     Node 32, Type 0, BuildingBlock: NAHDIM_clean_sbu_0, # of connection points: 4
#     Node 33, Type 0, BuildingBlock: NAHDIM_clean_sbu_0, # of connection points: 4
#     Node 34, Type 0, BuildingBlock: NAHDIM_clean_sbu_0, # of connection points: 4
#     Node 35, Type 0, BuildingBlock: NAHDIM_clean_sbu_0, # of connection points: 4
#     Edge 36, Type (0, 0), BuildingBlock: XUDNAN_clean_linker_2, # of connection points: 2
#     Edge 37, Type (0, 0), BuildingBlock: XUDNAN_clean_linker_2, # of connection points: 2
#     Edge 38, Type (0, 0), BuildingBlock: XUDNAN_clean_linker_2, # of connection points: 2
#     Edge 39, Type (0, 0), BuildingBlock: XUDNAN_clean_linker_2, # of connection points: 2
#     Edge 40, Type (0, 0), BuildingBlock: XUDNAN_clean_linker_2, # of connection points: 2
#     Edge 41, Type (0, 0), BuildingBlock: XUDNAN_clean_linker_2, # of connection points: 2
#     Edge 42, Type (0, 0), BuildingBlock: XUDNAN_clean_linker_2, # of connection points: 2
#     Edge 43, Type (0, 0), BuildingBlock: XUDNAN_clean_linker_2, # of connection points: 2
#     Edge 44, Type (0, 0), BuildingBlock: XUDNAN_clean_linker_2, # of connection points: 2
#     Edge 45, Type (0, 0), BuildingBlock: XUDNAN_clean_linker_2, # of connection points: 2
#     Edge 46, Type (0, 0), BuildingBlock: XUDNAN_clean_linker_2, # of connection points: 2
#     Edge 47, Type (0, 0), BuildingBlock: XUDNAN_clean_linker_2, # of connection points: 2
#     Edge 48, Type (0, 0), BuildingBlock: XUDNAN_clean_linker_2, # of connection points: 2
#     Edge 49, Type (0, 0), BuildingBlock: XUDNAN_clean_linker_2, # of connection points: 2
#     Edge 50, Type (0, 0), BuildingBlock: XUDNAN_clean_linker_2, # of connection points: 2
#     Edge 51, Type (0, 0), BuildingBlock: XUDNAN_clean_linker_2, # of connection points: 2
#     Edge 52, Type (0, 0), BuildingBlock: XUDNAN_clean_linker_2, # of connection points: 2
#     Edge 53, Type (0, 0), BuildingBlock: XUDNAN_clean_linker_2, # of connection points: 2
#     Edge 54, Type (0, 0), BuildingBlock: XUDNAN_clean_linker_2, # of connection points: 2
#     Edge 55, Type (0, 0), BuildingBlock: XUDNAN_clean_linker_2, # of connection points: 2
#     Edge 56, Type (0, 0), BuildingBlock: XUDNAN_clean_linker_2, # of connection points: 2
#     Edge 57, Type (0, 0), BuildingBlock: XUDNAN_clean_linker_2, # of connection points: 2
#     Edge 58, Type (0, 0), BuildingBlock: XUDNAN_clean_linker_2, # of connection points: 2
#     Edge 59, Type (0, 0), BuildingBlock: XUDNAN_clean_linker_2, # of connection points: 2
#     Edge 60, Type (0, 0), BuildingBlock: XUDNAN_clean_linker_2, # of connection points: 2
#     Edge 61, Type (0, 0), BuildingBlock: XUDNAN_clean_linker_2, # of connection points: 2
#     Edge 62, Type (0, 0), BuildingBlock: XUDNAN_clean_linker_2, # of connection points: 2
#     Edge 63, Type (0, 0), BuildingBlock: XUDNAN_clean_linker_2, # of connection points: 2
#     Edge 64, Type (0, 0), BuildingBlock: XUDNAN_clean_linker_2, # of connection points: 2
#     Edge 65, Type (0, 0), BuildingBlock: XUDNAN_clean_linker_2, # of connection points: 2
#     Edge 66, Type (0, 0), BuildingBlock: XUDNAN_clean_linker_2, # of connection points: 2
#     Edge 67, Type (0, 0), BuildingBlock: XUDNAN_clean_linker_2, # of connection points: 2
#     Edge 68, Type (0, 0), BuildingBlock: XUDNAN_clean_linker_2, # of connection points: 2
#     Edge 69, Type (0, 0), BuildingBlock: XUDNAN_clean_linker_2, # of connection points: 2
#     Edge 70, Type (0, 0), BuildingBlock: XUDNAN_clean_linker_2, # of connection points: 2
#     Edge 71, Type (0, 0), BuildingBlock: XUDNAN_clean_linker_2, # of connection points: 2
#     Edge 72, Type (0, 0), BuildingBlock: XUDNAN_clean_linker_2, # of connection points: 2
#     Edge 73, Type (0, 0), BuildingBlock: XUDNAN_clean_linker_2, # of connection points: 2
#     Edge 74, Type (0, 0), BuildingBlock: XUDNAN_clean_linker_2, # of connection points: 2
#     Edge 75, Type (0, 0), BuildingBlock: XUDNAN_clean_linker_2, # of connection points: 2
#     Edge 76, Type (0, 0), BuildingBlock: XUDNAN_clean_linker_2, # of connection points: 2
#     Edge 77, Type (0, 0), BuildingBlock: XUDNAN_clean_linker_2, # of connection points: 2
#     Edge 78, Type (0, 0), BuildingBlock: XUDNAN_clean_linker_2, # of connection points: 2
#     Edge 79, Type (0, 0), BuildingBlock: XUDNAN_clean_linker_2, # of connection points: 2
#     Edge 80, Type (0, 0), BuildingBlock: XUDNAN_clean_linker_2, # of connection points: 2
#     Edge 81, Type (0, 0), BuildingBlock: XUDNAN_clean_linker_2, # of connection points: 2
#     Edge 82, Type (0, 0), BuildingBlock: XUDNAN_clean_linker_2, # of connection points: 2
#     Edge 83, Type (0, 0), BuildingBlock: XUDNAN_clean_linker_2, # of connection points: 2
#     Edge 84, Type (0, 0), BuildingBlock: XUDNAN_clean_linker_2, # of connection points: 2
#     Edge 85, Type (0, 0), BuildingBlock: XUDNAN_clean_linker_2, # of connection points: 2
#     Edge 86, Type (0, 0), BuildingBlock: XUDNAN_clean_linker_2, # of connection points: 2
#     Edge 87, Type (0, 0), BuildingBlock: XUDNAN_clean_linker_2, # of connection points: 2
#     Edge 88, Type (0, 0), BuildingBlock: XUDNAN_clean_linker_2, # of connection points: 2
#     Edge 89, Type (0, 0), BuildingBlock: XUDNAN_clean_linker_2, # of connection points: 2
#     Edge 90, Type (0, 0), BuildingBlock: XUDNAN_clean_linker_2, # of connection points: 2
#     Edge 91, Type (0, 0), BuildingBlock: XUDNAN_clean_linker_2, # of connection points: 2
#     Edge 92, Type (0, 0), BuildingBlock: XUDNAN_clean_linker_2, # of connection points: 2
#     Edge 93, Type (0, 0), BuildingBlock: XUDNAN_clean_linker_2, # of connection points: 2
#     Edge 94, Type (0, 0), BuildingBlock: XUDNAN_clean_linker_2, # of connection points: 2
#     Edge 95, Type (0, 0), BuildingBlock: XUDNAN_clean_linker_2, # of connection points: 2
#     Edge 96, Type (0, 0), BuildingBlock: XUDNAN_clean_linker_2, # of connection points: 2
#     Edge 97, Type (0, 0), BuildingBlock: XUDNAN_clean_linker_2, # of connection points: 2
#     Edge 98, Type (0, 0), BuildingBlock: XUDNAN_clean_linker_2, # of connection points: 2
#     Edge 99, Type (0, 0), BuildingBlock: XUDNAN_clean_linker_2, # of connection points: 2
#     Edge 100, Type (0, 0), BuildingBlock: XUDNAN_clean_linker_2, # of connection points: 2
#     Edge 101, Type (0, 0), BuildingBlock: XUDNAN_clean_linker_2, # of connection points: 2
#     Edge 102, Type (0, 0), BuildingBlock: XUDNAN_clean_linker_2, # of connection points: 2
#     Edge 103, Type (0, 0), BuildingBlock: XUDNAN_clean_linker_2, # of connection points: 2
#     Edge 104, Type (0, 0), BuildingBlock: XUDNAN_clean_linker_2, # of connection points: 2
#     Edge 105, Type (0, 0), BuildingBlock: XUDNAN_clean_linker_2, # of connection points: 2
#     Edge 106, Type (0, 0), BuildingBlock: XUDNAN_clean_linker_2, # of connection points: 2
#     Edge 107, Type (0, 0), BuildingBlock: XUDNAN_clean_linker_2, # of connection points: 2
# Relax obj value: 0.143
# Max RMSD: 0.134
# Mean RMSD: 0.134
data_MOF--net-ukn--node1-NAHDIM_clean_sbu_0--edge1-XUDNAN_clean_linker_2
_symmetry_space_group_name_H-M    P1
_symmetry_Int_Tables_number       1
_symmetry_cell_setting            triclinic
loop_
_symmetry_equiv_pos_as_xyz
'x, y, z'
_cell_length_a     109.39306
_cell_length_b     109.41808
_cell_length_c     24.037568
_cell_angle_alpha  90.016105
_cell_angle_beta   90.01058
_cell_angle_gamma 120.01105
loop_
_atom_site_label
_atom_site_type_symbol
_atom_site_fract_x
_atom_site_fract_y
_atom_site_fract_z
_atom_type_partial_charge
C0 C 0.0465 0.25417 0.08623 0.0
O1 O 0.05234 0.25588 0.13547 0.0
O2 O 0.07707 0.29068 0.11406 0.0
Zn3 Zn 0.07391 0.2777 0.04968 0.0
O4 O 0.07792 0.28839 0.97793 0.0
C5 C 0.08974 0.26656 0.10388 0.0
O6 O 0.08253 0.26657 0.14755 0.0
O7 O 0.05374 0.26201 0.04613 0.0
C8 C 0.08896 0.30024 0.96966 0.0
O9 O 0.09834 0.30599 0.00966 0.0
C10 C 0.07337 0.29999 0.11368 0.0
O11 O 0.06671 0.30104 0.0701 0.0
O12 O 0.08745 0.27044 0.05708 0.0
C13 C 0.74151 0.79332 0.04012 0.0
O14 O 0.74421 0.80311 0.07749 0.0
O15 O 0.70135 0.7832 0.07459 0.0
Zn16 Zn 0.71553 0.79409 0.01488 0.0
O17 O 0.70589 0.78959 0.94044 0.0
C18 C 0.7239 0.81875 0.08104 0.0
O19 O 0.71916 0.80929 0.12096 0.0
O20 O 0.7303 0.7884 0.01127 0.0
C21 C 0.69352 0.78758 0.93324 0.0
O22 O 0.68666 0.7888 0.97578 0.0
C23 C 0.69193 0.77023 0.07309 0.0
O24 O 0.69107 0.76259 0.02952 0.0
O25 O 0.72396 0.81483 0.03128 0.0
C26 C 0.19741 0.9477 0.03873 0.0
O27 O 0.18732 0.93668 0.01288 0.0
O28 O 0.20835 0.92621 0.17075 0.0
Zn29 Zn 0.2003 0.92628 0.09515 0.0
O30 O 0.21071 0.92225 0.03564 0.0
C31 C 0.17228 0.90275 0.12377 0.0
O32 O 0.17854 0.90143 0.16814 0.0
O33 O 0.20404 0.94579 0.07804 0.0
C34 C 0.20733 0.91025 0.01529 0.0
O35 O 0.19624 0.8989 0.03474 0.0
C36 C 0.21214 0.9173 0.18339 0.0
O37 O 0.2103 0.90755 0.14712 0.0
O38 O 0.17944 0.91246 0.0889 0.0
C39 C 0.25452 0.04356 0.89584 0.0
O40 O 0.25233 0.05057 0.85651 0.0
O41 O 0.29256 0.0671 0.82929 0.0
Zn42 Zn 0.28304 0.06798 0.89954 0.0
O43 O 0.29707 0.07382 0.96233 0.0
C44 C 0.27255 0.08452 0.84422 0.0
O45 O 0.27237 0.07737 0.8 0.0
O46 O 0.26661 0.04892 0.91853 0.0
C47 C 0.30056 0.08451 0.99319 0.0
O48 O 0.29493 0.09249 0.98425 0.0
C49 C 0.30338 0.0784 0.8132 0.0
O50 O 0.30769 0.08996 0.84269 0.0
O51 O 0.27655 0.08213 0.89057 0.0
C52 C 0.94734 0.20234 0.97326 0.0
O53 O 0.93592 0.19351 0.00078 0.0
O54 O 0.92801 0.21338 0.83014 0.0
Zn55 Zn 0.92698 0.2043 0.90449 0.0
O56 O 0.91977 0.21255 0.96196 0.0
C57 C 0.90096 0.1806 0.87939 0.0
O58 O 0.89902 0.19097 0.86301 0.0
O59 O 0.9461 0.20795 0.92889 0.0
C60 C 0.912 0.20545 0.00249 0.0
O61 O 0.90853 0.19217 0.00823 0.0
C62 C 0.92683 0.22435 0.82681 0.0
O63 O 0.92586 0.23033 0.8727 0.0
O64 O 0.91294 0.18356 0.89875 0.0
C65 C 0.78815 0.74012 0.9367 0.0
O66 O 0.7802 0.73076 0.89922 0.0
O67 O 0.79072 0.71378 0.86772 0.0
Zn68 Zn 0.80081 0.72265 0.93973 0.0
O69 O 0.79209 0.70855 0.00191 0.0
C70 C 0.82754 0.72958 0.8883 0.0
O71 O 0.82012 0.72625 0.84215 0.0
O72 O 0.79816 0.73913 0.959 0.0
C73 C 0.77883 0.70261 0.00934 0.0
O74 O 0.77125 0.7055 0.97508 0.0
C75 C 0.78713 0.70126 0.8531 0.0
O76 O 0.79038 0.69359 0.88524 0.0
O77 O 0.82154 0.72897 0.93434 0.0
C78 C 0.95533 0.71435 0.90129 0.0
O79 O 0.94718 0.70104 0.88748 0.0
O80 O 0.92913 0.70509 0.79366 0.0
Zn81 Zn 0.93028 0.71286 0.87086 0.0
O82 O 0.91957 0.69668 0.92354 0.0
C83 C 0.91315 0.72504 0.83805 0.0
O84 O 0.91165 0.71801 0.79187 0.0
O85 O 0.95047 0.7227 0.8966 0.0
C86 C 0.91725 0.69921 0.97279 0.0
O87 O 0.92172 0.71233 0.9877 0.0
C88 C 0.91826 0.69358 0.77957 0.0
O89 O 0.90778 0.68727 0.81504 0.0
O90 O 0.92135 0.72511 0.87572 0.0
C91 C 0.27014 0.21529 0.94976 0.0
O92 O 0.28373 0.22357 0.95851 0.0
O93 O 0.29602 0.20806 0.88763 0.0
Zn94 Zn 0.28031 0.1966 0.94144 0.0
O95 O 0.28875 0.20073 0.01787 0.0
C96 C 0.26764 0.1708 0.87732 0.0
O97 O 0.26667 0.17877 0.83874 0.0
O98 O 0.26554 0.20233 0.93932 0.0
C99 C 0.30078 0.20192 0.02557 0.0
O100 O 0.30721 0.19987 0.9835 0.0
C101 C 0.29461 0.21303 0.84188 0.0
O102 O 0.28209 0.21081 0.82719 0.0
O103 O 0.27258 0.17609 0.92476 0.0
C104 C 0.76809 0.04351 0.98512 0.0
O105 O 0.76026 0.04824 0.00721 0.0
O106 O 0.77188 0.07363 0.88549 0.0
Zn107 Zn 0.78311 0.0719 0.94841 0.0
O108 O 0.77824 0.07756 0.02107 0.0
C109 C 0.80797 0.0961 0.90756 0.0
O110 O 0.79852 0.09914 0.88887 0.0
O111 O 0.77872 0.05181 0.95586 0.0
C112 C 0.77767 0.08873 0.0291 0.0
O113 O 0.78052 0.09764 0.98787 0.0
C114 C 0.75981 0.07251 0.89146 0.0
O115 O 0.75385 0.06959 0.94078 0.0
O116 O 0.80387 0.08466 0.93412 0.0
C117 C 0.73081 0.94544 0.10349 0.0
O118 O 0.73195 0.93525 0.0797 0.0
O119 O 0.70101 0.91994 0.23922 0.0
Zn120 Zn 0.70884 0.92207 0.16155 0.0
O121 O 0.69306 0.91426 0.10571 0.0
C122 C 0.71671 0.9007 0.18252 0.0
O123 O 0.7079 0.89721 0.22452 0.0
O124 O 0.72175 0.94242 0.1419 0.0
C125 C 0.68323 0.90145 0.10683 0.0
O126 O 0.68313 0.89315 0.14655 0.0
C127 C 0.68952 0.91992 0.24737 0.0
O128 O 0.68311 0.92187 0.20494 0.0
O129 O 0.719 0.91114 0.15221 0.0
C130 C 0.05252 0.76249 0.04399 0.0
O131 O 0.06144 0.75777 0.04613 0.0
O132 O 0.08323 0.77776 0.12944 0.0
Zn133 Zn 0.07802 0.78655 0.06679 0.0
O134 O 0.0874 0.78591 0.99557 0.0
C135 C 0.08501 0.81582 0.05443 0.0
O136 O 0.07837 0.81154 0.00663 0.0
O137 O 0.05709 0.7755 0.05348 0.0
C138 C 0.09937 0.79585 0.9798 0.0
O139 O 0.1063 0.80705 0.01145 0.0
C140 C 0.09059 0.77183 0.12264 0.0
O141 O 0.09483 0.77097 0.07242 0.0
O142 O 0.08522 0.80681 0.08714 0.0
C143 C 0.22356 0.27047 0.02 0.0
O144 O 0.23331 0.28388 0.02259 0.0
O145 O 0.21898 0.29426 0.10639 0.0
Zn146 Zn 0.20766 0.28346 0.03901 0.0
O147 O 0.21417 0.29515 0.96932 0.0
C148 C 0.1809 0.27059 0.09589 0.0
O149 O 0.18799 0.26826 0.13452 0.0
O150 O 0.21074 0.26708 0.02692 0.0
C151 C 0.21069 0.30417 0.95491 0.0
O152 O 0.20248 0.30662 0.98724 0.0
C153 C 0.22349 0.30729 0.11511 0.0
O154 O 0.22091 0.31459 0.07841 0.0
O155 O 0.18715 0.27679 0.05129 0.0
C156 C 0.71137 0.5982 0.45544 0.0
O157 O 0.71981 0.59488 0.48197 0.0
O158 O 0.74051 0.63767 0.51128 0.0
Zn159 Zn 0.73644 0.62609 0.44121 0.0
O160 O 0.73987 0.63826 0.37361 0.0
C161 C 0.76081 0.62365 0.46405 0.0
O162 O 0.76406 0.63487 0.49431 0.0
O163 O 0.7162 0.61068 0.43723 0.0
C164 C 0.75193 0.64598 0.35182 0.0
O165 O 0.7631 0.64654 0.37473 0.0
C166 C 0.74017 0.6491 0.51276 0.0
O167 O 0.73617 0.65314 0.46824 0.0
O168 O 0.74921 0.61777 0.43748 0.0
C169 C 0.40527 0.11767 0.44458 0.0
O170 O 0.40167 0.11892 0.4955 0.0
O171 O 0.37091 0.1138 0.47753 0.0
Zn172 Zn 0.38264 0.12289 0.4094 0.0
O173 O 0.37055 0.11439 0.3416 0.0
C174 C 0.39994 0.15208 0.44334 0.0
O175 O 0.40643 0.14706 0.47359 0.0
O176 O 0.39873 0.11907 0.40362 0.0
C177 C 0.363 0.11891 0.31962 0.0
O178 O 0.36287 0.12983 0.3417 0.0
C179 C 0.36263 0.10054 0.47984 0.0
O180 O 0.36213 0.09267 0.43766 0.0
O181 O 0.38974 0.14375 0.41225 0.0
C182 C 0.89501 0.28196 0.39881 0.0
O183 O 0.90361 0.27696 0.39184 0.0
O184 O 0.8888 0.24963 0.46403 0.0
Zn185 Zn 0.87658 0.25298 0.41089 0.0
O186 O 0.88024 0.24824 0.3344 0.0
C187 C 0.85206 0.22912 0.45616 0.0
O188 O 0.86163 0.22603 0.47282 0.0
O189 O 0.88213 0.27342 0.41006 0.0
C190 C 0.87972 0.23659 0.32452 0.0
O191 O 0.87628 0.22733 0.36482 0.0
C192 C 0.89134 0.25431 0.51351 0.0
O193 O 0.88601 0.26199 0.53154 0.0
O194 O 0.85597 0.24051 0.42941 0.0
C195 C 0.94431 0.38082 0.27958 0.0
O196 O 0.95775 0.38504 0.27256 0.0
O197 O 0.96215 0.40855 0.17026 0.0
Zn198 Zn 0.95445 0.40893 0.24601 0.0
O199 O 0.97027 0.41619 0.3016 0.0
C200 C 0.94682 0.42964 0.20837 0.0
O201 O 0.95259 0.42921 0.16105 0.0
O202 O 0.93995 0.38939 0.26936 0.0
C203 C 0.9686 0.41992 0.34973 0.0
O204 O 0.95648 0.419 0.36233 0.0
C205 C 0.97437 0.41845 0.15691 0.0
O206 O 0.98146 0.42876 0.19241 0.0
O207 O 0.9462 0.42173 0.24822 0.0
C208 C 0.61455 0.54125 0.31584 0.0
O209 O 0.60397 0.52911 0.33252 0.0
O210 O 0.5941 0.55272 0.18055 0.0
Zn211 Zn 0.59286 0.54364 0.25522 0.0
O212 O 0.58512 0.55158 0.31143 0.0
C213 C 0.56991 0.51703 0.21665 0.0
O214 O 0.56863 0.52519 0.17984 0.0
O215 O 0.61225 0.54872 0.28156 0.0
C216 C 0.57961 0.5452 0.35668 0.0
O217 O 0.57881 0.53302 0.36681 0.0
C218 C 0.58582 0.55742 0.16974 0.0
O219 O 0.57657 0.5562 0.2074 0.0
O220 O 0.57988 0.52253 0.25197 0.0
C221 C 0.46021 0.07509 0.32086 0.0
O222 O 0.46777 0.07115 0.35027 0.0
O223 O 0.445 0.0414 0.19155 0.0
Zn224 Zn 0.45696 0.05204 0.25772 0.0
O225 O 0.44957 0.03975 0.32538 0.0
C226 C 0.48247 0.05648 0.2013 0.0
O227 O 0.47418 0.05129 0.15777 0.0
O228 O 0.45487 0.06882 0.27518 0.0
C229 C 0.4548 0.0328 0.34707 0.0
O230 O 0.46566 0.03289 0.32333 0.0
C231 C 0.44291 0.02914 0.18037 0.0
O232 O 0.44879 0.02369 0.21189 0.0
O233 O 0.47745 0.05796 0.24684 0.0
C234 C 0.61353 0.07041 0.23637 0.0
O235 O 0.60365 0.0736 0.24648 0.0
O236 O 0.59036 0.03841 0.10795 0.0
Zn237 Zn 0.59056 0.04519 0.18632 0.0
O238 O 0.58361 0.02898 0.24047 0.0
C239 C 0.56786 0.05038 0.1579 0.0
O240 O 0.56573 0.0414 0.11767 0.0
O241 O 0.6104 0.05919 0.20967 0.0
C242 C 0.57184 0.02373 0.26567 0.0
O243 O 0.56341 0.0288 0.25602 0.0
C244 C 0.5843 0.02531 0.09668 0.0
O245 O 0.57842 0.01608 0.13704 0.0
O246 O 0.57807 0.05382 0.19136 0.0
C247 C 0.92975 0.5496 0.31669 0.0
O248 O 0.93498 0.54966 0.36595 0.0
O249 O 0.96521 0.55397 0.21589 0.0
Zn250 Zn 0.95198 0.54469 0.28028 0.0
O251 O 0.96244 0.55298 0.35184 0.0
C252 C 0.94538 0.51763 0.23554 0.0
O253 O 0.94967 0.5248 0.18888 0.0
O254 O 0.93532 0.54763 0.27373 0.0
C255 C 0.97302 0.55166 0.36415 0.0
O256 O 0.97688 0.54489 0.32968 0.0
C257 C 0.97524 0.56669 0.21755 0.0
O258 O 0.97695 0.57427 0.26232 0.0
O259 O 0.94526 0.52392 0.27982 0.0
C260 C 0.43604 0.37864 0.29866 0.0
O261 O 0.42671 0.38284 0.30184 0.0
O262 O 0.44299 0.4109 0.22468 0.0
Zn263 Zn 0.45365 0.40802 0.28728 0.0
O264 O 0.44795 0.41241 0.36067 0.0
C265 C 0.4797 0.42976 0.23851 0.0
O266 O 0.4711 0.43022 0.2015 0.0
O267 O 0.44891 0.38778 0.29041 0.0
C268 C 0.44987 0.42454 0.37276 0.0
O269 O 0.4558 0.43477 0.33602 0.0
C270 C 0.43179 0.41152 0.23178 0.0
O271 O 0.42641 0.40982 0.28193 0.0
O272 O 0.47462 0.42089 0.27804 0.0
C273 C 0.38918 0.27927 0.41038 0.0
O274 O 0.37548 0.2743 0.41173 0.0
O275 O 0.37196 0.25042 0.5227 0.0
Zn276 Zn 0.37981 0.25138 0.44601 0.0
O277 O 0.3639 0.24359 0.39099 0.0
C278 C 0.39877 0.24046 0.47143 0.0
O279 O 0.40515 0.25128 0.50538 0.0
O280 O 0.39395 0.27127 0.42465 0.0
C281 C 0.36556 0.23993 0.34275 0.0
O282 O 0.37789 0.24149 0.32907 0.0
C283 C 0.36019 0.24994 0.52891 0.0
O284 O 0.35354 0.25079 0.48489 0.0
O285 O 0.38829 0.23889 0.44303 0.0
C286 C 0.70645 0.10617 0.40898 0.0
O287 O 0.71037 0.09671 0.40203 0.0
O288 O 0.73125 0.11045 0.53477 0.0
Zn289 Zn 0.73329 0.12021 0.46096 0.0
O290 O 0.7405 0.1121 0.40308 0.0
C291 C 0.75983 0.14388 0.48467 0.0
O292 O 0.76211 0.13355 0.49816 0.0
O293 O 0.7146 0.11749 0.43502 0.0
C294 C 0.74455 0.11786 0.35568 0.0
O295 O 0.74395 0.1293 0.34436 0.0
C296 C 0.73768 0.10362 0.54302 0.0
O297 O 0.74525 0.10266 0.50266 0.0
O298 O 0.74763 0.14087 0.46793 0.0
C299 C 0.86907 0.59085 0.33122 0.0
O300 O 0.8625 0.59335 0.2909 0.0
O301 O 0.88063 0.6277 0.44071 0.0
Zn302 Zn 0.86908 0.61477 0.37842 0.0
O303 O 0.87514 0.62489 0.30516 0.0
C304 C 0.84579 0.61681 0.41855 0.0
O305 O 0.85627 0.62856 0.43861 0.0
O306 O 0.8724 0.59837 0.37495 0.0
C307 C 0.87743 0.63734 0.29747 0.0
O308 O 0.87588 0.64422 0.33912 0.0
C309 C 0.89351 0.63729 0.43706 0.0
O310 O 0.90036 0.63885 0.39034 0.0
O311 O 0.84856 0.60859 0.3908 0.0
C312 C 0.38509 0.93469 0.69567 0.0
O313 O 0.39667 0.93731 0.66925 0.0
O314 O 0.40646 0.96248 0.8431 0.0
Zn315 Zn 0.40589 0.95397 0.76823 0.0
O316 O 0.41384 0.96973 0.71226 0.0
C317 C 0.42844 0.94888 0.79869 0.0
O318 O 0.43153 0.95925 0.83372 0.0
O319 O 0.38615 0.94039 0.74287 0.0
C320 C 0.42312 0.97162 0.67622 0.0
O321 O 0.42839 0.96315 0.67542 0.0
C322 C 0.40209 0.97124 0.84711 0.0
O323 O 0.39636 0.9736 0.80337 0.0
O324 O 0.41761 0.94451 0.7679 0.0
C325 C 0.06624 0.44373 0.72626 0.0
O326 O 0.05317 0.43552 0.7096 0.0
O327 O 0.0407 0.44983 0.81804 0.0
Zn328 Zn 0.05392 0.4601 0.75444 0.0
O329 O 0.04334 0.45425 0.68203 0.0
C330 C 0.05906 0.48633 0.80448 0.0
O331 O 0.0515 0.47802 0.84534 0.0
O332 O 0.06947 0.45536 0.74984 0.0
C333 C 0.03188 0.4542 0.67321 0.0
O334 O 0.02641 0.4582 0.71302 0.0
C335 C 0.02977 0.43768 0.81398 0.0
O336 O 0.02693 0.43088 0.76644 0.0
O337 O 0.06183 0.48104 0.76254 0.0
C338 C 0.56115 0.62189 0.73885 0.0
O339 O 0.57 0.61709 0.73657 0.0
O340 O 0.55483 0.59166 0.82805 0.0
Zn341 Zn 0.54374 0.5934 0.76425 0.0
O342 O 0.54883 0.58773 0.69227 0.0
C343 C 0.51901 0.56942 0.80579 0.0
O344 O 0.52866 0.56706 0.82752 0.0
O345 O 0.54847 0.61352 0.75348 0.0
C346 C 0.54766 0.57579 0.68216 0.0
O347 O 0.54284 0.56604 0.72098 0.0
C348 C 0.56603 0.59098 0.82184 0.0
O349 O 0.57132 0.59219 0.77178 0.0
O350 O 0.52291 0.58055 0.77728 0.0
C351 C 0.60685 0.7136 0.55126 0.0
O352 O 0.6203 0.71771 0.5449 0.0
O353 O 0.62408 0.73885 0.42976 0.0
Zn354 Zn 0.61699 0.7405 0.50493 0.0
O355 O 0.63326 0.74862 0.55865 0.0
C356 C 0.59826 0.75207 0.5217 0.0
O357 O 0.58937 0.73965 0.54267 0.0
O358 O 0.60234 0.72164 0.53465 0.0
C359 C 0.63111 0.7514 0.6078 0.0
O360 O 0.61841 0.74879 0.62163 0.0
C361 C 0.63453 0.75004 0.41077 0.0
O362 O 0.63967 0.76167 0.44043 0.0
O363 O 0.60994 0.75422 0.50192 0.0
C364 C 0.28745 0.89092 0.56126 0.0
O365 O 0.28122 0.88358 0.51634 0.0
O366 O 0.25516 0.89397 0.52078 0.0
Zn367 Zn 0.25953 0.88615 0.58904 0.0
O368 O 0.25342 0.89267 0.65653 0.0
C369 C 0.23575 0.85838 0.591 0.0
O370 O 0.22941 0.86554 0.60339 0.0
O371 O 0.28027 0.89332 0.59653 0.0
C372 C 0.24862 0.88587 0.70166 0.0
O373 O 0.24716 0.87326 0.70703 0.0
C374 C 0.25554 0.90577 0.5225 0.0
O375 O 0.25962 0.91322 0.56858 0.0
O376 O 0.24899 0.86497 0.58307 0.0
C377 C 0.12224 0.40199 0.59629 0.0
O378 O 0.13481 0.40424 0.61044 0.0
O379 O 0.11057 0.36891 0.46699 0.0
Zn380 Zn 0.11941 0.37703 0.5412 0.0
O381 O 0.11146 0.36136 0.59738 0.0
C382 C 0.14767 0.39072 0.4941 0.0
O383 O 0.14143 0.39186 0.44932 0.0
O384 O 0.11434 0.39144 0.56588 0.0
C385 C 0.11738 0.36289 0.64437 0.0
O386 O 0.12891 0.37484 0.65575 0.0
C387 C 0.11123 0.35832 0.44919 0.0
O388 O 0.11782 0.35337 0.4793 0.0
O389 O 0.14039 0.38509 0.53754 0.0
C390 C 0.28321 0.39214 0.57447 0.0
O391 O 0.27849 0.3785 0.57577 0.0
O392 O 0.2571 0.37183 0.45828 0.0
Zn393 Zn 0.25606 0.38173 0.52765 0.0
O394 O 0.247 0.36689 0.5874 0.0
C395 C 0.23637 0.39187 0.54662 0.0
O396 O 0.23737 0.38891 0.59873 0.0
O397 O 0.27543 0.39654 0.55376 0.0
C398 C 0.24833 0.36938 0.63936 0.0
O399 O 0.25567 0.38244 0.65727 0.0
C400 C 0.25756 0.36046 0.46147 0.0
O401 O 0.25826 0.35563 0.51065 0.0
O402 O 0.24369 0.39009 0.50989 0.0
C403 C 0.58524 0.86731 0.63892 0.0
O404 O 0.58271 0.85613 0.60976 0.0
O405 O 0.62769 0.88066 0.61585 0.0
Zn406 Zn 0.61137 0.86795 0.66555 0.0
O407 O 0.61849 0.86897 0.74338 0.0
C408 C 0.61047 0.84416 0.61187 0.0
O409 O 0.62373 0.85354 0.60188 0.0
O410 O 0.59678 0.87399 0.66562 0.0
C411 C 0.62767 0.88069 0.76416 0.0
O412 O 0.63236 0.89224 0.7343 0.0
C413 C 0.62575 0.88376 0.56696 0.0
O414 O 0.61279 0.87909 0.54932 0.0
O415 O 0.60288 0.84788 0.63886 0.0
C416 C 0.12994 0.72235 0.6293 0.0
O417 O 0.14346 0.73101 0.63787 0.0
O418 O 0.12447 0.74755 0.50224 0.0
Zn419 Zn 0.12977 0.74692 0.58198 0.0
O420 O 0.12179 0.75567 0.63345 0.0
C421 C 0.16042 0.76081 0.55728 0.0
O422 O 0.15729 0.75277 0.51294 0.0
O423 O 0.12258 0.7269 0.60587 0.0
C424 C 0.12787 0.76906 0.6354 0.0
O425 O 0.13819 0.77654 0.60046 0.0
C426 C 0.11501 0.75049 0.48855 0.0
O427 O 0.10817 0.753 0.52761 0.0
O428 O 0.15069 0.75913 0.59053 0.0
C429 C 0.06598 0.6251 0.75072 0.0
O430 O 0.05291 0.62195 0.74085 0.0
O431 O 0.04345 0.59685 0.86322 0.0
Zn432 Zn 0.05187 0.59658 0.78905 0.0
O433 O 0.03698 0.59127 0.72985 0.0
C434 C 0.0572 0.57426 0.82793 0.0
O435 O 0.05124 0.57489 0.87442 0.0
O436 O 0.06825 0.61581 0.77222 0.0
C437 C 0.03729 0.58527 0.68502 0.0
O438 O 0.04755 0.58251 0.67711 0.0
C439 C 0.03107 0.58704 0.87516 0.0
O440 O 0.02414 0.57685 0.83901 0.0
O441 O 0.05861 0.58248 0.78803 0.0
C442 C 0.37552 0.43955 0.75955 0.0
O443 O 0.37936 0.43011 0.76884 0.0
O444 O 0.40194 0.4476 0.8719 0.0
Zn445 Zn 0.40331 0.45655 0.79672 0.0
O446 O 0.41069 0.44828 0.74019 0.0
C447 C 0.42898 0.48127 0.82133 0.0
O448 O 0.43168 0.47153 0.83935 0.0
O449 O 0.3842 0.45242 0.77036 0.0
C450 C 0.41626 0.4546 0.69491 0.0
O451 O 0.41731 0.46689 0.68478 0.0
C452 C 0.40877 0.44121 0.88118 0.0
O453 O 0.41636 0.44019 0.84105 0.0
O454 O 0.41687 0.47747 0.80106 0.0
C455 C 0.53485 0.91992 0.66592 0.0
O456 O 0.52456 0.91919 0.63525 0.0
O457 O 0.54988 0.96133 0.75114 0.0
Zn458 Zn 0.53849 0.947 0.69199 0.0
O459 O 0.54474 0.95575 0.61628 0.0
C460 C 0.51335 0.94263 0.74824 0.0
O461 O 0.5223 0.94905 0.78903 0.0
O462 O 0.54207 0.93079 0.6958 0.0
C463 C 0.53856 0.96106 0.58913 0.0
O464 O 0.52741 0.96082 0.61068 0.0
C465 C 0.55667 0.97454 0.74185 0.0
O466 O 0.5568 0.97919 0.69139 0.0
O467 O 0.5178 0.94029 0.7029 0.0
H468 H 0.11019 0.2712 0.02766 0.0
H469 H 0.09607 0.25574 0.19513 0.0
H470 H 0.11703 0.25312 0.20873 0.0
H471 H 0.12598 0.24905 0.99617 0.0
H472 H 0.14045 0.26306 0.95848 0.0
H473 H 0.1235 0.26207 0.95984 0.0
H474 H 0.13532 0.28766 0.99771 0.0
H475 H 0.15226 0.28871 0.99679 0.0
H476 H 0.14574 0.29209 0.06041 0.0
H477 H 0.14055 0.25411 0.20664 0.0
H478 H 0.16481 0.25885 0.1893 0.0
H479 H 0.16349 0.27404 0.02378 0.0
C480 C 0.11132 0.26696 0.0668 0.0
C481 C 0.10145 0.2636 0.11024 0.0
C482 C 0.10348 0.25834 0.16119 0.0
C483 C 0.11533 0.25678 0.16926 0.0
C484 C 0.12502 0.2605 0.12595 0.0
C485 C 0.12311 0.26544 0.07565 0.0
C486 C 0.13556 0.26971 0.03727 0.0
C487 C 0.1311 0.26041 0.98484 0.0
C488 C 0.14263 0.28548 0.0222 0.0
C489 C 0.14493 0.26672 0.07428 0.0
C490 C 0.13862 0.26126 0.12501 0.0
C491 C 0.14554 0.25824 0.16683 0.0
C492 C 0.15932 0.26099 0.15663 0.0
C493 C 0.16605 0.2668 0.10519 0.0
C494 C 0.15864 0.26952 0.06344 0.0
H495 H 0.71645 0.82825 0.1726 0.0
H496 H 0.73862 0.84209 0.01519 0.0
H497 H 0.74203 0.86593 0.03094 0.0
H498 H 0.69717 0.84501 0.15696 0.0
H499 H 0.69753 0.84962 0.22919 0.0
H500 H 0.69902 0.83451 0.2105 0.0
H501 H 0.72256 0.84473 0.265 0.0
H502 H 0.72113 0.85989 0.28411 0.0
H503 H 0.73675 0.86224 0.24926 0.0
H504 H 0.74073 0.88729 0.05876 0.0
H505 H 0.73394 0.90423 0.09403 0.0
H506 H 0.71193 0.87612 0.23201 0.0
C507 C 0.72239 0.83641 0.14219 0.0
C508 C 0.72741 0.83339 0.09294 0.0
C509 C 0.73477 0.84422 0.05337 0.0
C510 C 0.73681 0.85779 0.06209 0.0
C511 C 0.73141 0.86033 0.11052 0.0
C512 C 0.72435 0.84993 0.14993 0.0
C513 C 0.7182 0.85485 0.19527 0.0
C514 C 0.70203 0.84544 0.19809 0.0
C515 C 0.72508 0.85547 0.25175 0.0
C516 C 0.7225 0.86949 0.17427 0.0
C517 C 0.73034 0.87255 0.12593 0.0
C518 C 0.73476 0.8851 0.09698 0.0
C519 C 0.73082 0.89464 0.11734 0.0
C520 C 0.72241 0.89151 0.16585 0.0
C521 C 0.71848 0.87889 0.19517 0.0
H522 H 0.10345 0.82764 0.1411 0.0
H523 H 0.08923 0.83827 0.98963 0.0
H524 H 0.10862 0.86294 0.99814 0.0
H525 H 0.11683 0.86247 0.21353 0.0
H526 H 0.13159 0.86158 0.24222 0.0
H527 H 0.11506 0.84559 0.23008 0.0
H528 H 0.12806 0.83596 0.16997 0.0
H529 H 0.14455 0.85193 0.18123 0.0
H530 H 0.13844 0.84612 0.11132 0.0
H531 H 0.13157 0.88526 0.0149 0.0
H532 H 0.15578 0.90363 0.03988 0.0
H533 H 0.15507 0.87825 0.17996 0.0
C534 C 0.1041 0.83523 0.11066 0.0
C535 C 0.09476 0.83102 0.0648 0.0
C536 C 0.09618 0.84126 0.02532 0.0
C537 C 0.10717 0.8553 0.02984 0.0
C538 C 0.11655 0.85895 0.07432 0.0
C539 C 0.11502 0.84923 0.11441 0.0
C540 C 0.12731 0.85536 0.15468 0.0
C541 C 0.1224 0.85631 0.21362 0.0
C542 C 0.13504 0.84684 0.15422 0.0
C543 C 0.13631 0.86987 0.12967 0.0
C544 C 0.12984 0.87182 0.08385 0.0
C545 C 0.13661 0.88396 0.05134 0.0
C546 C 0.1504 0.89431 0.06574 0.0
C547 C 0.1573 0.8924 0.11204 0.0
C548 C 0.15002 0.88011 0.14482 0.0
H549 H 0.27416 0.10266 0.92593 0.0
H550 H 0.26276 0.09191 0.75248 0.0
H551 H 0.25794 0.11163 0.74431 0.0
H552 H 0.24836 0.11391 0.95733 0.0
H553 H 0.26053 0.12805 0.00185 0.0
H554 H 0.26166 0.11224 0.99531 0.0
H555 H 0.28791 0.12725 0.96608 0.0
H556 H 0.28687 0.14307 0.97254 0.0
H557 H 0.29254 0.13916 0.90791 0.0
H558 H 0.25625 0.13371 0.75334 0.0
H559 H 0.25835 0.1566 0.77824 0.0
H560 H 0.27086 0.15263 0.94569 0.0
C561 C 0.27043 0.10428 0.88641 0.0
C562 C 0.26879 0.09572 0.83987 0.0
C563 C 0.26406 0.09832 0.78875 0.0
C564 C 0.26125 0.10946 0.78375 0.0
C565 C 0.26316 0.11783 0.83032 0.0
C566 C 0.26761 0.11534 0.8807 0.0
C567 C 0.26976 0.12639 0.92342 0.0
C568 C 0.25946 0.11975 0.97237 0.0
C569 C 0.28518 0.13444 0.94364 0.0
C570 C 0.26617 0.13571 0.88885 0.0
C571 C 0.26223 0.13053 0.83545 0.0
C572 C 0.25916 0.13778 0.79522 0.0
C573 C 0.26039 0.15077 0.80976 0.0
C574 C 0.26473 0.1564 0.86394 0.0
C575 C 0.26739 0.14858 0.90406 0.0
H576 H 0.81995 0.12232 0.86052 0.0
H577 H 0.8304 0.09315 0.94053 0.0
H578 H 0.85576 0.11103 0.93489 0.0
H579 H 0.85056 0.13885 0.76691 0.0
H580 H 0.85237 0.15606 0.77452 0.0
H581 H 0.83521 0.14047 0.78005 0.0
H582 H 0.83184 0.14865 0.87723 0.0
H583 H 0.84895 0.16422 0.87205 0.0
H584 H 0.84486 0.15253 0.93063 0.0
H585 H 0.87987 0.13285 0.92694 0.0
H586 H 0.90061 0.15681 0.91825 0.0
H587 H 0.87404 0.1714 0.8437 0.0
C588 C 0.82756 0.11958 0.87608 0.0
C589 C 0.82319 0.10632 0.90082 0.0
C590 C 0.8335 0.10323 0.92125 0.0
C591 C 0.84793 0.11331 0.91812 0.0
C592 C 0.85185 0.12636 0.89422 0.0
C593 C 0.84195 0.12948 0.87339 0.0
C594 C 0.84878 0.14454 0.85283 0.0
C595 C 0.8466 0.145 0.78983 0.0
C596 C 0.84328 0.15297 0.88514 0.0
C597 C 0.86405 0.14953 0.86652 0.0
C598 C 0.86566 0.13888 0.88984 0.0
C599 C 0.87876 0.14122 0.90816 0.0
C600 C 0.89047 0.15487 0.90307 0.0
C601 C 0.88896 0.16597 0.88017 0.0
C602 C 0.87559 0.16314 0.86104 0.0
H603 H 0.84156 0.72555 0.80243 0.0
H604 H 0.847 0.74082 0.97238 0.0
H605 H 0.87119 0.74451 0.97308 0.0
H606 H 0.85779 0.70571 0.82079 0.0
H607 H 0.86596 0.70923 0.75313 0.0
H608 H 0.85002 0.7099 0.76299 0.0
H609 H 0.86242 0.73547 0.7247 0.0
H610 H 0.87845 0.73488 0.71476 0.0
H611 H 0.87866 0.74873 0.75607 0.0
H612 H 0.89368 0.74411 0.95888 0.0
H613 H 0.9122 0.7386 0.93255 0.0
H614 H 0.89193 0.72333 0.7722 0.0
C615 C 0.84795 0.73 0.83934 0.0
C616 C 0.84243 0.73299 0.88722 0.0
C617 C 0.85103 0.73849 0.93514 0.0
C618 C 0.86481 0.7407 0.93583 0.0
C619 C 0.86985 0.73739 0.88824 0.0
C620 C 0.86168 0.73216 0.84085 0.0
C621 C 0.869 0.7281 0.79729 0.0
C622 C 0.86017 0.7123 0.78274 0.0
C623 C 0.87233 0.73735 0.74512 0.0
C624 C 0.88235 0.73139 0.82829 0.0
C625 C 0.88276 0.73698 0.88028 0.0
C626 C 0.89358 0.73994 0.91795 0.0
C627 C 0.90406 0.73676 0.9026 0.0
C628 C 0.90355 0.73057 0.85023 0.0
C629 C 0.89273 0.72822 0.81224 0.0
H630 H 0.83687 0.63182 0.47983 0.0
H631 H 0.82163 0.59525 0.37189 0.0
H632 H 0.79749 0.59173 0.37784 0.0
H633 H 0.80533 0.61814 0.56835 0.0
H634 H 0.80674 0.63522 0.57412 0.0
H635 H 0.82241 0.63391 0.56553 0.0
H636 H 0.82929 0.65011 0.4788 0.0
H637 H 0.81365 0.65143 0.48697 0.0
H638 H 0.81694 0.64532 0.42207 0.0
H639 H 0.77549 0.59364 0.38903 0.0
H640 H 0.75749 0.60061 0.40548 0.0
H641 H 0.78749 0.63578 0.5066 0.0
C642 C 0.82844 0.62293 0.45805 0.0
C643 C 0.83112 0.6138 0.4254 0.0
C644 C 0.8198 0.60234 0.39734 0.0
C645 C 0.80606 0.60026 0.40051 0.0
C646 C 0.80385 0.60964 0.4323 0.0
C647 C 0.81473 0.62069 0.46089 0.0
C648 C 0.80984 0.62977 0.48966 0.0
C649 C 0.81115 0.62922 0.55318 0.0
C650 C 0.81791 0.64506 0.46805 0.0
C651 C 0.79456 0.62234 0.47164 0.0
C652 C 0.79124 0.61069 0.43896 0.0
C653 C 0.77792 0.60264 0.41515 0.0
C654 C 0.76778 0.60669 0.42463 0.0
C655 C 0.77107 0.61872 0.45746 0.0
C656 C 0.78459 0.62647 0.48174 0.0
H657 H 0.38752 0.16528 0.39091 0.0
H658 H 0.42059 0.17257 0.50874 0.0
H659 H 0.42539 0.19695 0.5232 0.0
H660 H 0.40486 0.20103 0.331 0.0
H661 H 0.3884 0.20097 0.32477 0.0
H662 H 0.38865 0.18466 0.3196 0.0
H663 H 0.37019 0.17402 0.39895 0.0
H664 H 0.36992 0.19028 0.40448 0.0
H665 H 0.37385 0.18308 0.46483 0.0
H666 H 0.4251 0.21986 0.53077 0.0
H667 H 0.41972 0.2393 0.53043 0.0
H668 H 0.38693 0.21667 0.40736 0.0
C669 C 0.39595 0.17205 0.41906 0.0
C670 C 0.4037 0.16703 0.44861 0.0
C671 C 0.41453 0.17621 0.48549 0.0
C672 C 0.41736 0.19008 0.49392 0.0
C673 C 0.40933 0.19461 0.46486 0.0
C674 C 0.3989 0.18588 0.42792 0.0
C675 C 0.39117 0.19293 0.40438 0.0
C676 C 0.39341 0.19502 0.34119 0.0
C677 C 0.37535 0.18458 0.41907 0.0
C678 C 0.39862 0.20687 0.4349 0.0
C679 C 0.40916 0.20773 0.46921 0.0
C680 C 0.41699 0.21938 0.50354 0.0
C681 C 0.41385 0.23035 0.50313 0.0
C682 C 0.40293 0.22953 0.46884 0.0
C683 C 0.39541 0.21769 0.43383 0.0
H684 H 0.84052 0.20287 0.50228 0.0
H685 H 0.82933 0.23203 0.42724 0.0
H686 H 0.80405 0.21394 0.4341 0.0
H687 H 0.81573 0.17299 0.43132 0.0
H688 H 0.81195 0.161 0.48863 0.0
H689 H 0.82894 0.17674 0.48377 0.0
H690 H 0.82569 0.18427 0.58245 0.0
H691 H 0.80867 0.16849 0.5877 0.0
H692 H 0.81022 0.18554 0.59759 0.0
H693 H 0.78009 0.19186 0.44205 0.0
H694 H 0.75962 0.16768 0.44946 0.0
H695 H 0.78691 0.15329 0.51858 0.0
C696 C 0.83277 0.20558 0.48819 0.0
C697 C 0.8369 0.21888 0.4644 0.0
C698 C 0.82641 0.22191 0.4458 0.0
C699 C 0.81203 0.21172 0.44964 0.0
C700 C 0.80835 0.1986 0.47239 0.0
C701 C 0.81844 0.19555 0.49155 0.0
C702 C 0.81187 0.1804 0.51069 0.0
C703 C 0.81745 0.17231 0.47655 0.0
C704 C 0.81425 0.17964 0.57333 0.0
C705 C 0.79652 0.17527 0.49806 0.0
C706 C 0.79464 0.18594 0.47659 0.0
C707 C 0.78142 0.18347 0.45942 0.0
C708 C 0.76986 0.16971 0.46376 0.0
C709 C 0.77166 0.1586 0.48469 0.0
C710 C 0.78515 0.16155 0.50271 0.0
H711 H 0.9501 0.50276 0.15511 0.0
H712 H 0.93295 0.49894 0.32118 0.0
H713 H 0.92889 0.47467 0.32766 0.0
H714 H 0.92686 0.4655 0.11214 0.0
H715 H 0.94093 0.465 0.07508 0.0
H716 H 0.94071 0.48132 0.08047 0.0
H717 H 0.96585 0.49349 0.12301 0.0
H718 H 0.96614 0.47724 0.11788 0.0
H719 H 0.96915 0.48603 0.18412 0.0
H720 H 0.92894 0.45194 0.32005 0.0
H721 H 0.93355 0.43252 0.29977 0.0
H722 H 0.95086 0.45121 0.13887 0.0
C723 C 0.94519 0.49671 0.19235 0.0
C724 C 0.94177 0.5027 0.23753 0.0
C725 C 0.93563 0.49454 0.28599 0.0
C726 C 0.93322 0.48073 0.28997 0.0
C727 C 0.93697 0.47524 0.24509 0.0
C728 C 0.94279 0.48295 0.19713 0.0
C729 C 0.94703 0.47507 0.1569 0.0
C730 C 0.93836 0.47151 0.10296 0.0
C731 C 0.96299 0.48346 0.14481 0.0
C732 C 0.94308 0.46191 0.19047 0.0
C733 C 0.93711 0.46212 0.24086 0.0
C734 C 0.93342 0.45155 0.28041 0.0
C735 C 0.93611 0.44058 0.26853 0.0
C736 C 0.94252 0.44032 0.21764 0.0
C737 C 0.94578 0.45101 0.17782 0.0
H738 H 0.54603 0.50285 0.15365 0.0
H739 H 0.56865 0.49736 0.29085 0.0
H740 H 0.54882 0.47312 0.30491 0.0
H741 H 0.51325 0.48637 0.21556 0.0
H742 H 0.50338 0.47817 0.15317 0.0
H743 H 0.52012 0.49421 0.14855 0.0
H744 H 0.52931 0.48209 0.08129 0.0
H745 H 0.51253 0.46598 0.08544 0.0
H746 H 0.52856 0.46588 0.1019 0.0
H747 H 0.52543 0.45062 0.31094 0.0
H748 H 0.50048 0.43163 0.30799 0.0
H749 H 0.4933 0.45199 0.1668 0.0
C750 C 0.54698 0.49646 0.18583 0.0
C751 C 0.55891 0.50199 0.22102 0.0
C752 C 0.55964 0.49333 0.26318 0.0
C753 C 0.54844 0.47953 0.27143 0.0
C754 C 0.53666 0.47454 0.23689 0.0
C755 C 0.53592 0.48271 0.19464 0.0
C756 C 0.52166 0.47535 0.16621 0.0
C757 C 0.51417 0.48404 0.17122 0.0
C758 C 0.52311 0.47213 0.10509 0.0
C759 C 0.51432 0.46196 0.20032 0.0
C760 C 0.52318 0.4616 0.24042 0.0
C761 C 0.51846 0.45069 0.27915 0.0
C762 C 0.50425 0.43997 0.27723 0.0
C763 C 0.49494 0.4403 0.23705 0.0
C764 C 0.50016 0.45134 0.19764 0.0
H765 H 0.54417 0.04392 0.09728 0.0
H766 H 0.56818 0.06744 0.24203 0.0
H767 H 0.54978 0.07346 0.26412 0.0
H768 H 0.53006 0.0674 0.06081 0.0
H769 H 0.51323 0.05279 0.04006 0.0
H770 H 0.52903 0.05168 0.03222 0.0
H771 H 0.51769 0.02866 0.09042 0.0
H772 H 0.50191 0.02972 0.09863 0.0
H773 H 0.51109 0.02869 0.15912 0.0
H774 H 0.52764 0.07464 0.27634 0.0
H775 H 0.50365 0.07149 0.2761 0.0
H776 H 0.49436 0.04765 0.12231 0.0
C777 C 0.54571 0.05057 0.13301 0.0
C778 C 0.55763 0.05523 0.16786 0.0
C779 C 0.55916 0.06379 0.21458 0.0
C780 C 0.54878 0.06728 0.22744 0.0
C781 C 0.53701 0.06225 0.19289 0.0
C782 C 0.53548 0.05419 0.14634 0.0
C783 C 0.52144 0.04937 0.11799 0.0
C784 C 0.52357 0.05569 0.05929 0.0
C785 C 0.51251 0.03315 0.1165 0.0
C786 C 0.51513 0.05564 0.15679 0.0
C787 C 0.52431 0.06311 0.19953 0.0
C788 C 0.52045 0.06902 0.24258 0.0
C789 C 0.50679 0.06714 0.24218 0.0
C790 C 0.49719 0.05943 0.19896 0.0
C791 C 0.50154 0.05381 0.15539 0.0
H792 H 0.45273 0.95617 0.85647 0.0
H793 H 0.42682 0.92998 0.72013 0.0
H794 H 0.44486 0.92348 0.69826 0.0
H795 H 0.48472 0.97022 0.78891 0.0
H796 H 0.49481 0.9703 0.84836 0.0
H797 H 0.47908 0.97137 0.85824 0.0
H798 H 0.46874 0.94937 0.92226 0.0
H799 H 0.48451 0.94828 0.91283 0.0
H800 H 0.46749 0.93327 0.89708 0.0
H801 H 0.46698 0.92237 0.68349 0.0
H802 H 0.49114 0.92599 0.67959 0.0
H803 H 0.50231 0.95238 0.82696 0.0
C804 C 0.45069 0.94881 0.82281 0.0
C805 C 0.43835 0.94357 0.79008 0.0
C806 C 0.43616 0.93408 0.74599 0.0
C807 C 0.44634 0.93031 0.73325 0.0
C808 C 0.45856 0.93597 0.76542 0.0
C809 C 0.4607 0.94488 0.80972 0.0
C810 C 0.47514 0.95028 0.83535 0.0
C811 C 0.48395 0.9665 0.8325 0.0
C812 C 0.47389 0.94498 0.89545 0.0
C813 C 0.481 0.94345 0.79722 0.0
C814 C 0.47124 0.93513 0.75744 0.0
C815 C 0.47462 0.92863 0.71507 0.0
C816 C 0.48838 0.93079 0.71306 0.0
C817 C 0.49856 0.93937 0.75321 0.0
C818 C 0.4947 0.94557 0.79624 0.0
H819 H 0.05046 0.55141 0.8944 0.0
H820 H 0.07286 0.57233 0.74321 0.0
H821 H 0.07804 0.55313 0.72622 0.0
H822 H 0.07313 0.53661 0.9346 0.0
H823 H 0.0583 0.52039 0.95911 0.0
H824 H 0.0579 0.53664 0.96314 0.0
H825 H 0.03448 0.52518 0.90735 0.0
H826 H 0.03482 0.50894 0.90309 0.0
H827 H 0.03374 0.51739 0.84041 0.0
H828 H 0.07886 0.53071 0.72095 0.0
H829 H 0.07477 0.50643 0.72665 0.0
H830 H 0.05166 0.50006 0.88088 0.0
C831 C 0.05673 0.55212 0.85837 0.0
C832 C 0.06133 0.56341 0.82031 0.0
C833 C 0.06925 0.5638 0.77303 0.0
C834 C 0.0723 0.55298 0.76314 0.0
C835 C 0.06738 0.54187 0.80095 0.0
C836 C 0.05979 0.54137 0.84769 0.0
C837 C 0.05471 0.5277 0.8793 0.0
C838 C 0.06142 0.53051 0.93749 0.0
C839 C 0.03848 0.51931 0.88269 0.0
C840 C 0.0603 0.52043 0.8422 0.0
C841 C 0.06774 0.52885 0.79764 0.0
C842 C 0.07321 0.52409 0.75603 0.0
C843 C 0.07081 0.51027 0.75961 0.0
C844 C 0.06293 0.50135 0.80429 0.0
C845 C 0.05786 0.50665 0.84653 0.0
H846 H 0.45552 0.49236 0.86417 0.0
H847 H 0.42805 0.50395 0.777 0.0
H848 H 0.44774 0.52858 0.77037 0.0
H849 H 0.47582 0.52552 0.94194 0.0
H850 H 0.49204 0.52515 0.93502 0.0
H851 H 0.47539 0.50886 0.9376 0.0
H852 H 0.48121 0.50115 0.84392 0.0
H853 H 0.49781 0.51739 0.84097 0.0
H854 H 0.4855 0.51251 0.78409 0.0
H855 H 0.47114 0.55146 0.766 0.0
H856 H 0.49612 0.57055 0.76491 0.0
H857 H 0.50781 0.54363 0.85573 0.0
C858 C 0.45354 0.5001 0.84443 0.0
C859 C 0.44025 0.49624 0.82117 0.0
C860 C 0.43815 0.50669 0.79534 0.0
C861 C 0.44926 0.5207 0.79143 0.0
C862 C 0.46232 0.52408 0.81398 0.0
C863 C 0.46446 0.51407 0.8403 0.0
C864 C 0.47965 0.52013 0.85829 0.0
C865 C 0.48079 0.5199 0.922 0.0
C866 C 0.48643 0.51233 0.83012 0.0
C867 C 0.48584 0.53503 0.83671 0.0
C868 C 0.4757 0.53718 0.8117 0.0
C869 C 0.47914 0.54994 0.78612 0.0
C870 C 0.49335 0.56072 0.78564 0.0
C871 C 0.50391 0.55861 0.81039 0.0
C872 C 0.49999 0.54565 0.83688 0.0
H873 H 0.6239 0.83328 0.55127 0.0
H874 H 0.58423 0.8215 0.63381 0.0
H875 H 0.57556 0.79648 0.61039 0.0
H876 H 0.60906 0.80673 0.43897 0.0
H877 H 0.62392 0.80387 0.44036 0.0
H878 H 0.62629 0.82092 0.45825 0.0
H879 H 0.63711 0.82 0.55309 0.0
H880 H 0.63478 0.803 0.5355 0.0
H881 H 0.62721 0.80518 0.59872 0.0
H882 H 0.57231 0.77253 0.58654 0.0
H883 H 0.57482 0.75181 0.56442 0.0
H884 H 0.61646 0.77966 0.49622 0.0
C885 C 0.6133 0.82549 0.56367 0.0
C886 C 0.60475 0.82934 0.59437 0.0
C887 C 0.59096 0.81879 0.61013 0.0
C888 C 0.58593 0.80456 0.59688 0.0
C889 C 0.59475 0.80111 0.56738 0.0
C890 C 0.60811 0.8113 0.55066 0.0
C891 C 0.6159 0.80482 0.52273 0.0
C892 C 0.61897 0.80936 0.46143 0.0
C893 C 0.62955 0.80846 0.55442 0.0
C894 C 0.60502 0.78935 0.52788 0.0
C895 C 0.59283 0.78738 0.5532 0.0
C896 C 0.58172 0.77394 0.56587 0.0
C897 C 0.58324 0.76224 0.55321 0.0
C898 C 0.5958 0.7641 0.52836 0.0
C899 C 0.60665 0.77784 0.51455 0.0
H900 H 0.16723 0.7835 0.62336 0.0
H901 H 0.18514 0.76723 0.50324 0.0
H902 H 0.20766 0.79003 0.50608 0.0
H903 H 0.18076 0.81623 0.56325 0.0
H904 H 0.18377 0.82579 0.6276 0.0
H905 H 0.17014 0.80758 0.6236 0.0
H906 H 0.18131 0.8015 0.70641 0.0
H907 H 0.19495 0.81976 0.71114 0.0
H908 H 0.19962 0.80621 0.7033 0.0
H909 H 0.22758 0.8154 0.51731 0.0
H910 H 0.24248 0.8412 0.53135 0.0
H911 H 0.2103 0.84068 0.63838 0.0
C912 C 0.17598 0.78453 0.5987 0.0
C913 C 0.17449 0.77352 0.56351 0.0
C914 C 0.18611 0.77549 0.53085 0.0
C915 C 0.19892 0.78838 0.53231 0.0
C916 C 0.19986 0.79916 0.56636 0.0
C917 C 0.18865 0.79732 0.59887 0.0
C918 C 0.19164 0.81088 0.62719 0.0
C919 C 0.18094 0.81538 0.60931 0.0
C920 C 0.1919 0.8095 0.69078 0.0
C921 C 0.2062 0.82078 0.60461 0.0
C922 C 0.21092 0.81381 0.57056 0.0
C923 C 0.22401 0.82093 0.54414 0.0
C924 C 0.23239 0.83556 0.55235 0.0
C925 C 0.22747 0.84289 0.58569 0.0
C926 C 0.21428 0.83534 0.61244 0.0
H927 H 0.21546 0.39105 0.61141 0.0
H928 H 0.23257 0.40046 0.44396 0.0
H929 H 0.21287 0.40393 0.41438 0.0
H930 H 0.18061 0.37058 0.57273 0.0
H931 H 0.17348 0.37635 0.62775 0.0
H932 H 0.18997 0.37678 0.63769 0.0
H933 H 0.20222 0.40344 0.66142 0.0
H934 H 0.1857 0.40308 0.65179 0.0
H935 H 0.20108 0.41544 0.61312 0.0
H936 H 0.18999 0.40387 0.401 0.0
H937 H 0.16566 0.39984 0.40456 0.0
H938 H 0.16358 0.39008 0.58056 0.0
C939 C 0.21529 0.3942 0.56884 0.0
C940 C 0.2256 0.39557 0.53007 0.0
C941 C 0.22481 0.39941 0.47445 0.0
C942 C 0.21369 0.40145 0.45731 0.0
C943 C 0.2035 0.39965 0.49633 0.0
C944 C 0.20424 0.39617 0.55102 0.0
C945 C 0.19133 0.39357 0.58359 0.0
C946 C 0.18338 0.37842 0.60676 0.0
C947 C 0.19532 0.40454 0.63023 0.0
C948 C 0.18298 0.39569 0.5383 0.0
C949 C 0.19025 0.39941 0.48846 0.0
C950 C 0.18428 0.40115 0.43998 0.0
C951 C 0.17045 0.39882 0.4424 0.0
C952 C 0.16272 0.39466 0.49283 0.0
C953 C 0.16923 0.39334 0.54143 0.0
H954 H 0.03064 0.25081 0.99353 0.0
H955 H 0.02814 0.23414 0.15965 0.0
H956 H 0.00264 0.21757 0.14592 0.0
H957 H 0.9985 0.25056 0.99862 0.0
H958 H 0.99406 0.2457 0.92668 0.0
H959 H 0.01227 0.25525 0.94784 0.0
H960 H 0.0162 0.23568 0.90557 0.0
H961 H 0.99797 0.22605 0.88425 0.0
H962 H 0.0051 0.21763 0.92728 0.0
H963 H 0.97713 0.20377 0.11558 0.0
H964 H 0.9536 0.19449 0.07274 0.0
H965 H 0.97305 0.22062 0.92725 0.0
C966 C 0.02481 0.24355 0.02684 0.0
C967 C 0.03141 0.24372 0.07761 0.0
C968 C 0.02332 0.23417 0.12035 0.0
C969 C 0.00884 0.22469 0.11286 0.0
C970 C 0.00266 0.22491 0.06242 0.0
C971 C 0.0104 0.23411 0.02018 0.0
C972 C 0.00114 0.23288 0.97128 0.0
C973 C 0.00151 0.24693 0.96051 0.0
C974 C 0.00536 0.22775 0.91901 0.0
C975 C 0.9869 0.22172 0.99294 0.0
C976 C 0.988 0.21713 0.04529 0.0
C977 C 0.97616 0.20721 0.07442 0.0
C978 C 0.96284 0.20199 0.04971 0.0
C979 C 0.96148 0.20681 0.9966 0.0
C980 C 0.97373 0.21666 0.96774 0.0
H981 H 0.7664 0.7436 0.90126 0.0
H982 H 0.80158 0.76049 0.01701 0.0
H983 H 0.79419 0.77691 0.05398 0.0
H984 H 0.76699 0.77665 0.87331 0.0
H985 H 0.74801 0.76813 0.86994 0.0
H986 H 0.75681 0.75859 0.85026 0.0
H987 H 0.74166 0.739 0.92152 0.0
H988 H 0.73289 0.74851 0.94167 0.0
H989 H 0.74162 0.74367 0.99344 0.0
H990 H 0.78191 0.79055 0.08174 0.0
H991 H 0.76603 0.80029 0.09682 0.0
H992 H 0.73908 0.77396 0.96286 0.0
C993 C 0.7727 0.75087 0.93385 0.0
C994 C 0.78459 0.75078 0.95614 0.0
C995 C 0.79245 0.7604 0.99914 0.0
C996 C 0.78834 0.76976 0.02041 0.0
C997 C 0.77638 0.76938 0.99806 0.0
C998 C 0.76874 0.76021 0.95553 0.0
C999 C 0.75597 0.76138 0.94017 0.0
C1000 C 0.75702 0.76649 0.87984 0.0
C1001 C 0.74223 0.7473 0.9498 0.0
C1002 C 0.75748 0.7725 0.98124 0.0
C1003 C 0.76934 0.77708 0.01413 0.0
C1004 C 0.77264 0.7871 0.05594 0.0
C1005 C 0.76356 0.79255 0.06425 0.0
C1006 C 0.75131 0.78789 0.03106 0.0
C1007 C 0.74835 0.77778 0.98897 0.0
H1008 H 0.22156 0.97197 0.06709 0.0
H1009 H 0.18474 0.95582 0.96004 0.0
H1010 H 0.19456 0.97929 0.91608 0.0
H1011 H 0.22731 0.00804 0.08372 0.0
H1012 H 0.24623 0.01582 0.08168 0.0
H1013 H 0.23542 0.99829 0.10921 0.0
H1014 H 0.24674 0.98878 0.03937 0.0
H1015 H 0.25747 0.00622 0.01128 0.0
H1016 H 0.24613 0.99183 0.96597 0.0
H1017 H 0.20944 0.00398 0.87836 0.0
H1018 H 0.22807 0.02788 0.8504 0.0
H1019 H 0.25522 0.02738 0.98114 0.0
C1020 C 0.21538 0.97343 0.03535 0.0
C1021 C 0.20234 0.96208 0.01721 0.0
C1022 C 0.19473 0.96438 0.97476 0.0
C1023 C 0.20021 0.97767 0.94959 0.0
C1024 C 0.21329 0.98854 0.96745 0.0
C1025 C 0.22074 0.98656 0.00958 0.0
C1026 C 0.23501 -0.00041 0.01836 0.0
C1027 C 0.23605 0.0058 0.0767 0.0
C1028 C 0.24704 0.99641 0.00811 0.0
C1029 C 0.23459 0.0091 0.97373 0.0
C1030 C 0.22193 0.00262 0.94519 0.0
C1031 C 0.21934 0.00921 0.90079 0.0
C1032 C 0.23 0.02276 0.88514 0.0
C1033 C 0.24311 0.0295 0.91353 0.0
C1034 C 0.24532 0.02255 0.95861 0.0
H1035 H 0.97536 0.74124 0.93374 0.0
H1036 H 0.96763 0.69836 0.91942 0.0
H1037 H 0.99124 0.70597 0.95767 0.0
H1038 H 0.01188 0.75847 0.89418 0.0
H1039 H 0.0173 0.77288 0.94247 0.0
H1040 H -0.0004 0.76406 0.91509 0.0
H1041 H 0.9896 0.75891 0.01542 0.0
H1042 H 0.00728 0.76767 0.04311 0.0
H1043 H 0.99497 0.74974 0.06299 0.0
H1044 H 0.01555 0.718 0.99579 0.0
H1045 H 0.03966 0.73402 0.02946 0.0
H1046 H 0.03199 0.76927 0.01965 0.0
C1047 C 0.97863 0.73346 0.93872 0.0
C1048 C 0.96963 0.71919 0.92359 0.0
C1049 C 0.97432 0.70934 0.93065 0.0
C1050 C 0.98771 0.71355 0.95249 0.0
C1051 C 0.99629 0.72764 0.96712 0.0
C1052 C 0.99201 0.73748 0.96047 0.0
C1053 C 0.00348 0.75202 0.97861 0.0
C1054 C 0.00835 0.76247 0.92966 0.0
C1055 C 0.99853 0.7574 0.02797 0.0
C1056 C 0.01489 0.7488 0.99607 0.0
C1057 C 0.01046 0.73465 0.98927 0.0
C1058 C 0.01915 0.72911 0.00147 0.0
C1059 C 0.03284 0.73831 0.02057 0.0
C1060 C 0.03772 0.7529 0.02727 0.0
C1061 C 0.02854 0.75816 0.01532 0.0
H1062 H 0.27719 0.24268 0.96726 0.0
H1063 H 0.24115 0.20062 0.94531 0.0
H1064 H 0.22507 0.21012 0.95993 0.0
H1065 H 0.2627 0.25349 0.0753 0.0
H1066 H 0.27045 0.27144 0.05105 0.0
H1067 H 0.27901 0.26137 0.03673 0.0
H1068 H 0.27872 0.26605 0.93113 0.0
H1069 H 0.27023 0.2762 0.94514 0.0
H1070 H 0.26223 0.26149 0.89765 0.0
H1071 H 0.21301 0.22429 0.98087 0.0
H1072 H 0.20601 0.24205 0.00272 0.0
H1073 H 0.2502 0.27457 0.00987 0.0
C1074 C 0.26592 0.23544 0.96512 0.0
C1075 C 0.26042 0.22091 0.9552 0.0
C1076 C 0.2456 0.21181 0.95276 0.0
C1077 C 0.23639 0.2171 0.96109 0.0
C1078 C 0.2422 0.23149 0.97152 0.0
C1079 C 0.25663 0.24053 0.97317 0.0
C1080 C 0.26026 0.25551 0.98571 0.0
C1081 C 0.26859 0.26075 0.04045 0.0
C1082 C 0.26833 0.26539 0.93699 0.0
C1083 C 0.24561 0.2535 0.99134 0.0
C1084 C 0.23531 0.23959 0.98307 0.0
C1085 C 0.22099 0.23522 0.98714 0.0
C1086 C 0.21712 0.24537 0.9997 0.0
C1087 C 0.22755 0.25969 0.00789 0.0
C1088 C 0.24196 0.26372 0.00366 0.0
H1089 H 0.74822 0.0245 0.05637 0.0
H1090 H 0.78068 0.02954 0.93946 0.0
H1091 H 0.77527 0.00517 0.95948 0.0
H1092 H 0.75461 0.00402 0.15744 0.0
H1093 H 0.73619 0.993 0.17433 0.0
H1094 H 0.74271 0.01085 0.15099 0.0
H1095 H 0.72419 0.00175 0.07153 0.0
H1096 H 0.71757 0.9839 0.09478 0.0
H1097 H 0.72339 0.98864 0.02388 0.0
H1098 H 0.76578 0.97999 0.99064 0.0
H1099 H 0.75296 0.95596 0.03034 0.0
H1100 H 0.72721 0.96787 0.12829 0.0
C1101 C 0.7542 0.0205 0.03486 0.0
C1102 C 0.76485 0.02891 0.99624 0.0
C1103 C 0.77247 0.02328 0.96922 0.0
C1104 C 0.76949 0.00947 0.98037 0.0
C1105 C 0.75893 0.00149 0.01884 0.0
C1106 C 0.75143 0.00682 0.04572 0.0
C1107 C 0.74056 0.99608 0.08497 0.0
C1108 C 0.74371 0.0013 0.14551 0.0
C1109 C 0.72554 0.99238 0.06773 0.0
C1110 C 0.743 0.98381 0.07561 0.0
C1111 C 0.75365 0.98713 0.03738 0.0
C1112 C 0.75749 0.9773 0.02086 0.0
C1113 C 0.75014 0.96368 0.04363 0.0
C1114 C 0.73913 0.96006 0.08258 0.0
C1115 C 0.73566 0.97034 0.09906 0.0
H1116 H 0.63725 0.56775 0.30348 0.0
H1117 H 0.62387 0.52761 0.38498 0.0
H1118 H 0.64728 0.5377 0.43019 0.0
H1119 H 0.67339 0.577 0.27848 0.0
H1120 H 0.68014 0.59549 0.29217 0.0
H1121 H 0.66257 0.58481 0.26495 0.0
H1122 H 0.65255 0.59226 0.3478 0.0
H1123 H 0.67008 0.60287 0.37551 0.0
H1124 H 0.6564 0.58939 0.41794 0.0
H1125 H 0.6723 0.55255 0.46739 0.0
H1126 H 0.69667 0.57077 0.49273 0.0
H1127 H 0.69282 0.60103 0.3882 0.0
C1128 C 0.63925 0.561 0.33036 0.0
C1129 C 0.62875 0.54687 0.34049 0.0
C1130 C 0.63178 0.53846 0.37649 0.0
C1131 C 0.64503 0.5441 0.40238 0.0
C1132 C 0.65507 0.55815 0.39198 0.0
C1133 C 0.65231 0.56646 0.35675 0.0
C1134 C 0.6647 0.58132 0.35334 0.0
C1135 C 0.67055 0.58486 0.2937 0.0
C1136 C 0.66069 0.59209 0.37495 0.0
C1137 C 0.6749 0.58012 0.39219 0.0
C1138 C 0.66923 0.56668 0.41401 0.0
C1139 C 0.67684 0.5631 0.45057 0.0
C1140 C 0.69065 0.57352 0.46478 0.0
C1141 C 0.69663 0.58734 0.44265 0.0
C1142 C 0.68855 0.59061 0.40618 0.0
H1143 H 0.44332 0.08417 0.2739 0.0
H1144 H 0.46724 0.08776 0.4232 0.0
H1145 H 0.45734 0.10107 0.46896 0.0
H1146 H 0.44571 0.11929 0.28593 0.0
H1147 H 0.42798 0.11241 0.26018 0.0
H1148 H 0.43847 0.1049 0.23685 0.0
H1149 H 0.41874 0.08016 0.26842 0.0
H1150 H 0.40827 0.08759 0.29236 0.0
H1151 H 0.41269 0.07758 0.33952 0.0
H1152 H 0.44233 0.11103 0.50265 0.0
H1153 H 0.42452 0.11825 0.51927 0.0
H1154 H 0.41092 0.10858 0.34729 0.0
C1155 C 0.44677 0.08807 0.3157 0.0
C1156 C 0.45606 0.08493 0.34493 0.0
C1157 C 0.46018 0.09008 0.39985 0.0
C1158 C 0.45461 0.09766 0.42625 0.0
C1159 C 0.44508 0.10014 0.39691 0.0
C1160 C 0.44136 0.09568 0.34255 0.0
C1161 C 0.43021 0.09886 0.32148 0.0
C1162 C 0.43594 0.1095 0.27326 0.0
C1163 C 0.41668 0.08523 0.30448 0.0
C1164 C 0.42789 0.10535 0.37307 0.0
C1165 C 0.43662 0.10609 0.41607 0.0
C1166 C 0.43563 0.11076 0.46898 0.0
C1167 C 0.42544 0.11476 0.47812 0.0
C1168 C 0.41642 0.11407 0.43451 0.0
C1169 C 0.41781 0.10944 0.38128 0.0
H1170 H 0.92178 0.30258 0.37236 0.0
H1171 H 0.87948 0.29539 0.40073 0.0
H1172 H 0.88761 0.32021 0.3757 0.0
H1173 H 0.94071 0.33862 0.42561 0.0
H1174 H 0.95441 0.34428 0.37385 0.0
H1175 H 0.94536 0.32623 0.39731 0.0
H1176 H 0.9387 0.31772 0.29536 0.0
H1177 H 0.94762 0.33573 0.27163 0.0
H1178 H 0.92932 0.32416 0.25422 0.0
H1179 H 0.90013 0.34546 0.34205 0.0
H1180 H 0.91629 0.36942 0.3061 0.0
H1181 H 0.95025 0.35978 0.30045 0.0
C1182 C 0.91424 0.30624 0.37401 0.0
C1183 C 0.89999 0.29705 0.38852 0.0
C1184 C 0.89046 0.30226 0.38987 0.0
C1185 C 0.89497 0.31632 0.37567 0.0
C1186 C 0.90904 0.32502 0.36054 0.0
C1187 C 0.91855 0.3202 0.36006 0.0
C1188 C 0.93299 0.33152 0.3408 0.0
C1189 C 0.94401 0.33539 0.38717 0.0
C1190 C 0.93741 0.32701 0.28733 0.0
C1191 C 0.93008 0.34344 0.32974 0.0
C1192 C 0.91623 0.33951 0.34146 0.0
C1193 C 0.91103 0.34868 0.33312 0.0
C1194 C 0.92027 0.36225 0.31253 0.0
C1195 C 0.93453 0.36648 0.30054 0.0
C1196 C 0.93943 0.3569 0.30938 0.0
H1197 H 0.6882 0.08428 0.34282 0.0
H1198 H 0.69415 0.12258 0.42172 0.0
H1199 H 0.67146 0.11829 0.38218 0.0
H1200 H 0.67238 0.08771 0.2159 0.0
H1201 H 0.66028 0.06901 0.21018 0.0
H1202 H 0.67714 0.07535 0.24355 0.0
H1203 H 0.66462 0.06106 0.33222 0.0
H1204 H 0.64774 0.05464 0.29907 0.0
H1205 H 0.65125 0.06363 0.36502 0.0
H1206 H 0.64756 0.10916 0.33681 0.0
H1207 H 0.62443 0.09593 0.28972 0.0
H1208 H 0.63471 0.06401 0.23942 0.0
C1209 C 0.68478 0.09181 0.35177 0.0
C1210 C 0.69293 0.10376 0.38546 0.0
C1211 C 0.68807 0.11335 0.396 0.0
C1212 C 0.67521 0.11101 0.37366 0.0
C1213 C 0.66743 0.0991 0.34062 0.0
C1214 C 0.67206 0.08968 0.32964 0.0
C1215 C 0.66165 0.07756 0.29378 0.0
C1216 C 0.66826 0.07741 0.23752 0.0
C1217 C 0.65598 0.06339 0.32437 0.0
C1218 C 0.65032 0.08151 0.28686 0.0
C1219 C 0.65384 0.09398 0.314 0.0
C1220 C 0.64474 0.09944 0.31506 0.0
C1221 C 0.63163 0.09185 0.28821 0.0
C1222 C 0.62778 0.07897 0.26067 0.0
C1223 C 0.63737 0.07389 0.25956 0.0
H1224 H 0.88411 0.58433 0.40454 0.0
H1225 H 0.86654 0.57544 0.23768 0.0
H1226 H 0.87841 0.56173 0.21873 0.0
H1227 H 0.91713 0.59045 0.36917 0.0
H1228 H 0.91975 0.58237 0.42988 0.0
H1229 H 0.90824 0.58966 0.43339 0.0
H1230 H 0.88772 0.56561 0.46718 0.0
H1231 H 0.89922 0.55825 0.46431 0.0
H1232 H 0.88274 0.54993 0.42674 0.0
H1233 H 0.89476 0.55191 0.21369 0.0
H1234 H 0.91338 0.5456 0.22472 0.0
H1235 H 0.91986 0.56052 0.39541 0.0
C1236 C 0.88245 0.57921 0.36447 0.0
C1237 C 0.87438 0.58095 0.3226 0.0
C1238 C 0.87262 0.57421 0.2705 0.0
C1239 C 0.87932 0.56639 0.25933 0.0
C1240 C 0.88758 0.56528 0.30093 0.0
C1241 C 0.88901 0.57135 0.35272 0.0
C1242 C 0.8993 0.56948 0.38884 0.0
C1243 C 0.91184 0.58384 0.4063 0.0
C1244 C 0.89179 0.56026 0.43978 0.0
C1245 C 0.90382 0.56186 0.34859 0.0
C1246 C 0.89687 0.55943 0.29826 0.0
C1247 C 0.90008 0.55351 0.25324 0.0
C1248 C 0.91071 0.55003 0.25982 0.0
C1249 C 0.91799 0.55249 0.31103 0.0
C1250 C 0.91433 0.55831 0.35605 0.0
H1251 H 0.4093 0.35674 0.31591 0.0
H1252 H 0.45302 0.36685 0.3065 0.0
H1253 H 0.44576 0.34223 0.33156 0.0
H1254 H 0.39997 0.33463 0.43318 0.0
H1255 H 0.38243 0.32233 0.4089 0.0
H1256 H 0.39096 0.34046 0.38676 0.0
H1257 H 0.38739 0.33251 0.28355 0.0
H1258 H 0.37875 0.31433 0.30537 0.0
H1259 H 0.39379 0.32111 0.2596 0.0
H1260 H 0.43376 0.31677 0.36321 0.0
H1261 H 0.41788 0.29234 0.39524 0.0
H1262 H 0.38218 0.29924 0.38295 0.0
C1263 C 0.41736 0.35378 0.31848 0.0
C1264 C 0.43173 0.36372 0.30925 0.0
C1265 C 0.44193 0.35939 0.31324 0.0
C1266 C 0.43792 0.34544 0.32751 0.0
C1267 C 0.42367 0.33597 0.33729 0.0
C1268 C 0.41355 0.33994 0.33251 0.0
C1269 C 0.399 0.32789 0.34651 0.0
C1270 C 0.39273 0.33155 0.39683 0.0
C1271 C 0.38916 0.32371 0.29572 0.0
C1272 C 0.40253 0.31655 0.36076 0.0
C1273 C 0.4168 0.32138 0.3551 0.0
C1274 C 0.42256 0.31285 0.36738 0.0
C1275 C 0.41346 0.29901 0.38569 0.0
C1276 C 0.39879 0.29387 0.39151 0.0
C1277 C 0.39333 0.30281 0.37874 0.0
H1278 H 0.30274 0.90483 0.65358 0.0
H1279 H 0.30639 0.88875 0.49297 0.0
H1280 H 0.33166 0.89742 0.51147 0.0
H1281 H 0.33626 0.93636 0.65157 0.0
H1282 H 0.33942 0.93584 0.72489 0.0
H1283 H 0.32161 0.92808 0.69928 0.0
H1284 H 0.31557 0.90426 0.74504 0.0
H1285 H 0.33339 0.91193 0.77062 0.0
H1286 H 0.32603 0.89621 0.72842 0.0
H1287 H 0.35663 0.90831 0.54694 0.0
H1288 H 0.37951 0.92094 0.59573 0.0
H1289 H 0.35928 0.92964 0.73338 0.0
C1290 C 0.30882 0.9031 0.62221 0.0
C1291 C 0.30258 0.89611 0.57177 0.0
C1292 C 0.31093 0.89406 0.53194 0.0
C1293 C 0.32528 0.89893 0.5421 0.0
C1294 C 0.33107 0.90575 0.59235 0.0
C1295 C 0.32309 0.90783 0.63173 0.0
C1296 C 0.33186 0.91564 0.68203 0.0
C1297 C 0.33232 0.92982 0.68987 0.0
C1298 C 0.32638 0.90646 0.73463 0.0
C1299 C 0.34608 0.91777 0.6646 0.0
C1300 C 0.34539 0.91194 0.61286 0.0
C1301 C 0.35727 0.91286 0.58758 0.0
C1302 C 0.37022 0.92005 0.61568 0.0
C1303 C 0.37119 0.92625 0.66847 0.0
C1304 C 0.35889 0.92494 0.69329 0.0
H1305 H 0.06289 0.42128 0.6651 0.0
H1306 H 0.09409 0.45737 0.759 0.0
H1307 H 0.11217 0.45093 0.73499 0.0
H1308 H 0.07501 0.39739 0.70199 0.0
H1309 H 0.07138 0.38926 0.63421 0.0
H1310 H 0.06106 0.39672 0.6598 0.0
H1311 H 0.06742 0.41241 0.57169 0.0
H1312 H 0.07783 0.40506 0.54599 0.0
H1313 H 0.08571 0.4239 0.55397 0.0
H1314 H 0.12677 0.44023 0.70031 0.0
H1315 H 0.13651 0.42621 0.65862 0.0
H1316 H 0.09552 0.39772 0.58633 0.0
C1317 C 0.0735 0.42782 0.68097 0.0
C1318 C 0.07708 0.43981 0.71409 0.0
C1319 C 0.09111 0.44812 0.73362 0.0
C1320 C 0.10144 0.44456 0.72015 0.0
C1321 C 0.09755 0.43271 0.68697 0.0
C1322 C 0.0839 0.42449 0.6677 0.0
C1323 C 0.08236 0.41237 0.63237 0.0
C1324 C 0.07183 0.39809 0.65869 0.0
C1325 C 0.07808 0.41351 0.57246 0.0
C1326 C 0.09728 0.41499 0.63481 0.0
C1327 C 0.10591 0.42674 0.6665 0.0
C1328 C 0.1201 0.43104 0.67529 0.0
C1329 C 0.12554 0.42302 0.65141 0.0
C1330 C 0.1168 0.4109 0.61904 0.0
C1331 C 0.10252 0.40698 0.6105 0.0
H1332 H 0.58738 0.64172 0.7037 0.0
H1333 H 0.5448 0.63429 0.72556 0.0
H1334 H 0.5519 0.65734 0.68152 0.0
H1335 H 0.60574 0.67967 0.72909 0.0
H1336 H 0.619 0.68312 0.67726 0.0
H1337 H 0.61067 0.66656 0.71401 0.0
H1338 H 0.6033 0.65319 0.61992 0.0
H1339 H 0.61146 0.66969 0.5829 0.0
H1340 H 0.59312 0.65698 0.57112 0.0
H1341 H 0.56351 0.68067 0.62945 0.0
H1342 H 0.57887 0.70272 0.57799 0.0
H1343 H 0.61357 0.69431 0.59076 0.0
C1344 C 0.57956 0.64499 0.70002 0.0
C1345 C 0.56553 0.63621 0.71812 0.0
C1346 C 0.55563 0.64088 0.71219 0.0
C1347 C 0.55956 0.65393 0.68712 0.0
C1348 C 0.57342 0.66217 0.66855 0.0
C1349 C 0.58328 0.65791 0.6752 0.0
C1350 C 0.59737 0.66842 0.65025 0.0
C1351 C 0.60887 0.67482 0.69535 0.0
C1352 C 0.60155 0.66166 0.60326 0.0
C1353 C 0.59387 0.6792 0.6278 0.0
C1354 C 0.58004 0.67547 0.63878 0.0
C1355 C 0.57438 0.68373 0.62095 0.0
C1356 C 0.58317 0.6962 0.59158 0.0
C1357 C 0.59742 0.70024 0.58035 0.0
C1358 C 0.60275 0.69155 0.5987 0.0
H1359 H 0.35503 0.4129 0.73107 0.0
H1360 H 0.36485 0.45656 0.72837 0.0
H1361 H 0.34222 0.44931 0.68041 0.0
H1362 H 0.33933 0.40358 0.59702 0.0
H1363 H 0.326 0.38603 0.6172 0.0
H1364 H 0.34272 0.39465 0.65275 0.0
H1365 H 0.32989 0.39103 0.74719 0.0
H1366 H 0.31312 0.38231 0.71195 0.0
H1367 H 0.31763 0.39736 0.75579 0.0
H1368 H 0.31858 0.43712 0.6303 0.0
H1369 H 0.29574 0.42097 0.58506 0.0
H1370 H 0.30192 0.38556 0.62136 0.0
C1371 C 0.35242 0.42096 0.72078 0.0
C1372 C 0.36171 0.4353 0.73352 0.0
C1373 C 0.35787 0.44549 0.71914 0.0
C1374 C 0.34506 0.44148 0.69182 0.0
C1375 C 0.33622 0.42725 0.67933 0.0
C1376 C 0.33973 0.41715 0.69363 0.0
C1377 C 0.32852 0.40258 0.67523 0.0
C1378 C 0.3345 0.39635 0.63304 0.0
C1379 C 0.3219 0.39274 0.72554 0.0
C1380 C 0.31816 0.40604 0.64806 0.0
C1381 C 0.32274 0.4203 0.65075 0.0
C1382 C 0.31488 0.42592 0.62808 0.0
C1383 C 0.30195 0.41668 0.60237 0.0
C1384 C 0.29704 0.40201 0.59964 0.0
C1385 C 0.30534 0.39671 0.62269 0.0
H1386 H 0.58732 0.88995 0.69578 0.0
H1387 H 0.55986 0.85595 0.58431 0.0
H1388 H 0.543 0.86475 0.58424 0.0
H1389 H 0.55944 0.89054 0.77691 0.0
H1390 H 0.56903 0.90949 0.78359 0.0
H1391 H 0.57847 0.89998 0.77747 0.0
H1392 H 0.59215 0.9153 0.69242 0.0
H1393 H 0.58279 0.92487 0.69835 0.0
H1394 H 0.58244 0.91634 0.63373 0.0
H1395 H 0.52984 0.87813 0.5922 0.0
H1396 H 0.5216 0.89521 0.6066 0.0
H1397 H 0.55768 0.92016 0.71356 0.0
C1398 C 0.57771 0.88426 0.67171 0.0
C1399 C 0.5749 0.87225 0.64009 0.0
C1400 C 0.56223 0.86516 0.60894 0.0
C1401 C 0.55257 0.87006 0.60874 0.0
C1402 C 0.55572 0.88199 0.64014 0.0
C1403 C 0.56797 0.88897 0.67113 0.0
C1404 C 0.56917 0.90186 0.6995 0.0
C1405 C 0.56902 0.90037 0.76314 0.0
C1406 C 0.58242 0.91539 0.6798 0.0
C1407 C 0.55581 0.90121 0.67878 0.0
C1408 C 0.54813 0.88963 0.64492 0.0
C1409 C 0.5357 0.88717 0.61906 0.0
C1410 C 0.53111 0.89693 0.62747 0.0
C1411 C 0.53897 0.90899 0.66133 0.0
C1412 C 0.55136 0.91098 0.68784 0.0
H1413 H 0.06464 0.6466 0.6985 0.0
H1414 H 0.09422 0.63545 0.76989 0.0
H1415 H 0.11401 0.65902 0.74509 0.0
H1416 H 0.08631 0.66643 0.58278 0.0
H1417 H 0.08077 0.67941 0.58535 0.0
H1418 H 0.06901 0.66166 0.60861 0.0
H1419 H 0.06663 0.6712 0.70433 0.0
H1420 H 0.07835 0.68898 0.68132 0.0
H1421 H 0.0823 0.68253 0.74383 0.0
H1422 H 0.13055 0.6841 0.71352 0.0
H1423 H 0.14242 0.70857 0.6777 0.0
H1424 H 0.1018 0.7028 0.62638 0.0
C1425 C 0.07526 0.64908 0.70898 0.0
C1426 C 0.07788 0.63919 0.7362 0.0
C1427 C 0.09196 0.64287 0.74903 0.0
C1428 C 0.10327 0.65622 0.73509 0.0
C1429 C 0.10031 0.66573 0.70821 0.0
C1430 C 0.08664 0.6623 0.69526 0.0
C1431 C 0.08625 0.67439 0.66652 0.0
C1432 C 0.08023 0.67022 0.6073 0.0
C1433 C 0.07789 0.67958 0.70108 0.0
C1434 C 0.10182 0.68519 0.66554 0.0
C1435 C 0.10978 0.68003 0.68972 0.0
C1436 C 0.12442 0.68823 0.69432 0.0
C1437 C 0.13106 0.70211 0.67387 0.0
C1438 C 0.12305 0.70759 0.64912 0.0
C1439 C 0.10825 0.69893 0.64479 0.0
H1440 H 0.12718 0.36284 0.74949 0.0
H1441 H 0.09346 0.33708 0.63383 0.0
H1442 H 0.08276 0.31817 0.70412 0.0
H1443 H 0.13032 0.3343 0.81038 0.0
H1444 H 0.13366 0.34172 0.87943 0.0
H1445 H 0.13883 0.35316 0.81964 0.0
H1446 H 0.12429 0.36427 0.85631 0.0
H1447 H 0.11906 0.35285 0.91615 0.0
H1448 H 0.10583 0.35301 0.87195 0.0
H1449 H 0.07543 0.30232 0.78725 0.0
H1450 H 0.07208 0.29038 0.87755 0.0
H1451 H 0.11063 0.32639 0.93914 0.0
C1452 C 0.11757 0.35321 0.73881 0.0
C1453 C 0.11116 0.35144 0.68612 0.0
C1454 C 0.09858 0.33868 0.67389 0.0
C1455 C 0.09241 0.32787 0.71353 0.0
C1456 C 0.09897 0.32998 0.76512 0.0
C1457 C 0.11128 0.34231 0.77785 0.0
C1458 C 0.1161 0.34194 0.8366 0.0
C1459 C 0.13059 0.34283 0.83648 0.0
C1460 C 0.11633 0.35372 0.87235 0.0
C1461 C 0.10453 0.32751 0.85499 0.0
C1462 C 0.09476 0.3208 0.81309 0.0
C1463 C 0.08303 0.30744 0.82034 0.0
C1464 C 0.08122 0.30076 0.87185 0.0
C1465 C 0.0911 0.30743 0.91545 0.0
C1466 C 0.10291 0.32098 0.90665 0.0
H1467 H 0.66626 0.7799 0.90531 0.0
H1468 H 0.70535 0.78529 0.83629 0.0
H1469 H 0.69379 0.77714 0.74495 0.0
H1470 H 0.64325 0.74834 0.83228 0.0
H1471 H 0.62967 0.75284 0.82158 0.0
H1472 H 0.64117 0.75969 0.88102 0.0
H1473 H 0.6483 0.7852 0.85165 0.0
H1474 H 0.63679 0.77842 0.79218 0.0
H1475 H 0.65519 0.79125 0.78275 0.0
H1476 H 0.67782 0.76776 0.66183 0.0
H1477 H 0.65855 0.75788 0.59264 0.0
H1478 H 0.6299 0.75854 0.71615 0.0
C1479 C 0.67244 0.77949 0.87091 0.0
C1480 C 0.68672 0.78327 0.87797 0.0
C1481 C 0.69439 0.78247 0.83193 0.0
C1482 C 0.68793 0.77786 0.77984 0.0
C1483 C 0.6738 0.7741 0.77445 0.0
C1484 C 0.66615 0.77489 0.81866 0.0
C1485 C 0.65102 0.76991 0.8021 0.0
C1486 C 0.64067 0.75692 0.83627 0.0
C1487 C 0.64763 0.78191 0.80748 0.0
C1488 C 0.65134 0.7661 0.74179 0.0
C1489 C 0.66458 0.76864 0.7266 0.0
C1490 C 0.66741 0.76577 0.67316 0.0
C1491 C 0.65639 0.76015 0.63419 0.0
C1492 C 0.64272 0.75744 0.64894 0.0
C1493 C 0.64023 0.7605 0.7035 0.0
H1494 H 0.20601 0.88642 0.97085 0.0
H1495 H 0.22722 0.93201 0.9533 0.0
H1496 H 0.24043 0.93067 0.87285 0.0
H1497 H 0.23646 0.88296 0.93428 0.0
H1498 H 0.2261 0.86662 0.89714 0.0
H1499 H 0.21841 0.87111 0.95425 0.0
H1500 H 0.19812 0.86825 0.88997 0.0
H1501 H 0.20576 0.86378 0.83268 0.0
H1502 H 0.20231 0.87819 0.82612 0.0
H1503 H 0.25032 0.92444 0.79159 0.0
H1504 H 0.25733 0.91373 0.7169 0.0
H1505 H 0.23063 0.87226 0.78877 0.0
C1506 C 0.21348 0.89611 0.95021 0.0
C1507 C 0.21556 0.90931 0.96834 0.0
C1508 C 0.22546 0.92177 0.94033 0.0
C1509 C 0.23301 0.92113 0.8945 0.0
C1510 C 0.23066 0.90797 0.8775 0.0
C1511 C 0.22124 0.89569 0.90466 0.0
C1512 C 0.22072 0.88291 0.87763 0.0
C1513 C 0.22572 0.87547 0.91825 0.0
C1514 C 0.20584 0.87269 0.85527 0.0
C1515 C 0.23118 0.88995 0.83066 0.0
C1516 C 0.23673 0.9044 0.83131 0.0
C1517 C 0.24617 0.91315 0.7909 0.0
C1518 C 0.25005 0.90696 0.74858 0.0
C1519 C 0.2446 0.89219 0.7473 0.0
C1520 C 0.23511 0.8836 0.78914 0.0
H1521 H 0.31002 0.10627 0.06857 0.0
H1522 H 0.31393 0.06998 0.02253 0.0
H1523 H 0.33044 0.075 0.10046 0.0
H1524 H 0.34644 0.12883 0.10913 0.0
H1525 H 0.34216 0.13667 0.16641 0.0
H1526 H 0.33078 0.13035 0.10644 0.0
H1527 H 0.30954 0.11446 0.16996 0.0
H1528 H 0.32086 0.12071 0.23011 0.0
H1529 H 0.31066 0.10205 0.21598 0.0
H1530 H 0.34624 0.0837 0.18369 0.0
H1531 H 0.36042 0.09559 0.26686 0.0
H1532 H 0.34627 0.12624 0.2592 0.0
C1533 C 0.31438 0.0994 0.07472 0.0
C1534 C 0.31067 0.08772 0.03938 0.0
C1535 C 0.3166 0.07898 0.04899 0.0
C1536 C 0.326 0.08175 0.09315 0.0
C1537 C 0.32937 0.0933 0.1273 0.0
C1538 C 0.32378 0.102 0.11862 0.0
C1539 C 0.32907 0.11365 0.16175 0.0
C1540 C 0.33762 0.12824 0.13428 0.0
C1541 C 0.3168 0.11265 0.19651 0.0
C1542 C 0.33846 0.11008 0.1962 0.0
C1543 C 0.3385 0.09832 0.17549 0.0
C1544 C 0.34632 0.09294 0.20027 0.0
C1545 C 0.35434 0.09977 0.24753 0.0
C1546 C 0.35447 0.11185 0.26961 0.0
C1547 C 0.3464 0.11703 0.24341 0.0
H1548 H 0.87977 0.21277 0.28941 0.0
H1549 H 0.8893 0.25448 0.23514 0.0
H1550 H 0.89769 0.25064 0.14514 0.0
H1551 H 0.90958 0.21354 0.22969 0.0
H1552 H 0.90045 0.19523 0.20942 0.0
H1553 H 0.89434 0.20086 0.26826 0.0
H1554 H 0.86951 0.19015 0.22353 0.0
H1555 H 0.87554 0.18443 0.1646 0.0
H1556 H 0.86779 0.19542 0.15426 0.0
H1557 H 0.90644 0.2429 0.06364 0.0
H1558 H 0.91425 0.23146 0.99493 0.0
H1559 H 0.89868 0.19468 0.10192 0.0
C1560 C 0.88347 0.22104 0.25842 0.0
C1561 C 0.88387 0.23392 0.26933 0.0
C1562 C 0.88886 0.2445 0.2277 0.0
C1563 C 0.89365 0.24243 0.17643 0.0
C1564 C 0.89329 0.22968 0.16734 0.0
C1565 C 0.88824 0.21913 0.20698 0.0
C1566 C 0.88937 0.20658 0.18738 0.0
C1567 C 0.89901 0.2039 0.22598 0.0
C1568 C 0.87468 0.19337 0.18212 0.0
C1569 C 0.89607 0.21183 0.13091 0.0
C1570 C 0.89821 0.22517 0.12008 0.0
C1571 C 0.9047 0.23241 0.0714 0.0
C1572 C 0.90914 0.22584 0.03274 0.0
C1573 C 0.90704 0.21217 0.04301 0.0
C1574 C 0.90034 0.20509 0.09266 0.0
H1575 H 0.77599 0.66277 0.29169 0.0
H1576 H 0.73079 0.64685 0.29428 0.0
H1577 H 0.73276 0.65935 0.20645 0.0
H1578 H 0.78601 0.69721 0.2372 0.0
H1579 H 0.80005 0.69819 0.19472 0.0
H1580 H 0.79509 0.68801 0.25797 0.0
H1581 H 0.791 0.66595 0.20258 0.0
H1582 H 0.79589 0.67604 0.13911 0.0
H1583 H 0.77906 0.66002 0.14415 0.0
H1584 H 0.73954 0.67339 0.11821 0.0
H1585 H 0.75079 0.68853 0.03645 0.0
H1586 H 0.79158 0.69531 0.09112 0.0
C1587 C 0.7665 0.66194 0.27392 0.0
C1588 C 0.75323 0.65382 0.29993 0.0
C1589 C 0.74108 0.653 0.27519 0.0
C1590 C 0.74208 0.66005 0.22525 0.0
C1591 C 0.75529 0.66788 0.20055 0.0
C1592 C 0.7673 0.6689 0.22407 0.0
C1593 C 0.78023 0.67804 0.18904 0.0
C1594 C 0.79098 0.69114 0.22168 0.0
C1595 C 0.78694 0.6695 0.16744 0.0
C1596 C 0.77361 0.68199 0.14218 0.0
C1597 C 0.75921 0.67599 0.1496 0.0
C1598 C 0.7508 0.67815 0.11192 0.0
C1599 C 0.7573 0.68676 0.06557 0.0
C1600 C 0.77206 0.69311 0.05731 0.0
C1601 C 0.78027 0.6906 0.09614 0.0
H1602 H 0.91017 0.70101 0.08067 0.0
H1603 H 0.90824 0.67118 0.95685 0.0
H1604 H 0.89712 0.65196 0.02579 0.0
H1605 H 0.91887 0.68647 0.19557 0.0
H1606 H 0.90826 0.68953 0.24483 0.0
H1607 H 0.91551 0.70085 0.18512 0.0
H1608 H 0.89045 0.69542 0.15635 0.0
H1609 H 0.88312 0.68411 0.21608 0.0
H1610 H 0.87666 0.67734 0.14739 0.0
H1611 H 0.88724 0.63623 0.1091 0.0
H1612 H 0.8788 0.62494 0.20066 0.0
H1613 H 0.88688 0.66499 0.26977 0.0
C1614 C 0.90733 0.69043 0.06787 0.0
C1615 C 0.91008 0.6876 0.01336 0.0
C1616 C 0.90622 0.6736 0.99836 0.0
C1617 C 0.8999 0.66261 0.0372 0.0
C1618 C 0.89744 0.66579 0.0907 0.0
C1619 C 0.90097 0.67933 0.10601 0.0
C1620 C 0.89745 0.67997 0.16648 0.0
C1621 C 0.91082 0.68978 0.19996 0.0
C1622 C 0.88625 0.68447 0.17187 0.0
C1623 C 0.89155 0.66469 0.18298 0.0
C1624 C 0.89162 0.65669 0.13863 0.0
C1625 C 0.88705 0.64237 0.14405 0.0
C1626 C 0.8823 0.63606 0.19627 0.0
C1627 C 0.88214 0.64407 0.24235 0.0
C1628 C 0.88677 0.65856 0.2353 0.0
H1629 H 0.32757 0.20802 0.05282 0.0
H1630 H 0.29006 0.2064 0.12145 0.0
H1631 H 0.30237 0.21535 0.21107 0.0
H1632 H 0.33832 0.19748 0.17887 0.0
H1633 H 0.35686 0.20927 0.16641 0.0
H1634 H 0.34482 0.20204 0.10864 0.0
H1635 H 0.35323 0.22732 0.07226 0.0
H1636 H 0.36523 0.23463 0.13002 0.0
H1637 H 0.35236 0.24001 0.1175 0.0
H1638 H 0.31905 0.22536 0.29181 0.0
H1639 H 0.33885 0.23547 0.35856 0.0
H1640 H 0.36546 0.23065 0.2367 0.0
C1641 C 0.32187 0.20939 0.08683 0.0
C1642 C 0.30784 0.20648 0.08017 0.0
C1643 C 0.30081 0.20854 0.12562 0.0
C1644 C 0.30771 0.21361 0.17668 0.0
C1645 C 0.32161 0.21655 0.18159 0.0
C1646 C 0.3286 0.21447 0.13798 0.0
C1647 C 0.34365 0.21885 0.15356 0.0
C1648 C 0.34604 0.20615 0.15177 0.0
C1649 C 0.35424 0.23092 0.11611 0.0
C1650 C 0.34407 0.22384 0.21258 0.0
C1651 C 0.33124 0.22238 0.22803 0.0
C1652 C 0.32913 0.2265 0.28031 0.0
C1653 C 0.34045 0.23225 0.31787 0.0
C1654 C 0.3537 0.23385 0.30286 0.0
C1655 C 0.35547 0.22955 0.24948 0.0
H1656 H 0.77302 0.11033 0.05905 0.0
H1657 H 0.77215 0.07278 0.12317 0.0
H1658 H 0.76408 0.07649 0.21405 0.0
H1659 H 0.78531 0.13099 0.18585 0.0
H1660 H 0.77448 0.13896 0.17651 0.0
H1661 H 0.78062 0.13362 0.11679 0.0
H1662 H 0.75483 0.11822 0.08265 0.0
H1663 H 0.7486 0.12348 0.14229 0.0
H1664 H 0.74189 0.10502 0.12833 0.0
H1665 H 0.75561 0.08385 0.29709 0.0
H1666 H 0.74726 0.09446 0.3672 0.0
H1667 H 0.75352 0.12717 0.24926 0.0
C1668 C 0.77123 0.10294 0.09229 0.0
C1669 C 0.77325 0.09129 0.08398 0.0
C1670 C 0.77069 0.08181 0.1285 0.0
C1671 C 0.76612 0.08382 0.18033 0.0
C1672 C 0.76415 0.09535 0.18701 0.0
C1673 C 0.76663 0.10477 0.14432 0.0
C1674 C 0.7634 0.11613 0.16223 0.0
C1675 C 0.77675 0.13079 0.16023 0.0
C1676 C 0.75147 0.11568 0.12677 0.0
C1677 C 0.75864 0.11156 0.22153 0.0
C1678 C 0.75919 0.09958 0.235 0.0
C1679 C 0.75517 0.09327 0.28714 0.0
C1680 C 0.75042 0.09937 0.32666 0.0
C1681 C 0.74973 0.11165 0.31376 0.0
C1682 C 0.75394 0.1178 0.26046 0.0
H1683 H 0.64915 0.90359 0.81687 0.0
H1684 H 0.61922 0.85895 0.83851 0.0
H1685 H 0.6294 0.85965 0.93094 0.0
H1686 H 0.67833 0.90318 0.87808 0.0
H1687 H 0.68532 0.92021 0.91081 0.0
H1688 H 0.67509 0.91639 0.84798 0.0
H1689 H 0.65795 0.92277 0.89733 0.0
H1690 H 0.66815 0.92662 0.96037 0.0
H1691 H 0.64952 0.91396 0.96123 0.0
H1692 H 0.64357 0.86499 0.01922 0.0
H1693 H 0.6608 0.87456 0.09628 0.0
H1694 H 0.68141 0.91564 0.01626 0.0
C1695 C 0.64463 0.89398 0.84122 0.0
C1696 C 0.63337 0.88122 0.82049 0.0
C1697 C 0.62784 0.86886 0.85354 0.0
C1698 C 0.63353 0.86915 0.90614 0.0
C1699 C 0.64472 0.88189 0.9251 0.0
C1700 C 0.65019 0.89408 0.89369 0.0
C1701 C 0.66258 0.90627 0.92265 0.0
C1702 C 0.67613 0.91183 0.8878 0.0
C1703 C 0.65935 0.9181 0.9362 0.0
C1704 C 0.66333 0.89898 0.97494 0.0
C1705 C 0.65289 0.88494 0.97578 0.0
C1706 C 0.65173 0.87599 0.01921 0.0
C1707 C 0.66158 0.88152 0.06276 0.0
C1708 C 0.67244 0.89585 0.06238 0.0
C1709 C 0.6732 0.90466 0.01799 0.0
H1710 H 0.10657 0.75688 0.71241 0.0
H1711 H 0.14199 0.79717 0.66149 0.0
H1712 H 0.13807 0.80862 0.74258 0.0
H1713 H 0.08451 0.77089 0.765 0.0
H1714 H 0.07779 0.75851 0.82185 0.0
H1715 H 0.08283 0.75372 0.75768 0.0
H1716 H 0.09977 0.74795 0.81215 0.0
H1717 H 0.09489 0.75283 0.87636 0.0
H1718 H 0.11318 0.76126 0.85607 0.0
H1719 H 0.13152 0.81529 0.83325 0.0
H1720 H 0.12177 0.81697 0.92381 0.0
H1721 H 0.09036 0.77244 0.91411 0.0
C1722 C 0.11338 0.76815 0.71781 0.0
C1723 C 0.12457 0.77613 0.68056 0.0
C1724 C 0.13329 0.79084 0.68929 0.0
C1725 C 0.13118 0.79744 0.73532 0.0
C1726 C 0.12023 0.78921 0.77188 0.0
C1727 C 0.11137 0.77492 0.7633 0.0
C1728 C 0.10063 0.7684 0.8096 0.0
C1729 C 0.08555 0.76254 0.78718 0.0
C1730 C 0.10222 0.75693 0.84035 0.0
C1731 C 0.10499 0.7812 0.84605 0.0
C1732 C 0.11632 0.7931 0.82361 0.0
C1733 C 0.12255 0.80607 0.85095 0.0
C1734 C 0.11698 0.80691 0.90245 0.0
C1735 C 0.10528 0.79486 0.92585 0.0
C1736 C 0.09923 0.78187 0.89705 0.0
H1737 H 0.21701 0.33112 0.93015 0.0
H1738 H 0.21608 0.29411 0.86018 0.0
H1739 H 0.22477 0.30655 0.77054 0.0
H1740 H 0.20683 0.34264 0.80616 0.0
H1741 H 0.21886 0.36111 0.81879 0.0
H1742 H 0.21171 0.34902 0.87641 0.0
H1743 H 0.23705 0.357 0.91115 0.0
H1744 H 0.24426 0.36911 0.85368 0.0
H1745 H 0.24948 0.35605 0.86463 0.0
H1746 H 0.23305 0.32273 0.68846 0.0
H1747 H 0.24264 0.34246 0.62134 0.0
H1748 H 0.2401 0.36964 0.74677 0.0
C1749 C 0.21851 0.32562 0.89569 0.0
C1750 C 0.21576 0.31164 0.9016 0.0
C1751 C 0.21813 0.30484 0.85623 0.0
C1752 C 0.223 0.31178 0.80521 0.0
C1753 C 0.22567 0.32559 0.80069 0.0
C1754 C 0.2237 0.33252 0.84484 0.0
C1755 C 0.22821 0.34765 0.8299 0.0
C1756 C 0.21565 0.35025 0.83299 0.0
C1757 C 0.24048 0.35806 0.86704 0.0
C1758 C 0.23297 0.34811 0.77041 0.0
C1759 C 0.23122 0.33521 0.75418 0.0
C1760 C 0.23455 0.33291 0.70072 0.0
C1761 C 0.23994 0.34415 0.6629 0.0
C1762 C 0.24216 0.35755 0.6791 0.0
C1763 C 0.23862 0.35953 0.73354 0.0
H1764 H 0.00577 0.44992 0.64332 0.0
H1765 H 0.04163 0.4473 0.58057 0.0
H1766 H 0.02951 0.43868 0.49053 0.0
H1767 H 0.97916 0.41848 0.57765 0.0
H1768 H 0.96776 0.42554 0.56254 0.0
H1769 H 0.97943 0.43196 0.62163 0.0
H1770 H 0.99036 0.45754 0.58442 0.0
H1771 H 0.97871 0.4512 0.52522 0.0
H1772 H 0.99753 0.46154 0.51497 0.0
H1773 H 0.01347 0.43009 0.40782 0.0
H1774 H 0.99438 0.42179 0.3382 0.0
H1775 H 0.96885 0.42971 0.45508 0.0
C1776 C 0.01112 0.44762 0.61056 0.0
C1777 C 0.02466 0.44932 0.61897 0.0
C1778 C 0.03125 0.44609 0.57513 0.0
C1779 C 0.02446 0.4412 0.52378 0.0
C1780 C 0.0111 0.43958 0.51695 0.0
C1781 C 0.00447 0.44267 0.55908 0.0
C1782 C 0.98997 0.43971 0.54125 0.0
C1783 C 0.9784 0.42824 0.57795 0.0
C1784 C 0.9891 0.45331 0.54147 0.0
C1785 C 0.98946 0.43443 0.4826 0.0
C1786 C 0.00178 0.43449 0.46935 0.0
C1787 C 0.00378 0.43001 0.41765 0.0
C1788 C 0.99287 0.42531 0.37839 0.0
C1789 C 0.98011 0.42509 0.39118 0.0
C1790 C 0.97846 0.42975 0.44401 0.0
H1791 H 0.56822 0.53492 0.45961 0.0
H1792 H 0.57971 0.57017 0.34756 0.0
H1793 H 0.57208 0.58141 0.41772 0.0
H1794 H 0.53709 0.53398 0.51791 0.0
H1795 H 0.54019 0.52964 0.58688 0.0
H1796 H 0.54609 0.52409 0.52705 0.0
H1797 H 0.57156 0.53663 0.56648 0.0
H1798 H 0.56575 0.54224 0.62635 0.0
H1799 H 0.57999 0.55511 0.5841 0.0
H1800 H 0.56412 0.58925 0.5008 0.0
H1801 H 0.55605 0.59313 0.59136 0.0
H1802 H 0.54952 0.5527 0.64945 0.0
C1803 C 0.56904 0.54495 0.44963 0.0
C1804 C 0.57457 0.55166 0.39807 0.0
C1805 C 0.57552 0.56482 0.38676 0.0
C1806 C 0.57119 0.57129 0.42631 0.0
C1807 C 0.56591 0.56444 0.47684 0.0
C1808 C 0.56477 0.55155 0.4886 0.0
C1809 C 0.55899 0.5466 0.54661 0.0
C1810 C 0.54474 0.53276 0.54446 0.0
C1811 C 0.56971 0.54506 0.58302 0.0
C1812 C 0.55721 0.5588 0.56579 0.0
C1813 C 0.56123 0.56895 0.52483 0.0
C1814 C 0.56086 0.58135 0.53312 0.0
C1815 C 0.55628 0.58345 0.58477 0.0
C1816 C 0.55212 0.5732 0.62748 0.0
C1817 C 0.55254 0.56069 0.61757 0.0
H1818 H 0.44212 0.97815 0.59094 0.0
H1819 H 0.41308 0.98986 0.66377 0.0
H1820 H 0.41859 0.0072 0.58875 0.0
H1821 H 0.46837 0.01356 0.54488 0.0
H1822 H 0.47222 0.00729 0.48165 0.0
H1823 H 0.46652 0.99625 0.54265 0.0
H1824 H 0.44603 0.97639 0.48613 0.0
H1825 H 0.45161 0.98739 0.42507 0.0
H1826 H 0.43378 0.9801 0.45019 0.0
H1827 H 0.42606 0.02217 0.50361 0.0
H1828 H 0.43589 0.03471 0.41533 0.0
H1829 H 0.46043 0.01365 0.39807 0.0
C1830 C 0.43703 0.98445 0.59146 0.0
C1831 C 0.42716 0.98263 0.63323 0.0
C1832 C 0.42068 0.99107 0.63226 0.0
C1833 C 0.42373 0.00095 0.58982 0.0
C1834 C 0.43334 0.00232 0.54887 0.0
C1835 C 0.43998 0.99441 0.54949 0.0
C1836 C 0.44966 0.99777 0.49976 0.0
C1837 C 0.46511 0.0041 0.51836 0.0
C1838 C 0.44498 0.98463 0.46313 0.0
C1839 C 0.44725 0.00866 0.47072 0.0
C1840 C 0.4378 0.01113 0.49984 0.0
C1841 C 0.43356 0.02042 0.48061 0.0
C1842 C 0.43916 0.02744 0.43028 0.0
C1843 C 0.44894 0.02517 0.39982 0.0
C1844 C 0.45304 0.01567 0.42055 0.0
H1845 H 0.52965 0.97588 0.52503 0.0
H1846 H 0.56109 0.96276 0.5328 0.0
H1847 H 0.57204 0.97608 0.44689 0.0
H1848 H 0.52643 0.975 0.37247 0.0
H1849 H 0.52449 0.99041 0.3707 0.0
H1850 H 0.51839 0.97886 0.43022 0.0
H1851 H 0.53389 3e-05 0.49475 0.0
H1852 H 0.54006 0.01163 0.43551 0.0
H1853 H 0.55256 0.0106 0.48131 0.0
H1854 H 0.58059 0.99215 0.3644 0.0
H1855 H 0.58612 0.00982 0.29057 0.0
H1856 H 0.54909 0.01244 0.33625 0.0
C1857 C 0.53871 0.97563 0.50825 0.0
C1858 C 0.5445 0.96826 0.53562 0.0
C1859 C 0.55645 0.96832 0.51256 0.0
C1860 C 0.56273 0.97583 0.46369 0.0
C1861 C 0.55689 0.98316 0.43823 0.0
C1862 C 0.54512 0.98308 0.45951 0.0
C1863 C 0.54136 0.9924 0.42561 0.0
C1864 C 0.5268 0.98364 0.39812 0.0
C1865 C 0.54201 0.00437 0.46144 0.0
C1866 C 0.55307 0.998 0.38278 0.0
C1867 C 0.56184 0.99244 0.39051 0.0
C1868 C 0.57373 0.99647 0.35755 0.0
C1869 C 0.57679 0.00655 0.31582 0.0
C1870 C 0.56803 0.0125 0.30755 0.0
C1871 C 0.55593 0.00801 0.3412 0.0
H1872 H 0.99636 0.55103 0.40173 0.0
H1873 H 0.96759 0.56607 0.44459 0.0
H1874 H 0.98085 0.57626 0.53156 0.0
H1875 H 0.00076 0.54153 0.54051 0.0
H1876 H 0.01918 0.54718 0.5311 0.0
H1877 H 0.00738 0.54104 0.47236 0.0
H1878 H 0.02347 0.56449 0.42057 0.0
H1879 H 0.03532 0.57071 0.47915 0.0
H1880 H 0.02784 0.58102 0.45331 0.0
H1881 H 0.99726 0.58478 0.61397 0.0
H1882 H 0.01571 0.59117 0.6854 0.0
H1883 H 0.03379 0.57067 0.58801 0.0
C1884 C 0.99283 0.55645 0.42937 0.0
C1885 C 0.98093 0.55774 0.41634 0.0
C1886 C 0.97667 0.56494 0.45368 0.0
C1887 C 0.98413 0.57076 0.50319 0.0
C1888 C 0.99582 0.5693 0.51472 0.0
C1889 C 0.00015 0.56233 0.47888 0.0
C1890 C 0.01308 0.56226 0.5009 0.0
C1891 C 0.0099 0.5471 0.51187 0.0
C1892 C 0.02567 0.57009 0.46111 0.0
C1893 C 0.01538 0.57033 0.55468 0.0
C1894 C 0.0053 0.57427 0.56197 0.0
C1895 C 0.00522 0.58176 0.6087 0.0
C1896 C 0.01574 0.58533 0.64904 0.0
C1897 C 0.02621 0.58144 0.6423 0.0
C1898 C 0.02597 0.57384 0.59438 0.0
H1899 H 0.4489 0.448 0.40702 0.0
H1900 H 0.4395 0.40627 0.46059 0.0
H1901 H 0.43059 0.40977 0.5499 0.0
H1902 H 0.46011 0.46514 0.54172 0.0
H1903 H 0.45211 0.47592 0.53143 0.0
H1904 H 0.45832 0.47039 0.47249 0.0
H1905 H 0.4335 0.45935 0.42749 0.0
H1906 H 0.42721 0.46482 0.48629 0.0
H1907 H 0.41833 0.44651 0.46592 0.0
H1908 H 0.42219 0.41749 0.63228 0.0
H1909 H 0.41452 0.42882 0.70197 0.0
H1910 H 0.4291 0.46541 0.59446 0.0
C1911 C 0.44508 0.43964 0.43769 0.0
C1912 C 0.44494 0.42688 0.42686 0.0
C1913 C 0.43972 0.41615 0.46793 0.0
C1914 C 0.43466 0.41804 0.51885 0.0
C1915 C 0.43486 0.4307 0.52804 0.0
C1916 C 0.43992 0.44132 0.48867 0.0
C1917 C 0.43856 0.45373 0.50839 0.0
C1918 C 0.45314 0.46708 0.51384 0.0
C1919 C 0.42882 0.45624 0.46972 0.0
C1920 C 0.43184 0.44838 0.56481 0.0
C1921 C 0.42987 0.4351 0.57543 0.0
C1922 C 0.42371 0.4279 0.62455 0.0
C1923 C 0.41938 0.43443 0.66385 0.0
C1924 C 0.4212 0.448 0.65368 0.0
C1925 C 0.42757 0.45504 0.60352 0.0
H1926 H 0.08811 0.30115 0.20749 0.0
H1927 H 0.06756 0.32152 0.12611 0.0
H1928 H 0.0749 0.33869 0.20339 0.0
H1929 H 0.07918 0.3051 0.34821 0.0
H1930 H 0.09585 0.30837 0.37616 0.0
H1931 H 0.08869 0.29758 0.31499 0.0
H1932 H 0.11176 0.31389 0.2613 0.0
H1933 H 0.11898 0.32477 0.3222 0.0
H1934 H 0.11798 0.33255 0.25749 0.0
H1935 H 0.08494 0.35392 0.2892 0.0
H1936 H 0.09655 0.36574 0.37716 0.0
H1937 H 0.11049 0.33528 0.40111 0.0
C1938 C 0.08507 0.30916 0.20593 0.0
C1939 C 0.07724 0.30998 0.16074 0.0
C1940 C 0.07354 0.32067 0.16034 0.0
C1941 C 0.07766 0.33048 0.20401 0.0
C1942 C 0.08547 0.32943 0.24768 0.0
C1943 C 0.0891 0.31901 0.24898 0.0
C1944 C 0.09767 0.32024 0.30025 0.0
C1945 C 0.08988 0.30704 0.33708 0.0
C1946 C 0.11247 0.32303 0.28433 0.0
C1947 C 0.09835 0.33301 0.32762 0.0
C1948 C 0.09125 0.33817 0.29676 0.0
C1949 C 0.0905 0.34996 0.31375 0.0
C1950 C 0.09714 0.3566 0.36374 0.0
C1951 C 0.10443 0.35144 0.39607 0.0
C1952 C 0.10502 0.3395 0.37745 0.0
H1953 H 0.65729 0.77222 0.36131 0.0
H1954 H 0.62661 0.72783 0.33856 0.0
H1955 H 0.63796 0.72797 0.24933 0.0
H1956 H 0.65938 0.78242 0.21814 0.0
H1957 H 0.67806 0.79483 0.22117 0.0
H1958 H 0.6674 0.79113 0.28273 0.0
H1959 H 0.68385 0.78432 0.33523 0.0
H1960 H 0.69452 0.78797 0.27374 0.0
H1961 H 0.68701 0.77091 0.30663 0.0
H1962 H 0.65292 0.73313 0.16216 0.0
H1963 H 0.67008 0.74293 0.08467 0.0
H1964 H 0.69072 0.78378 0.1666 0.0
C1965 C 0.65291 0.76251 0.33763 0.0
C1966 C 0.64106 0.75001 0.35691 0.0
C1967 C 0.63569 0.73754 0.32458 0.0
C1968 C 0.64206 0.73751 0.27388 0.0
C1969 C 0.65378 0.75003 0.25622 0.0
C1970 C 0.65912 0.7623 0.28718 0.0
C1971 C 0.67183 0.77436 0.25937 0.0
C1972 C 0.66899 0.78639 0.24446 0.0
C1973 C 0.68508 0.77969 0.29592 0.0
C1974 C 0.67282 0.76698 0.20786 0.0
C1975 C 0.66234 0.75296 0.20662 0.0
C1976 C 0.66118 0.7441 0.16274 0.0
C1977 C 0.67097 0.74974 0.11896 0.0
C1978 C 0.68176 0.76411 0.11955 0.0
C1979 C 0.68264 0.77275 0.16481 0.0
H1980 H 0.21985 0.89887 0.22591 0.0
H1981 H 0.21981 0.93767 0.26363 0.0
H1982 H 0.23162 0.93935 0.35319 0.0
H1983 H 0.21253 0.88495 0.36467 0.0
H1984 H 0.22374 0.8773 0.35952 0.0
H1985 H 0.21551 0.87932 0.29806 0.0
H1986 H 0.24004 0.89356 0.25113 0.0
H1987 H 0.24835 0.89164 0.31258 0.0
H1988 H 0.25379 0.90898 0.28547 0.0
H1989 H 0.24345 0.9368 0.43862 0.0
H1990 H 0.25351 0.92968 0.5155 0.0
H1991 H 0.24561 0.89243 0.42209 0.0
C1992 C 0.22232 0.90774 0.25293 0.0
C1993 C 0.21892 0.91816 0.23767 0.0
C1994 C 0.2223 0.92955 0.27441 0.0
C1995 C 0.22904 0.93062 0.32531 0.0
C1996 C 0.23231 0.9202 0.33891 0.0
C1997 C 0.229 0.90894 0.30392 0.0
C1998 C 0.23341 0.89902 0.32882 0.0
C1999 C 0.22053 0.88428 0.33834 0.0
C2000 C 0.24456 0.89826 0.29232 0.0
C2001 C 0.23969 0.90644 0.38337 0.0
C2002 C 0.23901 0.91867 0.38827 0.0
C2003 C 0.24404 0.92725 0.43525 0.0
C2004 C 0.24977 0.92312 0.47866 0.0
C2005 C 0.25036 0.9105 0.47489 0.0
C2006 C 0.24535 0.90216 0.42627 0.0
H2007 H 0.36051 0.11409 0.57217 0.0
H2008 H 0.34297 0.07267 0.49618 0.0
H2009 H 0.32621 0.06231 0.57438 0.0
H2010 H 0.35773 0.1025 0.71546 0.0
H2011 H 0.35309 0.11513 0.74102 0.0
H2012 H 0.36404 0.11912 0.68014 0.0
H2013 H 0.34644 0.12366 0.62416 0.0
H2014 H 0.33542 0.11964 0.68476 0.0
H2015 H 0.32812 0.1101 0.62089 0.0
H2016 H 0.3107 0.05667 0.65925 0.0
H2017 H 0.29802 0.05611 0.74518 0.0
H2018 H 0.32589 0.10125 0.76509 0.0
C2019 C 0.35324 0.10282 0.57209 0.0
C2020 C 0.35307 0.09419 0.52801 0.0
C2021 C 0.34332 0.0795 0.52951 0.0
C2022 C 0.33375 0.07351 0.57374 0.0
C2023 C 0.3341 0.08236 0.61618 0.0
C2024 C 0.34364 0.09669 0.61583 0.0
C2025 C 0.34167 0.10394 0.66582 0.0
C2026 C 0.35492 0.11056 0.70279 0.0
C2027 C 0.33767 0.11498 0.64781 0.0
C2028 C 0.32944 0.09147 0.69415 0.0
C2029 C 0.32523 0.07911 0.66498 0.0
C2030 C 0.31396 0.06627 0.6826 0.0
C2031 C 0.30681 0.06606 0.7314 0.0
C2032 C 0.31098 0.07862 0.76195 0.0
C2033 C 0.32247 0.09145 0.74288 0.0
H2034 H 0.91816 0.24345 0.80681 0.0
H2035 H 0.93046 0.21605 0.72341 0.0
H2036 H 0.9247 0.22254 0.63269 0.0
H2037 H 0.88862 0.23445 0.72533 0.0
H2038 H 0.89063 0.25183 0.72435 0.0
H2039 H 0.89745 0.24655 0.78187 0.0
H2040 H 0.92232 0.26821 0.76578 0.0
H2041 H 0.91554 0.27362 0.70829 0.0
H2042 H 0.93042 0.27103 0.69815 0.0
H2043 H 0.9156 0.23029 0.55234 0.0
H2044 H 0.90369 0.23857 0.48815 0.0
H2045 H 0.89699 0.26062 0.62443 0.0
C2046 C 0.91996 0.23905 0.76942 0.0
C2047 C 0.92485 0.22931 0.77215 0.0
C2048 C 0.92678 0.22358 0.72229 0.0
C2049 C 0.92358 0.22723 0.67058 0.0
C2050 C 0.91847 0.23662 0.6695 0.0
C2051 C 0.91673 0.2425 0.7176 0.0
C2052 C 0.91004 0.25145 0.70554 0.0
C2053 C 0.89585 0.24572 0.73608 0.0
C2054 C 0.92019 0.267 0.72031 0.0
C2055 C 0.90798 0.24941 0.64329 0.0
C2056 C 0.91306 0.24096 0.62322 0.0
C2057 C 0.91173 0.23705 0.56746 0.0
C2058 C 0.90491 0.24178 0.53135 0.0
C2059 C 0.89942 0.25027 0.55122 0.0
C2060 C 0.90116 0.25425 0.60784 0.0
H2061 H 0.77951 0.67565 0.8048 0.0
H2062 H 0.77684 0.71364 0.78269 0.0
H2063 H 0.76363 0.70397 0.69534 0.0
H2064 H 0.78491 0.67106 0.66147 0.0
H2065 H 0.77451 0.65207 0.66364 0.0
H2066 H 0.78334 0.66178 0.72544 0.0
H2067 H 0.75951 0.64989 0.77843 0.0
H2068 H 0.7506 0.64017 0.71669 0.0
H2069 H 0.74481 0.65107 0.7508 0.0
H2070 H 0.75113 0.69041 0.6094 0.0
H2071 H 0.74083 0.67419 0.52961 0.0
H2072 H 0.7517 0.64508 0.60765 0.0
C2073 C 0.7761 0.68192 0.78175 0.0
C2074 C 0.7792 0.6954 0.80069 0.0
C2075 C 0.77461 0.70329 0.76905 0.0
C2076 C 0.76706 0.69788 0.71943 0.0
C2077 C 0.76418 0.68456 0.70195 0.0
C2078 C 0.76859 0.6767 0.73203 0.0
C2079 C 0.76445 0.66284 0.70327 0.0
C2080 C 0.77758 0.66189 0.68752 0.0
C2081 C 0.75423 0.65025 0.73946 0.0
C2082 C 0.75711 0.66419 0.65216 0.0
C2083 C 0.75701 0.67676 0.65232 0.0
C2084 C 0.75109 0.6805 0.60889 0.0
C2085 C 0.74526 0.67121 0.56376 0.0
C2086 C 0.74541 0.65834 0.56236 0.0
C2087 C 0.75132 0.65478 0.60756 0.0
H2088 H 0.88182 0.6369 0.53804 0.0
H2089 H 0.92041 0.66008 0.44221 0.0
H2090 H 0.93113 0.6771 0.51965 0.0
H2091 H 0.88205 0.66674 0.59771 0.0
H2092 H 0.87523 0.65836 0.66395 0.0
H2093 H 0.87084 0.64785 0.60167 0.0
H2094 H 0.88054 0.63277 0.64566 0.0
H2095 H 0.88491 0.64319 0.70819 0.0
H2096 H 0.89835 0.64136 0.67212 0.0
H2097 H 0.93731 0.69194 0.60728 0.0
H2098 H 0.9387 0.70296 0.69863 0.0
H2099 H 0.89596 0.66979 0.73576 0.0
C2100 C 0.89257 0.64549 0.53331 0.0
C2101 C 0.90029 0.64715 0.48405 0.0
C2102 C 0.9143 0.65858 0.47962 0.0
C2103 C 0.92047 0.66831 0.52333 0.0
C2104 C 0.91248 0.66642 0.57109 0.0
C2105 C 0.89885 0.65525 0.57634 0.0
C2106 C 0.89243 0.65561 0.63158 0.0
C2107 C 0.87937 0.65724 0.6232 0.0
C2108 C 0.88886 0.64245 0.66644 0.0
C2109 C 0.90455 0.66877 0.65668 0.0
C2110 C 0.91603 0.67488 0.62123 0.0
C2111 C 0.9284 0.68721 0.63542 0.0
C2112 C 0.92908 0.69341 0.68734 0.0
C2113 C 0.91745 0.68723 0.72438 0.0
C2114 C 0.90505 0.67477 0.70851 0.0
H2115 H 0.29489 0.22215 0.73528 0.0
H2116 H 0.32211 0.22088 0.86392 0.0
H2117 H 0.34241 0.23219 0.79996 0.0
H2118 H 0.30969 0.21325 0.62454 0.0
H2119 H 0.30814 0.22466 0.57447 0.0
H2120 H 0.29605 0.2178 0.63204 0.0
H2121 H 0.30288 0.24325 0.66122 0.0
H2122 H 0.31501 0.2502 0.60361 0.0
H2123 H 0.32117 0.2561 0.6734 0.0
H2124 H 0.3593 0.24179 0.72 0.0
H2125 H 0.3715 0.24887 0.62934 0.0
H2126 H 0.33332 0.244 0.55314 0.0
C2127 C 0.30516 0.22446 0.75033 0.0
C2128 C 0.30691 0.22066 0.80464 0.0
C2129 C 0.3205 0.2237 0.82248 0.0
C2130 C 0.33212 0.23017 0.78653 0.0
C2131 C 0.32999 0.23359 0.73299 0.0
C2132 C 0.31687 0.23089 0.71497 0.0
C2133 C 0.31725 0.23482 0.65436 0.0
C2134 C 0.30719 0.22186 0.61931 0.0
C2135 C 0.31388 0.24681 0.64779 0.0
C2136 C 0.33255 0.23982 0.6408 0.0
C2137 C 0.33975 0.23916 0.68683 0.0
C2138 C 0.35382 0.24253 0.68378 0.0
C2139 C 0.36065 0.24651 0.6321 0.0
C2140 C 0.35339 0.24704 0.5842 0.0
C2141 C 0.33922 0.24386 0.58906 0.0
H2142 H 0.76818 0.07639 0.78256 0.0
H2143 H 0.73645 0.07564 0.89317 0.0
H2144 H 0.7264 0.08238 0.81476 0.0
H2145 H 0.77443 0.10622 0.70551 0.0
H2146 H 0.77671 0.09961 0.63993 0.0
H2147 H 0.78074 0.09384 0.70388 0.0
H2148 H 0.76349 0.06777 0.6772 0.0
H2149 H 0.75942 0.07347 0.613 0.0
H2150 H 0.74543 0.06236 0.66021 0.0
H2151 H 0.72106 0.09106 0.72535 0.0
H2152 H 0.72028 0.09997 0.63153 0.0
H2153 H 0.75512 0.09423 0.58009 0.0
C2154 C 0.75901 0.07747 0.79027 0.0
C2155 C 0.7531 0.07549 0.84401 0.0
C2156 C 0.74113 0.07706 0.85229 0.0
C2157 C 0.73535 0.08089 0.80803 0.0
C2158 C 0.74159 0.08297 0.75573 0.0
C2159 C 0.75308 0.08118 0.74662 0.0
C2160 C 0.75809 0.08442 0.687 0.0
C2161 C 0.7734 0.09676 0.68394 0.0
C2162 C 0.75651 0.07122 0.65762 0.0
C2163 C 0.7478 0.08857 0.66413 0.0
C2164 C 0.73835 0.08766 0.70429 0.0
C2165 C 0.7283 0.09164 0.69339 0.0
C2166 C 0.72796 0.09672 0.64008 0.0
C2167 C 0.73756 0.09769 0.59841 0.0
C2168 C 0.7475 0.09343 0.61075 0.0
H2169 H 0.66256 0.9133 0.27376 0.0
H2170 H 0.70136 0.91891 0.34657 0.0
H2171 H 0.68971 0.91207 0.43845 0.0
H2172 H 0.65089 0.92564 0.39363 0.0
H2173 H 0.63259 0.91259 0.38328 0.0
H2174 H 0.64439 0.91925 0.32459 0.0
H2175 H 0.63771 0.89372 0.29754 0.0
H2176 H 0.62593 0.88698 0.35609 0.0
H2177 H 0.63973 0.88268 0.34807 0.0
H2178 H 0.67342 0.90328 0.52107 0.0
H2179 H 0.65357 0.89242 0.58738 0.0
H2180 H 0.62531 0.89207 0.45966 0.0
C2181 C 0.6687 0.91334 0.30917 0.0
C2182 C 0.6829 0.91674 0.30309 0.0
C2183 C 0.69047 0.91639 0.35031 0.0
C2184 C 0.68396 0.91256 0.40268 0.0
C2185 C 0.66988 0.9091 0.40706 0.0
C2186 C 0.66234 0.90944 0.36155 0.0
C2187 C 0.64709 0.90433 0.37653 0.0
C2188 C 0.64353 0.91616 0.36907 0.0
C2189 C 0.63703 0.89115 0.34255 0.0
C2190 C 0.64716 0.9008 0.43735 0.0
C2191 C 0.66044 0.90379 0.45436 0.0
C2192 C 0.663 0.90099 0.50833 0.0
C2193 C 0.65164 0.89482 0.5457 0.0
C2194 C 0.63787 0.89139 0.52877 0.0
C2195 C 0.63571 0.89461 0.47401 0.0
H2196 H 0.0981 0.75995 0.44502 0.0
H2197 H 0.12559 0.74368 0.39782 0.0
H2198 H 0.12145 0.74633 0.29871 0.0
H2199 H 0.07274 0.74379 0.33245 0.0
H2200 H 0.07037 0.75885 0.3241 0.0
H2201 H 0.0749 0.75494 0.39124 0.0
H2202 H 0.09671 0.78012 0.39587 0.0
H2203 H 0.09226 0.78411 0.32878 0.0
H2204 H 0.10948 0.78617 0.34028 0.0
H2205 H 0.11498 0.75157 0.20479 0.0
H2206 H 0.10699 0.75939 0.12311 0.0
H2207 H 0.08394 0.77242 0.23223 0.0
C2208 C 0.10314 0.7568 0.4139 0.0
C2209 C 0.11213 0.75156 0.42919 0.0
C2210 C 0.11864 0.74771 0.38711 0.0
C2211 C 0.11633 0.74915 0.3307 0.0
C2212 C 0.1075 0.75446 0.3171 0.0
C2213 C 0.101 0.75823 0.35748 0.0
C2214 C 0.09244 0.76418 0.3319 0.0
C2215 C 0.07668 0.75488 0.34574 0.0
C2216 C 0.09807 0.77955 0.3503 0.0
C2217 C 0.09524 0.7633 0.27081 0.0
C2218 C 0.10387 0.75758 0.26309 0.0
C2219 C 0.10816 0.756 0.21029 0.0
C2220 C 0.10356 0.76048 0.16416 0.0
C2221 C 0.09483 0.76651 0.17122 0.0
C2222 C 0.09057 0.76781 0.22534 0.0
H2223 H 0.2311 0.33373 0.15373 0.0
H2224 H 0.23254 0.29586 0.19536 0.0
H2225 H 0.24371 0.30648 0.28528 0.0
H2226 H 0.26458 0.35915 0.22165 0.0
H2227 H 0.25762 0.37009 0.24539 0.0
H2228 H 0.25113 0.36012 0.18186 0.0
H2229 H 0.22556 0.34835 0.22003 0.0
H2230 H 0.23197 0.35825 0.28353 0.0
H2231 H 0.22154 0.33927 0.28589 0.0
H2232 H 0.2529 0.32035 0.37336 0.0
H2233 H 0.25887 0.3362 0.45429 0.0
H2234 H 0.25135 0.36501 0.35543 0.0
C2235 C 0.23398 0.32776 0.1813 0.0
C2236 C 0.23099 0.31398 0.16741 0.0
C2237 C 0.23474 0.30644 0.20505 0.0
C2238 C 0.24115 0.3124 0.25613 0.0
C2239 C 0.24377 0.32593 0.26885 0.0
C2240 C 0.24033 0.33353 0.2325 0.0
C2241 C 0.24336 0.34745 0.25776 0.0
C2242 C 0.25486 0.35994 0.22469 0.0
C2243 C 0.2298 0.34837 0.26207 0.0
C2244 C 0.24868 0.34633 0.31459 0.0
C2245 C 0.24901 0.33392 0.31987 0.0
C2246 C 0.25284 0.33018 0.36953 0.0
C2247 C 0.2562 0.33925 0.4153 0.0
C2248 C 0.25562 0.35187 0.4112 0.0
C2249 C 0.25205 0.35553 0.35977 0.0
H2250 H 0.03201 0.44977 0.91604 0.0
H2251 H 0.00506 0.41229 0.81895 0.0
H2252 H 0.98803 0.40302 0.89674 0.0
H2253 H 0.0257 0.4324 0.04972 0.0
H2254 H 0.02589 0.44682 0.08674 0.0
H2255 H 0.0361 0.45019 0.02406 0.0
H2256 H 0.02352 0.46273 0.98132 0.0
H2257 H 0.01323 0.45935 0.04375 0.0
H2258 H 0.00451 0.45346 0.97744 0.0
H2259 H 0.97357 0.39825 0.98438 0.0
H2260 H 0.96308 0.39814 0.07559 0.0
H2261 H -0.00034 0.43879 0.1144 0.0
C2262 C 0.02259 0.43956 0.91117 0.0
C2263 C 0.01988 0.43174 0.8614 0.0
C2264 C 0.00738 0.41845 0.85673 0.0
C2265 C 0.99763 0.4131 0.90067 0.0
C2266 C 0.00058 0.42116 0.94893 0.0
C2267 C 0.01278 0.43408 0.95447 0.0
C2268 C 0.01335 0.44079 0.01016 0.0
C2269 C 0.02601 0.44265 0.04471 0.0
C2270 C 0.01367 0.45491 0.00269 0.0
C2271 C -0.00048 0.42967 0.03506 0.0
C2272 C 0.9923 0.41842 0.99918 0.0
C2273 C 0.97916 0.40697 0.0129 0.0
C2274 C 0.97328 0.40702 0.06475 0.0
C2275 C 0.98055 0.41844 0.10219 0.0
C2276 C 0.99384 0.42988 0.08687 0.0
H2277 H 0.56761 0.56572 0.13074 0.0
H2278 H 0.60443 0.56285 0.08395 0.0
H2279 H 0.60422 0.57244 0.99107 0.0
H2280 H 0.55007 0.55476 0.00117 0.0
H2281 H 0.54298 0.56649 0.00358 0.0
H2282 H 0.5466 0.56023 0.06723 0.0
H2283 H 0.56262 0.58603 0.10022 0.0
H2284 H 0.55906 0.59239 0.03659 0.0
H2285 H 0.57702 0.5982 0.05673 0.0
H2286 H 0.59931 0.58145 0.90193 0.0
H2287 H 0.58986 0.58867 0.82312 0.0
H2288 H 0.55623 0.58547 0.92906 0.0
C2289 C 0.57573 0.56722 0.10124 0.0
C2290 C 0.58607 0.56358 0.11468 0.0
C2291 C 0.59641 0.56559 0.0746 0.0
C2292 C 0.5964 0.57106 0.02179 0.0
C2293 C 0.58598 0.57446 0.00983 0.0
C2294 C 0.57584 0.57261 0.04844 0.0
C2295 C 0.56546 0.57654 0.02462 0.0
C2296 C 0.55039 0.56374 0.02411 0.0
C2297 C 0.56608 0.58904 0.05643 0.0
C2298 C 0.57125 0.58076 0.96632 0.0
C2299 C 0.58314 0.57957 0.95864 0.0
C2300 C 0.59007 0.5825 0.90757 0.0
C2301 C 0.58461 0.58659 0.86306 0.0
C2302 C 0.57232 0.58768 0.86991 0.0
C2303 C 0.5657 0.58485 0.9225 0.0
H2304 H 0.44051 0.00515 0.13408 0.0
H2305 H 0.42632 0.03556 0.11527 0.0
H2306 H 0.41273 0.02285 0.03177 0.0
H2307 H 0.44571 0.00206 0.99105 0.0
H2308 H 0.43983 0.98346 0.99379 0.0
H2309 H 0.44749 0.99428 0.05447 0.0
H2310 H 0.4251 0.97769 0.1114 0.0
H2311 H 0.41736 0.96682 0.05076 0.0
H2312 H 0.40805 0.97413 0.08696 0.0
H2313 H 0.40163 0.0075 0.94792 0.0
H2314 H 0.39468 0.9913 0.86767 0.0
H2315 H 0.41639 0.97111 0.94081 0.0
C2316 C 0.4344 0.00905 0.11285 0.0
C2317 C 0.43442 0.02131 0.13135 0.0
C2318 C 0.42646 0.02618 0.10188 0.0
C2319 C 0.41866 0.019 0.05455 0.0
C2320 C 0.41895 0.00699 0.03723 0.0
C2321 C 0.42665 0.00207 0.06539 0.0
C2322 C 0.42585 0.98941 0.03637 0.0
C2323 C 0.4406 0.99249 0.01781 0.0
C2324 C 0.41866 0.97623 0.0736 0.0
C2325 C 0.41667 0.98809 0.98701 0.0
C2326 C 0.41268 0.99824 0.98858 0.0
C2327 C 0.40461 -0.00056 0.94643 0.0
C2328 C 0.40071 0.99018 0.90101 0.0
C2329 C 0.40495 0.97991 0.89794 0.0
C2330 C 0.41286 0.97876 0.94208 0.0
H2331 H 0.55565 0.96848 0.85293 0.0
H2332 H 0.57297 0.00333 0.73568 0.0
H2333 H 0.58322 0.02018 0.8137 0.0
H2334 H 0.54552 0.98482 0.95441 0.0
H2335 H 0.54993 0.97746 0.01291 0.0
H2336 H 0.54496 0.96814 0.94768 0.0
H2337 H 0.56839 0.96761 0.94612 0.0
H2338 H 0.57343 0.97692 0.01149 0.0
H2339 H 0.58495 0.98391 0.95208 0.0
H2340 H 0.59044 0.03325 0.90494 0.0
H2341 H 0.59387 0.04154 0.00237 0.0
H2342 H 0.57165 0.99804 0.05923 0.0
C2343 C 0.56177 0.97964 0.84351 0.0
C2344 C 0.56356 0.98459 0.78816 0.0
C2345 C 0.57149 -0.00071 0.77775 0.0
C2346 C 0.57738 0.00894 0.82177 0.0
C2347 C 0.57526 0.00371 0.87588 0.0
C2348 C 0.56767 0.9894 0.88686 0.0
C2349 C 0.56634 0.98652 0.94877 0.0
C2350 C 0.55077 0.97878 0.96699 0.0
C2351 C 0.57372 0.97825 0.96559 0.0
C2352 C 0.57416 0.00146 0.97096 0.0
C2353 C 0.57933 0.01123 0.92831 0.0
C2354 C 0.58654 0.0257 0.9387 0.0
C2355 C 0.58843 0.0303 0.99416 0.0
C2356 C 0.58305 0.02045 0.03845 0.0
C2357 C 0.57595 0.00585 0.0264 0.0
H2358 H 0.00628 0.56595 0.91841 0.0
H2359 H 0.04136 0.60775 0.95485 0.0
H2360 H 0.03062 0.60738 0.04573 0.0
H2361 H 0.97905 0.57059 0.98211 0.0
H2362 H 0.96958 0.55283 0.00883 0.0
H2363 H 0.97988 0.55656 0.94621 0.0
H2364 H 0.99386 0.54561 0.99011 0.0
H2365 H 0.9836 0.54184 0.05282 0.0
H2366 H 0.00258 0.55216 0.05605 0.0
H2367 H 0.01606 0.60233 0.13297 0.0
H2368 H -0.00088 0.59273 0.21094 0.0
H2369 H 0.97386 0.55412 0.11731 0.0
C2370 C 0.0117 0.57506 0.94533 0.0
C2371 C 0.02465 0.5869 0.92946 0.0
C2372 C 0.03143 0.59856 0.96614 0.0
C2373 C 0.0254 0.59846 0.01779 0.0
C2374 C 0.01263 0.58661 0.03214 0.0
C2375 C 0.00588 0.57511 0.99705 0.0
C2376 C 0.99241 0.56355 0.0228 0.0
C2377 C 0.97947 0.56072 0.98791 0.0
C2378 C 0.99317 0.54999 0.03093 0.0
C2379 C 0.99265 0.57032 0.07795 0.0
C2380 C 0.00435 0.58365 0.08249 0.0
C2381 C 0.00685 0.59191 0.12987 0.0
C2382 C 0.99716 0.58637 0.17391 0.0
C2383 C 0.98516 0.57267 0.17028 0.0
C2384 C 0.98292 0.56462 0.12145 0.0
H2385 H 0.43979 0.41478 0.12228 0.0
H2386 H 0.40924 0.41595 0.23424 0.0
H2387 H 0.39924 0.4227 0.15583 0.0
H2388 H 0.44649 0.44453 0.04205 0.0
H2389 H 0.44813 0.43724 0.97709 0.0
H2390 H 0.45235 0.43179 0.04144 0.0
H2391 H 0.43446 0.40565 0.01811 0.0
H2392 H 0.43019 0.41103 0.95358 0.0
H2393 H 0.4164 0.40055 0.00255 0.0
H2394 H 0.39353 0.43073 0.06588 0.0
H2395 H 0.39219 0.43876 0.97104 0.0
H2396 H 0.42619 0.43178 0.91859 0.0
C2397 C 0.43091 0.41632 0.13033 0.0
C2398 C 0.42529 0.41483 0.18443 0.0
C2399 C 0.4137 0.417 0.19312 0.0
C2400 C 0.40795 0.42084 0.14886 0.0
C2401 C 0.41384 0.42237 0.09615 0.0
C2402 C 0.42501 0.42009 0.08668 0.0
C2403 C 0.42966 0.42276 0.02651 0.0
C2404 C 0.44507 0.4348 0.02151 0.0
C2405 C 0.42754 0.40919 0.99855 0.0
C2406 C 0.41949 0.42708 0.0037 0.0
C2407 C 0.41043 0.42678 0.04441 0.0
C2408 C 0.40048 0.43087 0.03352 0.0
C2409 C 0.39981 0.43544 0.97961 0.0
C2410 C 0.40902 0.43583 0.93735 0.0
C2411 C 0.41889 0.43147 0.94975 0.0
loop_
_geom_bond_atom_site_label_1
_geom_bond_atom_site_label_2
_geom_bond_distance
_geom_bond_site_symmetry_2
_ccdc_geom_bond_type
C0 O1 1.160 . S
C0 O7 1.185 . S
O1 C0 1.160 . S
O2 Zn3 1.899 . S
O2 C10 1.284 . S
Zn3 O2 1.899 . S
Zn3 O4 2.032 . S
Zn3 O7 2.086 . S
Zn3 O12 1.977 . S
O4 Zn3 2.032 . S
O4 C8 1.278 1_554 S
C5 O6 1.203 . S
C5 O12 1.267 . S
O6 C5 1.203 . S
O7 C0 1.185 . S
O7 Zn3 2.086 . S
C8 O4 1.278 1_556 S
C8 O9 1.211 . S
O9 C8 1.211 . S
C10 O2 1.284 . S
C10 O11 1.273 . S
O11 C10 1.273 . S
O12 Zn3 1.977 . S
O12 C5 1.267 . S
C13 O14 1.160 . S
C13 O20 1.185 . S
O14 C13 1.160 . S
O15 Zn16 1.899 . S
O15 C23 1.284 . S
Zn16 O15 1.899 . S
Zn16 O17 2.032 . S
Zn16 O20 2.086 . S
Zn16 O25 1.977 . S
O17 Zn16 2.032 . S
O17 C21 1.278 1_554 S
C18 O19 1.203 . S
C18 O25 1.267 . S
O19 C18 1.203 . S
O20 C13 1.185 . S
O20 Zn16 2.086 . S
C21 O17 1.278 1_556 S
C21 O22 1.211 . S
O22 C21 1.211 . S
C23 O15 1.284 . S
C23 O24 1.273 . S
O24 C23 1.273 . S
O25 Zn16 1.977 . S
O25 C18 1.267 . S
C26 O27 1.160 . S
C26 O33 1.185 . S
O27 C26 1.160 . S
O28 Zn29 1.899 . S
O28 C36 1.284 . S
Zn29 O28 1.899 . S
Zn29 O30 2.032 . S
Zn29 O33 2.086 . S
Zn29 O38 1.977 . S
O30 Zn29 2.032 . S
O30 C34 1.278 1_554 S
C31 O32 1.203 . S
C31 O38 1.267 . S
O32 C31 1.203 . S
O33 C26 1.185 . S
O33 Zn29 2.086 . S
C34 O30 1.278 1_556 S
C34 O35 1.211 . S
O35 C34 1.211 . S
C36 O28 1.284 . S
C36 O37 1.273 . S
O37 C36 1.273 . S
O38 Zn29 1.977 . S
O38 C31 1.267 . S
C39 O40 1.160 . S
C39 O46 1.185 . S
O40 C39 1.160 . S
O41 Zn42 1.899 . S
O41 C49 1.284 . S
Zn42 O41 1.899 . S
Zn42 O43 2.032 . S
Zn42 O46 2.086 . S
Zn42 O51 1.977 . S
O43 Zn42 2.032 . S
O43 C47 1.278 1_556 S
C44 O45 1.203 . S
C44 O51 1.267 . S
O45 C44 1.203 . S
O46 C39 1.185 . S
O46 Zn42 2.086 . S
C47 O43 1.278 1_554 S
C47 O48 1.211 . S
O48 C47 1.211 . S
C49 O41 1.284 . S
C49 O50 1.273 . S
O50 C49 1.273 . S
O51 Zn42 1.977 . S
O51 C44 1.267 . S
C52 O53 1.160 . S
C52 O59 1.185 . S
O53 C52 1.160 . S
O54 Zn55 1.899 . S
O54 C62 1.284 . S
Zn55 O54 1.899 . S
Zn55 O56 2.032 . S
Zn55 O59 2.086 . S
Zn55 O64 1.977 . S
O56 Zn55 2.032 . S
O56 C60 1.278 1_556 S
C57 O58 1.203 . S
C57 O64 1.267 . S
O58 C57 1.203 . S
O59 C52 1.185 . S
O59 Zn55 2.086 . S
C60 O56 1.278 1_554 S
C60 O61 1.211 . S
O61 C60 1.211 . S
C62 O54 1.284 . S
C62 O63 1.273 . S
O63 C62 1.273 . S
O64 Zn55 1.977 . S
O64 C57 1.267 . S
C65 O66 1.160 . S
C65 O72 1.185 . S
O66 C65 1.160 . S
O67 Zn68 1.899 . S
O67 C75 1.284 . S
Zn68 O67 1.899 . S
Zn68 O69 2.032 . S
Zn68 O72 2.086 . S
Zn68 O77 1.977 . S
O69 Zn68 2.032 . S
O69 C73 1.278 1_556 S
C70 O71 1.203 . S
C70 O77 1.267 . S
O71 C70 1.203 . S
O72 C65 1.185 . S
O72 Zn68 2.086 . S
C73 O69 1.278 1_554 S
C73 O74 1.211 . S
O74 C73 1.211 . S
C75 O67 1.284 . S
C75 O76 1.273 . S
O76 C75 1.273 . S
O77 Zn68 1.977 . S
O77 C70 1.267 . S
C78 O79 1.160 . S
C78 O85 1.185 . S
O79 C78 1.160 . S
O80 Zn81 1.899 . S
O80 C88 1.284 . S
Zn81 O80 1.899 . S
Zn81 O82 2.032 . S
Zn81 O85 2.086 . S
Zn81 O90 1.977 . S
O82 Zn81 2.032 . S
O82 C86 1.278 1_556 S
C83 O84 1.203 . S
C83 O90 1.267 . S
O84 C83 1.203 . S
O85 C78 1.185 . S
O85 Zn81 2.086 . S
C86 O82 1.278 1_554 S
C86 O87 1.211 . S
O87 C86 1.211 . S
C88 O80 1.284 . S
C88 O89 1.273 . S
O89 C88 1.273 . S
O90 Zn81 1.977 . S
O90 C83 1.267 . S
C91 O92 1.160 . S
C91 O98 1.185 . S
O92 C91 1.160 . S
O93 Zn94 1.899 . S
O93 C101 1.284 . S
Zn94 O93 1.899 . S
Zn94 O95 2.032 . S
Zn94 O98 2.086 . S
Zn94 O103 1.977 . S
O95 Zn94 2.032 . S
O95 C99 1.278 1_556 S
C96 O97 1.203 . S
C96 O103 1.267 . S
O97 C96 1.203 . S
O98 C91 1.185 . S
O98 Zn94 2.086 . S
C99 O95 1.278 1_554 S
C99 O100 1.211 . S
O100 C99 1.211 . S
C101 O93 1.284 . S
C101 O102 1.273 . S
O102 C101 1.273 . S
O103 Zn94 1.977 . S
O103 C96 1.267 . S
C104 O105 1.160 . S
C104 O111 1.185 . S
O105 C104 1.160 . S
O106 Zn107 1.899 . S
O106 C114 1.284 . S
Zn107 O106 1.899 . S
Zn107 O108 2.032 . S
Zn107 O111 2.086 . S
Zn107 O116 1.977 . S
O108 Zn107 2.032 . S
O108 C112 1.278 1_556 S
C109 O110 1.203 . S
C109 O116 1.267 . S
O110 C109 1.203 . S
O111 C104 1.185 . S
O111 Zn107 2.086 . S
C112 O108 1.278 1_554 S
C112 O113 1.211 . S
O113 C112 1.211 . S
C114 O106 1.284 . S
C114 O115 1.273 . S
O115 C114 1.273 . S
O116 Zn107 1.977 . S
O116 C109 1.267 . S
C117 O118 1.160 . S
C117 O124 1.185 . S
O118 C117 1.160 . S
O119 Zn120 1.899 . S
O119 C127 1.284 . S
Zn120 O119 1.899 . S
Zn120 O121 2.032 . S
Zn120 O124 2.086 . S
Zn120 O129 1.977 . S
O121 Zn120 2.032 . S
O121 C125 1.278 1_554 S
C122 O123 1.203 . S
C122 O129 1.267 . S
O123 C122 1.203 . S
O124 C117 1.185 . S
O124 Zn120 2.086 . S
C125 O121 1.278 1_556 S
C125 O126 1.211 . S
O126 C125 1.211 . S
C127 O119 1.284 . S
C127 O128 1.273 . S
O128 C127 1.273 . S
O129 Zn120 1.977 . S
O129 C122 1.267 . S
C130 O131 1.160 . S
C130 O137 1.185 . S
O131 C130 1.160 . S
O132 Zn133 1.899 . S
O132 C140 1.284 . S
Zn133 O132 1.899 . S
Zn133 O134 2.032 . S
Zn133 O137 2.086 . S
Zn133 O142 1.977 . S
O134 Zn133 2.032 . S
O134 C138 1.278 1_554 S
C135 O136 1.203 . S
C135 O142 1.267 . S
O136 C135 1.203 . S
O137 C130 1.185 . S
O137 Zn133 2.086 . S
C138 O134 1.278 1_556 S
C138 O139 1.211 . S
O139 C138 1.211 . S
C140 O132 1.284 . S
C140 O141 1.273 . S
O141 C140 1.273 . S
O142 Zn133 1.977 . S
O142 C135 1.267 . S
C143 O144 1.160 . S
C143 O150 1.185 . S
O144 C143 1.160 . S
O145 Zn146 1.899 . S
O145 C153 1.284 . S
Zn146 O145 1.899 . S
Zn146 O147 2.032 . S
Zn146 O150 2.086 . S
Zn146 O155 1.977 . S
O147 Zn146 2.032 . S
O147 C151 1.278 1_554 S
C148 O149 1.203 . S
C148 O155 1.267 . S
O149 C148 1.203 . S
O150 C143 1.185 . S
O150 Zn146 2.086 . S
C151 O147 1.278 1_556 S
C151 O152 1.211 . S
O152 C151 1.211 . S
C153 O145 1.284 . S
C153 O154 1.273 . S
O154 C153 1.273 . S
O155 Zn146 1.977 . S
O155 C148 1.267 . S
C156 O157 1.160 . S
C156 O163 1.185 . S
O157 C156 1.160 . S
O158 Zn159 1.899 . S
O158 C166 1.284 . S
Zn159 O158 1.899 . S
Zn159 O160 2.032 . S
Zn159 O163 2.086 . S
Zn159 O168 1.977 . S
O160 Zn159 2.032 . S
O160 C164 1.278 . S
C161 O162 1.203 . S
C161 O168 1.267 . S
O162 C161 1.203 . S
O163 C156 1.185 . S
O163 Zn159 2.086 . S
C164 O160 1.278 . S
C164 O165 1.211 . S
O165 C164 1.211 . S
C166 O158 1.284 . S
C166 O167 1.273 . S
O167 C166 1.273 . S
O168 Zn159 1.977 . S
O168 C161 1.267 . S
C169 O170 1.160 . S
C169 O176 1.185 . S
O170 C169 1.160 . S
O171 Zn172 1.899 . S
O171 C179 1.284 . S
Zn172 O171 1.899 . S
Zn172 O173 2.032 . S
Zn172 O176 2.086 . S
Zn172 O181 1.977 . S
O173 Zn172 2.032 . S
O173 C177 1.278 . S
C174 O175 1.203 . S
C174 O181 1.267 . S
O175 C174 1.203 . S
O176 C169 1.185 . S
O176 Zn172 2.086 . S
C177 O173 1.278 . S
C177 O178 1.211 . S
O178 C177 1.211 . S
C179 O171 1.284 . S
C179 O180 1.273 . S
O180 C179 1.273 . S
O181 Zn172 1.977 . S
O181 C174 1.267 . S
C182 O183 1.160 . S
C182 O189 1.185 . S
O183 C182 1.160 . S
O184 Zn185 1.899 . S
O184 C192 1.284 . S
Zn185 O184 1.899 . S
Zn185 O186 2.032 . S
Zn185 O189 2.086 . S
Zn185 O194 1.977 . S
O186 Zn185 2.032 . S
O186 C190 1.278 . S
C187 O188 1.203 . S
C187 O194 1.267 . S
O188 C187 1.203 . S
O189 C182 1.185 . S
O189 Zn185 2.086 . S
C190 O186 1.278 . S
C190 O191 1.211 . S
O191 C190 1.211 . S
C192 O184 1.284 . S
C192 O193 1.273 . S
O193 C192 1.273 . S
O194 Zn185 1.977 . S
O194 C187 1.267 . S
C195 O196 1.160 . S
C195 O202 1.185 . S
O196 C195 1.160 . S
O197 Zn198 1.899 . S
O197 C205 1.284 . S
Zn198 O197 1.899 . S
Zn198 O199 2.032 . S
Zn198 O202 2.086 . S
Zn198 O207 1.977 . S
O199 Zn198 2.032 . S
O199 C203 1.278 . S
C200 O201 1.203 . S
C200 O207 1.267 . S
O201 C200 1.203 . S
O202 C195 1.185 . S
O202 Zn198 2.086 . S
C203 O199 1.278 . S
C203 O204 1.211 . S
O204 C203 1.211 . S
C205 O197 1.284 . S
C205 O206 1.273 . S
O206 C205 1.273 . S
O207 Zn198 1.977 . S
O207 C200 1.267 . S
C208 O209 1.160 . S
C208 O215 1.185 . S
O209 C208 1.160 . S
O210 Zn211 1.899 . S
O210 C218 1.284 . S
Zn211 O210 1.899 . S
Zn211 O212 2.032 . S
Zn211 O215 2.086 . S
Zn211 O220 1.977 . S
O212 Zn211 2.032 . S
O212 C216 1.278 . S
C213 O214 1.203 . S
C213 O220 1.267 . S
O214 C213 1.203 . S
O215 C208 1.185 . S
O215 Zn211 2.086 . S
C216 O212 1.278 . S
C216 O217 1.211 . S
O217 C216 1.211 . S
C218 O210 1.284 . S
C218 O219 1.273 . S
O219 C218 1.273 . S
O220 Zn211 1.977 . S
O220 C213 1.267 . S
C221 O222 1.160 . S
C221 O228 1.185 . S
O222 C221 1.160 . S
O223 Zn224 1.899 . S
O223 C231 1.284 . S
Zn224 O223 1.899 . S
Zn224 O225 2.032 . S
Zn224 O228 2.086 . S
Zn224 O233 1.977 . S
O225 Zn224 2.032 . S
O225 C229 1.278 . S
C226 O227 1.203 . S
C226 O233 1.267 . S
O227 C226 1.203 . S
O228 C221 1.185 . S
O228 Zn224 2.086 . S
C229 O225 1.278 . S
C229 O230 1.211 . S
O230 C229 1.211 . S
C231 O223 1.284 . S
C231 O232 1.273 . S
O232 C231 1.273 . S
O233 Zn224 1.977 . S
O233 C226 1.267 . S
C234 O235 1.160 . S
C234 O241 1.185 . S
O235 C234 1.160 . S
O236 Zn237 1.899 . S
O236 C244 1.284 . S
Zn237 O236 1.899 . S
Zn237 O238 2.032 . S
Zn237 O241 2.086 . S
Zn237 O246 1.977 . S
O238 Zn237 2.032 . S
O238 C242 1.278 . S
C239 O240 1.203 . S
C239 O246 1.267 . S
O240 C239 1.203 . S
O241 C234 1.185 . S
O241 Zn237 2.086 . S
C242 O238 1.278 . S
C242 O243 1.211 . S
O243 C242 1.211 . S
C244 O236 1.284 . S
C244 O245 1.273 . S
O245 C244 1.273 . S
O246 Zn237 1.977 . S
O246 C239 1.267 . S
C247 O248 1.160 . S
C247 O254 1.185 . S
O248 C247 1.160 . S
O249 Zn250 1.899 . S
O249 C257 1.284 . S
Zn250 O249 1.899 . S
Zn250 O251 2.032 . S
Zn250 O254 2.086 . S
Zn250 O259 1.977 . S
O251 Zn250 2.032 . S
O251 C255 1.278 . S
C252 O253 1.203 . S
C252 O259 1.267 . S
O253 C252 1.203 . S
O254 C247 1.185 . S
O254 Zn250 2.086 . S
C255 O251 1.278 . S
C255 O256 1.211 . S
O256 C255 1.211 . S
C257 O249 1.284 . S
C257 O258 1.273 . S
O258 C257 1.273 . S
O259 Zn250 1.977 . S
O259 C252 1.267 . S
C260 O261 1.160 . S
C260 O267 1.185 . S
O261 C260 1.160 . S
O262 Zn263 1.899 . S
O262 C270 1.284 . S
Zn263 O262 1.899 . S
Zn263 O264 2.032 . S
Zn263 O267 2.086 . S
Zn263 O272 1.977 . S
O264 Zn263 2.032 . S
O264 C268 1.278 . S
C265 O266 1.203 . S
C265 O272 1.267 . S
O266 C265 1.203 . S
O267 C260 1.185 . S
O267 Zn263 2.086 . S
C268 O264 1.278 . S
C268 O269 1.211 . S
O269 C268 1.211 . S
C270 O262 1.284 . S
C270 O271 1.273 . S
O271 C270 1.273 . S
O272 Zn263 1.977 . S
O272 C265 1.267 . S
C273 O274 1.160 . S
C273 O280 1.185 . S
O274 C273 1.160 . S
O275 Zn276 1.899 . S
O275 C283 1.284 . S
Zn276 O275 1.899 . S
Zn276 O277 2.032 . S
Zn276 O280 2.086 . S
Zn276 O285 1.977 . S
O277 Zn276 2.032 . S
O277 C281 1.278 . S
C278 O279 1.203 . S
C278 O285 1.267 . S
O279 C278 1.203 . S
O280 C273 1.185 . S
O280 Zn276 2.086 . S
C281 O277 1.278 . S
C281 O282 1.211 . S
O282 C281 1.211 . S
C283 O275 1.284 . S
C283 O284 1.273 . S
O284 C283 1.273 . S
O285 Zn276 1.977 . S
O285 C278 1.267 . S
C286 O287 1.160 . S
C286 O293 1.185 . S
O287 C286 1.160 . S
O288 Zn289 1.899 . S
O288 C296 1.284 . S
Zn289 O288 1.899 . S
Zn289 O290 2.032 . S
Zn289 O293 2.086 . S
Zn289 O298 1.977 . S
O290 Zn289 2.032 . S
O290 C294 1.278 . S
C291 O292 1.203 . S
C291 O298 1.267 . S
O292 C291 1.203 . S
O293 C286 1.185 . S
O293 Zn289 2.086 . S
C294 O290 1.278 . S
C294 O295 1.211 . S
O295 C294 1.211 . S
C296 O288 1.284 . S
C296 O297 1.273 . S
O297 C296 1.273 . S
O298 Zn289 1.977 . S
O298 C291 1.267 . S
C299 O300 1.160 . S
C299 O306 1.185 . S
O300 C299 1.160 . S
O301 Zn302 1.899 . S
O301 C309 1.284 . S
Zn302 O301 1.899 . S
Zn302 O303 2.032 . S
Zn302 O306 2.086 . S
Zn302 O311 1.977 . S
O303 Zn302 2.032 . S
O303 C307 1.278 . S
C304 O305 1.203 . S
C304 O311 1.267 . S
O305 C304 1.203 . S
O306 C299 1.185 . S
O306 Zn302 2.086 . S
C307 O303 1.278 . S
C307 O308 1.211 . S
O308 C307 1.211 . S
C309 O301 1.284 . S
C309 O310 1.273 . S
O310 C309 1.273 . S
O311 Zn302 1.977 . S
O311 C304 1.267 . S
C312 O313 1.160 . S
C312 O319 1.185 . S
O313 C312 1.160 . S
O314 Zn315 1.899 . S
O314 C322 1.284 . S
Zn315 O314 1.899 . S
Zn315 O316 2.032 . S
Zn315 O319 2.086 . S
Zn315 O324 1.977 . S
O316 Zn315 2.032 . S
O316 C320 1.278 . S
C317 O318 1.203 . S
C317 O324 1.267 . S
O318 C317 1.203 . S
O319 C312 1.185 . S
O319 Zn315 2.086 . S
C320 O316 1.278 . S
C320 O321 1.211 . S
O321 C320 1.211 . S
C322 O314 1.284 . S
C322 O323 1.273 . S
O323 C322 1.273 . S
O324 Zn315 1.977 . S
O324 C317 1.267 . S
C325 O326 1.160 . S
C325 O332 1.185 . S
O326 C325 1.160 . S
O327 Zn328 1.899 . S
O327 C335 1.284 . S
Zn328 O327 1.899 . S
Zn328 O329 2.032 . S
Zn328 O332 2.086 . S
Zn328 O337 1.977 . S
O329 Zn328 2.032 . S
O329 C333 1.278 . S
C330 O331 1.203 . S
C330 O337 1.267 . S
O331 C330 1.203 . S
O332 C325 1.185 . S
O332 Zn328 2.086 . S
C333 O329 1.278 . S
C333 O334 1.211 . S
O334 C333 1.211 . S
C335 O327 1.284 . S
C335 O336 1.273 . S
O336 C335 1.273 . S
O337 Zn328 1.977 . S
O337 C330 1.267 . S
C338 O339 1.160 . S
C338 O345 1.185 . S
O339 C338 1.160 . S
O340 Zn341 1.899 . S
O340 C348 1.284 . S
Zn341 O340 1.899 . S
Zn341 O342 2.032 . S
Zn341 O345 2.086 . S
Zn341 O350 1.977 . S
O342 Zn341 2.032 . S
O342 C346 1.278 . S
C343 O344 1.203 . S
C343 O350 1.267 . S
O344 C343 1.203 . S
O345 C338 1.185 . S
O345 Zn341 2.086 . S
C346 O342 1.278 . S
C346 O347 1.211 . S
O347 C346 1.211 . S
C348 O340 1.284 . S
C348 O349 1.273 . S
O349 C348 1.273 . S
O350 Zn341 1.977 . S
O350 C343 1.267 . S
C351 O352 1.160 . S
C351 O358 1.185 . S
O352 C351 1.160 . S
O353 Zn354 1.899 . S
O353 C361 1.284 . S
Zn354 O353 1.899 . S
Zn354 O355 2.032 . S
Zn354 O358 2.086 . S
Zn354 O363 1.977 . S
O355 Zn354 2.032 . S
O355 C359 1.278 . S
C356 O357 1.203 . S
C356 O363 1.267 . S
O357 C356 1.203 . S
O358 C351 1.185 . S
O358 Zn354 2.086 . S
C359 O355 1.278 . S
C359 O360 1.211 . S
O360 C359 1.211 . S
C361 O353 1.284 . S
C361 O362 1.273 . S
O362 C361 1.273 . S
O363 Zn354 1.977 . S
O363 C356 1.267 . S
C364 O365 1.160 . S
C364 O371 1.185 . S
O365 C364 1.160 . S
O366 Zn367 1.899 . S
O366 C374 1.284 . S
Zn367 O366 1.899 . S
Zn367 O368 2.032 . S
Zn367 O371 2.086 . S
Zn367 O376 1.977 . S
O368 Zn367 2.032 . S
O368 C372 1.278 . S
C369 O370 1.203 . S
C369 O376 1.267 . S
O370 C369 1.203 . S
O371 C364 1.185 . S
O371 Zn367 2.086 . S
C372 O368 1.278 . S
C372 O373 1.211 . S
O373 C372 1.211 . S
C374 O366 1.284 . S
C374 O375 1.273 . S
O375 C374 1.273 . S
O376 Zn367 1.977 . S
O376 C369 1.267 . S
C377 O378 1.160 . S
C377 O384 1.185 . S
O378 C377 1.160 . S
O379 Zn380 1.899 . S
O379 C387 1.284 . S
Zn380 O379 1.899 . S
Zn380 O381 2.032 . S
Zn380 O384 2.086 . S
Zn380 O389 1.977 . S
O381 Zn380 2.032 . S
O381 C385 1.278 . S
C382 O383 1.203 . S
C382 O389 1.267 . S
O383 C382 1.203 . S
O384 C377 1.185 . S
O384 Zn380 2.086 . S
C385 O381 1.278 . S
C385 O386 1.211 . S
O386 C385 1.211 . S
C387 O379 1.284 . S
C387 O388 1.273 . S
O388 C387 1.273 . S
O389 Zn380 1.977 . S
O389 C382 1.267 . S
C390 O391 1.160 . S
C390 O397 1.185 . S
O391 C390 1.160 . S
O392 Zn393 1.899 . S
O392 C400 1.284 . S
Zn393 O392 1.899 . S
Zn393 O394 2.032 . S
Zn393 O397 2.086 . S
Zn393 O402 1.977 . S
O394 Zn393 2.032 . S
O394 C398 1.278 . S
C395 O396 1.203 . S
C395 O402 1.267 . S
O396 C395 1.203 . S
O397 C390 1.185 . S
O397 Zn393 2.086 . S
C398 O394 1.278 . S
C398 O399 1.211 . S
O399 C398 1.211 . S
C400 O392 1.284 . S
C400 O401 1.273 . S
O401 C400 1.273 . S
O402 Zn393 1.977 . S
O402 C395 1.267 . S
C403 O404 1.160 . S
C403 O410 1.185 . S
O404 C403 1.160 . S
O405 Zn406 1.899 . S
O405 C413 1.284 . S
Zn406 O405 1.899 . S
Zn406 O407 2.032 . S
Zn406 O410 2.086 . S
Zn406 O415 1.977 . S
O407 Zn406 2.032 . S
O407 C411 1.278 . S
C408 O409 1.203 . S
C408 O415 1.267 . S
O409 C408 1.203 . S
O410 C403 1.185 . S
O410 Zn406 2.086 . S
C411 O407 1.278 . S
C411 O412 1.211 . S
O412 C411 1.211 . S
C413 O405 1.284 . S
C413 O414 1.273 . S
O414 C413 1.273 . S
O415 Zn406 1.977 . S
O415 C408 1.267 . S
C416 O417 1.160 . S
C416 O423 1.185 . S
O417 C416 1.160 . S
O418 Zn419 1.899 . S
O418 C426 1.284 . S
Zn419 O418 1.899 . S
Zn419 O420 2.032 . S
Zn419 O423 2.086 . S
Zn419 O428 1.977 . S
O420 Zn419 2.032 . S
O420 C424 1.278 . S
C421 O422 1.203 . S
C421 O428 1.267 . S
O422 C421 1.203 . S
O423 C416 1.185 . S
O423 Zn419 2.086 . S
C424 O420 1.278 . S
C424 O425 1.211 . S
O425 C424 1.211 . S
C426 O418 1.284 . S
C426 O427 1.273 . S
O427 C426 1.273 . S
O428 Zn419 1.977 . S
O428 C421 1.267 . S
C429 O430 1.160 . S
C429 O436 1.185 . S
O430 C429 1.160 . S
O431 Zn432 1.899 . S
O431 C439 1.284 . S
Zn432 O431 1.899 . S
Zn432 O433 2.032 . S
Zn432 O436 2.086 . S
Zn432 O441 1.977 . S
O433 Zn432 2.032 . S
O433 C437 1.278 . S
C434 O435 1.203 . S
C434 O441 1.267 . S
O435 C434 1.203 . S
O436 C429 1.185 . S
O436 Zn432 2.086 . S
C437 O433 1.278 . S
C437 O438 1.211 . S
O438 C437 1.211 . S
C439 O431 1.284 . S
C439 O440 1.273 . S
O440 C439 1.273 . S
O441 Zn432 1.977 . S
O441 C434 1.267 . S
C442 O443 1.160 . S
C442 O449 1.185 . S
O443 C442 1.160 . S
O444 Zn445 1.899 . S
O444 C452 1.284 . S
Zn445 O444 1.899 . S
Zn445 O446 2.032 . S
Zn445 O449 2.086 . S
Zn445 O454 1.977 . S
O446 Zn445 2.032 . S
O446 C450 1.278 . S
C447 O448 1.203 . S
C447 O454 1.267 . S
O448 C447 1.203 . S
O449 C442 1.185 . S
O449 Zn445 2.086 . S
C450 O446 1.278 . S
C450 O451 1.211 . S
O451 C450 1.211 . S
C452 O444 1.284 . S
C452 O453 1.273 . S
O453 C452 1.273 . S
O454 Zn445 1.977 . S
O454 C447 1.267 . S
C455 O456 1.160 . S
C455 O462 1.185 . S
O456 C455 1.160 . S
O457 Zn458 1.899 . S
O457 C465 1.284 . S
Zn458 O457 1.899 . S
Zn458 O459 2.032 . S
Zn458 O462 2.086 . S
Zn458 O467 1.977 . S
O459 Zn458 2.032 . S
O459 C463 1.278 . S
C460 O461 1.203 . S
C460 O467 1.267 . S
O461 C460 1.203 . S
O462 C455 1.185 . S
O462 Zn458 2.086 . S
C463 O459 1.278 . S
C463 O464 1.211 . S
O464 C463 1.211 . S
C465 O457 1.284 . S
C465 O466 1.273 . S
O466 C465 1.273 . S
O467 Zn458 1.977 . S
O467 C460 1.267 . S
H468 C480 0.930 . S
H469 C482 0.930 . S
H470 C483 0.930 . S
H471 C487 0.961 1_554 S
H472 C487 0.959 . S
H473 C487 0.961 . S
H474 C488 0.960 . S
H475 C488 0.961 . S
H476 C488 0.959 . S
H477 C491 0.929 . S
H478 C492 0.931 . S
H479 C494 0.930 . S
C480 H468 0.930 . S
C480 C481 1.399 . S
C480 C485 1.399 . S
C481 C480 1.399 . S
C481 C482 1.376 . S
C482 H469 0.930 . S
C482 C481 1.376 . S
C482 C483 1.388 . S
C483 H470 0.930 . S
C483 C482 1.388 . S
C483 C484 1.390 . S
C484 C483 1.390 . S
C484 C485 1.394 . S
C484 C490 1.465 . S
C485 C480 1.399 . S
C485 C484 1.394 . S
C485 C486 1.516 . S
C486 C485 1.516 . S
C486 C487 1.502 1_554 S
C486 C488 1.561 1_554 S
C486 C489 1.526 . S
C487 H471 0.961 1_556 S
C487 H472 0.959 . S
C487 H473 0.961 . S
C487 C486 1.502 1_556 S
C488 H474 0.960 . S
C488 H475 0.961 . S
C488 H476 0.959 . S
C488 C486 1.561 1_556 S
C489 C486 1.526 . S
C489 C490 1.396 . S
C489 C494 1.390 . S
C490 C484 1.465 . S
C490 C489 1.396 . S
C490 C491 1.399 . S
C491 H477 0.929 . S
C491 C490 1.399 . S
C491 C492 1.385 . S
C492 H478 0.931 . S
C492 C491 1.385 . S
C492 C493 1.389 . S
C493 C492 1.389 . S
C493 C494 1.387 . S
C494 H479 0.930 . S
C494 C489 1.390 . S
C494 C493 1.387 . S
H495 C507 0.930 . S
H496 C509 0.930 . S
H497 C510 0.930 1_556 S
H498 C514 0.959 . S
H499 C514 0.959 . S
H500 C514 0.961 . S
H501 C515 0.960 . S
H502 C515 0.961 . S
H503 C515 0.959 . S
H504 C518 0.929 1_556 S
H505 C519 0.930 . S
H506 C521 0.930 . S
C507 H495 0.930 . S
C507 C508 1.399 . S
C507 C512 1.399 . S
C508 C507 1.399 . S
C508 C509 1.376 . S
C509 H496 0.930 . S
C509 C508 1.376 . S
C509 C510 1.388 . S
C510 H497 0.930 1_554 S
C510 C509 1.388 . S
C510 C511 1.390 . S
C511 C510 1.390 . S
C511 C512 1.394 . S
C511 C517 1.465 . S
C512 C507 1.399 . S
C512 C511 1.394 . S
C512 C513 1.516 . S
C513 C512 1.516 . S
C513 C514 1.502 . S
C513 C515 1.561 . S
C513 C516 1.526 . S
C514 H498 0.959 . S
C514 H499 0.959 . S
C514 H500 0.961 . S
C514 C513 1.502 . S
C515 H501 0.960 . S
C515 H502 0.961 . S
C515 H503 0.959 . S
C515 C513 1.561 . S
C516 C513 1.526 . S
C516 C517 1.396 . S
C516 C521 1.390 . S
C517 C511 1.465 . S
C517 C516 1.396 . S
C517 C518 1.399 . S
C518 H504 0.929 1_554 S
C518 C517 1.399 . S
C518 C519 1.385 . S
C519 H505 0.930 . S
C519 C518 1.385 . S
C519 C520 1.389 . S
C520 C519 1.389 . S
C520 C521 1.387 . S
C521 H506 0.930 . S
C521 C516 1.390 . S
C521 C520 1.387 . S
H522 C534 0.930 . S
H523 C536 0.930 . S
H524 C537 0.930 . S
H525 C541 0.959 . S
H526 C541 0.959 . S
H527 C541 0.961 . S
H528 C542 0.960 . S
H529 C542 0.961 . S
H530 C542 0.959 . S
H531 C545 0.929 . S
H532 C546 0.931 . S
H533 C548 0.930 . S
C534 H522 0.930 . S
C534 C535 1.399 . S
C534 C539 1.399 . S
C535 C534 1.399 . S
C535 C536 1.376 . S
C536 H523 0.930 . S
C536 C535 1.376 . S
C536 C537 1.388 . S
C537 H524 0.930 . S
C537 C536 1.388 . S
C537 C538 1.390 . S
C538 C537 1.390 . S
C538 C539 1.394 . S
C538 C544 1.465 . S
C539 C534 1.399 . S
C539 C538 1.394 . S
C539 C540 1.516 . S
C540 C539 1.516 . S
C540 C541 1.502 . S
C540 C542 1.561 1_554 S
C540 C543 1.526 . S
C541 H525 0.959 . S
C541 H526 0.959 . S
C541 H527 0.961 . S
C541 C540 1.502 . S
C542 H528 0.960 . S
C542 H529 0.961 . S
C542 H530 0.959 . S
C542 C540 1.561 1_556 S
C543 C540 1.526 . S
C543 C544 1.396 . S
C543 C548 1.390 . S
C544 C538 1.465 . S
C544 C543 1.396 . S
C544 C545 1.399 . S
C545 H531 0.929 . S
C545 C544 1.399 . S
C545 C546 1.385 . S
C546 H532 0.931 . S
C546 C545 1.385 . S
C546 C547 1.389 . S
C547 C546 1.389 . S
C547 C548 1.387 . S
C548 H533 0.930 . S
C548 C543 1.390 . S
C548 C547 1.387 . S
H549 C561 0.930 . S
H550 C563 0.930 . S
H551 C564 0.930 . S
H552 C568 0.959 1_556 S
H553 C568 0.959 . S
H554 C568 0.961 . S
H555 C569 0.960 . S
H556 C569 0.961 . S
H557 C569 0.959 . S
H558 C572 0.929 . S
H559 C573 0.931 . S
H560 C575 0.930 . S
C561 H549 0.930 . S
C561 C562 1.399 . S
C561 C566 1.399 . S
C562 C561 1.399 . S
C562 C563 1.376 . S
C563 H550 0.930 . S
C563 C562 1.376 . S
C563 C564 1.388 . S
C564 H551 0.930 . S
C564 C563 1.388 . S
C564 C565 1.390 . S
C565 C564 1.390 . S
C565 C566 1.394 . S
C565 C571 1.465 . S
C566 C561 1.399 . S
C566 C565 1.394 . S
C566 C567 1.516 . S
C567 C566 1.516 . S
C567 C568 1.502 1_556 S
C567 C569 1.561 1_556 S
C567 C570 1.526 . S
C568 H552 0.959 1_554 S
C568 H553 0.959 . S
C568 H554 0.961 . S
C568 C567 1.502 1_554 S
C569 H555 0.960 . S
C569 H556 0.961 . S
C569 H557 0.959 . S
C569 C567 1.561 1_554 S
C570 C567 1.526 . S
C570 C571 1.396 . S
C570 C575 1.390 . S
C571 C565 1.465 . S
C571 C570 1.396 . S
C571 C572 1.399 . S
C572 H558 0.929 . S
C572 C571 1.399 . S
C572 C573 1.385 . S
C573 H559 0.931 . S
C573 C572 1.385 . S
C573 C574 1.389 . S
C574 C573 1.389 . S
C574 C575 1.387 . S
C575 H560 0.930 . S
C575 C570 1.390 . S
C575 C574 1.387 . S
H576 C588 0.930 . S
H577 C590 0.930 . S
H578 C591 0.930 . S
H579 C595 0.959 . S
H580 C595 0.959 . S
H581 C595 0.961 . S
H582 C596 0.960 . S
H583 C596 0.961 . S
H584 C596 0.959 . S
H585 C599 0.929 . S
H586 C600 0.931 . S
H587 C602 0.930 . S
C588 H576 0.930 . S
C588 C589 1.399 . S
C588 C593 1.399 . S
C589 C588 1.399 . S
C589 C590 1.376 . S
C590 H577 0.930 . S
C590 C589 1.376 . S
C590 C591 1.388 . S
C591 H578 0.930 . S
C591 C590 1.388 . S
C591 C592 1.390 . S
C592 C591 1.390 . S
C592 C593 1.394 . S
C592 C598 1.465 . S
C593 C588 1.399 . S
C593 C592 1.394 . S
C593 C594 1.516 . S
C594 C593 1.516 . S
C594 C595 1.502 . S
C594 C596 1.561 . S
C594 C597 1.526 . S
C595 H579 0.959 . S
C595 H580 0.959 . S
C595 H581 0.961 . S
C595 C594 1.502 . S
C596 H582 0.960 . S
C596 H583 0.961 . S
C596 H584 0.959 . S
C596 C594 1.561 . S
C597 C594 1.526 . S
C597 C598 1.396 . S
C597 C602 1.390 . S
C598 C592 1.465 . S
C598 C597 1.396 . S
C598 C599 1.399 . S
C599 H585 0.929 . S
C599 C598 1.399 . S
C599 C600 1.385 . S
C600 H586 0.931 . S
C600 C599 1.385 . S
C600 C601 1.389 . S
C601 C600 1.389 . S
C601 C602 1.387 . S
C602 H587 0.930 . S
C602 C597 1.390 . S
C602 C601 1.387 . S
H603 C615 0.930 . S
H604 C617 0.930 1_554 S
H605 C618 0.930 1_554 S
H606 C622 0.959 . S
H607 C622 0.959 . S
H608 C622 0.961 . S
H609 C623 0.960 . S
H610 C623 0.961 . S
H611 C623 0.959 . S
H612 C626 0.929 1_554 S
H613 C627 0.931 1_554 S
H614 C629 0.930 . S
C615 H603 0.930 . S
C615 C616 1.399 . S
C615 C620 1.399 . S
C616 C615 1.399 . S
C616 C617 1.376 . S
C617 H604 0.930 1_556 S
C617 C616 1.376 . S
C617 C618 1.388 . S
C618 H605 0.930 1_556 S
C618 C617 1.388 . S
C618 C619 1.390 . S
C619 C618 1.390 . S
C619 C620 1.394 . S
C619 C625 1.465 . S
C620 C615 1.399 . S
C620 C619 1.394 . S
C620 C621 1.516 . S
C621 C620 1.516 . S
C621 C622 1.502 . S
C621 C623 1.561 . S
C621 C624 1.526 . S
C622 H606 0.959 . S
C622 H607 0.959 . S
C622 H608 0.961 . S
C622 C621 1.502 . S
C623 H609 0.960 . S
C623 H610 0.961 . S
C623 H611 0.959 . S
C623 C621 1.561 . S
C624 C621 1.526 . S
C624 C625 1.396 . S
C624 C629 1.390 . S
C625 C619 1.465 . S
C625 C624 1.396 . S
C625 C626 1.399 . S
C626 H612 0.929 1_556 S
C626 C625 1.399 . S
C626 C627 1.385 . S
C627 H613 0.931 1_556 S
C627 C626 1.385 . S
C627 C628 1.389 . S
C628 C627 1.389 . S
C628 C629 1.387 . S
C629 H614 0.930 . S
C629 C624 1.390 . S
C629 C628 1.387 . S
H630 C642 0.930 . S
H631 C644 0.930 . S
H632 C645 0.930 . S
H633 C649 0.959 . S
H634 C649 0.959 . S
H635 C649 0.961 . S
H636 C650 0.960 . S
H637 C650 0.961 . S
H638 C650 0.959 . S
H639 C653 0.929 . S
H640 C654 0.931 . S
H641 C656 0.930 . S
C642 H630 0.930 . S
C642 C643 1.399 . S
C642 C647 1.399 . S
C643 C642 1.399 . S
C643 C644 1.376 . S
C644 H631 0.930 . S
C644 C643 1.376 . S
C644 C645 1.388 . S
C645 H632 0.930 . S
C645 C644 1.388 . S
C645 C646 1.390 . S
C646 C645 1.390 . S
C646 C647 1.394 . S
C646 C652 1.465 . S
C647 C642 1.399 . S
C647 C646 1.394 . S
C647 C648 1.516 . S
C648 C647 1.516 . S
C648 C649 1.502 . S
C648 C650 1.561 . S
C648 C651 1.526 . S
C649 H633 0.959 . S
C649 H634 0.959 . S
C649 H635 0.961 . S
C649 C648 1.502 . S
C650 H636 0.960 . S
C650 H637 0.961 . S
C650 H638 0.959 . S
C650 C648 1.561 . S
C651 C648 1.526 . S
C651 C652 1.396 . S
C651 C656 1.390 . S
C652 C646 1.465 . S
C652 C651 1.396 . S
C652 C653 1.399 . S
C653 H639 0.929 . S
C653 C652 1.399 . S
C653 C654 1.385 . S
C654 H640 0.931 . S
C654 C653 1.385 . S
C654 C655 1.389 . S
C655 C654 1.389 . S
C655 C656 1.387 . S
C656 H641 0.930 . S
C656 C651 1.390 . S
C656 C655 1.387 . S
H657 C669 0.930 . S
H658 C671 0.930 . S
H659 C672 0.930 . S
H660 C676 0.959 . S
H661 C676 0.959 . S
H662 C676 0.961 . S
H663 C677 0.960 . S
H664 C677 0.961 . S
H665 C677 0.959 . S
H666 C680 0.929 . S
H667 C681 0.931 . S
H668 C683 0.930 . S
C669 H657 0.930 . S
C669 C670 1.399 . S
C669 C674 1.399 . S
C670 C669 1.399 . S
C670 C671 1.376 . S
C671 H658 0.930 . S
C671 C670 1.376 . S
C671 C672 1.388 . S
C672 H659 0.930 . S
C672 C671 1.388 . S
C672 C673 1.390 . S
C673 C672 1.390 . S
C673 C674 1.394 . S
C673 C679 1.465 . S
C674 C669 1.399 . S
C674 C673 1.394 . S
C674 C675 1.516 . S
C675 C674 1.516 . S
C675 C676 1.502 . S
C675 C677 1.561 . S
C675 C678 1.526 . S
C676 H660 0.959 . S
C676 H661 0.959 . S
C676 H662 0.961 . S
C676 C675 1.502 . S
C677 H663 0.960 . S
C677 H664 0.961 . S
C677 H665 0.959 . S
C677 C675 1.561 . S
C678 C675 1.526 . S
C678 C679 1.396 . S
C678 C683 1.390 . S
C679 C673 1.465 . S
C679 C678 1.396 . S
C679 C680 1.399 . S
C680 H666 0.929 . S
C680 C679 1.399 . S
C680 C681 1.385 . S
C681 H667 0.931 . S
C681 C680 1.385 . S
C681 C682 1.389 . S
C682 C681 1.389 . S
C682 C683 1.387 . S
C683 H668 0.930 . S
C683 C678 1.390 . S
C683 C682 1.387 . S
H684 C696 0.930 . S
H685 C698 0.930 . S
H686 C699 0.930 . S
H687 C703 0.959 . S
H688 C703 0.959 . S
H689 C703 0.961 . S
H690 C704 0.960 . S
H691 C704 0.961 . S
H692 C704 0.959 . S
H693 C707 0.929 . S
H694 C708 0.931 . S
H695 C710 0.930 . S
C696 H684 0.930 . S
C696 C697 1.399 . S
C696 C701 1.399 . S
C697 C696 1.399 . S
C697 C698 1.376 . S
C698 H685 0.930 . S
C698 C697 1.376 . S
C698 C699 1.388 . S
C699 H686 0.930 . S
C699 C698 1.388 . S
C699 C700 1.390 . S
C700 C699 1.390 . S
C700 C701 1.394 . S
C700 C706 1.465 . S
C701 C696 1.399 . S
C701 C700 1.394 . S
C701 C702 1.516 . S
C702 C701 1.516 . S
C702 C703 1.502 . S
C702 C704 1.561 . S
C702 C705 1.526 . S
C703 H687 0.959 . S
C703 H688 0.959 . S
C703 H689 0.961 . S
C703 C702 1.502 . S
C704 H690 0.960 . S
C704 H691 0.961 . S
C704 H692 0.959 . S
C704 C702 1.561 . S
C705 C702 1.526 . S
C705 C706 1.396 . S
C705 C710 1.390 . S
C706 C700 1.465 . S
C706 C705 1.396 . S
C706 C707 1.399 . S
C707 H693 0.929 . S
C707 C706 1.399 . S
C707 C708 1.385 . S
C708 H694 0.931 . S
C708 C707 1.385 . S
C708 C709 1.389 . S
C709 C708 1.389 . S
C709 C710 1.387 . S
C710 H695 0.930 . S
C710 C705 1.390 . S
C710 C709 1.387 . S
H711 C723 0.930 . S
H712 C725 0.930 . S
H713 C726 0.930 . S
H714 C730 0.959 . S
H715 C730 0.959 . S
H716 C730 0.961 . S
H717 C731 0.960 . S
H718 C731 0.961 . S
H719 C731 0.959 . S
H720 C734 0.929 . S
H721 C735 0.931 . S
H722 C737 0.930 . S
C723 H711 0.930 . S
C723 C724 1.399 . S
C723 C728 1.399 . S
C724 C723 1.399 . S
C724 C725 1.376 . S
C725 H712 0.930 . S
C725 C724 1.376 . S
C725 C726 1.388 . S
C726 H713 0.930 . S
C726 C725 1.388 . S
C726 C727 1.390 . S
C727 C726 1.390 . S
C727 C728 1.394 . S
C727 C733 1.465 . S
C728 C723 1.399 . S
C728 C727 1.394 . S
C728 C729 1.516 . S
C729 C728 1.516 . S
C729 C730 1.502 . S
C729 C731 1.561 . S
C729 C732 1.526 . S
C730 H714 0.959 . S
C730 H715 0.959 . S
C730 H716 0.961 . S
C730 C729 1.502 . S
C731 H717 0.960 . S
C731 H718 0.961 . S
C731 H719 0.959 . S
C731 C729 1.561 . S
C732 C729 1.526 . S
C732 C733 1.396 . S
C732 C737 1.390 . S
C733 C727 1.465 . S
C733 C732 1.396 . S
C733 C734 1.399 . S
C734 H720 0.929 . S
C734 C733 1.399 . S
C734 C735 1.385 . S
C735 H721 0.931 . S
C735 C734 1.385 . S
C735 C736 1.389 . S
C736 C735 1.389 . S
C736 C737 1.387 . S
C737 H722 0.930 . S
C737 C732 1.390 . S
C737 C736 1.387 . S
H738 C750 0.930 . S
H739 C752 0.930 . S
H740 C753 0.930 . S
H741 C757 0.959 . S
H742 C757 0.959 . S
H743 C757 0.961 . S
H744 C758 0.960 . S
H745 C758 0.961 . S
H746 C758 0.959 . S
H747 C761 0.929 . S
H748 C762 0.931 . S
H749 C764 0.930 . S
C750 H738 0.930 . S
C750 C751 1.399 . S
C750 C755 1.399 . S
C751 C750 1.399 . S
C751 C752 1.376 . S
C752 H739 0.930 . S
C752 C751 1.376 . S
C752 C753 1.388 . S
C753 H740 0.930 . S
C753 C752 1.388 . S
C753 C754 1.390 . S
C754 C753 1.390 . S
C754 C755 1.394 . S
C754 C760 1.465 . S
C755 C750 1.399 . S
C755 C754 1.394 . S
C755 C756 1.516 . S
C756 C755 1.516 . S
C756 C757 1.502 . S
C756 C758 1.561 . S
C756 C759 1.526 . S
C757 H741 0.959 . S
C757 H742 0.959 . S
C757 H743 0.961 . S
C757 C756 1.502 . S
C758 H744 0.960 . S
C758 H745 0.961 . S
C758 H746 0.959 . S
C758 C756 1.561 . S
C759 C756 1.526 . S
C759 C760 1.396 . S
C759 C764 1.390 . S
C760 C754 1.465 . S
C760 C759 1.396 . S
C760 C761 1.399 . S
C761 H747 0.929 . S
C761 C760 1.399 . S
C761 C762 1.385 . S
C762 H748 0.931 . S
C762 C761 1.385 . S
C762 C763 1.389 . S
C763 C762 1.389 . S
C763 C764 1.387 . S
C764 H749 0.930 . S
C764 C759 1.390 . S
C764 C763 1.387 . S
H765 C777 0.930 . S
H766 C779 0.930 . S
H767 C780 0.930 . S
H768 C784 0.959 . S
H769 C784 0.959 . S
H770 C784 0.961 . S
H771 C785 0.960 . S
H772 C785 0.961 . S
H773 C785 0.959 . S
H774 C788 0.929 . S
H775 C789 0.931 . S
H776 C791 0.930 . S
C777 H765 0.930 . S
C777 C778 1.399 . S
C777 C782 1.399 . S
C778 C777 1.399 . S
C778 C779 1.376 . S
C779 H766 0.930 . S
C779 C778 1.376 . S
C779 C780 1.388 . S
C780 H767 0.930 . S
C780 C779 1.388 . S
C780 C781 1.390 . S
C781 C780 1.390 . S
C781 C782 1.394 . S
C781 C787 1.465 . S
C782 C777 1.399 . S
C782 C781 1.394 . S
C782 C783 1.516 . S
C783 C782 1.516 . S
C783 C784 1.502 . S
C783 C785 1.561 . S
C783 C786 1.526 . S
C784 H768 0.959 . S
C784 H769 0.959 . S
C784 H770 0.961 . S
C784 C783 1.502 . S
C785 H771 0.960 . S
C785 H772 0.961 . S
C785 H773 0.959 . S
C785 C783 1.561 . S
C786 C783 1.526 . S
C786 C787 1.396 . S
C786 C791 1.390 . S
C787 C781 1.465 . S
C787 C786 1.396 . S
C787 C788 1.399 . S
C788 H774 0.929 . S
C788 C787 1.399 . S
C788 C789 1.385 . S
C789 H775 0.931 . S
C789 C788 1.385 . S
C789 C790 1.389 . S
C790 C789 1.389 . S
C790 C791 1.387 . S
C791 H776 0.930 . S
C791 C786 1.390 . S
C791 C790 1.387 . S
H792 C804 0.930 . S
H793 C806 0.930 . S
H794 C807 0.930 . S
H795 C811 0.959 . S
H796 C811 0.959 . S
H797 C811 0.961 . S
H798 C812 0.960 . S
H799 C812 0.961 . S
H800 C812 0.959 . S
H801 C815 0.929 . S
H802 C816 0.931 . S
H803 C818 0.930 . S
C804 H792 0.930 . S
C804 C805 1.399 . S
C804 C809 1.399 . S
C805 C804 1.399 . S
C805 C806 1.376 . S
C806 H793 0.930 . S
C806 C805 1.376 . S
C806 C807 1.388 . S
C807 H794 0.930 . S
C807 C806 1.388 . S
C807 C808 1.390 . S
C808 C807 1.390 . S
C808 C809 1.394 . S
C808 C814 1.465 . S
C809 C804 1.399 . S
C809 C808 1.394 . S
C809 C810 1.516 . S
C810 C809 1.516 . S
C810 C811 1.502 . S
C810 C812 1.561 . S
C810 C813 1.526 . S
C811 H795 0.959 . S
C811 H796 0.959 . S
C811 H797 0.961 . S
C811 C810 1.502 . S
C812 H798 0.960 . S
C812 H799 0.961 . S
C812 H800 0.959 . S
C812 C810 1.561 . S
C813 C810 1.526 . S
C813 C814 1.396 . S
C813 C818 1.390 . S
C814 C808 1.465 . S
C814 C813 1.396 . S
C814 C815 1.399 . S
C815 H801 0.929 . S
C815 C814 1.399 . S
C815 C816 1.385 . S
C816 H802 0.931 . S
C816 C815 1.385 . S
C816 C817 1.389 . S
C817 C816 1.389 . S
C817 C818 1.387 . S
C818 H803 0.930 . S
C818 C813 1.390 . S
C818 C817 1.387 . S
H819 C831 0.930 . S
H820 C833 0.930 . S
H821 C834 0.930 . S
H822 C838 0.959 . S
H823 C838 0.959 . S
H824 C838 0.961 . S
H825 C839 0.960 . S
H826 C839 0.961 . S
H827 C839 0.959 . S
H828 C842 0.929 . S
H829 C843 0.931 . S
H830 C845 0.930 . S
C831 H819 0.930 . S
C831 C832 1.399 . S
C831 C836 1.399 . S
C832 C831 1.399 . S
C832 C833 1.376 . S
C833 H820 0.930 . S
C833 C832 1.376 . S
C833 C834 1.388 . S
C834 H821 0.930 . S
C834 C833 1.388 . S
C834 C835 1.390 . S
C835 C834 1.390 . S
C835 C836 1.394 . S
C835 C841 1.465 . S
C836 C831 1.399 . S
C836 C835 1.394 . S
C836 C837 1.516 . S
C837 C836 1.516 . S
C837 C838 1.502 . S
C837 C839 1.561 . S
C837 C840 1.526 . S
C838 H822 0.959 . S
C838 H823 0.959 . S
C838 H824 0.961 . S
C838 C837 1.502 . S
C839 H825 0.960 . S
C839 H826 0.961 . S
C839 H827 0.959 . S
C839 C837 1.561 . S
C840 C837 1.526 . S
C840 C841 1.396 . S
C840 C845 1.390 . S
C841 C835 1.465 . S
C841 C840 1.396 . S
C841 C842 1.399 . S
C842 H828 0.929 . S
C842 C841 1.399 . S
C842 C843 1.385 . S
C843 H829 0.931 . S
C843 C842 1.385 . S
C843 C844 1.389 . S
C844 C843 1.389 . S
C844 C845 1.387 . S
C845 H830 0.930 . S
C845 C840 1.390 . S
C845 C844 1.387 . S
H846 C858 0.930 . S
H847 C860 0.930 . S
H848 C861 0.930 . S
H849 C865 0.959 . S
H850 C865 0.959 . S
H851 C865 0.961 . S
H852 C866 0.960 . S
H853 C866 0.961 . S
H854 C866 0.959 . S
H855 C869 0.929 . S
H856 C870 0.931 . S
H857 C872 0.930 . S
C858 H846 0.930 . S
C858 C859 1.399 . S
C858 C863 1.399 . S
C859 C858 1.399 . S
C859 C860 1.376 . S
C860 H847 0.930 . S
C860 C859 1.376 . S
C860 C861 1.388 . S
C861 H848 0.930 . S
C861 C860 1.388 . S
C861 C862 1.390 . S
C862 C861 1.390 . S
C862 C863 1.394 . S
C862 C868 1.465 . S
C863 C858 1.399 . S
C863 C862 1.394 . S
C863 C864 1.516 . S
C864 C863 1.516 . S
C864 C865 1.502 . S
C864 C866 1.561 . S
C864 C867 1.526 . S
C865 H849 0.959 . S
C865 H850 0.959 . S
C865 H851 0.961 . S
C865 C864 1.502 . S
C866 H852 0.960 . S
C866 H853 0.961 . S
C866 H854 0.959 . S
C866 C864 1.561 . S
C867 C864 1.526 . S
C867 C868 1.396 . S
C867 C872 1.390 . S
C868 C862 1.465 . S
C868 C867 1.396 . S
C868 C869 1.399 . S
C869 H855 0.929 . S
C869 C868 1.399 . S
C869 C870 1.385 . S
C870 H856 0.931 . S
C870 C869 1.385 . S
C870 C871 1.389 . S
C871 C870 1.389 . S
C871 C872 1.387 . S
C872 H857 0.930 . S
C872 C867 1.390 . S
C872 C871 1.387 . S
H873 C885 0.930 . S
H874 C887 0.930 . S
H875 C888 0.930 . S
H876 C892 0.959 . S
H877 C892 0.959 . S
H878 C892 0.961 . S
H879 C893 0.960 . S
H880 C893 0.961 . S
H881 C893 0.959 . S
H882 C896 0.929 . S
H883 C897 0.931 . S
H884 C899 0.930 . S
C885 H873 0.930 . S
C885 C886 1.399 . S
C885 C890 1.399 . S
C886 C885 1.399 . S
C886 C887 1.376 . S
C887 H874 0.930 . S
C887 C886 1.376 . S
C887 C888 1.388 . S
C888 H875 0.930 . S
C888 C887 1.388 . S
C888 C889 1.390 . S
C889 C888 1.390 . S
C889 C890 1.394 . S
C889 C895 1.465 . S
C890 C885 1.399 . S
C890 C889 1.394 . S
C890 C891 1.516 . S
C891 C890 1.516 . S
C891 C892 1.502 . S
C891 C893 1.561 . S
C891 C894 1.526 . S
C892 H876 0.959 . S
C892 H877 0.959 . S
C892 H878 0.961 . S
C892 C891 1.502 . S
C893 H879 0.960 . S
C893 H880 0.961 . S
C893 H881 0.959 . S
C893 C891 1.561 . S
C894 C891 1.526 . S
C894 C895 1.396 . S
C894 C899 1.390 . S
C895 C889 1.465 . S
C895 C894 1.396 . S
C895 C896 1.399 . S
C896 H882 0.929 . S
C896 C895 1.399 . S
C896 C897 1.385 . S
C897 H883 0.931 . S
C897 C896 1.385 . S
C897 C898 1.389 . S
C898 C897 1.389 . S
C898 C899 1.387 . S
C899 H884 0.930 . S
C899 C894 1.390 . S
C899 C898 1.387 . S
H900 C912 0.930 . S
H901 C914 0.930 . S
H902 C915 0.930 . S
H903 C919 0.959 . S
H904 C919 0.959 . S
H905 C919 0.961 . S
H906 C920 0.960 . S
H907 C920 0.961 . S
H908 C920 0.959 . S
H909 C923 0.929 . S
H910 C924 0.931 . S
H911 C926 0.930 . S
C912 H900 0.930 . S
C912 C913 1.399 . S
C912 C917 1.399 . S
C913 C912 1.399 . S
C913 C914 1.376 . S
C914 H901 0.930 . S
C914 C913 1.376 . S
C914 C915 1.388 . S
C915 H902 0.930 . S
C915 C914 1.388 . S
C915 C916 1.390 . S
C916 C915 1.390 . S
C916 C917 1.394 . S
C916 C922 1.465 . S
C917 C912 1.399 . S
C917 C916 1.394 . S
C917 C918 1.516 . S
C918 C917 1.516 . S
C918 C919 1.502 . S
C918 C920 1.561 . S
C918 C921 1.526 . S
C919 H903 0.959 . S
C919 H904 0.959 . S
C919 H905 0.961 . S
C919 C918 1.502 . S
C920 H906 0.960 . S
C920 H907 0.961 . S
C920 H908 0.959 . S
C920 C918 1.561 . S
C921 C918 1.526 . S
C921 C922 1.396 . S
C921 C926 1.390 . S
C922 C916 1.465 . S
C922 C921 1.396 . S
C922 C923 1.399 . S
C923 H909 0.929 . S
C923 C922 1.399 . S
C923 C924 1.385 . S
C924 H910 0.931 . S
C924 C923 1.385 . S
C924 C925 1.389 . S
C925 C924 1.389 . S
C925 C926 1.387 . S
C926 H911 0.930 . S
C926 C921 1.390 . S
C926 C925 1.387 . S
H927 C939 0.930 . S
H928 C941 0.930 . S
H929 C942 0.930 . S
H930 C946 0.959 . S
H931 C946 0.959 . S
H932 C946 0.961 . S
H933 C947 0.960 . S
H934 C947 0.961 . S
H935 C947 0.959 . S
H936 C950 0.929 . S
H937 C951 0.931 . S
H938 C953 0.930 . S
C939 H927 0.930 . S
C939 C940 1.399 . S
C939 C944 1.399 . S
C940 C939 1.399 . S
C940 C941 1.376 . S
C941 H928 0.930 . S
C941 C940 1.376 . S
C941 C942 1.388 . S
C942 H929 0.930 . S
C942 C941 1.388 . S
C942 C943 1.390 . S
C943 C942 1.390 . S
C943 C944 1.394 . S
C943 C949 1.465 . S
C944 C939 1.399 . S
C944 C943 1.394 . S
C944 C945 1.516 . S
C945 C944 1.516 . S
C945 C946 1.502 . S
C945 C947 1.561 . S
C945 C948 1.526 . S
C946 H930 0.959 . S
C946 H931 0.959 . S
C946 H932 0.961 . S
C946 C945 1.502 . S
C947 H933 0.960 . S
C947 H934 0.961 . S
C947 H935 0.959 . S
C947 C945 1.561 . S
C948 C945 1.526 . S
C948 C949 1.396 . S
C948 C953 1.390 . S
C949 C943 1.465 . S
C949 C948 1.396 . S
C949 C950 1.399 . S
C950 H936 0.929 . S
C950 C949 1.399 . S
C950 C951 1.385 . S
C951 H937 0.931 . S
C951 C950 1.385 . S
C951 C952 1.389 . S
C952 C951 1.389 . S
C952 C953 1.387 . S
C953 H938 0.930 . S
C953 C948 1.390 . S
C953 C952 1.387 . S
H954 C966 0.930 . S
H955 C968 0.930 . S
H956 C969 0.930 . S
H957 C973 0.959 . S
H958 C973 0.959 1_655 S
H959 C973 0.961 . S
H960 C974 0.960 1_455 S
H961 C974 0.961 . S
H962 C974 0.959 . S
H963 C977 0.929 . S
H964 C978 0.931 . S
H965 C980 0.930 . S
C966 H954 0.930 . S
C966 C967 1.399 . S
C966 C971 1.399 . S
C967 C966 1.399 . S
C967 C968 1.376 . S
C968 H955 0.930 . S
C968 C967 1.376 . S
C968 C969 1.388 . S
C969 H956 0.930 . S
C969 C968 1.388 . S
C969 C970 1.390 . S
C970 C969 1.390 . S
C970 C971 1.394 . S
C970 C976 1.465 1_454 S
C971 C966 1.399 . S
C971 C970 1.394 . S
C971 C972 1.516 1_455 S
C972 C971 1.516 1_655 S
C972 C973 1.502 1_654 S
C972 C974 1.561 . S
C972 C975 1.526 1_554 S
C973 H957 0.959 . S
C973 H958 0.959 1_455 S
C973 H959 0.961 . S
C973 C972 1.502 1_456 S
C974 H960 0.960 1_655 S
C974 H961 0.961 . S
C974 H962 0.959 . S
C974 C972 1.561 . S
C975 C972 1.526 1_556 S
C975 C976 1.396 . S
C975 C980 1.390 . S
C976 C970 1.465 1_656 S
C976 C975 1.396 . S
C976 C977 1.399 . S
C977 H963 0.929 . S
C977 C976 1.399 . S
C977 C978 1.385 . S
C978 H964 0.931 . S
C978 C977 1.385 . S
C978 C979 1.389 . S
C979 C978 1.389 . S
C979 C980 1.387 . S
C980 H965 0.930 . S
C980 C975 1.390 . S
C980 C979 1.387 . S
H981 C993 0.930 . S
H982 C995 0.930 . S
H983 C996 0.930 . S
H984 C1000 0.959 . S
H985 C1000 0.959 . S
H986 C1000 0.961 . S
H987 C1001 0.960 . S
H988 C1001 0.961 . S
H989 C1001 0.959 . S
H990 C1004 0.929 . S
H991 C1005 0.931 . S
H992 C1007 0.930 1_556 S
C993 H981 0.930 . S
C993 C994 1.399 . S
C993 C998 1.399 . S
C994 C993 1.399 . S
C994 C995 1.376 1_556 S
C995 H982 0.930 . S
C995 C994 1.376 1_554 S
C995 C996 1.388 . S
C996 H983 0.930 . S
C996 C995 1.388 . S
C996 C997 1.390 . S
C997 C996 1.390 . S
C997 C998 1.394 1_554 S
C997 C1003 1.465 . S
C998 C993 1.399 . S
C998 C997 1.394 1_556 S
C998 C999 1.516 . S
C999 C998 1.516 . S
C999 C1000 1.502 . S
C999 C1001 1.561 . S
C999 C1002 1.526 . S
C1000 H984 0.959 . S
C1000 H985 0.959 . S
C1000 H986 0.961 . S
C1000 C999 1.502 . S
C1001 H987 0.960 . S
C1001 H988 0.961 . S
C1001 H989 0.959 . S
C1001 C999 1.561 . S
C1002 C999 1.526 . S
C1002 C1003 1.396 1_556 S
C1002 C1007 1.390 1_556 S
C1003 C997 1.465 . S
C1003 C1002 1.396 1_554 S
C1003 C1004 1.399 . S
C1004 H990 0.929 . S
C1004 C1003 1.399 . S
C1004 C1005 1.385 . S
C1005 H991 0.931 . S
C1005 C1004 1.385 . S
C1005 C1006 1.389 . S
C1006 C1005 1.389 . S
C1006 C1007 1.387 . S
C1007 H992 0.930 1_554 S
C1007 C1002 1.390 1_554 S
C1007 C1006 1.387 . S
H1008 C1020 0.930 . S
H1009 C1022 0.926 1_556 S
H1010 C1023 0.930 . S
H1011 C1027 0.959 . S
H1012 C1027 0.959 . S
H1013 C1027 0.961 1_565 S
H1014 C1028 0.960 . S
H1015 C1028 0.961 . S
H1016 C1028 0.959 . S
H1017 C1031 0.929 . S
H1018 C1032 0.931 . S
H1019 C1034 0.930 1_554 S
C1020 H1008 0.930 . S
C1020 C1021 1.399 . S
C1020 C1025 1.399 . S
C1021 C1020 1.399 . S
C1021 C1022 1.387 . S
C1022 H1009 0.926 1_554 S
C1022 C1021 1.387 . S
C1022 C1023 1.382 1_554 S
C1023 H1010 0.930 . S
C1023 C1022 1.382 1_556 S
C1023 C1024 1.390 . S
C1024 C1023 1.390 . S
C1024 C1025 1.394 1_556 S
C1024 C1030 1.465 1_565 S
C1025 C1020 1.399 . S
C1025 C1024 1.394 1_554 S
C1025 C1026 1.516 1_565 S
C1026 C1025 1.516 1_545 S
C1026 C1027 1.502 . S
C1026 C1028 1.561 . S
C1026 C1029 1.526 . S
C1027 H1011 0.959 . S
C1027 H1012 0.959 . S
C1027 H1013 0.961 1_545 S
C1027 C1026 1.502 . S
C1028 H1014 0.960 . S
C1028 H1015 0.961 . S
C1028 H1016 0.959 . S
C1028 C1026 1.561 . S
C1029 C1026 1.526 . S
C1029 C1030 1.396 1_554 S
C1029 C1034 1.390 1_554 S
C1030 C1024 1.465 1_545 S
C1030 C1029 1.396 1_556 S
C1030 C1031 1.399 . S
C1031 H1017 0.929 . S
C1031 C1030 1.399 . S
C1031 C1032 1.385 . S
C1032 H1018 0.931 . S
C1032 C1031 1.385 . S
C1032 C1033 1.389 . S
C1033 C1032 1.389 . S
C1033 C1034 1.387 . S
C1034 H1019 0.930 1_556 S
C1034 C1029 1.390 1_556 S
C1034 C1033 1.387 . S
H1035 C1047 0.930 . S
H1036 C1049 0.930 . S
H1037 C1050 0.930 . S
H1038 C1054 0.959 . S
H1039 C1054 0.959 . S
H1040 C1054 0.961 1_655 S
H1041 C1055 0.960 . S
H1042 C1055 0.961 1_455 S
H1043 C1055 0.959 . S
H1044 C1058 0.929 . S
H1045 C1059 0.931 . S
H1046 C1061 0.930 . S
C1047 H1035 0.930 . S
C1047 C1048 1.399 . S
C1047 C1052 1.399 . S
C1048 C1047 1.399 . S
C1048 C1049 1.376 . S
C1049 H1036 0.930 . S
C1049 C1048 1.376 . S
C1049 C1050 1.388 . S
C1050 H1037 0.930 . S
C1050 C1049 1.388 . S
C1050 C1051 1.390 . S
C1051 C1050 1.390 . S
C1051 C1052 1.394 . S
C1051 C1057 1.465 1_656 S
C1052 C1047 1.399 . S
C1052 C1051 1.394 . S
C1052 C1053 1.547 1_556 S
C1053 C1052 1.547 1_554 S
C1053 C1054 1.521 1_654 S
C1053 C1055 1.607 . S
C1053 C1056 1.434 1_655 S
C1054 H1038 0.959 . S
C1054 H1039 0.959 . S
C1054 H1040 0.961 1_455 S
C1054 C1053 1.521 1_456 S
C1055 H1041 0.960 . S
C1055 H1042 0.961 1_655 S
C1055 H1043 0.959 . S
C1055 C1053 1.607 . S
C1056 C1053 1.434 1_455 S
C1056 C1057 1.396 . S
C1056 C1061 1.390 . S
C1057 C1051 1.465 1_454 S
C1057 C1056 1.396 . S
C1057 C1058 1.399 . S
C1058 H1044 0.929 . S
C1058 C1057 1.399 . S
C1058 C1059 1.385 . S
C1059 H1045 0.931 . S
C1059 C1058 1.385 . S
C1059 C1060 1.389 . S
C1060 C1059 1.389 . S
C1060 C1061 1.387 . S
C1061 H1046 0.930 . S
C1061 C1056 1.390 . S
C1061 C1060 1.387 . S
H1062 C1074 0.930 . S
H1063 C1076 0.930 . S
H1064 C1077 0.930 . S
H1065 C1081 0.959 . S
H1066 C1081 0.959 . S
H1067 C1081 0.961 . S
H1068 C1082 0.960 . S
H1069 C1082 0.961 . S
H1070 C1082 0.959 . S
H1071 C1085 0.929 . S
H1072 C1086 0.931 . S
H1073 C1088 0.930 . S
C1074 H1062 0.930 . S
C1074 C1075 1.399 . S
C1074 C1079 1.399 . S
C1075 C1074 1.399 . S
C1075 C1076 1.376 . S
C1076 H1063 0.930 . S
C1076 C1075 1.376 . S
C1076 C1077 1.388 . S
C1077 H1064 0.930 . S
C1077 C1076 1.388 . S
C1077 C1078 1.390 . S
C1078 C1077 1.390 . S
C1078 C1079 1.394 . S
C1078 C1084 1.465 1_556 S
C1079 C1074 1.399 . S
C1079 C1078 1.394 . S
C1079 C1080 1.516 . S
C1080 C1079 1.516 . S
C1080 C1081 1.502 1_556 S
C1080 C1082 1.561 . S
C1080 C1083 1.526 1_556 S
C1081 H1065 0.959 . S
C1081 H1066 0.959 . S
C1081 H1067 0.961 . S
C1081 C1080 1.502 1_554 S
C1082 H1068 0.960 . S
C1082 H1069 0.961 . S
C1082 H1070 0.959 . S
C1082 C1080 1.561 . S
C1083 C1080 1.526 1_554 S
C1083 C1084 1.396 . S
C1083 C1088 1.390 . S
C1084 C1078 1.465 1_554 S
C1084 C1083 1.396 . S
C1084 C1085 1.399 . S
C1085 H1071 0.929 . S
C1085 C1084 1.399 . S
C1085 C1086 1.385 . S
C1086 H1072 0.931 . S
C1086 C1085 1.385 . S
C1086 C1087 1.389 . S
C1087 C1086 1.389 . S
C1087 C1088 1.387 . S
C1088 H1073 0.930 . S
C1088 C1083 1.390 . S
C1088 C1087 1.387 . S
H1089 C1101 0.930 . S
H1090 C1103 0.930 . S
H1091 C1104 0.930 . S
H1092 C1108 0.959 . S
H1093 C1108 0.959 . S
H1094 C1108 0.961 . S
H1095 C1109 0.960 . S
H1096 C1109 0.961 . S
H1097 C1109 0.959 . S
H1098 C1112 0.929 . S
H1099 C1113 0.931 . S
H1100 C1115 0.940 . S
C1101 H1089 0.930 . S
C1101 C1102 1.399 . S
C1101 C1106 1.399 . S
C1102 C1101 1.399 . S
C1102 C1103 1.376 1_556 S
C1103 H1090 0.930 . S
C1103 C1102 1.376 1_554 S
C1103 C1104 1.388 . S
C1104 H1091 0.930 . S
C1104 C1103 1.388 . S
C1104 C1105 1.390 . S
C1105 C1104 1.390 . S
C1105 C1106 1.394 1_554 S
C1105 C1111 1.465 1_545 S
C1106 C1101 1.399 . S
C1106 C1105 1.394 1_556 S
C1106 C1107 1.516 1_545 S
C1107 C1106 1.516 1_565 S
C1107 C1108 1.502 . S
C1107 C1109 1.561 . S
C1107 C1110 1.526 . S
C1108 H1092 0.959 . S
C1108 H1093 0.959 . S
C1108 H1094 0.961 . S
C1108 C1107 1.502 . S
C1109 H1095 0.960 . S
C1109 H1096 0.961 . S
C1109 H1097 0.959 . S
C1109 C1107 1.561 . S
C1110 C1107 1.526 . S
C1110 C1111 1.396 1_556 S
C1110 C1115 1.391 . S
C1111 C1105 1.465 1_565 S
C1111 C1110 1.396 1_554 S
C1111 C1112 1.399 . S
C1112 H1098 0.929 . S
C1112 C1111 1.399 . S
C1112 C1113 1.385 . S
C1113 H1099 0.931 . S
C1113 C1112 1.385 . S
C1113 C1114 1.389 . S
C1114 C1113 1.389 . S
C1114 C1115 1.375 1_554 S
C1115 H1100 0.940 . S
C1115 C1110 1.391 . S
C1115 C1114 1.375 1_556 S
H1116 C1128 0.930 . S
H1117 C1130 0.930 . S
H1118 C1131 0.930 . S
H1119 C1135 0.959 . S
H1120 C1135 0.959 . S
H1121 C1135 0.961 . S
H1122 C1136 0.960 . S
H1123 C1136 0.961 . S
H1124 C1136 0.959 . S
H1125 C1139 0.929 . S
H1126 C1140 0.931 . S
H1127 C1142 0.930 . S
C1128 H1116 0.930 . S
C1128 C1129 1.399 . S
C1128 C1133 1.399 . S
C1129 C1128 1.399 . S
C1129 C1130 1.376 . S
C1130 H1117 0.930 . S
C1130 C1129 1.376 . S
C1130 C1131 1.388 . S
C1131 H1118 0.930 . S
C1131 C1130 1.388 . S
C1131 C1132 1.390 . S
C1132 C1131 1.390 . S
C1132 C1133 1.394 . S
C1132 C1138 1.465 . S
C1133 C1128 1.399 . S
C1133 C1132 1.394 . S
C1133 C1134 1.516 . S
C1134 C1133 1.516 . S
C1134 C1135 1.502 . S
C1134 C1136 1.561 . S
C1134 C1137 1.526 . S
C1135 H1119 0.959 . S
C1135 H1120 0.959 . S
C1135 H1121 0.961 . S
C1135 C1134 1.502 . S
C1136 H1122 0.960 . S
C1136 H1123 0.961 . S
C1136 H1124 0.959 . S
C1136 C1134 1.561 . S
C1137 C1134 1.526 . S
C1137 C1138 1.396 . S
C1137 C1142 1.390 . S
C1138 C1132 1.465 . S
C1138 C1137 1.396 . S
C1138 C1139 1.399 . S
C1139 H1125 0.929 . S
C1139 C1138 1.399 . S
C1139 C1140 1.385 . S
C1140 H1126 0.931 . S
C1140 C1139 1.385 . S
C1140 C1141 1.389 . S
C1141 C1140 1.389 . S
C1141 C1142 1.387 . S
C1142 H1127 0.930 . S
C1142 C1137 1.390 . S
C1142 C1141 1.387 . S
H1143 C1155 0.930 . S
H1144 C1157 0.930 . S
H1145 C1158 0.930 . S
H1146 C1162 0.959 . S
H1147 C1162 0.959 . S
H1148 C1162 0.961 . S
H1149 C1163 0.960 . S
H1150 C1163 0.961 . S
H1151 C1163 0.959 . S
H1152 C1166 0.929 . S
H1153 C1167 0.931 . S
H1154 C1169 0.930 . S
C1155 H1143 0.930 . S
C1155 C1156 1.399 . S
C1155 C1160 1.399 . S
C1156 C1155 1.399 . S
C1156 C1157 1.376 . S
C1157 H1144 0.930 . S
C1157 C1156 1.376 . S
C1157 C1158 1.388 . S
C1158 H1145 0.930 . S
C1158 C1157 1.388 . S
C1158 C1159 1.390 . S
C1159 C1158 1.390 . S
C1159 C1160 1.394 . S
C1159 C1165 1.465 . S
C1160 C1155 1.399 . S
C1160 C1159 1.394 . S
C1160 C1161 1.516 . S
C1161 C1160 1.516 . S
C1161 C1162 1.502 . S
C1161 C1163 1.561 . S
C1161 C1164 1.526 . S
C1162 H1146 0.959 . S
C1162 H1147 0.959 . S
C1162 H1148 0.961 . S
C1162 C1161 1.502 . S
C1163 H1149 0.960 . S
C1163 H1150 0.961 . S
C1163 H1151 0.959 . S
C1163 C1161 1.561 . S
C1164 C1161 1.526 . S
C1164 C1165 1.396 . S
C1164 C1169 1.390 . S
C1165 C1159 1.465 . S
C1165 C1164 1.396 . S
C1165 C1166 1.399 . S
C1166 H1152 0.929 . S
C1166 C1165 1.399 . S
C1166 C1167 1.385 . S
C1167 H1153 0.931 . S
C1167 C1166 1.385 . S
C1167 C1168 1.389 . S
C1168 C1167 1.389 . S
C1168 C1169 1.387 . S
C1169 H1154 0.930 . S
C1169 C1164 1.390 . S
C1169 C1168 1.387 . S
H1170 C1182 0.930 . S
H1171 C1184 0.930 . S
H1172 C1185 0.930 . S
H1173 C1189 0.959 . S
H1174 C1189 0.959 . S
H1175 C1189 0.961 . S
H1176 C1190 0.960 . S
H1177 C1190 0.961 . S
H1178 C1190 0.959 . S
H1179 C1193 0.929 . S
H1180 C1194 0.931 . S
H1181 C1196 0.930 . S
C1182 H1170 0.930 . S
C1182 C1183 1.399 . S
C1182 C1187 1.399 . S
C1183 C1182 1.399 . S
C1183 C1184 1.376 . S
C1184 H1171 0.930 . S
C1184 C1183 1.376 . S
C1184 C1185 1.388 . S
C1185 H1172 0.930 . S
C1185 C1184 1.388 . S
C1185 C1186 1.390 . S
C1186 C1185 1.390 . S
C1186 C1187 1.394 . S
C1186 C1192 1.465 . S
C1187 C1182 1.399 . S
C1187 C1186 1.394 . S
C1187 C1188 1.516 . S
C1188 C1187 1.516 . S
C1188 C1189 1.502 . S
C1188 C1190 1.561 . S
C1188 C1191 1.526 . S
C1189 H1173 0.959 . S
C1189 H1174 0.959 . S
C1189 H1175 0.961 . S
C1189 C1188 1.502 . S
C1190 H1176 0.960 . S
C1190 H1177 0.961 . S
C1190 H1178 0.959 . S
C1190 C1188 1.561 . S
C1191 C1188 1.526 . S
C1191 C1192 1.396 . S
C1191 C1196 1.390 . S
C1192 C1186 1.465 . S
C1192 C1191 1.396 . S
C1192 C1193 1.399 . S
C1193 H1179 0.929 . S
C1193 C1192 1.399 . S
C1193 C1194 1.385 . S
C1194 H1180 0.931 . S
C1194 C1193 1.385 . S
C1194 C1195 1.389 . S
C1195 C1194 1.389 . S
C1195 C1196 1.387 . S
C1196 H1181 0.930 . S
C1196 C1191 1.390 . S
C1196 C1195 1.387 . S
H1197 C1209 0.930 . S
H1198 C1211 0.930 . S
H1199 C1212 0.930 . S
H1200 C1216 0.959 . S
H1201 C1216 0.959 . S
H1202 C1216 0.961 . S
H1203 C1217 0.960 . S
H1204 C1217 0.961 . S
H1205 C1217 0.959 . S
H1206 C1220 0.929 . S
H1207 C1221 0.931 . S
H1208 C1223 0.930 . S
C1209 H1197 0.930 . S
C1209 C1210 1.399 . S
C1209 C1214 1.399 . S
C1210 C1209 1.399 . S
C1210 C1211 1.376 . S
C1211 H1198 0.930 . S
C1211 C1210 1.376 . S
C1211 C1212 1.388 . S
C1212 H1199 0.930 . S
C1212 C1211 1.388 . S
C1212 C1213 1.390 . S
C1213 C1212 1.390 . S
C1213 C1214 1.394 . S
C1213 C1219 1.465 . S
C1214 C1209 1.399 . S
C1214 C1213 1.394 . S
C1214 C1215 1.516 . S
C1215 C1214 1.516 . S
C1215 C1216 1.502 . S
C1215 C1217 1.561 . S
C1215 C1218 1.526 . S
C1216 H1200 0.959 . S
C1216 H1201 0.959 . S
C1216 H1202 0.961 . S
C1216 C1215 1.502 . S
C1217 H1203 0.960 . S
C1217 H1204 0.961 . S
C1217 H1205 0.959 . S
C1217 C1215 1.561 . S
C1218 C1215 1.526 . S
C1218 C1219 1.396 . S
C1218 C1223 1.390 . S
C1219 C1213 1.465 . S
C1219 C1218 1.396 . S
C1219 C1220 1.399 . S
C1220 H1206 0.929 . S
C1220 C1219 1.399 . S
C1220 C1221 1.385 . S
C1221 H1207 0.931 . S
C1221 C1220 1.385 . S
C1221 C1222 1.389 . S
C1222 C1221 1.389 . S
C1222 C1223 1.387 . S
C1223 H1208 0.930 . S
C1223 C1218 1.390 . S
C1223 C1222 1.387 . S
H1224 C1236 0.930 . S
H1225 C1238 0.930 . S
H1226 C1239 0.930 . S
H1227 C1243 0.959 . S
H1228 C1243 0.959 . S
H1229 C1243 0.961 . S
H1230 C1244 0.960 . S
H1231 C1244 0.961 . S
H1232 C1244 0.959 . S
H1233 C1247 0.929 . S
H1234 C1248 0.931 . S
H1235 C1250 0.930 . S
C1236 H1224 0.930 . S
C1236 C1237 1.399 . S
C1236 C1241 1.399 . S
C1237 C1236 1.399 . S
C1237 C1238 1.376 . S
C1238 H1225 0.930 . S
C1238 C1237 1.376 . S
C1238 C1239 1.388 . S
C1239 H1226 0.930 . S
C1239 C1238 1.388 . S
C1239 C1240 1.390 . S
C1240 C1239 1.390 . S
C1240 C1241 1.394 . S
C1240 C1246 1.465 . S
C1241 C1236 1.399 . S
C1241 C1240 1.394 . S
C1241 C1242 1.516 . S
C1242 C1241 1.516 . S
C1242 C1243 1.502 . S
C1242 C1244 1.561 . S
C1242 C1245 1.526 . S
C1243 H1227 0.959 . S
C1243 H1228 0.959 . S
C1243 H1229 0.961 . S
C1243 C1242 1.502 . S
C1244 H1230 0.960 . S
C1244 H1231 0.961 . S
C1244 H1232 0.959 . S
C1244 C1242 1.561 . S
C1245 C1242 1.526 . S
C1245 C1246 1.396 . S
C1245 C1250 1.390 . S
C1246 C1240 1.465 . S
C1246 C1245 1.396 . S
C1246 C1247 1.399 . S
C1247 H1233 0.929 . S
C1247 C1246 1.399 . S
C1247 C1248 1.385 . S
C1248 H1234 0.931 . S
C1248 C1247 1.385 . S
C1248 C1249 1.389 . S
C1249 C1248 1.389 . S
C1249 C1250 1.387 . S
C1250 H1235 0.930 . S
C1250 C1245 1.390 . S
C1250 C1249 1.387 . S
H1251 C1263 0.930 . S
H1252 C1265 0.930 . S
H1253 C1266 0.930 . S
H1254 C1270 0.959 . S
H1255 C1270 0.959 . S
H1256 C1270 0.961 . S
H1257 C1271 0.960 . S
H1258 C1271 0.961 . S
H1259 C1271 0.959 . S
H1260 C1274 0.929 . S
H1261 C1275 0.931 . S
H1262 C1277 0.930 . S
C1263 H1251 0.930 . S
C1263 C1264 1.399 . S
C1263 C1268 1.399 . S
C1264 C1263 1.399 . S
C1264 C1265 1.376 . S
C1265 H1252 0.930 . S
C1265 C1264 1.376 . S
C1265 C1266 1.388 . S
C1266 H1253 0.930 . S
C1266 C1265 1.388 . S
C1266 C1267 1.390 . S
C1267 C1266 1.390 . S
C1267 C1268 1.394 . S
C1267 C1273 1.465 . S
C1268 C1263 1.399 . S
C1268 C1267 1.394 . S
C1268 C1269 1.516 . S
C1269 C1268 1.516 . S
C1269 C1270 1.502 . S
C1269 C1271 1.561 . S
C1269 C1272 1.526 . S
C1270 H1254 0.959 . S
C1270 H1255 0.959 . S
C1270 H1256 0.961 . S
C1270 C1269 1.502 . S
C1271 H1257 0.960 . S
C1271 H1258 0.961 . S
C1271 H1259 0.959 . S
C1271 C1269 1.561 . S
C1272 C1269 1.526 . S
C1272 C1273 1.396 . S
C1272 C1277 1.390 . S
C1273 C1267 1.465 . S
C1273 C1272 1.396 . S
C1273 C1274 1.399 . S
C1274 H1260 0.929 . S
C1274 C1273 1.399 . S
C1274 C1275 1.385 . S
C1275 H1261 0.931 . S
C1275 C1274 1.385 . S
C1275 C1276 1.389 . S
C1276 C1275 1.389 . S
C1276 C1277 1.387 . S
C1277 H1262 0.930 . S
C1277 C1272 1.390 . S
C1277 C1276 1.387 . S
H1278 C1290 0.930 . S
H1279 C1292 0.930 . S
H1280 C1293 0.930 . S
H1281 C1297 0.959 . S
H1282 C1297 0.959 . S
H1283 C1297 0.961 . S
H1284 C1298 0.960 . S
H1285 C1298 0.961 . S
H1286 C1298 0.959 . S
H1287 C1301 0.929 . S
H1288 C1302 0.931 . S
H1289 C1304 0.930 . S
C1290 H1278 0.930 . S
C1290 C1291 1.399 . S
C1290 C1295 1.399 . S
C1291 C1290 1.399 . S
C1291 C1292 1.376 . S
C1292 H1279 0.930 . S
C1292 C1291 1.376 . S
C1292 C1293 1.388 . S
C1293 H1280 0.930 . S
C1293 C1292 1.388 . S
C1293 C1294 1.390 . S
C1294 C1293 1.390 . S
C1294 C1295 1.394 . S
C1294 C1300 1.465 . S
C1295 C1290 1.399 . S
C1295 C1294 1.394 . S
C1295 C1296 1.516 . S
C1296 C1295 1.516 . S
C1296 C1297 1.502 . S
C1296 C1298 1.561 . S
C1296 C1299 1.526 . S
C1297 H1281 0.959 . S
C1297 H1282 0.959 . S
C1297 H1283 0.961 . S
C1297 C1296 1.502 . S
C1298 H1284 0.960 . S
C1298 H1285 0.961 . S
C1298 H1286 0.959 . S
C1298 C1296 1.561 . S
C1299 C1296 1.526 . S
C1299 C1300 1.396 . S
C1299 C1304 1.390 . S
C1300 C1294 1.465 . S
C1300 C1299 1.396 . S
C1300 C1301 1.399 . S
C1301 H1287 0.929 . S
C1301 C1300 1.399 . S
C1301 C1302 1.385 . S
C1302 H1288 0.931 . S
C1302 C1301 1.385 . S
C1302 C1303 1.389 . S
C1303 C1302 1.389 . S
C1303 C1304 1.387 . S
C1304 H1289 0.930 . S
C1304 C1299 1.390 . S
C1304 C1303 1.387 . S
H1305 C1317 0.930 . S
H1306 C1319 0.930 . S
H1307 C1320 0.930 . S
H1308 C1324 0.959 . S
H1309 C1324 0.959 . S
H1310 C1324 0.961 . S
H1311 C1325 0.960 . S
H1312 C1325 0.961 . S
H1313 C1325 0.959 . S
H1314 C1328 0.929 . S
H1315 C1329 0.931 . S
H1316 C1331 0.930 . S
C1317 H1305 0.930 . S
C1317 C1318 1.399 . S
C1317 C1322 1.399 . S
C1318 C1317 1.399 . S
C1318 C1319 1.376 . S
C1319 H1306 0.930 . S
C1319 C1318 1.376 . S
C1319 C1320 1.388 . S
C1320 H1307 0.930 . S
C1320 C1319 1.388 . S
C1320 C1321 1.390 . S
C1321 C1320 1.390 . S
C1321 C1322 1.394 . S
C1321 C1327 1.465 . S
C1322 C1317 1.399 . S
C1322 C1321 1.394 . S
C1322 C1323 1.516 . S
C1323 C1322 1.516 . S
C1323 C1324 1.502 . S
C1323 C1325 1.561 . S
C1323 C1326 1.526 . S
C1324 H1308 0.959 . S
C1324 H1309 0.959 . S
C1324 H1310 0.961 . S
C1324 C1323 1.502 . S
C1325 H1311 0.960 . S
C1325 H1312 0.961 . S
C1325 H1313 0.959 . S
C1325 C1323 1.561 . S
C1326 C1323 1.526 . S
C1326 C1327 1.396 . S
C1326 C1331 1.390 . S
C1327 C1321 1.465 . S
C1327 C1326 1.396 . S
C1327 C1328 1.399 . S
C1328 H1314 0.929 . S
C1328 C1327 1.399 . S
C1328 C1329 1.385 . S
C1329 H1315 0.931 . S
C1329 C1328 1.385 . S
C1329 C1330 1.389 . S
C1330 C1329 1.389 . S
C1330 C1331 1.387 . S
C1331 H1316 0.930 . S
C1331 C1326 1.390 . S
C1331 C1330 1.387 . S
H1332 C1344 0.930 . S
H1333 C1346 0.930 . S
H1334 C1347 0.930 . S
H1335 C1351 0.959 . S
H1336 C1351 0.959 . S
H1337 C1351 0.961 . S
H1338 C1352 0.960 . S
H1339 C1352 0.961 . S
H1340 C1352 0.959 . S
H1341 C1355 0.929 . S
H1342 C1356 0.931 . S
H1343 C1358 0.930 . S
C1344 H1332 0.930 . S
C1344 C1345 1.399 . S
C1344 C1349 1.399 . S
C1345 C1344 1.399 . S
C1345 C1346 1.376 . S
C1346 H1333 0.930 . S
C1346 C1345 1.376 . S
C1346 C1347 1.388 . S
C1347 H1334 0.930 . S
C1347 C1346 1.388 . S
C1347 C1348 1.390 . S
C1348 C1347 1.390 . S
C1348 C1349 1.394 . S
C1348 C1354 1.465 . S
C1349 C1344 1.399 . S
C1349 C1348 1.394 . S
C1349 C1350 1.516 . S
C1350 C1349 1.516 . S
C1350 C1351 1.502 . S
C1350 C1352 1.561 . S
C1350 C1353 1.526 . S
C1351 H1335 0.959 . S
C1351 H1336 0.959 . S
C1351 H1337 0.961 . S
C1351 C1350 1.502 . S
C1352 H1338 0.960 . S
C1352 H1339 0.961 . S
C1352 H1340 0.959 . S
C1352 C1350 1.561 . S
C1353 C1350 1.526 . S
C1353 C1354 1.396 . S
C1353 C1358 1.390 . S
C1354 C1348 1.465 . S
C1354 C1353 1.396 . S
C1354 C1355 1.399 . S
C1355 H1341 0.929 . S
C1355 C1354 1.399 . S
C1355 C1356 1.385 . S
C1356 H1342 0.931 . S
C1356 C1355 1.385 . S
C1356 C1357 1.389 . S
C1357 C1356 1.389 . S
C1357 C1358 1.387 . S
C1358 H1343 0.930 . S
C1358 C1353 1.390 . S
C1358 C1357 1.387 . S
H1359 C1371 0.930 . S
H1360 C1373 0.930 . S
H1361 C1374 0.930 . S
H1362 C1378 0.959 . S
H1363 C1378 0.959 . S
H1364 C1378 0.961 . S
H1365 C1379 0.960 . S
H1366 C1379 0.961 . S
H1367 C1379 0.959 . S
H1368 C1382 0.929 . S
H1369 C1383 0.931 . S
H1370 C1385 0.930 . S
C1371 H1359 0.930 . S
C1371 C1372 1.399 . S
C1371 C1376 1.399 . S
C1372 C1371 1.399 . S
C1372 C1373 1.376 . S
C1373 H1360 0.930 . S
C1373 C1372 1.376 . S
C1373 C1374 1.388 . S
C1374 H1361 0.930 . S
C1374 C1373 1.388 . S
C1374 C1375 1.390 . S
C1375 C1374 1.390 . S
C1375 C1376 1.394 . S
C1375 C1381 1.465 . S
C1376 C1371 1.399 . S
C1376 C1375 1.394 . S
C1376 C1377 1.516 . S
C1377 C1376 1.516 . S
C1377 C1378 1.502 . S
C1377 C1379 1.561 . S
C1377 C1380 1.526 . S
C1378 H1362 0.959 . S
C1378 H1363 0.959 . S
C1378 H1364 0.961 . S
C1378 C1377 1.502 . S
C1379 H1365 0.960 . S
C1379 H1366 0.961 . S
C1379 H1367 0.959 . S
C1379 C1377 1.561 . S
C1380 C1377 1.526 . S
C1380 C1381 1.396 . S
C1380 C1385 1.390 . S
C1381 C1375 1.465 . S
C1381 C1380 1.396 . S
C1381 C1382 1.399 . S
C1382 H1368 0.929 . S
C1382 C1381 1.399 . S
C1382 C1383 1.385 . S
C1383 H1369 0.931 . S
C1383 C1382 1.385 . S
C1383 C1384 1.389 . S
C1384 C1383 1.389 . S
C1384 C1385 1.387 . S
C1385 H1370 0.930 . S
C1385 C1380 1.390 . S
C1385 C1384 1.387 . S
H1386 C1398 0.930 . S
H1387 C1400 0.930 . S
H1388 C1401 0.930 . S
H1389 C1405 0.959 . S
H1390 C1405 0.959 . S
H1391 C1405 0.961 . S
H1392 C1406 0.960 . S
H1393 C1406 0.961 . S
H1394 C1406 0.959 . S
H1395 C1409 0.929 . S
H1396 C1410 0.931 . S
H1397 C1412 0.930 . S
C1398 H1386 0.930 . S
C1398 C1399 1.399 . S
C1398 C1403 1.399 . S
C1399 C1398 1.399 . S
C1399 C1400 1.376 . S
C1400 H1387 0.930 . S
C1400 C1399 1.376 . S
C1400 C1401 1.388 . S
C1401 H1388 0.930 . S
C1401 C1400 1.388 . S
C1401 C1402 1.390 . S
C1402 C1401 1.390 . S
C1402 C1403 1.394 . S
C1402 C1408 1.465 . S
C1403 C1398 1.399 . S
C1403 C1402 1.394 . S
C1403 C1404 1.516 . S
C1404 C1403 1.516 . S
C1404 C1405 1.502 . S
C1404 C1406 1.561 . S
C1404 C1407 1.526 . S
C1405 H1389 0.959 . S
C1405 H1390 0.959 . S
C1405 H1391 0.961 . S
C1405 C1404 1.502 . S
C1406 H1392 0.960 . S
C1406 H1393 0.961 . S
C1406 H1394 0.959 . S
C1406 C1404 1.561 . S
C1407 C1404 1.526 . S
C1407 C1408 1.396 . S
C1407 C1412 1.390 . S
C1408 C1402 1.465 . S
C1408 C1407 1.396 . S
C1408 C1409 1.399 . S
C1409 H1395 0.929 . S
C1409 C1408 1.399 . S
C1409 C1410 1.385 . S
C1410 H1396 0.931 . S
C1410 C1409 1.385 . S
C1410 C1411 1.389 . S
C1411 C1410 1.389 . S
C1411 C1412 1.387 . S
C1412 H1397 0.930 . S
C1412 C1407 1.390 . S
C1412 C1411 1.387 . S
H1413 C1425 0.930 . S
H1414 C1427 0.930 . S
H1415 C1428 0.930 . S
H1416 C1432 0.959 . S
H1417 C1432 0.959 . S
H1418 C1432 0.961 . S
H1419 C1433 0.960 . S
H1420 C1433 0.961 . S
H1421 C1433 0.959 . S
H1422 C1436 0.929 . S
H1423 C1437 0.931 . S
H1424 C1439 0.930 . S
C1425 H1413 0.930 . S
C1425 C1426 1.399 . S
C1425 C1430 1.399 . S
C1426 C1425 1.399 . S
C1426 C1427 1.376 . S
C1427 H1414 0.930 . S
C1427 C1426 1.376 . S
C1427 C1428 1.388 . S
C1428 H1415 0.930 . S
C1428 C1427 1.388 . S
C1428 C1429 1.390 . S
C1429 C1428 1.390 . S
C1429 C1430 1.394 . S
C1429 C1435 1.465 . S
C1430 C1425 1.399 . S
C1430 C1429 1.394 . S
C1430 C1431 1.516 . S
C1431 C1430 1.516 . S
C1431 C1432 1.502 . S
C1431 C1433 1.561 . S
C1431 C1434 1.526 . S
C1432 H1416 0.959 . S
C1432 H1417 0.959 . S
C1432 H1418 0.961 . S
C1432 C1431 1.502 . S
C1433 H1419 0.960 . S
C1433 H1420 0.961 . S
C1433 H1421 0.959 . S
C1433 C1431 1.561 . S
C1434 C1431 1.526 . S
C1434 C1435 1.396 . S
C1434 C1439 1.390 . S
C1435 C1429 1.465 . S
C1435 C1434 1.396 . S
C1435 C1436 1.399 . S
C1436 H1422 0.929 . S
C1436 C1435 1.399 . S
C1436 C1437 1.385 . S
C1437 H1423 0.931 . S
C1437 C1436 1.385 . S
C1437 C1438 1.389 . S
C1438 C1437 1.389 . S
C1438 C1439 1.387 . S
C1439 H1424 0.930 . S
C1439 C1434 1.390 . S
C1439 C1438 1.387 . S
H1440 C1452 0.930 . S
H1441 C1454 0.930 . S
H1442 C1455 0.930 . S
H1443 C1459 0.959 . S
H1444 C1459 0.959 . S
H1445 C1459 0.961 . S
H1446 C1460 0.960 . S
H1447 C1460 0.961 . S
H1448 C1460 0.959 . S
H1449 C1463 0.929 . S
H1450 C1464 0.931 . S
H1451 C1466 0.930 . S
C1452 H1440 0.930 . S
C1452 C1453 1.399 . S
C1452 C1457 1.399 . S
C1453 C1452 1.399 . S
C1453 C1454 1.376 . S
C1454 H1441 0.930 . S
C1454 C1453 1.376 . S
C1454 C1455 1.388 . S
C1455 H1442 0.930 . S
C1455 C1454 1.388 . S
C1455 C1456 1.390 . S
C1456 C1455 1.390 . S
C1456 C1457 1.394 . S
C1456 C1462 1.465 . S
C1457 C1452 1.399 . S
C1457 C1456 1.394 . S
C1457 C1458 1.516 . S
C1458 C1457 1.516 . S
C1458 C1459 1.502 . S
C1458 C1460 1.561 . S
C1458 C1461 1.526 . S
C1459 H1443 0.959 . S
C1459 H1444 0.959 . S
C1459 H1445 0.961 . S
C1459 C1458 1.502 . S
C1460 H1446 0.960 . S
C1460 H1447 0.961 . S
C1460 H1448 0.959 . S
C1460 C1458 1.561 . S
C1461 C1458 1.526 . S
C1461 C1462 1.396 . S
C1461 C1466 1.390 . S
C1462 C1456 1.465 . S
C1462 C1461 1.396 . S
C1462 C1463 1.399 . S
C1463 H1449 0.929 . S
C1463 C1462 1.399 . S
C1463 C1464 1.385 . S
C1464 H1450 0.931 . S
C1464 C1463 1.385 . S
C1464 C1465 1.389 . S
C1465 C1464 1.389 . S
C1465 C1466 1.387 . S
C1466 H1451 0.930 . S
C1466 C1461 1.390 . S
C1466 C1465 1.387 . S
H1467 C1479 0.930 . S
H1468 C1481 0.930 . S
H1469 C1482 0.930 . S
H1470 C1486 0.959 . S
H1471 C1486 0.959 . S
H1472 C1486 0.961 . S
H1473 C1487 0.960 . S
H1474 C1487 0.961 . S
H1475 C1487 0.959 . S
H1476 C1490 0.929 . S
H1477 C1491 0.931 . S
H1478 C1493 0.930 . S
C1479 H1467 0.930 . S
C1479 C1480 1.399 . S
C1479 C1484 1.399 . S
C1480 C1479 1.399 . S
C1480 C1481 1.376 . S
C1481 H1468 0.930 . S
C1481 C1480 1.376 . S
C1481 C1482 1.388 . S
C1482 H1469 0.930 . S
C1482 C1481 1.388 . S
C1482 C1483 1.390 . S
C1483 C1482 1.390 . S
C1483 C1484 1.394 . S
C1483 C1489 1.465 . S
C1484 C1479 1.399 . S
C1484 C1483 1.394 . S
C1484 C1485 1.516 . S
C1485 C1484 1.516 . S
C1485 C1486 1.502 . S
C1485 C1487 1.561 . S
C1485 C1488 1.526 . S
C1486 H1470 0.959 . S
C1486 H1471 0.959 . S
C1486 H1472 0.961 . S
C1486 C1485 1.502 . S
C1487 H1473 0.960 . S
C1487 H1474 0.961 . S
C1487 H1475 0.959 . S
C1487 C1485 1.561 . S
C1488 C1485 1.526 . S
C1488 C1489 1.396 . S
C1488 C1493 1.390 . S
C1489 C1483 1.465 . S
C1489 C1488 1.396 . S
C1489 C1490 1.399 . S
C1490 H1476 0.929 . S
C1490 C1489 1.399 . S
C1490 C1491 1.385 . S
C1491 H1477 0.931 . S
C1491 C1490 1.385 . S
C1491 C1492 1.389 . S
C1492 C1491 1.389 . S
C1492 C1493 1.387 . S
C1493 H1478 0.930 . S
C1493 C1488 1.390 . S
C1493 C1492 1.387 . S
H1494 C1506 0.930 . S
H1495 C1508 0.930 . S
H1496 C1509 0.930 . S
H1497 C1513 0.959 . S
H1498 C1513 0.959 . S
H1499 C1513 0.961 . S
H1500 C1514 0.960 . S
H1501 C1514 0.961 . S
H1502 C1514 0.959 . S
H1503 C1517 0.929 . S
H1504 C1518 0.931 . S
H1505 C1520 0.930 . S
C1506 H1494 0.930 . S
C1506 C1507 1.399 . S
C1506 C1511 1.399 . S
C1507 C1506 1.399 . S
C1507 C1508 1.376 . S
C1508 H1495 0.930 . S
C1508 C1507 1.376 . S
C1508 C1509 1.388 . S
C1509 H1496 0.930 . S
C1509 C1508 1.388 . S
C1509 C1510 1.390 . S
C1510 C1509 1.390 . S
C1510 C1511 1.394 . S
C1510 C1516 1.465 . S
C1511 C1506 1.399 . S
C1511 C1510 1.394 . S
C1511 C1512 1.516 . S
C1512 C1511 1.516 . S
C1512 C1513 1.502 . S
C1512 C1514 1.561 . S
C1512 C1515 1.526 . S
C1513 H1497 0.959 . S
C1513 H1498 0.959 . S
C1513 H1499 0.961 . S
C1513 C1512 1.502 . S
C1514 H1500 0.960 . S
C1514 H1501 0.961 . S
C1514 H1502 0.959 . S
C1514 C1512 1.561 . S
C1515 C1512 1.526 . S
C1515 C1516 1.396 . S
C1515 C1520 1.390 . S
C1516 C1510 1.465 . S
C1516 C1515 1.396 . S
C1516 C1517 1.399 . S
C1517 H1503 0.929 . S
C1517 C1516 1.399 . S
C1517 C1518 1.385 . S
C1518 H1504 0.931 . S
C1518 C1517 1.385 . S
C1518 C1519 1.389 . S
C1519 C1518 1.389 . S
C1519 C1520 1.387 . S
C1520 H1505 0.930 . S
C1520 C1515 1.390 . S
C1520 C1519 1.387 . S
H1521 C1533 0.930 . S
H1522 C1535 0.930 . S
H1523 C1536 0.930 . S
H1524 C1540 0.959 . S
H1525 C1540 0.959 . S
H1526 C1540 0.961 . S
H1527 C1541 0.960 . S
H1528 C1541 0.961 . S
H1529 C1541 0.959 . S
H1530 C1544 0.929 . S
H1531 C1545 0.931 . S
H1532 C1547 0.930 . S
C1533 H1521 0.930 . S
C1533 C1534 1.399 . S
C1533 C1538 1.399 . S
C1534 C1533 1.399 . S
C1534 C1535 1.376 . S
C1535 H1522 0.930 . S
C1535 C1534 1.376 . S
C1535 C1536 1.388 . S
C1536 H1523 0.930 . S
C1536 C1535 1.388 . S
C1536 C1537 1.390 . S
C1537 C1536 1.390 . S
C1537 C1538 1.394 . S
C1537 C1543 1.465 . S
C1538 C1533 1.399 . S
C1538 C1537 1.394 . S
C1538 C1539 1.516 . S
C1539 C1538 1.516 . S
C1539 C1540 1.502 . S
C1539 C1541 1.561 . S
C1539 C1542 1.526 . S
C1540 H1524 0.959 . S
C1540 H1525 0.959 . S
C1540 H1526 0.961 . S
C1540 C1539 1.502 . S
C1541 H1527 0.960 . S
C1541 H1528 0.961 . S
C1541 H1529 0.959 . S
C1541 C1539 1.561 . S
C1542 C1539 1.526 . S
C1542 C1543 1.396 . S
C1542 C1547 1.390 . S
C1543 C1537 1.465 . S
C1543 C1542 1.396 . S
C1543 C1544 1.399 . S
C1544 H1530 0.929 . S
C1544 C1543 1.399 . S
C1544 C1545 1.385 . S
C1545 H1531 0.931 . S
C1545 C1544 1.385 . S
C1545 C1546 1.389 . S
C1546 C1545 1.389 . S
C1546 C1547 1.387 . S
C1547 H1532 0.930 . S
C1547 C1542 1.390 . S
C1547 C1546 1.387 . S
H1548 C1560 0.930 . S
H1549 C1562 0.930 . S
H1550 C1563 0.930 . S
H1551 C1567 0.959 . S
H1552 C1567 0.959 . S
H1553 C1567 0.961 . S
H1554 C1568 0.960 . S
H1555 C1568 0.961 . S
H1556 C1568 0.959 . S
H1557 C1571 0.929 . S
H1558 C1572 0.931 1_556 S
H1559 C1574 0.930 . S
C1560 H1548 0.930 . S
C1560 C1561 1.399 . S
C1560 C1565 1.399 . S
C1561 C1560 1.399 . S
C1561 C1562 1.376 . S
C1562 H1549 0.930 . S
C1562 C1561 1.376 . S
C1562 C1563 1.388 . S
C1563 H1550 0.930 . S
C1563 C1562 1.388 . S
C1563 C1564 1.390 . S
C1564 C1563 1.390 . S
C1564 C1565 1.394 . S
C1564 C1570 1.465 . S
C1565 C1560 1.399 . S
C1565 C1564 1.394 . S
C1565 C1566 1.516 . S
C1566 C1565 1.516 . S
C1566 C1567 1.502 . S
C1566 C1568 1.561 . S
C1566 C1569 1.526 . S
C1567 H1551 0.959 . S
C1567 H1552 0.959 . S
C1567 H1553 0.961 . S
C1567 C1566 1.502 . S
C1568 H1554 0.960 . S
C1568 H1555 0.961 . S
C1568 H1556 0.959 . S
C1568 C1566 1.561 . S
C1569 C1566 1.526 . S
C1569 C1570 1.396 . S
C1569 C1574 1.390 . S
C1570 C1564 1.465 . S
C1570 C1569 1.396 . S
C1570 C1571 1.399 . S
C1571 H1557 0.929 . S
C1571 C1570 1.399 . S
C1571 C1572 1.385 . S
C1572 H1558 0.931 1_554 S
C1572 C1571 1.385 . S
C1572 C1573 1.389 . S
C1573 C1572 1.389 . S
C1573 C1574 1.387 . S
C1574 H1559 0.930 . S
C1574 C1569 1.390 . S
C1574 C1573 1.387 . S
H1575 C1587 0.930 . S
H1576 C1589 0.930 . S
H1577 C1590 0.930 . S
H1578 C1594 0.959 . S
H1579 C1594 0.959 . S
H1580 C1594 0.961 . S
H1581 C1595 0.960 . S
H1582 C1595 0.961 . S
H1583 C1595 0.959 . S
H1584 C1598 0.929 . S
H1585 C1599 0.922 1_556 S
H1586 C1601 0.930 . S
C1587 H1575 0.930 . S
C1587 C1588 1.399 . S
C1587 C1592 1.399 . S
C1588 C1587 1.399 . S
C1588 C1589 1.376 . S
C1589 H1576 0.930 . S
C1589 C1588 1.376 . S
C1589 C1590 1.388 . S
C1590 H1577 0.930 . S
C1590 C1589 1.388 . S
C1590 C1591 1.390 . S
C1591 C1590 1.390 . S
C1591 C1592 1.394 . S
C1591 C1597 1.465 . S
C1592 C1587 1.399 . S
C1592 C1591 1.394 . S
C1592 C1593 1.516 . S
C1593 C1592 1.516 . S
C1593 C1594 1.502 . S
C1593 C1595 1.561 . S
C1593 C1596 1.526 . S
C1594 H1578 0.959 . S
C1594 H1579 0.959 . S
C1594 H1580 0.961 . S
C1594 C1593 1.502 . S
C1595 H1581 0.960 . S
C1595 H1582 0.961 . S
C1595 H1583 0.959 . S
C1595 C1593 1.561 . S
C1596 C1593 1.526 . S
C1596 C1597 1.396 . S
C1596 C1601 1.390 . S
C1597 C1591 1.465 . S
C1597 C1596 1.396 . S
C1597 C1598 1.399 . S
C1598 H1584 0.929 . S
C1598 C1597 1.399 . S
C1598 C1599 1.385 . S
C1599 H1585 0.922 1_554 S
C1599 C1598 1.385 . S
C1599 C1600 1.389 . S
C1600 C1599 1.389 . S
C1600 C1601 1.387 . S
C1601 H1586 0.930 . S
C1601 C1596 1.390 . S
C1601 C1600 1.387 . S
H1602 C1614 0.930 . S
H1603 C1616 0.930 . S
H1604 C1617 0.930 . S
H1605 C1621 0.959 . S
H1606 C1621 0.959 . S
H1607 C1621 0.961 . S
H1608 C1622 0.960 . S
H1609 C1622 0.961 . S
H1610 C1622 0.959 . S
H1611 C1625 0.929 . S
H1612 C1626 0.931 . S
H1613 C1628 0.930 . S
C1614 H1602 0.930 . S
C1614 C1615 1.399 . S
C1614 C1619 1.399 . S
C1615 C1614 1.399 . S
C1615 C1616 1.376 . S
C1616 H1603 0.930 . S
C1616 C1615 1.376 . S
C1616 C1617 1.388 . S
C1617 H1604 0.930 . S
C1617 C1616 1.388 . S
C1617 C1618 1.390 . S
C1618 C1617 1.390 . S
C1618 C1619 1.394 . S
C1618 C1624 1.465 . S
C1619 C1614 1.399 . S
C1619 C1618 1.394 . S
C1619 C1620 1.516 . S
C1620 C1619 1.516 . S
C1620 C1621 1.502 . S
C1620 C1622 1.561 . S
C1620 C1623 1.526 . S
C1621 H1605 0.959 . S
C1621 H1606 0.959 . S
C1621 H1607 0.961 . S
C1621 C1620 1.502 . S
C1622 H1608 0.960 . S
C1622 H1609 0.961 . S
C1622 H1610 0.959 . S
C1622 C1620 1.561 . S
C1623 C1620 1.526 . S
C1623 C1624 1.396 . S
C1623 C1628 1.390 . S
C1624 C1618 1.465 . S
C1624 C1623 1.396 . S
C1624 C1625 1.399 . S
C1625 H1611 0.929 . S
C1625 C1624 1.399 . S
C1625 C1626 1.385 . S
C1626 H1612 0.931 . S
C1626 C1625 1.385 . S
C1626 C1627 1.389 . S
C1627 C1626 1.389 . S
C1627 C1628 1.387 . S
C1628 H1613 0.930 . S
C1628 C1623 1.390 . S
C1628 C1627 1.387 . S
H1629 C1641 0.930 . S
H1630 C1643 0.930 . S
H1631 C1644 0.930 . S
H1632 C1648 0.959 . S
H1633 C1648 0.959 . S
H1634 C1648 0.961 . S
H1635 C1649 0.960 . S
H1636 C1649 0.961 . S
H1637 C1649 0.959 . S
H1638 C1652 0.929 . S
H1639 C1653 0.931 . S
H1640 C1655 0.930 . S
C1641 H1629 0.930 . S
C1641 C1642 1.399 . S
C1641 C1646 1.399 . S
C1642 C1641 1.399 . S
C1642 C1643 1.376 . S
C1643 H1630 0.930 . S
C1643 C1642 1.376 . S
C1643 C1644 1.388 . S
C1644 H1631 0.930 . S
C1644 C1643 1.388 . S
C1644 C1645 1.390 . S
C1645 C1644 1.390 . S
C1645 C1646 1.394 . S
C1645 C1651 1.465 . S
C1646 C1641 1.399 . S
C1646 C1645 1.394 . S
C1646 C1647 1.516 . S
C1647 C1646 1.516 . S
C1647 C1648 1.502 . S
C1647 C1649 1.561 . S
C1647 C1650 1.526 . S
C1648 H1632 0.959 . S
C1648 H1633 0.959 . S
C1648 H1634 0.961 . S
C1648 C1647 1.502 . S
C1649 H1635 0.960 . S
C1649 H1636 0.961 . S
C1649 H1637 0.959 . S
C1649 C1647 1.561 . S
C1650 C1647 1.526 . S
C1650 C1651 1.396 . S
C1650 C1655 1.390 . S
C1651 C1645 1.465 . S
C1651 C1650 1.396 . S
C1651 C1652 1.399 . S
C1652 H1638 0.929 . S
C1652 C1651 1.399 . S
C1652 C1653 1.385 . S
C1653 H1639 0.931 . S
C1653 C1652 1.385 . S
C1653 C1654 1.389 . S
C1654 C1653 1.389 . S
C1654 C1655 1.387 . S
C1655 H1640 0.930 . S
C1655 C1650 1.390 . S
C1655 C1654 1.387 . S
H1656 C1668 0.930 . S
H1657 C1670 0.930 . S
H1658 C1671 0.930 . S
H1659 C1675 0.959 . S
H1660 C1675 0.959 . S
H1661 C1675 0.961 . S
H1662 C1676 0.960 . S
H1663 C1676 0.961 . S
H1664 C1676 0.959 . S
H1665 C1679 0.929 . S
H1666 C1680 0.931 . S
H1667 C1682 0.930 . S
C1668 H1656 0.930 . S
C1668 C1669 1.399 . S
C1668 C1673 1.399 . S
C1669 C1668 1.399 . S
C1669 C1670 1.376 . S
C1670 H1657 0.930 . S
C1670 C1669 1.376 . S
C1670 C1671 1.388 . S
C1671 H1658 0.930 . S
C1671 C1670 1.388 . S
C1671 C1672 1.390 . S
C1672 C1671 1.390 . S
C1672 C1673 1.394 . S
C1672 C1678 1.465 . S
C1673 C1668 1.399 . S
C1673 C1672 1.394 . S
C1673 C1674 1.516 . S
C1674 C1673 1.516 . S
C1674 C1675 1.502 . S
C1674 C1676 1.561 . S
C1674 C1677 1.526 . S
C1675 H1659 0.959 . S
C1675 H1660 0.959 . S
C1675 H1661 0.961 . S
C1675 C1674 1.502 . S
C1676 H1662 0.960 . S
C1676 H1663 0.961 . S
C1676 H1664 0.959 . S
C1676 C1674 1.561 . S
C1677 C1674 1.526 . S
C1677 C1678 1.396 . S
C1677 C1682 1.390 . S
C1678 C1672 1.465 . S
C1678 C1677 1.396 . S
C1678 C1679 1.399 . S
C1679 H1665 0.929 . S
C1679 C1678 1.399 . S
C1679 C1680 1.385 . S
C1680 H1666 0.931 . S
C1680 C1679 1.385 . S
C1680 C1681 1.389 . S
C1681 C1680 1.389 . S
C1681 C1682 1.387 . S
C1682 H1667 0.930 . S
C1682 C1677 1.390 . S
C1682 C1681 1.387 . S
H1683 C1695 0.930 . S
H1684 C1697 0.930 . S
H1685 C1698 0.930 . S
H1686 C1702 0.959 . S
H1687 C1702 0.959 . S
H1688 C1702 0.961 . S
H1689 C1703 0.960 . S
H1690 C1703 0.961 . S
H1691 C1703 0.959 . S
H1692 C1706 0.929 . S
H1693 C1707 0.931 . S
H1694 C1709 0.930 . S
C1695 H1683 0.930 . S
C1695 C1696 1.399 . S
C1695 C1700 1.399 . S
C1696 C1695 1.399 . S
C1696 C1697 1.376 . S
C1697 H1684 0.930 . S
C1697 C1696 1.376 . S
C1697 C1698 1.388 . S
C1698 H1685 0.930 . S
C1698 C1697 1.388 . S
C1698 C1699 1.390 . S
C1699 C1698 1.390 . S
C1699 C1700 1.394 . S
C1699 C1705 1.465 . S
C1700 C1695 1.399 . S
C1700 C1699 1.394 . S
C1700 C1701 1.516 . S
C1701 C1700 1.516 . S
C1701 C1702 1.502 . S
C1701 C1703 1.561 . S
C1701 C1704 1.526 . S
C1702 H1686 0.959 . S
C1702 H1687 0.959 . S
C1702 H1688 0.961 . S
C1702 C1701 1.502 . S
C1703 H1689 0.960 . S
C1703 H1690 0.961 . S
C1703 H1691 0.959 . S
C1703 C1701 1.561 . S
C1704 C1701 1.526 . S
C1704 C1705 1.396 . S
C1704 C1709 1.390 . S
C1705 C1699 1.465 . S
C1705 C1704 1.396 . S
C1705 C1706 1.399 . S
C1706 H1692 0.929 . S
C1706 C1705 1.399 . S
C1706 C1707 1.385 . S
C1707 H1693 0.931 . S
C1707 C1706 1.385 . S
C1707 C1708 1.389 . S
C1708 C1707 1.389 . S
C1708 C1709 1.387 . S
C1709 H1694 0.930 . S
C1709 C1704 1.390 . S
C1709 C1708 1.387 . S
H1710 C1722 0.930 . S
H1711 C1724 0.930 . S
H1712 C1725 0.930 . S
H1713 C1729 0.959 . S
H1714 C1729 0.959 . S
H1715 C1729 0.961 . S
H1716 C1730 0.960 . S
H1717 C1730 0.961 . S
H1718 C1730 0.959 . S
H1719 C1733 0.929 . S
H1720 C1734 0.931 . S
H1721 C1736 0.930 . S
C1722 H1710 0.930 . S
C1722 C1723 1.399 . S
C1722 C1727 1.399 . S
C1723 C1722 1.399 . S
C1723 C1724 1.376 . S
C1724 H1711 0.930 . S
C1724 C1723 1.376 . S
C1724 C1725 1.388 . S
C1725 H1712 0.930 . S
C1725 C1724 1.388 . S
C1725 C1726 1.390 . S
C1726 C1725 1.390 . S
C1726 C1727 1.394 . S
C1726 C1732 1.465 . S
C1727 C1722 1.399 . S
C1727 C1726 1.394 . S
C1727 C1728 1.516 . S
C1728 C1727 1.516 . S
C1728 C1729 1.502 . S
C1728 C1730 1.561 . S
C1728 C1731 1.526 . S
C1729 H1713 0.959 . S
C1729 H1714 0.959 . S
C1729 H1715 0.961 . S
C1729 C1728 1.502 . S
C1730 H1716 0.960 . S
C1730 H1717 0.961 . S
C1730 H1718 0.959 . S
C1730 C1728 1.561 . S
C1731 C1728 1.526 . S
C1731 C1732 1.396 . S
C1731 C1736 1.390 . S
C1732 C1726 1.465 . S
C1732 C1731 1.396 . S
C1732 C1733 1.399 . S
C1733 H1719 0.929 . S
C1733 C1732 1.399 . S
C1733 C1734 1.385 . S
C1734 H1720 0.931 . S
C1734 C1733 1.385 . S
C1734 C1735 1.389 . S
C1735 C1734 1.389 . S
C1735 C1736 1.387 . S
C1736 H1721 0.930 . S
C1736 C1731 1.390 . S
C1736 C1735 1.387 . S
H1737 C1749 0.930 . S
H1738 C1751 0.930 . S
H1739 C1752 0.930 . S
H1740 C1756 0.959 . S
H1741 C1756 0.959 . S
H1742 C1756 0.961 . S
H1743 C1757 0.960 . S
H1744 C1757 0.961 . S
H1745 C1757 0.959 . S
H1746 C1760 0.929 . S
H1747 C1761 0.931 . S
H1748 C1763 0.930 . S
C1749 H1737 0.930 . S
C1749 C1750 1.399 . S
C1749 C1754 1.399 . S
C1750 C1749 1.399 . S
C1750 C1751 1.376 . S
C1751 H1738 0.930 . S
C1751 C1750 1.376 . S
C1751 C1752 1.388 . S
C1752 H1739 0.930 . S
C1752 C1751 1.388 . S
C1752 C1753 1.390 . S
C1753 C1752 1.390 . S
C1753 C1754 1.394 . S
C1753 C1759 1.465 . S
C1754 C1749 1.399 . S
C1754 C1753 1.394 . S
C1754 C1755 1.516 . S
C1755 C1754 1.516 . S
C1755 C1756 1.502 . S
C1755 C1757 1.561 . S
C1755 C1758 1.526 . S
C1756 H1740 0.959 . S
C1756 H1741 0.959 . S
C1756 H1742 0.961 . S
C1756 C1755 1.502 . S
C1757 H1743 0.960 . S
C1757 H1744 0.961 . S
C1757 H1745 0.959 . S
C1757 C1755 1.561 . S
C1758 C1755 1.526 . S
C1758 C1759 1.396 . S
C1758 C1763 1.390 . S
C1759 C1753 1.465 . S
C1759 C1758 1.396 . S
C1759 C1760 1.399 . S
C1760 H1746 0.929 . S
C1760 C1759 1.399 . S
C1760 C1761 1.385 . S
C1761 H1747 0.931 . S
C1761 C1760 1.385 . S
C1761 C1762 1.389 . S
C1762 C1761 1.389 . S
C1762 C1763 1.387 . S
C1763 H1748 0.930 . S
C1763 C1758 1.390 . S
C1763 C1762 1.387 . S
H1764 C1776 0.930 . S
H1765 C1778 0.930 . S
H1766 C1779 0.930 . S
H1767 C1783 0.959 . S
H1768 C1783 0.959 . S
H1769 C1783 0.961 . S
H1770 C1784 0.959 1_455 S
H1771 C1784 0.961 . S
H1772 C1784 0.959 1_455 S
H1773 C1787 0.937 1_455 S
H1774 C1788 0.931 . S
H1775 C1790 0.930 . S
C1776 H1764 0.930 . S
C1776 C1777 1.399 . S
C1776 C1781 1.399 . S
C1777 C1776 1.399 . S
C1777 C1778 1.376 . S
C1778 H1765 0.930 . S
C1778 C1777 1.376 . S
C1778 C1779 1.388 . S
C1779 H1766 0.930 . S
C1779 C1778 1.388 . S
C1779 C1780 1.390 . S
C1780 C1779 1.390 . S
C1780 C1781 1.394 . S
C1780 C1786 1.470 1_455 S
C1781 C1776 1.399 . S
C1781 C1780 1.394 . S
C1781 C1782 1.516 1_455 S
C1782 C1781 1.516 1_655 S
C1782 C1783 1.502 . S
C1782 C1784 1.561 . S
C1782 C1785 1.526 . S
C1783 H1767 0.959 . S
C1783 H1768 0.959 . S
C1783 H1769 0.961 . S
C1783 C1782 1.502 . S
C1784 H1770 0.959 1_655 S
C1784 H1771 0.961 . S
C1784 H1772 0.959 1_655 S
C1784 C1782 1.561 . S
C1785 C1782 1.526 . S
C1785 C1786 1.387 . S
C1785 C1790 1.390 . S
C1786 C1780 1.470 1_655 S
C1786 C1785 1.387 . S
C1786 C1787 1.399 . S
C1787 H1773 0.937 1_655 S
C1787 C1786 1.399 . S
C1787 C1788 1.380 . S
C1788 H1774 0.931 . S
C1788 C1787 1.380 . S
C1788 C1789 1.389 . S
C1789 C1788 1.389 . S
C1789 C1790 1.387 . S
C1790 H1775 0.930 . S
C1790 C1785 1.390 . S
C1790 C1789 1.387 . S
H1791 C1803 0.930 . S
H1792 C1805 0.930 . S
H1793 C1806 0.930 . S
H1794 C1810 0.959 . S
H1795 C1810 0.959 . S
H1796 C1810 0.961 . S
H1797 C1811 0.960 . S
H1798 C1811 0.961 . S
H1799 C1811 0.959 . S
H1800 C1814 0.929 . S
H1801 C1815 0.931 . S
H1802 C1817 0.930 . S
C1803 H1791 0.930 . S
C1803 C1804 1.399 . S
C1803 C1808 1.399 . S
C1804 C1803 1.399 . S
C1804 C1805 1.376 . S
C1805 H1792 0.930 . S
C1805 C1804 1.376 . S
C1805 C1806 1.388 . S
C1806 H1793 0.930 . S
C1806 C1805 1.388 . S
C1806 C1807 1.390 . S
C1807 C1806 1.390 . S
C1807 C1808 1.394 . S
C1807 C1813 1.465 . S
C1808 C1803 1.399 . S
C1808 C1807 1.394 . S
C1808 C1809 1.516 . S
C1809 C1808 1.516 . S
C1809 C1810 1.502 . S
C1809 C1811 1.561 . S
C1809 C1812 1.526 . S
C1810 H1794 0.959 . S
C1810 H1795 0.959 . S
C1810 H1796 0.961 . S
C1810 C1809 1.502 . S
C1811 H1797 0.960 . S
C1811 H1798 0.961 . S
C1811 H1799 0.959 . S
C1811 C1809 1.561 . S
C1812 C1809 1.526 . S
C1812 C1813 1.396 . S
C1812 C1817 1.390 . S
C1813 C1807 1.465 . S
C1813 C1812 1.396 . S
C1813 C1814 1.399 . S
C1814 H1800 0.929 . S
C1814 C1813 1.399 . S
C1814 C1815 1.385 . S
C1815 H1801 0.931 . S
C1815 C1814 1.385 . S
C1815 C1816 1.389 . S
C1816 C1815 1.389 . S
C1816 C1817 1.387 . S
C1817 H1802 0.930 . S
C1817 C1812 1.390 . S
C1817 C1816 1.387 . S
H1818 C1830 0.930 . S
H1819 C1832 0.930 . S
H1820 C1833 0.981 . S
H1821 C1837 0.959 . S
H1822 C1837 0.959 . S
H1823 C1837 0.961 . S
H1824 C1838 0.960 . S
H1825 C1838 0.961 . S
H1826 C1838 0.959 . S
H1827 C1841 0.929 . S
H1828 C1842 0.931 . S
H1829 C1844 0.930 . S
C1830 H1818 0.930 . S
C1830 C1831 1.399 . S
C1830 C1835 1.399 . S
C1831 C1830 1.399 . S
C1831 C1832 1.376 . S
C1832 H1819 0.930 . S
C1832 C1831 1.376 . S
C1832 C1833 1.353 1_565 S
C1833 H1820 0.981 . S
C1833 C1832 1.353 1_545 S
C1833 C1834 1.358 1_545 S
C1834 C1833 1.358 1_565 S
C1834 C1835 1.461 . S
C1834 C1840 1.430 1_565 S
C1835 C1830 1.399 . S
C1835 C1834 1.461 . S
C1835 C1836 1.516 . S
C1836 C1835 1.516 . S
C1836 C1837 1.502 . S
C1836 C1838 1.561 . S
C1836 C1839 1.526 1_565 S
C1837 H1821 0.959 . S
C1837 H1822 0.959 . S
C1837 H1823 0.961 . S
C1837 C1836 1.502 . S
C1838 H1824 0.960 . S
C1838 H1825 0.961 . S
C1838 H1826 0.959 . S
C1838 C1836 1.561 . S
C1839 C1836 1.526 1_545 S
C1839 C1840 1.396 . S
C1839 C1844 1.390 . S
C1840 C1834 1.430 1_545 S
C1840 C1839 1.396 . S
C1840 C1841 1.399 . S
C1841 H1827 0.929 . S
C1841 C1840 1.399 . S
C1841 C1842 1.385 . S
C1842 H1828 0.931 . S
C1842 C1841 1.385 . S
C1842 C1843 1.389 . S
C1843 C1842 1.389 . S
C1843 C1844 1.387 . S
C1844 H1829 0.930 . S
C1844 C1839 1.390 . S
C1844 C1843 1.387 . S
H1845 C1857 0.930 . S
H1846 C1859 0.930 . S
H1847 C1860 0.930 . S
H1848 C1864 0.959 . S
H1849 C1864 0.959 . S
H1850 C1864 0.961 . S
H1851 C1865 0.960 . S
H1852 C1865 0.961 . S
H1853 C1865 0.959 . S
H1854 C1868 0.929 . S
H1855 C1869 0.931 . S
H1856 C1871 0.930 . S
C1857 H1845 0.930 . S
C1857 C1858 1.399 . S
C1857 C1862 1.399 . S
C1858 C1857 1.399 . S
C1858 C1859 1.376 . S
C1859 H1846 0.930 . S
C1859 C1858 1.376 . S
C1859 C1860 1.388 1_565 S
C1860 H1847 0.930 . S
C1860 C1859 1.388 1_545 S
C1860 C1861 1.408 . S
C1861 C1860 1.408 . S
C1861 C1862 1.332 1_545 S
C1861 C1867 1.501 . S
C1862 C1857 1.399 . S
C1862 C1861 1.332 1_565 S
C1862 C1863 1.516 . S
C1863 C1862 1.516 . S
C1863 C1864 1.502 . S
C1863 C1865 1.561 . S
C1863 C1866 1.526 1_565 S
C1864 H1848 0.959 . S
C1864 H1849 0.959 . S
C1864 H1850 0.961 . S
C1864 C1863 1.502 . S
C1865 H1851 0.960 . S
C1865 H1852 0.961 . S
C1865 H1853 0.959 . S
C1865 C1863 1.561 . S
C1866 C1863 1.526 1_545 S
C1866 C1867 1.396 . S
C1866 C1871 1.390 . S
C1867 C1861 1.501 . S
C1867 C1866 1.396 . S
C1867 C1868 1.399 . S
C1868 H1854 0.929 . S
C1868 C1867 1.399 . S
C1868 C1869 1.385 . S
C1869 H1855 0.931 . S
C1869 C1868 1.385 . S
C1869 C1870 1.389 . S
C1870 C1869 1.389 . S
C1870 C1871 1.387 . S
C1871 H1856 0.930 . S
C1871 C1866 1.390 . S
C1871 C1870 1.387 . S
H1872 C1884 0.930 . S
H1873 C1886 0.930 . S
H1874 C1887 0.930 1_455 S
H1875 C1891 0.959 . S
H1876 C1891 0.959 . S
H1877 C1891 0.961 . S
H1878 C1892 0.943 1_655 S
H1879 C1892 0.961 . S
H1880 C1892 0.959 . S
H1881 C1895 0.929 . S
H1882 C1896 0.931 . S
H1883 C1898 0.930 . S
C1884 H1872 0.930 . S
C1884 C1885 1.399 . S
C1884 C1889 1.399 . S
C1885 C1884 1.399 . S
C1885 C1886 1.376 . S
C1886 H1873 0.930 . S
C1886 C1885 1.376 . S
C1886 C1887 1.388 . S
C1887 H1874 0.930 1_655 S
C1887 C1886 1.388 . S
C1887 C1888 1.390 . S
C1888 C1887 1.390 . S
C1888 C1889 1.394 . S
C1888 C1894 1.465 1_655 S
C1889 C1884 1.399 . S
C1889 C1888 1.394 . S
C1889 C1890 1.516 . S
C1890 C1889 1.516 . S
C1890 C1891 1.502 . S
C1890 C1892 1.561 1_655 S
C1890 C1893 1.526 1_655 S
C1891 H1875 0.959 . S
C1891 H1876 0.959 . S
C1891 H1877 0.961 . S
C1891 C1890 1.502 . S
C1892 H1878 0.943 1_455 S
C1892 H1879 0.961 . S
C1892 H1880 0.959 . S
C1892 C1890 1.561 1_455 S
C1893 C1890 1.526 1_455 S
C1893 C1894 1.396 . S
C1893 C1898 1.390 . S
C1894 C1888 1.465 1_455 S
C1894 C1893 1.396 . S
C1894 C1895 1.399 . S
C1895 H1881 0.929 . S
C1895 C1894 1.399 . S
C1895 C1896 1.385 . S
C1896 H1882 0.931 . S
C1896 C1895 1.385 . S
C1896 C1897 1.389 . S
C1897 C1896 1.389 . S
C1897 C1898 1.387 . S
C1898 H1883 0.930 . S
C1898 C1893 1.390 . S
C1898 C1897 1.387 . S
H1899 C1911 0.930 . S
H1900 C1913 0.930 . S
H1901 C1914 0.930 . S
H1902 C1918 0.959 . S
H1903 C1918 0.959 . S
H1904 C1918 0.961 . S
H1905 C1919 0.960 . S
H1906 C1919 0.961 . S
H1907 C1919 0.959 . S
H1908 C1922 0.929 . S
H1909 C1923 0.931 . S
H1910 C1925 0.930 . S
C1911 H1899 0.930 . S
C1911 C1912 1.399 . S
C1911 C1916 1.399 . S
C1912 C1911 1.399 . S
C1912 C1913 1.376 . S
C1913 H1900 0.930 . S
C1913 C1912 1.376 . S
C1913 C1914 1.388 . S
C1914 H1901 0.930 . S
C1914 C1913 1.388 . S
C1914 C1915 1.390 . S
C1915 C1914 1.390 . S
C1915 C1916 1.394 . S
C1915 C1921 1.465 . S
C1916 C1911 1.399 . S
C1916 C1915 1.394 . S
C1916 C1917 1.516 . S
C1917 C1916 1.516 . S
C1917 C1918 1.502 . S
C1917 C1919 1.561 . S
C1917 C1920 1.526 . S
C1918 H1902 0.959 . S
C1918 H1903 0.959 . S
C1918 H1904 0.961 . S
C1918 C1917 1.502 . S
C1919 H1905 0.960 . S
C1919 H1906 0.961 . S
C1919 H1907 0.959 . S
C1919 C1917 1.561 . S
C1920 C1917 1.526 . S
C1920 C1921 1.396 . S
C1920 C1925 1.390 . S
C1921 C1915 1.465 . S
C1921 C1920 1.396 . S
C1921 C1922 1.399 . S
C1922 H1908 0.929 . S
C1922 C1921 1.399 . S
C1922 C1923 1.385 . S
C1923 H1909 0.931 . S
C1923 C1922 1.385 . S
C1923 C1924 1.389 . S
C1924 C1923 1.389 . S
C1924 C1925 1.387 . S
C1925 H1910 0.930 . S
C1925 C1920 1.390 . S
C1925 C1924 1.387 . S
H1926 C1938 0.930 . S
H1927 C1940 0.930 . S
H1928 C1941 0.930 . S
H1929 C1945 0.959 . S
H1930 C1945 0.959 . S
H1931 C1945 0.961 . S
H1932 C1946 0.960 . S
H1933 C1946 0.961 . S
H1934 C1946 0.959 . S
H1935 C1949 0.929 . S
H1936 C1950 0.931 . S
H1937 C1952 0.930 . S
C1938 H1926 0.930 . S
C1938 C1939 1.399 . S
C1938 C1943 1.399 . S
C1939 C1938 1.399 . S
C1939 C1940 1.376 . S
C1940 H1927 0.930 . S
C1940 C1939 1.376 . S
C1940 C1941 1.388 . S
C1941 H1928 0.930 . S
C1941 C1940 1.388 . S
C1941 C1942 1.390 . S
C1942 C1941 1.390 . S
C1942 C1943 1.394 . S
C1942 C1948 1.465 . S
C1943 C1938 1.399 . S
C1943 C1942 1.394 . S
C1943 C1944 1.516 . S
C1944 C1943 1.516 . S
C1944 C1945 1.502 . S
C1944 C1946 1.561 . S
C1944 C1947 1.526 . S
C1945 H1929 0.959 . S
C1945 H1930 0.959 . S
C1945 H1931 0.961 . S
C1945 C1944 1.502 . S
C1946 H1932 0.960 . S
C1946 H1933 0.961 . S
C1946 H1934 0.959 . S
C1946 C1944 1.561 . S
C1947 C1944 1.526 . S
C1947 C1948 1.396 . S
C1947 C1952 1.390 . S
C1948 C1942 1.465 . S
C1948 C1947 1.396 . S
C1948 C1949 1.399 . S
C1949 H1935 0.929 . S
C1949 C1948 1.399 . S
C1949 C1950 1.385 . S
C1950 H1936 0.931 . S
C1950 C1949 1.385 . S
C1950 C1951 1.389 . S
C1951 C1950 1.389 . S
C1951 C1952 1.387 . S
C1952 H1937 0.930 . S
C1952 C1947 1.390 . S
C1952 C1951 1.387 . S
H1953 C1965 0.930 . S
H1954 C1967 0.930 . S
H1955 C1968 0.930 . S
H1956 C1972 0.959 . S
H1957 C1972 0.959 . S
H1958 C1972 0.961 . S
H1959 C1973 0.960 . S
H1960 C1973 0.961 . S
H1961 C1973 0.959 . S
H1962 C1976 0.929 . S
H1963 C1977 0.931 . S
H1964 C1979 0.930 . S
C1965 H1953 0.930 . S
C1965 C1966 1.399 . S
C1965 C1970 1.399 . S
C1966 C1965 1.399 . S
C1966 C1967 1.376 . S
C1967 H1954 0.930 . S
C1967 C1966 1.376 . S
C1967 C1968 1.388 . S
C1968 H1955 0.930 . S
C1968 C1967 1.388 . S
C1968 C1969 1.390 . S
C1969 C1968 1.390 . S
C1969 C1970 1.394 . S
C1969 C1975 1.465 . S
C1970 C1965 1.399 . S
C1970 C1969 1.394 . S
C1970 C1971 1.516 . S
C1971 C1970 1.516 . S
C1971 C1972 1.502 . S
C1971 C1973 1.561 . S
C1971 C1974 1.526 . S
C1972 H1956 0.959 . S
C1972 H1957 0.959 . S
C1972 H1958 0.961 . S
C1972 C1971 1.502 . S
C1973 H1959 0.960 . S
C1973 H1960 0.961 . S
C1973 H1961 0.959 . S
C1973 C1971 1.561 . S
C1974 C1971 1.526 . S
C1974 C1975 1.396 . S
C1974 C1979 1.390 . S
C1975 C1969 1.465 . S
C1975 C1974 1.396 . S
C1975 C1976 1.399 . S
C1976 H1962 0.929 . S
C1976 C1975 1.399 . S
C1976 C1977 1.385 . S
C1977 H1963 0.931 . S
C1977 C1976 1.385 . S
C1977 C1978 1.389 . S
C1978 C1977 1.389 . S
C1978 C1979 1.387 . S
C1979 H1964 0.930 . S
C1979 C1974 1.390 . S
C1979 C1978 1.387 . S
H1980 C1992 0.930 . S
H1981 C1994 0.930 . S
H1982 C1995 0.930 . S
H1983 C1999 0.959 . S
H1984 C1999 0.959 . S
H1985 C1999 0.961 . S
H1986 C2000 0.960 . S
H1987 C2000 0.961 . S
H1988 C2000 0.959 . S
H1989 C2003 0.929 . S
H1990 C2004 0.931 . S
H1991 C2006 0.930 . S
C1992 H1980 0.930 . S
C1992 C1993 1.399 . S
C1992 C1997 1.399 . S
C1993 C1992 1.399 . S
C1993 C1994 1.376 . S
C1994 H1981 0.930 . S
C1994 C1993 1.376 . S
C1994 C1995 1.388 . S
C1995 H1982 0.930 . S
C1995 C1994 1.388 . S
C1995 C1996 1.390 . S
C1996 C1995 1.390 . S
C1996 C1997 1.394 . S
C1996 C2002 1.465 . S
C1997 C1992 1.399 . S
C1997 C1996 1.394 . S
C1997 C1998 1.516 . S
C1998 C1997 1.516 . S
C1998 C1999 1.502 . S
C1998 C2000 1.561 . S
C1998 C2001 1.526 . S
C1999 H1983 0.959 . S
C1999 H1984 0.959 . S
C1999 H1985 0.961 . S
C1999 C1998 1.502 . S
C2000 H1986 0.960 . S
C2000 H1987 0.961 . S
C2000 H1988 0.959 . S
C2000 C1998 1.561 . S
C2001 C1998 1.526 . S
C2001 C2002 1.396 . S
C2001 C2006 1.390 . S
C2002 C1996 1.465 . S
C2002 C2001 1.396 . S
C2002 C2003 1.399 . S
C2003 H1989 0.929 . S
C2003 C2002 1.399 . S
C2003 C2004 1.385 . S
C2004 H1990 0.931 . S
C2004 C2003 1.385 . S
C2004 C2005 1.389 . S
C2005 C2004 1.389 . S
C2005 C2006 1.387 . S
C2006 H1991 0.930 . S
C2006 C2001 1.390 . S
C2006 C2005 1.387 . S
H2007 C2019 0.930 . S
H2008 C2021 0.930 . S
H2009 C2022 0.930 . S
H2010 C2026 0.959 . S
H2011 C2026 0.959 . S
H2012 C2026 0.961 . S
H2013 C2027 0.960 . S
H2014 C2027 0.961 . S
H2015 C2027 0.959 . S
H2016 C2030 0.929 . S
H2017 C2031 0.931 . S
H2018 C2033 0.930 . S
C2019 H2007 0.930 . S
C2019 C2020 1.399 . S
C2019 C2024 1.399 . S
C2020 C2019 1.399 . S
C2020 C2021 1.376 . S
C2021 H2008 0.930 . S
C2021 C2020 1.376 . S
C2021 C2022 1.388 . S
C2022 H2009 0.930 . S
C2022 C2021 1.388 . S
C2022 C2023 1.390 . S
C2023 C2022 1.390 . S
C2023 C2024 1.394 . S
C2023 C2029 1.465 . S
C2024 C2019 1.399 . S
C2024 C2023 1.394 . S
C2024 C2025 1.516 . S
C2025 C2024 1.516 . S
C2025 C2026 1.502 . S
C2025 C2027 1.561 . S
C2025 C2028 1.526 . S
C2026 H2010 0.959 . S
C2026 H2011 0.959 . S
C2026 H2012 0.961 . S
C2026 C2025 1.502 . S
C2027 H2013 0.960 . S
C2027 H2014 0.961 . S
C2027 H2015 0.959 . S
C2027 C2025 1.561 . S
C2028 C2025 1.526 . S
C2028 C2029 1.396 . S
C2028 C2033 1.390 . S
C2029 C2023 1.465 . S
C2029 C2028 1.396 . S
C2029 C2030 1.399 . S
C2030 H2016 0.929 . S
C2030 C2029 1.399 . S
C2030 C2031 1.385 . S
C2031 H2017 0.931 . S
C2031 C2030 1.385 . S
C2031 C2032 1.389 . S
C2032 C2031 1.389 . S
C2032 C2033 1.387 . S
C2033 H2018 0.930 . S
C2033 C2028 1.390 . S
C2033 C2032 1.387 . S
H2034 C2046 0.930 . S
H2035 C2048 0.930 . S
H2036 C2049 0.930 . S
H2037 C2053 0.959 . S
H2038 C2053 0.959 . S
H2039 C2053 0.961 . S
H2040 C2054 0.960 . S
H2041 C2054 0.961 . S
H2042 C2054 0.959 . S
H2043 C2057 0.929 . S
H2044 C2058 0.931 . S
H2045 C2060 0.930 . S
C2046 H2034 0.930 . S
C2046 C2047 1.399 . S
C2046 C2051 1.399 . S
C2047 C2046 1.399 . S
C2047 C2048 1.376 . S
C2048 H2035 0.930 . S
C2048 C2047 1.376 . S
C2048 C2049 1.388 . S
C2049 H2036 0.930 . S
C2049 C2048 1.388 . S
C2049 C2050 1.390 . S
C2050 C2049 1.390 . S
C2050 C2051 1.394 . S
C2050 C2056 1.465 . S
C2051 C2046 1.399 . S
C2051 C2050 1.394 . S
C2051 C2052 1.516 . S
C2052 C2051 1.516 . S
C2052 C2053 1.502 . S
C2052 C2054 1.561 . S
C2052 C2055 1.526 . S
C2053 H2037 0.959 . S
C2053 H2038 0.959 . S
C2053 H2039 0.961 . S
C2053 C2052 1.502 . S
C2054 H2040 0.960 . S
C2054 H2041 0.961 . S
C2054 H2042 0.959 . S
C2054 C2052 1.561 . S
C2055 C2052 1.526 . S
C2055 C2056 1.396 . S
C2055 C2060 1.390 . S
C2056 C2050 1.465 . S
C2056 C2055 1.396 . S
C2056 C2057 1.399 . S
C2057 H2043 0.929 . S
C2057 C2056 1.399 . S
C2057 C2058 1.385 . S
C2058 H2044 0.931 . S
C2058 C2057 1.385 . S
C2058 C2059 1.389 . S
C2059 C2058 1.389 . S
C2059 C2060 1.387 . S
C2060 H2045 0.930 . S
C2060 C2055 1.390 . S
C2060 C2059 1.387 . S
H2061 C2073 0.930 . S
H2062 C2075 0.930 . S
H2063 C2076 0.930 . S
H2064 C2080 0.959 . S
H2065 C2080 0.959 . S
H2066 C2080 0.961 . S
H2067 C2081 0.960 . S
H2068 C2081 0.961 . S
H2069 C2081 0.959 . S
H2070 C2084 0.929 . S
H2071 C2085 0.931 . S
H2072 C2087 0.930 . S
C2073 H2061 0.930 . S
C2073 C2074 1.399 . S
C2073 C2078 1.399 . S
C2074 C2073 1.399 . S
C2074 C2075 1.376 . S
C2075 H2062 0.930 . S
C2075 C2074 1.376 . S
C2075 C2076 1.388 . S
C2076 H2063 0.930 . S
C2076 C2075 1.388 . S
C2076 C2077 1.390 . S
C2077 C2076 1.390 . S
C2077 C2078 1.394 . S
C2077 C2083 1.465 . S
C2078 C2073 1.399 . S
C2078 C2077 1.394 . S
C2078 C2079 1.516 . S
C2079 C2078 1.516 . S
C2079 C2080 1.502 . S
C2079 C2081 1.561 . S
C2079 C2082 1.526 . S
C2080 H2064 0.959 . S
C2080 H2065 0.959 . S
C2080 H2066 0.961 . S
C2080 C2079 1.502 . S
C2081 H2067 0.960 . S
C2081 H2068 0.961 . S
C2081 H2069 0.959 . S
C2081 C2079 1.561 . S
C2082 C2079 1.526 . S
C2082 C2083 1.396 . S
C2082 C2087 1.390 . S
C2083 C2077 1.465 . S
C2083 C2082 1.396 . S
C2083 C2084 1.399 . S
C2084 H2070 0.929 . S
C2084 C2083 1.399 . S
C2084 C2085 1.385 . S
C2085 H2071 0.931 . S
C2085 C2084 1.385 . S
C2085 C2086 1.389 . S
C2086 C2085 1.389 . S
C2086 C2087 1.387 . S
C2087 H2072 0.930 . S
C2087 C2082 1.390 . S
C2087 C2086 1.387 . S
H2088 C2100 0.930 . S
H2089 C2102 0.930 . S
H2090 C2103 0.930 . S
H2091 C2107 0.959 . S
H2092 C2107 0.959 . S
H2093 C2107 0.961 . S
H2094 C2108 0.960 . S
H2095 C2108 0.961 . S
H2096 C2108 0.959 . S
H2097 C2111 0.929 . S
H2098 C2112 0.931 . S
H2099 C2114 0.930 . S
C2100 H2088 0.930 . S
C2100 C2101 1.399 . S
C2100 C2105 1.399 . S
C2101 C2100 1.399 . S
C2101 C2102 1.376 . S
C2102 H2089 0.930 . S
C2102 C2101 1.376 . S
C2102 C2103 1.388 . S
C2103 H2090 0.930 . S
C2103 C2102 1.388 . S
C2103 C2104 1.390 . S
C2104 C2103 1.390 . S
C2104 C2105 1.394 . S
C2104 C2110 1.465 . S
C2105 C2100 1.399 . S
C2105 C2104 1.394 . S
C2105 C2106 1.516 . S
C2106 C2105 1.516 . S
C2106 C2107 1.502 . S
C2106 C2108 1.561 . S
C2106 C2109 1.526 . S
C2107 H2091 0.959 . S
C2107 H2092 0.959 . S
C2107 H2093 0.961 . S
C2107 C2106 1.502 . S
C2108 H2094 0.960 . S
C2108 H2095 0.961 . S
C2108 H2096 0.959 . S
C2108 C2106 1.561 . S
C2109 C2106 1.526 . S
C2109 C2110 1.396 . S
C2109 C2114 1.390 . S
C2110 C2104 1.465 . S
C2110 C2109 1.396 . S
C2110 C2111 1.399 . S
C2111 H2097 0.929 . S
C2111 C2110 1.399 . S
C2111 C2112 1.385 . S
C2112 H2098 0.931 . S
C2112 C2111 1.385 . S
C2112 C2113 1.389 . S
C2113 C2112 1.389 . S
C2113 C2114 1.387 . S
C2114 H2099 0.930 . S
C2114 C2109 1.390 . S
C2114 C2113 1.387 . S
H2115 C2127 0.930 . S
H2116 C2129 0.930 . S
H2117 C2130 0.930 . S
H2118 C2134 0.959 . S
H2119 C2134 0.959 . S
H2120 C2134 0.961 . S
H2121 C2135 0.960 . S
H2122 C2135 0.961 . S
H2123 C2135 0.959 . S
H2124 C2138 0.929 . S
H2125 C2139 0.931 . S
H2126 C2141 0.930 . S
C2127 H2115 0.930 . S
C2127 C2128 1.399 . S
C2127 C2132 1.399 . S
C2128 C2127 1.399 . S
C2128 C2129 1.376 . S
C2129 H2116 0.930 . S
C2129 C2128 1.376 . S
C2129 C2130 1.388 . S
C2130 H2117 0.930 . S
C2130 C2129 1.388 . S
C2130 C2131 1.390 . S
C2131 C2130 1.390 . S
C2131 C2132 1.394 . S
C2131 C2137 1.465 . S
C2132 C2127 1.399 . S
C2132 C2131 1.394 . S
C2132 C2133 1.516 . S
C2133 C2132 1.516 . S
C2133 C2134 1.502 . S
C2133 C2135 1.561 . S
C2133 C2136 1.526 . S
C2134 H2118 0.959 . S
C2134 H2119 0.959 . S
C2134 H2120 0.961 . S
C2134 C2133 1.502 . S
C2135 H2121 0.960 . S
C2135 H2122 0.961 . S
C2135 H2123 0.959 . S
C2135 C2133 1.561 . S
C2136 C2133 1.526 . S
C2136 C2137 1.396 . S
C2136 C2141 1.390 . S
C2137 C2131 1.465 . S
C2137 C2136 1.396 . S
C2137 C2138 1.399 . S
C2138 H2124 0.929 . S
C2138 C2137 1.399 . S
C2138 C2139 1.385 . S
C2139 H2125 0.931 . S
C2139 C2138 1.385 . S
C2139 C2140 1.389 . S
C2140 C2139 1.389 . S
C2140 C2141 1.387 . S
C2141 H2126 0.930 . S
C2141 C2136 1.390 . S
C2141 C2140 1.387 . S
H2142 C2154 0.930 . S
H2143 C2156 0.930 . S
H2144 C2157 0.930 . S
H2145 C2161 0.959 . S
H2146 C2161 0.959 . S
H2147 C2161 0.961 . S
H2148 C2162 0.960 . S
H2149 C2162 0.961 . S
H2150 C2162 0.959 . S
H2151 C2165 0.929 . S
H2152 C2166 0.931 . S
H2153 C2168 0.930 . S
C2154 H2142 0.930 . S
C2154 C2155 1.399 . S
C2154 C2159 1.399 . S
C2155 C2154 1.399 . S
C2155 C2156 1.376 . S
C2156 H2143 0.930 . S
C2156 C2155 1.376 . S
C2156 C2157 1.388 . S
C2157 H2144 0.930 . S
C2157 C2156 1.388 . S
C2157 C2158 1.390 . S
C2158 C2157 1.390 . S
C2158 C2159 1.394 . S
C2158 C2164 1.465 . S
C2159 C2154 1.399 . S
C2159 C2158 1.394 . S
C2159 C2160 1.516 . S
C2160 C2159 1.516 . S
C2160 C2161 1.502 . S
C2160 C2162 1.561 . S
C2160 C2163 1.526 . S
C2161 H2145 0.959 . S
C2161 H2146 0.959 . S
C2161 H2147 0.961 . S
C2161 C2160 1.502 . S
C2162 H2148 0.960 . S
C2162 H2149 0.961 . S
C2162 H2150 0.959 . S
C2162 C2160 1.561 . S
C2163 C2160 1.526 . S
C2163 C2164 1.396 . S
C2163 C2168 1.390 . S
C2164 C2158 1.465 . S
C2164 C2163 1.396 . S
C2164 C2165 1.399 . S
C2165 H2151 0.929 . S
C2165 C2164 1.399 . S
C2165 C2166 1.385 . S
C2166 H2152 0.931 . S
C2166 C2165 1.385 . S
C2166 C2167 1.389 . S
C2167 C2166 1.389 . S
C2167 C2168 1.387 . S
C2168 H2153 0.930 . S
C2168 C2163 1.390 . S
C2168 C2167 1.387 . S
H2169 C2181 0.930 . S
H2170 C2183 0.930 . S
H2171 C2184 0.930 . S
H2172 C2188 0.959 . S
H2173 C2188 0.959 . S
H2174 C2188 0.961 . S
H2175 C2189 0.960 . S
H2176 C2189 0.961 . S
H2177 C2189 0.959 . S
H2178 C2192 0.929 . S
H2179 C2193 0.931 . S
H2180 C2195 0.930 . S
C2181 H2169 0.930 . S
C2181 C2182 1.399 . S
C2181 C2186 1.399 . S
C2182 C2181 1.399 . S
C2182 C2183 1.376 . S
C2183 H2170 0.930 . S
C2183 C2182 1.376 . S
C2183 C2184 1.388 . S
C2184 H2171 0.930 . S
C2184 C2183 1.388 . S
C2184 C2185 1.390 . S
C2185 C2184 1.390 . S
C2185 C2186 1.394 . S
C2185 C2191 1.465 . S
C2186 C2181 1.399 . S
C2186 C2185 1.394 . S
C2186 C2187 1.516 . S
C2187 C2186 1.516 . S
C2187 C2188 1.502 . S
C2187 C2189 1.561 . S
C2187 C2190 1.526 . S
C2188 H2172 0.959 . S
C2188 H2173 0.959 . S
C2188 H2174 0.961 . S
C2188 C2187 1.502 . S
C2189 H2175 0.960 . S
C2189 H2176 0.961 . S
C2189 H2177 0.959 . S
C2189 C2187 1.561 . S
C2190 C2187 1.526 . S
C2190 C2191 1.396 . S
C2190 C2195 1.390 . S
C2191 C2185 1.465 . S
C2191 C2190 1.396 . S
C2191 C2192 1.399 . S
C2192 H2178 0.929 . S
C2192 C2191 1.399 . S
C2192 C2193 1.385 . S
C2193 H2179 0.931 . S
C2193 C2192 1.385 . S
C2193 C2194 1.389 . S
C2194 C2193 1.389 . S
C2194 C2195 1.387 . S
C2195 H2180 0.930 . S
C2195 C2190 1.390 . S
C2195 C2194 1.387 . S
H2196 C2208 0.930 . S
H2197 C2210 0.930 . S
H2198 C2211 0.930 . S
H2199 C2215 0.959 . S
H2200 C2215 0.959 . S
H2201 C2215 0.961 . S
H2202 C2216 0.960 . S
H2203 C2216 0.961 . S
H2204 C2216 0.959 . S
H2205 C2219 0.929 . S
H2206 C2220 0.931 . S
H2207 C2222 0.930 . S
C2208 H2196 0.930 . S
C2208 C2209 1.399 . S
C2208 C2213 1.399 . S
C2209 C2208 1.399 . S
C2209 C2210 1.376 . S
C2210 H2197 0.930 . S
C2210 C2209 1.376 . S
C2210 C2211 1.388 . S
C2211 H2198 0.930 . S
C2211 C2210 1.388 . S
C2211 C2212 1.390 . S
C2212 C2211 1.390 . S
C2212 C2213 1.394 . S
C2212 C2218 1.465 . S
C2213 C2208 1.399 . S
C2213 C2212 1.394 . S
C2213 C2214 1.516 . S
C2214 C2213 1.516 . S
C2214 C2215 1.502 . S
C2214 C2216 1.561 . S
C2214 C2217 1.526 . S
C2215 H2199 0.959 . S
C2215 H2200 0.959 . S
C2215 H2201 0.961 . S
C2215 C2214 1.502 . S
C2216 H2202 0.960 . S
C2216 H2203 0.961 . S
C2216 H2204 0.959 . S
C2216 C2214 1.561 . S
C2217 C2214 1.526 . S
C2217 C2218 1.396 . S
C2217 C2222 1.390 . S
C2218 C2212 1.465 . S
C2218 C2217 1.396 . S
C2218 C2219 1.399 . S
C2219 H2205 0.929 . S
C2219 C2218 1.399 . S
C2219 C2220 1.385 . S
C2220 H2206 0.931 . S
C2220 C2219 1.385 . S
C2220 C2221 1.389 . S
C2221 C2220 1.389 . S
C2221 C2222 1.387 . S
C2222 H2207 0.930 . S
C2222 C2217 1.390 . S
C2222 C2221 1.387 . S
H2223 C2235 0.930 . S
H2224 C2237 0.930 . S
H2225 C2238 0.930 . S
H2226 C2242 0.959 . S
H2227 C2242 0.959 . S
H2228 C2242 0.961 . S
H2229 C2243 0.960 . S
H2230 C2243 0.961 . S
H2231 C2243 0.959 . S
H2232 C2246 0.929 . S
H2233 C2247 0.931 . S
H2234 C2249 0.930 . S
C2235 H2223 0.930 . S
C2235 C2236 1.399 . S
C2235 C2240 1.399 . S
C2236 C2235 1.399 . S
C2236 C2237 1.376 . S
C2237 H2224 0.930 . S
C2237 C2236 1.376 . S
C2237 C2238 1.388 . S
C2238 H2225 0.930 . S
C2238 C2237 1.388 . S
C2238 C2239 1.390 . S
C2239 C2238 1.390 . S
C2239 C2240 1.394 . S
C2239 C2245 1.465 . S
C2240 C2235 1.399 . S
C2240 C2239 1.394 . S
C2240 C2241 1.516 . S
C2241 C2240 1.516 . S
C2241 C2242 1.502 . S
C2241 C2243 1.561 . S
C2241 C2244 1.526 . S
C2242 H2226 0.959 . S
C2242 H2227 0.959 . S
C2242 H2228 0.961 . S
C2242 C2241 1.502 . S
C2243 H2229 0.960 . S
C2243 H2230 0.961 . S
C2243 H2231 0.959 . S
C2243 C2241 1.561 . S
C2244 C2241 1.526 . S
C2244 C2245 1.396 . S
C2244 C2249 1.390 . S
C2245 C2239 1.465 . S
C2245 C2244 1.396 . S
C2245 C2246 1.399 . S
C2246 H2232 0.929 . S
C2246 C2245 1.399 . S
C2246 C2247 1.385 . S
C2247 H2233 0.931 . S
C2247 C2246 1.385 . S
C2247 C2248 1.389 . S
C2248 C2247 1.389 . S
C2248 C2249 1.387 . S
C2249 H2234 0.930 . S
C2249 C2244 1.390 . S
C2249 C2248 1.387 . S
H2250 C2262 0.930 . S
H2251 C2264 0.930 . S
H2252 C2265 0.927 . S
H2253 C2269 0.959 . S
H2254 C2269 0.959 . S
H2255 C2269 0.961 . S
H2256 C2270 0.960 1_556 S
H2257 C2270 0.961 . S
H2258 C2270 0.959 1_656 S
H2259 C2273 0.929 1_556 S
H2260 C2274 0.931 . S
H2261 C2276 0.930 . S
C2262 H2250 0.930 . S
C2262 C2263 1.399 . S
C2262 C2267 1.399 . S
C2263 C2262 1.399 . S
C2263 C2264 1.376 . S
C2264 H2251 0.930 . S
C2264 C2263 1.376 . S
C2264 C2265 1.394 1_455 S
C2265 H2252 0.927 . S
C2265 C2264 1.394 1_655 S
C2265 C2266 1.385 1_655 S
C2266 C2265 1.385 1_455 S
C2266 C2267 1.392 . S
C2266 C2272 1.469 1_456 S
C2267 C2262 1.399 . S
C2267 C2266 1.392 . S
C2267 C2268 1.516 1_556 S
C2268 C2267 1.516 1_554 S
C2268 C2269 1.502 . S
C2268 C2270 1.561 . S
C2268 C2271 1.526 1_455 S
C2269 H2253 0.959 . S
C2269 H2254 0.959 . S
C2269 H2255 0.961 . S
C2269 C2268 1.502 . S
C2270 H2256 0.960 1_554 S
C2270 H2257 0.961 . S
C2270 H2258 0.959 1_454 S
C2270 C2268 1.561 . S
C2271 C2268 1.526 1_655 S
C2271 C2272 1.396 . S
C2271 C2276 1.390 . S
C2272 C2266 1.469 1_654 S
C2272 C2271 1.396 . S
C2272 C2273 1.399 . S
C2273 H2259 0.929 1_554 S
C2273 C2272 1.399 . S
C2273 C2274 1.385 . S
C2274 H2260 0.931 . S
C2274 C2273 1.385 . S
C2274 C2275 1.389 . S
C2275 C2274 1.389 . S
C2275 C2276 1.387 . S
C2276 H2261 0.930 . S
C2276 C2271 1.390 . S
C2276 C2275 1.387 . S
H2277 C2289 0.930 . S
H2278 C2291 0.930 . S
H2279 C2292 0.930 1_556 S
H2280 C2296 0.959 . S
H2281 C2296 0.959 . S
H2282 C2296 0.961 . S
H2283 C2297 0.960 . S
H2284 C2297 0.961 . S
H2285 C2297 0.959 . S
H2286 C2300 0.929 . S
H2287 C2301 0.931 . S
H2288 C2303 0.930 . S
C2289 H2277 0.930 . S
C2289 C2290 1.399 . S
C2289 C2294 1.399 . S
C2290 C2289 1.399 . S
C2290 C2291 1.376 . S
C2291 H2278 0.930 . S
C2291 C2290 1.376 . S
C2291 C2292 1.388 . S
C2292 H2279 0.930 1_554 S
C2292 C2291 1.388 . S
C2292 C2293 1.390 . S
C2293 C2292 1.390 . S
C2293 C2294 1.394 . S
C2293 C2299 1.465 1_554 S
C2294 C2289 1.399 . S
C2294 C2293 1.394 . S
C2294 C2295 1.516 . S
C2295 C2294 1.516 . S
C2295 C2296 1.502 . S
C2295 C2297 1.561 . S
C2295 C2298 1.526 1_554 S
C2296 H2280 0.959 . S
C2296 H2281 0.959 . S
C2296 H2282 0.961 . S
C2296 C2295 1.502 . S
C2297 H2283 0.960 . S
C2297 H2284 0.961 . S
C2297 H2285 0.959 . S
C2297 C2295 1.561 . S
C2298 C2295 1.526 1_556 S
C2298 C2299 1.396 . S
C2298 C2303 1.390 . S
C2299 C2293 1.465 1_556 S
C2299 C2298 1.396 . S
C2299 C2300 1.399 . S
C2300 H2286 0.929 . S
C2300 C2299 1.399 . S
C2300 C2301 1.385 . S
C2301 H2287 0.931 . S
C2301 C2300 1.385 . S
C2301 C2302 1.389 . S
C2302 C2301 1.389 . S
C2302 C2303 1.387 . S
C2303 H2288 0.930 . S
C2303 C2298 1.390 . S
C2303 C2302 1.387 . S
H2304 C2316 0.930 . S
H2305 C2318 0.930 . S
H2306 C2319 0.930 1_556 S
H2307 C2323 0.959 . S
H2308 C2323 0.959 . S
H2309 C2323 0.961 . S
H2310 C2324 0.960 . S
H2311 C2324 0.961 . S
H2312 C2324 0.959 . S
H2313 C2327 0.929 . S
H2314 C2328 0.931 . S
H2315 C2330 0.930 . S
C2316 H2304 0.930 . S
C2316 C2317 1.399 . S
C2316 C2321 1.399 . S
C2317 C2316 1.399 . S
C2317 C2318 1.376 . S
C2318 H2305 0.930 . S
C2318 C2317 1.376 . S
C2318 C2319 1.388 . S
C2319 H2306 0.930 1_554 S
C2319 C2318 1.388 . S
C2319 C2320 1.390 . S
C2320 C2319 1.390 . S
C2320 C2321 1.394 . S
C2320 C2326 1.465 1_554 S
C2321 C2316 1.399 . S
C2321 C2320 1.394 . S
C2321 C2322 1.516 1_545 S
C2322 C2321 1.516 1_565 S
C2322 C2323 1.502 . S
C2322 C2324 1.561 . S
C2322 C2325 1.526 1_554 S
C2323 H2307 0.959 . S
C2323 H2308 0.959 . S
C2323 H2309 0.961 . S
C2323 C2322 1.502 . S
C2324 H2310 0.960 . S
C2324 H2311 0.961 . S
C2324 H2312 0.959 . S
C2324 C2322 1.561 . S
C2325 C2322 1.526 1_556 S
C2325 C2326 1.396 1_565 S
C2325 C2330 1.390 . S
C2326 C2320 1.465 1_556 S
C2326 C2325 1.396 1_545 S
C2326 C2327 1.399 . S
C2327 H2313 0.929 . S
C2327 C2326 1.399 . S
C2327 C2328 1.385 1_545 S
C2328 H2314 0.931 . S
C2328 C2327 1.385 1_565 S
C2328 C2329 1.389 . S
C2329 C2328 1.389 . S
C2329 C2330 1.387 . S
C2330 H2315 0.930 . S
C2330 C2325 1.390 . S
C2330 C2329 1.387 . S
H2331 C2343 0.930 . S
H2332 C2345 0.930 . S
H2333 C2346 0.930 . S
H2334 C2350 0.959 . S
H2335 C2350 0.959 . S
H2336 C2350 0.961 . S
H2337 C2351 0.960 . S
H2338 C2351 0.961 . S
H2339 C2351 0.959 . S
H2340 C2354 0.929 1_556 S
H2341 C2355 0.931 . S
H2342 C2357 0.930 . S
C2343 H2331 0.930 . S
C2343 C2344 1.399 . S
C2343 C2348 1.399 . S
C2344 C2343 1.399 . S
C2344 C2345 1.376 . S
C2345 H2332 0.930 . S
C2345 C2344 1.376 . S
C2345 C2346 1.388 1_565 S
C2346 H2333 0.930 . S
C2346 C2345 1.388 1_545 S
C2346 C2347 1.394 . S
C2347 C2346 1.394 . S
C2347 C2348 1.363 1_545 S
C2347 C2353 1.490 1_556 S
C2348 C2343 1.399 . S
C2348 C2347 1.363 1_565 S
C2348 C2349 1.516 1_556 S
C2349 C2348 1.516 1_554 S
C2349 C2350 1.502 . S
C2349 C2351 1.561 . S
C2349 C2352 1.526 1_565 S
C2350 H2334 0.959 . S
C2350 H2335 0.959 . S
C2350 H2336 0.961 . S
C2350 C2349 1.502 . S
C2351 H2337 0.960 . S
C2351 H2338 0.961 . S
C2351 H2339 0.959 . S
C2351 C2349 1.561 . S
C2352 C2349 1.526 1_545 S
C2352 C2353 1.396 . S
C2352 C2357 1.390 . S
C2353 C2347 1.490 1_554 S
C2353 C2352 1.396 . S
C2353 C2354 1.399 . S
C2354 H2340 0.929 1_554 S
C2354 C2353 1.399 . S
C2354 C2355 1.385 . S
C2355 H2341 0.931 . S
C2355 C2354 1.385 . S
C2355 C2356 1.389 . S
C2356 C2355 1.389 . S
C2356 C2357 1.387 . S
C2357 H2342 0.930 . S
C2357 C2352 1.390 . S
C2357 C2356 1.387 . S
H2358 C2370 0.930 . S
H2359 C2372 0.930 . S
H2360 C2373 0.930 1_554 S
H2361 C2377 0.959 . S
H2362 C2377 0.959 . S
H2363 C2377 0.961 . S
H2364 C2378 0.960 . S
H2365 C2378 0.961 . S
H2366 C2378 0.959 . S
H2367 C2381 0.929 . S
H2368 C2382 0.931 . S
H2369 C2384 0.930 . S
C2370 H2358 0.930 . S
C2370 C2371 1.399 . S
C2370 C2375 1.399 . S
C2371 C2370 1.399 . S
C2371 C2372 1.376 . S
C2372 H2359 0.930 . S
C2372 C2371 1.376 . S
C2372 C2373 1.388 . S
C2373 H2360 0.930 1_556 S
C2373 C2372 1.388 . S
C2373 C2374 1.390 . S
C2374 C2373 1.390 . S
C2374 C2375 1.394 . S
C2374 C2380 1.510 1_556 S
C2375 C2370 1.399 . S
C2375 C2374 1.394 . S
C2375 C2376 1.516 1_455 S
C2376 C2375 1.516 1_655 S
C2376 C2377 1.502 . S
C2376 C2378 1.561 . S
C2376 C2379 1.526 1_556 S
C2377 H2361 0.959 . S
C2377 H2362 0.959 . S
C2377 H2363 0.961 . S
C2377 C2376 1.502 . S
C2378 H2364 0.960 . S
C2378 H2365 0.961 . S
C2378 H2366 0.959 . S
C2378 C2376 1.561 . S
C2379 C2376 1.526 1_554 S
C2379 C2380 1.356 1_655 S
C2379 C2384 1.390 . S
C2380 C2374 1.510 1_554 S
C2380 C2379 1.356 1_455 S
C2380 C2381 1.395 . S
C2381 H2367 0.929 . S
C2381 C2380 1.395 . S
C2381 C2382 1.385 1_455 S
C2382 H2368 0.931 . S
C2382 C2381 1.385 1_655 S
C2382 C2383 1.389 . S
C2383 C2382 1.389 . S
C2383 C2384 1.387 . S
C2384 H2369 0.930 . S
C2384 C2379 1.390 . S
C2384 C2383 1.387 . S
H2385 C2397 0.930 . S
H2386 C2399 0.930 . S
H2387 C2400 0.930 . S
H2388 C2404 0.959 . S
H2389 C2404 0.959 . S
H2390 C2404 0.961 . S
H2391 C2405 0.960 . S
H2392 C2405 0.961 . S
H2393 C2405 0.959 . S
H2394 C2408 0.929 . S
H2395 C2409 0.931 . S
H2396 C2411 0.930 . S
C2397 H2385 0.930 . S
C2397 C2398 1.399 . S
C2397 C2402 1.399 . S
C2398 C2397 1.399 . S
C2398 C2399 1.376 . S
C2399 H2386 0.930 . S
C2399 C2398 1.376 . S
C2399 C2400 1.388 . S
C2400 H2387 0.930 . S
C2400 C2399 1.388 . S
C2400 C2401 1.390 . S
C2401 C2400 1.390 . S
C2401 C2402 1.394 . S
C2401 C2407 1.465 1_554 S
C2402 C2397 1.399 . S
C2402 C2401 1.394 . S
C2402 C2403 1.516 1_554 S
C2403 C2402 1.516 1_556 S
C2403 C2404 1.502 . S
C2403 C2405 1.561 . S
C2403 C2406 1.526 . S
C2404 H2388 0.959 . S
C2404 H2389 0.959 . S
C2404 H2390 0.961 . S
C2404 C2403 1.502 . S
C2405 H2391 0.960 . S
C2405 H2392 0.961 . S
C2405 H2393 0.959 . S
C2405 C2403 1.561 . S
C2406 C2403 1.526 . S
C2406 C2407 1.396 . S
C2406 C2411 1.390 . S
C2407 C2401 1.465 1_556 S
C2407 C2406 1.396 . S
C2407 C2408 1.399 . S
C2408 H2394 0.929 . S
C2408 C2407 1.399 . S
C2408 C2409 1.385 . S
C2409 H2395 0.931 . S
C2409 C2408 1.385 . S
C2409 C2410 1.389 . S
C2410 C2409 1.389 . S
C2410 C2411 1.387 . S
C2411 H2396 0.930 . S
C2411 C2406 1.390 . S
C2411 C2410 1.387 . S
C481 C5 1.103 . S
C493 C148 1.117 . S
C508 C18 1.201 . S
C520 C122 1.192 . S
C535 C135 1.193 . S
C547 C31 1.180 . S
C562 C44 1.097 . S
C574 C96 1.110 . S
C589 C109 1.198 . S
C601 C57 1.202 . S
C616 C70 1.198 . S
C628 C83 1.187 . S
C643 C304 1.199 . S
C655 C161 1.188 . S
C670 C174 1.089 . S
C682 C278 1.090 . S
C697 C187 1.193 . S
C709 C291 1.181 . S
C724 C252 1.088 . S
C736 C200 1.094 . S
C751 C213 1.195 . S
C763 C265 1.183 . S
C778 C239 1.145 . S
C790 C226 1.163 . S
C805 C317 1.182 . S
C817 C460 1.166 . S
C832 C434 1.111 . S
C844 C330 1.127 . S
C859 C447 1.117 . S
C871 C343 1.134 . S
C886 C408 1.185 . S
C898 C356 1.170 . S
C913 C421 1.189 . S
C925 C369 1.175 . S
C940 C395 1.162 . S
C952 C382 1.144 . S
C967 C0 1.153 . S
C979 C52 1.156 . S
C994 C65 1.174 . S
C1006 C13 1.163 . S
C1021 C26 1.165 . S
C1033 C39 1.157 . S
C1048 C78 1.162 . S
C1060 C130 1.155 . S
C1075 C91 1.215 . S
C1087 C143 1.224 . S
C1102 C104 1.216 . S
C1114 C117 1.182 . S
C1129 C208 1.154 . S
C1141 C156 1.155 . S
C1156 C221 1.169 . S
C1168 C169 1.159 . S
C1183 C182 1.203 . S
C1195 C195 1.215 . S
C1210 C286 1.210 . S
C1222 C234 1.175 . S
C1237 C299 1.161 . S
C1249 C247 1.194 . S
C1264 C260 1.223 . S
C1276 C273 1.195 . S
C1291 C364 1.165 . S
C1303 C312 1.179 . S
C1318 C325 1.196 . S
C1330 C377 1.181 . S
C1345 C338 1.197 . S
C1357 C351 1.210 . S
C1372 C442 1.225 . S
C1384 C390 1.208 . S
C1399 C403 1.163 . S
C1411 C455 1.157 . S
C1426 C429 1.216 . S
C1438 C416 1.183 . S
C1453 C385 1.260 . S
C1465 C8 1.268 . S
C1480 C21 1.246 . S
C1492 C359 1.261 . S
C1507 C34 1.226 . S
C1519 C372 1.245 . S
C1534 C47 1.232 . S
C1546 C177 1.250 . S
C1561 C190 1.214 . S
C1573 C60 1.233 . S
C1588 C164 1.196 . S
C1600 C73 1.210 . S
C1615 C86 1.266 . S
C1627 C307 1.263 . S
C1642 C99 1.270 . S
C1654 C281 1.269 . S
C1669 C112 1.269 . S
C1681 C294 1.269 . S
C1696 C411 1.219 . S
C1708 C125 1.215 . S
C1723 C424 1.190 . S
C1735 C138 1.190 . S
C1750 C151 1.254 . S
C1762 C398 1.249 . S
C1777 C333 1.243 . S
C1789 C203 1.259 . S
C1804 C216 1.269 . S
C1816 C346 1.266 . S
C1831 C320 1.267 . S
C1843 C229 1.255 . S
C1858 C463 1.210 . S
C1870 C242 1.215 . S
C1885 C255 1.260 . S
C1897 C437 1.263 . S
C1912 C268 1.222 . S
C1924 C450 1.228 . S
C1939 C10 1.623 . S
C1951 C387 1.665 . S
C1966 C361 1.668 . S
C1978 C23 1.620 . S
C1993 C36 1.664 . S
C2005 C374 1.629 . S
C2020 C179 1.625 . S
C2032 C49 1.667 . S
C2047 C62 1.660 . S
C2059 C192 1.627 . S
C2074 C75 1.649 . S
C2086 C166 1.645 . S
C2101 C309 1.619 . S
C2113 C88 1.661 . S
C2128 C101 1.625 . S
C2140 C283 1.648 . S
C2155 C114 1.621 . S
C2167 C296 1.655 . S
C2182 C127 1.629 . S
C2194 C413 1.642 . S
C2209 C426 1.670 . S
C2221 C140 1.625 . S
C2236 C153 1.665 . S
C2248 C400 1.620 . S
C2263 C335 1.624 . S
C2275 C205 1.668 . S
C2290 C218 1.670 . S
C2302 C348 1.620 . S
C2317 C231 1.670 . S
C2329 C322 1.620 . S
C2344 C465 1.628 . S
C2356 C244 1.670 . S
C2371 C439 1.670 . S
C2383 C257 1.624 . S
C2398 C270 1.645 . S
C2410 C452 1.663 . S
