# Generated by pormake.
# Topology qdl, (4)-cn, num edge types: 1
# Building blocks:
#     Node 0, Type 0, BuildingBlock: MUDLON_clean_sbu_0, # of connection points: 4
#     Node 1, Type 0, BuildingBlock: MUDLON_clean_sbu_0, # of connection points: 4
#     Node 2, Type 0, BuildingBlock: MUDLON_clean_sbu_0, # of connection points: 4
#     Node 3, Type 0, BuildingBlock: MUDLON_clean_sbu_0, # of connection points: 4
#     Node 4, Type 0, BuildingBlock: MUDLON_clean_sbu_0, # of connection points: 4
#     Node 5, Type 0, BuildingBlock: MUDLON_clean_sbu_0, # of connection points: 4
#     Edge 6, Type (0, 0), BuildingBlock: TEMPAE_clean_linker_10, # of connection points: 2
#     Edge 7, Type (0, 0), BuildingBlock: TEMPAE_clean_linker_10, # of connection points: 2
#     Edge 8, Type (0, 0), BuildingBlock: TEMPAE_clean_linker_10, # of connection points: 2
#     Edge 9, Type (0, 0), BuildingBlock: TEMPAE_clean_linker_10, # of connection points: 2
#     Edge 10, Type (0, 0), BuildingBlock: TEMPAE_clean_linker_10, # of connection points: 2
#     Edge 11, Type (0, 0), BuildingBlock: TEMPAE_clean_linker_10, # of connection points: 2
#     Edge 12, Type (0, 0), BuildingBlock: TEMPAE_clean_linker_10, # of connection points: 2
#     Edge 13, Type (0, 0), BuildingBlock: TEMPAE_clean_linker_10, # of connection points: 2
#     Edge 14, Type (0, 0), BuildingBlock: TEMPAE_clean_linker_10, # of connection points: 2
#     Edge 15, Type (0, 0), BuildingBlock: TEMPAE_clean_linker_10, # of connection points: 2
#     Edge 16, Type (0, 0), BuildingBlock: TEMPAE_clean_linker_10, # of connection points: 2
#     Edge 17, Type (0, 0), BuildingBlock: TEMPAE_clean_linker_10, # of connection points: 2
# Relax obj value: 0.001
# Max RMSD: 0.014
# Mean RMSD: 0.013
data_MOF--net-qdl--node1-MUDLON_clean_sbu_0--edge1-TEMPAE_clean_linker_10
_symmetry_space_group_name_H-M    P1
_symmetry_Int_Tables_number       1
_symmetry_cell_setting            triclinic
loop_
_symmetry_equiv_pos_as_xyz
'x, y, z'
_cell_length_a     15.447838
_cell_length_b     15.44071
_cell_length_c     91.141691
_cell_angle_alpha  90.005934
_cell_angle_beta   91.417448
_cell_angle_gamma 120.5654
loop_
_atom_site_label
_atom_site_type_symbol
_atom_site_fract_x
_atom_site_fract_y
_atom_site_fract_z
_atom_type_partial_charge
Mg0 Mg 0.86407 0.97413 0.10478 0.0
C1 C 0.81742 0.76769 0.11208 0.0
O2 O 0.89651 0.82602 0.12047 0.0
C3 C 0.83338 0.14095 0.09649 0.0
O4 O 0.92441 0.16854 0.09225 0.0
C5 C 1.01524 0.04169 0.13264 0.0
O6 O 0.08583 0.04958 0.12403 0.0
O7 O 0.92912 1.01732 0.12713 0.0
O8 O 0.77884 0.80851 0.10424 0.0
O9 O 0.96234 1.01597 0.08586 0.0
C10 C 0.91942 0.96047 0.07454 0.0
O11 O 0.82733 0.88407 0.07563 0.0
O12 O 0.78114 0.05397 0.102 0.0
Mg13 Mg 0.1969 0.24453 0.43909 0.0
C14 C 0.02918 0.2754 0.43147 0.0
O15 O 1.00065 0.18409 0.42675 0.0
C16 C 0.40155 0.28618 0.44666 0.0
O17 O 0.34212 0.2046 0.45395 0.0
C18 C 0.11036 0.08958 0.46592 0.0
O19 O 0.07656 1.01224 0.45686 0.0
O20 O 0.1552 0.17843 0.46092 0.0
O21 O 0.11745 0.32819 0.43713 0.0
O22 O 0.15483 0.15231 0.41895 0.0
C23 C 0.19947 0.20681 0.40798 0.0
O24 O 0.26441 0.30272 0.41044 0.0
O25 O 0.36196 0.32837 0.43938 0.0
Mg26 Mg 0.07077 0.94328 0.77122 0.0
C27 C 0.88974 0.74708 0.77302 0.0
O28 O 0.86187 0.81403 0.7745 0.0
C29 C 0.28654 0.05991 0.76139 0.0
O30 O 0.23972 0.04553 0.7486 0.0
C31 C 0.09662 0.06111 0.79944 0.0
O32 O 0.18628 0.11841 0.79409 0.0
O33 O 0.03006 0.98841 0.79156 0.0
O34 O 0.98289 0.77878 0.7715 0.0
O35 O 0.03327 0.98977 0.75035 0.0
C36 C 0.99856 0.92585 0.73977 0.0
O37 O 0.97991 0.83415 0.74216 0.0
O38 O 0.23484 1.01608 0.77255 0.0
Mg39 Mg 0.09692 0.1933 0.6038 0.0
C40 C 0.31135 0.26805 0.61416 0.0
O41 O 0.26171 0.21508 0.62548 0.0
C42 C 0.92076 0.2148 0.59846 0.0
O43 O 0.89265 0.12206 0.59453 0.0
C44 C 0.11856 0.09323 0.57626 0.0
O45 O 0.20664 0.12201 0.58257 0.0
O46 O 0.05495 0.10552 0.58321 0.0
O47 O 0.26255 0.28164 0.60382 0.0
O48 O 0.05474 0.1071 0.62425 0.0
C49 C 1.00652 0.12446 0.63385 0.0
O50 O 0.9746 0.18668 0.6307 0.0
O51 O 1.01186 0.27231 0.60281 0.0
Mg52 Mg 0.15293 1.00599 0.93943 0.0
C53 C 0.39375 0.10543 0.94166 0.0
O54 O 0.38341 0.02437 0.94798 0.0
C55 C 1.00478 0.79605 0.94788 0.0
O56 O 0.97939 0.85127 0.95555 0.0
C57 C 0.11466 0.99148 0.9081 0.0
O58 O 0.16054 0.94142 0.91122 0.0
O59 O 0.09459 0.03161 0.91871 0.0
O60 O 0.31587 0.10828 0.93753 0.0
O61 O 0.1162 0.05001 0.96025 0.0
C62 C 0.1654 0.04347 0.97122 0.0
O63 O 0.23315 0.01826 0.96871 0.0
O64 O 0.08272 0.84055 0.94006 0.0
Mg65 Mg 0.91632 0.97076 0.27103 0.0
C66 C 0.9015 0.15038 0.26991 0.0
O67 O 0.99736 0.17902 0.2694 0.0
C68 C 0.82696 0.75353 0.2808 0.0
O69 O 0.86442 0.79978 0.29347 0.0
C70 C 0.99977 0.9544 0.2419 0.0
O71 O 0.95345 0.85953 0.24572 0.0
O72 O 1.00438 0.01946 0.25099 0.0
O73 O 0.83811 0.05636 0.27053 0.0
O74 O 1.00113 1.01297 0.2921 0.0
C75 C 0.95564 0.02493 0.3027 0.0
O76 O 0.8666 1.01397 0.30004 0.0
O77 O 0.82855 0.80532 0.26982 0.0
C78 C 0.82764 0.61863 0.12 0.0
C79 C 0.78564 0.65962 0.11045 0.0
C80 C 0.81485 0.52333 0.11736 0.0
C81 C 0.75764 0.4664 0.1049 0.0
C82 C 0.70828 0.50373 0.09584 0.0
C83 C 0.72323 0.6003 0.09867 0.0
C84 C 0.86908 0.48703 0.12735 0.0
C85 C 0.64484 0.44455 0.08263 0.0
C86 C 0.86027 0.30922 0.08979 0.0
C87 C 0.80063 0.21638 0.09656 0.0
C88 C 0.84267 0.38904 0.09165 0.0
C89 C 0.7626 0.37596 0.10042 0.0
C90 C 0.69716 0.28012 0.10637 0.0
C91 C 0.71719 0.20138 0.10443 0.0
C92 C 0.91458 0.48964 0.08508 0.0
C93 C 0.60964 0.26237 0.1155 0.0
H94 H 0.87486 0.66313 0.12926 0.0
H95 H 0.69 0.63102 0.09126 0.0
H96 H 0.81676 0.4092 0.13093 0.0
H97 H 0.92987 0.48582 0.12128 0.0
H98 H 0.90312 0.53592 0.13726 0.0
H99 H 0.59634 0.47366 0.07849 0.0
H100 H 0.69458 0.44961 0.07369 0.0
H101 H 0.5966 0.36385 0.08529 0.0
H102 H 0.92409 0.32136 0.0835 0.0
H103 H 0.67022 0.12976 0.10962 0.0
H104 H 0.95904 0.54459 0.094 0.0
H105 H 0.87257 0.51934 0.07894 0.0
H106 H 0.96761 0.48515 0.07753 0.0
H107 H 0.63786 0.29756 0.12651 0.0
H108 H 0.55559 0.18088 0.11694 0.0
H109 H 0.56925 0.29759 0.1104 0.0
C110 C 0.56944 0.38369 0.4346 0.0
C111 C 0.50939 0.31749 0.44548 0.0
C112 C 0.66595 0.39922 0.43202 0.0
C113 C 0.70262 0.34683 0.44046 0.0
C114 C 0.64492 0.28551 0.4521 0.0
C115 C 0.54953 0.27198 0.45448 0.0
C116 C 0.72582 0.46672 0.4197 0.0
C117 C 0.68063 0.2281 0.4614 0.0
C118 C 0.86115 0.24998 0.42425 0.0
C119 C 0.95368 0.30788 0.43182 0.0
C120 C 0.78101 0.26653 0.42626 0.0
C121 C 0.7934 0.34359 0.43602 0.0
C122 C 0.88892 0.40743 0.44285 0.0
C123 C 0.96808 0.38866 0.4407 0.0
C124 C 0.68082 0.19654 0.4187 0.0
C125 C 0.90582 0.4916 0.45312 0.0
H126 H 0.53934 0.41961 0.42763 0.0
H127 H 0.50442 0.22175 0.46306 0.0
H128 H 0.80623 0.51444 0.42308 0.0
H129 H 0.72182 0.41994 0.41018 0.0
H130 H 0.69659 0.51601 0.41607 0.0
H131 H 0.63132 0.19105 0.47083 0.0
H132 H 0.68196 0.16931 0.45457 0.0
H133 H 0.75834 0.27908 0.4657 0.0
H134 H 0.84957 0.18828 0.41719 0.0
H135 H 0.03944 0.43416 0.44654 0.0
H136 H 0.65095 0.24013 0.41311 0.0
H137 H 0.62568 0.14897 0.42699 0.0
H138 H 0.68598 0.14639 0.41047 0.0
H139 H 0.87081 0.53345 0.4485 0.0
H140 H 0.98713 0.54518 0.45535 0.0
H141 H 0.86985 0.45965 0.4637 0.0
C142 C 0.83737 0.56362 0.77061 0.0
C143 C 0.81199 0.63837 0.77224 0.0
C144 C 0.7621 0.46118 0.76932 0.0
C145 C 0.65937 0.43325 0.76954 0.0
C146 C 0.63376 0.50844 0.77139 0.0
C147 C 0.71007 0.60952 0.77277 0.0
C148 C 0.79232 0.38307 0.76752 0.0
C149 C 0.52533 0.48248 0.77162 0.0
C150 C 0.44486 0.19996 0.75113 0.0
C151 C 0.39275 0.14304 0.76328 0.0
C152 C 0.53628 0.29128 0.75294 0.0
C153 C 0.5772 0.32651 0.76725 0.0
C154 C 0.52951 0.26522 0.77946 0.0
C155 C 0.43774 0.17431 0.77734 0.0
C156 C 0.58439 0.35396 0.7396 0.0
C157 C 0.57116 0.29921 0.79488 0.0
H158 H 0.91587 0.58513 0.77023 0.0
H159 H 0.6893 0.66635 0.77405 0.0
H160 H 0.75584 0.32382 0.77587 0.0
H161 H 0.76608 0.34585 0.75659 0.0
H162 H 0.87507 0.41609 0.76855 0.0
H163 H 0.51815 0.54972 0.7734 0.0
H164 H 0.4865 0.44597 0.76106 0.0
H165 H 0.48553 0.42814 0.78045 0.0
H166 H 0.41146 0.17621 0.7402 0.0
H167 H 0.39866 0.1307 0.7868 0.0
H168 H 0.66658 0.3836 0.73991 0.0
H169 H 0.57322 0.41952 0.73955 0.0
H170 H 0.5516 0.31053 0.72921 0.0
H171 H 0.65376 0.33112 0.79535 0.0
H172 H 0.53592 0.23667 0.8028 0.0
H173 H 0.5567 0.35938 0.79842 0.0
C174 C 0.46754 0.33348 0.59922 0.0
C175 C 0.4171 0.29273 0.61231 0.0
C176 C 0.56024 0.34013 0.59654 0.0
C177 C 0.60283 0.30395 0.60708 0.0
C178 C 0.55538 0.26887 0.62067 0.0
C179 C 0.46384 0.26441 0.62314 0.0
C180 C 0.60933 0.38013 0.58204 0.0
C181 C 0.59723 0.22875 0.63221 0.0
C182 C 0.74394 0.17625 0.59469 0.0
C183 C 0.8435 0.24511 0.59924 0.0
C184 C 0.66618 0.19651 0.59668 0.0
C185 C 0.68791 0.28874 0.60326 0.0
C186 C 0.78899 0.36103 0.60722 0.0
C187 C 0.86563 0.33818 0.60524 0.0
C188 C 0.55974 0.11676 0.59234 0.0
C189 C 0.81563 0.46097 0.61401 0.0
H190 H 0.43263 0.35617 0.5908 0.0
H191 H 0.42629 0.23355 0.63335 0.0
H192 H 0.69167 0.431 0.58366 0.0
H193 H 0.59751 0.31659 0.5749 0.0
H194 H 0.57759 0.42147 0.57622 0.0
H195 H 0.55708 0.21333 0.6427 0.0
H196 H 0.5904 0.1577 0.62815 0.0
H197 H 0.67826 0.28285 0.63443 0.0
H198 H 0.7257 0.10439 0.58993 0.0
H199 H 0.94225 0.3921 0.60873 0.0
H200 H 0.52536 0.14859 0.58491 0.0
H201 H 0.51341 0.09001 0.60226 0.0
H202 H 0.55602 0.05098 0.58675 0.0
H203 H 0.77946 0.49596 0.60764 0.0
H204 H 0.89818 0.51401 0.61458 0.0
H205 H 0.78688 0.44935 0.6253 0.0
C206 C 0.50324 0.28616 0.93473 0.0
C207 C 0.4947 0.19839 0.94072 0.0
C208 C 0.59521 0.37779 0.93516 0.0
C209 C 0.68178 0.38252 0.94167 0.0
C210 C 0.6751 0.29326 0.94707 0.0
C211 C 0.58168 0.20239 0.94658 0.0
C212 C 0.59836 0.47078 0.92927 0.0
C213 C 0.7656 0.29462 0.95396 0.0
C214 C 0.92812 0.62732 0.93491 0.0
C215 C 0.93467 0.68529 0.9472 0.0
C216 C 0.84905 0.52652 0.93324 0.0
C217 C 0.77535 0.48279 0.94415 0.0
C218 C 0.78573 0.53934 0.95699 0.0
C219 C 0.86481 0.63949 0.95833 0.0
C220 C 0.84121 0.46883 0.91943 0.0
C221 C 0.7098 0.49613 0.96898 0.0
H222 H 0.43704 0.28429 0.93008 0.0
H223 H 0.57638 0.13517 0.95117 0.0
H224 H 0.61288 0.52409 0.93846 0.0
H225 H 0.66069 0.50963 0.92154 0.0
H226 H 0.52687 0.45324 0.92353 0.0
H227 H 0.75165 0.21757 0.9559 0.0
H228 H 0.83158 0.33496 0.94687 0.0
H229 H 0.78539 0.33573 0.96463 0.0
H230 H 0.98145 0.66216 0.92623 0.0
H231 H 0.86977 0.68336 0.96794 0.0
H232 H 0.77763 0.4604 0.9124 0.0
H233 H 0.82539 0.39211 0.9221 0.0
H234 H 0.91096 0.5075 0.91303 0.0
H235 H 0.63629 0.48382 0.96477 0.0
H236 H 0.73328 0.54651 0.9788 0.0
H237 H 0.69817 0.42208 0.97239 0.0
C238 C 0.77123 0.20303 0.27175 0.0
C239 C 0.8717 0.22818 0.27039 0.0
C240 C 0.7457 0.27858 0.27283 0.0
C241 C 0.82246 0.3814 0.27263 0.0
C242 C 0.92352 0.40672 0.27098 0.0
C243 C 0.94665 0.33021 0.26985 0.0
C244 C 0.63703 0.24854 0.27444 0.0
C245 C 1.00811 0.51509 0.27076 0.0
C246 C 0.78868 0.60462 0.26475 0.0
C247 C 0.80358 0.6479 0.27882 0.0
C248 C 0.78652 0.51314 0.26263 0.0
C249 C 0.79987 0.46387 0.27485 0.0
C250 C 0.8071 0.50331 0.28916 0.0
C251 C 0.80864 0.59448 0.29096 0.0
C252 C 0.77743 0.4733 0.24721 0.0
C253 C 0.8214 0.45361 0.30252 0.0
H254 H 0.71275 0.12454 0.27214 0.0
H255 H 1.02454 0.35096 0.26875 0.0
H256 H 0.62686 0.27321 0.28537 0.0
H257 H 0.615 0.28652 0.26608 0.0
H258 H 0.58557 0.16594 0.2733 0.0
H259 H 0.08234 0.52214 0.26902 0.0
H260 H 0.99377 0.55587 0.2619 0.0
H261 H 1.01209 0.55304 0.2813 0.0
H262 H 0.78411 0.64476 0.25528 0.0
H263 H 0.81914 0.62647 0.3019 0.0
H264 H 0.72497 0.39077 0.24668 0.0
H265 H 0.85203 0.48778 0.24378 0.0
H266 H 0.75074 0.50975 0.23925 0.0
H267 H 0.76691 0.37152 0.3022 0.0
H268 H 0.81244 0.48563 0.3129 0.0
H269 H 0.89804 0.46413 0.30262 0.0
C270 C 1.0133 0.906 0.2162 0.0
C271 C 0.02936 0.98135 0.22639 0.0
C272 C 1.02465 0.9253 0.20109 0.0
C273 C 0.05365 0.02269 0.19596 0.0
C274 C 0.07644 0.10081 0.20625 0.0
C275 C 0.06369 0.07919 0.22133 0.0
C276 C 0.99948 0.83962 0.19056 0.0
C277 C 0.10907 0.20603 0.20128 0.0
C278 C 0.12168 0.06848 0.15556 0.0
C279 C 0.02995 0.04778 0.14892 0.0
C280 C 0.13221 0.06488 0.17092 0.0
C281 C 0.04883 0.039 0.17985 0.0
C282 C 0.95727 0.02143 0.17323 0.0
C283 C 0.94916 0.0265 0.15792 0.0
C284 C 0.23153 0.08556 0.17755 0.0
C285 C 0.8662 0.9932 0.18228 0.0
H286 H 0.98745 0.83029 0.21994 0.0
H287 H 0.07685 0.13817 0.22909 0.0
H288 H 0.93044 0.82109 0.18403 0.0
H289 H 0.06094 0.86174 0.18274 0.0
H290 H 0.9866 0.77079 0.19631 0.0
H291 H 0.13747 0.26095 0.21059 0.0
H292 H 0.16878 0.23093 0.19308 0.0
H293 H 0.04433 0.20689 0.19589 0.0
H294 H 0.18476 0.08544 0.14874 0.0
H295 H 0.87795 1.01067 0.15298 0.0
H296 H 0.22324 1.01512 0.18208 0.0
H297 H 0.25521 0.1405 0.18679 0.0
H298 H 0.29188 0.11522 0.16938 0.0
H299 H 0.84167 0.92017 0.18767 0.0
H300 H 0.80204 0.98649 0.17556 0.0
H301 H 0.88533 0.05023 0.19109 0.0
C302 C 1.01611 0.05306 0.55269 0.0
C303 C 0.10128 0.0645 0.56039 0.0
C304 C 1.00756 0.04284 0.53729 0.0
C305 C 0.08596 0.04405 0.52937 0.0
C306 C 0.1688 0.04881 0.53716 0.0
C307 C 0.17543 0.05893 0.55254 0.0
C308 C 0.91757 0.0372 0.52946 0.0
C309 C 0.25388 0.04984 0.5292 0.0
C310 C 0.05347 0.97956 0.48831 0.0
C311 C 0.10031 0.07566 0.48211 0.0
C312 C 0.04673 0.96753 0.50366 0.0
C313 C 0.08801 0.05355 0.51303 0.0
C314 C 0.13432 0.15045 0.5068 0.0
C315 C 0.13977 0.16023 0.49149 0.0
C316 C 0.99649 0.86297 0.50987 0.0
C317 C 0.17951 0.24436 0.51632 0.0
H318 H 0.95807 0.05673 0.55862 0.0
H319 H 0.24121 0.06686 0.55835 0.0
H320 H 0.94113 0.10911 0.52378 0.0
H321 H 0.88625 0.97656 0.52096 0.0
H322 H 0.85724 0.02345 0.53713 0.0
H323 H 0.30655 0.04177 0.53681 0.0
H324 H 0.22414 0.98832 0.52086 0.0
H325 H 0.29679 0.12191 0.52333 0.0
H326 H 1.02261 0.9137 0.48119 0.0
H327 H 0.17605 0.23493 0.48689 0.0
H328 H 0.93513 0.85154 0.51715 0.0
H329 H 0.05163 0.85356 0.51668 0.0
H330 H 0.96471 0.80372 0.50115 0.0
H331 H 0.12155 0.24209 0.52352 0.0
H332 H 0.21128 0.31408 0.50977 0.0
H333 H 0.24032 0.24827 0.52355 0.0
C334 C 0.1604 0.13911 0.82441 0.0
C335 C 0.08081 0.06815 0.81536 0.0
C336 C 0.15486 0.13439 0.83979 0.0
C337 C 0.0673 0.05725 0.84634 0.0
C338 C 0.98337 0.99098 0.83727 0.0
C339 C 0.9912 0.99694 0.8219 0.0
C340 C 0.24619 0.20688 0.84898 0.0
C341 C 0.88791 0.90876 0.84377 0.0
C342 C 0.11703 0.95582 0.88148 0.0
C343 C 0.09392 1.00415 0.89244 0.0
C344 C 0.10622 0.97089 0.86654 0.0
C345 C 0.07058 0.03567 0.86229 0.0
C346 C 0.0437 0.08232 0.87324 0.0
C347 C 0.056 0.06629 0.88822 0.0
C348 C 0.13592 0.91941 0.8553 0.0
C349 C 1.00438 0.15097 0.86916 0.0
H350 H 0.22968 0.19521 0.81953 0.0
H351 H 0.92876 0.94231 0.81504 0.0
H352 H 0.22434 0.23776 0.85823 0.0
H353 H 0.28223 0.1664 0.85375 0.0
H354 H 0.30263 0.27041 0.84243 0.0
H355 H 0.82429 0.87589 0.8356 0.0
H356 H 0.90027 0.84783 0.84773 0.0
H357 H 0.86661 0.93771 0.85333 0.0
H358 H 0.14573 0.90706 0.88454 0.0
H359 H 0.0377 0.1038 0.89659 0.0
H360 H 0.19889 0.97667 0.84881 0.0
H361 H 0.07197 0.87397 0.84753 0.0
H362 H 0.15978 0.86927 0.86041 0.0
H363 H 0.0651 0.22032 0.8642 0.0
H364 H 0.97674 0.17274 0.87881 0.0
H365 H 0.9423 0.11404 0.86081 0.0
C366 C 0.93243 0.90593 0.04937 0.0
C367 C 0.96717 0.9829 0.06002 0.0
C368 C 0.96969 0.92516 0.03513 0.0
C369 C 0.04264 0.02439 0.03127 0.0
C370 C 0.07868 0.10263 0.04199 0.0
C371 C 0.04114 0.08079 0.0563 0.0
C372 C 0.93062 0.83895 0.02419 0.0
C373 C 0.1555 0.20953 0.03826 0.0
C374 C 0.19435 0.03881 0.99824 0.0
C375 C 0.14064 0.05192 0.98664 0.0
C376 C 0.16611 0.03446 1.01287 0.0
C377 C 0.08239 0.04432 1.01609 0.0
C378 C 0.03095 0.0629 1.00453 0.0
C379 C 0.06039 0.06607 0.98993 0.0
C380 C 0.22273 1.01378 0.02478 0.0
C381 C 0.94206 0.0751 1.00753 0.0
H382 H 0.87556 0.83 0.05218 0.0
H383 H 0.06741 0.1408 0.06443 0.0
H384 H 0.89447 0.85359 1.0146 0.0
H385 H 0.99395 0.83222 1.02005 0.0
H386 H 0.87499 0.76595 0.02899 0.0
H387 H 0.1759 0.26178 0.0478 0.0
H388 H 0.22474 0.21336 0.03433 0.0
H389 H 0.12561 0.2358 0.0292 0.0
H390 H 0.25695 0.02846 0.99589 0.0
H391 H 1.01868 0.07668 0.98108 0.0
H392 H 0.17305 0.93804 0.02932 0.0
H393 H 0.24517 0.06904 0.03393 0.0
H394 H 0.29123 1.01664 1.02066 0.0
H395 H 0.87792 1.00212 1.01099 0.0
H396 H 0.91769 0.10072 0.99771 0.0
H397 H 0.96063 0.12997 1.01664 0.0
C398 C 0.07365 0.02682 0.32251 0.0
C399 C 0.99811 0.04672 0.31796 0.0
C400 C 0.10967 0.04343 0.33721 0.0
C401 C 0.07045 0.08246 0.34752 0.0
C402 C 0.99462 0.10309 0.34291 0.0
C403 C 0.95905 0.08433 0.32827 0.0
C404 C 0.1896 0.01927 0.34173 0.0
C405 C 0.95192 0.14658 0.35341 0.0
C406 C 0.09559 0.07029 0.38914 0.0
C407 C 0.17325 0.16857 0.39256 0.0
C408 C 0.06476 0.03902 0.37444 0.0
C409 C 0.11201 0.1079 0.36292 0.0
C410 C 0.19322 0.2056 0.36631 0.0
C411 C 0.22302 0.23438 0.38102 0.0
C412 C 0.97884 0.93368 0.37126 0.0
C413 C 0.24533 0.28193 0.35446 0.0
H414 H 0.10343 0.99675 0.31464 0.0
H415 H 0.90089 0.10026 0.32486 0.0
H416 H 0.25881 0.08882 0.34553 0.0
H417 H 0.16369 0.9667 0.35108 0.0
H418 H 0.20891 0.98495 0.33261 0.0
H419 H 0.89233 0.1571 0.34815 0.0
H420 H 0.91973 0.09647 0.36294 0.0
H421 H 1.01277 0.22052 0.35772 0.0
H422 H 0.05698 0.01872 0.39795 0.0
H423 H 0.28367 0.3103 0.38347 0.0
H424 H 0.99843 0.89792 0.3624 0.0
H425 H 0.91174 0.93656 0.36737 0.0
H426 H 0.95853 0.88563 0.38113 0.0
H427 H 0.26969 0.24985 0.34569 0.0
H428 H 0.31209 0.35197 0.35878 0.0
H429 H 0.19197 0.30183 0.34932 0.0
C430 C 0.06122 0.05427 0.6546 0.0
C431 C 0.99627 0.08555 0.649 0.0
C432 C 0.0591 0.02814 0.66944 0.0
C433 C 0.98918 0.03163 0.67886 0.0
C434 C 0.92132 0.06004 0.67313 0.0
C435 C 0.92626 0.0874 0.65834 0.0
C436 C 0.13339 0.99917 0.67513 0.0
C437 C 0.84427 0.06282 0.68269 0.0
C438 C 0.93048 0.88069 0.71398 0.0
C439 C 0.98944 0.95522 0.72454 0.0
C440 C 0.92799 0.90478 0.69917 0.0
C441 C 0.98721 1.00583 0.69471 0.0
C442 C 0.04553 0.08182 0.70536 0.0
C443 C 0.04531 0.05573 0.72017 0.0
C444 C 0.86323 0.82171 0.68826 0.0
C445 C 0.11043 0.19032 0.70104 0.0
H446 H 0.11614 0.05352 0.64751 0.0
H447 H 0.87553 0.11115 0.65409 0.0
H448 H 0.18133 0.05202 0.68406 0.0
H449 H 0.09289 0.92287 0.67987 0.0
H450 H 0.18274 0.99988 0.66641 0.0
H451 H 0.79416 0.08247 0.67642 0.0
H452 H 0.7973 0.98859 0.68784 0.0
H453 H 0.88271 0.11893 0.6917 0.0
H454 H 0.88672 0.80285 0.71728 0.0
H455 H 0.09176 0.11359 0.72824 0.0
H456 H 0.91133 0.81465 0.68007 0.0
H457 H 0.81164 0.84009 0.68217 0.0
H458 H 0.81772 0.74785 0.69361 0.0
H459 H 0.16722 0.1972 0.69317 0.0
H460 H 0.15017 0.24061 0.71064 0.0
H461 H 0.06381 0.21677 0.6954 0.0
loop_
_geom_bond_atom_site_label_1
_geom_bond_atom_site_label_2
_geom_bond_distance
_geom_bond_site_symmetry_2
_ccdc_geom_bond_type
Mg0 O7 2.141 . S
Mg0 O8 2.048 1_545 S
Mg0 O9 2.048 . S
Mg0 O12 2.141 . S
C1 O2 1.313 . S
C1 O8 1.195 1_455 S
O2 C1 1.313 . S
C3 O4 1.245 . S
C3 O12 1.289 1_455 S
O4 C3 1.245 . S
C5 O6 1.245 . S
C5 O7 1.289 1_455 S
O6 C5 1.245 . S
O7 Mg0 2.141 . S
O7 C5 1.289 1_655 S
O8 Mg0 2.048 1_565 S
O8 C1 1.195 1_655 S
O9 Mg0 2.048 . S
O9 C10 1.195 1_655 S
C10 O9 1.195 1_455 S
C10 O11 1.313 . S
O11 C10 1.313 . S
O12 Mg0 2.141 . S
O12 C3 1.289 1_655 S
Mg13 O20 2.141 . S
Mg13 O21 2.048 1_455 S
Mg13 O22 2.048 . S
Mg13 O25 2.141 . S
C14 O15 1.313 1_545 S
C14 O21 1.195 . S
O15 C14 1.313 1_565 S
C16 O17 1.245 1_545 S
C16 O25 1.289 . S
O17 C16 1.245 1_565 S
C18 O19 1.245 1_445 S
C18 O20 1.289 . S
O19 C18 1.245 1_665 S
O20 Mg13 2.141 . S
O20 C18 1.289 . S
O21 Mg13 2.048 1_655 S
O21 C14 1.195 . S
O22 Mg13 2.048 . S
O22 C23 1.195 . S
C23 O22 1.195 . S
C23 O24 1.313 1_445 S
O24 C23 1.313 1_665 S
O25 Mg13 2.141 . S
O25 C16 1.289 . S
Mg26 O33 2.141 . S
Mg26 O34 2.048 1_445 S
Mg26 O35 2.048 . S
Mg26 O38 2.141 . S
C27 O28 1.313 . S
C27 O34 1.195 . S
O28 C27 1.313 . S
C29 O30 1.245 . S
C29 O38 1.289 . S
O30 C29 1.245 . S
C31 O32 1.245 1_545 S
C31 O33 1.289 . S
O32 C31 1.245 1_565 S
O33 Mg26 2.141 . S
O33 C31 1.289 . S
O34 Mg26 2.048 1_665 S
O34 C27 1.195 . S
O35 Mg26 2.048 . S
O35 C36 1.195 . S
C36 O35 1.195 . S
C36 O37 1.313 1_545 S
O37 C36 1.313 1_565 S
O38 Mg26 2.141 . S
O38 C29 1.289 . S
Mg39 O46 2.141 . S
Mg39 O47 2.048 . S
Mg39 O48 2.048 . S
Mg39 O51 2.141 1_455 S
C40 O41 1.313 1_545 S
C40 O47 1.195 . S
O41 C40 1.313 1_565 S
C42 O43 1.245 1_545 S
C42 O51 1.289 . S
O43 C42 1.245 1_565 S
C44 O45 1.234 1_445 S
C44 O46 1.298 . S
O45 C44 1.234 1_665 S
O46 Mg39 2.141 . S
O46 C44 1.298 . S
O47 Mg39 2.048 . S
O47 C40 1.195 . S
O48 Mg39 2.048 . S
O48 C49 1.195 . S
C49 O48 1.195 . S
C49 O50 1.313 1_445 S
O50 C49 1.313 1_665 S
O51 Mg39 2.141 1_655 S
O51 C42 1.289 . S
Mg52 O59 2.141 . S
Mg52 O60 2.048 1_655 S
Mg52 O61 2.048 . S
Mg52 O64 2.141 1_545 S
C53 O54 1.313 . S
C53 O60 1.195 . S
O54 C53 1.313 . S
C55 O56 1.245 . S
C55 O64 1.289 . S
O56 C55 1.245 . S
C57 O58 1.245 1_545 S
C57 O59 1.289 1_455 S
O58 C57 1.245 1_565 S
O59 Mg52 2.141 . S
O59 C57 1.289 1_655 S
O60 Mg52 2.048 1_455 S
O60 C53 1.195 . S
O61 Mg52 2.048 . S
O61 C62 1.195 1_655 S
C62 O61 1.195 1_455 S
C62 O63 1.313 . S
O63 C62 1.313 . S
O64 Mg52 2.141 1_565 S
O64 C55 1.289 . S
Mg65 O72 2.141 . S
Mg65 O73 2.048 1_565 S
Mg65 O74 2.048 . S
Mg65 O77 2.141 . S
C66 O67 1.313 . S
C66 O73 1.195 1_455 S
O67 C66 1.313 . S
C68 O69 1.245 . S
C68 O77 1.289 1_455 S
O69 C68 1.245 . S
C70 O71 1.245 . S
C70 O72 1.289 1_445 S
O71 C70 1.245 . S
O72 Mg65 2.141 . S
O72 C70 1.289 1_665 S
O73 Mg65 2.048 1_545 S
O73 C66 1.195 1_655 S
O74 Mg65 2.048 . S
O74 C75 1.195 1_665 S
C75 O74 1.195 1_445 S
C75 O76 1.313 . S
O76 C75 1.313 . S
O77 Mg65 2.141 . S
O77 C68 1.289 1_655 S
C78 C79 1.391 . S
C78 C80 1.394 . S
C78 H94 0.931 . S
C79 C78 1.391 . S
C79 C83 1.376 1_455 S
C80 C78 1.394 . S
C80 C81 1.369 . S
C80 C84 1.531 . S
C81 C80 1.369 . S
C81 C82 1.410 1_455 S
C81 C89 1.503 . S
C82 C81 1.410 1_655 S
C82 C83 1.392 . S
C82 C85 1.511 . S
C83 C79 1.376 1_655 S
C83 C82 1.392 . S
C83 H95 0.929 . S
C84 C80 1.531 . S
C84 H96 0.960 . S
C84 H97 0.962 . S
C84 H98 0.960 . S
C85 C82 1.511 . S
C85 H99 0.961 . S
C85 H100 0.961 . S
C85 H101 0.961 . S
C86 C87 1.370 . S
C86 C88 1.363 . S
C86 H102 0.931 . S
C87 C86 1.370 . S
C87 C91 1.408 1_455 S
C88 C86 1.363 . S
C88 C89 1.370 . S
C88 C92 1.524 . S
C89 C81 1.503 . S
C89 C88 1.370 . S
C89 C90 1.403 1_455 S
C90 C89 1.403 1_655 S
C90 C91 1.404 . S
C90 C93 1.539 . S
C91 C87 1.408 1_655 S
C91 C90 1.404 . S
C91 H103 0.930 . S
C92 C88 1.524 . S
C92 H104 0.956 . S
C92 H105 0.961 . S
C92 H106 0.961 . S
C93 C90 1.539 . S
C93 H107 0.958 . S
C93 H108 0.961 . S
C93 H109 0.960 . S
H94 C78 0.931 . S
H95 C83 0.929 . S
H96 C84 0.960 . S
H97 C84 0.962 . S
H98 C84 0.960 . S
H99 C85 0.961 . S
H100 C85 0.961 . S
H101 C85 0.961 . S
H102 C86 0.931 . S
H103 C91 0.930 . S
H104 C92 0.956 . S
H105 C92 0.961 . S
H106 C92 0.961 . S
H107 C93 0.958 . S
H108 C93 0.961 . S
H109 C93 0.960 . S
C110 C111 1.391 . S
C110 C112 1.394 . S
C110 H126 0.931 . S
C111 C110 1.391 . S
C111 C115 1.376 . S
C112 C110 1.394 . S
C112 C113 1.369 . S
C112 C116 1.531 . S
C113 C112 1.369 . S
C113 C114 1.410 . S
C113 C121 1.503 . S
C114 C113 1.410 . S
C114 C115 1.392 . S
C114 C117 1.511 1_545 S
C115 C111 1.376 . S
C115 C114 1.392 . S
C115 H127 0.929 1_545 S
C116 C112 1.531 . S
C116 H128 0.960 . S
C116 H129 0.962 . S
C116 H130 0.960 . S
C117 C114 1.511 1_565 S
C117 H131 0.961 . S
C117 H132 0.961 . S
C117 H133 0.961 1_565 S
C118 C119 1.370 1_565 S
C118 C120 1.363 . S
C118 H134 0.931 . S
C119 C118 1.370 1_545 S
C119 C123 1.408 . S
C120 C118 1.363 . S
C120 C121 1.370 1_565 S
C120 C124 1.524 . S
C121 C113 1.503 . S
C121 C120 1.370 1_545 S
C121 C122 1.403 . S
C122 C121 1.403 . S
C122 C123 1.404 . S
C122 C125 1.539 . S
C123 C119 1.408 . S
C123 C122 1.404 . S
C123 H135 0.930 . S
C124 C120 1.524 . S
C124 H136 0.956 . S
C124 H137 0.961 . S
C124 H138 0.961 . S
C125 C122 1.539 . S
C125 H139 0.958 . S
C125 H140 0.961 . S
C125 H141 0.960 . S
H126 C110 0.931 . S
H127 C115 0.929 1_565 S
H128 C116 0.960 . S
H129 C116 0.962 . S
H130 C116 0.960 . S
H131 C117 0.961 . S
H132 C117 0.961 . S
H133 C117 0.961 1_545 S
H134 C118 0.931 . S
H135 C123 0.930 . S
H136 C124 0.956 . S
H137 C124 0.961 . S
H138 C124 0.961 . S
H139 C125 0.958 . S
H140 C125 0.961 . S
H141 C125 0.960 . S
C142 C143 1.391 . S
C142 C144 1.394 . S
C142 H158 0.931 . S
C143 C142 1.391 . S
C143 C147 1.376 . S
C144 C142 1.394 . S
C144 C145 1.369 . S
C144 C148 1.531 . S
C145 C144 1.369 . S
C145 C146 1.410 . S
C145 C153 1.503 . S
C146 C145 1.410 . S
C146 C147 1.392 . S
C146 C149 1.511 . S
C147 C143 1.376 . S
C147 C146 1.392 . S
C147 H159 0.929 . S
C148 C144 1.531 . S
C148 H160 0.960 . S
C148 H161 0.962 . S
C148 H162 0.960 . S
C149 C146 1.511 . S
C149 H163 0.961 . S
C149 H164 0.961 . S
C149 H165 0.961 . S
C150 C151 1.370 . S
C150 C152 1.363 . S
C150 H166 0.931 . S
C151 C150 1.370 . S
C151 C155 1.408 . S
C152 C150 1.363 . S
C152 C153 1.370 . S
C152 C156 1.524 . S
C153 C145 1.503 . S
C153 C152 1.370 . S
C153 C154 1.403 . S
C154 C153 1.403 . S
C154 C155 1.404 . S
C154 C157 1.539 . S
C155 C151 1.408 . S
C155 C154 1.404 . S
C155 H167 0.930 . S
C156 C152 1.524 . S
C156 H168 0.956 . S
C156 H169 0.961 . S
C156 H170 0.961 . S
C157 C154 1.539 . S
C157 H171 0.958 . S
C157 H172 0.961 . S
C157 H173 0.960 . S
H158 C142 0.931 . S
H159 C147 0.929 . S
H160 C148 0.960 . S
H161 C148 0.962 . S
H162 C148 0.960 . S
H163 C149 0.961 . S
H164 C149 0.961 . S
H165 C149 0.961 . S
H166 C150 0.931 . S
H167 C155 0.930 . S
H168 C156 0.956 . S
H169 C156 0.961 . S
H170 C156 0.961 . S
H171 C157 0.958 . S
H172 C157 0.961 . S
H173 C157 0.960 . S
C174 C175 1.391 . S
C174 C176 1.394 . S
C174 H190 0.931 . S
C175 C174 1.391 . S
C175 C179 1.376 1_545 S
C176 C174 1.394 . S
C176 C177 1.369 . S
C176 C180 1.531 . S
C177 C176 1.369 . S
C177 C178 1.410 1_545 S
C177 C185 1.503 . S
C178 C177 1.410 1_565 S
C178 C179 1.392 . S
C178 C181 1.511 . S
C179 C175 1.376 1_565 S
C179 C178 1.392 . S
C179 H191 0.929 . S
C180 C176 1.531 . S
C180 H192 0.960 . S
C180 H193 0.962 . S
C180 H194 0.960 . S
C181 C178 1.511 . S
C181 H195 0.961 . S
C181 H196 0.961 . S
C181 H197 0.961 . S
C182 C183 1.370 1_565 S
C182 C184 1.363 . S
C182 H198 0.931 . S
C183 C182 1.370 1_545 S
C183 C187 1.408 . S
C184 C182 1.363 . S
C184 C185 1.370 1_565 S
C184 C188 1.524 . S
C185 C177 1.503 . S
C185 C184 1.370 1_545 S
C185 C186 1.403 . S
C186 C185 1.403 . S
C186 C187 1.404 . S
C186 C189 1.539 . S
C187 C183 1.408 . S
C187 C186 1.404 . S
C187 H199 0.930 . S
C188 C184 1.524 . S
C188 H200 0.956 . S
C188 H201 0.961 . S
C188 H202 0.961 . S
C189 C186 1.539 . S
C189 H203 0.958 . S
C189 H204 0.961 . S
C189 H205 0.960 . S
H190 C174 0.931 . S
H191 C179 0.929 . S
H192 C180 0.960 . S
H193 C180 0.962 . S
H194 C180 0.960 . S
H195 C181 0.961 . S
H196 C181 0.961 . S
H197 C181 0.961 . S
H198 C182 0.931 . S
H199 C187 0.930 . S
H200 C188 0.956 . S
H201 C188 0.961 . S
H202 C188 0.961 . S
H203 C189 0.958 . S
H204 C189 0.961 . S
H205 C189 0.960 . S
C206 C207 1.391 . S
C206 C208 1.394 . S
C206 H222 0.931 . S
C207 C206 1.391 . S
C207 C211 1.376 . S
C208 C206 1.394 . S
C208 C209 1.369 . S
C208 C212 1.531 . S
C209 C208 1.369 . S
C209 C210 1.410 . S
C209 C217 1.503 . S
C210 C209 1.410 . S
C210 C211 1.392 . S
C210 C213 1.511 . S
C211 C207 1.376 . S
C211 C210 1.392 . S
C211 H223 0.929 . S
C212 C208 1.531 . S
C212 H224 0.960 . S
C212 H225 0.962 . S
C212 H226 0.960 . S
C213 C210 1.511 . S
C213 H227 0.961 . S
C213 H228 0.961 . S
C213 H229 0.961 . S
C214 C215 1.370 . S
C214 C216 1.363 . S
C214 H230 0.931 . S
C215 C214 1.370 . S
C215 C219 1.408 . S
C216 C214 1.363 . S
C216 C217 1.370 . S
C216 C220 1.524 . S
C217 C209 1.503 . S
C217 C216 1.370 . S
C217 C218 1.403 . S
C218 C217 1.403 . S
C218 C219 1.404 . S
C218 C221 1.539 . S
C219 C215 1.408 . S
C219 C218 1.404 . S
C219 H231 0.930 . S
C220 C216 1.524 . S
C220 H232 0.956 . S
C220 H233 0.961 . S
C220 H234 0.961 . S
C221 C218 1.539 . S
C221 H235 0.958 . S
C221 H236 0.961 . S
C221 H237 0.960 . S
H222 C206 0.931 . S
H223 C211 0.929 . S
H224 C212 0.960 . S
H225 C212 0.962 . S
H226 C212 0.960 . S
H227 C213 0.961 . S
H228 C213 0.961 . S
H229 C213 0.961 . S
H230 C214 0.931 . S
H231 C219 0.930 . S
H232 C220 0.956 . S
H233 C220 0.961 . S
H234 C220 0.961 . S
H235 C221 0.958 . S
H236 C221 0.961 . S
H237 C221 0.960 . S
C238 C239 1.391 1_655 S
C238 C240 1.394 . S
C238 H254 0.931 . S
C239 C238 1.391 1_455 S
C239 C243 1.376 . S
C240 C238 1.394 . S
C240 C241 1.369 1_655 S
C240 C244 1.531 . S
C241 C240 1.369 1_455 S
C241 C242 1.410 . S
C241 C249 1.503 . S
C242 C241 1.410 . S
C242 C243 1.392 . S
C242 C245 1.511 . S
C243 C239 1.376 . S
C243 C242 1.392 . S
C243 H255 0.929 . S
C244 C240 1.531 . S
C244 H256 0.960 . S
C244 H257 0.962 . S
C244 H258 0.960 . S
C245 C242 1.511 . S
C245 H259 0.961 . S
C245 H260 0.961 . S
C245 H261 0.961 . S
C246 C247 1.370 . S
C246 C248 1.363 . S
C246 H262 0.931 . S
C247 C246 1.370 . S
C247 C251 1.408 . S
C248 C246 1.363 . S
C248 C249 1.370 . S
C248 C252 1.524 . S
C249 C241 1.503 . S
C249 C248 1.370 . S
C249 C250 1.403 . S
C250 C249 1.403 . S
C250 C251 1.404 . S
C250 C253 1.539 . S
C251 C247 1.408 . S
C251 C250 1.404 . S
C251 H263 0.930 . S
C252 C248 1.524 . S
C252 H264 0.956 1_455 S
C252 H265 0.961 . S
C252 H266 0.961 . S
C253 C250 1.539 . S
C253 H267 0.958 1_455 S
C253 H268 0.961 . S
C253 H269 0.960 . S
H254 C238 0.931 . S
H255 C243 0.929 . S
H256 C244 0.960 . S
H257 C244 0.962 . S
H258 C244 0.960 . S
H259 C245 0.961 . S
H260 C245 0.961 . S
H261 C245 0.961 . S
H262 C246 0.931 . S
H263 C251 0.930 . S
H264 C252 0.956 1_655 S
H265 C252 0.961 . S
H266 C252 0.961 . S
H267 C253 0.958 1_655 S
H268 C253 0.961 . S
H269 C253 0.960 . S
C270 C271 1.391 1_565 S
C270 C272 1.394 . S
C270 H286 0.931 . S
C271 C270 1.391 1_545 S
C271 C275 1.376 1_455 S
C272 C270 1.394 . S
C272 C273 1.369 1_565 S
C272 C276 1.531 . S
C273 C272 1.369 1_545 S
C273 C274 1.410 1_455 S
C273 C281 1.503 . S
C274 C273 1.410 1_655 S
C274 C275 1.392 . S
C274 C277 1.511 . S
C275 C271 1.376 1_655 S
C275 C274 1.392 . S
C275 H287 0.929 . S
C276 C272 1.531 . S
C276 H288 0.960 . S
C276 H289 0.962 1_565 S
C276 H290 0.960 . S
C277 C274 1.511 . S
C277 H291 0.961 . S
C277 H292 0.961 . S
C277 H293 0.965 . S
C278 C279 1.370 . S
C278 C280 1.363 . S
C278 H294 0.931 . S
C279 C278 1.370 . S
C279 C283 1.408 1_445 S
C280 C278 1.363 . S
C280 C281 1.370 . S
C280 C284 1.524 . S
C281 C273 1.503 . S
C281 C280 1.370 . S
C281 C282 1.403 1_445 S
C282 C281 1.403 1_665 S
C282 C283 1.404 . S
C282 C285 1.539 . S
C283 C279 1.408 1_665 S
C283 C282 1.404 . S
C283 H295 0.930 . S
C284 C280 1.524 . S
C284 H296 0.956 . S
C284 H297 0.961 . S
C284 H298 0.961 . S
C285 C282 1.539 . S
C285 H299 0.958 . S
C285 H300 0.961 . S
C285 H301 0.960 . S
H286 C270 0.931 . S
H287 C275 0.929 . S
H288 C276 0.960 . S
H289 C276 0.962 1_545 S
H290 C276 0.960 . S
H291 C277 0.961 . S
H292 C277 0.961 . S
H293 C277 0.965 . S
H294 C278 0.931 . S
H295 C283 0.930 . S
H296 C284 0.956 . S
H297 C284 0.961 . S
H298 C284 0.961 . S
H299 C285 0.958 . S
H300 C285 0.961 . S
H301 C285 0.960 . S
C302 C303 1.391 1_655 S
C302 C304 1.394 . S
C302 H318 0.931 . S
C303 C302 1.391 1_455 S
C303 C307 1.376 . S
C304 C302 1.394 . S
C304 C305 1.369 1_655 S
C304 C308 1.531 . S
C305 C304 1.369 1_455 S
C305 C306 1.410 . S
C305 C313 1.503 . S
C306 C305 1.410 . S
C306 C307 1.392 . S
C306 C309 1.511 . S
C307 C303 1.376 . S
C307 C306 1.392 . S
C307 H319 0.937 . S
C308 C304 1.531 . S
C308 H320 0.960 . S
C308 H321 0.962 . S
C308 H322 0.960 . S
C309 C306 1.511 . S
C309 H323 0.961 1_545 S
C309 H324 0.961 1_545 S
C309 H325 0.961 . S
C310 C311 1.370 1_665 S
C310 C312 1.363 . S
C310 H326 0.931 . S
C311 C310 1.370 1_445 S
C311 C315 1.408 . S
C312 C310 1.363 . S
C312 C313 1.370 1_665 S
C312 C316 1.524 . S
C313 C305 1.503 . S
C313 C312 1.370 1_445 S
C313 C314 1.403 . S
C314 C313 1.403 . S
C314 C315 1.404 . S
C314 C317 1.539 . S
C315 C311 1.408 . S
C315 C314 1.404 . S
C315 H327 0.930 . S
C316 C312 1.524 . S
C316 H328 0.956 . S
C316 H329 0.961 . S
C316 H330 0.961 . S
C317 C314 1.539 . S
C317 H331 0.958 . S
C317 H332 0.961 . S
C317 H333 0.960 . S
H318 C302 0.931 . S
H319 C307 0.937 . S
H320 C308 0.960 . S
H321 C308 0.962 . S
H322 C308 0.960 . S
H323 C309 0.961 1_565 S
H324 C309 0.961 1_565 S
H325 C309 0.961 . S
H326 C310 0.931 . S
H327 C315 0.930 . S
H328 C316 0.956 . S
H329 C316 0.961 . S
H330 C316 0.961 . S
H331 C317 0.958 . S
H332 C317 0.961 . S
H333 C317 0.960 . S
C334 C335 1.391 . S
C334 C336 1.394 . S
C334 H350 0.931 . S
C335 C334 1.391 . S
C335 C339 1.376 1_445 S
C336 C334 1.394 . S
C336 C337 1.369 . S
C336 C340 1.531 . S
C337 C336 1.369 . S
C337 C338 1.409 1_445 S
C337 C345 1.503 . S
C338 C337 1.409 1_665 S
C338 C339 1.394 . S
C338 C341 1.511 . S
C339 C335 1.376 1_665 S
C339 C338 1.394 . S
C339 H351 0.929 . S
C340 C336 1.531 . S
C340 H352 0.960 . S
C340 H353 0.962 . S
C340 H354 0.960 . S
C341 C338 1.511 . S
C341 H355 0.961 . S
C341 H356 0.961 . S
C341 H357 0.961 . S
C342 C343 1.370 1_565 S
C342 C344 1.363 . S
C342 H358 0.931 . S
C343 C342 1.370 1_545 S
C343 C347 1.408 . S
C344 C342 1.363 . S
C344 C345 1.370 1_565 S
C344 C348 1.524 . S
C345 C337 1.503 . S
C345 C344 1.370 1_545 S
C345 C346 1.403 . S
C346 C345 1.403 . S
C346 C347 1.404 . S
C346 C349 1.539 . S
C347 C343 1.408 . S
C347 C346 1.404 . S
C347 H359 0.930 . S
C348 C344 1.524 . S
C348 H360 0.956 . S
C348 H361 0.961 1_455 S
C348 H362 0.961 . S
C349 C346 1.539 . S
C349 H363 0.958 . S
C349 H364 0.961 1_455 S
C349 H365 0.960 1_455 S
H350 C334 0.931 . S
H351 C339 0.929 . S
H352 C340 0.960 . S
H353 C340 0.962 . S
H354 C340 0.960 . S
H355 C341 0.961 . S
H356 C341 0.961 . S
H357 C341 0.961 . S
H358 C342 0.931 . S
H359 C347 0.930 . S
H360 C348 0.956 . S
H361 C348 0.961 1_655 S
H362 C348 0.961 . S
H363 C349 0.958 . S
H364 C349 0.961 1_655 S
H365 C349 0.960 1_655 S
C366 C367 1.391 . S
C366 C368 1.394 . S
C366 H382 0.931 . S
C367 C366 1.391 . S
C367 C371 1.376 1_455 S
C368 C366 1.394 . S
C368 C369 1.369 . S
C368 C372 1.531 1_545 S
C369 C368 1.369 . S
C369 C370 1.410 1_455 S
C369 C377 1.503 1_554 S
C370 C369 1.410 1_655 S
C370 C371 1.392 . S
C370 C373 1.511 . S
C371 C367 1.376 1_655 S
C371 C370 1.392 . S
C371 H383 0.929 . S
C372 C368 1.531 1_565 S
C372 H384 0.960 1_554 S
C372 H385 0.962 1_565 S
C372 H386 0.960 . S
C373 C370 1.511 . S
C373 H387 0.961 . S
C373 H388 0.961 1_554 S
C373 H389 0.961 1_545 S
C374 C375 1.370 . S
C374 C376 1.363 . S
C374 H390 0.931 . S
C375 C374 1.370 . S
C375 C379 1.408 1_445 S
C376 C374 1.363 . S
C376 C377 1.370 . S
C376 C380 1.524 . S
C377 C369 1.503 1_556 S
C377 C376 1.370 . S
C377 C378 1.403 1_445 S
C378 C377 1.403 1_665 S
C378 C379 1.404 . S
C378 C381 1.539 . S
C379 C375 1.408 1_665 S
C379 C378 1.404 . S
C379 H391 0.930 . S
C380 C376 1.524 . S
C380 H392 0.980 . S
C380 H393 0.908 1_556 S
C380 H394 0.961 . S
C381 C378 1.539 . S
C381 H395 0.958 . S
C381 H396 0.961 . S
C381 H397 0.975 . S
H382 C366 0.931 . S
H383 C371 0.929 . S
H384 C372 0.960 1_556 S
H385 C372 0.962 1_545 S
H386 C372 0.960 . S
H387 C373 0.961 . S
H388 C373 0.961 1_556 S
H389 C373 0.961 1_565 S
H390 C374 0.931 . S
H391 C379 0.930 . S
H392 C380 0.980 . S
H393 C380 0.908 1_554 S
H394 C380 0.961 . S
H395 C381 0.958 . S
H396 C381 0.961 . S
H397 C381 0.975 . S
C398 C399 1.391 1_565 S
C398 C400 1.394 . S
C398 H414 0.931 1_455 S
C399 C398 1.391 1_545 S
C399 C403 1.376 . S
C400 C398 1.394 . S
C400 C401 1.369 1_565 S
C400 C404 1.531 1_455 S
C401 C400 1.369 1_545 S
C401 C402 1.410 . S
C401 C409 1.503 . S
C402 C401 1.410 . S
C402 C403 1.392 . S
C402 C405 1.511 . S
C403 C399 1.376 . S
C403 C402 1.392 . S
C403 H415 0.929 . S
C404 C400 1.531 1_655 S
C404 H416 0.960 1_655 S
C404 H417 0.962 . S
C404 H418 0.960 1_655 S
C405 C402 1.511 . S
C405 H419 0.961 . S
C405 H420 0.961 . S
C405 H421 0.961 . S
C406 C407 1.370 1_655 S
C406 C408 1.363 . S
C406 H422 0.931 . S
C407 C406 1.370 1_455 S
C407 C411 1.408 . S
C408 C406 1.363 . S
C408 C409 1.370 1_655 S
C408 C412 1.524 . S
C409 C401 1.503 . S
C409 C408 1.370 1_455 S
C409 C410 1.403 . S
C410 C409 1.403 . S
C410 C411 1.404 . S
C410 C413 1.539 . S
C411 C407 1.408 . S
C411 C410 1.404 . S
C411 H423 0.930 . S
C412 C408 1.524 . S
C412 H424 0.956 1_545 S
C412 H425 0.961 . S
C412 H426 0.961 . S
C413 C410 1.539 . S
C413 H427 0.958 1_545 S
C413 H428 0.961 . S
C413 H429 0.960 . S
H414 C398 0.931 1_655 S
H415 C403 0.929 . S
H416 C404 0.960 1_455 S
H417 C404 0.962 . S
H418 C404 0.960 1_455 S
H419 C405 0.961 . S
H420 C405 0.961 . S
H421 C405 0.961 . S
H422 C406 0.931 . S
H423 C411 0.930 . S
H424 C412 0.956 1_565 S
H425 C412 0.961 . S
H426 C412 0.961 . S
H427 C413 0.958 1_565 S
H428 C413 0.961 . S
H429 C413 0.960 . S
C430 C431 1.391 . S
C430 C432 1.394 . S
C430 H446 0.931 . S
C431 C430 1.391 . S
C431 C435 1.376 1_445 S
C432 C430 1.394 . S
C432 C433 1.369 . S
C432 C436 1.531 . S
C433 C432 1.369 . S
C433 C434 1.410 1_445 S
C433 C441 1.503 . S
C434 C433 1.410 1_665 S
C434 C435 1.392 . S
C434 C437 1.511 . S
C435 C431 1.376 1_665 S
C435 C434 1.392 . S
C435 H447 0.929 . S
C436 C432 1.531 . S
C436 H448 0.960 . S
C436 H449 0.962 . S
C436 H450 0.960 . S
C437 C434 1.511 . S
C437 H451 0.961 . S
C437 H452 0.961 . S
C437 H453 0.961 . S
C438 C439 1.370 1_565 S
C438 C440 1.363 . S
C438 H454 0.931 . S
C439 C438 1.370 1_545 S
C439 C443 1.408 1_455 S
C440 C438 1.363 . S
C440 C441 1.370 1_565 S
C440 C444 1.524 . S
C441 C433 1.503 . S
C441 C440 1.370 1_545 S
C441 C442 1.403 1_455 S
C442 C441 1.403 1_655 S
C442 C443 1.404 . S
C442 C445 1.539 . S
C443 C439 1.408 1_655 S
C443 C442 1.404 . S
C443 H455 0.930 . S
C444 C440 1.524 . S
C444 H456 0.956 . S
C444 H457 0.961 . S
C444 H458 0.961 . S
C445 C442 1.539 . S
C445 H459 0.958 . S
C445 H460 0.961 . S
C445 H461 0.960 . S
H446 C430 0.931 . S
H447 C435 0.929 . S
H448 C436 0.960 . S
H449 C436 0.962 . S
H450 C436 0.960 . S
H451 C437 0.961 . S
H452 C437 0.961 . S
H453 C437 0.961 . S
H454 C438 0.931 . S
H455 C443 0.930 . S
H456 C444 0.956 . S
H457 C444 0.961 . S
H458 C444 0.961 . S
H459 C445 0.958 . S
H460 C445 0.961 . S
H461 C445 0.960 . S
C79 C1 1.500 . S
C87 C3 1.494 . S
C111 C16 1.496 . S
C119 C14 1.497 . S
C143 C27 1.497 . S
C151 C29 1.494 . S
C175 C40 1.496 . S
C183 C42 1.493 . S
C207 C53 1.481 . S
C215 C55 1.486 . S
C239 C66 1.485 . S
C247 C68 1.488 . S
C271 C70 1.494 . S
C279 C5 1.495 . S
C303 C44 1.502 . S
C311 C18 1.493 . S
C335 C31 1.499 . S
C343 C57 1.493 . S
C367 C10 1.493 . S
C375 C62 1.492 . S
C399 C75 1.479 . S
C407 C23 1.495 . S
C431 C49 1.500 . S
C439 C36 1.498 . S
