# Generated by pormake.
# Topology umj, (4)-cn, num edge types: 1
# Building blocks:
#     Node 0, Type 0, BuildingBlock: KOZSID_clean_sbu_0, # of connection points: 4
#     Node 1, Type 0, BuildingBlock: KOZSID_clean_sbu_0, # of connection points: 4
#     Node 2, Type 0, BuildingBlock: KOZSID_clean_sbu_0, # of connection points: 4
#     Node 3, Type 0, BuildingBlock: KOZSID_clean_sbu_0, # of connection points: 4
#     Node 4, Type 0, BuildingBlock: KOZSID_clean_sbu_0, # of connection points: 4
#     Node 5, Type 0, BuildingBlock: KOZSID_clean_sbu_0, # of connection points: 4
#     Node 6, Type 0, BuildingBlock: KOZSID_clean_sbu_0, # of connection points: 4
#     Node 7, Type 0, BuildingBlock: KOZSID_clean_sbu_0, # of connection points: 4
#     Node 8, Type 0, BuildingBlock: KOZSID_clean_sbu_0, # of connection points: 4
#     Node 9, Type 0, BuildingBlock: KOZSID_clean_sbu_0, # of connection points: 4
#     Node 10, Type 0, BuildingBlock: KOZSID_clean_sbu_0, # of connection points: 4
#     Node 11, Type 0, BuildingBlock: KOZSID_clean_sbu_0, # of connection points: 4
#     Edge 12, Type (0, 0), BuildingBlock: KIFKEQ_clean_linker_1, # of connection points: 2
#     Edge 13, Type (0, 0), BuildingBlock: KIFKEQ_clean_linker_1, # of connection points: 2
#     Edge 14, Type (0, 0), BuildingBlock: KIFKEQ_clean_linker_1, # of connection points: 2
#     Edge 15, Type (0, 0), BuildingBlock: KIFKEQ_clean_linker_1, # of connection points: 2
#     Edge 16, Type (0, 0), BuildingBlock: KIFKEQ_clean_linker_1, # of connection points: 2
#     Edge 17, Type (0, 0), BuildingBlock: KIFKEQ_clean_linker_1, # of connection points: 2
#     Edge 18, Type (0, 0), BuildingBlock: KIFKEQ_clean_linker_1, # of connection points: 2
#     Edge 19, Type (0, 0), BuildingBlock: KIFKEQ_clean_linker_1, # of connection points: 2
#     Edge 20, Type (0, 0), BuildingBlock: KIFKEQ_clean_linker_1, # of connection points: 2
#     Edge 21, Type (0, 0), BuildingBlock: KIFKEQ_clean_linker_1, # of connection points: 2
#     Edge 22, Type (0, 0), BuildingBlock: KIFKEQ_clean_linker_1, # of connection points: 2
#     Edge 23, Type (0, 0), BuildingBlock: KIFKEQ_clean_linker_1, # of connection points: 2
#     Edge 24, Type (0, 0), BuildingBlock: KIFKEQ_clean_linker_1, # of connection points: 2
#     Edge 25, Type (0, 0), BuildingBlock: KIFKEQ_clean_linker_1, # of connection points: 2
#     Edge 26, Type (0, 0), BuildingBlock: KIFKEQ_clean_linker_1, # of connection points: 2
#     Edge 27, Type (0, 0), BuildingBlock: KIFKEQ_clean_linker_1, # of connection points: 2
#     Edge 28, Type (0, 0), BuildingBlock: KIFKEQ_clean_linker_1, # of connection points: 2
#     Edge 29, Type (0, 0), BuildingBlock: KIFKEQ_clean_linker_1, # of connection points: 2
#     Edge 30, Type (0, 0), BuildingBlock: KIFKEQ_clean_linker_1, # of connection points: 2
#     Edge 31, Type (0, 0), BuildingBlock: KIFKEQ_clean_linker_1, # of connection points: 2
#     Edge 32, Type (0, 0), BuildingBlock: KIFKEQ_clean_linker_1, # of connection points: 2
#     Edge 33, Type (0, 0), BuildingBlock: KIFKEQ_clean_linker_1, # of connection points: 2
#     Edge 34, Type (0, 0), BuildingBlock: KIFKEQ_clean_linker_1, # of connection points: 2
#     Edge 35, Type (0, 0), BuildingBlock: KIFKEQ_clean_linker_1, # of connection points: 2
# Relax obj value: 0.054
# Max RMSD: 0.159
# Mean RMSD: 0.159
data_MOF--net-umj--node1-KOZSID_clean_sbu_0--edge1-KIFKEQ_clean_linker_1
_symmetry_space_group_name_H-M    P1
_symmetry_Int_Tables_number       1
_symmetry_cell_setting            triclinic
loop_
_symmetry_equiv_pos_as_xyz
'x, y, z'
_cell_length_a     39.568388
_cell_length_b     39.655381
_cell_length_c     95.267128
_cell_angle_alpha  89.997598
_cell_angle_beta   89.988131
_cell_angle_gamma 120.18331
loop_
_atom_site_label
_atom_site_type_symbol
_atom_site_fract_x
_atom_site_fract_y
_atom_site_fract_z
_atom_type_partial_charge
C0 C 0.03722 0.26018 0.0494 0.0
C1 C 1.00642 0.24672 0.03997 0.0
C2 C 0.97521 0.2444 0.04722 0.0
C3 C 0.98844 0.25627 0.06067 0.0
N4 N 0.02596 0.26578 0.06227 0.0
Co5 Co 0.05571 0.28123 0.08016 0.0
N6 N 1.00757 0.25937 0.09172 0.0
C7 C 0.97211 0.25101 0.08701 0.0
C8 C 0.94447 0.23785 0.09748 0.0
C9 C 0.96395 0.23847 0.10951 0.0
C10 C 1.00253 0.25192 0.10572 0.0
N11 N 0.08635 0.29684 0.09783 0.0
C12 C 0.07498 0.2848 0.11118 0.0
C13 C 0.10665 0.30248 0.12031 0.0
C14 C 0.13844 0.32746 0.11245 0.0
C15 C 0.12472 0.32333 0.09899 0.0
N16 N 0.10392 0.30361 0.06869 0.0
C17 C 0.13986 0.3311 0.07283 0.0
C18 C 0.16736 0.34206 0.06241 0.0
C19 C 0.14743 0.31998 0.05099 0.0
C20 C 0.10881 0.29651 0.05518 0.0
N21 N 0.0568 0.3321 0.0797 0.0
C22 C 0.04783 0.39922 0.07888 0.0
C23 C 0.04463 0.37929 0.09149 0.0
C24 C 0.04933 0.34639 0.09168 0.0
C25 C 0.05688 0.38497 0.06673 0.0
C26 C 0.06133 0.35175 0.06736 0.0
N27 N 0.05282 0.22973 0.08065 0.0
C28 C 0.0811 0.18835 0.0841 0.0
C29 C 0.04493 0.15435 0.08136 0.0
C30 C 1.01311 0.15948 0.07837 0.0
C31 C 0.01758 0.19683 0.0781 0.0
C32 C 0.08446 0.22564 0.08362 0.0
H33 H 0.99203 0.19884 0.07584 0.0
H34 H 0.11258 0.25113 0.08565 0.0
H35 H 0.04566 0.33184 0.10158 0.0
H36 H 0.06765 0.34149 0.05776 0.0
C37 C 0.9651 0.25101 0.07253 0.0
C38 C 0.07731 0.26911 0.04595 0.0
C39 C 0.03417 0.26089 0.11583 0.0
C40 C 0.14787 0.33972 0.08706 0.0
H41 H 1.0062 0.23886 0.02909 0.0
H42 H 0.94578 0.2332 0.04332 0.0
H43 H 0.91368 0.22817 0.09646 0.0
H44 H 0.9514 0.23057 0.11992 0.0
H45 H 0.10673 0.29851 0.13154 0.0
H46 H 0.16818 0.3457 0.11608 0.0
H47 H 0.19849 0.36223 0.06318 0.0
H48 H 0.15993 0.32092 0.0408 0.0
H49 H 0.03726 0.38815 0.10122 0.0
H50 H 0.06055 0.39929 0.05671 0.0
H51 H 0.10679 0.1863 0.0864 0.0
H52 H 0.98435 0.1346 0.07645 0.0
C53 C 0.7938 0.03056 0.38343 0.0
C54 C 0.7857 1.00128 0.37376 0.0
C55 C 0.7741 0.96783 0.38129 0.0
C56 C 0.77557 0.97842 0.39508 0.0
N57 N 0.7866 0.01633 0.39679 0.0
Co58 Co 0.79492 0.0435 0.41525 0.0
N59 N 0.76962 0.99338 0.42599 0.0
C60 C 0.76068 0.95818 0.42089 0.0
C61 C 0.74356 0.92883 0.43064 0.0
C62 C 0.74191 0.94662 0.44273 0.0
C63 C 0.75836 0.98601 0.43968 0.0
N64 N 0.80405 0.07101 0.43363 0.0
C65 C 0.79027 0.05704 0.44666 0.0
C66 C 0.80582 0.08679 0.4566 0.0
C67 C 0.82995 0.12042 0.44959 0.0
C68 C 0.82803 0.10946 0.43587 0.0
N69 N 0.82024 0.09393 0.40462 0.0
C70 C 0.8411 0.12983 0.41028 0.0
C71 C 0.856 0.15939 0.40064 0.0
C72 C 0.84458 0.14126 0.38796 0.0
C73 C 0.82321 0.10134 0.3906 0.0
N74 N 0.74288 0.03984 0.41358 0.0
C75 C 0.66643 0.03036 0.41315 0.0
C76 C 0.69971 0.06646 0.41649 0.0
C77 C 0.7374 0.07052 0.41672 0.0
C78 C 0.67295 0.9997 0.40966 0.0
C79 C 0.71084 1.00501 0.40987 0.0
N80 N 0.84615 0.04557 0.41697 0.0
C81 C 0.9039 0.05064 0.406 0.0
C82 C 0.91234 0.03549 0.41796 0.0
C83 C 0.88784 0.02746 0.42966 0.0
C84 C 0.8555 0.03314 0.42902 0.0
C85 C 0.87096 0.05536 0.40571 0.0
H86 H 0.83747 0.02628 0.43823 0.0
H87 H 0.86514 0.06583 0.39615 0.0
H88 H 0.76197 0.09836 0.41965 0.0
H89 H 0.71385 0.98035 0.40719 0.0
C90 C 0.76484 0.95329 0.4066 0.0
C91 C 0.81197 0.07195 0.37949 0.0
C92 C 0.76546 0.01576 0.45031 0.0
C93 C 0.84466 0.13502 0.42471 0.0
H94 H 0.78897 1.00411 0.36247 0.0
H95 H 0.76571 0.93922 0.37718 0.0
H96 H 0.73279 0.89804 0.42908 0.0
H97 H 0.73037 0.93233 0.4527 0.0
H98 H 0.80096 0.08457 0.46782 0.0
H99 H 0.84639 0.14951 0.45395 0.0
H100 H 0.87344 0.19043 0.40259 0.0
H101 H 0.85276 0.15601 0.37794 0.0
H102 H 0.69664 0.09124 0.4193 0.0
H103 H 0.6488 0.97142 0.4067 0.0
H104 H 0.9218 0.0575 0.39667 0.0
H105 H 0.89347 0.01665 0.4393 0.0
C106 C 0.76479 0.78038 0.71653 0.0
C107 C 0.77944 0.76419 0.70714 0.0
C108 C 0.78133 0.73493 0.71423 0.0
C109 C 0.76806 0.73497 0.72757 0.0
N110 N 0.75801 0.76244 0.72924 0.0
Co111 Co 0.74102 0.77528 0.74706 0.0
N112 N 0.762 0.74836 0.75865 0.0
C113 C 0.77073 0.72169 0.75386 0.0
C114 C 0.78297 0.70649 0.76434 0.0
C115 C 0.78128 0.72434 0.77647 0.0
C116 C 0.76816 0.74962 0.77272 0.0
N117 N 0.72421 0.78917 0.76469 0.0
C118 C 0.7349 0.78858 0.77815 0.0
C119 C 0.71622 0.80144 0.78724 0.0
C120 C 0.6921 0.80897 0.77922 0.0
C121 C 0.69762 0.8008 0.76572 0.0
N122 N 0.71917 0.80133 0.73553 0.0
C123 C 0.69127 0.80922 0.73953 0.0
C124 C 0.68105 0.8263 0.7291 0.0
C125 C 0.70409 0.82944 0.71787 0.0
C126 C 0.72734 0.8143 0.72216 0.0
N127 N 0.69027 0.72537 0.74607 0.0
C128 C 0.62313 0.64925 0.74464 0.0
C129 C 0.64239 0.66539 0.7574 0.0
C130 C 0.67524 0.70306 0.7579 0.0
C131 C 0.63807 0.67311 0.73263 0.0
C132 C 0.67138 0.7108 0.73357 0.0
N133 N 0.79235 0.82411 0.74805 0.0
C134 C 0.83277 0.89442 0.74989 0.0
C135 C 0.86705 0.89213 0.74896 0.0
C136 C 0.86296 0.85521 0.74753 0.0
C137 C 0.82575 0.82196 0.74689 0.0
C138 C 0.79572 0.86003 0.74961 0.0
H139 H 0.82426 0.7944 0.74533 0.0
H140 H 0.76985 0.86249 0.75058 0.0
H141 H 0.68915 0.71352 0.76793 0.0
H142 H 0.68231 0.72788 0.72409 0.0
C143 C 0.77223 0.71601 0.73935 0.0
C144 C 0.7559 0.81151 0.71318 0.0
C145 C 0.75821 0.77128 0.78289 0.0
C146 C 0.68187 0.80794 0.75371 0.0
H147 H 0.78837 0.77282 0.69639 0.0
H148 H 0.79314 0.71733 0.71033 0.0
H149 H 0.79278 0.68559 0.76327 0.0
H150 H 0.78826 0.7189 0.78691 0.0
H151 H 0.71886 0.80407 0.79855 0.0
H152 H 0.6733 0.81976 0.78279 0.0
H153 H 0.66083 0.83709 0.7298 0.0
H154 H 0.70403 0.84177 0.70774 0.0
H155 H 0.63308 0.64869 0.76704 0.0
H156 H 0.62425 0.66287 0.72251 0.0
H157 H 0.8346 0.92246 0.75099 0.0
H158 H 0.88853 0.85205 0.74661 0.0
C159 C 0.9981 0.76273 0.05058 0.0
C160 C 0.02652 0.77311 0.04033 0.0
C161 C 0.05912 0.77674 0.04696 0.0
C162 C 0.04884 0.76835 0.06085 0.0
N163 N 1.01192 0.75984 0.06331 0.0
Co164 Co 0.98542 0.74641 0.08182 0.0
N165 N 0.03553 0.76918 0.09223 0.0
C166 C 0.07008 0.77699 0.08675 0.0
C167 C 0.09967 0.79218 0.09652 0.0
C168 C 0.08245 0.79357 0.10888 0.0
C169 C 0.04314 0.77899 0.106 0.0
N170 N 0.95813 0.73248 0.10017 0.0
C171 C 0.97205 0.74543 0.11323 0.0
C172 C 0.94282 0.72636 0.12322 0.0
C173 C 0.90972 0.70054 0.11614 0.0
C174 C 0.92043 0.70513 0.10228 0.0
N175 N 0.93515 0.72333 0.07153 0.0
C176 C 0.89988 0.6969 0.07662 0.0
C177 C 0.87029 0.68615 0.06705 0.0
C178 C 0.8881 0.70705 0.05517 0.0
C179 C 0.92775 0.72939 0.05819 0.0
N180 N 0.98401 0.69538 0.08139 0.0
C181 C 0.99422 0.62917 0.08008 0.0
C182 C 1.00018 0.65027 0.09258 0.0
C183 C 0.99475 0.68272 0.09304 0.0
C184 C 0.98114 0.64122 0.06838 0.0
C185 C 0.9763 0.67418 0.06924 0.0
N186 N 0.98871 0.79808 0.08223 0.0
C187 C 0.96172 0.84022 0.08657 0.0
C188 C 0.99765 0.87391 0.08325 0.0
C189 C 0.02844 0.8681 0.0792 0.0
C190 C 0.02347 0.83055 0.07879 0.0
C191 C 0.9579 0.80274 0.08603 0.0
H192 H 0.04824 0.82803 0.07569 0.0
H193 H 0.93016 0.77756 0.08876 0.0
H194 H 1.00052 0.69827 0.10283 0.0
H195 H 0.96747 0.6832 0.05991 0.0
C196 C 0.07437 0.77502 0.07215 0.0
C197 C 0.95773 0.75377 0.04791 0.0
C198 C 1.0133 0.77221 0.11667 0.0
C199 C 0.89486 0.68854 0.09096 0.0
H200 H 0.02394 0.77763 0.02927 0.0
H201 H 0.08741 0.78607 0.04228 0.0
H202 H 0.13032 0.80218 0.09478 0.0
H203 H 0.09708 0.80381 0.11888 0.0
H204 H 0.94525 0.72996 0.1345 0.0
H205 H 0.88108 0.6814 0.12055 0.0
H206 H 0.83929 0.66677 0.06868 0.0
H207 H 0.87354 0.70583 0.04541 0.0
H208 H 1.00928 0.64198 0.10206 0.0
H209 H 0.97596 0.6262 0.05844 0.0
H210 H 0.93686 0.84271 0.08982 0.0
H211 H 0.05651 0.89247 0.07617 0.0
C212 C 0.25455 0.98646 0.3837 0.0
C213 C 0.27293 0.01529 0.37362 0.0
C214 C 0.30224 0.04734 0.38041 0.0
C215 C 0.30023 0.03632 0.39422 0.0
N216 N 0.27145 0.99944 0.39647 0.0
Co217 Co 0.25772 0.97212 0.41482 0.0
N218 N 0.28507 0.02164 0.4255 0.0
C219 C 0.31237 0.05625 0.42024 0.0
C220 C 0.32733 0.08524 0.4302 0.0
C221 C 0.30851 0.06757 0.44249 0.0
C222 C 0.28297 0.02864 0.43934 0.0
N223 N 0.2434 0.94404 0.43302 0.0
C224 C 0.24352 0.95733 0.44612 0.0
C225 C 0.23035 0.92722 0.45587 0.0
C226 C 0.22281 0.89435 0.44864 0.0
C227 C 0.23137 0.90598 0.43492 0.0
N228 N 0.23059 0.92251 0.40417 0.0
C229 C 0.22082 0.88693 0.40908 0.0
C230 C 0.20154 0.8579 0.39935 0.0
C231 C 0.19904 0.87638 0.38759 0.0
C232 C 0.21722 0.91587 0.3908 0.0
N233 N 0.3074 0.97064 0.41451 0.0
C234 C 0.38371 0.97993 0.41378 0.0
C235 C 0.36712 0.98351 0.42634 0.0
C236 C 0.32946 0.97892 0.42648 0.0
C237 C 0.36026 0.97022 0.40165 0.0
C238 C 0.32232 0.96533 0.40226 0.0
N239 N 0.2093 0.97536 0.41519 0.0
C240 C 0.14015 0.94848 0.41988 0.0
C241 C 0.14236 0.98423 0.41654 0.0
C242 C 0.17896 0.01484 0.41223 0.0
C243 C 0.21162 1.00997 0.41174 0.0
C244 C 0.17378 0.94464 0.4191 0.0
H245 H 0.23902 0.03471 0.4086 0.0
H246 H 0.17116 0.91698 0.42181 0.0
H247 H 0.31882 0.9834 0.4363 0.0
H248 H 0.30545 0.95821 0.39269 0.0
C249 C 0.31908 0.0612 0.40567 0.0
C250 C 0.22285 0.9464 0.38079 0.0
C251 C 0.25987 0.99857 0.4499 0.0
C252 C 0.22272 0.88106 0.42343 0.0
H253 H 0.26582 0.01333 0.36257 0.0
H254 H 0.32147 0.07578 0.37591 0.0
H255 H 0.34867 0.11576 0.42867 0.0
H256 H 0.3134 0.08154 0.45264 0.0
H257 H 0.2271 0.92886 0.46709 0.0
H258 H 0.21127 0.86522 0.45283 0.0
H259 H 0.18884 0.82679 0.40086 0.0
H260 H 0.1851 0.86225 0.37784 0.0
H261 H 0.38365 0.99121 0.43603 0.0
H262 H 0.37108 0.96637 0.39169 0.0
H263 H 0.11288 0.92374 0.42334 0.0
H264 H 0.1827 0.04275 0.40911 0.0
C265 C 0.25477 0.23552 0.71646 0.0
C266 C 0.24134 0.25269 0.70699 0.0
C267 C 0.24011 0.2823 0.71409 0.0
C268 C 0.25252 0.28147 0.7275 0.0
N269 N 0.26138 0.25317 0.72921 0.0
Co270 Co 0.277 0.23923 0.7471 0.0
N271 N 0.25664 0.26689 0.7586 0.0
C272 C 0.2492 0.29444 0.75378 0.0
C273 C 0.23716 0.30998 0.7642 0.0
C274 C 0.23761 0.29142 0.77632 0.0
C275 C 0.24983 0.26538 0.77262 0.0
N276 N 0.29243 0.22431 0.76481 0.0
C277 C 0.2811 0.22466 0.7782 0.0
C278 C 0.29849 0.21057 0.78737 0.0
C279 C 0.32252 0.20257 0.77949 0.0
C280 C 0.31817 0.21165 0.76598 0.0
N281 N 0.29821 0.21239 0.73569 0.0
C282 C 0.32529 0.20349 0.73983 0.0
C283 C 0.33536 0.18617 0.72944 0.0
C284 C 0.31309 0.18396 0.71808 0.0
C285 C 0.29041 0.19986 0.72226 0.0
N286 N 0.32842 0.28845 0.74633 0.0
C287 C 0.39467 0.36485 0.74486 0.0
C288 C 0.37568 0.34874 0.75764 0.0
C289 C 0.3432 0.31081 0.75817 0.0
C290 C 0.38076 0.34071 0.73292 0.0
C291 C 0.34773 0.30285 0.73387 0.0
N292 N 0.22496 0.19118 0.74782 0.0
C293 C 0.18252 0.12103 0.74944 0.0
C294 C 0.14871 0.12424 0.7479 0.0
C295 C 0.15468 0.16211 0.74656 0.0
C296 C 0.19239 0.19457 0.74633 0.0
C297 C 0.22019 0.15474 0.74948 0.0
H298 H 0.19494 0.22262 0.74486 0.0
H299 H 0.24543 0.15131 0.7507 0.0
H300 H 0.32925 0.30022 0.76819 0.0
H301 H 0.33701 0.28574 0.72439 0.0
C302 C 0.24857 0.30063 0.73926 0.0
C303 C 0.26279 0.2038 0.71314 0.0
C304 C 0.25842 0.24276 0.78284 0.0
C305 C 0.33399 0.2042 0.75406 0.0
H306 H 0.23281 0.24452 0.69619 0.0
H307 H 0.22928 0.30069 0.71013 0.0
H308 H 0.22827 0.33158 0.76309 0.0
H309 H 0.23042 0.29689 0.78672 0.0
H310 H 0.29504 0.20736 0.79864 0.0
H311 H 0.34039 0.1908 0.78315 0.0
H312 H 0.35495 0.17466 0.73023 0.0
H313 H 0.31329 0.17176 0.70794 0.0
H314 H 0.38561 0.36551 0.76725 0.0
H315 H 0.39431 0.35148 0.72279 0.0
H316 H 0.1802 0.09277 0.75042 0.0
H317 H 0.13036 0.16725 0.74579 0.0
C318 C 0.76483 0.99272 0.62267 0.0
C319 C 0.77868 0.02358 0.63206 0.0
C320 C 0.78004 0.05441 0.6249 0.0
C321 C 0.76728 0.0409 0.61154 0.0
N322 N 0.75805 1.00357 0.60991 0.0
Co323 Co 0.7419 0.97363 0.59209 0.0
N324 N 0.76214 0.02149 0.58047 0.0
C325 C 0.76996 0.05668 0.58522 0.0
C326 C 0.78179 0.08408 0.57473 0.0
C327 C 0.78078 0.06473 0.56263 0.0
C328 C 0.76845 0.02647 0.56641 0.0
N329 N 0.72596 0.94282 0.57446 0.0
C330 C 0.73673 0.95425 0.56101 0.0
C331 C 0.71872 0.92259 0.55192 0.0
C332 C 0.69494 0.89067 0.55992 0.0
C333 C 0.7 0.90435 0.57342 0.0
N334 N 0.72071 0.92571 0.60364 0.0
C335 C 0.69343 0.8896 0.59961 0.0
C336 C 0.68343 0.86236 0.61006 0.0
C337 C 0.70597 0.88265 0.62134 0.0
C338 C 0.72871 0.9212 0.61706 0.0
N339 N 0.69056 0.97148 0.59293 0.0
C340 C 0.62315 0.97988 0.59425 0.0
C341 C 0.64247 0.98294 0.5815 0.0
C342 C 0.67543 0.97839 0.58106 0.0
C343 C 0.63808 0.97112 0.60629 0.0
C344 C 0.67151 0.96703 0.60541 0.0
N345 N 0.79386 0.97753 0.59127 0.0
C346 C 0.83596 0.94952 0.58988 0.0
C347 C 0.87004 0.98665 0.59103 0.0
C348 C 0.86428 0.01875 0.59207 0.0
C349 C 0.82663 0.01358 0.59243 0.0
C350 C 0.79839 0.94566 0.58988 0.0
H351 H 0.82432 0.03927 0.59373 0.0
H352 H 0.77302 0.91688 0.58892 0.0
H353 H 0.68943 0.98188 0.57105 0.0
H354 H 0.68247 0.96112 0.61492 0.0
C355 C 0.7711 0.06384 0.59973 0.0
C356 C 0.75662 0.95294 0.62609 0.0
C357 C 0.75941 0.99498 0.55627 0.0
C358 C 0.68439 0.88132 0.58541 0.0
H359 H 0.78737 0.02408 0.64285 0.0
H360 H 0.79115 0.08377 0.62879 0.0
H361 H 0.7909 0.11467 0.57577 0.0
H362 H 0.78768 0.07716 0.55218 0.0
H363 H 0.72153 0.92268 0.54062 0.0
H364 H 0.67667 0.86095 0.55635 0.0
H365 H 0.6637 0.83119 0.60935 0.0
H366 H 0.70589 0.87041 0.6315 0.0
H367 H 0.63316 0.99016 0.57184 0.0
H368 H 0.6242 0.96751 0.6164 0.0
H369 H 0.83794 0.92335 0.58918 0.0
H370 H 0.88865 0.04829 0.59253 0.0
C371 C 0.79372 0.7665 0.95563 0.0
C372 C 0.78578 0.78763 0.96536 0.0
C373 C 0.77391 0.80935 0.95793 0.0
C374 C 0.77507 0.8002 0.94412 0.0
N375 N 0.78613 0.77341 0.94231 0.0
Co376 Co 0.79403 0.75456 0.92378 0.0
N377 N 0.76849 0.77929 0.91318 0.0
C378 C 0.75956 0.80544 0.91838 0.0
C379 C 0.74227 0.81765 0.90872 0.0
C380 C 0.74051 0.79835 0.89658 0.0
C381 C 0.75706 0.7755 0.89951 0.0
N382 N 0.80274 0.73618 0.90532 0.0
C383 C 0.78879 0.73644 0.89233 0.0
C384 C 0.80402 0.72215 0.88232 0.0
C385 C 0.82813 0.71253 0.88923 0.0
C386 C 0.82651 0.72159 0.90298 0.0
N387 N 0.81957 0.72952 0.93427 0.0
C388 C 0.84015 0.71437 0.9285 0.0
C389 C 0.85526 0.69978 0.93806 0.0
C390 C 0.84429 0.70664 0.9508 0.0
C391 C 0.82295 0.72521 0.94828 0.0
N392 N 0.74208 0.70604 0.92556 0.0
C393 C 0.66566 0.63891 0.9261 0.0
C394 C 0.69882 0.63619 0.92255 0.0
C395 C 0.7365 0.66991 0.92229 0.0
C396 C 0.67229 0.67605 0.92975 0.0
C397 C 0.71018 0.70872 0.92948 0.0
N398 N 0.84517 0.80383 0.92194 0.0
C399 C 0.90288 0.85683 0.93284 0.0
C400 C 0.91094 0.88048 0.92091 0.0
C401 C 0.88638 0.86388 0.90924 0.0
C402 C 0.85423 0.82565 0.9099 0.0
C403 C 0.87016 0.81896 0.93314 0.0
H404 H 0.83608 0.81438 0.90072 0.0
H405 H 0.86461 0.80263 0.94269 0.0
H406 H 0.76097 0.66673 0.91921 0.0
H407 H 0.71327 0.73638 0.93226 0.0
C408 C 0.76402 0.8145 0.93267 0.0
C409 C 0.81214 0.7435 0.95945 0.0
C410 C 0.76416 0.75311 0.88878 0.0
C411 C 0.84331 0.71265 0.91406 0.0
H412 H 0.78935 0.78814 0.97664 0.0
H413 H 0.76557 0.82952 0.9621 0.0
H414 H 0.73151 0.83762 0.91037 0.0
H415 H 0.72886 0.80116 0.88666 0.0
H416 H 0.79896 0.71952 0.87111 0.0
H417 H 0.84436 0.6998 0.88479 0.0
H418 H 0.87256 0.68612 0.93602 0.0
H419 H 0.85275 0.70017 0.96077 0.0
H420 H 0.69565 0.60838 0.91961 0.0
H421 H 0.64825 0.68007 0.93289 0.0
H422 H 0.92084 0.86797 0.94216 0.0
H423 H 0.89175 0.88037 0.89962 0.0
C424 C 0.0419 0.78269 0.28846 0.0
C425 C 1.01305 0.76425 0.29855 0.0
C426 C 0.98075 0.73535 0.29173 0.0
C427 C 0.99163 0.73767 0.27788 0.0
N428 N 0.02865 0.76626 0.27565 0.0
Co429 Co 0.05592 0.7799 0.25728 0.0
N430 N 1.00627 0.75279 0.2466 0.0
C431 C 0.97148 0.72577 0.25187 0.0
C432 C 0.94231 0.7116 0.24195 0.0
C433 C 0.96004 0.73067 0.2297 0.0
C434 C 0.99923 0.75543 0.2328 0.0
N435 N 0.08397 0.7939 0.23908 0.0
C436 C 0.07062 0.79337 0.22596 0.0
C437 C 0.10025 0.80392 0.21611 0.0
C438 C 0.13304 0.81104 0.22336 0.0
C439 C 0.12175 0.80442 0.23716 0.0
N440 N 0.10574 0.80684 0.26787 0.0
C441 C 0.14123 0.81602 0.26294 0.0
C442 C 0.17045 0.83491 0.27264 0.0
C443 C 0.15218 0.83767 0.28443 0.0
C444 C 0.11261 0.82004 0.28125 0.0
N445 N 0.05719 0.73017 0.2576 0.0
C446 C 0.04795 0.65391 0.25845 0.0
C447 C 0.04264 0.66977 0.24599 0.0
C448 C 0.0475 0.70746 0.24578 0.0
C449 C 0.05931 0.6782 0.27041 0.0
C450 C 0.06388 0.71594 0.26976 0.0
N451 N 0.05278 0.82836 0.25693 0.0
C452 C 0.08009 0.89768 0.25271 0.0
C453 C 0.04403 0.89533 0.25577 0.0
C454 C 1.01301 0.85858 0.25966 0.0
C455 C 0.0179 0.82596 0.26015 0.0
C456 C 0.08381 0.86399 0.25331 0.0
H457 H 0.99296 0.79854 0.26311 0.0
H458 H 0.11165 0.86665 0.25075 0.0
H459 H 0.04208 0.71762 0.23601 0.0
H460 H 0.07198 0.73326 0.27922 0.0
C461 C 0.96658 0.71905 0.26644 0.0
C462 C 0.08219 0.81407 0.2914 0.0
C463 C 0.02953 0.77895 0.22231 0.0
C464 C 0.14683 0.81314 0.24862 0.0
H465 H 1.01517 0.77101 0.30963 0.0
H466 H 0.95227 0.71614 0.29624 0.0
H467 H 0.91159 0.69082 0.24351 0.0
H468 H 0.94583 0.72658 0.21963 0.0
H469 H 0.09829 0.80548 0.20483 0.0
H470 H 0.16186 0.82076 0.2191 0.0
H471 H 0.20154 0.84688 0.27114 0.0
H472 H 0.16643 0.85112 0.29422 0.0
H473 H 0.03345 0.65279 0.23642 0.0
H474 H 0.06467 0.66824 0.28029 0.0
H475 H 0.10513 0.92517 0.2496 0.0
H476 H 0.98481 0.85479 0.26249 0.0
C477 C 0.25451 0.02436 0.62224 0.0
C478 C 0.24053 0.99324 0.63152 0.0
C479 C 0.23917 0.96258 0.62424 0.0
C480 C 0.25207 0.97646 0.61091 0.0
N481 N 0.26138 0.01385 0.60943 0.0
Co482 Co 0.27779 0.04434 0.59173 0.0
N483 N 0.2575 0.99681 0.57992 0.0
C484 C 0.24958 0.96146 0.58454 0.0
C485 C 0.23778 0.93436 0.57394 0.0
C486 C 0.23891 0.95407 0.56193 0.0
C487 C 0.25126 0.99224 0.56585 0.0
N488 N 0.29396 0.07565 0.57422 0.0
C489 C 0.28301 0.06467 0.56075 0.0
C490 C 0.3006 0.09671 0.55181 0.0
C491 C 0.32448 0.12836 0.5599 0.0
C492 C 0.3198 0.11418 0.57331 0.0
N493 N 0.29903 0.09191 0.60345 0.0
C494 C 0.32643 0.12811 0.59956 0.0
C495 C 0.33643 0.15503 0.61012 0.0
C496 C 0.31378 0.13443 0.62134 0.0
C497 C 0.29096 0.09604 0.61691 0.0
N498 N 0.32901 0.04623 0.59256 0.0
C499 C 0.39501 0.03584 0.59402 0.0
C500 C 0.37643 0.03362 0.58121 0.0
C501 C 0.34408 0.03918 0.58069 0.0
C502 C 0.3808 0.0455 0.60601 0.0
C503 C 0.34789 0.05043 0.60507 0.0
N504 N 0.22593 0.04066 0.59096 0.0
C505 C 0.18401 0.06891 0.5898 0.0
C506 C 0.14987 0.03179 0.59084 0.0
C507 C 0.1555 0.99959 0.59171 0.0
C508 C 0.1931 1.00463 0.592 0.0
C509 C 0.22153 0.07265 0.58974 0.0
H510 H 0.1953 0.97885 0.59317 0.0
H511 H 0.24696 0.10141 0.58887 0.0
H512 H 0.33048 0.03638 0.57064 0.0
H513 H 0.33694 0.05638 0.61457 0.0
C514 C 0.24832 0.95386 0.59901 0.0
C515 C 0.26281 0.06408 0.6258 0.0
C516 C 0.26056 0.02406 0.55582 0.0
C517 C 0.33544 0.13684 0.58538 0.0
H518 H 0.23176 0.99245 0.64231 0.0
H519 H 0.22798 0.9331 0.62801 0.0
H520 H 0.22863 0.90374 0.57487 0.0
H521 H 0.23209 0.94193 0.55144 0.0
H522 H 0.2974 0.0971 0.54054 0.0
H523 H 0.34247 0.15826 0.55645 0.0
H524 H 0.35622 0.18621 0.60953 0.0
H525 H 0.3138 0.14637 0.63156 0.0
H526 H 0.3866 0.02722 0.57157 0.0
H527 H 0.39401 0.04775 0.61617 0.0
H528 H 0.18211 0.09514 0.58923 0.0
H529 H 0.13107 0.97006 0.59207 0.0
C530 C 0.25196 0.2673 0.95497 0.0
C531 C 0.26854 0.25334 0.96449 0.0
C532 C 0.29776 0.25115 0.95743 0.0
C533 C 0.2973 0.26354 0.94398 0.0
N534 N 0.26958 0.27328 0.94223 0.0
Co535 Co 0.25606 0.28894 0.92427 0.0
N536 N 0.28188 0.26654 0.91289 0.0
C537 C 0.30869 0.25798 0.91769 0.0
C538 C 0.32262 0.24409 0.90732 0.0
C539 C 0.30367 0.24439 0.89526 0.0
C540 C 0.27904 0.25841 0.89895 0.0
N541 N 0.24181 0.30474 0.90651 0.0
C542 C 0.24092 0.29231 0.89321 0.0
C543 C 0.22813 0.31064 0.88394 0.0
C544 C 0.22211 0.33623 0.89169 0.0
C545 C 0.23105 0.33189 0.90523 0.0
N546 N 0.23063 0.31177 0.93558 0.0
C547 C 0.22297 0.3396 0.93136 0.0
C548 C 0.20602 0.35036 0.94168 0.0
C549 C 0.20276 0.32775 0.95306 0.0
C550 C 0.21773 0.30422 0.94897 0.0
N551 N 0.30648 0.33944 0.92476 0.0
C552 C 0.38304 0.40617 0.92557 0.0
C553 C 0.36596 0.38683 0.91292 0.0
C554 C 0.32817 0.35388 0.91275 0.0
C555 C 0.36004 0.39164 0.93778 0.0
C556 C 0.32199 0.35871 0.93714 0.0
N557 N 0.20682 0.23794 0.92373 0.0
C558 C 0.13697 0.19738 0.91998 0.0
C559 C 0.13828 0.16338 0.92321 0.0
C560 C 0.17478 0.16788 0.92655 0.0
C561 C 0.2083 0.20489 0.92665 0.0
C562 C 0.17146 0.23436 0.92042 0.0
H563 H 0.23561 0.20653 0.9291 0.0
H564 H 0.16958 0.26003 0.9181 0.0
H565 H 0.31704 0.33946 0.90283 0.0
H566 H 0.30542 0.34833 0.94676 0.0
C567 C 0.31548 0.25806 0.9322 0.0
C568 C 0.22068 0.27617 0.95818 0.0
C569 C 0.25621 0.26697 0.8888 0.0
C570 C 0.22436 0.34847 0.9171 0.0
H571 H 0.26015 0.24492 0.97528 0.0
H572 H 0.31544 0.23952 0.96141 0.0
H573 H 0.3433 0.23398 0.90843 0.0
H574 H 0.30785 0.2358 0.88492 0.0
H575 H 0.22425 0.30659 0.87271 0.0
H576 H 0.21143 0.35494 0.88794 0.0
H577 H 0.1954 0.37066 0.94082 0.0
H578 H 0.19054 0.32832 0.96316 0.0
H579 H 0.38216 0.39626 0.90317 0.0
H580 H 0.37128 0.40563 0.94782 0.0
H581 H 0.10946 0.19552 0.91736 0.0
H582 H 0.17769 0.14273 0.92889 0.0
C583 C 0.99607 0.24034 0.28819 0.0
C584 C 0.02441 0.25877 0.29844 0.0
C585 C 0.05692 0.28787 0.29178 0.0
C586 C 0.04664 0.28562 0.27787 0.0
N587 N 1.00981 0.25691 0.27543 0.0
Co588 Co 0.98339 0.24313 0.25689 0.0
N589 N 0.03359 0.27093 0.2465 0.0
C590 C 0.06797 0.29813 0.25199 0.0
C591 C 0.09748 0.31377 0.24221 0.0
C592 C 0.08043 0.29559 0.22978 0.0
C593 C 0.04133 0.26972 0.23267 0.0
N594 N 0.95615 0.22878 0.2385 0.0
C595 C 0.97019 0.22949 0.22548 0.0
C596 C 0.94036 0.21575 0.21556 0.0
C597 C 0.90691 0.2074 0.22258 0.0
C598 C 0.91791 0.21601 0.23635 0.0
N599 N 0.93307 0.21562 0.2672 0.0
C600 C 0.89759 0.20562 0.26204 0.0
C601 C 0.86807 0.18672 0.27164 0.0
C602 C 0.8861 0.18471 0.28362 0.0
C603 C 0.92578 0.20264 0.28061 0.0
N604 N 0.98144 0.2925 0.25707 0.0
C605 C 0.99193 0.36916 0.25803 0.0
C606 C 0.99693 0.35326 0.24554 0.0
C607 C 0.99143 0.31532 0.24526 0.0
C608 C 0.97946 0.34453 0.26989 0.0
C609 C 0.97441 0.30661 0.2692 0.0
N610 N 0.98718 0.195 0.25672 0.0
C611 C 0.96045 0.12568 0.25271 0.0
C612 C 0.99622 0.12815 0.25635 0.0
C613 C 0.02707 0.16513 0.26011 0.0
C614 C 0.02203 0.19769 0.26022 0.0
C615 C 0.9565 0.15925 0.25302 0.0
H616 H 0.04683 0.22531 0.2631 0.0
H617 H 0.92868 0.15631 0.25024 0.0
H618 H 0.99659 0.30506 0.23548 0.0
H619 H 0.96604 0.28919 0.27864 0.0
C620 C 0.07213 0.30456 0.26658 0.0
C621 C 0.95581 0.20868 0.2909 0.0
C622 C 1.01179 0.24743 0.22184 0.0
C623 C 0.89233 0.20722 0.24764 0.0
H624 H 0.02183 0.25186 0.30952 0.0
H625 H 0.08515 0.30717 0.29644 0.0
H626 H 0.1279 0.33529 0.24393 0.0
H627 H 0.0949 0.3012 0.2197 0.0
H628 H 0.94262 0.21286 0.20436 0.0
H629 H 0.87786 0.19548 0.21822 0.0
H630 H 0.83697 0.17412 0.26995 0.0
H631 H 0.87162 0.17142 0.2934 0.0
H632 H 1.0054 0.37013 0.23593 0.0
H633 H 0.97497 0.35488 0.27984 0.0
H634 H 0.93544 0.09793 0.24981 0.0
H635 H 0.05554 0.16931 0.26276 0.0
H636 H 0.03537 0.20774 0.20468 0.0
H637 H 1.00855 0.30033 0.20481 0.0
H638 H 0.04016 0.21107 0.17903 0.0
H639 H 1.01032 0.3022 0.17931 0.0
H640 H 0.0447 0.31903 0.13348 0.0
H641 H 0.04435 0.3185 0.15898 0.0
H642 H 1.00435 0.19486 0.1585 0.0
H643 H 1.0078 0.19674 0.13281 0.0
C644 C 0.03113 0.22922 0.19916 0.0
C645 C 0.02213 0.25412 0.20665 0.0
C646 C 0.03302 0.23068 0.18444 0.0
C647 C 0.02513 0.25658 0.17685 0.0
C648 C 1.0173 0.28227 0.18456 0.0
C649 C 1.01626 0.28132 0.19923 0.0
C650 C 0.03539 0.2917 0.13889 0.0
C651 C 0.02635 0.25795 0.13124 0.0
C652 C 0.03506 0.29124 0.15357 0.0
C653 C 0.02459 0.25666 0.16106 0.0
C654 C 1.01363 0.22236 0.15326 0.0
C655 C 1.01482 0.22311 0.13852 0.0
H656 H 0.71733 0.02644 0.4679 0.0
H657 H 0.79948 0.9854 0.46709 0.0
H658 H 0.71661 0.02442 0.49351 0.0
H659 H 0.79741 0.98105 0.49268 0.0
H660 H 0.821 0.01736 0.53832 0.0
H661 H 0.82012 0.02032 0.51265 0.0
H662 H 0.69828 0.98835 0.51407 0.0
H663 H 0.70036 0.98763 0.53966 0.0
C664 C 0.73413 0.01562 0.47326 0.0
C665 C 0.75802 1.00558 0.46554 0.0
C666 C 0.73391 0.01454 0.48797 0.0
C667 C 0.75732 1.00298 0.49535 0.0
C668 C 0.77971 0.99106 0.48749 0.0
C669 C 0.7803 0.99267 0.47279 0.0
C670 C 0.79445 0.01191 0.53306 0.0
C671 C 0.76087 1.00257 0.54088 0.0
C672 C 0.79359 0.01288 0.51834 0.0
C673 C 0.75891 1.004 0.51111 0.0
C674 C 0.72568 0.99581 0.51912 0.0
C675 C 0.72676 0.99537 0.5338 0.0
H676 H 0.81983 0.81008 0.80088 0.0
H677 H 0.699 0.71925 0.79945 0.0
H678 H 0.81902 0.80543 0.82653 0.0
H679 H 0.697 0.71566 0.82502 0.0
H680 H 0.71592 0.69484 0.87097 0.0
H681 H 0.71523 0.69708 0.84538 0.0
H682 H 0.79659 0.82135 0.84671 0.0
H683 H 0.79863 0.81814 0.87228 0.0
C684 C 0.79324 0.78886 0.80611 0.0
C685 C 0.75958 0.7649 0.79827 0.0
C686 C 0.79243 0.78655 0.82082 0.0
C687 C 0.75773 0.76052 0.82803 0.0
C688 C 0.72441 0.73577 0.82 0.0
C689 C 0.72544 0.73776 0.80532 0.0
C690 C 0.73288 0.72269 0.86573 0.0
C691 C 0.75691 0.75638 0.87358 0.0
C692 C 0.73267 0.72409 0.85103 0.0
C693 C 0.75621 0.75937 0.84379 0.0
C694 C 0.77878 0.79343 0.85178 0.0
C695 C 0.77937 0.79187 0.86648 0.0
H696 H 0.04335 0.73963 0.13424 0.0
H697 H 1.00188 0.82135 0.13335 0.0
H698 H 0.04513 0.74217 0.1599 0.0
H699 H 1.00254 0.82338 0.15905 0.0
H700 H 0.04179 0.84027 0.20588 0.0
H701 H 0.04154 0.84255 0.18019 0.0
H702 H 0.99855 0.71857 0.17877 0.0
H703 H 0.99991 0.7169 0.20442 0.0
C704 C 0.03576 0.75906 0.13957 0.0
C705 C 0.02337 0.78101 0.13184 0.0
C706 C 0.03593 0.75992 0.15428 0.0
C707 C 0.02337 0.78252 0.16163 0.0
C708 C 1.01264 0.80584 0.15381 0.0
C709 C 1.01251 0.80495 0.13909 0.0
C710 C 0.0312 0.81341 0.20002 0.0
C711 C 0.02005 0.77827 0.20711 0.0
C712 C 0.03129 0.81468 0.1853 0.0
C713 C 0.02052 0.78085 0.17733 0.0
C714 C 1.00778 0.74538 0.18451 0.0
C715 C 1.00772 0.74416 0.19922 0.0
H716 H 0.19793 0.99482 0.53788 0.0
H717 H 0.32188 0.03829 0.53912 0.0
H718 H 0.19884 0.99041 0.51224 0.0
H719 H 0.32389 0.03669 0.51363 0.0
H720 H 0.31136 0.99718 0.46829 0.0
H721 H 0.31035 1.00026 0.49377 0.0
H722 H 0.21613 0.02564 0.49138 0.0
H723 H 0.21595 0.01984 0.46577 0.0
C724 C 0.2253 1.0032 0.53261 0.0
C725 C 0.25979 0.01684 0.5404 0.0
C726 C 0.22609 1.00135 0.51789 0.0
C727 C 0.26155 0.0136 0.51064 0.0
C728 C 0.29584 0.02637 0.51864 0.0
C729 C 0.29484 0.02748 0.5333 0.0
C730 C 0.29097 1.00411 0.47327 0.0
C731 C 0.26392 1.00855 0.46513 0.0
C732 C 0.29029 1.00592 0.48793 0.0
C733 C 0.26298 0.01303 0.49487 0.0
C734 C 0.23702 0.0192 0.48656 0.0
C735 C 0.23729 0.01665 0.47186 0.0
H736 H 0.31859 0.29174 0.79961 0.0
H737 H 0.19547 0.20749 0.80059 0.0
H738 H 0.31985 0.29569 0.8251 0.0
H739 H 0.19558 0.21294 0.82622 0.0
H740 H 0.21371 0.20149 0.87282 0.0
H741 H 0.21397 0.19618 0.84719 0.0
H742 H 0.30428 0.31773 0.84479 0.0
H743 H 0.30529 0.32166 0.87029 0.0
C744 C 0.29154 0.27477 0.80537 0.0
C745 C 0.25695 0.2493 0.7982 0.0
C746 C 0.29211 0.27704 0.82002 0.0
C747 C 0.25784 0.25452 0.82795 0.0
C748 C 0.22281 0.23012 0.82062 0.0
C749 C 0.22246 0.22738 0.80591 0.0
C750 C 0.2341 0.22663 0.86672 0.0
C751 C 0.25959 0.26188 0.87345 0.0
C752 C 0.2339 0.22392 0.85201 0.0
C753 C 0.25888 0.25662 0.84371 0.0
C754 C 0.28499 0.29161 0.85065 0.0
C755 C 0.28561 0.29404 0.8653 0.0
H756 H 0.11619 0.22948 0.04282 0.0
H757 H 0.06786 0.28742 0.01884 0.0
H758 H 0.14892 0.22457 0.02171 0.0
H759 H 0.09908 0.28093 0.99759 0.0
H760 H 0.14152 0.23711 0.9602 0.0
H761 H 0.10152 0.22847 0.98104 0.0
H762 H 0.20547 0.28064 0.00665 0.0
H763 H 0.24555 0.291 0.98572 0.0
C764 C 0.11137 0.23982 0.03292 0.0
C765 C 0.08858 0.25792 0.03245 0.0
C766 C 0.13041 0.23734 0.02087 0.0
C767 C 0.12661 0.25234 0.00797 0.0
C768 C 0.10218 0.26863 0.00733 0.0
C769 C 0.08382 0.2719 0.01947 0.0
C770 C 0.15568 0.24585 0.97035 0.0
C771 C 0.19664 0.26373 0.97135 0.0
C772 C 0.13282 0.2412 0.98225 0.0
C773 C 0.15027 0.25373 0.99551 0.0
C774 C 0.19107 0.27012 0.99662 0.0
C775 C 0.21404 0.27558 0.98465 0.0
H776 H 0.87301 0.06724 0.36823 0.0
H777 H 0.79394 0.10936 0.35926 0.0
H778 H 0.91102 0.10011 0.34714 0.0
H779 H 0.83224 0.14291 0.33831 0.0
H780 H 0.93695 0.23734 0.31369 0.0
H781 H 0.90084 0.20109 0.33462 0.0
H782 H 0.90588 0.10052 0.32021 0.0
H783 H 0.94151 0.13688 0.29916 0.0
C784 C 0.86328 0.08279 0.36154 0.0
C785 C 0.83039 0.08557 0.36532 0.0
C786 C 0.88517 0.10184 0.34953 0.0
C787 C 0.87506 0.12467 0.34115 0.0
C788 C 0.84121 0.12611 0.34466 0.0
C789 C 0.81898 0.10653 0.35653 0.0
C790 C 0.93127 0.20787 0.31524 0.0
C791 C 0.94264 0.19011 0.30498 0.0
C792 C 0.91007 0.18688 0.32708 0.0
C793 C 0.90006 0.14772 0.32902 0.0
C794 C 0.91319 0.13062 0.31907 0.0
C795 C 0.93386 0.15147 0.30709 0.0
H796 H 0.79541 0.89046 0.71112 0.0
H797 H 0.74112 0.78652 0.68567 0.0
H798 H 0.80292 0.93016 0.69034 0.0
H799 H 0.75023 0.8263 0.66479 0.0
H800 H 0.79745 0.91505 0.62847 0.0
H801 H 0.80457 0.88292 0.64934 0.0
H802 H 0.74902 0.93181 0.67445 0.0
H803 H 0.74034 0.96244 0.65348 0.0
C804 C 0.78643 0.87627 0.70098 0.0
C805 C 0.76861 0.83542 0.7 0.0
C806 C 0.7904 0.89896 0.68912 0.0
C807 C 0.77723 0.88143 0.67591 0.0
C808 C 0.76118 0.84077 0.67479 0.0
C809 C 0.75642 0.81796 0.68672 0.0
C810 C 0.78777 0.91981 0.63854 0.0
C811 C 0.76924 0.94215 0.63937 0.0
C812 C 0.79152 0.90111 0.65045 0.0
C813 C 0.7774 0.90481 0.66356 0.0
C814 C 0.76069 0.92881 0.66454 0.0
C815 C 0.75616 0.94683 0.65255 0.0
H816 H 0.94249 0.81055 0.03958 0.0
H817 H 0.93954 0.70619 0.02515 0.0
H818 H 0.90667 0.81053 0.01849 0.0
H819 H 0.90321 0.70557 0.00419 0.0
H820 H 0.79523 0.68838 0.97974 0.0
H821 H 0.83409 0.69397 1.0006 0.0
H822 H 0.9118 0.81585 0.99149 0.0
H823 H 0.87326 0.80987 0.97047 0.0
C824 C 0.93514 0.7883 0.03166 0.0
C825 C 0.94442 0.75884 0.03381 0.0
C826 C 0.91437 0.78806 0.01966 0.0
C827 C 0.90163 0.75777 0.00973 0.0
C828 C 0.91215 0.72904 0.01171 0.0
C829 C 0.93346 0.72968 0.02357 0.0
C830 C 0.82018 0.71647 0.98238 0.0
C831 C 0.83113 0.74869 0.97354 0.0
C832 C 0.84273 0.71962 0.9942 0.0
C833 C 0.8764 0.75525 0.99761 0.0
C834 C 0.88609 0.78801 0.98917 0.0
C835 C 0.8639 0.78468 0.9772 0.0
H836 H 0.10566 0.78687 0.31334 0.0
H837 H 0.08989 0.88256 0.30101 0.0
H838 H 0.1402 0.82255 0.33457 0.0
H839 H 0.12371 0.91816 0.32247 0.0
H840 H 0.15619 0.94418 0.37172 0.0
H841 H 0.11831 0.91235 0.35039 0.0
H842 H 0.20747 0.88661 0.3375 0.0
H843 H 0.24548 0.91919 0.35858 0.0
C844 C 0.10857 0.81507 0.31543 0.0
C845 C 0.09472 0.83179 0.30566 0.0
C846 C 0.12877 0.83573 0.32747 0.0
C847 C 0.13511 0.87341 0.33013 0.0
C848 C 0.11928 0.88922 0.32073 0.0
C849 C 0.09968 0.86878 0.30852 0.0
C850 C 0.16807 0.93269 0.36408 0.0
C851 C 0.20386 0.93441 0.36669 0.0
C852 C 0.14633 0.91425 0.35194 0.0
C853 C 0.1596 0.89643 0.34235 0.0
C854 C 0.19618 0.89957 0.34476 0.0
C855 C 0.21818 0.9186 0.35672 0.0
H856 H 0.22215 0.10208 0.6282 0.0
H857 H 0.27839 0.05374 0.65318 0.0
H858 H 0.2149 0.13396 0.64911 0.0
H859 H 0.26948 0.08405 0.6742 0.0
H860 H 0.22184 0.12496 0.71077 0.0
H861 H 0.21445 0.0856 0.68989 0.0
H862 H 0.27036 0.19021 0.66478 0.0
H863 H 0.27943 0.22963 0.68576 0.0
C864 C 0.23157 0.09704 0.63827 0.0
C865 C 0.24992 0.07453 0.63908 0.0
C866 C 0.22774 0.11557 0.6502 0.0
C867 C 0.24157 0.11151 0.66331 0.0
C868 C 0.25805 0.08731 0.66428 0.0
C869 C 0.26269 0.06947 0.65227 0.0
C870 C 0.23156 0.13941 0.7007 0.0
C871 C 0.25026 0.18035 0.69986 0.0
C872 C 0.22765 0.11691 0.68879 0.0
C873 C 0.24174 0.13476 0.67568 0.0
C874 C 0.2587 0.17555 0.67469 0.0
C875 C 0.26343 0.19815 0.68668 0.0
H876 H 0.95421 0.55893 0.06558 0.0
H877 H 0.05373 0.62309 0.09271 0.0
H878 H 0.96719 0.50485 0.06498 0.0
H879 H 0.06728 0.56977 0.09191 0.0
H880 H 0.06351 0.45475 0.09947 0.0
H881 H 0.04983 0.50788 0.09954 0.0
H882 H 1.00515 0.4783 0.05727 0.0
H883 H 1.01675 0.42345 0.05752 0.0
C884 C 0.97912 0.56181 0.07133 0.0
C885 C 1.00254 0.59572 0.07931 0.0
C886 C 0.98674 0.53058 0.07096 0.0
C887 C 0.01831 0.53208 0.07848 0.0
C888 C 0.04207 0.56639 0.08624 0.0
C889 C 0.03428 0.59738 0.08668 0.0
C890 C 0.05031 0.45899 0.09019 0.0
C891 C 0.04119 0.4339 0.07852 0.0
C892 C 0.04292 0.49027 0.09015 0.0
C893 C 0.02629 0.49824 0.07839 0.0
C894 C 1.01747 0.47338 0.06665 0.0
C895 C 0.02475 0.44192 0.06672 0.0
H896 H 0.59864 0.96601 0.42249 0.0
H897 H 0.63983 0.07994 0.40449 0.0
H898 H 0.53191 0.95406 0.42231 0.0
H899 H 0.57274 0.06815 0.4045 0.0
H900 H 0.44094 0.01695 0.39342 0.0
H901 H 0.50828 0.02971 0.39331 0.0
H902 H 0.4887 0.97244 0.43344 0.0
H903 H 0.42146 0.95922 0.43345 0.0
C904 C 0.5936 0.98863 0.41844 0.0
C905 C 0.62522 0.02399 0.41344 0.0
C906 C 0.55505 0.98186 0.41847 0.0
C907 C 0.54629 1.01 0.41338 0.0
C908 C 0.57787 0.04545 0.40838 0.0
C909 C 0.61663 0.05243 0.40851 0.0
C910 C 0.45078 1.00672 0.40219 0.0
C911 C 0.42515 0.98691 0.41344 0.0
C912 C 0.48979 0.01448 0.4022 0.0
C913 C 0.50456 1.00227 0.41338 0.0
C914 C 0.47877 0.98214 0.42455 0.0
C915 C 0.43999 0.9748 0.42462 0.0
H916 H 0.46414 0.39626 0.72988 0.0
H917 H 0.40025 0.42918 0.75799 0.0
H918 H 0.51804 0.46378 0.72946 0.0
H919 H 0.45304 0.49657 0.75724 0.0
H920 H 0.56711 0.60829 0.76499 0.0
H921 H 0.51446 0.54119 0.76478 0.0
H922 H 0.54452 0.52839 0.7223 0.0
H923 H 0.59936 0.59509 0.72291 0.0
C924 C 0.46133 0.41793 0.73587 0.0
C925 C 0.4277 0.40675 0.74409 0.0
C926 C 0.49237 0.457 0.7356 0.0
C927 C 0.49074 0.48648 0.74341 0.0
C928 C 0.45655 0.47519 0.75136 0.0
C929 C 0.42586 0.43618 0.75176 0.0
C930 C 0.56316 0.59129 0.75562 0.0
C931 C 0.58845 0.60792 0.74402 0.0
C932 C 0.53208 0.55245 0.7554 0.0
C933 C 0.52438 0.52845 0.7435 0.0
C934 C 0.5493 0.54519 0.73179 0.0
C935 C 0.58072 0.58407 0.73206 0.0
H936 H 0.40087 0.97765 0.58056 0.0
H937 H 0.46407 0.07329 0.60926 0.0
H938 H 0.45351 0.963 0.58129 0.0
H939 H 0.51786 0.05969 0.60964 0.0
H940 H 0.59907 1.00989 0.61601 0.0
H941 H 0.54432 0.02166 0.61659 0.0
H942 H 0.51492 0.97961 0.574 0.0
H943 H 0.56743 0.96516 0.57381 0.0
C944 C 0.4263 0.99599 0.58692 0.0
C945 C 0.42797 0.02694 0.59476 0.0
C946 C 0.45693 0.98766 0.5873 0.0
C947 C 0.49091 1.01023 0.59541 0.0
C948 C 0.49237 0.04104 0.60338 0.0
C949 C 0.46139 0.04906 0.60313 0.0
C950 C 0.58059 1.00241 0.60682 0.0
C951 C 0.58848 0.98649 0.59485 0.0
C952 C 0.54922 1.00984 0.60707 0.0
C953 C 0.52449 1.00188 0.59533 0.0
C954 C 0.53236 0.9858 0.58341 0.0
C955 C 0.56338 0.97804 0.58321 0.0
H956 H 0.42022 0.46576 0.90624 0.0
H957 H 0.44082 0.42527 0.94558 0.0
H958 H 0.48747 0.51986 0.90621 0.0
H959 H 0.50815 0.48003 0.94569 0.0
H960 H 0.63925 0.56234 0.9343 0.0
H961 H 0.57217 0.50688 0.9343 0.0
H962 H 0.531 0.58082 0.91753 0.0
H963 H 0.59772 0.63572 0.91728 0.0
C964 C 0.439 0.46824 0.91491 0.0
C965 C 0.42449 0.44063 0.9259 0.0
C966 C 0.47778 0.49973 0.91496 0.0
C967 C 0.50387 0.50483 0.92595 0.0
C968 C 0.48942 0.47721 0.93695 0.0
C969 C 0.45042 0.44587 0.93697 0.0
C970 C 0.61598 0.56677 0.9305 0.0
C971 C 0.62446 0.60401 0.92584 0.0
C972 C 0.57723 0.53489 0.93064 0.0
C973 C 0.54557 0.53891 0.92594 0.0
C974 C 0.55422 0.57605 0.92113 0.0
C975 C 0.59277 0.6079 0.92113 0.0
H976 H 0.05961 0.61224 0.23745 0.0
H977 H 0.02023 0.60009 0.28037 0.0
H978 H 0.0454 0.54519 0.23756 0.0
H979 H 1.008 0.53335 0.28074 0.0
H980 H 0.95433 0.40082 0.27322 0.0
H981 H 0.96799 0.46814 0.27363 0.0
H982 H 0.06387 0.50103 0.24484 0.0
H983 H 0.04983 0.43396 0.2443 0.0
C984 C 0.04793 0.59548 0.24698 0.0
C985 C 0.04103 0.61245 0.25887 0.0
C986 C 0.04022 0.55667 0.24711 0.0
C987 C 0.02544 0.53291 0.25918 0.0
C988 C 0.01883 0.54994 0.27113 0.0
C989 C 0.02648 0.58883 0.27099 0.0
C990 C 0.9785 0.42238 0.26702 0.0
C991 C 1.00057 0.41114 0.25861 0.0
C992 C 0.98649 0.4614 0.26727 0.0
C993 C 1.01707 0.49091 0.25919 0.0
C994 C 0.03945 0.47963 0.25098 0.0
C995 C 0.03134 0.4407 0.25067 0.0
H996 H 0.07766 0.12364 0.0994 0.0
H997 H 0.99975 0.09207 0.06395 0.0
H998 H 0.06549 0.05686 0.10055 0.0
H999 H 0.98791 0.02572 0.06495 0.0
H1000 H 0.94545 0.89923 0.07692 0.0
H1001 H 0.9568 0.96572 0.07695 0.0
H1002 H 0.07576 1.00881 0.09042 0.0
H1003 H 0.06383 0.94248 0.09107 0.0
C1004 C 0.05828 0.10269 0.09173 0.0
C1005 C 0.0396 0.11374 0.08164 0.0
C1006 C 0.05119 0.06407 0.09238 0.0
C1007 C 0.0253 0.03505 0.08292 0.0
C1008 C 1.00724 0.04644 0.07269 0.0
C1009 C 1.01421 0.0849 0.07208 0.0
C1010 C 0.97389 0.92274 0.08009 0.0
C1011 C 1.00367 0.91483 0.08387 0.0
C1012 C 0.98067 0.96127 0.07992 0.0
C1013 C 1.01748 0.99344 0.08356 0.0
C1014 C 0.04692 0.98534 0.08763 0.0
C1015 C 0.04014 0.94692 0.08781 0.0
H1016 H 0.91424 0.97211 0.429 0.0
H1017 H 0.98669 0.08048 0.40719 0.0
H1018 H 0.96831 0.95875 0.42898 0.0
H1019 H 0.04059 0.06704 0.40712 0.0
H1020 H 0.1413 0.05147 0.42343 0.0
H1021 H 0.08656 0.06298 0.42363 0.0
H1022 H 1.00818 0.94256 0.41285 0.0
H1023 H 0.0634 0.93103 0.41213 0.0
C1024 C 0.94174 0.99326 0.42426 0.0
C1025 C 0.94586 0.02752 0.41813 0.0
C1026 C 0.97272 0.98536 0.42413 0.0
C1027 C 1.0091 0.01175 0.41806 0.0
C1028 C 1.01326 0.0461 0.41201 0.0
C1029 C 0.98213 0.05371 0.41195 0.0
C1030 C 0.11266 0.02733 0.42085 0.0
C1031 C 0.1075 0.9903 0.41753 0.0
C1032 C 0.081 0.03404 0.42104 0.0
C1033 C 0.04271 1.0039 0.41814 0.0
C1034 C 0.03713 0.96654 0.41522 0.0
C1035 C 0.06899 0.95989 0.41486 0.0
H1036 H 0.11979 0.05127 0.76045 0.0
H1037 H 0.08278 0.11623 0.73454 0.0
H1038 H 0.05344 0.99624 0.76032 0.0
H1039 H 1.01631 0.06346 0.73573 0.0
H1040 H 0.9006 0.95159 0.72982 0.0
H1041 H 0.96801 1.00513 0.7289 0.0
H1042 H 0.99135 0.96658 0.76836 0.0
H1043 H 0.92459 0.91153 0.76848 0.0
C1044 C 0.09775 0.05419 0.75476 0.0
C1045 C 0.10757 0.08917 0.74766 0.0
C1046 C 0.05901 0.02251 0.75491 0.0
C1047 C 0.0283 0.02467 0.74815 0.0
C1048 C 0.03836 0.05957 0.74096 0.0
C1049 C 0.07707 0.09075 0.74055 0.0
C1050 C 0.9202 0.95491 0.73833 0.0
C1051 C 0.90712 0.9275 0.74927 0.0
C1052 C 0.95916 0.9859 0.73789 0.0
C1053 C 0.98625 0.99111 0.74858 0.0
C1054 C 0.97246 0.96379 0.7597 0.0
C1055 C 0.93377 0.93229 0.75992 0.0
H1056 H 0.89728 0.93954 0.57981 0.0
H1057 H 0.93792 0.04724 0.60285 0.0
H1058 H 0.96382 0.95039 0.57997 0.0
H1059 H 1.00424 0.05896 0.60186 0.0
H1060 H 0.12278 0.07929 0.57987 0.0
H1061 H 0.05627 0.06852 0.58011 0.0
H1062 H 1.01568 0.95946 0.60168 0.0
H1063 H 0.08196 0.97106 0.60259 0.0
C1064 C 0.91989 0.96549 0.58491 0.0
C1065 C 0.91114 0.99254 0.59116 0.0
C1066 C 0.95832 0.97183 0.58486 0.0
C1067 C 0.9895 1.00585 0.59075 0.0
C1068 C 0.98108 0.03283 0.59699 0.0
C1069 C 0.94264 0.02605 0.5974 0.0
C1070 C 0.10014 0.05325 0.58492 0.0
C1071 C 0.10881 0.02601 0.59105 0.0
C1072 C 0.06172 0.04695 0.58492 0.0
C1073 C 0.0305 0.01282 0.59073 0.0
C1074 C 0.03887 0.98568 0.59687 0.0
C1075 C 0.07729 0.9924 0.59723 0.0
H1076 H 0.91189 0.94535 0.90997 0.0
H1077 H 0.98529 0.91078 0.93167 0.0
H1078 H 0.96438 0.0133 0.91069 0.0
H1079 H 0.03823 0.97832 0.93203 0.0
H1080 H 0.11647 0.10545 0.94279 0.0
H1081 H 0.06189 0.03886 0.94218 0.0
H1082 H 0.02489 0.06246 0.90252 0.0
H1083 H 0.07911 0.12984 0.90349 0.0
C1084 C 0.93944 0.95212 0.91474 0.0
C1085 C 0.94403 0.92224 0.9208 0.0
C1086 C 0.96981 0.99135 0.91514 0.0
C1087 C 1.00607 1.00212 0.92151 0.0
C1088 C 1.01074 0.97195 0.92734 0.0
C1089 C 0.98025 0.93285 0.92707 0.0
C1090 C 0.09663 0.09651 0.93394 0.0
C1091 C 0.10254 0.12324 0.92316 0.0
C1092 C 0.06526 0.05794 0.93351 0.0
C1093 C 0.03871 0.04431 0.92218 0.0
C1094 C 0.04413 0.07142 0.91153 0.0
C1095 C 0.0754 0.11029 0.91205 0.0
H1096 H 0.09577 0.97285 0.2625 0.0
H1097 H 0.9785 0.89773 0.24725 0.0
H1098 H 0.08449 0.02803 0.2622 0.0
H1099 H 0.96666 0.9522 0.24755 0.0
H1100 H 0.96608 0.06546 0.23791 0.0
H1101 H 0.97843 1.01101 0.23715 0.0
H1102 H 0.05201 0.05644 0.27378 0.0
H1103 H 0.03986 0.11074 0.27448 0.0
C1104 C 0.0676 0.96794 0.25903 0.0
C1105 C 0.0381 0.93025 0.25502 0.0
C1106 C 0.06086 0.9997 0.25903 0.0
C1107 C 0.0244 0.99509 0.25495 0.0
C1108 C 0.99524 0.95754 0.25067 0.0
C1109 C 1.00195 0.92587 0.25068 0.0
C1110 C 0.98461 0.06373 0.2459 0.0
C1111 C 1.00203 0.09313 0.2562 0.0
C1112 C 0.9918 0.03228 0.24547 0.0
C1113 C 1.0166 0.02889 0.25535 0.0
C1114 C 0.03353 0.05804 0.26575 0.0
C1115 C 0.0264 0.08944 0.26617 0.0
loop_
_geom_bond_atom_site_label_1
_geom_bond_atom_site_label_2
_geom_bond_distance
_geom_bond_site_symmetry_2
_ccdc_geom_bond_type
C0 C1 1.443 1_455 S
C0 N4 1.376 1_455 S
C0 C38 1.389 . S
C1 C0 1.443 1_655 S
C1 C2 1.340 . S
C1 H41 0.951 . S
C2 C1 1.340 . S
C2 C3 1.439 . S
C2 H42 0.950 . S
C3 C2 1.439 . S
C3 N4 1.374 . S
C3 C37 1.395 . S
N4 C0 1.376 1_655 S
N4 C3 1.374 . S
N4 Co5 2.008 1_655 S
Co5 N4 2.008 1_455 S
Co5 N6 1.995 1_455 S
Co5 N11 2.008 . S
Co5 N16 1.995 . S
Co5 N21 2.282 . S
Co5 N27 2.282 . S
N6 Co5 1.995 1_655 S
N6 C7 1.376 . S
N6 C10 1.383 . S
C7 N6 1.376 . S
C7 C8 1.446 . S
C7 C37 1.391 . S
C8 C7 1.446 . S
C8 C9 1.339 . S
C8 H43 0.949 . S
C9 C8 1.339 . S
C9 C10 1.439 . S
C9 H44 0.950 . S
C10 N6 1.383 . S
C10 C9 1.439 . S
C10 C39 1.392 . S
N11 Co5 2.008 . S
N11 C12 1.376 . S
N11 C15 1.374 . S
C12 N11 1.376 . S
C12 C13 1.443 . S
C12 C39 1.389 1_455 S
C13 C12 1.443 . S
C13 C14 1.340 . S
C13 H45 0.951 . S
C14 C13 1.340 . S
C14 C15 1.439 . S
C14 H46 0.950 . S
C15 N11 1.374 . S
C15 C14 1.439 . S
C15 C40 1.395 . S
N16 Co5 1.995 . S
N16 C17 1.376 . S
N16 C20 1.383 . S
C17 N16 1.376 . S
C17 C18 1.446 . S
C17 C40 1.391 . S
C18 C17 1.446 . S
C18 C19 1.339 . S
C18 H47 0.949 . S
C19 C18 1.339 . S
C19 C20 1.439 . S
C19 H48 0.950 . S
C20 N16 1.383 . S
C20 C19 1.439 . S
C20 C38 1.392 . S
N21 Co5 2.282 . S
N21 C24 1.332 . S
N21 C26 1.332 1_455 S
C22 C23 1.386 . S
C22 C25 1.388 1_455 S
C23 C22 1.386 . S
C23 C24 1.382 . S
C23 H49 0.950 . S
C24 N21 1.332 . S
C24 C23 1.382 . S
C24 H35 0.952 . S
C25 C22 1.388 1_655 S
C25 C26 1.382 . S
C25 H50 0.950 . S
C26 N21 1.332 1_655 S
C26 C25 1.382 . S
C26 H36 0.948 . S
N27 Co5 2.282 . S
N27 C31 1.332 1_455 S
N27 C32 1.332 . S
C28 C29 1.388 . S
C28 C32 1.382 . S
C28 H51 0.950 . S
C29 C28 1.388 . S
C29 C30 1.386 1_455 S
C30 C29 1.386 1_655 S
C30 C31 1.382 . S
C30 H52 0.950 . S
C31 N27 1.332 1_655 S
C31 C30 1.382 . S
C31 H33 0.952 . S
C32 N27 1.332 . S
C32 C28 1.382 . S
C32 H34 0.948 . S
H33 C31 0.952 . S
H34 C32 0.948 . S
H35 C24 0.952 . S
H36 C26 0.948 . S
C37 C3 1.395 . S
C37 C7 1.391 . S
C38 C0 1.389 . S
C38 C20 1.392 . S
C39 C10 1.392 . S
C39 C12 1.389 1_655 S
C40 C15 1.395 . S
C40 C17 1.391 . S
H41 C1 0.951 . S
H42 C2 0.950 . S
H43 C8 0.949 . S
H44 C9 0.950 . S
H45 C13 0.951 . S
H46 C14 0.950 . S
H47 C18 0.949 . S
H48 C19 0.950 . S
H49 C23 0.950 . S
H50 C25 0.950 . S
H51 C28 0.950 . S
H52 C30 0.950 . S
C53 C54 1.443 1_545 S
C53 N57 1.376 1_545 S
C53 C91 1.389 . S
C54 C53 1.443 1_565 S
C54 C55 1.340 . S
C54 H94 0.951 . S
C55 C54 1.340 . S
C55 C56 1.439 . S
C55 H95 0.950 . S
C56 C55 1.439 . S
C56 N57 1.374 . S
C56 C90 1.395 . S
N57 C53 1.376 1_565 S
N57 C56 1.374 . S
N57 Co58 2.008 1_565 S
Co58 N57 2.008 1_545 S
Co58 N59 1.995 1_545 S
Co58 N64 2.008 . S
Co58 N69 1.995 . S
Co58 N74 2.282 . S
Co58 N80 2.282 . S
N59 Co58 1.995 1_565 S
N59 C60 1.376 . S
N59 C63 1.383 . S
C60 N59 1.376 . S
C60 C61 1.446 . S
C60 C90 1.391 . S
C61 C60 1.446 . S
C61 C62 1.339 . S
C61 H96 0.949 . S
C62 C61 1.339 . S
C62 C63 1.439 . S
C62 H97 0.950 . S
C63 N59 1.383 . S
C63 C62 1.439 . S
C63 C92 1.392 . S
N64 Co58 2.008 . S
N64 C65 1.376 . S
N64 C68 1.374 . S
C65 N64 1.376 . S
C65 C66 1.443 . S
C65 C92 1.389 1_545 S
C66 C65 1.443 . S
C66 C67 1.340 . S
C66 H98 0.951 . S
C67 C66 1.340 . S
C67 C68 1.439 . S
C67 H99 0.950 . S
C68 N64 1.374 . S
C68 C67 1.439 . S
C68 C93 1.395 . S
N69 Co58 1.995 . S
N69 C70 1.376 . S
N69 C73 1.383 . S
C70 N69 1.376 . S
C70 C71 1.446 . S
C70 C93 1.391 . S
C71 C70 1.446 . S
C71 C72 1.339 . S
C71 H100 0.949 . S
C72 C71 1.339 . S
C72 C73 1.439 . S
C72 H101 0.950 . S
C73 N69 1.383 . S
C73 C72 1.439 . S
C73 C91 1.392 . S
N74 Co58 2.282 . S
N74 C77 1.332 . S
N74 C79 1.332 1_545 S
C75 C76 1.386 . S
C75 C78 1.388 1_545 S
C76 C75 1.386 . S
C76 C77 1.382 . S
C76 H102 0.950 . S
C77 N74 1.332 . S
C77 C76 1.382 . S
C77 H88 0.952 . S
C78 C75 1.388 1_565 S
C78 C79 1.382 . S
C78 H103 0.950 . S
C79 N74 1.332 1_565 S
C79 C78 1.382 . S
C79 H89 0.948 . S
N80 Co58 2.282 . S
N80 C84 1.332 1_545 S
N80 C85 1.332 . S
C81 C82 1.388 . S
C81 C85 1.382 . S
C81 H104 0.950 . S
C82 C81 1.388 . S
C82 C83 1.386 1_545 S
C83 C82 1.386 1_565 S
C83 C84 1.382 . S
C83 H105 0.950 . S
C84 N80 1.332 1_565 S
C84 C83 1.382 . S
C84 H86 0.952 . S
C85 N80 1.332 . S
C85 C81 1.382 . S
C85 H87 0.948 . S
H86 C84 0.952 . S
H87 C85 0.948 . S
H88 C77 0.952 . S
H89 C79 0.948 . S
C90 C56 1.395 . S
C90 C60 1.391 . S
C91 C53 1.389 . S
C91 C73 1.392 . S
C92 C63 1.392 . S
C92 C65 1.389 1_565 S
C93 C68 1.395 . S
C93 C70 1.391 . S
H94 C54 0.951 . S
H95 C55 0.950 . S
H96 C61 0.949 . S
H97 C62 0.950 . S
H98 C66 0.951 . S
H99 C67 0.950 . S
H100 C71 0.949 . S
H101 C72 0.950 . S
H102 C76 0.950 . S
H103 C78 0.950 . S
H104 C81 0.950 . S
H105 C83 0.950 . S
C106 C107 1.443 . S
C106 N110 1.376 . S
C106 C144 1.389 . S
C107 C106 1.443 . S
C107 C108 1.340 . S
C107 H147 0.951 . S
C108 C107 1.340 . S
C108 C109 1.439 . S
C108 H148 0.950 . S
C109 C108 1.439 . S
C109 N110 1.374 . S
C109 C143 1.395 . S
N110 C106 1.376 . S
N110 C109 1.374 . S
N110 Co111 2.008 . S
Co111 N110 2.008 . S
Co111 N112 1.995 . S
Co111 N117 2.008 . S
Co111 N122 1.995 . S
Co111 N127 2.282 . S
Co111 N133 2.282 . S
N112 Co111 1.995 . S
N112 C113 1.376 . S
N112 C116 1.383 . S
C113 N112 1.376 . S
C113 C114 1.446 . S
C113 C143 1.391 . S
C114 C113 1.446 . S
C114 C115 1.339 . S
C114 H149 0.949 . S
C115 C114 1.339 . S
C115 C116 1.439 . S
C115 H150 0.950 . S
C116 N112 1.383 . S
C116 C115 1.439 . S
C116 C145 1.392 . S
N117 Co111 2.008 . S
N117 C118 1.376 . S
N117 C121 1.374 . S
C118 N117 1.376 . S
C118 C119 1.443 . S
C118 C145 1.389 . S
C119 C118 1.443 . S
C119 C120 1.340 . S
C119 H151 0.951 . S
C120 C119 1.340 . S
C120 C121 1.439 . S
C120 H152 0.950 . S
C121 N117 1.374 . S
C121 C120 1.439 . S
C121 C146 1.395 . S
N122 Co111 1.995 . S
N122 C123 1.376 . S
N122 C126 1.383 . S
C123 N122 1.376 . S
C123 C124 1.446 . S
C123 C146 1.391 . S
C124 C123 1.446 . S
C124 C125 1.339 . S
C124 H153 0.949 . S
C125 C124 1.339 . S
C125 C126 1.439 . S
C125 H154 0.950 . S
C126 N122 1.383 . S
C126 C125 1.439 . S
C126 C144 1.392 . S
N127 Co111 2.282 . S
N127 C130 1.332 . S
N127 C132 1.332 . S
C128 C129 1.386 . S
C128 C131 1.388 . S
C129 C128 1.386 . S
C129 C130 1.382 . S
C129 H155 0.950 . S
C130 N127 1.332 . S
C130 C129 1.382 . S
C130 H141 0.952 . S
C131 C128 1.388 . S
C131 C132 1.382 . S
C131 H156 0.950 . S
C132 N127 1.332 . S
C132 C131 1.382 . S
C132 H142 0.948 . S
N133 Co111 2.282 . S
N133 C137 1.332 . S
N133 C138 1.332 . S
C134 C135 1.388 . S
C134 C138 1.382 . S
C134 H157 0.950 . S
C135 C134 1.388 . S
C135 C136 1.386 . S
C136 C135 1.386 . S
C136 C137 1.382 . S
C136 H158 0.950 . S
C137 N133 1.332 . S
C137 C136 1.382 . S
C137 H139 0.952 . S
C138 N133 1.332 . S
C138 C134 1.382 . S
C138 H140 0.948 . S
H139 C137 0.952 . S
H140 C138 0.948 . S
H141 C130 0.952 . S
H142 C132 0.948 . S
C143 C109 1.395 . S
C143 C113 1.391 . S
C144 C106 1.389 . S
C144 C126 1.392 . S
C145 C116 1.392 . S
C145 C118 1.389 . S
C146 C121 1.395 . S
C146 C123 1.391 . S
H147 C107 0.951 . S
H148 C108 0.950 . S
H149 C114 0.949 . S
H150 C115 0.950 . S
H151 C119 0.951 . S
H152 C120 0.950 . S
H153 C124 0.949 . S
H154 C125 0.950 . S
H155 C129 0.950 . S
H156 C131 0.950 . S
H157 C134 0.950 . S
H158 C136 0.950 . S
C159 C160 1.443 1_655 S
C159 N163 1.376 1_655 S
C159 C197 1.389 . S
C160 C159 1.443 1_455 S
C160 C161 1.340 . S
C160 H200 0.951 . S
C161 C160 1.340 . S
C161 C162 1.439 . S
C161 H201 0.950 . S
C162 C161 1.439 . S
C162 N163 1.374 . S
C162 C196 1.395 . S
N163 C159 1.376 1_455 S
N163 C162 1.374 . S
N163 Co164 2.008 1_455 S
Co164 N163 2.008 1_655 S
Co164 N165 1.995 1_655 S
Co164 N170 2.008 . S
Co164 N175 1.995 . S
Co164 N180 2.282 . S
Co164 N186 2.282 . S
N165 Co164 1.995 1_455 S
N165 C166 1.376 . S
N165 C169 1.383 . S
C166 N165 1.376 . S
C166 C167 1.446 . S
C166 C196 1.391 . S
C167 C166 1.446 . S
C167 C168 1.339 . S
C167 H202 0.949 . S
C168 C167 1.339 . S
C168 C169 1.439 . S
C168 H203 0.950 . S
C169 N165 1.383 . S
C169 C168 1.439 . S
C169 C198 1.392 . S
N170 Co164 2.008 . S
N170 C171 1.376 . S
N170 C174 1.374 . S
C171 N170 1.376 . S
C171 C172 1.443 . S
C171 C198 1.389 1_655 S
C172 C171 1.443 . S
C172 C173 1.340 . S
C172 H204 0.951 . S
C173 C172 1.340 . S
C173 C174 1.439 . S
C173 H205 0.950 . S
C174 N170 1.374 . S
C174 C173 1.439 . S
C174 C199 1.395 . S
N175 Co164 1.995 . S
N175 C176 1.376 . S
N175 C179 1.383 . S
C176 N175 1.376 . S
C176 C177 1.446 . S
C176 C199 1.391 . S
C177 C176 1.446 . S
C177 C178 1.339 . S
C177 H206 0.949 . S
C178 C177 1.339 . S
C178 C179 1.439 . S
C178 H207 0.950 . S
C179 N175 1.383 . S
C179 C178 1.439 . S
C179 C197 1.392 . S
N180 Co164 2.282 . S
N180 C183 1.332 . S
N180 C185 1.332 1_655 S
C181 C182 1.386 . S
C181 C184 1.388 1_655 S
C182 C181 1.386 . S
C182 C183 1.382 . S
C182 H208 0.950 . S
C183 N180 1.332 . S
C183 C182 1.382 . S
C183 H194 0.952 . S
C184 C181 1.388 1_455 S
C184 C185 1.382 . S
C184 H209 0.950 . S
C185 N180 1.332 1_455 S
C185 C184 1.382 . S
C185 H195 0.948 . S
N186 Co164 2.282 . S
N186 C190 1.332 1_655 S
N186 C191 1.332 . S
C187 C188 1.388 . S
C187 C191 1.382 . S
C187 H210 0.950 . S
C188 C187 1.388 . S
C188 C189 1.386 1_655 S
C189 C188 1.386 1_455 S
C189 C190 1.382 . S
C189 H211 0.950 . S
C190 N186 1.332 1_455 S
C190 C189 1.382 . S
C190 H192 0.952 . S
C191 N186 1.332 . S
C191 C187 1.382 . S
C191 H193 0.948 . S
H192 C190 0.952 . S
H193 C191 0.948 . S
H194 C183 0.952 . S
H195 C185 0.948 . S
C196 C162 1.395 . S
C196 C166 1.391 . S
C197 C159 1.389 . S
C197 C179 1.392 . S
C198 C169 1.392 . S
C198 C171 1.389 1_455 S
C199 C174 1.395 . S
C199 C176 1.391 . S
H200 C160 0.951 . S
H201 C161 0.950 . S
H202 C167 0.949 . S
H203 C168 0.950 . S
H204 C172 0.951 . S
H205 C173 0.950 . S
H206 C177 0.949 . S
H207 C178 0.950 . S
H208 C182 0.950 . S
H209 C184 0.950 . S
H210 C187 0.950 . S
H211 C189 0.950 . S
C212 C213 1.443 1_565 S
C212 N216 1.376 1_565 S
C212 C250 1.389 . S
C213 C212 1.443 1_545 S
C213 C214 1.340 . S
C213 H253 0.951 . S
C214 C213 1.340 . S
C214 C215 1.439 . S
C214 H254 0.950 . S
C215 C214 1.439 . S
C215 N216 1.374 . S
C215 C249 1.395 . S
N216 C212 1.376 1_545 S
N216 C215 1.374 . S
N216 Co217 2.008 1_545 S
Co217 N216 2.008 1_565 S
Co217 N218 1.995 1_565 S
Co217 N223 2.008 . S
Co217 N228 1.995 . S
Co217 N233 2.282 . S
Co217 N239 2.282 . S
N218 Co217 1.995 1_545 S
N218 C219 1.376 . S
N218 C222 1.383 . S
C219 N218 1.376 . S
C219 C220 1.446 . S
C219 C249 1.391 . S
C220 C219 1.446 . S
C220 C221 1.339 . S
C220 H255 0.949 . S
C221 C220 1.339 . S
C221 C222 1.439 . S
C221 H256 0.950 . S
C222 N218 1.383 . S
C222 C221 1.439 . S
C222 C251 1.392 . S
N223 Co217 2.008 . S
N223 C224 1.376 . S
N223 C227 1.374 . S
C224 N223 1.376 . S
C224 C225 1.443 . S
C224 C251 1.389 1_565 S
C225 C224 1.443 . S
C225 C226 1.340 . S
C225 H257 0.951 . S
C226 C225 1.340 . S
C226 C227 1.439 . S
C226 H258 0.950 . S
C227 N223 1.374 . S
C227 C226 1.439 . S
C227 C252 1.395 . S
N228 Co217 1.995 . S
N228 C229 1.376 . S
N228 C232 1.383 . S
C229 N228 1.376 . S
C229 C230 1.446 . S
C229 C252 1.391 . S
C230 C229 1.446 . S
C230 C231 1.339 . S
C230 H259 0.949 . S
C231 C230 1.339 . S
C231 C232 1.439 . S
C231 H260 0.950 . S
C232 N228 1.383 . S
C232 C231 1.439 . S
C232 C250 1.392 . S
N233 Co217 2.282 . S
N233 C236 1.332 . S
N233 C238 1.332 1_565 S
C234 C235 1.386 . S
C234 C237 1.388 1_565 S
C235 C234 1.386 . S
C235 C236 1.382 . S
C235 H261 0.950 . S
C236 N233 1.332 . S
C236 C235 1.382 . S
C236 H247 0.952 . S
C237 C234 1.388 1_545 S
C237 C238 1.382 . S
C237 H262 0.950 . S
C238 N233 1.332 1_545 S
C238 C237 1.382 . S
C238 H248 0.948 . S
N239 Co217 2.282 . S
N239 C243 1.332 1_565 S
N239 C244 1.332 . S
C240 C241 1.388 . S
C240 C244 1.382 . S
C240 H263 0.950 . S
C241 C240 1.388 . S
C241 C242 1.386 1_565 S
C242 C241 1.386 1_545 S
C242 C243 1.382 . S
C242 H264 0.950 . S
C243 N239 1.332 1_545 S
C243 C242 1.382 . S
C243 H245 0.952 . S
C244 N239 1.332 . S
C244 C240 1.382 . S
C244 H246 0.948 . S
H245 C243 0.952 . S
H246 C244 0.948 . S
H247 C236 0.952 . S
H248 C238 0.948 . S
C249 C215 1.395 . S
C249 C219 1.391 . S
C250 C212 1.389 . S
C250 C232 1.392 . S
C251 C222 1.392 . S
C251 C224 1.389 1_545 S
C252 C227 1.395 . S
C252 C229 1.391 . S
H253 C213 0.951 . S
H254 C214 0.950 . S
H255 C220 0.949 . S
H256 C221 0.950 . S
H257 C225 0.951 . S
H258 C226 0.950 . S
H259 C230 0.949 . S
H260 C231 0.950 . S
H261 C235 0.950 . S
H262 C237 0.950 . S
H263 C240 0.950 . S
H264 C242 0.950 . S
C265 C266 1.443 . S
C265 N269 1.376 . S
C265 C303 1.389 . S
C266 C265 1.443 . S
C266 C267 1.340 . S
C266 H306 0.951 . S
C267 C266 1.340 . S
C267 C268 1.439 . S
C267 H307 0.950 . S
C268 C267 1.439 . S
C268 N269 1.374 . S
C268 C302 1.395 . S
N269 C265 1.376 . S
N269 C268 1.374 . S
N269 Co270 2.008 . S
Co270 N269 2.008 . S
Co270 N271 1.995 . S
Co270 N276 2.008 . S
Co270 N281 1.995 . S
Co270 N286 2.282 . S
Co270 N292 2.282 . S
N271 Co270 1.995 . S
N271 C272 1.376 . S
N271 C275 1.383 . S
C272 N271 1.376 . S
C272 C273 1.446 . S
C272 C302 1.391 . S
C273 C272 1.446 . S
C273 C274 1.339 . S
C273 H308 0.949 . S
C274 C273 1.339 . S
C274 C275 1.439 . S
C274 H309 0.950 . S
C275 N271 1.383 . S
C275 C274 1.439 . S
C275 C304 1.392 . S
N276 Co270 2.008 . S
N276 C277 1.376 . S
N276 C280 1.374 . S
C277 N276 1.376 . S
C277 C278 1.443 . S
C277 C304 1.389 . S
C278 C277 1.443 . S
C278 C279 1.340 . S
C278 H310 0.951 . S
C279 C278 1.340 . S
C279 C280 1.439 . S
C279 H311 0.950 . S
C280 N276 1.374 . S
C280 C279 1.439 . S
C280 C305 1.395 . S
N281 Co270 1.995 . S
N281 C282 1.376 . S
N281 C285 1.383 . S
C282 N281 1.376 . S
C282 C283 1.446 . S
C282 C305 1.391 . S
C283 C282 1.446 . S
C283 C284 1.339 . S
C283 H312 0.949 . S
C284 C283 1.339 . S
C284 C285 1.439 . S
C284 H313 0.950 . S
C285 N281 1.383 . S
C285 C284 1.439 . S
C285 C303 1.392 . S
N286 Co270 2.282 . S
N286 C289 1.332 . S
N286 C291 1.332 . S
C287 C288 1.386 . S
C287 C290 1.388 . S
C288 C287 1.386 . S
C288 C289 1.382 . S
C288 H314 0.950 . S
C289 N286 1.332 . S
C289 C288 1.382 . S
C289 H300 0.952 . S
C290 C287 1.388 . S
C290 C291 1.382 . S
C290 H315 0.950 . S
C291 N286 1.332 . S
C291 C290 1.382 . S
C291 H301 0.948 . S
N292 Co270 2.282 . S
N292 C296 1.332 . S
N292 C297 1.332 . S
C293 C294 1.388 . S
C293 C297 1.382 . S
C293 H316 0.950 . S
C294 C293 1.388 . S
C294 C295 1.386 . S
C295 C294 1.386 . S
C295 C296 1.382 . S
C295 H317 0.950 . S
C296 N292 1.332 . S
C296 C295 1.382 . S
C296 H298 0.952 . S
C297 N292 1.332 . S
C297 C293 1.382 . S
C297 H299 0.948 . S
H298 C296 0.952 . S
H299 C297 0.948 . S
H300 C289 0.952 . S
H301 C291 0.948 . S
C302 C268 1.395 . S
C302 C272 1.391 . S
C303 C265 1.389 . S
C303 C285 1.392 . S
C304 C275 1.392 . S
C304 C277 1.389 . S
C305 C280 1.395 . S
C305 C282 1.391 . S
H306 C266 0.951 . S
H307 C267 0.950 . S
H308 C273 0.949 . S
H309 C274 0.950 . S
H310 C278 0.951 . S
H311 C279 0.950 . S
H312 C283 0.949 . S
H313 C284 0.950 . S
H314 C288 0.950 . S
H315 C290 0.950 . S
H316 C293 0.950 . S
H317 C295 0.950 . S
C318 C319 1.443 1_565 S
C318 N322 1.376 1_565 S
C318 C356 1.389 . S
C319 C318 1.443 1_545 S
C319 C320 1.340 . S
C319 H359 0.951 . S
C320 C319 1.340 . S
C320 C321 1.439 . S
C320 H360 0.950 . S
C321 C320 1.439 . S
C321 N322 1.374 . S
C321 C355 1.395 . S
N322 C318 1.376 1_545 S
N322 C321 1.374 . S
N322 Co323 2.008 1_545 S
Co323 N322 2.008 1_565 S
Co323 N324 1.995 1_565 S
Co323 N329 2.008 . S
Co323 N334 1.995 . S
Co323 N339 2.282 . S
Co323 N345 2.282 . S
N324 Co323 1.995 1_545 S
N324 C325 1.376 . S
N324 C328 1.383 . S
C325 N324 1.376 . S
C325 C326 1.446 . S
C325 C355 1.391 . S
C326 C325 1.446 . S
C326 C327 1.339 . S
C326 H361 0.949 . S
C327 C326 1.339 . S
C327 C328 1.439 . S
C327 H362 0.950 . S
C328 N324 1.383 . S
C328 C327 1.439 . S
C328 C357 1.392 . S
N329 Co323 2.008 . S
N329 C330 1.376 . S
N329 C333 1.374 . S
C330 N329 1.376 . S
C330 C331 1.443 . S
C330 C357 1.389 1_565 S
C331 C330 1.443 . S
C331 C332 1.340 . S
C331 H363 0.951 . S
C332 C331 1.340 . S
C332 C333 1.439 . S
C332 H364 0.950 . S
C333 N329 1.374 . S
C333 C332 1.439 . S
C333 C358 1.395 . S
N334 Co323 1.995 . S
N334 C335 1.376 . S
N334 C338 1.383 . S
C335 N334 1.376 . S
C335 C336 1.446 . S
C335 C358 1.391 . S
C336 C335 1.446 . S
C336 C337 1.339 . S
C336 H365 0.949 . S
C337 C336 1.339 . S
C337 C338 1.439 . S
C337 H366 0.950 . S
C338 N334 1.383 . S
C338 C337 1.439 . S
C338 C356 1.392 . S
N339 Co323 2.282 . S
N339 C342 1.332 . S
N339 C344 1.332 1_565 S
C340 C341 1.386 . S
C340 C343 1.388 1_565 S
C341 C340 1.386 . S
C341 C342 1.382 . S
C341 H367 0.950 . S
C342 N339 1.332 . S
C342 C341 1.382 . S
C342 H353 0.952 . S
C343 C340 1.388 1_545 S
C343 C344 1.382 . S
C343 H368 0.950 . S
C344 N339 1.332 1_545 S
C344 C343 1.382 . S
C344 H354 0.948 . S
N345 Co323 2.282 . S
N345 C349 1.332 1_565 S
N345 C350 1.332 . S
C346 C347 1.388 . S
C346 C350 1.382 . S
C346 H369 0.950 . S
C347 C346 1.388 . S
C347 C348 1.386 1_565 S
C348 C347 1.386 1_545 S
C348 C349 1.382 . S
C348 H370 0.950 . S
C349 N345 1.332 1_545 S
C349 C348 1.382 . S
C349 H351 0.952 . S
C350 N345 1.332 . S
C350 C346 1.382 . S
C350 H352 0.948 . S
H351 C349 0.952 . S
H352 C350 0.948 . S
H353 C342 0.952 . S
H354 C344 0.948 . S
C355 C321 1.395 . S
C355 C325 1.391 . S
C356 C318 1.389 . S
C356 C338 1.392 . S
C357 C328 1.392 . S
C357 C330 1.389 1_545 S
C358 C333 1.395 . S
C358 C335 1.391 . S
H359 C319 0.951 . S
H360 C320 0.950 . S
H361 C326 0.949 . S
H362 C327 0.950 . S
H363 C331 0.951 . S
H364 C332 0.950 . S
H365 C336 0.949 . S
H366 C337 0.950 . S
H367 C341 0.950 . S
H368 C343 0.950 . S
H369 C346 0.950 . S
H370 C348 0.950 . S
C371 C372 1.443 . S
C371 N375 1.376 . S
C371 C409 1.389 . S
C372 C371 1.443 . S
C372 C373 1.340 . S
C372 H412 0.951 . S
C373 C372 1.340 . S
C373 C374 1.439 . S
C373 H413 0.950 . S
C374 C373 1.439 . S
C374 N375 1.374 . S
C374 C408 1.395 . S
N375 C371 1.376 . S
N375 C374 1.374 . S
N375 Co376 2.008 . S
Co376 N375 2.008 . S
Co376 N377 1.995 . S
Co376 N382 2.008 . S
Co376 N387 1.995 . S
Co376 N392 2.282 . S
Co376 N398 2.282 . S
N377 Co376 1.995 . S
N377 C378 1.376 . S
N377 C381 1.383 . S
C378 N377 1.376 . S
C378 C379 1.446 . S
C378 C408 1.391 . S
C379 C378 1.446 . S
C379 C380 1.339 . S
C379 H414 0.949 . S
C380 C379 1.339 . S
C380 C381 1.439 . S
C380 H415 0.950 . S
C381 N377 1.383 . S
C381 C380 1.439 . S
C381 C410 1.392 . S
N382 Co376 2.008 . S
N382 C383 1.376 . S
N382 C386 1.374 . S
C383 N382 1.376 . S
C383 C384 1.443 . S
C383 C410 1.389 . S
C384 C383 1.443 . S
C384 C385 1.340 . S
C384 H416 0.951 . S
C385 C384 1.340 . S
C385 C386 1.439 . S
C385 H417 0.950 . S
C386 N382 1.374 . S
C386 C385 1.439 . S
C386 C411 1.395 . S
N387 Co376 1.995 . S
N387 C388 1.376 . S
N387 C391 1.383 . S
C388 N387 1.376 . S
C388 C389 1.446 . S
C388 C411 1.391 . S
C389 C388 1.446 . S
C389 C390 1.339 . S
C389 H418 0.949 . S
C390 C389 1.339 . S
C390 C391 1.439 . S
C390 H419 0.950 . S
C391 N387 1.383 . S
C391 C390 1.439 . S
C391 C409 1.392 . S
N392 Co376 2.282 . S
N392 C395 1.332 . S
N392 C397 1.332 . S
C393 C394 1.386 . S
C393 C396 1.388 . S
C394 C393 1.386 . S
C394 C395 1.382 . S
C394 H420 0.950 . S
C395 N392 1.332 . S
C395 C394 1.382 . S
C395 H406 0.952 . S
C396 C393 1.388 . S
C396 C397 1.382 . S
C396 H421 0.950 . S
C397 N392 1.332 . S
C397 C396 1.382 . S
C397 H407 0.948 . S
N398 Co376 2.282 . S
N398 C402 1.332 . S
N398 C403 1.332 . S
C399 C400 1.388 . S
C399 C403 1.382 . S
C399 H422 0.950 . S
C400 C399 1.388 . S
C400 C401 1.386 . S
C401 C400 1.386 . S
C401 C402 1.382 . S
C401 H423 0.950 . S
C402 N398 1.332 . S
C402 C401 1.382 . S
C402 H404 0.952 . S
C403 N398 1.332 . S
C403 C399 1.382 . S
C403 H405 0.948 . S
H404 C402 0.952 . S
H405 C403 0.948 . S
H406 C395 0.952 . S
H407 C397 0.948 . S
C408 C374 1.395 . S
C408 C378 1.391 . S
C409 C371 1.389 . S
C409 C391 1.392 . S
C410 C381 1.392 . S
C410 C383 1.389 . S
C411 C386 1.395 . S
C411 C388 1.391 . S
H412 C372 0.951 . S
H413 C373 0.950 . S
H414 C379 0.949 . S
H415 C380 0.950 . S
H416 C384 0.951 . S
H417 C385 0.950 . S
H418 C389 0.949 . S
H419 C390 0.950 . S
H420 C394 0.950 . S
H421 C396 0.950 . S
H422 C399 0.950 . S
H423 C401 0.950 . S
C424 C425 1.443 1_455 S
C424 N428 1.376 1_455 S
C424 C462 1.389 . S
C425 C424 1.443 1_655 S
C425 C426 1.340 . S
C425 H465 0.951 . S
C426 C425 1.340 . S
C426 C427 1.439 . S
C426 H466 0.950 . S
C427 C426 1.439 . S
C427 N428 1.374 . S
C427 C461 1.395 . S
N428 C424 1.376 1_655 S
N428 C427 1.374 . S
N428 Co429 2.008 1_655 S
Co429 N428 2.008 1_455 S
Co429 N430 1.995 1_455 S
Co429 N435 2.008 . S
Co429 N440 1.995 . S
Co429 N445 2.282 . S
Co429 N451 2.282 . S
N430 Co429 1.995 1_655 S
N430 C431 1.376 . S
N430 C434 1.383 . S
C431 N430 1.376 . S
C431 C432 1.446 . S
C431 C461 1.391 . S
C432 C431 1.446 . S
C432 C433 1.339 . S
C432 H467 0.949 . S
C433 C432 1.339 . S
C433 C434 1.439 . S
C433 H468 0.950 . S
C434 N430 1.383 . S
C434 C433 1.439 . S
C434 C463 1.392 . S
N435 Co429 2.008 . S
N435 C436 1.376 . S
N435 C439 1.374 . S
C436 N435 1.376 . S
C436 C437 1.443 . S
C436 C463 1.389 1_455 S
C437 C436 1.443 . S
C437 C438 1.340 . S
C437 H469 0.951 . S
C438 C437 1.340 . S
C438 C439 1.439 . S
C438 H470 0.950 . S
C439 N435 1.374 . S
C439 C438 1.439 . S
C439 C464 1.395 . S
N440 Co429 1.995 . S
N440 C441 1.376 . S
N440 C444 1.383 . S
C441 N440 1.376 . S
C441 C442 1.446 . S
C441 C464 1.391 . S
C442 C441 1.446 . S
C442 C443 1.339 . S
C442 H471 0.949 . S
C443 C442 1.339 . S
C443 C444 1.439 . S
C443 H472 0.950 . S
C444 N440 1.383 . S
C444 C443 1.439 . S
C444 C462 1.392 . S
N445 Co429 2.282 . S
N445 C448 1.332 . S
N445 C450 1.332 1_455 S
C446 C447 1.386 . S
C446 C449 1.388 1_455 S
C447 C446 1.386 . S
C447 C448 1.382 . S
C447 H473 0.950 . S
C448 N445 1.332 . S
C448 C447 1.382 . S
C448 H459 0.952 . S
C449 C446 1.388 1_655 S
C449 C450 1.382 . S
C449 H474 0.950 . S
C450 N445 1.332 1_655 S
C450 C449 1.382 . S
C450 H460 0.948 . S
N451 Co429 2.282 . S
N451 C455 1.332 1_455 S
N451 C456 1.332 . S
C452 C453 1.388 . S
C452 C456 1.382 . S
C452 H475 0.950 . S
C453 C452 1.388 . S
C453 C454 1.386 1_455 S
C454 C453 1.386 1_655 S
C454 C455 1.382 . S
C454 H476 0.950 . S
C455 N451 1.332 1_655 S
C455 C454 1.382 . S
C455 H457 0.952 . S
C456 N451 1.332 . S
C456 C452 1.382 . S
C456 H458 0.948 . S
H457 C455 0.952 . S
H458 C456 0.948 . S
H459 C448 0.952 . S
H460 C450 0.948 . S
C461 C427 1.395 . S
C461 C431 1.391 . S
C462 C424 1.389 . S
C462 C444 1.392 . S
C463 C434 1.392 . S
C463 C436 1.389 1_655 S
C464 C439 1.395 . S
C464 C441 1.391 . S
H465 C425 0.951 . S
H466 C426 0.950 . S
H467 C432 0.949 . S
H468 C433 0.950 . S
H469 C437 0.951 . S
H470 C438 0.950 . S
H471 C442 0.949 . S
H472 C443 0.950 . S
H473 C447 0.950 . S
H474 C449 0.950 . S
H475 C452 0.950 . S
H476 C454 0.950 . S
C477 C478 1.443 1_545 S
C477 N481 1.376 1_545 S
C477 C515 1.389 . S
C478 C477 1.443 1_565 S
C478 C479 1.340 . S
C478 H518 0.951 . S
C479 C478 1.340 . S
C479 C480 1.439 . S
C479 H519 0.950 . S
C480 C479 1.439 . S
C480 N481 1.374 . S
C480 C514 1.395 . S
N481 C477 1.376 1_565 S
N481 C480 1.374 . S
N481 Co482 2.008 1_565 S
Co482 N481 2.008 1_545 S
Co482 N483 1.995 1_545 S
Co482 N488 2.008 . S
Co482 N493 1.995 . S
Co482 N498 2.282 . S
Co482 N504 2.282 . S
N483 Co482 1.995 1_565 S
N483 C484 1.376 . S
N483 C487 1.383 . S
C484 N483 1.376 . S
C484 C485 1.446 . S
C484 C514 1.391 . S
C485 C484 1.446 . S
C485 C486 1.339 . S
C485 H520 0.949 . S
C486 C485 1.339 . S
C486 C487 1.439 . S
C486 H521 0.950 . S
C487 N483 1.383 . S
C487 C486 1.439 . S
C487 C516 1.392 . S
N488 Co482 2.008 . S
N488 C489 1.376 . S
N488 C492 1.374 . S
C489 N488 1.376 . S
C489 C490 1.443 . S
C489 C516 1.389 1_545 S
C490 C489 1.443 . S
C490 C491 1.340 . S
C490 H522 0.951 . S
C491 C490 1.340 . S
C491 C492 1.439 . S
C491 H523 0.950 . S
C492 N488 1.374 . S
C492 C491 1.439 . S
C492 C517 1.395 . S
N493 Co482 1.995 . S
N493 C494 1.376 . S
N493 C497 1.383 . S
C494 N493 1.376 . S
C494 C495 1.446 . S
C494 C517 1.391 . S
C495 C494 1.446 . S
C495 C496 1.339 . S
C495 H524 0.949 . S
C496 C495 1.339 . S
C496 C497 1.439 . S
C496 H525 0.950 . S
C497 N493 1.383 . S
C497 C496 1.439 . S
C497 C515 1.392 . S
N498 Co482 2.282 . S
N498 C501 1.332 . S
N498 C503 1.332 1_545 S
C499 C500 1.386 . S
C499 C502 1.388 1_545 S
C500 C499 1.386 . S
C500 C501 1.382 . S
C500 H526 0.950 . S
C501 N498 1.332 . S
C501 C500 1.382 . S
C501 H512 0.952 . S
C502 C499 1.388 1_565 S
C502 C503 1.382 . S
C502 H527 0.950 . S
C503 N498 1.332 1_565 S
C503 C502 1.382 . S
C503 H513 0.948 . S
N504 Co482 2.282 . S
N504 C508 1.332 1_545 S
N504 C509 1.332 . S
C505 C506 1.388 . S
C505 C509 1.382 . S
C505 H528 0.950 . S
C506 C505 1.388 . S
C506 C507 1.386 1_545 S
C507 C506 1.386 1_565 S
C507 C508 1.382 . S
C507 H529 0.950 . S
C508 N504 1.332 1_565 S
C508 C507 1.382 . S
C508 H510 0.952 . S
C509 N504 1.332 . S
C509 C505 1.382 . S
C509 H511 0.948 . S
H510 C508 0.952 . S
H511 C509 0.948 . S
H512 C501 0.952 . S
H513 C503 0.948 . S
C514 C480 1.395 . S
C514 C484 1.391 . S
C515 C477 1.389 . S
C515 C497 1.392 . S
C516 C487 1.392 . S
C516 C489 1.389 1_565 S
C517 C492 1.395 . S
C517 C494 1.391 . S
H518 C478 0.951 . S
H519 C479 0.950 . S
H520 C485 0.949 . S
H521 C486 0.950 . S
H522 C490 0.951 . S
H523 C491 0.950 . S
H524 C495 0.949 . S
H525 C496 0.950 . S
H526 C500 0.950 . S
H527 C502 0.950 . S
H528 C505 0.950 . S
H529 C507 0.950 . S
C530 C531 1.443 . S
C530 N534 1.376 . S
C530 C568 1.389 . S
C531 C530 1.443 . S
C531 C532 1.340 . S
C531 H571 0.951 . S
C532 C531 1.340 . S
C532 C533 1.439 . S
C532 H572 0.950 . S
C533 C532 1.439 . S
C533 N534 1.374 . S
C533 C567 1.395 . S
N534 C530 1.376 . S
N534 C533 1.374 . S
N534 Co535 2.008 . S
Co535 N534 2.008 . S
Co535 N536 1.995 . S
Co535 N541 2.008 . S
Co535 N546 1.995 . S
Co535 N551 2.282 . S
Co535 N557 2.282 . S
N536 Co535 1.995 . S
N536 C537 1.376 . S
N536 C540 1.383 . S
C537 N536 1.376 . S
C537 C538 1.446 . S
C537 C567 1.391 . S
C538 C537 1.446 . S
C538 C539 1.339 . S
C538 H573 0.949 . S
C539 C538 1.339 . S
C539 C540 1.439 . S
C539 H574 0.950 . S
C540 N536 1.383 . S
C540 C539 1.439 . S
C540 C569 1.392 . S
N541 Co535 2.008 . S
N541 C542 1.376 . S
N541 C545 1.374 . S
C542 N541 1.376 . S
C542 C543 1.443 . S
C542 C569 1.389 . S
C543 C542 1.443 . S
C543 C544 1.340 . S
C543 H575 0.951 . S
C544 C543 1.340 . S
C544 C545 1.439 . S
C544 H576 0.950 . S
C545 N541 1.374 . S
C545 C544 1.439 . S
C545 C570 1.395 . S
N546 Co535 1.995 . S
N546 C547 1.376 . S
N546 C550 1.383 . S
C547 N546 1.376 . S
C547 C548 1.446 . S
C547 C570 1.391 . S
C548 C547 1.446 . S
C548 C549 1.339 . S
C548 H577 0.949 . S
C549 C548 1.339 . S
C549 C550 1.439 . S
C549 H578 0.950 . S
C550 N546 1.383 . S
C550 C549 1.439 . S
C550 C568 1.392 . S
N551 Co535 2.282 . S
N551 C554 1.332 . S
N551 C556 1.332 . S
C552 C553 1.386 . S
C552 C555 1.388 . S
C553 C552 1.386 . S
C553 C554 1.382 . S
C553 H579 0.950 . S
C554 N551 1.332 . S
C554 C553 1.382 . S
C554 H565 0.952 . S
C555 C552 1.388 . S
C555 C556 1.382 . S
C555 H580 0.950 . S
C556 N551 1.332 . S
C556 C555 1.382 . S
C556 H566 0.948 . S
N557 Co535 2.282 . S
N557 C561 1.332 . S
N557 C562 1.332 . S
C558 C559 1.388 . S
C558 C562 1.382 . S
C558 H581 0.950 . S
C559 C558 1.388 . S
C559 C560 1.386 . S
C560 C559 1.386 . S
C560 C561 1.382 . S
C560 H582 0.950 . S
C561 N557 1.332 . S
C561 C560 1.382 . S
C561 H563 0.952 . S
C562 N557 1.332 . S
C562 C558 1.382 . S
C562 H564 0.948 . S
H563 C561 0.952 . S
H564 C562 0.948 . S
H565 C554 0.952 . S
H566 C556 0.948 . S
C567 C533 1.395 . S
C567 C537 1.391 . S
C568 C530 1.389 . S
C568 C550 1.392 . S
C569 C540 1.392 . S
C569 C542 1.389 . S
C570 C545 1.395 . S
C570 C547 1.391 . S
H571 C531 0.951 . S
H572 C532 0.950 . S
H573 C538 0.949 . S
H574 C539 0.950 . S
H575 C543 0.951 . S
H576 C544 0.950 . S
H577 C548 0.949 . S
H578 C549 0.950 . S
H579 C553 0.950 . S
H580 C555 0.950 . S
H581 C558 0.950 . S
H582 C560 0.950 . S
C583 C584 1.443 1_655 S
C583 N587 1.376 1_655 S
C583 C621 1.389 . S
C584 C583 1.443 1_455 S
C584 C585 1.340 . S
C584 H624 0.951 . S
C585 C584 1.340 . S
C585 C586 1.439 . S
C585 H625 0.950 . S
C586 C585 1.439 . S
C586 N587 1.374 . S
C586 C620 1.395 . S
N587 C583 1.376 1_455 S
N587 C586 1.374 . S
N587 Co588 2.008 1_455 S
Co588 N587 2.008 1_655 S
Co588 N589 1.995 1_655 S
Co588 N594 2.008 . S
Co588 N599 1.995 . S
Co588 N604 2.282 . S
Co588 N610 2.282 . S
N589 Co588 1.995 1_455 S
N589 C590 1.376 . S
N589 C593 1.383 . S
C590 N589 1.376 . S
C590 C591 1.446 . S
C590 C620 1.391 . S
C591 C590 1.446 . S
C591 C592 1.339 . S
C591 H626 0.949 . S
C592 C591 1.339 . S
C592 C593 1.439 . S
C592 H627 0.950 . S
C593 N589 1.383 . S
C593 C592 1.439 . S
C593 C622 1.392 . S
N594 Co588 2.008 . S
N594 C595 1.376 . S
N594 C598 1.374 . S
C595 N594 1.376 . S
C595 C596 1.443 . S
C595 C622 1.389 1_655 S
C596 C595 1.443 . S
C596 C597 1.340 . S
C596 H628 0.951 . S
C597 C596 1.340 . S
C597 C598 1.439 . S
C597 H629 0.950 . S
C598 N594 1.374 . S
C598 C597 1.439 . S
C598 C623 1.395 . S
N599 Co588 1.995 . S
N599 C600 1.376 . S
N599 C603 1.383 . S
C600 N599 1.376 . S
C600 C601 1.446 . S
C600 C623 1.391 . S
C601 C600 1.446 . S
C601 C602 1.339 . S
C601 H630 0.949 . S
C602 C601 1.339 . S
C602 C603 1.439 . S
C602 H631 0.950 . S
C603 N599 1.383 . S
C603 C602 1.439 . S
C603 C621 1.392 . S
N604 Co588 2.282 . S
N604 C607 1.332 . S
N604 C609 1.332 1_655 S
C605 C606 1.386 . S
C605 C608 1.388 1_655 S
C606 C605 1.386 . S
C606 C607 1.382 . S
C606 H632 0.950 . S
C607 N604 1.332 . S
C607 C606 1.382 . S
C607 H618 0.952 . S
C608 C605 1.388 1_455 S
C608 C609 1.382 . S
C608 H633 0.950 . S
C609 N604 1.332 1_455 S
C609 C608 1.382 . S
C609 H619 0.948 . S
N610 Co588 2.282 . S
N610 C614 1.332 1_655 S
N610 C615 1.332 . S
C611 C612 1.388 . S
C611 C615 1.382 . S
C611 H634 0.950 . S
C612 C611 1.388 . S
C612 C613 1.386 1_655 S
C613 C612 1.386 1_455 S
C613 C614 1.382 . S
C613 H635 0.950 . S
C614 N610 1.332 1_455 S
C614 C613 1.382 . S
C614 H616 0.952 . S
C615 N610 1.332 . S
C615 C611 1.382 . S
C615 H617 0.948 . S
H616 C614 0.952 . S
H617 C615 0.948 . S
H618 C607 0.952 . S
H619 C609 0.948 . S
C620 C586 1.395 . S
C620 C590 1.391 . S
C621 C583 1.389 . S
C621 C603 1.392 . S
C622 C593 1.392 . S
C622 C595 1.389 1_455 S
C623 C598 1.395 . S
C623 C600 1.391 . S
H624 C584 0.951 . S
H625 C585 0.950 . S
H626 C591 0.949 . S
H627 C592 0.950 . S
H628 C596 0.951 . S
H629 C597 0.950 . S
H630 C601 0.949 . S
H631 C602 0.950 . S
H632 C606 0.950 . S
H633 C608 0.950 . S
H634 C611 0.950 . S
H635 C613 0.950 . S
H636 C644 0.950 . S
H637 C649 0.950 . S
H638 C646 0.950 . S
H639 C648 0.950 . S
H640 C650 0.950 . S
H641 C652 0.950 . S
H642 C654 0.950 . S
H643 C655 0.950 . S
C644 H636 0.950 . S
C644 C645 1.386 . S
C644 C646 1.391 . S
C645 C644 1.386 . S
C645 C649 1.393 1_455 S
C646 H638 0.950 . S
C646 C644 1.391 . S
C646 C647 1.400 . S
C647 C646 1.400 . S
C647 C648 1.398 1_455 S
C647 C653 1.491 1_455 S
C648 H639 0.950 . S
C648 C647 1.398 1_655 S
C648 C649 1.391 . S
C649 H637 0.950 . S
C649 C645 1.393 1_655 S
C649 C648 1.391 . S
C650 H640 0.950 . S
C650 C651 1.386 . S
C650 C652 1.391 . S
C651 C650 1.386 . S
C651 C655 1.393 1_655 S
C652 H641 0.950 . S
C652 C650 1.391 . S
C652 C653 1.400 . S
C653 C647 1.491 1_655 S
C653 C652 1.400 . S
C653 C654 1.398 1_655 S
C654 H642 0.950 . S
C654 C653 1.398 1_455 S
C654 C655 1.391 . S
C655 H643 0.950 . S
C655 C651 1.393 1_455 S
C655 C654 1.391 . S
H656 C664 0.950 . S
H657 C669 0.950 . S
H658 C666 0.950 . S
H659 C668 0.950 . S
H660 C670 0.950 . S
H661 C672 0.950 . S
H662 C674 0.950 . S
H663 C675 0.950 . S
C664 H656 0.950 . S
C664 C665 1.386 1_545 S
C664 C666 1.391 . S
C665 C664 1.386 1_565 S
C665 C669 1.393 . S
C666 H658 0.950 . S
C666 C664 1.391 . S
C666 C667 1.400 1_545 S
C667 C666 1.400 1_565 S
C667 C668 1.398 . S
C667 C673 1.491 1_565 S
C668 H659 0.950 . S
C668 C667 1.398 . S
C668 C669 1.391 . S
C669 H657 0.950 . S
C669 C665 1.393 . S
C669 C668 1.391 . S
C670 H660 0.950 . S
C670 C671 1.386 1_565 S
C670 C672 1.391 . S
C671 C670 1.386 1_545 S
C671 C675 1.393 . S
C672 H661 0.950 . S
C672 C670 1.391 . S
C672 C673 1.400 1_565 S
C673 C667 1.491 1_545 S
C673 C672 1.400 1_545 S
C673 C674 1.398 . S
C674 H662 0.950 . S
C674 C673 1.398 . S
C674 C675 1.391 . S
C675 H663 0.950 . S
C675 C671 1.393 . S
C675 C674 1.391 . S
H676 C684 0.950 . S
H677 C689 0.950 . S
H678 C686 0.950 . S
H679 C688 0.950 . S
H680 C690 0.950 . S
H681 C692 0.950 . S
H682 C694 0.950 . S
H683 C695 0.950 . S
C684 H676 0.950 . S
C684 C685 1.386 . S
C684 C686 1.391 . S
C685 C684 1.386 . S
C685 C689 1.393 . S
C686 H678 0.950 . S
C686 C684 1.391 . S
C686 C687 1.400 . S
C687 C686 1.400 . S
C687 C688 1.398 . S
C687 C693 1.491 . S
C688 H679 0.950 . S
C688 C687 1.398 . S
C688 C689 1.391 . S
C689 H677 0.950 . S
C689 C685 1.393 . S
C689 C688 1.391 . S
C690 H680 0.950 . S
C690 C691 1.386 . S
C690 C692 1.391 . S
C691 C690 1.386 . S
C691 C695 1.393 . S
C692 H681 0.950 . S
C692 C690 1.391 . S
C692 C693 1.400 . S
C693 C687 1.491 . S
C693 C692 1.400 . S
C693 C694 1.398 . S
C694 H682 0.950 . S
C694 C693 1.398 . S
C694 C695 1.391 . S
C695 H683 0.950 . S
C695 C691 1.393 . S
C695 C694 1.391 . S
H696 C704 0.950 . S
H697 C709 0.950 . S
H698 C706 0.950 . S
H699 C708 0.950 . S
H700 C710 0.950 . S
H701 C712 0.950 . S
H702 C714 0.950 . S
H703 C715 0.950 . S
C704 H696 0.950 . S
C704 C705 1.386 . S
C704 C706 1.391 . S
C705 C704 1.386 . S
C705 C709 1.393 1_455 S
C706 H698 0.950 . S
C706 C704 1.391 . S
C706 C707 1.400 . S
C707 C706 1.400 . S
C707 C708 1.398 1_455 S
C707 C713 1.491 1_455 S
C708 H699 0.950 . S
C708 C707 1.398 1_655 S
C708 C709 1.391 . S
C709 H697 0.950 . S
C709 C705 1.393 1_655 S
C709 C708 1.391 . S
C710 H700 0.950 . S
C710 C711 1.386 . S
C710 C712 1.391 . S
C711 C710 1.386 . S
C711 C715 1.393 1_655 S
C712 H701 0.950 . S
C712 C710 1.391 . S
C712 C713 1.400 . S
C713 C707 1.491 1_655 S
C713 C712 1.400 . S
C713 C714 1.398 1_655 S
C714 H702 0.950 . S
C714 C713 1.398 1_455 S
C714 C715 1.391 . S
C715 H703 0.950 . S
C715 C711 1.393 1_455 S
C715 C714 1.391 . S
H716 C724 0.950 . S
H717 C729 0.950 . S
H718 C726 0.950 . S
H719 C728 0.944 . S
H720 C730 0.950 . S
H721 C732 0.950 . S
H722 C734 0.944 . S
H723 C735 0.950 . S
C724 H716 0.950 . S
C724 C725 1.386 . S
C724 C726 1.391 . S
C725 C724 1.386 . S
C725 C729 1.393 . S
C726 H718 0.950 . S
C726 C724 1.391 . S
C726 C727 1.400 . S
C727 C726 1.400 . S
C727 C728 1.406 1_565 S
C727 C733 1.491 1_565 S
C728 H719 0.944 . S
C728 C727 1.406 1_545 S
C728 C729 1.389 1_545 S
C729 H717 0.950 . S
C729 C725 1.393 . S
C729 C728 1.389 1_565 S
C730 H720 0.950 . S
C730 C731 1.386 . S
C730 C732 1.391 . S
C731 C730 1.386 . S
C731 C735 1.393 . S
C732 H721 0.950 . S
C732 C730 1.391 . S
C732 C733 1.400 . S
C733 C727 1.491 1_545 S
C733 C732 1.400 . S
C733 C734 1.406 1_545 S
C734 H722 0.944 . S
C734 C733 1.406 1_565 S
C734 C735 1.389 1_565 S
C735 H723 0.950 . S
C735 C731 1.393 . S
C735 C734 1.389 1_545 S
H736 C744 0.950 . S
H737 C749 0.950 . S
H738 C746 0.950 . S
H739 C748 0.950 . S
H740 C750 0.950 . S
H741 C752 0.950 . S
H742 C754 0.950 . S
H743 C755 0.950 . S
C744 H736 0.950 . S
C744 C745 1.386 . S
C744 C746 1.391 . S
C745 C744 1.386 . S
C745 C749 1.393 . S
C746 H738 0.950 . S
C746 C744 1.391 . S
C746 C747 1.400 . S
C747 C746 1.400 . S
C747 C748 1.398 . S
C747 C753 1.491 . S
C748 H739 0.950 . S
C748 C747 1.398 . S
C748 C749 1.391 . S
C749 H737 0.950 . S
C749 C745 1.393 . S
C749 C748 1.391 . S
C750 H740 0.950 . S
C750 C751 1.386 . S
C750 C752 1.391 . S
C751 C750 1.386 . S
C751 C755 1.393 . S
C752 H741 0.950 . S
C752 C750 1.391 . S
C752 C753 1.400 . S
C753 C747 1.491 . S
C753 C752 1.400 . S
C753 C754 1.398 . S
C754 H742 0.950 . S
C754 C753 1.398 . S
C754 C755 1.391 . S
C755 H743 0.950 . S
C755 C751 1.393 . S
C755 C754 1.391 . S
H756 C764 0.950 . S
H757 C769 0.950 . S
H758 C766 0.950 . S
H759 C768 0.950 1_556 S
H760 C770 0.950 . S
H761 C772 0.950 . S
H762 C774 0.950 1_554 S
H763 C775 0.950 . S
C764 H756 0.950 . S
C764 C765 1.386 . S
C764 C766 1.391 . S
C765 C764 1.386 . S
C765 C769 1.393 . S
C766 H758 0.950 . S
C766 C764 1.391 . S
C766 C767 1.400 . S
C767 C766 1.400 . S
C767 C768 1.398 . S
C767 C773 1.491 1_554 S
C768 H759 0.950 1_554 S
C768 C767 1.398 . S
C768 C769 1.391 . S
C769 H757 0.950 . S
C769 C765 1.393 . S
C769 C768 1.391 . S
C770 H760 0.950 . S
C770 C771 1.386 . S
C770 C772 1.391 . S
C771 C770 1.386 . S
C771 C775 1.393 . S
C772 H761 0.950 . S
C772 C770 1.391 . S
C772 C773 1.400 . S
C773 C767 1.491 1_556 S
C773 C772 1.400 . S
C773 C774 1.398 . S
C774 H762 0.950 1_556 S
C774 C773 1.398 . S
C774 C775 1.391 . S
C775 H763 0.950 . S
C775 C771 1.393 . S
C775 C774 1.391 . S
H776 C784 0.950 . S
H777 C789 0.950 . S
H778 C786 0.950 . S
H779 C788 0.950 . S
H780 C790 0.950 . S
H781 C792 0.950 . S
H782 C794 0.950 . S
H783 C795 0.950 . S
C784 H776 0.950 . S
C784 C785 1.386 . S
C784 C786 1.391 . S
C785 C784 1.386 . S
C785 C789 1.393 . S
C786 H778 0.950 . S
C786 C784 1.391 . S
C786 C787 1.400 . S
C787 C786 1.400 . S
C787 C788 1.398 . S
C787 C793 1.491 . S
C788 H779 0.950 . S
C788 C787 1.398 . S
C788 C789 1.391 . S
C789 H777 0.950 . S
C789 C785 1.393 . S
C789 C788 1.391 . S
C790 H780 0.950 . S
C790 C791 1.386 . S
C790 C792 1.391 . S
C791 C790 1.386 . S
C791 C795 1.393 . S
C792 H781 0.950 . S
C792 C790 1.391 . S
C792 C793 1.400 . S
C793 C787 1.491 . S
C793 C792 1.400 . S
C793 C794 1.398 . S
C794 H782 0.950 . S
C794 C793 1.398 . S
C794 C795 1.391 . S
C795 H783 0.950 . S
C795 C791 1.393 . S
C795 C794 1.391 . S
H796 C804 0.950 . S
H797 C809 0.950 . S
H798 C806 0.950 . S
H799 C808 0.950 . S
H800 C810 0.950 . S
H801 C812 0.950 . S
H802 C814 0.950 . S
H803 C815 0.950 . S
C804 H796 0.950 . S
C804 C805 1.386 . S
C804 C806 1.391 . S
C805 C804 1.386 . S
C805 C809 1.393 . S
C806 H798 0.950 . S
C806 C804 1.391 . S
C806 C807 1.400 . S
C807 C806 1.400 . S
C807 C808 1.398 . S
C807 C813 1.491 . S
C808 H799 0.950 . S
C808 C807 1.398 . S
C808 C809 1.391 . S
C809 H797 0.950 . S
C809 C805 1.393 . S
C809 C808 1.391 . S
C810 H800 0.950 . S
C810 C811 1.386 . S
C810 C812 1.391 . S
C811 C810 1.386 . S
C811 C815 1.393 . S
C812 H801 0.950 . S
C812 C810 1.391 . S
C812 C813 1.400 . S
C813 C807 1.491 . S
C813 C812 1.400 . S
C813 C814 1.398 . S
C814 H802 0.950 . S
C814 C813 1.398 . S
C814 C815 1.391 . S
C815 H803 0.950 . S
C815 C811 1.393 . S
C815 C814 1.391 . S
H816 C824 0.950 . S
H817 C829 0.950 . S
H818 C826 0.950 . S
H819 C828 0.950 1_556 S
H820 C830 0.950 . S
H821 C832 0.950 . S
H822 C834 0.950 1_554 S
H823 C835 0.950 . S
C824 H816 0.950 . S
C824 C825 1.386 . S
C824 C826 1.391 . S
C825 C824 1.386 . S
C825 C829 1.393 . S
C826 H818 0.950 . S
C826 C824 1.391 . S
C826 C827 1.400 . S
C827 C826 1.400 . S
C827 C828 1.398 . S
C827 C833 1.491 1_554 S
C828 H819 0.950 1_554 S
C828 C827 1.398 . S
C828 C829 1.391 . S
C829 H817 0.950 . S
C829 C825 1.393 . S
C829 C828 1.391 . S
C830 H820 0.950 . S
C830 C831 1.386 . S
C830 C832 1.391 . S
C831 C830 1.386 . S
C831 C835 1.393 . S
C832 H821 0.950 . S
C832 C830 1.391 . S
C832 C833 1.400 . S
C833 C827 1.491 1_556 S
C833 C832 1.400 . S
C833 C834 1.398 . S
C834 H822 0.950 1_556 S
C834 C833 1.398 . S
C834 C835 1.391 . S
C835 H823 0.950 . S
C835 C831 1.393 . S
C835 C834 1.391 . S
H836 C844 0.950 . S
H837 C849 0.950 . S
H838 C846 0.950 . S
H839 C848 0.950 . S
H840 C850 0.950 . S
H841 C852 0.950 . S
H842 C854 0.950 . S
H843 C855 0.950 . S
C844 H836 0.950 . S
C844 C845 1.386 . S
C844 C846 1.391 . S
C845 C844 1.386 . S
C845 C849 1.393 . S
C846 H838 0.950 . S
C846 C844 1.391 . S
C846 C847 1.400 . S
C847 C846 1.400 . S
C847 C848 1.398 . S
C847 C853 1.491 . S
C848 H839 0.950 . S
C848 C847 1.398 . S
C848 C849 1.391 . S
C849 H837 0.950 . S
C849 C845 1.393 . S
C849 C848 1.391 . S
C850 H840 0.950 . S
C850 C851 1.386 . S
C850 C852 1.391 . S
C851 C850 1.386 . S
C851 C855 1.393 . S
C852 H841 0.950 . S
C852 C850 1.391 . S
C852 C853 1.400 . S
C853 C847 1.491 . S
C853 C852 1.400 . S
C853 C854 1.398 . S
C854 H842 0.950 . S
C854 C853 1.398 . S
C854 C855 1.391 . S
C855 H843 0.950 . S
C855 C851 1.393 . S
C855 C854 1.391 . S
H856 C864 0.950 . S
H857 C869 0.950 . S
H858 C866 0.950 . S
H859 C868 0.950 . S
H860 C870 0.950 . S
H861 C872 0.950 . S
H862 C874 0.950 . S
H863 C875 0.950 . S
C864 H856 0.950 . S
C864 C865 1.386 . S
C864 C866 1.391 . S
C865 C864 1.386 . S
C865 C869 1.393 . S
C866 H858 0.950 . S
C866 C864 1.391 . S
C866 C867 1.400 . S
C867 C866 1.400 . S
C867 C868 1.398 . S
C867 C873 1.491 . S
C868 H859 0.950 . S
C868 C867 1.398 . S
C868 C869 1.391 . S
C869 H857 0.950 . S
C869 C865 1.393 . S
C869 C868 1.391 . S
C870 H860 0.950 . S
C870 C871 1.386 . S
C870 C872 1.391 . S
C871 C870 1.386 . S
C871 C875 1.393 . S
C872 H861 0.950 . S
C872 C870 1.391 . S
C872 C873 1.400 . S
C873 C867 1.491 . S
C873 C872 1.400 . S
C873 C874 1.398 . S
C874 H862 0.950 . S
C874 C873 1.398 . S
C874 C875 1.391 . S
C875 H863 0.950 . S
C875 C871 1.393 . S
C875 C874 1.391 . S
H876 C884 0.950 . S
H877 C889 0.950 . S
H878 C886 0.950 . S
H879 C888 0.950 . S
H880 C890 0.950 . S
H881 C892 0.950 . S
H882 C894 0.950 . S
H883 C895 0.950 . S
C884 H876 0.950 . S
C884 C885 1.386 . S
C884 C886 1.391 . S
C885 C884 1.386 . S
C885 C889 1.393 1_655 S
C886 H878 0.950 . S
C886 C884 1.391 . S
C886 C887 1.400 . S
C887 C886 1.400 . S
C887 C888 1.398 1_655 S
C887 C893 1.491 1_655 S
C888 H879 0.950 . S
C888 C887 1.398 1_455 S
C888 C889 1.391 . S
C889 H877 0.950 . S
C889 C885 1.393 1_455 S
C889 C888 1.391 . S
C890 H880 0.950 . S
C890 C891 1.386 . S
C890 C892 1.391 . S
C891 C890 1.386 . S
C891 C895 1.393 1_455 S
C892 H881 0.950 . S
C892 C890 1.391 . S
C892 C893 1.400 . S
C893 C887 1.491 1_455 S
C893 C892 1.400 . S
C893 C894 1.398 1_455 S
C894 H882 0.950 . S
C894 C893 1.398 1_655 S
C894 C895 1.391 . S
C895 H883 0.950 . S
C895 C891 1.393 1_655 S
C895 C894 1.391 . S
H896 C904 0.950 . S
H897 C909 0.950 . S
H898 C906 0.950 . S
H899 C908 0.950 . S
H900 C910 0.950 . S
H901 C912 0.950 . S
H902 C914 0.950 . S
H903 C915 0.950 . S
C904 H896 0.950 . S
C904 C905 1.386 1_565 S
C904 C906 1.391 . S
C905 C904 1.386 1_545 S
C905 C909 1.393 . S
C906 H898 0.950 . S
C906 C904 1.391 . S
C906 C907 1.400 1_565 S
C907 C906 1.400 1_545 S
C907 C908 1.398 . S
C907 C913 1.491 1_545 S
C908 H899 0.950 . S
C908 C907 1.398 . S
C908 C909 1.391 . S
C909 H897 0.950 . S
C909 C905 1.393 . S
C909 C908 1.391 . S
C910 H900 0.950 . S
C910 C911 1.386 1_545 S
C910 C912 1.391 . S
C911 C910 1.386 1_565 S
C911 C915 1.393 . S
C912 H901 0.950 . S
C912 C910 1.391 . S
C912 C913 1.400 1_545 S
C913 C907 1.491 1_565 S
C913 C912 1.400 1_565 S
C913 C914 1.398 . S
C914 H902 0.950 . S
C914 C913 1.398 . S
C914 C915 1.391 . S
C915 H903 0.950 . S
C915 C911 1.393 . S
C915 C914 1.391 . S
H916 C924 0.950 . S
H917 C929 0.950 . S
H918 C926 0.950 . S
H919 C928 0.950 . S
H920 C930 0.950 . S
H921 C932 0.950 . S
H922 C934 0.950 . S
H923 C935 0.950 . S
C924 H916 0.950 . S
C924 C925 1.386 . S
C924 C926 1.391 . S
C925 C924 1.386 . S
C925 C929 1.393 . S
C926 H918 0.950 . S
C926 C924 1.391 . S
C926 C927 1.400 . S
C927 C926 1.400 . S
C927 C928 1.398 . S
C927 C933 1.491 . S
C928 H919 0.950 . S
C928 C927 1.398 . S
C928 C929 1.391 . S
C929 H917 0.950 . S
C929 C925 1.393 . S
C929 C928 1.391 . S
C930 H920 0.950 . S
C930 C931 1.386 . S
C930 C932 1.391 . S
C931 C930 1.386 . S
C931 C935 1.393 . S
C932 H921 0.950 . S
C932 C930 1.391 . S
C932 C933 1.400 . S
C933 C927 1.491 . S
C933 C932 1.400 . S
C933 C934 1.398 . S
C934 H922 0.950 . S
C934 C933 1.398 . S
C934 C935 1.391 . S
C935 H923 0.950 . S
C935 C931 1.393 . S
C935 C934 1.391 . S
H936 C944 0.950 . S
H937 C949 0.950 . S
H938 C946 0.950 . S
H939 C948 0.950 . S
H940 C950 0.950 . S
H941 C952 0.950 . S
H942 C954 0.950 . S
H943 C955 0.950 . S
C944 H936 0.950 . S
C944 C945 1.386 1_565 S
C944 C946 1.391 . S
C945 C944 1.386 1_545 S
C945 C949 1.393 . S
C946 H938 0.950 . S
C946 C944 1.391 . S
C946 C947 1.400 1_565 S
C947 C946 1.400 1_545 S
C947 C948 1.398 . S
C947 C953 1.491 1_545 S
C948 H939 0.950 . S
C948 C947 1.398 . S
C948 C949 1.391 . S
C949 H937 0.950 . S
C949 C945 1.393 . S
C949 C948 1.391 . S
C950 H940 0.950 . S
C950 C951 1.386 1_545 S
C950 C952 1.391 . S
C951 C950 1.386 1_565 S
C951 C955 1.393 . S
C952 H941 0.950 . S
C952 C950 1.391 . S
C952 C953 1.400 1_545 S
C953 C947 1.491 1_565 S
C953 C952 1.400 1_565 S
C953 C954 1.398 . S
C954 H942 0.950 . S
C954 C953 1.398 . S
C954 C955 1.391 . S
C955 H943 0.950 . S
C955 C951 1.393 . S
C955 C954 1.391 . S
H956 C964 0.950 . S
H957 C969 0.950 . S
H958 C966 0.950 . S
H959 C968 0.950 . S
H960 C970 0.950 . S
H961 C972 0.950 . S
H962 C974 0.950 . S
H963 C975 0.950 . S
C964 H956 0.950 . S
C964 C965 1.386 . S
C964 C966 1.391 . S
C965 C964 1.386 . S
C965 C969 1.393 . S
C966 H958 0.950 . S
C966 C964 1.391 . S
C966 C967 1.400 . S
C967 C966 1.400 . S
C967 C968 1.398 . S
C967 C973 1.491 . S
C968 H959 0.950 . S
C968 C967 1.398 . S
C968 C969 1.391 . S
C969 H957 0.950 . S
C969 C965 1.393 . S
C969 C968 1.391 . S
C970 H960 0.950 . S
C970 C971 1.386 . S
C970 C972 1.391 . S
C971 C970 1.386 . S
C971 C975 1.393 . S
C972 H961 0.950 . S
C972 C970 1.391 . S
C972 C973 1.400 . S
C973 C967 1.491 . S
C973 C972 1.400 . S
C973 C974 1.398 . S
C974 H962 0.950 . S
C974 C973 1.398 . S
C974 C975 1.391 . S
C975 H963 0.950 . S
C975 C971 1.393 . S
C975 C974 1.391 . S
H976 C984 0.950 . S
H977 C989 0.950 . S
H978 C986 0.950 . S
H979 C988 0.950 . S
H980 C990 0.950 . S
H981 C992 0.950 . S
H982 C994 0.950 . S
H983 C995 0.950 . S
C984 H976 0.950 . S
C984 C985 1.386 . S
C984 C986 1.391 . S
C985 C984 1.386 . S
C985 C989 1.393 1_455 S
C986 H978 0.950 . S
C986 C984 1.391 . S
C986 C987 1.400 . S
C987 C986 1.400 . S
C987 C988 1.398 1_455 S
C987 C993 1.491 1_455 S
C988 H979 0.950 . S
C988 C987 1.398 1_655 S
C988 C989 1.391 . S
C989 H977 0.950 . S
C989 C985 1.393 1_655 S
C989 C988 1.391 . S
C990 H980 0.950 . S
C990 C991 1.386 . S
C990 C992 1.391 . S
C991 C990 1.386 . S
C991 C995 1.393 1_655 S
C992 H981 0.950 . S
C992 C990 1.391 . S
C992 C993 1.400 . S
C993 C987 1.491 1_655 S
C993 C992 1.400 . S
C993 C994 1.398 1_655 S
C994 H982 0.950 . S
C994 C993 1.398 1_455 S
C994 C995 1.391 . S
C995 H983 0.950 . S
C995 C991 1.393 1_455 S
C995 C994 1.391 . S
H996 C1004 0.950 . S
H997 C1009 0.950 . S
H998 C1006 0.950 . S
H999 C1008 0.950 . S
H1000 C1010 0.950 . S
H1001 C1012 0.950 . S
H1002 C1014 0.950 . S
H1003 C1015 0.950 . S
C1004 H996 0.950 . S
C1004 C1005 1.386 . S
C1004 C1006 1.391 . S
C1005 C1004 1.386 . S
C1005 C1009 1.393 1_455 S
C1006 H998 0.950 . S
C1006 C1004 1.391 . S
C1006 C1007 1.400 . S
C1007 C1006 1.400 . S
C1007 C1008 1.398 1_455 S
C1007 C1013 1.491 1_445 S
C1008 H999 0.950 . S
C1008 C1007 1.398 1_655 S
C1008 C1009 1.391 . S
C1009 H997 0.950 . S
C1009 C1005 1.393 1_655 S
C1009 C1008 1.391 . S
C1010 H1000 0.950 . S
C1010 C1011 1.386 . S
C1010 C1012 1.391 . S
C1011 C1010 1.386 . S
C1011 C1015 1.393 1_655 S
C1012 H1001 0.950 . S
C1012 C1010 1.391 . S
C1012 C1013 1.400 . S
C1013 C1007 1.491 1_665 S
C1013 C1012 1.400 . S
C1013 C1014 1.398 1_655 S
C1014 H1002 0.950 . S
C1014 C1013 1.398 1_455 S
C1014 C1015 1.391 . S
C1015 H1003 0.950 . S
C1015 C1011 1.393 1_455 S
C1015 C1014 1.391 . S
H1016 C1024 0.950 . S
H1017 C1029 0.950 . S
H1018 C1026 0.950 . S
H1019 C1028 0.950 1_455 S
H1020 C1030 0.950 . S
H1021 C1032 0.950 . S
H1022 C1034 0.950 1_655 S
H1023 C1035 0.950 . S
C1024 H1016 0.950 . S
C1024 C1025 1.386 1_565 S
C1024 C1026 1.391 . S
C1025 C1024 1.386 1_545 S
C1025 C1029 1.393 . S
C1026 H1018 0.950 . S
C1026 C1024 1.391 . S
C1026 C1027 1.400 1_565 S
C1027 C1026 1.400 1_545 S
C1027 C1028 1.398 . S
C1027 C1033 1.491 1_645 S
C1028 H1019 0.950 1_655 S
C1028 C1027 1.398 . S
C1028 C1029 1.391 . S
C1029 H1017 0.950 . S
C1029 C1025 1.393 . S
C1029 C1028 1.391 . S
C1030 H1020 0.950 . S
C1030 C1031 1.386 1_545 S
C1030 C1032 1.391 . S
C1031 C1030 1.386 1_565 S
C1031 C1035 1.393 . S
C1032 H1021 0.950 . S
C1032 C1030 1.391 . S
C1032 C1033 1.400 1_545 S
C1033 C1027 1.491 1_465 S
C1033 C1032 1.400 1_565 S
C1033 C1034 1.398 . S
C1034 H1022 0.950 1_455 S
C1034 C1033 1.398 . S
C1034 C1035 1.391 . S
C1035 H1023 0.950 . S
C1035 C1031 1.393 . S
C1035 C1034 1.391 . S
H1036 C1044 0.950 . S
H1037 C1049 0.950 . S
H1038 C1046 0.950 1_565 S
H1039 C1048 0.950 . S
H1040 C1050 0.950 . S
H1041 C1052 0.950 1_545 S
H1042 C1054 0.950 . S
H1043 C1055 0.950 . S
C1044 H1036 0.950 . S
C1044 C1045 1.386 . S
C1044 C1046 1.391 . S
C1045 C1044 1.386 . S
C1045 C1049 1.393 . S
C1046 H1038 0.950 1_545 S
C1046 C1044 1.391 . S
C1046 C1047 1.400 . S
C1047 C1046 1.400 . S
C1047 C1048 1.398 . S
C1047 C1053 1.491 1_445 S
C1048 H1039 0.950 . S
C1048 C1047 1.398 . S
C1048 C1049 1.391 . S
C1049 H1037 0.950 . S
C1049 C1045 1.393 . S
C1049 C1048 1.391 . S
C1050 H1040 0.950 . S
C1050 C1051 1.386 . S
C1050 C1052 1.391 . S
C1051 C1050 1.386 . S
C1051 C1055 1.393 . S
C1052 H1041 0.950 1_565 S
C1052 C1050 1.391 . S
C1052 C1053 1.400 . S
C1053 C1047 1.491 1_665 S
C1053 C1052 1.400 . S
C1053 C1054 1.398 . S
C1054 H1042 0.950 . S
C1054 C1053 1.398 . S
C1054 C1055 1.391 . S
C1055 H1043 0.950 . S
C1055 C1051 1.393 . S
C1055 C1054 1.391 . S
H1056 C1064 0.950 . S
H1057 C1069 0.950 . S
H1058 C1066 0.950 . S
H1059 C1068 0.950 . S
H1060 C1070 0.950 . S
H1061 C1072 0.950 . S
H1062 C1074 0.950 . S
H1063 C1075 0.950 . S
C1064 H1056 0.950 . S
C1064 C1065 1.386 . S
C1064 C1066 1.391 . S
C1065 C1064 1.386 . S
C1065 C1069 1.393 1_565 S
C1066 H1058 0.950 . S
C1066 C1064 1.391 . S
C1066 C1067 1.400 . S
C1067 C1066 1.400 . S
C1067 C1068 1.398 1_565 S
C1067 C1073 1.491 1_665 S
C1068 H1059 0.950 . S
C1068 C1067 1.398 1_545 S
C1068 C1069 1.391 . S
C1069 H1057 0.950 . S
C1069 C1065 1.393 1_545 S
C1069 C1068 1.391 . S
C1070 H1060 0.950 . S
C1070 C1071 1.386 . S
C1070 C1072 1.391 . S
C1071 C1070 1.386 . S
C1071 C1075 1.393 1_545 S
C1072 H1061 0.950 . S
C1072 C1070 1.391 . S
C1072 C1073 1.400 . S
C1073 C1067 1.491 1_445 S
C1073 C1072 1.400 . S
C1073 C1074 1.398 1_545 S
C1074 H1062 0.950 . S
C1074 C1073 1.398 1_565 S
C1074 C1075 1.391 . S
C1075 H1063 0.950 . S
C1075 C1071 1.393 1_565 S
C1075 C1074 1.391 . S
H1076 C1084 0.950 . S
H1077 C1089 0.950 . S
H1078 C1086 0.950 . S
H1079 C1088 0.950 1_455 S
H1080 C1090 0.950 . S
H1081 C1092 0.950 . S
H1082 C1094 0.950 1_655 S
H1083 C1095 0.950 . S
C1084 H1076 0.950 . S
C1084 C1085 1.386 . S
C1084 C1086 1.391 . S
C1085 C1084 1.386 . S
C1085 C1089 1.393 . S
C1086 H1078 0.950 . S
C1086 C1084 1.391 . S
C1086 C1087 1.400 . S
C1087 C1086 1.400 . S
C1087 C1088 1.398 . S
C1087 C1093 1.491 1_665 S
C1088 H1079 0.950 1_655 S
C1088 C1087 1.398 . S
C1088 C1089 1.391 . S
C1089 H1077 0.950 . S
C1089 C1085 1.393 . S
C1089 C1088 1.391 . S
C1090 H1080 0.950 . S
C1090 C1091 1.386 . S
C1090 C1092 1.391 . S
C1091 C1090 1.386 . S
C1091 C1095 1.393 . S
C1092 H1081 0.950 . S
C1092 C1090 1.391 . S
C1092 C1093 1.400 . S
C1093 C1087 1.491 1_445 S
C1093 C1092 1.400 . S
C1093 C1094 1.398 . S
C1094 H1082 0.950 1_455 S
C1094 C1093 1.398 . S
C1094 C1095 1.391 . S
C1095 H1083 0.950 . S
C1095 C1091 1.393 . S
C1095 C1094 1.391 . S
H1096 C1104 0.950 . S
H1097 C1109 0.950 . S
H1098 C1106 0.950 1_545 S
H1099 C1108 0.950 . S
H1100 C1110 0.950 . S
H1101 C1112 0.950 1_565 S
H1102 C1114 0.950 . S
H1103 C1115 0.950 . S
C1104 H1096 0.950 . S
C1104 C1105 1.386 . S
C1104 C1106 1.391 . S
C1105 C1104 1.386 . S
C1105 C1109 1.393 1_455 S
C1106 H1098 0.950 1_565 S
C1106 C1104 1.391 . S
C1106 C1107 1.400 . S
C1107 C1106 1.400 . S
C1107 C1108 1.398 1_455 S
C1107 C1113 1.491 1_465 S
C1108 H1099 0.950 . S
C1108 C1107 1.398 1_655 S
C1108 C1109 1.391 . S
C1109 H1097 0.950 . S
C1109 C1105 1.393 1_655 S
C1109 C1108 1.391 . S
C1110 H1100 0.950 . S
C1110 C1111 1.386 . S
C1110 C1112 1.391 . S
C1111 C1110 1.386 . S
C1111 C1115 1.393 1_655 S
C1112 H1101 0.950 1_545 S
C1112 C1110 1.391 . S
C1112 C1113 1.400 . S
C1113 C1107 1.491 1_645 S
C1113 C1112 1.400 . S
C1113 C1114 1.398 1_655 S
C1114 H1102 0.950 . S
C1114 C1113 1.398 1_455 S
C1114 C1115 1.391 . S
C1115 H1103 0.950 . S
C1115 C1111 1.393 1_455 S
C1115 C1114 1.391 . S
C645 C622 1.830 . S
C651 C39 1.833 . S
C665 C92 1.848 . S
C671 C357 1.839 . S
C685 C145 1.833 . S
C691 C410 1.831 . S
C705 C198 1.836 . S
C711 C463 1.846 . S
C725 C516 1.832 . S
C731 C251 1.831 . S
C745 C304 1.836 . S
C751 C569 1.846 . S
C765 C38 1.836 . S
C771 C568 1.833 . S
C785 C91 1.836 . S
C791 C621 1.837 . S
C805 C144 1.829 . S
C811 C356 1.826 . S
C825 C197 1.836 . S
C831 C409 1.833 . S
C845 C462 1.824 . S
C851 C250 1.823 . S
C865 C515 1.835 . S
C871 C303 1.832 . S
C885 C181 1.534 . S
C891 C22 1.539 . S
C905 C75 1.542 . S
C911 C234 1.539 . S
C925 C287 1.534 . S
C931 C128 1.536 . S
C945 C499 1.542 . S
C951 C340 1.540 . S
C965 C552 1.535 . S
C971 C393 1.541 . S
C985 C446 1.535 . S
C991 C605 1.541 . S
C1005 C29 1.581 . S
C1011 C188 1.586 . S
C1025 C82 1.590 . S
C1031 C241 1.585 . S
C1045 C294 1.580 . S
C1051 C135 1.585 . S
C1065 C347 1.582 . S
C1071 C506 1.588 . S
C1085 C400 1.589 . S
C1091 C559 1.583 . S
C1105 C453 1.582 . S
C1111 C612 1.588 . S
