# Generated by pormake.
# Topology snx, (6)-cn, num edge types: 1
# Building blocks:
#     Node 0, Type 0, BuildingBlock: OJICUG_clean_sbu_0, # of connection points: 6
#     Node 1, Type 0, BuildingBlock: OJICUG_clean_sbu_0, # of connection points: 6
#     Node 2, Type 0, BuildingBlock: OJICUG_clean_sbu_0, # of connection points: 6
#     Node 3, Type 0, BuildingBlock: OJICUG_clean_sbu_0, # of connection points: 6
#     Node 4, Type 0, BuildingBlock: OJICUG_clean_sbu_0, # of connection points: 6
#     Node 5, Type 0, BuildingBlock: OJICUG_clean_sbu_0, # of connection points: 6
#     Edge 6, Type (0, 0), BuildingBlock: EZIPEK_clean_linker_0, # of connection points: 2
#     Edge 7, Type (0, 0), BuildingBlock: EZIPEK_clean_linker_0, # of connection points: 2
#     Edge 8, Type (0, 0), BuildingBlock: EZIPEK_clean_linker_0, # of connection points: 2
#     Edge 9, Type (0, 0), BuildingBlock: EZIPEK_clean_linker_0, # of connection points: 2
#     Edge 10, Type (0, 0), BuildingBlock: EZIPEK_clean_linker_0, # of connection points: 2
#     Edge 11, Type (0, 0), BuildingBlock: EZIPEK_clean_linker_0, # of connection points: 2
#     Edge 12, Type (0, 0), BuildingBlock: EZIPEK_clean_linker_0, # of connection points: 2
#     Edge 13, Type (0, 0), BuildingBlock: EZIPEK_clean_linker_0, # of connection points: 2
#     Edge 14, Type (0, 0), BuildingBlock: EZIPEK_clean_linker_0, # of connection points: 2
#     Edge 15, Type (0, 0), BuildingBlock: EZIPEK_clean_linker_0, # of connection points: 2
#     Edge 16, Type (0, 0), BuildingBlock: EZIPEK_clean_linker_0, # of connection points: 2
#     Edge 17, Type (0, 0), BuildingBlock: EZIPEK_clean_linker_0, # of connection points: 2
#     Edge 18, Type (0, 0), BuildingBlock: EZIPEK_clean_linker_0, # of connection points: 2
#     Edge 19, Type (0, 0), BuildingBlock: EZIPEK_clean_linker_0, # of connection points: 2
#     Edge 20, Type (0, 0), BuildingBlock: EZIPEK_clean_linker_0, # of connection points: 2
#     Edge 21, Type (0, 0), BuildingBlock: EZIPEK_clean_linker_0, # of connection points: 2
#     Edge 22, Type (0, 0), BuildingBlock: EZIPEK_clean_linker_0, # of connection points: 2
#     Edge 23, Type (0, 0), BuildingBlock: EZIPEK_clean_linker_0, # of connection points: 2
# Relax obj value: 0.060
# Max RMSD: 0.112
# Mean RMSD: 0.112
data_MOF--net-snx--node1-OJICUG_clean_sbu_0--edge1-EZIPEK_clean_linker_0
_symmetry_space_group_name_H-M    P1
_symmetry_Int_Tables_number       1
_symmetry_cell_setting            triclinic
loop_
_symmetry_equiv_pos_as_xyz
'x, y, z'
_cell_length_a     29.116095
_cell_length_b     29.122157
_cell_length_c     16.184032
_cell_angle_alpha  90.162799
_cell_angle_beta   89.698629
_cell_angle_gamma 119.86921
loop_
_atom_site_label
_atom_site_type_symbol
_atom_site_fract_x
_atom_site_fract_y
_atom_site_fract_z
_atom_type_partial_charge
Sc0 Sc 0.20354 0.41035 0.13133 0.0
Sc1 Sc 0.19816 0.40856 0.34947 0.0
Sc2 Sc 0.13977 0.28881 0.23808 0.0
O3 O 0.1806 0.36937 0.23963 0.0
C4 C 0.08683 0.31625 0.08925 0.0
C5 C 0.16926 0.48063 0.23668 0.0
C6 C 0.08264 0.31272 0.3866 0.0
C7 C 0.30305 0.48249 0.24733 0.0
C8 C 0.22301 0.3144 0.09203 0.0
C9 C 0.21926 0.31328 0.38726 0.0
O10 O 0.12715 0.36127 0.07482 0.0
O11 O 0.17492 0.46447 0.30689 0.0
O12 O 0.08438 0.28314 0.33052 0.0
O13 O 0.28205 0.46698 0.17635 0.0
O14 O 0.1898 0.28399 0.1454 0.0
O15 O 0.22526 0.35874 0.40276 0.0
O16 O 0.23404 0.36203 0.08082 0.0
O17 O 0.27858 0.46228 0.3144 0.0
O18 O 0.19032 0.28361 0.32934 0.0
O19 O 0.17557 0.46282 0.16845 0.0
O20 O 0.08503 0.28588 0.14689 0.0
O21 O 0.12 0.35955 0.39993 0.0
Sc22 Sc 0.84131 0.14358 0.7482 0.0
Sc23 Sc 0.7836 0.20381 0.63613 0.0
Sc24 Sc 0.78114 0.20572 0.85244 0.0
O25 O 0.80181 0.18411 0.74573 0.0
C26 C 0.76208 0.09008 0.89563 0.0
C27 C 0.7588 0.0878 0.6005 0.0
C28 C 0.68035 0.17418 0.7468 0.0
C29 C 0.89823 0.21963 0.59896 0.0
C30 C 0.89624 0.22822 0.89367 0.0
C31 C 0.81339 0.30657 0.73474 0.0
O32 O 0.78575 0.0863 0.83224 0.0
O33 O 0.74576 0.12329 0.5937 0.0
O34 O 0.69944 0.17084 0.81551 0.0
O35 O 0.90082 0.1976 0.66484 0.0
O36 O 0.86154 0.24264 0.89731 0.0
O37 O 0.82077 0.28594 0.67046 0.0
O38 O 0.89176 0.1906 0.84795 0.0
O39 O 0.85685 0.22046 0.57688 0.0
O40 O 0.79653 0.28149 0.80272 0.0
O41 O 0.79508 0.09174 0.64853 0.0
O42 O 0.76106 0.13202 0.91476 0.0
O43 O 0.70763 0.19019 0.68062 0.0
Sc44 Sc 0.68994 0.84638 0.24604 0.0
Sc45 Sc 0.56788 0.78722 0.14217 0.0
Sc46 Sc 0.5718 0.78394 0.35823 0.0
O47 O 0.60993 0.80596 0.24868 0.0
C48 C 0.66939 0.76555 0.38968 0.0
C49 C 0.66071 0.76486 0.09517 0.0
C50 C 0.49875 0.68375 0.25311 0.0
C51 C 0.66544 0.90321 0.10251 0.0
C52 C 0.66348 0.89873 0.4002 0.0
C53 C 0.4992 0.81857 0.25573 0.0
O54 O 0.69558 0.79044 0.32606 0.0
O55 O 0.61155 0.75051 0.09339 0.0
O56 O 0.52509 0.70291 0.31896 0.0
O57 O 0.69166 0.90584 0.16652 0.0
O58 O 0.6151 0.86313 0.40633 0.0
O59 O 0.51997 0.82133 0.1848 0.0
O60 O 0.69566 0.89592 0.34971 0.0
O61 O 0.62267 0.86164 0.08227 0.0
O62 O 0.51218 0.8017 0.31846 0.0
O63 O 0.69369 0.80203 0.14145 0.0
O64 O 0.62663 0.76355 0.41221 0.0
O65 O 0.50726 0.71056 0.18717 0.0
Sc66 Sc 0.83794 0.69126 0.74842 0.0
Sc67 Sc 0.7739 0.57326 0.63757 0.0
Sc68 Sc 0.77267 0.57053 0.85347 0.0
O69 O 0.79493 0.61159 0.74676 0.0
C70 C 0.88777 0.65908 0.89764 0.0
C71 C 0.89168 0.66819 0.6 0.0
C72 C 0.80441 0.50054 0.73646 0.0
C73 C 0.75696 0.66845 0.60017 0.0
C74 C 0.75603 0.6696 0.89178 0.0
C75 C 0.67188 0.50044 0.7504 0.0
O76 O 0.88535 0.69319 0.8518 0.0
O77 O 0.84783 0.62909 0.57649 0.0
O78 O 0.78843 0.50987 0.80472 0.0
O79 O 0.79711 0.69957 0.64314 0.0
O80 O 0.75379 0.62631 0.91256 0.0
O81 O 0.69794 0.51099 0.68306 0.0
O82 O 0.78154 0.69647 0.82887 0.0
O83 O 0.73737 0.61844 0.6005 0.0
O84 O 0.69127 0.52634 0.81646 0.0
O85 O 0.89697 0.69133 0.66879 0.0
O86 O 0.85201 0.61072 0.89998 0.0
O87 O 0.80841 0.52551 0.6699 0.0
Sc88 Sc 0.13197 0.8383 0.23431 0.0
Sc89 Sc 0.19292 0.78008 0.34741 0.0
Sc90 Sc 0.19573 0.77873 0.12975 0.0
O91 O 0.17354 0.79895 0.23717 0.0
C92 C 0.07977 0.75582 0.08647 0.0
C93 C 0.07518 0.75805 0.38304 0.0
C94 C 0.16577 0.67743 0.24048 0.0
C95 C 0.21093 0.89572 0.3838 0.0
C96 C 0.21576 0.89442 0.08879 0.0
C97 C 0.29741 0.8114 0.24181 0.0
O98 O 0.07938 0.78763 0.13992 0.0
O99 O 0.11425 0.75132 0.39888 0.0
O100 O 0.17046 0.69994 0.1714 0.0
O101 O 0.17866 0.89341 0.32926 0.0
O102 O 0.22345 0.85574 0.07534 0.0
O103 O 0.27295 0.80631 0.30945 0.0
O104 O 0.18454 0.89421 0.14409 0.0
O105 O 0.22072 0.85839 0.39612 0.0
O106 O 0.27558 0.80437 0.17141 0.0
O107 O 0.07538 0.78722 0.32468 0.0
O108 O 0.11849 0.74788 0.07638 0.0
O109 O 0.17112 0.70041 0.30972 0.0
Sc110 Sc 0.28795 0.14023 0.7338 0.0
Sc111 Sc 0.40546 0.19304 0.8445 0.0
Sc112 Sc 0.40911 0.19932 0.6282 0.0
O113 O 0.36774 0.17755 0.73517 0.0
C114 C 0.31116 0.08376 0.58787 0.0
C115 C 0.31054 0.08058 0.88045 0.0
C116 C 0.4786 0.16528 0.72957 0.0
C117 C 0.31112 0.21654 0.88206 0.0
C118 C 0.31798 0.22288 0.58579 0.0
C119 C 0.47804 0.29834 0.74827 0.0
O120 O 0.28424 0.08069 0.65185 0.0
O121 O 0.36038 0.11131 0.8804 0.0
O122 O 0.45656 0.16448 0.66166 0.0
O123 O 0.28757 0.19832 0.81395 0.0
O124 O 0.36693 0.23746 0.58443 0.0
O125 O 0.45402 0.27557 0.81473 0.0
O126 O 0.28461 0.18527 0.63088 0.0
O127 O 0.35 0.21148 0.90584 0.0
O128 O 0.46805 0.27511 0.67838 0.0
O129 O 0.27933 0.0899 0.83817 0.0
O130 O 0.35439 0.12519 0.56797 0.0
O131 O 0.46637 0.17799 0.79799 0.0
C132 C 0.121 0.53052 0.26596 0.0
C133 C 0.16588 0.52964 0.23363 0.0
C134 C 0.20815 0.62419 0.20069 0.0
C135 C 0.16496 0.62613 0.23885 0.0
N136 N 0.08227 0.58294 0.31364 0.0
N137 N 0.25493 0.57641 0.17758 0.0
C138 C 0.12202 0.57979 0.27362 0.0
C139 C 0.20987 0.57651 0.20207 0.0
N140 N 0.07656 0.48383 0.28535 0.0
N141 N 0.24818 0.66817 0.16334 0.0
H142 H 0.25842 0.54265 0.17492 0.0
H143 H 0.291 0.61054 0.16636 0.0
H144 H 0.25402 0.70615 0.17075 0.0
H145 H 0.27495 0.66697 0.12173 0.0
H146 H 0.04063 0.48068 0.30263 0.0
H147 H 0.07433 0.44729 0.27669 0.0
H148 H 0.05283 0.55223 0.34826 0.0
H149 H 0.08041 0.61769 0.31594 0.0
C150 C 0.58027 0.1196 0.75181 0.0
C151 C 0.62739 0.16947 0.74613 0.0
C152 C 0.57601 0.21198 0.71199 0.0
C153 C 0.52854 0.16379 0.72679 0.0
N154 N 0.4844 0.07235 0.7688 0.0
N155 N 0.66814 0.26462 0.7467 0.0
C156 C 0.53026 0.11761 0.74931 0.0
C157 C 0.62469 0.2161 0.73356 0.0
N158 N 0.58337 0.07445 0.75748 0.0
N159 N 0.57494 0.25387 0.67626 0.0
H160 H 0.7039 0.2691 0.76753 0.0
H161 H 0.66675 0.29971 0.74654 0.0
H162 H 0.54007 0.25229 0.65753 0.0
H163 H 0.60907 0.28818 0.65758 0.0
H164 H 0.55056 0.03655 0.75415 0.0
H165 H 0.61947 0.07505 0.75996 0.0
H166 H 0.48338 0.03892 0.79367 0.0
H167 H 0.44729 0.06944 0.76413 0.0
C168 C 0.35794 0.57593 0.29855 0.0
C169 C 0.35494 0.5324 0.25339 0.0
C170 C 0.44744 0.58818 0.20846 0.0
C171 C 0.45089 0.6305 0.25693 0.0
N172 N 0.41221 0.66248 0.35857 0.0
N173 N 0.39905 0.49389 0.17843 0.0
C174 C 0.4072 0.62344 0.30579 0.0
C175 C 0.40035 0.53767 0.21174 0.0
N176 N 0.31304 0.57364 0.32985 0.0
N177 N 0.48911 0.59638 0.15913 0.0
H178 H 0.36566 0.45634 0.18219 0.0
H179 H 0.43205 0.49366 0.15389 0.0
H180 H 0.52525 0.63175 0.15915 0.0
H181 H 0.48708 0.56931 0.1151 0.0
H182 H 0.31174 0.60646 0.3526 0.0
H183 H 0.27541 0.54069 0.32557 0.0
H184 H 0.38464 0.65649 0.40461 0.0
H185 H 0.44537 0.70013 0.36084 0.0
C186 C 0.85068 0.45036 0.77722 0.0
C187 C 0.81079 0.45316 0.73122 0.0
C188 C 0.78166 0.36496 0.67364 0.0
C189 C 0.81706 0.35921 0.72735 0.0
N190 N 0.88469 0.39547 0.83192 0.0
N191 N 0.73163 0.40913 0.64832 0.0
C192 C 0.85146 0.40173 0.7797 0.0
C193 C 0.77491 0.40969 0.68208 0.0
N194 N 0.88857 0.49465 0.81646 0.0
N195 N 0.75325 0.32736 0.61537 0.0
H196 H 0.72398 0.44028 0.65403 0.0
H197 H 0.70033 0.37568 0.62156 0.0
H198 H 0.75147 0.2909 0.61101 0.0
H199 H 0.73329 0.33369 0.56745 0.0
H200 H 0.92175 0.49706 0.84461 0.0
H201 H 0.889 0.53069 0.8154 0.0
H202 H 0.90615 0.42216 0.8786 0.0
H203 H 0.88922 0.36212 0.83075 0.0
C204 C 0.44578 0.86184 0.20849 0.0
C205 C 0.45306 0.82829 0.26428 0.0
C206 C 0.35958 0.78473 0.30156 0.0
C207 C 0.35142 0.81809 0.24716 0.0
N208 N 0.38909 0.8959 0.1609 0.0
N209 N 0.4216 0.78328 0.39632 0.0
C210 C 0.39523 0.85887 0.20352 0.0
C211 C 0.41165 0.79744 0.32099 0.0
N212 N 0.48806 0.8985 0.16419 0.0
N213 N 0.31789 0.73972 0.33337 0.0
H214 H 0.45936 0.80032 0.42161 0.0
H215 H 0.39178 0.76257 0.43985 0.0
H216 H 0.27856 0.72664 0.3182 0.0
H217 H 0.32317 0.71228 0.36727 0.0
H218 H 0.48518 0.91952 0.1145 0.0
H219 H 0.52657 0.90848 0.17993 0.0
H220 H 0.42008 0.92903 0.13288 0.0
H221 H 0.35316 0.8956 0.15836 0.0
C222 C 0.5763 0.44424 0.7085 0.0
C223 C 0.62019 0.45062 0.75544 0.0
C224 C 0.57015 0.35755 0.79867 0.0
C225 C 0.52547 0.35167 0.75465 0.0
N226 N 0.48232 0.39012 0.67819 0.0
N227 N 0.65683 0.41552 0.85477 0.0
C228 C 0.52752 0.39527 0.71235 0.0
C229 C 0.61626 0.4081 0.80395 0.0
N230 N 0.58148 0.4849 0.65992 0.0
N231 N 0.57001 0.31407 0.83099 0.0
H232 H 0.6937 0.44968 0.85557 0.0
H233 H 0.65295 0.3888 0.90063 0.0
H234 H 0.53736 0.27606 0.8295 0.0
H235 H 0.60371 0.31439 0.85292 0.0
H236 H 0.55337 0.48117 0.61693 0.0
H237 H 0.61541 0.52225 0.65974 0.0
H238 H 0.47946 0.42145 0.6531 0.0
H239 H 0.44609 0.35487 0.68064 0.0
C240 C 0.32356 0.29316 0.97097 0.0
C241 C 0.28988 0.24195 0.93776 0.0
C242 C 0.21273 0.24338 -0.00546 0.0
C243 C 0.24668 0.29117 0.03675 0.0
N244 N 0.33518 0.35586 0.07865 0.0
N245 N 0.20365 0.1628 0.93713 0.0
C246 C 0.30243 0.31463 0.02879 0.0
C247 C 0.23476 0.21541 0.95503 0.0
N248 N 0.37497 0.32223 0.94503 0.0
N249 N 0.15959 0.22552 0.98948 0.0
H250 H 0.21864 0.13978 0.91241 0.0
H251 H 0.16417 0.14074 0.95572 0.0
H252 H 0.14186 0.24592 0.01463 0.0
H253 H 0.13421 0.19357 0.9525 0.0
H254 H 0.3995 0.36173 0.9615 0.0
H255 H 0.39154 0.30878 0.9006 0.0
H256 H 0.376 0.37105 0.08083 0.0
H257 H 0.32096 0.37123 0.1238 0.0
C258 C 0.96978 0.21424 0.52102 0.0
C259 C 0.94516 0.24389 0.54416 0.0
C260 C 0.00727 0.3169 0.45607 0.0
C261 C 0.03589 0.28993 0.44193 0.0
N262 N 0.0515 0.21848 0.47972 0.0
N263 N 0.94805 0.32832 0.54804 0.0
C264 C 0.01927 0.24017 0.47986 0.0
C265 C 0.96598 0.29669 0.51578 0.0
N266 N 0.94504 0.16089 0.53491 0.0
N267 N 0.01792 0.36045 0.41033 0.0
H268 H 0.91943 0.31584 0.59456 0.0
H269 H 0.96559 0.3686 0.53483 0.0
H270 H 0.04651 0.37513 0.36377 0.0
H271 H -0.00529 0.37846 0.41276 0.0
H272 H 0.95946 0.13699 0.51196 0.0
H273 H 0.90729 0.13954 0.56092 0.0
H274 H 0.04294 0.18471 0.51355 0.0
H275 H 0.08937 0.23725 0.45377 0.0
C276 C 0.7679 0.02353 0.98486 0.0
C277 C 0.73666 0.04366 0.95113 0.0
C278 C 0.65801 0.973 0.01976 0.0
C279 C 0.68844 0.94993 0.04658 0.0
N280 N 0.76919 0.94599 0.03377 0.0
N281 N 0.65029 0.0324 0.92347 0.0
C282 C 0.74256 0.97316 0.02324 0.0
C283 C 0.68117 0.01703 0.96497 0.0
N284 N 0.82195 0.05319 0.98246 0.0
N285 N 0.60771 0.95428 0.04879 0.0
H286 H 0.66578 0.0644 0.88281 0.0
H287 H 0.60906 0.01075 0.92391 0.0
H288 H 0.58934 0.92207 0.0885 0.0
H289 H 0.58593 0.97328 0.0389 0.0
H290 H 0.84647 0.0425 0.01355 0.0
H291 H 0.84216 0.09109 0.95687 0.0
H292 H 0.8072 0.9592 0.01058 0.0
H293 H 0.75126 0.90746 0.05686 0.0
C294 C 0.71065 0.7617 0.52231 0.0
C295 C 0.69109 0.74016 0.44325 0.0
C296 C 0.71947 0.675 0.46325 0.0
C297 C 0.73294 0.69211 0.54652 0.0
N298 N 0.72849 0.74404 0.66036 0.0
N299 N 0.66418 0.66787 0.34735 0.0
C300 C 0.72488 0.73332 0.57766 0.0
C301 C 0.69163 0.69421 0.41624 0.0
N302 N 0.71713 0.80998 0.54381 0.0
N303 N 0.73568 0.64296 0.42714 0.0
H304 H 0.64142 0.67972 0.31361 0.0
H305 H 0.65958 0.63144 0.32924 0.0
H306 H 0.75956 0.63091 0.45686 0.0
H307 H 0.73062 0.63357 0.36442 0.0
H308 H 0.73606 0.82976 0.59785 0.0
H309 H 0.70853 0.83264 0.50374 0.0
H310 H 0.71782 0.77016 0.68655 0.0
H311 H 0.73634 0.72269 0.70395 0.0
C312 C 0.98555 0.69747 0.90425 0.0
C313 C 0.93638 0.67647 0.94638 0.0
C314 C 0.98208 0.69467 0.07903 0.0
C315 C 0.03125 0.72442 0.03716 0.0
N316 N 0.08021 0.75624 0.90894 0.0
N317 N 0.88688 0.6564 0.07415 0.0
C318 C 0.03328 0.72592 0.94941 0.0
C319 C 0.93424 0.67486 0.03393 0.0
N320 N 0.98652 0.68873 0.82133 0.0
N321 N 0.98124 0.68378 0.16138 0.0
H322 H 0.85069 0.6399 0.04362 0.0
H323 H 0.88375 0.66059 0.13753 0.0
H324 H 0.01562 0.69597 0.19579 0.0
H325 H 0.94683 0.65807 0.19353 0.0
H326 H 0.02106 0.69841 0.78859 0.0
H327 H 0.95217 0.66669 0.7868 0.0
H328 H 0.08278 0.76432 0.8459 0.0
H329 H 0.11656 0.77637 0.93871 0.0
C330 C 0.27743 0.98712 0.56695 0.0
C331 C 0.28994 0.03684 0.53327 0.0
C332 C 0.25965 -0.00473 0.39808 0.0
C333 C 0.2387 0.9444 0.43511 0.0
N334 N 0.21693 0.89309 0.56154 0.0
N335 N 0.28255 0.08632 0.41952 0.0
C336 C 0.24471 0.94049 0.52151 0.0
C337 C 0.2783 0.04054 0.44946 0.0
N338 N 0.29788 0.98441 0.6413 0.0
N339 N 0.26382 0.00095 0.31417 0.0
H340 H 0.29383 0.11971 0.4561 0.0
H341 H 0.26947 0.08911 0.3609 0.0
H342 H 0.25341 0.96937 0.27395 0.0
H343 H 0.28329 0.03779 0.28515 0.0
H344 H 0.29337 0.94916 0.66511 0.0
H345 H 0.324 0.01814 0.67454 0.0
H346 H 0.21699 0.88973 0.62567 0.0
H347 H 0.18892 0.85846 0.53242 0.0
C348 C 0.66986 0.72789 0.95762 0.0
C349 C 0.6813 0.73641 0.04346 0.0
C350 C 0.74423 0.70389 0.02825 0.0
C351 C 0.72892 0.69069 0.94474 0.0
N352 N 0.66712 0.67767 0.83629 0.0
N353 N 0.71906 0.71867 0.16367 0.0
C354 C 0.68864 0.69891 0.91127 0.0
C355 C 0.71541 0.72022 0.07975 0.0
N356 N 0.64377 0.74983 0.91898 0.0
N357 N 0.78778 0.70322 0.05774 0.0
H358 H 0.69699 0.72818 0.20374 0.0
H359 H 0.7393 0.70231 0.19319 0.0
H360 H 0.81115 0.69338 0.02111 0.0
H361 H 0.80379 0.71771 0.11585 0.0
H362 H 0.63933 0.74913 0.85505 0.0
H363 H 0.63145 0.77347 0.9493 0.0
H364 H 0.63429 0.67831 0.81236 0.0
H365 H 0.6787 0.65469 0.80203 0.0
C366 C 0.96512 0.74525 0.52477 0.0
C367 C 0.93797 0.69021 0.5429 0.0
C368 C -0.0026 0.67852 0.44805 0.0
C369 C 0.02842 0.73424 0.43891 0.0
N370 N 0.04804 0.82132 0.48384 0.0
N371 N 0.93483 0.60584 0.53354 0.0
C372 C 0.01411 0.76785 0.48174 0.0
C373 C 0.95585 0.65708 0.50774 0.0
N374 N 0.94304 0.77569 0.545 0.0
N375 N 0.00615 0.64605 0.39744 0.0
H376 H 0.9056 0.58908 0.57905 0.0
H377 H 0.95007 0.58165 0.51567 0.0
H378 H 0.03487 0.6607 0.351 0.0
H379 H 0.98151 0.60509 0.39594 0.0
H380 H 0.95897 0.81487 0.5259 0.0
H381 H 0.90581 0.76035 0.57255 0.0
H382 H 0.0417 0.84686 0.52123 0.0
H383 H 0.08512 0.83952 0.45513 0.0
C384 C 0.28671 0.9878 0.06193 0.0
C385 C 0.24187 0.94098 0.03398 0.0
C386 C 0.24743 0.98295 0.90091 0.0
C387 C 0.2875 0.03225 0.93301 0.0
N388 N 0.33558 0.08315 0.0531 0.0
N389 N 0.17295 0.89673 0.93291 0.0
C390 C 0.30479 0.03521 0.016 0.0
C391 C 0.22028 0.93929 0.95514 0.0
N392 N 0.31252 0.98689 0.13157 0.0
N393 N 0.23654 0.97693 0.81831 0.0
H394 H 0.15138 0.86459 0.97206 0.0
H395 H 0.15279 0.89578 0.87934 0.0
H396 H 0.25662 0.00715 0.77557 0.0
H397 H 0.21157 0.94037 0.79107 0.0
H398 H 0.34839 0.01894 0.15045 0.0
H399 H 0.30067 0.9524 0.16576 0.0
H400 H 0.34493 0.08702 0.11575 0.0
H401 H 0.34654 0.11917 0.02437 0.0
C402 C 0.26875 0.27235 0.57412 0.0
C403 C 0.29839 0.25173 0.53508 0.0
C404 C 0.2844 0.28148 0.40088 0.0
C405 C 0.24797 0.29408 0.43867 0.0
N406 N 0.19947 0.29456 0.56 0.0
N407 N 0.33038 0.23173 0.40942 0.0
C408 C 0.23865 0.28792 0.52508 0.0
C409 C 0.30556 0.25529 0.44793 0.0
N410 N 0.27078 0.27871 0.65801 0.0
N411 N 0.30004 0.296 0.32079 0.0
H412 H 0.34729 0.21278 0.44105 0.0
H413 H 0.33072 0.22745 0.34554 0.0
H414 H 0.28612 0.3161 0.28471 0.0
H415 H 0.33059 0.29277 0.29271 0.0
H416 H 0.25391 0.29812 0.68903 0.0
H417 H 0.29433 0.26988 0.69564 0.0
H418 H 0.18721 0.28477 0.62117 0.0
H419 H 0.17581 0.3052 0.52623 0.0
C420 C 0.94206 0.25738 0.03118 0.0
C421 C 0.94506 0.2566 0.94368 0.0
C422 C 0.04136 0.29473 0.95102 0.0
C423 C 0.03876 0.29864 0.03819 0.0
N424 N -0.01156 0.29677 0.15857 0.0
N425 N -0.00158 0.28708 0.81987 0.0
C426 C -0.01039 0.28396 0.07752 0.0
C427 C -0.00494 0.27923 0.90344 0.0
N428 N 0.89415 0.23048 0.07047 0.0
N429 N 0.08716 0.3031 0.91382 0.0
H430 H 0.96544 0.27761 0.78335 0.0
H431 H 0.03429 0.30798 0.78827 0.0
H432 H 0.12182 0.31346 0.94628 0.0
H433 H 0.08941 0.295 0.85165 0.0
H434 H 0.89035 0.22489 0.13423 0.0
H435 H 0.85832 0.20965 0.03916 0.0
H436 H 0.95427 0.2916 0.18801 0.0
H437 H 0.02257 0.31765 0.19402 0.0
C438 C 0.68061 0.94281 0.53974 0.0
C439 C 0.6834 0.94684 0.45213 0.0
C440 C 0.7363 0.04349 0.46202 0.0
C441 C 0.73097 0.03962 0.54925 0.0
N442 N 0.68877 0.98713 0.67044 0.0
N443 N 0.70167 0.001 0.33031 0.0
C444 C 0.70031 0.98968 0.58797 0.0
C445 C 0.70764 -0.00276 0.41334 0.0
N446 N 0.66136 0.89459 0.57712 0.0
N447 N 0.77049 0.09087 0.42571 0.0
H448 H 0.67932 0.96805 0.29298 0.0
H449 H 0.71406 0.03686 0.30012 0.0
H450 H 0.79271 0.12572 0.45913 0.0
H451 H 0.78036 0.09466 0.36318 0.0
H452 H 0.66447 0.89007 0.6403 0.0
H453 H 0.64587 0.85909 0.54459 0.0
H454 H 0.66202 0.95224 0.70041 0.0
H455 H 0.7021 0.02071 0.70756 0.0
loop_
_geom_bond_atom_site_label_1
_geom_bond_atom_site_label_2
_geom_bond_distance
_geom_bond_site_symmetry_2
_ccdc_geom_bond_type
Sc0 O3 2.025 . S
Sc0 O10 2.105 . S
Sc0 O13 2.105 . S
Sc0 O16 2.105 . S
Sc0 O19 2.105 . S
Sc1 O3 2.025 . S
Sc1 O11 2.105 . S
Sc1 O15 2.105 . S
Sc1 O17 2.105 . S
Sc1 O21 2.105 . S
Sc2 O3 2.025 . S
Sc2 O12 2.105 . S
Sc2 O14 2.105 . S
Sc2 O18 2.105 . S
Sc2 O20 2.105 . S
O3 Sc0 2.025 . S
O3 Sc1 2.025 . S
O3 Sc2 2.025 . S
C4 O10 1.268 . S
C4 O20 1.268 . S
C5 O11 1.268 . S
C5 O19 1.268 . S
C6 O12 1.268 . S
C6 O21 1.268 . S
C7 O13 1.268 . S
C7 O17 1.268 . S
C8 O14 1.268 . S
C8 O16 1.268 . S
C9 O15 1.268 . S
C9 O18 1.268 . S
O10 Sc0 2.105 . S
O10 C4 1.268 . S
O11 Sc1 2.105 . S
O11 C5 1.268 . S
O12 Sc2 2.105 . S
O12 C6 1.268 . S
O13 Sc0 2.105 . S
O13 C7 1.268 . S
O14 Sc2 2.105 . S
O14 C8 1.268 . S
O15 Sc1 2.105 . S
O15 C9 1.268 . S
O16 Sc0 2.105 . S
O16 C8 1.268 . S
O17 Sc1 2.105 . S
O17 C7 1.268 . S
O18 Sc2 2.105 . S
O18 C9 1.268 . S
O19 Sc0 2.105 . S
O19 C5 1.268 . S
O20 Sc2 2.105 . S
O20 C4 1.268 . S
O21 Sc1 2.105 . S
O21 C6 1.268 . S
Sc22 O25 2.025 . S
Sc22 O32 2.105 . S
Sc22 O35 2.105 . S
Sc22 O38 2.105 . S
Sc22 O41 2.105 . S
Sc23 O25 2.025 . S
Sc23 O33 2.105 . S
Sc23 O37 2.105 . S
Sc23 O39 2.105 . S
Sc23 O43 2.105 . S
Sc24 O25 2.025 . S
Sc24 O34 2.105 . S
Sc24 O36 2.105 . S
Sc24 O40 2.105 . S
Sc24 O42 2.105 . S
O25 Sc22 2.025 . S
O25 Sc23 2.025 . S
O25 Sc24 2.025 . S
C26 O32 1.268 . S
C26 O42 1.268 . S
C27 O33 1.268 . S
C27 O41 1.268 . S
C28 O34 1.268 . S
C28 O43 1.268 . S
C29 O35 1.268 . S
C29 O39 1.268 . S
C30 O36 1.268 . S
C30 O38 1.268 . S
C31 O37 1.268 . S
C31 O40 1.268 . S
O32 Sc22 2.105 . S
O32 C26 1.268 . S
O33 Sc23 2.105 . S
O33 C27 1.268 . S
O34 Sc24 2.105 . S
O34 C28 1.268 . S
O35 Sc22 2.105 . S
O35 C29 1.268 . S
O36 Sc24 2.105 . S
O36 C30 1.268 . S
O37 Sc23 2.105 . S
O37 C31 1.268 . S
O38 Sc22 2.105 . S
O38 C30 1.268 . S
O39 Sc23 2.105 . S
O39 C29 1.268 . S
O40 Sc24 2.105 . S
O40 C31 1.268 . S
O41 Sc22 2.105 . S
O41 C27 1.268 . S
O42 Sc24 2.105 . S
O42 C26 1.268 . S
O43 Sc23 2.105 . S
O43 C28 1.268 . S
Sc44 O47 2.025 . S
Sc44 O54 2.105 . S
Sc44 O57 2.105 . S
Sc44 O60 2.105 . S
Sc44 O63 2.105 . S
Sc45 O47 2.025 . S
Sc45 O55 2.105 . S
Sc45 O59 2.105 . S
Sc45 O61 2.105 . S
Sc45 O65 2.105 . S
Sc46 O47 2.025 . S
Sc46 O56 2.105 . S
Sc46 O58 2.105 . S
Sc46 O62 2.105 . S
Sc46 O64 2.105 . S
O47 Sc44 2.025 . S
O47 Sc45 2.025 . S
O47 Sc46 2.025 . S
C48 O54 1.268 . S
C48 O64 1.268 . S
C49 O55 1.268 . S
C49 O63 1.268 . S
C50 O56 1.268 . S
C50 O65 1.268 . S
C51 O57 1.268 . S
C51 O61 1.268 . S
C52 O58 1.268 . S
C52 O60 1.268 . S
C53 O59 1.268 . S
C53 O62 1.268 . S
O54 Sc44 2.105 . S
O54 C48 1.268 . S
O55 Sc45 2.105 . S
O55 C49 1.268 . S
O56 Sc46 2.105 . S
O56 C50 1.268 . S
O57 Sc44 2.105 . S
O57 C51 1.268 . S
O58 Sc46 2.105 . S
O58 C52 1.268 . S
O59 Sc45 2.105 . S
O59 C53 1.268 . S
O60 Sc44 2.105 . S
O60 C52 1.268 . S
O61 Sc45 2.105 . S
O61 C51 1.268 . S
O62 Sc46 2.105 . S
O62 C53 1.268 . S
O63 Sc44 2.105 . S
O63 C49 1.268 . S
O64 Sc46 2.105 . S
O64 C48 1.268 . S
O65 Sc45 2.105 . S
O65 C50 1.268 . S
Sc66 O69 2.025 . S
Sc66 O76 2.105 . S
Sc66 O79 2.105 . S
Sc66 O82 2.105 . S
Sc66 O85 2.105 . S
Sc67 O69 2.025 . S
Sc67 O77 2.105 . S
Sc67 O81 2.105 . S
Sc67 O83 2.105 . S
Sc67 O87 2.105 . S
Sc68 O69 2.025 . S
Sc68 O78 2.105 . S
Sc68 O80 2.105 . S
Sc68 O84 2.105 . S
Sc68 O86 2.105 . S
O69 Sc66 2.025 . S
O69 Sc67 2.025 . S
O69 Sc68 2.025 . S
C70 O76 1.268 . S
C70 O86 1.268 . S
C71 O77 1.268 . S
C71 O85 1.268 . S
C72 O78 1.268 . S
C72 O87 1.268 . S
C73 O79 1.268 . S
C73 O83 1.268 . S
C74 O80 1.268 . S
C74 O82 1.268 . S
C75 O81 1.268 . S
C75 O84 1.268 . S
O76 Sc66 2.105 . S
O76 C70 1.268 . S
O77 Sc67 2.105 . S
O77 C71 1.268 . S
O78 Sc68 2.105 . S
O78 C72 1.268 . S
O79 Sc66 2.105 . S
O79 C73 1.268 . S
O80 Sc68 2.105 . S
O80 C74 1.268 . S
O81 Sc67 2.105 . S
O81 C75 1.268 . S
O82 Sc66 2.105 . S
O82 C74 1.268 . S
O83 Sc67 2.105 . S
O83 C73 1.268 . S
O84 Sc68 2.105 . S
O84 C75 1.268 . S
O85 Sc66 2.105 . S
O85 C71 1.268 . S
O86 Sc68 2.105 . S
O86 C70 1.268 . S
O87 Sc67 2.105 . S
O87 C72 1.268 . S
Sc88 O91 2.025 . S
Sc88 O98 2.105 . S
Sc88 O101 2.105 . S
Sc88 O104 2.105 . S
Sc88 O107 2.105 . S
Sc89 O91 2.025 . S
Sc89 O99 2.105 . S
Sc89 O103 2.105 . S
Sc89 O105 2.105 . S
Sc89 O109 2.105 . S
Sc90 O91 2.025 . S
Sc90 O100 2.105 . S
Sc90 O102 2.105 . S
Sc90 O106 2.105 . S
Sc90 O108 2.105 . S
O91 Sc88 2.025 . S
O91 Sc89 2.025 . S
O91 Sc90 2.025 . S
C92 O98 1.268 . S
C92 O108 1.268 . S
C93 O99 1.268 . S
C93 O107 1.268 . S
C94 O100 1.268 . S
C94 O109 1.268 . S
C95 O101 1.268 . S
C95 O105 1.268 . S
C96 O102 1.268 . S
C96 O104 1.268 . S
C97 O103 1.268 . S
C97 O106 1.268 . S
O98 Sc88 2.105 . S
O98 C92 1.268 . S
O99 Sc89 2.105 . S
O99 C93 1.268 . S
O100 Sc90 2.105 . S
O100 C94 1.268 . S
O101 Sc88 2.105 . S
O101 C95 1.268 . S
O102 Sc90 2.105 . S
O102 C96 1.268 . S
O103 Sc89 2.105 . S
O103 C97 1.268 . S
O104 Sc88 2.105 . S
O104 C96 1.268 . S
O105 Sc89 2.105 . S
O105 C95 1.268 . S
O106 Sc90 2.105 . S
O106 C97 1.268 . S
O107 Sc88 2.105 . S
O107 C93 1.268 . S
O108 Sc90 2.105 . S
O108 C92 1.268 . S
O109 Sc89 2.105 . S
O109 C94 1.268 . S
Sc110 O113 2.025 . S
Sc110 O120 2.105 . S
Sc110 O123 2.105 . S
Sc110 O126 2.105 . S
Sc110 O129 2.105 . S
Sc111 O113 2.025 . S
Sc111 O121 2.105 . S
Sc111 O125 2.105 . S
Sc111 O127 2.105 . S
Sc111 O131 2.105 . S
Sc112 O113 2.025 . S
Sc112 O122 2.105 . S
Sc112 O124 2.105 . S
Sc112 O128 2.105 . S
Sc112 O130 2.105 . S
O113 Sc110 2.025 . S
O113 Sc111 2.025 . S
O113 Sc112 2.025 . S
C114 O120 1.268 . S
C114 O130 1.268 . S
C115 O121 1.268 . S
C115 O129 1.268 . S
C116 O122 1.268 . S
C116 O131 1.268 . S
C117 O123 1.268 . S
C117 O127 1.268 . S
C118 O124 1.268 . S
C118 O126 1.268 . S
C119 O125 1.268 . S
C119 O128 1.268 . S
O120 Sc110 2.105 . S
O120 C114 1.268 . S
O121 Sc111 2.105 . S
O121 C115 1.268 . S
O122 Sc112 2.105 . S
O122 C116 1.268 . S
O123 Sc110 2.105 . S
O123 C117 1.268 . S
O124 Sc112 2.105 . S
O124 C118 1.268 . S
O125 Sc111 2.105 . S
O125 C119 1.268 . S
O126 Sc110 2.105 . S
O126 C118 1.268 . S
O127 Sc111 2.105 . S
O127 C117 1.268 . S
O128 Sc112 2.105 . S
O128 C119 1.268 . S
O129 Sc110 2.105 . S
O129 C115 1.268 . S
O130 Sc112 2.105 . S
O130 C114 1.268 . S
O131 Sc111 2.105 . S
O131 C116 1.268 . S
C132 C133 1.363 . S
C132 C138 1.379 . S
C132 N140 1.356 . S
C133 C132 1.363 . S
C133 C139 1.363 . S
C134 C135 1.363 . S
C134 C139 1.379 . S
C134 N141 1.356 . S
C135 C134 1.363 . S
C135 C138 1.363 . S
N136 C138 1.356 . S
N136 H148 0.984 . S
N136 H149 0.985 . S
N137 C139 1.356 . S
N137 H142 0.984 . S
N137 H143 0.985 . S
C138 C132 1.379 . S
C138 C135 1.363 . S
C138 N136 1.356 . S
C139 C133 1.363 . S
C139 C134 1.379 . S
C139 N137 1.356 . S
N140 C132 1.356 . S
N140 H146 0.984 . S
N140 H147 0.984 . S
N141 C134 1.356 . S
N141 H144 0.984 . S
N141 H145 0.985 . S
H142 N137 0.984 . S
H143 N137 0.985 . S
H144 N141 0.984 . S
H145 N141 0.985 . S
H146 N140 0.984 . S
H147 N140 0.984 . S
H148 N136 0.984 . S
H149 N136 0.985 . S
C150 C151 1.363 . S
C150 C156 1.379 . S
C150 N158 1.356 . S
C151 C150 1.363 . S
C151 C157 1.363 . S
C152 C153 1.363 . S
C152 C157 1.379 . S
C152 N159 1.356 . S
C153 C152 1.363 . S
C153 C156 1.363 . S
N154 C156 1.356 . S
N154 H166 0.984 . S
N154 H167 0.985 . S
N155 C157 1.356 . S
N155 H160 0.984 . S
N155 H161 0.985 . S
C156 C150 1.379 . S
C156 C153 1.363 . S
C156 N154 1.356 . S
C157 C151 1.363 . S
C157 C152 1.379 . S
C157 N155 1.356 . S
N158 C150 1.356 . S
N158 H164 0.984 . S
N158 H165 0.984 . S
N159 C152 1.356 . S
N159 H162 0.984 . S
N159 H163 0.985 . S
H160 N155 0.984 . S
H161 N155 0.985 . S
H162 N159 0.984 . S
H163 N159 0.985 . S
H164 N158 0.984 . S
H165 N158 0.984 . S
H166 N154 0.984 . S
H167 N154 0.985 . S
C168 C169 1.363 . S
C168 C174 1.379 . S
C168 N176 1.356 . S
C169 C168 1.363 . S
C169 C175 1.363 . S
C170 C171 1.363 . S
C170 C175 1.379 . S
C170 N177 1.356 . S
C171 C170 1.363 . S
C171 C174 1.363 . S
N172 C174 1.356 . S
N172 H184 0.984 . S
N172 H185 0.985 . S
N173 C175 1.356 . S
N173 H178 0.984 . S
N173 H179 0.985 . S
C174 C168 1.379 . S
C174 C171 1.363 . S
C174 N172 1.356 . S
C175 C169 1.363 . S
C175 C170 1.379 . S
C175 N173 1.356 . S
N176 C168 1.356 . S
N176 H182 0.984 . S
N176 H183 0.984 . S
N177 C170 1.356 . S
N177 H180 0.984 . S
N177 H181 0.985 . S
H178 N173 0.984 . S
H179 N173 0.985 . S
H180 N177 0.984 . S
H181 N177 0.985 . S
H182 N176 0.984 . S
H183 N176 0.984 . S
H184 N172 0.984 . S
H185 N172 0.985 . S
C186 C187 1.363 . S
C186 C192 1.379 . S
C186 N194 1.356 . S
C187 C186 1.363 . S
C187 C193 1.363 . S
C188 C189 1.363 . S
C188 C193 1.379 . S
C188 N195 1.356 . S
C189 C188 1.363 . S
C189 C192 1.363 . S
N190 C192 1.356 . S
N190 H202 0.984 . S
N190 H203 0.985 . S
N191 C193 1.356 . S
N191 H196 0.984 . S
N191 H197 0.985 . S
C192 C186 1.379 . S
C192 C189 1.363 . S
C192 N190 1.356 . S
C193 C187 1.363 . S
C193 C188 1.379 . S
C193 N191 1.356 . S
N194 C186 1.356 . S
N194 H200 0.984 . S
N194 H201 0.984 . S
N195 C188 1.356 . S
N195 H198 0.984 . S
N195 H199 0.985 . S
H196 N191 0.984 . S
H197 N191 0.985 . S
H198 N195 0.984 . S
H199 N195 0.985 . S
H200 N194 0.984 . S
H201 N194 0.984 . S
H202 N190 0.984 . S
H203 N190 0.985 . S
C204 C205 1.363 . S
C204 C210 1.379 . S
C204 N212 1.356 . S
C205 C204 1.363 . S
C205 C211 1.363 . S
C206 C207 1.363 . S
C206 C211 1.379 . S
C206 N213 1.356 . S
C207 C206 1.363 . S
C207 C210 1.363 . S
N208 C210 1.356 . S
N208 H220 0.984 . S
N208 H221 0.985 . S
N209 C211 1.356 . S
N209 H214 0.984 . S
N209 H215 0.985 . S
C210 C204 1.379 . S
C210 C207 1.363 . S
C210 N208 1.356 . S
C211 C205 1.363 . S
C211 C206 1.379 . S
C211 N209 1.356 . S
N212 C204 1.356 . S
N212 H218 0.984 . S
N212 H219 0.984 . S
N213 C206 1.356 . S
N213 H216 0.984 . S
N213 H217 0.985 . S
H214 N209 0.984 . S
H215 N209 0.985 . S
H216 N213 0.984 . S
H217 N213 0.985 . S
H218 N212 0.984 . S
H219 N212 0.984 . S
H220 N208 0.984 . S
H221 N208 0.985 . S
C222 C223 1.363 . S
C222 C228 1.379 . S
C222 N230 1.356 . S
C223 C222 1.363 . S
C223 C229 1.363 . S
C224 C225 1.363 . S
C224 C229 1.379 . S
C224 N231 1.356 . S
C225 C224 1.363 . S
C225 C228 1.363 . S
N226 C228 1.356 . S
N226 H238 0.984 . S
N226 H239 0.985 . S
N227 C229 1.356 . S
N227 H232 0.984 . S
N227 H233 0.985 . S
C228 C222 1.379 . S
C228 C225 1.363 . S
C228 N226 1.356 . S
C229 C223 1.363 . S
C229 C224 1.379 . S
C229 N227 1.356 . S
N230 C222 1.356 . S
N230 H236 0.984 . S
N230 H237 0.984 . S
N231 C224 1.356 . S
N231 H234 0.984 . S
N231 H235 0.985 . S
H232 N227 0.984 . S
H233 N227 0.985 . S
H234 N231 0.984 . S
H235 N231 0.985 . S
H236 N230 0.984 . S
H237 N230 0.984 . S
H238 N226 0.984 . S
H239 N226 0.985 . S
C240 C241 1.363 . S
C240 C246 1.379 1_556 S
C240 N248 1.356 . S
C241 C240 1.363 . S
C241 C247 1.363 . S
C242 C243 1.363 . S
C242 C247 1.379 1_554 S
C242 N249 1.356 . S
C243 C242 1.363 . S
C243 C246 1.363 . S
N244 C246 1.356 . S
N244 H256 0.984 . S
N244 H257 0.985 . S
N245 C247 1.356 . S
N245 H250 0.984 . S
N245 H251 0.985 . S
C246 C240 1.379 1_554 S
C246 C243 1.363 . S
C246 N244 1.356 . S
C247 C241 1.363 . S
C247 C242 1.379 1_556 S
C247 N245 1.356 . S
N248 C240 1.356 . S
N248 H254 0.984 . S
N248 H255 0.984 . S
N249 C242 1.356 . S
N249 H252 0.984 . S
N249 H253 0.985 . S
H250 N245 0.984 . S
H251 N245 0.985 . S
H252 N249 0.984 . S
H253 N249 0.985 . S
H254 N248 0.984 . S
H255 N248 0.984 . S
H256 N244 0.984 . S
H257 N244 0.985 . S
C258 C259 1.363 . S
C258 C264 1.379 1_655 S
C258 N266 1.356 . S
C259 C258 1.363 . S
C259 C265 1.363 . S
C260 C261 1.363 . S
C260 C265 1.379 1_455 S
C260 N267 1.356 . S
C261 C260 1.363 . S
C261 C264 1.363 . S
N262 C264 1.356 . S
N262 H274 0.984 . S
N262 H275 0.985 . S
N263 C265 1.356 . S
N263 H268 0.984 . S
N263 H269 0.985 . S
C264 C258 1.379 1_455 S
C264 C261 1.363 . S
C264 N262 1.356 . S
C265 C259 1.363 . S
C265 C260 1.379 1_655 S
C265 N263 1.356 . S
N266 C258 1.356 . S
N266 H272 0.984 . S
N266 H273 0.984 . S
N267 C260 1.356 . S
N267 H270 0.984 . S
N267 H271 0.985 . S
H268 N263 0.984 . S
H269 N263 0.985 . S
H270 N267 0.984 . S
H271 N267 0.985 . S
H272 N266 0.984 . S
H273 N266 0.984 . S
H274 N262 0.984 . S
H275 N262 0.985 . S
C276 C277 1.363 1_554 S
C276 C282 1.379 1_545 S
C276 N284 1.356 1_554 S
C277 C276 1.363 1_556 S
C277 C283 1.363 . S
C278 C279 1.363 1_556 S
C278 C283 1.379 1_565 S
C278 N285 1.356 1_556 S
C279 C278 1.363 1_554 S
C279 C282 1.363 . S
N280 C282 1.356 . S
N280 H292 0.985 . S
N280 H293 0.985 . S
N281 C283 1.356 . S
N281 H286 0.984 . S
N281 H287 0.985 . S
C282 C276 1.379 1_565 S
C282 C279 1.363 . S
C282 N280 1.356 . S
C283 C277 1.363 . S
C283 C278 1.379 1_545 S
C283 N281 1.356 . S
N284 C276 1.356 1_556 S
N284 H290 0.984 1_556 S
N284 H291 0.984 . S
N285 C278 1.356 1_554 S
N285 H288 0.984 . S
N285 H289 0.985 1_554 S
H286 N281 0.984 . S
H287 N281 0.985 . S
H288 N285 0.984 . S
H289 N285 0.985 1_556 S
H290 N284 0.984 1_554 S
H291 N284 0.984 . S
H292 N280 0.985 . S
H293 N280 0.985 . S
C294 C295 1.363 . S
C294 C300 1.379 . S
C294 N302 1.356 . S
C295 C294 1.363 . S
C295 C301 1.363 . S
C296 C297 1.363 . S
C296 C301 1.379 . S
C296 N303 1.356 . S
C297 C296 1.363 . S
C297 C300 1.363 . S
N298 C300 1.356 . S
N298 H310 0.984 . S
N298 H311 0.985 . S
N299 C301 1.356 . S
N299 H304 0.984 . S
N299 H305 0.985 . S
C300 C294 1.379 . S
C300 C297 1.363 . S
C300 N298 1.356 . S
C301 C295 1.363 . S
C301 C296 1.379 . S
C301 N299 1.356 . S
N302 C294 1.356 . S
N302 H308 0.984 . S
N302 H309 0.984 . S
N303 C296 1.356 . S
N303 H306 0.984 . S
N303 H307 0.985 . S
H304 N299 0.984 . S
H305 N299 0.985 . S
H306 N303 0.984 . S
H307 N303 0.985 . S
H308 N302 0.984 . S
H309 N302 0.984 . S
H310 N298 0.984 . S
H311 N298 0.985 . S
C312 C313 1.363 1_455 S
C312 C318 1.379 . S
C312 N320 1.356 1_455 S
C313 C312 1.363 1_655 S
C313 C319 1.363 1_556 S
C314 C315 1.363 1_655 S
C314 C319 1.379 . S
C314 N321 1.356 1_655 S
C315 C314 1.363 1_455 S
C315 C318 1.363 1_554 S
N316 C318 1.356 . S
N316 H328 0.984 . S
N316 H329 0.985 1_556 S
N317 C319 1.356 . S
N317 H322 0.984 1_554 S
N317 H323 0.985 . S
C318 C312 1.379 . S
C318 C315 1.363 1_556 S
C318 N316 1.356 . S
C319 C313 1.363 1_554 S
C319 C314 1.379 . S
C319 N317 1.356 . S
N320 C312 1.356 1_655 S
N320 H326 0.984 1_655 S
N320 H327 0.984 . S
N321 C314 1.356 1_455 S
N321 H324 0.984 . S
N321 H325 0.985 1_455 S
H322 N317 0.984 1_556 S
H323 N317 0.985 . S
H324 N321 0.984 . S
H325 N321 0.985 1_655 S
H326 N320 0.984 1_455 S
H327 N320 0.984 . S
H328 N316 0.984 . S
H329 N316 0.985 1_554 S
C330 C331 1.363 1_565 S
C330 C336 1.379 . S
C330 N338 1.356 1_565 S
C331 C330 1.363 1_545 S
C331 C337 1.363 . S
C332 C333 1.363 1_545 S
C332 C337 1.379 . S
C332 N339 1.356 1_545 S
C333 C332 1.363 1_565 S
C333 C336 1.363 . S
N334 C336 1.356 . S
N334 H346 0.984 . S
N334 H347 0.985 . S
N335 C337 1.356 . S
N335 H340 0.984 . S
N335 H341 0.985 . S
C336 C330 1.379 . S
C336 C333 1.363 . S
C336 N334 1.356 . S
C337 C331 1.363 . S
C337 C332 1.379 . S
C337 N335 1.356 . S
N338 C330 1.356 1_545 S
N338 H344 0.984 1_545 S
N338 H345 0.984 . S
N339 C332 1.356 1_565 S
N339 H342 0.984 . S
N339 H343 0.985 1_565 S
H340 N335 0.984 . S
H341 N335 0.985 . S
H342 N339 0.984 . S
H343 N339 0.985 1_545 S
H344 N338 0.984 1_565 S
H345 N338 0.984 . S
H346 N334 0.984 . S
H347 N334 0.985 . S
C348 C349 1.363 1_556 S
C348 C354 1.379 . S
C348 N356 1.356 . S
C349 C348 1.363 1_554 S
C349 C355 1.363 . S
C350 C351 1.363 1_554 S
C350 C355 1.379 . S
C350 N357 1.356 . S
C351 C350 1.363 1_556 S
C351 C354 1.363 . S
N352 C354 1.356 . S
N352 H364 0.984 . S
N352 H365 0.985 . S
N353 C355 1.356 . S
N353 H358 0.984 . S
N353 H359 0.985 . S
C354 C348 1.379 . S
C354 C351 1.363 . S
C354 N352 1.356 . S
C355 C349 1.363 . S
C355 C350 1.379 . S
C355 N353 1.356 . S
N356 C348 1.356 . S
N356 H362 0.984 . S
N356 H363 0.984 1_556 S
N357 C350 1.356 . S
N357 H360 0.984 1_554 S
N357 H361 0.985 . S
H358 N353 0.984 . S
H359 N353 0.985 . S
H360 N357 0.984 1_556 S
H361 N357 0.985 . S
H362 N356 0.984 . S
H363 N356 0.984 1_554 S
H364 N352 0.984 . S
H365 N352 0.985 . S
C366 C367 1.363 . S
C366 C372 1.379 1_655 S
C366 N374 1.356 . S
C367 C366 1.363 . S
C367 C373 1.363 . S
C368 C369 1.363 . S
C368 C373 1.379 1_455 S
C368 N375 1.356 . S
C369 C368 1.363 . S
C369 C372 1.363 . S
N370 C372 1.356 . S
N370 H382 0.984 . S
N370 H383 0.985 . S
N371 C373 1.356 . S
N371 H376 0.984 . S
N371 H377 0.985 . S
C372 C366 1.379 1_455 S
C372 C369 1.363 . S
C372 N370 1.356 . S
C373 C367 1.363 . S
C373 C368 1.379 1_655 S
C373 N371 1.356 . S
N374 C366 1.356 . S
N374 H380 0.984 . S
N374 H381 0.984 . S
N375 C368 1.356 . S
N375 H378 0.984 . S
N375 H379 0.985 . S
H376 N371 0.984 . S
H377 N371 0.985 . S
H378 N375 0.984 . S
H379 N375 0.985 . S
H380 N374 0.984 . S
H381 N374 0.984 . S
H382 N370 0.984 . S
H383 N370 0.985 . S
C384 C385 1.363 1_545 S
C384 C390 1.379 . S
C384 N392 1.356 1_545 S
C385 C384 1.363 1_565 S
C385 C391 1.363 1_554 S
C386 C387 1.363 1_565 S
C386 C391 1.379 . S
C386 N393 1.356 1_565 S
C387 C386 1.363 1_545 S
C387 C390 1.363 1_556 S
N388 C390 1.356 . S
N388 H400 0.984 . S
N388 H401 0.985 1_554 S
N389 C391 1.356 . S
N389 H394 0.984 1_556 S
N389 H395 0.985 . S
C390 C384 1.379 . S
C390 C387 1.363 1_554 S
C390 N388 1.356 . S
C391 C385 1.363 1_556 S
C391 C386 1.379 . S
C391 N389 1.356 . S
N392 C384 1.356 1_565 S
N392 H398 0.984 1_565 S
N392 H399 0.984 . S
N393 C386 1.356 1_545 S
N393 H396 0.984 . S
N393 H397 0.985 1_545 S
H394 N389 0.984 1_554 S
H395 N389 0.985 . S
H396 N393 0.984 . S
H397 N393 0.985 1_565 S
H398 N392 0.984 1_545 S
H399 N392 0.984 . S
H400 N388 0.984 . S
H401 N388 0.985 1_556 S
C402 C403 1.363 . S
C402 C408 1.379 . S
C402 N410 1.356 . S
C403 C402 1.363 . S
C403 C409 1.363 . S
C404 C405 1.363 . S
C404 C409 1.379 . S
C404 N411 1.356 . S
C405 C404 1.363 . S
C405 C408 1.363 . S
N406 C408 1.356 . S
N406 H418 0.984 . S
N406 H419 0.985 . S
N407 C409 1.356 . S
N407 H412 0.984 . S
N407 H413 0.985 . S
C408 C402 1.379 . S
C408 C405 1.363 . S
C408 N406 1.356 . S
C409 C403 1.363 . S
C409 C404 1.379 . S
C409 N407 1.356 . S
N410 C402 1.356 . S
N410 H416 0.984 . S
N410 H417 0.984 . S
N411 C404 1.356 . S
N411 H414 0.984 . S
N411 H415 0.985 . S
H412 N407 0.984 . S
H413 N407 0.985 . S
H414 N411 0.984 . S
H415 N411 0.985 . S
H416 N410 0.984 . S
H417 N410 0.984 . S
H418 N406 0.984 . S
H419 N406 0.985 . S
C420 C421 1.363 1_554 S
C420 C426 1.379 . S
C420 N428 1.356 . S
C421 C420 1.363 1_556 S
C421 C427 1.363 1_655 S
C422 C423 1.363 1_556 S
C422 C427 1.379 . S
C422 N429 1.356 . S
C423 C422 1.363 1_554 S
C423 C426 1.363 1_455 S
N424 C426 1.356 1_455 S
N424 H436 0.984 1_455 S
N424 H437 0.985 . S
N425 C427 1.356 1_655 S
N425 H430 0.984 . S
N425 H431 0.985 1_655 S
C426 C420 1.379 . S
C426 C423 1.363 1_655 S
C426 N424 1.356 1_655 S
C427 C421 1.363 1_455 S
C427 C422 1.379 . S
C427 N425 1.356 1_455 S
N428 C420 1.356 . S
N428 H434 0.984 . S
N428 H435 0.984 1_554 S
N429 C422 1.356 . S
N429 H432 0.984 1_556 S
N429 H433 0.985 . S
H430 N425 0.984 . S
H431 N425 0.985 1_455 S
H432 N429 0.984 1_554 S
H433 N429 0.985 . S
H434 N428 0.984 . S
H435 N428 0.984 1_556 S
H436 N424 0.984 1_655 S
H437 N424 0.985 . S
C438 C439 1.363 . S
C438 C444 1.379 . S
C438 N446 1.356 . S
C439 C438 1.363 . S
C439 C445 1.363 1_565 S
C440 C441 1.363 . S
C440 C445 1.379 . S
C440 N447 1.356 . S
C441 C440 1.363 . S
C441 C444 1.363 1_545 S
N442 C444 1.356 1_545 S
N442 H454 0.984 1_545 S
N442 H455 0.985 . S
N443 C445 1.356 1_565 S
N443 H448 0.984 . S
N443 H449 0.985 1_565 S
C444 C438 1.379 . S
C444 C441 1.363 1_565 S
C444 N442 1.356 1_565 S
C445 C439 1.363 1_545 S
C445 C440 1.379 . S
C445 N443 1.356 1_545 S
N446 C438 1.356 . S
N446 H452 0.984 . S
N446 H453 0.984 . S
N447 C440 1.356 . S
N447 H450 0.984 . S
N447 H451 0.985 . S
H448 N443 0.984 . S
H449 N443 0.985 1_545 S
H450 N447 0.984 . S
H451 N447 0.985 . S
H452 N446 0.984 . S
H453 N446 0.984 . S
H454 N442 0.984 1_565 S
H455 N442 0.985 . S
C133 C5 1.388 . S
C135 C94 1.388 . S
C151 C28 1.388 . S
C153 C116 1.388 . S
C169 C7 1.388 . S
C171 C50 1.388 . S
C187 C72 1.388 . S
C189 C31 1.388 . S
C205 C53 1.388 . S
C207 C97 1.388 . S
C223 C75 1.388 . S
C225 C119 1.388 . S
C241 C117 1.540 . S
C243 C8 1.540 . S
C259 C29 1.540 . S
C261 C6 1.540 . S
C277 C26 1.540 . S
C279 C51 1.540 . S
C295 C48 1.540 . S
C297 C73 1.540 . S
C313 C70 1.540 . S
C315 C92 1.540 . S
C331 C114 1.540 . S
C333 C95 1.540 . S
C349 C49 1.540 . S
C351 C74 1.540 . S
C367 C71 1.540 . S
C369 C93 1.540 . S
C385 C96 1.540 . S
C387 C115 1.540 . S
C403 C118 1.540 . S
C405 C9 1.540 . S
C421 C30 1.540 . S
C423 C4 1.540 . S
C439 C52 1.540 . S
C441 C27 1.540 . S
