# Generated by pormake.
# Topology wip, (6)-cn, num edge types: 1
# Building blocks:
#     Node 0, Type 0, BuildingBlock: BETFEN_clean_sbu_0, # of connection points: 6
#     Node 1, Type 0, BuildingBlock: BETFEN_clean_sbu_0, # of connection points: 6
#     Node 2, Type 0, BuildingBlock: BETFEN_clean_sbu_0, # of connection points: 6
#     Node 3, Type 0, BuildingBlock: BETFEN_clean_sbu_0, # of connection points: 6
#     Node 4, Type 0, BuildingBlock: BETFEN_clean_sbu_0, # of connection points: 6
#     Node 5, Type 0, BuildingBlock: BETFEN_clean_sbu_0, # of connection points: 6
#     Node 6, Type 0, BuildingBlock: BETFEN_clean_sbu_0, # of connection points: 6
#     Node 7, Type 0, BuildingBlock: BETFEN_clean_sbu_0, # of connection points: 6
#     Node 8, Type 0, BuildingBlock: BETFEN_clean_sbu_0, # of connection points: 6
#     Node 9, Type 0, BuildingBlock: BETFEN_clean_sbu_0, # of connection points: 6
#     Node 10, Type 0, BuildingBlock: BETFEN_clean_sbu_0, # of connection points: 6
#     Node 11, Type 0, BuildingBlock: BETFEN_clean_sbu_0, # of connection points: 6
#     Node 12, Type 0, BuildingBlock: BETFEN_clean_sbu_0, # of connection points: 6
#     Node 13, Type 0, BuildingBlock: BETFEN_clean_sbu_0, # of connection points: 6
#     Node 14, Type 0, BuildingBlock: BETFEN_clean_sbu_0, # of connection points: 6
#     Node 15, Type 0, BuildingBlock: BETFEN_clean_sbu_0, # of connection points: 6
#     Node 16, Type 0, BuildingBlock: BETFEN_clean_sbu_0, # of connection points: 6
#     Node 17, Type 0, BuildingBlock: BETFEN_clean_sbu_0, # of connection points: 6
#     Node 18, Type 0, BuildingBlock: BETFEN_clean_sbu_0, # of connection points: 6
#     Node 19, Type 0, BuildingBlock: BETFEN_clean_sbu_0, # of connection points: 6
#     Node 20, Type 0, BuildingBlock: BETFEN_clean_sbu_0, # of connection points: 6
#     Node 21, Type 0, BuildingBlock: BETFEN_clean_sbu_0, # of connection points: 6
#     Node 22, Type 0, BuildingBlock: BETFEN_clean_sbu_0, # of connection points: 6
#     Node 23, Type 0, BuildingBlock: BETFEN_clean_sbu_0, # of connection points: 6
#     Node 24, Type 0, BuildingBlock: BETFEN_clean_sbu_0, # of connection points: 6
#     Node 25, Type 0, BuildingBlock: BETFEN_clean_sbu_0, # of connection points: 6
#     Node 26, Type 0, BuildingBlock: BETFEN_clean_sbu_0, # of connection points: 6
#     Node 27, Type 0, BuildingBlock: BETFEN_clean_sbu_0, # of connection points: 6
#     Node 28, Type 0, BuildingBlock: BETFEN_clean_sbu_0, # of connection points: 6
#     Node 29, Type 0, BuildingBlock: BETFEN_clean_sbu_0, # of connection points: 6
#     Node 30, Type 0, BuildingBlock: BETFEN_clean_sbu_0, # of connection points: 6
#     Node 31, Type 0, BuildingBlock: BETFEN_clean_sbu_0, # of connection points: 6
#     Edge 32, Type (0, 0), BuildingBlock: CIFDUS_clean_linker_0, # of connection points: 2
#     Edge 33, Type (0, 0), BuildingBlock: CIFDUS_clean_linker_0, # of connection points: 2
#     Edge 34, Type (0, 0), BuildingBlock: CIFDUS_clean_linker_0, # of connection points: 2
#     Edge 35, Type (0, 0), BuildingBlock: CIFDUS_clean_linker_0, # of connection points: 2
#     Edge 36, Type (0, 0), BuildingBlock: CIFDUS_clean_linker_0, # of connection points: 2
#     Edge 37, Type (0, 0), BuildingBlock: CIFDUS_clean_linker_0, # of connection points: 2
#     Edge 38, Type (0, 0), BuildingBlock: CIFDUS_clean_linker_0, # of connection points: 2
#     Edge 39, Type (0, 0), BuildingBlock: CIFDUS_clean_linker_0, # of connection points: 2
#     Edge 40, Type (0, 0), BuildingBlock: CIFDUS_clean_linker_0, # of connection points: 2
#     Edge 41, Type (0, 0), BuildingBlock: CIFDUS_clean_linker_0, # of connection points: 2
#     Edge 42, Type (0, 0), BuildingBlock: CIFDUS_clean_linker_0, # of connection points: 2
#     Edge 43, Type (0, 0), BuildingBlock: CIFDUS_clean_linker_0, # of connection points: 2
#     Edge 44, Type (0, 0), BuildingBlock: CIFDUS_clean_linker_0, # of connection points: 2
#     Edge 45, Type (0, 0), BuildingBlock: CIFDUS_clean_linker_0, # of connection points: 2
#     Edge 46, Type (0, 0), BuildingBlock: CIFDUS_clean_linker_0, # of connection points: 2
#     Edge 47, Type (0, 0), BuildingBlock: CIFDUS_clean_linker_0, # of connection points: 2
#     Edge 48, Type (0, 0), BuildingBlock: CIFDUS_clean_linker_0, # of connection points: 2
#     Edge 49, Type (0, 0), BuildingBlock: CIFDUS_clean_linker_0, # of connection points: 2
#     Edge 50, Type (0, 0), BuildingBlock: CIFDUS_clean_linker_0, # of connection points: 2
#     Edge 51, Type (0, 0), BuildingBlock: CIFDUS_clean_linker_0, # of connection points: 2
#     Edge 52, Type (0, 0), BuildingBlock: CIFDUS_clean_linker_0, # of connection points: 2
#     Edge 53, Type (0, 0), BuildingBlock: CIFDUS_clean_linker_0, # of connection points: 2
#     Edge 54, Type (0, 0), BuildingBlock: CIFDUS_clean_linker_0, # of connection points: 2
#     Edge 55, Type (0, 0), BuildingBlock: CIFDUS_clean_linker_0, # of connection points: 2
#     Edge 56, Type (0, 0), BuildingBlock: CIFDUS_clean_linker_0, # of connection points: 2
#     Edge 57, Type (0, 0), BuildingBlock: CIFDUS_clean_linker_0, # of connection points: 2
#     Edge 58, Type (0, 0), BuildingBlock: CIFDUS_clean_linker_0, # of connection points: 2
#     Edge 59, Type (0, 0), BuildingBlock: CIFDUS_clean_linker_0, # of connection points: 2
#     Edge 60, Type (0, 0), BuildingBlock: CIFDUS_clean_linker_0, # of connection points: 2
#     Edge 61, Type (0, 0), BuildingBlock: CIFDUS_clean_linker_0, # of connection points: 2
#     Edge 62, Type (0, 0), BuildingBlock: CIFDUS_clean_linker_0, # of connection points: 2
#     Edge 63, Type (0, 0), BuildingBlock: CIFDUS_clean_linker_0, # of connection points: 2
#     Edge 64, Type (0, 0), BuildingBlock: CIFDUS_clean_linker_0, # of connection points: 2
#     Edge 65, Type (0, 0), BuildingBlock: CIFDUS_clean_linker_0, # of connection points: 2
#     Edge 66, Type (0, 0), BuildingBlock: CIFDUS_clean_linker_0, # of connection points: 2
#     Edge 67, Type (0, 0), BuildingBlock: CIFDUS_clean_linker_0, # of connection points: 2
#     Edge 68, Type (0, 0), BuildingBlock: CIFDUS_clean_linker_0, # of connection points: 2
#     Edge 69, Type (0, 0), BuildingBlock: CIFDUS_clean_linker_0, # of connection points: 2
#     Edge 70, Type (0, 0), BuildingBlock: CIFDUS_clean_linker_0, # of connection points: 2
#     Edge 71, Type (0, 0), BuildingBlock: CIFDUS_clean_linker_0, # of connection points: 2
#     Edge 72, Type (0, 0), BuildingBlock: CIFDUS_clean_linker_0, # of connection points: 2
#     Edge 73, Type (0, 0), BuildingBlock: CIFDUS_clean_linker_0, # of connection points: 2
#     Edge 74, Type (0, 0), BuildingBlock: CIFDUS_clean_linker_0, # of connection points: 2
#     Edge 75, Type (0, 0), BuildingBlock: CIFDUS_clean_linker_0, # of connection points: 2
#     Edge 76, Type (0, 0), BuildingBlock: CIFDUS_clean_linker_0, # of connection points: 2
#     Edge 77, Type (0, 0), BuildingBlock: CIFDUS_clean_linker_0, # of connection points: 2
#     Edge 78, Type (0, 0), BuildingBlock: CIFDUS_clean_linker_0, # of connection points: 2
#     Edge 79, Type (0, 0), BuildingBlock: CIFDUS_clean_linker_0, # of connection points: 2
#     Edge 80, Type (0, 0), BuildingBlock: CIFDUS_clean_linker_0, # of connection points: 2
#     Edge 81, Type (0, 0), BuildingBlock: CIFDUS_clean_linker_0, # of connection points: 2
#     Edge 82, Type (0, 0), BuildingBlock: CIFDUS_clean_linker_0, # of connection points: 2
#     Edge 83, Type (0, 0), BuildingBlock: CIFDUS_clean_linker_0, # of connection points: 2
#     Edge 84, Type (0, 0), BuildingBlock: CIFDUS_clean_linker_0, # of connection points: 2
#     Edge 85, Type (0, 0), BuildingBlock: CIFDUS_clean_linker_0, # of connection points: 2
#     Edge 86, Type (0, 0), BuildingBlock: CIFDUS_clean_linker_0, # of connection points: 2
#     Edge 87, Type (0, 0), BuildingBlock: CIFDUS_clean_linker_0, # of connection points: 2
#     Edge 88, Type (0, 0), BuildingBlock: CIFDUS_clean_linker_0, # of connection points: 2
#     Edge 89, Type (0, 0), BuildingBlock: CIFDUS_clean_linker_0, # of connection points: 2
#     Edge 90, Type (0, 0), BuildingBlock: CIFDUS_clean_linker_0, # of connection points: 2
#     Edge 91, Type (0, 0), BuildingBlock: CIFDUS_clean_linker_0, # of connection points: 2
#     Edge 92, Type (0, 0), BuildingBlock: CIFDUS_clean_linker_0, # of connection points: 2
#     Edge 93, Type (0, 0), BuildingBlock: CIFDUS_clean_linker_0, # of connection points: 2
#     Edge 94, Type (0, 0), BuildingBlock: CIFDUS_clean_linker_0, # of connection points: 2
#     Edge 95, Type (0, 0), BuildingBlock: CIFDUS_clean_linker_0, # of connection points: 2
#     Edge 96, Type (0, 0), BuildingBlock: CIFDUS_clean_linker_0, # of connection points: 2
#     Edge 97, Type (0, 0), BuildingBlock: CIFDUS_clean_linker_0, # of connection points: 2
#     Edge 98, Type (0, 0), BuildingBlock: CIFDUS_clean_linker_0, # of connection points: 2
#     Edge 99, Type (0, 0), BuildingBlock: CIFDUS_clean_linker_0, # of connection points: 2
#     Edge 100, Type (0, 0), BuildingBlock: CIFDUS_clean_linker_0, # of connection points: 2
#     Edge 101, Type (0, 0), BuildingBlock: CIFDUS_clean_linker_0, # of connection points: 2
#     Edge 102, Type (0, 0), BuildingBlock: CIFDUS_clean_linker_0, # of connection points: 2
#     Edge 103, Type (0, 0), BuildingBlock: CIFDUS_clean_linker_0, # of connection points: 2
#     Edge 104, Type (0, 0), BuildingBlock: CIFDUS_clean_linker_0, # of connection points: 2
#     Edge 105, Type (0, 0), BuildingBlock: CIFDUS_clean_linker_0, # of connection points: 2
#     Edge 106, Type (0, 0), BuildingBlock: CIFDUS_clean_linker_0, # of connection points: 2
#     Edge 107, Type (0, 0), BuildingBlock: CIFDUS_clean_linker_0, # of connection points: 2
#     Edge 108, Type (0, 0), BuildingBlock: CIFDUS_clean_linker_0, # of connection points: 2
#     Edge 109, Type (0, 0), BuildingBlock: CIFDUS_clean_linker_0, # of connection points: 2
#     Edge 110, Type (0, 0), BuildingBlock: CIFDUS_clean_linker_0, # of connection points: 2
#     Edge 111, Type (0, 0), BuildingBlock: CIFDUS_clean_linker_0, # of connection points: 2
#     Edge 112, Type (0, 0), BuildingBlock: CIFDUS_clean_linker_0, # of connection points: 2
#     Edge 113, Type (0, 0), BuildingBlock: CIFDUS_clean_linker_0, # of connection points: 2
#     Edge 114, Type (0, 0), BuildingBlock: CIFDUS_clean_linker_0, # of connection points: 2
#     Edge 115, Type (0, 0), BuildingBlock: CIFDUS_clean_linker_0, # of connection points: 2
#     Edge 116, Type (0, 0), BuildingBlock: CIFDUS_clean_linker_0, # of connection points: 2
#     Edge 117, Type (0, 0), BuildingBlock: CIFDUS_clean_linker_0, # of connection points: 2
#     Edge 118, Type (0, 0), BuildingBlock: CIFDUS_clean_linker_0, # of connection points: 2
#     Edge 119, Type (0, 0), BuildingBlock: CIFDUS_clean_linker_0, # of connection points: 2
#     Edge 120, Type (0, 0), BuildingBlock: CIFDUS_clean_linker_0, # of connection points: 2
#     Edge 121, Type (0, 0), BuildingBlock: CIFDUS_clean_linker_0, # of connection points: 2
#     Edge 122, Type (0, 0), BuildingBlock: CIFDUS_clean_linker_0, # of connection points: 2
#     Edge 123, Type (0, 0), BuildingBlock: CIFDUS_clean_linker_0, # of connection points: 2
#     Edge 124, Type (0, 0), BuildingBlock: CIFDUS_clean_linker_0, # of connection points: 2
#     Edge 125, Type (0, 0), BuildingBlock: CIFDUS_clean_linker_0, # of connection points: 2
#     Edge 126, Type (0, 0), BuildingBlock: CIFDUS_clean_linker_0, # of connection points: 2
#     Edge 127, Type (0, 0), BuildingBlock: CIFDUS_clean_linker_0, # of connection points: 2
# Relax obj value: 0.374
# Max RMSD: 0.317
# Mean RMSD: 0.245
data_MOF--net-wip--node1-BETFEN_clean_sbu_0--edge1-CIFDUS_clean_linker_0
_symmetry_space_group_name_H-M    P1
_symmetry_Int_Tables_number       1
_symmetry_cell_setting            triclinic
loop_
_symmetry_equiv_pos_as_xyz
'x, y, z'
_cell_length_a     57.67629
_cell_length_b     54.726688
_cell_length_c     31.958532
_cell_angle_alpha  84.762992
_cell_angle_beta   94.866815
_cell_angle_gamma 88.284868
loop_
_atom_site_label
_atom_site_type_symbol
_atom_site_fract_x
_atom_site_fract_y
_atom_site_fract_z
_atom_type_partial_charge
Pr0 Pr 0.06258 0.40392 0.17081 0.0
Pr1 Pr 0.09474 0.43229 0.11668 0.0
C2 C 0.04369 0.37601 0.23196 0.0
C3 C 0.04585 0.37177 0.27801 0.0
C4 C 0.0274 0.3612 0.29787 0.0
C5 C 0.02719 0.36033 0.34152 0.0
C6 C 0.0455 0.36996 0.36599 0.0
C7 C 0.06466 0.37936 0.34629 0.0
C8 C 0.06472 0.3805 0.30235 0.0
C9 C 0.03988 0.44634 0.13027 0.0
C10 C 0.09347 0.44971 0.2092 0.0
C11 C 0.11521 0.45667 0.05219 0.0
C12 C 0.10938 0.4681 1.00796 0.0
C13 C 0.12699 0.47813 0.98457 0.0
C14 C 0.12176 0.49006 0.94368 0.0
C15 C 0.09868 0.49238 0.92475 0.0
C16 C 0.08112 0.48185 0.94821 0.0
C17 C 0.08638 0.47001 0.98917 0.0
C18 C 0.11729 0.39722 0.18023 0.0
C19 C 0.05179 0.40061 0.07074 0.0
O20 O 0.06095 0.36818 0.2121 0.0
O21 O 0.03526 0.39768 0.21664 0.0
O22 O 0.06101 0.44485 0.14506 0.0
O23 O 0.03093 0.42481 0.1324 0.0
O24 O 0.09851 0.45727 0.17083 0.0
O25 O 0.08172 0.42963 0.21757 0.0
O26 O 0.10626 0.46746 0.08236 0.0
O27 O 0.11545 0.43265 0.05882 0.0
O28 O 0.09927 0.3939 0.15576 0.0
O29 O 0.12593 0.41795 0.16742 0.0
O30 O 0.05042 0.38766 0.1073 0.0
O31 O 0.06562 0.41931 0.06819 0.0
H32 H 0.01268 0.35451 0.27945 0.0
H33 H 0.01236 0.35277 0.35612 0.0
H34 H 0.07893 0.38695 0.36456 0.0
H35 H 0.07898 0.38901 0.28731 0.0
H36 H 0.14488 0.47709 0.99823 0.0
H37 H 0.13584 0.49804 0.92741 0.0
H38 H 0.06318 0.48268 0.93497 0.0
H39 H 0.0724 0.46254 1.00635 0.0
Pr40 Pr 0.82614 0.80181 0.34837 0.0
Pr41 Pr 0.79037 0.8398 0.37558 0.0
C42 C 0.84936 0.76636 0.31412 0.0
C43 C 0.84599 0.75249 0.277 0.0
C44 C 0.83061 0.76153 0.24233 0.0
C45 C 0.82813 0.74875 0.20648 0.0
C46 C 0.84094 0.72664 0.20474 0.0
C47 C 0.85594 0.71735 0.23995 0.0
C48 C 0.85848 0.73025 0.27581 0.0
C49 C 0.84689 0.84276 0.37809 0.0
C50 C 0.78556 0.82999 0.27532 0.0
C51 C 0.76675 0.87721 0.40423 0.0
C52 C 0.76202 0.88764 0.44358 0.0
C53 C 0.73897 0.88858 0.45435 0.0
C54 C 0.73399 0.89529 0.49368 0.0
C55 C 0.75197 0.90138 0.5228 0.0
C56 C 0.77488 0.9021 0.51106 0.0
C57 C 0.7799 0.89522 0.47162 0.0
C58 C 0.77294 0.79381 0.36276 0.0
C59 C 0.82024 0.79997 0.45138 0.0
O60 O 0.83528 0.76167 0.34368 0.0
O61 O 0.85298 0.7898 0.3064 0.0
O62 O 0.82744 0.84356 0.3558 0.0
O63 O 0.85717 0.82131 0.37947 0.0
O64 O 0.78188 0.84692 0.30132 0.0
O65 O 0.79982 0.81083 0.28762 0.0
O66 O 0.78741 0.87955 0.39056 0.0
O67 O 0.75813 0.85577 0.3993 0.0
O68 O 0.79256 0.7982 0.37971 0.0
O69 O 0.76093 0.81423 0.35173 0.0
O70 O 0.82834 0.7884 0.42056 0.0
O71 O 0.80662 0.82034 0.44306 0.0
H72 H 0.82069 0.7786 0.24277 0.0
H73 H 0.81616 0.75615 0.1801 0.0
H74 H 0.86612 0.70045 0.2394 0.0
H75 H 0.8704 0.723 0.30238 0.0
H76 H 0.72488 0.88314 0.43294 0.0
H77 H 0.71617 0.89482 0.50201 0.0
H78 H 0.78902 0.90668 0.53317 0.0
H79 H 0.79778 0.89505 0.46381 0.0
Pr80 Pr 0.45571 0.60082 0.62741 0.0
Pr81 Pr 0.42388 0.56059 0.58273 0.0
C82 C 0.46844 0.63795 0.67302 0.0
C83 C 0.47276 0.63916 0.71895 0.0
C84 C 0.49303 0.64966 0.73542 0.0
C85 C 0.49863 0.64836 0.77904 0.0
C86 C 0.48408 0.63646 0.80705 0.0
C87 C 0.46336 0.62669 0.79042 0.0
C88 C 0.45778 0.62801 0.74685 0.0
C89 C 0.48128 0.55649 0.63074 0.0
C90 C 0.43099 0.55468 0.68488 0.0
C91 C 0.40448 0.53152 0.52598 0.0
C92 C 0.40874 0.51939 0.48668 0.0
C93 C 0.40107 0.53082 0.4463 0.0
C94 C 0.40378 0.51895 0.40955 0.0
C95 C 0.41419 0.49516 0.41182 0.0
C96 C 0.42174 0.48372 0.45232 0.0
C97 C 0.41902 0.49558 0.48902 0.0
C98 C 0.40008 0.59769 0.62061 0.0
C99 C 0.46385 0.59302 0.53052 0.0
O100 O 0.44697 0.63482 0.65871 0.0
O101 O 0.48347 0.62458 0.65574 0.0
O102 O 0.4608 0.56077 0.61387 0.0
O103 O 0.48963 0.57618 0.64491 0.0
O104 O 0.42618 0.54233 0.65148 0.0
O105 O 0.4397 0.57697 0.68236 0.0
O106 O 0.41573 0.5228 0.56209 0.0
O107 O 0.40133 0.55553 0.52262 0.0
O108 O 0.41777 0.60065 0.59939 0.0
O109 O 0.39251 0.57581 0.61673 0.0
O110 O 0.46414 0.61012 0.55726 0.0
O111 O 0.45226 0.57271 0.53668 0.0
H112 H 0.50483 0.65831 0.71448 0.0
H113 H 0.51453 0.65642 0.79083 0.0
H114 H 0.45187 0.61718 0.81095 0.0
H115 H 0.44205 0.61967 0.73502 0.0
H116 H 0.39278 0.54899 0.44299 0.0
H117 H 0.39792 0.52862 0.37926 0.0
H118 H 0.42946 0.4653 0.45591 0.0
H119 H 0.42477 0.48588 0.51936 0.0
Pr120 Pr 0.66325 0.18186 0.90081 0.0
Pr121 Pr 0.69806 0.15383 0.84532 0.0
C122 C 0.63259 0.18993 0.95795 0.0
C123 C 0.63202 0.20081 0.99881 0.0
C124 C 0.63738 0.22538 1.00327 0.0
C125 C 0.63785 0.2346 0.04292 0.0
C126 C 0.6331 0.21946 0.0791 0.0
C127 C 0.62755 0.19494 0.07425 0.0
C128 C 0.62696 0.1858 0.03468 0.0
C129 C 0.70195 0.21018 0.8935 0.0
C130 C 0.71203 0.15045 0.94478 0.0
C131 C 0.72417 0.13639 0.78687 0.0
C132 C 0.73689 0.14069 0.74799 0.0
C133 C 0.72608 0.13733 0.70777 0.0
C134 C 0.73877 0.1388 0.6719 0.0
C135 C 0.7627 0.14358 0.67514 0.0
C136 C 0.77344 0.14694 0.71545 0.0
C137 C 0.76078 0.14547 0.7512 0.0
C138 C 0.66349 0.12636 0.88382 0.0
C139 C 0.66021 0.19764 0.79997 0.0
O140 O 0.64555 0.16987 0.95905 0.0
O141 O 0.63378 0.20455 0.92333 0.0
O142 O 0.69922 0.19017 0.87692 0.0
O143 O 0.68364 0.21667 0.9112 0.0
O144 O 0.72102 0.15079 0.90822 0.0
O145 O 0.69016 0.15761 0.94832 0.0
O146 O 0.73307 0.14404 0.8223 0.0
O147 O 0.70133 0.13707 0.78334 0.0
O148 O 0.6609 0.14776 0.8654 0.0
O149 O 0.68425 0.11771 0.87932 0.0
O150 O 0.64738 0.19585 0.83248 0.0
O151 O 0.68077 0.18636 0.80047 0.0
H152 H 0.64144 0.23742 0.97629 0.0
H153 H 0.64189 0.25366 0.04514 0.0
H154 H 0.6242 0.18251 0.10123 0.0
H155 H 0.62296 0.16673 0.03227 0.0
H156 H 0.70782 0.13318 0.70403 0.0
H157 H 0.72973 0.13634 0.64156 0.0
H158 H 0.79187 0.1502 0.7197 0.0
H159 H 0.76992 0.14759 0.78161 0.0
Pr160 Pr 0.04551 0.59127 0.61342 0.0
Pr161 Pr 0.0796 0.55442 0.58099 0.0
C162 C 0.01622 0.61805 0.65367 0.0
C163 C 0.00726 0.61548 0.69523 0.0
C164 C 0.99483 0.63507 0.70922 0.0
C165 C 0.98786 0.63333 0.75016 0.0
C166 C 0.99344 0.61202 0.77763 0.0
C167 C 0.00526 0.59212 0.76292 0.0
C168 C 0.01206 0.59382 0.72194 0.0
C169 C 0.07782 0.6123 0.56134 0.0
C170 C 0.08292 0.55693 0.6839 0.0
C171 C 0.1112 0.53159 0.53953 0.0
C172 C 0.11503 0.53179 0.49503 0.0
C173 C 0.12842 0.51274 0.48168 0.0
C174 C 0.12675 0.50851 0.4392 0.0
C175 C 0.11143 0.52314 0.40999 0.0
C176 C 0.09984 0.5437 0.42288 0.0
C177 C 0.10171 0.54807 0.46528 0.0
C178 C 0.04432 0.53268 0.62232 0.0
C179 C 0.03188 0.57637 0.5183 0.0
O180 O 0.00917 0.60197 0.62796 0.0
O181 O 0.0385 0.62206 0.65369 0.0
O182 O 0.08232 0.59503 0.5903 0.0
O183 O 0.05655 0.62057 0.56147 0.0
O184 O 0.09517 0.55208 0.65214 0.0
O185 O 0.06289 0.56969 0.67677 0.0
O186 O 0.11531 0.55187 0.55699 0.0
O187 O 0.09177 0.52181 0.54941 0.0
O188 O 0.04195 0.55179 0.59715 0.0
O189 O 0.06526 0.5229 0.6248 0.0
O190 O 0.02318 0.58355 0.55224 0.0
O191 O 0.05367 0.5674 0.51964 0.0
H192 H 0.99104 0.6519 0.68886 0.0
H193 H 0.97898 0.64901 0.76089 0.0
H194 H 0.00958 0.57541 0.78334 0.0
H195 H 0.02149 0.57844 0.71137 0.0
H196 H 0.13867 0.5 0.50443 0.0
H197 H 0.13574 0.49245 0.42997 0.0
H198 H 0.08807 0.55529 0.40075 0.0
H199 H 0.09133 0.56293 0.47525 0.0
Pr200 Pr 0.66991 0.80741 0.99223 0.0
Pr201 Pr 0.70208 0.84353 0.94865 0.0
C202 C 0.65209 0.77529 0.04982 0.0
C203 C 0.65795 0.76433 0.09431 0.0
C204 C 0.65023 0.74097 0.10755 0.0
C205 C 0.65448 0.73096 0.14986 0.0
C206 C 0.66653 0.74408 0.18035 0.0
C207 C 0.67474 0.76727 0.1666 0.0
C208 C 0.67052 0.77723 0.12433 0.0
C209 C 0.64458 0.84231 0.93342 0.0
C210 C 0.70715 0.84089 0.05035 0.0
C211 C 0.7224 0.87632 0.89671 0.0
C212 C 0.72149 0.88206 0.85101 0.0
C213 C 0.73941 0.89493 0.83322 0.0
C214 C 0.74032 0.89745 0.7895 0.0
C215 C 0.72314 0.88732 0.76292 0.0
C216 C 0.70471 0.87529 0.78116 0.0
C217 C 0.70417 0.87233 0.82479 0.0
C218 C 0.72409 0.79799 0.97959 0.0
C219 C 0.67483 0.802 0.89275 0.0
O220 O 0.66503 0.76834 1.02087 0.0
O221 O 0.64619 0.79879 0.04428 0.0
O222 O 0.66278 0.84708 0.95714 0.0
O223 O 0.63704 0.82128 0.94774 0.0
O224 O 0.70843 0.85656 1.01681 0.0
O225 O 0.69577 0.82052 0.04696 0.0
O226 O 0.70362 0.88164 0.91485 0.0
O227 O 0.73171 0.85474 0.91031 0.0
O228 O 0.70382 0.8017 0.96238 0.0
O229 O 0.7338 0.81895 0.98292 0.0
O230 O 0.67028 0.78919 0.9283 0.0
O231 O 0.68455 0.82363 0.89268 0.0
H232 H 0.64049 0.73057 0.08523 0.0
H233 H 0.64767 0.71321 0.15891 0.0
H234 H 0.68447 0.77787 0.18861 0.0
H235 H 0.67686 0.7952 0.11526 0.0
H236 H 0.75319 0.90214 0.8532 0.0
H237 H 0.75505 0.90639 0.77684 0.0
H238 H 0.69091 0.86763 0.76189 0.0
H239 H 0.69056 0.86185 0.8381 0.0
Pr240 Pr 0.45047 0.40164 0.13312 0.0
Pr241 Pr 0.41734 0.44154 0.08358 0.0
C242 C 0.4782 0.37127 0.18833 0.0
C243 C 0.48609 0.36825 0.23352 0.0
C244 C 0.4941 0.34504 0.25209 0.0
C245 C 0.50042 0.34131 0.29544 0.0
C246 C 0.49882 0.36077 0.32105 0.0
C247 C 0.49117 0.38419 0.30212 0.0
C248 C 0.48479 0.38789 0.25868 0.0
C249 C 0.41226 0.38504 0.08481 0.0
C250 C 0.41732 0.43805 0.18641 0.0
C251 C 0.38581 0.46435 1.02508 0.0
C252 C 0.38523 0.46945 0.97914 0.0
C253 C 0.37449 0.4913 0.95956 0.0
C254 C 0.37713 0.49835 0.9172 0.0
C255 C 0.3906 0.48363 0.89385 0.0
C256 C 0.40024 0.46105 0.91295 0.0
C257 C 0.39767 0.45407 0.95536 0.0
C258 C 0.45596 0.46007 0.12396 0.0
C259 C 0.46152 0.41545 0.03531 0.0
O260 O 0.48593 0.39001 0.1658 0.0
O261 O 0.45619 0.36746 0.17866 0.0
O262 O 0.41169 0.40227 0.10842 0.0
O263 O 0.4331 0.37519 0.08704 0.0
O264 O 0.40401 0.44423 0.15085 0.0
O265 O 0.43648 0.42406 0.18659 0.0
O266 O 0.38454 0.44131 0.03953 0.0
O267 O 0.40144 0.47606 0.04666 0.0
O268 O 0.45618 0.44077 0.10517 0.0
O269 O 0.43572 0.47166 0.11927 0.0
O270 O 0.46988 0.4037 0.07167 0.0
O271 O 0.44211 0.42954 0.03209 0.0
H272 H 0.4952 0.32968 0.23312 0.0
H273 H 0.5065 0.32314 0.30895 0.0
H274 H 0.4895 0.39949 0.32105 0.0
H275 H 0.47851 0.40593 0.24485 0.0
H276 H 0.36491 0.50341 0.9775 0.0
H277 H 0.36933 0.51574 0.90305 0.0
H278 H 0.41087 0.44946 0.89584 0.0
H279 H 0.40629 0.43723 0.97001 0.0
Pr280 Pr 0.85452 0.18244 0.39727 0.0
Pr281 Pr 0.81698 0.15643 0.35352 0.0
C282 C 0.88304 0.20388 0.45321 0.0
C283 C 0.88041 0.21187 0.49551 0.0
C284 C 0.89989 0.21828 0.52092 0.0
C285 C 0.89742 0.22533 0.56147 0.0
C286 C 0.87541 0.22594 0.57747 0.0
C287 C 0.85591 0.21963 0.55163 0.0
C288 C 0.85838 0.21273 0.51108 0.0
C289 C 0.87131 0.15399 0.33551 0.0
C290 C 0.82271 0.14483 0.45565 0.0
C291 C 0.79038 0.12966 0.30335 0.0
C292 C 0.78683 0.12338 0.25989 0.0
C293 C 0.77365 0.10308 0.25135 0.0
C294 C 0.7657 0.09972 0.20992 0.0
C295 C 0.77069 0.1168 0.1766 0.0
C296 C 0.78573 0.13587 0.18511 0.0
C297 C 0.79381 0.13911 0.22656 0.0
C298 C 0.79869 0.19232 0.40016 0.0
C299 C 0.83732 0.20671 0.30497 0.0
O300 O 0.87039 0.21621 0.42191 0.0
O301 O 0.88332 0.18013 0.45056 0.0
O302 O 0.85632 0.14683 0.36078 0.0
O303 O 0.87954 0.17459 0.34577 0.0
O304 O 0.81605 0.13482 0.42078 0.0
O305 O 0.83594 0.16394 0.4538 0.0
O306 O 0.80912 0.12052 0.32596 0.0
O307 O 0.78519 0.15243 0.30938 0.0
O308 O 0.81613 0.19489 0.37887 0.0
O309 O 0.78956 0.17121 0.3961 0.0
O310 O 0.84484 0.21257 0.34265 0.0
O311 O 0.82873 0.18493 0.29954 0.0
H312 H 0.91704 0.21766 0.50953 0.0
H313 H 0.91283 0.2298 0.58064 0.0
H314 H 0.83867 0.22019 0.56263 0.0
H315 H 0.84308 0.208 0.49187 0.0
H316 H 0.76834 0.09067 0.27687 0.0
H317 H 0.75456 0.08458 0.2042 0.0
H318 H 0.78984 0.14941 0.16022 0.0
H319 H 0.80418 0.15478 0.23277 0.0
Pr320 Pr 0.911 0.55266 0.24991 0.0
Pr321 Pr 0.94171 0.58625 0.19977 0.0
C322 C 0.89158 0.52545 0.31269 0.0
C323 C 0.89684 0.51522 0.35788 0.0
C324 C 0.87893 0.5057 0.38111 0.0
C325 C 0.88356 0.49515 0.4231 0.0
C326 C 0.90635 0.49371 0.4434 0.0
C327 C 0.92421 0.50374 0.42009 0.0
C328 C 0.91954 0.51427 0.37808 0.0
C329 C 0.88677 0.58693 0.18747 0.0
C330 C 0.95016 0.58723 0.30033 0.0
C331 C 0.95803 0.61818 0.14122 0.0
C332 C 0.95489 0.623 0.09532 0.0
C333 C 0.97118 0.63693 0.07471 0.0
C334 C 0.97089 0.6383 1.03092 0.0
C335 C 0.95423 0.62583 1.00722 0.0
C336 C 0.93699 0.6131 1.02771 0.0
C337 C 0.93748 0.61147 0.07169 0.0
C338 C 0.96703 0.54448 0.23734 0.0
C339 C 0.91626 0.53879 0.15534 0.0
O340 O 0.90329 0.51594 0.2843 0.0
O341 O 0.88809 0.54929 0.30487 0.0
O342 O 0.90391 0.59141 0.21321 0.0
O343 O 0.87974 0.56512 0.19843 0.0
O344 O 0.95116 0.6014 0.26496 0.0
O345 O 0.93796 0.56725 0.30072 0.0
O346 O 0.94025 0.62344 0.16203 0.0
O347 O 0.9686 0.59722 0.15508 0.0
O348 O 0.94604 0.545 0.22199 0.0
O349 O 0.97462 0.56663 0.23704 0.0
O350 O 0.91072 0.52944 0.19265 0.0
O351 O 0.9262 0.56029 0.14993 0.0
H352 H 0.86125 0.5061 0.36651 0.0
H353 H 0.86928 0.48753 0.43924 0.0
H354 H 0.94193 0.50356 0.43432 0.0
H355 H 0.93374 0.52151 0.36125 0.0
H356 H 0.98478 0.64579 0.09259 0.0
H357 H 0.98428 0.64829 1.01562 0.0
H358 H 0.92409 0.60322 1.01002 0.0
H359 H 0.92499 0.60033 0.0873 0.0
Pr360 Pr 0.20841 0.14249 0.99328 0.0
Pr361 Pr 0.17844 0.18616 1.01565 0.0
C362 C 0.22462 0.10166 0.96233 0.0
C363 C 0.22728 0.09421 0.91995 0.0
C364 C 0.24531 0.07756 0.91354 0.0
C365 C 0.24914 0.0721 0.87269 0.0
C366 C 0.23483 0.08308 0.83782 0.0
C367 C 0.21656 0.09943 0.84454 0.0
C368 C 0.21298 0.1051 0.88519 0.0
C369 C 0.23172 0.18633 0.99478 0.0
C370 C 0.1817 0.1828 0.9137 0.0
C371 C 0.15916 0.22463 0.04879 0.0
C372 C 0.16192 0.2378 0.08724 0.0
C373 C 0.14473 0.23605 0.11588 0.0
C374 C 0.14705 0.24788 0.15285 0.0
C375 C 0.1665 0.26197 0.16178 0.0
C376 C 0.18355 0.26409 0.13283 0.0
C377 C 0.18133 0.25205 0.09596 0.0
C378 C 0.15258 0.14627 0.99532 0.0
C379 C 0.21676 0.15582 0.0907 0.0
O380 O 0.20332 0.10431 0.97286 0.0
O381 O 0.23795 0.11918 0.9737 0.0
O382 O 0.21101 0.18376 0.98115 0.0
O383 O 0.2417 0.16515 1.00856 0.0
O384 O 0.17589 0.19736 0.94245 0.0
O385 O 0.19259 0.16106 0.9252 0.0
O386 O 0.17512 0.227 1.02197 0.0
O387 O 0.15161 0.20232 0.05373 0.0
O388 O 0.1721 0.14433 1.01747 0.0
O389 O 0.14549 0.16895 0.98661 0.0
O390 O 0.2176 0.13712 0.0673 0.0
O391 O 0.20502 0.17641 0.07599 0.0
H392 H 0.2567 0.06921 0.94003 0.0
H393 H 0.26335 0.05946 0.86829 0.0
H394 H 0.20554 0.10853 0.8182 0.0
H395 H 0.19943 0.11847 0.88937 0.0
H396 H 0.12948 0.22541 0.10976 0.0
H397 H 0.1335 0.24618 0.1743 0.0
H398 H 0.19881 0.2747 0.13907 0.0
H399 H 0.19489 0.2538 0.07452 0.0
Pr400 Pr 0.5871 0.42486 0.8021 0.0
Pr401 Pr 0.55436 0.39033 0.75656 0.0
C402 C 0.60775 0.45367 0.85822 0.0
C403 C 0.60331 0.46543 0.89729 0.0
C404 C 0.62126 0.47749 0.91865 0.0
C405 C 0.61756 0.48865 0.95564 0.0
C406 C 0.59571 0.48814 0.9724 0.0
C407 C 0.57779 0.47579 0.95094 0.0
C408 C 0.58154 0.46461 0.91396 0.0
C409 C 0.61001 0.38581 0.76814 0.0
C410 C 0.54628 0.39462 0.85346 0.0
C411 C 0.53524 0.35908 0.70403 0.0
C412 C 0.53523 0.3565 0.65858 0.0
C413 C 0.51471 0.35021 0.63609 0.0
C414 C 0.51325 0.35096 0.59213 0.0
C415 C 0.53231 0.35811 0.56974 0.0
C416 C 0.55316 0.36363 0.59256 0.0
C417 C 0.55459 0.36282 0.6366 0.0
C418 C 0.53318 0.43616 0.76489 0.0
C419 C 0.58593 0.43094 0.70057 0.0
O420 O 0.59597 0.46242 0.82282 0.0
O421 O 0.6103 0.42966 0.86167 0.0
O422 O 0.5915 0.38413 0.78738 0.0
O423 O 0.61883 0.40704 0.77284 0.0
O424 O 0.54602 0.3781 0.82584 0.0
O425 O 0.5578 0.4149 0.84742 0.0
O426 O 0.55481 0.35406 0.72743 0.0
O427 O 0.52433 0.37877 0.71349 0.0
O428 O 0.55392 0.43232 0.75687 0.0
O429 O 0.5229 0.41546 0.77087 0.0
O430 O 0.59062 0.44307 0.73414 0.0
O431 O 0.57439 0.4103 0.70263 0.0
H432 H 0.63824 0.47838 0.90657 0.0
H433 H 0.63175 0.49813 0.97059 0.0
H434 H 0.56082 0.47454 0.96291 0.0
H435 H 0.56741 0.45529 0.89841 0.0
H436 H 0.4995 0.34555 0.65246 0.0
H437 H 0.49684 0.34692 0.57559 0.0
H438 H 0.56825 0.36892 0.57636 0.0
H439 H 0.57058 0.36781 0.65338 0.0
Pr440 Pr 0.31085 0.8277 0.5393 0.0
Pr441 Pr 0.34651 0.79667 0.49723 0.0
C442 C 0.28013 0.84618 0.58953 0.0
C443 C 0.27215 0.8452 0.63316 0.0
C444 C 0.27815 0.86373 0.65949 0.0
C445 C 0.26926 0.86436 0.69901 0.0
C446 C 0.25391 0.84656 0.7136 0.0
C447 C 0.24799 0.82792 0.68731 0.0
C448 C 0.25693 0.82728 0.64772 0.0
C449 C 0.35014 0.85188 0.51267 0.0
C450 C 0.34735 0.78632 0.59727 0.0
C451 C 0.37726 0.78 0.44611 0.0
C452 C 0.37833 0.77604 0.40093 0.0
C453 C 0.38157 0.75207 0.38954 0.0
C454 C 0.3827 0.74771 0.34728 0.0
C455 C 0.38078 0.76726 0.31523 0.0
C456 C 0.37766 0.79133 0.32665 0.0
C457 C 0.37639 0.79569 0.369 0.0
C458 C 0.30553 0.77251 0.51129 0.0
C459 C 0.30584 0.83333 0.43761 0.0
O460 O 0.27562 0.82796 0.56657 0.0
O461 O 0.30016 0.8558 0.58302 0.0
O462 O 0.35021 0.83073 0.53223 0.0
O463 O 0.32926 0.86193 0.50913 0.0
O464 O 0.36118 0.78608 0.56652 0.0
O465 O 0.32694 0.79825 0.59233 0.0
O466 O 0.37649 0.80259 0.45631 0.0
O467 O 0.36394 0.76564 0.46762 0.0
O468 O 0.3066 0.79494 0.49836 0.0
O469 O 0.32625 0.76234 0.51897 0.0
O470 O 0.29378 0.83563 0.47045 0.0
O471 O 0.32649 0.82175 0.44122 0.0
H472 H 0.28943 0.87813 0.64916 0.0
H473 H 0.27404 0.87926 0.71772 0.0
H474 H 0.2365 0.81368 0.69737 0.0
H475 H 0.25166 0.81284 0.62832 0.0
H476 H 0.38331 0.73661 0.41347 0.0
H477 H 0.38547 0.729 0.33978 0.0
H478 H 0.37593 0.8068 0.30277 0.0
H479 H 0.37386 0.81442 0.37663 0.0
Pr480 Pr 0.91926 0.43632 0.7919 0.0
Pr481 Pr 0.95405 0.39954 0.76055 0.0
C482 C 0.88595 0.45708 0.83267 0.0
C483 C 0.88078 0.45654 0.87673 0.0
C484 C 0.86422 0.47331 0.8883 0.0
C485 C 0.86301 0.47695 0.93076 0.0
C486 C 0.87856 0.46402 0.96176 0.0
C487 C 0.89374 0.44574 0.95037 0.0
C488 C 0.89473 0.44188 0.908 0.0
C489 C 0.95532 0.45853 0.75417 0.0
C490 C 0.96644 0.41349 0.85655 0.0
C491 C 0.98351 0.37278 0.72058 0.0
C492 C 0.99275 0.37599 0.67922 0.0
C493 C 0.00367 0.35614 0.66308 0.0
C494 C 0.01086 0.3587 0.62227 0.0
C495 C 0.00703 0.38113 0.59702 0.0
C496 C 0.99667 0.40118 0.6139 0.0
C497 C 0.98963 0.39864 0.65472 0.0
C498 C 0.9192 0.37929 0.80787 0.0
C499 C 0.91852 0.43513 0.68847 0.0
O500 O 0.8832 0.43669 0.81481 0.0
O501 O 0.90515 0.46787 0.82409 0.0
O502 O 0.95735 0.43889 0.77822 0.0
O503 O 0.93443 0.46854 0.7514 0.0
O504 O 0.97546 0.40595 0.82318 0.0
O505 O 0.94482 0.42316 0.85409 0.0
O506 O 0.9905 0.38838 0.74726 0.0
O507 O 0.96119 0.36893 0.7199 0.0
O508 O 0.91643 0.39646 0.77858 0.0
O509 O 0.94059 0.37082 0.81166 0.0
O510 O 0.90561 0.44015 0.71935 0.0
O511 O 0.93828 0.42198 0.69685 0.0
H512 H 0.85338 0.48475 0.86442 0.0
H513 H 0.85142 0.49135 0.939 0.0
H514 H 0.90596 0.43572 0.9739 0.0
H515 H 0.9075 0.42872 0.89949 0.0
H516 H 0.00614 0.33852 0.68164 0.0
H517 H 0.01857 0.34287 0.60989 0.0
H518 H 0.9937 0.41873 0.5953 0.0
H519 H 0.98134 0.41422 0.66688 0.0
Pr520 Pr 0.2976 0.1393 0.4196 0.0
Pr521 Pr 0.33049 0.17625 0.37636 0.0
C522 C 0.27972 0.10498 0.47228 0.0
C523 C 0.27807 0.09945 0.5181 0.0
C524 C 0.25846 0.10788 0.53653 0.0
C525 C 0.25659 0.10287 0.57961 0.0
C526 C 0.27418 0.08907 0.60536 0.0
C527 C 0.29381 0.08051 0.58702 0.0
C528 C 0.29566 0.08552 0.5437 0.0
C529 C 0.27539 0.18452 0.38771 0.0
C530 C 0.32196 0.18323 0.47491 0.0
C531 C 0.34917 0.20828 0.31968 0.0
C532 C 0.34411 0.22046 0.27569 0.0
C533 C 0.36257 0.22642 0.25099 0.0
C534 C 0.3584 0.23848 0.21003 0.0
C535 C 0.33558 0.24508 0.19231 0.0
C536 C 0.31706 0.2388 0.21707 0.0
C537 C 0.32126 0.22665 0.25804 0.0
C538 C 0.35434 0.14107 0.43694 0.0
C539 C 0.29329 0.14278 0.31764 0.0
O540 O 0.30011 0.10215 0.45785 0.0
O541 O 0.26784 0.12436 0.45414 0.0
O542 O 0.29584 0.18093 0.40425 0.0
O543 O 0.26539 0.16354 0.3865 0.0
O544 O 0.32901 0.19469 0.43994 0.0
O545 O 0.31163 0.16188 0.47497 0.0
O546 O 0.33632 0.21512 0.34889 0.0
O547 O 0.35438 0.18462 0.32398 0.0
O548 O 0.33677 0.13682 0.41147 0.0
O549 O 0.36255 0.16191 0.4232 0.0
O550 O 0.29165 0.12695 0.35092 0.0
O551 O 0.30493 0.16301 0.32135 0.0
H552 H 0.2445 0.11849 0.5177 0.0
H553 H 0.24143 0.11012 0.59284 0.0
H554 H 0.30758 0.06969 0.606 0.0
H555 H 0.31078 0.07842 0.53024 0.0
H556 H 0.38037 0.22196 0.26362 0.0
H557 H 0.37321 0.24312 0.19259 0.0
H558 H 0.29921 0.2431 0.20467 0.0
H559 H 0.3066 0.22216 0.27599 0.0
Pr560 Pr 0.5906 0.54598 0.29667 0.0
Pr561 Pr 0.55501 0.58374 0.2463 0.0
C562 C 0.6232 0.52563 0.35556 0.0
C563 C 0.62193 0.51622 0.39976 0.0
C564 C 0.60193 0.50451 0.41195 0.0
C565 C 0.60019 0.49636 0.45404 0.0
C566 C 0.61827 0.50002 0.48486 0.0
C567 C 0.63804 0.51235 0.47292 0.0
C568 C 0.63988 0.52035 0.43049 0.0
C569 C 0.55172 0.52496 0.26185 0.0
C570 C 0.54632 0.57132 0.34587 0.0
C571 C 0.52511 0.61181 0.19117 0.0
C572 C 0.51647 0.6137 0.14637 0.0
C573 C 0.50048 0.63269 0.13019 0.0
C574 C 0.49302 0.63555 0.08719 0.0
C575 C 0.50151 0.61948 0.05958 0.0
C576 C 0.51732 0.60021 0.07618 0.0
C577 C 0.52472 0.59735 0.11924 0.0
C578 C 0.5934 0.60263 0.29078 0.0
C579 C 0.58945 0.54828 0.19418 0.0
O580 O 0.6198 0.54936 0.34756 0.0
O581 O 0.61243 0.51316 0.32721 0.0
O582 O 0.55153 0.54504 0.27828 0.0
O583 O 0.57215 0.5138 0.26655 0.0
O584 O 0.53719 0.58245 0.30948 0.0
O585 O 0.56592 0.55753 0.34865 0.0
O586 O 0.51869 0.59287 0.21495 0.0
O587 O 0.54697 0.61688 0.19927 0.0
O588 O 0.59398 0.58495 0.26815 0.0
O589 O 0.5724 0.61211 0.28864 0.0
O590 O 0.60369 0.54426 0.22912 0.0
O591 O 0.56924 0.56041 0.19429 0.0
H592 H 0.58755 0.50177 0.38897 0.0
H593 H 0.58457 0.48732 0.46261 0.0
H594 H 0.65214 0.51541 0.49623 0.0
H595 H 0.65522 0.52982 0.42167 0.0
H596 H 0.49403 0.64554 0.15073 0.0
H597 H 0.48106 0.65074 0.07539 0.0
H598 H 0.52396 0.58732 0.0559 0.0
H599 H 0.53705 0.58257 0.1313 0.0
Pr600 Pr 0.19704 0.82841 1.02785 0.0
Pr601 Pr 0.15903 0.79791 0.99292 0.0
C602 C 0.22356 0.85655 0.07582 0.0
C603 C 0.22962 0.85836 0.12121 0.0
C604 C 0.2511 0.84826 0.13967 0.0
C605 C 0.25701 0.84852 0.18267 0.0
C606 C 0.24185 0.85943 0.2084 0.0
C607 C 0.22037 0.86983 0.18997 0.0
C608 C 0.2143 0.86933 0.14666 0.0
C609 C 0.21469 0.78982 0.98699 0.0
C610 C 0.17767 0.78117 0.08926 0.0
C611 C 0.13188 0.77216 0.94121 0.0
C612 C 0.13403 0.7647 0.89823 0.0
C613 C 0.11489 0.75574 0.87505 0.0
C614 C 0.11701 0.74855 0.83441 0.0
C615 C 0.13836 0.7502 0.816 0.0
C616 C 0.15743 0.75946 0.83938 0.0
C617 C 0.1553 0.76656 0.87997 0.0
C618 C 0.14342 0.83109 0.04816 0.0
C619 C 0.18737 0.83575 0.92627 0.0
O620 O 0.20245 0.86341 0.05992 0.0
O621 O 0.2314 0.83671 0.06108 0.0
O622 O 0.19806 0.78808 1.01051 0.0
O623 O 0.22304 0.81161 0.98534 0.0
O624 O 0.16651 0.7731 0.05579 0.0
O625 O 0.18886 0.80196 0.08685 0.0
O626 O 0.14703 0.76183 0.9709 0.0
O627 O 0.12837 0.7957 0.94406 0.0
O628 O 0.15747 0.83616 1.02002 0.0
O629 O 0.13499 0.80964 0.044 0.0
O630 O 0.19586 0.84717 0.95848 0.0
O631 O 0.17462 0.8164 0.93249 0.0
H632 H 0.26329 0.83974 0.12091 0.0
H633 H 0.27342 0.83971 0.19582 0.0
H634 H 0.20835 0.87847 0.20888 0.0
H635 H 0.19765 0.8774 0.13325 0.0
H636 H 0.09832 0.75415 0.88849 0.0
H637 H 0.10201 0.74128 0.81773 0.0
H638 H 0.17403 0.76144 0.8262 0.0
H639 H 0.17034 0.77345 0.89716 0.0
Pr640 Pr 0.56148 0.90032 0.67684 0.0
Pr641 Pr 0.59331 0.93153 0.62148 0.0
C642 C 0.5428 0.87232 0.73831 0.0
C643 C 0.54588 0.86749 0.78439 0.0
C644 C 0.53071 0.85192 0.80481 0.0
C645 C 0.53046 0.85057 0.84863 0.0
C646 C 0.54546 0.86474 0.87269 0.0
C647 C 0.56163 0.87924 0.85233 0.0
C648 C 0.56167 0.88078 0.80839 0.0
C649 C 0.5387 0.94302 0.63738 0.0
C650 C 0.59243 0.94573 0.71683 0.0
C651 C 0.61198 0.95691 0.5558 0.0
C652 C 0.60649 0.96843 0.51103 0.0
C653 C 0.61521 0.95775 0.47666 0.0
C654 C 0.61122 0.96908 0.43495 0.0
C655 C 0.59836 0.99159 0.42601 0.0
C656 C 0.5899 0.00233 0.46064 0.0
C657 C 0.59387 0.99102 0.50219 0.0
C658 C 0.61797 0.89785 0.68456 0.0
C659 C 0.55081 0.89907 0.5759 0.0
O660 O 0.55904 0.86396 0.71655 0.0
O661 O 0.53516 0.89452 0.72449 0.0
O662 O 0.55979 0.94113 0.6519 0.0
O663 O 0.52908 0.92188 0.64155 0.0
O664 O 0.59576 0.95547 0.6784 0.0
O665 O 0.58198 0.92462 0.72347 0.0
O666 O 0.60316 0.96736 0.58661 0.0
O667 O 0.61332 0.93286 0.56262 0.0
O668 O 0.59918 0.89347 0.66253 0.0
O669 O 0.62627 0.91776 0.66722 0.0
O670 O 0.55009 0.8851 0.61174 0.0
O671 O 0.56372 0.91848 0.57391 0.0
H672 H 0.51829 0.84168 0.78671 0.0
H673 H 0.51796 0.83909 0.86361 0.0
H674 H 0.57331 0.89044 0.87005 0.0
H675 H 0.57332 0.89308 0.79301 0.0
H676 H 0.62529 0.94056 0.48202 0.0
H677 H 0.61795 0.95994 0.40962 0.0
H678 H 0.58035 0.01983 0.45586 0.0
H679 H 0.58716 0.0002 0.5275 0.0
Pr680 Pr 0.33295 0.30789 0.84547 0.0
Pr681 Pr 0.29768 0.34441 0.87241 0.0
C682 C 0.35818 0.27626 0.80637 0.0
C683 C 0.35562 0.26595 0.7655 0.0
C684 C 0.37547 0.2601 0.74542 0.0
C685 C 0.37321 0.25199 0.70508 0.0
C686 C 0.35103 0.24958 0.68433 0.0
C687 C 0.33118 0.25554 0.7046 0.0
C688 C 0.33346 0.26373 0.74478 0.0
C689 C 0.35303 0.34938 0.87393 0.0
C690 C 0.29171 0.33518 0.77271 0.0
C691 C 0.27651 0.38166 0.9059 0.0
C692 C 0.27282 0.38892 0.94816 0.0
C693 C 0.25015 0.38972 0.96094 0.0
C694 C 0.24645 0.39359 1.00244 0.0
C695 C 0.2654 0.3967 0.03182 0.0
C696 C 0.28796 0.3973 1.0184 0.0
C697 C 0.29163 0.39358 0.97683 0.0
C698 C 0.27971 0.29858 0.86076 0.0
C699 C 0.32709 0.30379 0.94803 0.0
O700 O 0.3436 0.26911 0.83393 0.0
O701 O 0.36158 0.29984 0.8042 0.0
O702 O 0.33404 0.34986 0.85046 0.0
O703 O 0.36255 0.32753 0.88042 0.0
O704 O 0.28825 0.35219 0.79861 0.0
O705 O 0.30598 0.31605 0.78518 0.0
O706 O 0.29763 0.38268 0.89392 0.0
O707 O 0.2658 0.36218 0.89511 0.0
O708 O 0.29955 0.3026 0.87743 0.0
O709 O 0.26801 0.31914 0.84919 0.0
O710 O 0.33568 0.29275 0.91707 0.0
O711 O 0.31325 0.32395 0.93956 0.0
H712 H 0.39271 0.26203 0.7608 0.0
H713 H 0.38878 0.24734 0.69033 0.0
H714 H 0.31388 0.25417 0.68914 0.0
H715 H 0.31792 0.26859 0.75946 0.0
H716 H 0.23535 0.38642 0.93923 0.0
H717 H 0.2289 0.3929 1.01203 0.0
H718 H 0.30283 0.40004 0.04035 0.0
H719 H 0.30923 0.39369 0.96761 0.0
Pr720 Pr 0.9445 0.08308 0.13283 0.0
Pr721 Pr 0.91183 0.05606 0.07409 0.0
C722 C 0.96332 0.10897 0.19405 0.0
C723 C 0.95755 0.11529 0.23571 0.0
C724 C 0.96888 0.13441 0.25415 0.0
C725 C 0.96638 0.13813 0.29623 0.0
C726 C 0.95254 0.12268 0.32055 0.0
C727 C 0.93998 0.10455 0.30102 0.0
C728 C 0.9425 0.10087 0.25894 0.0
C729 C 0.96475 0.03865 0.11507 0.0
C730 C 0.909 0.04088 0.17258 0.0
C731 C 0.89214 0.03206 1.01005 0.0
C732 C 0.89818 0.01954 0.97225 0.0
C733 C 0.88757 0.02763 0.93184 0.0
C734 C 0.89215 0.01539 0.89629 0.0
C735 C 0.90748 -0.00543 0.89997 0.0
C736 C 0.91807 0.98655 0.94059 0.0
C737 C 0.91354 -0.00119 0.97605 0.0
C738 C 0.88929 0.09272 0.11573 0.0
C739 C 0.95774 0.08478 0.03605 0.0
O740 O 0.95045 0.11926 0.16111 0.0
O741 O 0.96838 0.08576 0.1915 0.0
O742 O 0.9435 0.04222 0.12042 0.0
O743 O 0.97556 0.05914 0.11538 0.0
O744 O 0.90647 0.03184 0.13562 0.0
O745 O 0.92025 0.06129 0.17786 0.0
O746 O 0.89902 0.02132 0.04759 0.0
O747 O 0.89309 0.05605 1.00819 0.0
O748 O 0.9088 0.09466 0.09989 0.0
O749 O 0.87948 0.07339 0.1028 0.0
O750 O 0.95971 0.09741 0.06941 0.0
O751 O 0.9425 0.06743 0.03348 0.0
H752 H 0.98055 0.14571 0.23664 0.0
H753 H 0.97645 0.15211 0.3104 0.0
H754 H 0.92888 0.09264 0.3187 0.0
H755 H 0.93343 0.08615 0.24506 0.0
H756 H 0.87556 0.04343 0.92772 0.0
H757 H 0.88382 0.0225 0.8658 0.0
H758 H 0.92968 0.97044 0.94532 0.0
H759 H 0.92195 0.99184 1.00656 0.0
Pr760 Pr 0.16808 0.67923 0.39546 0.0
Pr761 Pr 0.20291 0.64924 0.35023 0.0
C762 C 0.13794 0.69609 0.44792 0.0
C763 C 0.13731 0.70327 0.49158 0.0
C764 C 0.12668 0.72588 0.49791 0.0
C765 C 0.12496 0.7328 0.5387 0.0
C766 C 0.13375 0.71724 0.57444 0.0
C767 C 0.14472 0.69468 0.56802 0.0
C768 C 0.14646 0.68775 0.52708 0.0
C769 C 0.20874 0.70401 0.38117 0.0
C770 C 0.20956 0.64189 0.45148 0.0
C771 C 0.23212 0.62999 0.29835 0.0
C772 C 0.24318 0.6334 0.25796 0.0
C773 C 0.24999 0.61264 0.23853 0.0
C774 C 0.26155 0.61505 0.20151 0.0
C775 C 0.26666 0.63836 0.18286 0.0
C776 C 0.25932 0.6592 0.20203 0.0
C777 C 0.24774 0.65676 0.23911 0.0
C778 C 0.16456 0.62386 0.37873 0.0
C779 C 0.16764 0.69171 0.29608 0.0
O780 O 0.1415 0.67288 0.44318 0.0
O781 O 0.14843 0.71049 0.42129 0.0
O782 O 0.20797 0.68135 0.39263 0.0
O783 O 0.18797 0.71411 0.37545 0.0
O784 O 0.22097 0.64034 0.41773 0.0
O785 O 0.18893 0.65337 0.44991 0.0
O786 O 0.23904 0.64331 0.32876 0.0
O787 O 0.2098 0.62615 0.29652 0.0
O788 O 0.16379 0.64533 0.36013 0.0
O789 O 0.18542 0.61418 0.37911 0.0
O790 O 0.15286 0.68884 0.32536 0.0
O791 O 0.18893 0.68193 0.30215 0.0
H792 H 0.11952 0.73819 0.47115 0.0
H793 H 0.11676 0.75047 0.54217 0.0
H794 H 0.15151 0.6821 0.59465 0.0
H795 H 0.15474 0.67016 0.5233 0.0
H796 H 0.24671 0.59441 0.25248 0.0
H797 H 0.26706 0.59855 0.18822 0.0
H798 H 0.26253 0.6775 0.18838 0.0
H799 H 0.24254 0.67309 0.25324 0.0
Pr800 Pr 0.54479 0.07827 0.10969 0.0
Pr801 Pr 0.58074 0.04115 0.07615 0.0
C802 C 0.5094 0.10142 0.14202 0.0
C803 C 0.50156 0.10068 0.1849 0.0
C804 C 0.48674 0.11942 0.19581 0.0
C805 C 0.48116 0.12001 0.2376 0.0
C806 C 0.49053 0.10199 0.26929 0.0
C807 C 0.50486 0.08285 0.25786 0.0
C808 C 0.51025 0.08217 0.21609 0.0
C809 C 0.58335 0.09857 0.07173 0.0
C810 C 0.58395 0.04817 0.17975 0.0
C811 C 0.6153 0.02373 0.03514 0.0
C812 C 0.62237 0.02721 0.99223 0.0
C813 C 0.64171 0.01382 0.98172 0.0
C814 C 0.6452 0.01202 0.93945 0.0
C815 C 0.62913 0.0233 0.90738 0.0
C816 C 0.61147 0.03921 0.91812 0.0
C817 C 0.60809 0.04113 0.96047 0.0
C818 C 0.55036 0.01792 0.12619 0.0
C819 C 0.53357 0.06375 1.01072 0.0
O820 O 0.50682 0.08147 0.12267 0.0
O821 O 0.52959 0.11114 0.13758 0.0
O822 O 0.57147 0.08119 0.06122 0.0
O823 O 0.57401 0.10842 0.10213 0.0
O824 O 0.59646 0.04423 0.14756 0.0
O825 O 0.56306 0.05902 0.17291 0.0
O826 O 0.61759 0.04255 0.0576 0.0
O827 O 0.59568 0.01245 0.03891 0.0
O828 O 0.54518 0.03679 0.10075 0.0
O829 O 0.57098 0.00863 0.12219 0.0
O830 O 0.52735 0.07772 0.04009 0.0
O831 O 0.55207 0.04816 1.01735 0.0
H832 H 0.47996 0.13394 0.17225 0.0
H833 H 0.47023 0.13508 0.24541 0.0
H834 H 0.51213 0.06853 0.28135 0.0
H835 H 0.52164 0.06748 0.20831 0.0
H836 H 0.65304 0.00323 1.00601 0.0
H837 H 0.65909 -0.00014 0.93186 0.0
H838 H 0.59882 0.04805 0.89407 0.0
H839 H 0.59322 0.05183 0.96832 0.0
Pr840 Pr 0.17222 0.31556 0.49106 0.0
Pr841 Pr 0.20603 0.34966 0.44763 0.0
C842 C 0.15108 0.28612 0.54803 0.0
C843 C 0.15485 0.27513 0.59302 0.0
C844 C 0.13916 0.2812 0.62215 0.0
C845 C 0.142 0.27101 0.66436 0.0
C846 C 0.16061 0.25425 0.67903 0.0
C847 C 0.1762 0.2479 0.64971 0.0
C848 C 0.17341 0.25823 0.60738 0.0
C849 C 0.1502 0.35205 0.43056 0.0
C850 C 0.21151 0.34667 0.54944 0.0
C851 C 0.22492 0.38296 0.39485 0.0
C852 C 0.22277 0.38901 0.34904 0.0
C853 C 0.21882 0.37044 0.32206 0.0
C854 C 0.2194 0.37558 0.27872 0.0
C855 C 0.22369 0.39939 0.26176 0.0
C856 C 0.22605 0.41834 0.28838 0.0
C857 C 0.22567 0.41313 0.33198 0.0
C858 C 0.22679 0.30383 0.4797 0.0
C859 C 0.17842 0.30721 0.39309 0.0
O860 O 0.16402 0.27771 0.52025 0.0
O861 O 0.14677 0.30992 0.54145 0.0
O862 O 0.16744 0.3553 0.45725 0.0
O863 O 0.14167 0.33083 0.44077 0.0
O864 O 0.21341 0.36216 0.51589 0.0
O865 O 0.19912 0.32691 0.54615 0.0
O866 O 0.20668 0.38807 0.41449 0.0
O867 O 0.23498 0.36164 0.40829 0.0
O868 O 0.20643 0.30795 0.46286 0.0
O869 O 0.23725 0.32452 0.48169 0.0
O870 O 0.17264 0.29593 0.42908 0.0
O871 O 0.18908 0.32844 0.39192 0.0
H872 H 0.12452 0.29388 0.61222 0.0
H873 H 0.12936 0.27615 0.68548 0.0
H874 H 0.19087 0.23528 0.65964 0.0
H875 H 0.18587 0.25301 0.58598 0.0
H876 H 0.21631 0.35175 0.3346 0.0
H877 H 0.21745 0.36075 0.25855 0.0
H878 H 0.22948 0.4368 0.27573 0.0
H879 H 0.2285 0.42769 0.35243 0.0
Pr880 Pr 0.95494 0.89816 0.63085 0.0
Pr881 Pr 0.91804 0.93495 0.57941 0.0
C882 C 0.98651 0.87365 0.68733 0.0
C883 C 0.99524 0.87602 0.73119 0.0
C884 C 0.00584 0.85563 0.75594 0.0
C885 C 0.01201 0.85691 0.79891 0.0
C886 C 0.00755 0.8786 0.81782 0.0
C887 C 0.99758 0.89927 0.79247 0.0
C888 C 0.99147 0.89798 0.74949 0.0
C889 C 0.91997 0.87674 0.58181 0.0
C890 C 0.91816 0.93121 0.68222 0.0
C891 C 0.88329 0.95651 0.52591 0.0
C892 C 0.87975 0.96541 0.48128 0.0
C893 C 0.86397 0.98516 0.4685 0.0
C894 C 0.86289 -0.00369 0.42732 0.0
C895 C 0.87761 0.98781 0.39848 0.0
C896 C 0.89261 0.96722 0.41095 0.0
C897 C 0.89372 0.95613 0.45214 0.0
C898 C 0.95561 0.95668 0.6185 0.0
C899 C 0.96336 0.91217 0.53086 0.0
O900 O 0.99204 0.89089 0.65911 0.0
O901 O 0.9648 0.86738 0.68184 0.0
O902 O 0.91692 0.89473 0.60329 0.0
O903 O 0.94084 0.86721 0.59133 0.0
O904 O 0.90428 0.93478 0.64684 0.0
O905 O 0.93885 0.92002 0.6828 0.0
O906 O 0.88572 0.93272 0.53491 0.0
O907 O 0.89795 0.96879 0.54851 0.0
O908 O 0.95664 0.93729 0.60031 0.0
O909 O 0.93475 0.96678 0.61421 0.0
O910 O 0.97277 0.90154 0.56753 0.0
O911 O 0.94304 0.92479 0.52725 0.0
H912 H 0.00871 0.8385 0.7423 0.0
H913 H 0.01938 0.84059 0.81764 0.0
H914 H 0.99414 0.91632 0.806 0.0
H915 H 0.98331 0.91393 0.73077 0.0
H916 H 0.85314 -0.00747 0.49081 0.0
H917 H 0.85106 0.01203 0.41837 0.0
H918 H 0.90438 0.96049 0.38956 0.0
H919 H 0.90616 0.94101 0.46169 0.0
Pr920 Pr 0.35686 0.67971 0.90295 0.0
Pr921 Pr 0.31851 0.65393 0.86129 0.0
C922 C 0.38663 0.70036 0.95799 0.0
C923 C 0.3844 0.70808 1.00062 0.0
C924 C 0.40401 0.71461 1.02559 0.0
C925 C 0.40185 0.7212 0.06656 0.0
C926 C 0.38005 0.72111 0.0834 0.0
C927 C 0.36043 0.71477 0.05796 0.0
C928 C 0.36257 0.70844 1.01698 0.0
C929 C 0.37154 0.64901 0.84238 0.0
C930 C 0.32561 0.642 0.96258 0.0
C931 C 0.29111 0.62866 0.80983 0.0
C932 C 0.28625 0.62536 0.76495 0.0
C933 C 0.26335 0.62953 0.74705 0.0
C934 C 0.25798 0.62798 0.70422 0.0
C935 C 0.27535 0.62173 0.67828 0.0
C936 C 0.29837 0.61725 0.69635 0.0
C937 C 0.30381 0.61914 0.73945 0.0
C938 C 0.30117 0.69019 0.9079 0.0
C939 C 0.33875 0.70418 0.81174 0.0
O940 O 0.37389 0.71303 0.9272 0.0
O941 O 0.38646 0.67668 0.95485 0.0
O942 O 0.35745 0.64324 0.8699 0.0
O943 O 0.37973 0.67037 0.84811 0.0
O944 O 0.31878 0.63179 0.928 0.0
O945 O 0.33836 0.66151 0.9601 0.0
O946 O 0.3108 0.61951 0.82917 0.0
O947 O 0.28511 0.65018 0.82096 0.0
O948 O 0.31838 0.69256 0.88595 0.0
O949 O 0.29202 0.66897 0.90504 0.0
O950 O 0.34696 0.71005 0.84897 0.0
O951 O 0.33001 0.6824 0.80688 0.0
H952 H 0.42101 0.71442 1.01357 0.0
H953 H 0.41732 0.72578 0.08543 0.0
H954 H 0.34335 0.71482 0.06968 0.0
H955 H 0.34716 0.7037 0.99809 0.0
H956 H 0.24961 0.63453 0.76615 0.0
H957 H 0.24022 0.63235 0.69135 0.0
H958 H 0.31214 0.61237 0.67728 0.0
H959 H 0.32169 0.616 0.75261 0.0
Pr960 Pr 0.40661 0.0506 0.74993 0.0
Pr961 Pr 0.43577 0.08919 0.69527 0.0
C962 C 0.38759 0.02614 0.81585 0.0
C963 C 0.39088 0.01749 0.86225 0.0
C964 C 0.37338 0.02297 0.88844 0.0
C965 C 0.37521 0.01444 0.93159 0.0
C966 C 0.39469 2e-05 0.95055 0.0
C967 C 0.41228 -0.0055 0.92419 0.0
C968 C 0.41041 0.00308 0.88081 0.0
C969 C 0.38073 0.08011 0.68265 0.0
C970 C 0.44687 0.08606 0.79713 0.0
C971 C 0.4451 0.12317 0.63285 0.0
C972 C 0.44634 0.12269 0.58688 0.0
C973 C 0.46386 0.13523 0.56697 0.0
C974 C 0.46637 0.13348 0.52412 0.0
C975 C 0.45124 0.11934 0.50019 0.0
C976 C 0.4334 0.10717 0.52001 0.0
C977 C 0.43117 0.10856 0.56305 0.0
C978 C 0.46478 0.04854 0.72095 0.0
C979 C 0.4177 0.03532 0.65891 0.0
O980 O 0.39956 0.01513 0.78922 0.0
O981 O 0.38398 0.0498 0.80507 0.0
O982 O 0.39726 0.08743 0.70739 0.0
O983 O 0.37531 0.05836 0.69766 0.0
O984 O 0.44616 0.102 0.76307 0.0
O985 O 0.43512 0.06574 0.79704 0.0
O986 O 0.42461 0.12115 0.64703 0.0
O987 O 0.46133 0.11035 0.65696 0.0
O988 O 0.44397 0.05104 0.73054 0.0
O989 O 0.47149 0.06867 0.70172 0.0
O990 O 0.41226 0.0261 0.69645 0.0
O991 O 0.42439 0.05827 0.6508 0.0
H992 H 0.35796 0.03374 0.87532 0.0
H993 H 0.36098 0.01888 0.94994 0.0
H994 H 0.42772 0.98376 0.93714 0.0
H995 H 0.42428 -0.00162 0.86181 0.0
H996 H 0.47587 0.14605 0.58477 0.0
H997 H 0.48017 0.1432 0.50966 0.0
H998 H 0.42162 0.09593 0.50255 0.0
H999 H 0.41788 0.09819 0.57784 0.0
Pr1000 Pr 0.71211 0.63306 0.4966 0.0
Pr1001 Pr 0.68112 0.67702 0.51799 0.0
C1002 C 0.72928 0.5922 0.46711 0.0
C1003 C 0.73576 0.58632 0.42575 0.0
C1004 C 0.7305 0.6033 0.39046 0.0
C1005 C 0.73857 0.59906 0.35182 0.0
C1006 C 0.75213 0.57777 0.34782 0.0
C1007 C 0.75677 0.56036 0.38295 0.0
C1008 C 0.74871 0.5647 0.4218 0.0
C1009 C 0.73433 0.67755 0.49741 0.0
C1010 C 0.68565 0.67371 0.41624 0.0
C1011 C 0.66309 0.7154 0.55267 0.0
C1012 C 0.6636 0.72274 0.59611 0.0
C1013 C 0.65494 0.7075 0.62866 0.0
C1014 C 0.65597 0.71441 0.66977 0.0
C1015 C 0.6658 0.73664 0.67935 0.0
C1016 C 0.67463 0.75174 0.64677 0.0
C1017 C 0.67343 0.7449 0.60559 0.0
C1018 C 0.65612 0.63621 0.50008 0.0
C1019 C 0.71828 0.64624 0.59462 0.0
O1020 O 0.70709 0.59626 0.47036 0.0
O1021 O 0.74232 0.60808 0.48495 0.0
O1022 O 0.71375 0.67422 0.48414 0.0
O1023 O 0.74511 0.65663 0.51006 0.0
O1024 O 0.67923 0.68818 0.44472 0.0
O1025 O 0.69699 0.6522 0.42812 0.0
O1026 O 0.68273 0.71635 0.53489 0.0
O1027 O 0.65131 0.69603 0.54481 0.0
O1028 O 0.67596 0.63499 0.52124 0.0
O1029 O 0.64817 0.65868 0.49206 0.0
O1030 O 0.72049 0.6279 0.57082 0.0
O1031 O 0.70575 0.66633 0.58016 0.0
H1032 H 0.7206 0.62011 0.39298 0.0
H1033 H 0.73436 0.61257 0.3251 0.0
H1034 H 0.76721 0.54383 0.38068 0.0
H1035 H 0.75302 0.55149 0.44892 0.0
H1036 H 0.64736 0.69018 0.62249 0.0
H1037 H 0.64878 0.70248 0.69392 0.0
H1038 H 0.68272 0.76878 0.65312 0.0
H1039 H 0.68039 0.75687 0.58116 0.0
Pr1040 Pr 0.09173 0.92352 0.30409 0.0
Pr1041 Pr 0.05903 0.89077 0.25469 0.0
C1042 C 0.11136 0.9504 0.36428 0.0
C1043 C 0.10572 0.96224 0.40315 0.0
C1044 C 0.11587 0.9529 0.44334 0.0
C1045 C 0.1114 0.96429 0.47988 0.0
C1046 C 0.09665 0.9855 0.47753 0.0
C1047 C 0.08667 -0.0051 0.43712 0.0
C1048 C 0.09111 0.98351 0.40067 0.0
C1049 C 0.11412 0.88465 0.26808 0.0
C1050 C 0.04963 0.89323 0.3513 0.0
C1051 C 0.0404 0.86049 0.20005 0.0
C1052 C 0.04154 0.85783 0.15495 0.0
C1053 C 0.02167 0.85094 0.13128 0.0
C1054 C 0.02119 0.85163 0.08746 0.0
C1055 C 0.04061 0.85919 0.06656 0.0
C1056 C 0.06091 0.8651 0.09051 0.0
C1057 C 0.0613 0.86461 0.13442 0.0
C1058 C 0.03798 0.93624 0.26567 0.0
C1059 C 0.09121 0.93263 0.20296 0.0
O1060 O 0.10199 0.96008 0.32739 0.0
O1061 O 0.11305 0.92634 0.36676 0.0
O1062 O 0.09556 0.88319 0.28706 0.0
O1063 O 0.12327 0.90566 0.27357 0.0
O1064 O 0.04956 0.87731 0.3227 0.0
O1065 O 0.06139 0.91343 0.34695 0.0
O1066 O 0.05924 0.85469 0.22508 0.0
O1067 O 0.02983 0.88063 0.20851 0.0
O1068 O 0.05889 0.93254 0.25859 0.0
O1069 O 0.02745 0.91555 0.269 0.0
O1070 O 0.09544 0.94382 0.23774 0.0
O1071 O 0.07993 0.91184 0.20296 0.0
H1072 H 0.12738 0.93671 0.4466 0.0
H1073 H 0.1193 0.95617 0.51009 0.0
H1074 H 0.07558 0.0114 0.43337 0.0
H1075 H 0.08314 0.99154 0.37044 0.0
H1076 H 0.00624 0.8458 0.14658 0.0
H1077 H 0.00543 0.84667 0.06979 0.0
H1078 H 0.07609 0.87111 0.07521 0.0
H1079 H 0.07669 0.87031 0.15216 0.0
Pr1080 Pr 0.81147 0.33651 0.04171 0.0
Pr1081 Pr 0.84382 0.30576 0.99134 0.0
C1082 C 0.78333 0.35513 0.09613 0.0
C1083 C 0.77505 0.35288 0.13945 0.0
C1084 C 0.78013 0.37119 0.16664 0.0
C1085 C 0.77093 0.37079 0.206 0.0
C1086 C 0.7562 0.35211 0.21952 0.0
C1087 C 0.75125 0.33363 0.19237 0.0
C1088 C 0.7605 0.33402 0.15292 0.0
C1089 C 0.85218 0.3584 1.01596 0.0
C1090 C 0.84504 0.29016 0.0912 0.0
C1091 C 0.87351 0.29075 0.93688 0.0
C1092 C 0.87381 0.28582 0.89193 0.0
C1093 C 0.87491 0.26147 0.88133 0.0
C1094 C 0.87594 0.25637 0.83939 0.0
C1095 C 0.87607 0.27549 0.80685 0.0
C1096 C 0.87503 0.2999 0.81746 0.0
C1097 C 0.87391 0.30501 0.85947 0.0
C1098 C 0.80162 0.28378 1.00295 0.0
C1099 C 0.80282 0.3462 0.94012 0.0
O1100 O 0.77662 0.33929 0.06964 0.0
O1101 O 0.80451 0.3623 0.09168 0.0
O1102 O 0.85069 0.33675 0.03248 0.0
O1103 O 0.83211 0.37007 1.01471 0.0
O1104 O 0.85825 0.2905 0.05941 0.0
O1105 O 0.82551 0.3035 0.08918 0.0
O1106 O 0.87113 0.31357 0.94537 0.0
O1107 O 0.86229 0.27562 0.96122 0.0
O1108 O 0.80414 0.3066 0.99566 0.0
O1109 O 0.82155 0.27185 1.0052 0.0
O1110 O 0.79302 0.34858 0.9754 0.0
O1111 O 0.8222 0.33272 0.93883 0.0
H1112 H 0.79091 0.38622 0.15706 0.0
H1113 H 0.77495 0.38558 0.22542 0.0
H1114 H 0.74027 0.31874 0.20165 0.0
H1115 H 0.75602 0.31967 0.13281 0.0
H1116 H 0.87521 0.24627 0.90562 0.0
H1117 H 0.87715 0.23736 0.8326 0.0
H1118 H 0.87491 0.31511 0.79325 0.0
H1119 H 0.87323 0.32401 0.86645 0.0
Pr1120 Pr 0.41643 0.94011 0.29485 0.0
Pr1121 Pr 0.456 0.90735 0.26808 0.0
C1122 C 0.38122 0.95744 0.33513 0.0
C1123 C 0.3768 0.95567 0.3797 0.0
C1124 C 0.36129 0.97261 0.39385 0.0
C1125 C 0.36161 0.97553 0.43686 0.0
C1126 C 0.3777 0.96177 0.46582 0.0
C1127 C 0.39186 0.94341 0.45195 0.0
C1128 C 0.39124 0.94021 0.40908 0.0
C1129 C 0.44947 0.96701 0.2574 0.0
C1130 C 0.4631 0.91981 0.36543 0.0
C1131 C 0.48913 0.88421 0.23003 0.0
C1132 C 0.49626 0.88429 0.18697 0.0
C1133 C 0.51142 0.86565 0.17689 0.0
C1134 C 0.51675 0.86443 0.1352 0.0
C1135 C 0.50678 0.88172 0.10294 0.0
C1136 C 0.49207 0.90077 0.11347 0.0
C1137 C 0.48693 0.90209 0.15516 0.0
C1138 C 0.42187 0.88307 0.31205 0.0
C1139 C 0.41787 0.93662 0.19189 0.0
O1140 O 0.38016 0.93713 0.31661 0.0
O1141 O 0.39924 0.97024 0.32627 0.0
O1142 O 0.45422 0.94787 0.28258 0.0
O1143 O 0.42753 0.9737 0.25386 0.0
O1144 O 0.47411 0.9122 0.33425 0.0
O1145 O 0.44141 0.92941 0.35884 0.0
O1146 O 0.49277 0.90421 0.24885 0.0
O1147 O 0.46881 0.87508 0.23586 0.0
O1148 O 0.41824 0.90001 0.28241 0.0
O1149 O 0.44391 0.87701 0.31793 0.0
O1150 O 0.40435 0.94304 0.2211 0.0
O1151 O 0.43788 0.92437 0.20264 0.0
H1152 H 0.35018 0.98478 0.3715 0.0
H1153 H 0.35078 0.98999 0.44704 0.0
H1154 H 0.40447 0.93275 0.47388 0.0
H1155 H 0.40326 0.92695 0.39865 0.0
H1156 H 0.51872 0.85172 0.20109 0.0
H1157 H 0.52798 0.84945 0.12797 0.0
H1158 H 0.48434 0.91452 0.08937 0.0
H1159 H 0.47533 0.91674 0.16239 0.0
Pr1160 Pr 0.79956 0.63492 0.924 0.0
Pr1161 Pr 0.83192 0.67024 0.87816 0.0
C1162 C 0.78221 0.60154 0.97898 0.0
C1163 C 0.78569 0.59537 1.02467 0.0
C1164 C 0.76959 0.58103 0.04504 0.0
C1165 C 0.77091 0.57789 0.08903 0.0
C1166 C 0.78843 0.58901 0.11332 0.0
C1167 C 0.80524 0.60238 0.09254 0.0
C1168 C 0.80373 0.60571 0.04857 0.0
C1169 C 0.77699 0.67957 0.89071 0.0
C1170 C 0.82625 0.67895 0.97584 0.0
C1171 C 0.85076 0.70122 0.82002 0.0
C1172 C 0.84469 0.71354 0.77647 0.0
C1173 C 0.86241 0.7221 0.75193 0.0
C1174 C 0.85711 0.73451 0.71149 0.0
C1175 C 0.83385 0.73884 0.69418 0.0
C1176 C 0.8161 0.72996 0.71881 0.0
C1177 C 0.82144 0.71749 0.75928 0.0
C1178 C 0.85529 0.63401 0.93777 0.0
C1179 C 0.79355 0.63693 0.82216 0.0
O1180 O 0.79976 0.59659 0.95737 0.0
O1181 O 0.77214 0.62303 0.96714 0.0
O1182 O 0.7976 0.67651 0.90693 0.0
O1183 O 0.76725 0.65841 0.89014 0.0
O1184 O 0.83107 0.69029 0.93933 0.0
O1185 O 0.81668 0.65715 0.97819 0.0
O1186 O 0.83912 0.70863 0.85032 0.0
O1187 O 0.85491 0.67737 0.82395 0.0
O1188 O 0.8379 0.63059 0.91167 0.0
O1189 O 0.86326 0.65553 0.92759 0.0
O1190 O 0.79181 0.62178 0.85624 0.0
O1191 O 0.80549 0.65705 0.82452 0.0
H1192 H 0.75543 0.57314 1.02697 0.0
H1193 H 0.75743 0.56784 0.10389 0.0
H1194 H 0.81913 0.61094 0.11022 0.0
H1195 H 0.81616 0.61704 0.03325 0.0
H1196 H 0.88047 0.71943 0.76429 0.0
H1197 H 0.87134 0.74119 0.69416 0.0
H1198 H 0.798 0.73246 0.70672 0.0
H1199 H 0.80736 0.71102 0.77725 0.0
Pr1200 Pr 0.08488 0.04428 0.80262 0.0
Pr1201 Pr 0.04968 0.08058 0.74882 0.0
C1202 C 0.11893 0.0247 0.8597 0.0
C1203 C 0.12279 0.02104 0.90574 0.0
C1204 C 0.13768 0.00171 0.9244 0.0
C1205 C 0.13855 -0.00479 0.96775 0.0
C1206 C 0.12442 0.00792 0.99297 0.0
C1207 C 0.11074 0.02843 0.97458 0.0
C1208 C 0.10987 0.03491 0.93113 0.0
C1209 C 0.04746 0.02196 0.76465 0.0
C1210 C 0.03886 0.06853 0.84711 0.0
C1211 C 0.01948 0.10766 0.69284 0.0
C1212 C 0.00869 0.10626 0.64991 0.0
C1213 C 0.98975 0.12208 0.63436 0.0
C1214 C 0.97941 0.12095 0.59342 0.0
C1215 C 0.98789 0.10394 0.56738 0.0
C1216 C 0.00679 0.08795 0.58344 0.0
C1217 C 0.01704 0.08907 0.62437 0.0
C1218 C 0.08629 0.10097 0.7959 0.0
C1219 C 0.08473 0.0445 0.69953 0.0
O1220 O 0.11875 0.04736 0.8426 0.0
O1221 O 0.10251 0.01179 0.84284 0.0
O1222 O 0.04635 0.042 0.78096 0.0
O1223 O 0.06824 0.01158 0.77031 0.0
O1224 O 0.02959 0.07618 0.80881 0.0
O1225 O 0.06011 0.05789 0.85364 0.0
O1226 O 0.01294 0.09146 0.72173 0.0
O1227 O 0.04191 0.11111 0.69646 0.0
O1228 O 0.08805 0.08326 0.77372 0.0
O1229 O 0.06495 0.10954 0.79272 0.0
O1230 O 0.09831 0.0407 0.73536 0.0
O1231 O 0.0645 0.05678 0.69806 0.0
H1232 H 0.1478 0.99089 0.90519 0.0
H1233 H 0.14943 0.9795 0.98126 0.0
H1234 H 0.09956 0.03843 0.99322 0.0
H1235 H 0.09825 0.04993 0.91712 0.0
H1236 H 0.98299 0.13534 0.65387 0.0
H1237 H 0.96472 0.1333 0.58224 0.0
H1238 H 0.01401 0.07488 0.56411 0.0
H1239 H 0.03161 0.07667 0.63598 0.0
Pr1240 Pr 0.69726 0.32886 0.5319 0.0
Pr1241 Pr 0.65914 0.29921 0.49603 0.0
C1242 C 0.72407 0.35694 0.57944 0.0
C1243 C 0.72712 0.36111 0.62412 0.0
C1244 C 0.74854 0.369 0.64065 0.0
C1245 C 0.75336 0.36905 0.68413 0.0
C1246 C 0.73677 0.36124 0.71186 0.0
C1247 C 0.7148 0.35454 0.69488 0.0
C1248 C 0.71006 0.35433 0.6513 0.0
C1249 C 0.71481 0.29027 0.49071 0.0
C1250 C 0.67563 0.2835 0.59364 0.0
C1251 C 0.63031 0.27444 0.4456 0.0
C1252 C 0.62917 0.2675 0.40179 0.0
C1253 C 0.60745 0.26469 0.37993 0.0
C1254 C 0.60595 0.25797 0.33855 0.0
C1255 C 0.62619 0.25378 0.31799 0.0
C1256 C 0.64798 0.25705 0.33988 0.0
C1257 C 0.64945 0.26388 0.38129 0.0
C1258 C 0.6434 0.33243 0.55094 0.0
C1259 C 0.68809 0.3366 0.43008 0.0
O1260 O 0.70449 0.36514 0.5584 0.0
O1261 O 0.73056 0.33498 0.57106 0.0
O1262 O 0.69803 0.28851 0.51393 0.0
O1263 O 0.72337 0.31194 0.48978 0.0
O1264 O 0.66568 0.27476 0.55967 0.0
O1265 O 0.68679 0.30427 0.59114 0.0
O1266 O 0.64681 0.26369 0.4723 0.0
O1267 O 0.62712 0.29783 0.45001 0.0
O1268 O 0.6578 0.33745 0.52338 0.0
O1269 O 0.63498 0.31104 0.5466 0.0
O1270 O 0.69666 0.34763 0.46268 0.0
O1271 O 0.67495 0.3175 0.43564 0.0
H1272 H 0.76197 0.37397 0.62005 0.0
H1273 H 0.7706 0.37389 0.696 0.0
H1274 H 0.70155 0.3487 0.71529 0.0
H1275 H 0.69347 0.34794 0.63898 0.0
H1276 H 0.59158 0.26767 0.39492 0.0
H1277 H 0.58885 0.25619 0.3226 0.0
H1278 H 0.66396 0.25383 0.32541 0.0
H1279 H 0.66644 0.26616 0.39739 0.0
H1280 H 0.06566 0.46895 0.26165 0.0
H1281 H 0.13691 0.46376 0.23155 0.0
H1282 H 0.14904 0.48795 0.28999 0.0
H1283 H 0.13926 0.50884 0.35168 0.0
H1284 H 0.06744 0.51615 0.37832 0.0
H1285 H 0.05537 0.49369 0.31812 0.0
C1286 C 0.08379 0.47329 0.268 0.0
C1287 C 0.10052 0.46453 0.24334 0.0
C1288 C 0.09039 0.48785 0.30041 0.0
C1289 C 0.12391 0.47036 0.2508 0.0
C1290 C 0.13078 0.48418 0.28396 0.0
C1291 C 0.12097 0.50583 0.34369 0.0
C1292 C 0.10425 0.51404 0.36912 0.0
C1293 C 0.11417 0.49285 0.30917 0.0
C1294 C 0.08056 0.51021 0.3587 0.0
C1295 C 0.07367 0.49713 0.32468 0.0
H1296 H 0.74048 0.92336 0.71027 0.0
H1297 H 0.71129 0.85142 0.71173 0.0
H1298 H 0.71607 0.85069 0.63724 0.0
H1299 H 0.73051 0.86904 0.57264 0.0
H1300 H 0.76321 0.93884 0.57124 0.0
H1301 H 0.75576 0.94152 0.64528 0.0
C1302 C 0.73533 0.90742 0.69448 0.0
C1303 C 0.72534 0.8876 0.71687 0.0
C1304 C 0.73898 0.90661 0.65176 0.0
C1305 C 0.71845 0.86729 0.69542 0.0
C1306 C 0.72143 0.86666 0.65278 0.0
C1307 C 0.73574 0.88497 0.58848 0.0
C1308 C 0.74711 0.90385 0.56677 0.0
C1309 C 0.73185 0.88607 0.63083 0.0
C1310 C 0.75436 0.92415 0.58761 0.0
C1311 C 0.75008 0.92567 0.62976 0.0
H1312 H 0.41649 0.50851 0.70687 0.0
H1313 H 0.43195 0.57744 0.75721 0.0
H1314 H 0.4201 0.56172 0.82523 0.0
H1315 H 0.40537 0.52867 0.87076 0.0
H1316 H 0.39021 0.45932 0.82246 0.0
H1317 H 0.40204 0.47489 0.75336 0.0
C1318 C 0.41733 0.52005 0.73275 0.0
C1319 C 0.42508 0.54415 0.72673 0.0
C1320 C 0.41049 0.51086 0.77215 0.0
C1321 C 0.42619 0.55879 0.76077 0.0
C1322 C 0.41931 0.54987 0.79979 0.0
C1323 C 0.40432 0.51707 0.84493 0.0
C1324 C 0.39665 0.49304 0.85141 0.0
C1325 C 0.41133 0.52602 0.80575 0.0
C1326 C 0.39602 0.47795 0.81807 0.0
C1327 C 0.40277 0.48683 0.77865 0.0
H1328 H 0.78681 0.12626 0.09913 0.0
H1329 H 0.72461 0.10888 0.16032 0.0
H1330 H 0.70121 0.11603 0.09312 0.0
H1331 H 0.69775 0.13131 1.01859 0.0
H1332 H 0.75941 0.1501 0.95699 0.0
H1333 H 0.78364 0.13858 1.02281 0.0
C1334 C 0.76817 0.12384 0.09762 0.0
C1335 C 0.75751 0.11713 0.13471 0.0
C1336 C 0.75466 0.12861 0.05897 0.0
C1337 C 0.73336 0.1137 0.13222 0.0
C1338 C 0.71988 0.11808 0.09386 0.0
C1339 C 0.7165 0.1328 1.01957 0.0
C1340 C 0.7268 0.14182 0.98334 0.0
C1341 C 0.73025 0.12621 0.05734 0.0
C1342 C 0.75113 0.14323 0.98466 0.0
C1343 C 0.76497 0.1367 1.02224 0.0
H1344 H 0.87983 0.51063 0.13512 0.0
H1345 H 0.94546 0.53495 0.09453 0.0
H1346 H 0.94042 0.51156 0.03312 0.0
H1347 H 0.91661 0.48595 0.98933 0.0
H1348 H 0.84917 0.46472 1.02471 0.0
H1349 H 0.85553 0.48497 0.09018 0.0
C1350 C 0.89301 0.51057 0.11285 0.0
C1351 C 0.91298 0.52433 0.11905 0.0
C1352 C 0.88964 0.49767 0.07694 0.0
C1353 C 0.92988 0.52457 0.08997 0.0
C1354 C 0.92706 0.51116 0.05504 0.0
C1355 C 0.90352 0.48544 1.01187 0.0
C1356 C 0.8827 0.47361 1.00312 0.0
C1357 C 0.90694 0.49786 0.04806 0.0
C1358 C 0.86545 0.47353 0.03151 0.0
C1359 C 0.86906 0.48517 0.06863 0.0
H1360 H 0.27628 0.08519 0.80345 0.0
H1361 H 0.20362 0.07182 0.77444 0.0
H1362 H 0.21004 0.07006 0.70017 0.0
H1363 H 0.23549 0.07574 0.64296 0.0
H1364 H 0.30775 0.0914 0.67078 0.0
H1365 H 0.30252 0.08809 0.74624 0.0
C1366 C 0.262 0.08141 0.78093 0.0
C1367 C 0.23949 0.07877 0.79421 0.0
C1368 C 0.26573 0.08092 0.73815 0.0
C1369 C 0.22104 0.07415 0.76476 0.0
C1370 C 0.2247 0.07313 0.72237 0.0
C1371 C 0.25011 0.07842 0.66553 0.0
C1372 C 0.27187 0.08417 0.65125 0.0
C1373 C 0.24683 0.07712 0.70859 0.0
C1374 C 0.29081 0.08692 0.68095 0.0
C1375 C 0.28779 0.08521 0.72407 0.0
H1376 H 0.60765 0.45425 0.51212 0.0
H1377 H 0.62446 0.52424 0.55609 0.0
H1378 H 0.61694 0.50879 0.62808 0.0
H1379 H 0.60294 0.47591 0.67719 0.0
H1380 H 0.58607 0.40632 0.63075 0.0
H1381 H 0.59616 0.42108 0.56115 0.0
C1382 C 0.60974 0.46607 0.53756 0.0
C1383 C 0.61631 0.49034 0.52902 0.0
C1384 C 0.60519 0.45718 0.57831 0.0
C1385 C 0.61942 0.50543 0.56217 0.0
C1386 C 0.61499 0.49665 0.60315 0.0
C1387 C 0.60162 0.46398 0.65187 0.0
C1388 C 0.59339 0.44017 0.65914 0.0
C1389 C 0.60745 0.47265 0.61144 0.0
C1390 C 0.59191 0.42487 0.62603 0.0
C1391 C 0.59779 0.43324 0.5861 0.0
H1392 H 0.26018 0.83937 0.40637 0.0
H1393 H 0.33056 0.84783 0.37276 0.0
H1394 H 0.31638 0.86123 0.30038 0.0
H1395 H 0.28462 0.86673 0.24541 0.0
H1396 H 0.21448 0.85169 0.27465 0.0
H1397 H 0.22766 0.84544 0.34989 0.0
C1398 C 0.27228 0.84457 0.38323 0.0
C1399 C 0.29637 0.84313 0.39499 0.0
C1400 C 0.26401 0.85094 0.3408 0.0
C1401 C 0.31195 0.84931 0.36462 0.0
C1402 C 0.30386 0.85679 0.32312 0.0
C1403 C 0.27216 0.86197 0.26814 0.0
C1404 C 0.2487 0.85922 0.25429 0.0
C1405 C 0.28001 0.85709 0.31071 0.0
C1406 C 0.23267 0.85396 0.2844 0.0
C1407 C 0.24023 0.85014 0.3274 0.0
H1408 H 0.628 0.976 0.8944 0.0
H1409 H 0.6233 0.04837 0.82798 0.0
H1410 H 0.61289 0.03056 0.76124 0.0
H1411 H 0.60215 -0.00587 0.72337 0.0
H1412 H 0.60358 0.92302 0.79457 0.0
H1413 H 0.61849 0.94055 0.85775 0.0
C1414 C 0.62538 0.98788 0.86515 0.0
C1415 C 0.62684 0.01337 0.86582 0.0
C1416 C 0.61849 0.97769 0.82786 0.0
C1417 C 0.62251 0.02862 0.82796 0.0
C1418 C 0.61643 0.01845 0.79 0.0
C1419 C 0.60589 0.98257 0.75272 0.0
C1420 C 0.60174 0.95731 0.75423 0.0
C1421 C 0.61385 -0.00701 0.78975 0.0
C1422 C 0.60645 0.94252 0.7925 0.0
C1423 C 0.61507 0.9525 0.82875 0.0
H1424 H 0.23256 0.42298 0.06714 0.0
H1425 H 0.29004 0.37022 0.0975 0.0
H1426 H 0.28234 0.36702 0.17157 0.0
H1427 H 0.25819 0.37751 0.22696 0.0
H1428 H 0.20099 0.43046 0.19847 0.0
H1429 H 0.20948 0.43531 0.12409 0.0
C1430 C 0.24342 0.41091 0.09012 0.0
C1431 C 0.26183 0.39687 0.07702 0.0
C1432 C 0.23882 0.40906 0.13269 0.0
C1433 C 0.27596 0.38144 0.10698 0.0
C1434 C 0.27146 0.37944 0.14924 0.0
C1435 C 0.24763 0.3901 0.20431 0.0
C1436 C 0.22888 0.4034 0.21748 0.0
C1437 C 0.25278 0.39289 0.16226 0.0
C1438 C 0.21546 0.42002 0.18852 0.0
C1439 C 0.22031 0.42273 0.14622 0.0
H1440 H 0.89825 0.06006 0.24351 0.0
H1441 H 0.89899 -0.00757 0.18386 0.0
H1442 H 0.88704 0.97017 0.24792 0.0
H1443 H 0.8795 0.96958 0.32257 0.0
H1444 H 0.8797 0.03731 0.38201 0.0
H1445 H 0.88771 0.06005 0.31587 0.0
C1446 C 0.89572 0.04046 0.24448 0.0
C1447 C 0.89981 0.02778 0.20943 0.0
C1448 C 0.88894 0.02787 0.28124 0.0
C1449 C 0.896 0.00252 0.21065 0.0
C1450 C 0.88925 0.9898 0.24724 0.0
C1451 C 0.88114 0.98934 0.32085 0.0
C1452 C 0.87916 0.00174 0.35705 0.0
C1453 C 0.88614 0.00222 0.28298 0.0
C1454 C 0.88094 0.02739 0.35442 0.0
C1455 C 0.88573 0.04037 0.31677 0.0
H1456 H 0.25464 0.64421 0.48184 0.0
H1457 H 0.18803 0.61817 0.51398 0.0
H1458 H 0.20431 0.60489 0.58557 0.0
H1459 H 0.23603 0.6048 0.64053 0.0
H1460 H 0.30075 0.63766 0.61262 0.0
H1461 H 0.28715 0.6433 0.53769 0.0
C1462 C 0.24393 0.63518 0.50446 0.0
C1463 C 0.2203 0.63179 0.49285 0.0
C1464 C 0.25311 0.62891 0.54629 0.0
C1465 C 0.20631 0.62065 0.52233 0.0
C1466 C 0.21559 0.61317 0.56323 0.0
C1467 C 0.2472 0.61326 0.61814 0.0
C1468 C 0.26917 0.62123 0.63234 0.0
C1469 C 0.23875 0.61787 0.57582 0.0
C1470 C 0.28375 0.63129 0.60263 0.0
C1471 C 0.27589 0.63477 0.55981 0.0
H1472 H 0.38282 0.00503 0.64183 0.0
H1473 H 0.44665 0.03188 0.59714 0.0
H1474 H 0.44102 0.00863 0.5354 0.0
H1475 H 0.41645 0.98331 0.49178 0.0
H1476 H 0.35044 0.96029 0.53182 0.0
H1477 H 0.3583 0.97921 0.5982 0.0
C1478 C 0.3956 0.00542 0.61878 0.0
C1479 C 0.41515 0.01991 0.62376 0.0
C1480 C 0.39175 -0.00719 0.5827 0.0
C1481 C 0.43146 0.02082 0.59358 0.0
C1482 C 0.42825 0.00756 0.55844 0.0
C1483 C 0.40405 0.98209 0.51555 0.0
C1484 C 0.38312 0.97023 0.50775 0.0
C1485 C 0.40828 -0.00615 0.55237 0.0
C1486 C 0.36677 0.96917 0.53781 0.0
C1487 C 0.37123 0.98005 0.57546 0.0
H1488 H 0.77742 0.5512 0.16914 0.0
H1489 H 0.79684 0.62701 0.16152 0.0
H1490 H 0.7896 0.62921 0.23496 0.0
H1491 H 0.77369 0.61121 0.2988 0.0
H1492 H 0.75197 0.53634 0.30592 0.0
H1493 H 0.7641 0.53217 0.23523 0.0
C1494 C 0.78015 0.56817 0.18361 0.0
C1495 C 0.78745 0.58894 0.15961 0.0
C1496 C 0.77528 0.56958 0.22562 0.0
C1497 C 0.79145 0.61063 0.17918 0.0
C1498 C 0.78707 0.61202 0.22114 0.0
C1499 C 0.77166 0.59397 0.28485 0.0
C1500 C 0.76161 0.57424 0.3071 0.0
C1501 C 0.77832 0.59186 0.24419 0.0
C1502 C 0.75962 0.55179 0.28927 0.0
C1503 C 0.76645 0.54945 0.24884 0.0
H1504 H 0.10403 0.97961 0.18219 0.0
H1505 H 0.09557 0.90924 0.13274 0.0
H1506 H 0.10701 0.92598 0.06498 0.0
H1507 H 0.11713 0.96087 1.01835 0.0
H1508 H 0.12389 0.03212 0.06458 0.0
H1509 H 0.11528 0.01487 0.13496 0.0
C1510 C 0.10487 0.96796 0.15663 0.0
C1511 C 0.09895 0.94321 0.16258 0.0
C1512 C 0.11103 0.97789 0.11712 0.0
C1513 C 0.09991 0.92837 0.12906 0.0
C1514 C 0.10649 0.93791 0.09021 0.0
C1515 C 0.11721 0.97255 0.04404 0.0
C1516 C 0.12139 -0.00237 0.03654 0.0
C1517 C 0.11181 0.96266 0.08377 0.0
C1518 C 0.12075 0.01271 0.06976 0.0
C1519 C 0.11582 0.00286 0.10989 0.0
H1520 H 0.76325 0.39062 0.75958 0.0
H1521 H 0.72568 0.32348 0.76777 0.0
H1522 H 0.74117 0.31434 0.84102 0.0
H1523 H 0.76875 0.32303 0.90027 0.0
H1524 H 0.80813 0.38861 0.89103 0.0
H1525 H 0.78905 0.40056 0.82033 0.0
C1526 C 0.75839 0.37403 0.77741 0.0
C1527 C 0.74344 0.35772 0.758 0.0
C1528 C 0.76799 0.36842 0.81911 0.0
C1529 C 0.73692 0.33655 0.78191 0.0
C1530 C 0.74598 0.33113 0.82373 0.0
C1531 C 0.77281 0.34009 0.88279 0.0
C1532 C 0.78979 0.35492 0.9001 0.0
C1533 C 0.76198 0.34659 0.84223 0.0
C1534 C 0.79522 0.3769 0.87773 0.0
C1535 C 0.78428 0.38372 0.83749 0.0
H1536 H 0.12732 0.33418 0.36102 0.0
H1537 H 0.16265 0.39817 0.39766 0.0
H1538 H 0.15692 0.41686 0.32445 0.0
H1539 H 0.14125 0.41542 0.24921 0.0
H1540 H 0.10563 0.3514 0.21341 0.0
H1541 H 0.11212 0.33255 0.28626 0.0
C1542 C 0.13374 0.35231 0.35329 0.0
C1543 C 0.14576 0.36451 0.38569 0.0
C1544 C 0.13028 0.36302 0.31072 0.0
C1545 C 0.15383 0.38797 0.37403 0.0
C1546 C 0.15039 0.39876 0.33188 0.0
C1547 C 0.13493 0.39728 0.25716 0.0
C1548 C 0.12262 0.38507 0.22506 0.0
C1549 C 0.13865 0.38649 0.29977 0.0
C1550 C 0.11478 0.36153 0.23682 0.0
C1551 C 0.11857 0.35067 0.27876 0.0
H1552 H 0.87311 0.88162 0.55367 0.0
H1553 H 0.9413 0.86713 0.51308 0.0
H1554 H 0.92437 0.86156 0.44288 0.0
H1555 H 0.89047 0.85524 0.39536 0.0
H1556 H 0.82192 0.86413 0.43595 0.0
H1557 H 0.83827 0.87822 0.50235 0.0
C1558 C 0.88416 0.87753 0.52922 0.0
C1559 C 0.90846 0.87479 0.53889 0.0
C1560 C 0.87416 0.87355 0.48846 0.0
C1561 C 0.92256 0.86929 0.50687 0.0
C1562 C 0.91291 0.86615 0.46644 0.0
C1563 C 0.87906 0.8612 0.4181 0.0
C1564 C 0.85491 0.85932 0.41009 0.0
C1565 C 0.88876 0.8676 0.45717 0.0
C1566 C 0.84039 0.86644 0.44031 0.0
C1567 C 0.84989 0.87388 0.47891 0.0
H1568 H 0.38774 0.66757 0.76799 0.0
H1569 H 0.36343 0.60084 0.82899 0.0
H1570 H 0.36965 0.57957 0.76625 0.0
H1571 H 0.38241 0.57969 0.69396 0.0
H1572 H 0.4038 0.64711 0.63073 0.0
H1573 H 0.39791 0.66837 0.6937 0.0
C1574 C 0.38372 0.64836 0.76762 0.0
C1575 C 0.37521 0.63586 0.80376 0.0
C1576 C 0.38678 0.63637 0.73072 0.0
C1577 C 0.37002 0.611 0.80211 0.0
C1578 C 0.37356 0.59882 0.76603 0.0
C1579 C 0.38575 0.59908 0.69373 0.0
C1580 C 0.39447 0.61151 0.65768 0.0
C1581 C 0.38195 0.61128 0.7301 0.0
C1582 C 0.39796 0.63679 0.65817 0.0
C1583 C 0.39448 0.64899 0.69429 0.0
H1584 H 0.61994 0.14121 0.90172 0.0
H1585 H 0.67793 0.09172 0.94812 0.0
H1586 H 0.65964 0.08126 1.01312 0.0
H1587 H 0.62769 0.08703 0.05818 0.0
H1588 H 0.5696 0.13617 1.01277 0.0
H1589 H 0.58801 0.14729 0.94757 0.0
C1590 C 0.62842 0.12795 0.92592 0.0
C1591 C 0.65041 0.1175 0.92011 0.0
C1592 C 0.61818 0.12269 0.96421 0.0
C1593 C 0.66109 0.1002 0.95169 0.0
C1594 C 0.65078 0.09442 0.98922 0.0
C1595 C 0.61928 0.10042 0.0342 0.0
C1596 C 0.59756 0.11108 0.04055 0.0
C1597 C 0.62956 0.1059 0.99619 0.0
C1598 C 0.58672 0.12835 1.0092 0.0
C1599 C 0.59699 0.13423 0.9715 0.0
H1600 H 0.12188 0.59577 0.55065 0.0
H1601 H 0.06415 0.64039 0.48812 0.0
H1602 H 0.08476 0.64644 0.42452 0.0
H1603 H 0.1197 0.63938 0.3866 0.0
H1604 H 0.17548 0.59107 0.4473 0.0
H1605 H 0.15433 0.58432 0.50989 0.0
C1606 C 0.1135 0.60606 0.52266 0.0
C1607 C 0.09131 0.61706 0.52401 0.0
C1608 C 0.12494 0.60844 0.48535 0.0
C1609 C 0.08124 0.63163 0.4881 0.0
C1610 C 0.09291 0.63492 0.45146 0.0
C1611 C 0.12701 0.62707 0.41329 0.0
C1612 C 0.14936 0.61622 0.41251 0.0
C1613 C 0.11477 0.62333 0.44961 0.0
C1614 C 0.15843 0.59996 0.44709 0.0
C1615 C 0.14645 0.59625 0.48321 0.0
H1616 H 0.60171 0.85992 0.73997 0.0
H1617 H 0.65186 0.91662 0.73567 0.0
H1618 H 0.66333 0.90719 0.81054 0.0
H1619 H 0.66034 0.88187 0.87938 0.0
H1620 H 0.60957 0.82563 0.88299 0.0
H1621 H 0.59759 0.83587 0.8088 0.0
C1622 C 0.61503 0.87033 0.75523 0.0
C1623 C 0.62547 0.88928 0.73095 0.0
C1624 C 0.62184 0.86475 0.7994 0.0
C1625 C 0.64322 0.90192 0.75242 0.0
C1626 C 0.64989 0.89657 0.79587 0.0
C1627 C 0.64659 0.87192 0.86418 0.0
C1628 C 0.6364 0.85255 0.88803 0.0
C1629 C 0.63945 0.87793 0.8201 0.0
C1630 C 0.61826 0.84041 0.86657 0.0
C1631 C 0.61128 0.84619 0.82344 0.0
H1632 H 0.42197 0.38969 1.00355 0.0
H1633 H 0.36559 0.37735 0.0821 0.0
H1634 H 0.33952 0.37028 1.01984 0.0
H1635 H 0.33485 0.3624 0.94454 0.0
H1636 H 0.39147 0.37544 0.86705 0.0
H1637 H 0.41502 0.38949 0.92679 0.0
C1638 C 0.40383 0.38605 1.0069 0.0
C1639 C 0.39571 0.38368 0.04726 0.0
C1640 C 0.38891 0.38284 0.97094 0.0
C1641 C 0.37218 0.37907 0.05126 0.0
C1642 C 0.35729 0.37517 1.01565 0.0
C1643 C 0.35186 0.36944 0.94025 0.0
C1644 C 0.36127 0.36818 0.90125 0.0
C1645 C 0.36564 0.37644 0.97541 0.0
C1646 C 0.38366 0.37677 0.89647 0.0
C1647 C 0.39731 0.38428 0.93089 0.0
H1648 H 0.85083 0.11654 0.29131 0.0
H1649 H 0.90579 0.16822 0.28748 0.0
H1650 H 0.9154 0.15579 0.21976 0.0
H1651 H 0.90831 0.13055 0.15954 0.0
H1652 H 0.85433 0.07795 0.16359 0.0
H1653 H 0.84418 0.09067 0.23108 0.0
C1654 C 0.86505 0.12491 0.27596 0.0
C1655 C 0.87748 0.14341 0.29539 0.0
C1656 C 0.8707 0.11761 0.23605 0.0
C1657 C 0.89573 0.154 0.27401 0.0
C1658 C 0.90129 0.14695 0.23479 0.0
C1659 C 0.89461 0.12158 0.17538 0.0
C1660 C 0.88256 0.10289 0.15599 0.0
C1661 C 0.88894 0.12879 0.21522 0.0
C1662 C 0.86416 0.09233 0.17705 0.0
C1663 C 0.85833 0.09952 0.21618 0.0
H1664 H 0.8676 0.56747 0.11572 0.0
H1665 H 0.89374 0.63485 0.15779 0.0
H1666 H 0.88717 0.6546 0.08551 0.0
H1667 H 0.87457 0.65287 1.00948 0.0
H1668 H 0.84737 0.586 0.96724 0.0
H1669 H 0.85427 0.56598 0.03948 0.0
C1670 C 0.87181 0.58653 0.10927 0.0
C1671 C 0.88146 0.59947 0.14295 0.0
C1672 C 0.86806 0.59786 0.06703 0.0
C1673 C 0.88666 0.62419 0.13313 0.0
C1674 C 0.88284 0.63555 0.09151 0.0
C1675 C 0.87014 0.63386 1.01584 0.0
C1676 C 0.86027 0.62112 0.98214 0.0
C1677 C 0.87374 0.62256 0.05803 0.0
C1678 C 0.85476 0.59648 0.99189 0.0
C1679 C 0.85876 0.58498 0.03349 0.0
H1680 H 0.07653 0.10621 0.876 0.0
H1681 H 0.13348 0.10295 0.79755 0.0
H1682 H 0.16086 0.1114 0.85697 0.0
H1683 H 0.16742 0.12488 0.92865 0.0
H1684 H 0.11037 0.12842 1.0063 0.0
H1685 H 0.08428 0.11333 0.95083 0.0
C1686 C 0.09498 0.10718 0.8721 0.0
C1687 C 0.103 0.10461 0.83231 0.0
C1688 C 0.11061 0.11149 0.90664 0.0
C1689 C 0.12695 0.10529 0.8278 0.0
C1690 C 0.1426 0.10996 0.86185 0.0
C1691 C 0.14964 0.1212 0.93418 0.0
C1692 C 0.14102 0.12733 0.9719 0.0
C1693 C 0.13455 0.11363 0.90121 0.0
C1694 C 0.11757 0.12325 0.97799 0.0
C1695 C 0.10254 0.11511 0.9459 0.0
H1696 H 0.62064 0.31673 0.6195 0.0
H1697 H 0.65702 0.37882 0.56864 0.0
H1698 H 0.65061 0.40004 0.63145 0.0
H1699 H 0.63443 0.4011 0.70091 0.0
H1700 H 0.59834 0.33883 0.75181 0.0
H1701 H 0.60504 0.31753 0.68929 0.0
C1702 C 0.62715 0.33497 0.62191 0.0
C1703 C 0.63929 0.34613 0.58877 0.0
C1704 C 0.62352 0.347 0.65845 0.0
C1705 C 0.64766 0.3697 0.59317 0.0
C1706 C 0.644 0.38183 0.6293 0.0
C1707 C 0.6281 0.38278 0.69862 0.0
C1708 C 0.61551 0.37178 0.73131 0.0
C1709 C 0.63198 0.37067 0.66222 0.0
C1710 C 0.60763 0.348 0.72723 0.0
C1711 C 0.61157 0.33578 0.69138 0.0
H1712 H 0.34124 0.87551 0.43422 0.0
H1713 H 0.39709 0.84223 0.5208 0.0
H1714 H 0.42441 0.84872 0.46633 0.0
H1715 H 0.432 0.86264 0.39304 0.0
H1716 H 0.37489 0.89125 0.30468 0.0
H1717 H 0.34853 0.88809 0.36072 0.0
C1718 C 0.35945 0.8699 0.44132 0.0
C1719 C 0.36718 0.8585 0.48159 0.0
C1720 C 0.37474 0.87262 0.40928 0.0
C1721 C 0.39077 0.85115 0.49013 0.0
C1722 C 0.40632 0.85468 0.45887 0.0
C1723 C 0.41369 0.8678 0.38592 0.0
C1724 C 0.40548 0.87771 0.34485 0.0
C1725 C 0.39842 0.86501 0.41808 0.0
C1726 C 0.38172 0.88413 0.3362 0.0
C1727 C 0.36662 0.88219 0.36822 0.0
H1728 H 0.93089 0.36197 0.88996 0.0
H1729 H 0.87267 0.38991 0.80356 0.0
H1730 H 0.8477 0.38951 0.86174 0.0
H1731 H 0.84225 0.3806 0.93705 0.0
H1732 H 0.89895 0.34807 1.0222 0.0
H1733 H 0.92501 0.35171 0.96522 0.0
C1734 C 0.91267 0.36773 0.88383 0.0
C1735 C 0.90367 0.37627 0.84253 0.0
C1736 C 0.89833 0.3671 0.91746 0.0
C1737 C 0.88005 0.38359 0.83514 0.0
C1738 C 0.86579 0.38341 0.86843 0.0
C1739 C 0.86036 0.37455 0.94317 0.0
C1740 C 0.86872 0.36423 0.98377 0.0
C1741 C 0.87476 0.37533 0.90974 0.0
C1742 C 0.89221 0.35628 0.99127 0.0
C1743 C 0.907 0.35812 0.9586 0.0
H1744 H 0.34906 0.09459 0.48273 0.0
H1745 H 0.3717 0.16781 0.49901 0.0
H1746 H 0.37996 0.15719 0.57412 0.0
H1747 H 0.38132 0.12714 0.63773 0.0
H1748 H 0.36368 0.05251 0.62105 0.0
H1749 H 0.35316 0.06354 0.54624 0.0
C1750 C 0.35568 0.10827 0.50261 0.0
C1751 C 0.35909 0.13231 0.48397 0.0
C1752 C 0.36158 0.10173 0.54694 0.0
C1753 C 0.36838 0.14926 0.51129 0.0
C1754 C 0.37325 0.14322 0.55492 0.0
C1755 C 0.37573 0.11311 0.61773 0.0
C1756 C 0.37412 0.08872 0.63607 0.0
C1757 C 0.37007 0.11947 0.57345 0.0
C1758 C 0.36553 0.0714 0.60884 0.0
C1759 C 0.35942 0.07771 0.56544 0.0
H1760 H 0.58244 0.60366 0.37102 0.0
H1761 H 0.64084 0.60368 0.29538 0.0
H1762 H 0.6675 0.60768 0.35838 0.0
H1763 H 0.67272 0.61727 0.43219 0.0
H1764 H 0.61435 0.61671 0.50737 0.0
H1765 H 0.58902 0.60529 0.44764 0.0
C1766 C 0.60103 0.60431 0.36838 0.0
C1767 C 0.60971 0.60402 0.32859 0.0
C1768 C 0.61616 0.60597 0.40472 0.0
C1769 C 0.63382 0.60438 0.32566 0.0
C1770 C 0.64901 0.60652 0.36165 0.0
C1771 C 0.65488 0.61338 0.43637 0.0
C1772 C 0.64562 0.61761 0.47453 0.0
C1773 C 0.64027 0.60796 0.40117 0.0
C1774 C 0.62204 0.6131 0.47866 0.0
C1775 C 0.60744 0.60714 0.44418 0.0
H1776 H 0.12218 0.81529 0.11878 0.0
H1777 H 0.15669 0.87778 0.0645 0.0
H1778 H 0.15178 0.89899 0.12785 0.0
H1779 H 0.13738 0.90003 0.19899 0.0
H1780 H 0.10253 0.83763 0.25268 0.0
H1781 H 0.1081 0.81619 0.1899 0.0
C1782 C 0.12862 0.83361 0.12059 0.0
C1783 C 0.13991 0.8448 0.08635 0.0
C1784 C 0.12577 0.8457 0.15744 0.0
C1785 C 0.14811 0.86853 0.08995 0.0
C1786 C 0.14527 0.88069 0.12639 0.0
C1787 C 0.1311 0.88165 0.19722 0.0
C1788 C 0.11921 0.87066 0.23089 0.0
C1789 C 0.13419 0.86947 0.16048 0.0
C1790 C 0.11136 0.84679 0.22745 0.0
C1791 C 0.11461 0.83448 0.19139 0.0
H1792 H 0.95779 0.5103 0.18268 0.0
H1793 H 0.01308 0.5367 0.26432 0.0
H1794 H 0.04148 0.5109 0.23379 0.0
H1795 H 0.05034 0.48146 0.18307 0.0
H1796 H 0.99478 0.45606 0.10077 0.0
H1797 H 0.96668 0.48233 0.13067 0.0
C1798 C 0.97598 0.51023 0.19434 0.0
C1799 C 0.98329 0.52524 0.22612 0.0
C1800 C 0.99218 0.49631 0.17537 0.0
C1801 C 0.00701 0.52503 0.24036 0.0
C1802 C 0.02325 0.51058 0.22247 0.0
C1803 C 0.03218 0.48206 0.17101 0.0
C1804 C 0.02462 0.46689 0.13959 0.0
C1805 C 0.01605 0.49647 0.18948 0.0
C1806 C 1.00099 0.46775 0.1246 0.0
C1807 C 0.98491 0.48244 0.14217 0.0
H1808 H 0.7949 0.75271 0.40048 0.0
H1809 H 0.72653 0.78481 0.35913 0.0
H1810 H 0.70886 0.75235 0.40201 0.0
H1811 H 0.71328 0.71778 0.45557 0.0
H1812 H 0.78124 0.68436 0.49567 0.0
H1813 H 0.79913 0.71626 0.45136 0.0
C1814 C 0.7761 0.75236 0.40032 0.0
C1815 C 0.76197 0.77122 0.37731 0.0
C1816 C 0.76624 0.73437 0.42624 0.0
C1817 C 0.73768 0.77047 0.37672 0.0
C1818 C 0.72765 0.75221 0.40174 0.0
C1819 C 0.73202 0.71735 0.45465 0.0
C1820 C 0.74597 0.69872 0.47855 0.0
C1821 C 0.74185 0.73468 0.4276 0.0
C1822 C 0.77023 0.69867 0.47769 0.0
C1823 C 0.78035 0.71659 0.45188 0.0
H1824 H 0.54974 0.47353 0.71641 0.0
H1825 H 0.48662 0.44727 0.76533 0.0
H1826 H 0.46396 0.48034 0.72175 0.0
H1827 H 0.46253 0.51674 0.67033 0.0
H1828 H 0.52597 0.5435 0.62418 0.0
H1829 H 0.54813 0.50896 0.66418 0.0
C1830 C 0.53105 0.47508 0.71791 0.0
C1831 C 0.51987 0.45806 0.74424 0.0
C1832 C 0.51819 0.49359 0.69208 0.0
C1833 C 0.49562 0.46031 0.74554 0.0
C1834 C 0.48266 0.47898 0.72027 0.0
C1835 C 0.48104 0.51467 0.66814 0.0
C1836 C 0.49259 0.53236 0.64387 0.0
C1837 C 0.49376 0.49557 0.6931 0.0
C1838 C 0.51674 0.52975 0.6421 0.0
C1839 C 0.52942 0.5103 0.6655 0.0
H1840 H 0.70612 0.25576 0.91505 0.0
H1841 H 0.74672 0.19128 0.89397 0.0
H1842 H 0.78141 0.20806 0.92908 0.0
H1843 H 0.79899 0.23961 0.97063 0.0
H1844 H 0.7577 0.30367 0.99217 0.0
H1845 H 0.72391 0.28794 0.95315 0.0
C1846 C 0.7227 0.24557 0.9174 0.0
C1847 C 0.72396 0.2223 0.90226 0.0
C1848 C 0.74208 0.25486 0.93891 0.0
C1849 C 0.74544 0.20931 0.90517 0.0
C1850 C 0.76512 0.21873 0.92583 0.0
C1851 C 0.78251 0.24998 0.96732 0.0
C1852 C 0.78064 0.27259 0.98488 0.0
C1853 C 0.7634 0.24112 0.94398 0.0
C1854 C 0.75936 0.28605 0.97952 0.0
C1855 C 0.74019 0.27722 0.95682 0.0
H1856 H 0.95339 0.50007 0.70223 0.0
H1857 H 1.00008 0.4408 0.75885 0.0
H1858 H 0.03211 0.45885 0.72287 0.0
H1859 H 0.04658 0.49144 0.67534 0.0
H1860 H 0.99972 0.55052 0.61851 0.0
H1861 H 0.96784 0.53266 0.65501 0.0
C1862 C 0.97061 0.49119 0.70674 0.0
C1863 C 0.97455 0.46931 0.73304 0.0
C1864 C 0.98879 0.50161 0.68608 0.0
C1865 C 0.99679 0.45777 0.73865 0.0
C1866 C 0.01505 0.46804 0.71817 0.0
C1867 C 0.02937 0.50034 0.67099 0.0
C1868 C 0.02532 0.52209 0.64438 0.0
C1869 C 0.01121 0.48995 0.69183 0.0
C1870 C 0.00309 0.53365 0.63893 0.0
C1871 C 0.98491 0.52348 0.65969 0.0
H1872 H 0.79407 0.72042 0.92176 0.0
H1873 H 0.72967 0.68825 0.88013 0.0
H1874 H 0.70768 0.72113 0.90814 0.0
H1875 H 0.707 0.75759 0.94721 0.0
H1876 H 0.77143 0.78945 0.98947 0.0
H1877 H 0.7934 0.75676 0.9609 0.0
C1878 C 0.77521 0.72061 0.91846 0.0
C1879 C 0.76352 0.70177 0.89904 0.0
C1880 C 0.7628 0.73891 0.93612 0.0
C1881 C 0.73908 0.70254 0.89476 0.0
C1882 C 0.72654 0.72114 0.91127 0.0
C1883 C 0.72586 0.75734 0.95052 0.0
C1884 C 0.73758 0.77602 0.97037 0.0
C1885 C 0.73826 0.73907 0.93277 0.0
C1886 C 0.76201 0.77526 0.97457 0.0
C1887 C 0.77454 0.75678 0.95773 0.0
H1888 H 0.45692 0.49936 0.1684 0.0
H1889 H 0.49998 0.43979 0.13411 0.0
H1890 H 0.53361 0.45448 0.17519 0.0
H1891 H 0.55061 0.48464 0.21969 0.0
H1892 H 0.50748 0.54431 0.25343 0.0
H1893 H 0.47376 0.52916 0.21345 0.0
C1894 C 0.4737 0.48965 0.16986 0.0
C1895 C 0.47618 0.4687 0.14827 0.0
C1896 C 0.49278 0.49817 0.19334 0.0
C1897 C 0.49784 0.45607 0.15053 0.0
C1898 C 0.51699 0.46442 0.17394 0.0
C1899 C 0.53378 0.49421 0.21843 0.0
C1900 C 0.53135 0.51545 0.2393 0.0
C1901 C 0.51463 0.48549 0.19533 0.0
C1902 C 0.50961 0.52788 0.23743 0.0
C1903 C 0.4904 0.51926 0.21464 0.0
H1904 H 0.75791 0.19103 0.43737 0.0
H1905 H 0.8115 0.23987 0.40064 0.0
H1906 H 0.79 0.27438 0.42472 0.0
H1907 H 0.75575 0.29083 0.45499 0.0
H1908 H 0.70215 0.24228 0.49262 0.0
H1909 H 0.72373 0.20752 0.46898 0.0
C1910 C 0.7649 0.20922 0.43475 0.0
C1911 C 0.78624 0.2129 0.417 0.0
C1912 C 0.75236 0.22903 0.44855 0.0
C1913 C 0.79512 0.23655 0.41405 0.0
C1914 C 0.7828 0.2563 0.42773 0.0
C1915 C 0.74874 0.27264 0.45804 0.0
C1916 C 0.72735 0.26914 0.47561 0.0
C1917 C 0.76134 0.25279 0.44475 0.0
C1918 C 0.71856 0.24546 0.47928 0.0
C1919 C 0.73093 0.22559 0.46581 0.0
H1920 H 0.2992 0.25998 0.91126 0.0
H1921 H 0.23414 0.2879 0.84451 0.0
H1922 H 0.21343 0.25595 0.88305 0.0
H1923 H 0.21368 0.2231 0.93926 0.0
H1924 H 0.27844 0.19446 1.00609 0.0
H1925 H 0.2996 0.22542 0.96557 0.0
C1926 C 0.28052 0.25892 0.90471 0.0
C1927 C 0.26807 0.27641 0.87555 0.0
C1928 C 0.26875 0.24126 0.92807 0.0
C1929 C 0.24398 0.27466 0.86697 0.0
C1930 C 0.23216 0.25666 0.88935 0.0
C1931 C 0.23243 0.2235 0.94515 0.0
C1932 C 0.24456 0.20655 0.97561 0.0
C1933 C 0.24433 0.24046 0.9208 0.0
C1934 C 0.2688 0.20746 0.98293 0.0
C1935 C 0.28085 0.22489 0.95947 0.0
H1936 H 0.24133 0.69094 0.44601 0.0
H1937 H 0.21759 0.75075 0.35349 0.0
H1938 H 0.24409 0.77824 0.38836 0.0
H1939 H 0.27309 0.78536 0.44611 0.0
H1940 H 0.29688 0.72557 0.53866 0.0
H1941 H 0.27048 0.69802 0.50367 0.0
C1942 C 0.24233 0.70986 0.43298 0.0
C1943 C 0.22782 0.71883 0.39697 0.0
C1944 C 0.25698 0.72566 0.45396 0.0
C1945 C 0.22887 0.74348 0.38092 0.0
C1946 C 0.24377 0.75922 0.40111 0.0
C1947 C 0.27216 0.76642 0.4591 0.0
C1948 C 0.28664 0.75749 0.49519 0.0
C1949 C 0.25757 0.7506 0.43807 0.0
C1950 C 0.28563 0.73283 0.51118 0.0
C1951 C 0.27079 0.71705 0.49092 0.0
H1952 H 0.29357 0.22544 0.41617 0.0
H1953 H 0.22801 0.19349 0.38129 0.0
H1954 H 0.2073 0.22666 0.41114 0.0
H1955 H 0.20821 0.26324 0.45014 0.0
H1956 H 0.27397 0.29444 0.48637 0.0
H1957 H 0.29453 0.2615 0.45592 0.0
C1958 C 0.27473 0.22569 0.41488 0.0
C1959 C 0.26235 0.20687 0.39673 0.0
C1960 C 0.26314 0.244 0.43388 0.0
C1961 C 0.23794 0.20778 0.39485 0.0
C1962 C 0.22615 0.22651 0.41251 0.0
C1963 C 0.22706 0.26278 0.45176 0.0
C1964 C 0.23955 0.2814 0.47034 0.0
C1965 C 0.23864 0.24436 0.4329 0.0
C1966 C 0.26397 0.28033 0.47246 0.0
C1967 C 0.27568 0.26172 0.45449 0.0
H1968 H 0.25998 0.68947 0.94352 0.0
H1969 H 0.31348 0.73804 0.90525 0.0
H1970 H 0.29107 0.77313 0.92531 0.0
H1971 H 0.25605 0.79009 0.95258 0.0
H1972 H 0.20256 0.74173 0.99146 0.0
H1973 H 0.22502 0.70647 0.97172 0.0
C1974 C 0.26677 0.70773 0.93974 0.0
C1975 C 0.28835 0.71116 0.92277 0.0
C1976 C 0.2537 0.72785 0.95108 0.0
C1977 C 0.29694 0.73491 0.91819 0.0
C1978 C 0.28409 0.75499 0.92952 0.0
C1979 C 0.24926 0.77184 0.95668 0.0
C1980 C 0.22765 0.76851 0.97352 0.0
C1981 C 0.26238 0.7517 0.9457 0.0
C1982 C 0.21913 0.74476 0.97862 0.0
C1983 C 0.23201 0.72461 0.96743 0.0
H1984 H 0.50635 0.04379 0.69168 0.0
H1985 H 0.45 0.00121 0.7359 0.0
H1986 H 0.4666 0.96474 0.70819 0.0
H1987 H 0.49658 0.94581 0.66932 0.0
H1988 H 0.55192 0.98966 0.62402 0.0
H1989 H 0.53527 0.0256 0.65225 0.0
C1990 C 0.49774 0.02648 0.69577 0.0
C1991 C 0.47689 0.02517 0.71553 0.0
C1992 C 0.50668 0.00623 0.67813 0.0
C1993 C 0.4661 0.00261 0.72085 0.0
C1994 C 0.47539 0.98193 0.70445 0.0
C1995 C 0.50463 0.96339 0.66463 0.0
C1996 C 0.52529 0.96529 0.64414 0.0
C1997 C 0.49539 0.98373 0.68217 0.0
C1998 C 0.53582 0.98799 0.6391 0.0
C1999 C 0.52655 0.00835 0.65583 0.0
H2000 H 0.99485 0.93967 0.22362 0.0
H2001 H 0.05418 0.98212 0.25814 0.0
H2002 H 0.03803 0.01685 0.20985 0.0
H2003 H 0.00782 0.03452 0.15674 0.0
H2004 H 0.94798 -0.00733 0.12276 0.0
H2005 H 0.96419 0.9577 0.17072 0.0
C2006 C 0.00397 0.95673 0.22134 0.0
C2007 C 0.02553 0.95852 0.2448 0.0
C2008 C 0.99495 0.97629 0.19255 0.0
C2009 C 0.03738 0.98053 0.24083 0.0
C2010 C 0.02834 0.00021 0.21279 0.0
C2011 C 0.99848 0.01761 0.1591 0.0
C2012 C 0.97683 0.01606 0.13583 0.0
C2013 C 0.00739 -0.00191 0.18794 0.0
C2014 C 0.96484 -0.00588 0.13989 0.0
C2015 C 0.97392 0.97431 0.16776 0.0
H2016 H 0.49539 0.9557 0.25647 0.0
H2017 H 0.441 0.00881 0.20592 0.0
H2018 H 0.46792 0.03023 0.16212 0.0
H2019 H 0.50609 0.03222 0.13475 0.0
H2020 H 0.56054 0.97904 0.18423 0.0
H2021 H 0.5344 0.95915 0.23183 0.0
C2022 C 0.48957 0.97205 0.23607 0.0
C2023 C 0.46639 0.98063 0.23407 0.0
C2024 C 0.50502 0.98409 0.21056 0.0
C2025 C 0.45888 0.00186 0.20776 0.0
C2026 C 0.47419 0.01409 0.18265 0.0
C2027 C 0.51222 0.01642 0.15621 0.0
C2028 C 0.53492 0.00687 0.15585 0.0
C2029 C 0.49716 0.00511 0.18327 0.0
C2030 C 0.54288 0.98645 0.18376 0.0
C2031 C 0.52802 0.97512 0.21101 0.0
H2032 H 0.95456 -0.00526 0.66601 0.0
H2033 H 1.00043 0.93887 0.62754 0.0
H2034 H 0.03302 0.95374 0.67093 0.0
H2035 H 0.04841 0.98304 0.71886 0.0
H2036 H 1.00258 0.0393 0.75633 0.0
H2037 H 0.96987 0.02388 0.71407 0.0
C2038 C 0.97172 0.98591 0.66706 0.0
C2039 C 0.97524 0.96585 0.64377 0.0
C2040 C 0.99027 -0.00541 0.69183 0.0
C2041 C 0.99743 0.95437 0.64543 0.0
C2042 C 0.01601 0.96285 0.67014 0.0
C2043 C 0.03121 0.99178 0.71792 0.0
C2044 C 0.02775 0.01213 0.74056 0.0
C2045 C 0.01262 0.98296 0.69339 0.0
C2046 C 0.00553 0.02354 0.73901 0.0
C2047 C 0.98688 0.01477 0.7149 0.0
H2048 H 0.05055 0.42448 0.99204 0.0
H2049 H 0.01337 0.37149 0.06615 0.0
H2050 H 0.98269 0.37176 1.00795 0.0
H2051 H 0.96591 0.38786 0.93526 0.0
H2052 H 0.00428 0.44047 0.86285 0.0
H2053 H 0.03451 0.44003 0.92124 0.0
C2054 C 0.03586 0.41281 0.99564 0.0
C2055 C 0.03451 0.39791 0.03375 0.0
C2056 C 0.01812 0.41338 0.96234 0.0
C2057 C 0.01517 0.38297 0.03725 0.0
C2058 C 0.99744 0.3833 1.004 0.0
C2059 C 0.98074 0.39946 0.93273 0.0
C2060 C 0.98266 0.41457 0.89501 0.0
C2061 C 0.99856 0.39865 0.96643 0.0
C2062 C 1.00226 0.42901 0.89172 0.0
C2063 C 0.01965 0.42861 0.925 0.0
H2064 H 0.82847 0.65808 0.05657 0.0
H2065 H 0.83353 0.72749 0.9826 0.0
H2066 H 0.83881 0.7482 0.04703 0.0
H2067 H 0.84124 0.74675 0.12416 0.0
H2068 H 0.83646 0.67743 0.19832 0.0
H2069 H 0.83223 0.65639 0.13388 0.0
C2070 C 0.83075 0.67773 0.05452 0.0
C2071 C 0.8305 0.69125 1.01484 0.0
C2072 C 0.83391 0.6895 0.09167 0.0
C2073 C 0.83373 0.71665 1.01274 0.0
C2074 C 0.83668 0.72852 0.04956 0.0
C2075 C 0.8391 0.72706 0.12619 0.0
C2076 C 0.83894 0.7137 0.16587 0.0
C2077 C 0.83664 0.71516 0.08914 0.0
C2078 C 0.83671 0.68811 0.16811 0.0
C2079 C 0.83417 0.6761 0.13132 0.0
H2080 H 0.51815 0.60923 0.36571 0.0
H2081 H 0.54565 0.53678 0.41257 0.0
H2082 H 0.52276 0.53735 0.4734 0.0
H2083 H 0.49373 0.55761 0.51215 0.0
H2084 H 0.46852 0.63136 0.46999 0.0
H2085 H 0.49169 0.63127 0.40876 0.0
C2086 C 0.51917 0.59362 0.38935 0.0
C2087 C 0.53344 0.57284 0.3842 0.0
C2088 C 0.50631 0.59432 0.42509 0.0
C2089 C 0.53485 0.55297 0.41556 0.0
C2090 C 0.52168 0.55325 0.45036 0.0
C2091 C 0.4934 0.57372 0.48961 0.0
C2092 C 0.47922 0.59438 0.49529 0.0
C2093 C 0.50718 0.57369 0.45525 0.0
C2094 C 0.47927 0.61526 0.46631 0.0
C2095 C 0.49246 0.61513 0.43123 0.0
H2096 H 0.67976 0.2403 0.78376 0.0
H2097 H 0.62877 0.19274 0.73272 0.0
H2098 H 0.62851 0.21584 0.66298 0.0
H2099 H 0.64642 0.24672 0.61532 0.0
H2100 H 0.69861 0.29302 0.66785 0.0
H2101 H 0.69492 0.27322 0.73808 0.0
C2102 C 0.66797 0.23564 0.7576 0.0
C2103 C 0.65391 0.21534 0.76321 0.0
C2104 C 0.66868 0.24833 0.71766 0.0
C2105 C 0.63921 0.2088 0.72913 0.0
C2106 C 0.63941 0.22173 0.68921 0.0
C2107 C 0.657 0.25243 0.64213 0.0
C2108 C 0.6731 0.27103 0.63606 0.0
C2109 C 0.65472 0.24099 0.68281 0.0
C2110 C 0.68631 0.27855 0.67134 0.0
C2111 C 0.68414 0.26733 0.71167 0.0
H2112 H 0.99223 0.6094 0.97446 0.0
H2113 H 0.92175 0.63681 0.93992 0.0
H2114 H 0.92734 0.63428 0.865 0.0
H2115 H 0.95311 0.62552 0.80958 0.0
H2116 H 0.02329 0.59721 0.84597 0.0
H2117 H 0.01695 0.59858 0.92017 0.0
C2118 C 0.97815 0.6149 0.95041 0.0
C2119 C 0.9568 0.6237 0.9622 0.0
C2120 C 0.98143 0.61312 0.90796 0.0
C2121 C 0.9384 0.63018 0.9312 0.0
C2122 C 0.94161 0.62875 0.88855 0.0
C2123 C 0.96693 0.61963 0.83387 0.0
C2124 C 0.98863 0.61133 0.82243 0.0
C2125 C 0.96317 0.62046 0.87657 0.0
C2126 C 0.00637 0.60344 0.85406 0.0
C2127 C 1.00283 0.60437 0.89644 0.0
H2128 H 0.67548 0.72082 0.38066 0.0
H2129 H 0.6886 0.64734 0.34757 0.0
H2130 H 0.68376 0.66214 0.27264 0.0
H2131 H 0.67613 0.69624 0.21575 0.0
H2132 H 0.66378 0.76976 0.24974 0.0
H2133 H 0.66837 0.75475 0.32426 0.0
C2134 C 0.67716 0.70795 0.35714 0.0
C2135 C 0.68223 0.68283 0.37022 0.0
C2136 C 0.6747 0.7167 0.31382 0.0
C2137 C 0.68464 0.66668 0.33886 0.0
C2138 C 0.68189 0.67519 0.29579 0.0
C2139 C 0.67428 0.70901 0.23936 0.0
C2140 C 0.66966 0.73428 0.22642 0.0
C2141 C 0.67693 0.7002 0.28276 0.0
C2142 C 0.66768 0.75036 0.2581 0.0
C2143 C 0.67013 0.74174 0.30101 0.0
H2144 H 0.5109 0.3279 0.51664 0.0
H2145 H 0.54804 0.39517 0.5173 0.0
H2146 H 0.5415 0.4017 0.4405 0.0
H2147 H 0.5238 0.38913 0.37318 0.0
H2148 H 0.48592 0.32231 0.37326 0.0
H2149 H 0.49405 0.31491 0.4496 0.0
C2150 C 0.51752 0.34403 0.50001 0.0
C2151 C 0.52986 0.36104 0.5228 0.0
C2152 C 0.51346 0.34783 0.4559 0.0
C2153 C 0.53869 0.38162 0.5006 0.0
C2154 C 0.53479 0.38548 0.45666 0.0
C2155 C 0.51726 0.37301 0.38998 0.0
C2156 C 0.50427 0.35632 0.3675 0.0
C2157 C 0.52196 0.36886 0.43402 0.0
C2158 C 0.49619 0.33532 0.38967 0.0
C2159 C 0.50073 0.33112 0.43338 0.0
H2160 H 0.85413 0.23997 0.76534 0.0
H2161 H 0.90203 0.29837 0.7479 0.0
H2162 H 0.90583 0.28853 0.67569 0.0
H2163 H 0.89609 0.26283 0.6176 0.0
H2164 H 0.84882 0.20394 0.63591 0.0
H2165 H 0.84433 0.21443 0.70741 0.0
C2166 C 0.86554 0.25046 0.74588 0.0
C2167 C 0.8778 0.26988 0.76228 0.0
C2168 C 0.86778 0.2446 0.70438 0.0
C2169 C 0.89215 0.28352 0.73614 0.0
C2170 C 0.89447 0.27779 0.69485 0.0
C2171 C 0.88493 0.25219 0.63733 0.0
C2172 C 0.87279 0.23262 0.62117 0.0
C2173 C 0.88247 0.25829 0.67867 0.0
C2174 C 0.85813 0.21929 0.64713 0.0
C2175 C 0.85565 0.22519 0.68821 0.0
H2176 H 0.0333 0.60127 0.4397 0.0
H2177 H 0.99318 0.55041 0.51204 0.0
H2178 H 0.96382 0.55025 0.45222 0.0
H2179 H 0.94937 0.56444 0.37957 0.0
H2180 H 0.98809 0.61659 0.30672 0.0
H2181 H 0.01766 0.61692 0.36645 0.0
C2182 C 0.01822 0.59001 0.44199 0.0
C2183 C 0.01557 0.57551 0.47998 0.0
C2184 C 1.00091 0.5906 0.40761 0.0
C2185 C 0.9957 0.56146 0.48298 0.0
C2186 C 0.97884 0.56148 0.44886 0.0
C2187 C 0.96414 0.57611 0.37672 0.0
C2188 C 0.96633 0.59052 0.33844 0.0
C2189 C 0.98117 0.57606 0.4111 0.0
C2190 C 0.98568 0.6055 0.33575 0.0
C2191 C 1.00278 0.6055 0.36987 0.0
H2192 H 0.182 0.32773 0.31333 0.0
H2193 H 0.16485 0.26044 0.38343 0.0
H2194 H 0.15913 0.24077 0.31791 0.0
H2195 H 0.16022 0.24227 0.24095 0.0
H2196 H 0.17845 0.30919 0.17131 0.0
H2197 H 0.18283 0.32936 0.23662 0.0
C2198 C 0.17713 0.30872 0.3144 0.0
C2199 C 0.17403 0.29553 0.35333 0.0
C2200 C 0.17416 0.29744 0.27671 0.0
C2201 C 0.16732 0.27104 0.35394 0.0
C2202 C 0.16412 0.25974 0.31648 0.0
C2203 C 0.165 0.26132 0.24008 0.0
C2204 C 0.16903 0.27422 0.2014 0.0
C2205 C 0.16765 0.27271 0.27774 0.0
C2206 C 0.17549 0.29881 0.20077 0.0
C2207 C 0.1779 0.31036 0.23804 0.0
H2208 H 0.48994 0.37759 1.01574 0.0
H2209 H 0.46314 0.45038 0.96944 0.0
H2210 H 0.48684 0.45017 0.90965 0.0
H2211 H 0.51634 0.43009 0.87163 0.0
H2212 H 0.54073 0.35596 0.91288 0.0
H2213 H 0.51685 0.35575 0.97321 0.0
C2214 C 0.48925 0.39336 0.99246 0.0
C2215 C 0.47495 0.41414 0.99753 0.0
C2216 C 0.50255 0.39286 0.95724 0.0
C2217 C 0.47398 0.43421 0.96657 0.0
C2218 C 0.4876 0.43412 0.93234 0.0
C2219 C 0.51633 0.41383 0.89376 0.0
C2220 C 0.53049 0.39314 0.88808 0.0
C2221 C 0.50212 0.41368 0.92756 0.0
C2222 C 0.53001 0.37208 0.91655 0.0
C2223 C 0.51641 0.37204 0.95112 0.0
H2224 H 0.33563 0.7942 0.67465 0.0
H2225 H 0.36906 0.74091 0.60602 0.0
H2226 H 0.3686 0.70998 0.66645 0.0
H2227 H 0.35565 0.69741 0.73693 0.0
H2228 H 0.32454 0.75176 0.80651 0.0
H2229 H 0.32658 0.78298 0.74718 0.0
C2230 C 0.34325 0.77595 0.67331 0.0
C2231 C 0.35235 0.76976 0.63614 0.0
C2232 C 0.34277 0.75837 0.70788 0.0
C2233 C 0.36223 0.74613 0.63462 0.0
C2234 C 0.36166 0.72837 0.66889 0.0
C2235 C 0.34933 0.7161 0.73883 0.0
C2236 C 0.33958 0.72238 0.77536 0.0
C2237 C 0.3514 0.73413 0.70525 0.0
C2238 C 0.33187 0.74665 0.77827 0.0
C2239 C 0.33314 0.76446 0.74456 0.0
H2240 H 0.00951 0.39046 0.39981 0.0
H2241 H 0.07681 0.35431 0.43308 0.0
H2242 H 0.07135 0.35543 0.50831 0.0
H2243 H 0.04626 0.36495 0.56426 0.0
H2244 H 0.97907 0.40141 0.52937 0.0
H2245 H 0.98572 0.40213 0.45499 0.0
C2246 C 0.02296 0.38282 0.42362 0.0
C2247 C 0.04333 0.37196 0.41127 0.0
C2248 C 0.0197 0.38363 0.46636 0.0
C2249 C 0.06094 0.36264 0.44212 0.0
C2250 C 0.05777 0.36322 0.48498 0.0
C2251 C 0.03314 0.37308 0.54028 0.0
C2252 C 0.01218 0.38303 0.55225 0.0
C2253 C 0.03705 0.37337 0.49744 0.0
C2254 C 0.99543 0.39384 0.52099 0.0
C2255 C 0.99914 0.39411 0.47845 0.0
H2256 H 0.30486 0.31187 1.01975 0.0
H2257 H 0.36025 0.26833 0.97706 0.0
H2258 H 0.36778 0.24688 0.04728 0.0
H2259 H 0.35837 0.2393 0.12099 0.0
H2260 H 0.30279 0.28209 0.16455 0.0
H2261 H 0.29561 0.3044 0.09458 0.0
C2262 C 0.31868 0.29781 1.02583 0.0
C2263 C 0.33192 0.29192 0.99252 0.0
C2264 C 0.32283 0.28506 0.06677 0.0
C2265 C 0.34963 0.2734 1.0015 0.0
C2266 C 0.354 0.26101 0.04192 0.0
C2267 C 0.34478 0.25363 0.11549 0.0
C2268 C 0.33118 0.25874 0.14871 0.0
C2269 C 0.34066 0.26651 0.07483 0.0
C2270 C 0.31342 0.27727 0.13999 0.0
C2271 C 0.30937 0.29026 0.09979 0.0
H2272 H 0.52898 0.61645 0.995 0.0
H2273 H 0.45794 0.63127 1.02074 0.0
H2274 H 0.44637 0.63846 0.94515 0.0
H2275 H 0.45645 0.64049 0.87165 0.0
H2276 H 0.5274 0.62461 0.84629 0.0
H2277 H 0.53895 0.61801 0.92175 0.0
C2278 C 0.51091 0.62098 0.98409 0.0
C2279 C 0.49436 0.62325 1.01355 0.0
C2280 C 0.50437 0.62506 0.94061 0.0
C2281 C 0.47109 0.62961 0.9988 0.0
C2282 C 0.46444 0.63364 0.95556 0.0
C2283 C 0.47441 0.63544 0.88262 0.0
C2284 C 0.49103 0.63316 0.85322 0.0
C2285 C 0.48094 0.63143 0.92616 0.0
C2286 C 0.5143 0.62692 0.8681 0.0
C2287 C 0.52091 0.62294 0.9113 0.0
H2288 H 0.10693 0.75625 0.74597 0.0
H2289 H 0.17559 0.72562 0.78878 0.0
H2290 H 0.18028 0.71286 0.71871 0.0
H2291 H 0.1651 0.71055 0.64469 0.0
H2292 H 0.09597 0.74013 0.60267 0.0
H2293 H 0.09136 0.75293 0.67267 0.0
C2294 C 0.12285 0.74656 0.74021 0.0
C2295 C 0.14089 0.74208 0.77296 0.0
C2296 C 0.12543 0.73908 0.6997 0.0
C2297 C 0.16151 0.72977 0.7643 0.0
C2298 C 0.16417 0.72228 0.72416 0.0
C2299 C 0.14893 0.71958 0.65088 0.0
C2300 C 0.131 0.72444 0.61799 0.0
C2301 C 0.14628 0.72687 0.69153 0.0
C2302 C 0.11029 0.73647 0.62685 0.0
C2303 C 0.10754 0.7437 0.6671 0.0
H2304 H 0.49894 0.88744 0.39646 0.0
H2305 H 0.45538 0.94596 0.43277 0.0
H2306 H 0.47765 0.9435 0.50196 0.0
H2307 H 0.51128 0.92644 0.55079 0.0
H2308 H 0.55371 0.86685 0.51571 0.0
H2309 H 0.53009 0.86777 0.44782 0.0
C2310 C 0.49423 0.89964 0.41953 0.0
C2311 C 0.47561 0.91718 0.40887 0.0
C2312 C 0.50691 0.8978 0.45969 0.0
C2313 C 0.4696 0.93242 0.43971 0.0
C2314 C 0.48239 0.93102 0.47938 0.0
C2315 C 0.51498 0.91327 0.52862 0.0
C2316 C 0.53405 0.8963 0.53858 0.0
C2317 C 0.50127 0.91399 0.48958 0.0
C2318 C 0.53892 0.87972 0.50922 0.0
C2319 C 0.52551 0.88044 0.47021 0.0
H2320 H 0.35073 0.21973 0.49737 0.0
H2321 H 0.29871 0.17149 0.54364 0.0
H2322 H 0.30311 0.18785 0.61173 0.0
H2323 H 0.32199 0.21506 0.65902 0.0
H2324 H 0.37454 0.26311 0.61528 0.0
H2325 H 0.36986 0.24749 0.54566 0.0
C2326 C 0.34027 0.213 0.5223 0.0
C2327 C 0.32443 0.19445 0.5153 0.0
C2328 C 0.34306 0.2223 0.56199 0.0
C2329 C 0.31114 0.18569 0.54807 0.0
C2330 C 0.3136 0.19503 0.58716 0.0
C2331 C 0.33226 0.22229 0.63412 0.0
C2332 C 0.34846 0.24027 0.64213 0.0
C2333 C 0.32955 0.21322 0.59452 0.0
C2334 C 0.36202 0.24912 0.60986 0.0
C2335 C 0.35928 0.24029 0.57005 0.0
H2336 H 0.95552 0.06383 0.96224 0.0
H2337 H 0.99938 0.10894 0.03683 0.0
H2338 H 0.02935 0.10678 0.98684 0.0
H2339 H 0.04341 0.09115 0.92151 0.0
H2340 H 0.9981 0.04668 0.8484 0.0
H2341 H 0.96878 0.04899 0.89867 0.0
C2342 C 0.97153 0.07341 0.96769 0.0
C2343 C 0.975 0.08663 1.00346 0.0
C2344 C 0.98873 0.07178 0.93925 0.0
C2345 C 0.99599 0.09885 1.00948 0.0
C2346 C 0.01327 0.0974 0.98103 0.0
C2347 C 0.02724 0.08173 0.9171 0.0
C2348 C 0.02305 0.06843 0.88152 0.0
C2349 C 0.00997 0.08367 0.94592 0.0
C2350 C 1.00181 0.0568 0.87567 0.0
C2351 C 0.98496 0.05824 0.90428 0.0
H2352 H 0.14551 0.74891 0.1163 0.0
H2353 H 0.20957 0.78235 0.15616 0.0
H2354 H 0.2105 0.75923 0.2251 0.0
H2355 H 0.19462 0.72798 0.27257 0.0
H2356 H 0.13041 0.69442 0.23563 0.0
H2357 H 0.12763 0.71952 0.1672 0.0
C2358 C 0.15967 0.75103 0.14011 0.0
C2359 C 0.17765 0.76702 0.13091 0.0
C2360 C 0.15992 0.73789 0.18019 0.0
C2361 C 0.19562 0.77005 0.16232 0.0
C2362 C 0.19616 0.75688 0.20179 0.0
C2363 C 0.17982 0.72644 0.2497 0.0
C2364 C 0.16276 0.70945 0.25871 0.0
C2365 C 0.17858 0.74061 0.21084 0.0
C2366 C 0.14359 0.70761 0.22927 0.0
C2367 C 0.14219 0.72174 0.19011 0.0
H2368 H 0.44957 0.11232 0.30285 0.0
H2369 H 0.52273 0.09607 0.33724 0.0
H2370 H 0.51708 0.10011 0.41114 0.0
H2371 H 0.49154 0.10867 0.46622 0.0
H2372 H 0.4182 0.12391 0.43293 0.0
H2373 H 0.42369 0.11991 0.35863 0.0
C2374 C 0.46426 0.10974 0.32655 0.0
C2375 C 0.48655 0.10388 0.31442 0.0
C2376 C 0.46086 0.11196 0.36924 0.0
C2377 C 0.50536 0.10031 0.34565 0.0
C2378 C 0.50217 0.10276 0.38795 0.0
C2379 C 0.47679 0.11127 0.44263 0.0
C2380 C 0.45453 0.11676 0.45504 0.0
C2381 C 0.48004 0.10866 0.40011 0.0
C2382 C 0.4355 0.1196 0.42421 0.0
C2383 C 0.43865 0.11738 0.38172 0.0
H2384 H 0.17414 0.2071 0.71352 0.0
H2385 H 0.15462 0.27867 0.74867 0.0
H2386 H 0.15872 0.26302 0.8229 0.0
H2387 H 0.16795 0.22921 0.87867 0.0
H2388 H 0.18778 0.15754 0.84454 0.0
H2389 H 0.18355 0.17299 0.76993 0.0
C2390 C 0.17091 0.21935 0.73737 0.0
C2391 C 0.16386 0.24414 0.72486 0.0
C2392 C 0.1733 0.21015 0.78059 0.0
C2393 C 0.15964 0.25948 0.75673 0.0
C2394 C 0.1621 0.25055 0.79947 0.0
C2395 C 0.17122 0.21684 0.85501 0.0
C2396 C 0.17814 0.19209 0.86775 0.0
C2397 C 0.16882 0.22591 0.81187 0.0
C2398 C 0.18245 0.17661 0.83616 0.0
C2399 C 0.18004 0.18548 0.79325 0.0
H2400 H 0.00591 0.88218 1.01416 0.0
H2401 H 0.07202 0.84322 1.01442 0.0
H2402 H 0.06824 0.8468 0.93708 0.0
H2403 H 0.04518 0.85961 0.86955 0.0
H2404 H 0.97891 0.8983 0.87046 0.0
H2405 H 0.98383 0.89646 0.94719 0.0
C2406 C 0.01944 0.87437 0.99724 0.0
C2407 C 0.03904 0.86214 1.01983 0.0
C2408 C 0.01715 0.87655 0.95304 0.0
C2409 C 0.05674 0.85267 0.99762 0.0
C2410 C 0.05455 0.85465 0.95348 0.0
C2411 C 0.03184 0.86763 0.88659 0.0
C2412 C 0.01168 0.87902 0.86426 0.0
C2413 C 0.03468 0.86632 0.93087 0.0
C2414 C 0.99471 0.88967 0.88676 0.0
C2415 C 0.99741 0.88846 0.93069 0.0
H2416 H 0.36067 0.73086 0.27349 0.0
H2417 H 0.40445 0.79284 0.25568 0.0
H2418 H 0.40809 0.78422 0.18273 0.0
H2419 H 0.39933 0.75858 0.12401 0.0
H2420 H 0.35564 0.69658 0.14243 0.0
H2421 H 0.35156 0.70564 0.21487 0.0
C2422 C 0.37113 0.74242 0.25375 0.0
C2423 C 0.38233 0.76243 0.27026 0.0
C2424 C 0.37318 0.73732 0.2118 0.0
C2425 C 0.39545 0.77745 0.24383 0.0
C2426 C 0.39766 0.77244 0.20212 0.0
C2427 C 0.38903 0.74698 0.14398 0.0
C2428 C 0.37777 0.72693 0.12764 0.0
C2429 C 0.38671 0.75234 0.18579 0.0
C2430 C 0.36424 0.7123 0.15388 0.0
C2431 C 0.362 0.71739 0.19545 0.0
H2432 H 0.47519 0.04972 0.83731 0.0
H2433 H 0.45642 0.12603 0.84298 0.0
H2434 H 0.48118 0.12594 0.90984 0.0
H2435 H 0.50722 0.10321 0.96863 0.0
H2436 H 0.52746 0.02762 0.95813 0.0
H2437 H 0.50316 0.02838 0.89165 0.0
C2438 C 0.47659 0.06646 0.85298 0.0
C2439 C 0.46374 0.08785 0.83511 0.0
C2440 C 0.4911 0.06628 0.89093 0.0
C2441 C 0.4661 0.10936 0.85572 0.0
C2442 C 0.48019 0.10921 0.89418 0.0
C2443 C 0.50632 0.08691 0.95175 0.0
C2444 C 0.51912 0.06522 0.969 0.0
C2445 C 0.49259 0.08765 0.91245 0.0
C2446 C 0.51793 0.0445 0.94605 0.0
C2447 C 0.50395 0.04492 0.90789 0.0
H2448 H 0.65801 0.78243 0.70242 0.0
H2449 H 0.67525 0.70793 0.75449 0.0
H2450 H 0.6773 0.721 0.82585 0.0
H2451 H 0.67622 0.7543 0.87346 0.0
H2452 H 0.66259 0.82891 0.81904 0.0
H2453 H 0.65708 0.81518 0.74889 0.0
C2454 C 0.66244 0.76903 0.72927 0.0
C2455 C 0.66659 0.74427 0.72295 0.0
C2456 C 0.66411 0.77672 0.76999 0.0
C2457 C 0.67174 0.7271 0.75836 0.0
C2458 C 0.67304 0.73457 0.79922 0.0
C2459 C 0.67172 0.76739 0.84621 0.0
C2460 C 0.66955 0.79254 0.85142 0.0
C2461 C 0.66944 0.7594 0.80544 0.0
C2462 C 0.66416 0.80945 0.81586 0.0
C2463 C 0.66112 0.80162 0.77565 0.0
H2464 H 0.0183 0.92777 0.36769 0.0
H2465 H 0.04449 0.85444 0.41047 0.0
H2466 H 0.02009 0.85369 0.47012 0.0
H2467 H 0.99246 0.87497 0.51187 0.0
H2468 H 0.96407 0.94697 0.4645 0.0
H2469 H 0.98797 0.94717 0.40486 0.0
C2470 C 0.01852 0.91155 0.38996 0.0
C2471 C 0.03333 0.89125 0.38499 0.0
C2472 C 0.00408 0.9111 0.42342 0.0
C2473 C 0.03323 0.87024 0.41363 0.0
C2474 C 0.01935 0.86989 0.4478 0.0
C2475 C 0.99146 0.89064 0.48835 0.0
C2476 C 0.97668 0.9111 0.49301 0.0
C2477 C 0.0049 0.89036 0.45335 0.0
C2478 C 0.97528 0.93105 0.46183 0.0
C2479 C 0.98902 0.9312 0.42773 0.0
H2480 H 0.83648 0.29764 0.17018 0.0
H2481 H 0.86372 0.24325 0.0961 0.0
H2482 H 0.86327 0.21187 0.15609 0.0
H2483 H 0.85204 0.19952 0.22823 0.0
H2484 H 0.8263 0.25501 0.30192 0.0
H2485 H 0.82881 0.28638 0.24318 0.0
C2486 C 0.84272 0.27899 0.16745 0.0
C2487 C 0.85008 0.27267 0.12896 0.0
C2488 C 0.84215 0.26121 0.20165 0.0
C2489 C 0.85824 0.24855 0.1257 0.0
C2490 C 0.85767 0.23058 0.15976 0.0
C2491 C 0.84691 0.21849 0.23109 0.0
C2492 C 0.83858 0.22504 0.26878 0.0
C2493 C 0.84906 0.23658 0.19754 0.0
C2494 C 0.83255 0.24966 0.27291 0.0
C2495 C 0.83406 0.26757 0.23948 0.0
H2496 H 0.50527 0.87284 0.90733 0.0
H2497 H 0.57912 0.86098 0.93917 0.0
H2498 H 0.57378 0.86502 1.01365 0.0
H2499 H 0.54784 0.87235 0.0695 0.0
H2500 H 0.47413 0.88515 0.03598 0.0
H2501 H 0.47966 0.8804 0.9623 0.0
C2502 C 0.52016 0.87084 0.93069 0.0
C2503 C 0.5425 0.86633 0.918 0.0
C2504 C 0.51697 0.87354 0.97303 0.0
C2505 C 0.56174 0.86441 0.94833 0.0
C2506 C 0.55868 0.86671 0.99082 0.0
C2507 C 0.53302 0.87398 0.04602 0.0
C2508 C 0.51062 0.87916 0.05816 0.0
C2509 C 0.53635 0.87134 1.00353 0.0
C2510 C 0.49158 0.88149 1.02737 0.0
C2511 C 0.4947 0.87863 0.98528 0.0
H2512 H 0.79702 0.80469 0.52347 0.0
H2513 H 0.85681 0.76874 0.47978 0.0
H2514 H 0.86622 0.7472 0.54942 0.0
H2515 H 0.8573 0.73718 0.62268 0.0
H2516 H 0.79748 0.77223 0.66769 0.0
H2517 H 0.7883 0.79483 0.59835 0.0
C2518 C 0.81222 0.79233 0.5293 0.0
C2519 C 0.82613 0.78853 0.49585 0.0
C2520 C 0.81751 0.77944 0.56993 0.0
C2521 C 0.84562 0.77212 0.50438 0.0
C2522 C 0.85109 0.75968 0.54444 0.0
C2523 C 0.84235 0.74992 0.61768 0.0
C2524 C 0.82819 0.75274 0.65107 0.0
C2525 C 0.83711 0.76299 0.57746 0.0
C2526 C 0.80866 0.76918 0.64295 0.0
C2527 C 0.80344 0.78235 0.60313 0.0
H2528 H 0.97369 0.1428 0.51042 0.0
H2529 H 0.97908 0.06356 0.52492 0.0
H2530 H 0.96627 0.06246 0.45042 0.0
H2531 H 0.95714 0.08398 0.38019 0.0
H2532 H 0.95143 0.16314 0.36517 0.0
H2533 H 0.96032 0.16426 0.44121 0.0
C2534 C 0.97161 0.12527 0.49754 0.0
C2535 C 0.97766 0.10331 0.52319 0.0
C2536 C 0.96425 0.12475 0.45459 0.0
C2537 C 0.97505 0.08076 0.50574 0.0
C2538 C 0.96759 0.0801 0.46318 0.0
C2539 C 0.95722 0.10148 0.39362 0.0
C2540 C 0.95379 0.12345 0.36701 0.0
C2541 C 0.96266 0.10198 0.43714 0.0
C2542 C 0.95432 0.14597 0.38494 0.0
C2543 C 0.95941 0.14662 0.42837 0.0
H2544 H 0.60534 0.20863 0.14333 0.0
H2545 H 0.66402 0.25163 0.11169 0.0
H2546 H 0.66675 0.26638 0.18167 0.0
H2547 H 0.65289 0.26671 0.25261 0.0
H2548 H 0.59558 0.22177 0.28497 0.0
H2549 H 0.5921 0.2082 0.21432 0.0
C2550 C 0.61891 0.22103 0.15172 0.0
C2551 C 0.63442 0.22892 0.12183 0.0
C2552 C 0.62066 0.22919 0.19239 0.0
C2553 C 0.65155 0.24545 0.13347 0.0
C2554 C 0.65327 0.25378 0.17375 0.0
C2555 C 0.63976 0.25378 0.24442 0.0
C2556 C 0.62445 0.24548 0.27442 0.0
C2557 C 0.63799 0.2457 0.2036 0.0
C2558 C 0.60736 0.22894 0.26264 0.0
C2559 C 0.60544 0.22098 0.22218 0.0
H2560 H 0.05859 0.556 0.75462 0.0
H2561 H 0.12344 0.53053 0.71263 0.0
H2562 H 0.134 0.50869 0.78218 0.0
H2563 H 0.12444 0.49549 0.85482 0.0
H2564 H 0.05959 0.52141 0.89651 0.0
H2565 H 0.04952 0.54378 0.82759 0.0
C2566 C 0.07517 0.54591 0.76062 0.0
C2567 C 0.0902 0.54523 0.72786 0.0
C2568 C 0.0811 0.53304 0.80088 0.0
C2569 C 0.11147 0.53167 0.73679 0.0
C2570 C 0.11753 0.51902 0.77675 0.0
C2571 C 0.10817 0.50618 0.84919 0.0
C2572 C 0.09282 0.50631 0.8816 0.0
C2573 C 0.10243 0.51938 0.80907 0.0
C2574 C 0.0717 0.52024 0.87261 0.0
C2575 C 0.06594 0.53334 0.83302 0.0
H2576 H 0.72426 0.80515 0.1108 0.0
H2577 H 0.72192 0.88373 0.08284 0.0
H2578 H 0.74501 0.88794 0.15001 0.0
H2579 H 0.76659 0.86881 0.21762 0.0
H2580 H 0.77098 0.78973 0.23958 0.0
H2581 H 0.74664 0.78637 0.17469 0.0
C2582 C 0.72862 0.82329 0.11934 0.0
C2583 C 0.72095 0.84411 0.09162 0.0
C2584 C 0.74254 0.8255 0.15737 0.0
C2585 C 0.72736 0.86734 0.10334 0.0
C2586 C 0.74064 0.86974 0.14191 0.0
C2587 C 0.76224 0.85088 0.20813 0.0
C2588 C 0.77085 0.82955 0.23402 0.0
C2589 C 0.74846 0.84891 0.16935 0.0
C2590 C 0.76498 0.80651 0.22062 0.0
C2591 C 0.75089 0.80451 0.18334 0.0
H2592 H 0.38527 0.49624 0.33751 0.0
H2593 H 0.45108 0.46528 0.39644 0.0
H2594 H 0.45706 0.44425 0.33403 0.0
H2595 H 0.44438 0.4351 0.26182 0.0
H2596 H 0.37925 0.46669 0.20128 0.0
H2597 H 0.37247 0.48689 0.26466 0.0
C2598 C 0.40103 0.48505 0.33675 0.0
C2599 C 0.41759 0.48245 0.37246 0.0
C2600 C 0.40454 0.47297 0.30017 0.0
C2601 C 0.43772 0.46749 0.37033 0.0
C2602 C 0.44127 0.45549 0.3343 0.0
C2603 C 0.42855 0.44621 0.2624 0.0
C2604 C 0.4123 0.44909 0.22636 0.0
C2605 C 0.42485 0.45806 0.29899 0.0
C2606 C 0.39207 0.46389 0.2282 0.0
C2607 C 0.38821 0.47557 0.26459 0.0
H2608 H 0.8288 0.16688 0.52861 0.0
H2609 H 0.7907 0.10943 0.47326 0.0
H2610 H 0.76897 0.10371 0.536 0.0
H2611 H 0.7596 0.11638 0.60581 0.0
H2612 H 0.79695 0.17558 0.65759 0.0
H2613 H 0.81989 0.17916 0.59706 0.0
C2614 C 0.81595 0.15284 0.53017 0.0
C2615 C 0.81162 0.13852 0.49589 0.0
C2616 C 0.80312 0.1501 0.56582 0.0
C2617 C 0.79468 0.12061 0.49901 0.0
C2618 C 0.78208 0.11747 0.53488 0.0
C2619 C 0.77266 0.13017 0.60383 0.0
C2620 C 0.77646 0.14555 0.63694 0.0
C2621 C 0.78588 0.13238 0.5683 0.0
C2622 C 0.79375 0.16311 0.63349 0.0
C2623 C 0.80689 0.1653 0.5986 0.0
H2624 H 0.94414 0.43473 0.61947 0.0
H2625 H 0.87856 0.46173 0.65628 0.0
H2626 H 0.86902 0.48188 0.58505 0.0
H2627 H 0.87951 0.49281 0.51201 0.0
H2628 H 0.94523 0.46553 0.47591 0.0
H2629 H 0.95437 0.4451 0.54662 0.0
C2630 C 0.92764 0.44484 0.61204 0.0
C2631 C 0.91208 0.44639 0.64384 0.0
C2632 C 0.92229 0.45671 0.5708 0.0
C2633 C 0.89093 0.45995 0.63296 0.0
C2634 C 0.88545 0.4716 0.59201 0.0
C2635 C 0.89579 0.48227 0.51931 0.0
C2636 C 0.91164 0.48113 0.48781 0.0
C2637 C 0.90102 0.47025 0.56058 0.0
C2638 C 0.93273 0.46742 0.49895 0.0
C2639 C 0.93796 0.45544 0.53962 0.0
H2640 H 0.23251 0.11671 0.15056 0.0
H2641 H 0.23473 0.19538 0.12446 0.0
H2642 H 0.25901 0.1979 0.18964 0.0
H2643 H 0.2794 0.1786 0.25497 0.0
H2644 H 0.27564 0.10066 0.28656 0.0
H2645 H 0.2525 0.09712 0.21922 0.0
C2646 C 0.23831 0.13437 0.15917 0.0
C2647 C 0.23153 0.15584 0.13204 0.0
C2648 C 0.25214 0.1359 0.19803 0.0
C2649 C 0.23927 0.17852 0.14433 0.0
C2650 C 0.25334 0.18004 0.1818 0.0
C2651 C 0.27373 0.16071 0.2472 0.0
C2652 C 0.27967 0.13988 0.27605 0.0
C2653 C 0.25987 0.15894 0.20899 0.0
C2654 C 0.27158 0.11704 0.26521 0.0
C2655 C 0.25826 0.11503 0.22655 0.0
H2656 H 0.62544 0.492 0.04422 0.0
H2657 H 0.55619 0.51361 0.98859 0.0
H2658 H 0.54853 0.53415 0.05079 0.0
H2659 H 0.56102 0.54583 0.12149 0.0
H2660 H 0.63017 0.52471 0.1778 0.0
H2661 H 0.63828 0.50458 0.11496 0.0
C2662 C 0.60872 0.50136 0.0454 0.0
C2663 C 0.59141 0.50091 1.01124 0.0
C2664 C 0.60436 0.5134 0.08159 0.0
C2665 C 0.56978 0.51304 1.01422 0.0
C2666 C 0.5654 0.52504 0.04986 0.0
C2667 C 0.578 0.5371 0.12005 0.0
C2668 C 0.59499 0.53712 0.1547 0.0
C2669 C 0.5825 0.52531 0.08381 0.0
C2670 C 0.61672 0.52522 0.15191 0.0
C2671 C 0.62137 0.51361 0.11585 0.0
H2672 H 0.229 0.85384 0.90334 0.0
H2673 H 0.1637 0.82803 0.85173 0.0
H2674 H 0.1781 0.82933 0.78196 0.0
H2675 H 0.2099 0.83574 0.7357 0.0
H2676 H 0.27599 0.85965 0.78764 0.0
H2677 H 0.26065 0.86133 0.85623 0.0
C2678 C 0.21772 0.84912 0.87661 0.0
C2679 C 0.19509 0.84121 0.88295 0.0
C2680 C 0.2264 0.84926 0.83636 0.0
C2681 C 0.18105 0.83447 0.84793 0.0
C2682 C 0.18936 0.83503 0.80792 0.0
C2683 C 0.22107 0.84119 0.76198 0.0
C2684 C 0.2442 0.84755 0.7559 0.0
C2685 C 0.21216 0.84194 0.80181 0.0
C2686 C 0.25807 0.85493 0.79068 0.0
C2687 C 0.24932 0.85581 0.83023 0.0
H2688 H 0.62576 -0.00684 0.35749 0.0
H2689 H 0.55846 0.01706 0.39184 0.0
H2690 H 0.54918 0.03733 0.32132 0.0
H2691 H 0.55923 0.04798 0.24923 0.0
H2692 H 0.62546 0.02346 0.2117 0.0
H2693 H 0.63583 0.00391 0.28344 0.0
C2694 C 0.60899 0.00266 0.34964 0.0
C2695 C 0.59304 0.00358 0.38115 0.0
C2696 C 0.60348 0.01435 0.30808 0.0
C2697 C 0.57148 0.01628 0.36948 0.0
C2698 C 0.566 0.02784 0.32869 0.0
C2699 C 0.5761 0.0386 0.25647 0.0
C2700 C 0.59158 0.0376 0.22443 0.0
C2701 C 0.58182 0.02708 0.29772 0.0
C2702 C 0.61318 0.0249 0.23524 0.0
C2703 C 0.61908 0.01356 0.27646 0.0
H2704 H 0.22981 0.31051 0.60835 0.0
H2705 H 0.22582 0.38923 0.58289 0.0
H2706 H 0.24933 0.39323 0.64966 0.0
H2707 H 0.27166 0.37396 0.71626 0.0
H2708 H 0.27788 0.29487 0.73592 0.0
H2709 H 0.25325 0.29157 0.67131 0.0
C2710 C 0.23391 0.32861 0.61742 0.0
C2711 C 0.22563 0.34955 0.59053 0.0
C2712 C 0.24813 0.33073 0.65521 0.0
C2713 C 0.23173 0.37276 0.60278 0.0
C2714 C 0.24525 0.37504 0.64112 0.0
C2715 C 0.26764 0.35603 0.70635 0.0
C2716 C 0.27685 0.33469 0.73153 0.0
C2717 C 0.25366 0.35413 0.66777 0.0
C2718 C 0.27142 0.31167 0.71754 0.0
C2719 C 0.25714 0.3097 0.68042 0.0
H2720 H 0.8781 0.98668 0.82947 0.0
H2721 H 0.94897 0.9728 0.88363 0.0
H2722 H 0.95786 0.95106 0.82344 0.0
H2723 H 0.94617 0.93667 0.75428 0.0
H2724 H 0.87595 0.95178 0.69798 0.0
H2725 H 0.86642 0.97236 0.75957 0.0
C2726 C 0.89557 0.97912 0.82812 0.0
C2727 C 0.91271 0.98146 0.8619 0.0
C2728 C 0.90078 0.96673 0.79273 0.0
C2729 C 0.93515 0.97108 0.85909 0.0
C2730 C 0.94036 0.9587 0.82429 0.0
C2731 C 0.92867 0.94421 0.75548 0.0
C2732 C 0.91178 0.94235 0.72121 0.0
C2733 C 0.92336 0.95639 0.79089 0.0
C2734 C 0.88934 0.95269 0.72363 0.0
C2735 C 0.88387 0.96458 0.75895 0.0
H2736 H 0.26419 0.61134 0.11364 0.0
H2737 H 0.3005 0.671 0.16598 0.0
H2738 H 0.32271 0.67595 0.10448 0.0
H2739 H 0.33146 0.66431 0.03536 0.0
H2740 H 0.29512 0.60536 0.98108 0.0
H2741 H 0.27402 0.59871 0.04434 0.0
C2742 C 0.27712 0.62528 0.11188 0.0
C2743 C 0.28034 0.64091 0.1447 0.0
C2744 C 0.2901 0.62802 0.07618 0.0
C2745 C 0.29711 0.659 0.1412 0.0
C2746 C 0.31007 0.66172 0.10609 0.0
C2747 C 0.31914 0.64976 0.03731 0.0
C2748 C 0.31506 0.63531 1.00315 0.0
C2749 C 0.30665 0.64645 0.07331 0.0
C2750 C 0.29885 0.61669 1.00672 0.0
C2751 C 0.28661 0.613 0.04288 0.0
H2752 H 0.39416 0.97868 0.15186 0.0
H2753 H 0.43012 0.91215 0.12646 0.0
H2754 H 0.42647 0.92538 0.05124 0.0
H2755 H 0.41406 0.95624 0.99166 0.0
H2756 H 0.37949 0.02374 1.01653 0.0
H2757 H 0.3814 0.00973 0.09143 0.0
C2758 C 0.40076 0.96686 0.1298 0.0
C2759 C 0.41217 0.94418 0.14541 0.0
C2760 C 0.39901 0.97487 0.08585 0.0
C2761 C 0.42111 0.92957 0.1159 0.0
C2762 C 0.41912 0.93719 0.07256 0.0
C2763 C 0.40705 0.96807 1.01329 0.0
C2764 C 0.39648 0.99115 0.99738 0.0
C2765 C 0.40836 0.95995 0.05703 0.0
C2766 C 0.38735 0.00576 1.02681 0.0
C2767 C 0.38855 -0.00222 0.07013 0.0
H2768 H 0.77887 0.67191 0.75891 0.0
H2769 H 0.77679 0.59403 0.79271 0.0
H2770 H 0.75415 0.58928 0.7253 0.0
H2771 H 0.73434 0.60781 0.6557 0.0
H2772 H 0.73484 0.68649 0.62763 0.0
H2773 H 0.75845 0.69017 0.69305 0.0
C2774 C 0.77365 0.65379 0.75162 0.0
C2775 C 0.77991 0.63332 0.78101 0.0
C2776 C 0.76009 0.65132 0.7134 0.0
C2777 C 0.77241 0.61014 0.77088 0.0
C2778 C 0.75941 0.60744 0.73218 0.0
C2779 C 0.73962 0.62571 0.66397 0.0
C2780 C 0.73257 0.64683 0.63622 0.0
C2781 C 0.75304 0.62794 0.70299 0.0
C2782 C 0.73961 0.66987 0.64803 0.0
C2783 C 0.75329 0.67207 0.68562 0.0
H2784 H 0.12534 0.99058 0.55054 0.0
H2785 H 0.05535 0.00755 0.49399 0.0
H2786 H 0.04608 0.02769 0.55564 0.0
H2787 H 0.05722 0.0402 0.62636 0.0
H2788 H 0.12655 0.02243 0.68486 0.0
H2789 H 0.13639 0.00281 0.62241 0.0
C2790 C 0.10797 -0.00152 0.55166 0.0
C2791 C 0.09123 -0.00247 0.5167 0.0
C2792 C 0.10253 0.01 0.5879 0.0
C2793 C 0.06891 0.00826 0.51938 0.0
C2794 C 0.06347 0.01971 0.55502 0.0
C2795 C 0.07459 0.03228 0.62551 0.0
C2796 C 0.09114 0.03316 0.66063 0.0
C2797 C 0.08011 0.02078 0.58947 0.0
C2798 C 0.11341 0.02226 0.65861 0.0
C2799 C 0.11905 0.01095 0.62274 0.0
H2800 H 0.72943 0.35599 0.40873 0.0
H2801 H 0.66541 0.32854 0.35467 0.0
H2802 H 0.68044 0.33109 0.28532 0.0
H2803 H 0.71243 0.33924 0.24008 0.0
H2804 H 0.77724 0.36484 0.29457 0.0
H2805 H 0.76125 0.36505 0.36283 0.0
C2806 C 0.71856 0.35112 0.38159 0.0
C2807 C 0.69613 0.34239 0.3871 0.0
C2808 C 0.7276 0.35201 0.34162 0.0
C2809 C 0.68261 0.33555 0.35154 0.0
C2810 C 0.69128 0.33684 0.31176 0.0
C2811 C 0.72318 0.34472 0.26686 0.0
C2812 C 0.74614 0.35203 0.26161 0.0
C2813 C 0.71391 0.34463 0.30648 0.0
C2814 C 0.75947 0.35942 0.29701 0.0
C2815 C 0.75034 0.35945 0.33635 0.0
loop_
_geom_bond_atom_site_label_1
_geom_bond_atom_site_label_2
_geom_bond_distance
_geom_bond_site_symmetry_2
_ccdc_geom_bond_type
Pr0 C2 2.880 . S
Pr0 O20 2.562 . S
Pr0 O21 2.490 . S
Pr0 O22 2.695 . S
Pr0 O23 2.512 . S
Pr0 O25 2.437 . S
Pr0 O28 2.436 . S
Pr0 O30 2.438 . S
Pr1 C11 2.880 . S
Pr1 O22 2.436 . S
Pr1 O24 2.438 . S
Pr1 O26 2.562 . S
Pr1 O27 2.490 . S
Pr1 O28 2.695 . S
Pr1 O29 2.512 . S
Pr1 O31 2.437 . S
C2 Pr0 2.880 . S
C2 C3 1.491 . S
C2 O20 1.254 . S
C2 O21 1.225 . S
C3 C2 1.491 . S
C3 C4 1.392 1_455 S
C3 C8 1.356 . S
C4 C3 1.392 1_655 S
C4 C5 1.368 . S
C4 H32 0.929 . S
C5 C4 1.368 . S
C5 C6 1.394 . S
C5 H33 0.929 . S
C6 C5 1.394 . S
C6 C7 1.362 1_655 S
C7 C6 1.362 1_455 S
C7 C8 1.409 . S
C7 H34 0.931 . S
C8 C3 1.356 . S
C8 C7 1.409 . S
C8 H35 0.930 . S
C9 O22 1.270 . S
C9 O23 1.248 . S
C10 O24 1.267 . S
C10 O25 1.278 . S
C11 Pr1 2.880 . S
C11 C12 1.491 1_554 S
C11 O26 1.254 . S
C11 O27 1.225 . S
C12 C11 1.491 1_556 S
C12 C13 1.392 . S
C12 C17 1.356 . S
C13 C12 1.392 . S
C13 C14 1.368 . S
C13 H36 0.929 . S
C14 C13 1.368 . S
C14 C15 1.386 . S
C14 H37 0.929 . S
C15 C14 1.386 . S
C15 C16 1.373 . S
C16 C15 1.373 . S
C16 C17 1.409 . S
C16 H38 0.931 . S
C17 C12 1.356 . S
C17 C16 1.409 . S
C17 H39 0.930 . S
C18 O28 1.270 . S
C18 O29 1.248 . S
C19 O30 1.267 . S
C19 O31 1.278 . S
O20 Pr0 2.562 . S
O20 C2 1.254 . S
O21 Pr0 2.490 . S
O21 C2 1.225 . S
O22 Pr0 2.695 . S
O22 Pr1 2.436 . S
O22 C9 1.270 . S
O23 Pr0 2.512 . S
O23 C9 1.248 . S
O24 Pr1 2.438 . S
O24 C10 1.267 . S
O25 Pr0 2.437 . S
O25 C10 1.278 . S
O26 Pr1 2.562 . S
O26 C11 1.254 . S
O27 Pr1 2.490 . S
O27 C11 1.225 . S
O28 Pr0 2.436 . S
O28 Pr1 2.695 . S
O28 C18 1.270 . S
O29 Pr1 2.512 . S
O29 C18 1.248 . S
O30 Pr0 2.438 . S
O30 C19 1.267 . S
O31 Pr1 2.437 . S
O31 C19 1.278 . S
H32 C4 0.929 . S
H33 C5 0.929 . S
H34 C7 0.931 . S
H35 C8 0.930 . S
H36 C13 0.929 . S
H37 C14 0.929 . S
H38 C16 0.931 . S
H39 C17 0.930 . S
Pr40 C42 2.880 . S
Pr40 O60 2.562 . S
Pr40 O61 2.490 . S
Pr40 O62 2.695 . S
Pr40 O63 2.512 . S
Pr40 O65 2.437 . S
Pr40 O68 2.436 . S
Pr40 O70 2.438 . S
Pr41 C51 2.880 . S
Pr41 O62 2.436 . S
Pr41 O64 2.438 . S
Pr41 O66 2.562 . S
Pr41 O67 2.490 . S
Pr41 O68 2.695 . S
Pr41 O69 2.512 . S
Pr41 O71 2.437 . S
C42 Pr40 2.880 . S
C42 C43 1.491 . S
C42 O60 1.254 . S
C42 O61 1.225 . S
C43 C42 1.491 . S
C43 C44 1.392 . S
C43 C48 1.356 . S
C44 C43 1.392 . S
C44 C45 1.368 . S
C44 H72 0.929 . S
C45 C44 1.368 . S
C45 C46 1.386 . S
C45 H73 0.929 . S
C46 C45 1.386 . S
C46 C47 1.373 . S
C47 C46 1.373 . S
C47 C48 1.409 . S
C47 H74 0.931 . S
C48 C43 1.356 . S
C48 C47 1.409 . S
C48 H75 0.930 . S
C49 O62 1.270 . S
C49 O63 1.248 . S
C50 O64 1.267 . S
C50 O65 1.278 . S
C51 Pr41 2.880 . S
C51 C52 1.491 . S
C51 O66 1.254 . S
C51 O67 1.225 . S
C52 C51 1.491 . S
C52 C53 1.392 . S
C52 C57 1.356 . S
C53 C52 1.392 . S
C53 C54 1.368 . S
C53 H76 0.929 . S
C54 C53 1.368 . S
C54 C55 1.386 . S
C54 H77 0.929 . S
C55 C54 1.386 . S
C55 C56 1.373 . S
C56 C55 1.373 . S
C56 C57 1.409 . S
C56 H78 0.931 . S
C57 C52 1.356 . S
C57 C56 1.409 . S
C57 H79 0.930 . S
C58 O68 1.270 . S
C58 O69 1.248 . S
C59 O70 1.267 . S
C59 O71 1.278 . S
O60 Pr40 2.562 . S
O60 C42 1.254 . S
O61 Pr40 2.490 . S
O61 C42 1.225 . S
O62 Pr40 2.695 . S
O62 Pr41 2.436 . S
O62 C49 1.270 . S
O63 Pr40 2.512 . S
O63 C49 1.248 . S
O64 Pr41 2.438 . S
O64 C50 1.267 . S
O65 Pr40 2.437 . S
O65 C50 1.278 . S
O66 Pr41 2.562 . S
O66 C51 1.254 . S
O67 Pr41 2.490 . S
O67 C51 1.225 . S
O68 Pr40 2.436 . S
O68 Pr41 2.695 . S
O68 C58 1.270 . S
O69 Pr41 2.512 . S
O69 C58 1.248 . S
O70 Pr40 2.438 . S
O70 C59 1.267 . S
O71 Pr41 2.437 . S
O71 C59 1.278 . S
H72 C44 0.929 . S
H73 C45 0.929 . S
H74 C47 0.931 . S
H75 C48 0.930 . S
H76 C53 0.929 . S
H77 C54 0.929 . S
H78 C56 0.931 . S
H79 C57 0.930 . S
Pr80 C82 2.880 . S
Pr80 O100 2.562 . S
Pr80 O101 2.490 . S
Pr80 O102 2.695 . S
Pr80 O103 2.512 . S
Pr80 O105 2.437 . S
Pr80 O108 2.436 . S
Pr80 O110 2.438 . S
Pr81 C91 2.880 . S
Pr81 O102 2.436 . S
Pr81 O104 2.438 . S
Pr81 O106 2.562 . S
Pr81 O107 2.490 . S
Pr81 O108 2.695 . S
Pr81 O109 2.512 . S
Pr81 O111 2.437 . S
C82 Pr80 2.880 . S
C82 C83 1.491 . S
C82 O100 1.254 . S
C82 O101 1.225 . S
C83 C82 1.491 . S
C83 C84 1.392 . S
C83 C88 1.356 . S
C84 C83 1.392 . S
C84 C85 1.368 . S
C84 H112 0.929 . S
C85 C84 1.368 . S
C85 C86 1.386 . S
C85 H113 0.929 . S
C86 C85 1.386 . S
C86 C87 1.373 . S
C87 C86 1.373 . S
C87 C88 1.409 . S
C87 H114 0.931 . S
C88 C83 1.356 . S
C88 C87 1.409 . S
C88 H115 0.930 . S
C89 O102 1.270 . S
C89 O103 1.248 . S
C90 O104 1.267 . S
C90 O105 1.278 . S
C91 Pr81 2.880 . S
C91 C92 1.491 . S
C91 O106 1.254 . S
C91 O107 1.225 . S
C92 C91 1.491 . S
C92 C93 1.392 . S
C92 C97 1.356 . S
C93 C92 1.392 . S
C93 C94 1.368 . S
C93 H116 0.929 . S
C94 C93 1.368 . S
C94 C95 1.386 . S
C94 H117 0.929 . S
C95 C94 1.386 . S
C95 C96 1.373 . S
C96 C95 1.373 . S
C96 C97 1.409 . S
C96 H118 0.931 . S
C97 C92 1.356 . S
C97 C96 1.409 . S
C97 H119 0.930 . S
C98 O108 1.270 . S
C98 O109 1.248 . S
C99 O110 1.267 . S
C99 O111 1.278 . S
O100 Pr80 2.562 . S
O100 C82 1.254 . S
O101 Pr80 2.490 . S
O101 C82 1.225 . S
O102 Pr80 2.695 . S
O102 Pr81 2.436 . S
O102 C89 1.270 . S
O103 Pr80 2.512 . S
O103 C89 1.248 . S
O104 Pr81 2.438 . S
O104 C90 1.267 . S
O105 Pr80 2.437 . S
O105 C90 1.278 . S
O106 Pr81 2.562 . S
O106 C91 1.254 . S
O107 Pr81 2.490 . S
O107 C91 1.225 . S
O108 Pr80 2.436 . S
O108 Pr81 2.695 . S
O108 C98 1.270 . S
O109 Pr81 2.512 . S
O109 C98 1.248 . S
O110 Pr80 2.438 . S
O110 C99 1.267 . S
O111 Pr81 2.437 . S
O111 C99 1.278 . S
H112 C84 0.929 . S
H113 C85 0.929 . S
H114 C87 0.931 . S
H115 C88 0.930 . S
H116 C93 0.929 . S
H117 C94 0.929 . S
H118 C96 0.931 . S
H119 C97 0.930 . S
Pr120 C122 2.880 . S
Pr120 O140 2.562 . S
Pr120 O141 2.490 . S
Pr120 O142 2.695 . S
Pr120 O143 2.512 . S
Pr120 O145 2.437 . S
Pr120 O148 2.436 . S
Pr120 O150 2.438 . S
Pr121 C131 2.880 . S
Pr121 O142 2.436 . S
Pr121 O144 2.438 . S
Pr121 O146 2.562 . S
Pr121 O147 2.490 . S
Pr121 O148 2.695 . S
Pr121 O149 2.512 . S
Pr121 O151 2.437 . S
C122 Pr120 2.880 . S
C122 C123 1.491 1_556 S
C122 O140 1.254 . S
C122 O141 1.225 . S
C123 C122 1.491 1_554 S
C123 C124 1.392 . S
C123 C128 1.356 . S
C124 C123 1.392 . S
C124 C125 1.368 . S
C124 H152 0.929 . S
C125 C124 1.368 . S
C125 C126 1.386 . S
C125 H153 0.929 . S
C126 C125 1.386 . S
C126 C127 1.373 . S
C127 C126 1.373 . S
C127 C128 1.409 . S
C127 H154 0.931 . S
C128 C123 1.356 . S
C128 C127 1.409 . S
C128 H155 0.930 . S
C129 O142 1.270 . S
C129 O143 1.248 . S
C130 O144 1.267 . S
C130 O145 1.278 . S
C131 Pr121 2.880 . S
C131 C132 1.491 . S
C131 O146 1.254 . S
C131 O147 1.225 . S
C132 C131 1.491 . S
C132 C133 1.392 . S
C132 C137 1.356 . S
C133 C132 1.392 . S
C133 C134 1.368 . S
C133 H156 0.929 . S
C134 C133 1.368 . S
C134 C135 1.386 . S
C134 H157 0.929 . S
C135 C134 1.386 . S
C135 C136 1.373 . S
C136 C135 1.373 . S
C136 C137 1.409 . S
C136 H158 0.931 . S
C137 C132 1.356 . S
C137 C136 1.409 . S
C137 H159 0.930 . S
C138 O148 1.270 . S
C138 O149 1.248 . S
C139 O150 1.267 . S
C139 O151 1.278 . S
O140 Pr120 2.562 . S
O140 C122 1.254 . S
O141 Pr120 2.490 . S
O141 C122 1.225 . S
O142 Pr120 2.695 . S
O142 Pr121 2.436 . S
O142 C129 1.270 . S
O143 Pr120 2.512 . S
O143 C129 1.248 . S
O144 Pr121 2.438 . S
O144 C130 1.267 . S
O145 Pr120 2.437 . S
O145 C130 1.278 . S
O146 Pr121 2.562 . S
O146 C131 1.254 . S
O147 Pr121 2.490 . S
O147 C131 1.225 . S
O148 Pr120 2.436 . S
O148 Pr121 2.695 . S
O148 C138 1.270 . S
O149 Pr121 2.512 . S
O149 C138 1.248 . S
O150 Pr120 2.438 . S
O150 C139 1.267 . S
O151 Pr121 2.437 . S
O151 C139 1.278 . S
H152 C124 0.929 . S
H153 C125 0.929 . S
H154 C127 0.931 . S
H155 C128 0.930 . S
H156 C133 0.929 . S
H157 C134 0.929 . S
H158 C136 0.931 . S
H159 C137 0.930 . S
Pr160 C162 2.880 . S
Pr160 O180 2.562 . S
Pr160 O181 2.490 . S
Pr160 O182 2.695 . S
Pr160 O183 2.512 . S
Pr160 O185 2.437 . S
Pr160 O188 2.436 . S
Pr160 O190 2.438 . S
Pr161 C171 2.880 . S
Pr161 O182 2.436 . S
Pr161 O184 2.438 . S
Pr161 O186 2.562 . S
Pr161 O187 2.490 . S
Pr161 O188 2.695 . S
Pr161 O189 2.512 . S
Pr161 O191 2.437 . S
C162 Pr160 2.880 . S
C162 C163 1.491 . S
C162 O180 1.254 . S
C162 O181 1.225 . S
C163 C162 1.491 . S
C163 C164 1.392 . S
C163 C168 1.356 . S
C164 C163 1.392 . S
C164 C165 1.368 . S
C164 H192 0.929 . S
C165 C164 1.368 . S
C165 C166 1.386 . S
C165 H193 0.929 . S
C166 C165 1.386 . S
C166 C167 1.373 . S
C167 C166 1.373 . S
C167 C168 1.409 . S
C167 H194 0.931 . S
C168 C163 1.356 . S
C168 C167 1.409 . S
C168 H195 0.930 . S
C169 O182 1.270 . S
C169 O183 1.248 . S
C170 O184 1.267 . S
C170 O185 1.278 . S
C171 Pr161 2.880 . S
C171 C172 1.491 . S
C171 O186 1.254 . S
C171 O187 1.225 . S
C172 C171 1.491 . S
C172 C173 1.392 . S
C172 C177 1.356 . S
C173 C172 1.392 . S
C173 C174 1.368 . S
C173 H196 0.929 . S
C174 C173 1.368 . S
C174 C175 1.386 . S
C174 H197 0.929 . S
C175 C174 1.386 . S
C175 C176 1.373 . S
C176 C175 1.373 . S
C176 C177 1.409 . S
C176 H198 0.931 . S
C177 C172 1.356 . S
C177 C176 1.409 . S
C177 H199 0.930 . S
C178 O188 1.270 . S
C178 O189 1.248 . S
C179 O190 1.267 . S
C179 O191 1.278 . S
O180 Pr160 2.562 . S
O180 C162 1.254 . S
O181 Pr160 2.490 . S
O181 C162 1.225 . S
O182 Pr160 2.695 . S
O182 Pr161 2.436 . S
O182 C169 1.270 . S
O183 Pr160 2.512 . S
O183 C169 1.248 . S
O184 Pr161 2.438 . S
O184 C170 1.267 . S
O185 Pr160 2.437 . S
O185 C170 1.278 . S
O186 Pr161 2.562 . S
O186 C171 1.254 . S
O187 Pr161 2.490 . S
O187 C171 1.225 . S
O188 Pr160 2.436 . S
O188 Pr161 2.695 . S
O188 C178 1.270 . S
O189 Pr161 2.512 . S
O189 C178 1.248 . S
O190 Pr160 2.438 . S
O190 C179 1.267 . S
O191 Pr161 2.437 . S
O191 C179 1.278 . S
H192 C164 0.929 . S
H193 C165 0.929 . S
H194 C167 0.931 . S
H195 C168 0.930 . S
H196 C173 0.929 . S
H197 C174 0.929 . S
H198 C176 0.931 . S
H199 C177 0.930 . S
Pr200 C202 2.880 1_556 S
Pr200 O220 2.562 1_556 S
Pr200 O221 2.490 1_556 S
Pr200 O222 2.695 . S
Pr200 O223 2.512 . S
Pr200 O225 2.437 . S
Pr200 O228 2.436 . S
Pr200 O230 2.438 . S
Pr201 C211 2.880 . S
Pr201 O222 2.436 . S
Pr201 O224 2.438 . S
Pr201 O226 2.562 . S
Pr201 O227 2.490 . S
Pr201 O228 2.695 . S
Pr201 O229 2.512 . S
Pr201 O231 2.437 . S
C202 Pr200 2.880 1_554 S
C202 C203 1.491 . S
C202 O220 1.254 . S
C202 O221 1.225 . S
C203 C202 1.491 . S
C203 C204 1.392 . S
C203 C208 1.356 . S
C204 C203 1.392 . S
C204 C205 1.368 . S
C204 H232 0.929 . S
C205 C204 1.368 . S
C205 C206 1.386 . S
C205 H233 0.929 . S
C206 C205 1.386 . S
C206 C207 1.373 . S
C207 C206 1.373 . S
C207 C208 1.409 . S
C207 H234 0.931 . S
C208 C203 1.356 . S
C208 C207 1.409 . S
C208 H235 0.930 . S
C209 O222 1.270 . S
C209 O223 1.248 . S
C210 O224 1.267 . S
C210 O225 1.278 . S
C211 Pr201 2.880 . S
C211 C212 1.491 . S
C211 O226 1.254 . S
C211 O227 1.225 . S
C212 C211 1.491 . S
C212 C213 1.392 . S
C212 C217 1.356 . S
C213 C212 1.392 . S
C213 C214 1.368 . S
C213 H236 0.929 . S
C214 C213 1.368 . S
C214 C215 1.386 . S
C214 H237 0.929 . S
C215 C214 1.386 . S
C215 C216 1.373 . S
C216 C215 1.373 . S
C216 C217 1.409 . S
C216 H238 0.931 . S
C217 C212 1.356 . S
C217 C216 1.409 . S
C217 H239 0.930 . S
C218 O228 1.270 . S
C218 O229 1.248 . S
C219 O230 1.267 . S
C219 O231 1.278 . S
O220 Pr200 2.562 1_554 S
O220 C202 1.254 . S
O221 Pr200 2.490 1_554 S
O221 C202 1.225 . S
O222 Pr200 2.695 . S
O222 Pr201 2.436 . S
O222 C209 1.270 . S
O223 Pr200 2.512 . S
O223 C209 1.248 . S
O224 Pr201 2.438 . S
O224 C210 1.267 . S
O225 Pr200 2.437 . S
O225 C210 1.278 . S
O226 Pr201 2.562 . S
O226 C211 1.254 . S
O227 Pr201 2.490 . S
O227 C211 1.225 . S
O228 Pr200 2.436 . S
O228 Pr201 2.695 . S
O228 C218 1.270 . S
O229 Pr201 2.512 . S
O229 C218 1.248 . S
O230 Pr200 2.438 . S
O230 C219 1.267 . S
O231 Pr201 2.437 . S
O231 C219 1.278 . S
H232 C204 0.929 . S
H233 C205 0.929 . S
H234 C207 0.931 . S
H235 C208 0.930 . S
H236 C213 0.929 . S
H237 C214 0.929 . S
H238 C216 0.931 . S
H239 C217 0.930 . S
Pr240 C242 2.880 . S
Pr240 O260 2.562 . S
Pr240 O261 2.490 . S
Pr240 O262 2.695 . S
Pr240 O263 2.512 . S
Pr240 O265 2.437 . S
Pr240 O268 2.436 . S
Pr240 O270 2.438 . S
Pr241 C251 2.880 1_554 S
Pr241 O262 2.436 . S
Pr241 O264 2.438 . S
Pr241 O266 2.562 1_554 S
Pr241 O267 2.490 1_554 S
Pr241 O268 2.695 . S
Pr241 O269 2.512 . S
Pr241 O271 2.437 1_554 S
C242 Pr240 2.880 . S
C242 C243 1.491 . S
C242 O260 1.254 . S
C242 O261 1.225 . S
C243 C242 1.491 . S
C243 C244 1.392 . S
C243 C248 1.356 . S
C244 C243 1.392 . S
C244 C245 1.368 . S
C244 H272 0.929 . S
C245 C244 1.368 . S
C245 C246 1.386 . S
C245 H273 0.929 . S
C246 C245 1.386 . S
C246 C247 1.373 . S
C247 C246 1.373 . S
C247 C248 1.409 . S
C247 H274 0.931 . S
C248 C243 1.356 . S
C248 C247 1.409 . S
C248 H275 0.930 . S
C249 O262 1.270 . S
C249 O263 1.248 . S
C250 O264 1.267 . S
C250 O265 1.278 . S
C251 Pr241 2.880 1_556 S
C251 C252 1.491 . S
C251 O266 1.254 . S
C251 O267 1.225 . S
C252 C251 1.491 . S
C252 C253 1.392 . S
C252 C257 1.356 . S
C253 C252 1.392 . S
C253 C254 1.368 . S
C253 H276 0.929 . S
C254 C253 1.368 . S
C254 C255 1.386 . S
C254 H277 0.929 . S
C255 C254 1.386 . S
C255 C256 1.373 . S
C256 C255 1.373 . S
C256 C257 1.409 . S
C256 H278 0.931 . S
C257 C252 1.356 . S
C257 C256 1.409 . S
C257 H279 0.930 . S
C258 O268 1.270 . S
C258 O269 1.248 . S
C259 O270 1.267 1_556 S
C259 O271 1.278 . S
O260 Pr240 2.562 . S
O260 C242 1.254 . S
O261 Pr240 2.490 . S
O261 C242 1.225 . S
O262 Pr240 2.695 . S
O262 Pr241 2.436 . S
O262 C249 1.270 . S
O263 Pr240 2.512 . S
O263 C249 1.248 . S
O264 Pr241 2.438 . S
O264 C250 1.267 . S
O265 Pr240 2.437 . S
O265 C250 1.278 . S
O266 Pr241 2.562 1_556 S
O266 C251 1.254 . S
O267 Pr241 2.490 1_556 S
O267 C251 1.225 . S
O268 Pr240 2.436 . S
O268 Pr241 2.695 . S
O268 C258 1.270 . S
O269 Pr241 2.512 . S
O269 C258 1.248 . S
O270 Pr240 2.438 . S
O270 C259 1.267 1_554 S
O271 Pr241 2.437 1_556 S
O271 C259 1.278 . S
H272 C244 0.929 . S
H273 C245 0.929 . S
H274 C247 0.931 . S
H275 C248 0.930 . S
H276 C253 0.929 . S
H277 C254 0.929 . S
H278 C256 0.931 . S
H279 C257 0.930 . S
Pr280 C282 2.880 . S
Pr280 O300 2.562 . S
Pr280 O301 2.490 . S
Pr280 O302 2.695 . S
Pr280 O303 2.512 . S
Pr280 O305 2.437 . S
Pr280 O308 2.436 . S
Pr280 O310 2.438 . S
Pr281 C291 2.880 . S
Pr281 O302 2.436 . S
Pr281 O304 2.438 . S
Pr281 O306 2.562 . S
Pr281 O307 2.490 . S
Pr281 O308 2.695 . S
Pr281 O309 2.512 . S
Pr281 O311 2.437 . S
C282 Pr280 2.880 . S
C282 C283 1.491 . S
C282 O300 1.254 . S
C282 O301 1.225 . S
C283 C282 1.491 . S
C283 C284 1.392 . S
C283 C288 1.356 . S
C284 C283 1.392 . S
C284 C285 1.368 . S
C284 H312 0.929 . S
C285 C284 1.368 . S
C285 C286 1.386 . S
C285 H313 0.929 . S
C286 C285 1.386 . S
C286 C287 1.373 . S
C287 C286 1.373 . S
C287 C288 1.409 . S
C287 H314 0.931 . S
C288 C283 1.356 . S
C288 C287 1.409 . S
C288 H315 0.930 . S
C289 O302 1.270 . S
C289 O303 1.248 . S
C290 O304 1.267 . S
C290 O305 1.278 . S
C291 Pr281 2.880 . S
C291 C292 1.491 . S
C291 O306 1.254 . S
C291 O307 1.225 . S
C292 C291 1.491 . S
C292 C293 1.392 . S
C292 C297 1.356 . S
C293 C292 1.392 . S
C293 C294 1.368 . S
C293 H316 0.929 . S
C294 C293 1.368 . S
C294 C295 1.386 . S
C294 H317 0.929 . S
C295 C294 1.386 . S
C295 C296 1.373 . S
C296 C295 1.373 . S
C296 C297 1.409 . S
C296 H318 0.931 . S
C297 C292 1.356 . S
C297 C296 1.409 . S
C297 H319 0.930 . S
C298 O308 1.270 . S
C298 O309 1.248 . S
C299 O310 1.267 . S
C299 O311 1.278 . S
O300 Pr280 2.562 . S
O300 C282 1.254 . S
O301 Pr280 2.490 . S
O301 C282 1.225 . S
O302 Pr280 2.695 . S
O302 Pr281 2.436 . S
O302 C289 1.270 . S
O303 Pr280 2.512 . S
O303 C289 1.248 . S
O304 Pr281 2.438 . S
O304 C290 1.267 . S
O305 Pr280 2.437 . S
O305 C290 1.278 . S
O306 Pr281 2.562 . S
O306 C291 1.254 . S
O307 Pr281 2.490 . S
O307 C291 1.225 . S
O308 Pr280 2.436 . S
O308 Pr281 2.695 . S
O308 C298 1.270 . S
O309 Pr281 2.512 . S
O309 C298 1.248 . S
O310 Pr280 2.438 . S
O310 C299 1.267 . S
O311 Pr281 2.437 . S
O311 C299 1.278 . S
H312 C284 0.929 . S
H313 C285 0.929 . S
H314 C287 0.931 . S
H315 C288 0.930 . S
H316 C293 0.929 . S
H317 C294 0.929 . S
H318 C296 0.931 . S
H319 C297 0.930 . S
Pr320 C322 2.880 . S
Pr320 O340 2.562 . S
Pr320 O341 2.490 . S
Pr320 O342 2.695 . S
Pr320 O343 2.512 . S
Pr320 O345 2.437 . S
Pr320 O348 2.436 . S
Pr320 O350 2.438 . S
Pr321 C331 2.880 . S
Pr321 O342 2.436 . S
Pr321 O344 2.438 . S
Pr321 O346 2.562 . S
Pr321 O347 2.490 . S
Pr321 O348 2.695 . S
Pr321 O349 2.512 . S
Pr321 O351 2.437 . S
C322 Pr320 2.880 . S
C322 C323 1.491 . S
C322 O340 1.254 . S
C322 O341 1.225 . S
C323 C322 1.491 . S
C323 C324 1.392 . S
C323 C328 1.356 . S
C324 C323 1.392 . S
C324 C325 1.368 . S
C324 H352 0.929 . S
C325 C324 1.368 . S
C325 C326 1.386 . S
C325 H353 0.929 . S
C326 C325 1.386 . S
C326 C327 1.373 . S
C327 C326 1.373 . S
C327 C328 1.409 . S
C327 H354 0.931 . S
C328 C323 1.356 . S
C328 C327 1.409 . S
C328 H355 0.930 . S
C329 O342 1.270 . S
C329 O343 1.248 . S
C330 O344 1.267 . S
C330 O345 1.278 . S
C331 Pr321 2.880 . S
C331 C332 1.491 . S
C331 O346 1.254 . S
C331 O347 1.225 . S
C332 C331 1.491 . S
C332 C333 1.392 1_655 S
C332 C337 1.356 1_554 S
C333 C332 1.392 1_455 S
C333 C334 1.368 1_554 S
C333 H356 0.929 . S
C334 C333 1.368 1_556 S
C334 C335 1.394 . S
C334 H357 0.929 . S
C335 C334 1.394 . S
C335 C336 1.361 1_455 S
C336 C335 1.361 1_655 S
C336 C337 1.409 . S
C336 H358 0.931 . S
C337 C332 1.356 1_556 S
C337 C336 1.409 . S
C337 H359 0.930 1_556 S
C338 O348 1.270 . S
C338 O349 1.248 . S
C339 O350 1.267 . S
C339 O351 1.278 . S
O340 Pr320 2.562 . S
O340 C322 1.254 . S
O341 Pr320 2.490 . S
O341 C322 1.225 . S
O342 Pr320 2.695 . S
O342 Pr321 2.436 . S
O342 C329 1.270 . S
O343 Pr320 2.512 . S
O343 C329 1.248 . S
O344 Pr321 2.438 . S
O344 C330 1.267 . S
O345 Pr320 2.437 . S
O345 C330 1.278 . S
O346 Pr321 2.562 . S
O346 C331 1.254 . S
O347 Pr321 2.490 . S
O347 C331 1.225 . S
O348 Pr320 2.436 . S
O348 Pr321 2.695 . S
O348 C338 1.270 . S
O349 Pr321 2.512 . S
O349 C338 1.248 . S
O350 Pr320 2.438 . S
O350 C339 1.267 . S
O351 Pr321 2.437 . S
O351 C339 1.278 . S
H352 C324 0.929 . S
H353 C325 0.929 . S
H354 C327 0.931 . S
H355 C328 0.930 . S
H356 C333 0.929 . S
H357 C334 0.929 . S
H358 C336 0.931 . S
H359 C337 0.930 1_554 S
Pr360 C362 2.880 . S
Pr360 O380 2.562 . S
Pr360 O381 2.490 . S
Pr360 O382 2.695 . S
Pr360 O383 2.512 . S
Pr360 O385 2.437 . S
Pr360 O388 2.436 . S
Pr360 O390 2.438 1_556 S
Pr361 C371 2.880 1_556 S
Pr361 O382 2.436 . S
Pr361 O384 2.438 . S
Pr361 O386 2.562 1_556 S
Pr361 O387 2.490 1_556 S
Pr361 O388 2.695 . S
Pr361 O389 2.512 . S
Pr361 O391 2.437 1_556 S
C362 Pr360 2.880 . S
C362 C363 1.491 . S
C362 O380 1.254 . S
C362 O381 1.225 . S
C363 C362 1.491 . S
C363 C364 1.392 . S
C363 C368 1.356 . S
C364 C363 1.392 . S
C364 C365 1.368 . S
C364 H392 0.929 . S
C365 C364 1.368 . S
C365 C366 1.386 . S
C365 H393 0.929 . S
C366 C365 1.386 . S
C366 C367 1.373 . S
C367 C366 1.373 . S
C367 C368 1.409 . S
C367 H394 0.931 . S
C368 C363 1.356 . S
C368 C367 1.409 . S
C368 H395 0.930 . S
C369 O382 1.270 . S
C369 O383 1.248 . S
C370 O384 1.267 . S
C370 O385 1.278 . S
C371 Pr361 2.880 1_554 S
C371 C372 1.491 . S
C371 O386 1.254 . S
C371 O387 1.225 . S
C372 C371 1.491 . S
C372 C373 1.392 . S
C372 C377 1.356 . S
C373 C372 1.392 . S
C373 C374 1.368 . S
C373 H396 0.929 . S
C374 C373 1.368 . S
C374 C375 1.386 . S
C374 H397 0.929 . S
C375 C374 1.386 . S
C375 C376 1.373 . S
C376 C375 1.373 . S
C376 C377 1.409 . S
C376 H398 0.931 . S
C377 C372 1.356 . S
C377 C376 1.409 . S
C377 H399 0.930 . S
C378 O388 1.270 . S
C378 O389 1.248 . S
C379 O390 1.267 . S
C379 O391 1.278 . S
O380 Pr360 2.562 . S
O380 C362 1.254 . S
O381 Pr360 2.490 . S
O381 C362 1.225 . S
O382 Pr360 2.695 . S
O382 Pr361 2.436 . S
O382 C369 1.270 . S
O383 Pr360 2.512 . S
O383 C369 1.248 . S
O384 Pr361 2.438 . S
O384 C370 1.267 . S
O385 Pr360 2.437 . S
O385 C370 1.278 . S
O386 Pr361 2.562 1_554 S
O386 C371 1.254 . S
O387 Pr361 2.490 1_554 S
O387 C371 1.225 . S
O388 Pr360 2.436 . S
O388 Pr361 2.695 . S
O388 C378 1.270 . S
O389 Pr361 2.512 . S
O389 C378 1.248 . S
O390 Pr360 2.438 1_554 S
O390 C379 1.267 . S
O391 Pr361 2.437 1_554 S
O391 C379 1.278 . S
H392 C364 0.929 . S
H393 C365 0.929 . S
H394 C367 0.931 . S
H395 C368 0.930 . S
H396 C373 0.929 . S
H397 C374 0.929 . S
H398 C376 0.931 . S
H399 C377 0.930 . S
Pr400 C402 2.880 . S
Pr400 O420 2.562 . S
Pr400 O421 2.490 . S
Pr400 O422 2.695 . S
Pr400 O423 2.512 . S
Pr400 O425 2.437 . S
Pr400 O428 2.436 . S
Pr400 O430 2.438 . S
Pr401 C411 2.880 . S
Pr401 O422 2.436 . S
Pr401 O424 2.438 . S
Pr401 O426 2.562 . S
Pr401 O427 2.490 . S
Pr401 O428 2.695 . S
Pr401 O429 2.512 . S
Pr401 O431 2.437 . S
C402 Pr400 2.880 . S
C402 C403 1.491 . S
C402 O420 1.254 . S
C402 O421 1.225 . S
C403 C402 1.491 . S
C403 C404 1.392 . S
C403 C408 1.356 . S
C404 C403 1.392 . S
C404 C405 1.368 . S
C404 H432 0.929 . S
C405 C404 1.368 . S
C405 C406 1.386 . S
C405 H433 0.929 . S
C406 C405 1.386 . S
C406 C407 1.373 . S
C407 C406 1.373 . S
C407 C408 1.409 . S
C407 H434 0.931 . S
C408 C403 1.356 . S
C408 C407 1.409 . S
C408 H435 0.930 . S
C409 O422 1.270 . S
C409 O423 1.248 . S
C410 O424 1.267 . S
C410 O425 1.278 . S
C411 Pr401 2.880 . S
C411 C412 1.491 . S
C411 O426 1.254 . S
C411 O427 1.225 . S
C412 C411 1.491 . S
C412 C413 1.392 . S
C412 C417 1.356 . S
C413 C412 1.392 . S
C413 C414 1.368 . S
C413 H436 0.929 . S
C414 C413 1.368 . S
C414 C415 1.386 . S
C414 H437 0.929 . S
C415 C414 1.386 . S
C415 C416 1.373 . S
C416 C415 1.373 . S
C416 C417 1.409 . S
C416 H438 0.931 . S
C417 C412 1.356 . S
C417 C416 1.409 . S
C417 H439 0.930 . S
C418 O428 1.270 . S
C418 O429 1.248 . S
C419 O430 1.267 . S
C419 O431 1.278 . S
O420 Pr400 2.562 . S
O420 C402 1.254 . S
O421 Pr400 2.490 . S
O421 C402 1.225 . S
O422 Pr400 2.695 . S
O422 Pr401 2.436 . S
O422 C409 1.270 . S
O423 Pr400 2.512 . S
O423 C409 1.248 . S
O424 Pr401 2.438 . S
O424 C410 1.267 . S
O425 Pr400 2.437 . S
O425 C410 1.278 . S
O426 Pr401 2.562 . S
O426 C411 1.254 . S
O427 Pr401 2.490 . S
O427 C411 1.225 . S
O428 Pr400 2.436 . S
O428 Pr401 2.695 . S
O428 C418 1.270 . S
O429 Pr401 2.512 . S
O429 C418 1.248 . S
O430 Pr400 2.438 . S
O430 C419 1.267 . S
O431 Pr401 2.437 . S
O431 C419 1.278 . S
H432 C404 0.929 . S
H433 C405 0.929 . S
H434 C407 0.931 . S
H435 C408 0.930 . S
H436 C413 0.929 . S
H437 C414 0.929 . S
H438 C416 0.931 . S
H439 C417 0.930 . S
Pr440 C442 2.880 . S
Pr440 O460 2.562 . S
Pr440 O461 2.490 . S
Pr440 O462 2.695 . S
Pr440 O463 2.512 . S
Pr440 O465 2.437 . S
Pr440 O468 2.436 . S
Pr440 O470 2.438 . S
Pr441 C451 2.880 . S
Pr441 O462 2.436 . S
Pr441 O464 2.438 . S
Pr441 O466 2.562 . S
Pr441 O467 2.490 . S
Pr441 O468 2.695 . S
Pr441 O469 2.512 . S
Pr441 O471 2.437 . S
C442 Pr440 2.880 . S
C442 C443 1.491 . S
C442 O460 1.254 . S
C442 O461 1.225 . S
C443 C442 1.491 . S
C443 C444 1.392 . S
C443 C448 1.356 . S
C444 C443 1.392 . S
C444 C445 1.368 . S
C444 H472 0.929 . S
C445 C444 1.368 . S
C445 C446 1.386 . S
C445 H473 0.929 . S
C446 C445 1.386 . S
C446 C447 1.373 . S
C447 C446 1.373 . S
C447 C448 1.409 . S
C447 H474 0.931 . S
C448 C443 1.356 . S
C448 C447 1.409 . S
C448 H475 0.930 . S
C449 O462 1.270 . S
C449 O463 1.248 . S
C450 O464 1.267 . S
C450 O465 1.278 . S
C451 Pr441 2.880 . S
C451 C452 1.491 . S
C451 O466 1.254 . S
C451 O467 1.225 . S
C452 C451 1.491 . S
C452 C453 1.392 . S
C452 C457 1.356 . S
C453 C452 1.392 . S
C453 C454 1.368 . S
C453 H476 0.929 . S
C454 C453 1.368 . S
C454 C455 1.386 . S
C454 H477 0.929 . S
C455 C454 1.386 . S
C455 C456 1.373 . S
C456 C455 1.373 . S
C456 C457 1.409 . S
C456 H478 0.931 . S
C457 C452 1.356 . S
C457 C456 1.409 . S
C457 H479 0.930 . S
C458 O468 1.270 . S
C458 O469 1.248 . S
C459 O470 1.267 . S
C459 O471 1.278 . S
O460 Pr440 2.562 . S
O460 C442 1.254 . S
O461 Pr440 2.490 . S
O461 C442 1.225 . S
O462 Pr440 2.695 . S
O462 Pr441 2.436 . S
O462 C449 1.270 . S
O463 Pr440 2.512 . S
O463 C449 1.248 . S
O464 Pr441 2.438 . S
O464 C450 1.267 . S
O465 Pr440 2.437 . S
O465 C450 1.278 . S
O466 Pr441 2.562 . S
O466 C451 1.254 . S
O467 Pr441 2.490 . S
O467 C451 1.225 . S
O468 Pr440 2.436 . S
O468 Pr441 2.695 . S
O468 C458 1.270 . S
O469 Pr441 2.512 . S
O469 C458 1.248 . S
O470 Pr440 2.438 . S
O470 C459 1.267 . S
O471 Pr441 2.437 . S
O471 C459 1.278 . S
H472 C444 0.929 . S
H473 C445 0.929 . S
H474 C447 0.931 . S
H475 C448 0.930 . S
H476 C453 0.929 . S
H477 C454 0.929 . S
H478 C456 0.931 . S
H479 C457 0.930 . S
Pr480 C482 2.880 . S
Pr480 O500 2.562 . S
Pr480 O501 2.490 . S
Pr480 O502 2.695 . S
Pr480 O503 2.512 . S
Pr480 O505 2.437 . S
Pr480 O508 2.436 . S
Pr480 O510 2.438 . S
Pr481 C491 2.880 . S
Pr481 O502 2.436 . S
Pr481 O504 2.438 . S
Pr481 O506 2.562 . S
Pr481 O507 2.490 . S
Pr481 O508 2.695 . S
Pr481 O509 2.512 . S
Pr481 O511 2.437 . S
C482 Pr480 2.880 . S
C482 C483 1.491 . S
C482 O500 1.254 . S
C482 O501 1.225 . S
C483 C482 1.491 . S
C483 C484 1.392 . S
C483 C488 1.356 . S
C484 C483 1.392 . S
C484 C485 1.368 . S
C484 H512 0.929 . S
C485 C484 1.368 . S
C485 C486 1.386 . S
C485 H513 0.929 . S
C486 C485 1.386 . S
C486 C487 1.373 . S
C487 C486 1.373 . S
C487 C488 1.409 . S
C487 H514 0.931 . S
C488 C483 1.356 . S
C488 C487 1.409 . S
C488 H515 0.930 . S
C489 O502 1.270 . S
C489 O503 1.248 . S
C490 O504 1.267 . S
C490 O505 1.278 . S
C491 Pr481 2.880 . S
C491 C492 1.491 . S
C491 O506 1.254 . S
C491 O507 1.225 . S
C492 C491 1.491 . S
C492 C493 1.392 . S
C492 C497 1.356 . S
C493 C492 1.392 . S
C493 C494 1.368 . S
C493 H516 0.929 . S
C494 C493 1.368 . S
C494 C495 1.386 . S
C494 H517 0.929 . S
C495 C494 1.386 . S
C495 C496 1.373 . S
C496 C495 1.373 . S
C496 C497 1.409 . S
C496 H518 0.931 . S
C497 C492 1.356 . S
C497 C496 1.409 . S
C497 H519 0.930 . S
C498 O508 1.270 . S
C498 O509 1.248 . S
C499 O510 1.267 . S
C499 O511 1.278 . S
O500 Pr480 2.562 . S
O500 C482 1.254 . S
O501 Pr480 2.490 . S
O501 C482 1.225 . S
O502 Pr480 2.695 . S
O502 Pr481 2.436 . S
O502 C489 1.270 . S
O503 Pr480 2.512 . S
O503 C489 1.248 . S
O504 Pr481 2.438 . S
O504 C490 1.267 . S
O505 Pr480 2.437 . S
O505 C490 1.278 . S
O506 Pr481 2.562 . S
O506 C491 1.254 . S
O507 Pr481 2.490 . S
O507 C491 1.225 . S
O508 Pr480 2.436 . S
O508 Pr481 2.695 . S
O508 C498 1.270 . S
O509 Pr481 2.512 . S
O509 C498 1.248 . S
O510 Pr480 2.438 . S
O510 C499 1.267 . S
O511 Pr481 2.437 . S
O511 C499 1.278 . S
H512 C484 0.929 . S
H513 C485 0.929 . S
H514 C487 0.931 . S
H515 C488 0.930 . S
H516 C493 0.929 . S
H517 C494 0.929 . S
H518 C496 0.931 . S
H519 C497 0.930 . S
Pr520 C522 2.880 . S
Pr520 O540 2.562 . S
Pr520 O541 2.490 . S
Pr520 O542 2.695 . S
Pr520 O543 2.512 . S
Pr520 O545 2.437 . S
Pr520 O548 2.436 . S
Pr520 O550 2.438 . S
Pr521 C531 2.880 . S
Pr521 O542 2.436 . S
Pr521 O544 2.438 . S
Pr521 O546 2.562 . S
Pr521 O547 2.490 . S
Pr521 O548 2.695 . S
Pr521 O549 2.512 . S
Pr521 O551 2.437 . S
C522 Pr520 2.880 . S
C522 C523 1.491 . S
C522 O540 1.254 . S
C522 O541 1.225 . S
C523 C522 1.491 . S
C523 C524 1.392 . S
C523 C528 1.356 . S
C524 C523 1.392 . S
C524 C525 1.368 . S
C524 H552 0.929 . S
C525 C524 1.368 . S
C525 C526 1.386 . S
C525 H553 0.929 . S
C526 C525 1.386 . S
C526 C527 1.373 . S
C527 C526 1.373 . S
C527 C528 1.409 . S
C527 H554 0.931 . S
C528 C523 1.356 . S
C528 C527 1.409 . S
C528 H555 0.930 . S
C529 O542 1.270 . S
C529 O543 1.248 . S
C530 O544 1.267 . S
C530 O545 1.278 . S
C531 Pr521 2.880 . S
C531 C532 1.491 . S
C531 O546 1.254 . S
C531 O547 1.225 . S
C532 C531 1.491 . S
C532 C533 1.392 . S
C532 C537 1.356 . S
C533 C532 1.392 . S
C533 C534 1.368 . S
C533 H556 0.929 . S
C534 C533 1.368 . S
C534 C535 1.386 . S
C534 H557 0.929 . S
C535 C534 1.386 . S
C535 C536 1.373 . S
C536 C535 1.373 . S
C536 C537 1.409 . S
C536 H558 0.931 . S
C537 C532 1.356 . S
C537 C536 1.409 . S
C537 H559 0.930 . S
C538 O548 1.270 . S
C538 O549 1.248 . S
C539 O550 1.267 . S
C539 O551 1.278 . S
O540 Pr520 2.562 . S
O540 C522 1.254 . S
O541 Pr520 2.490 . S
O541 C522 1.225 . S
O542 Pr520 2.695 . S
O542 Pr521 2.436 . S
O542 C529 1.270 . S
O543 Pr520 2.512 . S
O543 C529 1.248 . S
O544 Pr521 2.438 . S
O544 C530 1.267 . S
O545 Pr520 2.437 . S
O545 C530 1.278 . S
O546 Pr521 2.562 . S
O546 C531 1.254 . S
O547 Pr521 2.490 . S
O547 C531 1.225 . S
O548 Pr520 2.436 . S
O548 Pr521 2.695 . S
O548 C538 1.270 . S
O549 Pr521 2.512 . S
O549 C538 1.248 . S
O550 Pr520 2.438 . S
O550 C539 1.267 . S
O551 Pr521 2.437 . S
O551 C539 1.278 . S
H552 C524 0.929 . S
H553 C525 0.929 . S
H554 C527 0.931 . S
H555 C528 0.930 . S
H556 C533 0.929 . S
H557 C534 0.929 . S
H558 C536 0.931 . S
H559 C537 0.930 . S
Pr560 C562 2.880 . S
Pr560 O580 2.562 . S
Pr560 O581 2.490 . S
Pr560 O582 2.695 . S
Pr560 O583 2.512 . S
Pr560 O585 2.437 . S
Pr560 O588 2.436 . S
Pr560 O590 2.438 . S
Pr561 C571 2.880 . S
Pr561 O582 2.436 . S
Pr561 O584 2.438 . S
Pr561 O586 2.562 . S
Pr561 O587 2.490 . S
Pr561 O588 2.695 . S
Pr561 O589 2.512 . S
Pr561 O591 2.437 . S
C562 Pr560 2.880 . S
C562 C563 1.491 . S
C562 O580 1.254 . S
C562 O581 1.225 . S
C563 C562 1.491 . S
C563 C564 1.392 . S
C563 C568 1.356 . S
C564 C563 1.392 . S
C564 C565 1.368 . S
C564 H592 0.929 . S
C565 C564 1.368 . S
C565 C566 1.386 . S
C565 H593 0.929 . S
C566 C565 1.386 . S
C566 C567 1.373 . S
C567 C566 1.373 . S
C567 C568 1.409 . S
C567 H594 0.931 . S
C568 C563 1.356 . S
C568 C567 1.409 . S
C568 H595 0.930 . S
C569 O582 1.270 . S
C569 O583 1.248 . S
C570 O584 1.267 . S
C570 O585 1.278 . S
C571 Pr561 2.880 . S
C571 C572 1.491 . S
C571 O586 1.254 . S
C571 O587 1.225 . S
C572 C571 1.491 . S
C572 C573 1.392 . S
C572 C577 1.356 . S
C573 C572 1.392 . S
C573 C574 1.368 . S
C573 H596 0.929 . S
C574 C573 1.368 . S
C574 C575 1.386 . S
C574 H597 0.929 . S
C575 C574 1.386 . S
C575 C576 1.373 . S
C576 C575 1.373 . S
C576 C577 1.409 . S
C576 H598 0.931 . S
C577 C572 1.356 . S
C577 C576 1.409 . S
C577 H599 0.930 . S
C578 O588 1.270 . S
C578 O589 1.248 . S
C579 O590 1.267 . S
C579 O591 1.278 . S
O580 Pr560 2.562 . S
O580 C562 1.254 . S
O581 Pr560 2.490 . S
O581 C562 1.225 . S
O582 Pr560 2.695 . S
O582 Pr561 2.436 . S
O582 C569 1.270 . S
O583 Pr560 2.512 . S
O583 C569 1.248 . S
O584 Pr561 2.438 . S
O584 C570 1.267 . S
O585 Pr560 2.437 . S
O585 C570 1.278 . S
O586 Pr561 2.562 . S
O586 C571 1.254 . S
O587 Pr561 2.490 . S
O587 C571 1.225 . S
O588 Pr560 2.436 . S
O588 Pr561 2.695 . S
O588 C578 1.270 . S
O589 Pr561 2.512 . S
O589 C578 1.248 . S
O590 Pr560 2.438 . S
O590 C579 1.267 . S
O591 Pr561 2.437 . S
O591 C579 1.278 . S
H592 C564 0.929 . S
H593 C565 0.929 . S
H594 C567 0.931 . S
H595 C568 0.930 . S
H596 C573 0.929 . S
H597 C574 0.929 . S
H598 C576 0.931 . S
H599 C577 0.930 . S
Pr600 C602 2.880 . S
Pr600 O620 2.562 . S
Pr600 O621 2.490 . S
Pr600 O622 2.695 1_554 S
Pr600 O623 2.512 . S
Pr600 O625 2.437 . S
Pr600 O628 2.436 . S
Pr600 O630 2.438 1_554 S
Pr601 C611 2.880 . S
Pr601 O622 2.436 . S
Pr601 O624 2.438 1_556 S
Pr601 O626 2.562 . S
Pr601 O627 2.490 . S
Pr601 O628 2.695 1_556 S
Pr601 O629 2.512 . S
Pr601 O631 2.437 . S
C602 Pr600 2.880 . S
C602 C603 1.491 . S
C602 O620 1.254 . S
C602 O621 1.225 . S
C603 C602 1.491 . S
C603 C604 1.392 . S
C603 C608 1.356 . S
C604 C603 1.392 . S
C604 C605 1.368 . S
C604 H632 0.929 . S
C605 C604 1.368 . S
C605 C606 1.386 . S
C605 H633 0.929 . S
C606 C605 1.386 . S
C606 C607 1.373 . S
C607 C606 1.373 . S
C607 C608 1.409 . S
C607 H634 0.931 . S
C608 C603 1.356 . S
C608 C607 1.409 . S
C608 H635 0.930 . S
C609 O622 1.270 . S
C609 O623 1.248 1_556 S
C610 O624 1.267 . S
C610 O625 1.278 . S
C611 Pr601 2.880 . S
C611 C612 1.491 . S
C611 O626 1.254 . S
C611 O627 1.225 . S
C612 C611 1.491 . S
C612 C613 1.392 . S
C612 C617 1.356 . S
C613 C612 1.392 . S
C613 C614 1.368 . S
C613 H636 0.929 . S
C614 C613 1.368 . S
C614 C615 1.386 . S
C614 H637 0.929 . S
C615 C614 1.386 . S
C615 C616 1.373 . S
C616 C615 1.373 . S
C616 C617 1.409 . S
C616 H638 0.931 . S
C617 C612 1.356 . S
C617 C616 1.409 . S
C617 H639 0.930 . S
C618 O628 1.270 . S
C618 O629 1.248 1_554 S
C619 O630 1.267 . S
C619 O631 1.278 . S
O620 Pr600 2.562 . S
O620 C602 1.254 . S
O621 Pr600 2.490 . S
O621 C602 1.225 . S
O622 Pr600 2.695 1_556 S
O622 Pr601 2.436 . S
O622 C609 1.270 . S
O623 Pr600 2.512 . S
O623 C609 1.248 1_554 S
O624 Pr601 2.438 1_554 S
O624 C610 1.267 . S
O625 Pr600 2.437 . S
O625 C610 1.278 . S
O626 Pr601 2.562 . S
O626 C611 1.254 . S
O627 Pr601 2.490 . S
O627 C611 1.225 . S
O628 Pr600 2.436 . S
O628 Pr601 2.695 1_554 S
O628 C618 1.270 . S
O629 Pr601 2.512 . S
O629 C618 1.248 1_556 S
O630 Pr600 2.438 1_556 S
O630 C619 1.267 . S
O631 Pr601 2.437 . S
O631 C619 1.278 . S
H632 C604 0.929 . S
H633 C605 0.929 . S
H634 C607 0.931 . S
H635 C608 0.930 . S
H636 C613 0.929 . S
H637 C614 0.929 . S
H638 C616 0.931 . S
H639 C617 0.930 . S
Pr640 C642 2.880 . S
Pr640 O660 2.562 . S
Pr640 O661 2.490 . S
Pr640 O662 2.695 . S
Pr640 O663 2.512 . S
Pr640 O665 2.437 . S
Pr640 O668 2.436 . S
Pr640 O670 2.438 . S
Pr641 C651 2.880 . S
Pr641 O662 2.436 . S
Pr641 O664 2.438 . S
Pr641 O666 2.562 . S
Pr641 O667 2.490 . S
Pr641 O668 2.695 . S
Pr641 O669 2.512 . S
Pr641 O671 2.437 . S
C642 Pr640 2.880 . S
C642 C643 1.491 . S
C642 O660 1.254 . S
C642 O661 1.225 . S
C643 C642 1.491 . S
C643 C644 1.392 . S
C643 C648 1.356 . S
C644 C643 1.392 . S
C644 C645 1.368 . S
C644 H672 0.929 . S
C645 C644 1.368 . S
C645 C646 1.386 . S
C645 H673 0.929 . S
C646 C645 1.386 . S
C646 C647 1.373 . S
C647 C646 1.373 . S
C647 C648 1.409 . S
C647 H674 0.931 . S
C648 C643 1.356 . S
C648 C647 1.409 . S
C648 H675 0.930 . S
C649 O662 1.270 . S
C649 O663 1.248 . S
C650 O664 1.267 . S
C650 O665 1.278 . S
C651 Pr641 2.880 . S
C651 C652 1.491 . S
C651 O666 1.254 . S
C651 O667 1.225 . S
C652 C651 1.491 . S
C652 C653 1.392 . S
C652 C657 1.356 . S
C653 C652 1.392 . S
C653 C654 1.368 . S
C653 H676 0.929 . S
C654 C653 1.368 . S
C654 C655 1.386 . S
C654 H677 0.929 . S
C655 C654 1.386 . S
C655 C656 1.373 . S
C656 C655 1.373 . S
C656 C657 1.409 . S
C656 H678 0.931 . S
C657 C652 1.356 . S
C657 C656 1.409 . S
C657 H679 0.930 . S
C658 O668 1.270 . S
C658 O669 1.248 . S
C659 O670 1.267 . S
C659 O671 1.278 . S
O660 Pr640 2.562 . S
O660 C642 1.254 . S
O661 Pr640 2.490 . S
O661 C642 1.225 . S
O662 Pr640 2.695 . S
O662 Pr641 2.436 . S
O662 C649 1.270 . S
O663 Pr640 2.512 . S
O663 C649 1.248 . S
O664 Pr641 2.438 . S
O664 C650 1.267 . S
O665 Pr640 2.437 . S
O665 C650 1.278 . S
O666 Pr641 2.562 . S
O666 C651 1.254 . S
O667 Pr641 2.490 . S
O667 C651 1.225 . S
O668 Pr640 2.436 . S
O668 Pr641 2.695 . S
O668 C658 1.270 . S
O669 Pr641 2.512 . S
O669 C658 1.248 . S
O670 Pr640 2.438 . S
O670 C659 1.267 . S
O671 Pr641 2.437 . S
O671 C659 1.278 . S
H672 C644 0.929 . S
H673 C645 0.929 . S
H674 C647 0.931 . S
H675 C648 0.930 . S
H676 C653 0.929 . S
H677 C654 0.929 . S
H678 C656 0.931 . S
H679 C657 0.930 . S
Pr680 C682 2.880 . S
Pr680 O700 2.562 . S
Pr680 O701 2.490 . S
Pr680 O702 2.695 . S
Pr680 O703 2.512 . S
Pr680 O705 2.437 . S
Pr680 O708 2.436 . S
Pr680 O710 2.438 . S
Pr681 C691 2.880 . S
Pr681 O702 2.436 . S
Pr681 O704 2.438 . S
Pr681 O706 2.562 . S
Pr681 O707 2.490 . S
Pr681 O708 2.695 . S
Pr681 O709 2.512 . S
Pr681 O711 2.437 . S
C682 Pr680 2.880 . S
C682 C683 1.491 . S
C682 O700 1.254 . S
C682 O701 1.225 . S
C683 C682 1.491 . S
C683 C684 1.392 . S
C683 C688 1.356 . S
C684 C683 1.392 . S
C684 C685 1.368 . S
C684 H712 0.929 . S
C685 C684 1.368 . S
C685 C686 1.386 . S
C685 H713 0.929 . S
C686 C685 1.386 . S
C686 C687 1.373 . S
C687 C686 1.373 . S
C687 C688 1.409 . S
C687 H714 0.931 . S
C688 C683 1.356 . S
C688 C687 1.409 . S
C688 H715 0.930 . S
C689 O702 1.270 . S
C689 O703 1.248 . S
C690 O704 1.267 . S
C690 O705 1.278 . S
C691 Pr681 2.880 . S
C691 C692 1.491 1_556 S
C691 O706 1.254 . S
C691 O707 1.225 . S
C692 C691 1.491 1_554 S
C692 C693 1.392 . S
C692 C697 1.356 . S
C693 C692 1.392 . S
C693 C694 1.368 . S
C693 H716 0.929 . S
C694 C693 1.368 . S
C694 C695 1.386 . S
C694 H717 0.929 . S
C695 C694 1.386 . S
C695 C696 1.373 . S
C696 C695 1.373 . S
C696 C697 1.409 . S
C696 H718 0.931 . S
C697 C692 1.356 . S
C697 C696 1.409 . S
C697 H719 0.930 . S
C698 O708 1.270 . S
C698 O709 1.248 . S
C699 O710 1.267 . S
C699 O711 1.278 . S
O700 Pr680 2.562 . S
O700 C682 1.254 . S
O701 Pr680 2.490 . S
O701 C682 1.225 . S
O702 Pr680 2.695 . S
O702 Pr681 2.436 . S
O702 C689 1.270 . S
O703 Pr680 2.512 . S
O703 C689 1.248 . S
O704 Pr681 2.438 . S
O704 C690 1.267 . S
O705 Pr680 2.437 . S
O705 C690 1.278 . S
O706 Pr681 2.562 . S
O706 C691 1.254 . S
O707 Pr681 2.490 . S
O707 C691 1.225 . S
O708 Pr680 2.436 . S
O708 Pr681 2.695 . S
O708 C698 1.270 . S
O709 Pr681 2.512 . S
O709 C698 1.248 . S
O710 Pr680 2.438 . S
O710 C699 1.267 . S
O711 Pr681 2.437 . S
O711 C699 1.278 . S
H712 C684 0.929 . S
H713 C685 0.929 . S
H714 C687 0.931 . S
H715 C688 0.930 . S
H716 C693 0.929 . S
H717 C694 0.929 . S
H718 C696 0.931 . S
H719 C697 0.930 . S
Pr720 C722 2.880 . S
Pr720 O740 2.562 . S
Pr720 O741 2.490 . S
Pr720 O742 2.695 . S
Pr720 O743 2.512 . S
Pr720 O745 2.437 . S
Pr720 O748 2.436 . S
Pr720 O750 2.438 . S
Pr721 C731 2.880 1_554 S
Pr721 O742 2.436 . S
Pr721 O744 2.438 . S
Pr721 O746 2.562 . S
Pr721 O747 2.490 . S
Pr721 O748 2.695 . S
Pr721 O749 2.512 . S
Pr721 O751 2.437 . S
C722 Pr720 2.880 . S
C722 C723 1.491 . S
C722 O740 1.254 . S
C722 O741 1.225 . S
C723 C722 1.491 . S
C723 C724 1.392 . S
C723 C728 1.356 . S
C724 C723 1.392 . S
C724 C725 1.368 1_655 S
C724 H752 0.929 1_655 S
C725 C724 1.368 1_455 S
C725 C726 1.386 1_455 S
C725 H753 0.929 . S
C726 C725 1.386 1_655 S
C726 C727 1.373 . S
C727 C726 1.373 . S
C727 C728 1.409 . S
C727 H754 0.931 . S
C728 C723 1.356 . S
C728 C727 1.409 . S
C728 H755 0.930 . S
C729 O742 1.270 . S
C729 O743 1.248 . S
C730 O744 1.267 . S
C730 O745 1.278 . S
C731 Pr721 2.880 1_556 S
C731 C732 1.491 . S
C731 O746 1.254 1_556 S
C731 O747 1.225 1_556 S
C732 C731 1.491 . S
C732 C733 1.392 . S
C732 C737 1.356 . S
C733 C732 1.392 . S
C733 C734 1.368 . S
C733 H756 0.929 . S
C734 C733 1.368 . S
C734 C735 1.386 . S
C734 H757 0.929 . S
C735 C734 1.386 . S
C735 C736 1.373 . S
C736 C735 1.373 . S
C736 C737 1.409 . S
C736 H758 0.931 . S
C737 C732 1.356 . S
C737 C736 1.409 . S
C737 H759 0.930 . S
C738 O748 1.270 . S
C738 O749 1.248 . S
C739 O750 1.267 . S
C739 O751 1.278 . S
O740 Pr720 2.562 . S
O740 C722 1.254 . S
O741 Pr720 2.490 . S
O741 C722 1.225 . S
O742 Pr720 2.695 . S
O742 Pr721 2.436 . S
O742 C729 1.270 . S
O743 Pr720 2.512 . S
O743 C729 1.248 . S
O744 Pr721 2.438 . S
O744 C730 1.267 . S
O745 Pr720 2.437 . S
O745 C730 1.278 . S
O746 Pr721 2.562 . S
O746 C731 1.254 1_554 S
O747 Pr721 2.490 . S
O747 C731 1.225 1_554 S
O748 Pr720 2.436 . S
O748 Pr721 2.695 . S
O748 C738 1.270 . S
O749 Pr721 2.512 . S
O749 C738 1.248 . S
O750 Pr720 2.438 . S
O750 C739 1.267 . S
O751 Pr721 2.437 . S
O751 C739 1.278 . S
H752 C724 0.929 1_455 S
H753 C725 0.929 . S
H754 C727 0.931 . S
H755 C728 0.930 . S
H756 C733 0.929 . S
H757 C734 0.929 . S
H758 C736 0.931 . S
H759 C737 0.930 . S
Pr760 C762 2.880 . S
Pr760 O780 2.562 . S
Pr760 O781 2.490 . S
Pr760 O782 2.695 . S
Pr760 O783 2.512 . S
Pr760 O785 2.437 . S
Pr760 O788 2.436 . S
Pr760 O790 2.438 . S
Pr761 C771 2.880 . S
Pr761 O782 2.436 . S
Pr761 O784 2.438 . S
Pr761 O786 2.562 . S
Pr761 O787 2.490 . S
Pr761 O788 2.695 . S
Pr761 O789 2.512 . S
Pr761 O791 2.437 . S
C762 Pr760 2.880 . S
C762 C763 1.491 . S
C762 O780 1.254 . S
C762 O781 1.225 . S
C763 C762 1.491 . S
C763 C764 1.392 . S
C763 C768 1.356 . S
C764 C763 1.392 . S
C764 C765 1.368 . S
C764 H792 0.929 . S
C765 C764 1.368 . S
C765 C766 1.386 . S
C765 H793 0.929 . S
C766 C765 1.386 . S
C766 C767 1.373 . S
C767 C766 1.373 . S
C767 C768 1.409 . S
C767 H794 0.931 . S
C768 C763 1.356 . S
C768 C767 1.409 . S
C768 H795 0.930 . S
C769 O782 1.270 . S
C769 O783 1.248 . S
C770 O784 1.267 . S
C770 O785 1.278 . S
C771 Pr761 2.880 . S
C771 C772 1.491 . S
C771 O786 1.254 . S
C771 O787 1.225 . S
C772 C771 1.491 . S
C772 C773 1.392 . S
C772 C777 1.356 . S
C773 C772 1.392 . S
C773 C774 1.368 . S
C773 H796 0.929 . S
C774 C773 1.368 . S
C774 C775 1.386 . S
C774 H797 0.929 . S
C775 C774 1.386 . S
C775 C776 1.373 . S
C776 C775 1.373 . S
C776 C777 1.409 . S
C776 H798 0.931 . S
C777 C772 1.356 . S
C777 C776 1.409 . S
C777 H799 0.930 . S
C778 O788 1.270 . S
C778 O789 1.248 . S
C779 O790 1.267 . S
C779 O791 1.278 . S
O780 Pr760 2.562 . S
O780 C762 1.254 . S
O781 Pr760 2.490 . S
O781 C762 1.225 . S
O782 Pr760 2.695 . S
O782 Pr761 2.436 . S
O782 C769 1.270 . S
O783 Pr760 2.512 . S
O783 C769 1.248 . S
O784 Pr761 2.438 . S
O784 C770 1.267 . S
O785 Pr760 2.437 . S
O785 C770 1.278 . S
O786 Pr761 2.562 . S
O786 C771 1.254 . S
O787 Pr761 2.490 . S
O787 C771 1.225 . S
O788 Pr760 2.436 . S
O788 Pr761 2.695 . S
O788 C778 1.270 . S
O789 Pr761 2.512 . S
O789 C778 1.248 . S
O790 Pr760 2.438 . S
O790 C779 1.267 . S
O791 Pr761 2.437 . S
O791 C779 1.278 . S
H792 C764 0.929 . S
H793 C765 0.929 . S
H794 C767 0.931 . S
H795 C768 0.930 . S
H796 C773 0.929 . S
H797 C774 0.929 . S
H798 C776 0.931 . S
H799 C777 0.930 . S
Pr800 C802 2.880 . S
Pr800 O820 2.562 . S
Pr800 O821 2.490 . S
Pr800 O822 2.695 . S
Pr800 O823 2.512 . S
Pr800 O825 2.437 . S
Pr800 O828 2.436 . S
Pr800 O830 2.438 . S
Pr801 C811 2.880 1_544 S
Pr801 O822 2.436 . S
Pr801 O824 2.438 . S
Pr801 O826 2.562 1_554 S
Pr801 O827 2.490 1_544 S
Pr801 O828 2.695 . S
Pr801 O829 2.512 1_545 S
Pr801 O831 2.437 . S
C802 Pr800 2.880 . S
C802 C803 1.491 . S
C802 O820 1.254 . S
C802 O821 1.225 . S
C803 C802 1.491 . S
C803 C804 1.392 . S
C803 C808 1.356 . S
C804 C803 1.392 . S
C804 C805 1.368 . S
C804 H832 0.929 . S
C805 C804 1.368 . S
C805 C806 1.386 . S
C805 H833 0.929 . S
C806 C805 1.386 . S
C806 C807 1.373 . S
C807 C806 1.373 . S
C807 C808 1.409 . S
C807 H834 0.931 . S
C808 C803 1.356 . S
C808 C807 1.409 . S
C808 H835 0.930 . S
C809 O822 1.270 . S
C809 O823 1.248 . S
C810 O824 1.267 . S
C810 O825 1.278 . S
C811 Pr801 2.880 1_566 S
C811 C812 1.491 . S
C811 O826 1.254 1_565 S
C811 O827 1.225 . S
C812 C811 1.491 . S
C812 C813 1.392 . S
C812 C817 1.356 . S
C813 C812 1.392 . S
C813 C814 1.368 . S
C813 H836 0.929 . S
C814 C813 1.368 . S
C814 C815 1.386 . S
C814 H837 0.929 . S
C815 C814 1.386 . S
C815 C816 1.373 . S
C816 C815 1.373 . S
C816 C817 1.409 . S
C816 H838 0.950 . S
C817 C812 1.356 . S
C817 C816 1.409 . S
C817 H839 0.930 1_565 S
C818 O828 1.270 . S
C818 O829 1.248 1_545 S
C819 O830 1.267 1_556 S
C819 O831 1.278 1_556 S
O820 Pr800 2.562 . S
O820 C802 1.254 . S
O821 Pr800 2.490 . S
O821 C802 1.225 . S
O822 Pr800 2.695 . S
O822 Pr801 2.436 . S
O822 C809 1.270 . S
O823 Pr800 2.512 . S
O823 C809 1.248 . S
O824 Pr801 2.438 . S
O824 C810 1.267 . S
O825 Pr800 2.437 . S
O825 C810 1.278 . S
O826 Pr801 2.562 1_556 S
O826 C811 1.254 1_545 S
O827 Pr801 2.490 1_566 S
O827 C811 1.225 . S
O828 Pr800 2.436 . S
O828 Pr801 2.695 . S
O828 C818 1.270 . S
O829 Pr801 2.512 1_565 S
O829 C818 1.248 1_565 S
O830 Pr800 2.438 . S
O830 C819 1.267 1_554 S
O831 Pr801 2.437 . S
O831 C819 1.278 1_554 S
H832 C804 0.929 . S
H833 C805 0.929 . S
H834 C807 0.931 . S
H835 C808 0.930 . S
H836 C813 0.929 . S
H837 C814 0.929 . S
H838 C816 0.950 . S
H839 C817 0.930 1_545 S
Pr840 C842 2.880 . S
Pr840 O860 2.562 . S
Pr840 O861 2.490 . S
Pr840 O862 2.695 . S
Pr840 O863 2.512 . S
Pr840 O865 2.437 . S
Pr840 O868 2.436 . S
Pr840 O870 2.438 . S
Pr841 C851 2.880 . S
Pr841 O862 2.436 . S
Pr841 O864 2.438 . S
Pr841 O866 2.562 . S
Pr841 O867 2.490 . S
Pr841 O868 2.695 . S
Pr841 O869 2.512 . S
Pr841 O871 2.437 . S
C842 Pr840 2.880 . S
C842 C843 1.491 . S
C842 O860 1.254 . S
C842 O861 1.225 . S
C843 C842 1.491 . S
C843 C844 1.392 . S
C843 C848 1.356 . S
C844 C843 1.392 . S
C844 C845 1.368 . S
C844 H872 0.929 . S
C845 C844 1.368 . S
C845 C846 1.386 . S
C845 H873 0.929 . S
C846 C845 1.386 . S
C846 C847 1.373 . S
C847 C846 1.373 . S
C847 C848 1.409 . S
C847 H874 0.931 . S
C848 C843 1.356 . S
C848 C847 1.409 . S
C848 H875 0.930 . S
C849 O862 1.270 . S
C849 O863 1.248 . S
C850 O864 1.267 . S
C850 O865 1.278 . S
C851 Pr841 2.880 . S
C851 C852 1.491 . S
C851 O866 1.254 . S
C851 O867 1.225 . S
C852 C851 1.491 . S
C852 C853 1.392 . S
C852 C857 1.356 . S
C853 C852 1.392 . S
C853 C854 1.368 . S
C853 H876 0.929 . S
C854 C853 1.368 . S
C854 C855 1.386 . S
C854 H877 0.929 . S
C855 C854 1.386 . S
C855 C856 1.373 . S
C856 C855 1.373 . S
C856 C857 1.409 . S
C856 H878 0.931 . S
C857 C852 1.356 . S
C857 C856 1.409 . S
C857 H879 0.930 . S
C858 O868 1.270 . S
C858 O869 1.248 . S
C859 O870 1.267 . S
C859 O871 1.278 . S
O860 Pr840 2.562 . S
O860 C842 1.254 . S
O861 Pr840 2.490 . S
O861 C842 1.225 . S
O862 Pr840 2.695 . S
O862 Pr841 2.436 . S
O862 C849 1.270 . S
O863 Pr840 2.512 . S
O863 C849 1.248 . S
O864 Pr841 2.438 . S
O864 C850 1.267 . S
O865 Pr840 2.437 . S
O865 C850 1.278 . S
O866 Pr841 2.562 . S
O866 C851 1.254 . S
O867 Pr841 2.490 . S
O867 C851 1.225 . S
O868 Pr840 2.436 . S
O868 Pr841 2.695 . S
O868 C858 1.270 . S
O869 Pr841 2.512 . S
O869 C858 1.248 . S
O870 Pr840 2.438 . S
O870 C859 1.267 . S
O871 Pr841 2.437 . S
O871 C859 1.278 . S
H872 C844 0.929 . S
H873 C845 0.929 . S
H874 C847 0.931 . S
H875 C848 0.930 . S
H876 C853 0.929 . S
H877 C854 0.929 . S
H878 C856 0.931 . S
H879 C857 0.930 . S
Pr880 C882 2.880 . S
Pr880 O900 2.562 . S
Pr880 O901 2.490 . S
Pr880 O902 2.695 . S
Pr880 O903 2.512 . S
Pr880 O905 2.437 . S
Pr880 O908 2.436 . S
Pr880 O910 2.438 . S
Pr881 C891 2.882 . S
Pr881 O902 2.436 . S
Pr881 O904 2.438 . S
Pr881 O906 2.562 . S
Pr881 O907 2.490 1_565 S
Pr881 O908 2.695 . S
Pr881 O909 2.512 1_565 S
Pr881 O911 2.437 . S
C882 Pr880 2.880 . S
C882 C883 1.491 . S
C882 O900 1.254 . S
C882 O901 1.225 . S
C883 C882 1.491 . S
C883 C884 1.392 . S
C883 C888 1.356 . S
C884 C883 1.392 . S
C884 C885 1.368 . S
C884 H912 0.929 . S
C885 C884 1.368 . S
C885 C886 1.386 . S
C885 H913 0.929 . S
C886 C885 1.386 . S
C886 C887 1.373 . S
C887 C886 1.373 . S
C887 C888 1.409 . S
C887 H914 0.931 . S
C888 C883 1.356 . S
C888 C887 1.409 . S
C888 H915 0.930 . S
C889 O902 1.270 . S
C889 O903 1.248 . S
C890 O904 1.267 . S
C890 O905 1.278 . S
C891 Pr881 2.882 . S
C891 C892 1.488 1_565 S
C891 O906 1.264 . S
C891 O907 1.217 1_565 S
C892 C891 1.488 1_545 S
C892 C893 1.392 . S
C892 C897 1.356 1_545 S
C893 C892 1.392 . S
C893 C894 1.368 . S
C893 H916 0.929 . S
C894 C893 1.368 . S
C894 C895 1.386 . S
C894 H917 0.929 . S
C895 C894 1.386 . S
C895 C896 1.373 . S
C896 C895 1.373 . S
C896 C897 1.409 1_545 S
C896 H918 0.931 1_545 S
C897 C892 1.356 1_565 S
C897 C896 1.409 1_565 S
C897 H919 0.930 . S
C898 O908 1.270 . S
C898 O909 1.248 1_565 S
C899 O910 1.267 . S
C899 O911 1.278 . S
O900 Pr880 2.562 . S
O900 C882 1.254 . S
O901 Pr880 2.490 . S
O901 C882 1.225 . S
O902 Pr880 2.695 . S
O902 Pr881 2.436 . S
O902 C889 1.270 . S
O903 Pr880 2.512 . S
O903 C889 1.248 . S
O904 Pr881 2.438 . S
O904 C890 1.267 . S
O905 Pr880 2.437 . S
O905 C890 1.278 . S
O906 Pr881 2.562 . S
O906 C891 1.264 . S
O907 Pr881 2.490 1_545 S
O907 C891 1.217 1_545 S
O908 Pr880 2.436 . S
O908 Pr881 2.695 . S
O908 C898 1.270 . S
O909 Pr881 2.512 1_545 S
O909 C898 1.248 1_545 S
O910 Pr880 2.438 . S
O910 C899 1.267 . S
O911 Pr881 2.437 . S
O911 C899 1.278 . S
H912 C884 0.929 . S
H913 C885 0.929 . S
H914 C887 0.931 . S
H915 C888 0.930 . S
H916 C893 0.929 . S
H917 C894 0.929 . S
H918 C896 0.931 1_565 S
H919 C897 0.930 . S
Pr920 C922 2.880 . S
Pr920 O940 2.562 . S
Pr920 O941 2.490 . S
Pr920 O942 2.695 . S
Pr920 O943 2.512 . S
Pr920 O945 2.437 . S
Pr920 O948 2.436 . S
Pr920 O950 2.438 . S
Pr921 C931 2.880 . S
Pr921 O942 2.436 . S
Pr921 O944 2.438 . S
Pr921 O946 2.562 . S
Pr921 O947 2.490 . S
Pr921 O948 2.695 . S
Pr921 O949 2.512 . S
Pr921 O951 2.437 . S
C922 Pr920 2.880 . S
C922 C923 1.491 . S
C922 O940 1.254 . S
C922 O941 1.225 . S
C923 C922 1.491 . S
C923 C924 1.392 . S
C923 C928 1.356 1_556 S
C924 C923 1.392 . S
C924 C925 1.368 1_556 S
C924 H952 0.929 . S
C925 C924 1.368 1_554 S
C925 C926 1.386 . S
C925 H953 0.929 . S
C926 C925 1.386 . S
C926 C927 1.373 . S
C927 C926 1.373 . S
C927 C928 1.409 . S
C927 H954 0.931 . S
C928 C923 1.356 1_554 S
C928 C927 1.409 . S
C928 H955 0.930 1_554 S
C929 O942 1.270 . S
C929 O943 1.248 . S
C930 O944 1.267 . S
C930 O945 1.278 . S
C931 Pr921 2.880 . S
C931 C932 1.491 . S
C931 O946 1.254 . S
C931 O947 1.225 . S
C932 C931 1.491 . S
C932 C933 1.392 . S
C932 C937 1.356 . S
C933 C932 1.392 . S
C933 C934 1.368 . S
C933 H956 0.929 . S
C934 C933 1.368 . S
C934 C935 1.386 . S
C934 H957 0.929 . S
C935 C934 1.386 . S
C935 C936 1.373 . S
C936 C935 1.373 . S
C936 C937 1.409 . S
C936 H958 0.931 . S
C937 C932 1.356 . S
C937 C936 1.409 . S
C937 H959 0.930 . S
C938 O948 1.270 . S
C938 O949 1.248 . S
C939 O950 1.267 . S
C939 O951 1.278 . S
O940 Pr920 2.562 . S
O940 C922 1.254 . S
O941 Pr920 2.490 . S
O941 C922 1.225 . S
O942 Pr920 2.695 . S
O942 Pr921 2.436 . S
O942 C929 1.270 . S
O943 Pr920 2.512 . S
O943 C929 1.248 . S
O944 Pr921 2.438 . S
O944 C930 1.267 . S
O945 Pr920 2.437 . S
O945 C930 1.278 . S
O946 Pr921 2.562 . S
O946 C931 1.254 . S
O947 Pr921 2.490 . S
O947 C931 1.225 . S
O948 Pr920 2.436 . S
O948 Pr921 2.695 . S
O948 C938 1.270 . S
O949 Pr921 2.512 . S
O949 C938 1.248 . S
O950 Pr920 2.438 . S
O950 C939 1.267 . S
O951 Pr921 2.437 . S
O951 C939 1.278 . S
H952 C924 0.929 . S
H953 C925 0.929 . S
H954 C927 0.931 . S
H955 C928 0.930 1_556 S
H956 C933 0.929 . S
H957 C934 0.929 . S
H958 C936 0.931 . S
H959 C937 0.930 . S
Pr960 C962 2.880 . S
Pr960 O980 2.562 . S
Pr960 O981 2.490 . S
Pr960 O982 2.695 . S
Pr960 O983 2.512 . S
Pr960 O985 2.437 . S
Pr960 O988 2.436 . S
Pr960 O990 2.438 . S
Pr961 C971 2.880 . S
Pr961 O982 2.436 . S
Pr961 O984 2.438 . S
Pr961 O986 2.562 . S
Pr961 O987 2.490 . S
Pr961 O988 2.695 . S
Pr961 O989 2.512 . S
Pr961 O991 2.437 . S
C962 Pr960 2.880 . S
C962 C963 1.491 . S
C962 O980 1.254 . S
C962 O981 1.225 . S
C963 C962 1.491 . S
C963 C964 1.392 . S
C963 C968 1.356 . S
C964 C963 1.392 . S
C964 C965 1.368 . S
C964 H992 0.929 . S
C965 C964 1.368 . S
C965 C966 1.386 . S
C965 H993 0.929 . S
C966 C965 1.386 . S
C966 C967 1.373 . S
C967 C966 1.373 . S
C967 C968 1.409 . S
C967 H994 0.931 . S
C968 C963 1.356 . S
C968 C967 1.409 . S
C968 H995 0.930 . S
C969 O982 1.270 . S
C969 O983 1.248 . S
C970 O984 1.267 . S
C970 O985 1.278 . S
C971 Pr961 2.880 . S
C971 C972 1.491 . S
C971 O986 1.254 . S
C971 O987 1.225 . S
C972 C971 1.491 . S
C972 C973 1.392 . S
C972 C977 1.356 . S
C973 C972 1.392 . S
C973 C974 1.368 . S
C973 H996 0.929 . S
C974 C973 1.368 . S
C974 C975 1.386 . S
C974 H997 0.929 . S
C975 C974 1.386 . S
C975 C976 1.373 . S
C976 C975 1.373 . S
C976 C977 1.409 . S
C976 H998 0.931 . S
C977 C972 1.356 . S
C977 C976 1.409 . S
C977 H999 0.930 . S
C978 O988 1.270 . S
C978 O989 1.248 . S
C979 O990 1.267 . S
C979 O991 1.278 . S
O980 Pr960 2.562 . S
O980 C962 1.254 . S
O981 Pr960 2.490 . S
O981 C962 1.225 . S
O982 Pr960 2.695 . S
O982 Pr961 2.436 . S
O982 C969 1.270 . S
O983 Pr960 2.512 . S
O983 C969 1.248 . S
O984 Pr961 2.438 . S
O984 C970 1.267 . S
O985 Pr960 2.437 . S
O985 C970 1.278 . S
O986 Pr961 2.562 . S
O986 C971 1.254 . S
O987 Pr961 2.490 . S
O987 C971 1.225 . S
O988 Pr960 2.436 . S
O988 Pr961 2.695 . S
O988 C978 1.270 . S
O989 Pr961 2.512 . S
O989 C978 1.248 . S
O990 Pr960 2.438 . S
O990 C979 1.267 . S
O991 Pr961 2.437 . S
O991 C979 1.278 . S
H992 C964 0.929 . S
H993 C965 0.929 . S
H994 C967 0.931 . S
H995 C968 0.930 . S
H996 C973 0.929 . S
H997 C974 0.929 . S
H998 C976 0.931 . S
H999 C977 0.930 . S
Pr1000 C1002 2.880 . S
Pr1000 O1020 2.562 . S
Pr1000 O1021 2.490 . S
Pr1000 O1022 2.695 . S
Pr1000 O1023 2.512 . S
Pr1000 O1025 2.437 . S
Pr1000 O1028 2.436 . S
Pr1000 O1030 2.438 . S
Pr1001 C1011 2.880 . S
Pr1001 O1022 2.436 . S
Pr1001 O1024 2.438 . S
Pr1001 O1026 2.562 . S
Pr1001 O1027 2.490 . S
Pr1001 O1028 2.695 . S
Pr1001 O1029 2.512 . S
Pr1001 O1031 2.437 . S
C1002 Pr1000 2.880 . S
C1002 C1003 1.491 . S
C1002 O1020 1.254 . S
C1002 O1021 1.225 . S
C1003 C1002 1.491 . S
C1003 C1004 1.392 . S
C1003 C1008 1.356 . S
C1004 C1003 1.392 . S
C1004 C1005 1.368 . S
C1004 H1032 0.929 . S
C1005 C1004 1.368 . S
C1005 C1006 1.386 . S
C1005 H1033 0.929 . S
C1006 C1005 1.386 . S
C1006 C1007 1.373 . S
C1007 C1006 1.373 . S
C1007 C1008 1.409 . S
C1007 H1034 0.931 . S
C1008 C1003 1.356 . S
C1008 C1007 1.409 . S
C1008 H1035 0.930 . S
C1009 O1022 1.270 . S
C1009 O1023 1.248 . S
C1010 O1024 1.267 . S
C1010 O1025 1.278 . S
C1011 Pr1001 2.880 . S
C1011 C1012 1.491 . S
C1011 O1026 1.254 . S
C1011 O1027 1.225 . S
C1012 C1011 1.491 . S
C1012 C1013 1.392 . S
C1012 C1017 1.356 . S
C1013 C1012 1.392 . S
C1013 C1014 1.368 . S
C1013 H1036 0.929 . S
C1014 C1013 1.368 . S
C1014 C1015 1.386 . S
C1014 H1037 0.929 . S
C1015 C1014 1.386 . S
C1015 C1016 1.373 . S
C1016 C1015 1.373 . S
C1016 C1017 1.409 . S
C1016 H1038 0.931 . S
C1017 C1012 1.356 . S
C1017 C1016 1.409 . S
C1017 H1039 0.930 . S
C1018 O1028 1.270 . S
C1018 O1029 1.248 . S
C1019 O1030 1.267 . S
C1019 O1031 1.278 . S
O1020 Pr1000 2.562 . S
O1020 C1002 1.254 . S
O1021 Pr1000 2.490 . S
O1021 C1002 1.225 . S
O1022 Pr1000 2.695 . S
O1022 Pr1001 2.436 . S
O1022 C1009 1.270 . S
O1023 Pr1000 2.512 . S
O1023 C1009 1.248 . S
O1024 Pr1001 2.438 . S
O1024 C1010 1.267 . S
O1025 Pr1000 2.437 . S
O1025 C1010 1.278 . S
O1026 Pr1001 2.562 . S
O1026 C1011 1.254 . S
O1027 Pr1001 2.490 . S
O1027 C1011 1.225 . S
O1028 Pr1000 2.436 . S
O1028 Pr1001 2.695 . S
O1028 C1018 1.270 . S
O1029 Pr1001 2.512 . S
O1029 C1018 1.248 . S
O1030 Pr1000 2.438 . S
O1030 C1019 1.267 . S
O1031 Pr1001 2.437 . S
O1031 C1019 1.278 . S
H1032 C1004 0.929 . S
H1033 C1005 0.929 . S
H1034 C1007 0.931 . S
H1035 C1008 0.930 . S
H1036 C1013 0.929 . S
H1037 C1014 0.929 . S
H1038 C1016 0.931 . S
H1039 C1017 0.930 . S
Pr1040 C1042 2.880 . S
Pr1040 O1060 2.562 . S
Pr1040 O1061 2.490 . S
Pr1040 O1062 2.695 . S
Pr1040 O1063 2.512 . S
Pr1040 O1065 2.437 . S
Pr1040 O1068 2.436 . S
Pr1040 O1070 2.438 . S
Pr1041 C1051 2.880 . S
Pr1041 O1062 2.436 . S
Pr1041 O1064 2.438 . S
Pr1041 O1066 2.562 . S
Pr1041 O1067 2.490 . S
Pr1041 O1068 2.695 . S
Pr1041 O1069 2.512 . S
Pr1041 O1071 2.437 . S
C1042 Pr1040 2.880 . S
C1042 C1043 1.491 . S
C1042 O1060 1.254 . S
C1042 O1061 1.225 . S
C1043 C1042 1.491 . S
C1043 C1044 1.392 . S
C1043 C1048 1.356 . S
C1044 C1043 1.392 . S
C1044 C1045 1.368 . S
C1044 H1072 0.929 . S
C1045 C1044 1.368 . S
C1045 C1046 1.386 . S
C1045 H1073 0.929 . S
C1046 C1045 1.386 . S
C1046 C1047 1.373 . S
C1047 C1046 1.373 . S
C1047 C1048 1.409 . S
C1047 H1074 0.931 . S
C1048 C1043 1.356 . S
C1048 C1047 1.409 . S
C1048 H1075 0.930 . S
C1049 O1062 1.270 . S
C1049 O1063 1.248 . S
C1050 O1064 1.267 . S
C1050 O1065 1.278 . S
C1051 Pr1041 2.880 . S
C1051 C1052 1.491 . S
C1051 O1066 1.254 . S
C1051 O1067 1.225 . S
C1052 C1051 1.491 . S
C1052 C1053 1.392 . S
C1052 C1057 1.356 . S
C1053 C1052 1.392 . S
C1053 C1054 1.368 1_455 S
C1053 H1076 0.929 1_455 S
C1054 C1053 1.368 1_655 S
C1054 C1055 1.386 1_654 S
C1054 H1077 0.929 1_554 S
C1055 C1054 1.386 1_456 S
C1055 C1056 1.373 . S
C1056 C1055 1.373 . S
C1056 C1057 1.409 1_556 S
C1056 H1078 0.931 . S
C1057 C1052 1.356 . S
C1057 C1056 1.409 1_554 S
C1057 H1079 0.930 . S
C1058 O1068 1.270 . S
C1058 O1069 1.248 . S
C1059 O1070 1.267 . S
C1059 O1071 1.278 . S
O1060 Pr1040 2.562 . S
O1060 C1042 1.254 . S
O1061 Pr1040 2.490 . S
O1061 C1042 1.225 . S
O1062 Pr1040 2.695 . S
O1062 Pr1041 2.436 . S
O1062 C1049 1.270 . S
O1063 Pr1040 2.512 . S
O1063 C1049 1.248 . S
O1064 Pr1041 2.438 . S
O1064 C1050 1.267 . S
O1065 Pr1040 2.437 . S
O1065 C1050 1.278 . S
O1066 Pr1041 2.562 . S
O1066 C1051 1.254 . S
O1067 Pr1041 2.490 . S
O1067 C1051 1.225 . S
O1068 Pr1040 2.436 . S
O1068 Pr1041 2.695 . S
O1068 C1058 1.270 . S
O1069 Pr1041 2.512 . S
O1069 C1058 1.248 . S
O1070 Pr1040 2.438 . S
O1070 C1059 1.267 . S
O1071 Pr1041 2.437 . S
O1071 C1059 1.278 . S
H1072 C1044 0.929 . S
H1073 C1045 0.929 . S
H1074 C1047 0.931 . S
H1075 C1048 0.930 . S
H1076 C1053 0.929 1_655 S
H1077 C1054 0.929 1_556 S
H1078 C1056 0.931 . S
H1079 C1057 0.930 . S
Pr1080 C1082 2.880 1_556 S
Pr1080 O1100 2.562 1_556 S
Pr1080 O1101 2.490 1_556 S
Pr1080 O1102 2.695 . S
Pr1080 O1103 2.512 . S
Pr1080 O1105 2.437 1_556 S
Pr1080 O1108 2.436 . S
Pr1080 O1110 2.438 . S
Pr1081 C1091 2.880 . S
Pr1081 O1102 2.436 . S
Pr1081 O1104 2.438 1_556 S
Pr1081 O1106 2.562 . S
Pr1081 O1107 2.490 . S
Pr1081 O1108 2.695 . S
Pr1081 O1109 2.512 . S
Pr1081 O1111 2.437 . S
C1082 Pr1080 2.880 1_554 S
C1082 C1083 1.491 . S
C1082 O1100 1.254 . S
C1082 O1101 1.225 . S
C1083 C1082 1.491 . S
C1083 C1084 1.392 . S
C1083 C1088 1.356 . S
C1084 C1083 1.392 . S
C1084 C1085 1.368 . S
C1084 H1112 0.929 . S
C1085 C1084 1.368 . S
C1085 C1086 1.386 . S
C1085 H1113 0.929 . S
C1086 C1085 1.386 . S
C1086 C1087 1.373 . S
C1087 C1086 1.373 . S
C1087 C1088 1.409 . S
C1087 H1114 0.931 . S
C1088 C1083 1.356 . S
C1088 C1087 1.409 . S
C1088 H1115 0.930 . S
C1089 O1102 1.270 . S
C1089 O1103 1.248 . S
C1090 O1104 1.267 . S
C1090 O1105 1.278 . S
C1091 Pr1081 2.880 . S
C1091 C1092 1.491 . S
C1091 O1106 1.254 . S
C1091 O1107 1.225 . S
C1092 C1091 1.491 . S
C1092 C1093 1.392 . S
C1092 C1097 1.356 . S
C1093 C1092 1.392 . S
C1093 C1094 1.368 . S
C1093 H1116 0.929 . S
C1094 C1093 1.368 . S
C1094 C1095 1.386 . S
C1094 H1117 0.929 . S
C1095 C1094 1.386 . S
C1095 C1096 1.373 . S
C1096 C1095 1.373 . S
C1096 C1097 1.409 . S
C1096 H1118 0.931 . S
C1097 C1092 1.356 . S
C1097 C1096 1.409 . S
C1097 H1119 0.930 . S
C1098 O1108 1.270 . S
C1098 O1109 1.248 . S
C1099 O1110 1.267 . S
C1099 O1111 1.278 . S
O1100 Pr1080 2.562 1_554 S
O1100 C1082 1.254 . S
O1101 Pr1080 2.490 1_554 S
O1101 C1082 1.225 . S
O1102 Pr1080 2.695 . S
O1102 Pr1081 2.436 . S
O1102 C1089 1.270 . S
O1103 Pr1080 2.512 . S
O1103 C1089 1.248 . S
O1104 Pr1081 2.438 1_554 S
O1104 C1090 1.267 . S
O1105 Pr1080 2.437 1_554 S
O1105 C1090 1.278 . S
O1106 Pr1081 2.562 . S
O1106 C1091 1.254 . S
O1107 Pr1081 2.490 . S
O1107 C1091 1.225 . S
O1108 Pr1080 2.436 . S
O1108 Pr1081 2.695 . S
O1108 C1098 1.270 . S
O1109 Pr1081 2.512 . S
O1109 C1098 1.248 . S
O1110 Pr1080 2.438 . S
O1110 C1099 1.267 . S
O1111 Pr1081 2.437 . S
O1111 C1099 1.278 . S
H1112 C1084 0.929 . S
H1113 C1085 0.929 . S
H1114 C1087 0.931 . S
H1115 C1088 0.930 . S
H1116 C1093 0.929 . S
H1117 C1094 0.929 . S
H1118 C1096 0.931 . S
H1119 C1097 0.930 . S
Pr1120 C1122 2.880 1_565 S
Pr1120 O1140 2.562 . S
Pr1120 O1141 2.490 1_565 S
Pr1120 O1142 2.695 . S
Pr1120 O1143 2.512 1_565 S
Pr1120 O1145 2.437 . S
Pr1120 O1148 2.436 . S
Pr1120 O1150 2.438 . S
Pr1121 C1131 2.880 . S
Pr1121 O1142 2.436 . S
Pr1121 O1144 2.438 . S
Pr1121 O1146 2.562 . S
Pr1121 O1147 2.490 . S
Pr1121 O1148 2.695 . S
Pr1121 O1149 2.512 . S
Pr1121 O1151 2.437 . S
C1122 Pr1120 2.880 1_545 S
C1122 C1123 1.491 . S
C1122 O1140 1.254 1_545 S
C1122 O1141 1.225 . S
C1123 C1122 1.491 . S
C1123 C1124 1.392 . S
C1123 C1128 1.356 . S
C1124 C1123 1.392 . S
C1124 C1125 1.368 . S
C1124 H1152 0.929 . S
C1125 C1124 1.368 . S
C1125 C1126 1.386 . S
C1125 H1153 0.929 . S
C1126 C1125 1.386 . S
C1126 C1127 1.373 . S
C1127 C1126 1.373 . S
C1127 C1128 1.409 . S
C1127 H1154 0.950 . S
C1128 C1123 1.356 . S
C1128 C1127 1.409 . S
C1128 H1155 0.930 1_545 S
C1129 O1142 1.270 . S
C1129 O1143 1.248 1_565 S
C1130 O1144 1.267 . S
C1130 O1145 1.278 . S
C1131 Pr1121 2.880 . S
C1131 C1132 1.491 . S
C1131 O1146 1.254 . S
C1131 O1147 1.225 . S
C1132 C1131 1.491 . S
C1132 C1133 1.392 . S
C1132 C1137 1.356 . S
C1133 C1132 1.392 . S
C1133 C1134 1.368 . S
C1133 H1156 0.929 . S
C1134 C1133 1.368 . S
C1134 C1135 1.386 . S
C1134 H1157 0.929 . S
C1135 C1134 1.386 . S
C1135 C1136 1.373 . S
C1136 C1135 1.373 . S
C1136 C1137 1.409 . S
C1136 H1158 0.931 . S
C1137 C1132 1.356 . S
C1137 C1136 1.409 . S
C1137 H1159 0.930 . S
C1138 O1148 1.270 . S
C1138 O1149 1.248 . S
C1139 O1150 1.267 . S
C1139 O1151 1.278 . S
O1140 Pr1120 2.562 . S
O1140 C1122 1.254 1_565 S
O1141 Pr1120 2.490 1_545 S
O1141 C1122 1.225 . S
O1142 Pr1120 2.695 . S
O1142 Pr1121 2.436 . S
O1142 C1129 1.270 . S
O1143 Pr1120 2.512 1_545 S
O1143 C1129 1.248 1_545 S
O1144 Pr1121 2.438 . S
O1144 C1130 1.267 . S
O1145 Pr1120 2.437 . S
O1145 C1130 1.278 . S
O1146 Pr1121 2.562 . S
O1146 C1131 1.254 . S
O1147 Pr1121 2.490 . S
O1147 C1131 1.225 . S
O1148 Pr1120 2.436 . S
O1148 Pr1121 2.695 . S
O1148 C1138 1.270 . S
O1149 Pr1121 2.512 . S
O1149 C1138 1.248 . S
O1150 Pr1120 2.438 . S
O1150 C1139 1.267 . S
O1151 Pr1121 2.437 . S
O1151 C1139 1.278 . S
H1152 C1124 0.929 . S
H1153 C1125 0.929 . S
H1154 C1127 0.950 . S
H1155 C1128 0.930 1_565 S
H1156 C1133 0.929 . S
H1157 C1134 0.929 . S
H1158 C1136 0.931 . S
H1159 C1137 0.930 . S
Pr1160 C1162 2.904 . S
Pr1160 O1180 2.562 . S
Pr1160 O1181 2.490 . S
Pr1160 O1182 2.695 . S
Pr1160 O1183 2.512 . S
Pr1160 O1185 2.437 . S
Pr1160 O1188 2.436 . S
Pr1160 O1190 2.438 . S
Pr1161 C1171 2.880 . S
Pr1161 O1182 2.436 . S
Pr1161 O1184 2.438 . S
Pr1161 O1186 2.562 . S
Pr1161 O1187 2.490 . S
Pr1161 O1188 2.695 . S
Pr1161 O1189 2.512 . S
Pr1161 O1191 2.437 . S
C1162 Pr1160 2.904 . S
C1162 C1163 1.467 1_556 S
C1162 O1180 1.263 . S
C1162 O1181 1.239 . S
C1163 C1162 1.467 1_554 S
C1163 C1164 1.392 . S
C1163 C1168 1.356 . S
C1164 C1163 1.392 . S
C1164 C1165 1.368 . S
C1164 H1192 0.929 . S
C1165 C1164 1.368 . S
C1165 C1166 1.386 . S
C1165 H1193 0.929 . S
C1166 C1165 1.386 . S
C1166 C1167 1.373 . S
C1167 C1166 1.373 . S
C1167 C1168 1.409 . S
C1167 H1194 0.931 . S
C1168 C1163 1.356 . S
C1168 C1167 1.409 . S
C1168 H1195 0.930 . S
C1169 O1182 1.270 . S
C1169 O1183 1.248 . S
C1170 O1184 1.267 . S
C1170 O1185 1.278 . S
C1171 Pr1161 2.880 . S
C1171 C1172 1.491 . S
C1171 O1186 1.254 . S
C1171 O1187 1.225 . S
C1172 C1171 1.491 . S
C1172 C1173 1.392 . S
C1172 C1177 1.356 . S
C1173 C1172 1.392 . S
C1173 C1174 1.368 . S
C1173 H1196 0.929 . S
C1174 C1173 1.368 . S
C1174 C1175 1.386 . S
C1174 H1197 0.929 . S
C1175 C1174 1.386 . S
C1175 C1176 1.373 . S
C1176 C1175 1.373 . S
C1176 C1177 1.409 . S
C1176 H1198 0.931 . S
C1177 C1172 1.356 . S
C1177 C1176 1.409 . S
C1177 H1199 0.930 . S
C1178 O1188 1.270 . S
C1178 O1189 1.248 . S
C1179 O1190 1.267 . S
C1179 O1191 1.278 . S
O1180 Pr1160 2.562 . S
O1180 C1162 1.263 . S
O1181 Pr1160 2.490 . S
O1181 C1162 1.239 . S
O1182 Pr1160 2.695 . S
O1182 Pr1161 2.436 . S
O1182 C1169 1.270 . S
O1183 Pr1160 2.512 . S
O1183 C1169 1.248 . S
O1184 Pr1161 2.438 . S
O1184 C1170 1.267 . S
O1185 Pr1160 2.437 . S
O1185 C1170 1.278 . S
O1186 Pr1161 2.562 . S
O1186 C1171 1.254 . S
O1187 Pr1161 2.490 . S
O1187 C1171 1.225 . S
O1188 Pr1160 2.436 . S
O1188 Pr1161 2.695 . S
O1188 C1178 1.270 . S
O1189 Pr1161 2.512 . S
O1189 C1178 1.248 . S
O1190 Pr1160 2.438 . S
O1190 C1179 1.267 . S
O1191 Pr1161 2.437 . S
O1191 C1179 1.278 . S
H1192 C1164 0.929 . S
H1193 C1165 0.929 . S
H1194 C1167 0.931 . S
H1195 C1168 0.930 . S
H1196 C1173 0.929 . S
H1197 C1174 0.929 . S
H1198 C1176 0.931 . S
H1199 C1177 0.930 . S
Pr1200 C1202 2.883 . S
Pr1200 O1220 2.562 . S
Pr1200 O1221 2.490 1_545 S
Pr1200 O1222 2.695 . S
Pr1200 O1223 2.512 1_545 S
Pr1200 O1225 2.437 . S
Pr1200 O1228 2.436 . S
Pr1200 O1230 2.438 . S
Pr1201 C1211 2.880 . S
Pr1201 O1222 2.436 . S
Pr1201 O1224 2.438 . S
Pr1201 O1226 2.562 . S
Pr1201 O1227 2.490 . S
Pr1201 O1228 2.695 . S
Pr1201 O1229 2.512 . S
Pr1201 O1231 2.437 . S
C1202 Pr1200 2.883 . S
C1202 C1203 1.488 1_545 S
C1202 O1220 1.264 . S
C1202 O1221 1.217 1_545 S
C1203 C1202 1.488 1_565 S
C1203 C1204 1.392 . S
C1203 C1208 1.356 1_565 S
C1204 C1203 1.392 . S
C1204 C1205 1.368 . S
C1204 H1232 0.929 . S
C1205 C1204 1.368 . S
C1205 C1206 1.386 . S
C1205 H1233 0.929 . S
C1206 C1205 1.386 . S
C1206 C1207 1.373 . S
C1207 C1206 1.373 . S
C1207 C1208 1.409 1_565 S
C1207 H1234 0.931 1_566 S
C1208 C1203 1.356 1_545 S
C1208 C1207 1.409 1_545 S
C1208 H1235 0.930 . S
C1209 O1222 1.270 . S
C1209 O1223 1.248 1_545 S
C1210 O1224 1.267 . S
C1210 O1225 1.278 . S
C1211 Pr1201 2.880 . S
C1211 C1212 1.491 . S
C1211 O1226 1.254 . S
C1211 O1227 1.225 . S
C1212 C1211 1.491 . S
C1212 C1213 1.392 . S
C1212 C1217 1.356 . S
C1213 C1212 1.392 . S
C1213 C1214 1.368 . S
C1213 H1236 0.929 . S
C1214 C1213 1.368 . S
C1214 C1215 1.386 . S
C1214 H1237 0.929 . S
C1215 C1214 1.386 . S
C1215 C1216 1.373 . S
C1216 C1215 1.373 . S
C1216 C1217 1.409 . S
C1216 H1238 0.931 . S
C1217 C1212 1.356 . S
C1217 C1216 1.409 . S
C1217 H1239 0.930 . S
C1218 O1228 1.270 . S
C1218 O1229 1.248 . S
C1219 O1230 1.267 . S
C1219 O1231 1.278 . S
O1220 Pr1200 2.562 . S
O1220 C1202 1.264 . S
O1221 Pr1200 2.490 1_565 S
O1221 C1202 1.217 1_565 S
O1222 Pr1200 2.695 . S
O1222 Pr1201 2.436 . S
O1222 C1209 1.270 . S
O1223 Pr1200 2.512 1_565 S
O1223 C1209 1.248 1_565 S
O1224 Pr1201 2.438 . S
O1224 C1210 1.267 . S
O1225 Pr1200 2.437 . S
O1225 C1210 1.278 . S
O1226 Pr1201 2.562 . S
O1226 C1211 1.254 . S
O1227 Pr1201 2.490 . S
O1227 C1211 1.225 . S
O1228 Pr1200 2.436 . S
O1228 Pr1201 2.695 . S
O1228 C1218 1.270 . S
O1229 Pr1201 2.512 . S
O1229 C1218 1.248 . S
O1230 Pr1200 2.438 . S
O1230 C1219 1.267 . S
O1231 Pr1201 2.437 . S
O1231 C1219 1.278 . S
H1232 C1204 0.929 . S
H1233 C1205 0.929 . S
H1234 C1207 0.931 1_544 S
H1235 C1208 0.930 . S
H1236 C1213 0.929 . S
H1237 C1214 0.929 . S
H1238 C1216 0.931 . S
H1239 C1217 0.930 . S
Pr1240 C1242 2.880 . S
Pr1240 O1260 2.562 . S
Pr1240 O1261 2.490 . S
Pr1240 O1262 2.695 . S
Pr1240 O1263 2.512 . S
Pr1240 O1265 2.437 . S
Pr1240 O1268 2.436 . S
Pr1240 O1270 2.438 . S
Pr1241 C1251 2.880 . S
Pr1241 O1262 2.436 . S
Pr1241 O1264 2.438 . S
Pr1241 O1266 2.562 . S
Pr1241 O1267 2.490 . S
Pr1241 O1268 2.695 . S
Pr1241 O1269 2.512 . S
Pr1241 O1271 2.437 . S
C1242 Pr1240 2.880 . S
C1242 C1243 1.491 . S
C1242 O1260 1.254 . S
C1242 O1261 1.225 . S
C1243 C1242 1.491 . S
C1243 C1244 1.392 . S
C1243 C1248 1.356 . S
C1244 C1243 1.392 . S
C1244 C1245 1.368 . S
C1244 H1272 0.929 . S
C1245 C1244 1.368 . S
C1245 C1246 1.386 . S
C1245 H1273 0.929 . S
C1246 C1245 1.386 . S
C1246 C1247 1.373 . S
C1247 C1246 1.373 . S
C1247 C1248 1.409 . S
C1247 H1274 0.931 . S
C1248 C1243 1.356 . S
C1248 C1247 1.409 . S
C1248 H1275 0.930 . S
C1249 O1262 1.270 . S
C1249 O1263 1.248 . S
C1250 O1264 1.267 . S
C1250 O1265 1.278 . S
C1251 Pr1241 2.880 . S
C1251 C1252 1.491 . S
C1251 O1266 1.254 . S
C1251 O1267 1.225 . S
C1252 C1251 1.491 . S
C1252 C1253 1.392 . S
C1252 C1257 1.356 . S
C1253 C1252 1.392 . S
C1253 C1254 1.368 . S
C1253 H1276 0.929 . S
C1254 C1253 1.368 . S
C1254 C1255 1.386 . S
C1254 H1277 0.929 . S
C1255 C1254 1.386 . S
C1255 C1256 1.373 . S
C1256 C1255 1.373 . S
C1256 C1257 1.409 . S
C1256 H1278 0.931 . S
C1257 C1252 1.356 . S
C1257 C1256 1.409 . S
C1257 H1279 0.930 . S
C1258 O1268 1.270 . S
C1258 O1269 1.248 . S
C1259 O1270 1.267 . S
C1259 O1271 1.278 . S
O1260 Pr1240 2.562 . S
O1260 C1242 1.254 . S
O1261 Pr1240 2.490 . S
O1261 C1242 1.225 . S
O1262 Pr1240 2.695 . S
O1262 Pr1241 2.436 . S
O1262 C1249 1.270 . S
O1263 Pr1240 2.512 . S
O1263 C1249 1.248 . S
O1264 Pr1241 2.438 . S
O1264 C1250 1.267 . S
O1265 Pr1240 2.437 . S
O1265 C1250 1.278 . S
O1266 Pr1241 2.562 . S
O1266 C1251 1.254 . S
O1267 Pr1241 2.490 . S
O1267 C1251 1.225 . S
O1268 Pr1240 2.436 . S
O1268 Pr1241 2.695 . S
O1268 C1258 1.270 . S
O1269 Pr1241 2.512 . S
O1269 C1258 1.248 . S
O1270 Pr1240 2.438 . S
O1270 C1259 1.267 . S
O1271 Pr1241 2.437 . S
O1271 C1259 1.278 . S
H1272 C1244 0.929 . S
H1273 C1245 0.929 . S
H1274 C1247 0.931 . S
H1275 C1248 0.930 . S
H1276 C1253 0.929 . S
H1277 C1254 0.929 . S
H1278 C1256 0.931 . S
H1279 C1257 0.930 . S
H1280 C1286 0.930 . S
H1281 C1289 0.930 . S
H1282 C1290 0.930 . S
H1283 C1291 0.930 . S
H1284 C1294 0.930 . S
H1285 C1295 0.930 . S
C1286 H1280 0.930 . S
C1286 C1287 1.355 . S
C1286 C1288 1.415 . S
C1287 C1286 1.355 . S
C1287 C1289 1.419 . S
C1288 C1286 1.415 . S
C1288 C1293 1.425 . S
C1288 C1295 1.409 . S
C1289 H1281 0.930 . S
C1289 C1287 1.419 . S
C1289 C1290 1.362 . S
C1290 H1282 0.930 . S
C1290 C1289 1.362 . S
C1290 C1293 1.409 . S
C1291 H1283 0.930 . S
C1291 C1292 1.355 . S
C1291 C1293 1.415 . S
C1292 C1291 1.355 . S
C1292 C1294 1.419 . S
C1293 C1288 1.425 . S
C1293 C1290 1.409 . S
C1293 C1291 1.415 . S
C1294 H1284 0.930 . S
C1294 C1292 1.419 . S
C1294 C1295 1.362 . S
C1295 H1285 0.930 . S
C1295 C1288 1.409 . S
C1295 C1294 1.362 . S
H1296 C1302 0.930 . S
H1297 C1305 0.930 . S
H1298 C1306 0.930 . S
H1299 C1307 0.930 . S
H1300 C1310 0.930 . S
H1301 C1311 0.930 . S
C1302 H1296 0.930 . S
C1302 C1303 1.355 . S
C1302 C1304 1.415 . S
C1303 C1302 1.355 . S
C1303 C1305 1.419 . S
C1304 C1302 1.415 . S
C1304 C1309 1.425 . S
C1304 C1311 1.409 . S
C1305 H1297 0.930 . S
C1305 C1303 1.419 . S
C1305 C1306 1.362 . S
C1306 H1298 0.930 . S
C1306 C1305 1.362 . S
C1306 C1309 1.409 . S
C1307 H1299 0.930 . S
C1307 C1308 1.355 . S
C1307 C1309 1.415 . S
C1308 C1307 1.355 . S
C1308 C1310 1.419 . S
C1309 C1304 1.425 . S
C1309 C1306 1.409 . S
C1309 C1307 1.415 . S
C1310 H1300 0.930 . S
C1310 C1308 1.419 . S
C1310 C1311 1.362 . S
C1311 H1301 0.930 . S
C1311 C1304 1.409 . S
C1311 C1310 1.362 . S
H1312 C1318 0.930 . S
H1313 C1321 0.930 . S
H1314 C1322 0.930 . S
H1315 C1323 0.930 . S
H1316 C1326 0.930 . S
H1317 C1327 0.930 . S
C1318 H1312 0.930 . S
C1318 C1319 1.355 . S
C1318 C1320 1.415 . S
C1319 C1318 1.355 . S
C1319 C1321 1.419 . S
C1320 C1318 1.415 . S
C1320 C1325 1.425 . S
C1320 C1327 1.409 . S
C1321 H1313 0.930 . S
C1321 C1319 1.419 . S
C1321 C1322 1.362 . S
C1322 H1314 0.930 . S
C1322 C1321 1.362 . S
C1322 C1325 1.409 . S
C1323 H1315 0.930 . S
C1323 C1324 1.355 . S
C1323 C1325 1.415 . S
C1324 C1323 1.355 . S
C1324 C1326 1.419 . S
C1325 C1320 1.425 . S
C1325 C1322 1.409 . S
C1325 C1323 1.415 . S
C1326 H1316 0.930 . S
C1326 C1324 1.419 . S
C1326 C1327 1.362 . S
C1327 H1317 0.930 . S
C1327 C1320 1.409 . S
C1327 C1326 1.362 . S
H1328 C1334 0.930 . S
H1329 C1337 0.930 . S
H1330 C1338 0.930 . S
H1331 C1339 0.930 . S
H1332 C1342 0.930 . S
H1333 C1343 0.930 . S
C1334 H1328 0.930 . S
C1334 C1335 1.355 . S
C1334 C1336 1.415 . S
C1335 C1334 1.355 . S
C1335 C1337 1.419 . S
C1336 C1334 1.415 . S
C1336 C1341 1.425 . S
C1336 C1343 1.409 1_554 S
C1337 H1329 0.930 . S
C1337 C1335 1.419 . S
C1337 C1338 1.362 . S
C1338 H1330 0.930 . S
C1338 C1337 1.362 . S
C1338 C1341 1.409 . S
C1339 H1331 0.930 . S
C1339 C1340 1.355 . S
C1339 C1341 1.415 1_556 S
C1340 C1339 1.355 . S
C1340 C1342 1.419 . S
C1341 C1336 1.425 . S
C1341 C1338 1.409 . S
C1341 C1339 1.415 1_554 S
C1342 H1332 0.930 . S
C1342 C1340 1.419 . S
C1342 C1343 1.362 . S
C1343 H1333 0.930 . S
C1343 C1336 1.409 1_556 S
C1343 C1342 1.362 . S
H1344 C1350 0.930 . S
H1345 C1353 0.930 . S
H1346 C1354 0.930 . S
H1347 C1355 0.930 . S
H1348 C1358 0.937 . S
H1349 C1359 0.930 . S
C1350 H1344 0.930 . S
C1350 C1351 1.355 . S
C1350 C1352 1.415 . S
C1351 C1350 1.355 . S
C1351 C1353 1.419 . S
C1352 C1350 1.415 . S
C1352 C1357 1.425 . S
C1352 C1359 1.409 . S
C1353 H1345 0.930 . S
C1353 C1351 1.419 . S
C1353 C1354 1.362 . S
C1354 H1346 0.930 . S
C1354 C1353 1.362 . S
C1354 C1357 1.409 . S
C1355 H1347 0.930 . S
C1355 C1356 1.355 . S
C1355 C1357 1.415 1_556 S
C1356 C1355 1.355 . S
C1356 C1358 1.436 . S
C1357 C1352 1.425 . S
C1357 C1354 1.409 . S
C1357 C1355 1.415 1_554 S
C1358 H1348 0.937 . S
C1358 C1356 1.436 . S
C1358 C1359 1.339 1_556 S
C1359 H1349 0.930 . S
C1359 C1352 1.409 . S
C1359 C1358 1.339 1_554 S
H1360 C1366 0.930 . S
H1361 C1369 0.930 . S
H1362 C1370 0.930 . S
H1363 C1371 0.930 . S
H1364 C1374 0.930 . S
H1365 C1375 0.930 . S
C1366 H1360 0.930 . S
C1366 C1367 1.355 . S
C1366 C1368 1.415 . S
C1367 C1366 1.355 . S
C1367 C1369 1.419 . S
C1368 C1366 1.415 . S
C1368 C1373 1.425 . S
C1368 C1375 1.409 . S
C1369 H1361 0.930 . S
C1369 C1367 1.419 . S
C1369 C1370 1.362 . S
C1370 H1362 0.930 . S
C1370 C1369 1.362 . S
C1370 C1373 1.409 . S
C1371 H1363 0.930 . S
C1371 C1372 1.355 . S
C1371 C1373 1.415 . S
C1372 C1371 1.355 . S
C1372 C1374 1.419 . S
C1373 C1368 1.425 . S
C1373 C1370 1.409 . S
C1373 C1371 1.415 . S
C1374 H1364 0.930 . S
C1374 C1372 1.419 . S
C1374 C1375 1.362 . S
C1375 H1365 0.930 . S
C1375 C1368 1.409 . S
C1375 C1374 1.362 . S
H1376 C1382 0.930 . S
H1377 C1385 0.930 . S
H1378 C1386 0.930 . S
H1379 C1387 0.930 . S
H1380 C1390 0.930 . S
H1381 C1391 0.930 . S
C1382 H1376 0.930 . S
C1382 C1383 1.355 . S
C1382 C1384 1.415 . S
C1383 C1382 1.355 . S
C1383 C1385 1.419 . S
C1384 C1382 1.415 . S
C1384 C1389 1.425 . S
C1384 C1391 1.409 . S
C1385 H1377 0.930 . S
C1385 C1383 1.419 . S
C1385 C1386 1.362 . S
C1386 H1378 0.930 . S
C1386 C1385 1.362 . S
C1386 C1389 1.409 . S
C1387 H1379 0.930 . S
C1387 C1388 1.355 . S
C1387 C1389 1.415 . S
C1388 C1387 1.355 . S
C1388 C1390 1.419 . S
C1389 C1384 1.425 . S
C1389 C1386 1.409 . S
C1389 C1387 1.415 . S
C1390 H1380 0.930 . S
C1390 C1388 1.419 . S
C1390 C1391 1.362 . S
C1391 H1381 0.930 . S
C1391 C1384 1.409 . S
C1391 C1390 1.362 . S
H1392 C1398 0.930 . S
H1393 C1401 0.930 . S
H1394 C1402 0.930 . S
H1395 C1403 0.930 . S
H1396 C1406 0.930 . S
H1397 C1407 0.930 . S
C1398 H1392 0.930 . S
C1398 C1399 1.355 . S
C1398 C1400 1.415 . S
C1399 C1398 1.355 . S
C1399 C1401 1.419 . S
C1400 C1398 1.415 . S
C1400 C1405 1.425 . S
C1400 C1407 1.409 . S
C1401 H1393 0.930 . S
C1401 C1399 1.419 . S
C1401 C1402 1.362 . S
C1402 H1394 0.930 . S
C1402 C1401 1.362 . S
C1402 C1405 1.409 . S
C1403 H1395 0.930 . S
C1403 C1404 1.355 . S
C1403 C1405 1.415 . S
C1404 C1403 1.355 . S
C1404 C1406 1.419 . S
C1405 C1400 1.425 . S
C1405 C1402 1.409 . S
C1405 C1403 1.415 . S
C1406 H1396 0.930 . S
C1406 C1404 1.419 . S
C1406 C1407 1.362 . S
C1407 H1397 0.930 . S
C1407 C1400 1.409 . S
C1407 C1406 1.362 . S
H1408 C1414 0.930 . S
H1409 C1417 0.930 . S
H1410 C1418 0.930 . S
H1411 C1419 0.930 . S
H1412 C1422 0.930 . S
H1413 C1423 0.930 . S
C1414 H1408 0.930 . S
C1414 C1415 1.355 . S
C1414 C1416 1.415 . S
C1415 C1414 1.355 . S
C1415 C1417 1.419 . S
C1416 C1414 1.415 . S
C1416 C1421 1.425 . S
C1416 C1423 1.409 . S
C1417 H1409 0.930 . S
C1417 C1415 1.419 . S
C1417 C1418 1.362 . S
C1418 H1410 0.930 . S
C1418 C1417 1.362 . S
C1418 C1421 1.409 . S
C1419 H1411 0.930 . S
C1419 C1420 1.355 . S
C1419 C1421 1.415 . S
C1420 C1419 1.355 . S
C1420 C1422 1.419 . S
C1421 C1416 1.425 . S
C1421 C1418 1.409 . S
C1421 C1419 1.415 . S
C1422 H1412 0.930 . S
C1422 C1420 1.419 . S
C1422 C1423 1.362 . S
C1423 H1413 0.930 . S
C1423 C1416 1.409 . S
C1423 C1422 1.362 . S
H1424 C1430 0.930 . S
H1425 C1433 0.930 . S
H1426 C1434 0.930 . S
H1427 C1435 0.930 . S
H1428 C1438 0.930 . S
H1429 C1439 0.930 . S
C1430 H1424 0.930 . S
C1430 C1431 1.355 . S
C1430 C1432 1.415 . S
C1431 C1430 1.355 . S
C1431 C1433 1.419 . S
C1432 C1430 1.415 . S
C1432 C1437 1.425 . S
C1432 C1439 1.409 . S
C1433 H1425 0.930 . S
C1433 C1431 1.419 . S
C1433 C1434 1.362 . S
C1434 H1426 0.930 . S
C1434 C1433 1.362 . S
C1434 C1437 1.409 . S
C1435 H1427 0.930 . S
C1435 C1436 1.355 . S
C1435 C1437 1.415 . S
C1436 C1435 1.355 . S
C1436 C1438 1.419 . S
C1437 C1432 1.425 . S
C1437 C1434 1.409 . S
C1437 C1435 1.415 . S
C1438 H1428 0.930 . S
C1438 C1436 1.419 . S
C1438 C1439 1.362 . S
C1439 H1429 0.930 . S
C1439 C1432 1.409 . S
C1439 C1438 1.362 . S
H1440 C1446 0.930 . S
H1441 C1449 0.930 . S
H1442 C1450 0.930 . S
H1443 C1451 0.930 . S
H1444 C1454 0.930 . S
H1445 C1455 0.930 . S
C1446 H1440 0.930 . S
C1446 C1447 1.355 . S
C1446 C1448 1.415 . S
C1447 C1446 1.355 . S
C1447 C1449 1.419 . S
C1448 C1446 1.415 . S
C1448 C1453 1.425 . S
C1448 C1455 1.409 . S
C1449 H1441 0.930 . S
C1449 C1447 1.419 . S
C1449 C1450 1.362 . S
C1450 H1442 0.930 . S
C1450 C1449 1.362 . S
C1450 C1453 1.409 . S
C1451 H1443 0.930 . S
C1451 C1452 1.355 . S
C1451 C1453 1.415 . S
C1452 C1451 1.355 . S
C1452 C1454 1.419 . S
C1453 C1448 1.425 . S
C1453 C1450 1.409 . S
C1453 C1451 1.415 . S
C1454 H1444 0.930 . S
C1454 C1452 1.419 . S
C1454 C1455 1.362 . S
C1455 H1445 0.930 . S
C1455 C1448 1.409 . S
C1455 C1454 1.362 . S
H1456 C1462 0.930 . S
H1457 C1465 0.930 . S
H1458 C1466 0.930 . S
H1459 C1467 0.930 . S
H1460 C1470 0.930 . S
H1461 C1471 0.930 . S
C1462 H1456 0.930 . S
C1462 C1463 1.355 . S
C1462 C1464 1.415 . S
C1463 C1462 1.355 . S
C1463 C1465 1.419 . S
C1464 C1462 1.415 . S
C1464 C1469 1.425 . S
C1464 C1471 1.409 . S
C1465 H1457 0.930 . S
C1465 C1463 1.419 . S
C1465 C1466 1.362 . S
C1466 H1458 0.930 . S
C1466 C1465 1.362 . S
C1466 C1469 1.409 . S
C1467 H1459 0.930 . S
C1467 C1468 1.355 . S
C1467 C1469 1.415 . S
C1468 C1467 1.355 . S
C1468 C1470 1.419 . S
C1469 C1464 1.425 . S
C1469 C1466 1.409 . S
C1469 C1467 1.415 . S
C1470 H1460 0.930 . S
C1470 C1468 1.419 . S
C1470 C1471 1.362 . S
C1471 H1461 0.930 . S
C1471 C1464 1.409 . S
C1471 C1470 1.362 . S
H1472 C1478 0.930 . S
H1473 C1481 0.930 . S
H1474 C1482 0.930 . S
H1475 C1483 0.930 . S
H1476 C1486 0.930 . S
H1477 C1487 0.930 . S
C1478 H1472 0.930 . S
C1478 C1479 1.355 . S
C1478 C1480 1.415 . S
C1479 C1478 1.355 . S
C1479 C1481 1.419 . S
C1480 C1478 1.415 . S
C1480 C1485 1.425 . S
C1480 C1487 1.409 . S
C1481 H1473 0.930 . S
C1481 C1479 1.419 . S
C1481 C1482 1.362 . S
C1482 H1474 0.930 . S
C1482 C1481 1.362 . S
C1482 C1485 1.409 . S
C1483 H1475 0.930 . S
C1483 C1484 1.355 . S
C1483 C1485 1.415 . S
C1484 C1483 1.355 . S
C1484 C1486 1.419 . S
C1485 C1480 1.425 . S
C1485 C1482 1.409 . S
C1485 C1483 1.415 . S
C1486 H1476 0.930 . S
C1486 C1484 1.419 . S
C1486 C1487 1.362 . S
C1487 H1477 0.930 . S
C1487 C1480 1.409 . S
C1487 C1486 1.362 . S
H1488 C1494 0.930 . S
H1489 C1497 0.930 . S
H1490 C1498 0.930 . S
H1491 C1499 0.930 . S
H1492 C1502 0.930 . S
H1493 C1503 0.930 . S
C1494 H1488 0.930 . S
C1494 C1495 1.355 . S
C1494 C1496 1.415 . S
C1495 C1494 1.355 . S
C1495 C1497 1.419 . S
C1496 C1494 1.415 . S
C1496 C1501 1.425 . S
C1496 C1503 1.409 . S
C1497 H1489 0.930 . S
C1497 C1495 1.419 . S
C1497 C1498 1.362 . S
C1498 H1490 0.930 . S
C1498 C1497 1.362 . S
C1498 C1501 1.409 . S
C1499 H1491 0.930 . S
C1499 C1500 1.355 . S
C1499 C1501 1.415 . S
C1500 C1499 1.355 . S
C1500 C1502 1.419 . S
C1501 C1496 1.425 . S
C1501 C1498 1.409 . S
C1501 C1499 1.415 . S
C1502 H1492 0.930 . S
C1502 C1500 1.419 . S
C1502 C1503 1.362 . S
C1503 H1493 0.930 . S
C1503 C1496 1.409 . S
C1503 C1502 1.362 . S
H1504 C1510 0.930 . S
H1505 C1513 0.930 . S
H1506 C1514 0.930 . S
H1507 C1515 0.930 . S
H1508 C1518 0.930 1_556 S
H1509 C1519 0.930 . S
C1510 H1504 0.930 . S
C1510 C1511 1.355 . S
C1510 C1512 1.415 . S
C1511 C1510 1.355 . S
C1511 C1513 1.419 . S
C1512 C1510 1.415 . S
C1512 C1517 1.425 . S
C1512 C1519 1.409 . S
C1513 H1505 0.930 . S
C1513 C1511 1.419 . S
C1513 C1514 1.362 . S
C1514 H1506 0.930 . S
C1514 C1513 1.362 . S
C1514 C1517 1.409 . S
C1515 H1507 0.930 . S
C1515 C1516 1.355 1_554 S
C1515 C1517 1.415 . S
C1516 C1515 1.355 1_556 S
C1516 C1518 1.419 1_556 S
C1517 C1512 1.425 . S
C1517 C1514 1.409 . S
C1517 C1515 1.415 . S
C1518 H1508 0.930 1_554 S
C1518 C1516 1.419 1_554 S
C1518 C1519 1.362 . S
C1519 H1509 0.930 . S
C1519 C1512 1.409 . S
C1519 C1518 1.362 . S
H1520 C1526 0.930 . S
H1521 C1529 0.930 . S
H1522 C1530 0.930 . S
H1523 C1531 0.930 . S
H1524 C1534 0.930 . S
H1525 C1535 0.930 . S
C1526 H1520 0.930 . S
C1526 C1527 1.355 . S
C1526 C1528 1.415 . S
C1527 C1526 1.355 . S
C1527 C1529 1.419 . S
C1528 C1526 1.415 . S
C1528 C1533 1.425 . S
C1528 C1535 1.409 . S
C1529 H1521 0.930 . S
C1529 C1527 1.419 . S
C1529 C1530 1.362 . S
C1530 H1522 0.930 . S
C1530 C1529 1.362 . S
C1530 C1533 1.409 . S
C1531 H1523 0.930 . S
C1531 C1532 1.355 . S
C1531 C1533 1.415 . S
C1532 C1531 1.355 . S
C1532 C1534 1.419 . S
C1533 C1528 1.425 . S
C1533 C1530 1.409 . S
C1533 C1531 1.415 . S
C1534 H1524 0.930 . S
C1534 C1532 1.419 . S
C1534 C1535 1.362 . S
C1535 H1525 0.930 . S
C1535 C1528 1.409 . S
C1535 C1534 1.362 . S
H1536 C1542 0.930 . S
H1537 C1545 0.930 . S
H1538 C1546 0.930 . S
H1539 C1547 0.930 . S
H1540 C1550 0.930 . S
H1541 C1551 0.930 . S
C1542 H1536 0.930 . S
C1542 C1543 1.355 . S
C1542 C1544 1.415 . S
C1543 C1542 1.355 . S
C1543 C1545 1.419 . S
C1544 C1542 1.415 . S
C1544 C1549 1.425 . S
C1544 C1551 1.409 . S
C1545 H1537 0.930 . S
C1545 C1543 1.419 . S
C1545 C1546 1.362 . S
C1546 H1538 0.930 . S
C1546 C1545 1.362 . S
C1546 C1549 1.409 . S
C1547 H1539 0.930 . S
C1547 C1548 1.355 . S
C1547 C1549 1.415 . S
C1548 C1547 1.355 . S
C1548 C1550 1.419 . S
C1549 C1544 1.425 . S
C1549 C1546 1.409 . S
C1549 C1547 1.415 . S
C1550 H1540 0.930 . S
C1550 C1548 1.419 . S
C1550 C1551 1.362 . S
C1551 H1541 0.930 . S
C1551 C1544 1.409 . S
C1551 C1550 1.362 . S
H1552 C1558 0.930 . S
H1553 C1561 0.930 . S
H1554 C1562 0.930 . S
H1555 C1563 0.930 . S
H1556 C1566 0.930 . S
H1557 C1567 0.930 . S
C1558 H1552 0.930 . S
C1558 C1559 1.355 . S
C1558 C1560 1.415 . S
C1559 C1558 1.355 . S
C1559 C1561 1.419 . S
C1560 C1558 1.415 . S
C1560 C1565 1.425 . S
C1560 C1567 1.409 . S
C1561 H1553 0.930 . S
C1561 C1559 1.419 . S
C1561 C1562 1.362 . S
C1562 H1554 0.930 . S
C1562 C1561 1.362 . S
C1562 C1565 1.409 . S
C1563 H1555 0.930 . S
C1563 C1564 1.355 . S
C1563 C1565 1.415 . S
C1564 C1563 1.355 . S
C1564 C1566 1.419 . S
C1565 C1560 1.425 . S
C1565 C1562 1.409 . S
C1565 C1563 1.415 . S
C1566 H1556 0.930 . S
C1566 C1564 1.419 . S
C1566 C1567 1.362 . S
C1567 H1557 0.930 . S
C1567 C1560 1.409 . S
C1567 C1566 1.362 . S
H1568 C1574 0.930 . S
H1569 C1577 0.930 . S
H1570 C1578 0.930 . S
H1571 C1579 0.930 . S
H1572 C1582 0.930 . S
H1573 C1583 0.930 . S
C1574 H1568 0.930 . S
C1574 C1575 1.355 . S
C1574 C1576 1.415 . S
C1575 C1574 1.355 . S
C1575 C1577 1.419 . S
C1576 C1574 1.415 . S
C1576 C1581 1.425 . S
C1576 C1583 1.409 . S
C1577 H1569 0.930 . S
C1577 C1575 1.419 . S
C1577 C1578 1.362 . S
C1578 H1570 0.930 . S
C1578 C1577 1.362 . S
C1578 C1581 1.409 . S
C1579 H1571 0.930 . S
C1579 C1580 1.355 . S
C1579 C1581 1.415 . S
C1580 C1579 1.355 . S
C1580 C1582 1.419 . S
C1581 C1576 1.425 . S
C1581 C1578 1.409 . S
C1581 C1579 1.415 . S
C1582 H1572 0.930 . S
C1582 C1580 1.419 . S
C1582 C1583 1.362 . S
C1583 H1573 0.930 . S
C1583 C1576 1.409 . S
C1583 C1582 1.362 . S
H1584 C1590 0.930 . S
H1585 C1593 0.930 . S
H1586 C1594 0.930 . S
H1587 C1595 0.930 . S
H1588 C1598 0.930 . S
H1589 C1599 0.930 . S
C1590 H1584 0.930 . S
C1590 C1591 1.355 . S
C1590 C1592 1.415 . S
C1591 C1590 1.355 . S
C1591 C1593 1.419 . S
C1592 C1590 1.415 . S
C1592 C1597 1.425 . S
C1592 C1599 1.409 . S
C1593 H1585 0.930 . S
C1593 C1591 1.419 . S
C1593 C1594 1.362 . S
C1594 H1586 0.930 . S
C1594 C1593 1.362 . S
C1594 C1597 1.409 . S
C1595 H1587 0.930 . S
C1595 C1596 1.355 1_556 S
C1595 C1597 1.415 . S
C1596 C1595 1.355 1_554 S
C1596 C1598 1.419 . S
C1597 C1592 1.425 . S
C1597 C1594 1.409 . S
C1597 C1595 1.415 . S
C1598 H1588 0.930 . S
C1598 C1596 1.419 . S
C1598 C1599 1.362 1_554 S
C1599 H1589 0.930 . S
C1599 C1592 1.409 . S
C1599 C1598 1.362 1_556 S
H1600 C1606 0.930 . S
H1601 C1609 0.930 . S
H1602 C1610 0.930 . S
H1603 C1611 0.930 . S
H1604 C1614 0.930 . S
H1605 C1615 0.930 . S
C1606 H1600 0.930 . S
C1606 C1607 1.355 . S
C1606 C1608 1.415 . S
C1607 C1606 1.355 . S
C1607 C1609 1.419 . S
C1608 C1606 1.415 . S
C1608 C1613 1.425 . S
C1608 C1615 1.409 . S
C1609 H1601 0.930 . S
C1609 C1607 1.419 . S
C1609 C1610 1.362 . S
C1610 H1602 0.930 . S
C1610 C1609 1.362 . S
C1610 C1613 1.409 . S
C1611 H1603 0.930 . S
C1611 C1612 1.355 . S
C1611 C1613 1.415 . S
C1612 C1611 1.355 . S
C1612 C1614 1.419 . S
C1613 C1608 1.425 . S
C1613 C1610 1.409 . S
C1613 C1611 1.415 . S
C1614 H1604 0.930 . S
C1614 C1612 1.419 . S
C1614 C1615 1.362 . S
C1615 H1605 0.930 . S
C1615 C1608 1.409 . S
C1615 C1614 1.362 . S
H1616 C1622 0.930 . S
H1617 C1625 0.930 . S
H1618 C1626 0.930 . S
H1619 C1627 0.930 . S
H1620 C1630 0.930 . S
H1621 C1631 0.930 . S
C1622 H1616 0.930 . S
C1622 C1623 1.355 . S
C1622 C1624 1.415 . S
C1623 C1622 1.355 . S
C1623 C1625 1.419 . S
C1624 C1622 1.415 . S
C1624 C1629 1.425 . S
C1624 C1631 1.409 . S
C1625 H1617 0.930 . S
C1625 C1623 1.419 . S
C1625 C1626 1.362 . S
C1626 H1618 0.930 . S
C1626 C1625 1.362 . S
C1626 C1629 1.409 . S
C1627 H1619 0.930 . S
C1627 C1628 1.355 . S
C1627 C1629 1.415 . S
C1628 C1627 1.355 . S
C1628 C1630 1.419 . S
C1629 C1624 1.425 . S
C1629 C1626 1.409 . S
C1629 C1627 1.415 . S
C1630 H1620 0.930 . S
C1630 C1628 1.419 . S
C1630 C1631 1.362 . S
C1631 H1621 0.930 . S
C1631 C1624 1.409 . S
C1631 C1630 1.362 . S
H1632 C1638 0.930 . S
H1633 C1641 0.946 . S
H1634 C1642 0.930 . S
H1635 C1643 0.930 . S
H1636 C1646 0.930 . S
H1637 C1647 0.930 . S
C1638 H1632 0.930 . S
C1638 C1639 1.355 1_556 S
C1638 C1640 1.415 . S
C1639 C1638 1.355 1_554 S
C1639 C1641 1.424 . S
C1640 C1638 1.415 . S
C1640 C1645 1.425 . S
C1640 C1647 1.409 . S
C1641 H1633 0.946 . S
C1641 C1639 1.424 . S
C1641 C1642 1.342 1_554 S
C1642 H1634 0.930 . S
C1642 C1641 1.342 1_556 S
C1642 C1645 1.409 . S
C1643 H1635 0.930 . S
C1643 C1644 1.355 . S
C1643 C1645 1.415 . S
C1644 C1643 1.355 . S
C1644 C1646 1.419 . S
C1645 C1640 1.425 . S
C1645 C1642 1.409 . S
C1645 C1643 1.415 . S
C1646 H1636 0.930 . S
C1646 C1644 1.419 . S
C1646 C1647 1.362 . S
C1647 H1637 0.930 . S
C1647 C1640 1.409 . S
C1647 C1646 1.362 . S
H1648 C1654 0.930 . S
H1649 C1657 0.930 . S
H1650 C1658 0.930 . S
H1651 C1659 0.930 . S
H1652 C1662 0.930 . S
H1653 C1663 0.930 . S
C1654 H1648 0.930 . S
C1654 C1655 1.355 . S
C1654 C1656 1.415 . S
C1655 C1654 1.355 . S
C1655 C1657 1.419 . S
C1656 C1654 1.415 . S
C1656 C1661 1.425 . S
C1656 C1663 1.409 . S
C1657 H1649 0.930 . S
C1657 C1655 1.419 . S
C1657 C1658 1.362 . S
C1658 H1650 0.930 . S
C1658 C1657 1.362 . S
C1658 C1661 1.409 . S
C1659 H1651 0.930 . S
C1659 C1660 1.355 . S
C1659 C1661 1.415 . S
C1660 C1659 1.355 . S
C1660 C1662 1.419 . S
C1661 C1656 1.425 . S
C1661 C1658 1.409 . S
C1661 C1659 1.415 . S
C1662 H1652 0.930 . S
C1662 C1660 1.419 . S
C1662 C1663 1.362 . S
C1663 H1653 0.930 . S
C1663 C1656 1.409 . S
C1663 C1662 1.362 . S
H1664 C1670 0.930 . S
H1665 C1673 0.930 . S
H1666 C1674 0.930 . S
H1667 C1675 0.930 . S
H1668 C1678 0.930 . S
H1669 C1679 0.930 . S
C1670 H1664 0.930 . S
C1670 C1671 1.355 . S
C1670 C1672 1.415 . S
C1671 C1670 1.355 . S
C1671 C1673 1.419 . S
C1672 C1670 1.415 . S
C1672 C1677 1.425 . S
C1672 C1679 1.409 . S
C1673 H1665 0.930 . S
C1673 C1671 1.419 . S
C1673 C1674 1.362 . S
C1674 H1666 0.930 . S
C1674 C1673 1.362 . S
C1674 C1677 1.409 . S
C1675 H1667 0.930 . S
C1675 C1676 1.355 . S
C1675 C1677 1.415 1_556 S
C1676 C1675 1.355 . S
C1676 C1678 1.419 . S
C1677 C1672 1.425 . S
C1677 C1674 1.409 . S
C1677 C1675 1.415 1_554 S
C1678 H1668 0.930 . S
C1678 C1676 1.419 . S
C1678 C1679 1.362 1_556 S
C1679 H1669 0.930 . S
C1679 C1672 1.409 . S
C1679 C1678 1.362 1_554 S
H1680 C1686 0.930 . S
H1681 C1689 0.930 . S
H1682 C1690 0.930 . S
H1683 C1691 0.930 . S
H1684 C1694 0.930 . S
H1685 C1695 0.930 . S
C1686 H1680 0.930 . S
C1686 C1687 1.355 . S
C1686 C1688 1.415 . S
C1687 C1686 1.355 . S
C1687 C1689 1.419 . S
C1688 C1686 1.415 . S
C1688 C1693 1.425 . S
C1688 C1695 1.409 . S
C1689 H1681 0.930 . S
C1689 C1687 1.419 . S
C1689 C1690 1.362 . S
C1690 H1682 0.930 . S
C1690 C1689 1.362 . S
C1690 C1693 1.409 . S
C1691 H1683 0.930 . S
C1691 C1692 1.355 . S
C1691 C1693 1.415 . S
C1692 C1691 1.355 . S
C1692 C1694 1.419 . S
C1693 C1688 1.425 . S
C1693 C1690 1.409 . S
C1693 C1691 1.415 . S
C1694 H1684 0.930 . S
C1694 C1692 1.419 . S
C1694 C1695 1.362 . S
C1695 H1685 0.930 . S
C1695 C1688 1.409 . S
C1695 C1694 1.362 . S
H1696 C1702 0.930 . S
H1697 C1705 0.930 . S
H1698 C1706 0.930 . S
H1699 C1707 0.930 . S
H1700 C1710 0.930 . S
H1701 C1711 0.930 . S
C1702 H1696 0.930 . S
C1702 C1703 1.355 . S
C1702 C1704 1.415 . S
C1703 C1702 1.355 . S
C1703 C1705 1.419 . S
C1704 C1702 1.415 . S
C1704 C1709 1.425 . S
C1704 C1711 1.409 . S
C1705 H1697 0.930 . S
C1705 C1703 1.419 . S
C1705 C1706 1.362 . S
C1706 H1698 0.930 . S
C1706 C1705 1.362 . S
C1706 C1709 1.409 . S
C1707 H1699 0.930 . S
C1707 C1708 1.355 . S
C1707 C1709 1.415 . S
C1708 C1707 1.355 . S
C1708 C1710 1.419 . S
C1709 C1704 1.425 . S
C1709 C1706 1.409 . S
C1709 C1707 1.415 . S
C1710 H1700 0.930 . S
C1710 C1708 1.419 . S
C1710 C1711 1.362 . S
C1711 H1701 0.930 . S
C1711 C1704 1.409 . S
C1711 C1710 1.362 . S
H1712 C1718 0.930 . S
H1713 C1721 0.930 . S
H1714 C1722 0.930 . S
H1715 C1723 0.930 . S
H1716 C1726 0.930 . S
H1717 C1727 0.930 . S
C1718 H1712 0.930 . S
C1718 C1719 1.355 . S
C1718 C1720 1.415 . S
C1719 C1718 1.355 . S
C1719 C1721 1.419 . S
C1720 C1718 1.415 . S
C1720 C1725 1.425 . S
C1720 C1727 1.409 . S
C1721 H1713 0.930 . S
C1721 C1719 1.419 . S
C1721 C1722 1.362 . S
C1722 H1714 0.930 . S
C1722 C1721 1.362 . S
C1722 C1725 1.409 . S
C1723 H1715 0.930 . S
C1723 C1724 1.355 . S
C1723 C1725 1.415 . S
C1724 C1723 1.355 . S
C1724 C1726 1.419 . S
C1725 C1720 1.425 . S
C1725 C1722 1.409 . S
C1725 C1723 1.415 . S
C1726 H1716 0.930 . S
C1726 C1724 1.419 . S
C1726 C1727 1.362 . S
C1727 H1717 0.930 . S
C1727 C1720 1.409 . S
C1727 C1726 1.362 . S
H1728 C1734 0.930 . S
H1729 C1737 0.930 . S
H1730 C1738 0.930 . S
H1731 C1739 0.930 . S
H1732 C1742 0.930 . S
H1733 C1743 0.930 . S
C1734 H1728 0.930 . S
C1734 C1735 1.355 . S
C1734 C1736 1.415 . S
C1735 C1734 1.355 . S
C1735 C1737 1.419 . S
C1736 C1734 1.415 . S
C1736 C1741 1.425 . S
C1736 C1743 1.409 . S
C1737 H1729 0.930 . S
C1737 C1735 1.419 . S
C1737 C1738 1.362 . S
C1738 H1730 0.930 . S
C1738 C1737 1.362 . S
C1738 C1741 1.409 . S
C1739 H1731 0.930 . S
C1739 C1740 1.355 . S
C1739 C1741 1.415 . S
C1740 C1739 1.355 . S
C1740 C1742 1.419 . S
C1741 C1736 1.425 . S
C1741 C1738 1.409 . S
C1741 C1739 1.415 . S
C1742 H1732 0.930 . S
C1742 C1740 1.419 . S
C1742 C1743 1.362 . S
C1743 H1733 0.930 . S
C1743 C1736 1.409 . S
C1743 C1742 1.362 . S
H1744 C1750 0.930 . S
H1745 C1753 0.930 . S
H1746 C1754 0.930 . S
H1747 C1755 0.930 . S
H1748 C1758 0.930 . S
H1749 C1759 0.930 . S
C1750 H1744 0.930 . S
C1750 C1751 1.355 . S
C1750 C1752 1.415 . S
C1751 C1750 1.355 . S
C1751 C1753 1.419 . S
C1752 C1750 1.415 . S
C1752 C1757 1.425 . S
C1752 C1759 1.409 . S
C1753 H1745 0.930 . S
C1753 C1751 1.419 . S
C1753 C1754 1.362 . S
C1754 H1746 0.930 . S
C1754 C1753 1.362 . S
C1754 C1757 1.409 . S
C1755 H1747 0.930 . S
C1755 C1756 1.355 . S
C1755 C1757 1.415 . S
C1756 C1755 1.355 . S
C1756 C1758 1.419 . S
C1757 C1752 1.425 . S
C1757 C1754 1.409 . S
C1757 C1755 1.415 . S
C1758 H1748 0.930 . S
C1758 C1756 1.419 . S
C1758 C1759 1.362 . S
C1759 H1749 0.930 . S
C1759 C1752 1.409 . S
C1759 C1758 1.362 . S
H1760 C1766 0.930 . S
H1761 C1769 0.930 . S
H1762 C1770 0.930 . S
H1763 C1771 0.930 . S
H1764 C1774 0.930 . S
H1765 C1775 0.930 . S
C1766 H1760 0.930 . S
C1766 C1767 1.355 . S
C1766 C1768 1.415 . S
C1767 C1766 1.355 . S
C1767 C1769 1.419 . S
C1768 C1766 1.415 . S
C1768 C1773 1.425 . S
C1768 C1775 1.409 . S
C1769 H1761 0.930 . S
C1769 C1767 1.419 . S
C1769 C1770 1.362 . S
C1770 H1762 0.930 . S
C1770 C1769 1.362 . S
C1770 C1773 1.409 . S
C1771 H1763 0.930 . S
C1771 C1772 1.355 . S
C1771 C1773 1.415 . S
C1772 C1771 1.355 . S
C1772 C1774 1.419 . S
C1773 C1768 1.425 . S
C1773 C1770 1.409 . S
C1773 C1771 1.415 . S
C1774 H1764 0.930 . S
C1774 C1772 1.419 . S
C1774 C1775 1.362 . S
C1775 H1765 0.930 . S
C1775 C1768 1.409 . S
C1775 C1774 1.362 . S
H1776 C1782 0.930 . S
H1777 C1785 0.930 . S
H1778 C1786 0.930 . S
H1779 C1787 0.930 . S
H1780 C1790 0.930 . S
H1781 C1791 0.930 . S
C1782 H1776 0.930 . S
C1782 C1783 1.355 . S
C1782 C1784 1.415 . S
C1783 C1782 1.355 . S
C1783 C1785 1.419 . S
C1784 C1782 1.415 . S
C1784 C1789 1.425 . S
C1784 C1791 1.409 . S
C1785 H1777 0.930 . S
C1785 C1783 1.419 . S
C1785 C1786 1.362 . S
C1786 H1778 0.930 . S
C1786 C1785 1.362 . S
C1786 C1789 1.409 . S
C1787 H1779 0.930 . S
C1787 C1788 1.355 . S
C1787 C1789 1.415 . S
C1788 C1787 1.355 . S
C1788 C1790 1.419 . S
C1789 C1784 1.425 . S
C1789 C1786 1.409 . S
C1789 C1787 1.415 . S
C1790 H1780 0.930 . S
C1790 C1788 1.419 . S
C1790 C1791 1.362 . S
C1791 H1781 0.930 . S
C1791 C1784 1.409 . S
C1791 C1790 1.362 . S
H1792 C1798 0.930 . S
H1793 C1801 0.933 . S
H1794 C1802 0.930 . S
H1795 C1803 0.930 . S
H1796 C1806 0.933 . S
H1797 C1807 0.930 . S
C1798 H1792 0.930 . S
C1798 C1799 1.355 . S
C1798 C1800 1.415 . S
C1799 C1798 1.355 . S
C1799 C1801 1.405 1_655 S
C1800 C1798 1.415 . S
C1800 C1805 1.425 1_655 S
C1800 C1807 1.409 . S
C1801 H1793 0.933 . S
C1801 C1799 1.405 1_455 S
C1801 C1802 1.374 . S
C1802 H1794 0.930 . S
C1802 C1801 1.374 . S
C1802 C1805 1.409 . S
C1803 H1795 0.930 . S
C1803 C1804 1.355 . S
C1803 C1805 1.415 . S
C1804 C1803 1.355 . S
C1804 C1806 1.405 1_455 S
C1805 C1800 1.425 1_455 S
C1805 C1802 1.409 . S
C1805 C1803 1.415 . S
C1806 H1796 0.933 . S
C1806 C1804 1.405 1_655 S
C1806 C1807 1.374 . S
C1807 H1797 0.930 . S
C1807 C1800 1.409 . S
C1807 C1806 1.374 . S
H1808 C1814 0.930 . S
H1809 C1817 0.930 . S
H1810 C1818 0.930 . S
H1811 C1819 0.930 . S
H1812 C1822 0.930 . S
H1813 C1823 0.930 . S
C1814 H1808 0.930 . S
C1814 C1815 1.355 . S
C1814 C1816 1.415 . S
C1815 C1814 1.355 . S
C1815 C1817 1.419 . S
C1816 C1814 1.415 . S
C1816 C1821 1.425 . S
C1816 C1823 1.409 . S
C1817 H1809 0.930 . S
C1817 C1815 1.419 . S
C1817 C1818 1.362 . S
C1818 H1810 0.930 . S
C1818 C1817 1.362 . S
C1818 C1821 1.409 . S
C1819 H1811 0.930 . S
C1819 C1820 1.355 . S
C1819 C1821 1.415 . S
C1820 C1819 1.355 . S
C1820 C1822 1.419 . S
C1821 C1816 1.425 . S
C1821 C1818 1.409 . S
C1821 C1819 1.415 . S
C1822 H1812 0.930 . S
C1822 C1820 1.419 . S
C1822 C1823 1.362 . S
C1823 H1813 0.930 . S
C1823 C1816 1.409 . S
C1823 C1822 1.362 . S
H1824 C1830 0.930 . S
H1825 C1833 0.930 . S
H1826 C1834 0.930 . S
H1827 C1835 0.930 . S
H1828 C1838 0.930 . S
H1829 C1839 0.930 . S
C1830 H1824 0.930 . S
C1830 C1831 1.355 . S
C1830 C1832 1.415 . S
C1831 C1830 1.355 . S
C1831 C1833 1.419 . S
C1832 C1830 1.415 . S
C1832 C1837 1.425 . S
C1832 C1839 1.409 . S
C1833 H1825 0.930 . S
C1833 C1831 1.419 . S
C1833 C1834 1.362 . S
C1834 H1826 0.930 . S
C1834 C1833 1.362 . S
C1834 C1837 1.409 . S
C1835 H1827 0.930 . S
C1835 C1836 1.355 . S
C1835 C1837 1.415 . S
C1836 C1835 1.355 . S
C1836 C1838 1.419 . S
C1837 C1832 1.425 . S
C1837 C1834 1.409 . S
C1837 C1835 1.415 . S
C1838 H1828 0.930 . S
C1838 C1836 1.419 . S
C1838 C1839 1.362 . S
C1839 H1829 0.930 . S
C1839 C1832 1.409 . S
C1839 C1838 1.362 . S
H1840 C1846 0.930 . S
H1841 C1849 0.930 . S
H1842 C1850 0.930 . S
H1843 C1851 0.930 . S
H1844 C1854 0.930 . S
H1845 C1855 0.930 . S
C1846 H1840 0.930 . S
C1846 C1847 1.355 . S
C1846 C1848 1.415 . S
C1847 C1846 1.355 . S
C1847 C1849 1.419 . S
C1848 C1846 1.415 . S
C1848 C1853 1.425 . S
C1848 C1855 1.409 . S
C1849 H1841 0.930 . S
C1849 C1847 1.419 . S
C1849 C1850 1.362 . S
C1850 H1842 0.930 . S
C1850 C1849 1.362 . S
C1850 C1853 1.409 . S
C1851 H1843 0.930 . S
C1851 C1852 1.355 . S
C1851 C1853 1.415 . S
C1852 C1851 1.355 . S
C1852 C1854 1.419 . S
C1853 C1848 1.425 . S
C1853 C1850 1.409 . S
C1853 C1851 1.415 . S
C1854 H1844 0.930 . S
C1854 C1852 1.419 . S
C1854 C1855 1.362 . S
C1855 H1845 0.930 . S
C1855 C1848 1.409 . S
C1855 C1854 1.362 . S
H1856 C1862 0.930 . S
H1857 C1865 0.930 . S
H1858 C1866 0.930 . S
H1859 C1867 0.930 . S
H1860 C1870 0.930 . S
H1861 C1871 0.930 . S
C1862 H1856 0.930 . S
C1862 C1863 1.355 . S
C1862 C1864 1.415 . S
C1863 C1862 1.355 . S
C1863 C1865 1.419 . S
C1864 C1862 1.415 . S
C1864 C1869 1.425 1_655 S
C1864 C1871 1.409 . S
C1865 H1857 0.930 . S
C1865 C1863 1.419 . S
C1865 C1866 1.362 1_655 S
C1866 H1858 0.930 . S
C1866 C1865 1.362 1_455 S
C1866 C1869 1.409 . S
C1867 H1859 0.930 . S
C1867 C1868 1.355 . S
C1867 C1869 1.415 . S
C1868 C1867 1.355 . S
C1868 C1870 1.419 . S
C1869 C1864 1.425 1_455 S
C1869 C1866 1.409 . S
C1869 C1867 1.415 . S
C1870 H1860 0.930 . S
C1870 C1868 1.419 . S
C1870 C1871 1.362 1_455 S
C1871 H1861 0.930 . S
C1871 C1864 1.409 . S
C1871 C1870 1.362 1_655 S
H1872 C1878 0.930 . S
H1873 C1881 0.930 . S
H1874 C1882 0.930 . S
H1875 C1883 0.930 . S
H1876 C1886 0.930 . S
H1877 C1887 0.930 . S
C1878 H1872 0.930 . S
C1878 C1879 1.355 . S
C1878 C1880 1.415 . S
C1879 C1878 1.355 . S
C1879 C1881 1.419 . S
C1880 C1878 1.415 . S
C1880 C1885 1.425 . S
C1880 C1887 1.409 . S
C1881 H1873 0.930 . S
C1881 C1879 1.419 . S
C1881 C1882 1.362 . S
C1882 H1874 0.930 . S
C1882 C1881 1.362 . S
C1882 C1885 1.409 . S
C1883 H1875 0.930 . S
C1883 C1884 1.355 . S
C1883 C1885 1.415 . S
C1884 C1883 1.355 . S
C1884 C1886 1.419 . S
C1885 C1880 1.425 . S
C1885 C1882 1.409 . S
C1885 C1883 1.415 . S
C1886 H1876 0.930 . S
C1886 C1884 1.419 . S
C1886 C1887 1.362 . S
C1887 H1877 0.930 . S
C1887 C1880 1.409 . S
C1887 C1886 1.362 . S
H1888 C1894 0.930 . S
H1889 C1897 0.930 . S
H1890 C1898 0.930 . S
H1891 C1899 0.930 . S
H1892 C1902 0.930 . S
H1893 C1903 0.930 . S
C1894 H1888 0.930 . S
C1894 C1895 1.355 . S
C1894 C1896 1.415 . S
C1895 C1894 1.355 . S
C1895 C1897 1.419 . S
C1896 C1894 1.415 . S
C1896 C1901 1.425 . S
C1896 C1903 1.409 . S
C1897 H1889 0.930 . S
C1897 C1895 1.419 . S
C1897 C1898 1.362 . S
C1898 H1890 0.930 . S
C1898 C1897 1.362 . S
C1898 C1901 1.409 . S
C1899 H1891 0.930 . S
C1899 C1900 1.355 . S
C1899 C1901 1.415 . S
C1900 C1899 1.355 . S
C1900 C1902 1.419 . S
C1901 C1896 1.425 . S
C1901 C1898 1.409 . S
C1901 C1899 1.415 . S
C1902 H1892 0.930 . S
C1902 C1900 1.419 . S
C1902 C1903 1.362 . S
C1903 H1893 0.930 . S
C1903 C1896 1.409 . S
C1903 C1902 1.362 . S
H1904 C1910 0.930 . S
H1905 C1913 0.930 . S
H1906 C1914 0.930 . S
H1907 C1915 0.930 . S
H1908 C1918 0.930 . S
H1909 C1919 0.930 . S
C1910 H1904 0.930 . S
C1910 C1911 1.355 . S
C1910 C1912 1.415 . S
C1911 C1910 1.355 . S
C1911 C1913 1.419 . S
C1912 C1910 1.415 . S
C1912 C1917 1.425 . S
C1912 C1919 1.409 . S
C1913 H1905 0.930 . S
C1913 C1911 1.419 . S
C1913 C1914 1.362 . S
C1914 H1906 0.930 . S
C1914 C1913 1.362 . S
C1914 C1917 1.409 . S
C1915 H1907 0.930 . S
C1915 C1916 1.355 . S
C1915 C1917 1.415 . S
C1916 C1915 1.355 . S
C1916 C1918 1.419 . S
C1917 C1912 1.425 . S
C1917 C1914 1.409 . S
C1917 C1915 1.415 . S
C1918 H1908 0.930 . S
C1918 C1916 1.419 . S
C1918 C1919 1.362 . S
C1919 H1909 0.930 . S
C1919 C1912 1.409 . S
C1919 C1918 1.362 . S
H1920 C1926 0.930 . S
H1921 C1929 0.930 . S
H1922 C1930 0.930 . S
H1923 C1931 0.930 . S
H1924 C1934 0.930 . S
H1925 C1935 0.930 . S
C1926 H1920 0.930 . S
C1926 C1927 1.355 . S
C1926 C1928 1.415 . S
C1927 C1926 1.355 . S
C1927 C1929 1.419 . S
C1928 C1926 1.415 . S
C1928 C1933 1.425 . S
C1928 C1935 1.409 . S
C1929 H1921 0.930 . S
C1929 C1927 1.419 . S
C1929 C1930 1.362 . S
C1930 H1922 0.930 . S
C1930 C1929 1.362 . S
C1930 C1933 1.409 . S
C1931 H1923 0.930 . S
C1931 C1932 1.355 . S
C1931 C1933 1.415 . S
C1932 C1931 1.355 . S
C1932 C1934 1.419 . S
C1933 C1928 1.425 . S
C1933 C1930 1.409 . S
C1933 C1931 1.415 . S
C1934 H1924 0.930 . S
C1934 C1932 1.419 . S
C1934 C1935 1.362 . S
C1935 H1925 0.930 . S
C1935 C1928 1.409 . S
C1935 C1934 1.362 . S
H1936 C1942 0.930 . S
H1937 C1945 0.930 . S
H1938 C1946 0.930 . S
H1939 C1947 0.930 . S
H1940 C1950 0.930 . S
H1941 C1951 0.930 . S
C1942 H1936 0.930 . S
C1942 C1943 1.355 . S
C1942 C1944 1.415 . S
C1943 C1942 1.355 . S
C1943 C1945 1.419 . S
C1944 C1942 1.415 . S
C1944 C1949 1.425 . S
C1944 C1951 1.409 . S
C1945 H1937 0.930 . S
C1945 C1943 1.419 . S
C1945 C1946 1.362 . S
C1946 H1938 0.930 . S
C1946 C1945 1.362 . S
C1946 C1949 1.409 . S
C1947 H1939 0.930 . S
C1947 C1948 1.355 . S
C1947 C1949 1.415 . S
C1948 C1947 1.355 . S
C1948 C1950 1.419 . S
C1949 C1944 1.425 . S
C1949 C1946 1.409 . S
C1949 C1947 1.415 . S
C1950 H1940 0.930 . S
C1950 C1948 1.419 . S
C1950 C1951 1.362 . S
C1951 H1941 0.930 . S
C1951 C1944 1.409 . S
C1951 C1950 1.362 . S
H1952 C1958 0.930 . S
H1953 C1961 0.930 . S
H1954 C1962 0.930 . S
H1955 C1963 0.930 . S
H1956 C1966 0.930 . S
H1957 C1967 0.930 . S
C1958 H1952 0.930 . S
C1958 C1959 1.355 . S
C1958 C1960 1.415 . S
C1959 C1958 1.355 . S
C1959 C1961 1.419 . S
C1960 C1958 1.415 . S
C1960 C1965 1.425 . S
C1960 C1967 1.409 . S
C1961 H1953 0.930 . S
C1961 C1959 1.419 . S
C1961 C1962 1.362 . S
C1962 H1954 0.930 . S
C1962 C1961 1.362 . S
C1962 C1965 1.409 . S
C1963 H1955 0.930 . S
C1963 C1964 1.355 . S
C1963 C1965 1.415 . S
C1964 C1963 1.355 . S
C1964 C1966 1.419 . S
C1965 C1960 1.425 . S
C1965 C1962 1.409 . S
C1965 C1963 1.415 . S
C1966 H1956 0.930 . S
C1966 C1964 1.419 . S
C1966 C1967 1.362 . S
C1967 H1957 0.930 . S
C1967 C1960 1.409 . S
C1967 C1966 1.362 . S
H1968 C1974 0.930 . S
H1969 C1977 0.930 . S
H1970 C1978 0.930 . S
H1971 C1979 0.930 . S
H1972 C1982 0.930 . S
H1973 C1983 0.930 . S
C1974 H1968 0.930 . S
C1974 C1975 1.355 . S
C1974 C1976 1.415 . S
C1975 C1974 1.355 . S
C1975 C1977 1.419 . S
C1976 C1974 1.415 . S
C1976 C1981 1.425 . S
C1976 C1983 1.409 . S
C1977 H1969 0.930 . S
C1977 C1975 1.419 . S
C1977 C1978 1.362 . S
C1978 H1970 0.930 . S
C1978 C1977 1.362 . S
C1978 C1981 1.409 . S
C1979 H1971 0.930 . S
C1979 C1980 1.355 . S
C1979 C1981 1.415 . S
C1980 C1979 1.355 . S
C1980 C1982 1.419 . S
C1981 C1976 1.425 . S
C1981 C1978 1.409 . S
C1981 C1979 1.415 . S
C1982 H1972 0.930 . S
C1982 C1980 1.419 . S
C1982 C1983 1.362 . S
C1983 H1973 0.930 . S
C1983 C1976 1.409 . S
C1983 C1982 1.362 . S
H1984 C1990 0.930 . S
H1985 C1993 0.930 . S
H1986 C1994 0.930 1_565 S
H1987 C1995 0.930 . S
H1988 C1998 0.930 . S
H1989 C1999 0.930 1_545 S
C1990 H1984 0.930 . S
C1990 C1991 1.355 . S
C1990 C1992 1.415 . S
C1991 C1990 1.355 . S
C1991 C1993 1.419 . S
C1992 C1990 1.415 . S
C1992 C1997 1.425 1_545 S
C1992 C1999 1.409 1_545 S
C1993 H1985 0.930 . S
C1993 C1991 1.419 . S
C1993 C1994 1.362 . S
C1994 H1986 0.930 1_545 S
C1994 C1993 1.362 . S
C1994 C1997 1.409 1_545 S
C1995 H1987 0.930 . S
C1995 C1996 1.355 . S
C1995 C1997 1.415 . S
C1996 C1995 1.355 . S
C1996 C1998 1.419 . S
C1997 C1992 1.425 1_565 S
C1997 C1994 1.409 1_565 S
C1997 C1995 1.415 . S
C1998 H1988 0.930 . S
C1998 C1996 1.419 . S
C1998 C1999 1.362 . S
C1999 H1989 0.930 1_565 S
C1999 C1992 1.409 1_565 S
C1999 C1998 1.362 . S
H2000 C2006 0.930 1_655 S
H2001 C2009 0.930 . S
H2002 C2010 0.930 . S
H2003 C2011 0.930 1_455 S
H2004 C2014 0.930 . S
H2005 C2015 0.930 . S
C2006 H2000 0.930 1_455 S
C2006 C2007 1.355 . S
C2006 C2008 1.415 1_455 S
C2007 C2006 1.355 . S
C2007 C2009 1.419 . S
C2008 C2006 1.415 1_655 S
C2008 C2013 1.425 1_665 S
C2008 C2015 1.409 1_565 S
C2009 H2001 0.930 . S
C2009 C2007 1.419 . S
C2009 C2010 1.362 . S
C2010 H2002 0.930 . S
C2010 C2009 1.362 . S
C2010 C2013 1.409 1_565 S
C2011 H2003 0.930 1_655 S
C2011 C2012 1.355 . S
C2011 C2013 1.415 1_655 S
C2012 C2011 1.355 . S
C2012 C2014 1.419 . S
C2013 C2008 1.425 1_445 S
C2013 C2010 1.409 1_545 S
C2013 C2011 1.415 1_455 S
C2014 H2004 0.930 . S
C2014 C2012 1.419 . S
C2014 C2015 1.362 . S
C2015 H2005 0.930 . S
C2015 C2008 1.409 1_545 S
C2015 C2014 1.362 . S
H2016 C2022 0.930 . S
H2017 C2025 0.930 . S
H2018 C2026 0.930 . S
H2019 C2027 0.930 . S
H2020 C2030 0.930 . S
H2021 C2031 0.930 . S
C2022 H2016 0.930 . S
C2022 C2023 1.355 . S
C2022 C2024 1.415 . S
C2023 C2022 1.355 . S
C2023 C2025 1.419 . S
C2024 C2022 1.415 . S
C2024 C2029 1.428 1_565 S
C2024 C2031 1.410 . S
C2025 H2017 0.930 . S
C2025 C2023 1.419 . S
C2025 C2026 1.362 1_565 S
C2026 H2018 0.930 . S
C2026 C2025 1.362 1_545 S
C2026 C2029 1.410 . S
C2027 H2019 0.930 . S
C2027 C2028 1.355 . S
C2027 C2029 1.415 . S
C2028 C2027 1.355 . S
C2028 C2030 1.419 . S
C2029 C2024 1.428 1_545 S
C2029 C2026 1.410 . S
C2029 C2027 1.415 . S
C2030 H2020 0.930 . S
C2030 C2028 1.419 . S
C2030 C2031 1.362 1_545 S
C2031 H2021 0.930 . S
C2031 C2024 1.410 . S
C2031 C2030 1.362 1_565 S
H2032 C2038 0.932 . S
H2033 C2041 0.930 . S
H2034 C2042 0.930 . S
H2035 C2043 0.931 . S
H2036 C2046 0.930 . S
H2037 C2047 0.930 . S
C2038 H2032 0.932 . S
C2038 C2039 1.351 1_545 S
C2038 C2040 1.416 . S
C2039 C2038 1.351 1_565 S
C2039 C2041 1.419 1_655 S
C2040 C2038 1.416 . S
C2040 C2045 1.425 1_645 S
C2040 C2047 1.409 . S
C2041 H2033 0.930 . S
C2041 C2039 1.419 1_455 S
C2041 C2042 1.362 . S
C2042 H2034 0.930 . S
C2042 C2041 1.362 . S
C2042 C2045 1.409 . S
C2043 H2035 0.931 . S
C2043 C2044 1.352 1_565 S
C2043 C2045 1.416 . S
C2044 C2043 1.352 1_545 S
C2044 C2046 1.419 1_455 S
C2045 C2040 1.425 1_465 S
C2045 C2042 1.409 . S
C2045 C2043 1.416 . S
C2046 H2036 0.930 . S
C2046 C2044 1.419 1_655 S
C2046 C2047 1.362 . S
C2047 H2037 0.930 . S
C2047 C2040 1.409 . S
C2047 C2046 1.362 . S
H2048 C2054 0.930 . S
H2049 C2057 0.930 . S
H2050 C2058 0.930 . S
H2051 C2059 0.930 . S
H2052 C2062 0.930 . S
H2053 C2063 0.930 . S
C2054 H2048 0.930 . S
C2054 C2055 1.355 1_556 S
C2054 C2056 1.415 . S
C2055 C2054 1.355 1_554 S
C2055 C2057 1.419 1_455 S
C2056 C2054 1.415 . S
C2056 C2061 1.425 1_455 S
C2056 C2063 1.409 . S
C2057 H2049 0.930 . S
C2057 C2055 1.419 1_655 S
C2057 C2058 1.362 1_554 S
C2058 H2050 0.930 . S
C2058 C2057 1.362 1_556 S
C2058 C2061 1.409 . S
C2059 H2051 0.930 . S
C2059 C2060 1.355 . S
C2059 C2061 1.415 . S
C2060 C2059 1.355 . S
C2060 C2062 1.419 . S
C2061 C2056 1.425 1_655 S
C2061 C2058 1.409 . S
C2061 C2059 1.415 . S
C2062 H2052 0.930 . S
C2062 C2060 1.419 . S
C2062 C2063 1.362 1_655 S
C2063 H2053 0.930 . S
C2063 C2056 1.409 . S
C2063 C2062 1.362 1_455 S
H2064 C2070 0.930 . S
H2065 C2073 0.930 1_556 S
H2066 C2074 0.930 . S
H2067 C2075 0.930 . S
H2068 C2078 0.930 . S
H2069 C2079 0.930 . S
C2070 H2064 0.930 . S
C2070 C2071 1.355 1_554 S
C2070 C2072 1.415 . S
C2071 C2070 1.355 1_556 S
C2071 C2073 1.419 1_556 S
C2072 C2070 1.415 . S
C2072 C2077 1.425 . S
C2072 C2079 1.409 . S
C2073 H2065 0.930 1_554 S
C2073 C2071 1.419 1_554 S
C2073 C2074 1.362 . S
C2074 H2066 0.930 . S
C2074 C2073 1.362 . S
C2074 C2077 1.409 . S
C2075 H2067 0.930 . S
C2075 C2076 1.355 . S
C2075 C2077 1.415 . S
C2076 C2075 1.355 . S
C2076 C2078 1.419 . S
C2077 C2072 1.425 . S
C2077 C2074 1.409 . S
C2077 C2075 1.415 . S
C2078 H2068 0.930 . S
C2078 C2076 1.419 . S
C2078 C2079 1.362 . S
C2079 H2069 0.930 . S
C2079 C2072 1.409 . S
C2079 C2078 1.362 . S
H2080 C2086 0.930 . S
H2081 C2089 0.930 . S
H2082 C2090 0.930 . S
H2083 C2091 0.930 . S
H2084 C2094 0.930 . S
H2085 C2095 0.930 . S
C2086 H2080 0.930 . S
C2086 C2087 1.355 . S
C2086 C2088 1.415 . S
C2087 C2086 1.355 . S
C2087 C2089 1.419 . S
C2088 C2086 1.415 . S
C2088 C2093 1.425 . S
C2088 C2095 1.409 . S
C2089 H2081 0.930 . S
C2089 C2087 1.419 . S
C2089 C2090 1.362 . S
C2090 H2082 0.930 . S
C2090 C2089 1.362 . S
C2090 C2093 1.409 . S
C2091 H2083 0.930 . S
C2091 C2092 1.355 . S
C2091 C2093 1.415 . S
C2092 C2091 1.355 . S
C2092 C2094 1.419 . S
C2093 C2088 1.425 . S
C2093 C2090 1.409 . S
C2093 C2091 1.415 . S
C2094 H2084 0.930 . S
C2094 C2092 1.419 . S
C2094 C2095 1.362 . S
C2095 H2085 0.930 . S
C2095 C2088 1.409 . S
C2095 C2094 1.362 . S
H2096 C2102 0.930 . S
H2097 C2105 0.930 . S
H2098 C2106 0.930 . S
H2099 C2107 0.930 . S
H2100 C2110 0.930 . S
H2101 C2111 0.930 . S
C2102 H2096 0.930 . S
C2102 C2103 1.355 . S
C2102 C2104 1.415 . S
C2103 C2102 1.355 . S
C2103 C2105 1.419 . S
C2104 C2102 1.415 . S
C2104 C2109 1.425 . S
C2104 C2111 1.409 . S
C2105 H2097 0.930 . S
C2105 C2103 1.419 . S
C2105 C2106 1.362 . S
C2106 H2098 0.930 . S
C2106 C2105 1.362 . S
C2106 C2109 1.409 . S
C2107 H2099 0.930 . S
C2107 C2108 1.355 . S
C2107 C2109 1.415 . S
C2108 C2107 1.355 . S
C2108 C2110 1.419 . S
C2109 C2104 1.425 . S
C2109 C2106 1.409 . S
C2109 C2107 1.415 . S
C2110 H2100 0.930 . S
C2110 C2108 1.419 . S
C2110 C2111 1.362 . S
C2111 H2101 0.930 . S
C2111 C2104 1.409 . S
C2111 C2110 1.362 . S
H2112 C2118 0.930 . S
H2113 C2121 0.930 . S
H2114 C2122 0.930 . S
H2115 C2123 0.930 . S
H2116 C2126 0.930 . S
H2117 C2127 0.930 . S
C2118 H2112 0.930 . S
C2118 C2119 1.355 . S
C2118 C2120 1.415 . S
C2119 C2118 1.355 . S
C2119 C2121 1.419 . S
C2120 C2118 1.415 . S
C2120 C2125 1.425 . S
C2120 C2127 1.409 . S
C2121 H2113 0.930 . S
C2121 C2119 1.419 . S
C2121 C2122 1.362 . S
C2122 H2114 0.930 . S
C2122 C2121 1.362 . S
C2122 C2125 1.409 . S
C2123 H2115 0.930 . S
C2123 C2124 1.355 . S
C2123 C2125 1.415 . S
C2124 C2123 1.355 . S
C2124 C2126 1.419 . S
C2125 C2120 1.425 . S
C2125 C2122 1.409 . S
C2125 C2123 1.415 . S
C2126 H2116 0.930 . S
C2126 C2124 1.419 . S
C2126 C2127 1.362 . S
C2127 H2117 0.930 . S
C2127 C2120 1.409 . S
C2127 C2126 1.362 . S
H2128 C2134 0.930 . S
H2129 C2137 0.930 . S
H2130 C2138 0.930 . S
H2131 C2139 0.930 . S
H2132 C2142 0.930 . S
H2133 C2143 0.930 . S
C2134 H2128 0.930 . S
C2134 C2135 1.355 . S
C2134 C2136 1.415 . S
C2135 C2134 1.355 . S
C2135 C2137 1.419 . S
C2136 C2134 1.415 . S
C2136 C2141 1.425 . S
C2136 C2143 1.409 . S
C2137 H2129 0.930 . S
C2137 C2135 1.419 . S
C2137 C2138 1.362 . S
C2138 H2130 0.930 . S
C2138 C2137 1.362 . S
C2138 C2141 1.409 . S
C2139 H2131 0.930 . S
C2139 C2140 1.355 . S
C2139 C2141 1.415 . S
C2140 C2139 1.355 . S
C2140 C2142 1.419 . S
C2141 C2136 1.425 . S
C2141 C2138 1.409 . S
C2141 C2139 1.415 . S
C2142 H2132 0.930 . S
C2142 C2140 1.419 . S
C2142 C2143 1.362 . S
C2143 H2133 0.930 . S
C2143 C2136 1.409 . S
C2143 C2142 1.362 . S
H2144 C2150 0.930 . S
H2145 C2153 0.930 . S
H2146 C2154 0.930 . S
H2147 C2155 0.930 . S
H2148 C2158 0.930 . S
H2149 C2159 0.930 . S
C2150 H2144 0.930 . S
C2150 C2151 1.355 . S
C2150 C2152 1.415 . S
C2151 C2150 1.355 . S
C2151 C2153 1.419 . S
C2152 C2150 1.415 . S
C2152 C2157 1.425 . S
C2152 C2159 1.409 . S
C2153 H2145 0.930 . S
C2153 C2151 1.419 . S
C2153 C2154 1.362 . S
C2154 H2146 0.930 . S
C2154 C2153 1.362 . S
C2154 C2157 1.409 . S
C2155 H2147 0.930 . S
C2155 C2156 1.355 . S
C2155 C2157 1.415 . S
C2156 C2155 1.355 . S
C2156 C2158 1.419 . S
C2157 C2152 1.425 . S
C2157 C2154 1.409 . S
C2157 C2155 1.415 . S
C2158 H2148 0.930 . S
C2158 C2156 1.419 . S
C2158 C2159 1.362 . S
C2159 H2149 0.930 . S
C2159 C2152 1.409 . S
C2159 C2158 1.362 . S
H2160 C2166 0.930 . S
H2161 C2169 0.930 . S
H2162 C2170 0.930 . S
H2163 C2171 0.930 . S
H2164 C2174 0.930 . S
H2165 C2175 0.930 . S
C2166 H2160 0.930 . S
C2166 C2167 1.355 . S
C2166 C2168 1.415 . S
C2167 C2166 1.355 . S
C2167 C2169 1.419 . S
C2168 C2166 1.415 . S
C2168 C2173 1.425 . S
C2168 C2175 1.409 . S
C2169 H2161 0.930 . S
C2169 C2167 1.419 . S
C2169 C2170 1.362 . S
C2170 H2162 0.930 . S
C2170 C2169 1.362 . S
C2170 C2173 1.409 . S
C2171 H2163 0.930 . S
C2171 C2172 1.355 . S
C2171 C2173 1.415 . S
C2172 C2171 1.355 . S
C2172 C2174 1.419 . S
C2173 C2168 1.425 . S
C2173 C2170 1.409 . S
C2173 C2171 1.415 . S
C2174 H2164 0.930 . S
C2174 C2172 1.419 . S
C2174 C2175 1.362 . S
C2175 H2165 0.930 . S
C2175 C2168 1.409 . S
C2175 C2174 1.362 . S
H2176 C2182 0.930 . S
H2177 C2185 0.930 1_655 S
H2178 C2186 0.930 . S
H2179 C2187 0.930 . S
H2180 C2190 0.930 . S
H2181 C2191 0.930 . S
C2182 H2176 0.930 . S
C2182 C2183 1.355 . S
C2182 C2184 1.415 . S
C2183 C2182 1.355 . S
C2183 C2185 1.419 . S
C2184 C2182 1.415 . S
C2184 C2189 1.425 1_455 S
C2184 C2191 1.409 . S
C2185 H2177 0.930 1_455 S
C2185 C2183 1.419 . S
C2185 C2186 1.362 1_455 S
C2186 H2178 0.930 . S
C2186 C2185 1.362 1_655 S
C2186 C2189 1.409 . S
C2187 H2179 0.930 . S
C2187 C2188 1.355 . S
C2187 C2189 1.415 . S
C2188 C2187 1.355 . S
C2188 C2190 1.419 1_655 S
C2189 C2184 1.425 1_655 S
C2189 C2186 1.409 . S
C2189 C2187 1.415 . S
C2190 H2180 0.930 . S
C2190 C2188 1.419 1_455 S
C2190 C2191 1.362 . S
C2191 H2181 0.930 . S
C2191 C2184 1.409 . S
C2191 C2190 1.362 . S
H2192 C2198 0.930 . S
H2193 C2201 0.930 . S
H2194 C2202 0.930 . S
H2195 C2203 0.930 . S
H2196 C2206 0.930 . S
H2197 C2207 0.930 . S
C2198 H2192 0.930 . S
C2198 C2199 1.355 . S
C2198 C2200 1.415 . S
C2199 C2198 1.355 . S
C2199 C2201 1.419 . S
C2200 C2198 1.415 . S
C2200 C2205 1.425 . S
C2200 C2207 1.409 . S
C2201 H2193 0.930 . S
C2201 C2199 1.419 . S
C2201 C2202 1.362 . S
C2202 H2194 0.930 . S
C2202 C2201 1.362 . S
C2202 C2205 1.409 . S
C2203 H2195 0.930 . S
C2203 C2204 1.355 . S
C2203 C2205 1.415 . S
C2204 C2203 1.355 . S
C2204 C2206 1.419 . S
C2205 C2200 1.425 . S
C2205 C2202 1.409 . S
C2205 C2203 1.415 . S
C2206 H2196 0.930 . S
C2206 C2204 1.419 . S
C2206 C2207 1.362 . S
C2207 H2197 0.930 . S
C2207 C2200 1.409 . S
C2207 C2206 1.362 . S
H2208 C2214 0.930 . S
H2209 C2217 0.930 . S
H2210 C2218 0.930 . S
H2211 C2219 0.930 . S
H2212 C2222 0.930 . S
H2213 C2223 0.930 . S
C2214 H2208 0.930 . S
C2214 C2215 1.355 . S
C2214 C2216 1.415 . S
C2215 C2214 1.355 . S
C2215 C2217 1.419 . S
C2216 C2214 1.415 . S
C2216 C2221 1.425 . S
C2216 C2223 1.409 . S
C2217 H2209 0.930 . S
C2217 C2215 1.419 . S
C2217 C2218 1.362 . S
C2218 H2210 0.930 . S
C2218 C2217 1.362 . S
C2218 C2221 1.409 . S
C2219 H2211 0.930 . S
C2219 C2220 1.355 . S
C2219 C2221 1.415 . S
C2220 C2219 1.355 . S
C2220 C2222 1.419 . S
C2221 C2216 1.425 . S
C2221 C2218 1.409 . S
C2221 C2219 1.415 . S
C2222 H2212 0.930 . S
C2222 C2220 1.419 . S
C2222 C2223 1.362 . S
C2223 H2213 0.930 . S
C2223 C2216 1.409 . S
C2223 C2222 1.362 . S
H2224 C2230 0.930 . S
H2225 C2233 0.930 . S
H2226 C2234 0.930 . S
H2227 C2235 0.930 . S
H2228 C2238 0.930 . S
H2229 C2239 0.930 . S
C2230 H2224 0.930 . S
C2230 C2231 1.355 . S
C2230 C2232 1.415 . S
C2231 C2230 1.355 . S
C2231 C2233 1.419 . S
C2232 C2230 1.415 . S
C2232 C2237 1.425 . S
C2232 C2239 1.409 . S
C2233 H2225 0.930 . S
C2233 C2231 1.419 . S
C2233 C2234 1.362 . S
C2234 H2226 0.930 . S
C2234 C2233 1.362 . S
C2234 C2237 1.409 . S
C2235 H2227 0.930 . S
C2235 C2236 1.355 . S
C2235 C2237 1.415 . S
C2236 C2235 1.355 . S
C2236 C2238 1.419 . S
C2237 C2232 1.425 . S
C2237 C2234 1.409 . S
C2237 C2235 1.415 . S
C2238 H2228 0.930 . S
C2238 C2236 1.419 . S
C2238 C2239 1.362 . S
C2239 H2229 0.930 . S
C2239 C2232 1.409 . S
C2239 C2238 1.362 . S
H2240 C2246 0.930 . S
H2241 C2249 0.930 1_455 S
H2242 C2250 0.930 . S
H2243 C2251 0.930 . S
H2244 C2254 0.930 . S
H2245 C2255 0.930 . S
C2246 H2240 0.930 . S
C2246 C2247 1.355 . S
C2246 C2248 1.415 . S
C2247 C2246 1.355 . S
C2247 C2249 1.419 . S
C2248 C2246 1.415 . S
C2248 C2253 1.425 . S
C2248 C2255 1.409 . S
C2249 H2241 0.930 1_655 S
C2249 C2247 1.419 . S
C2249 C2250 1.362 . S
C2250 H2242 0.930 . S
C2250 C2249 1.362 . S
C2250 C2253 1.409 . S
C2251 H2243 0.930 . S
C2251 C2252 1.355 . S
C2251 C2253 1.415 . S
C2252 C2251 1.355 . S
C2252 C2254 1.419 . S
C2253 C2248 1.425 . S
C2253 C2250 1.409 . S
C2253 C2251 1.415 . S
C2254 H2244 0.930 . S
C2254 C2252 1.419 . S
C2254 C2255 1.362 . S
C2255 H2245 0.930 . S
C2255 C2248 1.409 . S
C2255 C2254 1.362 . S
H2256 C2262 0.930 . S
H2257 C2265 0.930 . S
H2258 C2266 0.930 . S
H2259 C2267 0.930 . S
H2260 C2270 0.930 . S
H2261 C2271 0.930 . S
C2262 H2256 0.930 . S
C2262 C2263 1.355 1_554 S
C2262 C2264 1.415 . S
C2263 C2262 1.355 1_556 S
C2263 C2265 1.419 . S
C2264 C2262 1.415 . S
C2264 C2269 1.425 . S
C2264 C2271 1.409 . S
C2265 H2257 0.930 . S
C2265 C2263 1.419 . S
C2265 C2266 1.362 1_556 S
C2266 H2258 0.930 . S
C2266 C2265 1.362 1_554 S
C2266 C2269 1.409 . S
C2267 H2259 0.930 . S
C2267 C2268 1.355 . S
C2267 C2269 1.415 . S
C2268 C2267 1.355 . S
C2268 C2270 1.419 . S
C2269 C2264 1.425 . S
C2269 C2266 1.409 . S
C2269 C2267 1.415 . S
C2270 H2260 0.930 . S
C2270 C2268 1.419 . S
C2270 C2271 1.362 . S
C2271 H2261 0.930 . S
C2271 C2264 1.409 . S
C2271 C2270 1.362 . S
H2272 C2278 0.930 . S
H2273 C2281 0.930 . S
H2274 C2282 0.930 . S
H2275 C2283 0.930 . S
H2276 C2286 0.930 . S
H2277 C2287 0.930 . S
C2278 H2272 0.930 . S
C2278 C2279 1.355 . S
C2278 C2280 1.415 . S
C2279 C2278 1.355 . S
C2279 C2281 1.419 . S
C2280 C2278 1.415 . S
C2280 C2285 1.425 . S
C2280 C2287 1.409 . S
C2281 H2273 0.930 . S
C2281 C2279 1.419 . S
C2281 C2282 1.362 . S
C2282 H2274 0.930 . S
C2282 C2281 1.362 . S
C2282 C2285 1.409 . S
C2283 H2275 0.930 . S
C2283 C2284 1.355 . S
C2283 C2285 1.415 . S
C2284 C2283 1.355 . S
C2284 C2286 1.419 . S
C2285 C2280 1.425 . S
C2285 C2282 1.409 . S
C2285 C2283 1.415 . S
C2286 H2276 0.930 . S
C2286 C2284 1.419 . S
C2286 C2287 1.362 . S
C2287 H2277 0.930 . S
C2287 C2280 1.409 . S
C2287 C2286 1.362 . S
H2288 C2294 0.930 . S
H2289 C2297 0.930 . S
H2290 C2298 0.930 . S
H2291 C2299 0.930 . S
H2292 C2302 0.930 . S
H2293 C2303 0.930 . S
C2294 H2288 0.930 . S
C2294 C2295 1.355 . S
C2294 C2296 1.415 . S
C2295 C2294 1.355 . S
C2295 C2297 1.419 . S
C2296 C2294 1.415 . S
C2296 C2301 1.425 . S
C2296 C2303 1.409 . S
C2297 H2289 0.930 . S
C2297 C2295 1.419 . S
C2297 C2298 1.362 . S
C2298 H2290 0.930 . S
C2298 C2297 1.362 . S
C2298 C2301 1.409 . S
C2299 H2291 0.930 . S
C2299 C2300 1.355 . S
C2299 C2301 1.415 . S
C2300 C2299 1.355 . S
C2300 C2302 1.419 . S
C2301 C2296 1.425 . S
C2301 C2298 1.409 . S
C2301 C2299 1.415 . S
C2302 H2292 0.930 . S
C2302 C2300 1.419 . S
C2302 C2303 1.362 . S
C2303 H2293 0.930 . S
C2303 C2296 1.409 . S
C2303 C2302 1.362 . S
H2304 C2310 0.930 . S
H2305 C2313 0.930 . S
H2306 C2314 0.930 . S
H2307 C2315 0.930 . S
H2308 C2318 0.930 . S
H2309 C2319 0.930 . S
C2310 H2304 0.930 . S
C2310 C2311 1.355 . S
C2310 C2312 1.415 . S
C2311 C2310 1.355 . S
C2311 C2313 1.419 . S
C2312 C2310 1.415 . S
C2312 C2317 1.425 . S
C2312 C2319 1.409 . S
C2313 H2305 0.930 . S
C2313 C2311 1.419 . S
C2313 C2314 1.362 . S
C2314 H2306 0.930 . S
C2314 C2313 1.362 . S
C2314 C2317 1.409 . S
C2315 H2307 0.930 . S
C2315 C2316 1.355 . S
C2315 C2317 1.415 . S
C2316 C2315 1.355 . S
C2316 C2318 1.419 . S
C2317 C2312 1.425 . S
C2317 C2314 1.409 . S
C2317 C2315 1.415 . S
C2318 H2308 0.930 . S
C2318 C2316 1.419 . S
C2318 C2319 1.362 . S
C2319 H2309 0.930 . S
C2319 C2312 1.409 . S
C2319 C2318 1.362 . S
H2320 C2326 0.930 . S
H2321 C2329 0.930 . S
H2322 C2330 0.930 . S
H2323 C2331 0.930 . S
H2324 C2334 0.930 . S
H2325 C2335 0.930 . S
C2326 H2320 0.930 . S
C2326 C2327 1.355 . S
C2326 C2328 1.415 . S
C2327 C2326 1.355 . S
C2327 C2329 1.419 . S
C2328 C2326 1.415 . S
C2328 C2333 1.425 . S
C2328 C2335 1.409 . S
C2329 H2321 0.930 . S
C2329 C2327 1.419 . S
C2329 C2330 1.362 . S
C2330 H2322 0.930 . S
C2330 C2329 1.362 . S
C2330 C2333 1.409 . S
C2331 H2323 0.930 . S
C2331 C2332 1.355 . S
C2331 C2333 1.415 . S
C2332 C2331 1.355 . S
C2332 C2334 1.419 . S
C2333 C2328 1.425 . S
C2333 C2330 1.409 . S
C2333 C2331 1.415 . S
C2334 H2324 0.930 . S
C2334 C2332 1.419 . S
C2334 C2335 1.362 . S
C2335 H2325 0.930 . S
C2335 C2328 1.409 . S
C2335 C2334 1.362 . S
H2336 C2342 0.930 . S
H2337 C2345 0.930 1_554 S
H2338 C2346 0.930 . S
H2339 C2347 0.930 . S
H2340 C2350 0.930 . S
H2341 C2351 0.930 . S
C2342 H2336 0.930 . S
C2342 C2343 1.355 . S
C2342 C2344 1.415 . S
C2343 C2342 1.355 . S
C2343 C2345 1.419 . S
C2344 C2342 1.415 . S
C2344 C2349 1.425 1_655 S
C2344 C2351 1.409 . S
C2345 H2337 0.930 1_556 S
C2345 C2343 1.419 . S
C2345 C2346 1.362 1_655 S
C2346 H2338 0.930 . S
C2346 C2345 1.362 1_455 S
C2346 C2349 1.409 . S
C2347 H2339 0.930 . S
C2347 C2348 1.355 . S
C2347 C2349 1.415 . S
C2348 C2347 1.355 . S
C2348 C2350 1.419 . S
C2349 C2344 1.425 1_455 S
C2349 C2346 1.409 . S
C2349 C2347 1.415 . S
C2350 H2340 0.930 . S
C2350 C2348 1.419 . S
C2350 C2351 1.362 1_455 S
C2351 H2341 0.930 . S
C2351 C2344 1.409 . S
C2351 C2350 1.362 1_655 S
H2352 C2358 0.930 . S
H2353 C2361 0.930 . S
H2354 C2362 0.930 . S
H2355 C2363 0.930 . S
H2356 C2366 0.930 . S
H2357 C2367 0.930 . S
C2358 H2352 0.930 . S
C2358 C2359 1.355 . S
C2358 C2360 1.415 . S
C2359 C2358 1.355 . S
C2359 C2361 1.419 . S
C2360 C2358 1.415 . S
C2360 C2365 1.425 . S
C2360 C2367 1.409 . S
C2361 H2353 0.930 . S
C2361 C2359 1.419 . S
C2361 C2362 1.362 . S
C2362 H2354 0.930 . S
C2362 C2361 1.362 . S
C2362 C2365 1.409 . S
C2363 H2355 0.930 . S
C2363 C2364 1.355 . S
C2363 C2365 1.415 . S
C2364 C2363 1.355 . S
C2364 C2366 1.419 . S
C2365 C2360 1.425 . S
C2365 C2362 1.409 . S
C2365 C2363 1.415 . S
C2366 H2356 0.930 . S
C2366 C2364 1.419 . S
C2366 C2367 1.362 . S
C2367 H2357 0.930 . S
C2367 C2360 1.409 . S
C2367 C2366 1.362 . S
H2368 C2374 0.930 . S
H2369 C2377 0.930 . S
H2370 C2378 0.930 . S
H2371 C2379 0.930 . S
H2372 C2382 0.930 . S
H2373 C2383 0.930 . S
C2374 H2368 0.930 . S
C2374 C2375 1.355 . S
C2374 C2376 1.415 . S
C2375 C2374 1.355 . S
C2375 C2377 1.419 . S
C2376 C2374 1.415 . S
C2376 C2381 1.425 . S
C2376 C2383 1.409 . S
C2377 H2369 0.930 . S
C2377 C2375 1.419 . S
C2377 C2378 1.362 . S
C2378 H2370 0.930 . S
C2378 C2377 1.362 . S
C2378 C2381 1.409 . S
C2379 H2371 0.930 . S
C2379 C2380 1.355 . S
C2379 C2381 1.415 . S
C2380 C2379 1.355 . S
C2380 C2382 1.419 . S
C2381 C2376 1.425 . S
C2381 C2378 1.409 . S
C2381 C2379 1.415 . S
C2382 H2372 0.930 . S
C2382 C2380 1.419 . S
C2382 C2383 1.362 . S
C2383 H2373 0.930 . S
C2383 C2376 1.409 . S
C2383 C2382 1.362 . S
H2384 C2390 0.930 . S
H2385 C2393 0.930 . S
H2386 C2394 0.930 . S
H2387 C2395 0.930 . S
H2388 C2398 0.930 . S
H2389 C2399 0.930 . S
C2390 H2384 0.930 . S
C2390 C2391 1.355 . S
C2390 C2392 1.415 . S
C2391 C2390 1.355 . S
C2391 C2393 1.419 . S
C2392 C2390 1.415 . S
C2392 C2397 1.425 . S
C2392 C2399 1.409 . S
C2393 H2385 0.930 . S
C2393 C2391 1.419 . S
C2393 C2394 1.362 . S
C2394 H2386 0.930 . S
C2394 C2393 1.362 . S
C2394 C2397 1.409 . S
C2395 H2387 0.930 . S
C2395 C2396 1.355 . S
C2395 C2397 1.415 . S
C2396 C2395 1.355 . S
C2396 C2398 1.419 . S
C2397 C2392 1.425 . S
C2397 C2394 1.409 . S
C2397 C2395 1.415 . S
C2398 H2388 0.930 . S
C2398 C2396 1.419 . S
C2398 C2399 1.362 . S
C2399 H2389 0.930 . S
C2399 C2392 1.409 . S
C2399 C2398 1.362 . S
H2400 C2406 0.930 . S
H2401 C2409 0.930 . S
H2402 C2410 0.930 . S
H2403 C2411 0.930 . S
H2404 C2414 0.930 . S
H2405 C2415 0.930 . S
C2406 H2400 0.930 . S
C2406 C2407 1.355 1_655 S
C2406 C2408 1.415 . S
C2407 C2406 1.355 1_455 S
C2407 C2409 1.419 . S
C2408 C2406 1.415 . S
C2408 C2413 1.425 . S
C2408 C2415 1.409 . S
C2409 H2401 0.930 . S
C2409 C2407 1.419 . S
C2409 C2410 1.362 . S
C2410 H2402 0.930 . S
C2410 C2409 1.362 . S
C2410 C2413 1.409 1_455 S
C2411 H2403 0.930 . S
C2411 C2412 1.355 . S
C2411 C2413 1.415 . S
C2412 C2411 1.355 . S
C2412 C2414 1.419 . S
C2413 C2408 1.425 . S
C2413 C2410 1.409 1_655 S
C2413 C2411 1.415 . S
C2414 H2404 0.930 . S
C2414 C2412 1.419 . S
C2414 C2415 1.362 . S
C2415 H2405 0.930 . S
C2415 C2408 1.409 . S
C2415 C2414 1.362 . S
H2416 C2422 0.930 . S
H2417 C2425 0.930 . S
H2418 C2426 0.930 . S
H2419 C2427 0.930 . S
H2420 C2430 0.930 . S
H2421 C2431 0.930 . S
C2422 H2416 0.930 . S
C2422 C2423 1.355 . S
C2422 C2424 1.415 . S
C2423 C2422 1.355 . S
C2423 C2425 1.419 . S
C2424 C2422 1.415 . S
C2424 C2429 1.425 . S
C2424 C2431 1.409 . S
C2425 H2417 0.930 . S
C2425 C2423 1.419 . S
C2425 C2426 1.362 . S
C2426 H2418 0.930 . S
C2426 C2425 1.362 . S
C2426 C2429 1.409 . S
C2427 H2419 0.930 . S
C2427 C2428 1.355 . S
C2427 C2429 1.415 . S
C2428 C2427 1.355 . S
C2428 C2430 1.419 . S
C2429 C2424 1.425 . S
C2429 C2426 1.409 . S
C2429 C2427 1.415 . S
C2430 H2420 0.930 . S
C2430 C2428 1.419 . S
C2430 C2431 1.362 . S
C2431 H2421 0.930 . S
C2431 C2424 1.409 . S
C2431 C2430 1.362 . S
H2432 C2438 0.930 . S
H2433 C2441 0.930 . S
H2434 C2442 0.930 . S
H2435 C2443 0.930 . S
H2436 C2446 0.930 . S
H2437 C2447 0.930 . S
C2438 H2432 0.930 . S
C2438 C2439 1.355 . S
C2438 C2440 1.415 . S
C2439 C2438 1.355 . S
C2439 C2441 1.419 . S
C2440 C2438 1.415 . S
C2440 C2445 1.425 . S
C2440 C2447 1.409 . S
C2441 H2433 0.930 . S
C2441 C2439 1.419 . S
C2441 C2442 1.362 . S
C2442 H2434 0.930 . S
C2442 C2441 1.362 . S
C2442 C2445 1.409 . S
C2443 H2435 0.930 . S
C2443 C2444 1.355 . S
C2443 C2445 1.415 . S
C2444 C2443 1.355 . S
C2444 C2446 1.419 . S
C2445 C2440 1.425 . S
C2445 C2442 1.409 . S
C2445 C2443 1.415 . S
C2446 H2436 0.930 . S
C2446 C2444 1.419 . S
C2446 C2447 1.362 . S
C2447 H2437 0.930 . S
C2447 C2440 1.409 . S
C2447 C2446 1.362 . S
H2448 C2454 0.930 . S
H2449 C2457 0.930 . S
H2450 C2458 0.930 . S
H2451 C2459 0.930 . S
H2452 C2462 0.930 . S
H2453 C2463 0.930 . S
C2454 H2448 0.930 . S
C2454 C2455 1.355 . S
C2454 C2456 1.415 . S
C2455 C2454 1.355 . S
C2455 C2457 1.419 . S
C2456 C2454 1.415 . S
C2456 C2461 1.425 . S
C2456 C2463 1.409 . S
C2457 H2449 0.930 . S
C2457 C2455 1.419 . S
C2457 C2458 1.362 . S
C2458 H2450 0.930 . S
C2458 C2457 1.362 . S
C2458 C2461 1.409 . S
C2459 H2451 0.930 . S
C2459 C2460 1.355 . S
C2459 C2461 1.415 . S
C2460 C2459 1.355 . S
C2460 C2462 1.419 . S
C2461 C2456 1.425 . S
C2461 C2458 1.409 . S
C2461 C2459 1.415 . S
C2462 H2452 0.930 . S
C2462 C2460 1.419 . S
C2462 C2463 1.362 . S
C2463 H2453 0.930 . S
C2463 C2456 1.409 . S
C2463 C2462 1.362 . S
H2464 C2470 0.930 . S
H2465 C2473 0.930 . S
H2466 C2474 0.930 . S
H2467 C2475 0.930 . S
H2468 C2478 0.930 . S
H2469 C2479 0.930 . S
C2470 H2464 0.930 . S
C2470 C2471 1.355 . S
C2470 C2472 1.415 . S
C2471 C2470 1.355 . S
C2471 C2473 1.419 . S
C2472 C2470 1.415 . S
C2472 C2477 1.425 . S
C2472 C2479 1.409 1_455 S
C2473 H2465 0.930 . S
C2473 C2471 1.419 . S
C2473 C2474 1.362 . S
C2474 H2466 0.930 . S
C2474 C2473 1.362 . S
C2474 C2477 1.409 . S
C2475 H2467 0.930 . S
C2475 C2476 1.355 . S
C2475 C2477 1.415 1_655 S
C2476 C2475 1.355 . S
C2476 C2478 1.419 . S
C2477 C2472 1.425 . S
C2477 C2474 1.409 . S
C2477 C2475 1.415 1_455 S
C2478 H2468 0.930 . S
C2478 C2476 1.419 . S
C2478 C2479 1.362 . S
C2479 H2469 0.930 . S
C2479 C2472 1.409 1_655 S
C2479 C2478 1.362 . S
H2480 C2486 0.930 . S
H2481 C2489 0.930 . S
H2482 C2490 0.930 . S
H2483 C2491 0.930 . S
H2484 C2494 0.930 . S
H2485 C2495 0.930 . S
C2486 H2480 0.930 . S
C2486 C2487 1.355 . S
C2486 C2488 1.415 . S
C2487 C2486 1.355 . S
C2487 C2489 1.419 . S
C2488 C2486 1.415 . S
C2488 C2493 1.425 . S
C2488 C2495 1.409 . S
C2489 H2481 0.930 . S
C2489 C2487 1.419 . S
C2489 C2490 1.362 . S
C2490 H2482 0.930 . S
C2490 C2489 1.362 . S
C2490 C2493 1.409 . S
C2491 H2483 0.930 . S
C2491 C2492 1.355 . S
C2491 C2493 1.415 . S
C2492 C2491 1.355 . S
C2492 C2494 1.419 . S
C2493 C2488 1.425 . S
C2493 C2490 1.409 . S
C2493 C2491 1.415 . S
C2494 H2484 0.930 . S
C2494 C2492 1.419 . S
C2494 C2495 1.362 . S
C2495 H2485 0.930 . S
C2495 C2488 1.409 . S
C2495 C2494 1.362 . S
H2496 C2502 0.930 . S
H2497 C2505 0.930 . S
H2498 C2506 0.930 . S
H2499 C2507 0.930 1_554 S
H2500 C2510 0.929 . S
H2501 C2511 0.930 . S
C2502 H2496 0.930 . S
C2502 C2503 1.355 . S
C2502 C2504 1.415 . S
C2503 C2502 1.355 . S
C2503 C2505 1.419 . S
C2504 C2502 1.415 . S
C2504 C2509 1.425 . S
C2504 C2511 1.409 . S
C2505 H2497 0.930 . S
C2505 C2503 1.419 . S
C2505 C2506 1.362 . S
C2506 H2498 0.930 . S
C2506 C2505 1.362 . S
C2506 C2509 1.409 . S
C2507 H2499 0.930 1_556 S
C2507 C2508 1.355 1_556 S
C2507 C2509 1.415 . S
C2508 C2507 1.355 1_554 S
C2508 C2510 1.419 . S
C2509 C2504 1.425 . S
C2509 C2506 1.409 . S
C2509 C2507 1.415 . S
C2510 H2500 0.929 . S
C2510 C2508 1.419 . S
C2510 C2511 1.364 1_554 S
C2511 H2501 0.930 . S
C2511 C2504 1.409 . S
C2511 C2510 1.364 1_556 S
H2512 C2518 0.930 . S
H2513 C2521 0.930 . S
H2514 C2522 0.930 . S
H2515 C2523 0.930 . S
H2516 C2526 0.930 . S
H2517 C2527 0.930 . S
C2518 H2512 0.930 . S
C2518 C2519 1.355 . S
C2518 C2520 1.415 . S
C2519 C2518 1.355 . S
C2519 C2521 1.419 . S
C2520 C2518 1.415 . S
C2520 C2525 1.425 . S
C2520 C2527 1.409 . S
C2521 H2513 0.930 . S
C2521 C2519 1.419 . S
C2521 C2522 1.362 . S
C2522 H2514 0.930 . S
C2522 C2521 1.362 . S
C2522 C2525 1.409 . S
C2523 H2515 0.930 . S
C2523 C2524 1.355 . S
C2523 C2525 1.415 . S
C2524 C2523 1.355 . S
C2524 C2526 1.419 . S
C2525 C2520 1.425 . S
C2525 C2522 1.409 . S
C2525 C2523 1.415 . S
C2526 H2516 0.930 . S
C2526 C2524 1.419 . S
C2526 C2527 1.362 . S
C2527 H2517 0.930 . S
C2527 C2520 1.409 . S
C2527 C2526 1.362 . S
H2528 C2534 0.930 . S
H2529 C2537 0.930 . S
H2530 C2538 0.902 1_655 S
H2531 C2539 0.930 . S
H2532 C2542 0.930 . S
H2533 C2543 0.930 . S
C2534 H2528 0.930 . S
C2534 C2535 1.355 . S
C2534 C2536 1.415 . S
C2535 C2534 1.355 . S
C2535 C2537 1.419 . S
C2536 C2534 1.415 . S
C2536 C2541 1.425 . S
C2536 C2543 1.409 . S
C2537 H2529 0.930 . S
C2537 C2535 1.419 . S
C2537 C2538 1.383 . S
C2538 H2530 0.902 1_455 S
C2538 C2537 1.383 . S
C2538 C2541 1.417 . S
C2539 H2531 0.930 . S
C2539 C2540 1.355 . S
C2539 C2541 1.415 1_655 S
C2540 C2539 1.355 . S
C2540 C2542 1.419 1_655 S
C2541 C2536 1.425 . S
C2541 C2538 1.417 . S
C2541 C2539 1.415 1_455 S
C2542 H2532 0.930 . S
C2542 C2540 1.419 1_455 S
C2542 C2543 1.362 . S
C2543 H2533 0.930 . S
C2543 C2536 1.409 . S
C2543 C2542 1.362 . S
H2544 C2550 0.930 . S
H2545 C2553 0.930 . S
H2546 C2554 0.930 . S
H2547 C2555 0.930 . S
H2548 C2558 0.930 . S
H2549 C2559 0.930 . S
C2550 H2544 0.930 . S
C2550 C2551 1.355 . S
C2550 C2552 1.415 . S
C2551 C2550 1.355 . S
C2551 C2553 1.419 . S
C2552 C2550 1.415 . S
C2552 C2557 1.425 . S
C2552 C2559 1.409 . S
C2553 H2545 0.930 . S
C2553 C2551 1.419 . S
C2553 C2554 1.362 . S
C2554 H2546 0.930 . S
C2554 C2553 1.362 . S
C2554 C2557 1.409 . S
C2555 H2547 0.930 . S
C2555 C2556 1.355 . S
C2555 C2557 1.415 . S
C2556 C2555 1.355 . S
C2556 C2558 1.419 . S
C2557 C2552 1.425 . S
C2557 C2554 1.409 . S
C2557 C2555 1.415 . S
C2558 H2548 0.930 . S
C2558 C2556 1.419 . S
C2558 C2559 1.362 . S
C2559 H2549 0.930 . S
C2559 C2552 1.409 . S
C2559 C2558 1.362 . S
H2560 C2566 0.930 . S
H2561 C2569 0.930 . S
H2562 C2570 0.930 . S
H2563 C2571 0.930 . S
H2564 C2574 0.930 . S
H2565 C2575 0.930 . S
C2566 H2560 0.930 . S
C2566 C2567 1.355 . S
C2566 C2568 1.415 . S
C2567 C2566 1.355 . S
C2567 C2569 1.419 . S
C2568 C2566 1.415 . S
C2568 C2573 1.425 . S
C2568 C2575 1.409 . S
C2569 H2561 0.930 . S
C2569 C2567 1.419 . S
C2569 C2570 1.362 . S
C2570 H2562 0.930 . S
C2570 C2569 1.362 . S
C2570 C2573 1.409 . S
C2571 H2563 0.930 . S
C2571 C2572 1.355 . S
C2571 C2573 1.415 . S
C2572 C2571 1.355 . S
C2572 C2574 1.419 . S
C2573 C2568 1.425 . S
C2573 C2570 1.409 . S
C2573 C2571 1.415 . S
C2574 H2564 0.930 . S
C2574 C2572 1.419 . S
C2574 C2575 1.362 . S
C2575 H2565 0.930 . S
C2575 C2568 1.409 . S
C2575 C2574 1.362 . S
H2576 C2582 0.930 . S
H2577 C2585 0.930 . S
H2578 C2586 0.930 . S
H2579 C2587 0.930 . S
H2580 C2590 0.930 . S
H2581 C2591 0.930 . S
C2582 H2576 0.930 . S
C2582 C2583 1.355 . S
C2582 C2584 1.415 . S
C2583 C2582 1.355 . S
C2583 C2585 1.419 . S
C2584 C2582 1.415 . S
C2584 C2589 1.425 . S
C2584 C2591 1.409 . S
C2585 H2577 0.930 . S
C2585 C2583 1.419 . S
C2585 C2586 1.362 . S
C2586 H2578 0.930 . S
C2586 C2585 1.362 . S
C2586 C2589 1.409 . S
C2587 H2579 0.930 . S
C2587 C2588 1.355 . S
C2587 C2589 1.415 . S
C2588 C2587 1.355 . S
C2588 C2590 1.419 . S
C2589 C2584 1.425 . S
C2589 C2586 1.409 . S
C2589 C2587 1.415 . S
C2590 H2580 0.930 . S
C2590 C2588 1.419 . S
C2590 C2591 1.362 . S
C2591 H2581 0.930 . S
C2591 C2584 1.409 . S
C2591 C2590 1.362 . S
H2592 C2598 0.930 . S
H2593 C2601 0.930 . S
H2594 C2602 0.930 . S
H2595 C2603 0.930 . S
H2596 C2606 0.930 . S
H2597 C2607 0.930 . S
C2598 H2592 0.930 . S
C2598 C2599 1.355 . S
C2598 C2600 1.415 . S
C2599 C2598 1.355 . S
C2599 C2601 1.419 . S
C2600 C2598 1.415 . S
C2600 C2605 1.425 . S
C2600 C2607 1.409 . S
C2601 H2593 0.930 . S
C2601 C2599 1.419 . S
C2601 C2602 1.362 . S
C2602 H2594 0.930 . S
C2602 C2601 1.362 . S
C2602 C2605 1.409 . S
C2603 H2595 0.930 . S
C2603 C2604 1.355 . S
C2603 C2605 1.415 . S
C2604 C2603 1.355 . S
C2604 C2606 1.419 . S
C2605 C2600 1.425 . S
C2605 C2602 1.409 . S
C2605 C2603 1.415 . S
C2606 H2596 0.930 . S
C2606 C2604 1.419 . S
C2606 C2607 1.362 . S
C2607 H2597 0.930 . S
C2607 C2600 1.409 . S
C2607 C2606 1.362 . S
H2608 C2614 0.930 . S
H2609 C2617 0.930 . S
H2610 C2618 0.930 . S
H2611 C2619 0.930 . S
H2612 C2622 0.930 . S
H2613 C2623 0.930 . S
C2614 H2608 0.930 . S
C2614 C2615 1.355 . S
C2614 C2616 1.415 . S
C2615 C2614 1.355 . S
C2615 C2617 1.419 . S
C2616 C2614 1.415 . S
C2616 C2621 1.425 . S
C2616 C2623 1.409 . S
C2617 H2609 0.930 . S
C2617 C2615 1.419 . S
C2617 C2618 1.362 . S
C2618 H2610 0.930 . S
C2618 C2617 1.362 . S
C2618 C2621 1.409 . S
C2619 H2611 0.930 . S
C2619 C2620 1.355 . S
C2619 C2621 1.415 . S
C2620 C2619 1.355 . S
C2620 C2622 1.419 . S
C2621 C2616 1.425 . S
C2621 C2618 1.409 . S
C2621 C2619 1.415 . S
C2622 H2612 0.930 . S
C2622 C2620 1.419 . S
C2622 C2623 1.362 . S
C2623 H2613 0.930 . S
C2623 C2616 1.409 . S
C2623 C2622 1.362 . S
H2624 C2630 0.930 . S
H2625 C2633 0.930 . S
H2626 C2634 0.930 . S
H2627 C2635 0.930 . S
H2628 C2638 0.930 . S
H2629 C2639 0.930 . S
C2630 H2624 0.930 . S
C2630 C2631 1.355 . S
C2630 C2632 1.415 . S
C2631 C2630 1.355 . S
C2631 C2633 1.419 . S
C2632 C2630 1.415 . S
C2632 C2637 1.425 . S
C2632 C2639 1.409 . S
C2633 H2625 0.930 . S
C2633 C2631 1.419 . S
C2633 C2634 1.362 . S
C2634 H2626 0.930 . S
C2634 C2633 1.362 . S
C2634 C2637 1.409 . S
C2635 H2627 0.930 . S
C2635 C2636 1.355 . S
C2635 C2637 1.415 . S
C2636 C2635 1.355 . S
C2636 C2638 1.419 . S
C2637 C2632 1.425 . S
C2637 C2634 1.409 . S
C2637 C2635 1.415 . S
C2638 H2628 0.930 . S
C2638 C2636 1.419 . S
C2638 C2639 1.362 . S
C2639 H2629 0.930 . S
C2639 C2632 1.409 . S
C2639 C2638 1.362 . S
H2640 C2646 0.930 . S
H2641 C2649 0.930 . S
H2642 C2650 0.930 . S
H2643 C2651 0.930 . S
H2644 C2654 0.930 . S
H2645 C2655 0.930 . S
C2646 H2640 0.930 . S
C2646 C2647 1.355 . S
C2646 C2648 1.415 . S
C2647 C2646 1.355 . S
C2647 C2649 1.419 . S
C2648 C2646 1.415 . S
C2648 C2653 1.425 . S
C2648 C2655 1.409 . S
C2649 H2641 0.930 . S
C2649 C2647 1.419 . S
C2649 C2650 1.362 . S
C2650 H2642 0.930 . S
C2650 C2649 1.362 . S
C2650 C2653 1.409 . S
C2651 H2643 0.930 . S
C2651 C2652 1.355 . S
C2651 C2653 1.415 . S
C2652 C2651 1.355 . S
C2652 C2654 1.419 . S
C2653 C2648 1.425 . S
C2653 C2650 1.409 . S
C2653 C2651 1.415 . S
C2654 H2644 0.930 . S
C2654 C2652 1.419 . S
C2654 C2655 1.362 . S
C2655 H2645 0.930 . S
C2655 C2648 1.409 . S
C2655 C2654 1.362 . S
H2656 C2662 0.930 . S
H2657 C2665 0.930 1_556 S
H2658 C2666 0.930 . S
H2659 C2667 0.930 . S
H2660 C2670 0.930 . S
H2661 C2671 0.930 . S
C2662 H2656 0.930 . S
C2662 C2663 1.355 . S
C2662 C2664 1.415 . S
C2663 C2662 1.355 . S
C2663 C2665 1.419 . S
C2664 C2662 1.415 . S
C2664 C2669 1.425 . S
C2664 C2671 1.409 . S
C2665 H2657 0.930 1_554 S
C2665 C2663 1.419 . S
C2665 C2666 1.362 . S
C2666 H2658 0.930 . S
C2666 C2665 1.362 . S
C2666 C2669 1.409 . S
C2667 H2659 0.930 . S
C2667 C2668 1.355 . S
C2667 C2669 1.415 . S
C2668 C2667 1.355 . S
C2668 C2670 1.419 . S
C2669 C2664 1.425 . S
C2669 C2666 1.409 . S
C2669 C2667 1.415 . S
C2670 H2660 0.930 . S
C2670 C2668 1.419 . S
C2670 C2671 1.362 . S
C2671 H2661 0.930 . S
C2671 C2664 1.409 . S
C2671 C2670 1.362 . S
H2672 C2678 0.930 . S
H2673 C2681 0.930 . S
H2674 C2682 0.930 . S
H2675 C2683 0.930 . S
H2676 C2686 0.930 . S
H2677 C2687 0.930 . S
C2678 H2672 0.930 . S
C2678 C2679 1.355 . S
C2678 C2680 1.415 . S
C2679 C2678 1.355 . S
C2679 C2681 1.419 . S
C2680 C2678 1.415 . S
C2680 C2685 1.425 . S
C2680 C2687 1.409 . S
C2681 H2673 0.930 . S
C2681 C2679 1.419 . S
C2681 C2682 1.362 . S
C2682 H2674 0.930 . S
C2682 C2681 1.362 . S
C2682 C2685 1.409 . S
C2683 H2675 0.930 . S
C2683 C2684 1.355 . S
C2683 C2685 1.415 . S
C2684 C2683 1.355 . S
C2684 C2686 1.419 . S
C2685 C2680 1.425 . S
C2685 C2682 1.409 . S
C2685 C2683 1.415 . S
C2686 H2676 0.930 . S
C2686 C2684 1.419 . S
C2686 C2687 1.362 . S
C2687 H2677 0.930 . S
C2687 C2680 1.409 . S
C2687 C2686 1.362 . S
H2688 C2694 0.930 . S
H2689 C2697 0.930 . S
H2690 C2698 0.930 . S
H2691 C2699 0.930 . S
H2692 C2702 0.930 . S
H2693 C2703 0.930 . S
C2694 H2688 0.930 . S
C2694 C2695 1.355 . S
C2694 C2696 1.415 . S
C2695 C2694 1.355 . S
C2695 C2697 1.419 . S
C2696 C2694 1.415 . S
C2696 C2701 1.425 . S
C2696 C2703 1.409 1_565 S
C2697 H2689 0.930 . S
C2697 C2695 1.419 . S
C2697 C2698 1.362 . S
C2698 H2690 0.930 . S
C2698 C2697 1.362 . S
C2698 C2701 1.409 . S
C2699 H2691 0.930 . S
C2699 C2700 1.355 1_565 S
C2699 C2701 1.415 . S
C2700 C2699 1.355 1_545 S
C2700 C2702 1.419 . S
C2701 C2696 1.425 . S
C2701 C2698 1.409 . S
C2701 C2699 1.415 . S
C2702 H2692 0.930 . S
C2702 C2700 1.419 . S
C2702 C2703 1.362 . S
C2703 H2693 0.930 . S
C2703 C2696 1.409 1_545 S
C2703 C2702 1.362 . S
H2704 C2710 0.930 . S
H2705 C2713 0.930 . S
H2706 C2714 0.930 . S
H2707 C2715 0.930 . S
H2708 C2718 0.930 . S
H2709 C2719 0.930 . S
C2710 H2704 0.930 . S
C2710 C2711 1.355 . S
C2710 C2712 1.415 . S
C2711 C2710 1.355 . S
C2711 C2713 1.419 . S
C2712 C2710 1.415 . S
C2712 C2717 1.425 . S
C2712 C2719 1.409 . S
C2713 H2705 0.930 . S
C2713 C2711 1.419 . S
C2713 C2714 1.362 . S
C2714 H2706 0.930 . S
C2714 C2713 1.362 . S
C2714 C2717 1.409 . S
C2715 H2707 0.930 . S
C2715 C2716 1.355 . S
C2715 C2717 1.415 . S
C2716 C2715 1.355 . S
C2716 C2718 1.419 . S
C2717 C2712 1.425 . S
C2717 C2714 1.409 . S
C2717 C2715 1.415 . S
C2718 H2708 0.930 . S
C2718 C2716 1.419 . S
C2718 C2719 1.362 . S
C2719 H2709 0.930 . S
C2719 C2712 1.409 . S
C2719 C2718 1.362 . S
H2720 C2726 0.930 1_565 S
H2721 C2729 0.930 . S
H2722 C2730 0.930 . S
H2723 C2731 0.930 . S
H2724 C2734 0.930 . S
H2725 C2735 0.930 . S
C2726 H2720 0.930 1_545 S
C2726 C2727 1.355 . S
C2726 C2728 1.415 1_545 S
C2727 C2726 1.355 . S
C2727 C2729 1.419 . S
C2728 C2726 1.415 1_565 S
C2728 C2733 1.425 1_565 S
C2728 C2735 1.409 . S
C2729 H2721 0.930 . S
C2729 C2727 1.419 . S
C2729 C2730 1.362 . S
C2730 H2722 0.930 . S
C2730 C2729 1.362 . S
C2730 C2733 1.409 . S
C2731 H2723 0.930 . S
C2731 C2732 1.355 1_545 S
C2731 C2733 1.415 . S
C2732 C2731 1.355 1_565 S
C2732 C2734 1.419 . S
C2733 C2728 1.425 1_545 S
C2733 C2730 1.409 . S
C2733 C2731 1.415 . S
C2734 H2724 0.930 . S
C2734 C2732 1.419 . S
C2734 C2735 1.362 . S
C2735 H2725 0.930 . S
C2735 C2728 1.409 . S
C2735 C2734 1.362 . S
H2736 C2742 0.930 . S
H2737 C2745 0.930 . S
H2738 C2746 0.930 . S
H2739 C2747 0.930 . S
H2740 C2750 0.930 . S
H2741 C2751 0.930 . S
C2742 H2736 0.930 . S
C2742 C2743 1.355 . S
C2742 C2744 1.415 . S
C2743 C2742 1.355 . S
C2743 C2745 1.419 . S
C2744 C2742 1.415 . S
C2744 C2749 1.425 . S
C2744 C2751 1.409 1_554 S
C2745 H2737 0.930 . S
C2745 C2743 1.419 . S
C2745 C2746 1.362 . S
C2746 H2738 0.930 . S
C2746 C2745 1.362 . S
C2746 C2749 1.409 . S
C2747 H2739 0.930 . S
C2747 C2748 1.355 . S
C2747 C2749 1.415 1_556 S
C2748 C2747 1.355 . S
C2748 C2750 1.419 . S
C2749 C2744 1.425 . S
C2749 C2746 1.409 . S
C2749 C2747 1.415 1_554 S
C2750 H2740 0.930 . S
C2750 C2748 1.419 . S
C2750 C2751 1.362 . S
C2751 H2741 0.930 . S
C2751 C2744 1.409 1_556 S
C2751 C2750 1.362 . S
H2752 C2758 0.930 . S
H2753 C2761 0.930 . S
H2754 C2762 0.930 . S
H2755 C2763 0.929 . S
H2756 C2766 0.930 1_556 S
H2757 C2767 0.930 . S
C2758 H2752 0.930 . S
C2758 C2759 1.355 1_545 S
C2758 C2760 1.415 . S
C2759 C2758 1.355 1_565 S
C2759 C2761 1.419 . S
C2760 C2758 1.415 . S
C2760 C2765 1.425 . S
C2760 C2767 1.409 . S
C2761 H2753 0.930 . S
C2761 C2759 1.419 . S
C2761 C2762 1.362 . S
C2762 H2754 0.930 . S
C2762 C2761 1.362 . S
C2762 C2765 1.409 1_565 S
C2763 H2755 0.929 . S
C2763 C2764 1.355 . S
C2763 C2765 1.415 1_556 S
C2764 C2763 1.355 . S
C2764 C2766 1.419 1_556 S
C2765 C2760 1.425 . S
C2765 C2762 1.409 1_545 S
C2765 C2763 1.415 1_554 S
C2766 H2756 0.930 1_554 S
C2766 C2764 1.419 1_554 S
C2766 C2767 1.362 . S
C2767 H2757 0.930 . S
C2767 C2760 1.409 . S
C2767 C2766 1.362 . S
H2768 C2774 0.930 . S
H2769 C2777 0.930 . S
H2770 C2778 0.930 . S
H2771 C2779 0.930 . S
H2772 C2782 0.930 . S
H2773 C2783 0.930 . S
C2774 H2768 0.930 . S
C2774 C2775 1.355 . S
C2774 C2776 1.415 . S
C2775 C2774 1.355 . S
C2775 C2777 1.419 . S
C2776 C2774 1.415 . S
C2776 C2781 1.425 . S
C2776 C2783 1.409 . S
C2777 H2769 0.930 . S
C2777 C2775 1.419 . S
C2777 C2778 1.362 . S
C2778 H2770 0.930 . S
C2778 C2777 1.362 . S
C2778 C2781 1.409 . S
C2779 H2771 0.930 . S
C2779 C2780 1.355 . S
C2779 C2781 1.415 . S
C2780 C2779 1.355 . S
C2780 C2782 1.419 . S
C2781 C2776 1.425 . S
C2781 C2778 1.409 . S
C2781 C2779 1.415 . S
C2782 H2772 0.930 . S
C2782 C2780 1.419 . S
C2782 C2783 1.362 . S
C2783 H2773 0.930 . S
C2783 C2776 1.409 . S
C2783 C2782 1.362 . S
H2784 C2790 0.930 1_545 S
H2785 C2793 0.930 . S
H2786 C2794 0.930 . S
H2787 C2795 0.930 . S
H2788 C2798 0.930 . S
H2789 C2799 0.930 . S
C2790 H2784 0.930 1_565 S
C2790 C2791 1.355 . S
C2790 C2792 1.415 1_565 S
C2791 C2790 1.355 . S
C2791 C2793 1.419 . S
C2792 C2790 1.415 1_545 S
C2792 C2797 1.425 1_545 S
C2792 C2799 1.409 . S
C2793 H2785 0.930 . S
C2793 C2791 1.419 . S
C2793 C2794 1.362 . S
C2794 H2786 0.930 . S
C2794 C2793 1.362 . S
C2794 C2797 1.409 . S
C2795 H2787 0.930 . S
C2795 C2796 1.355 1_565 S
C2795 C2797 1.415 . S
C2796 C2795 1.355 1_545 S
C2796 C2798 1.419 . S
C2797 C2792 1.425 1_565 S
C2797 C2794 1.409 . S
C2797 C2795 1.415 . S
C2798 H2788 0.930 . S
C2798 C2796 1.419 . S
C2798 C2799 1.362 . S
C2799 H2789 0.930 . S
C2799 C2792 1.409 . S
C2799 C2798 1.362 . S
H2800 C2806 0.930 . S
H2801 C2809 0.930 . S
H2802 C2810 0.930 . S
H2803 C2811 0.930 . S
H2804 C2814 0.930 . S
H2805 C2815 0.930 . S
C2806 H2800 0.930 . S
C2806 C2807 1.355 . S
C2806 C2808 1.415 . S
C2807 C2806 1.355 . S
C2807 C2809 1.419 . S
C2808 C2806 1.415 . S
C2808 C2813 1.425 . S
C2808 C2815 1.409 . S
C2809 H2801 0.930 . S
C2809 C2807 1.419 . S
C2809 C2810 1.362 . S
C2810 H2802 0.930 . S
C2810 C2809 1.362 . S
C2810 C2813 1.409 . S
C2811 H2803 0.930 . S
C2811 C2812 1.355 . S
C2811 C2813 1.415 . S
C2812 C2811 1.355 . S
C2812 C2814 1.419 . S
C2813 C2808 1.425 . S
C2813 C2810 1.409 . S
C2813 C2811 1.415 . S
C2814 H2804 0.930 . S
C2814 C2812 1.419 . S
C2814 C2815 1.362 . S
C2815 H2805 0.930 . S
C2815 C2808 1.409 . S
C2815 C2814 1.362 . S
C1287 C10 0.351 . S
C1292 C175 0.230 . S
C1303 C215 0.380 . S
C1308 C55 0.524 . S
C1319 C90 0.216 . S
C1324 C255 0.325 . S
C1335 C295 0.261 . S
C1340 C130 0.370 . S
C1351 C339 0.257 . S
C1356 C486 0.424 . S
C1367 C366 0.524 . S
C1372 C526 0.387 . S
C1383 C566 0.199 . S
C1388 C419 0.425 . S
C1399 C459 0.406 . S
C1404 C606 0.331 . S
C1415 C815 0.428 . S
C1420 C650 0.250 . S
C1431 C695 0.500 . S
C1436 C855 0.435 . S
C1447 C730 0.357 . S
C1452 C895 0.196 . S
C1463 C770 0.447 . S
C1468 C935 0.261 . S
C1479 C979 0.183 . S
C1484 C1126 0.429 . S
C1495 C1166 0.393 . S
C1500 C1006 0.523 . S
C1511 C1059 0.210 . S
C1516 C1206 0.294 . S
C1527 C1246 0.285 . S
C1532 C1099 0.439 . S
C1543 C849 2.171 . S
C1548 C18 2.151 . S
C1559 C889 1.437 . S
C1564 C49 1.451 . S
C1575 C929 2.123 . S
C1580 C98 2.080 . S
C1591 C138 1.506 . S
C1596 C809 1.526 . S
C1607 C169 1.533 . S
C1612 C778 1.508 . S
C1623 C658 2.131 . S
C1628 C209 2.165 . S
C1639 C249 1.511 . S
C1644 C689 1.438 . S
C1655 C289 2.057 . S
C1660 C738 2.017 . S
C1671 C329 2.197 . S
C1676 C1178 2.226 . S
C1687 C1218 1.496 . S
C1692 C378 1.426 . S
C1703 C1258 2.126 . S
C1708 C409 2.088 . S
C1719 C449 1.612 . S
C1724 C1138 1.624 . S
C1735 C498 1.585 . S
C1740 C1089 1.555 . S
C1751 C538 2.151 . S
C1756 C969 2.125 . S
C1767 C578 1.502 . S
C1772 C1018 1.429 . S
C1783 C618 2.094 . S
C1788 C1049 2.059 . S
C1799 C338 1.072 . S
C1804 C9 1.072 . S
C1815 C58 0.974 . S
C1820 C1009 0.974 . S
C1831 C418 1.121 . S
C1836 C89 1.121 . S
C1847 C129 1.070 . S
C1852 C1098 1.070 . S
C1863 C489 0.975 . S
C1868 C178 0.975 . S
C1879 C1169 0.920 . S
C1884 C218 0.920 . S
C1895 C258 0.934 . S
C1900 C569 0.934 . S
C1911 C298 1.007 . S
C1916 C1249 1.007 . S
C1927 C698 0.952 . S
C1932 C369 0.952 . S
C1943 C769 0.948 . S
C1948 C458 0.948 . S
C1959 C529 0.873 . S
C1964 C858 0.873 . S
C1975 C938 1.066 . S
C1980 C609 1.066 . S
C1991 C978 0.943 . S
C1996 C649 0.943 . S
C2007 C1058 1.071 . S
C2012 C729 1.071 . S
C2023 C1129 0.937 . S
C2028 C818 0.937 . S
C2039 C898 0.940 . S
C2044 C1209 0.940 . S
C2055 C19 2.221 . S
C2060 C490 2.270 . S
C2071 C1170 1.384 . S
C2076 C46 1.295 . S
C2087 C570 2.267 . S
C2092 C99 2.248 . S
C2103 C139 1.964 . S
C2108 C1250 1.982 . S
C2119 C335 0.806 . S
C2124 C166 0.720 . S
C2135 C1010 1.680 . S
C2140 C206 1.594 . S
C2151 C415 0.911 . S
C2156 C246 0.892 . S
C2167 C1095 1.046 . S
C2172 C286 0.969 . S
C2183 C179 2.268 . S
C2188 C330 2.224 . S
C2199 C859 1.357 . S
C2204 C375 1.301 . S
C2215 C259 2.288 . S
C2220 C410 2.231 . S
C2231 C450 1.920 . S
C2236 C939 1.959 . S
C2247 C6 0.830 . S
C2252 C495 0.771 . S
C2263 C699 1.672 . S
C2268 C535 1.584 . S
C2279 C575 0.910 1_556 S
C2284 C86 0.841 . S
C2295 C615 0.983 . S
C2300 C766 0.999 . S
C2311 C1130 2.268 . S
C2316 C659 2.226 . S
C2327 C530 1.396 . S
C2332 C686 1.372 . S
C2343 C739 2.220 1_556 S
C2348 C1210 2.271 . S
C2359 C610 1.987 . S
C2364 C779 1.957 . S
C2375 C806 0.820 . S
C2380 C975 0.813 . S
C2391 C846 1.627 . S
C2396 C370 1.688 . S
C2407 C1055 0.915 . S
C2412 C886 0.861 . S
C2423 C455 1.061 . S
C2428 C926 1.011 . S
C2439 C970 2.218 . S
C2444 C819 2.273 . S
C2455 C1015 1.342 . S
C2460 C219 1.404 . S
C2471 C1050 2.264 . S
C2476 C899 2.289 . S
C2487 C1090 1.932 . S
C2492 C299 1.958 . S
C2503 C646 0.822 . S
C2508 C1135 0.746 . S
C2519 C59 1.658 . S
C2524 C1175 1.579 . S
C2535 C1215 0.806 . S
C2540 C726 0.848 . S
C2551 C126 0.988 . S
C2556 C1255 1.008 . S
C2567 C170 2.287 . S
C2572 C15 2.247 . S
C2583 C210 3.108 1_554 S
C2588 C50 3.123 . S
C2599 C95 2.269 . S
C2604 C250 2.342 . S
C2615 C290 2.260 . S
C2620 C135 2.215 . S
C2631 C499 2.285 . S
C2636 C326 2.261 . S
C2647 C379 3.128 . S
C2652 C539 3.127 . S
C2663 C406 2.269 1_554 S
C2668 C579 2.342 . S
C2679 C619 2.260 . S
C2684 C446 2.236 . S
C2695 C655 2.246 . S
C2700 C810 2.304 . S
C2711 C850 3.129 . S
C2716 C690 3.134 . S
C2727 C735 2.275 . S
C2732 C890 2.344 . S
C2743 C775 2.217 . S
C2748 C930 2.245 . S
C2759 C1139 2.303 . S
C2764 C966 2.261 . S
C2775 C1179 3.120 . S
C2780 C1019 3.122 . S
C2791 C1046 2.289 . S
C2796 C1219 2.346 . S
C2807 C1259 2.261 . S
C2812 C1086 2.233 . S
