# Generated by pormake.
# Topology kfi, (4)-cn, num edge types: 1
# Building blocks:
#     Node 0, Type 0, BuildingBlock: GALJAG_clean_sbu_0, # of connection points: 4
#     Node 1, Type 0, BuildingBlock: GALJAG_clean_sbu_0, # of connection points: 4
#     Node 2, Type 0, BuildingBlock: GALJAG_clean_sbu_0, # of connection points: 4
#     Node 3, Type 0, BuildingBlock: GALJAG_clean_sbu_0, # of connection points: 4
#     Node 4, Type 0, BuildingBlock: GALJAG_clean_sbu_0, # of connection points: 4
#     Node 5, Type 0, BuildingBlock: GALJAG_clean_sbu_0, # of connection points: 4
#     Node 6, Type 0, BuildingBlock: GALJAG_clean_sbu_0, # of connection points: 4
#     Node 7, Type 0, BuildingBlock: GALJAG_clean_sbu_0, # of connection points: 4
#     Node 8, Type 0, BuildingBlock: GALJAG_clean_sbu_0, # of connection points: 4
#     Node 9, Type 0, BuildingBlock: GALJAG_clean_sbu_0, # of connection points: 4
#     Node 10, Type 0, BuildingBlock: GALJAG_clean_sbu_0, # of connection points: 4
#     Node 11, Type 0, BuildingBlock: GALJAG_clean_sbu_0, # of connection points: 4
#     Node 12, Type 0, BuildingBlock: GALJAG_clean_sbu_0, # of connection points: 4
#     Node 13, Type 0, BuildingBlock: GALJAG_clean_sbu_0, # of connection points: 4
#     Node 14, Type 0, BuildingBlock: GALJAG_clean_sbu_0, # of connection points: 4
#     Node 15, Type 0, BuildingBlock: GALJAG_clean_sbu_0, # of connection points: 4
#     Node 16, Type 0, BuildingBlock: GALJAG_clean_sbu_0, # of connection points: 4
#     Node 17, Type 0, BuildingBlock: GALJAG_clean_sbu_0, # of connection points: 4
#     Node 18, Type 0, BuildingBlock: GALJAG_clean_sbu_0, # of connection points: 4
#     Node 19, Type 0, BuildingBlock: GALJAG_clean_sbu_0, # of connection points: 4
#     Node 20, Type 0, BuildingBlock: GALJAG_clean_sbu_0, # of connection points: 4
#     Node 21, Type 0, BuildingBlock: GALJAG_clean_sbu_0, # of connection points: 4
#     Node 22, Type 0, BuildingBlock: GALJAG_clean_sbu_0, # of connection points: 4
#     Node 23, Type 0, BuildingBlock: GALJAG_clean_sbu_0, # of connection points: 4
#     Node 24, Type 0, BuildingBlock: GALJAG_clean_sbu_0, # of connection points: 4
#     Node 25, Type 0, BuildingBlock: GALJAG_clean_sbu_0, # of connection points: 4
#     Node 26, Type 0, BuildingBlock: GALJAG_clean_sbu_0, # of connection points: 4
#     Node 27, Type 0, BuildingBlock: GALJAG_clean_sbu_0, # of connection points: 4
#     Node 28, Type 0, BuildingBlock: GALJAG_clean_sbu_0, # of connection points: 4
#     Node 29, Type 0, BuildingBlock: GALJAG_clean_sbu_0, # of connection points: 4
#     Node 30, Type 0, BuildingBlock: GALJAG_clean_sbu_0, # of connection points: 4
#     Node 31, Type 0, BuildingBlock: GALJAG_clean_sbu_0, # of connection points: 4
#     Node 32, Type 0, BuildingBlock: GALJAG_clean_sbu_0, # of connection points: 4
#     Node 33, Type 0, BuildingBlock: GALJAG_clean_sbu_0, # of connection points: 4
#     Node 34, Type 0, BuildingBlock: GALJAG_clean_sbu_0, # of connection points: 4
#     Node 35, Type 0, BuildingBlock: GALJAG_clean_sbu_0, # of connection points: 4
#     Node 36, Type 0, BuildingBlock: GALJAG_clean_sbu_0, # of connection points: 4
#     Node 37, Type 0, BuildingBlock: GALJAG_clean_sbu_0, # of connection points: 4
#     Node 38, Type 0, BuildingBlock: GALJAG_clean_sbu_0, # of connection points: 4
#     Node 39, Type 0, BuildingBlock: GALJAG_clean_sbu_0, # of connection points: 4
#     Node 40, Type 0, BuildingBlock: GALJAG_clean_sbu_0, # of connection points: 4
#     Node 41, Type 0, BuildingBlock: GALJAG_clean_sbu_0, # of connection points: 4
#     Node 42, Type 0, BuildingBlock: GALJAG_clean_sbu_0, # of connection points: 4
#     Node 43, Type 0, BuildingBlock: GALJAG_clean_sbu_0, # of connection points: 4
#     Node 44, Type 0, BuildingBlock: GALJAG_clean_sbu_0, # of connection points: 4
#     Node 45, Type 0, BuildingBlock: GALJAG_clean_sbu_0, # of connection points: 4
#     Node 46, Type 0, BuildingBlock: GALJAG_clean_sbu_0, # of connection points: 4
#     Node 47, Type 0, BuildingBlock: GALJAG_clean_sbu_0, # of connection points: 4
#     Node 48, Type 0, BuildingBlock: GALJAG_clean_sbu_0, # of connection points: 4
#     Node 49, Type 0, BuildingBlock: GALJAG_clean_sbu_0, # of connection points: 4
#     Node 50, Type 0, BuildingBlock: GALJAG_clean_sbu_0, # of connection points: 4
#     Node 51, Type 0, BuildingBlock: GALJAG_clean_sbu_0, # of connection points: 4
#     Node 52, Type 0, BuildingBlock: GALJAG_clean_sbu_0, # of connection points: 4
#     Node 53, Type 0, BuildingBlock: GALJAG_clean_sbu_0, # of connection points: 4
#     Node 54, Type 0, BuildingBlock: GALJAG_clean_sbu_0, # of connection points: 4
#     Node 55, Type 0, BuildingBlock: GALJAG_clean_sbu_0, # of connection points: 4
#     Node 56, Type 0, BuildingBlock: GALJAG_clean_sbu_0, # of connection points: 4
#     Node 57, Type 0, BuildingBlock: GALJAG_clean_sbu_0, # of connection points: 4
#     Node 58, Type 0, BuildingBlock: GALJAG_clean_sbu_0, # of connection points: 4
#     Node 59, Type 0, BuildingBlock: GALJAG_clean_sbu_0, # of connection points: 4
#     Node 60, Type 0, BuildingBlock: GALJAG_clean_sbu_0, # of connection points: 4
#     Node 61, Type 0, BuildingBlock: GALJAG_clean_sbu_0, # of connection points: 4
#     Node 62, Type 0, BuildingBlock: GALJAG_clean_sbu_0, # of connection points: 4
#     Node 63, Type 0, BuildingBlock: GALJAG_clean_sbu_0, # of connection points: 4
#     Node 64, Type 0, BuildingBlock: GALJAG_clean_sbu_0, # of connection points: 4
#     Node 65, Type 0, BuildingBlock: GALJAG_clean_sbu_0, # of connection points: 4
#     Node 66, Type 0, BuildingBlock: GALJAG_clean_sbu_0, # of connection points: 4
#     Node 67, Type 0, BuildingBlock: GALJAG_clean_sbu_0, # of connection points: 4
#     Node 68, Type 0, BuildingBlock: GALJAG_clean_sbu_0, # of connection points: 4
#     Node 69, Type 0, BuildingBlock: GALJAG_clean_sbu_0, # of connection points: 4
#     Node 70, Type 0, BuildingBlock: GALJAG_clean_sbu_0, # of connection points: 4
#     Node 71, Type 0, BuildingBlock: GALJAG_clean_sbu_0, # of connection points: 4
#     Node 72, Type 0, BuildingBlock: GALJAG_clean_sbu_0, # of connection points: 4
#     Node 73, Type 0, BuildingBlock: GALJAG_clean_sbu_0, # of connection points: 4
#     Node 74, Type 0, BuildingBlock: GALJAG_clean_sbu_0, # of connection points: 4
#     Node 75, Type 0, BuildingBlock: GALJAG_clean_sbu_0, # of connection points: 4
#     Node 76, Type 0, BuildingBlock: GALJAG_clean_sbu_0, # of connection points: 4
#     Node 77, Type 0, BuildingBlock: GALJAG_clean_sbu_0, # of connection points: 4
#     Node 78, Type 0, BuildingBlock: GALJAG_clean_sbu_0, # of connection points: 4
#     Node 79, Type 0, BuildingBlock: GALJAG_clean_sbu_0, # of connection points: 4
#     Node 80, Type 0, BuildingBlock: GALJAG_clean_sbu_0, # of connection points: 4
#     Node 81, Type 0, BuildingBlock: GALJAG_clean_sbu_0, # of connection points: 4
#     Node 82, Type 0, BuildingBlock: GALJAG_clean_sbu_0, # of connection points: 4
#     Node 83, Type 0, BuildingBlock: GALJAG_clean_sbu_0, # of connection points: 4
#     Node 84, Type 0, BuildingBlock: GALJAG_clean_sbu_0, # of connection points: 4
#     Node 85, Type 0, BuildingBlock: GALJAG_clean_sbu_0, # of connection points: 4
#     Node 86, Type 0, BuildingBlock: GALJAG_clean_sbu_0, # of connection points: 4
#     Node 87, Type 0, BuildingBlock: GALJAG_clean_sbu_0, # of connection points: 4
#     Node 88, Type 0, BuildingBlock: GALJAG_clean_sbu_0, # of connection points: 4
#     Node 89, Type 0, BuildingBlock: GALJAG_clean_sbu_0, # of connection points: 4
#     Node 90, Type 0, BuildingBlock: GALJAG_clean_sbu_0, # of connection points: 4
#     Node 91, Type 0, BuildingBlock: GALJAG_clean_sbu_0, # of connection points: 4
#     Node 92, Type 0, BuildingBlock: GALJAG_clean_sbu_0, # of connection points: 4
#     Node 93, Type 0, BuildingBlock: GALJAG_clean_sbu_0, # of connection points: 4
#     Node 94, Type 0, BuildingBlock: GALJAG_clean_sbu_0, # of connection points: 4
#     Node 95, Type 0, BuildingBlock: GALJAG_clean_sbu_0, # of connection points: 4
#     Edge 96, Type (0, 0), BuildingBlock: KIFKEQ_clean_linker_1, # of connection points: 2
#     Edge 97, Type (0, 0), BuildingBlock: KIFKEQ_clean_linker_1, # of connection points: 2
#     Edge 98, Type (0, 0), BuildingBlock: KIFKEQ_clean_linker_1, # of connection points: 2
#     Edge 99, Type (0, 0), BuildingBlock: KIFKEQ_clean_linker_1, # of connection points: 2
#     Edge 100, Type (0, 0), BuildingBlock: KIFKEQ_clean_linker_1, # of connection points: 2
#     Edge 101, Type (0, 0), BuildingBlock: KIFKEQ_clean_linker_1, # of connection points: 2
#     Edge 102, Type (0, 0), BuildingBlock: KIFKEQ_clean_linker_1, # of connection points: 2
#     Edge 103, Type (0, 0), BuildingBlock: KIFKEQ_clean_linker_1, # of connection points: 2
#     Edge 104, Type (0, 0), BuildingBlock: KIFKEQ_clean_linker_1, # of connection points: 2
#     Edge 105, Type (0, 0), BuildingBlock: KIFKEQ_clean_linker_1, # of connection points: 2
#     Edge 106, Type (0, 0), BuildingBlock: KIFKEQ_clean_linker_1, # of connection points: 2
#     Edge 107, Type (0, 0), BuildingBlock: KIFKEQ_clean_linker_1, # of connection points: 2
#     Edge 108, Type (0, 0), BuildingBlock: KIFKEQ_clean_linker_1, # of connection points: 2
#     Edge 109, Type (0, 0), BuildingBlock: KIFKEQ_clean_linker_1, # of connection points: 2
#     Edge 110, Type (0, 0), BuildingBlock: KIFKEQ_clean_linker_1, # of connection points: 2
#     Edge 111, Type (0, 0), BuildingBlock: KIFKEQ_clean_linker_1, # of connection points: 2
#     Edge 112, Type (0, 0), BuildingBlock: KIFKEQ_clean_linker_1, # of connection points: 2
#     Edge 113, Type (0, 0), BuildingBlock: KIFKEQ_clean_linker_1, # of connection points: 2
#     Edge 114, Type (0, 0), BuildingBlock: KIFKEQ_clean_linker_1, # of connection points: 2
#     Edge 115, Type (0, 0), BuildingBlock: KIFKEQ_clean_linker_1, # of connection points: 2
#     Edge 116, Type (0, 0), BuildingBlock: KIFKEQ_clean_linker_1, # of connection points: 2
#     Edge 117, Type (0, 0), BuildingBlock: KIFKEQ_clean_linker_1, # of connection points: 2
#     Edge 118, Type (0, 0), BuildingBlock: KIFKEQ_clean_linker_1, # of connection points: 2
#     Edge 119, Type (0, 0), BuildingBlock: KIFKEQ_clean_linker_1, # of connection points: 2
#     Edge 120, Type (0, 0), BuildingBlock: KIFKEQ_clean_linker_1, # of connection points: 2
#     Edge 121, Type (0, 0), BuildingBlock: KIFKEQ_clean_linker_1, # of connection points: 2
#     Edge 122, Type (0, 0), BuildingBlock: KIFKEQ_clean_linker_1, # of connection points: 2
#     Edge 123, Type (0, 0), BuildingBlock: KIFKEQ_clean_linker_1, # of connection points: 2
#     Edge 124, Type (0, 0), BuildingBlock: KIFKEQ_clean_linker_1, # of connection points: 2
#     Edge 125, Type (0, 0), BuildingBlock: KIFKEQ_clean_linker_1, # of connection points: 2
#     Edge 126, Type (0, 0), BuildingBlock: KIFKEQ_clean_linker_1, # of connection points: 2
#     Edge 127, Type (0, 0), BuildingBlock: KIFKEQ_clean_linker_1, # of connection points: 2
#     Edge 128, Type (0, 0), BuildingBlock: KIFKEQ_clean_linker_1, # of connection points: 2
#     Edge 129, Type (0, 0), BuildingBlock: KIFKEQ_clean_linker_1, # of connection points: 2
#     Edge 130, Type (0, 0), BuildingBlock: KIFKEQ_clean_linker_1, # of connection points: 2
#     Edge 131, Type (0, 0), BuildingBlock: KIFKEQ_clean_linker_1, # of connection points: 2
#     Edge 132, Type (0, 0), BuildingBlock: KIFKEQ_clean_linker_1, # of connection points: 2
#     Edge 133, Type (0, 0), BuildingBlock: KIFKEQ_clean_linker_1, # of connection points: 2
#     Edge 134, Type (0, 0), BuildingBlock: KIFKEQ_clean_linker_1, # of connection points: 2
#     Edge 135, Type (0, 0), BuildingBlock: KIFKEQ_clean_linker_1, # of connection points: 2
#     Edge 136, Type (0, 0), BuildingBlock: KIFKEQ_clean_linker_1, # of connection points: 2
#     Edge 137, Type (0, 0), BuildingBlock: KIFKEQ_clean_linker_1, # of connection points: 2
#     Edge 138, Type (0, 0), BuildingBlock: KIFKEQ_clean_linker_1, # of connection points: 2
#     Edge 139, Type (0, 0), BuildingBlock: KIFKEQ_clean_linker_1, # of connection points: 2
#     Edge 140, Type (0, 0), BuildingBlock: KIFKEQ_clean_linker_1, # of connection points: 2
#     Edge 141, Type (0, 0), BuildingBlock: KIFKEQ_clean_linker_1, # of connection points: 2
#     Edge 142, Type (0, 0), BuildingBlock: KIFKEQ_clean_linker_1, # of connection points: 2
#     Edge 143, Type (0, 0), BuildingBlock: KIFKEQ_clean_linker_1, # of connection points: 2
#     Edge 144, Type (0, 0), BuildingBlock: KIFKEQ_clean_linker_1, # of connection points: 2
#     Edge 145, Type (0, 0), BuildingBlock: KIFKEQ_clean_linker_1, # of connection points: 2
#     Edge 146, Type (0, 0), BuildingBlock: KIFKEQ_clean_linker_1, # of connection points: 2
#     Edge 147, Type (0, 0), BuildingBlock: KIFKEQ_clean_linker_1, # of connection points: 2
#     Edge 148, Type (0, 0), BuildingBlock: KIFKEQ_clean_linker_1, # of connection points: 2
#     Edge 149, Type (0, 0), BuildingBlock: KIFKEQ_clean_linker_1, # of connection points: 2
#     Edge 150, Type (0, 0), BuildingBlock: KIFKEQ_clean_linker_1, # of connection points: 2
#     Edge 151, Type (0, 0), BuildingBlock: KIFKEQ_clean_linker_1, # of connection points: 2
#     Edge 152, Type (0, 0), BuildingBlock: KIFKEQ_clean_linker_1, # of connection points: 2
#     Edge 153, Type (0, 0), BuildingBlock: KIFKEQ_clean_linker_1, # of connection points: 2
#     Edge 154, Type (0, 0), BuildingBlock: KIFKEQ_clean_linker_1, # of connection points: 2
#     Edge 155, Type (0, 0), BuildingBlock: KIFKEQ_clean_linker_1, # of connection points: 2
#     Edge 156, Type (0, 0), BuildingBlock: KIFKEQ_clean_linker_1, # of connection points: 2
#     Edge 157, Type (0, 0), BuildingBlock: KIFKEQ_clean_linker_1, # of connection points: 2
#     Edge 158, Type (0, 0), BuildingBlock: KIFKEQ_clean_linker_1, # of connection points: 2
#     Edge 159, Type (0, 0), BuildingBlock: KIFKEQ_clean_linker_1, # of connection points: 2
#     Edge 160, Type (0, 0), BuildingBlock: KIFKEQ_clean_linker_1, # of connection points: 2
#     Edge 161, Type (0, 0), BuildingBlock: KIFKEQ_clean_linker_1, # of connection points: 2
#     Edge 162, Type (0, 0), BuildingBlock: KIFKEQ_clean_linker_1, # of connection points: 2
#     Edge 163, Type (0, 0), BuildingBlock: KIFKEQ_clean_linker_1, # of connection points: 2
#     Edge 164, Type (0, 0), BuildingBlock: KIFKEQ_clean_linker_1, # of connection points: 2
#     Edge 165, Type (0, 0), BuildingBlock: KIFKEQ_clean_linker_1, # of connection points: 2
#     Edge 166, Type (0, 0), BuildingBlock: KIFKEQ_clean_linker_1, # of connection points: 2
#     Edge 167, Type (0, 0), BuildingBlock: KIFKEQ_clean_linker_1, # of connection points: 2
#     Edge 168, Type (0, 0), BuildingBlock: KIFKEQ_clean_linker_1, # of connection points: 2
#     Edge 169, Type (0, 0), BuildingBlock: KIFKEQ_clean_linker_1, # of connection points: 2
#     Edge 170, Type (0, 0), BuildingBlock: KIFKEQ_clean_linker_1, # of connection points: 2
#     Edge 171, Type (0, 0), BuildingBlock: KIFKEQ_clean_linker_1, # of connection points: 2
#     Edge 172, Type (0, 0), BuildingBlock: KIFKEQ_clean_linker_1, # of connection points: 2
#     Edge 173, Type (0, 0), BuildingBlock: KIFKEQ_clean_linker_1, # of connection points: 2
#     Edge 174, Type (0, 0), BuildingBlock: KIFKEQ_clean_linker_1, # of connection points: 2
#     Edge 175, Type (0, 0), BuildingBlock: KIFKEQ_clean_linker_1, # of connection points: 2
#     Edge 176, Type (0, 0), BuildingBlock: KIFKEQ_clean_linker_1, # of connection points: 2
#     Edge 177, Type (0, 0), BuildingBlock: KIFKEQ_clean_linker_1, # of connection points: 2
#     Edge 178, Type (0, 0), BuildingBlock: KIFKEQ_clean_linker_1, # of connection points: 2
#     Edge 179, Type (0, 0), BuildingBlock: KIFKEQ_clean_linker_1, # of connection points: 2
#     Edge 180, Type (0, 0), BuildingBlock: KIFKEQ_clean_linker_1, # of connection points: 2
#     Edge 181, Type (0, 0), BuildingBlock: KIFKEQ_clean_linker_1, # of connection points: 2
#     Edge 182, Type (0, 0), BuildingBlock: KIFKEQ_clean_linker_1, # of connection points: 2
#     Edge 183, Type (0, 0), BuildingBlock: KIFKEQ_clean_linker_1, # of connection points: 2
#     Edge 184, Type (0, 0), BuildingBlock: KIFKEQ_clean_linker_1, # of connection points: 2
#     Edge 185, Type (0, 0), BuildingBlock: KIFKEQ_clean_linker_1, # of connection points: 2
#     Edge 186, Type (0, 0), BuildingBlock: KIFKEQ_clean_linker_1, # of connection points: 2
#     Edge 187, Type (0, 0), BuildingBlock: KIFKEQ_clean_linker_1, # of connection points: 2
#     Edge 188, Type (0, 0), BuildingBlock: KIFKEQ_clean_linker_1, # of connection points: 2
#     Edge 189, Type (0, 0), BuildingBlock: KIFKEQ_clean_linker_1, # of connection points: 2
#     Edge 190, Type (0, 0), BuildingBlock: KIFKEQ_clean_linker_1, # of connection points: 2
#     Edge 191, Type (0, 0), BuildingBlock: KIFKEQ_clean_linker_1, # of connection points: 2
#     Edge 192, Type (0, 0), BuildingBlock: KIFKEQ_clean_linker_1, # of connection points: 2
#     Edge 193, Type (0, 0), BuildingBlock: KIFKEQ_clean_linker_1, # of connection points: 2
#     Edge 194, Type (0, 0), BuildingBlock: KIFKEQ_clean_linker_1, # of connection points: 2
#     Edge 195, Type (0, 0), BuildingBlock: KIFKEQ_clean_linker_1, # of connection points: 2
#     Edge 196, Type (0, 0), BuildingBlock: KIFKEQ_clean_linker_1, # of connection points: 2
#     Edge 197, Type (0, 0), BuildingBlock: KIFKEQ_clean_linker_1, # of connection points: 2
#     Edge 198, Type (0, 0), BuildingBlock: KIFKEQ_clean_linker_1, # of connection points: 2
#     Edge 199, Type (0, 0), BuildingBlock: KIFKEQ_clean_linker_1, # of connection points: 2
#     Edge 200, Type (0, 0), BuildingBlock: KIFKEQ_clean_linker_1, # of connection points: 2
#     Edge 201, Type (0, 0), BuildingBlock: KIFKEQ_clean_linker_1, # of connection points: 2
#     Edge 202, Type (0, 0), BuildingBlock: KIFKEQ_clean_linker_1, # of connection points: 2
#     Edge 203, Type (0, 0), BuildingBlock: KIFKEQ_clean_linker_1, # of connection points: 2
#     Edge 204, Type (0, 0), BuildingBlock: KIFKEQ_clean_linker_1, # of connection points: 2
#     Edge 205, Type (0, 0), BuildingBlock: KIFKEQ_clean_linker_1, # of connection points: 2
#     Edge 206, Type (0, 0), BuildingBlock: KIFKEQ_clean_linker_1, # of connection points: 2
#     Edge 207, Type (0, 0), BuildingBlock: KIFKEQ_clean_linker_1, # of connection points: 2
#     Edge 208, Type (0, 0), BuildingBlock: KIFKEQ_clean_linker_1, # of connection points: 2
#     Edge 209, Type (0, 0), BuildingBlock: KIFKEQ_clean_linker_1, # of connection points: 2
#     Edge 210, Type (0, 0), BuildingBlock: KIFKEQ_clean_linker_1, # of connection points: 2
#     Edge 211, Type (0, 0), BuildingBlock: KIFKEQ_clean_linker_1, # of connection points: 2
#     Edge 212, Type (0, 0), BuildingBlock: KIFKEQ_clean_linker_1, # of connection points: 2
#     Edge 213, Type (0, 0), BuildingBlock: KIFKEQ_clean_linker_1, # of connection points: 2
#     Edge 214, Type (0, 0), BuildingBlock: KIFKEQ_clean_linker_1, # of connection points: 2
#     Edge 215, Type (0, 0), BuildingBlock: KIFKEQ_clean_linker_1, # of connection points: 2
#     Edge 216, Type (0, 0), BuildingBlock: KIFKEQ_clean_linker_1, # of connection points: 2
#     Edge 217, Type (0, 0), BuildingBlock: KIFKEQ_clean_linker_1, # of connection points: 2
#     Edge 218, Type (0, 0), BuildingBlock: KIFKEQ_clean_linker_1, # of connection points: 2
#     Edge 219, Type (0, 0), BuildingBlock: KIFKEQ_clean_linker_1, # of connection points: 2
#     Edge 220, Type (0, 0), BuildingBlock: KIFKEQ_clean_linker_1, # of connection points: 2
#     Edge 221, Type (0, 0), BuildingBlock: KIFKEQ_clean_linker_1, # of connection points: 2
#     Edge 222, Type (0, 0), BuildingBlock: KIFKEQ_clean_linker_1, # of connection points: 2
#     Edge 223, Type (0, 0), BuildingBlock: KIFKEQ_clean_linker_1, # of connection points: 2
#     Edge 224, Type (0, 0), BuildingBlock: KIFKEQ_clean_linker_1, # of connection points: 2
#     Edge 225, Type (0, 0), BuildingBlock: KIFKEQ_clean_linker_1, # of connection points: 2
#     Edge 226, Type (0, 0), BuildingBlock: KIFKEQ_clean_linker_1, # of connection points: 2
#     Edge 227, Type (0, 0), BuildingBlock: KIFKEQ_clean_linker_1, # of connection points: 2
#     Edge 228, Type (0, 0), BuildingBlock: KIFKEQ_clean_linker_1, # of connection points: 2
#     Edge 229, Type (0, 0), BuildingBlock: KIFKEQ_clean_linker_1, # of connection points: 2
#     Edge 230, Type (0, 0), BuildingBlock: KIFKEQ_clean_linker_1, # of connection points: 2
#     Edge 231, Type (0, 0), BuildingBlock: KIFKEQ_clean_linker_1, # of connection points: 2
#     Edge 232, Type (0, 0), BuildingBlock: KIFKEQ_clean_linker_1, # of connection points: 2
#     Edge 233, Type (0, 0), BuildingBlock: KIFKEQ_clean_linker_1, # of connection points: 2
#     Edge 234, Type (0, 0), BuildingBlock: KIFKEQ_clean_linker_1, # of connection points: 2
#     Edge 235, Type (0, 0), BuildingBlock: KIFKEQ_clean_linker_1, # of connection points: 2
#     Edge 236, Type (0, 0), BuildingBlock: KIFKEQ_clean_linker_1, # of connection points: 2
#     Edge 237, Type (0, 0), BuildingBlock: KIFKEQ_clean_linker_1, # of connection points: 2
#     Edge 238, Type (0, 0), BuildingBlock: KIFKEQ_clean_linker_1, # of connection points: 2
#     Edge 239, Type (0, 0), BuildingBlock: KIFKEQ_clean_linker_1, # of connection points: 2
#     Edge 240, Type (0, 0), BuildingBlock: KIFKEQ_clean_linker_1, # of connection points: 2
#     Edge 241, Type (0, 0), BuildingBlock: KIFKEQ_clean_linker_1, # of connection points: 2
#     Edge 242, Type (0, 0), BuildingBlock: KIFKEQ_clean_linker_1, # of connection points: 2
#     Edge 243, Type (0, 0), BuildingBlock: KIFKEQ_clean_linker_1, # of connection points: 2
#     Edge 244, Type (0, 0), BuildingBlock: KIFKEQ_clean_linker_1, # of connection points: 2
#     Edge 245, Type (0, 0), BuildingBlock: KIFKEQ_clean_linker_1, # of connection points: 2
#     Edge 246, Type (0, 0), BuildingBlock: KIFKEQ_clean_linker_1, # of connection points: 2
#     Edge 247, Type (0, 0), BuildingBlock: KIFKEQ_clean_linker_1, # of connection points: 2
#     Edge 248, Type (0, 0), BuildingBlock: KIFKEQ_clean_linker_1, # of connection points: 2
#     Edge 249, Type (0, 0), BuildingBlock: KIFKEQ_clean_linker_1, # of connection points: 2
#     Edge 250, Type (0, 0), BuildingBlock: KIFKEQ_clean_linker_1, # of connection points: 2
#     Edge 251, Type (0, 0), BuildingBlock: KIFKEQ_clean_linker_1, # of connection points: 2
#     Edge 252, Type (0, 0), BuildingBlock: KIFKEQ_clean_linker_1, # of connection points: 2
#     Edge 253, Type (0, 0), BuildingBlock: KIFKEQ_clean_linker_1, # of connection points: 2
#     Edge 254, Type (0, 0), BuildingBlock: KIFKEQ_clean_linker_1, # of connection points: 2
#     Edge 255, Type (0, 0), BuildingBlock: KIFKEQ_clean_linker_1, # of connection points: 2
#     Edge 256, Type (0, 0), BuildingBlock: KIFKEQ_clean_linker_1, # of connection points: 2
#     Edge 257, Type (0, 0), BuildingBlock: KIFKEQ_clean_linker_1, # of connection points: 2
#     Edge 258, Type (0, 0), BuildingBlock: KIFKEQ_clean_linker_1, # of connection points: 2
#     Edge 259, Type (0, 0), BuildingBlock: KIFKEQ_clean_linker_1, # of connection points: 2
#     Edge 260, Type (0, 0), BuildingBlock: KIFKEQ_clean_linker_1, # of connection points: 2
#     Edge 261, Type (0, 0), BuildingBlock: KIFKEQ_clean_linker_1, # of connection points: 2
#     Edge 262, Type (0, 0), BuildingBlock: KIFKEQ_clean_linker_1, # of connection points: 2
#     Edge 263, Type (0, 0), BuildingBlock: KIFKEQ_clean_linker_1, # of connection points: 2
#     Edge 264, Type (0, 0), BuildingBlock: KIFKEQ_clean_linker_1, # of connection points: 2
#     Edge 265, Type (0, 0), BuildingBlock: KIFKEQ_clean_linker_1, # of connection points: 2
#     Edge 266, Type (0, 0), BuildingBlock: KIFKEQ_clean_linker_1, # of connection points: 2
#     Edge 267, Type (0, 0), BuildingBlock: KIFKEQ_clean_linker_1, # of connection points: 2
#     Edge 268, Type (0, 0), BuildingBlock: KIFKEQ_clean_linker_1, # of connection points: 2
#     Edge 269, Type (0, 0), BuildingBlock: KIFKEQ_clean_linker_1, # of connection points: 2
#     Edge 270, Type (0, 0), BuildingBlock: KIFKEQ_clean_linker_1, # of connection points: 2
#     Edge 271, Type (0, 0), BuildingBlock: KIFKEQ_clean_linker_1, # of connection points: 2
#     Edge 272, Type (0, 0), BuildingBlock: KIFKEQ_clean_linker_1, # of connection points: 2
#     Edge 273, Type (0, 0), BuildingBlock: KIFKEQ_clean_linker_1, # of connection points: 2
#     Edge 274, Type (0, 0), BuildingBlock: KIFKEQ_clean_linker_1, # of connection points: 2
#     Edge 275, Type (0, 0), BuildingBlock: KIFKEQ_clean_linker_1, # of connection points: 2
#     Edge 276, Type (0, 0), BuildingBlock: KIFKEQ_clean_linker_1, # of connection points: 2
#     Edge 277, Type (0, 0), BuildingBlock: KIFKEQ_clean_linker_1, # of connection points: 2
#     Edge 278, Type (0, 0), BuildingBlock: KIFKEQ_clean_linker_1, # of connection points: 2
#     Edge 279, Type (0, 0), BuildingBlock: KIFKEQ_clean_linker_1, # of connection points: 2
#     Edge 280, Type (0, 0), BuildingBlock: KIFKEQ_clean_linker_1, # of connection points: 2
#     Edge 281, Type (0, 0), BuildingBlock: KIFKEQ_clean_linker_1, # of connection points: 2
#     Edge 282, Type (0, 0), BuildingBlock: KIFKEQ_clean_linker_1, # of connection points: 2
#     Edge 283, Type (0, 0), BuildingBlock: KIFKEQ_clean_linker_1, # of connection points: 2
#     Edge 284, Type (0, 0), BuildingBlock: KIFKEQ_clean_linker_1, # of connection points: 2
#     Edge 285, Type (0, 0), BuildingBlock: KIFKEQ_clean_linker_1, # of connection points: 2
#     Edge 286, Type (0, 0), BuildingBlock: KIFKEQ_clean_linker_1, # of connection points: 2
#     Edge 287, Type (0, 0), BuildingBlock: KIFKEQ_clean_linker_1, # of connection points: 2
# Relax obj value: 0.145
# Max RMSD: 0.099
# Mean RMSD: 0.099
data_MOF--net-kfi--node1-GALJAG_clean_sbu_0--edge1-KIFKEQ_clean_linker_1
_symmetry_space_group_name_H-M    P1
_symmetry_Int_Tables_number       1
_symmetry_cell_setting            triclinic
loop_
_symmetry_equiv_pos_as_xyz
'x, y, z'
_cell_length_a     91.451393
_cell_length_b     91.466145
_cell_length_c     91.459507
_cell_angle_alpha  90.000702
_cell_angle_beta   90.001461
_cell_angle_gamma 90.003466
loop_
_atom_site_label
_atom_site_type_symbol
_atom_site_fract_x
_atom_site_fract_y
_atom_site_fract_z
_atom_type_partial_charge
In0 In 0.08325 0.20144 0.31974 0.0
O1 O 0.09354 0.18173 0.30821 0.0
O2 O 0.09702 0.18397 0.33102 0.0
C3 C 0.0807 0.21712 0.29481 0.0
C4 C 0.09766 0.22006 0.33766 0.0
C5 C 0.05533 0.1943 0.32624 0.0
O6 O 0.09185 0.2095 0.29765 0.0
O7 O 0.07081 0.21662 0.3044 0.0
O8 O 0.06172 0.20527 0.33162 0.0
O9 O 0.06315 0.18666 0.31782 0.0
C10 C 0.0995 0.1767 0.31959 0.0
O11 O 0.0888 0.21062 0.34243 0.0
O12 O 0.09919 0.22008 0.32397 0.0
In13 In 0.7992 0.08316 0.31988 0.0
O14 O 0.7851 0.08573 0.34038 0.0
O15 O 0.78929 0.10465 0.32756 0.0
C16 C 0.80751 0.05502 0.32373 0.0
C17 C 0.82453 0.09833 0.3185 0.0
C18 C 0.77975 0.08135 0.29771 0.0
O19 O 0.80342 0.06299 0.33421 0.0
O20 O 0.8077 0.06133 0.3115 0.0
O21 O 0.79254 0.08623 0.29598 0.0
O22 O 0.77679 0.07744 0.31059 0.0
C23 C 0.78311 0.09928 0.33866 0.0
O24 O 0.81648 0.09621 0.30752 0.0
O25 O 0.81996 0.09257 0.33018 0.0
In26 In 0.91613 0.7987 0.32076 0.0
O27 O 0.90355 0.81667 0.30907 0.0
O28 O 0.90773 0.81955 0.33175 0.0
C29 C 0.91789 0.77984 0.29801 0.0
C30 C 0.90012 0.78253 0.33968 0.0
C31 C 0.94421 0.80699 0.32453 0.0
O32 O 0.90936 0.79066 0.29803 0.0
O33 O 0.92557 0.7786 0.30937 0.0
O34 O 0.93725 0.79974 0.33398 0.0
O35 O 0.93689 0.81039 0.31333 0.0
C36 C 0.90188 0.82453 0.32028 0.0
O37 O 0.91356 0.78495 0.34158 0.0
O38 O 0.8948 0.78836 0.3284 0.0
In39 In 0.19911 0.9173 0.31893 0.0
O40 O 0.21366 0.91488 0.3391 0.0
O41 O 0.20784 0.89561 0.32747 0.0
C42 C 0.1915 0.94568 0.32253 0.0
C43 C 0.1734 0.90283 0.31742 0.0
C44 C 0.21896 0.91786 0.29706 0.0
O45 O 0.19496 0.93757 0.33312 0.0
O46 O 0.19155 0.9394 0.31028 0.0
O47 O 0.2061 0.91321 0.29524 0.0
O48 O 0.22175 0.92223 0.30983 0.0
C49 C 0.21477 0.90116 0.33804 0.0
O50 O 0.18144 0.90497 0.30642 0.0
O51 O 0.17817 0.90826 0.32917 0.0
In52 In 0.08364 0.8002 0.68031 0.0
O53 O 0.0853 0.78498 0.66044 0.0
O54 O 0.10483 0.79048 0.67172 0.0
C55 C 0.0557 0.80885 0.67633 0.0
C56 C 0.09787 0.82606 0.68121 0.0
C57 C 0.08275 0.78097 0.70274 0.0
O58 O 0.06349 0.80405 0.666 0.0
O59 O 0.06214 0.80966 0.6885 0.0
O60 O 0.09184 0.79134 0.70226 0.0
O61 O 0.07414 0.78039 0.692 0.0
C62 C 0.09899 0.7835 0.66137 0.0
O63 O 0.09426 0.81917 0.69261 0.0
O64 O 0.09392 0.82011 0.6694 0.0
In65 In 0.20143 0.08337 0.68131 0.0
O66 O 0.18731 0.10016 0.69327 0.0
O67 O 0.17793 0.08922 0.6751 0.0
C68 C 0.21873 0.0844 0.70533 0.0
C69 C 0.21705 0.09539 0.65925 0.0
C70 C 0.19479 0.05509 0.67616 0.0
O71 O 0.21188 0.07309 0.7015 0.0
O72 O 0.21671 0.09533 0.69718 0.0
O73 O 0.20198 0.06273 0.66719 0.0
O74 O 0.1907 0.06182 0.68749 0.0
C75 C 0.17638 0.09867 0.685 0.0
O76 O 0.22223 0.08565 0.66753 0.0
O77 O 0.20394 0.09873 0.66186 0.0
In78 In 0.91756 0.19962 0.68055 0.0
O79 O 0.9068 0.1806 0.6926 0.0
O80 O 0.90706 0.17995 0.66938 0.0
C81 C 0.91862 0.21851 0.70326 0.0
C82 C 0.90247 0.21688 0.66191 0.0
C83 C 0.94543 0.19076 0.67659 0.0
O84 O 0.90949 0.20818 0.70268 0.0
O85 O 0.92717 0.21923 0.69248 0.0
O86 O 0.93766 0.19551 0.66621 0.0
O87 O 0.939 0.19013 0.68877 0.0
C88 C 0.90313 0.17387 0.68112 0.0
O89 O 0.91614 0.21522 0.66095 0.0
O90 O 0.89652 0.20977 0.6721 0.0
In91 In 0.79962 0.9174 0.67959 0.0
O92 O 0.78844 0.91317 0.65753 0.0
O93 O 0.78438 0.89835 0.67496 0.0
C94 C 0.80782 0.9455 0.67554 0.0
C95 C 0.82477 0.90175 0.67998 0.0
C96 C 0.7809 0.92012 0.7022 0.0
O97 O 0.80126 0.93824 0.66581 0.0
O98 O 0.81061 0.93846 0.68705 0.0
O99 O 0.79147 0.91123 0.70236 0.0
O100 O 0.77987 0.92766 0.69069 0.0
C101 C 0.78188 0.90181 0.66185 0.0
O102 O 0.81863 0.90624 0.69147 0.0
O103 O 0.8184 0.90539 0.66832 0.0
In104 In 0.32133 0.08093 0.20121 0.0
O105 O 0.30882 0.09154 0.18236 0.0
O106 O 0.33189 0.09397 0.18274 0.0
C107 C 0.29745 0.07806 0.21837 0.0
C108 C 0.33994 0.09602 0.21857 0.0
C109 C 0.32689 0.05305 0.19316 0.0
O110 O 0.29896 0.08848 0.20944 0.0
O111 O 0.30791 0.06908 0.21855 0.0
O112 O 0.33341 0.05924 0.20362 0.0
O113 O 0.31778 0.06102 0.18655 0.0
C114 C 0.32003 0.09685 0.17634 0.0
O115 O 0.34431 0.0864 0.20969 0.0
O116 O 0.32631 0.09798 0.21864 0.0
In117 In 0.91711 0.32087 0.20192 0.0
O118 O 0.89993 0.30954 0.18782 0.0
O119 O 0.9093 0.32906 0.17957 0.0
C120 C 0.92209 0.29833 0.22027 0.0
C121 C 0.90075 0.33921 0.21831 0.0
C122 C 0.94521 0.32584 0.19432 0.0
O123 O 0.91791 0.29646 0.20724 0.0
O124 O 0.92388 0.31151 0.22393 0.0
O125 O 0.93779 0.33493 0.20157 0.0
O126 O 0.93836 0.31446 0.19064 0.0
C127 C 0.9003 0.31881 0.17764 0.0
O128 O 0.91144 0.34367 0.2108 0.0
O129 O 0.89831 0.32568 0.21736 0.0
In130 In 0.68148 0.91608 0.2005 0.0
O131 O 0.69264 0.90611 0.18038 0.0
O132 O 0.66978 0.90316 0.18264 0.0
C133 C 0.70498 0.9186 0.21818 0.0
C134 C 0.66396 0.90104 0.21891 0.0
C135 C 0.67638 0.94406 0.19256 0.0
O136 O 0.70392 0.90865 0.20866 0.0
O137 O 0.69427 0.92728 0.21867 0.0
O138 O 0.66742 0.93673 0.20006 0.0
O139 O 0.68772 0.93717 0.18879 0.0
C140 C 0.68109 0.90068 0.17519 0.0
O141 O 0.65952 0.91207 0.21188 0.0
O142 O 0.67712 0.89765 0.2166 0.0
In143 In 0.0825 0.67848 0.19958 0.0
O144 O 0.0954 0.6902 0.18184 0.0
O145 O 0.09108 0.66759 0.17875 0.0
C146 C 0.08004 0.70117 0.21841 0.0
C147 C 0.0991 0.66004 0.21566 0.0
C148 C 0.05438 0.67421 0.19166 0.0
O149 O 0.08768 0.70183 0.20696 0.0
O150 O 0.07353 0.68917 0.22026 0.0
O151 O 0.06136 0.66529 0.19953 0.0
O152 O 0.06169 0.68515 0.18749 0.0
C153 C 0.09704 0.67905 0.1739 0.0
O154 O 0.08615 0.65703 0.21199 0.0
O155 O 0.10368 0.67219 0.21108 0.0
In156 In 0.32124 0.91768 0.79907 0.0
O157 O 0.30947 0.90433 0.81646 0.0
O158 O 0.3321 0.90846 0.81969 0.0
C159 C 0.29807 0.92116 0.781 0.0
C160 C 0.3394 0.90126 0.78242 0.0
C161 C 0.32606 0.94572 0.80703 0.0
O162 O 0.29764 0.91301 0.79211 0.0
O163 O 0.3101 0.92758 0.77908 0.0
O164 O 0.33413 0.93896 0.79813 0.0
O165 O 0.31573 0.93821 0.81227 0.0
C166 C 0.3206 0.90239 0.82435 0.0
O167 O 0.34308 0.91356 0.78744 0.0
O168 O 0.32672 0.89722 0.78593 0.0
In169 In 0.08191 0.31974 0.8003 0.0
O170 O 0.08367 0.34003 0.78557 0.0
O171 O 0.1032 0.32895 0.79132 0.0
C172 C 0.05392 0.32245 0.8093 0.0
C173 C 0.09686 0.31799 0.82568 0.0
C174 C 0.08023 0.29781 0.78061 0.0
O175 O 0.06155 0.33332 0.80553 0.0
O176 O 0.06054 0.31037 0.8089 0.0
O177 O 0.08736 0.29668 0.79236 0.0
O178 O 0.07397 0.30996 0.77882 0.0
C179 C 0.09739 0.33932 0.78438 0.0
O180 O 0.09636 0.30767 0.81654 0.0
O181 O 0.08949 0.32913 0.8222 0.0
In182 In 0.67965 0.08245 0.80101 0.0
O183 O 0.658 0.08593 0.78897 0.0
O184 O 0.67417 0.10255 0.78747 0.0
C185 C 0.67514 0.05439 0.80904 0.0
C186 C 0.67991 0.09754 0.82645 0.0
C187 C 0.70221 0.08025 0.78208 0.0
O188 O 0.66545 0.06197 0.80281 0.0
O189 O 0.68693 0.06107 0.81155 0.0
O190 O 0.70248 0.08873 0.79297 0.0
O191 O 0.69063 0.07286 0.78083 0.0
C192 C 0.66157 0.09825 0.78388 0.0
O193 O 0.69144 0.09303 0.8204 0.0
O194 O 0.66829 0.09415 0.81988 0.0
In195 In 0.91765 0.67955 0.79799 0.0
O196 O 0.91348 0.65748 0.78696 0.0
O197 O 0.89625 0.67307 0.78708 0.0
C198 C 0.94589 0.67455 0.80514 0.0
C199 C 0.90232 0.6807 0.82318 0.0
C200 C 0.92086 0.70228 0.77928 0.0
O201 O 0.9389 0.66654 0.79636 0.0
O202 O 0.93857 0.68492 0.81052 0.0
O203 O 0.91789 0.70407 0.79262 0.0
O204 O 0.92226 0.68913 0.77546 0.0
C205 C 0.90055 0.66055 0.78323 0.0
O206 O 0.90213 0.69082 0.81381 0.0
O207 O 0.91042 0.67001 0.81995 0.0
In208 In 0.20043 0.32093 0.08348 0.0
O209 O 0.21583 0.34063 0.08544 0.0
O210 O 0.20844 0.33063 0.10499 0.0
C211 C 0.19198 0.32445 0.0554 0.0
C212 C 0.17463 0.31898 0.09767 0.0
C213 C 0.21991 0.29873 0.08251 0.0
O214 O 0.19587 0.33503 0.06335 0.0
O215 O 0.19199 0.3122 0.06173 0.0
O216 O 0.20819 0.29799 0.08973 0.0
O217 O 0.22176 0.3106 0.07576 0.0
C218 C 0.21614 0.34047 0.09922 0.0
O219 O 0.18357 0.3085 0.09689 0.0
O220 O 0.17854 0.33041 0.09097 0.0
In221 In 0.20048 0.68139 0.91681 0.0
O222 O 0.21628 0.66194 0.915 0.0
O223 O 0.20958 0.67238 0.89544 0.0
C224 C 0.1915 0.6771 0.94457 0.0
C225 C 0.17465 0.6826 0.90258 0.0
C226 C 0.21919 0.70422 0.91876 0.0
O227 O 0.19638 0.66686 0.93669 0.0
O228 O 0.1908 0.68937 0.9383 0.0
O229 O 0.20884 0.7039 0.90965 0.0
O230 O 0.22008 0.69309 0.92683 0.0
C231 C 0.21714 0.66245 0.90125 0.0
O232 O 0.18297 0.69353 0.90391 0.0
O233 O 0.17918 0.67112 0.90875 0.0
In234 In 0.31894 0.20128 0.91861 0.0
O235 O 0.30722 0.18307 0.90638 0.0
O236 O 0.33006 0.18064 0.90997 0.0
C237 C 0.29586 0.21968 0.92101 0.0
C238 C 0.33734 0.2178 0.90233 0.0
C239 C 0.32349 0.19265 0.94643 0.0
O240 O 0.2962 0.20938 0.91186 0.0
O241 O 0.30707 0.22064 0.92895 0.0
O242 O 0.33265 0.20022 0.9394 0.0
O243 O 0.3122 0.18914 0.9393 0.0
C244 C 0.31853 0.17541 0.90445 0.0
O245 O 0.33925 0.21577 0.91583 0.0
O246 O 0.3263 0.21144 0.89711 0.0
In247 In 0.79728 0.32108 0.91768 0.0
O248 O 0.78896 0.34384 0.91101 0.0
O249 O 0.78157 0.32541 0.89899 0.0
C250 C 0.80443 0.32662 0.9458 0.0
C251 C 0.82171 0.31949 0.90115 0.0
C252 C 0.77965 0.2979 0.92245 0.0
O253 O 0.79478 0.33377 0.93902 0.0
O254 O 0.81071 0.31691 0.9383 0.0
O255 O 0.79257 0.29647 0.91778 0.0
O256 O 0.77582 0.31092 0.92488 0.0
C257 C 0.78106 0.33906 0.90074 0.0
O258 O 0.81211 0.30959 0.90129 0.0
O259 O 0.81908 0.33017 0.90948 0.0
In260 In 0.68197 0.79982 0.91636 0.0
O261 O 0.66791 0.77906 0.91523 0.0
O262 O 0.66318 0.79624 0.90041 0.0
C263 C 0.67732 0.80769 0.9444 0.0
C264 C 0.68545 0.82482 0.90097 0.0
C265 C 0.70573 0.78221 0.9153 0.0
O266 O 0.66773 0.80118 0.93689 0.0
O267 O 0.68904 0.81046 0.93766 0.0
O268 O 0.7013 0.78815 0.92691 0.0
O269 O 0.6983 0.7853 0.9041 0.0
C270 C 0.6602 0.7835 0.90469 0.0
O271 O 0.69419 0.81421 0.9 0.0
O272 O 0.67518 0.82299 0.90998 0.0
In273 In 0.79928 0.6799 0.08142 0.0
O274 O 0.81433 0.6916 0.09744 0.0
O275 O 0.82115 0.67087 0.08952 0.0
C276 C 0.78094 0.7026 0.07698 0.0
C277 C 0.78358 0.66176 0.09862 0.0
C278 C 0.80656 0.67446 0.05332 0.0
O279 O 0.79397 0.70438 0.08119 0.0
O280 O 0.77734 0.68948 0.07481 0.0
O281 O 0.79725 0.66695 0.06018 0.0
O282 O 0.8124 0.68453 0.06071 0.0
C283 C 0.82388 0.68166 0.09767 0.0
O284 O 0.79045 0.65723 0.08753 0.0
O285 O 0.78486 0.67525 0.10106 0.0
In286 In 0.31959 0.79746 0.08294 0.0
O287 O 0.30783 0.81679 0.09364 0.0
O288 O 0.33098 0.8164 0.09463 0.0
C289 C 0.29681 0.77883 0.08063 0.0
C290 C 0.33724 0.78035 0.09929 0.0
C291 C 0.32439 0.80512 0.05475 0.0
O292 O 0.29604 0.79064 0.08775 0.0
O293 O 0.30902 0.7765 0.07464 0.0
O294 O 0.33385 0.79862 0.06237 0.0
O295 O 0.31268 0.80797 0.0614 0.0
C296 C 0.31935 0.82296 0.09802 0.0
O297 O 0.34138 0.78601 0.08739 0.0
O298 O 0.32429 0.78343 0.10294 0.0
In299 In 0.67948 0.19938 0.08273 0.0
O300 O 0.65902 0.21365 0.08512 0.0
O301 O 0.67284 0.21108 0.10362 0.0
C302 C 0.67501 0.19096 0.05479 0.0
C303 C 0.67958 0.17367 0.09731 0.0
C304 C 0.70223 0.21813 0.08082 0.0
O305 O 0.66503 0.19656 0.06251 0.0
O306 O 0.68704 0.18922 0.06132 0.0
O307 O 0.70197 0.20774 0.0899 0.0
O308 O 0.6911 0.21898 0.07274 0.0
C309 C 0.66145 0.21677 0.09835 0.0
O310 O 0.69116 0.17981 0.093 0.0
O311 O 0.66798 0.18031 0.09396 0.0
In312 In 0.91845 0.79908 0.67971 0.0
O313 O 0.90367 0.81521 0.69169 0.0
O314 O 0.90917 0.82003 0.66967 0.0
C315 C 0.92269 0.78165 0.70314 0.0
C316 C 0.90214 0.78206 0.66177 0.0
C317 C 0.9465 0.80685 0.67461 0.0
O318 O 0.91451 0.79276 0.70357 0.0
O319 O 0.92888 0.77951 0.69099 0.0
O320 O 0.93993 0.79724 0.66721 0.0
O321 O 0.93882 0.81278 0.68442 0.0
C322 C 0.90223 0.82378 0.68099 0.0
O323 O 0.91179 0.79064 0.65695 0.0
O324 O 0.9007 0.78219 0.67545 0.0
In325 In 0.20224 0.91725 0.68005 0.0
O326 O 0.2102 0.9107 0.65718 0.0
O327 O 0.21624 0.89735 0.67519 0.0
C328 C 0.19609 0.94561 0.67451 0.0
C329 C 0.17716 0.90178 0.68206 0.0
C330 C 0.22074 0.92115 0.70273 0.0
O331 O 0.20561 0.93854 0.66748 0.0
O332 O 0.18945 0.9383 0.68414 0.0
O333 O 0.20753 0.91757 0.70457 0.0
O334 O 0.22444 0.92291 0.68958 0.0
C335 C 0.21709 0.89959 0.66163 0.0
O336 O 0.18677 0.90175 0.69196 0.0
O337 O 0.18011 0.90977 0.6712 0.0
In338 In 0.08258 0.20049 0.68043 0.0
O339 O 0.09597 0.18385 0.69314 0.0
O340 O 0.09228 0.17965 0.67058 0.0
C341 C 0.07976 0.22011 0.70242 0.0
C342 C 0.09977 0.21539 0.66166 0.0
C343 C 0.05454 0.19242 0.67525 0.0
O344 O 0.08341 0.20701 0.70462 0.0
O345 O 0.07736 0.22323 0.68923 0.0
O346 O 0.06149 0.20095 0.66696 0.0
O347 O 0.06179 0.18775 0.68598 0.0
C348 C 0.09815 0.17551 0.68238 0.0
O349 O 0.08672 0.212 0.65866 0.0
O350 O 0.10419 0.21104 0.67398 0.0
In351 In 0.79836 0.0832 0.68076 0.0
O352 O 0.78655 0.08672 0.65899 0.0
O353 O 0.7888 0.10492 0.67324 0.0
C354 C 0.80557 0.05492 0.67596 0.0
C355 C 0.82363 0.09839 0.68219 0.0
C356 C 0.77912 0.08075 0.70316 0.0
O357 O 0.79729 0.06204 0.66755 0.0
O358 O 0.81044 0.06211 0.68666 0.0
O359 O 0.79251 0.08328 0.70518 0.0
O360 O 0.77552 0.07935 0.68995 0.0
C361 C 0.78394 0.10007 0.66129 0.0
O362 O 0.81404 0.09879 0.6921 0.0
O363 O 0.82059 0.09012 0.67155 0.0
In364 In 0.9182 0.20093 0.31896 0.0
O365 O 0.90175 0.18616 0.3074 0.0
O366 O 0.91037 0.17875 0.32758 0.0
C367 C 0.92326 0.21886 0.29613 0.0
C368 C 0.9019 0.21788 0.33698 0.0
C369 C 0.94617 0.19305 0.32407 0.0
O370 O 0.91595 0.20721 0.29493 0.0
O371 O 0.92818 0.22134 0.30879 0.0
O372 O 0.93878 0.2005 0.33303 0.0
O373 O 0.93936 0.18931 0.31267 0.0
C374 C 0.90184 0.17633 0.31703 0.0
O375 O 0.91183 0.20958 0.34171 0.0
O376 O 0.90019 0.21752 0.32334 0.0
In377 In 0.79977 0.91785 0.32058 0.0
O378 O 0.81943 0.90719 0.30955 0.0
O379 O 0.81842 0.90651 0.33274 0.0
C380 C 0.78162 0.91988 0.29727 0.0
C381 C 0.78282 0.90138 0.33819 0.0
C382 C 0.80767 0.94588 0.3258 0.0
O383 O 0.79348 0.91285 0.2968 0.0
O384 O 0.77906 0.92596 0.30936 0.0
O385 O 0.79925 0.93884 0.33414 0.0
O386 O 0.81236 0.9387 0.31502 0.0
C387 C 0.82528 0.90298 0.32131 0.0
O388 O 0.78645 0.91431 0.34139 0.0
O389 O 0.78788 0.89673 0.32623 0.0
In390 In 0.08195 0.79887 0.3183 0.0
O391 O 0.08385 0.78512 0.33921 0.0
O392 O 0.10333 0.7904 0.32773 0.0
C393 C 0.05358 0.80656 0.32139 0.0
C394 C 0.09712 0.82412 0.31591 0.0
C395 C 0.08058 0.77896 0.29653 0.0
O396 O 0.06164 0.80367 0.33221 0.0
O397 O 0.0599 0.80584 0.30917 0.0
O398 O 0.08336 0.79227 0.29422 0.0
O399 O 0.07846 0.77574 0.30977 0.0
C400 C 0.09758 0.7839 0.33844 0.0
O401 O 0.09823 0.8138 0.30684 0.0
O402 O 0.08812 0.82186 0.32612 0.0
In403 In 0.2023 0.08292 0.31957 0.0
O404 O 0.18686 0.09875 0.30802 0.0
O405 O 0.18116 0.09191 0.32946 0.0
C406 C 0.22006 0.07841 0.29643 0.0
C407 C 0.21904 0.09938 0.33753 0.0
C408 C 0.19439 0.05489 0.3246 0.0
O409 O 0.20757 0.08415 0.29513 0.0
O410 O 0.22342 0.07479 0.30931 0.0
O411 O 0.2038 0.06147 0.33224 0.0
O412 O 0.18874 0.06254 0.31462 0.0
C413 C 0.17792 0.09961 0.31848 0.0
O414 O 0.21133 0.08893 0.34222 0.0
O415 O 0.21809 0.10157 0.32397 0.0
In416 In 0.67931 0.91716 0.79784 0.0
O417 O 0.6923 0.90422 0.81462 0.0
O418 O 0.66955 0.90704 0.8185 0.0
C419 C 0.70176 0.92022 0.77879 0.0
C420 C 0.66049 0.8998 0.78317 0.0
C421 C 0.67387 0.94528 0.80539 0.0
O422 O 0.7036 0.91609 0.7918 0.0
O423 O 0.68868 0.92293 0.77545 0.0
O424 O 0.66689 0.93871 0.7955 0.0
O425 O 0.68343 0.93761 0.81167 0.0
C426 C 0.68151 0.90163 0.8228 0.0
O427 O 0.65683 0.91216 0.7881 0.0
O428 O 0.67353 0.89615 0.78584 0.0
In429 In 0.0836 0.67926 0.7986 0.0
O430 O 0.09421 0.69127 0.81774 0.0
O431 O 0.09413 0.66808 0.81832 0.0
C432 C 0.08307 0.70153 0.77924 0.0
C433 C 0.09943 0.6607 0.78202 0.0
C434 C 0.05522 0.67569 0.80621 0.0
O435 O 0.08928 0.70257 0.79152 0.0
O436 O 0.07711 0.68934 0.7768 0.0
O437 O 0.06316 0.66516 0.80219 0.0
O438 O 0.06168 0.68784 0.80667 0.0
C439 C 0.09788 0.67983 0.82449 0.0
O440 O 0.08603 0.65865 0.78466 0.0
O441 O 0.10482 0.67196 0.7879 0.0
In442 In 0.31992 0.08351 0.80117 0.0
O443 O 0.34171 0.08647 0.78909 0.0
O444 O 0.32543 0.10287 0.78663 0.0
C445 C 0.32394 0.05515 0.80844 0.0
C446 C 0.32035 0.09803 0.82699 0.0
C447 C 0.29665 0.08297 0.78302 0.0
O448 O 0.3338 0.06273 0.80247 0.0
O449 O 0.31222 0.06194 0.81098 0.0
O450 O 0.29778 0.09204 0.79337 0.0
O451 O 0.30718 0.07412 0.78194 0.0
C452 C 0.33807 0.09848 0.78332 0.0
O453 O 0.30881 0.09277 0.82162 0.0
O454 O 0.33168 0.09575 0.8195 0.0
In455 In 0.91659 0.31927 0.8001 0.0
O456 O 0.90407 0.3076 0.81819 0.0
O457 O 0.90643 0.33065 0.8199 0.0
C458 C 0.91836 0.29683 0.78087 0.0
C459 C 0.90034 0.33794 0.78407 0.0
C460 C 0.94467 0.3235 0.8085 0.0
O461 O 0.91256 0.29547 0.7933 0.0
O462 O 0.92336 0.30938 0.77825 0.0
O463 O 0.93766 0.33269 0.801 0.0
O464 O 0.93744 0.31233 0.81204 0.0
C465 C 0.90123 0.31906 0.82531 0.0
O466 O 0.91364 0.34027 0.78691 0.0
O467 O 0.89522 0.3263 0.78943 0.0
In468 In 0.67976 0.08162 0.20085 0.0
O469 O 0.65708 0.08778 0.20977 0.0
O470 O 0.67531 0.10036 0.21657 0.0
C471 C 0.67466 0.05336 0.19398 0.0
C472 C 0.68075 0.09667 0.17544 0.0
C473 C 0.70322 0.07854 0.21852 0.0
O474 O 0.66761 0.06009 0.20374 0.0
O475 O 0.68415 0.06096 0.18745 0.0
O476 O 0.70316 0.08711 0.2077 0.0
O477 O 0.69157 0.07135 0.22023 0.0
C478 C 0.66174 0.09825 0.21743 0.0
O479 O 0.69186 0.09459 0.18333 0.0
O480 O 0.66915 0.09093 0.18021 0.0
In481 In 0.91683 0.67997 0.20025 0.0
O482 O 0.90449 0.69222 0.18237 0.0
O483 O 0.90741 0.66933 0.17972 0.0
C484 C 0.91778 0.70188 0.22002 0.0
C485 C 0.90066 0.66118 0.21623 0.0
C486 C 0.9451 0.67656 0.19218 0.0
O487 O 0.91265 0.7036 0.20732 0.0
O488 O 0.92244 0.68918 0.22268 0.0
O489 O 0.93716 0.66591 0.19588 0.0
O490 O 0.93871 0.68875 0.19229 0.0
C491 C 0.9021 0.68102 0.17468 0.0
O492 O 0.9143 0.65967 0.21465 0.0
O493 O 0.89525 0.67202 0.20965 0.0
In494 In 0.31932 0.9164 0.19989 0.0
O495 O 0.30706 0.90337 0.18258 0.0
O496 O 0.32957 0.90777 0.17879 0.0
C497 C 0.2967 0.918 0.21885 0.0
C498 C 0.3382 0.90118 0.21687 0.0
C499 C 0.3235 0.94416 0.19081 0.0
O500 O 0.29663 0.90957 0.20793 0.0
O501 O 0.30808 0.92567 0.2201 0.0
O502 O 0.33383 0.93617 0.19528 0.0
O503 O 0.31116 0.93799 0.19054 0.0
C504 C 0.31799 0.90171 0.17433 0.0
O505 O 0.33869 0.91491 0.21577 0.0
O506 O 0.32841 0.89519 0.20927 0.0
In507 In 0.0827 0.31975 0.20098 0.0
O508 O 0.08898 0.34199 0.21049 0.0
O509 O 0.10225 0.32371 0.21591 0.0
C510 C 0.0545 0.32611 0.19466 0.0
C511 C 0.09746 0.31958 0.1754 0.0
C512 C 0.08004 0.29587 0.21821 0.0
O513 O 0.06142 0.33215 0.20492 0.0
O514 O 0.06188 0.31704 0.18736 0.0
O515 O 0.08769 0.29586 0.20671 0.0
O516 O 0.0737 0.30781 0.22086 0.0
C517 C 0.09994 0.33722 0.21739 0.0
O518 O 0.09272 0.30805 0.18131 0.0
O519 O 0.09453 0.33118 0.18226 0.0
In520 In 0.80027 0.67969 0.91599 0.0
O521 O 0.82003 0.69122 0.90605 0.0
O522 O 0.81962 0.66801 0.9054 0.0
C523 C 0.78202 0.70293 0.91601 0.0
C524 C 0.7827 0.66127 0.90102 0.0
C525 C 0.80836 0.67566 0.94409 0.0
O526 O 0.79258 0.70184 0.90721 0.0
O527 O 0.78075 0.69239 0.9248 0.0
O528 O 0.80366 0.66535 0.93621 0.0
O529 O 0.80931 0.68782 0.93767 0.0
C530 C 0.8263 0.6796 0.90204 0.0
O531 O 0.78437 0.66034 0.91469 0.0
O532 O 0.78997 0.67132 0.895 0.0
In533 In 0.79838 0.31918 0.08321 0.0
O534 O 0.78729 0.34109 0.08793 0.0
O535 O 0.78405 0.32372 0.10303 0.0
C536 C 0.80609 0.32396 0.05504 0.0
C537 C 0.82338 0.31854 0.09908 0.0
C538 C 0.77954 0.29666 0.0803 0.0
O539 O 0.79964 0.33343 0.06269 0.0
O540 O 0.80896 0.31224 0.06168 0.0
O541 O 0.79186 0.29528 0.08639 0.0
O542 O 0.77683 0.30933 0.07555 0.0
C543 C 0.78127 0.33678 0.09958 0.0
O544 O 0.81634 0.30717 0.09579 0.0
O545 O 0.818 0.33021 0.09414 0.0
In546 In 0.68051 0.799 0.08139 0.0
O547 O 0.69248 0.81684 0.09389 0.0
O548 O 0.6696 0.81948 0.09074 0.0
C549 C 0.7036 0.78077 0.07799 0.0
C550 C 0.66241 0.78242 0.09792 0.0
C551 C 0.67519 0.80743 0.05361 0.0
O552 O 0.70382 0.79146 0.08667 0.0
O553 O 0.69182 0.77933 0.07101 0.0
O554 O 0.66679 0.79904 0.06061 0.0
O555 O 0.68611 0.81194 0.06075 0.0
C556 C 0.68124 0.82449 0.09623 0.0
O557 O 0.65957 0.78567 0.08484 0.0
O558 O 0.67425 0.78759 0.10267 0.0
In559 In 0.19992 0.67854 0.08163 0.0
O560 O 0.1798 0.68967 0.09136 0.0
O561 O 0.18136 0.66657 0.0932 0.0
C562 C 0.21767 0.70216 0.07962 0.0
C563 C 0.21695 0.66052 0.09767 0.0
C564 C 0.19213 0.67338 0.05363 0.0
O565 O 0.20796 0.701 0.08934 0.0
O566 O 0.21828 0.69155 0.07087 0.0
O567 O 0.20152 0.66575 0.06027 0.0
O568 O 0.18642 0.68339 0.06123 0.0
C569 C 0.17417 0.67798 0.09606 0.0
O570 O 0.21227 0.65701 0.08516 0.0
O571 O 0.21302 0.673 0.10199 0.0
In572 In 0.31872 0.19984 0.08406 0.0
O573 O 0.33932 0.21399 0.08596 0.0
O574 O 0.32864 0.20746 0.10554 0.0
C575 C 0.32164 0.19219 0.05567 0.0
C576 C 0.31654 0.17448 0.099 0.0
C577 C 0.29722 0.22007 0.08329 0.0
O578 O 0.33249 0.19517 0.06365 0.0
O579 O 0.30946 0.19281 0.06208 0.0
O580 O 0.29475 0.20677 0.08605 0.0
O581 O 0.31045 0.22309 0.0809 0.0
C582 C 0.339 0.21448 0.09976 0.0
O583 O 0.30707 0.18447 0.0998 0.0
O584 O 0.327 0.17714 0.0904 0.0
In585 In 0.20022 0.32099 0.91809 0.0
O586 O 0.18179 0.30876 0.90654 0.0
O587 O 0.18098 0.33197 0.9066 0.0
C588 C 0.21853 0.29807 0.9214 0.0
C589 C 0.21662 0.33835 0.90076 0.0
C590 C 0.19278 0.32652 0.9462 0.0
O591 O 0.20642 0.29696 0.91487 0.0
O592 O 0.22125 0.31063 0.92638 0.0
O593 O 0.20228 0.33387 0.93944 0.0
O594 O 0.18681 0.31663 0.9387 0.0
C595 C 0.1751 0.32015 0.90258 0.0
O596 O 0.20978 0.34324 0.91172 0.0
O597 O 0.21499 0.32485 0.89849 0.0
In598 In 0.67949 0.202 0.91767 0.0
O599 O 0.69163 0.18511 0.9039 0.0
O600 O 0.66925 0.18111 0.90857 0.0
C601 C 0.70312 0.21915 0.92205 0.0
C602 C 0.66166 0.21877 0.90093 0.0
C603 C 0.67402 0.19439 0.94566 0.0
O604 O 0.70318 0.2086 0.91314 0.0
O605 O 0.69123 0.22093 0.9288 0.0
O606 O 0.66706 0.20436 0.93913 0.0
O607 O 0.68359 0.18807 0.93799 0.0
C608 C 0.68074 0.17681 0.90228 0.0
O609 O 0.65687 0.21079 0.9111 0.0
O610 O 0.6753 0.21824 0.89923 0.0
In611 In 0.32118 0.79926 0.91725 0.0
O612 O 0.30968 0.81864 0.9064 0.0
O613 O 0.33286 0.81772 0.9052 0.0
C614 C 0.2978 0.78141 0.92008 0.0
C615 C 0.33836 0.78242 0.90021 0.0
C616 C 0.32704 0.80608 0.94546 0.0
O617 O 0.29712 0.79338 0.91323 0.0
O618 O 0.31012 0.77867 0.92563 0.0
O619 O 0.33393 0.79638 0.93852 0.0
O620 O 0.31743 0.81264 0.93807 0.0
C621 C 0.32132 0.82446 0.90179 0.0
O622 O 0.34327 0.78928 0.91115 0.0
O623 O 0.3249 0.78427 0.89779 0.0
In624 In 0.58203 0.70141 0.82364 0.0
O625 O 0.59415 0.68353 0.81122 0.0
O626 O 0.59329 0.68186 0.83437 0.0
C627 C 0.57977 0.71987 0.80067 0.0
C628 C 0.59858 0.7171 0.84236 0.0
C629 C 0.55368 0.69424 0.82831 0.0
O630 O 0.58558 0.70741 0.79958 0.0
O631 O 0.57499 0.7229 0.81324 0.0
O632 O 0.56009 0.70426 0.83525 0.0
O633 O 0.56162 0.6876 0.81924 0.0
C634 C 0.59777 0.67646 0.8225 0.0
O635 O 0.58758 0.70987 0.84653 0.0
O636 O 0.60132 0.71617 0.82887 0.0
In637 In 0.29822 0.5817 0.82094 0.0
O638 O 0.28671 0.58593 0.8428 0.0
O639 O 0.28573 0.60245 0.8265 0.0
C640 C 0.30556 0.55354 0.82601 0.0
C641 C 0.32411 0.59586 0.8207 0.0
C642 C 0.27994 0.5799 0.79772 0.0
O643 O 0.29626 0.5603 0.83362 0.0
O644 O 0.3114 0.56107 0.81604 0.0
O645 O 0.29063 0.5886 0.79807 0.0
O646 O 0.27859 0.57204 0.80895 0.0
C647 C 0.28213 0.59844 0.83919 0.0
O648 O 0.31792 0.59145 0.80918 0.0
O649 O 0.31741 0.59282 0.83237 0.0
In650 In 0.41633 0.29643 0.81819 0.0
O651 O 0.40022 0.31151 0.80672 0.0
O652 O 0.40901 0.31869 0.827 0.0
C653 C 0.41947 0.27741 0.7957 0.0
C654 C 0.39952 0.28213 0.83781 0.0
C655 C 0.44465 0.30347 0.82301 0.0
O656 O 0.41673 0.29077 0.79372 0.0
O657 O 0.4207 0.27374 0.80891 0.0
O658 O 0.43781 0.29428 0.83068 0.0
O659 O 0.43712 0.30937 0.81307 0.0
C660 C 0.4005 0.3213 0.81644 0.0
O661 O 0.4123 0.28642 0.84079 0.0
O662 O 0.39524 0.2852 0.82507 0.0
In663 In 0.70052 0.41709 0.81716 0.0
O664 O 0.71186 0.41348 0.83924 0.0
O665 O 0.71314 0.3966 0.82334 0.0
C666 C 0.69279 0.44535 0.82098 0.0
C667 C 0.6755 0.40132 0.81567 0.0
C668 C 0.71986 0.42027 0.79512 0.0
O669 O 0.69788 0.43761 0.8312 0.0
O670 O 0.69132 0.43875 0.80897 0.0
O671 O 0.70693 0.41591 0.79305 0.0
O672 O 0.72295 0.42318 0.80825 0.0
C673 C 0.71666 0.40096 0.83593 0.0
O674 O 0.68505 0.40121 0.80574 0.0
O675 O 0.67841 0.4096 0.8263 0.0
In676 In 0.58198 0.29857 0.17905 0.0
O677 O 0.59474 0.31596 0.19151 0.0
O678 O 0.59112 0.31949 0.16885 0.0
C679 C 0.58038 0.27889 0.20102 0.0
C680 C 0.59851 0.28291 0.16029 0.0
C681 C 0.55374 0.3065 0.17509 0.0
O682 O 0.58487 0.29179 0.20293 0.0
O683 O 0.5767 0.27595 0.18807 0.0
O684 O 0.56172 0.30222 0.1647 0.0
O685 O 0.56009 0.30707 0.18729 0.0
C686 C 0.59678 0.32408 0.18056 0.0
O687 O 0.58493 0.28465 0.15849 0.0
O688 O 0.60371 0.28915 0.17144 0.0
In689 In 0.70108 0.58229 0.17875 0.0
O690 O 0.71096 0.58813 0.15654 0.0
O691 O 0.71599 0.60177 0.17469 0.0
C692 C 0.69386 0.55418 0.17296 0.0
C693 C 0.67603 0.59797 0.17901 0.0
C694 C 0.71907 0.57928 0.20201 0.0
O695 O 0.70371 0.56093 0.1661 0.0
O696 O 0.68739 0.56169 0.18252 0.0
O697 O 0.707 0.58593 0.20285 0.0
O698 O 0.72188 0.57404 0.18959 0.0
C699 C 0.7178 0.59915 0.16127 0.0
O700 O 0.68214 0.59352 0.19056 0.0
O701 O 0.68242 0.59433 0.16735 0.0
In702 In 0.41751 0.70031 0.18147 0.0
O703 O 0.4026 0.68415 0.19325 0.0
O704 O 0.40984 0.67844 0.172 0.0
C705 C 0.42103 0.71928 0.20374 0.0
C706 C 0.40089 0.71655 0.16311 0.0
C707 C 0.44579 0.69269 0.17767 0.0
O708 O 0.41427 0.70733 0.20517 0.0
O709 O 0.42614 0.72158 0.19112 0.0
O710 O 0.43838 0.69886 0.1678 0.0
O711 O 0.43887 0.69012 0.18932 0.0
C712 C 0.40228 0.67498 0.18299 0.0
O713 O 0.41241 0.71022 0.15893 0.0
O714 O 0.39778 0.71458 0.17637 0.0
In715 In 0.30038 0.41808 0.17944 0.0
O716 O 0.31934 0.40667 0.19088 0.0
O717 O 0.3201 0.40813 0.16772 0.0
C718 C 0.2832 0.42066 0.20342 0.0
C719 C 0.2831 0.40219 0.16141 0.0
C720 C 0.30787 0.4461 0.17414 0.0
O721 O 0.29248 0.41057 0.20199 0.0
O722 O 0.28269 0.42948 0.19286 0.0
O723 O 0.29825 0.43941 0.16685 0.0
O724 O 0.31395 0.43855 0.18398 0.0
C725 C 0.32613 0.4036 0.17928 0.0
O726 O 0.2884 0.41436 0.15771 0.0
O727 O 0.28659 0.39805 0.17407 0.0
In728 In 0.81953 0.58206 0.70062 0.0
O729 O 0.80758 0.59256 0.68136 0.0
O730 O 0.8308 0.59307 0.68131 0.0
C731 C 0.79688 0.58034 0.7195 0.0
C732 C 0.83761 0.59782 0.71784 0.0
C733 C 0.82417 0.55425 0.69182 0.0
O734 O 0.79677 0.58879 0.70859 0.0
O735 O 0.80832 0.57277 0.72078 0.0
O736 O 0.8343 0.56221 0.69679 0.0
O737 O 0.81188 0.56045 0.69098 0.0
C738 C 0.8191 0.59664 0.67494 0.0
O739 O 0.83937 0.58429 0.71575 0.0
O740 O 0.82686 0.60332 0.7112 0.0
In741 In 0.41719 0.81906 0.70069 0.0
O742 O 0.40064 0.80789 0.68591 0.0
O743 O 0.40985 0.82787 0.67842 0.0
C744 C 0.41972 0.79679 0.72006 0.0
C745 C 0.40118 0.83889 0.7156 0.0
C746 C 0.44528 0.82336 0.69245 0.0
O747 O 0.41758 0.79467 0.70662 0.0
O748 O 0.42065 0.81003 0.72366 0.0
O749 O 0.43819 0.83262 0.6998 0.0
O750 O 0.43811 0.81212 0.68897 0.0
C751 C 0.40107 0.81748 0.67601 0.0
O752 O 0.41481 0.84026 0.7138 0.0
O753 O 0.39568 0.82771 0.7097 0.0
In754 In 0.17815 0.41693 0.70076 0.0
O755 O 0.15629 0.41353 0.71263 0.0
O756 O 0.17183 0.39635 0.71324 0.0
C757 C 0.17423 0.44503 0.69257 0.0
C758 C 0.17886 0.40197 0.67528 0.0
C759 C 0.20102 0.41944 0.71938 0.0
O760 O 0.16539 0.43833 0.70078 0.0
O761 O 0.18488 0.43744 0.68818 0.0
O762 O 0.20115 0.41093 0.70854 0.0
O763 O 0.18943 0.42675 0.72077 0.0
C764 C 0.15942 0.40088 0.71712 0.0
O765 O 0.19 0.40397 0.68315 0.0
O766 O 0.16732 0.40783 0.68007 0.0
In767 In 0.58296 0.17809 0.7004 0.0
O768 O 0.58892 0.15552 0.70958 0.0
O769 O 0.59915 0.17418 0.71886 0.0
C770 C 0.55511 0.17083 0.69368 0.0
C771 C 0.59886 0.1783 0.67544 0.0
C772 C 0.58049 0.2031 0.71597 0.0
O773 O 0.56164 0.16601 0.70484 0.0
O774 O 0.56274 0.17909 0.68569 0.0
O775 O 0.59154 0.20027 0.70821 0.0
O776 O 0.57061 0.19349 0.7156 0.0
C777 C 0.59781 0.16047 0.71891 0.0
O778 O 0.5922 0.18946 0.68006 0.0
O779 O 0.59729 0.16706 0.68325 0.0
In780 In 0.8187 0.41812 0.29967 0.0
O781 O 0.84076 0.41438 0.2882 0.0
O782 O 0.82435 0.39815 0.28601 0.0
C783 C 0.82212 0.44614 0.30829 0.0
C784 C 0.81748 0.40238 0.3247 0.0
C785 C 0.79646 0.42161 0.28065 0.0
O786 O 0.83238 0.4388 0.30268 0.0
O787 O 0.81028 0.43924 0.30985 0.0
O788 O 0.7952 0.41433 0.29231 0.0
O789 O 0.8089 0.42724 0.27864 0.0
C790 C 0.83709 0.40224 0.28277 0.0
O791 O 0.80695 0.40324 0.31585 0.0
O792 O 0.82859 0.40969 0.32109 0.0
In793 In 0.58295 0.82026 0.29925 0.0
O794 O 0.58805 0.84242 0.28882 0.0
O795 O 0.60349 0.82523 0.28615 0.0
C796 C 0.55461 0.82468 0.3065 0.0
C797 C 0.59821 0.819 0.32457 0.0
C798 C 0.58021 0.79826 0.27979 0.0
O799 O 0.5622 0.83426 0.30012 0.0
O800 O 0.56139 0.81308 0.30949 0.0
O801 O 0.58519 0.79633 0.29251 0.0
O802 O 0.57653 0.81124 0.27694 0.0
C803 C 0.6001 0.83833 0.28344 0.0
O804 O 0.59565 0.80789 0.31683 0.0
O805 O 0.59285 0.83072 0.3197 0.0
In806 In 0.17986 0.5829 0.29956 0.0
O807 O 0.15963 0.58524 0.28508 0.0
O808 O 0.172 0.60436 0.28974 0.0
C809 C 0.17615 0.55466 0.30752 0.0
C810 C 0.18053 0.59749 0.32523 0.0
C811 C 0.202 0.58209 0.28003 0.0
O812 O 0.16569 0.56259 0.3033 0.0
O813 O 0.18833 0.56107 0.30803 0.0
O814 O 0.20337 0.58783 0.2925 0.0
O815 O 0.18956 0.57671 0.27751 0.0
C816 C 0.16117 0.59883 0.28322 0.0
O817 O 0.19189 0.59472 0.31792 0.0
O818 O 0.16884 0.59264 0.31975 0.0
In819 In 0.41673 0.18056 0.29829 0.0
O820 O 0.41333 0.16778 0.27697 0.0
O821 O 0.40069 0.16167 0.29541 0.0
C822 C 0.44481 0.17388 0.30484 0.0
C823 C 0.40145 0.18351 0.32336 0.0
C824 C 0.41583 0.20548 0.28235 0.0
O825 O 0.43804 0.16807 0.29433 0.0
O826 O 0.43733 0.18276 0.31225 0.0
O827 O 0.42721 0.2011 0.28876 0.0
O828 O 0.40477 0.19746 0.28422 0.0
C829 C 0.40358 0.1595 0.28212 0.0
O830 O 0.40305 0.19389 0.3144 0.0
O831 O 0.40778 0.17178 0.31979 0.0
In832 In 0.69988 0.8208 0.58263 0.0
O833 O 0.68154 0.80843 0.59429 0.0
O834 O 0.68009 0.83154 0.59357 0.0
C835 C 0.71935 0.79875 0.58043 0.0
C836 C 0.71629 0.8389 0.59917 0.0
C837 C 0.69242 0.82468 0.55425 0.0
O838 O 0.70705 0.79721 0.5865 0.0
O839 O 0.72178 0.81138 0.57542 0.0
O840 O 0.69832 0.83462 0.56176 0.0
O841 O 0.68998 0.81302 0.56114 0.0
C842 C 0.67449 0.81971 0.59787 0.0
O843 O 0.71064 0.84293 0.58722 0.0
O844 O 0.71348 0.82589 0.60279 0.0
In845 In 0.69991 0.17977 0.41705 0.0
O846 O 0.7142 0.15927 0.41473 0.0
O847 O 0.7109 0.1726 0.39599 0.0
C848 C 0.69146 0.17621 0.44511 0.0
C849 C 0.67407 0.18005 0.40273 0.0
C850 C 0.71909 0.20218 0.41833 0.0
O851 O 0.69644 0.16579 0.43754 0.0
O852 O 0.69042 0.18821 0.4384 0.0
O853 O 0.70842 0.20209 0.40958 0.0
O854 O 0.72001 0.19105 0.42641 0.0
C855 C 0.71685 0.16137 0.40134 0.0
O856 O 0.68058 0.19161 0.40653 0.0
O857 O 0.68041 0.16839 0.40645 0.0
In858 In 0.82057 0.69906 0.41875 0.0
O859 O 0.80921 0.67932 0.40856 0.0
O860 O 0.83239 0.68032 0.40729 0.0
C861 C 0.79744 0.71736 0.42111 0.0
C862 C 0.83847 0.71593 0.40244 0.0
C863 C 0.82563 0.69105 0.44671 0.0
O864 O 0.79757 0.70672 0.41233 0.0
O865 O 0.80885 0.71863 0.42871 0.0
O866 O 0.83392 0.69965 0.43981 0.0
O867 O 0.81502 0.68617 0.43938 0.0
C868 C 0.82086 0.67345 0.40407 0.0
O869 O 0.84181 0.71181 0.41519 0.0
O870 O 0.82622 0.71146 0.39795 0.0
In871 In 0.29818 0.82116 0.41673 0.0
O872 O 0.31771 0.80944 0.40655 0.0
O873 O 0.31714 0.83262 0.40522 0.0
C874 C 0.28008 0.79788 0.41931 0.0
C875 C 0.28134 0.83909 0.4004 0.0
C876 C 0.30599 0.82659 0.44469 0.0
O877 O 0.29037 0.79827 0.41014 0.0
O878 O 0.27907 0.80909 0.42724 0.0
O879 O 0.29668 0.83419 0.43793 0.0
O880 O 0.31165 0.81646 0.43724 0.0
C881 C 0.3238 0.82096 0.40204 0.0
O882 O 0.28629 0.84282 0.41273 0.0
O883 O 0.285 0.82645 0.39631 0.0
In884 In 0.17907 0.3008 0.41764 0.0
O885 O 0.19134 0.3172 0.40348 0.0
O886 O 0.16942 0.32229 0.40909 0.0
C887 C 0.20108 0.28146 0.42087 0.0
C888 C 0.16054 0.28458 0.40124 0.0
C889 C 0.17544 0.30906 0.44576 0.0
O890 O 0.20247 0.29322 0.4138 0.0
O891 O 0.18859 0.27948 0.4264 0.0
O892 O 0.16524 0.30354 0.43828 0.0
O893 O 0.1873 0.31076 0.43893 0.0
C894 C 0.18082 0.32601 0.40227 0.0
O895 O 0.15702 0.28946 0.41366 0.0
O896 O 0.17325 0.28798 0.39716 0.0
In897 In 0.29829 0.17877 0.58251 0.0
O898 O 0.31611 0.19072 0.59533 0.0
O899 O 0.31849 0.16784 0.59235 0.0
C900 C 0.28122 0.20279 0.58029 0.0
C901 C 0.28119 0.15969 0.59739 0.0
C902 C 0.30532 0.17437 0.55418 0.0
O903 O 0.29028 0.20106 0.59056 0.0
O904 O 0.2809 0.19251 0.57111 0.0
O905 O 0.29526 0.16744 0.56058 0.0
O906 O 0.31206 0.18341 0.56215 0.0
C907 C 0.32361 0.17942 0.5978 0.0
O908 O 0.28993 0.15562 0.58755 0.0
O909 O 0.28116 0.17324 0.59973 0.0
In910 In 0.82203 0.29882 0.58269 0.0
O911 O 0.81068 0.31463 0.59816 0.0
O912 O 0.83162 0.3207 0.59011 0.0
C913 C 0.79934 0.28002 0.57979 0.0
C914 C 0.84114 0.28415 0.59973 0.0
C915 C 0.82681 0.30557 0.55431 0.0
O916 O 0.79751 0.29341 0.58251 0.0
O917 O 0.8125 0.27621 0.57846 0.0
O918 O 0.83456 0.29651 0.56123 0.0
O919 O 0.81684 0.31147 0.56178 0.0
C920 C 0.82086 0.32393 0.59814 0.0
O921 O 0.84438 0.2884 0.587 0.0
O922 O 0.82841 0.28749 0.60385 0.0
In923 In 0.17864 0.70051 0.58189 0.0
O924 O 0.15692 0.7124 0.58583 0.0
O925 O 0.17309 0.71331 0.60247 0.0
C926 C 0.17314 0.69283 0.55392 0.0
C927 C 0.17927 0.67467 0.59618 0.0
C928 C 0.20189 0.71868 0.57945 0.0
O929 O 0.16535 0.70189 0.56083 0.0
O930 O 0.18349 0.68737 0.56124 0.0
O931 O 0.20116 0.70881 0.58904 0.0
O932 O 0.191 0.7193 0.57105 0.0
C933 C 0.1605 0.71707 0.59832 0.0
O934 O 0.19067 0.68097 0.59165 0.0
O935 O 0.1675 0.68123 0.5932 0.0
In936 In 0.41641 0.29909 0.17951 0.0
O937 O 0.41326 0.28632 0.15822 0.0
O938 O 0.39627 0.28557 0.17405 0.0
C939 C 0.44454 0.30608 0.17388 0.0
C940 C 0.40234 0.32503 0.1781 0.0
C941 C 0.41746 0.2824 0.20396 0.0
O942 O 0.43769 0.29644 0.16678 0.0
O943 O 0.43712 0.31239 0.18366 0.0
O944 O 0.40794 0.29219 0.20207 0.0
O945 O 0.42651 0.28119 0.19366 0.0
C946 C 0.40081 0.28145 0.16171 0.0
O947 O 0.40774 0.32011 0.1898 0.0
O948 O 0.40428 0.317 0.16706 0.0
In949 In 0.69993 0.41678 0.18033 0.0
O950 O 0.68501 0.40048 0.19189 0.0
O951 O 0.67744 0.40959 0.17197 0.0
C952 C 0.71914 0.42107 0.20227 0.0
C953 C 0.71565 0.39974 0.16206 0.0
C954 C 0.69268 0.44497 0.17549 0.0
O955 O 0.70604 0.41734 0.20455 0.0
O956 O 0.72244 0.4228 0.18899 0.0
O957 O 0.69895 0.4372 0.16596 0.0
O958 O 0.68982 0.43842 0.18728 0.0
C959 C 0.67502 0.40094 0.18242 0.0
O960 O 0.70966 0.41144 0.15783 0.0
O961 O 0.7135 0.39663 0.17532 0.0
In962 In 0.58337 0.701 0.1797 0.0
O963 O 0.59671 0.6837 0.19158 0.0
O964 O 0.59192 0.67996 0.16916 0.0
C965 C 0.58048 0.71987 0.20232 0.0
C966 C 0.60002 0.71681 0.16103 0.0
C967 C 0.55524 0.69311 0.17534 0.0
O968 O 0.5882 0.70848 0.2031 0.0
O969 O 0.57416 0.72167 0.19022 0.0
O970 O 0.56213 0.70139 0.16672 0.0
O971 O 0.56267 0.68845 0.186 0.0
C972 C 0.59824 0.6755 0.1806 0.0
O973 O 0.58719 0.71284 0.15793 0.0
O974 O 0.60445 0.71271 0.17341 0.0
In975 In 0.29939 0.58309 0.17981 0.0
O976 O 0.28413 0.58485 0.15997 0.0
O977 O 0.2899 0.60435 0.17116 0.0
C978 C 0.30811 0.5552 0.17572 0.0
C979 C 0.32537 0.59704 0.18077 0.0
C980 C 0.28025 0.5822 0.20231 0.0
O981 O 0.30316 0.56297 0.16543 0.0
O982 O 0.30895 0.56161 0.18789 0.0
O983 O 0.29059 0.59131 0.20177 0.0
O984 O 0.27962 0.57358 0.19158 0.0
C985 C 0.28283 0.59856 0.16085 0.0
O986 O 0.31847 0.59339 0.19215 0.0
O987 O 0.31933 0.59334 0.16893 0.0
In988 In 0.41632 0.6991 0.81932 0.0
O989 O 0.40203 0.68235 0.80755 0.0
O990 O 0.40821 0.67766 0.82938 0.0
C991 C 0.42005 0.71785 0.79687 0.0
C992 C 0.39965 0.71573 0.83722 0.0
C993 C 0.44447 0.6916 0.82401 0.0
O994 O 0.41311 0.70599 0.79554 0.0
O995 O 0.42523 0.72014 0.80945 0.0
O996 O 0.43676 0.69795 0.83352 0.0
O997 O 0.43789 0.68874 0.81223 0.0
C998 C 0.40121 0.67367 0.81821 0.0
O999 O 0.41139 0.70984 0.84142 0.0
O1000 O 0.39628 0.71307 0.82413 0.0
In1001 In 0.29903 0.41607 0.8187 0.0
O1002 O 0.31674 0.40341 0.80639 0.0
O1003 O 0.31895 0.40533 0.82937 0.0
C1004 C 0.27957 0.41907 0.79672 0.0
C1005 C 0.28234 0.39965 0.83665 0.0
C1006 C 0.30697 0.44425 0.82318 0.0
O1007 O 0.29199 0.41332 0.79489 0.0
O1008 O 0.27706 0.42341 0.80957 0.0
O1009 O 0.30111 0.43654 0.83299 0.0
O1010 O 0.30914 0.43766 0.81128 0.0
C1011 C 0.32407 0.40027 0.81763 0.0
O1012 O 0.28784 0.41169 0.84062 0.0
O1013 O 0.28543 0.39587 0.82375 0.0
In1014 In 0.58254 0.29857 0.8175 0.0
O1015 O 0.58663 0.28718 0.83941 0.0
O1016 O 0.60262 0.28479 0.82273 0.0
C1017 C 0.55415 0.30586 0.82171 0.0
C1018 C 0.59746 0.32416 0.81715 0.0
C1019 C 0.58071 0.27999 0.79464 0.0
O1020 O 0.56172 0.29963 0.83139 0.0
O1021 O 0.56098 0.30873 0.8101 0.0
O1022 O 0.58801 0.29169 0.79413 0.0
O1023 O 0.57433 0.27768 0.80666 0.0
C1024 C 0.59871 0.2817 0.83559 0.0
O1025 O 0.59354 0.31764 0.80567 0.0
O1026 O 0.5936 0.31796 0.82883 0.0
In1027 In 0.70023 0.58315 0.8203 0.0
O1028 O 0.71088 0.5869 0.84267 0.0
O1029 O 0.71111 0.60433 0.8273 0.0
C1030 C 0.69311 0.55475 0.82435 0.0
C1031 C 0.67522 0.59876 0.8191 0.0
C1032 C 0.71952 0.58075 0.79799 0.0
O1033 O 0.70159 0.56159 0.8328 0.0
O1034 O 0.68795 0.56231 0.81404 0.0
O1035 O 0.7062 0.58368 0.79594 0.0
O1036 O 0.723 0.57889 0.81118 0.0
C1037 C 0.71474 0.59985 0.83982 0.0
O1038 O 0.68469 0.59894 0.80907 0.0
O1039 O 0.6782 0.59041 0.82969 0.0
In1040 In 0.18116 0.41752 0.2981 0.0
O1041 O 0.19275 0.40657 0.31733 0.0
O1042 O 0.16955 0.4057 0.31672 0.0
C1043 C 0.20464 0.42059 0.28042 0.0
C1044 C 0.1637 0.40063 0.28135 0.0
C1045 C 0.17537 0.44555 0.30554 0.0
O1046 O 0.20508 0.41314 0.29204 0.0
O1047 O 0.19247 0.42654 0.27787 0.0
O1048 O 0.16844 0.43887 0.29568 0.0
O1049 O 0.18504 0.43802 0.31184 0.0
C1050 C 0.18113 0.40219 0.32333 0.0
O1051 O 0.15903 0.4118 0.288 0.0
O1052 O 0.17709 0.39795 0.28326 0.0
In1053 In 0.58239 0.17963 0.29895 0.0
O1054 O 0.58725 0.15736 0.28844 0.0
O1055 O 0.60232 0.17461 0.28493 0.0
C1056 C 0.55413 0.17522 0.30628 0.0
C1057 C 0.59721 0.18094 0.32456 0.0
C1058 C 0.57941 0.20209 0.28008 0.0
O1059 O 0.56168 0.16577 0.29964 0.0
O1060 O 0.56093 0.18678 0.30951 0.0
O1061 O 0.58717 0.20292 0.29146 0.0
O1062 O 0.57299 0.19001 0.27832 0.0
C1063 C 0.59894 0.1615 0.28243 0.0
O1064 O 0.59575 0.19177 0.31618 0.0
O1065 O 0.59096 0.16946 0.32019 0.0
In1066 In 0.81915 0.58333 0.29909 0.0
O1067 O 0.84061 0.58658 0.28651 0.0
O1068 O 0.82556 0.60419 0.28705 0.0
C1069 C 0.82359 0.55535 0.30728 0.0
C1070 C 0.81885 0.59772 0.32487 0.0
C1071 C 0.79603 0.58057 0.2808 0.0
O1072 O 0.83215 0.56212 0.29883 0.0
O1073 O 0.81291 0.5628 0.31188 0.0
O1074 O 0.79629 0.58975 0.29108 0.0
O1075 O 0.80733 0.57278 0.27981 0.0
C1076 C 0.8377 0.59946 0.28258 0.0
O1077 O 0.80754 0.59586 0.31719 0.0
O1078 O 0.83032 0.59206 0.31969 0.0
In1079 In 0.41681 0.82093 0.29931 0.0
O1080 O 0.40126 0.80933 0.31489 0.0
O1081 O 0.40929 0.83018 0.32128 0.0
C1082 C 0.41983 0.79847 0.28027 0.0
C1083 C 0.39969 0.84015 0.28494 0.0
C1084 C 0.44517 0.82613 0.30582 0.0
O1085 O 0.41802 0.79644 0.29379 0.0
O1086 O 0.42019 0.81169 0.27648 0.0
O1087 O 0.43817 0.83352 0.29653 0.0
O1088 O 0.4378 0.8163 0.31207 0.0
C1089 C 0.40123 0.8194 0.32433 0.0
O1090 O 0.41242 0.8434 0.28922 0.0
O1091 O 0.3956 0.82738 0.28814 0.0
In1092 In 0.1806 0.58278 0.69947 0.0
O1093 O 0.1599 0.58503 0.71343 0.0
O1094 O 0.17166 0.60432 0.70808 0.0
C1095 C 0.17742 0.55439 0.69186 0.0
C1096 C 0.18232 0.59761 0.67398 0.0
C1097 C 0.20242 0.58149 0.71934 0.0
O1098 O 0.16669 0.56238 0.6952 0.0
O1099 O 0.18963 0.56078 0.69209 0.0
O1100 O 0.20464 0.58492 0.70616 0.0
O1101 O 0.18928 0.57868 0.72243 0.0
C1102 C 0.16091 0.59874 0.71466 0.0
O1103 O 0.19211 0.59822 0.68368 0.0
O1104 O 0.17176 0.58926 0.67699 0.0
In1105 In 0.41805 0.17679 0.6995 0.0
O1106 O 0.40786 0.18845 0.6798 0.0
O1107 O 0.40484 0.16555 0.68156 0.0
C1108 C 0.42103 0.20016 0.7173 0.0
C1109 C 0.40225 0.15948 0.71746 0.0
C1110 C 0.44599 0.17108 0.69167 0.0
O1111 O 0.41187 0.19982 0.70698 0.0
O1112 O 0.42874 0.18879 0.71853 0.0
O1113 O 0.43863 0.16262 0.69969 0.0
O1114 O 0.43914 0.18221 0.6873 0.0
C1115 C 0.40224 0.17706 0.67446 0.0
O1116 O 0.41289 0.15468 0.71009 0.0
O1117 O 0.39961 0.17289 0.71569 0.0
In1118 In 0.82179 0.41747 0.70003 0.0
O1119 O 0.81039 0.40717 0.68041 0.0
O1120 O 0.83358 0.40598 0.68126 0.0
C1121 C 0.79829 0.42028 0.71782 0.0
C1122 C 0.83931 0.40108 0.71725 0.0
C1123 C 0.82745 0.44527 0.69184 0.0
O1124 O 0.79877 0.41107 0.70758 0.0
O1125 O 0.80955 0.42813 0.71896 0.0
O1126 O 0.83527 0.43844 0.70092 0.0
O1127 O 0.81698 0.43795 0.68661 0.0
C1128 C 0.82202 0.4027 0.67447 0.0
O1129 O 0.84283 0.41376 0.71309 0.0
O1130 O 0.82707 0.3967 0.71264 0.0
In1131 In 0.58244 0.81781 0.70114 0.0
O1132 O 0.58422 0.83764 0.71647 0.0
O1133 O 0.60377 0.82697 0.7101 0.0
C1134 C 0.55453 0.82105 0.6921 0.0
C1135 C 0.59702 0.81639 0.67552 0.0
C1136 C 0.58063 0.79563 0.72058 0.0
O1137 O 0.56225 0.83172 0.69623 0.0
O1138 O 0.56103 0.80888 0.69215 0.0
O1139 O 0.58879 0.79505 0.70946 0.0
O1140 O 0.57343 0.8073 0.72182 0.0
C1141 C 0.59796 0.83705 0.71745 0.0
O1142 O 0.59623 0.80575 0.68427 0.0
O1143 O 0.59013 0.82767 0.67952 0.0
In1144 In 0.2989 0.18237 0.41677 0.0
O1145 O 0.28894 0.15975 0.41233 0.0
O1146 O 0.286 0.17643 0.39644 0.0
C1147 C 0.30659 0.17787 0.44491 0.0
C1148 C 0.32355 0.18521 0.40065 0.0
C1149 C 0.27919 0.20389 0.42098 0.0
O1150 O 0.30108 0.16794 0.43707 0.0
O1151 O 0.30848 0.18991 0.43846 0.0
O1152 O 0.29231 0.20644 0.41754 0.0
O1153 O 0.27609 0.19053 0.42247 0.0
C1154 C 0.28346 0.16342 0.40019 0.0
O1155 O 0.31305 0.19408 0.39993 0.0
O1156 O 0.32177 0.17496 0.4097 0.0
In1157 In 0.2989 0.81887 0.58196 0.0
O1158 O 0.31714 0.80685 0.59411 0.0
O1159 O 0.31836 0.82996 0.5931 0.0
C1160 C 0.27994 0.79645 0.57901 0.0
C1161 C 0.28165 0.83637 0.59831 0.0
C1162 C 0.30693 0.82359 0.55387 0.0
O1163 O 0.29208 0.7951 0.58547 0.0
O1164 O 0.27747 0.80904 0.57393 0.0
O1165 O 0.30084 0.83326 0.56157 0.0
O1166 O 0.30925 0.8117 0.56043 0.0
C1167 C 0.324 0.81825 0.59767 0.0
O1168 O 0.28723 0.84055 0.58639 0.0
O1169 O 0.28494 0.8235 0.60201 0.0
In1170 In 0.1799 0.29868 0.58295 0.0
O1171 O 0.19091 0.31819 0.59392 0.0
O1172 O 0.16769 0.31738 0.59412 0.0
C1173 C 0.20307 0.28038 0.58065 0.0
C1174 C 0.1622 0.28176 0.5994 0.0
C1175 C 0.17474 0.30682 0.55499 0.0
O1176 O 0.20367 0.29216 0.5878 0.0
O1177 O 0.19093 0.27798 0.57461 0.0
O1178 O 0.16641 0.29832 0.56193 0.0
O1179 O 0.1855 0.31148 0.56223 0.0
C1180 C 0.17911 0.32414 0.5979 0.0
O1181 O 0.15908 0.28535 0.58644 0.0
O1182 O 0.17414 0.28684 0.6041 0.0
In1183 In 0.7015 0.18082 0.58223 0.0
O1184 O 0.71432 0.15959 0.58577 0.0
O1185 O 0.71361 0.17487 0.6032 0.0
C1186 C 0.69302 0.17589 0.55436 0.0
C1187 C 0.67616 0.18106 0.59742 0.0
C1188 C 0.7199 0.20377 0.57896 0.0
O1189 O 0.70133 0.16734 0.56129 0.0
O1190 O 0.68867 0.18681 0.5616 0.0
O1191 O 0.70868 0.20436 0.58695 0.0
O1192 O 0.72172 0.19172 0.57255 0.0
C1193 C 0.71825 0.16274 0.5986 0.0
O1194 O 0.68377 0.19238 0.59537 0.0
O1195 O 0.68115 0.16963 0.59153 0.0
In1196 In 0.81891 0.70093 0.58387 0.0
O1197 O 0.80677 0.68367 0.5972 0.0
O1198 O 0.82912 0.67975 0.59245 0.0
C1199 C 0.79671 0.72018 0.58122 0.0
C1200 C 0.83753 0.71761 0.59972 0.0
C1201 C 0.82255 0.6924 0.55586 0.0
O1202 O 0.79605 0.70915 0.58949 0.0
O1203 O 0.80851 0.72143 0.57418 0.0
O1204 O 0.83282 0.6977 0.56341 0.0
O1205 O 0.81054 0.69115 0.56253 0.0
C1206 C 0.81764 0.67533 0.59866 0.0
O1207 O 0.84062 0.71316 0.58703 0.0
O1208 O 0.82524 0.71352 0.60437 0.0
In1209 In 0.70192 0.81902 0.41666 0.0
O1210 O 0.7133 0.841 0.41305 0.0
O1211 O 0.71212 0.82625 0.39515 0.0
C1212 C 0.69465 0.82421 0.44485 0.0
C1213 C 0.67697 0.81744 0.40099 0.0
C1214 C 0.72086 0.79644 0.41964 0.0
O1215 O 0.70336 0.83222 0.43778 0.0
O1216 O 0.68937 0.81371 0.43763 0.0
O1217 O 0.70742 0.79453 0.41724 0.0
O1218 O 0.72464 0.80963 0.42066 0.0
C1219 C 0.71647 0.83845 0.39987 0.0
O1220 O 0.68675 0.80773 0.40056 0.0
O1221 O 0.67963 0.82795 0.40954 0.0
In1222 In 0.17896 0.70166 0.41653 0.0
O1223 O 0.15814 0.71547 0.41432 0.0
O1224 O 0.17046 0.71107 0.39515 0.0
C1225 C 0.17532 0.6936 0.44473 0.0
C1226 C 0.18088 0.67644 0.40124 0.0
C1227 C 0.2012 0.721 0.4186 0.0
O1228 O 0.16476 0.69747 0.43673 0.0
O1229 O 0.18757 0.69353 0.43842 0.0
O1230 O 0.20314 0.70784 0.41495 0.0
O1231 O 0.1881 0.72435 0.42128 0.0
C1232 C 0.15948 0.71728 0.4007 0.0
O1233 O 0.19037 0.68641 0.40054 0.0
O1234 O 0.17042 0.67906 0.40985 0.0
In1235 In 0.8201 0.29868 0.41656 0.0
O1236 O 0.80802 0.31747 0.40534 0.0
O1237 O 0.83117 0.31838 0.40585 0.0
C1238 C 0.79788 0.27935 0.41829 0.0
C1239 C 0.83817 0.28224 0.40004 0.0
C1240 C 0.82428 0.30607 0.44491 0.0
O1241 O 0.79652 0.29167 0.41221 0.0
O1242 O 0.81038 0.27686 0.42357 0.0
O1243 O 0.83428 0.30065 0.43712 0.0
O1244 O 0.81234 0.30803 0.43833 0.0
C1245 C 0.81943 0.32431 0.40176 0.0
O1246 O 0.84175 0.28684 0.41256 0.0
O1247 O 0.82559 0.28607 0.39585 0.0
H1248 H 0.11548 0.24234 0.32935 0.0
H1249 H 0.09848 0.22044 0.36758 0.0
H1250 H 0.12989 0.25842 0.3449 0.0
H1251 H 0.11326 0.23633 0.38322 0.0
H1252 H 0.13225 0.27653 0.40693 0.0
H1253 H 0.11628 0.2614 0.3917 0.0
H1254 H 0.15114 0.25659 0.36015 0.0
H1255 H 0.16685 0.27192 0.37513 0.0
C1256 C 0.11484 0.24096 0.3411 0.0
C1257 C 0.10592 0.23009 0.34725 0.0
C1258 C 0.12317 0.25012 0.35001 0.0
C1259 C 0.12284 0.24858 0.36531 0.0
C1260 C 0.11367 0.23789 0.37149 0.0
C1261 C 0.10527 0.22874 0.36254 0.0
C1262 C 0.13644 0.27225 0.39672 0.0
C1263 C 0.15077 0.27545 0.39219 0.0
C1264 C 0.12733 0.26353 0.38803 0.0
C1265 C 0.1324 0.25783 0.37466 0.0
C1266 C 0.14678 0.26101 0.37024 0.0
C1267 C 0.15583 0.26973 0.37887 0.0
H1268 H 0.73327 0.13811 0.41067 0.0
H1269 H 0.72193 0.1629 0.37211 0.0
H1270 H 0.74975 0.12295 0.39604 0.0
H1271 H 0.73798 0.14759 0.35747 0.0
H1272 H 0.77925 0.12877 0.33816 0.0
H1273 H 0.76354 0.14346 0.35382 0.0
H1274 H 0.75015 0.10451 0.37699 0.0
H1275 H 0.76627 0.08984 0.36151 0.0
C1276 C 0.73422 0.14024 0.39906 0.0
C1277 C 0.72638 0.15173 0.39255 0.0
C1278 C 0.7436 0.13153 0.39066 0.0
C1279 C 0.74529 0.13412 0.37559 0.0
C1280 C 0.73721 0.14547 0.36909 0.0
C1281 C 0.72791 0.15419 0.37747 0.0
C1282 C 0.773 0.12335 0.34664 0.0
C1283 C 0.77394 0.10815 0.34857 0.0
C1284 C 0.76392 0.13175 0.35556 0.0
C1285 C 0.75546 0.12516 0.36659 0.0
C1286 C 0.75661 0.10996 0.36869 0.0
C1287 C 0.76577 0.10155 0.35979 0.0
H1288 H 0.86286 0.7309 0.4111 0.0
H1289 H 0.8355 0.72238 0.37357 0.0
H1290 H 0.87785 0.74743 0.39643 0.0
H1291 H 0.85074 0.73837 0.35876 0.0
H1292 H 0.87057 0.77926 0.33981 0.0
H1293 H 0.85596 0.76342 0.35539 0.0
H1294 H 0.89526 0.7485 0.37704 0.0
H1295 H 0.90981 0.76486 0.36176 0.0
C1296 C 0.86015 0.73246 0.39968 0.0
C1297 C 0.84798 0.72543 0.39349 0.0
C1298 C 0.86877 0.74187 0.39124 0.0
C1299 C 0.86547 0.74433 0.37641 0.0
C1300 C 0.85343 0.73702 0.37021 0.0
C1301 C 0.84475 0.72776 0.37867 0.0
C1302 C 0.87607 0.77265 0.34795 0.0
C1303 C 0.89132 0.77326 0.34955 0.0
C1304 C 0.86771 0.76347 0.35682 0.0
C1305 C 0.87442 0.75454 0.3674 0.0
C1306 C 0.88969 0.75532 0.36913 0.0
C1307 C 0.89805 0.76464 0.36033 0.0
H1308 H 0.21582 0.87149 0.34004 0.0
H1309 H 0.23444 0.91083 0.35833 0.0
H1310 H 0.23159 0.85674 0.35559 0.0
H1311 H 0.25068 0.89609 0.37353 0.0
H1312 H 0.26844 0.86483 0.40843 0.0
H1313 H 0.25182 0.8799 0.39396 0.0
H1314 H 0.25649 0.84998 0.35765 0.0
H1315 H 0.2726 0.83472 0.37231 0.0
C1316 C 0.22332 0.87698 0.34738 0.0
C1317 C 0.22392 0.8923 0.34795 0.0
C1318 C 0.23246 0.86853 0.35622 0.0
C1319 C 0.24254 0.8752 0.36574 0.0
C1320 C 0.24296 0.89057 0.36646 0.0
C1321 C 0.2337 0.89902 0.3577 0.0
C1322 C 0.2659 0.86152 0.39735 0.0
C1323 C 0.27177 0.84859 0.39151 0.0
C1324 C 0.25643 0.87018 0.38902 0.0
C1325 C 0.25272 0.86614 0.37464 0.0
C1326 C 0.25883 0.85329 0.36878 0.0
C1327 C 0.26817 0.84459 0.37714 0.0
H1328 H 0.16462 0.7251 0.62663 0.0
H1329 H 0.13473 0.73008 0.59041 0.0
H1330 H 0.14931 0.74093 0.64152 0.0
H1331 H 0.11958 0.74642 0.60517 0.0
H1332 H 0.08885 0.76391 0.64114 0.0
H1333 H 0.1033 0.74751 0.62576 0.0
H1334 H 0.143 0.76596 0.6436 0.0
H1335 H 0.12858 0.78188 0.65925 0.0
C1336 C 0.15479 0.72965 0.62183 0.0
C1337 C 0.15089 0.7264 0.60735 0.0
C1338 C 0.14605 0.73882 0.63033 0.0
C1339 C 0.13327 0.7451 0.62452 0.0
C1340 C 0.12927 0.74167 0.61005 0.0
C1341 C 0.13798 0.73237 0.60157 0.0
C1342 C 0.10066 0.76445 0.64171 0.0
C1343 C 0.10759 0.7741 0.65145 0.0
C1344 C 0.10895 0.75511 0.63286 0.0
C1345 C 0.12433 0.75531 0.63351 0.0
C1346 C 0.13119 0.76525 0.64304 0.0
C1347 C 0.12292 0.77447 0.65194 0.0
H1348 H 0.2602 0.16667 0.61723 0.0
H1349 H 0.28059 0.12978 0.59591 0.0
H1350 H 0.24441 0.15013 0.63085 0.0
H1351 H 0.26463 0.11314 0.60956 0.0
H1352 H 0.24557 0.09041 0.65174 0.0
H1353 H 0.26092 0.1053 0.63567 0.0
H1354 H 0.22392 0.13302 0.62608 0.0
H1355 H 0.20863 0.11825 0.64216 0.0
C1356 C 0.26127 0.15501 0.61542 0.0
C1357 C 0.27163 0.14951 0.60551 0.0
C1358 C 0.25215 0.14554 0.62315 0.0
C1359 C 0.25322 0.13034 0.6212 0.0
C1360 C 0.26362 0.12481 0.61133 0.0
C1361 C 0.2727 0.13432 0.60349 0.0
C1362 C 0.24069 0.09957 0.64604 0.0
C1363 C 0.22594 0.10323 0.64828 0.0
C1364 C 0.24946 0.10806 0.63681 0.0
C1365 C 0.24365 0.12041 0.62974 0.0
C1366 C 0.22875 0.1237 0.63156 0.0
C1367 C 0.21998 0.11519 0.6407 0.0
H1368 H 0.83751 0.27667 0.62826 0.0
H1369 H 0.86711 0.27157 0.59183 0.0
H1370 H 0.85293 0.26087 0.64307 0.0
H1371 H 0.88237 0.25528 0.60652 0.0
H1372 H 0.91294 0.23674 0.6421 0.0
H1373 H 0.89874 0.25374 0.62712 0.0
H1374 H 0.85876 0.23559 0.64464 0.0
H1375 H 0.87293 0.21906 0.65988 0.0
C1376 C 0.84733 0.27215 0.62342 0.0
C1377 C 0.85107 0.27529 0.60887 0.0
C1378 C 0.85613 0.26299 0.63187 0.0
C1379 C 0.86881 0.25662 0.62594 0.0
C1380 C 0.87275 0.26007 0.61147 0.0
C1381 C 0.86398 0.26936 0.60303 0.0
C1382 C 0.90111 0.2364 0.64269 0.0
C1383 C 0.89403 0.22665 0.65221 0.0
C1384 C 0.89297 0.24609 0.63407 0.0
C1385 C 0.8776 0.24615 0.63476 0.0
C1386 C 0.87058 0.23612 0.64407 0.0
C1387 C 0.8787 0.22654 0.65274 0.0
H1388 H 0.76379 0.87982 0.67026 0.0
H1389 H 0.7776 0.90428 0.63231 0.0
H1390 H 0.74759 0.86524 0.65507 0.0
H1391 H 0.76173 0.88927 0.61689 0.0
H1392 H 0.72125 0.86824 0.59584 0.0
H1393 H 0.73678 0.88391 0.61092 0.0
H1394 H 0.74864 0.84654 0.63732 0.0
H1395 H 0.73275 0.83111 0.62264 0.0
C1396 C 0.76342 0.88201 0.65862 0.0
C1397 C 0.772 0.89314 0.65246 0.0
C1398 C 0.75419 0.87358 0.64988 0.0
C1399 C 0.75342 0.87596 0.6347 0.0
C1400 C 0.76192 0.88723 0.62855 0.0
C1401 C 0.77108 0.89577 0.63736 0.0
C1402 C 0.72716 0.86343 0.60491 0.0
C1403 C 0.72572 0.84848 0.60813 0.0
C1404 C 0.73614 0.87238 0.61349 0.0
C1405 C 0.74394 0.86653 0.6254 0.0
C1406 C 0.74258 0.85151 0.62845 0.0
C1407 C 0.73352 0.84263 0.61998 0.0
H1408 H 0.36989 0.09586 0.21868 0.0
H1409 H 0.33245 0.11526 0.23995 0.0
H1410 H 0.38619 0.11019 0.23438 0.0
H1411 H 0.34865 0.12957 0.2555 0.0
H1412 H 0.38102 0.14208 0.2907 0.0
H1413 H 0.36634 0.12576 0.27557 0.0
H1414 H 0.39298 0.13648 0.23808 0.0
H1415 H 0.40779 0.15276 0.25328 0.0
C1416 C 0.36516 0.10315 0.22672 0.0
C1417 C 0.34991 0.10444 0.2281 0.0
C1418 C 0.37447 0.11139 0.23565 0.0
C1419 C 0.36869 0.12096 0.24621 0.0
C1420 C 0.35344 0.12214 0.24761 0.0
C1421 C 0.34415 0.11401 0.23864 0.0
C1422 C 0.38384 0.14085 0.27926 0.0
C1423 C 0.3955 0.14875 0.27315 0.0
C1424 C 0.37537 0.13157 0.27058 0.0
C1425 C 0.37843 0.12993 0.25561 0.0
C1426 C 0.39042 0.13745 0.2496 0.0
C1427 C 0.39885 0.14681 0.25828 0.0
H1428 H 0.88015 0.33098 0.23802 0.0
H1429 H 0.90137 0.36913 0.22003 0.0
H1430 H 0.86539 0.34648 0.25373 0.0
H1431 H 0.88615 0.38482 0.23548 0.0
H1432 H 0.86589 0.40713 0.27606 0.0
H1433 H 0.88172 0.39216 0.26051 0.0
H1434 H 0.84549 0.36302 0.25197 0.0
H1435 H 0.82996 0.37763 0.26779 0.0
C1436 C 0.88158 0.34272 0.23735 0.0
C1437 C 0.89186 0.34885 0.22774 0.0
C1438 C 0.87305 0.35163 0.24631 0.0
C1439 C 0.87446 0.36693 0.24579 0.0
C1440 C 0.88487 0.37308 0.23626 0.0
C1441 C 0.89352 0.36411 0.22734 0.0
C1442 C 0.86137 0.3975 0.27086 0.0
C1443 C 0.84673 0.39348 0.27322 0.0
C1444 C 0.87039 0.38898 0.26188 0.0
C1445 C 0.86492 0.37632 0.25505 0.0
C1446 C 0.85019 0.3725 0.25728 0.0
C1447 C 0.84124 0.38093 0.2663 0.0
H1448 H 0.67234 0.87962 0.23773 0.0
H1449 H 0.63438 0.90333 0.22271 0.0
H1450 H 0.65698 0.86514 0.2539 0.0
H1451 H 0.61883 0.88844 0.23853 0.0
H1452 H 0.59688 0.86764 0.27844 0.0
H1453 H 0.61238 0.88338 0.26342 0.0
H1454 H 0.63943 0.84616 0.25255 0.0
H1455 H 0.62428 0.83065 0.26794 0.0
C1456 C 0.66068 0.88169 0.23785 0.0
C1457 C 0.65455 0.89256 0.22892 0.0
C1458 C 0.65185 0.87332 0.24706 0.0
C1459 C 0.63663 0.87551 0.24745 0.0
C1460 C 0.63052 0.88655 0.23864 0.0
C1461 C 0.6394 0.89503 0.22951 0.0
C1462 C 0.60618 0.86288 0.27287 0.0
C1463 C 0.60941 0.84794 0.2744 0.0
C1464 C 0.61501 0.87186 0.26419 0.0
C1465 C 0.6272 0.86607 0.25678 0.0
C1466 C 0.63032 0.85108 0.25831 0.0
C1467 C 0.62158 0.84215 0.26706 0.0
H1468 H 0.09043 0.63555 0.23044 0.0
H1469 H 0.12799 0.66293 0.22212 0.0
H1470 H 0.10501 0.62061 0.24709 0.0
H1471 H 0.14269 0.64778 0.23831 0.0
H1472 H 0.16079 0.6284 0.27998 0.0
H1473 H 0.14546 0.64282 0.26369 0.0
H1474 H 0.12466 0.60329 0.24823 0.0
H1475 H 0.13971 0.58891 0.26495 0.0
C1476 C 0.10184 0.63827 0.23205 0.0
C1477 C 0.10806 0.65043 0.22505 0.0
C1478 C 0.11022 0.62968 0.24154 0.0
C1479 C 0.12502 0.63304 0.24414 0.0
C1480 C 0.13126 0.64505 0.23683 0.0
C1481 C 0.12287 0.65368 0.22746 0.0
C1482 C 0.15289 0.6228 0.27315 0.0
C1483 C 0.15146 0.60753 0.27371 0.0
C1484 C 0.14417 0.63105 0.26372 0.0
C1485 C 0.1339 0.62422 0.25453 0.0
C1486 C 0.13234 0.60893 0.25526 0.0
C1487 C 0.14101 0.60068 0.26479 0.0
H1488 H 0.365 0.9095 0.76933 0.0
H1489 H 0.33529 0.87309 0.77386 0.0
H1490 H 0.38002 0.89518 0.75253 0.0
H1491 H 0.35052 0.85857 0.75761 0.0
H1492 H 0.37155 0.8408 0.71697 0.0
H1493 H 0.35691 0.85642 0.73275 0.0
H1494 H 0.39642 0.87507 0.75087 0.0
H1495 H 0.41102 0.8598 0.73455 0.0
C1496 C 0.36177 0.89838 0.76685 0.0
C1497 C 0.34895 0.89243 0.77284 0.0
C1498 C 0.37041 0.89014 0.75727 0.0
C1499 C 0.36646 0.87572 0.7536 0.0
C1500 C 0.35375 0.86973 0.75988 0.0
C1501 C 0.34506 0.87801 0.76931 0.0
C1502 C 0.37709 0.84832 0.72425 0.0
C1503 C 0.39241 0.84906 0.72457 0.0
C1504 C 0.36871 0.85721 0.7334 0.0
C1505 C 0.37545 0.86691 0.74326 0.0
C1506 C 0.39082 0.86785 0.74333 0.0
C1507 C 0.39921 0.85906 0.73403 0.0
H1508 H 0.13391 0.4095 0.73022 0.0
H1509 H 0.16287 0.37253 0.7253 0.0
H1510 H 0.1186 0.39527 0.7469 0.0
H1511 H 0.14742 0.3582 0.74151 0.0
H1512 H 0.12698 0.34146 0.78293 0.0
H1513 H 0.14148 0.35684 0.76682 0.0
H1514 H 0.10189 0.37484 0.74831 0.0
H1515 H 0.08734 0.35969 0.76487 0.0
C1516 C 0.13691 0.39829 0.73259 0.0
C1517 C 0.14962 0.39214 0.72654 0.0
C1518 C 0.12812 0.39011 0.7421 0.0
C1519 C 0.13184 0.37562 0.74566 0.0
C1520 C 0.14439 0.36942 0.73928 0.0
C1521 C 0.15321 0.37761 0.7299 0.0
C1522 C 0.12137 0.34877 0.77549 0.0
C1523 C 0.10603 0.34933 0.77511 0.0
C1524 C 0.12968 0.35751 0.76616 0.0
C1525 C 0.12287 0.36695 0.75611 0.0
C1526 C 0.1075 0.36777 0.75598 0.0
C1527 C 0.09916 0.35906 0.76542 0.0
H1528 H 0.59917 0.13058 0.71934 0.0
H1529 H 0.61567 0.16915 0.74102 0.0
H1530 H 0.6143 0.11524 0.73517 0.0
H1531 H 0.63045 0.1539 0.75704 0.0
H1532 H 0.66775 0.12424 0.77083 0.0
H1533 H 0.65192 0.13888 0.75527 0.0
H1534 H 0.6174 0.107 0.7603 0.0
H1535 H 0.63346 0.09212 0.77563 0.0
C1536 C 0.60593 0.13576 0.72757 0.0
C1537 C 0.60632 0.15105 0.72889 0.0
C1538 C 0.61453 0.12698 0.73669 0.0
C1539 C 0.62367 0.13335 0.74731 0.0
C1540 C 0.62376 0.14865 0.74879 0.0
C1541 C 0.61523 0.15739 0.73967 0.0
C1542 C 0.65679 0.12034 0.76861 0.0
C1543 C 0.65183 0.10705 0.77446 0.0
C1544 C 0.64767 0.12879 0.75977 0.0
C1545 C 0.63334 0.12417 0.75661 0.0
C1546 C 0.62841 0.1108 0.7624 0.0
C1547 C 0.63758 0.10232 0.77125 0.0
H1548 H 0.87154 0.66336 0.77727 0.0
H1549 H 0.90871 0.63532 0.76944 0.0
H1550 H 0.85642 0.64768 0.76199 0.0
H1551 H 0.89373 0.61987 0.75364 0.0
H1552 H 0.8589 0.58808 0.73646 0.0
H1553 H 0.874 0.60269 0.75297 0.0
H1554 H 0.85323 0.64201 0.73693 0.0
H1555 H 0.83787 0.62738 0.72091 0.0
C1556 C 0.87648 0.65384 0.77224 0.0
C1557 C 0.89131 0.65058 0.7745 0.0
C1558 C 0.86785 0.6449 0.76338 0.0
C1559 C 0.87387 0.63257 0.75643 0.0
C1560 C 0.88867 0.62918 0.75893 0.0
C1561 C 0.89729 0.63807 0.76792 0.0
C1562 C 0.8576 0.59985 0.73649 0.0
C1563 C 0.84718 0.60659 0.72746 0.0
C1564 C 0.86629 0.60824 0.7459 0.0
C1565 C 0.86479 0.62355 0.74637 0.0
C1566 C 0.85449 0.63024 0.73712 0.0
C1567 C 0.84574 0.62186 0.72784 0.0
H1568 H 0.23706 0.35948 0.08947 0.0
H1569 H 0.21588 0.34402 0.12873 0.0
H1570 H 0.25331 0.3747 0.10422 0.0
H1571 H 0.23171 0.35954 0.14345 0.0
H1572 H 0.2729 0.3747 0.16629 0.0
H1573 H 0.25661 0.36035 0.15093 0.0
H1574 H 0.25463 0.39586 0.1198 0.0
H1575 H 0.27138 0.41006 0.13503 0.0
C1576 C 0.23576 0.35949 0.10124 0.0
C1577 C 0.22528 0.35051 0.10796 0.0
C1578 C 0.24503 0.36825 0.1097 0.0
C1579 C 0.24392 0.36826 0.12505 0.0
C1580 C 0.2331 0.35957 0.13169 0.0
C1581 C 0.22395 0.35074 0.12325 0.0
C1582 C 0.26901 0.37944 0.15615 0.0
C1583 C 0.27339 0.39351 0.15187 0.0
C1584 C 0.25958 0.37125 0.14739 0.0
C1585 C 0.25418 0.37699 0.13417 0.0
C1586 C 0.25867 0.39105 0.12983 0.0
C1587 C 0.26821 0.39921 0.13858 0.0
H1588 H 0.23698 0.64239 0.91123 0.0
H1589 H 0.21829 0.66011 0.87165 0.0
H1590 H 0.25309 0.62683 0.89664 0.0
H1591 H 0.23395 0.6443 0.8571 0.0
H1592 H 0.27437 0.62681 0.83497 0.0
H1593 H 0.25896 0.64201 0.85041 0.0
H1594 H 0.25357 0.60599 0.88054 0.0
H1595 H 0.26948 0.59091 0.86524 0.0
C1596 C 0.23624 0.64286 0.89942 0.0
C1597 C 0.22645 0.65251 0.89257 0.0
C1598 C 0.2454 0.6339 0.89105 0.0
C1599 C 0.24491 0.63437 0.87568 0.0
C1600 C 0.23487 0.64386 0.8689 0.0
C1601 C 0.22581 0.65285 0.87724 0.0
C1602 C 0.26993 0.62215 0.84491 0.0
C1603 C 0.27308 0.60766 0.84888 0.0
C1604 C 0.26101 0.63083 0.85373 0.0
C1605 C 0.25488 0.6252 0.86666 0.0
C1606 C 0.25821 0.61074 0.87073 0.0
C1607 C 0.26726 0.60207 0.86194 0.0
H1608 H 0.3706 0.27576 0.83534 0.0
H1609 H 0.40799 0.26918 0.86339 0.0
H1610 H 0.35577 0.26068 0.85145 0.0
H1611 H 0.39331 0.25353 0.8793 0.0
H1612 H 0.35876 0.23652 0.91159 0.0
H1613 H 0.37374 0.25277 0.89656 0.0
H1614 H 0.35286 0.23582 0.85768 0.0
H1615 H 0.33758 0.22011 0.87272 0.0
C1616 C 0.37565 0.27104 0.84496 0.0
C1617 C 0.39045 0.27359 0.84809 0.0
C1618 C 0.36718 0.26229 0.85415 0.0
C1619 C 0.37336 0.2557 0.86661 0.0
C1620 C 0.38813 0.25852 0.86989 0.0
C1621 C 0.39658 0.26743 0.86075 0.0
C1622 C 0.35743 0.23629 0.89982 0.0
C1623 C 0.34696 0.22712 0.89332 0.0
C1624 C 0.36605 0.24554 0.8912 0.0
C1625 C 0.36445 0.24571 0.87589 0.0
C1626 C 0.35417 0.23626 0.86944 0.0
C1627 C 0.34548 0.22715 0.87805 0.0
H1628 H 0.73044 0.37544 0.82959 0.0
H1629 H 0.72417 0.40678 0.86434 0.0
H1630 H 0.74626 0.36103 0.84534 0.0
H1631 H 0.73969 0.39205 0.88039 0.0
H1632 H 0.78014 0.36901 0.89988 0.0
H1633 H 0.76463 0.38432 0.88436 0.0
H1634 H 0.74485 0.3455 0.86604 0.0
H1635 H 0.76062 0.33034 0.88109 0.0
C1636 C 0.73235 0.37918 0.84066 0.0
C1637 C 0.72602 0.3922 0.84575 0.0
C1638 C 0.74137 0.37088 0.84973 0.0
C1639 C 0.74418 0.37531 0.86419 0.0
C1640 C 0.73788 0.38839 0.86928 0.0
C1641 C 0.72891 0.39678 0.86013 0.0
C1642 C 0.77248 0.3638 0.89249 0.0
C1643 C 0.77166 0.34849 0.89161 0.0
C1644 C 0.76353 0.37256 0.88367 0.0
C1645 C 0.75353 0.36615 0.87387 0.0
C1646 C 0.75262 0.35082 0.87321 0.0
C1647 C 0.76162 0.34211 0.88191 0.0
H1648 H 0.59635 0.71947 0.87213 0.0
H1649 H 0.6204 0.73584 0.83492 0.0
H1650 H 0.61028 0.73575 0.88823 0.0
H1651 H 0.63425 0.752 0.85093 0.0
H1652 H 0.64438 0.79028 0.88045 0.0
H1653 H 0.62883 0.77408 0.8661 0.0
H1654 H 0.63646 0.73922 0.89701 0.0
H1655 H 0.65206 0.75549 0.91147 0.0
C1656 C 0.60463 0.7265 0.86742 0.0
C1657 C 0.60728 0.72642 0.85228 0.0
C1658 C 0.61262 0.73577 0.87662 0.0
C1659 C 0.62325 0.74522 0.87081 0.0
C1660 C 0.62596 0.745 0.85569 0.0
C1661 C 0.6181 0.73567 0.84654 0.0
C1662 C 0.64262 0.77921 0.88429 0.0
C1663 C 0.64951 0.77412 0.89703 0.0
C1664 C 0.63378 0.76992 0.87602 0.0
C1665 C 0.63158 0.75535 0.88035 0.0
C1666 C 0.63794 0.75042 0.89345 0.0
C1667 C 0.64688 0.75971 0.90169 0.0
H1668 H 0.76644 0.66998 0.12144 0.0
H1669 H 0.77967 0.63214 0.09648 0.0
H1670 H 0.75051 0.65473 0.13627 0.0
H1671 H 0.76396 0.6167 0.11165 0.0
H1672 H 0.72229 0.59682 0.1318 0.0
H1673 H 0.73838 0.61174 0.11656 0.0
H1674 H 0.75163 0.63626 0.15473 0.0
H1675 H 0.73528 0.62166 0.1698 0.0
C1676 C 0.76604 0.65836 0.11921 0.0
C1677 C 0.77432 0.65224 0.10782 0.0
C1678 C 0.75695 0.64959 0.12776 0.0
C1679 C 0.75598 0.63447 0.1252 0.0
C1680 C 0.76432 0.62833 0.11381 0.0
C1681 C 0.77339 0.63715 0.10519 0.0
C1682 C 0.72862 0.60543 0.13689 0.0
C1683 C 0.72747 0.60813 0.15196 0.0
C1684 C 0.73793 0.6139 0.12819 0.0
C1685 C 0.74629 0.62522 0.13441 0.0
C1686 C 0.74517 0.62781 0.14953 0.0
C1687 C 0.73584 0.61939 0.15819 0.0
H1688 H 0.3293 0.76405 0.12286 0.0
H1689 H 0.36646 0.77499 0.09588 0.0
H1690 H 0.34468 0.74824 0.13772 0.0
H1691 H 0.38207 0.75957 0.1111 0.0
H1692 H 0.40293 0.71977 0.1334 0.0
H1693 H 0.38752 0.73484 0.11759 0.0
H1694 H 0.36338 0.74963 0.15545 0.0
H1695 H 0.37836 0.7342 0.17104 0.0
C1696 C 0.3408 0.76315 0.12018 0.0
C1697 C 0.34669 0.77079 0.10824 0.0
C1698 C 0.34966 0.75414 0.12875 0.0
C1699 C 0.36467 0.75268 0.12571 0.0
C1700 C 0.37054 0.76028 0.11368 0.0
C1701 C 0.36162 0.7692 0.105 0.0
C1702 C 0.39429 0.72623 0.13829 0.0
C1703 C 0.3918 0.72575 0.15343 0.0
C1704 C 0.38552 0.73494 0.12926 0.0
C1705 C 0.37414 0.74344 0.13521 0.0
C1706 C 0.37181 0.74303 0.15041 0.0
C1707 C 0.38047 0.73424 0.15939 0.0
H1708 H 0.63785 0.2326 0.08896 0.0
H1709 H 0.66347 0.2228 0.12739 0.0
H1710 H 0.62259 0.24915 0.10337 0.0
H1711 H 0.64804 0.23891 0.14186 0.0
H1712 H 0.62811 0.27989 0.16067 0.0
H1713 H 0.64313 0.26431 0.14518 0.0
H1714 H 0.6044 0.24953 0.12247 0.0
H1715 H 0.58941 0.26551 0.13774 0.0
C1716 C 0.64015 0.23391 0.1005 0.0
C1717 C 0.65187 0.22646 0.10704 0.0
C1718 C 0.63137 0.24334 0.10878 0.0
C1719 C 0.63413 0.24544 0.12377 0.0
C1720 C 0.64577 0.2378 0.1303 0.0
C1721 C 0.65456 0.22847 0.12202 0.0
C1722 C 0.62281 0.27336 0.15232 0.0
C1723 C 0.60759 0.27387 0.15045 0.0
C1724 C 0.63141 0.26436 0.1435 0.0
C1725 C 0.62497 0.25555 0.13265 0.0
C1726 C 0.60974 0.25626 0.13062 0.0
C1727 C 0.60114 0.26537 0.13941 0.0
H1728 H 0.90052 0.78195 0.63185 0.0
H1729 H 0.88365 0.76049 0.67038 0.0
H1730 H 0.88507 0.76642 0.61648 0.0
H1731 H 0.86867 0.74471 0.65513 0.0
H1732 H 0.83159 0.73044 0.62583 0.0
H1733 H 0.84738 0.74616 0.6403 0.0
H1734 H 0.88159 0.74162 0.608 0.0
H1735 H 0.86549 0.72618 0.59324 0.0
C1736 C 0.89359 0.77385 0.63701 0.0
C1737 C 0.8932 0.77249 0.6523 0.0
C1738 C 0.88481 0.76489 0.62822 0.0
C1739 C 0.87554 0.75437 0.63457 0.0
C1740 C 0.87542 0.75289 0.64987 0.0
C1741 C 0.88408 0.76189 0.65862 0.0
C1742 C 0.84248 0.73278 0.62181 0.0
C1743 C 0.84733 0.72704 0.60843 0.0
C1744 C 0.85159 0.74174 0.63015 0.0
C1745 C 0.86582 0.74508 0.62539 0.0
C1746 C 0.87065 0.73939 0.61193 0.0
C1747 C 0.86147 0.73047 0.60352 0.0
H1748 H 0.2349 0.87723 0.66966 0.0
H1749 H 0.21945 0.90083 0.63179 0.0
H1750 H 0.25033 0.86221 0.65411 0.0
H1751 H 0.23459 0.8854 0.61605 0.0
H1752 H 0.2756 0.86543 0.59468 0.0
H1753 H 0.25966 0.88072 0.6097 0.0
H1754 H 0.24916 0.84323 0.63651 0.0
H1755 H 0.26545 0.82817 0.62185 0.0
C1756 C 0.23469 0.8791 0.65797 0.0
C1757 C 0.22595 0.89019 0.65194 0.0
C1758 C 0.24348 0.87042 0.64902 0.0
C1759 C 0.24368 0.87253 0.63379 0.0
C1760 C 0.23485 0.88359 0.62774 0.0
C1761 C 0.2261 0.89236 0.63674 0.0
C1762 C 0.26988 0.8605 0.6038 0.0
C1763 C 0.27185 0.84565 0.60717 0.0
C1764 C 0.26066 0.86922 0.61235 0.0
C1765 C 0.25315 0.86323 0.62437 0.0
C1766 C 0.25498 0.84829 0.62753 0.0
C1767 C 0.26427 0.83963 0.61908 0.0
H1768 H 0.09106 0.23123 0.63793 0.0
H1769 H 0.12915 0.21988 0.6634 0.0
H1770 H 0.10593 0.24741 0.62284 0.0
H1771 H 0.1442 0.23549 0.64796 0.0
H1772 H 0.16415 0.27646 0.62863 0.0
H1773 H 0.14892 0.26032 0.64332 0.0
H1774 H 0.12425 0.24854 0.60473 0.0
H1775 H 0.13912 0.26523 0.59021 0.0
C1776 C 0.10267 0.23204 0.64015 0.0
C1777 C 0.10895 0.22435 0.65186 0.0
C1778 C 0.11123 0.24126 0.63147 0.0
C1779 C 0.12629 0.24286 0.63419 0.0
C1780 C 0.13259 0.23483 0.64571 0.0
C1781 C 0.124 0.22577 0.65451 0.0
C1782 C 0.15543 0.27045 0.62332 0.0
C1783 C 0.15281 0.2721 0.60829 0.0
C1784 C 0.14676 0.26109 0.63171 0.0
C1785 C 0.13538 0.253 0.62523 0.0
C1786 C 0.13276 0.25472 0.61016 0.0
C1787 C 0.14133 0.26423 0.6018 0.0
H1788 H 0.76702 0.09099 0.63842 0.0
H1789 H 0.78105 0.12968 0.66154 0.0
H1790 H 0.75107 0.1059 0.6231 0.0
H1791 H 0.76565 0.14469 0.64587 0.0
H1792 H 0.72468 0.16544 0.62752 0.0
H1793 H 0.74075 0.15012 0.64217 0.0
H1794 H 0.75004 0.12357 0.60416 0.0
H1795 H 0.73344 0.13862 0.58967 0.0
C1796 C 0.76685 0.10272 0.64007 0.0
C1797 C 0.77521 0.10918 0.65121 0.0
C1798 C 0.75775 0.11129 0.63125 0.0
C1799 C 0.75695 0.12653 0.63329 0.0
C1800 C 0.76569 0.13298 0.64419 0.0
C1801 C 0.77463 0.12439 0.65311 0.0
C1802 C 0.73013 0.1563 0.62232 0.0
C1803 C 0.72781 0.15322 0.60746 0.0
C1804 C 0.73945 0.14757 0.63068 0.0
C1805 C 0.74683 0.13564 0.62435 0.0
C1806 C 0.74443 0.13254 0.60947 0.0
C1807 C 0.73496 0.1412 0.60113 0.0
H1808 H 0.9012 0.21863 0.36691 0.0
H1809 H 0.88248 0.23868 0.32848 0.0
H1810 H 0.8859 0.23413 0.38242 0.0
H1811 H 0.8676 0.25445 0.34386 0.0
H1812 H 0.83141 0.26884 0.37437 0.0
H1813 H 0.84693 0.25311 0.35956 0.0
H1814 H 0.88231 0.25901 0.39035 0.0
H1815 H 0.86653 0.27441 0.40543 0.0
C1816 C 0.89389 0.22642 0.36179 0.0
C1817 C 0.89296 0.22739 0.3465 0.0
C1818 C 0.88518 0.23536 0.37066 0.0
C1819 C 0.87545 0.2455 0.36439 0.0
C1820 C 0.87474 0.24657 0.34907 0.0
C1821 C 0.88334 0.23759 0.34024 0.0
C1822 C 0.8425 0.26679 0.37797 0.0
C1823 C 0.84777 0.27288 0.39103 0.0
C1824 C 0.85144 0.25783 0.36944 0.0
C1825 C 0.86592 0.25484 0.3737 0.0
C1826 C 0.87117 0.26093 0.38682 0.0
C1827 C 0.86217 0.26984 0.39542 0.0
H1828 H 0.76653 0.91041 0.36152 0.0
H1829 H 0.77716 0.87226 0.33584 0.0
H1830 H 0.74973 0.89584 0.37626 0.0
H1831 H 0.76091 0.85753 0.3509 0.0
H1832 H 0.72043 0.83757 0.3704 0.0
H1833 H 0.73596 0.85328 0.35557 0.0
H1834 H 0.74856 0.87732 0.39429 0.0
H1835 H 0.73246 0.86195 0.40899 0.0
C1836 C 0.76538 0.89887 0.35913 0.0
C1837 C 0.77311 0.89247 0.34752 0.0
C1838 C 0.7558 0.89049 0.36762 0.0
C1839 C 0.75388 0.87549 0.36476 0.0
C1840 C 0.76184 0.8691 0.35324 0.0
C1841 C 0.77126 0.87751 0.34467 0.0
C1842 C 0.72644 0.84629 0.37571 0.0
C1843 C 0.72527 0.84853 0.39084 0.0
C1844 C 0.73545 0.85523 0.36723 0.0
C1845 C 0.74368 0.8665 0.37372 0.0
C1846 C 0.74228 0.86888 0.38887 0.0
C1847 C 0.7331 0.86003 0.39732 0.0
H1848 H 0.16041 0.72213 0.3714 0.0
H1849 H 0.13614 0.73341 0.41031 0.0
H1850 H 0.14501 0.73837 0.35702 0.0
H1851 H 0.1208 0.74995 0.3959 0.0
H1852 H 0.08769 0.76675 0.36092 0.0
H1853 H 0.10214 0.75038 0.37641 0.0
H1854 H 0.14151 0.76454 0.35447 0.0
H1855 H 0.12711 0.7806 0.3389 0.0
C1856 C 0.15176 0.72808 0.37688 0.0
C1857 C 0.14952 0.72655 0.39199 0.0
C1858 C 0.14299 0.73747 0.36865 0.0
C1859 C 0.13178 0.74559 0.37534 0.0
C1860 C 0.1293 0.74379 0.39041 0.0
C1861 C 0.1381 0.73437 0.39867 0.0
C1862 C 0.09945 0.76641 0.35951 0.0
C1863 C 0.10627 0.77488 0.34865 0.0
C1864 C 0.10772 0.75708 0.36839 0.0
C1865 C 0.12296 0.75604 0.36656 0.0
C1866 C 0.12977 0.76485 0.35596 0.0
C1867 C 0.12152 0.77414 0.34711 0.0
H1868 H 0.22109 0.09895 0.36743 0.0
H1869 H 0.23884 0.11975 0.32893 0.0
H1870 H 0.23684 0.11411 0.38284 0.0
H1871 H 0.25485 0.13448 0.34418 0.0
H1872 H 0.2688 0.17024 0.3753 0.0
H1873 H 0.25321 0.15452 0.36065 0.0
H1874 H 0.26204 0.11844 0.38987 0.0
H1875 H 0.27737 0.13444 0.40487 0.0
C1876 C 0.22841 0.10669 0.36227 0.0
C1877 C 0.22866 0.10826 0.347 0.0
C1878 C 0.23751 0.11531 0.37108 0.0
C1879 C 0.24707 0.12559 0.36476 0.0
C1880 C 0.24743 0.12691 0.34945 0.0
C1881 C 0.23829 0.1184 0.34069 0.0
C1882 C 0.26745 0.15894 0.3786 0.0
C1883 C 0.27435 0.15355 0.39121 0.0
C1884 C 0.25856 0.14989 0.37014 0.0
C1885 C 0.25642 0.13516 0.37401 0.0
C1886 C 0.26332 0.12976 0.38666 0.0
C1887 C 0.27219 0.13888 0.3952 0.0
H1888 H 0.63383 0.90713 0.77182 0.0
H1889 H 0.66485 0.87165 0.7746 0.0
H1890 H 0.61837 0.89238 0.7558 0.0
H1891 H 0.64923 0.85672 0.75909 0.0
H1892 H 0.62752 0.83986 0.71817 0.0
H1893 H 0.64209 0.85524 0.73422 0.0
H1894 H 0.6026 0.87149 0.7545 0.0
H1895 H 0.58799 0.85641 0.73797 0.0
C1896 C 0.63724 0.89611 0.76915 0.0
C1897 C 0.65058 0.89056 0.77438 0.0
C1898 C 0.62836 0.88762 0.76002 0.0
C1899 C 0.6326 0.87339 0.75602 0.0
C1900 C 0.64577 0.86775 0.76164 0.0
C1901 C 0.65468 0.87626 0.77064 0.0
C1902 C 0.62195 0.84678 0.72601 0.0
C1903 C 0.60662 0.84692 0.72684 0.0
C1904 C 0.63031 0.85551 0.73531 0.0
C1905 C 0.62355 0.8645 0.74581 0.0
C1906 C 0.60817 0.86481 0.74648 0.0
C1907 C 0.59979 0.85613 0.73705 0.0
H1908 H 0.13894 0.58906 0.73253 0.0
H1909 H 0.16033 0.62834 0.71737 0.0
H1910 H 0.12373 0.6037 0.74894 0.0
H1911 H 0.14495 0.64297 0.73342 0.0
H1912 H 0.12844 0.66268 0.77576 0.0
H1913 H 0.14268 0.6474 0.75928 0.0
H1914 H 0.10415 0.62178 0.74967 0.0
H1915 H 0.08995 0.63694 0.7665 0.0
C1916 C 0.14027 0.60083 0.73258 0.0
C1917 C 0.15088 0.60756 0.72374 0.0
C1918 C 0.13153 0.60922 0.74194 0.0
C1919 C 0.13322 0.6245 0.7426 0.0
C1920 C 0.14357 0.63121 0.73342 0.0
C1921 C 0.15231 0.62283 0.72413 0.0
C1922 C 0.12302 0.65376 0.77018 0.0
C1923 C 0.10808 0.65103 0.7724 0.0
C1924 C 0.13115 0.64505 0.76064 0.0
C1925 C 0.12453 0.63344 0.75304 0.0
C1926 C 0.10961 0.63057 0.75544 0.0
C1927 C 0.10146 0.63928 0.76503 0.0
H1928 H 0.36694 0.09345 0.7771 0.0
H1929 H 0.331 0.12247 0.76732 0.0
H1930 H 0.38295 0.10802 0.76138 0.0
H1931 H 0.34673 0.13667 0.7513 0.0
H1932 H 0.38145 0.1684 0.7367 0.0
H1933 H 0.36651 0.15339 0.75277 0.0
H1934 H 0.3878 0.11453 0.7363 0.0
H1935 H 0.40315 0.12971 0.72053 0.0
C1936 C 0.36245 0.10288 0.77151 0.0
C1937 C 0.34776 0.10689 0.7735 0.0
C1938 C 0.37158 0.11117 0.76244 0.0
C1939 C 0.36617 0.12359 0.75514 0.0
C1940 C 0.35138 0.12738 0.75698 0.0
C1941 C 0.34231 0.11918 0.7661 0.0
C1942 C 0.38297 0.15666 0.73653 0.0
C1943 C 0.39342 0.15022 0.72732 0.0
C1944 C 0.37433 0.14803 0.74568 0.0
C1945 C 0.37583 0.13272 0.74575 0.0
C1946 C 0.38644 0.12629 0.73664 0.0
C1947 C 0.39518 0.13497 0.72754 0.0
H1948 H 0.90998 0.36025 0.76675 0.0
H1949 H 0.87079 0.33781 0.7805 0.0
H1950 H 0.8955 0.3756 0.75044 0.0
H1951 H 0.8562 0.35352 0.76474 0.0
H1952 H 0.83603 0.37225 0.7237 0.0
H1953 H 0.85101 0.35732 0.73983 0.0
H1954 H 0.87819 0.39485 0.74929 0.0
H1955 H 0.86349 0.40961 0.7326 0.0
C1956 C 0.89824 0.35874 0.76641 0.0
C1957 C 0.89151 0.3478 0.77483 0.0
C1958 C 0.88991 0.36758 0.75712 0.0
C1959 C 0.87466 0.36578 0.75618 0.0
C1960 C 0.86794 0.35502 0.7649 0.0
C1961 C 0.87629 0.34608 0.77404 0.0
C1962 C 0.84524 0.37729 0.7292 0.0
C1963 C 0.8486 0.39208 0.72691 0.0
C1964 C 0.85377 0.36876 0.73855 0.0
C1965 C 0.86577 0.37488 0.74599 0.0
C1966 C 0.86915 0.38971 0.74362 0.0
C1967 C 0.86069 0.3982 0.73411 0.0
H1968 H 0.63192 0.09716 0.22004 0.0
H1969 H 0.67018 0.11959 0.23628 0.0
H1970 H 0.61642 0.11234 0.23568 0.0
H1971 H 0.65484 0.1344 0.25216 0.0
H1972 H 0.62281 0.16922 0.26652 0.0
H1973 H 0.63749 0.15385 0.25055 0.0
H1974 H 0.61017 0.11676 0.26109 0.0
H1975 H 0.59516 0.13235 0.2768 0.0
C1976 C 0.637 0.10529 0.22699 0.0
C1977 C 0.65224 0.10726 0.22689 0.0
C1978 C 0.62815 0.11391 0.23602 0.0
C1979 C 0.63438 0.12463 0.24514 0.0
C1980 C 0.64965 0.12645 0.24508 0.0
C1981 C 0.65845 0.1179 0.23604 0.0
C1982 C 0.61994 0.15778 0.26544 0.0
C1983 C 0.60788 0.15197 0.27295 0.0
C1984 C 0.6284 0.14894 0.25634 0.0
C1985 C 0.62507 0.13403 0.2546 0.0
C1986 C 0.61294 0.12822 0.26207 0.0
C1987 C 0.60441 0.13712 0.27114 0.0
H1988 H 0.91009 0.63962 0.23469 0.0
H1989 H 0.87102 0.66074 0.21866 0.0
H1990 H 0.89524 0.62455 0.251 0.0
H1991 H 0.85616 0.64541 0.23452 0.0
H1992 H 0.835 0.62826 0.2757 0.0
H1993 H 0.85057 0.64278 0.25976 0.0
H1994 H 0.87777 0.60494 0.25184 0.0
H1995 H 0.86239 0.59053 0.26826 0.0
C1996 C 0.89832 0.64092 0.23455 0.0
C1997 C 0.89172 0.6514 0.22547 0.0
C1998 C 0.8898 0.63224 0.24384 0.0
C1999 C 0.87449 0.63383 0.24418 0.0
C2000 C 0.86792 0.6441 0.2348 0.0
C2001 C 0.87644 0.65282 0.22562 0.0
C2002 C 0.84434 0.62306 0.27059 0.0
C2003 C 0.84746 0.60826 0.27319 0.0
C2004 C 0.85322 0.63135 0.26136 0.0
C2005 C 0.86537 0.62501 0.25438 0.0
C2006 C 0.86859 0.61022 0.25713 0.0
C2007 C 0.85975 0.60194 0.26649 0.0
H2008 H 0.34046 0.87162 0.21892 0.0
H2009 H 0.35761 0.91171 0.23704 0.0
H2010 H 0.35549 0.85753 0.23574 0.0
H2011 H 0.37239 0.8976 0.25426 0.0
H2012 H 0.40766 0.86614 0.27247 0.0
H2013 H 0.39313 0.88132 0.25597 0.0
H2014 H 0.35656 0.85182 0.26119 0.0
H2015 H 0.37122 0.83649 0.27725 0.0
C2016 C 0.34744 0.87742 0.22654 0.0
C2017 C 0.34785 0.89276 0.2267 0.0
C2018 C 0.35597 0.86935 0.23627 0.0
C2019 C 0.36504 0.87643 0.24649 0.0
C2020 C 0.36562 0.8918 0.24647 0.0
C2021 C 0.35713 0.89989 0.23665 0.0
C2022 C 0.39648 0.86299 0.27015 0.0
C2023 C 0.39059 0.85009 0.27606 0.0
C2024 C 0.38813 0.8717 0.26074 0.0
C2025 C 0.37372 0.86771 0.25711 0.0
C2026 C 0.36773 0.85505 0.26346 0.0
C2027 C 0.37609 0.84631 0.27277 0.0
H2028 H 0.13423 0.403 0.27706 0.0
H2029 H 0.17197 0.3776 0.26439 0.0
H2030 H 0.11874 0.38769 0.26162 0.0
H2031 H 0.15662 0.36257 0.24865 0.0
H2032 H 0.12275 0.32886 0.23461 0.0
H2033 H 0.13795 0.34423 0.25018 0.0
H2034 H 0.11363 0.3823 0.2363 0.0
H2035 H 0.09816 0.36682 0.22103 0.0
C2036 C 0.13922 0.39418 0.27092 0.0
C2037 C 0.15429 0.39146 0.27196 0.0
C2038 C 0.13037 0.38547 0.262 0.0
C2039 C 0.13643 0.37388 0.25389 0.0
C2040 C 0.15154 0.37124 0.25492 0.0
C2041 C 0.16036 0.37991 0.26388 0.0
C2042 C 0.12066 0.34052 0.23488 0.0
C2043 C 0.10928 0.34664 0.22661 0.0
C2044 C 0.12942 0.34934 0.24375 0.0
C2045 C 0.12704 0.36452 0.24448 0.0
C2046 C 0.11565 0.37064 0.23615 0.0
C2047 C 0.10684 0.36179 0.22733 0.0
H2048 H 0.77958 0.65998 0.87152 0.0
H2049 H 0.76332 0.64104 0.9116 0.0
H2050 H 0.76274 0.64495 0.8575 0.0
H2051 H 0.74605 0.62621 0.89755 0.0
H2052 H 0.72816 0.59135 0.86519 0.0
H2053 H 0.74451 0.60592 0.88052 0.0
H2054 H 0.73713 0.64335 0.85263 0.0
H2055 H 0.72123 0.6287 0.83714 0.0
C2056 C 0.77236 0.65262 0.87734 0.0
C2057 C 0.77274 0.65171 0.89265 0.0
C2058 C 0.7626 0.64408 0.86931 0.0
C2059 C 0.7529 0.63449 0.8764 0.0
C2060 C 0.75343 0.63341 0.89174 0.0
C2061 C 0.76328 0.64193 0.89979 0.0
C2062 C 0.72998 0.60272 0.86243 0.0
C2063 C 0.72353 0.60887 0.84991 0.0
C2064 C 0.7393 0.61109 0.87124 0.0
C2065 C 0.74228 0.62576 0.86771 0.0
C2066 C 0.73536 0.63199 0.85547 0.0
C2067 C 0.72616 0.62363 0.84665 0.0
H2068 H 0.77648 0.36615 0.09678 0.0
H2069 H 0.76385 0.3284 0.12216 0.0
H2070 H 0.76046 0.3815 0.11165 0.0
H2071 H 0.74746 0.34353 0.13662 0.0
H2072 H 0.7324 0.37661 0.17016 0.0
H2073 H 0.74825 0.36176 0.15489 0.0
H2074 H 0.73541 0.38696 0.11701 0.0
H2075 H 0.7199 0.40223 0.13252 0.0
C2076 C 0.7702 0.36114 0.10548 0.0
C2077 C 0.77148 0.34611 0.10839 0.0
C2078 C 0.76094 0.3699 0.11393 0.0
C2079 C 0.75268 0.36378 0.12539 0.0
C2080 C 0.75386 0.34869 0.1281 0.0
C2081 C 0.7632 0.33998 0.11976 0.0
C2082 C 0.73293 0.37897 0.15857 0.0
C2083 C 0.72489 0.39056 0.15252 0.0
C2084 C 0.74197 0.37038 0.14978 0.0
C2085 C 0.74308 0.37308 0.13468 0.0
C2086 C 0.73497 0.38468 0.12862 0.0
C2087 C 0.726 0.39337 0.13747 0.0
H2088 H 0.66348 0.77849 0.12737 0.0
H2089 H 0.63981 0.76517 0.08877 0.0
H2090 H 0.64811 0.76273 0.14231 0.0
H2091 H 0.6248 0.74882 0.10358 0.0
H2092 H 0.59129 0.73169 0.13665 0.0
H2093 H 0.60602 0.74781 0.12132 0.0
H2094 H 0.64402 0.73799 0.14771 0.0
H2095 H 0.62912 0.72247 0.16334 0.0
C2096 C 0.65503 0.7721 0.12208 0.0
C2097 C 0.65284 0.77303 0.10692 0.0
C2098 C 0.64627 0.76296 0.13062 0.0
C2099 C 0.63526 0.75436 0.12417 0.0
C2100 C 0.63303 0.7554 0.10897 0.0
C2101 C 0.64168 0.76471 0.10045 0.0
C2102 C 0.60281 0.73298 0.13911 0.0
C2103 C 0.60905 0.7259 0.15122 0.0
C2104 C 0.61128 0.74216 0.13029 0.0
C2105 C 0.62623 0.74432 0.13329 0.0
C2106 C 0.63249 0.7369 0.14524 0.0
C2107 C 0.62398 0.72789 0.15414 0.0
H2108 H 0.28162 0.62815 0.15861 0.0
H2109 H 0.26319 0.5886 0.14057 0.0
H2110 H 0.26596 0.64272 0.14283 0.0
H2111 H 0.24705 0.60321 0.12506 0.0
H2112 H 0.22994 0.63476 0.08966 0.0
H2113 H 0.24623 0.61951 0.1044 0.0
H2114 H 0.24095 0.64925 0.14076 0.0
H2115 H 0.22518 0.66464 0.12591 0.0
C2116 C 0.27416 0.62257 0.15129 0.0
C2117 C 0.27358 0.60724 0.15086 0.0
C2118 C 0.2651 0.63092 0.14231 0.0
C2119 C 0.2551 0.62416 0.13277 0.0
C2120 C 0.2547 0.60879 0.13217 0.0
C2121 C 0.26389 0.60041 0.1411 0.0
C2122 C 0.23229 0.63799 0.10081 0.0
C2123 C 0.22637 0.65092 0.10661 0.0
C2124 C 0.24156 0.62923 0.10928 0.0
C2125 C 0.24501 0.6332 0.12375 0.0
C2126 C 0.23882 0.64601 0.12957 0.0
C2127 C 0.22968 0.6548 0.12109 0.0
H2128 H 0.35935 0.23409 0.08996 0.0
H2129 H 0.34177 0.21488 0.12935 0.0
H2130 H 0.37474 0.25021 0.1047 0.0
H2131 H 0.35742 0.23058 0.14405 0.0
H2132 H 0.37284 0.27229 0.16582 0.0
H2133 H 0.35864 0.2558 0.15054 0.0
H2134 H 0.39536 0.25137 0.12112 0.0
H2135 H 0.40944 0.26832 0.13625 0.0
C2136 C 0.35894 0.23318 0.10176 0.0
C2137 C 0.3493 0.22331 0.10851 0.0
C2138 C 0.36779 0.24236 0.11021 0.0
C2139 C 0.36721 0.2418 0.12558 0.0
C2140 C 0.35791 0.23155 0.13226 0.0
C2141 C 0.34901 0.22246 0.12383 0.0
C2142 C 0.37788 0.26782 0.15608 0.0
C2143 C 0.39225 0.27157 0.15224 0.0
C2144 C 0.36977 0.25827 0.14737 0.0
C2145 C 0.37589 0.25214 0.13466 0.0
C2146 C 0.39027 0.25599 0.13076 0.0
C2147 C 0.39836 0.26565 0.13945 0.0
H2148 H 0.27645 0.40379 0.86566 0.0
H2149 H 0.26649 0.37564 0.82909 0.0
H2150 H 0.26059 0.38907 0.88131 0.0
H2151 H 0.25027 0.36126 0.8445 0.0
H2152 H 0.23487 0.32932 0.8791 0.0
H2153 H 0.25091 0.34419 0.86398 0.0
H2154 H 0.2355 0.38312 0.88592 0.0
H2155 H 0.2198 0.36809 0.90144 0.0
C2156 C 0.27081 0.3945 0.86096 0.0
C2157 C 0.27276 0.39082 0.84618 0.0
C2158 C 0.26164 0.38612 0.86989 0.0
C2159 C 0.25415 0.37394 0.86419 0.0
C2160 C 0.25606 0.37038 0.84935 0.0
C2161 C 0.2653 0.37868 0.84048 0.0
C2162 C 0.2349 0.34106 0.88068 0.0
C2163 C 0.22606 0.34755 0.89143 0.0
C2164 C 0.24404 0.34961 0.87195 0.0
C2165 C 0.24448 0.36489 0.87366 0.0
C2166 C 0.2356 0.37138 0.88443 0.0
C2167 C 0.22652 0.36279 0.89326 0.0
H2168 H 0.67018 0.23816 0.88006 0.0
H2169 H 0.63176 0.22033 0.90094 0.0
H2170 H 0.6548 0.25344 0.86466 0.0
H2171 H 0.61625 0.23535 0.88518 0.0
H2172 H 0.59395 0.27543 0.86445 0.0
H2173 H 0.60901 0.26032 0.88052 0.0
H2174 H 0.63832 0.25141 0.84453 0.0
H2175 H 0.62353 0.26682 0.82866 0.0
C2176 C 0.65842 0.23746 0.8813 0.0
C2177 C 0.65217 0.22803 0.89168 0.0
C2178 C 0.64958 0.24615 0.8724 0.0
C2179 C 0.63426 0.24558 0.8736 0.0
C2180 C 0.62801 0.23619 0.88407 0.0
C2181 C 0.63688 0.22752 0.89304 0.0
C2182 C 0.60363 0.27024 0.86 0.0
C2183 C 0.60761 0.27236 0.84532 0.0
C2184 C 0.61221 0.2615 0.86918 0.0
C2185 C 0.62492 0.25467 0.86385 0.0
C2186 C 0.62877 0.25671 0.84909 0.0
C2187 C 0.62024 0.26548 0.83996 0.0
H2188 H 0.32929 0.76429 0.87845 0.0
H2189 H 0.36798 0.77856 0.90148 0.0
H2190 H 0.34409 0.74787 0.86366 0.0
H2191 H 0.38294 0.76245 0.88631 0.0
H2192 H 0.40314 0.72115 0.86641 0.0
H2193 H 0.38833 0.73714 0.88186 0.0
H2194 H 0.36162 0.74834 0.84449 0.0
H2195 H 0.37609 0.73202 0.82926 0.0
C2196 C 0.341 0.764 0.88026 0.0
C2197 C 0.34749 0.77273 0.89109 0.0
C2198 C 0.3495 0.75464 0.87172 0.0
C2199 C 0.36473 0.75386 0.87373 0.0
C2200 C 0.37122 0.76262 0.88459 0.0
C2201 C 0.36268 0.77193 0.89321 0.0
C2202 C 0.39406 0.72701 0.86155 0.0
C2203 C 0.39072 0.7253 0.84666 0.0
C2204 C 0.38564 0.73625 0.87036 0.0
C2205 C 0.37376 0.74403 0.86443 0.0
C2206 C 0.37051 0.74233 0.8495 0.0
C2207 C 0.37885 0.73303 0.84073 0.0
H2208 H 0.10213 0.22353 0.27501 0.0
H2209 H 0.05704 0.23266 0.28561 0.0
H2210 H 0.10121 0.24164 0.25544 0.0
H2211 H 0.05594 0.25043 0.26579 0.0
H2212 H 0.06594 0.29453 0.24434 0.0
H2213 H 0.06549 0.27436 0.26163 0.0
H2214 H 0.09131 0.24823 0.23189 0.0
H2215 H 0.0921 0.26869 0.2147 0.0
C2216 C 0.09195 0.22923 0.27298 0.0
C2217 C 0.0797 0.22679 0.28191 0.0
C2218 C 0.09139 0.23956 0.26172 0.0
C2219 C 0.07853 0.24761 0.25912 0.0
C2220 C 0.0661 0.24465 0.26768 0.0
C2221 C 0.0667 0.2344 0.27898 0.0
C2222 C 0.07144 0.28445 0.24144 0.0
C2223 C 0.07909 0.2832 0.22818 0.0
C2224 C 0.0711 0.27283 0.25132 0.0
C2225 C 0.07833 0.25963 0.24815 0.0
C2226 C 0.08577 0.25829 0.23475 0.0
C2227 C 0.08616 0.26998 0.22487 0.0
H2228 H 0.75085 0.0745 0.29965 0.0
H2229 H 0.78454 0.08584 0.26857 0.0
H2230 H 0.73303 0.07319 0.27993 0.0
H2231 H 0.76682 0.08403 0.24869 0.0
H2232 H 0.7272 0.09625 0.21998 0.0
H2233 H 0.7461 0.09644 0.23878 0.0
H2234 H 0.72591 0.05899 0.25937 0.0
H2235 H 0.70675 0.05917 0.24086 0.0
C2236 C 0.75447 0.07658 0.28856 0.0
C2237 C 0.76907 0.08031 0.28565 0.0
C2238 C 0.74428 0.07572 0.27723 0.0
C2239 C 0.74848 0.07844 0.26268 0.0
C2240 C 0.76315 0.08206 0.25977 0.0
C2241 C 0.77333 0.08303 0.27115 0.0
C2242 C 0.72689 0.08799 0.22846 0.0
C2243 C 0.71546 0.07775 0.22902 0.0
C2244 C 0.73776 0.08805 0.23921 0.0
C2245 C 0.73749 0.0778 0.25069 0.0
C2246 C 0.7263 0.06724 0.25089 0.0
C2247 C 0.71538 0.06726 0.24022 0.0
H2248 H 0.92493 0.69954 0.24879 0.0
H2249 H 0.91153 0.73084 0.21608 0.0
H2250 H 0.92519 0.71876 0.26717 0.0
H2251 H 0.9123 0.75028 0.23437 0.0
H2252 H 0.89946 0.77759 0.27463 0.0
H2253 H 0.89968 0.75902 0.25548 0.0
H2254 H 0.93834 0.73977 0.27473 0.0
H2255 H 0.93774 0.758 0.29412 0.0
C2256 C 0.92217 0.71058 0.24551 0.0
C2257 C 0.91819 0.71369 0.23101 0.0
C2258 C 0.92242 0.72164 0.25602 0.0
C2259 C 0.91883 0.73612 0.25227 0.0
C2260 C 0.91494 0.73923 0.23771 0.0
C2261 C 0.91457 0.72812 0.2272 0.0
C2262 C 0.90803 0.76941 0.2747 0.0
C2263 C 0.91853 0.76918 0.2859 0.0
C2264 C 0.90821 0.75881 0.26369 0.0
C2265 C 0.91899 0.74782 0.26358 0.0
C2266 C 0.9297 0.74787 0.27462 0.0
C2267 C 0.92943 0.75838 0.28569 0.0
H2268 H 0.21488 0.91203 0.26803 0.0
H2269 H 0.24791 0.92426 0.29948 0.0
H2270 H 0.23316 0.9127 0.24858 0.0
H2271 H 0.26626 0.92444 0.28023 0.0
H2272 H 0.29314 0.93749 0.24105 0.0
H2273 H 0.27386 0.93796 0.2594 0.0
H2274 H 0.25411 0.89984 0.2396 0.0
H2275 H 0.27317 0.89974 0.22092 0.0
C2276 C 0.22606 0.91479 0.27078 0.0
C2277 C 0.22997 0.91813 0.28525 0.0
C2278 C 0.23656 0.91509 0.25966 0.0
C2279 C 0.2512 0.91866 0.26281 0.0
C2280 C 0.25505 0.92192 0.27734 0.0
C2281 C 0.24455 0.92172 0.28841 0.0
C2282 C 0.28463 0.92927 0.24058 0.0
C2283 C 0.28467 0.91855 0.22959 0.0
C2284 C 0.27362 0.92946 0.25116 0.0
C2285 C 0.26247 0.91886 0.25108 0.0
C2286 C 0.26242 0.90827 0.23991 0.0
C2287 C 0.27337 0.90816 0.22925 0.0
H2288 H 0.07363 0.70035 0.75107 0.0
H2289 H 0.09206 0.72979 0.78305 0.0
H2290 H 0.07355 0.71989 0.73304 0.0
H2291 H 0.09148 0.7496 0.76515 0.0
H2292 H 0.10291 0.77686 0.72441 0.0
H2293 H 0.10292 0.7579 0.74319 0.0
H2294 H 0.06147 0.74195 0.72697 0.0
H2295 H 0.0618 0.76052 0.70792 0.0
C2296 C 0.07755 0.71106 0.75428 0.0
C2297 C 0.08285 0.71355 0.76846 0.0
C2298 C 0.07741 0.72231 0.74397 0.0
C2299 C 0.08243 0.73638 0.74764 0.0
C2300 C 0.0877 0.73886 0.76188 0.0
C2301 C 0.08796 0.72755 0.77217 0.0
C2302 C 0.0938 0.76932 0.72492 0.0
C2303 C 0.0824 0.77009 0.71466 0.0
C2304 C 0.09375 0.75849 0.73573 0.0
C2305 C 0.08224 0.74831 0.73657 0.0
C2306 C 0.07067 0.74939 0.72648 0.0
C2307 C 0.0708 0.7601 0.71561 0.0
H2308 H 0.29035 0.06262 0.76223 0.0
H2309 H 0.27514 0.10352 0.78029 0.0
H2310 H 0.27061 0.06316 0.74431 0.0
H2311 H 0.2553 0.10404 0.76234 0.0
H2312 H 0.23491 0.10735 0.71557 0.0
H2313 H 0.253 0.107 0.73524 0.0
H2314 H 0.24356 0.0614 0.74308 0.0
H2315 H 0.22558 0.06171 0.72337 0.0
C2316 C 0.28273 0.07168 0.76242 0.0
C2317 C 0.28428 0.08303 0.77264 0.0
C2318 C 0.27137 0.07195 0.75221 0.0
C2319 C 0.2614 0.08364 0.75193 0.0
C2320 C 0.26289 0.09495 0.76223 0.0
C2321 C 0.27419 0.09461 0.77254 0.0
C2322 C 0.23661 0.0973 0.72158 0.0
C2323 C 0.22889 0.08454 0.71789 0.0
C2324 C 0.24692 0.09711 0.73289 0.0
C2325 C 0.24974 0.08415 0.74065 0.0
C2326 C 0.24175 0.0715 0.73716 0.0
C2327 C 0.23141 0.0717 0.72592 0.0
H2328 H 0.92754 0.29845 0.75264 0.0
H2329 H 0.91034 0.26826 0.78461 0.0
H2330 H 0.92775 0.27911 0.7344 0.0
H2331 H 0.91101 0.24867 0.76646 0.0
H2332 H 0.89884 0.22207 0.72538 0.0
H2333 H 0.89907 0.24067 0.74453 0.0
H2334 H 0.94007 0.25725 0.72782 0.0
H2335 H 0.93952 0.23902 0.70844 0.0
C2336 C 0.92394 0.28762 0.75581 0.0
C2337 C 0.91892 0.28486 0.77005 0.0
C2338 C 0.92415 0.27649 0.74537 0.0
C2339 C 0.91945 0.26228 0.74895 0.0
C2340 C 0.91453 0.25951 0.76326 0.0
C2341 C 0.91423 0.2707 0.7737 0.0
C2342 C 0.90791 0.22967 0.72586 0.0
C2343 C 0.91911 0.22917 0.71537 0.0
C2344 C 0.9081 0.24028 0.73688 0.0
C2345 C 0.91955 0.25053 0.73769 0.0
C2346 C 0.93092 0.24974 0.72737 0.0
C2347 C 0.93067 0.23923 0.7163 0.0
H2348 H 0.69976 0.92643 0.74975 0.0
H2349 H 0.73098 0.91635 0.78372 0.0
H2350 H 0.7194 0.92706 0.73182 0.0
H2351 H 0.75078 0.9174 0.76583 0.0
H2352 H 0.77883 0.90285 0.72646 0.0
H2353 H 0.76008 0.90363 0.74541 0.0
H2354 H 0.74024 0.9409 0.72416 0.0
H2355 H 0.75873 0.9398 0.70501 0.0
C2356 C 0.71086 0.92451 0.75341 0.0
C2357 C 0.71384 0.92131 0.76812 0.0
C2358 C 0.72215 0.92496 0.74314 0.0
C2359 C 0.7367 0.9223 0.74737 0.0
C2360 C 0.73969 0.91931 0.76216 0.0
C2361 C 0.72836 0.91879 0.77243 0.0
C2362 C 0.7705 0.91125 0.7259 0.0
C2363 C 0.77018 0.9212 0.71422 0.0
C2364 C 0.7598 0.91176 0.7368 0.0
C2365 C 0.74859 0.92229 0.73628 0.0
C2366 C 0.74854 0.93248 0.72476 0.0
C2367 C 0.75919 0.93191 0.71383 0.0
H2368 H 0.24774 0.06757 0.29728 0.0
H2369 H 0.21569 0.08579 0.26776 0.0
H2370 H 0.26548 0.06658 0.27751 0.0
H2371 H 0.23339 0.08447 0.24777 0.0
H2372 H 0.27529 0.09768 0.22232 0.0
H2373 H 0.25572 0.09665 0.24042 0.0
H2374 H 0.27146 0.05454 0.25497 0.0
H2375 H 0.29124 0.05579 0.23716 0.0
C2376 C 0.24443 0.07118 0.2865 0.0
C2377 C 0.23035 0.07681 0.28408 0.0
C2378 C 0.25458 0.07053 0.27513 0.0
C2379 C 0.25088 0.07545 0.26103 0.0
C2380 C 0.23666 0.08077 0.25854 0.0
C2381 C 0.22649 0.08144 0.26996 0.0
C2382 C 0.27448 0.08816 0.22931 0.0
C2383 C 0.28486 0.07688 0.22842 0.0
C2384 C 0.26321 0.08752 0.23963 0.0
C2385 C 0.26206 0.07555 0.24922 0.0
C2386 C 0.27217 0.06404 0.24794 0.0
C2387 C 0.28347 0.06471 0.23768 0.0
H2388 H 0.927 0.3002 0.24953 0.0
H2389 H 0.92155 0.269 0.21451 0.0
H2390 H 0.92861 0.28032 0.26708 0.0
H2391 H 0.92374 0.24896 0.23203 0.0
H2392 H 0.90897 0.21905 0.26996 0.0
H2393 H 0.91003 0.23779 0.25105 0.0
H2394 H 0.94308 0.26081 0.27581 0.0
H2395 H 0.94153 0.24236 0.29497 0.0
C2396 C 0.92637 0.28906 0.24556 0.0
C2397 C 0.92409 0.28615 0.23067 0.0
C2398 C 0.9274 0.27763 0.25562 0.0
C2399 C 0.92632 0.26299 0.25101 0.0
C2400 C 0.9244 0.26009 0.23601 0.0
C2401 C 0.92323 0.27156 0.22596 0.0
C2402 C 0.91656 0.22805 0.27127 0.0
C2403 C 0.92507 0.22933 0.28398 0.0
C2404 C 0.91724 0.23877 0.26039 0.0
C2405 C 0.92656 0.25091 0.26193 0.0
C2406 C 0.93554 0.2518 0.2744 0.0
C2407 C 0.93473 0.24118 0.28534 0.0
H2408 H 0.75422 0.93138 0.29732 0.0
H2409 H 0.78554 0.90977 0.26938 0.0
H2410 H 0.73652 0.93151 0.27751 0.0
H2411 H 0.76798 0.91036 0.24925 0.0
H2412 H 0.72643 0.8984 0.2231 0.0
H2413 H 0.7456 0.89928 0.24163 0.0
H2414 H 0.73089 0.94227 0.25468 0.0
H2415 H 0.71142 0.94108 0.23657 0.0
C2416 C 0.75738 0.92682 0.28686 0.0
C2417 C 0.77125 0.92054 0.2849 0.0
C2418 C 0.74726 0.92698 0.27544 0.0
C2419 C 0.75081 0.92099 0.26172 0.0
C2420 C 0.7648 0.91489 0.25972 0.0
C2421 C 0.7749 0.91463 0.27121 0.0
C2422 C 0.72738 0.90807 0.22988 0.0
C2423 C 0.71737 0.91962 0.22848 0.0
C2424 C 0.73842 0.90862 0.24045 0.0
C2425 C 0.73976 0.9208 0.24976 0.0
C2426 C 0.73001 0.93257 0.24795 0.0
C2427 C 0.7189 0.93195 0.23749 0.0
H2428 H 0.06242 0.70296 0.24236 0.0
H2429 H 0.09586 0.72649 0.21872 0.0
H2430 H 0.06181 0.72223 0.26074 0.0
H2431 H 0.09562 0.74557 0.23736 0.0
H2432 H 0.0825 0.7835 0.26705 0.0
H2433 H 0.08149 0.76518 0.24766 0.0
H2434 H 0.07676 0.73119 0.28016 0.0
H2435 H 0.07732 0.74952 0.29943 0.0
C2436 C 0.06965 0.71226 0.2411 0.0
C2437 C 0.07922 0.71321 0.22914 0.0
C2438 C 0.06938 0.72326 0.25169 0.0
C2439 C 0.07875 0.73541 0.25061 0.0
C2440 C 0.08813 0.73646 0.23846 0.0
C2441 C 0.08833 0.72549 0.22782 0.0
C2442 C 0.0812 0.77211 0.27002 0.0
C2443 C 0.07996 0.76794 0.28474 0.0
C2444 C 0.0807 0.7616 0.25892 0.0
C2445 C 0.07902 0.74669 0.26233 0.0
C2446 C 0.0778 0.74258 0.2771 0.0
C2447 C 0.07822 0.75308 0.28817 0.0
H2448 H 0.24988 0.92646 0.70063 0.0
H2449 H 0.21556 0.91881 0.73215 0.0
H2450 H 0.26778 0.92738 0.72022 0.0
H2451 H 0.23349 0.92018 0.75195 0.0
H2452 H 0.27282 0.90521 0.78028 0.0
H2453 H 0.25349 0.90624 0.76191 0.0
H2454 H 0.27605 0.94171 0.74029 0.0
H2455 H 0.29556 0.94029 0.75835 0.0
C2456 C 0.24614 0.92516 0.71179 0.0
C2457 C 0.23132 0.92254 0.71485 0.0
C2458 C 0.2564 0.92579 0.72305 0.0
C2459 C 0.2521 0.92391 0.73769 0.0
C2460 C 0.23721 0.92151 0.74078 0.0
C2461 C 0.22692 0.92081 0.72946 0.0
C2462 C 0.27357 0.91328 0.77165 0.0
C2463 C 0.28575 0.92258 0.77066 0.0
C2464 C 0.26245 0.91394 0.76117 0.0
C2465 C 0.26325 0.92398 0.74954 0.0
C2466 C 0.27521 0.93364 0.74891 0.0
C2467 C 0.28637 0.93289 0.75931 0.0
H2468 H 0.07579 0.24944 0.69951 0.0
H2469 H 0.0819 0.21562 0.73189 0.0
H2470 H 0.07553 0.26784 0.7187 0.0
H2471 H 0.0811 0.23399 0.75124 0.0
H2472 H 0.096 0.27248 0.77989 0.0
H2473 H 0.09533 0.25344 0.76122 0.0
H2474 H 0.06144 0.27717 0.73834 0.0
H2475 H 0.06255 0.29642 0.7567 0.0
C2476 C 0.0769 0.24593 0.71077 0.0
C2477 C 0.07889 0.2311 0.71421 0.0
C2478 C 0.07666 0.25647 0.7218 0.0
C2479 C 0.07827 0.25243 0.73655 0.0
C2480 C 0.08005 0.23753 0.73999 0.0
C2481 C 0.08041 0.22699 0.72892 0.0
C2482 C 0.0884 0.27358 0.77087 0.0
C2483 C 0.07939 0.28596 0.76969 0.0
C2484 C 0.08793 0.26263 0.76022 0.0
C2485 C 0.07836 0.26377 0.74822 0.0
C2486 C 0.06915 0.27605 0.74726 0.0
C2487 C 0.06971 0.28705 0.75783 0.0
H2488 H 0.72709 0.09677 0.78101 0.0
H2489 H 0.70439 0.06181 0.75881 0.0
H2490 H 0.74612 0.09629 0.76229 0.0
H2491 H 0.72355 0.06106 0.74033 0.0
H2492 H 0.74975 0.07672 0.70082 0.0
H2493 H 0.73173 0.07608 0.72037 0.0
H2494 H 0.76609 0.08191 0.75228 0.0
H2495 H 0.78415 0.08291 0.73258 0.0
C2496 C 0.72626 0.08888 0.77222 0.0
C2497 C 0.71421 0.07939 0.77132 0.0
C2498 C 0.7372 0.08855 0.76154 0.0
C2499 C 0.73633 0.07869 0.74976 0.0
C2500 C 0.72444 0.06896 0.74911 0.0
C2501 C 0.71349 0.06933 0.75974 0.0
C2502 C 0.75347 0.07781 0.71201 0.0
C2503 C 0.76836 0.07987 0.71517 0.0
C2504 C 0.74315 0.07735 0.72323 0.0
C2505 C 0.74746 0.07889 0.73791 0.0
C2506 C 0.76239 0.08085 0.74109 0.0
C2507 C 0.77274 0.08134 0.72982 0.0
H2508 H 0.9194 0.73163 0.78495 0.0
H2509 H 0.9255 0.7005 0.74997 0.0
H2510 H 0.9213 0.7517 0.76739 0.0
H2511 H 0.92698 0.72041 0.73242 0.0
H2512 H 0.94136 0.75857 0.70538 0.0
H2513 H 0.94222 0.74014 0.7246 0.0
H2514 H 0.90757 0.76257 0.74763 0.0
H2515 H 0.90707 0.78126 0.72859 0.0
C2516 C 0.92114 0.72909 0.77351 0.0
C2517 C 0.9223 0.71451 0.76882 0.0
C2518 C 0.92215 0.74057 0.76344 0.0
C2519 C 0.92433 0.73769 0.74848 0.0
C2520 C 0.92558 0.72307 0.74388 0.0
C2521 C 0.92462 0.71163 0.75393 0.0
C2522 C 0.93405 0.75964 0.71464 0.0
C2523 C 0.92409 0.77129 0.71545 0.0
C2524 C 0.93446 0.74903 0.72561 0.0
C2525 C 0.92484 0.74976 0.73758 0.0
C2526 C 0.91523 0.76172 0.73864 0.0
C2527 C 0.91488 0.7724 0.72769 0.0
H2528 H 0.24422 0.29682 0.06543 0.0
H2529 H 0.22008 0.27369 0.09877 0.0
H2530 H 0.26246 0.27743 0.06512 0.0
H2531 H 0.2386 0.25447 0.09885 0.0
H2532 H 0.26768 0.21602 0.08553 0.0
H2533 H 0.24861 0.2347 0.08477 0.0
H2534 H 0.28168 0.26814 0.08004 0.0
H2535 H 0.30062 0.24946 0.08032 0.0
C2536 C 0.24285 0.2876 0.07273 0.0
C2537 C 0.23075 0.28678 0.08215 0.0
C2538 C 0.25335 0.27652 0.07263 0.0
C2539 C 0.25207 0.26442 0.08203 0.0
C2540 C 0.23985 0.26354 0.09134 0.0
C2541 C 0.22928 0.27458 0.09136 0.0
C2542 C 0.27083 0.22737 0.08429 0.0
C2543 C 0.28562 0.23129 0.08295 0.0
C2544 C 0.25992 0.23809 0.08394 0.0
C2545 C 0.26359 0.25294 0.08231 0.0
C2546 C 0.27842 0.2568 0.08103 0.0
C2547 C 0.2893 0.2461 0.0813 0.0
H2548 H 0.23874 0.70958 0.94052 0.0
H2549 H 0.22321 0.7265 0.89928 0.0
H2550 H 0.2567 0.72917 0.94187 0.0
H2551 H 0.24163 0.74579 0.90025 0.0
H2552 H 0.26947 0.78548 0.91124 0.0
H2553 H 0.24955 0.76767 0.91186 0.0
H2554 H 0.2789 0.73575 0.93072 0.0
H2555 H 0.29847 0.75367 0.93063 0.0
C2556 C 0.23922 0.71748 0.93171 0.0
C2557 C 0.22965 0.71648 0.91976 0.0
C2558 C 0.24958 0.72868 0.93243 0.0
C2559 C 0.25076 0.73902 0.92109 0.0
C2560 C 0.24094 0.73815 0.90926 0.0
C2561 C 0.23045 0.72704 0.90865 0.0
C2562 C 0.27158 0.77468 0.91563 0.0
C2563 C 0.28551 0.77097 0.92091 0.0
C2564 C 0.2602 0.76444 0.9159 0.0
C2565 C 0.26258 0.75023 0.92134 0.0
C2566 C 0.27654 0.74663 0.92671 0.0
C2567 C 0.28782 0.75689 0.92658 0.0
H2568 H 0.21435 0.26941 0.91398 0.0
H2569 H 0.24658 0.29933 0.93116 0.0
H2570 H 0.23223 0.24959 0.91496 0.0
H2571 H 0.26458 0.27979 0.93162 0.0
H2572 H 0.29104 0.2399 0.9423 0.0
H2573 H 0.27149 0.25794 0.94352 0.0
H2574 H 0.25381 0.24146 0.90288 0.0
H2575 H 0.27307 0.22303 0.90203 0.0
C2576 C 0.22526 0.27173 0.91796 0.0
C2577 C 0.22907 0.28589 0.92251 0.0
C2578 C 0.23554 0.26042 0.91843 0.0
C2579 C 0.24989 0.26307 0.92335 0.0
C2580 C 0.25359 0.27725 0.92802 0.0
C2581 C 0.24329 0.2885 0.92768 0.0
C2582 C 0.2829 0.24008 0.93369 0.0
C2583 C 0.2836 0.23012 0.92204 0.0
C2584 C 0.27174 0.25048 0.93433 0.0
C2585 C 0.26111 0.25128 0.92323 0.0
C2586 C 0.26168 0.24107 0.91172 0.0
C2587 C 0.27277 0.23056 0.91117 0.0
H2588 H 0.72772 0.22089 0.90521 0.0
H2589 H 0.70669 0.24015 0.94284 0.0
H2590 H 0.74708 0.23918 0.90665 0.0
H2591 H 0.72628 0.25811 0.94464 0.0
H2592 H 0.75101 0.29913 0.93022 0.0
H2593 H 0.73353 0.27918 0.93131 0.0
H2594 H 0.7677 0.24856 0.91996 0.0
H2595 H 0.78517 0.26874 0.91841 0.0
C2596 C 0.72738 0.22888 0.91394 0.0
C2597 C 0.71563 0.2292 0.92382 0.0
C2598 C 0.73852 0.23933 0.91483 0.0
C2599 C 0.73819 0.25022 0.92568 0.0
C2600 C 0.72673 0.25008 0.93595 0.0
C2601 C 0.71554 0.23974 0.93497 0.0
C2602 C 0.75483 0.28813 0.92806 0.0
C2603 C 0.76945 0.2855 0.92418 0.0
C2604 C 0.74482 0.27665 0.92879 0.0
C2605 C 0.74918 0.26222 0.92575 0.0
C2606 C 0.76392 0.25955 0.92219 0.0
C2607 C 0.77395 0.27109 0.92139 0.0
H2608 H 0.72275 0.77381 0.93824 0.0
H2609 H 0.71666 0.76721 0.89187 0.0
H2610 H 0.74213 0.7555 0.93832 0.0
H2611 H 0.73597 0.74873 0.89199 0.0
H2612 H 0.7803 0.72519 0.89612 0.0
H2613 H 0.76274 0.74538 0.89577 0.0
H2614 H 0.74293 0.72874 0.93529 0.0
H2615 H 0.76047 0.7087 0.93569 0.0
C2616 C 0.72561 0.7685 0.92805 0.0
C2617 C 0.71814 0.77188 0.91506 0.0
C2618 C 0.73665 0.75797 0.92811 0.0
C2619 C 0.74049 0.7506 0.91518 0.0
C2620 C 0.73333 0.7543 0.9021 0.0
C2621 C 0.72223 0.76483 0.90204 0.0
C2622 C 0.77223 0.72592 0.90476 0.0
C2623 C 0.77174 0.71538 0.91593 0.0
C2624 C 0.76214 0.73742 0.90451 0.0
C2625 C 0.75148 0.73866 0.91552 0.0
C2626 C 0.75113 0.72819 0.92676 0.0
C2627 C 0.76112 0.71666 0.92695 0.0
H2628 H 0.78597 0.7319 0.08049 0.0
H2629 H 0.75204 0.70065 0.07036 0.0
H2630 H 0.76804 0.75169 0.07936 0.0
H2631 H 0.73411 0.72023 0.06968 0.0
H2632 H 0.70659 0.75901 0.0579 0.0
H2633 H 0.72613 0.741 0.05616 0.0
H2634 H 0.74766 0.76083 0.09328 0.0
H2635 H 0.72831 0.77915 0.09467 0.0
C2636 C 0.7747 0.72928 0.07798 0.0
C2637 C 0.7704 0.71474 0.07552 0.0
C2638 C 0.76441 0.74059 0.07743 0.0
C2639 C 0.74961 0.73757 0.07445 0.0
C2640 C 0.74543 0.72302 0.07176 0.0
C2641 C 0.7557 0.71176 0.07224 0.0
C2642 C 0.71556 0.75958 0.06561 0.0
C2643 C 0.71589 0.77042 0.07647 0.0
C2644 C 0.72673 0.74922 0.06467 0.0
C2645 C 0.73842 0.74937 0.07466 0.0
C2646 C 0.73892 0.76047 0.0853 0.0
C2647 C 0.72779 0.77092 0.08616 0.0
H2648 H 0.22217 0.72344 0.10008 0.0
H2649 H 0.23667 0.70866 0.05766 0.0
H2650 H 0.24082 0.74251 0.09983 0.0
H2651 H 0.25493 0.72804 0.05709 0.0
H2652 H 0.29728 0.75142 0.06907 0.0
H2653 H 0.27751 0.73365 0.06842 0.0
H2654 H 0.2487 0.76491 0.08908 0.0
H2655 H 0.26873 0.78252 0.0902 0.0
C2656 C 0.22921 0.72442 0.09061 0.0
C2657 C 0.22805 0.71451 0.07894 0.0
C2658 C 0.23985 0.73541 0.09041 0.0
C2659 C 0.24948 0.73678 0.07848 0.0
C2660 C 0.24793 0.72713 0.0666 0.0
C2661 C 0.2374 0.71608 0.06687 0.0
C2662 C 0.28671 0.75451 0.07343 0.0
C2663 C 0.28456 0.76834 0.07971 0.0
C2664 C 0.27532 0.74435 0.07296 0.0
C2665 C 0.26145 0.74783 0.07865 0.0
C2666 C 0.25927 0.76178 0.08478 0.0
C2667 C 0.27072 0.77191 0.08535 0.0
H2668 H 0.72507 0.22147 0.09978 0.0
H2669 H 0.7067 0.23878 0.05988 0.0
H2670 H 0.7442 0.24006 0.09905 0.0
H2671 H 0.72608 0.25701 0.05881 0.0
H2672 H 0.75123 0.29823 0.07127 0.0
H2673 H 0.73311 0.27877 0.07099 0.0
H2674 H 0.76565 0.24824 0.08663 0.0
H2675 H 0.78366 0.26794 0.0874 0.0
C2676 C 0.72524 0.22915 0.09076 0.0
C2677 C 0.71436 0.22875 0.07995 0.0
C2678 C 0.73625 0.23975 0.09028 0.0
C2679 C 0.73666 0.25011 0.0789 0.0
C2680 C 0.72595 0.24941 0.06789 0.0
C2681 C 0.71489 0.2389 0.06845 0.0
C2682 C 0.75453 0.28734 0.07458 0.0
C2683 C 0.76885 0.2846 0.07938 0.0
C2684 C 0.74416 0.27614 0.07434 0.0
C2685 C 0.7479 0.26189 0.07877 0.0
C2686 C 0.76232 0.25912 0.08335 0.0
C2687 C 0.77267 0.27037 0.0837 0.0
H2688 H 0.5988 0.7721 0.72355 0.0
H2689 H 0.56049 0.79242 0.74221 0.0
H2690 H 0.59815 0.75339 0.74256 0.0
H2691 H 0.5594 0.77343 0.76081 0.0
H2692 H 0.57197 0.74852 0.80189 0.0
H2693 H 0.57189 0.76627 0.78213 0.0
H2694 H 0.58558 0.73263 0.75185 0.0
H2695 H 0.58622 0.71498 0.77188 0.0
C2696 C 0.59013 0.77244 0.73162 0.0
C2697 C 0.57977 0.78376 0.73148 0.0
C2698 C 0.58969 0.76167 0.74247 0.0
C2699 C 0.57877 0.76191 0.75332 0.0
C2700 C 0.56816 0.77305 0.75286 0.0
C2701 C 0.56872 0.7839 0.74214 0.0
C2702 C 0.57491 0.74491 0.791 0.0
C2703 C 0.57911 0.73037 0.78843 0.0
C2704 C 0.57477 0.75507 0.77962 0.0
C2705 C 0.57868 0.75091 0.76533 0.0
C2706 C 0.58271 0.73629 0.76274 0.0
C2707 C 0.58299 0.72614 0.77419 0.0
H2708 H 0.23177 0.58547 0.71516 0.0
H2709 H 0.19961 0.57617 0.74847 0.0
H2710 H 0.25113 0.58437 0.73356 0.0
H2711 H 0.21881 0.57547 0.76688 0.0
H2712 H 0.25726 0.56095 0.79412 0.0
H2713 H 0.23909 0.56076 0.77465 0.0
H2714 H 0.26039 0.59778 0.75442 0.0
H2715 H 0.27882 0.59769 0.77374 0.0
C2716 C 0.22885 0.58324 0.72642 0.0
C2717 C 0.2142 0.58087 0.73038 0.0
C2718 C 0.23991 0.58269 0.73697 0.0
C2719 C 0.23654 0.57979 0.7517 0.0
C2720 C 0.22185 0.57746 0.75561 0.0
C2721 C 0.21082 0.57796 0.74507 0.0
C2722 C 0.25812 0.56899 0.78546 0.0
C2723 C 0.26942 0.57937 0.78547 0.0
C2724 C 0.24765 0.56894 0.77435 0.0
C2725 C 0.2482 0.57934 0.76303 0.0
C2726 C 0.25972 0.58953 0.76289 0.0
C2727 C 0.27024 0.58953 0.77399 0.0
H2728 H 0.40396 0.22465 0.71846 0.0
H2729 H 0.44044 0.20344 0.73966 0.0
H2730 H 0.40446 0.24394 0.73691 0.0
H2731 H 0.44118 0.22286 0.75788 0.0
H2732 H 0.42491 0.24826 0.79787 0.0
H2733 H 0.42615 0.23036 0.77825 0.0
H2734 H 0.41845 0.26452 0.74653 0.0
H2735 H 0.41691 0.28246 0.7663 0.0
C2736 C 0.41221 0.22422 0.72695 0.0
C2737 C 0.42209 0.21249 0.72768 0.0
C2738 C 0.41255 0.23531 0.73748 0.0
C2739 C 0.4228 0.23489 0.74894 0.0
C2740 C 0.43298 0.22338 0.74936 0.0
C2741 C 0.43261 0.21229 0.73886 0.0
C2742 C 0.42355 0.25197 0.78671 0.0
C2743 C 0.42079 0.26676 0.78363 0.0
C2744 C 0.42435 0.24172 0.77544 0.0
C2745 C 0.42244 0.246 0.7608 0.0
C2746 C 0.41982 0.26084 0.7577 0.0
C2747 C 0.41901 0.27112 0.769 0.0
H2748 H 0.71564 0.4156 0.7659 0.0
H2749 H 0.74866 0.42738 0.79753 0.0
H2750 H 0.7339 0.41667 0.74644 0.0
H2751 H 0.76697 0.42806 0.77824 0.0
H2752 H 0.79426 0.44058 0.73923 0.0
H2753 H 0.77462 0.44165 0.75719 0.0
H2754 H 0.75496 0.40322 0.73795 0.0
H2755 H 0.77442 0.40243 0.71971 0.0
C2756 C 0.7268 0.41842 0.76868 0.0
C2757 C 0.73073 0.4214 0.78322 0.0
C2758 C 0.73728 0.41896 0.75755 0.0
C2759 C 0.75192 0.42244 0.76076 0.0
C2760 C 0.75577 0.42557 0.77532 0.0
C2761 C 0.74529 0.42509 0.78641 0.0
C2762 C 0.78567 0.43243 0.73877 0.0
C2763 C 0.7859 0.42138 0.72811 0.0
C2764 C 0.77446 0.43299 0.74912 0.0
C2765 C 0.76326 0.42245 0.7491 0.0
C2766 C 0.76331 0.4116 0.73819 0.0
C2767 C 0.7745 0.41109 0.72778 0.0
H2768 H 0.59601 0.22682 0.27885 0.0
H2769 H 0.56087 0.20424 0.25683 0.0
H2770 H 0.5958 0.24563 0.25999 0.0
H2771 H 0.56021 0.22333 0.23825 0.0
H2772 H 0.57497 0.24973 0.19863 0.0
H2773 H 0.57421 0.23163 0.21813 0.0
H2774 H 0.58263 0.26559 0.24993 0.0
H2775 H 0.58396 0.28358 0.23028 0.0
C2776 C 0.58809 0.226 0.27008 0.0
C2777 C 0.57851 0.21404 0.26926 0.0
C2778 C 0.58791 0.23683 0.25929 0.0
C2779 C 0.57803 0.23599 0.24752 0.0
C2780 C 0.56817 0.22419 0.24698 0.0
C2781 C 0.56846 0.2133 0.25768 0.0
C2782 C 0.57664 0.25331 0.2098 0.0
C2783 C 0.57956 0.26805 0.21294 0.0
C2784 C 0.57609 0.24296 0.22101 0.0
C2785 C 0.57831 0.24713 0.23565 0.0
C2786 C 0.58109 0.26194 0.23878 0.0
C2787 C 0.58177 0.27227 0.22753 0.0
H2788 H 0.7731 0.59937 0.27732 0.0
H2789 H 0.79129 0.55909 0.26076 0.0
H2790 H 0.75389 0.59832 0.25885 0.0
H2791 H 0.77179 0.55764 0.2427 0.0
H2792 H 0.74711 0.56953 0.20111 0.0
H2793 H 0.76496 0.56928 0.22077 0.0
H2794 H 0.73239 0.58626 0.25055 0.0
H2795 H 0.71466 0.58705 0.23058 0.0
C2796 C 0.77285 0.59018 0.26985 0.0
C2797 C 0.78375 0.57938 0.27038 0.0
C2798 C 0.76178 0.58951 0.25932 0.0
C2799 C 0.7613 0.57794 0.24918 0.0
C2800 C 0.77197 0.56689 0.25009 0.0
C2801 C 0.78311 0.56765 0.26051 0.0
C2802 C 0.74373 0.57313 0.21188 0.0
C2803 C 0.7295 0.57833 0.21431 0.0
C2804 C 0.75395 0.5729 0.2232 0.0
C2805 C 0.75015 0.57771 0.23731 0.0
C2806 C 0.73578 0.58267 0.23979 0.0
C2807 C 0.72558 0.58304 0.22839 0.0
H2808 H 0.40778 0.71855 0.23048 0.0
H2809 H 0.43706 0.74439 0.20393 0.0
H2810 H 0.40833 0.73733 0.24941 0.0
H2811 H 0.43803 0.76295 0.22302 0.0
H2812 H 0.42104 0.80077 0.25068 0.0
H2813 H 0.4222 0.78117 0.23279 0.0
H2814 H 0.42294 0.74931 0.2677 0.0
H2815 H 0.4213 0.76905 0.28566 0.0
C2816 C 0.41449 0.72816 0.22878 0.0
C2817 C 0.42228 0.73007 0.21569 0.0
C2818 C 0.41488 0.73889 0.23967 0.0
C2819 C 0.42314 0.75172 0.23771 0.0
C2820 C 0.43131 0.75335 0.22478 0.0
C2821 C 0.43084 0.74268 0.21387 0.0
C2822 C 0.4215 0.78958 0.25455 0.0
C2823 C 0.42106 0.78643 0.26957 0.0
C2824 C 0.42228 0.77833 0.24429 0.0
C2825 C 0.42274 0.76363 0.24878 0.0
C2826 C 0.42244 0.76049 0.26385 0.0
C2827 C 0.42157 0.77179 0.27414 0.0
H2828 H 0.26553 0.44345 0.21078 0.0
H2829 H 0.27818 0.40006 0.22442 0.0
H2830 H 0.24771 0.44451 0.23055 0.0
H2831 H 0.25994 0.40083 0.24386 0.0
H2832 H 0.23248 0.41023 0.28408 0.0
H2833 H 0.25266 0.41132 0.2666 0.0
H2834 H 0.2247 0.43404 0.23598 0.0
H2835 H 0.20484 0.4334 0.2536 0.0
C2836 C 0.26449 0.43414 0.21804 0.0
C2837 C 0.27317 0.42164 0.21602 0.0
C2838 C 0.25421 0.4347 0.22932 0.0
C2839 C 0.25224 0.42269 0.23874 0.0
C2840 C 0.26125 0.41035 0.23695 0.0
C2841 C 0.27166 0.40986 0.22575 0.0
C2842 C 0.23073 0.41556 0.27366 0.0
C2843 C 0.21709 0.42172 0.2702 0.0
C2844 C 0.24225 0.41612 0.2636 0.0
C2845 C 0.24034 0.42276 0.24985 0.0
C2846 C 0.2267 0.42907 0.24654 0.0
C2847 C 0.21525 0.42861 0.25661 0.0
H2848 H 0.7147 0.58361 0.76859 0.0
H2849 H 0.74879 0.57621 0.80042 0.0
H2850 H 0.73287 0.58273 0.74898 0.0
H2851 H 0.76693 0.57571 0.78098 0.0
H2852 H 0.79424 0.56165 0.7425 0.0
H2853 H 0.77496 0.56095 0.76084 0.0
H2854 H 0.75314 0.5969 0.73929 0.0
H2855 H 0.7723 0.59732 0.72068 0.0
C2856 C 0.72607 0.5818 0.77138 0.0
C2857 C 0.73033 0.57994 0.78602 0.0
C2858 C 0.73648 0.58139 0.76017 0.0
C2859 C 0.75135 0.57912 0.7634 0.0
C2860 C 0.75555 0.57722 0.77807 0.0
C2861 C 0.74516 0.5776 0.78924 0.0
C2862 C 0.78529 0.56935 0.74163 0.0
C2863 C 0.78481 0.57959 0.7302 0.0
C2864 C 0.77427 0.56901 0.75219 0.0
C2865 C 0.76256 0.57895 0.75162 0.0
C2866 C 0.76193 0.589 0.73998 0.0
C2867 C 0.77294 0.5893 0.72937 0.0
H2868 H 0.42133 0.79925 0.74964 0.0
H2869 H 0.42041 0.76734 0.71485 0.0
H2870 H 0.42223 0.77971 0.76764 0.0
H2871 H 0.4218 0.74767 0.73288 0.0
H2872 H 0.4065 0.71733 0.77027 0.0
H2873 H 0.40719 0.73608 0.75133 0.0
H2874 H 0.43767 0.76115 0.77735 0.0
H2875 H 0.43656 0.74263 0.79646 0.0
C2876 C 0.42147 0.78804 0.74584 0.0
C2877 C 0.42077 0.78482 0.73085 0.0
C2878 C 0.4221 0.77681 0.75616 0.0
C2879 C 0.42215 0.76209 0.75173 0.0
C2880 C 0.4216 0.75888 0.73669 0.0
C2881 C 0.42088 0.77014 0.72635 0.0
C2882 C 0.41341 0.72681 0.77188 0.0
C2883 C 0.42139 0.72858 0.78488 0.0
C2884 C 0.41388 0.73753 0.76099 0.0
C2885 C 0.42241 0.7502 0.76284 0.0
C2886 C 0.43075 0.75169 0.77568 0.0
C2887 C 0.4302 0.74103 0.7866 0.0
H2888 H 0.25097 0.4269 0.79925 0.0
H2889 H 0.2834 0.41366 0.7676 0.0
H2890 H 0.23249 0.42755 0.78013 0.0
H2891 H 0.26504 0.41486 0.74827 0.0
H2892 H 0.2248 0.40155 0.72136 0.0
H2893 H 0.24411 0.40213 0.7397 0.0
H2894 H 0.22433 0.44038 0.75923 0.0
H2895 H 0.20472 0.43938 0.74121 0.0
C2896 C 0.25418 0.42431 0.78815 0.0
C2897 C 0.26861 0.42019 0.78492 0.0
C2898 C 0.2436 0.42477 0.77714 0.0
C2899 C 0.24724 0.42127 0.76261 0.0
C2900 C 0.26178 0.4174 0.75936 0.0
C2901 C 0.27233 0.4168 0.77041 0.0
C2902 C 0.22464 0.41011 0.72954 0.0
C2903 C 0.21322 0.42037 0.72992 0.0
C2904 C 0.23576 0.41051 0.74001 0.0
C2905 C 0.23579 0.42128 0.75102 0.0
C2906 C 0.22453 0.43176 0.75111 0.0
C2907 C 0.21333 0.43126 0.74073 0.0
H2908 H 0.56708 0.25352 0.79396 0.0
H2909 H 0.59256 0.28309 0.76739 0.0
H2910 H 0.56648 0.23599 0.77394 0.0
H2911 H 0.59164 0.2657 0.74714 0.0
H2912 H 0.60205 0.22282 0.72214 0.0
H2913 H 0.60152 0.24219 0.74047 0.0
H2914 H 0.55643 0.23178 0.75011 0.0
H2915 H 0.55714 0.21215 0.7321 0.0
C2916 C 0.57244 0.25633 0.78377 0.0
C2917 C 0.5799 0.26965 0.78225 0.0
C2918 C 0.57201 0.24632 0.77225 0.0
C2919 C 0.57898 0.24944 0.75889 0.0
C2920 C 0.5863 0.26287 0.75732 0.0
C2921 C 0.58677 0.27287 0.76889 0.0
C2922 C 0.59198 0.2248 0.72807 0.0
C2923 C 0.57967 0.21592 0.72577 0.0
C2924 C 0.59165 0.23594 0.73854 0.0
C2925 C 0.57897 0.23847 0.74688 0.0
C2926 C 0.56647 0.22994 0.74411 0.0
C2927 C 0.56684 0.21876 0.73371 0.0
H2928 H 0.77048 0.407 0.28044 0.0
H2929 H 0.79548 0.43915 0.25656 0.0
H2930 H 0.75146 0.4079 0.26181 0.0
H2931 H 0.77623 0.44051 0.23818 0.0
H2932 H 0.7485 0.42502 0.19951 0.0
H2933 H 0.76669 0.42607 0.21887 0.0
H2934 H 0.73245 0.42219 0.25124 0.0
H2935 H 0.71428 0.42059 0.23175 0.0
C2936 C 0.7718 0.41441 0.2713 0.0
C2937 C 0.78449 0.42294 0.26989 0.0
C2938 C 0.76086 0.41501 0.26065 0.0
C2939 C 0.76231 0.42425 0.24843 0.0
C2940 C 0.77486 0.43307 0.24729 0.0
C2941 C 0.78586 0.43237 0.25786 0.0
C2942 C 0.74485 0.42447 0.21077 0.0
C2943 C 0.72998 0.42267 0.21412 0.0
C2944 C 0.75528 0.42517 0.22189 0.0
C2945 C 0.75107 0.42422 0.23666 0.0
C2946 C 0.73612 0.42273 0.24 0.0
C2947 C 0.72569 0.4219 0.22884 0.0
H2948 H 0.57462 0.80079 0.25067 0.0
H2949 H 0.58361 0.76895 0.28434 0.0
H2950 H 0.57411 0.78143 0.23243 0.0
H2951 H 0.5825 0.74942 0.2662 0.0
H2952 H 0.59671 0.72099 0.22732 0.0
H2953 H 0.59599 0.73964 0.24635 0.0
H2954 H 0.56058 0.76128 0.22368 0.0
H2955 H 0.56177 0.74294 0.2044 0.0
C2956 C 0.5763 0.7896 0.25419 0.0
C2957 C 0.5792 0.78637 0.26891 0.0
C2958 C 0.57591 0.77847 0.24375 0.0
C2959 C 0.57824 0.76381 0.24781 0.0
C2960 C 0.58089 0.76059 0.26262 0.0
C2961 C 0.58144 0.77176 0.27305 0.0
C2962 C 0.58874 0.72971 0.22647 0.0
C2963 C 0.57936 0.73057 0.21435 0.0
C2964 C 0.58825 0.74036 0.23742 0.0
C2965 C 0.57827 0.75204 0.23655 0.0
C2966 C 0.56861 0.75263 0.22458 0.0
C2967 C 0.56921 0.74206 0.21357 0.0
H2968 H 0.2766 0.60205 0.22434 0.0
H2969 H 0.25966 0.56135 0.20744 0.0
H2970 H 0.25797 0.60188 0.24345 0.0
H2971 H 0.2414 0.56086 0.2268 0.0
H2972 H 0.20027 0.57318 0.25172 0.0
H2973 H 0.21953 0.57315 0.2334 0.0
H2974 H 0.25001 0.58996 0.26539 0.0
H2975 H 0.23049 0.59045 0.28363 0.0
C2976 C 0.26899 0.593 0.22482 0.0
C2977 C 0.26951 0.58177 0.21436 0.0
C2978 C 0.25836 0.59284 0.23582 0.0
C2979 C 0.24811 0.58139 0.23664 0.0
C2980 C 0.24891 0.57 0.22633 0.0
C2981 C 0.25944 0.57023 0.21528 0.0
C2982 C 0.21109 0.57685 0.25485 0.0
C2983 C 0.21388 0.58181 0.2691 0.0
C2984 C 0.22217 0.57674 0.24437 0.0
C2985 C 0.23637 0.58148 0.24791 0.0
C2986 C 0.23917 0.58641 0.26222 0.0
C2987 C 0.22802 0.58661 0.2727 0.0
H2988 H 0.4388 0.22323 0.27561 0.0
H2989 H 0.39281 0.21677 0.26703 0.0
H2990 H 0.43932 0.24319 0.25791 0.0
H2991 H 0.39335 0.23663 0.24919 0.0
H2992 H 0.39725 0.28069 0.22593 0.0
H2993 H 0.3968 0.26337 0.24631 0.0
H2994 H 0.43738 0.24455 0.23111 0.0
H2995 H 0.43789 0.2619 0.21089 0.0
C2996 C 0.42877 0.22616 0.27003 0.0
C2997 C 0.41578 0.21839 0.27264 0.0
C2998 C 0.42909 0.23753 0.25984 0.0
C2999 C 0.4164 0.24142 0.25208 0.0
C3000 C 0.40328 0.23399 0.25508 0.0
C3001 C 0.40298 0.22257 0.26525 0.0
C3002 C 0.40613 0.27294 0.22704 0.0
C3003 C 0.41759 0.27262 0.21681 0.0
C3004 C 0.40583 0.26298 0.23865 0.0
C3005 C 0.41705 0.25259 0.24031 0.0
C3006 C 0.42867 0.25253 0.23025 0.0
C3007 C 0.42892 0.26242 0.21861 0.0
H3008 H 0.77304 0.72288 0.59912 0.0
H3009 H 0.79358 0.74201 0.56117 0.0
H3010 H 0.75415 0.74162 0.5984 0.0
H3011 H 0.77434 0.76041 0.55999 0.0
H3012 H 0.74799 0.80088 0.57254 0.0
H3013 H 0.76629 0.78157 0.57229 0.0
H3014 H 0.73344 0.75032 0.58572 0.0
H3015 H 0.7153 0.76984 0.58657 0.0
C3016 C 0.77339 0.73099 0.5905 0.0
C3017 C 0.78481 0.73104 0.58024 0.0
C3018 C 0.7625 0.7417 0.59002 0.0
C3019 C 0.76269 0.7526 0.57915 0.0
C3020 C 0.77397 0.75239 0.56869 0.0
C3021 C 0.78496 0.74179 0.56929 0.0
C3022 C 0.74469 0.78987 0.5754 0.0
C3023 C 0.73024 0.78686 0.57962 0.0
C3024 C 0.75516 0.77875 0.57516 0.0
C3025 C 0.75139 0.76433 0.57898 0.0
C3026 C 0.73683 0.76132 0.58296 0.0
C3027 C 0.72639 0.77248 0.58336 0.0
H3028 H 0.7996 0.25095 0.42699 0.0
H3029 H 0.76923 0.28325 0.41077 0.0
H3030 H 0.78022 0.23274 0.42716 0.0
H3031 H 0.74961 0.26517 0.41146 0.0
H3032 H 0.72242 0.22477 0.39908 0.0
H3033 H 0.74121 0.24371 0.39935 0.0
H3034 H 0.7586 0.22575 0.43949 0.0
H3035 H 0.74019 0.20654 0.43884 0.0
C3036 C 0.78872 0.25419 0.42361 0.0
C3037 C 0.78593 0.26851 0.41886 0.0
C3038 C 0.77757 0.24377 0.4238 0.0
C3039 C 0.7633 0.24747 0.41937 0.0
C3040 C 0.7605 0.26187 0.41474 0.0
C3041 C 0.77171 0.27227 0.41443 0.0
C3042 C 0.73025 0.22493 0.40797 0.0
C3043 C 0.72991 0.21414 0.41889 0.0
C3044 C 0.74097 0.23583 0.40819 0.0
C3045 C 0.7515 0.23625 0.41941 0.0
C3046 C 0.75088 0.22562 0.43051 0.0
C3047 C 0.74027 0.21465 0.4302 0.0
H3048 H 0.77272 0.7184 0.4043 0.0
H3049 H 0.79474 0.74026 0.4399 0.0
H3050 H 0.75361 0.73708 0.40467 0.0
H3051 H 0.77555 0.7587 0.44051 0.0
H3052 H 0.75017 0.7985 0.4241 0.0
H3053 H 0.76797 0.77877 0.42511 0.0
H3054 H 0.73337 0.74717 0.41896 0.0
H3055 H 0.71552 0.76705 0.41764 0.0
C3056 C 0.77338 0.72709 0.41231 0.0
C3057 C 0.78527 0.72794 0.42199 0.0
C3058 C 0.7624 0.73775 0.41258 0.0
C3059 C 0.76311 0.74944 0.42255 0.0
C3060 C 0.7748 0.74999 0.43251 0.0
C3061 C 0.78576 0.73937 0.43222 0.0
C3062 C 0.74634 0.78734 0.42302 0.0
C3063 C 0.73146 0.78432 0.42079 0.0
C3064 C 0.75654 0.77601 0.42369 0.0
C3065 C 0.75209 0.76138 0.42217 0.0
C3066 C 0.73717 0.75834 0.42003 0.0
C3067 C 0.72694 0.7697 0.41936 0.0
H3068 H 0.19919 0.75002 0.42488 0.0
H3069 H 0.23037 0.7162 0.41422 0.0
H3070 H 0.21884 0.76796 0.42562 0.0
H3071 H 0.25017 0.73411 0.41531 0.0
H3072 H 0.27806 0.77404 0.40141 0.0
H3073 H 0.25937 0.75498 0.40181 0.0
H3074 H 0.23978 0.77506 0.43985 0.0
H3075 H 0.25822 0.79428 0.43919 0.0
C3076 C 0.21027 0.7464 0.42281 0.0
C3077 C 0.21324 0.73172 0.41947 0.0
C3078 C 0.22156 0.75667 0.42333 0.0
C3079 C 0.2361 0.75247 0.42057 0.0
C3080 C 0.23908 0.73774 0.41733 0.0
C3081 C 0.22776 0.72747 0.41678 0.0
C3082 C 0.26981 0.7743 0.40991 0.0
C3083 C 0.26953 0.78569 0.42021 0.0
C3084 C 0.25914 0.76335 0.41019 0.0
C3085 C 0.24801 0.76355 0.42081 0.0
C3086 C 0.24803 0.77473 0.43136 0.0
C3087 C 0.25865 0.78569 0.43104 0.0
H3088 H 0.28361 0.23341 0.42099 0.0
H3089 H 0.24979 0.20062 0.42427 0.0
H3090 H 0.26513 0.25261 0.42239 0.0
H3091 H 0.23128 0.21971 0.42512 0.0
H3092 H 0.20178 0.25707 0.43802 0.0
H3093 H 0.22113 0.23879 0.43953 0.0
H3094 H 0.24635 0.26296 0.40766 0.0
H3095 H 0.22723 0.28147 0.40662 0.0
C3096 C 0.27222 0.23032 0.42201 0.0
C3097 C 0.26813 0.21554 0.4225 0.0
C3098 C 0.26161 0.24131 0.42272 0.0
C3099 C 0.24668 0.23773 0.42381 0.0
C3100 C 0.24267 0.2229 0.42452 0.0
C3101 C 0.25327 0.21194 0.42394 0.0
C3102 C 0.21152 0.2585 0.43143 0.0
C3103 C 0.213 0.27066 0.42218 0.0
C3104 C 0.22257 0.24799 0.43222 0.0
C3105 C 0.2353 0.24935 0.42367 0.0
C3106 C 0.23682 0.26166 0.41457 0.0
C3107 C 0.22582 0.27223 0.41389 0.0
H3108 H 0.20277 0.25325 0.56854 0.0
H3109 H 0.23101 0.28381 0.59086 0.0
H3110 H 0.22243 0.23539 0.56798 0.0
H3111 H 0.25097 0.26607 0.58987 0.0
H3112 H 0.27648 0.22379 0.60099 0.0
H3113 H 0.25825 0.24326 0.60049 0.0
H3114 H 0.24529 0.2299 0.55704 0.0
H3115 H 0.26314 0.21016 0.5578 0.0
C3116 C 0.21326 0.25621 0.57318 0.0
C3117 C 0.21535 0.26992 0.57977 0.0
C3118 C 0.22459 0.246 0.57277 0.0
C3119 C 0.23835 0.24928 0.57883 0.0
C3120 C 0.24048 0.2631 0.58526 0.0
C3121 C 0.22908 0.2733 0.58575 0.0
C3122 C 0.2698 0.22511 0.5913 0.0
C3123 C 0.27114 0.21539 0.57949 0.0
C3124 C 0.25939 0.23632 0.59097 0.0
C3125 C 0.25019 0.2381 0.57877 0.0
C3126 C 0.25196 0.22867 0.56674 0.0
C3127 C 0.26226 0.2174 0.56713 0.0
H3128 H 0.80129 0.25062 0.57594 0.0
H3129 H 0.76994 0.28556 0.58114 0.0
H3130 H 0.78148 0.23292 0.57493 0.0
H3131 H 0.74998 0.26782 0.57971 0.0
H3132 H 0.72043 0.22929 0.5945 0.0
H3133 H 0.73919 0.24828 0.59389 0.0
H3134 H 0.76185 0.22469 0.55977 0.0
H3135 H 0.74336 0.20555 0.56073 0.0
C3136 C 0.79013 0.25453 0.57672 0.0
C3137 C 0.78716 0.26947 0.57863 0.0
C3138 C 0.77876 0.24439 0.57604 0.0
C3139 C 0.76411 0.24894 0.57718 0.0
C3140 C 0.76113 0.26393 0.57896 0.0
C3141 C 0.77255 0.2741 0.5797 0.0
C3142 C 0.72938 0.22824 0.58681 0.0
C3143 C 0.7305 0.21589 0.57775 0.0
C3144 C 0.74009 0.23916 0.58639 0.0
C3145 C 0.75211 0.23796 0.57686 0.0
C3146 C 0.75291 0.22582 0.56745 0.0
C3147 C 0.74226 0.21489 0.56793 0.0
H3148 H 0.25196 0.79798 0.56898 0.0
H3149 H 0.28362 0.76787 0.58687 0.0
H3150 H 0.23371 0.77863 0.56855 0.0
H3151 H 0.2655 0.74828 0.58597 0.0
H3152 H 0.22431 0.72234 0.59881 0.0
H3153 H 0.24364 0.74069 0.59801 0.0
H3154 H 0.2268 0.75655 0.55679 0.0
H3155 H 0.20719 0.73856 0.55791 0.0
C3156 C 0.25507 0.78716 0.57265 0.0
C3157 C 0.2692 0.78444 0.578 0.0
C3158 C 0.24463 0.77602 0.57232 0.0
C3159 C 0.24811 0.76185 0.57722 0.0
C3160 C 0.26237 0.7591 0.58232 0.0
C3161 C 0.27278 0.77029 0.58276 0.0
C3162 C 0.22481 0.72971 0.58955 0.0
C3163 C 0.2142 0.72909 0.57847 0.0
C3164 C 0.23594 0.74018 0.58903 0.0
C3165 C 0.23677 0.75017 0.57736 0.0
C3166 C 0.22635 0.74923 0.56608 0.0
C3167 C 0.21516 0.73886 0.56667 0.0
H3168 H 0.03595 0.2112 0.3412 0.0
H3169 H 0.03907 0.17135 0.31607 0.0
H3170 H 0.00953 0.20863 0.34212 0.0
H3171 H 0.01255 0.16844 0.31741 0.0
H3172 H 0.96252 0.19787 0.34856 0.0
H3173 H 0.98898 0.19559 0.35111 0.0
H3174 H 0.99183 0.17998 0.30658 0.0
H3175 H 0.96537 0.18175 0.30427 0.0
C3176 C 0.031 0.20171 0.33613 0.0
C3177 C 0.03956 0.19154 0.32846 0.0
C3178 C 0.01582 0.20017 0.33674 0.0
C3179 C 0.00885 0.18836 0.32977 0.0
C3180 C 0.01752 0.17781 0.32268 0.0
C3181 C 0.03272 0.17941 0.32199 0.0
C3182 C 0.96881 0.19373 0.33941 0.0
C3183 C 0.96191 0.19009 0.32618 0.0
C3184 C 0.98397 0.19251 0.34083 0.0
C3185 C 0.99259 0.18776 0.329 0.0
C3186 C 0.98557 0.18351 0.31598 0.0
C3187 C 0.97039 0.18461 0.31461 0.0
H3188 H 0.82739 0.9626 0.31095 0.0
H3189 H 0.79455 0.96472 0.3448 0.0
H3190 H 0.83022 0.98909 0.312 0.0
H3191 H 0.7969 0.99123 0.34548 0.0
H3192 H 0.80827 0.03884 0.34891 0.0
H3193 H 0.81112 0.01235 0.35105 0.0
H3194 H 0.81597 0.00923 0.30413 0.0
H3195 H 0.81365 0.03559 0.30211 0.0
C3196 C 0.82086 0.96873 0.3187 0.0
C3197 C 0.81066 0.96163 0.3277 0.0
C3198 C 0.8224 0.98392 0.31924 0.0
C3199 C 0.81365 0.99235 0.32868 0.0
C3200 C 0.80394 0.98512 0.33818 0.0
C3201 C 0.80251 0.96991 0.33773 0.0
C3202 C 0.81017 0.03247 0.3391 0.0
C3203 C 0.81066 0.03926 0.32534 0.0
C3204 C 0.81172 0.0173 0.34031 0.0
C3205 C 0.8137 0.00861 0.32776 0.0
C3206 C 0.8147 0.01554 0.31406 0.0
C3207 C 0.81325 0.03068 0.31288 0.0
H3208 H 0.96323 0.7961 0.34471 0.0
H3209 H 0.96092 0.82449 0.30707 0.0
H3210 H 0.98976 0.79824 0.34476 0.0
H3211 H 0.98745 0.82715 0.30743 0.0
H3212 H 0.03392 0.80976 0.29932 0.0
H3213 H 0.00755 0.81212 0.30122 0.0
H3214 H 0.01099 0.81282 0.34838 0.0
H3215 H 0.03748 0.80989 0.34641 0.0
C3216 C 0.96839 0.80307 0.33664 0.0
C3217 C 0.96003 0.81 0.32579 0.0
C3218 C 0.98362 0.80437 0.33671 0.0
C3219 C 0.99081 0.81276 0.32601 0.0
C3220 C 0.98232 0.82034 0.31564 0.0
C3221 C 0.96711 0.81891 0.31549 0.0
C3222 C 0.02907 0.81057 0.3101 0.0
C3223 C 0.03775 0.80954 0.32272 0.0
C3224 C 0.01392 0.81204 0.3112 0.0
C3225 C 0.00707 0.81264 0.32496 0.0
C3226 C 0.01585 0.81216 0.3376 0.0
C3227 C 0.03104 0.81057 0.33649 0.0
H3228 H 0.17387 0.03871 0.31019 0.0
H3229 H 0.2078 0.03553 0.34287 0.0
H3230 H 0.17047 0.01227 0.31113 0.0
H3231 H 0.20475 0.00909 0.34352 0.0
H3232 H 0.19144 0.96197 0.34763 0.0
H3233 H 0.18953 0.98855 0.34968 0.0
H3234 H 0.18427 0.99167 0.30281 0.0
H3235 H 0.18575 0.96522 0.30086 0.0
C3236 C 0.18051 0.03237 0.31766 0.0
C3237 C 0.19118 0.03916 0.32637 0.0
C3238 C 0.17863 0.01721 0.31815 0.0
C3239 C 0.18743 0.00851 0.32729 0.0
C3240 C 0.19766 0.01543 0.33646 0.0
C3241 C 0.19949 0.0306 0.33603 0.0
C3242 C 0.18965 0.96836 0.33781 0.0
C3243 C 0.18882 0.96154 0.32408 0.0
C3244 C 0.18865 0.98358 0.33897 0.0
C3245 C 0.18683 0.99228 0.32641 0.0
C3246 C 0.18546 0.98534 0.31275 0.0
C3247 C 0.18641 0.97016 0.31161 0.0
H3248 H 0.03641 0.81626 0.69775 0.0
H3249 H 0.0393 0.80809 0.65133 0.0
H3250 H 0.00996 0.818 0.69586 0.0
H3251 H 0.01277 0.81032 0.6493 0.0
H3252 H 0.96583 0.79274 0.65688 0.0
H3253 H 0.99225 0.79568 0.6561 0.0
H3254 H 0.98921 0.83116 0.6872 0.0
H3255 H 0.96275 0.82782 0.68832 0.0
C3256 C 0.0314 0.81514 0.68707 0.0
C3257 C 0.03991 0.81191 0.67471 0.0
C3258 C 0.01621 0.81623 0.68596 0.0
C3259 C 0.00917 0.81421 0.67243 0.0
C3260 C 0.01779 0.81168 0.65993 0.0
C3261 C 0.033 0.8105 0.66107 0.0
C3262 C 0.97079 0.80129 0.66341 0.0
C3263 C 0.96225 0.80996 0.67277 0.0
C3264 C 0.98595 0.80305 0.66289 0.0
C3265 C 0.99292 0.8136 0.67166 0.0
C3266 C 0.98425 0.82275 0.6805 0.0
C3267 C 0.96908 0.8209 0.68109 0.0
H3268 H 0.20008 0.03852 0.65184 0.0
H3269 H 0.18438 0.03584 0.69628 0.0
H3270 H 0.1982 0.01199 0.64958 0.0
H3271 H 0.18311 0.0094 0.69432 0.0
H3272 H 0.17405 0.96235 0.68563 0.0
H3273 H 0.17148 0.98884 0.68419 0.0
H3274 H 0.2108 0.99111 0.65801 0.0
H3275 H 0.21292 0.96462 0.65894 0.0
C3276 C 0.19616 0.03225 0.66109 0.0
C3277 C 0.19242 0.03923 0.67425 0.0
C3278 C 0.19517 0.01704 0.65985 0.0
C3279 C 0.19059 0.00847 0.6718 0.0
C3280 C 0.18645 0.01558 0.6848 0.0
C3281 C 0.18727 0.03077 0.68597 0.0
C3282 C 0.182 0.96853 0.6794 0.0
C3283 C 0.19373 0.96145 0.67247 0.0
C3284 C 0.18061 0.98373 0.67865 0.0
C3285 C 0.19102 0.9922 0.67112 0.0
C3286 C 0.20245 0.98499 0.66375 0.0
C3287 C 0.20374 0.96978 0.66436 0.0
H3288 H 0.9647 0.18405 0.6982 0.0
H3289 H 0.96179 0.19061 0.65153 0.0
H3290 H 0.99111 0.18216 0.69636 0.0
H3291 H 0.98832 0.18814 0.64954 0.0
H3292 H 0.03549 0.2055 0.65643 0.0
H3293 H 0.00906 0.20258 0.65553 0.0
H3294 H 0.01172 0.16877 0.68848 0.0
H3295 H 0.03813 0.17219 0.68976 0.0
C3296 C 0.9697 0.18477 0.68748 0.0
C3297 C 0.96119 0.1876 0.67502 0.0
C3298 C 0.98487 0.18358 0.6864 0.0
C3299 C 0.99192 0.18506 0.6728 0.0
C3300 C 0.9833 0.1872 0.66023 0.0
C3301 C 0.96809 0.18851 0.66134 0.0
C3302 C 0.03044 0.19732 0.66334 0.0
C3303 C 0.03884 0.18919 0.67329 0.0
C3304 C 0.01527 0.19556 0.66276 0.0
C3305 C 0.00818 0.18552 0.67203 0.0
C3306 C 0.01675 0.17683 0.68141 0.0
C3307 C 0.0319 0.17871 0.68209 0.0
H3308 H 0.82604 0.03823 0.68986 0.0
H3309 H 0.79148 0.036 0.6578 0.0
H3310 H 0.82933 0.01183 0.68819 0.0
H3311 H 0.79418 0.00959 0.65662 0.0
H3312 H 0.80587 0.96255 0.65106 0.0
H3313 H 0.80793 0.98912 0.64963 0.0
H3314 H 0.81717 0.99074 0.69598 0.0
H3315 H 0.81582 0.96426 0.69717 0.0
C3316 C 0.81918 0.03208 0.68242 0.0
C3317 C 0.80845 0.03915 0.67403 0.0
C3318 C 0.82098 0.01693 0.68153 0.0
C3319 C 0.81193 0.00847 0.67238 0.0
C3320 C 0.80152 0.01568 0.66363 0.0
C3321 C 0.79988 0.03085 0.66437 0.0
C3322 C 0.80858 0.96861 0.66086 0.0
C3323 C 0.81062 0.96135 0.67423 0.0
C3324 C 0.80965 0.98385 0.66009 0.0
C3325 C 0.81257 0.99217 0.67272 0.0
C3326 C 0.81513 0.98478 0.68597 0.0
C3327 C 0.81426 0.96955 0.68668 0.0
H3328 H 0.34882 0.96001 0.19136 0.0
H3329 H 0.30245 0.96382 0.18325 0.0
H3330 H 0.35138 0.98649 0.18914 0.0
H3331 H 0.30491 0.99024 0.1814 0.0
H3332 H 0.31373 0.03727 0.1715 0.0
H3333 H 0.31448 0.01081 0.16799 0.0
H3334 H 0.34446 0.00693 0.20431 0.0
H3335 H 0.34399 0.03334 0.20754 0.0
C3336 C 0.33921 0.96649 0.18893 0.0
C3337 C 0.32541 0.95987 0.18759 0.0
C3338 C 0.34066 0.98166 0.18775 0.0
C3339 C 0.32834 0.99052 0.18522 0.0
C3340 C 0.31466 0.98377 0.18319 0.0
C3341 C 0.31322 0.96861 0.18434 0.0
C3342 C 0.32066 0.03076 0.17856 0.0
C3343 C 0.32871 0.03734 0.18987 0.0
C3344 C 0.32103 0.01561 0.17661 0.0
C3345 C 0.32943 0.00672 0.18594 0.0
C3346 C 0.338 0.01343 0.19681 0.0
C3347 C 0.33767 0.02857 0.19873 0.0
H3348 H 0.96406 0.30581 0.18299 0.0
H3349 H 0.96203 0.35 0.19946 0.0
H3350 H 0.9905 0.30761 0.1812 0.0
H3351 H 0.98854 0.35208 0.19713 0.0
H3352 H 0.03568 0.34143 0.21188 0.0
H3353 H 0.00923 0.34286 0.20971 0.0
H3354 H 0.01118 0.31796 0.16956 0.0
H3355 H 0.03768 0.31605 0.17212 0.0
C3356 C 0.96926 0.31603 0.18593 0.0
C3357 C 0.961 0.32772 0.19148 0.0
C3358 C 0.98445 0.31712 0.18482 0.0
C3359 C 0.99173 0.32998 0.1891 0.0
C3360 C 0.98334 0.34192 0.194 0.0
C3361 C 0.96814 0.34077 0.19524 0.0
C3362 C 0.03047 0.33641 0.2025 0.0
C3363 C 0.03872 0.32851 0.19225 0.0
C3364 C 0.01528 0.33732 0.20118 0.0
C3365 C 0.008 0.33045 0.1895 0.0
C3366 C 0.01638 0.32314 0.17886 0.0
C3367 C 0.03157 0.32212 0.18026 0.0
H3368 H 0.69669 0.96313 0.18209 0.0
H3369 H 0.65188 0.96061 0.19676 0.0
H3370 H 0.69475 0.98959 0.18052 0.0
H3371 H 0.64966 0.9871 0.19455 0.0
H3372 H 0.65878 0.03409 0.21013 0.0
H3373 H 0.65789 0.00766 0.20761 0.0
H3374 H 0.68502 0.01045 0.16897 0.0
H3375 H 0.6864 0.03693 0.17195 0.0
C3376 C 0.68631 0.96823 0.18466 0.0
C3377 C 0.67448 0.95983 0.18968 0.0
C3378 C 0.68515 0.98342 0.18367 0.0
C3379 C 0.67207 0.99057 0.18751 0.0
C3380 C 0.66 0.98203 0.1918 0.0
C3381 C 0.66122 0.96683 0.19297 0.0
C3382 C 0.66442 0.02906 0.201 0.0
C3383 C 0.67277 0.03755 0.19131 0.0
C3384 C 0.66383 0.01389 0.19948 0.0
C3385 C 0.67145 0.00684 0.18812 0.0
C3386 C 0.67926 0.01545 0.17802 0.0
C3387 C 0.67998 0.03064 0.17966 0.0
H3388 H 0.03548 0.65465 0.20379 0.0
H3389 H 0.0376 0.69042 0.17305 0.0
H3390 H 0.00897 0.65425 0.20157 0.0
H3391 H 0.01108 0.68967 0.17033 0.0
H3392 H 0.96453 0.69851 0.1873 0.0
H3393 H 0.9909 0.69666 0.1849 0.0
H3394 H 0.98782 0.64953 0.18723 0.0
H3395 H 0.96134 0.65149 0.1902 0.0
C3396 C 0.03028 0.66222 0.1963 0.0
C3397 C 0.03858 0.67267 0.18871 0.0
C3398 C 0.01507 0.66194 0.19495 0.0
C3399 C 0.00782 0.67202 0.18587 0.0
C3400 C 0.01625 0.68195 0.17767 0.0
C3401 C 0.03146 0.68233 0.17914 0.0
C3402 C 0.96946 0.68774 0.18714 0.0
C3403 C 0.96089 0.67515 0.18905 0.0
C3404 C 0.98461 0.68666 0.18565 0.0
C3405 C 0.99156 0.67294 0.1859 0.0
C3406 C 0.98288 0.66029 0.18722 0.0
C3407 C 0.9677 0.66139 0.18883 0.0
H3408 H 0.3119 0.96222 0.82754 0.0
H3409 H 0.34384 0.96492 0.79288 0.0
H3410 H 0.31285 0.98872 0.83048 0.0
H3411 H 0.34435 0.99136 0.79531 0.0
H3412 H 0.3026 0.03587 0.81606 0.0
H3413 H 0.30444 0.00942 0.81772 0.0
H3414 H 0.35084 0.01213 0.80902 0.0
H3415 H 0.34879 0.03863 0.80671 0.0
C3416 C 0.31919 0.96848 0.82061 0.0
C3417 C 0.32773 0.96152 0.80993 0.0
C3418 C 0.31967 0.98369 0.82221 0.0
C3419 C 0.32857 0.99227 0.81304 0.0
C3420 C 0.33751 0.98517 0.80272 0.0
C3421 C 0.33716 0.96997 0.80125 0.0
C3422 C 0.31322 0.03082 0.81466 0.0
C3423 C 0.32552 0.0393 0.81113 0.0
C3424 C 0.31431 0.01563 0.81572 0.0
C3425 C 0.32779 0.00855 0.81344 0.0
C3426 C 0.34023 0.01715 0.81056 0.0
C3427 C 0.33909 0.03235 0.80933 0.0
H3428 H 0.03481 0.30008 0.81352 0.0
H3429 H 0.03736 0.3472 0.81218 0.0
H3430 H 0.00838 0.30149 0.81567 0.0
H3431 H 0.01083 0.3487 0.81493 0.0
H3432 H 0.96357 0.34369 0.79742 0.0
H3433 H 0.99004 0.34428 0.80011 0.0
H3434 H 0.98778 0.30766 0.82993 0.0
H3435 H 0.96133 0.30673 0.82671 0.0
C3436 C 0.02972 0.31076 0.81401 0.0
C3437 C 0.03813 0.32352 0.81256 0.0
C3438 C 0.01454 0.31159 0.81534 0.0
C3439 C 0.0074 0.32522 0.81541 0.0
C3440 C 0.01592 0.33801 0.81465 0.0
C3441 C 0.03113 0.33717 0.81318 0.0
C3442 C 0.96873 0.33589 0.80469 0.0
C3443 C 0.96041 0.32507 0.81173 0.0
C3444 C 0.98392 0.33627 0.80632 0.0
C3445 C 0.99112 0.32593 0.81515 0.0
C3446 C 0.98266 0.3156 0.8228 0.0
C3447 C 0.96748 0.31512 0.82104 0.0
H3448 H 0.6504 0.03793 0.80603 0.0
H3449 H 0.69599 0.03513 0.818 0.0
H3450 H 0.64831 0.01138 0.80776 0.0
H3451 H 0.69411 0.00865 0.81918 0.0
H3452 H 0.65722 0.96479 0.79027 0.0
H3453 H 0.65621 0.99116 0.79351 0.0
H3454 H 0.68467 0.98763 0.8311 0.0
H3455 H 0.68609 0.96124 0.82746 0.0
C3456 C 0.65994 0.03164 0.80915 0.0
C3457 C 0.67338 0.03858 0.81179 0.0
C3458 C 0.65878 0.01642 0.81004 0.0
C3459 C 0.67107 0.00782 0.81346 0.0
C3460 C 0.68436 0.01488 0.81671 0.0
C3461 C 0.68547 0.03009 0.81594 0.0
C3462 C 0.66312 0.96963 0.79933 0.0
C3463 C 0.67185 0.96098 0.80852 0.0
C3464 C 0.66246 0.98476 0.80126 0.0
C3465 C 0.67043 0.99158 0.81253 0.0
C3466 C 0.67861 0.98279 0.82215 0.0
C3467 C 0.67937 0.96766 0.82013 0.0
H3468 H 0.9648 0.65611 0.79133 0.0
H3469 H 0.96263 0.6889 0.82523 0.0
H3470 H 0.99129 0.65524 0.79382 0.0
H3471 H 0.98911 0.68768 0.82813 0.0
H3472 H 0.03597 0.69746 0.81244 0.0
H3473 H 0.00953 0.69575 0.81424 0.0
H3474 H 0.01211 0.64892 0.80834 0.0
H3475 H 0.03868 0.65076 0.80604 0.0
C3476 C 0.96997 0.66292 0.79953 0.0
C3477 C 0.96168 0.67268 0.80798 0.0
C3478 C 0.98517 0.66236 0.80103 0.0
C3479 C 0.99238 0.67148 0.8111 0.0
C3480 C 0.98395 0.68072 0.82006 0.0
C3481 C 0.96877 0.68136 0.81847 0.0
C3482 C 0.03092 0.68677 0.81169 0.0
C3483 C 0.03938 0.67425 0.80899 0.0
C3484 C 0.01574 0.68577 0.81283 0.0
C3485 C 0.00864 0.6722 0.8114 0.0
C3486 C 0.01719 0.65958 0.80927 0.0
C3487 C 0.03241 0.6606 0.80805 0.0
H3488 H 0.18546 0.30285 0.03599 0.0
H3489 H 0.19186 0.34953 0.03914 0.0
H3490 H 0.18346 0.30487 0.00955 0.0
H3491 H 0.18946 0.35164 0.01262 0.0
H3492 H 0.20687 0.34455 0.96533 0.0
H3493 H 0.2043 0.34521 0.99183 0.0
H3494 H 0.16934 0.31352 0.98922 0.0
H3495 H 0.17224 0.31256 0.96272 0.0
C3496 C 0.18616 0.31359 0.03104 0.0
C3497 C 0.18892 0.32602 0.03962 0.0
C3498 C 0.18492 0.31477 0.01587 0.0
C3499 C 0.18636 0.32842 0.00893 0.0
C3500 C 0.18851 0.34094 0.0176 0.0
C3501 C 0.1898 0.33975 0.03279 0.0
C3502 C 0.19851 0.33788 0.9704 0.0
C3503 C 0.18986 0.3284 0.96198 0.0
C3504 C 0.19696 0.33832 0.9856 0.0
C3505 C 0.18669 0.32932 0.99269 0.0
C3506 C 0.17754 0.32038 0.98414 0.0
C3507 C 0.17914 0.3199 0.96895 0.0
H3508 H 0.18408 0.6982 0.96421 0.0
H3509 H 0.19178 0.65177 0.96043 0.0
H3510 H 0.18194 0.69575 0.99059 0.0
H3511 H 0.18916 0.64919 0.98688 0.0
H3512 H 0.20622 0.6557 0.03422 0.0
H3513 H 0.20358 0.6554 0.00775 0.0
H3514 H 0.16834 0.68675 0.01091 0.0
H3515 H 0.17137 0.68739 0.0374 0.0
C3516 C 0.18501 0.68741 0.969 0.0
C3517 C 0.18822 0.6752 0.96027 0.0
C3518 C 0.18369 0.68597 0.98414 0.0
C3519 C 0.18546 0.67227 0.99091 0.0
C3520 C 0.18798 0.65994 0.98206 0.0
C3521 C 0.18939 0.6614 0.9669 0.0
C3522 C 0.19777 0.66237 0.02927 0.0
C3523 C 0.1891 0.67168 0.03786 0.0
C3524 C 0.19619 0.66214 0.01408 0.0
C3525 C 0.18582 0.67114 0.00714 0.0
C3526 C 0.17663 0.67988 0.01585 0.0
C3527 C 0.17829 0.68019 0.03104 0.0
H3528 H 0.34657 0.18932 0.03936 0.0
H3529 H 0.29946 0.18856 0.03621 0.0
H3530 H 0.34837 0.18653 0.01285 0.0
H3531 H 0.30119 0.18632 0.00982 0.0
H3532 H 0.30678 0.17444 0.96312 0.0
H3533 H 0.30757 0.17147 0.98961 0.0
H3534 H 0.34421 0.20127 0.99178 0.0
H3535 H 0.34374 0.20374 0.96528 0.0
C3536 C 0.33662 0.18846 0.03301 0.0
C3537 C 0.32288 0.18922 0.03984 0.0
C3538 C 0.33763 0.18695 0.01781 0.0
C3539 C 0.32493 0.18626 0.00915 0.0
C3540 C 0.31121 0.18657 0.01611 0.0
C3541 C 0.31021 0.18797 0.03127 0.0
C3542 C 0.31515 0.18015 0.96926 0.0
C3543 C 0.32512 0.18941 0.96216 0.0
C3544 C 0.31555 0.17853 0.98445 0.0
C3545 C 0.32582 0.18628 0.99289 0.0
C3546 C 0.33624 0.19501 0.98566 0.0
C3547 C 0.33593 0.1965 0.97046 0.0
H3548 H 0.7888 0.34301 0.96514 0.0
H3549 H 0.82625 0.31443 0.96211 0.0
H3550 H 0.79137 0.34366 0.9916 0.0
H3551 H 0.82924 0.31552 0.98859 0.0
H3552 H 0.81545 0.30345 0.03561 0.0
H3553 H 0.81702 0.30569 0.00917 0.0
H3554 H 0.80491 0.35129 0.01233 0.0
H3555 H 0.80279 0.34881 0.03882 0.0
C3556 C 0.79778 0.33712 0.97012 0.0
C3557 C 0.80723 0.32856 0.96158 0.0
C3558 C 0.79933 0.33756 0.98531 0.0
C3559 C 0.81046 0.32955 0.9923 0.0
C3560 C 0.82037 0.32158 0.98363 0.0
C3561 C 0.81872 0.32102 0.96844 0.0
C3562 C 0.8133 0.314 0.03067 0.0
C3563 C 0.80887 0.32592 0.03926 0.0
C3564 C 0.81429 0.31533 0.01549 0.0
C3565 C 0.81101 0.32866 0.00855 0.0
C3566 C 0.80725 0.34078 0.01726 0.0
C3567 C 0.80612 0.3394 0.03245 0.0
H3568 H 0.68931 0.82782 0.03697 0.0
H3569 H 0.65685 0.79363 0.0347 0.0
H3570 H 0.68813 0.83072 0.01049 0.0
H3571 H 0.65617 0.79591 0.00825 0.0
H3572 H 0.65231 0.80621 0.96072 0.0
H3573 H 0.65003 0.80905 0.98716 0.0
H3574 H 0.69642 0.81786 0.99004 0.0
H3575 H 0.69844 0.81575 0.96367 0.0
C3576 C 0.68185 0.82099 0.0308 0.0
C3577 C 0.67324 0.81044 0.03787 0.0
C3578 C 0.68125 0.82256 0.0156 0.0
C3579 C 0.6722 0.81342 0.00712 0.0
C3580 C 0.66314 0.80329 0.01435 0.0
C3581 C 0.66358 0.8019 0.02955 0.0
C3582 C 0.66194 0.80898 0.96703 0.0
C3583 C 0.67556 0.8107 0.96016 0.0
C3584 C 0.66068 0.81051 0.9822 0.0
C3585 C 0.67305 0.81358 0.99084 0.0
C3586 C 0.68658 0.81575 0.98381 0.0
C3587 C 0.68778 0.81443 0.96866 0.0
H3588 H 0.79204 0.65676 0.03423 0.0
H3589 H 0.8276 0.6877 0.03684 0.0
H3590 H 0.79479 0.65576 0.00777 0.0
H3591 H 0.83075 0.68634 0.01039 0.0
H3592 H 0.8159 0.69701 0.96337 0.0
H3593 H 0.81755 0.69515 0.98981 0.0
H3594 H 0.80917 0.64871 0.98711 0.0
H3595 H 0.80703 0.65071 0.96056 0.0
C3596 C 0.80065 0.66312 0.02916 0.0
C3597 C 0.8095 0.67242 0.03757 0.0
C3598 C 0.8023 0.66248 0.01399 0.0
C3599 C 0.81292 0.67107 0.0069 0.0
C3600 C 0.82227 0.67981 0.01545 0.0
C3601 C 0.82053 0.68053 0.03061 0.0
C3602 C 0.81459 0.68636 0.9684 0.0
C3603 C 0.81122 0.67403 0.95991 0.0
C3604 C 0.81564 0.68527 0.98358 0.0
C3605 C 0.81343 0.67178 0.99064 0.0
C3606 C 0.81069 0.65931 0.98206 0.0
C3607 C 0.80957 0.66043 0.96684 0.0
H3608 H 0.30393 0.81488 0.03548 0.0
H3609 H 0.34923 0.80191 0.03843 0.0
H3610 H 0.30621 0.8171 0.0091 0.0
H3611 H 0.35175 0.80468 0.01201 0.0
H3612 H 0.34343 0.78995 0.96436 0.0
H3613 H 0.34411 0.79181 0.99087 0.0
H3614 H 0.31611 0.82986 0.98889 0.0
H3615 H 0.315 0.82758 0.96233 0.0
C3616 C 0.31447 0.81279 0.0305 0.0
C3617 C 0.32636 0.8081 0.039 0.0
C3618 C 0.31582 0.81416 0.01535 0.0
C3619 C 0.32916 0.81101 0.00835 0.0
C3620 C 0.34124 0.80694 0.01698 0.0
C3621 C 0.33984 0.80543 0.03213 0.0
C3622 C 0.33758 0.79882 0.96958 0.0
C3623 C 0.32905 0.80853 0.96129 0.0
C3624 C 0.33803 0.79996 0.9848 0.0
C3625 C 0.33007 0.81093 0.99209 0.0
C3626 C 0.32214 0.8211 0.98369 0.0
C3627 C 0.32158 0.81986 0.96846 0.0
H3628 H 0.68646 0.17249 0.9617 0.0
H3629 H 0.65709 0.20929 0.96511 0.0
H3630 H 0.68498 0.16885 0.98809 0.0
H3631 H 0.65599 0.20603 0.99148 0.0
H3632 H 0.6502 0.19338 0.03829 0.0
H3633 H 0.6482 0.19159 0.01172 0.0
H3634 H 0.69422 0.18106 0.0091 0.0
H3635 H 0.69603 0.18235 0.03557 0.0
C3636 C 0.67961 0.17973 0.96809 0.0
C3637 C 0.67197 0.19123 0.96137 0.0
C3638 C 0.67882 0.17771 0.98322 0.0
C3639 C 0.67047 0.18722 0.99197 0.0
C3640 C 0.66238 0.19837 0.98511 0.0
C3641 C 0.66308 0.20031 0.96998 0.0
C3642 C 0.65981 0.19043 0.03202 0.0
C3643 C 0.67329 0.1881 0.03899 0.0
C3644 C 0.6587 0.1895 0.01679 0.0
C3645 C 0.67108 0.18632 0.00822 0.0
C3646 C 0.6844 0.18336 0.01531 0.0
C3647 C 0.68548 0.18419 0.03051 0.0
H3648 H 0.46418 0.68261 0.80355 0.0
H3649 H 0.46042 0.69478 0.84902 0.0
H3650 H 0.49064 0.68129 0.80606 0.0
H3651 H 0.48689 0.69295 0.85172 0.0
H3652 H 0.53383 0.70985 0.84408 0.0
H3653 H 0.50739 0.70704 0.8442 0.0
H3654 H 0.5113 0.66912 0.81622 0.0
H3655 H 0.53779 0.67232 0.81571 0.0
C3656 C 0.469 0.6847 0.81417 0.0
C3657 C 0.46026 0.68893 0.82605 0.0
C3658 C 0.48418 0.68387 0.81564 0.0
C3659 C 0.49094 0.68712 0.82908 0.0
C3660 C 0.48208 0.69065 0.84114 0.0
C3661 C 0.46691 0.69161 0.83963 0.0
C3662 C 0.52905 0.70081 0.8381 0.0
C3663 C 0.53786 0.69138 0.82979 0.0
C3664 C 0.51388 0.69913 0.83824 0.0
C3665 C 0.50717 0.68788 0.83015 0.0
C3666 C 0.51607 0.67806 0.82236 0.0
C3667 C 0.53126 0.67982 0.82214 0.0
H3668 H 0.29079 0.53421 0.8432 0.0
H3669 H 0.32661 0.53717 0.81259 0.0
H3670 H 0.29333 0.50774 0.84369 0.0
H3671 H 0.32959 0.51068 0.81349 0.0
H3672 H 0.31514 0.4637 0.8022 0.0
H3673 H 0.31681 0.49013 0.80436 0.0
H3674 H 0.30722 0.48697 0.85055 0.0
H3675 H 0.30498 0.46047 0.84819 0.0
C3676 C 0.29942 0.52921 0.83681 0.0
C3677 C 0.30841 0.53774 0.82775 0.0
C3678 C 0.30095 0.51401 0.83715 0.0
C3679 C 0.31161 0.50701 0.82854 0.0
C3680 C 0.32107 0.51566 0.82003 0.0
C3681 C 0.31944 0.53085 0.81959 0.0
C3682 C 0.31357 0.46863 0.81285 0.0
C3683 C 0.30981 0.46004 0.825 0.0
C3684 C 0.31462 0.48381 0.81413 0.0
C3685 C 0.31207 0.49075 0.82762 0.0
C3686 C 0.30898 0.48204 0.83993 0.0
C3687 C 0.30779 0.46685 0.83861 0.0
H3688 H 0.53744 0.30277 0.84629 0.0
H3689 H 0.53499 0.31445 0.80062 0.0
H3690 H 0.51089 0.3046 0.8482 0.0
H3691 H 0.50849 0.31569 0.80229 0.0
H3692 H 0.46111 0.32472 0.81001 0.0
H3693 H 0.48759 0.3278 0.81126 0.0
H3694 H 0.49036 0.29089 0.84068 0.0
H3695 H 0.46391 0.28829 0.83988 0.0
C3696 C 0.53122 0.30581 0.83669 0.0
C3697 C 0.53827 0.3084 0.8233 0.0
C3698 C 0.51599 0.30676 0.83773 0.0
C3699 C 0.50747 0.31016 0.82537 0.0
C3700 C 0.51464 0.31325 0.81211 0.0
C3701 C 0.52986 0.31245 0.81111 0.0
C3702 C 0.4674 0.31742 0.81689 0.0
C3703 C 0.46047 0.30622 0.82478 0.0
C3704 C 0.48258 0.31911 0.81755 0.0
C3705 C 0.49119 0.30952 0.82597 0.0
C3706 C 0.48413 0.29863 0.83424 0.0
C3707 C 0.46894 0.29706 0.83371 0.0
H3708 H 0.68633 0.46484 0.79945 0.0
H3709 H 0.69299 0.46157 0.84607 0.0
H3710 H 0.68441 0.49126 0.80151 0.0
H3711 H 0.69049 0.48805 0.84829 0.0
H3712 H 0.70684 0.53549 0.84245 0.0
H3713 H 0.70464 0.50899 0.84258 0.0
H3714 H 0.67078 0.51166 0.80968 0.0
H3715 H 0.67346 0.53819 0.80917 0.0
C3716 C 0.68709 0.46977 0.81019 0.0
C3717 C 0.68992 0.46116 0.82258 0.0
C3718 C 0.68589 0.48494 0.81141 0.0
C3719 C 0.68736 0.49186 0.82507 0.0
C3720 C 0.68957 0.48314 0.83756 0.0
C3721 C 0.69091 0.46795 0.83632 0.0
C3722 C 0.69881 0.53042 0.83537 0.0
C3723 C 0.69042 0.53889 0.8257 0.0
C3724 C 0.69746 0.5152 0.8355 0.0
C3725 C 0.68759 0.50812 0.82606 0.0
C3726 C 0.67871 0.5167 0.81688 0.0
C3727 C 0.68016 0.53191 0.81665 0.0
H3728 H 0.46128 0.32701 0.187 0.0
H3729 H 0.46342 0.2913 0.15619 0.0
H3730 H 0.48777 0.32979 0.18564 0.0
H3731 H 0.48991 0.29373 0.15516 0.0
H3732 H 0.53731 0.30556 0.1501 0.0
H3733 H 0.51078 0.30805 0.14806 0.0
H3734 H 0.50808 0.31599 0.19458 0.0
H3735 H 0.53449 0.31394 0.19649 0.0
C3736 C 0.46741 0.31984 0.17984 0.0
C3737 C 0.46031 0.30886 0.1718 0.0
C3738 C 0.4826 0.32137 0.17912 0.0
C3739 C 0.49101 0.31189 0.17041 0.0
C3740 C 0.48379 0.30133 0.16186 0.0
C3741 C 0.4686 0.29987 0.16252 0.0
C3742 C 0.53103 0.30806 0.15982 0.0
C3743 C 0.53795 0.30948 0.17346 0.0
C3744 C 0.51583 0.3094 0.15868 0.0
C3745 C 0.50726 0.31214 0.17117 0.0
C3746 C 0.51431 0.31409 0.1847 0.0
C3747 C 0.52947 0.31281 0.18582 0.0
H3748 H 0.69613 0.46119 0.15063 0.0
H3749 H 0.68328 0.4644 0.19595 0.0
H3750 H 0.69387 0.48767 0.14812 0.0
H3751 H 0.68156 0.49081 0.19366 0.0
H3752 H 0.67199 0.53774 0.1849 0.0
H3753 H 0.66914 0.51125 0.18371 0.0
H3754 H 0.70724 0.50852 0.15584 0.0
H3755 H 0.70967 0.53499 0.15659 0.0
C3756 C 0.69273 0.46756 0.16002 0.0
C3757 C 0.68996 0.46076 0.1735 0.0
C3758 C 0.69152 0.48274 0.15862 0.0
C3759 C 0.68764 0.49144 0.17071 0.0
C3760 C 0.68437 0.4845 0.18405 0.0
C3761 C 0.68545 0.46934 0.1854 0.0
C3762 C 0.67959 0.53147 0.17833 0.0
C3763 C 0.69111 0.53841 0.17092 0.0
C3764 C 0.67803 0.51628 0.17773 0.0
C3765 C 0.68806 0.50769 0.16981 0.0
C3766 C 0.6992 0.51475 0.1619 0.0
C3767 C 0.70067 0.52994 0.1624 0.0
H3768 H 0.53861 0.67329 0.19028 0.0
H3769 H 0.53612 0.70678 0.15712 0.0
H3770 H 0.51208 0.6705 0.18946 0.0
H3771 H 0.50966 0.70457 0.15676 0.0
H3772 H 0.46231 0.69363 0.15281 0.0
H3773 H 0.48878 0.691 0.15079 0.0
H3774 H 0.49143 0.68347 0.19741 0.0
H3775 H 0.46499 0.6854 0.19921 0.0
C3776 C 0.53238 0.67999 0.18276 0.0
C3777 C 0.53941 0.69029 0.17382 0.0
C3778 C 0.51716 0.67849 0.18236 0.0
C3779 C 0.50863 0.68741 0.17315 0.0
C3780 C 0.5158 0.69735 0.16384 0.0
C3781 C 0.53101 0.6987 0.1641 0.0
C3782 C 0.46857 0.6912 0.16257 0.0
C3783 C 0.46161 0.68979 0.17617 0.0
C3784 C 0.48376 0.68979 0.16145 0.0
C3785 C 0.49234 0.68716 0.17396 0.0
C3786 C 0.48524 0.68528 0.18749 0.0
C3787 C 0.47005 0.68648 0.18856 0.0
H3788 H 0.29331 0.46514 0.15649 0.0
H3789 H 0.32884 0.46266 0.18749 0.0
H3790 H 0.29585 0.49158 0.1556 0.0
H3791 H 0.33178 0.48916 0.18623 0.0
H3792 H 0.3161 0.53603 0.19701 0.0
H3793 H 0.31834 0.50964 0.19507 0.0
H3794 H 0.31004 0.51234 0.14861 0.0
H3795 H 0.3073 0.53882 0.1507 0.0
C3796 C 0.30187 0.47024 0.16289 0.0
C3797 C 0.31077 0.46186 0.17218 0.0
C3798 C 0.30341 0.48541 0.1623 0.0
C3799 C 0.31397 0.49256 0.17092 0.0
C3800 C 0.32336 0.48405 0.17966 0.0
C3801 C 0.32174 0.46887 0.18032 0.0
C3802 C 0.31494 0.53102 0.18635 0.0
C3803 C 0.31139 0.53947 0.17404 0.0
C3804 C 0.31633 0.51586 0.1852 0.0
C3805 C 0.31429 0.50881 0.17169 0.0
C3806 C 0.31143 0.51738 0.15923 0.0
C3807 C 0.30995 0.53256 0.1604 0.0
H3808 H 0.80317 0.53464 0.68419 0.0
H3809 H 0.84955 0.53841 0.69221 0.0
H3810 H 0.80564 0.50831 0.68183 0.0
H3811 H 0.85219 0.51199 0.68932 0.0
H3812 H 0.84557 0.46439 0.70576 0.0
H3813 H 0.8461 0.49087 0.70326 0.0
H3814 H 0.81451 0.48817 0.66819 0.0
H3815 H 0.81358 0.46168 0.67113 0.0
C3816 C 0.81396 0.52985 0.68514 0.0
C3817 C 0.82615 0.53857 0.68851 0.0
C3818 C 0.81542 0.51473 0.68369 0.0
C3819 C 0.82912 0.50796 0.68544 0.0
C3820 C 0.84143 0.5168 0.68814 0.0
C3821 C 0.83995 0.53194 0.68971 0.0
C3822 C 0.8389 0.46944 0.69737 0.0
C3823 C 0.82941 0.461 0.68875 0.0
C3824 C 0.83927 0.48464 0.69586 0.0
C3825 C 0.83023 0.49172 0.68561 0.0
C3826 C 0.82138 0.48313 0.67641 0.0
C3827 C 0.82091 0.46794 0.67802 0.0
H3828 H 0.53829 0.84606 0.68976 0.0
H3829 H 0.53514 0.79902 0.6873 0.0
H3830 H 0.5118 0.84797 0.68694 0.0
H3831 H 0.50874 0.80083 0.68509 0.0
H3832 H 0.46186 0.80682 0.67399 0.0
H3833 H 0.48833 0.80753 0.67092 0.0
H3834 H 0.4908 0.84357 0.70142 0.0
H3835 H 0.46431 0.84322 0.70395 0.0
C3836 C 0.53194 0.83614 0.6885 0.0
C3837 C 0.53877 0.82239 0.68881 0.0
C3838 C 0.51675 0.83722 0.68699 0.0
C3839 C 0.50806 0.82456 0.6859 0.0
C3840 C 0.51503 0.81084 0.68568 0.0
C3841 C 0.5302 0.80978 0.68705 0.0
C3842 C 0.46806 0.81504 0.67985 0.0
C3843 C 0.46105 0.82489 0.68929 0.0
C3844 C 0.48325 0.81539 0.67817 0.0
C3845 C 0.49178 0.82548 0.68606 0.0
C3846 C 0.48463 0.83575 0.69503 0.0
C3847 C 0.46942 0.8355 0.69656 0.0
H3848 H 0.15236 0.53821 0.68966 0.0
H3849 H 0.19941 0.53478 0.68778 0.0
H3850 H 0.15033 0.5117 0.68708 0.0
H3851 H 0.19747 0.50836 0.68574 0.0
H3852 H 0.1909 0.4615 0.67407 0.0
H3853 H 0.19053 0.48802 0.67118 0.0
H3854 H 0.15473 0.49077 0.70193 0.0
H3855 H 0.15479 0.46428 0.70436 0.0
C3856 C 0.16225 0.53179 0.6886 0.0
C3857 C 0.17604 0.53855 0.68899 0.0
C3858 C 0.16111 0.5166 0.68721 0.0
C3859 C 0.17374 0.50784 0.68628 0.0
C3860 C 0.1875 0.51472 0.6862 0.0
C3861 C 0.18863 0.52989 0.68748 0.0
C3862 C 0.18281 0.46778 0.68002 0.0
C3863 C 0.17295 0.46084 0.68952 0.0
C3864 C 0.18265 0.48298 0.67845 0.0
C3865 C 0.17271 0.49159 0.68644 0.0
C3866 C 0.16244 0.48453 0.69547 0.0
C3867 C 0.16252 0.46933 0.69694 0.0
H3868 H 0.46264 0.14722 0.69838 0.0
H3869 H 0.46495 0.19014 0.67884 0.0
H3870 H 0.48915 0.14491 0.69645 0.0
H3871 H 0.49142 0.18812 0.6774 0.0
H3872 H 0.53885 0.17901 0.66997 0.0
H3873 H 0.5124 0.1769 0.66696 0.0
H3874 H 0.5095 0.15516 0.70884 0.0
H3875 H 0.53588 0.1568 0.71153 0.0
C3876 C 0.46882 0.15611 0.69356 0.0
C3877 C 0.46175 0.1689 0.68886 0.0
C3878 C 0.48402 0.15483 0.69253 0.0
C3879 C 0.49249 0.16639 0.68692 0.0
C3880 C 0.48529 0.17892 0.68162 0.0
C3881 C 0.47009 0.18013 0.68253 0.0
C3882 C 0.53255 0.17357 0.6784 0.0
C3883 C 0.53941 0.16815 0.69102 0.0
C3884 C 0.51739 0.17244 0.67673 0.0
C3885 C 0.50875 0.16597 0.6877 0.0
C3886 C 0.51576 0.16003 0.70005 0.0
C3887 C 0.5309 0.16106 0.70166 0.0
H3888 H 0.84697 0.46269 0.3089 0.0
H3889 H 0.80018 0.46519 0.31469 0.0
H3890 H 0.84873 0.48918 0.31161 0.0
H3891 H 0.80178 0.49163 0.31674 0.0
H3892 H 0.80816 0.53888 0.32686 0.0
H3893 H 0.80914 0.51241 0.33008 0.0
H3894 H 0.84311 0.50982 0.29728 0.0
H3895 H 0.84253 0.53623 0.2946 0.0
C3896 C 0.83708 0.46891 0.31085 0.0
C3897 C 0.82344 0.46191 0.3115 0.0
C3898 C 0.83806 0.4841 0.3123 0.0
C3899 C 0.82538 0.49262 0.31424 0.0
C3900 C 0.81181 0.48547 0.31546 0.0
C3901 C 0.81086 0.47029 0.31419 0.0
C3902 C 0.81599 0.53263 0.32053 0.0
C3903 C 0.8252 0.53959 0.31041 0.0
C3904 C 0.81649 0.51745 0.32229 0.0
C3905 C 0.8261 0.50889 0.31384 0.0
C3906 C 0.83571 0.516 0.30414 0.0
C3907 C 0.83531 0.53117 0.30251 0.0
H3908 H 0.53549 0.80386 0.31576 0.0
H3909 H 0.53796 0.84926 0.30304 0.0
H3910 H 0.50904 0.80568 0.31739 0.0
H3911 H 0.51144 0.85132 0.30526 0.0
H3912 H 0.46414 0.84263 0.28989 0.0
H3913 H 0.49063 0.84349 0.29203 0.0
H3914 H 0.48847 0.81511 0.32979 0.0
H3915 H 0.46195 0.81379 0.32719 0.0
C3916 C 0.53038 0.81432 0.3136 0.0
C3917 C 0.53877 0.82639 0.30916 0.0
C3918 C 0.51519 0.81541 0.31463 0.0
C3919 C 0.50803 0.82864 0.31139 0.0
C3920 C 0.51654 0.84089 0.30757 0.0
C3921 C 0.53174 0.83975 0.30639 0.0
C3922 C 0.46932 0.83672 0.29875 0.0
C3923 C 0.46101 0.82804 0.30829 0.0
C3924 C 0.48453 0.83728 0.30005 0.0
C3925 C 0.49176 0.82929 0.31104 0.0
C3926 C 0.48332 0.82116 0.32102 0.0
C3927 C 0.46811 0.82047 0.3196 0.0
H3928 H 0.18827 0.46195 0.32687 0.0
H3929 H 0.15777 0.46464 0.29092 0.0
H3930 H 0.18683 0.48839 0.33009 0.0
H3931 H 0.15664 0.49108 0.29381 0.0
H3932 H 0.15124 0.53816 0.30642 0.0
H3933 H 0.14931 0.51159 0.30855 0.0
H3934 H 0.19582 0.50899 0.31663 0.0
H3935 H 0.19762 0.53545 0.3149 0.0
C3936 C 0.18116 0.46819 0.31974 0.0
C3937 C 0.17322 0.46126 0.30857 0.0
C3938 C 0.18039 0.48334 0.32153 0.0
C3939 C 0.17174 0.49189 0.31212 0.0
C3940 C 0.1633 0.48484 0.30136 0.0
C3941 C 0.16401 0.46968 0.29963 0.0
C3942 C 0.16099 0.53189 0.30888 0.0
C3943 C 0.17459 0.53885 0.3104 0.0
C3944 C 0.15991 0.51668 0.31002 0.0
C3945 C 0.17242 0.50813 0.31266 0.0
C3946 C 0.18591 0.51521 0.31477 0.0
C3947 C 0.18697 0.53039 0.31368 0.0
H3948 H 0.53494 0.1955 0.31669 0.0
H3949 H 0.53757 0.15084 0.30159 0.0
H3950 H 0.50845 0.19348 0.31817 0.0
H3951 H 0.51105 0.14861 0.30352 0.0
H3952 H 0.46395 0.1586 0.28786 0.0
H3953 H 0.49044 0.15757 0.29024 0.0
H3954 H 0.48784 0.18281 0.33013 0.0
H3955 H 0.46133 0.18422 0.32744 0.0
C3956 C 0.52987 0.18515 0.31396 0.0
C3957 C 0.53831 0.17337 0.30891 0.0
C3958 C 0.51467 0.18395 0.31489 0.0
C3959 C 0.50757 0.17089 0.31088 0.0
C3960 C 0.51612 0.1589 0.30644 0.0
C3961 C 0.53132 0.16015 0.30542 0.0
C3962 C 0.46903 0.16376 0.29724 0.0
C3963 C 0.4606 0.17159 0.30739 0.0
C3964 C 0.48423 0.1631 0.29867 0.0
C3965 C 0.49132 0.1702 0.31034 0.0
C3966 C 0.48277 0.17745 0.32087 0.0
C3967 C 0.46757 0.17818 0.31938 0.0
H3968 H 0.67385 0.81083 0.46156 0.0
H3969 H 0.7091 0.84215 0.4637 0.0
H3970 H 0.67067 0.81257 0.48798 0.0
H3971 H 0.70644 0.84343 0.49012 0.0
H3972 H 0.69466 0.84918 0.53724 0.0
H3973 H 0.69265 0.85069 0.51066 0.0
H3974 H 0.68312 0.8044 0.50891 0.0
H3975 H 0.68449 0.80312 0.53538 0.0
C3976 C 0.68087 0.81813 0.46769 0.0
C3977 C 0.69178 0.82628 0.4606 0.0
C3978 C 0.67913 0.81907 0.48284 0.0
C3979 C 0.6884 0.82802 0.49127 0.0
C3980 C 0.69896 0.83657 0.48404 0.0
C3981 C 0.70057 0.83576 0.46887 0.0
C3982 C 0.69191 0.83941 0.53114 0.0
C3983 C 0.6898 0.82603 0.53837 0.0
C3984 C 0.69086 0.84023 0.5159 0.0
C3985 C 0.68783 0.82764 0.50756 0.0
C3986 C 0.68524 0.81438 0.51491 0.0
C3987 C 0.68613 0.81361 0.53013 0.0
H3988 H 0.6851 0.19818 0.4641 0.0
H3989 H 0.69114 0.15141 0.46186 0.0
H3990 H 0.6832 0.19675 0.49053 0.0
H3991 H 0.68859 0.14982 0.48839 0.0
H3992 H 0.70565 0.15667 0.53548 0.0
H3993 H 0.70285 0.15567 0.50907 0.0
H3994 H 0.66992 0.18953 0.51133 0.0
H3995 H 0.67327 0.19094 0.53775 0.0
C3996 C 0.6857 0.18753 0.46925 0.0
C3997 C 0.68839 0.17492 0.46092 0.0
C3998 C 0.6845 0.18668 0.48445 0.0
C3999 C 0.68581 0.17317 0.49169 0.0
C4000 C 0.68781 0.16045 0.48324 0.0
C4001 C 0.68916 0.16133 0.46802 0.0
C4002 C 0.69768 0.16377 0.53035 0.0
C4003 C 0.68979 0.17399 0.53865 0.0
C4004 C 0.69599 0.16314 0.51518 0.0
C4005 C 0.68623 0.17261 0.50797 0.0
C4006 C 0.67777 0.18229 0.51644 0.0
C4007 C 0.6796 0.18304 0.5316 0.0
H4008 H 0.8477 0.69172 0.53977 0.0
H4009 H 0.80099 0.68568 0.53648 0.0
H4010 H 0.84999 0.6885 0.51338 0.0
H4011 H 0.80313 0.68305 0.51011 0.0
H4012 H 0.81055 0.67145 0.46342 0.0
H4013 H 0.81118 0.66894 0.48997 0.0
H4014 H 0.84454 0.70238 0.49221 0.0
H4015 H 0.84429 0.7044 0.46571 0.0
C4016 C 0.83793 0.68961 0.5334 0.0
C4017 C 0.82416 0.68903 0.54015 0.0
C4018 C 0.83922 0.68786 0.51827 0.0
C4019 C 0.82674 0.68564 0.50955 0.0
C4020 C 0.81302 0.68453 0.51644 0.0
C4021 C 0.81176 0.68614 0.53158 0.0
C4022 C 0.81819 0.67806 0.4696 0.0
C4023 C 0.8273 0.68819 0.46252 0.0
C4024 C 0.81848 0.67671 0.48483 0.0
C4025 C 0.82779 0.68557 0.4933 0.0
C4026 C 0.83736 0.69524 0.48609 0.0
C4027 C 0.83716 0.69647 0.47087 0.0
H4028 H 0.29122 0.84382 0.46395 0.0
H4029 H 0.32723 0.81344 0.46105 0.0
H4030 H 0.29372 0.84436 0.49041 0.0
H4031 H 0.3302 0.81441 0.48754 0.0
H4032 H 0.31557 0.80282 0.5344 0.0
H4033 H 0.31748 0.80514 0.508 0.0
H4034 H 0.30732 0.8512 0.51131 0.0
H4035 H 0.30482 0.84867 0.53776 0.0
C4036 C 0.29989 0.83751 0.46897 0.0
C4037 C 0.30893 0.82848 0.46046 0.0
C4038 C 0.30141 0.83788 0.48416 0.0
C4039 C 0.3121 0.82933 0.49119 0.0
C4040 C 0.32165 0.82089 0.48255 0.0
C4041 C 0.32002 0.82041 0.46735 0.0
C4042 C 0.31392 0.81348 0.5295 0.0
C4043 C 0.30991 0.82553 0.53812 0.0
C4044 C 0.31512 0.81485 0.51434 0.0
C4045 C 0.31248 0.82835 0.50745 0.0
C4046 C 0.30915 0.84057 0.51619 0.0
C4047 C 0.30781 0.83916 0.53136 0.0
H4048 H 0.19721 0.31597 0.46482 0.0
H4049 H 0.15064 0.30852 0.46243 0.0
H4050 H 0.19565 0.31758 0.49129 0.0
H4051 H 0.14891 0.31077 0.48896 0.0
H4052 H 0.18919 0.32712 0.53856 0.0
H4053 H 0.18787 0.33052 0.51215 0.0
H4054 H 0.15518 0.29646 0.50952 0.0
H4055 H 0.15608 0.29357 0.53593 0.0
C4056 C 0.18657 0.315 0.46995 0.0
C4057 C 0.17407 0.31199 0.46158 0.0
C4058 C 0.18565 0.31603 0.48516 0.0
C4059 C 0.17216 0.31423 0.49234 0.0
C4060 C 0.15953 0.31192 0.48385 0.0
C4061 C 0.16049 0.31074 0.46863 0.0
C4062 C 0.18157 0.32054 0.53233 0.0
C4063 C 0.17281 0.31001 0.53928 0.0
C4064 C 0.18087 0.32241 0.51718 0.0
C4065 C 0.17154 0.31366 0.50862 0.0
C4066 C 0.16236 0.30354 0.51571 0.0
C4067 C 0.16294 0.3018 0.53087 0.0
H4068 H 0.2901 0.15788 0.53464 0.0
H4069 H 0.32665 0.18759 0.53794 0.0
H4070 H 0.29267 0.15756 0.50819 0.0
H4071 H 0.32959 0.18691 0.51141 0.0
H4072 H 0.31488 0.19875 0.46443 0.0
H4073 H 0.31666 0.19647 0.49086 0.0
H4074 H 0.30683 0.15035 0.48753 0.0
H4075 H 0.30456 0.15281 0.46105 0.0
C4076 C 0.29887 0.16413 0.52971 0.0
C4077 C 0.30809 0.17287 0.53834 0.0
C4078 C 0.30042 0.16387 0.51453 0.0
C4079 C 0.3113 0.17227 0.50762 0.0
C4080 C 0.32094 0.18051 0.51634 0.0
C4081 C 0.31932 0.18084 0.53155 0.0
C4082 C 0.31328 0.18809 0.46933 0.0
C4083 C 0.30945 0.17599 0.4607 0.0
C4084 C 0.31439 0.18675 0.4845 0.0
C4085 C 0.3118 0.17324 0.49138 0.0
C4086 C 0.30864 0.16098 0.48263 0.0
C4087 C 0.30742 0.16235 0.46745 0.0
H4088 H 0.84922 0.30418 0.46128 0.0
H4089 H 0.80312 0.31394 0.46428 0.0
H4090 H 0.85143 0.30651 0.48779 0.0
H4091 H 0.80515 0.31572 0.49071 0.0
H4092 H 0.81325 0.32627 0.53763 0.0
H4093 H 0.81417 0.32888 0.5111 0.0
H4094 H 0.84455 0.29274 0.5087 0.0
H4095 H 0.84403 0.29056 0.5352 0.0
C4096 C 0.83958 0.30691 0.46761 0.0
C4097 C 0.82599 0.30881 0.46073 0.0
C4098 C 0.84082 0.30816 0.4828 0.0
C4099 C 0.82845 0.3112 0.49144 0.0
C4100 C 0.81496 0.31358 0.48444 0.0
C4101 C 0.81376 0.31245 0.46927 0.0
C4102 C 0.82028 0.31904 0.53142 0.0
C4103 C 0.82849 0.30815 0.53846 0.0
C4104 C 0.82074 0.32046 0.51621 0.0
C4105 C 0.82932 0.31093 0.5077 0.0
C4106 C 0.83796 0.3004 0.51486 0.0
C4107 C 0.8376 0.29908 0.53007 0.0
H4108 H 0.15453 0.70651 0.53508 0.0
H4109 H 0.18762 0.67289 0.53709 0.0
H4110 H 0.15389 0.70435 0.50856 0.0
H4111 H 0.18666 0.67035 0.51056 0.0
H4112 H 0.19694 0.68734 0.46416 0.0
H4113 H 0.19489 0.68488 0.49053 0.0
H4114 H 0.14801 0.69005 0.4874 0.0
H4115 H 0.15017 0.69297 0.46093 0.0
C4116 C 0.16144 0.69843 0.52987 0.0
C4117 C 0.17124 0.68998 0.53814 0.0
C4118 C 0.16102 0.69712 0.51465 0.0
C4119 C 0.17033 0.68727 0.50738 0.0
C4120 C 0.17956 0.67826 0.51577 0.0
C4121 C 0.18004 0.67964 0.53098 0.0
C4122 C 0.18618 0.68778 0.46907 0.0
C4123 C 0.17373 0.69046 0.46049 0.0
C4124 C 0.18498 0.68626 0.48421 0.0
C4125 C 0.17128 0.6873 0.49113 0.0
C4126 C 0.15875 0.68941 0.48245 0.0
C4127 C 0.15996 0.691 0.46729 0.0
H4128 H 0.15664 0.1026 0.33923 0.0
H4129 H 0.17021 0.11878 0.297 0.0
H4130 H 0.13623 0.11979 0.33927 0.0
H4131 H 0.1501 0.13624 0.29719 0.0
H4132 H 0.10637 0.15913 0.2964 0.0
H4133 H 0.12399 0.13907 0.29587 0.0
H4134 H 0.1328 0.14569 0.34183 0.0
H4135 H 0.11494 0.16542 0.34241 0.0
C4136 C 0.15523 0.1098 0.32994 0.0
C4137 C 0.16505 0.10939 0.31814 0.0
C4138 C 0.14359 0.11971 0.32999 0.0
C4139 C 0.14155 0.12946 0.31826 0.0
C4140 C 0.1512 0.12877 0.30631 0.0
C4141 C 0.1628 0.11883 0.30624 0.0
C4142 C 0.11197 0.15617 0.30641 0.0
C4143 C 0.10932 0.16387 0.31944 0.0
C4144 C 0.12213 0.14475 0.3061 0.0
C4145 C 0.12988 0.1408 0.31879 0.0
C4146 C 0.12691 0.14828 0.33189 0.0
C4147 C 0.11672 0.15966 0.33221 0.0
H4148 H 0.90189 0.15238 0.33491 0.0
H4149 H 0.87969 0.17134 0.29781 0.0
H4150 H 0.88479 0.13188 0.33467 0.0
H4151 H 0.86227 0.15126 0.29789 0.0
H4152 H 0.8383 0.10886 0.29427 0.0
H4153 H 0.85855 0.12615 0.29329 0.0
H4154 H 0.86002 0.12697 0.34054 0.0
H4155 H 0.84019 0.10921 0.34143 0.0
C4156 C 0.89337 0.15214 0.32669 0.0
C4157 C 0.8921 0.16346 0.3164 0.0
C4158 C 0.88351 0.14045 0.3266 0.0
C4159 C 0.87208 0.1399 0.3163 0.0
C4160 C 0.87105 0.15114 0.30583 0.0
C4161 C 0.88098 0.16273 0.30584 0.0
C4162 C 0.84309 0.11261 0.30443 0.0
C4163 C 0.83763 0.10775 0.31793 0.0
C4164 C 0.85463 0.1226 0.30388 0.0
C4165 C 0.86085 0.12812 0.31684 0.0
C4166 C 0.85565 0.12286 0.33034 0.0
C4167 C 0.84422 0.11273 0.33087 0.0
H4168 H 0.88482 0.83455 0.29808 0.0
H4169 H 0.89824 0.84453 0.34223 0.0
H4170 H 0.86781 0.85493 0.29856 0.0
H4171 H 0.88162 0.86542 0.34256 0.0
H4172 H 0.8441 0.89747 0.29885 0.0
H4173 H 0.86458 0.88042 0.29863 0.0
H4174 H 0.85619 0.8699 0.34396 0.0
H4175 H 0.83617 0.88744 0.34429 0.0
C4176 C 0.88433 0.8413 0.30781 0.0
C4177 C 0.8928 0.83789 0.32015 0.0
C4178 C 0.87463 0.85308 0.30806 0.0
C4179 C 0.87327 0.86186 0.32062 0.0
C4180 C 0.88217 0.85876 0.33279 0.0
C4181 C 0.89178 0.84685 0.33258 0.0
C4182 C 0.84679 0.89164 0.30881 0.0
C4183 C 0.8385 0.89371 0.32156 0.0
C4184 C 0.85846 0.88179 0.30867 0.0
C4185 C 0.86198 0.87361 0.32123 0.0
C4186 C 0.85396 0.8761 0.33413 0.0
C4187 C 0.84241 0.8861 0.33431 0.0
H4188 H 0.09613 0.84838 0.3334 0.0
H4189 H 0.11921 0.82955 0.29676 0.0
H4190 H 0.11277 0.86928 0.33312 0.0
H4191 H 0.13609 0.85006 0.29677 0.0
H4192 H 0.15953 0.8926 0.29311 0.0
H4193 H 0.13926 0.87533 0.29203 0.0
H4194 H 0.13761 0.87442 0.33926 0.0
H4195 H 0.1575 0.89211 0.34027 0.0
C4196 C 0.10472 0.84875 0.32525 0.0
C4197 C 0.1064 0.83732 0.31513 0.0
C4198 C 0.11431 0.86068 0.32514 0.0
C4199 C 0.12583 0.86137 0.31495 0.0
C4200 C 0.12723 0.85006 0.30461 0.0
C4201 C 0.1176 0.83822 0.30467 0.0
C4202 C 0.15468 0.88886 0.30325 0.0
C4203 C 0.16015 0.89362 0.31677 0.0
C4204 C 0.14312 0.87888 0.30264 0.0
C4205 C 0.13688 0.87331 0.31556 0.0
C4206 C 0.14201 0.87856 0.32909 0.0
C4207 C 0.15348 0.88865 0.32968 0.0
H4208 H 0.15407 0.90139 0.66311 0.0
H4209 H 0.1704 0.88128 0.70259 0.0
H4210 H 0.13302 0.88498 0.66345 0.0
H4211 H 0.14971 0.86456 0.70268 0.0
H4212 H 0.10653 0.84166 0.70515 0.0
H4213 H 0.12403 0.86178 0.70594 0.0
H4214 H 0.12826 0.85981 0.65889 0.0
H4215 H 0.11042 0.84009 0.65812 0.0
C4216 C 0.15312 0.89349 0.67189 0.0
C4217 C 0.1639 0.89257 0.68278 0.0
C4218 C 0.14111 0.88403 0.67204 0.0
C4219 C 0.13968 0.87337 0.68304 0.0
C4220 C 0.1503 0.87275 0.69415 0.0
C4221 C 0.16224 0.88228 0.69405 0.0
C4222 C 0.11105 0.8457 0.69498 0.0
C4223 C 0.10717 0.83926 0.68159 0.0
C4224 C 0.12116 0.85716 0.69542 0.0
C4225 C 0.1277 0.86235 0.68249 0.0
C4226 C 0.12335 0.85624 0.66906 0.0
C4227 C 0.11316 0.84487 0.66861 0.0
H4228 H 0.1722 0.1219 0.70316 0.0
H4229 H 0.15122 0.09697 0.66899 0.0
H4230 H 0.15198 0.13917 0.70303 0.0
H4231 H 0.13067 0.11402 0.66915 0.0
H4232 H 0.1083 0.15851 0.66003 0.0
H4233 H 0.12599 0.13863 0.66155 0.0
H4234 H 0.12683 0.14301 0.70861 0.0
H4235 H 0.10952 0.16321 0.707 0.0
C4236 C 0.16312 0.11997 0.6958 0.0
C4237 C 0.16333 0.10814 0.68603 0.0
C4238 C 0.15147 0.12983 0.69578 0.0
C4239 C 0.13969 0.12804 0.68604 0.0
C4240 C 0.13967 0.11587 0.67662 0.0
C4241 C 0.15139 0.10604 0.6766 0.0
C4242 C 0.11216 0.15511 0.6707 0.0
C4243 C 0.10763 0.16248 0.68338 0.0
C4244 C 0.12225 0.14366 0.6716 0.0
C4245 C 0.12793 0.13926 0.68521 0.0
C4246 C 0.1229 0.14629 0.69793 0.0
C4247 C 0.11292 0.15781 0.69702 0.0
H4248 H 0.89037 0.16013 0.65794 0.0
H4249 H 0.89469 0.15795 0.70491 0.0
H4250 H 0.87252 0.14039 0.65863 0.0
H4251 H 0.87719 0.13784 0.7056 0.0
H4252 H 0.83072 0.11882 0.7026 0.0
H4253 H 0.85146 0.13543 0.70251 0.0
H4254 H 0.86761 0.11509 0.66302 0.0
H4255 H 0.84648 0.09874 0.66289 0.0
C4256 C 0.88772 0.15522 0.66839 0.0
C4257 C 0.89382 0.16067 0.68139 0.0
C4258 C 0.87753 0.14384 0.66879 0.0
C4259 C 0.87329 0.13758 0.68219 0.0
C4260 C 0.87997 0.14259 0.69511 0.0
C4261 C 0.89007 0.15405 0.69472 0.0
C4262 C 0.83876 0.11781 0.69397 0.0
C4263 C 0.83693 0.10754 0.6827 0.0
C4264 C 0.85074 0.12727 0.69397 0.0
C4265 C 0.86124 0.12664 0.68275 0.0
C4266 C 0.85963 0.11603 0.67171 0.0
C4267 C 0.84757 0.10661 0.67167 0.0
H4268 H 0.89947 0.84528 0.66045 0.0
H4269 H 0.88303 0.83135 0.70246 0.0
H4270 H 0.88233 0.86572 0.66051 0.0
H4271 H 0.86552 0.85138 0.70231 0.0
H4272 H 0.84169 0.8943 0.70343 0.0
H4273 H 0.86198 0.87699 0.704 0.0
H4274 H 0.8569 0.86968 0.65757 0.0
H4275 H 0.83705 0.88738 0.65696 0.0
C4276 C 0.8922 0.84661 0.66971 0.0
C4277 C 0.89255 0.8367 0.68142 0.0
C4278 C 0.88231 0.85828 0.66971 0.0
C4279 C 0.87245 0.86019 0.68137 0.0
C4280 C 0.87308 0.85042 0.69324 0.0
C4281 C 0.88306 0.83885 0.69329 0.0
C4282 C 0.84505 0.88911 0.69333 0.0
C4283 C 0.83776 0.89215 0.68017 0.0
C4284 C 0.85661 0.87911 0.69366 0.0
C4285 C 0.86104 0.87182 0.68085 0.0
C4286 C 0.85396 0.8752 0.66762 0.0
C4287 C 0.8425 0.8853 0.66727 0.0
H4288 H 0.33597 0.1518 0.09975 0.0
H4289 H 0.29608 0.16757 0.1195 0.0
H4290 H 0.33635 0.13133 0.11688 0.0
H4291 H 0.29663 0.14738 0.13683 0.0
H4292 H 0.29584 0.1042 0.16046 0.0
H4293 H 0.29439 0.1213 0.14001 0.0
H4294 H 0.34105 0.12836 0.1427 0.0
H4295 H 0.34251 0.11102 0.16286 0.0
C4296 C 0.32722 0.15082 0.10767 0.0
C4297 C 0.31604 0.16132 0.10834 0.0
C4298 C 0.32749 0.13915 0.11755 0.0
C4299 C 0.31658 0.13776 0.1283 0.0
C4300 C 0.30511 0.148 0.12859 0.0
C4301 C 0.30483 0.15964 0.11871 0.0
C4302 C 0.30579 0.1093 0.15656 0.0
C4303 C 0.31927 0.10634 0.16329 0.0
C4304 C 0.30496 0.11914 0.1449 0.0
C4305 C 0.31759 0.12626 0.13975 0.0
C4306 C 0.33113 0.12294 0.14624 0.0
C4307 C 0.33196 0.11307 0.15787 0.0
H4308 H 0.87831 0.29932 0.17283 0.0
H4309 H 0.89998 0.33663 0.15365 0.0
H4310 H 0.86092 0.29901 0.15271 0.0
H4311 H 0.88282 0.33607 0.13319 0.0
H4312 H 0.83795 0.34185 0.11063 0.0
H4313 H 0.8576 0.34145 0.12861 0.0
H4314 H 0.85782 0.2942 0.12725 0.0
H4315 H 0.83781 0.29465 0.10962 0.0
C4316 C 0.87947 0.30734 0.16419 0.0
C4317 C 0.89046 0.31804 0.16485 0.0
C4318 C 0.86955 0.3071 0.15258 0.0
C4319 C 0.87044 0.31752 0.1413 0.0
C4320 C 0.88168 0.32802 0.1418 0.0
C4321 C 0.89157 0.32829 0.15347 0.0
C4322 C 0.8423 0.33139 0.11408 0.0
C4323 C 0.83628 0.31829 0.1088 0.0
C4324 C 0.85363 0.33115 0.12433 0.0
C4325 C 0.85926 0.31778 0.12947 0.0
C4326 C 0.85357 0.30468 0.12375 0.0
C4327 C 0.84217 0.30493 0.11357 0.0
H4328 H 0.70324 0.89615 0.15566 0.0
H4329 H 0.65848 0.88429 0.1649 0.0
H4330 H 0.70329 0.87963 0.1347 0.0
H4331 H 0.65866 0.86736 0.1444 0.0
H4332 H 0.65916 0.84397 0.10137 0.0
H4333 H 0.65913 0.86424 0.11873 0.0
H4334 H 0.70386 0.85419 0.13035 0.0
H4335 H 0.70401 0.83442 0.11261 0.0
C4336 C 0.6934 0.89002 0.15318 0.0
C4337 C 0.68088 0.89145 0.16194 0.0
C4338 C 0.69345 0.88049 0.14122 0.0
C4339 C 0.68101 0.87205 0.13787 0.0
C4340 C 0.66837 0.87381 0.14646 0.0
C4341 C 0.66829 0.88345 0.15831 0.0
C4342 C 0.66903 0.84626 0.1075 0.0
C4343 C 0.68156 0.83758 0.10568 0.0
C4344 C 0.669 0.85781 0.11754 0.0
C4345 C 0.68145 0.86082 0.12607 0.0
C4346 C 0.69412 0.85238 0.12386 0.0
C4347 C 0.69419 0.84095 0.11373 0.0
H4348 H 0.16318 0.65513 0.11167 0.0
H4349 H 0.15519 0.70045 0.10116 0.0
H4350 H 0.14298 0.65552 0.12898 0.0
H4351 H 0.13453 0.70074 0.11803 0.0
H4352 H 0.1141 0.7013 0.16397 0.0
H4353 H 0.13116 0.70088 0.14362 0.0
H4354 H 0.11744 0.65689 0.13303 0.0
H4355 H 0.10074 0.65716 0.15386 0.0
C4356 C 0.1569 0.6651 0.11285 0.0
C4357 C 0.16084 0.6778 0.10517 0.0
C4358 C 0.14523 0.66531 0.12272 0.0
C4359 C 0.13714 0.6782 0.12501 0.0
C4360 C 0.1407 0.69071 0.11678 0.0
C4361 C 0.15247 0.69053 0.10703 0.0
C4362 C 0.11462 0.69159 0.15721 0.0
C4363 C 0.10617 0.67923 0.16057 0.0
C4364 C 0.12434 0.69138 0.14544 0.0
C4365 C 0.12576 0.67883 0.13666 0.0
C4366 C 0.11685 0.66665 0.1397 0.0
C4367 C 0.1072 0.66682 0.15158 0.0
H4368 H 0.34229 0.89827 0.84454 0.0
H4369 H 0.29839 0.88485 0.8335 0.0
H4370 H 0.34238 0.88112 0.865 0.0
H4371 H 0.29865 0.86732 0.85346 0.0
H4372 H 0.29857 0.84286 0.89584 0.0
H4373 H 0.29831 0.86344 0.87889 0.0
H4374 H 0.34389 0.85566 0.86893 0.0
H4375 H 0.34423 0.83556 0.88634 0.0
C4376 C 0.33265 0.89169 0.84653 0.0
C4377 C 0.32036 0.89287 0.83741 0.0
C4378 C 0.33272 0.88178 0.85819 0.0
C4379 C 0.32056 0.87272 0.86088 0.0
C4380 C 0.30814 0.87423 0.85192 0.0
C4381 C 0.30802 0.88423 0.84039 0.0
C4382 C 0.30856 0.84569 0.89014 0.0
C4383 C 0.3214 0.83757 0.89236 0.0
C4384 C 0.30841 0.85742 0.88034 0.0
C4385 C 0.32105 0.86119 0.8724 0.0
C4386 C 0.33399 0.85327 0.87497 0.0
C4387 C 0.33417 0.84165 0.88489 0.0
H4388 H 0.1588 0.2963 0.89515 0.0
H4389 H 0.16173 0.343 0.88889 0.0
H4390 H 0.1381 0.29532 0.87838 0.0
H4391 H 0.14144 0.34201 0.87169 0.0
H4392 H 0.09872 0.33804 0.84777 0.0
H4393 H 0.11599 0.33819 0.86814 0.0
H4394 H 0.13414 0.29728 0.85288 0.0
H4395 H 0.11655 0.29691 0.83296 0.0
C4396 C 0.15498 0.30636 0.89021 0.0
C4397 C 0.16192 0.31971 0.89326 0.0
C4398 C 0.14317 0.3058 0.88053 0.0
C4399 C 0.13813 0.31856 0.87356 0.0
C4400 C 0.14485 0.33198 0.87698 0.0
C4401 C 0.15657 0.33255 0.88677 0.0
C4402 C 0.10628 0.329 0.84893 0.0
C4403 C 0.10633 0.31749 0.83876 0.0
C4404 C 0.11625 0.32912 0.86053 0.0
C4405 C 0.12656 0.3178 0.86213 0.0
C4406 C 0.12625 0.30609 0.85216 0.0
C4407 C 0.11621 0.30591 0.84066 0.0
H4408 H 0.6599 0.15561 0.89971 0.0
H4409 H 0.70261 0.16817 0.884 0.0
H4410 H 0.65999 0.13462 0.88326 0.0
H4411 H 0.7025 0.14761 0.86712 0.0
H4412 H 0.70316 0.10446 0.8439 0.0
H4413 H 0.70367 0.12194 0.86406 0.0
H4414 H 0.65751 0.13016 0.85795 0.0
H4415 H 0.65694 0.11229 0.83828 0.0
C4416 C 0.66932 0.15385 0.89275 0.0
C4417 C 0.68121 0.16356 0.89308 0.0
C4418 C 0.66935 0.14188 0.88325 0.0
C4419 C 0.68121 0.13944 0.87375 0.0
C4420 C 0.69327 0.14897 0.87441 0.0
C4421 C 0.6933 0.16085 0.88401 0.0
C4422 C 0.6931 0.10987 0.84703 0.0
C4423 C 0.68002 0.10707 0.83949 0.0
C4424 C 0.6934 0.11997 0.85851 0.0
C4425 C 0.68066 0.12759 0.86259 0.0
C4426 C 0.66749 0.12438 0.85529 0.0
C4427 C 0.66717 0.11419 0.84393 0.0
H4428 H 0.90114 0.66059 0.84528 0.0
H4429 H 0.88262 0.7016 0.83096 0.0
H4430 H 0.88469 0.66052 0.86633 0.0
H4431 H 0.86593 0.70135 0.85164 0.0
H4432 H 0.8434 0.70296 0.89486 0.0
H4433 H 0.86369 0.7035 0.87756 0.0
H4434 H 0.85909 0.65694 0.87082 0.0
H4435 H 0.83915 0.65637 0.88847 0.0
C4436 C 0.8936 0.66961 0.84667 0.0
C4437 C 0.89313 0.68107 0.83645 0.0
C4438 C 0.88412 0.66954 0.85868 0.0
C4439 C 0.87394 0.68091 0.86068 0.0
C4440 C 0.87377 0.69253 0.85061 0.0
C4441 C 0.88327 0.69263 0.83867 0.0
C4442 C 0.84689 0.69281 0.88984 0.0
C4443 C 0.83963 0.67964 0.89293 0.0
C4444 C 0.85845 0.69313 0.87985 0.0
C4445 C 0.86292 0.68029 0.87265 0.0
C4446 C 0.85605 0.66701 0.87625 0.0
C4447 C 0.84456 0.66669 0.88632 0.0
H4448 H 0.16629 0.29702 0.11594 0.0
H4449 H 0.15303 0.33949 0.10014 0.0
H4450 H 0.14606 0.29705 0.13318 0.0
H4451 H 0.13238 0.33933 0.11706 0.0
H4452 H 0.11192 0.34253 0.16311 0.0
H4453 H 0.12897 0.34195 0.14272 0.0
H4454 H 0.12038 0.29583 0.13686 0.0
H4455 H 0.10368 0.29636 0.15768 0.0
C4456 C 0.15886 0.30625 0.11596 0.0
C4457 C 0.16131 0.31831 0.10678 0.0
C4458 C 0.14718 0.30623 0.12579 0.0
C4459 C 0.1376 0.31823 0.1266 0.0
C4460 C 0.1397 0.33003 0.11693 0.0
C4461 C 0.15147 0.33009 0.10717 0.0
C4462 C 0.11356 0.3323 0.15737 0.0
C4463 C 0.10656 0.31947 0.16206 0.0
C4464 C 0.12327 0.33198 0.14559 0.0
C4465 C 0.12613 0.31882 0.13815 0.0
C4466 C 0.11865 0.3061 0.1425 0.0
C4467 C 0.10901 0.30641 0.15437 0.0
H4468 H 0.15368 0.66147 0.90002 0.0
H4469 H 0.16577 0.70429 0.88425 0.0
H4470 H 0.13308 0.66104 0.88306 0.0
H4471 H 0.14567 0.70365 0.8669 0.0
H4472 H 0.10379 0.70332 0.84188 0.0
H4473 H 0.12031 0.70431 0.86279 0.0
H4474 H 0.12927 0.65815 0.85773 0.0
H4475 H 0.11226 0.65711 0.8373 0.0
C4476 C 0.15187 0.67082 0.89298 0.0
C4477 C 0.16136 0.68289 0.89341 0.0
C4478 C 0.14014 0.67054 0.88318 0.0
C4479 C 0.13773 0.68225 0.87348 0.0
C4480 C 0.14699 0.69452 0.87431 0.0
C4481 C 0.15861 0.69486 0.88421 0.0
C4482 C 0.10916 0.69336 0.84539 0.0
C4483 C 0.10682 0.68016 0.83793 0.0
C4484 C 0.11871 0.69393 0.85732 0.0
C4485 C 0.12628 0.68135 0.86191 0.0
C4486 C 0.12352 0.66804 0.85469 0.0
C4487 C 0.11382 0.66744 0.84289 0.0
H4488 H 0.29612 0.16482 0.888 0.0
H4489 H 0.3408 0.15591 0.90035 0.0
H4490 H 0.29673 0.14452 0.87087 0.0
H4491 H 0.34129 0.13514 0.88361 0.0
H4492 H 0.34285 0.11435 0.83766 0.0
H4493 H 0.34228 0.13144 0.85802 0.0
H4494 H 0.2976 0.11896 0.8672 0.0
H4495 H 0.29805 0.10228 0.84638 0.0
C4496 C 0.30599 0.15832 0.88726 0.0
C4497 C 0.31845 0.16202 0.89542 0.0
C4498 C 0.30632 0.14659 0.87749 0.0
C4499 C 0.31909 0.13818 0.87576 0.0
C4500 C 0.33136 0.14153 0.88444 0.0
C4501 C 0.33106 0.15337 0.89411 0.0
C4502 C 0.33296 0.11515 0.84413 0.0
C4503 C 0.32045 0.10709 0.84036 0.0
C4504 C 0.33265 0.12489 0.85589 0.0
C4505 C 0.31985 0.12669 0.86425 0.0
C4506 C 0.30754 0.11809 0.86084 0.0
C4507 C 0.30782 0.10846 0.84897 0.0
H4508 H 0.89126 0.29543 0.84047 0.0
H4509 H 0.88921 0.34257 0.83919 0.0
H4510 H 0.87346 0.29516 0.8603 0.0
H4511 H 0.87099 0.34233 0.85863 0.0
H4512 H 0.84499 0.33822 0.90049 0.0
H4513 H 0.86578 0.33776 0.88375 0.0
H4514 H 0.84799 0.29923 0.86292 0.0
H4515 H 0.82758 0.29943 0.87996 0.0
C4516 C 0.88705 0.30574 0.84449 0.0
C4517 C 0.89156 0.31902 0.83824 0.0
C4518 C 0.87676 0.30559 0.85578 0.0
C4519 C 0.87063 0.31871 0.86098 0.0
C4520 C 0.87557 0.33202 0.85504 0.0
C4521 C 0.88597 0.33217 0.84384 0.0
C4522 C 0.84562 0.32959 0.8924 0.0
C4523 C 0.83465 0.31888 0.89151 0.0
C4524 C 0.85749 0.32937 0.88275 0.0
C4525 C 0.85858 0.31847 0.87194 0.0
C4526 C 0.84768 0.30764 0.87125 0.0
C4527 C 0.8359 0.3078 0.88095 0.0
H4528 H 0.70636 0.89113 0.83544 0.0
H4529 H 0.65933 0.89095 0.83967 0.0
H4530 H 0.70832 0.87423 0.85596 0.0
H4531 H 0.6612 0.87365 0.85986 0.0
H4532 H 0.66877 0.84956 0.90201 0.0
H4533 H 0.66863 0.86978 0.8846 0.0
H4534 H 0.70354 0.84904 0.86039 0.0
H4535 H 0.70398 0.82915 0.87805 0.0
C4536 C 0.69644 0.88751 0.8408 0.0
C4537 C 0.68269 0.89229 0.83592 0.0
C4538 C 0.69755 0.87776 0.85251 0.0
C4539 C 0.68492 0.87247 0.85951 0.0
C4540 C 0.67118 0.87762 0.85487 0.0
C4541 C 0.67008 0.88747 0.84323 0.0
C4542 C 0.67655 0.84945 0.89307 0.0
C4543 C 0.68635 0.83776 0.89135 0.0
C4544 C 0.6764 0.86098 0.88304 0.0
C4545 C 0.68599 0.861 0.87101 0.0
C4546 C 0.69612 0.84951 0.86961 0.0
C4547 C 0.69633 0.83805 0.8797 0.0
H4548 H 0.84728 0.66309 0.09822 0.0
H4549 H 0.82961 0.70164 0.11895 0.0
H4550 H 0.86794 0.66346 0.11512 0.0
H4551 H 0.84984 0.70172 0.13619 0.0
H4552 H 0.89239 0.70502 0.15989 0.0
H4553 H 0.87511 0.7057 0.13961 0.0
H4554 H 0.87283 0.65848 0.14007 0.0
H4555 H 0.89058 0.65785 0.15991 0.0
C4556 C 0.84784 0.67165 0.10638 0.0
C4557 C 0.83683 0.68231 0.10729 0.0
C4558 C 0.85962 0.67182 0.11613 0.0
C4559 C 0.86057 0.68258 0.12709 0.0
C4560 C 0.84965 0.69341 0.12776 0.0
C4561 C 0.83797 0.69331 0.11793 0.0
C4562 C 0.88833 0.69479 0.1555 0.0
C4563 C 0.89276 0.68138 0.16152 0.0
C4564 C 0.87834 0.69517 0.14395 0.0
C4565 C 0.87241 0.68215 0.13827 0.0
C4566 C 0.87727 0.66872 0.144 0.0
C4567 C 0.88739 0.66835 0.15545 0.0
H4568 H 0.34216 0.83499 0.11291 0.0
H4569 H 0.2962 0.84088 0.10383 0.0
H4570 H 0.34149 0.85547 0.12987 0.0
H4571 H 0.29561 0.86182 0.12034 0.0
H4572 H 0.29589 0.8838 0.1656 0.0
H4573 H 0.29619 0.86614 0.14574 0.0
H4574 H 0.33932 0.88098 0.13323 0.0
H4575 H 0.3392 0.89824 0.15357 0.0
C4576 C 0.33196 0.84085 0.11435 0.0
C4577 C 0.31921 0.83627 0.10715 0.0
C4578 C 0.33159 0.85268 0.12401 0.0
C4579 C 0.31847 0.86031 0.12657 0.0
C4580 C 0.30584 0.85605 0.11887 0.0
C4581 C 0.30619 0.8441 0.10934 0.0
C4582 C 0.30537 0.88339 0.1585 0.0
C4583 C 0.31757 0.89232 0.1612 0.0
C4584 C 0.30552 0.87332 0.14703 0.0
C4585 C 0.31782 0.87203 0.13787 0.0
C4586 C 0.32977 0.88144 0.14022 0.0
C4587 C 0.32968 0.89142 0.15181 0.0
H4588 H 0.70264 0.15571 0.10346 0.0
H4589 H 0.65668 0.16193 0.11226 0.0
H4590 H 0.70315 0.13522 0.12053 0.0
H4591 H 0.65726 0.14195 0.12977 0.0
H4592 H 0.65939 0.09995 0.15482 0.0
H4593 H 0.65931 0.11666 0.13403 0.0
H4594 H 0.70257 0.13156 0.146 0.0
H4595 H 0.70285 0.1144 0.1663 0.0
C4596 C 0.69264 0.15264 0.10901 0.0
C4597 C 0.67964 0.16045 0.10658 0.0
C4598 C 0.69293 0.14097 0.11888 0.0
C4599 C 0.68028 0.13696 0.12668 0.0
C4600 C 0.66718 0.14453 0.12385 0.0
C4601 C 0.66685 0.15608 0.11386 0.0
C4602 C 0.66894 0.10668 0.15286 0.0
C4603 C 0.6811 0.10593 0.16221 0.0
C4604 C 0.66887 0.11634 0.14101 0.0
C4605 C 0.68089 0.12559 0.13835 0.0
C4606 C 0.6932 0.12449 0.14751 0.0
C4607 C 0.69334 0.11471 0.15925 0.0
H4608 H 0.61079 0.66227 0.84526 0.0
H4609 H 0.60609 0.66118 0.7983 0.0
H4610 H 0.62824 0.64218 0.84401 0.0
H4611 H 0.62312 0.64072 0.79704 0.0
H4612 H 0.66866 0.61972 0.79907 0.0
H4613 H 0.64866 0.6372 0.79976 0.0
H4614 H 0.6322 0.61685 0.83913 0.0
H4615 H 0.65262 0.59963 0.83868 0.0
C4616 C 0.61331 0.65756 0.83469 0.0
C4617 C 0.60719 0.66337 0.82187 0.0
C4618 C 0.62325 0.64597 0.83397 0.0
C4619 C 0.62719 0.63986 0.82041 0.0
C4620 C 0.62057 0.64533 0.80764 0.0
C4621 C 0.61075 0.657 0.80836 0.0
C4622 C 0.66069 0.61889 0.8078 0.0
C4623 C 0.66224 0.60836 0.81887 0.0
C4624 C 0.64915 0.62886 0.80815 0.0
C4625 C 0.63879 0.62848 0.81952 0.0
C4626 C 0.6401 0.61761 0.83034 0.0
C4627 C 0.65174 0.60769 0.83004 0.0
H4628 H 0.33672 0.61029 0.84351 0.0
H4629 H 0.34151 0.60208 0.79727 0.0
H4630 H 0.35687 0.62765 0.84256 0.0
H4631 H 0.36206 0.61906 0.79636 0.0
H4632 H 0.38227 0.6652 0.79686 0.0
H4633 H 0.3652 0.64482 0.79743 0.0
H4634 H 0.38242 0.63158 0.83942 0.0
H4635 H 0.39916 0.65236 0.83904 0.0
C4636 C 0.34229 0.61199 0.83319 0.0
C4637 C 0.33747 0.60494 0.82044 0.0
C4638 C 0.35391 0.62189 0.83265 0.0
C4639 C 0.36106 0.62486 0.81935 0.0
C4640 C 0.35663 0.61726 0.80673 0.0
C4641 C 0.34492 0.60745 0.80726 0.0
C4642 C 0.3825 0.65785 0.80614 0.0
C4643 C 0.39197 0.66043 0.81795 0.0
C4644 C 0.37278 0.64608 0.80644 0.0
C4645 C 0.37237 0.63654 0.8185 0.0
C4646 C 0.38225 0.63884 0.83007 0.0
C4647 C 0.39191 0.65069 0.82982 0.0
H4648 H 0.37905 0.3271 0.79666 0.0
H4649 H 0.40023 0.34477 0.83498 0.0
H4650 H 0.36187 0.34737 0.79672 0.0
H4651 H 0.38333 0.36545 0.83477 0.0
H4652 H 0.33864 0.38826 0.8407 0.0
H4653 H 0.35829 0.37031 0.83994 0.0
H4654 H 0.35863 0.37275 0.79273 0.0
H4655 H 0.33858 0.3903 0.79354 0.0
C4656 C 0.38018 0.33546 0.80497 0.0
C4657 C 0.39094 0.33431 0.81586 0.0
C4658 C 0.37037 0.34717 0.80495 0.0
C4659 C 0.37117 0.35809 0.81576 0.0
C4660 C 0.38224 0.35713 0.82642 0.0
C4661 C 0.39198 0.34534 0.82649 0.0
C4662 C 0.34302 0.38506 0.83018 0.0
C4663 C 0.337 0.39059 0.81718 0.0
C4664 C 0.35436 0.37482 0.82973 0.0
C4665 C 0.36002 0.36997 0.81627 0.0
C4666 C 0.35435 0.37599 0.80329 0.0
C4667 C 0.34293 0.38613 0.80374 0.0
H4668 H 0.60539 0.34044 0.79345 0.0
H4669 H 0.61071 0.33755 0.84027 0.0
H4670 H 0.6226 0.36079 0.79273 0.0
H4671 H 0.62829 0.35755 0.83954 0.0
H4672 H 0.65302 0.40007 0.83535 0.0
H4673 H 0.6324 0.3831 0.83542 0.0
H4674 H 0.64836 0.36374 0.79536 0.0
H4675 H 0.66861 0.38096 0.79509 0.0
C4676 C 0.61018 0.34422 0.8036 0.0
C4677 C 0.60678 0.33736 0.8169 0.0
C4678 C 0.62012 0.35582 0.80318 0.0
C4679 C 0.62697 0.36074 0.81605 0.0
C4680 C 0.62313 0.35418 0.82943 0.0
C4681 C 0.61311 0.34265 0.82985 0.0
C4682 C 0.652 0.39229 0.82649 0.0
C4683 C 0.66244 0.39181 0.81524 0.0
C4684 C 0.64024 0.3825 0.82657 0.0
C4685 C 0.63872 0.37199 0.81543 0.0
C4686 C 0.64902 0.37181 0.804 0.0
C4687 C 0.66071 0.38162 0.80389 0.0
H4688 H 0.65103 0.4014 0.1646 0.0
H4689 H 0.6697 0.37888 0.20165 0.0
H4690 H 0.63033 0.38454 0.16477 0.0
H4691 H 0.64942 0.36172 0.20152 0.0
H4692 H 0.60699 0.33793 0.20488 0.0
H4693 H 0.62422 0.35822 0.20601 0.0
H4694 H 0.62537 0.35975 0.15877 0.0
H4695 H 0.60768 0.33987 0.15772 0.0
C4696 C 0.65067 0.39287 0.1728 0.0
C4697 C 0.66199 0.39143 0.18309 0.0
C4698 C 0.63887 0.38315 0.17285 0.0
C4699 C 0.6382 0.3717 0.18312 0.0
C4700 C 0.6494 0.37052 0.1936 0.0
C4701 C 0.66111 0.38031 0.19362 0.0
C4702 C 0.61079 0.34275 0.19476 0.0
C4703 C 0.60607 0.33727 0.18122 0.0
C4704 C 0.62074 0.35432 0.19539 0.0
C4705 C 0.62635 0.36055 0.18248 0.0
C4706 C 0.62118 0.35537 0.16894 0.0
C4707 C 0.61109 0.3439 0.16832 0.0
H4708 H 0.60146 0.65471 0.15935 0.0
H4709 H 0.61649 0.66683 0.20243 0.0
H4710 H 0.61858 0.63423 0.15915 0.0
H4711 H 0.63399 0.64685 0.20203 0.0
H4712 H 0.65845 0.60448 0.20224 0.0
H4713 H 0.63788 0.62143 0.20284 0.0
H4714 H 0.64401 0.63031 0.1568 0.0
H4715 H 0.66413 0.61291 0.15615 0.0
C4716 C 0.60839 0.65295 0.16879 0.0
C4717 C 0.60767 0.66239 0.18088 0.0
C4718 C 0.61828 0.64128 0.16865 0.0
C4719 C 0.62779 0.6389 0.18053 0.0
C4720 C 0.62673 0.64815 0.19277 0.0
C4721 C 0.61674 0.6597 0.19297 0.0
C4722 C 0.65527 0.60994 0.19223 0.0
C4723 C 0.66293 0.60743 0.17917 0.0
C4724 C 0.64353 0.61974 0.19257 0.0
C4725 C 0.63931 0.62738 0.17989 0.0
C4726 C 0.64677 0.62451 0.16674 0.0
C4727 C 0.65839 0.6146 0.16637 0.0
H4728 H 0.40126 0.65264 0.16318 0.0
H4729 H 0.38234 0.66755 0.20378 0.0
H4730 H 0.3846 0.63177 0.16308 0.0
H4731 H 0.36535 0.6471 0.20345 0.0
H4732 H 0.34159 0.60448 0.2047 0.0
H4733 H 0.36212 0.62147 0.20572 0.0
H4734 H 0.35931 0.62754 0.15892 0.0
H4735 H 0.3392 0.61015 0.15789 0.0
C4736 C 0.39358 0.65141 0.17211 0.0
C4737 C 0.39304 0.66174 0.18345 0.0
C4738 C 0.38397 0.63951 0.17202 0.0
C4739 C 0.37355 0.63777 0.18321 0.0
C4740 C 0.37335 0.64793 0.19477 0.0
C4741 C 0.38303 0.65974 0.19491 0.0
C4742 C 0.34553 0.60929 0.19462 0.0
C4743 C 0.33875 0.60607 0.18123 0.0
C4744 C 0.35723 0.61911 0.1952 0.0
C4745 C 0.36231 0.62602 0.18243 0.0
C4746 C 0.35584 0.62232 0.16896 0.0
C4747 C 0.34424 0.6124 0.16837 0.0
H4748 H 0.39958 0.34584 0.19931 0.0
H4749 H 0.38505 0.33458 0.15583 0.0
H4750 H 0.38324 0.36691 0.19933 0.0
H4751 H 0.36825 0.35519 0.15604 0.0
H4752 H 0.34419 0.39775 0.15621 0.0
H4753 H 0.36474 0.38074 0.15561 0.0
H4754 H 0.35793 0.37112 0.20141 0.0
H4755 H 0.33789 0.38855 0.20209 0.0
C4756 C 0.39293 0.34792 0.18973 0.0
C4757 C 0.39351 0.33853 0.1776 0.0
C4758 C 0.38348 0.35994 0.18977 0.0
C4759 C 0.37428 0.36272 0.17775 0.0
C4760 C 0.37529 0.35356 0.16542 0.0
C4761 C 0.38486 0.34166 0.16532 0.0
C4762 C 0.34726 0.39214 0.16618 0.0
C4763 C 0.3394 0.39441 0.17917 0.0
C4764 C 0.35896 0.38231 0.16583 0.0
C4765 C 0.36296 0.37442 0.17843 0.0
C4766 C 0.35536 0.37712 0.19153 0.0
C4767 C 0.34378 0.38706 0.19191 0.0
H4768 H 0.83848 0.65407 0.60096 0.0
H4769 H 0.79587 0.66657 0.61697 0.0
H4770 H 0.83853 0.63309 0.61744 0.0
H4771 H 0.79612 0.64606 0.63387 0.0
H4772 H 0.7957 0.60334 0.65764 0.0
H4773 H 0.79501 0.62052 0.63723 0.0
H4774 H 0.84127 0.62866 0.64269 0.0
H4775 H 0.84201 0.61106 0.66259 0.0
C4776 C 0.8291 0.65229 0.60798 0.0
C4777 C 0.8172 0.66198 0.60774 0.0
C4778 C 0.82916 0.64033 0.6175 0.0
C4779 C 0.81738 0.6379 0.62711 0.0
C4780 C 0.8053 0.6474 0.62651 0.0
C4781 C 0.80518 0.65925 0.61688 0.0
C4782 C 0.80574 0.60867 0.6543 0.0
C4783 C 0.81889 0.60592 0.66173 0.0
C4784 C 0.80534 0.61859 0.64268 0.0
C4785 C 0.81805 0.62612 0.63836 0.0
C4786 C 0.8313 0.62296 0.64553 0.0
C4787 C 0.83172 0.61292 0.65703 0.0
H4788 H 0.33914 0.79437 0.60715 0.0
H4789 H 0.33811 0.84148 0.60996 0.0
H4790 H 0.35933 0.79376 0.62456 0.0
H4791 H 0.35795 0.84089 0.62774 0.0
H4792 H 0.40041 0.83621 0.65268 0.0
H4793 H 0.38331 0.83601 0.63216 0.0
H4794 H 0.36239 0.79762 0.65012 0.0
H4795 H 0.37972 0.79759 0.67026 0.0
C4796 C 0.34328 0.8046 0.61145 0.0
C4797 C 0.337 0.81797 0.60726 0.0
C4798 C 0.35479 0.80425 0.6215 0.0
C4799 C 0.3602 0.81727 0.62768 0.0
C4800 C 0.3542 0.83067 0.6231 0.0
C4801 C 0.34276 0.83101 0.61296 0.0
C4802 C 0.39224 0.82766 0.65213 0.0
C4803 C 0.39138 0.81694 0.66309 0.0
C4804 C 0.38238 0.82758 0.64042 0.0
C4805 C 0.37142 0.81682 0.63948 0.0
C4806 C 0.37081 0.80594 0.65033 0.0
C4807 C 0.3807 0.80597 0.66196 0.0
H4808 H 0.20156 0.34286 0.60379 0.0
H4809 H 0.15588 0.33522 0.61293 0.0
H4810 H 0.2015 0.36353 0.62061 0.0
H4811 H 0.15592 0.35541 0.63026 0.0
H4812 H 0.1572 0.39785 0.65505 0.0
H4813 H 0.15724 0.38083 0.63447 0.0
H4814 H 0.20106 0.36727 0.64598 0.0
H4815 H 0.20119 0.38468 0.66601 0.0
C4816 C 0.19149 0.34564 0.60939 0.0
C4817 C 0.17875 0.33739 0.60712 0.0
C4818 C 0.19147 0.35743 0.61911 0.0
C4819 C 0.17875 0.3611 0.62697 0.0
C4820 C 0.16588 0.35308 0.6243 0.0
C4821 C 0.16587 0.34142 0.61442 0.0
C4822 C 0.16689 0.39135 0.65302 0.0
C4823 C 0.17918 0.39257 0.66215 0.0
C4824 C 0.16689 0.38151 0.6413 0.0
C4825 C 0.17913 0.37257 0.63855 0.0
C4826 C 0.19153 0.37411 0.64753 0.0
C4827 C 0.19158 0.38404 0.65912 0.0
H4828 H 0.65713 0.15855 0.60229 0.0
H4829 H 0.66574 0.20345 0.61409 0.0
H4830 H 0.63678 0.15792 0.61954 0.0
H4831 H 0.64579 0.20271 0.63168 0.0
H4832 H 0.603 0.20067 0.65603 0.0
H4833 H 0.62002 0.2014 0.63546 0.0
H4834 H 0.63374 0.15727 0.64537 0.0
H4835 H 0.61642 0.15641 0.66552 0.0
C4836 C 0.65462 0.16831 0.60852 0.0
C4837 C 0.66306 0.18103 0.6069 0.0
C4838 C 0.64302 0.16793 0.61848 0.0
C4839 C 0.63969 0.18023 0.62712 0.0
C4840 C 0.64788 0.19309 0.62511 0.0
C4841 C 0.6594 0.19349 0.61508 0.0
C4842 C 0.60955 0.19109 0.65368 0.0
C4843 C 0.60842 0.1785 0.6624 0.0
C4844 C 0.61937 0.19153 0.64195 0.0
C4845 C 0.62833 0.17942 0.63876 0.0
C4846 C 0.62689 0.16672 0.64732 0.0
C4847 C 0.61701 0.16626 0.65897 0.0
H4848 H 0.79568 0.34075 0.39432 0.0
H4849 H 0.84241 0.33772 0.38835 0.0
H4850 H 0.79483 0.36139 0.37748 0.0
H4851 H 0.84155 0.35792 0.37105 0.0
H4852 H 0.8377 0.4004 0.34662 0.0
H4853 H 0.83785 0.38326 0.36708 0.0
H4854 H 0.79685 0.36514 0.35201 0.0
H4855 H 0.79648 0.38262 0.332 0.0
C4856 C 0.80578 0.34454 0.38944 0.0
C4857 C 0.81909 0.33759 0.39258 0.0
C4858 C 0.80529 0.35631 0.3797 0.0
C4859 C 0.8181 0.36127 0.37275 0.0
C4860 C 0.83149 0.35457 0.3763 0.0
C4861 C 0.83198 0.3429 0.38616 0.0
C4862 C 0.82865 0.39286 0.34782 0.0
C4863 C 0.81711 0.39281 0.3377 0.0
C4864 C 0.82877 0.38297 0.35949 0.0
C4865 C 0.8174 0.37272 0.36119 0.0
C4866 C 0.80568 0.37298 0.35123 0.0
C4867 C 0.80551 0.38295 0.33967 0.0
H4868 H 0.65331 0.83577 0.40118 0.0
H4869 H 0.67123 0.79797 0.37928 0.0
H4870 H 0.63251 0.8356 0.38441 0.0
H4871 H 0.65087 0.7981 0.36224 0.0
H4872 H 0.60822 0.79482 0.33883 0.0
H4873 H 0.62559 0.79388 0.35903 0.0
H4874 H 0.62744 0.84112 0.35951 0.0
H4875 H 0.60963 0.84199 0.33973 0.0
C4876 C 0.65277 0.82741 0.39281 0.0
C4877 C 0.6639 0.8169 0.39151 0.0
C4878 C 0.64091 0.82736 0.38314 0.0
C4879 C 0.63999 0.81686 0.37191 0.0
C4880 C 0.65102 0.80619 0.37087 0.0
C4881 C 0.66278 0.80617 0.3806 0.0
C4882 C 0.61221 0.80499 0.3434 0.0
C4883 C 0.60765 0.81847 0.33766 0.0
C4884 C 0.62224 0.80447 0.35491 0.0
C4885 C 0.62808 0.81742 0.36082 0.0
C4886 C 0.62308 0.83092 0.35538 0.0
C4887 C 0.61293 0.83143 0.34397 0.0
H4888 H 0.20092 0.6702 0.3802 0.0
H4889 H 0.16236 0.65294 0.40128 0.0
H4890 H 0.20106 0.64961 0.36342 0.0
H4891 H 0.16274 0.63195 0.38475 0.0
H4892 H 0.2044 0.60677 0.34049 0.0
H4893 H 0.20499 0.6241 0.36074 0.0
H4894 H 0.15782 0.62697 0.35957 0.0
H4895 H 0.15725 0.60924 0.33971 0.0
C4896 C 0.1926 0.66186 0.38139 0.0
C4897 C 0.18158 0.66322 0.39199 0.0
C4898 C 0.19273 0.64997 0.37183 0.0
C4899 C 0.1819 0.63908 0.37271 0.0
C4900 C 0.17112 0.64023 0.38363 0.0
C4901 C 0.17094 0.6522 0.39316 0.0
C4902 C 0.19416 0.61096 0.34472 0.0
C4903 C 0.18079 0.60674 0.33846 0.0
C4904 C 0.19449 0.62096 0.35626 0.0
C4905 C 0.18146 0.62709 0.3617 0.0
C4906 C 0.16805 0.62239 0.35579 0.0
C4907 C 0.16772 0.61227 0.34434 0.0
H4908 H 0.34887 0.16939 0.40204 0.0
H4909 H 0.32724 0.20331 0.37734 0.0
H4910 H 0.36939 0.17004 0.38499 0.0
H4911 H 0.34735 0.20357 0.35996 0.0
H4912 H 0.38921 0.2081 0.33508 0.0
H4913 H 0.372 0.20956 0.35541 0.0
H4914 H 0.3746 0.16265 0.36082 0.0
H4915 H 0.39224 0.16136 0.34097 0.0
C4916 C 0.34853 0.177 0.39298 0.0
C4917 C 0.33645 0.18625 0.39098 0.0
C4918 C 0.36024 0.17732 0.38314 0.0
C4919 C 0.36003 0.18679 0.371 0.0
C4920 C 0.34805 0.19629 0.36928 0.0
C4921 C 0.33645 0.19608 0.37919 0.0
C4922 C 0.38623 0.19815 0.34077 0.0
C4923 C 0.392 0.18461 0.33641 0.0
C4924 C 0.37628 0.19895 0.35235 0.0
C4925 C 0.37176 0.18621 0.35972 0.0
C4926 C 0.37794 0.17273 0.35559 0.0
C4927 C 0.388 0.17196 0.34412 0.0
H4928 H 0.65833 0.79573 0.60514 0.0
H4929 H 0.66102 0.84239 0.61174 0.0
H4930 H 0.63776 0.79449 0.62206 0.0
H4931 H 0.64092 0.84114 0.62913 0.0
H4932 H 0.59873 0.83685 0.65381 0.0
H4933 H 0.61571 0.8373 0.63322 0.0
H4934 H 0.63384 0.79601 0.64745 0.0
H4935 H 0.61648 0.79533 0.66756 0.0
C4936 C 0.65448 0.80573 0.61019 0.0
C4937 C 0.66131 0.81914 0.60718 0.0
C4938 C 0.64275 0.80502 0.61997 0.0
C4939 C 0.63771 0.81769 0.62711 0.0
C4940 C 0.64432 0.83117 0.62372 0.0
C4941 C 0.65593 0.8319 0.61381 0.0
C4942 C 0.60622 0.82779 0.65238 0.0
C4943 C 0.60632 0.81608 0.66231 0.0
C4944 C 0.61604 0.82809 0.64065 0.0
C4945 C 0.62627 0.81675 0.63869 0.0
C4946 C 0.62601 0.80484 0.64842 0.0
C4947 C 0.6161 0.80447 0.66004 0.0
H4948 H 0.59969 0.16016 0.34589 0.0
H4949 H 0.61555 0.20275 0.3331 0.0
H4950 H 0.61632 0.16023 0.36676 0.0
H4951 H 0.63259 0.2026 0.3535 0.0
H4952 H 0.65667 0.20336 0.39597 0.0
H4953 H 0.63613 0.20388 0.37896 0.0
H4954 H 0.64157 0.15756 0.37116 0.0
H4955 H 0.66161 0.15699 0.38862 0.0
C4956 C 0.60671 0.16956 0.34758 0.0
C4957 C 0.60638 0.18142 0.33785 0.0
C4958 C 0.61631 0.16957 0.35948 0.0
C4959 C 0.62592 0.18137 0.36181 0.0
C4960 C 0.62524 0.19341 0.35225 0.0
C4961 C 0.61552 0.19346 0.34046 0.0
C4962 C 0.65331 0.19327 0.39076 0.0
C4963 C 0.66077 0.18015 0.39356 0.0
C4964 C 0.6416 0.19357 0.38092 0.0
C4965 C 0.63724 0.1808 0.37352 0.0
C4966 C 0.64444 0.16759 0.37676 0.0
C4967 C 0.65602 0.16726 0.38672 0.0
H4968 H 0.84082 0.60092 0.34487 0.0
H4969 H 0.79681 0.61491 0.33505 0.0
H4970 H 0.8413 0.61724 0.36599 0.0
H4971 H 0.79746 0.63165 0.35567 0.0
H4972 H 0.79813 0.65495 0.39849 0.0
H4973 H 0.79759 0.63465 0.38122 0.0
H4974 H 0.84302 0.64255 0.3707 0.0
H4975 H 0.84366 0.66237 0.38843 0.0
C4976 C 0.83124 0.60746 0.34727 0.0
C4977 C 0.8188 0.60669 0.3383 0.0
C4978 C 0.83153 0.61689 0.35931 0.0
C4979 C 0.81946 0.62588 0.36253 0.0
C4980 C 0.80688 0.62476 0.35372 0.0
C4981 C 0.80654 0.61522 0.34181 0.0
C4982 C 0.80804 0.65218 0.39263 0.0
C4983 C 0.82091 0.66028 0.39474 0.0
C4984 C 0.80772 0.64061 0.38264 0.0
C4985 C 0.82022 0.63702 0.3744 0.0
C4986 C 0.83323 0.64483 0.37695 0.0
C4987 C 0.83359 0.65628 0.38706 0.0
H4988 H 0.3996 0.83941 0.34647 0.0
H4989 H 0.38134 0.79847 0.33162 0.0
H4990 H 0.38258 0.83951 0.36706 0.0
H4991 H 0.36409 0.79876 0.35186 0.0
H4992 H 0.33674 0.84399 0.3882 0.0
H4993 H 0.35687 0.84321 0.37077 0.0
H4994 H 0.36111 0.79667 0.37775 0.0
H4995 H 0.34066 0.79741 0.39486 0.0
C4996 C 0.392 0.8304 0.34766 0.0
C4997 C 0.39176 0.81896 0.33741 0.0
C4998 C 0.38219 0.83049 0.3594 0.0
C4999 C 0.3719 0.81918 0.3611 0.0
C5000 C 0.37198 0.80755 0.35104 0.0
C5001 C 0.38182 0.80742 0.33936 0.0
C5002 C 0.34209 0.83362 0.38613 0.0
C5003 C 0.33705 0.82074 0.3928 0.0
C5004 C 0.35369 0.83318 0.37619 0.0
C5005 C 0.36057 0.81985 0.37276 0.0
C5006 C 0.35589 0.80707 0.37993 0.0
C5007 C 0.34423 0.8075 0.3898 0.0
H5008 H 0.20419 0.39564 0.34112 0.0
H5009 H 0.15798 0.38785 0.33538 0.0
H5010 H 0.20441 0.37905 0.36201 0.0
H5011 H 0.15825 0.37085 0.35585 0.0
H5012 H 0.16025 0.34744 0.39894 0.0
H5013 H 0.16058 0.36767 0.38152 0.0
H5014 H 0.20296 0.35351 0.36606 0.0
H5015 H 0.20282 0.33373 0.3838 0.0
C5016 C 0.19407 0.3904 0.34436 0.0
C5017 C 0.18109 0.39298 0.33659 0.0
C5018 C 0.1942 0.38083 0.35627 0.0
C5019 C 0.18137 0.3735 0.36058 0.0
C5020 C 0.1683 0.37643 0.35301 0.0
C5021 C 0.16815 0.38611 0.3412 0.0
C5022 C 0.1697 0.3488 0.39194 0.0
C5023 C 0.18148 0.33898 0.39268 0.0
C5024 C 0.16986 0.36033 0.38188 0.0
C5025 C 0.18175 0.36219 0.37228 0.0
C5026 C 0.19371 0.35258 0.37339 0.0
C5027 C 0.1936 0.34116 0.38351 0.0
H5028 H 0.38556 0.15477 0.66398 0.0
H5029 H 0.39692 0.19986 0.65589 0.0
H5030 H 0.36781 0.15562 0.64421 0.0
H5031 H 0.37955 0.20061 0.63563 0.0
H5032 H 0.33365 0.20174 0.61481 0.0
H5033 H 0.35391 0.20117 0.63206 0.0
H5034 H 0.36395 0.15693 0.61873 0.0
H5035 H 0.34326 0.15736 0.60192 0.0
C5036 C 0.38444 0.1648 0.65778 0.0
C5037 C 0.39256 0.17727 0.66153 0.0
C5038 C 0.37432 0.16527 0.64636 0.0
C5039 C 0.37218 0.1782 0.63829 0.0
C5040 C 0.38071 0.19054 0.64175 0.0
C5041 C 0.39074 0.1901 0.65329 0.0
C5042 C 0.34028 0.19195 0.61548 0.0
C5043 C 0.33681 0.17955 0.60711 0.0
C5044 C 0.35197 0.19163 0.62532 0.0
C5045 C 0.36056 0.17896 0.62689 0.0
C5046 C 0.35741 0.16677 0.61804 0.0
C5047 C 0.34561 0.16704 0.60833 0.0
H5048 H 0.79873 0.39551 0.65728 0.0
H5049 H 0.8452 0.38861 0.66208 0.0
H5050 H 0.79821 0.37812 0.63707 0.0
H5051 H 0.84464 0.37088 0.64219 0.0
H5052 H 0.84117 0.34583 0.59977 0.0
H5053 H 0.84129 0.36668 0.61648 0.0
H5054 H 0.80015 0.35218 0.63468 0.0
H5055 H 0.79985 0.33169 0.61774 0.0
C5056 C 0.80885 0.39035 0.65394 0.0
C5057 C 0.82199 0.39335 0.66131 0.0
C5058 C 0.80855 0.38031 0.64242 0.0
C5059 C 0.82136 0.37297 0.63808 0.0
C5060 C 0.8346 0.37643 0.64512 0.0
C5061 C 0.83491 0.38653 0.65658 0.0
C5062 C 0.83209 0.34722 0.60724 0.0
C5063 C 0.82053 0.33711 0.60748 0.0
C5064 C 0.83219 0.35911 0.61687 0.0
C5065 C 0.82076 0.3611 0.62697 0.0
C5066 C 0.80903 0.35114 0.62691 0.0
C5067 C 0.8089 0.33932 0.61726 0.0
H5068 H 0.16253 0.59837 0.65159 0.0
H5069 H 0.20288 0.61781 0.66654 0.0
H5070 H 0.16212 0.61519 0.63084 0.0
H5071 H 0.2023 0.63485 0.64612 0.0
H5072 H 0.20316 0.65822 0.60314 0.0
H5073 H 0.20437 0.63771 0.62015 0.0
H5074 H 0.15774 0.64089 0.62719 0.0
H5075 H 0.15651 0.6611 0.60988 0.0
C5076 C 0.17136 0.60617 0.65038 0.0
C5077 C 0.1827 0.60682 0.66071 0.0
C5078 C 0.17108 0.61586 0.63855 0.0
C5079 C 0.18213 0.62644 0.63684 0.0
C5080 C 0.19371 0.62673 0.64696 0.0
C5081 C 0.19401 0.61702 0.65873 0.0
C5082 C 0.19315 0.65439 0.60818 0.0
C5083 C 0.17976 0.66132 0.60526 0.0
C5084 C 0.19385 0.64269 0.61799 0.0
C5085 C 0.18118 0.63772 0.62515 0.0
C5086 C 0.16769 0.64431 0.62176 0.0
C5087 C 0.16699 0.65596 0.6119 0.0
loop_
_geom_bond_atom_site_label_1
_geom_bond_atom_site_label_2
_geom_bond_distance
_geom_bond_site_symmetry_2
_ccdc_geom_bond_type
In0 O1 2.294 . S
In0 O2 2.326 . S
In0 O6 2.266 . S
In0 O7 2.326 . S
In0 O8 2.266 . S
In0 O9 2.326 . S
In0 O11 2.294 . S
In0 O12 2.326 . S
O1 In0 2.294 . S
O1 C10 1.240 . S
O2 In0 2.326 . S
O2 C10 1.252 . S
C3 O6 1.252 . S
C3 O7 1.260 . S
C4 O11 1.240 . S
C4 O12 1.252 . S
C5 O8 1.252 . S
C5 O9 1.260 . S
O6 In0 2.266 . S
O6 C3 1.252 . S
O7 In0 2.326 . S
O7 C3 1.260 . S
O8 In0 2.266 . S
O8 C5 1.252 . S
O9 In0 2.326 . S
O9 C5 1.260 . S
C10 O1 1.240 . S
C10 O2 1.252 . S
O11 In0 2.294 . S
O11 C4 1.240 . S
O12 In0 2.326 . S
O12 C4 1.252 . S
In13 O14 2.294 . S
In13 O15 2.326 . S
In13 O19 2.266 . S
In13 O20 2.326 . S
In13 O21 2.266 . S
In13 O22 2.326 . S
In13 O24 2.294 . S
In13 O25 2.326 . S
O14 In13 2.294 . S
O14 C23 1.240 . S
O15 In13 2.326 . S
O15 C23 1.252 . S
C16 O19 1.252 . S
C16 O20 1.260 . S
C17 O24 1.240 . S
C17 O25 1.252 . S
C18 O21 1.252 . S
C18 O22 1.260 . S
O19 In13 2.266 . S
O19 C16 1.252 . S
O20 In13 2.326 . S
O20 C16 1.260 . S
O21 In13 2.266 . S
O21 C18 1.252 . S
O22 In13 2.326 . S
O22 C18 1.260 . S
C23 O14 1.240 . S
C23 O15 1.252 . S
O24 In13 2.294 . S
O24 C17 1.240 . S
O25 In13 2.326 . S
O25 C17 1.252 . S
In26 O27 2.294 . S
In26 O28 2.326 . S
In26 O32 2.266 . S
In26 O33 2.326 . S
In26 O34 2.266 . S
In26 O35 2.326 . S
In26 O37 2.294 . S
In26 O38 2.326 . S
O27 In26 2.294 . S
O27 C36 1.240 . S
O28 In26 2.326 . S
O28 C36 1.252 . S
C29 O32 1.252 . S
C29 O33 1.260 . S
C30 O37 1.240 . S
C30 O38 1.252 . S
C31 O34 1.252 . S
C31 O35 1.260 . S
O32 In26 2.266 . S
O32 C29 1.252 . S
O33 In26 2.326 . S
O33 C29 1.260 . S
O34 In26 2.266 . S
O34 C31 1.252 . S
O35 In26 2.326 . S
O35 C31 1.260 . S
C36 O27 1.240 . S
C36 O28 1.252 . S
O37 In26 2.294 . S
O37 C30 1.240 . S
O38 In26 2.326 . S
O38 C30 1.252 . S
In39 O40 2.294 . S
In39 O41 2.326 . S
In39 O45 2.266 . S
In39 O46 2.326 . S
In39 O47 2.266 . S
In39 O48 2.326 . S
In39 O50 2.294 . S
In39 O51 2.326 . S
O40 In39 2.294 . S
O40 C49 1.240 . S
O41 In39 2.326 . S
O41 C49 1.252 . S
C42 O45 1.252 . S
C42 O46 1.260 . S
C43 O50 1.240 . S
C43 O51 1.252 . S
C44 O47 1.252 . S
C44 O48 1.260 . S
O45 In39 2.266 . S
O45 C42 1.252 . S
O46 In39 2.326 . S
O46 C42 1.260 . S
O47 In39 2.266 . S
O47 C44 1.252 . S
O48 In39 2.326 . S
O48 C44 1.260 . S
C49 O40 1.240 . S
C49 O41 1.252 . S
O50 In39 2.294 . S
O50 C43 1.240 . S
O51 In39 2.326 . S
O51 C43 1.252 . S
In52 O53 2.294 . S
In52 O54 2.326 . S
In52 O58 2.266 . S
In52 O59 2.326 . S
In52 O60 2.266 . S
In52 O61 2.326 . S
In52 O63 2.294 . S
In52 O64 2.326 . S
O53 In52 2.294 . S
O53 C62 1.240 . S
O54 In52 2.326 . S
O54 C62 1.252 . S
C55 O58 1.252 . S
C55 O59 1.260 . S
C56 O63 1.240 . S
C56 O64 1.252 . S
C57 O60 1.252 . S
C57 O61 1.260 . S
O58 In52 2.266 . S
O58 C55 1.252 . S
O59 In52 2.326 . S
O59 C55 1.260 . S
O60 In52 2.266 . S
O60 C57 1.252 . S
O61 In52 2.326 . S
O61 C57 1.260 . S
C62 O53 1.240 . S
C62 O54 1.252 . S
O63 In52 2.294 . S
O63 C56 1.240 . S
O64 In52 2.326 . S
O64 C56 1.252 . S
In65 O66 2.294 . S
In65 O67 2.326 . S
In65 O71 2.266 . S
In65 O72 2.326 . S
In65 O73 2.266 . S
In65 O74 2.326 . S
In65 O76 2.294 . S
In65 O77 2.326 . S
O66 In65 2.294 . S
O66 C75 1.240 . S
O67 In65 2.326 . S
O67 C75 1.252 . S
C68 O71 1.252 . S
C68 O72 1.260 . S
C69 O76 1.240 . S
C69 O77 1.252 . S
C70 O73 1.252 . S
C70 O74 1.260 . S
O71 In65 2.266 . S
O71 C68 1.252 . S
O72 In65 2.326 . S
O72 C68 1.260 . S
O73 In65 2.266 . S
O73 C70 1.252 . S
O74 In65 2.326 . S
O74 C70 1.260 . S
C75 O66 1.240 . S
C75 O67 1.252 . S
O76 In65 2.294 . S
O76 C69 1.240 . S
O77 In65 2.326 . S
O77 C69 1.252 . S
In78 O79 2.294 . S
In78 O80 2.326 . S
In78 O84 2.266 . S
In78 O85 2.326 . S
In78 O86 2.266 . S
In78 O87 2.326 . S
In78 O89 2.294 . S
In78 O90 2.326 . S
O79 In78 2.294 . S
O79 C88 1.240 . S
O80 In78 2.326 . S
O80 C88 1.252 . S
C81 O84 1.252 . S
C81 O85 1.260 . S
C82 O89 1.240 . S
C82 O90 1.252 . S
C83 O86 1.252 . S
C83 O87 1.260 . S
O84 In78 2.266 . S
O84 C81 1.252 . S
O85 In78 2.326 . S
O85 C81 1.260 . S
O86 In78 2.266 . S
O86 C83 1.252 . S
O87 In78 2.326 . S
O87 C83 1.260 . S
C88 O79 1.240 . S
C88 O80 1.252 . S
O89 In78 2.294 . S
O89 C82 1.240 . S
O90 In78 2.326 . S
O90 C82 1.252 . S
In91 O92 2.294 . S
In91 O93 2.326 . S
In91 O97 2.266 . S
In91 O98 2.326 . S
In91 O99 2.266 . S
In91 O100 2.326 . S
In91 O102 2.294 . S
In91 O103 2.326 . S
O92 In91 2.294 . S
O92 C101 1.240 . S
O93 In91 2.326 . S
O93 C101 1.252 . S
C94 O97 1.252 . S
C94 O98 1.260 . S
C95 O102 1.240 . S
C95 O103 1.252 . S
C96 O99 1.252 . S
C96 O100 1.260 . S
O97 In91 2.266 . S
O97 C94 1.252 . S
O98 In91 2.326 . S
O98 C94 1.260 . S
O99 In91 2.266 . S
O99 C96 1.252 . S
O100 In91 2.326 . S
O100 C96 1.260 . S
C101 O92 1.240 . S
C101 O93 1.252 . S
O102 In91 2.294 . S
O102 C95 1.240 . S
O103 In91 2.326 . S
O103 C95 1.252 . S
In104 O105 2.294 . S
In104 O106 2.326 . S
In104 O110 2.266 . S
In104 O111 2.326 . S
In104 O112 2.266 . S
In104 O113 2.326 . S
In104 O115 2.294 . S
In104 O116 2.326 . S
O105 In104 2.294 . S
O105 C114 1.240 . S
O106 In104 2.326 . S
O106 C114 1.252 . S
C107 O110 1.252 . S
C107 O111 1.260 . S
C108 O115 1.240 . S
C108 O116 1.252 . S
C109 O112 1.252 . S
C109 O113 1.260 . S
O110 In104 2.266 . S
O110 C107 1.252 . S
O111 In104 2.326 . S
O111 C107 1.260 . S
O112 In104 2.266 . S
O112 C109 1.252 . S
O113 In104 2.326 . S
O113 C109 1.260 . S
C114 O105 1.240 . S
C114 O106 1.252 . S
O115 In104 2.294 . S
O115 C108 1.240 . S
O116 In104 2.326 . S
O116 C108 1.252 . S
In117 O118 2.294 . S
In117 O119 2.326 . S
In117 O123 2.266 . S
In117 O124 2.326 . S
In117 O125 2.266 . S
In117 O126 2.326 . S
In117 O128 2.294 . S
In117 O129 2.326 . S
O118 In117 2.294 . S
O118 C127 1.240 . S
O119 In117 2.326 . S
O119 C127 1.252 . S
C120 O123 1.252 . S
C120 O124 1.260 . S
C121 O128 1.240 . S
C121 O129 1.252 . S
C122 O125 1.252 . S
C122 O126 1.260 . S
O123 In117 2.266 . S
O123 C120 1.252 . S
O124 In117 2.326 . S
O124 C120 1.260 . S
O125 In117 2.266 . S
O125 C122 1.252 . S
O126 In117 2.326 . S
O126 C122 1.260 . S
C127 O118 1.240 . S
C127 O119 1.252 . S
O128 In117 2.294 . S
O128 C121 1.240 . S
O129 In117 2.326 . S
O129 C121 1.252 . S
In130 O131 2.294 . S
In130 O132 2.326 . S
In130 O136 2.266 . S
In130 O137 2.326 . S
In130 O138 2.266 . S
In130 O139 2.326 . S
In130 O141 2.294 . S
In130 O142 2.326 . S
O131 In130 2.294 . S
O131 C140 1.240 . S
O132 In130 2.326 . S
O132 C140 1.252 . S
C133 O136 1.252 . S
C133 O137 1.260 . S
C134 O141 1.240 . S
C134 O142 1.252 . S
C135 O138 1.252 . S
C135 O139 1.260 . S
O136 In130 2.266 . S
O136 C133 1.252 . S
O137 In130 2.326 . S
O137 C133 1.260 . S
O138 In130 2.266 . S
O138 C135 1.252 . S
O139 In130 2.326 . S
O139 C135 1.260 . S
C140 O131 1.240 . S
C140 O132 1.252 . S
O141 In130 2.294 . S
O141 C134 1.240 . S
O142 In130 2.326 . S
O142 C134 1.252 . S
In143 O144 2.294 . S
In143 O145 2.326 . S
In143 O149 2.266 . S
In143 O150 2.326 . S
In143 O151 2.266 . S
In143 O152 2.326 . S
In143 O154 2.294 . S
In143 O155 2.326 . S
O144 In143 2.294 . S
O144 C153 1.240 . S
O145 In143 2.326 . S
O145 C153 1.252 . S
C146 O149 1.252 . S
C146 O150 1.260 . S
C147 O154 1.240 . S
C147 O155 1.252 . S
C148 O151 1.252 . S
C148 O152 1.260 . S
O149 In143 2.266 . S
O149 C146 1.252 . S
O150 In143 2.326 . S
O150 C146 1.260 . S
O151 In143 2.266 . S
O151 C148 1.252 . S
O152 In143 2.326 . S
O152 C148 1.260 . S
C153 O144 1.240 . S
C153 O145 1.252 . S
O154 In143 2.294 . S
O154 C147 1.240 . S
O155 In143 2.326 . S
O155 C147 1.252 . S
In156 O157 2.294 . S
In156 O158 2.326 . S
In156 O162 2.266 . S
In156 O163 2.326 . S
In156 O164 2.266 . S
In156 O165 2.326 . S
In156 O167 2.294 . S
In156 O168 2.326 . S
O157 In156 2.294 . S
O157 C166 1.240 . S
O158 In156 2.326 . S
O158 C166 1.252 . S
C159 O162 1.252 . S
C159 O163 1.260 . S
C160 O167 1.240 . S
C160 O168 1.252 . S
C161 O164 1.252 . S
C161 O165 1.260 . S
O162 In156 2.266 . S
O162 C159 1.252 . S
O163 In156 2.326 . S
O163 C159 1.260 . S
O164 In156 2.266 . S
O164 C161 1.252 . S
O165 In156 2.326 . S
O165 C161 1.260 . S
C166 O157 1.240 . S
C166 O158 1.252 . S
O167 In156 2.294 . S
O167 C160 1.240 . S
O168 In156 2.326 . S
O168 C160 1.252 . S
In169 O170 2.294 . S
In169 O171 2.326 . S
In169 O175 2.266 . S
In169 O176 2.326 . S
In169 O177 2.266 . S
In169 O178 2.326 . S
In169 O180 2.294 . S
In169 O181 2.326 . S
O170 In169 2.294 . S
O170 C179 1.240 . S
O171 In169 2.326 . S
O171 C179 1.252 . S
C172 O175 1.252 . S
C172 O176 1.260 . S
C173 O180 1.240 . S
C173 O181 1.252 . S
C174 O177 1.252 . S
C174 O178 1.260 . S
O175 In169 2.266 . S
O175 C172 1.252 . S
O176 In169 2.326 . S
O176 C172 1.260 . S
O177 In169 2.266 . S
O177 C174 1.252 . S
O178 In169 2.326 . S
O178 C174 1.260 . S
C179 O170 1.240 . S
C179 O171 1.252 . S
O180 In169 2.294 . S
O180 C173 1.240 . S
O181 In169 2.326 . S
O181 C173 1.252 . S
In182 O183 2.294 . S
In182 O184 2.326 . S
In182 O188 2.266 . S
In182 O189 2.326 . S
In182 O190 2.266 . S
In182 O191 2.326 . S
In182 O193 2.294 . S
In182 O194 2.326 . S
O183 In182 2.294 . S
O183 C192 1.240 . S
O184 In182 2.326 . S
O184 C192 1.252 . S
C185 O188 1.252 . S
C185 O189 1.260 . S
C186 O193 1.240 . S
C186 O194 1.252 . S
C187 O190 1.252 . S
C187 O191 1.260 . S
O188 In182 2.266 . S
O188 C185 1.252 . S
O189 In182 2.326 . S
O189 C185 1.260 . S
O190 In182 2.266 . S
O190 C187 1.252 . S
O191 In182 2.326 . S
O191 C187 1.260 . S
C192 O183 1.240 . S
C192 O184 1.252 . S
O193 In182 2.294 . S
O193 C186 1.240 . S
O194 In182 2.326 . S
O194 C186 1.252 . S
In195 O196 2.294 . S
In195 O197 2.326 . S
In195 O201 2.266 . S
In195 O202 2.326 . S
In195 O203 2.266 . S
In195 O204 2.326 . S
In195 O206 2.294 . S
In195 O207 2.326 . S
O196 In195 2.294 . S
O196 C205 1.240 . S
O197 In195 2.326 . S
O197 C205 1.252 . S
C198 O201 1.252 . S
C198 O202 1.260 . S
C199 O206 1.240 . S
C199 O207 1.252 . S
C200 O203 1.252 . S
C200 O204 1.260 . S
O201 In195 2.266 . S
O201 C198 1.252 . S
O202 In195 2.326 . S
O202 C198 1.260 . S
O203 In195 2.266 . S
O203 C200 1.252 . S
O204 In195 2.326 . S
O204 C200 1.260 . S
C205 O196 1.240 . S
C205 O197 1.252 . S
O206 In195 2.294 . S
O206 C199 1.240 . S
O207 In195 2.326 . S
O207 C199 1.252 . S
In208 O209 2.294 . S
In208 O210 2.326 . S
In208 O214 2.266 . S
In208 O215 2.326 . S
In208 O216 2.266 . S
In208 O217 2.326 . S
In208 O219 2.294 . S
In208 O220 2.326 . S
O209 In208 2.294 . S
O209 C218 1.240 . S
O210 In208 2.326 . S
O210 C218 1.252 . S
C211 O214 1.252 . S
C211 O215 1.260 . S
C212 O219 1.240 . S
C212 O220 1.252 . S
C213 O216 1.252 . S
C213 O217 1.260 . S
O214 In208 2.266 . S
O214 C211 1.252 . S
O215 In208 2.326 . S
O215 C211 1.260 . S
O216 In208 2.266 . S
O216 C213 1.252 . S
O217 In208 2.326 . S
O217 C213 1.260 . S
C218 O209 1.240 . S
C218 O210 1.252 . S
O219 In208 2.294 . S
O219 C212 1.240 . S
O220 In208 2.326 . S
O220 C212 1.252 . S
In221 O222 2.294 . S
In221 O223 2.326 . S
In221 O227 2.266 . S
In221 O228 2.326 . S
In221 O229 2.266 . S
In221 O230 2.326 . S
In221 O232 2.294 . S
In221 O233 2.326 . S
O222 In221 2.294 . S
O222 C231 1.240 . S
O223 In221 2.326 . S
O223 C231 1.252 . S
C224 O227 1.252 . S
C224 O228 1.260 . S
C225 O232 1.240 . S
C225 O233 1.252 . S
C226 O229 1.252 . S
C226 O230 1.260 . S
O227 In221 2.266 . S
O227 C224 1.252 . S
O228 In221 2.326 . S
O228 C224 1.260 . S
O229 In221 2.266 . S
O229 C226 1.252 . S
O230 In221 2.326 . S
O230 C226 1.260 . S
C231 O222 1.240 . S
C231 O223 1.252 . S
O232 In221 2.294 . S
O232 C225 1.240 . S
O233 In221 2.326 . S
O233 C225 1.252 . S
In234 O235 2.294 . S
In234 O236 2.326 . S
In234 O240 2.266 . S
In234 O241 2.326 . S
In234 O242 2.266 . S
In234 O243 2.326 . S
In234 O245 2.294 . S
In234 O246 2.326 . S
O235 In234 2.294 . S
O235 C244 1.240 . S
O236 In234 2.326 . S
O236 C244 1.252 . S
C237 O240 1.252 . S
C237 O241 1.260 . S
C238 O245 1.240 . S
C238 O246 1.252 . S
C239 O242 1.252 . S
C239 O243 1.260 . S
O240 In234 2.266 . S
O240 C237 1.252 . S
O241 In234 2.326 . S
O241 C237 1.260 . S
O242 In234 2.266 . S
O242 C239 1.252 . S
O243 In234 2.326 . S
O243 C239 1.260 . S
C244 O235 1.240 . S
C244 O236 1.252 . S
O245 In234 2.294 . S
O245 C238 1.240 . S
O246 In234 2.326 . S
O246 C238 1.252 . S
In247 O248 2.294 . S
In247 O249 2.326 . S
In247 O253 2.266 . S
In247 O254 2.326 . S
In247 O255 2.266 . S
In247 O256 2.326 . S
In247 O258 2.294 . S
In247 O259 2.326 . S
O248 In247 2.294 . S
O248 C257 1.240 . S
O249 In247 2.326 . S
O249 C257 1.252 . S
C250 O253 1.252 . S
C250 O254 1.260 . S
C251 O258 1.240 . S
C251 O259 1.252 . S
C252 O255 1.252 . S
C252 O256 1.260 . S
O253 In247 2.266 . S
O253 C250 1.252 . S
O254 In247 2.326 . S
O254 C250 1.260 . S
O255 In247 2.266 . S
O255 C252 1.252 . S
O256 In247 2.326 . S
O256 C252 1.260 . S
C257 O248 1.240 . S
C257 O249 1.252 . S
O258 In247 2.294 . S
O258 C251 1.240 . S
O259 In247 2.326 . S
O259 C251 1.252 . S
In260 O261 2.294 . S
In260 O262 2.326 . S
In260 O266 2.266 . S
In260 O267 2.326 . S
In260 O268 2.266 . S
In260 O269 2.326 . S
In260 O271 2.294 . S
In260 O272 2.326 . S
O261 In260 2.294 . S
O261 C270 1.240 . S
O262 In260 2.326 . S
O262 C270 1.252 . S
C263 O266 1.252 . S
C263 O267 1.260 . S
C264 O271 1.240 . S
C264 O272 1.252 . S
C265 O268 1.252 . S
C265 O269 1.260 . S
O266 In260 2.266 . S
O266 C263 1.252 . S
O267 In260 2.326 . S
O267 C263 1.260 . S
O268 In260 2.266 . S
O268 C265 1.252 . S
O269 In260 2.326 . S
O269 C265 1.260 . S
C270 O261 1.240 . S
C270 O262 1.252 . S
O271 In260 2.294 . S
O271 C264 1.240 . S
O272 In260 2.326 . S
O272 C264 1.252 . S
In273 O274 2.294 . S
In273 O275 2.326 . S
In273 O279 2.266 . S
In273 O280 2.326 . S
In273 O281 2.266 . S
In273 O282 2.326 . S
In273 O284 2.294 . S
In273 O285 2.326 . S
O274 In273 2.294 . S
O274 C283 1.240 . S
O275 In273 2.326 . S
O275 C283 1.252 . S
C276 O279 1.252 . S
C276 O280 1.260 . S
C277 O284 1.240 . S
C277 O285 1.252 . S
C278 O281 1.252 . S
C278 O282 1.260 . S
O279 In273 2.266 . S
O279 C276 1.252 . S
O280 In273 2.326 . S
O280 C276 1.260 . S
O281 In273 2.266 . S
O281 C278 1.252 . S
O282 In273 2.326 . S
O282 C278 1.260 . S
C283 O274 1.240 . S
C283 O275 1.252 . S
O284 In273 2.294 . S
O284 C277 1.240 . S
O285 In273 2.326 . S
O285 C277 1.252 . S
In286 O287 2.294 . S
In286 O288 2.326 . S
In286 O292 2.266 . S
In286 O293 2.326 . S
In286 O294 2.266 . S
In286 O295 2.326 . S
In286 O297 2.294 . S
In286 O298 2.326 . S
O287 In286 2.294 . S
O287 C296 1.240 . S
O288 In286 2.326 . S
O288 C296 1.252 . S
C289 O292 1.252 . S
C289 O293 1.260 . S
C290 O297 1.240 . S
C290 O298 1.252 . S
C291 O294 1.252 . S
C291 O295 1.260 . S
O292 In286 2.266 . S
O292 C289 1.252 . S
O293 In286 2.326 . S
O293 C289 1.260 . S
O294 In286 2.266 . S
O294 C291 1.252 . S
O295 In286 2.326 . S
O295 C291 1.260 . S
C296 O287 1.240 . S
C296 O288 1.252 . S
O297 In286 2.294 . S
O297 C290 1.240 . S
O298 In286 2.326 . S
O298 C290 1.252 . S
In299 O300 2.294 . S
In299 O301 2.326 . S
In299 O305 2.266 . S
In299 O306 2.326 . S
In299 O307 2.266 . S
In299 O308 2.326 . S
In299 O310 2.294 . S
In299 O311 2.326 . S
O300 In299 2.294 . S
O300 C309 1.240 . S
O301 In299 2.326 . S
O301 C309 1.252 . S
C302 O305 1.252 . S
C302 O306 1.260 . S
C303 O310 1.240 . S
C303 O311 1.252 . S
C304 O307 1.252 . S
C304 O308 1.260 . S
O305 In299 2.266 . S
O305 C302 1.252 . S
O306 In299 2.326 . S
O306 C302 1.260 . S
O307 In299 2.266 . S
O307 C304 1.252 . S
O308 In299 2.326 . S
O308 C304 1.260 . S
C309 O300 1.240 . S
C309 O301 1.252 . S
O310 In299 2.294 . S
O310 C303 1.240 . S
O311 In299 2.326 . S
O311 C303 1.252 . S
In312 O313 2.294 . S
In312 O314 2.326 . S
In312 O318 2.266 . S
In312 O319 2.326 . S
In312 O320 2.266 . S
In312 O321 2.326 . S
In312 O323 2.294 . S
In312 O324 2.326 . S
O313 In312 2.294 . S
O313 C322 1.240 . S
O314 In312 2.326 . S
O314 C322 1.252 . S
C315 O318 1.252 . S
C315 O319 1.260 . S
C316 O323 1.240 . S
C316 O324 1.252 . S
C317 O320 1.252 . S
C317 O321 1.260 . S
O318 In312 2.266 . S
O318 C315 1.252 . S
O319 In312 2.326 . S
O319 C315 1.260 . S
O320 In312 2.266 . S
O320 C317 1.252 . S
O321 In312 2.326 . S
O321 C317 1.260 . S
C322 O313 1.240 . S
C322 O314 1.252 . S
O323 In312 2.294 . S
O323 C316 1.240 . S
O324 In312 2.326 . S
O324 C316 1.252 . S
In325 O326 2.294 . S
In325 O327 2.326 . S
In325 O331 2.266 . S
In325 O332 2.326 . S
In325 O333 2.266 . S
In325 O334 2.326 . S
In325 O336 2.294 . S
In325 O337 2.326 . S
O326 In325 2.294 . S
O326 C335 1.240 . S
O327 In325 2.326 . S
O327 C335 1.252 . S
C328 O331 1.252 . S
C328 O332 1.260 . S
C329 O336 1.240 . S
C329 O337 1.252 . S
C330 O333 1.252 . S
C330 O334 1.260 . S
O331 In325 2.266 . S
O331 C328 1.252 . S
O332 In325 2.326 . S
O332 C328 1.260 . S
O333 In325 2.266 . S
O333 C330 1.252 . S
O334 In325 2.326 . S
O334 C330 1.260 . S
C335 O326 1.240 . S
C335 O327 1.252 . S
O336 In325 2.294 . S
O336 C329 1.240 . S
O337 In325 2.326 . S
O337 C329 1.252 . S
In338 O339 2.294 . S
In338 O340 2.326 . S
In338 O344 2.266 . S
In338 O345 2.326 . S
In338 O346 2.266 . S
In338 O347 2.326 . S
In338 O349 2.294 . S
In338 O350 2.326 . S
O339 In338 2.294 . S
O339 C348 1.240 . S
O340 In338 2.326 . S
O340 C348 1.252 . S
C341 O344 1.252 . S
C341 O345 1.260 . S
C342 O349 1.240 . S
C342 O350 1.252 . S
C343 O346 1.252 . S
C343 O347 1.260 . S
O344 In338 2.266 . S
O344 C341 1.252 . S
O345 In338 2.326 . S
O345 C341 1.260 . S
O346 In338 2.266 . S
O346 C343 1.252 . S
O347 In338 2.326 . S
O347 C343 1.260 . S
C348 O339 1.240 . S
C348 O340 1.252 . S
O349 In338 2.294 . S
O349 C342 1.240 . S
O350 In338 2.326 . S
O350 C342 1.252 . S
In351 O352 2.294 . S
In351 O353 2.326 . S
In351 O357 2.266 . S
In351 O358 2.326 . S
In351 O359 2.266 . S
In351 O360 2.326 . S
In351 O362 2.294 . S
In351 O363 2.326 . S
O352 In351 2.294 . S
O352 C361 1.240 . S
O353 In351 2.326 . S
O353 C361 1.252 . S
C354 O357 1.252 . S
C354 O358 1.260 . S
C355 O362 1.240 . S
C355 O363 1.252 . S
C356 O359 1.252 . S
C356 O360 1.260 . S
O357 In351 2.266 . S
O357 C354 1.252 . S
O358 In351 2.326 . S
O358 C354 1.260 . S
O359 In351 2.266 . S
O359 C356 1.252 . S
O360 In351 2.326 . S
O360 C356 1.260 . S
C361 O352 1.240 . S
C361 O353 1.252 . S
O362 In351 2.294 . S
O362 C355 1.240 . S
O363 In351 2.326 . S
O363 C355 1.252 . S
In364 O365 2.294 . S
In364 O366 2.326 . S
In364 O370 2.266 . S
In364 O371 2.326 . S
In364 O372 2.266 . S
In364 O373 2.326 . S
In364 O375 2.294 . S
In364 O376 2.326 . S
O365 In364 2.294 . S
O365 C374 1.240 . S
O366 In364 2.326 . S
O366 C374 1.252 . S
C367 O370 1.252 . S
C367 O371 1.260 . S
C368 O375 1.240 . S
C368 O376 1.252 . S
C369 O372 1.252 . S
C369 O373 1.260 . S
O370 In364 2.266 . S
O370 C367 1.252 . S
O371 In364 2.326 . S
O371 C367 1.260 . S
O372 In364 2.266 . S
O372 C369 1.252 . S
O373 In364 2.326 . S
O373 C369 1.260 . S
C374 O365 1.240 . S
C374 O366 1.252 . S
O375 In364 2.294 . S
O375 C368 1.240 . S
O376 In364 2.326 . S
O376 C368 1.252 . S
In377 O378 2.294 . S
In377 O379 2.326 . S
In377 O383 2.266 . S
In377 O384 2.326 . S
In377 O385 2.266 . S
In377 O386 2.326 . S
In377 O388 2.294 . S
In377 O389 2.326 . S
O378 In377 2.294 . S
O378 C387 1.240 . S
O379 In377 2.326 . S
O379 C387 1.252 . S
C380 O383 1.252 . S
C380 O384 1.260 . S
C381 O388 1.240 . S
C381 O389 1.252 . S
C382 O385 1.252 . S
C382 O386 1.260 . S
O383 In377 2.266 . S
O383 C380 1.252 . S
O384 In377 2.326 . S
O384 C380 1.260 . S
O385 In377 2.266 . S
O385 C382 1.252 . S
O386 In377 2.326 . S
O386 C382 1.260 . S
C387 O378 1.240 . S
C387 O379 1.252 . S
O388 In377 2.294 . S
O388 C381 1.240 . S
O389 In377 2.326 . S
O389 C381 1.252 . S
In390 O391 2.294 . S
In390 O392 2.326 . S
In390 O396 2.266 . S
In390 O397 2.326 . S
In390 O398 2.266 . S
In390 O399 2.326 . S
In390 O401 2.294 . S
In390 O402 2.326 . S
O391 In390 2.294 . S
O391 C400 1.240 . S
O392 In390 2.326 . S
O392 C400 1.252 . S
C393 O396 1.252 . S
C393 O397 1.260 . S
C394 O401 1.240 . S
C394 O402 1.252 . S
C395 O398 1.252 . S
C395 O399 1.260 . S
O396 In390 2.266 . S
O396 C393 1.252 . S
O397 In390 2.326 . S
O397 C393 1.260 . S
O398 In390 2.266 . S
O398 C395 1.252 . S
O399 In390 2.326 . S
O399 C395 1.260 . S
C400 O391 1.240 . S
C400 O392 1.252 . S
O401 In390 2.294 . S
O401 C394 1.240 . S
O402 In390 2.326 . S
O402 C394 1.252 . S
In403 O404 2.294 . S
In403 O405 2.326 . S
In403 O409 2.266 . S
In403 O410 2.326 . S
In403 O411 2.266 . S
In403 O412 2.326 . S
In403 O414 2.294 . S
In403 O415 2.326 . S
O404 In403 2.294 . S
O404 C413 1.240 . S
O405 In403 2.326 . S
O405 C413 1.252 . S
C406 O409 1.252 . S
C406 O410 1.260 . S
C407 O414 1.240 . S
C407 O415 1.252 . S
C408 O411 1.252 . S
C408 O412 1.260 . S
O409 In403 2.266 . S
O409 C406 1.252 . S
O410 In403 2.326 . S
O410 C406 1.260 . S
O411 In403 2.266 . S
O411 C408 1.252 . S
O412 In403 2.326 . S
O412 C408 1.260 . S
C413 O404 1.240 . S
C413 O405 1.252 . S
O414 In403 2.294 . S
O414 C407 1.240 . S
O415 In403 2.326 . S
O415 C407 1.252 . S
In416 O417 2.294 . S
In416 O418 2.326 . S
In416 O422 2.266 . S
In416 O423 2.326 . S
In416 O424 2.266 . S
In416 O425 2.326 . S
In416 O427 2.294 . S
In416 O428 2.326 . S
O417 In416 2.294 . S
O417 C426 1.240 . S
O418 In416 2.326 . S
O418 C426 1.252 . S
C419 O422 1.252 . S
C419 O423 1.260 . S
C420 O427 1.240 . S
C420 O428 1.252 . S
C421 O424 1.252 . S
C421 O425 1.260 . S
O422 In416 2.266 . S
O422 C419 1.252 . S
O423 In416 2.326 . S
O423 C419 1.260 . S
O424 In416 2.266 . S
O424 C421 1.252 . S
O425 In416 2.326 . S
O425 C421 1.260 . S
C426 O417 1.240 . S
C426 O418 1.252 . S
O427 In416 2.294 . S
O427 C420 1.240 . S
O428 In416 2.326 . S
O428 C420 1.252 . S
In429 O430 2.294 . S
In429 O431 2.326 . S
In429 O435 2.266 . S
In429 O436 2.326 . S
In429 O437 2.266 . S
In429 O438 2.326 . S
In429 O440 2.294 . S
In429 O441 2.326 . S
O430 In429 2.294 . S
O430 C439 1.240 . S
O431 In429 2.326 . S
O431 C439 1.252 . S
C432 O435 1.252 . S
C432 O436 1.260 . S
C433 O440 1.240 . S
C433 O441 1.252 . S
C434 O437 1.252 . S
C434 O438 1.260 . S
O435 In429 2.266 . S
O435 C432 1.252 . S
O436 In429 2.326 . S
O436 C432 1.260 . S
O437 In429 2.266 . S
O437 C434 1.252 . S
O438 In429 2.326 . S
O438 C434 1.260 . S
C439 O430 1.240 . S
C439 O431 1.252 . S
O440 In429 2.294 . S
O440 C433 1.240 . S
O441 In429 2.326 . S
O441 C433 1.252 . S
In442 O443 2.294 . S
In442 O444 2.326 . S
In442 O448 2.266 . S
In442 O449 2.326 . S
In442 O450 2.266 . S
In442 O451 2.326 . S
In442 O453 2.294 . S
In442 O454 2.326 . S
O443 In442 2.294 . S
O443 C452 1.240 . S
O444 In442 2.326 . S
O444 C452 1.252 . S
C445 O448 1.252 . S
C445 O449 1.260 . S
C446 O453 1.240 . S
C446 O454 1.252 . S
C447 O450 1.252 . S
C447 O451 1.260 . S
O448 In442 2.266 . S
O448 C445 1.252 . S
O449 In442 2.326 . S
O449 C445 1.260 . S
O450 In442 2.266 . S
O450 C447 1.252 . S
O451 In442 2.326 . S
O451 C447 1.260 . S
C452 O443 1.240 . S
C452 O444 1.252 . S
O453 In442 2.294 . S
O453 C446 1.240 . S
O454 In442 2.326 . S
O454 C446 1.252 . S
In455 O456 2.294 . S
In455 O457 2.326 . S
In455 O461 2.266 . S
In455 O462 2.326 . S
In455 O463 2.266 . S
In455 O464 2.326 . S
In455 O466 2.294 . S
In455 O467 2.326 . S
O456 In455 2.294 . S
O456 C465 1.240 . S
O457 In455 2.326 . S
O457 C465 1.252 . S
C458 O461 1.252 . S
C458 O462 1.260 . S
C459 O466 1.240 . S
C459 O467 1.252 . S
C460 O463 1.252 . S
C460 O464 1.260 . S
O461 In455 2.266 . S
O461 C458 1.252 . S
O462 In455 2.326 . S
O462 C458 1.260 . S
O463 In455 2.266 . S
O463 C460 1.252 . S
O464 In455 2.326 . S
O464 C460 1.260 . S
C465 O456 1.240 . S
C465 O457 1.252 . S
O466 In455 2.294 . S
O466 C459 1.240 . S
O467 In455 2.326 . S
O467 C459 1.252 . S
In468 O469 2.294 . S
In468 O470 2.326 . S
In468 O474 2.266 . S
In468 O475 2.326 . S
In468 O476 2.266 . S
In468 O477 2.326 . S
In468 O479 2.294 . S
In468 O480 2.326 . S
O469 In468 2.294 . S
O469 C478 1.240 . S
O470 In468 2.326 . S
O470 C478 1.252 . S
C471 O474 1.252 . S
C471 O475 1.260 . S
C472 O479 1.240 . S
C472 O480 1.252 . S
C473 O476 1.252 . S
C473 O477 1.260 . S
O474 In468 2.266 . S
O474 C471 1.252 . S
O475 In468 2.326 . S
O475 C471 1.260 . S
O476 In468 2.266 . S
O476 C473 1.252 . S
O477 In468 2.326 . S
O477 C473 1.260 . S
C478 O469 1.240 . S
C478 O470 1.252 . S
O479 In468 2.294 . S
O479 C472 1.240 . S
O480 In468 2.326 . S
O480 C472 1.252 . S
In481 O482 2.294 . S
In481 O483 2.326 . S
In481 O487 2.266 . S
In481 O488 2.326 . S
In481 O489 2.266 . S
In481 O490 2.326 . S
In481 O492 2.294 . S
In481 O493 2.326 . S
O482 In481 2.294 . S
O482 C491 1.240 . S
O483 In481 2.326 . S
O483 C491 1.252 . S
C484 O487 1.252 . S
C484 O488 1.260 . S
C485 O492 1.240 . S
C485 O493 1.252 . S
C486 O489 1.252 . S
C486 O490 1.260 . S
O487 In481 2.266 . S
O487 C484 1.252 . S
O488 In481 2.326 . S
O488 C484 1.260 . S
O489 In481 2.266 . S
O489 C486 1.252 . S
O490 In481 2.326 . S
O490 C486 1.260 . S
C491 O482 1.240 . S
C491 O483 1.252 . S
O492 In481 2.294 . S
O492 C485 1.240 . S
O493 In481 2.326 . S
O493 C485 1.252 . S
In494 O495 2.294 . S
In494 O496 2.326 . S
In494 O500 2.266 . S
In494 O501 2.326 . S
In494 O502 2.266 . S
In494 O503 2.326 . S
In494 O505 2.294 . S
In494 O506 2.326 . S
O495 In494 2.294 . S
O495 C504 1.240 . S
O496 In494 2.326 . S
O496 C504 1.252 . S
C497 O500 1.252 . S
C497 O501 1.260 . S
C498 O505 1.240 . S
C498 O506 1.252 . S
C499 O502 1.252 . S
C499 O503 1.260 . S
O500 In494 2.266 . S
O500 C497 1.252 . S
O501 In494 2.326 . S
O501 C497 1.260 . S
O502 In494 2.266 . S
O502 C499 1.252 . S
O503 In494 2.326 . S
O503 C499 1.260 . S
C504 O495 1.240 . S
C504 O496 1.252 . S
O505 In494 2.294 . S
O505 C498 1.240 . S
O506 In494 2.326 . S
O506 C498 1.252 . S
In507 O508 2.294 . S
In507 O509 2.326 . S
In507 O513 2.266 . S
In507 O514 2.326 . S
In507 O515 2.266 . S
In507 O516 2.326 . S
In507 O518 2.294 . S
In507 O519 2.326 . S
O508 In507 2.294 . S
O508 C517 1.240 . S
O509 In507 2.326 . S
O509 C517 1.252 . S
C510 O513 1.252 . S
C510 O514 1.260 . S
C511 O518 1.240 . S
C511 O519 1.252 . S
C512 O515 1.252 . S
C512 O516 1.260 . S
O513 In507 2.266 . S
O513 C510 1.252 . S
O514 In507 2.326 . S
O514 C510 1.260 . S
O515 In507 2.266 . S
O515 C512 1.252 . S
O516 In507 2.326 . S
O516 C512 1.260 . S
C517 O508 1.240 . S
C517 O509 1.252 . S
O518 In507 2.294 . S
O518 C511 1.240 . S
O519 In507 2.326 . S
O519 C511 1.252 . S
In520 O521 2.294 . S
In520 O522 2.326 . S
In520 O526 2.266 . S
In520 O527 2.326 . S
In520 O528 2.266 . S
In520 O529 2.326 . S
In520 O531 2.294 . S
In520 O532 2.326 . S
O521 In520 2.294 . S
O521 C530 1.240 . S
O522 In520 2.326 . S
O522 C530 1.252 . S
C523 O526 1.252 . S
C523 O527 1.260 . S
C524 O531 1.240 . S
C524 O532 1.252 . S
C525 O528 1.252 . S
C525 O529 1.260 . S
O526 In520 2.266 . S
O526 C523 1.252 . S
O527 In520 2.326 . S
O527 C523 1.260 . S
O528 In520 2.266 . S
O528 C525 1.252 . S
O529 In520 2.326 . S
O529 C525 1.260 . S
C530 O521 1.240 . S
C530 O522 1.252 . S
O531 In520 2.294 . S
O531 C524 1.240 . S
O532 In520 2.326 . S
O532 C524 1.252 . S
In533 O534 2.294 . S
In533 O535 2.326 . S
In533 O539 2.266 . S
In533 O540 2.326 . S
In533 O541 2.266 . S
In533 O542 2.326 . S
In533 O544 2.294 . S
In533 O545 2.326 . S
O534 In533 2.294 . S
O534 C543 1.240 . S
O535 In533 2.326 . S
O535 C543 1.252 . S
C536 O539 1.252 . S
C536 O540 1.260 . S
C537 O544 1.240 . S
C537 O545 1.252 . S
C538 O541 1.252 . S
C538 O542 1.260 . S
O539 In533 2.266 . S
O539 C536 1.252 . S
O540 In533 2.326 . S
O540 C536 1.260 . S
O541 In533 2.266 . S
O541 C538 1.252 . S
O542 In533 2.326 . S
O542 C538 1.260 . S
C543 O534 1.240 . S
C543 O535 1.252 . S
O544 In533 2.294 . S
O544 C537 1.240 . S
O545 In533 2.326 . S
O545 C537 1.252 . S
In546 O547 2.294 . S
In546 O548 2.326 . S
In546 O552 2.266 . S
In546 O553 2.326 . S
In546 O554 2.266 . S
In546 O555 2.326 . S
In546 O557 2.294 . S
In546 O558 2.326 . S
O547 In546 2.294 . S
O547 C556 1.240 . S
O548 In546 2.326 . S
O548 C556 1.252 . S
C549 O552 1.252 . S
C549 O553 1.260 . S
C550 O557 1.240 . S
C550 O558 1.252 . S
C551 O554 1.252 . S
C551 O555 1.260 . S
O552 In546 2.266 . S
O552 C549 1.252 . S
O553 In546 2.326 . S
O553 C549 1.260 . S
O554 In546 2.266 . S
O554 C551 1.252 . S
O555 In546 2.326 . S
O555 C551 1.260 . S
C556 O547 1.240 . S
C556 O548 1.252 . S
O557 In546 2.294 . S
O557 C550 1.240 . S
O558 In546 2.326 . S
O558 C550 1.252 . S
In559 O560 2.294 . S
In559 O561 2.326 . S
In559 O565 2.266 . S
In559 O566 2.326 . S
In559 O567 2.266 . S
In559 O568 2.326 . S
In559 O570 2.294 . S
In559 O571 2.326 . S
O560 In559 2.294 . S
O560 C569 1.240 . S
O561 In559 2.326 . S
O561 C569 1.252 . S
C562 O565 1.252 . S
C562 O566 1.260 . S
C563 O570 1.240 . S
C563 O571 1.252 . S
C564 O567 1.252 . S
C564 O568 1.260 . S
O565 In559 2.266 . S
O565 C562 1.252 . S
O566 In559 2.326 . S
O566 C562 1.260 . S
O567 In559 2.266 . S
O567 C564 1.252 . S
O568 In559 2.326 . S
O568 C564 1.260 . S
C569 O560 1.240 . S
C569 O561 1.252 . S
O570 In559 2.294 . S
O570 C563 1.240 . S
O571 In559 2.326 . S
O571 C563 1.252 . S
In572 O573 2.294 . S
In572 O574 2.326 . S
In572 O578 2.266 . S
In572 O579 2.326 . S
In572 O580 2.266 . S
In572 O581 2.326 . S
In572 O583 2.294 . S
In572 O584 2.326 . S
O573 In572 2.294 . S
O573 C582 1.240 . S
O574 In572 2.326 . S
O574 C582 1.252 . S
C575 O578 1.252 . S
C575 O579 1.260 . S
C576 O583 1.240 . S
C576 O584 1.252 . S
C577 O580 1.252 . S
C577 O581 1.260 . S
O578 In572 2.266 . S
O578 C575 1.252 . S
O579 In572 2.326 . S
O579 C575 1.260 . S
O580 In572 2.266 . S
O580 C577 1.252 . S
O581 In572 2.326 . S
O581 C577 1.260 . S
C582 O573 1.240 . S
C582 O574 1.252 . S
O583 In572 2.294 . S
O583 C576 1.240 . S
O584 In572 2.326 . S
O584 C576 1.252 . S
In585 O586 2.294 . S
In585 O587 2.326 . S
In585 O591 2.266 . S
In585 O592 2.326 . S
In585 O593 2.266 . S
In585 O594 2.326 . S
In585 O596 2.294 . S
In585 O597 2.326 . S
O586 In585 2.294 . S
O586 C595 1.240 . S
O587 In585 2.326 . S
O587 C595 1.252 . S
C588 O591 1.252 . S
C588 O592 1.260 . S
C589 O596 1.240 . S
C589 O597 1.252 . S
C590 O593 1.252 . S
C590 O594 1.260 . S
O591 In585 2.266 . S
O591 C588 1.252 . S
O592 In585 2.326 . S
O592 C588 1.260 . S
O593 In585 2.266 . S
O593 C590 1.252 . S
O594 In585 2.326 . S
O594 C590 1.260 . S
C595 O586 1.240 . S
C595 O587 1.252 . S
O596 In585 2.294 . S
O596 C589 1.240 . S
O597 In585 2.326 . S
O597 C589 1.252 . S
In598 O599 2.294 . S
In598 O600 2.326 . S
In598 O604 2.266 . S
In598 O605 2.326 . S
In598 O606 2.266 . S
In598 O607 2.326 . S
In598 O609 2.294 . S
In598 O610 2.326 . S
O599 In598 2.294 . S
O599 C608 1.240 . S
O600 In598 2.326 . S
O600 C608 1.252 . S
C601 O604 1.252 . S
C601 O605 1.260 . S
C602 O609 1.240 . S
C602 O610 1.252 . S
C603 O606 1.252 . S
C603 O607 1.260 . S
O604 In598 2.266 . S
O604 C601 1.252 . S
O605 In598 2.326 . S
O605 C601 1.260 . S
O606 In598 2.266 . S
O606 C603 1.252 . S
O607 In598 2.326 . S
O607 C603 1.260 . S
C608 O599 1.240 . S
C608 O600 1.252 . S
O609 In598 2.294 . S
O609 C602 1.240 . S
O610 In598 2.326 . S
O610 C602 1.252 . S
In611 O612 2.294 . S
In611 O613 2.326 . S
In611 O617 2.266 . S
In611 O618 2.326 . S
In611 O619 2.266 . S
In611 O620 2.326 . S
In611 O622 2.294 . S
In611 O623 2.326 . S
O612 In611 2.294 . S
O612 C621 1.240 . S
O613 In611 2.326 . S
O613 C621 1.252 . S
C614 O617 1.252 . S
C614 O618 1.260 . S
C615 O622 1.240 . S
C615 O623 1.252 . S
C616 O619 1.252 . S
C616 O620 1.260 . S
O617 In611 2.266 . S
O617 C614 1.252 . S
O618 In611 2.326 . S
O618 C614 1.260 . S
O619 In611 2.266 . S
O619 C616 1.252 . S
O620 In611 2.326 . S
O620 C616 1.260 . S
C621 O612 1.240 . S
C621 O613 1.252 . S
O622 In611 2.294 . S
O622 C615 1.240 . S
O623 In611 2.326 . S
O623 C615 1.252 . S
In624 O625 2.294 . S
In624 O626 2.326 . S
In624 O630 2.266 . S
In624 O631 2.326 . S
In624 O632 2.266 . S
In624 O633 2.326 . S
In624 O635 2.294 . S
In624 O636 2.326 . S
O625 In624 2.294 . S
O625 C634 1.240 . S
O626 In624 2.326 . S
O626 C634 1.252 . S
C627 O630 1.252 . S
C627 O631 1.260 . S
C628 O635 1.240 . S
C628 O636 1.252 . S
C629 O632 1.252 . S
C629 O633 1.260 . S
O630 In624 2.266 . S
O630 C627 1.252 . S
O631 In624 2.326 . S
O631 C627 1.260 . S
O632 In624 2.266 . S
O632 C629 1.252 . S
O633 In624 2.326 . S
O633 C629 1.260 . S
C634 O625 1.240 . S
C634 O626 1.252 . S
O635 In624 2.294 . S
O635 C628 1.240 . S
O636 In624 2.326 . S
O636 C628 1.252 . S
In637 O638 2.294 . S
In637 O639 2.326 . S
In637 O643 2.266 . S
In637 O644 2.326 . S
In637 O645 2.266 . S
In637 O646 2.326 . S
In637 O648 2.294 . S
In637 O649 2.326 . S
O638 In637 2.294 . S
O638 C647 1.240 . S
O639 In637 2.326 . S
O639 C647 1.252 . S
C640 O643 1.252 . S
C640 O644 1.260 . S
C641 O648 1.240 . S
C641 O649 1.252 . S
C642 O645 1.252 . S
C642 O646 1.260 . S
O643 In637 2.266 . S
O643 C640 1.252 . S
O644 In637 2.326 . S
O644 C640 1.260 . S
O645 In637 2.266 . S
O645 C642 1.252 . S
O646 In637 2.326 . S
O646 C642 1.260 . S
C647 O638 1.240 . S
C647 O639 1.252 . S
O648 In637 2.294 . S
O648 C641 1.240 . S
O649 In637 2.326 . S
O649 C641 1.252 . S
In650 O651 2.294 . S
In650 O652 2.326 . S
In650 O656 2.266 . S
In650 O657 2.326 . S
In650 O658 2.266 . S
In650 O659 2.326 . S
In650 O661 2.294 . S
In650 O662 2.326 . S
O651 In650 2.294 . S
O651 C660 1.240 . S
O652 In650 2.326 . S
O652 C660 1.252 . S
C653 O656 1.252 . S
C653 O657 1.260 . S
C654 O661 1.240 . S
C654 O662 1.252 . S
C655 O658 1.252 . S
C655 O659 1.260 . S
O656 In650 2.266 . S
O656 C653 1.252 . S
O657 In650 2.326 . S
O657 C653 1.260 . S
O658 In650 2.266 . S
O658 C655 1.252 . S
O659 In650 2.326 . S
O659 C655 1.260 . S
C660 O651 1.240 . S
C660 O652 1.252 . S
O661 In650 2.294 . S
O661 C654 1.240 . S
O662 In650 2.326 . S
O662 C654 1.252 . S
In663 O664 2.294 . S
In663 O665 2.326 . S
In663 O669 2.266 . S
In663 O670 2.326 . S
In663 O671 2.266 . S
In663 O672 2.326 . S
In663 O674 2.294 . S
In663 O675 2.326 . S
O664 In663 2.294 . S
O664 C673 1.240 . S
O665 In663 2.326 . S
O665 C673 1.252 . S
C666 O669 1.252 . S
C666 O670 1.260 . S
C667 O674 1.240 . S
C667 O675 1.252 . S
C668 O671 1.252 . S
C668 O672 1.260 . S
O669 In663 2.266 . S
O669 C666 1.252 . S
O670 In663 2.326 . S
O670 C666 1.260 . S
O671 In663 2.266 . S
O671 C668 1.252 . S
O672 In663 2.326 . S
O672 C668 1.260 . S
C673 O664 1.240 . S
C673 O665 1.252 . S
O674 In663 2.294 . S
O674 C667 1.240 . S
O675 In663 2.326 . S
O675 C667 1.252 . S
In676 O677 2.294 . S
In676 O678 2.326 . S
In676 O682 2.266 . S
In676 O683 2.326 . S
In676 O684 2.266 . S
In676 O685 2.326 . S
In676 O687 2.294 . S
In676 O688 2.326 . S
O677 In676 2.294 . S
O677 C686 1.240 . S
O678 In676 2.326 . S
O678 C686 1.252 . S
C679 O682 1.252 . S
C679 O683 1.260 . S
C680 O687 1.240 . S
C680 O688 1.252 . S
C681 O684 1.252 . S
C681 O685 1.260 . S
O682 In676 2.266 . S
O682 C679 1.252 . S
O683 In676 2.326 . S
O683 C679 1.260 . S
O684 In676 2.266 . S
O684 C681 1.252 . S
O685 In676 2.326 . S
O685 C681 1.260 . S
C686 O677 1.240 . S
C686 O678 1.252 . S
O687 In676 2.294 . S
O687 C680 1.240 . S
O688 In676 2.326 . S
O688 C680 1.252 . S
In689 O690 2.294 . S
In689 O691 2.326 . S
In689 O695 2.266 . S
In689 O696 2.326 . S
In689 O697 2.266 . S
In689 O698 2.326 . S
In689 O700 2.294 . S
In689 O701 2.326 . S
O690 In689 2.294 . S
O690 C699 1.240 . S
O691 In689 2.326 . S
O691 C699 1.252 . S
C692 O695 1.252 . S
C692 O696 1.260 . S
C693 O700 1.240 . S
C693 O701 1.252 . S
C694 O697 1.252 . S
C694 O698 1.260 . S
O695 In689 2.266 . S
O695 C692 1.252 . S
O696 In689 2.326 . S
O696 C692 1.260 . S
O697 In689 2.266 . S
O697 C694 1.252 . S
O698 In689 2.326 . S
O698 C694 1.260 . S
C699 O690 1.240 . S
C699 O691 1.252 . S
O700 In689 2.294 . S
O700 C693 1.240 . S
O701 In689 2.326 . S
O701 C693 1.252 . S
In702 O703 2.294 . S
In702 O704 2.326 . S
In702 O708 2.266 . S
In702 O709 2.326 . S
In702 O710 2.266 . S
In702 O711 2.326 . S
In702 O713 2.294 . S
In702 O714 2.326 . S
O703 In702 2.294 . S
O703 C712 1.240 . S
O704 In702 2.326 . S
O704 C712 1.252 . S
C705 O708 1.252 . S
C705 O709 1.260 . S
C706 O713 1.240 . S
C706 O714 1.252 . S
C707 O710 1.252 . S
C707 O711 1.260 . S
O708 In702 2.266 . S
O708 C705 1.252 . S
O709 In702 2.326 . S
O709 C705 1.260 . S
O710 In702 2.266 . S
O710 C707 1.252 . S
O711 In702 2.326 . S
O711 C707 1.260 . S
C712 O703 1.240 . S
C712 O704 1.252 . S
O713 In702 2.294 . S
O713 C706 1.240 . S
O714 In702 2.326 . S
O714 C706 1.252 . S
In715 O716 2.294 . S
In715 O717 2.326 . S
In715 O721 2.266 . S
In715 O722 2.326 . S
In715 O723 2.266 . S
In715 O724 2.326 . S
In715 O726 2.294 . S
In715 O727 2.326 . S
O716 In715 2.294 . S
O716 C725 1.240 . S
O717 In715 2.326 . S
O717 C725 1.252 . S
C718 O721 1.252 . S
C718 O722 1.260 . S
C719 O726 1.240 . S
C719 O727 1.252 . S
C720 O723 1.252 . S
C720 O724 1.260 . S
O721 In715 2.266 . S
O721 C718 1.252 . S
O722 In715 2.326 . S
O722 C718 1.260 . S
O723 In715 2.266 . S
O723 C720 1.252 . S
O724 In715 2.326 . S
O724 C720 1.260 . S
C725 O716 1.240 . S
C725 O717 1.252 . S
O726 In715 2.294 . S
O726 C719 1.240 . S
O727 In715 2.326 . S
O727 C719 1.252 . S
In728 O729 2.294 . S
In728 O730 2.326 . S
In728 O734 2.266 . S
In728 O735 2.326 . S
In728 O736 2.266 . S
In728 O737 2.326 . S
In728 O739 2.294 . S
In728 O740 2.326 . S
O729 In728 2.294 . S
O729 C738 1.240 . S
O730 In728 2.326 . S
O730 C738 1.252 . S
C731 O734 1.252 . S
C731 O735 1.260 . S
C732 O739 1.240 . S
C732 O740 1.252 . S
C733 O736 1.252 . S
C733 O737 1.260 . S
O734 In728 2.266 . S
O734 C731 1.252 . S
O735 In728 2.326 . S
O735 C731 1.260 . S
O736 In728 2.266 . S
O736 C733 1.252 . S
O737 In728 2.326 . S
O737 C733 1.260 . S
C738 O729 1.240 . S
C738 O730 1.252 . S
O739 In728 2.294 . S
O739 C732 1.240 . S
O740 In728 2.326 . S
O740 C732 1.252 . S
In741 O742 2.294 . S
In741 O743 2.326 . S
In741 O747 2.266 . S
In741 O748 2.326 . S
In741 O749 2.266 . S
In741 O750 2.326 . S
In741 O752 2.294 . S
In741 O753 2.326 . S
O742 In741 2.294 . S
O742 C751 1.240 . S
O743 In741 2.326 . S
O743 C751 1.252 . S
C744 O747 1.252 . S
C744 O748 1.260 . S
C745 O752 1.240 . S
C745 O753 1.252 . S
C746 O749 1.252 . S
C746 O750 1.260 . S
O747 In741 2.266 . S
O747 C744 1.252 . S
O748 In741 2.326 . S
O748 C744 1.260 . S
O749 In741 2.266 . S
O749 C746 1.252 . S
O750 In741 2.326 . S
O750 C746 1.260 . S
C751 O742 1.240 . S
C751 O743 1.252 . S
O752 In741 2.294 . S
O752 C745 1.240 . S
O753 In741 2.326 . S
O753 C745 1.252 . S
In754 O755 2.294 . S
In754 O756 2.326 . S
In754 O760 2.266 . S
In754 O761 2.326 . S
In754 O762 2.266 . S
In754 O763 2.326 . S
In754 O765 2.294 . S
In754 O766 2.326 . S
O755 In754 2.294 . S
O755 C764 1.240 . S
O756 In754 2.326 . S
O756 C764 1.252 . S
C757 O760 1.252 . S
C757 O761 1.260 . S
C758 O765 1.240 . S
C758 O766 1.252 . S
C759 O762 1.252 . S
C759 O763 1.260 . S
O760 In754 2.266 . S
O760 C757 1.252 . S
O761 In754 2.326 . S
O761 C757 1.260 . S
O762 In754 2.266 . S
O762 C759 1.252 . S
O763 In754 2.326 . S
O763 C759 1.260 . S
C764 O755 1.240 . S
C764 O756 1.252 . S
O765 In754 2.294 . S
O765 C758 1.240 . S
O766 In754 2.326 . S
O766 C758 1.252 . S
In767 O768 2.294 . S
In767 O769 2.326 . S
In767 O773 2.266 . S
In767 O774 2.326 . S
In767 O775 2.266 . S
In767 O776 2.326 . S
In767 O778 2.294 . S
In767 O779 2.326 . S
O768 In767 2.294 . S
O768 C777 1.240 . S
O769 In767 2.326 . S
O769 C777 1.252 . S
C770 O773 1.252 . S
C770 O774 1.260 . S
C771 O778 1.240 . S
C771 O779 1.252 . S
C772 O775 1.252 . S
C772 O776 1.260 . S
O773 In767 2.266 . S
O773 C770 1.252 . S
O774 In767 2.326 . S
O774 C770 1.260 . S
O775 In767 2.266 . S
O775 C772 1.252 . S
O776 In767 2.326 . S
O776 C772 1.260 . S
C777 O768 1.240 . S
C777 O769 1.252 . S
O778 In767 2.294 . S
O778 C771 1.240 . S
O779 In767 2.326 . S
O779 C771 1.252 . S
In780 O781 2.294 . S
In780 O782 2.326 . S
In780 O786 2.266 . S
In780 O787 2.326 . S
In780 O788 2.266 . S
In780 O789 2.326 . S
In780 O791 2.294 . S
In780 O792 2.326 . S
O781 In780 2.294 . S
O781 C790 1.240 . S
O782 In780 2.326 . S
O782 C790 1.252 . S
C783 O786 1.252 . S
C783 O787 1.260 . S
C784 O791 1.240 . S
C784 O792 1.252 . S
C785 O788 1.252 . S
C785 O789 1.260 . S
O786 In780 2.266 . S
O786 C783 1.252 . S
O787 In780 2.326 . S
O787 C783 1.260 . S
O788 In780 2.266 . S
O788 C785 1.252 . S
O789 In780 2.326 . S
O789 C785 1.260 . S
C790 O781 1.240 . S
C790 O782 1.252 . S
O791 In780 2.294 . S
O791 C784 1.240 . S
O792 In780 2.326 . S
O792 C784 1.252 . S
In793 O794 2.294 . S
In793 O795 2.326 . S
In793 O799 2.266 . S
In793 O800 2.326 . S
In793 O801 2.266 . S
In793 O802 2.326 . S
In793 O804 2.294 . S
In793 O805 2.326 . S
O794 In793 2.294 . S
O794 C803 1.240 . S
O795 In793 2.326 . S
O795 C803 1.252 . S
C796 O799 1.252 . S
C796 O800 1.260 . S
C797 O804 1.240 . S
C797 O805 1.252 . S
C798 O801 1.252 . S
C798 O802 1.260 . S
O799 In793 2.266 . S
O799 C796 1.252 . S
O800 In793 2.326 . S
O800 C796 1.260 . S
O801 In793 2.266 . S
O801 C798 1.252 . S
O802 In793 2.326 . S
O802 C798 1.260 . S
C803 O794 1.240 . S
C803 O795 1.252 . S
O804 In793 2.294 . S
O804 C797 1.240 . S
O805 In793 2.326 . S
O805 C797 1.252 . S
In806 O807 2.294 . S
In806 O808 2.326 . S
In806 O812 2.266 . S
In806 O813 2.326 . S
In806 O814 2.266 . S
In806 O815 2.326 . S
In806 O817 2.294 . S
In806 O818 2.326 . S
O807 In806 2.294 . S
O807 C816 1.240 . S
O808 In806 2.326 . S
O808 C816 1.252 . S
C809 O812 1.252 . S
C809 O813 1.260 . S
C810 O817 1.240 . S
C810 O818 1.252 . S
C811 O814 1.252 . S
C811 O815 1.260 . S
O812 In806 2.266 . S
O812 C809 1.252 . S
O813 In806 2.326 . S
O813 C809 1.260 . S
O814 In806 2.266 . S
O814 C811 1.252 . S
O815 In806 2.326 . S
O815 C811 1.260 . S
C816 O807 1.240 . S
C816 O808 1.252 . S
O817 In806 2.294 . S
O817 C810 1.240 . S
O818 In806 2.326 . S
O818 C810 1.252 . S
In819 O820 2.294 . S
In819 O821 2.326 . S
In819 O825 2.266 . S
In819 O826 2.326 . S
In819 O827 2.266 . S
In819 O828 2.326 . S
In819 O830 2.294 . S
In819 O831 2.326 . S
O820 In819 2.294 . S
O820 C829 1.240 . S
O821 In819 2.326 . S
O821 C829 1.252 . S
C822 O825 1.252 . S
C822 O826 1.260 . S
C823 O830 1.240 . S
C823 O831 1.252 . S
C824 O827 1.252 . S
C824 O828 1.260 . S
O825 In819 2.266 . S
O825 C822 1.252 . S
O826 In819 2.326 . S
O826 C822 1.260 . S
O827 In819 2.266 . S
O827 C824 1.252 . S
O828 In819 2.326 . S
O828 C824 1.260 . S
C829 O820 1.240 . S
C829 O821 1.252 . S
O830 In819 2.294 . S
O830 C823 1.240 . S
O831 In819 2.326 . S
O831 C823 1.252 . S
In832 O833 2.294 . S
In832 O834 2.326 . S
In832 O838 2.266 . S
In832 O839 2.326 . S
In832 O840 2.266 . S
In832 O841 2.326 . S
In832 O843 2.294 . S
In832 O844 2.326 . S
O833 In832 2.294 . S
O833 C842 1.240 . S
O834 In832 2.326 . S
O834 C842 1.252 . S
C835 O838 1.252 . S
C835 O839 1.260 . S
C836 O843 1.240 . S
C836 O844 1.252 . S
C837 O840 1.252 . S
C837 O841 1.260 . S
O838 In832 2.266 . S
O838 C835 1.252 . S
O839 In832 2.326 . S
O839 C835 1.260 . S
O840 In832 2.266 . S
O840 C837 1.252 . S
O841 In832 2.326 . S
O841 C837 1.260 . S
C842 O833 1.240 . S
C842 O834 1.252 . S
O843 In832 2.294 . S
O843 C836 1.240 . S
O844 In832 2.326 . S
O844 C836 1.252 . S
In845 O846 2.294 . S
In845 O847 2.326 . S
In845 O851 2.266 . S
In845 O852 2.326 . S
In845 O853 2.266 . S
In845 O854 2.326 . S
In845 O856 2.294 . S
In845 O857 2.326 . S
O846 In845 2.294 . S
O846 C855 1.240 . S
O847 In845 2.326 . S
O847 C855 1.252 . S
C848 O851 1.252 . S
C848 O852 1.260 . S
C849 O856 1.240 . S
C849 O857 1.252 . S
C850 O853 1.252 . S
C850 O854 1.260 . S
O851 In845 2.266 . S
O851 C848 1.252 . S
O852 In845 2.326 . S
O852 C848 1.260 . S
O853 In845 2.266 . S
O853 C850 1.252 . S
O854 In845 2.326 . S
O854 C850 1.260 . S
C855 O846 1.240 . S
C855 O847 1.252 . S
O856 In845 2.294 . S
O856 C849 1.240 . S
O857 In845 2.326 . S
O857 C849 1.252 . S
In858 O859 2.294 . S
In858 O860 2.326 . S
In858 O864 2.266 . S
In858 O865 2.326 . S
In858 O866 2.266 . S
In858 O867 2.326 . S
In858 O869 2.294 . S
In858 O870 2.326 . S
O859 In858 2.294 . S
O859 C868 1.240 . S
O860 In858 2.326 . S
O860 C868 1.252 . S
C861 O864 1.252 . S
C861 O865 1.260 . S
C862 O869 1.240 . S
C862 O870 1.252 . S
C863 O866 1.252 . S
C863 O867 1.260 . S
O864 In858 2.266 . S
O864 C861 1.252 . S
O865 In858 2.326 . S
O865 C861 1.260 . S
O866 In858 2.266 . S
O866 C863 1.252 . S
O867 In858 2.326 . S
O867 C863 1.260 . S
C868 O859 1.240 . S
C868 O860 1.252 . S
O869 In858 2.294 . S
O869 C862 1.240 . S
O870 In858 2.326 . S
O870 C862 1.252 . S
In871 O872 2.294 . S
In871 O873 2.326 . S
In871 O877 2.266 . S
In871 O878 2.326 . S
In871 O879 2.266 . S
In871 O880 2.326 . S
In871 O882 2.294 . S
In871 O883 2.326 . S
O872 In871 2.294 . S
O872 C881 1.240 . S
O873 In871 2.326 . S
O873 C881 1.252 . S
C874 O877 1.252 . S
C874 O878 1.260 . S
C875 O882 1.240 . S
C875 O883 1.252 . S
C876 O879 1.252 . S
C876 O880 1.260 . S
O877 In871 2.266 . S
O877 C874 1.252 . S
O878 In871 2.326 . S
O878 C874 1.260 . S
O879 In871 2.266 . S
O879 C876 1.252 . S
O880 In871 2.326 . S
O880 C876 1.260 . S
C881 O872 1.240 . S
C881 O873 1.252 . S
O882 In871 2.294 . S
O882 C875 1.240 . S
O883 In871 2.326 . S
O883 C875 1.252 . S
In884 O885 2.294 . S
In884 O886 2.326 . S
In884 O890 2.266 . S
In884 O891 2.326 . S
In884 O892 2.266 . S
In884 O893 2.326 . S
In884 O895 2.294 . S
In884 O896 2.326 . S
O885 In884 2.294 . S
O885 C894 1.240 . S
O886 In884 2.326 . S
O886 C894 1.252 . S
C887 O890 1.252 . S
C887 O891 1.260 . S
C888 O895 1.240 . S
C888 O896 1.252 . S
C889 O892 1.252 . S
C889 O893 1.260 . S
O890 In884 2.266 . S
O890 C887 1.252 . S
O891 In884 2.326 . S
O891 C887 1.260 . S
O892 In884 2.266 . S
O892 C889 1.252 . S
O893 In884 2.326 . S
O893 C889 1.260 . S
C894 O885 1.240 . S
C894 O886 1.252 . S
O895 In884 2.294 . S
O895 C888 1.240 . S
O896 In884 2.326 . S
O896 C888 1.252 . S
In897 O898 2.294 . S
In897 O899 2.326 . S
In897 O903 2.266 . S
In897 O904 2.326 . S
In897 O905 2.266 . S
In897 O906 2.326 . S
In897 O908 2.294 . S
In897 O909 2.326 . S
O898 In897 2.294 . S
O898 C907 1.240 . S
O899 In897 2.326 . S
O899 C907 1.252 . S
C900 O903 1.252 . S
C900 O904 1.260 . S
C901 O908 1.240 . S
C901 O909 1.252 . S
C902 O905 1.252 . S
C902 O906 1.260 . S
O903 In897 2.266 . S
O903 C900 1.252 . S
O904 In897 2.326 . S
O904 C900 1.260 . S
O905 In897 2.266 . S
O905 C902 1.252 . S
O906 In897 2.326 . S
O906 C902 1.260 . S
C907 O898 1.240 . S
C907 O899 1.252 . S
O908 In897 2.294 . S
O908 C901 1.240 . S
O909 In897 2.326 . S
O909 C901 1.252 . S
In910 O911 2.294 . S
In910 O912 2.326 . S
In910 O916 2.266 . S
In910 O917 2.326 . S
In910 O918 2.266 . S
In910 O919 2.326 . S
In910 O921 2.294 . S
In910 O922 2.326 . S
O911 In910 2.294 . S
O911 C920 1.240 . S
O912 In910 2.326 . S
O912 C920 1.252 . S
C913 O916 1.252 . S
C913 O917 1.260 . S
C914 O921 1.240 . S
C914 O922 1.252 . S
C915 O918 1.252 . S
C915 O919 1.260 . S
O916 In910 2.266 . S
O916 C913 1.252 . S
O917 In910 2.326 . S
O917 C913 1.260 . S
O918 In910 2.266 . S
O918 C915 1.252 . S
O919 In910 2.326 . S
O919 C915 1.260 . S
C920 O911 1.240 . S
C920 O912 1.252 . S
O921 In910 2.294 . S
O921 C914 1.240 . S
O922 In910 2.326 . S
O922 C914 1.252 . S
In923 O924 2.294 . S
In923 O925 2.326 . S
In923 O929 2.266 . S
In923 O930 2.326 . S
In923 O931 2.266 . S
In923 O932 2.326 . S
In923 O934 2.294 . S
In923 O935 2.326 . S
O924 In923 2.294 . S
O924 C933 1.240 . S
O925 In923 2.326 . S
O925 C933 1.252 . S
C926 O929 1.252 . S
C926 O930 1.260 . S
C927 O934 1.240 . S
C927 O935 1.252 . S
C928 O931 1.252 . S
C928 O932 1.260 . S
O929 In923 2.266 . S
O929 C926 1.252 . S
O930 In923 2.326 . S
O930 C926 1.260 . S
O931 In923 2.266 . S
O931 C928 1.252 . S
O932 In923 2.326 . S
O932 C928 1.260 . S
C933 O924 1.240 . S
C933 O925 1.252 . S
O934 In923 2.294 . S
O934 C927 1.240 . S
O935 In923 2.326 . S
O935 C927 1.252 . S
In936 O937 2.294 . S
In936 O938 2.326 . S
In936 O942 2.266 . S
In936 O943 2.326 . S
In936 O944 2.266 . S
In936 O945 2.326 . S
In936 O947 2.294 . S
In936 O948 2.326 . S
O937 In936 2.294 . S
O937 C946 1.240 . S
O938 In936 2.326 . S
O938 C946 1.252 . S
C939 O942 1.252 . S
C939 O943 1.260 . S
C940 O947 1.240 . S
C940 O948 1.252 . S
C941 O944 1.252 . S
C941 O945 1.260 . S
O942 In936 2.266 . S
O942 C939 1.252 . S
O943 In936 2.326 . S
O943 C939 1.260 . S
O944 In936 2.266 . S
O944 C941 1.252 . S
O945 In936 2.326 . S
O945 C941 1.260 . S
C946 O937 1.240 . S
C946 O938 1.252 . S
O947 In936 2.294 . S
O947 C940 1.240 . S
O948 In936 2.326 . S
O948 C940 1.252 . S
In949 O950 2.294 . S
In949 O951 2.326 . S
In949 O955 2.266 . S
In949 O956 2.326 . S
In949 O957 2.266 . S
In949 O958 2.326 . S
In949 O960 2.294 . S
In949 O961 2.326 . S
O950 In949 2.294 . S
O950 C959 1.240 . S
O951 In949 2.326 . S
O951 C959 1.252 . S
C952 O955 1.252 . S
C952 O956 1.260 . S
C953 O960 1.240 . S
C953 O961 1.252 . S
C954 O957 1.252 . S
C954 O958 1.260 . S
O955 In949 2.266 . S
O955 C952 1.252 . S
O956 In949 2.326 . S
O956 C952 1.260 . S
O957 In949 2.266 . S
O957 C954 1.252 . S
O958 In949 2.326 . S
O958 C954 1.260 . S
C959 O950 1.240 . S
C959 O951 1.252 . S
O960 In949 2.294 . S
O960 C953 1.240 . S
O961 In949 2.326 . S
O961 C953 1.252 . S
In962 O963 2.294 . S
In962 O964 2.326 . S
In962 O968 2.266 . S
In962 O969 2.326 . S
In962 O970 2.266 . S
In962 O971 2.326 . S
In962 O973 2.294 . S
In962 O974 2.326 . S
O963 In962 2.294 . S
O963 C972 1.240 . S
O964 In962 2.326 . S
O964 C972 1.252 . S
C965 O968 1.252 . S
C965 O969 1.260 . S
C966 O973 1.240 . S
C966 O974 1.252 . S
C967 O970 1.252 . S
C967 O971 1.260 . S
O968 In962 2.266 . S
O968 C965 1.252 . S
O969 In962 2.326 . S
O969 C965 1.260 . S
O970 In962 2.266 . S
O970 C967 1.252 . S
O971 In962 2.326 . S
O971 C967 1.260 . S
C972 O963 1.240 . S
C972 O964 1.252 . S
O973 In962 2.294 . S
O973 C966 1.240 . S
O974 In962 2.326 . S
O974 C966 1.252 . S
In975 O976 2.294 . S
In975 O977 2.326 . S
In975 O981 2.266 . S
In975 O982 2.326 . S
In975 O983 2.266 . S
In975 O984 2.326 . S
In975 O986 2.294 . S
In975 O987 2.326 . S
O976 In975 2.294 . S
O976 C985 1.240 . S
O977 In975 2.326 . S
O977 C985 1.252 . S
C978 O981 1.252 . S
C978 O982 1.260 . S
C979 O986 1.240 . S
C979 O987 1.252 . S
C980 O983 1.252 . S
C980 O984 1.260 . S
O981 In975 2.266 . S
O981 C978 1.252 . S
O982 In975 2.326 . S
O982 C978 1.260 . S
O983 In975 2.266 . S
O983 C980 1.252 . S
O984 In975 2.326 . S
O984 C980 1.260 . S
C985 O976 1.240 . S
C985 O977 1.252 . S
O986 In975 2.294 . S
O986 C979 1.240 . S
O987 In975 2.326 . S
O987 C979 1.252 . S
In988 O989 2.294 . S
In988 O990 2.326 . S
In988 O994 2.266 . S
In988 O995 2.326 . S
In988 O996 2.266 . S
In988 O997 2.326 . S
In988 O999 2.294 . S
In988 O1000 2.326 . S
O989 In988 2.294 . S
O989 C998 1.240 . S
O990 In988 2.326 . S
O990 C998 1.252 . S
C991 O994 1.252 . S
C991 O995 1.260 . S
C992 O999 1.240 . S
C992 O1000 1.252 . S
C993 O996 1.252 . S
C993 O997 1.260 . S
O994 In988 2.266 . S
O994 C991 1.252 . S
O995 In988 2.326 . S
O995 C991 1.260 . S
O996 In988 2.266 . S
O996 C993 1.252 . S
O997 In988 2.326 . S
O997 C993 1.260 . S
C998 O989 1.240 . S
C998 O990 1.252 . S
O999 In988 2.294 . S
O999 C992 1.240 . S
O1000 In988 2.326 . S
O1000 C992 1.252 . S
In1001 O1002 2.294 . S
In1001 O1003 2.326 . S
In1001 O1007 2.266 . S
In1001 O1008 2.326 . S
In1001 O1009 2.266 . S
In1001 O1010 2.326 . S
In1001 O1012 2.294 . S
In1001 O1013 2.326 . S
O1002 In1001 2.294 . S
O1002 C1011 1.240 . S
O1003 In1001 2.326 . S
O1003 C1011 1.252 . S
C1004 O1007 1.252 . S
C1004 O1008 1.260 . S
C1005 O1012 1.240 . S
C1005 O1013 1.252 . S
C1006 O1009 1.252 . S
C1006 O1010 1.260 . S
O1007 In1001 2.266 . S
O1007 C1004 1.252 . S
O1008 In1001 2.326 . S
O1008 C1004 1.260 . S
O1009 In1001 2.266 . S
O1009 C1006 1.252 . S
O1010 In1001 2.326 . S
O1010 C1006 1.260 . S
C1011 O1002 1.240 . S
C1011 O1003 1.252 . S
O1012 In1001 2.294 . S
O1012 C1005 1.240 . S
O1013 In1001 2.326 . S
O1013 C1005 1.252 . S
In1014 O1015 2.294 . S
In1014 O1016 2.326 . S
In1014 O1020 2.266 . S
In1014 O1021 2.326 . S
In1014 O1022 2.266 . S
In1014 O1023 2.326 . S
In1014 O1025 2.294 . S
In1014 O1026 2.326 . S
O1015 In1014 2.294 . S
O1015 C1024 1.240 . S
O1016 In1014 2.326 . S
O1016 C1024 1.252 . S
C1017 O1020 1.252 . S
C1017 O1021 1.260 . S
C1018 O1025 1.240 . S
C1018 O1026 1.252 . S
C1019 O1022 1.252 . S
C1019 O1023 1.260 . S
O1020 In1014 2.266 . S
O1020 C1017 1.252 . S
O1021 In1014 2.326 . S
O1021 C1017 1.260 . S
O1022 In1014 2.266 . S
O1022 C1019 1.252 . S
O1023 In1014 2.326 . S
O1023 C1019 1.260 . S
C1024 O1015 1.240 . S
C1024 O1016 1.252 . S
O1025 In1014 2.294 . S
O1025 C1018 1.240 . S
O1026 In1014 2.326 . S
O1026 C1018 1.252 . S
In1027 O1028 2.294 . S
In1027 O1029 2.326 . S
In1027 O1033 2.266 . S
In1027 O1034 2.326 . S
In1027 O1035 2.266 . S
In1027 O1036 2.326 . S
In1027 O1038 2.294 . S
In1027 O1039 2.326 . S
O1028 In1027 2.294 . S
O1028 C1037 1.240 . S
O1029 In1027 2.326 . S
O1029 C1037 1.252 . S
C1030 O1033 1.252 . S
C1030 O1034 1.260 . S
C1031 O1038 1.240 . S
C1031 O1039 1.252 . S
C1032 O1035 1.252 . S
C1032 O1036 1.260 . S
O1033 In1027 2.266 . S
O1033 C1030 1.252 . S
O1034 In1027 2.326 . S
O1034 C1030 1.260 . S
O1035 In1027 2.266 . S
O1035 C1032 1.252 . S
O1036 In1027 2.326 . S
O1036 C1032 1.260 . S
C1037 O1028 1.240 . S
C1037 O1029 1.252 . S
O1038 In1027 2.294 . S
O1038 C1031 1.240 . S
O1039 In1027 2.326 . S
O1039 C1031 1.252 . S
In1040 O1041 2.294 . S
In1040 O1042 2.326 . S
In1040 O1046 2.266 . S
In1040 O1047 2.326 . S
In1040 O1048 2.266 . S
In1040 O1049 2.326 . S
In1040 O1051 2.294 . S
In1040 O1052 2.326 . S
O1041 In1040 2.294 . S
O1041 C1050 1.240 . S
O1042 In1040 2.326 . S
O1042 C1050 1.252 . S
C1043 O1046 1.252 . S
C1043 O1047 1.260 . S
C1044 O1051 1.240 . S
C1044 O1052 1.252 . S
C1045 O1048 1.252 . S
C1045 O1049 1.260 . S
O1046 In1040 2.266 . S
O1046 C1043 1.252 . S
O1047 In1040 2.326 . S
O1047 C1043 1.260 . S
O1048 In1040 2.266 . S
O1048 C1045 1.252 . S
O1049 In1040 2.326 . S
O1049 C1045 1.260 . S
C1050 O1041 1.240 . S
C1050 O1042 1.252 . S
O1051 In1040 2.294 . S
O1051 C1044 1.240 . S
O1052 In1040 2.326 . S
O1052 C1044 1.252 . S
In1053 O1054 2.294 . S
In1053 O1055 2.326 . S
In1053 O1059 2.266 . S
In1053 O1060 2.326 . S
In1053 O1061 2.266 . S
In1053 O1062 2.326 . S
In1053 O1064 2.294 . S
In1053 O1065 2.326 . S
O1054 In1053 2.294 . S
O1054 C1063 1.240 . S
O1055 In1053 2.326 . S
O1055 C1063 1.252 . S
C1056 O1059 1.252 . S
C1056 O1060 1.260 . S
C1057 O1064 1.240 . S
C1057 O1065 1.252 . S
C1058 O1061 1.252 . S
C1058 O1062 1.260 . S
O1059 In1053 2.266 . S
O1059 C1056 1.252 . S
O1060 In1053 2.326 . S
O1060 C1056 1.260 . S
O1061 In1053 2.266 . S
O1061 C1058 1.252 . S
O1062 In1053 2.326 . S
O1062 C1058 1.260 . S
C1063 O1054 1.240 . S
C1063 O1055 1.252 . S
O1064 In1053 2.294 . S
O1064 C1057 1.240 . S
O1065 In1053 2.326 . S
O1065 C1057 1.252 . S
In1066 O1067 2.294 . S
In1066 O1068 2.326 . S
In1066 O1072 2.266 . S
In1066 O1073 2.326 . S
In1066 O1074 2.266 . S
In1066 O1075 2.326 . S
In1066 O1077 2.294 . S
In1066 O1078 2.326 . S
O1067 In1066 2.294 . S
O1067 C1076 1.240 . S
O1068 In1066 2.326 . S
O1068 C1076 1.252 . S
C1069 O1072 1.252 . S
C1069 O1073 1.260 . S
C1070 O1077 1.240 . S
C1070 O1078 1.252 . S
C1071 O1074 1.252 . S
C1071 O1075 1.260 . S
O1072 In1066 2.266 . S
O1072 C1069 1.252 . S
O1073 In1066 2.326 . S
O1073 C1069 1.260 . S
O1074 In1066 2.266 . S
O1074 C1071 1.252 . S
O1075 In1066 2.326 . S
O1075 C1071 1.260 . S
C1076 O1067 1.240 . S
C1076 O1068 1.252 . S
O1077 In1066 2.294 . S
O1077 C1070 1.240 . S
O1078 In1066 2.326 . S
O1078 C1070 1.252 . S
In1079 O1080 2.294 . S
In1079 O1081 2.326 . S
In1079 O1085 2.266 . S
In1079 O1086 2.326 . S
In1079 O1087 2.266 . S
In1079 O1088 2.326 . S
In1079 O1090 2.294 . S
In1079 O1091 2.326 . S
O1080 In1079 2.294 . S
O1080 C1089 1.240 . S
O1081 In1079 2.326 . S
O1081 C1089 1.252 . S
C1082 O1085 1.252 . S
C1082 O1086 1.260 . S
C1083 O1090 1.240 . S
C1083 O1091 1.252 . S
C1084 O1087 1.252 . S
C1084 O1088 1.260 . S
O1085 In1079 2.266 . S
O1085 C1082 1.252 . S
O1086 In1079 2.326 . S
O1086 C1082 1.260 . S
O1087 In1079 2.266 . S
O1087 C1084 1.252 . S
O1088 In1079 2.326 . S
O1088 C1084 1.260 . S
C1089 O1080 1.240 . S
C1089 O1081 1.252 . S
O1090 In1079 2.294 . S
O1090 C1083 1.240 . S
O1091 In1079 2.326 . S
O1091 C1083 1.252 . S
In1092 O1093 2.294 . S
In1092 O1094 2.326 . S
In1092 O1098 2.266 . S
In1092 O1099 2.326 . S
In1092 O1100 2.266 . S
In1092 O1101 2.326 . S
In1092 O1103 2.294 . S
In1092 O1104 2.326 . S
O1093 In1092 2.294 . S
O1093 C1102 1.240 . S
O1094 In1092 2.326 . S
O1094 C1102 1.252 . S
C1095 O1098 1.252 . S
C1095 O1099 1.260 . S
C1096 O1103 1.240 . S
C1096 O1104 1.252 . S
C1097 O1100 1.252 . S
C1097 O1101 1.260 . S
O1098 In1092 2.266 . S
O1098 C1095 1.252 . S
O1099 In1092 2.326 . S
O1099 C1095 1.260 . S
O1100 In1092 2.266 . S
O1100 C1097 1.252 . S
O1101 In1092 2.326 . S
O1101 C1097 1.260 . S
C1102 O1093 1.240 . S
C1102 O1094 1.252 . S
O1103 In1092 2.294 . S
O1103 C1096 1.240 . S
O1104 In1092 2.326 . S
O1104 C1096 1.252 . S
In1105 O1106 2.294 . S
In1105 O1107 2.326 . S
In1105 O1111 2.266 . S
In1105 O1112 2.326 . S
In1105 O1113 2.266 . S
In1105 O1114 2.326 . S
In1105 O1116 2.294 . S
In1105 O1117 2.326 . S
O1106 In1105 2.294 . S
O1106 C1115 1.240 . S
O1107 In1105 2.326 . S
O1107 C1115 1.252 . S
C1108 O1111 1.252 . S
C1108 O1112 1.260 . S
C1109 O1116 1.240 . S
C1109 O1117 1.252 . S
C1110 O1113 1.252 . S
C1110 O1114 1.260 . S
O1111 In1105 2.266 . S
O1111 C1108 1.252 . S
O1112 In1105 2.326 . S
O1112 C1108 1.260 . S
O1113 In1105 2.266 . S
O1113 C1110 1.252 . S
O1114 In1105 2.326 . S
O1114 C1110 1.260 . S
C1115 O1106 1.240 . S
C1115 O1107 1.252 . S
O1116 In1105 2.294 . S
O1116 C1109 1.240 . S
O1117 In1105 2.326 . S
O1117 C1109 1.252 . S
In1118 O1119 2.294 . S
In1118 O1120 2.326 . S
In1118 O1124 2.266 . S
In1118 O1125 2.326 . S
In1118 O1126 2.266 . S
In1118 O1127 2.326 . S
In1118 O1129 2.294 . S
In1118 O1130 2.326 . S
O1119 In1118 2.294 . S
O1119 C1128 1.240 . S
O1120 In1118 2.326 . S
O1120 C1128 1.252 . S
C1121 O1124 1.252 . S
C1121 O1125 1.260 . S
C1122 O1129 1.240 . S
C1122 O1130 1.252 . S
C1123 O1126 1.252 . S
C1123 O1127 1.260 . S
O1124 In1118 2.266 . S
O1124 C1121 1.252 . S
O1125 In1118 2.326 . S
O1125 C1121 1.260 . S
O1126 In1118 2.266 . S
O1126 C1123 1.252 . S
O1127 In1118 2.326 . S
O1127 C1123 1.260 . S
C1128 O1119 1.240 . S
C1128 O1120 1.252 . S
O1129 In1118 2.294 . S
O1129 C1122 1.240 . S
O1130 In1118 2.326 . S
O1130 C1122 1.252 . S
In1131 O1132 2.294 . S
In1131 O1133 2.326 . S
In1131 O1137 2.266 . S
In1131 O1138 2.326 . S
In1131 O1139 2.266 . S
In1131 O1140 2.326 . S
In1131 O1142 2.294 . S
In1131 O1143 2.326 . S
O1132 In1131 2.294 . S
O1132 C1141 1.240 . S
O1133 In1131 2.326 . S
O1133 C1141 1.252 . S
C1134 O1137 1.252 . S
C1134 O1138 1.260 . S
C1135 O1142 1.240 . S
C1135 O1143 1.252 . S
C1136 O1139 1.252 . S
C1136 O1140 1.260 . S
O1137 In1131 2.266 . S
O1137 C1134 1.252 . S
O1138 In1131 2.326 . S
O1138 C1134 1.260 . S
O1139 In1131 2.266 . S
O1139 C1136 1.252 . S
O1140 In1131 2.326 . S
O1140 C1136 1.260 . S
C1141 O1132 1.240 . S
C1141 O1133 1.252 . S
O1142 In1131 2.294 . S
O1142 C1135 1.240 . S
O1143 In1131 2.326 . S
O1143 C1135 1.252 . S
In1144 O1145 2.294 . S
In1144 O1146 2.326 . S
In1144 O1150 2.266 . S
In1144 O1151 2.326 . S
In1144 O1152 2.266 . S
In1144 O1153 2.326 . S
In1144 O1155 2.294 . S
In1144 O1156 2.326 . S
O1145 In1144 2.294 . S
O1145 C1154 1.240 . S
O1146 In1144 2.326 . S
O1146 C1154 1.252 . S
C1147 O1150 1.252 . S
C1147 O1151 1.260 . S
C1148 O1155 1.240 . S
C1148 O1156 1.252 . S
C1149 O1152 1.252 . S
C1149 O1153 1.260 . S
O1150 In1144 2.266 . S
O1150 C1147 1.252 . S
O1151 In1144 2.326 . S
O1151 C1147 1.260 . S
O1152 In1144 2.266 . S
O1152 C1149 1.252 . S
O1153 In1144 2.326 . S
O1153 C1149 1.260 . S
C1154 O1145 1.240 . S
C1154 O1146 1.252 . S
O1155 In1144 2.294 . S
O1155 C1148 1.240 . S
O1156 In1144 2.326 . S
O1156 C1148 1.252 . S
In1157 O1158 2.294 . S
In1157 O1159 2.326 . S
In1157 O1163 2.266 . S
In1157 O1164 2.326 . S
In1157 O1165 2.266 . S
In1157 O1166 2.326 . S
In1157 O1168 2.294 . S
In1157 O1169 2.326 . S
O1158 In1157 2.294 . S
O1158 C1167 1.240 . S
O1159 In1157 2.326 . S
O1159 C1167 1.252 . S
C1160 O1163 1.252 . S
C1160 O1164 1.260 . S
C1161 O1168 1.240 . S
C1161 O1169 1.252 . S
C1162 O1165 1.252 . S
C1162 O1166 1.260 . S
O1163 In1157 2.266 . S
O1163 C1160 1.252 . S
O1164 In1157 2.326 . S
O1164 C1160 1.260 . S
O1165 In1157 2.266 . S
O1165 C1162 1.252 . S
O1166 In1157 2.326 . S
O1166 C1162 1.260 . S
C1167 O1158 1.240 . S
C1167 O1159 1.252 . S
O1168 In1157 2.294 . S
O1168 C1161 1.240 . S
O1169 In1157 2.326 . S
O1169 C1161 1.252 . S
In1170 O1171 2.294 . S
In1170 O1172 2.326 . S
In1170 O1176 2.266 . S
In1170 O1177 2.326 . S
In1170 O1178 2.266 . S
In1170 O1179 2.326 . S
In1170 O1181 2.294 . S
In1170 O1182 2.326 . S
O1171 In1170 2.294 . S
O1171 C1180 1.240 . S
O1172 In1170 2.326 . S
O1172 C1180 1.252 . S
C1173 O1176 1.252 . S
C1173 O1177 1.260 . S
C1174 O1181 1.240 . S
C1174 O1182 1.252 . S
C1175 O1178 1.252 . S
C1175 O1179 1.260 . S
O1176 In1170 2.266 . S
O1176 C1173 1.252 . S
O1177 In1170 2.326 . S
O1177 C1173 1.260 . S
O1178 In1170 2.266 . S
O1178 C1175 1.252 . S
O1179 In1170 2.326 . S
O1179 C1175 1.260 . S
C1180 O1171 1.240 . S
C1180 O1172 1.252 . S
O1181 In1170 2.294 . S
O1181 C1174 1.240 . S
O1182 In1170 2.326 . S
O1182 C1174 1.252 . S
In1183 O1184 2.294 . S
In1183 O1185 2.326 . S
In1183 O1189 2.266 . S
In1183 O1190 2.326 . S
In1183 O1191 2.266 . S
In1183 O1192 2.326 . S
In1183 O1194 2.294 . S
In1183 O1195 2.326 . S
O1184 In1183 2.294 . S
O1184 C1193 1.240 . S
O1185 In1183 2.326 . S
O1185 C1193 1.252 . S
C1186 O1189 1.252 . S
C1186 O1190 1.260 . S
C1187 O1194 1.240 . S
C1187 O1195 1.252 . S
C1188 O1191 1.252 . S
C1188 O1192 1.260 . S
O1189 In1183 2.266 . S
O1189 C1186 1.252 . S
O1190 In1183 2.326 . S
O1190 C1186 1.260 . S
O1191 In1183 2.266 . S
O1191 C1188 1.252 . S
O1192 In1183 2.326 . S
O1192 C1188 1.260 . S
C1193 O1184 1.240 . S
C1193 O1185 1.252 . S
O1194 In1183 2.294 . S
O1194 C1187 1.240 . S
O1195 In1183 2.326 . S
O1195 C1187 1.252 . S
In1196 O1197 2.294 . S
In1196 O1198 2.326 . S
In1196 O1202 2.266 . S
In1196 O1203 2.326 . S
In1196 O1204 2.266 . S
In1196 O1205 2.326 . S
In1196 O1207 2.294 . S
In1196 O1208 2.326 . S
O1197 In1196 2.294 . S
O1197 C1206 1.240 . S
O1198 In1196 2.326 . S
O1198 C1206 1.252 . S
C1199 O1202 1.252 . S
C1199 O1203 1.260 . S
C1200 O1207 1.240 . S
C1200 O1208 1.252 . S
C1201 O1204 1.252 . S
C1201 O1205 1.260 . S
O1202 In1196 2.266 . S
O1202 C1199 1.252 . S
O1203 In1196 2.326 . S
O1203 C1199 1.260 . S
O1204 In1196 2.266 . S
O1204 C1201 1.252 . S
O1205 In1196 2.326 . S
O1205 C1201 1.260 . S
C1206 O1197 1.240 . S
C1206 O1198 1.252 . S
O1207 In1196 2.294 . S
O1207 C1200 1.240 . S
O1208 In1196 2.326 . S
O1208 C1200 1.252 . S
In1209 O1210 2.294 . S
In1209 O1211 2.326 . S
In1209 O1215 2.266 . S
In1209 O1216 2.326 . S
In1209 O1217 2.266 . S
In1209 O1218 2.326 . S
In1209 O1220 2.294 . S
In1209 O1221 2.326 . S
O1210 In1209 2.294 . S
O1210 C1219 1.240 . S
O1211 In1209 2.326 . S
O1211 C1219 1.252 . S
C1212 O1215 1.252 . S
C1212 O1216 1.260 . S
C1213 O1220 1.240 . S
C1213 O1221 1.252 . S
C1214 O1217 1.252 . S
C1214 O1218 1.260 . S
O1215 In1209 2.266 . S
O1215 C1212 1.252 . S
O1216 In1209 2.326 . S
O1216 C1212 1.260 . S
O1217 In1209 2.266 . S
O1217 C1214 1.252 . S
O1218 In1209 2.326 . S
O1218 C1214 1.260 . S
C1219 O1210 1.240 . S
C1219 O1211 1.252 . S
O1220 In1209 2.294 . S
O1220 C1213 1.240 . S
O1221 In1209 2.326 . S
O1221 C1213 1.252 . S
In1222 O1223 2.294 . S
In1222 O1224 2.326 . S
In1222 O1228 2.266 . S
In1222 O1229 2.326 . S
In1222 O1230 2.266 . S
In1222 O1231 2.326 . S
In1222 O1233 2.294 . S
In1222 O1234 2.326 . S
O1223 In1222 2.294 . S
O1223 C1232 1.240 . S
O1224 In1222 2.326 . S
O1224 C1232 1.252 . S
C1225 O1228 1.252 . S
C1225 O1229 1.260 . S
C1226 O1233 1.240 . S
C1226 O1234 1.252 . S
C1227 O1230 1.252 . S
C1227 O1231 1.260 . S
O1228 In1222 2.266 . S
O1228 C1225 1.252 . S
O1229 In1222 2.326 . S
O1229 C1225 1.260 . S
O1230 In1222 2.266 . S
O1230 C1227 1.252 . S
O1231 In1222 2.326 . S
O1231 C1227 1.260 . S
C1232 O1223 1.240 . S
C1232 O1224 1.252 . S
O1233 In1222 2.294 . S
O1233 C1226 1.240 . S
O1234 In1222 2.326 . S
O1234 C1226 1.252 . S
In1235 O1236 2.294 . S
In1235 O1237 2.326 . S
In1235 O1241 2.266 . S
In1235 O1242 2.326 . S
In1235 O1243 2.266 . S
In1235 O1244 2.326 . S
In1235 O1246 2.294 . S
In1235 O1247 2.326 . S
O1236 In1235 2.294 . S
O1236 C1245 1.240 . S
O1237 In1235 2.326 . S
O1237 C1245 1.252 . S
C1238 O1241 1.252 . S
C1238 O1242 1.260 . S
C1239 O1246 1.240 . S
C1239 O1247 1.252 . S
C1240 O1243 1.252 . S
C1240 O1244 1.260 . S
O1241 In1235 2.266 . S
O1241 C1238 1.252 . S
O1242 In1235 2.326 . S
O1242 C1238 1.260 . S
O1243 In1235 2.266 . S
O1243 C1240 1.252 . S
O1244 In1235 2.326 . S
O1244 C1240 1.260 . S
C1245 O1236 1.240 . S
C1245 O1237 1.252 . S
O1246 In1235 2.294 . S
O1246 C1239 1.240 . S
O1247 In1235 2.326 . S
O1247 C1239 1.252 . S
H1248 C1256 0.950 . S
H1249 C1261 0.950 . S
H1250 C1258 0.950 . S
H1251 C1260 0.950 . S
H1252 C1262 0.950 . S
H1253 C1264 0.950 . S
H1254 C1266 0.950 . S
H1255 C1267 0.950 . S
C1256 H1248 0.950 . S
C1256 C1257 1.386 . S
C1256 C1258 1.391 . S
C1257 C1256 1.386 . S
C1257 C1261 1.393 . S
C1258 H1250 0.950 . S
C1258 C1256 1.391 . S
C1258 C1259 1.400 . S
C1259 C1258 1.400 . S
C1259 C1260 1.398 . S
C1259 C1265 1.491 . S
C1260 H1251 0.950 . S
C1260 C1259 1.398 . S
C1260 C1261 1.391 . S
C1261 H1249 0.950 . S
C1261 C1257 1.393 . S
C1261 C1260 1.391 . S
C1262 H1252 0.950 . S
C1262 C1263 1.386 . S
C1262 C1264 1.391 . S
C1263 C1262 1.386 . S
C1263 C1267 1.393 . S
C1264 H1253 0.950 . S
C1264 C1262 1.391 . S
C1264 C1265 1.400 . S
C1265 C1259 1.491 . S
C1265 C1264 1.400 . S
C1265 C1266 1.398 . S
C1266 H1254 0.950 . S
C1266 C1265 1.398 . S
C1266 C1267 1.391 . S
C1267 H1255 0.950 . S
C1267 C1263 1.393 . S
C1267 C1266 1.391 . S
H1268 C1276 0.950 . S
H1269 C1281 0.950 . S
H1270 C1278 0.950 . S
H1271 C1280 0.950 . S
H1272 C1282 0.950 . S
H1273 C1284 0.950 . S
H1274 C1286 0.950 . S
H1275 C1287 0.950 . S
C1276 H1268 0.950 . S
C1276 C1277 1.386 . S
C1276 C1278 1.391 . S
C1277 C1276 1.386 . S
C1277 C1281 1.393 . S
C1278 H1270 0.950 . S
C1278 C1276 1.391 . S
C1278 C1279 1.400 . S
C1279 C1278 1.400 . S
C1279 C1280 1.398 . S
C1279 C1285 1.491 . S
C1280 H1271 0.950 . S
C1280 C1279 1.398 . S
C1280 C1281 1.391 . S
C1281 H1269 0.950 . S
C1281 C1277 1.393 . S
C1281 C1280 1.391 . S
C1282 H1272 0.950 . S
C1282 C1283 1.386 . S
C1282 C1284 1.391 . S
C1283 C1282 1.386 . S
C1283 C1287 1.393 . S
C1284 H1273 0.950 . S
C1284 C1282 1.391 . S
C1284 C1285 1.400 . S
C1285 C1279 1.491 . S
C1285 C1284 1.400 . S
C1285 C1286 1.398 . S
C1286 H1274 0.950 . S
C1286 C1285 1.398 . S
C1286 C1287 1.391 . S
C1287 H1275 0.950 . S
C1287 C1283 1.393 . S
C1287 C1286 1.391 . S
H1288 C1296 0.950 . S
H1289 C1301 0.950 . S
H1290 C1298 0.950 . S
H1291 C1300 0.950 . S
H1292 C1302 0.950 . S
H1293 C1304 0.950 . S
H1294 C1306 0.950 . S
H1295 C1307 0.950 . S
C1296 H1288 0.950 . S
C1296 C1297 1.386 . S
C1296 C1298 1.391 . S
C1297 C1296 1.386 . S
C1297 C1301 1.393 . S
C1298 H1290 0.950 . S
C1298 C1296 1.391 . S
C1298 C1299 1.400 . S
C1299 C1298 1.400 . S
C1299 C1300 1.398 . S
C1299 C1305 1.491 . S
C1300 H1291 0.950 . S
C1300 C1299 1.398 . S
C1300 C1301 1.391 . S
C1301 H1289 0.950 . S
C1301 C1297 1.393 . S
C1301 C1300 1.391 . S
C1302 H1292 0.950 . S
C1302 C1303 1.386 . S
C1302 C1304 1.391 . S
C1303 C1302 1.386 . S
C1303 C1307 1.393 . S
C1304 H1293 0.950 . S
C1304 C1302 1.391 . S
C1304 C1305 1.400 . S
C1305 C1299 1.491 . S
C1305 C1304 1.400 . S
C1305 C1306 1.398 . S
C1306 H1294 0.950 . S
C1306 C1305 1.398 . S
C1306 C1307 1.391 . S
C1307 H1295 0.950 . S
C1307 C1303 1.393 . S
C1307 C1306 1.391 . S
H1308 C1316 0.950 . S
H1309 C1321 0.950 . S
H1310 C1318 0.950 . S
H1311 C1320 0.950 . S
H1312 C1322 0.950 . S
H1313 C1324 0.950 . S
H1314 C1326 0.950 . S
H1315 C1327 0.950 . S
C1316 H1308 0.950 . S
C1316 C1317 1.386 . S
C1316 C1318 1.391 . S
C1317 C1316 1.386 . S
C1317 C1321 1.393 . S
C1318 H1310 0.950 . S
C1318 C1316 1.391 . S
C1318 C1319 1.400 . S
C1319 C1318 1.400 . S
C1319 C1320 1.398 . S
C1319 C1325 1.491 . S
C1320 H1311 0.950 . S
C1320 C1319 1.398 . S
C1320 C1321 1.391 . S
C1321 H1309 0.950 . S
C1321 C1317 1.393 . S
C1321 C1320 1.391 . S
C1322 H1312 0.950 . S
C1322 C1323 1.386 . S
C1322 C1324 1.391 . S
C1323 C1322 1.386 . S
C1323 C1327 1.393 . S
C1324 H1313 0.950 . S
C1324 C1322 1.391 . S
C1324 C1325 1.400 . S
C1325 C1319 1.491 . S
C1325 C1324 1.400 . S
C1325 C1326 1.398 . S
C1326 H1314 0.950 . S
C1326 C1325 1.398 . S
C1326 C1327 1.391 . S
C1327 H1315 0.950 . S
C1327 C1323 1.393 . S
C1327 C1326 1.391 . S
H1328 C1336 0.950 . S
H1329 C1341 0.950 . S
H1330 C1338 0.950 . S
H1331 C1340 0.950 . S
H1332 C1342 0.950 . S
H1333 C1344 0.950 . S
H1334 C1346 0.950 . S
H1335 C1347 0.950 . S
C1336 H1328 0.950 . S
C1336 C1337 1.386 . S
C1336 C1338 1.391 . S
C1337 C1336 1.386 . S
C1337 C1341 1.393 . S
C1338 H1330 0.950 . S
C1338 C1336 1.391 . S
C1338 C1339 1.400 . S
C1339 C1338 1.400 . S
C1339 C1340 1.398 . S
C1339 C1345 1.491 . S
C1340 H1331 0.950 . S
C1340 C1339 1.398 . S
C1340 C1341 1.391 . S
C1341 H1329 0.950 . S
C1341 C1337 1.393 . S
C1341 C1340 1.391 . S
C1342 H1332 0.950 . S
C1342 C1343 1.386 . S
C1342 C1344 1.391 . S
C1343 C1342 1.386 . S
C1343 C1347 1.393 . S
C1344 H1333 0.950 . S
C1344 C1342 1.391 . S
C1344 C1345 1.400 . S
C1345 C1339 1.491 . S
C1345 C1344 1.400 . S
C1345 C1346 1.398 . S
C1346 H1334 0.950 . S
C1346 C1345 1.398 . S
C1346 C1347 1.391 . S
C1347 H1335 0.950 . S
C1347 C1343 1.393 . S
C1347 C1346 1.391 . S
H1348 C1356 0.950 . S
H1349 C1361 0.950 . S
H1350 C1358 0.950 . S
H1351 C1360 0.950 . S
H1352 C1362 0.950 . S
H1353 C1364 0.950 . S
H1354 C1366 0.950 . S
H1355 C1367 0.950 . S
C1356 H1348 0.950 . S
C1356 C1357 1.386 . S
C1356 C1358 1.391 . S
C1357 C1356 1.386 . S
C1357 C1361 1.393 . S
C1358 H1350 0.950 . S
C1358 C1356 1.391 . S
C1358 C1359 1.400 . S
C1359 C1358 1.400 . S
C1359 C1360 1.398 . S
C1359 C1365 1.491 . S
C1360 H1351 0.950 . S
C1360 C1359 1.398 . S
C1360 C1361 1.391 . S
C1361 H1349 0.950 . S
C1361 C1357 1.393 . S
C1361 C1360 1.391 . S
C1362 H1352 0.950 . S
C1362 C1363 1.386 . S
C1362 C1364 1.391 . S
C1363 C1362 1.386 . S
C1363 C1367 1.393 . S
C1364 H1353 0.950 . S
C1364 C1362 1.391 . S
C1364 C1365 1.400 . S
C1365 C1359 1.491 . S
C1365 C1364 1.400 . S
C1365 C1366 1.398 . S
C1366 H1354 0.950 . S
C1366 C1365 1.398 . S
C1366 C1367 1.391 . S
C1367 H1355 0.950 . S
C1367 C1363 1.393 . S
C1367 C1366 1.391 . S
H1368 C1376 0.950 . S
H1369 C1381 0.950 . S
H1370 C1378 0.950 . S
H1371 C1380 0.950 . S
H1372 C1382 0.950 . S
H1373 C1384 0.950 . S
H1374 C1386 0.950 . S
H1375 C1387 0.950 . S
C1376 H1368 0.950 . S
C1376 C1377 1.386 . S
C1376 C1378 1.391 . S
C1377 C1376 1.386 . S
C1377 C1381 1.393 . S
C1378 H1370 0.950 . S
C1378 C1376 1.391 . S
C1378 C1379 1.400 . S
C1379 C1378 1.400 . S
C1379 C1380 1.398 . S
C1379 C1385 1.491 . S
C1380 H1371 0.950 . S
C1380 C1379 1.398 . S
C1380 C1381 1.391 . S
C1381 H1369 0.950 . S
C1381 C1377 1.393 . S
C1381 C1380 1.391 . S
C1382 H1372 0.950 . S
C1382 C1383 1.386 . S
C1382 C1384 1.391 . S
C1383 C1382 1.386 . S
C1383 C1387 1.393 . S
C1384 H1373 0.950 . S
C1384 C1382 1.391 . S
C1384 C1385 1.400 . S
C1385 C1379 1.491 . S
C1385 C1384 1.400 . S
C1385 C1386 1.398 . S
C1386 H1374 0.950 . S
C1386 C1385 1.398 . S
C1386 C1387 1.391 . S
C1387 H1375 0.950 . S
C1387 C1383 1.393 . S
C1387 C1386 1.391 . S
H1388 C1396 0.950 . S
H1389 C1401 0.950 . S
H1390 C1398 0.950 . S
H1391 C1400 0.950 . S
H1392 C1402 0.950 . S
H1393 C1404 0.950 . S
H1394 C1406 0.950 . S
H1395 C1407 0.950 . S
C1396 H1388 0.950 . S
C1396 C1397 1.386 . S
C1396 C1398 1.391 . S
C1397 C1396 1.386 . S
C1397 C1401 1.393 . S
C1398 H1390 0.950 . S
C1398 C1396 1.391 . S
C1398 C1399 1.400 . S
C1399 C1398 1.400 . S
C1399 C1400 1.398 . S
C1399 C1405 1.491 . S
C1400 H1391 0.950 . S
C1400 C1399 1.398 . S
C1400 C1401 1.391 . S
C1401 H1389 0.950 . S
C1401 C1397 1.393 . S
C1401 C1400 1.391 . S
C1402 H1392 0.950 . S
C1402 C1403 1.386 . S
C1402 C1404 1.391 . S
C1403 C1402 1.386 . S
C1403 C1407 1.393 . S
C1404 H1393 0.950 . S
C1404 C1402 1.391 . S
C1404 C1405 1.400 . S
C1405 C1399 1.491 . S
C1405 C1404 1.400 . S
C1405 C1406 1.398 . S
C1406 H1394 0.950 . S
C1406 C1405 1.398 . S
C1406 C1407 1.391 . S
C1407 H1395 0.950 . S
C1407 C1403 1.393 . S
C1407 C1406 1.391 . S
H1408 C1416 0.950 . S
H1409 C1421 0.950 . S
H1410 C1418 0.950 . S
H1411 C1420 0.950 . S
H1412 C1422 0.950 . S
H1413 C1424 0.950 . S
H1414 C1426 0.950 . S
H1415 C1427 0.950 . S
C1416 H1408 0.950 . S
C1416 C1417 1.386 . S
C1416 C1418 1.391 . S
C1417 C1416 1.386 . S
C1417 C1421 1.393 . S
C1418 H1410 0.950 . S
C1418 C1416 1.391 . S
C1418 C1419 1.400 . S
C1419 C1418 1.400 . S
C1419 C1420 1.398 . S
C1419 C1425 1.491 . S
C1420 H1411 0.950 . S
C1420 C1419 1.398 . S
C1420 C1421 1.391 . S
C1421 H1409 0.950 . S
C1421 C1417 1.393 . S
C1421 C1420 1.391 . S
C1422 H1412 0.950 . S
C1422 C1423 1.386 . S
C1422 C1424 1.391 . S
C1423 C1422 1.386 . S
C1423 C1427 1.393 . S
C1424 H1413 0.950 . S
C1424 C1422 1.391 . S
C1424 C1425 1.400 . S
C1425 C1419 1.491 . S
C1425 C1424 1.400 . S
C1425 C1426 1.398 . S
C1426 H1414 0.950 . S
C1426 C1425 1.398 . S
C1426 C1427 1.391 . S
C1427 H1415 0.950 . S
C1427 C1423 1.393 . S
C1427 C1426 1.391 . S
H1428 C1436 0.950 . S
H1429 C1441 0.950 . S
H1430 C1438 0.950 . S
H1431 C1440 0.950 . S
H1432 C1442 0.950 . S
H1433 C1444 0.950 . S
H1434 C1446 0.950 . S
H1435 C1447 0.950 . S
C1436 H1428 0.950 . S
C1436 C1437 1.386 . S
C1436 C1438 1.391 . S
C1437 C1436 1.386 . S
C1437 C1441 1.393 . S
C1438 H1430 0.950 . S
C1438 C1436 1.391 . S
C1438 C1439 1.400 . S
C1439 C1438 1.400 . S
C1439 C1440 1.398 . S
C1439 C1445 1.491 . S
C1440 H1431 0.950 . S
C1440 C1439 1.398 . S
C1440 C1441 1.391 . S
C1441 H1429 0.950 . S
C1441 C1437 1.393 . S
C1441 C1440 1.391 . S
C1442 H1432 0.950 . S
C1442 C1443 1.386 . S
C1442 C1444 1.391 . S
C1443 C1442 1.386 . S
C1443 C1447 1.393 . S
C1444 H1433 0.950 . S
C1444 C1442 1.391 . S
C1444 C1445 1.400 . S
C1445 C1439 1.491 . S
C1445 C1444 1.400 . S
C1445 C1446 1.398 . S
C1446 H1434 0.950 . S
C1446 C1445 1.398 . S
C1446 C1447 1.391 . S
C1447 H1435 0.950 . S
C1447 C1443 1.393 . S
C1447 C1446 1.391 . S
H1448 C1456 0.950 . S
H1449 C1461 0.950 . S
H1450 C1458 0.950 . S
H1451 C1460 0.950 . S
H1452 C1462 0.950 . S
H1453 C1464 0.950 . S
H1454 C1466 0.950 . S
H1455 C1467 0.950 . S
C1456 H1448 0.950 . S
C1456 C1457 1.386 . S
C1456 C1458 1.391 . S
C1457 C1456 1.386 . S
C1457 C1461 1.393 . S
C1458 H1450 0.950 . S
C1458 C1456 1.391 . S
C1458 C1459 1.400 . S
C1459 C1458 1.400 . S
C1459 C1460 1.398 . S
C1459 C1465 1.491 . S
C1460 H1451 0.950 . S
C1460 C1459 1.398 . S
C1460 C1461 1.391 . S
C1461 H1449 0.950 . S
C1461 C1457 1.393 . S
C1461 C1460 1.391 . S
C1462 H1452 0.950 . S
C1462 C1463 1.386 . S
C1462 C1464 1.391 . S
C1463 C1462 1.386 . S
C1463 C1467 1.393 . S
C1464 H1453 0.950 . S
C1464 C1462 1.391 . S
C1464 C1465 1.400 . S
C1465 C1459 1.491 . S
C1465 C1464 1.400 . S
C1465 C1466 1.398 . S
C1466 H1454 0.950 . S
C1466 C1465 1.398 . S
C1466 C1467 1.391 . S
C1467 H1455 0.950 . S
C1467 C1463 1.393 . S
C1467 C1466 1.391 . S
H1468 C1476 0.950 . S
H1469 C1481 0.950 . S
H1470 C1478 0.950 . S
H1471 C1480 0.950 . S
H1472 C1482 0.950 . S
H1473 C1484 0.950 . S
H1474 C1486 0.950 . S
H1475 C1487 0.950 . S
C1476 H1468 0.950 . S
C1476 C1477 1.386 . S
C1476 C1478 1.391 . S
C1477 C1476 1.386 . S
C1477 C1481 1.393 . S
C1478 H1470 0.950 . S
C1478 C1476 1.391 . S
C1478 C1479 1.400 . S
C1479 C1478 1.400 . S
C1479 C1480 1.398 . S
C1479 C1485 1.491 . S
C1480 H1471 0.950 . S
C1480 C1479 1.398 . S
C1480 C1481 1.391 . S
C1481 H1469 0.950 . S
C1481 C1477 1.393 . S
C1481 C1480 1.391 . S
C1482 H1472 0.950 . S
C1482 C1483 1.386 . S
C1482 C1484 1.391 . S
C1483 C1482 1.386 . S
C1483 C1487 1.393 . S
C1484 H1473 0.950 . S
C1484 C1482 1.391 . S
C1484 C1485 1.400 . S
C1485 C1479 1.491 . S
C1485 C1484 1.400 . S
C1485 C1486 1.398 . S
C1486 H1474 0.950 . S
C1486 C1485 1.398 . S
C1486 C1487 1.391 . S
C1487 H1475 0.950 . S
C1487 C1483 1.393 . S
C1487 C1486 1.391 . S
H1488 C1496 0.950 . S
H1489 C1501 0.950 . S
H1490 C1498 0.950 . S
H1491 C1500 0.950 . S
H1492 C1502 0.950 . S
H1493 C1504 0.950 . S
H1494 C1506 0.950 . S
H1495 C1507 0.950 . S
C1496 H1488 0.950 . S
C1496 C1497 1.386 . S
C1496 C1498 1.391 . S
C1497 C1496 1.386 . S
C1497 C1501 1.393 . S
C1498 H1490 0.950 . S
C1498 C1496 1.391 . S
C1498 C1499 1.400 . S
C1499 C1498 1.400 . S
C1499 C1500 1.398 . S
C1499 C1505 1.491 . S
C1500 H1491 0.950 . S
C1500 C1499 1.398 . S
C1500 C1501 1.391 . S
C1501 H1489 0.950 . S
C1501 C1497 1.393 . S
C1501 C1500 1.391 . S
C1502 H1492 0.950 . S
C1502 C1503 1.386 . S
C1502 C1504 1.391 . S
C1503 C1502 1.386 . S
C1503 C1507 1.393 . S
C1504 H1493 0.950 . S
C1504 C1502 1.391 . S
C1504 C1505 1.400 . S
C1505 C1499 1.491 . S
C1505 C1504 1.400 . S
C1505 C1506 1.398 . S
C1506 H1494 0.950 . S
C1506 C1505 1.398 . S
C1506 C1507 1.391 . S
C1507 H1495 0.950 . S
C1507 C1503 1.393 . S
C1507 C1506 1.391 . S
H1508 C1516 0.950 . S
H1509 C1521 0.950 . S
H1510 C1518 0.950 . S
H1511 C1520 0.950 . S
H1512 C1522 0.950 . S
H1513 C1524 0.950 . S
H1514 C1526 0.950 . S
H1515 C1527 0.950 . S
C1516 H1508 0.950 . S
C1516 C1517 1.386 . S
C1516 C1518 1.391 . S
C1517 C1516 1.386 . S
C1517 C1521 1.393 . S
C1518 H1510 0.950 . S
C1518 C1516 1.391 . S
C1518 C1519 1.400 . S
C1519 C1518 1.400 . S
C1519 C1520 1.398 . S
C1519 C1525 1.491 . S
C1520 H1511 0.950 . S
C1520 C1519 1.398 . S
C1520 C1521 1.391 . S
C1521 H1509 0.950 . S
C1521 C1517 1.393 . S
C1521 C1520 1.391 . S
C1522 H1512 0.950 . S
C1522 C1523 1.386 . S
C1522 C1524 1.391 . S
C1523 C1522 1.386 . S
C1523 C1527 1.393 . S
C1524 H1513 0.950 . S
C1524 C1522 1.391 . S
C1524 C1525 1.400 . S
C1525 C1519 1.491 . S
C1525 C1524 1.400 . S
C1525 C1526 1.398 . S
C1526 H1514 0.950 . S
C1526 C1525 1.398 . S
C1526 C1527 1.391 . S
C1527 H1515 0.950 . S
C1527 C1523 1.393 . S
C1527 C1526 1.391 . S
H1528 C1536 0.950 . S
H1529 C1541 0.950 . S
H1530 C1538 0.950 . S
H1531 C1540 0.950 . S
H1532 C1542 0.950 . S
H1533 C1544 0.950 . S
H1534 C1546 0.950 . S
H1535 C1547 0.950 . S
C1536 H1528 0.950 . S
C1536 C1537 1.386 . S
C1536 C1538 1.391 . S
C1537 C1536 1.386 . S
C1537 C1541 1.393 . S
C1538 H1530 0.950 . S
C1538 C1536 1.391 . S
C1538 C1539 1.400 . S
C1539 C1538 1.400 . S
C1539 C1540 1.398 . S
C1539 C1545 1.491 . S
C1540 H1531 0.950 . S
C1540 C1539 1.398 . S
C1540 C1541 1.391 . S
C1541 H1529 0.950 . S
C1541 C1537 1.393 . S
C1541 C1540 1.391 . S
C1542 H1532 0.950 . S
C1542 C1543 1.386 . S
C1542 C1544 1.391 . S
C1543 C1542 1.386 . S
C1543 C1547 1.393 . S
C1544 H1533 0.950 . S
C1544 C1542 1.391 . S
C1544 C1545 1.400 . S
C1545 C1539 1.491 . S
C1545 C1544 1.400 . S
C1545 C1546 1.398 . S
C1546 H1534 0.950 . S
C1546 C1545 1.398 . S
C1546 C1547 1.391 . S
C1547 H1535 0.950 . S
C1547 C1543 1.393 . S
C1547 C1546 1.391 . S
H1548 C1556 0.950 . S
H1549 C1561 0.950 . S
H1550 C1558 0.950 . S
H1551 C1560 0.950 . S
H1552 C1562 0.950 . S
H1553 C1564 0.950 . S
H1554 C1566 0.950 . S
H1555 C1567 0.950 . S
C1556 H1548 0.950 . S
C1556 C1557 1.386 . S
C1556 C1558 1.391 . S
C1557 C1556 1.386 . S
C1557 C1561 1.393 . S
C1558 H1550 0.950 . S
C1558 C1556 1.391 . S
C1558 C1559 1.400 . S
C1559 C1558 1.400 . S
C1559 C1560 1.398 . S
C1559 C1565 1.491 . S
C1560 H1551 0.950 . S
C1560 C1559 1.398 . S
C1560 C1561 1.391 . S
C1561 H1549 0.950 . S
C1561 C1557 1.393 . S
C1561 C1560 1.391 . S
C1562 H1552 0.950 . S
C1562 C1563 1.386 . S
C1562 C1564 1.391 . S
C1563 C1562 1.386 . S
C1563 C1567 1.393 . S
C1564 H1553 0.950 . S
C1564 C1562 1.391 . S
C1564 C1565 1.400 . S
C1565 C1559 1.491 . S
C1565 C1564 1.400 . S
C1565 C1566 1.398 . S
C1566 H1554 0.950 . S
C1566 C1565 1.398 . S
C1566 C1567 1.391 . S
C1567 H1555 0.950 . S
C1567 C1563 1.393 . S
C1567 C1566 1.391 . S
H1568 C1576 0.950 . S
H1569 C1581 0.950 . S
H1570 C1578 0.950 . S
H1571 C1580 0.950 . S
H1572 C1582 0.950 . S
H1573 C1584 0.950 . S
H1574 C1586 0.950 . S
H1575 C1587 0.950 . S
C1576 H1568 0.950 . S
C1576 C1577 1.386 . S
C1576 C1578 1.391 . S
C1577 C1576 1.386 . S
C1577 C1581 1.393 . S
C1578 H1570 0.950 . S
C1578 C1576 1.391 . S
C1578 C1579 1.400 . S
C1579 C1578 1.400 . S
C1579 C1580 1.398 . S
C1579 C1585 1.491 . S
C1580 H1571 0.950 . S
C1580 C1579 1.398 . S
C1580 C1581 1.391 . S
C1581 H1569 0.950 . S
C1581 C1577 1.393 . S
C1581 C1580 1.391 . S
C1582 H1572 0.950 . S
C1582 C1583 1.386 . S
C1582 C1584 1.391 . S
C1583 C1582 1.386 . S
C1583 C1587 1.393 . S
C1584 H1573 0.950 . S
C1584 C1582 1.391 . S
C1584 C1585 1.400 . S
C1585 C1579 1.491 . S
C1585 C1584 1.400 . S
C1585 C1586 1.398 . S
C1586 H1574 0.950 . S
C1586 C1585 1.398 . S
C1586 C1587 1.391 . S
C1587 H1575 0.950 . S
C1587 C1583 1.393 . S
C1587 C1586 1.391 . S
H1588 C1596 0.950 . S
H1589 C1601 0.950 . S
H1590 C1598 0.950 . S
H1591 C1600 0.950 . S
H1592 C1602 0.950 . S
H1593 C1604 0.950 . S
H1594 C1606 0.950 . S
H1595 C1607 0.950 . S
C1596 H1588 0.950 . S
C1596 C1597 1.386 . S
C1596 C1598 1.391 . S
C1597 C1596 1.386 . S
C1597 C1601 1.393 . S
C1598 H1590 0.950 . S
C1598 C1596 1.391 . S
C1598 C1599 1.400 . S
C1599 C1598 1.400 . S
C1599 C1600 1.398 . S
C1599 C1605 1.491 . S
C1600 H1591 0.950 . S
C1600 C1599 1.398 . S
C1600 C1601 1.391 . S
C1601 H1589 0.950 . S
C1601 C1597 1.393 . S
C1601 C1600 1.391 . S
C1602 H1592 0.950 . S
C1602 C1603 1.386 . S
C1602 C1604 1.391 . S
C1603 C1602 1.386 . S
C1603 C1607 1.393 . S
C1604 H1593 0.950 . S
C1604 C1602 1.391 . S
C1604 C1605 1.400 . S
C1605 C1599 1.491 . S
C1605 C1604 1.400 . S
C1605 C1606 1.398 . S
C1606 H1594 0.950 . S
C1606 C1605 1.398 . S
C1606 C1607 1.391 . S
C1607 H1595 0.950 . S
C1607 C1603 1.393 . S
C1607 C1606 1.391 . S
H1608 C1616 0.950 . S
H1609 C1621 0.950 . S
H1610 C1618 0.950 . S
H1611 C1620 0.950 . S
H1612 C1622 0.950 . S
H1613 C1624 0.950 . S
H1614 C1626 0.950 . S
H1615 C1627 0.950 . S
C1616 H1608 0.950 . S
C1616 C1617 1.386 . S
C1616 C1618 1.391 . S
C1617 C1616 1.386 . S
C1617 C1621 1.393 . S
C1618 H1610 0.950 . S
C1618 C1616 1.391 . S
C1618 C1619 1.400 . S
C1619 C1618 1.400 . S
C1619 C1620 1.398 . S
C1619 C1625 1.491 . S
C1620 H1611 0.950 . S
C1620 C1619 1.398 . S
C1620 C1621 1.391 . S
C1621 H1609 0.950 . S
C1621 C1617 1.393 . S
C1621 C1620 1.391 . S
C1622 H1612 0.950 . S
C1622 C1623 1.386 . S
C1622 C1624 1.391 . S
C1623 C1622 1.386 . S
C1623 C1627 1.393 . S
C1624 H1613 0.950 . S
C1624 C1622 1.391 . S
C1624 C1625 1.400 . S
C1625 C1619 1.491 . S
C1625 C1624 1.400 . S
C1625 C1626 1.398 . S
C1626 H1614 0.950 . S
C1626 C1625 1.398 . S
C1626 C1627 1.391 . S
C1627 H1615 0.950 . S
C1627 C1623 1.393 . S
C1627 C1626 1.391 . S
H1628 C1636 0.950 . S
H1629 C1641 0.950 . S
H1630 C1638 0.950 . S
H1631 C1640 0.950 . S
H1632 C1642 0.950 . S
H1633 C1644 0.950 . S
H1634 C1646 0.950 . S
H1635 C1647 0.950 . S
C1636 H1628 0.950 . S
C1636 C1637 1.386 . S
C1636 C1638 1.391 . S
C1637 C1636 1.386 . S
C1637 C1641 1.393 . S
C1638 H1630 0.950 . S
C1638 C1636 1.391 . S
C1638 C1639 1.400 . S
C1639 C1638 1.400 . S
C1639 C1640 1.398 . S
C1639 C1645 1.491 . S
C1640 H1631 0.950 . S
C1640 C1639 1.398 . S
C1640 C1641 1.391 . S
C1641 H1629 0.950 . S
C1641 C1637 1.393 . S
C1641 C1640 1.391 . S
C1642 H1632 0.950 . S
C1642 C1643 1.386 . S
C1642 C1644 1.391 . S
C1643 C1642 1.386 . S
C1643 C1647 1.393 . S
C1644 H1633 0.950 . S
C1644 C1642 1.391 . S
C1644 C1645 1.400 . S
C1645 C1639 1.491 . S
C1645 C1644 1.400 . S
C1645 C1646 1.398 . S
C1646 H1634 0.950 . S
C1646 C1645 1.398 . S
C1646 C1647 1.391 . S
C1647 H1635 0.950 . S
C1647 C1643 1.393 . S
C1647 C1646 1.391 . S
H1648 C1656 0.950 . S
H1649 C1661 0.950 . S
H1650 C1658 0.950 . S
H1651 C1660 0.950 . S
H1652 C1662 0.950 . S
H1653 C1664 0.950 . S
H1654 C1666 0.950 . S
H1655 C1667 0.950 . S
C1656 H1648 0.950 . S
C1656 C1657 1.386 . S
C1656 C1658 1.391 . S
C1657 C1656 1.386 . S
C1657 C1661 1.393 . S
C1658 H1650 0.950 . S
C1658 C1656 1.391 . S
C1658 C1659 1.400 . S
C1659 C1658 1.400 . S
C1659 C1660 1.398 . S
C1659 C1665 1.491 . S
C1660 H1651 0.950 . S
C1660 C1659 1.398 . S
C1660 C1661 1.391 . S
C1661 H1649 0.950 . S
C1661 C1657 1.393 . S
C1661 C1660 1.391 . S
C1662 H1652 0.950 . S
C1662 C1663 1.386 . S
C1662 C1664 1.391 . S
C1663 C1662 1.386 . S
C1663 C1667 1.393 . S
C1664 H1653 0.950 . S
C1664 C1662 1.391 . S
C1664 C1665 1.400 . S
C1665 C1659 1.491 . S
C1665 C1664 1.400 . S
C1665 C1666 1.398 . S
C1666 H1654 0.950 . S
C1666 C1665 1.398 . S
C1666 C1667 1.391 . S
C1667 H1655 0.950 . S
C1667 C1663 1.393 . S
C1667 C1666 1.391 . S
H1668 C1676 0.950 . S
H1669 C1681 0.950 . S
H1670 C1678 0.950 . S
H1671 C1680 0.950 . S
H1672 C1682 0.950 . S
H1673 C1684 0.950 . S
H1674 C1686 0.950 . S
H1675 C1687 0.950 . S
C1676 H1668 0.950 . S
C1676 C1677 1.386 . S
C1676 C1678 1.391 . S
C1677 C1676 1.386 . S
C1677 C1681 1.393 . S
C1678 H1670 0.950 . S
C1678 C1676 1.391 . S
C1678 C1679 1.400 . S
C1679 C1678 1.400 . S
C1679 C1680 1.398 . S
C1679 C1685 1.491 . S
C1680 H1671 0.950 . S
C1680 C1679 1.398 . S
C1680 C1681 1.391 . S
C1681 H1669 0.950 . S
C1681 C1677 1.393 . S
C1681 C1680 1.391 . S
C1682 H1672 0.950 . S
C1682 C1683 1.386 . S
C1682 C1684 1.391 . S
C1683 C1682 1.386 . S
C1683 C1687 1.393 . S
C1684 H1673 0.950 . S
C1684 C1682 1.391 . S
C1684 C1685 1.400 . S
C1685 C1679 1.491 . S
C1685 C1684 1.400 . S
C1685 C1686 1.398 . S
C1686 H1674 0.950 . S
C1686 C1685 1.398 . S
C1686 C1687 1.391 . S
C1687 H1675 0.950 . S
C1687 C1683 1.393 . S
C1687 C1686 1.391 . S
H1688 C1696 0.950 . S
H1689 C1701 0.950 . S
H1690 C1698 0.950 . S
H1691 C1700 0.950 . S
H1692 C1702 0.950 . S
H1693 C1704 0.950 . S
H1694 C1706 0.950 . S
H1695 C1707 0.950 . S
C1696 H1688 0.950 . S
C1696 C1697 1.386 . S
C1696 C1698 1.391 . S
C1697 C1696 1.386 . S
C1697 C1701 1.393 . S
C1698 H1690 0.950 . S
C1698 C1696 1.391 . S
C1698 C1699 1.400 . S
C1699 C1698 1.400 . S
C1699 C1700 1.398 . S
C1699 C1705 1.491 . S
C1700 H1691 0.950 . S
C1700 C1699 1.398 . S
C1700 C1701 1.391 . S
C1701 H1689 0.950 . S
C1701 C1697 1.393 . S
C1701 C1700 1.391 . S
C1702 H1692 0.950 . S
C1702 C1703 1.386 . S
C1702 C1704 1.391 . S
C1703 C1702 1.386 . S
C1703 C1707 1.393 . S
C1704 H1693 0.950 . S
C1704 C1702 1.391 . S
C1704 C1705 1.400 . S
C1705 C1699 1.491 . S
C1705 C1704 1.400 . S
C1705 C1706 1.398 . S
C1706 H1694 0.950 . S
C1706 C1705 1.398 . S
C1706 C1707 1.391 . S
C1707 H1695 0.950 . S
C1707 C1703 1.393 . S
C1707 C1706 1.391 . S
H1708 C1716 0.950 . S
H1709 C1721 0.950 . S
H1710 C1718 0.950 . S
H1711 C1720 0.950 . S
H1712 C1722 0.950 . S
H1713 C1724 0.950 . S
H1714 C1726 0.950 . S
H1715 C1727 0.950 . S
C1716 H1708 0.950 . S
C1716 C1717 1.386 . S
C1716 C1718 1.391 . S
C1717 C1716 1.386 . S
C1717 C1721 1.393 . S
C1718 H1710 0.950 . S
C1718 C1716 1.391 . S
C1718 C1719 1.400 . S
C1719 C1718 1.400 . S
C1719 C1720 1.398 . S
C1719 C1725 1.491 . S
C1720 H1711 0.950 . S
C1720 C1719 1.398 . S
C1720 C1721 1.391 . S
C1721 H1709 0.950 . S
C1721 C1717 1.393 . S
C1721 C1720 1.391 . S
C1722 H1712 0.950 . S
C1722 C1723 1.386 . S
C1722 C1724 1.391 . S
C1723 C1722 1.386 . S
C1723 C1727 1.393 . S
C1724 H1713 0.950 . S
C1724 C1722 1.391 . S
C1724 C1725 1.400 . S
C1725 C1719 1.491 . S
C1725 C1724 1.400 . S
C1725 C1726 1.398 . S
C1726 H1714 0.950 . S
C1726 C1725 1.398 . S
C1726 C1727 1.391 . S
C1727 H1715 0.950 . S
C1727 C1723 1.393 . S
C1727 C1726 1.391 . S
H1728 C1736 0.950 . S
H1729 C1741 0.950 . S
H1730 C1738 0.950 . S
H1731 C1740 0.950 . S
H1732 C1742 0.950 . S
H1733 C1744 0.950 . S
H1734 C1746 0.950 . S
H1735 C1747 0.950 . S
C1736 H1728 0.950 . S
C1736 C1737 1.386 . S
C1736 C1738 1.391 . S
C1737 C1736 1.386 . S
C1737 C1741 1.393 . S
C1738 H1730 0.950 . S
C1738 C1736 1.391 . S
C1738 C1739 1.400 . S
C1739 C1738 1.400 . S
C1739 C1740 1.398 . S
C1739 C1745 1.491 . S
C1740 H1731 0.950 . S
C1740 C1739 1.398 . S
C1740 C1741 1.391 . S
C1741 H1729 0.950 . S
C1741 C1737 1.393 . S
C1741 C1740 1.391 . S
C1742 H1732 0.950 . S
C1742 C1743 1.386 . S
C1742 C1744 1.391 . S
C1743 C1742 1.386 . S
C1743 C1747 1.393 . S
C1744 H1733 0.950 . S
C1744 C1742 1.391 . S
C1744 C1745 1.400 . S
C1745 C1739 1.491 . S
C1745 C1744 1.400 . S
C1745 C1746 1.398 . S
C1746 H1734 0.950 . S
C1746 C1745 1.398 . S
C1746 C1747 1.391 . S
C1747 H1735 0.950 . S
C1747 C1743 1.393 . S
C1747 C1746 1.391 . S
H1748 C1756 0.950 . S
H1749 C1761 0.950 . S
H1750 C1758 0.950 . S
H1751 C1760 0.950 . S
H1752 C1762 0.950 . S
H1753 C1764 0.950 . S
H1754 C1766 0.950 . S
H1755 C1767 0.950 . S
C1756 H1748 0.950 . S
C1756 C1757 1.386 . S
C1756 C1758 1.391 . S
C1757 C1756 1.386 . S
C1757 C1761 1.393 . S
C1758 H1750 0.950 . S
C1758 C1756 1.391 . S
C1758 C1759 1.400 . S
C1759 C1758 1.400 . S
C1759 C1760 1.398 . S
C1759 C1765 1.491 . S
C1760 H1751 0.950 . S
C1760 C1759 1.398 . S
C1760 C1761 1.391 . S
C1761 H1749 0.950 . S
C1761 C1757 1.393 . S
C1761 C1760 1.391 . S
C1762 H1752 0.950 . S
C1762 C1763 1.386 . S
C1762 C1764 1.391 . S
C1763 C1762 1.386 . S
C1763 C1767 1.393 . S
C1764 H1753 0.950 . S
C1764 C1762 1.391 . S
C1764 C1765 1.400 . S
C1765 C1759 1.491 . S
C1765 C1764 1.400 . S
C1765 C1766 1.398 . S
C1766 H1754 0.950 . S
C1766 C1765 1.398 . S
C1766 C1767 1.391 . S
C1767 H1755 0.950 . S
C1767 C1763 1.393 . S
C1767 C1766 1.391 . S
H1768 C1776 0.950 . S
H1769 C1781 0.950 . S
H1770 C1778 0.950 . S
H1771 C1780 0.950 . S
H1772 C1782 0.950 . S
H1773 C1784 0.950 . S
H1774 C1786 0.950 . S
H1775 C1787 0.950 . S
C1776 H1768 0.950 . S
C1776 C1777 1.386 . S
C1776 C1778 1.391 . S
C1777 C1776 1.386 . S
C1777 C1781 1.393 . S
C1778 H1770 0.950 . S
C1778 C1776 1.391 . S
C1778 C1779 1.400 . S
C1779 C1778 1.400 . S
C1779 C1780 1.398 . S
C1779 C1785 1.491 . S
C1780 H1771 0.950 . S
C1780 C1779 1.398 . S
C1780 C1781 1.391 . S
C1781 H1769 0.950 . S
C1781 C1777 1.393 . S
C1781 C1780 1.391 . S
C1782 H1772 0.950 . S
C1782 C1783 1.386 . S
C1782 C1784 1.391 . S
C1783 C1782 1.386 . S
C1783 C1787 1.393 . S
C1784 H1773 0.950 . S
C1784 C1782 1.391 . S
C1784 C1785 1.400 . S
C1785 C1779 1.491 . S
C1785 C1784 1.400 . S
C1785 C1786 1.398 . S
C1786 H1774 0.950 . S
C1786 C1785 1.398 . S
C1786 C1787 1.391 . S
C1787 H1775 0.950 . S
C1787 C1783 1.393 . S
C1787 C1786 1.391 . S
H1788 C1796 0.950 . S
H1789 C1801 0.950 . S
H1790 C1798 0.950 . S
H1791 C1800 0.950 . S
H1792 C1802 0.950 . S
H1793 C1804 0.950 . S
H1794 C1806 0.950 . S
H1795 C1807 0.950 . S
C1796 H1788 0.950 . S
C1796 C1797 1.386 . S
C1796 C1798 1.391 . S
C1797 C1796 1.386 . S
C1797 C1801 1.393 . S
C1798 H1790 0.950 . S
C1798 C1796 1.391 . S
C1798 C1799 1.400 . S
C1799 C1798 1.400 . S
C1799 C1800 1.398 . S
C1799 C1805 1.491 . S
C1800 H1791 0.950 . S
C1800 C1799 1.398 . S
C1800 C1801 1.391 . S
C1801 H1789 0.950 . S
C1801 C1797 1.393 . S
C1801 C1800 1.391 . S
C1802 H1792 0.950 . S
C1802 C1803 1.386 . S
C1802 C1804 1.391 . S
C1803 C1802 1.386 . S
C1803 C1807 1.393 . S
C1804 H1793 0.950 . S
C1804 C1802 1.391 . S
C1804 C1805 1.400 . S
C1805 C1799 1.491 . S
C1805 C1804 1.400 . S
C1805 C1806 1.398 . S
C1806 H1794 0.950 . S
C1806 C1805 1.398 . S
C1806 C1807 1.391 . S
C1807 H1795 0.950 . S
C1807 C1803 1.393 . S
C1807 C1806 1.391 . S
H1808 C1816 0.950 . S
H1809 C1821 0.950 . S
H1810 C1818 0.950 . S
H1811 C1820 0.950 . S
H1812 C1822 0.950 . S
H1813 C1824 0.950 . S
H1814 C1826 0.950 . S
H1815 C1827 0.950 . S
C1816 H1808 0.950 . S
C1816 C1817 1.386 . S
C1816 C1818 1.391 . S
C1817 C1816 1.386 . S
C1817 C1821 1.393 . S
C1818 H1810 0.950 . S
C1818 C1816 1.391 . S
C1818 C1819 1.400 . S
C1819 C1818 1.400 . S
C1819 C1820 1.398 . S
C1819 C1825 1.491 . S
C1820 H1811 0.950 . S
C1820 C1819 1.398 . S
C1820 C1821 1.391 . S
C1821 H1809 0.950 . S
C1821 C1817 1.393 . S
C1821 C1820 1.391 . S
C1822 H1812 0.950 . S
C1822 C1823 1.386 . S
C1822 C1824 1.391 . S
C1823 C1822 1.386 . S
C1823 C1827 1.393 . S
C1824 H1813 0.950 . S
C1824 C1822 1.391 . S
C1824 C1825 1.400 . S
C1825 C1819 1.491 . S
C1825 C1824 1.400 . S
C1825 C1826 1.398 . S
C1826 H1814 0.950 . S
C1826 C1825 1.398 . S
C1826 C1827 1.391 . S
C1827 H1815 0.950 . S
C1827 C1823 1.393 . S
C1827 C1826 1.391 . S
H1828 C1836 0.950 . S
H1829 C1841 0.950 . S
H1830 C1838 0.950 . S
H1831 C1840 0.950 . S
H1832 C1842 0.950 . S
H1833 C1844 0.950 . S
H1834 C1846 0.950 . S
H1835 C1847 0.950 . S
C1836 H1828 0.950 . S
C1836 C1837 1.386 . S
C1836 C1838 1.391 . S
C1837 C1836 1.386 . S
C1837 C1841 1.393 . S
C1838 H1830 0.950 . S
C1838 C1836 1.391 . S
C1838 C1839 1.400 . S
C1839 C1838 1.400 . S
C1839 C1840 1.398 . S
C1839 C1845 1.491 . S
C1840 H1831 0.950 . S
C1840 C1839 1.398 . S
C1840 C1841 1.391 . S
C1841 H1829 0.950 . S
C1841 C1837 1.393 . S
C1841 C1840 1.391 . S
C1842 H1832 0.950 . S
C1842 C1843 1.386 . S
C1842 C1844 1.391 . S
C1843 C1842 1.386 . S
C1843 C1847 1.393 . S
C1844 H1833 0.950 . S
C1844 C1842 1.391 . S
C1844 C1845 1.400 . S
C1845 C1839 1.491 . S
C1845 C1844 1.400 . S
C1845 C1846 1.398 . S
C1846 H1834 0.950 . S
C1846 C1845 1.398 . S
C1846 C1847 1.391 . S
C1847 H1835 0.950 . S
C1847 C1843 1.393 . S
C1847 C1846 1.391 . S
H1848 C1856 0.950 . S
H1849 C1861 0.950 . S
H1850 C1858 0.950 . S
H1851 C1860 0.950 . S
H1852 C1862 0.950 . S
H1853 C1864 0.950 . S
H1854 C1866 0.950 . S
H1855 C1867 0.950 . S
C1856 H1848 0.950 . S
C1856 C1857 1.386 . S
C1856 C1858 1.391 . S
C1857 C1856 1.386 . S
C1857 C1861 1.393 . S
C1858 H1850 0.950 . S
C1858 C1856 1.391 . S
C1858 C1859 1.400 . S
C1859 C1858 1.400 . S
C1859 C1860 1.398 . S
C1859 C1865 1.491 . S
C1860 H1851 0.950 . S
C1860 C1859 1.398 . S
C1860 C1861 1.391 . S
C1861 H1849 0.950 . S
C1861 C1857 1.393 . S
C1861 C1860 1.391 . S
C1862 H1852 0.950 . S
C1862 C1863 1.386 . S
C1862 C1864 1.391 . S
C1863 C1862 1.386 . S
C1863 C1867 1.393 . S
C1864 H1853 0.950 . S
C1864 C1862 1.391 . S
C1864 C1865 1.400 . S
C1865 C1859 1.491 . S
C1865 C1864 1.400 . S
C1865 C1866 1.398 . S
C1866 H1854 0.950 . S
C1866 C1865 1.398 . S
C1866 C1867 1.391 . S
C1867 H1855 0.950 . S
C1867 C1863 1.393 . S
C1867 C1866 1.391 . S
H1868 C1876 0.950 . S
H1869 C1881 0.950 . S
H1870 C1878 0.950 . S
H1871 C1880 0.950 . S
H1872 C1882 0.950 . S
H1873 C1884 0.950 . S
H1874 C1886 0.950 . S
H1875 C1887 0.950 . S
C1876 H1868 0.950 . S
C1876 C1877 1.386 . S
C1876 C1878 1.391 . S
C1877 C1876 1.386 . S
C1877 C1881 1.393 . S
C1878 H1870 0.950 . S
C1878 C1876 1.391 . S
C1878 C1879 1.400 . S
C1879 C1878 1.400 . S
C1879 C1880 1.398 . S
C1879 C1885 1.491 . S
C1880 H1871 0.950 . S
C1880 C1879 1.398 . S
C1880 C1881 1.391 . S
C1881 H1869 0.950 . S
C1881 C1877 1.393 . S
C1881 C1880 1.391 . S
C1882 H1872 0.950 . S
C1882 C1883 1.386 . S
C1882 C1884 1.391 . S
C1883 C1882 1.386 . S
C1883 C1887 1.393 . S
C1884 H1873 0.950 . S
C1884 C1882 1.391 . S
C1884 C1885 1.400 . S
C1885 C1879 1.491 . S
C1885 C1884 1.400 . S
C1885 C1886 1.398 . S
C1886 H1874 0.950 . S
C1886 C1885 1.398 . S
C1886 C1887 1.391 . S
C1887 H1875 0.950 . S
C1887 C1883 1.393 . S
C1887 C1886 1.391 . S
H1888 C1896 0.950 . S
H1889 C1901 0.950 . S
H1890 C1898 0.950 . S
H1891 C1900 0.950 . S
H1892 C1902 0.950 . S
H1893 C1904 0.950 . S
H1894 C1906 0.950 . S
H1895 C1907 0.950 . S
C1896 H1888 0.950 . S
C1896 C1897 1.386 . S
C1896 C1898 1.391 . S
C1897 C1896 1.386 . S
C1897 C1901 1.393 . S
C1898 H1890 0.950 . S
C1898 C1896 1.391 . S
C1898 C1899 1.400 . S
C1899 C1898 1.400 . S
C1899 C1900 1.398 . S
C1899 C1905 1.491 . S
C1900 H1891 0.950 . S
C1900 C1899 1.398 . S
C1900 C1901 1.391 . S
C1901 H1889 0.950 . S
C1901 C1897 1.393 . S
C1901 C1900 1.391 . S
C1902 H1892 0.950 . S
C1902 C1903 1.386 . S
C1902 C1904 1.391 . S
C1903 C1902 1.386 . S
C1903 C1907 1.393 . S
C1904 H1893 0.950 . S
C1904 C1902 1.391 . S
C1904 C1905 1.400 . S
C1905 C1899 1.491 . S
C1905 C1904 1.400 . S
C1905 C1906 1.398 . S
C1906 H1894 0.950 . S
C1906 C1905 1.398 . S
C1906 C1907 1.391 . S
C1907 H1895 0.950 . S
C1907 C1903 1.393 . S
C1907 C1906 1.391 . S
H1908 C1916 0.950 . S
H1909 C1921 0.950 . S
H1910 C1918 0.950 . S
H1911 C1920 0.950 . S
H1912 C1922 0.950 . S
H1913 C1924 0.950 . S
H1914 C1926 0.950 . S
H1915 C1927 0.950 . S
C1916 H1908 0.950 . S
C1916 C1917 1.386 . S
C1916 C1918 1.391 . S
C1917 C1916 1.386 . S
C1917 C1921 1.393 . S
C1918 H1910 0.950 . S
C1918 C1916 1.391 . S
C1918 C1919 1.400 . S
C1919 C1918 1.400 . S
C1919 C1920 1.398 . S
C1919 C1925 1.491 . S
C1920 H1911 0.950 . S
C1920 C1919 1.398 . S
C1920 C1921 1.391 . S
C1921 H1909 0.950 . S
C1921 C1917 1.393 . S
C1921 C1920 1.391 . S
C1922 H1912 0.950 . S
C1922 C1923 1.386 . S
C1922 C1924 1.391 . S
C1923 C1922 1.386 . S
C1923 C1927 1.393 . S
C1924 H1913 0.950 . S
C1924 C1922 1.391 . S
C1924 C1925 1.400 . S
C1925 C1919 1.491 . S
C1925 C1924 1.400 . S
C1925 C1926 1.398 . S
C1926 H1914 0.950 . S
C1926 C1925 1.398 . S
C1926 C1927 1.391 . S
C1927 H1915 0.950 . S
C1927 C1923 1.393 . S
C1927 C1926 1.391 . S
H1928 C1936 0.950 . S
H1929 C1941 0.950 . S
H1930 C1938 0.950 . S
H1931 C1940 0.950 . S
H1932 C1942 0.950 . S
H1933 C1944 0.950 . S
H1934 C1946 0.950 . S
H1935 C1947 0.950 . S
C1936 H1928 0.950 . S
C1936 C1937 1.386 . S
C1936 C1938 1.391 . S
C1937 C1936 1.386 . S
C1937 C1941 1.393 . S
C1938 H1930 0.950 . S
C1938 C1936 1.391 . S
C1938 C1939 1.400 . S
C1939 C1938 1.400 . S
C1939 C1940 1.398 . S
C1939 C1945 1.491 . S
C1940 H1931 0.950 . S
C1940 C1939 1.398 . S
C1940 C1941 1.391 . S
C1941 H1929 0.950 . S
C1941 C1937 1.393 . S
C1941 C1940 1.391 . S
C1942 H1932 0.950 . S
C1942 C1943 1.386 . S
C1942 C1944 1.391 . S
C1943 C1942 1.386 . S
C1943 C1947 1.393 . S
C1944 H1933 0.950 . S
C1944 C1942 1.391 . S
C1944 C1945 1.400 . S
C1945 C1939 1.491 . S
C1945 C1944 1.400 . S
C1945 C1946 1.398 . S
C1946 H1934 0.950 . S
C1946 C1945 1.398 . S
C1946 C1947 1.391 . S
C1947 H1935 0.950 . S
C1947 C1943 1.393 . S
C1947 C1946 1.391 . S
H1948 C1956 0.950 . S
H1949 C1961 0.950 . S
H1950 C1958 0.950 . S
H1951 C1960 0.950 . S
H1952 C1962 0.950 . S
H1953 C1964 0.950 . S
H1954 C1966 0.950 . S
H1955 C1967 0.950 . S
C1956 H1948 0.950 . S
C1956 C1957 1.386 . S
C1956 C1958 1.391 . S
C1957 C1956 1.386 . S
C1957 C1961 1.393 . S
C1958 H1950 0.950 . S
C1958 C1956 1.391 . S
C1958 C1959 1.400 . S
C1959 C1958 1.400 . S
C1959 C1960 1.398 . S
C1959 C1965 1.491 . S
C1960 H1951 0.950 . S
C1960 C1959 1.398 . S
C1960 C1961 1.391 . S
C1961 H1949 0.950 . S
C1961 C1957 1.393 . S
C1961 C1960 1.391 . S
C1962 H1952 0.950 . S
C1962 C1963 1.386 . S
C1962 C1964 1.391 . S
C1963 C1962 1.386 . S
C1963 C1967 1.393 . S
C1964 H1953 0.950 . S
C1964 C1962 1.391 . S
C1964 C1965 1.400 . S
C1965 C1959 1.491 . S
C1965 C1964 1.400 . S
C1965 C1966 1.398 . S
C1966 H1954 0.950 . S
C1966 C1965 1.398 . S
C1966 C1967 1.391 . S
C1967 H1955 0.950 . S
C1967 C1963 1.393 . S
C1967 C1966 1.391 . S
H1968 C1976 0.950 . S
H1969 C1981 0.950 . S
H1970 C1978 0.950 . S
H1971 C1980 0.950 . S
H1972 C1982 0.950 . S
H1973 C1984 0.950 . S
H1974 C1986 0.950 . S
H1975 C1987 0.950 . S
C1976 H1968 0.950 . S
C1976 C1977 1.386 . S
C1976 C1978 1.391 . S
C1977 C1976 1.386 . S
C1977 C1981 1.393 . S
C1978 H1970 0.950 . S
C1978 C1976 1.391 . S
C1978 C1979 1.400 . S
C1979 C1978 1.400 . S
C1979 C1980 1.398 . S
C1979 C1985 1.491 . S
C1980 H1971 0.950 . S
C1980 C1979 1.398 . S
C1980 C1981 1.391 . S
C1981 H1969 0.950 . S
C1981 C1977 1.393 . S
C1981 C1980 1.391 . S
C1982 H1972 0.950 . S
C1982 C1983 1.386 . S
C1982 C1984 1.391 . S
C1983 C1982 1.386 . S
C1983 C1987 1.393 . S
C1984 H1973 0.950 . S
C1984 C1982 1.391 . S
C1984 C1985 1.400 . S
C1985 C1979 1.491 . S
C1985 C1984 1.400 . S
C1985 C1986 1.398 . S
C1986 H1974 0.950 . S
C1986 C1985 1.398 . S
C1986 C1987 1.391 . S
C1987 H1975 0.950 . S
C1987 C1983 1.393 . S
C1987 C1986 1.391 . S
H1988 C1996 0.950 . S
H1989 C2001 0.950 . S
H1990 C1998 0.950 . S
H1991 C2000 0.950 . S
H1992 C2002 0.950 . S
H1993 C2004 0.950 . S
H1994 C2006 0.950 . S
H1995 C2007 0.950 . S
C1996 H1988 0.950 . S
C1996 C1997 1.386 . S
C1996 C1998 1.391 . S
C1997 C1996 1.386 . S
C1997 C2001 1.393 . S
C1998 H1990 0.950 . S
C1998 C1996 1.391 . S
C1998 C1999 1.400 . S
C1999 C1998 1.400 . S
C1999 C2000 1.398 . S
C1999 C2005 1.491 . S
C2000 H1991 0.950 . S
C2000 C1999 1.398 . S
C2000 C2001 1.391 . S
C2001 H1989 0.950 . S
C2001 C1997 1.393 . S
C2001 C2000 1.391 . S
C2002 H1992 0.950 . S
C2002 C2003 1.386 . S
C2002 C2004 1.391 . S
C2003 C2002 1.386 . S
C2003 C2007 1.393 . S
C2004 H1993 0.950 . S
C2004 C2002 1.391 . S
C2004 C2005 1.400 . S
C2005 C1999 1.491 . S
C2005 C2004 1.400 . S
C2005 C2006 1.398 . S
C2006 H1994 0.950 . S
C2006 C2005 1.398 . S
C2006 C2007 1.391 . S
C2007 H1995 0.950 . S
C2007 C2003 1.393 . S
C2007 C2006 1.391 . S
H2008 C2016 0.950 . S
H2009 C2021 0.950 . S
H2010 C2018 0.950 . S
H2011 C2020 0.950 . S
H2012 C2022 0.950 . S
H2013 C2024 0.950 . S
H2014 C2026 0.950 . S
H2015 C2027 0.950 . S
C2016 H2008 0.950 . S
C2016 C2017 1.386 . S
C2016 C2018 1.391 . S
C2017 C2016 1.386 . S
C2017 C2021 1.393 . S
C2018 H2010 0.950 . S
C2018 C2016 1.391 . S
C2018 C2019 1.400 . S
C2019 C2018 1.400 . S
C2019 C2020 1.398 . S
C2019 C2025 1.491 . S
C2020 H2011 0.950 . S
C2020 C2019 1.398 . S
C2020 C2021 1.391 . S
C2021 H2009 0.950 . S
C2021 C2017 1.393 . S
C2021 C2020 1.391 . S
C2022 H2012 0.950 . S
C2022 C2023 1.386 . S
C2022 C2024 1.391 . S
C2023 C2022 1.386 . S
C2023 C2027 1.393 . S
C2024 H2013 0.950 . S
C2024 C2022 1.391 . S
C2024 C2025 1.400 . S
C2025 C2019 1.491 . S
C2025 C2024 1.400 . S
C2025 C2026 1.398 . S
C2026 H2014 0.950 . S
C2026 C2025 1.398 . S
C2026 C2027 1.391 . S
C2027 H2015 0.950 . S
C2027 C2023 1.393 . S
C2027 C2026 1.391 . S
H2028 C2036 0.950 . S
H2029 C2041 0.950 . S
H2030 C2038 0.950 . S
H2031 C2040 0.950 . S
H2032 C2042 0.950 . S
H2033 C2044 0.950 . S
H2034 C2046 0.950 . S
H2035 C2047 0.950 . S
C2036 H2028 0.950 . S
C2036 C2037 1.386 . S
C2036 C2038 1.391 . S
C2037 C2036 1.386 . S
C2037 C2041 1.393 . S
C2038 H2030 0.950 . S
C2038 C2036 1.391 . S
C2038 C2039 1.400 . S
C2039 C2038 1.400 . S
C2039 C2040 1.398 . S
C2039 C2045 1.491 . S
C2040 H2031 0.950 . S
C2040 C2039 1.398 . S
C2040 C2041 1.391 . S
C2041 H2029 0.950 . S
C2041 C2037 1.393 . S
C2041 C2040 1.391 . S
C2042 H2032 0.950 . S
C2042 C2043 1.386 . S
C2042 C2044 1.391 . S
C2043 C2042 1.386 . S
C2043 C2047 1.393 . S
C2044 H2033 0.950 . S
C2044 C2042 1.391 . S
C2044 C2045 1.400 . S
C2045 C2039 1.491 . S
C2045 C2044 1.400 . S
C2045 C2046 1.398 . S
C2046 H2034 0.950 . S
C2046 C2045 1.398 . S
C2046 C2047 1.391 . S
C2047 H2035 0.950 . S
C2047 C2043 1.393 . S
C2047 C2046 1.391 . S
H2048 C2056 0.950 . S
H2049 C2061 0.950 . S
H2050 C2058 0.950 . S
H2051 C2060 0.950 . S
H2052 C2062 0.950 . S
H2053 C2064 0.950 . S
H2054 C2066 0.950 . S
H2055 C2067 0.950 . S
C2056 H2048 0.950 . S
C2056 C2057 1.386 . S
C2056 C2058 1.391 . S
C2057 C2056 1.386 . S
C2057 C2061 1.393 . S
C2058 H2050 0.950 . S
C2058 C2056 1.391 . S
C2058 C2059 1.400 . S
C2059 C2058 1.400 . S
C2059 C2060 1.398 . S
C2059 C2065 1.491 . S
C2060 H2051 0.950 . S
C2060 C2059 1.398 . S
C2060 C2061 1.391 . S
C2061 H2049 0.950 . S
C2061 C2057 1.393 . S
C2061 C2060 1.391 . S
C2062 H2052 0.950 . S
C2062 C2063 1.386 . S
C2062 C2064 1.391 . S
C2063 C2062 1.386 . S
C2063 C2067 1.393 . S
C2064 H2053 0.950 . S
C2064 C2062 1.391 . S
C2064 C2065 1.400 . S
C2065 C2059 1.491 . S
C2065 C2064 1.400 . S
C2065 C2066 1.398 . S
C2066 H2054 0.950 . S
C2066 C2065 1.398 . S
C2066 C2067 1.391 . S
C2067 H2055 0.950 . S
C2067 C2063 1.393 . S
C2067 C2066 1.391 . S
H2068 C2076 0.950 . S
H2069 C2081 0.950 . S
H2070 C2078 0.950 . S
H2071 C2080 0.950 . S
H2072 C2082 0.950 . S
H2073 C2084 0.950 . S
H2074 C2086 0.950 . S
H2075 C2087 0.950 . S
C2076 H2068 0.950 . S
C2076 C2077 1.386 . S
C2076 C2078 1.391 . S
C2077 C2076 1.386 . S
C2077 C2081 1.393 . S
C2078 H2070 0.950 . S
C2078 C2076 1.391 . S
C2078 C2079 1.400 . S
C2079 C2078 1.400 . S
C2079 C2080 1.398 . S
C2079 C2085 1.491 . S
C2080 H2071 0.950 . S
C2080 C2079 1.398 . S
C2080 C2081 1.391 . S
C2081 H2069 0.950 . S
C2081 C2077 1.393 . S
C2081 C2080 1.391 . S
C2082 H2072 0.950 . S
C2082 C2083 1.386 . S
C2082 C2084 1.391 . S
C2083 C2082 1.386 . S
C2083 C2087 1.393 . S
C2084 H2073 0.950 . S
C2084 C2082 1.391 . S
C2084 C2085 1.400 . S
C2085 C2079 1.491 . S
C2085 C2084 1.400 . S
C2085 C2086 1.398 . S
C2086 H2074 0.950 . S
C2086 C2085 1.398 . S
C2086 C2087 1.391 . S
C2087 H2075 0.950 . S
C2087 C2083 1.393 . S
C2087 C2086 1.391 . S
H2088 C2096 0.950 . S
H2089 C2101 0.950 . S
H2090 C2098 0.950 . S
H2091 C2100 0.950 . S
H2092 C2102 0.950 . S
H2093 C2104 0.950 . S
H2094 C2106 0.950 . S
H2095 C2107 0.950 . S
C2096 H2088 0.950 . S
C2096 C2097 1.386 . S
C2096 C2098 1.391 . S
C2097 C2096 1.386 . S
C2097 C2101 1.393 . S
C2098 H2090 0.950 . S
C2098 C2096 1.391 . S
C2098 C2099 1.400 . S
C2099 C2098 1.400 . S
C2099 C2100 1.398 . S
C2099 C2105 1.491 . S
C2100 H2091 0.950 . S
C2100 C2099 1.398 . S
C2100 C2101 1.391 . S
C2101 H2089 0.950 . S
C2101 C2097 1.393 . S
C2101 C2100 1.391 . S
C2102 H2092 0.950 . S
C2102 C2103 1.386 . S
C2102 C2104 1.391 . S
C2103 C2102 1.386 . S
C2103 C2107 1.393 . S
C2104 H2093 0.950 . S
C2104 C2102 1.391 . S
C2104 C2105 1.400 . S
C2105 C2099 1.491 . S
C2105 C2104 1.400 . S
C2105 C2106 1.398 . S
C2106 H2094 0.950 . S
C2106 C2105 1.398 . S
C2106 C2107 1.391 . S
C2107 H2095 0.950 . S
C2107 C2103 1.393 . S
C2107 C2106 1.391 . S
H2108 C2116 0.950 . S
H2109 C2121 0.950 . S
H2110 C2118 0.950 . S
H2111 C2120 0.950 . S
H2112 C2122 0.950 . S
H2113 C2124 0.950 . S
H2114 C2126 0.950 . S
H2115 C2127 0.950 . S
C2116 H2108 0.950 . S
C2116 C2117 1.386 . S
C2116 C2118 1.391 . S
C2117 C2116 1.386 . S
C2117 C2121 1.393 . S
C2118 H2110 0.950 . S
C2118 C2116 1.391 . S
C2118 C2119 1.400 . S
C2119 C2118 1.400 . S
C2119 C2120 1.398 . S
C2119 C2125 1.491 . S
C2120 H2111 0.950 . S
C2120 C2119 1.398 . S
C2120 C2121 1.391 . S
C2121 H2109 0.950 . S
C2121 C2117 1.393 . S
C2121 C2120 1.391 . S
C2122 H2112 0.950 . S
C2122 C2123 1.386 . S
C2122 C2124 1.391 . S
C2123 C2122 1.386 . S
C2123 C2127 1.393 . S
C2124 H2113 0.950 . S
C2124 C2122 1.391 . S
C2124 C2125 1.400 . S
C2125 C2119 1.491 . S
C2125 C2124 1.400 . S
C2125 C2126 1.398 . S
C2126 H2114 0.950 . S
C2126 C2125 1.398 . S
C2126 C2127 1.391 . S
C2127 H2115 0.950 . S
C2127 C2123 1.393 . S
C2127 C2126 1.391 . S
H2128 C2136 0.950 . S
H2129 C2141 0.950 . S
H2130 C2138 0.950 . S
H2131 C2140 0.950 . S
H2132 C2142 0.950 . S
H2133 C2144 0.950 . S
H2134 C2146 0.950 . S
H2135 C2147 0.950 . S
C2136 H2128 0.950 . S
C2136 C2137 1.386 . S
C2136 C2138 1.391 . S
C2137 C2136 1.386 . S
C2137 C2141 1.393 . S
C2138 H2130 0.950 . S
C2138 C2136 1.391 . S
C2138 C2139 1.400 . S
C2139 C2138 1.400 . S
C2139 C2140 1.398 . S
C2139 C2145 1.491 . S
C2140 H2131 0.950 . S
C2140 C2139 1.398 . S
C2140 C2141 1.391 . S
C2141 H2129 0.950 . S
C2141 C2137 1.393 . S
C2141 C2140 1.391 . S
C2142 H2132 0.950 . S
C2142 C2143 1.386 . S
C2142 C2144 1.391 . S
C2143 C2142 1.386 . S
C2143 C2147 1.393 . S
C2144 H2133 0.950 . S
C2144 C2142 1.391 . S
C2144 C2145 1.400 . S
C2145 C2139 1.491 . S
C2145 C2144 1.400 . S
C2145 C2146 1.398 . S
C2146 H2134 0.950 . S
C2146 C2145 1.398 . S
C2146 C2147 1.391 . S
C2147 H2135 0.950 . S
C2147 C2143 1.393 . S
C2147 C2146 1.391 . S
H2148 C2156 0.950 . S
H2149 C2161 0.950 . S
H2150 C2158 0.950 . S
H2151 C2160 0.950 . S
H2152 C2162 0.950 . S
H2153 C2164 0.950 . S
H2154 C2166 0.950 . S
H2155 C2167 0.950 . S
C2156 H2148 0.950 . S
C2156 C2157 1.386 . S
C2156 C2158 1.391 . S
C2157 C2156 1.386 . S
C2157 C2161 1.393 . S
C2158 H2150 0.950 . S
C2158 C2156 1.391 . S
C2158 C2159 1.400 . S
C2159 C2158 1.400 . S
C2159 C2160 1.398 . S
C2159 C2165 1.491 . S
C2160 H2151 0.950 . S
C2160 C2159 1.398 . S
C2160 C2161 1.391 . S
C2161 H2149 0.950 . S
C2161 C2157 1.393 . S
C2161 C2160 1.391 . S
C2162 H2152 0.950 . S
C2162 C2163 1.386 . S
C2162 C2164 1.391 . S
C2163 C2162 1.386 . S
C2163 C2167 1.393 . S
C2164 H2153 0.950 . S
C2164 C2162 1.391 . S
C2164 C2165 1.400 . S
C2165 C2159 1.491 . S
C2165 C2164 1.400 . S
C2165 C2166 1.398 . S
C2166 H2154 0.950 . S
C2166 C2165 1.398 . S
C2166 C2167 1.391 . S
C2167 H2155 0.950 . S
C2167 C2163 1.393 . S
C2167 C2166 1.391 . S
H2168 C2176 0.950 . S
H2169 C2181 0.950 . S
H2170 C2178 0.950 . S
H2171 C2180 0.950 . S
H2172 C2182 0.950 . S
H2173 C2184 0.950 . S
H2174 C2186 0.950 . S
H2175 C2187 0.950 . S
C2176 H2168 0.950 . S
C2176 C2177 1.386 . S
C2176 C2178 1.391 . S
C2177 C2176 1.386 . S
C2177 C2181 1.393 . S
C2178 H2170 0.950 . S
C2178 C2176 1.391 . S
C2178 C2179 1.400 . S
C2179 C2178 1.400 . S
C2179 C2180 1.398 . S
C2179 C2185 1.491 . S
C2180 H2171 0.950 . S
C2180 C2179 1.398 . S
C2180 C2181 1.391 . S
C2181 H2169 0.950 . S
C2181 C2177 1.393 . S
C2181 C2180 1.391 . S
C2182 H2172 0.950 . S
C2182 C2183 1.386 . S
C2182 C2184 1.391 . S
C2183 C2182 1.386 . S
C2183 C2187 1.393 . S
C2184 H2173 0.950 . S
C2184 C2182 1.391 . S
C2184 C2185 1.400 . S
C2185 C2179 1.491 . S
C2185 C2184 1.400 . S
C2185 C2186 1.398 . S
C2186 H2174 0.950 . S
C2186 C2185 1.398 . S
C2186 C2187 1.391 . S
C2187 H2175 0.950 . S
C2187 C2183 1.393 . S
C2187 C2186 1.391 . S
H2188 C2196 0.950 . S
H2189 C2201 0.950 . S
H2190 C2198 0.950 . S
H2191 C2200 0.950 . S
H2192 C2202 0.950 . S
H2193 C2204 0.950 . S
H2194 C2206 0.950 . S
H2195 C2207 0.950 . S
C2196 H2188 0.950 . S
C2196 C2197 1.386 . S
C2196 C2198 1.391 . S
C2197 C2196 1.386 . S
C2197 C2201 1.393 . S
C2198 H2190 0.950 . S
C2198 C2196 1.391 . S
C2198 C2199 1.400 . S
C2199 C2198 1.400 . S
C2199 C2200 1.398 . S
C2199 C2205 1.491 . S
C2200 H2191 0.950 . S
C2200 C2199 1.398 . S
C2200 C2201 1.391 . S
C2201 H2189 0.950 . S
C2201 C2197 1.393 . S
C2201 C2200 1.391 . S
C2202 H2192 0.950 . S
C2202 C2203 1.386 . S
C2202 C2204 1.391 . S
C2203 C2202 1.386 . S
C2203 C2207 1.393 . S
C2204 H2193 0.950 . S
C2204 C2202 1.391 . S
C2204 C2205 1.400 . S
C2205 C2199 1.491 . S
C2205 C2204 1.400 . S
C2205 C2206 1.398 . S
C2206 H2194 0.950 . S
C2206 C2205 1.398 . S
C2206 C2207 1.391 . S
C2207 H2195 0.950 . S
C2207 C2203 1.393 . S
C2207 C2206 1.391 . S
H2208 C2216 0.950 . S
H2209 C2221 0.950 . S
H2210 C2218 0.950 . S
H2211 C2220 0.950 . S
H2212 C2222 0.950 . S
H2213 C2224 0.950 . S
H2214 C2226 0.950 . S
H2215 C2227 0.950 . S
C2216 H2208 0.950 . S
C2216 C2217 1.386 . S
C2216 C2218 1.391 . S
C2217 C2216 1.386 . S
C2217 C2221 1.393 . S
C2218 H2210 0.950 . S
C2218 C2216 1.391 . S
C2218 C2219 1.400 . S
C2219 C2218 1.400 . S
C2219 C2220 1.398 . S
C2219 C2225 1.491 . S
C2220 H2211 0.950 . S
C2220 C2219 1.398 . S
C2220 C2221 1.391 . S
C2221 H2209 0.950 . S
C2221 C2217 1.393 . S
C2221 C2220 1.391 . S
C2222 H2212 0.950 . S
C2222 C2223 1.386 . S
C2222 C2224 1.391 . S
C2223 C2222 1.386 . S
C2223 C2227 1.393 . S
C2224 H2213 0.950 . S
C2224 C2222 1.391 . S
C2224 C2225 1.400 . S
C2225 C2219 1.491 . S
C2225 C2224 1.400 . S
C2225 C2226 1.398 . S
C2226 H2214 0.950 . S
C2226 C2225 1.398 . S
C2226 C2227 1.391 . S
C2227 H2215 0.950 . S
C2227 C2223 1.393 . S
C2227 C2226 1.391 . S
H2228 C2236 0.950 . S
H2229 C2241 0.950 . S
H2230 C2238 0.950 . S
H2231 C2240 0.950 . S
H2232 C2242 0.950 . S
H2233 C2244 0.950 . S
H2234 C2246 0.950 . S
H2235 C2247 0.950 . S
C2236 H2228 0.950 . S
C2236 C2237 1.386 . S
C2236 C2238 1.391 . S
C2237 C2236 1.386 . S
C2237 C2241 1.393 . S
C2238 H2230 0.950 . S
C2238 C2236 1.391 . S
C2238 C2239 1.400 . S
C2239 C2238 1.400 . S
C2239 C2240 1.398 . S
C2239 C2245 1.491 . S
C2240 H2231 0.950 . S
C2240 C2239 1.398 . S
C2240 C2241 1.391 . S
C2241 H2229 0.950 . S
C2241 C2237 1.393 . S
C2241 C2240 1.391 . S
C2242 H2232 0.950 . S
C2242 C2243 1.386 . S
C2242 C2244 1.391 . S
C2243 C2242 1.386 . S
C2243 C2247 1.393 . S
C2244 H2233 0.950 . S
C2244 C2242 1.391 . S
C2244 C2245 1.400 . S
C2245 C2239 1.491 . S
C2245 C2244 1.400 . S
C2245 C2246 1.398 . S
C2246 H2234 0.950 . S
C2246 C2245 1.398 . S
C2246 C2247 1.391 . S
C2247 H2235 0.950 . S
C2247 C2243 1.393 . S
C2247 C2246 1.391 . S
H2248 C2256 0.950 . S
H2249 C2261 0.950 . S
H2250 C2258 0.950 . S
H2251 C2260 0.950 . S
H2252 C2262 0.950 . S
H2253 C2264 0.950 . S
H2254 C2266 0.950 . S
H2255 C2267 0.950 . S
C2256 H2248 0.950 . S
C2256 C2257 1.386 . S
C2256 C2258 1.391 . S
C2257 C2256 1.386 . S
C2257 C2261 1.393 . S
C2258 H2250 0.950 . S
C2258 C2256 1.391 . S
C2258 C2259 1.400 . S
C2259 C2258 1.400 . S
C2259 C2260 1.398 . S
C2259 C2265 1.491 . S
C2260 H2251 0.950 . S
C2260 C2259 1.398 . S
C2260 C2261 1.391 . S
C2261 H2249 0.950 . S
C2261 C2257 1.393 . S
C2261 C2260 1.391 . S
C2262 H2252 0.950 . S
C2262 C2263 1.386 . S
C2262 C2264 1.391 . S
C2263 C2262 1.386 . S
C2263 C2267 1.393 . S
C2264 H2253 0.950 . S
C2264 C2262 1.391 . S
C2264 C2265 1.400 . S
C2265 C2259 1.491 . S
C2265 C2264 1.400 . S
C2265 C2266 1.398 . S
C2266 H2254 0.950 . S
C2266 C2265 1.398 . S
C2266 C2267 1.391 . S
C2267 H2255 0.950 . S
C2267 C2263 1.393 . S
C2267 C2266 1.391 . S
H2268 C2276 0.950 . S
H2269 C2281 0.950 . S
H2270 C2278 0.950 . S
H2271 C2280 0.950 . S
H2272 C2282 0.950 . S
H2273 C2284 0.950 . S
H2274 C2286 0.950 . S
H2275 C2287 0.950 . S
C2276 H2268 0.950 . S
C2276 C2277 1.386 . S
C2276 C2278 1.391 . S
C2277 C2276 1.386 . S
C2277 C2281 1.393 . S
C2278 H2270 0.950 . S
C2278 C2276 1.391 . S
C2278 C2279 1.400 . S
C2279 C2278 1.400 . S
C2279 C2280 1.398 . S
C2279 C2285 1.491 . S
C2280 H2271 0.950 . S
C2280 C2279 1.398 . S
C2280 C2281 1.391 . S
C2281 H2269 0.950 . S
C2281 C2277 1.393 . S
C2281 C2280 1.391 . S
C2282 H2272 0.950 . S
C2282 C2283 1.386 . S
C2282 C2284 1.391 . S
C2283 C2282 1.386 . S
C2283 C2287 1.393 . S
C2284 H2273 0.950 . S
C2284 C2282 1.391 . S
C2284 C2285 1.400 . S
C2285 C2279 1.491 . S
C2285 C2284 1.400 . S
C2285 C2286 1.398 . S
C2286 H2274 0.950 . S
C2286 C2285 1.398 . S
C2286 C2287 1.391 . S
C2287 H2275 0.950 . S
C2287 C2283 1.393 . S
C2287 C2286 1.391 . S
H2288 C2296 0.950 . S
H2289 C2301 0.950 . S
H2290 C2298 0.950 . S
H2291 C2300 0.950 . S
H2292 C2302 0.950 . S
H2293 C2304 0.950 . S
H2294 C2306 0.950 . S
H2295 C2307 0.950 . S
C2296 H2288 0.950 . S
C2296 C2297 1.386 . S
C2296 C2298 1.391 . S
C2297 C2296 1.386 . S
C2297 C2301 1.393 . S
C2298 H2290 0.950 . S
C2298 C2296 1.391 . S
C2298 C2299 1.400 . S
C2299 C2298 1.400 . S
C2299 C2300 1.398 . S
C2299 C2305 1.491 . S
C2300 H2291 0.950 . S
C2300 C2299 1.398 . S
C2300 C2301 1.391 . S
C2301 H2289 0.950 . S
C2301 C2297 1.393 . S
C2301 C2300 1.391 . S
C2302 H2292 0.950 . S
C2302 C2303 1.386 . S
C2302 C2304 1.391 . S
C2303 C2302 1.386 . S
C2303 C2307 1.393 . S
C2304 H2293 0.950 . S
C2304 C2302 1.391 . S
C2304 C2305 1.400 . S
C2305 C2299 1.491 . S
C2305 C2304 1.400 . S
C2305 C2306 1.398 . S
C2306 H2294 0.950 . S
C2306 C2305 1.398 . S
C2306 C2307 1.391 . S
C2307 H2295 0.950 . S
C2307 C2303 1.393 . S
C2307 C2306 1.391 . S
H2308 C2316 0.950 . S
H2309 C2321 0.950 . S
H2310 C2318 0.950 . S
H2311 C2320 0.950 . S
H2312 C2322 0.950 . S
H2313 C2324 0.950 . S
H2314 C2326 0.950 . S
H2315 C2327 0.950 . S
C2316 H2308 0.950 . S
C2316 C2317 1.386 . S
C2316 C2318 1.391 . S
C2317 C2316 1.386 . S
C2317 C2321 1.393 . S
C2318 H2310 0.950 . S
C2318 C2316 1.391 . S
C2318 C2319 1.400 . S
C2319 C2318 1.400 . S
C2319 C2320 1.398 . S
C2319 C2325 1.491 . S
C2320 H2311 0.950 . S
C2320 C2319 1.398 . S
C2320 C2321 1.391 . S
C2321 H2309 0.950 . S
C2321 C2317 1.393 . S
C2321 C2320 1.391 . S
C2322 H2312 0.950 . S
C2322 C2323 1.386 . S
C2322 C2324 1.391 . S
C2323 C2322 1.386 . S
C2323 C2327 1.393 . S
C2324 H2313 0.950 . S
C2324 C2322 1.391 . S
C2324 C2325 1.400 . S
C2325 C2319 1.491 . S
C2325 C2324 1.400 . S
C2325 C2326 1.398 . S
C2326 H2314 0.950 . S
C2326 C2325 1.398 . S
C2326 C2327 1.391 . S
C2327 H2315 0.950 . S
C2327 C2323 1.393 . S
C2327 C2326 1.391 . S
H2328 C2336 0.950 . S
H2329 C2341 0.950 . S
H2330 C2338 0.950 . S
H2331 C2340 0.950 . S
H2332 C2342 0.950 . S
H2333 C2344 0.950 . S
H2334 C2346 0.950 . S
H2335 C2347 0.950 . S
C2336 H2328 0.950 . S
C2336 C2337 1.386 . S
C2336 C2338 1.391 . S
C2337 C2336 1.386 . S
C2337 C2341 1.393 . S
C2338 H2330 0.950 . S
C2338 C2336 1.391 . S
C2338 C2339 1.400 . S
C2339 C2338 1.400 . S
C2339 C2340 1.398 . S
C2339 C2345 1.491 . S
C2340 H2331 0.950 . S
C2340 C2339 1.398 . S
C2340 C2341 1.391 . S
C2341 H2329 0.950 . S
C2341 C2337 1.393 . S
C2341 C2340 1.391 . S
C2342 H2332 0.950 . S
C2342 C2343 1.386 . S
C2342 C2344 1.391 . S
C2343 C2342 1.386 . S
C2343 C2347 1.393 . S
C2344 H2333 0.950 . S
C2344 C2342 1.391 . S
C2344 C2345 1.400 . S
C2345 C2339 1.491 . S
C2345 C2344 1.400 . S
C2345 C2346 1.398 . S
C2346 H2334 0.950 . S
C2346 C2345 1.398 . S
C2346 C2347 1.391 . S
C2347 H2335 0.950 . S
C2347 C2343 1.393 . S
C2347 C2346 1.391 . S
H2348 C2356 0.950 . S
H2349 C2361 0.950 . S
H2350 C2358 0.950 . S
H2351 C2360 0.950 . S
H2352 C2362 0.950 . S
H2353 C2364 0.950 . S
H2354 C2366 0.950 . S
H2355 C2367 0.950 . S
C2356 H2348 0.950 . S
C2356 C2357 1.386 . S
C2356 C2358 1.391 . S
C2357 C2356 1.386 . S
C2357 C2361 1.393 . S
C2358 H2350 0.950 . S
C2358 C2356 1.391 . S
C2358 C2359 1.400 . S
C2359 C2358 1.400 . S
C2359 C2360 1.398 . S
C2359 C2365 1.491 . S
C2360 H2351 0.950 . S
C2360 C2359 1.398 . S
C2360 C2361 1.391 . S
C2361 H2349 0.950 . S
C2361 C2357 1.393 . S
C2361 C2360 1.391 . S
C2362 H2352 0.950 . S
C2362 C2363 1.386 . S
C2362 C2364 1.391 . S
C2363 C2362 1.386 . S
C2363 C2367 1.393 . S
C2364 H2353 0.950 . S
C2364 C2362 1.391 . S
C2364 C2365 1.400 . S
C2365 C2359 1.491 . S
C2365 C2364 1.400 . S
C2365 C2366 1.398 . S
C2366 H2354 0.950 . S
C2366 C2365 1.398 . S
C2366 C2367 1.391 . S
C2367 H2355 0.950 . S
C2367 C2363 1.393 . S
C2367 C2366 1.391 . S
H2368 C2376 0.950 . S
H2369 C2381 0.950 . S
H2370 C2378 0.950 . S
H2371 C2380 0.950 . S
H2372 C2382 0.950 . S
H2373 C2384 0.950 . S
H2374 C2386 0.950 . S
H2375 C2387 0.950 . S
C2376 H2368 0.950 . S
C2376 C2377 1.386 . S
C2376 C2378 1.391 . S
C2377 C2376 1.386 . S
C2377 C2381 1.393 . S
C2378 H2370 0.950 . S
C2378 C2376 1.391 . S
C2378 C2379 1.400 . S
C2379 C2378 1.400 . S
C2379 C2380 1.398 . S
C2379 C2385 1.491 . S
C2380 H2371 0.950 . S
C2380 C2379 1.398 . S
C2380 C2381 1.391 . S
C2381 H2369 0.950 . S
C2381 C2377 1.393 . S
C2381 C2380 1.391 . S
C2382 H2372 0.950 . S
C2382 C2383 1.386 . S
C2382 C2384 1.391 . S
C2383 C2382 1.386 . S
C2383 C2387 1.393 . S
C2384 H2373 0.950 . S
C2384 C2382 1.391 . S
C2384 C2385 1.400 . S
C2385 C2379 1.491 . S
C2385 C2384 1.400 . S
C2385 C2386 1.398 . S
C2386 H2374 0.950 . S
C2386 C2385 1.398 . S
C2386 C2387 1.391 . S
C2387 H2375 0.950 . S
C2387 C2383 1.393 . S
C2387 C2386 1.391 . S
H2388 C2396 0.950 . S
H2389 C2401 0.950 . S
H2390 C2398 0.950 . S
H2391 C2400 0.950 . S
H2392 C2402 0.950 . S
H2393 C2404 0.950 . S
H2394 C2406 0.950 . S
H2395 C2407 0.950 . S
C2396 H2388 0.950 . S
C2396 C2397 1.386 . S
C2396 C2398 1.391 . S
C2397 C2396 1.386 . S
C2397 C2401 1.393 . S
C2398 H2390 0.950 . S
C2398 C2396 1.391 . S
C2398 C2399 1.400 . S
C2399 C2398 1.400 . S
C2399 C2400 1.398 . S
C2399 C2405 1.491 . S
C2400 H2391 0.950 . S
C2400 C2399 1.398 . S
C2400 C2401 1.391 . S
C2401 H2389 0.950 . S
C2401 C2397 1.393 . S
C2401 C2400 1.391 . S
C2402 H2392 0.950 . S
C2402 C2403 1.386 . S
C2402 C2404 1.391 . S
C2403 C2402 1.386 . S
C2403 C2407 1.393 . S
C2404 H2393 0.950 . S
C2404 C2402 1.391 . S
C2404 C2405 1.400 . S
C2405 C2399 1.491 . S
C2405 C2404 1.400 . S
C2405 C2406 1.398 . S
C2406 H2394 0.950 . S
C2406 C2405 1.398 . S
C2406 C2407 1.391 . S
C2407 H2395 0.950 . S
C2407 C2403 1.393 . S
C2407 C2406 1.391 . S
H2408 C2416 0.950 . S
H2409 C2421 0.950 . S
H2410 C2418 0.950 . S
H2411 C2420 0.950 . S
H2412 C2422 0.950 . S
H2413 C2424 0.950 . S
H2414 C2426 0.950 . S
H2415 C2427 0.950 . S
C2416 H2408 0.950 . S
C2416 C2417 1.386 . S
C2416 C2418 1.391 . S
C2417 C2416 1.386 . S
C2417 C2421 1.393 . S
C2418 H2410 0.950 . S
C2418 C2416 1.391 . S
C2418 C2419 1.400 . S
C2419 C2418 1.400 . S
C2419 C2420 1.398 . S
C2419 C2425 1.491 . S
C2420 H2411 0.950 . S
C2420 C2419 1.398 . S
C2420 C2421 1.391 . S
C2421 H2409 0.950 . S
C2421 C2417 1.393 . S
C2421 C2420 1.391 . S
C2422 H2412 0.950 . S
C2422 C2423 1.386 . S
C2422 C2424 1.391 . S
C2423 C2422 1.386 . S
C2423 C2427 1.393 . S
C2424 H2413 0.950 . S
C2424 C2422 1.391 . S
C2424 C2425 1.400 . S
C2425 C2419 1.491 . S
C2425 C2424 1.400 . S
C2425 C2426 1.398 . S
C2426 H2414 0.950 . S
C2426 C2425 1.398 . S
C2426 C2427 1.391 . S
C2427 H2415 0.950 . S
C2427 C2423 1.393 . S
C2427 C2426 1.391 . S
H2428 C2436 0.950 . S
H2429 C2441 0.950 . S
H2430 C2438 0.950 . S
H2431 C2440 0.950 . S
H2432 C2442 0.950 . S
H2433 C2444 0.950 . S
H2434 C2446 0.950 . S
H2435 C2447 0.950 . S
C2436 H2428 0.950 . S
C2436 C2437 1.386 . S
C2436 C2438 1.391 . S
C2437 C2436 1.386 . S
C2437 C2441 1.393 . S
C2438 H2430 0.950 . S
C2438 C2436 1.391 . S
C2438 C2439 1.400 . S
C2439 C2438 1.400 . S
C2439 C2440 1.398 . S
C2439 C2445 1.491 . S
C2440 H2431 0.950 . S
C2440 C2439 1.398 . S
C2440 C2441 1.391 . S
C2441 H2429 0.950 . S
C2441 C2437 1.393 . S
C2441 C2440 1.391 . S
C2442 H2432 0.950 . S
C2442 C2443 1.386 . S
C2442 C2444 1.391 . S
C2443 C2442 1.386 . S
C2443 C2447 1.393 . S
C2444 H2433 0.950 . S
C2444 C2442 1.391 . S
C2444 C2445 1.400 . S
C2445 C2439 1.491 . S
C2445 C2444 1.400 . S
C2445 C2446 1.398 . S
C2446 H2434 0.950 . S
C2446 C2445 1.398 . S
C2446 C2447 1.391 . S
C2447 H2435 0.950 . S
C2447 C2443 1.393 . S
C2447 C2446 1.391 . S
H2448 C2456 0.950 . S
H2449 C2461 0.950 . S
H2450 C2458 0.950 . S
H2451 C2460 0.950 . S
H2452 C2462 0.950 . S
H2453 C2464 0.950 . S
H2454 C2466 0.950 . S
H2455 C2467 0.950 . S
C2456 H2448 0.950 . S
C2456 C2457 1.386 . S
C2456 C2458 1.391 . S
C2457 C2456 1.386 . S
C2457 C2461 1.393 . S
C2458 H2450 0.950 . S
C2458 C2456 1.391 . S
C2458 C2459 1.400 . S
C2459 C2458 1.400 . S
C2459 C2460 1.398 . S
C2459 C2465 1.491 . S
C2460 H2451 0.950 . S
C2460 C2459 1.398 . S
C2460 C2461 1.391 . S
C2461 H2449 0.950 . S
C2461 C2457 1.393 . S
C2461 C2460 1.391 . S
C2462 H2452 0.950 . S
C2462 C2463 1.386 . S
C2462 C2464 1.391 . S
C2463 C2462 1.386 . S
C2463 C2467 1.393 . S
C2464 H2453 0.950 . S
C2464 C2462 1.391 . S
C2464 C2465 1.400 . S
C2465 C2459 1.491 . S
C2465 C2464 1.400 . S
C2465 C2466 1.398 . S
C2466 H2454 0.950 . S
C2466 C2465 1.398 . S
C2466 C2467 1.391 . S
C2467 H2455 0.950 . S
C2467 C2463 1.393 . S
C2467 C2466 1.391 . S
H2468 C2476 0.950 . S
H2469 C2481 0.950 . S
H2470 C2478 0.950 . S
H2471 C2480 0.950 . S
H2472 C2482 0.950 . S
H2473 C2484 0.950 . S
H2474 C2486 0.950 . S
H2475 C2487 0.950 . S
C2476 H2468 0.950 . S
C2476 C2477 1.386 . S
C2476 C2478 1.391 . S
C2477 C2476 1.386 . S
C2477 C2481 1.393 . S
C2478 H2470 0.950 . S
C2478 C2476 1.391 . S
C2478 C2479 1.400 . S
C2479 C2478 1.400 . S
C2479 C2480 1.398 . S
C2479 C2485 1.491 . S
C2480 H2471 0.950 . S
C2480 C2479 1.398 . S
C2480 C2481 1.391 . S
C2481 H2469 0.950 . S
C2481 C2477 1.393 . S
C2481 C2480 1.391 . S
C2482 H2472 0.950 . S
C2482 C2483 1.386 . S
C2482 C2484 1.391 . S
C2483 C2482 1.386 . S
C2483 C2487 1.393 . S
C2484 H2473 0.950 . S
C2484 C2482 1.391 . S
C2484 C2485 1.400 . S
C2485 C2479 1.491 . S
C2485 C2484 1.400 . S
C2485 C2486 1.398 . S
C2486 H2474 0.950 . S
C2486 C2485 1.398 . S
C2486 C2487 1.391 . S
C2487 H2475 0.950 . S
C2487 C2483 1.393 . S
C2487 C2486 1.391 . S
H2488 C2496 0.950 . S
H2489 C2501 0.950 . S
H2490 C2498 0.950 . S
H2491 C2500 0.950 . S
H2492 C2502 0.950 . S
H2493 C2504 0.950 . S
H2494 C2506 0.950 . S
H2495 C2507 0.950 . S
C2496 H2488 0.950 . S
C2496 C2497 1.386 . S
C2496 C2498 1.391 . S
C2497 C2496 1.386 . S
C2497 C2501 1.393 . S
C2498 H2490 0.950 . S
C2498 C2496 1.391 . S
C2498 C2499 1.400 . S
C2499 C2498 1.400 . S
C2499 C2500 1.398 . S
C2499 C2505 1.491 . S
C2500 H2491 0.950 . S
C2500 C2499 1.398 . S
C2500 C2501 1.391 . S
C2501 H2489 0.950 . S
C2501 C2497 1.393 . S
C2501 C2500 1.391 . S
C2502 H2492 0.950 . S
C2502 C2503 1.386 . S
C2502 C2504 1.391 . S
C2503 C2502 1.386 . S
C2503 C2507 1.393 . S
C2504 H2493 0.950 . S
C2504 C2502 1.391 . S
C2504 C2505 1.400 . S
C2505 C2499 1.491 . S
C2505 C2504 1.400 . S
C2505 C2506 1.398 . S
C2506 H2494 0.950 . S
C2506 C2505 1.398 . S
C2506 C2507 1.391 . S
C2507 H2495 0.950 . S
C2507 C2503 1.393 . S
C2507 C2506 1.391 . S
H2508 C2516 0.950 . S
H2509 C2521 0.950 . S
H2510 C2518 0.950 . S
H2511 C2520 0.950 . S
H2512 C2522 0.950 . S
H2513 C2524 0.950 . S
H2514 C2526 0.950 . S
H2515 C2527 0.950 . S
C2516 H2508 0.950 . S
C2516 C2517 1.386 . S
C2516 C2518 1.391 . S
C2517 C2516 1.386 . S
C2517 C2521 1.393 . S
C2518 H2510 0.950 . S
C2518 C2516 1.391 . S
C2518 C2519 1.400 . S
C2519 C2518 1.400 . S
C2519 C2520 1.398 . S
C2519 C2525 1.491 . S
C2520 H2511 0.950 . S
C2520 C2519 1.398 . S
C2520 C2521 1.391 . S
C2521 H2509 0.950 . S
C2521 C2517 1.393 . S
C2521 C2520 1.391 . S
C2522 H2512 0.950 . S
C2522 C2523 1.386 . S
C2522 C2524 1.391 . S
C2523 C2522 1.386 . S
C2523 C2527 1.393 . S
C2524 H2513 0.950 . S
C2524 C2522 1.391 . S
C2524 C2525 1.400 . S
C2525 C2519 1.491 . S
C2525 C2524 1.400 . S
C2525 C2526 1.398 . S
C2526 H2514 0.950 . S
C2526 C2525 1.398 . S
C2526 C2527 1.391 . S
C2527 H2515 0.950 . S
C2527 C2523 1.393 . S
C2527 C2526 1.391 . S
H2528 C2536 0.950 . S
H2529 C2541 0.950 . S
H2530 C2538 0.950 . S
H2531 C2540 0.950 . S
H2532 C2542 0.950 . S
H2533 C2544 0.950 . S
H2534 C2546 0.950 . S
H2535 C2547 0.950 . S
C2536 H2528 0.950 . S
C2536 C2537 1.386 . S
C2536 C2538 1.391 . S
C2537 C2536 1.386 . S
C2537 C2541 1.393 . S
C2538 H2530 0.950 . S
C2538 C2536 1.391 . S
C2538 C2539 1.400 . S
C2539 C2538 1.400 . S
C2539 C2540 1.398 . S
C2539 C2545 1.491 . S
C2540 H2531 0.950 . S
C2540 C2539 1.398 . S
C2540 C2541 1.391 . S
C2541 H2529 0.950 . S
C2541 C2537 1.393 . S
C2541 C2540 1.391 . S
C2542 H2532 0.950 . S
C2542 C2543 1.386 . S
C2542 C2544 1.391 . S
C2543 C2542 1.386 . S
C2543 C2547 1.393 . S
C2544 H2533 0.950 . S
C2544 C2542 1.391 . S
C2544 C2545 1.400 . S
C2545 C2539 1.491 . S
C2545 C2544 1.400 . S
C2545 C2546 1.398 . S
C2546 H2534 0.950 . S
C2546 C2545 1.398 . S
C2546 C2547 1.391 . S
C2547 H2535 0.950 . S
C2547 C2543 1.393 . S
C2547 C2546 1.391 . S
H2548 C2556 0.950 . S
H2549 C2561 0.950 . S
H2550 C2558 0.950 . S
H2551 C2560 0.950 . S
H2552 C2562 0.950 . S
H2553 C2564 0.950 . S
H2554 C2566 0.950 . S
H2555 C2567 0.950 . S
C2556 H2548 0.950 . S
C2556 C2557 1.386 . S
C2556 C2558 1.391 . S
C2557 C2556 1.386 . S
C2557 C2561 1.393 . S
C2558 H2550 0.950 . S
C2558 C2556 1.391 . S
C2558 C2559 1.400 . S
C2559 C2558 1.400 . S
C2559 C2560 1.398 . S
C2559 C2565 1.491 . S
C2560 H2551 0.950 . S
C2560 C2559 1.398 . S
C2560 C2561 1.391 . S
C2561 H2549 0.950 . S
C2561 C2557 1.393 . S
C2561 C2560 1.391 . S
C2562 H2552 0.950 . S
C2562 C2563 1.386 . S
C2562 C2564 1.391 . S
C2563 C2562 1.386 . S
C2563 C2567 1.393 . S
C2564 H2553 0.950 . S
C2564 C2562 1.391 . S
C2564 C2565 1.400 . S
C2565 C2559 1.491 . S
C2565 C2564 1.400 . S
C2565 C2566 1.398 . S
C2566 H2554 0.950 . S
C2566 C2565 1.398 . S
C2566 C2567 1.391 . S
C2567 H2555 0.950 . S
C2567 C2563 1.393 . S
C2567 C2566 1.391 . S
H2568 C2576 0.950 . S
H2569 C2581 0.950 . S
H2570 C2578 0.950 . S
H2571 C2580 0.950 . S
H2572 C2582 0.950 . S
H2573 C2584 0.950 . S
H2574 C2586 0.950 . S
H2575 C2587 0.950 . S
C2576 H2568 0.950 . S
C2576 C2577 1.386 . S
C2576 C2578 1.391 . S
C2577 C2576 1.386 . S
C2577 C2581 1.393 . S
C2578 H2570 0.950 . S
C2578 C2576 1.391 . S
C2578 C2579 1.400 . S
C2579 C2578 1.400 . S
C2579 C2580 1.398 . S
C2579 C2585 1.491 . S
C2580 H2571 0.950 . S
C2580 C2579 1.398 . S
C2580 C2581 1.391 . S
C2581 H2569 0.950 . S
C2581 C2577 1.393 . S
C2581 C2580 1.391 . S
C2582 H2572 0.950 . S
C2582 C2583 1.386 . S
C2582 C2584 1.391 . S
C2583 C2582 1.386 . S
C2583 C2587 1.393 . S
C2584 H2573 0.950 . S
C2584 C2582 1.391 . S
C2584 C2585 1.400 . S
C2585 C2579 1.491 . S
C2585 C2584 1.400 . S
C2585 C2586 1.398 . S
C2586 H2574 0.950 . S
C2586 C2585 1.398 . S
C2586 C2587 1.391 . S
C2587 H2575 0.950 . S
C2587 C2583 1.393 . S
C2587 C2586 1.391 . S
H2588 C2596 0.950 . S
H2589 C2601 0.950 . S
H2590 C2598 0.950 . S
H2591 C2600 0.950 . S
H2592 C2602 0.950 . S
H2593 C2604 0.950 . S
H2594 C2606 0.950 . S
H2595 C2607 0.950 . S
C2596 H2588 0.950 . S
C2596 C2597 1.386 . S
C2596 C2598 1.391 . S
C2597 C2596 1.386 . S
C2597 C2601 1.393 . S
C2598 H2590 0.950 . S
C2598 C2596 1.391 . S
C2598 C2599 1.400 . S
C2599 C2598 1.400 . S
C2599 C2600 1.398 . S
C2599 C2605 1.491 . S
C2600 H2591 0.950 . S
C2600 C2599 1.398 . S
C2600 C2601 1.391 . S
C2601 H2589 0.950 . S
C2601 C2597 1.393 . S
C2601 C2600 1.391 . S
C2602 H2592 0.950 . S
C2602 C2603 1.386 . S
C2602 C2604 1.391 . S
C2603 C2602 1.386 . S
C2603 C2607 1.393 . S
C2604 H2593 0.950 . S
C2604 C2602 1.391 . S
C2604 C2605 1.400 . S
C2605 C2599 1.491 . S
C2605 C2604 1.400 . S
C2605 C2606 1.398 . S
C2606 H2594 0.950 . S
C2606 C2605 1.398 . S
C2606 C2607 1.391 . S
C2607 H2595 0.950 . S
C2607 C2603 1.393 . S
C2607 C2606 1.391 . S
H2608 C2616 0.950 . S
H2609 C2621 0.950 . S
H2610 C2618 0.950 . S
H2611 C2620 0.950 . S
H2612 C2622 0.950 . S
H2613 C2624 0.950 . S
H2614 C2626 0.950 . S
H2615 C2627 0.950 . S
C2616 H2608 0.950 . S
C2616 C2617 1.386 . S
C2616 C2618 1.391 . S
C2617 C2616 1.386 . S
C2617 C2621 1.393 . S
C2618 H2610 0.950 . S
C2618 C2616 1.391 . S
C2618 C2619 1.400 . S
C2619 C2618 1.400 . S
C2619 C2620 1.398 . S
C2619 C2625 1.491 . S
C2620 H2611 0.950 . S
C2620 C2619 1.398 . S
C2620 C2621 1.391 . S
C2621 H2609 0.950 . S
C2621 C2617 1.393 . S
C2621 C2620 1.391 . S
C2622 H2612 0.950 . S
C2622 C2623 1.386 . S
C2622 C2624 1.391 . S
C2623 C2622 1.386 . S
C2623 C2627 1.393 . S
C2624 H2613 0.950 . S
C2624 C2622 1.391 . S
C2624 C2625 1.400 . S
C2625 C2619 1.491 . S
C2625 C2624 1.400 . S
C2625 C2626 1.398 . S
C2626 H2614 0.950 . S
C2626 C2625 1.398 . S
C2626 C2627 1.391 . S
C2627 H2615 0.950 . S
C2627 C2623 1.393 . S
C2627 C2626 1.391 . S
H2628 C2636 0.950 . S
H2629 C2641 0.950 . S
H2630 C2638 0.950 . S
H2631 C2640 0.950 . S
H2632 C2642 0.950 . S
H2633 C2644 0.950 . S
H2634 C2646 0.950 . S
H2635 C2647 0.950 . S
C2636 H2628 0.950 . S
C2636 C2637 1.386 . S
C2636 C2638 1.391 . S
C2637 C2636 1.386 . S
C2637 C2641 1.393 . S
C2638 H2630 0.950 . S
C2638 C2636 1.391 . S
C2638 C2639 1.400 . S
C2639 C2638 1.400 . S
C2639 C2640 1.398 . S
C2639 C2645 1.491 . S
C2640 H2631 0.950 . S
C2640 C2639 1.398 . S
C2640 C2641 1.391 . S
C2641 H2629 0.950 . S
C2641 C2637 1.393 . S
C2641 C2640 1.391 . S
C2642 H2632 0.950 . S
C2642 C2643 1.386 . S
C2642 C2644 1.391 . S
C2643 C2642 1.386 . S
C2643 C2647 1.393 . S
C2644 H2633 0.950 . S
C2644 C2642 1.391 . S
C2644 C2645 1.400 . S
C2645 C2639 1.491 . S
C2645 C2644 1.400 . S
C2645 C2646 1.398 . S
C2646 H2634 0.950 . S
C2646 C2645 1.398 . S
C2646 C2647 1.391 . S
C2647 H2635 0.950 . S
C2647 C2643 1.393 . S
C2647 C2646 1.391 . S
H2648 C2656 0.950 . S
H2649 C2661 0.950 . S
H2650 C2658 0.950 . S
H2651 C2660 0.950 . S
H2652 C2662 0.950 . S
H2653 C2664 0.950 . S
H2654 C2666 0.950 . S
H2655 C2667 0.950 . S
C2656 H2648 0.950 . S
C2656 C2657 1.386 . S
C2656 C2658 1.391 . S
C2657 C2656 1.386 . S
C2657 C2661 1.393 . S
C2658 H2650 0.950 . S
C2658 C2656 1.391 . S
C2658 C2659 1.400 . S
C2659 C2658 1.400 . S
C2659 C2660 1.398 . S
C2659 C2665 1.491 . S
C2660 H2651 0.950 . S
C2660 C2659 1.398 . S
C2660 C2661 1.391 . S
C2661 H2649 0.950 . S
C2661 C2657 1.393 . S
C2661 C2660 1.391 . S
C2662 H2652 0.950 . S
C2662 C2663 1.386 . S
C2662 C2664 1.391 . S
C2663 C2662 1.386 . S
C2663 C2667 1.393 . S
C2664 H2653 0.950 . S
C2664 C2662 1.391 . S
C2664 C2665 1.400 . S
C2665 C2659 1.491 . S
C2665 C2664 1.400 . S
C2665 C2666 1.398 . S
C2666 H2654 0.950 . S
C2666 C2665 1.398 . S
C2666 C2667 1.391 . S
C2667 H2655 0.950 . S
C2667 C2663 1.393 . S
C2667 C2666 1.391 . S
H2668 C2676 0.950 . S
H2669 C2681 0.950 . S
H2670 C2678 0.950 . S
H2671 C2680 0.950 . S
H2672 C2682 0.950 . S
H2673 C2684 0.950 . S
H2674 C2686 0.950 . S
H2675 C2687 0.950 . S
C2676 H2668 0.950 . S
C2676 C2677 1.386 . S
C2676 C2678 1.391 . S
C2677 C2676 1.386 . S
C2677 C2681 1.393 . S
C2678 H2670 0.950 . S
C2678 C2676 1.391 . S
C2678 C2679 1.400 . S
C2679 C2678 1.400 . S
C2679 C2680 1.398 . S
C2679 C2685 1.491 . S
C2680 H2671 0.950 . S
C2680 C2679 1.398 . S
C2680 C2681 1.391 . S
C2681 H2669 0.950 . S
C2681 C2677 1.393 . S
C2681 C2680 1.391 . S
C2682 H2672 0.950 . S
C2682 C2683 1.386 . S
C2682 C2684 1.391 . S
C2683 C2682 1.386 . S
C2683 C2687 1.393 . S
C2684 H2673 0.950 . S
C2684 C2682 1.391 . S
C2684 C2685 1.400 . S
C2685 C2679 1.491 . S
C2685 C2684 1.400 . S
C2685 C2686 1.398 . S
C2686 H2674 0.950 . S
C2686 C2685 1.398 . S
C2686 C2687 1.391 . S
C2687 H2675 0.950 . S
C2687 C2683 1.393 . S
C2687 C2686 1.391 . S
H2688 C2696 0.950 . S
H2689 C2701 0.950 . S
H2690 C2698 0.950 . S
H2691 C2700 0.950 . S
H2692 C2702 0.950 . S
H2693 C2704 0.950 . S
H2694 C2706 0.950 . S
H2695 C2707 0.950 . S
C2696 H2688 0.950 . S
C2696 C2697 1.386 . S
C2696 C2698 1.391 . S
C2697 C2696 1.386 . S
C2697 C2701 1.393 . S
C2698 H2690 0.950 . S
C2698 C2696 1.391 . S
C2698 C2699 1.400 . S
C2699 C2698 1.400 . S
C2699 C2700 1.398 . S
C2699 C2705 1.491 . S
C2700 H2691 0.950 . S
C2700 C2699 1.398 . S
C2700 C2701 1.391 . S
C2701 H2689 0.950 . S
C2701 C2697 1.393 . S
C2701 C2700 1.391 . S
C2702 H2692 0.950 . S
C2702 C2703 1.386 . S
C2702 C2704 1.391 . S
C2703 C2702 1.386 . S
C2703 C2707 1.393 . S
C2704 H2693 0.950 . S
C2704 C2702 1.391 . S
C2704 C2705 1.400 . S
C2705 C2699 1.491 . S
C2705 C2704 1.400 . S
C2705 C2706 1.398 . S
C2706 H2694 0.950 . S
C2706 C2705 1.398 . S
C2706 C2707 1.391 . S
C2707 H2695 0.950 . S
C2707 C2703 1.393 . S
C2707 C2706 1.391 . S
H2708 C2716 0.950 . S
H2709 C2721 0.950 . S
H2710 C2718 0.950 . S
H2711 C2720 0.950 . S
H2712 C2722 0.950 . S
H2713 C2724 0.950 . S
H2714 C2726 0.950 . S
H2715 C2727 0.950 . S
C2716 H2708 0.950 . S
C2716 C2717 1.386 . S
C2716 C2718 1.391 . S
C2717 C2716 1.386 . S
C2717 C2721 1.393 . S
C2718 H2710 0.950 . S
C2718 C2716 1.391 . S
C2718 C2719 1.400 . S
C2719 C2718 1.400 . S
C2719 C2720 1.398 . S
C2719 C2725 1.491 . S
C2720 H2711 0.950 . S
C2720 C2719 1.398 . S
C2720 C2721 1.391 . S
C2721 H2709 0.950 . S
C2721 C2717 1.393 . S
C2721 C2720 1.391 . S
C2722 H2712 0.950 . S
C2722 C2723 1.386 . S
C2722 C2724 1.391 . S
C2723 C2722 1.386 . S
C2723 C2727 1.393 . S
C2724 H2713 0.950 . S
C2724 C2722 1.391 . S
C2724 C2725 1.400 . S
C2725 C2719 1.491 . S
C2725 C2724 1.400 . S
C2725 C2726 1.398 . S
C2726 H2714 0.950 . S
C2726 C2725 1.398 . S
C2726 C2727 1.391 . S
C2727 H2715 0.950 . S
C2727 C2723 1.393 . S
C2727 C2726 1.391 . S
H2728 C2736 0.950 . S
H2729 C2741 0.950 . S
H2730 C2738 0.950 . S
H2731 C2740 0.950 . S
H2732 C2742 0.950 . S
H2733 C2744 0.950 . S
H2734 C2746 0.950 . S
H2735 C2747 0.950 . S
C2736 H2728 0.950 . S
C2736 C2737 1.386 . S
C2736 C2738 1.391 . S
C2737 C2736 1.386 . S
C2737 C2741 1.393 . S
C2738 H2730 0.950 . S
C2738 C2736 1.391 . S
C2738 C2739 1.400 . S
C2739 C2738 1.400 . S
C2739 C2740 1.398 . S
C2739 C2745 1.491 . S
C2740 H2731 0.950 . S
C2740 C2739 1.398 . S
C2740 C2741 1.391 . S
C2741 H2729 0.950 . S
C2741 C2737 1.393 . S
C2741 C2740 1.391 . S
C2742 H2732 0.950 . S
C2742 C2743 1.386 . S
C2742 C2744 1.391 . S
C2743 C2742 1.386 . S
C2743 C2747 1.393 . S
C2744 H2733 0.950 . S
C2744 C2742 1.391 . S
C2744 C2745 1.400 . S
C2745 C2739 1.491 . S
C2745 C2744 1.400 . S
C2745 C2746 1.398 . S
C2746 H2734 0.950 . S
C2746 C2745 1.398 . S
C2746 C2747 1.391 . S
C2747 H2735 0.950 . S
C2747 C2743 1.393 . S
C2747 C2746 1.391 . S
H2748 C2756 0.950 . S
H2749 C2761 0.950 . S
H2750 C2758 0.950 . S
H2751 C2760 0.950 . S
H2752 C2762 0.950 . S
H2753 C2764 0.950 . S
H2754 C2766 0.950 . S
H2755 C2767 0.950 . S
C2756 H2748 0.950 . S
C2756 C2757 1.386 . S
C2756 C2758 1.391 . S
C2757 C2756 1.386 . S
C2757 C2761 1.393 . S
C2758 H2750 0.950 . S
C2758 C2756 1.391 . S
C2758 C2759 1.400 . S
C2759 C2758 1.400 . S
C2759 C2760 1.398 . S
C2759 C2765 1.491 . S
C2760 H2751 0.950 . S
C2760 C2759 1.398 . S
C2760 C2761 1.391 . S
C2761 H2749 0.950 . S
C2761 C2757 1.393 . S
C2761 C2760 1.391 . S
C2762 H2752 0.950 . S
C2762 C2763 1.386 . S
C2762 C2764 1.391 . S
C2763 C2762 1.386 . S
C2763 C2767 1.393 . S
C2764 H2753 0.950 . S
C2764 C2762 1.391 . S
C2764 C2765 1.400 . S
C2765 C2759 1.491 . S
C2765 C2764 1.400 . S
C2765 C2766 1.398 . S
C2766 H2754 0.950 . S
C2766 C2765 1.398 . S
C2766 C2767 1.391 . S
C2767 H2755 0.950 . S
C2767 C2763 1.393 . S
C2767 C2766 1.391 . S
H2768 C2776 0.950 . S
H2769 C2781 0.950 . S
H2770 C2778 0.950 . S
H2771 C2780 0.950 . S
H2772 C2782 0.950 . S
H2773 C2784 0.950 . S
H2774 C2786 0.950 . S
H2775 C2787 0.950 . S
C2776 H2768 0.950 . S
C2776 C2777 1.386 . S
C2776 C2778 1.391 . S
C2777 C2776 1.386 . S
C2777 C2781 1.393 . S
C2778 H2770 0.950 . S
C2778 C2776 1.391 . S
C2778 C2779 1.400 . S
C2779 C2778 1.400 . S
C2779 C2780 1.398 . S
C2779 C2785 1.491 . S
C2780 H2771 0.950 . S
C2780 C2779 1.398 . S
C2780 C2781 1.391 . S
C2781 H2769 0.950 . S
C2781 C2777 1.393 . S
C2781 C2780 1.391 . S
C2782 H2772 0.950 . S
C2782 C2783 1.386 . S
C2782 C2784 1.391 . S
C2783 C2782 1.386 . S
C2783 C2787 1.393 . S
C2784 H2773 0.950 . S
C2784 C2782 1.391 . S
C2784 C2785 1.400 . S
C2785 C2779 1.491 . S
C2785 C2784 1.400 . S
C2785 C2786 1.398 . S
C2786 H2774 0.950 . S
C2786 C2785 1.398 . S
C2786 C2787 1.391 . S
C2787 H2775 0.950 . S
C2787 C2783 1.393 . S
C2787 C2786 1.391 . S
H2788 C2796 0.950 . S
H2789 C2801 0.950 . S
H2790 C2798 0.950 . S
H2791 C2800 0.950 . S
H2792 C2802 0.950 . S
H2793 C2804 0.950 . S
H2794 C2806 0.950 . S
H2795 C2807 0.950 . S
C2796 H2788 0.950 . S
C2796 C2797 1.386 . S
C2796 C2798 1.391 . S
C2797 C2796 1.386 . S
C2797 C2801 1.393 . S
C2798 H2790 0.950 . S
C2798 C2796 1.391 . S
C2798 C2799 1.400 . S
C2799 C2798 1.400 . S
C2799 C2800 1.398 . S
C2799 C2805 1.491 . S
C2800 H2791 0.950 . S
C2800 C2799 1.398 . S
C2800 C2801 1.391 . S
C2801 H2789 0.950 . S
C2801 C2797 1.393 . S
C2801 C2800 1.391 . S
C2802 H2792 0.950 . S
C2802 C2803 1.386 . S
C2802 C2804 1.391 . S
C2803 C2802 1.386 . S
C2803 C2807 1.393 . S
C2804 H2793 0.950 . S
C2804 C2802 1.391 . S
C2804 C2805 1.400 . S
C2805 C2799 1.491 . S
C2805 C2804 1.400 . S
C2805 C2806 1.398 . S
C2806 H2794 0.950 . S
C2806 C2805 1.398 . S
C2806 C2807 1.391 . S
C2807 H2795 0.950 . S
C2807 C2803 1.393 . S
C2807 C2806 1.391 . S
H2808 C2816 0.950 . S
H2809 C2821 0.950 . S
H2810 C2818 0.950 . S
H2811 C2820 0.950 . S
H2812 C2822 0.950 . S
H2813 C2824 0.950 . S
H2814 C2826 0.950 . S
H2815 C2827 0.950 . S
C2816 H2808 0.950 . S
C2816 C2817 1.386 . S
C2816 C2818 1.391 . S
C2817 C2816 1.386 . S
C2817 C2821 1.393 . S
C2818 H2810 0.950 . S
C2818 C2816 1.391 . S
C2818 C2819 1.400 . S
C2819 C2818 1.400 . S
C2819 C2820 1.398 . S
C2819 C2825 1.491 . S
C2820 H2811 0.950 . S
C2820 C2819 1.398 . S
C2820 C2821 1.391 . S
C2821 H2809 0.950 . S
C2821 C2817 1.393 . S
C2821 C2820 1.391 . S
C2822 H2812 0.950 . S
C2822 C2823 1.386 . S
C2822 C2824 1.391 . S
C2823 C2822 1.386 . S
C2823 C2827 1.393 . S
C2824 H2813 0.950 . S
C2824 C2822 1.391 . S
C2824 C2825 1.400 . S
C2825 C2819 1.491 . S
C2825 C2824 1.400 . S
C2825 C2826 1.398 . S
C2826 H2814 0.950 . S
C2826 C2825 1.398 . S
C2826 C2827 1.391 . S
C2827 H2815 0.950 . S
C2827 C2823 1.393 . S
C2827 C2826 1.391 . S
H2828 C2836 0.950 . S
H2829 C2841 0.950 . S
H2830 C2838 0.950 . S
H2831 C2840 0.950 . S
H2832 C2842 0.950 . S
H2833 C2844 0.950 . S
H2834 C2846 0.950 . S
H2835 C2847 0.950 . S
C2836 H2828 0.950 . S
C2836 C2837 1.386 . S
C2836 C2838 1.391 . S
C2837 C2836 1.386 . S
C2837 C2841 1.393 . S
C2838 H2830 0.950 . S
C2838 C2836 1.391 . S
C2838 C2839 1.400 . S
C2839 C2838 1.400 . S
C2839 C2840 1.398 . S
C2839 C2845 1.491 . S
C2840 H2831 0.950 . S
C2840 C2839 1.398 . S
C2840 C2841 1.391 . S
C2841 H2829 0.950 . S
C2841 C2837 1.393 . S
C2841 C2840 1.391 . S
C2842 H2832 0.950 . S
C2842 C2843 1.386 . S
C2842 C2844 1.391 . S
C2843 C2842 1.386 . S
C2843 C2847 1.393 . S
C2844 H2833 0.950 . S
C2844 C2842 1.391 . S
C2844 C2845 1.400 . S
C2845 C2839 1.491 . S
C2845 C2844 1.400 . S
C2845 C2846 1.398 . S
C2846 H2834 0.950 . S
C2846 C2845 1.398 . S
C2846 C2847 1.391 . S
C2847 H2835 0.950 . S
C2847 C2843 1.393 . S
C2847 C2846 1.391 . S
H2848 C2856 0.950 . S
H2849 C2861 0.950 . S
H2850 C2858 0.950 . S
H2851 C2860 0.950 . S
H2852 C2862 0.950 . S
H2853 C2864 0.950 . S
H2854 C2866 0.950 . S
H2855 C2867 0.950 . S
C2856 H2848 0.950 . S
C2856 C2857 1.386 . S
C2856 C2858 1.391 . S
C2857 C2856 1.386 . S
C2857 C2861 1.393 . S
C2858 H2850 0.950 . S
C2858 C2856 1.391 . S
C2858 C2859 1.400 . S
C2859 C2858 1.400 . S
C2859 C2860 1.398 . S
C2859 C2865 1.491 . S
C2860 H2851 0.950 . S
C2860 C2859 1.398 . S
C2860 C2861 1.391 . S
C2861 H2849 0.950 . S
C2861 C2857 1.393 . S
C2861 C2860 1.391 . S
C2862 H2852 0.950 . S
C2862 C2863 1.386 . S
C2862 C2864 1.391 . S
C2863 C2862 1.386 . S
C2863 C2867 1.393 . S
C2864 H2853 0.950 . S
C2864 C2862 1.391 . S
C2864 C2865 1.400 . S
C2865 C2859 1.491 . S
C2865 C2864 1.400 . S
C2865 C2866 1.398 . S
C2866 H2854 0.950 . S
C2866 C2865 1.398 . S
C2866 C2867 1.391 . S
C2867 H2855 0.950 . S
C2867 C2863 1.393 . S
C2867 C2866 1.391 . S
H2868 C2876 0.950 . S
H2869 C2881 0.950 . S
H2870 C2878 0.950 . S
H2871 C2880 0.950 . S
H2872 C2882 0.950 . S
H2873 C2884 0.950 . S
H2874 C2886 0.950 . S
H2875 C2887 0.950 . S
C2876 H2868 0.950 . S
C2876 C2877 1.386 . S
C2876 C2878 1.391 . S
C2877 C2876 1.386 . S
C2877 C2881 1.393 . S
C2878 H2870 0.950 . S
C2878 C2876 1.391 . S
C2878 C2879 1.400 . S
C2879 C2878 1.400 . S
C2879 C2880 1.398 . S
C2879 C2885 1.491 . S
C2880 H2871 0.950 . S
C2880 C2879 1.398 . S
C2880 C2881 1.391 . S
C2881 H2869 0.950 . S
C2881 C2877 1.393 . S
C2881 C2880 1.391 . S
C2882 H2872 0.950 . S
C2882 C2883 1.386 . S
C2882 C2884 1.391 . S
C2883 C2882 1.386 . S
C2883 C2887 1.393 . S
C2884 H2873 0.950 . S
C2884 C2882 1.391 . S
C2884 C2885 1.400 . S
C2885 C2879 1.491 . S
C2885 C2884 1.400 . S
C2885 C2886 1.398 . S
C2886 H2874 0.950 . S
C2886 C2885 1.398 . S
C2886 C2887 1.391 . S
C2887 H2875 0.950 . S
C2887 C2883 1.393 . S
C2887 C2886 1.391 . S
H2888 C2896 0.950 . S
H2889 C2901 0.950 . S
H2890 C2898 0.950 . S
H2891 C2900 0.950 . S
H2892 C2902 0.950 . S
H2893 C2904 0.950 . S
H2894 C2906 0.950 . S
H2895 C2907 0.950 . S
C2896 H2888 0.950 . S
C2896 C2897 1.386 . S
C2896 C2898 1.391 . S
C2897 C2896 1.386 . S
C2897 C2901 1.393 . S
C2898 H2890 0.950 . S
C2898 C2896 1.391 . S
C2898 C2899 1.400 . S
C2899 C2898 1.400 . S
C2899 C2900 1.398 . S
C2899 C2905 1.491 . S
C2900 H2891 0.950 . S
C2900 C2899 1.398 . S
C2900 C2901 1.391 . S
C2901 H2889 0.950 . S
C2901 C2897 1.393 . S
C2901 C2900 1.391 . S
C2902 H2892 0.950 . S
C2902 C2903 1.386 . S
C2902 C2904 1.391 . S
C2903 C2902 1.386 . S
C2903 C2907 1.393 . S
C2904 H2893 0.950 . S
C2904 C2902 1.391 . S
C2904 C2905 1.400 . S
C2905 C2899 1.491 . S
C2905 C2904 1.400 . S
C2905 C2906 1.398 . S
C2906 H2894 0.950 . S
C2906 C2905 1.398 . S
C2906 C2907 1.391 . S
C2907 H2895 0.950 . S
C2907 C2903 1.393 . S
C2907 C2906 1.391 . S
H2908 C2916 0.950 . S
H2909 C2921 0.950 . S
H2910 C2918 0.950 . S
H2911 C2920 0.950 . S
H2912 C2922 0.950 . S
H2913 C2924 0.950 . S
H2914 C2926 0.950 . S
H2915 C2927 0.950 . S
C2916 H2908 0.950 . S
C2916 C2917 1.386 . S
C2916 C2918 1.391 . S
C2917 C2916 1.386 . S
C2917 C2921 1.393 . S
C2918 H2910 0.950 . S
C2918 C2916 1.391 . S
C2918 C2919 1.400 . S
C2919 C2918 1.400 . S
C2919 C2920 1.398 . S
C2919 C2925 1.491 . S
C2920 H2911 0.950 . S
C2920 C2919 1.398 . S
C2920 C2921 1.391 . S
C2921 H2909 0.950 . S
C2921 C2917 1.393 . S
C2921 C2920 1.391 . S
C2922 H2912 0.950 . S
C2922 C2923 1.386 . S
C2922 C2924 1.391 . S
C2923 C2922 1.386 . S
C2923 C2927 1.393 . S
C2924 H2913 0.950 . S
C2924 C2922 1.391 . S
C2924 C2925 1.400 . S
C2925 C2919 1.491 . S
C2925 C2924 1.400 . S
C2925 C2926 1.398 . S
C2926 H2914 0.950 . S
C2926 C2925 1.398 . S
C2926 C2927 1.391 . S
C2927 H2915 0.950 . S
C2927 C2923 1.393 . S
C2927 C2926 1.391 . S
H2928 C2936 0.950 . S
H2929 C2941 0.950 . S
H2930 C2938 0.950 . S
H2931 C2940 0.950 . S
H2932 C2942 0.950 . S
H2933 C2944 0.950 . S
H2934 C2946 0.950 . S
H2935 C2947 0.950 . S
C2936 H2928 0.950 . S
C2936 C2937 1.386 . S
C2936 C2938 1.391 . S
C2937 C2936 1.386 . S
C2937 C2941 1.393 . S
C2938 H2930 0.950 . S
C2938 C2936 1.391 . S
C2938 C2939 1.400 . S
C2939 C2938 1.400 . S
C2939 C2940 1.398 . S
C2939 C2945 1.491 . S
C2940 H2931 0.950 . S
C2940 C2939 1.398 . S
C2940 C2941 1.391 . S
C2941 H2929 0.950 . S
C2941 C2937 1.393 . S
C2941 C2940 1.391 . S
C2942 H2932 0.950 . S
C2942 C2943 1.386 . S
C2942 C2944 1.391 . S
C2943 C2942 1.386 . S
C2943 C2947 1.393 . S
C2944 H2933 0.950 . S
C2944 C2942 1.391 . S
C2944 C2945 1.400 . S
C2945 C2939 1.491 . S
C2945 C2944 1.400 . S
C2945 C2946 1.398 . S
C2946 H2934 0.950 . S
C2946 C2945 1.398 . S
C2946 C2947 1.391 . S
C2947 H2935 0.950 . S
C2947 C2943 1.393 . S
C2947 C2946 1.391 . S
H2948 C2956 0.950 . S
H2949 C2961 0.950 . S
H2950 C2958 0.950 . S
H2951 C2960 0.950 . S
H2952 C2962 0.950 . S
H2953 C2964 0.950 . S
H2954 C2966 0.950 . S
H2955 C2967 0.950 . S
C2956 H2948 0.950 . S
C2956 C2957 1.386 . S
C2956 C2958 1.391 . S
C2957 C2956 1.386 . S
C2957 C2961 1.393 . S
C2958 H2950 0.950 . S
C2958 C2956 1.391 . S
C2958 C2959 1.400 . S
C2959 C2958 1.400 . S
C2959 C2960 1.398 . S
C2959 C2965 1.491 . S
C2960 H2951 0.950 . S
C2960 C2959 1.398 . S
C2960 C2961 1.391 . S
C2961 H2949 0.950 . S
C2961 C2957 1.393 . S
C2961 C2960 1.391 . S
C2962 H2952 0.950 . S
C2962 C2963 1.386 . S
C2962 C2964 1.391 . S
C2963 C2962 1.386 . S
C2963 C2967 1.393 . S
C2964 H2953 0.950 . S
C2964 C2962 1.391 . S
C2964 C2965 1.400 . S
C2965 C2959 1.491 . S
C2965 C2964 1.400 . S
C2965 C2966 1.398 . S
C2966 H2954 0.950 . S
C2966 C2965 1.398 . S
C2966 C2967 1.391 . S
C2967 H2955 0.950 . S
C2967 C2963 1.393 . S
C2967 C2966 1.391 . S
H2968 C2976 0.950 . S
H2969 C2981 0.950 . S
H2970 C2978 0.950 . S
H2971 C2980 0.950 . S
H2972 C2982 0.950 . S
H2973 C2984 0.950 . S
H2974 C2986 0.950 . S
H2975 C2987 0.950 . S
C2976 H2968 0.950 . S
C2976 C2977 1.386 . S
C2976 C2978 1.391 . S
C2977 C2976 1.386 . S
C2977 C2981 1.393 . S
C2978 H2970 0.950 . S
C2978 C2976 1.391 . S
C2978 C2979 1.400 . S
C2979 C2978 1.400 . S
C2979 C2980 1.398 . S
C2979 C2985 1.491 . S
C2980 H2971 0.950 . S
C2980 C2979 1.398 . S
C2980 C2981 1.391 . S
C2981 H2969 0.950 . S
C2981 C2977 1.393 . S
C2981 C2980 1.391 . S
C2982 H2972 0.950 . S
C2982 C2983 1.386 . S
C2982 C2984 1.391 . S
C2983 C2982 1.386 . S
C2983 C2987 1.393 . S
C2984 H2973 0.950 . S
C2984 C2982 1.391 . S
C2984 C2985 1.400 . S
C2985 C2979 1.491 . S
C2985 C2984 1.400 . S
C2985 C2986 1.398 . S
C2986 H2974 0.950 . S
C2986 C2985 1.398 . S
C2986 C2987 1.391 . S
C2987 H2975 0.950 . S
C2987 C2983 1.393 . S
C2987 C2986 1.391 . S
H2988 C2996 0.950 . S
H2989 C3001 0.950 . S
H2990 C2998 0.950 . S
H2991 C3000 0.950 . S
H2992 C3002 0.950 . S
H2993 C3004 0.950 . S
H2994 C3006 0.950 . S
H2995 C3007 0.950 . S
C2996 H2988 0.950 . S
C2996 C2997 1.386 . S
C2996 C2998 1.391 . S
C2997 C2996 1.386 . S
C2997 C3001 1.393 . S
C2998 H2990 0.950 . S
C2998 C2996 1.391 . S
C2998 C2999 1.400 . S
C2999 C2998 1.400 . S
C2999 C3000 1.398 . S
C2999 C3005 1.491 . S
C3000 H2991 0.950 . S
C3000 C2999 1.398 . S
C3000 C3001 1.391 . S
C3001 H2989 0.950 . S
C3001 C2997 1.393 . S
C3001 C3000 1.391 . S
C3002 H2992 0.950 . S
C3002 C3003 1.386 . S
C3002 C3004 1.391 . S
C3003 C3002 1.386 . S
C3003 C3007 1.393 . S
C3004 H2993 0.950 . S
C3004 C3002 1.391 . S
C3004 C3005 1.400 . S
C3005 C2999 1.491 . S
C3005 C3004 1.400 . S
C3005 C3006 1.398 . S
C3006 H2994 0.950 . S
C3006 C3005 1.398 . S
C3006 C3007 1.391 . S
C3007 H2995 0.950 . S
C3007 C3003 1.393 . S
C3007 C3006 1.391 . S
H3008 C3016 0.950 . S
H3009 C3021 0.950 . S
H3010 C3018 0.950 . S
H3011 C3020 0.950 . S
H3012 C3022 0.950 . S
H3013 C3024 0.950 . S
H3014 C3026 0.950 . S
H3015 C3027 0.950 . S
C3016 H3008 0.950 . S
C3016 C3017 1.386 . S
C3016 C3018 1.391 . S
C3017 C3016 1.386 . S
C3017 C3021 1.393 . S
C3018 H3010 0.950 . S
C3018 C3016 1.391 . S
C3018 C3019 1.400 . S
C3019 C3018 1.400 . S
C3019 C3020 1.398 . S
C3019 C3025 1.491 . S
C3020 H3011 0.950 . S
C3020 C3019 1.398 . S
C3020 C3021 1.391 . S
C3021 H3009 0.950 . S
C3021 C3017 1.393 . S
C3021 C3020 1.391 . S
C3022 H3012 0.950 . S
C3022 C3023 1.386 . S
C3022 C3024 1.391 . S
C3023 C3022 1.386 . S
C3023 C3027 1.393 . S
C3024 H3013 0.950 . S
C3024 C3022 1.391 . S
C3024 C3025 1.400 . S
C3025 C3019 1.491 . S
C3025 C3024 1.400 . S
C3025 C3026 1.398 . S
C3026 H3014 0.950 . S
C3026 C3025 1.398 . S
C3026 C3027 1.391 . S
C3027 H3015 0.950 . S
C3027 C3023 1.393 . S
C3027 C3026 1.391 . S
H3028 C3036 0.950 . S
H3029 C3041 0.950 . S
H3030 C3038 0.950 . S
H3031 C3040 0.950 . S
H3032 C3042 0.950 . S
H3033 C3044 0.950 . S
H3034 C3046 0.950 . S
H3035 C3047 0.950 . S
C3036 H3028 0.950 . S
C3036 C3037 1.386 . S
C3036 C3038 1.391 . S
C3037 C3036 1.386 . S
C3037 C3041 1.393 . S
C3038 H3030 0.950 . S
C3038 C3036 1.391 . S
C3038 C3039 1.400 . S
C3039 C3038 1.400 . S
C3039 C3040 1.398 . S
C3039 C3045 1.491 . S
C3040 H3031 0.950 . S
C3040 C3039 1.398 . S
C3040 C3041 1.391 . S
C3041 H3029 0.950 . S
C3041 C3037 1.393 . S
C3041 C3040 1.391 . S
C3042 H3032 0.950 . S
C3042 C3043 1.386 . S
C3042 C3044 1.391 . S
C3043 C3042 1.386 . S
C3043 C3047 1.393 . S
C3044 H3033 0.950 . S
C3044 C3042 1.391 . S
C3044 C3045 1.400 . S
C3045 C3039 1.491 . S
C3045 C3044 1.400 . S
C3045 C3046 1.398 . S
C3046 H3034 0.950 . S
C3046 C3045 1.398 . S
C3046 C3047 1.391 . S
C3047 H3035 0.950 . S
C3047 C3043 1.393 . S
C3047 C3046 1.391 . S
H3048 C3056 0.950 . S
H3049 C3061 0.950 . S
H3050 C3058 0.950 . S
H3051 C3060 0.950 . S
H3052 C3062 0.950 . S
H3053 C3064 0.950 . S
H3054 C3066 0.950 . S
H3055 C3067 0.950 . S
C3056 H3048 0.950 . S
C3056 C3057 1.386 . S
C3056 C3058 1.391 . S
C3057 C3056 1.386 . S
C3057 C3061 1.393 . S
C3058 H3050 0.950 . S
C3058 C3056 1.391 . S
C3058 C3059 1.400 . S
C3059 C3058 1.400 . S
C3059 C3060 1.398 . S
C3059 C3065 1.491 . S
C3060 H3051 0.950 . S
C3060 C3059 1.398 . S
C3060 C3061 1.391 . S
C3061 H3049 0.950 . S
C3061 C3057 1.393 . S
C3061 C3060 1.391 . S
C3062 H3052 0.950 . S
C3062 C3063 1.386 . S
C3062 C3064 1.391 . S
C3063 C3062 1.386 . S
C3063 C3067 1.393 . S
C3064 H3053 0.950 . S
C3064 C3062 1.391 . S
C3064 C3065 1.400 . S
C3065 C3059 1.491 . S
C3065 C3064 1.400 . S
C3065 C3066 1.398 . S
C3066 H3054 0.950 . S
C3066 C3065 1.398 . S
C3066 C3067 1.391 . S
C3067 H3055 0.950 . S
C3067 C3063 1.393 . S
C3067 C3066 1.391 . S
H3068 C3076 0.950 . S
H3069 C3081 0.950 . S
H3070 C3078 0.950 . S
H3071 C3080 0.950 . S
H3072 C3082 0.950 . S
H3073 C3084 0.950 . S
H3074 C3086 0.950 . S
H3075 C3087 0.950 . S
C3076 H3068 0.950 . S
C3076 C3077 1.386 . S
C3076 C3078 1.391 . S
C3077 C3076 1.386 . S
C3077 C3081 1.393 . S
C3078 H3070 0.950 . S
C3078 C3076 1.391 . S
C3078 C3079 1.400 . S
C3079 C3078 1.400 . S
C3079 C3080 1.398 . S
C3079 C3085 1.491 . S
C3080 H3071 0.950 . S
C3080 C3079 1.398 . S
C3080 C3081 1.391 . S
C3081 H3069 0.950 . S
C3081 C3077 1.393 . S
C3081 C3080 1.391 . S
C3082 H3072 0.950 . S
C3082 C3083 1.386 . S
C3082 C3084 1.391 . S
C3083 C3082 1.386 . S
C3083 C3087 1.393 . S
C3084 H3073 0.950 . S
C3084 C3082 1.391 . S
C3084 C3085 1.400 . S
C3085 C3079 1.491 . S
C3085 C3084 1.400 . S
C3085 C3086 1.398 . S
C3086 H3074 0.950 . S
C3086 C3085 1.398 . S
C3086 C3087 1.391 . S
C3087 H3075 0.950 . S
C3087 C3083 1.393 . S
C3087 C3086 1.391 . S
H3088 C3096 0.950 . S
H3089 C3101 0.950 . S
H3090 C3098 0.950 . S
H3091 C3100 0.950 . S
H3092 C3102 0.950 . S
H3093 C3104 0.950 . S
H3094 C3106 0.950 . S
H3095 C3107 0.950 . S
C3096 H3088 0.950 . S
C3096 C3097 1.386 . S
C3096 C3098 1.391 . S
C3097 C3096 1.386 . S
C3097 C3101 1.393 . S
C3098 H3090 0.950 . S
C3098 C3096 1.391 . S
C3098 C3099 1.400 . S
C3099 C3098 1.400 . S
C3099 C3100 1.398 . S
C3099 C3105 1.491 . S
C3100 H3091 0.950 . S
C3100 C3099 1.398 . S
C3100 C3101 1.391 . S
C3101 H3089 0.950 . S
C3101 C3097 1.393 . S
C3101 C3100 1.391 . S
C3102 H3092 0.950 . S
C3102 C3103 1.386 . S
C3102 C3104 1.391 . S
C3103 C3102 1.386 . S
C3103 C3107 1.393 . S
C3104 H3093 0.950 . S
C3104 C3102 1.391 . S
C3104 C3105 1.400 . S
C3105 C3099 1.491 . S
C3105 C3104 1.400 . S
C3105 C3106 1.398 . S
C3106 H3094 0.950 . S
C3106 C3105 1.398 . S
C3106 C3107 1.391 . S
C3107 H3095 0.950 . S
C3107 C3103 1.393 . S
C3107 C3106 1.391 . S
H3108 C3116 0.950 . S
H3109 C3121 0.950 . S
H3110 C3118 0.950 . S
H3111 C3120 0.950 . S
H3112 C3122 0.950 . S
H3113 C3124 0.950 . S
H3114 C3126 0.950 . S
H3115 C3127 0.950 . S
C3116 H3108 0.950 . S
C3116 C3117 1.386 . S
C3116 C3118 1.391 . S
C3117 C3116 1.386 . S
C3117 C3121 1.393 . S
C3118 H3110 0.950 . S
C3118 C3116 1.391 . S
C3118 C3119 1.400 . S
C3119 C3118 1.400 . S
C3119 C3120 1.398 . S
C3119 C3125 1.491 . S
C3120 H3111 0.950 . S
C3120 C3119 1.398 . S
C3120 C3121 1.391 . S
C3121 H3109 0.950 . S
C3121 C3117 1.393 . S
C3121 C3120 1.391 . S
C3122 H3112 0.950 . S
C3122 C3123 1.386 . S
C3122 C3124 1.391 . S
C3123 C3122 1.386 . S
C3123 C3127 1.393 . S
C3124 H3113 0.950 . S
C3124 C3122 1.391 . S
C3124 C3125 1.400 . S
C3125 C3119 1.491 . S
C3125 C3124 1.400 . S
C3125 C3126 1.398 . S
C3126 H3114 0.950 . S
C3126 C3125 1.398 . S
C3126 C3127 1.391 . S
C3127 H3115 0.950 . S
C3127 C3123 1.393 . S
C3127 C3126 1.391 . S
H3128 C3136 0.950 . S
H3129 C3141 0.950 . S
H3130 C3138 0.950 . S
H3131 C3140 0.950 . S
H3132 C3142 0.950 . S
H3133 C3144 0.950 . S
H3134 C3146 0.950 . S
H3135 C3147 0.950 . S
C3136 H3128 0.950 . S
C3136 C3137 1.386 . S
C3136 C3138 1.391 . S
C3137 C3136 1.386 . S
C3137 C3141 1.393 . S
C3138 H3130 0.950 . S
C3138 C3136 1.391 . S
C3138 C3139 1.400 . S
C3139 C3138 1.400 . S
C3139 C3140 1.398 . S
C3139 C3145 1.491 . S
C3140 H3131 0.950 . S
C3140 C3139 1.398 . S
C3140 C3141 1.391 . S
C3141 H3129 0.950 . S
C3141 C3137 1.393 . S
C3141 C3140 1.391 . S
C3142 H3132 0.950 . S
C3142 C3143 1.386 . S
C3142 C3144 1.391 . S
C3143 C3142 1.386 . S
C3143 C3147 1.393 . S
C3144 H3133 0.950 . S
C3144 C3142 1.391 . S
C3144 C3145 1.400 . S
C3145 C3139 1.491 . S
C3145 C3144 1.400 . S
C3145 C3146 1.398 . S
C3146 H3134 0.950 . S
C3146 C3145 1.398 . S
C3146 C3147 1.391 . S
C3147 H3135 0.950 . S
C3147 C3143 1.393 . S
C3147 C3146 1.391 . S
H3148 C3156 0.950 . S
H3149 C3161 0.950 . S
H3150 C3158 0.950 . S
H3151 C3160 0.950 . S
H3152 C3162 0.950 . S
H3153 C3164 0.950 . S
H3154 C3166 0.950 . S
H3155 C3167 0.950 . S
C3156 H3148 0.950 . S
C3156 C3157 1.386 . S
C3156 C3158 1.391 . S
C3157 C3156 1.386 . S
C3157 C3161 1.393 . S
C3158 H3150 0.950 . S
C3158 C3156 1.391 . S
C3158 C3159 1.400 . S
C3159 C3158 1.400 . S
C3159 C3160 1.398 . S
C3159 C3165 1.491 . S
C3160 H3151 0.950 . S
C3160 C3159 1.398 . S
C3160 C3161 1.391 . S
C3161 H3149 0.950 . S
C3161 C3157 1.393 . S
C3161 C3160 1.391 . S
C3162 H3152 0.950 . S
C3162 C3163 1.386 . S
C3162 C3164 1.391 . S
C3163 C3162 1.386 . S
C3163 C3167 1.393 . S
C3164 H3153 0.950 . S
C3164 C3162 1.391 . S
C3164 C3165 1.400 . S
C3165 C3159 1.491 . S
C3165 C3164 1.400 . S
C3165 C3166 1.398 . S
C3166 H3154 0.950 . S
C3166 C3165 1.398 . S
C3166 C3167 1.391 . S
C3167 H3155 0.950 . S
C3167 C3163 1.393 . S
C3167 C3166 1.391 . S
H3168 C3176 0.950 . S
H3169 C3181 0.950 . S
H3170 C3178 0.950 . S
H3171 C3180 0.950 . S
H3172 C3182 0.950 . S
H3173 C3184 0.950 . S
H3174 C3186 0.950 . S
H3175 C3187 0.950 . S
C3176 H3168 0.950 . S
C3176 C3177 1.386 . S
C3176 C3178 1.391 . S
C3177 C3176 1.386 . S
C3177 C3181 1.393 . S
C3178 H3170 0.950 . S
C3178 C3176 1.391 . S
C3178 C3179 1.400 . S
C3179 C3178 1.400 . S
C3179 C3180 1.398 . S
C3179 C3185 1.491 1_455 S
C3180 H3171 0.950 . S
C3180 C3179 1.398 . S
C3180 C3181 1.391 . S
C3181 H3169 0.950 . S
C3181 C3177 1.393 . S
C3181 C3180 1.391 . S
C3182 H3172 0.950 . S
C3182 C3183 1.386 . S
C3182 C3184 1.391 . S
C3183 C3182 1.386 . S
C3183 C3187 1.393 . S
C3184 H3173 0.950 . S
C3184 C3182 1.391 . S
C3184 C3185 1.400 . S
C3185 C3179 1.491 1_655 S
C3185 C3184 1.400 . S
C3185 C3186 1.398 . S
C3186 H3174 0.950 . S
C3186 C3185 1.398 . S
C3186 C3187 1.391 . S
C3187 H3175 0.950 . S
C3187 C3183 1.393 . S
C3187 C3186 1.391 . S
H3188 C3196 0.950 . S
H3189 C3201 0.950 . S
H3190 C3198 0.950 . S
H3191 C3200 0.950 . S
H3192 C3202 0.950 . S
H3193 C3204 0.950 . S
H3194 C3206 0.950 . S
H3195 C3207 0.950 . S
C3196 H3188 0.950 . S
C3196 C3197 1.386 . S
C3196 C3198 1.391 . S
C3197 C3196 1.386 . S
C3197 C3201 1.393 . S
C3198 H3190 0.950 . S
C3198 C3196 1.391 . S
C3198 C3199 1.400 . S
C3199 C3198 1.400 . S
C3199 C3200 1.398 . S
C3199 C3205 1.491 1_565 S
C3200 H3191 0.950 . S
C3200 C3199 1.398 . S
C3200 C3201 1.391 . S
C3201 H3189 0.950 . S
C3201 C3197 1.393 . S
C3201 C3200 1.391 . S
C3202 H3192 0.950 . S
C3202 C3203 1.386 . S
C3202 C3204 1.391 . S
C3203 C3202 1.386 . S
C3203 C3207 1.393 . S
C3204 H3193 0.950 . S
C3204 C3202 1.391 . S
C3204 C3205 1.400 . S
C3205 C3199 1.491 1_545 S
C3205 C3204 1.400 . S
C3205 C3206 1.398 . S
C3206 H3194 0.950 . S
C3206 C3205 1.398 . S
C3206 C3207 1.391 . S
C3207 H3195 0.950 . S
C3207 C3203 1.393 . S
C3207 C3206 1.391 . S
H3208 C3216 0.950 . S
H3209 C3221 0.950 . S
H3210 C3218 0.950 . S
H3211 C3220 0.950 . S
H3212 C3222 0.950 . S
H3213 C3224 0.950 . S
H3214 C3226 0.950 . S
H3215 C3227 0.950 . S
C3216 H3208 0.950 . S
C3216 C3217 1.386 . S
C3216 C3218 1.391 . S
C3217 C3216 1.386 . S
C3217 C3221 1.393 . S
C3218 H3210 0.950 . S
C3218 C3216 1.391 . S
C3218 C3219 1.400 . S
C3219 C3218 1.400 . S
C3219 C3220 1.398 . S
C3219 C3225 1.491 1_655 S
C3220 H3211 0.950 . S
C3220 C3219 1.398 . S
C3220 C3221 1.391 . S
C3221 H3209 0.950 . S
C3221 C3217 1.393 . S
C3221 C3220 1.391 . S
C3222 H3212 0.950 . S
C3222 C3223 1.386 . S
C3222 C3224 1.391 . S
C3223 C3222 1.386 . S
C3223 C3227 1.393 . S
C3224 H3213 0.950 . S
C3224 C3222 1.391 . S
C3224 C3225 1.400 . S
C3225 C3219 1.491 1_455 S
C3225 C3224 1.400 . S
C3225 C3226 1.398 . S
C3226 H3214 0.950 . S
C3226 C3225 1.398 . S
C3226 C3227 1.391 . S
C3227 H3215 0.950 . S
C3227 C3223 1.393 . S
C3227 C3226 1.391 . S
H3228 C3236 0.950 . S
H3229 C3241 0.950 . S
H3230 C3238 0.950 . S
H3231 C3240 0.950 . S
H3232 C3242 0.950 . S
H3233 C3244 0.950 . S
H3234 C3246 0.950 . S
H3235 C3247 0.950 . S
C3236 H3228 0.950 . S
C3236 C3237 1.386 . S
C3236 C3238 1.391 . S
C3237 C3236 1.386 . S
C3237 C3241 1.393 . S
C3238 H3230 0.950 . S
C3238 C3236 1.391 . S
C3238 C3239 1.400 . S
C3239 C3238 1.400 . S
C3239 C3240 1.398 . S
C3239 C3245 1.491 1_545 S
C3240 H3231 0.950 . S
C3240 C3239 1.398 . S
C3240 C3241 1.391 . S
C3241 H3229 0.950 . S
C3241 C3237 1.393 . S
C3241 C3240 1.391 . S
C3242 H3232 0.950 . S
C3242 C3243 1.386 . S
C3242 C3244 1.391 . S
C3243 C3242 1.386 . S
C3243 C3247 1.393 . S
C3244 H3233 0.950 . S
C3244 C3242 1.391 . S
C3244 C3245 1.400 . S
C3245 C3239 1.491 1_565 S
C3245 C3244 1.400 . S
C3245 C3246 1.398 . S
C3246 H3234 0.950 . S
C3246 C3245 1.398 . S
C3246 C3247 1.391 . S
C3247 H3235 0.950 . S
C3247 C3243 1.393 . S
C3247 C3246 1.391 . S
H3248 C3256 0.950 . S
H3249 C3261 0.950 . S
H3250 C3258 0.950 . S
H3251 C3260 0.950 . S
H3252 C3262 0.950 . S
H3253 C3264 0.950 . S
H3254 C3266 0.950 . S
H3255 C3267 0.950 . S
C3256 H3248 0.950 . S
C3256 C3257 1.386 . S
C3256 C3258 1.391 . S
C3257 C3256 1.386 . S
C3257 C3261 1.393 . S
C3258 H3250 0.950 . S
C3258 C3256 1.391 . S
C3258 C3259 1.400 . S
C3259 C3258 1.400 . S
C3259 C3260 1.398 . S
C3259 C3265 1.491 1_455 S
C3260 H3251 0.950 . S
C3260 C3259 1.398 . S
C3260 C3261 1.391 . S
C3261 H3249 0.950 . S
C3261 C3257 1.393 . S
C3261 C3260 1.391 . S
C3262 H3252 0.950 . S
C3262 C3263 1.386 . S
C3262 C3264 1.391 . S
C3263 C3262 1.386 . S
C3263 C3267 1.393 . S
C3264 H3253 0.950 . S
C3264 C3262 1.391 . S
C3264 C3265 1.400 . S
C3265 C3259 1.491 1_655 S
C3265 C3264 1.400 . S
C3265 C3266 1.398 . S
C3266 H3254 0.950 . S
C3266 C3265 1.398 . S
C3266 C3267 1.391 . S
C3267 H3255 0.950 . S
C3267 C3263 1.393 . S
C3267 C3266 1.391 . S
H3268 C3276 0.950 . S
H3269 C3281 0.950 . S
H3270 C3278 0.950 . S
H3271 C3280 0.950 . S
H3272 C3282 0.950 . S
H3273 C3284 0.950 . S
H3274 C3286 0.950 . S
H3275 C3287 0.950 . S
C3276 H3268 0.950 . S
C3276 C3277 1.386 . S
C3276 C3278 1.391 . S
C3277 C3276 1.386 . S
C3277 C3281 1.393 . S
C3278 H3270 0.950 . S
C3278 C3276 1.391 . S
C3278 C3279 1.400 . S
C3279 C3278 1.400 . S
C3279 C3280 1.398 . S
C3279 C3285 1.491 1_545 S
C3280 H3271 0.950 . S
C3280 C3279 1.398 . S
C3280 C3281 1.391 . S
C3281 H3269 0.950 . S
C3281 C3277 1.393 . S
C3281 C3280 1.391 . S
C3282 H3272 0.950 . S
C3282 C3283 1.386 . S
C3282 C3284 1.391 . S
C3283 C3282 1.386 . S
C3283 C3287 1.393 . S
C3284 H3273 0.950 . S
C3284 C3282 1.391 . S
C3284 C3285 1.400 . S
C3285 C3279 1.491 1_565 S
C3285 C3284 1.400 . S
C3285 C3286 1.398 . S
C3286 H3274 0.950 . S
C3286 C3285 1.398 . S
C3286 C3287 1.391 . S
C3287 H3275 0.950 . S
C3287 C3283 1.393 . S
C3287 C3286 1.391 . S
H3288 C3296 0.950 . S
H3289 C3301 0.950 . S
H3290 C3298 0.950 . S
H3291 C3300 0.950 . S
H3292 C3302 0.950 . S
H3293 C3304 0.950 . S
H3294 C3306 0.950 . S
H3295 C3307 0.950 . S
C3296 H3288 0.950 . S
C3296 C3297 1.386 . S
C3296 C3298 1.391 . S
C3297 C3296 1.386 . S
C3297 C3301 1.393 . S
C3298 H3290 0.950 . S
C3298 C3296 1.391 . S
C3298 C3299 1.400 . S
C3299 C3298 1.400 . S
C3299 C3300 1.398 . S
C3299 C3305 1.491 1_655 S
C3300 H3291 0.950 . S
C3300 C3299 1.398 . S
C3300 C3301 1.391 . S
C3301 H3289 0.950 . S
C3301 C3297 1.393 . S
C3301 C3300 1.391 . S
C3302 H3292 0.950 . S
C3302 C3303 1.386 . S
C3302 C3304 1.391 . S
C3303 C3302 1.386 . S
C3303 C3307 1.393 . S
C3304 H3293 0.950 . S
C3304 C3302 1.391 . S
C3304 C3305 1.400 . S
C3305 C3299 1.491 1_455 S
C3305 C3304 1.400 . S
C3305 C3306 1.398 . S
C3306 H3294 0.950 . S
C3306 C3305 1.398 . S
C3306 C3307 1.391 . S
C3307 H3295 0.950 . S
C3307 C3303 1.393 . S
C3307 C3306 1.391 . S
H3308 C3316 0.950 . S
H3309 C3321 0.950 . S
H3310 C3318 0.950 . S
H3311 C3320 0.950 . S
H3312 C3322 0.950 . S
H3313 C3324 0.950 . S
H3314 C3326 0.950 . S
H3315 C3327 0.950 . S
C3316 H3308 0.950 . S
C3316 C3317 1.386 . S
C3316 C3318 1.391 . S
C3317 C3316 1.386 . S
C3317 C3321 1.393 . S
C3318 H3310 0.950 . S
C3318 C3316 1.391 . S
C3318 C3319 1.400 . S
C3319 C3318 1.400 . S
C3319 C3320 1.398 . S
C3319 C3325 1.491 1_545 S
C3320 H3311 0.950 . S
C3320 C3319 1.398 . S
C3320 C3321 1.391 . S
C3321 H3309 0.950 . S
C3321 C3317 1.393 . S
C3321 C3320 1.391 . S
C3322 H3312 0.950 . S
C3322 C3323 1.386 . S
C3322 C3324 1.391 . S
C3323 C3322 1.386 . S
C3323 C3327 1.393 . S
C3324 H3313 0.950 . S
C3324 C3322 1.391 . S
C3324 C3325 1.400 . S
C3325 C3319 1.491 1_565 S
C3325 C3324 1.400 . S
C3325 C3326 1.398 . S
C3326 H3314 0.950 . S
C3326 C3325 1.398 . S
C3326 C3327 1.391 . S
C3327 H3315 0.950 . S
C3327 C3323 1.393 . S
C3327 C3326 1.391 . S
H3328 C3336 0.950 . S
H3329 C3341 0.950 . S
H3330 C3338 0.950 . S
H3331 C3340 0.950 . S
H3332 C3342 0.950 . S
H3333 C3344 0.950 . S
H3334 C3346 0.950 . S
H3335 C3347 0.950 . S
C3336 H3328 0.950 . S
C3336 C3337 1.386 . S
C3336 C3338 1.391 . S
C3337 C3336 1.386 . S
C3337 C3341 1.393 . S
C3338 H3330 0.950 . S
C3338 C3336 1.391 . S
C3338 C3339 1.400 . S
C3339 C3338 1.400 . S
C3339 C3340 1.398 . S
C3339 C3345 1.491 1_565 S
C3340 H3331 0.950 . S
C3340 C3339 1.398 . S
C3340 C3341 1.391 . S
C3341 H3329 0.950 . S
C3341 C3337 1.393 . S
C3341 C3340 1.391 . S
C3342 H3332 0.950 . S
C3342 C3343 1.386 . S
C3342 C3344 1.391 . S
C3343 C3342 1.386 . S
C3343 C3347 1.393 . S
C3344 H3333 0.950 . S
C3344 C3342 1.391 . S
C3344 C3345 1.400 . S
C3345 C3339 1.491 1_545 S
C3345 C3344 1.400 . S
C3345 C3346 1.398 . S
C3346 H3334 0.950 . S
C3346 C3345 1.398 . S
C3346 C3347 1.391 . S
C3347 H3335 0.950 . S
C3347 C3343 1.393 . S
C3347 C3346 1.391 . S
H3348 C3356 0.950 . S
H3349 C3361 0.950 . S
H3350 C3358 0.950 . S
H3351 C3360 0.950 . S
H3352 C3362 0.950 . S
H3353 C3364 0.950 . S
H3354 C3366 0.950 . S
H3355 C3367 0.950 . S
C3356 H3348 0.950 . S
C3356 C3357 1.386 . S
C3356 C3358 1.391 . S
C3357 C3356 1.386 . S
C3357 C3361 1.393 . S
C3358 H3350 0.950 . S
C3358 C3356 1.391 . S
C3358 C3359 1.400 . S
C3359 C3358 1.400 . S
C3359 C3360 1.398 . S
C3359 C3365 1.491 1_655 S
C3360 H3351 0.950 . S
C3360 C3359 1.398 . S
C3360 C3361 1.391 . S
C3361 H3349 0.950 . S
C3361 C3357 1.393 . S
C3361 C3360 1.391 . S
C3362 H3352 0.950 . S
C3362 C3363 1.386 . S
C3362 C3364 1.391 . S
C3363 C3362 1.386 . S
C3363 C3367 1.393 . S
C3364 H3353 0.950 . S
C3364 C3362 1.391 . S
C3364 C3365 1.400 . S
C3365 C3359 1.491 1_455 S
C3365 C3364 1.400 . S
C3365 C3366 1.398 . S
C3366 H3354 0.950 . S
C3366 C3365 1.398 . S
C3366 C3367 1.391 . S
C3367 H3355 0.950 . S
C3367 C3363 1.393 . S
C3367 C3366 1.391 . S
H3368 C3376 0.950 . S
H3369 C3381 0.950 . S
H3370 C3378 0.950 . S
H3371 C3380 0.950 . S
H3372 C3382 0.950 . S
H3373 C3384 0.950 . S
H3374 C3386 0.950 . S
H3375 C3387 0.950 . S
C3376 H3368 0.950 . S
C3376 C3377 1.386 . S
C3376 C3378 1.391 . S
C3377 C3376 1.386 . S
C3377 C3381 1.393 . S
C3378 H3370 0.950 . S
C3378 C3376 1.391 . S
C3378 C3379 1.400 . S
C3379 C3378 1.400 . S
C3379 C3380 1.398 . S
C3379 C3385 1.491 1_565 S
C3380 H3371 0.950 . S
C3380 C3379 1.398 . S
C3380 C3381 1.391 . S
C3381 H3369 0.950 . S
C3381 C3377 1.393 . S
C3381 C3380 1.391 . S
C3382 H3372 0.950 . S
C3382 C3383 1.386 . S
C3382 C3384 1.391 . S
C3383 C3382 1.386 . S
C3383 C3387 1.393 . S
C3384 H3373 0.950 . S
C3384 C3382 1.391 . S
C3384 C3385 1.400 . S
C3385 C3379 1.491 1_545 S
C3385 C3384 1.400 . S
C3385 C3386 1.398 . S
C3386 H3374 0.950 . S
C3386 C3385 1.398 . S
C3386 C3387 1.391 . S
C3387 H3375 0.950 . S
C3387 C3383 1.393 . S
C3387 C3386 1.391 . S
H3388 C3396 0.950 . S
H3389 C3401 0.950 . S
H3390 C3398 0.950 . S
H3391 C3400 0.950 . S
H3392 C3402 0.950 . S
H3393 C3404 0.950 . S
H3394 C3406 0.950 . S
H3395 C3407 0.950 . S
C3396 H3388 0.950 . S
C3396 C3397 1.386 . S
C3396 C3398 1.391 . S
C3397 C3396 1.386 . S
C3397 C3401 1.393 . S
C3398 H3390 0.950 . S
C3398 C3396 1.391 . S
C3398 C3399 1.400 . S
C3399 C3398 1.400 . S
C3399 C3400 1.398 . S
C3399 C3405 1.491 1_455 S
C3400 H3391 0.950 . S
C3400 C3399 1.398 . S
C3400 C3401 1.391 . S
C3401 H3389 0.950 . S
C3401 C3397 1.393 . S
C3401 C3400 1.391 . S
C3402 H3392 0.950 . S
C3402 C3403 1.386 . S
C3402 C3404 1.391 . S
C3403 C3402 1.386 . S
C3403 C3407 1.393 . S
C3404 H3393 0.950 . S
C3404 C3402 1.391 . S
C3404 C3405 1.400 . S
C3405 C3399 1.491 1_655 S
C3405 C3404 1.400 . S
C3405 C3406 1.398 . S
C3406 H3394 0.950 . S
C3406 C3405 1.398 . S
C3406 C3407 1.391 . S
C3407 H3395 0.950 . S
C3407 C3403 1.393 . S
C3407 C3406 1.391 . S
H3408 C3416 0.950 . S
H3409 C3421 0.950 . S
H3410 C3418 0.950 . S
H3411 C3420 0.950 . S
H3412 C3422 0.950 . S
H3413 C3424 0.950 . S
H3414 C3426 0.950 . S
H3415 C3427 0.950 . S
C3416 H3408 0.950 . S
C3416 C3417 1.386 . S
C3416 C3418 1.391 . S
C3417 C3416 1.386 . S
C3417 C3421 1.393 . S
C3418 H3410 0.950 . S
C3418 C3416 1.391 . S
C3418 C3419 1.400 . S
C3419 C3418 1.400 . S
C3419 C3420 1.398 . S
C3419 C3425 1.491 1_565 S
C3420 H3411 0.950 . S
C3420 C3419 1.398 . S
C3420 C3421 1.391 . S
C3421 H3409 0.950 . S
C3421 C3417 1.393 . S
C3421 C3420 1.391 . S
C3422 H3412 0.950 . S
C3422 C3423 1.386 . S
C3422 C3424 1.391 . S
C3423 C3422 1.386 . S
C3423 C3427 1.393 . S
C3424 H3413 0.950 . S
C3424 C3422 1.391 . S
C3424 C3425 1.400 . S
C3425 C3419 1.491 1_545 S
C3425 C3424 1.400 . S
C3425 C3426 1.398 . S
C3426 H3414 0.950 . S
C3426 C3425 1.398 . S
C3426 C3427 1.391 . S
C3427 H3415 0.950 . S
C3427 C3423 1.393 . S
C3427 C3426 1.391 . S
H3428 C3436 0.950 . S
H3429 C3441 0.950 . S
H3430 C3438 0.950 . S
H3431 C3440 0.950 . S
H3432 C3442 0.950 . S
H3433 C3444 0.950 . S
H3434 C3446 0.950 . S
H3435 C3447 0.950 . S
C3436 H3428 0.950 . S
C3436 C3437 1.386 . S
C3436 C3438 1.391 . S
C3437 C3436 1.386 . S
C3437 C3441 1.393 . S
C3438 H3430 0.950 . S
C3438 C3436 1.391 . S
C3438 C3439 1.400 . S
C3439 C3438 1.400 . S
C3439 C3440 1.398 . S
C3439 C3445 1.491 1_455 S
C3440 H3431 0.950 . S
C3440 C3439 1.398 . S
C3440 C3441 1.391 . S
C3441 H3429 0.950 . S
C3441 C3437 1.393 . S
C3441 C3440 1.391 . S
C3442 H3432 0.950 . S
C3442 C3443 1.386 . S
C3442 C3444 1.391 . S
C3443 C3442 1.386 . S
C3443 C3447 1.393 . S
C3444 H3433 0.950 . S
C3444 C3442 1.391 . S
C3444 C3445 1.400 . S
C3445 C3439 1.491 1_655 S
C3445 C3444 1.400 . S
C3445 C3446 1.398 . S
C3446 H3434 0.950 . S
C3446 C3445 1.398 . S
C3446 C3447 1.391 . S
C3447 H3435 0.950 . S
C3447 C3443 1.393 . S
C3447 C3446 1.391 . S
H3448 C3456 0.950 . S
H3449 C3461 0.950 . S
H3450 C3458 0.950 . S
H3451 C3460 0.950 . S
H3452 C3462 0.950 . S
H3453 C3464 0.950 . S
H3454 C3466 0.950 . S
H3455 C3467 0.950 . S
C3456 H3448 0.950 . S
C3456 C3457 1.386 . S
C3456 C3458 1.391 . S
C3457 C3456 1.386 . S
C3457 C3461 1.393 . S
C3458 H3450 0.950 . S
C3458 C3456 1.391 . S
C3458 C3459 1.400 . S
C3459 C3458 1.400 . S
C3459 C3460 1.398 . S
C3459 C3465 1.491 1_545 S
C3460 H3451 0.950 . S
C3460 C3459 1.398 . S
C3460 C3461 1.391 . S
C3461 H3449 0.950 . S
C3461 C3457 1.393 . S
C3461 C3460 1.391 . S
C3462 H3452 0.950 . S
C3462 C3463 1.386 . S
C3462 C3464 1.391 . S
C3463 C3462 1.386 . S
C3463 C3467 1.393 . S
C3464 H3453 0.950 . S
C3464 C3462 1.391 . S
C3464 C3465 1.400 . S
C3465 C3459 1.491 1_565 S
C3465 C3464 1.400 . S
C3465 C3466 1.398 . S
C3466 H3454 0.950 . S
C3466 C3465 1.398 . S
C3466 C3467 1.391 . S
C3467 H3455 0.950 . S
C3467 C3463 1.393 . S
C3467 C3466 1.391 . S
H3468 C3476 0.950 . S
H3469 C3481 0.950 . S
H3470 C3478 0.950 . S
H3471 C3480 0.950 . S
H3472 C3482 0.950 . S
H3473 C3484 0.950 . S
H3474 C3486 0.950 . S
H3475 C3487 0.950 . S
C3476 H3468 0.950 . S
C3476 C3477 1.386 . S
C3476 C3478 1.391 . S
C3477 C3476 1.386 . S
C3477 C3481 1.393 . S
C3478 H3470 0.950 . S
C3478 C3476 1.391 . S
C3478 C3479 1.400 . S
C3479 C3478 1.400 . S
C3479 C3480 1.398 . S
C3479 C3485 1.491 1_655 S
C3480 H3471 0.950 . S
C3480 C3479 1.398 . S
C3480 C3481 1.391 . S
C3481 H3469 0.950 . S
C3481 C3477 1.393 . S
C3481 C3480 1.391 . S
C3482 H3472 0.950 . S
C3482 C3483 1.386 . S
C3482 C3484 1.391 . S
C3483 C3482 1.386 . S
C3483 C3487 1.393 . S
C3484 H3473 0.950 . S
C3484 C3482 1.391 . S
C3484 C3485 1.400 . S
C3485 C3479 1.491 1_455 S
C3485 C3484 1.400 . S
C3485 C3486 1.398 . S
C3486 H3474 0.950 . S
C3486 C3485 1.398 . S
C3486 C3487 1.391 . S
C3487 H3475 0.950 . S
C3487 C3483 1.393 . S
C3487 C3486 1.391 . S
H3488 C3496 0.950 . S
H3489 C3501 0.950 . S
H3490 C3498 0.950 . S
H3491 C3500 0.950 . S
H3492 C3502 0.950 . S
H3493 C3504 0.950 . S
H3494 C3506 0.950 . S
H3495 C3507 0.950 . S
C3496 H3488 0.950 . S
C3496 C3497 1.386 . S
C3496 C3498 1.391 . S
C3497 C3496 1.386 . S
C3497 C3501 1.393 . S
C3498 H3490 0.950 . S
C3498 C3496 1.391 . S
C3498 C3499 1.400 . S
C3499 C3498 1.400 . S
C3499 C3500 1.398 . S
C3499 C3505 1.491 1_554 S
C3500 H3491 0.950 . S
C3500 C3499 1.398 . S
C3500 C3501 1.391 . S
C3501 H3489 0.950 . S
C3501 C3497 1.393 . S
C3501 C3500 1.391 . S
C3502 H3492 0.950 . S
C3502 C3503 1.386 . S
C3502 C3504 1.391 . S
C3503 C3502 1.386 . S
C3503 C3507 1.393 . S
C3504 H3493 0.950 . S
C3504 C3502 1.391 . S
C3504 C3505 1.400 . S
C3505 C3499 1.491 1_556 S
C3505 C3504 1.400 . S
C3505 C3506 1.398 . S
C3506 H3494 0.950 . S
C3506 C3505 1.398 . S
C3506 C3507 1.391 . S
C3507 H3495 0.950 . S
C3507 C3503 1.393 . S
C3507 C3506 1.391 . S
H3508 C3516 0.950 . S
H3509 C3521 0.950 . S
H3510 C3518 0.950 . S
H3511 C3520 0.950 . S
H3512 C3522 0.950 . S
H3513 C3524 0.950 . S
H3514 C3526 0.950 . S
H3515 C3527 0.950 . S
C3516 H3508 0.950 . S
C3516 C3517 1.386 . S
C3516 C3518 1.391 . S
C3517 C3516 1.386 . S
C3517 C3521 1.393 . S
C3518 H3510 0.950 . S
C3518 C3516 1.391 . S
C3518 C3519 1.400 . S
C3519 C3518 1.400 . S
C3519 C3520 1.398 . S
C3519 C3525 1.491 1_556 S
C3520 H3511 0.950 . S
C3520 C3519 1.398 . S
C3520 C3521 1.391 . S
C3521 H3509 0.950 . S
C3521 C3517 1.393 . S
C3521 C3520 1.391 . S
C3522 H3512 0.950 . S
C3522 C3523 1.386 . S
C3522 C3524 1.391 . S
C3523 C3522 1.386 . S
C3523 C3527 1.393 . S
C3524 H3513 0.950 . S
C3524 C3522 1.391 . S
C3524 C3525 1.400 . S
C3525 C3519 1.491 1_554 S
C3525 C3524 1.400 . S
C3525 C3526 1.398 . S
C3526 H3514 0.950 . S
C3526 C3525 1.398 . S
C3526 C3527 1.391 . S
C3527 H3515 0.950 . S
C3527 C3523 1.393 . S
C3527 C3526 1.391 . S
H3528 C3536 0.950 . S
H3529 C3541 0.950 . S
H3530 C3538 0.950 . S
H3531 C3540 0.950 . S
H3532 C3542 0.950 . S
H3533 C3544 0.950 . S
H3534 C3546 0.950 . S
H3535 C3547 0.950 . S
C3536 H3528 0.950 . S
C3536 C3537 1.386 . S
C3536 C3538 1.391 . S
C3537 C3536 1.386 . S
C3537 C3541 1.393 . S
C3538 H3530 0.950 . S
C3538 C3536 1.391 . S
C3538 C3539 1.400 . S
C3539 C3538 1.400 . S
C3539 C3540 1.398 . S
C3539 C3545 1.491 1_554 S
C3540 H3531 0.950 . S
C3540 C3539 1.398 . S
C3540 C3541 1.391 . S
C3541 H3529 0.950 . S
C3541 C3537 1.393 . S
C3541 C3540 1.391 . S
C3542 H3532 0.950 . S
C3542 C3543 1.386 . S
C3542 C3544 1.391 . S
C3543 C3542 1.386 . S
C3543 C3547 1.393 . S
C3544 H3533 0.950 . S
C3544 C3542 1.391 . S
C3544 C3545 1.400 . S
C3545 C3539 1.491 1_556 S
C3545 C3544 1.400 . S
C3545 C3546 1.398 . S
C3546 H3534 0.950 . S
C3546 C3545 1.398 . S
C3546 C3547 1.391 . S
C3547 H3535 0.950 . S
C3547 C3543 1.393 . S
C3547 C3546 1.391 . S
H3548 C3556 0.950 . S
H3549 C3561 0.950 . S
H3550 C3558 0.950 . S
H3551 C3560 0.950 . S
H3552 C3562 0.950 . S
H3553 C3564 0.950 . S
H3554 C3566 0.950 . S
H3555 C3567 0.950 . S
C3556 H3548 0.950 . S
C3556 C3557 1.386 . S
C3556 C3558 1.391 . S
C3557 C3556 1.386 . S
C3557 C3561 1.393 . S
C3558 H3550 0.950 . S
C3558 C3556 1.391 . S
C3558 C3559 1.400 . S
C3559 C3558 1.400 . S
C3559 C3560 1.398 . S
C3559 C3565 1.491 1_556 S
C3560 H3551 0.950 . S
C3560 C3559 1.398 . S
C3560 C3561 1.391 . S
C3561 H3549 0.950 . S
C3561 C3557 1.393 . S
C3561 C3560 1.391 . S
C3562 H3552 0.950 . S
C3562 C3563 1.386 . S
C3562 C3564 1.391 . S
C3563 C3562 1.386 . S
C3563 C3567 1.393 . S
C3564 H3553 0.950 . S
C3564 C3562 1.391 . S
C3564 C3565 1.400 . S
C3565 C3559 1.491 1_554 S
C3565 C3564 1.400 . S
C3565 C3566 1.398 . S
C3566 H3554 0.950 . S
C3566 C3565 1.398 . S
C3566 C3567 1.391 . S
C3567 H3555 0.950 . S
C3567 C3563 1.393 . S
C3567 C3566 1.391 . S
H3568 C3576 0.950 . S
H3569 C3581 0.950 . S
H3570 C3578 0.950 . S
H3571 C3580 0.950 . S
H3572 C3582 0.950 . S
H3573 C3584 0.950 . S
H3574 C3586 0.950 . S
H3575 C3587 0.950 . S
C3576 H3568 0.950 . S
C3576 C3577 1.386 . S
C3576 C3578 1.391 . S
C3577 C3576 1.386 . S
C3577 C3581 1.393 . S
C3578 H3570 0.950 . S
C3578 C3576 1.391 . S
C3578 C3579 1.400 . S
C3579 C3578 1.400 . S
C3579 C3580 1.398 . S
C3579 C3585 1.491 1_554 S
C3580 H3571 0.950 . S
C3580 C3579 1.398 . S
C3580 C3581 1.391 . S
C3581 H3569 0.950 . S
C3581 C3577 1.393 . S
C3581 C3580 1.391 . S
C3582 H3572 0.950 . S
C3582 C3583 1.386 . S
C3582 C3584 1.391 . S
C3583 C3582 1.386 . S
C3583 C3587 1.393 . S
C3584 H3573 0.950 . S
C3584 C3582 1.391 . S
C3584 C3585 1.400 . S
C3585 C3579 1.491 1_556 S
C3585 C3584 1.400 . S
C3585 C3586 1.398 . S
C3586 H3574 0.950 . S
C3586 C3585 1.398 . S
C3586 C3587 1.391 . S
C3587 H3575 0.950 . S
C3587 C3583 1.393 . S
C3587 C3586 1.391 . S
H3588 C3596 0.950 . S
H3589 C3601 0.950 . S
H3590 C3598 0.950 . S
H3591 C3600 0.950 . S
H3592 C3602 0.950 . S
H3593 C3604 0.950 . S
H3594 C3606 0.950 . S
H3595 C3607 0.950 . S
C3596 H3588 0.950 . S
C3596 C3597 1.386 . S
C3596 C3598 1.391 . S
C3597 C3596 1.386 . S
C3597 C3601 1.393 . S
C3598 H3590 0.950 . S
C3598 C3596 1.391 . S
C3598 C3599 1.400 . S
C3599 C3598 1.400 . S
C3599 C3600 1.398 . S
C3599 C3605 1.491 1_554 S
C3600 H3591 0.950 . S
C3600 C3599 1.398 . S
C3600 C3601 1.391 . S
C3601 H3589 0.950 . S
C3601 C3597 1.393 . S
C3601 C3600 1.391 . S
C3602 H3592 0.950 . S
C3602 C3603 1.386 . S
C3602 C3604 1.391 . S
C3603 C3602 1.386 . S
C3603 C3607 1.393 . S
C3604 H3593 0.950 . S
C3604 C3602 1.391 . S
C3604 C3605 1.400 . S
C3605 C3599 1.491 1_556 S
C3605 C3604 1.400 . S
C3605 C3606 1.398 . S
C3606 H3594 0.950 . S
C3606 C3605 1.398 . S
C3606 C3607 1.391 . S
C3607 H3595 0.950 . S
C3607 C3603 1.393 . S
C3607 C3606 1.391 . S
H3608 C3616 0.950 . S
H3609 C3621 0.950 . S
H3610 C3618 0.950 . S
H3611 C3620 0.950 . S
H3612 C3622 0.950 . S
H3613 C3624 0.950 . S
H3614 C3626 0.950 . S
H3615 C3627 0.950 . S
C3616 H3608 0.950 . S
C3616 C3617 1.386 . S
C3616 C3618 1.391 . S
C3617 C3616 1.386 . S
C3617 C3621 1.393 . S
C3618 H3610 0.950 . S
C3618 C3616 1.391 . S
C3618 C3619 1.400 . S
C3619 C3618 1.400 . S
C3619 C3620 1.398 . S
C3619 C3625 1.491 1_554 S
C3620 H3611 0.950 . S
C3620 C3619 1.398 . S
C3620 C3621 1.391 . S
C3621 H3609 0.950 . S
C3621 C3617 1.393 . S
C3621 C3620 1.391 . S
C3622 H3612 0.950 . S
C3622 C3623 1.386 . S
C3622 C3624 1.391 . S
C3623 C3622 1.386 . S
C3623 C3627 1.393 . S
C3624 H3613 0.950 . S
C3624 C3622 1.391 . S
C3624 C3625 1.400 . S
C3625 C3619 1.491 1_556 S
C3625 C3624 1.400 . S
C3625 C3626 1.398 . S
C3626 H3614 0.950 . S
C3626 C3625 1.398 . S
C3626 C3627 1.391 . S
C3627 H3615 0.950 . S
C3627 C3623 1.393 . S
C3627 C3626 1.391 . S
H3628 C3636 0.950 . S
H3629 C3641 0.950 . S
H3630 C3638 0.950 . S
H3631 C3640 0.950 . S
H3632 C3642 0.950 . S
H3633 C3644 0.950 . S
H3634 C3646 0.950 . S
H3635 C3647 0.950 . S
C3636 H3628 0.950 . S
C3636 C3637 1.386 . S
C3636 C3638 1.391 . S
C3637 C3636 1.386 . S
C3637 C3641 1.393 . S
C3638 H3630 0.950 . S
C3638 C3636 1.391 . S
C3638 C3639 1.400 . S
C3639 C3638 1.400 . S
C3639 C3640 1.398 . S
C3639 C3645 1.491 1_556 S
C3640 H3631 0.950 . S
C3640 C3639 1.398 . S
C3640 C3641 1.391 . S
C3641 H3629 0.950 . S
C3641 C3637 1.393 . S
C3641 C3640 1.391 . S
C3642 H3632 0.950 . S
C3642 C3643 1.386 . S
C3642 C3644 1.391 . S
C3643 C3642 1.386 . S
C3643 C3647 1.393 . S
C3644 H3633 0.950 . S
C3644 C3642 1.391 . S
C3644 C3645 1.400 . S
C3645 C3639 1.491 1_554 S
C3645 C3644 1.400 . S
C3645 C3646 1.398 . S
C3646 H3634 0.950 . S
C3646 C3645 1.398 . S
C3646 C3647 1.391 . S
C3647 H3635 0.950 . S
C3647 C3643 1.393 . S
C3647 C3646 1.391 . S
H3648 C3656 0.950 . S
H3649 C3661 0.950 . S
H3650 C3658 0.950 . S
H3651 C3660 0.950 . S
H3652 C3662 0.950 . S
H3653 C3664 0.950 . S
H3654 C3666 0.950 . S
H3655 C3667 0.950 . S
C3656 H3648 0.950 . S
C3656 C3657 1.386 . S
C3656 C3658 1.391 . S
C3657 C3656 1.386 . S
C3657 C3661 1.393 . S
C3658 H3650 0.950 . S
C3658 C3656 1.391 . S
C3658 C3659 1.400 . S
C3659 C3658 1.400 . S
C3659 C3660 1.398 . S
C3659 C3665 1.491 . S
C3660 H3651 0.950 . S
C3660 C3659 1.398 . S
C3660 C3661 1.391 . S
C3661 H3649 0.950 . S
C3661 C3657 1.393 . S
C3661 C3660 1.391 . S
C3662 H3652 0.950 . S
C3662 C3663 1.386 . S
C3662 C3664 1.391 . S
C3663 C3662 1.386 . S
C3663 C3667 1.393 . S
C3664 H3653 0.950 . S
C3664 C3662 1.391 . S
C3664 C3665 1.400 . S
C3665 C3659 1.491 . S
C3665 C3664 1.400 . S
C3665 C3666 1.398 . S
C3666 H3654 0.950 . S
C3666 C3665 1.398 . S
C3666 C3667 1.391 . S
C3667 H3655 0.950 . S
C3667 C3663 1.393 . S
C3667 C3666 1.391 . S
H3668 C3676 0.950 . S
H3669 C3681 0.950 . S
H3670 C3678 0.950 . S
H3671 C3680 0.950 . S
H3672 C3682 0.950 . S
H3673 C3684 0.950 . S
H3674 C3686 0.950 . S
H3675 C3687 0.950 . S
C3676 H3668 0.950 . S
C3676 C3677 1.386 . S
C3676 C3678 1.391 . S
C3677 C3676 1.386 . S
C3677 C3681 1.393 . S
C3678 H3670 0.950 . S
C3678 C3676 1.391 . S
C3678 C3679 1.400 . S
C3679 C3678 1.400 . S
C3679 C3680 1.398 . S
C3679 C3685 1.491 . S
C3680 H3671 0.950 . S
C3680 C3679 1.398 . S
C3680 C3681 1.391 . S
C3681 H3669 0.950 . S
C3681 C3677 1.393 . S
C3681 C3680 1.391 . S
C3682 H3672 0.950 . S
C3682 C3683 1.386 . S
C3682 C3684 1.391 . S
C3683 C3682 1.386 . S
C3683 C3687 1.393 . S
C3684 H3673 0.950 . S
C3684 C3682 1.391 . S
C3684 C3685 1.400 . S
C3685 C3679 1.491 . S
C3685 C3684 1.400 . S
C3685 C3686 1.398 . S
C3686 H3674 0.950 . S
C3686 C3685 1.398 . S
C3686 C3687 1.391 . S
C3687 H3675 0.950 . S
C3687 C3683 1.393 . S
C3687 C3686 1.391 . S
H3688 C3696 0.950 . S
H3689 C3701 0.950 . S
H3690 C3698 0.950 . S
H3691 C3700 0.950 . S
H3692 C3702 0.950 . S
H3693 C3704 0.950 . S
H3694 C3706 0.950 . S
H3695 C3707 0.950 . S
C3696 H3688 0.950 . S
C3696 C3697 1.386 . S
C3696 C3698 1.391 . S
C3697 C3696 1.386 . S
C3697 C3701 1.393 . S
C3698 H3690 0.950 . S
C3698 C3696 1.391 . S
C3698 C3699 1.400 . S
C3699 C3698 1.400 . S
C3699 C3700 1.398 . S
C3699 C3705 1.491 . S
C3700 H3691 0.950 . S
C3700 C3699 1.398 . S
C3700 C3701 1.391 . S
C3701 H3689 0.950 . S
C3701 C3697 1.393 . S
C3701 C3700 1.391 . S
C3702 H3692 0.950 . S
C3702 C3703 1.386 . S
C3702 C3704 1.391 . S
C3703 C3702 1.386 . S
C3703 C3707 1.393 . S
C3704 H3693 0.950 . S
C3704 C3702 1.391 . S
C3704 C3705 1.400 . S
C3705 C3699 1.491 . S
C3705 C3704 1.400 . S
C3705 C3706 1.398 . S
C3706 H3694 0.950 . S
C3706 C3705 1.398 . S
C3706 C3707 1.391 . S
C3707 H3695 0.950 . S
C3707 C3703 1.393 . S
C3707 C3706 1.391 . S
H3708 C3716 0.950 . S
H3709 C3721 0.950 . S
H3710 C3718 0.950 . S
H3711 C3720 0.950 . S
H3712 C3722 0.950 . S
H3713 C3724 0.950 . S
H3714 C3726 0.950 . S
H3715 C3727 0.950 . S
C3716 H3708 0.950 . S
C3716 C3717 1.386 . S
C3716 C3718 1.391 . S
C3717 C3716 1.386 . S
C3717 C3721 1.393 . S
C3718 H3710 0.950 . S
C3718 C3716 1.391 . S
C3718 C3719 1.400 . S
C3719 C3718 1.400 . S
C3719 C3720 1.398 . S
C3719 C3725 1.491 . S
C3720 H3711 0.950 . S
C3720 C3719 1.398 . S
C3720 C3721 1.391 . S
C3721 H3709 0.950 . S
C3721 C3717 1.393 . S
C3721 C3720 1.391 . S
C3722 H3712 0.950 . S
C3722 C3723 1.386 . S
C3722 C3724 1.391 . S
C3723 C3722 1.386 . S
C3723 C3727 1.393 . S
C3724 H3713 0.950 . S
C3724 C3722 1.391 . S
C3724 C3725 1.400 . S
C3725 C3719 1.491 . S
C3725 C3724 1.400 . S
C3725 C3726 1.398 . S
C3726 H3714 0.950 . S
C3726 C3725 1.398 . S
C3726 C3727 1.391 . S
C3727 H3715 0.950 . S
C3727 C3723 1.393 . S
C3727 C3726 1.391 . S
H3728 C3736 0.950 . S
H3729 C3741 0.950 . S
H3730 C3738 0.950 . S
H3731 C3740 0.950 . S
H3732 C3742 0.950 . S
H3733 C3744 0.950 . S
H3734 C3746 0.950 . S
H3735 C3747 0.950 . S
C3736 H3728 0.950 . S
C3736 C3737 1.386 . S
C3736 C3738 1.391 . S
C3737 C3736 1.386 . S
C3737 C3741 1.393 . S
C3738 H3730 0.950 . S
C3738 C3736 1.391 . S
C3738 C3739 1.400 . S
C3739 C3738 1.400 . S
C3739 C3740 1.398 . S
C3739 C3745 1.491 . S
C3740 H3731 0.950 . S
C3740 C3739 1.398 . S
C3740 C3741 1.391 . S
C3741 H3729 0.950 . S
C3741 C3737 1.393 . S
C3741 C3740 1.391 . S
C3742 H3732 0.950 . S
C3742 C3743 1.386 . S
C3742 C3744 1.391 . S
C3743 C3742 1.386 . S
C3743 C3747 1.393 . S
C3744 H3733 0.950 . S
C3744 C3742 1.391 . S
C3744 C3745 1.400 . S
C3745 C3739 1.491 . S
C3745 C3744 1.400 . S
C3745 C3746 1.398 . S
C3746 H3734 0.950 . S
C3746 C3745 1.398 . S
C3746 C3747 1.391 . S
C3747 H3735 0.950 . S
C3747 C3743 1.393 . S
C3747 C3746 1.391 . S
H3748 C3756 0.950 . S
H3749 C3761 0.950 . S
H3750 C3758 0.950 . S
H3751 C3760 0.950 . S
H3752 C3762 0.950 . S
H3753 C3764 0.950 . S
H3754 C3766 0.950 . S
H3755 C3767 0.950 . S
C3756 H3748 0.950 . S
C3756 C3757 1.386 . S
C3756 C3758 1.391 . S
C3757 C3756 1.386 . S
C3757 C3761 1.393 . S
C3758 H3750 0.950 . S
C3758 C3756 1.391 . S
C3758 C3759 1.400 . S
C3759 C3758 1.400 . S
C3759 C3760 1.398 . S
C3759 C3765 1.491 . S
C3760 H3751 0.950 . S
C3760 C3759 1.398 . S
C3760 C3761 1.391 . S
C3761 H3749 0.950 . S
C3761 C3757 1.393 . S
C3761 C3760 1.391 . S
C3762 H3752 0.950 . S
C3762 C3763 1.386 . S
C3762 C3764 1.391 . S
C3763 C3762 1.386 . S
C3763 C3767 1.393 . S
C3764 H3753 0.950 . S
C3764 C3762 1.391 . S
C3764 C3765 1.400 . S
C3765 C3759 1.491 . S
C3765 C3764 1.400 . S
C3765 C3766 1.398 . S
C3766 H3754 0.950 . S
C3766 C3765 1.398 . S
C3766 C3767 1.391 . S
C3767 H3755 0.950 . S
C3767 C3763 1.393 . S
C3767 C3766 1.391 . S
H3768 C3776 0.950 . S
H3769 C3781 0.950 . S
H3770 C3778 0.950 . S
H3771 C3780 0.950 . S
H3772 C3782 0.950 . S
H3773 C3784 0.950 . S
H3774 C3786 0.950 . S
H3775 C3787 0.950 . S
C3776 H3768 0.950 . S
C3776 C3777 1.386 . S
C3776 C3778 1.391 . S
C3777 C3776 1.386 . S
C3777 C3781 1.393 . S
C3778 H3770 0.950 . S
C3778 C3776 1.391 . S
C3778 C3779 1.400 . S
C3779 C3778 1.400 . S
C3779 C3780 1.398 . S
C3779 C3785 1.491 . S
C3780 H3771 0.950 . S
C3780 C3779 1.398 . S
C3780 C3781 1.391 . S
C3781 H3769 0.950 . S
C3781 C3777 1.393 . S
C3781 C3780 1.391 . S
C3782 H3772 0.950 . S
C3782 C3783 1.386 . S
C3782 C3784 1.391 . S
C3783 C3782 1.386 . S
C3783 C3787 1.393 . S
C3784 H3773 0.950 . S
C3784 C3782 1.391 . S
C3784 C3785 1.400 . S
C3785 C3779 1.491 . S
C3785 C3784 1.400 . S
C3785 C3786 1.398 . S
C3786 H3774 0.950 . S
C3786 C3785 1.398 . S
C3786 C3787 1.391 . S
C3787 H3775 0.950 . S
C3787 C3783 1.393 . S
C3787 C3786 1.391 . S
H3788 C3796 0.950 . S
H3789 C3801 0.950 . S
H3790 C3798 0.950 . S
H3791 C3800 0.950 . S
H3792 C3802 0.950 . S
H3793 C3804 0.950 . S
H3794 C3806 0.950 . S
H3795 C3807 0.950 . S
C3796 H3788 0.950 . S
C3796 C3797 1.386 . S
C3796 C3798 1.391 . S
C3797 C3796 1.386 . S
C3797 C3801 1.393 . S
C3798 H3790 0.950 . S
C3798 C3796 1.391 . S
C3798 C3799 1.400 . S
C3799 C3798 1.400 . S
C3799 C3800 1.398 . S
C3799 C3805 1.491 . S
C3800 H3791 0.950 . S
C3800 C3799 1.398 . S
C3800 C3801 1.391 . S
C3801 H3789 0.950 . S
C3801 C3797 1.393 . S
C3801 C3800 1.391 . S
C3802 H3792 0.950 . S
C3802 C3803 1.386 . S
C3802 C3804 1.391 . S
C3803 C3802 1.386 . S
C3803 C3807 1.393 . S
C3804 H3793 0.950 . S
C3804 C3802 1.391 . S
C3804 C3805 1.400 . S
C3805 C3799 1.491 . S
C3805 C3804 1.400 . S
C3805 C3806 1.398 . S
C3806 H3794 0.950 . S
C3806 C3805 1.398 . S
C3806 C3807 1.391 . S
C3807 H3795 0.950 . S
C3807 C3803 1.393 . S
C3807 C3806 1.391 . S
H3808 C3816 0.950 . S
H3809 C3821 0.950 . S
H3810 C3818 0.950 . S
H3811 C3820 0.950 . S
H3812 C3822 0.950 . S
H3813 C3824 0.950 . S
H3814 C3826 0.950 . S
H3815 C3827 0.950 . S
C3816 H3808 0.950 . S
C3816 C3817 1.386 . S
C3816 C3818 1.391 . S
C3817 C3816 1.386 . S
C3817 C3821 1.393 . S
C3818 H3810 0.950 . S
C3818 C3816 1.391 . S
C3818 C3819 1.400 . S
C3819 C3818 1.400 . S
C3819 C3820 1.398 . S
C3819 C3825 1.491 . S
C3820 H3811 0.950 . S
C3820 C3819 1.398 . S
C3820 C3821 1.391 . S
C3821 H3809 0.950 . S
C3821 C3817 1.393 . S
C3821 C3820 1.391 . S
C3822 H3812 0.950 . S
C3822 C3823 1.386 . S
C3822 C3824 1.391 . S
C3823 C3822 1.386 . S
C3823 C3827 1.393 . S
C3824 H3813 0.950 . S
C3824 C3822 1.391 . S
C3824 C3825 1.400 . S
C3825 C3819 1.491 . S
C3825 C3824 1.400 . S
C3825 C3826 1.398 . S
C3826 H3814 0.950 . S
C3826 C3825 1.398 . S
C3826 C3827 1.391 . S
C3827 H3815 0.950 . S
C3827 C3823 1.393 . S
C3827 C3826 1.391 . S
H3828 C3836 0.950 . S
H3829 C3841 0.950 . S
H3830 C3838 0.950 . S
H3831 C3840 0.950 . S
H3832 C3842 0.950 . S
H3833 C3844 0.950 . S
H3834 C3846 0.950 . S
H3835 C3847 0.950 . S
C3836 H3828 0.950 . S
C3836 C3837 1.386 . S
C3836 C3838 1.391 . S
C3837 C3836 1.386 . S
C3837 C3841 1.393 . S
C3838 H3830 0.950 . S
C3838 C3836 1.391 . S
C3838 C3839 1.400 . S
C3839 C3838 1.400 . S
C3839 C3840 1.398 . S
C3839 C3845 1.491 . S
C3840 H3831 0.950 . S
C3840 C3839 1.398 . S
C3840 C3841 1.391 . S
C3841 H3829 0.950 . S
C3841 C3837 1.393 . S
C3841 C3840 1.391 . S
C3842 H3832 0.950 . S
C3842 C3843 1.386 . S
C3842 C3844 1.391 . S
C3843 C3842 1.386 . S
C3843 C3847 1.393 . S
C3844 H3833 0.950 . S
C3844 C3842 1.391 . S
C3844 C3845 1.400 . S
C3845 C3839 1.491 . S
C3845 C3844 1.400 . S
C3845 C3846 1.398 . S
C3846 H3834 0.950 . S
C3846 C3845 1.398 . S
C3846 C3847 1.391 . S
C3847 H3835 0.950 . S
C3847 C3843 1.393 . S
C3847 C3846 1.391 . S
H3848 C3856 0.950 . S
H3849 C3861 0.950 . S
H3850 C3858 0.950 . S
H3851 C3860 0.950 . S
H3852 C3862 0.950 . S
H3853 C3864 0.950 . S
H3854 C3866 0.950 . S
H3855 C3867 0.950 . S
C3856 H3848 0.950 . S
C3856 C3857 1.386 . S
C3856 C3858 1.391 . S
C3857 C3856 1.386 . S
C3857 C3861 1.393 . S
C3858 H3850 0.950 . S
C3858 C3856 1.391 . S
C3858 C3859 1.400 . S
C3859 C3858 1.400 . S
C3859 C3860 1.398 . S
C3859 C3865 1.491 . S
C3860 H3851 0.950 . S
C3860 C3859 1.398 . S
C3860 C3861 1.391 . S
C3861 H3849 0.950 . S
C3861 C3857 1.393 . S
C3861 C3860 1.391 . S
C3862 H3852 0.950 . S
C3862 C3863 1.386 . S
C3862 C3864 1.391 . S
C3863 C3862 1.386 . S
C3863 C3867 1.393 . S
C3864 H3853 0.950 . S
C3864 C3862 1.391 . S
C3864 C3865 1.400 . S
C3865 C3859 1.491 . S
C3865 C3864 1.400 . S
C3865 C3866 1.398 . S
C3866 H3854 0.950 . S
C3866 C3865 1.398 . S
C3866 C3867 1.391 . S
C3867 H3855 0.950 . S
C3867 C3863 1.393 . S
C3867 C3866 1.391 . S
H3868 C3876 0.950 . S
H3869 C3881 0.950 . S
H3870 C3878 0.950 . S
H3871 C3880 0.950 . S
H3872 C3882 0.950 . S
H3873 C3884 0.950 . S
H3874 C3886 0.950 . S
H3875 C3887 0.950 . S
C3876 H3868 0.950 . S
C3876 C3877 1.386 . S
C3876 C3878 1.391 . S
C3877 C3876 1.386 . S
C3877 C3881 1.393 . S
C3878 H3870 0.950 . S
C3878 C3876 1.391 . S
C3878 C3879 1.400 . S
C3879 C3878 1.400 . S
C3879 C3880 1.398 . S
C3879 C3885 1.491 . S
C3880 H3871 0.950 . S
C3880 C3879 1.398 . S
C3880 C3881 1.391 . S
C3881 H3869 0.950 . S
C3881 C3877 1.393 . S
C3881 C3880 1.391 . S
C3882 H3872 0.950 . S
C3882 C3883 1.386 . S
C3882 C3884 1.391 . S
C3883 C3882 1.386 . S
C3883 C3887 1.393 . S
C3884 H3873 0.950 . S
C3884 C3882 1.391 . S
C3884 C3885 1.400 . S
C3885 C3879 1.491 . S
C3885 C3884 1.400 . S
C3885 C3886 1.398 . S
C3886 H3874 0.950 . S
C3886 C3885 1.398 . S
C3886 C3887 1.391 . S
C3887 H3875 0.950 . S
C3887 C3883 1.393 . S
C3887 C3886 1.391 . S
H3888 C3896 0.950 . S
H3889 C3901 0.950 . S
H3890 C3898 0.950 . S
H3891 C3900 0.950 . S
H3892 C3902 0.950 . S
H3893 C3904 0.950 . S
H3894 C3906 0.950 . S
H3895 C3907 0.950 . S
C3896 H3888 0.950 . S
C3896 C3897 1.386 . S
C3896 C3898 1.391 . S
C3897 C3896 1.386 . S
C3897 C3901 1.393 . S
C3898 H3890 0.950 . S
C3898 C3896 1.391 . S
C3898 C3899 1.400 . S
C3899 C3898 1.400 . S
C3899 C3900 1.398 . S
C3899 C3905 1.491 . S
C3900 H3891 0.950 . S
C3900 C3899 1.398 . S
C3900 C3901 1.391 . S
C3901 H3889 0.950 . S
C3901 C3897 1.393 . S
C3901 C3900 1.391 . S
C3902 H3892 0.950 . S
C3902 C3903 1.386 . S
C3902 C3904 1.391 . S
C3903 C3902 1.386 . S
C3903 C3907 1.393 . S
C3904 H3893 0.950 . S
C3904 C3902 1.391 . S
C3904 C3905 1.400 . S
C3905 C3899 1.491 . S
C3905 C3904 1.400 . S
C3905 C3906 1.398 . S
C3906 H3894 0.950 . S
C3906 C3905 1.398 . S
C3906 C3907 1.391 . S
C3907 H3895 0.950 . S
C3907 C3903 1.393 . S
C3907 C3906 1.391 . S
H3908 C3916 0.950 . S
H3909 C3921 0.950 . S
H3910 C3918 0.950 . S
H3911 C3920 0.950 . S
H3912 C3922 0.950 . S
H3913 C3924 0.950 . S
H3914 C3926 0.950 . S
H3915 C3927 0.950 . S
C3916 H3908 0.950 . S
C3916 C3917 1.386 . S
C3916 C3918 1.391 . S
C3917 C3916 1.386 . S
C3917 C3921 1.393 . S
C3918 H3910 0.950 . S
C3918 C3916 1.391 . S
C3918 C3919 1.400 . S
C3919 C3918 1.400 . S
C3919 C3920 1.398 . S
C3919 C3925 1.491 . S
C3920 H3911 0.950 . S
C3920 C3919 1.398 . S
C3920 C3921 1.391 . S
C3921 H3909 0.950 . S
C3921 C3917 1.393 . S
C3921 C3920 1.391 . S
C3922 H3912 0.950 . S
C3922 C3923 1.386 . S
C3922 C3924 1.391 . S
C3923 C3922 1.386 . S
C3923 C3927 1.393 . S
C3924 H3913 0.950 . S
C3924 C3922 1.391 . S
C3924 C3925 1.400 . S
C3925 C3919 1.491 . S
C3925 C3924 1.400 . S
C3925 C3926 1.398 . S
C3926 H3914 0.950 . S
C3926 C3925 1.398 . S
C3926 C3927 1.391 . S
C3927 H3915 0.950 . S
C3927 C3923 1.393 . S
C3927 C3926 1.391 . S
H3928 C3936 0.950 . S
H3929 C3941 0.950 . S
H3930 C3938 0.950 . S
H3931 C3940 0.950 . S
H3932 C3942 0.950 . S
H3933 C3944 0.950 . S
H3934 C3946 0.950 . S
H3935 C3947 0.950 . S
C3936 H3928 0.950 . S
C3936 C3937 1.386 . S
C3936 C3938 1.391 . S
C3937 C3936 1.386 . S
C3937 C3941 1.393 . S
C3938 H3930 0.950 . S
C3938 C3936 1.391 . S
C3938 C3939 1.400 . S
C3939 C3938 1.400 . S
C3939 C3940 1.398 . S
C3939 C3945 1.491 . S
C3940 H3931 0.950 . S
C3940 C3939 1.398 . S
C3940 C3941 1.391 . S
C3941 H3929 0.950 . S
C3941 C3937 1.393 . S
C3941 C3940 1.391 . S
C3942 H3932 0.950 . S
C3942 C3943 1.386 . S
C3942 C3944 1.391 . S
C3943 C3942 1.386 . S
C3943 C3947 1.393 . S
C3944 H3933 0.950 . S
C3944 C3942 1.391 . S
C3944 C3945 1.400 . S
C3945 C3939 1.491 . S
C3945 C3944 1.400 . S
C3945 C3946 1.398 . S
C3946 H3934 0.950 . S
C3946 C3945 1.398 . S
C3946 C3947 1.391 . S
C3947 H3935 0.950 . S
C3947 C3943 1.393 . S
C3947 C3946 1.391 . S
H3948 C3956 0.950 . S
H3949 C3961 0.950 . S
H3950 C3958 0.950 . S
H3951 C3960 0.950 . S
H3952 C3962 0.950 . S
H3953 C3964 0.950 . S
H3954 C3966 0.950 . S
H3955 C3967 0.950 . S
C3956 H3948 0.950 . S
C3956 C3957 1.386 . S
C3956 C3958 1.391 . S
C3957 C3956 1.386 . S
C3957 C3961 1.393 . S
C3958 H3950 0.950 . S
C3958 C3956 1.391 . S
C3958 C3959 1.400 . S
C3959 C3958 1.400 . S
C3959 C3960 1.398 . S
C3959 C3965 1.491 . S
C3960 H3951 0.950 . S
C3960 C3959 1.398 . S
C3960 C3961 1.391 . S
C3961 H3949 0.950 . S
C3961 C3957 1.393 . S
C3961 C3960 1.391 . S
C3962 H3952 0.950 . S
C3962 C3963 1.386 . S
C3962 C3964 1.391 . S
C3963 C3962 1.386 . S
C3963 C3967 1.393 . S
C3964 H3953 0.950 . S
C3964 C3962 1.391 . S
C3964 C3965 1.400 . S
C3965 C3959 1.491 . S
C3965 C3964 1.400 . S
C3965 C3966 1.398 . S
C3966 H3954 0.950 . S
C3966 C3965 1.398 . S
C3966 C3967 1.391 . S
C3967 H3955 0.950 . S
C3967 C3963 1.393 . S
C3967 C3966 1.391 . S
H3968 C3976 0.950 . S
H3969 C3981 0.950 . S
H3970 C3978 0.950 . S
H3971 C3980 0.950 . S
H3972 C3982 0.950 . S
H3973 C3984 0.950 . S
H3974 C3986 0.950 . S
H3975 C3987 0.950 . S
C3976 H3968 0.950 . S
C3976 C3977 1.386 . S
C3976 C3978 1.391 . S
C3977 C3976 1.386 . S
C3977 C3981 1.393 . S
C3978 H3970 0.950 . S
C3978 C3976 1.391 . S
C3978 C3979 1.400 . S
C3979 C3978 1.400 . S
C3979 C3980 1.398 . S
C3979 C3985 1.491 . S
C3980 H3971 0.950 . S
C3980 C3979 1.398 . S
C3980 C3981 1.391 . S
C3981 H3969 0.950 . S
C3981 C3977 1.393 . S
C3981 C3980 1.391 . S
C3982 H3972 0.950 . S
C3982 C3983 1.386 . S
C3982 C3984 1.391 . S
C3983 C3982 1.386 . S
C3983 C3987 1.393 . S
C3984 H3973 0.950 . S
C3984 C3982 1.391 . S
C3984 C3985 1.400 . S
C3985 C3979 1.491 . S
C3985 C3984 1.400 . S
C3985 C3986 1.398 . S
C3986 H3974 0.950 . S
C3986 C3985 1.398 . S
C3986 C3987 1.391 . S
C3987 H3975 0.950 . S
C3987 C3983 1.393 . S
C3987 C3986 1.391 . S
H3988 C3996 0.950 . S
H3989 C4001 0.950 . S
H3990 C3998 0.950 . S
H3991 C4000 0.950 . S
H3992 C4002 0.950 . S
H3993 C4004 0.950 . S
H3994 C4006 0.950 . S
H3995 C4007 0.950 . S
C3996 H3988 0.950 . S
C3996 C3997 1.386 . S
C3996 C3998 1.391 . S
C3997 C3996 1.386 . S
C3997 C4001 1.393 . S
C3998 H3990 0.950 . S
C3998 C3996 1.391 . S
C3998 C3999 1.400 . S
C3999 C3998 1.400 . S
C3999 C4000 1.398 . S
C3999 C4005 1.491 . S
C4000 H3991 0.950 . S
C4000 C3999 1.398 . S
C4000 C4001 1.391 . S
C4001 H3989 0.950 . S
C4001 C3997 1.393 . S
C4001 C4000 1.391 . S
C4002 H3992 0.950 . S
C4002 C4003 1.386 . S
C4002 C4004 1.391 . S
C4003 C4002 1.386 . S
C4003 C4007 1.393 . S
C4004 H3993 0.950 . S
C4004 C4002 1.391 . S
C4004 C4005 1.400 . S
C4005 C3999 1.491 . S
C4005 C4004 1.400 . S
C4005 C4006 1.398 . S
C4006 H3994 0.950 . S
C4006 C4005 1.398 . S
C4006 C4007 1.391 . S
C4007 H3995 0.950 . S
C4007 C4003 1.393 . S
C4007 C4006 1.391 . S
H4008 C4016 0.950 . S
H4009 C4021 0.950 . S
H4010 C4018 0.950 . S
H4011 C4020 0.950 . S
H4012 C4022 0.950 . S
H4013 C4024 0.950 . S
H4014 C4026 0.950 . S
H4015 C4027 0.950 . S
C4016 H4008 0.950 . S
C4016 C4017 1.386 . S
C4016 C4018 1.391 . S
C4017 C4016 1.386 . S
C4017 C4021 1.393 . S
C4018 H4010 0.950 . S
C4018 C4016 1.391 . S
C4018 C4019 1.400 . S
C4019 C4018 1.400 . S
C4019 C4020 1.398 . S
C4019 C4025 1.491 . S
C4020 H4011 0.950 . S
C4020 C4019 1.398 . S
C4020 C4021 1.391 . S
C4021 H4009 0.950 . S
C4021 C4017 1.393 . S
C4021 C4020 1.391 . S
C4022 H4012 0.950 . S
C4022 C4023 1.386 . S
C4022 C4024 1.391 . S
C4023 C4022 1.386 . S
C4023 C4027 1.393 . S
C4024 H4013 0.950 . S
C4024 C4022 1.391 . S
C4024 C4025 1.400 . S
C4025 C4019 1.491 . S
C4025 C4024 1.400 . S
C4025 C4026 1.398 . S
C4026 H4014 0.950 . S
C4026 C4025 1.398 . S
C4026 C4027 1.391 . S
C4027 H4015 0.950 . S
C4027 C4023 1.393 . S
C4027 C4026 1.391 . S
H4028 C4036 0.950 . S
H4029 C4041 0.950 . S
H4030 C4038 0.950 . S
H4031 C4040 0.950 . S
H4032 C4042 0.950 . S
H4033 C4044 0.950 . S
H4034 C4046 0.950 . S
H4035 C4047 0.950 . S
C4036 H4028 0.950 . S
C4036 C4037 1.386 . S
C4036 C4038 1.391 . S
C4037 C4036 1.386 . S
C4037 C4041 1.393 . S
C4038 H4030 0.950 . S
C4038 C4036 1.391 . S
C4038 C4039 1.400 . S
C4039 C4038 1.400 . S
C4039 C4040 1.398 . S
C4039 C4045 1.491 . S
C4040 H4031 0.950 . S
C4040 C4039 1.398 . S
C4040 C4041 1.391 . S
C4041 H4029 0.950 . S
C4041 C4037 1.393 . S
C4041 C4040 1.391 . S
C4042 H4032 0.950 . S
C4042 C4043 1.386 . S
C4042 C4044 1.391 . S
C4043 C4042 1.386 . S
C4043 C4047 1.393 . S
C4044 H4033 0.950 . S
C4044 C4042 1.391 . S
C4044 C4045 1.400 . S
C4045 C4039 1.491 . S
C4045 C4044 1.400 . S
C4045 C4046 1.398 . S
C4046 H4034 0.950 . S
C4046 C4045 1.398 . S
C4046 C4047 1.391 . S
C4047 H4035 0.950 . S
C4047 C4043 1.393 . S
C4047 C4046 1.391 . S
H4048 C4056 0.950 . S
H4049 C4061 0.950 . S
H4050 C4058 0.950 . S
H4051 C4060 0.950 . S
H4052 C4062 0.950 . S
H4053 C4064 0.950 . S
H4054 C4066 0.950 . S
H4055 C4067 0.950 . S
C4056 H4048 0.950 . S
C4056 C4057 1.386 . S
C4056 C4058 1.391 . S
C4057 C4056 1.386 . S
C4057 C4061 1.393 . S
C4058 H4050 0.950 . S
C4058 C4056 1.391 . S
C4058 C4059 1.400 . S
C4059 C4058 1.400 . S
C4059 C4060 1.398 . S
C4059 C4065 1.491 . S
C4060 H4051 0.950 . S
C4060 C4059 1.398 . S
C4060 C4061 1.391 . S
C4061 H4049 0.950 . S
C4061 C4057 1.393 . S
C4061 C4060 1.391 . S
C4062 H4052 0.950 . S
C4062 C4063 1.386 . S
C4062 C4064 1.391 . S
C4063 C4062 1.386 . S
C4063 C4067 1.393 . S
C4064 H4053 0.950 . S
C4064 C4062 1.391 . S
C4064 C4065 1.400 . S
C4065 C4059 1.491 . S
C4065 C4064 1.400 . S
C4065 C4066 1.398 . S
C4066 H4054 0.950 . S
C4066 C4065 1.398 . S
C4066 C4067 1.391 . S
C4067 H4055 0.950 . S
C4067 C4063 1.393 . S
C4067 C4066 1.391 . S
H4068 C4076 0.950 . S
H4069 C4081 0.950 . S
H4070 C4078 0.950 . S
H4071 C4080 0.950 . S
H4072 C4082 0.950 . S
H4073 C4084 0.950 . S
H4074 C4086 0.950 . S
H4075 C4087 0.950 . S
C4076 H4068 0.950 . S
C4076 C4077 1.386 . S
C4076 C4078 1.391 . S
C4077 C4076 1.386 . S
C4077 C4081 1.393 . S
C4078 H4070 0.950 . S
C4078 C4076 1.391 . S
C4078 C4079 1.400 . S
C4079 C4078 1.400 . S
C4079 C4080 1.398 . S
C4079 C4085 1.491 . S
C4080 H4071 0.950 . S
C4080 C4079 1.398 . S
C4080 C4081 1.391 . S
C4081 H4069 0.950 . S
C4081 C4077 1.393 . S
C4081 C4080 1.391 . S
C4082 H4072 0.950 . S
C4082 C4083 1.386 . S
C4082 C4084 1.391 . S
C4083 C4082 1.386 . S
C4083 C4087 1.393 . S
C4084 H4073 0.950 . S
C4084 C4082 1.391 . S
C4084 C4085 1.400 . S
C4085 C4079 1.491 . S
C4085 C4084 1.400 . S
C4085 C4086 1.398 . S
C4086 H4074 0.950 . S
C4086 C4085 1.398 . S
C4086 C4087 1.391 . S
C4087 H4075 0.950 . S
C4087 C4083 1.393 . S
C4087 C4086 1.391 . S
H4088 C4096 0.950 . S
H4089 C4101 0.950 . S
H4090 C4098 0.950 . S
H4091 C4100 0.950 . S
H4092 C4102 0.950 . S
H4093 C4104 0.950 . S
H4094 C4106 0.950 . S
H4095 C4107 0.950 . S
C4096 H4088 0.950 . S
C4096 C4097 1.386 . S
C4096 C4098 1.391 . S
C4097 C4096 1.386 . S
C4097 C4101 1.393 . S
C4098 H4090 0.950 . S
C4098 C4096 1.391 . S
C4098 C4099 1.400 . S
C4099 C4098 1.400 . S
C4099 C4100 1.398 . S
C4099 C4105 1.491 . S
C4100 H4091 0.950 . S
C4100 C4099 1.398 . S
C4100 C4101 1.391 . S
C4101 H4089 0.950 . S
C4101 C4097 1.393 . S
C4101 C4100 1.391 . S
C4102 H4092 0.950 . S
C4102 C4103 1.386 . S
C4102 C4104 1.391 . S
C4103 C4102 1.386 . S
C4103 C4107 1.393 . S
C4104 H4093 0.950 . S
C4104 C4102 1.391 . S
C4104 C4105 1.400 . S
C4105 C4099 1.491 . S
C4105 C4104 1.400 . S
C4105 C4106 1.398 . S
C4106 H4094 0.950 . S
C4106 C4105 1.398 . S
C4106 C4107 1.391 . S
C4107 H4095 0.950 . S
C4107 C4103 1.393 . S
C4107 C4106 1.391 . S
H4108 C4116 0.950 . S
H4109 C4121 0.950 . S
H4110 C4118 0.950 . S
H4111 C4120 0.950 . S
H4112 C4122 0.950 . S
H4113 C4124 0.950 . S
H4114 C4126 0.950 . S
H4115 C4127 0.950 . S
C4116 H4108 0.950 . S
C4116 C4117 1.386 . S
C4116 C4118 1.391 . S
C4117 C4116 1.386 . S
C4117 C4121 1.393 . S
C4118 H4110 0.950 . S
C4118 C4116 1.391 . S
C4118 C4119 1.400 . S
C4119 C4118 1.400 . S
C4119 C4120 1.398 . S
C4119 C4125 1.491 . S
C4120 H4111 0.950 . S
C4120 C4119 1.398 . S
C4120 C4121 1.391 . S
C4121 H4109 0.950 . S
C4121 C4117 1.393 . S
C4121 C4120 1.391 . S
C4122 H4112 0.950 . S
C4122 C4123 1.386 . S
C4122 C4124 1.391 . S
C4123 C4122 1.386 . S
C4123 C4127 1.393 . S
C4124 H4113 0.950 . S
C4124 C4122 1.391 . S
C4124 C4125 1.400 . S
C4125 C4119 1.491 . S
C4125 C4124 1.400 . S
C4125 C4126 1.398 . S
C4126 H4114 0.950 . S
C4126 C4125 1.398 . S
C4126 C4127 1.391 . S
C4127 H4115 0.950 . S
C4127 C4123 1.393 . S
C4127 C4126 1.391 . S
H4128 C4136 0.950 . S
H4129 C4141 0.950 . S
H4130 C4138 0.950 . S
H4131 C4140 0.950 . S
H4132 C4142 0.950 . S
H4133 C4144 0.950 . S
H4134 C4146 0.950 . S
H4135 C4147 0.950 . S
C4136 H4128 0.950 . S
C4136 C4137 1.386 . S
C4136 C4138 1.391 . S
C4137 C4136 1.386 . S
C4137 C4141 1.393 . S
C4138 H4130 0.950 . S
C4138 C4136 1.391 . S
C4138 C4139 1.400 . S
C4139 C4138 1.400 . S
C4139 C4140 1.398 . S
C4139 C4145 1.491 . S
C4140 H4131 0.950 . S
C4140 C4139 1.398 . S
C4140 C4141 1.391 . S
C4141 H4129 0.950 . S
C4141 C4137 1.393 . S
C4141 C4140 1.391 . S
C4142 H4132 0.950 . S
C4142 C4143 1.386 . S
C4142 C4144 1.391 . S
C4143 C4142 1.386 . S
C4143 C4147 1.393 . S
C4144 H4133 0.950 . S
C4144 C4142 1.391 . S
C4144 C4145 1.400 . S
C4145 C4139 1.491 . S
C4145 C4144 1.400 . S
C4145 C4146 1.398 . S
C4146 H4134 0.950 . S
C4146 C4145 1.398 . S
C4146 C4147 1.391 . S
C4147 H4135 0.950 . S
C4147 C4143 1.393 . S
C4147 C4146 1.391 . S
H4148 C4156 0.950 . S
H4149 C4161 0.950 . S
H4150 C4158 0.950 . S
H4151 C4160 0.950 . S
H4152 C4162 0.950 . S
H4153 C4164 0.950 . S
H4154 C4166 0.950 . S
H4155 C4167 0.950 . S
C4156 H4148 0.950 . S
C4156 C4157 1.386 . S
C4156 C4158 1.391 . S
C4157 C4156 1.386 . S
C4157 C4161 1.393 . S
C4158 H4150 0.950 . S
C4158 C4156 1.391 . S
C4158 C4159 1.400 . S
C4159 C4158 1.400 . S
C4159 C4160 1.398 . S
C4159 C4165 1.491 . S
C4160 H4151 0.950 . S
C4160 C4159 1.398 . S
C4160 C4161 1.391 . S
C4161 H4149 0.950 . S
C4161 C4157 1.393 . S
C4161 C4160 1.391 . S
C4162 H4152 0.950 . S
C4162 C4163 1.386 . S
C4162 C4164 1.391 . S
C4163 C4162 1.386 . S
C4163 C4167 1.393 . S
C4164 H4153 0.950 . S
C4164 C4162 1.391 . S
C4164 C4165 1.400 . S
C4165 C4159 1.491 . S
C4165 C4164 1.400 . S
C4165 C4166 1.398 . S
C4166 H4154 0.950 . S
C4166 C4165 1.398 . S
C4166 C4167 1.391 . S
C4167 H4155 0.950 . S
C4167 C4163 1.393 . S
C4167 C4166 1.391 . S
H4168 C4176 0.950 . S
H4169 C4181 0.950 . S
H4170 C4178 0.950 . S
H4171 C4180 0.950 . S
H4172 C4182 0.950 . S
H4173 C4184 0.950 . S
H4174 C4186 0.950 . S
H4175 C4187 0.950 . S
C4176 H4168 0.950 . S
C4176 C4177 1.386 . S
C4176 C4178 1.391 . S
C4177 C4176 1.386 . S
C4177 C4181 1.393 . S
C4178 H4170 0.950 . S
C4178 C4176 1.391 . S
C4178 C4179 1.400 . S
C4179 C4178 1.400 . S
C4179 C4180 1.398 . S
C4179 C4185 1.491 . S
C4180 H4171 0.950 . S
C4180 C4179 1.398 . S
C4180 C4181 1.391 . S
C4181 H4169 0.950 . S
C4181 C4177 1.393 . S
C4181 C4180 1.391 . S
C4182 H4172 0.950 . S
C4182 C4183 1.386 . S
C4182 C4184 1.391 . S
C4183 C4182 1.386 . S
C4183 C4187 1.393 . S
C4184 H4173 0.950 . S
C4184 C4182 1.391 . S
C4184 C4185 1.400 . S
C4185 C4179 1.491 . S
C4185 C4184 1.400 . S
C4185 C4186 1.398 . S
C4186 H4174 0.950 . S
C4186 C4185 1.398 . S
C4186 C4187 1.391 . S
C4187 H4175 0.950 . S
C4187 C4183 1.393 . S
C4187 C4186 1.391 . S
H4188 C4196 0.950 . S
H4189 C4201 0.950 . S
H4190 C4198 0.950 . S
H4191 C4200 0.950 . S
H4192 C4202 0.950 . S
H4193 C4204 0.950 . S
H4194 C4206 0.950 . S
H4195 C4207 0.950 . S
C4196 H4188 0.950 . S
C4196 C4197 1.386 . S
C4196 C4198 1.391 . S
C4197 C4196 1.386 . S
C4197 C4201 1.393 . S
C4198 H4190 0.950 . S
C4198 C4196 1.391 . S
C4198 C4199 1.400 . S
C4199 C4198 1.400 . S
C4199 C4200 1.398 . S
C4199 C4205 1.491 . S
C4200 H4191 0.950 . S
C4200 C4199 1.398 . S
C4200 C4201 1.391 . S
C4201 H4189 0.950 . S
C4201 C4197 1.393 . S
C4201 C4200 1.391 . S
C4202 H4192 0.950 . S
C4202 C4203 1.386 . S
C4202 C4204 1.391 . S
C4203 C4202 1.386 . S
C4203 C4207 1.393 . S
C4204 H4193 0.950 . S
C4204 C4202 1.391 . S
C4204 C4205 1.400 . S
C4205 C4199 1.491 . S
C4205 C4204 1.400 . S
C4205 C4206 1.398 . S
C4206 H4194 0.950 . S
C4206 C4205 1.398 . S
C4206 C4207 1.391 . S
C4207 H4195 0.950 . S
C4207 C4203 1.393 . S
C4207 C4206 1.391 . S
H4208 C4216 0.950 . S
H4209 C4221 0.950 . S
H4210 C4218 0.950 . S
H4211 C4220 0.950 . S
H4212 C4222 0.950 . S
H4213 C4224 0.950 . S
H4214 C4226 0.950 . S
H4215 C4227 0.950 . S
C4216 H4208 0.950 . S
C4216 C4217 1.386 . S
C4216 C4218 1.391 . S
C4217 C4216 1.386 . S
C4217 C4221 1.393 . S
C4218 H4210 0.950 . S
C4218 C4216 1.391 . S
C4218 C4219 1.400 . S
C4219 C4218 1.400 . S
C4219 C4220 1.398 . S
C4219 C4225 1.491 . S
C4220 H4211 0.950 . S
C4220 C4219 1.398 . S
C4220 C4221 1.391 . S
C4221 H4209 0.950 . S
C4221 C4217 1.393 . S
C4221 C4220 1.391 . S
C4222 H4212 0.950 . S
C4222 C4223 1.386 . S
C4222 C4224 1.391 . S
C4223 C4222 1.386 . S
C4223 C4227 1.393 . S
C4224 H4213 0.950 . S
C4224 C4222 1.391 . S
C4224 C4225 1.400 . S
C4225 C4219 1.491 . S
C4225 C4224 1.400 . S
C4225 C4226 1.398 . S
C4226 H4214 0.950 . S
C4226 C4225 1.398 . S
C4226 C4227 1.391 . S
C4227 H4215 0.950 . S
C4227 C4223 1.393 . S
C4227 C4226 1.391 . S
H4228 C4236 0.950 . S
H4229 C4241 0.950 . S
H4230 C4238 0.950 . S
H4231 C4240 0.950 . S
H4232 C4242 0.950 . S
H4233 C4244 0.950 . S
H4234 C4246 0.950 . S
H4235 C4247 0.950 . S
C4236 H4228 0.950 . S
C4236 C4237 1.386 . S
C4236 C4238 1.391 . S
C4237 C4236 1.386 . S
C4237 C4241 1.393 . S
C4238 H4230 0.950 . S
C4238 C4236 1.391 . S
C4238 C4239 1.400 . S
C4239 C4238 1.400 . S
C4239 C4240 1.398 . S
C4239 C4245 1.491 . S
C4240 H4231 0.950 . S
C4240 C4239 1.398 . S
C4240 C4241 1.391 . S
C4241 H4229 0.950 . S
C4241 C4237 1.393 . S
C4241 C4240 1.391 . S
C4242 H4232 0.950 . S
C4242 C4243 1.386 . S
C4242 C4244 1.391 . S
C4243 C4242 1.386 . S
C4243 C4247 1.393 . S
C4244 H4233 0.950 . S
C4244 C4242 1.391 . S
C4244 C4245 1.400 . S
C4245 C4239 1.491 . S
C4245 C4244 1.400 . S
C4245 C4246 1.398 . S
C4246 H4234 0.950 . S
C4246 C4245 1.398 . S
C4246 C4247 1.391 . S
C4247 H4235 0.950 . S
C4247 C4243 1.393 . S
C4247 C4246 1.391 . S
H4248 C4256 0.950 . S
H4249 C4261 0.950 . S
H4250 C4258 0.950 . S
H4251 C4260 0.950 . S
H4252 C4262 0.950 . S
H4253 C4264 0.950 . S
H4254 C4266 0.950 . S
H4255 C4267 0.950 . S
C4256 H4248 0.950 . S
C4256 C4257 1.386 . S
C4256 C4258 1.391 . S
C4257 C4256 1.386 . S
C4257 C4261 1.393 . S
C4258 H4250 0.950 . S
C4258 C4256 1.391 . S
C4258 C4259 1.400 . S
C4259 C4258 1.400 . S
C4259 C4260 1.398 . S
C4259 C4265 1.491 . S
C4260 H4251 0.950 . S
C4260 C4259 1.398 . S
C4260 C4261 1.391 . S
C4261 H4249 0.950 . S
C4261 C4257 1.393 . S
C4261 C4260 1.391 . S
C4262 H4252 0.950 . S
C4262 C4263 1.386 . S
C4262 C4264 1.391 . S
C4263 C4262 1.386 . S
C4263 C4267 1.393 . S
C4264 H4253 0.950 . S
C4264 C4262 1.391 . S
C4264 C4265 1.400 . S
C4265 C4259 1.491 . S
C4265 C4264 1.400 . S
C4265 C4266 1.398 . S
C4266 H4254 0.950 . S
C4266 C4265 1.398 . S
C4266 C4267 1.391 . S
C4267 H4255 0.950 . S
C4267 C4263 1.393 . S
C4267 C4266 1.391 . S
H4268 C4276 0.950 . S
H4269 C4281 0.950 . S
H4270 C4278 0.950 . S
H4271 C4280 0.950 . S
H4272 C4282 0.950 . S
H4273 C4284 0.950 . S
H4274 C4286 0.950 . S
H4275 C4287 0.950 . S
C4276 H4268 0.950 . S
C4276 C4277 1.386 . S
C4276 C4278 1.391 . S
C4277 C4276 1.386 . S
C4277 C4281 1.393 . S
C4278 H4270 0.950 . S
C4278 C4276 1.391 . S
C4278 C4279 1.400 . S
C4279 C4278 1.400 . S
C4279 C4280 1.398 . S
C4279 C4285 1.491 . S
C4280 H4271 0.950 . S
C4280 C4279 1.398 . S
C4280 C4281 1.391 . S
C4281 H4269 0.950 . S
C4281 C4277 1.393 . S
C4281 C4280 1.391 . S
C4282 H4272 0.950 . S
C4282 C4283 1.386 . S
C4282 C4284 1.391 . S
C4283 C4282 1.386 . S
C4283 C4287 1.393 . S
C4284 H4273 0.950 . S
C4284 C4282 1.391 . S
C4284 C4285 1.400 . S
C4285 C4279 1.491 . S
C4285 C4284 1.400 . S
C4285 C4286 1.398 . S
C4286 H4274 0.950 . S
C4286 C4285 1.398 . S
C4286 C4287 1.391 . S
C4287 H4275 0.950 . S
C4287 C4283 1.393 . S
C4287 C4286 1.391 . S
H4288 C4296 0.950 . S
H4289 C4301 0.950 . S
H4290 C4298 0.950 . S
H4291 C4300 0.950 . S
H4292 C4302 0.950 . S
H4293 C4304 0.950 . S
H4294 C4306 0.950 . S
H4295 C4307 0.950 . S
C4296 H4288 0.950 . S
C4296 C4297 1.386 . S
C4296 C4298 1.391 . S
C4297 C4296 1.386 . S
C4297 C4301 1.393 . S
C4298 H4290 0.950 . S
C4298 C4296 1.391 . S
C4298 C4299 1.400 . S
C4299 C4298 1.400 . S
C4299 C4300 1.398 . S
C4299 C4305 1.491 . S
C4300 H4291 0.950 . S
C4300 C4299 1.398 . S
C4300 C4301 1.391 . S
C4301 H4289 0.950 . S
C4301 C4297 1.393 . S
C4301 C4300 1.391 . S
C4302 H4292 0.950 . S
C4302 C4303 1.386 . S
C4302 C4304 1.391 . S
C4303 C4302 1.386 . S
C4303 C4307 1.393 . S
C4304 H4293 0.950 . S
C4304 C4302 1.391 . S
C4304 C4305 1.400 . S
C4305 C4299 1.491 . S
C4305 C4304 1.400 . S
C4305 C4306 1.398 . S
C4306 H4294 0.950 . S
C4306 C4305 1.398 . S
C4306 C4307 1.391 . S
C4307 H4295 0.950 . S
C4307 C4303 1.393 . S
C4307 C4306 1.391 . S
H4308 C4316 0.950 . S
H4309 C4321 0.950 . S
H4310 C4318 0.950 . S
H4311 C4320 0.950 . S
H4312 C4322 0.950 . S
H4313 C4324 0.950 . S
H4314 C4326 0.950 . S
H4315 C4327 0.950 . S
C4316 H4308 0.950 . S
C4316 C4317 1.386 . S
C4316 C4318 1.391 . S
C4317 C4316 1.386 . S
C4317 C4321 1.393 . S
C4318 H4310 0.950 . S
C4318 C4316 1.391 . S
C4318 C4319 1.400 . S
C4319 C4318 1.400 . S
C4319 C4320 1.398 . S
C4319 C4325 1.491 . S
C4320 H4311 0.950 . S
C4320 C4319 1.398 . S
C4320 C4321 1.391 . S
C4321 H4309 0.950 . S
C4321 C4317 1.393 . S
C4321 C4320 1.391 . S
C4322 H4312 0.950 . S
C4322 C4323 1.386 . S
C4322 C4324 1.391 . S
C4323 C4322 1.386 . S
C4323 C4327 1.393 . S
C4324 H4313 0.950 . S
C4324 C4322 1.391 . S
C4324 C4325 1.400 . S
C4325 C4319 1.491 . S
C4325 C4324 1.400 . S
C4325 C4326 1.398 . S
C4326 H4314 0.950 . S
C4326 C4325 1.398 . S
C4326 C4327 1.391 . S
C4327 H4315 0.950 . S
C4327 C4323 1.393 . S
C4327 C4326 1.391 . S
H4328 C4336 0.950 . S
H4329 C4341 0.950 . S
H4330 C4338 0.950 . S
H4331 C4340 0.950 . S
H4332 C4342 0.950 . S
H4333 C4344 0.950 . S
H4334 C4346 0.950 . S
H4335 C4347 0.950 . S
C4336 H4328 0.950 . S
C4336 C4337 1.386 . S
C4336 C4338 1.391 . S
C4337 C4336 1.386 . S
C4337 C4341 1.393 . S
C4338 H4330 0.950 . S
C4338 C4336 1.391 . S
C4338 C4339 1.400 . S
C4339 C4338 1.400 . S
C4339 C4340 1.398 . S
C4339 C4345 1.491 . S
C4340 H4331 0.950 . S
C4340 C4339 1.398 . S
C4340 C4341 1.391 . S
C4341 H4329 0.950 . S
C4341 C4337 1.393 . S
C4341 C4340 1.391 . S
C4342 H4332 0.950 . S
C4342 C4343 1.386 . S
C4342 C4344 1.391 . S
C4343 C4342 1.386 . S
C4343 C4347 1.393 . S
C4344 H4333 0.950 . S
C4344 C4342 1.391 . S
C4344 C4345 1.400 . S
C4345 C4339 1.491 . S
C4345 C4344 1.400 . S
C4345 C4346 1.398 . S
C4346 H4334 0.950 . S
C4346 C4345 1.398 . S
C4346 C4347 1.391 . S
C4347 H4335 0.950 . S
C4347 C4343 1.393 . S
C4347 C4346 1.391 . S
H4348 C4356 0.950 . S
H4349 C4361 0.950 . S
H4350 C4358 0.950 . S
H4351 C4360 0.950 . S
H4352 C4362 0.950 . S
H4353 C4364 0.950 . S
H4354 C4366 0.950 . S
H4355 C4367 0.950 . S
C4356 H4348 0.950 . S
C4356 C4357 1.386 . S
C4356 C4358 1.391 . S
C4357 C4356 1.386 . S
C4357 C4361 1.393 . S
C4358 H4350 0.950 . S
C4358 C4356 1.391 . S
C4358 C4359 1.400 . S
C4359 C4358 1.400 . S
C4359 C4360 1.398 . S
C4359 C4365 1.491 . S
C4360 H4351 0.950 . S
C4360 C4359 1.398 . S
C4360 C4361 1.391 . S
C4361 H4349 0.950 . S
C4361 C4357 1.393 . S
C4361 C4360 1.391 . S
C4362 H4352 0.950 . S
C4362 C4363 1.386 . S
C4362 C4364 1.391 . S
C4363 C4362 1.386 . S
C4363 C4367 1.393 . S
C4364 H4353 0.950 . S
C4364 C4362 1.391 . S
C4364 C4365 1.400 . S
C4365 C4359 1.491 . S
C4365 C4364 1.400 . S
C4365 C4366 1.398 . S
C4366 H4354 0.950 . S
C4366 C4365 1.398 . S
C4366 C4367 1.391 . S
C4367 H4355 0.950 . S
C4367 C4363 1.393 . S
C4367 C4366 1.391 . S
H4368 C4376 0.950 . S
H4369 C4381 0.950 . S
H4370 C4378 0.950 . S
H4371 C4380 0.950 . S
H4372 C4382 0.950 . S
H4373 C4384 0.950 . S
H4374 C4386 0.950 . S
H4375 C4387 0.950 . S
C4376 H4368 0.950 . S
C4376 C4377 1.386 . S
C4376 C4378 1.391 . S
C4377 C4376 1.386 . S
C4377 C4381 1.393 . S
C4378 H4370 0.950 . S
C4378 C4376 1.391 . S
C4378 C4379 1.400 . S
C4379 C4378 1.400 . S
C4379 C4380 1.398 . S
C4379 C4385 1.491 . S
C4380 H4371 0.950 . S
C4380 C4379 1.398 . S
C4380 C4381 1.391 . S
C4381 H4369 0.950 . S
C4381 C4377 1.393 . S
C4381 C4380 1.391 . S
C4382 H4372 0.950 . S
C4382 C4383 1.386 . S
C4382 C4384 1.391 . S
C4383 C4382 1.386 . S
C4383 C4387 1.393 . S
C4384 H4373 0.950 . S
C4384 C4382 1.391 . S
C4384 C4385 1.400 . S
C4385 C4379 1.491 . S
C4385 C4384 1.400 . S
C4385 C4386 1.398 . S
C4386 H4374 0.950 . S
C4386 C4385 1.398 . S
C4386 C4387 1.391 . S
C4387 H4375 0.950 . S
C4387 C4383 1.393 . S
C4387 C4386 1.391 . S
H4388 C4396 0.950 . S
H4389 C4401 0.950 . S
H4390 C4398 0.950 . S
H4391 C4400 0.950 . S
H4392 C4402 0.950 . S
H4393 C4404 0.950 . S
H4394 C4406 0.950 . S
H4395 C4407 0.950 . S
C4396 H4388 0.950 . S
C4396 C4397 1.386 . S
C4396 C4398 1.391 . S
C4397 C4396 1.386 . S
C4397 C4401 1.393 . S
C4398 H4390 0.950 . S
C4398 C4396 1.391 . S
C4398 C4399 1.400 . S
C4399 C4398 1.400 . S
C4399 C4400 1.398 . S
C4399 C4405 1.491 . S
C4400 H4391 0.950 . S
C4400 C4399 1.398 . S
C4400 C4401 1.391 . S
C4401 H4389 0.950 . S
C4401 C4397 1.393 . S
C4401 C4400 1.391 . S
C4402 H4392 0.950 . S
C4402 C4403 1.386 . S
C4402 C4404 1.391 . S
C4403 C4402 1.386 . S
C4403 C4407 1.393 . S
C4404 H4393 0.950 . S
C4404 C4402 1.391 . S
C4404 C4405 1.400 . S
C4405 C4399 1.491 . S
C4405 C4404 1.400 . S
C4405 C4406 1.398 . S
C4406 H4394 0.950 . S
C4406 C4405 1.398 . S
C4406 C4407 1.391 . S
C4407 H4395 0.950 . S
C4407 C4403 1.393 . S
C4407 C4406 1.391 . S
H4408 C4416 0.950 . S
H4409 C4421 0.950 . S
H4410 C4418 0.950 . S
H4411 C4420 0.950 . S
H4412 C4422 0.950 . S
H4413 C4424 0.950 . S
H4414 C4426 0.950 . S
H4415 C4427 0.950 . S
C4416 H4408 0.950 . S
C4416 C4417 1.386 . S
C4416 C4418 1.391 . S
C4417 C4416 1.386 . S
C4417 C4421 1.393 . S
C4418 H4410 0.950 . S
C4418 C4416 1.391 . S
C4418 C4419 1.400 . S
C4419 C4418 1.400 . S
C4419 C4420 1.398 . S
C4419 C4425 1.491 . S
C4420 H4411 0.950 . S
C4420 C4419 1.398 . S
C4420 C4421 1.391 . S
C4421 H4409 0.950 . S
C4421 C4417 1.393 . S
C4421 C4420 1.391 . S
C4422 H4412 0.950 . S
C4422 C4423 1.386 . S
C4422 C4424 1.391 . S
C4423 C4422 1.386 . S
C4423 C4427 1.393 . S
C4424 H4413 0.950 . S
C4424 C4422 1.391 . S
C4424 C4425 1.400 . S
C4425 C4419 1.491 . S
C4425 C4424 1.400 . S
C4425 C4426 1.398 . S
C4426 H4414 0.950 . S
C4426 C4425 1.398 . S
C4426 C4427 1.391 . S
C4427 H4415 0.950 . S
C4427 C4423 1.393 . S
C4427 C4426 1.391 . S
H4428 C4436 0.950 . S
H4429 C4441 0.950 . S
H4430 C4438 0.950 . S
H4431 C4440 0.950 . S
H4432 C4442 0.950 . S
H4433 C4444 0.950 . S
H4434 C4446 0.950 . S
H4435 C4447 0.950 . S
C4436 H4428 0.950 . S
C4436 C4437 1.386 . S
C4436 C4438 1.391 . S
C4437 C4436 1.386 . S
C4437 C4441 1.393 . S
C4438 H4430 0.950 . S
C4438 C4436 1.391 . S
C4438 C4439 1.400 . S
C4439 C4438 1.400 . S
C4439 C4440 1.398 . S
C4439 C4445 1.491 . S
C4440 H4431 0.950 . S
C4440 C4439 1.398 . S
C4440 C4441 1.391 . S
C4441 H4429 0.950 . S
C4441 C4437 1.393 . S
C4441 C4440 1.391 . S
C4442 H4432 0.950 . S
C4442 C4443 1.386 . S
C4442 C4444 1.391 . S
C4443 C4442 1.386 . S
C4443 C4447 1.393 . S
C4444 H4433 0.950 . S
C4444 C4442 1.391 . S
C4444 C4445 1.400 . S
C4445 C4439 1.491 . S
C4445 C4444 1.400 . S
C4445 C4446 1.398 . S
C4446 H4434 0.950 . S
C4446 C4445 1.398 . S
C4446 C4447 1.391 . S
C4447 H4435 0.950 . S
C4447 C4443 1.393 . S
C4447 C4446 1.391 . S
H4448 C4456 0.950 . S
H4449 C4461 0.950 . S
H4450 C4458 0.950 . S
H4451 C4460 0.950 . S
H4452 C4462 0.950 . S
H4453 C4464 0.950 . S
H4454 C4466 0.950 . S
H4455 C4467 0.950 . S
C4456 H4448 0.950 . S
C4456 C4457 1.386 . S
C4456 C4458 1.391 . S
C4457 C4456 1.386 . S
C4457 C4461 1.393 . S
C4458 H4450 0.950 . S
C4458 C4456 1.391 . S
C4458 C4459 1.400 . S
C4459 C4458 1.400 . S
C4459 C4460 1.398 . S
C4459 C4465 1.491 . S
C4460 H4451 0.950 . S
C4460 C4459 1.398 . S
C4460 C4461 1.391 . S
C4461 H4449 0.950 . S
C4461 C4457 1.393 . S
C4461 C4460 1.391 . S
C4462 H4452 0.950 . S
C4462 C4463 1.386 . S
C4462 C4464 1.391 . S
C4463 C4462 1.386 . S
C4463 C4467 1.393 . S
C4464 H4453 0.950 . S
C4464 C4462 1.391 . S
C4464 C4465 1.400 . S
C4465 C4459 1.491 . S
C4465 C4464 1.400 . S
C4465 C4466 1.398 . S
C4466 H4454 0.950 . S
C4466 C4465 1.398 . S
C4466 C4467 1.391 . S
C4467 H4455 0.950 . S
C4467 C4463 1.393 . S
C4467 C4466 1.391 . S
H4468 C4476 0.950 . S
H4469 C4481 0.950 . S
H4470 C4478 0.950 . S
H4471 C4480 0.950 . S
H4472 C4482 0.950 . S
H4473 C4484 0.950 . S
H4474 C4486 0.950 . S
H4475 C4487 0.950 . S
C4476 H4468 0.950 . S
C4476 C4477 1.386 . S
C4476 C4478 1.391 . S
C4477 C4476 1.386 . S
C4477 C4481 1.393 . S
C4478 H4470 0.950 . S
C4478 C4476 1.391 . S
C4478 C4479 1.400 . S
C4479 C4478 1.400 . S
C4479 C4480 1.398 . S
C4479 C4485 1.491 . S
C4480 H4471 0.950 . S
C4480 C4479 1.398 . S
C4480 C4481 1.391 . S
C4481 H4469 0.950 . S
C4481 C4477 1.393 . S
C4481 C4480 1.391 . S
C4482 H4472 0.950 . S
C4482 C4483 1.386 . S
C4482 C4484 1.391 . S
C4483 C4482 1.386 . S
C4483 C4487 1.393 . S
C4484 H4473 0.950 . S
C4484 C4482 1.391 . S
C4484 C4485 1.400 . S
C4485 C4479 1.491 . S
C4485 C4484 1.400 . S
C4485 C4486 1.398 . S
C4486 H4474 0.950 . S
C4486 C4485 1.398 . S
C4486 C4487 1.391 . S
C4487 H4475 0.950 . S
C4487 C4483 1.393 . S
C4487 C4486 1.391 . S
H4488 C4496 0.950 . S
H4489 C4501 0.950 . S
H4490 C4498 0.950 . S
H4491 C4500 0.950 . S
H4492 C4502 0.950 . S
H4493 C4504 0.950 . S
H4494 C4506 0.950 . S
H4495 C4507 0.950 . S
C4496 H4488 0.950 . S
C4496 C4497 1.386 . S
C4496 C4498 1.391 . S
C4497 C4496 1.386 . S
C4497 C4501 1.393 . S
C4498 H4490 0.950 . S
C4498 C4496 1.391 . S
C4498 C4499 1.400 . S
C4499 C4498 1.400 . S
C4499 C4500 1.398 . S
C4499 C4505 1.491 . S
C4500 H4491 0.950 . S
C4500 C4499 1.398 . S
C4500 C4501 1.391 . S
C4501 H4489 0.950 . S
C4501 C4497 1.393 . S
C4501 C4500 1.391 . S
C4502 H4492 0.950 . S
C4502 C4503 1.386 . S
C4502 C4504 1.391 . S
C4503 C4502 1.386 . S
C4503 C4507 1.393 . S
C4504 H4493 0.950 . S
C4504 C4502 1.391 . S
C4504 C4505 1.400 . S
C4505 C4499 1.491 . S
C4505 C4504 1.400 . S
C4505 C4506 1.398 . S
C4506 H4494 0.950 . S
C4506 C4505 1.398 . S
C4506 C4507 1.391 . S
C4507 H4495 0.950 . S
C4507 C4503 1.393 . S
C4507 C4506 1.391 . S
H4508 C4516 0.950 . S
H4509 C4521 0.950 . S
H4510 C4518 0.950 . S
H4511 C4520 0.950 . S
H4512 C4522 0.950 . S
H4513 C4524 0.950 . S
H4514 C4526 0.950 . S
H4515 C4527 0.950 . S
C4516 H4508 0.950 . S
C4516 C4517 1.386 . S
C4516 C4518 1.391 . S
C4517 C4516 1.386 . S
C4517 C4521 1.393 . S
C4518 H4510 0.950 . S
C4518 C4516 1.391 . S
C4518 C4519 1.400 . S
C4519 C4518 1.400 . S
C4519 C4520 1.398 . S
C4519 C4525 1.491 . S
C4520 H4511 0.950 . S
C4520 C4519 1.398 . S
C4520 C4521 1.391 . S
C4521 H4509 0.950 . S
C4521 C4517 1.393 . S
C4521 C4520 1.391 . S
C4522 H4512 0.950 . S
C4522 C4523 1.386 . S
C4522 C4524 1.391 . S
C4523 C4522 1.386 . S
C4523 C4527 1.393 . S
C4524 H4513 0.950 . S
C4524 C4522 1.391 . S
C4524 C4525 1.400 . S
C4525 C4519 1.491 . S
C4525 C4524 1.400 . S
C4525 C4526 1.398 . S
C4526 H4514 0.950 . S
C4526 C4525 1.398 . S
C4526 C4527 1.391 . S
C4527 H4515 0.950 . S
C4527 C4523 1.393 . S
C4527 C4526 1.391 . S
H4528 C4536 0.950 . S
H4529 C4541 0.950 . S
H4530 C4538 0.950 . S
H4531 C4540 0.950 . S
H4532 C4542 0.950 . S
H4533 C4544 0.950 . S
H4534 C4546 0.950 . S
H4535 C4547 0.950 . S
C4536 H4528 0.950 . S
C4536 C4537 1.386 . S
C4536 C4538 1.391 . S
C4537 C4536 1.386 . S
C4537 C4541 1.393 . S
C4538 H4530 0.950 . S
C4538 C4536 1.391 . S
C4538 C4539 1.400 . S
C4539 C4538 1.400 . S
C4539 C4540 1.398 . S
C4539 C4545 1.491 . S
C4540 H4531 0.950 . S
C4540 C4539 1.398 . S
C4540 C4541 1.391 . S
C4541 H4529 0.950 . S
C4541 C4537 1.393 . S
C4541 C4540 1.391 . S
C4542 H4532 0.950 . S
C4542 C4543 1.386 . S
C4542 C4544 1.391 . S
C4543 C4542 1.386 . S
C4543 C4547 1.393 . S
C4544 H4533 0.950 . S
C4544 C4542 1.391 . S
C4544 C4545 1.400 . S
C4545 C4539 1.491 . S
C4545 C4544 1.400 . S
C4545 C4546 1.398 . S
C4546 H4534 0.950 . S
C4546 C4545 1.398 . S
C4546 C4547 1.391 . S
C4547 H4535 0.950 . S
C4547 C4543 1.393 . S
C4547 C4546 1.391 . S
H4548 C4556 0.950 . S
H4549 C4561 0.950 . S
H4550 C4558 0.950 . S
H4551 C4560 0.950 . S
H4552 C4562 0.950 . S
H4553 C4564 0.950 . S
H4554 C4566 0.950 . S
H4555 C4567 0.950 . S
C4556 H4548 0.950 . S
C4556 C4557 1.386 . S
C4556 C4558 1.391 . S
C4557 C4556 1.386 . S
C4557 C4561 1.393 . S
C4558 H4550 0.950 . S
C4558 C4556 1.391 . S
C4558 C4559 1.400 . S
C4559 C4558 1.400 . S
C4559 C4560 1.398 . S
C4559 C4565 1.491 . S
C4560 H4551 0.950 . S
C4560 C4559 1.398 . S
C4560 C4561 1.391 . S
C4561 H4549 0.950 . S
C4561 C4557 1.393 . S
C4561 C4560 1.391 . S
C4562 H4552 0.950 . S
C4562 C4563 1.386 . S
C4562 C4564 1.391 . S
C4563 C4562 1.386 . S
C4563 C4567 1.393 . S
C4564 H4553 0.950 . S
C4564 C4562 1.391 . S
C4564 C4565 1.400 . S
C4565 C4559 1.491 . S
C4565 C4564 1.400 . S
C4565 C4566 1.398 . S
C4566 H4554 0.950 . S
C4566 C4565 1.398 . S
C4566 C4567 1.391 . S
C4567 H4555 0.950 . S
C4567 C4563 1.393 . S
C4567 C4566 1.391 . S
H4568 C4576 0.950 . S
H4569 C4581 0.950 . S
H4570 C4578 0.950 . S
H4571 C4580 0.950 . S
H4572 C4582 0.950 . S
H4573 C4584 0.950 . S
H4574 C4586 0.950 . S
H4575 C4587 0.950 . S
C4576 H4568 0.950 . S
C4576 C4577 1.386 . S
C4576 C4578 1.391 . S
C4577 C4576 1.386 . S
C4577 C4581 1.393 . S
C4578 H4570 0.950 . S
C4578 C4576 1.391 . S
C4578 C4579 1.400 . S
C4579 C4578 1.400 . S
C4579 C4580 1.398 . S
C4579 C4585 1.491 . S
C4580 H4571 0.950 . S
C4580 C4579 1.398 . S
C4580 C4581 1.391 . S
C4581 H4569 0.950 . S
C4581 C4577 1.393 . S
C4581 C4580 1.391 . S
C4582 H4572 0.950 . S
C4582 C4583 1.386 . S
C4582 C4584 1.391 . S
C4583 C4582 1.386 . S
C4583 C4587 1.393 . S
C4584 H4573 0.950 . S
C4584 C4582 1.391 . S
C4584 C4585 1.400 . S
C4585 C4579 1.491 . S
C4585 C4584 1.400 . S
C4585 C4586 1.398 . S
C4586 H4574 0.950 . S
C4586 C4585 1.398 . S
C4586 C4587 1.391 . S
C4587 H4575 0.950 . S
C4587 C4583 1.393 . S
C4587 C4586 1.391 . S
H4588 C4596 0.950 . S
H4589 C4601 0.950 . S
H4590 C4598 0.950 . S
H4591 C4600 0.950 . S
H4592 C4602 0.950 . S
H4593 C4604 0.950 . S
H4594 C4606 0.950 . S
H4595 C4607 0.950 . S
C4596 H4588 0.950 . S
C4596 C4597 1.386 . S
C4596 C4598 1.391 . S
C4597 C4596 1.386 . S
C4597 C4601 1.393 . S
C4598 H4590 0.950 . S
C4598 C4596 1.391 . S
C4598 C4599 1.400 . S
C4599 C4598 1.400 . S
C4599 C4600 1.398 . S
C4599 C4605 1.491 . S
C4600 H4591 0.950 . S
C4600 C4599 1.398 . S
C4600 C4601 1.391 . S
C4601 H4589 0.950 . S
C4601 C4597 1.393 . S
C4601 C4600 1.391 . S
C4602 H4592 0.950 . S
C4602 C4603 1.386 . S
C4602 C4604 1.391 . S
C4603 C4602 1.386 . S
C4603 C4607 1.393 . S
C4604 H4593 0.950 . S
C4604 C4602 1.391 . S
C4604 C4605 1.400 . S
C4605 C4599 1.491 . S
C4605 C4604 1.400 . S
C4605 C4606 1.398 . S
C4606 H4594 0.950 . S
C4606 C4605 1.398 . S
C4606 C4607 1.391 . S
C4607 H4595 0.950 . S
C4607 C4603 1.393 . S
C4607 C4606 1.391 . S
H4608 C4616 0.950 . S
H4609 C4621 0.950 . S
H4610 C4618 0.950 . S
H4611 C4620 0.950 . S
H4612 C4622 0.950 . S
H4613 C4624 0.950 . S
H4614 C4626 0.950 . S
H4615 C4627 0.950 . S
C4616 H4608 0.950 . S
C4616 C4617 1.386 . S
C4616 C4618 1.391 . S
C4617 C4616 1.386 . S
C4617 C4621 1.393 . S
C4618 H4610 0.950 . S
C4618 C4616 1.391 . S
C4618 C4619 1.400 . S
C4619 C4618 1.400 . S
C4619 C4620 1.398 . S
C4619 C4625 1.491 . S
C4620 H4611 0.950 . S
C4620 C4619 1.398 . S
C4620 C4621 1.391 . S
C4621 H4609 0.950 . S
C4621 C4617 1.393 . S
C4621 C4620 1.391 . S
C4622 H4612 0.950 . S
C4622 C4623 1.386 . S
C4622 C4624 1.391 . S
C4623 C4622 1.386 . S
C4623 C4627 1.393 . S
C4624 H4613 0.950 . S
C4624 C4622 1.391 . S
C4624 C4625 1.400 . S
C4625 C4619 1.491 . S
C4625 C4624 1.400 . S
C4625 C4626 1.398 . S
C4626 H4614 0.950 . S
C4626 C4625 1.398 . S
C4626 C4627 1.391 . S
C4627 H4615 0.950 . S
C4627 C4623 1.393 . S
C4627 C4626 1.391 . S
H4628 C4636 0.950 . S
H4629 C4641 0.950 . S
H4630 C4638 0.950 . S
H4631 C4640 0.950 . S
H4632 C4642 0.950 . S
H4633 C4644 0.950 . S
H4634 C4646 0.950 . S
H4635 C4647 0.950 . S
C4636 H4628 0.950 . S
C4636 C4637 1.386 . S
C4636 C4638 1.391 . S
C4637 C4636 1.386 . S
C4637 C4641 1.393 . S
C4638 H4630 0.950 . S
C4638 C4636 1.391 . S
C4638 C4639 1.400 . S
C4639 C4638 1.400 . S
C4639 C4640 1.398 . S
C4639 C4645 1.491 . S
C4640 H4631 0.950 . S
C4640 C4639 1.398 . S
C4640 C4641 1.391 . S
C4641 H4629 0.950 . S
C4641 C4637 1.393 . S
C4641 C4640 1.391 . S
C4642 H4632 0.950 . S
C4642 C4643 1.386 . S
C4642 C4644 1.391 . S
C4643 C4642 1.386 . S
C4643 C4647 1.393 . S
C4644 H4633 0.950 . S
C4644 C4642 1.391 . S
C4644 C4645 1.400 . S
C4645 C4639 1.491 . S
C4645 C4644 1.400 . S
C4645 C4646 1.398 . S
C4646 H4634 0.950 . S
C4646 C4645 1.398 . S
C4646 C4647 1.391 . S
C4647 H4635 0.950 . S
C4647 C4643 1.393 . S
C4647 C4646 1.391 . S
H4648 C4656 0.950 . S
H4649 C4661 0.950 . S
H4650 C4658 0.950 . S
H4651 C4660 0.950 . S
H4652 C4662 0.950 . S
H4653 C4664 0.950 . S
H4654 C4666 0.950 . S
H4655 C4667 0.950 . S
C4656 H4648 0.950 . S
C4656 C4657 1.386 . S
C4656 C4658 1.391 . S
C4657 C4656 1.386 . S
C4657 C4661 1.393 . S
C4658 H4650 0.950 . S
C4658 C4656 1.391 . S
C4658 C4659 1.400 . S
C4659 C4658 1.400 . S
C4659 C4660 1.398 . S
C4659 C4665 1.491 . S
C4660 H4651 0.950 . S
C4660 C4659 1.398 . S
C4660 C4661 1.391 . S
C4661 H4649 0.950 . S
C4661 C4657 1.393 . S
C4661 C4660 1.391 . S
C4662 H4652 0.950 . S
C4662 C4663 1.386 . S
C4662 C4664 1.391 . S
C4663 C4662 1.386 . S
C4663 C4667 1.393 . S
C4664 H4653 0.950 . S
C4664 C4662 1.391 . S
C4664 C4665 1.400 . S
C4665 C4659 1.491 . S
C4665 C4664 1.400 . S
C4665 C4666 1.398 . S
C4666 H4654 0.950 . S
C4666 C4665 1.398 . S
C4666 C4667 1.391 . S
C4667 H4655 0.950 . S
C4667 C4663 1.393 . S
C4667 C4666 1.391 . S
H4668 C4676 0.950 . S
H4669 C4681 0.950 . S
H4670 C4678 0.950 . S
H4671 C4680 0.950 . S
H4672 C4682 0.950 . S
H4673 C4684 0.950 . S
H4674 C4686 0.950 . S
H4675 C4687 0.950 . S
C4676 H4668 0.950 . S
C4676 C4677 1.386 . S
C4676 C4678 1.391 . S
C4677 C4676 1.386 . S
C4677 C4681 1.393 . S
C4678 H4670 0.950 . S
C4678 C4676 1.391 . S
C4678 C4679 1.400 . S
C4679 C4678 1.400 . S
C4679 C4680 1.398 . S
C4679 C4685 1.491 . S
C4680 H4671 0.950 . S
C4680 C4679 1.398 . S
C4680 C4681 1.391 . S
C4681 H4669 0.950 . S
C4681 C4677 1.393 . S
C4681 C4680 1.391 . S
C4682 H4672 0.950 . S
C4682 C4683 1.386 . S
C4682 C4684 1.391 . S
C4683 C4682 1.386 . S
C4683 C4687 1.393 . S
C4684 H4673 0.950 . S
C4684 C4682 1.391 . S
C4684 C4685 1.400 . S
C4685 C4679 1.491 . S
C4685 C4684 1.400 . S
C4685 C4686 1.398 . S
C4686 H4674 0.950 . S
C4686 C4685 1.398 . S
C4686 C4687 1.391 . S
C4687 H4675 0.950 . S
C4687 C4683 1.393 . S
C4687 C4686 1.391 . S
H4688 C4696 0.950 . S
H4689 C4701 0.950 . S
H4690 C4698 0.950 . S
H4691 C4700 0.950 . S
H4692 C4702 0.950 . S
H4693 C4704 0.950 . S
H4694 C4706 0.950 . S
H4695 C4707 0.950 . S
C4696 H4688 0.950 . S
C4696 C4697 1.386 . S
C4696 C4698 1.391 . S
C4697 C4696 1.386 . S
C4697 C4701 1.393 . S
C4698 H4690 0.950 . S
C4698 C4696 1.391 . S
C4698 C4699 1.400 . S
C4699 C4698 1.400 . S
C4699 C4700 1.398 . S
C4699 C4705 1.491 . S
C4700 H4691 0.950 . S
C4700 C4699 1.398 . S
C4700 C4701 1.391 . S
C4701 H4689 0.950 . S
C4701 C4697 1.393 . S
C4701 C4700 1.391 . S
C4702 H4692 0.950 . S
C4702 C4703 1.386 . S
C4702 C4704 1.391 . S
C4703 C4702 1.386 . S
C4703 C4707 1.393 . S
C4704 H4693 0.950 . S
C4704 C4702 1.391 . S
C4704 C4705 1.400 . S
C4705 C4699 1.491 . S
C4705 C4704 1.400 . S
C4705 C4706 1.398 . S
C4706 H4694 0.950 . S
C4706 C4705 1.398 . S
C4706 C4707 1.391 . S
C4707 H4695 0.950 . S
C4707 C4703 1.393 . S
C4707 C4706 1.391 . S
H4708 C4716 0.950 . S
H4709 C4721 0.950 . S
H4710 C4718 0.950 . S
H4711 C4720 0.950 . S
H4712 C4722 0.950 . S
H4713 C4724 0.950 . S
H4714 C4726 0.950 . S
H4715 C4727 0.950 . S
C4716 H4708 0.950 . S
C4716 C4717 1.386 . S
C4716 C4718 1.391 . S
C4717 C4716 1.386 . S
C4717 C4721 1.393 . S
C4718 H4710 0.950 . S
C4718 C4716 1.391 . S
C4718 C4719 1.400 . S
C4719 C4718 1.400 . S
C4719 C4720 1.398 . S
C4719 C4725 1.491 . S
C4720 H4711 0.950 . S
C4720 C4719 1.398 . S
C4720 C4721 1.391 . S
C4721 H4709 0.950 . S
C4721 C4717 1.393 . S
C4721 C4720 1.391 . S
C4722 H4712 0.950 . S
C4722 C4723 1.386 . S
C4722 C4724 1.391 . S
C4723 C4722 1.386 . S
C4723 C4727 1.393 . S
C4724 H4713 0.950 . S
C4724 C4722 1.391 . S
C4724 C4725 1.400 . S
C4725 C4719 1.491 . S
C4725 C4724 1.400 . S
C4725 C4726 1.398 . S
C4726 H4714 0.950 . S
C4726 C4725 1.398 . S
C4726 C4727 1.391 . S
C4727 H4715 0.950 . S
C4727 C4723 1.393 . S
C4727 C4726 1.391 . S
H4728 C4736 0.950 . S
H4729 C4741 0.950 . S
H4730 C4738 0.950 . S
H4731 C4740 0.950 . S
H4732 C4742 0.950 . S
H4733 C4744 0.950 . S
H4734 C4746 0.950 . S
H4735 C4747 0.950 . S
C4736 H4728 0.950 . S
C4736 C4737 1.386 . S
C4736 C4738 1.391 . S
C4737 C4736 1.386 . S
C4737 C4741 1.393 . S
C4738 H4730 0.950 . S
C4738 C4736 1.391 . S
C4738 C4739 1.400 . S
C4739 C4738 1.400 . S
C4739 C4740 1.398 . S
C4739 C4745 1.491 . S
C4740 H4731 0.950 . S
C4740 C4739 1.398 . S
C4740 C4741 1.391 . S
C4741 H4729 0.950 . S
C4741 C4737 1.393 . S
C4741 C4740 1.391 . S
C4742 H4732 0.950 . S
C4742 C4743 1.386 . S
C4742 C4744 1.391 . S
C4743 C4742 1.386 . S
C4743 C4747 1.393 . S
C4744 H4733 0.950 . S
C4744 C4742 1.391 . S
C4744 C4745 1.400 . S
C4745 C4739 1.491 . S
C4745 C4744 1.400 . S
C4745 C4746 1.398 . S
C4746 H4734 0.950 . S
C4746 C4745 1.398 . S
C4746 C4747 1.391 . S
C4747 H4735 0.950 . S
C4747 C4743 1.393 . S
C4747 C4746 1.391 . S
H4748 C4756 0.950 . S
H4749 C4761 0.950 . S
H4750 C4758 0.950 . S
H4751 C4760 0.950 . S
H4752 C4762 0.950 . S
H4753 C4764 0.950 . S
H4754 C4766 0.950 . S
H4755 C4767 0.950 . S
C4756 H4748 0.950 . S
C4756 C4757 1.386 . S
C4756 C4758 1.391 . S
C4757 C4756 1.386 . S
C4757 C4761 1.393 . S
C4758 H4750 0.950 . S
C4758 C4756 1.391 . S
C4758 C4759 1.400 . S
C4759 C4758 1.400 . S
C4759 C4760 1.398 . S
C4759 C4765 1.491 . S
C4760 H4751 0.950 . S
C4760 C4759 1.398 . S
C4760 C4761 1.391 . S
C4761 H4749 0.950 . S
C4761 C4757 1.393 . S
C4761 C4760 1.391 . S
C4762 H4752 0.950 . S
C4762 C4763 1.386 . S
C4762 C4764 1.391 . S
C4763 C4762 1.386 . S
C4763 C4767 1.393 . S
C4764 H4753 0.950 . S
C4764 C4762 1.391 . S
C4764 C4765 1.400 . S
C4765 C4759 1.491 . S
C4765 C4764 1.400 . S
C4765 C4766 1.398 . S
C4766 H4754 0.950 . S
C4766 C4765 1.398 . S
C4766 C4767 1.391 . S
C4767 H4755 0.950 . S
C4767 C4763 1.393 . S
C4767 C4766 1.391 . S
H4768 C4776 0.950 . S
H4769 C4781 0.950 . S
H4770 C4778 0.950 . S
H4771 C4780 0.950 . S
H4772 C4782 0.950 . S
H4773 C4784 0.950 . S
H4774 C4786 0.950 . S
H4775 C4787 0.950 . S
C4776 H4768 0.950 . S
C4776 C4777 1.386 . S
C4776 C4778 1.391 . S
C4777 C4776 1.386 . S
C4777 C4781 1.393 . S
C4778 H4770 0.950 . S
C4778 C4776 1.391 . S
C4778 C4779 1.400 . S
C4779 C4778 1.400 . S
C4779 C4780 1.398 . S
C4779 C4785 1.491 . S
C4780 H4771 0.950 . S
C4780 C4779 1.398 . S
C4780 C4781 1.391 . S
C4781 H4769 0.950 . S
C4781 C4777 1.393 . S
C4781 C4780 1.391 . S
C4782 H4772 0.950 . S
C4782 C4783 1.386 . S
C4782 C4784 1.391 . S
C4783 C4782 1.386 . S
C4783 C4787 1.393 . S
C4784 H4773 0.950 . S
C4784 C4782 1.391 . S
C4784 C4785 1.400 . S
C4785 C4779 1.491 . S
C4785 C4784 1.400 . S
C4785 C4786 1.398 . S
C4786 H4774 0.950 . S
C4786 C4785 1.398 . S
C4786 C4787 1.391 . S
C4787 H4775 0.950 . S
C4787 C4783 1.393 . S
C4787 C4786 1.391 . S
H4788 C4796 0.950 . S
H4789 C4801 0.950 . S
H4790 C4798 0.950 . S
H4791 C4800 0.950 . S
H4792 C4802 0.950 . S
H4793 C4804 0.950 . S
H4794 C4806 0.950 . S
H4795 C4807 0.950 . S
C4796 H4788 0.950 . S
C4796 C4797 1.386 . S
C4796 C4798 1.391 . S
C4797 C4796 1.386 . S
C4797 C4801 1.393 . S
C4798 H4790 0.950 . S
C4798 C4796 1.391 . S
C4798 C4799 1.400 . S
C4799 C4798 1.400 . S
C4799 C4800 1.398 . S
C4799 C4805 1.491 . S
C4800 H4791 0.950 . S
C4800 C4799 1.398 . S
C4800 C4801 1.391 . S
C4801 H4789 0.950 . S
C4801 C4797 1.393 . S
C4801 C4800 1.391 . S
C4802 H4792 0.950 . S
C4802 C4803 1.386 . S
C4802 C4804 1.391 . S
C4803 C4802 1.386 . S
C4803 C4807 1.393 . S
C4804 H4793 0.950 . S
C4804 C4802 1.391 . S
C4804 C4805 1.400 . S
C4805 C4799 1.491 . S
C4805 C4804 1.400 . S
C4805 C4806 1.398 . S
C4806 H4794 0.950 . S
C4806 C4805 1.398 . S
C4806 C4807 1.391 . S
C4807 H4795 0.950 . S
C4807 C4803 1.393 . S
C4807 C4806 1.391 . S
H4808 C4816 0.950 . S
H4809 C4821 0.950 . S
H4810 C4818 0.950 . S
H4811 C4820 0.950 . S
H4812 C4822 0.950 . S
H4813 C4824 0.950 . S
H4814 C4826 0.950 . S
H4815 C4827 0.950 . S
C4816 H4808 0.950 . S
C4816 C4817 1.386 . S
C4816 C4818 1.391 . S
C4817 C4816 1.386 . S
C4817 C4821 1.393 . S
C4818 H4810 0.950 . S
C4818 C4816 1.391 . S
C4818 C4819 1.400 . S
C4819 C4818 1.400 . S
C4819 C4820 1.398 . S
C4819 C4825 1.491 . S
C4820 H4811 0.950 . S
C4820 C4819 1.398 . S
C4820 C4821 1.391 . S
C4821 H4809 0.950 . S
C4821 C4817 1.393 . S
C4821 C4820 1.391 . S
C4822 H4812 0.950 . S
C4822 C4823 1.386 . S
C4822 C4824 1.391 . S
C4823 C4822 1.386 . S
C4823 C4827 1.393 . S
C4824 H4813 0.950 . S
C4824 C4822 1.391 . S
C4824 C4825 1.400 . S
C4825 C4819 1.491 . S
C4825 C4824 1.400 . S
C4825 C4826 1.398 . S
C4826 H4814 0.950 . S
C4826 C4825 1.398 . S
C4826 C4827 1.391 . S
C4827 H4815 0.950 . S
C4827 C4823 1.393 . S
C4827 C4826 1.391 . S
H4828 C4836 0.950 . S
H4829 C4841 0.950 . S
H4830 C4838 0.950 . S
H4831 C4840 0.950 . S
H4832 C4842 0.950 . S
H4833 C4844 0.950 . S
H4834 C4846 0.950 . S
H4835 C4847 0.950 . S
C4836 H4828 0.950 . S
C4836 C4837 1.386 . S
C4836 C4838 1.391 . S
C4837 C4836 1.386 . S
C4837 C4841 1.393 . S
C4838 H4830 0.950 . S
C4838 C4836 1.391 . S
C4838 C4839 1.400 . S
C4839 C4838 1.400 . S
C4839 C4840 1.398 . S
C4839 C4845 1.491 . S
C4840 H4831 0.950 . S
C4840 C4839 1.398 . S
C4840 C4841 1.391 . S
C4841 H4829 0.950 . S
C4841 C4837 1.393 . S
C4841 C4840 1.391 . S
C4842 H4832 0.950 . S
C4842 C4843 1.386 . S
C4842 C4844 1.391 . S
C4843 C4842 1.386 . S
C4843 C4847 1.393 . S
C4844 H4833 0.950 . S
C4844 C4842 1.391 . S
C4844 C4845 1.400 . S
C4845 C4839 1.491 . S
C4845 C4844 1.400 . S
C4845 C4846 1.398 . S
C4846 H4834 0.950 . S
C4846 C4845 1.398 . S
C4846 C4847 1.391 . S
C4847 H4835 0.950 . S
C4847 C4843 1.393 . S
C4847 C4846 1.391 . S
H4848 C4856 0.950 . S
H4849 C4861 0.950 . S
H4850 C4858 0.950 . S
H4851 C4860 0.950 . S
H4852 C4862 0.950 . S
H4853 C4864 0.950 . S
H4854 C4866 0.950 . S
H4855 C4867 0.950 . S
C4856 H4848 0.950 . S
C4856 C4857 1.386 . S
C4856 C4858 1.391 . S
C4857 C4856 1.386 . S
C4857 C4861 1.393 . S
C4858 H4850 0.950 . S
C4858 C4856 1.391 . S
C4858 C4859 1.400 . S
C4859 C4858 1.400 . S
C4859 C4860 1.398 . S
C4859 C4865 1.491 . S
C4860 H4851 0.950 . S
C4860 C4859 1.398 . S
C4860 C4861 1.391 . S
C4861 H4849 0.950 . S
C4861 C4857 1.393 . S
C4861 C4860 1.391 . S
C4862 H4852 0.950 . S
C4862 C4863 1.386 . S
C4862 C4864 1.391 . S
C4863 C4862 1.386 . S
C4863 C4867 1.393 . S
C4864 H4853 0.950 . S
C4864 C4862 1.391 . S
C4864 C4865 1.400 . S
C4865 C4859 1.491 . S
C4865 C4864 1.400 . S
C4865 C4866 1.398 . S
C4866 H4854 0.950 . S
C4866 C4865 1.398 . S
C4866 C4867 1.391 . S
C4867 H4855 0.950 . S
C4867 C4863 1.393 . S
C4867 C4866 1.391 . S
H4868 C4876 0.950 . S
H4869 C4881 0.950 . S
H4870 C4878 0.950 . S
H4871 C4880 0.950 . S
H4872 C4882 0.950 . S
H4873 C4884 0.950 . S
H4874 C4886 0.950 . S
H4875 C4887 0.950 . S
C4876 H4868 0.950 . S
C4876 C4877 1.386 . S
C4876 C4878 1.391 . S
C4877 C4876 1.386 . S
C4877 C4881 1.393 . S
C4878 H4870 0.950 . S
C4878 C4876 1.391 . S
C4878 C4879 1.400 . S
C4879 C4878 1.400 . S
C4879 C4880 1.398 . S
C4879 C4885 1.491 . S
C4880 H4871 0.950 . S
C4880 C4879 1.398 . S
C4880 C4881 1.391 . S
C4881 H4869 0.950 . S
C4881 C4877 1.393 . S
C4881 C4880 1.391 . S
C4882 H4872 0.950 . S
C4882 C4883 1.386 . S
C4882 C4884 1.391 . S
C4883 C4882 1.386 . S
C4883 C4887 1.393 . S
C4884 H4873 0.950 . S
C4884 C4882 1.391 . S
C4884 C4885 1.400 . S
C4885 C4879 1.491 . S
C4885 C4884 1.400 . S
C4885 C4886 1.398 . S
C4886 H4874 0.950 . S
C4886 C4885 1.398 . S
C4886 C4887 1.391 . S
C4887 H4875 0.950 . S
C4887 C4883 1.393 . S
C4887 C4886 1.391 . S
H4888 C4896 0.950 . S
H4889 C4901 0.950 . S
H4890 C4898 0.950 . S
H4891 C4900 0.950 . S
H4892 C4902 0.950 . S
H4893 C4904 0.950 . S
H4894 C4906 0.950 . S
H4895 C4907 0.950 . S
C4896 H4888 0.950 . S
C4896 C4897 1.386 . S
C4896 C4898 1.391 . S
C4897 C4896 1.386 . S
C4897 C4901 1.393 . S
C4898 H4890 0.950 . S
C4898 C4896 1.391 . S
C4898 C4899 1.400 . S
C4899 C4898 1.400 . S
C4899 C4900 1.398 . S
C4899 C4905 1.491 . S
C4900 H4891 0.950 . S
C4900 C4899 1.398 . S
C4900 C4901 1.391 . S
C4901 H4889 0.950 . S
C4901 C4897 1.393 . S
C4901 C4900 1.391 . S
C4902 H4892 0.950 . S
C4902 C4903 1.386 . S
C4902 C4904 1.391 . S
C4903 C4902 1.386 . S
C4903 C4907 1.393 . S
C4904 H4893 0.950 . S
C4904 C4902 1.391 . S
C4904 C4905 1.400 . S
C4905 C4899 1.491 . S
C4905 C4904 1.400 . S
C4905 C4906 1.398 . S
C4906 H4894 0.950 . S
C4906 C4905 1.398 . S
C4906 C4907 1.391 . S
C4907 H4895 0.950 . S
C4907 C4903 1.393 . S
C4907 C4906 1.391 . S
H4908 C4916 0.950 . S
H4909 C4921 0.950 . S
H4910 C4918 0.950 . S
H4911 C4920 0.950 . S
H4912 C4922 0.950 . S
H4913 C4924 0.950 . S
H4914 C4926 0.950 . S
H4915 C4927 0.950 . S
C4916 H4908 0.950 . S
C4916 C4917 1.386 . S
C4916 C4918 1.391 . S
C4917 C4916 1.386 . S
C4917 C4921 1.393 . S
C4918 H4910 0.950 . S
C4918 C4916 1.391 . S
C4918 C4919 1.400 . S
C4919 C4918 1.400 . S
C4919 C4920 1.398 . S
C4919 C4925 1.491 . S
C4920 H4911 0.950 . S
C4920 C4919 1.398 . S
C4920 C4921 1.391 . S
C4921 H4909 0.950 . S
C4921 C4917 1.393 . S
C4921 C4920 1.391 . S
C4922 H4912 0.950 . S
C4922 C4923 1.386 . S
C4922 C4924 1.391 . S
C4923 C4922 1.386 . S
C4923 C4927 1.393 . S
C4924 H4913 0.950 . S
C4924 C4922 1.391 . S
C4924 C4925 1.400 . S
C4925 C4919 1.491 . S
C4925 C4924 1.400 . S
C4925 C4926 1.398 . S
C4926 H4914 0.950 . S
C4926 C4925 1.398 . S
C4926 C4927 1.391 . S
C4927 H4915 0.950 . S
C4927 C4923 1.393 . S
C4927 C4926 1.391 . S
H4928 C4936 0.950 . S
H4929 C4941 0.950 . S
H4930 C4938 0.950 . S
H4931 C4940 0.950 . S
H4932 C4942 0.950 . S
H4933 C4944 0.950 . S
H4934 C4946 0.950 . S
H4935 C4947 0.950 . S
C4936 H4928 0.950 . S
C4936 C4937 1.386 . S
C4936 C4938 1.391 . S
C4937 C4936 1.386 . S
C4937 C4941 1.393 . S
C4938 H4930 0.950 . S
C4938 C4936 1.391 . S
C4938 C4939 1.400 . S
C4939 C4938 1.400 . S
C4939 C4940 1.398 . S
C4939 C4945 1.491 . S
C4940 H4931 0.950 . S
C4940 C4939 1.398 . S
C4940 C4941 1.391 . S
C4941 H4929 0.950 . S
C4941 C4937 1.393 . S
C4941 C4940 1.391 . S
C4942 H4932 0.950 . S
C4942 C4943 1.386 . S
C4942 C4944 1.391 . S
C4943 C4942 1.386 . S
C4943 C4947 1.393 . S
C4944 H4933 0.950 . S
C4944 C4942 1.391 . S
C4944 C4945 1.400 . S
C4945 C4939 1.491 . S
C4945 C4944 1.400 . S
C4945 C4946 1.398 . S
C4946 H4934 0.950 . S
C4946 C4945 1.398 . S
C4946 C4947 1.391 . S
C4947 H4935 0.950 . S
C4947 C4943 1.393 . S
C4947 C4946 1.391 . S
H4948 C4956 0.950 . S
H4949 C4961 0.950 . S
H4950 C4958 0.950 . S
H4951 C4960 0.950 . S
H4952 C4962 0.950 . S
H4953 C4964 0.950 . S
H4954 C4966 0.950 . S
H4955 C4967 0.950 . S
C4956 H4948 0.950 . S
C4956 C4957 1.386 . S
C4956 C4958 1.391 . S
C4957 C4956 1.386 . S
C4957 C4961 1.393 . S
C4958 H4950 0.950 . S
C4958 C4956 1.391 . S
C4958 C4959 1.400 . S
C4959 C4958 1.400 . S
C4959 C4960 1.398 . S
C4959 C4965 1.491 . S
C4960 H4951 0.950 . S
C4960 C4959 1.398 . S
C4960 C4961 1.391 . S
C4961 H4949 0.950 . S
C4961 C4957 1.393 . S
C4961 C4960 1.391 . S
C4962 H4952 0.950 . S
C4962 C4963 1.386 . S
C4962 C4964 1.391 . S
C4963 C4962 1.386 . S
C4963 C4967 1.393 . S
C4964 H4953 0.950 . S
C4964 C4962 1.391 . S
C4964 C4965 1.400 . S
C4965 C4959 1.491 . S
C4965 C4964 1.400 . S
C4965 C4966 1.398 . S
C4966 H4954 0.950 . S
C4966 C4965 1.398 . S
C4966 C4967 1.391 . S
C4967 H4955 0.950 . S
C4967 C4963 1.393 . S
C4967 C4966 1.391 . S
H4968 C4976 0.950 . S
H4969 C4981 0.950 . S
H4970 C4978 0.950 . S
H4971 C4980 0.950 . S
H4972 C4982 0.950 . S
H4973 C4984 0.950 . S
H4974 C4986 0.950 . S
H4975 C4987 0.950 . S
C4976 H4968 0.950 . S
C4976 C4977 1.386 . S
C4976 C4978 1.391 . S
C4977 C4976 1.386 . S
C4977 C4981 1.393 . S
C4978 H4970 0.950 . S
C4978 C4976 1.391 . S
C4978 C4979 1.400 . S
C4979 C4978 1.400 . S
C4979 C4980 1.398 . S
C4979 C4985 1.491 . S
C4980 H4971 0.950 . S
C4980 C4979 1.398 . S
C4980 C4981 1.391 . S
C4981 H4969 0.950 . S
C4981 C4977 1.393 . S
C4981 C4980 1.391 . S
C4982 H4972 0.950 . S
C4982 C4983 1.386 . S
C4982 C4984 1.391 . S
C4983 C4982 1.386 . S
C4983 C4987 1.393 . S
C4984 H4973 0.950 . S
C4984 C4982 1.391 . S
C4984 C4985 1.400 . S
C4985 C4979 1.491 . S
C4985 C4984 1.400 . S
C4985 C4986 1.398 . S
C4986 H4974 0.950 . S
C4986 C4985 1.398 . S
C4986 C4987 1.391 . S
C4987 H4975 0.950 . S
C4987 C4983 1.393 . S
C4987 C4986 1.391 . S
H4988 C4996 0.950 . S
H4989 C5001 0.950 . S
H4990 C4998 0.950 . S
H4991 C5000 0.950 . S
H4992 C5002 0.950 . S
H4993 C5004 0.950 . S
H4994 C5006 0.950 . S
H4995 C5007 0.950 . S
C4996 H4988 0.950 . S
C4996 C4997 1.386 . S
C4996 C4998 1.391 . S
C4997 C4996 1.386 . S
C4997 C5001 1.393 . S
C4998 H4990 0.950 . S
C4998 C4996 1.391 . S
C4998 C4999 1.400 . S
C4999 C4998 1.400 . S
C4999 C5000 1.398 . S
C4999 C5005 1.491 . S
C5000 H4991 0.950 . S
C5000 C4999 1.398 . S
C5000 C5001 1.391 . S
C5001 H4989 0.950 . S
C5001 C4997 1.393 . S
C5001 C5000 1.391 . S
C5002 H4992 0.950 . S
C5002 C5003 1.386 . S
C5002 C5004 1.391 . S
C5003 C5002 1.386 . S
C5003 C5007 1.393 . S
C5004 H4993 0.950 . S
C5004 C5002 1.391 . S
C5004 C5005 1.400 . S
C5005 C4999 1.491 . S
C5005 C5004 1.400 . S
C5005 C5006 1.398 . S
C5006 H4994 0.950 . S
C5006 C5005 1.398 . S
C5006 C5007 1.391 . S
C5007 H4995 0.950 . S
C5007 C5003 1.393 . S
C5007 C5006 1.391 . S
H5008 C5016 0.950 . S
H5009 C5021 0.950 . S
H5010 C5018 0.950 . S
H5011 C5020 0.950 . S
H5012 C5022 0.950 . S
H5013 C5024 0.950 . S
H5014 C5026 0.950 . S
H5015 C5027 0.950 . S
C5016 H5008 0.950 . S
C5016 C5017 1.386 . S
C5016 C5018 1.391 . S
C5017 C5016 1.386 . S
C5017 C5021 1.393 . S
C5018 H5010 0.950 . S
C5018 C5016 1.391 . S
C5018 C5019 1.400 . S
C5019 C5018 1.400 . S
C5019 C5020 1.398 . S
C5019 C5025 1.491 . S
C5020 H5011 0.950 . S
C5020 C5019 1.398 . S
C5020 C5021 1.391 . S
C5021 H5009 0.950 . S
C5021 C5017 1.393 . S
C5021 C5020 1.391 . S
C5022 H5012 0.950 . S
C5022 C5023 1.386 . S
C5022 C5024 1.391 . S
C5023 C5022 1.386 . S
C5023 C5027 1.393 . S
C5024 H5013 0.950 . S
C5024 C5022 1.391 . S
C5024 C5025 1.400 . S
C5025 C5019 1.491 . S
C5025 C5024 1.400 . S
C5025 C5026 1.398 . S
C5026 H5014 0.950 . S
C5026 C5025 1.398 . S
C5026 C5027 1.391 . S
C5027 H5015 0.950 . S
C5027 C5023 1.393 . S
C5027 C5026 1.391 . S
H5028 C5036 0.950 . S
H5029 C5041 0.950 . S
H5030 C5038 0.950 . S
H5031 C5040 0.950 . S
H5032 C5042 0.950 . S
H5033 C5044 0.950 . S
H5034 C5046 0.950 . S
H5035 C5047 0.950 . S
C5036 H5028 0.950 . S
C5036 C5037 1.386 . S
C5036 C5038 1.391 . S
C5037 C5036 1.386 . S
C5037 C5041 1.393 . S
C5038 H5030 0.950 . S
C5038 C5036 1.391 . S
C5038 C5039 1.400 . S
C5039 C5038 1.400 . S
C5039 C5040 1.398 . S
C5039 C5045 1.491 . S
C5040 H5031 0.950 . S
C5040 C5039 1.398 . S
C5040 C5041 1.391 . S
C5041 H5029 0.950 . S
C5041 C5037 1.393 . S
C5041 C5040 1.391 . S
C5042 H5032 0.950 . S
C5042 C5043 1.386 . S
C5042 C5044 1.391 . S
C5043 C5042 1.386 . S
C5043 C5047 1.393 . S
C5044 H5033 0.950 . S
C5044 C5042 1.391 . S
C5044 C5045 1.400 . S
C5045 C5039 1.491 . S
C5045 C5044 1.400 . S
C5045 C5046 1.398 . S
C5046 H5034 0.950 . S
C5046 C5045 1.398 . S
C5046 C5047 1.391 . S
C5047 H5035 0.950 . S
C5047 C5043 1.393 . S
C5047 C5046 1.391 . S
H5048 C5056 0.950 . S
H5049 C5061 0.950 . S
H5050 C5058 0.950 . S
H5051 C5060 0.950 . S
H5052 C5062 0.950 . S
H5053 C5064 0.950 . S
H5054 C5066 0.950 . S
H5055 C5067 0.950 . S
C5056 H5048 0.950 . S
C5056 C5057 1.386 . S
C5056 C5058 1.391 . S
C5057 C5056 1.386 . S
C5057 C5061 1.393 . S
C5058 H5050 0.950 . S
C5058 C5056 1.391 . S
C5058 C5059 1.400 . S
C5059 C5058 1.400 . S
C5059 C5060 1.398 . S
C5059 C5065 1.491 . S
C5060 H5051 0.950 . S
C5060 C5059 1.398 . S
C5060 C5061 1.391 . S
C5061 H5049 0.950 . S
C5061 C5057 1.393 . S
C5061 C5060 1.391 . S
C5062 H5052 0.950 . S
C5062 C5063 1.386 . S
C5062 C5064 1.391 . S
C5063 C5062 1.386 . S
C5063 C5067 1.393 . S
C5064 H5053 0.950 . S
C5064 C5062 1.391 . S
C5064 C5065 1.400 . S
C5065 C5059 1.491 . S
C5065 C5064 1.400 . S
C5065 C5066 1.398 . S
C5066 H5054 0.950 . S
C5066 C5065 1.398 . S
C5066 C5067 1.391 . S
C5067 H5055 0.950 . S
C5067 C5063 1.393 . S
C5067 C5066 1.391 . S
H5068 C5076 0.950 . S
H5069 C5081 0.950 . S
H5070 C5078 0.950 . S
H5071 C5080 0.950 . S
H5072 C5082 0.950 . S
H5073 C5084 0.950 . S
H5074 C5086 0.950 . S
H5075 C5087 0.950 . S
C5076 H5068 0.950 . S
C5076 C5077 1.386 . S
C5076 C5078 1.391 . S
C5077 C5076 1.386 . S
C5077 C5081 1.393 . S
C5078 H5070 0.950 . S
C5078 C5076 1.391 . S
C5078 C5079 1.400 . S
C5079 C5078 1.400 . S
C5079 C5080 1.398 . S
C5079 C5085 1.491 . S
C5080 H5071 0.950 . S
C5080 C5079 1.398 . S
C5080 C5081 1.391 . S
C5081 H5069 0.950 . S
C5081 C5077 1.393 . S
C5081 C5080 1.391 . S
C5082 H5072 0.950 . S
C5082 C5083 1.386 . S
C5082 C5084 1.391 . S
C5083 C5082 1.386 . S
C5083 C5087 1.393 . S
C5084 H5073 0.950 . S
C5084 C5082 1.391 . S
C5084 C5085 1.400 . S
C5085 C5079 1.491 . S
C5085 C5084 1.400 . S
C5085 C5086 1.398 . S
C5086 H5074 0.950 . S
C5086 C5085 1.398 . S
C5086 C5087 1.391 . S
C5087 H5075 0.950 . S
C5087 C5083 1.393 . S
C5087 C5086 1.391 . S
C1257 C4 1.719 . S
C1263 C888 1.717 . S
C1277 C855 1.724 . S
C1283 C23 1.723 . S
C1297 C862 1.724 . S
C1303 C30 1.724 . S
C1317 C49 1.717 . S
C1323 C875 1.715 . S
C1337 C933 1.715 . S
C1343 C62 1.715 . S
C1357 C901 1.716 . S
C1363 C69 1.715 . S
C1377 C914 1.720 . S
C1383 C82 1.719 . S
C1397 C101 1.717 . S
C1403 C836 1.718 . S
C1417 C108 1.719 . S
C1423 C829 1.721 . S
C1437 C121 1.720 . S
C1443 C790 1.718 . S
C1457 C134 1.715 . S
C1463 C803 1.716 . S
C1477 C147 1.724 . S
C1483 C816 1.724 . S
C1497 C160 1.724 . S
C1503 C745 1.724 . S
C1517 C764 1.724 . S
C1523 C179 1.723 . S
C1537 C777 1.721 . S
C1543 C192 1.722 . S
C1557 C205 1.715 . S
C1563 C732 1.716 . S
C1577 C218 1.724 . S
C1583 C719 1.724 . S
C1597 C231 1.719 . S
C1603 C647 1.721 . S
C1617 C654 1.715 . S
C1623 C238 1.715 . S
C1637 C673 1.717 . S
C1643 C257 1.719 . S
C1657 C628 1.723 . S
C1663 C270 1.724 . S
C1677 C277 1.717 . S
C1683 C699 1.718 . S
C1697 C290 1.717 . S
C1703 C706 1.718 . S
C1717 C309 1.724 . S
C1723 C680 1.724 . S
C1737 C316 1.718 . S
C1743 C1200 1.716 . S
C1757 C335 1.721 . S
C1763 C1161 1.719 . S
C1777 C342 1.715 . S
C1783 C1174 1.715 . S
C1797 C361 1.715 . S
C1803 C1193 1.715 . S
C1817 C368 1.716 . S
C1823 C1239 1.715 . S
C1837 C381 1.715 . S
C1843 C1219 1.716 . S
C1857 C1232 1.724 . S
C1863 C400 1.724 . S
C1877 C407 1.717 . S
C1883 C1154 1.716 . S
C1897 C420 1.715 . S
C1903 C1141 1.715 . S
C1917 C1102 1.715 . S
C1923 C433 1.717 . S
C1937 C452 1.716 . S
C1943 C1109 1.717 . S
C1957 C459 1.715 . S
C1963 C1122 1.715 . S
C1977 C478 1.719 . S
C1983 C1063 1.720 . S
C1997 C485 1.716 . S
C2003 C1076 1.715 . S
C2017 C498 1.724 . S
C2023 C1083 1.724 . S
C2037 C1044 1.716 . S
C2043 C517 1.715 . S
C2057 C524 1.724 . S
C2063 C1037 1.724 . S
C2077 C543 1.717 . S
C2083 C953 1.716 . S
C2097 C550 1.724 . S
C2103 C966 1.724 . S
C2117 C985 1.724 . S
C2123 C563 1.723 . S
C2137 C582 1.716 . S
C2143 C946 1.715 . S
C2157 C1005 1.718 . S
C2163 C589 1.716 . S
C2177 C602 1.722 . S
C2183 C1024 1.720 . S
C2197 C615 1.723 . S
C2203 C992 1.721 . S
C2217 C3 1.416 . S
C2223 C512 1.411 . S
C2237 C18 1.411 . S
C2243 C473 1.417 . S
C2257 C484 1.418 . S
C2263 C29 1.410 . S
C2277 C44 1.417 . S
C2283 C497 1.411 . S
C2297 C432 1.417 . S
C2303 C57 1.411 . S
C2317 C447 1.413 . S
C2323 C68 1.415 . S
C2337 C458 1.416 . S
C2343 C81 1.412 . S
C2357 C419 1.417 . S
C2363 C96 1.411 . S
C2377 C406 1.418 . S
C2383 C107 1.410 . S
C2397 C120 1.411 . S
C2403 C367 1.417 . S
C2417 C380 1.415 . S
C2423 C133 1.413 . S
C2437 C146 1.410 . S
C2443 C395 1.418 . S
C2457 C330 1.418 . S
C2463 C159 1.410 . S
C2477 C341 1.417 . S
C2483 C174 1.411 . S
C2497 C187 1.414 . S
C2503 C356 1.414 . S
C2517 C200 1.418 . S
C2523 C315 1.410 . S
C2537 C213 1.411 . S
C2543 C577 1.417 . S
C2557 C226 1.413 . S
C2563 C614 1.415 . S
C2577 C588 1.410 . S
C2583 C237 1.418 . S
C2597 C601 1.410 . S
C2603 C252 1.418 . S
C2617 C265 1.413 . S
C2623 C523 1.415 . S
C2637 C276 1.418 . S
C2643 C549 1.410 . S
C2657 C562 1.412 . S
C2663 C289 1.416 . S
C2677 C304 1.415 . S
C2683 C538 1.413 . S
C2697 C1136 1.412 . S
C2703 C627 1.416 . S
C2717 C1097 1.412 . S
C2723 C642 1.416 . S
C2737 C1108 1.410 . S
C2743 C653 1.418 . S
C2757 C668 1.418 . S
C2763 C1121 1.410 . S
C2777 C1058 1.410 . S
C2783 C679 1.418 . S
C2797 C1071 1.410 . S
C2803 C694 1.418 . S
C2817 C705 1.413 . S
C2823 C1082 1.414 . S
C2837 C718 1.412 . S
C2843 C1043 1.416 . S
C2857 C1032 1.412 . S
C2863 C731 1.416 . S
C2877 C744 1.414 . S
C2883 C991 1.414 . S
C2897 C1004 1.418 . S
C2903 C759 1.410 . S
C2917 C1019 1.417 . S
C2923 C772 1.411 . S
C2937 C785 1.416 . S
C2943 C952 1.412 . S
C2957 C798 1.413 . S
C2963 C965 1.415 . S
C2977 C980 1.413 . S
C2983 C811 1.415 . S
C2997 C824 1.414 . S
C3003 C941 1.414 . S
C3017 C1199 1.411 . S
C3023 C835 1.417 . S
C3037 C1238 1.417 . S
C3043 C850 1.411 . S
C3057 C861 1.416 . S
C3063 C1214 1.412 . S
C3077 C1227 1.418 . S
C3083 C874 1.410 . S
C3097 C1149 1.410 . S
C3103 C887 1.418 . S
C3117 C1173 1.418 . S
C3123 C900 1.410 . S
C3137 C913 1.412 . S
C3143 C1188 1.416 . S
C3157 C1160 1.418 . S
C3163 C928 1.410 . S
C3177 C5 1.229 . S
C3183 C369 1.222 . S
C3197 C382 1.221 . S
C3203 C16 1.231 . S
C3217 C31 1.219 . S
C3223 C393 1.232 . S
C3237 C408 1.222 . S
C3243 C42 1.230 . S
C3257 C55 1.232 . S
C3263 C317 1.219 . S
C3277 C70 1.222 . S
C3283 C328 1.230 . S
C3297 C83 1.232 . S
C3303 C343 1.219 . S
C3317 C354 1.219 . S
C3323 C94 1.232 . S
C3337 C499 1.232 . S
C3343 C109 1.219 . S
C3357 C122 1.228 . S
C3363 C510 1.223 . S
C3377 C135 1.232 . S
C3383 C471 1.219 . S
C3397 C148 1.219 . S
C3403 C486 1.232 . S
C3417 C161 1.222 . S
C3423 C445 1.229 . S
C3437 C172 1.233 . S
C3443 C460 1.219 . S
C3457 C185 1.222 . S
C3463 C421 1.229 . S
C3477 C198 1.223 . S
C3483 C434 1.229 . S
C3497 C211 1.230 . S
C3503 C590 1.222 . S
C3517 C224 1.233 . S
C3523 C564 1.219 . S
C3537 C575 1.231 . S
C3543 C239 1.220 . S
C3557 C250 1.226 . S
C3563 C536 1.226 . S
C3577 C551 1.221 . S
C3583 C263 1.230 . S
C3597 C278 1.223 . S
C3603 C525 1.229 . S
C3617 C291 1.232 . S
C3623 C616 1.219 . S
C3637 C603 1.219 . S
C3643 C302 1.233 . S
C3657 C993 1.227 . S
C3663 C629 1.224 . S
C3677 C640 1.219 . S
C3683 C1006 1.233 . S
C3697 C1017 1.232 . S
C3703 C655 1.220 . S
C3717 C666 1.230 . S
C3723 C1030 1.221 . S
C3737 C939 1.219 . S
C3743 C681 1.232 . S
C3757 C954 1.231 . S
C3763 C692 1.221 . S
C3777 C967 1.223 . S
C3783 C707 1.228 . S
C3797 C720 1.223 . S
C3803 C978 1.229 . S
C3817 C733 1.225 . S
C3823 C1123 1.226 . S
C3837 C1134 1.232 . S
C3843 C746 1.219 . S
C3857 C1095 1.231 . S
C3863 C757 1.221 . S
C3877 C1110 1.227 . S
C3883 C770 1.224 . S
C3897 C783 1.221 . S
C3903 C1069 1.230 . S
C3917 C796 1.232 . S
C3923 C1084 1.219 . S
C3937 C1045 1.223 . S
C3943 C809 1.228 . S
C3957 C1056 1.222 . S
C3963 C822 1.229 . S
C3977 C1212 1.219 . S
C3983 C837 1.232 . S
C3997 C848 1.230 . S
C4003 C1186 1.221 . S
C4017 C1201 1.233 . S
C4023 C863 1.219 . S
C4037 C876 1.221 . S
C4043 C1162 1.230 . S
C4057 C889 1.229 . S
C4063 C1175 1.222 . S
C4077 C902 1.221 . S
C4083 C1147 1.231 . S
C4097 C1240 1.230 . S
C4103 C915 1.222 . S
C4117 C926 1.222 . S
C4123 C1225 1.230 . S
C4137 C413 1.683 . S
C4143 C10 1.695 . S
C4157 C374 1.685 . S
C4163 C17 1.693 . S
C4177 C36 1.693 . S
C4183 C387 1.685 . S
C4197 C394 1.688 . S
C4203 C43 1.689 . S
C4217 C329 1.685 . S
C4223 C56 1.693 . S
C4237 C75 1.692 . S
C4243 C348 1.686 . S
C4257 C88 1.689 . S
C4263 C355 1.689 . S
C4277 C322 1.683 . S
C4283 C95 1.695 . S
C4297 C576 1.684 . S
C4303 C114 1.693 . S
C4317 C127 1.683 . S
C4323 C537 1.695 . S
C4337 C140 1.683 . S
C4343 C556 1.694 . S
C4357 C569 1.685 . S
C4363 C153 1.693 . S
C4377 C166 1.695 . S
C4383 C621 1.683 . S
C4397 C595 1.695 . S
C4403 C173 1.683 . S
C4417 C608 1.683 . S
C4423 C186 1.695 . S
C4437 C199 1.694 . S
C4443 C530 1.683 . S
C4457 C212 1.683 . S
C4463 C511 1.695 . S
C4477 C225 1.694 . S
C4483 C439 1.684 . S
C4497 C244 1.683 . S
C4503 C446 1.695 . S
C4517 C465 1.691 . S
C4523 C251 1.687 . S
C4537 C426 1.689 . S
C4543 C264 1.689 . S
C4557 C283 1.694 . S
C4563 C491 1.684 . S
C4577 C296 1.695 . S
C4583 C504 1.683 . S
C4597 C303 1.683 . S
C4603 C472 1.695 . S
C4617 C634 1.689 . S
C4623 C1031 1.689 . S
C4637 C641 1.693 . S
C4643 C998 1.685 . S
C4657 C660 1.692 . S
C4663 C1011 1.686 . S
C4677 C1018 1.692 . S
C4683 C667 1.686 . S
C4697 C959 1.688 . S
C4703 C686 1.690 . S
C4717 C972 1.683 . S
C4723 C693 1.694 . S
C4737 C712 1.695 . S
C4743 C979 1.683 . S
C4757 C940 1.695 . S
C4763 C725 1.683 . S
C4777 C1206 1.683 . S
C4783 C738 1.695 . S
C4797 C1167 1.691 . S
C4803 C751 1.687 . S
C4817 C1180 1.695 . S
C4823 C758 1.683 . S
C4837 C1187 1.683 . S
C4843 C771 1.694 . S
C4857 C1245 1.689 . S
C4863 C784 1.688 . S
C4877 C1213 1.690 . S
C4883 C797 1.688 . S
C4897 C1226 1.687 . S
C4903 C810 1.691 . S
C4917 C1148 1.690 . S
C4923 C823 1.688 . S
C4937 C842 1.683 . S
C4943 C1135 1.694 . S
C4957 C1057 1.683 . S
C4963 C849 1.695 . S
C4977 C1070 1.690 . S
C4983 C868 1.688 . S
C4997 C1089 1.692 . S
C5003 C881 1.686 . S
C5017 C1050 1.692 . S
C5023 C894 1.686 . S
C5037 C1115 1.684 . S
C5043 C907 1.694 . S
C5057 C1128 1.695 . S
C5063 C920 1.683 . S
C5077 C1096 1.683 . S
C5083 C927 1.695 . S
