# Generated by pormake.
# Topology lta, (4)-cn, num edge types: 1
# Building blocks:
#     Node 0, Type 0, BuildingBlock: QUQFOY_clean_sbu_3, # of connection points: 4
#     Node 1, Type 0, BuildingBlock: QUQFOY_clean_sbu_3, # of connection points: 4
#     Node 2, Type 0, BuildingBlock: QUQFOY_clean_sbu_3, # of connection points: 4
#     Node 3, Type 0, BuildingBlock: QUQFOY_clean_sbu_3, # of connection points: 4
#     Node 4, Type 0, BuildingBlock: QUQFOY_clean_sbu_3, # of connection points: 4
#     Node 5, Type 0, BuildingBlock: QUQFOY_clean_sbu_3, # of connection points: 4
#     Node 6, Type 0, BuildingBlock: QUQFOY_clean_sbu_3, # of connection points: 4
#     Node 7, Type 0, BuildingBlock: QUQFOY_clean_sbu_3, # of connection points: 4
#     Node 8, Type 0, BuildingBlock: QUQFOY_clean_sbu_3, # of connection points: 4
#     Node 9, Type 0, BuildingBlock: QUQFOY_clean_sbu_3, # of connection points: 4
#     Node 10, Type 0, BuildingBlock: QUQFOY_clean_sbu_3, # of connection points: 4
#     Node 11, Type 0, BuildingBlock: QUQFOY_clean_sbu_3, # of connection points: 4
#     Node 12, Type 0, BuildingBlock: QUQFOY_clean_sbu_3, # of connection points: 4
#     Node 13, Type 0, BuildingBlock: QUQFOY_clean_sbu_3, # of connection points: 4
#     Node 14, Type 0, BuildingBlock: QUQFOY_clean_sbu_3, # of connection points: 4
#     Node 15, Type 0, BuildingBlock: QUQFOY_clean_sbu_3, # of connection points: 4
#     Node 16, Type 0, BuildingBlock: QUQFOY_clean_sbu_3, # of connection points: 4
#     Node 17, Type 0, BuildingBlock: QUQFOY_clean_sbu_3, # of connection points: 4
#     Node 18, Type 0, BuildingBlock: QUQFOY_clean_sbu_3, # of connection points: 4
#     Node 19, Type 0, BuildingBlock: QUQFOY_clean_sbu_3, # of connection points: 4
#     Node 20, Type 0, BuildingBlock: QUQFOY_clean_sbu_3, # of connection points: 4
#     Node 21, Type 0, BuildingBlock: QUQFOY_clean_sbu_3, # of connection points: 4
#     Node 22, Type 0, BuildingBlock: QUQFOY_clean_sbu_3, # of connection points: 4
#     Node 23, Type 0, BuildingBlock: QUQFOY_clean_sbu_3, # of connection points: 4
#     Edge 24, Type (0, 0), BuildingBlock: OJICUG_clean_linker_0, # of connection points: 2
#     Edge 25, Type (0, 0), BuildingBlock: OJICUG_clean_linker_0, # of connection points: 2
#     Edge 26, Type (0, 0), BuildingBlock: OJICUG_clean_linker_0, # of connection points: 2
#     Edge 27, Type (0, 0), BuildingBlock: OJICUG_clean_linker_0, # of connection points: 2
#     Edge 28, Type (0, 0), BuildingBlock: OJICUG_clean_linker_0, # of connection points: 2
#     Edge 29, Type (0, 0), BuildingBlock: OJICUG_clean_linker_0, # of connection points: 2
#     Edge 30, Type (0, 0), BuildingBlock: OJICUG_clean_linker_0, # of connection points: 2
#     Edge 31, Type (0, 0), BuildingBlock: OJICUG_clean_linker_0, # of connection points: 2
#     Edge 32, Type (0, 0), BuildingBlock: OJICUG_clean_linker_0, # of connection points: 2
#     Edge 33, Type (0, 0), BuildingBlock: OJICUG_clean_linker_0, # of connection points: 2
#     Edge 34, Type (0, 0), BuildingBlock: OJICUG_clean_linker_0, # of connection points: 2
#     Edge 35, Type (0, 0), BuildingBlock: OJICUG_clean_linker_0, # of connection points: 2
#     Edge 36, Type (0, 0), BuildingBlock: OJICUG_clean_linker_0, # of connection points: 2
#     Edge 37, Type (0, 0), BuildingBlock: OJICUG_clean_linker_0, # of connection points: 2
#     Edge 38, Type (0, 0), BuildingBlock: OJICUG_clean_linker_0, # of connection points: 2
#     Edge 39, Type (0, 0), BuildingBlock: OJICUG_clean_linker_0, # of connection points: 2
#     Edge 40, Type (0, 0), BuildingBlock: OJICUG_clean_linker_0, # of connection points: 2
#     Edge 41, Type (0, 0), BuildingBlock: OJICUG_clean_linker_0, # of connection points: 2
#     Edge 42, Type (0, 0), BuildingBlock: OJICUG_clean_linker_0, # of connection points: 2
#     Edge 43, Type (0, 0), BuildingBlock: OJICUG_clean_linker_0, # of connection points: 2
#     Edge 44, Type (0, 0), BuildingBlock: OJICUG_clean_linker_0, # of connection points: 2
#     Edge 45, Type (0, 0), BuildingBlock: OJICUG_clean_linker_0, # of connection points: 2
#     Edge 46, Type (0, 0), BuildingBlock: OJICUG_clean_linker_0, # of connection points: 2
#     Edge 47, Type (0, 0), BuildingBlock: OJICUG_clean_linker_0, # of connection points: 2
#     Edge 48, Type (0, 0), BuildingBlock: OJICUG_clean_linker_0, # of connection points: 2
#     Edge 49, Type (0, 0), BuildingBlock: OJICUG_clean_linker_0, # of connection points: 2
#     Edge 50, Type (0, 0), BuildingBlock: OJICUG_clean_linker_0, # of connection points: 2
#     Edge 51, Type (0, 0), BuildingBlock: OJICUG_clean_linker_0, # of connection points: 2
#     Edge 52, Type (0, 0), BuildingBlock: OJICUG_clean_linker_0, # of connection points: 2
#     Edge 53, Type (0, 0), BuildingBlock: OJICUG_clean_linker_0, # of connection points: 2
#     Edge 54, Type (0, 0), BuildingBlock: OJICUG_clean_linker_0, # of connection points: 2
#     Edge 55, Type (0, 0), BuildingBlock: OJICUG_clean_linker_0, # of connection points: 2
#     Edge 56, Type (0, 0), BuildingBlock: OJICUG_clean_linker_0, # of connection points: 2
#     Edge 57, Type (0, 0), BuildingBlock: OJICUG_clean_linker_0, # of connection points: 2
#     Edge 58, Type (0, 0), BuildingBlock: OJICUG_clean_linker_0, # of connection points: 2
#     Edge 59, Type (0, 0), BuildingBlock: OJICUG_clean_linker_0, # of connection points: 2
#     Edge 60, Type (0, 0), BuildingBlock: OJICUG_clean_linker_0, # of connection points: 2
#     Edge 61, Type (0, 0), BuildingBlock: OJICUG_clean_linker_0, # of connection points: 2
#     Edge 62, Type (0, 0), BuildingBlock: OJICUG_clean_linker_0, # of connection points: 2
#     Edge 63, Type (0, 0), BuildingBlock: OJICUG_clean_linker_0, # of connection points: 2
#     Edge 64, Type (0, 0), BuildingBlock: OJICUG_clean_linker_0, # of connection points: 2
#     Edge 65, Type (0, 0), BuildingBlock: OJICUG_clean_linker_0, # of connection points: 2
#     Edge 66, Type (0, 0), BuildingBlock: OJICUG_clean_linker_0, # of connection points: 2
#     Edge 67, Type (0, 0), BuildingBlock: OJICUG_clean_linker_0, # of connection points: 2
#     Edge 68, Type (0, 0), BuildingBlock: OJICUG_clean_linker_0, # of connection points: 2
#     Edge 69, Type (0, 0), BuildingBlock: OJICUG_clean_linker_0, # of connection points: 2
#     Edge 70, Type (0, 0), BuildingBlock: OJICUG_clean_linker_0, # of connection points: 2
#     Edge 71, Type (0, 0), BuildingBlock: OJICUG_clean_linker_0, # of connection points: 2
# Relax obj value: 0.273
# Max RMSD: 0.161
# Mean RMSD: 0.161
data_MOF--net-lta--node1-QUQFOY_clean_sbu_3--edge1-OJICUG_clean_linker_0
_symmetry_space_group_name_H-M    P1
_symmetry_Int_Tables_number       1
_symmetry_cell_setting            triclinic
loop_
_symmetry_equiv_pos_as_xyz
'x, y, z'
_cell_length_a     42.703055
_cell_length_b     42.756384
_cell_length_c     42.711705
_cell_angle_alpha  90.174585
_cell_angle_beta   89.684697
_cell_angle_gamma 90.005191
loop_
_atom_site_label
_atom_site_type_symbol
_atom_site_fract_x
_atom_site_fract_y
_atom_site_fract_z
_atom_type_partial_charge
C0 C 0.13011 0.35243 0.39171 0.0
O1 O 0.12537 0.37798 0.40616 0.0
Cd2 Cd 0.11951 0.38628 0.46042 0.0
O3 O 0.13266 0.32647 0.40624 0.0
Cd4 Cd 0.1315 0.31059 0.46346 0.0
C5 C 0.05712 0.33594 0.4733 0.0
O6 O 0.16101 0.35547 0.47943 0.0
O7 O 0.14223 0.32969 0.51788 0.0
O8 O 0.16983 0.27115 0.44781 0.0
C9 C 0.15862 0.3526 0.50871 0.0
O10 O 0.06859 0.36345 0.47259 0.0
C11 C 0.1615 0.25135 0.4683 0.0
O12 O 0.07443 0.31202 0.46895 0.0
O13 O 0.13814 0.25839 0.4854 0.0
C14 C 0.64281 0.13852 0.44108 0.0
O15 O 0.6154 0.13449 0.45197 0.0
Cd16 Cd 0.60055 0.11268 0.50044 0.0
O17 O 0.66713 0.13239 0.45719 0.0
Cd18 Cd 0.67688 0.11433 0.51249 0.0
C19 C 0.64475 0.04478 0.49281 0.0
O20 O 0.633 0.13994 0.53527 0.0
O21 O 0.65373 0.10627 0.56599 0.0
O22 O 0.71044 0.1574 0.52343 0.0
C23 C 0.63326 0.1274 0.56197 0.0
O24 O 0.6186 0.05912 0.49371 0.0
C25 C 0.73519 0.14189 0.52828 0.0
O26 O 0.67036 0.05913 0.4982 0.0
O27 O 0.73376 0.11236 0.52488 0.0
C28 C 0.83433 0.59742 0.49956 0.0
O29 O 0.8399 0.58021 0.52304 0.0
Cd30 Cd 0.86476 0.59973 0.5682 0.0
O31 O 0.83822 0.62699 0.501 0.0
Cd32 Cd 0.84985 0.66847 0.54108 0.0
C33 C 0.92314 0.64376 0.53079 0.0
O34 O 0.83037 0.64021 0.58418 0.0
O35 O 0.86161 0.67657 0.5984 0.0
O36 O 0.80082 0.68852 0.52497 0.0
C37 C 0.84317 0.65468 0.60644 0.0
O38 O 0.91422 0.6197 0.54603 0.0
C39 C 0.80948 0.71649 0.52036 0.0
O40 O 0.90419 0.66597 0.52502 0.0
O41 O 0.83797 0.72305 0.52608 0.0
C42 C 0.3575 0.84404 0.44601 0.0
O43 O 0.37564 0.83967 0.46903 0.0
Cd44 Cd 0.3616 0.85151 0.52133 0.0
O45 O 0.32879 0.85135 0.45035 0.0
Cd46 Cd 0.29007 0.85569 0.49495 0.0
C47 C 0.32529 0.92396 0.50782 0.0
O48 O 0.31629 0.82115 0.5298 0.0
O49 O 0.28405 0.85149 0.55322 0.0
O50 O 0.26217 0.8194 0.46316 0.0
C51 C 0.30416 0.82978 0.55542 0.0
O52 O 0.34782 0.90725 0.51795 0.0
C53 C 0.23497 0.83033 0.46804 0.0
O54 O 0.30056 0.9114 0.49691 0.0
O55 O 0.23284 0.85426 0.48571 0.0
C56 C 0.14485 0.6372 0.52 0.0
O57 O 0.14191 0.61096 0.50638 0.0
Cd58 Cd 0.11481 0.60232 0.45915 0.0
O59 O 0.13585 0.66252 0.50717 0.0
Cd60 Cd 0.11557 0.67849 0.45432 0.0
C61 C 0.04801 0.64552 0.47786 0.0
O62 O 0.13979 0.63787 0.42524 0.0
O63 O 0.10362 0.66088 0.39932 0.0
O64 O 0.15915 0.71219 0.44666 0.0
C65 C 0.1254 0.64062 0.39967 0.0
O66 O 0.06206 0.61951 0.47374 0.0
C67 C 0.14427 0.73782 0.44682 0.0
O68 O 0.06187 0.67138 0.47254 0.0
O69 O 0.11472 0.73652 0.4505 0.0
C70 C 0.352 0.1373 0.58037 0.0
O71 O 0.37858 0.13149 0.56826 0.0
Cd72 Cd 0.39087 0.1212 0.51534 0.0
O73 O 0.32725 0.13888 0.56379 0.0
Cd74 Cd 0.31544 0.13338 0.50601 0.0
C75 C 0.34057 0.0583 0.50687 0.0
O76 O 0.36192 0.16108 0.49064 0.0
O77 O 0.33765 0.14051 0.45213 0.0
O78 O 0.27479 0.17155 0.51791 0.0
C79 C 0.36049 0.15691 0.46144 0.0
O80 O 0.36824 0.06937 0.50802 0.0
C81 C 0.25614 0.16221 0.49683 0.0
O82 O 0.31679 0.07629 0.50707 0.0
O83 O 0.26453 0.13875 0.48059 0.0
C84 C 0.84669 0.35498 0.56294 0.0
O85 O 0.84177 0.37312 0.54001 0.0
Cd86 Cd 0.85078 0.36052 0.48675 0.0
O87 O 0.85375 0.32625 0.55846 0.0
Cd88 Cd 0.85615 0.28892 0.5123 0.0
C89 C 0.92373 0.32331 0.4936 0.0
O90 O 0.82051 0.31546 0.47821 0.0
O91 O 0.85103 0.28363 0.45444 0.0
O92 O 0.81935 0.25839 0.54155 0.0
C93 C 0.82905 0.30343 0.45249 0.0
O94 O 0.9063 0.34591 0.48499 0.0
C95 C 0.83054 0.23179 0.53452 0.0
O96 O 0.91206 0.29884 0.50608 0.0
O97 O 0.85556 0.23144 0.51822 0.0
C98 C 0.59928 0.82865 0.49632 0.0
O99 O 0.58136 0.83169 0.47292 0.0
Cd100 Cd 0.59885 0.85295 0.42487 0.0
O101 O 0.62877 0.83284 0.49361 0.0
Cd102 Cd 0.66883 0.84128 0.45108 0.0
C103 C 0.6436 0.91474 0.45526 0.0
O104 O 0.63995 0.81927 0.40936 0.0
O105 O 0.67585 0.85027 0.39334 0.0
O106 O 0.69066 0.79346 0.46851 0.0
C107 C 0.65375 0.83169 0.38635 0.0
O108 O 0.61931 0.90414 0.44154 0.0
C109 C 0.71847 0.80314 0.47213 0.0
O110 O 0.66615 0.89671 0.46249 0.0
O111 O 0.72399 0.83161 0.46542 0.0
C112 C 0.47575 0.15878 0.39205 0.0
O113 O 0.49961 0.1549 0.40919 0.0
Cd114 Cd 0.54817 0.13731 0.38911 0.0
O115 O 0.47791 0.1569 0.36227 0.0
Cd116 Cd 0.51984 0.15172 0.32092 0.0
C117 C 0.52016 0.07667 0.34181 0.0
O118 O 0.5603 0.17525 0.35049 0.0
O119 O 0.57812 0.14761 0.31269 0.0
O120 O 0.49662 0.19744 0.29917 0.0
C121 C 0.58401 0.16559 0.33562 0.0
O122 O 0.534 0.08611 0.36651 0.0
C123 C 0.49546 0.18764 0.27114 0.0
O124 O 0.51163 0.09591 0.32086 0.0
O125 O 0.50628 0.16045 0.26568 0.0
C126 C 0.83593 0.40905 0.38339 0.0
O127 O 0.84785 0.4224 0.40708 0.0
Cd128 Cd 0.86034 0.47565 0.4132 0.0
O129 O 0.82931 0.42416 0.35854 0.0
Cd130 Cd 0.83504 0.48019 0.34099 0.0
C131 C 0.91346 0.47887 0.3521 0.0
O132 O 0.81525 0.49784 0.39025 0.0
O133 O 0.83077 0.53531 0.36112 0.0
O134 O 0.7921 0.46459 0.3072 0.0
C135 C 0.81838 0.52692 0.38676 0.0
O136 O 0.90753 0.48013 0.38133 0.0
C137 C 0.79755 0.48512 0.2865 0.0
O138 O 0.89146 0.47743 0.33215 0.0
O139 O 0.82083 0.50303 0.29075 0.0
C140 C 0.54571 0.857 0.32894 0.0
O141 O 0.53309 0.85723 0.35591 0.0
Cd142 Cd 0.4821 0.8742 0.36834 0.0
O143 O 0.53042 0.86437 0.30444 0.0
Cd144 Cd 0.47462 0.87849 0.29116 0.0
C145 C 0.48803 0.94588 0.3298 0.0
O146 O 0.45332 0.84575 0.33107 0.0
O147 O 0.41913 0.87598 0.31086 0.0
O148 O 0.48815 0.84463 0.24809 0.0
C149 C 0.42515 0.85458 0.3304 0.0
O150 O 0.48655 0.92945 0.35462 0.0
C151 C 0.46966 0.85671 0.22843 0.0
O152 O 0.48489 0.93342 0.30283 0.0
O153 O 0.45328 0.87986 0.23749 0.0
C154 C 0.1272 0.52842 0.32763 0.0
O155 O 0.13548 0.50626 0.34546 0.0
Cd156 Cd 0.11969 0.45399 0.33758 0.0
O157 O 0.11446 0.52288 0.3012 0.0
Cd158 Cd 0.10462 0.47636 0.26586 0.0
C159 C 0.04273 0.46969 0.31251 0.0
O160 O 0.14113 0.44069 0.28868 0.0
O161 O 0.10441 0.4179 0.26369 0.0
O162 O 0.13679 0.50624 0.23098 0.0
C163 C 0.1287 0.41516 0.28042 0.0
O164 O 0.06273 0.46027 0.33249 0.0
C165 C 0.12283 0.49888 0.20589 0.0
O166 O 0.05116 0.47806 0.2851 0.0
O167 O 0.09928 0.4808 0.20825 0.0
C168 C 0.41246 0.8368 0.61849 0.0
O169 O 0.42482 0.84491 0.59268 0.0
Cd170 Cd 0.4771 0.85942 0.58309 0.0
O171 O 0.42842 0.83498 0.64364 0.0
Cd172 Cd 0.48532 0.84361 0.65769 0.0
C173 C 0.47873 0.91966 0.63726 0.0
O174 O 0.50258 0.81878 0.61044 0.0
O175 O 0.53998 0.83994 0.63581 0.0
O176 O 0.47342 0.80442 0.6971 0.0
C177 C 0.53156 0.82394 0.61231 0.0
O178 O 0.47908 0.91041 0.60888 0.0
C179 C 0.49408 0.81358 0.7163 0.0
O180 O 0.47987 0.90019 0.65971 0.0
O181 O 0.51044 0.83711 0.7086 0.0
C182 C 0.15992 0.46675 0.57817 0.0
O183 O 0.15335 0.48967 0.56058 0.0
Cd184 Cd 0.13691 0.53877 0.57955 0.0
O185 O 0.16078 0.46994 0.60789 0.0
Cd186 Cd 0.15777 0.5142 0.64677 0.0
C187 C 0.08081 0.51435 0.63387 0.0
O188 O 0.17921 0.55213 0.61276 0.0
O189 O 0.15452 0.57309 0.65099 0.0
O190 O 0.206 0.49393 0.66612 0.0
C191 C 0.17143 0.57692 0.62677 0.0
O192 O 0.08783 0.52679 0.60764 0.0
C193 C 0.19847 0.49437 0.69486 0.0
O194 O 0.10206 0.50652 0.65305 0.0
O195 O 0.17119 0.50421 0.70177 0.0
C196 C 0.51893 0.13328 0.63283 0.0
O197 O 0.49531 0.13895 0.61585 0.0
Cd198 Cd 0.44407 0.12496 0.63116 0.0
O199 O 0.5156 0.12436 0.66117 0.0
Cd200 Cd 0.47322 0.11814 0.7019 0.0
C201 C 0.46321 0.05153 0.66281 0.0
O202 O 0.43665 0.15257 0.67844 0.0
O203 O 0.41496 0.12033 0.70985 0.0
O204 O 0.50643 0.15387 0.72863 0.0
C205 C 0.41156 0.14256 0.69054 0.0
O206 O 0.4516 0.06888 0.64154 0.0
C207 C 0.5038 0.14206 0.75571 0.0
O208 O 0.47363 0.06321 0.68819 0.0
O209 O 0.48612 0.11825 0.75854 0.0
C210 C 0.86386 0.54733 0.66736 0.0
O211 O 0.85948 0.5326 0.64191 0.0
Cd212 Cd 0.87533 0.48074 0.63172 0.0
O213 O 0.87473 0.53378 0.69155 0.0
Cd214 Cd 0.88775 0.47881 0.70843 0.0
C215 C 0.95102 0.48786 0.66237 0.0
O216 O 0.85152 0.4543 0.67367 0.0
O217 O 0.88398 0.42201 0.69355 0.0
O218 O 0.85701 0.49767 0.75183 0.0
C219 C 0.86101 0.4264 0.67539 0.0
O220 O 0.93192 0.48526 0.63966 0.0
C221 C 0.87022 0.48153 0.77278 0.0
O222 O 0.94151 0.48675 0.69072 0.0
O223 O 0.89247 0.46365 0.76417 0.0
C224 C 0.31699 0.45268 0.12049 0.0
O225 O 0.34099 0.46896 0.12684 0.0
Cd226 Cd 0.35022 0.51961 0.10706 0.0
O227 O 0.29335 0.46454 0.10678 0.0
Cd228 Cd 0.27496 0.51869 0.09272 0.0
C229 C 0.32213 0.50564 0.03129 0.0
O230 O 0.30755 0.54799 0.12693 0.0
O231 O 0.28948 0.57563 0.08941 0.0
O232 O 0.23514 0.50974 0.13061 0.0
C233 C 0.30587 0.5745 0.1141 0.0
O234 O 0.34423 0.51029 0.05073 0.0
C235 C 0.212 0.51685 0.11362 0.0
O236 O 0.29352 0.50693 0.03996 0.0
O237 O 0.21752 0.5249 0.08545 0.0
C238 C 0.40189 0.51552 0.82077 0.0
O239 O 0.42296 0.49647 0.82927 0.0
Cd240 Cd 0.41253 0.44708 0.85103 0.0
O241 O 0.37303 0.50778 0.82072 0.0
Cd242 Cd 0.34248 0.458 0.8285 0.0
C243 C 0.35492 0.4682 0.90504 0.0
O244 O 0.38258 0.42463 0.81021 0.0
O245 O 0.34804 0.39963 0.83653 0.0
O246 O 0.32037 0.46719 0.77819 0.0
C247 C 0.37249 0.39857 0.81951 0.0
O248 O 0.38293 0.45967 0.89905 0.0
C249 C 0.29194 0.46544 0.78664 0.0
O250 O 0.33476 0.47012 0.88333 0.0
O251 O 0.28644 0.45999 0.8154 0.0
C252 C 0.48358 0.33754 0.84231 0.0
O253 O 0.50101 0.36158 0.84209 0.0
Cd254 Cd 0.54744 0.36529 0.87151 0.0
O255 O 0.49267 0.31191 0.85445 0.0
Cd256 Cd 0.54298 0.28941 0.87499 0.0
C257 C 0.52065 0.32793 0.93953 0.0
O258 O 0.57784 0.32448 0.85042 0.0
O259 O 0.59883 0.3016 0.88968 0.0
O260 O 0.54609 0.25528 0.83127 0.0
C261 C 0.60197 0.32032 0.8668 0.0
O262 O 0.52823 0.35241 0.92425 0.0
C263 C 0.54247 0.22977 0.84584 0.0
O264 O 0.52368 0.30081 0.92742 0.0
O265 O 0.53937 0.23128 0.87547 0.0
C266 C 0.66587 0.43486 0.8678 0.0
O267 O 0.64454 0.45362 0.85934 0.0
Cd268 Cd 0.6443 0.50746 0.87148 0.0
O269 O 0.6914 0.44481 0.87965 0.0
Cd270 Cd 0.71828 0.49703 0.8866 0.0
C271 C 0.67161 0.50262 0.9489 0.0
O272 O 0.6903 0.52575 0.84749 0.0
O273 O 0.71172 0.55499 0.88192 0.0
O274 O 0.75782 0.47049 0.85619 0.0
C275 C 0.69539 0.55319 0.85728 0.0
O276 O 0.65036 0.50744 0.92859 0.0
C277 C 0.78115 0.48428 0.86817 0.0
O278 O 0.69984 0.49716 0.9406 0.0
O279 O 0.77563 0.50367 0.89016 0.0
C280 C 0.58331 0.61729 0.84407 0.0
O281 O 0.56603 0.59337 0.84727 0.0
Cd282 Cd 0.51159 0.59259 0.85522 0.0
O283 O 0.57178 0.64489 0.84355 0.0
Cd284 Cd 0.51642 0.66666 0.8439 0.0
C285 C 0.50632 0.64367 0.91837 0.0
O286 O 0.49544 0.62473 0.81338 0.0
O287 O 0.46007 0.65181 0.83611 0.0
O288 O 0.53537 0.70388 0.80508 0.0
C289 C 0.46662 0.62972 0.81738 0.0
O290 O 0.50381 0.61614 0.90711 0.0
C291 C 0.51673 0.72557 0.81322 0.0
O292 O 0.5124 0.66683 0.90069 0.0
O293 O 0.49926 0.72053 0.83679 0.0
C294 C 0.60065 0.57202 0.15572 0.0
O295 O 0.57716 0.55648 0.14639 0.0
Cd296 Cd 0.57502 0.5029 0.13447 0.0
O297 O 0.62719 0.55908 0.16039 0.0
Cd298 Cd 0.64764 0.50354 0.15723 0.0
C299 C 0.63498 0.50136 0.07944 0.0
O300 O 0.60051 0.48326 0.17926 0.0
O301 O 0.63013 0.44742 0.16098 0.0
O302 O 0.68128 0.52033 0.2 0.0
C303 C 0.60495 0.45443 0.17516 0.0
O304 O 0.60601 0.49876 0.08627 0.0
C305 C 0.70311 0.5012 0.19354 0.0
O306 O 0.65537 0.5048 0.10079 0.0
O307 O 0.69955 0.48377 0.16976 0.0
C308 C 0.41858 0.6426 0.12884 0.0
O309 O 0.43916 0.62215 0.13497 0.0
Cd310 Cd 0.49347 0.62803 0.12641 0.0
O311 O 0.42635 0.67027 0.12065 0.0
Cd312 Cd 0.47693 0.70113 0.11788 0.0
C313 C 0.4917 0.66163 0.05189 0.0
O314 O 0.50612 0.67256 0.15641 0.0
O315 O 0.53488 0.69866 0.1249 0.0
O316 O 0.44989 0.73972 0.14965 0.0
C317 C 0.53344 0.6808 0.14848 0.0
O318 O 0.49766 0.63878 0.07004 0.0
C319 C 0.46271 0.76334 0.13704 0.0
O320 O 0.4823 0.6878 0.0628 0.0
O321 O 0.48107 0.75822 0.11408 0.0
C322 C 0.49211 0.38829 0.15203 0.0
O323 O 0.47133 0.40778 0.14382 0.0
Cd324 Cd 0.42656 0.39279 0.11551 0.0
O325 O 0.4879 0.35893 0.14864 0.0
Cd326 Cd 0.44369 0.32287 0.13421 0.0
C327 C 0.4618 0.34284 0.06093 0.0
O328 O 0.40323 0.35666 0.15056 0.0
O329 O 0.38649 0.32145 0.11908 0.0
O330 O 0.45087 0.30146 0.18487 0.0
C331 C 0.3801 0.34405 0.1374 0.0
O332 O 0.44926 0.36903 0.06796 0.0
C333 C 0.45437 0.27324 0.17647 0.0
O334 O 0.46328 0.32094 0.08096 0.0
O335 O 0.45249 0.26728 0.14732 0.0
C336 C 0.10658 0.37012 0.31042 0.0
C337 C 0.1328 0.38776 0.30102 0.0
H338 H 0.0854 0.34384 0.34767 0.0
C339 C 0.16082 0.38476 0.31783 0.0
H340 H 0.0846 0.37205 0.29803 0.0
C341 C 0.16129 0.36827 0.34599 0.0
C342 C 0.13381 0.35451 0.35764 0.0
H343 H 0.18137 0.39804 0.31108 0.0
H344 H 0.18205 0.36952 0.36042 0.0
C345 C 0.10702 0.35379 0.33879 0.0
C346 C 0.6431 0.12671 0.38474 0.0
C347 C 0.64505 0.14923 0.40863 0.0
H348 H 0.62238 0.11482 0.34077 0.0
C349 C 0.63615 0.1801 0.40236 0.0
H350 H 0.64948 0.10263 0.38933 0.0
C351 C 0.62055 0.18712 0.37463 0.0
C352 C 0.61351 0.16321 0.35316 0.0
H353 H 0.63717 0.19772 0.42062 0.0
H354 H 0.61009 0.21007 0.37218 0.0
C355 C 0.62751 0.13373 0.35689 0.0
C356 C 0.81135 0.55248 0.47075 0.0
C357 C 0.82505 0.58229 0.46996 0.0
H358 H 0.79771 0.51205 0.4449 0.0
C359 C 0.8325 0.59574 0.44086 0.0
H360 H 0.80492 0.54172 0.4928 0.0
C361 C 0.82863 0.57852 0.41319 0.0
C362 C 0.81698 0.54778 0.41434 0.0
H363 H 0.84304 0.61876 0.43963 0.0
H364 H 0.83623 0.58863 0.3912 0.0
C365 C 0.80716 0.53551 0.44324 0.0
C366 C 0.39816 0.8248 0.40882 0.0
C367 C 0.37093 0.84246 0.41411 0.0
H368 H 0.43606 0.81417 0.37789 0.0
C369 C 0.35904 0.86093 0.38973 0.0
H370 H 0.40762 0.81001 0.42703 0.0
C371 C 0.37563 0.86361 0.36143 0.0
C372 C 0.40411 0.8476 0.3571 0.0
H373 H 0.33805 0.87476 0.3932 0.0
H374 H 0.36701 0.8794 0.34367 0.0
C375 C 0.41442 0.82717 0.38059 0.0
C376 C 0.14164 0.62168 0.60494 0.0
C377 C 0.17018 0.60565 0.60796 0.0
H378 H 0.11118 0.64566 0.57326 0.0
C379 C 0.19364 0.61004 0.58521 0.0
H380 H 0.12309 0.61852 0.62204 0.0
C381 C 0.18672 0.62529 0.55729 0.0
C382 C 0.1565 0.63682 0.55217 0.0
H383 H 0.21586 0.59796 0.5871 0.0
H384 H 0.20369 0.62459 0.53834 0.0
C385 C 0.13479 0.6372 0.57697 0.0
C386 C 0.36283 0.17126 0.62541 0.0
C387 C 0.35131 0.14265 0.61427 0.0
H388 H 0.39074 0.19391 0.66018 0.0
C389 C 0.35128 0.11657 0.63413 0.0
H390 H 0.36349 0.19152 0.61024 0.0
C391 C 0.36679 0.11791 0.66289 0.0
C392 C 0.38292 0.14523 0.67158 0.0
H393 H 0.34298 0.09413 0.6257 0.0
H394 H 0.36991 0.09641 0.67587 0.0
C395 C 0.37852 0.17257 0.65398 0.0
C396 C 0.83037 0.41217 0.62805 0.0
C397 C 0.85298 0.40383 0.65028 0.0
H398 H 0.81063 0.40303 0.58311 0.0
C399 C 0.87022 0.37611 0.64571 0.0
H400 H 0.81641 0.43314 0.63099 0.0
C401 C 0.86659 0.35851 0.61815 0.0
C402 C 0.84594 0.36864 0.59476 0.0
H403 H 0.88773 0.36899 0.6625 0.0
H404 H 0.88143 0.33831 0.61425 0.0
C405 C 0.82705 0.39492 0.60055 0.0
C406 C 0.58232 0.83232 0.58332 0.0
C407 C 0.55178 0.82006 0.58436 0.0
H408 H 0.62175 0.84432 0.55435 0.0
C409 C 0.53907 0.80687 0.55707 0.0
H410 H 0.59278 0.84249 0.60404 0.0
C411 C 0.55539 0.80821 0.5288 0.0
C412 C 0.58499 0.82238 0.52722 0.0
H413 H 0.51575 0.79689 0.55712 0.0
H414 H 0.54427 0.79918 0.5079 0.0
C415 C 0.59891 0.83332 0.55493 0.0
C416 C 0.41571 0.17449 0.45503 0.0
C417 C 0.38832 0.16244 0.44149 0.0
H418 H 0.46477 0.18283 0.44989 0.0
C419 C 0.38905 0.15292 0.40995 0.0
H420 H 0.41591 0.18231 0.47917 0.0
C421 C 0.41721 0.15354 0.39296 0.0
C422 C 0.44503 0.16335 0.40742 0.0
H423 H 0.36824 0.1437 0.39884 0.0
H424 H 0.41752 0.14468 0.36917 0.0
C425 C 0.44377 0.17473 0.43826 0.0
C426 C 0.79878 0.34174 0.42142 0.0
C427 C 0.82493 0.32197 0.42375 0.0
H428 H 0.78152 0.38558 0.40471 0.0
C429 C 0.85062 0.32677 0.40359 0.0
H430 H 0.77867 0.33845 0.43663 0.0
C431 C 0.85229 0.35392 0.3855 0.0
C432 C 0.82801 0.37597 0.38688 0.0
H433 H 0.87114 0.31195 0.4049 0.0
H434 H 0.87406 0.35947 0.37361 0.0
C435 C 0.80031 0.36861 0.40299 0.0
C436 C 0.6012 0.87248 0.33148 0.0
C437 C 0.57893 0.84871 0.32737 0.0
H438 H 0.64447 0.88528 0.3531 0.0
C439 C 0.5872 0.81768 0.33371 0.0
H440 H 0.595 0.89665 0.32714 0.0
C441 C 0.61543 0.81112 0.34859 0.0
C442 C 0.63543 0.83561 0.35753 0.0
H443 H 0.57016 0.79908 0.33103 0.0
H444 H 0.61949 0.78756 0.35694 0.0
C445 C 0.62956 0.86592 0.34636 0.0
C446 C 0.10572 0.61044 0.35293 0.0
C447 C 0.12889 0.61599 0.37555 0.0
H448 H 0.08724 0.57795 0.31922 0.0
C449 C 0.15414 0.59506 0.37784 0.0
H450 H 0.08606 0.62624 0.35057 0.0
C451 C 0.15467 0.56762 0.36026 0.0
C452 C 0.1302 0.56064 0.33965 0.0
H453 H 0.17266 0.59892 0.39466 0.0
H454 H 0.17344 0.55102 0.36405 0.0
C455 C 0.10645 0.58289 0.33495 0.0
C456 C 0.32937 0.85234 0.6028 0.0
C457 C 0.32305 0.82608 0.58398 0.0
H458 H 0.3641 0.8761 0.63004 0.0
C459 C 0.34229 0.79957 0.58656 0.0
H460 H 0.31502 0.87316 0.60121 0.0
C461 C 0.37018 0.80121 0.60337 0.0
C462 C 0.37902 0.82931 0.6178 0.0
H463 H 0.33785 0.77902 0.57234 0.0
H464 H 0.38668 0.78203 0.60146 0.0
C465 C 0.35746 0.85402 0.61946 0.0
C466 C 0.17772 0.43486 0.53294 0.0
C467 C 0.16532 0.43606 0.56339 0.0
H468 H 0.18623 0.40721 0.49219 0.0
C469 C 0.1551 0.40831 0.57769 0.0
H470 H 0.18619 0.45587 0.52156 0.0
C471 C 0.15474 0.38026 0.56063 0.0
C472 C 0.16495 0.37968 0.52926 0.0
H473 H 0.1455 0.40869 0.60121 0.0
H474 H 0.14489 0.35954 0.5714 0.0
C475 C 0.17779 0.40693 0.51615 0.0
C476 C 0.57492 0.11577 0.62826 0.0
C477 C 0.55033 0.13523 0.6184 0.0
H478 H 0.6208 0.09776 0.61789 0.0
C479 C 0.55486 0.15445 0.59223 0.0
H480 H 0.57198 0.10067 0.64838 0.0
C481 C 0.58263 0.15301 0.57511 0.0
C482 C 0.60642 0.13198 0.58349 0.0
H483 H 0.53647 0.16994 0.58431 0.0
H484 H 0.58482 0.16749 0.55444 0.0
C485 C 0.60277 0.11402 0.61078 0.0
C486 C 0.82696 0.59096 0.66156 0.0
C487 C 0.85766 0.58101 0.66717 0.0
H488 H 0.79805 0.62446 0.63858 0.0
C489 C 0.88263 0.60167 0.66165 0.0
H490 H 0.80744 0.5752 0.66543 0.0
C491 C 0.87729 0.62996 0.64612 0.0
C492 C 0.84698 0.6374 0.63589 0.0
H493 H 0.90654 0.59416 0.66546 0.0
H494 H 0.89728 0.64345 0.63819 0.0
C495 C 0.82161 0.61918 0.64624 0.0
C496 C 0.32685 0.4092 0.15665 0.0
C497 C 0.31899 0.419 0.12645 0.0
H498 H 0.35168 0.37572 0.18396 0.0
C499 C 0.32308 0.39835 0.10111 0.0
H500 H 0.32401 0.42489 0.17644 0.0
C501 C 0.33926 0.37016 0.10534 0.0
C502 C 0.35131 0.36272 0.13493 0.0
H503 H 0.3175 0.40574 0.07755 0.0
H504 H 0.34585 0.35655 0.08491 0.0
C505 C 0.34267 0.38106 0.16091 0.0
C506 C 0.4158 0.60184 0.82747 0.0
C507 C 0.44419 0.6043 0.81079 0.0
H508 H 0.37931 0.57097 0.84331 0.0
C509 C 0.45403 0.57915 0.79193 0.0
H510 H 0.40757 0.62093 0.84209 0.0
C511 C 0.43818 0.55075 0.79298 0.0
C512 C 0.41183 0.54722 0.81232 0.0
H513 H 0.47554 0.58051 0.77844 0.0
H514 H 0.44783 0.53087 0.78042 0.0
C515 C 0.39958 0.57335 0.82814 0.0
C516 C 0.42624 0.33817 0.85248 0.0
C517 C 0.45134 0.34138 0.83132 0.0
H518 H 0.38014 0.35401 0.86507 0.0
C519 C 0.44645 0.35632 0.80265 0.0
H520 H 0.42972 0.32693 0.87489 0.0
C521 C 0.41816 0.37133 0.79685 0.0
C522 C 0.39464 0.37219 0.81996 0.0
H523 H 0.46554 0.35901 0.78604 0.0
H524 H 0.41608 0.38524 0.77579 0.0
C525 C 0.39788 0.35363 0.84684 0.0
C526 C 0.65976 0.38203 0.8919 0.0
C527 C 0.65926 0.40123 0.86526 0.0
H528 H 0.64176 0.34032 0.91342 0.0
C529 C 0.64579 0.38997 0.83762 0.0
H530 H 0.66985 0.39048 0.91355 0.0
C531 C 0.6302 0.36139 0.8374 0.0
C532 C 0.62724 0.34383 0.865 0.0
H533 H 0.64526 0.40438 0.81679 0.0
H534 H 0.61808 0.3544 0.81627 0.0
C535 C 0.6437 0.35338 0.89181 0.0
C536 C 0.6648 0.60165 0.87046 0.0
C537 C 0.6733 0.57833 0.84867 0.0
H538 H 0.62875 0.63344 0.88562 0.0
C539 C 0.65559 0.57497 0.82126 0.0
H540 H 0.67802 0.60481 0.89181 0.0
C541 C 0.62762 0.59135 0.81779 0.0
C542 C 0.61711 0.61166 0.84144 0.0
H543 H 0.66172 0.55742 0.80393 0.0
H544 H 0.61269 0.58582 0.79809 0.0
C545 C 0.6367 0.6182 0.86688 0.0
C546 C 0.57517 0.61402 0.18558 0.0
C547 C 0.59561 0.60545 0.16125 0.0
H548 H 0.53959 0.64582 0.20091 0.0
C549 C 0.60137 0.62655 0.13682 0.0
H550 H 0.57012 0.59782 0.20442 0.0
C551 C 0.58378 0.65408 0.13467 0.0
C552 C 0.56 0.66036 0.15675 0.0
H553 H 0.61666 0.62004 0.11753 0.0
H554 H 0.58626 0.66832 0.11387 0.0
C555 C 0.55753 0.64137 0.18342 0.0
C556 C 0.34813 0.59443 0.14847 0.0
C557 C 0.32974 0.59842 0.12161 0.0
H558 H 0.39079 0.60575 0.17182 0.0
C559 C 0.33782 0.62209 0.1002 0.0
H560 H 0.3423 0.57673 0.16566 0.0
C561 C 0.36562 0.63917 0.10409 0.0
C562 C 0.3856 0.63251 0.12924 0.0
H563 H 0.32403 0.62578 0.07935 0.0
H564 H 0.37276 0.65553 0.08608 0.0
C565 C 0.37588 0.61109 0.1521 0.0
C566 C 0.57858 0.40387 0.16058 0.0
C567 C 0.57784 0.433 0.17596 0.0
H568 H 0.55142 0.36626 0.14117 0.0
C569 C 0.54923 0.44405 0.18808 0.0
H570 H 0.60032 0.3947 0.15113 0.0
C571 C 0.5215 0.42817 0.18195 0.0
C572 C 0.52184 0.40056 0.16419 0.0
H573 H 0.54792 0.46617 0.20044 0.0
H574 H 0.49956 0.43835 0.18978 0.0
C575 C 0.55067 0.3876 0.15488 0.0
C576 C 0.00328 0.35834 0.47688 0.0
C577 C 0.02309 0.33219 0.4788 0.0
H578 H 0.95666 0.37598 0.47993 0.0
C579 C 0.01001 0.30287 0.48599 0.0
H580 H 0.01252 0.38127 0.47131 0.0
C581 C 0.97774 0.29987 0.49124 0.0
C582 C 0.95798 0.32606 0.48899 0.0
H583 H 0.02469 0.2823 0.48773 0.0
H584 H 0.96826 0.27701 0.4967 0.0
C585 C 0.97116 0.35529 0.48175 0.0
C586 C 0.61764 -0.00231 0.47151 0.0
C587 C 0.64498 0.0114 0.48357 0.0
H588 H 0.59592 0.95685 0.45284 0.0
C589 C 0.67225 -0.00685 0.48581 0.0
H590 H 0.59625 0.01108 0.46922 0.0
C591 C 0.67201 0.96174 0.47644 0.0
C592 C 0.64459 0.94814 0.46435 0.0
H593 H 0.6937 0.00306 0.49493 0.0
H594 H 0.69328 0.94815 0.47865 0.0
C595 C 0.61749 0.96655 0.4619 0.0
C596 C 0.97381 0.6176 0.51755 0.0
C597 C 0.95535 0.6448 0.51792 0.0
H598 H 0.01715 0.59643 0.50427 0.0
C599 C 0.96752 0.67238 0.50474 0.0
H600 H 0.96511 0.5959 0.52731 0.0
C601 C -0.00241 0.67273 0.49156 0.0
C602 C 0.01587 0.6454 0.49095 0.0
H603 H 0.95384 0.69371 0.50462 0.0
H604 H 0.00642 0.69434 0.48172 0.0
C605 C 0.00361 0.61786 0.50408 0.0
C606 C 0.36183 0.0043 0.51308 0.0
C607 C 0.33631 0.02397 0.50667 0.0
H608 H 0.37829 0.95757 0.51878 0.0
C609 C 0.30688 0.01049 0.50079 0.0
H610 H 0.3848 0.01388 0.51789 0.0
C611 C 0.30315 0.97797 0.50115 0.0
C612 C 0.32872 0.95838 0.50774 0.0
H613 H 0.28675 0.02502 0.49579 0.0
H614 H 0.28025 0.96823 0.49642 0.0
C615 C 0.35805 0.97194 0.51376 0.0
C616 C 0.50649 -0.00845 0.36126 0.0
C617 C 0.49562 0.97952 0.33263 0.0
H618 H 0.52316 0.03138 0.38645 0.0
C619 C 0.49328 -0.00036 0.3068 0.0
H620 H 0.50883 0.97667 0.38158 0.0
C621 C 0.50142 0.0312 0.30966 0.0
C622 C 0.51243 0.04314 0.3383 0.0
H623 H 0.48507 0.99105 0.28441 0.0
H624 H 0.49918 0.04621 0.28941 0.0
C625 C 0.51495 0.02293 0.364 0.0
C626 C 0.97027 0.47221 0.36354 0.0
C627 C 0.94647 0.47735 0.34159 0.0
H628 H 0.01903 0.46546 0.37157 0.0
C629 C 0.95452 0.48 0.30973 0.0
H630 H 0.96492 0.46989 0.38825 0.0
C631 C 0.98581 0.47759 0.30011 0.0
C632 C 0.00952 0.47211 0.32214 0.0
H633 H 0.93669 0.48396 0.29225 0.0
H634 H 0.99138 0.47978 0.27544 0.0
C635 C 0.00136 0.46947 0.35393 0.0
C636 C 0.46634 0.97402 0.62013 0.0
C637 C 0.47516 0.95339 0.64405 0.0
H638 H 0.45519 0.02092 0.6074 0.0
C639 C 0.4795 0.96518 0.67449 0.0
H640 H 0.46256 0.96569 0.59647 0.0
C641 C 0.47536 -0.00296 0.68076 0.0
C642 C 0.46645 0.01762 0.6568 0.0
H643 H 0.48624 0.94985 0.69343 0.0
H644 H 0.47913 0.00551 0.70437 0.0
C645 C 0.46187 0.00571 0.62646 0.0
C646 C -0.00645 0.50271 0.62489 0.0
C647 C 0.9844 0.49406 0.65534 0.0
H648 H 0.03093 0.51624 0.59438 0.0
C649 C 0.00722 0.49238 0.67884 0.0
H650 H 0.97656 0.50445 0.60625 0.0
C651 C 0.03858 0.49902 0.67195 0.0
C652 C 0.04763 0.50785 0.6415 0.0
H653 H 0.0009 0.48583 0.70253 0.0
H654 H 0.05567 0.49739 0.6905 0.0
C655 C 0.02475 0.50968 0.61811 0.0
C656 C 0.3694 0.48059 0.96034 0.0
C657 C 0.34621 0.47741 0.93736 0.0
H658 H 0.38007 0.49232 0.00768 0.0
C659 C 0.3149 0.48406 0.94537 0.0
H660 H 0.39376 0.47585 0.95495 0.0
C661 C 0.30697 0.49351 0.97579 0.0
C662 C 0.33024 0.49675 -0.00128 0.0
H663 H 0.29646 0.4819 0.92818 0.0
H664 H 0.28264 0.49825 0.9813 0.0
C665 C 0.36153 0.49025 0.99059 0.0
C666 C 0.4962 0.36109 0.98127 0.0
C667 C 0.50623 0.33148 0.97092 0.0
H668 H 0.47397 0.38779 0.01741 0.0
C669 C 0.50119 0.30543 0.99031 0.0
H670 H 0.49949 0.38164 0.96685 0.0
C671 C 0.48658 0.309 0.0195 0.0
C672 C 0.47639 0.33863 0.0297 0.0
H673 H 0.50858 0.28229 0.98298 0.0
H674 H 0.48319 0.28854 0.03401 0.0
C675 C 0.48131 0.36459 0.01021 0.0
C676 C 0.68549 0.5009 0.00601 0.0
C677 C 0.66272 0.50241 0.98243 0.0
H678 H 0.69465 0.49947 0.05525 0.0
C679 C 0.63091 0.5033 0.99108 0.0
H680 H 0.71019 0.50017 0.0001 0.0
C681 C 0.62205 0.50265 0.02251 0.0
C682 C 0.64473 0.50132 0.04615 0.0
H683 H 0.61271 0.50433 0.97356 0.0
H684 H 0.5973 0.50342 0.02823 0.0
C685 C 0.67659 0.5005 0.03759 0.0
C686 C 0.49889 0.67875 0.96505 0.0
C687 C 0.50249 0.64851 0.95248 0.0
H688 H 0.4924 0.70665 0.00634 0.0
C689 C 0.50248 0.62278 0.97286 0.0
H690 H 0.49872 0.69905 0.94996 0.0
C691 C 0.49915 0.62714 0.00508 0.0
C692 C 0.4954 0.65732 0.01769 0.0
H693 H 0.5053 0.59918 0.96397 0.0
H694 H 0.4993 0.60676 0.02008 0.0
C695 C 0.49519 0.68308 -0.00266 0.0
C696 C 0.18653 0.21543 0.50624 0.0
C697 C 0.18103 0.2239 0.47501 0.0
H698 H 0.21545 0.1894 0.53773 0.0
C699 C 0.19776 0.2089 0.45091 0.0
H700 H 0.17411 0.22693 0.52524 0.0
C701 C 0.22064 0.18671 0.45805 0.0
C702 C 0.22783 0.18016 0.48939 0.0
H703 H 0.19394 0.2152 0.42667 0.0
H704 H 0.23418 0.17634 0.43916 0.0
C705 C 0.21019 0.19413 0.51341 0.0
C706 C 0.79195 0.15394 0.52016 0.0
C707 C 0.76394 0.15855 0.53687 0.0
H708 H 0.836 0.17404 0.50652 0.0
C709 C 0.76154 0.18359 0.55798 0.0
H710 H 0.79415 0.13475 0.50368 0.0
C711 C 0.78537 0.20567 0.55995 0.0
C712 C 0.81178 0.2034 0.54036 0.0
H713 H 0.74019 0.18735 0.57133 0.0
H714 H 0.78178 0.22595 0.57481 0.0
C715 C 0.81583 0.1764 0.52183 0.0
C716 C 0.79551 0.77071 0.5021 0.0
C717 C 0.78697 0.73955 0.50825 0.0
H718 H 0.78036 0.81567 0.4856 0.0
C719 C 0.7562 0.72982 0.50217 0.0
H720 H 0.81912 0.77878 0.50651 0.0
C721 C 0.73438 0.75059 0.49028 0.0
C722 C 0.74264 0.78174 0.48414 0.0
H723 H 0.74881 0.70598 0.50653 0.0
H724 H 0.7109 0.74207 0.48597 0.0
C725 C 0.77342 0.79173 0.4901 0.0
C726 C 0.18932 0.76803 0.42724 0.0
C727 C 0.16188 0.76726 0.44536 0.0
H728 H 0.23375 0.78951 0.41972 0.0
C729 C 0.15564 0.79171 0.46651 0.0
H730 H 0.19444 0.74953 0.41057 0.0
C731 C 0.17846 0.81465 0.47206 0.0
C732 C 0.20746 0.81317 0.45637 0.0
H733 H 0.13463 0.79141 0.48083 0.0
H734 H 0.17449 0.8317 0.49047 0.0
C735 C 0.21184 0.79087 0.43258 0.0
C736 C 0.46891 0.23639 0.25471 0.0
C737 C 0.48257 0.20769 0.24636 0.0
H738 H 0.44896 0.27918 0.23917 0.0
C739 C 0.48456 0.1993 0.21455 0.0
H740 H 0.46666 0.24341 0.27901 0.0
C741 C 0.4742 0.22001 0.19144 0.0
C742 C 0.46184 0.2493 0.19998 0.0
H743 H 0.49484 0.1772 0.20751 0.0
H744 H 0.47687 0.2136 0.16702 0.0
C745 C 0.45869 0.25692 0.23182 0.0
C746 C 0.7668 0.51957 0.25145 0.0
C747 C 0.77631 0.48938 0.26001 0.0
H748 H 0.73524 0.54697 0.22386 0.0
C749 C 0.7634 0.46332 0.24483 0.0
H750 H 0.77637 0.53996 0.26311 0.0
C751 C 0.7408 0.46738 0.22171 0.0
C752 C 0.73 0.49747 0.21441 0.0
H753 H 0.77047 0.43985 0.25117 0.0
H754 H 0.73062 0.44692 0.21071 0.0
C755 C 0.74332 0.52358 0.22919 0.0
C756 C 0.4886 0.81178 0.15568 0.0
C757 C 0.46111 0.79403 0.15261 0.0
H758 H 0.51296 0.84599 0.18313 0.0
C759 C 0.43449 0.80227 0.17024 0.0
H760 H 0.50953 0.80565 0.14259 0.0
C761 C 0.4362 0.82608 0.19266 0.0
C762 C 0.46479 0.84117 0.19825 0.0
H763 H 0.4131 0.78878 0.16833 0.0
H764 H 0.41618 0.83037 0.20776 0.0
C765 C 0.49061 0.83481 0.17884 0.0
C766 C 0.13964 0.48611 0.15131 0.0
C767 C 0.1365 0.50812 0.17562 0.0
H768 H 0.16687 0.47199 0.11124 0.0
C769 C 0.15286 0.53652 0.17372 0.0
H770 H 0.12747 0.46391 0.15249 0.0
C771 C 0.17482 0.5413 0.14997 0.0
C772 C 0.18082 0.51769 0.12794 0.0
H773 H 0.15077 0.55383 0.1922 0.0
H774 H 0.18946 0.56199 0.15084 0.0
C775 C 0.16204 0.49076 0.12767 0.0
C776 C 0.53697 0.76554 0.77582 0.0
C777 C 0.51194 0.75289 0.79304 0.0
H778 H 0.55076 0.796 0.73839 0.0
C779 C 0.48133 0.7633 0.78728 0.0
H780 H 0.56072 0.75767 0.77981 0.0
C781 C 0.47556 0.78418 0.76293 0.0
C782 C 0.50043 0.79582 0.74488 0.0
H783 H 0.46163 0.75359 0.80005 0.0
H784 H 0.4516 0.79045 0.75754 0.0
C785 C 0.53128 0.78738 0.75224 0.0
C786 C 0.2361 0.47748 0.77319 0.0
C787 C 0.26685 0.47039 0.76372 0.0
H788 H 0.19001 0.49098 0.75863 0.0
C789 C 0.27425 0.46957 0.73169 0.0
H790 H 0.22985 0.47826 0.79779 0.0
C791 C 0.25167 0.47659 0.70951 0.0
C792 C 0.2212 0.48484 0.71882 0.0
H793 H 0.29769 0.46391 0.72368 0.0
H794 H 0.25841 0.47618 0.68502 0.0
C795 C 0.2134 0.48483 0.75084 0.0
C796 C 0.5449 0.17693 0.77653 0.0
C797 C 0.51907 0.15751 0.78244 0.0
H798 H 0.57313 0.21472 0.79283 0.0
C799 C 0.50555 0.15726 0.81253 0.0
H800 H 0.55611 0.17718 0.75371 0.0
C801 C 0.51553 0.17887 0.8352 0.0
C802 C 0.539 0.20069 0.82775 0.0
H803 H 0.48564 0.14241 0.81763 0.0
H804 H 0.50297 0.18041 0.85725 0.0
C805 C 0.55475 0.19832 0.79896 0.0
C806 C 0.82739 0.50961 0.84395 0.0
C807 C 0.81185 0.48203 0.85261 0.0
H808 H 0.85853 0.53103 0.81081 0.0
C809 C 0.82146 0.45341 0.83948 0.0
H810 H 0.82007 0.53199 0.85346 0.0
C811 C 0.84421 0.45277 0.81582 0.0
C812 C 0.85674 0.48084 0.80443 0.0
H813 H 0.80956 0.4319 0.84568 0.0
H814 H 0.84932 0.4308 0.80416 0.0
C815 C 0.84931 0.50909 0.81954 0.0
loop_
_geom_bond_atom_site_label_1
_geom_bond_atom_site_label_2
_geom_bond_distance
_geom_bond_site_symmetry_2
_ccdc_geom_bond_type
C0 O1 1.306 . S
C0 O3 1.160 . S
O1 C0 1.306 . S
O1 Cd2 2.228 . S
Cd2 O1 2.228 . S
Cd2 O6 2.273 . S
Cd2 O10 2.277 . S
O3 C0 1.160 . S
O3 Cd4 2.203 . S
Cd4 O3 2.203 . S
Cd4 O6 2.411 . S
Cd4 O7 2.333 . S
Cd4 O8 2.352 . S
Cd4 O12 2.277 . S
Cd4 O13 2.356 . S
C5 O10 1.209 . S
C5 O12 1.226 . S
O6 Cd2 2.273 . S
O6 Cd4 2.411 . S
O6 C9 1.320 . S
O7 Cd4 2.333 . S
O7 C9 1.214 . S
O8 Cd4 2.352 . S
O8 C11 1.258 . S
C9 O6 1.320 . S
C9 O7 1.214 . S
O10 Cd2 2.277 . S
O10 C5 1.209 . S
C11 O8 1.258 . S
C11 O13 1.282 . S
O12 Cd4 2.277 . S
O12 C5 1.226 . S
O13 Cd4 2.356 . S
O13 C11 1.282 . S
C14 O15 1.306 . S
C14 O17 1.160 . S
O15 C14 1.306 . S
O15 Cd16 2.228 . S
Cd16 O15 2.228 . S
Cd16 O20 2.273 . S
Cd16 O24 2.277 . S
O17 C14 1.160 . S
O17 Cd18 2.203 . S
Cd18 O17 2.203 . S
Cd18 O20 2.411 . S
Cd18 O21 2.333 . S
Cd18 O22 2.352 . S
Cd18 O26 2.277 . S
Cd18 O27 2.356 . S
C19 O24 1.209 . S
C19 O26 1.226 . S
O20 Cd16 2.273 . S
O20 Cd18 2.411 . S
O20 C23 1.320 . S
O21 Cd18 2.333 . S
O21 C23 1.214 . S
O22 Cd18 2.352 . S
O22 C25 1.258 . S
C23 O20 1.320 . S
C23 O21 1.214 . S
O24 Cd16 2.277 . S
O24 C19 1.209 . S
C25 O22 1.258 . S
C25 O27 1.282 . S
O26 Cd18 2.277 . S
O26 C19 1.226 . S
O27 Cd18 2.356 . S
O27 C25 1.282 . S
C28 O29 1.306 . S
C28 O31 1.160 . S
O29 C28 1.306 . S
O29 Cd30 2.228 . S
Cd30 O29 2.228 . S
Cd30 O34 2.273 . S
Cd30 O38 2.277 . S
O31 C28 1.160 . S
O31 Cd32 2.203 . S
Cd32 O31 2.203 . S
Cd32 O34 2.411 . S
Cd32 O35 2.333 . S
Cd32 O36 2.352 . S
Cd32 O40 2.277 . S
Cd32 O41 2.356 . S
C33 O38 1.209 . S
C33 O40 1.226 . S
O34 Cd30 2.273 . S
O34 Cd32 2.411 . S
O34 C37 1.320 . S
O35 Cd32 2.333 . S
O35 C37 1.214 . S
O36 Cd32 2.352 . S
O36 C39 1.258 . S
C37 O34 1.320 . S
C37 O35 1.214 . S
O38 Cd30 2.277 . S
O38 C33 1.209 . S
C39 O36 1.258 . S
C39 O41 1.282 . S
O40 Cd32 2.277 . S
O40 C33 1.226 . S
O41 Cd32 2.356 . S
O41 C39 1.282 . S
C42 O43 1.306 . S
C42 O45 1.160 . S
O43 C42 1.306 . S
O43 Cd44 2.228 . S
Cd44 O43 2.228 . S
Cd44 O48 2.273 . S
Cd44 O52 2.277 . S
O45 C42 1.160 . S
O45 Cd46 2.203 . S
Cd46 O45 2.203 . S
Cd46 O48 2.411 . S
Cd46 O49 2.333 . S
Cd46 O50 2.352 . S
Cd46 O54 2.277 . S
Cd46 O55 2.356 . S
C47 O52 1.209 . S
C47 O54 1.226 . S
O48 Cd44 2.273 . S
O48 Cd46 2.411 . S
O48 C51 1.320 . S
O49 Cd46 2.333 . S
O49 C51 1.214 . S
O50 Cd46 2.352 . S
O50 C53 1.258 . S
C51 O48 1.320 . S
C51 O49 1.214 . S
O52 Cd44 2.277 . S
O52 C47 1.209 . S
C53 O50 1.258 . S
C53 O55 1.282 . S
O54 Cd46 2.277 . S
O54 C47 1.226 . S
O55 Cd46 2.356 . S
O55 C53 1.282 . S
C56 O57 1.306 . S
C56 O59 1.160 . S
O57 C56 1.306 . S
O57 Cd58 2.228 . S
Cd58 O57 2.228 . S
Cd58 O62 2.273 . S
Cd58 O66 2.277 . S
O59 C56 1.160 . S
O59 Cd60 2.203 . S
Cd60 O59 2.203 . S
Cd60 O62 2.411 . S
Cd60 O63 2.333 . S
Cd60 O64 2.352 . S
Cd60 O68 2.277 . S
Cd60 O69 2.356 . S
C61 O66 1.209 . S
C61 O68 1.226 . S
O62 Cd58 2.273 . S
O62 Cd60 2.411 . S
O62 C65 1.320 . S
O63 Cd60 2.333 . S
O63 C65 1.214 . S
O64 Cd60 2.352 . S
O64 C67 1.258 . S
C65 O62 1.320 . S
C65 O63 1.214 . S
O66 Cd58 2.277 . S
O66 C61 1.209 . S
C67 O64 1.258 . S
C67 O69 1.282 . S
O68 Cd60 2.277 . S
O68 C61 1.226 . S
O69 Cd60 2.356 . S
O69 C67 1.282 . S
C70 O71 1.306 . S
C70 O73 1.160 . S
O71 C70 1.306 . S
O71 Cd72 2.228 . S
Cd72 O71 2.228 . S
Cd72 O76 2.273 . S
Cd72 O80 2.277 . S
O73 C70 1.160 . S
O73 Cd74 2.203 . S
Cd74 O73 2.203 . S
Cd74 O76 2.411 . S
Cd74 O77 2.333 . S
Cd74 O78 2.352 . S
Cd74 O82 2.277 . S
Cd74 O83 2.356 . S
C75 O80 1.209 . S
C75 O82 1.226 . S
O76 Cd72 2.273 . S
O76 Cd74 2.411 . S
O76 C79 1.320 . S
O77 Cd74 2.333 . S
O77 C79 1.214 . S
O78 Cd74 2.352 . S
O78 C81 1.258 . S
C79 O76 1.320 . S
C79 O77 1.214 . S
O80 Cd72 2.277 . S
O80 C75 1.209 . S
C81 O78 1.258 . S
C81 O83 1.282 . S
O82 Cd74 2.277 . S
O82 C75 1.226 . S
O83 Cd74 2.356 . S
O83 C81 1.282 . S
C84 O85 1.306 . S
C84 O87 1.160 . S
O85 C84 1.306 . S
O85 Cd86 2.228 . S
Cd86 O85 2.228 . S
Cd86 O90 2.273 . S
Cd86 O94 2.277 . S
O87 C84 1.160 . S
O87 Cd88 2.203 . S
Cd88 O87 2.203 . S
Cd88 O90 2.411 . S
Cd88 O91 2.333 . S
Cd88 O92 2.352 . S
Cd88 O96 2.277 . S
Cd88 O97 2.356 . S
C89 O94 1.209 . S
C89 O96 1.226 . S
O90 Cd86 2.273 . S
O90 Cd88 2.411 . S
O90 C93 1.320 . S
O91 Cd88 2.333 . S
O91 C93 1.214 . S
O92 Cd88 2.352 . S
O92 C95 1.258 . S
C93 O90 1.320 . S
C93 O91 1.214 . S
O94 Cd86 2.277 . S
O94 C89 1.209 . S
C95 O92 1.258 . S
C95 O97 1.282 . S
O96 Cd88 2.277 . S
O96 C89 1.226 . S
O97 Cd88 2.356 . S
O97 C95 1.282 . S
C98 O99 1.306 . S
C98 O101 1.160 . S
O99 C98 1.306 . S
O99 Cd100 2.228 . S
Cd100 O99 2.228 . S
Cd100 O104 2.273 . S
Cd100 O108 2.277 . S
O101 C98 1.160 . S
O101 Cd102 2.203 . S
Cd102 O101 2.203 . S
Cd102 O104 2.411 . S
Cd102 O105 2.333 . S
Cd102 O106 2.352 . S
Cd102 O110 2.277 . S
Cd102 O111 2.356 . S
C103 O108 1.209 . S
C103 O110 1.226 . S
O104 Cd100 2.273 . S
O104 Cd102 2.411 . S
O104 C107 1.320 . S
O105 Cd102 2.333 . S
O105 C107 1.214 . S
O106 Cd102 2.352 . S
O106 C109 1.258 . S
C107 O104 1.320 . S
C107 O105 1.214 . S
O108 Cd100 2.277 . S
O108 C103 1.209 . S
C109 O106 1.258 . S
C109 O111 1.282 . S
O110 Cd102 2.277 . S
O110 C103 1.226 . S
O111 Cd102 2.356 . S
O111 C109 1.282 . S
C112 O113 1.306 . S
C112 O115 1.160 . S
O113 C112 1.306 . S
O113 Cd114 2.228 . S
Cd114 O113 2.228 . S
Cd114 O118 2.273 . S
Cd114 O122 2.277 . S
O115 C112 1.160 . S
O115 Cd116 2.203 . S
Cd116 O115 2.203 . S
Cd116 O118 2.411 . S
Cd116 O119 2.333 . S
Cd116 O120 2.352 . S
Cd116 O124 2.277 . S
Cd116 O125 2.356 . S
C117 O122 1.209 . S
C117 O124 1.226 . S
O118 Cd114 2.273 . S
O118 Cd116 2.411 . S
O118 C121 1.320 . S
O119 Cd116 2.333 . S
O119 C121 1.214 . S
O120 Cd116 2.352 . S
O120 C123 1.258 . S
C121 O118 1.320 . S
C121 O119 1.214 . S
O122 Cd114 2.277 . S
O122 C117 1.209 . S
C123 O120 1.258 . S
C123 O125 1.282 . S
O124 Cd116 2.277 . S
O124 C117 1.226 . S
O125 Cd116 2.356 . S
O125 C123 1.282 . S
C126 O127 1.306 . S
C126 O129 1.160 . S
O127 C126 1.306 . S
O127 Cd128 2.228 . S
Cd128 O127 2.228 . S
Cd128 O132 2.273 . S
Cd128 O136 2.277 . S
O129 C126 1.160 . S
O129 Cd130 2.203 . S
Cd130 O129 2.203 . S
Cd130 O132 2.411 . S
Cd130 O133 2.333 . S
Cd130 O134 2.352 . S
Cd130 O138 2.277 . S
Cd130 O139 2.356 . S
C131 O136 1.209 . S
C131 O138 1.226 . S
O132 Cd128 2.273 . S
O132 Cd130 2.411 . S
O132 C135 1.320 . S
O133 Cd130 2.333 . S
O133 C135 1.214 . S
O134 Cd130 2.352 . S
O134 C137 1.258 . S
C135 O132 1.320 . S
C135 O133 1.214 . S
O136 Cd128 2.277 . S
O136 C131 1.209 . S
C137 O134 1.258 . S
C137 O139 1.282 . S
O138 Cd130 2.277 . S
O138 C131 1.226 . S
O139 Cd130 2.356 . S
O139 C137 1.282 . S
C140 O141 1.306 . S
C140 O143 1.160 . S
O141 C140 1.306 . S
O141 Cd142 2.228 . S
Cd142 O141 2.228 . S
Cd142 O146 2.273 . S
Cd142 O150 2.277 . S
O143 C140 1.160 . S
O143 Cd144 2.203 . S
Cd144 O143 2.203 . S
Cd144 O146 2.411 . S
Cd144 O147 2.333 . S
Cd144 O148 2.352 . S
Cd144 O152 2.277 . S
Cd144 O153 2.356 . S
C145 O150 1.209 . S
C145 O152 1.226 . S
O146 Cd142 2.273 . S
O146 Cd144 2.411 . S
O146 C149 1.320 . S
O147 Cd144 2.333 . S
O147 C149 1.214 . S
O148 Cd144 2.352 . S
O148 C151 1.258 . S
C149 O146 1.320 . S
C149 O147 1.214 . S
O150 Cd142 2.277 . S
O150 C145 1.209 . S
C151 O148 1.258 . S
C151 O153 1.282 . S
O152 Cd144 2.277 . S
O152 C145 1.226 . S
O153 Cd144 2.356 . S
O153 C151 1.282 . S
C154 O155 1.306 . S
C154 O157 1.160 . S
O155 C154 1.306 . S
O155 Cd156 2.228 . S
Cd156 O155 2.228 . S
Cd156 O160 2.273 . S
Cd156 O164 2.277 . S
O157 C154 1.160 . S
O157 Cd158 2.203 . S
Cd158 O157 2.203 . S
Cd158 O160 2.411 . S
Cd158 O161 2.333 . S
Cd158 O162 2.352 . S
Cd158 O166 2.277 . S
Cd158 O167 2.356 . S
C159 O164 1.209 . S
C159 O166 1.226 . S
O160 Cd156 2.273 . S
O160 Cd158 2.411 . S
O160 C163 1.320 . S
O161 Cd158 2.333 . S
O161 C163 1.214 . S
O162 Cd158 2.352 . S
O162 C165 1.258 . S
C163 O160 1.320 . S
C163 O161 1.214 . S
O164 Cd156 2.277 . S
O164 C159 1.209 . S
C165 O162 1.258 . S
C165 O167 1.282 . S
O166 Cd158 2.277 . S
O166 C159 1.226 . S
O167 Cd158 2.356 . S
O167 C165 1.282 . S
C168 O169 1.306 . S
C168 O171 1.160 . S
O169 C168 1.306 . S
O169 Cd170 2.228 . S
Cd170 O169 2.228 . S
Cd170 O174 2.273 . S
Cd170 O178 2.277 . S
O171 C168 1.160 . S
O171 Cd172 2.203 . S
Cd172 O171 2.203 . S
Cd172 O174 2.411 . S
Cd172 O175 2.333 . S
Cd172 O176 2.352 . S
Cd172 O180 2.277 . S
Cd172 O181 2.356 . S
C173 O178 1.209 . S
C173 O180 1.226 . S
O174 Cd170 2.273 . S
O174 Cd172 2.411 . S
O174 C177 1.320 . S
O175 Cd172 2.333 . S
O175 C177 1.214 . S
O176 Cd172 2.352 . S
O176 C179 1.258 . S
C177 O174 1.320 . S
C177 O175 1.214 . S
O178 Cd170 2.277 . S
O178 C173 1.209 . S
C179 O176 1.258 . S
C179 O181 1.282 . S
O180 Cd172 2.277 . S
O180 C173 1.226 . S
O181 Cd172 2.356 . S
O181 C179 1.282 . S
C182 O183 1.306 . S
C182 O185 1.160 . S
O183 C182 1.306 . S
O183 Cd184 2.228 . S
Cd184 O183 2.228 . S
Cd184 O188 2.273 . S
Cd184 O192 2.277 . S
O185 C182 1.160 . S
O185 Cd186 2.203 . S
Cd186 O185 2.203 . S
Cd186 O188 2.411 . S
Cd186 O189 2.333 . S
Cd186 O190 2.352 . S
Cd186 O194 2.277 . S
Cd186 O195 2.356 . S
C187 O192 1.209 . S
C187 O194 1.226 . S
O188 Cd184 2.273 . S
O188 Cd186 2.411 . S
O188 C191 1.320 . S
O189 Cd186 2.333 . S
O189 C191 1.214 . S
O190 Cd186 2.352 . S
O190 C193 1.258 . S
C191 O188 1.320 . S
C191 O189 1.214 . S
O192 Cd184 2.277 . S
O192 C187 1.209 . S
C193 O190 1.258 . S
C193 O195 1.282 . S
O194 Cd186 2.277 . S
O194 C187 1.226 . S
O195 Cd186 2.356 . S
O195 C193 1.282 . S
C196 O197 1.306 . S
C196 O199 1.160 . S
O197 C196 1.306 . S
O197 Cd198 2.228 . S
Cd198 O197 2.228 . S
Cd198 O202 2.273 . S
Cd198 O206 2.277 . S
O199 C196 1.160 . S
O199 Cd200 2.203 . S
Cd200 O199 2.203 . S
Cd200 O202 2.411 . S
Cd200 O203 2.333 . S
Cd200 O204 2.352 . S
Cd200 O208 2.277 . S
Cd200 O209 2.356 . S
C201 O206 1.209 . S
C201 O208 1.226 . S
O202 Cd198 2.273 . S
O202 Cd200 2.411 . S
O202 C205 1.320 . S
O203 Cd200 2.333 . S
O203 C205 1.214 . S
O204 Cd200 2.352 . S
O204 C207 1.258 . S
C205 O202 1.320 . S
C205 O203 1.214 . S
O206 Cd198 2.277 . S
O206 C201 1.209 . S
C207 O204 1.258 . S
C207 O209 1.282 . S
O208 Cd200 2.277 . S
O208 C201 1.226 . S
O209 Cd200 2.356 . S
O209 C207 1.282 . S
C210 O211 1.306 . S
C210 O213 1.160 . S
O211 C210 1.306 . S
O211 Cd212 2.228 . S
Cd212 O211 2.228 . S
Cd212 O216 2.273 . S
Cd212 O220 2.277 . S
O213 C210 1.160 . S
O213 Cd214 2.203 . S
Cd214 O213 2.203 . S
Cd214 O216 2.411 . S
Cd214 O217 2.333 . S
Cd214 O218 2.352 . S
Cd214 O222 2.277 . S
Cd214 O223 2.356 . S
C215 O220 1.209 . S
C215 O222 1.226 . S
O216 Cd212 2.273 . S
O216 Cd214 2.411 . S
O216 C219 1.320 . S
O217 Cd214 2.333 . S
O217 C219 1.214 . S
O218 Cd214 2.352 . S
O218 C221 1.258 . S
C219 O216 1.320 . S
C219 O217 1.214 . S
O220 Cd212 2.277 . S
O220 C215 1.209 . S
C221 O218 1.258 . S
C221 O223 1.282 . S
O222 Cd214 2.277 . S
O222 C215 1.226 . S
O223 Cd214 2.356 . S
O223 C221 1.282 . S
C224 O225 1.306 . S
C224 O227 1.160 . S
O225 C224 1.306 . S
O225 Cd226 2.228 . S
Cd226 O225 2.228 . S
Cd226 O230 2.273 . S
Cd226 O234 2.277 . S
O227 C224 1.160 . S
O227 Cd228 2.203 . S
Cd228 O227 2.203 . S
Cd228 O230 2.411 . S
Cd228 O231 2.333 . S
Cd228 O232 2.352 . S
Cd228 O236 2.277 . S
Cd228 O237 2.356 . S
C229 O234 1.209 . S
C229 O236 1.226 . S
O230 Cd226 2.273 . S
O230 Cd228 2.411 . S
O230 C233 1.320 . S
O231 Cd228 2.333 . S
O231 C233 1.214 . S
O232 Cd228 2.352 . S
O232 C235 1.258 . S
C233 O230 1.320 . S
C233 O231 1.214 . S
O234 Cd226 2.277 . S
O234 C229 1.209 . S
C235 O232 1.258 . S
C235 O237 1.282 . S
O236 Cd228 2.277 . S
O236 C229 1.226 . S
O237 Cd228 2.356 . S
O237 C235 1.282 . S
C238 O239 1.306 . S
C238 O241 1.160 . S
O239 C238 1.306 . S
O239 Cd240 2.228 . S
Cd240 O239 2.228 . S
Cd240 O244 2.273 . S
Cd240 O248 2.277 . S
O241 C238 1.160 . S
O241 Cd242 2.203 . S
Cd242 O241 2.203 . S
Cd242 O244 2.411 . S
Cd242 O245 2.333 . S
Cd242 O246 2.352 . S
Cd242 O250 2.277 . S
Cd242 O251 2.356 . S
C243 O248 1.209 . S
C243 O250 1.226 . S
O244 Cd240 2.273 . S
O244 Cd242 2.411 . S
O244 C247 1.320 . S
O245 Cd242 2.333 . S
O245 C247 1.214 . S
O246 Cd242 2.352 . S
O246 C249 1.258 . S
C247 O244 1.320 . S
C247 O245 1.214 . S
O248 Cd240 2.277 . S
O248 C243 1.209 . S
C249 O246 1.258 . S
C249 O251 1.282 . S
O250 Cd242 2.277 . S
O250 C243 1.226 . S
O251 Cd242 2.356 . S
O251 C249 1.282 . S
C252 O253 1.306 . S
C252 O255 1.160 . S
O253 C252 1.306 . S
O253 Cd254 2.228 . S
Cd254 O253 2.228 . S
Cd254 O258 2.273 . S
Cd254 O262 2.277 . S
O255 C252 1.160 . S
O255 Cd256 2.203 . S
Cd256 O255 2.203 . S
Cd256 O258 2.411 . S
Cd256 O259 2.333 . S
Cd256 O260 2.352 . S
Cd256 O264 2.277 . S
Cd256 O265 2.356 . S
C257 O262 1.209 . S
C257 O264 1.226 . S
O258 Cd254 2.273 . S
O258 Cd256 2.411 . S
O258 C261 1.320 . S
O259 Cd256 2.333 . S
O259 C261 1.214 . S
O260 Cd256 2.352 . S
O260 C263 1.258 . S
C261 O258 1.320 . S
C261 O259 1.214 . S
O262 Cd254 2.277 . S
O262 C257 1.209 . S
C263 O260 1.258 . S
C263 O265 1.282 . S
O264 Cd256 2.277 . S
O264 C257 1.226 . S
O265 Cd256 2.356 . S
O265 C263 1.282 . S
C266 O267 1.306 . S
C266 O269 1.160 . S
O267 C266 1.306 . S
O267 Cd268 2.228 . S
Cd268 O267 2.228 . S
Cd268 O272 2.273 . S
Cd268 O276 2.277 . S
O269 C266 1.160 . S
O269 Cd270 2.203 . S
Cd270 O269 2.203 . S
Cd270 O272 2.411 . S
Cd270 O273 2.333 . S
Cd270 O274 2.352 . S
Cd270 O278 2.277 . S
Cd270 O279 2.356 . S
C271 O276 1.209 . S
C271 O278 1.226 . S
O272 Cd268 2.273 . S
O272 Cd270 2.411 . S
O272 C275 1.320 . S
O273 Cd270 2.333 . S
O273 C275 1.214 . S
O274 Cd270 2.352 . S
O274 C277 1.258 . S
C275 O272 1.320 . S
C275 O273 1.214 . S
O276 Cd268 2.277 . S
O276 C271 1.209 . S
C277 O274 1.258 . S
C277 O279 1.282 . S
O278 Cd270 2.277 . S
O278 C271 1.226 . S
O279 Cd270 2.356 . S
O279 C277 1.282 . S
C280 O281 1.306 . S
C280 O283 1.160 . S
O281 C280 1.306 . S
O281 Cd282 2.228 . S
Cd282 O281 2.228 . S
Cd282 O286 2.273 . S
Cd282 O290 2.277 . S
O283 C280 1.160 . S
O283 Cd284 2.203 . S
Cd284 O283 2.203 . S
Cd284 O286 2.411 . S
Cd284 O287 2.333 . S
Cd284 O288 2.352 . S
Cd284 O292 2.277 . S
Cd284 O293 2.356 . S
C285 O290 1.209 . S
C285 O292 1.226 . S
O286 Cd282 2.273 . S
O286 Cd284 2.411 . S
O286 C289 1.320 . S
O287 Cd284 2.333 . S
O287 C289 1.214 . S
O288 Cd284 2.352 . S
O288 C291 1.258 . S
C289 O286 1.320 . S
C289 O287 1.214 . S
O290 Cd282 2.277 . S
O290 C285 1.209 . S
C291 O288 1.258 . S
C291 O293 1.282 . S
O292 Cd284 2.277 . S
O292 C285 1.226 . S
O293 Cd284 2.356 . S
O293 C291 1.282 . S
C294 O295 1.306 . S
C294 O297 1.160 . S
O295 C294 1.306 . S
O295 Cd296 2.228 . S
Cd296 O295 2.228 . S
Cd296 O300 2.273 . S
Cd296 O304 2.277 . S
O297 C294 1.160 . S
O297 Cd298 2.203 . S
Cd298 O297 2.203 . S
Cd298 O300 2.411 . S
Cd298 O301 2.333 . S
Cd298 O302 2.352 . S
Cd298 O306 2.277 . S
Cd298 O307 2.356 . S
C299 O304 1.209 . S
C299 O306 1.226 . S
O300 Cd296 2.273 . S
O300 Cd298 2.411 . S
O300 C303 1.320 . S
O301 Cd298 2.333 . S
O301 C303 1.214 . S
O302 Cd298 2.352 . S
O302 C305 1.258 . S
C303 O300 1.320 . S
C303 O301 1.214 . S
O304 Cd296 2.277 . S
O304 C299 1.209 . S
C305 O302 1.258 . S
C305 O307 1.282 . S
O306 Cd298 2.277 . S
O306 C299 1.226 . S
O307 Cd298 2.356 . S
O307 C305 1.282 . S
C308 O309 1.306 . S
C308 O311 1.160 . S
O309 C308 1.306 . S
O309 Cd310 2.228 . S
Cd310 O309 2.228 . S
Cd310 O314 2.273 . S
Cd310 O318 2.277 . S
O311 C308 1.160 . S
O311 Cd312 2.203 . S
Cd312 O311 2.203 . S
Cd312 O314 2.411 . S
Cd312 O315 2.333 . S
Cd312 O316 2.352 . S
Cd312 O320 2.277 . S
Cd312 O321 2.356 . S
C313 O318 1.209 . S
C313 O320 1.226 . S
O314 Cd310 2.273 . S
O314 Cd312 2.411 . S
O314 C317 1.320 . S
O315 Cd312 2.333 . S
O315 C317 1.214 . S
O316 Cd312 2.352 . S
O316 C319 1.258 . S
C317 O314 1.320 . S
C317 O315 1.214 . S
O318 Cd310 2.277 . S
O318 C313 1.209 . S
C319 O316 1.258 . S
C319 O321 1.282 . S
O320 Cd312 2.277 . S
O320 C313 1.226 . S
O321 Cd312 2.356 . S
O321 C319 1.282 . S
C322 O323 1.306 . S
C322 O325 1.160 . S
O323 C322 1.306 . S
O323 Cd324 2.228 . S
Cd324 O323 2.228 . S
Cd324 O328 2.273 . S
Cd324 O332 2.277 . S
O325 C322 1.160 . S
O325 Cd326 2.203 . S
Cd326 O325 2.203 . S
Cd326 O328 2.411 . S
Cd326 O329 2.333 . S
Cd326 O330 2.352 . S
Cd326 O334 2.277 . S
Cd326 O335 2.356 . S
C327 O332 1.209 . S
C327 O334 1.226 . S
O328 Cd324 2.273 . S
O328 Cd326 2.411 . S
O328 C331 1.320 . S
O329 Cd326 2.333 . S
O329 C331 1.214 . S
O330 Cd326 2.352 . S
O330 C333 1.258 . S
C331 O328 1.320 . S
C331 O329 1.214 . S
O332 Cd324 2.277 . S
O332 C327 1.209 . S
C333 O330 1.258 . S
C333 O335 1.282 . S
O334 Cd326 2.277 . S
O334 C327 1.226 . S
O335 Cd326 2.356 . S
O335 C333 1.282 . S
C336 C337 1.387 . S
C336 H340 0.950 . S
C336 C345 1.390 . S
C337 C336 1.387 . S
C337 C339 1.387 . S
H338 C345 0.950 . S
C339 C337 1.387 . S
C339 C341 1.390 . S
C339 H343 0.950 . S
H340 C336 0.950 . S
C341 C339 1.390 . S
C341 C342 1.387 . S
C341 H344 0.950 . S
C342 C341 1.387 . S
C342 C345 1.387 . S
H343 C339 0.950 . S
H344 C341 0.950 . S
C345 C336 1.390 . S
C345 H338 0.950 . S
C345 C342 1.387 . S
C346 C347 1.387 . S
C346 H350 0.950 . S
C346 C355 1.390 . S
C347 C346 1.387 . S
C347 C349 1.387 . S
H348 C355 0.950 . S
C349 C347 1.387 . S
C349 C351 1.390 . S
C349 H353 0.950 . S
H350 C346 0.950 . S
C351 C349 1.390 . S
C351 C352 1.387 . S
C351 H354 0.950 . S
C352 C351 1.387 . S
C352 C355 1.387 . S
H353 C349 0.950 . S
H354 C351 0.950 . S
C355 C346 1.390 . S
C355 H348 0.950 . S
C355 C352 1.387 . S
C356 C357 1.387 . S
C356 H360 0.950 . S
C356 C365 1.390 . S
C357 C356 1.387 . S
C357 C359 1.387 . S
H358 C365 0.950 . S
C359 C357 1.387 . S
C359 C361 1.390 . S
C359 H363 0.950 . S
H360 C356 0.950 . S
C361 C359 1.390 . S
C361 C362 1.387 . S
C361 H364 0.950 . S
C362 C361 1.387 . S
C362 C365 1.387 . S
H363 C359 0.950 . S
H364 C361 0.950 . S
C365 C356 1.390 . S
C365 H358 0.950 . S
C365 C362 1.387 . S
C366 C367 1.387 . S
C366 H370 0.950 . S
C366 C375 1.390 . S
C367 C366 1.387 . S
C367 C369 1.387 . S
H368 C375 0.950 . S
C369 C367 1.387 . S
C369 C371 1.390 . S
C369 H373 0.950 . S
H370 C366 0.950 . S
C371 C369 1.390 . S
C371 C372 1.387 . S
C371 H374 0.950 . S
C372 C371 1.387 . S
C372 C375 1.387 . S
H373 C369 0.950 . S
H374 C371 0.950 . S
C375 C366 1.390 . S
C375 H368 0.950 . S
C375 C372 1.387 . S
C376 C377 1.387 . S
C376 H380 0.950 . S
C376 C385 1.390 . S
C377 C376 1.387 . S
C377 C379 1.387 . S
H378 C385 0.950 . S
C379 C377 1.387 . S
C379 C381 1.390 . S
C379 H383 0.950 . S
H380 C376 0.950 . S
C381 C379 1.390 . S
C381 C382 1.387 . S
C381 H384 0.950 . S
C382 C381 1.387 . S
C382 C385 1.387 . S
H383 C379 0.950 . S
H384 C381 0.950 . S
C385 C376 1.390 . S
C385 H378 0.950 . S
C385 C382 1.387 . S
C386 C387 1.387 . S
C386 H390 0.950 . S
C386 C395 1.390 . S
C387 C386 1.387 . S
C387 C389 1.387 . S
H388 C395 0.950 . S
C389 C387 1.387 . S
C389 C391 1.390 . S
C389 H393 0.950 . S
H390 C386 0.950 . S
C391 C389 1.390 . S
C391 C392 1.387 . S
C391 H394 0.950 . S
C392 C391 1.387 . S
C392 C395 1.387 . S
H393 C389 0.950 . S
H394 C391 0.950 . S
C395 C386 1.390 . S
C395 H388 0.950 . S
C395 C392 1.387 . S
C396 C397 1.387 . S
C396 H400 0.950 . S
C396 C405 1.390 . S
C397 C396 1.387 . S
C397 C399 1.387 . S
H398 C405 0.950 . S
C399 C397 1.387 . S
C399 C401 1.390 . S
C399 H403 0.950 . S
H400 C396 0.950 . S
C401 C399 1.390 . S
C401 C402 1.387 . S
C401 H404 0.950 . S
C402 C401 1.387 . S
C402 C405 1.387 . S
H403 C399 0.950 . S
H404 C401 0.950 . S
C405 C396 1.390 . S
C405 H398 0.950 . S
C405 C402 1.387 . S
C406 C407 1.387 . S
C406 H410 0.950 . S
C406 C415 1.390 . S
C407 C406 1.387 . S
C407 C409 1.387 . S
H408 C415 0.950 . S
C409 C407 1.387 . S
C409 C411 1.390 . S
C409 H413 0.950 . S
H410 C406 0.950 . S
C411 C409 1.390 . S
C411 C412 1.387 . S
C411 H414 0.950 . S
C412 C411 1.387 . S
C412 C415 1.387 . S
H413 C409 0.950 . S
H414 C411 0.950 . S
C415 C406 1.390 . S
C415 H408 0.950 . S
C415 C412 1.387 . S
C416 C417 1.387 . S
C416 H420 0.950 . S
C416 C425 1.390 . S
C417 C416 1.387 . S
C417 C419 1.387 . S
H418 C425 0.950 . S
C419 C417 1.387 . S
C419 C421 1.390 . S
C419 H423 0.950 . S
H420 C416 0.950 . S
C421 C419 1.390 . S
C421 C422 1.387 . S
C421 H424 0.950 . S
C422 C421 1.387 . S
C422 C425 1.387 . S
H423 C419 0.950 . S
H424 C421 0.950 . S
C425 C416 1.390 . S
C425 H418 0.950 . S
C425 C422 1.387 . S
C426 C427 1.387 . S
C426 H430 0.950 . S
C426 C435 1.390 . S
C427 C426 1.387 . S
C427 C429 1.387 . S
H428 C435 0.950 . S
C429 C427 1.387 . S
C429 C431 1.390 . S
C429 H433 0.950 . S
H430 C426 0.950 . S
C431 C429 1.390 . S
C431 C432 1.387 . S
C431 H434 0.950 . S
C432 C431 1.387 . S
C432 C435 1.387 . S
H433 C429 0.950 . S
H434 C431 0.950 . S
C435 C426 1.390 . S
C435 H428 0.950 . S
C435 C432 1.387 . S
C436 C437 1.387 . S
C436 H440 0.950 . S
C436 C445 1.390 . S
C437 C436 1.387 . S
C437 C439 1.387 . S
H438 C445 0.950 . S
C439 C437 1.387 . S
C439 C441 1.390 . S
C439 H443 0.950 . S
H440 C436 0.950 . S
C441 C439 1.390 . S
C441 C442 1.387 . S
C441 H444 0.950 . S
C442 C441 1.387 . S
C442 C445 1.387 . S
H443 C439 0.950 . S
H444 C441 0.950 . S
C445 C436 1.390 . S
C445 H438 0.950 . S
C445 C442 1.387 . S
C446 C447 1.387 . S
C446 H450 0.950 . S
C446 C455 1.390 . S
C447 C446 1.387 . S
C447 C449 1.387 . S
H448 C455 0.950 . S
C449 C447 1.387 . S
C449 C451 1.390 . S
C449 H453 0.950 . S
H450 C446 0.950 . S
C451 C449 1.390 . S
C451 C452 1.387 . S
C451 H454 0.950 . S
C452 C451 1.387 . S
C452 C455 1.387 . S
H453 C449 0.950 . S
H454 C451 0.950 . S
C455 C446 1.390 . S
C455 H448 0.950 . S
C455 C452 1.387 . S
C456 C457 1.387 . S
C456 H460 0.950 . S
C456 C465 1.390 . S
C457 C456 1.387 . S
C457 C459 1.387 . S
H458 C465 0.950 . S
C459 C457 1.387 . S
C459 C461 1.390 . S
C459 H463 0.950 . S
H460 C456 0.950 . S
C461 C459 1.390 . S
C461 C462 1.387 . S
C461 H464 0.950 . S
C462 C461 1.387 . S
C462 C465 1.387 . S
H463 C459 0.950 . S
H464 C461 0.950 . S
C465 C456 1.390 . S
C465 H458 0.950 . S
C465 C462 1.387 . S
C466 C467 1.387 . S
C466 H470 0.950 . S
C466 C475 1.390 . S
C467 C466 1.387 . S
C467 C469 1.387 . S
H468 C475 0.950 . S
C469 C467 1.387 . S
C469 C471 1.390 . S
C469 H473 0.950 . S
H470 C466 0.950 . S
C471 C469 1.390 . S
C471 C472 1.387 . S
C471 H474 0.950 . S
C472 C471 1.387 . S
C472 C475 1.387 . S
H473 C469 0.950 . S
H474 C471 0.950 . S
C475 C466 1.390 . S
C475 H468 0.950 . S
C475 C472 1.387 . S
C476 C477 1.387 . S
C476 H480 0.950 . S
C476 C485 1.390 . S
C477 C476 1.387 . S
C477 C479 1.387 . S
H478 C485 0.950 . S
C479 C477 1.387 . S
C479 C481 1.390 . S
C479 H483 0.950 . S
H480 C476 0.950 . S
C481 C479 1.390 . S
C481 C482 1.387 . S
C481 H484 0.950 . S
C482 C481 1.387 . S
C482 C485 1.387 . S
H483 C479 0.950 . S
H484 C481 0.950 . S
C485 C476 1.390 . S
C485 H478 0.950 . S
C485 C482 1.387 . S
C486 C487 1.387 . S
C486 H490 0.950 . S
C486 C495 1.390 . S
C487 C486 1.387 . S
C487 C489 1.387 . S
H488 C495 0.950 . S
C489 C487 1.387 . S
C489 C491 1.390 . S
C489 H493 0.950 . S
H490 C486 0.950 . S
C491 C489 1.390 . S
C491 C492 1.387 . S
C491 H494 0.950 . S
C492 C491 1.387 . S
C492 C495 1.387 . S
H493 C489 0.950 . S
H494 C491 0.950 . S
C495 C486 1.390 . S
C495 H488 0.950 . S
C495 C492 1.387 . S
C496 C497 1.387 . S
C496 H500 0.950 . S
C496 C505 1.390 . S
C497 C496 1.387 . S
C497 C499 1.387 . S
H498 C505 0.950 . S
C499 C497 1.387 . S
C499 C501 1.390 . S
C499 H503 0.950 . S
H500 C496 0.950 . S
C501 C499 1.390 . S
C501 C502 1.387 . S
C501 H504 0.950 . S
C502 C501 1.387 . S
C502 C505 1.387 . S
H503 C499 0.950 . S
H504 C501 0.950 . S
C505 C496 1.390 . S
C505 H498 0.950 . S
C505 C502 1.387 . S
C506 C507 1.387 . S
C506 H510 0.950 . S
C506 C515 1.390 . S
C507 C506 1.387 . S
C507 C509 1.387 . S
H508 C515 0.950 . S
C509 C507 1.387 . S
C509 C511 1.390 . S
C509 H513 0.950 . S
H510 C506 0.950 . S
C511 C509 1.390 . S
C511 C512 1.387 . S
C511 H514 0.950 . S
C512 C511 1.387 . S
C512 C515 1.387 . S
H513 C509 0.950 . S
H514 C511 0.950 . S
C515 C506 1.390 . S
C515 H508 0.950 . S
C515 C512 1.387 . S
C516 C517 1.387 . S
C516 H520 0.950 . S
C516 C525 1.390 . S
C517 C516 1.387 . S
C517 C519 1.387 . S
H518 C525 0.950 . S
C519 C517 1.387 . S
C519 C521 1.390 . S
C519 H523 0.950 . S
H520 C516 0.950 . S
C521 C519 1.390 . S
C521 C522 1.387 . S
C521 H524 0.950 . S
C522 C521 1.387 . S
C522 C525 1.387 . S
H523 C519 0.950 . S
H524 C521 0.950 . S
C525 C516 1.390 . S
C525 H518 0.950 . S
C525 C522 1.387 . S
C526 C527 1.387 . S
C526 H530 0.950 . S
C526 C535 1.390 . S
C527 C526 1.387 . S
C527 C529 1.387 . S
H528 C535 0.950 . S
C529 C527 1.387 . S
C529 C531 1.390 . S
C529 H533 0.950 . S
H530 C526 0.950 . S
C531 C529 1.390 . S
C531 C532 1.387 . S
C531 H534 0.950 . S
C532 C531 1.387 . S
C532 C535 1.387 . S
H533 C529 0.950 . S
H534 C531 0.950 . S
C535 C526 1.390 . S
C535 H528 0.950 . S
C535 C532 1.387 . S
C536 C537 1.387 . S
C536 H540 0.950 . S
C536 C545 1.390 . S
C537 C536 1.387 . S
C537 C539 1.387 . S
H538 C545 0.950 . S
C539 C537 1.387 . S
C539 C541 1.390 . S
C539 H543 0.950 . S
H540 C536 0.950 . S
C541 C539 1.390 . S
C541 C542 1.387 . S
C541 H544 0.950 . S
C542 C541 1.387 . S
C542 C545 1.387 . S
H543 C539 0.950 . S
H544 C541 0.950 . S
C545 C536 1.390 . S
C545 H538 0.950 . S
C545 C542 1.387 . S
C546 C547 1.387 . S
C546 H550 0.950 . S
C546 C555 1.390 . S
C547 C546 1.387 . S
C547 C549 1.387 . S
H548 C555 0.950 . S
C549 C547 1.387 . S
C549 C551 1.390 . S
C549 H553 0.950 . S
H550 C546 0.950 . S
C551 C549 1.390 . S
C551 C552 1.387 . S
C551 H554 0.950 . S
C552 C551 1.387 . S
C552 C555 1.387 . S
H553 C549 0.950 . S
H554 C551 0.950 . S
C555 C546 1.390 . S
C555 H548 0.950 . S
C555 C552 1.387 . S
C556 C557 1.387 . S
C556 H560 0.950 . S
C556 C565 1.390 . S
C557 C556 1.387 . S
C557 C559 1.387 . S
H558 C565 0.950 . S
C559 C557 1.387 . S
C559 C561 1.390 . S
C559 H563 0.950 . S
H560 C556 0.950 . S
C561 C559 1.390 . S
C561 C562 1.387 . S
C561 H564 0.950 . S
C562 C561 1.387 . S
C562 C565 1.387 . S
H563 C559 0.950 . S
H564 C561 0.950 . S
C565 C556 1.390 . S
C565 H558 0.950 . S
C565 C562 1.387 . S
C566 C567 1.387 . S
C566 H570 0.950 . S
C566 C575 1.390 . S
C567 C566 1.387 . S
C567 C569 1.387 . S
H568 C575 0.950 . S
C569 C567 1.387 . S
C569 C571 1.390 . S
C569 H573 0.950 . S
H570 C566 0.950 . S
C571 C569 1.390 . S
C571 C572 1.387 . S
C571 H574 0.950 . S
C572 C571 1.387 . S
C572 C575 1.387 . S
H573 C569 0.950 . S
H574 C571 0.950 . S
C575 C566 1.390 . S
C575 H568 0.950 . S
C575 C572 1.387 . S
C576 C577 1.387 . S
C576 H580 0.950 . S
C576 C585 1.390 1_455 S
C577 C576 1.387 . S
C577 C579 1.387 . S
H578 C585 0.950 . S
C579 C577 1.387 . S
C579 C581 1.390 1_455 S
C579 H583 0.950 . S
H580 C576 0.950 . S
C581 C579 1.390 1_655 S
C581 C582 1.387 . S
C581 H584 0.950 . S
C582 C581 1.387 . S
C582 C585 1.387 . S
H583 C579 0.950 . S
H584 C581 0.950 . S
C585 C576 1.390 1_655 S
C585 H578 0.950 . S
C585 C582 1.387 . S
C586 C587 1.387 . S
C586 H590 0.950 . S
C586 C595 1.390 1_545 S
C587 C586 1.387 . S
C587 C589 1.387 . S
H588 C595 0.950 . S
C589 C587 1.387 . S
C589 C591 1.390 1_545 S
C589 H593 0.950 . S
H590 C586 0.950 . S
C591 C589 1.390 1_565 S
C591 C592 1.387 . S
C591 H594 0.950 . S
C592 C591 1.387 . S
C592 C595 1.387 . S
H593 C589 0.950 . S
H594 C591 0.950 . S
C595 C586 1.390 1_565 S
C595 H588 0.950 . S
C595 C592 1.387 . S
C596 C597 1.387 . S
C596 H600 0.950 . S
C596 C605 1.390 1_655 S
C597 C596 1.387 . S
C597 C599 1.387 . S
H598 C605 0.950 . S
C599 C597 1.387 . S
C599 C601 1.390 1_655 S
C599 H603 0.950 . S
H600 C596 0.950 . S
C601 C599 1.390 1_455 S
C601 C602 1.387 . S
C601 H604 0.950 . S
C602 C601 1.387 . S
C602 C605 1.387 . S
H603 C599 0.950 . S
H604 C601 0.950 . S
C605 C596 1.390 1_455 S
C605 H598 0.950 . S
C605 C602 1.387 . S
C606 C607 1.387 . S
C606 H610 0.950 . S
C606 C615 1.390 1_545 S
C607 C606 1.387 . S
C607 C609 1.387 . S
H608 C615 0.950 . S
C609 C607 1.387 . S
C609 C611 1.390 1_545 S
C609 H613 0.950 . S
H610 C606 0.950 . S
C611 C609 1.390 1_565 S
C611 C612 1.387 . S
C611 H614 0.950 . S
C612 C611 1.387 . S
C612 C615 1.387 . S
H613 C609 0.950 . S
H614 C611 0.950 . S
C615 C606 1.390 1_565 S
C615 H608 0.950 . S
C615 C612 1.387 . S
C616 C617 1.387 . S
C616 H620 0.950 . S
C616 C625 1.390 1_565 S
C617 C616 1.387 . S
C617 C619 1.387 . S
H618 C625 0.950 . S
C619 C617 1.387 . S
C619 C621 1.390 1_565 S
C619 H623 0.950 . S
H620 C616 0.950 . S
C621 C619 1.390 1_545 S
C621 C622 1.387 . S
C621 H624 0.950 . S
C622 C621 1.387 . S
C622 C625 1.387 . S
H623 C619 0.950 . S
H624 C621 0.950 . S
C625 C616 1.390 1_545 S
C625 H618 0.950 . S
C625 C622 1.387 . S
C626 C627 1.387 . S
C626 H630 0.950 . S
C626 C635 1.390 1_655 S
C627 C626 1.387 . S
C627 C629 1.387 . S
H628 C635 0.950 . S
C629 C627 1.387 . S
C629 C631 1.390 1_655 S
C629 H633 0.950 . S
H630 C626 0.950 . S
C631 C629 1.390 1_455 S
C631 C632 1.387 . S
C631 H634 0.950 . S
C632 C631 1.387 . S
C632 C635 1.387 . S
H633 C629 0.950 . S
H634 C631 0.950 . S
C635 C626 1.390 1_455 S
C635 H628 0.950 . S
C635 C632 1.387 . S
C636 C637 1.387 . S
C636 H640 0.950 . S
C636 C645 1.390 1_565 S
C637 C636 1.387 . S
C637 C639 1.387 . S
H638 C645 0.950 . S
C639 C637 1.387 . S
C639 C641 1.390 1_565 S
C639 H643 0.950 . S
H640 C636 0.950 . S
C641 C639 1.390 1_545 S
C641 C642 1.387 . S
C641 H644 0.950 . S
C642 C641 1.387 . S
C642 C645 1.387 . S
H643 C639 0.950 . S
H644 C641 0.950 . S
C645 C636 1.390 1_545 S
C645 H638 0.950 . S
C645 C642 1.387 . S
C646 C647 1.387 . S
C646 H650 0.950 . S
C646 C655 1.390 1_655 S
C647 C646 1.387 . S
C647 C649 1.387 . S
H648 C655 0.950 . S
C649 C647 1.387 . S
C649 C651 1.390 1_655 S
C649 H653 0.950 . S
H650 C646 0.950 . S
C651 C649 1.390 1_455 S
C651 C652 1.387 . S
C651 H654 0.950 . S
C652 C651 1.387 . S
C652 C655 1.387 . S
H653 C649 0.950 . S
H654 C651 0.950 . S
C655 C646 1.390 1_455 S
C655 H648 0.950 . S
C655 C652 1.387 . S
C656 C657 1.387 . S
C656 H660 0.950 . S
C656 C665 1.390 1_556 S
C657 C656 1.387 . S
C657 C659 1.387 . S
H658 C665 0.950 . S
C659 C657 1.387 . S
C659 C661 1.390 1_556 S
C659 H663 0.950 . S
H660 C656 0.950 . S
C661 C659 1.390 1_554 S
C661 C662 1.387 . S
C661 H664 0.950 . S
C662 C661 1.387 . S
C662 C665 1.387 . S
H663 C659 0.950 . S
H664 C661 0.950 . S
C665 C656 1.390 1_554 S
C665 H658 0.950 . S
C665 C662 1.387 . S
C666 C667 1.387 . S
C666 H670 0.950 . S
C666 C675 1.390 1_556 S
C667 C666 1.387 . S
C667 C669 1.387 . S
H668 C675 0.950 . S
C669 C667 1.387 . S
C669 C671 1.390 1_556 S
C669 H673 0.950 . S
H670 C666 0.950 . S
C671 C669 1.390 1_554 S
C671 C672 1.387 . S
C671 H674 0.950 . S
C672 C671 1.387 . S
C672 C675 1.387 . S
H673 C669 0.950 . S
H674 C671 0.950 . S
C675 C666 1.390 1_554 S
C675 H668 0.950 . S
C675 C672 1.387 . S
C676 C677 1.387 . S
C676 H680 0.950 . S
C676 C685 1.390 1_556 S
C677 C676 1.387 . S
C677 C679 1.387 . S
H678 C685 0.950 . S
C679 C677 1.387 . S
C679 C681 1.390 1_556 S
C679 H683 0.950 . S
H680 C676 0.950 . S
C681 C679 1.390 1_554 S
C681 C682 1.387 . S
C681 H684 0.950 . S
C682 C681 1.387 . S
C682 C685 1.387 . S
H683 C679 0.950 . S
H684 C681 0.950 . S
C685 C676 1.390 1_554 S
C685 H678 0.950 . S
C685 C682 1.387 . S
C686 C687 1.387 . S
C686 H690 0.950 . S
C686 C695 1.390 1_556 S
C687 C686 1.387 . S
C687 C689 1.387 . S
H688 C695 0.950 . S
C689 C687 1.387 . S
C689 C691 1.390 1_556 S
C689 H693 0.950 . S
H690 C686 0.950 . S
C691 C689 1.390 1_554 S
C691 C692 1.387 . S
C691 H694 0.950 . S
C692 C691 1.387 . S
C692 C695 1.387 . S
H693 C689 0.950 . S
H694 C691 0.950 . S
C695 C686 1.390 1_554 S
C695 H688 0.950 . S
C695 C692 1.387 . S
C696 C697 1.387 . S
C696 H700 0.950 . S
C696 C705 1.390 . S
C697 C696 1.387 . S
C697 C699 1.387 . S
H698 C705 0.950 . S
C699 C697 1.387 . S
C699 C701 1.390 . S
C699 H703 0.950 . S
H700 C696 0.950 . S
C701 C699 1.390 . S
C701 C702 1.387 . S
C701 H704 0.950 . S
C702 C701 1.387 . S
C702 C705 1.387 . S
H703 C699 0.950 . S
H704 C701 0.950 . S
C705 C696 1.390 . S
C705 H698 0.950 . S
C705 C702 1.387 . S
C706 C707 1.387 . S
C706 H710 0.950 . S
C706 C715 1.390 . S
C707 C706 1.387 . S
C707 C709 1.387 . S
H708 C715 0.950 . S
C709 C707 1.387 . S
C709 C711 1.390 . S
C709 H713 0.950 . S
H710 C706 0.950 . S
C711 C709 1.390 . S
C711 C712 1.387 . S
C711 H714 0.950 . S
C712 C711 1.387 . S
C712 C715 1.387 . S
H713 C709 0.950 . S
H714 C711 0.950 . S
C715 C706 1.390 . S
C715 H708 0.950 . S
C715 C712 1.387 . S
C716 C717 1.387 . S
C716 H720 0.950 . S
C716 C725 1.390 . S
C717 C716 1.387 . S
C717 C719 1.387 . S
H718 C725 0.950 . S
C719 C717 1.387 . S
C719 C721 1.390 . S
C719 H723 0.950 . S
H720 C716 0.950 . S
C721 C719 1.390 . S
C721 C722 1.387 . S
C721 H724 0.950 . S
C722 C721 1.387 . S
C722 C725 1.387 . S
H723 C719 0.950 . S
H724 C721 0.950 . S
C725 C716 1.390 . S
C725 H718 0.950 . S
C725 C722 1.387 . S
C726 C727 1.387 . S
C726 H730 0.950 . S
C726 C735 1.390 . S
C727 C726 1.387 . S
C727 C729 1.387 . S
H728 C735 0.950 . S
C729 C727 1.387 . S
C729 C731 1.390 . S
C729 H733 0.950 . S
H730 C726 0.950 . S
C731 C729 1.390 . S
C731 C732 1.387 . S
C731 H734 0.950 . S
C732 C731 1.387 . S
C732 C735 1.387 . S
H733 C729 0.950 . S
H734 C731 0.950 . S
C735 C726 1.390 . S
C735 H728 0.950 . S
C735 C732 1.387 . S
C736 C737 1.387 . S
C736 H740 0.950 . S
C736 C745 1.390 . S
C737 C736 1.387 . S
C737 C739 1.387 . S
H738 C745 0.950 . S
C739 C737 1.387 . S
C739 C741 1.390 . S
C739 H743 0.950 . S
H740 C736 0.950 . S
C741 C739 1.390 . S
C741 C742 1.387 . S
C741 H744 0.950 . S
C742 C741 1.387 . S
C742 C745 1.387 . S
H743 C739 0.950 . S
H744 C741 0.950 . S
C745 C736 1.390 . S
C745 H738 0.950 . S
C745 C742 1.387 . S
C746 C747 1.387 . S
C746 H750 0.950 . S
C746 C755 1.390 . S
C747 C746 1.387 . S
C747 C749 1.387 . S
H748 C755 0.950 . S
C749 C747 1.387 . S
C749 C751 1.390 . S
C749 H753 0.950 . S
H750 C746 0.950 . S
C751 C749 1.390 . S
C751 C752 1.387 . S
C751 H754 0.950 . S
C752 C751 1.387 . S
C752 C755 1.387 . S
H753 C749 0.950 . S
H754 C751 0.950 . S
C755 C746 1.390 . S
C755 H748 0.950 . S
C755 C752 1.387 . S
C756 C757 1.387 . S
C756 H760 0.950 . S
C756 C765 1.390 . S
C757 C756 1.387 . S
C757 C759 1.387 . S
H758 C765 0.950 . S
C759 C757 1.387 . S
C759 C761 1.390 . S
C759 H763 0.950 . S
H760 C756 0.950 . S
C761 C759 1.390 . S
C761 C762 1.387 . S
C761 H764 0.950 . S
C762 C761 1.387 . S
C762 C765 1.387 . S
H763 C759 0.950 . S
H764 C761 0.950 . S
C765 C756 1.390 . S
C765 H758 0.950 . S
C765 C762 1.387 . S
C766 C767 1.387 . S
C766 H770 0.950 . S
C766 C775 1.390 . S
C767 C766 1.387 . S
C767 C769 1.387 . S
H768 C775 0.950 . S
C769 C767 1.387 . S
C769 C771 1.390 . S
C769 H773 0.950 . S
H770 C766 0.950 . S
C771 C769 1.390 . S
C771 C772 1.387 . S
C771 H774 0.950 . S
C772 C771 1.387 . S
C772 C775 1.387 . S
H773 C769 0.950 . S
H774 C771 0.950 . S
C775 C766 1.390 . S
C775 H768 0.950 . S
C775 C772 1.387 . S
C776 C777 1.387 . S
C776 H780 0.950 . S
C776 C785 1.390 . S
C777 C776 1.387 . S
C777 C779 1.387 . S
H778 C785 0.950 . S
C779 C777 1.387 . S
C779 C781 1.390 . S
C779 H783 0.950 . S
H780 C776 0.950 . S
C781 C779 1.390 . S
C781 C782 1.387 . S
C781 H784 0.950 . S
C782 C781 1.387 . S
C782 C785 1.387 . S
H783 C779 0.950 . S
H784 C781 0.950 . S
C785 C776 1.390 . S
C785 H778 0.950 . S
C785 C782 1.387 . S
C786 C787 1.387 . S
C786 H790 0.950 . S
C786 C795 1.390 . S
C787 C786 1.387 . S
C787 C789 1.387 . S
H788 C795 0.950 . S
C789 C787 1.387 . S
C789 C791 1.390 . S
C789 H793 0.950 . S
H790 C786 0.950 . S
C791 C789 1.390 . S
C791 C792 1.387 . S
C791 H794 0.950 . S
C792 C791 1.387 . S
C792 C795 1.387 . S
H793 C789 0.950 . S
H794 C791 0.950 . S
C795 C786 1.390 . S
C795 H788 0.950 . S
C795 C792 1.387 . S
C796 C797 1.387 . S
C796 H800 0.950 . S
C796 C805 1.390 . S
C797 C796 1.387 . S
C797 C799 1.387 . S
H798 C805 0.950 . S
C799 C797 1.387 . S
C799 C801 1.390 . S
C799 H803 0.950 . S
H800 C796 0.950 . S
C801 C799 1.390 . S
C801 C802 1.387 . S
C801 H804 0.950 . S
C802 C801 1.387 . S
C802 C805 1.387 . S
H803 C799 0.950 . S
H804 C801 0.950 . S
C805 C796 1.390 . S
C805 H798 0.950 . S
C805 C802 1.387 . S
C806 C807 1.387 . S
C806 H810 0.950 . S
C806 C815 1.390 . S
C807 C806 1.387 . S
C807 C809 1.387 . S
H808 C815 0.950 . S
C809 C807 1.387 . S
C809 C811 1.390 . S
C809 H813 0.950 . S
H810 C806 0.950 . S
C811 C809 1.390 . S
C811 C812 1.387 . S
C811 H814 0.950 . S
C812 C811 1.387 . S
C812 C815 1.387 . S
H813 C809 0.950 . S
H814 C811 0.950 . S
C815 C806 1.390 . S
C815 H808 0.950 . S
C815 C812 1.387 . S
C337 C163 1.515 . S
C342 C0 1.471 . S
C347 C14 1.471 . S
C352 C121 1.515 . S
C357 C28 1.468 . S
C362 C135 1.516 . S
C367 C42 1.468 . S
C372 C149 1.516 . S
C377 C191 1.515 . S
C382 C56 1.471 . S
C387 C70 1.468 . S
C392 C205 1.516 . S
C397 C219 1.516 . S
C402 C84 1.468 . S
C407 C177 1.515 . S
C412 C98 1.471 . S
C417 C79 1.516 . S
C422 C112 1.468 . S
C427 C93 1.516 . S
C432 C126 1.468 . S
C437 C140 1.471 . S
C442 C107 1.515 . S
C447 C65 1.515 . S
C452 C154 1.470 . S
C457 C51 1.515 . S
C462 C168 1.471 . S
C467 C182 1.468 . S
C472 C9 1.516 . S
C477 C196 1.471 . S
C482 C23 1.515 . S
C487 C210 1.468 . S
C492 C37 1.516 . S
C497 C224 1.468 . S
C502 C331 1.516 . S
C507 C289 1.515 . S
C512 C238 1.471 . S
C517 C252 1.471 . S
C522 C247 1.515 . S
C527 C266 1.471 . S
C532 C261 1.515 . S
C537 C275 1.515 . S
C542 C280 1.471 . S
C547 C294 1.468 . S
C552 C317 1.516 . S
C557 C233 1.516 . S
C562 C308 1.468 . S
C567 C303 1.515 . S
C572 C322 1.471 . S
C577 C5 1.520 . S
C582 C89 1.520 . S
C587 C19 1.520 . S
C592 C103 1.520 . S
C597 C33 1.520 . S
C602 C61 1.520 . S
C607 C75 1.520 . S
C612 C47 1.520 . S
C617 C145 1.520 . S
C622 C117 1.520 . S
C627 C131 1.520 . S
C632 C159 1.520 . S
C637 C173 1.520 . S
C642 C201 1.520 . S
C647 C215 1.520 . S
C652 C187 1.520 . S
C657 C243 1.520 . S
C662 C229 1.520 . S
C667 C257 1.520 . S
C672 C327 1.520 . S
C677 C271 1.520 . S
C682 C299 1.520 . S
C687 C285 1.520 . S
C692 C313 1.520 . S
C697 C11 1.169 . S
C702 C81 1.168 . S
C707 C25 1.168 . S
C712 C95 1.169 . S
C717 C39 1.169 . S
C722 C109 1.168 . S
C727 C67 1.169 . S
C732 C53 1.168 . S
C737 C123 1.168 . S
C742 C333 1.169 . S
C747 C137 1.169 . S
C752 C305 1.168 . S
C757 C319 1.169 . S
C762 C151 1.168 . S
C767 C165 1.169 . S
C772 C235 1.168 . S
C777 C291 1.168 . S
C782 C179 1.169 . S
C787 C249 1.168 . S
C792 C193 1.169 . S
C797 C207 1.168 . S
C802 C263 1.169 . S
C807 C277 1.169 . S
C812 C221 1.168 . S
