# Generated by pormake.
# Topology vbn, (6)-cn, num edge types: 1
# Building blocks:
#     Node 0, Type 0, BuildingBlock: VOLQOD_clean_sbu_1, # of connection points: 6
#     Node 1, Type 0, BuildingBlock: VOLQOD_clean_sbu_1, # of connection points: 6
#     Node 2, Type 0, BuildingBlock: VOLQOD_clean_sbu_1, # of connection points: 6
#     Node 3, Type 0, BuildingBlock: VOLQOD_clean_sbu_1, # of connection points: 6
#     Node 4, Type 0, BuildingBlock: VOLQOD_clean_sbu_1, # of connection points: 6
#     Node 5, Type 0, BuildingBlock: VOLQOD_clean_sbu_1, # of connection points: 6
#     Node 6, Type 0, BuildingBlock: VOLQOD_clean_sbu_1, # of connection points: 6
#     Node 7, Type 0, BuildingBlock: VOLQOD_clean_sbu_1, # of connection points: 6
#     Edge 8, Type (0, 0), BuildingBlock: EZIPEK_clean_linker_0, # of connection points: 2
#     Edge 9, Type (0, 0), BuildingBlock: EZIPEK_clean_linker_0, # of connection points: 2
#     Edge 10, Type (0, 0), BuildingBlock: EZIPEK_clean_linker_0, # of connection points: 2
#     Edge 11, Type (0, 0), BuildingBlock: EZIPEK_clean_linker_0, # of connection points: 2
#     Edge 12, Type (0, 0), BuildingBlock: EZIPEK_clean_linker_0, # of connection points: 2
#     Edge 13, Type (0, 0), BuildingBlock: EZIPEK_clean_linker_0, # of connection points: 2
#     Edge 14, Type (0, 0), BuildingBlock: EZIPEK_clean_linker_0, # of connection points: 2
#     Edge 15, Type (0, 0), BuildingBlock: EZIPEK_clean_linker_0, # of connection points: 2
#     Edge 16, Type (0, 0), BuildingBlock: EZIPEK_clean_linker_0, # of connection points: 2
#     Edge 17, Type (0, 0), BuildingBlock: EZIPEK_clean_linker_0, # of connection points: 2
#     Edge 18, Type (0, 0), BuildingBlock: EZIPEK_clean_linker_0, # of connection points: 2
#     Edge 19, Type (0, 0), BuildingBlock: EZIPEK_clean_linker_0, # of connection points: 2
#     Edge 20, Type (0, 0), BuildingBlock: EZIPEK_clean_linker_0, # of connection points: 2
#     Edge 21, Type (0, 0), BuildingBlock: EZIPEK_clean_linker_0, # of connection points: 2
#     Edge 22, Type (0, 0), BuildingBlock: EZIPEK_clean_linker_0, # of connection points: 2
#     Edge 23, Type (0, 0), BuildingBlock: EZIPEK_clean_linker_0, # of connection points: 2
#     Edge 24, Type (0, 0), BuildingBlock: EZIPEK_clean_linker_0, # of connection points: 2
#     Edge 25, Type (0, 0), BuildingBlock: EZIPEK_clean_linker_0, # of connection points: 2
#     Edge 26, Type (0, 0), BuildingBlock: EZIPEK_clean_linker_0, # of connection points: 2
#     Edge 27, Type (0, 0), BuildingBlock: EZIPEK_clean_linker_0, # of connection points: 2
#     Edge 28, Type (0, 0), BuildingBlock: EZIPEK_clean_linker_0, # of connection points: 2
#     Edge 29, Type (0, 0), BuildingBlock: EZIPEK_clean_linker_0, # of connection points: 2
#     Edge 30, Type (0, 0), BuildingBlock: EZIPEK_clean_linker_0, # of connection points: 2
#     Edge 31, Type (0, 0), BuildingBlock: EZIPEK_clean_linker_0, # of connection points: 2
# Relax obj value: 0.303
# Max RMSD: 0.245
# Mean RMSD: 0.245
data_MOF--net-vbn--node1-VOLQOD_clean_sbu_1--edge1-EZIPEK_clean_linker_0
_symmetry_space_group_name_H-M    P1
_symmetry_Int_Tables_number       1
_symmetry_cell_setting            triclinic
loop_
_symmetry_equiv_pos_as_xyz
'x, y, z'
_cell_length_a     20.853093
_cell_length_b     22.010707
_cell_length_c     37.917499
_cell_angle_alpha  90.029507
_cell_angle_beta   90.05541
_cell_angle_gamma 90.155959
loop_
_atom_site_label
_atom_site_type_symbol
_atom_site_fract_x
_atom_site_fract_y
_atom_site_fract_z
_atom_type_partial_charge
O0 O 0.4013 0.38604 0.45448 0.0
Zn1 Zn 0.37297 0.3025 0.4421 0.0
O2 O 0.35963 0.29842 0.39166 0.0
Zn3 Zn 0.27115 0.2797 0.37981 0.0
Zn4 Zn 0.38379 0.37434 0.37038 0.0
Zn5 Zn 0.41651 0.2382 0.37301 0.0
O6 O 0.26695 0.19133 0.36038 0.0
O7 O 0.36841 0.16064 0.36715 0.0
O8 O 0.29027 0.28684 0.46934 0.0
O9 O 0.22018 0.28026 0.42504 0.0
O10 O 0.22965 0.35047 0.35142 0.0
O11 O 0.30594 0.42007 0.3591 0.0
O12 O 0.42838 0.362 0.32426 0.0
O13 O 0.45135 0.25424 0.45716 0.0
O14 O 0.4458 0.26236 0.32483 0.0
O15 O 0.49301 0.22841 0.4052 0.0
C16 C 0.42898 0.42802 0.43719 0.0
C17 C 0.30974 0.1494 0.36024 0.0
C18 C 0.24936 0.40569 0.35008 0.0
C19 C 0.23281 0.28231 0.45791 0.0
C20 C 0.44789 0.31364 0.30946 0.0
C21 C 0.49791 0.23468 0.43853 0.0
O22 O 0.43232 0.42744 0.4037 0.0
O23 O 0.10277 0.13411 0.95667 0.0
Zn24 Zn 0.1175 0.21844 0.94063 0.0
O25 O 0.12395 0.21959 0.89018 0.0
Zn26 Zn 0.21075 0.23535 0.87548 0.0
Zn27 Zn 0.09482 0.14269 0.87328 0.0
Zn28 Zn 0.06636 0.27887 0.87182 0.0
O29 O 0.2155 0.32341 0.85602 0.0
O30 O 0.11501 0.35565 0.86459 0.0
O31 O 0.19999 0.24326 0.96482 0.0
O32 O 0.26626 0.23443 0.91902 0.0
O33 O 0.24563 0.16261 0.84655 0.0
O34 O 0.17075 0.09447 0.86091 0.0
O35 O 0.04517 0.15114 0.82841 0.0
O36 O 0.03519 0.25892 0.95609 0.0
O37 O 0.03382 0.25147 0.82482 0.0
O38 O 0.99224 0.2898 0.90536 0.0
C39 C 0.06594 0.09444 0.9432 0.0
C40 C 0.17348 0.36599 0.85681 0.0
C41 C 0.22555 0.10754 0.84844 0.0
C42 C 0.25643 0.24038 0.95199 0.0
C43 C 0.02754 0.19848 0.81186 0.0
C44 C 0.98798 0.27972 0.93838 0.0
O45 O 0.04838 0.09663 0.91105 0.0
O46 O 0.90019 0.12636 0.52087 0.0
Zn47 Zn 0.873 0.20958 0.53452 0.0
O48 O 0.86013 0.21194 0.58503 0.0
Zn49 Zn 0.77191 0.23007 0.59732 0.0
Zn50 Zn 0.8845 0.13536 0.60527 0.0
Zn51 Zn 0.91694 0.27189 0.60433 0.0
O52 O 0.76768 0.31828 0.61698 0.0
O53 O 0.86922 0.34933 0.61066 0.0
O54 O 0.79006 0.2264 0.50769 0.0
O55 O 0.72045 0.22983 0.55227 0.0
O56 O 0.73101 0.15882 0.62566 0.0
O57 O 0.80663 0.08935 0.61672 0.0
O58 O 0.93025 0.14616 0.65125 0.0
O59 O 0.95216 0.25782 0.52016 0.0
O60 O 0.94587 0.24617 0.65227 0.0
O61 O -0.00642 0.28264 0.57243 0.0
C62 C 0.92803 0.08389 0.53758 0.0
C63 C 0.81053 0.36035 0.61739 0.0
C64 C 0.75047 0.10358 0.6264 0.0
C65 C 0.73269 0.22947 0.51936 0.0
C66 C 0.94905 0.19421 0.66677 0.0
C67 C -0.00122 0.27683 0.5391 0.0
O68 O 0.93213 0.08347 0.57106 0.0
O69 O 0.59111 0.38509 0.01925 0.0
Zn70 Zn 0.6144 0.30119 0.03335 0.0
O71 O 0.62026 0.29734 0.08392 0.0
Zn72 Zn 0.70789 0.28481 0.09832 0.0
Zn73 Zn 0.58499 0.37099 0.10186 0.0
Zn74 Zn 0.56401 0.23699 0.10207 0.0
O75 O 0.71375 0.19896 0.12098 0.0
O76 O 0.61504 0.16298 0.11033 0.0
O77 O 0.69928 0.28529 0.00883 0.0
O78 O 0.7641 0.27981 0.05526 0.0
O79 O 0.74205 0.36445 0.12144 0.0
O80 O 0.65757 0.42406 0.11132 0.0
O81 O 0.5401 0.36099 0.14787 0.0
O82 O 0.53697 0.25333 0.01675 0.0
O83 O 0.53016 0.2607 0.14948 0.0
O84 O 0.49124 0.22605 0.06758 0.0
C85 C 0.54934 0.41928 0.03327 0.0
C86 C 0.67315 0.15486 0.11964 0.0
C87 C 0.71593 0.41719 0.11986 0.0
C88 C 0.75541 0.28111 0.02204 0.0
C89 C 0.52382 0.31258 0.16372 0.0
C90 C 0.48914 0.23308 0.03421 0.0
O91 O 0.5322 0.41324 0.0653 0.0
O92 O 0.58263 0.63784 0.51751 0.0
Zn93 Zn 0.61627 0.71705 0.53425 0.0
O94 O 0.6168 0.71554 0.58478 0.0
Zn95 Zn 0.70063 0.73217 0.60324 0.0
Zn96 Zn 0.58613 0.63931 0.60127 0.0
Zn97 Zn 0.55405 0.77161 0.60019 0.0
O98 O 0.69891 0.82063 0.62298 0.0
O99 O 0.59928 0.84996 0.60894 0.0
O100 O 0.7048 0.7265 0.51368 0.0
O101 O 0.76287 0.73371 0.56276 0.0
O102 O 0.73311 0.65648 0.63122 0.0
O103 O 0.66128 0.58938 0.61108 0.0
O104 O 0.54143 0.64752 0.6475 0.0
O105 O 0.55121 0.77719 0.51558 0.0
O106 O 0.51912 0.74609 0.64729 0.0
O107 O 0.48602 0.77607 0.56181 0.0
C108 C 0.54565 0.59858 0.53132 0.0
C109 C 0.65595 0.8622 0.61961 0.0
C110 C 0.71443 0.60149 0.62583 0.0
C111 C 0.75871 0.73051 0.52932 0.0
C112 C 0.51934 0.69461 0.66252 0.0
C113 C 0.49506 0.78136 0.52862 0.0
O114 O 0.53468 0.59677 0.56432 0.0
O115 O 0.91525 0.88505 0.02088 0.0
Zn116 Zn 0.87909 0.80476 0.0341 0.0
O117 O 0.87209 0.80379 0.08447 0.0
Zn118 Zn 0.78566 0.78883 0.09919 0.0
Zn119 Zn 0.9027 0.87747 0.10473 0.0
Zn120 Zn 0.93066 0.74366 0.09993 0.0
O121 O 0.78336 0.70174 0.11886 0.0
O122 O 0.88048 0.66636 0.10383 0.0
O123 O 0.79353 0.79599 0.00995 0.0
O124 O 0.72771 0.79011 0.05603 0.0
O125 O 0.75251 0.86081 0.12916 0.0
O126 O 0.82803 0.92847 0.11522 0.0
O127 O 0.94447 0.86264 0.1514 0.0
O128 O 0.9452 0.74474 0.01628 0.0
O129 O 0.96079 0.76302 0.14892 0.0
O130 O 0.00452 0.74229 0.06463 0.0
C131 C 0.95027 0.92328 0.0371 0.0
C132 C 0.82344 0.65799 0.11513 0.0
C133 C 0.77304 0.91571 0.12755 0.0
C134 C 0.7373 0.7926 0.02286 0.0
C135 C 0.96265 0.81323 0.16549 0.0
C136 C -0.00019 0.73986 0.03106 0.0
O137 O 0.9572 0.92288 0.07046 0.0
O138 O 0.08258 0.87458 0.4586 0.0
Zn139 Zn 0.11617 0.79463 0.443 0.0
O140 O 0.11671 0.79383 0.39247 0.0
Zn141 Zn 0.20059 0.77726 0.3743 0.0
Zn142 Zn 0.08563 0.86913 0.37506 0.0
Zn143 Zn 0.05414 0.73682 0.37753 0.0
O144 O 0.19872 0.68863 0.35471 0.0
O145 O 0.09945 0.65864 0.36931 0.0
O146 O 0.20469 0.78573 0.46383 0.0
O147 O 0.26268 0.77636 0.41493 0.0
O148 O 0.23329 0.85283 0.3462 0.0
O149 O 0.16059 0.91958 0.36523 0.0
O150 O 0.04152 0.85902 0.32877 0.0
O151 O 0.05108 0.73491 0.46231 0.0
O152 O 0.01932 0.76038 0.33004 0.0
O153 O 0.9861 0.73321 0.41591 0.0
C154 C 0.0448 0.91242 0.44422 0.0
C155 C 0.15593 0.64676 0.35836 0.0
C156 C 0.2142 0.90772 0.35107 0.0
C157 C 0.25857 0.78076 0.44832 0.0
C158 C 0.01966 0.81128 0.31419 0.0
C159 C -0.00498 0.72959 0.4492 0.0
O160 O 0.03342 0.91228 0.41124 0.0
O161 O 0.40408 0.64282 0.95887 0.0
Zn162 Zn 0.37948 0.72477 0.94208 0.0
O163 O 0.37279 0.72329 0.89144 0.0
Zn164 Zn 0.28642 0.73761 0.87586 0.0
Zn165 Zn 0.40253 0.64664 0.87489 0.0
Zn166 Zn 0.43019 0.78137 0.87187 0.0
O167 O 0.28193 0.82473 0.8549 0.0
O168 O 0.3822 0.85767 0.86386 0.0
O169 O 0.29425 0.74251 0.96586 0.0
O170 O 0.2303 0.73924 0.91879 0.0
O171 O 0.25178 0.66222 0.84883 0.0
O172 O 0.32687 0.59615 0.86562 0.0
O173 O 0.44613 0.65358 0.82802 0.0
O174 O 0.45678 0.77445 0.9572 0.0
O175 O 0.45934 0.75356 0.82426 0.0
O176 O 0.50427 0.79251 0.90549 0.0
C177 C 0.44058 0.60357 0.94485 0.0
C178 C 0.32392 0.86761 0.85559 0.0
C179 C 0.27214 0.60761 0.85263 0.0
C180 C 0.23842 0.74184 0.95204 0.0
C181 C 0.46292 0.70066 0.81095 0.0
C182 C 0.50572 0.79025 0.93912 0.0
O183 O 0.45335 0.60362 0.91199 0.0
C184 C 0.24007 1.00423 0.31946 0.0
C185 C 0.25663 0.96101 0.34565 0.0
C186 C 0.30699 0.04104 0.38103 0.0
C187 C 0.29134 0.08461 0.35467 0.0
N188 N 0.25649 0.10527 0.29522 0.0
N189 N 0.32057 0.93468 0.39606 0.0
C190 C 0.26202 0.06547 0.32268 0.0
C191 C 0.29581 0.97834 0.37441 0.0
N192 N 0.20122 0.9869 0.29222 0.0
N193 N 0.32816 0.05977 0.41344 0.0
H194 H 0.31273 0.88847 0.39173 0.0
H195 H 0.35392 0.94378 0.41586 0.0
H196 H 0.3338 0.10536 0.42028 0.0
H197 H 0.3338 0.03058 0.43482 0.0
H198 H 0.18056 0.01729 0.27453 0.0
H199 H 0.18774 0.94166 0.28834 0.0
H200 H 0.24103 0.09257 0.27015 0.0
H201 H 0.2724 0.15018 0.29666 0.0
C202 C 0.18085 0.47184 0.88097 0.0
C203 C 0.19333 0.43063 0.85287 0.0
C204 C 0.24435 0.51307 0.81933 0.0
C205 C 0.23015 0.55412 0.84709 0.0
N206 N 0.1708 0.57671 0.89978 0.0
N207 N 0.22473 0.41447 0.79242 0.0
C208 C 0.19293 0.5348 0.87616 0.0
C209 C 0.22135 0.45201 0.82107 0.0
N210 N 0.16195 0.45038 0.91321 0.0
N211 N 0.28185 0.53218 0.79196 0.0
H212 H 0.2083 0.36967 0.79289 0.0
H213 H 0.23906 0.429 0.76751 0.0
H214 H 0.29612 0.57746 0.7892 0.0
H215 H 0.30076 0.50308 0.77299 0.0
H216 H 0.15878 0.47755 0.93562 0.0
H217 H 0.15591 0.4043 0.91871 0.0
H218 H 0.13867 0.56626 0.91991 0.0
H219 H 0.17948 0.62314 0.89696 0.0
C220 C 0.73967 0.5051 0.65763 0.0
C221 C 0.7568 0.54845 0.63159 0.0
C222 C 0.8083 0.46882 0.59666 0.0
C223 C 0.79211 0.4251 0.62289 0.0
N224 N 0.75571 0.40416 0.68201 0.0
N225 N 0.82193 0.57529 0.58175 0.0
C226 C 0.76189 0.44402 0.6546 0.0
C227 C 0.79677 0.53143 0.60319 0.0
N228 N 0.70004 0.52212 0.68451 0.0
N229 N 0.83024 0.45028 0.56441 0.0
H230 H 0.81376 0.62144 0.58601 0.0
H231 H 0.85583 0.56648 0.56227 0.0
H232 H 0.83604 0.40474 0.55757 0.0
H233 H 0.83635 0.47955 0.5431 0.0
H234 H 0.679 0.49156 0.702 0.0
H235 H 0.6863 0.56725 0.68827 0.0
H236 H 0.73953 0.41674 0.70693 0.0
H237 H 0.77181 0.35939 0.68071 0.0
C238 C 0.67366 0.04512 0.10159 0.0
C239 C 0.69379 0.09092 0.12578 0.0
C240 C 0.75329 0.01371 0.159 0.0
C241 C 0.7312 0.96842 0.13519 0.0
N242 N 0.6514 0.93841 0.09272 0.0
N243 N 0.73885 0.11521 0.18278 0.0
C244 C 0.68435 0.98325 0.10981 0.0
C245 C 0.72939 0.07421 0.15623 0.0
N246 N 0.64915 0.06047 0.06934 0.0
N247 N 0.79847 0.99894 0.18361 0.0
H248 H 0.72051 0.15922 0.18204 0.0
H249 H 0.75963 0.10389 0.20688 0.0
H250 H 0.8135 0.95421 0.18749 0.0
H251 H 0.82249 0.03103 0.19895 0.0
H252 H 0.63894 0.02849 0.04985 0.0
H253 H 0.64658 0.10508 0.06024 0.0
H254 H 0.61236 0.9474 0.07635 0.0
H255 H 0.65805 0.89249 0.09821 0.0
C256 C 0.72657 1.00798 0.65951 0.0
C257 C 0.7071 0.05152 0.63406 0.0
C258 C 0.6536 0.97185 0.60021 0.0
C259 C 0.67239 0.92759 0.62563 0.0
N260 N 0.71103 0.90741 0.6845 0.0
N261 N 0.6318 0.07795 0.58864 0.0
C262 C 0.70402 0.94681 0.65696 0.0
C263 C 0.6631 0.03446 0.60756 0.0
N264 N 0.76838 0.02501 0.68545 0.0
N265 N 0.6318 0.95445 0.5677 0.0
H266 H 0.63783 0.12421 0.59353 0.0
H267 H 0.59448 0.06771 0.5713 0.0
H268 H 0.6298 0.90933 0.55942 0.0
H269 H 0.62313 0.9852 0.54737 0.0
H270 H 0.7909 0.99432 0.70227 0.0
H271 H 0.78221 0.07025 0.68902 0.0
H272 H 0.72874 0.9204 0.70907 0.0
H273 H 0.69342 0.86303 0.6839 0.0
C274 C 0.76906 0.57 0.08685 0.0
C275 C 0.79964 0.59472 0.11699 0.0
C276 C 0.78395 0.49852 0.14893 0.0
C277 C 0.75501 0.47349 0.11834 0.0
N278 N 0.73285 0.48029 0.05587 0.0
N279 N 0.84583 0.58137 0.17471 0.0
C280 C 0.75188 0.50774 0.08657 0.0
C281 C 0.8104 0.55845 0.14742 0.0
N282 N 0.75461 0.60654 0.05875 0.0
N283 N 0.78332 0.46621 0.17967 0.0
H284 H 0.86373 0.6257 0.17479 0.0
H285 H 0.8608 0.55558 0.19618 0.0
H286 H 0.76564 0.4219 0.18116 0.0
H287 H 0.79712 0.48414 0.20393 0.0
H288 H 0.72457 0.59325 0.03818 0.0
H289 H 0.76848 0.652 0.05712 0.0
H290 H 0.73656 0.50065 0.03117 0.0
H291 H 0.71846 0.43495 0.05447 0.0
C292 C 0.16194 0.4742 0.36912 0.0
C293 C 0.20598 0.45768 0.34261 0.0
C294 C 0.20341 0.56287 0.32044 0.0
C295 C 0.17211 0.58148 0.35193 0.0
N296 N 0.13137 0.55332 0.40961 0.0
N297 N 0.2672 0.48527 0.2914 0.0
C298 C 0.15302 0.53665 0.37698 0.0
C299 C 0.2256 0.50176 0.31747 0.0
N300 N 0.12993 0.43038 0.38748 0.0
N301 N 0.21036 0.60274 0.29311 0.0
H302 H 0.28069 0.44009 0.2875 0.0
H303 H 0.28985 0.51631 0.27481 0.0
H304 H 0.19283 0.64704 0.29395 0.0
H305 H 0.22784 0.59019 0.26845 0.0
H306 H 0.09255 0.44038 0.40475 0.0
H307 H 0.13532 0.38423 0.38212 0.0
H308 H 0.12228 0.52206 0.42962 0.0
H309 H 0.12996 0.59821 0.4183 0.0
C310 C 0.31285 0.0392 0.86733 0.0
C311 C 0.26776 0.0549 0.84111 0.0
C312 C 0.27061 0.94974 0.81902 0.0
C313 C 0.30473 0.93204 0.84978 0.0
N314 N 0.34807 0.96031 0.90685 0.0
N315 N 0.20354 0.02607 0.79115 0.0
C316 C 0.32396 0.97697 0.87472 0.0
C317 C 0.24715 0.01042 0.81641 0.0
N318 N 0.34365 0.08362 0.88595 0.0
N319 N 0.26202 0.90932 0.79207 0.0
H320 H 0.18895 0.07095 0.78746 0.0
H321 H 0.18033 0.99461 0.77502 0.0
H322 H 0.27974 0.86507 0.79284 0.0
H323 H 0.24252 0.92124 0.76775 0.0
H324 H 0.38152 0.07457 0.9031 0.0
H325 H 0.3364 0.12971 0.88115 0.0
H326 H 0.35695 0.99128 0.92708 0.0
H327 H 0.35206 0.91525 0.915 0.0
C328 C 0.41826 0.51385 0.47955 0.0
C329 C 0.45798 0.47803 0.4574 0.0
C330 C 0.55388 0.517 0.48659 0.0
C331 C 0.51462 0.55483 0.50764 0.0
N332 N 0.41099 0.5981 0.52058 0.0
N333 N 0.56309 0.4565 0.43376 0.0
C334 C 0.44708 0.55567 0.50327 0.0
C335 C 0.52566 0.48326 0.45887 0.0
N336 N 0.35303 0.5078 0.47772 0.0
N337 N 0.61775 0.51115 0.49419 0.0
H338 H 0.54458 0.43115 0.41293 0.0
H339 H 0.61219 0.46437 0.43153 0.0
H340 H 0.64002 0.53406 0.51498 0.0
H341 H 0.64734 0.47917 0.48223 0.0
H342 H 0.32163 0.52653 0.49605 0.0
H343 H 0.33008 0.48193 0.45837 0.0
H344 H 0.36241 0.6051 0.51587 0.0
H345 H 0.43049 0.63004 0.53788 0.0
C346 C 0.94302 0.01542 5e-05 0.0
C347 C 0.9817 0.97036 0.01603 0.0
C348 C 0.07579 1.00507 0.98308 0.0
C349 C 0.03678 0.05014 0.96718 0.0
N350 N 0.93878 0.10809 0.96605 0.0
N351 N 0.08432 0.92317 0.02597 0.0
C352 C 0.9718 0.05794 0.97705 0.0
C353 C 0.04829 0.96583 0.00878 0.0
N354 N 0.87846 0.01696 0.00657 0.0
N355 N 0.13861 0.99971 0.97304 0.0
H356 H 0.06502 0.89273 0.04419 0.0
H357 H 0.13359 0.91816 0.02328 0.0
H358 H 0.1593 0.02666 0.95346 0.0
H359 H 0.17051 0.9678 0.98292 0.0
H360 H 0.84624 0.04303 -0.00792 0.0
H361 H 0.85617 0.98975 0.02549 0.0
H362 H 0.8941 0.12039 0.97587 0.0
H363 H 0.95834 0.14065 0.94926 0.0
C364 C 0.02494 0.03133 0.51458 0.0
C365 C 0.95721 0.03492 0.51675 0.0
C366 C 0.9462 0.95552 0.47187 0.0
C367 C 0.01366 0.9571 0.46715 0.0
N368 N 0.11633 1.0037 0.47884 0.0
N369 N 0.85217 1.00314 0.49721 0.0
C370 C 0.05285 0.99686 0.48716 0.0
C371 C 0.91742 0.99786 0.4952 0.0
N372 N 0.06271 0.06033 0.5388 0.0
N373 N 0.9102 0.9119 0.45534 0.0
H374 H 0.82928 0.02969 0.51619 0.0
H375 H 0.82065 0.98326 0.47927 0.0
H376 H 0.92964 0.87963 0.43831 0.0
H377 H 0.86181 0.90436 0.46044 0.0
H378 H 0.11205 0.05381 0.54064 0.0
H379 H 0.04436 0.0864 0.55931 0.0
H380 H 0.1457 0.03696 0.48993 0.0
H381 H 0.13829 0.9802 0.45824 0.0
C382 C 0.44991 0.49526 0.96248 0.0
C383 C 0.46812 0.5566 0.96765 0.0
C384 C 0.53431 0.52849 0.01844 0.0
C385 C 0.52015 0.46664 0.01137 0.0
N386 N 0.47219 0.3896 0.97414 0.0
N387 N 0.53105 0.63266 -0.00205 0.0
C388 C 0.48032 0.44953 0.98259 0.0
C389 C 0.51096 0.57365 -0.00491 0.0
N390 N 0.40127 0.48105 0.93962 0.0
N391 N 0.57042 0.5439 0.04728 0.0
H392 H 0.51364 0.66735 0.98197 0.0
H393 H 0.56791 0.64706 0.01449 0.0
H394 H 0.59223 0.51199 0.06364 0.0
H395 H 0.57635 0.58821 0.05629 0.0
H396 H 0.38061 0.43803 0.93786 0.0
H397 H 0.37724 0.51346 0.92455 0.0
H398 H 0.45017 0.37476 0.95101 0.0
H399 H 0.49118 0.35428 -0.01097 0.0
C400 C 0.54772 0.33502 0.22695 0.0
C401 C 0.50312 0.31605 0.20077 0.0
C402 C 0.42319 0.29383 0.24615 0.0
C403 C 0.46661 0.31587 0.2721 0.0
N404 N 0.56561 0.36599 0.28758 0.0
N405 N 0.39592 0.28696 0.18403 0.0
C406 C 0.52741 0.33942 0.26257 0.0
C407 C 0.44012 0.29795 0.20997 0.0
N408 N 0.61036 0.34563 0.21805 0.0
N409 N 0.36599 0.26855 0.25615 0.0
H410 H 0.40678 0.2899 0.15722 0.0
H411 H 0.34735 0.27981 0.18881 0.0
H412 H 0.34988 0.26804 0.28218 0.0
H413 H 0.3359 0.24492 0.23902 0.0
H414 H 0.64664 0.3529 0.23646 0.0
H415 H 0.62764 0.34229 0.19233 0.0
H416 H 0.60712 0.39028 0.28164 0.0
H417 H 0.55349 0.36754 0.31425 0.0
C418 C 0.05138 0.17742 0.7486 0.0
C419 C 0.00598 0.19252 0.77509 0.0
C420 C 0.92315 0.20808 0.73038 0.0
C421 C 0.96795 0.19074 0.70405 0.0
N422 N 0.07032 0.14891 0.68768 0.0
N423 N 0.89714 0.21215 0.79275 0.0
C424 C 0.03069 0.17197 0.71307 0.0
C425 C 0.94132 0.20501 0.76643 0.0
N426 N 0.11484 0.17154 0.75714 0.0
N427 N 0.86362 0.2283 0.72081 0.0
H428 H 0.90915 0.21019 0.81945 0.0
H429 H 0.84798 0.21521 0.7884 0.0
H430 H 0.84716 0.22804 0.69482 0.0
H431 H 0.83158 0.24847 0.73826 0.0
H432 H 0.15123 0.16733 0.73854 0.0
H433 H 0.13219 0.17552 0.78285 0.0
H434 H 0.11401 0.12818 0.6932 0.0
H435 H 0.05739 0.14632 0.66113 0.0
C436 C 0.53897 0.67906 0.76167 0.0
C437 C 0.47667 0.69493 0.77302 0.0
C438 C 0.43978 0.70125 0.71167 0.0
C439 C 0.50362 0.69167 0.70038 0.0
N440 N 0.61624 0.67996 0.71408 0.0
N441 N 0.36781 0.72476 0.75997 0.0
C442 C 0.55386 0.68232 0.7252 0.0
C443 C 0.42696 0.70697 0.74832 0.0
N444 N 0.5837 0.66064 0.78577 0.0
N445 N 0.39135 0.70302 0.68734 0.0
H446 H 0.3554 0.72642 0.7866 0.0
H447 H 0.33194 0.74119 0.74346 0.0
H448 H 0.39942 0.699 0.66028 0.0
H449 H 0.3429 0.70359 0.69389 0.0
H450 H 0.62774 0.64195 0.77884 0.0
H451 H 0.5748 0.65959 0.81284 0.0
H452 H 0.65535 0.68005 0.73116 0.0
H453 H 0.62968 0.68294 0.68766 0.0
C454 C 0.0386 0.83188 0.21534 0.0
C455 C 0.97745 0.8129 0.20346 0.0
C456 C 0.94147 0.79883 0.2645 0.0
C457 C 0.00424 0.81297 0.27622 0.0
N458 N 0.11609 0.8312 0.26286 0.0
N459 N 0.87207 0.77207 0.21552 0.0
C460 C 0.05382 0.82663 0.25169 0.0
C461 C 0.92928 0.79436 0.22771 0.0
N462 N 0.08196 0.85524 0.19193 0.0
N463 N 0.89312 0.79202 0.28854 0.0
H464 H 0.85993 0.77077 0.18883 0.0
H465 H 0.83811 0.75118 0.23159 0.0
H466 H 0.90052 0.79525 0.31569 0.0
H467 H 0.84494 0.78809 0.28169 0.0
H468 H 0.12446 0.87647 0.19957 0.0
H469 H 0.07332 0.85746 0.16485 0.0
H470 H 0.15496 0.83459 0.24576 0.0
H471 H 0.12996 0.82601 0.28911 0.0
C472 C 0.60852 0.27536 0.45036 0.0
C473 C 0.56198 0.22873 0.45538 0.0
C474 C 0.63612 0.17599 0.49503 0.0
C475 C 0.67763 0.22728 0.4945 0.0
N476 N 0.70153 0.32822 0.47377 0.0
N477 N 0.52969 0.13562 0.48365 0.0
C478 C 0.66382 0.27736 0.47238 0.0
C479 C 0.57535 0.17917 0.478 0.0
N480 N 0.60013 0.31777 0.42448 0.0
N481 N 0.65599 0.12341 0.51069 0.0
H482 H 0.48589 0.13502 0.47031 0.0
H483 H 0.53373 0.10225 0.503 0.0
H484 H 0.70055 0.11924 0.52301 0.0
H485 H 0.63124 0.08244 0.50839 0.0
H486 H 0.63617 0.34768 0.41664 0.0
H487 H 0.55917 0.32005 0.40879 0.0
H488 H 0.68947 0.36902 0.46158 0.0
H489 H 0.74275 0.33113 0.48929 0.0
C490 C 0.91975 0.32604 0.98576 0.0
C491 C 0.9251 0.2864 0.95646 0.0
C492 C 0.81925 0.24257 0.97012 0.0
C493 C 0.81278 0.28381 -0.00138 0.0
N494 N 0.85034 0.37458 0.02825 0.0
N495 N 0.87417 0.2155 0.91622 0.0
C496 C 0.86126 0.32829 0.00498 0.0
C497 C 0.87272 0.24797 0.94697 0.0
N498 N 0.97076 0.36161 -0.00466 0.0
N499 N 0.77685 0.19543 0.96657 0.0
H500 H 0.91381 0.21351 0.89962 0.0
H501 H 0.83417 0.19324 0.90593 0.0
H502 H 0.73837 0.18845 0.98364 0.0
H503 H 0.78321 0.15973 0.94889 0.0
H504 H 0.97328 0.38495 0.0192 0.0
H505 H 0.01225 0.36553 0.98015 0.0
H506 H 0.88046 0.41209 0.03102 0.0
H507 H 0.80813 0.37876 0.04258 0.0
C508 C 0.07551 0.33211 0.49899 0.0
C509 C 0.06297 0.28345 0.52244 0.0
C510 C 0.1653 0.23575 0.50599 0.0
C511 C 0.17808 0.28483 0.48292 0.0
N512 N 0.15523 0.38768 0.4654 0.0
N513 N 0.10315 0.19705 0.55498 0.0
C514 C 0.13605 0.33545 0.48178 0.0
C515 C 0.11036 0.23803 0.52822 0.0
N516 N 0.02932 0.3747 0.49276 0.0
N517 N 0.20363 0.18546 0.50535 0.0
H518 H 0.06263 0.19493 0.57097 0.0
H519 H 0.13971 0.16813 0.56316 0.0
H520 H 0.24461 0.18241 0.48971 0.0
H521 H 0.1923 0.14514 0.51832 0.0
H522 H 0.03278 0.40712 0.47283 0.0
H523 H 0.98577 0.37544 0.50629 0.0
H524 H 0.13016 0.42838 0.46737 0.0
H525 H 0.19958 0.39199 0.4529 0.0
C526 C 0.40737 0.1807 -0.00406 0.0
C527 C 0.42592 0.23153 0.01641 0.0
C528 C 0.33223 0.2885 -0.00462 0.0
C529 C 0.31231 0.23682 0.97601 0.0
N530 N 0.32151 0.12932 0.96466 0.0
N531 N 0.3993 0.32887 0.04202 0.0
C532 C 0.34717 0.18153 0.97827 0.0
C533 C 0.38597 0.28376 0.01829 0.0
N534 N 0.44771 0.13216 -0.00713 0.0
N535 N 0.3018 0.34283 -0.00941 0.0
H536 H 0.43888 0.32791 0.0588 0.0
H537 H 0.36846 0.36499 0.04704 0.0
H538 H 0.2619 0.34782 0.97424 0.0
H539 H 0.31907 0.38384 0.00056 0.0
H540 H 0.44021 0.09674 0.97509 0.0
H541 H 0.49098 0.12925 0.00662 0.0
H542 H 0.34127 0.08652 0.9688 0.0
H543 H 0.27713 0.12798 0.95193 0.0
C544 C 0.4252 0.73924 0.47979 0.0
C545 C 0.43823 0.78618 0.5048 0.0
C546 C 0.33514 0.83367 0.48973 0.0
C547 C 0.31875 0.78191 0.46915 0.0
N548 N 0.34349 0.68046 0.44969 0.0
N549 N 0.4045 0.87778 0.53437 0.0
C550 C 0.36254 0.73337 0.46558 0.0
C551 C 0.39261 0.83317 0.51012 0.0
N552 N 0.47235 0.70062 0.46885 0.0
N553 N 0.29768 0.88454 0.48835 0.0
H554 H 0.44849 0.88251 0.54722 0.0
H555 H 0.36989 0.90857 0.54277 0.0
H556 H 0.25601 0.88728 0.47322 0.0
H557 H 0.3108 0.9259 0.49961 0.0
H558 H 0.46637 0.66996 0.44816 0.0
H559 H 0.51957 0.70321 0.47719 0.0
H560 H 0.37116 0.64114 0.44948 0.0
H561 H 0.29731 0.67366 0.43983 0.0
C562 C 0.07247 0.78368 0.98363 0.0
C563 C 0.05946 0.73727 0.00908 0.0
C564 C 0.16518 0.69226 -0.00351 0.0
C565 C 0.18023 0.74258 0.97453 0.0
N566 N 0.15335 0.84133 0.95207 0.0
N567 N 0.09485 0.64798 0.0405 0.0
C568 C 0.13528 0.78969 0.96957 0.0
C569 C 0.10657 0.69204 0.01592 0.0
N570 N 0.0252 0.82167 0.97203 0.0
N571 N 0.20502 0.643 -0.00284 0.0
H572 H 0.0501 0.64149 0.05217 0.0
H573 H 0.13013 0.6191 0.05025 0.0
H574 H 0.24819 0.64125 0.98336 0.0
H575 H 0.1932 0.60194 0.00915 0.0
H576 H 0.03061 0.85067 0.95055 0.0
H577 H 0.97837 0.82091 0.98095 0.0
H578 H 0.12481 0.87988 0.95019 0.0
H579 H 0.19955 0.84806 0.94223 0.0
C580 C 0.89272 0.6776 0.46809 0.0
C581 C 0.93816 0.72515 0.47297 0.0
C582 C 0.86248 0.7783 0.51182 0.0
C583 C 0.81883 0.72937 0.50857 0.0
N584 N 0.79758 0.62635 0.49002 0.0
N585 N 0.97199 0.81224 0.50797 0.0
C586 C 0.8352 0.67728 0.48838 0.0
C587 C 0.92504 0.77272 0.49753 0.0
N588 N 0.90484 0.6323 0.44437 0.0
N589 N 0.84337 0.83127 0.5275 0.0
H590 H 0.01905 0.81027 0.49939 0.0
H591 H 0.9661 0.84332 0.52843 0.0
H592 H 0.79736 0.83768 0.53759 0.0
H593 H 0.87074 0.87091 0.52736 0.0
H594 H 0.87036 0.60098 0.4362 0.0
H595 H 0.94892 0.62741 0.43171 0.0
H596 H 0.81063 0.58476 0.47912 0.0
H597 H 0.75569 0.6239 0.50495 0.0
C598 C 0.66635 0.74303 0.97762 0.0
C599 C 0.6813 0.79422 -0.00124 0.0
C600 C 0.58275 0.84502 0.97922 0.0
C601 C 0.56847 0.7945 0.95741 0.0
N602 N 0.60182 0.69985 0.93068 0.0
N603 N 0.6636 0.8996 0.01268 0.0
C604 C 0.61222 0.74513 0.95478 0.0
C605 C 0.64229 0.84691 -0.00242 0.0
N606 N 0.70219 0.69133 0.98058 0.0
N607 N 0.53907 0.89079 0.9828 0.0
H608 H 0.70726 0.90279 0.02604 0.0
H609 H 0.64105 0.94128 0.00911 0.0
H610 H 0.49643 0.89229 0.9684 0.0
H611 H 0.54333 0.92526 0.00149 0.0
H612 H 0.68892 0.64977 0.96963 0.0
H613 H 0.74336 0.68876 -0.00388 0.0
H614 H 0.63563 0.66675 0.92461 0.0
H615 H 0.56082 0.69698 0.91504 0.0
loop_
_geom_bond_atom_site_label_1
_geom_bond_atom_site_label_2
_geom_bond_distance
_geom_bond_site_symmetry_2
_ccdc_geom_bond_type
O0 Zn1 1.953 . S
O0 C16 1.225 . S
Zn1 O0 1.953 . S
Zn1 O2 1.949 . S
Zn1 O8 1.919 . S
Zn1 O13 1.924 . S
O2 Zn1 1.949 . S
O2 Zn3 1.923 . S
O2 Zn4 1.950 . S
O2 Zn5 1.945 . S
Zn3 O2 1.923 . S
Zn3 O6 1.933 . S
Zn3 O9 1.941 . S
Zn3 O10 1.965 . S
Zn4 O2 1.950 . S
Zn4 O11 1.938 . S
Zn4 O12 1.906 . S
Zn4 O22 1.953 . S
Zn5 O2 1.945 . S
Zn5 O7 1.932 . S
Zn5 O14 1.977 . S
Zn5 O15 1.910 . S
O6 Zn3 1.933 . S
O6 C17 1.226 . S
O7 Zn5 1.932 . S
O7 C17 1.307 . S
O8 Zn1 1.919 . S
O8 C19 1.253 . S
O9 Zn3 1.941 . S
O9 C19 1.283 . S
O10 Zn3 1.965 . S
O10 C18 1.303 . S
O11 Zn4 1.938 . S
O11 C18 1.247 . S
O12 Zn4 1.906 . S
O12 C20 1.304 . S
O13 Zn1 1.924 . S
O13 C21 1.311 . S
O14 Zn5 1.977 . S
O14 C20 1.272 . S
O15 Zn5 1.910 . S
O15 C21 1.231 . S
C16 O0 1.225 . S
C16 O22 1.298 . S
C17 O6 1.226 . S
C17 O7 1.307 . S
C18 O10 1.303 . S
C18 O11 1.247 . S
C19 O8 1.253 . S
C19 O9 1.283 . S
C20 O12 1.304 . S
C20 O14 1.272 . S
C21 O13 1.311 . S
C21 O15 1.231 . S
O22 Zn4 1.953 . S
O22 C16 1.298 . S
O23 Zn24 1.953 . S
O23 C39 1.225 . S
Zn24 O23 1.953 . S
Zn24 O25 1.949 . S
Zn24 O31 1.919 . S
Zn24 O36 1.924 . S
O25 Zn24 1.949 . S
O25 Zn26 1.923 . S
O25 Zn27 1.950 . S
O25 Zn28 1.945 . S
Zn26 O25 1.923 . S
Zn26 O29 1.933 . S
Zn26 O32 1.941 . S
Zn26 O33 1.965 . S
Zn27 O25 1.950 . S
Zn27 O34 1.938 . S
Zn27 O35 1.906 . S
Zn27 O45 1.953 . S
Zn28 O25 1.945 . S
Zn28 O30 1.932 . S
Zn28 O37 1.977 . S
Zn28 O38 1.910 . S
O29 Zn26 1.933 . S
O29 C40 1.226 . S
O30 Zn28 1.932 . S
O30 C40 1.307 . S
O31 Zn24 1.919 . S
O31 C42 1.253 . S
O32 Zn26 1.941 . S
O32 C42 1.283 . S
O33 Zn26 1.965 . S
O33 C41 1.303 . S
O34 Zn27 1.938 . S
O34 C41 1.247 . S
O35 Zn27 1.906 . S
O35 C43 1.304 . S
O36 Zn24 1.924 . S
O36 C44 1.311 1_455 S
O37 Zn28 1.977 . S
O37 C43 1.272 . S
O38 Zn28 1.910 . S
O38 C44 1.231 1_455 S
C39 O23 1.225 . S
C39 O45 1.298 . S
C40 O29 1.226 . S
C40 O30 1.307 . S
C41 O33 1.303 . S
C41 O34 1.247 . S
C42 O31 1.253 . S
C42 O32 1.283 . S
C43 O35 1.304 . S
C43 O37 1.272 . S
C44 O36 1.311 1_655 S
C44 O38 1.231 1_655 S
O45 Zn27 1.953 . S
O45 C39 1.298 . S
O46 Zn47 1.953 . S
O46 C62 1.225 . S
Zn47 O46 1.953 . S
Zn47 O48 1.949 . S
Zn47 O54 1.919 . S
Zn47 O59 1.924 . S
O48 Zn47 1.949 . S
O48 Zn49 1.923 . S
O48 Zn50 1.950 . S
O48 Zn51 1.945 . S
Zn49 O48 1.923 . S
Zn49 O52 1.933 . S
Zn49 O55 1.941 . S
Zn49 O56 1.965 . S
Zn50 O48 1.950 . S
Zn50 O57 1.938 . S
Zn50 O58 1.906 . S
Zn50 O68 1.953 . S
Zn51 O48 1.945 . S
Zn51 O53 1.932 . S
Zn51 O60 1.977 . S
Zn51 O61 1.910 . S
O52 Zn49 1.933 . S
O52 C63 1.226 . S
O53 Zn51 1.932 . S
O53 C63 1.307 . S
O54 Zn47 1.919 . S
O54 C65 1.253 . S
O55 Zn49 1.941 . S
O55 C65 1.283 . S
O56 Zn49 1.965 . S
O56 C64 1.303 . S
O57 Zn50 1.938 . S
O57 C64 1.247 . S
O58 Zn50 1.906 . S
O58 C66 1.304 . S
O59 Zn47 1.924 . S
O59 C67 1.311 1_655 S
O60 Zn51 1.977 . S
O60 C66 1.272 . S
O61 Zn51 1.910 . S
O61 C67 1.231 1_655 S
C62 O46 1.225 . S
C62 O68 1.298 . S
C63 O52 1.226 . S
C63 O53 1.307 . S
C64 O56 1.303 . S
C64 O57 1.247 . S
C65 O54 1.253 . S
C65 O55 1.283 . S
C66 O58 1.304 . S
C66 O60 1.272 . S
C67 O59 1.311 1_455 S
C67 O61 1.231 1_455 S
O68 Zn50 1.953 . S
O68 C62 1.298 . S
O69 Zn70 1.953 . S
O69 C85 1.225 . S
Zn70 O69 1.953 . S
Zn70 O71 1.949 . S
Zn70 O77 1.919 . S
Zn70 O82 1.924 . S
O71 Zn70 1.949 . S
O71 Zn72 1.923 . S
O71 Zn73 1.950 . S
O71 Zn74 1.945 . S
Zn72 O71 1.923 . S
Zn72 O75 1.933 . S
Zn72 O78 1.941 . S
Zn72 O79 1.965 . S
Zn73 O71 1.950 . S
Zn73 O80 1.938 . S
Zn73 O81 1.906 . S
Zn73 O91 1.953 . S
Zn74 O71 1.945 . S
Zn74 O76 1.932 . S
Zn74 O83 1.977 . S
Zn74 O84 1.910 . S
O75 Zn72 1.933 . S
O75 C86 1.226 . S
O76 Zn74 1.932 . S
O76 C86 1.307 . S
O77 Zn70 1.919 . S
O77 C88 1.253 . S
O78 Zn72 1.941 . S
O78 C88 1.283 . S
O79 Zn72 1.965 . S
O79 C87 1.303 . S
O80 Zn73 1.938 . S
O80 C87 1.247 . S
O81 Zn73 1.906 . S
O81 C89 1.304 . S
O82 Zn70 1.924 . S
O82 C90 1.311 . S
O83 Zn74 1.977 . S
O83 C89 1.272 . S
O84 Zn74 1.910 . S
O84 C90 1.231 . S
C85 O69 1.225 . S
C85 O91 1.298 . S
C86 O75 1.226 . S
C86 O76 1.307 . S
C87 O79 1.303 . S
C87 O80 1.247 . S
C88 O77 1.253 . S
C88 O78 1.283 . S
C89 O81 1.304 . S
C89 O83 1.272 . S
C90 O82 1.311 . S
C90 O84 1.231 . S
O91 Zn73 1.953 . S
O91 C85 1.298 . S
O92 Zn93 1.953 . S
O92 C108 1.225 . S
Zn93 O92 1.953 . S
Zn93 O94 1.949 . S
Zn93 O100 1.919 . S
Zn93 O105 1.924 . S
O94 Zn93 1.949 . S
O94 Zn95 1.923 . S
O94 Zn96 1.950 . S
O94 Zn97 1.945 . S
Zn95 O94 1.923 . S
Zn95 O98 1.933 . S
Zn95 O101 1.941 . S
Zn95 O102 1.965 . S
Zn96 O94 1.950 . S
Zn96 O103 1.938 . S
Zn96 O104 1.906 . S
Zn96 O114 1.953 . S
Zn97 O94 1.945 . S
Zn97 O99 1.932 . S
Zn97 O106 1.977 . S
Zn97 O107 1.910 . S
O98 Zn95 1.933 . S
O98 C109 1.226 . S
O99 Zn97 1.932 . S
O99 C109 1.307 . S
O100 Zn93 1.919 . S
O100 C111 1.253 . S
O101 Zn95 1.941 . S
O101 C111 1.283 . S
O102 Zn95 1.965 . S
O102 C110 1.303 . S
O103 Zn96 1.938 . S
O103 C110 1.247 . S
O104 Zn96 1.906 . S
O104 C112 1.304 . S
O105 Zn93 1.924 . S
O105 C113 1.311 . S
O106 Zn97 1.977 . S
O106 C112 1.272 . S
O107 Zn97 1.910 . S
O107 C113 1.231 . S
C108 O92 1.225 . S
C108 O114 1.298 . S
C109 O98 1.226 . S
C109 O99 1.307 . S
C110 O102 1.303 . S
C110 O103 1.247 . S
C111 O100 1.253 . S
C111 O101 1.283 . S
C112 O104 1.304 . S
C112 O106 1.272 . S
C113 O105 1.311 . S
C113 O107 1.231 . S
O114 Zn96 1.953 . S
O114 C108 1.298 . S
O115 Zn116 1.953 . S
O115 C131 1.225 . S
Zn116 O115 1.953 . S
Zn116 O117 1.949 . S
Zn116 O123 1.919 . S
Zn116 O128 1.924 . S
O117 Zn116 1.949 . S
O117 Zn118 1.923 . S
O117 Zn119 1.950 . S
O117 Zn120 1.945 . S
Zn118 O117 1.923 . S
Zn118 O121 1.933 . S
Zn118 O124 1.941 . S
Zn118 O125 1.965 . S
Zn119 O117 1.950 . S
Zn119 O126 1.938 . S
Zn119 O127 1.906 . S
Zn119 O137 1.953 . S
Zn120 O117 1.945 . S
Zn120 O122 1.932 . S
Zn120 O129 1.977 . S
Zn120 O130 1.910 . S
O121 Zn118 1.933 . S
O121 C132 1.226 . S
O122 Zn120 1.932 . S
O122 C132 1.307 . S
O123 Zn116 1.919 . S
O123 C134 1.253 . S
O124 Zn118 1.941 . S
O124 C134 1.283 . S
O125 Zn118 1.965 . S
O125 C133 1.303 . S
O126 Zn119 1.938 . S
O126 C133 1.247 . S
O127 Zn119 1.906 . S
O127 C135 1.304 . S
O128 Zn116 1.924 . S
O128 C136 1.311 1_655 S
O129 Zn120 1.977 . S
O129 C135 1.272 . S
O130 Zn120 1.910 . S
O130 C136 1.231 1_655 S
C131 O115 1.225 . S
C131 O137 1.298 . S
C132 O121 1.226 . S
C132 O122 1.307 . S
C133 O125 1.303 . S
C133 O126 1.247 . S
C134 O123 1.253 . S
C134 O124 1.283 . S
C135 O127 1.304 . S
C135 O129 1.272 . S
C136 O128 1.311 1_455 S
C136 O130 1.231 1_455 S
O137 Zn119 1.953 . S
O137 C131 1.298 . S
O138 Zn139 1.953 . S
O138 C154 1.225 . S
Zn139 O138 1.953 . S
Zn139 O140 1.949 . S
Zn139 O146 1.919 . S
Zn139 O151 1.924 . S
O140 Zn139 1.949 . S
O140 Zn141 1.923 . S
O140 Zn142 1.950 . S
O140 Zn143 1.945 . S
Zn141 O140 1.923 . S
Zn141 O144 1.933 . S
Zn141 O147 1.941 . S
Zn141 O148 1.965 . S
Zn142 O140 1.950 . S
Zn142 O149 1.938 . S
Zn142 O150 1.906 . S
Zn142 O160 1.953 . S
Zn143 O140 1.945 . S
Zn143 O145 1.932 . S
Zn143 O152 1.977 . S
Zn143 O153 1.910 . S
O144 Zn141 1.933 . S
O144 C155 1.226 . S
O145 Zn143 1.932 . S
O145 C155 1.307 . S
O146 Zn139 1.919 . S
O146 C157 1.253 . S
O147 Zn141 1.941 . S
O147 C157 1.283 . S
O148 Zn141 1.965 . S
O148 C156 1.303 . S
O149 Zn142 1.938 . S
O149 C156 1.247 . S
O150 Zn142 1.906 . S
O150 C158 1.304 . S
O151 Zn139 1.924 . S
O151 C159 1.311 1_455 S
O152 Zn143 1.977 . S
O152 C158 1.272 . S
O153 Zn143 1.910 . S
O153 C159 1.231 1_455 S
C154 O138 1.225 . S
C154 O160 1.298 . S
C155 O144 1.226 . S
C155 O145 1.307 . S
C156 O148 1.303 . S
C156 O149 1.247 . S
C157 O146 1.253 . S
C157 O147 1.283 . S
C158 O150 1.304 . S
C158 O152 1.272 . S
C159 O151 1.311 1_655 S
C159 O153 1.231 1_655 S
O160 Zn142 1.953 . S
O160 C154 1.298 . S
O161 Zn162 1.953 . S
O161 C177 1.225 . S
Zn162 O161 1.953 . S
Zn162 O163 1.949 . S
Zn162 O169 1.919 . S
Zn162 O174 1.924 . S
O163 Zn162 1.949 . S
O163 Zn164 1.923 . S
O163 Zn165 1.950 . S
O163 Zn166 1.945 . S
Zn164 O163 1.923 . S
Zn164 O167 1.933 . S
Zn164 O170 1.941 . S
Zn164 O171 1.965 . S
Zn165 O163 1.950 . S
Zn165 O172 1.938 . S
Zn165 O173 1.906 . S
Zn165 O183 1.953 . S
Zn166 O163 1.945 . S
Zn166 O168 1.932 . S
Zn166 O175 1.977 . S
Zn166 O176 1.910 . S
O167 Zn164 1.933 . S
O167 C178 1.226 . S
O168 Zn166 1.932 . S
O168 C178 1.307 . S
O169 Zn162 1.919 . S
O169 C180 1.253 . S
O170 Zn164 1.941 . S
O170 C180 1.283 . S
O171 Zn164 1.965 . S
O171 C179 1.303 . S
O172 Zn165 1.938 . S
O172 C179 1.247 . S
O173 Zn165 1.906 . S
O173 C181 1.304 . S
O174 Zn162 1.924 . S
O174 C182 1.311 . S
O175 Zn166 1.977 . S
O175 C181 1.272 . S
O176 Zn166 1.910 . S
O176 C182 1.231 . S
C177 O161 1.225 . S
C177 O183 1.298 . S
C178 O167 1.226 . S
C178 O168 1.307 . S
C179 O171 1.303 . S
C179 O172 1.247 . S
C180 O169 1.253 . S
C180 O170 1.283 . S
C181 O173 1.304 . S
C181 O175 1.272 . S
C182 O174 1.311 . S
C182 O176 1.231 . S
O183 Zn165 1.953 . S
O183 C177 1.298 . S
C184 C185 1.363 1_545 S
C184 C190 1.379 . S
C184 N192 1.356 1_545 S
C185 C184 1.363 1_565 S
C185 C191 1.363 1_565 S
C186 C187 1.363 . S
C186 C191 1.379 . S
C186 N193 1.356 . S
C187 C186 1.363 . S
C187 C190 1.363 . S
N188 C190 1.356 . S
N188 H200 0.984 . S
N188 H201 0.985 . S
N189 C191 1.356 . S
N189 H194 0.984 1_545 S
N189 H195 0.985 . S
C190 C184 1.379 . S
C190 C187 1.363 . S
C190 N188 1.356 . S
C191 C185 1.363 1_545 S
C191 C186 1.379 . S
C191 N189 1.356 . S
N192 C184 1.356 1_565 S
N192 H198 0.984 . S
N192 H199 0.984 . S
N193 C186 1.356 . S
N193 H196 0.984 . S
N193 H197 0.985 . S
H194 N189 0.984 1_565 S
H195 N189 0.985 . S
H196 N193 0.984 . S
H197 N193 0.985 . S
H198 N192 0.984 . S
H199 N192 0.984 . S
H200 N188 0.984 . S
H201 N188 0.985 . S
C202 C203 1.363 . S
C202 C208 1.379 . S
C202 N210 1.356 . S
C203 C202 1.363 . S
C203 C209 1.363 . S
C204 C205 1.363 . S
C204 C209 1.379 . S
C204 N211 1.356 . S
C205 C204 1.363 . S
C205 C208 1.363 . S
N206 C208 1.356 . S
N206 H218 0.984 . S
N206 H219 0.985 . S
N207 C209 1.356 . S
N207 H212 0.984 . S
N207 H213 0.985 . S
C208 C202 1.379 . S
C208 C205 1.363 . S
C208 N206 1.356 . S
C209 C203 1.363 . S
C209 C204 1.379 . S
C209 N207 1.356 . S
N210 C202 1.356 . S
N210 H216 0.984 . S
N210 H217 0.984 . S
N211 C204 1.356 . S
N211 H214 0.984 . S
N211 H215 0.985 . S
H212 N207 0.984 . S
H213 N207 0.985 . S
H214 N211 0.984 . S
H215 N211 0.985 . S
H216 N210 0.984 . S
H217 N210 0.984 . S
H218 N206 0.984 . S
H219 N206 0.985 . S
C220 C221 1.363 . S
C220 C226 1.379 . S
C220 N228 1.356 . S
C221 C220 1.363 . S
C221 C227 1.363 . S
C222 C223 1.363 . S
C222 C227 1.379 . S
C222 N229 1.356 . S
C223 C222 1.363 . S
C223 C226 1.363 . S
N224 C226 1.356 . S
N224 H236 0.984 . S
N224 H237 0.985 . S
N225 C227 1.356 . S
N225 H230 0.984 . S
N225 H231 0.985 . S
C226 C220 1.379 . S
C226 C223 1.363 . S
C226 N224 1.356 . S
C227 C221 1.363 . S
C227 C222 1.379 . S
C227 N225 1.356 . S
N228 C220 1.356 . S
N228 H234 0.984 . S
N228 H235 0.984 . S
N229 C222 1.356 . S
N229 H232 0.984 . S
N229 H233 0.985 . S
H230 N225 0.984 . S
H231 N225 0.985 . S
H232 N229 0.984 . S
H233 N229 0.985 . S
H234 N228 0.984 . S
H235 N228 0.984 . S
H236 N224 0.984 . S
H237 N224 0.985 . S
C238 C239 1.363 . S
C238 C244 1.379 . S
C238 N246 1.356 . S
C239 C238 1.363 . S
C239 C245 1.363 . S
C240 C241 1.363 1_545 S
C240 C245 1.379 . S
C240 N247 1.356 1_545 S
C241 C240 1.363 1_565 S
C241 C244 1.363 1_565 S
N242 C244 1.356 1_565 S
N242 H254 0.984 . S
N242 H255 0.985 . S
N243 C245 1.356 . S
N243 H248 0.984 . S
N243 H249 0.985 . S
C244 C238 1.379 . S
C244 C241 1.363 1_545 S
C244 N242 1.356 1_545 S
C245 C239 1.363 . S
C245 C240 1.379 . S
C245 N243 1.356 . S
N246 C238 1.356 . S
N246 H252 0.984 . S
N246 H253 0.984 . S
N247 C240 1.356 1_565 S
N247 H250 0.984 . S
N247 H251 0.985 . S
H248 N243 0.984 . S
H249 N243 0.985 . S
H250 N247 0.984 . S
H251 N247 0.985 . S
H252 N246 0.984 . S
H253 N246 0.984 . S
H254 N242 0.984 . S
H255 N242 0.985 . S
C256 C257 1.363 1_565 S
C256 C262 1.379 . S
C256 N264 1.356 1_565 S
C257 C256 1.363 1_545 S
C257 C263 1.363 1_545 S
C258 C259 1.363 . S
C258 C263 1.379 . S
C258 N265 1.356 . S
C259 C258 1.363 . S
C259 C262 1.363 . S
N260 C262 1.356 . S
N260 H272 0.984 . S
N260 H273 0.985 . S
N261 C263 1.356 1_545 S
N261 H266 0.984 . S
N261 H267 0.985 . S
C262 C256 1.379 . S
C262 C259 1.363 . S
C262 N260 1.356 . S
C263 C257 1.363 1_565 S
C263 C258 1.379 . S
C263 N261 1.356 1_565 S
N264 C256 1.356 1_545 S
N264 H270 0.984 . S
N264 H271 0.984 . S
N265 C258 1.356 . S
N265 H268 0.984 . S
N265 H269 0.985 . S
H266 N261 0.984 . S
H267 N261 0.985 . S
H268 N265 0.984 . S
H269 N265 0.985 . S
H270 N264 0.984 . S
H271 N264 0.984 . S
H272 N260 0.984 . S
H273 N260 0.985 . S
C274 C275 1.363 . S
C274 C280 1.379 . S
C274 N282 1.356 . S
C275 C274 1.363 . S
C275 C281 1.363 . S
C276 C277 1.363 . S
C276 C281 1.379 . S
C276 N283 1.356 . S
C277 C276 1.363 . S
C277 C280 1.363 . S
N278 C280 1.356 . S
N278 H290 0.984 . S
N278 H291 0.985 . S
N279 C281 1.356 . S
N279 H284 0.984 . S
N279 H285 0.985 . S
C280 C274 1.379 . S
C280 C277 1.363 . S
C280 N278 1.356 . S
C281 C275 1.363 . S
C281 C276 1.379 . S
C281 N279 1.356 . S
N282 C274 1.356 . S
N282 H288 0.984 . S
N282 H289 0.984 . S
N283 C276 1.356 . S
N283 H286 0.984 . S
N283 H287 0.985 . S
H284 N279 0.984 . S
H285 N279 0.985 . S
H286 N283 0.984 . S
H287 N283 0.985 . S
H288 N282 0.984 . S
H289 N282 0.984 . S
H290 N278 0.984 . S
H291 N278 0.985 . S
C292 C293 1.363 . S
C292 C298 1.379 . S
C292 N300 1.356 . S
C293 C292 1.363 . S
C293 C299 1.363 . S
C294 C295 1.363 . S
C294 C299 1.379 . S
C294 N301 1.356 . S
C295 C294 1.363 . S
C295 C298 1.363 . S
N296 C298 1.356 . S
N296 H308 0.984 . S
N296 H309 0.985 . S
N297 C299 1.356 . S
N297 H302 0.984 . S
N297 H303 0.985 . S
C298 C292 1.379 . S
C298 C295 1.363 . S
C298 N296 1.356 . S
C299 C293 1.363 . S
C299 C294 1.379 . S
C299 N297 1.356 . S
N300 C292 1.356 . S
N300 H306 0.984 . S
N300 H307 0.984 . S
N301 C294 1.356 . S
N301 H304 0.984 . S
N301 H305 0.985 . S
H302 N297 0.984 . S
H303 N297 0.985 . S
H304 N301 0.984 . S
H305 N301 0.985 . S
H306 N300 0.984 . S
H307 N300 0.984 . S
H308 N296 0.984 . S
H309 N296 0.985 . S
C310 C311 1.363 1_565 S
C310 C316 1.379 . S
C310 N318 1.356 1_565 S
C311 C310 1.363 1_545 S
C311 C317 1.363 1_545 S
C312 C313 1.363 . S
C312 C317 1.379 . S
C312 N319 1.356 . S
C313 C312 1.363 . S
C313 C316 1.363 . S
N314 C316 1.356 . S
N314 H326 0.984 . S
N314 H327 0.985 . S
N315 C317 1.356 1_545 S
N315 H320 0.984 . S
N315 H321 0.985 . S
C316 C310 1.379 . S
C316 C313 1.363 . S
C316 N314 1.356 . S
C317 C311 1.363 1_565 S
C317 C312 1.379 . S
C317 N315 1.356 1_565 S
N318 C310 1.356 1_545 S
N318 H324 0.984 . S
N318 H325 0.984 . S
N319 C312 1.356 . S
N319 H322 0.984 . S
N319 H323 0.985 . S
H320 N315 0.984 . S
H321 N315 0.985 . S
H322 N319 0.984 . S
H323 N319 0.985 . S
H324 N318 0.984 . S
H325 N318 0.984 . S
H326 N314 0.984 . S
H327 N314 0.985 . S
C328 C329 1.363 . S
C328 C334 1.379 . S
C328 N336 1.356 . S
C329 C328 1.363 . S
C329 C335 1.363 . S
C330 C331 1.363 . S
C330 C335 1.379 . S
C330 N337 1.356 . S
C331 C330 1.363 . S
C331 C334 1.363 . S
N332 C334 1.356 . S
N332 H344 0.984 . S
N332 H345 0.985 . S
N333 C335 1.356 . S
N333 H338 0.984 . S
N333 H339 0.985 . S
C334 C328 1.379 . S
C334 C331 1.363 . S
C334 N332 1.356 . S
C335 C329 1.363 . S
C335 C330 1.379 . S
C335 N333 1.356 . S
N336 C328 1.356 . S
N336 H342 0.984 . S
N336 H343 0.984 . S
N337 C330 1.356 . S
N337 H340 0.984 . S
N337 H341 0.985 . S
H338 N333 0.984 . S
H339 N333 0.985 . S
H340 N337 0.984 . S
H341 N337 0.985 . S
H342 N336 0.984 . S
H343 N336 0.984 . S
H344 N332 0.984 . S
H345 N332 0.985 . S
C346 C347 1.363 1_545 S
C346 C352 1.379 1_554 S
C346 N354 1.356 . S
C347 C346 1.363 1_565 S
C347 C353 1.363 1_655 S
C348 C349 1.363 1_565 S
C348 C353 1.379 1_556 S
C348 N355 1.356 . S
C349 C348 1.363 1_545 S
C349 C352 1.363 1_455 S
N350 C352 1.356 . S
N350 H362 0.984 . S
N350 H363 0.985 . S
N351 C353 1.356 . S
N351 H356 0.984 . S
N351 H357 0.985 . S
C352 C346 1.379 1_556 S
C352 C349 1.363 1_655 S
C352 N350 1.356 . S
C353 C347 1.363 1_455 S
C353 C348 1.379 1_554 S
C353 N351 1.356 . S
N354 C346 1.356 . S
N354 H360 0.984 . S
N354 H361 0.984 . S
N355 C348 1.356 . S
N355 H358 0.984 . S
N355 H359 0.985 . S
H356 N351 0.984 . S
H357 N351 0.985 . S
H358 N355 0.984 . S
H359 N355 0.985 . S
H360 N354 0.984 . S
H361 N354 0.984 . S
H362 N350 0.984 . S
H363 N350 0.985 . S
C364 C365 1.363 1_455 S
C364 C370 1.379 1_545 S
C364 N372 1.356 . S
C365 C364 1.363 1_655 S
C365 C371 1.363 . S
C366 C367 1.363 1_655 S
C366 C371 1.379 1_565 S
C366 N373 1.356 . S
C367 C366 1.363 1_455 S
C367 C370 1.363 . S
N368 C370 1.356 . S
N368 H380 0.984 . S
N368 H381 0.985 . S
N369 C371 1.356 . S
N369 H374 0.984 . S
N369 H375 0.985 . S
C370 C364 1.379 1_565 S
C370 C367 1.363 . S
C370 N368 1.356 . S
C371 C365 1.363 . S
C371 C366 1.379 1_545 S
C371 N369 1.356 . S
N372 C364 1.356 . S
N372 H378 0.984 . S
N372 H379 0.984 . S
N373 C366 1.356 . S
N373 H376 0.984 . S
N373 H377 0.985 . S
H374 N369 0.984 . S
H375 N369 0.985 . S
H376 N373 0.984 . S
H377 N373 0.985 . S
H378 N372 0.984 . S
H379 N372 0.984 . S
H380 N368 0.984 . S
H381 N368 0.985 . S
C382 C383 1.363 . S
C382 C388 1.379 1_556 S
C382 N390 1.356 . S
C383 C382 1.363 . S
C383 C389 1.363 . S
C384 C385 1.363 . S
C384 C389 1.379 1_554 S
C384 N391 1.356 . S
C385 C384 1.363 . S
C385 C388 1.363 . S
N386 C388 1.356 . S
N386 H398 0.984 . S
N386 H399 0.985 . S
N387 C389 1.356 . S
N387 H392 0.984 . S
N387 H393 0.985 . S
C388 C382 1.379 1_554 S
C388 C385 1.363 . S
C388 N386 1.356 . S
C389 C383 1.363 . S
C389 C384 1.379 1_556 S
C389 N387 1.356 . S
N390 C382 1.356 . S
N390 H396 0.984 . S
N390 H397 0.984 . S
N391 C384 1.356 . S
N391 H394 0.984 . S
N391 H395 0.985 . S
H392 N387 0.984 . S
H393 N387 0.985 . S
H394 N391 0.984 . S
H395 N391 0.985 . S
H396 N390 0.984 . S
H397 N390 0.984 . S
H398 N386 0.984 . S
H399 N386 0.985 . S
C400 C401 1.363 . S
C400 C406 1.379 . S
C400 N408 1.356 . S
C401 C400 1.363 . S
C401 C407 1.363 . S
C402 C403 1.363 . S
C402 C407 1.379 . S
C402 N409 1.356 . S
C403 C402 1.363 . S
C403 C406 1.363 . S
N404 C406 1.356 . S
N404 H416 0.984 . S
N404 H417 0.985 . S
N405 C407 1.356 . S
N405 H410 0.984 . S
N405 H411 0.985 . S
C406 C400 1.379 . S
C406 C403 1.363 . S
C406 N404 1.356 . S
C407 C401 1.363 . S
C407 C402 1.379 . S
C407 N405 1.356 . S
N408 C400 1.356 . S
N408 H414 0.984 . S
N408 H415 0.984 . S
N409 C402 1.356 . S
N409 H412 0.984 . S
N409 H413 0.985 . S
H410 N405 0.984 . S
H411 N405 0.985 . S
H412 N409 0.984 . S
H413 N409 0.985 . S
H414 N408 0.984 . S
H415 N408 0.984 . S
H416 N404 0.984 . S
H417 N404 0.985 . S
C418 C419 1.363 . S
C418 C424 1.379 . S
C418 N426 1.356 . S
C419 C418 1.363 . S
C419 C425 1.363 1_455 S
C420 C421 1.363 . S
C420 C425 1.379 . S
C420 N427 1.356 . S
C421 C420 1.363 . S
C421 C424 1.363 1_655 S
N422 C424 1.356 . S
N422 H434 0.984 . S
N422 H435 0.985 . S
N423 C425 1.356 . S
N423 H428 0.984 . S
N423 H429 0.985 . S
C424 C418 1.379 . S
C424 C421 1.363 1_455 S
C424 N422 1.356 . S
C425 C419 1.363 1_655 S
C425 C420 1.379 . S
C425 N423 1.356 . S
N426 C418 1.356 . S
N426 H432 0.984 . S
N426 H433 0.984 . S
N427 C420 1.356 . S
N427 H430 0.984 . S
N427 H431 0.985 . S
H428 N423 0.984 . S
H429 N423 0.985 . S
H430 N427 0.984 . S
H431 N427 0.985 . S
H432 N426 0.984 . S
H433 N426 0.984 . S
H434 N422 0.984 . S
H435 N422 0.985 . S
C436 C437 1.363 . S
C436 C442 1.379 . S
C436 N444 1.356 . S
C437 C436 1.363 . S
C437 C443 1.363 . S
C438 C439 1.363 . S
C438 C443 1.379 . S
C438 N445 1.356 . S
C439 C438 1.363 . S
C439 C442 1.363 . S
N440 C442 1.356 . S
N440 H452 0.984 . S
N440 H453 0.985 . S
N441 C443 1.356 . S
N441 H446 0.984 . S
N441 H447 0.985 . S
C442 C436 1.379 . S
C442 C439 1.363 . S
C442 N440 1.356 . S
C443 C437 1.363 . S
C443 C438 1.379 . S
C443 N441 1.356 . S
N444 C436 1.356 . S
N444 H450 0.984 . S
N444 H451 0.984 . S
N445 C438 1.356 . S
N445 H448 0.984 . S
N445 H449 0.985 . S
H446 N441 0.984 . S
H447 N441 0.985 . S
H448 N445 0.984 . S
H449 N445 0.985 . S
H450 N444 0.984 . S
H451 N444 0.984 . S
H452 N440 0.984 . S
H453 N440 0.985 . S
C454 C455 1.363 1_455 S
C454 C460 1.379 . S
C454 N462 1.356 . S
C455 C454 1.363 1_655 S
C455 C461 1.363 . S
C456 C457 1.363 1_655 S
C456 C461 1.379 . S
C456 N463 1.356 . S
C457 C456 1.363 1_455 S
C457 C460 1.363 . S
N458 C460 1.356 . S
N458 H470 0.984 . S
N458 H471 0.985 . S
N459 C461 1.356 . S
N459 H464 0.984 . S
N459 H465 0.985 . S
C460 C454 1.379 . S
C460 C457 1.363 . S
C460 N458 1.356 . S
C461 C455 1.363 . S
C461 C456 1.379 . S
C461 N459 1.356 . S
N462 C454 1.356 . S
N462 H468 0.984 . S
N462 H469 0.984 . S
N463 C456 1.356 . S
N463 H466 0.984 . S
N463 H467 0.985 . S
H464 N459 0.984 . S
H465 N459 0.985 . S
H466 N463 0.984 . S
H467 N463 0.985 . S
H468 N462 0.984 . S
H469 N462 0.984 . S
H470 N458 0.984 . S
H471 N458 0.985 . S
C472 C473 1.363 . S
C472 C478 1.379 . S
C472 N480 1.356 . S
C473 C472 1.363 . S
C473 C479 1.363 . S
C474 C475 1.363 . S
C474 C479 1.379 . S
C474 N481 1.356 . S
C475 C474 1.363 . S
C475 C478 1.363 . S
N476 C478 1.356 . S
N476 H488 0.984 . S
N476 H489 0.985 . S
N477 C479 1.356 . S
N477 H482 0.984 . S
N477 H483 0.985 . S
C478 C472 1.379 . S
C478 C475 1.363 . S
C478 N476 1.356 . S
C479 C473 1.363 . S
C479 C474 1.379 . S
C479 N477 1.356 . S
N480 C472 1.356 . S
N480 H486 0.984 . S
N480 H487 0.984 . S
N481 C474 1.356 . S
N481 H484 0.984 . S
N481 H485 0.985 . S
H482 N477 0.984 . S
H483 N477 0.985 . S
H484 N481 0.984 . S
H485 N481 0.985 . S
H486 N480 0.984 . S
H487 N480 0.984 . S
H488 N476 0.984 . S
H489 N476 0.985 . S
C490 C491 1.363 . S
C490 C496 1.379 1_556 S
C490 N498 1.356 . S
C491 C490 1.363 . S
C491 C497 1.363 . S
C492 C493 1.354 1_556 S
C492 C497 1.379 . S
C492 N499 1.356 . S
C493 C492 1.354 1_554 S
C493 C496 1.365 . S
N494 C496 1.356 . S
N494 H506 0.984 . S
N494 H507 0.985 . S
N495 C497 1.356 . S
N495 H500 0.984 . S
N495 H501 0.985 . S
C496 C490 1.379 1_554 S
C496 C493 1.365 . S
C496 N494 1.356 . S
C497 C491 1.363 . S
C497 C492 1.379 . S
C497 N495 1.356 . S
N498 C490 1.356 . S
N498 H504 0.984 1_556 S
N498 H505 0.984 . S
N499 C492 1.356 . S
N499 H502 0.984 . S
N499 H503 0.985 . S
H500 N495 0.984 . S
H501 N495 0.985 . S
H502 N499 0.984 . S
H503 N499 0.985 . S
H504 N498 0.984 1_554 S
H505 N498 0.984 . S
H506 N494 0.984 . S
H507 N494 0.985 . S
C508 C509 1.363 . S
C508 C514 1.379 . S
C508 N516 1.356 . S
C509 C508 1.363 . S
C509 C515 1.363 . S
C510 C511 1.363 . S
C510 C515 1.379 . S
C510 N517 1.356 . S
C511 C510 1.363 . S
C511 C514 1.363 . S
N512 C514 1.356 . S
N512 H524 0.984 . S
N512 H525 0.985 . S
N513 C515 1.356 . S
N513 H518 0.984 . S
N513 H519 0.985 . S
C514 C508 1.379 . S
C514 C511 1.363 . S
C514 N512 1.356 . S
C515 C509 1.363 . S
C515 C510 1.379 . S
C515 N513 1.356 . S
N516 C508 1.356 . S
N516 H522 0.984 . S
N516 H523 0.984 . S
N517 C510 1.356 . S
N517 H520 0.984 . S
N517 H521 0.985 . S
H518 N513 0.984 . S
H519 N513 0.985 . S
H520 N517 0.984 . S
H521 N517 0.985 . S
H522 N516 0.984 . S
H523 N516 0.984 . S
H524 N512 0.984 . S
H525 N512 0.985 . S
C526 C527 1.363 . S
C526 C532 1.379 1_554 S
C526 N534 1.356 . S
C527 C526 1.363 . S
C527 C533 1.363 . S
C528 C529 1.354 1_554 S
C528 C533 1.379 . S
C528 N535 1.356 . S
C529 C528 1.354 1_556 S
C529 C532 1.366 . S
N530 C532 1.356 . S
N530 H542 0.984 . S
N530 H543 0.985 . S
N531 C533 1.356 . S
N531 H536 0.984 . S
N531 H537 0.985 . S
C532 C526 1.379 1_556 S
C532 C529 1.366 . S
C532 N530 1.356 . S
C533 C527 1.363 . S
C533 C528 1.379 . S
C533 N531 1.356 . S
N534 C526 1.356 . S
N534 H540 0.984 1_554 S
N534 H541 0.984 . S
N535 C528 1.356 . S
N535 H538 0.984 . S
N535 H539 0.985 . S
H536 N531 0.984 . S
H537 N531 0.985 . S
H538 N535 0.984 . S
H539 N535 0.985 . S
H540 N534 0.984 1_556 S
H541 N534 0.984 . S
H542 N530 0.984 . S
H543 N530 0.985 . S
C544 C545 1.363 . S
C544 C550 1.379 . S
C544 N552 1.356 . S
C545 C544 1.363 . S
C545 C551 1.363 . S
C546 C547 1.363 . S
C546 C551 1.379 . S
C546 N553 1.356 . S
C547 C546 1.363 . S
C547 C550 1.363 . S
N548 C550 1.356 . S
N548 H560 0.984 . S
N548 H561 0.985 . S
N549 C551 1.356 . S
N549 H554 0.984 . S
N549 H555 0.985 . S
C550 C544 1.379 . S
C550 C547 1.363 . S
C550 N548 1.356 . S
C551 C545 1.363 . S
C551 C546 1.379 . S
C551 N549 1.356 . S
N552 C544 1.356 . S
N552 H558 0.984 . S
N552 H559 0.984 . S
N553 C546 1.356 . S
N553 H556 0.984 . S
N553 H557 0.985 . S
H554 N549 0.984 . S
H555 N549 0.985 . S
H556 N553 0.984 . S
H557 N553 0.985 . S
H558 N552 0.984 . S
H559 N552 0.984 . S
H560 N548 0.984 . S
H561 N548 0.985 . S
C562 C563 1.363 . S
C562 C568 1.379 1_554 S
C562 N570 1.357 . S
C563 C562 1.363 . S
C563 C569 1.363 . S
C564 C565 1.352 1_554 S
C564 C569 1.379 . S
C564 N571 1.356 . S
C565 C564 1.352 1_556 S
C565 C568 1.368 . S
N566 C568 1.356 . S
N566 H578 0.984 . S
N566 H579 0.985 . S
N567 C569 1.356 . S
N567 H572 0.984 . S
N567 H573 0.985 . S
C568 C562 1.379 1_556 S
C568 C565 1.368 . S
C568 N566 1.356 . S
C569 C563 1.363 . S
C569 C564 1.379 . S
C569 N567 1.356 . S
N570 C562 1.357 . S
N570 H576 0.981 1_554 S
N570 H577 0.987 . S
N571 C564 1.356 . S
N571 H574 0.984 . S
N571 H575 0.985 . S
H572 N567 0.984 . S
H573 N567 0.985 . S
H574 N571 0.984 . S
H575 N571 0.985 . S
H576 N570 0.981 1_556 S
H577 N570 0.987 . S
H578 N566 0.984 . S
H579 N566 0.985 . S
C580 C581 1.363 . S
C580 C586 1.379 . S
C580 N588 1.356 . S
C581 C580 1.363 . S
C581 C587 1.363 . S
C582 C583 1.363 . S
C582 C587 1.379 . S
C582 N589 1.356 . S
C583 C582 1.363 . S
C583 C586 1.363 . S
N584 C586 1.356 . S
N584 H596 0.984 . S
N584 H597 0.985 . S
N585 C587 1.356 . S
N585 H590 0.984 . S
N585 H591 0.985 . S
C586 C580 1.379 . S
C586 C583 1.363 . S
C586 N584 1.356 . S
C587 C581 1.363 . S
C587 C582 1.379 . S
C587 N585 1.356 . S
N588 C580 1.356 . S
N588 H594 0.984 . S
N588 H595 0.984 . S
N589 C582 1.356 . S
N589 H592 0.984 . S
N589 H593 0.985 . S
H590 N585 0.984 . S
H591 N585 0.985 . S
H592 N589 0.984 . S
H593 N589 0.985 . S
H594 N588 0.984 . S
H595 N588 0.984 . S
H596 N584 0.984 . S
H597 N584 0.985 . S
C598 C599 1.354 1_556 S
C598 C604 1.379 . S
C598 N606 1.356 . S
C599 C598 1.354 1_554 S
C599 C605 1.366 . S
C600 C601 1.363 . S
C600 C605 1.379 1_556 S
C600 N607 1.356 . S
C601 C600 1.363 . S
C601 C604 1.363 . S
N602 C604 1.356 . S
N602 H614 0.984 . S
N602 H615 0.985 . S
N603 C605 1.356 . S
N603 H608 0.984 . S
N603 H609 0.985 . S
C604 C598 1.379 . S
C604 C601 1.363 . S
C604 N602 1.356 . S
C605 C599 1.366 . S
C605 C600 1.379 1_554 S
C605 N603 1.356 . S
N606 C598 1.356 . S
N606 H612 0.984 . S
N606 H613 0.984 . S
N607 C600 1.356 . S
N607 H610 0.984 . S
N607 H611 0.985 1_556 S
H608 N603 0.984 . S
H609 N603 0.985 . S
H610 N607 0.984 . S
H611 N607 0.985 1_554 S
H612 N606 0.984 . S
H613 N606 0.984 . S
H614 N602 0.984 . S
H615 N602 0.985 . S
C185 C156 1.675 . S
C187 C17 1.660 . S
C203 C40 1.660 . S
C205 C179 1.675 . S
C221 C110 1.675 . S
C223 C63 1.660 . S
C239 C86 1.660 . S
C241 C133 1.675 . S
C257 C64 1.675 . S
C259 C109 1.660 . S
C275 C132 1.660 . S
C277 C87 1.675 . S
C293 C18 1.675 . S
C295 C155 1.660 . S
C311 C41 1.675 . S
C313 C178 1.660 . S
C329 C16 1.086 . S
C331 C108 1.086 . S
C347 C131 1.086 . S
C349 C39 1.086 . S
C365 C62 1.086 . S
C367 C154 1.086 . S
C383 C177 1.086 . S
C385 C85 1.086 . S
C401 C89 1.405 . S
C403 C20 1.405 . S
C419 C43 1.405 . S
C421 C66 1.405 . S
C437 C181 1.405 . S
C439 C112 1.405 . S
C455 C135 1.405 . S
C457 C158 1.405 . S
C473 C21 1.703 . S
C475 C65 1.629 . S
C491 C44 1.703 . S
C493 C88 1.637 . S
C509 C67 1.703 . S
C511 C19 1.629 . S
C527 C90 1.703 . S
C529 C42 1.637 . S
C545 C113 1.703 . S
C547 C157 1.629 . S
C563 C136 1.703 . S
C565 C180 1.637 . S
C581 C159 1.703 . S
C583 C111 1.629 . S
C599 C134 1.637 . S
C601 C182 1.703 . S
