# Generated by pormake.
# Topology zfa, (5)-cn, num edge types: 1
# Building blocks:
#     Node 0, Type 0, BuildingBlock: XOMCOT_clean_sbu_0, # of connection points: 5
#     Node 1, Type 0, BuildingBlock: XOMCOT_clean_sbu_0, # of connection points: 5
#     Node 2, Type 0, BuildingBlock: XOMCOT_clean_sbu_0, # of connection points: 5
#     Node 3, Type 0, BuildingBlock: XOMCOT_clean_sbu_0, # of connection points: 5
#     Node 4, Type 0, BuildingBlock: XOMCOT_clean_sbu_0, # of connection points: 5
#     Node 5, Type 0, BuildingBlock: XOMCOT_clean_sbu_0, # of connection points: 5
#     Node 6, Type 0, BuildingBlock: XOMCOT_clean_sbu_0, # of connection points: 5
#     Node 7, Type 0, BuildingBlock: XOMCOT_clean_sbu_0, # of connection points: 5
#     Edge 8, Type (0, 0), BuildingBlock: XIVTED_clean_linker_0, # of connection points: 2
#     Edge 9, Type (0, 0), BuildingBlock: XIVTED_clean_linker_0, # of connection points: 2
#     Edge 10, Type (0, 0), BuildingBlock: XIVTED_clean_linker_0, # of connection points: 2
#     Edge 11, Type (0, 0), BuildingBlock: XIVTED_clean_linker_0, # of connection points: 2
#     Edge 12, Type (0, 0), BuildingBlock: XIVTED_clean_linker_0, # of connection points: 2
#     Edge 13, Type (0, 0), BuildingBlock: XIVTED_clean_linker_0, # of connection points: 2
#     Edge 14, Type (0, 0), BuildingBlock: XIVTED_clean_linker_0, # of connection points: 2
#     Edge 15, Type (0, 0), BuildingBlock: XIVTED_clean_linker_0, # of connection points: 2
#     Edge 16, Type (0, 0), BuildingBlock: XIVTED_clean_linker_0, # of connection points: 2
#     Edge 17, Type (0, 0), BuildingBlock: XIVTED_clean_linker_0, # of connection points: 2
#     Edge 18, Type (0, 0), BuildingBlock: XIVTED_clean_linker_0, # of connection points: 2
#     Edge 19, Type (0, 0), BuildingBlock: XIVTED_clean_linker_0, # of connection points: 2
#     Edge 20, Type (0, 0), BuildingBlock: XIVTED_clean_linker_0, # of connection points: 2
#     Edge 21, Type (0, 0), BuildingBlock: XIVTED_clean_linker_0, # of connection points: 2
#     Edge 22, Type (0, 0), BuildingBlock: XIVTED_clean_linker_0, # of connection points: 2
#     Edge 23, Type (0, 0), BuildingBlock: XIVTED_clean_linker_0, # of connection points: 2
#     Edge 24, Type (0, 0), BuildingBlock: XIVTED_clean_linker_0, # of connection points: 2
#     Edge 25, Type (0, 0), BuildingBlock: XIVTED_clean_linker_0, # of connection points: 2
#     Edge 26, Type (0, 0), BuildingBlock: XIVTED_clean_linker_0, # of connection points: 2
#     Edge 27, Type (0, 0), BuildingBlock: XIVTED_clean_linker_0, # of connection points: 2
# Relax obj value: 0.204
# Max RMSD: 0.190
# Mean RMSD: 0.190
data_MOF--net-zfa--node1-XOMCOT_clean_sbu_0--edge1-XIVTED_clean_linker_0
_symmetry_space_group_name_H-M    P1
_symmetry_Int_Tables_number       1
_symmetry_cell_setting            triclinic
loop_
_symmetry_equiv_pos_as_xyz
'x, y, z'
_cell_length_a     31.47525
_cell_length_b     31.475675
_cell_length_c     41.869046
_cell_angle_alpha  90.012437
_cell_angle_beta   90.005441
_cell_angle_gamma 89.972044
loop_
_atom_site_label
_atom_site_type_symbol
_atom_site_fract_x
_atom_site_fract_y
_atom_site_fract_z
_atom_type_partial_charge
Co0 Co 0.1271 0.25768 0.35357 0.0
C1 C 0.10518 0.34945 0.35147 0.0
C2 C 0.10862 0.32547 0.39922 0.0
C3 C 0.09023 0.36484 0.40015 0.0
N4 N 0.11898 0.31568 0.36876 0.0
N5 N 0.08763 0.37973 0.37015 0.0
H6 H 0.10263 0.34958 0.32571 0.0
H7 H 0.10875 0.30358 0.41905 0.0
C8 C 0.17877 0.25924 0.41299 0.0
O9 O 0.19672 0.29355 0.40123 0.0
N10 N 0.13263 0.20005 0.33851 0.0
C11 C 0.14904 0.18785 0.31024 0.0
C12 C 0.13747 0.14648 0.30455 0.0
C13 C 0.11098 0.16619 0.34949 0.0
N14 N 0.11296 0.1331 0.32901 0.0
C15 C 0.19281 0.30082 0.31669 0.0
C16 C 0.25719 0.24546 0.33406 0.0
C17 C 0.26652 0.27793 0.31234 0.0
C18 C 0.23363 0.30587 0.30356 0.0
C19 C 0.21633 0.2414 0.34632 0.0
N20 N 0.18468 0.26914 0.33811 0.0
H21 H 0.1676 0.32159 0.30893 0.0
H22 H 0.20979 0.21477 0.36183 0.0
H23 H 0.16553 0.2085 0.29374 0.0
H24 H 0.09067 0.16732 0.37034 0.0
O25 O 0.09427 0.27027 0.31544 0.0
O26 O 0.06746 0.24789 0.36139 0.0
O27 O 0.14988 0.24009 0.39696 0.0
C28 C 0.06092 0.25909 0.3319 0.0
H29 H 0.07524 0.37921 0.42079 0.0
H30 H 0.1443 0.12869 0.28304 0.0
H31 H 0.28092 0.22218 0.34076 0.0
H32 H 0.23927 0.3312 0.28659 0.0
Co33 Co 0.263 0.62639 0.85307 0.0
C34 C 0.17147 0.60328 0.85023 0.0
C35 C 0.19496 0.60682 0.89812 0.0
C36 C 0.15574 0.58818 0.89884 0.0
N37 N 0.20494 0.61732 0.86773 0.0
N38 N 0.14117 0.58549 0.86875 0.0
H39 H 0.17156 0.6009 0.82446 0.0
H40 H 0.21663 0.60719 0.9181 0.0
C41 C 0.25947 0.67816 0.91238 0.0
O42 O 0.22499 0.69543 0.90029 0.0
N43 N 0.32079 0.63285 0.83867 0.0
C44 C 0.33339 0.64925 0.8105 0.0
C45 C 0.37522 0.63867 0.80562 0.0
C46 C 0.35486 0.61224 0.8504 0.0
N47 N 0.38851 0.61483 0.8305 0.0
C48 C 0.21925 0.69163 0.81598 0.0
C49 C 0.27348 0.75668 0.83387 0.0
C50 C 0.24101 0.76573 0.81208 0.0
C51 C 0.21366 0.73249 0.80302 0.0
C52 C 0.27808 0.7158 0.84598 0.0
N53 N 0.25088 0.68381 0.83753 0.0
H54 H 0.19892 0.66619 0.80804 0.0
H55 H 0.30464 0.70956 0.86164 0.0
H56 H 0.3128 0.66509 0.79359 0.0
H57 H 0.35362 0.59219 0.87138 0.0
O58 O 0.25163 0.59335 0.81482 0.0
O59 O 0.27371 0.56686 0.86096 0.0
O60 O 0.27942 0.64954 0.89661 0.0
C61 C 0.26316 0.56016 0.83135 0.0
H62 H 0.14117 0.57331 0.91943 0.0
H63 H 0.39348 0.64568 0.78437 0.0
H64 H 0.29635 0.78068 0.84078 0.0
H65 H 0.18835 0.73789 0.78598 0.0
Co66 Co 0.89388 0.76592 0.35219 0.0
C67 C 0.9096 0.67259 0.349 0.0
C68 C 0.90794 0.69547 0.39713 0.0
C69 C 0.91894 0.65336 0.39775 0.0
N70 N 0.90021 0.70744 0.36667 0.0
N71 N 0.92021 0.63911 0.36752 0.0
H72 H 0.91164 0.67227 0.32323 0.0
H73 H 0.90921 0.71648 0.41749 0.0
C74 C 0.84185 0.76495 0.41157 0.0
O75 O 0.82258 0.73158 0.39945 0.0
N76 N 0.88992 0.82395 0.33781 0.0
C77 C 0.87391 0.83715 0.30966 0.0
C78 C 0.8862 0.87845 0.30464 0.0
C79 C 0.91204 0.85715 0.34939 0.0
N80 N 0.91073 0.89079 0.3294 0.0
C81 C 0.8273 0.72546 0.31438 0.0
C82 C 0.76371 0.7809 0.33309 0.0
C83 C 0.75367 0.74881 0.3112 0.0
C84 C 0.78623 0.72096 0.30166 0.0
C85 C 0.80486 0.78437 0.345 0.0
N86 N 0.83605 0.75631 0.33636 0.0
H87 H 0.85215 0.70489 0.30584 0.0
H88 H 0.81193 0.81058 0.36079 0.0
H89 H 0.8571 0.81722 0.29283 0.0
H90 H 0.93211 0.85518 0.37033 0.0
O91 O 0.92666 0.75315 0.31408 0.0
O92 O 0.95365 0.77403 0.36039 0.0
O93 O 0.87141 0.78332 0.39573 0.0
C94 C 0.96013 0.76342 0.33076 0.0
H95 H 0.92891 0.63552 0.41856 0.0
H96 H 0.87979 0.89694 0.28339 0.0
H97 H 0.74026 0.80418 0.34032 0.0
H98 H 0.78013 0.69602 0.28444 0.0
Co99 Co 0.7549 0.39327 0.85326 0.0
C100 C 0.8483 0.40813 0.84963 0.0
C101 C 0.82596 0.4063 0.89789 0.0
C102 C 0.86824 0.41664 0.89831 0.0
N103 N 0.81355 0.39906 0.86747 0.0
N104 N 0.88213 0.41797 0.86799 0.0
H105 H 0.84838 0.41045 0.82387 0.0
H106 H 0.80519 0.40753 0.9184 0.0
C107 C 0.75645 0.34028 0.91214 0.0
O108 O 0.78966 0.32119 0.89959 0.0
N109 N 0.69671 0.38986 0.83903 0.0
C110 C 0.6834 0.37365 0.81096 0.0
C111 C 0.64242 0.38669 0.8056 0.0
C112 C 0.66385 0.41291 0.85019 0.0
N113 N 0.63038 0.41197 0.83001 0.0
C114 C 0.79457 0.32714 0.81452 0.0
C115 C 0.73921 0.26349 0.83309 0.0
C116 C 0.77087 0.2537 0.81078 0.0
C117 C 0.79871 0.28629 0.80135 0.0
C118 C 0.73613 0.30442 0.84548 0.0
N119 N 0.76414 0.33564 0.83687 0.0
H120 H 0.81503 0.35205 0.80597 0.0
H121 H 0.71017 0.31133 0.86154 0.0
H122 H 0.70313 0.35631 0.7943 0.0
H123 H 0.66603 0.43339 0.87089 0.0
O124 O 0.76747 0.42663 0.81538 0.0
O125 O 0.74718 0.45296 0.86205 0.0
O126 O 0.73788 0.37014 0.89672 0.0
C127 C 0.75754 0.45988 0.83243 0.0
H128 H 0.88654 0.426 0.91906 0.0
H129 H 0.62403 0.38032 0.78429 0.0
H130 H 0.7159 0.24005 0.84026 0.0
H131 H 0.82334 0.28041 0.78384 0.0
Co132 Co 0.62623 0.26351 0.19665 0.0
C133 C 0.61239 0.16994 0.19908 0.0
C134 C 0.61644 0.19292 0.15107 0.0
C135 C 0.60645 0.15058 0.15007 0.0
N136 N 0.62202 0.20502 0.18176 0.0
N137 N 0.6037 0.13627 0.18022 0.0
H138 H 0.60886 0.16953 0.22477 0.0
H139 H 0.61583 0.2139 0.13069 0.0
C140 C 0.68033 0.26516 0.13828 0.0
O141 O 0.70063 0.23254 0.15061 0.0
N142 N 0.62808 0.32138 0.2114 0.0
C143 C 0.63977 0.33405 0.24087 0.0
C144 C 0.62501 0.37462 0.24578 0.0
C145 C 0.60653 0.35425 0.19873 0.0
N146 N 0.60385 0.387 0.21937 0.0
C147 C 0.69314 0.22373 0.23448 0.0
C148 C 0.75518 0.28215 0.21825 0.0
C149 C 0.76588 0.24914 0.23918 0.0
C150 C 0.73408 0.21981 0.24749 0.0
C151 C 0.71415 0.28496 0.20597 0.0
N152 N 0.68381 0.25541 0.21334 0.0
H153 H 0.66886 0.20188 0.24205 0.0
H154 H 0.70657 0.31156 0.19068 0.0
H155 H 0.65461 0.31388 0.25856 0.0
H156 H 0.58911 0.35237 0.17647 0.0
O157 O 0.593 0.2495 0.23424 0.0
O158 O 0.56637 0.27011 0.18775 0.0
O159 O 0.64938 0.28203 0.15358 0.0
C160 C 0.55962 0.25924 0.21729 0.0
H161 H 0.59812 0.13256 0.12894 0.0
H162 H 0.62684 0.39236 0.26789 0.0
H163 H 0.77802 0.30647 0.21197 0.0
H164 H 0.74068 0.19406 0.26391 0.0
Co165 Co 0.25469 0.12599 0.69698 0.0
C166 C 0.34798 0.10804 0.69637 0.0
C167 C 0.32062 0.10909 0.64959 0.0
C168 C 0.36168 0.09541 0.64703 0.0
N169 N 0.31202 0.11861 0.68035 0.0
N170 N 0.379 0.0944 0.67642 0.0
H171 H 0.35038 0.10692 0.7221 0.0
H172 H 0.29758 0.10781 0.63051 0.0
C173 C 0.25406 0.17868 0.63814 0.0
O174 O 0.28854 0.19662 0.64965 0.0
N175 N 0.19759 0.13072 0.71328 0.0
C176 C 0.18621 0.14636 0.74199 0.0
C177 C 0.14499 0.1346 0.74815 0.0
C178 C 0.16343 0.10936 0.7025 0.0
N179 N 0.13091 0.11076 0.72352 0.0
C180 C 0.29844 0.19175 0.73368 0.0
C181 C 0.24244 0.256 0.71728 0.0
C182 C 0.27587 0.26556 0.73812 0.0
C183 C 0.30402 0.23267 0.7465 0.0
C184 C 0.2379 0.21503 0.70528 0.0
N185 N 0.26615 0.18349 0.7128 0.0
H186 H 0.31936 0.16662 0.74126 0.0
H187 H 0.21071 0.20838 0.69035 0.0
H188 H 0.2073 0.16255 0.75835 0.0
H189 H 0.16396 0.08975 0.68127 0.0
O190 O 0.26912 0.09262 0.73445 0.0
O191 O 0.24505 0.06641 0.68877 0.0
O192 O 0.23539 0.14945 0.65415 0.0
C193 C 0.25727 0.05948 0.71798 0.0
H194 H 0.37619 0.08301 0.62551 0.0
H195 H 0.12777 0.14096 0.76999 0.0
H196 H 0.21893 0.2797 0.71099 0.0
H197 H 0.33001 0.23841 0.76289 0.0
Co198 Co 0.3933 0.75723 0.19528 0.0
C199 C 0.41508 0.84901 0.19651 0.0
C200 C 0.40868 0.82498 0.14894 0.0
C201 C 0.4269 0.86436 0.14734 0.0
N202 N 0.40032 0.81518 0.17974 0.0
N203 N 0.4315 0.87923 0.17722 0.0
H204 H 0.41904 0.84924 0.22217 0.0
H205 H 0.40737 0.80314 0.12911 0.0
C206 C 0.33931 0.75717 0.13693 0.0
O207 O 0.3208 0.79114 0.1488 0.0
N208 N 0.38885 0.69976 0.21046 0.0
C209 C 0.37714 0.68762 0.23999 0.0
C210 C 0.38782 0.64564 0.24394 0.0
C211 C 0.40657 0.66534 0.19688 0.0
N212 N 0.40679 0.63168 0.21693 0.0
C213 C 0.32771 0.80097 0.23205 0.0
C214 C 0.26406 0.74368 0.21693 0.0
C215 C 0.2543 0.77755 0.2373 0.0
C216 C 0.28686 0.80636 0.24507 0.0
C217 C 0.30492 0.73935 0.20474 0.0
N218 N 0.33613 0.76813 0.2117 0.0
H219 H 0.35263 0.82267 0.23884 0.0
H220 H 0.31165 0.71212 0.18985 0.0
H221 H 0.36463 0.70866 0.25813 0.0
H222 H 0.42153 0.66611 0.17365 0.0
O223 O 0.42718 0.7703 0.23279 0.0
O224 O 0.45278 0.74774 0.18648 0.0
O225 O 0.36933 0.73905 0.15244 0.0
C226 C 0.46011 0.75907 0.21585 0.0
H227 H 0.4403 0.8788 0.12614 0.0
H228 H 0.38504 0.62804 0.26603 0.0
H229 H 0.24056 0.7198 0.21104 0.0
H230 H 0.28088 0.83277 0.26103 0.0
Co231 Co 0.76236 0.89304 0.69587 0.0
C232 C 0.66868 0.90872 0.6955 0.0
C233 C 0.6956 0.90749 0.64858 0.0
C234 C 0.65412 0.91989 0.64609 0.0
N235 N 0.70476 0.89882 0.6794 0.0
N236 N 0.63711 0.921 0.67556 0.0
H237 H 0.66644 0.9103 0.72123 0.0
H238 H 0.71839 0.90901 0.62934 0.0
C239 C 0.76411 0.83979 0.63733 0.0
O240 O 0.7302 0.82108 0.6491 0.0
N241 N 0.81964 0.88991 0.71203 0.0
C242 C 0.8315 0.87496 0.74083 0.0
C243 C 0.87246 0.88773 0.74679 0.0
C244 C 0.85327 0.91186 0.70098 0.0
N245 N 0.8859 0.91147 0.72192 0.0
C246 C 0.72027 0.82627 0.7326 0.0
C247 C 0.77791 0.76344 0.71628 0.0
C248 C 0.7445 0.75301 0.73687 0.0
C249 C 0.71556 0.78518 0.74528 0.0
C250 C 0.78161 0.80457 0.70446 0.0
N251 N 0.75251 0.83536 0.71187 0.0
H252 H 0.69866 0.85085 0.7401 0.0
H253 H 0.80871 0.81191 0.68961 0.0
H254 H 0.81084 0.85853 0.75736 0.0
H255 H 0.85224 0.93113 0.67959 0.0
O256 O 0.74723 0.92613 0.7333 0.0
O257 O 0.77039 0.95281 0.68751 0.0
O258 O 0.78204 0.86979 0.65305 0.0
C259 C 0.7581 0.9595 0.71674 0.0
H260 H 0.63894 0.93136 0.62454 0.0
H261 H 0.88994 0.88209 0.76864 0.0
H262 H 0.80196 0.74027 0.70999 0.0
H263 H 0.68958 0.77872 0.76152 0.0
H264 H 0.98141 0.62404 0.32331 0.0
H265 H 1.0047 0.3842 0.38395 0.0
H266 H 0.89904 0.56305 0.39133 0.0
H267 H 0.10507 0.44944 0.33437 0.0
H268 H 0.95773 0.44471 0.37482 0.0
H269 H 0.01927 0.55618 0.3157 0.0
C270 C 0.97065 0.596 0.33591 0.0
C271 C 0.93727 0.59877 0.35801 0.0
C272 C 0.98984 0.44586 0.36558 0.0
C273 C 0.98014 0.5218 0.34973 0.0
C274 C 0.01653 0.41135 0.37078 0.0
C275 C 0.05874 0.41246 0.3603 0.0
C276 C 1.00559 0.48211 0.35005 0.0
C277 C 0.07267 0.44783 0.34292 0.0
C278 C 0.99238 0.55752 0.3318 0.0
C279 C 0.92478 0.56198 0.3742 0.0
N280 N 0.04627 0.48176 0.33871 0.0
N281 N 0.94633 0.52512 0.36988 0.0
H282 H 0.95806 0.39267 0.88946 0.0
H283 H 0.07362 0.60318 0.83074 0.0
H284 H 0.8977 0.48146 0.82584 0.0
H285 H 0.13372 0.50334 0.88451 0.0
H286 H 0.01179 0.55632 0.82193 0.0
H287 H 0.02574 0.42884 0.88128 0.0
C288 C 0.95952 0.41943 0.87323 0.0
C289 C 0.92267 0.43424 0.85831 0.0
C290 C 0.03885 0.54446 0.83518 0.0
C291 C 0.99949 0.47693 0.84946 0.0
C292 C 0.07397 0.57111 0.84008 0.0
C293 C 0.1081 0.55707 0.85877 0.0
C294 C 0.03834 0.50373 0.84912 0.0
C295 C 0.10749 0.5154 0.87046 0.0
C296 C 0.99801 0.44023 0.86858 0.0
C297 C 0.92576 0.46908 0.83755 0.0
N298 N 0.07304 0.49041 0.86573 0.0
N299 N 0.96346 0.48986 0.83415 0.0
H300 H 0.41795 0.94428 0.2186 0.0
H301 H 0.62773 0.06068 0.15721 0.0
H302 H 0.51133 0.88887 0.15607 0.0
H303 H 0.54017 0.12013 0.22231 0.0
H304 H 0.59041 0.99339 0.16401 0.0
H305 H 0.466 1.0052 0.22747 0.0
C306 C 0.44881 0.94481 0.20719 0.0
C307 C 0.46059 0.9123 0.18611 0.0
C308 C 0.5795 0.02083 0.17728 0.0
C309 C 0.51537 0.98091 0.19601 0.0
C310 C 0.60098 0.0591 0.17344 0.0
C311 C 0.58682 0.09565 0.18914 0.0
C312 C 0.54285 0.01926 0.19646 0.0
C313 C 0.55204 0.09235 0.20996 0.0
C314 C 0.47613 0.9794 0.21215 0.0
C315 C 0.50084 0.91393 0.17192 0.0
N316 N 0.53065 0.05488 0.21261 0.0
N317 N 0.52655 0.94776 0.17691 0.0
H318 H 0.56628 0.91821 0.63972 0.0
H319 H 0.40052 0.05056 0.73064 0.0
H320 H 0.61577 0.96805 0.72821 0.0
H321 H 0.44875 0.09155 0.63922 0.0
H322 H 0.46415 1.00546 0.73714 0.0
H323 H 0.50342 0.96295 0.646 0.0
C324 C 0.56358 0.93804 0.66075 0.0
C325 C 0.59668 0.94005 0.68311 0.0
C326 C 0.46078 0.02503 0.71602 0.0
C327 C 0.52456 0.99057 0.69063 0.0
C328 C 0.42475 0.05087 0.71231 0.0
C329 C 0.41894 0.0743 0.684 0.0
C330 C 0.49035 0.02242 0.69105 0.0
C331 C 0.45131 0.07321 0.66098 0.0
C332 C 0.52778 0.96341 0.66429 0.0
C333 C 0.59102 0.96564 0.71037 0.0
N334 N 0.4851 0.04702 0.66469 0.0
N335 N 0.55568 0.9905 0.71326 0.0
H336 H 0.53605 0.24362 0.27921 0.0
H337 H 0.2891 0.29439 0.24996 0.0
H338 H 0.48496 0.28018 0.18762 0.0
H339 H 0.34312 0.2667 0.34238 0.0
H340 H 0.36041 0.29066 0.22661 0.0
H341 H 0.46518 0.25122 0.30252 0.0
C342 C 0.50988 0.25299 0.26395 0.0
C343 C 0.51646 0.26114 0.2314 0.0
C344 C 0.35665 0.2856 0.25203 0.0
C345 C 0.43514 0.2703 0.25798 0.0
C346 C 0.31595 0.28811 0.26543 0.0
C347 C 0.30993 0.28054 0.29818 0.0
C348 C 0.39165 0.27544 0.27149 0.0
C349 C 0.34602 0.27202 0.31693 0.0
C350 C 0.46941 0.25754 0.2773 0.0
C351 C 0.48135 0.27343 0.21282 0.0
N352 N 0.38514 0.26948 0.30333 0.0
N353 N 0.44226 0.27763 0.22635 0.0
H354 H 0.27443 0.03551 0.77965 0.0
H355 H 0.22412 0.78869 0.74982 0.0
H356 H 0.23462 0.98524 0.68857 0.0
H357 H 0.2513 0.84223 0.84249 0.0
H358 H 0.22697 0.86021 0.72682 0.0
H359 H 0.26727 0.96447 0.80281 0.0
C360 C 0.26439 0.0095 0.76448 0.0
C361 C 0.25521 0.01635 0.73211 0.0
C362 C 0.2321 0.8563 0.75222 0.0
C363 C 0.24664 0.93486 0.7585 0.0
C364 C 0.2301 0.81546 0.76542 0.0
C365 C 0.23781 0.80924 0.79813 0.0
C366 C 0.24193 0.89124 0.77184 0.0
C367 C 0.24593 0.84527 0.81706 0.0
C368 C 0.2601 0.96894 0.77774 0.0
C369 C 0.24212 0.98144 0.71363 0.0
N370 N 0.24802 0.88453 0.80364 0.0
N371 N 0.23826 0.94227 0.72706 0.0
H372 H 0.53407 0.73793 0.18541 0.0
H373 H 0.67794 0.75995 0.34251 0.0
H374 H 0.48515 0.77585 0.27736 0.0
H375 H 0.72917 0.73211 0.24922 0.0
H376 H 0.60676 0.76223 0.31948 0.0
H377 H 0.6052 0.73281 0.20859 0.0
C378 C 0.53829 0.74532 0.21048 0.0
C379 C 0.50355 0.75744 0.22947 0.0
C380 C 0.63351 0.75549 0.30402 0.0
C381 C 0.58505 0.75131 0.25625 0.0
C382 C 0.67426 0.75427 0.31715 0.0
C383 C 0.70983 0.74617 0.29777 0.0
C384 C 0.62794 0.74851 0.27117 0.0
C385 C 0.7028 0.73818 0.26517 0.0
C386 C 0.57896 0.7423 0.22371 0.0
C387 C 0.51098 0.76651 0.26181 0.0
N388 N 0.66275 0.73977 0.25289 0.0
N389 N 0.55086 0.76321 0.27416 0.0
H390 H 0.78714 0.23062 0.74846 0.0
H391 H 0.73985 0.98322 0.77829 0.0
H392 H 0.75891 0.17724 0.841 0.0
H393 H 0.77916 0.03417 0.68731 0.0
H394 H 0.74515 0.05448 0.80139 0.0
H395 H 0.78459 0.15914 0.72551 0.0
C396 C 0.7809 0.2039 0.76405 0.0
C397 C 0.77299 0.21017 0.79673 0.0
C398 C 0.75258 0.0501 0.77636 0.0
C399 C 0.76926 0.12814 0.77045 0.0
C400 C 0.74938 0.00942 0.76313 0.0
C401 C 0.75899 1.00271 0.73081 0.0
C402 C 0.76541 0.08442 0.75713 0.0
C403 C 0.77136 0.03786 0.71234 0.0
C404 C 0.7791 0.16307 0.75086 0.0
C405 C 0.76448 0.17418 0.8156 0.0
N406 N 0.77421 0.07713 0.72574 0.0
N407 N 0.76266 0.13489 0.80219 0.0
H408 H 0.03705 0.27794 0.27047 0.0
H409 H 0.78998 0.22885 0.30058 0.0
H410 H 0.98652 0.23665 0.36108 0.0
H411 H 0.84173 0.2645 0.20896 0.0
H412 H 0.86177 0.23025 0.32301 0.0
H413 H 0.96563 0.27334 0.24753 0.0
C414 C 0.01093 0.26802 0.28556 0.0
C415 C 0.01779 0.25772 0.31774 0.0
C416 C 0.85742 0.23764 0.29797 0.0
C417 C 0.93589 0.25218 0.29164 0.0
C418 C 0.81642 0.23652 0.28507 0.0
C419 C 0.80961 0.24679 0.25283 0.0
C420 C 0.892 0.24911 0.27853 0.0
C421 C 0.84523 0.25705 0.23406 0.0
C422 C 0.97014 0.26528 0.27244 0.0
C423 C 0.98273 0.24495 0.33615 0.0
N424 N 0.88473 0.25809 0.24718 0.0
N425 N 0.94337 0.24255 0.32286 0.0
H426 H 0.24652 0.5363 0.76957 0.0
H427 H 0.29576 0.28921 0.79974 0.0
H428 H 0.28609 0.48589 0.86066 0.0
H429 H 0.26351 0.34172 0.70767 0.0
H430 H 0.29433 0.361 0.82234 0.0
H431 H 0.25288 0.46512 0.74649 0.0
C432 C 0.25644 0.51026 0.78474 0.0
C433 C 0.26569 0.51709 0.81711 0.0
C434 C 0.28776 0.35681 0.79715 0.0
C435 C 0.27326 0.4354 0.79083 0.0
C436 C 0.28892 0.31582 0.78417 0.0
C437 C 0.27944 0.30923 0.75176 0.0
C438 C 0.27704 0.39157 0.77763 0.0
C439 C 0.27029 0.34506 0.73289 0.0
C440 C 0.26021 0.4696 0.77154 0.0
C441 C 0.27855 0.48211 0.83559 0.0
N442 N 0.26911 0.3845 0.7461 0.0
N443 N 0.2819 0.44284 0.82223 0.0
H444 H 0.98388 0.74667 0.26896 0.0
H445 H 0.23066 0.79794 0.29879 0.0
H446 H 0.0345 0.78555 0.36016 0.0
H447 H 0.17828 0.76438 0.20695 0.0
H448 H 0.15894 0.79579 0.32152 0.0
H449 H 0.05499 0.75337 0.2458 0.0
C450 C 0.00997 0.75644 0.28414 0.0
C451 C 1.00321 0.76544 0.31656 0.0
C452 C 0.16314 0.78909 0.29635 0.0
C453 C 0.08476 0.7735 0.29019 0.0
C454 C 0.20407 0.79068 0.28331 0.0
C455 C 0.21066 0.781 0.25094 0.0
C456 C 0.12847 0.77777 0.27691 0.0
C457 C 0.17491 0.77133 0.23214 0.0
C458 C 0.05057 0.76043 0.2709 0.0
C459 C 0.03822 0.77816 0.33506 0.0
N460 N 0.13553 0.76975 0.2454 0.0
N461 N 0.07742 0.7818 0.32164 0.0
H462 H 0.7575 0.6776 0.70563 0.0
H463 H 0.73641 0.53384 0.86278 0.0
H464 H 0.72561 0.72819 0.79837 0.0
H465 H 0.77336 0.48468 0.77067 0.0
H466 H 0.73018 0.60472 0.83944 0.0
H467 H 0.76029 0.60642 0.72863 0.0
C468 C 0.75097 0.67375 0.73086 0.0
C469 C 0.74165 0.70913 0.75013 0.0
C470 C 0.73971 0.57849 0.82431 0.0
C471 C 0.74471 0.62729 0.7767 0.0
C472 C 0.74341 0.53797 0.83764 0.0
C473 C 0.75558 0.50322 0.81867 0.0
C474 C 0.74814 0.58448 0.79169 0.0
C475 C 0.76403 0.51053 0.78622 0.0
C476 C 0.75252 0.633 0.74398 0.0
C477 C 0.73267 0.70193 0.78254 0.0
N478 N 0.76013 0.55031 0.77377 0.0
N479 N 0.73469 0.6619 0.79483 0.0
H480 H 0.24075 0.29138 0.45132 0.0
H481 H 0.1904 0.14238 0.60184 0.0
H482 H 0.14233 0.1959 0.44946 0.0
H483 H 0.28564 0.24102 0.59993 0.0
H484 H 0.17126 0.16048 0.54655 0.0
H485 H 0.25733 0.27163 0.50593 0.0
C486 C 0.22261 0.26611 0.46237 0.0
C487 C 0.18998 0.24538 0.44572 0.0
C488 C 0.19626 0.17814 0.55836 0.0
C489 C 0.20883 0.22252 0.50881 0.0
C490 C 0.2071 0.16793 0.58991 0.0
C491 C 0.23976 0.19014 0.60555 0.0
C492 C 0.21827 0.21074 0.54245 0.0
C493 C 0.26037 0.22287 0.58891 0.0
C494 C 0.23209 0.25485 0.4937 0.0
C495 C 0.16777 0.21273 0.4614 0.0
N496 N 0.24935 0.23204 0.55838 0.0
N497 N 0.17753 0.20235 0.49215 0.0
H498 H 0.37608 0.6938 0.10082 0.0
H499 H 0.22502 0.73913 0.9506 0.0
H500 H 0.27636 0.78802 0.09871 0.0
H501 H 0.32389 0.64401 0.94898 0.0
H502 H 0.24439 0.7568 1.00514 0.0
H503 H 0.35787 0.67384 0.04581 0.0
C504 C 0.35027 0.71014 0.08889 0.0
C505 C 0.32779 0.74274 0.10441 0.0
C506 C 0.26199 0.73206 0.99296 0.0
C507 C 0.307 0.72022 0.04157 0.0
C508 C 0.25095 0.72195 0.96168 0.0
C509 C 0.27279 0.68994 0.94512 0.0
C510 C 0.2952 0.71006 1.00806 0.0
C511 C 0.3062 0.66894 0.96084 0.0
C512 C 0.33999 0.69881 0.05749 0.0
C513 C 0.29471 0.76282 0.08777 0.0
N514 N 0.31635 0.67931 0.9915 0.0
N515 N 0.28543 0.7513 0.05734 0.0
H516 H 0.73528 0.77479 0.60048 0.0
H517 H 0.87825 0.82885 0.44751 0.0
H518 H 0.8253 0.87824 0.59986 0.0
H519 H 0.78176 0.7315 0.45099 0.0
H520 H 0.86149 0.84748 0.50312 0.0
H521 H 0.7549 0.75779 0.54595 0.0
C522 C 0.75936 0.79394 0.5889 0.0
C523 C 0.77851 0.82816 0.60481 0.0
C524 C 0.84403 0.82212 0.4916 0.0
C525 C 0.80119 0.80882 0.54178 0.0
C526 C 0.85349 0.81153 0.45987 0.0
C527 C 0.83143 0.7785 0.44453 0.0
C528 C 0.81238 0.79943 0.50802 0.0
C529 C 0.79972 0.75712 0.46172 0.0
C530 C 0.77054 0.78422 0.55761 0.0
C531 C 0.80971 0.85159 0.58849 0.0
N532 N 0.79127 0.7679 0.49243 0.0
N533 N 0.82001 0.84158 0.55776 0.0
H534 H 0.64157 0.3269 0.1016 0.0
H535 H 0.78939 0.27826 0.95012 0.0
H536 H 0.74341 0.23497 0.09994 0.0
H537 H 0.69385 0.37674 0.9494 0.0
H538 H 0.77067 0.26159 1.00492 0.0
H539 H 0.65862 0.34595 0.04615 0.0
C540 C 0.66759 0.31088 0.08968 0.0
C541 C 0.69103 0.27919 0.10547 0.0
C542 C 0.75366 0.28687 0.9929 0.0
C543 C 0.71044 0.30061 0.04213 0.0
C544 C 0.76431 0.29639 0.96145 0.0
C545 C 0.74326 0.32907 0.94505 0.0
C546 C 0.72159 0.31009 1.00837 0.0
C547 C 0.71093 0.35129 0.96112 0.0
C548 C 0.67722 0.3217 0.05803 0.0
C549 C 0.72434 0.25949 0.08883 0.0
N550 N 0.7011 0.34144 0.99196 0.0
N551 N 0.73291 0.27043 0.05817 0.0
H552 H 0.94285 0.92942 0.38216 0.0
H553 H 0.08341 0.08901 0.27791 0.0
H554 H 0.94179 0.93546 0.27917 0.0
H555 H 0.08026 0.093 0.38096 0.0
H556 H 0.03374 0.03021 0.27874 0.0
H557 H 0.99411 0.98804 0.38306 0.0
C558 C 0.95321 0.94318 0.35979 0.0
C559 C 0.93788 0.92754 0.33058 0.0
C560 C 0.04396 0.04375 0.30124 0.0
C561 C 0.99645 0.99424 0.33138 0.0
C562 C 0.07282 0.07716 0.3008 0.0
C563 C 0.08624 0.096 0.32945 0.0
C564 C 0.02821 0.02887 0.33053 0.0
C565 C 0.07046 0.07964 0.35832 0.0
C566 C 0.98238 0.9766 0.36031 0.0
C567 C 0.95208 0.94675 0.30229 0.0
N568 N 0.04218 0.047 0.35814 0.0
N569 N 0.98065 0.9789 0.30343 0.0
H570 H 0.42782 0.58365 0.88332 0.0
H571 H 0.58739 0.44317 0.779 0.0
H572 H 0.43462 0.58552 0.78035 0.0
H573 H 0.59159 0.44608 0.88204 0.0
H574 H 0.52961 0.49405 0.77991 0.0
H575 H 0.48721 0.53326 0.88425 0.0
C576 C 0.44194 0.57372 0.86096 0.0
C577 C 0.42614 0.58888 0.83173 0.0
C578 C 0.543 0.48357 0.8024 0.0
C579 C 0.49377 0.53131 0.8326 0.0
C580 C 0.57579 0.454 0.80191 0.0
C581 C 0.59427 0.44003 0.83054 0.0
C582 C 0.52833 0.49944 0.83171 0.0
C583 C 0.5784 0.45622 0.85943 0.0
C584 C 0.47581 0.54503 0.86151 0.0
C585 C 0.44591 0.57529 0.80348 0.0
N586 N 0.54626 0.48511 0.85931 0.0
N587 N 0.47844 0.54714 0.80465 0.0
H588 H 0.39788 0.5592 0.25163 0.0
H589 H 0.58829 0.43539 0.16737 0.0
H590 H 0.46974 0.61393 0.17386 0.0
H591 H 0.55236 0.41686 0.26571 0.0
H592 H 0.53584 0.49324 0.16344 0.0
H593 H 0.44474 0.49758 0.25052 0.0
C594 C 0.42329 0.5584 0.23425 0.0
C595 C 0.43021 0.59255 0.21331 0.0
C596 C 0.53964 0.47648 0.18585 0.0
C597 C 0.48346 0.52157 0.2116 0.0
C598 C 0.56942 0.44372 0.18807 0.0
C599 C 0.5749 0.42203 0.21701 0.0
C600 C 0.5147 0.4867 0.21258 0.0
C601 C 0.54965 0.4335 0.2432 0.0
C602 C 0.44996 0.52311 0.23362 0.0
C603 C 0.46297 0.58874 0.1906 0.0
N604 N 0.52047 0.46495 0.24033 0.0
N605 N 0.48856 0.55399 0.19049 0.0
H606 H 0.0867 0.08111 0.77457 0.0
H607 H 0.9265 0.9421 0.66948 0.0
H608 H 0.09001 0.07917 0.67148 0.0
H609 H 0.92911 0.94362 0.77256 0.0
H610 H 0.98567 0.99266 0.66898 0.0
H611 H 0.02714 0.03232 0.77356 0.0
C612 C 0.07458 0.07097 0.75163 0.0
C613 C 0.09347 0.08446 0.72302 0.0
C614 C 0.97334 0.9817 0.69167 0.0
C615 C 0.02543 0.02745 0.72174 0.0
C616 C 0.93958 0.9529 0.69197 0.0
C617 C 0.92282 0.93846 0.72109 0.0
C618 C 0.99027 0.99624 0.72072 0.0
C619 C 0.94125 0.95321 0.74953 0.0
C620 C 0.04071 0.04262 0.75109 0.0
C621 C 0.0767 0.06928 0.6941 0.0
N622 N 0.97381 0.98135 0.74859 0.0
N623 N 0.04364 0.04148 0.69418 0.0
loop_
_geom_bond_atom_site_label_1
_geom_bond_atom_site_label_2
_geom_bond_distance
_geom_bond_site_symmetry_2
_ccdc_geom_bond_type
Co0 N4 2.148 . S
Co0 N10 2.128 . S
Co0 N20 2.194 . S
Co0 O25 2.351 . S
Co0 O26 2.155 1_455 S
Co0 O27 2.096 . S
C1 N4 1.301 . S
C1 N5 1.328 . S
C1 H6 0.930 . S
C2 C3 1.333 . S
C2 N4 1.317 . S
C2 H7 0.930 . S
C3 C2 1.333 . S
C3 N5 1.350 . S
C3 H29 0.931 . S
N4 Co0 2.148 . S
N4 C1 1.301 . S
N4 C2 1.317 . S
N5 C1 1.328 . S
N5 C3 1.350 . S
H6 C1 0.930 . S
H7 C2 0.930 . S
C8 O9 1.224 . S
C8 O27 1.247 . S
O9 C8 1.224 . S
N10 Co0 2.128 . S
N10 C11 1.355 . S
N10 C13 1.311 . S
C11 N10 1.355 . S
C11 C12 1.363 . S
C11 H23 0.929 . S
C12 C11 1.363 . S
C12 N14 1.375 . S
C12 H30 0.931 . S
C13 N10 1.311 . S
C13 N14 1.347 . S
C13 H24 0.929 . S
N14 C12 1.375 . S
N14 C13 1.347 . S
C15 C18 1.365 . S
C15 N20 1.328 . S
C15 H21 0.929 . S
C16 C17 1.362 . S
C16 C19 1.378 . S
C16 H31 0.929 . S
C17 C16 1.362 . S
C17 C18 1.366 . S
C18 C15 1.365 . S
C18 C17 1.366 . S
C18 H32 0.930 . S
C19 C16 1.378 . S
C19 N20 1.315 . S
C19 H22 0.930 . S
N20 Co0 2.194 . S
N20 C15 1.328 . S
N20 C19 1.315 . S
H21 C15 0.929 . S
H22 C19 0.930 . S
H23 C11 0.929 . S
H24 C13 0.929 . S
O25 Co0 2.351 . S
O25 C28 1.244 1_455 S
O26 Co0 2.155 1_655 S
O26 C28 1.240 . S
O27 Co0 2.096 . S
O27 C8 1.247 . S
C28 O25 1.244 1_655 S
C28 O26 1.240 . S
H29 C3 0.931 . S
H30 C12 0.931 . S
H31 C16 0.929 . S
H32 C18 0.930 . S
Co33 N37 2.148 . S
Co33 N43 2.128 . S
Co33 N53 2.194 . S
Co33 O58 2.351 . S
Co33 O59 2.155 . S
Co33 O60 2.096 . S
C34 N37 1.301 . S
C34 N38 1.328 . S
C34 H39 0.930 . S
C35 C36 1.333 . S
C35 N37 1.317 . S
C35 H40 0.930 . S
C36 C35 1.333 . S
C36 N38 1.350 . S
C36 H62 0.931 . S
N37 Co33 2.148 . S
N37 C34 1.301 . S
N37 C35 1.317 . S
N38 C34 1.328 . S
N38 C36 1.350 . S
H39 C34 0.930 . S
H40 C35 0.930 . S
C41 O42 1.224 . S
C41 O60 1.247 . S
O42 C41 1.224 . S
N43 Co33 2.128 . S
N43 C44 1.355 . S
N43 C46 1.311 . S
C44 N43 1.355 . S
C44 C45 1.363 . S
C44 H56 0.929 . S
C45 C44 1.363 . S
C45 N47 1.375 . S
C45 H63 0.931 . S
C46 N43 1.311 . S
C46 N47 1.347 . S
C46 H57 0.929 . S
N47 C45 1.375 . S
N47 C46 1.347 . S
C48 C51 1.365 . S
C48 N53 1.328 . S
C48 H54 0.929 . S
C49 C50 1.362 . S
C49 C52 1.378 . S
C49 H64 0.929 . S
C50 C49 1.362 . S
C50 C51 1.366 . S
C51 C48 1.365 . S
C51 C50 1.366 . S
C51 H65 0.930 . S
C52 C49 1.378 . S
C52 N53 1.315 . S
C52 H55 0.930 . S
N53 Co33 2.194 . S
N53 C48 1.328 . S
N53 C52 1.315 . S
H54 C48 0.929 . S
H55 C52 0.930 . S
H56 C44 0.929 . S
H57 C46 0.929 . S
O58 Co33 2.351 . S
O58 C61 1.244 . S
O59 Co33 2.155 . S
O59 C61 1.240 . S
O60 Co33 2.096 . S
O60 C41 1.247 . S
C61 O58 1.244 . S
C61 O59 1.240 . S
H62 C36 0.931 . S
H63 C45 0.931 . S
H64 C49 0.929 . S
H65 C51 0.930 . S
Co66 N70 2.148 . S
Co66 N76 2.128 . S
Co66 N86 2.194 . S
Co66 O91 2.351 . S
Co66 O92 2.155 1_655 S
Co66 O93 2.096 . S
C67 N70 1.301 . S
C67 N71 1.328 . S
C67 H72 0.930 . S
C68 C69 1.333 . S
C68 N70 1.317 . S
C68 H73 0.930 . S
C69 C68 1.333 . S
C69 N71 1.350 . S
C69 H95 0.931 . S
N70 Co66 2.148 . S
N70 C67 1.301 . S
N70 C68 1.317 . S
N71 C67 1.328 . S
N71 C69 1.350 . S
H72 C67 0.930 . S
H73 C68 0.930 . S
C74 O75 1.224 . S
C74 O93 1.247 . S
O75 C74 1.224 . S
N76 Co66 2.128 . S
N76 C77 1.355 . S
N76 C79 1.311 . S
C77 N76 1.355 . S
C77 C78 1.363 . S
C77 H89 0.929 . S
C78 C77 1.363 . S
C78 N80 1.375 . S
C78 H96 0.931 . S
C79 N76 1.311 . S
C79 N80 1.347 . S
C79 H90 0.929 . S
N80 C78 1.375 . S
N80 C79 1.347 . S
C81 C84 1.365 . S
C81 N86 1.328 . S
C81 H87 0.929 . S
C82 C83 1.362 . S
C82 C85 1.378 . S
C82 H97 0.929 . S
C83 C82 1.362 . S
C83 C84 1.366 . S
C84 C81 1.365 . S
C84 C83 1.366 . S
C84 H98 0.930 . S
C85 C82 1.378 . S
C85 N86 1.315 . S
C85 H88 0.930 . S
N86 Co66 2.194 . S
N86 C81 1.328 . S
N86 C85 1.315 . S
H87 C81 0.929 . S
H88 C85 0.930 . S
H89 C77 0.929 . S
H90 C79 0.929 . S
O91 Co66 2.351 . S
O91 C94 1.244 1_655 S
O92 Co66 2.155 1_455 S
O92 C94 1.240 . S
O93 Co66 2.096 . S
O93 C74 1.247 . S
C94 O91 1.244 1_455 S
C94 O92 1.240 . S
H95 C69 0.931 . S
H96 C78 0.931 . S
H97 C82 0.929 . S
H98 C84 0.930 . S
Co99 N103 2.148 . S
Co99 N109 2.128 . S
Co99 N119 2.194 . S
Co99 O124 2.351 . S
Co99 O125 2.155 . S
Co99 O126 2.096 . S
C100 N103 1.301 . S
C100 N104 1.328 . S
C100 H105 0.930 . S
C101 C102 1.333 . S
C101 N103 1.317 . S
C101 H106 0.930 . S
C102 C101 1.333 . S
C102 N104 1.350 . S
C102 H128 0.931 . S
N103 Co99 2.148 . S
N103 C100 1.301 . S
N103 C101 1.317 . S
N104 C100 1.328 . S
N104 C102 1.350 . S
H105 C100 0.930 . S
H106 C101 0.930 . S
C107 O108 1.224 . S
C107 O126 1.247 . S
O108 C107 1.224 . S
N109 Co99 2.128 . S
N109 C110 1.355 . S
N109 C112 1.311 . S
C110 N109 1.355 . S
C110 C111 1.363 . S
C110 H122 0.929 . S
C111 C110 1.363 . S
C111 N113 1.375 . S
C111 H129 0.931 . S
C112 N109 1.311 . S
C112 N113 1.347 . S
C112 H123 0.929 . S
N113 C111 1.375 . S
N113 C112 1.347 . S
C114 C117 1.365 . S
C114 N119 1.328 . S
C114 H120 0.929 . S
C115 C116 1.362 . S
C115 C118 1.378 . S
C115 H130 0.929 . S
C116 C115 1.362 . S
C116 C117 1.366 . S
C117 C114 1.365 . S
C117 C116 1.366 . S
C117 H131 0.930 . S
C118 C115 1.378 . S
C118 N119 1.315 . S
C118 H121 0.930 . S
N119 Co99 2.194 . S
N119 C114 1.328 . S
N119 C118 1.315 . S
H120 C114 0.929 . S
H121 C118 0.930 . S
H122 C110 0.929 . S
H123 C112 0.929 . S
O124 Co99 2.351 . S
O124 C127 1.244 . S
O125 Co99 2.155 . S
O125 C127 1.240 . S
O126 Co99 2.096 . S
O126 C107 1.247 . S
C127 O124 1.244 . S
C127 O125 1.240 . S
H128 C102 0.931 . S
H129 C111 0.931 . S
H130 C115 0.929 . S
H131 C117 0.930 . S
Co132 N136 2.148 . S
Co132 N142 2.128 . S
Co132 N152 2.194 . S
Co132 O157 2.351 . S
Co132 O158 2.155 . S
Co132 O159 2.096 . S
C133 N136 1.301 . S
C133 N137 1.328 . S
C133 H138 0.930 . S
C134 C135 1.333 . S
C134 N136 1.317 . S
C134 H139 0.930 . S
C135 C134 1.333 . S
C135 N137 1.350 . S
C135 H161 0.931 . S
N136 Co132 2.148 . S
N136 C133 1.301 . S
N136 C134 1.317 . S
N137 C133 1.328 . S
N137 C135 1.350 . S
H138 C133 0.930 . S
H139 C134 0.930 . S
C140 O141 1.224 . S
C140 O159 1.247 . S
O141 C140 1.224 . S
N142 Co132 2.128 . S
N142 C143 1.355 . S
N142 C145 1.311 . S
C143 N142 1.355 . S
C143 C144 1.363 . S
C143 H155 0.929 . S
C144 C143 1.363 . S
C144 N146 1.375 . S
C144 H162 0.931 . S
C145 N142 1.311 . S
C145 N146 1.347 . S
C145 H156 0.929 . S
N146 C144 1.375 . S
N146 C145 1.347 . S
C147 C150 1.365 . S
C147 N152 1.328 . S
C147 H153 0.929 . S
C148 C149 1.362 . S
C148 C151 1.378 . S
C148 H163 0.929 . S
C149 C148 1.362 . S
C149 C150 1.366 . S
C150 C147 1.365 . S
C150 C149 1.366 . S
C150 H164 0.930 . S
C151 C148 1.378 . S
C151 N152 1.315 . S
C151 H154 0.930 . S
N152 Co132 2.194 . S
N152 C147 1.328 . S
N152 C151 1.315 . S
H153 C147 0.929 . S
H154 C151 0.930 . S
H155 C143 0.929 . S
H156 C145 0.929 . S
O157 Co132 2.351 . S
O157 C160 1.244 . S
O158 Co132 2.155 . S
O158 C160 1.240 . S
O159 Co132 2.096 . S
O159 C140 1.247 . S
C160 O157 1.244 . S
C160 O158 1.240 . S
H161 C135 0.931 . S
H162 C144 0.931 . S
H163 C148 0.929 . S
H164 C150 0.930 . S
Co165 N169 2.148 . S
Co165 N175 2.128 . S
Co165 N185 2.194 . S
Co165 O190 2.351 . S
Co165 O191 2.155 1_545 S
Co165 O192 2.096 . S
C166 N169 1.301 . S
C166 N170 1.328 . S
C166 H171 0.930 . S
C167 C168 1.333 . S
C167 N169 1.317 . S
C167 H172 0.930 . S
C168 C167 1.333 . S
C168 N170 1.350 . S
C168 H194 0.931 . S
N169 Co165 2.148 . S
N169 C166 1.301 . S
N169 C167 1.317 . S
N170 C166 1.328 . S
N170 C168 1.350 . S
H171 C166 0.930 . S
H172 C167 0.930 . S
C173 O174 1.224 . S
C173 O192 1.247 . S
O174 C173 1.224 . S
N175 Co165 2.128 . S
N175 C176 1.355 . S
N175 C178 1.311 . S
C176 N175 1.355 . S
C176 C177 1.363 . S
C176 H188 0.929 . S
C177 C176 1.363 . S
C177 N179 1.375 . S
C177 H195 0.931 . S
C178 N175 1.311 . S
C178 N179 1.347 . S
C178 H189 0.929 . S
N179 C177 1.375 . S
N179 C178 1.347 . S
C180 C183 1.365 . S
C180 N185 1.328 . S
C180 H186 0.929 . S
C181 C182 1.362 . S
C181 C184 1.378 . S
C181 H196 0.929 . S
C182 C181 1.362 . S
C182 C183 1.366 . S
C183 C180 1.365 . S
C183 C182 1.366 . S
C183 H197 0.930 . S
C184 C181 1.378 . S
C184 N185 1.315 . S
C184 H187 0.930 . S
N185 Co165 2.194 . S
N185 C180 1.328 . S
N185 C184 1.315 . S
H186 C180 0.929 . S
H187 C184 0.930 . S
H188 C176 0.929 . S
H189 C178 0.929 . S
O190 Co165 2.351 . S
O190 C193 1.244 1_545 S
O191 Co165 2.155 1_565 S
O191 C193 1.240 . S
O192 Co165 2.096 . S
O192 C173 1.247 . S
C193 O190 1.244 1_565 S
C193 O191 1.240 . S
H194 C168 0.931 . S
H195 C177 0.931 . S
H196 C181 0.929 . S
H197 C183 0.930 . S
Co198 N202 2.148 . S
Co198 N208 2.128 . S
Co198 N218 2.194 . S
Co198 O223 2.351 . S
Co198 O224 2.155 . S
Co198 O225 2.096 . S
C199 N202 1.301 . S
C199 N203 1.328 . S
C199 H204 0.930 . S
C200 C201 1.333 . S
C200 N202 1.317 . S
C200 H205 0.930 . S
C201 C200 1.333 . S
C201 N203 1.350 . S
C201 H227 0.931 . S
N202 Co198 2.148 . S
N202 C199 1.301 . S
N202 C200 1.317 . S
N203 C199 1.328 . S
N203 C201 1.350 . S
H204 C199 0.930 . S
H205 C200 0.930 . S
C206 O207 1.224 . S
C206 O225 1.247 . S
O207 C206 1.224 . S
N208 Co198 2.128 . S
N208 C209 1.355 . S
N208 C211 1.311 . S
C209 N208 1.355 . S
C209 C210 1.363 . S
C209 H221 0.929 . S
C210 C209 1.363 . S
C210 N212 1.375 . S
C210 H228 0.931 . S
C211 N208 1.311 . S
C211 N212 1.347 . S
C211 H222 0.929 . S
N212 C210 1.375 . S
N212 C211 1.347 . S
C213 C216 1.365 . S
C213 N218 1.328 . S
C213 H219 0.929 . S
C214 C215 1.362 . S
C214 C217 1.378 . S
C214 H229 0.929 . S
C215 C214 1.362 . S
C215 C216 1.366 . S
C216 C213 1.365 . S
C216 C215 1.366 . S
C216 H230 0.930 . S
C217 C214 1.378 . S
C217 N218 1.315 . S
C217 H220 0.930 . S
N218 Co198 2.194 . S
N218 C213 1.328 . S
N218 C217 1.315 . S
H219 C213 0.929 . S
H220 C217 0.930 . S
H221 C209 0.929 . S
H222 C211 0.929 . S
O223 Co198 2.351 . S
O223 C226 1.244 . S
O224 Co198 2.155 . S
O224 C226 1.240 . S
O225 Co198 2.096 . S
O225 C206 1.247 . S
C226 O223 1.244 . S
C226 O224 1.240 . S
H227 C201 0.931 . S
H228 C210 0.931 . S
H229 C214 0.929 . S
H230 C216 0.930 . S
Co231 N235 2.148 . S
Co231 N241 2.128 . S
Co231 N251 2.194 . S
Co231 O256 2.351 . S
Co231 O257 2.155 1_565 S
Co231 O258 2.096 . S
C232 N235 1.301 . S
C232 N236 1.328 . S
C232 H237 0.930 . S
C233 C234 1.333 . S
C233 N235 1.317 . S
C233 H238 0.930 . S
C234 C233 1.333 . S
C234 N236 1.350 . S
C234 H260 0.931 . S
N235 Co231 2.148 . S
N235 C232 1.301 . S
N235 C233 1.317 . S
N236 C232 1.328 . S
N236 C234 1.350 . S
H237 C232 0.930 . S
H238 C233 0.930 . S
C239 O240 1.224 . S
C239 O258 1.247 . S
O240 C239 1.224 . S
N241 Co231 2.128 . S
N241 C242 1.355 . S
N241 C244 1.311 . S
C242 N241 1.355 . S
C242 C243 1.363 . S
C242 H254 0.929 . S
C243 C242 1.363 . S
C243 N245 1.375 . S
C243 H261 0.931 . S
C244 N241 1.311 . S
C244 N245 1.347 . S
C244 H255 0.929 . S
N245 C243 1.375 . S
N245 C244 1.347 . S
C246 C249 1.365 . S
C246 N251 1.328 . S
C246 H252 0.929 . S
C247 C248 1.362 . S
C247 C250 1.378 . S
C247 H262 0.929 . S
C248 C247 1.362 . S
C248 C249 1.366 . S
C249 C246 1.365 . S
C249 C248 1.366 . S
C249 H263 0.930 . S
C250 C247 1.378 . S
C250 N251 1.315 . S
C250 H253 0.930 . S
N251 Co231 2.194 . S
N251 C246 1.328 . S
N251 C250 1.315 . S
H252 C246 0.929 . S
H253 C250 0.930 . S
H254 C242 0.929 . S
H255 C244 0.929 . S
O256 Co231 2.351 . S
O256 C259 1.244 1_565 S
O257 Co231 2.155 1_545 S
O257 C259 1.240 . S
O258 Co231 2.096 . S
O258 C239 1.247 . S
C259 O256 1.244 1_545 S
C259 O257 1.240 . S
H260 C234 0.931 . S
H261 C243 0.931 . S
H262 C247 0.929 . S
H263 C249 0.930 . S
H264 C270 0.930 1_455 S
H265 C274 0.930 1_655 S
H266 C279 0.929 . S
H267 C277 0.929 . S
H268 C272 0.929 . S
H269 C278 0.929 . S
C270 H264 0.930 1_655 S
C270 C271 1.367 . S
C270 C278 1.378 1_655 S
C271 C270 1.367 . S
C271 C279 1.433 . S
C272 H268 0.929 . S
C272 C274 1.378 1_655 S
C272 C276 1.350 1_655 S
C273 C276 1.463 1_655 S
C273 C278 1.350 1_655 S
C273 N281 1.427 . S
C274 H265 0.930 1_455 S
C274 C272 1.378 1_455 S
C274 C275 1.367 . S
C275 C274 1.367 . S
C275 C277 1.433 . S
C276 C272 1.350 1_455 S
C276 C273 1.463 1_455 S
C276 N280 1.427 . S
C277 H267 0.929 . S
C277 C275 1.433 . S
C277 N280 1.384 . S
C278 H269 0.929 . S
C278 C270 1.378 1_455 S
C278 C273 1.350 1_455 S
C279 H266 0.929 . S
C279 C271 1.433 . S
C279 N281 1.384 . S
N280 C276 1.427 . S
N280 C277 1.384 . S
N281 C273 1.427 . S
N281 C279 1.384 . S
H282 C288 0.930 . S
H283 C292 0.930 . S
H284 C297 0.929 . S
H285 C295 0.929 . S
H286 C290 0.929 . S
H287 C296 0.929 . S
C288 H282 0.930 . S
C288 C289 1.367 . S
C288 C296 1.378 . S
C289 C288 1.367 . S
C289 C297 1.433 . S
C290 H286 0.929 . S
C290 C292 1.378 . S
C290 C294 1.350 . S
C291 C294 1.463 1_655 S
C291 C296 1.350 . S
C291 N299 1.427 . S
C292 H283 0.930 . S
C292 C290 1.378 . S
C292 C293 1.367 . S
C293 C292 1.367 . S
C293 C295 1.433 . S
C294 C290 1.350 . S
C294 C291 1.463 1_455 S
C294 N298 1.427 . S
C295 H285 0.929 . S
C295 C293 1.433 . S
C295 N298 1.384 . S
C296 H287 0.929 . S
C296 C288 1.378 . S
C296 C291 1.350 . S
C297 H284 0.929 . S
C297 C289 1.433 . S
C297 N299 1.384 . S
N298 C294 1.427 . S
N298 C295 1.384 . S
N299 C291 1.427 . S
N299 C297 1.384 . S
H300 C306 0.930 . S
H301 C310 0.930 . S
H302 C315 0.929 . S
H303 C313 0.929 . S
H304 C308 0.929 . S
H305 C314 0.929 . S
C306 H300 0.930 . S
C306 C307 1.367 . S
C306 C314 1.378 . S
C307 C306 1.367 . S
C307 C315 1.433 . S
C308 H304 0.929 . S
C308 C310 1.378 . S
C308 C312 1.350 . S
C309 C312 1.463 1_565 S
C309 C314 1.350 . S
C309 N317 1.427 . S
C310 H301 0.930 . S
C310 C308 1.378 . S
C310 C311 1.367 . S
C311 C310 1.367 . S
C311 C313 1.433 . S
C312 C308 1.350 . S
C312 C309 1.463 1_545 S
C312 N316 1.427 . S
C313 H303 0.929 . S
C313 C311 1.433 . S
C313 N316 1.384 . S
C314 H305 0.929 . S
C314 C306 1.378 . S
C314 C309 1.350 . S
C315 H302 0.929 . S
C315 C307 1.433 . S
C315 N317 1.384 . S
N316 C312 1.427 . S
N316 C313 1.384 . S
N317 C309 1.427 . S
N317 C315 1.384 . S
H318 C324 0.930 . S
H319 C328 0.930 . S
H320 C333 0.929 . S
H321 C331 0.929 . S
H322 C326 0.926 1_565 S
H323 C332 0.926 1_545 S
C324 H318 0.930 . S
C324 C325 1.367 . S
C324 C332 1.378 . S
C325 C324 1.367 . S
C325 C333 1.433 . S
C326 H322 0.926 1_545 S
C326 C328 1.378 . S
C326 C330 1.350 . S
C327 C330 1.463 1_565 S
C327 C332 1.350 . S
C327 N335 1.427 . S
C328 H319 0.930 . S
C328 C326 1.378 . S
C328 C329 1.367 . S
C329 C328 1.367 . S
C329 C331 1.433 . S
C330 C326 1.350 . S
C330 C327 1.463 1_545 S
C330 N334 1.427 . S
C331 H321 0.929 . S
C331 C329 1.433 . S
C331 N334 1.384 . S
C332 H323 0.926 1_565 S
C332 C324 1.378 . S
C332 C327 1.350 . S
C333 H320 0.929 . S
C333 C325 1.433 . S
C333 N335 1.384 . S
N334 C330 1.427 . S
N334 C331 1.384 . S
N335 C327 1.427 . S
N335 C333 1.384 . S
H336 C342 0.930 . S
H337 C346 0.930 . S
H338 C351 0.929 . S
H339 C349 0.929 . S
H340 C344 0.929 . S
H341 C350 0.929 . S
C342 H336 0.930 . S
C342 C343 1.367 . S
C342 C350 1.378 . S
C343 C342 1.367 . S
C343 C351 1.433 . S
C344 H340 0.929 . S
C344 C346 1.378 . S
C344 C348 1.350 . S
C345 C348 1.463 . S
C345 C350 1.350 . S
C345 N353 1.427 . S
C346 H337 0.930 . S
C346 C344 1.378 . S
C346 C347 1.367 . S
C347 C346 1.367 . S
C347 C349 1.433 . S
C348 C344 1.350 . S
C348 C345 1.463 . S
C348 N352 1.427 . S
C349 H339 0.929 . S
C349 C347 1.433 . S
C349 N352 1.384 . S
C350 H341 0.929 . S
C350 C342 1.378 . S
C350 C345 1.350 . S
C351 H338 0.929 . S
C351 C343 1.433 . S
C351 N353 1.384 . S
N352 C348 1.427 . S
N352 C349 1.384 . S
N353 C345 1.427 . S
N353 C351 1.384 . S
H354 C360 0.930 . S
H355 C364 0.930 . S
H356 C369 0.929 . S
H357 C367 0.929 . S
H358 C362 0.929 . S
H359 C368 0.929 . S
C360 H354 0.930 . S
C360 C361 1.367 . S
C360 C368 1.378 . S
C361 C360 1.367 . S
C361 C369 1.433 . S
C362 H358 0.929 . S
C362 C364 1.378 . S
C362 C366 1.350 . S
C363 C366 1.463 . S
C363 C368 1.350 . S
C363 N371 1.427 . S
C364 H355 0.930 . S
C364 C362 1.378 . S
C364 C365 1.367 . S
C365 C364 1.367 . S
C365 C367 1.433 . S
C366 C362 1.350 . S
C366 C363 1.463 . S
C366 N370 1.427 . S
C367 H357 0.929 . S
C367 C365 1.433 . S
C367 N370 1.384 . S
C368 H359 0.929 . S
C368 C360 1.378 . S
C368 C363 1.350 . S
C369 H356 0.929 . S
C369 C361 1.433 . S
C369 N371 1.384 . S
N370 C366 1.427 . S
N370 C367 1.384 . S
N371 C363 1.427 . S
N371 C369 1.384 . S
H372 C378 0.930 . S
H373 C382 0.930 . S
H374 C387 0.929 . S
H375 C385 0.929 . S
H376 C380 0.929 . S
H377 C386 0.929 . S
C378 H372 0.930 . S
C378 C379 1.367 . S
C378 C386 1.378 . S
C379 C378 1.367 . S
C379 C387 1.433 . S
C380 H376 0.929 . S
C380 C382 1.378 . S
C380 C384 1.350 . S
C381 C384 1.463 . S
C381 C386 1.350 . S
C381 N389 1.427 . S
C382 H373 0.930 . S
C382 C380 1.378 . S
C382 C383 1.367 . S
C383 C382 1.367 . S
C383 C385 1.433 . S
C384 C380 1.350 . S
C384 C381 1.463 . S
C384 N388 1.427 . S
C385 H375 0.929 . S
C385 C383 1.433 . S
C385 N388 1.384 . S
C386 H377 0.929 . S
C386 C378 1.378 . S
C386 C381 1.350 . S
C387 H374 0.929 . S
C387 C379 1.433 . S
C387 N389 1.384 . S
N388 C384 1.427 . S
N388 C385 1.384 . S
N389 C381 1.427 . S
N389 C387 1.384 . S
H390 C396 0.930 . S
H391 C400 0.930 . S
H392 C405 0.929 . S
H393 C403 0.929 . S
H394 C398 0.929 . S
H395 C404 0.929 . S
C396 H390 0.930 . S
C396 C397 1.367 . S
C396 C404 1.378 . S
C397 C396 1.367 . S
C397 C405 1.433 . S
C398 H394 0.929 . S
C398 C400 1.378 . S
C398 C402 1.350 . S
C399 C402 1.463 . S
C399 C404 1.350 . S
C399 N407 1.427 . S
C400 H391 0.930 . S
C400 C398 1.378 . S
C400 C401 1.367 . S
C401 C400 1.367 . S
C401 C403 1.433 . S
C402 C398 1.350 . S
C402 C399 1.463 . S
C402 N406 1.427 . S
C403 H393 0.929 . S
C403 C401 1.433 . S
C403 N406 1.384 . S
C404 H395 0.929 . S
C404 C396 1.378 . S
C404 C399 1.350 . S
C405 H392 0.929 . S
C405 C397 1.433 . S
C405 N407 1.384 . S
N406 C402 1.427 . S
N406 C403 1.384 . S
N407 C399 1.427 . S
N407 C405 1.384 . S
H408 C414 0.930 . S
H409 C418 0.930 . S
H410 C423 0.929 . S
H411 C421 0.929 . S
H412 C416 0.929 . S
H413 C422 0.929 . S
C414 H408 0.930 . S
C414 C415 1.367 . S
C414 C422 1.378 . S
C415 C414 1.367 . S
C415 C423 1.433 . S
C416 H412 0.929 . S
C416 C418 1.378 . S
C416 C420 1.350 . S
C417 C420 1.463 . S
C417 C422 1.350 . S
C417 N425 1.427 . S
C418 H409 0.930 . S
C418 C416 1.378 . S
C418 C419 1.367 . S
C419 C418 1.367 . S
C419 C421 1.433 . S
C420 C416 1.350 . S
C420 C417 1.463 . S
C420 N424 1.427 . S
C421 H411 0.929 . S
C421 C419 1.433 . S
C421 N424 1.384 . S
C422 H413 0.929 . S
C422 C414 1.378 . S
C422 C417 1.350 . S
C423 H410 0.929 . S
C423 C415 1.433 . S
C423 N425 1.384 . S
N424 C420 1.427 . S
N424 C421 1.384 . S
N425 C417 1.427 . S
N425 C423 1.384 . S
H426 C432 0.930 . S
H427 C436 0.930 . S
H428 C441 0.929 . S
H429 C439 0.929 . S
H430 C434 0.929 . S
H431 C440 0.929 . S
C432 H426 0.930 . S
C432 C433 1.367 . S
C432 C440 1.378 . S
C433 C432 1.367 . S
C433 C441 1.433 . S
C434 H430 0.929 . S
C434 C436 1.378 . S
C434 C438 1.350 . S
C435 C438 1.463 . S
C435 C440 1.350 . S
C435 N443 1.427 . S
C436 H427 0.930 . S
C436 C434 1.378 . S
C436 C437 1.367 . S
C437 C436 1.367 . S
C437 C439 1.433 . S
C438 C434 1.350 . S
C438 C435 1.463 . S
C438 N442 1.427 . S
C439 H429 0.929 . S
C439 C437 1.433 . S
C439 N442 1.384 . S
C440 H431 0.929 . S
C440 C432 1.378 . S
C440 C435 1.350 . S
C441 H428 0.929 . S
C441 C433 1.433 . S
C441 N443 1.384 . S
N442 C438 1.427 . S
N442 C439 1.384 . S
N443 C435 1.427 . S
N443 C441 1.384 . S
H444 C450 0.930 . S
H445 C454 0.930 . S
H446 C459 0.929 . S
H447 C457 0.929 . S
H448 C452 0.929 . S
H449 C458 0.929 . S
C450 H444 0.930 . S
C450 C451 1.367 . S
C450 C458 1.378 . S
C451 C450 1.367 . S
C451 C459 1.433 . S
C452 H448 0.929 . S
C452 C454 1.378 . S
C452 C456 1.350 . S
C453 C456 1.463 . S
C453 C458 1.350 . S
C453 N461 1.427 . S
C454 H445 0.930 . S
C454 C452 1.378 . S
C454 C455 1.367 . S
C455 C454 1.367 . S
C455 C457 1.433 . S
C456 C452 1.350 . S
C456 C453 1.463 . S
C456 N460 1.427 . S
C457 H447 0.929 . S
C457 C455 1.433 . S
C457 N460 1.384 . S
C458 H449 0.929 . S
C458 C450 1.378 . S
C458 C453 1.350 . S
C459 H446 0.929 . S
C459 C451 1.433 . S
C459 N461 1.384 . S
N460 C456 1.427 . S
N460 C457 1.384 . S
N461 C453 1.427 . S
N461 C459 1.384 . S
H462 C468 0.930 . S
H463 C472 0.930 . S
H464 C477 0.929 . S
H465 C475 0.929 . S
H466 C470 0.929 . S
H467 C476 0.929 . S
C468 H462 0.930 . S
C468 C469 1.367 . S
C468 C476 1.378 . S
C469 C468 1.367 . S
C469 C477 1.433 . S
C470 H466 0.929 . S
C470 C472 1.378 . S
C470 C474 1.350 . S
C471 C474 1.463 . S
C471 C476 1.350 . S
C471 N479 1.427 . S
C472 H463 0.930 . S
C472 C470 1.378 . S
C472 C473 1.367 . S
C473 C472 1.367 . S
C473 C475 1.433 . S
C474 C470 1.350 . S
C474 C471 1.463 . S
C474 N478 1.427 . S
C475 H465 0.929 . S
C475 C473 1.433 . S
C475 N478 1.384 . S
C476 H467 0.929 . S
C476 C468 1.378 . S
C476 C471 1.350 . S
C477 H464 0.929 . S
C477 C469 1.433 . S
C477 N479 1.384 . S
N478 C474 1.427 . S
N478 C475 1.384 . S
N479 C471 1.427 . S
N479 C477 1.384 . S
H480 C486 0.930 . S
H481 C490 0.930 . S
H482 C495 0.929 . S
H483 C493 0.929 . S
H484 C488 0.929 . S
H485 C494 0.929 . S
C486 H480 0.930 . S
C486 C487 1.367 . S
C486 C494 1.378 . S
C487 C486 1.367 . S
C487 C495 1.433 . S
C488 H484 0.929 . S
C488 C490 1.378 . S
C488 C492 1.350 . S
C489 C492 1.463 . S
C489 C494 1.350 . S
C489 N497 1.427 . S
C490 H481 0.930 . S
C490 C488 1.378 . S
C490 C491 1.367 . S
C491 C490 1.367 . S
C491 C493 1.433 . S
C492 C488 1.350 . S
C492 C489 1.463 . S
C492 N496 1.427 . S
C493 H483 0.929 . S
C493 C491 1.433 . S
C493 N496 1.384 . S
C494 H485 0.929 . S
C494 C486 1.378 . S
C494 C489 1.350 . S
C495 H482 0.929 . S
C495 C487 1.433 . S
C495 N497 1.384 . S
N496 C492 1.427 . S
N496 C493 1.384 . S
N497 C489 1.427 . S
N497 C495 1.384 . S
H498 C504 0.930 . S
H499 C508 0.930 . S
H500 C513 0.929 . S
H501 C511 0.929 . S
H502 C506 0.929 1_554 S
H503 C512 0.929 1_556 S
C504 H498 0.930 . S
C504 C505 1.367 . S
C504 C512 1.378 . S
C505 C504 1.367 . S
C505 C513 1.433 . S
C506 H502 0.929 1_556 S
C506 C508 1.378 . S
C506 C510 1.350 . S
C507 C510 1.463 1_554 S
C507 C512 1.350 . S
C507 N515 1.427 . S
C508 H499 0.930 . S
C508 C506 1.378 . S
C508 C509 1.367 . S
C509 C508 1.367 . S
C509 C511 1.433 . S
C510 C506 1.350 . S
C510 C507 1.463 1_556 S
C510 N514 1.427 . S
C511 H501 0.929 . S
C511 C509 1.433 . S
C511 N514 1.384 . S
C512 H503 0.929 1_554 S
C512 C504 1.378 . S
C512 C507 1.350 . S
C513 H500 0.929 . S
C513 C505 1.433 . S
C513 N515 1.384 . S
N514 C510 1.427 . S
N514 C511 1.384 . S
N515 C507 1.427 . S
N515 C513 1.384 . S
H516 C522 0.930 . S
H517 C526 0.930 . S
H518 C531 0.929 . S
H519 C529 0.929 . S
H520 C524 0.929 . S
H521 C530 0.929 . S
C522 H516 0.930 . S
C522 C523 1.367 . S
C522 C530 1.378 . S
C523 C522 1.367 . S
C523 C531 1.433 . S
C524 H520 0.929 . S
C524 C526 1.378 . S
C524 C528 1.350 . S
C525 C528 1.463 . S
C525 C530 1.350 . S
C525 N533 1.427 . S
C526 H517 0.930 . S
C526 C524 1.378 . S
C526 C527 1.367 . S
C527 C526 1.367 . S
C527 C529 1.433 . S
C528 C524 1.350 . S
C528 C525 1.463 . S
C528 N532 1.427 . S
C529 H519 0.929 . S
C529 C527 1.433 . S
C529 N532 1.384 . S
C530 H521 0.929 . S
C530 C522 1.378 . S
C530 C525 1.350 . S
C531 H518 0.929 . S
C531 C523 1.433 . S
C531 N533 1.384 . S
N532 C528 1.427 . S
N532 C529 1.384 . S
N533 C525 1.427 . S
N533 C531 1.384 . S
H534 C540 0.930 . S
H535 C544 0.930 . S
H536 C549 0.929 . S
H537 C547 0.929 . S
H538 C542 0.929 . S
H539 C548 0.929 . S
C540 H534 0.930 . S
C540 C541 1.367 . S
C540 C548 1.378 . S
C541 C540 1.367 . S
C541 C549 1.433 . S
C542 H538 0.929 . S
C542 C544 1.378 . S
C542 C546 1.350 . S
C543 C546 1.463 1_554 S
C543 C548 1.350 . S
C543 N551 1.427 . S
C544 H535 0.930 . S
C544 C542 1.378 . S
C544 C545 1.367 . S
C545 C544 1.367 . S
C545 C547 1.433 . S
C546 C542 1.350 . S
C546 C543 1.463 1_556 S
C546 N550 1.427 . S
C547 H537 0.929 . S
C547 C545 1.433 . S
C547 N550 1.384 . S
C548 H539 0.929 . S
C548 C540 1.378 . S
C548 C543 1.350 . S
C549 H536 0.929 . S
C549 C541 1.433 . S
C549 N551 1.384 . S
N550 C546 1.427 . S
N550 C547 1.384 . S
N551 C543 1.427 . S
N551 C549 1.384 . S
H552 C558 0.930 . S
H553 C562 0.930 . S
H554 C567 0.929 . S
H555 C565 0.929 . S
H556 C560 0.929 1_655 S
H557 C566 0.929 1_455 S
C558 H552 0.930 . S
C558 C559 1.367 . S
C558 C566 1.378 . S
C559 C558 1.367 . S
C559 C567 1.433 . S
C560 H556 0.929 1_455 S
C560 C562 1.378 . S
C560 C564 1.350 . S
C561 C564 1.463 1_665 S
C561 C566 1.350 . S
C561 N569 1.427 . S
C562 H553 0.930 . S
C562 C560 1.378 . S
C562 C563 1.367 . S
C563 C562 1.367 . S
C563 C565 1.433 . S
C564 C560 1.350 . S
C564 C561 1.463 1_445 S
C564 N568 1.427 . S
C565 H555 0.929 . S
C565 C563 1.433 . S
C565 N568 1.384 . S
C566 H557 0.929 1_655 S
C566 C558 1.378 . S
C566 C561 1.350 . S
C567 H554 0.929 . S
C567 C559 1.433 . S
C567 N569 1.384 . S
N568 C564 1.427 . S
N568 C565 1.384 . S
N569 C561 1.427 . S
N569 C567 1.384 . S
H570 C576 0.930 . S
H571 C580 0.930 . S
H572 C585 0.929 . S
H573 C583 0.929 . S
H574 C578 0.929 . S
H575 C584 0.929 . S
C576 H570 0.930 . S
C576 C577 1.367 . S
C576 C584 1.378 . S
C577 C576 1.367 . S
C577 C585 1.433 . S
C578 H574 0.929 . S
C578 C580 1.378 . S
C578 C582 1.350 . S
C579 C582 1.463 . S
C579 C584 1.350 . S
C579 N587 1.427 . S
C580 H571 0.930 . S
C580 C578 1.378 . S
C580 C581 1.367 . S
C581 C580 1.367 . S
C581 C583 1.433 . S
C582 C578 1.350 . S
C582 C579 1.463 . S
C582 N586 1.427 . S
C583 H573 0.929 . S
C583 C581 1.433 . S
C583 N586 1.384 . S
C584 H575 0.929 . S
C584 C576 1.378 . S
C584 C579 1.350 . S
C585 H572 0.929 . S
C585 C577 1.433 . S
C585 N587 1.384 . S
N586 C582 1.427 . S
N586 C583 1.384 . S
N587 C579 1.427 . S
N587 C585 1.384 . S
H588 C594 0.930 . S
H589 C598 0.930 . S
H590 C603 0.929 . S
H591 C601 0.929 . S
H592 C596 0.929 . S
H593 C602 0.929 . S
C594 H588 0.930 . S
C594 C595 1.367 . S
C594 C602 1.378 . S
C595 C594 1.367 . S
C595 C603 1.433 . S
C596 H592 0.929 . S
C596 C598 1.378 . S
C596 C600 1.350 . S
C597 C600 1.463 . S
C597 C602 1.350 . S
C597 N605 1.427 . S
C598 H589 0.930 . S
C598 C596 1.378 . S
C598 C599 1.367 . S
C599 C598 1.367 . S
C599 C601 1.433 . S
C600 C596 1.350 . S
C600 C597 1.463 . S
C600 N604 1.427 . S
C601 H591 0.929 . S
C601 C599 1.433 . S
C601 N604 1.384 . S
C602 H593 0.929 . S
C602 C594 1.378 . S
C602 C597 1.350 . S
C603 H590 0.929 . S
C603 C595 1.433 . S
C603 N605 1.384 . S
N604 C600 1.427 . S
N604 C601 1.384 . S
N605 C597 1.427 . S
N605 C603 1.384 . S
H606 C612 0.930 . S
H607 C616 0.930 . S
H608 C621 0.929 . S
H609 C619 0.929 . S
H610 C614 0.927 1_545 S
H611 C620 0.927 1_565 S
C612 H606 0.930 . S
C612 C613 1.367 . S
C612 C620 1.378 . S
C613 C612 1.367 . S
C613 C621 1.433 . S
C614 H610 0.927 1_565 S
C614 C616 1.378 . S
C614 C618 1.350 . S
C615 C618 1.463 1_445 S
C615 C620 1.350 . S
C615 N623 1.427 . S
C616 H607 0.930 . S
C616 C614 1.378 . S
C616 C617 1.367 . S
C617 C616 1.367 . S
C617 C619 1.433 . S
C618 C614 1.350 . S
C618 C615 1.463 1_665 S
C618 N622 1.427 . S
C619 H609 0.929 . S
C619 C617 1.433 . S
C619 N622 1.384 . S
C620 H611 0.927 1_545 S
C620 C612 1.378 . S
C620 C615 1.350 . S
C621 H608 0.929 . S
C621 C613 1.433 . S
C621 N623 1.384 . S
N622 C618 1.427 . S
N622 C619 1.384 . S
N623 C615 1.427 . S
N623 C621 1.384 . S
C271 N71 1.182 . S
C275 N5 1.173 . S
C289 N104 1.177 . S
C293 N38 1.186 . S
C307 N203 1.186 . S
C311 N137 1.175 . S
C325 N236 1.173 . S
C329 N170 1.185 . S
C343 C160 1.919 . S
C347 C17 1.916 . S
C361 C193 1.917 . S
C365 C50 1.918 . S
C379 C226 1.916 . S
C383 C83 1.914 . S
C397 C116 1.918 . S
C401 C259 1.916 . S
C415 C28 1.919 . S
C419 C149 1.916 . S
C433 C61 1.917 . S
C437 C182 1.918 . S
C451 C94 1.919 . S
C455 C215 1.915 . S
C469 C248 1.914 . S
C473 C127 1.917 . S
C487 C8 1.815 . S
C491 C173 1.816 . S
C505 C206 1.827 . S
C509 C41 1.827 . S
C523 C239 1.817 . S
C527 C74 1.819 . S
C541 C140 1.820 . S
C545 C107 1.818 . S
C559 N80 0.510 . S
C563 N14 0.483 . S
C577 N47 0.519 . S
C581 N113 0.488 . S
C595 N212 0.526 . S
C599 N146 0.535 . S
C613 N179 0.486 . S
C617 N245 0.516 . S
