# Generated by pormake.
# Topology kag, (6)-cn, num edge types: 1
# Building blocks:
#     Node 0, Type 0, BuildingBlock: HISSIN_clean_sbu_0, # of connection points: 6
#     Node 1, Type 0, BuildingBlock: HISSIN_clean_sbu_0, # of connection points: 6
#     Node 2, Type 0, BuildingBlock: HISSIN_clean_sbu_0, # of connection points: 6
#     Edge 3, Type (0, 0), BuildingBlock: ZUJKAS_clean_linker_0, # of connection points: 2
#     Edge 4, Type (0, 0), BuildingBlock: ZUJKAS_clean_linker_0, # of connection points: 2
#     Edge 5, Type (0, 0), BuildingBlock: ZUJKAS_clean_linker_0, # of connection points: 2
#     Edge 6, Type (0, 0), BuildingBlock: ZUJKAS_clean_linker_0, # of connection points: 2
#     Edge 7, Type (0, 0), BuildingBlock: ZUJKAS_clean_linker_0, # of connection points: 2
#     Edge 8, Type (0, 0), BuildingBlock: ZUJKAS_clean_linker_0, # of connection points: 2
#     Edge 9, Type (0, 0), BuildingBlock: ZUJKAS_clean_linker_0, # of connection points: 2
#     Edge 10, Type (0, 0), BuildingBlock: ZUJKAS_clean_linker_0, # of connection points: 2
#     Edge 11, Type (0, 0), BuildingBlock: ZUJKAS_clean_linker_0, # of connection points: 2
# Relax obj value: 0.054
# Max RMSD: 0.160
# Mean RMSD: 0.095
data_MOF--net-kag--node1-HISSIN_clean_sbu_0--edge1-ZUJKAS_clean_linker_0
_symmetry_space_group_name_H-M    P1
_symmetry_Int_Tables_number       1
_symmetry_cell_setting            triclinic
loop_
_symmetry_equiv_pos_as_xyz
'x, y, z'
_cell_length_a     51.320216
_cell_length_b     40.454678
_cell_length_c     19.839015
_cell_angle_alpha  92.377779
_cell_angle_beta   95.336078
_cell_angle_gamma 100.98798
loop_
_atom_site_label
_atom_site_type_symbol
_atom_site_fract_x
_atom_site_fract_y
_atom_site_fract_z
_atom_type_partial_charge
Eu0 Eu 1.00797 0.49867 0.98522 0.0
Eu1 Eu 0.02395 0.58135 -0.00239 0.0
C2 C 0.01697 0.5392 0.12822 0.0
C3 C 0.96718 0.41036 -0.01094 0.0
C4 C 0.95429 0.41598 0.04677 0.0
C5 C 0.93104 0.36332 0.95137 0.0
C6 C 0.92998 0.39532 0.05673 0.0
C7 C 0.95546 0.38375 0.94179 0.0
C8 C 0.91795 0.36902 0.00871 0.0
C9 C 0.99171 0.43334 0.97485 0.0
O10 O 0.06229 0.56445 0.97933 0.0
O11 O 0.05287 0.50967 0.01073 0.0
C12 C 0.07001 0.53646 -0.00363 0.0
O13 O 0.02274 0.51541 0.8865 0.0
O14 O 0.03461 0.62946 0.0579 0.0
O15 O 0.03236 0.62883 0.94854 0.0
O16 O 1.00759 0.56464 0.88929 0.0
C17 C 1.01514 0.54031 0.85503 0.0
O18 O 0.96916 0.51695 0.96368 0.0
O19 O 0.98032 0.57036 0.0152 0.0
O20 O 0.03333 0.56263 0.10098 0.0
O21 O 0.98885 0.45272 0.92483 0.0
O22 O 1.00707 0.44944 0.02689 0.0
O23 O 1.00043 0.5157 0.08986 0.0
C24 C 0.06644 0.66895 0.00976 0.0
C25 C 0.08769 0.65763 0.98251 0.0
C26 C 0.09586 0.72259 0.04462 0.0
C27 C 0.11274 0.67874 0.98554 0.0
C28 C 0.07072 0.70144 0.0413 0.0
C29 C 0.11707 0.71155 0.01617 0.0
C30 C 0.03992 0.64689 0.00538 0.0
C31 C 0.96229 0.54415 -0.01048 0.0
H32 H 0.96273 0.4367 0.08352 0.0
H33 H 0.92235 0.34304 0.91386 0.0
H34 H 0.92021 0.4005 0.10101 0.0
H35 H 0.96499 0.37915 0.89675 0.0
H36 H 0.08486 0.63253 0.95836 0.0
H37 H 0.09855 0.74783 0.06809 0.0
H38 H 0.12876 0.66934 0.96404 0.0
H39 H 0.05457 0.71055 0.06281 0.0
Eu40 Eu 0.54869 0.04601 0.97721 0.0
Eu41 Eu 0.48322 1.03222 0.96203 0.0
C42 C 0.51533 1.03729 0.83366 0.0
C43 C 0.62384 0.08678 -0.00461 0.0
C44 C 0.64135 0.09283 0.94511 0.0
C45 C 0.65124 0.13394 0.06509 0.0
C46 C 0.66349 0.11919 0.95438 0.0
C47 C 0.6289 0.10758 0.05557 0.0
C48 C 0.66873 0.14005 0.01445 0.0
C49 C 0.60082 0.05839 0.9834 0.0
O50 O 0.49302 0.97993 0.94879 0.0
O51 O 0.53696 0.99021 -0.00604 0.0
C52 C 0.51463 0.96907 0.97193 0.0
O53 O 0.53658 0.05801 0.08049 0.0
O54 O 0.44568 1.01292 0.89956 0.0
O55 O 0.44532 1.03651 -0.00033 0.0
O56 O 0.49608 1.02203 0.06945 0.0
C57 C 0.51648 0.04019 0.10762 0.0
O58 O 0.53886 0.09761 0.95906 0.0
O59 O 0.49552 0.08876 0.98572 0.0
O60 O 0.49711 0.04963 0.86275 0.0
O61 O 0.58762 0.04854 0.03451 0.0
O62 O 0.58518 0.05839 0.92776 0.0
O63 O 0.53345 1.02533 0.87069 0.0
C64 C 0.40837 0.99364 0.95812 0.0
C65 C 0.41013 0.97139 0.0101 0.0
C66 C 0.36272 0.96505 0.92449 0.0
C67 C 0.38815 0.94619 0.01944 0.0
C68 C 0.38457 0.99028 0.91551 0.0
C69 C 0.36425 0.94269 0.97646 0.0
C70 C 0.43107 1.02017 0.94634 0.0
C71 C 0.51752 0.10922 0.97301 0.0
H72 H 0.63796 0.07698 0.8985 0.0
H73 H 0.65468 0.14973 0.11174 0.0
H74 H 0.6768 0.12285 0.91488 0.0
H75 H 0.61567 0.10353 0.09519 0.0
H76 H 0.42847 0.97344 0.04319 0.0
H77 H 0.34449 0.96331 0.89119 0.0
H78 H 0.38997 0.92915 0.05955 0.0
H79 H 0.38289 1.00723 0.87514 0.0
Eu80 Eu 0.48128 0.5288 0.96352 0.0
Eu81 Eu 0.54794 0.5486 0.97757 0.0
C82 C 0.51556 0.53993 0.10813 0.0
C83 C 0.40227 0.51853 0.95525 0.0
C84 C 0.39677 0.53739 0.01149 0.0
C85 C 0.35503 0.50719 0.91436 0.0
C86 C 0.37043 0.54092 0.01917 0.0
C87 C 0.38122 0.50392 0.90652 0.0
C88 C 0.34917 0.52531 0.9712 0.0
C89 C 0.42906 0.51125 0.94751 0.0
O90 O 0.5384 0.49158 0.95733 0.0
O91 O 0.4949 0.47956 0.98355 0.0
C92 C 0.51712 0.46981 0.97052 0.0
O93 O 0.49566 0.51642 0.86311 0.0
O94 O 0.58704 0.57019 0.03294 0.0
O95 O 0.58434 0.55118 0.92809 0.0
O96 O 0.53151 0.55953 0.87333 0.0
C97 C 0.51344 0.53773 0.8352 0.0
O98 O 0.49063 0.58559 0.9535 0.0
O99 O 0.53495 0.59851 -0.00329 0.0
O100 O 0.53579 0.53198 0.07934 0.0
O101 O 0.44304 0.52691 0.90261 0.0
O102 O 0.44383 0.50559 0.00136 0.0
O103 O 0.49505 0.54776 0.07193 0.0
C104 C 0.62668 0.55499 -0.00634 0.0
C105 C 0.6362 0.53574 0.94411 0.0
C106 C 0.67105 0.56552 0.05612 0.0
C107 C 0.6629 0.53198 0.94985 0.0
C108 C 0.64435 0.56934 0.05027 0.0
C109 C 0.6809 0.54747 0.00516 0.0
C110 C 0.60014 0.56468 0.98152 0.0
C111 C 0.51239 0.60783 0.97597 0.0
H112 H 0.41269 0.5488 0.04994 0.0
H113 H 0.33928 0.49534 0.87587 0.0
H114 H 0.3666 0.55496 0.06363 0.0
H115 H 0.38498 0.48924 0.86278 0.0
H116 H 0.62333 0.52471 0.89924 0.0
H117 H 0.68411 0.57734 0.10005 0.0
H118 H 0.66968 0.51822 0.90914 0.0
H119 H 0.63779 0.58465 0.08894 0.0
H120 H 0.98818 0.576 0.76815 0.0
H121 H 0.98729 0.57543 0.64448 0.0
H122 H 0.04213 0.50669 0.65028 0.0
H123 H 0.04215 0.506 0.7733 0.0
H124 H 0.02394 0.59438 0.56361 0.0
H125 H 0.98626 0.45753 0.51013 0.0
H126 H 0.98697 0.47785 0.59306 0.0
H127 H 0.01655 0.46565 0.56606 0.0
C128 C 0.99992 0.56062 0.74296 0.0
C129 C 1.01499 0.54075 0.78039 0.0
C130 C 0.99942 0.56032 0.67226 0.0
C131 C 1.01417 0.54041 0.63765 0.0
C132 C 0.02985 0.52135 0.67532 0.0
H133 H 0.05601 0.5711 0.22537 0.0
H134 H 0.05531 0.57163 0.34851 0.0
C135 C 0.03 0.52117 0.74581 0.0
C136 C 1.01362 0.54017 0.56244 0.0
H137 H 1.00425 0.48792 0.41891 0.0
C138 C 0.01944 0.57109 0.53194 0.0
C139 C 1.00726 0.50986 0.52074 0.0
C140 C 0.99862 0.47591 0.54913 0.0
C141 C 0.01953 0.57253 0.4613 0.0
C142 C 1.01464 0.54212 0.42 0.0
C143 C 1.00838 0.51125 0.45043 0.0
C144 C 0.01539 0.54163 0.34508 0.0
C145 C 0.02423 0.60671 0.4318 0.0
C146 C 0.99369 0.52342 0.30187 0.0
C147 C 0.99436 0.52234 0.23153 0.0
C148 C 0.01664 0.53973 0.2028 0.0
C149 C 0.03843 0.55778 0.24597 0.0
C150 C 0.03794 0.55834 0.31643 0.0
H151 H 0.01894 0.62624 0.46618 0.0
H152 H 0.04571 0.61444 0.42495 0.0
H153 H 1.01243 0.6062 0.38182 0.0
H154 H 0.97609 0.51018 0.32257 0.0
H155 H 0.97722 0.50826 0.19964 0.0
H156 H 0.55601 0.07249 0.20377 0.0
H157 H 0.5567 0.07156 0.32719 0.0
H158 H 0.47852 1.00771 0.3046 0.0
H159 H 0.47775 1.00807 0.18136 0.0
H160 H 0.52235 0.09252 0.41226 0.0
H161 H 0.52157 0.95588 0.43021 0.0
H162 H 0.52864 0.97757 0.3543 0.0
H163 H 0.49475 0.96477 0.37352 0.0
C164 C 0.53897 0.05816 0.22497 0.0
C165 C 0.51688 0.04019 0.18252 0.0
C166 C 0.53941 0.05768 0.29557 0.0
C167 C 0.51786 0.03912 0.3251 0.0
C168 C 0.49563 1.02159 0.28293 0.0
H169 H 0.48043 0.05927 0.74115 0.0
H170 H 0.48155 0.06007 0.61828 0.0
C171 C 0.49517 1.022 0.21239 0.0
C172 C 0.51839 1.0386 0.40002 0.0
H173 H 0.51449 0.98589 0.53043 0.0
C174 C 0.52074 0.06923 0.43817 0.0
C175 C 0.51665 1.00824 0.43382 0.0
C176 C 0.51552 0.97477 0.39602 0.0
C177 C 0.52084 0.07025 0.50907 0.0
C178 C 0.51809 0.03976 0.54259 0.0
C179 C 0.5163 1.00921 0.50459 0.0
C180 C 0.51725 0.03902 0.61714 0.0
C181 C 0.52428 0.10403 0.54754 0.0
C182 C 0.53651 1.02605 0.65717 0.0
C183 C 0.53583 1.02533 0.72744 0.0
C184 C 0.51576 1.03742 0.75902 0.0
C185 C 0.49626 0.04996 0.7186 0.0
C186 C 0.49696 0.05063 0.64834 0.0
H187 H 0.53318 0.12502 0.5173 0.0
H188 H 0.50447 0.10837 0.55952 0.0
H189 H 0.53715 0.1048 0.59601 0.0
H190 H 0.55226 1.01678 0.63409 0.0
H191 H 0.55114 1.01546 0.75696 0.0
H192 H 0.4895 0.48674 0.74173 0.0
H193 H 0.49062 0.48553 0.61854 0.0
H194 H 0.53687 0.58699 0.6364 0.0
H195 H 0.53684 0.58774 0.75953 0.0
H196 H 0.47215 0.52037 0.52452 0.0
H197 H 0.58173 0.54297 0.52259 0.0
H198 H 0.56579 0.53397 0.59879 0.0
H199 H 0.57164 0.57619 0.57002 0.0
C200 C 0.50002 0.50872 0.71937 0.0
C201 C 0.51331 0.53721 0.76043 0.0
C202 C 0.50065 0.50801 0.64891 0.0
C203 C 0.51436 0.53588 0.618 0.0
C204 C 0.52695 0.56472 0.65893 0.0
H205 H 0.48649 0.57159 0.18951 0.0
H206 H 0.48625 0.57028 0.31249 0.0
C207 C 0.52673 0.56522 0.72941 0.0
C208 C 0.51492 0.53509 0.54296 0.0
H209 H 0.55659 0.54975 0.41818 0.0
C210 C 0.49066 0.52655 0.5013 0.0
C211 C 0.53906 0.54249 0.51227 0.0
C212 C 0.56602 0.54904 0.55326 0.0
C213 C 0.48979 0.52585 0.43022 0.0
C214 C 0.51381 0.5352 0.39969 0.0
C215 C 0.53812 0.54307 0.44132 0.0
C216 C 0.51429 0.53663 0.32482 0.0
C217 C 0.46315 0.51428 0.3888 0.0
C218 C 0.53104 0.51945 0.29073 0.0
C219 C 0.53175 0.52091 0.22054 0.0
C220 C 0.51552 0.53933 0.18279 0.0
C221 C 0.49897 0.5568 0.21699 0.0
C222 C 0.49864 0.55583 0.28734 0.0
H223 H 0.44884 0.49778 0.41763 0.0
H224 H 0.45445 0.53661 0.37605 0.0
H225 H 0.4652 0.50025 0.34092 0.0
H226 H 0.54343 0.50461 0.31836 0.0
H227 H 0.54467 0.50711 0.19572 0.0
H228 H 0.11222 0.5893 -0.00483 0.0
H229 H 0.15957 0.5873 -0.00471 0.0
H230 H 0.14101 0.47909 0.00143 0.0
H231 H 0.09348 0.48078 0.00181 0.0
H232 H 0.19305 0.55329 0.09829 0.0
H233 H 0.18497 0.50319 0.82999 0.0
H234 H 0.16091 0.52576 0.86117 0.0
H235 H 0.16069 0.48314 0.88298 0.0
C236 C 0.11811 0.56501 -0.00347 0.0
C237 C 0.0989 0.53516 -0.00185 0.0
C238 C 0.14525 0.56396 -0.00316 0.0
C239 C 0.15381 0.53305 -0.00207 0.0
C240 C 0.13481 0.50321 0.00016 0.0
H241 H 0.30556 0.47391 0.95244 0.0
H242 H 0.25891 0.47646 0.96255 0.0
C243 C 0.10765 0.50425 0.00056 0.0
C244 C 0.18258 0.53204 -0.00402 0.0
H245 H 0.22705 0.51008 0.89288 0.0
C246 C 0.20056 0.54389 0.05344 0.0
C247 C 0.19228 0.5197 0.9375 0.0
C248 C 0.17386 0.50735 0.87404 0.0
C249 C 0.22794 0.54313 0.05441 0.0
C250 C 0.23777 0.53108 -0.00446 0.0
C251 C 0.21966 0.51934 0.93804 0.0
C252 C 0.26657 0.52976 -0.0075 0.0
C253 C 0.24585 0.5543 0.11921 0.0
C254 C 0.28669 0.55885 0.00592 0.0
C255 C 0.31356 0.55739 0.00058 0.0
C256 C 0.32085 0.52693 0.98047 0.0
C257 C 0.30067 0.49788 0.96725 0.0
C258 C 0.27393 0.49929 0.97319 0.0
H259 H 0.23431 0.55306 0.16404 0.0
H260 H 0.26125 0.53854 0.12713 0.0
H261 H 0.25611 0.58088 0.11638 0.0
H262 H 0.2816 0.58289 0.01919 0.0
H263 H 0.32853 0.5803 0.01031 0.0
H264 H 0.68747 0.18475 0.92246 0.0
H265 H 0.7292 0.22639 0.9342 0.0
H266 H 0.74576 0.19992 0.13995 0.0
H267 H 0.70428 0.1575 0.12803 0.0
H268 H 0.74843 0.28253 0.02686 0.0
H269 H 0.81191 0.18551 0.0486 0.0
H270 H 0.77673 0.17503 0.02019 0.0
H271 H 0.78769 0.18406 0.10882 0.0
C272 C 0.70001 0.18774 0.9702 0.0
C273 C 0.69274 0.16754 0.02405 0.0
C274 C 0.72375 0.21169 0.97695 0.0
C275 C 0.74075 0.21584 0.03753 0.0
C276 C 0.7331 0.1967 0.09238 0.0
H277 H 0.90133 0.33975 0.12325 0.0
H278 H 0.85778 0.30438 0.13636 0.0
C279 C 0.70929 0.17272 0.08571 0.0
C280 C 0.76684 0.23946 0.04197 0.0
H281 H 0.83409 0.24235 0.05517 0.0
C282 C 0.76717 0.27381 0.03344 0.0
C283 C 0.79124 0.22795 0.05044 0.0
C284 C 0.79205 0.19111 0.057 0.0
C285 C 0.79129 0.29693 0.03263 0.0
C286 C 0.81562 0.28529 0.03973 0.0
C287 C 0.81535 0.25113 0.04994 0.0
C288 C 0.84149 0.30776 0.0329 0.0
C289 C 0.79062 0.33364 0.02399 0.0
C290 C 0.84672 0.32104 0.97027 0.0
C291 C 0.87153 0.34099 0.96255 0.0
C292 C 0.89155 0.34808 0.01742 0.0
C293 C 0.88619 0.33492 0.08029 0.0
C294 C 0.86141 0.31468 0.08779 0.0
H295 H 0.77131 0.33986 0.03592 0.0
H296 H 0.80706 0.35016 0.05703 0.0
H297 H 0.79329 0.33938 0.97056 0.0
H298 H 0.83171 0.31558 0.92706 0.0
H299 H 0.87501 0.35103 0.9137 0.0
H300 H 0.47203 0.91661 0.93519 0.0
H301 H 0.47095 0.85587 0.93791 0.0
H302 H 0.55436 0.87575 0.01243 0.0
H303 H 0.55553 0.93641 0.01093 0.0
H304 H 0.49789 0.81468 0.87162 0.0
H305 H 0.52407 0.81123 0.14801 0.0
H306 H 0.51468 0.84764 0.11033 0.0
H307 H 0.54808 0.84019 0.10832 0.0
C308 C 0.49017 0.90816 0.95248 0.0
C309 C 0.51385 0.93177 0.9732 0.0
C310 C 0.48952 0.87325 0.95394 0.0
C311 C 0.51244 0.86086 0.97654 0.0
C312 C 0.53617 0.88436 -0.00359 0.0
H313 H 0.55339 0.66176 0.01484 0.0
H314 H 0.55262 0.72201 0.01376 0.0
C315 C 0.53685 0.91925 -0.00494 0.0
C316 C 0.51169 0.82349 0.97779 0.0
H317 H 0.52459 0.76131 0.08089 0.0
C318 C 0.50356 0.80303 0.91757 0.0
C319 C 0.5191 0.80794 0.03754 0.0
C320 C 0.52673 0.82779 0.10487 0.0
C321 C 0.50329 0.768 0.91501 0.0
C322 C 0.51085 0.75248 0.97468 0.0
C323 C 0.51883 0.77292 0.03498 0.0
C324 C 0.51097 0.71531 0.97552 0.0
C325 C 0.49567 0.74813 0.8477 0.0
C326 C 0.48773 0.69094 0.95546 0.0
C327 C 0.4881 0.65624 0.95589 0.0
C328 C 0.5117 0.64483 0.97692 0.0
C329 C 0.53481 0.66931 -0.00188 0.0
C330 C 0.53442 0.70397 -0.0024 0.0
H331 H 0.49772 0.76474 0.8045 0.0
H332 H 0.50816 0.72882 0.84169 0.0
H333 H 0.4745 0.73504 0.84494 0.0
H334 H 0.46915 0.69873 0.9398 0.0
H335 H 0.46983 0.63837 0.93965 0.0
H336 H 0.93936 0.59569 0.03637 0.0
H337 H 0.89182 0.59565 0.04105 0.0
H338 H 0.87204 0.49432 0.94968 0.0
H339 H 0.91939 0.49391 0.94547 0.0
H340 H 0.85027 0.58676 0.93652 0.0
H341 H 0.83132 0.48596 0.11724 0.0
H342 H 0.86457 0.50679 0.10321 0.0
H343 H 0.84607 0.47406 0.04364 0.0
C344 C 0.92494 0.57335 0.01732 0.0
C345 C 0.93336 0.54477 -0.00924 0.0
C346 C 0.89772 0.57338 0.02003 0.0
C347 C 0.87829 0.54478 -0.00319 0.0
C348 C 0.8866 0.51643 0.96932 0.0
H349 H 0.70434 0.49472 0.96632 0.0
H350 H 0.75193 0.49464 0.96367 0.0
C351 C 0.91378 0.51636 0.9665 0.0
C352 C 0.84935 0.54483 0.00011 0.0
H353 H 0.79334 0.50416 0.06537 0.0
C354 C 0.83786 0.56882 0.96501 0.0
C355 C 0.83307 0.52132 0.03702 0.0
C356 C 0.84437 0.49575 0.07795 0.0
C357 C 0.81053 0.56956 0.96472 0.0
C358 C 0.79424 0.54613 0.00182 0.0
C359 C 0.80575 0.52212 0.03692 0.0
C360 C 0.76525 0.54611 0.00478 0.0
C361 C 0.79923 0.59491 0.92308 0.0
C362 C 0.75676 0.5748 0.03004 0.0
C363 C 0.72953 0.57504 0.03111 0.0
C364 C 0.71002 0.54643 0.00752 0.0
C365 C 0.71866 0.5174 0.98391 0.0
C366 C 0.74592 0.51723 0.98275 0.0
H367 H 0.81218 0.60419 0.88323 0.0
H368 H 0.77894 0.58389 0.89839 0.0
H369 H 0.79782 0.61695 0.95675 0.0
H370 H 0.77123 0.59717 0.04875 0.0
H371 H 0.7238 0.598 0.04903 0.0
H372 H 0.14542 0.7532 0.12134 0.0
H373 H 0.18858 0.79172 0.12028 0.0
H374 H 0.19138 0.75973 0.91154 0.0
H375 H 0.14826 0.72153 0.91186 0.0
H376 H 0.24013 0.77391 0.08007 0.0
H377 H 0.19964 0.86611 0.92072 0.0
H378 H 0.17889 0.83646 0.96847 0.0
H379 H 0.18989 0.8225 0.89083 0.0
C380 C 0.1552 0.75451 0.07518 0.0
C381 C 0.14343 0.73441 0.01663 0.0
C382 C 0.17988 0.77632 0.07481 0.0
C383 C 0.19298 0.77863 0.01572 0.0
C384 C 0.18144 0.75839 0.95749 0.0
H385 H 0.33178 0.90116 0.87837 0.0
H386 H 0.29124 0.86019 0.8919 0.0
C387 C 0.15691 0.73645 0.95792 0.0
C388 C 0.21854 0.80257 0.01413 0.0
H389 H 0.24655 0.87418 0.94226 0.0
C390 C 0.24161 0.79599 0.05039 0.0
C391 C 0.22026 0.83121 0.9752 0.0
C392 C 0.19587 0.8398 0.93688 0.0
C393 C 0.26664 0.81691 0.0471 0.0
C394 C 0.26841 0.84547 0.00765 0.0
C395 C 0.24518 0.85222 0.97227 0.0
C396 C 0.29411 0.86852 0.00103 0.0
C397 C 0.29105 0.80766 0.08404 0.0
C398 C 0.3093 0.88667 0.05797 0.0
C399 C 0.33255 0.91009 0.05036 0.0
C400 C 0.34079 0.91606 0.98556 0.0
C401 C 0.32576 0.89742 0.92885 0.0
C402 C 0.30265 0.87393 0.93652 0.0
H403 H 0.28735 0.7808 0.09685 0.0
H404 H 0.30822 0.81223 0.05318 0.0
H405 H 0.29663 0.8235 0.13211 0.0
H406 H 0.30278 0.88344 0.10807 0.0
H407 H 0.34355 0.92437 0.09488 0.0
H408 H 0.4774 0.41707 -0.00421 0.0
H409 H 0.47877 0.35701 -0.0032 0.0
H410 H 0.55985 0.37798 0.94583 0.0
H411 H 0.55881 0.43827 0.94568 0.0
H412 H 0.48631 0.3126 0.89679 0.0
H413 H 0.56709 0.32058 0.10617 0.0
H414 H 0.5507 0.35539 0.08814 0.0
H415 H 0.57632 0.3467 0.03793 0.0
C416 C 0.49564 0.40908 0.98507 0.0
C417 C 0.51805 0.43291 0.97098 0.0
C418 C 0.49636 0.37452 0.98559 0.0
C419 C 0.51954 0.36265 0.9725 0.0
C420 C 0.54188 0.3863 0.95774 0.0
H421 H 0.55884 0.16037 0.94836 0.0
H422 H 0.5592 0.22101 0.94706 0.0
C423 C 0.54119 0.42092 0.9572 0.0
C424 C 0.51996 0.32554 0.97267 0.0
H425 H 0.55253 0.26739 0.04585 0.0
C426 C 0.50075 0.30278 0.92965 0.0
C427 C 0.53881 0.31237 0.01524 0.0
C428 C 0.55925 0.33494 0.06497 0.0
C429 C 0.50009 0.26769 0.92727 0.0
C430 C 0.51882 0.25448 0.97012 0.0
C431 C 0.53814 0.27724 0.01288 0.0
C432 C 0.51858 0.21725 0.97161 0.0
C433 C 0.47963 0.24515 0.87748 0.0
C434 C 0.49582 0.19455 0.98698 0.0
C435 C 0.49553 0.15974 0.98766 0.0
C436 C 0.51808 0.14651 0.97348 0.0
C437 C 0.54102 0.16937 0.95929 0.0
C438 C 0.54129 0.20422 0.95861 0.0
H439 H 0.47223 0.25946 0.83559 0.0
H440 H 0.48798 0.22429 0.85525 0.0
H441 H 0.46229 0.23398 0.90417 0.0
H442 H 0.47822 0.20378 -0.00108 0.0
H443 H 0.47753 0.14319 -0.00066 0.0
loop_
_geom_bond_atom_site_label_1
_geom_bond_atom_site_label_2
_geom_bond_distance
_geom_bond_site_symmetry_2
_ccdc_geom_bond_type
Eu0 C9 2.828 . S
Eu0 O11 2.392 1_655 S
Eu0 O13 2.418 . S
Eu0 O18 2.373 . S
Eu0 O21 2.488 . S
Eu0 O22 2.471 1_556 S
Eu0 O23 2.349 1_556 S
Eu1 O10 2.373 . S
Eu1 O14 2.488 . S
Eu1 O15 2.471 1_554 S
Eu1 O16 2.349 1_554 S
Eu1 O19 2.392 1_455 S
Eu1 O20 2.418 . S
Eu1 C30 2.828 . S
C2 O20 1.244 . S
C2 O23 1.265 1_455 S
C3 C4 1.378 . S
C3 C7 1.373 1_554 S
C3 C9 1.505 1_554 S
C4 C3 1.378 . S
C4 C6 1.369 . S
C4 H32 0.930 . S
C5 C7 1.383 . S
C5 C8 1.382 1_556 S
C5 H33 0.930 . S
C6 C4 1.369 . S
C6 C8 1.392 . S
C6 H34 0.930 . S
C7 C3 1.373 1_556 S
C7 C5 1.383 . S
C7 H35 0.931 . S
C8 C5 1.382 1_554 S
C8 C6 1.392 . S
C9 Eu0 2.828 . S
C9 C3 1.505 1_556 S
C9 O21 1.249 . S
C9 O22 1.244 1_556 S
O10 Eu1 2.373 . S
O10 C12 1.258 . S
O11 Eu0 2.392 1_455 S
O11 C12 1.242 1_556 S
C12 O10 1.258 . S
C12 O11 1.242 1_554 S
O13 Eu0 2.418 . S
O13 C17 1.244 . S
O14 Eu1 2.488 . S
O14 C30 1.249 . S
O15 Eu1 2.471 1_556 S
O15 C30 1.244 1_556 S
O16 Eu1 2.349 1_556 S
O16 C17 1.265 1_455 S
C17 O13 1.244 . S
C17 O16 1.265 1_655 S
O18 Eu0 2.373 . S
O18 C31 1.258 . S
O19 Eu1 2.392 1_655 S
O19 C31 1.242 1_554 S
O20 Eu1 2.418 . S
O20 C2 1.244 . S
O21 Eu0 2.488 . S
O21 C9 1.249 . S
O22 Eu0 2.471 1_554 S
O22 C9 1.244 1_554 S
O23 Eu0 2.349 1_554 S
O23 C2 1.265 1_655 S
C24 C25 1.375 1_554 S
C24 C28 1.376 . S
C24 C30 1.506 . S
C25 C24 1.375 1_556 S
C25 C27 1.369 . S
C25 H36 0.930 . S
C26 C28 1.383 . S
C26 C29 1.382 1_554 S
C26 H37 0.930 . S
C27 C25 1.369 . S
C27 C29 1.392 . S
C27 H38 0.930 . S
C28 C24 1.376 . S
C28 C26 1.383 . S
C28 H39 0.931 . S
C29 C26 1.382 1_556 S
C29 C27 1.392 . S
C30 Eu1 2.828 . S
C30 O14 1.249 . S
C30 O15 1.244 1_554 S
C30 C24 1.506 . S
C31 O18 1.258 . S
C31 O19 1.242 1_556 S
H32 C4 0.930 . S
H33 C5 0.930 . S
H34 C6 0.930 . S
H35 C7 0.931 . S
H36 C25 0.930 . S
H37 C26 0.930 . S
H38 C27 0.930 . S
H39 C28 0.931 . S
Eu40 C49 2.828 . S
Eu40 O51 2.392 1_545 S
Eu40 O53 2.418 . S
Eu40 O58 2.373 . S
Eu40 O61 2.488 . S
Eu40 O62 2.471 1_554 S
Eu40 O63 2.349 1_554 S
Eu41 O50 2.373 . S
Eu41 O54 2.488 . S
Eu41 O55 2.471 1_556 S
Eu41 O56 2.349 1_556 S
Eu41 O59 2.392 1_565 S
Eu41 O60 2.418 . S
Eu41 C70 2.828 . S
C42 O60 1.244 . S
C42 O63 1.265 1_565 S
C43 C44 1.379 1_554 S
C43 C47 1.373 . S
C43 C49 1.505 . S
C44 C43 1.379 1_556 S
C44 C46 1.369 . S
C44 H72 0.930 . S
C45 C47 1.383 . S
C45 C48 1.382 1_554 S
C45 H73 0.930 . S
C46 C44 1.369 . S
C46 C48 1.392 . S
C46 H74 0.930 . S
C47 C43 1.373 . S
C47 C45 1.383 . S
C47 H75 0.931 . S
C48 C45 1.382 1_556 S
C48 C46 1.392 . S
C49 Eu40 2.828 . S
C49 C43 1.505 . S
C49 O61 1.249 . S
C49 O62 1.244 1_554 S
O50 Eu41 2.373 . S
O50 C52 1.258 . S
O51 Eu40 2.392 1_565 S
O51 C52 1.242 1_554 S
C52 O50 1.258 . S
C52 O51 1.242 1_556 S
O53 Eu40 2.418 . S
O53 C57 1.244 . S
O54 Eu41 2.488 . S
O54 C70 1.249 . S
O55 Eu41 2.471 1_554 S
O55 C70 1.244 1_554 S
O56 Eu41 2.349 1_554 S
O56 C57 1.265 1_565 S
C57 O53 1.244 . S
C57 O56 1.265 1_545 S
O58 Eu40 2.373 . S
O58 C71 1.258 . S
O59 Eu41 2.392 1_545 S
O59 C71 1.242 1_556 S
O60 Eu41 2.418 . S
O60 C42 1.244 . S
O61 Eu40 2.488 . S
O61 C49 1.249 . S
O62 Eu40 2.471 1_556 S
O62 C49 1.244 1_556 S
O63 Eu40 2.349 1_556 S
O63 C42 1.265 1_545 S
C64 C65 1.379 1_556 S
C64 C68 1.373 . S
C64 C70 1.505 . S
C65 C64 1.379 1_554 S
C65 C67 1.369 . S
C65 H76 0.930 . S
C66 C68 1.383 . S
C66 C69 1.382 1_556 S
C66 H77 0.930 . S
C67 C65 1.369 . S
C67 C69 1.392 . S
C67 H78 0.930 . S
C68 C64 1.373 . S
C68 C66 1.383 . S
C68 H79 0.931 . S
C69 C66 1.382 1_554 S
C69 C67 1.392 . S
C70 Eu41 2.828 . S
C70 O54 1.249 . S
C70 O55 1.244 1_556 S
C70 C64 1.505 . S
C71 O58 1.258 . S
C71 O59 1.242 1_554 S
H72 C44 0.930 . S
H73 C45 0.930 . S
H74 C46 0.930 . S
H75 C47 0.931 . S
H76 C65 0.930 . S
H77 C66 0.930 . S
H78 C67 0.930 . S
H79 C68 0.931 . S
Eu80 C89 2.828 . S
Eu80 O91 2.392 . S
Eu80 O93 2.418 . S
Eu80 O98 2.373 . S
Eu80 O101 2.488 . S
Eu80 O102 2.471 1_556 S
Eu80 O103 2.349 1_556 S
Eu81 O90 2.373 . S
Eu81 O94 2.488 . S
Eu81 O95 2.471 1_554 S
Eu81 O96 2.349 1_554 S
Eu81 O99 2.392 . S
Eu81 O100 2.418 . S
Eu81 C110 2.828 . S
C82 O100 1.244 . S
C82 O103 1.265 . S
C83 C84 1.379 1_556 S
C83 C87 1.373 . S
C83 C89 1.505 . S
C84 C83 1.379 1_554 S
C84 C86 1.369 . S
C84 H112 0.930 . S
C85 C87 1.383 . S
C85 C88 1.382 1_556 S
C85 H113 0.930 . S
C86 C84 1.369 . S
C86 C88 1.392 . S
C86 H114 0.930 . S
C87 C83 1.373 . S
C87 C85 1.383 . S
C87 H115 0.931 . S
C88 C85 1.382 1_554 S
C88 C86 1.392 . S
C89 Eu80 2.828 . S
C89 C83 1.505 . S
C89 O101 1.249 . S
C89 O102 1.244 1_556 S
O90 Eu81 2.373 . S
O90 C92 1.258 . S
O91 Eu80 2.392 . S
O91 C92 1.242 1_556 S
C92 O90 1.258 . S
C92 O91 1.242 1_554 S
O93 Eu80 2.418 . S
O93 C97 1.244 . S
O94 Eu81 2.488 . S
O94 C110 1.249 . S
O95 Eu81 2.471 1_556 S
O95 C110 1.244 1_556 S
O96 Eu81 2.349 1_556 S
O96 C97 1.265 . S
C97 O93 1.244 . S
C97 O96 1.265 . S
O98 Eu80 2.373 . S
O98 C111 1.261 . S
O99 Eu81 2.392 . S
O99 C111 1.239 1_554 S
O100 Eu81 2.418 . S
O100 C82 1.244 . S
O101 Eu80 2.488 . S
O101 C89 1.249 . S
O102 Eu80 2.471 1_554 S
O102 C89 1.244 1_554 S
O103 Eu80 2.349 1_554 S
O103 C82 1.265 . S
C104 C105 1.379 1_554 S
C104 C108 1.373 . S
C104 C110 1.505 . S
C105 C104 1.379 1_556 S
C105 C107 1.369 . S
C105 H116 0.930 . S
C106 C108 1.383 . S
C106 C109 1.382 1_554 S
C106 H117 0.930 . S
C107 C105 1.369 . S
C107 C109 1.392 . S
C107 H118 0.930 . S
C108 C104 1.373 . S
C108 C106 1.383 . S
C108 H119 0.931 . S
C109 C106 1.382 1_556 S
C109 C107 1.392 . S
C110 Eu81 2.828 . S
C110 O94 1.249 . S
C110 O95 1.244 1_554 S
C110 C104 1.505 . S
C111 O98 1.261 . S
C111 O99 1.239 1_556 S
H112 C84 0.930 . S
H113 C85 0.930 . S
H114 C86 0.930 . S
H115 C87 0.931 . S
H116 C105 0.930 . S
H117 C106 0.930 . S
H118 C107 0.930 . S
H119 C108 0.931 . S
H120 C128 0.929 . S
H121 C130 0.930 . S
H122 C132 0.930 . S
H123 C135 0.929 . S
H124 C138 0.930 . S
H125 C140 0.960 . S
H126 C140 0.960 . S
H127 C140 0.960 . S
C128 H120 0.929 . S
C128 C129 1.377 . S
C128 C130 1.384 . S
C129 C128 1.377 . S
C129 C135 1.390 1_655 S
C130 H121 0.930 . S
C130 C128 1.384 . S
C130 C131 1.372 . S
C131 C130 1.372 . S
C131 C132 1.400 1_655 S
C131 C136 1.490 . S
C132 H122 0.930 . S
C132 C131 1.400 1_455 S
C132 C135 1.386 . S
H133 C149 0.930 . S
H134 C150 0.931 . S
C135 H123 0.929 . S
C135 C129 1.390 1_455 S
C135 C132 1.386 . S
C136 C131 1.490 . S
C136 C138 1.395 . S
C136 C139 1.403 1_655 S
H137 C143 0.930 . S
C138 H124 0.930 . S
C138 C136 1.395 . S
C138 C141 1.403 . S
C139 C136 1.403 1_455 S
C139 C140 1.524 . S
C139 C143 1.400 . S
C140 H125 0.960 . S
C140 H126 0.960 . S
C140 H127 0.960 . S
C140 C139 1.524 . S
C141 C138 1.403 . S
C141 C142 1.392 . S
C141 C145 1.495 . S
C142 C141 1.392 . S
C142 C143 1.385 1_655 S
C142 C144 1.481 . S
C143 H137 0.930 . S
C143 C139 1.400 . S
C143 C142 1.385 1_455 S
C144 C142 1.481 . S
C144 C146 1.398 . S
C144 C150 1.362 1_655 S
C145 C141 1.495 . S
C145 H151 0.959 . S
C145 H152 0.961 . S
C145 H153 0.960 . S
C146 C144 1.398 . S
C146 C147 1.394 . S
C146 H154 0.930 . S
C147 C146 1.394 . S
C147 C148 1.383 1_655 S
C147 H155 0.929 . S
C148 C147 1.383 1_455 S
C148 C149 1.377 . S
C149 H133 0.930 . S
C149 C148 1.377 . S
C149 C150 1.379 . S
C150 H134 0.931 . S
C150 C144 1.362 1_455 S
C150 C149 1.379 . S
H151 C145 0.959 . S
H152 C145 0.961 . S
H153 C145 0.960 . S
H154 C146 0.930 . S
H155 C147 0.929 . S
H156 C164 0.929 . S
H157 C166 0.930 . S
H158 C168 0.930 . S
H159 C171 0.929 . S
H160 C174 0.930 . S
H161 C176 0.960 . S
H162 C176 0.960 . S
H163 C176 0.960 . S
C164 H156 0.929 . S
C164 C165 1.377 1_565 S
C164 C166 1.384 . S
C165 C164 1.377 1_545 S
C165 C171 1.390 . S
C166 H157 0.930 . S
C166 C164 1.384 . S
C166 C167 1.368 1_565 S
C167 C166 1.368 1_545 S
C167 C168 1.404 . S
C167 C172 1.489 . S
C168 H158 0.930 . S
C168 C167 1.404 . S
C168 C171 1.386 . S
H169 C185 0.930 . S
H170 C186 0.931 . S
C171 H159 0.929 . S
C171 C165 1.390 . S
C171 C168 1.386 . S
C172 C167 1.489 . S
C172 C174 1.395 . S
C172 C175 1.403 1_545 S
H173 C179 0.930 . S
C174 H160 0.930 . S
C174 C172 1.395 . S
C174 C177 1.403 . S
C175 C172 1.403 1_565 S
C175 C176 1.524 . S
C175 C179 1.400 . S
C176 H161 0.960 . S
C176 H162 0.960 . S
C176 H163 0.960 . S
C176 C175 1.524 . S
C177 C174 1.403 . S
C177 C178 1.392 . S
C177 C181 1.495 . S
C178 C177 1.392 . S
C178 C179 1.385 1_545 S
C178 C180 1.478 . S
C179 H173 0.930 . S
C179 C175 1.400 . S
C179 C178 1.385 1_565 S
C180 C178 1.478 . S
C180 C182 1.381 1_545 S
C180 C186 1.383 . S
C181 C177 1.495 . S
C181 H187 0.959 . S
C181 H188 0.961 . S
C181 H189 0.960 . S
C182 C180 1.381 1_565 S
C182 C183 1.394 . S
C182 H190 0.930 . S
C183 C182 1.394 . S
C183 C184 1.373 1_565 S
C183 H191 0.929 . S
C184 C183 1.373 1_545 S
C184 C185 1.390 . S
C185 H169 0.930 . S
C185 C184 1.390 . S
C185 C186 1.379 . S
C186 H170 0.931 . S
C186 C180 1.383 . S
C186 C185 1.379 . S
H187 C181 0.959 . S
H188 C181 0.961 . S
H189 C181 0.960 . S
H190 C182 0.930 . S
H191 C183 0.929 . S
H192 C200 0.929 . S
H193 C202 0.930 . S
H194 C204 0.930 . S
H195 C207 0.929 . S
H196 C210 0.930 . S
H197 C212 0.960 . S
H198 C212 0.960 . S
H199 C212 0.960 . S
C200 H192 0.929 . S
C200 C201 1.377 . S
C200 C202 1.384 . S
C201 C200 1.377 . S
C201 C207 1.390 . S
C202 H193 0.930 . S
C202 C200 1.384 . S
C202 C203 1.372 . S
C203 C202 1.372 . S
C203 C204 1.400 . S
C203 C208 1.490 . S
C204 H194 0.930 . S
C204 C203 1.400 . S
C204 C207 1.386 . S
H205 C221 0.930 . S
H206 C222 0.931 . S
C207 H195 0.929 . S
C207 C201 1.390 . S
C207 C204 1.386 . S
C208 C203 1.490 . S
C208 C210 1.395 . S
C208 C211 1.403 . S
H209 C215 0.930 . S
C210 H196 0.930 . S
C210 C208 1.395 . S
C210 C213 1.403 . S
C211 C208 1.403 . S
C211 C212 1.524 . S
C211 C215 1.400 . S
C212 H197 0.960 . S
C212 H198 0.960 . S
C212 H199 0.960 . S
C212 C211 1.524 . S
C213 C210 1.403 . S
C213 C214 1.392 . S
C213 C217 1.495 . S
C214 C213 1.392 . S
C214 C215 1.385 . S
C214 C216 1.478 . S
C215 H209 0.930 . S
C215 C211 1.400 . S
C215 C214 1.385 . S
C216 C214 1.478 . S
C216 C218 1.381 . S
C216 C222 1.383 . S
C217 C213 1.495 . S
C217 H223 0.959 . S
C217 H224 0.961 . S
C217 H225 0.960 . S
C218 C216 1.381 . S
C218 C219 1.394 . S
C218 H226 0.930 . S
C219 C218 1.394 . S
C219 C220 1.383 . S
C219 H227 0.929 . S
C220 C219 1.383 . S
C220 C221 1.377 . S
C221 H205 0.930 . S
C221 C220 1.377 . S
C221 C222 1.379 . S
C222 H206 0.931 . S
C222 C216 1.383 . S
C222 C221 1.379 . S
H223 C217 0.959 . S
H224 C217 0.961 . S
H225 C217 0.960 . S
H226 C218 0.930 . S
H227 C219 0.929 . S
H228 C236 0.929 . S
H229 C238 0.930 . S
H230 C240 0.930 . S
H231 C243 0.929 . S
H232 C246 0.930 . S
H233 C248 0.960 . S
H234 C248 0.960 . S
H235 C248 0.960 . S
C236 H228 0.929 . S
C236 C237 1.377 . S
C236 C238 1.384 . S
C237 C236 1.377 . S
C237 C243 1.390 1_554 S
C238 H229 0.930 . S
C238 C236 1.384 . S
C238 C239 1.372 . S
C239 C238 1.372 . S
C239 C240 1.400 1_554 S
C239 C244 1.490 . S
C240 H230 0.930 . S
C240 C239 1.400 1_556 S
C240 C243 1.386 . S
H241 C257 0.930 1_556 S
H242 C258 0.931 . S
C243 H231 0.929 . S
C243 C237 1.390 1_556 S
C243 C240 1.386 . S
C244 C239 1.490 . S
C244 C246 1.395 . S
C244 C247 1.403 1_554 S
H245 C251 0.930 . S
C246 H232 0.930 . S
C246 C244 1.395 . S
C246 C249 1.403 . S
C247 C244 1.403 1_556 S
C247 C248 1.524 . S
C247 C251 1.400 . S
C248 H233 0.960 . S
C248 H234 0.960 . S
C248 H235 0.960 . S
C248 C247 1.524 . S
C249 C246 1.403 . S
C249 C250 1.392 . S
C249 C253 1.495 . S
C250 C249 1.392 . S
C250 C251 1.385 1_554 S
C250 C252 1.478 . S
C251 H245 0.930 . S
C251 C247 1.400 . S
C251 C250 1.385 1_556 S
C252 C250 1.478 . S
C252 C254 1.381 . S
C252 C258 1.383 . S
C253 C249 1.495 . S
C253 H259 0.959 . S
C253 H260 0.961 . S
C253 H261 0.960 . S
C254 C252 1.381 . S
C254 C255 1.394 . S
C254 H262 0.930 . S
C255 C254 1.394 . S
C255 C256 1.383 . S
C255 H263 0.929 . S
C256 C255 1.383 . S
C256 C257 1.377 . S
C257 H241 0.930 1_554 S
C257 C256 1.377 . S
C257 C258 1.379 . S
C258 H242 0.931 . S
C258 C252 1.383 . S
C258 C257 1.379 . S
H259 C253 0.959 . S
H260 C253 0.961 . S
H261 C253 0.960 . S
H262 C254 0.930 . S
H263 C255 0.929 . S
H264 C272 0.929 . S
H265 C274 0.930 . S
H266 C276 0.930 . S
H267 C279 0.929 . S
H268 C282 0.930 . S
H269 C284 0.960 . S
H270 C284 0.960 . S
H271 C284 0.960 . S
C272 H264 0.929 . S
C272 C273 1.377 . S
C272 C274 1.384 . S
C273 C272 1.377 . S
C273 C279 1.390 1_556 S
C274 H265 0.930 . S
C274 C272 1.384 . S
C274 C275 1.372 . S
C275 C274 1.372 . S
C275 C276 1.400 1_556 S
C275 C280 1.490 . S
C276 H266 0.930 . S
C276 C275 1.400 1_554 S
C276 C279 1.386 . S
H277 C293 0.930 . S
H278 C294 0.931 . S
C279 H267 0.929 . S
C279 C273 1.390 1_554 S
C279 C276 1.386 . S
C280 C275 1.490 . S
C280 C282 1.395 1_556 S
C280 C283 1.403 . S
H281 C287 0.930 . S
C282 H268 0.930 . S
C282 C280 1.395 1_554 S
C282 C285 1.403 . S
C283 C280 1.403 . S
C283 C284 1.524 . S
C283 C287 1.400 . S
C284 H269 0.960 . S
C284 H270 0.960 . S
C284 H271 0.960 . S
C284 C283 1.524 . S
C285 C282 1.403 . S
C285 C286 1.392 . S
C285 C289 1.495 . S
C286 C285 1.392 . S
C286 C287 1.385 1_554 S
C286 C288 1.478 . S
C287 H281 0.930 . S
C287 C283 1.400 . S
C287 C286 1.385 1_556 S
C288 C286 1.478 . S
C288 C290 1.381 1_554 S
C288 C294 1.383 . S
C289 C285 1.495 . S
C289 H295 0.959 . S
C289 H296 0.961 . S
C289 H297 0.960 . S
C290 C288 1.381 1_556 S
C290 C291 1.394 . S
C290 H298 0.930 . S
C291 C290 1.394 . S
C291 C292 1.383 1_556 S
C291 H299 0.929 . S
C292 C291 1.383 1_554 S
C292 C293 1.377 . S
C293 H277 0.930 . S
C293 C292 1.377 . S
C293 C294 1.379 . S
C294 H278 0.931 . S
C294 C288 1.383 . S
C294 C293 1.379 . S
H295 C289 0.959 . S
H296 C289 0.961 . S
H297 C289 0.960 . S
H298 C290 0.930 . S
H299 C291 0.929 . S
H300 C308 0.929 . S
H301 C310 0.930 . S
H302 C312 0.930 . S
H303 C315 0.929 . S
H304 C318 0.930 . S
H305 C320 0.960 . S
H306 C320 0.960 . S
H307 C320 0.960 . S
C308 H300 0.929 . S
C308 C309 1.377 . S
C308 C310 1.384 . S
C309 C308 1.377 . S
C309 C315 1.390 1_556 S
C310 H301 0.930 . S
C310 C308 1.384 . S
C310 C311 1.372 . S
C311 C310 1.372 . S
C311 C312 1.400 1_556 S
C311 C316 1.490 . S
C312 H302 0.930 . S
C312 C311 1.400 1_554 S
C312 C315 1.386 . S
H313 C329 0.930 . S
H314 C330 0.931 . S
C315 H303 0.929 . S
C315 C309 1.390 1_554 S
C315 C312 1.386 . S
C316 C311 1.490 . S
C316 C318 1.395 . S
C316 C319 1.403 1_556 S
H317 C323 0.930 . S
C318 H304 0.930 . S
C318 C316 1.395 . S
C318 C321 1.403 . S
C319 C316 1.403 1_554 S
C319 C320 1.524 . S
C319 C323 1.400 . S
C320 H305 0.960 . S
C320 H306 0.960 . S
C320 H307 0.960 . S
C320 C319 1.524 . S
C321 C318 1.403 . S
C321 C322 1.392 . S
C321 C325 1.495 . S
C322 C321 1.392 . S
C322 C323 1.385 1_556 S
C322 C324 1.478 . S
C323 H317 0.930 . S
C323 C319 1.400 . S
C323 C322 1.385 1_554 S
C324 C322 1.478 . S
C324 C326 1.381 . S
C324 C330 1.383 1_556 S
C325 C321 1.495 . S
C325 H331 0.959 . S
C325 H332 0.961 . S
C325 H333 0.960 . S
C326 C324 1.381 . S
C326 C327 1.394 . S
C326 H334 0.930 . S
C327 C326 1.394 . S
C327 C328 1.383 . S
C327 H335 0.929 . S
C328 C327 1.383 . S
C328 C329 1.377 1_556 S
C329 H313 0.930 . S
C329 C328 1.377 1_554 S
C329 C330 1.379 . S
C330 H314 0.931 . S
C330 C324 1.383 1_554 S
C330 C329 1.379 . S
H331 C325 0.959 . S
H332 C325 0.961 . S
H333 C325 0.960 . S
H334 C326 0.930 . S
H335 C327 0.929 . S
H336 C344 0.929 . S
H337 C346 0.930 . S
H338 C348 0.930 . S
H339 C351 0.929 . S
H340 C354 0.930 . S
H341 C356 0.960 . S
H342 C356 0.960 . S
H343 C356 0.960 1_556 S
C344 H336 0.929 . S
C344 C345 1.377 1_554 S
C344 C346 1.384 . S
C345 C344 1.377 1_556 S
C345 C351 1.390 . S
C346 H337 0.930 . S
C346 C344 1.384 . S
C346 C347 1.372 1_554 S
C347 C346 1.372 1_556 S
C347 C348 1.400 . S
C347 C352 1.490 . S
C348 H338 0.930 . S
C348 C347 1.400 . S
C348 C351 1.386 . S
H349 C365 0.930 . S
H350 C366 0.931 . S
C351 H339 0.929 . S
C351 C345 1.390 . S
C351 C348 1.386 . S
C352 C347 1.490 . S
C352 C354 1.395 . S
C352 C355 1.403 1_556 S
H353 C359 0.930 . S
C354 H340 0.930 . S
C354 C352 1.395 . S
C354 C357 1.403 . S
C355 C352 1.403 1_554 S
C355 C356 1.524 . S
C355 C359 1.400 . S
C356 H341 0.960 . S
C356 H342 0.960 . S
C356 H343 0.960 1_554 S
C356 C355 1.524 . S
C357 C354 1.403 . S
C357 C358 1.392 . S
C357 C361 1.495 . S
C358 C357 1.392 . S
C358 C359 1.385 1_556 S
C358 C360 1.478 . S
C359 H353 0.930 . S
C359 C355 1.400 . S
C359 C358 1.385 1_554 S
C360 C358 1.478 . S
C360 C362 1.381 1_556 S
C360 C366 1.383 . S
C361 C357 1.495 . S
C361 H367 0.959 . S
C361 H368 0.961 . S
C361 H369 0.960 . S
C362 C360 1.381 1_554 S
C362 C363 1.394 . S
C362 H370 0.930 . S
C363 C362 1.394 . S
C363 C364 1.383 1_554 S
C363 H371 0.929 . S
C364 C363 1.383 1_556 S
C364 C365 1.377 . S
C365 H349 0.930 . S
C365 C364 1.377 . S
C365 C366 1.379 . S
C366 H350 0.931 . S
C366 C360 1.383 . S
C366 C365 1.379 . S
H367 C361 0.959 . S
H368 C361 0.961 . S
H369 C361 0.960 . S
H370 C362 0.930 . S
H371 C363 0.929 . S
H372 C380 0.929 . S
H373 C382 0.930 . S
H374 C384 0.930 . S
H375 C387 0.929 . S
H376 C390 0.930 . S
H377 C392 0.960 . S
H378 C392 0.960 1_554 S
H379 C392 0.960 . S
C380 H372 0.929 . S
C380 C381 1.377 1_554 S
C380 C382 1.384 . S
C381 C380 1.377 1_556 S
C381 C387 1.390 . S
C382 H373 0.930 . S
C382 C380 1.384 . S
C382 C383 1.372 1_554 S
C383 C382 1.372 1_556 S
C383 C384 1.400 . S
C383 C388 1.490 . S
C384 H374 0.930 . S
C384 C383 1.400 . S
C384 C387 1.386 . S
H385 C401 0.930 . S
H386 C402 0.931 . S
C387 H375 0.929 . S
C387 C381 1.390 . S
C387 C384 1.386 . S
C388 C383 1.490 . S
C388 C390 1.395 1_556 S
C388 C391 1.403 . S
H389 C395 0.930 . S
C390 H376 0.930 . S
C390 C388 1.395 1_554 S
C390 C393 1.403 . S
C391 C388 1.403 . S
C391 C392 1.524 . S
C391 C395 1.400 . S
C392 H377 0.960 . S
C392 H378 0.960 1_556 S
C392 H379 0.960 . S
C392 C391 1.524 . S
C393 C390 1.403 . S
C393 C394 1.392 . S
C393 C397 1.495 . S
C394 C393 1.392 . S
C394 C395 1.385 1_554 S
C394 C396 1.478 . S
C395 H389 0.930 . S
C395 C391 1.400 . S
C395 C394 1.385 1_556 S
C396 C394 1.478 . S
C396 C398 1.381 . S
C396 C402 1.383 1_554 S
C397 C393 1.495 . S
C397 H403 0.959 . S
C397 H404 0.961 1_554 S
C397 H405 0.960 . S
C398 C396 1.381 . S
C398 C399 1.394 . S
C398 H406 0.930 . S
C399 C398 1.394 . S
C399 C400 1.383 . S
C399 H407 0.929 . S
C400 C399 1.383 . S
C400 C401 1.377 1_554 S
C401 H385 0.930 . S
C401 C400 1.377 1_556 S
C401 C402 1.379 . S
C402 H386 0.931 . S
C402 C396 1.383 1_556 S
C402 C401 1.379 . S
H403 C397 0.959 . S
H404 C397 0.961 1_556 S
H405 C397 0.960 . S
H406 C398 0.930 . S
H407 C399 0.929 . S
H408 C416 0.929 . S
H409 C418 0.930 . S
H410 C420 0.930 . S
H411 C423 0.929 . S
H412 C426 0.930 . S
H413 C428 0.960 . S
H414 C428 0.960 . S
H415 C428 0.960 . S
C416 H408 0.929 . S
C416 C417 1.377 1_556 S
C416 C418 1.384 . S
C417 C416 1.377 1_554 S
C417 C423 1.390 . S
C418 H409 0.930 . S
C418 C416 1.384 . S
C418 C419 1.372 1_556 S
C419 C418 1.372 1_554 S
C419 C420 1.400 . S
C419 C424 1.490 1_554 S
C420 H410 0.930 . S
C420 C419 1.400 . S
C420 C423 1.386 . S
H421 C437 0.930 . S
H422 C438 0.931 . S
C423 H411 0.929 . S
C423 C417 1.390 . S
C423 C420 1.386 . S
C424 C419 1.490 1_556 S
C424 C426 1.395 . S
C424 C427 1.402 1_556 S
H425 C431 0.930 . S
C426 H412 0.930 . S
C426 C424 1.395 . S
C426 C429 1.403 . S
C427 C424 1.402 1_554 S
C427 C428 1.524 . S
C427 C431 1.400 . S
C428 H413 0.960 . S
C428 H414 0.960 . S
C428 H415 0.960 . S
C428 C427 1.524 . S
C429 C426 1.403 . S
C429 C430 1.392 . S
C429 C433 1.495 . S
C430 C429 1.392 . S
C430 C431 1.385 1_556 S
C430 C432 1.478 . S
C431 H425 0.930 . S
C431 C427 1.400 . S
C431 C430 1.385 1_554 S
C432 C430 1.478 . S
C432 C434 1.381 . S
C432 C438 1.383 1_556 S
C433 C429 1.495 . S
C433 H439 0.959 . S
C433 H440 0.961 . S
C433 H441 0.960 . S
C434 C432 1.381 . S
C434 C435 1.394 . S
C434 H442 0.930 . S
C435 C434 1.394 . S
C435 C436 1.383 1_556 S
C435 H443 0.929 . S
C436 C435 1.383 1_554 S
C436 C437 1.377 . S
C437 H421 0.930 . S
C437 C436 1.377 . S
C437 C438 1.379 . S
C438 H422 0.931 . S
C438 C432 1.383 1_554 S
C438 C437 1.379 . S
H439 C433 0.959 . S
H440 C433 0.961 . S
H441 C433 0.960 . S
H442 C434 0.930 . S
H443 C435 0.929 . S
C129 C17 1.462 . S
C148 C2 1.444 . S
C165 C57 1.462 . S
C184 C42 1.473 1_545 S
C201 C97 1.464 . S
C220 C82 1.480 . S
C237 C12 1.890 . S
C256 C88 1.839 . S
C273 C48 0.861 . S
C292 C8 0.869 . S
C309 C52 2.586 . S
C328 C111 2.556 . S
C345 C31 1.891 . S
C364 C109 1.815 . S
C381 C29 0.861 . S
C400 C69 0.883 . S
C417 C92 2.565 . S
C436 C71 2.580 . S
