# Generated by pormake.
# Topology bcu-j, (5)-cn, num edge types: 1
# Building blocks:
#     Node 0, Type 0, BuildingBlock: XOMCOT_clean_sbu_1, # of connection points: 5
#     Node 1, Type 0, BuildingBlock: XOMCOT_clean_sbu_1, # of connection points: 5
#     Node 2, Type 0, BuildingBlock: XOMCOT_clean_sbu_1, # of connection points: 5
#     Node 3, Type 0, BuildingBlock: XOMCOT_clean_sbu_1, # of connection points: 5
#     Node 4, Type 0, BuildingBlock: XOMCOT_clean_sbu_1, # of connection points: 5
#     Node 5, Type 0, BuildingBlock: XOMCOT_clean_sbu_1, # of connection points: 5
#     Node 6, Type 0, BuildingBlock: XOMCOT_clean_sbu_1, # of connection points: 5
#     Node 7, Type 0, BuildingBlock: XOMCOT_clean_sbu_1, # of connection points: 5
#     Node 8, Type 0, BuildingBlock: XOMCOT_clean_sbu_1, # of connection points: 5
#     Node 9, Type 0, BuildingBlock: XOMCOT_clean_sbu_1, # of connection points: 5
#     Node 10, Type 0, BuildingBlock: XOMCOT_clean_sbu_1, # of connection points: 5
#     Node 11, Type 0, BuildingBlock: XOMCOT_clean_sbu_1, # of connection points: 5
#     Node 12, Type 0, BuildingBlock: XOMCOT_clean_sbu_1, # of connection points: 5
#     Node 13, Type 0, BuildingBlock: XOMCOT_clean_sbu_1, # of connection points: 5
#     Node 14, Type 0, BuildingBlock: XOMCOT_clean_sbu_1, # of connection points: 5
#     Node 15, Type 0, BuildingBlock: XOMCOT_clean_sbu_1, # of connection points: 5
#     Edge 16, Type (0, 0), BuildingBlock: TEMPAE_clean_linker_10, # of connection points: 2
#     Edge 17, Type (0, 0), BuildingBlock: TEMPAE_clean_linker_10, # of connection points: 2
#     Edge 18, Type (0, 0), BuildingBlock: TEMPAE_clean_linker_10, # of connection points: 2
#     Edge 19, Type (0, 0), BuildingBlock: TEMPAE_clean_linker_10, # of connection points: 2
#     Edge 20, Type (0, 0), BuildingBlock: TEMPAE_clean_linker_10, # of connection points: 2
#     Edge 21, Type (0, 0), BuildingBlock: TEMPAE_clean_linker_10, # of connection points: 2
#     Edge 22, Type (0, 0), BuildingBlock: TEMPAE_clean_linker_10, # of connection points: 2
#     Edge 23, Type (0, 0), BuildingBlock: TEMPAE_clean_linker_10, # of connection points: 2
#     Edge 24, Type (0, 0), BuildingBlock: TEMPAE_clean_linker_10, # of connection points: 2
#     Edge 25, Type (0, 0), BuildingBlock: TEMPAE_clean_linker_10, # of connection points: 2
#     Edge 26, Type (0, 0), BuildingBlock: TEMPAE_clean_linker_10, # of connection points: 2
#     Edge 27, Type (0, 0), BuildingBlock: TEMPAE_clean_linker_10, # of connection points: 2
#     Edge 28, Type (0, 0), BuildingBlock: TEMPAE_clean_linker_10, # of connection points: 2
#     Edge 29, Type (0, 0), BuildingBlock: TEMPAE_clean_linker_10, # of connection points: 2
#     Edge 30, Type (0, 0), BuildingBlock: TEMPAE_clean_linker_10, # of connection points: 2
#     Edge 31, Type (0, 0), BuildingBlock: TEMPAE_clean_linker_10, # of connection points: 2
#     Edge 32, Type (0, 0), BuildingBlock: TEMPAE_clean_linker_10, # of connection points: 2
#     Edge 33, Type (0, 0), BuildingBlock: TEMPAE_clean_linker_10, # of connection points: 2
#     Edge 34, Type (0, 0), BuildingBlock: TEMPAE_clean_linker_10, # of connection points: 2
#     Edge 35, Type (0, 0), BuildingBlock: TEMPAE_clean_linker_10, # of connection points: 2
#     Edge 36, Type (0, 0), BuildingBlock: TEMPAE_clean_linker_10, # of connection points: 2
#     Edge 37, Type (0, 0), BuildingBlock: TEMPAE_clean_linker_10, # of connection points: 2
#     Edge 38, Type (0, 0), BuildingBlock: TEMPAE_clean_linker_10, # of connection points: 2
#     Edge 39, Type (0, 0), BuildingBlock: TEMPAE_clean_linker_10, # of connection points: 2
#     Edge 40, Type (0, 0), BuildingBlock: TEMPAE_clean_linker_10, # of connection points: 2
#     Edge 41, Type (0, 0), BuildingBlock: TEMPAE_clean_linker_10, # of connection points: 2
#     Edge 42, Type (0, 0), BuildingBlock: TEMPAE_clean_linker_10, # of connection points: 2
#     Edge 43, Type (0, 0), BuildingBlock: TEMPAE_clean_linker_10, # of connection points: 2
#     Edge 44, Type (0, 0), BuildingBlock: TEMPAE_clean_linker_10, # of connection points: 2
#     Edge 45, Type (0, 0), BuildingBlock: TEMPAE_clean_linker_10, # of connection points: 2
#     Edge 46, Type (0, 0), BuildingBlock: TEMPAE_clean_linker_10, # of connection points: 2
#     Edge 47, Type (0, 0), BuildingBlock: TEMPAE_clean_linker_10, # of connection points: 2
#     Edge 48, Type (0, 0), BuildingBlock: TEMPAE_clean_linker_10, # of connection points: 2
#     Edge 49, Type (0, 0), BuildingBlock: TEMPAE_clean_linker_10, # of connection points: 2
#     Edge 50, Type (0, 0), BuildingBlock: TEMPAE_clean_linker_10, # of connection points: 2
#     Edge 51, Type (0, 0), BuildingBlock: TEMPAE_clean_linker_10, # of connection points: 2
#     Edge 52, Type (0, 0), BuildingBlock: TEMPAE_clean_linker_10, # of connection points: 2
#     Edge 53, Type (0, 0), BuildingBlock: TEMPAE_clean_linker_10, # of connection points: 2
#     Edge 54, Type (0, 0), BuildingBlock: TEMPAE_clean_linker_10, # of connection points: 2
#     Edge 55, Type (0, 0), BuildingBlock: TEMPAE_clean_linker_10, # of connection points: 2
# Relax obj value: 0.637
# Max RMSD: 0.289
# Mean RMSD: 0.289
data_MOF--net-bcu-j--node1-XOMCOT_clean_sbu_1--edge1-TEMPAE_clean_linker_10
_symmetry_space_group_name_H-M    P1
_symmetry_Int_Tables_number       1
_symmetry_cell_setting            triclinic
loop_
_symmetry_equiv_pos_as_xyz
'x, y, z'
_cell_length_a     44.50673
_cell_length_b     44.507241
_cell_length_c     46.36538
_cell_angle_alpha  89.999295
_cell_angle_beta   89.955001
_cell_angle_gamma 90.068642
loop_
_atom_site_label
_atom_site_type_symbol
_atom_site_fract_x
_atom_site_fract_y
_atom_site_fract_z
_atom_type_partial_charge
C0 C 0.00573 0.10743 0.59049 0.0
C1 C 0.03429 0.09769 0.58399 0.0
N2 N 0.05231 0.10464 0.60631 0.0
N3 N 0.00577 0.11979 0.61708 0.0
C4 C 0.03464 0.11837 0.62582 0.0
H5 H 0.98613 0.10491 0.57696 0.0
Co6 Co 0.97352 0.13354 0.63887 0.0
C7 C 0.9831 0.10576 0.69705 0.0
O8 O 0.95417 0.10385 0.7024 0.0
N9 N 0.9411 0.1482 0.66091 0.0
C10 C 0.89681 0.161 0.6798 0.0
C11 C 0.91099 0.14422 0.65893 0.0
C12 C 0.94441 0.16753 0.68311 0.0
N13 N 0.91796 0.17576 0.69485 0.0
O14 O 0.9949 0.16989 0.64515 0.0
H15 H 0.89949 0.13023 0.64354 0.0
H16 H 0.96604 0.17488 0.69107 0.0
O17 O 0.99225 0.11672 0.67317 0.0
C18 C 0.9931 0.18981 0.62561 0.0
O19 O 0.97522 0.185 0.60355 0.0
N20 N 0.95303 0.09799 0.63044 0.0
C21 C 0.93592 0.04873 0.59749 0.0
C22 C 0.95425 0.0449 0.6218 0.0
C23 C 0.96277 0.06995 0.63798 0.0
C24 C 0.93338 0.10164 0.60821 0.0
C25 C 0.92382 0.07719 0.59198 0.0
H26 H 0.97998 0.06692 0.65404 0.0
H27 H 0.92747 0.12405 0.60122 0.0
H28 H 0.04244 0.12646 0.6465 0.0
H29 H 0.04125 0.08621 0.56451 0.0
H30 H 0.87282 0.16251 0.68334 0.0
H31 H 0.96462 0.02343 0.62641 0.0
H32 H 0.90954 0.08108 0.57344 0.0
C33 C 0.32712 0.09038 0.57391 0.0
C34 C 0.33818 0.11919 0.57169 0.0
N35 N 0.3521 0.12617 0.59662 0.0
N36 N 0.33399 0.07926 0.60011 0.0
C37 C 0.34901 0.10165 0.61347 0.0
H38 H 0.31587 0.07791 0.55706 0.0
Co39 Co 0.32739 0.03998 0.61228 0.0
C40 C 0.36315 0.03434 0.666 0.0
O41 O 0.37258 0.00775 0.6577 0.0
N42 N 0.31993 0.00023 0.6245 0.0
C43 C 0.31289 0.95089 0.62981 0.0
C44 C 0.32309 0.97314 0.61158 0.0
C45 C 0.30729 0.99371 0.65022 0.0
N46 N 0.30319 0.96399 0.6542 0.0
O47 O 0.28877 0.05131 0.62604 0.0
H48 H 0.33166 0.96923 0.59018 0.0
H49 H 0.30069 0.0107 0.66567 0.0
O50 O 0.34514 0.04928 0.65003 0.0
C51 C 0.26936 0.04926 0.60604 0.0
O52 O 0.27782 0.0391 0.5807 0.0
N53 N 0.36449 0.02959 0.59617 0.0
C54 C 0.41577 0.01768 0.56374 0.0
C55 C 0.41771 0.03426 0.58933 0.0
C56 C 0.39168 0.04064 0.60483 0.0
C57 C 0.36203 0.01519 0.57038 0.0
C58 C 0.38743 0.00824 0.55417 0.0
H59 H 0.39341 0.05579 0.62283 0.0
H60 H 0.34003 0.00973 0.56198 0.0
H61 H 0.35922 0.09944 0.63449 0.0
H62 H 0.33675 0.1335 0.55287 0.0
H63 H 0.31263 0.92701 0.62542 0.0
H64 H 0.43896 0.04342 0.59661 0.0
H65 H 0.38479 0.99603 0.53413 0.0
C66 C 0.4753 0.34552 0.58487 0.0
C67 C 0.44599 0.35217 0.57757 0.0
N68 N 0.43259 0.36431 0.60085 0.0
N69 N 0.4801 0.35338 0.61259 0.0
C70 C 0.45357 0.3645 0.62168 0.0
H71 H 0.49205 0.33564 0.57089 0.0
Co72 Co 0.51545 0.34879 0.6335 0.0
C73 C 0.49322 0.36048 0.69282 0.0
O74 O 0.50487 0.33554 0.70301 0.0
N75 N 0.55099 0.34412 0.6542 0.0
C76 C 0.58758 0.35043 0.68605 0.0
C77 C 0.56504 0.36446 0.67098 0.0
C78 C 0.56603 0.31828 0.65867 0.0
N79 N 0.58797 0.32108 0.67868 0.0
O80 O 0.50063 0.31105 0.64619 0.0
H81 H 0.55791 0.38744 0.67393 0.0
H82 H 0.55962 0.29737 0.64874 0.0
O83 O 0.49682 0.36739 0.66641 0.0
C84 C 0.50287 0.28861 0.62938 0.0
O85 O 0.5203 0.29055 0.60659 0.0
N86 N 0.52869 0.38559 0.61938 0.0
C87 C 0.53053 0.43636 0.58503 0.0
C88 C 0.52238 0.43864 0.6141 0.0
C89 C 0.52156 0.41287 0.63104 0.0
C90 C 0.54021 0.38359 0.59227 0.0
C91 C 0.54128 0.40886 0.57453 0.0
H92 H 0.51314 0.41495 0.65274 0.0
H93 H 0.54559 0.36175 0.58343 0.0
H94 H 0.44913 0.37202 0.64334 0.0
H95 H 0.43554 0.34886 0.55674 0.0
H96 H 0.60049 0.36064 0.70321 0.0
H97 H 0.51452 0.45972 0.62302 0.0
H98 H 0.54769 0.40625 0.55213 0.0
C99 C 0.1681 0.39399 0.58572 0.0
C100 C 0.15584 0.36557 0.58409 0.0
N101 N 0.13816 0.36134 0.60739 0.0
N102 N 0.15825 0.40747 0.60994 0.0
C103 C 0.14033 0.38695 0.62276 0.0
H104 H 0.18218 0.40463 0.56966 0.0
Co105 Co 0.16424 0.44728 0.62018 0.0
C106 C 0.13176 0.45324 0.67601 0.0
O107 O 0.12147 0.47983 0.66865 0.0
N108 N 0.17073 0.48768 0.63044 0.0
C109 C 0.17488 0.53755 0.63284 0.0
C110 C 0.16518 0.5137 0.61632 0.0
C111 C 0.18424 0.49638 0.65509 0.0
N112 N 0.18659 0.52648 0.65734 0.0
O113 O 0.20377 0.43758 0.63225 0.0
H114 H 0.15507 0.51564 0.59527 0.0
H115 H 0.19255 0.48072 0.67106 0.0
O116 O 0.14887 0.43877 0.65881 0.0
C117 C 0.22251 0.44414 0.61248 0.0
O118 O 0.21258 0.45789 0.58928 0.0
N119 N 0.12649 0.45596 0.60525 0.0
C120 C 0.07619 0.46304 0.57064 0.0
C121 C 0.07317 0.4522 0.59882 0.0
C122 C 0.09882 0.44804 0.61563 0.0
C123 C 0.12965 0.46579 0.57763 0.0
C124 C 0.10479 0.46996 0.56006 0.0
H125 H 0.09623 0.43687 0.63606 0.0
H126 H 0.1519 0.46965 0.56898 0.0
H127 H 0.12822 0.39102 0.64256 0.0
H128 H 0.15849 0.34996 0.56638 0.0
H129 H 0.17333 0.56113 0.62731 0.0
H130 H 0.05141 0.4456 0.60721 0.0
H131 H 0.10796 0.47801 0.53821 0.0
C132 C 0.07442 0.32877 0.93603 0.0
C133 C 0.10236 0.342 0.93844 0.0
N134 N 0.1066 0.3601 0.91544 0.0
N135 N 0.06124 0.33839 0.91158 0.0
C136 C 0.08136 0.3573 0.89961 0.0
H137 H 0.06399 0.31391 0.95154 0.0
Co138 Co 0.02231 0.3307 0.89925 0.0
C139 C 0.03647 0.3326 0.83605 0.0
O140 O 0.03196 0.30369 0.83247 0.0
N141 N 0.98259 0.32304 0.88705 0.0
C142 C 0.93344 0.32554 0.87766 0.0
C143 C 0.95714 0.339 0.89174 0.0
C144 C 0.97348 0.29982 0.87052 0.0
N145 N 0.9439 0.30075 0.86458 0.0
O146 O 0.03412 0.29098 0.89004 0.0
H147 H 0.95561 0.3595 0.90412 0.0
H148 H 0.98833 0.28286 0.86193 0.0
O149 O 0.03275 0.34453 0.86081 0.0
C150 C 0.02844 0.27142 0.90927 0.0
O151 O 0.0135 0.27969 0.93241 0.0
N152 N 0.01179 0.36897 0.91077 0.0
C153 C 0.00448 0.42366 0.9382 0.0
C154 C 0.00922 0.42256 0.90833 0.0
C155 C 0.0126 0.39475 0.89483 0.0
C156 C 0.00591 0.36964 0.93954 0.0
C157 C 0.00197 0.39682 0.95373 0.0
H158 H 0.01683 0.39425 0.87194 0.0
H159 H 0.00555 0.34886 0.95165 0.0
H160 H 0.07735 0.36931 0.8799 0.0
H161 H 0.11776 0.33931 0.9563 0.0
H162 H 0.91049 0.33352 0.87676 0.0
H163 H 0.01109 0.44299 0.89574 0.0
H164 H -0.00135 0.39687 0.97688 0.0
C165 C 0.16634 0.03766 0.92726 0.0
C166 C 0.15513 0.06546 0.93465 0.0
N167 N 0.13497 0.07366 0.91444 0.0
N168 N 0.15341 0.02859 0.90249 0.0
C169 C 0.13435 0.05088 0.89533 0.0
H170 H 0.18291 0.02489 0.93908 0.0
Co171 Co 0.16145 0.99309 0.88336 0.0
C172 C 0.12153 0.99378 0.83136 0.0
O173 O 0.11665 0.96474 0.8336 0.0
N174 N 0.17062 0.95726 0.86426 0.0
C175 C 0.18326 0.91076 0.85112 0.0
C176 C 0.17227 0.92841 0.87328 0.0
C177 C 0.18096 0.95654 0.83696 0.0
N178 N 0.18823 0.92869 0.82827 0.0
O179 O 0.19647 0.01127 0.86748 0.0
H180 H 0.16681 0.92064 0.89471 0.0
H181 H 0.18394 0.97643 0.82381 0.0
O182 O 0.13833 0.00699 0.84981 0.0
C183 C 0.22064 0.00622 0.88124 0.0
O184 O 0.21988 0.98719 0.90292 0.0
N185 N 0.12797 0.9761 0.9015 0.0
C186 C 0.08491 0.96672 0.94416 0.0
C187 C 0.0768 0.97899 0.91748 0.0
C188 C 0.09877 0.98413 0.89664 0.0
C189 C 0.13583 0.96242 0.92669 0.0
C190 C 0.11462 0.95742 0.94835 0.0
H191 H 0.09244 0.9975 0.87833 0.0
H192 H 0.15928 0.95804 0.93112 0.0
H193 H 0.12045 0.05067 0.8763 0.0
H194 H 0.16119 0.07844 0.9535 0.0
H195 H 0.18763 0.88685 0.85184 0.0
H196 H 0.05429 0.98743 0.91383 0.0
H197 H 0.12179 0.94829 0.96887 0.0
C198 C 0.42897 0.17405 0.90881 0.0
C199 C 0.40018 0.16278 0.91037 0.0
N200 N 0.3941 0.14827 0.88549 0.0
N201 N 0.44094 0.1667 0.8831 0.0
C202 C 0.41904 0.15145 0.86924 0.0
H203 H 0.44105 0.18529 0.92593 0.0
Co204 Co 0.48096 0.1714 0.87294 0.0
C205 C 0.48606 0.14202 0.81584 0.0
O206 O 0.51239 0.13098 0.82297 0.0
N207 N 0.52166 0.17665 0.86286 0.0
C208 C 0.57165 0.17742 0.85875 0.0
C209 C 0.54763 0.16577 0.87392 0.0
C210 C 0.53062 0.19482 0.84124 0.0
N211 N 0.56071 0.1959 0.83843 0.0
O212 O 0.47284 0.21192 0.86301 0.0
H213 H 0.54949 0.15046 0.89184 0.0
H214 H 0.5152 0.20675 0.82732 0.0
O215 O 0.47183 0.15871 0.83359 0.0
C216 C 0.4799 0.23007 0.88308 0.0
O217 O 0.49357 0.21938 0.90601 0.0
N218 N 0.48773 0.13233 0.88566 0.0
C219 C 0.48698 0.07951 0.91755 0.0
C220 C 0.47605 0.07991 0.88927 0.0
C221 C 0.47598 0.10673 0.8739 0.0
C222 C 0.49852 0.13222 0.91312 0.0
C223 C 0.49884 0.10594 0.92934 0.0
H224 H 0.46412 0.10703 0.85376 0.0
H225 H 0.50547 0.15313 0.92299 0.0
H226 H 0.42177 0.14155 0.84813 0.0
H227 H 0.38569 0.16348 0.92911 0.0
H228 H 0.59522 0.17308 0.86267 0.0
H229 H 0.46619 0.06005 0.87962 0.0
H230 H 0.50656 0.10678 0.95147 0.0
C231 C 0.34369 0.4617 0.91906 0.0
C232 C 0.35643 0.43424 0.92523 0.0
N233 N 0.37493 0.42693 0.90333 0.0
N234 N 0.35393 0.47132 0.8933 0.0
C235 C 0.373 0.4497 0.88435 0.0
H236 H 0.32783 0.4738 0.93237 0.0
Co237 Co 0.34304 0.50646 0.87477 0.0
C238 C 0.37178 0.50151 0.81662 0.0
O239 O 0.37839 0.53031 0.81641 0.0
N240 N 0.33125 0.54184 0.85638 0.0
C241 C 0.31933 0.5885 0.84305 0.0
C242 C 0.33277 0.57111 0.86414 0.0
C243 C 0.31639 0.54203 0.83111 0.0
N244 N 0.30957 0.5699 0.82222 0.0
O245 O 0.30489 0.48917 0.86691 0.0
H246 H 0.34265 0.57944 0.88384 0.0
H247 H 0.31054 0.52186 0.8193 0.0
O248 O 0.35803 0.49015 0.83823 0.0
C249 C 0.28415 0.49568 0.88471 0.0
O250 O 0.28971 0.5158 0.90477 0.0
N251 N 0.3803 0.5228 0.88511 0.0
C252 C 0.43214 0.53183 0.91746 0.0
C253 C 0.43378 0.51924 0.88987 0.0
C254 C 0.40757 0.51404 0.87445 0.0
C255 C 0.37864 0.53753 0.91083 0.0
C256 C 0.40436 0.54241 0.92741 0.0
H257 H 0.40961 0.49995 0.85582 0.0
H258 H 0.35686 0.54275 0.9199 0.0
H259 H 0.38495 0.45021 0.86404 0.0
H260 H 0.35253 0.42079 0.94433 0.0
H261 H 0.31714 0.61272 0.84287 0.0
H262 H 0.45484 0.51079 0.88143 0.0
H263 H 0.40202 0.55177 0.94886 0.0
C264 C 0.93984 0.81996 0.38768 0.0
C265 C 0.90885 0.81871 0.38719 0.0
N266 N 0.89924 0.8349 0.36445 0.0
N267 N 0.94945 0.83724 0.36563 0.0
C268 C 0.9242 0.84584 0.35188 0.0
H269 H 0.95444 0.80931 0.40324 0.0
Co270 Co 0.98897 0.84639 0.3565 0.0
C271 C 0.98308 0.89774 0.31482 0.0
O272 O 0.00524 0.9133 0.32614 0.0
N273 N 0.02908 0.85482 0.34698 0.0
C274 C 0.0791 0.85701 0.34581 0.0
C275 C 0.05406 0.85759 0.36336 0.0
C276 C 0.03958 0.85305 0.31977 0.0
N277 N 0.06979 0.8542 0.31835 0.0
O278 O 0.98824 0.81419 0.33 0.0
H279 H 0.05462 0.85765 0.3866 0.0
H280 H 0.02538 0.84797 0.30146 0.0
O281 O 0.97561 0.87246 0.32562 0.0
C282 C 0.99607 0.78856 0.33927 0.0
O283 O 0.01435 0.78731 0.36147 0.0
N284 N 0.98797 0.87663 0.38425 0.0
C285 C 0.97566 0.90914 0.43412 0.0
C286 C 0.96343 0.9179 0.40761 0.0
C287 C 0.96943 0.90104 0.38298 0.0
C288 C -3e-05 0.86782 0.40992 0.0
C289 C 0.99463 0.88412 0.43507 0.0
H290 H 0.95701 0.90638 0.36375 0.0
H291 H 0.01189 0.84672 0.41131 0.0
H292 H 0.92378 0.86074 0.33348 0.0
H293 H 0.89454 0.8072 0.40251 0.0
H294 H 0.10228 0.85643 0.35285 0.0
H295 H 0.94828 0.93687 0.40615 0.0
H296 H 0.00372 0.87614 0.45534 0.0
C297 C 0.673 0.91435 0.39509 0.0
C298 C 0.6663 0.88407 0.39508 0.0
N299 N 0.65035 0.87778 0.37107 0.0
N300 N 0.66116 0.92705 0.37133 0.0
C301 C 0.64796 0.9042 0.35705 0.0
H302 H 0.68519 0.92646 0.41158 0.0
Co303 Co 0.66235 0.9674 0.36115 0.0
C304 C 0.63469 0.96707 0.30342 0.0
O305 O 0.65688 0.98321 0.2929 0.0
N306 N 0.66354 0.0084 0.35091 0.0
C307 C 0.6497 0.05481 0.33882 0.0
C308 C 0.64025 0.02786 0.35018 0.0
C309 C 0.68684 0.02424 0.34008 0.0
N310 N 0.67909 0.05245 0.33229 0.0
O311 O 0.695 0.95797 0.33648 0.0
H312 H 0.61739 0.02242 0.35614 0.0
H313 H 0.70858 0.01461 0.33569 0.0
O314 O 0.63441 0.96019 0.33008 0.0
C315 C 0.72021 0.95843 0.3493 0.0
O316 O 0.7219 0.97079 0.37499 0.0
N317 N 0.63148 0.97489 0.38696 0.0
C318 C 0.58988 0.98323 0.43083 0.0
C319 C 0.58213 0.96713 0.40594 0.0
C320 C 0.60337 0.96296 0.3843 0.0
C321 C 0.63954 0.99047 0.41101 0.0
C322 C 0.61894 0.99517 0.43322 0.0
H323 H 0.59731 0.9495 0.36585 0.0
H324 H 0.66225 -0.0011 0.41305 0.0
H325 H 0.63585 0.907 0.33716 0.0
H326 H 0.67231 0.86818 0.41175 0.0
H327 H 0.63559 0.07403 0.33435 0.0
H328 H 0.55985 0.95772 0.40322 0.0
H329 H 0.62587 0.00737 0.4523 0.0
C330 C 0.54138 0.6494 0.40278 0.0
C331 C 0.57194 0.64522 0.40525 0.0
N332 N 0.58373 0.64277 0.3785 0.0
N333 N 0.53394 0.64925 0.37464 0.0
C334 C 0.56018 0.6459 0.36048 0.0
H335 H 0.52547 0.65106 0.42035 0.0
Co336 Co 0.49612 0.65007 0.35795 0.0
C337 C 0.51037 0.62718 0.30007 0.0
O338 O 0.49635 0.64994 0.28809 0.0
N339 N 0.45798 0.65071 0.34108 0.0
C340 C 0.41552 0.63687 0.31956 0.0
C341 C 0.44049 0.62695 0.33419 0.0
C342 C 0.44295 0.6747 0.33086 0.0
N343 N 0.41721 0.667 0.31733 0.0
O344 O 0.50867 0.68455 0.33697 0.0
H345 H 0.44626 0.60372 0.33815 0.0
H346 H 0.45186 0.69726 0.33112 0.0
O347 O 0.51058 0.62445 0.32741 0.0
C348 C 0.50709 0.70904 0.35099 0.0
O349 O 0.49194 0.7095 0.37532 0.0
N350 N 0.48497 0.61743 0.38034 0.0
C351 C 0.47778 0.57672 0.42496 0.0
C352 C 0.49383 0.56867 0.40014 0.0
C353 C 0.49747 0.58954 0.37807 0.0
C354 C 0.46741 0.62485 0.4033 0.0
C355 C 0.46355 0.60475 0.42604 0.0
H356 H 0.51217 0.58387 0.3604 0.0
H357 H 0.45825 0.64729 0.40487 0.0
H358 H 0.5618 0.64517 0.33725 0.0
H359 H 0.58411 0.64248 0.42526 0.0
H360 H 0.39845 0.6228 0.30984 0.0
H361 H 0.50555 0.54739 0.39881 0.0
H362 H 0.45101 0.61165 0.44494 0.0
C363 C 0.83817 0.5823 0.40374 0.0
C364 C 0.84684 0.61207 0.40384 0.0
N365 N 0.85755 0.61909 0.37743 0.0
N366 N 0.84373 0.57051 0.37753 0.0
C367 C 0.85487 0.59357 0.36195 0.0
H368 H 0.82884 0.56996 0.42173 0.0
Co369 Co 0.83759 0.5311 0.36541 0.0
C370 C 0.87468 0.52653 0.30976 0.0
O371 O 0.87235 0.49747 0.30553 0.0
N372 N 0.83084 0.49124 0.35326 0.0
C373 C 0.82889 0.44139 0.34837 0.0
C374 C 0.83864 0.46474 0.36549 0.0
C375 C 0.816 0.48325 0.32911 0.0
N376 N 0.81495 0.45324 0.32534 0.0
O377 O 0.80263 0.54443 0.34599 0.0
H378 H 0.85089 0.46214 0.3854 0.0
H379 H 0.80655 0.49929 0.31413 0.0
O380 O 0.86215 0.53904 0.33144 0.0
C381 C 0.77916 0.53883 0.3607 0.0
O382 O 0.78168 0.52215 0.38396 0.0
N383 N 0.87042 0.51918 0.38692 0.0
C384 C 0.91347 0.50368 0.42737 0.0
C385 C 0.92198 0.51142 0.39921 0.0
C386 C 0.90001 0.51924 0.37918 0.0
C387 C 0.86188 0.51205 0.41428 0.0
C388 C 0.88303 0.50394 0.43484 0.0
H389 H 0.9071 0.52574 0.35789 0.0
H390 H 0.83833 0.51269 0.42002 0.0
H391 H 0.86148 0.5916 0.3397 0.0
H392 H 0.84561 0.62711 0.42212 0.0
H393 H 0.83236 0.41767 0.35224 0.0
H394 H 0.94539 0.5115 0.3928 0.0
H395 H 0.8757 0.49857 0.45652 0.0
C396 C 0.94543 0.68509 0.08412 0.0
C397 C 0.91816 0.67065 0.08125 0.0
N398 N 0.9152 0.65095 0.10317 0.0
N399 N 0.95947 0.67464 0.1078 0.0
C400 C 0.9405 0.65391 0.11889 0.0
H401 H 0.95465 0.70177 0.06964 0.0
Co402 Co 0.99744 0.68547 0.12099 0.0
C403 C 0.00205 0.65437 0.178 0.0
O404 O 0.03093 0.64934 0.17463 0.0
N405 N 0.03569 0.6968 0.13432 0.0
C406 C 0.08419 0.70765 0.14035 0.0
C407 C 0.06349 0.69334 0.12299 0.0
C408 C 0.04016 0.71332 0.1583 0.0
N409 N 0.06935 0.72006 0.16263 0.0
O410 O 0.9818 0.7235 0.13225 0.0
H411 H 0.06871 0.68177 0.10318 0.0
H412 H 0.02204 0.72094 0.17203 0.0
O413 O 0.98755 0.66864 0.15859 0.0
C414 C 0.98779 0.74307 0.11304 0.0
O415 O 0.00483 0.73503 0.0912 0.0
N416 N 0.01204 0.64937 0.10666 0.0
C417 C 0.02117 0.601 0.06991 0.0
C418 C 0.01142 0.59625 0.0983 0.0
C419 C 0.00652 0.62088 0.11633 0.0
C420 C 0.02254 0.65411 0.07946 0.0
C421 C 0.02773 0.63024 0.06085 0.0
H422 H 0.99581 0.61682 0.13676 0.0
H423 H 0.02511 0.67685 0.07159 0.0
H424 H 0.94513 0.64098 0.13808 0.0
H425 H 0.90219 0.67385 0.06394 0.0
H426 H 0.10818 0.70897 0.13673 0.0
H427 H 0.0053 0.57399 0.10574 0.0
H428 H 0.03517 0.63477 0.03902 0.0
C429 C 0.82258 0.95467 0.07212 0.0
C430 C 0.83729 0.92792 0.06707 0.0
N431 N 0.86103 0.92623 0.0851 0.0
N432 N 0.83692 0.96956 0.09332 0.0
C433 C 0.86035 0.95193 0.1004 0.0
H434 H 0.80235 0.96241 0.06158 0.0
Co435 Co 0.82596 0.00521 0.11104 0.0
C436 C 0.83496 0.97581 0.16895 0.0
O437 O 0.80698 0.96679 0.17155 0.0
N438 N 0.81479 0.04077 0.12887 0.0
C439 C 0.80318 0.08809 0.13967 0.0
C440 C 0.81737 0.06955 0.11998 0.0
C441 C 0.79918 0.04233 0.15364 0.0
N442 N 0.79149 0.07064 0.16059 0.0
O443 O 0.78817 0.9875 0.12022 0.0
H444 H 0.82809 0.07651 0.10013 0.0
H445 H 0.79285 0.02285 0.1661 0.0
O446 O 0.84327 0.99075 0.14689 0.0
C447 C 0.76431 0.99526 0.10716 0.0
O448 O 0.76518 0.01808 0.08921 0.0
N449 N 0.86265 0.0219 0.10022 0.0
C450 C 0.91925 0.02547 0.07584 0.0
C451 C 0.91591 0.02584 0.10589 0.0
C452 C 0.88712 0.02467 0.11779 0.0
C453 C 0.86532 0.02531 0.07117 0.0
C454 C 0.89359 0.02716 0.05843 0.0
H455 H 0.8849 0.02353 0.14095 0.0
H456 H 0.84559 0.02337 0.05769 0.0
H457 H 0.87607 0.95745 0.11721 0.0
H458 H 0.83069 0.91095 0.0516 0.0
H459 H 0.80065 0.11223 0.13814 0.0
H460 H 0.93535 0.0251 0.11992 0.0
H461 H 0.89536 0.02691 0.03512 0.0
C462 C 0.55491 0.82401 0.07015 0.0
C463 C 0.58262 0.83731 0.0665 0.0
N464 N 0.58627 0.85823 0.08727 0.0
N465 N 0.54118 0.83639 0.09313 0.0
C466 C 0.56074 0.85722 0.10299 0.0
H467 H 0.54548 0.80626 0.05704 0.0
Co468 Co 0.50376 0.82567 0.10769 0.0
C469 C 0.4994 0.86047 0.16277 0.0
O470 O 0.47061 0.86601 0.15939 0.0
N471 N 0.4661 0.81423 0.12236 0.0
C472 C 0.41826 0.80136 0.12939 0.0
C473 C 0.43823 0.81489 0.11076 0.0
C474 C 0.46238 0.80007 0.14781 0.0
N475 N 0.43363 0.79191 0.15264 0.0
O476 O 0.52082 0.78961 0.12184 0.0
H477 H 0.43246 0.82366 0.08982 0.0
H478 H 0.48072 0.79574 0.16253 0.0
O479 O 0.5136 0.84526 0.14385 0.0
C480 C 0.51719 0.76736 0.10502 0.0
O481 O 0.50026 0.77086 0.08204 0.0
N482 N 0.48784 0.8601 0.09128 0.0
C483 C 0.47237 0.9063 0.0539 0.0
C484 C 0.48484 0.9127 0.081 0.0
C485 C 0.49281 0.8892 0.0993 0.0
C486 C 0.47571 0.85359 0.06509 0.0
C487 C 0.46706 0.87632 0.04636 0.0
H488 H 0.50503 0.89467 0.11861 0.0
H489 H 0.47388 0.83042 0.05826 0.0
H490 H 0.55619 0.87175 0.12113 0.0
H491 H 0.59893 0.83158 0.05009 0.0
H492 H 0.39455 0.79771 0.12553 0.0
H493 H 0.49042 0.9355 0.08717 0.0
H494 H 0.45763 0.87038 0.02559 0.0
C495 C 0.68717 0.55783 0.0845 0.0
C496 C 0.67592 0.58651 0.08171 0.0
N497 N 0.65662 0.59144 0.10361 0.0
N498 N 0.67505 0.54491 0.10807 0.0
C499 C 0.65681 0.56604 0.11938 0.0
H500 H 0.70229 0.54667 0.06972 0.0
Co501 Co 0.68009 0.50535 0.11932 0.0
C502 C 0.64225 0.49971 0.1724 0.0
O503 O 0.63373 0.47253 0.16487 0.0
N504 N 0.68598 0.46529 0.1304 0.0
C505 C 0.69303 0.41572 0.13343 0.0
C506 C 0.68447 0.43909 0.11562 0.0
C507 C 0.69597 0.4573 0.15668 0.0
N508 N 0.69964 0.42747 0.15933 0.0
O509 O 0.71814 0.51598 0.13507 0.0
H510 H 0.67835 0.43683 0.09322 0.0
H511 H 0.70108 0.47326 0.17362 0.0
O512 O 0.66068 0.51421 0.1564 0.0
C513 C 0.73962 0.51129 0.11751 0.0
O514 O 0.73383 0.49625 0.09375 0.0
N515 N 0.64366 0.4962 0.10125 0.0
C516 C 0.59641 0.49638 0.06196 0.0
C517 C 0.59197 0.50622 0.09029 0.0
C518 C 0.61599 0.50648 0.10946 0.0
C519 C 0.64809 0.48585 0.07393 0.0
C520 C 0.62468 0.48531 0.05402 0.0
H521 H 0.61253 0.51778 0.12966 0.0
H522 H 0.67054 0.48019 0.06686 0.0
H523 H 0.64311 0.56266 0.13834 0.0
H524 H 0.6804 0.60189 0.06414 0.0
H525 H 0.69453 0.39216 0.12782 0.0
H526 H 0.57079 0.51601 0.09694 0.0
H527 H 0.62908 0.47782 0.0322 0.0
C528 C 0.0347 0.08659 0.70818 0.0
C529 C 0.0051 0.09219 0.7172 0.0
C530 C 0.05534 0.07211 0.72632 0.0
C531 C 0.04622 0.06307 0.75425 0.0
C532 C 0.01665 0.06939 0.76381 0.0
C533 C 0.9964 0.08376 0.74512 0.0
C534 C 0.08662 0.0657 0.71524 0.0
C535 C 0.00618 0.06037 0.79357 0.0
C536 C 0.08529 0.99721 0.79028 0.0
C537 C 0.10413 0.01168 0.81017 0.0
C538 C 0.06684 0.01372 0.77157 0.0
C539 C 0.067 0.04551 0.77291 0.0
C540 C 0.08645 0.0603 0.79245 0.0
C541 C 0.10501 0.04321 0.81063 0.0
C542 C 0.04666 0.9971 0.75079 0.0
C543 C 0.08714 0.09415 0.79466 0.0
H544 H 0.04161 0.09278 0.6866 0.0
H545 H 0.97365 0.08816 0.75233 0.0
H546 H 0.10364 0.0747 0.73042 0.0
H547 H 0.09013 0.04107 0.71385 0.0
H548 H 0.09067 0.07563 0.69358 0.0
H549 H 0.98304 0.06833 0.79827 0.0
H550 H 0.00661 0.03553 0.79561 0.0
H551 H 0.02161 0.06957 0.81015 0.0
H552 H 0.08461 0.97288 0.78955 0.0
H553 H 0.11978 0.05465 0.82559 0.0
H554 H 0.05089 0.00488 0.72842 0.0
H555 H 0.02279 0.00199 0.75585 0.0
H556 H 0.05006 0.97239 0.75165 0.0
H557 H 0.09214 0.10416 0.77328 0.0
H558 H 0.10413 0.10222 0.81041 0.0
H559 H 0.06475 0.10255 0.80142 0.0
C560 C 0.41092 0.05492 0.68474 0.0
C561 C 0.38006 0.05031 0.68849 0.0
C562 C 0.42759 0.07146 0.70484 0.0
C563 C 0.41338 0.08217 0.73015 0.0
C564 C 0.38221 0.07694 0.73436 0.0
C565 C 0.3657 0.06173 0.71298 0.0
C566 C 0.46036 0.07777 0.69878 0.0
C567 C 0.36619 0.08733 0.76128 0.0
C568 C 0.46743 0.09581 0.79197 0.0
C569 C 0.46876 0.12724 0.79282 0.0
C570 C 0.44842 0.08096 0.77254 0.0
C571 C 0.43163 0.09792 0.75241 0.0
C572 C 0.4334 0.12972 0.75284 0.0
C573 C 0.45138 0.14407 0.77362 0.0
C574 C 0.44578 0.04716 0.774 0.0
C575 C 0.41649 0.14853 0.73129 0.0
H576 H 0.42193 0.04617 0.66565 0.0
H577 H 0.34176 0.05816 0.7157 0.0
H578 H 0.46485 0.10224 0.70051 0.0
H579 H 0.47461 0.06633 0.71502 0.0
H580 H 0.4673 0.07004 0.67699 0.0
H581 H 0.34505 0.07457 0.7649 0.0
H582 H 0.38066 0.08494 0.78062 0.0
H583 H 0.36032 0.11141 0.75903 0.0
H584 H 0.48036 0.08281 0.80735 0.0
H585 H 0.45219 0.1684 0.77462 0.0
H586 H 0.4542 0.03699 0.75372 0.0
H587 H 0.42181 0.04062 0.77629 0.0
H588 H 0.4586 0.03751 0.79234 0.0
H589 H 0.4202 0.13978 0.70916 0.0
H590 H 0.4234 0.17252 0.73201 0.0
H591 H 0.39207 0.14719 0.7358 0.0
C592 C 0.3746 0.45432 0.78761 0.0
C593 C 0.38793 0.48109 0.79701 0.0
C594 C 0.39081 0.43377 0.77064 0.0
C595 C 0.42135 0.43969 0.76405 0.0
C596 C 0.43497 0.46652 0.77399 0.0
C597 C 0.41792 0.48714 0.7899 0.0
C598 C 0.37527 0.40588 0.75963 0.0
C599 C 0.46767 0.47329 0.76809 0.0
C600 C 0.47229 0.37529 0.74113 0.0
C601 C 0.4748 0.3804 0.71139 0.0
C602 C 0.45475 0.39426 0.75861 0.0
C603 C 0.43893 0.41849 0.7459 0.0
C604 C 0.44107 0.42347 0.71586 0.0
C605 C 0.45927 0.40468 0.6991 0.0
C606 C 0.45375 0.38882 0.79072 0.0
C607 C 0.42405 0.44861 0.70133 0.0
H608 H 0.35145 0.4496 0.79335 0.0
H609 H 0.42845 0.50754 0.79775 0.0
H610 H 0.37648 0.40518 0.73573 0.0
H611 H 0.38683 0.38554 0.76782 0.0
H612 H 0.35129 0.40489 0.76624 0.0
H613 H 0.47525 0.49437 0.77868 0.0
H614 H 0.4819 0.4545 0.77586 0.0
H615 H 0.47147 0.47542 0.74453 0.0
H616 H 0.48434 0.35672 0.75085 0.0
H617 H 0.4612 0.40914 0.67623 0.0
H618 H 0.43019 0.38631 0.79814 0.0
H619 H 0.46337 0.4085 0.80216 0.0
H620 H 0.46651 0.36844 0.79705 0.0
H621 H 0.39955 0.44509 0.70426 0.0
H622 H 0.42899 0.45 0.67788 0.0
H623 H 0.42976 0.47051 0.71133 0.0
C624 C 0.06002 0.3799 0.8174 0.0
C625 C 0.04847 0.35109 0.81198 0.0
C626 C 0.07378 0.39679 0.79556 0.0
C627 C 0.07509 0.3851 0.76723 0.0
C628 C 0.06236 0.35658 0.76122 0.0
C629 C 0.04955 0.33973 0.78376 0.0
C630 C 0.08768 0.42677 0.80309 0.0
C631 C 0.06236 0.34386 0.73101 0.0
C632 C 0.08771 0.44191 0.7073 0.0
C633 C 0.11799 0.43708 0.70045 0.0
C634 C 0.0733 0.42471 0.72857 0.0
C635 C 0.08986 0.40282 0.74397 0.0
C636 C 0.12066 0.39834 0.73756 0.0
C637 C 0.13424 0.41518 0.71548 0.0
C638 C 0.04026 0.42966 0.7343 0.0
C639 C 0.13928 0.37584 0.75408 0.0
H640 H 0.05896 0.38922 0.83889 0.0
H641 H 0.04037 0.31766 0.77925 0.0
H642 H 0.11243 0.42544 0.80039 0.0
H643 H 0.07945 0.44456 0.78835 0.0
H644 H 0.08271 0.43362 0.82563 0.0
H645 H 0.05021 0.32209 0.72964 0.0
H646 H 0.0517 0.36 0.71593 0.0
H647 H 0.08578 0.34042 0.72353 0.0
H648 H 0.07494 0.45844 0.69529 0.0
H649 H 0.15764 0.41139 0.71007 0.0
H650 H 0.03686 0.43704 0.75691 0.0
H651 H 0.02779 0.40826 0.7315 0.0
H652 H 0.03038 0.44681 0.71971 0.0
H653 H 0.13854 0.38111 0.77747 0.0
H654 H 0.16312 0.37564 0.74695 0.0
H655 H 0.12982 0.35296 0.75128 0.0
C656 C 0.94647 0.89179 0.27463 0.0
C657 C 0.96388 0.91077 0.29207 0.0
C658 C 0.92633 0.90354 0.25435 0.0
C659 C 0.92313 0.93506 0.25176 0.0
C660 C 0.94087 0.95437 0.26908 0.0
C661 C 0.9613 0.94197 0.28887 0.0
C662 C 0.90834 0.8822 0.2358 0.0
C663 C 0.93776 0.98809 0.26718 0.0
C664 C 0.888 0.96469 0.18289 0.0
C665 C 0.85764 0.96712 0.19073 0.0
C666 C 0.90959 0.95443 0.20254 0.0
C667 C 0.90084 0.94761 0.23113 0.0
C668 C 0.87047 0.95138 0.2396 0.0
C669 C 0.8491 0.9606 0.21914 0.0
C670 C 0.94155 0.95001 0.19239 0.0
C671 C 0.86059 0.94569 0.27027 0.0
H672 H 0.94854 0.86763 0.27694 0.0
H673 H 0.9745 0.9567 0.30252 0.0
H674 H 0.88397 0.88675 0.23824 0.0
H675 H 0.91407 0.88577 0.21275 0.0
H676 H 0.91259 0.85828 0.24129 0.0
H677 H 0.95365 -1e-05 0.2817 0.0
H678 H 0.94177 0.99573 0.24474 0.0
H679 H 0.91451 0.99472 0.27301 0.0
H680 H 0.89491 0.97 0.16111 0.0
H681 H 0.82576 0.96297 0.22544 0.0
H682 H 0.94747 0.92583 0.19361 0.0
H683 H 0.95736 0.96232 0.20661 0.0
H684 H 0.94496 0.95775 0.16984 0.0
H685 H 0.86817 0.92322 0.27756 0.0
H686 H 0.83582 0.9472 0.27286 0.0
H687 H 0.8712 0.96248 0.28472 0.0
C688 C 0.61029 0.96263 0.25488 0.0
C689 C 0.61156 0.95421 0.284 0.0
C690 C 0.5901 0.94866 0.23583 0.0
C691 C 0.57109 0.92542 0.24608 0.0
C692 C 0.57174 0.91738 0.27559 0.0
C693 C 0.59154 0.93226 0.29426 0.0
C694 C 0.58928 0.95868 0.20472 0.0
C695 C 0.5519 0.89271 0.28743 0.0
C696 C 0.50459 0.90058 0.20039 0.0
C697 C 0.51672 0.87589 0.18563 0.0
C698 C 0.52197 0.91697 0.22022 0.0
C699 C 0.552 0.90819 0.2256 0.0
C700 C 0.5641 0.88287 0.21125 0.0
C701 C 0.54637 0.86711 0.19138 0.0
C702 C 0.50846 0.94406 0.23487 0.0
C703 C 0.59584 0.87244 0.21685 0.0
H704 H 0.62528 0.97993 0.24687 0.0
H705 H 0.59179 0.926 0.31681 0.0
H706 H 0.58946 0.9391 0.18994 0.0
H707 H 0.5681 0.97112 0.20074 0.0
H708 H 0.60846 0.9736 0.19919 0.0
H709 H 0.55801 0.88646 0.30987 0.0
H710 H 0.52816 0.90023 0.28725 0.0
H711 H 0.55334 0.87234 0.2737 0.0
H712 H 0.48177 0.90764 0.19588 0.0
H713 H 0.55586 0.84797 0.18015 0.0
H714 H 0.52148 0.96446 0.22908 0.0
H715 H 0.50977 0.9415 0.25863 0.0
H716 H 0.4846 0.94761 0.22872 0.0
H717 H 0.61188 0.89125 0.21377 0.0
H718 H 0.60254 0.85357 0.20255 0.0
H719 H 0.59787 0.86504 0.23959 0.0
C720 C 0.52832 0.60822 0.25216 0.0
C721 C 0.52884 0.60652 0.28234 0.0
C722 C 0.54709 0.58992 0.2353 0.0
C723 C 0.56706 0.56963 0.24891 0.0
C724 C 0.56761 0.56772 0.27939 0.0
C725 C 0.54832 0.58597 0.29568 0.0
C726 C 0.5459 0.59261 0.20288 0.0
C727 C 0.58838 0.54643 0.29504 0.0
C728 C 0.59801 0.50426 0.20542 0.0
C729 C 0.625 0.51619 0.19473 0.0
C730 C 0.57911 0.52134 0.22328 0.0
C731 C 0.58768 0.55085 0.23117 0.0
C732 C 0.6155 0.56261 0.22132 0.0
C733 C 0.63371 0.54518 0.20315 0.0
C734 C 0.5493 0.50829 0.23257 0.0
C735 C 0.62598 0.594 0.22857 0.0
H736 H 0.51341 0.62404 0.24166 0.0
H737 H 0.54905 0.5845 0.319 0.0
H738 H 0.56766 0.60148 0.19484 0.0
H739 H 0.54249 0.57015 0.19299 0.0
H740 H 0.52766 0.6078 0.19554 0.0
H741 H 0.59298 0.5542 0.31739 0.0
H742 H 0.57759 0.52402 0.29647 0.0
H743 H 0.61009 0.54372 0.28356 0.0
H744 H 0.59093 0.48198 0.19888 0.0
H745 H 0.65449 0.55467 0.19497 0.0
H746 H 0.53074 0.52298 0.22506 0.0
H747 H 0.54805 0.50738 0.25643 0.0
H748 H 0.5456 0.4853 0.22396 0.0
H749 H 0.62409 0.60828 0.20902 0.0
H750 H 0.65009 0.59363 0.23477 0.0
H751 H 0.613 0.6047 0.24618 0.0
C752 C 0.89792 0.538 0.26183 0.0
C753 C 0.89465 0.54468 0.29117 0.0
C754 C 0.91628 0.55582 0.24401 0.0
C755 C 0.93193 0.58063 0.25595 0.0
C756 C 0.92926 0.58689 0.28578 0.0
C757 C 0.91072 0.56881 0.30298 0.0
C758 C 0.91884 0.54829 0.21239 0.0
C759 C 0.94625 0.61228 0.29991 0.0
C760 C -0.00153 0.61404 0.21557 0.0
C761 C 0.98491 0.63756 0.20021 0.0
C762 C 0.9815 0.59534 0.23378 0.0
C763 C 0.95031 0.60056 0.23709 0.0
C764 C 0.93668 0.62489 0.22237 0.0
C765 C 0.95411 0.64296 0.20404 0.0
C766 C 0.99676 0.56939 0.24875 0.0
C767 C 0.90346 0.63138 0.22469 0.0
H768 H 0.88568 0.51919 0.2527 0.0
H769 H 0.90919 0.57336 0.32589 0.0
H770 H 0.91092 0.56758 0.19932 0.0
H771 H 0.94272 0.54435 0.20666 0.0
H772 H 0.90552 0.52809 0.20646 0.0
H773 H 0.93499 0.61968 0.32006 0.0
H774 H 0.96908 0.60439 0.30573 0.0
H775 H 0.94877 0.63185 0.28532 0.0
H776 H 0.02219 0.60952 0.2126 0.0
H777 H 0.94335 0.66099 0.19221 0.0
H778 H 0.9854 0.548 0.243 0.0
H779 H 0.99493 0.57209 0.27245 0.0
H780 H 0.02092 0.5676 0.24296 0.0
H781 H 0.89155 0.61947 0.20704 0.0
H782 H 0.89894 0.65578 0.22216 0.0
H783 H 0.89376 0.62379 0.24549 0.0
C784 C 0.93676 0.93168 0.46622 0.0
C785 C 0.96702 0.92493 0.46087 0.0
C786 C 0.92834 0.94837 0.4905 0.0
C787 C 0.95079 0.9587 0.50966 0.0
C788 C 0.98122 0.95064 0.50514 0.0
C789 C 0.98897 0.93371 0.48078 0.0
C790 C 0.89566 0.95628 0.49481 0.0
C791 C 0.0058 0.96141 0.52506 0.0
C792 C 0.94065 0.03368 0.54611 0.0
C793 C 0.9351 0.02531 0.5748 0.0
C794 C 0.94466 0.01211 0.5246 0.0
C795 C 0.94323 0.98131 0.53192 0.0
C796 C 0.93643 0.97257 0.56055 0.0
C797 C 0.93256 0.99475 0.58178 0.0
C798 C 0.95197 0.02236 0.4943 0.0
C799 C 0.93446 0.93987 0.56895 0.0
H800 H 0.91969 0.92425 0.45114 0.0
H801 H 0.01235 0.92839 0.47666 0.0
H802 H 0.88883 0.95226 0.5175 0.0
H803 H 0.89229 0.98052 0.49027 0.0
H804 H 0.88068 0.94314 0.48037 0.0
H805 H 0.00844 0.9861 0.52286 0.0
H806 H -0.00019 0.95673 0.54785 0.0
H807 H 0.02775 0.95064 0.52025 0.0
H808 H 0.94346 0.05719 0.54063 0.0
H809 H 0.92827 0.98822 0.60393 0.0
H810 H 0.93628 0.01193 0.47864 0.0
H811 H 0.97501 0.01507 0.48845 0.0
H812 H 0.95066 0.04717 0.49192 0.0
H813 H 0.9197 0.92748 0.55377 0.0
H814 H 0.92573 0.93685 0.59122 0.0
H815 H 0.95709 0.92953 0.56765 0.0
C816 C 0.54914 0.96337 0.46252 0.0
C817 C 0.56757 0.98738 0.4541 0.0
C818 C 0.52601 0.96754 0.48255 0.0
C819 C 0.52135 0.99641 0.49448 0.0
C820 C 0.54079 0.02041 0.48716 0.0
C821 C 0.56372 0.01561 0.46696 0.0
C822 C 0.50574 0.94141 0.48995 0.0
C823 C 0.53651 0.05146 0.49962 0.0
C824 C 0.44187 0.0158 0.51616 0.0
C825 C 0.44291 0.01205 0.54614 0.0
C826 C 0.46734 0.01081 0.49915 0.0
C827 C 0.49452 0.00207 0.51251 0.0
C828 C 0.49584 -0.00157 0.54278 0.0
C829 C 0.46993 0.00343 0.55929 0.0
C830 C 0.46513 0.01489 0.46686 0.0
C831 C 0.52454 0.98914 0.55765 0.0
H832 H 0.55251 0.94136 0.45302 0.0
H833 H 0.57787 0.03424 0.4604 0.0
H834 H 0.50389 0.93883 0.51368 0.0
H835 H 0.4828 0.94576 0.48158 0.0
H836 H 0.51392 0.91991 0.48064 0.0
H837 H 0.55528 0.06684 0.49393 0.0
H838 H 0.51527 0.06122 0.49135 0.0
H839 H 0.53461 0.05031 0.52345 0.0
H840 H 0.4212 0.02304 0.50598 0.0
H841 H 0.47072 0.00031 0.58246 0.0
H842 H 0.47103 0.9936 0.45577 0.0
H843 H 0.48142 0.03221 0.45959 0.0
H844 H 0.44227 0.02176 0.4599 0.0
H845 H 0.53188 0.96687 0.54957 0.0
H846 H 0.52191 0.98784 0.58145 0.0
H847 H 0.54272 0.00538 0.55259 0.0
C848 C 0.54308 0.46965 0.5433 0.0
C849 C 0.52286 0.46072 0.56478 0.0
C850 C 0.53435 0.49014 0.52195 0.0
C851 C 0.5046 0.50146 0.522 0.0
C852 C 0.48435 0.49306 0.54406 0.0
C853 C 0.49378 0.47284 0.56527 0.0
C854 C 0.55663 0.499 0.49888 0.0
C855 C 0.45239 0.50443 0.54457 0.0
C856 C 0.49007 0.57066 0.47687 0.0
C857 C 0.48006 0.55783 0.45099 0.0
C858 C 0.49739 0.5526 0.50054 0.0
C859 C 0.49436 0.52107 0.49821 0.0
C860 C 0.48281 0.50812 0.47262 0.0
C861 C 0.47596 0.52671 0.44917 0.0
C862 C 0.50979 0.56712 0.52747 0.0
C863 C 0.47879 0.47457 0.46963 0.0
H864 H 0.56553 0.46022 0.54298 0.0
H865 H 0.47791 0.46544 0.58155 0.0
H866 H 0.54872 0.49087 0.47758 0.0
H867 H 0.55839 0.52383 0.49757 0.0
H868 H 0.57936 0.48962 0.50296 0.0
H869 H 0.44003 0.49705 0.56417 0.0
H870 H 0.45205 0.52933 0.54364 0.0
H871 H 0.4402 0.49607 0.5253 0.0
H872 H 0.49372 0.59472 0.47809 0.0
H873 H 0.46815 0.51689 0.42912 0.0
H874 H 0.53356 0.56031 0.53045 0.0
H875 H 0.49718 0.55939 0.54674 0.0
H876 H 0.50876 0.59204 0.52652 0.0
H877 H 0.50105 0.46338 0.47032 0.0
H878 H 0.46749 0.46834 0.44912 0.0
H879 H 0.46537 0.46566 0.4879 0.0
C880 C 0.96133 0.51487 0.45282 0.0
C881 C 0.93625 0.49627 0.44924 0.0
C882 C 0.98283 0.50855 0.47394 0.0
C883 C 0.97911 0.4829 0.49163 0.0
C884 C 0.95379 0.46405 0.48815 0.0
C885 C 0.93252 0.47104 0.46697 0.0
C886 C 0.00955 0.52923 0.47724 0.0
C887 C 0.94938 0.43636 0.50651 0.0
C888 C 0.05098 0.45339 0.52385 0.0
C889 C 0.04995 0.4658 0.55157 0.0
C890 C 0.02743 0.45785 0.50443 0.0
C891 C 0.00246 0.47532 0.51301 0.0
C892 C 0.00079 0.48699 0.54136 0.0
C893 C 0.02463 0.48193 0.56046 0.0
C894 C 0.02976 0.44478 0.47444 0.0
C895 C 0.97446 0.50581 0.5511 0.0
H896 H 0.96391 0.53463 0.43935 0.0
H897 H 0.91315 0.45658 0.46399 0.0
H898 H 0.01079 0.53774 0.49971 0.0
H899 H 0.0306 0.51667 0.47296 0.0
H900 H 0.00854 0.54874 0.46233 0.0
H901 H 0.92802 0.42452 0.50153 0.0
H902 H 0.9683 0.42055 0.50305 0.0
H903 H 0.94941 0.44254 0.52968 0.0
H904 H 0.07047 0.4405 0.51724 0.0
H905 H 0.02401 0.49153 0.58195 0.0
H906 H 0.0314 0.46321 0.45839 0.0
H907 H 0.00927 0.43163 0.46925 0.0
H908 H 0.04966 0.42997 0.47193 0.0
H909 H 0.9739 0.52705 0.53857 0.0
H910 H 0.97566 0.51144 0.57441 0.0
H911 H 0.95305 0.49383 0.54688 0.0
C912 C 0.02947 0.472 0.95012 0.0
C913 C 0.00512 0.45242 0.95386 0.0
C914 C 0.03285 0.49726 0.96782 0.0
C915 C 0.01118 0.50303 0.98945 0.0
C916 C 0.98589 0.48398 0.99249 0.0
C917 C 0.98326 0.45872 0.9747 0.0
C918 C 0.06016 0.51707 0.96414 0.0
C919 C 0.96212 0.48977 0.01508 0.0
C920 C 0.03271 0.54817 0.05548 0.0
C921 C 0.02053 0.57627 0.04874 0.0
C922 C 0.03041 0.52419 0.03601 0.0
C923 C 0.0153 0.52854 0.00947 0.0
C924 C 0.00326 0.55696 0.00245 0.0
C925 C 0.00606 0.58053 0.0222 0.0
C926 C 0.04368 0.49412 0.04402 0.0
C927 C 0.98673 0.56226 0.97446 0.0
H928 H 0.04659 0.4668 0.93424 0.0
H929 H 0.96442 0.44351 0.97743 0.0
H930 H 0.05324 0.54079 0.9611 0.0
H931 H 0.07414 0.51615 0.98392 0.0
H932 H 0.07421 0.51018 0.94546 0.0
H933 H 0.94307 0.4737 0.01354 0.0
H934 H 0.97214 0.48791 0.03691 0.0
H935 H 0.95324 0.51294 0.01288 0.0
H936 H 0.04394 0.54496 0.07599 0.0
H937 H 0.99608 0.60213 0.01722 0.0
H938 H 0.05952 0.48657 0.02702 0.0
H939 H 0.02558 0.47703 0.04551 0.0
H940 H 0.0558 0.49485 0.06495 0.0
H941 H 0.00115 0.55599 0.9559 0.0
H942 H 0.9797 0.58605 0.97186 0.0
H943 H 0.96643 0.5478 0.9736 0.0
C944 C 0.07269 0.98383 0.99393 0.0
C945 C 0.06375 0.96895 0.96868 0.0
C946 C 0.0516 0.9919 0.01502 0.0
C947 C 0.02097 0.98468 0.01076 0.0
C948 C 0.01218 0.96781 0.98625 0.0
C949 C 0.03369 0.96033 0.96537 0.0
C950 C 0.06178 0.00998 0.04078 0.0
C951 C 0.97977 0.95925 0.98122 0.0
C952 C 0.9632 0.99161 0.0705 0.0
C953 C 0.94844 0.01815 0.06252 0.0
C954 C 0.98765 0.98084 0.05448 0.0
C955 C 0.99766 0.99729 0.03018 0.0
C956 C 0.98388 0.02502 0.02308 0.0
C957 C 0.95918 0.03497 0.03921 0.0
C958 C 0.00149 0.95104 0.06251 0.0
C959 C 0.99426 0.04344 -0.00242 0.0
H960 H 0.09587 0.99093 0.99634 0.0
H961 H 0.02684 0.94874 0.94587 0.0
H962 H 0.05354 0.0334 0.03869 0.0
H963 H 0.05219 0.00063 0.06096 0.0
H964 H 0.08665 0.01055 0.04274 0.0
H965 H 0.97718 0.94344 0.96284 0.0
H966 H 0.97011 0.94871 0.00084 0.0
H967 H 0.96644 0.97974 0.97658 0.0
H968 H 0.95447 0.97831 0.08825 0.0
H969 H 0.94762 0.05543 0.03307 0.0
H970 H 0.02633 0.9529 0.06337 0.0
H971 H 0.99594 0.93411 0.04576 0.0
H972 H 0.99321 0.94265 0.08365 0.0
H973 H 0.01888 0.04716 -0.00135 0.0
H974 H 0.98289 0.06562 0.99651 0.0
H975 H 0.98953 0.03106 0.97731 0.0
C976 C 0.50622 0.04355 0.95431 0.0
C977 C 0.48318 0.05261 0.93573 0.0
C978 C 0.50213 0.01926 0.97303 0.0
C979 C 0.47438 0.0037 0.97295 0.0
C980 C 0.45114 0.01247 0.954 0.0
C981 C 0.4558 0.03697 0.93563 0.0
C982 C 0.52741 0.01038 0.99301 0.0
C983 C 0.42135 0.9962 0.95334 0.0
C984 C 0.47856 0.92557 0.00383 0.0
C985 C 0.46887 0.9304 0.03226 0.0
C986 C 0.47903 0.94902 0.98382 0.0
C987 C 0.46999 0.97801 0.99261 0.0
C988 C 0.459 0.98284 0.02087 0.0
C989 C 0.45847 0.95886 0.0404 0.0
C990 C 0.4907 0.94308 0.95374 0.0
C991 C 0.44918 0.0136 0.03087 0.0
H992 H 0.52744 0.05554 0.95422 0.0
H993 H 0.43772 0.04432 0.92166 0.0
H994 H 0.51972 0.01157 0.01575 0.0
H995 H 0.53416 0.9868 0.98877 0.0
H996 H 0.54747 0.02503 0.99049 0.0
H997 H 0.40576 0.0057 0.93701 0.0
H998 H 0.42493 0.97206 0.94846 0.0
H999 H 0.41044 0.99747 0.97482 0.0
H1000 H 0.48715 0.90376 -0.00249 0.0
H1001 H 0.45065 0.96254 0.06227 0.0
H1002 H 0.51257 0.95466 0.95075 0.0
H1003 H 0.47497 0.95222 0.93741 0.0
H1004 H 0.49394 0.91873 0.94952 0.0
H1005 H 0.46886 0.02892 0.03133 0.0
H1006 H 0.43898 0.01305 0.05274 0.0
H1007 H 0.43266 0.02327 0.01557 0.0
C1008 C 0.46547 0.55175 0.95672 0.0
C1009 C 0.45788 0.52876 0.9374 0.0
C1010 C 0.48844 0.54761 0.97706 0.0
C1011 C 0.50393 0.51985 0.97798 0.0
C1012 C 0.49658 0.49675 0.95831 0.0
C1013 C 0.47356 0.50144 0.93838 0.0
C1014 C 0.49582 0.57267 -0.00217 0.0
C1015 C 0.51259 0.46681 0.9587 0.0
C1016 C 0.58015 0.51428 0.01349 0.0
C1017 C 0.57276 0.50126 0.04011 0.0
C1018 C 0.55787 0.52095 0.99321 0.0
C1019 C 0.52753 0.51448 -0.00019 0.0
C1020 C 0.51988 0.5014 0.02666 0.0
C1021 C 0.54265 0.49491 0.04652 0.0
C1022 C 0.56677 0.53483 0.96473 0.0
C1023 C 0.4877 0.49407 0.03429 0.0
H1024 H 0.45334 0.57284 0.95602 0.0
H1025 H 0.46723 0.48324 0.92408 0.0
H1026 H 0.49173 0.56508 0.02029 0.0
H1027 H 0.51997 0.57864 0.99617 0.0
H1028 H 0.48221 0.59315 0.99377 0.0
H1029 H 0.50472 0.45156 0.94129 0.0
H1030 H 0.53715 0.47022 0.95621 0.0
H1031 H 0.50891 0.45556 0.97976 0.0
H1032 H 0.60335 0.51987 0.00874 0.0
H1033 H 0.53694 0.48481 0.06709 0.0
H1034 H 0.55468 0.55635 0.96154 0.0
H1035 H 0.56023 0.51969 0.94677 0.0
H1036 H 0.59132 0.53917 0.96329 0.0
H1037 H 0.47359 0.51452 0.03249 0.0
H1038 H 0.48546 0.48494 0.05649 0.0
H1039 H 0.47862 0.47731 0.01887 0.0
C1040 C 0.93495 0.21838 0.72423 0.0
C1041 C 0.91381 0.19573 0.71888 0.0
C1042 C 0.93332 0.23597 0.74912 0.0
C1043 C 0.9097 0.23103 0.76904 0.0
C1044 C 0.88716 0.20953 0.76294 0.0
C1045 C 0.88955 0.19197 0.73789 0.0
C1046 C 0.9578 0.25881 0.75476 0.0
C1047 C 0.86143 0.204 0.78349 0.0
C1048 C 0.93706 0.25103 0.84309 0.0
C1049 C 0.92865 0.28126 0.84477 0.0
C1050 C 0.92848 0.2333 0.81962 0.0
C1051 C 0.91096 0.24624 0.79741 0.0
C1052 C 0.89963 0.27577 0.80059 0.0
C1053 C 0.90869 0.29306 0.82436 0.0
C1054 C 0.94083 0.2018 0.81721 0.0
C1055 C 0.88039 0.29007 0.77762 0.0
H1056 H 0.95321 0.22195 0.70916 0.0
H1057 H 0.87314 0.1745 0.73384 0.0
H1058 H 0.94785 0.28117 0.75921 0.0
H1059 H 0.97084 0.25212 0.77412 0.0
H1060 H 0.9736 0.26101 0.73631 0.0
H1061 H 0.84308 0.19088 0.77321 0.0
H1062 H 0.86967 0.19122 0.80243 0.0
H1063 H 0.85212 0.22554 0.79154 0.0
H1064 H 0.95196 0.24182 0.85931 0.0
H1065 H 0.90211 0.31644 0.82572 0.0
H1066 H 0.95881 0.20135 0.80061 0.0
H1067 H 0.92305 0.1859 0.81029 0.0
H1068 H 0.95047 0.19378 0.83792 0.0
H1069 H 0.89486 0.29729 0.75939 0.0
H1070 H 0.86831 0.31011 0.78594 0.0
H1071 H 0.86373 0.2738 0.76904 0.0
C1072 C 0.29255 0.96367 0.70616 0.0
C1073 C 0.28985 0.94999 0.67909 0.0
C1074 C 0.27643 0.95301 0.72995 0.0
C1075 C 0.25733 0.92778 0.72666 0.0
C1076 C 0.2563 0.91239 0.69997 0.0
C1077 C 0.27253 0.92378 0.67637 0.0
C1078 C 0.27835 0.97007 0.75809 0.0
C1079 C 0.23666 0.88508 0.69581 0.0
C1080 C 0.22693 0.90336 0.7991 0.0
C1081 C 0.20135 0.92156 0.80086 0.0
C1082 C 0.24423 0.90268 0.77374 0.0
C1083 C 0.2356 0.92072 0.74997 0.0
C1084 C 0.20806 0.93657 0.7508 0.0
C1085 C 0.19126 0.93669 0.77626 0.0
C1086 C 0.27306 0.8849 0.77338 0.0
C1087 C 0.19783 0.95593 0.72591 0.0
H1088 H 0.30666 0.98336 0.70855 0.0
H1089 H 0.27046 0.91304 0.6555 0.0
H1090 H 0.25643 0.98095 0.76268 0.0
H1091 H 0.2832 0.95448 0.77615 0.0
H1092 H 0.29599 0.98775 0.75766 0.0
H1093 H 0.2432 0.87214 0.6763 0.0
H1094 H 0.23776 0.87006 0.71488 0.0
H1095 H 0.21295 0.89228 0.69327 0.0
H1096 H 0.23464 0.8916 0.81817 0.0
H1097 H 0.1711 0.95028 0.77763 0.0
H1098 H 0.29226 0.90023 0.77748 0.0
H1099 H 0.27669 0.87427 0.75201 0.0
H1100 H 0.27313 0.86718 0.79025 0.0
H1101 H 0.21265 0.97593 0.72421 0.0
H1102 H 0.17432 0.96379 0.72868 0.0
H1103 H 0.19948 0.94344 0.70529 0.0
C1104 C 0.56526 0.24125 0.80904 0.0
C1105 C 0.57689 0.2135 0.81762 0.0
C1106 C 0.57727 0.25668 0.78551 0.0
C1107 C 0.60189 0.24415 0.7703 0.0
C1108 C 0.61557 0.21747 0.7805 0.0
C1109 C 0.60273 0.20228 0.80409 0.0
C1110 C 0.56206 0.28532 0.77576 0.0
C1111 C 0.64242 0.20379 0.76564 0.0
C1112 C 0.5883 0.26808 0.69479 0.0
C1113 C 0.6009 0.29705 0.69565 0.0
C1114 C 0.59232 0.248 0.71767 0.0
C1115 C 0.60955 0.25705 0.74174 0.0
C1116 C 0.62698 0.28354 0.74011 0.0
C1117 C 0.62246 0.30336 0.71697 0.0
C1118 C 0.57443 0.21915 0.71791 0.0
C1119 C 0.64741 0.29278 0.76447 0.0
H1120 H 0.54587 0.25035 0.82015 0.0
H1121 H 0.61192 0.18089 0.8109 0.0
H1122 H 0.57872 0.30377 0.77397 0.0
H1123 H 0.55195 0.28196 0.75412 0.0
H1124 H 0.54402 0.29258 0.79079 0.0
H1125 H 0.65713 0.19224 0.78149 0.0
H1126 H 0.63461 0.18666 0.74996 0.0
H1127 H 0.65589 0.22082 0.75386 0.0
H1128 H 0.57275 0.26187 0.67794 0.0
H1129 H 0.63396 0.3248 0.717 0.0
H1130 H 0.55472 0.22177 0.73239 0.0
H1131 H 0.5882 0.20034 0.72627 0.0
H1132 H 0.56614 0.2131 0.69607 0.0
H1133 H 0.63399 0.30425 0.78138 0.0
H1134 H 0.66506 0.30861 0.75693 0.0
H1135 H 0.65828 0.2729 0.77444 0.0
C1136 C 0.21602 0.56933 0.67612 0.0
C1137 C 0.19991 0.54269 0.68092 0.0
C1138 C 0.23284 0.5826 0.69838 0.0
C1139 C 0.23363 0.56863 0.7258 0.0
C1140 C 0.21536 0.54319 0.73128 0.0
C1141 C 0.19865 0.53065 0.70878 0.0
C1142 C 0.2514 0.61018 0.69194 0.0
C1143 C 0.21531 0.52765 0.76027 0.0
C1144 C 0.30312 0.56123 0.77074 0.0
C1145 C 0.29473 0.57682 0.79566 0.0
C1146 C 0.28462 0.56091 0.74645 0.0
C1147 C 0.25705 0.57671 0.74718 0.0
C1148 C 0.25013 0.5953 0.77109 0.0
C1149 C 0.26917 0.59508 0.79528 0.0
C1150 C 0.29311 0.54097 0.72136 0.0
C1151 C 0.22138 0.61314 0.77228 0.0
H1152 H 0.21686 0.57886 0.65464 0.0
H1153 H 0.1854 0.51062 0.71274 0.0
H1154 H 0.25165 0.62576 0.71062 0.0
H1155 H 0.27493 0.60339 0.68754 0.0
H1156 H 0.24282 0.62234 0.67271 0.0
H1157 H 0.19783 0.50987 0.76169 0.0
H1158 H 0.23756 0.51713 0.76408 0.0
H1159 H 0.21142 0.54412 0.77781 0.0
H1160 H 0.32326 0.54755 0.77111 0.0
H1161 H 0.26286 0.60721 0.81463 0.0
H1162 H 0.29008 0.553 0.70064 0.0
H1163 H 0.27819 0.52096 0.72103 0.0
H1164 H 0.31675 0.53311 0.72276 0.0
H1165 H 0.21577 0.62263 0.75082 0.0
H1166 H 0.22289 0.63173 0.78821 0.0
H1167 H 0.20265 0.59815 0.77884 0.0
C1168 C 0.06584 0.74002 0.2118 0.0
C1169 C 0.08106 0.73864 0.18541 0.0
C1170 C 0.0735 0.76136 0.23262 0.0
C1171 C 0.09757 0.78149 0.2272 0.0
C1172 C 0.1148 0.77849 0.20169 0.0
C1173 C 0.10615 0.7572 0.18089 0.0
C1174 C 0.05452 0.76348 0.25964 0.0
C1175 C 0.14122 0.79873 0.19545 0.0
C1176 C 0.07642 0.85144 0.26614 0.0
C1177 C 0.08674 0.84423 0.2938 0.0
C1178 C 0.08346 0.83319 0.24253 0.0
C1179 C 0.10156 0.80747 0.24688 0.0
C1180 C 0.11641 0.80341 0.27357 0.0
C1181 C 0.10861 0.82182 0.29698 0.0
C1182 C 0.0678 0.83889 0.2142 0.0
C1183 C 0.13732 0.77728 0.27846 0.0
H1184 H 0.04713 0.72501 0.21578 0.0
H1185 H 0.11815 0.75613 0.16059 0.0
H1186 H 0.0689 0.76166 0.27908 0.0
H1187 H 0.0431 0.78562 0.26047 0.0
H1188 H 0.03709 0.74562 0.26073 0.0
H1189 H 0.15795 0.78719 0.18154 0.0
H1190 H 0.13329 0.81892 0.18368 0.0
H1191 H 0.1525 0.80627 0.21552 0.0
H1192 H 0.06012 0.86933 0.26367 0.0
H1193 H 0.11706 0.81644 0.31827 0.0
H1194 H 0.04899 0.82268 0.2117 0.0
H1195 H 0.08345 0.83552 0.19588 0.0
H1196 H 0.05848 0.862 0.21299 0.0
H1197 H 0.12393 0.75691 0.28357 0.0
H1198 H 0.15276 0.78164 0.2968 0.0
H1199 H 0.15077 0.7725 0.25883 0.0
C1200 C 0.75119 0.05893 0.19473 0.0
C1201 C 0.77298 0.07909 0.18469 0.0
C1202 C 0.73604 0.06392 0.22062 0.0
C1203 C 0.74212 0.09036 0.23661 0.0
C1204 C 0.7622 0.11217 0.22539 0.0
C1205 C 0.7777 0.10612 0.19956 0.0
C1206 C 0.71468 0.03995 0.23149 0.0
C1207 C 0.76855 0.14116 0.24109 0.0
C1208 C 0.68254 0.09 0.29308 0.0
C1209 C 0.69661 0.07181 0.31382 0.0
C1210 C 0.69872 0.101 0.26933 0.0
C1211 C 0.72922 0.09285 0.26603 0.0
C1212 C 0.74447 0.07882 0.28915 0.0
C1213 C 0.72797 0.06879 0.313 0.0
C1214 C 0.68226 0.11789 0.24601 0.0
C1215 C 0.77726 0.07055 0.28695 0.0
H1216 H 0.74661 0.03859 0.18268 0.0
H1217 H 0.79435 0.1219 0.19169 0.0
H1218 H 0.72245 0.03135 0.25268 0.0
H1219 H 0.69194 0.04955 0.23461 0.0
H1220 H 0.71282 0.02063 0.21643 0.0
H1221 H 0.77403 0.15942 0.22561 0.0
H1222 H 0.74927 0.14833 0.25462 0.0
H1223 H 0.78835 0.13806 0.2553 0.0
H1224 H 0.65848 0.09337 0.29378 0.0
H1225 H 0.73925 0.05614 0.32975 0.0
H1226 H 0.67491 0.10191 0.22905 0.0
H1227 H 0.69712 0.13486 0.23575 0.0
H1228 H 0.66199 0.12931 0.25469 0.0
H1229 H 0.77983 0.05138 0.27182 0.0
H1230 H 0.78675 0.06388 0.30816 0.0
H1231 H 0.79053 0.08961 0.2783 0.0
C1232 C 0.39101 0.67437 0.27108 0.0
C1233 C 0.40136 0.68603 0.29738 0.0
C1234 C 0.38608 0.69338 0.24747 0.0
C1235 C 0.39211 0.72444 0.25035 0.0
C1236 C 0.39738 0.73672 0.27801 0.0
C1237 C 0.40171 0.71726 0.30136 0.0
C1238 C 0.37881 0.67968 0.21854 0.0
C1239 C 0.40295 0.76987 0.28219 0.0
C1240 C 0.44206 0.75589 0.19194 0.0
C1241 C 0.42252 0.77473 0.17671 0.0
C1242 C 0.43223 0.73959 0.21587 0.0
C1243 C 0.40178 0.74162 0.22458 0.0
C1244 C 0.38158 0.75992 0.20892 0.0
C1245 C 0.39229 0.77652 0.18525 0.0
C1246 C 0.45467 0.72025 0.23187 0.0
C1247 C 0.34894 0.76257 0.21736 0.0
H1248 H 0.38991 0.65031 0.26786 0.0
H1249 H 0.40841 0.7264 0.32205 0.0
H1250 H 0.36387 0.69462 0.20586 0.0
H1251 H 0.39991 0.67659 0.20613 0.0
H1252 H 0.36784 0.65737 0.22096 0.0
H1253 H 0.40066 0.77653 0.30518 0.0
H1254 H 0.42612 0.77536 0.27502 0.0
H1255 H 0.38715 0.78338 0.26905 0.0
H1256 H 0.46518 0.75362 0.18505 0.0
H1257 H 0.37708 0.7912 0.17371 0.0
H1258 H 0.44749 0.69639 0.23123 0.0
H1259 H 0.45578 0.72712 0.25485 0.0
H1260 H 0.47764 0.72181 0.22259 0.0
H1261 H 0.33991 0.74091 0.22546 0.0
H1262 H 0.33493 0.77019 0.19894 0.0
H1263 H 0.34674 0.77938 0.23489 0.0
C1264 C 0.73684 0.39518 0.18304 0.0
C1265 C 0.71099 0.41295 0.18459 0.0
C1266 C 0.75432 0.39032 0.20782 0.0
C1267 C 0.74568 0.40407 0.23408 0.0
C1268 C 0.71708 0.41773 0.23641 0.0
C1269 C 0.70004 0.42199 0.21148 0.0
C1270 C 0.78378 0.37392 0.20505 0.0
C1271 C 0.7065 0.432 0.26416 0.0
C1272 C 0.78827 0.40955 0.30455 0.0
C1273 C 0.80191 0.43777 0.30119 0.0
C1274 C 0.7719 0.39651 0.28184 0.0
C1275 C 0.76885 0.41243 0.25559 0.0
C1276 C 0.78466 0.43977 0.25146 0.0
C1277 C 0.80121 0.45186 0.27423 0.0
C1278 C 0.75648 0.36677 0.2868 0.0
C1279 C 0.78234 0.45757 0.22374 0.0
H1280 H 0.745 0.38784 0.16217 0.0
H1281 H 0.67959 0.43517 0.21246 0.0
H1282 H 0.80207 0.39038 0.20107 0.0
H1283 H 0.78917 0.36155 0.22518 0.0
H1284 H 0.78335 0.35786 0.18671 0.0
H1285 H 0.68225 0.43784 0.26338 0.0
H1286 H 0.71036 0.41672 0.28266 0.0
H1287 H 0.71948 0.45291 0.26812 0.0
H1288 H 0.78909 0.39836 0.32528 0.0
H1289 H 0.81278 0.47305 0.27123 0.0
H1290 H 0.75289 0.35432 0.26636 0.0
H1291 H 0.73427 0.37073 0.29698 0.0
H1292 H 0.76978 0.3525 0.30174 0.0
H1293 H 0.78867 0.44338 0.20507 0.0
H1294 H 0.79702 0.47778 0.22379 0.0
H1295 H 0.7588 0.46502 0.22045 0.0
C1296 C 0.22375 0.07363 0.58672 0.0
C1297 C 0.23832 0.05981 0.60993 0.0
C1298 C 0.19364 0.08234 0.58877 0.0
C1299 C 0.17746 0.07625 0.61439 0.0
C1300 C 0.19222 0.06275 0.63817 0.0
C1301 C 0.22277 0.05503 0.63579 0.0
C1302 C 0.17897 0.09736 0.56318 0.0
C1303 C 0.17546 0.05533 0.66559 0.0
C1304 C 0.10341 0.11761 0.62224 0.0
C1305 C 0.08343 0.09706 0.60975 0.0
C1306 C 0.13407 0.11082 0.62483 0.0
C1307 C 0.14471 0.08254 0.61529 0.0
C1308 C 0.12429 0.06122 0.60384 0.0
C1309 C 0.09393 0.06891 0.60088 0.0
C1310 C 0.15524 0.13436 0.63655 0.0
C1311 C 0.13465 0.03059 0.59399 0.0
H1312 H 0.23597 0.07761 0.56683 0.0
H1313 H 0.23412 0.04416 0.65364 0.0
H1314 H 0.16143 0.08239 0.55407 0.0
H1315 H 0.16774 0.11845 0.57 0.0
H1316 H 0.19536 0.10275 0.54584 0.0
H1317 H 0.19056 0.04649 0.68265 0.0
H1318 H 0.16378 0.07553 0.67396 0.0
H1319 H 0.15796 0.03821 0.66099 0.0
H1320 H 0.09515 0.13937 0.62905 0.0
H1321 H 0.07826 0.05286 0.59177 0.0
H1322 H 0.17079 0.14176 0.61922 0.0
H1323 H 0.16916 0.12484 0.65413 0.0
H1324 H 0.14311 0.15436 0.64491 0.0
H1325 H 0.14919 0.03296 0.57468 0.0
H1326 H 0.11553 0.0156 0.58845 0.0
H1327 H 0.14826 0.01969 0.61107 0.0
C1328 C 0.37601 0.1606 0.63153 0.0
C1329 C 0.37026 0.15226 0.60285 0.0
C1330 C 0.39619 0.18384 0.63807 0.0
C1331 C 0.41089 0.19921 0.61542 0.0
C1332 C 0.40409 0.19199 0.58642 0.0
C1333 C 0.38397 0.1685 0.58048 0.0
C1334 C 0.40267 0.19109 0.66923 0.0
C1335 C 0.41876 0.20845 0.56164 0.0
C1336 C 0.4494 0.27359 0.63071 0.0
C1337 C 0.47971 0.26517 0.63013 0.0
C1338 C 0.42663 0.25234 0.62614 0.0
C1339 C 0.43447 0.22184 0.62197 0.0
C1340 C 0.46507 0.21305 0.62291 0.0
C1341 C 0.48743 0.23502 0.62632 0.0
C1342 C 0.39441 0.26278 0.62432 0.0
C1343 C 0.4742 0.18058 0.61953 0.0
H1344 H 0.36507 0.14865 0.64896 0.0
H1345 H 0.37989 0.16221 0.55828 0.0
H1346 H 0.42585 0.18381 0.67454 0.0
H1347 H 0.40152 0.21564 0.6731 0.0
H1348 H 0.38667 0.17977 0.68408 0.0
H1349 H 0.40895 0.20208 0.54047 0.0
H1350 H 0.41639 0.23309 0.56452 0.0
H1351 H 0.44314 0.20336 0.56121 0.0
H1352 H 0.44356 0.29712 0.63307 0.0
H1353 H 0.51096 0.22873 0.62568 0.0
H1354 H 0.38014 0.24992 0.63958 0.0
H1355 H 0.3856 0.2585 0.60232 0.0
H1356 H 0.39205 0.28713 0.62911 0.0
H1357 H 0.46166 0.16634 0.63508 0.0
H1358 H 0.49867 0.17723 0.62301 0.0
H1359 H 0.46844 0.17263 0.59754 0.0
C1360 C 0.39687 0.40094 0.62076 0.0
C1361 C 0.40253 0.37576 0.6034 0.0
C1362 C 0.36777 0.41244 0.62379 0.0
C1363 C 0.34365 0.39804 0.60953 0.0
C1364 C 0.34916 0.3724 0.59219 0.0
C1365 C 0.37864 0.36168 0.58916 0.0
C1366 C 0.36299 0.43994 0.64234 0.0
C1367 C 0.32393 0.35645 0.57672 0.0
C1368 C 0.26373 0.41338 0.63447 0.0
C1369 C 0.25407 0.43399 0.61359 0.0
C1370 C 0.293 0.4016 0.63362 0.0
C1371 C 0.3129 0.41076 0.61145 0.0
C1372 C 0.30352 0.43226 0.59091 0.0
C1373 C 0.27423 0.44357 0.59221 0.0
C1374 C 0.30248 0.379 0.6561 0.0
C1375 C 0.3244 0.44319 0.56742 0.0
H1376 H 0.41537 0.41201 0.63162 0.0
H1377 H 0.38301 0.342 0.57605 0.0
H1378 H 0.3469 0.45576 0.63223 0.0
H1379 H 0.35347 0.43296 0.66343 0.0
H1380 H 0.38433 0.45216 0.64638 0.0
H1381 H 0.33179 0.3361 0.56508 0.0
H1382 H 0.30628 0.34973 0.59236 0.0
H1383 H 0.31336 0.3719 0.56094 0.0
H1384 H 0.24823 0.4059 0.65103 0.0
H1385 H 0.26702 0.45971 0.57613 0.0
H1386 H 0.32237 0.38751 0.66799 0.0
H1387 H 0.3092 0.35768 0.64549 0.0
H1388 H 0.2843 0.37412 0.67185 0.0
H1389 H 0.34492 0.4531 0.57715 0.0
H1390 H 0.31373 0.46033 0.55334 0.0
H1391 H 0.33163 0.42401 0.5538 0.0
C1392 C 0.09187 0.34061 0.6292 0.0
C1393 C 0.11823 0.33641 0.613 0.0
C1394 C 0.07152 0.31701 0.63368 0.0
C1395 C 0.07749 0.28853 0.62147 0.0
C1396 C 0.10434 0.28387 0.60568 0.0
C1397 C 0.1244 0.30787 0.60166 0.0
C1398 C 0.04319 0.32282 0.65076 0.0
C1399 C 0.11152 0.25372 0.59244 0.0
C1400 C 0.03493 0.21968 0.64768 0.0
C1401 C 0.01324 0.21627 0.62595 0.0
C1402 C 0.05575 0.24339 0.6468 0.0
C1403 C 0.05481 0.26411 0.62366 0.0
C1404 C 0.03249 0.26123 0.60211 0.0
C1405 C 0.01198 0.23736 0.60353 0.0
C1406 C 0.07914 0.24589 0.67025 0.0
C1407 C 0.03067 0.28302 0.57718 0.0
H1408 H 0.08653 0.36261 0.63771 0.0
H1409 H 0.14487 0.30433 0.58951 0.0
H1410 H 0.02326 0.3197 0.63672 0.0
H1411 H 0.04126 0.30645 0.66872 0.0
H1412 H 0.04255 0.34589 0.65989 0.0
H1413 H 0.13402 0.25338 0.58205 0.0
H1414 H 0.11074 0.23591 0.60916 0.0
H1415 H 0.09437 0.24802 0.57596 0.0
H1416 H 0.03605 0.20347 0.66509 0.0
H1417 H 0.99526 0.23495 0.5867 0.0
H1418 H 0.07824 0.26848 0.68032 0.0
H1419 H 0.1019 0.24324 0.6608 0.0
H1420 H 0.07608 0.22866 0.68735 0.0
H1421 H 0.02838 0.30633 0.58537 0.0
H1422 H 0.01144 0.27814 0.56266 0.0
H1423 H 0.05171 0.28206 0.56437 0.0
C1424 C 0.23487 0.48338 0.9075 0.0
C1425 C 0.25619 0.47771 0.88589 0.0
C1426 C 0.20995 0.4645 0.91127 0.0
C1427 C 0.20617 0.4394 0.89289 0.0
C1428 C 0.22696 0.43417 0.87032 0.0
C1429 C 0.25179 0.45338 0.8671 0.0
C1430 C 0.18806 0.47098 0.9354 0.0
C1431 C 0.22339 0.40784 0.85008 0.0
C1432 C 0.1599 0.3744 0.92211 0.0
C1433 C 0.13177 0.37968 0.90947 0.0
C1434 C 0.1844 0.39347 0.91664 0.0
C1435 C 0.18079 0.4183 0.89787 0.0
C1436 C 0.15263 0.42365 0.88479 0.0
C1437 C 0.12848 0.40442 0.89084 0.0
C1438 C 0.21409 0.38725 0.9312 0.0
C1439 C 0.14796 0.44973 0.86442 0.0
H1440 H 0.23801 0.50218 0.92205 0.0
H1441 H 0.26815 0.44888 0.85032 0.0
H1442 H 0.16498 0.47321 0.92665 0.0
H1443 H 0.18783 0.45195 0.95087 0.0
H1444 H 0.19379 0.49186 0.94731 0.0
H1445 H 0.24079 0.40764 0.83288 0.0
H1446 H 0.22491 0.38651 0.86238 0.0
H1447 H 0.20089 0.4084 0.83981 0.0
H1448 H 0.16288 0.35524 0.93619 0.0
H1449 H 0.10689 0.40924 0.88123 0.0
H1450 H 0.22049 0.40663 0.94495 0.0
H1451 H 0.23201 0.38447 0.91477 0.0
H1452 H 0.21335 0.36674 0.94484 0.0
H1453 H 0.12402 0.4525 0.85826 0.0
H1454 H 0.16134 0.44611 0.84453 0.0
H1455 H 0.15589 0.47099 0.87434 0.0
C1456 C 0.12955 0.12767 0.92513 0.0
C1457 C 0.11823 0.10128 0.9127 0.0
C1458 C 0.11383 0.15484 0.92296 0.0
C1459 C 0.08615 0.15564 0.90797 0.0
C1460 C 0.07464 0.12917 0.89522 0.0
C1461 C 0.09075 0.10227 0.89787 0.0
C1462 C 0.12686 0.18272 0.93673 0.0
C1463 C 0.04519 0.12917 0.87904 0.0
C1464 C 0.03462 0.21963 0.92881 0.0
C1465 C 0.04068 0.24069 0.90706 0.0
C1466 C 0.04849 0.1914 0.92878 0.0
C1467 C 0.06891 0.18409 0.90647 0.0
C1468 C 0.07415 0.20472 0.88377 0.0
C1469 C 0.05992 0.23283 0.88432 0.0
C1470 C 0.04216 0.16986 0.95322 0.0
C1471 C 0.09565 0.19756 0.85953 0.0
H1472 H 0.15096 0.1272 0.93618 0.0
H1473 H 0.08159 0.08193 0.88856 0.0
H1474 H 0.1299 0.20053 0.92024 0.0
H1475 H 0.11109 0.19156 0.95321 0.0
H1476 H 0.14887 0.17839 0.94722 0.0
H1477 H 0.0402 0.10703 0.86904 0.0
H1478 H 0.0266 0.13501 0.89396 0.0
H1479 H 0.04558 0.14648 0.86182 0.0
H1480 H 0.0196 0.22547 0.94634 0.0
H1481 H 0.06459 0.24895 0.86738 0.0
H1482 H 0.0629 0.16644 0.96607 0.0
H1483 H 0.03536 0.14762 0.9446 0.0
H1484 H 0.02419 0.17815 0.96782 0.0
H1485 H 0.11882 0.19578 0.86818 0.0
H1486 H 0.09543 0.215 0.84239 0.0
H1487 H 0.08996 0.17555 0.8497 0.0
C1488 C 0.34112 0.13412 0.89349 0.0
C1489 C 0.36864 0.12912 0.8796 0.0
C1490 C 0.31706 0.11402 0.89024 0.0
C1491 C 0.32055 0.08832 0.87254 0.0
C1492 C 0.3478 0.08375 0.85747 0.0
C1493 C 0.37153 0.10416 0.86121 0.0
C1494 C 0.28833 0.11963 0.90674 0.0
C1495 C 0.35227 0.05673 0.83824 0.0
C1496 C 0.27256 0.02191 0.89467 0.0
C1497 C 0.24782 0.02468 0.87615 0.0
C1498 C 0.29688 0.04184 0.89297 0.0
C1499 C 0.29662 0.06499 0.87203 0.0
C1500 C 0.27256 0.06688 0.85217 0.0
C1501 C 0.24831 0.04676 0.85454 0.0
C1502 C 0.3222 0.03898 0.9145 0.0
C1503 C 0.27181 0.09092 0.82922 0.0
H1504 H 0.33855 0.15355 0.90732 0.0
H1505 H 0.39273 0.09978 0.85057 0.0
H1506 H 0.26881 0.11915 0.8919 0.0
H1507 H 0.28493 0.10152 0.92287 0.0
H1508 H 0.28857 0.14156 0.91818 0.0
H1509 H 0.3748 0.0565 0.82792 0.0
H1510 H 0.34958 0.03577 0.85093 0.0
H1511 H 0.33489 0.05642 0.8211 0.0
H1512 H 0.27249 0.00482 0.91132 0.0
H1513 H 0.22936 0.04892 0.84002 0.0
H1514 H 0.32265 0.05908 0.92865 0.0
H1515 H 0.34415 0.03794 0.90319 0.0
H1516 H 0.31989 0.01868 0.92828 0.0
H1517 H 0.2689 0.11324 0.83949 0.0
H1518 H 0.2532 0.08742 0.81361 0.0
H1519 H 0.29339 0.09146 0.81723 0.0
C1520 C 0.38107 0.37243 0.90972 0.0
C1521 C 0.3923 0.39998 0.89992 0.0
C1522 C 0.39718 0.34578 0.90535 0.0
C1523 C 0.42534 0.34684 0.89112 0.0
C1524 C 0.43697 0.37467 0.88146 0.0
C1525 C 0.42022 0.40093 0.88589 0.0
C1526 C 0.38399 0.31645 0.91583 0.0
C1527 C 0.4673 0.37683 0.867 0.0
C1528 C 0.47545 0.2802 0.90654 0.0
C1529 C 0.46942 0.26156 0.88283 0.0
C1530 C 0.46227 0.30864 0.9089 0.0
C1531 C 0.44269 0.31872 0.88695 0.0
C1532 C 0.43796 0.30083 0.8621 0.0
C1533 C 0.45137 0.27235 0.86035 0.0
C1534 C 0.4681 0.32723 0.93558 0.0
C1535 C 0.41772 0.31125 0.83798 0.0
H1536 H 0.35934 0.37168 0.92023 0.0
H1537 H 0.42912 0.42233 0.8787 0.0
H1538 H 0.38143 0.30066 0.89747 0.0
H1539 H 0.39942 0.30581 0.93158 0.0
H1540 H 0.36172 0.31949 0.92626 0.0
H1541 H 0.47105 0.39921 0.857 0.0
H1542 H 0.48519 0.37301 0.88323 0.0
H1543 H 0.46975 0.35925 0.85022 0.0
H1544 H 0.48962 0.27215 0.92389 0.0
H1545 H 0.44683 0.25817 0.84185 0.0
H1546 H 0.44718 0.32882 0.94854 0.0
H1547 H 0.47471 0.35043 0.92957 0.0
H1548 H 0.486 0.31742 0.94934 0.0
H1549 H 0.39424 0.31271 0.84592 0.0
H1550 H 0.4183 0.29582 0.81915 0.0
H1551 H 0.4244 0.33406 0.83073 0.0
C1552 C 0.86139 0.84943 0.32847 0.0
C1553 C 0.86906 0.84353 0.35726 0.0
C1554 C 0.83468 0.86445 0.32153 0.0
C1555 C 0.81524 0.87362 0.34401 0.0
C1556 C 0.82147 0.865 0.37283 0.0
C1557 C 0.84838 0.85003 0.37912 0.0
C1558 C 0.828 0.87146 0.29033 0.0
C1559 C 0.80095 0.87374 0.39738 0.0
C1560 C 0.7744 0.9478 0.34372 0.0
C1561 C 0.74465 0.93856 0.34005 0.0
C1562 C 0.79794 0.927 0.34243 0.0
C1563 C 0.79129 0.89611 0.33851 0.0
C1564 C 0.76142 0.88699 0.33278 0.0
C1565 C 0.73837 0.9085 0.33329 0.0
C1566 C 0.82968 0.93782 0.34746 0.0
C1567 C 0.75348 0.85434 0.3285 0.0
H1568 H 0.87704 0.84349 0.31148 0.0
H1569 H 0.85421 0.84541 0.40135 0.0
H1570 H 0.81054 0.85574 0.28237 0.0
H1571 H 0.81916 0.89459 0.28776 0.0
H1572 H 0.84819 0.86883 0.27648 0.0
H1573 H 0.80657 0.86164 0.41762 0.0
H1574 H 0.80297 0.89824 0.40142 0.0
H1575 H 0.77717 0.86901 0.39179 0.0
H1576 H 0.77911 0.97108 0.34898 0.0
H1577 H 0.7152 0.90136 0.33084 0.0
H1578 H 0.84536 0.92726 0.33186 0.0
H1579 H 0.83697 0.93124 0.36946 0.0
H1580 H 0.83159 0.96263 0.3455 0.0
H1581 H 0.76846 0.84404 0.31216 0.0
H1582 H 0.72978 0.85131 0.32157 0.0
H1583 H 0.75687 0.84197 0.34902 0.0
C1584 C 0.628 0.8289 0.38489 0.0
C1585 C 0.63488 0.85026 0.36363 0.0
C1586 C 0.60911 0.80443 0.37885 0.0
C1587 C 0.5964 0.80149 0.351 0.0
C1588 C 0.60459 0.82186 0.32899 0.0
C1589 C 0.62404 0.84573 0.33546 0.0
C1590 C 0.60147 0.78265 0.40273 0.0
C1591 C 0.5916 0.81934 0.29902 0.0
C1592 C 0.55724 0.7275 0.33522 0.0
C1593 C 0.52801 0.73382 0.34472 0.0
C1594 C 0.57973 0.74962 0.33607 0.0
C1595 C 0.57244 0.77884 0.34588 0.0
C1596 C 0.54234 0.78589 0.35314 0.0
C1597 C 0.52056 0.76312 0.35292 0.0
C1598 C 0.61162 0.741 0.32869 0.0
C1599 C 0.53346 0.81708 0.36274 0.0
H1600 H 0.63617 0.83193 0.40667 0.0
H1601 H 0.62996 0.86136 0.3185 0.0
H1602 H 0.57766 0.78567 0.4092 0.0
H1603 H 0.60406 0.75915 0.39513 0.0
H1604 H 0.61584 0.78595 0.42206 0.0
H1605 H 0.60143 0.83611 0.284 0.0
H1606 H 0.59553 0.79654 0.29016 0.0
H1607 H 0.56693 0.82275 0.29991 0.0
H1608 H 0.56312 0.70474 0.32915 0.0
H1609 H 0.49791 0.76796 0.36021 0.0
H1610 H 0.62488 0.73917 0.34887 0.0
H1611 H 0.62245 0.75843 0.31511 0.0
H1612 H 0.61274 0.7191 0.31724 0.0
H1613 H 0.54373 0.822 0.38402 0.0
H1614 H 0.50871 0.81961 0.36469 0.0
H1615 H 0.54197 0.8341 0.34726 0.0
C1616 C 0.72393 0.54254 0.36607 0.0
C1617 C 0.7507 0.55466 0.35528 0.0
C1618 C 0.6974 0.55935 0.36619 0.0
C1619 C 0.69779 0.58918 0.35559 0.0
C1620 C 0.72439 0.60102 0.34323 0.0
C1621 C 0.75062 0.58349 0.34309 0.0
C1622 C 0.66928 0.54564 0.37893 0.0
C1623 C 0.72567 0.63272 0.33173 0.0
C1624 C 0.61964 0.61982 0.34412 0.0
C1625 C 0.61386 0.63363 0.37086 0.0
C1626 C 0.64778 0.60727 0.33793 0.0
C1627 C 0.67057 0.60808 0.35906 0.0
C1628 C 0.66566 0.62367 0.38526 0.0
C1629 C 0.63741 0.63639 0.39077 0.0
C1630 C 0.65251 0.5915 0.30947 0.0
C1631 C 0.68966 0.62534 0.4082 0.0
H1632 H 0.72397 0.52016 0.37533 0.0
H1633 H 0.77142 0.593 0.335 0.0
H1634 H 0.66272 0.55816 0.39865 0.0
H1635 H 0.6504 0.54738 0.36341 0.0
H1636 H 0.67236 0.52162 0.38472 0.0
H1637 H 0.74621 0.63675 0.31865 0.0
H1638 H 0.70566 0.63775 0.31834 0.0
H1639 H 0.72567 0.64874 0.35006 0.0
H1640 H 0.60189 0.61736 0.3284 0.0
H1641 H 0.63356 0.6477 0.41111 0.0
H1642 H 0.65381 0.56689 0.3131 0.0
H1643 H 0.67403 0.59858 0.29949 0.0
H1644 H 0.63402 0.59613 0.29408 0.0
H1645 H 0.69314 0.60269 0.41764 0.0
H1646 H 0.68357 0.64108 0.42586 0.0
H1647 H 0.71135 0.63261 0.39867 0.0
C1648 C 0.88416 0.66661 0.38863 0.0
C1649 C 0.87262 0.6463 0.36827 0.0
C1650 C 0.90221 0.69092 0.38011 0.0
C1651 C 0.90962 0.69458 0.35062 0.0
C1652 C 0.8968 0.67531 0.3298 0.0
C1653 C 0.87806 0.65176 0.33882 0.0
C1654 C 0.91419 0.71211 0.40282 0.0
C1655 C 0.90336 0.6791 0.29803 0.0
C1656 C 0.94492 0.76871 0.32886 0.0
C1657 C 0.9754 0.76308 0.33454 0.0
C1658 C 0.92311 0.74649 0.33335 0.0
C1659 C 0.93225 0.71744 0.34201 0.0
C1660 C 0.96328 0.71077 0.34454 0.0
C1661 C 0.98448 0.73387 0.34137 0.0
C1662 C 0.89036 0.75519 0.33165 0.0
C1663 C 0.97399 0.67962 0.35217 0.0
H1664 H 0.88007 0.66304 0.41137 0.0
H1665 H 0.86833 0.63722 0.32263 0.0
H1666 H 0.93877 0.70885 0.40521 0.0
H1667 H 0.91048 0.73579 0.3962 0.0
H1668 H 0.90343 0.70844 0.42416 0.0
H1669 H 0.89544 0.6596 0.28521 0.0
H1670 H 0.89191 0.69949 0.28985 0.0
H1671 H 0.92781 0.68215 0.2943 0.0
H1672 H 0.9377 0.7912 0.32334 0.0
H1673 H 0.00804 0.7294 0.34547 0.0
H1674 H 0.88185 0.75933 0.3538 0.0
H1675 H 0.87651 0.73704 0.32214 0.0
H1676 H 0.88705 0.77605 0.31888 0.0
H1677 H 0.96724 0.67405 0.37457 0.0
H1678 H -0.00121 0.67744 0.3504 0.0
H1679 H 0.96336 0.66289 0.33771 0.0
C1680 C 0.86178 0.63665 0.09855 0.0
C1681 C 0.89086 0.63016 0.10831 0.0
C1682 C 0.83805 0.61633 0.10282 0.0
C1683 C 0.84351 0.58876 0.11716 0.0
C1684 C 0.87269 0.5822 0.12741 0.0
C1685 C 0.89598 0.603 0.12295 0.0
C1686 C 0.80724 0.62407 0.09141 0.0
C1687 C 0.87942 0.55302 0.1427 0.0
C1688 C 0.7737 0.54748 0.14325 0.0
C1689 C 0.76848 0.52769 0.12023 0.0
C1690 C 0.79888 0.56661 0.14328 0.0
C1691 C 0.81903 0.56609 0.11962 0.0
C1692 C 0.81469 0.54505 0.09713 0.0
C1693 C 0.78962 0.526 0.09781 0.0
C1694 C 0.8032 0.58828 0.16797 0.0
C1695 C 0.83572 0.54367 0.07155 0.0
H1696 H 0.85753 0.65773 0.08763 0.0
H1697 H 0.9184 0.59756 0.13031 0.0
H1698 H 0.80044 0.60742 0.07484 0.0
H1699 H 0.79043 0.62297 0.10906 0.0
H1700 H 0.80647 0.64685 0.08164 0.0
H1701 H 0.90374 0.55033 0.14734 0.0
H1702 H 0.8668 0.55213 0.16333 0.0
H1703 H 0.8719 0.53364 0.1295 0.0
H1704 H 0.75757 0.54881 0.16073 0.0
H1705 H 0.78594 0.51067 0.08 0.0
H1706 H 0.79971 0.61161 0.16023 0.0
H1707 H 0.82651 0.58688 0.17632 0.0
H1708 H 0.78732 0.58389 0.18599 0.0
H1709 H 0.83433 0.56498 0.05919 0.0
H1710 H 0.8303 0.52476 0.0568 0.0
H1711 H 0.85929 0.54119 0.07891 0.0
C1712 C 0.97705 0.79168 0.0887 0.0
C1713 C 0.97294 0.77278 0.11261 0.0
C1714 C 0.96042 0.81815 0.08558 0.0
C1715 C 0.93939 0.82617 0.1071 0.0
C1716 C 0.93637 0.80818 0.13215 0.0
C1717 C 0.95308 0.7815 0.13455 0.0
C1718 C 0.96426 0.83668 0.05851 0.0
C1719 C 0.91465 0.8165 0.15586 0.0
C1720 C 0.90894 0.90567 0.10352 0.0
C1721 C 0.88114 0.90126 0.08973 0.0
C1722 C 0.92779 0.8814 0.11007 0.0
C1723 C 0.919 0.85202 0.10208 0.0
C1724 C 0.89127 0.8474 0.08779 0.0
C1725 C 0.87262 0.87203 0.08195 0.0
C1726 C 0.9571 0.88721 0.12551 0.0
C1727 C 0.88133 0.8164 0.07854 0.0
H1728 H 0.99249 0.78527 0.0717 0.0
H1729 H 0.94997 0.76712 0.15318 0.0
H1730 H 0.9432 0.83601 0.04572 0.0
H1731 H 0.96865 0.86052 0.06404 0.0
H1732 H 0.98295 0.82841 0.04474 0.0
H1733 H 0.9172 0.80194 0.17517 0.0
H1734 H 0.91798 0.84025 0.16241 0.0
H1735 H 0.89127 0.81437 0.14783 0.0
H1736 H 0.91614 0.92814 0.10918 0.0
H1737 H 0.85112 0.86823 0.0717 0.0
H1738 H 0.97622 0.88007 0.11179 0.0
H1739 H 0.95808 0.87375 0.14564 0.0
H1740 H 0.96013 0.9113 0.13111 0.0
H1741 H 0.89804 0.80668 0.06343 0.0
H1742 H 0.85904 0.8166 0.06777 0.0
H1743 H 0.88009 0.8013 0.09754 0.0
C1744 C 0.73995 0.94563 0.11623 0.0
C1745 C 0.73729 0.97601 0.10864 0.0
C1746 C 0.71529 0.92608 0.11419 0.0
C1747 C 0.68718 0.93734 0.10491 0.0
C1748 C 0.68402 0.9683 0.09859 0.0
C1749 C 0.70923 0.98722 0.1002 0.0
C1750 C 0.71956 0.89319 0.12104 0.0
C1751 C 0.65419 0.98128 0.08946 0.0
C1752 C 0.63177 0.88412 0.0692 0.0
C1753 C 0.61188 0.87766 0.09187 0.0
C1754 C 0.65652 0.90322 0.07327 0.0
C1755 C 0.66141 0.91649 0.10062 0.0
C1756 C 0.64166 0.90992 0.12369 0.0
C1757 C 0.61719 0.89059 0.11907 0.0
C1758 C 0.6774 0.90931 0.04824 0.0
C1759 C 0.64596 0.92375 0.15314 0.0
H1760 H 0.76165 0.9368 0.1226 0.0
H1761 H 0.70706 0.01075 0.09451 0.0
H1762 H 0.70326 0.88599 0.13779 0.0
H1763 H 0.71511 0.87953 0.10148 0.0
H1764 H 0.74264 0.88818 0.12877 0.0
H1765 H 0.65507 0.00609 0.087 0.0
H1766 H 0.6472 0.97129 0.06859 0.0
H1767 H 0.63664 0.97556 0.10557 0.0
H1768 H 0.6278 0.87462 0.04806 0.0
H1769 H 0.60238 0.88548 0.13694 0.0
H1770 H 0.70078 0.90337 0.05423 0.0
H1771 H 0.67718 0.93361 0.04292 0.0
H1772 H 0.67107 0.89643 0.02864 0.0
H1773 H 0.6699 0.92329 0.15973 0.0
H1774 H 0.63252 0.91199 0.16984 0.0
H1775 H 0.63883 0.94762 0.15246 0.0
C1776 C 0.60844 0.61288 0.11994 0.0
C1777 C 0.63691 0.61677 0.10737 0.0
C1778 C 0.58824 0.63688 0.12214 0.0
C1779 C 0.59677 0.6655 0.11173 0.0
C1780 C 0.62572 0.66979 0.09971 0.0
C1781 C 0.64543 0.64532 0.09762 0.0
C1782 C 0.55749 0.63143 0.13495 0.0
C1783 C 0.63552 0.70001 0.08824 0.0
C1784 C 0.53616 0.71864 0.08606 0.0
C1785 C 0.53527 0.7398 0.10845 0.0
C1786 C 0.55575 0.6941 0.08714 0.0
C1787 C 0.57467 0.69041 0.11138 0.0
C1788 C 0.573 0.71093 0.13465 0.0
C1789 C 0.55339 0.73555 0.13284 0.0
C1790 C 0.55684 0.67261 0.06192 0.0
C1791 C 0.59246 0.70729 0.16107 0.0
H1792 H 0.60147 0.59082 0.12717 0.0
H1793 H 0.6675 0.64846 0.08822 0.0
H1794 H 0.55489 0.64493 0.1549 0.0
H1795 H 0.53973 0.63876 0.11974 0.0
H1796 H 0.55368 0.60739 0.14023 0.0
H1797 H 0.65928 0.69996 0.08089 0.0
H1798 H 0.62103 0.70652 0.0698 0.0
H1799 H 0.63283 0.71748 0.10511 0.0
H1800 H 0.52222 0.72174 0.06713 0.0
H1801 H 0.55268 0.75177 0.15028 0.0
H1802 H 0.55277 0.64929 0.0694 0.0
H1803 H 0.57952 0.67315 0.05196 0.0
H1804 H 0.53998 0.67816 0.04509 0.0
H1805 H 0.58941 0.68453 0.17038 0.0
H1806 H 0.58729 0.72425 0.17793 0.0
H1807 H 0.61648 0.7095 0.15497 0.0
loop_
_geom_bond_atom_site_label_1
_geom_bond_atom_site_label_2
_geom_bond_distance
_geom_bond_site_symmetry_2
_ccdc_geom_bond_type
C0 C1 1.351 . S
C0 N3 1.368 . S
C0 H5 0.931 . S
C1 C0 1.351 . S
C1 N2 1.373 . S
C1 H29 0.930 . S
N2 C1 1.373 . S
N2 C4 1.340 . S
N3 C0 1.368 . S
N3 C4 1.321 . S
N3 Co6 2.135 . S
C4 N2 1.340 . S
C4 N3 1.321 . S
C4 H28 0.930 . S
H5 C0 0.931 . S
Co6 N3 2.135 . S
Co6 N9 2.121 1_455 S
Co6 O14 2.055 . S
Co6 O17 2.039 . S
Co6 N20 2.140 1_455 S
C7 O8 1.227 . S
C7 O17 1.265 . S
O8 C7 1.227 . S
N9 Co6 2.121 1_655 S
N9 C11 1.375 . S
N9 C12 1.313 . S
C10 C11 1.338 . S
C10 N13 1.377 . S
C10 H30 0.930 . S
C11 N9 1.375 . S
C11 C10 1.338 . S
C11 H15 0.931 . S
C12 N9 1.313 . S
C12 N13 1.344 . S
C12 H16 0.930 . S
N13 C10 1.377 . S
N13 C12 1.344 . S
O14 Co6 2.055 . S
O14 C18 1.253 . S
H15 C11 0.931 . S
H16 C12 0.930 . S
O17 Co6 2.039 . S
O17 C7 1.265 . S
C18 O14 1.253 . S
C18 O19 1.227 . S
O19 C18 1.227 . S
N20 Co6 2.140 1_655 S
N20 C23 1.337 1_655 S
N20 C24 1.345 . S
C21 C22 1.387 . S
C21 C25 1.391 . S
C22 C21 1.387 . S
C22 C23 1.349 1_655 S
C22 H31 0.929 . S
C23 N20 1.337 1_455 S
C23 C22 1.349 1_455 S
C23 H26 0.960 . S
C24 N20 1.345 . S
C24 C25 1.371 . S
C24 H27 0.931 . S
C25 C21 1.391 . S
C25 C24 1.371 . S
C25 H32 0.930 . S
H26 C23 0.960 . S
H27 C24 0.931 . S
H28 C4 0.930 . S
H29 C1 0.930 . S
H30 C10 0.930 . S
H31 C22 0.929 . S
H32 C25 0.930 . S
C33 C34 1.351 . S
C33 N36 1.368 . S
C33 H38 0.931 . S
C34 C33 1.351 . S
C34 N35 1.373 . S
C34 H62 0.930 . S
N35 C34 1.373 . S
N35 C37 1.340 . S
N36 C33 1.368 . S
N36 C37 1.321 . S
N36 Co39 2.135 . S
C37 N35 1.340 . S
C37 N36 1.321 . S
C37 H61 0.930 . S
H38 C33 0.931 . S
Co39 N36 2.135 . S
Co39 N42 2.121 1_545 S
Co39 O47 2.055 . S
Co39 O50 2.039 . S
Co39 N53 2.140 1_545 S
C40 O41 1.227 . S
C40 O50 1.265 . S
O41 C40 1.227 . S
N42 Co39 2.121 1_565 S
N42 C44 1.375 . S
N42 C45 1.313 . S
C43 C44 1.338 . S
C43 N46 1.377 . S
C43 H63 0.930 . S
C44 N42 1.375 . S
C44 C43 1.338 . S
C44 H48 0.931 . S
C45 N42 1.313 . S
C45 N46 1.344 . S
C45 H49 0.930 . S
N46 C43 1.377 . S
N46 C45 1.344 . S
O47 Co39 2.055 . S
O47 C51 1.253 . S
H48 C44 0.931 . S
H49 C45 0.930 . S
O50 Co39 2.039 . S
O50 C40 1.265 . S
C51 O47 1.253 . S
C51 O52 1.227 . S
O52 C51 1.227 . S
N53 Co39 2.140 1_565 S
N53 C56 1.337 1_565 S
N53 C57 1.345 . S
C54 C55 1.387 . S
C54 C58 1.391 . S
C55 C54 1.387 . S
C55 C56 1.349 1_565 S
C55 H64 0.929 . S
C56 N53 1.337 1_545 S
C56 C55 1.349 1_545 S
C56 H59 0.960 . S
C57 N53 1.345 . S
C57 C58 1.371 . S
C57 H60 0.931 . S
C58 C54 1.391 . S
C58 C57 1.371 . S
C58 H65 0.930 . S
H59 C56 0.960 . S
H60 C57 0.931 . S
H61 C37 0.930 . S
H62 C34 0.930 . S
H63 C43 0.930 . S
H64 C55 0.929 . S
H65 C58 0.930 . S
C66 C67 1.351 . S
C66 N69 1.368 . S
C66 H71 0.931 . S
C67 C66 1.351 . S
C67 N68 1.373 . S
C67 H95 0.930 . S
N68 C67 1.373 . S
N68 C70 1.340 . S
N69 C66 1.368 . S
N69 C70 1.321 . S
N69 Co72 2.135 . S
C70 N68 1.340 . S
C70 N69 1.321 . S
C70 H94 0.930 . S
H71 C66 0.931 . S
Co72 N69 2.135 . S
Co72 N75 2.121 . S
Co72 O80 2.055 . S
Co72 O83 2.039 . S
Co72 N86 2.140 . S
C73 O74 1.227 . S
C73 O83 1.265 . S
O74 C73 1.227 . S
N75 Co72 2.121 . S
N75 C77 1.375 . S
N75 C78 1.313 . S
C76 C77 1.338 . S
C76 N79 1.377 . S
C76 H96 0.930 . S
C77 N75 1.375 . S
C77 C76 1.338 . S
C77 H81 0.931 . S
C78 N75 1.313 . S
C78 N79 1.344 . S
C78 H82 0.930 . S
N79 C76 1.377 . S
N79 C78 1.344 . S
O80 Co72 2.055 . S
O80 C84 1.253 . S
H81 C77 0.931 . S
H82 C78 0.930 . S
O83 Co72 2.039 . S
O83 C73 1.265 . S
C84 O80 1.253 . S
C84 O85 1.227 . S
O85 C84 1.227 . S
N86 Co72 2.140 . S
N86 C89 1.346 . S
N86 C90 1.345 . S
C87 C88 1.387 . S
C87 C91 1.391 . S
C88 C87 1.387 . S
C88 C89 1.369 . S
C88 H97 0.929 . S
C89 N86 1.346 . S
C89 C88 1.369 . S
C89 H92 0.928 . S
C90 N86 1.345 . S
C90 C91 1.371 . S
C90 H93 0.931 . S
C91 C87 1.391 . S
C91 C90 1.371 . S
C91 H98 0.930 . S
H92 C89 0.928 . S
H93 C90 0.931 . S
H94 C70 0.930 . S
H95 C67 0.930 . S
H96 C76 0.930 . S
H97 C88 0.929 . S
H98 C91 0.930 . S
C99 C100 1.351 . S
C99 N102 1.368 . S
C99 H104 0.931 . S
C100 C99 1.351 . S
C100 N101 1.373 . S
C100 H128 0.930 . S
N101 C100 1.373 . S
N101 C103 1.340 . S
N102 C99 1.368 . S
N102 C103 1.321 . S
N102 Co105 2.135 . S
C103 N101 1.340 . S
C103 N102 1.321 . S
C103 H127 0.930 . S
H104 C99 0.931 . S
Co105 N102 2.135 . S
Co105 N108 2.121 . S
Co105 O113 2.055 . S
Co105 O116 2.039 . S
Co105 N119 2.140 . S
C106 O107 1.227 . S
C106 O116 1.265 . S
O107 C106 1.227 . S
N108 Co105 2.121 . S
N108 C110 1.375 . S
N108 C111 1.313 . S
C109 C110 1.338 . S
C109 N112 1.377 . S
C109 H129 0.930 . S
C110 N108 1.375 . S
C110 C109 1.338 . S
C110 H114 0.931 . S
C111 N108 1.313 . S
C111 N112 1.344 . S
C111 H115 0.930 . S
N112 C109 1.377 . S
N112 C111 1.344 . S
O113 Co105 2.055 . S
O113 C117 1.253 . S
H114 C110 0.931 . S
H115 C111 0.930 . S
O116 Co105 2.039 . S
O116 C106 1.265 . S
C117 O113 1.253 . S
C117 O118 1.227 . S
O118 C117 1.227 . S
N119 Co105 2.140 . S
N119 C122 1.346 . S
N119 C123 1.345 . S
C120 C121 1.387 . S
C120 C124 1.391 . S
C121 C120 1.387 . S
C121 C122 1.369 . S
C121 H130 0.929 . S
C122 N119 1.346 . S
C122 C121 1.369 . S
C122 H125 0.928 . S
C123 N119 1.345 . S
C123 C124 1.371 . S
C123 H126 0.931 . S
C124 C120 1.391 . S
C124 C123 1.371 . S
C124 H131 0.930 . S
H125 C122 0.928 . S
H126 C123 0.931 . S
H127 C103 0.930 . S
H128 C100 0.930 . S
H129 C109 0.930 . S
H130 C121 0.929 . S
H131 C124 0.930 . S
C132 C133 1.351 . S
C132 N135 1.368 . S
C132 H137 0.931 . S
C133 C132 1.351 . S
C133 N134 1.373 . S
C133 H161 0.930 . S
N134 C133 1.373 . S
N134 C136 1.340 . S
N135 C132 1.368 . S
N135 C136 1.321 . S
N135 Co138 2.135 . S
C136 N134 1.340 . S
C136 N135 1.321 . S
C136 H160 0.930 . S
H137 C132 0.931 . S
Co138 N135 2.135 . S
Co138 N141 2.121 1_455 S
Co138 O146 2.055 . S
Co138 O149 2.039 . S
Co138 N152 2.140 1_455 S
C139 O140 1.227 . S
C139 O149 1.265 . S
O140 C139 1.227 . S
N141 Co138 2.121 1_655 S
N141 C143 1.375 . S
N141 C144 1.313 . S
C142 C143 1.338 . S
C142 N145 1.377 . S
C142 H162 0.930 . S
C143 N141 1.375 . S
C143 C142 1.338 . S
C143 H147 0.931 . S
C144 N141 1.313 . S
C144 N145 1.344 . S
C144 H148 0.930 . S
N145 C142 1.377 . S
N145 C144 1.344 . S
O146 Co138 2.055 . S
O146 C150 1.253 . S
H147 C143 0.931 . S
H148 C144 0.930 . S
O149 Co138 2.039 . S
O149 C139 1.265 . S
C150 O146 1.253 . S
C150 O151 1.227 . S
O151 C150 1.227 . S
N152 Co138 2.140 1_655 S
N152 C155 1.337 1_655 S
N152 C156 1.345 . S
C153 C154 1.387 . S
C153 C157 1.391 . S
C154 C153 1.387 . S
C154 C155 1.349 1_655 S
C154 H163 0.929 . S
C155 N152 1.337 1_455 S
C155 C154 1.349 1_455 S
C155 H158 0.960 . S
C156 N152 1.345 . S
C156 C157 1.371 . S
C156 H159 0.931 . S
C157 C153 1.391 . S
C157 C156 1.371 . S
C157 H164 0.930 . S
H158 C155 0.960 . S
H159 C156 0.931 . S
H160 C136 0.930 . S
H161 C133 0.930 . S
H162 C142 0.930 . S
H163 C154 0.929 . S
H164 C157 0.930 . S
C165 C166 1.351 . S
C165 N168 1.368 . S
C165 H170 0.931 . S
C166 C165 1.351 . S
C166 N167 1.373 . S
C166 H194 0.930 . S
N167 C166 1.373 . S
N167 C169 1.340 . S
N168 C165 1.368 . S
N168 C169 1.321 . S
N168 Co171 2.135 . S
C169 N167 1.340 . S
C169 N168 1.321 . S
C169 H193 0.930 . S
H170 C165 0.931 . S
Co171 N168 2.135 . S
Co171 N174 2.121 1_545 S
Co171 O179 2.055 . S
Co171 O182 2.039 . S
Co171 N185 2.140 1_545 S
C172 O173 1.227 . S
C172 O182 1.265 . S
O173 C172 1.227 . S
N174 Co171 2.121 1_565 S
N174 C176 1.375 . S
N174 C177 1.313 . S
C175 C176 1.338 . S
C175 N178 1.377 . S
C175 H195 0.930 . S
C176 N174 1.375 . S
C176 C175 1.338 . S
C176 H180 0.931 . S
C177 N174 1.313 . S
C177 N178 1.344 . S
C177 H181 0.930 . S
N178 C175 1.377 . S
N178 C177 1.344 . S
O179 Co171 2.055 . S
O179 C183 1.253 . S
H180 C176 0.931 . S
H181 C177 0.930 . S
O182 Co171 2.039 . S
O182 C172 1.265 . S
C183 O179 1.253 . S
C183 O184 1.227 . S
O184 C183 1.227 . S
N185 Co171 2.140 1_565 S
N185 C188 1.337 1_565 S
N185 C189 1.345 . S
C186 C187 1.387 . S
C186 C190 1.391 . S
C187 C186 1.387 . S
C187 C188 1.349 1_565 S
C187 H196 0.929 . S
C188 N185 1.337 1_545 S
C188 C187 1.349 1_545 S
C188 H191 0.960 . S
C189 N185 1.345 . S
C189 C190 1.371 . S
C189 H192 0.931 . S
C190 C186 1.391 . S
C190 C189 1.371 . S
C190 H197 0.930 . S
H191 C188 0.960 . S
H192 C189 0.931 . S
H193 C169 0.930 . S
H194 C166 0.930 . S
H195 C175 0.930 . S
H196 C187 0.929 . S
H197 C190 0.930 . S
C198 C199 1.351 . S
C198 N201 1.368 . S
C198 H203 0.931 . S
C199 C198 1.351 . S
C199 N200 1.373 . S
C199 H227 0.930 . S
N200 C199 1.373 . S
N200 C202 1.340 . S
N201 C198 1.368 . S
N201 C202 1.321 . S
N201 Co204 2.135 . S
C202 N200 1.340 . S
C202 N201 1.321 . S
C202 H226 0.930 . S
H203 C198 0.931 . S
Co204 N201 2.135 . S
Co204 N207 2.121 . S
Co204 O212 2.055 . S
Co204 O215 2.039 . S
Co204 N218 2.140 . S
C205 O206 1.227 . S
C205 O215 1.265 . S
O206 C205 1.227 . S
N207 Co204 2.121 . S
N207 C209 1.375 . S
N207 C210 1.313 . S
C208 C209 1.338 . S
C208 N211 1.377 . S
C208 H228 0.930 . S
C209 N207 1.375 . S
C209 C208 1.338 . S
C209 H213 0.931 . S
C210 N207 1.313 . S
C210 N211 1.344 . S
C210 H214 0.930 . S
N211 C208 1.377 . S
N211 C210 1.344 . S
O212 Co204 2.055 . S
O212 C216 1.253 . S
H213 C209 0.931 . S
H214 C210 0.930 . S
O215 Co204 2.039 . S
O215 C205 1.265 . S
C216 O212 1.253 . S
C216 O217 1.227 . S
O217 C216 1.227 . S
N218 Co204 2.140 . S
N218 C221 1.346 . S
N218 C222 1.345 . S
C219 C220 1.387 . S
C219 C223 1.391 . S
C220 C219 1.387 . S
C220 C221 1.369 . S
C220 H229 0.929 . S
C221 N218 1.346 . S
C221 C220 1.369 . S
C221 H224 0.928 . S
C222 N218 1.345 . S
C222 C223 1.371 . S
C222 H225 0.931 . S
C223 C219 1.391 . S
C223 C222 1.371 . S
C223 H230 0.930 . S
H224 C221 0.928 . S
H225 C222 0.931 . S
H226 C202 0.930 . S
H227 C199 0.930 . S
H228 C208 0.930 . S
H229 C220 0.929 . S
H230 C223 0.930 . S
C231 C232 1.351 . S
C231 N234 1.368 . S
C231 H236 0.931 . S
C232 C231 1.351 . S
C232 N233 1.373 . S
C232 H260 0.930 . S
N233 C232 1.373 . S
N233 C235 1.340 . S
N234 C231 1.368 . S
N234 C235 1.321 . S
N234 Co237 2.135 . S
C235 N233 1.340 . S
C235 N234 1.321 . S
C235 H259 0.930 . S
H236 C231 0.931 . S
Co237 N234 2.135 . S
Co237 N240 2.121 . S
Co237 O245 2.055 . S
Co237 O248 2.039 . S
Co237 N251 2.140 . S
C238 O239 1.227 . S
C238 O248 1.265 . S
O239 C238 1.227 . S
N240 Co237 2.121 . S
N240 C242 1.375 . S
N240 C243 1.313 . S
C241 C242 1.338 . S
C241 N244 1.377 . S
C241 H261 0.930 . S
C242 N240 1.375 . S
C242 C241 1.338 . S
C242 H246 0.931 . S
C243 N240 1.313 . S
C243 N244 1.344 . S
C243 H247 0.930 . S
N244 C241 1.377 . S
N244 C243 1.344 . S
O245 Co237 2.055 . S
O245 C249 1.253 . S
H246 C242 0.931 . S
H247 C243 0.930 . S
O248 Co237 2.039 . S
O248 C238 1.265 . S
C249 O245 1.253 . S
C249 O250 1.227 . S
O250 C249 1.227 . S
N251 Co237 2.140 . S
N251 C254 1.346 . S
N251 C255 1.345 . S
C252 C253 1.387 . S
C252 C256 1.391 . S
C253 C252 1.387 . S
C253 C254 1.369 . S
C253 H262 0.929 . S
C254 N251 1.346 . S
C254 C253 1.369 . S
C254 H257 0.928 . S
C255 N251 1.345 . S
C255 C256 1.371 . S
C255 H258 0.931 . S
C256 C252 1.391 . S
C256 C255 1.371 . S
C256 H263 0.930 . S
H257 C254 0.928 . S
H258 C255 0.931 . S
H259 C235 0.930 . S
H260 C232 0.930 . S
H261 C241 0.930 . S
H262 C253 0.929 . S
H263 C256 0.930 . S
C264 C265 1.351 . S
C264 N267 1.368 . S
C264 H269 0.931 . S
C265 C264 1.351 . S
C265 N266 1.373 . S
C265 H293 0.930 . S
N266 C265 1.373 . S
N266 C268 1.340 . S
N267 C264 1.368 . S
N267 C268 1.321 . S
N267 Co270 2.135 . S
C268 N266 1.340 . S
C268 N267 1.321 . S
C268 H292 0.930 . S
H269 C264 0.931 . S
Co270 N267 2.135 . S
Co270 N273 2.121 1_655 S
Co270 O278 2.055 . S
Co270 O281 2.039 . S
Co270 N284 2.140 1_655 S
C271 O272 1.227 . S
C271 O281 1.265 . S
O272 C271 1.227 . S
N273 Co270 2.121 1_455 S
N273 C275 1.375 . S
N273 C276 1.313 . S
C274 C275 1.338 . S
C274 N277 1.377 . S
C274 H294 0.930 . S
C275 N273 1.375 . S
C275 C274 1.338 . S
C275 H279 0.931 . S
C276 N273 1.313 . S
C276 N277 1.344 . S
C276 H280 0.930 . S
N277 C274 1.377 . S
N277 C276 1.344 . S
O278 Co270 2.055 . S
O278 C282 1.253 . S
H279 C275 0.931 . S
H280 C276 0.930 . S
O281 Co270 2.039 . S
O281 C271 1.265 . S
C282 O278 1.253 . S
C282 O283 1.227 . S
O283 C282 1.227 . S
N284 Co270 2.140 1_455 S
N284 C287 1.337 1_455 S
N284 C288 1.345 . S
C285 C286 1.387 . S
C285 C289 1.391 . S
C286 C285 1.387 . S
C286 C287 1.349 1_455 S
C286 H295 0.929 . S
C287 N284 1.337 1_655 S
C287 C286 1.349 1_655 S
C287 H290 0.960 . S
C288 N284 1.345 . S
C288 C289 1.371 . S
C288 H291 0.931 . S
C289 C285 1.391 . S
C289 C288 1.371 . S
C289 H296 0.930 . S
H290 C287 0.960 . S
H291 C288 0.931 . S
H292 C268 0.930 . S
H293 C265 0.930 . S
H294 C274 0.930 . S
H295 C286 0.929 . S
H296 C289 0.930 . S
C297 C298 1.351 . S
C297 N300 1.368 . S
C297 H302 0.931 . S
C298 C297 1.351 . S
C298 N299 1.373 . S
C298 H326 0.930 . S
N299 C298 1.373 . S
N299 C301 1.340 . S
N300 C297 1.368 . S
N300 C301 1.321 . S
N300 Co303 2.135 . S
C301 N299 1.340 . S
C301 N300 1.321 . S
C301 H325 0.930 . S
H302 C297 0.931 . S
Co303 N300 2.135 . S
Co303 N306 2.121 1_565 S
Co303 O311 2.055 . S
Co303 O314 2.039 . S
Co303 N317 2.140 1_565 S
C304 O305 1.227 . S
C304 O314 1.265 . S
O305 C304 1.227 . S
N306 Co303 2.121 1_545 S
N306 C308 1.375 . S
N306 C309 1.313 . S
C307 C308 1.338 . S
C307 N310 1.377 . S
C307 H327 0.930 . S
C308 N306 1.375 . S
C308 C307 1.338 . S
C308 H312 0.931 . S
C309 N306 1.313 . S
C309 N310 1.344 . S
C309 H313 0.930 . S
N310 C307 1.377 . S
N310 C309 1.344 . S
O311 Co303 2.055 . S
O311 C315 1.253 . S
H312 C308 0.931 . S
H313 C309 0.930 . S
O314 Co303 2.039 . S
O314 C304 1.265 . S
C315 O311 1.253 . S
C315 O316 1.227 . S
O316 C315 1.227 . S
N317 Co303 2.140 1_545 S
N317 C320 1.337 1_545 S
N317 C321 1.345 . S
C318 C319 1.387 . S
C318 C322 1.391 . S
C319 C318 1.387 . S
C319 C320 1.349 1_545 S
C319 H328 0.929 . S
C320 N317 1.337 1_565 S
C320 C319 1.349 1_565 S
C320 H323 0.960 . S
C321 N317 1.345 . S
C321 C322 1.371 . S
C321 H324 0.931 . S
C322 C318 1.391 . S
C322 C321 1.371 . S
C322 H329 0.930 . S
H323 C320 0.960 . S
H324 C321 0.931 . S
H325 C301 0.930 . S
H326 C298 0.930 . S
H327 C307 0.930 . S
H328 C319 0.929 . S
H329 C322 0.930 . S
C330 C331 1.351 . S
C330 N333 1.368 . S
C330 H335 0.931 . S
C331 C330 1.351 . S
C331 N332 1.373 . S
C331 H359 0.930 . S
N332 C331 1.373 . S
N332 C334 1.340 . S
N333 C330 1.368 . S
N333 C334 1.321 . S
N333 Co336 2.135 . S
C334 N332 1.340 . S
C334 N333 1.321 . S
C334 H358 0.930 . S
H335 C330 0.931 . S
Co336 N333 2.135 . S
Co336 N339 2.121 . S
Co336 O344 2.055 . S
Co336 O347 2.039 . S
Co336 N350 2.140 . S
C337 O338 1.227 . S
C337 O347 1.265 . S
O338 C337 1.227 . S
N339 Co336 2.121 . S
N339 C341 1.375 . S
N339 C342 1.313 . S
C340 C341 1.338 . S
C340 N343 1.377 . S
C340 H360 0.930 . S
C341 N339 1.375 . S
C341 C340 1.338 . S
C341 H345 0.931 . S
C342 N339 1.313 . S
C342 N343 1.344 . S
C342 H346 0.930 . S
N343 C340 1.377 . S
N343 C342 1.344 . S
O344 Co336 2.055 . S
O344 C348 1.253 . S
H345 C341 0.931 . S
H346 C342 0.930 . S
O347 Co336 2.039 . S
O347 C337 1.265 . S
C348 O344 1.253 . S
C348 O349 1.227 . S
O349 C348 1.227 . S
N350 Co336 2.140 . S
N350 C353 1.346 . S
N350 C354 1.345 . S
C351 C352 1.387 . S
C351 C355 1.391 . S
C352 C351 1.387 . S
C352 C353 1.369 . S
C352 H361 0.929 . S
C353 N350 1.346 . S
C353 C352 1.369 . S
C353 H356 0.928 . S
C354 N350 1.345 . S
C354 C355 1.371 . S
C354 H357 0.931 . S
C355 C351 1.391 . S
C355 C354 1.371 . S
C355 H362 0.930 . S
H356 C353 0.928 . S
H357 C354 0.931 . S
H358 C334 0.930 . S
H359 C331 0.930 . S
H360 C340 0.930 . S
H361 C352 0.929 . S
H362 C355 0.930 . S
C363 C364 1.351 . S
C363 N366 1.368 . S
C363 H368 0.931 . S
C364 C363 1.351 . S
C364 N365 1.373 . S
C364 H392 0.930 . S
N365 C364 1.373 . S
N365 C367 1.340 . S
N366 C363 1.368 . S
N366 C367 1.321 . S
N366 Co369 2.135 . S
C367 N365 1.340 . S
C367 N366 1.321 . S
C367 H391 0.930 . S
H368 C363 0.931 . S
Co369 N366 2.135 . S
Co369 N372 2.121 . S
Co369 O377 2.055 . S
Co369 O380 2.039 . S
Co369 N383 2.140 . S
C370 O371 1.227 . S
C370 O380 1.265 . S
O371 C370 1.227 . S
N372 Co369 2.121 . S
N372 C374 1.375 . S
N372 C375 1.313 . S
C373 C374 1.338 . S
C373 N376 1.377 . S
C373 H393 0.930 . S
C374 N372 1.375 . S
C374 C373 1.338 . S
C374 H378 0.931 . S
C375 N372 1.313 . S
C375 N376 1.344 . S
C375 H379 0.930 . S
N376 C373 1.377 . S
N376 C375 1.344 . S
O377 Co369 2.055 . S
O377 C381 1.253 . S
H378 C374 0.931 . S
H379 C375 0.930 . S
O380 Co369 2.039 . S
O380 C370 1.265 . S
C381 O377 1.253 . S
C381 O382 1.227 . S
O382 C381 1.227 . S
N383 Co369 2.140 . S
N383 C386 1.346 . S
N383 C387 1.345 . S
C384 C385 1.387 . S
C384 C388 1.391 . S
C385 C384 1.387 . S
C385 C386 1.369 . S
C385 H394 0.929 . S
C386 N383 1.346 . S
C386 C385 1.369 . S
C386 H389 0.928 . S
C387 N383 1.345 . S
C387 C388 1.371 . S
C387 H390 0.931 . S
C388 C384 1.391 . S
C388 C387 1.371 . S
C388 H395 0.930 . S
H389 C386 0.928 . S
H390 C387 0.931 . S
H391 C367 0.930 . S
H392 C364 0.930 . S
H393 C373 0.930 . S
H394 C385 0.929 . S
H395 C388 0.930 . S
C396 C397 1.351 . S
C396 N399 1.368 . S
C396 H401 0.931 . S
C397 C396 1.351 . S
C397 N398 1.373 . S
C397 H425 0.930 . S
N398 C397 1.373 . S
N398 C400 1.340 . S
N399 C396 1.368 . S
N399 C400 1.321 . S
N399 Co402 2.135 . S
C400 N398 1.340 . S
C400 N399 1.321 . S
C400 H424 0.930 . S
H401 C396 0.931 . S
Co402 N399 2.135 . S
Co402 N405 2.121 1_655 S
Co402 O410 2.055 . S
Co402 O413 2.039 . S
Co402 N416 2.140 1_655 S
C403 O404 1.227 . S
C403 O413 1.265 . S
O404 C403 1.227 . S
N405 Co402 2.121 1_455 S
N405 C407 1.375 . S
N405 C408 1.313 . S
C406 C407 1.338 . S
C406 N409 1.377 . S
C406 H426 0.930 . S
C407 N405 1.375 . S
C407 C406 1.338 . S
C407 H411 0.931 . S
C408 N405 1.313 . S
C408 N409 1.344 . S
C408 H412 0.930 . S
N409 C406 1.377 . S
N409 C408 1.344 . S
O410 Co402 2.055 . S
O410 C414 1.253 . S
H411 C407 0.931 . S
H412 C408 0.930 . S
O413 Co402 2.039 . S
O413 C403 1.265 . S
C414 O410 1.253 . S
C414 O415 1.227 . S
O415 C414 1.227 . S
N416 Co402 2.140 1_455 S
N416 C419 1.337 1_455 S
N416 C420 1.345 . S
C417 C418 1.387 . S
C417 C421 1.391 . S
C418 C417 1.387 . S
C418 C419 1.349 1_455 S
C418 H427 0.929 . S
C419 N416 1.337 1_655 S
C419 C418 1.349 1_655 S
C419 H422 0.960 . S
C420 N416 1.345 . S
C420 C421 1.371 . S
C420 H423 0.931 . S
C421 C417 1.391 . S
C421 C420 1.371 . S
C421 H428 0.930 . S
H422 C419 0.960 . S
H423 C420 0.931 . S
H424 C400 0.930 . S
H425 C397 0.930 . S
H426 C406 0.930 . S
H427 C418 0.929 . S
H428 C421 0.930 . S
C429 C430 1.351 . S
C429 N432 1.368 . S
C429 H434 0.931 . S
C430 C429 1.351 . S
C430 N431 1.373 . S
C430 H458 0.930 . S
N431 C430 1.373 . S
N431 C433 1.340 . S
N432 C429 1.368 . S
N432 C433 1.321 . S
N432 Co435 2.135 . S
C433 N431 1.340 . S
C433 N432 1.321 . S
C433 H457 0.930 . S
H434 C429 0.931 . S
Co435 N432 2.135 . S
Co435 N438 2.121 1_565 S
Co435 O443 2.055 . S
Co435 O446 2.039 . S
Co435 N449 2.140 1_565 S
C436 O437 1.227 . S
C436 O446 1.265 . S
O437 C436 1.227 . S
N438 Co435 2.121 1_545 S
N438 C440 1.375 . S
N438 C441 1.313 . S
C439 C440 1.338 . S
C439 N442 1.377 . S
C439 H459 0.930 . S
C440 N438 1.375 . S
C440 C439 1.338 . S
C440 H444 0.931 . S
C441 N438 1.313 . S
C441 N442 1.344 . S
C441 H445 0.930 . S
N442 C439 1.377 . S
N442 C441 1.344 . S
O443 Co435 2.055 . S
O443 C447 1.253 . S
H444 C440 0.931 . S
H445 C441 0.930 . S
O446 Co435 2.039 . S
O446 C436 1.265 . S
C447 O443 1.253 . S
C447 O448 1.227 . S
O448 C447 1.227 . S
N449 Co435 2.140 1_545 S
N449 C452 1.337 1_545 S
N449 C453 1.345 . S
C450 C451 1.387 . S
C450 C454 1.391 . S
C451 C450 1.387 . S
C451 C452 1.349 1_545 S
C451 H460 0.929 . S
C452 N449 1.337 1_565 S
C452 C451 1.349 1_565 S
C452 H455 0.960 . S
C453 N449 1.345 . S
C453 C454 1.371 . S
C453 H456 0.931 . S
C454 C450 1.391 . S
C454 C453 1.371 . S
C454 H461 0.930 . S
H455 C452 0.960 . S
H456 C453 0.931 . S
H457 C433 0.930 . S
H458 C430 0.930 . S
H459 C439 0.930 . S
H460 C451 0.929 . S
H461 C454 0.930 . S
C462 C463 1.351 . S
C462 N465 1.368 . S
C462 H467 0.931 . S
C463 C462 1.351 . S
C463 N464 1.373 . S
C463 H491 0.930 . S
N464 C463 1.373 . S
N464 C466 1.340 . S
N465 C462 1.368 . S
N465 C466 1.321 . S
N465 Co468 2.135 . S
C466 N464 1.340 . S
C466 N465 1.321 . S
C466 H490 0.930 . S
H467 C462 0.931 . S
Co468 N465 2.135 . S
Co468 N471 2.121 . S
Co468 O476 2.055 . S
Co468 O479 2.039 . S
Co468 N482 2.140 . S
C469 O470 1.227 . S
C469 O479 1.265 . S
O470 C469 1.227 . S
N471 Co468 2.121 . S
N471 C473 1.375 . S
N471 C474 1.313 . S
C472 C473 1.338 . S
C472 N475 1.377 . S
C472 H492 0.930 . S
C473 N471 1.375 . S
C473 C472 1.338 . S
C473 H477 0.931 . S
C474 N471 1.313 . S
C474 N475 1.344 . S
C474 H478 0.930 . S
N475 C472 1.377 . S
N475 C474 1.344 . S
O476 Co468 2.055 . S
O476 C480 1.253 . S
H477 C473 0.931 . S
H478 C474 0.930 . S
O479 Co468 2.039 . S
O479 C469 1.265 . S
C480 O476 1.253 . S
C480 O481 1.227 . S
O481 C480 1.227 . S
N482 Co468 2.140 . S
N482 C485 1.346 . S
N482 C486 1.345 . S
C483 C484 1.387 . S
C483 C487 1.391 . S
C484 C483 1.387 . S
C484 C485 1.369 . S
C484 H493 0.929 . S
C485 N482 1.346 . S
C485 C484 1.369 . S
C485 H488 0.928 . S
C486 N482 1.345 . S
C486 C487 1.371 . S
C486 H489 0.931 . S
C487 C483 1.391 . S
C487 C486 1.371 . S
C487 H494 0.930 . S
H488 C485 0.928 . S
H489 C486 0.931 . S
H490 C466 0.930 . S
H491 C463 0.930 . S
H492 C472 0.930 . S
H493 C484 0.929 . S
H494 C487 0.930 . S
C495 C496 1.351 . S
C495 N498 1.368 . S
C495 H500 0.931 . S
C496 C495 1.351 . S
C496 N497 1.373 . S
C496 H524 0.930 . S
N497 C496 1.373 . S
N497 C499 1.340 . S
N498 C495 1.368 . S
N498 C499 1.321 . S
N498 Co501 2.135 . S
C499 N497 1.340 . S
C499 N498 1.321 . S
C499 H523 0.930 . S
H500 C495 0.931 . S
Co501 N498 2.135 . S
Co501 N504 2.121 . S
Co501 O509 2.055 . S
Co501 O512 2.039 . S
Co501 N515 2.140 . S
C502 O503 1.227 . S
C502 O512 1.265 . S
O503 C502 1.227 . S
N504 Co501 2.121 . S
N504 C506 1.375 . S
N504 C507 1.313 . S
C505 C506 1.338 . S
C505 N508 1.377 . S
C505 H525 0.930 . S
C506 N504 1.375 . S
C506 C505 1.338 . S
C506 H510 0.931 . S
C507 N504 1.313 . S
C507 N508 1.344 . S
C507 H511 0.930 . S
N508 C505 1.377 . S
N508 C507 1.344 . S
O509 Co501 2.055 . S
O509 C513 1.253 . S
H510 C506 0.931 . S
H511 C507 0.930 . S
O512 Co501 2.039 . S
O512 C502 1.265 . S
C513 O509 1.253 . S
C513 O514 1.227 . S
O514 C513 1.227 . S
N515 Co501 2.140 . S
N515 C518 1.346 . S
N515 C519 1.345 . S
C516 C517 1.387 . S
C516 C520 1.391 . S
C517 C516 1.387 . S
C517 C518 1.369 . S
C517 H526 0.929 . S
C518 N515 1.346 . S
C518 C517 1.369 . S
C518 H521 0.928 . S
C519 N515 1.345 . S
C519 C520 1.371 . S
C519 H522 0.931 . S
C520 C516 1.391 . S
C520 C519 1.371 . S
C520 H527 0.930 . S
H521 C518 0.928 . S
H522 C519 0.931 . S
H523 C499 0.930 . S
H524 C496 0.930 . S
H525 C505 0.930 . S
H526 C517 0.929 . S
H527 C520 0.930 . S
C528 C529 1.391 . S
C528 C530 1.394 . S
C528 H544 0.931 . S
C529 C528 1.391 . S
C529 C533 1.376 . S
C530 C528 1.394 . S
C530 C531 1.369 . S
C530 C534 1.531 . S
C531 C530 1.369 . S
C531 C532 1.410 . S
C531 C539 1.503 . S
C532 C531 1.410 . S
C532 C533 1.392 . S
C532 C535 1.511 . S
C533 C529 1.376 . S
C533 C532 1.392 . S
C533 H545 0.929 1_455 S
C534 C530 1.531 . S
C534 H546 0.960 . S
C534 H547 0.962 . S
C534 H548 0.960 . S
C535 C532 1.511 . S
C535 H549 0.961 1_455 S
C535 H550 0.961 . S
C535 H551 0.961 1_455 S
C536 C537 1.370 . S
C536 C538 1.363 . S
C536 H552 0.931 . S
C537 C536 1.370 . S
C537 C541 1.408 . S
C538 C536 1.363 . S
C538 C539 1.370 . S
C538 C542 1.524 . S
C539 C531 1.503 . S
C539 C538 1.370 . S
C539 C540 1.403 . S
C540 C539 1.403 . S
C540 C541 1.404 . S
C540 C543 1.539 . S
C541 C537 1.408 . S
C541 C540 1.404 . S
C541 H553 0.930 . S
C542 C538 1.524 . S
C542 H554 0.956 . S
C542 H555 0.961 . S
C542 H556 0.961 . S
C543 C540 1.539 . S
C543 H557 0.958 . S
C543 H558 0.961 . S
C543 H559 0.960 . S
H544 C528 0.931 . S
H545 C533 0.929 1_655 S
H546 C534 0.960 . S
H547 C534 0.962 . S
H548 C534 0.960 . S
H549 C535 0.961 1_655 S
H550 C535 0.961 . S
H551 C535 0.961 1_655 S
H552 C536 0.931 . S
H553 C541 0.930 . S
H554 C542 0.956 . S
H555 C542 0.961 . S
H556 C542 0.961 . S
H557 C543 0.958 . S
H558 C543 0.961 . S
H559 C543 0.960 . S
C560 C561 1.391 . S
C560 C562 1.394 . S
C560 H576 0.931 . S
C561 C560 1.391 . S
C561 C565 1.376 . S
C562 C560 1.394 . S
C562 C563 1.369 . S
C562 C566 1.531 . S
C563 C562 1.369 . S
C563 C564 1.410 . S
C563 C571 1.503 . S
C564 C563 1.410 . S
C564 C565 1.392 . S
C564 C567 1.511 . S
C565 C561 1.376 . S
C565 C564 1.392 . S
C565 H577 0.929 . S
C566 C562 1.531 . S
C566 H578 0.960 . S
C566 H579 0.962 . S
C566 H580 0.960 . S
C567 C564 1.511 . S
C567 H581 0.961 . S
C567 H582 0.961 . S
C567 H583 0.961 . S
C568 C569 1.370 . S
C568 C570 1.363 . S
C568 H584 0.931 . S
C569 C568 1.370 . S
C569 C573 1.408 . S
C570 C568 1.363 . S
C570 C571 1.370 . S
C570 C574 1.524 . S
C571 C563 1.503 . S
C571 C570 1.370 . S
C571 C572 1.403 . S
C572 C571 1.403 . S
C572 C573 1.404 . S
C572 C575 1.539 . S
C573 C569 1.408 . S
C573 C572 1.404 . S
C573 H585 0.930 . S
C574 C570 1.524 . S
C574 H586 0.956 . S
C574 H587 0.961 . S
C574 H588 0.961 . S
C575 C572 1.539 . S
C575 H589 0.958 . S
C575 H590 0.961 . S
C575 H591 0.960 . S
H576 C560 0.931 . S
H577 C565 0.929 . S
H578 C566 0.960 . S
H579 C566 0.962 . S
H580 C566 0.960 . S
H581 C567 0.961 . S
H582 C567 0.961 . S
H583 C567 0.961 . S
H584 C568 0.931 . S
H585 C573 0.930 . S
H586 C574 0.956 . S
H587 C574 0.961 . S
H588 C574 0.961 . S
H589 C575 0.958 . S
H590 C575 0.961 . S
H591 C575 0.960 . S
C592 C593 1.391 . S
C592 C594 1.394 . S
C592 H608 0.931 . S
C593 C592 1.391 . S
C593 C597 1.376 . S
C594 C592 1.394 . S
C594 C595 1.369 . S
C594 C598 1.531 . S
C595 C594 1.369 . S
C595 C596 1.410 . S
C595 C603 1.503 . S
C596 C595 1.410 . S
C596 C597 1.392 . S
C596 C599 1.511 . S
C597 C593 1.376 . S
C597 C596 1.392 . S
C597 H609 0.929 . S
C598 C594 1.531 . S
C598 H610 0.960 . S
C598 H611 0.962 . S
C598 H612 0.960 . S
C599 C596 1.511 . S
C599 H613 0.961 . S
C599 H614 0.961 . S
C599 H615 0.961 . S
C600 C601 1.370 . S
C600 C602 1.363 . S
C600 H616 0.931 . S
C601 C600 1.370 . S
C601 C605 1.408 . S
C602 C600 1.363 . S
C602 C603 1.370 . S
C602 C606 1.524 . S
C603 C595 1.503 . S
C603 C602 1.370 . S
C603 C604 1.403 . S
C604 C603 1.403 . S
C604 C605 1.404 . S
C604 C607 1.539 . S
C605 C601 1.408 . S
C605 C604 1.404 . S
C605 H617 0.930 . S
C606 C602 1.524 . S
C606 H618 0.956 . S
C606 H619 0.961 . S
C606 H620 0.961 . S
C607 C604 1.539 . S
C607 H621 0.958 . S
C607 H622 0.961 . S
C607 H623 0.960 . S
H608 C592 0.931 . S
H609 C597 0.929 . S
H610 C598 0.960 . S
H611 C598 0.962 . S
H612 C598 0.960 . S
H613 C599 0.961 . S
H614 C599 0.961 . S
H615 C599 0.961 . S
H616 C600 0.931 . S
H617 C605 0.930 . S
H618 C606 0.956 . S
H619 C606 0.961 . S
H620 C606 0.961 . S
H621 C607 0.958 . S
H622 C607 0.961 . S
H623 C607 0.960 . S
C624 C625 1.391 . S
C624 C626 1.394 . S
C624 H640 0.931 . S
C625 C624 1.391 . S
C625 C629 1.376 . S
C626 C624 1.394 . S
C626 C627 1.369 . S
C626 C630 1.531 . S
C627 C626 1.369 . S
C627 C628 1.410 . S
C627 C635 1.503 . S
C628 C627 1.410 . S
C628 C629 1.392 . S
C628 C631 1.511 . S
C629 C625 1.376 . S
C629 C628 1.392 . S
C629 H641 0.946 . S
C630 C626 1.531 . S
C630 H642 0.960 . S
C630 H643 0.962 . S
C630 H644 0.960 . S
C631 C628 1.511 . S
C631 H645 0.989 . S
C631 H646 0.961 . S
C631 H647 0.961 . S
C632 C633 1.370 . S
C632 C634 1.363 . S
C632 H648 0.931 . S
C633 C632 1.370 . S
C633 C637 1.408 . S
C634 C632 1.363 . S
C634 C635 1.370 . S
C634 C638 1.524 . S
C635 C627 1.503 . S
C635 C634 1.370 . S
C635 C636 1.403 . S
C636 C635 1.403 . S
C636 C637 1.404 . S
C636 C639 1.539 . S
C637 C633 1.408 . S
C637 C636 1.404 . S
C637 H649 0.930 . S
C638 C634 1.524 . S
C638 H650 0.956 . S
C638 H651 0.961 . S
C638 H652 0.961 . S
C639 C636 1.539 . S
C639 H653 0.958 . S
C639 H654 0.961 . S
C639 H655 0.960 . S
H640 C624 0.931 . S
H641 C629 0.946 . S
H642 C630 0.960 . S
H643 C630 0.962 . S
H644 C630 0.960 . S
H645 C631 0.989 . S
H646 C631 0.961 . S
H647 C631 0.961 . S
H648 C632 0.931 . S
H649 C637 0.930 . S
H650 C638 0.956 . S
H651 C638 0.961 . S
H652 C638 0.961 . S
H653 C639 0.958 . S
H654 C639 0.961 . S
H655 C639 0.960 . S
C656 C657 1.391 . S
C656 C658 1.394 . S
C656 H672 0.931 . S
C657 C656 1.391 . S
C657 C661 1.376 . S
C658 C656 1.394 . S
C658 C659 1.369 . S
C658 C662 1.531 . S
C659 C658 1.369 . S
C659 C660 1.410 . S
C659 C667 1.503 . S
C660 C659 1.410 . S
C660 C661 1.392 . S
C660 C663 1.511 . S
C661 C657 1.376 . S
C661 C660 1.392 . S
C661 H673 0.929 . S
C662 C658 1.531 . S
C662 H674 0.960 . S
C662 H675 0.962 . S
C662 H676 0.960 . S
C663 C660 1.511 . S
C663 H677 0.961 . S
C663 H678 0.961 . S
C663 H679 0.961 1_565 S
C664 C665 1.370 . S
C664 C666 1.363 . S
C664 H680 0.931 . S
C665 C664 1.370 . S
C665 C669 1.408 . S
C666 C664 1.363 . S
C666 C667 1.370 . S
C666 C670 1.524 . S
C667 C659 1.503 . S
C667 C666 1.370 . S
C667 C668 1.403 . S
C668 C667 1.403 . S
C668 C669 1.404 . S
C668 C671 1.539 . S
C669 C665 1.408 . S
C669 C668 1.404 . S
C669 H681 0.930 . S
C670 C666 1.524 . S
C670 H682 0.956 . S
C670 H683 0.961 . S
C670 H684 0.961 . S
C671 C668 1.539 . S
C671 H685 0.958 . S
C671 H686 0.961 . S
C671 H687 0.960 . S
H672 C656 0.931 . S
H673 C661 0.929 . S
H674 C662 0.960 . S
H675 C662 0.962 . S
H676 C662 0.960 . S
H677 C663 0.961 . S
H678 C663 0.961 . S
H679 C663 0.961 1_545 S
H680 C664 0.931 . S
H681 C669 0.930 . S
H682 C670 0.956 . S
H683 C670 0.961 . S
H684 C670 0.961 . S
H685 C671 0.958 . S
H686 C671 0.961 . S
H687 C671 0.960 . S
C688 C689 1.391 . S
C688 C690 1.394 . S
C688 H704 0.931 1_565 S
C689 C688 1.391 . S
C689 C693 1.376 . S
C690 C688 1.394 . S
C690 C691 1.369 . S
C690 C694 1.525 1_565 S
C691 C690 1.369 . S
C691 C692 1.410 . S
C691 C699 1.503 . S
C692 C691 1.410 . S
C692 C693 1.392 . S
C692 C695 1.511 . S
C693 C689 1.376 . S
C693 C692 1.392 . S
C693 H705 0.929 . S
C694 C690 1.525 1_545 S
C694 H706 0.954 1_545 S
C694 H707 0.966 . S
C694 H708 0.969 . S
C695 C692 1.511 . S
C695 H709 0.961 . S
C695 H710 0.961 . S
C695 H711 0.961 . S
C696 C697 1.370 . S
C696 C698 1.363 . S
C696 H712 0.931 . S
C697 C696 1.370 . S
C697 C701 1.408 . S
C698 C696 1.363 . S
C698 C699 1.370 . S
C698 C702 1.524 . S
C699 C691 1.503 . S
C699 C698 1.370 . S
C699 C700 1.403 . S
C700 C699 1.403 . S
C700 C701 1.404 . S
C700 C703 1.539 . S
C701 C697 1.408 . S
C701 C700 1.404 . S
C701 H713 0.930 . S
C702 C698 1.524 . S
C702 H714 0.956 . S
C702 H715 0.961 . S
C702 H716 0.961 . S
C703 C700 1.539 . S
C703 H717 0.958 . S
C703 H718 0.961 . S
C703 H719 0.960 . S
H704 C688 0.931 1_545 S
H705 C693 0.929 . S
H706 C694 0.954 1_565 S
H707 C694 0.966 . S
H708 C694 0.969 . S
H709 C695 0.961 . S
H710 C695 0.961 . S
H711 C695 0.961 . S
H712 C696 0.931 . S
H713 C701 0.930 . S
H714 C702 0.956 . S
H715 C702 0.961 . S
H716 C702 0.961 . S
H717 C703 0.958 . S
H718 C703 0.961 . S
H719 C703 0.960 . S
C720 C721 1.391 . S
C720 C722 1.394 . S
C720 H736 0.931 . S
C721 C720 1.391 . S
C721 C725 1.376 . S
C722 C720 1.394 . S
C722 C723 1.369 . S
C722 C726 1.531 . S
C723 C722 1.369 . S
C723 C724 1.410 . S
C723 C731 1.503 . S
C724 C723 1.410 . S
C724 C725 1.392 . S
C724 C727 1.511 . S
C725 C721 1.376 . S
C725 C724 1.392 . S
C725 H737 0.929 . S
C726 C722 1.531 . S
C726 H738 0.960 . S
C726 H739 0.962 . S
C726 H740 0.960 . S
C727 C724 1.511 . S
C727 H741 0.961 . S
C727 H742 0.961 . S
C727 H743 0.961 . S
C728 C729 1.370 . S
C728 C730 1.363 . S
C728 H744 0.931 . S
C729 C728 1.370 . S
C729 C733 1.408 . S
C730 C728 1.363 . S
C730 C731 1.370 . S
C730 C734 1.524 . S
C731 C723 1.503 . S
C731 C730 1.370 . S
C731 C732 1.403 . S
C732 C731 1.403 . S
C732 C733 1.404 . S
C732 C735 1.539 . S
C733 C729 1.408 . S
C733 C732 1.404 . S
C733 H745 0.930 . S
C734 C730 1.524 . S
C734 H746 0.956 . S
C734 H747 0.961 . S
C734 H748 0.961 . S
C735 C732 1.539 . S
C735 H749 0.958 . S
C735 H750 0.961 . S
C735 H751 0.960 . S
H736 C720 0.931 . S
H737 C725 0.929 . S
H738 C726 0.960 . S
H739 C726 0.962 . S
H740 C726 0.960 . S
H741 C727 0.961 . S
H742 C727 0.961 . S
H743 C727 0.961 . S
H744 C728 0.931 . S
H745 C733 0.930 . S
H746 C734 0.956 . S
H747 C734 0.961 . S
H748 C734 0.961 . S
H749 C735 0.958 . S
H750 C735 0.961 . S
H751 C735 0.960 . S
C752 C753 1.391 . S
C752 C754 1.394 . S
C752 H768 0.931 . S
C753 C752 1.391 . S
C753 C757 1.376 . S
C754 C752 1.394 . S
C754 C755 1.369 . S
C754 C758 1.531 . S
C755 C754 1.369 . S
C755 C756 1.410 . S
C755 C763 1.503 . S
C756 C755 1.410 . S
C756 C757 1.392 . S
C756 C759 1.511 . S
C757 C753 1.376 . S
C757 C756 1.392 . S
C757 H769 0.929 . S
C758 C754 1.531 . S
C758 H770 0.960 . S
C758 H771 0.962 . S
C758 H772 0.960 . S
C759 C756 1.511 . S
C759 H773 0.961 . S
C759 H774 0.961 . S
C759 H775 0.961 . S
C760 C761 1.370 . S
C760 C762 1.363 . S
C760 H776 0.931 . S
C761 C760 1.370 . S
C761 C765 1.408 . S
C762 C760 1.363 . S
C762 C763 1.370 . S
C762 C766 1.524 . S
C763 C755 1.503 . S
C763 C762 1.370 . S
C763 C764 1.403 . S
C764 C763 1.403 . S
C764 C765 1.404 . S
C764 C767 1.539 . S
C765 C761 1.408 . S
C765 C764 1.404 . S
C765 H777 0.930 . S
C766 C762 1.524 . S
C766 H778 0.956 . S
C766 H779 0.961 . S
C766 H780 0.961 . S
C767 C764 1.539 . S
C767 H781 0.958 . S
C767 H782 0.961 . S
C767 H783 0.960 . S
H768 C752 0.931 . S
H769 C757 0.929 . S
H770 C758 0.960 . S
H771 C758 0.962 . S
H772 C758 0.960 . S
H773 C759 0.961 . S
H774 C759 0.961 . S
H775 C759 0.961 . S
H776 C760 0.931 . S
H777 C765 0.930 . S
H778 C766 0.956 . S
H779 C766 0.961 . S
H780 C766 0.961 . S
H781 C767 0.958 . S
H782 C767 0.961 . S
H783 C767 0.960 . S
C784 C785 1.391 . S
C784 C786 1.387 1_455 S
C784 H800 0.931 . S
C785 C784 1.391 . S
C785 C789 1.376 . S
C786 C784 1.387 1_655 S
C786 C787 1.363 1_655 S
C786 C790 1.544 . S
C787 C786 1.363 1_455 S
C787 C788 1.410 . S
C787 C795 1.503 1_465 S
C788 C787 1.410 . S
C788 C789 1.392 . S
C788 C791 1.511 1_565 S
C789 C785 1.376 . S
C789 C788 1.392 . S
C789 H801 0.929 . S
C790 C786 1.544 . S
C790 H802 0.960 . S
C790 H803 0.962 . S
C790 H804 0.960 . S
C791 C788 1.511 1_545 S
C791 H805 0.961 . S
C791 H806 0.961 . S
C791 H807 0.961 . S
C792 C793 1.370 . S
C792 C794 1.363 . S
C792 H808 0.931 . S
C793 C792 1.370 . S
C793 C797 1.408 . S
C794 C792 1.363 . S
C794 C795 1.370 . S
C794 C798 1.524 . S
C795 C787 1.503 1_645 S
C795 C794 1.370 . S
C795 C796 1.401 1_655 S
C796 C795 1.401 1_455 S
C796 C797 1.399 1_455 S
C796 C799 1.546 1_545 S
C797 C793 1.408 . S
C797 C796 1.399 1_655 S
C797 H809 0.930 . S
C798 C794 1.524 . S
C798 H810 0.956 . S
C798 H811 0.961 . S
C798 H812 0.961 . S
C799 C796 1.546 1_565 S
C799 H813 0.958 . S
C799 H814 0.961 1_565 S
C799 H815 0.960 . S
H800 C784 0.931 . S
H801 C789 0.929 . S
H802 C790 0.960 . S
H803 C790 0.962 . S
H804 C790 0.960 . S
H805 C791 0.961 . S
H806 C791 0.961 . S
H807 C791 0.961 . S
H808 C792 0.931 . S
H809 C797 0.930 . S
H810 C798 0.956 . S
H811 C798 0.961 . S
H812 C798 0.961 . S
H813 C799 0.958 . S
H814 C799 0.961 1_545 S
H815 C799 0.960 . S
C816 C817 1.391 . S
C816 C818 1.394 1_545 S
C816 H832 0.931 . S
C817 C816 1.391 . S
C817 C821 1.376 . S
C818 C816 1.394 1_565 S
C818 C819 1.369 1_565 S
C818 C822 1.531 . S
C819 C818 1.369 1_545 S
C819 C820 1.410 . S
C819 C827 1.503 1_545 S
C820 C819 1.410 . S
C820 C821 1.392 . S
C820 C823 1.511 . S
C821 C817 1.376 . S
C821 C820 1.392 . S
C821 H833 0.929 . S
C822 C818 1.531 . S
C822 H834 0.960 . S
C822 H835 0.962 . S
C822 H836 0.960 . S
C823 C820 1.511 . S
C823 H837 0.961 . S
C823 H838 0.961 . S
C823 H839 0.961 . S
C824 C825 1.370 . S
C824 C826 1.363 . S
C824 H840 0.931 . S
C825 C824 1.370 . S
C825 C829 1.408 . S
C826 C824 1.363 . S
C826 C827 1.370 . S
C826 C830 1.524 1_565 S
C827 C819 1.503 1_565 S
C827 C826 1.370 . S
C827 C828 1.403 . S
C828 C827 1.403 . S
C828 C829 1.404 . S
C828 C831 1.539 . S
C829 C825 1.408 . S
C829 C828 1.404 . S
C829 H841 0.930 . S
C830 C826 1.524 1_545 S
C830 H842 0.956 . S
C830 H843 0.961 . S
C830 H844 0.961 . S
C831 C828 1.539 . S
C831 H845 0.958 . S
C831 H846 0.961 . S
C831 H847 0.960 . S
H832 C816 0.931 . S
H833 C821 0.929 . S
H834 C822 0.960 . S
H835 C822 0.962 . S
H836 C822 0.960 . S
H837 C823 0.961 . S
H838 C823 0.961 . S
H839 C823 0.961 . S
H840 C824 0.931 . S
H841 C829 0.930 . S
H842 C830 0.956 . S
H843 C830 0.961 . S
H844 C830 0.961 . S
H845 C831 0.958 . S
H846 C831 0.961 . S
H847 C831 0.960 . S
C848 C849 1.391 . S
C848 C850 1.394 . S
C848 H864 0.931 . S
C849 C848 1.391 . S
C849 C853 1.376 . S
C850 C848 1.394 . S
C850 C851 1.369 . S
C850 C854 1.531 . S
C851 C850 1.369 . S
C851 C852 1.410 . S
C851 C859 1.503 . S
C852 C851 1.410 . S
C852 C853 1.392 . S
C852 C855 1.511 . S
C853 C849 1.376 . S
C853 C852 1.392 . S
C853 H865 0.929 . S
C854 C850 1.531 . S
C854 H866 0.960 . S
C854 H867 0.962 . S
C854 H868 0.960 . S
C855 C852 1.511 . S
C855 H869 0.961 . S
C855 H870 0.961 . S
C855 H871 0.961 . S
C856 C857 1.370 . S
C856 C858 1.363 . S
C856 H872 0.931 . S
C857 C856 1.370 . S
C857 C861 1.408 . S
C858 C856 1.363 . S
C858 C859 1.370 . S
C858 C862 1.524 . S
C859 C851 1.503 . S
C859 C858 1.370 . S
C859 C860 1.403 . S
C860 C859 1.403 . S
C860 C861 1.404 . S
C860 C863 1.539 . S
C861 C857 1.408 . S
C861 C860 1.404 . S
C861 H873 0.930 . S
C862 C858 1.524 . S
C862 H874 0.956 . S
C862 H875 0.961 . S
C862 H876 0.961 . S
C863 C860 1.539 . S
C863 H877 0.958 . S
C863 H878 0.961 . S
C863 H879 0.960 . S
H864 C848 0.931 . S
H865 C853 0.929 . S
H866 C854 0.960 . S
H867 C854 0.962 . S
H868 C854 0.960 . S
H869 C855 0.961 . S
H870 C855 0.961 . S
H871 C855 0.961 . S
H872 C856 0.931 . S
H873 C861 0.930 . S
H874 C862 0.956 . S
H875 C862 0.961 . S
H876 C862 0.961 . S
H877 C863 0.958 . S
H878 C863 0.961 . S
H879 C863 0.960 . S
C880 C881 1.391 . S
C880 C882 1.394 . S
C880 H896 0.931 . S
C881 C880 1.391 . S
C881 C885 1.376 . S
C882 C880 1.394 . S
C882 C883 1.369 . S
C882 C886 1.531 . S
C883 C882 1.369 . S
C883 C884 1.410 . S
C883 C891 1.503 1_655 S
C884 C883 1.410 . S
C884 C885 1.392 . S
C884 C887 1.511 1_655 S
C885 C881 1.376 . S
C885 C884 1.392 . S
C885 H897 0.929 . S
C886 C882 1.531 . S
C886 H898 0.960 . S
C886 H899 0.962 . S
C886 H900 0.960 . S
C887 C884 1.511 1_455 S
C887 H901 0.961 . S
C887 H902 0.961 . S
C887 H903 0.961 . S
C888 C889 1.370 . S
C888 C890 1.363 . S
C888 H904 0.931 . S
C889 C888 1.370 . S
C889 C893 1.408 . S
C890 C888 1.363 . S
C890 C891 1.370 . S
C890 C894 1.524 . S
C891 C883 1.503 1_455 S
C891 C890 1.370 . S
C891 C892 1.403 . S
C892 C891 1.403 . S
C892 C893 1.404 . S
C892 C895 1.539 1_455 S
C893 C889 1.408 . S
C893 C892 1.404 . S
C893 H905 0.930 . S
C894 C890 1.524 . S
C894 H906 0.956 . S
C894 H907 0.961 . S
C894 H908 0.961 . S
C895 C892 1.539 1_655 S
C895 H909 0.958 . S
C895 H910 0.961 1_655 S
C895 H911 0.960 . S
H896 C880 0.931 . S
H897 C885 0.929 . S
H898 C886 0.960 . S
H899 C886 0.962 . S
H900 C886 0.960 . S
H901 C887 0.961 . S
H902 C887 0.961 . S
H903 C887 0.961 . S
H904 C888 0.931 . S
H905 C893 0.930 . S
H906 C894 0.956 . S
H907 C894 0.961 . S
H908 C894 0.961 . S
H909 C895 0.958 . S
H910 C895 0.961 1_455 S
H911 C895 0.960 . S
C912 C913 1.391 . S
C912 C914 1.394 1_655 S
C912 H928 0.931 1_655 S
C913 C912 1.391 . S
C913 C917 1.376 . S
C914 C912 1.394 1_455 S
C914 C915 1.369 1_455 S
C914 C918 1.531 . S
C915 C914 1.369 1_655 S
C915 C916 1.410 . S
C915 C923 1.503 1_656 S
C916 C915 1.410 . S
C916 C917 1.392 . S
C916 C919 1.511 . S
C917 C913 1.376 . S
C917 C916 1.392 . S
C917 H929 0.929 . S
C918 C914 1.531 . S
C918 H930 0.960 . S
C918 H931 0.962 . S
C918 H932 0.960 . S
C919 C916 1.511 . S
C919 H933 0.961 . S
C919 H934 0.961 1_556 S
C919 H935 0.961 . S
C920 C921 1.370 . S
C920 C922 1.363 . S
C920 H936 0.931 . S
C921 C920 1.370 . S
C921 C925 1.408 . S
C922 C920 1.363 . S
C922 C923 1.370 . S
C922 C926 1.524 1_455 S
C923 C915 1.503 1_454 S
C923 C922 1.370 . S
C923 C924 1.403 1_554 S
C924 C923 1.403 1_556 S
C924 C925 1.404 1_556 S
C924 C927 1.539 . S
C925 C921 1.408 . S
C925 C924 1.404 1_554 S
C925 H937 0.930 . S
C926 C922 1.524 1_655 S
C926 H938 0.956 1_655 S
C926 H939 0.961 . S
C926 H940 0.961 . S
C927 C924 1.539 . S
C927 H941 0.958 . S
C927 H942 0.961 . S
C927 H943 0.960 . S
H928 C912 0.931 1_455 S
H929 C917 0.929 . S
H930 C918 0.960 . S
H931 C918 0.962 . S
H932 C918 0.960 . S
H933 C919 0.961 . S
H934 C919 0.961 1_554 S
H935 C919 0.961 . S
H936 C920 0.931 . S
H937 C925 0.930 . S
H938 C926 0.956 1_455 S
H939 C926 0.961 . S
H940 C926 0.961 . S
H941 C927 0.958 . S
H942 C927 0.961 . S
H943 C927 0.960 . S
C944 C945 1.391 . S
C944 C946 1.394 1_556 S
C944 H960 0.931 . S
C945 C944 1.391 . S
C945 C949 1.376 . S
C946 C944 1.394 1_554 S
C946 C947 1.369 1_554 S
C946 C950 1.531 1_565 S
C947 C946 1.369 1_556 S
C947 C948 1.410 . S
C947 C955 1.503 1_466 S
C948 C947 1.410 . S
C948 C949 1.392 . S
C948 C951 1.511 1_455 S
C949 C945 1.376 . S
C949 C948 1.392 . S
C949 H961 0.929 . S
C950 C946 1.531 1_545 S
C950 H962 0.960 . S
C950 H963 0.962 1_545 S
C950 H964 0.960 . S
C951 C948 1.511 1_655 S
C951 H965 0.961 . S
C951 H966 0.961 . S
C951 H967 0.961 1_565 S
C952 C953 1.370 . S
C952 C954 1.363 1_545 S
C952 H968 0.931 1_545 S
C953 C952 1.370 . S
C953 C957 1.408 . S
C954 C952 1.363 1_565 S
C954 C955 1.370 1_565 S
C954 C958 1.524 . S
C955 C947 1.503 1_644 S
C955 C954 1.370 1_545 S
C955 C956 1.403 . S
C956 C955 1.403 . S
C956 C957 1.404 . S
C956 C959 1.539 1_654 S
C957 C953 1.408 . S
C957 C956 1.404 . S
C957 H969 0.930 . S
C958 C954 1.524 . S
C958 H970 0.956 . S
C958 H971 0.961 . S
C958 H972 0.961 . S
C959 C956 1.539 1_456 S
C959 H973 0.956 . S
C959 H974 0.961 1_455 S
C959 H975 0.960 . S
H960 C944 0.931 . S
H961 C949 0.929 . S
H962 C950 0.960 . S
H963 C950 0.962 1_565 S
H964 C950 0.960 . S
H965 C951 0.961 . S
H966 C951 0.961 . S
H967 C951 0.961 1_545 S
H968 C952 0.931 1_565 S
H969 C957 0.930 . S
H970 C958 0.956 . S
H971 C958 0.961 . S
H972 C958 0.961 . S
H973 C959 0.956 . S
H974 C959 0.961 1_655 S
H975 C959 0.960 . S
C976 C977 1.391 . S
C976 C978 1.394 . S
C976 H992 0.931 . S
C977 C976 1.391 . S
C977 C981 1.376 . S
C978 C976 1.394 . S
C978 C979 1.369 . S
C978 C982 1.531 1_545 S
C979 C978 1.369 . S
C979 C980 1.410 . S
C979 C987 1.503 1_546 S
C980 C979 1.410 . S
C980 C981 1.392 . S
C980 C983 1.511 1_556 S
C981 C977 1.376 . S
C981 C980 1.392 . S
C981 H993 0.929 . S
C982 C978 1.531 1_565 S
C982 H994 0.960 1_556 S
C982 H995 0.962 . S
C982 H996 0.960 . S
C983 C980 1.511 1_554 S
C983 H997 0.961 1_554 S
C983 H998 0.961 . S
C983 H999 0.961 . S
C984 C985 1.370 . S
C984 C986 1.363 1_554 S
C984 H1000 0.931 . S
C985 C984 1.370 . S
C985 C989 1.408 . S
C986 C984 1.363 1_556 S
C986 C987 1.370 1_556 S
C986 C990 1.524 . S
C987 C979 1.503 1_564 S
C987 C986 1.370 1_554 S
C987 C988 1.403 . S
C988 C987 1.403 . S
C988 C989 1.404 . S
C988 C991 1.539 1_565 S
C989 C985 1.408 . S
C989 C988 1.404 . S
C989 H1001 0.930 . S
C990 C986 1.524 . S
C990 H1002 0.956 . S
C990 H1003 0.961 . S
C990 H1004 0.961 . S
C991 C988 1.539 1_545 S
C991 H1005 0.958 . S
C991 H1006 0.961 . S
C991 H1007 0.960 . S
H992 C976 0.931 . S
H993 C981 0.929 . S
H994 C982 0.960 1_554 S
H995 C982 0.962 . S
H996 C982 0.960 . S
H997 C983 0.961 1_556 S
H998 C983 0.961 . S
H999 C983 0.961 . S
H1000 C984 0.931 . S
H1001 C989 0.930 . S
H1002 C990 0.956 . S
H1003 C990 0.961 . S
H1004 C990 0.961 . S
H1005 C991 0.958 . S
H1006 C991 0.961 . S
H1007 C991 0.960 . S
C1008 C1009 1.391 . S
C1008 C1010 1.394 . S
C1008 H1024 0.931 . S
C1009 C1008 1.391 . S
C1009 C1013 1.376 . S
C1010 C1008 1.394 . S
C1010 C1011 1.369 . S
C1010 C1014 1.531 1_556 S
C1011 C1010 1.369 . S
C1011 C1012 1.410 . S
C1011 C1019 1.503 1_556 S
C1012 C1011 1.410 . S
C1012 C1013 1.392 . S
C1012 C1015 1.511 . S
C1013 C1009 1.376 . S
C1013 C1012 1.392 . S
C1013 H1025 0.929 . S
C1014 C1010 1.531 1_554 S
C1014 H1026 0.960 . S
C1014 H1027 0.962 1_554 S
C1014 H1028 0.960 . S
C1015 C1012 1.511 . S
C1015 H1029 0.961 . S
C1015 H1030 0.961 . S
C1015 H1031 0.961 1_556 S
C1016 C1017 1.370 . S
C1016 C1018 1.363 1_554 S
C1016 H1032 0.931 . S
C1017 C1016 1.370 . S
C1017 C1021 1.408 . S
C1018 C1016 1.363 1_556 S
C1018 C1019 1.370 1_556 S
C1018 C1022 1.524 . S
C1019 C1011 1.503 1_554 S
C1019 C1018 1.370 1_554 S
C1019 C1020 1.403 . S
C1020 C1019 1.403 . S
C1020 C1021 1.404 . S
C1020 C1023 1.539 . S
C1021 C1017 1.408 . S
C1021 C1020 1.404 . S
C1021 H1033 0.930 . S
C1022 C1018 1.524 . S
C1022 H1034 0.956 . S
C1022 H1035 0.961 . S
C1022 H1036 0.961 . S
C1023 C1020 1.539 . S
C1023 H1037 0.958 . S
C1023 H1038 0.961 . S
C1023 H1039 0.960 . S
H1024 C1008 0.931 . S
H1025 C1013 0.929 . S
H1026 C1014 0.960 . S
H1027 C1014 0.962 1_556 S
H1028 C1014 0.960 . S
H1029 C1015 0.961 . S
H1030 C1015 0.961 . S
H1031 C1015 0.961 1_554 S
H1032 C1016 0.931 . S
H1033 C1021 0.930 . S
H1034 C1022 0.956 . S
H1035 C1022 0.961 . S
H1036 C1022 0.961 . S
H1037 C1023 0.958 . S
H1038 C1023 0.961 . S
H1039 C1023 0.960 . S
C1040 C1041 1.391 . S
C1040 C1042 1.394 . S
C1040 H1056 0.931 . S
C1041 C1040 1.391 . S
C1041 C1045 1.376 . S
C1042 C1040 1.394 . S
C1042 C1043 1.369 . S
C1042 C1046 1.531 . S
C1043 C1042 1.369 . S
C1043 C1044 1.410 . S
C1043 C1051 1.503 . S
C1044 C1043 1.410 . S
C1044 C1045 1.392 . S
C1044 C1047 1.511 . S
C1045 C1041 1.376 . S
C1045 C1044 1.392 . S
C1045 H1057 0.929 . S
C1046 C1042 1.531 . S
C1046 H1058 0.960 . S
C1046 H1059 0.962 . S
C1046 H1060 0.960 . S
C1047 C1044 1.511 . S
C1047 H1061 0.961 . S
C1047 H1062 0.961 . S
C1047 H1063 0.961 . S
C1048 C1049 1.370 . S
C1048 C1050 1.363 . S
C1048 H1064 0.931 . S
C1049 C1048 1.370 . S
C1049 C1053 1.408 . S
C1050 C1048 1.363 . S
C1050 C1051 1.370 . S
C1050 C1054 1.524 . S
C1051 C1043 1.503 . S
C1051 C1050 1.370 . S
C1051 C1052 1.403 . S
C1052 C1051 1.403 . S
C1052 C1053 1.404 . S
C1052 C1055 1.539 . S
C1053 C1049 1.408 . S
C1053 C1052 1.404 . S
C1053 H1065 0.930 . S
C1054 C1050 1.524 . S
C1054 H1066 0.956 . S
C1054 H1067 0.961 . S
C1054 H1068 0.961 . S
C1055 C1052 1.539 . S
C1055 H1069 0.958 . S
C1055 H1070 0.961 . S
C1055 H1071 0.960 . S
H1056 C1040 0.931 . S
H1057 C1045 0.929 . S
H1058 C1046 0.960 . S
H1059 C1046 0.962 . S
H1060 C1046 0.960 . S
H1061 C1047 0.961 . S
H1062 C1047 0.961 . S
H1063 C1047 0.961 . S
H1064 C1048 0.931 . S
H1065 C1053 0.930 . S
H1066 C1054 0.956 . S
H1067 C1054 0.961 . S
H1068 C1054 0.961 . S
H1069 C1055 0.958 . S
H1070 C1055 0.961 . S
H1071 C1055 0.960 . S
C1072 C1073 1.391 . S
C1072 C1074 1.394 . S
C1072 H1088 0.931 . S
C1073 C1072 1.391 . S
C1073 C1077 1.376 . S
C1074 C1072 1.394 . S
C1074 C1075 1.369 . S
C1074 C1078 1.531 . S
C1075 C1074 1.369 . S
C1075 C1076 1.410 . S
C1075 C1083 1.503 . S
C1076 C1075 1.410 . S
C1076 C1077 1.392 . S
C1076 C1079 1.511 . S
C1077 C1073 1.376 . S
C1077 C1076 1.392 . S
C1077 H1089 0.929 . S
C1078 C1074 1.531 . S
C1078 H1090 0.960 . S
C1078 H1091 0.962 . S
C1078 H1092 0.960 . S
C1079 C1076 1.511 . S
C1079 H1093 0.961 . S
C1079 H1094 0.961 . S
C1079 H1095 0.961 . S
C1080 C1081 1.370 . S
C1080 C1082 1.363 . S
C1080 H1096 0.931 . S
C1081 C1080 1.370 . S
C1081 C1085 1.408 . S
C1082 C1080 1.363 . S
C1082 C1083 1.370 . S
C1082 C1086 1.524 . S
C1083 C1075 1.503 . S
C1083 C1082 1.370 . S
C1083 C1084 1.403 . S
C1084 C1083 1.403 . S
C1084 C1085 1.404 . S
C1084 C1087 1.539 . S
C1085 C1081 1.408 . S
C1085 C1084 1.404 . S
C1085 H1097 0.930 . S
C1086 C1082 1.524 . S
C1086 H1098 0.956 . S
C1086 H1099 0.961 . S
C1086 H1100 0.961 . S
C1087 C1084 1.539 . S
C1087 H1101 0.958 . S
C1087 H1102 0.961 . S
C1087 H1103 0.960 . S
H1088 C1072 0.931 . S
H1089 C1077 0.929 . S
H1090 C1078 0.960 . S
H1091 C1078 0.962 . S
H1092 C1078 0.960 . S
H1093 C1079 0.961 . S
H1094 C1079 0.961 . S
H1095 C1079 0.961 . S
H1096 C1080 0.931 . S
H1097 C1085 0.930 . S
H1098 C1086 0.956 . S
H1099 C1086 0.961 . S
H1100 C1086 0.961 . S
H1101 C1087 0.958 . S
H1102 C1087 0.961 . S
H1103 C1087 0.960 . S
C1104 C1105 1.391 . S
C1104 C1106 1.394 . S
C1104 H1120 0.931 . S
C1105 C1104 1.391 . S
C1105 C1109 1.376 . S
C1106 C1104 1.394 . S
C1106 C1107 1.369 . S
C1106 C1110 1.531 . S
C1107 C1106 1.369 . S
C1107 C1108 1.410 . S
C1107 C1115 1.503 . S
C1108 C1107 1.410 . S
C1108 C1109 1.392 . S
C1108 C1111 1.511 . S
C1109 C1105 1.376 . S
C1109 C1108 1.392 . S
C1109 H1121 0.929 . S
C1110 C1106 1.531 . S
C1110 H1122 0.960 . S
C1110 H1123 0.962 . S
C1110 H1124 0.960 . S
C1111 C1108 1.511 . S
C1111 H1125 0.961 . S
C1111 H1126 0.961 . S
C1111 H1127 0.961 . S
C1112 C1113 1.370 . S
C1112 C1114 1.363 . S
C1112 H1128 0.931 . S
C1113 C1112 1.370 . S
C1113 C1117 1.408 . S
C1114 C1112 1.363 . S
C1114 C1115 1.370 . S
C1114 C1118 1.524 . S
C1115 C1107 1.503 . S
C1115 C1114 1.370 . S
C1115 C1116 1.403 . S
C1116 C1115 1.403 . S
C1116 C1117 1.404 . S
C1116 C1119 1.539 . S
C1117 C1113 1.408 . S
C1117 C1116 1.404 . S
C1117 H1129 0.930 . S
C1118 C1114 1.524 . S
C1118 H1130 0.956 . S
C1118 H1131 0.961 . S
C1118 H1132 0.961 . S
C1119 C1116 1.539 . S
C1119 H1133 0.958 . S
C1119 H1134 0.961 . S
C1119 H1135 0.960 . S
H1120 C1104 0.931 . S
H1121 C1109 0.929 . S
H1122 C1110 0.960 . S
H1123 C1110 0.962 . S
H1124 C1110 0.960 . S
H1125 C1111 0.961 . S
H1126 C1111 0.961 . S
H1127 C1111 0.961 . S
H1128 C1112 0.931 . S
H1129 C1117 0.930 . S
H1130 C1118 0.956 . S
H1131 C1118 0.961 . S
H1132 C1118 0.961 . S
H1133 C1119 0.958 . S
H1134 C1119 0.961 . S
H1135 C1119 0.960 . S
C1136 C1137 1.391 . S
C1136 C1138 1.394 . S
C1136 H1152 0.931 . S
C1137 C1136 1.391 . S
C1137 C1141 1.376 . S
C1138 C1136 1.394 . S
C1138 C1139 1.369 . S
C1138 C1142 1.531 . S
C1139 C1138 1.369 . S
C1139 C1140 1.410 . S
C1139 C1147 1.503 . S
C1140 C1139 1.410 . S
C1140 C1141 1.392 . S
C1140 C1143 1.511 . S
C1141 C1137 1.376 . S
C1141 C1140 1.392 . S
C1141 H1153 0.929 . S
C1142 C1138 1.531 . S
C1142 H1154 0.960 . S
C1142 H1155 0.962 . S
C1142 H1156 0.960 . S
C1143 C1140 1.511 . S
C1143 H1157 0.961 . S
C1143 H1158 0.961 . S
C1143 H1159 0.961 . S
C1144 C1145 1.370 . S
C1144 C1146 1.363 . S
C1144 H1160 0.931 . S
C1145 C1144 1.370 . S
C1145 C1149 1.408 . S
C1146 C1144 1.363 . S
C1146 C1147 1.370 . S
C1146 C1150 1.524 . S
C1147 C1139 1.503 . S
C1147 C1146 1.370 . S
C1147 C1148 1.403 . S
C1148 C1147 1.403 . S
C1148 C1149 1.404 . S
C1148 C1151 1.539 . S
C1149 C1145 1.408 . S
C1149 C1148 1.404 . S
C1149 H1161 0.930 . S
C1150 C1146 1.524 . S
C1150 H1162 0.956 . S
C1150 H1163 0.961 . S
C1150 H1164 0.961 . S
C1151 C1148 1.539 . S
C1151 H1165 0.958 . S
C1151 H1166 0.961 . S
C1151 H1167 0.960 . S
H1152 C1136 0.931 . S
H1153 C1141 0.929 . S
H1154 C1142 0.960 . S
H1155 C1142 0.962 . S
H1156 C1142 0.960 . S
H1157 C1143 0.961 . S
H1158 C1143 0.961 . S
H1159 C1143 0.961 . S
H1160 C1144 0.931 . S
H1161 C1149 0.930 . S
H1162 C1150 0.956 . S
H1163 C1150 0.961 . S
H1164 C1150 0.961 . S
H1165 C1151 0.958 . S
H1166 C1151 0.961 . S
H1167 C1151 0.960 . S
C1168 C1169 1.391 . S
C1168 C1170 1.394 . S
C1168 H1184 0.931 . S
C1169 C1168 1.391 . S
C1169 C1173 1.376 . S
C1170 C1168 1.394 . S
C1170 C1171 1.369 . S
C1170 C1174 1.531 . S
C1171 C1170 1.369 . S
C1171 C1172 1.410 . S
C1171 C1179 1.503 . S
C1172 C1171 1.410 . S
C1172 C1173 1.392 . S
C1172 C1175 1.511 . S
C1173 C1169 1.376 . S
C1173 C1172 1.392 . S
C1173 H1185 0.929 . S
C1174 C1170 1.531 . S
C1174 H1186 0.960 . S
C1174 H1187 0.962 . S
C1174 H1188 0.960 . S
C1175 C1172 1.511 . S
C1175 H1189 0.961 . S
C1175 H1190 0.961 . S
C1175 H1191 0.961 . S
C1176 C1177 1.370 . S
C1176 C1178 1.363 . S
C1176 H1192 0.931 . S
C1177 C1176 1.370 . S
C1177 C1181 1.408 . S
C1178 C1176 1.363 . S
C1178 C1179 1.370 . S
C1178 C1182 1.524 . S
C1179 C1171 1.503 . S
C1179 C1178 1.370 . S
C1179 C1180 1.403 . S
C1180 C1179 1.403 . S
C1180 C1181 1.404 . S
C1180 C1183 1.539 . S
C1181 C1177 1.408 . S
C1181 C1180 1.404 . S
C1181 H1193 0.930 . S
C1182 C1178 1.524 . S
C1182 H1194 0.956 . S
C1182 H1195 0.961 . S
C1182 H1196 0.961 . S
C1183 C1180 1.539 . S
C1183 H1197 0.958 . S
C1183 H1198 0.961 . S
C1183 H1199 0.960 . S
H1184 C1168 0.931 . S
H1185 C1173 0.929 . S
H1186 C1174 0.960 . S
H1187 C1174 0.962 . S
H1188 C1174 0.960 . S
H1189 C1175 0.961 . S
H1190 C1175 0.961 . S
H1191 C1175 0.961 . S
H1192 C1176 0.931 . S
H1193 C1181 0.930 . S
H1194 C1182 0.956 . S
H1195 C1182 0.961 . S
H1196 C1182 0.961 . S
H1197 C1183 0.958 . S
H1198 C1183 0.961 . S
H1199 C1183 0.960 . S
C1200 C1201 1.391 . S
C1200 C1202 1.394 . S
C1200 H1216 0.931 . S
C1201 C1200 1.391 . S
C1201 C1205 1.376 . S
C1202 C1200 1.394 . S
C1202 C1203 1.369 . S
C1202 C1206 1.531 . S
C1203 C1202 1.369 . S
C1203 C1204 1.410 . S
C1203 C1211 1.503 . S
C1204 C1203 1.410 . S
C1204 C1205 1.392 . S
C1204 C1207 1.511 . S
C1205 C1201 1.376 . S
C1205 C1204 1.392 . S
C1205 H1217 0.929 . S
C1206 C1202 1.531 . S
C1206 H1218 0.960 . S
C1206 H1219 0.962 . S
C1206 H1220 0.958 1_545 S
C1207 C1204 1.511 . S
C1207 H1221 0.961 . S
C1207 H1222 0.961 . S
C1207 H1223 0.961 . S
C1208 C1209 1.370 . S
C1208 C1210 1.363 . S
C1208 H1224 0.931 . S
C1209 C1208 1.370 . S
C1209 C1213 1.408 . S
C1210 C1208 1.363 . S
C1210 C1211 1.370 . S
C1210 C1214 1.524 . S
C1211 C1203 1.503 . S
C1211 C1210 1.370 . S
C1211 C1212 1.403 . S
C1212 C1211 1.403 . S
C1212 C1213 1.404 . S
C1212 C1215 1.539 . S
C1213 C1209 1.408 . S
C1213 C1212 1.404 . S
C1213 H1225 0.930 . S
C1214 C1210 1.524 . S
C1214 H1226 0.956 . S
C1214 H1227 0.961 . S
C1214 H1228 0.961 . S
C1215 C1212 1.539 . S
C1215 H1229 0.958 . S
C1215 H1230 0.961 . S
C1215 H1231 0.960 . S
H1216 C1200 0.931 . S
H1217 C1205 0.929 . S
H1218 C1206 0.960 . S
H1219 C1206 0.962 . S
H1220 C1206 0.958 1_565 S
H1221 C1207 0.961 . S
H1222 C1207 0.961 . S
H1223 C1207 0.961 . S
H1224 C1208 0.931 . S
H1225 C1213 0.930 . S
H1226 C1214 0.956 . S
H1227 C1214 0.961 . S
H1228 C1214 0.961 . S
H1229 C1215 0.958 . S
H1230 C1215 0.961 . S
H1231 C1215 0.960 . S
C1232 C1233 1.391 . S
C1232 C1234 1.394 . S
C1232 H1248 0.931 . S
C1233 C1232 1.391 . S
C1233 C1237 1.376 . S
C1234 C1232 1.394 . S
C1234 C1235 1.369 . S
C1234 C1238 1.531 . S
C1235 C1234 1.369 . S
C1235 C1236 1.410 . S
C1235 C1243 1.503 . S
C1236 C1235 1.410 . S
C1236 C1237 1.392 . S
C1236 C1239 1.511 . S
C1237 C1233 1.376 . S
C1237 C1236 1.392 . S
C1237 H1249 0.929 . S
C1238 C1234 1.531 . S
C1238 H1250 0.960 . S
C1238 H1251 0.962 . S
C1238 H1252 0.960 . S
C1239 C1236 1.511 . S
C1239 H1253 0.961 . S
C1239 H1254 0.961 . S
C1239 H1255 0.961 . S
C1240 C1241 1.370 . S
C1240 C1242 1.363 . S
C1240 H1256 0.931 . S
C1241 C1240 1.370 . S
C1241 C1245 1.408 . S
C1242 C1240 1.363 . S
C1242 C1243 1.370 . S
C1242 C1246 1.524 . S
C1243 C1235 1.503 . S
C1243 C1242 1.370 . S
C1243 C1244 1.403 . S
C1244 C1243 1.403 . S
C1244 C1245 1.404 . S
C1244 C1247 1.539 . S
C1245 C1241 1.408 . S
C1245 C1244 1.404 . S
C1245 H1257 0.930 . S
C1246 C1242 1.524 . S
C1246 H1258 0.956 . S
C1246 H1259 0.961 . S
C1246 H1260 0.961 . S
C1247 C1244 1.539 . S
C1247 H1261 0.958 . S
C1247 H1262 0.961 . S
C1247 H1263 0.960 . S
H1248 C1232 0.931 . S
H1249 C1237 0.929 . S
H1250 C1238 0.960 . S
H1251 C1238 0.962 . S
H1252 C1238 0.960 . S
H1253 C1239 0.961 . S
H1254 C1239 0.961 . S
H1255 C1239 0.961 . S
H1256 C1240 0.931 . S
H1257 C1245 0.930 . S
H1258 C1246 0.956 . S
H1259 C1246 0.961 . S
H1260 C1246 0.961 . S
H1261 C1247 0.958 . S
H1262 C1247 0.961 . S
H1263 C1247 0.960 . S
C1264 C1265 1.391 . S
C1264 C1266 1.394 . S
C1264 H1280 0.931 . S
C1265 C1264 1.391 . S
C1265 C1269 1.376 . S
C1266 C1264 1.394 . S
C1266 C1267 1.369 . S
C1266 C1270 1.531 . S
C1267 C1266 1.369 . S
C1267 C1268 1.410 . S
C1267 C1275 1.503 . S
C1268 C1267 1.410 . S
C1268 C1269 1.392 . S
C1268 C1271 1.511 . S
C1269 C1265 1.376 . S
C1269 C1268 1.392 . S
C1269 H1281 0.929 . S
C1270 C1266 1.531 . S
C1270 H1282 0.960 . S
C1270 H1283 0.962 . S
C1270 H1284 0.960 . S
C1271 C1268 1.511 . S
C1271 H1285 0.961 . S
C1271 H1286 0.961 . S
C1271 H1287 0.961 . S
C1272 C1273 1.370 . S
C1272 C1274 1.363 . S
C1272 H1288 0.931 . S
C1273 C1272 1.370 . S
C1273 C1277 1.408 . S
C1274 C1272 1.363 . S
C1274 C1275 1.370 . S
C1274 C1278 1.524 . S
C1275 C1267 1.503 . S
C1275 C1274 1.370 . S
C1275 C1276 1.403 . S
C1276 C1275 1.403 . S
C1276 C1277 1.404 . S
C1276 C1279 1.539 . S
C1277 C1273 1.408 . S
C1277 C1276 1.404 . S
C1277 H1289 0.930 . S
C1278 C1274 1.524 . S
C1278 H1290 0.956 . S
C1278 H1291 0.961 . S
C1278 H1292 0.961 . S
C1279 C1276 1.539 . S
C1279 H1293 0.958 . S
C1279 H1294 0.961 . S
C1279 H1295 0.960 . S
H1280 C1264 0.931 . S
H1281 C1269 0.929 . S
H1282 C1270 0.960 . S
H1283 C1270 0.962 . S
H1284 C1270 0.960 . S
H1285 C1271 0.961 . S
H1286 C1271 0.961 . S
H1287 C1271 0.961 . S
H1288 C1272 0.931 . S
H1289 C1277 0.930 . S
H1290 C1278 0.956 . S
H1291 C1278 0.961 . S
H1292 C1278 0.961 . S
H1293 C1279 0.958 . S
H1294 C1279 0.961 . S
H1295 C1279 0.960 . S
C1296 C1297 1.391 . S
C1296 C1298 1.394 . S
C1296 H1312 0.931 . S
C1297 C1296 1.391 . S
C1297 C1301 1.376 . S
C1298 C1296 1.394 . S
C1298 C1299 1.369 . S
C1298 C1302 1.531 . S
C1299 C1298 1.369 . S
C1299 C1300 1.410 . S
C1299 C1307 1.503 . S
C1300 C1299 1.410 . S
C1300 C1301 1.392 . S
C1300 C1303 1.511 . S
C1301 C1297 1.376 . S
C1301 C1300 1.392 . S
C1301 H1313 0.929 . S
C1302 C1298 1.531 . S
C1302 H1314 0.960 . S
C1302 H1315 0.962 . S
C1302 H1316 0.960 . S
C1303 C1300 1.511 . S
C1303 H1317 0.961 . S
C1303 H1318 0.961 . S
C1303 H1319 0.961 . S
C1304 C1305 1.370 . S
C1304 C1306 1.363 . S
C1304 H1320 0.931 . S
C1305 C1304 1.370 . S
C1305 C1309 1.408 . S
C1306 C1304 1.363 . S
C1306 C1307 1.370 . S
C1306 C1310 1.524 . S
C1307 C1299 1.503 . S
C1307 C1306 1.370 . S
C1307 C1308 1.403 . S
C1308 C1307 1.403 . S
C1308 C1309 1.404 . S
C1308 C1311 1.539 . S
C1309 C1305 1.408 . S
C1309 C1308 1.404 . S
C1309 H1321 0.930 . S
C1310 C1306 1.524 . S
C1310 H1322 0.956 . S
C1310 H1323 0.961 . S
C1310 H1324 0.961 . S
C1311 C1308 1.539 . S
C1311 H1325 0.958 . S
C1311 H1326 0.961 1_545 S
C1311 H1327 0.951 1_545 S
H1312 C1296 0.931 . S
H1313 C1301 0.929 . S
H1314 C1302 0.960 . S
H1315 C1302 0.962 . S
H1316 C1302 0.960 . S
H1317 C1303 0.961 . S
H1318 C1303 0.961 . S
H1319 C1303 0.961 . S
H1320 C1304 0.931 . S
H1321 C1309 0.930 . S
H1322 C1310 0.956 . S
H1323 C1310 0.961 . S
H1324 C1310 0.961 . S
H1325 C1311 0.958 . S
H1326 C1311 0.961 1_565 S
H1327 C1311 0.951 1_565 S
C1328 C1329 1.391 . S
C1328 C1330 1.394 . S
C1328 H1344 0.931 . S
C1329 C1328 1.391 . S
C1329 C1333 1.376 . S
C1330 C1328 1.394 . S
C1330 C1331 1.369 . S
C1330 C1334 1.531 . S
C1331 C1330 1.369 . S
C1331 C1332 1.410 . S
C1331 C1339 1.503 . S
C1332 C1331 1.410 . S
C1332 C1333 1.392 . S
C1332 C1335 1.511 . S
C1333 C1329 1.376 . S
C1333 C1332 1.392 . S
C1333 H1345 0.929 . S
C1334 C1330 1.531 . S
C1334 H1346 0.960 . S
C1334 H1347 0.962 . S
C1334 H1348 0.960 . S
C1335 C1332 1.511 . S
C1335 H1349 0.961 . S
C1335 H1350 0.961 . S
C1335 H1351 0.961 . S
C1336 C1337 1.370 . S
C1336 C1338 1.363 . S
C1336 H1352 0.931 . S
C1337 C1336 1.370 . S
C1337 C1341 1.408 . S
C1338 C1336 1.363 . S
C1338 C1339 1.370 . S
C1338 C1342 1.524 . S
C1339 C1331 1.503 . S
C1339 C1338 1.370 . S
C1339 C1340 1.403 . S
C1340 C1339 1.403 . S
C1340 C1341 1.404 . S
C1340 C1343 1.539 . S
C1341 C1337 1.408 . S
C1341 C1340 1.404 . S
C1341 H1353 0.930 . S
C1342 C1338 1.524 . S
C1342 H1354 0.956 . S
C1342 H1355 0.961 . S
C1342 H1356 0.961 . S
C1343 C1340 1.539 . S
C1343 H1357 0.958 . S
C1343 H1358 0.961 . S
C1343 H1359 0.960 . S
H1344 C1328 0.931 . S
H1345 C1333 0.929 . S
H1346 C1334 0.960 . S
H1347 C1334 0.962 . S
H1348 C1334 0.960 . S
H1349 C1335 0.961 . S
H1350 C1335 0.961 . S
H1351 C1335 0.961 . S
H1352 C1336 0.931 . S
H1353 C1341 0.930 . S
H1354 C1342 0.956 . S
H1355 C1342 0.961 . S
H1356 C1342 0.961 . S
H1357 C1343 0.958 . S
H1358 C1343 0.961 . S
H1359 C1343 0.960 . S
C1360 C1361 1.391 . S
C1360 C1362 1.394 . S
C1360 H1376 0.931 . S
C1361 C1360 1.391 . S
C1361 C1365 1.376 . S
C1362 C1360 1.394 . S
C1362 C1363 1.369 . S
C1362 C1366 1.531 . S
C1363 C1362 1.369 . S
C1363 C1364 1.410 . S
C1363 C1371 1.503 . S
C1364 C1363 1.410 . S
C1364 C1365 1.392 . S
C1364 C1367 1.511 . S
C1365 C1361 1.376 . S
C1365 C1364 1.392 . S
C1365 H1377 0.929 . S
C1366 C1362 1.531 . S
C1366 H1378 0.960 . S
C1366 H1379 0.962 . S
C1366 H1380 0.960 . S
C1367 C1364 1.511 . S
C1367 H1381 0.961 . S
C1367 H1382 0.961 . S
C1367 H1383 0.961 . S
C1368 C1369 1.370 . S
C1368 C1370 1.363 . S
C1368 H1384 0.931 . S
C1369 C1368 1.370 . S
C1369 C1373 1.408 . S
C1370 C1368 1.363 . S
C1370 C1371 1.370 . S
C1370 C1374 1.524 . S
C1371 C1363 1.503 . S
C1371 C1370 1.370 . S
C1371 C1372 1.403 . S
C1372 C1371 1.403 . S
C1372 C1373 1.404 . S
C1372 C1375 1.539 . S
C1373 C1369 1.408 . S
C1373 C1372 1.404 . S
C1373 H1385 0.930 . S
C1374 C1370 1.524 . S
C1374 H1386 0.956 . S
C1374 H1387 0.961 . S
C1374 H1388 0.961 . S
C1375 C1372 1.539 . S
C1375 H1389 0.958 . S
C1375 H1390 0.961 . S
C1375 H1391 0.960 . S
H1376 C1360 0.931 . S
H1377 C1365 0.929 . S
H1378 C1366 0.960 . S
H1379 C1366 0.962 . S
H1380 C1366 0.960 . S
H1381 C1367 0.961 . S
H1382 C1367 0.961 . S
H1383 C1367 0.961 . S
H1384 C1368 0.931 . S
H1385 C1373 0.930 . S
H1386 C1374 0.956 . S
H1387 C1374 0.961 . S
H1388 C1374 0.961 . S
H1389 C1375 0.958 . S
H1390 C1375 0.961 . S
H1391 C1375 0.960 . S
C1392 C1393 1.391 . S
C1392 C1394 1.394 . S
C1392 H1408 0.931 . S
C1393 C1392 1.391 . S
C1393 C1397 1.376 . S
C1394 C1392 1.394 . S
C1394 C1395 1.369 . S
C1394 C1398 1.531 . S
C1395 C1394 1.369 . S
C1395 C1396 1.410 . S
C1395 C1403 1.503 . S
C1396 C1395 1.410 . S
C1396 C1397 1.392 . S
C1396 C1399 1.511 . S
C1397 C1393 1.376 . S
C1397 C1396 1.392 . S
C1397 H1409 0.929 . S
C1398 C1394 1.531 . S
C1398 H1410 0.960 . S
C1398 H1411 0.962 1_455 S
C1398 H1412 0.960 1_455 S
C1399 C1396 1.511 . S
C1399 H1413 0.961 . S
C1399 H1414 0.961 . S
C1399 H1415 0.961 . S
C1400 C1401 1.370 . S
C1400 C1402 1.363 . S
C1400 H1416 0.931 . S
C1401 C1400 1.370 . S
C1401 C1405 1.408 . S
C1402 C1400 1.363 . S
C1402 C1403 1.370 . S
C1402 C1406 1.524 . S
C1403 C1395 1.503 . S
C1403 C1402 1.370 . S
C1403 C1404 1.403 . S
C1404 C1403 1.403 . S
C1404 C1405 1.404 . S
C1404 C1407 1.539 . S
C1405 C1401 1.408 . S
C1405 C1404 1.404 . S
C1405 H1417 0.930 . S
C1406 C1402 1.524 . S
C1406 H1418 0.956 . S
C1406 H1419 0.961 . S
C1406 H1420 0.961 . S
C1407 C1404 1.539 . S
C1407 H1421 0.958 . S
C1407 H1422 0.961 . S
C1407 H1423 0.960 . S
H1408 C1392 0.931 . S
H1409 C1397 0.929 . S
H1410 C1398 0.960 . S
H1411 C1398 0.962 1_655 S
H1412 C1398 0.960 1_655 S
H1413 C1399 0.961 . S
H1414 C1399 0.961 . S
H1415 C1399 0.961 . S
H1416 C1400 0.931 . S
H1417 C1405 0.930 . S
H1418 C1406 0.956 . S
H1419 C1406 0.961 . S
H1420 C1406 0.961 . S
H1421 C1407 0.958 . S
H1422 C1407 0.961 . S
H1423 C1407 0.960 . S
C1424 C1425 1.391 . S
C1424 C1426 1.394 . S
C1424 H1440 0.931 . S
C1425 C1424 1.391 . S
C1425 C1429 1.376 . S
C1426 C1424 1.394 . S
C1426 C1427 1.369 . S
C1426 C1430 1.531 . S
C1427 C1426 1.369 . S
C1427 C1428 1.410 . S
C1427 C1435 1.503 . S
C1428 C1427 1.410 . S
C1428 C1429 1.392 . S
C1428 C1431 1.511 . S
C1429 C1425 1.376 . S
C1429 C1428 1.392 . S
C1429 H1441 0.929 . S
C1430 C1426 1.531 . S
C1430 H1442 0.960 . S
C1430 H1443 0.962 . S
C1430 H1444 0.960 . S
C1431 C1428 1.511 . S
C1431 H1445 0.961 . S
C1431 H1446 0.961 . S
C1431 H1447 0.961 . S
C1432 C1433 1.370 . S
C1432 C1434 1.363 . S
C1432 H1448 0.931 . S
C1433 C1432 1.370 . S
C1433 C1437 1.408 . S
C1434 C1432 1.363 . S
C1434 C1435 1.370 . S
C1434 C1438 1.524 . S
C1435 C1427 1.503 . S
C1435 C1434 1.370 . S
C1435 C1436 1.403 . S
C1436 C1435 1.403 . S
C1436 C1437 1.404 . S
C1436 C1439 1.539 . S
C1437 C1433 1.408 . S
C1437 C1436 1.404 . S
C1437 H1449 0.930 . S
C1438 C1434 1.524 . S
C1438 H1450 0.956 . S
C1438 H1451 0.961 . S
C1438 H1452 0.961 . S
C1439 C1436 1.539 . S
C1439 H1453 0.958 . S
C1439 H1454 0.961 . S
C1439 H1455 0.960 . S
H1440 C1424 0.931 . S
H1441 C1429 0.929 . S
H1442 C1430 0.960 . S
H1443 C1430 0.962 . S
H1444 C1430 0.960 . S
H1445 C1431 0.961 . S
H1446 C1431 0.961 . S
H1447 C1431 0.961 . S
H1448 C1432 0.931 . S
H1449 C1437 0.930 . S
H1450 C1438 0.956 . S
H1451 C1438 0.961 . S
H1452 C1438 0.961 . S
H1453 C1439 0.958 . S
H1454 C1439 0.961 . S
H1455 C1439 0.960 . S
C1456 C1457 1.391 . S
C1456 C1458 1.394 . S
C1456 H1472 0.931 . S
C1457 C1456 1.391 . S
C1457 C1461 1.376 . S
C1458 C1456 1.394 . S
C1458 C1459 1.369 . S
C1458 C1462 1.531 . S
C1459 C1458 1.369 . S
C1459 C1460 1.410 . S
C1459 C1467 1.503 . S
C1460 C1459 1.410 . S
C1460 C1461 1.392 . S
C1460 C1463 1.511 . S
C1461 C1457 1.376 . S
C1461 C1460 1.392 . S
C1461 H1473 0.929 . S
C1462 C1458 1.531 . S
C1462 H1474 0.960 . S
C1462 H1475 0.962 . S
C1462 H1476 0.960 . S
C1463 C1460 1.511 . S
C1463 H1477 0.961 1_455 S
C1463 H1478 0.961 . S
C1463 H1479 0.961 1_455 S
C1464 C1465 1.370 . S
C1464 C1466 1.363 . S
C1464 H1480 0.931 . S
C1465 C1464 1.370 . S
C1465 C1469 1.408 . S
C1466 C1464 1.363 . S
C1466 C1467 1.370 . S
C1466 C1470 1.524 . S
C1467 C1459 1.503 . S
C1467 C1466 1.370 . S
C1467 C1468 1.403 . S
C1468 C1467 1.403 . S
C1468 C1469 1.404 . S
C1468 C1471 1.539 . S
C1469 C1465 1.408 . S
C1469 C1468 1.404 . S
C1469 H1481 0.930 . S
C1470 C1466 1.524 . S
C1470 H1482 0.956 . S
C1470 H1483 0.961 . S
C1470 H1484 0.961 . S
C1471 C1468 1.539 . S
C1471 H1485 0.958 . S
C1471 H1486 0.961 . S
C1471 H1487 0.960 . S
H1472 C1456 0.931 . S
H1473 C1461 0.929 . S
H1474 C1462 0.960 . S
H1475 C1462 0.962 . S
H1476 C1462 0.960 . S
H1477 C1463 0.961 1_655 S
H1478 C1463 0.961 . S
H1479 C1463 0.961 1_655 S
H1480 C1464 0.931 . S
H1481 C1469 0.930 . S
H1482 C1470 0.956 . S
H1483 C1470 0.961 . S
H1484 C1470 0.961 . S
H1485 C1471 0.958 . S
H1486 C1471 0.961 . S
H1487 C1471 0.960 . S
C1488 C1489 1.391 . S
C1488 C1490 1.394 . S
C1488 H1504 0.931 . S
C1489 C1488 1.391 . S
C1489 C1493 1.376 . S
C1490 C1488 1.394 . S
C1490 C1491 1.369 . S
C1490 C1494 1.531 . S
C1491 C1490 1.369 . S
C1491 C1492 1.410 . S
C1491 C1499 1.503 . S
C1492 C1491 1.410 . S
C1492 C1493 1.392 . S
C1492 C1495 1.511 . S
C1493 C1489 1.376 . S
C1493 C1492 1.392 . S
C1493 H1505 0.929 . S
C1494 C1490 1.531 . S
C1494 H1506 0.960 . S
C1494 H1507 0.962 . S
C1494 H1508 0.960 . S
C1495 C1492 1.511 . S
C1495 H1509 0.961 1_545 S
C1495 H1510 0.961 . S
C1495 H1511 0.961 . S
C1496 C1497 1.370 . S
C1496 C1498 1.363 . S
C1496 H1512 0.931 . S
C1497 C1496 1.370 . S
C1497 C1501 1.408 . S
C1498 C1496 1.363 . S
C1498 C1499 1.370 . S
C1498 C1502 1.524 . S
C1499 C1491 1.503 . S
C1499 C1498 1.370 . S
C1499 C1500 1.403 . S
C1500 C1499 1.403 . S
C1500 C1501 1.404 . S
C1500 C1503 1.539 . S
C1501 C1497 1.408 . S
C1501 C1500 1.404 . S
C1501 H1513 0.930 . S
C1502 C1498 1.524 . S
C1502 H1514 0.956 . S
C1502 H1515 0.961 . S
C1502 H1516 0.961 . S
C1503 C1500 1.539 . S
C1503 H1517 0.958 . S
C1503 H1518 0.961 . S
C1503 H1519 0.960 . S
H1504 C1488 0.931 . S
H1505 C1493 0.929 . S
H1506 C1494 0.960 . S
H1507 C1494 0.962 . S
H1508 C1494 0.960 . S
H1509 C1495 0.961 1_565 S
H1510 C1495 0.961 . S
H1511 C1495 0.961 . S
H1512 C1496 0.931 . S
H1513 C1501 0.930 . S
H1514 C1502 0.956 . S
H1515 C1502 0.961 . S
H1516 C1502 0.961 . S
H1517 C1503 0.958 . S
H1518 C1503 0.961 . S
H1519 C1503 0.960 . S
C1520 C1521 1.391 . S
C1520 C1522 1.394 . S
C1520 H1536 0.931 . S
C1521 C1520 1.391 . S
C1521 C1525 1.376 . S
C1522 C1520 1.394 . S
C1522 C1523 1.369 . S
C1522 C1526 1.531 . S
C1523 C1522 1.369 . S
C1523 C1524 1.410 . S
C1523 C1531 1.503 . S
C1524 C1523 1.410 . S
C1524 C1525 1.392 . S
C1524 C1527 1.511 . S
C1525 C1521 1.376 . S
C1525 C1524 1.392 . S
C1525 H1537 0.929 . S
C1526 C1522 1.531 . S
C1526 H1538 0.960 . S
C1526 H1539 0.962 . S
C1526 H1540 0.960 . S
C1527 C1524 1.511 . S
C1527 H1541 0.961 . S
C1527 H1542 0.961 . S
C1527 H1543 0.961 . S
C1528 C1529 1.370 . S
C1528 C1530 1.363 . S
C1528 H1544 0.931 . S
C1529 C1528 1.370 . S
C1529 C1533 1.408 . S
C1530 C1528 1.363 . S
C1530 C1531 1.370 . S
C1530 C1534 1.524 . S
C1531 C1523 1.503 . S
C1531 C1530 1.370 . S
C1531 C1532 1.403 . S
C1532 C1531 1.403 . S
C1532 C1533 1.404 . S
C1532 C1535 1.539 . S
C1533 C1529 1.408 . S
C1533 C1532 1.404 . S
C1533 H1545 0.930 . S
C1534 C1530 1.524 . S
C1534 H1546 0.956 . S
C1534 H1547 0.961 . S
C1534 H1548 0.961 . S
C1535 C1532 1.539 . S
C1535 H1549 0.958 . S
C1535 H1550 0.961 . S
C1535 H1551 0.960 . S
H1536 C1520 0.931 . S
H1537 C1525 0.929 . S
H1538 C1526 0.960 . S
H1539 C1526 0.962 . S
H1540 C1526 0.960 . S
H1541 C1527 0.961 . S
H1542 C1527 0.961 . S
H1543 C1527 0.961 . S
H1544 C1528 0.931 . S
H1545 C1533 0.930 . S
H1546 C1534 0.956 . S
H1547 C1534 0.961 . S
H1548 C1534 0.961 . S
H1549 C1535 0.958 . S
H1550 C1535 0.961 . S
H1551 C1535 0.960 . S
C1552 C1553 1.391 . S
C1552 C1554 1.394 . S
C1552 H1568 0.931 . S
C1553 C1552 1.391 . S
C1553 C1557 1.376 . S
C1554 C1552 1.394 . S
C1554 C1555 1.369 . S
C1554 C1558 1.531 . S
C1555 C1554 1.369 . S
C1555 C1556 1.410 . S
C1555 C1563 1.503 . S
C1556 C1555 1.410 . S
C1556 C1557 1.392 . S
C1556 C1559 1.511 . S
C1557 C1553 1.376 . S
C1557 C1556 1.392 . S
C1557 H1569 0.929 . S
C1558 C1554 1.531 . S
C1558 H1570 0.960 . S
C1558 H1571 0.962 . S
C1558 H1572 0.960 . S
C1559 C1556 1.511 . S
C1559 H1573 0.961 . S
C1559 H1574 0.961 . S
C1559 H1575 0.961 . S
C1560 C1561 1.370 . S
C1560 C1562 1.363 . S
C1560 H1576 0.931 . S
C1561 C1560 1.370 . S
C1561 C1565 1.408 . S
C1562 C1560 1.363 . S
C1562 C1563 1.370 . S
C1562 C1566 1.524 . S
C1563 C1555 1.503 . S
C1563 C1562 1.370 . S
C1563 C1564 1.403 . S
C1564 C1563 1.403 . S
C1564 C1565 1.404 . S
C1564 C1567 1.539 . S
C1565 C1561 1.408 . S
C1565 C1564 1.404 . S
C1565 H1577 0.930 . S
C1566 C1562 1.524 . S
C1566 H1578 0.956 . S
C1566 H1579 0.961 . S
C1566 H1580 0.961 1_565 S
C1567 C1564 1.539 . S
C1567 H1581 0.958 . S
C1567 H1582 0.961 . S
C1567 H1583 0.960 . S
H1568 C1552 0.931 . S
H1569 C1557 0.929 . S
H1570 C1558 0.960 . S
H1571 C1558 0.962 . S
H1572 C1558 0.960 . S
H1573 C1559 0.961 . S
H1574 C1559 0.961 . S
H1575 C1559 0.961 . S
H1576 C1560 0.931 . S
H1577 C1565 0.930 . S
H1578 C1566 0.956 . S
H1579 C1566 0.961 . S
H1580 C1566 0.961 1_545 S
H1581 C1567 0.958 . S
H1582 C1567 0.961 . S
H1583 C1567 0.960 . S
C1584 C1585 1.391 . S
C1584 C1586 1.394 . S
C1584 H1600 0.931 . S
C1585 C1584 1.391 . S
C1585 C1589 1.376 . S
C1586 C1584 1.394 . S
C1586 C1587 1.369 . S
C1586 C1590 1.531 . S
C1587 C1586 1.369 . S
C1587 C1588 1.410 . S
C1587 C1595 1.503 . S
C1588 C1587 1.410 . S
C1588 C1589 1.392 . S
C1588 C1591 1.511 . S
C1589 C1585 1.376 . S
C1589 C1588 1.392 . S
C1589 H1601 0.929 . S
C1590 C1586 1.531 . S
C1590 H1602 0.960 . S
C1590 H1603 0.962 . S
C1590 H1604 0.960 . S
C1591 C1588 1.511 . S
C1591 H1605 0.961 . S
C1591 H1606 0.961 . S
C1591 H1607 0.961 . S
C1592 C1593 1.370 . S
C1592 C1594 1.363 . S
C1592 H1608 0.931 . S
C1593 C1592 1.370 . S
C1593 C1597 1.408 . S
C1594 C1592 1.363 . S
C1594 C1595 1.370 . S
C1594 C1598 1.524 . S
C1595 C1587 1.503 . S
C1595 C1594 1.370 . S
C1595 C1596 1.403 . S
C1596 C1595 1.403 . S
C1596 C1597 1.404 . S
C1596 C1599 1.539 . S
C1597 C1593 1.408 . S
C1597 C1596 1.404 . S
C1597 H1609 0.930 . S
C1598 C1594 1.524 . S
C1598 H1610 0.956 . S
C1598 H1611 0.961 . S
C1598 H1612 0.961 . S
C1599 C1596 1.539 . S
C1599 H1613 0.958 . S
C1599 H1614 0.961 . S
C1599 H1615 0.960 . S
H1600 C1584 0.931 . S
H1601 C1589 0.929 . S
H1602 C1590 0.960 . S
H1603 C1590 0.962 . S
H1604 C1590 0.960 . S
H1605 C1591 0.961 . S
H1606 C1591 0.961 . S
H1607 C1591 0.961 . S
H1608 C1592 0.931 . S
H1609 C1597 0.930 . S
H1610 C1598 0.956 . S
H1611 C1598 0.961 . S
H1612 C1598 0.961 . S
H1613 C1599 0.958 . S
H1614 C1599 0.961 . S
H1615 C1599 0.960 . S
C1616 C1617 1.391 . S
C1616 C1618 1.394 . S
C1616 H1632 0.931 . S
C1617 C1616 1.391 . S
C1617 C1621 1.376 . S
C1618 C1616 1.394 . S
C1618 C1619 1.369 . S
C1618 C1622 1.531 . S
C1619 C1618 1.369 . S
C1619 C1620 1.410 . S
C1619 C1627 1.503 . S
C1620 C1619 1.410 . S
C1620 C1621 1.392 . S
C1620 C1623 1.511 . S
C1621 C1617 1.376 . S
C1621 C1620 1.392 . S
C1621 H1633 0.929 . S
C1622 C1618 1.531 . S
C1622 H1634 0.960 . S
C1622 H1635 0.962 . S
C1622 H1636 0.960 . S
C1623 C1620 1.511 . S
C1623 H1637 0.961 . S
C1623 H1638 0.961 . S
C1623 H1639 0.961 . S
C1624 C1625 1.370 . S
C1624 C1626 1.363 . S
C1624 H1640 0.931 . S
C1625 C1624 1.370 . S
C1625 C1629 1.408 . S
C1626 C1624 1.363 . S
C1626 C1627 1.370 . S
C1626 C1630 1.524 . S
C1627 C1619 1.503 . S
C1627 C1626 1.370 . S
C1627 C1628 1.403 . S
C1628 C1627 1.403 . S
C1628 C1629 1.404 . S
C1628 C1631 1.539 . S
C1629 C1625 1.408 . S
C1629 C1628 1.404 . S
C1629 H1641 0.930 . S
C1630 C1626 1.524 . S
C1630 H1642 0.956 . S
C1630 H1643 0.961 . S
C1630 H1644 0.961 . S
C1631 C1628 1.539 . S
C1631 H1645 0.958 . S
C1631 H1646 0.961 . S
C1631 H1647 0.960 . S
H1632 C1616 0.931 . S
H1633 C1621 0.929 . S
H1634 C1622 0.960 . S
H1635 C1622 0.962 . S
H1636 C1622 0.960 . S
H1637 C1623 0.961 . S
H1638 C1623 0.961 . S
H1639 C1623 0.961 . S
H1640 C1624 0.931 . S
H1641 C1629 0.930 . S
H1642 C1630 0.956 . S
H1643 C1630 0.961 . S
H1644 C1630 0.961 . S
H1645 C1631 0.958 . S
H1646 C1631 0.961 . S
H1647 C1631 0.960 . S
C1648 C1649 1.391 . S
C1648 C1650 1.394 . S
C1648 H1664 0.931 . S
C1649 C1648 1.391 . S
C1649 C1653 1.376 . S
C1650 C1648 1.394 . S
C1650 C1651 1.369 . S
C1650 C1654 1.531 . S
C1651 C1650 1.369 . S
C1651 C1652 1.410 . S
C1651 C1659 1.503 . S
C1652 C1651 1.410 . S
C1652 C1653 1.392 . S
C1652 C1655 1.511 . S
C1653 C1649 1.376 . S
C1653 C1652 1.392 . S
C1653 H1665 0.929 . S
C1654 C1650 1.531 . S
C1654 H1666 0.960 . S
C1654 H1667 0.962 . S
C1654 H1668 0.960 . S
C1655 C1652 1.511 . S
C1655 H1669 0.961 . S
C1655 H1670 0.961 . S
C1655 H1671 0.961 . S
C1656 C1657 1.370 . S
C1656 C1658 1.363 . S
C1656 H1672 0.931 . S
C1657 C1656 1.370 . S
C1657 C1661 1.408 . S
C1658 C1656 1.363 . S
C1658 C1659 1.370 . S
C1658 C1662 1.524 . S
C1659 C1651 1.503 . S
C1659 C1658 1.370 . S
C1659 C1660 1.403 . S
C1660 C1659 1.403 . S
C1660 C1661 1.404 . S
C1660 C1663 1.539 1_655 S
C1661 C1657 1.408 . S
C1661 C1660 1.404 . S
C1661 H1673 0.930 1_655 S
C1662 C1658 1.524 . S
C1662 H1674 0.956 . S
C1662 H1675 0.961 . S
C1662 H1676 0.961 . S
C1663 C1660 1.539 1_455 S
C1663 H1677 0.958 . S
C1663 H1678 0.961 . S
C1663 H1679 0.960 1_455 S
H1664 C1648 0.931 . S
H1665 C1653 0.929 . S
H1666 C1654 0.960 . S
H1667 C1654 0.962 . S
H1668 C1654 0.960 . S
H1669 C1655 0.961 . S
H1670 C1655 0.961 . S
H1671 C1655 0.961 . S
H1672 C1656 0.931 . S
H1673 C1661 0.930 1_455 S
H1674 C1662 0.956 . S
H1675 C1662 0.961 . S
H1676 C1662 0.961 . S
H1677 C1663 0.958 . S
H1678 C1663 0.961 . S
H1679 C1663 0.960 1_655 S
C1680 C1681 1.391 . S
C1680 C1682 1.394 . S
C1680 H1696 0.931 . S
C1681 C1680 1.391 . S
C1681 C1685 1.376 . S
C1682 C1680 1.394 . S
C1682 C1683 1.369 . S
C1682 C1686 1.531 . S
C1683 C1682 1.369 . S
C1683 C1684 1.410 . S
C1683 C1691 1.503 . S
C1684 C1683 1.410 . S
C1684 C1685 1.392 . S
C1684 C1687 1.511 . S
C1685 C1681 1.376 . S
C1685 C1684 1.392 . S
C1685 H1697 0.929 . S
C1686 C1682 1.531 . S
C1686 H1698 0.960 . S
C1686 H1699 0.962 . S
C1686 H1700 0.960 . S
C1687 C1684 1.511 . S
C1687 H1701 0.961 . S
C1687 H1702 0.961 . S
C1687 H1703 0.961 . S
C1688 C1689 1.370 . S
C1688 C1690 1.363 . S
C1688 H1704 0.931 . S
C1689 C1688 1.370 . S
C1689 C1693 1.408 . S
C1690 C1688 1.363 . S
C1690 C1691 1.370 . S
C1690 C1694 1.524 . S
C1691 C1683 1.503 . S
C1691 C1690 1.370 . S
C1691 C1692 1.403 . S
C1692 C1691 1.403 . S
C1692 C1693 1.404 . S
C1692 C1695 1.539 . S
C1693 C1689 1.408 . S
C1693 C1692 1.404 . S
C1693 H1705 0.930 . S
C1694 C1690 1.524 . S
C1694 H1706 0.956 . S
C1694 H1707 0.961 . S
C1694 H1708 0.961 . S
C1695 C1692 1.539 . S
C1695 H1709 0.958 . S
C1695 H1710 0.961 . S
C1695 H1711 0.960 . S
H1696 C1680 0.931 . S
H1697 C1685 0.929 . S
H1698 C1686 0.960 . S
H1699 C1686 0.962 . S
H1700 C1686 0.960 . S
H1701 C1687 0.961 . S
H1702 C1687 0.961 . S
H1703 C1687 0.961 . S
H1704 C1688 0.931 . S
H1705 C1693 0.930 . S
H1706 C1694 0.956 . S
H1707 C1694 0.961 . S
H1708 C1694 0.961 . S
H1709 C1695 0.958 . S
H1710 C1695 0.961 . S
H1711 C1695 0.960 . S
C1712 C1713 1.391 . S
C1712 C1714 1.394 . S
C1712 H1728 0.931 . S
C1713 C1712 1.391 . S
C1713 C1717 1.376 . S
C1714 C1712 1.394 . S
C1714 C1715 1.369 . S
C1714 C1718 1.531 . S
C1715 C1714 1.369 . S
C1715 C1716 1.410 . S
C1715 C1723 1.503 . S
C1716 C1715 1.410 . S
C1716 C1717 1.392 . S
C1716 C1719 1.511 . S
C1717 C1713 1.376 . S
C1717 C1716 1.392 . S
C1717 H1729 0.929 . S
C1718 C1714 1.531 . S
C1718 H1730 0.960 . S
C1718 H1731 0.962 . S
C1718 H1732 0.960 . S
C1719 C1716 1.511 . S
C1719 H1733 0.961 . S
C1719 H1734 0.961 . S
C1719 H1735 0.961 . S
C1720 C1721 1.370 . S
C1720 C1722 1.363 . S
C1720 H1736 0.931 . S
C1721 C1720 1.370 . S
C1721 C1725 1.408 . S
C1722 C1720 1.363 . S
C1722 C1723 1.370 . S
C1722 C1726 1.524 . S
C1723 C1715 1.503 . S
C1723 C1722 1.370 . S
C1723 C1724 1.403 . S
C1724 C1723 1.403 . S
C1724 C1725 1.404 . S
C1724 C1727 1.539 . S
C1725 C1721 1.408 . S
C1725 C1724 1.404 . S
C1725 H1737 0.930 . S
C1726 C1722 1.524 . S
C1726 H1738 0.956 . S
C1726 H1739 0.961 . S
C1726 H1740 0.961 . S
C1727 C1724 1.539 . S
C1727 H1741 0.958 . S
C1727 H1742 0.961 . S
C1727 H1743 0.960 . S
H1728 C1712 0.931 . S
H1729 C1717 0.929 . S
H1730 C1718 0.960 . S
H1731 C1718 0.962 . S
H1732 C1718 0.960 . S
H1733 C1719 0.961 . S
H1734 C1719 0.961 . S
H1735 C1719 0.961 . S
H1736 C1720 0.931 . S
H1737 C1725 0.930 . S
H1738 C1726 0.956 . S
H1739 C1726 0.961 . S
H1740 C1726 0.961 . S
H1741 C1727 0.958 . S
H1742 C1727 0.961 . S
H1743 C1727 0.960 . S
C1744 C1745 1.391 . S
C1744 C1746 1.394 . S
C1744 H1760 0.931 . S
C1745 C1744 1.391 . S
C1745 C1749 1.376 . S
C1746 C1744 1.394 . S
C1746 C1747 1.369 . S
C1746 C1750 1.531 . S
C1747 C1746 1.369 . S
C1747 C1748 1.410 . S
C1747 C1755 1.503 . S
C1748 C1747 1.410 . S
C1748 C1749 1.392 . S
C1748 C1751 1.511 1_565 S
C1749 C1745 1.376 . S
C1749 C1748 1.392 . S
C1749 H1761 0.929 1_565 S
C1750 C1746 1.531 . S
C1750 H1762 0.960 . S
C1750 H1763 0.962 . S
C1750 H1764 0.960 . S
C1751 C1748 1.511 1_545 S
C1751 H1765 0.961 . S
C1751 H1766 0.961 1_545 S
C1751 H1767 0.961 . S
C1752 C1753 1.370 . S
C1752 C1754 1.363 . S
C1752 H1768 0.931 . S
C1753 C1752 1.370 . S
C1753 C1757 1.408 . S
C1754 C1752 1.363 . S
C1754 C1755 1.370 . S
C1754 C1758 1.524 . S
C1755 C1747 1.503 . S
C1755 C1754 1.370 . S
C1755 C1756 1.403 . S
C1756 C1755 1.403 . S
C1756 C1757 1.404 . S
C1756 C1759 1.539 . S
C1757 C1753 1.408 . S
C1757 C1756 1.404 . S
C1757 H1769 0.930 . S
C1758 C1754 1.524 . S
C1758 H1770 0.956 . S
C1758 H1771 0.961 . S
C1758 H1772 0.961 . S
C1759 C1756 1.539 . S
C1759 H1773 0.958 . S
C1759 H1774 0.961 . S
C1759 H1775 0.960 . S
H1760 C1744 0.931 . S
H1761 C1749 0.929 1_545 S
H1762 C1750 0.960 . S
H1763 C1750 0.962 . S
H1764 C1750 0.960 . S
H1765 C1751 0.961 . S
H1766 C1751 0.961 1_565 S
H1767 C1751 0.961 . S
H1768 C1752 0.931 . S
H1769 C1757 0.930 . S
H1770 C1758 0.956 . S
H1771 C1758 0.961 . S
H1772 C1758 0.961 . S
H1773 C1759 0.958 . S
H1774 C1759 0.961 . S
H1775 C1759 0.960 . S
C1776 C1777 1.391 . S
C1776 C1778 1.394 . S
C1776 H1792 0.931 . S
C1777 C1776 1.391 . S
C1777 C1781 1.376 . S
C1778 C1776 1.394 . S
C1778 C1779 1.369 . S
C1778 C1782 1.531 . S
C1779 C1778 1.369 . S
C1779 C1780 1.410 . S
C1779 C1787 1.503 . S
C1780 C1779 1.410 . S
C1780 C1781 1.392 . S
C1780 C1783 1.511 . S
C1781 C1777 1.376 . S
C1781 C1780 1.392 . S
C1781 H1793 0.929 . S
C1782 C1778 1.531 . S
C1782 H1794 0.960 . S
C1782 H1795 0.962 . S
C1782 H1796 0.960 . S
C1783 C1780 1.511 . S
C1783 H1797 0.961 . S
C1783 H1798 0.961 . S
C1783 H1799 0.961 . S
C1784 C1785 1.370 . S
C1784 C1786 1.363 . S
C1784 H1800 0.931 . S
C1785 C1784 1.370 . S
C1785 C1789 1.408 . S
C1786 C1784 1.363 . S
C1786 C1787 1.370 . S
C1786 C1790 1.524 . S
C1787 C1779 1.503 . S
C1787 C1786 1.370 . S
C1787 C1788 1.403 . S
C1788 C1787 1.403 . S
C1788 C1789 1.404 . S
C1788 C1791 1.539 . S
C1789 C1785 1.408 . S
C1789 C1788 1.404 . S
C1789 H1801 0.930 . S
C1790 C1786 1.524 . S
C1790 H1802 0.956 . S
C1790 H1803 0.961 . S
C1790 H1804 0.961 . S
C1791 C1788 1.539 . S
C1791 H1805 0.958 . S
C1791 H1806 0.961 . S
C1791 H1807 0.960 . S
H1792 C1776 0.931 . S
H1793 C1781 0.929 . S
H1794 C1782 0.960 . S
H1795 C1782 0.962 . S
H1796 C1782 0.960 . S
H1797 C1783 0.961 . S
H1798 C1783 0.961 . S
H1799 C1783 0.961 . S
H1800 C1784 0.931 . S
H1801 C1789 0.930 . S
H1802 C1790 0.956 . S
H1803 C1790 0.961 . S
H1804 C1790 0.961 . S
H1805 C1791 0.958 . S
H1806 C1791 0.961 . S
H1807 C1791 0.960 . S
C529 C7 0.457 . S
C537 C172 0.367 . S
C561 C40 0.313 . S
C569 C205 0.387 . S
C593 C238 0.466 . S
C601 C73 0.379 . S
C625 C139 0.350 . S
C633 C106 0.364 . S
C657 C271 0.317 . S
C665 C436 0.410 . S
C689 C304 0.397 . S
C697 C469 0.358 . S
C721 C337 0.333 . S
C729 C502 0.380 . S
C753 C370 0.322 . S
C761 C403 0.388 . S
C785 C285 1.613 . S
C793 C21 1.558 . S
C817 C318 1.554 . S
C825 C54 1.581 . S
C849 C87 1.575 . S
C857 C351 1.579 . S
C881 C384 1.613 . S
C889 C120 1.557 . S
C913 C153 1.548 . S
C921 C417 1.583 . S
C945 C186 1.523 . S
C953 C450 1.597 . S
C977 C219 1.606 . S
C985 C483 1.566 . S
C1009 C252 1.594 . S
C1017 C516 1.570 . S
C1041 N13 1.559 . S
C1049 N145 1.515 . S
C1073 N46 1.504 . S
C1081 N178 1.493 . S
C1105 N211 1.550 . S
C1113 N79 1.530 . S
C1137 N112 1.541 . S
C1145 N244 1.533 . S
C1169 N409 1.540 . S
C1177 N277 1.529 . S
C1201 N442 1.464 . S
C1209 N310 1.524 . S
C1233 N343 1.557 . S
C1241 N475 1.519 . S
C1265 N508 1.490 . S
C1273 N376 1.496 . S
C1297 C51 1.426 . S
C1305 N2 1.372 . S
C1329 N35 1.361 . S
C1337 C84 1.431 . S
C1361 N68 1.354 . S
C1369 C117 1.437 . S
C1393 N101 1.356 . S
C1401 C18 1.437 . S
C1425 C249 1.427 . S
C1433 N134 1.346 . S
C1457 N167 1.348 . S
C1465 C150 1.432 . S
C1489 N200 1.329 . S
C1497 C183 1.433 . S
C1521 N233 1.311 . S
C1529 C216 1.435 . S
C1553 N266 1.317 . S
C1561 C315 1.438 . S
C1585 N299 1.390 . S
C1593 C348 1.431 . S
C1617 C381 1.433 . S
C1625 N332 1.360 . S
C1649 N365 1.388 . S
C1657 C282 1.430 . S
C1681 N398 1.392 . S
C1689 C513 1.432 . S
C1713 C414 1.439 . S
C1721 N431 1.343 . S
C1745 C447 1.425 . S
C1753 N464 1.356 . S
C1777 N497 1.318 . S
C1785 C480 1.435 . S
