# Generated by pormake.
# Topology mdf, (4)-cn, num edge types: 1
# Building blocks:
#     Node 0, Type 0, BuildingBlock: TATPOV_clean_sbu_0, # of connection points: 4
#     Node 1, Type 0, BuildingBlock: TATPOV_clean_sbu_0, # of connection points: 4
#     Node 2, Type 0, BuildingBlock: TATPOV_clean_sbu_0, # of connection points: 4
#     Node 3, Type 0, BuildingBlock: TATPOV_clean_sbu_0, # of connection points: 4
#     Node 4, Type 0, BuildingBlock: TATPOV_clean_sbu_0, # of connection points: 4
#     Node 5, Type 0, BuildingBlock: TATPOV_clean_sbu_0, # of connection points: 4
#     Node 6, Type 0, BuildingBlock: TATPOV_clean_sbu_0, # of connection points: 4
#     Node 7, Type 0, BuildingBlock: TATPOV_clean_sbu_0, # of connection points: 4
#     Edge 8, Type (0, 0), BuildingBlock: KIFKEQ_clean_linker_1, # of connection points: 2
#     Edge 9, Type (0, 0), BuildingBlock: KIFKEQ_clean_linker_1, # of connection points: 2
#     Edge 10, Type (0, 0), BuildingBlock: KIFKEQ_clean_linker_1, # of connection points: 2
#     Edge 11, Type (0, 0), BuildingBlock: KIFKEQ_clean_linker_1, # of connection points: 2
#     Edge 12, Type (0, 0), BuildingBlock: KIFKEQ_clean_linker_1, # of connection points: 2
#     Edge 13, Type (0, 0), BuildingBlock: KIFKEQ_clean_linker_1, # of connection points: 2
#     Edge 14, Type (0, 0), BuildingBlock: KIFKEQ_clean_linker_1, # of connection points: 2
#     Edge 15, Type (0, 0), BuildingBlock: KIFKEQ_clean_linker_1, # of connection points: 2
#     Edge 16, Type (0, 0), BuildingBlock: KIFKEQ_clean_linker_1, # of connection points: 2
#     Edge 17, Type (0, 0), BuildingBlock: KIFKEQ_clean_linker_1, # of connection points: 2
#     Edge 18, Type (0, 0), BuildingBlock: KIFKEQ_clean_linker_1, # of connection points: 2
#     Edge 19, Type (0, 0), BuildingBlock: KIFKEQ_clean_linker_1, # of connection points: 2
#     Edge 20, Type (0, 0), BuildingBlock: KIFKEQ_clean_linker_1, # of connection points: 2
#     Edge 21, Type (0, 0), BuildingBlock: KIFKEQ_clean_linker_1, # of connection points: 2
#     Edge 22, Type (0, 0), BuildingBlock: KIFKEQ_clean_linker_1, # of connection points: 2
#     Edge 23, Type (0, 0), BuildingBlock: KIFKEQ_clean_linker_1, # of connection points: 2
# Relax obj value: 0.041
# Max RMSD: 0.067
# Mean RMSD: 0.055
data_MOF--net-mdf--node1-TATPOV_clean_sbu_0--edge1-KIFKEQ_clean_linker_1
_symmetry_space_group_name_H-M    P1
_symmetry_Int_Tables_number       1
_symmetry_cell_setting            triclinic
loop_
_symmetry_equiv_pos_as_xyz
'x, y, z'
_cell_length_a     35.646181
_cell_length_b     35.715607
_cell_length_c     14.874128
_cell_angle_alpha  91.521965
_cell_angle_beta   91.571622
_cell_angle_gamma 90.374857
loop_
_atom_site_label
_atom_site_type_symbol
_atom_site_fract_x
_atom_site_fract_y
_atom_site_fract_z
_atom_type_partial_charge
Zn0 Zn 0.24391 0.51867 0.5403 0.0
Zn1 Zn 0.25859 0.54976 0.38565 0.0
O2 O 0.24135 0.59432 0.46756 0.0
O3 O 0.23288 0.56817 0.59817 0.0
O4 O 0.27592 0.57625 0.27475 0.0
O5 O 0.29555 0.49881 0.55505 0.0
O6 O 0.3083 0.52337 0.42518 0.0
C7 C 0.23324 0.5969 0.55048 0.0
C8 C 0.19651 0.48999 0.39267 0.0
O9 O 0.21524 0.51281 0.34612 0.0
O10 O 0.20348 0.48773 0.47632 0.0
C11 C 0.25632 0.59383 0.2171 0.0
O12 O 0.21964 0.59445 0.22349 0.0
C13 C 0.31853 0.50491 0.49383 0.0
Zn14 Zn 0.47961 0.76178 0.44937 0.0
Zn15 Zn 0.4482 0.74589 0.60407 0.0
O16 O 0.40436 0.76472 0.52202 0.0
O17 O 0.43033 0.77409 0.39162 0.0
O18 O 0.42169 0.72833 0.71556 0.0
O19 O 0.49902 0.71012 0.43326 0.0
O20 O 0.47459 0.6965 0.56278 0.0
C21 C 0.40171 0.77382 0.43981 0.0
C22 C 0.50887 0.80728 0.59967 0.0
O23 O 0.48587 0.78828 0.64509 0.0
O24 O 0.511 0.80126 0.51564 0.0
C25 C 0.38868 0.73769 0.73772 0.0
O26 O 0.37062 0.76288 0.69089 0.0
C27 C 0.49308 0.68679 0.49376 0.0
Zn28 Zn 0.22135 0.98342 0.70572 0.0
Zn29 Zn 0.24691 0.9559 0.85717 0.0
O30 O 0.24919 0.9106 0.76713 0.0
O31 O 0.23263 0.93601 0.63912 0.0
O32 O 0.26385 0.93326 0.97368 0.0
O33 O 0.26176 0.02268 0.71255 0.0
O34 O 0.28623 0.99688 0.83341 0.0
C35 C 0.24425 0.90806 0.68196 0.0
C36 C 0.16739 0.98907 0.84165 0.0
O37 O 0.19479 0.97676 0.88879 0.0
O38 O 0.17055 0.99264 0.75778 0.0
C39 C 0.24611 0.90503 1.00174 0.0
O40 O 0.21727 0.89163 0.95393 0.0
C41 C 0.28749 0.02142 0.77272 0.0
Zn42 Zn 0.03553 0.77183 0.31263 0.0
Zn43 Zn 0.06318 0.7495 0.15677 0.0
O44 O 0.10956 0.74985 0.24491 0.0
O45 O 0.08475 0.76479 0.37475 0.0
O46 O 0.08553 0.73397 0.03865 0.0
O47 O 1.00058 0.72785 0.30966 0.0
O48 O 0.02406 0.7082 0.18106 0.0
C49 C 0.11285 0.75506 0.32993 0.0
C50 C 0.02453 0.82594 0.17622 0.0
O51 O 0.03923 0.80039 0.12756 0.0
O52 O 0.02103 0.82137 0.25971 0.0
C53 C 0.11424 0.75097 0.01052 0.0
O54 O 0.12909 0.77873 0.05947 0.0
C55 C 0.00173 0.7039 0.24565 0.0
Zn56 Zn 0.74592 0.0085 0.0521 0.0
Zn57 Zn 0.76305 0.04313 0.90781 0.0
O58 O 0.74501 0.0863 0.99427 0.0
O59 O 0.73399 0.05571 0.1175 0.0
O60 O 0.7819 0.07128 0.80034 0.0
O61 O 0.79638 0.98728 0.07183 0.0
O62 O 0.81232 0.01561 0.94892 0.0
C63 C 0.73539 0.08615 0.07636 0.0
C64 C 0.70004 0.98337 0.90176 0.0
O65 O 0.71958 0.00725 0.86014 0.0
O66 O 0.70603 0.97891 0.98501 0.0
C67 C 0.76271 0.09132 0.74682 0.0
O68 O 0.72631 0.09396 0.75675 0.0
C69 C 0.82088 0.9951 0.0154 0.0
Zn70 Zn 0.97709 0.25967 0.9647 0.0
Zn71 Zn 0.94779 0.24301 0.1202 0.0
O72 O 0.9023 0.2615 0.0421 0.0
O73 O 0.92715 0.2719 0.91084 0.0
O74 O 0.92356 0.22456 0.23386 0.0
O75 O 0.99672 0.20841 0.94445 0.0
O76 O 0.97386 0.19394 0.07507 0.0
C77 C 0.8989 0.27098 0.96019 0.0
C78 C 0.00787 0.30507 0.11263 0.0
O79 O 0.98549 0.28586 0.15932 0.0
O80 O 0.00915 0.29912 0.02845 0.0
C81 C 0.89252 0.23604 0.26445 0.0
O82 O 0.87526 0.26386 0.22519 0.0
C83 C 0.99151 0.18467 1.00443 0.0
Zn84 Zn 0.72731 0.48262 0.21774 0.0
Zn85 Zn 0.74878 0.45224 0.37056 0.0
O86 O 0.74878 0.40734 0.27822 0.0
O87 O 0.73439 0.43463 0.15106 0.0
O88 O 0.76388 0.42834 0.48725 0.0
O89 O 0.77158 0.51723 0.22461 0.0
O90 O 0.79091 0.49092 0.35012 0.0
C91 C 0.74388 0.40569 0.19289 0.0
C92 C 0.67214 0.49099 0.35176 0.0
O93 O 0.69749 0.47574 0.40017 0.0
O94 O 0.67732 0.49602 0.26911 0.0
C95 C 0.74599 0.40006 0.51451 0.0
O96 O 0.71753 0.38657 0.46554 0.0
C97 C 0.79563 0.51435 0.2881 0.0
Zn98 Zn 0.52552 0.2864 0.79876 0.0
Zn99 Zn 0.55378 0.25788 0.6512 0.0
O100 O 0.59905 0.25911 0.74184 0.0
O101 O 0.57277 0.27648 0.86814 0.0
O102 O 0.57716 0.23548 0.54095 0.0
O103 O 0.48582 0.24645 0.79758 0.0
O104 O 0.51273 0.21957 0.68129 0.0
C105 C 0.60121 0.26516 0.82666 0.0
C106 C 0.52034 0.33681 0.6532 0.0
O107 O 0.53262 0.30853 0.60934 0.0
O108 O 0.51691 0.33546 0.73755 0.0
C109 C 0.59686 0.25414 0.48763 0.0
O110 O 0.60119 0.2904 0.50183 0.0
C111 C 0.48769 0.2195 0.74096 0.0
H112 H 0.41409 0.67795 0.83267 0.0
H113 H 0.31945 0.75219 0.80653 0.0
H114 H 0.38147 0.64325 0.94546 0.0
H115 H 0.28722 0.7183 0.92218 0.0
H116 H 0.22452 0.62637 0.06827 0.0
H117 H 0.2561 0.66141 0.95328 0.0
H118 H 0.36227 0.64619 0.09464 0.0
H119 H 0.33098 0.61006 0.20684 0.0
C120 C 0.3865 0.68722 0.85187 0.0
C121 C 0.36954 0.71801 0.81066 0.0
C122 C 0.36776 0.66737 0.91711 0.0
C123 C 0.33163 0.67793 0.94376 0.0
C124 C 0.31476 0.70894 0.90284 0.0
C125 C 0.33343 0.72865 0.83697 0.0
C126 C 0.25463 0.63039 0.07442 0.0
C127 C 0.27521 0.61511 0.14646 0.0
C128 C 0.27277 0.65076 0.00877 0.0
C129 C 0.31191 0.65664 0.01398 0.0
C130 C 0.33229 0.64164 0.08684 0.0
C131 C 0.31425 0.621 0.15173 0.0
H132 H 0.36074 0.83363 0.49402 0.0
H133 H 0.36512 0.74483 0.29256 0.0
H134 H 0.31386 0.866 0.40137 0.0
H135 H 0.31735 0.77613 0.20167 0.0
H136 H 0.29768 0.93049 0.12832 0.0
H137 H 0.32485 0.89621 0.2533 0.0
H138 H 0.25195 0.80199 0.18559 0.0
H139 H 0.22458 0.83634 0.06021 0.0
C140 C 0.35033 0.82029 0.43189 0.0
C141 C 0.36622 0.78686 0.40002 0.0
C142 C 0.32378 0.83885 0.37868 0.0
C143 C 0.31202 0.82362 0.29428 0.0
C144 C 0.32552 0.78838 0.26675 0.0
C145 C 0.35282 0.77044 0.31861 0.0
C146 C 0.28702 0.9027 0.14085 0.0
C147 C 0.25938 0.88594 0.08359 0.0
C148 C 0.3023 0.8832 0.2131 0.0
C149 C 0.29054 0.8464 0.22913 0.0
C150 C 0.26163 0.83027 0.17454 0.0
C151 C 0.24602 0.84996 0.10277 0.0
H152 H 0.18349 0.76298 0.26168 0.0
H153 H 0.12527 0.74328 0.50685 0.0
H154 H 0.23945 0.7821 0.35048 0.0
H155 H 0.17951 0.76382 0.59467 0.0
H156 H 0.24836 0.8366 0.74742 0.0
H157 H 0.23822 0.77861 0.65859 0.0
H158 H 0.23951 0.84219 0.41491 0.0
H159 H 0.25168 0.89858 0.50234 0.0
C160 C 0.18305 0.76151 0.3343 0.0
C161 C 0.14959 0.75355 0.37774 0.0
C162 C 0.21504 0.77255 0.38532 0.0
C163 C 0.2134 0.77663 0.47979 0.0
C164 C 0.182 0.76197 0.52232 0.0
C165 C 0.15039 0.75064 0.47168 0.0
C166 C 0.24792 0.83771 0.6747 0.0
C167 C 0.24898 0.87224 0.63179 0.0
C168 C 0.24209 0.80453 0.62366 0.0
C169 C 0.23652 0.80571 0.52947 0.0
C170 C 0.24329 0.83969 0.48695 0.0
C171 C 0.24959 0.87249 0.53753 0.0
H172 H 0.08558 0.70207 0.88203 0.0
H173 H 0.18313 0.77082 0.94888 0.0
H174 H 0.11718 0.67577 0.75217 0.0
H175 H 0.21481 0.74439 0.81816 0.0
H176 H 0.26669 0.63176 0.6947 0.0
H177 H 0.23885 0.67958 0.79153 0.0
H178 H 0.14491 0.68739 0.60343 0.0
H179 H 0.17373 0.64027 0.50489 0.0
C180 C 0.11357 0.71197 0.86826 0.0
C181 C 0.13201 0.73814 0.92645 0.0
C182 C 0.13154 0.69721 0.79316 0.0
C183 C 0.16849 0.70803 0.77491 0.0
C184 C 0.18638 0.73544 0.83082 0.0
C185 C 0.16823 0.75053 0.90561 0.0
C186 C 0.24092 0.64499 0.67238 0.0
C187 C 0.2223 0.63264 0.59264 0.0
C188 C 0.22494 0.67235 0.72773 0.0
C189 C 0.1895 0.68699 0.70544 0.0
C190 C 0.17221 0.67651 0.62226 0.0
C191 C 0.18874 0.64981 0.56565 0.0
H192 H 0.73042 0.1305 0.60884 0.0
H193 H 0.83812 0.10087 0.7255 0.0
H194 H 0.76185 0.16567 0.49398 0.0
H195 H 0.8695 0.13702 0.61304 0.0
H196 H 0.91529 0.17149 0.34425 0.0
H197 H 0.88369 0.13673 0.45889 0.0
H198 H 0.79731 0.22098 0.46902 0.0
H199 H 0.82837 0.25512 0.35193 0.0
C200 C 0.7608 0.13162 0.61029 0.0
C201 C 0.7817 0.11266 0.67628 0.0
C202 C 0.77888 0.15206 0.54472 0.0
C203 C 0.81835 0.15432 0.54382 0.0
C204 C 0.83914 0.13547 0.61029 0.0
C205 C 0.82109 0.11482 0.67529 0.0
C206 C 0.88967 0.18275 0.37121 0.0
C207 C 0.87445 0.21617 0.33874 0.0
C208 C 0.87155 0.16284 0.43746 0.0
C209 C 0.83781 0.17591 0.47367 0.0
C210 C 0.82286 0.20964 0.44192 0.0
C211 C 0.84089 0.22945 0.37519 0.0
H212 H 0.86117 0.24008 0.81697 0.0
H213 H 0.85827 0.33147 0.01181 0.0
H214 H 0.81399 0.27091 0.72369 0.0
H215 H 0.81172 0.36323 0.9171 0.0
H216 H 0.7964 0.42593 0.64336 0.0
H217 H 0.82246 0.39216 0.77033 0.0
H218 H 0.75046 0.2975 0.70017 0.0
H219 H 0.72423 0.33138 0.57282 0.0
C220 C 0.84918 0.26612 0.84133 0.0
C221 C 0.86295 0.2834 0.92143 0.0
C222 C 0.82221 0.28384 0.78799 0.0
C223 C 0.80931 0.31967 0.81272 0.0
C224 C 0.82119 0.33567 0.89631 0.0
C225 C 0.84753 0.31742 0.95086 0.0
C226 C 0.7857 0.39814 0.65575 0.0
C227 C 0.75864 0.38115 0.59727 0.0
C228 C 0.80034 0.37892 0.72921 0.0
C229 C 0.78851 0.34214 0.74542 0.0
C230 C 0.7602 0.32576 0.68931 0.0
C231 C 0.74523 0.34518 0.61631 0.0
H232 H 0.74163 0.33343 0.25412 0.0
H233 H 0.7519 0.39723 0.01326 0.0
H234 H 0.72661 0.27742 0.16114 0.0
H235 H 0.73469 0.34297 0.92214 0.0
H236 H 0.67311 0.26783 0.76369 0.0
H237 H 0.72955 0.28256 0.85558 0.0
H238 H 0.66534 0.27169 0.09599 0.0
H239 H 0.61042 0.25531 0.00553 0.0
C240 C 0.74164 0.33529 0.18156 0.0
C241 C 0.74606 0.37001 0.14092 0.0
C242 C 0.73292 0.30329 0.12828 0.0
C243 C 0.72766 0.30598 0.03436 0.0
C244 C 0.73795 0.33951 0.99402 0.0
C245 C 0.7472 0.37109 0.04674 0.0
C246 C 0.67165 0.26707 0.83627 0.0
C247 C 0.6371 0.26225 0.8777 0.0
C248 C 0.70393 0.27553 0.88894 0.0
C249 C 0.7017 0.27996 0.98313 0.0
C250 C 0.66843 0.269 0.02398 0.0
C251 C 0.63648 0.26024 0.97175 0.0
H252 H 0.69587 0.14642 0.01256 0.0
H253 H 0.74851 0.10244 0.25212 0.0
H254 H 0.66359 0.1935 0.10609 0.0
H255 H 0.71676 0.14911 0.3441 0.0
H256 H 0.60071 0.17888 0.45615 0.0
H257 H 0.63918 0.14558 0.34824 0.0
H258 H 0.67878 0.2505 0.24853 0.0
H259 H 0.64022 0.28451 0.35742 0.0
C260 C 0.70159 0.14771 0.08448 0.0
C261 C 0.72411 0.12049 0.12549 0.0
C262 C 0.68316 0.17454 0.13776 0.0
C263 C 0.6874 0.17432 0.23201 0.0
C264 C 0.71274 0.14943 0.27162 0.0
C265 C 0.73088 0.12278 0.21895 0.0
C266 C 0.61724 0.19506 0.41082 0.0
C267 C 0.61757 0.23439 0.41591 0.0
C268 C 0.63931 0.17594 0.34921 0.0
C269 C 0.66197 0.19561 0.29066 0.0
C270 C 0.66135 0.23487 0.29274 0.0
C271 C 0.63942 0.25418 0.35529 0.0
H272 H 0.36771 0.48448 0.36153 0.0
H273 H 0.35567 0.49097 0.64959 0.0
H274 H 0.42746 0.45131 0.3828 0.0
H275 H 0.41416 0.45818 0.67075 0.0
H276 H 0.52098 0.40917 0.7136 0.0
H277 H 0.48128 0.45934 0.65827 0.0
H278 H 0.44325 0.3876 0.43521 0.0
H279 H 0.48442 0.33798 0.48871 0.0
C280 C 0.37819 0.4795 0.42918 0.0
C281 C 0.3569 0.48989 0.5039 0.0
C282 C 0.41222 0.46043 0.44135 0.0
C283 C 0.42568 0.45216 0.52846 0.0
C284 C 0.40516 0.46455 0.60276 0.0
C285 C 0.37127 0.48304 0.59062 0.0
C286 C 0.50512 0.40464 0.65102 0.0
C287 C 0.50515 0.36955 0.60631 0.0
C288 C 0.48227 0.43328 0.61948 0.0
C289 C 0.45825 0.42707 0.54388 0.0
C290 C 0.46136 0.39332 0.49368 0.0
C291 C 0.48486 0.36481 0.52445 0.0
H292 H 0.6702 0.98921 0.72934 0.0
H293 H 0.66275 0.92421 0.96923 0.0
H294 H 0.62102 0.94991 0.65657 0.0
H295 H 0.61513 0.88462 0.89641 0.0
H296 H 0.50861 0.83536 0.77385 0.0
H297 H 0.55203 0.88117 0.84464 0.0
H298 H 0.6109 0.88846 0.59542 0.0
H299 H 0.56694 0.84406 0.52433 0.0
C300 C 0.65824 0.96653 0.76635 0.0
C301 C 0.67047 0.95998 0.85509 0.0
C302 C 0.63012 0.94388 0.72468 0.0
C303 C 0.61383 0.91405 0.77067 0.0
C304 C 0.62622 0.90771 0.85935 0.0
C305 C 0.65395 0.93037 0.90094 0.0
C306 C 0.53068 0.84694 0.7342 0.0
C307 C 0.53429 0.83584 0.64359 0.0
C308 C 0.55575 0.87311 0.77476 0.0
C309 C 0.58524 0.88852 0.72595 0.0
C310 C 0.58833 0.87779 0.63494 0.0
C311 C 0.56316 0.85196 0.59433 0.0
H312 H 0.00713 0.15045 0.84601 0.0
H313 H 0.01207 0.13368 0.13254 0.0
H314 H 0.04199 0.09362 0.82092 0.0
H315 H 0.04704 0.07542 0.10721 0.0
H316 H 0.16235 0.02259 0.00799 0.0
H317 H 0.11096 0.06186 0.05951 0.0
H318 H 0.04422 0.02717 0.8246 0.0
H319 H 0.09629 0.98955 0.77128 0.0
C320 C 0.0151 0.13412 0.90375 0.0
C321 C 0.00728 0.14679 0.99132 0.0
C322 C 0.0348 0.10113 0.8893 0.0
C323 C 0.04738 0.07977 0.96204 0.0
C324 C 0.03794 0.09137 0.04978 0.0
C325 C 0.01778 0.12455 0.06428 0.0
C326 C 0.13626 0.02256 0.96885 0.0
C327 C 0.13351 0.00378 0.88472 0.0
C328 C 0.10671 0.04495 0.99853 0.0
C329 C 0.0738 0.04843 0.94498 0.0
C330 C 0.06961 0.02599 0.86612 0.0
C331 C 0.09933 0.0043 0.8357 0.0
H332 H 0.9898 0.66092 0.3887 0.0
H333 H 0.95788 0.67347 0.10954 0.0
H334 H 0.94472 0.60997 0.39996 0.0
H335 H 0.91036 0.62467 0.12155 0.0
H336 H 0.83929 0.52307 0.14527 0.0
H337 H 0.89408 0.56336 0.13426 0.0
H338 H 0.88194 0.59929 0.4124 0.0
H339 H 0.829 0.55625 0.42421 0.0
C340 C 0.97293 0.6526 0.32971 0.0
C341 C 0.97707 0.67091 0.24829 0.0
C342 C 0.94675 0.62369 0.33627 0.0
C343 C 0.92321 0.61327 0.26222 0.0
C344 C 0.92824 0.63121 0.17988 0.0
C345 C 0.95532 0.65939 0.17272 0.0
C346 C 0.84887 0.53931 0.20419 0.0
C347 C 0.83011 0.53688 0.28546 0.0
C348 C 0.88004 0.56273 0.1978 0.0
C349 C 0.89243 0.58528 0.27187 0.0
C350 C 0.87388 0.58205 0.35406 0.0
C351 C 0.84333 0.55762 0.36106 0.0
H352 H 0.30578 0.06509 0.63335 0.0
H353 H 0.3415 0.03742 0.90356 0.0
H354 H 0.35721 0.10982 0.62645 0.0
H355 H 0.3933 0.08259 0.89625 0.0
H356 H 0.44175 0.20436 0.87881 0.0
H357 H 0.39647 0.15342 0.88767 0.0
H358 H 0.42814 0.11162 0.62566 0.0
H359 H 0.47374 0.16281 0.61638 0.0
C360 C 0.32466 0.06849 0.69132 0.0
C361 C 0.31939 0.04792 0.76939 0.0
C362 C 0.35435 0.09387 0.68689 0.0
C363 C 0.37924 0.09955 0.76065 0.0
C364 C 0.37433 0.07879 0.83856 0.0
C365 C 0.34478 0.05297 0.84267 0.0
C366 C 0.43922 0.18427 0.82304 0.0
C367 C 0.46111 0.18779 0.74643 0.0
C368 C 0.41352 0.15491 0.82867 0.0
C369 C 0.40888 0.12862 0.75747 0.0
C370 C 0.43109 0.13171 0.68131 0.0
C371 C 0.45718 0.16093 0.67604 0.0
H372 H 0.8533 0.97659 0.1736 0.0
H373 H 0.87427 0.9788 0.88921 0.0
H374 H 0.9112 0.94349 0.19947 0.0
H375 H 0.93365 0.94547 0.91548 0.0
H376 H 0.99168 0.83127 0.00883 0.0
H377 H 0.94974 0.88092 0.95881 0.0
H378 H 0.97816 0.94583 0.2007 0.0
H379 H 0.01849 0.8955 0.25225 0.0
C380 C 0.87074 0.9705 0.11655 0.0
C381 C 0.85902 0.97992 0.02923 0.0
C382 C 0.90432 0.95183 0.13155 0.0
C383 C 0.92729 0.94186 0.05962 0.0
C384 C 0.91647 0.95264 0.97225 0.0
C385 C 0.88267 0.97185 0.95725 0.0
C386 C 0.9897 0.85664 0.04996 0.0
C387 C 0.00759 0.85927 0.13528 0.0
C388 C 0.9658 0.88519 0.02114 0.0
C389 C 0.95988 0.91696 0.07682 0.0
C390 C 0.98127 0.92125 0.1574 0.0
C391 C 0.00448 0.8925 0.18685 0.0
H392 H 0.00838 0.3344 0.28601 0.0
H393 H 0.06527 0.34149 0.03418 0.0
H394 H 0.05114 0.3819 0.35264 0.0
H395 H 0.10853 0.3875 0.10102 0.0
H396 H 0.16491 0.49171 0.22157 0.0
H397 H 0.11652 0.44981 0.15537 0.0
H398 H 0.11418 0.38927 0.40301 0.0
H399 H 0.16106 0.43167 0.46956 0.0
C400 C 0.03003 0.34594 0.24503 0.0
C401 C 0.03332 0.33404 0.15485 0.0
C402 C 0.05471 0.37309 0.2832 0.0
C403 C 0.08347 0.3887 0.23231 0.0
C404 C 0.08644 0.37683 0.14201 0.0
C405 C 0.06167 0.35006 0.10383 0.0
C406 C 0.15389 0.46955 0.26179 0.0
C407 C 0.16697 0.46512 0.35078 0.0
C408 C 0.12624 0.44536 0.22384 0.0
C409 C 0.11128 0.41598 0.27373 0.0
C410 C 0.12432 0.41187 0.36287 0.0
C411 C 0.15159 0.43614 0.40088 0.0
H412 H 0.5105 0.65134 0.33812 0.0
H413 H 0.51272 0.63711 0.6256 0.0
H414 H 0.54629 0.59478 0.31804 0.0
H415 H 0.54862 0.57909 0.60538 0.0
H416 H 0.66537 0.52604 0.5159 0.0
H417 H 0.61318 0.56554 0.56233 0.0
H418 H 0.54914 0.5286 0.32502 0.0
H419 H 0.60203 0.49095 0.27675 0.0
C420 C 0.51805 0.6356 0.39712 0.0
C421 C 0.5092 0.64893 0.4835 0.0
C422 C 0.53831 0.60277 0.38556 0.0
C423 C 0.55041 0.5822 0.46011 0.0
C424 C 0.53992 0.59443 0.54662 0.0
C425 C 0.51921 0.62746 0.55819 0.0
C426 C 0.63969 0.52565 0.4752 0.0
C427 C 0.63789 0.5062 0.3919 0.0
C428 C 0.60969 0.54814 0.50191 0.0
C429 C 0.57731 0.55099 0.44618 0.0
C430 C 0.5741 0.52793 0.36815 0.0
C431 C 0.60428 0.50622 0.34061 0.0
loop_
_geom_bond_atom_site_label_1
_geom_bond_atom_site_label_2
_geom_bond_distance
_geom_bond_site_symmetry_2
_ccdc_geom_bond_type
Zn0 O3 2.031 . S
Zn0 O5 2.049 . S
Zn0 O10 2.067 . S
Zn1 O2 1.962 . S
Zn1 O4 1.986 . S
Zn1 O6 1.996 . S
Zn1 O9 1.943 . S
O2 Zn1 1.962 . S
O2 C7 1.254 . S
O3 Zn0 2.031 . S
O3 C7 1.269 . S
O4 Zn1 1.986 . S
O4 C11 1.262 . S
O5 Zn0 2.049 . S
O5 C13 1.260 . S
O6 Zn1 1.996 . S
O6 C13 1.257 . S
C7 O2 1.254 . S
C7 O3 1.269 . S
C8 O9 1.249 . S
C8 O10 1.270 . S
O9 Zn1 1.943 . S
O9 C8 1.249 . S
O10 Zn0 2.067 . S
O10 C8 1.270 . S
C11 O4 1.262 . S
C11 O12 1.232 . S
O12 C11 1.232 . S
C13 O5 1.260 . S
C13 O6 1.257 . S
Zn14 O17 2.031 . S
Zn14 O19 2.049 . S
Zn14 O24 2.067 . S
Zn15 O16 1.962 . S
Zn15 O18 1.986 . S
Zn15 O20 1.996 . S
Zn15 O23 1.943 . S
O16 Zn15 1.962 . S
O16 C21 1.254 . S
O17 Zn14 2.031 . S
O17 C21 1.269 . S
O18 Zn15 1.986 . S
O18 C25 1.262 . S
O19 Zn14 2.049 . S
O19 C27 1.260 . S
O20 Zn15 1.996 . S
O20 C27 1.257 . S
C21 O16 1.254 . S
C21 O17 1.269 . S
C22 O23 1.249 . S
C22 O24 1.270 . S
O23 Zn15 1.943 . S
O23 C22 1.249 . S
O24 Zn14 2.067 . S
O24 C22 1.270 . S
C25 O18 1.262 . S
C25 O26 1.232 . S
O26 C25 1.232 . S
C27 O19 1.260 . S
C27 O20 1.257 . S
Zn28 O31 2.031 1_545 S
Zn28 O33 2.049 . S
Zn28 O38 2.067 . S
Zn29 O30 1.962 . S
Zn29 O32 1.986 . S
Zn29 O34 1.996 . S
Zn29 O37 1.943 . S
O30 Zn29 1.962 . S
O30 C35 1.254 . S
O31 Zn28 2.031 1_565 S
O31 C35 1.269 . S
O32 Zn29 1.986 . S
O32 C39 1.262 1_556 S
O33 Zn28 2.049 . S
O33 C41 1.260 . S
O34 Zn29 1.996 . S
O34 C41 1.257 1_565 S
C35 O30 1.254 . S
C35 O31 1.269 . S
C36 O37 1.249 1_545 S
C36 O38 1.270 . S
O37 Zn29 1.943 . S
O37 C36 1.249 1_565 S
O38 Zn28 2.067 . S
O38 C36 1.270 . S
C39 O32 1.262 1_554 S
C39 O40 1.232 1_554 S
O40 C39 1.232 1_556 S
C41 O33 1.260 . S
C41 O34 1.257 1_545 S
Zn42 O45 2.031 1_655 S
Zn42 O47 2.049 . S
Zn42 O52 2.067 . S
Zn43 O44 1.962 . S
Zn43 O46 1.986 . S
Zn43 O48 1.996 . S
Zn43 O51 1.943 . S
O44 Zn43 1.962 . S
O44 C49 1.254 . S
O45 Zn42 2.031 1_455 S
O45 C49 1.269 . S
O46 Zn43 1.986 . S
O46 C53 1.262 1_554 S
O47 Zn42 2.049 . S
O47 C55 1.260 . S
O48 Zn43 1.996 . S
O48 C55 1.257 1_455 S
C49 O44 1.254 . S
C49 O45 1.269 . S
C50 O51 1.249 1_655 S
C50 O52 1.270 . S
O51 Zn43 1.943 . S
O51 C50 1.249 1_455 S
O52 Zn42 2.067 . S
O52 C50 1.270 . S
C53 O46 1.262 1_556 S
C53 O54 1.232 1_556 S
O54 C53 1.232 1_554 S
C55 O47 1.260 . S
C55 O48 1.257 1_655 S
Zn56 O59 2.031 1_565 S
Zn56 O61 2.049 . S
Zn56 O66 2.067 1_554 S
Zn57 O58 1.962 . S
Zn57 O60 1.986 . S
Zn57 O62 1.996 . S
Zn57 O65 1.943 . S
O58 Zn57 1.962 . S
O58 C63 1.254 1_556 S
O59 Zn56 2.031 1_545 S
O59 C63 1.269 . S
O60 Zn57 1.986 . S
O60 C67 1.262 . S
O61 Zn56 2.049 . S
O61 C69 1.260 1_554 S
O62 Zn57 1.996 . S
O62 C69 1.257 1_545 S
C63 O58 1.254 1_554 S
C63 O59 1.269 . S
C64 O65 1.249 1_565 S
C64 O66 1.270 . S
O65 Zn57 1.943 . S
O65 C64 1.249 1_545 S
O66 Zn56 2.067 1_556 S
O66 C64 1.270 . S
C67 O60 1.262 . S
C67 O68 1.232 . S
O68 C67 1.232 . S
C69 O61 1.260 1_556 S
C69 O62 1.257 1_565 S
Zn70 O73 2.031 1_455 S
Zn70 O75 2.049 . S
Zn70 O80 2.067 1_556 S
Zn71 O72 1.962 . S
Zn71 O74 1.986 . S
Zn71 O76 1.996 . S
Zn71 O79 1.943 . S
O72 Zn71 1.962 . S
O72 C77 1.254 1_554 S
O73 Zn70 2.031 1_655 S
O73 C77 1.269 . S
O74 Zn71 1.986 . S
O74 C81 1.262 . S
O75 Zn70 2.049 . S
O75 C83 1.260 1_556 S
O76 Zn71 1.996 . S
O76 C83 1.257 1_655 S
C77 O72 1.254 1_556 S
C77 O73 1.269 . S
C78 O79 1.249 1_455 S
C78 O80 1.270 . S
O79 Zn71 1.943 . S
O79 C78 1.249 1_655 S
O80 Zn70 2.067 1_554 S
O80 C78 1.270 . S
C81 O74 1.262 . S
C81 O82 1.232 . S
O82 C81 1.232 . S
C83 O75 1.260 1_554 S
C83 O76 1.257 1_455 S
Zn84 O87 2.031 . S
Zn84 O89 2.049 . S
Zn84 O94 2.067 . S
Zn85 O86 1.962 . S
Zn85 O88 1.986 . S
Zn85 O90 1.996 . S
Zn85 O93 1.943 . S
O86 Zn85 1.962 . S
O86 C91 1.254 . S
O87 Zn84 2.031 . S
O87 C91 1.269 . S
O88 Zn85 1.986 . S
O88 C95 1.262 . S
O89 Zn84 2.049 . S
O89 C97 1.260 . S
O90 Zn85 1.996 . S
O90 C97 1.257 . S
C91 O86 1.254 . S
C91 O87 1.269 . S
C92 O93 1.249 . S
C92 O94 1.270 . S
O93 Zn85 1.943 . S
O93 C92 1.249 . S
O94 Zn84 2.067 . S
O94 C92 1.270 . S
C95 O88 1.262 . S
C95 O96 1.232 . S
O96 C95 1.232 . S
C97 O89 1.260 . S
C97 O90 1.257 . S
Zn98 O101 2.031 . S
Zn98 O103 2.049 . S
Zn98 O108 2.067 . S
Zn99 O100 1.962 . S
Zn99 O102 1.986 . S
Zn99 O104 1.996 . S
Zn99 O107 1.943 . S
O100 Zn99 1.962 . S
O100 C105 1.254 . S
O101 Zn98 2.031 . S
O101 C105 1.269 . S
O102 Zn99 1.986 . S
O102 C109 1.262 . S
O103 Zn98 2.049 . S
O103 C111 1.260 . S
O104 Zn99 1.996 . S
O104 C111 1.257 . S
C105 O100 1.254 . S
C105 O101 1.269 . S
C106 O107 1.249 . S
C106 O108 1.270 . S
O107 Zn99 1.943 . S
O107 C106 1.249 . S
O108 Zn98 2.067 . S
O108 C106 1.270 . S
C109 O102 1.262 . S
C109 O110 1.232 . S
O110 C109 1.232 . S
C111 O103 1.260 . S
C111 O104 1.257 . S
H112 C120 0.950 . S
H113 C125 0.950 . S
H114 C122 0.950 . S
H115 C124 0.950 . S
H116 C126 0.950 . S
H117 C128 0.950 . S
H118 C130 0.950 . S
H119 C131 0.950 . S
C120 H112 0.950 . S
C120 C121 1.386 . S
C120 C122 1.391 . S
C121 C120 1.386 . S
C121 C125 1.393 . S
C122 H114 0.950 . S
C122 C120 1.391 . S
C122 C123 1.400 . S
C123 C122 1.400 . S
C123 C124 1.398 . S
C123 C129 1.491 1_556 S
C124 H115 0.950 . S
C124 C123 1.398 . S
C124 C125 1.391 . S
C125 H113 0.950 . S
C125 C121 1.393 . S
C125 C124 1.391 . S
C126 H116 0.950 . S
C126 C127 1.386 . S
C126 C128 1.391 . S
C127 C126 1.386 . S
C127 C131 1.393 . S
C128 H117 0.950 . S
C128 C126 1.391 . S
C128 C129 1.400 . S
C129 C123 1.491 1_554 S
C129 C128 1.400 . S
C129 C130 1.398 . S
C130 H118 0.950 . S
C130 C129 1.398 . S
C130 C131 1.391 . S
C131 H119 0.950 . S
C131 C127 1.393 . S
C131 C130 1.391 . S
H132 C140 0.950 . S
H133 C145 0.950 . S
H134 C142 0.950 . S
H135 C144 0.950 . S
H136 C146 0.950 . S
H137 C148 0.950 . S
H138 C150 0.950 . S
H139 C151 0.950 . S
C140 H132 0.950 . S
C140 C141 1.386 . S
C140 C142 1.391 . S
C141 C140 1.386 . S
C141 C145 1.393 . S
C142 H134 0.950 . S
C142 C140 1.391 . S
C142 C143 1.400 . S
C143 C142 1.400 . S
C143 C144 1.398 . S
C143 C149 1.491 . S
C144 H135 0.950 . S
C144 C143 1.398 . S
C144 C145 1.391 . S
C145 H133 0.950 . S
C145 C141 1.393 . S
C145 C144 1.391 . S
C146 H136 0.950 . S
C146 C147 1.386 . S
C146 C148 1.391 . S
C147 C146 1.386 . S
C147 C151 1.393 . S
C148 H137 0.950 . S
C148 C146 1.391 . S
C148 C149 1.400 . S
C149 C143 1.491 . S
C149 C148 1.400 . S
C149 C150 1.398 . S
C150 H138 0.950 . S
C150 C149 1.398 . S
C150 C151 1.391 . S
C151 H139 0.950 . S
C151 C147 1.393 . S
C151 C150 1.391 . S
H152 C160 0.950 . S
H153 C165 0.950 . S
H154 C162 0.950 . S
H155 C164 0.950 . S
H156 C166 0.950 . S
H157 C168 0.950 . S
H158 C170 0.950 . S
H159 C171 0.950 . S
C160 H152 0.950 . S
C160 C161 1.386 . S
C160 C162 1.391 . S
C161 C160 1.386 . S
C161 C165 1.393 . S
C162 H154 0.950 . S
C162 C160 1.391 . S
C162 C163 1.400 . S
C163 C162 1.400 . S
C163 C164 1.398 . S
C163 C169 1.491 . S
C164 H155 0.950 . S
C164 C163 1.398 . S
C164 C165 1.391 . S
C165 H153 0.950 . S
C165 C161 1.393 . S
C165 C164 1.391 . S
C166 H156 0.950 . S
C166 C167 1.386 . S
C166 C168 1.391 . S
C167 C166 1.386 . S
C167 C171 1.393 . S
C168 H157 0.950 . S
C168 C166 1.391 . S
C168 C169 1.400 . S
C169 C163 1.491 . S
C169 C168 1.400 . S
C169 C170 1.398 . S
C170 H158 0.950 . S
C170 C169 1.398 . S
C170 C171 1.391 . S
C171 H159 0.950 . S
C171 C167 1.393 . S
C171 C170 1.391 . S
H172 C180 0.950 . S
H173 C185 0.950 . S
H174 C182 0.950 . S
H175 C184 0.950 . S
H176 C186 0.950 . S
H177 C188 0.950 . S
H178 C190 0.950 . S
H179 C191 0.950 . S
C180 H172 0.950 . S
C180 C181 1.386 . S
C180 C182 1.391 . S
C181 C180 1.386 . S
C181 C185 1.393 . S
C182 H174 0.950 . S
C182 C180 1.391 . S
C182 C183 1.400 . S
C183 C182 1.400 . S
C183 C184 1.398 . S
C183 C189 1.491 . S
C184 H175 0.950 . S
C184 C183 1.398 . S
C184 C185 1.391 . S
C185 H173 0.950 . S
C185 C181 1.393 . S
C185 C184 1.391 . S
C186 H176 0.950 . S
C186 C187 1.386 . S
C186 C188 1.391 . S
C187 C186 1.386 . S
C187 C191 1.393 . S
C188 H177 0.950 . S
C188 C186 1.391 . S
C188 C189 1.400 . S
C189 C183 1.491 . S
C189 C188 1.400 . S
C189 C190 1.398 . S
C190 H178 0.950 . S
C190 C189 1.398 . S
C190 C191 1.391 . S
C191 H179 0.950 . S
C191 C187 1.393 . S
C191 C190 1.391 . S
H192 C200 0.950 . S
H193 C205 0.950 . S
H194 C202 0.950 . S
H195 C204 0.950 . S
H196 C206 0.950 . S
H197 C208 0.950 . S
H198 C210 0.950 . S
H199 C211 0.950 . S
C200 H192 0.950 . S
C200 C201 1.386 . S
C200 C202 1.391 . S
C201 C200 1.386 . S
C201 C205 1.393 . S
C202 H194 0.950 . S
C202 C200 1.391 . S
C202 C203 1.400 . S
C203 C202 1.400 . S
C203 C204 1.398 . S
C203 C209 1.491 . S
C204 H195 0.950 . S
C204 C203 1.398 . S
C204 C205 1.391 . S
C205 H193 0.950 . S
C205 C201 1.393 . S
C205 C204 1.391 . S
C206 H196 0.950 . S
C206 C207 1.386 . S
C206 C208 1.391 . S
C207 C206 1.386 . S
C207 C211 1.393 . S
C208 H197 0.950 . S
C208 C206 1.391 . S
C208 C209 1.400 . S
C209 C203 1.491 . S
C209 C208 1.400 . S
C209 C210 1.398 . S
C210 H198 0.950 . S
C210 C209 1.398 . S
C210 C211 1.391 . S
C211 H199 0.950 . S
C211 C207 1.393 . S
C211 C210 1.391 . S
H212 C220 0.950 . S
H213 C225 0.950 . S
H214 C222 0.950 . S
H215 C224 0.950 . S
H216 C226 0.950 . S
H217 C228 0.950 . S
H218 C230 0.950 . S
H219 C231 0.950 . S
C220 H212 0.950 . S
C220 C221 1.386 . S
C220 C222 1.391 . S
C221 C220 1.386 . S
C221 C225 1.393 . S
C222 H214 0.950 . S
C222 C220 1.391 . S
C222 C223 1.400 . S
C223 C222 1.400 . S
C223 C224 1.398 . S
C223 C229 1.491 . S
C224 H215 0.950 . S
C224 C223 1.398 . S
C224 C225 1.391 . S
C225 H213 0.950 . S
C225 C221 1.393 . S
C225 C224 1.391 . S
C226 H216 0.950 . S
C226 C227 1.386 . S
C226 C228 1.391 . S
C227 C226 1.386 . S
C227 C231 1.393 . S
C228 H217 0.950 . S
C228 C226 1.391 . S
C228 C229 1.400 . S
C229 C223 1.491 . S
C229 C228 1.400 . S
C229 C230 1.398 . S
C230 H218 0.950 . S
C230 C229 1.398 . S
C230 C231 1.391 . S
C231 H219 0.950 . S
C231 C227 1.393 . S
C231 C230 1.391 . S
H232 C240 0.950 . S
H233 C245 0.950 . S
H234 C242 0.950 . S
H235 C244 0.950 . S
H236 C246 0.950 . S
H237 C248 0.950 . S
H238 C250 0.950 . S
H239 C251 0.950 . S
C240 H232 0.950 . S
C240 C241 1.386 . S
C240 C242 1.391 . S
C241 C240 1.386 . S
C241 C245 1.393 . S
C242 H234 0.950 . S
C242 C240 1.391 . S
C242 C243 1.400 . S
C243 C242 1.400 . S
C243 C244 1.398 . S
C243 C249 1.491 1_554 S
C244 H235 0.950 . S
C244 C243 1.398 . S
C244 C245 1.391 . S
C245 H233 0.950 . S
C245 C241 1.393 . S
C245 C244 1.391 . S
C246 H236 0.950 . S
C246 C247 1.386 . S
C246 C248 1.391 . S
C247 C246 1.386 . S
C247 C251 1.393 . S
C248 H237 0.950 . S
C248 C246 1.391 . S
C248 C249 1.400 . S
C249 C243 1.491 1_556 S
C249 C248 1.400 . S
C249 C250 1.398 . S
C250 H238 0.950 . S
C250 C249 1.398 . S
C250 C251 1.391 . S
C251 H239 0.950 . S
C251 C247 1.393 . S
C251 C250 1.391 . S
H252 C260 0.950 1_556 S
H253 C265 0.950 . S
H254 C262 0.950 . S
H255 C264 0.950 . S
H256 C266 0.950 . S
H257 C268 0.950 . S
H258 C270 0.950 . S
H259 C271 0.950 . S
C260 H252 0.950 1_554 S
C260 C261 1.386 . S
C260 C262 1.391 . S
C261 C260 1.386 . S
C261 C265 1.393 . S
C262 H254 0.950 . S
C262 C260 1.391 . S
C262 C263 1.400 . S
C263 C262 1.400 . S
C263 C264 1.398 . S
C263 C269 1.491 . S
C264 H255 0.950 . S
C264 C263 1.398 . S
C264 C265 1.391 . S
C265 H253 0.950 . S
C265 C261 1.393 . S
C265 C264 1.391 . S
C266 H256 0.950 . S
C266 C267 1.386 . S
C266 C268 1.391 . S
C267 C266 1.386 . S
C267 C271 1.393 . S
C268 H257 0.950 . S
C268 C266 1.391 . S
C268 C269 1.400 . S
C269 C263 1.491 . S
C269 C268 1.400 . S
C269 C270 1.398 . S
C270 H258 0.950 . S
C270 C269 1.398 . S
C270 C271 1.391 . S
C271 H259 0.950 . S
C271 C267 1.393 . S
C271 C270 1.391 . S
H272 C280 0.950 . S
H273 C285 0.950 . S
H274 C282 0.950 . S
H275 C284 0.950 . S
H276 C286 0.950 . S
H277 C288 0.950 . S
H278 C290 0.950 . S
H279 C291 0.950 . S
C280 H272 0.950 . S
C280 C281 1.386 . S
C280 C282 1.391 . S
C281 C280 1.386 . S
C281 C285 1.393 . S
C282 H274 0.950 . S
C282 C280 1.391 . S
C282 C283 1.400 . S
C283 C282 1.400 . S
C283 C284 1.398 . S
C283 C289 1.491 . S
C284 H275 0.950 . S
C284 C283 1.398 . S
C284 C285 1.391 . S
C285 H273 0.950 . S
C285 C281 1.393 . S
C285 C284 1.391 . S
C286 H276 0.950 . S
C286 C287 1.386 . S
C286 C288 1.391 . S
C287 C286 1.386 . S
C287 C291 1.393 . S
C288 H277 0.950 . S
C288 C286 1.391 . S
C288 C289 1.400 . S
C289 C283 1.491 . S
C289 C288 1.400 . S
C289 C290 1.398 . S
C290 H278 0.950 . S
C290 C289 1.398 . S
C290 C291 1.391 . S
C291 H279 0.950 . S
C291 C287 1.393 . S
C291 C290 1.391 . S
H292 C300 0.950 . S
H293 C305 0.950 1_545 S
H294 C302 0.950 . S
H295 C304 0.950 . S
H296 C306 0.950 . S
H297 C308 0.950 . S
H298 C310 0.950 . S
H299 C311 0.950 . S
C300 H292 0.950 . S
C300 C301 1.386 . S
C300 C302 1.391 . S
C301 C300 1.386 . S
C301 C305 1.393 . S
C302 H294 0.950 . S
C302 C300 1.391 . S
C302 C303 1.400 . S
C303 C302 1.400 . S
C303 C304 1.398 . S
C303 C309 1.491 . S
C304 H295 0.950 . S
C304 C303 1.398 . S
C304 C305 1.391 . S
C305 H293 0.950 1_565 S
C305 C301 1.393 . S
C305 C304 1.391 . S
C306 H296 0.950 . S
C306 C307 1.386 . S
C306 C308 1.391 . S
C307 C306 1.386 . S
C307 C311 1.393 . S
C308 H297 0.950 . S
C308 C306 1.391 . S
C308 C309 1.400 . S
C309 C303 1.491 . S
C309 C308 1.400 . S
C309 C310 1.398 . S
C310 H298 0.950 . S
C310 C309 1.398 . S
C310 C311 1.391 . S
C311 H299 0.950 . S
C311 C307 1.393 . S
C311 C310 1.391 . S
H312 C320 0.950 . S
H313 C325 0.950 . S
H314 C322 0.950 . S
H315 C324 0.950 . S
H316 C326 0.950 . S
H317 C328 0.950 . S
H318 C330 0.950 . S
H319 C331 0.950 . S
C320 H312 0.950 . S
C320 C321 1.386 1_556 S
C320 C322 1.391 . S
C321 C320 1.386 1_554 S
C321 C325 1.393 . S
C322 H314 0.950 . S
C322 C320 1.391 . S
C322 C323 1.400 1_556 S
C323 C322 1.400 1_554 S
C323 C324 1.398 . S
C323 C329 1.491 1_554 S
C324 H315 0.950 . S
C324 C323 1.398 . S
C324 C325 1.391 . S
C325 H313 0.950 . S
C325 C321 1.393 . S
C325 C324 1.391 . S
C326 H316 0.950 . S
C326 C327 1.386 1_554 S
C326 C328 1.391 . S
C327 C326 1.386 1_556 S
C327 C331 1.393 . S
C328 H317 0.950 . S
C328 C326 1.391 . S
C328 C329 1.400 1_554 S
C329 C323 1.491 1_556 S
C329 C328 1.400 1_556 S
C329 C330 1.398 . S
C330 H318 0.950 . S
C330 C329 1.398 . S
C330 C331 1.391 . S
C331 H319 0.950 . S
C331 C327 1.393 . S
C331 C330 1.391 . S
H332 C340 0.950 . S
H333 C345 0.950 . S
H334 C342 0.950 . S
H335 C344 0.950 . S
H336 C346 0.950 . S
H337 C348 0.950 . S
H338 C350 0.950 . S
H339 C351 0.950 . S
C340 H332 0.950 . S
C340 C341 1.386 . S
C340 C342 1.391 . S
C341 C340 1.386 . S
C341 C345 1.393 . S
C342 H334 0.950 . S
C342 C340 1.391 . S
C342 C343 1.400 . S
C343 C342 1.400 . S
C343 C344 1.398 . S
C343 C349 1.491 . S
C344 H335 0.950 . S
C344 C343 1.398 . S
C344 C345 1.391 . S
C345 H333 0.950 . S
C345 C341 1.393 . S
C345 C344 1.391 . S
C346 H336 0.950 . S
C346 C347 1.386 . S
C346 C348 1.391 . S
C347 C346 1.386 . S
C347 C351 1.393 . S
C348 H337 0.950 . S
C348 C346 1.391 . S
C348 C349 1.400 . S
C349 C343 1.491 . S
C349 C348 1.400 . S
C349 C350 1.398 . S
C350 H338 0.950 . S
C350 C349 1.398 . S
C350 C351 1.391 . S
C351 H339 0.950 . S
C351 C347 1.393 . S
C351 C350 1.391 . S
H352 C360 0.950 . S
H353 C365 0.950 1_565 S
H354 C362 0.950 . S
H355 C364 0.950 . S
H356 C366 0.950 . S
H357 C368 0.950 . S
H358 C370 0.950 . S
H359 C371 0.950 . S
C360 H352 0.950 . S
C360 C361 1.386 . S
C360 C362 1.391 . S
C361 C360 1.386 . S
C361 C365 1.393 . S
C362 H354 0.950 . S
C362 C360 1.391 . S
C362 C363 1.400 . S
C363 C362 1.400 . S
C363 C364 1.398 . S
C363 C369 1.491 . S
C364 H355 0.950 . S
C364 C363 1.398 . S
C364 C365 1.391 . S
C365 H353 0.950 1_545 S
C365 C361 1.393 . S
C365 C364 1.391 . S
C366 H356 0.950 . S
C366 C367 1.386 . S
C366 C368 1.391 . S
C367 C366 1.386 . S
C367 C371 1.393 . S
C368 H357 0.950 . S
C368 C366 1.391 . S
C368 C369 1.400 . S
C369 C363 1.491 . S
C369 C368 1.400 . S
C369 C370 1.398 . S
C370 H358 0.950 . S
C370 C369 1.398 . S
C370 C371 1.391 . S
C371 H359 0.950 . S
C371 C367 1.393 . S
C371 C370 1.391 . S
H372 C380 0.950 . S
H373 C385 0.950 . S
H374 C382 0.950 . S
H375 C384 0.950 . S
H376 C386 0.950 . S
H377 C388 0.950 . S
H378 C390 0.950 . S
H379 C391 0.950 . S
C380 H372 0.950 . S
C380 C381 1.386 1_554 S
C380 C382 1.391 . S
C381 C380 1.386 1_556 S
C381 C385 1.393 . S
C382 H374 0.950 . S
C382 C380 1.391 . S
C382 C383 1.400 1_554 S
C383 C382 1.400 1_556 S
C383 C384 1.398 . S
C383 C389 1.491 1_556 S
C384 H375 0.950 . S
C384 C383 1.398 . S
C384 C385 1.391 . S
C385 H373 0.950 . S
C385 C381 1.393 . S
C385 C384 1.391 . S
C386 H376 0.950 . S
C386 C387 1.386 1_556 S
C386 C388 1.391 . S
C387 C386 1.386 1_554 S
C387 C391 1.393 . S
C388 H377 0.950 . S
C388 C386 1.391 . S
C388 C389 1.400 1_556 S
C389 C383 1.491 1_554 S
C389 C388 1.400 1_554 S
C389 C390 1.398 . S
C390 H378 0.950 . S
C390 C389 1.398 . S
C390 C391 1.391 . S
C391 H379 0.950 . S
C391 C387 1.393 . S
C391 C390 1.391 . S
H392 C400 0.950 . S
H393 C405 0.950 1_655 S
H394 C402 0.950 . S
H395 C404 0.950 . S
H396 C406 0.950 . S
H397 C408 0.950 . S
H398 C410 0.950 . S
H399 C411 0.950 . S
C400 H392 0.950 . S
C400 C401 1.386 . S
C400 C402 1.391 . S
C401 C400 1.386 . S
C401 C405 1.393 . S
C402 H394 0.950 . S
C402 C400 1.391 . S
C402 C403 1.400 . S
C403 C402 1.400 . S
C403 C404 1.398 . S
C403 C409 1.491 . S
C404 H395 0.950 . S
C404 C403 1.398 . S
C404 C405 1.391 . S
C405 H393 0.950 1_455 S
C405 C401 1.393 . S
C405 C404 1.391 . S
C406 H396 0.950 . S
C406 C407 1.386 . S
C406 C408 1.391 . S
C407 C406 1.386 . S
C407 C411 1.393 . S
C408 H397 0.950 . S
C408 C406 1.391 . S
C408 C409 1.400 . S
C409 C403 1.491 . S
C409 C408 1.400 . S
C409 C410 1.398 . S
C410 H398 0.950 . S
C410 C409 1.398 . S
C410 C411 1.391 . S
C411 H399 0.950 . S
C411 C407 1.393 . S
C411 C410 1.391 . S
H412 C420 0.950 . S
H413 C425 0.950 . S
H414 C422 0.950 . S
H415 C424 0.950 . S
H416 C426 0.950 . S
H417 C428 0.950 . S
H418 C430 0.950 . S
H419 C431 0.950 . S
C420 H412 0.950 . S
C420 C421 1.386 . S
C420 C422 1.391 . S
C421 C420 1.386 . S
C421 C425 1.393 . S
C422 H414 0.950 . S
C422 C420 1.391 . S
C422 C423 1.400 . S
C423 C422 1.400 . S
C423 C424 1.398 . S
C423 C429 1.491 . S
C424 H415 0.950 . S
C424 C423 1.398 . S
C424 C425 1.391 . S
C425 H413 0.950 . S
C425 C421 1.393 . S
C425 C424 1.391 . S
C426 H416 0.950 . S
C426 C427 1.386 . S
C426 C428 1.391 . S
C427 C426 1.386 . S
C427 C431 1.393 . S
C428 H417 0.950 . S
C428 C426 1.391 . S
C428 C429 1.400 . S
C429 C423 1.491 . S
C429 C428 1.400 . S
C429 C430 1.398 . S
C430 H418 0.950 . S
C430 C429 1.398 . S
C430 C431 1.391 . S
C431 H419 0.950 . S
C431 C427 1.393 . S
C431 C430 1.391 . S
C121 C25 1.458 . S
C127 C11 1.458 . S
C141 C21 1.399 . S
C147 C39 1.412 . S
C161 C49 1.369 . S
C167 C35 1.375 . S
C181 C53 1.415 . S
C187 C7 1.392 . S
C201 C67 1.454 . S
C207 C81 1.454 . S
C221 C77 1.407 . S
C227 C95 1.413 . S
C241 C91 1.373 . S
C247 C105 1.375 . S
C261 C63 1.395 . S
C267 C109 1.413 . S
C281 C13 1.402 . S
C287 C106 1.399 . S
C301 C64 1.535 . S
C307 C22 1.533 . S
C321 C83 1.371 . S
C327 C36 1.425 . S
C341 C55 1.247 . S
C347 C97 1.270 . S
C361 C41 1.268 . S
C367 C111 1.262 . S
C381 C69 1.372 . S
C387 C50 1.425 . S
C401 C78 1.534 . S
C407 C8 1.533 . S
C421 C27 1.371 . S
C427 C92 1.424 . S
