# Generated by pormake.
# Topology fnz, (5)-cn, num edge types: 1
# Building blocks:
#     Node 0, Type 0, BuildingBlock: BEQFEK_clean_sbu_0, # of connection points: 5
#     Node 1, Type 0, BuildingBlock: BEQFEK_clean_sbu_0, # of connection points: 5
#     Node 2, Type 0, BuildingBlock: BEQFEK_clean_sbu_0, # of connection points: 5
#     Node 3, Type 0, BuildingBlock: BEQFEK_clean_sbu_0, # of connection points: 5
#     Node 4, Type 0, BuildingBlock: BEQFEK_clean_sbu_0, # of connection points: 5
#     Node 5, Type 0, BuildingBlock: BEQFEK_clean_sbu_0, # of connection points: 5
#     Node 6, Type 0, BuildingBlock: BEQFEK_clean_sbu_0, # of connection points: 5
#     Node 7, Type 0, BuildingBlock: BEQFEK_clean_sbu_0, # of connection points: 5
#     Node 8, Type 0, BuildingBlock: BEQFEK_clean_sbu_0, # of connection points: 5
#     Node 9, Type 0, BuildingBlock: BEQFEK_clean_sbu_0, # of connection points: 5
#     Node 10, Type 0, BuildingBlock: BEQFEK_clean_sbu_0, # of connection points: 5
#     Node 11, Type 0, BuildingBlock: BEQFEK_clean_sbu_0, # of connection points: 5
#     Edge 12, Type (0, 0), BuildingBlock: MIFKUJ_clean_linker_0, # of connection points: 2
#     Edge 13, Type (0, 0), BuildingBlock: MIFKUJ_clean_linker_0, # of connection points: 2
#     Edge 14, Type (0, 0), BuildingBlock: MIFKUJ_clean_linker_0, # of connection points: 2
#     Edge 15, Type (0, 0), BuildingBlock: MIFKUJ_clean_linker_0, # of connection points: 2
#     Edge 16, Type (0, 0), BuildingBlock: MIFKUJ_clean_linker_0, # of connection points: 2
#     Edge 17, Type (0, 0), BuildingBlock: MIFKUJ_clean_linker_0, # of connection points: 2
#     Edge 18, Type (0, 0), BuildingBlock: MIFKUJ_clean_linker_0, # of connection points: 2
#     Edge 19, Type (0, 0), BuildingBlock: MIFKUJ_clean_linker_0, # of connection points: 2
#     Edge 20, Type (0, 0), BuildingBlock: MIFKUJ_clean_linker_0, # of connection points: 2
#     Edge 21, Type (0, 0), BuildingBlock: MIFKUJ_clean_linker_0, # of connection points: 2
#     Edge 22, Type (0, 0), BuildingBlock: MIFKUJ_clean_linker_0, # of connection points: 2
#     Edge 23, Type (0, 0), BuildingBlock: MIFKUJ_clean_linker_0, # of connection points: 2
#     Edge 24, Type (0, 0), BuildingBlock: MIFKUJ_clean_linker_0, # of connection points: 2
#     Edge 25, Type (0, 0), BuildingBlock: MIFKUJ_clean_linker_0, # of connection points: 2
#     Edge 26, Type (0, 0), BuildingBlock: MIFKUJ_clean_linker_0, # of connection points: 2
#     Edge 27, Type (0, 0), BuildingBlock: MIFKUJ_clean_linker_0, # of connection points: 2
#     Edge 28, Type (0, 0), BuildingBlock: MIFKUJ_clean_linker_0, # of connection points: 2
#     Edge 29, Type (0, 0), BuildingBlock: MIFKUJ_clean_linker_0, # of connection points: 2
#     Edge 30, Type (0, 0), BuildingBlock: MIFKUJ_clean_linker_0, # of connection points: 2
#     Edge 31, Type (0, 0), BuildingBlock: MIFKUJ_clean_linker_0, # of connection points: 2
#     Edge 32, Type (0, 0), BuildingBlock: MIFKUJ_clean_linker_0, # of connection points: 2
#     Edge 33, Type (0, 0), BuildingBlock: MIFKUJ_clean_linker_0, # of connection points: 2
#     Edge 34, Type (0, 0), BuildingBlock: MIFKUJ_clean_linker_0, # of connection points: 2
#     Edge 35, Type (0, 0), BuildingBlock: MIFKUJ_clean_linker_0, # of connection points: 2
#     Edge 36, Type (0, 0), BuildingBlock: MIFKUJ_clean_linker_0, # of connection points: 2
#     Edge 37, Type (0, 0), BuildingBlock: MIFKUJ_clean_linker_0, # of connection points: 2
#     Edge 38, Type (0, 0), BuildingBlock: MIFKUJ_clean_linker_0, # of connection points: 2
#     Edge 39, Type (0, 0), BuildingBlock: MIFKUJ_clean_linker_0, # of connection points: 2
#     Edge 40, Type (0, 0), BuildingBlock: MIFKUJ_clean_linker_0, # of connection points: 2
#     Edge 41, Type (0, 0), BuildingBlock: MIFKUJ_clean_linker_0, # of connection points: 2
# Relax obj value: 0.275
# Max RMSD: 0.250
# Mean RMSD: 0.236
data_MOF--net-fnz--node1-BEQFEK_clean_sbu_0--edge1-MIFKUJ_clean_linker_0
_symmetry_space_group_name_H-M    P1
_symmetry_Int_Tables_number       1
_symmetry_cell_setting            triclinic
loop_
_symmetry_equiv_pos_as_xyz
'x, y, z'
_cell_length_a     48.897693
_cell_length_b     48.965877
_cell_length_c     44.727074
_cell_angle_alpha  89.88656
_cell_angle_beta   90.185532
_cell_angle_gamma 119.87405
loop_
_atom_site_label
_atom_site_type_symbol
_atom_site_fract_x
_atom_site_fract_y
_atom_site_fract_z
_atom_type_partial_charge
Co0 Co 0.46895 0.17572 0.05075 0.0
Co1 Co 0.46665 0.17287 0.97674 0.0
C2 C 0.50107 0.14749 0.01328 0.0
O3 O 0.49444 0.15579 0.03817 0.0
O4 O 0.49414 0.15494 0.98798 0.0
C5 C 0.49406 0.19651 0.11425 0.0
O6 O 0.52188 0.20405 0.1034 0.0
C7 C 0.47841 0.19053 0.90893 0.0
C8 C 0.42902 0.16383 0.89387 0.0
C9 C 0.45908 0.18433 0.88334 0.0
N10 N 0.46012 0.17478 0.93287 0.0
N11 N 0.43073 0.15872 0.92314 0.0
C12 C 0.51319 0.21227 0.91122 0.0
H13 H 0.5209 0.2156 0.93496 0.0
H14 H 0.51959 0.23539 0.90107 0.0
H15 H 0.52563 0.20206 0.89886 0.0
C16 C 0.47337 0.23549 0.0365 0.0
N17 N 0.47737 0.21161 0.02716 0.0
N18 N 0.47652 0.21076 0.99764 0.0
C19 C 0.47205 0.23425 0.98768 0.0
C20 C 0.46818 0.24963 0.01191 0.0
C21 C 0.46564 0.23894 0.06817 0.0
H22 H 0.44412 0.21709 0.07526 0.0
H23 H 0.48545 0.2426 0.0829 0.0
H24 H 0.46171 0.25927 0.07079 0.0
O25 O 0.4256 0.14124 0.04176 0.0
O26 O 0.4258 0.1386 0.99199 0.0
H27 H 0.4406 0.2148 0.95037 0.0
H28 H 0.45916 0.25711 0.95341 0.0
C29 C 0.46276 0.23658 0.95627 0.0
H30 H 0.48168 0.2395 0.94089 0.0
H31 H 0.41144 0.14472 0.93674 0.0
O32 O 0.47029 0.18457 0.09653 0.0
C33 C 0.41233 0.12826 0.01713 0.0
Co34 Co 0.27885 0.41675 0.08173 0.0
Co35 Co 0.28335 0.43048 0.01559 0.0
C36 C 0.3415 0.4573 0.04782 0.0
O37 O 0.32463 0.4418 0.07006 0.0
O38 O 0.32857 0.45907 0.02377 0.0
C39 C 0.28242 0.44837 0.13224 0.0
O40 O 0.28901 0.47012 0.11184 0.0
C41 C 0.28545 0.44933 0.95318 0.0
C42 C 0.25008 0.40329 0.93416 0.0
C43 C 0.27054 0.43444 0.92694 0.0
N44 N 0.2741 0.42775 0.97503 0.0
N45 N 0.25303 0.40037 0.96357 0.0
C46 C 0.31061 0.48296 0.95734 0.0
H47 H 0.32533 0.48557 0.97714 0.0
H48 H 0.29941 0.49757 0.96096 0.0
H49 H 0.32574 0.49183 0.93717 0.0
C50 C 0.22027 0.41868 0.07261 0.0
N51 N 0.24996 0.42738 0.06427 0.0
N52 N 0.25445 0.43786 0.03679 0.0
C53 C 0.22824 0.43775 0.02704 0.0
C54 C 0.20506 0.42475 0.04917 0.0
C55 C 0.20512 0.39868 0.09962 0.0
H56 H 0.21939 0.38847 0.10818 0.0
H57 H 0.20333 0.41345 0.11743 0.0
H58 H 0.18107 0.37919 0.0943 0.0
O59 O 0.26542 0.37354 0.07176 0.0
O60 O 0.27508 0.38729 0.02422 0.0
H61 H 0.21841 0.42938 0.98019 0.0
H62 H 0.20707 0.45599 0.9964 0.0
C63 C 0.22522 0.44868 0.99656 0.0
H64 H 0.2482 0.4688 0.98958 0.0
H65 H 0.24054 0.37966 0.97591 0.0
O66 O 0.27755 0.42149 0.12433 0.0
C67 C 0.26755 0.36681 0.0448 0.0
Co68 Co 0.8193 0.29051 0.05017 0.0
Co69 Co 0.82609 0.28721 0.97699 0.0
C70 C 0.84774 0.34831 0.01171 0.0
O71 O 0.8375 0.33526 0.03716 0.0
O72 O 0.84313 0.33229 0.98777 0.0
C73 C 0.79296 0.29062 0.11211 0.0
O74 O 0.7788 0.30444 0.09933 0.0
C75 C 0.8055 0.27915 0.91017 0.0
C76 C 0.84075 0.26827 0.89197 0.0
C77 C 0.8151 0.27128 0.88329 0.0
N78 N 0.82454 0.28025 0.93298 0.0
N79 N 0.84551 0.27379 0.92148 0.0
C80 C 0.77915 0.28593 0.91427 0.0
H81 H 0.78048 0.29612 0.93675 0.0
H82 H 0.75626 0.26373 0.91219 0.0
H83 H 0.7802 0.30249 0.89673 0.0
C84 C 0.75997 0.23432 0.03561 0.0
N85 N 0.78437 0.26161 0.0259 0.0
N86 N 0.7883 0.25887 0.99706 0.0
C87 C 0.76798 0.22922 0.98828 0.0
C88 C 0.74977 0.21236 0.01264 0.0
C89 C 0.75022 0.22741 0.06768 0.0
H90 H 0.74581 0.24597 0.07651 0.0
H91 H 0.72834 0.20427 0.07012 0.0
H92 H 0.76931 0.22725 0.08097 0.0
O93 O 0.85553 0.28317 0.04277 0.0
O94 O 0.85976 0.28023 0.99335 0.0
H95 H 0.79786 0.22383 0.95667 0.0
H96 H 0.75965 0.18943 0.95993 0.0
C97 C 0.77244 0.21547 0.95999 0.0
H98 H 0.7638 0.22347 0.94085 0.0
H99 H 0.86308 0.2728 0.93391 0.0
O100 O 0.81033 0.2838 0.09598 0.0
C101 C 0.8695 0.28028 0.01989 0.0
Co102 Co 0.56419 0.84704 0.07432 0.0
Co103 Co 0.56518 0.84963 1.00668 0.0
C104 C 0.52676 0.87053 0.03929 0.0
O105 O 0.53633 0.86509 0.06389 0.0
O106 O 0.53461 0.86366 0.01466 0.0
C107 C 0.53166 0.81301 0.12385 0.0
O108 O 0.51066 0.79601 0.10343 0.0
C109 C 0.54783 0.83718 0.94429 0.0
C110 C 0.59501 0.86033 0.92317 0.0
C111 C 0.56302 0.84348 0.91708 0.0
N112 N 0.57001 0.84959 0.96559 0.0
N113 N 0.5981 0.86364 0.95292 0.0
C114 C 0.51305 0.8201 0.95011 0.0
H115 H 0.50761 0.82927 0.97047 0.0
H116 H 0.50477 0.79477 0.95388 0.0
H117 H 0.50004 0.82234 0.93075 0.0
C118 C 0.56391 0.78747 0.06139 0.0
N119 N 0.55798 0.81054 0.05295 0.0
N120 N 0.55652 0.81089 0.02365 0.0
C121 C 0.56089 0.78776 0.01251 0.0
C122 C 0.56591 0.7722 0.03601 0.0
C123 C 0.57468 0.78492 0.09217 0.0
H124 H 0.5889 0.80867 0.10216 0.0
H125 H 0.55372 0.77098 0.10645 0.0
H126 H 0.58885 0.7729 0.09198 0.0
O127 O 0.60808 0.88075 0.06979 0.0
O128 O 0.6066 0.88244 0.02047 0.0
H129 H 0.58924 0.80489 0.97317 0.0
H130 H 0.56714 0.76249 0.97597 0.0
C131 C 0.56646 0.78448 0.98016 0.0
H132 H 0.54736 0.78407 0.96649 0.0
H133 H 0.6194 0.87511 0.96459 0.0
O134 O 0.55729 0.83689 0.1161 0.0
C135 C 0.62136 0.89253 0.045 0.0
Co136 Co 0.70742 0.52387 0.04908 0.0
Co137 Co 0.70821 0.533 0.97563 0.0
C138 C 0.6484 0.49159 0.01207 0.0
O139 O 0.66259 0.49492 0.03709 0.0
O140 O 0.66355 0.50365 0.9878 0.0
C141 C 0.7059 0.49921 0.11241 0.0
O142 O 0.68636 0.4712 0.10153 0.0
C143 C 0.71389 0.51914 0.90873 0.0
C144 C 0.72315 0.56437 0.88941 0.0
C145 C 0.72028 0.53571 0.88157 0.0
N146 N 0.71355 0.53756 0.93133 0.0
N147 N 0.71905 0.56446 0.91916 0.0
C148 C 0.70666 0.48587 0.91275 0.0
H149 H 0.6988 0.47779 0.93598 0.0
H150 H 0.72796 0.48412 0.90793 0.0
H151 H 0.68809 0.47039 0.89661 0.0
C152 C 0.76537 0.52453 0.03319 0.0
N153 N 0.73715 0.52012 0.02417 0.0
N154 N 0.73789 0.52435 0.99493 0.0
C155 C 0.76677 0.53205 0.98483 0.0
C156 C 0.7855 0.53343 1.0088 0.0
C157 C 0.77526 0.52828 0.06534 0.0
H158 H 0.77564 0.54944 0.07471 0.0
H159 H 0.75804 0.50733 0.07809 0.0
H160 H 0.79896 0.53079 0.06808 0.0
O161 O 0.71072 0.56524 0.04116 0.0
O162 O 0.71432 0.57375 0.99181 0.0
H163 H 0.77364 0.56488 0.9498 0.0
H164 H 0.80447 0.55471 0.95226 0.0
C165 C 0.77876 0.5456 0.95444 0.0
H166 H 0.76673 0.52696 0.93749 0.0
H167 H 0.72023 0.5832 0.93127 0.0
O168 O 0.71648 0.52296 0.09477 0.0
C169 C 0.71308 0.58223 0.01854 0.0
Co170 Co 0.1523 0.71147 0.07732 0.0
Co171 Co 0.13781 0.71977 0.01275 0.0
C172 C 0.12113 0.65615 0.03822 0.0
O173 O 0.13585 0.66731 0.06265 0.0
O174 O 0.12047 0.67439 0.01848 0.0
C175 C 0.19139 0.71327 0.12494 0.0
O176 O 0.21116 0.7159 0.10383 0.0
C177 C 0.14849 0.7155 0.95082 0.0
C178 C 0.12407 0.73791 0.92886 0.0
C179 C 0.14225 0.72398 0.92328 0.0
N180 N 0.13513 0.72453 0.97173 0.0
N181 N 0.12022 0.73757 0.95863 0.0
C182 C 0.16705 0.69935 0.9575 0.0
H183 H 0.15851 0.68511 0.97812 0.0
H184 H 0.19212 0.71733 0.96129 0.0
H185 H 0.1656 0.68398 0.93864 0.0
C186 C 0.20964 0.7734 0.06292 0.0
N187 N 0.18505 0.74522 0.05466 0.0
N188 N 0.17948 0.74655 0.02609 0.0
C189 C 0.20092 0.77491 0.0151 0.0
C190 C 0.22075 0.79295 0.03805 0.0
C191 C 0.21775 0.78425 0.09461 0.0
H192 H 0.19704 0.77123 0.10934 0.0
H193 H 0.23709 0.78021 0.10192 0.0
H194 H 0.22637 0.80985 0.09669 0.0
O195 O 0.1157 0.7178 0.07951 0.0
O196 O 0.10919 0.73053 0.03337 0.0
H197 H 0.17595 0.78731 0.98346 0.0
H198 H 0.21836 0.81133 0.98102 0.0
C199 C 0.19851 0.78714 0.98505 0.0
H200 H 0.19894 0.77161 0.96735 0.0
H201 H 0.10799 0.74673 0.97003 0.0
O202 O 0.16546 0.71164 0.11829 0.0
C203 C 0.10159 0.72623 0.06087 0.0
Co204 Co 0.81678 0.50151 0.51342 0.0
Co205 Co 0.80098 0.55554 0.51237 0.0
C206 C 0.78406 0.51354 0.56633 0.0
O207 O 0.79557 0.49763 0.55446 0.0
O208 O 0.78362 0.53565 0.55175 0.0
C209 C 0.83486 0.44563 0.50662 0.0
O210 O 0.81178 0.41638 0.50429 0.0
C211 C 0.76738 0.59062 0.51715 0.0
C212 C 0.8032 0.63673 0.49883 0.0
C213 C 0.77409 0.62122 0.51261 0.0
N214 N 0.79183 0.5882 0.50684 0.0
N215 N 0.81294 0.61567 0.49555 0.0
C216 C 0.73989 0.56514 0.53356 0.0
H217 H 0.73698 0.54175 0.52803 0.0
H218 H 0.71794 0.56547 0.52796 0.0
H219 H 0.74404 0.56931 0.55795 0.0
C220 C 0.79024 0.49392 0.44968 0.0
N221 N 0.79492 0.50534 0.47808 0.0
N222 N 0.78722 0.52754 0.47894 0.0
C223 C 0.77685 0.53043 0.45171 0.0
C224 C 0.77875 0.50961 0.43176 0.0
C225 C 0.80055 0.47156 0.43896 0.0
H226 H 0.82142 0.47492 0.45181 0.0
H227 H 0.78112 0.44709 0.44258 0.0
H228 H 0.80625 0.47487 0.41476 0.0
O229 O 0.85835 0.53946 0.51546 0.0
O230 O 0.84756 0.57826 0.5147 0.0
H231 H 0.78718 0.57746 0.44243 0.0
H232 H 0.75232 0.54745 0.42367 0.0
C233 C 0.76624 0.55362 0.4447 0.0
H234 H 0.75146 0.55409 0.46319 0.0
H235 H 0.83457 0.62036 0.48669 0.0
O236 O 0.82791 0.46738 0.50927 0.0
C237 C 0.86734 0.56866 0.51583 0.0
Co238 Co 0.27481 0.80704 0.48218 0.0
Co239 Co 0.26682 0.81696 0.54766 0.0
C240 C 0.33039 0.85022 0.51937 0.0
O241 O 0.31961 0.83573 0.49482 0.0
O242 O 0.31234 0.84469 0.54158 0.0
C243 C 0.27646 0.77078 0.43178 0.0
O244 O 0.27561 0.74966 0.4505 0.0
C245 C 0.26689 0.81002 0.61208 0.0
C246 C 0.23665 0.82971 0.62538 0.0
C247 C 0.25206 0.81449 0.63627 0.0
N248 N 0.25951 0.8211 0.58782 0.0
N249 N 0.24235 0.83377 0.59599 0.0
C250 C 0.28476 0.79253 0.61119 0.0
H251 H 0.28748 0.78672 0.58781 0.0
H252 H 0.27259 0.77067 0.62475 0.0
H253 H 0.30854 0.80756 0.62098 0.0
C254 C 0.22047 0.74666 0.49704 0.0
N255 N 0.24856 0.77088 0.50597 0.0
N256 N 0.24791 0.7742 0.53514 0.0
C257 C 0.22016 0.75085 0.5457 0.0
C258 C 0.20145 0.73334 0.52191 0.0
C259 C 0.20829 0.74299 0.46553 0.0
H260 H 0.21847 0.76623 0.45436 0.0
H261 H 0.21497 0.72776 0.45292 0.0
H262 H 0.18221 0.73154 0.46455 0.0
O263 O 0.25253 0.831 0.47864 0.0
O264 O 0.24408 0.83447 0.52661 0.0
H265 H 0.20372 0.77098 0.57868 0.0
H266 H 0.18461 0.72871 0.58003 0.0
C267 C 0.20747 0.75057 0.57622 0.0
H268 H 0.22421 0.75162 0.59341 0.0
H269 H 0.23317 0.84375 0.5813 0.0
O270 O 0.27695 0.79527 0.44147 0.0
C271 C 0.24003 0.83876 0.49936 0.0
Co272 Co 0.48988 0.30757 0.51217 0.0
Co273 Co 0.43447 0.23866 0.51019 0.0
C274 C 0.47518 0.26353 0.56572 0.0
O275 O 0.49343 0.2903 0.55351 0.0
O276 O 0.45225 0.24192 0.55102 0.0
C277 C 0.5228 0.3711 0.52867 0.0
O278 O 0.51274 0.35811 0.55502 0.0
C279 C 0.3999 0.16964 0.51167 0.0
C280 C 0.36047 0.15998 0.48096 0.0
C281 C 0.37353 0.14571 0.49791 0.0
N282 N 0.40262 0.19708 0.50278 0.0
N283 N 0.37877 0.19115 0.48483 0.0
C284 C 0.42332 0.16677 0.53104 0.0
H285 H 0.4474 0.18667 0.52666 0.0
H286 H 0.42254 0.144 0.52718 0.0
H287 H 0.41761 0.16797 0.55483 0.0
C288 C 0.50003 0.28932 0.4499 0.0
N289 N 0.48726 0.28228 0.47772 0.0
N290 N 0.46451 0.25267 0.47799 0.0
C291 C 0.46285 0.2398 0.45082 0.0
C292 C 0.48472 0.26254 0.43166 0.0
C293 C 0.52293 0.32209 0.44003 0.0
H294 H 0.512 0.3371 0.44271 0.0
H295 H 0.54407 0.33193 0.45469 0.0
H296 H 0.53003 0.32279 0.41638 0.0
O297 O 0.45139 0.31073 0.5119 0.0
O298 O 0.41126 0.26209 0.51001 0.0
H299 H 0.41666 0.20395 0.43775 0.0
H300 H 0.44793 0.19901 0.42253 0.0
C301 C 0.43999 0.20635 0.44265 0.0
H302 H 0.43768 0.19053 0.46136 0.0
H303 H 0.37552 0.20847 0.47454 0.0
O304 O 0.52024 0.35346 0.50668 0.0
C305 C 0.42198 0.29158 0.51069 0.0
Co306 Co 0.19013 0.46769 0.48488 0.0
Co307 Co 0.17681 0.44678 0.54953 0.0
C308 C 0.14414 0.4777 0.51906 0.0
O309 O 0.1601 0.48282 0.49525 0.0
O310 O 0.14908 0.46461 0.54133 0.0
C311 C 0.18727 0.47862 0.42365 0.0
O312 O 0.15755 0.4697 0.42882 0.0
C313 C 0.18492 0.45537 0.61333 0.0
C314 C 0.15978 0.40596 0.6291 0.0
C315 C 0.17829 0.4368 0.63866 0.0
N316 N 0.17163 0.43619 0.58996 0.0
N317 N 0.1559 0.40679 0.59949 0.0
C318 C 0.20632 0.49024 0.61039 0.0
H319 H 0.21159 0.49717 0.58659 0.0
H320 H 0.22863 0.49785 0.62286 0.0
H321 H 0.19453 0.5026 0.61991 0.0
C322 C 0.25221 0.47936 0.50182 0.0
N323 N 0.22552 0.47891 0.51043 0.0
N324 N 0.2199 0.47005 0.53856 0.0
C325 C 0.2427 0.46434 0.54852 0.0
C326 C 0.2634 0.46903 0.52528 0.0
C327 C 0.2612 0.47987 0.46979 0.0
H328 H 0.2433 0.45784 0.4588 0.0
H329 H 0.26201 0.50031 0.45822 0.0
H330 H 0.28464 0.48159 0.46781 0.0
O331 O 0.16653 0.42105 0.48104 0.0
O332 O 0.16035 0.40716 0.52874 0.0
H333 H 0.21711 0.42291 0.57548 0.0
H334 H 0.25947 0.44083 0.57854 0.0
C335 C 0.23963 0.44561 0.57616 0.0
H336 H 0.23978 0.45896 0.59612 0.0
H337 H 0.14381 0.38722 0.58561 0.0
O338 O 0.2055 0.48187 0.44513 0.0
C339 C 0.15762 0.40002 0.50123 0.0
Co340 Co 0.6902 0.17691 0.51206 0.0
Co341 Co 0.76114 0.1965 0.51117 0.0
C342 C 0.73349 0.20795 0.56648 0.0
O343 O 0.70626 0.19706 0.55411 0.0
O344 O 0.7565 0.20963 0.55172 0.0
C345 C 0.62577 0.14269 0.5276 0.0
O346 O 0.63816 0.14476 0.55416 0.0
C347 C 0.83034 0.22937 0.51708 0.0
C348 C 0.84036 0.19997 0.48647 0.0
C349 C 0.85419 0.22457 0.50661 0.0
N350 N 0.80337 0.20812 0.5038 0.0
N351 N 0.80963 0.19099 0.48527 0.0
C352 C 0.83242 0.25125 0.54139 0.0
H353 H 0.81367 0.25753 0.53854 0.0
H354 H 0.85589 0.27292 0.54155 0.0
H355 H 0.82908 0.23929 0.56327 0.0
C356 C 0.70817 0.20459 0.44901 0.0
N357 N 0.7151 0.20066 0.4776 0.0
N358 N 0.74565 0.21149 0.47943 0.0
C359 C 0.75927 0.22439 0.453 0.0
C360 C 0.73606 0.21968 0.43209 0.0
C361 C 0.67522 0.18989 0.4371 0.0
H362 H 0.65897 0.16955 0.45109 0.0
H363 H 0.66737 0.2076 0.43754 0.0
H364 H 0.67406 0.18191 0.41369 0.0
O365 O 0.69018 0.13719 0.51134 0.0
O366 O 0.74025 0.1497 0.51065 0.0
H367 H 0.80223 0.22513 0.44196 0.0
H368 H 0.80079 0.2596 0.43011 0.0
C369 C 0.79422 0.2419 0.44822 0.0
H370 H 0.80648 0.25412 0.46909 0.0
H371 H 0.79262 0.17234 0.4726 0.0
O372 O 0.64376 0.15885 0.50624 0.0
C373 C 0.71115 0.12926 0.51058 0.0
Co374 Co 0.53162 0.71698 0.47547 0.0
Co375 Co 0.54789 0.72638 0.54097 0.0
C376 C 0.51728 0.66221 0.51641 0.0
O377 O 0.51598 0.67306 0.49089 0.0
O378 O 0.52824 0.68041 0.53879 0.0
C379 C 0.49311 0.71846 0.42796 0.0
O380 O 0.47871 0.72606 0.44826 0.0
C381 C 0.54444 0.72902 0.6051 0.0
C382 C 0.59326 0.7661 0.61587 0.0
C383 C 0.56388 0.74677 0.62831 0.0
N384 N 0.56154 0.73808 0.58003 0.0
N385 N 0.59081 0.75967 0.58658 0.0
C386 C 0.50969 0.70632 0.60573 0.0
H387 H 0.49965 0.70215 0.58279 0.0
H388 H 0.49756 0.71533 0.62023 0.0
H389 H 0.50548 0.68353 0.61501 0.0
C390 C 0.53162 0.77512 0.48925 0.0
N391 N 0.52421 0.74579 0.498 0.0
N392 N 0.52388 0.74464 0.52737 0.0
C393 C 0.5279 0.77223 0.53795 0.0
C394 C 0.5343 0.79296 0.51435 0.0
C395 C 0.54493 0.78836 0.45905 0.0
H396 H 0.55012 0.77213 0.44628 0.0
H397 H 0.52769 0.79238 0.44643 0.0
H398 H 0.56702 0.81136 0.46121 0.0
O399 O 0.57715 0.73733 0.47022 0.0
O400 O 0.58759 0.74604 0.51846 0.0
H401 H 0.55223 0.78707 0.58 0.0
H402 H 0.52429 0.80004 0.57336 0.0
C403 C 0.52877 0.7801 0.5704 0.0
H404 H 0.51058 0.75939 0.5827 0.0
H405 H 0.60877 0.771 0.57092 0.0
O406 O 0.51458 0.71256 0.43558 0.0
C407 C 0.59678 0.7494 0.4915 0.0
H408 H 0.48993 0.10398 0.96978 0.0
H409 H 0.48957 0.05416 0.97556 0.0
H410 H 0.52843 0.08148 0.06416 0.0
H411 H 0.52751 0.13092 0.05921 0.0
H412 H 0.54375 0.04395 0.99445 0.0
H413 H 0.4874 0.04224 0.0931 0.0
H414 H 0.44496 0.0465 0.11844 0.0
H415 H 0.37794 0.98395 0.05387 0.0
H416 H 0.42041 0.98073 0.02722 0.0
H417 H 0.51955 0.90289 0.08588 0.0
H418 H 0.50979 0.94715 0.08178 0.0
H419 H 0.49188 0.92942 0.9874 0.0
H420 H 0.50181 0.88535 0.99115 0.0
H421 H 0.4632 0.96091 0.05965 0.0
H422 H 0.53679 0.0019 0.95198 0.0
H423 H 0.57479 0.99198 0.92474 0.0
H424 H 0.60489 0.97044 1.00735 0.0
H425 H 0.56814 0.98159 0.03521 0.0
C426 C 0.49901 0.0998 0.99035 0.0
C427 C 0.50877 0.12164 0.01406 0.0
C428 C 0.49837 0.07103 0.99373 0.0
C429 C 0.50772 0.06351 0.02074 0.0
C430 C 0.51975 0.08617 0.04361 0.0
C431 C 0.51984 0.11474 0.0405 0.0
C432 C 0.50544 0.03224 0.02468 0.0
C433 C 0.5264 0.02591 1.00891 0.0
C434 C 0.48215 0.00831 0.0429 0.0
C435 C 0.45723 0.01204 0.05772 0.0
C436 C 0.46384 0.03023 0.08377 0.0
C437 C 0.43975 0.03237 0.09841 0.0
C438 C 0.40885 0.01578 0.08758 0.0
C439 C 0.40196 0.99711 0.06201 0.0
C440 C 0.42608 0.99535 0.04699 0.0
C441 C 0.51254 0.90771 0.0644 0.0
C442 C 0.51206 0.89084 0.03874 0.0
C443 C 0.50697 0.93309 0.06211 0.0
C444 C 0.50084 0.94206 0.03416 0.0
C445 C 0.4971 0.92325 1.00911 0.0
C446 C 0.50273 0.89796 0.01134 0.0
C447 C 0.50261 0.97316 0.03051 0.0
C448 C 0.48115 0.9792 0.04575 0.0
C449 C 0.52563 0.99693 0.0119 0.0
C450 C 0.54931 0.99211 0.99561 0.0
C451 C 0.55174 0.99536 0.96436 0.0
C452 C 0.57314 0.9896 0.94883 0.0
C453 C 0.59217 0.98049 0.96431 0.0
C454 C 0.59012 0.97747 0.9954 0.0
C455 C 0.56909 0.98362 0.01107 0.0
H456 H 0.60857 0.97585 0.95223 0.0
H457 H 0.39021 0.01711 0.09924 0.0
H458 H 0.60461 0.45808 0.05573 0.0
H459 H 0.5523 0.45301 0.0614 0.0
H460 H 0.56401 0.50061 0.97733 0.0
H461 H 0.6153 0.50464 0.9708 0.0
H462 H 0.5462 0.51696 0.05346 0.0
H463 H 0.51507 0.46266 0.95324 0.0
H464 H 0.5147 0.42316 0.91883 0.0
H465 H 0.4728 0.35234 0.98688 0.0
H466 H 0.47339 0.39164 0.02195 0.0
H467 H 0.38831 0.49923 1.0102 0.0
H468 H 0.44194 0.50725 1.00515 0.0
H469 H 0.42438 0.44333 0.07834 0.0
H470 H 0.37164 0.43615 0.08438 0.0
H471 H 0.44581 0.43664 1.0069 0.0
H472 H 0.46736 0.49407 0.10276 0.0
H473 H 0.47059 0.5366 0.13461 0.0
H474 H 0.53384 0.60566 0.07201 0.0
H475 H 0.53025 0.56339 0.03935 0.0
C476 C 0.59558 0.46648 0.03796 0.0
C477 C 0.61416 0.48139 0.01264 0.0
C478 C 0.56582 0.46384 0.04137 0.0
C479 C 0.55422 0.47632 0.01971 0.0
C480 C 0.57219 0.49028 0.99404 0.0
C481 C 0.60157 0.49239 0.99032 0.0
C482 C 0.52422 0.4764 0.02463 0.0
C483 C 0.52424 0.49947 0.04325 0.0
C484 C 0.49572 0.4539 0.01107 0.0
C485 C 0.49475 0.4301 0.99024 0.0
C486 C 0.50607 0.43871 0.96093 0.0
C487 C 0.50574 0.41636 0.94133 0.0
C488 C 0.49378 0.38525 0.95074 0.0
C489 C 0.48206 0.37644 0.97974 0.0
C490 C 0.48244 0.39874 0.99949 0.0
C491 C 0.39623 0.48765 0.02579 0.0
C492 C 0.37567 0.46726 0.04787 0.0
C493 C 0.42682 0.49216 0.0228 0.0
C494 C 0.43716 0.47602 0.04151 0.0
C495 C 0.41703 0.45636 0.06396 0.0
C496 C 0.38686 0.45241 0.06744 0.0
C497 C 0.46762 0.4771 0.03597 0.0
C498 C 0.4677 0.4542 0.01716 0.0
C499 C 0.49631 0.50021 0.04896 0.0
C500 C 0.49795 0.52552 0.0683 0.0
C501 C 0.4814 0.51826 0.09546 0.0
C502 C 0.48344 0.54234 0.11374 0.0
C503 C 0.50226 0.57381 0.10525 0.0
C504 C 0.51913 0.58127 0.07848 0.0
C505 C 0.51705 0.55725 0.06006 0.0
H506 H 0.50391 0.59243 0.11949 0.0
H507 H 0.49352 0.36795 0.93554 0.0
H508 H 0.08677 0.62623 0.98871 0.0
H509 H 0.04298 0.57282 0.98515 0.0
H510 H 0.06274 0.55337 0.07432 0.0
H511 H 0.106 0.60792 0.0787 0.0
H512 H 0.03255 0.51723 0.98519 0.0
H513 H 0.00224 0.50489 0.10808 0.0
H514 H 0.00711 0.53773 0.15188 0.0
H515 H -0.00084 0.60399 0.09464 0.0
H516 H 0.99465 0.57171 0.05055 0.0
H517 H 0.90603 0.36277 0.9969 0.0
H518 H 0.95458 0.41236 1.00294 0.0
H519 H 0.90155 0.45615 0.03275 0.0
H520 H 0.85257 0.4048 0.02946 0.0
H521 H 0.94986 0.47959 0.06333 0.0
H522 H 0.93972 0.46506 0.95618 0.0
H523 H 0.93217 0.43578 0.90918 0.0
H524 H 0.01531 0.42987 0.92765 0.0
H525 H 0.02315 0.45882 0.9749 0.0
C526 C 0.08219 0.61062 1.00757 0.0
C527 C 0.09976 0.62168 0.03421 0.0
C528 C 0.057 0.57988 1.00544 0.0
C529 C 0.0488 0.55907 0.02972 0.0
C530 C 0.06783 0.56919 0.05557 0.0
C531 C 0.09293 0.6003 0.05791 0.0
C532 C 0.01959 0.52751 0.02789 0.0
C533 C 0.01452 0.50898 1.00234 0.0
C534 C 0.99567 0.5167 0.04988 0.0
C535 C -0.00175 0.53605 0.07618 0.0
C536 C 0.00148 0.52645 0.10494 0.0
C537 C 0.00431 0.54501 0.12976 0.0
C538 C 0.0035 0.57296 0.12603 0.0
C539 C -8e-05 0.58244 0.09748 0.0
C540 C 0.99737 0.5641 0.07258 0.0
C541 C 0.90464 0.38316 1.00416 0.0
C542 C 0.87548 0.38027 0.01183 0.0
C543 C 0.93254 0.41174 1.00743 0.0
C544 C 0.9321 0.43874 0.01724 0.0
C545 C 0.90277 0.43587 0.02492 0.0
C546 C 0.87471 0.4067 0.02272 0.0
C547 C 0.96229 0.46949 0.02012 0.0
C548 C 0.96773 0.48773 0.04605 0.0
C549 C 0.98615 0.48061 0.99786 0.0
C550 C 0.9819 0.46394 0.9691 0.0
C551 C 0.95635 0.45747 0.9502 0.0
C552 C 0.95201 0.44091 0.92355 0.0
C553 C 0.97322 0.43093 0.91546 0.0
C554 C -0.0011 0.43761 0.93394 0.0
C555 C 0.00334 0.45414 0.96062 0.0
H556 H 0.96978 0.41806 0.89484 0.0
H557 H 0.0056 0.58725 0.14528 0.0
H558 H 0.12977 0.51382 0.48172 0.0
H559 H 0.07956 0.51405 0.47898 0.0
H560 H 0.04339 0.44841 0.55233 0.0
H561 H 0.09338 0.4489 0.55603 0.0
H562 H 0.01163 0.44341 0.47875 0.0
H563 H 0.03858 0.48795 0.58307 0.0
H564 H 0.07733 0.52826 0.61723 0.0
H565 H 0.08499 0.60138 0.55866 0.0
H566 H 0.04672 0.56134 0.52386 0.0
H567 H 0.85605 0.4038 0.51306 0.0
H568 H 0.91027 0.41435 0.51421 0.0
H569 H 0.94408 0.51353 0.50197 0.0
H570 H 0.88944 0.50303 0.50158 0.0
H571 H 0.98052 0.5074 0.54076 0.0
H572 H 0.94389 0.46428 0.44367 0.0
H573 H 0.90829 0.42642 0.40602 0.0
H574 H 0.92146 0.35364 0.44524 0.0
H575 H 0.95685 0.39099 0.48335 0.0
C576 C 0.11138 0.50005 0.49772 0.0
C577 C 0.11586 0.4817 0.51934 0.0
C578 C 0.08269 0.50011 0.49605 0.0
C579 C 0.05789 0.48152 0.51569 0.0
C580 C 0.0624 0.46342 0.53736 0.0
C581 C 0.09114 0.46383 0.53946 0.0
C582 C 0.02649 0.47916 0.51255 0.0
C583 C 0.00467 0.45722 0.49238 0.0
C584 C 0.01777 0.49777 0.52971 0.0
C585 C 0.04023 0.52174 0.55075 0.0
C586 C 0.04882 0.51262 0.57735 0.0
C587 C 0.07063 0.5354 0.59684 0.0
C588 C 0.08371 0.56737 0.59007 0.0
C589 C 0.07492 0.57661 0.56383 0.0
C590 C 0.0532 0.55389 0.54421 0.0
C591 C 0.87494 0.4279 0.51054 0.0
C592 C 0.86827 0.45258 0.50718 0.0
C593 C 0.9061 0.43391 0.51103 0.0
C594 C 0.93156 0.46471 0.50757 0.0
C595 C 0.925 0.48952 0.50458 0.0
C596 C 0.89372 0.48351 0.50436 0.0
C597 C 0.9648 0.47075 0.50742 0.0
C598 C 0.9872 0.49354 0.52689 0.0
C599 C 0.97411 0.45296 0.48935 0.0
C600 C 0.95282 0.43039 0.4665 0.0
C601 C 0.93902 0.44015 0.44439 0.0
C602 C 0.91891 0.41879 0.42294 0.0
C603 C 0.91257 0.38763 0.42327 0.0
C604 C 0.92638 0.37778 0.44502 0.0
C605 C 0.9465 0.39905 0.46652 0.0
H606 H 0.89699 0.37113 0.40665 0.0
H607 H 0.10057 0.58497 0.60519 0.0
H608 H 0.61495 0.09292 0.4932 0.0
H609 H 0.56659 0.04181 0.49035 0.0
H610 H 0.51871 0.07783 0.54467 0.0
H611 H 0.56805 0.12818 0.54943 0.0
H612 H 0.5045 0.02483 0.56475 0.0
H613 H 0.5067 0.05929 0.46205 0.0
H614 H 0.53078 0.07794 0.41239 0.0
H615 H 0.54048 0.99596 0.40231 0.0
H616 H 0.51675 0.97701 0.45198 0.0
H617 H 0.3476 0.9052 0.54732 0.0
H618 H 0.39811 0.95364 0.54587 0.0
H619 H 0.43704 0.90732 0.4933 0.0
H620 H 0.38506 0.85902 0.49268 0.0
H621 H 0.45824 0.96266 0.47241 0.0
H622 H 0.45181 0.92594 0.57325 0.0
H623 H 0.42685 0.90671 0.62237 0.0
H624 H 0.42531 0.99267 0.63639 0.0
H625 H 0.45003 0.01228 0.58718 0.0
C626 C 0.59381 0.09007 0.50388 0.0
C627 C 0.59494 0.11463 0.52102 0.0
C628 C 0.56606 0.06079 0.5022 0.0
C629 C 0.53846 0.05575 0.51681 0.0
C630 C 0.53949 0.08086 0.53314 0.0
C631 C 0.56756 0.1098 0.53562 0.0
C632 C 0.50917 0.02397 0.51693 0.0
C633 C 0.49423 0.01154 0.54442 0.0
C634 C 0.49621 0.00559 0.49074 0.0
C635 C 0.5102 0.01689 0.46081 0.0
C636 C 0.51412 0.04534 0.44928 0.0
C637 C 0.52768 0.05595 0.42113 0.0
C638 C 0.53722 0.03818 0.40424 0.0
C639 C 0.53311 0.00972 0.41542 0.0
C640 C 0.51957 -0.00098 0.44355 0.0
C641 C 0.36702 0.90512 0.53579 0.0
C642 C 0.36253 0.87809 0.5206 0.0
C643 C 0.39607 0.93293 0.53508 0.0
C644 C 0.42199 0.93416 0.5203 0.0
C645 C 0.4176 0.90706 0.5051 0.0
C646 C 0.388 0.87938 0.50492 0.0
C647 C 0.45315 0.96406 0.52011 0.0
C648 C 0.46855 0.976 0.49272 0.0
C649 C 0.46667 0.98197 0.54643 0.0
C650 C 0.45269 0.97052 0.57644 0.0
C651 C 0.44617 0.94074 0.58677 0.0
C652 C 0.43202 0.92975 0.61464 0.0
C653 C 0.42448 0.94844 0.63249 0.0
C654 C 0.43119 0.97821 0.62256 0.0
C655 C 0.44533 0.9893 0.59471 0.0
H656 H 0.41346 0.93987 0.65403 0.0
H657 H 0.54774 0.04645 0.38246 0.0
H658 H 0.50287 0.39147 0.48097 0.0
H659 H 0.49981 0.43968 0.47776 0.0
H660 H 0.54951 0.47106 0.5618 0.0
H661 H 0.55069 0.42179 0.56588 0.0
H662 H 0.50289 0.47995 0.56382 0.0
H663 H 0.58204 0.5049 0.48736 0.0
H664 H 0.60324 0.49519 0.4411 0.0
H665 H 0.52541 0.48937 0.39104 0.0
H666 H 0.50361 0.49874 0.43705 0.0
H667 H 0.53686 0.63802 0.56111 0.0
H668 H 0.53646 0.58826 0.56167 0.0
H669 H 0.48456 0.56183 0.47854 0.0
H670 H 0.48641 0.6128 0.47706 0.0
H671 H 0.52927 0.54898 0.47483 0.0
H672 H 0.45145 0.52668 0.55053 0.0
H673 H 0.43066 0.53753 0.59643 0.0
H674 H 0.50536 0.53821 0.64777 0.0
H675 H 0.52692 0.52794 0.6021 0.0
C676 C 0.51393 0.40907 0.49834 0.0
C677 C 0.52746 0.40306 0.5235 0.0
C678 C 0.51215 0.43673 0.49651 0.0
C679 C 0.52475 0.45951 0.51936 0.0
C680 C 0.53948 0.454 0.54387 0.0
C681 C 0.54049 0.42597 0.54607 0.0
C682 C 0.52092 0.48805 0.51882 0.0
C683 C 0.50912 0.49524 0.54444 0.0
C684 C 0.52781 0.5076 0.49328 0.0
C685 C 0.54109 0.50226 0.46565 0.0
C686 C 0.56939 0.50139 0.4665 0.0
C687 C 0.58151 0.49597 0.44033 0.0
C688 C 0.56564 0.49159 0.41316 0.0
C689 C 0.53766 0.49273 0.41209 0.0
C690 C 0.52544 0.49814 0.43819 0.0
C691 C 0.52472 0.62143 0.5432 0.0
C692 C 0.51149 0.62945 0.51909 0.0
C693 C 0.52445 0.59276 0.54359 0.0
C694 C 0.5101 0.57081 0.52037 0.0
C695 C 0.49583 0.57827 0.49676 0.0
C696 C 0.49666 0.60733 0.49604 0.0
C697 C 0.51168 0.54107 0.51995 0.0
C698 C 0.52297 0.53362 0.49416 0.0
C699 C 0.50425 0.52123 0.54531 0.0
C700 C 0.49088 0.52669 0.57287 0.0
C701 C 0.46354 0.52932 0.57159 0.0
C702 C 0.45166 0.53544 0.59755 0.0
C703 C 0.4667 0.53861 0.62499 0.0
C704 C 0.49369 0.5357 0.62651 0.0
C705 C 0.50574 0.52972 0.60061 0.0
H706 H 0.45743 0.54327 0.64507 0.0
H707 H 0.57505 0.48737 0.39293 0.0
H708 H 0.34764 0.10068 0.02447 0.0
H709 H 0.30974 0.04356 0.02627 0.0
H710 H 0.38667 0.02495 0.01453 0.0
H711 H 0.42356 0.08103 0.0119 0.0
H712 H 0.34256 0.98587 0.98401 0.0
H713 H 0.34709 0.02456 0.08514 0.0
H714 H 0.33972 0.05606 0.12387 0.0
H715 H 0.24093 0.011 0.10292 0.0
H716 H 0.24785 0.97949 0.06383 0.0
H717 H 0.28461 0.83167 0.03993 0.0
H718 H 0.31366 0.88956 0.03667 0.0
H719 H 0.22551 0.88973 0.03363 0.0
H720 H 0.19667 0.83207 0.03712 0.0
H721 H 0.2688 0.93724 0.06887 0.0
H722 H 0.26438 0.89624 0.97044 0.0
H723 H 0.27184 0.86387 0.93275 0.0
H724 H 0.37158 0.91369 0.94973 0.0
H725 H 0.36463 0.94598 0.98796 0.0
C726 C 0.35608 0.0841 0.0223 0.0
C727 C 0.38827 0.09486 0.01817 0.0
C728 C 0.33459 0.05157 0.02349 0.0
C729 C 0.34533 0.02969 0.02129 0.0
C730 C 0.37759 0.04099 0.01668 0.0
C731 C 0.39874 0.0731 0.01514 0.0
C732 C 0.32379 0.99501 0.02394 0.0
C733 C 0.32671 0.97539 1.00281 0.0
C734 C 0.30217 0.98098 0.04783 0.0
C735 C 0.29807 -0.00012 0.0714 0.0
C736 C 0.32384 0.02145 0.08874 0.0
C737 C 0.31974 0.03933 0.11074 0.0
C738 C 0.28988 0.03559 0.11581 0.0
C739 C 0.26405 0.01392 0.09893 0.0
C740 C 0.26806 0.99605 0.07686 0.0
C741 C 0.27163 0.84425 0.03887 0.0
C742 C 0.23859 0.82775 0.03852 0.0
C743 C 0.28812 0.87718 0.03691 0.0
C744 C 0.27171 0.89394 0.03453 0.0
C745 C 0.23864 0.87734 0.0354 0.0
C746 C 0.22222 0.84451 0.03727 0.0
C747 C 0.2889 0.92857 0.02978 0.0
C748 C 0.28478 0.94795 0.0502 0.0
C749 C 0.30969 0.94251 1.00543 0.0
C750 C 0.31394 0.92334 0.98223 0.0
C751 C 0.28787 0.90014 0.96629 0.0
C752 C 0.29201 0.88182 0.94482 0.0
C753 C 0.32216 0.88669 0.93888 0.0
C754 C 0.34824 0.90993 0.95437 0.0
C755 C 0.34422 0.92825 0.97594 0.0
H756 H 0.32532 0.87249 0.92224 0.0
H757 H 0.28674 0.04944 0.13286 0.0
H758 H 0.4731 0.30769 0.01772 0.0
H759 H 0.4289 0.31828 0.02113 0.0
H760 H 0.36278 0.21883 0.01182 0.0
H761 H 0.40652 0.20857 1.00757 0.0
H762 H 0.34258 0.24992 0.98112 0.0
H763 H 0.38204 0.25565 0.08078 0.0
H764 H 0.42339 0.275 0.11965 0.0
H765 H 0.44063 0.36924 0.10688 0.0
H766 H 0.39971 0.35051 0.06759 0.0
H767 H 0.25798 0.31901 0.08301 0.0
H768 H 0.27853 0.28321 0.0754 0.0
H769 H 0.30179 0.31558 0.98419 0.0
H770 H 0.27962 0.34947 0.99097 0.0
H771 H 0.33784 0.30934 0.06869 0.0
H772 H 0.32236 0.27453 0.9427 0.0
H773 H 0.28027 0.25384 0.9046 0.0
H774 H 0.21024 0.21162 0.97331 0.0
H775 H 0.25193 0.23167 0.01184 0.0
C776 C 0.44907 0.2884 0.016 0.0
C777 C 0.44287 0.25749 0.01225 0.0
C778 C 0.42395 0.29431 0.01805 0.0
C779 C 0.39262 0.26924 0.01694 0.0
C780 C 0.3867 0.23848 0.01256 0.0
C781 C 0.41162 0.23266 1.01024 0.0
C782 C 0.36576 0.27454 0.02156 0.0
C783 C 0.34135 0.26279 1.0003 0.0
C784 C 0.36385 0.29047 0.04706 0.0
C785 C 0.38793 0.3017 0.07117 0.0
C786 C 0.39472 0.28051 0.08622 0.0
C787 C 0.41809 0.29137 0.1083 0.0
C788 C 0.43463 0.32333 0.11572 0.0
C789 C 0.42779 0.34449 0.10112 0.0
C790 C 0.40449 0.33376 0.07896 0.0
C791 C 0.26605 0.31729 0.06093 0.0
C792 C 0.26825 0.33782 0.0379 0.0
C793 C 0.2779 0.29692 0.05665 0.0
C794 C 0.29225 0.29713 0.02943 0.0
C795 C 0.29061 0.31463 1.00533 0.0
C796 C 0.27815 0.33438 1.00938 0.0
C797 C 0.31455 0.28508 0.02799 0.0
C798 C 0.33844 0.2958 0.04978 0.0
C799 C 0.31558 0.26765 1.00327 0.0
C800 C 0.29033 0.25468 0.98019 0.0
C801 C 0.29801 0.26058 0.94969 0.0
C802 C 0.27421 0.24904 0.92801 0.0
C803 C 0.2426 0.23146 0.93653 0.0
C804 C 0.23474 0.2253 0.96675 0.0
C805 C 0.25845 0.23678 0.98853 0.0
H806 H 0.22421 0.2226 0.91971 0.0
H807 H 0.45274 0.3317 0.13281 0.0
H808 H 0.8989 0.2802 0.07229 0.0
H809 H 0.95523 0.29942 0.07921 0.0
H810 H 0.9688 0.30926 0.98375 0.0
H811 H 0.9126 0.28935 0.97653 0.0
H812 H 0.00751 0.29099 1.01034 0.0
H813 H 0.97467 0.3695 0.02992 0.0
H814 H 0.9436 0.38769 0.05856 0.0
H815 H 0.98818 0.38389 0.13988 0.0
H816 H 0.01876 0.36467 0.11211 0.0
H817 H 0.1679 0.39794 0.99919 0.0
H818 H 0.11125 0.37305 0.9949 0.0
H819 H 0.10516 0.39055 0.08854 0.0
H820 H 0.16256 0.42059 0.0915 0.0
H821 H 0.06124 0.39192 0.06604 0.0
H822 H 0.09275 0.31455 0.05363 0.0
H823 H 0.12193 0.29037 0.0318 0.0
H824 H 0.07957 0.28525 0.94622 0.0
H825 H 0.05044 0.30975 0.96745 0.0
C826 C 0.91369 0.28561 0.05271 0.0
C827 C 0.90122 0.28369 0.02388 0.0
C828 C 0.94596 0.29681 0.05673 0.0
C829 C 0.96639 0.30672 0.03205 0.0
C830 C 0.95356 0.3021 1.00315 0.0
C831 C 0.9213 0.29062 0.99908 0.0
C832 C 0.00121 0.32444 0.03611 0.0
C833 C 0.01937 0.31316 0.02239 0.0
C834 C 0.01661 0.35282 0.0527 0.0
C835 C -0.00111 0.36546 0.06896 0.0
C836 C 0.9778 0.37246 0.05392 0.0
C837 C 0.96027 0.38293 0.06996 0.0
C838 C 0.96402 0.38707 0.10088 0.0
C839 C 0.98531 0.38071 0.1159 0.0
C840 C 0.0027 0.36996 0.10006 0.0
C841 C 0.15489 0.39797 0.01862 0.0
C842 C 0.17026 0.41155 0.04577 0.0
C843 C 0.12202 0.38255 0.01638 0.0
C844 C 0.10335 0.37831 0.0417 0.0
C845 C 0.11866 0.39287 0.06861 0.0
C846 C 0.15165 0.40978 0.07042 0.0
C847 C 0.0681 0.35863 0.04021 0.0
C848 C 0.04971 0.36962 0.05424 0.0
C849 C 0.05244 0.32933 0.02483 0.0
C850 C 0.06962 0.31422 0.01209 0.0
C851 C 0.08976 0.30838 0.03013 0.0
C852 C 0.10629 0.29462 0.01786 0.0
C853 C 0.10266 0.28635 0.98763 0.0
C854 C 0.08239 0.2917 0.96962 0.0
C855 C 0.06583 0.30549 0.98177 0.0
H856 H 0.1155 0.27574 0.97817 0.0
H857 H 0.95041 0.39519 0.11321 0.0
H858 H 0.70336 0.16278 0.98175 0.0
H859 H 0.69089 0.10779 0.98446 0.0
H860 H 0.75695 0.13117 0.0574 0.0
H861 H 0.77216 0.18627 0.05215 0.0
H862 H 0.76327 0.09357 0.02227 0.0
H863 H 0.66711 0.08262 0.07467 0.0
H864 H 0.624 0.09516 0.076 0.0
H865 H 0.59818 0.06135 0.986 0.0
H866 H 0.64009 0.04734 0.9848 0.0
H867 H 0.65197 0.93259 0.09148 0.0
H868 H 0.68754 0.98912 0.08572 0.0
H869 H 0.69279 0.97667 0.99096 0.0
H870 H 0.65843 0.92028 0.99652 0.0
H871 H 0.65261 0.00804 0.0353 0.0
H872 H 0.7488 0.01316 0.98809 0.0
H873 H 0.79283 0.00223 0.99133 0.0
H874 H 0.82092 0.05045 0.07562 0.0
H875 H 0.77666 0.06117 0.07302 0.0
C876 C 0.71478 0.1559 0.99856 0.0
C877 C 0.73799 0.1785 0.01729 0.0
C878 C 0.70754 0.12453 1.00028 0.0
C879 C 0.72236 0.11518 0.02173 0.0
C880 C 0.7451 0.13776 0.04079 0.0
C881 C 0.75322 0.16917 0.03826 0.0
C882 C 0.71447 0.08199 0.02455 0.0
C883 C 0.73904 0.07487 0.02503 0.0
C884 C 0.68301 0.05757 0.02824 0.0
C885 C 0.65648 0.06386 0.0297 0.0
C886 C 0.65184 0.07746 0.05539 0.0
C887 C 0.62755 0.08469 0.05617 0.0
C888 C 0.60811 0.07878 0.03121 0.0
C889 C 0.6128 0.06541 1.00553 0.0
C890 C 0.63656 0.05748 1.00491 0.0
C891 C 0.66216 0.94161 0.06972 0.0
C892 C 0.65161 0.92226 0.04428 0.0
C893 C 0.68251 0.97391 0.06648 0.0
C894 C 0.69255 0.98685 0.03792 0.0
C895 C 0.68566 0.967 0.01322 0.0
C896 C 0.66567 0.93475 0.01645 0.0
C897 C 0.7013 0.01976 0.03278 0.0
C898 C 0.67676 0.02673 0.03208 0.0
C899 C 0.73272 0.04389 0.02908 0.0
C900 C 0.75923 0.03752 0.03057 0.0
C901 C 0.76412 0.02104 1.00748 0.0
C902 C 0.78917 0.01499 1.00914 0.0
C903 C 0.80959 0.02552 0.03373 0.0
C904 C 0.80504 0.04222 0.05664 0.0
C905 C 0.77999 0.04829 0.05508 0.0
H906 H 0.82899 0.02084 0.03497 0.0
H907 H 0.58956 0.08473 0.0317 0.0
H908 H 0.54526 0.71126 0.05235 0.0
H909 H 0.57461 0.68263 0.04959 0.0
H910 H 0.65495 0.76561 0.01362 0.0
H911 H 0.62521 0.79368 0.0155 0.0
H912 H 0.64706 0.71524 0.98468 0.0
H913 H 0.6507 0.743 0.08895 0.0
H914 H 0.62654 0.74457 0.13679 0.0
H915 H 0.57415 0.64346 0.13913 0.0
H916 H 0.59772 0.64132 0.09115 0.0
H917 H 0.743 0.64325 0.99698 0.0
H918 H 0.72472 0.68163 1.00224 0.0
H919 H 0.64379 0.61276 0.05189 0.0
H920 H 0.66363 0.57629 0.04914 0.0
H921 H 0.65828 0.66292 0.07512 0.0
H922 H 0.64766 0.63333 0.96955 0.0
H923 H 0.6684 0.62948 0.92045 0.0
H924 H 0.72941 0.72983 0.91888 0.0
H925 H 0.70927 0.73419 0.96812 0.0
C926 C 0.56911 0.72314 0.04373 0.0
C927 C 0.58302 0.75445 0.03396 0.0
C928 C 0.58595 0.70695 0.0423 0.0
C929 C 0.61724 0.7221 0.03177 0.0
C930 C 0.63092 0.75338 0.02178 0.0
C931 C 0.61397 0.76939 0.02288 0.0
C932 C 0.63587 0.70558 0.03141 0.0
C933 C 0.64979 0.70403 1.00453 0.0
C934 C 0.63928 0.69071 0.05716 0.0
C935 C 0.62588 0.69203 0.08644 0.0
C936 C 0.63399 0.72113 0.09967 0.0
C937 C 0.62039 0.72211 0.12679 0.0
C938 C 0.59883 0.69413 0.14099 0.0
C939 C 0.59089 0.66511 0.12814 0.0
C940 C 0.6044 0.664 0.10102 0.0
C941 C 0.72173 0.63686 1.00952 0.0
C942 C 0.70493 0.60712 0.02302 0.0
C943 C 0.71098 0.65855 0.0122 0.0
C944 C 0.68235 0.65006 0.02697 0.0
C945 C 0.66601 0.62031 0.04061 0.0
C946 C 0.67737 0.59935 0.03902 0.0
C947 C 0.66839 0.67116 0.02797 0.0
C948 C 0.65563 0.67401 0.05515 0.0
C949 C 0.66553 0.68667 1.00233 0.0
C950 C 0.6772 0.68404 0.97258 0.0
C951 C 0.66557 0.65454 0.95874 0.0
C952 C 0.67722 0.65227 0.93091 0.0
C953 C 0.70026 0.67939 0.91659 0.0
C954 C 0.71161 0.70884 0.93002 0.0
C955 C 0.70008 0.71123 0.95787 0.0
H956 H 0.70928 0.67758 0.89506 0.0
H957 H 0.58828 0.69495 0.16196 0.0
H958 H 0.83454 0.52445 0.02452 0.0
H959 H 0.88884 0.56603 0.03605 0.0
H960 H 0.86504 0.63691 0.01132 0.0
H961 H 0.81115 0.59578 1.00024 0.0
H962 H 0.92633 0.64862 0.99146 0.0
H963 H 0.86031 0.61988 0.08156 0.0
H964 H 0.82344 0.57906 0.11643 0.0
H965 H 0.89247 0.55145 0.13516 0.0
H966 H 0.92964 0.59195 0.10025 0.0
H967 H 0.07294 0.75925 0.04204 0.0
H968 H 0.01572 0.73783 0.04087 0.0
H969 H 0.00334 0.65745 0.09205 0.0
H970 H 0.0596 0.68061 0.09648 0.0
H971 H 0.95531 0.65719 0.09885 0.0
H972 H 0.01343 0.66805 1.00519 0.0
H973 H 0.05157 0.69896 0.96566 0.0
H974 H 0.0024 0.74981 0.94943 0.0
H975 H 0.96386 0.71898 0.98878 0.0
C976 C 0.84132 0.5489 0.02097 0.0
C977 C 0.81912 0.55712 0.01127 0.0
C978 C 0.87207 0.57251 0.02757 0.0
C979 C 0.8806 0.60437 0.02461 0.0
C980 C 0.85881 0.61244 0.01353 0.0
C981 C 0.82818 0.58898 1.00716 0.0
C982 C 0.91128 0.62943 0.03552 0.0
C983 C 0.93275 0.65082 0.01494 0.0
C984 C 0.91937 0.63188 0.06607 0.0
C985 C 0.89771 0.60894 0.08837 0.0
C986 C 0.86763 0.60516 0.09321 0.0
C987 C 0.84667 0.58205 0.11293 0.0
C988 C 0.85561 0.56268 0.12799 0.0
C989 C 0.8856 0.56651 0.12353 0.0
C990 C 0.90665 0.5896 0.10387 0.0
C991 C 0.05781 0.73792 0.05438 0.0
C992 C 0.07045 0.72125 0.0689 0.0
C993 C 0.02514 0.72533 0.05324 0.0
C994 C 0.00504 0.69499 0.06469 0.0
C995 C 0.01801 0.68061 0.08251 0.0
C996 C 0.05046 0.69396 0.08508 0.0
C997 C 0.9718 0.6757 0.05455 0.0
C998 C 0.9492 0.65549 0.07533 0.0
C999 C 0.96324 0.67329 0.02386 0.0
C1000 C 0.98607 0.69153 1.00004 0.0
C1001 C 0.01083 0.68585 0.99316 0.0
C1002 C 0.0325 0.70336 0.97083 0.0
C1003 C 0.02954 0.72649 0.95516 0.0
C1004 C 0.00472 0.73196 0.96163 0.0
C1005 C 0.98292 0.71443 0.98388 0.0
H1006 H 0.04641 0.74009 0.93795 0.0
H1007 H 0.83928 0.54469 0.14312 0.0
H1008 H 0.15501 0.67162 0.51865 0.0
H1009 H 0.09782 0.65133 0.51625 0.0
H1010 H 0.11405 0.74637 0.52084 0.0
H1011 H 0.17097 0.76642 0.5238 0.0
H1012 H 0.06473 0.70938 0.5538 0.0
H1013 H 0.09816 0.70943 0.45652 0.0
H1014 H 0.12579 0.70046 0.4152 0.0
H1015 H 0.065 0.60055 0.42373 0.0
H1016 H 0.03809 0.60878 0.46634 0.0
H1017 H 0.89697 0.63322 0.51062 0.0
H1018 H 0.9541 0.67017 0.50977 0.0
H1019 H 0.97134 0.5927 0.52265 0.0
H1020 H 0.91501 0.556 0.52372 0.0
H1021 H 0.00387 0.63299 0.4736 0.0
H1022 H 0.97738 0.64033 0.57928 0.0
H1023 H 0.95064 0.65532 0.61712 0.0
H1024 H -0.00213 0.75023 0.58393 0.0
H1025 H 0.02452 0.73566 0.5456 0.0
C1026 C 0.14616 0.68796 0.51932 0.0
C1027 C 0.16699 0.72038 0.5214 0.0
C1028 C 0.11367 0.67651 0.51788 0.0
C1029 C 0.10174 0.69743 0.51805 0.0
C1030 C 0.12269 0.72984 0.52074 0.0
C1031 C 0.15507 0.74123 0.52232 0.0
C1032 C 0.06746 0.68539 0.51446 0.0
C1033 C 0.05148 0.69298 0.53603 0.0
C1034 C 0.05027 0.665 0.49064 0.0
C1035 C 0.06622 0.65975 0.46487 0.0
C1036 C 0.09086 0.68551 0.44985 0.0
C1037 C 0.10641 0.68055 0.42615 0.0
C1038 C 0.09702 0.64997 0.41666 0.0
C1039 C 0.07222 0.62424 0.43107 0.0
C1040 C 0.05691 0.62904 0.45513 0.0
C1041 C 0.913 0.62415 0.51346 0.0
C1042 C 0.90146 0.59161 0.51691 0.0
C1043 C 0.94553 0.64527 0.51297 0.0
C1044 C 0.96677 0.63402 0.51596 0.0
C1045 C 0.95525 0.60174 0.52003 0.0
C1046 C 0.92299 0.58078 0.52061 0.0
C1047 C 0.0012 0.65508 0.51415 0.0
C1048 C 0.01729 0.64963 0.49116 0.0
C1049 C 0.01842 0.67819 0.53602 0.0
C1050 C 0.00265 0.68682 0.55938 0.0
C1051 C 0.98186 0.66432 0.57991 0.0
C1052 C 0.96676 0.67276 0.60147 0.0
C1053 C 0.97248 0.70368 0.60287 0.0
C1054 C 0.99341 0.72627 0.58278 0.0
C1055 C 0.00852 0.71794 0.56115 0.0
H1056 H 0.96076 0.71016 0.61957 0.0
H1057 H 0.10899 0.64622 0.39816 0.0
H1058 H 0.35475 0.10953 0.54788 0.0
H1059 H 0.32058 0.05215 0.54908 0.0
H1060 H 0.32949 0.04875 0.45327 0.0
H1061 H 0.36236 0.10608 0.45205 0.0
H1062 H 0.27069 0.02213 0.46718 0.0
H1063 H 0.35898 0.01397 0.50271 0.0
H1064 H 0.40387 0.02274 0.53469 0.0
H1065 H 0.3428 0.98893 0.61102 0.0
H1066 H 0.29757 0.98007 0.57953 0.0
H1067 H 0.24389 0.8697 0.44729 0.0
H1068 H 0.24641 0.92043 0.44646 0.0
H1069 H 0.20759 0.90409 0.53541 0.0
H1070 H 0.20466 0.85303 0.53634 0.0
H1071 H 0.27368 0.94134 0.53164 0.0
H1072 H 0.1833 0.93915 0.48784 0.0
H1073 H 0.14136 0.9247 0.45018 0.0
H1074 H 0.21109 0.97344 0.38243 0.0
H1075 H 0.25345 0.9879 0.41957 0.0
C1076 C 0.35008 0.09624 0.52732 0.0
C1077 C 0.36069 0.11174 0.49986 0.0
C1078 C 0.33064 0.06358 0.52797 0.0
C1079 C 0.32224 0.04631 0.50119 0.0
C1080 C 0.33533 0.06174 0.4741 0.0
C1081 C 0.35417 0.09433 0.47341 0.0
C1082 C 0.29704 0.01303 0.50072 0.0
C1083 C 0.27144 0.00436 0.48112 0.0
C1084 C 0.29754 0.99017 0.51961 0.0
C1085 C 0.32499 0.99689 0.53886 0.0
C1086 C 0.35521 0.00884 0.5264 0.0
C1087 C 0.38068 0.01367 0.5444 0.0
C1088 C 0.37621 0.00657 0.57489 0.0
C1089 C 0.34625 0.99453 0.58742 0.0
C1090 C 0.32069 0.98958 0.56951 0.0
C1091 C 0.2341 0.876 0.46598 0.0
C1092 C 0.22609 0.85862 0.49265 0.0
C1093 C 0.23527 0.90499 0.46538 0.0
C1094 C 0.22844 0.91639 0.49141 0.0
C1095 C 0.21354 0.89581 0.51536 0.0
C1096 C 0.21227 0.86679 0.51595 0.0
C1097 C 0.24774 0.95028 0.49757 0.0
C1098 C 0.27245 0.95924 0.51828 0.0
C1099 C 0.24699 0.97309 0.47894 0.0
C1100 C 0.22156 0.96459 0.45653 0.0
C1101 C 0.1897 0.94665 0.46488 0.0
C1102 C 0.16584 0.93849 0.44362 0.0
C1103 C 0.17355 0.94815 0.41393 0.0
C1104 C 0.20514 0.96603 0.40544 0.0
C1105 C 0.22908 0.97428 0.42661 0.0
H1106 H 0.15505 0.94178 0.39751 0.0
H1107 H 0.39592 0.01033 0.5888 0.0
H1108 H 0.23261 0.40603 0.51766 0.0
H1109 H 0.25498 0.37126 0.51351 0.0
H1110 H 0.34878 0.45208 0.5172 0.0
H1111 H 0.32615 0.4869 0.52227 0.0
H1112 H 0.2915 0.36336 0.47543 0.0
H1113 H 0.39677 0.43208 0.55687 0.0
H1114 H 0.41087 0.46852 0.59944 0.0
H1115 H 0.31274 0.43159 0.61918 0.0
H1116 H 0.29811 0.39377 0.5778 0.0
H1117 H 0.43306 0.34641 0.4853 0.0
H1118 H 0.39878 0.36953 0.48556 0.0
H1119 H 0.32878 0.28978 0.53517 0.0
H1120 H 0.36244 0.26564 0.53375 0.0
H1121 H 0.36767 0.37075 0.55303 0.0
H1122 H 0.29058 0.28067 0.49548 0.0
H1123 H 0.27468 0.24232 0.45428 0.0
H1124 H 0.31077 0.31776 0.39032 0.0
H1125 H 0.3276 0.35661 0.43129 0.0
C1126 C 0.25803 0.41627 0.51756 0.0
C1127 C 0.2778 0.44895 0.52081 0.0
C1128 C 0.27076 0.39646 0.51497 0.0
C1129 C 0.30354 0.40896 0.51545 0.0
C1130 C 0.32338 0.44185 0.51732 0.0
C1131 C 0.31057 0.46173 0.52015 0.0
C1132 C 0.31674 0.38738 0.51545 0.0
C1133 C 0.30801 0.36492 0.49252 0.0
C1134 C 0.33777 0.3888 0.53805 0.0
C1135 C 0.34635 0.41044 0.56392 0.0
C1136 C 0.37822 0.43153 0.57049 0.0
C1137 C 0.38632 0.45244 0.59445 0.0
C1138 C 0.36277 0.45268 0.61184 0.0
C1139 C 0.33103 0.43152 0.6057 0.0
C1140 C 0.32281 0.41022 0.58207 0.0
C1141 C 0.41013 0.33355 0.49584 0.0
C1142 C 0.40031 0.30427 0.50953 0.0
C1143 C 0.39057 0.34669 0.49583 0.0
C1144 C 0.36113 0.33107 0.50992 0.0
C1145 C 0.35112 0.30176 0.52354 0.0
C1146 C 0.37038 0.28813 0.52286 0.0
C1147 C 0.34282 0.3474 0.51288 0.0
C1148 C 0.35083 0.36907 0.53623 0.0
C1149 C 0.32067 0.34473 0.49111 0.0
C1150 C 0.31091 0.32155 0.46646 0.0
C1151 C 0.29566 0.28911 0.47267 0.0
C1152 C 0.28635 0.26727 0.44936 0.0
C1153 C 0.29187 0.2776 0.4197 0.0
C1154 C 0.30664 0.3098 0.41331 0.0
C1155 C 0.3161 0.33173 0.43657 0.0
H1156 H 0.28457 0.26067 0.40167 0.0
H1157 H 0.36919 0.46924 0.6301 0.0
H1158 H 0.1505 0.35006 0.53375 0.0
H1159 H 0.10039 0.30102 0.53649 0.0
H1160 H 0.06992 0.32542 0.45519 0.0
H1161 H 0.11984 0.37462 0.45243 0.0
H1162 H 0.05872 0.32608 0.54259 0.0
H1163 H 0.00107 0.26077 0.43369 0.0
H1164 H 0.01394 0.2387 0.39001 0.0
H1165 H 0.07764 0.22271 0.44364 0.0
H1166 H 0.0649 0.24441 0.48776 0.0
H1167 H 0.89993 0.2864 0.50559 0.0
H1168 H 0.95675 0.30654 0.51164 0.0
H1169 H 0.938 0.21333 0.53553 0.0
H1170 H 0.88148 0.19326 0.52934 0.0
H1171 H 0.97457 0.23786 0.48484 0.0
H1172 H 0.96999 0.27196 0.58581 0.0
H1173 H 0.95797 0.30119 0.62345 0.0
H1174 H 0.0197 0.38828 0.57895 0.0
H1175 H 0.03164 0.35958 0.54075 0.0
C1176 C 0.13384 0.34408 0.51548 0.0
C1177 C 0.13813 0.36658 0.49368 0.0
C1178 C 0.1053 0.31595 0.51703 0.0
C1179 C 0.0813 0.31029 0.49659 0.0
C1180 C 0.08821 0.32962 0.4713 0.0
C1181 C 0.11679 0.35785 0.46977 0.0
C1182 C 0.04839 0.29287 0.50675 0.0
C1183 C 0.04026 0.30627 0.53043 0.0
C1184 C 0.02459 0.26786 0.49021 0.0
C1185 C 0.03205 0.25424 0.46402 0.0
C1186 C 0.01765 0.25233 0.43623 0.0
C1187 C 0.02498 0.23996 0.41137 0.0
C1188 C 0.04661 0.22932 0.41404 0.0
C1189 C 0.06093 0.23102 0.44159 0.0
C1190 C 0.05372 0.24341 0.46653 0.0
C1191 C 0.90803 0.27063 0.51328 0.0
C1192 C 0.88676 0.23841 0.51701 0.0
C1193 C 0.94033 0.28205 0.51669 0.0
C1194 C 0.95134 0.26127 0.52396 0.0
C1195 C 0.92982 0.2296 0.5299 0.0
C1196 C 0.8977 0.21821 0.52636 0.0
C1197 C 0.98491 0.2712 0.52056 0.0
C1198 C 0.99305 0.25683 0.49779 0.0
C1199 C 0.00874 0.29627 0.53715 0.0
C1200 C 0.00157 0.31351 0.56029 0.0
C1201 C 0.98081 0.2973 0.5839 0.0
C1202 C 0.97403 0.3138 0.60537 0.0
C1203 C 0.98802 0.34655 0.60358 0.0
C1204 C 0.00886 0.3629 0.58033 0.0
C1205 C 0.01566 0.34652 0.55878 0.0
H1206 H 0.98275 0.35927 0.62023 0.0
H1207 H 0.05226 0.21976 0.39476 0.0
H1208 H 0.73116 0.09495 0.54311 0.0
H1209 H 0.70548 0.0371 0.54486 0.0
H1210 H 0.64245 0.03078 0.4739 0.0
H1211 H 0.6669 0.08795 0.47326 0.0
H1212 H 0.61045 0.99765 0.5195 0.0
H1213 H 0.70385 0.0115 0.46691 0.0
H1214 H 0.76088 0.03138 0.46136 0.0
H1215 H 0.76102 0.98388 0.54209 0.0
H1216 H 0.70408 0.96406 0.54837 0.0
H1217 H 0.52591 0.83601 0.48258 0.0
H1218 H 0.55973 0.89348 0.48282 0.0
H1219 H 0.61877 0.88571 0.55035 0.0
H1220 H 0.58654 0.82859 0.54849 0.0
H1221 H 0.65469 0.92624 0.51241 0.0
H1222 H 0.5638 0.91146 0.56562 0.0
H1223 H 0.50729 0.89187 0.57468 0.0
H1224 H 0.50333 0.94244 0.49787 0.0
H1225 H 0.55972 0.96218 0.48814 0.0
C1226 C 0.71226 0.08102 0.52755 0.0
C1227 C 0.70067 0.09557 0.50826 0.0
C1228 C 0.69766 0.04807 0.52848 0.0
C1229 C 0.6719 0.02956 0.50958 0.0
C1230 C 0.66203 0.04449 0.4889 0.0
C1231 C 0.67602 0.07712 0.48848 0.0
C1232 C 0.65266 0.99487 0.5131 0.0
C1233 C 0.6201 0.982 0.51749 0.0
C1234 C 0.66546 0.97458 0.51215 0.0
C1235 C 0.69973 0.98656 0.50827 0.0
C1236 C 0.71608 0.00551 0.48362 0.0
C1237 C 0.7484 0.01673 0.48032 0.0
C1238 C 0.76458 0.00897 0.5014 0.0
C1239 C 0.74847 0.98991 0.5258 0.0
C1240 C 0.71618 0.97867 0.52923 0.0
C1241 C 0.54595 0.8467 0.49762 0.0
C1242 C 0.55292 0.82786 0.51622 0.0
C1243 C 0.5652 0.87952 0.49789 0.0
C1244 C 0.59152 0.8941 0.5171 0.0
C1245 C 0.59851 0.87518 0.53555 0.0
C1246 C 0.57962 0.84245 0.53491 0.0
C1247 C 0.61222 0.92895 0.51745 0.0
C1248 C 0.64503 0.94186 0.51428 0.0
C1249 C 0.59979 0.94948 0.51995 0.0
C1250 C 0.56591 0.93791 0.52591 0.0
C1251 C 0.55083 0.91824 0.55054 0.0
C1252 C 0.51884 0.90719 0.55583 0.0
C1253 C 0.50173 0.91582 0.53677 0.0
C1254 C 0.51663 0.9358 0.51258 0.0
C1255 C 0.5486 0.94693 0.50717 0.0
H1256 H 0.47689 0.90692 0.54064 0.0
H1257 H 0.78958 0.01767 0.49879 0.0
H1258 H 0.64583 0.7891 0.52711 0.0
H1259 H 0.69272 0.78419 0.533 0.0
H1260 H 0.67065 0.73189 0.45059 0.0
H1261 H 0.62378 0.73657 0.44453 0.0
H1262 H 0.65165 0.70369 0.52108 0.0
H1263 H 0.73017 0.76427 0.44412 0.0
H1264 H 0.76935 0.81381 0.42014 0.0
H1265 H 0.82057 0.84495 0.50286 0.0
H1266 H 0.78138 0.79564 0.5274 0.0
H1267 H 0.71487 0.60529 0.49533 0.0
H1268 H 0.6904 0.63796 0.50053 0.0
H1269 H 0.76852 0.70343 0.55544 0.0
H1270 H 0.79351 0.67118 0.54919 0.0
H1271 H 0.76344 0.73208 0.50941 0.0
H1272 H 0.68921 0.66289 0.58192 0.0
H1273 H 0.6489 0.61293 0.60445 0.0
H1274 H 0.58749 0.59648 0.52953 0.0
H1275 H 0.62741 0.64618 0.50646 0.0
C1276 C 0.65202 0.77819 0.50933 0.0
C1277 C 0.63049 0.76164 0.48624 0.0
C1278 C 0.67904 0.77575 0.51258 0.0
C1279 C 0.68446 0.75702 0.4926 0.0
C1280 C 0.66666 0.74643 0.46621 0.0
C1281 C 0.63968 0.74893 0.46289 0.0
C1282 C 0.69746 0.73806 0.50464 0.0
C1283 C 0.67609 0.70965 0.51859 0.0
C1284 C 0.72938 0.74682 0.50222 0.0
C1285 C 0.7526 0.77658 0.48769 0.0
C1286 C 0.74952 0.78189 0.45729 0.0
C1287 C 0.77181 0.80985 0.44356 0.0
C1288 C 0.79736 0.83259 0.46 0.0
C1289 C 0.80072 0.82736 0.49018 0.0
C1290 C 0.77849 0.79941 0.504 0.0
C1291 C 0.7261 0.62602 0.50942 0.0
C1292 C 0.75593 0.63603 0.52181 0.0
C1293 C 0.71209 0.64462 0.51255 0.0
C1294 C 0.72765 0.67312 0.52847 0.0
C1295 C 0.75621 0.68156 0.54305 0.0
C1296 C 0.77043 0.66325 0.53947 0.0
C1297 C 0.71732 0.69655 0.52489 0.0
C1298 C 0.73911 0.72607 0.51273 0.0
C1299 C 0.68549 0.68855 0.52865 0.0
C1300 C 0.66149 0.65831 0.54238 0.0
C1301 C 0.66722 0.64854 0.57014 0.0
C1302 C 0.64436 0.62028 0.58306 0.0
C1303 C 0.61563 0.60156 0.56846 0.0
C1304 C 0.60969 0.61105 0.54089 0.0
C1305 C 0.63241 0.63931 0.52792 0.0
H1306 H 0.59797 0.57971 0.57849 0.0
H1307 H 0.81462 0.8542 0.44932 0.0
H1308 H 0.43615 0.24295 0.39167 0.0
H1309 H 0.43593 0.23273 0.33815 0.0
H1310 H 0.53535 0.2639 0.3423 0.0
H1311 H 0.5356 0.27478 0.39604 0.0
H1312 H 0.52416 0.28433 0.29269 0.0
H1313 H 0.47255 0.1817 0.33952 0.0
H1314 H 0.4324 0.13958 0.37118 0.0
H1315 H 0.35883 0.1359 0.31565 0.0
H1316 H 0.39854 0.17828 0.28388 0.0
H1317 H 0.54029 0.22004 0.15724 0.0
H1318 H 0.53677 0.2318 0.20952 0.0
H1319 H 0.43795 0.20052 0.19808 0.0
H1320 H 0.44123 0.1881 0.14539 0.0
H1321 H 0.44613 0.18052 0.25068 0.0
H1322 H 0.49535 0.28115 0.20379 0.0
H1323 H 0.53373 0.32494 0.17245 0.0
H1324 H 0.60957 0.33379 0.22794 0.0
H1325 H 0.57164 0.2898 0.25944 0.0
C1326 C 0.45803 0.24774 0.38116 0.0
C1327 C 0.48587 0.2595 0.39829 0.0
C1328 C 0.45784 0.24163 0.35045 0.0
C1329 C 0.48543 0.24662 0.33584 0.0
C1330 C 0.51357 0.25949 0.35276 0.0
C1331 C 0.51379 0.26585 0.38355 0.0
C1332 C 0.485 0.23862 0.3031 0.0
C1333 C 0.50736 0.2614 0.28373 0.0
C1334 C 0.46238 0.20915 0.29063 0.0
C1335 C 0.43852 0.18335 0.30947 0.0
C1336 C 0.4478 0.17201 0.33415 0.0
C1337 C 0.42512 0.14809 0.35211 0.0
C1338 C 0.39308 0.13512 0.34547 0.0
C1339 C 0.38366 0.14598 0.32079 0.0
C1340 C 0.40624 0.16993 0.30278 0.0
C1341 C 0.51769 0.21559 0.16565 0.0
C1342 C 0.49108 0.20312 0.14667 0.0
C1343 C 0.51576 0.22258 0.19577 0.0
C1344 C 0.48722 0.21771 0.20811 0.0
C1345 C 0.46037 0.20473 0.1894 0.0
C1346 C 0.46228 0.19765 0.15911 0.0
C1347 C 0.48573 0.22607 0.24043 0.0
C1348 C 0.46296 0.20341 0.25967 0.0
C1349 C 0.50778 0.25575 0.2528 0.0
C1350 C 0.53069 0.28199 0.23378 0.0
C1351 C 0.52024 0.29226 0.20915 0.0
C1352 C 0.5419 0.31716 0.1914 0.0
C1353 C 0.57408 0.33208 0.19815 0.0
C1354 C 0.58464 0.32218 0.22271 0.0
C1355 C 0.56307 0.29729 0.24054 0.0
H1356 H 0.59081 0.35136 0.18439 0.0
H1357 H 0.37557 0.11662 0.35942 0.0
H1358 H 0.27426 0.49569 0.15369 0.0
H1359 H 0.25998 0.50133 0.20453 0.0
H1360 H 0.26421 0.41876 0.23149 0.0
H1361 H 0.27749 0.41236 0.18041 0.0
H1362 H 0.21332 0.41509 0.2518 0.0
H1363 H 0.32077 0.49178 0.25261 0.0
H1364 H 0.37087 0.53676 0.23547 0.0
H1365 H 0.33212 0.59803 0.24463 0.0
H1366 H 0.28151 0.55327 0.26128 0.0
H1367 H 0.22818 0.45935 0.40822 0.0
H1368 H 0.24436 0.45427 0.35813 0.0
H1369 H 0.18671 0.48974 0.3207 0.0
H1370 H 0.16939 0.49405 0.3713 0.0
H1371 H 0.26532 0.51612 0.30755 0.0
H1372 H 0.15392 0.4292 0.3061 0.0
H1373 H 0.10998 0.38128 0.32819 0.0
H1374 H 0.16599 0.33611 0.32654 0.0
H1375 H 0.21053 0.38406 0.30506 0.0
C1376 C 0.27256 0.479 0.17055 0.0
C1377 C 0.27702 0.45365 0.16327 0.0
C1378 C 0.26447 0.48227 0.19954 0.0
C1379 C 0.26139 0.46062 0.22169 0.0
C1380 C 0.26649 0.43566 0.2146 0.0
C1381 C 0.27417 0.43213 0.18552 0.0
C1382 C 0.25142 0.46332 0.25192 0.0
C1383 C 0.22486 0.43714 0.26405 0.0
C1384 C 0.26678 0.49198 0.26796 0.0
C1385 C 0.29718 0.51906 0.25791 0.0
C1386 C 0.32279 0.51477 0.25069 0.0
C1387 C 0.35132 0.54025 0.2411 0.0
C1388 C 0.35465 0.57022 0.23888 0.0
C1389 C 0.32948 0.57478 0.24631 0.0
C1390 C 0.30086 0.54936 0.25584 0.0
C1391 C 0.21912 0.46637 0.38941 0.0
C1392 C 0.19781 0.47743 0.39344 0.0
C1393 C 0.2282 0.4632 0.36092 0.0
C1394 C 0.21643 0.47146 0.33618 0.0
C1395 C 0.19566 0.4831 0.33991 0.0
C1396 C 0.18591 0.4856 0.36856 0.0
C1397 C 0.22672 0.46842 0.30647 0.0
C1398 C 0.2537 0.49436 0.29486 0.0
C1399 C 0.21257 0.43921 0.29151 0.0
C1400 C 0.18572 0.41043 0.30443 0.0
C1401 C 0.15704 0.40925 0.31088 0.0
C1402 C 0.13199 0.38203 0.32319 0.0
C1403 C 0.13524 0.35571 0.32889 0.0
C1404 C 0.16353 0.35654 0.32221 0.0
C1405 C 0.18869 0.38374 0.30998 0.0
H1406 H 0.11579 0.33465 0.33838 0.0
H1407 H 0.37676 0.58992 0.23148 0.0
H1408 H 0.74631 0.28814 0.14773 0.0
H1409 H 0.73572 0.27382 0.20031 0.0
H1410 H 0.81527 0.25861 0.20396 0.0
H1411 H 0.82505 0.27155 0.1505 0.0
H1412 H 0.7718 0.21619 0.23678 0.0
H1413 H 0.81471 0.32886 0.23466 0.0
H1414 H 0.81819 0.37872 0.2185 0.0
H1415 H 0.72314 0.34529 0.24771 0.0
H1416 H 0.71911 0.29526 0.26404 0.0
H1417 H 0.77672 0.21199 0.39505 0.0
H1418 H 0.78714 0.22421 0.34242 0.0
H1419 H 0.71214 0.24635 0.33826 0.0
H1420 H 0.70452 0.2381 0.39236 0.0
H1421 H 0.75398 0.28515 0.3054 0.0
H1422 H 0.71131 0.17249 0.30886 0.0
H1423 H 0.70854 0.12327 0.3261 0.0
H1424 H 0.80272 0.15604 0.29461 0.0
H1425 H 0.80617 0.20558 0.27746 0.0
C1426 C 0.76173 0.28186 0.15961 0.0
C1427 C 0.78688 0.28151 0.14464 0.0
C1428 C 0.75573 0.27383 0.19002 0.0
C1429 C 0.77517 0.26595 0.20694 0.0
C1430 C 0.79992 0.26483 0.19186 0.0
C1431 C 0.80562 0.27237 0.16116 0.0
C1432 C 0.76948 0.25884 0.24007 0.0
C1433 C 0.7683 0.23154 0.25178 0.0
C1434 C 0.76409 0.27818 0.26008 0.0
C1435 C 0.76655 0.30827 0.25035 0.0
C1436 C 0.79453 0.33213 0.23752 0.0
C1437 C 0.79661 0.36043 0.22839 0.0
C1438 C 0.77089 0.36516 0.23205 0.0
C1439 C 0.74305 0.3416 0.2449 0.0
C1440 C 0.74089 0.31333 0.25419 0.0
C1441 C 0.76292 0.22033 0.38336 0.0
C1442 C 0.7402 0.22471 0.39864 0.0
C1443 C 0.76832 0.22646 0.35262 0.0
C1444 C 0.75002 0.23556 0.33543 0.0
C1445 C 0.72676 0.23932 0.35053 0.0
C1446 C 0.72208 0.2342 0.38162 0.0
C1447 C 0.75587 0.24225 0.30222 0.0
C1448 C 0.75725 0.26959 0.29047 0.0
C1449 C 0.76136 0.22287 0.28223 0.0
C1450 C 0.75905 0.19282 0.29205 0.0
C1451 C 0.73145 0.16923 0.30569 0.0
C1452 C 0.72977 0.14128 0.31545 0.0
C1453 C 0.75546 0.13656 0.3115 0.0
C1454 C 0.78285 0.15973 0.29767 0.0
C1455 C 0.78466 0.18772 0.28788 0.0
H1456 H 0.75413 0.11493 0.31911 0.0
H1457 H 0.77256 0.38709 0.22499 0.0
H1458 H 0.49146 0.75492 0.14642 0.0
H1459 H 0.48577 0.73893 0.19889 0.0
H1460 H 0.55574 0.83362 0.22397 0.0
H1461 H 0.56231 0.84945 0.17161 0.0
H1462 H 0.56534 0.79328 0.25356 0.0
H1463 H 0.47709 0.80729 0.23318 0.0
H1464 H 0.42973 0.80004 0.20642 0.0
H1465 H 0.38274 0.70083 0.22494 0.0
H1466 H 0.42997 0.70744 0.25148 0.0
H1467 H 0.4849 0.76517 0.40469 0.0
H1468 H 0.49447 0.78343 0.35266 0.0
H1469 H 0.50887 0.70621 0.32881 0.0
H1470 H 0.50048 0.68847 0.38085 0.0
H1471 H 0.45925 0.74096 0.30027 0.0
H1472 H 0.56196 0.73417 0.31014 0.0
H1473 H 0.61106 0.74909 0.33806 0.0
H1474 H 0.63121 0.84498 0.34193 0.0
H1475 H 0.5818 0.83036 0.31463 0.0
C1476 C 0.50544 0.77229 0.16319 0.0
C1477 C 0.52705 0.80342 0.15519 0.0
C1478 C 0.50223 0.76317 0.19303 0.0
C1479 C 0.52006 0.78528 0.21515 0.0
C1480 C 0.54183 0.81629 0.20713 0.0
C1481 C 0.54539 0.8253 0.17731 0.0
C1482 C 0.51565 0.7762 0.24678 0.0
C1483 C 0.54213 0.78186 0.26375 0.0
C1484 C 0.48549 0.76186 0.26012 0.0
C1485 C 0.45715 0.75781 0.24404 0.0
C1486 C 0.45674 0.7839 0.23133 0.0
C1487 C 0.42991 0.77991 0.21625 0.0
C1488 C 0.4033 0.74998 0.21391 0.0
C1489 C 0.4034 0.72399 0.22673 0.0
C1490 C 0.43017 0.72784 0.2418 0.0
C1491 C 0.48956 0.75184 0.3882 0.0
C1492 C 0.49178 0.72536 0.39645 0.0
C1493 C 0.49553 0.76255 0.35879 0.0
C1494 C 0.50347 0.74669 0.33755 0.0
C1495 C 0.504 0.71932 0.34538 0.0
C1496 C 0.49856 0.7089 0.3748 0.0
C1497 C 0.50865 0.75727 0.30654 0.0
C1498 C 0.48233 0.75214 0.28983 0.0
C1499 C 0.53898 0.77269 0.29368 0.0
C1500 C 0.56784 0.78101 0.31113 0.0
C1501 C 0.57652 0.75827 0.31752 0.0
C1502 C 0.60449 0.7667 0.33309 0.0
C1503 C 0.62413 0.79792 0.34197 0.0
C1504 C 0.61586 0.82077 0.33527 0.0
C1505 C 0.58784 0.81239 0.31986 0.0
H1506 H 0.64584 0.80444 0.35388 0.0
H1507 H 0.38257 0.74689 0.2022 0.0
H1508 H 0.74525 0.45817 0.39492 0.0
H1509 H 0.73553 0.45771 0.34097 0.0
H1510 H 0.79375 0.55889 0.33862 0.0
H1511 H 0.80279 0.55927 0.39243 0.0
H1512 H 0.74733 0.54625 0.30575 0.0
H1513 H 0.81623 0.50367 0.30741 0.0
H1514 H 0.83604 0.46812 0.32235 0.0
H1515 H 0.75077 0.38861 0.29018 0.0
H1516 H 0.73047 0.42367 0.27494 0.0
H1517 H 0.74841 0.55275 0.14403 0.0
H1518 H 0.76397 0.55658 0.19686 0.0
H1519 H 0.70125 0.45677 0.20737 0.0
H1520 H 0.68618 0.45276 0.15488 0.0
H1521 H 0.7532 0.47129 0.23542 0.0
H1522 H 0.68586 0.51823 0.23382 0.0
H1523 H 0.67028 0.5569 0.21812 0.0
H1524 H 0.75875 0.63247 0.24974 0.0
H1525 H 0.775 0.59426 0.2653 0.0
C1526 C 0.75618 0.48026 0.38281 0.0
C1527 C 0.77456 0.50874 0.39825 0.0
C1528 C 0.75073 0.48005 0.35176 0.0
C1529 C 0.76404 0.50829 0.33502 0.0
C1530 C 0.78287 0.53667 0.35052 0.0
C1531 C 0.78807 0.53688 0.38151 0.0
C1532 C 0.75776 0.50852 0.30176 0.0
C1533 C 0.74912 0.53007 0.29043 0.0
C1534 C 0.75967 0.48747 0.28118 0.0
C1535 C 0.77173 0.46627 0.29029 0.0
C1536 C 0.80165 0.47858 0.30364 0.0
C1537 C 0.81301 0.45852 0.31205 0.0
C1538 C 0.79469 0.42612 0.30714 0.0
C1539 C 0.76499 0.41371 0.29379 0.0
C1540 C 0.75357 0.43367 0.2852 0.0
C1541 C 0.73783 0.53162 0.1576 0.0
C1542 C 0.71577 0.50245 0.14486 0.0
C1543 C 0.74668 0.53384 0.18803 0.0
C1544 C 0.73358 0.50702 0.20676 0.0
C1545 C 0.71186 0.47795 0.19385 0.0
C1546 C 0.7031 0.47571 0.16358 0.0
C1547 C 0.74234 0.50867 0.23954 0.0
C1548 C 0.7515 0.48749 0.25078 0.0
C1549 C 0.74152 0.53049 0.2599 0.0
C1550 C 0.73176 0.55341 0.25041 0.0
C1551 C 0.70208 0.54311 0.2372 0.0
C1552 C 0.69312 0.56494 0.22837 0.0
C1553 C 0.71355 0.59713 0.23285 0.0
C1554 C 0.74297 0.60754 0.24623 0.0
C1555 C 0.75206 0.58581 0.25507 0.0
H1556 H 0.70656 0.61399 0.22601 0.0
H1557 H 0.8035 0.41062 0.31369 0.0
H1558 H 0.24166 0.76418 0.14881 0.0
H1559 H 0.25319 0.77587 0.20171 0.0
H1560 H 0.17485 0.68427 0.22411 0.0
H1561 H 0.16118 0.67419 0.17093 0.0
H1562 H 0.17683 0.72432 0.26163 0.0
H1563 H 0.25794 0.7041 0.22171 0.0
H1564 H 0.3005 0.71358 0.18642 0.0
H1565 H 0.3531 0.81014 0.21457 0.0
H1566 H 0.31072 0.80129 0.24978 0.0
H1567 H 0.23896 0.71349 0.40588 0.0
H1568 H 0.22059 0.70423 0.35368 0.0
H1569 H 0.27842 0.80347 0.33508 0.0
H1570 H 0.2965 0.81294 0.38693 0.0
H1571 H 0.28598 0.76071 0.29678 0.0
H1572 H 0.20835 0.78193 0.33756 0.0
H1573 H 0.16533 0.77656 0.37006 0.0
H1574 H 0.10669 0.68123 0.34047 0.0
H1575 H 0.14953 0.68589 0.30801 0.0
C1576 C 0.22708 0.74655 0.16503 0.0
C1577 C 0.20103 0.71806 0.15613 0.0
C1578 C 0.23371 0.75315 0.19523 0.0
C1579 C 0.2155 0.73051 0.2168 0.0
C1580 C 0.18936 0.70196 0.2078 0.0
C1581 C 0.18185 0.696 0.17758 0.0
C1582 C 0.22403 0.73638 0.24869 0.0
C1583 C 0.20055 0.7317 0.26942 0.0
C1584 C 0.25525 0.74711 0.25865 0.0
C1585 C 0.28111 0.75207 0.23818 0.0
C1586 C 0.27859 0.72734 0.22032 0.0
C1587 C 0.30265 0.73262 0.20032 0.0
C1588 C 0.32941 0.76248 0.19817 0.0
C1589 C 0.33233 0.78705 0.21621 0.0
C1590 C 0.30833 0.7819 0.23622 0.0
C1591 C 0.2481 0.73314 0.39044 0.0
C1592 C 0.26944 0.76382 0.40005 0.0
C1593 C 0.23718 0.72794 0.36098 0.0
C1594 C 0.24789 0.75333 0.34106 0.0
C1595 C 0.26977 0.78377 0.35046 0.0
C1596 C 0.2803 0.78903 0.37983 0.0
C1597 C 0.23871 0.74796 0.30957 0.0
C1598 C 0.26216 0.75291 0.28897 0.0
C1599 C 0.20756 0.73759 0.2999 0.0
C1600 C 0.18237 0.73413 0.32065 0.0
C1601 C 0.18651 0.75964 0.33834 0.0
C1602 C 0.16206 0.75679 0.35662 0.0
C1603 C 0.13329 0.7286 0.35726 0.0
C1604 C 0.12898 0.70308 0.33987 0.0
C1605 C 0.15334 0.70581 0.32154 0.0
H1606 H 0.11431 0.72654 0.37122 0.0
H1607 H 0.34789 0.76659 0.18249 0.0
H1608 H 0.58628 0.8011 0.65856 0.0
H1609 H 0.57363 0.80837 0.70937 0.0
H1610 H 0.50828 0.70868 0.71692 0.0
H1611 H 0.5215 0.70089 0.66593 0.0
H1612 H 0.48926 0.75662 0.7406 0.0
H1613 H 0.56717 0.72423 0.74801 0.0
H1614 H 0.61571 0.72434 0.73305 0.0
H1615 H 0.67067 0.82269 0.75437 0.0
H1616 H 0.62239 0.82334 0.7689 0.0
H1617 H 0.51443 0.78496 0.90311 0.0
H1618 H 0.50135 0.76174 0.85329 0.0
H1619 H 0.57103 0.85028 0.81517 0.0
H1620 H 0.58352 0.8741 0.86483 0.0
H1621 H 0.58018 0.79519 0.81042 0.0
H1622 H 0.50455 0.83027 0.79634 0.0
H1623 H 0.45746 0.83357 0.8098 0.0
H1624 H 0.39968 0.73332 0.80039 0.0
H1625 H 0.44662 0.72936 0.78744 0.0
C1626 C 0.5692 0.78067 0.67098 0.0
C1627 C 0.55484 0.75042 0.65847 0.0
C1628 C 0.56181 0.78493 0.69976 0.0
C1629 C 0.54014 0.75898 0.71645 0.0
C1630 C 0.52488 0.72883 0.70392 0.0
C1631 C 0.53241 0.72449 0.67495 0.0
C1632 C 0.53603 0.76386 0.74782 0.0
C1633 C 0.50865 0.76419 0.75632 0.0
C1634 C 0.56181 0.77422 0.76766 0.0
C1635 C 0.59107 0.77384 0.75943 0.0
C1636 C 0.58957 0.74594 0.74931 0.0
C1637 C 0.61705 0.74587 0.74092 0.0
C1638 C 0.64625 0.77351 0.74273 0.0
C1639 C 0.64803 0.80129 0.75299 0.0
C1640 C 0.62061 0.80151 0.76134 0.0
C1641 C 0.5257 0.79997 0.88404 0.0
C1642 C 0.54973 0.83142 0.8876 0.0
C1643 C 0.51839 0.78657 0.85569 0.0
C1644 C 0.53533 0.80447 0.83102 0.0
C1645 C 0.55774 0.83638 0.83426 0.0
C1646 C 0.56486 0.84985 0.86247 0.0
C1647 C 0.53385 0.78897 0.80286 0.0
C1648 C 0.56031 0.78664 0.79512 0.0
C1649 C 0.50738 0.77705 0.78382 0.0
C1650 C 0.47915 0.77945 0.79136 0.0
C1651 C 0.48187 0.80887 0.7975 0.0
C1652 C 0.4552 0.81088 0.80496 0.0
C1653 C 0.42561 0.78365 0.80607 0.0
C1654 C 0.42263 0.75438 0.79961 0.0
C1655 C 0.44926 0.75224 0.79221 0.0
H1656 H 0.40497 0.78525 0.81184 0.0
H1657 H 0.66749 0.7734 0.73623 0.0
H1658 H 0.74376 0.52958 0.59319 0.0
H1659 H 0.73273 0.5299 0.64626 0.0
H1660 H 0.79207 0.49032 0.66678 0.0
H1661 H 0.80219 0.48884 0.61318 0.0
H1662 H 0.74651 0.46658 0.704 0.0
H1663 H 0.81555 0.57356 0.67543 0.0
H1664 H 0.83401 0.62226 0.646 0.0
H1665 H 0.75102 0.62593 0.67031 0.0
H1666 H 0.73187 0.57704 0.6996 0.0
H1667 H 0.7526 0.50607 0.8609 0.0
H1668 H 0.76394 0.49952 0.80886 0.0
H1669 H 0.70847 0.54055 0.77863 0.0
H1670 H 0.69842 0.54828 0.83041 0.0
H1671 H 0.75649 0.56434 0.74698 0.0
H1672 H 0.68702 0.45453 0.77439 0.0
H1673 H 0.67098 0.40651 0.8043 0.0
H1674 H 0.75811 0.40969 0.78304 0.0
H1675 H 0.77477 0.4579 0.75326 0.0
C1676 C 0.75426 0.52059 0.60888 0.0
C1677 C 0.77402 0.50928 0.5986 0.0
C1678 C 0.74818 0.52112 0.63951 0.0
C1679 C 0.76229 0.51112 0.66118 0.0
C1680 C 0.78097 0.49851 0.65089 0.0
C1681 C 0.78669 0.49752 0.62007 0.0
C1682 C 0.75766 0.51409 0.69429 0.0
C1683 C 0.74908 0.48816 0.71336 0.0
C1684 C 0.76067 0.54203 0.70709 0.0
C1685 C 0.77214 0.57146 0.68949 0.0
C1686 C 0.80113 0.58464 0.67434 0.0
C1687 C 0.81173 0.6123 0.65771 0.0
C1688 C 0.79366 0.62713 0.65622 0.0
C1689 C 0.76498 0.61439 0.67144 0.0
C1690 C 0.75426 0.58672 0.68809 0.0
C1691 C 0.74215 0.51294 0.84318 0.0
C1692 C 0.724 0.52716 0.8501 0.0
C1693 C 0.74873 0.50925 0.81315 0.0
C1694 C 0.73678 0.51903 0.7891 0.0
C1695 C 0.71822 0.53273 0.79625 0.0
C1696 C 0.71221 0.53694 0.8261 0.0
C1697 C 0.74432 0.51648 0.75664 0.0
C1698 C 0.75373 0.54268 0.73766 0.0
C1699 C 0.74234 0.4889 0.74404 0.0
C1700 C 0.73224 0.45995 0.76188 0.0
C1701 C 0.70281 0.44507 0.77626 0.0
C1702 C 0.69361 0.41781 0.79316 0.0
C1703 C 0.71355 0.40511 0.79564 0.0
C1704 C 0.74271 0.41958 0.78115 0.0
C1705 C 0.75202 0.44684 0.76424 0.0
H1706 H 0.70639 0.38402 0.80874 0.0
H1707 H 0.8019 0.64853 0.64333 0.0
H1708 H 0.19604 0.78473 0.66381 0.0
H1709 H 0.18493 0.76258 0.71391 0.0
H1710 H 0.28214 0.78662 0.72455 0.0
H1711 H 0.29368 0.80933 0.6739 0.0
H1712 H 0.22853 0.72251 0.74944 0.0
H1713 H 0.27264 0.83479 0.75358 0.0
H1714 H 0.27947 0.88575 0.73664 0.0
H1715 H 0.18176 0.85343 0.75417 0.0
H1716 H 0.17418 0.80202 0.77064 0.0
H1717 H 0.20132 0.73374 0.91089 0.0
H1718 H 0.22449 0.73886 0.86177 0.0
H1719 H 0.13734 0.72106 0.82049 0.0
H1720 H 0.11315 0.71408 0.86977 0.0
H1721 H 0.19744 0.78454 0.81445 0.0
H1722 H 0.15236 0.67156 0.80601 0.0
H1723 H 0.14408 0.61963 0.82137 0.0
H1724 H 0.24318 0.65304 0.8122 0.0
H1725 H 0.25215 0.70543 0.79735 0.0
C1726 C 0.21505 0.78514 0.67671 0.0
C1727 C 0.2458 0.79909 0.66541 0.0
C1728 C 0.20858 0.77219 0.70506 0.0
C1729 C 0.23284 0.77332 0.72261 0.0
C1730 C 0.26327 0.78558 0.71095 0.0
C1731 C 0.26979 0.79856 0.68228 0.0
C1732 C 0.22642 0.7652 0.75417 0.0
C1733 C 0.22252 0.73633 0.76412 0.0
C1734 C 0.21829 0.78334 0.77272 0.0
C1735 C 0.22282 0.81445 0.76319 0.0
C1736 C 0.25255 0.83844 0.75359 0.0
C1737 C 0.25656 0.86743 0.74409 0.0
C1738 C 0.23106 0.87281 0.74429 0.0
C1739 C 0.2015 0.84923 0.75403 0.0
C1740 C 0.19734 0.82016 0.76347 0.0
C1741 C 0.1864 0.72905 0.89151 0.0
C1742 C 0.15512 0.72275 0.89411 0.0
C1743 C 0.19984 0.73225 0.86346 0.0
C1744 C 0.18235 0.72986 0.83789 0.0
C1745 C 0.15082 0.72241 0.84027 0.0
C1746 C 0.13721 0.71873 0.86828 0.0
C1747 C 0.19849 0.74133 0.8094 0.0
C1748 C 0.20429 0.77104 0.80019 0.0
C1749 C 0.2084 0.72399 0.7918 0.0
C1750 C 0.20301 0.6926 0.80106 0.0
C1751 C 0.17247 0.66801 0.80772 0.0
C1752 C 0.16763 0.63844 0.81622 0.0
C1753 C 0.1931 0.63307 0.8179 0.0
C1754 C 0.22347 0.65726 0.811 0.0
C1755 C 0.22845 0.6869 0.80254 0.0
H1756 H 0.1893 0.61014 0.82443 0.0
H1757 H 0.23422 0.89528 0.73694 0.0
H1758 H 0.41583 0.17923 0.8417 0.0
H1759 H 0.42293 0.19484 0.78961 0.0
H1760 H 0.52307 0.23236 0.79816 0.0
H1761 H 0.51632 0.2164 0.85077 0.0
H1762 H 0.508 0.27162 0.76347 0.0
H1763 H 0.47603 0.16028 0.76488 0.0
H1764 H 0.44095 0.10478 0.77909 0.0
H1765 H 0.36284 0.10607 0.73635 0.0
H1766 H 0.39737 0.16166 0.72217 0.0
H1767 H 0.52761 0.29089 0.60359 0.0
H1768 H 0.52983 0.27962 0.65685 0.0
H1769 H 0.42971 0.21373 0.65558 0.0
H1770 H 0.42816 0.22297 0.6025 0.0
H1771 H 0.44946 0.18883 0.68766 0.0
H1772 H 0.47304 0.29636 0.68985 0.0
H1773 H 0.50176 0.35307 0.67783 0.0
H1774 H 0.58664 0.36148 0.71518 0.0
H1775 H 0.55848 0.30472 0.72712 0.0
C1776 C 0.43959 0.19079 0.83291 0.0
C1777 C 0.46542 0.19628 0.85133 0.0
C1778 C 0.44354 0.19974 0.80272 0.0
C1779 C 0.47349 0.21447 0.78942 0.0
C1780 C 0.49961 0.22098 0.80768 0.0
C1781 C 0.49566 0.21185 0.83813 0.0
C1782 C 0.47693 0.22208 0.75641 0.0
C1783 C 0.49559 0.25346 0.74681 0.0
C1784 C 0.45988 0.19877 0.73445 0.0
C1785 C 0.43928 0.16518 0.7426 0.0
C1786 C 0.45135 0.14876 0.75862 0.0
C1787 C 0.43156 0.11728 0.76666 0.0
C1788 C 0.39968 0.10192 0.75866 0.0
C1789 C 0.38753 0.11798 0.74252 0.0
C1790 C 0.40722 0.14945 0.73444 0.0
C1791 C 0.50617 0.27387 0.61472 0.0
C1792 C 0.47778 0.25774 0.59843 0.0
C1793 C 0.5073 0.26762 0.64547 0.0
C1794 C 0.47982 0.24598 0.66116 0.0
C1795 C 0.45153 0.23027 0.64467 0.0
C1796 C 0.45061 0.23572 0.61398 0.0
C1797 C 0.48 0.23878 0.69425 0.0
C1798 C 0.46204 0.20728 0.70401 0.0
C1799 C 0.49673 0.2622 0.71638 0.0
C1800 C 0.51376 0.29624 0.70904 0.0
C1801 C 0.49789 0.31026 0.69528 0.0
C1802 C 0.51405 0.34242 0.68853 0.0
C1803 C 0.54603 0.36084 0.69564 0.0
C1804 C 0.56189 0.34716 0.70961 0.0
C1805 C 0.54584 0.31501 0.71639 0.0
H1806 H 0.5585 0.38573 0.69041 0.0
H1807 H 0.3844 0.07757 0.76493 0.0
H1808 H 0.2782 0.49189 0.91089 0.0
H1809 H 0.27695 0.50965 0.86004 0.0
H1810 H 0.26617 0.42253 0.82532 0.0
H1811 H 0.26923 0.4056 0.87565 0.0
H1812 H 0.30184 0.46904 0.78995 0.0
H1813 H 0.20262 0.43155 0.84304 0.0
H1814 H 0.16814 0.43267 0.88259 0.0
H1815 H 0.19201 0.52643 0.85656 0.0
H1816 H 0.22698 0.52597 0.81709 0.0
H1817 H 0.19538 0.40267 0.67343 0.0
H1818 H 0.22372 0.41808 0.72064 0.0
H1819 H 0.22621 0.50739 0.71667 0.0
H1820 H 0.19561 0.4911 0.67038 0.0
H1821 H 0.20812 0.48019 0.76954 0.0
H1822 H 0.29521 0.5016 0.70327 0.0
H1823 H 0.32295 0.48916 0.66423 0.0
H1824 H 0.31221 0.41034 0.71574 0.0
H1825 H 0.28416 0.42199 0.75481 0.0
C1826 C 0.27695 0.47721 0.89231 0.0
C1827 C 0.27415 0.44755 0.89696 0.0
C1828 C 0.27584 0.4872 0.86339 0.0
C1829 C 0.27128 0.46729 0.83915 0.0
C1830 C 0.26995 0.43833 0.84379 0.0
C1831 C 0.27141 0.42856 0.8725 0.0
C1832 C 0.26451 0.47441 0.80913 0.0
C1833 C 0.28157 0.47185 0.78533 0.0
C1834 C 0.23833 0.47851 0.80345 0.0
C1835 C 0.21785 0.47898 0.82755 0.0
C1836 C 0.20079 0.45254 0.846 0.0
C1837 C 0.18111 0.45301 0.86834 0.0
C1838 C 0.17802 0.47966 0.87219 0.0
C1839 C 0.19455 0.50586 0.85365 0.0
C1840 C 0.21432 0.50553 0.83133 0.0
C1841 C 0.20177 0.42554 0.68265 0.0
C1842 C 0.19395 0.44603 0.66787 0.0
C1843 C 0.21852 0.43455 0.7093 0.0
C1844 C 0.22817 0.46439 0.72132 0.0
C1845 C 0.21968 0.48461 0.70712 0.0
C1846 C 0.20243 0.47538 0.68061 0.0
C1847 C 0.24435 0.47289 0.75031 0.0
C1848 C 0.22921 0.47874 0.77391 0.0
C1849 C 0.27129 0.47006 0.75591 0.0
C1850 C 0.28772 0.46282 0.73203 0.0
C1851 C 0.29863 0.48154 0.70618 0.0
C1852 C 0.31443 0.47462 0.68406 0.0
C1853 C 0.31943 0.44907 0.68763 0.0
C1854 C 0.30844 0.43021 0.71311 0.0
C1855 C 0.29267 0.437 0.73525 0.0
H1856 H 0.3319 0.44386 0.67077 0.0
H1857 H 0.16272 0.47997 0.88946 0.0
H1858 H 0.75666 0.26047 0.85952 0.0
H1859 H 0.73954 0.25146 0.80726 0.0
H1860 H 0.82808 0.25924 0.78182 0.0
H1861 H 0.84588 0.26974 0.83321 0.0
H1862 H 0.81594 0.28821 0.74279 0.0
H1863 H 0.75274 0.186 0.78685 0.0
H1864 H 0.71397 0.14638 0.82136 0.0
H1865 H 0.64286 0.1662 0.7891 0.0
H1866 H 0.68134 0.20623 0.75464 0.0
H1867 H 0.78511 0.22023 0.59999 0.0
H1868 H 0.79452 0.23106 0.65293 0.0
H1869 H 0.70425 0.22572 0.66198 0.0
H1870 H 0.69393 0.21332 0.60827 0.0
H1871 H 0.71385 0.19873 0.70917 0.0
H1872 H 0.77968 0.29951 0.66185 0.0
H1873 H 0.81975 0.33567 0.62606 0.0
H1874 H 0.88797 0.31487 0.66435 0.0
H1875 H 0.84824 0.27838 0.70018 0.0
C1876 C 0.77286 0.2609 0.84297 0.0
C1877 C 0.80308 0.26638 0.85132 0.0
C1878 C 0.76271 0.25515 0.81279 0.0
C1879 C 0.78225 0.25428 0.79005 0.0
C1880 C 0.8123 0.2598 0.79844 0.0
C1881 C 0.82247 0.26573 0.82828 0.0
C1882 C 0.77236 0.2484 0.75746 0.0
C1883 C 0.79365 0.26841 0.73564 0.0
C1884 C 0.74301 0.22307 0.74746 0.0
C1885 C 0.72003 0.19943 0.7685 0.0
C1886 C 0.72893 0.18215 0.78735 0.0
C1887 C 0.70698 0.15956 0.80684 0.0
C1888 C 0.67601 0.15387 0.80751 0.0
C1889 C 0.66689 0.1707 0.78863 0.0
C1890 C 0.68875 0.19334 0.76911 0.0
C1891 C 0.76718 0.22164 0.61289 0.0
C1892 C 0.73887 0.21636 0.59925 0.0
C1893 C 0.77275 0.22803 0.64352 0.0
C1894 C 0.75064 0.23027 0.66185 0.0
C1895 C 0.72202 0.22455 0.64854 0.0
C1896 C 0.71617 0.21763 0.61767 0.0
C1897 C 0.75769 0.23825 0.69469 0.0
C1898 C 0.73594 0.21869 0.71647 0.0
C1899 C 0.78688 0.26372 0.70476 0.0
C1900 C 0.81094 0.28612 0.68359 0.0
C1901 C 0.80321 0.3026 0.66257 0.0
C1902 C 0.82586 0.32314 0.64228 0.0
C1903 C 0.85637 0.32753 0.6429 0.0
C1904 C 0.86434 0.31146 0.6639 0.0
C1905 C 0.84178 0.29091 0.68424 0.0
H1906 H 0.87385 0.3434 0.62714 0.0
H1907 H 0.65905 0.13634 0.82259 0.0
loop_
_geom_bond_atom_site_label_1
_geom_bond_atom_site_label_2
_geom_bond_distance
_geom_bond_site_symmetry_2
_ccdc_geom_bond_type
Co0 O3 1.970 . S
Co0 N17 1.989 . S
Co0 O25 1.967 . S
Co0 O32 1.920 . S
Co1 O4 1.966 . S
Co1 N10 2.022 . S
Co1 N18 1.993 . S
Co1 O26 1.941 . S
C2 O3 1.258 . S
C2 O4 1.263 1_554 S
O3 Co0 1.970 . S
O3 C2 1.258 . S
O4 Co1 1.966 . S
O4 C2 1.263 1_556 S
C5 O6 1.235 . S
C5 O32 1.289 . S
O6 C5 1.235 . S
C7 C9 1.400 . S
C7 N10 1.351 . S
C7 C12 1.501 . S
C8 C9 1.387 . S
C8 N11 1.341 . S
C9 C7 1.400 . S
C9 C8 1.387 . S
N10 Co1 2.022 . S
N10 C7 1.351 . S
N10 N11 1.365 . S
N11 C8 1.341 . S
N11 N10 1.365 . S
N11 H31 0.862 . S
C12 C7 1.501 . S
C12 H13 0.961 . S
C12 H14 0.961 . S
C12 H15 0.960 . S
H13 C12 0.961 . S
H14 C12 0.961 . S
H15 C12 0.960 . S
C16 N17 1.342 . S
C16 C20 1.401 . S
C16 C21 1.499 . S
N17 Co0 1.989 . S
N17 C16 1.342 . S
N17 N18 1.388 1_554 S
N18 Co1 1.993 . S
N18 N17 1.388 1_556 S
N18 C19 1.346 . S
C19 N18 1.346 . S
C19 C20 1.396 1_556 S
C19 C29 1.510 . S
C20 C16 1.401 . S
C20 C19 1.396 1_554 S
C21 C16 1.499 . S
C21 H22 0.959 . S
C21 H23 0.960 . S
C21 H24 0.961 . S
H22 C21 0.959 . S
H23 C21 0.960 . S
H24 C21 0.961 . S
O25 Co0 1.967 . S
O25 C33 1.258 . S
O26 Co1 1.941 . S
O26 C33 1.266 1_556 S
H27 C29 0.959 . S
H28 C29 0.961 . S
C29 C19 1.510 . S
C29 H27 0.959 . S
C29 H28 0.961 . S
C29 H30 0.960 . S
H30 C29 0.960 . S
H31 N11 0.862 . S
O32 Co0 1.920 . S
O32 C5 1.289 . S
C33 O25 1.258 . S
C33 O26 1.266 1_554 S
Co34 O37 1.970 . S
Co34 N51 1.989 . S
Co34 O59 1.967 . S
Co34 O66 1.920 . S
Co35 O38 1.970 . S
Co35 N44 2.022 . S
Co35 N52 1.993 1_556 S
Co35 O60 1.941 . S
C36 O37 1.258 . S
C36 O38 1.250 1_554 S
O37 Co34 1.970 . S
O37 C36 1.258 . S
O38 Co35 1.970 . S
O38 C36 1.250 1_556 S
C39 O40 1.235 . S
C39 O66 1.289 . S
O40 C39 1.235 . S
C41 C43 1.400 . S
C41 N44 1.351 . S
C41 C46 1.501 . S
C42 C43 1.387 . S
C42 N45 1.341 . S
C43 C41 1.400 . S
C43 C42 1.387 . S
N44 Co35 2.022 . S
N44 C41 1.351 . S
N44 N45 1.365 . S
N45 C42 1.341 . S
N45 N44 1.365 . S
N45 H65 0.862 . S
C46 C41 1.501 . S
C46 H47 0.961 . S
C46 H48 0.961 . S
C46 H49 0.960 . S
H47 C46 0.961 . S
H48 C46 0.961 . S
H49 C46 0.960 . S
C50 N51 1.342 . S
C50 C54 1.401 . S
C50 C55 1.499 . S
N51 Co34 1.989 . S
N51 C50 1.342 . S
N51 N52 1.388 . S
N52 Co35 1.993 1_554 S
N52 N51 1.388 . S
N52 C53 1.337 1_554 S
C53 N52 1.337 1_556 S
C53 C54 1.373 1_556 S
C53 C63 1.539 . S
C54 C50 1.401 . S
C54 C53 1.373 1_554 S
C55 C50 1.499 . S
C55 H56 0.959 . S
C55 H57 0.960 . S
C55 H58 0.961 . S
H56 C55 0.959 . S
H57 C55 0.960 . S
H58 C55 0.961 . S
O59 Co34 1.967 . S
O59 C67 1.258 . S
O60 Co35 1.941 . S
O60 C67 1.266 1_556 S
H61 C63 0.959 . S
H62 C63 0.961 . S
C63 C53 1.539 . S
C63 H61 0.959 . S
C63 H62 0.961 . S
C63 H64 0.960 . S
H64 C63 0.960 . S
H65 N45 0.862 . S
O66 Co34 1.920 . S
O66 C39 1.289 . S
C67 O59 1.258 . S
C67 O60 1.266 1_554 S
Co68 O71 1.970 . S
Co68 N85 1.989 . S
Co68 O93 1.967 . S
Co68 O100 1.920 . S
Co69 O72 1.966 . S
Co69 N78 2.022 . S
Co69 N86 1.993 . S
Co69 O94 1.941 . S
C70 O71 1.258 . S
C70 O72 1.263 1_554 S
O71 Co68 1.970 . S
O71 C70 1.258 . S
O72 Co69 1.966 . S
O72 C70 1.263 1_556 S
C73 O74 1.235 . S
C73 O100 1.289 . S
O74 C73 1.235 . S
C75 C77 1.400 . S
C75 N78 1.351 . S
C75 C80 1.501 . S
C76 C77 1.387 . S
C76 N79 1.341 . S
C77 C75 1.400 . S
C77 C76 1.387 . S
N78 Co69 2.022 . S
N78 C75 1.351 . S
N78 N79 1.365 . S
N79 C76 1.341 . S
N79 N78 1.365 . S
N79 H99 0.862 . S
C80 C75 1.501 . S
C80 H81 0.961 . S
C80 H82 0.961 . S
C80 H83 0.960 . S
H81 C80 0.961 . S
H82 C80 0.961 . S
H83 C80 0.960 . S
C84 N85 1.342 . S
C84 C88 1.401 . S
C84 C89 1.499 . S
N85 Co68 1.989 . S
N85 C84 1.342 . S
N85 N86 1.388 1_554 S
N86 Co69 1.993 . S
N86 N85 1.388 1_556 S
N86 C87 1.346 . S
C87 N86 1.346 . S
C87 C88 1.396 1_556 S
C87 C97 1.510 . S
C88 C84 1.401 . S
C88 C87 1.396 1_554 S
C89 C84 1.499 . S
C89 H90 0.959 . S
C89 H91 0.960 . S
C89 H92 0.961 . S
H90 C89 0.959 . S
H91 C89 0.960 . S
H92 C89 0.961 . S
O93 Co68 1.967 . S
O93 C101 1.258 . S
O94 Co69 1.941 . S
O94 C101 1.266 1_556 S
H95 C97 0.959 . S
H96 C97 0.961 . S
C97 C87 1.510 . S
C97 H95 0.959 . S
C97 H96 0.961 . S
C97 H98 0.960 . S
H98 C97 0.960 . S
H99 N79 0.862 . S
O100 Co68 1.920 . S
O100 C73 1.289 . S
C101 O93 1.258 . S
C101 O94 1.266 1_554 S
Co102 O105 1.970 . S
Co102 N119 1.989 . S
Co102 O127 1.967 . S
Co102 O134 1.920 . S
Co103 O106 1.970 . S
Co103 N112 2.022 . S
Co103 N120 1.993 1_556 S
Co103 O128 1.941 . S
C104 O105 1.258 . S
C104 O106 1.250 1_554 S
O105 Co102 1.970 . S
O105 C104 1.258 . S
O106 Co103 1.970 . S
O106 C104 1.250 1_556 S
C107 O108 1.235 . S
C107 O134 1.289 . S
O108 C107 1.235 . S
C109 C111 1.400 . S
C109 N112 1.351 . S
C109 C114 1.501 . S
C110 C111 1.387 . S
C110 N113 1.341 . S
C111 C109 1.400 . S
C111 C110 1.387 . S
N112 Co103 2.022 . S
N112 C109 1.351 . S
N112 N113 1.365 . S
N113 C110 1.341 . S
N113 N112 1.365 . S
N113 H133 0.862 . S
C114 C109 1.501 . S
C114 H115 0.961 . S
C114 H116 0.961 . S
C114 H117 0.960 . S
H115 C114 0.961 . S
H116 C114 0.961 . S
H117 C114 0.960 . S
C118 N119 1.342 . S
C118 C122 1.401 . S
C118 C123 1.499 . S
N119 Co102 1.989 . S
N119 C118 1.342 . S
N119 N120 1.388 . S
N120 Co103 1.993 1_554 S
N120 N119 1.388 . S
N120 C121 1.337 1_554 S
C121 N120 1.337 1_556 S
C121 C122 1.373 1_556 S
C121 C131 1.539 . S
C122 C118 1.401 . S
C122 C121 1.373 1_554 S
C123 C118 1.499 . S
C123 H124 0.959 . S
C123 H125 0.960 . S
C123 H126 0.961 . S
H124 C123 0.959 . S
H125 C123 0.960 . S
H126 C123 0.961 . S
O127 Co102 1.967 . S
O127 C135 1.258 . S
O128 Co103 1.941 . S
O128 C135 1.266 1_556 S
H129 C131 0.959 . S
H130 C131 0.961 . S
C131 C121 1.539 . S
C131 H129 0.959 . S
C131 H130 0.961 . S
C131 H132 0.960 . S
H132 C131 0.960 . S
H133 N113 0.862 . S
O134 Co102 1.920 . S
O134 C107 1.289 . S
C135 O127 1.258 . S
C135 O128 1.266 1_554 S
Co136 O139 1.970 . S
Co136 N153 1.989 . S
Co136 O161 1.967 . S
Co136 O168 1.920 . S
Co137 O140 1.966 . S
Co137 N146 2.022 . S
Co137 N154 1.993 . S
Co137 O162 1.941 . S
C138 O139 1.258 . S
C138 O140 1.263 1_554 S
O139 Co136 1.970 . S
O139 C138 1.258 . S
O140 Co137 1.966 . S
O140 C138 1.263 1_556 S
C141 O142 1.235 . S
C141 O168 1.289 . S
O142 C141 1.235 . S
C143 C145 1.400 . S
C143 N146 1.351 . S
C143 C148 1.501 . S
C144 C145 1.387 . S
C144 N147 1.341 . S
C145 C143 1.400 . S
C145 C144 1.387 . S
N146 Co137 2.022 . S
N146 C143 1.351 . S
N146 N147 1.365 . S
N147 C144 1.341 . S
N147 N146 1.365 . S
N147 H167 0.862 . S
C148 C143 1.501 . S
C148 H149 0.961 . S
C148 H150 0.961 . S
C148 H151 0.960 . S
H149 C148 0.961 . S
H150 C148 0.961 . S
H151 C148 0.960 . S
C152 N153 1.342 . S
C152 C156 1.401 . S
C152 C157 1.499 . S
N153 Co136 1.989 . S
N153 C152 1.342 . S
N153 N154 1.388 1_554 S
N154 Co137 1.993 . S
N154 N153 1.388 1_556 S
N154 C155 1.346 . S
C155 N154 1.346 . S
C155 C156 1.396 1_556 S
C155 C165 1.510 . S
C156 C152 1.401 . S
C156 C155 1.396 1_554 S
C157 C152 1.499 . S
C157 H158 0.959 . S
C157 H159 0.960 . S
C157 H160 0.961 . S
H158 C157 0.959 . S
H159 C157 0.960 . S
H160 C157 0.961 . S
O161 Co136 1.967 . S
O161 C169 1.258 . S
O162 Co137 1.941 . S
O162 C169 1.266 1_556 S
H163 C165 0.959 . S
H164 C165 0.961 . S
C165 C155 1.510 . S
C165 H163 0.959 . S
C165 H164 0.961 . S
C165 H166 0.960 . S
H166 C165 0.960 . S
H167 N147 0.862 . S
O168 Co136 1.920 . S
O168 C141 1.289 . S
C169 O161 1.258 . S
C169 O162 1.266 1_554 S
Co170 O173 1.970 . S
Co170 N187 1.989 . S
Co170 O195 1.967 . S
Co170 O202 1.920 . S
Co171 O174 1.970 . S
Co171 N180 2.022 . S
Co171 N188 1.993 1_556 S
Co171 O196 1.941 . S
C172 O173 1.258 . S
C172 O174 1.250 1_554 S
O173 Co170 1.970 . S
O173 C172 1.258 . S
O174 Co171 1.970 . S
O174 C172 1.250 1_556 S
C175 O176 1.235 . S
C175 O202 1.289 . S
O176 C175 1.235 . S
C177 C179 1.400 . S
C177 N180 1.351 . S
C177 C182 1.501 . S
C178 C179 1.387 . S
C178 N181 1.341 . S
C179 C177 1.400 . S
C179 C178 1.387 . S
N180 Co171 2.022 . S
N180 C177 1.351 . S
N180 N181 1.365 . S
N181 C178 1.341 . S
N181 N180 1.365 . S
N181 H201 0.862 . S
C182 C177 1.501 . S
C182 H183 0.961 . S
C182 H184 0.961 . S
C182 H185 0.960 . S
H183 C182 0.961 . S
H184 C182 0.961 . S
H185 C182 0.960 . S
C186 N187 1.342 . S
C186 C190 1.401 . S
C186 C191 1.499 . S
N187 Co170 1.989 . S
N187 C186 1.342 . S
N187 N188 1.388 . S
N188 Co171 1.993 1_554 S
N188 N187 1.388 . S
N188 C189 1.337 1_554 S
C189 N188 1.337 1_556 S
C189 C190 1.373 1_556 S
C189 C199 1.539 . S
C190 C186 1.401 . S
C190 C189 1.373 1_554 S
C191 C186 1.499 . S
C191 H192 0.959 . S
C191 H193 0.960 . S
C191 H194 0.961 . S
H192 C191 0.959 . S
H193 C191 0.960 . S
H194 C191 0.961 . S
O195 Co170 1.967 . S
O195 C203 1.258 . S
O196 Co171 1.941 . S
O196 C203 1.266 1_556 S
H197 C199 0.959 . S
H198 C199 0.961 . S
C199 C189 1.539 . S
C199 H197 0.959 . S
C199 H198 0.961 . S
C199 H200 0.960 . S
H200 C199 0.960 . S
H201 N181 0.862 . S
O202 Co170 1.920 . S
O202 C175 1.289 . S
C203 O195 1.258 . S
C203 O196 1.266 1_554 S
Co204 O207 1.970 . S
Co204 N221 1.989 . S
Co204 O229 1.967 . S
Co204 O236 1.920 . S
Co205 O208 1.966 . S
Co205 N214 2.022 . S
Co205 N222 1.993 . S
Co205 O230 1.941 . S
C206 O207 1.258 . S
C206 O208 1.263 . S
O207 Co204 1.970 . S
O207 C206 1.258 . S
O208 Co205 1.966 . S
O208 C206 1.263 . S
C209 O210 1.235 . S
C209 O236 1.289 . S
O210 C209 1.235 . S
C211 C213 1.400 . S
C211 N214 1.351 . S
C211 C216 1.501 . S
C212 C213 1.387 . S
C212 N215 1.341 . S
C213 C211 1.400 . S
C213 C212 1.387 . S
N214 Co205 2.022 . S
N214 C211 1.351 . S
N214 N215 1.365 . S
N215 C212 1.341 . S
N215 N214 1.365 . S
N215 H235 0.862 . S
C216 C211 1.501 . S
C216 H217 0.961 . S
C216 H218 0.961 . S
C216 H219 0.960 . S
H217 C216 0.961 . S
H218 C216 0.961 . S
H219 C216 0.960 . S
C220 N221 1.342 . S
C220 C224 1.401 . S
C220 C225 1.499 . S
N221 Co204 1.989 . S
N221 C220 1.342 . S
N221 N222 1.388 . S
N222 Co205 1.993 . S
N222 N221 1.388 . S
N222 C223 1.346 . S
C223 N222 1.346 . S
C223 C224 1.396 . S
C223 C233 1.510 . S
C224 C220 1.401 . S
C224 C223 1.396 . S
C225 C220 1.499 . S
C225 H226 0.959 . S
C225 H227 0.960 . S
C225 H228 0.961 . S
H226 C225 0.959 . S
H227 C225 0.960 . S
H228 C225 0.961 . S
O229 Co204 1.967 . S
O229 C237 1.258 . S
O230 Co205 1.941 . S
O230 C237 1.266 . S
H231 C233 0.959 . S
H232 C233 0.961 . S
C233 C223 1.510 . S
C233 H231 0.959 . S
C233 H232 0.961 . S
C233 H234 0.960 . S
H234 C233 0.960 . S
H235 N215 0.862 . S
O236 Co204 1.920 . S
O236 C209 1.289 . S
C237 O229 1.258 . S
C237 O230 1.266 . S
Co238 O241 1.970 . S
Co238 N255 1.989 . S
Co238 O263 1.967 . S
Co238 O270 1.920 . S
Co239 O242 1.966 . S
Co239 N248 2.022 . S
Co239 N256 1.993 . S
Co239 O264 1.941 . S
C240 O241 1.258 . S
C240 O242 1.263 . S
O241 Co238 1.970 . S
O241 C240 1.258 . S
O242 Co239 1.966 . S
O242 C240 1.263 . S
C243 O244 1.235 . S
C243 O270 1.289 . S
O244 C243 1.235 . S
C245 C247 1.400 . S
C245 N248 1.351 . S
C245 C250 1.501 . S
C246 C247 1.387 . S
C246 N249 1.341 . S
C247 C245 1.400 . S
C247 C246 1.387 . S
N248 Co239 2.022 . S
N248 C245 1.351 . S
N248 N249 1.365 . S
N249 C246 1.341 . S
N249 N248 1.365 . S
N249 H269 0.862 . S
C250 C245 1.501 . S
C250 H251 0.961 . S
C250 H252 0.961 . S
C250 H253 0.960 . S
H251 C250 0.961 . S
H252 C250 0.961 . S
H253 C250 0.960 . S
C254 N255 1.342 . S
C254 C258 1.401 . S
C254 C259 1.499 . S
N255 Co238 1.989 . S
N255 C254 1.342 . S
N255 N256 1.388 . S
N256 Co239 1.993 . S
N256 N255 1.388 . S
N256 C257 1.346 . S
C257 N256 1.346 . S
C257 C258 1.396 . S
C257 C267 1.510 . S
C258 C254 1.401 . S
C258 C257 1.396 . S
C259 C254 1.499 . S
C259 H260 0.959 . S
C259 H261 0.960 . S
C259 H262 0.961 . S
H260 C259 0.959 . S
H261 C259 0.960 . S
H262 C259 0.961 . S
O263 Co238 1.967 . S
O263 C271 1.258 . S
O264 Co239 1.941 . S
O264 C271 1.266 . S
H265 C267 0.959 . S
H266 C267 0.961 . S
C267 C257 1.510 . S
C267 H265 0.959 . S
C267 H266 0.961 . S
C267 H268 0.960 . S
H268 C267 0.960 . S
H269 N249 0.862 . S
O270 Co238 1.920 . S
O270 C243 1.289 . S
C271 O263 1.258 . S
C271 O264 1.266 . S
Co272 O275 1.970 . S
Co272 N289 1.989 . S
Co272 O297 1.967 . S
Co272 O304 1.920 . S
Co273 O276 1.966 . S
Co273 N282 2.022 . S
Co273 N290 1.993 . S
Co273 O298 1.941 . S
C274 O275 1.258 . S
C274 O276 1.263 . S
O275 Co272 1.970 . S
O275 C274 1.258 . S
O276 Co273 1.966 . S
O276 C274 1.263 . S
C277 O278 1.235 . S
C277 O304 1.289 . S
O278 C277 1.235 . S
C279 C281 1.400 . S
C279 N282 1.351 . S
C279 C284 1.501 . S
C280 C281 1.387 . S
C280 N283 1.341 . S
C281 C279 1.400 . S
C281 C280 1.387 . S
N282 Co273 2.022 . S
N282 C279 1.351 . S
N282 N283 1.365 . S
N283 C280 1.341 . S
N283 N282 1.365 . S
N283 H303 0.862 . S
C284 C279 1.501 . S
C284 H285 0.961 . S
C284 H286 0.961 . S
C284 H287 0.960 . S
H285 C284 0.961 . S
H286 C284 0.961 . S
H287 C284 0.960 . S
C288 N289 1.342 . S
C288 C292 1.401 . S
C288 C293 1.499 . S
N289 Co272 1.989 . S
N289 C288 1.342 . S
N289 N290 1.388 . S
N290 Co273 1.993 . S
N290 N289 1.388 . S
N290 C291 1.346 . S
C291 N290 1.346 . S
C291 C292 1.396 . S
C291 C301 1.510 . S
C292 C288 1.401 . S
C292 C291 1.396 . S
C293 C288 1.499 . S
C293 H294 0.959 . S
C293 H295 0.960 . S
C293 H296 0.961 . S
H294 C293 0.959 . S
H295 C293 0.960 . S
H296 C293 0.961 . S
O297 Co272 1.967 . S
O297 C305 1.258 . S
O298 Co273 1.941 . S
O298 C305 1.266 . S
H299 C301 0.959 . S
H300 C301 0.961 . S
C301 C291 1.510 . S
C301 H299 0.959 . S
C301 H300 0.961 . S
C301 H302 0.960 . S
H302 C301 0.960 . S
H303 N283 0.862 . S
O304 Co272 1.920 . S
O304 C277 1.289 . S
C305 O297 1.258 . S
C305 O298 1.266 . S
Co306 O309 1.970 . S
Co306 N323 1.989 . S
Co306 O331 1.967 . S
Co306 O338 1.920 . S
Co307 O310 1.966 . S
Co307 N316 2.022 . S
Co307 N324 1.993 . S
Co307 O332 1.941 . S
C308 O309 1.258 . S
C308 O310 1.263 . S
O309 Co306 1.970 . S
O309 C308 1.258 . S
O310 Co307 1.966 . S
O310 C308 1.263 . S
C311 O312 1.235 . S
C311 O338 1.289 . S
O312 C311 1.235 . S
C313 C315 1.400 . S
C313 N316 1.351 . S
C313 C318 1.501 . S
C314 C315 1.387 . S
C314 N317 1.341 . S
C315 C313 1.400 . S
C315 C314 1.387 . S
N316 Co307 2.022 . S
N316 C313 1.351 . S
N316 N317 1.365 . S
N317 C314 1.341 . S
N317 N316 1.365 . S
N317 H337 0.862 . S
C318 C313 1.501 . S
C318 H319 0.961 . S
C318 H320 0.961 . S
C318 H321 0.960 . S
H319 C318 0.961 . S
H320 C318 0.961 . S
H321 C318 0.960 . S
C322 N323 1.342 . S
C322 C326 1.401 . S
C322 C327 1.499 . S
N323 Co306 1.989 . S
N323 C322 1.342 . S
N323 N324 1.388 . S
N324 Co307 1.993 . S
N324 N323 1.388 . S
N324 C325 1.346 . S
C325 N324 1.346 . S
C325 C326 1.396 . S
C325 C335 1.510 . S
C326 C322 1.401 . S
C326 C325 1.396 . S
C327 C322 1.499 . S
C327 H328 0.959 . S
C327 H329 0.960 . S
C327 H330 0.961 . S
H328 C327 0.959 . S
H329 C327 0.960 . S
H330 C327 0.961 . S
O331 Co306 1.967 . S
O331 C339 1.258 . S
O332 Co307 1.941 . S
O332 C339 1.266 . S
H333 C335 0.959 . S
H334 C335 0.961 . S
C335 C325 1.510 . S
C335 H333 0.959 . S
C335 H334 0.961 . S
C335 H336 0.960 . S
H336 C335 0.960 . S
H337 N317 0.862 . S
O338 Co306 1.920 . S
O338 C311 1.289 . S
C339 O331 1.258 . S
C339 O332 1.266 . S
Co340 O343 1.970 . S
Co340 N357 1.989 . S
Co340 O365 1.967 . S
Co340 O372 1.920 . S
Co341 O344 1.966 . S
Co341 N350 2.022 . S
Co341 N358 1.993 . S
Co341 O366 1.941 . S
C342 O343 1.258 . S
C342 O344 1.263 . S
O343 Co340 1.970 . S
O343 C342 1.258 . S
O344 Co341 1.966 . S
O344 C342 1.263 . S
C345 O346 1.235 . S
C345 O372 1.289 . S
O346 C345 1.235 . S
C347 C349 1.400 . S
C347 N350 1.351 . S
C347 C352 1.501 . S
C348 C349 1.387 . S
C348 N351 1.341 . S
C349 C347 1.400 . S
C349 C348 1.387 . S
N350 Co341 2.022 . S
N350 C347 1.351 . S
N350 N351 1.365 . S
N351 C348 1.341 . S
N351 N350 1.365 . S
N351 H371 0.862 . S
C352 C347 1.501 . S
C352 H353 0.961 . S
C352 H354 0.961 . S
C352 H355 0.960 . S
H353 C352 0.961 . S
H354 C352 0.961 . S
H355 C352 0.960 . S
C356 N357 1.342 . S
C356 C360 1.401 . S
C356 C361 1.499 . S
N357 Co340 1.989 . S
N357 C356 1.342 . S
N357 N358 1.388 . S
N358 Co341 1.993 . S
N358 N357 1.388 . S
N358 C359 1.346 . S
C359 N358 1.346 . S
C359 C360 1.396 . S
C359 C369 1.510 . S
C360 C356 1.401 . S
C360 C359 1.396 . S
C361 C356 1.499 . S
C361 H362 0.959 . S
C361 H363 0.960 . S
C361 H364 0.961 . S
H362 C361 0.959 . S
H363 C361 0.960 . S
H364 C361 0.961 . S
O365 Co340 1.967 . S
O365 C373 1.258 . S
O366 Co341 1.941 . S
O366 C373 1.266 . S
H367 C369 0.959 . S
H368 C369 0.961 . S
C369 C359 1.510 . S
C369 H367 0.959 . S
C369 H368 0.961 . S
C369 H370 0.960 . S
H370 C369 0.960 . S
H371 N351 0.862 . S
O372 Co340 1.920 . S
O372 C345 1.289 . S
C373 O365 1.258 . S
C373 O366 1.266 . S
Co374 O377 1.970 . S
Co374 N391 1.989 . S
Co374 O399 1.967 . S
Co374 O406 1.920 . S
Co375 O378 1.966 . S
Co375 N384 2.022 . S
Co375 N392 1.993 . S
Co375 O400 1.941 . S
C376 O377 1.258 . S
C376 O378 1.263 . S
O377 Co374 1.970 . S
O377 C376 1.258 . S
O378 Co375 1.966 . S
O378 C376 1.263 . S
C379 O380 1.235 . S
C379 O406 1.289 . S
O380 C379 1.235 . S
C381 C383 1.400 . S
C381 N384 1.351 . S
C381 C386 1.501 . S
C382 C383 1.387 . S
C382 N385 1.341 . S
C383 C381 1.400 . S
C383 C382 1.387 . S
N384 Co375 2.022 . S
N384 C381 1.351 . S
N384 N385 1.365 . S
N385 C382 1.341 . S
N385 N384 1.365 . S
N385 H405 0.862 . S
C386 C381 1.501 . S
C386 H387 0.961 . S
C386 H388 0.961 . S
C386 H389 0.960 . S
H387 C386 0.961 . S
H388 C386 0.961 . S
H389 C386 0.960 . S
C390 N391 1.342 . S
C390 C394 1.401 . S
C390 C395 1.499 . S
N391 Co374 1.989 . S
N391 C390 1.342 . S
N391 N392 1.388 . S
N392 Co375 1.993 . S
N392 N391 1.388 . S
N392 C393 1.346 . S
C393 N392 1.346 . S
C393 C394 1.396 . S
C393 C403 1.510 . S
C394 C390 1.401 . S
C394 C393 1.396 . S
C395 C390 1.499 . S
C395 H396 0.959 . S
C395 H397 0.960 . S
C395 H398 0.961 . S
H396 C395 0.959 . S
H397 C395 0.960 . S
H398 C395 0.961 . S
O399 Co374 1.967 . S
O399 C407 1.258 . S
O400 Co375 1.941 . S
O400 C407 1.266 . S
H401 C403 0.959 . S
H402 C403 0.961 . S
C403 C393 1.510 . S
C403 H401 0.959 . S
C403 H402 0.961 . S
C403 H404 0.960 . S
H404 C403 0.960 . S
H405 N385 0.862 . S
O406 Co374 1.920 . S
O406 C379 1.289 . S
C407 O399 1.258 . S
C407 O400 1.266 . S
H408 C426 0.951 1_556 S
H409 C428 0.951 1_556 S
H410 C430 0.950 . S
H411 C431 0.950 . S
H412 C433 0.950 1_556 S
H413 C436 0.950 . S
H414 C437 0.950 . S
H415 C439 0.950 . S
H416 C440 0.950 . S
H417 C441 0.951 . S
H418 C443 0.951 . S
H419 C445 0.952 1_556 S
H420 C446 0.950 . S
H421 C448 0.950 . S
H422 C451 0.950 . S
H423 C452 0.950 . S
H424 C454 0.950 . S
H425 C455 0.950 1_554 S
C426 H408 0.951 1_554 S
C426 C427 1.366 . S
C426 C428 1.388 . S
C427 C426 1.366 . S
C427 C431 1.385 . S
C428 H409 0.951 1_554 S
C428 C426 1.388 . S
C428 C429 1.366 . S
C429 C428 1.366 . S
C429 C430 1.414 . S
C429 C432 1.499 . S
C430 H410 0.950 . S
C430 C429 1.414 . S
C430 C431 1.374 . S
C431 H411 0.950 . S
C431 C427 1.385 . S
C431 C430 1.374 . S
C432 C429 1.499 . S
C432 C433 1.373 . S
C432 C434 1.389 . S
C433 H412 0.950 1_554 S
C433 C432 1.373 . S
C433 C449 1.377 . S
C434 C432 1.389 . S
C434 C435 1.524 . S
C434 C448 1.377 1_545 S
C435 C434 1.524 . S
C435 C436 1.397 . S
C435 C440 1.363 1_545 S
C436 H413 0.950 . S
C436 C435 1.397 . S
C436 C437 1.334 . S
C437 H414 0.950 . S
C437 C436 1.334 . S
C437 C438 1.287 1_545 S
C438 C437 1.287 1_565 S
C438 C439 1.524 . S
C438 H457 0.913 . S
C439 H415 0.950 . S
C439 C438 1.524 . S
C439 C440 1.415 . S
C440 H416 0.950 . S
C440 C435 1.363 1_565 S
C440 C439 1.415 . S
C441 H417 0.951 . S
C441 C442 1.366 . S
C441 C443 1.388 . S
C442 C441 1.366 . S
C442 C446 1.385 . S
C443 H418 0.951 . S
C443 C441 1.388 . S
C443 C444 1.366 . S
C444 C443 1.366 . S
C444 C445 1.414 . S
C444 C447 1.499 . S
C445 H419 0.952 1_554 S
C445 C444 1.414 . S
C445 C446 1.374 . S
C446 H420 0.950 . S
C446 C442 1.385 . S
C446 C445 1.374 . S
C447 C444 1.499 . S
C447 C448 1.373 . S
C447 C449 1.389 1_565 S
C448 H421 0.950 . S
C448 C434 1.377 1_565 S
C448 C447 1.373 . S
C449 C433 1.377 . S
C449 C447 1.389 1_545 S
C449 C450 1.524 1_554 S
C450 C449 1.524 1_556 S
C450 C451 1.397 1_545 S
C450 C455 1.363 . S
C451 H422 0.950 . S
C451 C450 1.397 1_565 S
C451 C452 1.334 . S
C452 H423 0.950 . S
C452 C451 1.334 . S
C452 C453 1.287 1_565 S
C453 C452 1.287 1_545 S
C453 C454 1.524 . S
C453 H456 0.999 . S
C454 H424 0.950 . S
C454 C453 1.524 . S
C454 C455 1.415 . S
C455 H425 0.950 1_556 S
C455 C450 1.363 . S
C455 C454 1.415 . S
H456 C453 0.999 . S
H457 C438 0.913 . S
H458 C476 0.951 . S
H459 C478 0.951 . S
H460 C480 0.950 . S
H461 C481 0.950 . S
H462 C483 0.950 . S
H463 C486 0.950 . S
H464 C487 0.950 . S
H465 C489 0.950 . S
H466 C490 0.950 . S
H467 C491 0.951 . S
H468 C493 0.951 . S
H469 C495 0.950 . S
H470 C496 0.950 . S
H471 C498 0.950 . S
H472 C501 0.950 . S
H473 C502 0.950 . S
H474 C504 0.950 . S
H475 C505 0.950 . S
C476 H458 0.951 . S
C476 C477 1.366 . S
C476 C478 1.388 . S
C477 C476 1.366 . S
C477 C481 1.385 . S
C478 H459 0.951 . S
C478 C476 1.388 . S
C478 C479 1.366 . S
C479 C478 1.366 . S
C479 C480 1.414 . S
C479 C482 1.499 . S
C480 H460 0.950 . S
C480 C479 1.414 . S
C480 C481 1.374 . S
C481 H461 0.950 . S
C481 C477 1.385 . S
C481 C480 1.374 . S
C482 C479 1.499 . S
C482 C483 1.373 . S
C482 C484 1.389 1_554 S
C483 H462 0.950 . S
C483 C482 1.373 . S
C483 C499 1.377 . S
C484 C482 1.389 1_556 S
C484 C485 1.524 . S
C484 C498 1.377 . S
C485 C484 1.524 . S
C485 C486 1.397 . S
C485 C490 1.363 . S
C486 H463 0.950 . S
C486 C485 1.397 . S
C486 C487 1.334 . S
C487 H464 0.950 . S
C487 C486 1.334 . S
C487 C488 1.287 . S
C488 C487 1.287 . S
C488 C489 1.524 . S
C488 H507 0.913 . S
C489 H465 0.950 . S
C489 C488 1.524 . S
C489 C490 1.415 . S
C490 H466 0.950 . S
C490 C485 1.363 . S
C490 C489 1.415 . S
C491 H467 0.951 . S
C491 C492 1.366 . S
C491 C493 1.388 . S
C492 C491 1.366 . S
C492 C496 1.385 . S
C493 H468 0.951 . S
C493 C491 1.388 . S
C493 C494 1.366 . S
C494 C493 1.366 . S
C494 C495 1.414 . S
C494 C497 1.499 . S
C495 H469 0.950 . S
C495 C494 1.414 . S
C495 C496 1.374 . S
C496 H470 0.950 . S
C496 C492 1.385 . S
C496 C495 1.374 . S
C497 C494 1.499 . S
C497 C498 1.373 1_554 S
C497 C499 1.389 . S
C498 H471 0.950 . S
C498 C484 1.377 . S
C498 C497 1.373 1_556 S
C499 C483 1.377 . S
C499 C497 1.389 . S
C499 C500 1.524 . S
C500 C499 1.524 . S
C500 C501 1.397 . S
C500 C505 1.363 . S
C501 H472 0.950 . S
C501 C500 1.397 . S
C501 C502 1.334 . S
C502 H473 0.950 . S
C502 C501 1.334 . S
C502 C503 1.287 . S
C503 C502 1.287 . S
C503 C504 1.524 . S
C503 H506 0.999 . S
C504 H474 0.950 . S
C504 C503 1.524 . S
C504 C505 1.415 . S
C505 H475 0.950 . S
C505 C500 1.363 . S
C505 C504 1.415 . S
H506 C503 0.999 . S
H507 C488 0.913 . S
H508 C526 0.951 . S
H509 C528 0.951 . S
H510 C530 0.950 . S
H511 C531 0.950 . S
H512 C533 0.950 . S
H513 C536 0.950 . S
H514 C537 0.950 . S
H515 C539 0.950 . S
H516 C540 0.950 . S
H517 C541 0.951 . S
H518 C543 0.951 . S
H519 C545 0.950 . S
H520 C546 0.950 . S
H521 C548 0.950 . S
H522 C551 0.950 . S
H523 C552 0.950 . S
H524 C554 0.950 . S
H525 C555 0.950 . S
C526 H508 0.951 . S
C526 C527 1.366 . S
C526 C528 1.388 . S
C527 C526 1.366 . S
C527 C531 1.385 . S
C528 H509 0.951 . S
C528 C526 1.388 . S
C528 C529 1.366 . S
C529 C528 1.366 . S
C529 C530 1.414 . S
C529 C532 1.499 . S
C530 H510 0.950 . S
C530 C529 1.414 . S
C530 C531 1.374 . S
C531 H511 0.950 . S
C531 C527 1.385 . S
C531 C530 1.374 . S
C532 C529 1.499 . S
C532 C533 1.373 1_554 S
C532 C534 1.389 1_455 S
C533 H512 0.950 . S
C533 C532 1.373 1_556 S
C533 C549 1.377 1_455 S
C534 C532 1.389 1_655 S
C534 C535 1.524 . S
C534 C548 1.377 . S
C535 C534 1.524 . S
C535 C536 1.397 1_655 S
C535 C540 1.363 . S
C536 H513 0.950 . S
C536 C535 1.397 1_455 S
C536 C537 1.334 . S
C537 H514 0.950 . S
C537 C536 1.334 . S
C537 C538 1.287 1_455 S
C538 C537 1.287 1_655 S
C538 C539 1.524 . S
C538 H557 0.912 . S
C539 H515 0.950 . S
C539 C538 1.524 . S
C539 C540 1.415 . S
C540 H516 0.950 . S
C540 C535 1.363 . S
C540 C539 1.415 . S
C541 H517 0.951 . S
C541 C542 1.366 . S
C541 C543 1.388 . S
C542 C541 1.366 . S
C542 C546 1.385 . S
C543 H518 0.951 . S
C543 C541 1.388 . S
C543 C544 1.366 . S
C544 C543 1.366 . S
C544 C545 1.414 . S
C544 C547 1.499 . S
C545 H519 0.950 . S
C545 C544 1.414 . S
C545 C546 1.374 . S
C546 H520 0.950 . S
C546 C542 1.385 . S
C546 C545 1.374 . S
C547 C544 1.499 . S
C547 C548 1.373 . S
C547 C549 1.389 1_554 S
C548 H521 0.950 . S
C548 C534 1.377 . S
C548 C547 1.373 . S
C549 C533 1.377 1_655 S
C549 C547 1.389 1_556 S
C549 C550 1.524 . S
C550 C549 1.524 . S
C550 C551 1.397 . S
C550 C555 1.363 1_655 S
C551 H522 0.950 . S
C551 C550 1.397 . S
C551 C552 1.334 . S
C552 H523 0.950 . S
C552 C551 1.334 . S
C552 C553 1.287 . S
C553 C552 1.287 . S
C553 C554 1.524 1_655 S
C553 H556 0.999 . S
C554 H524 0.950 . S
C554 C553 1.524 1_455 S
C554 C555 1.415 . S
C555 H525 0.950 . S
C555 C550 1.363 1_455 S
C555 C554 1.415 . S
H556 C553 0.999 . S
H557 C538 0.912 . S
H558 C576 0.951 . S
H559 C578 0.951 . S
H560 C580 0.950 . S
H561 C581 0.950 . S
H562 C583 0.950 . S
H563 C586 0.950 . S
H564 C587 0.950 . S
H565 C589 0.950 . S
H566 C590 0.950 . S
H567 C591 0.951 . S
H568 C593 0.951 . S
H569 C595 0.950 . S
H570 C596 0.950 . S
H571 C598 0.950 . S
H572 C601 0.950 . S
H573 C602 0.950 . S
H574 C604 0.950 . S
H575 C605 0.950 . S
C576 H558 0.951 . S
C576 C577 1.366 . S
C576 C578 1.388 . S
C577 C576 1.366 . S
C577 C581 1.385 . S
C578 H559 0.951 . S
C578 C576 1.388 . S
C578 C579 1.366 . S
C579 C578 1.366 . S
C579 C580 1.414 . S
C579 C582 1.499 . S
C580 H560 0.950 . S
C580 C579 1.414 . S
C580 C581 1.374 . S
C581 H561 0.950 . S
C581 C577 1.385 . S
C581 C580 1.374 . S
C582 C579 1.499 . S
C582 C583 1.373 . S
C582 C584 1.389 . S
C583 H562 0.950 . S
C583 C582 1.373 . S
C583 C599 1.377 1_455 S
C584 C582 1.389 . S
C584 C585 1.524 . S
C584 C598 1.377 . S
C585 C584 1.524 . S
C585 C586 1.397 . S
C585 C590 1.363 . S
C586 H563 0.950 . S
C586 C585 1.397 . S
C586 C587 1.334 . S
C587 H564 0.950 . S
C587 C586 1.334 . S
C587 C588 1.287 . S
C588 C587 1.287 . S
C588 C589 1.524 . S
C588 H607 0.913 . S
C589 H565 0.950 . S
C589 C588 1.524 . S
C589 C590 1.415 . S
C590 H566 0.950 . S
C590 C585 1.363 . S
C590 C589 1.415 . S
C591 H567 0.951 . S
C591 C592 1.366 . S
C591 C593 1.388 . S
C592 C591 1.366 . S
C592 C596 1.385 . S
C593 H568 0.951 . S
C593 C591 1.388 . S
C593 C594 1.366 . S
C594 C593 1.366 . S
C594 C595 1.414 . S
C594 C597 1.499 . S
C595 H569 0.950 . S
C595 C594 1.414 . S
C595 C596 1.374 . S
C596 H570 0.950 . S
C596 C592 1.385 . S
C596 C595 1.374 . S
C597 C594 1.499 . S
C597 C598 1.373 1_655 S
C597 C599 1.389 . S
C598 H571 0.950 . S
C598 C584 1.377 . S
C598 C597 1.373 1_455 S
C599 C583 1.377 1_655 S
C599 C597 1.389 . S
C599 C600 1.524 . S
C600 C599 1.524 . S
C600 C601 1.397 . S
C600 C605 1.363 . S
C601 H572 0.950 . S
C601 C600 1.397 . S
C601 C602 1.334 . S
C602 H573 0.950 . S
C602 C601 1.334 . S
C602 C603 1.287 . S
C603 C602 1.287 . S
C603 C604 1.524 . S
C603 H606 0.999 . S
C604 H574 0.950 . S
C604 C603 1.524 . S
C604 C605 1.415 . S
C605 H575 0.950 . S
C605 C600 1.363 . S
C605 C604 1.415 . S
H606 C603 0.999 . S
H607 C588 0.913 . S
H608 C626 0.951 . S
H609 C628 0.951 . S
H610 C630 0.950 . S
H611 C631 0.950 . S
H612 C633 0.950 . S
H613 C636 0.950 . S
H614 C637 0.950 . S
H615 C639 0.950 . S
H616 C640 0.950 . S
H617 C641 0.951 . S
H618 C643 0.951 . S
H619 C645 0.950 . S
H620 C646 0.950 . S
H621 C648 0.950 . S
H622 C651 0.950 . S
H623 C652 0.950 . S
H624 C654 0.912 1_545 S
H625 C655 0.950 1_545 S
C626 H608 0.951 . S
C626 C627 1.366 . S
C626 C628 1.388 . S
C627 C626 1.366 . S
C627 C631 1.385 . S
C628 H609 0.951 . S
C628 C626 1.388 . S
C628 C629 1.366 . S
C629 C628 1.366 . S
C629 C630 1.414 . S
C629 C632 1.499 . S
C630 H610 0.950 . S
C630 C629 1.414 . S
C630 C631 1.374 . S
C631 H611 0.950 . S
C631 C627 1.385 . S
C631 C630 1.374 . S
C632 C629 1.499 . S
C632 C633 1.373 . S
C632 C634 1.389 1_545 S
C633 H612 0.950 . S
C633 C632 1.373 . S
C633 C649 1.377 1_545 S
C634 C632 1.389 1_565 S
C634 C635 1.524 . S
C634 C648 1.377 . S
C635 C634 1.524 . S
C635 C636 1.397 1_565 S
C635 C640 1.363 . S
C636 H613 0.950 . S
C636 C635 1.397 1_545 S
C636 C637 1.334 . S
C637 H614 0.950 . S
C637 C636 1.334 . S
C637 C638 1.287 . S
C638 C637 1.287 . S
C638 C639 1.524 1_545 S
C638 H657 0.913 . S
C639 H615 0.950 . S
C639 C638 1.524 1_565 S
C639 C640 1.415 . S
C640 H616 0.950 . S
C640 C635 1.363 . S
C640 C639 1.415 . S
C641 H617 0.951 . S
C641 C642 1.366 . S
C641 C643 1.388 . S
C642 C641 1.366 . S
C642 C646 1.385 . S
C643 H618 0.951 . S
C643 C641 1.388 . S
C643 C644 1.366 . S
C644 C643 1.366 . S
C644 C645 1.414 . S
C644 C647 1.499 . S
C645 H619 0.950 . S
C645 C644 1.414 . S
C645 C646 1.374 . S
C646 H620 0.950 . S
C646 C642 1.385 . S
C646 C645 1.374 . S
C647 C644 1.499 . S
C647 C648 1.373 . S
C647 C649 1.389 . S
C648 H621 0.950 . S
C648 C634 1.377 . S
C648 C647 1.373 . S
C649 C633 1.377 1_565 S
C649 C647 1.389 . S
C649 C650 1.524 . S
C650 C649 1.524 . S
C650 C651 1.397 . S
C650 C655 1.363 . S
C651 H622 0.950 . S
C651 C650 1.397 . S
C651 C652 1.334 . S
C652 H623 0.950 . S
C652 C651 1.334 . S
C652 C653 1.287 . S
C653 C652 1.287 . S
C653 C654 1.524 . S
C653 H656 0.999 . S
C654 H624 0.912 1_565 S
C654 C653 1.524 . S
C654 C655 1.415 . S
C655 H625 0.950 1_565 S
C655 C650 1.363 . S
C655 C654 1.415 . S
H656 C653 0.999 . S
H657 C638 0.913 . S
H658 C676 0.951 . S
H659 C678 0.951 . S
H660 C680 0.950 . S
H661 C681 0.950 . S
H662 C683 0.950 . S
H663 C686 0.950 . S
H664 C687 0.950 . S
H665 C689 0.950 . S
H666 C690 0.950 . S
H667 C691 0.951 . S
H668 C693 0.951 . S
H669 C695 0.950 . S
H670 C696 0.950 . S
H671 C698 0.950 . S
H672 C701 0.950 . S
H673 C702 0.950 . S
H674 C704 0.950 . S
H675 C705 0.950 . S
C676 H658 0.951 . S
C676 C677 1.366 . S
C676 C678 1.388 . S
C677 C676 1.366 . S
C677 C681 1.385 . S
C678 H659 0.951 . S
C678 C676 1.388 . S
C678 C679 1.366 . S
C679 C678 1.366 . S
C679 C680 1.414 . S
C679 C682 1.499 . S
C680 H660 0.950 . S
C680 C679 1.414 . S
C680 C681 1.374 . S
C681 H661 0.950 . S
C681 C677 1.385 . S
C681 C680 1.374 . S
C682 C679 1.499 . S
C682 C683 1.373 . S
C682 C684 1.389 . S
C683 H662 0.950 . S
C683 C682 1.373 . S
C683 C699 1.377 . S
C684 C682 1.389 . S
C684 C685 1.524 . S
C684 C698 1.377 . S
C685 C684 1.524 . S
C685 C686 1.397 . S
C685 C690 1.363 . S
C686 H663 0.950 . S
C686 C685 1.397 . S
C686 C687 1.334 . S
C687 H664 0.950 . S
C687 C686 1.334 . S
C687 C688 1.287 . S
C688 C687 1.287 . S
C688 C689 1.524 . S
C688 H707 0.913 . S
C689 H665 0.950 . S
C689 C688 1.524 . S
C689 C690 1.415 . S
C690 H666 0.950 . S
C690 C685 1.363 . S
C690 C689 1.415 . S
C691 H667 0.951 . S
C691 C692 1.366 . S
C691 C693 1.388 . S
C692 C691 1.366 . S
C692 C696 1.385 . S
C693 H668 0.951 . S
C693 C691 1.388 . S
C693 C694 1.366 . S
C694 C693 1.366 . S
C694 C695 1.414 . S
C694 C697 1.499 . S
C695 H669 0.950 . S
C695 C694 1.414 . S
C695 C696 1.374 . S
C696 H670 0.950 . S
C696 C692 1.385 . S
C696 C695 1.374 . S
C697 C694 1.499 . S
C697 C698 1.373 . S
C697 C699 1.389 . S
C698 H671 0.950 . S
C698 C684 1.377 . S
C698 C697 1.373 . S
C699 C683 1.377 . S
C699 C697 1.389 . S
C699 C700 1.524 . S
C700 C699 1.524 . S
C700 C701 1.397 . S
C700 C705 1.363 . S
C701 H672 0.950 . S
C701 C700 1.397 . S
C701 C702 1.334 . S
C702 H673 0.950 . S
C702 C701 1.334 . S
C702 C703 1.287 . S
C703 C702 1.287 . S
C703 C704 1.524 . S
C703 H706 0.999 . S
C704 H674 0.950 . S
C704 C703 1.524 . S
C704 C705 1.415 . S
C705 H675 0.950 . S
C705 C700 1.363 . S
C705 C704 1.415 . S
H706 C703 0.999 . S
H707 C688 0.913 . S
H708 C726 0.951 . S
H709 C728 0.951 . S
H710 C730 0.950 . S
H711 C731 0.950 . S
H712 C733 0.950 . S
H713 C736 0.950 . S
H714 C737 0.950 . S
H715 C739 0.950 . S
H716 C740 0.950 . S
H717 C741 0.951 . S
H718 C743 0.951 . S
H719 C745 0.950 . S
H720 C746 0.950 . S
H721 C748 0.950 . S
H722 C751 0.950 . S
H723 C752 0.950 . S
H724 C754 0.950 . S
H725 C755 0.950 . S
C726 H708 0.951 . S
C726 C727 1.366 . S
C726 C728 1.388 . S
C727 C726 1.366 . S
C727 C731 1.385 . S
C728 H709 0.951 . S
C728 C726 1.388 . S
C728 C729 1.366 . S
C729 C728 1.366 . S
C729 C730 1.414 . S
C729 C732 1.499 1_545 S
C730 H710 0.950 . S
C730 C729 1.414 . S
C730 C731 1.374 . S
C731 H711 0.950 . S
C731 C727 1.385 . S
C731 C730 1.374 . S
C732 C729 1.499 1_565 S
C732 C733 1.373 1_554 S
C732 C734 1.389 . S
C733 H712 0.950 . S
C733 C732 1.373 1_556 S
C733 C749 1.377 . S
C734 C732 1.389 . S
C734 C735 1.524 . S
C734 C748 1.377 . S
C735 C734 1.524 . S
C735 C736 1.397 1_565 S
C735 C740 1.363 . S
C736 H713 0.950 . S
C736 C735 1.397 1_545 S
C736 C737 1.334 . S
C737 H714 0.950 . S
C737 C736 1.334 . S
C737 C738 1.287 . S
C738 C737 1.287 . S
C738 C739 1.524 1_545 S
C738 H757 0.913 . S
C739 H715 0.950 . S
C739 C738 1.524 1_565 S
C739 C740 1.415 . S
C740 H716 0.950 . S
C740 C735 1.363 . S
C740 C739 1.415 . S
C741 H717 0.951 . S
C741 C742 1.366 . S
C741 C743 1.388 . S
C742 C741 1.366 . S
C742 C746 1.385 . S
C743 H718 0.951 . S
C743 C741 1.388 . S
C743 C744 1.366 . S
C744 C743 1.366 . S
C744 C745 1.414 . S
C744 C747 1.499 . S
C745 H719 0.950 . S
C745 C744 1.414 . S
C745 C746 1.374 . S
C746 H720 0.950 . S
C746 C742 1.385 . S
C746 C745 1.374 . S
C747 C744 1.499 . S
C747 C748 1.373 . S
C747 C749 1.389 1_554 S
C748 H721 0.950 . S
C748 C734 1.377 . S
C748 C747 1.373 . S
C749 C733 1.377 . S
C749 C747 1.389 1_556 S
C749 C750 1.524 . S
C750 C749 1.524 . S
C750 C751 1.397 . S
C750 C755 1.363 . S
C751 H722 0.950 . S
C751 C750 1.397 . S
C751 C752 1.334 . S
C752 H723 0.950 . S
C752 C751 1.334 . S
C752 C753 1.287 . S
C753 C752 1.287 . S
C753 C754 1.524 . S
C753 H756 0.999 . S
C754 H724 0.950 . S
C754 C753 1.524 . S
C754 C755 1.415 . S
C755 H725 0.950 . S
C755 C750 1.363 . S
C755 C754 1.415 . S
H756 C753 0.999 . S
H757 C738 0.913 . S
H758 C776 0.951 . S
H759 C778 0.951 . S
H760 C780 0.950 . S
H761 C781 0.950 . S
H762 C783 0.950 . S
H763 C786 0.950 . S
H764 C787 0.950 . S
H765 C789 0.950 . S
H766 C790 0.950 . S
H767 C791 0.951 . S
H768 C793 0.951 . S
H769 C795 0.950 . S
H770 C796 0.950 . S
H771 C798 0.950 . S
H772 C801 0.950 . S
H773 C802 0.950 . S
H774 C804 0.950 . S
H775 C805 0.950 . S
C776 H758 0.951 . S
C776 C777 1.366 . S
C776 C778 1.388 . S
C777 C776 1.366 . S
C777 C781 1.385 . S
C778 H759 0.951 . S
C778 C776 1.388 . S
C778 C779 1.366 . S
C779 C778 1.366 . S
C779 C780 1.414 . S
C779 C782 1.499 . S
C780 H760 0.950 . S
C780 C779 1.414 . S
C780 C781 1.374 . S
C781 H761 0.950 . S
C781 C777 1.385 . S
C781 C780 1.374 . S
C782 C779 1.499 . S
C782 C783 1.373 1_554 S
C782 C784 1.389 . S
C783 H762 0.950 . S
C783 C782 1.373 1_556 S
C783 C799 1.377 . S
C784 C782 1.389 . S
C784 C785 1.524 . S
C784 C798 1.377 . S
C785 C784 1.524 . S
C785 C786 1.397 . S
C785 C790 1.363 . S
C786 H763 0.950 . S
C786 C785 1.397 . S
C786 C787 1.334 . S
C787 H764 0.950 . S
C787 C786 1.334 . S
C787 C788 1.287 . S
C788 C787 1.287 . S
C788 C789 1.524 . S
C788 H807 0.913 . S
C789 H765 0.950 . S
C789 C788 1.524 . S
C789 C790 1.415 . S
C790 H766 0.950 . S
C790 C785 1.363 . S
C790 C789 1.415 . S
C791 H767 0.951 . S
C791 C792 1.366 . S
C791 C793 1.388 . S
C792 C791 1.366 . S
C792 C796 1.385 . S
C793 H768 0.951 . S
C793 C791 1.388 . S
C793 C794 1.366 . S
C794 C793 1.366 . S
C794 C795 1.414 . S
C794 C797 1.499 . S
C795 H769 0.950 . S
C795 C794 1.414 . S
C795 C796 1.374 . S
C796 H770 0.950 . S
C796 C792 1.385 . S
C796 C795 1.374 . S
C797 C794 1.499 . S
C797 C798 1.373 . S
C797 C799 1.389 1_554 S
C798 H771 0.950 . S
C798 C784 1.377 . S
C798 C797 1.373 . S
C799 C783 1.377 . S
C799 C797 1.389 1_556 S
C799 C800 1.524 . S
C800 C799 1.524 . S
C800 C801 1.397 . S
C800 C805 1.363 . S
C801 H772 0.950 . S
C801 C800 1.397 . S
C801 C802 1.334 . S
C802 H773 0.950 . S
C802 C801 1.334 . S
C802 C803 1.287 . S
C803 C802 1.287 . S
C803 C804 1.524 . S
C803 H806 0.999 . S
C804 H774 0.950 . S
C804 C803 1.524 . S
C804 C805 1.415 . S
C805 H775 0.950 . S
C805 C800 1.363 . S
C805 C804 1.415 . S
H806 C803 0.999 . S
H807 C788 0.913 . S
H808 C826 0.951 . S
H809 C828 0.951 . S
H810 C830 0.950 . S
H811 C831 0.950 . S
H812 C833 0.950 . S
H813 C836 0.948 1_655 S
H814 C837 0.950 . S
H815 C839 0.950 . S
H816 C840 0.950 . S
H817 C841 0.951 . S
H818 C843 0.951 . S
H819 C845 0.950 . S
H820 C846 0.950 . S
H821 C848 0.950 . S
H822 C851 0.950 1_554 S
H823 C852 0.950 . S
H824 C854 0.950 . S
H825 C855 0.950 . S
C826 H808 0.951 . S
C826 C827 1.366 . S
C826 C828 1.388 . S
C827 C826 1.366 . S
C827 C831 1.385 1_554 S
C828 H809 0.951 . S
C828 C826 1.388 . S
C828 C829 1.366 . S
C829 C828 1.366 . S
C829 C830 1.414 1_554 S
C829 C832 1.499 1_655 S
C830 H810 0.950 . S
C830 C829 1.414 1_556 S
C830 C831 1.374 . S
C831 H811 0.950 . S
C831 C827 1.385 1_556 S
C831 C830 1.374 . S
C832 C829 1.499 1_455 S
C832 C833 1.373 1_554 S
C832 C834 1.389 . S
C833 H812 0.950 . S
C833 C832 1.373 1_556 S
C833 C849 1.376 1_556 S
C834 C832 1.389 . S
C834 C835 1.524 . S
C834 C848 1.377 . S
C835 C834 1.524 . S
C835 C836 1.397 . S
C835 C840 1.363 . S
C836 H813 0.948 1_455 S
C836 C835 1.397 . S
C836 C837 1.334 1_455 S
C837 H814 0.950 . S
C837 C836 1.334 1_655 S
C837 C838 1.287 . S
C838 C837 1.287 . S
C838 C839 1.524 1_655 S
C838 H857 0.913 . S
C839 H815 0.950 . S
C839 C838 1.524 1_455 S
C839 C840 1.415 . S
C840 H816 0.950 . S
C840 C835 1.363 . S
C840 C839 1.415 . S
C841 H817 0.951 . S
C841 C842 1.366 1_556 S
C841 C843 1.388 . S
C842 C841 1.366 1_554 S
C842 C846 1.385 . S
C843 H818 0.951 . S
C843 C841 1.388 . S
C843 C844 1.366 1_556 S
C844 C843 1.366 1_554 S
C844 C845 1.414 . S
C844 C847 1.499 . S
C845 H819 0.950 . S
C845 C844 1.414 . S
C845 C846 1.374 . S
C846 H820 0.950 . S
C846 C842 1.385 . S
C846 C845 1.374 . S
C847 C844 1.499 . S
C847 C848 1.373 . S
C847 C849 1.391 . S
C848 H821 0.950 . S
C848 C834 1.377 . S
C848 C847 1.373 . S
C849 C833 1.376 1_554 S
C849 C847 1.391 . S
C849 C850 1.523 1_554 S
C850 C849 1.523 1_556 S
C850 C851 1.397 . S
C850 C855 1.363 . S
C851 H822 0.950 1_556 S
C851 C850 1.397 . S
C851 C852 1.334 . S
C852 H823 0.950 . S
C852 C851 1.334 . S
C852 C853 1.287 . S
C853 C852 1.287 . S
C853 C854 1.524 . S
C853 H856 0.999 . S
C854 H824 0.950 . S
C854 C853 1.524 . S
C854 C855 1.415 . S
C855 H825 0.950 . S
C855 C850 1.363 . S
C855 C854 1.415 . S
H856 C853 0.999 . S
H857 C838 0.913 . S
H858 C876 0.951 . S
H859 C878 0.951 . S
H860 C880 0.950 . S
H861 C881 0.950 . S
H862 C883 0.950 . S
H863 C886 0.950 . S
H864 C887 0.950 . S
H865 C889 0.950 . S
H866 C890 0.950 . S
H867 C891 0.951 . S
H868 C893 0.951 . S
H869 C895 0.976 . S
H870 C896 0.950 1_556 S
H871 C898 0.950 . S
H872 C901 0.949 1_556 S
H873 C902 0.950 1_556 S
H874 C904 0.950 . S
H875 C905 0.950 . S
C876 H858 0.951 . S
C876 C877 1.366 1_556 S
C876 C878 1.388 . S
C877 C876 1.366 1_554 S
C877 C881 1.385 . S
C878 H859 0.951 . S
C878 C876 1.388 . S
C878 C879 1.366 1_556 S
C879 C878 1.366 1_554 S
C879 C880 1.414 . S
C879 C882 1.499 . S
C880 H860 0.950 . S
C880 C879 1.414 . S
C880 C881 1.374 . S
C881 H861 0.950 . S
C881 C877 1.385 . S
C881 C880 1.374 . S
C882 C879 1.499 . S
C882 C883 1.373 . S
C882 C884 1.389 . S
C883 H862 0.950 . S
C883 C882 1.373 . S
C883 C899 1.377 . S
C884 C882 1.389 . S
C884 C885 1.524 . S
C884 C898 1.377 . S
C885 C884 1.524 . S
C885 C886 1.397 . S
C885 C890 1.363 1_554 S
C886 H863 0.950 . S
C886 C885 1.397 . S
C886 C887 1.334 . S
C887 H864 0.950 . S
C887 C886 1.334 . S
C887 C888 1.302 . S
C888 C887 1.302 . S
C888 C889 1.509 1_554 S
C888 H907 0.911 1_554 S
C889 H865 0.950 . S
C889 C888 1.509 1_556 S
C889 C890 1.415 . S
C890 H866 0.950 . S
C890 C885 1.363 1_556 S
C890 C889 1.415 . S
C891 H867 0.951 . S
C891 C892 1.366 . S
C891 C893 1.388 . S
C892 C891 1.366 . S
C892 C896 1.385 . S
C893 H868 0.951 . S
C893 C891 1.388 . S
C893 C894 1.366 . S
C894 C893 1.366 . S
C894 C895 1.391 1_554 S
C894 C897 1.499 1_565 S
C895 H869 0.976 . S
C895 C894 1.391 1_556 S
C895 C896 1.371 1_556 S
C896 H870 0.950 1_554 S
C896 C892 1.385 . S
C896 C895 1.371 1_554 S
C897 C894 1.499 1_545 S
C897 C898 1.373 . S
C897 C899 1.389 . S
C898 H871 0.950 . S
C898 C884 1.377 . S
C898 C897 1.373 . S
C899 C883 1.377 . S
C899 C897 1.389 . S
C899 C900 1.524 . S
C900 C899 1.524 . S
C900 C901 1.397 . S
C900 C905 1.363 . S
C901 H872 0.949 1_554 S
C901 C900 1.397 . S
C901 C902 1.334 1_545 S
C902 H873 0.950 1_554 S
C902 C901 1.334 1_565 S
C902 C903 1.287 1_565 S
C903 C902 1.287 1_545 S
C903 C904 1.524 . S
C903 H906 0.999 1_545 S
C904 H874 0.950 . S
C904 C903 1.524 . S
C904 C905 1.415 . S
C905 H875 0.950 . S
C905 C900 1.363 . S
C905 C904 1.415 . S
H906 C903 0.999 1_565 S
H907 C888 0.911 1_556 S
H908 C926 0.951 . S
H909 C928 0.951 . S
H910 C930 0.950 . S
H911 C931 0.950 . S
H912 C933 0.950 . S
H913 C936 0.950 . S
H914 C937 0.950 . S
H915 C939 0.950 . S
H916 C940 0.950 . S
H917 C941 0.951 . S
H918 C943 0.951 . S
H919 C945 0.950 . S
H920 C946 0.950 . S
H921 C948 0.950 . S
H922 C951 0.950 . S
H923 C952 0.950 . S
H924 C954 0.950 . S
H925 C955 0.950 . S
C926 H908 0.951 . S
C926 C927 1.366 . S
C926 C928 1.388 . S
C927 C926 1.366 . S
C927 C931 1.385 . S
C928 H909 0.951 . S
C928 C926 1.388 . S
C928 C929 1.366 . S
C929 C928 1.366 . S
C929 C930 1.414 . S
C929 C932 1.499 . S
C930 H910 0.950 . S
C930 C929 1.414 . S
C930 C931 1.374 . S
C931 H911 0.950 . S
C931 C927 1.385 . S
C931 C930 1.374 . S
C932 C929 1.499 . S
C932 C933 1.373 1_554 S
C932 C934 1.389 . S
C933 H912 0.950 . S
C933 C932 1.373 1_556 S
C933 C949 1.377 . S
C934 C932 1.389 . S
C934 C935 1.524 . S
C934 C948 1.377 . S
C935 C934 1.524 . S
C935 C936 1.397 . S
C935 C940 1.363 . S
C936 H913 0.950 . S
C936 C935 1.397 . S
C936 C937 1.334 . S
C937 H914 0.950 . S
C937 C936 1.334 . S
C937 C938 1.287 . S
C938 C937 1.287 . S
C938 C939 1.524 . S
C938 H957 0.913 . S
C939 H915 0.950 . S
C939 C938 1.524 . S
C939 C940 1.415 . S
C940 H916 0.950 . S
C940 C935 1.363 . S
C940 C939 1.415 . S
C941 H917 0.951 . S
C941 C942 1.366 . S
C941 C943 1.388 . S
C942 C941 1.366 . S
C942 C946 1.385 . S
C943 H918 0.951 . S
C943 C941 1.388 . S
C943 C944 1.366 . S
C944 C943 1.366 . S
C944 C945 1.414 . S
C944 C947 1.499 . S
C945 H919 0.950 . S
C945 C944 1.414 . S
C945 C946 1.374 . S
C946 H920 0.950 . S
C946 C942 1.385 . S
C946 C945 1.374 . S
C947 C944 1.499 . S
C947 C948 1.373 . S
C947 C949 1.389 1_554 S
C948 H921 0.950 . S
C948 C934 1.377 . S
C948 C947 1.373 . S
C949 C933 1.377 . S
C949 C947 1.389 1_556 S
C949 C950 1.524 . S
C950 C949 1.524 . S
C950 C951 1.397 . S
C950 C955 1.363 . S
C951 H922 0.950 . S
C951 C950 1.397 . S
C951 C952 1.334 . S
C952 H923 0.950 . S
C952 C951 1.334 . S
C952 C953 1.287 . S
C953 C952 1.287 . S
C953 C954 1.524 . S
C953 H956 0.999 . S
C954 H924 0.950 . S
C954 C953 1.524 . S
C954 C955 1.415 . S
C955 H925 0.950 . S
C955 C950 1.363 . S
C955 C954 1.415 . S
H956 C953 0.999 . S
H957 C938 0.913 . S
H958 C976 0.951 . S
H959 C978 0.951 . S
H960 C980 0.950 . S
H961 C981 0.950 . S
H962 C983 0.950 . S
H963 C986 0.950 . S
H964 C987 0.950 . S
H965 C989 0.950 . S
H966 C990 0.950 . S
H967 C991 0.951 . S
H968 C993 0.951 . S
H969 C995 0.950 . S
H970 C996 0.950 . S
H971 C998 0.950 . S
H972 C1001 0.950 1_455 S
H973 C1002 0.950 . S
H974 C1004 0.950 . S
H975 C1005 0.950 . S
C976 H958 0.951 . S
C976 C977 1.366 . S
C976 C978 1.388 . S
C977 C976 1.366 . S
C977 C981 1.385 . S
C978 H959 0.951 . S
C978 C976 1.388 . S
C978 C979 1.366 . S
C979 C978 1.366 . S
C979 C980 1.414 . S
C979 C982 1.499 . S
C980 H960 0.950 . S
C980 C979 1.414 . S
C980 C981 1.374 . S
C981 H961 0.950 . S
C981 C977 1.385 . S
C981 C980 1.374 . S
C982 C979 1.499 . S
C982 C983 1.373 1_554 S
C982 C984 1.389 . S
C983 H962 0.950 . S
C983 C982 1.373 1_556 S
C983 C999 1.378 . S
C984 C982 1.389 . S
C984 C985 1.524 . S
C984 C998 1.377 . S
C985 C984 1.524 . S
C985 C986 1.397 . S
C985 C990 1.363 . S
C986 H963 0.950 . S
C986 C985 1.397 . S
C986 C987 1.334 . S
C987 H964 0.950 . S
C987 C986 1.334 . S
C987 C988 1.287 . S
C988 C987 1.287 . S
C988 C989 1.524 . S
C988 H1007 0.913 . S
C989 H965 0.950 . S
C989 C988 1.524 . S
C989 C990 1.415 . S
C990 H966 0.950 . S
C990 C985 1.363 . S
C990 C989 1.415 . S
C991 H967 0.951 . S
C991 C992 1.366 . S
C991 C993 1.388 . S
C992 C991 1.366 . S
C992 C996 1.385 . S
C993 H968 0.951 . S
C993 C991 1.388 . S
C993 C994 1.366 . S
C994 C993 1.366 . S
C994 C995 1.414 . S
C994 C997 1.499 1_455 S
C995 H969 0.950 . S
C995 C994 1.414 . S
C995 C996 1.374 . S
C996 H970 0.950 . S
C996 C992 1.385 . S
C996 C995 1.374 . S
C997 C994 1.499 1_655 S
C997 C998 1.373 . S
C997 C999 1.366 1_554 S
C998 H971 0.950 . S
C998 C984 1.377 . S
C998 C997 1.373 . S
C999 C983 1.378 . S
C999 C997 1.366 1_556 S
C999 C1000 1.551 . S
C1000 C999 1.551 . S
C1000 C1001 1.397 . S
C1000 C1005 1.363 . S
C1001 H972 0.950 1_655 S
C1001 C1000 1.397 . S
C1001 C1002 1.334 1_655 S
C1002 H973 0.950 . S
C1002 C1001 1.334 1_455 S
C1002 C1003 1.287 . S
C1003 C1002 1.287 . S
C1003 C1004 1.524 1_455 S
C1003 H1006 0.999 . S
C1004 H974 0.950 . S
C1004 C1003 1.524 1_655 S
C1004 C1005 1.415 . S
C1005 H975 0.950 . S
C1005 C1000 1.363 . S
C1005 C1004 1.415 . S
H1006 C1003 0.999 . S
H1007 C988 0.913 . S
H1008 C1026 0.951 . S
H1009 C1028 0.951 . S
H1010 C1030 0.950 . S
H1011 C1031 0.950 . S
H1012 C1033 0.950 . S
H1013 C1036 0.950 . S
H1014 C1037 0.950 . S
H1015 C1039 0.950 . S
H1016 C1040 0.950 . S
H1017 C1041 0.951 . S
H1018 C1043 0.951 . S
H1019 C1045 0.950 . S
H1020 C1046 0.950 . S
H1021 C1048 0.946 1_655 S
H1022 C1051 0.950 . S
H1023 C1052 0.950 . S
H1024 C1054 0.937 . S
H1025 C1055 0.950 . S
C1026 H1008 0.951 . S
C1026 C1027 1.366 . S
C1026 C1028 1.388 . S
C1027 C1026 1.366 . S
C1027 C1031 1.385 . S
C1028 H1009 0.951 . S
C1028 C1026 1.388 . S
C1028 C1029 1.366 . S
C1029 C1028 1.366 . S
C1029 C1030 1.414 . S
C1029 C1032 1.499 . S
C1030 H1010 0.950 . S
C1030 C1029 1.414 . S
C1030 C1031 1.374 . S
C1031 H1011 0.950 . S
C1031 C1027 1.385 . S
C1031 C1030 1.374 . S
C1032 C1029 1.499 . S
C1032 C1033 1.373 . S
C1032 C1034 1.389 . S
C1033 H1012 0.950 . S
C1033 C1032 1.373 . S
C1033 C1049 1.377 . S
C1034 C1032 1.389 . S
C1034 C1035 1.524 . S
C1034 C1048 1.377 . S
C1035 C1034 1.524 . S
C1035 C1036 1.397 . S
C1035 C1040 1.363 . S
C1036 H1013 0.950 . S
C1036 C1035 1.397 . S
C1036 C1037 1.334 . S
C1037 H1014 0.950 . S
C1037 C1036 1.334 . S
C1037 C1038 1.287 . S
C1038 C1037 1.287 . S
C1038 C1039 1.524 . S
C1038 H1057 0.913 . S
C1039 H1015 0.950 . S
C1039 C1038 1.524 . S
C1039 C1040 1.415 . S
C1040 H1016 0.950 . S
C1040 C1035 1.363 . S
C1040 C1039 1.415 . S
C1041 H1017 0.951 . S
C1041 C1042 1.366 . S
C1041 C1043 1.388 . S
C1042 C1041 1.366 . S
C1042 C1046 1.385 . S
C1043 H1018 0.951 . S
C1043 C1041 1.388 . S
C1043 C1044 1.366 . S
C1044 C1043 1.366 . S
C1044 C1045 1.414 . S
C1044 C1047 1.499 . S
C1045 H1019 0.950 . S
C1045 C1044 1.414 . S
C1045 C1046 1.374 . S
C1046 H1020 0.950 . S
C1046 C1042 1.385 . S
C1046 C1045 1.374 . S
C1047 C1044 1.499 . S
C1047 C1048 1.373 1_655 S
C1047 C1049 1.389 1_655 S
C1048 H1021 0.946 1_455 S
C1048 C1034 1.377 . S
C1048 C1047 1.373 1_455 S
C1049 C1033 1.377 . S
C1049 C1047 1.389 1_455 S
C1049 C1050 1.524 1_455 S
C1050 C1049 1.524 1_655 S
C1050 C1051 1.397 . S
C1050 C1055 1.363 1_655 S
C1051 H1022 0.950 . S
C1051 C1050 1.397 . S
C1051 C1052 1.334 . S
C1052 H1023 0.950 . S
C1052 C1051 1.334 . S
C1052 C1053 1.287 . S
C1053 C1052 1.287 . S
C1053 C1054 1.524 . S
C1053 H1056 0.999 . S
C1054 H1024 0.937 . S
C1054 C1053 1.524 . S
C1054 C1055 1.415 1_655 S
C1055 H1025 0.950 . S
C1055 C1050 1.363 1_455 S
C1055 C1054 1.415 1_455 S
H1056 C1053 0.999 . S
H1057 C1038 0.913 . S
H1058 C1076 0.951 . S
H1059 C1078 0.951 . S
H1060 C1080 0.950 . S
H1061 C1081 0.950 . S
H1062 C1083 0.950 . S
H1063 C1086 0.950 . S
H1064 C1087 0.950 . S
H1065 C1089 0.950 . S
H1066 C1090 0.950 . S
H1067 C1091 0.951 . S
H1068 C1093 0.951 . S
H1069 C1095 0.950 . S
H1070 C1096 0.950 . S
H1071 C1098 0.950 . S
H1072 C1101 0.950 . S
H1073 C1102 0.950 . S
H1074 C1104 0.950 . S
H1075 C1105 0.954 . S
C1076 H1058 0.951 . S
C1076 C1077 1.366 . S
C1076 C1078 1.388 . S
C1077 C1076 1.366 . S
C1077 C1081 1.385 . S
C1078 H1059 0.951 . S
C1078 C1076 1.388 . S
C1078 C1079 1.366 . S
C1079 C1078 1.366 . S
C1079 C1080 1.414 . S
C1079 C1082 1.499 . S
C1080 H1060 0.950 . S
C1080 C1079 1.414 . S
C1080 C1081 1.374 . S
C1081 H1061 0.950 . S
C1081 C1077 1.385 . S
C1081 C1080 1.374 . S
C1082 C1079 1.499 . S
C1082 C1083 1.373 . S
C1082 C1084 1.389 . S
C1083 H1062 0.950 . S
C1083 C1082 1.373 . S
C1083 C1099 1.377 1_545 S
C1084 C1082 1.389 . S
C1084 C1085 1.524 . S
C1084 C1098 1.377 1_545 S
C1085 C1084 1.524 . S
C1085 C1086 1.397 . S
C1085 C1090 1.363 . S
C1086 H1063 0.950 . S
C1086 C1085 1.397 . S
C1086 C1087 1.334 . S
C1087 H1064 0.950 . S
C1087 C1086 1.334 . S
C1087 C1088 1.287 . S
C1088 C1087 1.287 . S
C1088 C1089 1.524 . S
C1088 H1107 0.913 . S
C1089 H1065 0.950 . S
C1089 C1088 1.524 . S
C1089 C1090 1.415 . S
C1090 H1066 0.950 . S
C1090 C1085 1.363 . S
C1090 C1089 1.415 . S
C1091 H1067 0.951 . S
C1091 C1092 1.366 . S
C1091 C1093 1.388 . S
C1092 C1091 1.366 . S
C1092 C1096 1.385 . S
C1093 H1068 0.951 . S
C1093 C1091 1.388 . S
C1093 C1094 1.366 . S
C1094 C1093 1.366 . S
C1094 C1095 1.414 . S
C1094 C1097 1.499 . S
C1095 H1069 0.950 . S
C1095 C1094 1.414 . S
C1095 C1096 1.374 . S
C1096 H1070 0.950 . S
C1096 C1092 1.385 . S
C1096 C1095 1.374 . S
C1097 C1094 1.499 . S
C1097 C1098 1.373 . S
C1097 C1099 1.389 . S
C1098 H1071 0.950 . S
C1098 C1084 1.377 1_565 S
C1098 C1097 1.373 . S
C1099 C1083 1.377 1_565 S
C1099 C1097 1.389 . S
C1099 C1100 1.524 . S
C1100 C1099 1.524 . S
C1100 C1101 1.397 . S
C1100 C1105 1.363 . S
C1101 H1072 0.950 . S
C1101 C1100 1.397 . S
C1101 C1102 1.334 . S
C1102 H1073 0.950 . S
C1102 C1101 1.334 . S
C1102 C1103 1.287 . S
C1103 C1102 1.287 . S
C1103 C1104 1.524 . S
C1103 H1106 0.999 . S
C1104 H1074 0.950 . S
C1104 C1103 1.524 . S
C1104 C1105 1.415 . S
C1105 H1075 0.954 . S
C1105 C1100 1.363 . S
C1105 C1104 1.415 . S
H1106 C1103 0.999 . S
H1107 C1088 0.913 . S
H1108 C1126 0.951 . S
H1109 C1128 0.951 . S
H1110 C1130 0.950 . S
H1111 C1131 0.950 . S
H1112 C1133 0.950 . S
H1113 C1136 0.950 . S
H1114 C1137 0.950 . S
H1115 C1139 0.950 . S
H1116 C1140 0.950 . S
H1117 C1141 0.951 . S
H1118 C1143 0.951 . S
H1119 C1145 0.950 . S
H1120 C1146 0.950 . S
H1121 C1148 0.950 . S
H1122 C1151 0.950 . S
H1123 C1152 0.950 . S
H1124 C1154 0.950 . S
H1125 C1155 0.950 . S
C1126 H1108 0.951 . S
C1126 C1127 1.366 . S
C1126 C1128 1.388 . S
C1127 C1126 1.366 . S
C1127 C1131 1.385 . S
C1128 H1109 0.951 . S
C1128 C1126 1.388 . S
C1128 C1129 1.366 . S
C1129 C1128 1.366 . S
C1129 C1130 1.414 . S
C1129 C1132 1.499 . S
C1130 H1110 0.950 . S
C1130 C1129 1.414 . S
C1130 C1131 1.374 . S
C1131 H1111 0.950 . S
C1131 C1127 1.385 . S
C1131 C1130 1.374 . S
C1132 C1129 1.499 . S
C1132 C1133 1.373 . S
C1132 C1134 1.389 . S
C1133 H1112 0.950 . S
C1133 C1132 1.373 . S
C1133 C1149 1.377 . S
C1134 C1132 1.389 . S
C1134 C1135 1.524 . S
C1134 C1148 1.377 . S
C1135 C1134 1.524 . S
C1135 C1136 1.397 . S
C1135 C1140 1.363 . S
C1136 H1113 0.950 . S
C1136 C1135 1.397 . S
C1136 C1137 1.334 . S
C1137 H1114 0.950 . S
C1137 C1136 1.334 . S
C1137 C1138 1.287 . S
C1138 C1137 1.287 . S
C1138 C1139 1.524 . S
C1138 H1157 0.913 . S
C1139 H1115 0.950 . S
C1139 C1138 1.524 . S
C1139 C1140 1.415 . S
C1140 H1116 0.950 . S
C1140 C1135 1.363 . S
C1140 C1139 1.415 . S
C1141 H1117 0.951 . S
C1141 C1142 1.366 . S
C1141 C1143 1.388 . S
C1142 C1141 1.366 . S
C1142 C1146 1.385 . S
C1143 H1118 0.951 . S
C1143 C1141 1.388 . S
C1143 C1144 1.366 . S
C1144 C1143 1.366 . S
C1144 C1145 1.414 . S
C1144 C1147 1.499 . S
C1145 H1119 0.950 . S
C1145 C1144 1.414 . S
C1145 C1146 1.374 . S
C1146 H1120 0.950 . S
C1146 C1142 1.385 . S
C1146 C1145 1.374 . S
C1147 C1144 1.499 . S
C1147 C1148 1.373 . S
C1147 C1149 1.389 . S
C1148 H1121 0.950 . S
C1148 C1134 1.377 . S
C1148 C1147 1.373 . S
C1149 C1133 1.377 . S
C1149 C1147 1.389 . S
C1149 C1150 1.524 . S
C1150 C1149 1.524 . S
C1150 C1151 1.397 . S
C1150 C1155 1.363 . S
C1151 H1122 0.950 . S
C1151 C1150 1.397 . S
C1151 C1152 1.334 . S
C1152 H1123 0.950 . S
C1152 C1151 1.334 . S
C1152 C1153 1.287 . S
C1153 C1152 1.287 . S
C1153 C1154 1.524 . S
C1153 H1156 0.999 . S
C1154 H1124 0.950 . S
C1154 C1153 1.524 . S
C1154 C1155 1.415 . S
C1155 H1125 0.950 . S
C1155 C1150 1.363 . S
C1155 C1154 1.415 . S
H1156 C1153 0.999 . S
H1157 C1138 0.913 . S
H1158 C1176 0.951 . S
H1159 C1178 0.951 . S
H1160 C1180 0.950 . S
H1161 C1181 0.950 . S
H1162 C1183 0.950 . S
H1163 C1186 0.950 . S
H1164 C1187 0.950 . S
H1165 C1189 0.950 . S
H1166 C1190 0.950 1_655 S
H1167 C1191 0.951 . S
H1168 C1193 0.951 . S
H1169 C1195 0.950 . S
H1170 C1196 0.950 . S
H1171 C1198 0.950 . S
H1172 C1201 0.950 . S
H1173 C1202 0.950 . S
H1174 C1204 0.950 . S
H1175 C1205 0.950 . S
C1176 H1158 0.951 . S
C1176 C1177 1.366 . S
C1176 C1178 1.388 . S
C1177 C1176 1.366 . S
C1177 C1181 1.385 . S
C1178 H1159 0.951 . S
C1178 C1176 1.388 . S
C1178 C1179 1.366 . S
C1179 C1178 1.366 . S
C1179 C1180 1.414 . S
C1179 C1182 1.499 . S
C1180 H1160 0.950 . S
C1180 C1179 1.414 . S
C1180 C1181 1.374 . S
C1181 H1161 0.950 . S
C1181 C1177 1.385 . S
C1181 C1180 1.374 . S
C1182 C1179 1.499 . S
C1182 C1183 1.373 . S
C1182 C1184 1.389 . S
C1183 H1162 0.950 . S
C1183 C1182 1.373 . S
C1183 C1199 1.377 1_455 S
C1184 C1182 1.389 . S
C1184 C1185 1.524 . S
C1184 C1198 1.377 1_455 S
C1185 C1184 1.524 . S
C1185 C1186 1.397 . S
C1185 C1190 1.363 . S
C1186 H1163 0.950 . S
C1186 C1185 1.397 . S
C1186 C1187 1.334 . S
C1187 H1164 0.950 . S
C1187 C1186 1.334 . S
C1187 C1188 1.287 . S
C1188 C1187 1.287 . S
C1188 C1189 1.524 . S
C1188 H1207 0.913 . S
C1189 H1165 0.950 . S
C1189 C1188 1.524 . S
C1189 C1190 1.415 . S
C1190 H1166 0.950 1_455 S
C1190 C1185 1.363 . S
C1190 C1189 1.415 . S
C1191 H1167 0.951 . S
C1191 C1192 1.366 . S
C1191 C1193 1.388 . S
C1192 C1191 1.366 . S
C1192 C1196 1.385 . S
C1193 H1168 0.951 . S
C1193 C1191 1.388 . S
C1193 C1194 1.366 . S
C1194 C1193 1.366 . S
C1194 C1195 1.414 . S
C1194 C1197 1.499 . S
C1195 H1169 0.950 . S
C1195 C1194 1.414 . S
C1195 C1196 1.374 . S
C1196 H1170 0.950 . S
C1196 C1192 1.385 . S
C1196 C1195 1.374 . S
C1197 C1194 1.499 . S
C1197 C1198 1.373 . S
C1197 C1199 1.389 . S
C1198 H1171 0.950 . S
C1198 C1184 1.377 1_655 S
C1198 C1197 1.373 . S
C1199 C1183 1.377 1_655 S
C1199 C1197 1.389 . S
C1199 C1200 1.524 . S
C1200 C1199 1.524 . S
C1200 C1201 1.397 . S
C1200 C1205 1.363 . S
C1201 H1172 0.950 . S
C1201 C1200 1.397 . S
C1201 C1202 1.334 . S
C1202 H1173 0.950 . S
C1202 C1201 1.334 . S
C1202 C1203 1.287 . S
C1203 C1202 1.287 . S
C1203 C1204 1.524 . S
C1203 H1206 0.999 . S
C1204 H1174 0.950 . S
C1204 C1203 1.524 . S
C1204 C1205 1.415 . S
C1205 H1175 0.950 . S
C1205 C1200 1.363 . S
C1205 C1204 1.415 . S
H1206 C1203 0.999 . S
H1207 C1188 0.913 . S
H1208 C1226 0.951 . S
H1209 C1228 0.951 . S
H1210 C1230 0.950 . S
H1211 C1231 0.950 . S
H1212 C1233 0.964 . S
H1213 C1236 0.950 . S
H1214 C1237 0.950 . S
H1215 C1239 0.950 1_565 S
H1216 C1240 0.950 . S
H1217 C1241 0.951 . S
H1218 C1243 0.951 . S
H1219 C1245 0.950 . S
H1220 C1246 0.950 . S
H1221 C1248 0.950 . S
H1222 C1251 0.950 . S
H1223 C1252 0.950 . S
H1224 C1254 0.950 . S
H1225 C1255 0.950 . S
C1226 H1208 0.951 . S
C1226 C1227 1.366 . S
C1226 C1228 1.388 . S
C1227 C1226 1.366 . S
C1227 C1231 1.385 . S
C1228 H1209 0.951 . S
C1228 C1226 1.388 . S
C1228 C1229 1.366 . S
C1229 C1228 1.366 . S
C1229 C1230 1.414 . S
C1229 C1232 1.499 . S
C1230 H1210 0.950 . S
C1230 C1229 1.414 . S
C1230 C1231 1.374 . S
C1231 H1211 0.950 . S
C1231 C1227 1.385 . S
C1231 C1230 1.374 . S
C1232 C1229 1.499 . S
C1232 C1233 1.373 1_545 S
C1232 C1234 1.389 1_545 S
C1233 H1212 0.964 . S
C1233 C1232 1.373 1_565 S
C1233 C1249 1.377 . S
C1234 C1232 1.389 1_565 S
C1234 C1235 1.524 . S
C1234 C1248 1.377 . S
C1235 C1234 1.524 . S
C1235 C1236 1.397 1_565 S
C1235 C1240 1.363 . S
C1236 H1213 0.950 . S
C1236 C1235 1.397 1_545 S
C1236 C1237 1.334 . S
C1237 H1214 0.950 . S
C1237 C1236 1.334 . S
C1237 C1238 1.287 . S
C1238 C1237 1.287 . S
C1238 C1239 1.524 . S
C1238 H1257 0.913 . S
C1239 H1215 0.950 1_545 S
C1239 C1238 1.524 . S
C1239 C1240 1.415 1_545 S
C1240 H1216 0.950 . S
C1240 C1235 1.363 . S
C1240 C1239 1.415 1_565 S
C1241 H1217 0.951 . S
C1241 C1242 1.366 . S
C1241 C1243 1.388 . S
C1242 C1241 1.366 . S
C1242 C1246 1.385 . S
C1243 H1218 0.951 . S
C1243 C1241 1.388 . S
C1243 C1244 1.366 . S
C1244 C1243 1.366 . S
C1244 C1245 1.414 . S
C1244 C1247 1.499 . S
C1245 H1219 0.950 . S
C1245 C1244 1.414 . S
C1245 C1246 1.374 . S
C1246 H1220 0.950 . S
C1246 C1242 1.385 . S
C1246 C1245 1.374 . S
C1247 C1244 1.499 . S
C1247 C1248 1.373 . S
C1247 C1249 1.389 . S
C1248 H1221 0.950 . S
C1248 C1234 1.377 . S
C1248 C1247 1.373 . S
C1249 C1233 1.377 . S
C1249 C1247 1.389 . S
C1249 C1250 1.524 . S
C1250 C1249 1.524 . S
C1250 C1251 1.397 . S
C1250 C1255 1.363 . S
C1251 H1222 0.950 . S
C1251 C1250 1.397 . S
C1251 C1252 1.334 . S
C1252 H1223 0.950 . S
C1252 C1251 1.334 . S
C1252 C1253 1.287 . S
C1253 C1252 1.287 . S
C1253 C1254 1.524 . S
C1253 H1256 0.999 . S
C1254 H1224 0.950 . S
C1254 C1253 1.524 . S
C1254 C1255 1.415 . S
C1255 H1225 0.950 . S
C1255 C1250 1.363 . S
C1255 C1254 1.415 . S
H1256 C1253 0.999 . S
H1257 C1238 0.913 . S
H1258 C1276 0.951 . S
H1259 C1278 0.951 . S
H1260 C1280 0.950 . S
H1261 C1281 0.950 . S
H1262 C1283 0.950 . S
H1263 C1286 0.950 . S
H1264 C1287 0.950 . S
H1265 C1289 0.950 . S
H1266 C1290 0.950 . S
H1267 C1291 0.951 . S
H1268 C1293 0.951 . S
H1269 C1295 0.950 . S
H1270 C1296 0.950 . S
H1271 C1298 0.950 . S
H1272 C1301 0.950 . S
H1273 C1302 0.950 . S
H1274 C1304 0.950 . S
H1275 C1305 0.950 . S
C1276 H1258 0.951 . S
C1276 C1277 1.366 . S
C1276 C1278 1.388 . S
C1277 C1276 1.366 . S
C1277 C1281 1.385 . S
C1278 H1259 0.951 . S
C1278 C1276 1.388 . S
C1278 C1279 1.366 . S
C1279 C1278 1.366 . S
C1279 C1280 1.414 . S
C1279 C1282 1.499 . S
C1280 H1260 0.950 . S
C1280 C1279 1.414 . S
C1280 C1281 1.374 . S
C1281 H1261 0.950 . S
C1281 C1277 1.385 . S
C1281 C1280 1.374 . S
C1282 C1279 1.499 . S
C1282 C1283 1.373 . S
C1282 C1284 1.389 . S
C1283 H1262 0.950 . S
C1283 C1282 1.373 . S
C1283 C1299 1.377 . S
C1284 C1282 1.389 . S
C1284 C1285 1.524 . S
C1284 C1298 1.377 . S
C1285 C1284 1.524 . S
C1285 C1286 1.397 . S
C1285 C1290 1.363 . S
C1286 H1263 0.950 . S
C1286 C1285 1.397 . S
C1286 C1287 1.334 . S
C1287 H1264 0.950 . S
C1287 C1286 1.334 . S
C1287 C1288 1.287 . S
C1288 C1287 1.287 . S
C1288 C1289 1.524 . S
C1288 H1307 0.913 . S
C1289 H1265 0.950 . S
C1289 C1288 1.524 . S
C1289 C1290 1.415 . S
C1290 H1266 0.950 . S
C1290 C1285 1.363 . S
C1290 C1289 1.415 . S
C1291 H1267 0.951 . S
C1291 C1292 1.366 . S
C1291 C1293 1.388 . S
C1292 C1291 1.366 . S
C1292 C1296 1.385 . S
C1293 H1268 0.951 . S
C1293 C1291 1.388 . S
C1293 C1294 1.366 . S
C1294 C1293 1.366 . S
C1294 C1295 1.414 . S
C1294 C1297 1.499 . S
C1295 H1269 0.950 . S
C1295 C1294 1.414 . S
C1295 C1296 1.374 . S
C1296 H1270 0.950 . S
C1296 C1292 1.385 . S
C1296 C1295 1.374 . S
C1297 C1294 1.499 . S
C1297 C1298 1.373 . S
C1297 C1299 1.389 . S
C1298 H1271 0.950 . S
C1298 C1284 1.377 . S
C1298 C1297 1.373 . S
C1299 C1283 1.377 . S
C1299 C1297 1.389 . S
C1299 C1300 1.524 . S
C1300 C1299 1.524 . S
C1300 C1301 1.397 . S
C1300 C1305 1.363 . S
C1301 H1272 0.950 . S
C1301 C1300 1.397 . S
C1301 C1302 1.334 . S
C1302 H1273 0.950 . S
C1302 C1301 1.334 . S
C1302 C1303 1.287 . S
C1303 C1302 1.287 . S
C1303 C1304 1.524 . S
C1303 H1306 0.999 . S
C1304 H1274 0.950 . S
C1304 C1303 1.524 . S
C1304 C1305 1.415 . S
C1305 H1275 0.950 . S
C1305 C1300 1.363 . S
C1305 C1304 1.415 . S
H1306 C1303 0.999 . S
H1307 C1288 0.913 . S
H1308 C1326 0.951 . S
H1309 C1328 0.951 . S
H1310 C1330 0.950 . S
H1311 C1331 0.950 . S
H1312 C1333 0.950 . S
H1313 C1336 0.950 . S
H1314 C1337 0.950 . S
H1315 C1339 0.950 . S
H1316 C1340 0.950 . S
H1317 C1341 0.951 . S
H1318 C1343 0.951 . S
H1319 C1345 0.950 . S
H1320 C1346 0.950 . S
H1321 C1348 0.950 . S
H1322 C1351 0.950 . S
H1323 C1352 0.950 . S
H1324 C1354 0.950 . S
H1325 C1355 0.950 . S
C1326 H1308 0.951 . S
C1326 C1327 1.366 . S
C1326 C1328 1.388 . S
C1327 C1326 1.366 . S
C1327 C1331 1.385 . S
C1328 H1309 0.951 . S
C1328 C1326 1.388 . S
C1328 C1329 1.366 . S
C1329 C1328 1.366 . S
C1329 C1330 1.414 . S
C1329 C1332 1.499 . S
C1330 H1310 0.950 . S
C1330 C1329 1.414 . S
C1330 C1331 1.374 . S
C1331 H1311 0.950 . S
C1331 C1327 1.385 . S
C1331 C1330 1.374 . S
C1332 C1329 1.499 . S
C1332 C1333 1.373 . S
C1332 C1334 1.389 . S
C1333 H1312 0.950 . S
C1333 C1332 1.373 . S
C1333 C1349 1.377 . S
C1334 C1332 1.389 . S
C1334 C1335 1.524 . S
C1334 C1348 1.377 . S
C1335 C1334 1.524 . S
C1335 C1336 1.397 . S
C1335 C1340 1.363 . S
C1336 H1313 0.950 . S
C1336 C1335 1.397 . S
C1336 C1337 1.334 . S
C1337 H1314 0.950 . S
C1337 C1336 1.334 . S
C1337 C1338 1.287 . S
C1338 C1337 1.287 . S
C1338 C1339 1.524 . S
C1338 H1357 0.913 . S
C1339 H1315 0.950 . S
C1339 C1338 1.524 . S
C1339 C1340 1.415 . S
C1340 H1316 0.950 . S
C1340 C1335 1.363 . S
C1340 C1339 1.415 . S
C1341 H1317 0.951 . S
C1341 C1342 1.366 . S
C1341 C1343 1.388 . S
C1342 C1341 1.366 . S
C1342 C1346 1.385 . S
C1343 H1318 0.951 . S
C1343 C1341 1.388 . S
C1343 C1344 1.366 . S
C1344 C1343 1.366 . S
C1344 C1345 1.414 . S
C1344 C1347 1.499 . S
C1345 H1319 0.950 . S
C1345 C1344 1.414 . S
C1345 C1346 1.374 . S
C1346 H1320 0.950 . S
C1346 C1342 1.385 . S
C1346 C1345 1.374 . S
C1347 C1344 1.499 . S
C1347 C1348 1.373 . S
C1347 C1349 1.389 . S
C1348 H1321 0.950 . S
C1348 C1334 1.377 . S
C1348 C1347 1.373 . S
C1349 C1333 1.377 . S
C1349 C1347 1.389 . S
C1349 C1350 1.524 . S
C1350 C1349 1.524 . S
C1350 C1351 1.397 . S
C1350 C1355 1.363 . S
C1351 H1322 0.950 . S
C1351 C1350 1.397 . S
C1351 C1352 1.334 . S
C1352 H1323 0.950 . S
C1352 C1351 1.334 . S
C1352 C1353 1.287 . S
C1353 C1352 1.287 . S
C1353 C1354 1.524 . S
C1353 H1356 0.999 . S
C1354 H1324 0.950 . S
C1354 C1353 1.524 . S
C1354 C1355 1.415 . S
C1355 H1325 0.950 . S
C1355 C1350 1.363 . S
C1355 C1354 1.415 . S
H1356 C1353 0.999 . S
H1357 C1338 0.913 . S
H1358 C1376 0.951 . S
H1359 C1378 0.951 . S
H1360 C1380 0.950 . S
H1361 C1381 0.950 . S
H1362 C1383 0.950 . S
H1363 C1386 0.950 . S
H1364 C1387 0.950 . S
H1365 C1389 0.950 . S
H1366 C1390 0.950 . S
H1367 C1391 0.951 . S
H1368 C1393 0.951 . S
H1369 C1395 0.950 . S
H1370 C1396 0.950 . S
H1371 C1398 0.950 . S
H1372 C1401 0.950 . S
H1373 C1402 0.950 . S
H1374 C1404 0.950 . S
H1375 C1405 0.950 . S
C1376 H1358 0.951 . S
C1376 C1377 1.366 . S
C1376 C1378 1.388 . S
C1377 C1376 1.366 . S
C1377 C1381 1.385 . S
C1378 H1359 0.951 . S
C1378 C1376 1.388 . S
C1378 C1379 1.366 . S
C1379 C1378 1.366 . S
C1379 C1380 1.414 . S
C1379 C1382 1.499 . S
C1380 H1360 0.950 . S
C1380 C1379 1.414 . S
C1380 C1381 1.374 . S
C1381 H1361 0.950 . S
C1381 C1377 1.385 . S
C1381 C1380 1.374 . S
C1382 C1379 1.499 . S
C1382 C1383 1.373 . S
C1382 C1384 1.389 . S
C1383 H1362 0.950 . S
C1383 C1382 1.373 . S
C1383 C1399 1.377 . S
C1384 C1382 1.389 . S
C1384 C1385 1.524 . S
C1384 C1398 1.377 . S
C1385 C1384 1.524 . S
C1385 C1386 1.397 . S
C1385 C1390 1.363 . S
C1386 H1363 0.950 . S
C1386 C1385 1.397 . S
C1386 C1387 1.334 . S
C1387 H1364 0.950 . S
C1387 C1386 1.334 . S
C1387 C1388 1.287 . S
C1388 C1387 1.287 . S
C1388 C1389 1.524 . S
C1388 H1407 0.913 . S
C1389 H1365 0.950 . S
C1389 C1388 1.524 . S
C1389 C1390 1.415 . S
C1390 H1366 0.950 . S
C1390 C1385 1.363 . S
C1390 C1389 1.415 . S
C1391 H1367 0.951 . S
C1391 C1392 1.366 . S
C1391 C1393 1.388 . S
C1392 C1391 1.366 . S
C1392 C1396 1.385 . S
C1393 H1368 0.951 . S
C1393 C1391 1.388 . S
C1393 C1394 1.366 . S
C1394 C1393 1.366 . S
C1394 C1395 1.414 . S
C1394 C1397 1.499 . S
C1395 H1369 0.950 . S
C1395 C1394 1.414 . S
C1395 C1396 1.374 . S
C1396 H1370 0.950 . S
C1396 C1392 1.385 . S
C1396 C1395 1.374 . S
C1397 C1394 1.499 . S
C1397 C1398 1.373 . S
C1397 C1399 1.389 . S
C1398 H1371 0.950 . S
C1398 C1384 1.377 . S
C1398 C1397 1.373 . S
C1399 C1383 1.377 . S
C1399 C1397 1.389 . S
C1399 C1400 1.524 . S
C1400 C1399 1.524 . S
C1400 C1401 1.397 . S
C1400 C1405 1.363 . S
C1401 H1372 0.950 . S
C1401 C1400 1.397 . S
C1401 C1402 1.334 . S
C1402 H1373 0.950 . S
C1402 C1401 1.334 . S
C1402 C1403 1.287 . S
C1403 C1402 1.287 . S
C1403 C1404 1.524 . S
C1403 H1406 0.999 . S
C1404 H1374 0.950 . S
C1404 C1403 1.524 . S
C1404 C1405 1.415 . S
C1405 H1375 0.950 . S
C1405 C1400 1.363 . S
C1405 C1404 1.415 . S
H1406 C1403 0.999 . S
H1407 C1388 0.913 . S
H1408 C1426 0.951 . S
H1409 C1428 0.951 . S
H1410 C1430 0.950 . S
H1411 C1431 0.950 . S
H1412 C1433 0.950 . S
H1413 C1436 0.950 . S
H1414 C1437 0.950 . S
H1415 C1439 0.950 . S
H1416 C1440 0.950 . S
H1417 C1441 0.951 . S
H1418 C1443 0.951 . S
H1419 C1445 0.950 . S
H1420 C1446 0.950 . S
H1421 C1448 0.950 . S
H1422 C1451 0.950 . S
H1423 C1452 0.950 . S
H1424 C1454 0.950 . S
H1425 C1455 0.950 . S
C1426 H1408 0.951 . S
C1426 C1427 1.366 . S
C1426 C1428 1.388 . S
C1427 C1426 1.366 . S
C1427 C1431 1.385 . S
C1428 H1409 0.951 . S
C1428 C1426 1.388 . S
C1428 C1429 1.366 . S
C1429 C1428 1.366 . S
C1429 C1430 1.414 . S
C1429 C1432 1.499 . S
C1430 H1410 0.950 . S
C1430 C1429 1.414 . S
C1430 C1431 1.374 . S
C1431 H1411 0.950 . S
C1431 C1427 1.385 . S
C1431 C1430 1.374 . S
C1432 C1429 1.499 . S
C1432 C1433 1.373 . S
C1432 C1434 1.389 . S
C1433 H1412 0.950 . S
C1433 C1432 1.373 . S
C1433 C1449 1.377 . S
C1434 C1432 1.389 . S
C1434 C1435 1.524 . S
C1434 C1448 1.377 . S
C1435 C1434 1.524 . S
C1435 C1436 1.397 . S
C1435 C1440 1.363 . S
C1436 H1413 0.950 . S
C1436 C1435 1.397 . S
C1436 C1437 1.334 . S
C1437 H1414 0.950 . S
C1437 C1436 1.334 . S
C1437 C1438 1.287 . S
C1438 C1437 1.287 . S
C1438 C1439 1.524 . S
C1438 H1457 0.913 . S
C1439 H1415 0.950 . S
C1439 C1438 1.524 . S
C1439 C1440 1.415 . S
C1440 H1416 0.950 . S
C1440 C1435 1.363 . S
C1440 C1439 1.415 . S
C1441 H1417 0.951 . S
C1441 C1442 1.366 . S
C1441 C1443 1.388 . S
C1442 C1441 1.366 . S
C1442 C1446 1.385 . S
C1443 H1418 0.951 . S
C1443 C1441 1.388 . S
C1443 C1444 1.366 . S
C1444 C1443 1.366 . S
C1444 C1445 1.414 . S
C1444 C1447 1.499 . S
C1445 H1419 0.950 . S
C1445 C1444 1.414 . S
C1445 C1446 1.374 . S
C1446 H1420 0.950 . S
C1446 C1442 1.385 . S
C1446 C1445 1.374 . S
C1447 C1444 1.499 . S
C1447 C1448 1.373 . S
C1447 C1449 1.389 . S
C1448 H1421 0.950 . S
C1448 C1434 1.377 . S
C1448 C1447 1.373 . S
C1449 C1433 1.377 . S
C1449 C1447 1.389 . S
C1449 C1450 1.524 . S
C1450 C1449 1.524 . S
C1450 C1451 1.397 . S
C1450 C1455 1.363 . S
C1451 H1422 0.950 . S
C1451 C1450 1.397 . S
C1451 C1452 1.334 . S
C1452 H1423 0.950 . S
C1452 C1451 1.334 . S
C1452 C1453 1.287 . S
C1453 C1452 1.287 . S
C1453 C1454 1.524 . S
C1453 H1456 0.999 . S
C1454 H1424 0.950 . S
C1454 C1453 1.524 . S
C1454 C1455 1.415 . S
C1455 H1425 0.950 . S
C1455 C1450 1.363 . S
C1455 C1454 1.415 . S
H1456 C1453 0.999 . S
H1457 C1438 0.913 . S
H1458 C1476 0.951 . S
H1459 C1478 0.951 . S
H1460 C1480 0.950 . S
H1461 C1481 0.950 . S
H1462 C1483 0.950 . S
H1463 C1486 0.950 . S
H1464 C1487 0.950 . S
H1465 C1489 0.950 . S
H1466 C1490 0.950 . S
H1467 C1491 0.951 . S
H1468 C1493 0.951 . S
H1469 C1495 0.950 . S
H1470 C1496 0.950 . S
H1471 C1498 0.950 . S
H1472 C1501 0.950 . S
H1473 C1502 0.950 . S
H1474 C1504 0.950 . S
H1475 C1505 0.950 . S
C1476 H1458 0.951 . S
C1476 C1477 1.366 . S
C1476 C1478 1.388 . S
C1477 C1476 1.366 . S
C1477 C1481 1.385 . S
C1478 H1459 0.951 . S
C1478 C1476 1.388 . S
C1478 C1479 1.366 . S
C1479 C1478 1.366 . S
C1479 C1480 1.414 . S
C1479 C1482 1.499 . S
C1480 H1460 0.950 . S
C1480 C1479 1.414 . S
C1480 C1481 1.374 . S
C1481 H1461 0.950 . S
C1481 C1477 1.385 . S
C1481 C1480 1.374 . S
C1482 C1479 1.499 . S
C1482 C1483 1.373 . S
C1482 C1484 1.389 . S
C1483 H1462 0.950 . S
C1483 C1482 1.373 . S
C1483 C1499 1.377 . S
C1484 C1482 1.389 . S
C1484 C1485 1.524 . S
C1484 C1498 1.377 . S
C1485 C1484 1.524 . S
C1485 C1486 1.397 . S
C1485 C1490 1.363 . S
C1486 H1463 0.950 . S
C1486 C1485 1.397 . S
C1486 C1487 1.334 . S
C1487 H1464 0.950 . S
C1487 C1486 1.334 . S
C1487 C1488 1.287 . S
C1488 C1487 1.287 . S
C1488 C1489 1.524 . S
C1488 H1507 0.913 . S
C1489 H1465 0.950 . S
C1489 C1488 1.524 . S
C1489 C1490 1.415 . S
C1490 H1466 0.950 . S
C1490 C1485 1.363 . S
C1490 C1489 1.415 . S
C1491 H1467 0.951 . S
C1491 C1492 1.366 . S
C1491 C1493 1.388 . S
C1492 C1491 1.366 . S
C1492 C1496 1.385 . S
C1493 H1468 0.951 . S
C1493 C1491 1.388 . S
C1493 C1494 1.366 . S
C1494 C1493 1.366 . S
C1494 C1495 1.414 . S
C1494 C1497 1.499 . S
C1495 H1469 0.950 . S
C1495 C1494 1.414 . S
C1495 C1496 1.374 . S
C1496 H1470 0.950 . S
C1496 C1492 1.385 . S
C1496 C1495 1.374 . S
C1497 C1494 1.499 . S
C1497 C1498 1.373 . S
C1497 C1499 1.389 . S
C1498 H1471 0.950 . S
C1498 C1484 1.377 . S
C1498 C1497 1.373 . S
C1499 C1483 1.377 . S
C1499 C1497 1.389 . S
C1499 C1500 1.524 . S
C1500 C1499 1.524 . S
C1500 C1501 1.397 . S
C1500 C1505 1.363 . S
C1501 H1472 0.950 . S
C1501 C1500 1.397 . S
C1501 C1502 1.334 . S
C1502 H1473 0.950 . S
C1502 C1501 1.334 . S
C1502 C1503 1.287 . S
C1503 C1502 1.287 . S
C1503 C1504 1.524 . S
C1503 H1506 0.999 . S
C1504 H1474 0.950 . S
C1504 C1503 1.524 . S
C1504 C1505 1.415 . S
C1505 H1475 0.950 . S
C1505 C1500 1.363 . S
C1505 C1504 1.415 . S
H1506 C1503 0.999 . S
H1507 C1488 0.913 . S
H1508 C1526 0.951 . S
H1509 C1528 0.951 . S
H1510 C1530 0.950 . S
H1511 C1531 0.950 . S
H1512 C1533 0.950 . S
H1513 C1536 0.950 . S
H1514 C1537 0.950 . S
H1515 C1539 0.950 . S
H1516 C1540 0.950 . S
H1517 C1541 0.951 . S
H1518 C1543 0.951 . S
H1519 C1545 0.950 . S
H1520 C1546 0.950 . S
H1521 C1548 0.950 . S
H1522 C1551 0.950 . S
H1523 C1552 0.950 . S
H1524 C1554 0.950 . S
H1525 C1555 0.950 . S
C1526 H1508 0.951 . S
C1526 C1527 1.366 . S
C1526 C1528 1.388 . S
C1527 C1526 1.366 . S
C1527 C1531 1.385 . S
C1528 H1509 0.951 . S
C1528 C1526 1.388 . S
C1528 C1529 1.366 . S
C1529 C1528 1.366 . S
C1529 C1530 1.414 . S
C1529 C1532 1.499 . S
C1530 H1510 0.950 . S
C1530 C1529 1.414 . S
C1530 C1531 1.374 . S
C1531 H1511 0.950 . S
C1531 C1527 1.385 . S
C1531 C1530 1.374 . S
C1532 C1529 1.499 . S
C1532 C1533 1.373 . S
C1532 C1534 1.389 . S
C1533 H1512 0.950 . S
C1533 C1532 1.373 . S
C1533 C1549 1.377 . S
C1534 C1532 1.389 . S
C1534 C1535 1.524 . S
C1534 C1548 1.377 . S
C1535 C1534 1.524 . S
C1535 C1536 1.397 . S
C1535 C1540 1.363 . S
C1536 H1513 0.950 . S
C1536 C1535 1.397 . S
C1536 C1537 1.334 . S
C1537 H1514 0.950 . S
C1537 C1536 1.334 . S
C1537 C1538 1.287 . S
C1538 C1537 1.287 . S
C1538 C1539 1.524 . S
C1538 H1557 0.913 . S
C1539 H1515 0.950 . S
C1539 C1538 1.524 . S
C1539 C1540 1.415 . S
C1540 H1516 0.950 . S
C1540 C1535 1.363 . S
C1540 C1539 1.415 . S
C1541 H1517 0.951 . S
C1541 C1542 1.366 . S
C1541 C1543 1.388 . S
C1542 C1541 1.366 . S
C1542 C1546 1.385 . S
C1543 H1518 0.951 . S
C1543 C1541 1.388 . S
C1543 C1544 1.366 . S
C1544 C1543 1.366 . S
C1544 C1545 1.414 . S
C1544 C1547 1.499 . S
C1545 H1519 0.950 . S
C1545 C1544 1.414 . S
C1545 C1546 1.374 . S
C1546 H1520 0.950 . S
C1546 C1542 1.385 . S
C1546 C1545 1.374 . S
C1547 C1544 1.499 . S
C1547 C1548 1.373 . S
C1547 C1549 1.389 . S
C1548 H1521 0.950 . S
C1548 C1534 1.377 . S
C1548 C1547 1.373 . S
C1549 C1533 1.377 . S
C1549 C1547 1.389 . S
C1549 C1550 1.524 . S
C1550 C1549 1.524 . S
C1550 C1551 1.397 . S
C1550 C1555 1.363 . S
C1551 H1522 0.950 . S
C1551 C1550 1.397 . S
C1551 C1552 1.334 . S
C1552 H1523 0.950 . S
C1552 C1551 1.334 . S
C1552 C1553 1.287 . S
C1553 C1552 1.287 . S
C1553 C1554 1.524 . S
C1553 H1556 0.999 . S
C1554 H1524 0.950 . S
C1554 C1553 1.524 . S
C1554 C1555 1.415 . S
C1555 H1525 0.950 . S
C1555 C1550 1.363 . S
C1555 C1554 1.415 . S
H1556 C1553 0.999 . S
H1557 C1538 0.913 . S
H1558 C1576 0.951 . S
H1559 C1578 0.951 . S
H1560 C1580 0.950 . S
H1561 C1581 0.950 . S
H1562 C1583 0.950 . S
H1563 C1586 0.950 . S
H1564 C1587 0.950 . S
H1565 C1589 0.950 . S
H1566 C1590 0.950 . S
H1567 C1591 0.951 . S
H1568 C1593 0.951 . S
H1569 C1595 0.950 . S
H1570 C1596 0.950 . S
H1571 C1598 0.950 . S
H1572 C1601 0.950 . S
H1573 C1602 0.950 . S
H1574 C1604 0.950 . S
H1575 C1605 0.950 . S
C1576 H1558 0.951 . S
C1576 C1577 1.366 . S
C1576 C1578 1.388 . S
C1577 C1576 1.366 . S
C1577 C1581 1.385 . S
C1578 H1559 0.951 . S
C1578 C1576 1.388 . S
C1578 C1579 1.366 . S
C1579 C1578 1.366 . S
C1579 C1580 1.414 . S
C1579 C1582 1.499 . S
C1580 H1560 0.950 . S
C1580 C1579 1.414 . S
C1580 C1581 1.374 . S
C1581 H1561 0.950 . S
C1581 C1577 1.385 . S
C1581 C1580 1.374 . S
C1582 C1579 1.499 . S
C1582 C1583 1.373 . S
C1582 C1584 1.389 . S
C1583 H1562 0.950 . S
C1583 C1582 1.373 . S
C1583 C1599 1.377 . S
C1584 C1582 1.389 . S
C1584 C1585 1.524 . S
C1584 C1598 1.377 . S
C1585 C1584 1.524 . S
C1585 C1586 1.397 . S
C1585 C1590 1.363 . S
C1586 H1563 0.950 . S
C1586 C1585 1.397 . S
C1586 C1587 1.334 . S
C1587 H1564 0.950 . S
C1587 C1586 1.334 . S
C1587 C1588 1.287 . S
C1588 C1587 1.287 . S
C1588 C1589 1.524 . S
C1588 H1607 0.913 . S
C1589 H1565 0.950 . S
C1589 C1588 1.524 . S
C1589 C1590 1.415 . S
C1590 H1566 0.950 . S
C1590 C1585 1.363 . S
C1590 C1589 1.415 . S
C1591 H1567 0.951 . S
C1591 C1592 1.366 . S
C1591 C1593 1.388 . S
C1592 C1591 1.366 . S
C1592 C1596 1.385 . S
C1593 H1568 0.951 . S
C1593 C1591 1.388 . S
C1593 C1594 1.366 . S
C1594 C1593 1.366 . S
C1594 C1595 1.414 . S
C1594 C1597 1.499 . S
C1595 H1569 0.950 . S
C1595 C1594 1.414 . S
C1595 C1596 1.374 . S
C1596 H1570 0.950 . S
C1596 C1592 1.385 . S
C1596 C1595 1.374 . S
C1597 C1594 1.499 . S
C1597 C1598 1.373 . S
C1597 C1599 1.389 . S
C1598 H1571 0.950 . S
C1598 C1584 1.377 . S
C1598 C1597 1.373 . S
C1599 C1583 1.377 . S
C1599 C1597 1.389 . S
C1599 C1600 1.524 . S
C1600 C1599 1.524 . S
C1600 C1601 1.397 . S
C1600 C1605 1.363 . S
C1601 H1572 0.950 . S
C1601 C1600 1.397 . S
C1601 C1602 1.334 . S
C1602 H1573 0.950 . S
C1602 C1601 1.334 . S
C1602 C1603 1.287 . S
C1603 C1602 1.287 . S
C1603 C1604 1.524 . S
C1603 H1606 0.999 . S
C1604 H1574 0.950 . S
C1604 C1603 1.524 . S
C1604 C1605 1.415 . S
C1605 H1575 0.950 . S
C1605 C1600 1.363 . S
C1605 C1604 1.415 . S
H1606 C1603 0.999 . S
H1607 C1588 0.913 . S
H1608 C1626 0.951 . S
H1609 C1628 0.951 . S
H1610 C1630 0.950 . S
H1611 C1631 0.950 . S
H1612 C1633 0.950 . S
H1613 C1636 0.950 . S
H1614 C1637 0.950 . S
H1615 C1639 0.950 . S
H1616 C1640 0.950 . S
H1617 C1641 0.951 . S
H1618 C1643 0.951 . S
H1619 C1645 0.950 . S
H1620 C1646 0.950 . S
H1621 C1648 0.950 . S
H1622 C1651 0.950 . S
H1623 C1652 0.950 . S
H1624 C1654 0.950 . S
H1625 C1655 0.950 . S
C1626 H1608 0.951 . S
C1626 C1627 1.366 . S
C1626 C1628 1.388 . S
C1627 C1626 1.366 . S
C1627 C1631 1.385 . S
C1628 H1609 0.951 . S
C1628 C1626 1.388 . S
C1628 C1629 1.366 . S
C1629 C1628 1.366 . S
C1629 C1630 1.414 . S
C1629 C1632 1.499 . S
C1630 H1610 0.950 . S
C1630 C1629 1.414 . S
C1630 C1631 1.374 . S
C1631 H1611 0.950 . S
C1631 C1627 1.385 . S
C1631 C1630 1.374 . S
C1632 C1629 1.499 . S
C1632 C1633 1.373 . S
C1632 C1634 1.389 . S
C1633 H1612 0.950 . S
C1633 C1632 1.373 . S
C1633 C1649 1.377 . S
C1634 C1632 1.389 . S
C1634 C1635 1.524 . S
C1634 C1648 1.377 . S
C1635 C1634 1.524 . S
C1635 C1636 1.397 . S
C1635 C1640 1.363 . S
C1636 H1613 0.950 . S
C1636 C1635 1.397 . S
C1636 C1637 1.334 . S
C1637 H1614 0.950 . S
C1637 C1636 1.334 . S
C1637 C1638 1.287 . S
C1638 C1637 1.287 . S
C1638 C1639 1.524 . S
C1638 H1657 0.913 . S
C1639 H1615 0.950 . S
C1639 C1638 1.524 . S
C1639 C1640 1.415 . S
C1640 H1616 0.950 . S
C1640 C1635 1.363 . S
C1640 C1639 1.415 . S
C1641 H1617 0.951 . S
C1641 C1642 1.366 . S
C1641 C1643 1.388 . S
C1642 C1641 1.366 . S
C1642 C1646 1.385 . S
C1643 H1618 0.951 . S
C1643 C1641 1.388 . S
C1643 C1644 1.366 . S
C1644 C1643 1.366 . S
C1644 C1645 1.414 . S
C1644 C1647 1.499 . S
C1645 H1619 0.950 . S
C1645 C1644 1.414 . S
C1645 C1646 1.374 . S
C1646 H1620 0.950 . S
C1646 C1642 1.385 . S
C1646 C1645 1.374 . S
C1647 C1644 1.499 . S
C1647 C1648 1.373 . S
C1647 C1649 1.389 . S
C1648 H1621 0.950 . S
C1648 C1634 1.377 . S
C1648 C1647 1.373 . S
C1649 C1633 1.377 . S
C1649 C1647 1.389 . S
C1649 C1650 1.524 . S
C1650 C1649 1.524 . S
C1650 C1651 1.397 . S
C1650 C1655 1.363 . S
C1651 H1622 0.950 . S
C1651 C1650 1.397 . S
C1651 C1652 1.334 . S
C1652 H1623 0.950 . S
C1652 C1651 1.334 . S
C1652 C1653 1.287 . S
C1653 C1652 1.287 . S
C1653 C1654 1.524 . S
C1653 H1656 0.999 . S
C1654 H1624 0.950 . S
C1654 C1653 1.524 . S
C1654 C1655 1.415 . S
C1655 H1625 0.950 . S
C1655 C1650 1.363 . S
C1655 C1654 1.415 . S
H1656 C1653 0.999 . S
H1657 C1638 0.913 . S
H1658 C1676 0.951 . S
H1659 C1678 0.951 . S
H1660 C1680 0.950 . S
H1661 C1681 0.950 . S
H1662 C1683 0.950 . S
H1663 C1686 0.950 . S
H1664 C1687 0.950 . S
H1665 C1689 0.950 . S
H1666 C1690 0.950 . S
H1667 C1691 0.951 . S
H1668 C1693 0.951 . S
H1669 C1695 0.950 . S
H1670 C1696 0.950 . S
H1671 C1698 0.950 . S
H1672 C1701 0.950 . S
H1673 C1702 0.950 . S
H1674 C1704 0.950 . S
H1675 C1705 0.950 . S
C1676 H1658 0.951 . S
C1676 C1677 1.366 . S
C1676 C1678 1.388 . S
C1677 C1676 1.366 . S
C1677 C1681 1.385 . S
C1678 H1659 0.951 . S
C1678 C1676 1.388 . S
C1678 C1679 1.366 . S
C1679 C1678 1.366 . S
C1679 C1680 1.414 . S
C1679 C1682 1.499 . S
C1680 H1660 0.950 . S
C1680 C1679 1.414 . S
C1680 C1681 1.374 . S
C1681 H1661 0.950 . S
C1681 C1677 1.385 . S
C1681 C1680 1.374 . S
C1682 C1679 1.499 . S
C1682 C1683 1.373 . S
C1682 C1684 1.389 . S
C1683 H1662 0.950 . S
C1683 C1682 1.373 . S
C1683 C1699 1.377 . S
C1684 C1682 1.389 . S
C1684 C1685 1.524 . S
C1684 C1698 1.377 . S
C1685 C1684 1.524 . S
C1685 C1686 1.397 . S
C1685 C1690 1.363 . S
C1686 H1663 0.950 . S
C1686 C1685 1.397 . S
C1686 C1687 1.334 . S
C1687 H1664 0.950 . S
C1687 C1686 1.334 . S
C1687 C1688 1.287 . S
C1688 C1687 1.287 . S
C1688 C1689 1.524 . S
C1688 H1707 0.913 . S
C1689 H1665 0.950 . S
C1689 C1688 1.524 . S
C1689 C1690 1.415 . S
C1690 H1666 0.950 . S
C1690 C1685 1.363 . S
C1690 C1689 1.415 . S
C1691 H1667 0.951 . S
C1691 C1692 1.366 . S
C1691 C1693 1.388 . S
C1692 C1691 1.366 . S
C1692 C1696 1.385 . S
C1693 H1668 0.951 . S
C1693 C1691 1.388 . S
C1693 C1694 1.366 . S
C1694 C1693 1.366 . S
C1694 C1695 1.414 . S
C1694 C1697 1.499 . S
C1695 H1669 0.950 . S
C1695 C1694 1.414 . S
C1695 C1696 1.374 . S
C1696 H1670 0.950 . S
C1696 C1692 1.385 . S
C1696 C1695 1.374 . S
C1697 C1694 1.499 . S
C1697 C1698 1.373 . S
C1697 C1699 1.389 . S
C1698 H1671 0.950 . S
C1698 C1684 1.377 . S
C1698 C1697 1.373 . S
C1699 C1683 1.377 . S
C1699 C1697 1.389 . S
C1699 C1700 1.524 . S
C1700 C1699 1.524 . S
C1700 C1701 1.397 . S
C1700 C1705 1.363 . S
C1701 H1672 0.950 . S
C1701 C1700 1.397 . S
C1701 C1702 1.334 . S
C1702 H1673 0.950 . S
C1702 C1701 1.334 . S
C1702 C1703 1.287 . S
C1703 C1702 1.287 . S
C1703 C1704 1.524 . S
C1703 H1706 0.999 . S
C1704 H1674 0.950 . S
C1704 C1703 1.524 . S
C1704 C1705 1.415 . S
C1705 H1675 0.950 . S
C1705 C1700 1.363 . S
C1705 C1704 1.415 . S
H1706 C1703 0.999 . S
H1707 C1688 0.913 . S
H1708 C1726 0.951 . S
H1709 C1728 0.951 . S
H1710 C1730 0.950 . S
H1711 C1731 0.950 . S
H1712 C1733 0.950 . S
H1713 C1736 0.950 . S
H1714 C1737 0.950 . S
H1715 C1739 0.950 . S
H1716 C1740 0.950 . S
H1717 C1741 0.951 . S
H1718 C1743 0.951 . S
H1719 C1745 0.950 . S
H1720 C1746 0.950 . S
H1721 C1748 0.950 . S
H1722 C1751 0.950 . S
H1723 C1752 0.950 . S
H1724 C1754 0.950 . S
H1725 C1755 0.950 . S
C1726 H1708 0.951 . S
C1726 C1727 1.366 . S
C1726 C1728 1.388 . S
C1727 C1726 1.366 . S
C1727 C1731 1.385 . S
C1728 H1709 0.951 . S
C1728 C1726 1.388 . S
C1728 C1729 1.366 . S
C1729 C1728 1.366 . S
C1729 C1730 1.414 . S
C1729 C1732 1.499 . S
C1730 H1710 0.950 . S
C1730 C1729 1.414 . S
C1730 C1731 1.374 . S
C1731 H1711 0.950 . S
C1731 C1727 1.385 . S
C1731 C1730 1.374 . S
C1732 C1729 1.499 . S
C1732 C1733 1.373 . S
C1732 C1734 1.389 . S
C1733 H1712 0.950 . S
C1733 C1732 1.373 . S
C1733 C1749 1.377 . S
C1734 C1732 1.389 . S
C1734 C1735 1.524 . S
C1734 C1748 1.377 . S
C1735 C1734 1.524 . S
C1735 C1736 1.397 . S
C1735 C1740 1.363 . S
C1736 H1713 0.950 . S
C1736 C1735 1.397 . S
C1736 C1737 1.334 . S
C1737 H1714 0.950 . S
C1737 C1736 1.334 . S
C1737 C1738 1.287 . S
C1738 C1737 1.287 . S
C1738 C1739 1.524 . S
C1738 H1757 0.913 . S
C1739 H1715 0.950 . S
C1739 C1738 1.524 . S
C1739 C1740 1.415 . S
C1740 H1716 0.950 . S
C1740 C1735 1.363 . S
C1740 C1739 1.415 . S
C1741 H1717 0.951 . S
C1741 C1742 1.366 . S
C1741 C1743 1.388 . S
C1742 C1741 1.366 . S
C1742 C1746 1.385 . S
C1743 H1718 0.951 . S
C1743 C1741 1.388 . S
C1743 C1744 1.366 . S
C1744 C1743 1.366 . S
C1744 C1745 1.414 . S
C1744 C1747 1.499 . S
C1745 H1719 0.950 . S
C1745 C1744 1.414 . S
C1745 C1746 1.374 . S
C1746 H1720 0.950 . S
C1746 C1742 1.385 . S
C1746 C1745 1.374 . S
C1747 C1744 1.499 . S
C1747 C1748 1.373 . S
C1747 C1749 1.389 . S
C1748 H1721 0.950 . S
C1748 C1734 1.377 . S
C1748 C1747 1.373 . S
C1749 C1733 1.377 . S
C1749 C1747 1.389 . S
C1749 C1750 1.524 . S
C1750 C1749 1.524 . S
C1750 C1751 1.397 . S
C1750 C1755 1.363 . S
C1751 H1722 0.950 . S
C1751 C1750 1.397 . S
C1751 C1752 1.334 . S
C1752 H1723 0.950 . S
C1752 C1751 1.334 . S
C1752 C1753 1.287 . S
C1753 C1752 1.287 . S
C1753 C1754 1.524 . S
C1753 H1756 0.999 . S
C1754 H1724 0.950 . S
C1754 C1753 1.524 . S
C1754 C1755 1.415 . S
C1755 H1725 0.950 . S
C1755 C1750 1.363 . S
C1755 C1754 1.415 . S
H1756 C1753 0.999 . S
H1757 C1738 0.913 . S
H1758 C1776 0.951 . S
H1759 C1778 0.951 . S
H1760 C1780 0.950 . S
H1761 C1781 0.950 . S
H1762 C1783 0.950 . S
H1763 C1786 0.950 . S
H1764 C1787 0.950 . S
H1765 C1789 0.950 . S
H1766 C1790 0.950 . S
H1767 C1791 0.951 . S
H1768 C1793 0.951 . S
H1769 C1795 0.950 . S
H1770 C1796 0.950 . S
H1771 C1798 0.950 . S
H1772 C1801 0.950 . S
H1773 C1802 0.950 . S
H1774 C1804 0.950 . S
H1775 C1805 0.950 . S
C1776 H1758 0.951 . S
C1776 C1777 1.366 . S
C1776 C1778 1.388 . S
C1777 C1776 1.366 . S
C1777 C1781 1.385 . S
C1778 H1759 0.951 . S
C1778 C1776 1.388 . S
C1778 C1779 1.366 . S
C1779 C1778 1.366 . S
C1779 C1780 1.414 . S
C1779 C1782 1.499 . S
C1780 H1760 0.950 . S
C1780 C1779 1.414 . S
C1780 C1781 1.374 . S
C1781 H1761 0.950 . S
C1781 C1777 1.385 . S
C1781 C1780 1.374 . S
C1782 C1779 1.499 . S
C1782 C1783 1.373 . S
C1782 C1784 1.389 . S
C1783 H1762 0.950 . S
C1783 C1782 1.373 . S
C1783 C1799 1.377 . S
C1784 C1782 1.389 . S
C1784 C1785 1.524 . S
C1784 C1798 1.377 . S
C1785 C1784 1.524 . S
C1785 C1786 1.397 . S
C1785 C1790 1.363 . S
C1786 H1763 0.950 . S
C1786 C1785 1.397 . S
C1786 C1787 1.334 . S
C1787 H1764 0.950 . S
C1787 C1786 1.334 . S
C1787 C1788 1.287 . S
C1788 C1787 1.287 . S
C1788 C1789 1.524 . S
C1788 H1807 0.913 . S
C1789 H1765 0.950 . S
C1789 C1788 1.524 . S
C1789 C1790 1.415 . S
C1790 H1766 0.950 . S
C1790 C1785 1.363 . S
C1790 C1789 1.415 . S
C1791 H1767 0.951 . S
C1791 C1792 1.366 . S
C1791 C1793 1.388 . S
C1792 C1791 1.366 . S
C1792 C1796 1.385 . S
C1793 H1768 0.951 . S
C1793 C1791 1.388 . S
C1793 C1794 1.366 . S
C1794 C1793 1.366 . S
C1794 C1795 1.414 . S
C1794 C1797 1.499 . S
C1795 H1769 0.950 . S
C1795 C1794 1.414 . S
C1795 C1796 1.374 . S
C1796 H1770 0.950 . S
C1796 C1792 1.385 . S
C1796 C1795 1.374 . S
C1797 C1794 1.499 . S
C1797 C1798 1.373 . S
C1797 C1799 1.389 . S
C1798 H1771 0.950 . S
C1798 C1784 1.377 . S
C1798 C1797 1.373 . S
C1799 C1783 1.377 . S
C1799 C1797 1.389 . S
C1799 C1800 1.524 . S
C1800 C1799 1.524 . S
C1800 C1801 1.397 . S
C1800 C1805 1.363 . S
C1801 H1772 0.950 . S
C1801 C1800 1.397 . S
C1801 C1802 1.334 . S
C1802 H1773 0.950 . S
C1802 C1801 1.334 . S
C1802 C1803 1.287 . S
C1803 C1802 1.287 . S
C1803 C1804 1.524 . S
C1803 H1806 0.999 . S
C1804 H1774 0.950 . S
C1804 C1803 1.524 . S
C1804 C1805 1.415 . S
C1805 H1775 0.950 . S
C1805 C1800 1.363 . S
C1805 C1804 1.415 . S
H1806 C1803 0.999 . S
H1807 C1788 0.913 . S
H1808 C1826 0.951 . S
H1809 C1828 0.951 . S
H1810 C1830 0.950 . S
H1811 C1831 0.950 . S
H1812 C1833 0.950 . S
H1813 C1836 0.950 . S
H1814 C1837 0.950 . S
H1815 C1839 0.950 . S
H1816 C1840 0.950 . S
H1817 C1841 0.951 . S
H1818 C1843 0.951 . S
H1819 C1845 0.950 . S
H1820 C1846 0.950 . S
H1821 C1848 0.950 . S
H1822 C1851 0.950 . S
H1823 C1852 0.950 . S
H1824 C1854 0.950 . S
H1825 C1855 0.950 . S
C1826 H1808 0.951 . S
C1826 C1827 1.366 . S
C1826 C1828 1.388 . S
C1827 C1826 1.366 . S
C1827 C1831 1.385 . S
C1828 H1809 0.951 . S
C1828 C1826 1.388 . S
C1828 C1829 1.366 . S
C1829 C1828 1.366 . S
C1829 C1830 1.414 . S
C1829 C1832 1.499 . S
C1830 H1810 0.950 . S
C1830 C1829 1.414 . S
C1830 C1831 1.374 . S
C1831 H1811 0.950 . S
C1831 C1827 1.385 . S
C1831 C1830 1.374 . S
C1832 C1829 1.499 . S
C1832 C1833 1.373 . S
C1832 C1834 1.389 . S
C1833 H1812 0.950 . S
C1833 C1832 1.373 . S
C1833 C1849 1.377 . S
C1834 C1832 1.389 . S
C1834 C1835 1.524 . S
C1834 C1848 1.377 . S
C1835 C1834 1.524 . S
C1835 C1836 1.397 . S
C1835 C1840 1.363 . S
C1836 H1813 0.950 . S
C1836 C1835 1.397 . S
C1836 C1837 1.334 . S
C1837 H1814 0.950 . S
C1837 C1836 1.334 . S
C1837 C1838 1.287 . S
C1838 C1837 1.287 . S
C1838 C1839 1.524 . S
C1838 H1857 0.913 . S
C1839 H1815 0.950 . S
C1839 C1838 1.524 . S
C1839 C1840 1.415 . S
C1840 H1816 0.950 . S
C1840 C1835 1.363 . S
C1840 C1839 1.415 . S
C1841 H1817 0.951 . S
C1841 C1842 1.366 . S
C1841 C1843 1.388 . S
C1842 C1841 1.366 . S
C1842 C1846 1.385 . S
C1843 H1818 0.951 . S
C1843 C1841 1.388 . S
C1843 C1844 1.366 . S
C1844 C1843 1.366 . S
C1844 C1845 1.414 . S
C1844 C1847 1.499 . S
C1845 H1819 0.950 . S
C1845 C1844 1.414 . S
C1845 C1846 1.374 . S
C1846 H1820 0.950 . S
C1846 C1842 1.385 . S
C1846 C1845 1.374 . S
C1847 C1844 1.499 . S
C1847 C1848 1.373 . S
C1847 C1849 1.389 . S
C1848 H1821 0.950 . S
C1848 C1834 1.377 . S
C1848 C1847 1.373 . S
C1849 C1833 1.377 . S
C1849 C1847 1.389 . S
C1849 C1850 1.524 . S
C1850 C1849 1.524 . S
C1850 C1851 1.397 . S
C1850 C1855 1.363 . S
C1851 H1822 0.950 . S
C1851 C1850 1.397 . S
C1851 C1852 1.334 . S
C1852 H1823 0.950 . S
C1852 C1851 1.334 . S
C1852 C1853 1.287 . S
C1853 C1852 1.287 . S
C1853 C1854 1.524 . S
C1853 H1856 0.999 . S
C1854 H1824 0.950 . S
C1854 C1853 1.524 . S
C1854 C1855 1.415 . S
C1855 H1825 0.950 . S
C1855 C1850 1.363 . S
C1855 C1854 1.415 . S
H1856 C1853 0.999 . S
H1857 C1838 0.913 . S
H1858 C1876 0.951 . S
H1859 C1878 0.951 . S
H1860 C1880 0.950 . S
H1861 C1881 0.950 . S
H1862 C1883 0.950 . S
H1863 C1886 0.950 . S
H1864 C1887 0.950 . S
H1865 C1889 0.950 . S
H1866 C1890 0.950 . S
H1867 C1891 0.951 . S
H1868 C1893 0.951 . S
H1869 C1895 0.950 . S
H1870 C1896 0.950 . S
H1871 C1898 0.950 . S
H1872 C1901 0.950 . S
H1873 C1902 0.950 . S
H1874 C1904 0.950 . S
H1875 C1905 0.950 . S
C1876 H1858 0.951 . S
C1876 C1877 1.366 . S
C1876 C1878 1.388 . S
C1877 C1876 1.366 . S
C1877 C1881 1.385 . S
C1878 H1859 0.951 . S
C1878 C1876 1.388 . S
C1878 C1879 1.366 . S
C1879 C1878 1.366 . S
C1879 C1880 1.414 . S
C1879 C1882 1.499 . S
C1880 H1860 0.950 . S
C1880 C1879 1.414 . S
C1880 C1881 1.374 . S
C1881 H1861 0.950 . S
C1881 C1877 1.385 . S
C1881 C1880 1.374 . S
C1882 C1879 1.499 . S
C1882 C1883 1.373 . S
C1882 C1884 1.389 . S
C1883 H1862 0.950 . S
C1883 C1882 1.373 . S
C1883 C1899 1.377 . S
C1884 C1882 1.389 . S
C1884 C1885 1.524 . S
C1884 C1898 1.377 . S
C1885 C1884 1.524 . S
C1885 C1886 1.397 . S
C1885 C1890 1.363 . S
C1886 H1863 0.950 . S
C1886 C1885 1.397 . S
C1886 C1887 1.334 . S
C1887 H1864 0.950 . S
C1887 C1886 1.334 . S
C1887 C1888 1.287 . S
C1888 C1887 1.287 . S
C1888 C1889 1.524 . S
C1888 H1907 0.913 . S
C1889 H1865 0.950 . S
C1889 C1888 1.524 . S
C1889 C1890 1.415 . S
C1890 H1866 0.950 . S
C1890 C1885 1.363 . S
C1890 C1889 1.415 . S
C1891 H1867 0.951 . S
C1891 C1892 1.366 . S
C1891 C1893 1.388 . S
C1892 C1891 1.366 . S
C1892 C1896 1.385 . S
C1893 H1868 0.951 . S
C1893 C1891 1.388 . S
C1893 C1894 1.366 . S
C1894 C1893 1.366 . S
C1894 C1895 1.414 . S
C1894 C1897 1.499 . S
C1895 H1869 0.950 . S
C1895 C1894 1.414 . S
C1895 C1896 1.374 . S
C1896 H1870 0.950 . S
C1896 C1892 1.385 . S
C1896 C1895 1.374 . S
C1897 C1894 1.499 . S
C1897 C1898 1.373 . S
C1897 C1899 1.389 . S
C1898 H1871 0.950 . S
C1898 C1884 1.377 . S
C1898 C1897 1.373 . S
C1899 C1883 1.377 . S
C1899 C1897 1.389 . S
C1899 C1900 1.524 . S
C1900 C1899 1.524 . S
C1900 C1901 1.397 . S
C1900 C1905 1.363 . S
C1901 H1872 0.950 . S
C1901 C1900 1.397 . S
C1901 C1902 1.334 . S
C1902 H1873 0.950 . S
C1902 C1901 1.334 . S
C1902 C1903 1.287 . S
C1903 C1902 1.287 . S
C1903 C1904 1.524 . S
C1903 H1906 0.999 . S
C1904 H1874 0.950 . S
C1904 C1903 1.524 . S
C1904 C1905 1.415 . S
C1905 H1875 0.950 . S
C1905 C1900 1.363 . S
C1905 C1904 1.415 . S
H1906 C1903 0.999 . S
H1907 C1888 0.913 . S
C427 C2 1.959 . S
C442 C104 1.963 . S
C477 C138 1.959 . S
C492 C36 1.963 . S
C527 C172 1.963 . S
C542 C70 1.959 . S
C577 C308 2.013 . S
C592 C209 2.131 . S
C627 C345 2.132 . S
C642 C240 2.014 . S
C677 C277 2.132 . S
C692 C376 2.014 . S
C727 C33 0.616 . S
C742 C190 0.610 . S
C777 C20 0.344 . S
C792 C67 0.401 . S
C827 C101 0.616 . S
C842 C54 0.610 . S
C877 C88 0.343 . S
C892 C135 0.399 . S
C927 C122 0.609 . S
C942 C169 0.616 . S
C977 C156 0.344 . S
C992 C203 0.401 . S
C1027 C258 0.216 . S
C1042 C237 0.268 . S
C1077 C281 0.563 . S
C1092 C271 0.386 . S
C1127 C326 0.214 . S
C1142 C305 0.268 . S
C1177 C339 0.387 . S
C1192 C349 0.564 . S
C1227 C373 0.267 . S
C1242 C394 0.214 . S
C1277 C407 0.386 . S
C1292 C213 0.563 . S
C1327 C292 1.958 . S
C1342 C5 1.936 . S
C1377 C39 1.440 . S
C1392 C311 1.442 . S
C1427 C73 1.935 . S
C1442 C360 1.958 . S
C1477 C107 1.440 . S
C1492 C379 1.442 . S
C1527 C224 1.958 . S
C1542 C141 1.935 . S
C1577 C175 1.440 . S
C1592 C243 1.442 . S
C1627 C383 0.873 . S
C1642 C111 0.870 . S
C1677 C206 2.428 . S
C1692 C145 2.316 . S
C1727 C247 0.873 . S
C1742 C179 0.871 . S
C1777 C9 2.317 . S
C1792 C274 2.428 . S
C1827 C43 0.872 . S
C1842 C315 0.873 . S
C1877 C77 2.317 . S
C1892 C342 2.428 . S
