# Generated by pormake.
# Topology uli, (4)-cn, num edge types: 1
# Building blocks:
#     Node 0, Type 0, BuildingBlock: GALJAG_clean_sbu_0, # of connection points: 4
#     Node 1, Type 0, BuildingBlock: GALJAG_clean_sbu_0, # of connection points: 4
#     Node 2, Type 0, BuildingBlock: GALJAG_clean_sbu_0, # of connection points: 4
#     Node 3, Type 0, BuildingBlock: GALJAG_clean_sbu_0, # of connection points: 4
#     Node 4, Type 0, BuildingBlock: GALJAG_clean_sbu_0, # of connection points: 4
#     Node 5, Type 0, BuildingBlock: GALJAG_clean_sbu_0, # of connection points: 4
#     Node 6, Type 0, BuildingBlock: GALJAG_clean_sbu_0, # of connection points: 4
#     Node 7, Type 0, BuildingBlock: GALJAG_clean_sbu_0, # of connection points: 4
#     Node 8, Type 0, BuildingBlock: GALJAG_clean_sbu_0, # of connection points: 4
#     Node 9, Type 0, BuildingBlock: GALJAG_clean_sbu_0, # of connection points: 4
#     Node 10, Type 0, BuildingBlock: GALJAG_clean_sbu_0, # of connection points: 4
#     Node 11, Type 0, BuildingBlock: GALJAG_clean_sbu_0, # of connection points: 4
#     Node 12, Type 0, BuildingBlock: GALJAG_clean_sbu_0, # of connection points: 4
#     Node 13, Type 0, BuildingBlock: GALJAG_clean_sbu_0, # of connection points: 4
#     Node 14, Type 0, BuildingBlock: GALJAG_clean_sbu_0, # of connection points: 4
#     Node 15, Type 0, BuildingBlock: GALJAG_clean_sbu_0, # of connection points: 4
#     Node 16, Type 0, BuildingBlock: GALJAG_clean_sbu_0, # of connection points: 4
#     Node 17, Type 0, BuildingBlock: GALJAG_clean_sbu_0, # of connection points: 4
#     Node 18, Type 0, BuildingBlock: GALJAG_clean_sbu_0, # of connection points: 4
#     Node 19, Type 0, BuildingBlock: GALJAG_clean_sbu_0, # of connection points: 4
#     Node 20, Type 0, BuildingBlock: GALJAG_clean_sbu_0, # of connection points: 4
#     Node 21, Type 0, BuildingBlock: GALJAG_clean_sbu_0, # of connection points: 4
#     Node 22, Type 0, BuildingBlock: GALJAG_clean_sbu_0, # of connection points: 4
#     Node 23, Type 0, BuildingBlock: GALJAG_clean_sbu_0, # of connection points: 4
#     Node 24, Type 0, BuildingBlock: GALJAG_clean_sbu_0, # of connection points: 4
#     Node 25, Type 0, BuildingBlock: GALJAG_clean_sbu_0, # of connection points: 4
#     Node 26, Type 0, BuildingBlock: GALJAG_clean_sbu_0, # of connection points: 4
#     Node 27, Type 0, BuildingBlock: GALJAG_clean_sbu_0, # of connection points: 4
#     Node 28, Type 0, BuildingBlock: GALJAG_clean_sbu_0, # of connection points: 4
#     Node 29, Type 0, BuildingBlock: GALJAG_clean_sbu_0, # of connection points: 4
#     Node 30, Type 0, BuildingBlock: GALJAG_clean_sbu_0, # of connection points: 4
#     Node 31, Type 0, BuildingBlock: GALJAG_clean_sbu_0, # of connection points: 4
#     Node 32, Type 0, BuildingBlock: GALJAG_clean_sbu_0, # of connection points: 4
#     Node 33, Type 0, BuildingBlock: GALJAG_clean_sbu_0, # of connection points: 4
#     Node 34, Type 0, BuildingBlock: GALJAG_clean_sbu_0, # of connection points: 4
#     Node 35, Type 0, BuildingBlock: GALJAG_clean_sbu_0, # of connection points: 4
#     Node 36, Type 0, BuildingBlock: GALJAG_clean_sbu_0, # of connection points: 4
#     Node 37, Type 0, BuildingBlock: GALJAG_clean_sbu_0, # of connection points: 4
#     Node 38, Type 0, BuildingBlock: GALJAG_clean_sbu_0, # of connection points: 4
#     Node 39, Type 0, BuildingBlock: GALJAG_clean_sbu_0, # of connection points: 4
#     Node 40, Type 0, BuildingBlock: GALJAG_clean_sbu_0, # of connection points: 4
#     Node 41, Type 0, BuildingBlock: GALJAG_clean_sbu_0, # of connection points: 4
#     Node 42, Type 0, BuildingBlock: GALJAG_clean_sbu_0, # of connection points: 4
#     Node 43, Type 0, BuildingBlock: GALJAG_clean_sbu_0, # of connection points: 4
#     Node 44, Type 0, BuildingBlock: GALJAG_clean_sbu_0, # of connection points: 4
#     Node 45, Type 0, BuildingBlock: GALJAG_clean_sbu_0, # of connection points: 4
#     Node 46, Type 0, BuildingBlock: GALJAG_clean_sbu_0, # of connection points: 4
#     Node 47, Type 0, BuildingBlock: GALJAG_clean_sbu_0, # of connection points: 4
#     Edge 48, Type (0, 0), BuildingBlock: UVAHIK_clean_linker_0, # of connection points: 2
#     Edge 49, Type (0, 0), BuildingBlock: UVAHIK_clean_linker_0, # of connection points: 2
#     Edge 50, Type (0, 0), BuildingBlock: UVAHIK_clean_linker_0, # of connection points: 2
#     Edge 51, Type (0, 0), BuildingBlock: UVAHIK_clean_linker_0, # of connection points: 2
#     Edge 52, Type (0, 0), BuildingBlock: UVAHIK_clean_linker_0, # of connection points: 2
#     Edge 53, Type (0, 0), BuildingBlock: UVAHIK_clean_linker_0, # of connection points: 2
#     Edge 54, Type (0, 0), BuildingBlock: UVAHIK_clean_linker_0, # of connection points: 2
#     Edge 55, Type (0, 0), BuildingBlock: UVAHIK_clean_linker_0, # of connection points: 2
#     Edge 56, Type (0, 0), BuildingBlock: UVAHIK_clean_linker_0, # of connection points: 2
#     Edge 57, Type (0, 0), BuildingBlock: UVAHIK_clean_linker_0, # of connection points: 2
#     Edge 58, Type (0, 0), BuildingBlock: UVAHIK_clean_linker_0, # of connection points: 2
#     Edge 59, Type (0, 0), BuildingBlock: UVAHIK_clean_linker_0, # of connection points: 2
#     Edge 60, Type (0, 0), BuildingBlock: UVAHIK_clean_linker_0, # of connection points: 2
#     Edge 61, Type (0, 0), BuildingBlock: UVAHIK_clean_linker_0, # of connection points: 2
#     Edge 62, Type (0, 0), BuildingBlock: UVAHIK_clean_linker_0, # of connection points: 2
#     Edge 63, Type (0, 0), BuildingBlock: UVAHIK_clean_linker_0, # of connection points: 2
#     Edge 64, Type (0, 0), BuildingBlock: UVAHIK_clean_linker_0, # of connection points: 2
#     Edge 65, Type (0, 0), BuildingBlock: UVAHIK_clean_linker_0, # of connection points: 2
#     Edge 66, Type (0, 0), BuildingBlock: UVAHIK_clean_linker_0, # of connection points: 2
#     Edge 67, Type (0, 0), BuildingBlock: UVAHIK_clean_linker_0, # of connection points: 2
#     Edge 68, Type (0, 0), BuildingBlock: UVAHIK_clean_linker_0, # of connection points: 2
#     Edge 69, Type (0, 0), BuildingBlock: UVAHIK_clean_linker_0, # of connection points: 2
#     Edge 70, Type (0, 0), BuildingBlock: UVAHIK_clean_linker_0, # of connection points: 2
#     Edge 71, Type (0, 0), BuildingBlock: UVAHIK_clean_linker_0, # of connection points: 2
#     Edge 72, Type (0, 0), BuildingBlock: UVAHIK_clean_linker_0, # of connection points: 2
#     Edge 73, Type (0, 0), BuildingBlock: UVAHIK_clean_linker_0, # of connection points: 2
#     Edge 74, Type (0, 0), BuildingBlock: UVAHIK_clean_linker_0, # of connection points: 2
#     Edge 75, Type (0, 0), BuildingBlock: UVAHIK_clean_linker_0, # of connection points: 2
#     Edge 76, Type (0, 0), BuildingBlock: UVAHIK_clean_linker_0, # of connection points: 2
#     Edge 77, Type (0, 0), BuildingBlock: UVAHIK_clean_linker_0, # of connection points: 2
#     Edge 78, Type (0, 0), BuildingBlock: UVAHIK_clean_linker_0, # of connection points: 2
#     Edge 79, Type (0, 0), BuildingBlock: UVAHIK_clean_linker_0, # of connection points: 2
#     Edge 80, Type (0, 0), BuildingBlock: UVAHIK_clean_linker_0, # of connection points: 2
#     Edge 81, Type (0, 0), BuildingBlock: UVAHIK_clean_linker_0, # of connection points: 2
#     Edge 82, Type (0, 0), BuildingBlock: UVAHIK_clean_linker_0, # of connection points: 2
#     Edge 83, Type (0, 0), BuildingBlock: UVAHIK_clean_linker_0, # of connection points: 2
#     Edge 84, Type (0, 0), BuildingBlock: UVAHIK_clean_linker_0, # of connection points: 2
#     Edge 85, Type (0, 0), BuildingBlock: UVAHIK_clean_linker_0, # of connection points: 2
#     Edge 86, Type (0, 0), BuildingBlock: UVAHIK_clean_linker_0, # of connection points: 2
#     Edge 87, Type (0, 0), BuildingBlock: UVAHIK_clean_linker_0, # of connection points: 2
#     Edge 88, Type (0, 0), BuildingBlock: UVAHIK_clean_linker_0, # of connection points: 2
#     Edge 89, Type (0, 0), BuildingBlock: UVAHIK_clean_linker_0, # of connection points: 2
#     Edge 90, Type (0, 0), BuildingBlock: UVAHIK_clean_linker_0, # of connection points: 2
#     Edge 91, Type (0, 0), BuildingBlock: UVAHIK_clean_linker_0, # of connection points: 2
#     Edge 92, Type (0, 0), BuildingBlock: UVAHIK_clean_linker_0, # of connection points: 2
#     Edge 93, Type (0, 0), BuildingBlock: UVAHIK_clean_linker_0, # of connection points: 2
#     Edge 94, Type (0, 0), BuildingBlock: UVAHIK_clean_linker_0, # of connection points: 2
#     Edge 95, Type (0, 0), BuildingBlock: UVAHIK_clean_linker_0, # of connection points: 2
#     Edge 96, Type (0, 0), BuildingBlock: UVAHIK_clean_linker_0, # of connection points: 2
#     Edge 97, Type (0, 0), BuildingBlock: UVAHIK_clean_linker_0, # of connection points: 2
#     Edge 98, Type (0, 0), BuildingBlock: UVAHIK_clean_linker_0, # of connection points: 2
#     Edge 99, Type (0, 0), BuildingBlock: UVAHIK_clean_linker_0, # of connection points: 2
#     Edge 100, Type (0, 0), BuildingBlock: UVAHIK_clean_linker_0, # of connection points: 2
#     Edge 101, Type (0, 0), BuildingBlock: UVAHIK_clean_linker_0, # of connection points: 2
#     Edge 102, Type (0, 0), BuildingBlock: UVAHIK_clean_linker_0, # of connection points: 2
#     Edge 103, Type (0, 0), BuildingBlock: UVAHIK_clean_linker_0, # of connection points: 2
#     Edge 104, Type (0, 0), BuildingBlock: UVAHIK_clean_linker_0, # of connection points: 2
#     Edge 105, Type (0, 0), BuildingBlock: UVAHIK_clean_linker_0, # of connection points: 2
#     Edge 106, Type (0, 0), BuildingBlock: UVAHIK_clean_linker_0, # of connection points: 2
#     Edge 107, Type (0, 0), BuildingBlock: UVAHIK_clean_linker_0, # of connection points: 2
#     Edge 108, Type (0, 0), BuildingBlock: UVAHIK_clean_linker_0, # of connection points: 2
#     Edge 109, Type (0, 0), BuildingBlock: UVAHIK_clean_linker_0, # of connection points: 2
#     Edge 110, Type (0, 0), BuildingBlock: UVAHIK_clean_linker_0, # of connection points: 2
#     Edge 111, Type (0, 0), BuildingBlock: UVAHIK_clean_linker_0, # of connection points: 2
#     Edge 112, Type (0, 0), BuildingBlock: UVAHIK_clean_linker_0, # of connection points: 2
#     Edge 113, Type (0, 0), BuildingBlock: UVAHIK_clean_linker_0, # of connection points: 2
#     Edge 114, Type (0, 0), BuildingBlock: UVAHIK_clean_linker_0, # of connection points: 2
#     Edge 115, Type (0, 0), BuildingBlock: UVAHIK_clean_linker_0, # of connection points: 2
#     Edge 116, Type (0, 0), BuildingBlock: UVAHIK_clean_linker_0, # of connection points: 2
#     Edge 117, Type (0, 0), BuildingBlock: UVAHIK_clean_linker_0, # of connection points: 2
#     Edge 118, Type (0, 0), BuildingBlock: UVAHIK_clean_linker_0, # of connection points: 2
#     Edge 119, Type (0, 0), BuildingBlock: UVAHIK_clean_linker_0, # of connection points: 2
#     Edge 120, Type (0, 0), BuildingBlock: UVAHIK_clean_linker_0, # of connection points: 2
#     Edge 121, Type (0, 0), BuildingBlock: UVAHIK_clean_linker_0, # of connection points: 2
#     Edge 122, Type (0, 0), BuildingBlock: UVAHIK_clean_linker_0, # of connection points: 2
#     Edge 123, Type (0, 0), BuildingBlock: UVAHIK_clean_linker_0, # of connection points: 2
#     Edge 124, Type (0, 0), BuildingBlock: UVAHIK_clean_linker_0, # of connection points: 2
#     Edge 125, Type (0, 0), BuildingBlock: UVAHIK_clean_linker_0, # of connection points: 2
#     Edge 126, Type (0, 0), BuildingBlock: UVAHIK_clean_linker_0, # of connection points: 2
#     Edge 127, Type (0, 0), BuildingBlock: UVAHIK_clean_linker_0, # of connection points: 2
#     Edge 128, Type (0, 0), BuildingBlock: UVAHIK_clean_linker_0, # of connection points: 2
#     Edge 129, Type (0, 0), BuildingBlock: UVAHIK_clean_linker_0, # of connection points: 2
#     Edge 130, Type (0, 0), BuildingBlock: UVAHIK_clean_linker_0, # of connection points: 2
#     Edge 131, Type (0, 0), BuildingBlock: UVAHIK_clean_linker_0, # of connection points: 2
#     Edge 132, Type (0, 0), BuildingBlock: UVAHIK_clean_linker_0, # of connection points: 2
#     Edge 133, Type (0, 0), BuildingBlock: UVAHIK_clean_linker_0, # of connection points: 2
#     Edge 134, Type (0, 0), BuildingBlock: UVAHIK_clean_linker_0, # of connection points: 2
#     Edge 135, Type (0, 0), BuildingBlock: UVAHIK_clean_linker_0, # of connection points: 2
#     Edge 136, Type (0, 0), BuildingBlock: UVAHIK_clean_linker_0, # of connection points: 2
#     Edge 137, Type (0, 0), BuildingBlock: UVAHIK_clean_linker_0, # of connection points: 2
#     Edge 138, Type (0, 0), BuildingBlock: UVAHIK_clean_linker_0, # of connection points: 2
#     Edge 139, Type (0, 0), BuildingBlock: UVAHIK_clean_linker_0, # of connection points: 2
#     Edge 140, Type (0, 0), BuildingBlock: UVAHIK_clean_linker_0, # of connection points: 2
#     Edge 141, Type (0, 0), BuildingBlock: UVAHIK_clean_linker_0, # of connection points: 2
#     Edge 142, Type (0, 0), BuildingBlock: UVAHIK_clean_linker_0, # of connection points: 2
#     Edge 143, Type (0, 0), BuildingBlock: UVAHIK_clean_linker_0, # of connection points: 2
# Relax obj value: 0.561
# Max RMSD: 0.175
# Mean RMSD: 0.175
data_MOF--net-uli--node1-GALJAG_clean_sbu_0--edge1-UVAHIK_clean_linker_0
_symmetry_space_group_name_H-M    P1
_symmetry_Int_Tables_number       1
_symmetry_cell_setting            triclinic
loop_
_symmetry_equiv_pos_as_xyz
'x, y, z'
_cell_length_a     85.226153
_cell_length_b     85.203739
_cell_length_c     85.205706
_cell_angle_alpha  89.994068
_cell_angle_beta   89.999615
_cell_angle_gamma 89.994266
loop_
_atom_site_label
_atom_site_type_symbol
_atom_site_fract_x
_atom_site_fract_y
_atom_site_fract_z
_atom_type_partial_charge
In0 In 0.09337 0.27106 0.20303 0.0
O1 O 0.09699 0.2899 0.22135 0.0
O2 O 0.09038 0.2973 0.19837 0.0
C3 C 0.10453 0.24658 0.21976 0.0
C4 C 0.06286 0.26295 0.20394 0.0
C5 C 0.11367 0.27232 0.17889 0.0
O6 O 0.1058 0.26057 0.22444 0.0
O7 O 0.09798 0.24505 0.2066 0.0
O8 O 0.09909 0.27059 0.17673 0.0
O9 O 0.1178 0.27344 0.19306 0.0
C10 C 0.09405 0.3012 0.21222 0.0
O11 O 0.07145 0.25969 0.19231 0.0
O12 O 0.06942 0.2712 0.21431 0.0
In13 In 0.72526 0.09055 0.21352 0.0
O14 O 0.70538 0.08631 0.23092 0.0
O15 O 0.69932 0.08896 0.20693 0.0
C16 C 0.74454 0.09662 0.23807 0.0
C17 C 0.73857 0.0643 0.20213 0.0
C18 C 0.72785 0.11601 0.19478 0.0
O19 O 0.73357 0.10571 0.23407 0.0
O20 O 0.74533 0.08418 0.23015 0.0
O21 O 0.7264 0.10237 0.18918 0.0
O22 O 0.72792 0.11662 0.20953 0.0
C23 C 0.69459 0.08708 0.22082 0.0
O24 O 0.74409 0.07782 0.1996 0.0
O25 O 0.72577 0.06413 0.20963 0.0
In26 In 0.90183 0.71934 0.20472 0.0
O27 O 0.92243 0.73024 0.19124 0.0
O28 O 0.92672 0.72049 0.21374 0.0
C29 C 0.88435 0.71939 0.17824 0.0
C30 C 0.90267 0.69037 0.21708 0.0
C31 C 0.88681 0.74056 0.22305 0.0
O32 O 0.89259 0.73097 0.18238 0.0
O33 O 0.88552 0.70758 0.18706 0.0
O34 O 0.88014 0.72843 0.21785 0.0
O35 O 0.90101 0.74178 0.21928 0.0
C36 C 0.93212 0.72801 0.20222 0.0
O37 O 0.89856 0.70232 0.22483 0.0
O38 O 0.90665 0.69305 0.20303 0.0
In39 In 0.26962 0.90349 0.19133 0.0
O40 O 0.26442 0.92807 0.18151 0.0
O41 O 0.27391 0.92624 0.20435 0.0
C42 C 0.27103 0.88947 0.16293 0.0
C43 C 0.29345 0.88921 0.20607 0.0
C44 C 0.24331 0.89622 0.20748 0.0
O45 O 0.25853 0.89105 0.17062 0.0
O46 O 0.28298 0.89548 0.16926 0.0
O47 O 0.25687 0.89486 0.21321 0.0
O48 O 0.24298 0.90109 0.19352 0.0
C49 C 0.26828 0.93505 0.19396 0.0
O50 O 0.27992 0.88326 0.20485 0.0
O51 O 0.29519 0.90235 0.19934 0.0
In52 In 0.08943 0.72516 0.80359 0.0
O53 O 0.06997 0.74177 0.81146 0.0
O54 O 0.0633 0.71918 0.80375 0.0
C55 C 0.10929 0.72137 0.82783 0.0
C56 C 0.09204 0.69781 0.78811 0.0
C57 C 0.10056 0.74981 0.78698 0.0
O58 O 0.09502 0.72488 0.82992 0.0
O59 O 0.11323 0.71947 0.8137 0.0
O60 O 0.10271 0.74822 0.80151 0.0
O61 O 0.09303 0.73876 0.78064 0.0
C62 C 0.05891 0.73257 0.80818 0.0
O63 O 0.09189 0.71094 0.78122 0.0
O64 O 0.09062 0.69844 0.80286 0.0
In65 In 0.2788 0.10001 0.78468 0.0
O66 O 0.29777 0.10199 0.76619 0.0
O67 O 0.30472 0.09489 0.78915 0.0
C68 C 0.2542 0.11289 0.76948 0.0
C69 C 0.2693 0.07 0.78353 0.0
C70 C 0.2806 0.12046 0.80865 0.0
O71 O 0.26816 0.11506 0.76501 0.0
O72 O 0.2528 0.10444 0.78152 0.0
O73 O 0.27655 0.10633 0.81074 0.0
O74 O 0.28394 0.12399 0.79468 0.0
C75 C 0.30884 0.09816 0.77528 0.0
O76 O 0.26935 0.07765 0.79625 0.0
O77 O 0.27494 0.07723 0.77191 0.0
In78 In 0.90575 0.27258 0.78357 0.0
O79 O 0.91222 0.29038 0.76465 0.0
O80 O 0.91022 0.29859 0.78807 0.0
C81 C 0.89602 0.25369 0.75997 0.0
C82 C 0.93013 0.2566 0.79576 0.0
C83 C 0.88192 0.27506 0.80425 0.0
O84 O 0.88672 0.26155 0.76834 0.0
O85 O 0.91031 0.25577 0.76309 0.0
O86 O 0.89509 0.26942 0.80805 0.0
O87 O 0.88096 0.27964 0.79022 0.0
C88 C 0.91259 0.30196 0.77386 0.0
O89 O 0.9164 0.2511 0.79513 0.0
O90 O 0.93143 0.27059 0.79098 0.0
In91 In 0.72787 0.90652 0.78788 0.0
O92 O 0.74397 0.92054 0.80385 0.0
O93 O 0.72708 0.9331 0.79042 0.0
C94 C 0.72916 0.88063 0.8061 0.0
C95 C 0.69761 0.90988 0.77924 0.0
C96 C 0.74913 0.90079 0.76495 0.0
O97 O 0.72757 0.89419 0.81188 0.0
O98 O 0.73007 0.88028 0.79136 0.0
O99 O 0.7358 0.89437 0.76516 0.0
O100 O 0.75151 0.91029 0.77599 0.0
C101 C 0.73855 0.93372 0.79979 0.0
O102 O 0.70888 0.91275 0.77007 0.0
O103 O 0.70163 0.90587 0.79291 0.0
In104 In 0.20685 0.09478 0.27656 0.0
O105 O 0.22884 0.09221 0.29142 0.0
O106 O 0.20676 0.09128 0.30308 0.0
C107 C 0.22623 0.10908 0.25578 0.0
C108 C 0.19969 0.06607 0.26558 0.0
C109 C 0.18132 0.11344 0.27909 0.0
O110 O 0.21853 0.11652 0.26596 0.0
O111 O 0.22452 0.09443 0.25634 0.0
O112 O 0.18143 0.10129 0.27065 0.0
O113 O 0.19381 0.11577 0.28663 0.0
C114 C 0.22154 0.09099 0.30425 0.0
O115 O 0.1972 0.07845 0.25785 0.0
O116 O 0.20484 0.06827 0.27929 0.0
In117 In 0.90232 0.19959 0.27773 0.0
O118 O 0.92155 0.18497 0.26593 0.0
O119 O 0.92844 0.20319 0.28138 0.0
C120 C 0.87863 0.17878 0.28016 0.0
C121 C 0.90193 0.21283 0.30634 0.0
C122 C 0.89536 0.21672 0.25196 0.0
O123 O 0.89283 0.17463 0.28116 0.0
O124 O 0.87654 0.19326 0.27794 0.0
O125 O 0.89355 0.22201 0.26567 0.0
O126 O 0.90047 0.20288 0.25133 0.0
C127 C 0.93266 0.19274 0.27183 0.0
O128 O 0.90327 0.22075 0.29388 0.0
O129 O 0.90107 0.19815 0.30439 0.0
In130 In 0.78461 0.90321 0.27269 0.0
O131 O 0.76608 0.90729 0.29157 0.0
O132 O 0.78907 0.90099 0.29894 0.0
C133 C 0.76391 0.89941 0.24891 0.0
C134 C 0.79635 0.93153 0.26517 0.0
C135 C 0.80192 0.8768 0.27064 0.0
O136 O 0.76159 0.89364 0.26235 0.0
O137 O 0.77636 0.90723 0.24767 0.0
O138 O 0.80814 0.89008 0.27288 0.0
O139 O 0.78719 0.87699 0.26951 0.0
C140 C 0.77511 0.90405 0.30286 0.0
O141 O 0.80233 0.91888 0.26032 0.0
O142 O 0.78511 0.92984 0.27468 0.0
In143 In 0.08905 0.79932 0.27169 0.0
O144 O 0.07247 0.80869 0.2531 0.0
O145 O 0.06265 0.80216 0.27507 0.0
C146 C 0.10851 0.82431 0.2708 0.0
C147 C 0.08696 0.7879 0.30107 0.0
C148 C 0.10135 0.77744 0.25212 0.0
O149 O 0.09582 0.8239 0.2632 0.0
O150 O 0.11107 0.81239 0.27915 0.0
O151 O 0.10969 0.78624 0.26056 0.0
O152 O 0.08682 0.77937 0.25383 0.0
C153 C 0.06025 0.80692 0.26123 0.0
O154 O 0.08666 0.77922 0.28907 0.0
O155 O 0.08772 0.80243 0.29824 0.0
In156 In 0.20187 0.90455 0.7265 0.0
O157 O 0.18916 0.92335 0.74077 0.0
O158 O 0.20296 0.93069 0.7214 0.0
C159 C 0.18009 0.88159 0.72727 0.0
C160 C 0.21301 0.90436 0.69699 0.0
C161 C 0.22245 0.89693 0.74947 0.0
O162 O 0.17633 0.89589 0.72607 0.0
O163 O 0.19463 0.87906 0.72796 0.0
O164 O 0.22444 0.89293 0.73537 0.0
O165 O 0.21023 0.90486 0.75191 0.0
C166 C 0.19461 0.93466 0.73294 0.0
O167 O 0.22144 0.90772 0.70871 0.0
O168 O 0.1988 0.90147 0.70012 0.0
In169 In 0.08929 0.21228 0.72817 0.0
O170 O 0.07718 0.198 0.74714 0.0
O171 O 0.06355 0.20521 0.72749 0.0
C172 C 0.11438 0.19296 0.72679 0.0
C173 C 0.08375 0.22255 0.69874 0.0
C174 C 0.09653 0.23519 0.74906 0.0
O175 O 0.10107 0.18822 0.73123 0.0
O176 O 0.11488 0.20721 0.72293 0.0
O177 O 0.10631 0.22964 0.73949 0.0
O178 O 0.08292 0.22963 0.74775 0.0
C179 C 0.06384 0.19849 0.74071 0.0
O180 O 0.08296 0.23144 0.71055 0.0
O181 O 0.08667 0.20838 0.70186 0.0
In182 In 0.79364 0.09459 0.72728 0.0
O183 O 0.80843 0.07803 0.7422 0.0
O184 O 0.79051 0.06806 0.72804 0.0
C185 C 0.81392 0.11864 0.72359 0.0
C186 C 0.78274 0.09143 0.69781 0.0
C187 C 0.77461 0.10398 0.75083 0.0
O188 O 0.8184 0.10451 0.72343 0.0
O189 O 0.7994 0.12048 0.72566 0.0
O190 O 0.77045 0.10459 0.73662 0.0
O191 O 0.78824 0.09874 0.75304 0.0
C192 C 0.80103 0.06586 0.73822 0.0
O193 O 0.77381 0.09271 0.70958 0.0
O194 O 0.79722 0.09115 0.701 0.0
In195 In 0.8969 0.7877 0.71813 0.0
O196 O 0.89174 0.76848 0.70052 0.0
O197 O 0.90041 0.79025 0.69173 0.0
C198 C 0.88742 0.77322 0.74464 0.0
C199 C 0.92769 0.78794 0.72501 0.0
C200 C 0.87593 0.81118 0.7156 0.0
O201 O 0.88656 0.76667 0.73137 0.0
O202 O 0.8927 0.78703 0.74438 0.0
O203 O 0.89052 0.81377 0.71648 0.0
O204 O 0.87211 0.79688 0.7159 0.0
C205 C 0.89569 0.77652 0.68869 0.0
O206 O 0.91911 0.79981 0.7273 0.0
O207 O 0.92089 0.77655 0.7185 0.0
In208 In 0.27362 0.20972 0.09253 0.0
O209 O 0.26328 0.19211 0.07529 0.0
O210 O 0.27497 0.21212 0.06603 0.0
C211 C 0.27434 0.19201 0.11881 0.0
C212 C 0.30254 0.22233 0.09143 0.0
C213 C 0.24746 0.22714 0.09678 0.0
O214 O 0.27613 0.18604 0.10536 0.0
O215 O 0.27244 0.20665 0.11884 0.0
O216 O 0.26092 0.23211 0.10043 0.0
O217 O 0.24728 0.21356 0.09097 0.0
C218 C 0.26702 0.19994 0.06327 0.0
O219 O 0.2902 0.23048 0.09224 0.0
O220 O 0.30031 0.20768 0.09071 0.0
In221 In 0.27525 0.7899 0.90163 0.0
O222 O 0.26729 0.80274 0.92388 0.0
O223 O 0.27731 0.78001 0.92606 0.0
C224 C 0.27757 0.81251 0.87964 0.0
C225 C 0.30355 0.77637 0.89919 0.0
C226 C 0.24782 0.77553 0.89488 0.0
O227 O 0.27664 0.81581 0.89407 0.0
O228 O 0.27738 0.79807 0.87653 0.0
O229 O 0.26092 0.76953 0.89149 0.0
O230 O 0.2486 0.78884 0.90123 0.0
C231 C 0.27064 0.79136 0.93279 0.0
O232 O 0.29087 0.76934 0.89605 0.0
O233 O 0.30199 0.79038 0.90388 0.0
In234 In 0.2023 0.27148 0.90504 0.0
O235 O 0.22258 0.28838 0.9088 0.0
O236 O 0.19971 0.29807 0.90607 0.0
C237 C 0.22141 0.24841 0.89454 0.0
C238 C 0.19572 0.26052 0.93398 0.0
C239 C 0.18041 0.27476 0.88243 0.0
O240 O 0.22468 0.26275 0.8928 0.0
O241 O 0.2086 0.24583 0.90142 0.0
O242 O 0.17687 0.27489 0.89683 0.0
O243 O 0.19481 0.273 0.87961 0.0
C244 C 0.21421 0.30058 0.90786 0.0
O245 O 0.18884 0.25564 0.92184 0.0
O246 O 0.20509 0.27173 0.93166 0.0
In247 In 0.72011 0.21452 0.89944 0.0
O248 O 0.70093 0.23283 0.89752 0.0
O249 O 0.69443 0.21012 0.90572 0.0
C250 C 0.74437 0.22954 0.88578 0.0
C251 C 0.73056 0.216 0.92914 0.0
C252 C 0.7179 0.19039 0.8792 0.0
O253 O 0.73042 0.23439 0.88445 0.0
O254 O 0.7459 0.21717 0.89371 0.0
O255 O 0.72263 0.1885 0.89314 0.0
O256 O 0.71406 0.20425 0.87574 0.0
C257 C 0.69009 0.22384 0.90213 0.0
O258 O 0.72936 0.20306 0.92197 0.0
O259 O 0.72562 0.22775 0.92163 0.0
In260 In 0.79447 0.72484 0.9063 0.0
O261 O 0.77319 0.70884 0.90664 0.0
O262 O 0.79582 0.69815 0.90704 0.0
C263 C 0.7741 0.745 0.8926 0.0
C264 C 0.8024 0.7337 0.93575 0.0
C265 C 0.81957 0.72517 0.88692 0.0
O266 O 0.78065 0.73399 0.88524 0.0
O267 O 0.77742 0.74557 0.90699 0.0
O268 O 0.81464 0.73722 0.89394 0.0
O269 O 0.81219 0.71275 0.8901 0.0
C270 C 0.7811 0.6963 0.90663 0.0
O271 O 0.80914 0.7389 0.9237 0.0
O272 O 0.79233 0.72323 0.93305 0.0
In273 In 0.72663 0.79354 0.09343 0.0
O274 O 0.71048 0.77254 0.0899 0.0
O275 O 0.70011 0.79516 0.08952 0.0
C276 C 0.7473 0.77237 0.10489 0.0
C277 C 0.74183 0.80309 0.06743 0.0
C278 C 0.72263 0.81668 0.11461 0.0
O279 O 0.74096 0.78272 0.11335 0.0
O280 O 0.74283 0.77236 0.0908 0.0
O281 O 0.72688 0.81942 0.10067 0.0
O282 O 0.72028 0.80239 0.11769 0.0
C283 C 0.6981 0.78052 0.08876 0.0
O284 O 0.74774 0.80385 0.08096 0.0
O285 O 0.72772 0.79856 0.0671 0.0
In286 In 0.20674 0.72491 0.09656 0.0
O287 O 0.22644 0.70756 0.10096 0.0
O288 O 0.20344 0.69842 0.09729 0.0
C289 C 0.22408 0.75119 0.09996 0.0
C290 C 0.20084 0.72851 0.06574 0.0
C291 C 0.18668 0.72567 0.12095 0.0
O292 O 0.23001 0.73766 0.10127 0.0
O293 O 0.20955 0.75132 0.09726 0.0
O294 O 0.18202 0.72337 0.10705 0.0
O295 O 0.20128 0.72756 0.12238 0.0
C296 C 0.21771 0.69559 0.10015 0.0
O297 O 0.192 0.73425 0.07613 0.0
O298 O 0.21191 0.72022 0.07095 0.0
In299 In 0.79898 0.27135 0.09587 0.0
O300 O 0.80698 0.25274 0.07849 0.0
O301 O 0.80268 0.27565 0.0697 0.0
C302 C 0.82457 0.27267 0.11461 0.0
C303 C 0.78451 0.29928 0.09304 0.0
C304 C 0.77901 0.25115 0.11012 0.0
O305 O 0.82358 0.26324 0.10325 0.0
O306 O 0.81298 0.28168 0.1161 0.0
O307 O 0.78719 0.26092 0.11758 0.0
O308 O 0.78052 0.25185 0.09544 0.0
C309 C 0.80622 0.26159 0.06666 0.0
O310 O 0.77706 0.28647 0.09354 0.0
O311 O 0.79926 0.29793 0.09349 0.0
In312 In 0.59718 0.78091 0.70656 0.0
O313 O 0.60143 0.79832 0.72613 0.0
O314 O 0.59262 0.80718 0.70442 0.0
C315 C 0.60723 0.75431 0.72053 0.0
C316 C 0.56675 0.77263 0.70543 0.0
C317 C 0.61885 0.78503 0.68404 0.0
O318 O 0.6066 0.76722 0.72779 0.0
O319 O 0.60325 0.75503 0.70632 0.0
O320 O 0.60457 0.78262 0.68077 0.0
O321 O 0.622 0.78543 0.6985 0.0
C322 C 0.59718 0.81014 0.71824 0.0
O323 O 0.57567 0.77104 0.6937 0.0
O324 O 0.57296 0.77937 0.71703 0.0
In325 In 0.22142 0.59356 0.70364 0.0
O326 O 0.23147 0.5731 0.68937 0.0
O327 O 0.21727 0.56788 0.70911 0.0
C328 C 0.22126 0.61747 0.68303 0.0
C329 C 0.19217 0.59687 0.71482 0.0
C330 C 0.24752 0.59931 0.72066 0.0
O331 O 0.22027 0.60334 0.67859 0.0
O332 O 0.22217 0.61935 0.69768 0.0
O333 O 0.24775 0.59648 0.70616 0.0
O334 O 0.23402 0.5993 0.72674 0.0
C335 C 0.22582 0.5627 0.69824 0.0
O336 O 0.20417 0.59709 0.72354 0.0
O337 O 0.1949 0.5946 0.70041 0.0
In338 In 0.40609 0.22742 0.70598 0.0
O339 O 0.41096 0.20954 0.72525 0.0
O340 O 0.40614 0.20095 0.7023 0.0
C341 C 0.39987 0.25082 0.72658 0.0
C342 C 0.4345 0.23637 0.69553 0.0
C343 C 0.38093 0.22711 0.68674 0.0
O344 O 0.39445 0.23715 0.72832 0.0
O345 O 0.40843 0.25253 0.71469 0.0
O346 O 0.3948 0.22675 0.68154 0.0
O347 O 0.37987 0.22756 0.70148 0.0
C348 C 0.40906 0.19775 0.71648 0.0
O349 O 0.42189 0.24166 0.68985 0.0
O350 O 0.43273 0.2258 0.70578 0.0
In351 In 0.77912 0.39801 0.71079 0.0
O352 O 0.76974 0.42039 0.69917 0.0
O353 O 0.77759 0.42142 0.72288 0.0
C354 C 0.78006 0.37676 0.68746 0.0
C355 C 0.80941 0.39913 0.71938 0.0
C356 C 0.75412 0.38718 0.72692 0.0
O357 O 0.77639 0.39092 0.68492 0.0
O358 O 0.78332 0.37358 0.70153 0.0
O359 O 0.76801 0.38391 0.73095 0.0
O360 O 0.75299 0.3956 0.71483 0.0
C361 C 0.77127 0.42849 0.71152 0.0
O362 O 0.79852 0.39548 0.72878 0.0
O363 O 0.80496 0.40253 0.70564 0.0
In364 In 0.59678 0.22099 0.28601 0.0
O365 O 0.57952 0.2342 0.3017 0.0
O366 O 0.57036 0.21824 0.28489 0.0
C367 C 0.62235 0.22157 0.30461 0.0
C368 C 0.5954 0.19097 0.27638 0.0
C369 C 0.60252 0.2446 0.2656 0.0
O370 O 0.60864 0.22068 0.31021 0.0
O371 O 0.623 0.222 0.28985 0.0
O372 O 0.60584 0.2305 0.2625 0.0
O373 O 0.59621 0.24665 0.2788 0.0
C374 C 0.56752 0.22839 0.29527 0.0
O375 O 0.59336 0.20243 0.2672 0.0
O376 O 0.5978 0.19466 0.29055 0.0
In377 In 0.77537 0.59241 0.29588 0.0
O378 O 0.79307 0.58936 0.27621 0.0
O379 O 0.80187 0.59342 0.29927 0.0
C380 C 0.75215 0.60148 0.27619 0.0
C381 C 0.76765 0.56237 0.30212 0.0
C382 C 0.77612 0.61515 0.31788 0.0
O383 O 0.76635 0.6049 0.27381 0.0
O384 O 0.74975 0.59344 0.28835 0.0
O385 O 0.77609 0.60077 0.32152 0.0
O386 O 0.77586 0.61786 0.30335 0.0
C387 C 0.80492 0.59129 0.28491 0.0
O388 O 0.76112 0.57377 0.30894 0.0
O389 O 0.7786 0.56615 0.29292 0.0
In390 In 0.40633 0.7661 0.3061 0.0
O391 O 0.43086 0.76021 0.31548 0.0
O392 O 0.42903 0.77254 0.29397 0.0
C393 C 0.39225 0.76212 0.33421 0.0
C394 C 0.39167 0.7922 0.29646 0.0
C395 C 0.39953 0.74293 0.28552 0.0
O396 O 0.39398 0.75126 0.32435 0.0
O397 O 0.39848 0.77499 0.33036 0.0
O398 O 0.39636 0.75713 0.28288 0.0
O399 O 0.40604 0.74041 0.29854 0.0
C400 C 0.43786 0.76576 0.30367 0.0
O401 O 0.38504 0.77896 0.2972 0.0
O402 O 0.40588 0.79241 0.30078 0.0
In403 In 0.22477 0.39946 0.29039 0.0
O404 O 0.23397 0.4195 0.30577 0.0
O405 O 0.22298 0.42515 0.28415 0.0
C406 C 0.22103 0.37569 0.31084 0.0
C407 C 0.19656 0.39964 0.2764 0.0
C408 C 0.25214 0.39271 0.27584 0.0
O409 O 0.22178 0.38981 0.31533 0.0
O410 O 0.22219 0.37371 0.29623 0.0
O411 O 0.23901 0.39021 0.26945 0.0
O412 O 0.25136 0.39821 0.28952 0.0
C413 C 0.23037 0.43003 0.29598 0.0
O414 O 0.20927 0.39914 0.26877 0.0
O415 O 0.19807 0.40032 0.29115 0.0
In416 In 0.69992 0.595 0.77314 0.0
O417 O 0.68844 0.5741 0.76064 0.0
O418 O 0.70605 0.56941 0.77752 0.0
C419 C 0.67309 0.61184 0.77077 0.0
C420 C 0.71197 0.59805 0.80209 0.0
C421 C 0.71965 0.60879 0.75243 0.0
O422 O 0.67933 0.60502 0.75923 0.0
O423 O 0.67995 0.60954 0.78365 0.0
O424 O 0.71295 0.61626 0.7633 0.0
O425 O 0.71677 0.5943 0.75228 0.0
C426 C 0.69682 0.56395 0.76738 0.0
O427 O 0.72011 0.59978 0.78981 0.0
O428 O 0.69776 0.59447 0.79976 0.0
In429 In 0.40564 0.70053 0.76736 0.0
O430 O 0.40178 0.72145 0.7832 0.0
O431 O 0.4067 0.69951 0.79415 0.0
C432 C 0.40058 0.71803 0.74143 0.0
C433 C 0.43637 0.69504 0.76264 0.0
C434 C 0.38208 0.67934 0.76823 0.0
O435 O 0.40643 0.70446 0.74093 0.0
O436 O 0.39713 0.72279 0.75502 0.0
O437 O 0.39613 0.67544 0.77084 0.0
O438 O 0.38013 0.69365 0.7652 0.0
C439 C 0.40359 0.71392 0.79584 0.0
O440 O 0.42586 0.68669 0.75639 0.0
O441 O 0.43134 0.70543 0.77188 0.0
In442 In 0.29062 0.4008 0.77757 0.0
O443 O 0.27141 0.39697 0.7955 0.0
O444 O 0.29407 0.40329 0.80402 0.0
C445 C 0.27505 0.39101 0.7518 0.0
C446 C 0.29019 0.43154 0.77047 0.0
C447 C 0.31445 0.38012 0.77882 0.0
O448 O 0.27036 0.38784 0.7655 0.0
O449 O 0.2876 0.39878 0.7512 0.0
O450 O 0.31687 0.39475 0.77807 0.0
O451 O 0.30021 0.37616 0.779 0.0
C452 C 0.28004 0.39969 0.80724 0.0
O453 O 0.30199 0.42304 0.76756 0.0
O454 O 0.27937 0.42474 0.77792 0.0
In455 In 0.59219 0.28748 0.77527 0.0
O456 O 0.58593 0.26933 0.79387 0.0
O457 O 0.59052 0.29266 0.80144 0.0
C458 C 0.60144 0.26549 0.75426 0.0
C459 C 0.56467 0.29677 0.76289 0.0
C460 C 0.61643 0.30785 0.77594 0.0
O461 O 0.60594 0.26531 0.76836 0.0
O462 O 0.59216 0.27647 0.75095 0.0
O463 O 0.60234 0.31241 0.77534 0.0
O464 O 0.61816 0.29318 0.77633 0.0
C465 C 0.5873 0.27871 0.80526 0.0
O466 O 0.57769 0.3023 0.75851 0.0
O467 O 0.56547 0.28723 0.77421 0.0
In468 In 0.70814 0.39905 0.22154 0.0
O469 O 0.69589 0.42121 0.23081 0.0
O470 O 0.71957 0.42279 0.22316 0.0
C471 C 0.6855 0.37743 0.2181 0.0
C472 C 0.71854 0.39892 0.19184 0.0
C473 C 0.7223 0.38853 0.24784 0.0
O474 O 0.6823 0.3916 0.22123 0.0
O475 O 0.69992 0.37439 0.21672 0.0
O476 O 0.72924 0.38868 0.23474 0.0
O477 O 0.70832 0.39329 0.24747 0.0
C478 C 0.70805 0.4296 0.22942 0.0
O479 O 0.72708 0.39508 0.20335 0.0
O480 O 0.70477 0.40322 0.19535 0.0
In481 In 0.59762 0.70676 0.21716 0.0
O482 O 0.57667 0.69304 0.22676 0.0
O483 O 0.57242 0.71448 0.21469 0.0
C484 C 0.62089 0.68539 0.21838 0.0
C485 C 0.59844 0.71564 0.18694 0.0
C486 C 0.60411 0.72504 0.24224 0.0
O487 O 0.60664 0.68146 0.21953 0.0
O488 O 0.62322 0.69988 0.21657 0.0
O489 O 0.60865 0.72858 0.22859 0.0
O490 O 0.59659 0.71237 0.24315 0.0
C491 C 0.56678 0.70323 0.22248 0.0
O492 O 0.59949 0.72526 0.19817 0.0
O493 O 0.59667 0.70147 0.19096 0.0
In494 In 0.29682 0.59173 0.22866 0.0
O495 O 0.31064 0.57178 0.24009 0.0
O496 O 0.2912 0.56591 0.22567 0.0
C497 C 0.31933 0.61374 0.2262 0.0
C498 C 0.28426 0.59183 0.19978 0.0
C499 C 0.27999 0.60077 0.25408 0.0
O500 O 0.32261 0.59938 0.22784 0.0
O501 O 0.30488 0.61684 0.22579 0.0
O502 O 0.29251 0.59301 0.255 0.0
O503 O 0.27585 0.60409 0.24027 0.0
C504 C 0.30186 0.56114 0.23474 0.0
O505 O 0.27604 0.59088 0.21208 0.0
O506 O 0.29892 0.59224 0.20203 0.0
In507 In 0.40454 0.29687 0.22011 0.0
O508 O 0.39897 0.27684 0.20391 0.0
O509 O 0.40944 0.29706 0.19357 0.0
C510 C 0.38988 0.28434 0.2453 0.0
C511 C 0.43468 0.29249 0.22823 0.0
C512 C 0.38801 0.32374 0.21746 0.0
O513 O 0.3862 0.28088 0.23141 0.0
O514 O 0.40079 0.29422 0.24648 0.0
O515 O 0.40179 0.32355 0.22292 0.0
O516 O 0.38304 0.31063 0.21284 0.0
C517 C 0.40384 0.28343 0.19159 0.0
O518 O 0.42878 0.30609 0.22747 0.0
O519 O 0.42565 0.28156 0.22407 0.0
In520 In 0.76661 0.71025 0.58917 0.0
O521 O 0.75097 0.6944 0.57441 0.0
O522 O 0.7668 0.70951 0.56247 0.0
C523 C 0.76592 0.69257 0.61543 0.0
C524 C 0.7971 0.71778 0.5858 0.0
C525 C 0.74547 0.73303 0.59561 0.0
O526 O 0.76675 0.68649 0.60193 0.0
O527 O 0.76553 0.70735 0.61554 0.0
O528 O 0.75985 0.73447 0.59882 0.0
O529 O 0.74191 0.72031 0.589 0.0
C530 C 0.75582 0.69963 0.56144 0.0
O531 O 0.78616 0.72741 0.58314 0.0
O532 O 0.79262 0.70417 0.58957 0.0
In533 In 0.77424 0.29391 0.40719 0.0
O534 O 0.79159 0.27419 0.40345 0.0
O535 O 0.80072 0.29651 0.4102 0.0
C536 C 0.75406 0.27426 0.3925 0.0
C537 C 0.7664 0.2962 0.4378 0.0
C538 C 0.77244 0.32037 0.38974 0.0
O539 O 0.76586 0.28005 0.38574 0.0
O540 O 0.75263 0.27812 0.40668 0.0
O541 O 0.76083 0.31472 0.39695 0.0
O542 O 0.78513 0.31313 0.39197 0.0
C543 C 0.80354 0.28241 0.40648 0.0
O544 O 0.76232 0.30641 0.42789 0.0
O545 O 0.77527 0.28569 0.43243 0.0
In546 In 0.69822 0.77261 0.40151 0.0
O547 O 0.6856 0.75464 0.4167 0.0
O548 O 0.69778 0.77287 0.42839 0.0
C549 C 0.67624 0.77761 0.37939 0.0
C550 C 0.71111 0.80141 0.40263 0.0
C551 C 0.71675 0.74899 0.39132 0.0
O552 O 0.67266 0.77474 0.39351 0.0
O553 O 0.69077 0.77826 0.37668 0.0
O554 O 0.70291 0.75111 0.38661 0.0
O555 O 0.72162 0.75916 0.40094 0.0
C556 C 0.69002 0.76033 0.42958 0.0
O557 O 0.7189 0.78925 0.39932 0.0
O558 O 0.69685 0.79899 0.40589 0.0
In559 In 0.2184 0.70961 0.40257 0.0
O560 O 0.23222 0.69685 0.42153 0.0
O561 O 0.21341 0.71164 0.42864 0.0
C562 C 0.21906 0.68451 0.38327 0.0
C563 C 0.1893 0.72183 0.4007 0.0
C564 C 0.24256 0.7285 0.39387 0.0
O565 O 0.22341 0.68368 0.39741 0.0
O566 O 0.21405 0.69778 0.37912 0.0
O567 O 0.23467 0.72061 0.38421 0.0
O568 O 0.23788 0.72744 0.40781 0.0
C569 C 0.2247 0.70296 0.43274 0.0
O570 O 0.20152 0.73007 0.39923 0.0
O571 O 0.19176 0.70748 0.40343 0.0
In572 In 0.28733 0.22176 0.40363 0.0
O573 O 0.27118 0.20062 0.40412 0.0
O574 O 0.29581 0.19638 0.40333 0.0
C575 C 0.26533 0.24354 0.39663 0.0
C576 C 0.29287 0.22842 0.43393 0.0
C577 C 0.3073 0.2257 0.37948 0.0
O578 O 0.26391 0.22933 0.39271 0.0
O579 O 0.27761 0.2466 0.40425 0.0
O580 O 0.31185 0.2265 0.39357 0.0
O581 O 0.29294 0.22271 0.37775 0.0
C582 C 0.28213 0.19064 0.40352 0.0
O583 O 0.30098 0.23428 0.423 0.0
O584 O 0.28257 0.21875 0.42954 0.0
In585 In 0.21536 0.28793 0.59887 0.0
O586 O 0.19615 0.26979 0.60195 0.0
O587 O 0.18927 0.29303 0.59579 0.0
C588 C 0.24052 0.27167 0.60918 0.0
C589 C 0.22242 0.28726 0.56822 0.0
C590 C 0.2159 0.3119 0.61939 0.0
O591 O 0.22675 0.26834 0.61355 0.0
O592 O 0.24146 0.28308 0.59986 0.0
O593 O 0.21802 0.31404 0.60486 0.0
O594 O 0.2133 0.29788 0.62332 0.0
C595 C 0.18505 0.27919 0.59905 0.0
O596 O 0.22425 0.29954 0.57636 0.0
O597 O 0.21613 0.27592 0.57537 0.0
In598 In 0.70756 0.21933 0.59764 0.0
O599 O 0.69225 0.2316 0.57929 0.0
O600 O 0.7112 0.2175 0.57136 0.0
C601 C 0.68764 0.21762 0.62212 0.0
C602 C 0.7183 0.1897 0.59632 0.0
C603 C 0.72611 0.2439 0.60542 0.0
O604 O 0.68277 0.21842 0.60812 0.0
O605 O 0.70235 0.21768 0.6236 0.0
O606 O 0.73031 0.22986 0.60751 0.0
O607 O 0.7127 0.24546 0.59943 0.0
C608 C 0.70022 0.22675 0.5678 0.0
O609 O 0.72719 0.20151 0.5951 0.0
O610 O 0.70387 0.19285 0.59774 0.0
In611 In 0.29694 0.77614 0.59498 0.0
O612 O 0.27716 0.79235 0.60194 0.0
O613 O 0.29797 0.80285 0.59279 0.0
C614 C 0.28042 0.75174 0.60679 0.0
C615 C 0.2978 0.76755 0.56447 0.0
C616 C 0.32275 0.77924 0.61287 0.0
O617 O 0.29514 0.75263 0.60753 0.0
O618 O 0.27388 0.76336 0.6004 0.0
O619 O 0.32362 0.77663 0.59828 0.0
O620 O 0.309 0.78067 0.61815 0.0
C621 C 0.28431 0.80481 0.59826 0.0
O622 O 0.30573 0.76067 0.57486 0.0
O623 O 0.29047 0.77943 0.56928 0.0
C624 C 0.96051 0.20121 0.2729 0.0
C625 C 0.94878 0.19226 0.26561 0.0
C626 C 0.97447 0.2045 0.26505 0.0
C627 C 0.98759 0.21044 0.22476 0.0
H628 H 0.02666 0.22054 0.24573 0.0
C629 C 0.04274 0.24241 0.19773 0.0
C630 C 0.04779 0.25505 0.20707 0.0
C631 C 0.0307 0.23253 0.203 0.0
C632 C 0.01583 0.21768 0.23971 0.0
H633 H 0.943 0.17845 0.24503 0.0
H634 H 0.96758 0.18407 0.23132 0.0
H635 H 0.00713 0.20456 0.25923 0.0
H636 H 0.04336 0.26805 0.22853 0.0
H637 H 0.02251 0.25081 0.23765 0.0
H638 H 0.99636 0.2239 0.20532 0.0
C639 C 0.96585 0.18876 0.24301 0.0
C640 C 0.00467 0.20855 0.24742 0.0
C641 C 0.95186 0.18542 0.25092 0.0
C642 C 0.03981 0.25834 0.22112 0.0
C643 C 0.02797 0.24842 0.22641 0.0
C644 C -0.00111 0.21944 0.21696 0.0
C645 C 0.977 0.1989 0.24973 0.0
C646 C 0.99015 0.20537 0.24029 0.0
C647 C 0.02373 0.23512 0.2177 0.0
C648 C 0.01281 0.22363 0.22465 0.0
H649 H 0.95847 0.20661 0.28423 0.0
H650 H 0.98271 0.21244 0.27057 0.0
H651 H 0.97647 0.20833 0.21897 0.0
H652 H 0.04871 0.23959 0.18687 0.0
H653 H 0.02749 0.22237 0.19605 0.0
C654 C 0.79339 0.9606 0.26385 0.0
C655 C 0.79941 0.94669 0.25741 0.0
C656 C 0.79235 0.97416 0.25469 0.0
C657 C 0.78293 0.98349 0.21514 0.0
H658 H 0.78951 0.02661 0.22806 0.0
C659 C 0.76445 0.05131 0.19818 0.0
C660 C 0.74811 0.05 0.2001 0.0
C661 C 0.77415 0.03836 0.20082 0.0
C662 C 0.78786 0.01464 0.22411 0.0
H663 H 0.81022 0.93633 0.23681 0.0
H664 H 0.80801 0.95997 0.22071 0.0
H665 H 0.80208 0.00533 0.24267 0.0
H666 H 0.72899 0.03385 0.20457 0.0
H667 H 0.74592 0.01112 0.20877 0.0
H668 H 0.76774 0.99273 0.19732 0.0
C669 C 0.80424 0.96039 0.23285 0.0
C670 C 0.79498 0.00251 0.23251 0.0
C671 C 0.80557 0.94691 0.2421 0.0
C672 C 0.74154 0.03519 0.20305 0.0
C673 C 0.75123 0.02218 0.20542 0.0
C674 C 0.77557 0.99561 0.20691 0.0
C675 C 0.79706 0.97392 0.23889 0.0
C676 C 0.79225 0.98682 0.22834 0.0
C677 C 0.76763 0.02385 0.20509 0.0
C678 C 0.77766 0.01126 0.21158 0.0
H679 H 0.78855 0.96073 0.2756 0.0
H680 H 0.78669 0.98444 0.2596 0.0
H681 H 0.7805 0.97146 0.21181 0.0
H682 H 0.76985 0.06259 0.19592 0.0
H683 H 0.78676 0.03988 0.20041 0.0
C684 C 0.04277 0.8106 0.23804 0.0
C685 C 0.04452 0.80695 0.25403 0.0
C686 C 0.02906 0.80649 0.23006 0.0
C687 C 0.98903 0.78939 0.23557 0.0
H688 H -0.00059 0.76609 0.1978 0.0
C689 C 0.95632 0.73469 0.21695 0.0
C690 C 0.94715 0.7365 0.20337 0.0
C691 C 0.96812 0.74544 0.22043 0.0
C692 C 0.99633 0.77277 0.20817 0.0
H693 H 0.03277 0.79763 0.27457 0.0
H694 H 0.00905 0.79023 0.26071 0.0
H695 H 0.01899 0.78338 0.20965 0.0
H696 H 0.94407 0.7501 0.18206 0.0
H697 H 0.96524 0.76876 0.18805 0.0
H698 H 0.96677 0.77776 0.23464 0.0
C699 C 0.01811 0.79636 0.25425 0.0
C700 C 0.00745 0.78276 0.21493 0.0
C701 C 0.03176 0.80056 0.26224 0.0
C702 C 0.95098 0.74842 0.1926 0.0
C703 C 0.96297 0.75912 0.19603 0.0
C704 C 0.97804 0.77926 0.22893 0.0
C705 C 0.0169 0.79859 0.23792 0.0
C706 C 0.00411 0.79077 0.22902 0.0
C707 C 0.97112 0.75803 0.21028 0.0
C708 C 0.9818 0.77055 0.21548 0.0
H709 H 0.05238 0.81568 0.23145 0.0
H710 H 0.02834 0.80871 0.21756 0.0
H711 H 0.98596 0.7956 0.24622 0.0
H712 H 0.95371 0.72559 0.22544 0.0
H713 H 0.97445 0.74433 0.2314 0.0
C714 C 0.26611 0.95715 0.21278 0.0
C715 C 0.26301 0.95108 0.19777 0.0
C716 C 0.25757 0.96987 0.21847 0.0
C717 C 0.2328 0.00318 0.20953 0.0
H718 H 0.2125 0.99256 0.24892 0.0
C719 C 0.19609 0.04904 0.24204 0.0
C720 C 0.20005 0.05054 0.25798 0.0
C721 C 0.20042 0.03563 0.23366 0.0
C722 C 0.2181 0.99575 0.23797 0.0
H723 H 0.24971 0.95453 0.17634 0.0
H724 H 0.235 0.97719 0.18625 0.0
H725 H 0.22882 0.97315 0.23568 0.0
H726 H 0.21027 0.03864 0.278 0.0
H727 H 0.21805 0.01547 0.26345 0.0
H728 H 0.22281 0.02603 0.21216 0.0
C729 C 0.24387 0.97186 0.19363 0.0
C730 C 0.22743 0.98464 0.2304 0.0
C731 C 0.25234 0.95898 0.18796 0.0
C732 C 0.20708 0.03783 0.26572 0.0
C733 C 0.21151 0.02449 0.25734 0.0
C734 C 0.22363 0.0144 0.21722 0.0
C735 C 0.24592 0.97688 0.20919 0.0
C736 C 0.23514 0.98839 0.21633 0.0
C737 C 0.20886 0.02353 0.24106 0.0
C738 C 0.21646 0.01092 0.23172 0.0
H739 H 0.27434 0.95139 0.22058 0.0
H740 H 0.25955 0.97378 0.23041 0.0
H741 H 0.23861 0.00627 0.19866 0.0
H742 H 0.19054 0.05862 0.2358 0.0
H743 H 0.19784 0.03509 0.22123 0.0
C744 C 0.95206 0.77247 0.72874 0.0
C745 C 0.94347 0.78617 0.73185 0.0
C746 C 0.96528 0.7688 0.7376 0.0
C747 C 0.98189 0.77598 0.77678 0.0
H748 H 0.01604 0.75111 0.75989 0.0
C749 C 0.03908 0.75413 0.8085 0.0
C750 C 0.04281 0.73832 0.80553 0.0
C751 C 0.02588 0.76097 0.80156 0.0
C752 C 0.00651 0.75799 0.76475 0.0
H753 H 0.94257 0.80736 0.7459 0.0
H754 H 0.96606 0.80111 0.76122 0.0
H755 H 0.99722 0.76309 0.74207 0.0
H756 H 0.03475 0.71685 0.79449 0.0
H757 H 0.01183 0.72885 0.78228 0.0
H758 H 0.99162 0.77099 0.79952 0.0
C759 C 0.96232 0.79304 0.75215 0.0
C760 C 0.99574 0.76486 0.75457 0.0
C761 C 0.949 0.79671 0.74325 0.0
C762 C 0.03224 0.72907 0.79692 0.0
C763 C 0.01918 0.73594 0.78985 0.0
C764 C 0.99288 0.76928 0.78699 0.0
C765 C 0.97032 0.77879 0.74973 0.0
C766 C 0.98304 0.77358 0.76045 0.0
C767 C 0.01636 0.75209 0.7915 0.0
C768 C 0.00501 0.75989 0.78103 0.0
H769 H 0.94808 0.76412 0.72003 0.0
H770 H 0.97099 0.75764 0.73549 0.0
H771 H 0.97217 0.7825 0.78173 0.0
H772 H 0.04701 0.76152 0.81515 0.0
H773 H 0.02386 0.77344 0.80302 0.0
C774 C 0.26049 0.04805 0.76656 0.0
C775 C 0.26079 0.05508 0.78146 0.0
C776 C 0.25003 0.03594 0.76333 0.0
C777 C 0.22627 0.00476 0.77943 0.0
H778 H 0.20256 0.01042 0.74094 0.0
C779 C 0.18992 0.95426 0.75421 0.0
C780 C 0.19418 0.95098 0.73862 0.0
C781 C 0.19355 0.96881 0.76088 0.0
C782 C 0.20901 0.00869 0.75175 0.0
H783 H 0.25111 0.05427 0.80498 0.0
H784 H 0.23293 0.03261 0.79935 0.0
H785 H 0.21933 0.03155 0.75052 0.0
H786 H 0.20406 0.96076 0.71732 0.0
H787 H 0.21035 0.98602 0.72885 0.0
H788 H 0.21671 0.98157 0.7802 0.0
C789 C 0.24071 0.03674 0.79018 0.0
C790 C 0.21861 0.02076 0.75722 0.0
C791 C 0.25115 0.04903 0.7934 0.0
C792 C 0.2007 0.96296 0.72939 0.0
C793 C 0.20424 0.97748 0.73602 0.0
C794 C 0.21674 0.9926 0.77389 0.0
C795 C 0.23971 0.03051 0.77495 0.0
C796 C 0.22775 0.01867 0.77078 0.0
C797 C 0.20136 0.98032 0.75202 0.0
C798 C 0.20847 0.99424 0.75967 0.0
H799 H 0.26784 0.05238 0.75713 0.0
H800 H 0.24974 0.03105 0.75159 0.0
H801 H 0.2332 0.00291 0.78993 0.0
H802 H 0.18485 0.94524 0.76159 0.0
H803 H 0.19097 0.97075 0.77318 0.0
C804 C 0.03467 0.19706 0.74235 0.0
C805 C 0.04936 0.19463 0.74938 0.0
C806 C 0.02112 0.19762 0.75153 0.0
C807 C 0.01097 0.21103 0.79041 0.0
H808 H 0.96874 0.20186 0.77627 0.0
C809 C 0.94186 0.23021 0.80058 0.0
C810 C 0.94385 0.2465 0.79887 0.0
C811 C 0.95474 0.22013 0.7996 0.0
C812 C 0.98043 0.20425 0.78065 0.0
H813 H 0.06123 0.18918 0.77124 0.0
H814 H 0.03752 0.19017 0.78727 0.0
H815 H 0.99093 0.18867 0.76395 0.0
H816 H 0.96097 0.26513 0.79636 0.0
H817 H 0.98346 0.24759 0.79469 0.0
H818 H 0.00051 0.22722 0.80654 0.0
C819 C 0.03652 0.19184 0.77471 0.0
C820 C 0.99314 0.19678 0.77349 0.0
C821 C 0.05007 0.1912 0.76551 0.0
C822 C 0.95908 0.25262 0.79766 0.0
C823 C 0.97198 0.24255 0.79678 0.0
C824 C 0.99827 0.21855 0.79752 0.0
C825 C 0.02203 0.1958 0.76792 0.0
C826 C 0.00856 0.20057 0.77786 0.0
C827 C 0.96985 0.22618 0.79703 0.0
C828 C 0.98291 0.21571 0.79227 0.0
H829 H 0.03376 0.19967 0.72994 0.0
H830 H 0.01015 0.20077 0.74594 0.0
H831 H 0.02272 0.21431 0.79398 0.0
H832 H 0.93024 0.22515 0.80163 0.0
H833 H 0.9528 0.20757 0.80003 0.0
C834 C 0.80709 0.05122 0.76277 0.0
C835 C 0.80219 0.05104 0.74702 0.0
C836 C 0.80456 0.03816 0.77236 0.0
C837 C 0.79546 0.99628 0.77337 0.0
H838 H 0.76489 0.00646 0.80558 0.0
C839 C 0.74056 0.96287 0.7983 0.0
C840 C 0.74725 0.94842 0.80252 0.0
C841 C 0.75 0.97616 0.79661 0.0
C842 C 0.77365 0.00349 0.79686 0.0
H843 H 0.79206 0.03678 0.72858 0.0
H844 H 0.78819 0.01372 0.74522 0.0
H845 H 0.77844 0.0276 0.79156 0.0
H846 H 0.76875 0.93681 0.80968 0.0
H847 H 0.78528 0.95999 0.80634 0.0
H848 H 0.79022 0.97219 0.77818 0.0
C849 C 0.79378 0.02401 0.75017 0.0
C850 C 0.78143 0.01553 0.7889 0.0
C851 C 0.79597 0.03718 0.74067 0.0
C852 C 0.76327 0.94781 0.80641 0.0
C853 C 0.77276 0.96103 0.80444 0.0
C854 C 0.78793 0.98424 0.78154 0.0
C855 C 0.79748 0.02463 0.76623 0.0
C856 C 0.79198 0.012 0.77672 0.0
C857 C 0.76629 0.97512 0.7989 0.0
C858 C 0.77656 0.98776 0.79296 0.0
H859 H 0.8118 0.06182 0.76798 0.0
H860 H 0.80749 0.03886 0.78472 0.0
H861 H 0.80351 0.99332 0.76398 0.0
H862 H 0.72824 0.96366 0.79525 0.0
H863 H 0.74475 0.98689 0.79225 0.0
C864 C 0.26534 0.20503 0.03456 0.0
C865 C 0.2594 0.19751 0.04796 0.0
C866 C 0.25599 0.20668 0.0212 0.0
C867 C 0.2165 0.21577 0.01336 0.0
H868 H 0.22725 0.211 0.9694 0.0
C869 C 0.19274 0.23526 0.9483 0.0
C870 C 0.19591 0.25145 0.9487 0.0
C871 C 0.19704 0.22568 0.96089 0.0
C872 C 0.22398 0.21217 0.98163 0.0
H873 H 0.23958 0.18474 0.05754 0.0
H874 H 0.22308 0.18809 0.0343 0.0
H875 H 0.24306 0.1977 0.98946 0.0
H876 H 0.20467 0.27055 0.963 0.0
H877 H 0.21156 0.25384 0.98534 0.0
H878 H 0.19825 0.2313 0.0056 0.0
C879 C 0.235 0.19249 0.0341 0.0
C880 C 0.23301 0.20462 0.99304 0.0
C881 C 0.24449 0.19051 0.04733 0.0
C882 C 0.20206 0.25812 0.96244 0.0
C883 C 0.206 0.24858 0.97518 0.0
C884 C 0.20771 0.22361 0.00197 0.0
C885 C 0.24049 0.20112 0.0212 0.0
C886 C 0.2295 0.2066 0.009 0.0
C887 C 0.20413 0.23224 0.9742 0.0
C888 C 0.21157 0.22208 0.98606 0.0
H889 H 0.27679 0.21055 0.03478 0.0
H890 H 0.26043 0.21346 0.0114 0.0
H891 H 0.21374 0.21764 0.02563 0.0
H892 H 0.18813 0.2298 0.93779 0.0
H893 H 0.19552 0.21309 0.95994 0.0
C894 C 0.25122 0.79884 0.9535 0.0
C895 C 0.26391 0.78948 0.94861 0.0
C896 C 0.2418 0.79405 0.96608 0.0
C897 C 0.22817 0.75757 0.98227 0.0
H898 H 0.2168 0.77966 0.02036 0.0
C899 C 0.2104 0.72635 0.03834 0.0
C900 C 0.2007 0.73386 0.04931 0.0
C901 C 0.21408 0.73367 0.0242 0.0
C902 C 0.2195 0.77348 0.00958 0.0
H903 H 0.27771 0.76879 0.95402 0.0
H904 H 0.26132 0.76051 0.9759 0.0
H905 H 0.2327 0.79293 0.00044 0.0
H906 H 0.18601 0.7542 0.05354 0.0
H907 H 0.19233 0.76699 0.02862 0.0
H908 H 0.21527 0.73807 0.99132 0.0
C909 C 0.2585 0.77135 0.96986 0.0
C910 C 0.2287 0.78106 0.99829 0.0
C911 C 0.26793 0.77616 0.95743 0.0
C912 C 0.19353 0.74815 0.04526 0.0
C913 C 0.19728 0.75555 0.03109 0.0
C914 C 0.21886 0.75008 0.99343 0.0
C915 C 0.24496 0.77985 0.9738 0.0
C916 C 0.23358 0.77292 0.98485 0.0
C917 C 0.20814 0.74868 0.02074 0.0
C918 C 0.21492 0.75772 0.00749 0.0
H919 H 0.24784 0.80915 0.94687 0.0
H920 H 0.23145 0.80082 0.96904 0.0
H921 H 0.23153 0.75121 0.97179 0.0
H922 H 0.21607 0.71532 0.04116 0.0
H923 H 0.22255 0.72807 0.01657 0.0
C924 C 0.74697 0.20513 0.95108 0.0
C925 C 0.73928 0.21789 0.94398 0.0
C926 C 0.75725 0.20763 0.96367 0.0
C927 C 0.78266 0.23818 0.97987 0.0
H928 H 0.7788 0.21669 0.01975 0.0
C929 C 0.80212 0.26509 0.03793 0.0
C930 C 0.80621 0.25532 0.05054 0.0
C931 C 0.79811 0.25863 0.02344 0.0
C932 C 0.78036 0.22253 0.00858 0.0
H933 H 0.73573 0.2431 0.94492 0.0
H934 H 0.75357 0.24738 0.96674 0.0
H935 H 0.76259 0.20847 0.99763 0.0
H936 H 0.8109 0.23127 0.05745 0.0
H937 H 0.80417 0.21999 0.032 0.0
H938 H 0.80014 0.25249 0.9908 0.0
C939 C 0.75185 0.23552 0.96249 0.0
C940 C 0.771 0.21786 0.99595 0.0
C941 C 0.74152 0.23303 0.95009 0.0
C942 C 0.80765 0.23909 0.04796 0.0
C943 C 0.80368 0.23262 0.03343 0.0
C944 C 0.79211 0.24277 0.99242 0.0
C945 C 0.76009 0.22292 0.96915 0.0
C946 C 0.77167 0.22603 0.98169 0.0
C947 C 0.79819 0.24226 0.02123 0.0
C948 C 0.79066 0.23539 0.00709 0.0
H949 H 0.7455 0.19334 0.94656 0.0
H950 H 0.76341 0.19772 0.96872 0.0
H951 H 0.78359 0.24447 0.96886 0.0
H952 H 0.80093 0.27765 0.03956 0.0
H953 H 0.79385 0.26643 0.01435 0.0
C954 C 0.79609 0.7353 0.96432 0.0
C955 C 0.80363 0.7416 0.9511 0.0
C956 C 0.79405 0.74441 0.97779 0.0
C957 C 0.78611 0.78447 0.98739 0.0
H958 H 0.78997 0.77079 0.03062 0.0
C959 C 0.76812 0.80358 0.05471 0.0
C960 C 0.75169 0.80368 0.0532 0.0
C961 C 0.77757 0.79962 0.04193 0.0
C962 C 0.78906 0.77491 0.01862 0.0
H963 H 0.81596 0.76193 0.94196 0.0
H964 H 0.81207 0.77794 0.96543 0.0
H965 H 0.8021 0.75531 0.00969 0.0
H966 H 0.73236 0.8014 0.03683 0.0
H967 H 0.74895 0.79485 0.01438 0.0
H968 H 0.7722 0.80351 0.99624 0.0
C969 C 0.80782 0.76596 0.96536 0.0
C970 C 0.79591 0.76601 0.00669 0.0
C971 C 0.8101 0.75676 0.95199 0.0
C972 C 0.74498 0.80138 0.03833 0.0
C973 C 0.75448 0.79764 0.02549 0.0
C974 C 0.77901 0.79321 -0.00069 0.0
C975 C 0.79933 0.76003 0.97815 0.0
C976 C 0.79424 0.77056 0.99096 0.0
C977 C 0.77077 0.79599 0.02739 0.0
C978 C 0.78018 0.78834 0.01499 0.0
H979 H 0.79099 0.72366 0.96394 0.0
H980 H 0.7874 0.73961 0.9875 0.0
H981 H 0.78452 0.78812 0.97532 0.0
H982 H 0.77364 0.80535 0.06602 0.0
H983 H 0.79013 0.79856 0.04362 0.0
C984 C 0.54297 0.76628 0.72092 0.0
C985 C 0.55169 0.76429 0.70708 0.0
C986 C 0.53123 0.75565 0.72488 0.0
C987 C 0.50367 0.72647 0.71222 0.0
H988 H 0.51103 0.70887 0.75361 0.0
C989 C 0.45658 0.68909 0.74228 0.0
C990 C 0.45274 0.69517 0.75712 0.0
C991 C 0.47077 0.69315 0.73511 0.0
C992 C 0.50883 0.71359 0.74201 0.0
H993 H 0.55402 0.75047 0.68583 0.0
H994 H 0.53298 0.73198 0.69268 0.0
H995 H 0.53046 0.72633 0.74193 0.0
H996 H 0.46126 0.70885 0.77678 0.0
H997 H 0.48592 0.71586 0.76444 0.0
H998 H 0.48157 0.71456 0.71269 0.0
C999 C 0.53553 0.74168 0.70049 0.0
C1000 C 0.51994 0.72357 0.73535 0.0
C1001 C 0.54745 0.7523 0.69656 0.0
C1002 C 0.46392 0.70404 0.76531 0.0
C1003 C 0.4781 0.70801 0.75822 0.0
C1004 C 0.49243 0.71658 0.71897 0.0
C1005 C 0.52786 0.74292 0.71502 0.0
C1006 C 0.51718 0.73052 0.72067 0.0
C1007 C 0.48138 0.70321 0.74277 0.0
C1008 C 0.49465 0.71052 0.7342 0.0
H1009 H 0.54588 0.77548 0.72921 0.0
H1010 H 0.52521 0.757 0.73601 0.0
H1011 H 0.50137 0.73169 0.70085 0.0
H1012 H 0.44814 0.68222 0.73571 0.0
H1013 H 0.47309 0.6891 0.72329 0.0
C1014 C 0.29692 0.45178 0.75024 0.0
C1015 C 0.28742 0.44679 0.76278 0.0
C1016 C 0.29185 0.46388 0.74032 0.0
C1017 C 0.2785 0.49542 0.72646 0.0
H1018 H 0.23576 0.48824 0.71244 0.0
C1019 C 0.2457 0.54238 0.69115 0.0
C1020 C 0.23135 0.54633 0.69824 0.0
C1021 C 0.25314 0.52823 0.69489 0.0
C1022 C 0.24771 0.49039 0.71618 0.0
H1023 H 0.26595 0.45144 0.77566 0.0
H1024 H 0.2572 0.47246 0.75842 0.0
H1025 H 0.2488 0.46871 0.72879 0.0
H1026 H 0.21277 0.53804 0.71348 0.0
H1027 H 0.22559 0.51346 0.71994 0.0
H1028 H 0.27712 0.51753 0.71462 0.0
C1029 C 0.26838 0.46687 0.75609 0.0
C1030 C 0.25515 0.47924 0.72555 0.0
C1031 C 0.27347 0.45494 0.76602 0.0
C1032 C 0.22385 0.5353 0.70788 0.0
C1033 C 0.23121 0.52116 0.71153 0.0
C1034 C 0.27098 0.5067 0.71719 0.0
C1035 C 0.2772 0.471 0.74281 0.0
C1036 C 0.2704 0.48191 0.7312 0.0
C1037 C 0.24625 0.51778 0.70565 0.0
C1038 C 0.2553 0.50453 0.71242 0.0
H1039 H 0.30771 0.44567 0.74745 0.0
H1040 H 0.29888 0.46699 0.7302 0.0
H1041 H 0.29029 0.49767 0.73065 0.0
H1042 H 0.25175 0.5507 0.68368 0.0
H1043 H 0.26462 0.52582 0.68999 0.0
C1044 C 0.46349 0.2376 0.69905 0.0
C1045 C 0.44961 0.24451 0.69349 0.0
C1046 C 0.47689 0.24674 0.70135 0.0
C1047 C 0.48513 0.28491 0.71558 0.0
H1048 H 0.52873 0.274 0.70853 0.0
C1049 C 0.55158 0.30263 0.73744 0.0
C1050 C 0.55035 0.29843 0.75335 0.0
C1051 C 0.53895 0.30027 0.72726 0.0
C1052 C 0.51661 0.27738 0.71036 0.0
H1053 H 0.4392 0.26602 0.68468 0.0
H1054 H 0.46256 0.28204 0.68911 0.0
H1055 H 0.50812 0.26051 0.69371 0.0
H1056 H 0.53462 0.28989 0.77141 0.0
H1057 H 0.51235 0.28629 0.75369 0.0
H1058 H 0.49354 0.30087 0.73314 0.0
C1059 C 0.46307 0.26957 0.69154 0.0
C1060 C 0.50487 0.26964 0.70194 0.0
C1061 C 0.44976 0.26037 0.68895 0.0
C1062 C 0.53586 0.29323 0.7592 0.0
C1063 C 0.52313 0.29119 0.74908 0.0
C1064 C 0.49684 0.29242 0.72423 0.0
C1065 C 0.47651 0.26295 0.69836 0.0
C1066 C 0.48903 0.27308 0.70476 0.0
C1067 C 0.52481 0.29405 0.73293 0.0
C1068 C 0.51264 0.28844 0.72195 0.0
H1069 H 0.46367 0.2254 0.70264 0.0
H1070 H 0.48711 0.24138 0.70669 0.0
H1071 H 0.47296 0.28761 0.71811 0.0
H1072 H 0.56264 0.30659 0.7326 0.0
H1073 H 0.54046 0.30259 0.71485 0.0
C1074 C 0.76584 0.45181 0.72807 0.0
C1075 C 0.76363 0.44385 0.71381 0.0
C1076 C 0.75608 0.46424 0.7322 0.0
C1077 C 0.72904 0.4942 0.71876 0.0
H1078 H 0.71167 0.48947 0.76061 0.0
C1079 C 0.69228 0.54328 0.74706 0.0
C1080 C 0.69803 0.54759 0.76191 0.0
C1081 C 0.69667 0.52896 0.74033 0.0
C1082 C 0.71638 0.49095 0.7489 0.0
H1083 H 0.7503 0.44342 0.69214 0.0
H1084 H 0.73332 0.46557 0.69932 0.0
H1085 H 0.7279 0.46867 0.74956 0.0
H1086 H 0.71175 0.53988 0.78188 0.0
H1087 H 0.71934 0.51501 0.77026 0.0
H1088 H 0.71816 0.51685 0.7184 0.0
C1089 C 0.74252 0.46197 0.70731 0.0
C1090 C 0.72568 0.47907 0.74259 0.0
C1091 C 0.75227 0.44938 0.70319 0.0
C1092 C 0.70716 0.53686 0.77041 0.0
C1093 C 0.71146 0.52256 0.76375 0.0
C1094 C 0.71981 0.50619 0.72514 0.0
C1095 C 0.74398 0.46905 0.72213 0.0
C1096 C 0.73251 0.48081 0.72769 0.0
C1097 C 0.70675 0.5187 0.74841 0.0
C1098 C 0.71381 0.50489 0.74049 0.0
H1099 H 0.77457 0.44791 0.73644 0.0
H1100 H 0.75767 0.46978 0.74354 0.0
H1101 H 0.73416 0.49577 0.70723 0.0
H1102 H 0.68522 0.55136 0.74024 0.0
H1103 H 0.6927 0.5262 0.72857 0.0
C1104 C 0.45536 0.27353 0.23587 0.0
C1105 C 0.44978 0.28903 0.23591 0.0
C1106 C 0.46756 0.2691 0.24576 0.0
C1107 C 0.501 0.28189 0.26852 0.0
H1108 H 0.4925 0.2436 0.29173 0.0
C1109 C 0.55005 0.25081 0.30226 0.0
C1110 C 0.55177 0.23529 0.29697 0.0
C1111 C 0.53605 0.25895 0.29957 0.0
C1112 C 0.49501 0.25436 0.28544 0.0
H1113 H 0.45331 0.31233 0.24552 0.0
H1114 H 0.47509 0.30454 0.26274 0.0
H1115 H 0.47179 0.25558 0.27602 0.0
H1116 H 0.53983 0.21556 0.28628 0.0
H1117 H 0.51544 0.22958 0.28177 0.0
H1118 H 0.52449 0.28018 0.27722 0.0
C1119 C 0.46978 0.29585 0.25513 0.0
C1120 C 0.48319 0.26119 0.27643 0.0
C1121 C 0.45742 0.30031 0.24523 0.0
C1122 C 0.53881 0.22754 0.29044 0.0
C1123 C 0.52481 0.23559 0.2879 0.0
C1124 C 0.51289 0.27499 0.27749 0.0
C1125 C 0.47451 0.28007 0.25587 0.0
C1126 C 0.48627 0.27464 0.2674 0.0
C1127 C 0.52354 0.25159 0.29176 0.0
C1128 C 0.51017 0.26081 0.28553 0.0
H1129 H 0.4498 0.2646 0.22871 0.0
H1130 H 0.47129 0.25694 0.24581 0.0
H1131 H 0.50361 0.29228 0.26168 0.0
H1132 H 0.55989 0.25708 0.30731 0.0
H1133 H 0.53531 0.27121 0.30283 0.0
C1134 C 0.72426 0.45298 0.23543 0.0
C1135 C 0.71002 0.4449 0.23726 0.0
C1136 C 0.7282 0.46518 0.24553 0.0
C1137 C 0.71537 0.49518 0.27193 0.0
H1138 H 0.75547 0.4876 0.29218 0.0
C1139 C 0.74566 0.54373 0.30745 0.0
C1140 C 0.76108 0.54638 0.30222 0.0
C1141 C 0.738 0.52967 0.3038 0.0
C1142 C 0.74424 0.48988 0.28669 0.0
H1143 H 0.68814 0.4441 0.25023 0.0
H1144 H 0.69497 0.46597 0.26778 0.0
H1145 H 0.7438 0.46729 0.27573 0.0
H1146 H 0.78105 0.53598 0.29043 0.0
H1147 H 0.76783 0.5116 0.28409 0.0
H1148 H 0.71626 0.51816 0.28203 0.0
C1149 C 0.7031 0.46257 0.25862 0.0
C1150 C 0.73757 0.47827 0.27731 0.0
C1151 C 0.69919 0.45016 0.24855 0.0
C1152 C 0.76916 0.53426 0.29457 0.0
C1153 C 0.76156 0.52023 0.291 0.0
C1154 C 0.72214 0.50692 0.28121 0.0
C1155 C 0.71792 0.46968 0.25756 0.0
C1156 C 0.72337 0.48104 0.26943 0.0
C1157 C 0.74569 0.51803 0.29499 0.0
C1158 C 0.73694 0.50458 0.28821 0.0
H1159 H 0.73281 0.44928 0.22677 0.0
H1160 H 0.73958 0.47074 0.24433 0.0
H1161 H 0.7044 0.49752 0.26595 0.0
H1162 H 0.73916 0.55289 0.31338 0.0
H1163 H 0.72585 0.52821 0.30723 0.0
C1164 C 0.54036 0.71545 0.22321 0.0
C1165 C 0.55079 0.7041 0.22899 0.0
C1166 C 0.52708 0.7196 0.23178 0.0
C1167 C 0.51471 0.72171 0.27276 0.0
H1168 H 0.47618 0.73725 0.25425 0.0
C1169 C 0.46118 0.74825 0.30662 0.0
C1170 C 0.45392 0.76112 0.29927 0.0
C1171 C 0.47382 0.74066 0.29938 0.0
C1172 C 0.48694 0.73305 0.25956 0.0
H1173 H 0.55484 0.68717 0.24754 0.0
H1174 H 0.5314 0.69429 0.2625 0.0
H1175 H 0.49465 0.72258 0.23811 0.0
H1176 H 0.45526 0.77724 0.27962 0.0
H1177 H 0.47738 0.76413 0.26715 0.0
H1178 H 0.50688 0.7323 0.29424 0.0
C1179 C 0.53367 0.70017 0.25146 0.0
C1180 C 0.49747 0.72459 0.25034 0.0
C1181 C 0.54697 0.69596 0.2428 0.0
C1182 C 0.46053 0.76726 0.28547 0.0
C1183 C 0.47308 0.75967 0.27825 0.0
C1184 C 0.50407 0.73009 0.28204 0.0
C1185 C 0.52395 0.71249 0.24634 0.0
C1186 C 0.51166 0.71916 0.25671 0.0
C1187 C 0.4793 0.74585 0.28472 0.0
C1188 C 0.4903 0.73619 0.27539 0.0
H1189 H 0.54302 0.72191 0.21258 0.0
H1190 H 0.51991 0.72919 0.22751 0.0
H1191 H 0.52563 0.71785 0.27799 0.0
H1192 H 0.45631 0.74326 0.31724 0.0
H1193 H 0.4785 0.73008 0.30465 0.0
C1194 C 0.2923 0.53365 0.23386 0.0
C1195 C 0.30176 0.54505 0.24102 0.0
C1196 C 0.28871 0.51978 0.24173 0.0
C1197 C 0.28262 0.50672 0.28186 0.0
H1198 H 0.27221 0.46771 0.26088 0.0
C1199 C 0.25109 0.44868 0.30507 0.0
C1200 C 0.23762 0.44572 0.29598 0.0
C1201 C 0.26095 0.46129 0.30132 0.0
C1202 C 0.27522 0.4785 0.26691 0.0
H1203 H 0.31602 0.55038 0.26141 0.0
H1204 H 0.30976 0.52598 0.27521 0.0
H1205 H 0.28861 0.487 0.24748 0.0
H1206 H 0.22292 0.45456 0.27718 0.0
H1207 H 0.24013 0.47646 0.2707 0.0
H1208 H 0.26877 0.49816 0.30115 0.0
C1209 C 0.30499 0.52788 0.26358 0.0
C1210 C 0.28456 0.48952 0.25927 0.0
C1211 C 0.30869 0.54176 0.25562 0.0
C1212 C 0.23328 0.45649 0.2843 0.0
C1213 C 0.24313 0.46897 0.28054 0.0
C1214 C 0.27337 0.49556 0.28958 0.0
C1215 C 0.29447 0.51705 0.25695 0.0
C1216 C 0.28782 0.50402 0.26639 0.0
C1217 C 0.25736 0.47097 0.28852 0.0
C1218 C 0.26916 0.48167 0.28188 0.0
H1219 H 0.28682 0.53589 0.2226 0.0
H1220 H 0.28046 0.51176 0.23632 0.0
H1221 H 0.28481 0.51784 0.2876 0.0
H1222 H 0.25474 0.44053 0.31411 0.0
H1223 H 0.27191 0.46273 0.30761 0.0
C1224 C 0.73115 0.69294 0.54729 0.0
C1225 C 0.74704 0.69734 0.54672 0.0
C1226 C 0.72154 0.69501 0.53417 0.0
C1227 C 0.70529 0.71751 0.51118 0.0
H1228 H 0.71547 0.70839 0.46778 0.0
C1229 C 0.69398 0.75816 0.45854 0.0
C1230 C 0.68913 0.75135 0.44435 0.0
C1231 C 0.69667 0.74876 0.47171 0.0
C1232 C 0.71229 0.7108 0.47985 0.0
H1233 H 0.76572 0.70576 0.53167 0.0
H1234 H 0.74902 0.70891 0.5086 0.0
H1235 H 0.7297 0.69498 0.48883 0.0
H1236 H 0.68216 0.72959 0.43308 0.0
H1237 H 0.68723 0.71317 0.45603 0.0
H1238 H 0.68869 0.73417 0.5022 0.0
C1239 C 0.74396 0.70407 0.51921 0.0
C1240 C 0.72046 0.70319 0.49185 0.0
C1241 C 0.75351 0.7023 0.53241 0.0
C1242 C 0.68589 0.73517 0.44388 0.0
C1243 C 0.68885 0.72575 0.45696 0.0
C1244 C 0.69732 0.72533 0.49918 0.0
C1245 C 0.72777 0.70115 0.52022 0.0
C1246 C 0.71728 0.70676 0.5076 0.0
C1247 C 0.69477 0.7324 0.4708 0.0
C1248 C 0.70102 0.72231 0.48343 0.0
H1249 H 0.72585 0.68913 0.5582 0.0
H1250 H 0.7091 0.69261 0.53517 0.0
H1251 H 0.70276 0.7206 0.52325 0.0
H1252 H 0.69655 0.77059 0.45922 0.0
H1253 H 0.70132 0.75415 0.48224 0.0
C1254 C 0.74508 0.30304 0.45685 0.0
C1255 C 0.75864 0.29435 0.45316 0.0
C1256 C 0.73531 0.29827 0.46919 0.0
C1257 C 0.72149 0.26278 0.48519 0.0
H1258 H 0.71381 0.2817 0.52583 0.0
C1259 C 0.70782 0.22716 0.53968 0.0
C1260 C 0.69917 0.23375 0.55202 0.0
C1261 C 0.71043 0.23566 0.52596 0.0
C1262 C 0.71544 0.27645 0.51437 0.0
H1263 H 0.77338 0.27487 0.46034 0.0
H1264 H 0.7563 0.26658 0.48171 0.0
H1265 H 0.7287 0.2962 0.50595 0.0
H1266 H 0.68527 0.25381 0.55923 0.0
H1267 H 0.68977 0.26871 0.53509 0.0
H1268 H 0.70871 0.24288 0.49354 0.0
C1269 C 0.75319 0.27693 0.47501 0.0
C1270 C 0.72404 0.28473 0.50308 0.0
C1271 C 0.76297 0.28174 0.46284 0.0
C1272 C 0.69199 0.24844 0.54987 0.0
C1273 C 0.69469 0.25703 0.53613 0.0
C1274 C 0.71279 0.25459 0.49635 0.0
C1275 C 0.73902 0.28477 0.47785 0.0
C1276 C 0.72761 0.27766 0.48868 0.0
C1277 C 0.70447 0.25097 0.5243 0.0
C1278 C 0.71025 0.26104 0.51131 0.0
H1279 H 0.74144 0.31279 0.44956 0.0
H1280 H 0.72442 0.30447 0.4713 0.0
H1281 H 0.72402 0.25723 0.47403 0.0
H1282 H 0.71346 0.21584 0.54102 0.0
H1283 H 0.71813 0.23065 0.51717 0.0
C1284 C 0.24484 0.69519 0.45258 0.0
C1285 C 0.23072 0.70288 0.44896 0.0
C1286 C 0.25268 0.69845 0.46662 0.0
C1287 C 0.24906 0.72044 0.50448 0.0
H1288 H 0.29324 0.72916 0.49763 0.0
C1289 C 0.28202 0.76627 0.53998 0.0
C1290 C 0.29431 0.76025 0.54917 0.0
C1291 C 0.27573 0.75738 0.52779 0.0
C1292 C 0.28096 0.72661 0.49972 0.0
H1293 H 0.21298 0.71886 0.45776 0.0
H1294 H 0.22667 0.72479 0.48193 0.0
H1295 H 0.27828 0.71513 0.47759 0.0
H1296 H 0.3106 0.74087 0.55193 0.0
H1297 H 0.2998 0.72551 0.5301 0.0
H1298 H 0.25163 0.73285 0.52618 0.0
C1299 C 0.23174 0.71612 0.47415 0.0
C1300 C 0.27239 0.71846 0.48834 0.0
C1301 C 0.22387 0.71277 0.46021 0.0
C1302 C 0.30112 0.74579 0.54503 0.0
C1303 C 0.29494 0.73698 0.53263 0.0
C1304 C 0.25756 0.7288 0.51568 0.0
C1305 C 0.24656 0.70952 0.47723 0.0
C1306 C 0.25622 0.71564 0.49041 0.0
C1307 C 0.28178 0.74246 0.5244 0.0
C1308 C 0.27345 0.73227 0.51319 0.0
H1309 H 0.25033 0.6874 0.44416 0.0
H1310 H 0.26388 0.69286 0.46881 0.0
H1311 H 0.23674 0.71817 0.50664 0.0
H1312 H 0.27654 0.77737 0.54287 0.0
H1313 H 0.26569 0.76188 0.52141 0.0
C1314 C 0.2281 0.27052 0.54511 0.0
C1315 C 0.22996 0.28496 0.55283 0.0
C1316 C 0.23801 0.26641 0.53281 0.0
C1317 C 0.26432 0.27947 0.50243 0.0
H1318 H 0.28358 0.2387 0.50905 0.0
C1319 C 0.2992 0.24946 0.4533 0.0
C1320 C 0.29318 0.23445 0.4501 0.0
C1321 C 0.29584 0.25682 0.46759 0.0
C1322 C 0.27839 0.25014 0.50706 0.0
H1323 H 0.24274 0.30698 0.55289 0.0
H1324 H 0.25994 0.29982 0.5309 0.0
H1325 H 0.26741 0.25028 0.52963 0.0
H1326 H 0.2803 0.21475 0.45971 0.0
H1327 H 0.27454 0.22742 0.48455 0.0
H1328 H 0.27451 0.27892 0.47948 0.0
C1329 C 0.25093 0.29167 0.53464 0.0
C1330 C 0.26913 0.25673 0.51881 0.0
C1331 C 0.24104 0.29578 0.54712 0.0
C1332 C 0.28504 0.22635 0.46188 0.0
C1333 C 0.28181 0.23362 0.47616 0.0
C1334 C 0.2735 0.27279 0.49057 0.0
C1335 C 0.24988 0.27669 0.52788 0.0
C1336 C 0.26156 0.27116 0.51636 0.0
C1337 C 0.2866 0.24917 0.47891 0.0
C1338 C 0.28012 0.25778 0.49257 0.0
H1339 H 0.21959 0.26199 0.54916 0.0
H1340 H 0.23678 0.25492 0.5275 0.0
H1341 H 0.25862 0.29064 0.50034 0.0
H1342 H 0.30551 0.25596 0.44438 0.0
H1343 H 0.29984 0.26874 0.46949 0.0
C1344 C 0.16942 0.13863 0.28806 0.0
C1345 C 0.16875 0.12533 0.27835 0.0
C1346 C 0.15956 0.15142 0.2853 0.0
C1347 C 0.12532 0.16534 0.26194 0.0
H1348 H 0.14898 0.20421 0.26058 0.0
C1349 C 0.10769 0.21768 0.22321 0.0
C1350 C 0.10998 0.23296 0.22896 0.0
C1351 C 0.11288 0.20472 0.23176 0.0
C1352 C 0.14208 0.19355 0.26117 0.0
H1353 H 0.15647 0.11445 0.25892 0.0
H1354 H 0.13942 0.13685 0.25392 0.0
H1355 H 0.1609 0.18085 0.27174 0.0
H1356 H 0.11921 0.24667 0.2483 0.0
H1357 H 0.12831 0.22395 0.26329 0.0
H1358 H 0.10669 0.17802 0.25081 0.0
C1359 C 0.14743 0.13739 0.26376 0.0
C1360 C 0.1489 0.18013 0.26761 0.0
C1361 C 0.15725 0.12456 0.26659 0.0
C1362 C 0.11738 0.23502 0.24354 0.0
C1363 C 0.1226 0.22203 0.2521 0.0
C1364 C 0.11849 0.17878 0.25547 0.0
C1365 C 0.14891 0.15119 0.27271 0.0
C1366 C 0.14073 0.16579 0.26779 0.0
C1367 C 0.12048 0.20674 0.24625 0.0
C1368 C 0.12693 0.19294 0.25471 0.0
H1369 H 0.17809 0.13948 0.29732 0.0
H1370 H 0.16075 0.16174 0.29262 0.0
H1371 H 0.11864 0.15452 0.2621 0.0
H1372 H 0.102 0.21573 0.21202 0.0
H1373 H 0.11129 0.19312 0.2268 0.0
C1374 C 0.84994 0.17345 0.28166 0.0
C1375 C 0.86537 0.16769 0.2811 0.0
C1376 C 0.83722 0.16317 0.28153 0.0
C1377 C 0.82625 0.12451 0.26717 0.0
H1378 H 0.78777 0.13291 0.28999 0.0
C1379 C 0.76985 0.09137 0.25188 0.0
C1380 C 0.75693 0.10126 0.24925 0.0
C1381 C 0.78303 0.0969 0.25992 0.0
C1382 C 0.79843 0.13039 0.28355 0.0
H1383 H 0.87962 0.14663 0.28045 0.0
H1384 H 0.85726 0.12856 0.28006 0.0
H1385 H 0.81155 0.14756 0.29639 0.0
H1386 H 0.74716 0.12428 0.25392 0.0
H1387 H 0.77015 0.134 0.26777 0.0
H1388 H 0.81305 0.10791 0.25382 0.0
C1389 C 0.85507 0.14107 0.28059 0.0
C1390 C 0.81205 0.13876 0.28722 0.0
C1391 C 0.86784 0.15139 0.28085 0.0
C1392 C 0.75696 0.11639 0.25577 0.0
C1393 C 0.77013 0.12193 0.26378 0.0
C1394 C 0.81264 0.11617 0.26347 0.0
C1395 C 0.83962 0.14687 0.28073 0.0
C1396 C 0.82597 0.13624 0.27875 0.0
C1397 C 0.78354 0.11244 0.26547 0.0
C1398 C 0.79845 0.11934 0.2713 0.0
H1399 H 0.84766 0.18596 0.28191 0.0
H1400 H 0.82547 0.16803 0.28141 0.0
H1401 H 0.83674 0.12241 0.26031 0.0
H1402 H 0.77012 0.07961 0.24707 0.0
H1403 H 0.79306 0.08921 0.26127 0.0
C1404 C 0.88635 0.76677 0.2361 0.0
C1405 C 0.87844 0.75298 0.23172 0.0
C1406 C 0.87815 0.77929 0.24277 0.0
C1407 C 0.83853 0.79599 0.24345 0.0
H1408 H 0.85556 0.82321 0.27572 0.0
C1409 C 0.80307 0.84779 0.26741 0.0
C1410 C 0.811 0.86215 0.26895 0.0
C1411 C 0.81137 0.83395 0.26478 0.0
C1412 C 0.85072 0.81577 0.26663 0.0
H1413 H 0.85593 0.74115 0.23156 0.0
H1414 H 0.84161 0.76296 0.24341 0.0
H1415 H 0.86985 0.79951 0.26811 0.0
H1416 H 0.83387 0.87327 0.26942 0.0
H1417 H 0.84846 0.849 0.26458 0.0
H1418 H 0.81956 0.81227 0.24174 0.0
C1419 C 0.8541 0.7642 0.24144 0.0
C1420 C 0.85888 0.80219 0.26229 0.0
C1421 C 0.86231 0.75168 0.23475 0.0
C1422 C 0.82746 0.86235 0.26827 0.0
C1423 C 0.8358 0.84845 0.26558 0.0
C1424 C 0.8304 0.80951 0.24778 0.0
C1425 C 0.86187 0.77828 0.2452 0.0
C1426 C 0.85289 0.7922 0.2506 0.0
C1427 C 0.82781 0.83414 0.26355 0.0
C1428 C 0.83641 0.81958 0.25937 0.0
H1429 H 0.8988 0.7681 0.23391 0.0
H1430 H 0.88446 0.79001 0.2454 0.0
H1431 H 0.83376 0.78874 0.23416 0.0
H1432 H 0.79038 0.84725 0.26803 0.0
H1433 H 0.80489 0.82308 0.26357 0.0
C1434 C 0.21414 0.89372 0.20948 0.0
C1435 C 0.22903 0.89212 0.21636 0.0
C1436 C 0.20069 0.88919 0.2177 0.0
C1437 C 0.18852 0.86224 0.24879 0.0
H1438 H 0.14909 0.88489 0.24675 0.0
C1439 C 0.13393 0.83684 0.27796 0.0
C1440 C 0.12047 0.83658 0.26847 0.0
C1441 C 0.14662 0.84643 0.27408 0.0
C1442 C 0.16001 0.87842 0.24739 0.0
H1443 H 0.24154 0.88505 0.23736 0.0
H1444 H 0.21807 0.87717 0.25172 0.0
H1445 H 0.17264 0.89624 0.2349 0.0
H1446 H 0.10925 0.84688 0.2481 0.0
H1447 H 0.13153 0.86338 0.24108 0.0
H1448 H 0.17596 0.84418 0.26072 0.0
C1449 C 0.21679 0.88175 0.23993 0.0
C1450 C 0.17348 0.88492 0.24061 0.0
C1451 C 0.23021 0.8863 0.23173 0.0
C1452 C 0.11949 0.84686 0.25563 0.0
C1453 C 0.13226 0.85636 0.25165 0.0
C1454 C 0.1751 0.85574 0.2555 0.0
C1455 C 0.2019 0.88295 0.23293 0.0
C1456 C 0.18782 0.87679 0.24108 0.0
C1457 C 0.14617 0.85582 0.26051 0.0
C1458 C 0.16063 0.86365 0.25473 0.0
H1459 H 0.21289 0.89821 0.19765 0.0
H1460 H 0.1894 0.89009 0.21193 0.0
H1461 H 0.19933 0.85555 0.24912 0.0
H1462 H 0.13493 0.82915 0.28804 0.0
H1463 H 0.15702 0.84603 0.28137 0.0
C1464 C 0.10361 0.76513 0.76205 0.0
C1465 C 0.10601 0.76376 0.77831 0.0
C1466 C 0.10867 0.77853 0.75401 0.0
C1467 C 0.12057 0.81984 0.76035 0.0
H1468 H 0.14501 0.8143 0.72238 0.0
C1469 C 0.15264 0.87183 0.73144 0.0
C1470 C 0.16858 0.86874 0.72865 0.0
C1471 C 0.14224 0.85949 0.73452 0.0
C1472 C 0.13811 0.81605 0.73291 0.0
H1473 H 0.11548 0.77531 0.79892 0.0
H1474 H 0.12441 0.79853 0.78492 0.0
H1475 H 0.13198 0.79172 0.73425 0.0
H1476 H 0.186 0.85037 0.72602 0.0
H1477 H 0.16798 0.82896 0.73143 0.0
H1478 H 0.12736 0.84398 0.75951 0.0
C1479 C 0.11844 0.78941 0.77839 0.0
C1480 C 0.13055 0.80314 0.73963 0.0
C1481 C 0.11346 0.77603 0.78638 0.0
C1482 C 0.17378 0.85311 0.7282 0.0
C1483 C 0.16341 0.84082 0.73117 0.0
C1484 C 0.1281 0.83274 0.75362 0.0
C1485 C 0.11612 0.79082 0.76212 0.0
C1486 C 0.12212 0.80482 0.75371 0.0
C1487 C 0.14761 0.84388 0.73472 0.0
C1488 C 0.13736 0.83088 0.74011 0.0
H1489 H 0.09784 0.75586 0.75554 0.0
H1490 H 0.10668 0.77932 0.74148 0.0
H1491 H 0.11393 0.82153 0.77106 0.0
H1492 H 0.14833 0.88379 0.7318 0.0
H1493 H 0.13009 0.86218 0.73711 0.0
C1494 C 0.24218 0.13161 0.75023 0.0
C1495 C 0.24044 0.11975 0.76153 0.0
C1496 C 0.22894 0.13862 0.74349 0.0
C1497 C 0.18638 0.13328 0.73707 0.0
H1498 H 0.18488 0.17873 0.73822 0.0
C1499 C 0.12847 0.16831 0.73434 0.0
C1500 C 0.12858 0.18306 0.72702 0.0
C1501 C 0.14239 0.15976 0.73595 0.0
C1502 C 0.18517 0.16605 0.7375 0.0
H1503 H 0.22361 0.1055 0.77425 0.0
H1504 H 0.2006 0.11765 0.76248 0.0
H1505 H 0.209 0.16523 0.74537 0.0
H1506 H 0.1431 0.2001 0.7149 0.0
H1507 H 0.16726 0.18506 0.71738 0.0
H1508 H 0.16247 0.13408 0.7294 0.0
C1509 C 0.21212 0.12154 0.75878 0.0
C1510 C 0.19901 0.15832 0.74162 0.0
C1511 C 0.2253 0.11467 0.76561 0.0
C1512 C 0.14269 0.18881 0.72074 0.0
C1513 C 0.15656 0.18023 0.72224 0.0
C1514 C 0.17254 0.14102 0.73285 0.0
C1515 C 0.21378 0.13373 0.74781 0.0
C1516 C 0.19967 0.14186 0.74172 0.0
C1517 C 0.15666 0.16577 0.73017 0.0
C1518 C 0.17169 0.15749 0.73328 0.0
H1519 H 0.25373 0.13572 0.74686 0.0
H1520 H 0.23055 0.14794 0.73499 0.0
H1521 H 0.18662 0.12057 0.73687 0.0
H1522 H 0.11776 0.16362 0.73932 0.0
H1523 H 0.14205 0.14874 0.74227 0.0
C1524 C 0.90078 0.22978 0.74364 0.0
C1525 C 0.89048 0.24149 0.74902 0.0
C1526 C 0.89497 0.21663 0.73574 0.0
C1527 C 0.85967 0.2 0.71639 0.0
H1528 H 0.87193 0.16141 0.7372 0.0
C1529 C 0.8186 0.14741 0.72174 0.0
C1530 C 0.82467 0.1321 0.72181 0.0
C1531 C 0.82861 0.16032 0.72093 0.0
C1532 C 0.86861 0.17198 0.73096 0.0
H1533 H 0.86627 0.24925 0.74935 0.0
H1534 H 0.85614 0.22641 0.73549 0.0
H1535 H 0.88633 0.1855 0.74248 0.0
H1536 H 0.84595 0.11822 0.72055 0.0
H1537 H 0.86356 0.1409 0.7191 0.0
H1538 H 0.84158 0.18658 0.7053 0.0
C1539 C 0.86868 0.22733 0.73735 0.0
C1540 C 0.87688 0.1858 0.73399 0.0
C1541 C 0.87446 0.24038 0.74537 0.0
C1542 C 0.84097 0.12992 0.7206 0.0
C1543 C 0.85103 0.14288 0.71981 0.0
C1544 C 0.85146 0.18616 0.71329 0.0
C1545 C 0.8788 0.21507 0.73291 0.0
C1546 C 0.87213 0.20006 0.72718 0.0
C1547 C 0.84495 0.15824 0.72015 0.0
C1548 C 0.85546 0.17212 0.72101 0.0
H1549 H 0.9132 0.23035 0.74629 0.0
H1550 H 0.90304 0.20741 0.73233 0.0
H1551 H 0.85591 0.21078 0.7108 0.0
H1552 H 0.80609 0.14947 0.72264 0.0
H1553 H 0.82353 0.17195 0.72151 0.0
C1554 C 0.8482 0.81994 0.71271 0.0
C1555 C 0.86403 0.82376 0.71517 0.0
C1556 C 0.83659 0.83142 0.71388 0.0
C1557 C 0.82888 0.86783 0.73466 0.0
H1558 H 0.79089 0.86801 0.70959 0.0
C1559 C 0.77599 0.90439 0.7539 0.0
C1560 C 0.7617 0.89619 0.75396 0.0
C1561 C 0.78885 0.89861 0.74555 0.0
C1562 C 0.80142 0.86811 0.7167 0.0
H1563 H 0.88026 0.84271 0.72009 0.0
H1564 H 0.85988 0.86287 0.72225 0.0
H1565 H 0.81329 0.85213 0.70133 0.0
H1566 H 0.74933 0.87605 0.74461 0.0
H1567 H 0.77183 0.86573 0.73031 0.0
H1568 H 0.81689 0.88313 0.75044 0.0
C1569 C 0.85647 0.85094 0.71947 0.0
C1570 C 0.81425 0.85905 0.71195 0.0
C1571 C 0.86813 0.83944 0.71818 0.0
C1572 C 0.76021 0.88262 0.74475 0.0
C1573 C 0.77311 0.87676 0.73649 0.0
C1574 C 0.81606 0.87683 0.73944 0.0
C1575 C 0.84055 0.84697 0.71763 0.0
C1576 C 0.82796 0.85849 0.72112 0.0
C1577 C 0.78773 0.88442 0.7372 0.0
C1578 C 0.80202 0.87676 0.73075 0.0
H1579 H 0.84469 0.80795 0.71031 0.0
H1580 H 0.82444 0.82793 0.71259 0.0
H1581 H 0.83919 0.8675 0.7421 0.0
H1582 H 0.77743 0.91498 0.76078 0.0
H1583 H 0.79984 0.90498 0.74608 0.0
C1584 C 0.24066 0.10846 0.23025 0.0
C1585 C 0.23526 0.11697 0.2433 0.0
C1586 C 0.2474 0.11623 0.21747 0.0
C1587 C 0.24692 0.15519 0.19882 0.0
H1588 H 0.2804 0.13828 0.17302 0.0
C1589 C 0.2721 0.19056 0.14787 0.0
C1590 C 0.27344 0.18274 0.13342 0.0
C1591 C 0.26952 0.18216 0.16166 0.0
C1592 C 0.27099 0.14307 0.18009 0.0
H1593 H 0.23355 0.14012 0.25368 0.0
H1594 H 0.24568 0.15366 0.2316 0.0
H1595 H 0.27246 0.12443 0.19693 0.0
H1596 H 0.27388 0.15995 0.12214 0.0
H1597 H 0.26923 0.14516 0.1464 0.0
H1598 H 0.24534 0.17374 0.18206 0.0
C1599 C 0.24432 0.14103 0.231 0.0
C1600 C 0.26643 0.13516 0.19377 0.0
C1601 C 0.23747 0.13328 0.24371 0.0
C1602 C 0.27286 0.16627 0.13313 0.0
C1603 C 0.27027 0.15782 0.147 0.0
C1604 C 0.2515 0.16309 0.18527 0.0
C1605 C 0.24896 0.13266 0.21754 0.0
C1606 C 0.25434 0.14116 0.20329 0.0
C1607 C 0.26818 0.16574 0.16133 0.0
C1608 C 0.26359 0.15716 0.17576 0.0
H1609 H 0.23907 0.09586 0.22961 0.0
H1610 H 0.25072 0.10943 0.20726 0.0
H1611 H 0.23728 0.15993 0.20561 0.0
H1612 H 0.27265 0.20324 0.14851 0.0
H1613 H 0.26826 0.18856 0.17257 0.0
C1614 C 0.83722 0.28251 0.1391 0.0
C1615 C 0.83701 0.27173 0.12663 0.0
C1616 C 0.84688 0.27998 0.15209 0.0
C1617 C 0.87932 0.25532 0.16783 0.0
H1618 H 0.85581 0.25865 0.20667 0.0
C1619 C 0.89388 0.21911 0.22282 0.0
C1620 C 0.89158 0.22581 0.2377 0.0
C1621 C 0.88971 0.2273 0.20928 0.0
C1622 C 0.8627 0.25794 0.19601 0.0
H1623 H 0.84755 0.2505 0.1174 0.0
H1624 H 0.86428 0.24595 0.14016 0.0
H1625 H 0.84463 0.26884 0.18253 0.0
H1626 H 0.88359 0.24654 0.25009 0.0
H1627 H 0.87633 0.26094 0.22635 0.0
H1628 H 0.89718 0.24391 0.18134 0.0
C1629 C 0.85709 0.25643 0.13989 0.0
C1630 C 0.85629 0.26381 0.18214 0.0
C1631 C 0.84746 0.259 0.12686 0.0
C1632 C 0.8854 0.24105 0.23877 0.0
C1633 C 0.88121 0.24927 0.22519 0.0
C1634 C 0.88575 0.24945 0.18174 0.0
C1635 C 0.85647 0.26659 0.15289 0.0
C1636 C 0.86436 0.26227 0.16782 0.0
C1637 C 0.88315 0.2424 0.21029 0.0
C1638 C 0.87735 0.25038 0.19592 0.0
H1639 H 0.82938 0.29252 0.13917 0.0
H1640 H 0.84637 0.28819 0.16178 0.0
H1641 H 0.88592 0.25415 0.15703 0.0
H1642 H 0.89866 0.20738 0.22163 0.0
H1643 H 0.89114 0.22156 0.19802 0.0
C1644 C 0.7435 0.88321 0.2354 0.0
C1645 C 0.75402 0.89588 0.23515 0.0
C1646 C 0.73633 0.87815 0.22153 0.0
C1647 C 0.74452 0.87816 0.17925 0.0
H1648 H 0.70421 0.85724 0.17669 0.0
C1649 C 0.72675 0.84431 0.12379 0.0
C1650 C 0.72161 0.82895 0.1268 0.0
C1651 C 0.72754 0.85532 0.13594 0.0
C1652 C 0.71548 0.86309 0.17722 0.0
H1653 H 0.76427 0.91405 0.22059 0.0
H1654 H 0.75145 0.90551 0.1965 0.0
H1655 H 0.71112 0.87187 0.20038 0.0
H1656 H 0.7124 0.8133 0.14465 0.0
H1657 H 0.71388 0.83241 0.1658 0.0
H1658 H 0.74914 0.869 0.15638 0.0
C1659 C 0.74907 0.89917 0.20726 0.0
C1660 C 0.71945 0.87144 0.19079 0.0
C1661 C 0.75634 0.90411 0.22107 0.0
C1662 C 0.71648 0.82504 0.14198 0.0
C1663 C 0.7172 0.83604 0.15409 0.0
C1664 C 0.74054 0.86988 0.16571 0.0
C1665 C 0.73946 0.88576 0.2072 0.0
C1666 C 0.73418 0.87876 0.19211 0.0
C1667 C 0.72312 0.85118 0.1513 0.0
C1668 C 0.72615 0.86192 0.16468 0.0
H1669 H 0.74152 0.87664 0.2461 0.0
H1670 H 0.72909 0.86772 0.22191 0.0
H1671 H 0.75608 0.8834 0.17992 0.0
H1672 H 0.73071 0.84766 0.11218 0.0
H1673 H 0.73198 0.86696 0.1334 0.0
C1674 C 0.09843 0.76011 0.22863 0.0
C1675 C 0.10807 0.76685 0.2402 0.0
C1676 C 0.10503 0.75171 0.21619 0.0
C1677 C 0.14133 0.73216 0.20265 0.0
H1678 H 0.12898 0.74706 0.16145 0.0
C1679 C 0.18222 0.72897 0.14963 0.0
C1680 C 0.17601 0.72649 0.13457 0.0
C1681 C 0.17232 0.73056 0.16255 0.0
C1682 C 0.13235 0.74247 0.17281 0.0
H1683 H 0.13204 0.76943 0.24829 0.0
H1684 H 0.14356 0.75468 0.22665 0.0
H1685 H 0.11432 0.75547 0.18452 0.0
H1686 H 0.15459 0.72327 0.12125 0.0
H1687 H 0.13717 0.72598 0.14396 0.0
H1688 H 0.1596 0.71948 0.19102 0.0
C1689 C 0.13092 0.75585 0.22719 0.0
C1690 C 0.12395 0.74731 0.18604 0.0
C1691 C 0.12433 0.76438 0.23953 0.0
C1692 C 0.15968 0.72524 0.13273 0.0
C1693 C 0.14973 0.72684 0.14571 0.0
C1694 C 0.14966 0.72725 0.18943 0.0
C1695 C 0.12137 0.74974 0.2152 0.0
C1696 C 0.12866 0.74258 0.20112 0.0
C1697 C 0.15596 0.72967 0.16074 0.0
C1698 C 0.14559 0.73276 0.17441 0.0
H1699 H 0.08584 0.76183 0.22887 0.0
H1700 H 0.09741 0.74702 0.20716 0.0
H1701 H 0.14505 0.72814 0.21413 0.0
H1702 H 0.19476 0.72999 0.15143 0.0
H1703 H 0.17752 0.73301 0.17388 0.0
C1704 C 0.24506 0.88109 0.75941 0.0
C1705 C 0.23283 0.89175 0.76232 0.0
C1706 C 0.25364 0.87474 0.77185 0.0
C1707 C 0.26243 0.87851 0.81433 0.0
H1708 H 0.26432 0.8331 0.81266 0.0
C1709 C 0.27054 0.83902 0.86911 0.0
C1710 C 0.27772 0.82435 0.86705 0.0
C1711 C 0.2683 0.84899 0.85623 0.0
C1712 C 0.26427 0.8458 0.81325 0.0
H1713 H 0.22058 0.90482 0.7804 0.0
H1714 H 0.23552 0.89366 0.80213 0.0
H1715 H 0.25486 0.84757 0.7901 0.0
H1716 H 0.28948 0.80914 0.85042 0.0
H1717 H 0.28623 0.82673 0.82818 0.0
H1718 H 0.27162 0.87665 0.83767 0.0
C1719 C 0.23853 0.89027 0.79025 0.0
C1720 C 0.2588 0.8541 0.80027 0.0
C1721 C 0.22991 0.89657 0.77782 0.0
C1722 C 0.28368 0.82031 0.85225 0.0
C1723 C 0.28172 0.83035 0.83949 0.0
C1724 C 0.26804 0.87018 0.82734 0.0
C1725 C 0.2502 0.87897 0.78743 0.0
C1726 C 0.25761 0.87052 0.80072 0.0
C1727 C 0.27342 0.84452 0.84116 0.0
C1728 C 0.26884 0.85369 0.82702 0.0
H1729 H 0.24763 0.87724 0.74757 0.0
H1730 H 0.26271 0.8662 0.76932 0.0
H1731 H 0.26173 0.89119 0.81496 0.0
H1732 H 0.26581 0.84237 0.88042 0.0
H1733 H 0.26179 0.85977 0.85795 0.0
C1734 C 0.09109 0.24818 0.77481 0.0
C1735 C 0.10118 0.24572 0.762 0.0
C1736 C 0.09648 0.25589 0.78826 0.0
C1737 C 0.12927 0.27984 0.80418 0.0
H1738 H 0.12282 0.25528 0.84196 0.0
C1739 C 0.17383 0.27759 0.85411 0.0
C1740 C 0.16873 0.27607 0.8697 0.0
C1741 C 0.16306 0.2777 0.84181 0.0
C1742 C 0.12446 0.26252 0.83164 0.0
H1743 H 0.12442 0.25026 0.75275 0.0
H1744 H 0.13382 0.26372 0.77612 0.0
H1745 H 0.10802 0.24901 0.81833 0.0
H1746 H 0.14832 0.27401 0.88473 0.0
H1747 H 0.12936 0.27407 0.86309 0.0
H1748 H 0.14622 0.29291 0.81733 0.0
C1749 C 0.12175 0.25977 0.77583 0.0
C1750 C 0.11597 0.25893 0.81808 0.0
C1751 C 0.1164 0.25197 0.76246 0.0
C1752 C 0.15257 0.27515 0.8728 0.0
C1753 C 0.14174 0.27514 0.86043 0.0
C1754 C 0.13774 0.28345 0.81774 0.0
C1755 C 0.11201 0.26139 0.78906 0.0
C1756 C 0.1187 0.2672 0.80406 0.0
C1757 C 0.14691 0.27622 0.84479 0.0
C1758 C 0.13584 0.27445 0.83145 0.0
H1759 H 0.07927 0.24348 0.77476 0.0
H1760 H 0.08868 0.2571 0.79822 0.0
H1761 H 0.13142 0.28659 0.79362 0.0
H1762 H 0.18622 0.27837 0.85135 0.0
H1763 H 0.16747 0.27829 0.8299 0.0
C1764 C 0.76949 0.10713 0.77947 0.0
C1765 C 0.76469 0.10956 0.76389 0.0
C1766 C 0.76085 0.11337 0.7919 0.0
C1767 C 0.73528 0.14637 0.80063 0.0
H1768 H 0.72934 0.12518 0.84048 0.0
C1769 C 0.71027 0.17994 0.853 0.0
C1770 C 0.71829 0.17788 0.86724 0.0
C1771 C 0.71252 0.16947 0.84061 0.0
C1772 C 0.73096 0.13128 0.82945 0.0
H1773 H 0.74679 0.11991 0.74908 0.0
H1774 H 0.7317 0.13098 0.77087 0.0
H1775 H 0.73969 0.11063 0.81804 0.0
H1776 H 0.73426 0.16284 0.88006 0.0
H1777 H 0.73862 0.14477 0.85828 0.0
H1778 H 0.72732 0.16717 0.81204 0.0
C1779 C 0.74219 0.12428 0.77343 0.0
C1780 C 0.73684 0.12293 0.8166 0.0
C1781 C 0.75079 0.11791 0.76098 0.0
C1782 C 0.72791 0.16467 0.8692 0.0
C1783 C 0.73034 0.15428 0.85671 0.0
C1784 C 0.72952 0.15474 0.81347 0.0
C1785 C 0.74728 0.12227 0.78901 0.0
C1786 C 0.7393 0.13047 0.80213 0.0
C1787 C 0.72304 0.15684 0.84211 0.0
C1788 C 0.72753 0.14738 0.82813 0.0
H1789 H 0.78013 0.10068 0.78207 0.0
H1790 H 0.76517 0.11178 0.80375 0.0
H1791 H 0.73728 0.15258 0.78971 0.0
H1792 H 0.70262 0.18995 0.85124 0.0
H1793 H 0.70638 0.17157 0.82968 0.0
C1794 C 0.83979 0.74013 0.872 0.0
C1795 C 0.83156 0.72608 0.87447 0.0
C1796 C 0.84912 0.74204 0.85868 0.0
C1797 C 0.85037 0.72904 0.81816 0.0
H1798 H 0.88874 0.75345 0.8169 0.0
C1799 C 0.87799 0.74968 0.7596 0.0
C1800 C 0.88298 0.76539 0.75944 0.0
C1801 C 0.87396 0.7424 0.77377 0.0
C1802 C 0.87801 0.74665 0.81705 0.0
H1803 H 0.82736 0.70264 0.86549 0.0
H1804 H 0.84368 0.70602 0.8421 0.0
H1805 H 0.87835 0.74467 0.84211 0.0
H1806 H 0.88776 0.78577 0.77392 0.0
H1807 H 0.88047 0.77325 0.79847 0.0
H1808 H 0.84959 0.73159 0.7932 0.0
C1809 C 0.84281 0.71557 0.85044 0.0
C1810 C 0.87211 0.74158 0.83148 0.0
C1811 C 0.83356 0.71362 0.86386 0.0
C1812 C 0.88397 0.77364 0.77367 0.0
C1813 C 0.87994 0.7664 0.78778 0.0
C1814 C 0.85623 0.73417 0.80373 0.0
C1815 C 0.85034 0.72996 0.84751 0.0
C1816 C 0.85801 0.73308 0.83221 0.0
C1817 C 0.87487 0.7507 0.78802 0.0
C1818 C 0.86987 0.74342 0.80305 0.0
H1819 H 0.83847 0.74993 0.88 0.0
H1820 H 0.85466 0.75331 0.8567 0.0
H1821 H 0.83938 0.72267 0.81836 0.0
H1822 H 0.87721 0.74302 0.74881 0.0
H1823 H 0.87021 0.73026 0.77357 0.0
C1824 C 0.12161 0.26595 0.1513 0.0
C1825 C 0.1253 0.27223 0.16608 0.0
C1826 C 0.13334 0.26409 0.13995 0.0
C1827 C 0.17385 0.2756 0.12916 0.0
H1828 H 0.17765 0.23261 0.11481 0.0
C1829 C 0.23278 0.24826 0.11088 0.0
C1830 C 0.23288 0.23586 0.10006 0.0
C1831 C 0.2186 0.25507 0.11553 0.0
C1832 C 0.17665 0.24478 0.11832 0.0
H1833 H 0.1438 0.28239 0.18028 0.0
H1834 H 0.16416 0.2793 0.16048 0.0
H1835 H 0.15418 0.24076 0.12874 0.0
H1836 H 0.21845 0.22159 0.08473 0.0
H1837 H 0.19377 0.2338 0.09241 0.0
H1838 H 0.19649 0.27955 0.11903 0.0
C1839 C 0.15229 0.27578 0.15762 0.0
C1840 C 0.16316 0.24944 0.12634 0.0
C1841 C 0.14065 0.27743 0.169 0.0
C1842 C 0.21868 0.23101 0.09326 0.0
C1843 C 0.20453 0.23796 0.09773 0.0
C1844 C 0.18731 0.27099 0.12098 0.0
C1845 C 0.14886 0.26872 0.14313 0.0
C1846 C 0.16182 0.26475 0.13225 0.0
C1847 C 0.20425 0.24974 0.10929 0.0
C1848 C 0.18908 0.25538 0.11587 0.0
H1849 H 0.10985 0.26185 0.14875 0.0
H1850 H 0.13039 0.25867 0.12883 0.0
H1851 H 0.17304 0.28754 0.13346 0.0
H1852 H 0.24357 0.2522 0.11633 0.0
H1853 H 0.21887 0.26398 0.12459 0.0
C1854 C 0.232 0.75407 0.88259 0.0
C1855 C 0.23273 0.76759 0.89196 0.0
C1856 C 0.21759 0.74686 0.87956 0.0
C1857 C 0.17526 0.75588 0.87873 0.0
H1858 H 0.17155 0.71105 0.87178 0.0
C1859 C 0.11839 0.72989 0.8544 0.0
C1860 C 0.12111 0.72155 0.84045 0.0
C1861 C 0.13079 0.73298 0.8647 0.0
C1862 C 0.17239 0.72357 0.87381 0.0
H1863 H 0.21912 0.78381 0.90607 0.0
H1864 H 0.19404 0.77106 0.9011 0.0
H1865 H 0.19602 0.72182 0.88213 0.0
H1866 H 0.13843 0.70864 0.82702 0.0
H1867 H 0.15997 0.71388 0.84501 0.0
H1868 H 0.1518 0.75769 0.87005 0.0
C1869 C 0.2045 0.76622 0.89574 0.0
C1870 C 0.18643 0.72976 0.87962 0.0
C1871 C 0.21887 0.77351 0.89862 0.0
C1872 C 0.13604 0.71519 0.83766 0.0
C1873 C 0.14836 0.71811 0.84802 0.0
C1874 C 0.16121 0.74968 0.87304 0.0
C1875 C 0.20363 0.75294 0.88598 0.0
C1876 C 0.18817 0.74604 0.88173 0.0
C1877 C 0.14602 0.72758 0.8613 0.0
C1878 C 0.15978 0.73353 0.87011 0.0
H1879 H 0.24253 0.74925 0.87732 0.0
H1880 H 0.21735 0.73681 0.87179 0.0
H1881 H 0.17621 0.76849 0.87998 0.0
H1882 H 0.10697 0.73492 0.85682 0.0
H1883 H 0.12864 0.74019 0.87495 0.0
C1884 C 0.22735 0.21989 0.89178 0.0
C1885 C 0.23138 0.23556 0.88861 0.0
C1886 C 0.23608 0.2076 0.88539 0.0
C1887 C 0.26056 0.19886 0.85144 0.0
H1888 H 0.26883 0.15987 0.87346 0.0
C1889 C 0.2874 0.14701 0.81868 0.0
C1890 C 0.27996 0.13251 0.82104 0.0
C1891 C 0.28478 0.15946 0.82897 0.0
C1892 C 0.26656 0.17066 0.86714 0.0
H1893 H 0.24804 0.2507 0.87677 0.0
H1894 H 0.26334 0.22915 0.86553 0.0
H1895 H 0.25803 0.18227 0.88777 0.0
H1896 H 0.26468 0.1193 0.83647 0.0
H1897 H 0.2597 0.1412 0.85428 0.0
H1898 H 0.26842 0.18723 0.83073 0.0
C1899 C 0.25333 0.22641 0.87287 0.0
C1900 C 0.2604 0.18349 0.87534 0.0
C1901 C 0.24462 0.23872 0.87933 0.0
C1902 C 0.27059 0.13037 0.83441 0.0
C1903 C 0.26779 0.14291 0.84463 0.0
C1904 C 0.26662 0.18605 0.84325 0.0
C1905 C 0.24901 0.21072 0.87566 0.0
C1906 C 0.25712 0.19764 0.86751 0.0
C1907 C 0.27446 0.15776 0.84172 0.0
C1908 C 0.26949 0.17172 0.85094 0.0
H1909 H 0.21722 0.2171 0.89894 0.0
H1910 H 0.23233 0.19566 0.8876 0.0
H1911 H 0.25791 0.2095 0.84501 0.0
H1912 H 0.29485 0.14891 0.80855 0.0
H1913 H 0.29043 0.1706 0.82661 0.0
C1914 C 0.75598 0.25004 0.86812 0.0
C1915 C 0.75798 0.23762 0.87877 0.0
C1916 C 0.76904 0.25722 0.86122 0.0
C1917 C 0.81188 0.26248 0.86562 0.0
H1918 H 0.81179 0.2662 0.82028 0.0
C1919 C 0.86851 0.26657 0.82894 0.0
C1920 C 0.86823 0.27507 0.81484 0.0
C1921 C 0.85488 0.26494 0.8379 0.0
C1922 C 0.81195 0.26558 0.83298 0.0
H1923 H 0.77515 0.22323 0.89088 0.0
H1924 H 0.79785 0.23573 0.8789 0.0
H1925 H 0.78798 0.25812 0.83381 0.0
H1926 H 0.85377 0.28936 0.79952 0.0
H1927 H 0.83009 0.28684 0.81534 0.0
H1928 H 0.83592 0.26969 0.86478 0.0
C1929 C 0.78625 0.23999 0.87591 0.0
C1930 C 0.79828 0.26092 0.84072 0.0
C1931 C 0.77324 0.23275 0.88267 0.0
C1932 C 0.85429 0.2826 0.81028 0.0
C1933 C 0.8407 0.28108 0.81929 0.0
C1934 C 0.82553 0.26724 0.85789 0.0
C1935 C 0.78431 0.25221 0.86502 0.0
C1936 C 0.79821 0.25899 0.85707 0.0
C1937 C 0.84071 0.27188 0.83299 0.0
C1938 C 0.82582 0.26853 0.84144 0.0
H1939 H 0.74434 0.25404 0.86495 0.0
H1940 H 0.76722 0.26666 0.85291 0.0
H1941 H 0.81208 0.26129 0.87827 0.0
H1942 H 0.87909 0.26062 0.83271 0.0
H1943 H 0.85529 0.25763 0.84829 0.0
C1944 C 0.73117 0.85157 0.80816 0.0
C1945 C 0.73035 0.86623 0.81564 0.0
C1946 C 0.73333 0.8379 0.81687 0.0
C1947 C 0.73134 0.82086 0.8567 0.0
H1948 H 0.7627 0.79241 0.84002 0.0
C1949 C 0.76059 0.77104 0.89265 0.0
C1950 C 0.76481 0.75726 0.88465 0.0
C1951 C 0.75395 0.78365 0.88452 0.0
C1952 C 0.7537 0.80005 0.84473 0.0
H1953 H 0.73063 0.87806 0.83815 0.0
H1954 H 0.73465 0.85406 0.85347 0.0
H1955 H 0.75586 0.81589 0.82544 0.0
H1956 H 0.76442 0.74539 0.86215 0.0
H1957 H 0.75253 0.76724 0.84802 0.0
H1958 H 0.72941 0.805 0.87614 0.0
C1959 C 0.73346 0.85317 0.84084 0.0
C1960 C 0.7498 0.81355 0.83637 0.0
C1961 C 0.73125 0.86691 0.83209 0.0
C1962 C 0.76141 0.75594 0.86859 0.0
C1963 C 0.7547 0.76849 0.86049 0.0
C1964 C 0.73524 0.80728 0.86508 0.0
C1965 C 0.73481 0.83856 0.83327 0.0
C1966 C 0.7386 0.82412 0.84224 0.0
C1967 C 0.75136 0.78267 0.86825 0.0
C1968 C 0.74649 0.79673 0.85918 0.0
H1969 H 0.73036 0.85065 0.7955 0.0
H1970 H 0.73402 0.8268 0.81072 0.0
H1971 H 0.72257 0.82873 0.86145 0.0
H1972 H 0.76308 0.77238 0.90504 0.0
H1973 H 0.7516 0.79443 0.89083 0.0
C1974 C 0.76931 0.75362 0.09997 0.0
C1975 C 0.76008 0.7622 0.11062 0.0
C1976 C 0.78262 0.74555 0.10514 0.0
C1977 C 0.80226 0.72986 0.14038 0.0
H1978 H 0.84086 0.73943 0.1182 0.0
C1979 C 0.87061 0.73441 0.15714 0.0
C1980 C 0.87244 0.72045 0.16572 0.0
C1981 C 0.85749 0.73658 0.14755 0.0
C1982 C 0.83016 0.73655 0.12443 0.0
H1983 H 0.7571 0.76851 0.13508 0.0
H1984 H 0.78025 0.7543 0.14414 0.0
H1985 H 0.81576 0.74842 0.10759 0.0
H1986 H 0.86263 0.69737 0.17009 0.0
H1987 H 0.83971 0.70119 0.15333 0.0
H1988 H 0.81665 0.71856 0.15755 0.0
C1989 C 0.7772 0.75379 0.13181 0.0
C1990 C 0.8158 0.74159 0.11831 0.0
C1991 C 0.764 0.76199 0.12662 0.0
C1992 C 0.86149 0.70829 0.16368 0.0
C1993 C 0.84833 0.7105 0.15416 0.0
C1994 C 0.81659 0.72472 0.14643 0.0
C1995 C 0.78683 0.74577 0.12108 0.0
C1996 C 0.80175 0.73863 0.12644 0.0
C1997 C 0.84593 0.72486 0.14642 0.0
C1998 C 0.83072 0.72834 0.13871 0.0
H1999 H 0.76657 0.7536 0.08755 0.0
H2000 H 0.78977 0.73936 0.09665 0.0
H2001 H 0.7916 0.72731 0.14682 0.0
H2002 H 0.87888 0.74397 0.15847 0.0
H2003 H 0.85593 0.74781 0.14181 0.0
C2004 C 0.24937 0.76553 0.10474 0.0
C2005 C 0.23322 0.76583 0.10146 0.0
C2006 C 0.25771 0.77957 0.10665 0.0
C2007 C 0.25463 0.82288 0.10053 0.0
H2008 H 0.28015 0.82523 0.1381 0.0
C2009 C 0.25792 0.87597 0.14069 0.0
C2010 C 0.27173 0.87917 0.14907 0.0
C2011 C 0.25738 0.86353 0.13009 0.0
C2012 C 0.27343 0.82474 0.12733 0.0
H2013 H 0.21322 0.78098 0.0972 0.0
H2014 H 0.22756 0.80529 0.10082 0.0
H2015 H 0.27119 0.79979 0.12874 0.0
H2016 H 0.29612 0.87272 0.15213 0.0
H2017 H 0.29509 0.85064 0.1337 0.0
H2018 H 0.25599 0.84798 0.09982 0.0
C2019 C 0.23395 0.79433 0.10165 0.0
C2020 C 0.26826 0.81013 0.12196 0.0
C2021 C 0.22566 0.78036 0.09975 0.0
C2022 C 0.28535 0.87051 0.14576 0.0
C2023 C 0.28474 0.85784 0.13531 0.0
C2024 C 0.2597 0.83749 0.10597 0.0
C2025 C 0.25004 0.79413 0.10527 0.0
C2026 C 0.25824 0.8091 0.1089 0.0
C2027 C 0.27057 0.8539 0.12783 0.0
C2028 C 0.26861 0.8386 0.11978 0.0
H2029 H 0.25552 0.75448 0.10603 0.0
H2030 H 0.27012 0.77902 0.10934 0.0
H2031 H 0.24724 0.82245 0.0902 0.0
H2032 H 0.24727 0.88251 0.14303 0.0
H2033 H 0.24625 0.86072 0.12462 0.0
C2034 C 0.73107 0.12945 0.1687 0.0
C2035 C 0.72998 0.13025 0.18513 0.0
C2036 C 0.73422 0.143 0.15993 0.0
C2037 C 0.75339 0.18115 0.16443 0.0
H2038 H 0.73236 0.19258 0.12574 0.0
C2039 C 0.76756 0.23931 0.13432 0.0
C2040 C 0.76974 0.23884 0.118 0.0
C2041 C 0.76063 0.22669 0.14211 0.0
C2042 C 0.73842 0.18947 0.13647 0.0
H2043 H 0.73064 0.14591 0.20521 0.0
H2044 H 0.73607 0.16939 0.18999 0.0
H2045 H 0.72435 0.16883 0.13984 0.0
H2046 H 0.76573 0.22517 0.09693 0.0
H2047 H 0.75396 0.20293 0.11058 0.0
H2048 H 0.7677 0.20139 0.16105 0.0
C2049 C 0.73473 0.15833 0.18387 0.0
C2050 C 0.73383 0.17589 0.14451 0.0
C2051 C 0.73155 0.14487 0.19258 0.0
C2052 C 0.76418 0.22584 0.10953 0.0
C2053 C 0.75737 0.21312 0.11735 0.0
C2054 C 0.75802 0.1946 0.15639 0.0
C2055 C 0.73639 0.15751 0.1675 0.0
C2056 C 0.74122 0.17168 0.15863 0.0
C2057 C 0.7559 0.21323 0.13379 0.0
C2058 C 0.75055 0.19901 0.14236 0.0
H2059 H 0.72987 0.11832 0.16267 0.0
H2060 H 0.73551 0.14205 0.14732 0.0
H2061 H 0.75953 0.17802 0.17512 0.0
H2062 H 0.7716 0.24926 0.14113 0.0
H2063 H 0.75932 0.22732 0.15474 0.0
C2064 C 0.65666 0.63372 0.7813 0.0
C2065 C 0.66053 0.6236 0.76886 0.0
C2066 C 0.64729 0.64692 0.77864 0.0
C2067 C 0.62125 0.66641 0.74966 0.0
H2068 H 0.64154 0.70451 0.76411 0.0
C2069 C 0.61217 0.72554 0.71903 0.0
C2070 C 0.61157 0.73932 0.72805 0.0
C2071 C 0.61576 0.71118 0.72601 0.0
C2072 C 0.63551 0.69402 0.76024 0.0
H2073 H 0.65663 0.61862 0.74422 0.0
H2074 H 0.64025 0.64158 0.73959 0.0
H2075 H 0.65096 0.67914 0.77324 0.0
H2076 H 0.61415 0.74889 0.75147 0.0
H2077 H 0.62042 0.72368 0.76375 0.0
H2078 H 0.60605 0.6813 0.73631 0.0
C2079 C 0.64443 0.63937 0.75139 0.0
C2080 C 0.6409 0.67946 0.76549 0.0
C2081 C 0.65387 0.62624 0.75402 0.0
C2082 C 0.61464 0.73846 0.74422 0.0
C2083 C 0.61823 0.72404 0.75123 0.0
C2084 C 0.61581 0.68098 0.74445 0.0
C2085 C 0.64152 0.65016 0.76353 0.0
C2086 C 0.6341 0.66549 0.75993 0.0
C2087 C 0.6188 0.71023 0.74219 0.0
C2088 C 0.62318 0.69493 0.74933 0.0
H2089 H 0.66159 0.63195 0.79288 0.0
H2090 H 0.64506 0.65492 0.78826 0.0
H2091 H 0.61564 0.65585 0.74534 0.0
H2092 H 0.60987 0.72582 0.70653 0.0
H2093 H 0.61643 0.70085 0.71863 0.0
C2094 C 0.27632 0.60422 0.72155 0.0
C2095 C 0.26194 0.60302 0.7295 0.0
C2096 C 0.28983 0.60891 0.72948 0.0
C2097 C 0.3016 0.63201 0.76382 0.0
H2098 H 0.34314 0.61964 0.74995 0.0
C2099 C 0.37117 0.65199 0.7702 0.0
C2100 C 0.36882 0.66819 0.76827 0.0
C2101 C 0.35846 0.6416 0.76922 0.0
C2102 C 0.33167 0.62304 0.75424 0.0
H2103 H 0.25056 0.605 0.75216 0.0
H2104 H 0.2743 0.613 0.76616 0.0
H2105 H 0.32035 0.60462 0.74148 0.0
H2106 H 0.35134 0.68628 0.76429 0.0
H2107 H 0.32941 0.66831 0.76234 0.0
H2108 H 0.31289 0.65049 0.77649 0.0
C2109 C 0.27506 0.61059 0.7537 0.0
C2110 C 0.31857 0.61454 0.74921 0.0
C2111 C 0.26147 0.60597 0.74571 0.0
C2112 C 0.35354 0.67384 0.76582 0.0
C2113 C 0.34091 0.66353 0.76486 0.0
C2114 C 0.31469 0.64041 0.76895 0.0
C2115 C 0.28934 0.61241 0.7456 0.0
C2116 C 0.30333 0.61934 0.75341 0.0
C2117 C 0.34321 0.64726 0.76637 0.0
C2118 C 0.32981 0.63644 0.76367 0.0
H2119 H 0.27706 0.60201 0.70905 0.0
H2120 H 0.30051 0.61045 0.72277 0.0
H2121 H 0.29007 0.63609 0.76729 0.0
H2122 H 0.38282 0.64733 0.77216 0.0
H2123 H 0.36059 0.62913 0.77053 0.0
C2124 C 0.40341 0.27858 0.73509 0.0
C2125 C 0.3956 0.26416 0.73675 0.0
C2126 C 0.39819 0.29184 0.74317 0.0
C2127 C 0.37095 0.3055 0.77459 0.0
H2128 H 0.36754 0.34234 0.74807 0.0
C2129 C 0.32354 0.35255 0.78192 0.0
C2130 C 0.32709 0.3683 0.77858 0.0
C2131 C 0.33484 0.34089 0.78002 0.0
C2132 C 0.3687 0.3323 0.75578 0.0
H2133 H 0.37673 0.25206 0.74873 0.0
H2134 H 0.36733 0.27529 0.76257 0.0
H2135 H 0.38205 0.31963 0.7388 0.0
H2136 H 0.34545 0.38433 0.77135 0.0
H2137 H 0.36531 0.3638 0.76784 0.0
H2138 H 0.35687 0.31803 0.79123 0.0
C2139 C 0.37765 0.27635 0.75524 0.0
C2140 C 0.37704 0.31924 0.75047 0.0
C2141 C 0.38297 0.26304 0.74725 0.0
C2142 C 0.3424 0.37227 0.77397 0.0
C2143 C 0.35372 0.36054 0.77191 0.0
C2144 C 0.36254 0.31856 0.77987 0.0
C2145 C 0.38496 0.291 0.75298 0.0
C2146 C 0.37793 0.30553 0.75963 0.0
C2147 C 0.34994 0.34469 0.77462 0.0
C2148 C 0.36099 0.33194 0.77033 0.0
H2149 H 0.41331 0.27974 0.72719 0.0
H2150 H 0.40429 0.30285 0.7414 0.0
H2151 H 0.37166 0.29524 0.78206 0.0
H2152 H 0.31184 0.34915 0.78556 0.0
H2153 H 0.3315 0.32879 0.78202 0.0
C2154 C 0.62799 0.33433 0.77062 0.0
C2155 C 0.62995 0.31862 0.7752 0.0
C2156 C 0.64107 0.34392 0.76814 0.0
C2157 C 0.68364 0.34782 0.77546 0.0
H2158 H 0.68427 0.36739 0.73441 0.0
C2159 C 0.74091 0.36861 0.74551 0.0
C2160 C 0.74011 0.38154 0.73535 0.0
C2161 C 0.72724 0.36265 0.7524 0.0
C2162 C 0.68424 0.36233 0.74606 0.0
H2163 H 0.647 0.30086 0.78166 0.0
H2164 H 0.6698 0.31762 0.77746 0.0
H2165 H 0.66055 0.35449 0.74346 0.0
H2166 H 0.72467 0.39899 0.72513 0.0
H2167 H 0.701 0.38903 0.73753 0.0
H2168 H 0.70739 0.35558 0.77802 0.0
C2169 C 0.6582 0.32253 0.77576 0.0
C2170 C 0.67061 0.3549 0.75123 0.0
C2171 C 0.64515 0.31291 0.77806 0.0
C2172 C 0.72558 0.38884 0.73274 0.0
C2173 C 0.712 0.38307 0.73979 0.0
C2174 C 0.69727 0.35541 0.77035 0.0
C2175 C 0.65631 0.338 0.77041 0.0
C2176 C 0.67024 0.34736 0.76587 0.0
C2177 C 0.71256 0.36967 0.7494 0.0
C2178 C 0.69781 0.36256 0.75548 0.0
H2179 H 0.61639 0.33903 0.76836 0.0
H2180 H 0.6393 0.35585 0.76412 0.0
H2181 H 0.68362 0.34218 0.78685 0.0
H2182 H 0.75198 0.36277 0.74769 0.0
H2183 H 0.72812 0.35222 0.7596 0.0
C2184 C 0.65924 0.36627 0.22505 0.0
C2185 C 0.6736 0.36493 0.21711 0.0
C2186 C 0.64918 0.35332 0.22615 0.0
C2187 C 0.65178 0.31016 0.22509 0.0
H2188 H 0.60661 0.31236 0.22994 0.0
C2189 C 0.61664 0.25555 0.2423 0.0
C2190 C 0.60692 0.25788 0.25539 0.0
C2191 C 0.62258 0.26842 0.23402 0.0
C2192 C 0.61922 0.31158 0.22855 0.0
H2193 H 0.68813 0.34963 0.20294 0.0
H2194 H 0.67038 0.32731 0.20427 0.0
H2195 H 0.62115 0.33569 0.22165 0.0
H2196 H 0.59493 0.27536 0.26948 0.0
H2197 H 0.60534 0.29777 0.25512 0.0
H2198 H 0.64997 0.28623 0.23231 0.0
C2199 C 0.66708 0.33807 0.2102 0.0
C2200 C 0.62755 0.32494 0.22387 0.0
C2201 C 0.67722 0.35088 0.20934 0.0
C2202 C 0.60247 0.27322 0.25947 0.0
C2203 C 0.60834 0.28606 0.25117 0.0
C2204 C 0.64347 0.29683 0.22965 0.0
C2205 C 0.65324 0.33891 0.21913 0.0
C2206 C 0.64399 0.32446 0.22237 0.0
C2207 C 0.61884 0.28382 0.23866 0.0
C2208 C 0.62715 0.29746 0.23173 0.0
H2209 H 0.6562 0.37699 0.23116 0.0
H2210 H 0.63867 0.35439 0.23321 0.0
H2211 H 0.66445 0.30937 0.22442 0.0
H2212 H 0.62019 0.24385 0.23884 0.0
H2213 H 0.6305 0.26634 0.2243 0.0
C2214 C 0.72372 0.60247 0.26922 0.0
C2215 C 0.73921 0.60727 0.26625 0.0
C2216 C 0.71124 0.6091 0.26092 0.0
C2217 C 0.70091 0.64566 0.24146 0.0
H2218 H 0.66406 0.62288 0.22751 0.0
C2219 C 0.64906 0.6787 0.21475 0.0
C2220 C 0.63404 0.67425 0.21985 0.0
C2221 C 0.66199 0.66911 0.21765 0.0
C2222 C 0.67422 0.62942 0.23144 0.0
H2223 H 0.75389 0.62221 0.25181 0.0
H2224 H 0.73203 0.63386 0.23733 0.0
H2225 H 0.68676 0.60845 0.23754 0.0
H2226 H 0.6206 0.65602 0.23138 0.0
H2227 H 0.64332 0.63941 0.23695 0.0
H2228 H 0.68835 0.66661 0.23607 0.0
C2229 C 0.72956 0.62505 0.24615 0.0
C2230 C 0.68723 0.62115 0.23712 0.0
C2231 C 0.74205 0.61835 0.25439 0.0
C2232 C 0.63207 0.6597 0.22731 0.0
C2233 C 0.64509 0.65016 0.23043 0.0
C2234 C 0.68792 0.65391 0.23592 0.0
C2235 C 0.714 0.62072 0.24956 0.0
C2236 C 0.70066 0.62921 0.2423 0.0
C2237 C 0.66026 0.65496 0.22596 0.0
C2238 C 0.67436 0.64592 0.23093 0.0
H2239 H 0.72119 0.59391 0.27827 0.0
H2240 H 0.69938 0.60562 0.2639 0.0
H2241 H 0.71096 0.65222 0.24566 0.0
H2242 H 0.65087 0.68978 0.20878 0.0
H2243 H 0.67342 0.67298 0.21366 0.0
C2244 C 0.34555 0.62437 0.2338 0.0
C2245 C 0.33121 0.62624 0.22594 0.0
C2246 C 0.35552 0.63724 0.23592 0.0
C2247 C 0.35228 0.68028 0.23826 0.0
H2248 H 0.39721 0.67802 0.24498 0.0
C2249 C 0.38622 0.73343 0.2612 0.0
C2250 C 0.39518 0.7302 0.27464 0.0
C2251 C 0.38075 0.7212 0.25177 0.0
C2252 C 0.38467 0.67881 0.24306 0.0
H2253 H 0.31667 0.64242 0.2128 0.0
H2254 H 0.33435 0.66465 0.21578 0.0
H2255 H 0.38337 0.65543 0.23391 0.0
H2256 H 0.40625 0.71178 0.28828 0.0
H2257 H 0.39661 0.6904 0.27185 0.0
H2258 H 0.35349 0.70348 0.24764 0.0
C2259 C 0.33766 0.65352 0.22094 0.0
C2260 C 0.37673 0.66588 0.23678 0.0
C2261 C 0.32758 0.64077 0.21913 0.0
C2262 C 0.39928 0.7146 0.27803 0.0
C2263 C 0.39387 0.70237 0.26855 0.0
C2264 C 0.36021 0.6932 0.24435 0.0
C2265 C 0.35141 0.65211 0.22997 0.0
C2266 C 0.36037 0.66635 0.23463 0.0
C2267 C 0.38422 0.70553 0.25557 0.0
C2268 C 0.37642 0.6925 0.24713 0.0
H2269 H 0.34858 0.61325 0.23917 0.0
H2270 H 0.36594 0.6357 0.24303 0.0
H2271 H 0.33964 0.68102 0.23714 0.0
H2272 H 0.38299 0.74537 0.25825 0.0
H2273 H 0.37345 0.72397 0.24174 0.0
C2274 C 0.36288 0.3371 0.21104 0.0
C2275 C 0.37742 0.33736 0.21879 0.0
C2276 C 0.35115 0.34778 0.21506 0.0
C2277 C 0.33804 0.36795 0.25006 0.0
H2278 H 0.30532 0.38373 0.22265 0.0
C2279 C 0.28134 0.39449 0.27519 0.0
C2280 C 0.2673 0.3897 0.26802 0.0
C2281 C 0.29578 0.39146 0.26808 0.0
C2282 C 0.31434 0.37934 0.23046 0.0
H2283 H 0.39161 0.34982 0.23582 0.0
H2284 H 0.37103 0.36856 0.24289 0.0
H2285 H 0.32964 0.37357 0.21135 0.0
H2286 H 0.25729 0.37826 0.24764 0.0
H2287 H 0.28255 0.37255 0.23536 0.0
H2288 H 0.32258 0.37298 0.26912 0.0
C2289 C 0.36868 0.35998 0.2338 0.0
C2290 C 0.32829 0.37361 0.22399 0.0
C2291 C 0.3805 0.34935 0.22968 0.0
C2292 C 0.26794 0.38206 0.25344 0.0
C2293 C 0.28241 0.37893 0.24635 0.0
C2294 C 0.32409 0.3736 0.25652 0.0
C2295 C 0.35368 0.35887 0.22699 0.0
C2296 C 0.34014 0.36752 0.23371 0.0
C2297 C 0.29651 0.38346 0.25367 0.0
C2298 C 0.31193 0.37904 0.24679 0.0
H2299 H 0.36023 0.32802 0.20255 0.0
H2300 H 0.33972 0.34654 0.20964 0.0
H2301 H 0.3468 0.36307 0.25788 0.0
H2302 H 0.2812 0.40057 0.28635 0.0
H2303 H 0.30638 0.39533 0.27392 0.0
C2304 C 0.73314 0.6084 0.7264 0.0
C2305 C 0.72877 0.61664 0.73999 0.0
C2306 C 0.73985 0.61631 0.71369 0.0
C2307 C 0.74067 0.6559 0.69658 0.0
H2308 H 0.7718 0.63816 0.66852 0.0
C2309 C 0.76431 0.69108 0.64456 0.0
C2310 C 0.76479 0.68332 0.63003 0.0
C2311 C 0.76202 0.68268 0.6584 0.0
C2312 C 0.76304 0.6432 0.67623 0.0
H2313 H 0.7289 0.63937 0.75139 0.0
H2314 H 0.74095 0.65312 0.72939 0.0
H2315 H 0.7645 0.62401 0.69244 0.0
H2316 H 0.76385 0.66061 0.61862 0.0
H2317 H 0.75966 0.64584 0.64292 0.0
H2318 H 0.73904 0.67496 0.68039 0.0
C2319 C 0.73883 0.64064 0.72835 0.0
C2320 C 0.75887 0.63512 0.68991 0.0
C2321 C 0.73202 0.63275 0.741 0.0
C2322 C 0.76349 0.66689 0.62966 0.0
C2323 C 0.76118 0.65844 0.64357 0.0
C2324 C 0.74487 0.66397 0.68299 0.0
C2325 C 0.74239 0.6326 0.71437 0.0
C2326 C 0.74758 0.64138 0.70022 0.0
C2327 C 0.7601 0.66631 0.65805 0.0
C2328 C 0.75607 0.65771 0.67264 0.0
H2329 H 0.73076 0.59596 0.7253 0.0
H2330 H 0.74234 0.60977 0.70307 0.0
H2331 H 0.73165 0.66089 0.70402 0.0
H2332 H 0.76543 0.70373 0.64525 0.0
H2333 H 0.76152 0.68904 0.6694 0.0
C2334 C 0.40355 0.72242 0.7126 0.0
C2335 C 0.39758 0.72735 0.72715 0.0
C2336 C 0.39992 0.73066 0.6989 0.0
C2337 C 0.38204 0.76787 0.68407 0.0
H2338 H 0.36985 0.74161 0.64897 0.0
C2339 C 0.33492 0.78392 0.63898 0.0
C2340 C 0.33641 0.7786 0.62346 0.0
C2341 C 0.34651 0.78057 0.65004 0.0
C2342 C 0.37354 0.74917 0.6585 0.0
H2343 H 0.38356 0.745 0.7389 0.0
H2344 H 0.37677 0.75911 0.71498 0.0
H2345 H 0.38227 0.72977 0.67171 0.0
H2346 H 0.35165 0.76661 0.60701 0.0
H2347 H 0.37192 0.76056 0.62647 0.0
H2348 H 0.37236 0.78712 0.67109 0.0
C2349 C 0.38455 0.7491 0.71411 0.0
C2350 C 0.38068 0.74238 0.67158 0.0
C2351 C 0.38832 0.74094 0.72782 0.0
C2352 C 0.35022 0.77084 0.61891 0.0
C2353 C 0.36176 0.76731 0.63005 0.0
C2354 C 0.37477 0.77464 0.67102 0.0
C2355 C 0.3901 0.74392 0.69944 0.0
C2356 C 0.38462 0.75157 0.68472 0.0
C2357 C 0.35974 0.77169 0.64583 0.0
C2358 C 0.37007 0.76528 0.65828 0.0
H2359 H 0.41088 0.71207 0.71176 0.0
H2360 H 0.40464 0.7265 0.68786 0.0
H2361 H 0.38523 0.77534 0.69384 0.0
H2362 H 0.32442 0.78999 0.64278 0.0
H2363 H 0.34455 0.784 0.66213 0.0
C2364 C 0.25412 0.37544 0.7383 0.0
C2365 C 0.26661 0.38613 0.7375 0.0
C2366 C 0.2466 0.37046 0.72459 0.0
C2367 C 0.25358 0.36683 0.68201 0.0
H2368 H 0.2093 0.3564 0.68112 0.0
C2369 C 0.22554 0.3384 0.62765 0.0
C2370 C 0.21766 0.32438 0.63123 0.0
C2371 C 0.22936 0.34901 0.63959 0.0
C2372 C 0.22167 0.35934 0.68119 0.0
H2373 H 0.28066 0.40049 0.72188 0.0
H2374 H 0.26736 0.39209 0.69804 0.0
H2375 H 0.2204 0.36914 0.70428 0.0
H2376 H 0.20663 0.31093 0.64981 0.0
H2377 H 0.21317 0.32942 0.67055 0.0
H2378 H 0.25491 0.35675 0.65906 0.0
C2379 C 0.26358 0.38723 0.70915 0.0
C2380 C 0.22804 0.36654 0.69447 0.0
C2381 C 0.27117 0.39208 0.72283 0.0
C2382 C 0.21278 0.32163 0.64673 0.0
C2383 C 0.21643 0.33227 0.6586 0.0
C2384 C 0.24718 0.35973 0.66871 0.0
C2385 C 0.25134 0.37619 0.70983 0.0
C2386 C 0.24416 0.37004 0.69518 0.0
C2387 C 0.22517 0.34584 0.65525 0.0
C2388 C 0.23125 0.35558 0.6683 0.0
H2389 H 0.25037 0.37066 0.74947 0.0
H2390 H 0.23737 0.36178 0.72554 0.0
H2391 H 0.26607 0.36914 0.6822 0.0
H2392 H 0.22943 0.34081 0.61579 0.0
H2393 H 0.23599 0.35945 0.63668 0.0
C2394 C 0.6832 0.21321 0.65064 0.0
C2395 C 0.67716 0.21732 0.63588 0.0
C2396 C 0.67388 0.21434 0.66404 0.0
C2397 C 0.63294 0.22041 0.67816 0.0
H2398 H 0.65413 0.23967 0.71353 0.0
C2399 C 0.60172 0.25551 0.72677 0.0
C2400 C 0.60771 0.25486 0.74211 0.0
C2401 C 0.60903 0.24729 0.71464 0.0
C2402 C 0.64807 0.23399 0.70391 0.0
H2403 H 0.65647 0.2252 0.62339 0.0
H2404 H 0.64024 0.22768 0.64691 0.0
H2405 H 0.66913 0.23224 0.69052 0.0
H2406 H 0.62543 0.24436 0.75703 0.0
H2407 H 0.63826 0.22995 0.73578 0.0
H2408 H 0.61172 0.22287 0.69146 0.0
C2409 C 0.6521 0.22328 0.64812 0.0
C2410 C 0.65668 0.22971 0.69067 0.0
C2411 C 0.66141 0.22196 0.63465 0.0
C2412 C 0.62061 0.24512 0.74529 0.0
C2413 C 0.62799 0.23694 0.73313 0.0
C2414 C 0.62428 0.22479 0.69141 0.0
C2415 C 0.65836 0.21982 0.66303 0.0
C2416 C 0.64921 0.22307 0.67754 0.0
C2417 C 0.62253 0.2383 0.7176 0.0
C2418 C 0.63175 0.23183 0.70433 0.0
H2419 H 0.69526 0.20938 0.6519 0.0
H2420 H 0.67897 0.21121 0.67526 0.0
H2421 H 0.62685 0.21511 0.66834 0.0
H2422 H 0.59174 0.26289 0.72398 0.0
H2423 H 0.60462 0.24868 0.7028 0.0
C2424 C 0.74587 0.37966 0.26313 0.0
C2425 C 0.72991 0.38374 0.26265 0.0
C2426 C 0.75296 0.37557 0.27738 0.0
C2427 C 0.74728 0.3783 0.32059 0.0
H2428 H 0.77401 0.34152 0.32181 0.0
C2429 C 0.75616 0.34 0.37533 0.0
C2430 C 0.77075 0.33273 0.37772 0.0
C2431 C 0.75362 0.34936 0.36213 0.0
C2432 C 0.76684 0.35201 0.32165 0.0
H2433 H 0.70885 0.38671 0.27665 0.0
H2434 H 0.72107 0.37931 0.30131 0.0
H2435 H 0.76486 0.35147 0.29663 0.0
H2436 H 0.79446 0.33042 0.36877 0.0
H2437 H 0.79 0.3468 0.34566 0.0
H2438 H 0.74875 0.37841 0.34569 0.0
C2439 C 0.72824 0.37956 0.29082 0.0
C2440 C 0.76158 0.35771 0.3072 0.0
C2441 C 0.72119 0.38365 0.27664 0.0
C2442 C 0.78307 0.33584 0.36721 0.0
C2443 C 0.7805 0.34513 0.35393 0.0
C2444 C 0.75248 0.37255 0.33503 0.0
C2445 C 0.74422 0.37551 0.29139 0.0
C2446 C 0.75141 0.37067 0.30653 0.0
C2447 C 0.76561 0.35158 0.35101 0.0
C2448 C 0.76201 0.35913 0.33573 0.0
H2449 H 0.75289 0.37972 0.25253 0.0
H2450 H 0.76532 0.3726 0.27745 0.0
H2451 H 0.73974 0.38853 0.32045 0.0
H2452 H 0.74645 0.33782 0.38324 0.0
H2453 H 0.74198 0.35408 0.36015 0.0
C2454 C 0.61948 0.74595 0.25605 0.0
C2455 C 0.60759 0.73457 0.25626 0.0
C2456 C 0.62363 0.75384 0.26984 0.0
C2457 C 0.62191 0.74825 0.31273 0.0
H2458 H 0.63878 0.7905 0.31359 0.0
C2459 C 0.64923 0.77285 0.36892 0.0
C2460 C 0.66461 0.77826 0.36659 0.0
C2461 C 0.63918 0.77076 0.35612 0.0
C2462 C 0.63401 0.77872 0.31353 0.0
H2463 H 0.58999 0.72321 0.27071 0.0
H2464 H 0.59686 0.73726 0.29459 0.0
H2465 H 0.62677 0.78051 0.28952 0.0
H2466 H 0.68115 0.78693 0.34931 0.0
H2467 H 0.66367 0.78331 0.32702 0.0
H2468 H 0.62945 0.7463 0.33656 0.0
C2469 C 0.60337 0.73978 0.28397 0.0
C2470 C 0.62721 0.77296 0.29974 0.0
C2471 C 0.59938 0.73177 0.27027 0.0
C2472 C 0.66937 0.78265 0.35143 0.0
C2473 C 0.65931 0.78068 0.33867 0.0
C2474 C 0.62858 0.75404 0.32651 0.0
C2475 C 0.61582 0.75061 0.28405 0.0
C2476 C 0.62141 0.75752 0.29907 0.0
C2477 C 0.64432 0.77418 0.3408 0.0
C2478 C 0.63503 0.76919 0.32696 0.0
H2479 H 0.62598 0.74831 0.24538 0.0
H2480 H 0.63339 0.76196 0.26947 0.0
H2481 H 0.61784 0.73621 0.31263 0.0
H2482 H 0.64524 0.76943 0.3805 0.0
H2483 H 0.62761 0.76589 0.35811 0.0
C2484 C 0.23035 0.65844 0.37578 0.0
C2485 C 0.22128 0.67164 0.37189 0.0
C2486 C 0.23449 0.64755 0.36421 0.0
C2487 C 0.22614 0.63473 0.32336 0.0
H2488 H 0.27085 0.62641 0.32204 0.0
C2489 C 0.25851 0.61625 0.26682 0.0
C2490 C 0.27126 0.60589 0.26812 0.0
C2491 C 0.25092 0.62178 0.28028 0.0
C2492 C 0.25829 0.62833 0.32235 0.0
H2493 H 0.20856 0.68328 0.35318 0.0
H2494 H 0.21576 0.66435 0.33305 0.0
H2495 H 0.25969 0.63987 0.34457 0.0
H2496 H 0.28566 0.59269 0.28443 0.0
H2497 H 0.27229 0.60213 0.30787 0.0
H2498 H 0.22484 0.62348 0.30092 0.0
C2499 C 0.21967 0.66233 0.34498 0.0
C2500 C 0.25189 0.63604 0.3353 0.0
C2501 C 0.21561 0.67324 0.3565 0.0
C2502 C 0.27596 0.60079 0.28308 0.0
C2503 C 0.26833 0.60625 0.29651 0.0
C2504 C 0.23255 0.62695 0.31041 0.0
C2505 C 0.22953 0.64962 0.3486 0.0
C2506 C 0.2358 0.63959 0.33582 0.0
C2507 C 0.25589 0.61701 0.29529 0.0
C2508 C 0.24875 0.62393 0.30962 0.0
H2509 H 0.23485 0.65689 0.38757 0.0
H2510 H 0.24195 0.63776 0.36737 0.0
H2511 H 0.21367 0.63716 0.32352 0.0
H2512 H 0.25465 0.62038 0.25544 0.0
H2513 H 0.24151 0.63021 0.27892 0.0
C2514 C 0.31198 0.22625 0.35068 0.0
C2515 C 0.31753 0.22905 0.36593 0.0
C2516 C 0.32073 0.2309 0.33768 0.0
C2517 C 0.36003 0.24409 0.32464 0.0
H2518 H 0.33603 0.2639 0.2914 0.0
C2519 C 0.3881 0.28 0.27423 0.0
C2520 C 0.38217 0.2773 0.25909 0.0
C2521 C 0.38081 0.27332 0.28731 0.0
C2522 C 0.34287 0.25824 0.3005 0.0
H2523 H 0.33684 0.23835 0.37961 0.0
H2524 H 0.35211 0.24679 0.3568 0.0
H2525 H 0.3225 0.25338 0.31422 0.0
H2526 H 0.36409 0.26546 0.24568 0.0
H2527 H 0.35126 0.25388 0.26854 0.0
H2528 H 0.38046 0.24929 0.31091 0.0
C2529 C 0.34105 0.24081 0.3549 0.0
C2530 C 0.33513 0.25218 0.31357 0.0
C2531 C 0.33231 0.23604 0.36796 0.0
C2532 C 0.36887 0.26777 0.25723 0.0
C2533 C 0.36151 0.2612 0.2703 0.0
C2534 C 0.3678 0.25025 0.31157 0.0
C2535 C 0.33518 0.2386 0.33963 0.0
C2536 C 0.3436 0.24496 0.32576 0.0
C2537 C 0.36738 0.26394 0.28547 0.0
C2538 C 0.35927 0.25734 0.29935 0.0
H2539 H 0.30069 0.22073 0.34876 0.0
H2540 H 0.31604 0.22868 0.32607 0.0
H2541 H 0.36687 0.23847 0.33377 0.0
H2542 H 0.39837 0.28727 0.27599 0.0
H2543 H 0.38549 0.27575 0.29887 0.0
C2544 C 0.7177 0.7422 0.59624 0.0
C2545 C 0.73342 0.7444 0.60066 0.0
C2546 C 0.70585 0.75137 0.60286 0.0
C2547 C 0.69782 0.7712 0.63964 0.0
H2548 H 0.65943 0.78411 0.6189 0.0
C2549 C 0.64592 0.79252 0.67612 0.0
C2550 C 0.6313 0.78613 0.67208 0.0
C2551 C 0.65852 0.79164 0.66571 0.0
C2552 C 0.67006 0.78053 0.62487 0.0
H2553 H 0.74924 0.75857 0.61464 0.0
H2554 H 0.72849 0.77463 0.62628 0.0
H2555 H 0.68173 0.77512 0.60323 0.0
H2556 H 0.61807 0.77455 0.65374 0.0
H2557 H 0.64023 0.77244 0.63571 0.0
H2558 H 0.6861 0.77572 0.66125 0.0
C2559 C 0.72533 0.76571 0.61779 0.0
C2560 C 0.68284 0.77545 0.61589 0.0
C2561 C 0.7372 0.75658 0.61109 0.0
C2562 C 0.62924 0.77959 0.65712 0.0
C2563 C 0.64194 0.77847 0.64677 0.0
C2564 C 0.68507 0.77615 0.64859 0.0
C2565 C 0.7095 0.76288 0.6141 0.0
C2566 C 0.69675 0.77045 0.62321 0.0
C2567 C 0.65686 0.78406 0.65115 0.0
C2568 C 0.67091 0.78061 0.64136 0.0
H2569 H 0.71444 0.73294 0.58816 0.0
H2570 H 0.69377 0.74881 0.59987 0.0
H2571 H 0.70826 0.76714 0.64566 0.0
H2572 H 0.64776 0.79784 0.68752 0.0
H2573 H 0.66972 0.79646 0.66932 0.0
C2574 C 0.72817 0.26057 0.39182 0.0
C2575 C 0.74219 0.26477 0.38423 0.0
C2576 C 0.71615 0.25312 0.38353 0.0
C2577 C 0.70149 0.24943 0.34318 0.0
H2578 H 0.67338 0.21854 0.3613 0.0
C2579 C 0.6514 0.22315 0.30714 0.0
C2580 C 0.63659 0.22291 0.31437 0.0
C2581 C 0.66489 0.22593 0.31595 0.0
C2582 C 0.68111 0.22721 0.35614 0.0
H2583 H 0.755 0.26373 0.36229 0.0
H2584 H 0.73415 0.25044 0.34786 0.0
H2585 H 0.69635 0.22728 0.37613 0.0
H2586 H 0.62431 0.22468 0.33657 0.0
H2587 H 0.64799 0.22973 0.35204 0.0
H2588 H 0.68622 0.24956 0.32332 0.0
C2589 C 0.73229 0.25321 0.36013 0.0
C2590 C 0.69425 0.23222 0.36461 0.0
C2591 C 0.74427 0.26074 0.3684 0.0
C2592 C 0.63559 0.22483 0.33071 0.0
C2593 C 0.64914 0.22765 0.33956 0.0
C2594 C 0.68843 0.2444 0.33473 0.0
C2595 C 0.71794 0.24967 0.3675 0.0
C2596 C 0.70453 0.24347 0.35825 0.0
C2597 C 0.66388 0.22857 0.33219 0.0
C2598 C 0.67805 0.2333 0.34112 0.0
H2599 H 0.72624 0.26354 0.40403 0.0
H2600 H 0.70522 0.2507 0.38953 0.0
H2601 H 0.70893 0.25837 0.33807 0.0
H2602 H 0.65256 0.22155 0.29458 0.0
H2603 H 0.67611 0.22628 0.30999 0.0
C2604 C 0.77173 0.62502 0.34526 0.0
C2605 C 0.77548 0.62798 0.32949 0.0
C2606 C 0.76906 0.6375 0.3556 0.0
C2607 C 0.75051 0.66524 0.36833 0.0
H2608 H 0.77193 0.70535 0.36585 0.0
C2609 C 0.71876 0.72326 0.37772 0.0
C2610 C 0.72596 0.7351 0.38663 0.0
C2611 C 0.72695 0.70967 0.37379 0.0
C2612 C 0.76597 0.69417 0.36689 0.0
H2613 H 0.78045 0.64619 0.31241 0.0
H2614 H 0.77576 0.66785 0.33033 0.0
H2615 H 0.7839 0.68206 0.35407 0.0
H2616 H 0.74745 0.74211 0.39829 0.0
H2617 H 0.76198 0.71827 0.3911 0.0
H2618 H 0.73233 0.67742 0.38063 0.0
C2619 C 0.77493 0.65598 0.33481 0.0
C2620 C 0.77276 0.68087 0.36007 0.0
C2621 C 0.77747 0.64355 0.32449 0.0
C2622 C 0.74163 0.73316 0.39138 0.0
C2623 C 0.74993 0.71956 0.38729 0.0
C2624 C 0.74371 0.67852 0.37507 0.0
C2625 C 0.77026 0.65312 0.35036 0.0
C2626 C 0.76483 0.66638 0.36026 0.0
C2627 C 0.74257 0.70763 0.37859 0.0
C2628 C 0.7511 0.69321 0.37393 0.0
H2629 H 0.77019 0.61311 0.34943 0.0
H2630 H 0.76559 0.63495 0.36756 0.0
H2631 H 0.74404 0.6543 0.3686 0.0
H2632 H 0.70669 0.7244 0.37388 0.0
H2633 H 0.72107 0.70082 0.36681 0.0
C2634 C 0.26772 0.74175 0.40121 0.0
C2635 C 0.25736 0.73641 0.38953 0.0
C2636 C 0.28289 0.74663 0.39726 0.0
C2637 C 0.31212 0.73904 0.36671 0.0
H2638 H 0.33561 0.77296 0.38593 0.0
C2639 C 0.37209 0.77361 0.35208 0.0
C2640 C 0.3809 0.76057 0.34717 0.0
C2641 C 0.35815 0.77145 0.36051 0.0
C2642 C 0.32918 0.76344 0.38049 0.0
H2643 H 0.25427 0.73313 0.3645 0.0
H2644 H 0.28057 0.74193 0.35757 0.0
H2645 H 0.30795 0.76904 0.39285 0.0
H2646 H 0.38323 0.73531 0.34879 0.0
H2647 H 0.35932 0.73159 0.36402 0.0
H2648 H 0.33298 0.73358 0.35406 0.0
C2649 C 0.27715 0.74198 0.36981 0.0
C2650 C 0.31339 0.76116 0.38449 0.0
C2651 C 0.26205 0.73704 0.37376 0.0
C2652 C 0.37655 0.74555 0.35231 0.0
C2653 C 0.36278 0.74342 0.36089 0.0
C2654 C 0.32781 0.74128 0.36276 0.0
C2655 C 0.28793 0.74628 0.38156 0.0
C2656 C 0.30466 0.74901 0.3775 0.0
C2657 C 0.35295 0.75624 0.36427 0.0
C2658 C 0.33656 0.7535 0.36956 0.0
H2659 H 0.26441 0.74138 0.41348 0.0
H2660 H 0.29092 0.74984 0.40658 0.0
H2661 H 0.30584 0.72939 0.36132 0.0
H2662 H 0.37516 0.78532 0.34819 0.0
H2663 H 0.35088 0.78158 0.36295 0.0
C2664 C 0.25648 0.27143 0.3967 0.0
C2665 C 0.25456 0.25599 0.39127 0.0
C2666 C 0.24811 0.28374 0.38987 0.0
C2667 C 0.23246 0.294 0.35179 0.0
H2668 H 0.21695 0.33115 0.37301 0.0
C2669 C 0.21442 0.34774 0.31606 0.0
C2670 C 0.21963 0.3623 0.3217 0.0
C2671 C 0.21467 0.33453 0.32571 0.0
C2672 C 0.2213 0.32089 0.36691 0.0
H2673 H 0.24163 0.24112 0.37519 0.0
H2674 H 0.22703 0.2627 0.36314 0.0
H2675 H 0.22432 0.30803 0.38835 0.0
H2676 H 0.22855 0.37471 0.342 0.0
H2677 H 0.22966 0.35148 0.35875 0.0
H2678 H 0.23038 0.30691 0.33049 0.0
C2679 C 0.23509 0.26527 0.37263 0.0
C2680 C 0.22543 0.30764 0.37569 0.0
C2681 C 0.24339 0.25293 0.37955 0.0
C2682 C 0.22445 0.36359 0.33739 0.0
C2683 C 0.22498 0.35028 0.347 0.0
C2684 C 0.2285 0.30725 0.34305 0.0
C2685 C 0.23773 0.28085 0.3774 0.0
C2686 C 0.23129 0.29415 0.36822 0.0
C2687 C 0.22046 0.33549 0.34113 0.0
C2688 C 0.2231 0.32097 0.35049 0.0
H2689 H 0.26497 0.27412 0.40578 0.0
H2690 H 0.25049 0.29562 0.39372 0.0
H2691 H 0.23723 0.28391 0.34571 0.0
H2692 H 0.21041 0.34649 0.30406 0.0
H2693 H 0.21068 0.32345 0.32092 0.0
C2694 C 0.35194 0.22573 0.68311 0.0
C2695 C 0.36694 0.22768 0.67656 0.0
C2696 C 0.33854 0.22756 0.67387 0.0
C2697 C 0.32505 0.24919 0.63985 0.0
H2698 H 0.28811 0.2228 0.6431 0.0
C2699 C 0.26883 0.26506 0.6066 0.0
C2700 C 0.25463 0.26336 0.61476 0.0
C2701 C 0.28259 0.25837 0.61238 0.0
C2702 C 0.29828 0.23036 0.64215 0.0
H2703 H 0.37975 0.23251 0.65512 0.0
H2704 H 0.35623 0.23595 0.63896 0.0
H2705 H 0.31233 0.21505 0.65637 0.0
H2706 H 0.2435 0.25295 0.63509 0.0
H2707 H 0.26769 0.24168 0.64559 0.0
H2708 H 0.31101 0.26488 0.62632 0.0
C2709 C 0.35489 0.23299 0.65126 0.0
C2710 C 0.31216 0.22587 0.64968 0.0
C2711 C 0.36832 0.23098 0.66047 0.0
C2712 C 0.25432 0.2544 0.62857 0.0
C2713 C 0.26817 0.24788 0.63451 0.0
C2714 C 0.31117 0.25376 0.63247 0.0
C2715 C 0.33987 0.23152 0.65794 0.0
C2716 C 0.32562 0.23534 0.64874 0.0
C2717 C 0.28254 0.25003 0.62662 0.0
C2718 C 0.29755 0.2445 0.63365 0.0
H2719 H 0.35053 0.22312 0.69547 0.0
H2720 H 0.32713 0.22651 0.67937 0.0
H2721 H 0.33517 0.25686 0.63914 0.0
H2722 H 0.26936 0.27174 0.59579 0.0
H2723 H 0.29333 0.25993 0.60577 0.0
C2724 C 0.74933 0.25541 0.61923 0.0
C2725 C 0.73562 0.2575 0.61035 0.0
C2726 C 0.75741 0.26841 0.62516 0.0
C2727 C 0.76159 0.31164 0.62209 0.0
H2728 H 0.77017 0.30895 0.66667 0.0
C2729 C 0.76991 0.36594 0.66209 0.0
C2730 C 0.77948 0.36438 0.67539 0.0
C2731 C 0.76743 0.3531 0.65214 0.0
C2732 C 0.76822 0.30987 0.65415 0.0
H2733 H 0.72004 0.27478 0.60001 0.0
H2734 H 0.73409 0.29741 0.61039 0.0
H2735 H 0.76092 0.28592 0.65276 0.0
H2736 H 0.79502 0.34872 0.68806 0.0
H2737 H 0.79121 0.32657 0.67046 0.0
H2738 H 0.76866 0.33574 0.6236 0.0
C2739 C 0.73866 0.28578 0.61273 0.0
C2740 C 0.76288 0.29662 0.64617 0.0
C2741 C 0.73054 0.27281 0.60689 0.0
C2742 C 0.78739 0.35017 0.67799 0.0
C2743 C 0.78512 0.33745 0.66795 0.0
C2744 C 0.76706 0.32492 0.63007 0.0
C2745 C 0.75198 0.28372 0.62222 0.0
C2746 C 0.75927 0.29741 0.63012 0.0
C2747 C 0.77465 0.33855 0.65525 0.0
C2748 C 0.77022 0.32424 0.64626 0.0
H2749 H 0.75355 0.24375 0.62201 0.0
H2750 H 0.76774 0.26647 0.63231 0.0
H2751 H 0.75903 0.31255 0.60967 0.0
H2752 H 0.76365 0.37678 0.65986 0.0
H2753 H 0.75922 0.35436 0.64253 0.0
C2754 C 0.22473 0.62855 0.65598 0.0
C2755 C 0.22233 0.63087 0.67212 0.0
C2756 C 0.22766 0.64136 0.64612 0.0
C2757 C 0.24665 0.6685 0.63274 0.0
H2758 H 0.22818 0.7096 0.63927 0.0
C2759 C 0.27988 0.72516 0.61897 0.0
C2760 C 0.27171 0.73787 0.61241 0.0
C2761 C 0.27185 0.71178 0.6239 0.0
C2762 C 0.23331 0.69818 0.6371 0.0
H2763 H 0.22021 0.64839 0.69046 0.0
H2764 H 0.22541 0.67061 0.6734 0.0
H2765 H 0.21632 0.68661 0.65155 0.0
H2766 H 0.24874 0.74659 0.60582 0.0
H2767 H 0.23463 0.72311 0.6145 0.0
H2768 H 0.26379 0.68008 0.61852 0.0
C2769 C 0.22494 0.65899 0.66825 0.0
C2770 C 0.2266 0.68503 0.64424 0.0
C2771 C 0.22209 0.64623 0.67807 0.0
C2772 C 0.25532 0.73697 0.6109 0.0
C2773 C 0.24725 0.72356 0.61588 0.0
C2774 C 0.25336 0.68164 0.62562 0.0
C2775 C 0.22813 0.65669 0.65224 0.0
C2776 C 0.23347 0.67012 0.64252 0.0
C2777 C 0.25546 0.7108 0.62237 0.0
C2778 C 0.24705 0.69667 0.62812 0.0
H2779 H 0.22492 0.61682 0.65108 0.0
H2780 H 0.22994 0.63924 0.6338 0.0
H2781 H 0.2523 0.65721 0.63125 0.0
H2782 H 0.29252 0.72551 0.6203 0.0
H2783 H 0.27848 0.70229 0.62914 0.0
C2784 C 0.17971 0.40038 0.25247 0.0
C2785 C 0.1812 0.39784 0.26867 0.0
C2786 C 0.16591 0.3962 0.24466 0.0
C2787 C 0.12542 0.37973 0.25095 0.0
H2788 H 0.13564 0.35657 0.21316 0.0
C2789 C 0.0983 0.3213 0.23297 0.0
C2790 C 0.09669 0.31761 0.217 0.0
C2791 C 0.10393 0.33597 0.23756 0.0
C2792 C 0.13241 0.36329 0.22345 0.0
H2793 H 0.16919 0.38993 0.28962 0.0
H2794 H 0.14547 0.38192 0.27601 0.0
H2795 H 0.15497 0.37394 0.22453 0.0
H2796 H 0.09848 0.3267 0.19331 0.0
H2797 H 0.10868 0.35234 0.20134 0.0
H2798 H 0.10325 0.36781 0.25043 0.0
C2799 C 0.15465 0.38753 0.26927 0.0
C2800 C 0.14353 0.37334 0.23002 0.0
C2801 C 0.16833 0.39201 0.27711 0.0
C2802 C 0.09965 0.32925 0.20571 0.0
C2803 C 0.10551 0.34389 0.21029 0.0
C2804 C 0.11436 0.36947 0.24448 0.0
C2805 C 0.15347 0.38904 0.25284 0.0
C2806 C 0.14043 0.38122 0.24421 0.0
C2807 C 0.10825 0.34715 0.22623 0.0
C2808 C 0.118 0.36073 0.23099 0.0
H2809 H 0.18941 0.40508 0.24573 0.0
H2810 H 0.16529 0.39797 0.23209 0.0
H2811 H 0.12245 0.3859 0.26166 0.0
H2812 H 0.096 0.31256 0.24192 0.0
H2813 H 0.10605 0.33808 0.24991 0.0
C2814 C 0.66648 0.09134 0.21367 0.0
C2815 C 0.6779 0.08852 0.22522 0.0
C2816 C 0.65154 0.0966 0.21792 0.0
C2817 C 0.62575 0.10629 0.25218 0.0
H2818 H 0.61927 0.14482 0.22891 0.0
C2819 C 0.60378 0.16314 0.28005 0.0
C2820 C 0.59681 0.17471 0.27061 0.0
C2821 C 0.60804 0.14867 0.27362 0.0
C2822 C 0.62047 0.13393 0.23536 0.0
H2823 H 0.68216 0.08729 0.25027 0.0
H2824 H 0.65631 0.09674 0.25768 0.0
H2825 H 0.63707 0.12527 0.2188 0.0
H2826 H 0.58728 0.17968 0.24757 0.0
H2827 H 0.59429 0.15426 0.23643 0.0
H2828 H 0.60968 0.1155 0.26919 0.0
C2829 C 0.65873 0.09482 0.24536 0.0
C2830 C 0.63076 0.12264 0.22951 0.0
C2831 C 0.67363 0.08949 0.2411 0.0
C2832 C 0.59287 0.17105 0.25504 0.0
C2833 C 0.59694 0.15651 0.24866 0.0
C2834 C 0.61538 0.11761 0.25803 0.0
C2835 C 0.6478 0.09921 0.23379 0.0
C2836 C 0.63404 0.10899 0.23817 0.0
C2837 C 0.60526 0.14544 0.25766 0.0
C2838 C 0.61315 0.13187 0.25 0.0
H2839 H 0.66939 0.09049 0.20132 0.0
H2840 H 0.64326 0.09957 0.20875 0.0
H2841 H 0.62784 0.09577 0.25901 0.0
H2842 H 0.60691 0.16563 0.29212 0.0
H2843 H 0.61453 0.14053 0.2809 0.0
C2844 C 0.83243 0.60099 0.28691 0.0
C2845 C 0.82086 0.59294 0.27841 0.0
C2846 C 0.84641 0.60548 0.27962 0.0
C2847 C 0.85949 0.61539 0.23978 0.0
H2848 H 0.89708 0.62786 0.26217 0.0
C2849 C 0.90019 0.66135 0.21348 0.0
C2850 C 0.90111 0.67439 0.22352 0.0
C2851 C 0.89554 0.64674 0.21932 0.0
C2852 C 0.88675 0.62425 0.25569 0.0
H2853 H 0.81543 0.58174 0.25625 0.0
H2854 H 0.84011 0.58896 0.24369 0.0
H2855 H 0.87894 0.6092 0.27422 0.0
H2856 H 0.8994 0.68212 0.24769 0.0
H2857 H 0.89138 0.65667 0.25789 0.0
H2858 H 0.86698 0.63085 0.22154 0.0
C2859 C 0.83819 0.5924 0.25578 0.0
C2860 C 0.8763 0.61365 0.26262 0.0
C2861 C 0.82408 0.58817 0.26298 0.0
C2862 C 0.89866 0.67228 0.23967 0.0
C2863 C 0.8942 0.65766 0.24554 0.0
C2864 C 0.87001 0.6258 0.23281 0.0
C2865 C 0.84919 0.60179 0.26375 0.0
C2866 C 0.86214 0.6097 0.25507 0.0
C2867 C 0.89195 0.64491 0.23533 0.0
C2868 C 0.88336 0.6309 0.24099 0.0
H2869 H 0.83025 0.6048 0.29884 0.0
H2870 H 0.85445 0.61281 0.28616 0.0
H2871 H 0.84868 0.61286 0.23361 0.0
H2872 H 0.90207 0.66265 0.20097 0.0
H2873 H 0.89396 0.63707 0.21122 0.0
C2874 C 0.36704 0.80562 0.28861 0.0
C2875 C 0.38341 0.80608 0.29028 0.0
C2876 C 0.35909 0.81802 0.28154 0.0
C2877 C 0.36421 0.84846 0.25228 0.0
H2878 H 0.32286 0.86081 0.26674 0.0
C2879 C 0.32084 0.88837 0.21695 0.0
C2880 C 0.30575 0.88182 0.21574 0.0
C2881 C 0.33197 0.88175 0.22708 0.0
C2882 C 0.33443 0.85754 0.2626 0.0
H2883 H 0.40432 0.81998 0.28625 0.0
H2884 H 0.39031 0.84177 0.2736 0.0
H2885 H 0.33964 0.84501 0.2837 0.0
H2886 H 0.29056 0.86309 0.22393 0.0
H2887 H 0.30985 0.85166 0.24153 0.0
H2888 H 0.35866 0.86057 0.23089 0.0
C2889 C 0.38369 0.83178 0.27784 0.0
C2890 C 0.34402 0.84852 0.27229 0.0
C2891 C 0.39167 0.81938 0.28512 0.0
C2892 C 0.30207 0.86843 0.22461 0.0
C2893 C 0.31307 0.86196 0.2348 0.0
C2894 C 0.35459 0.85756 0.24256 0.0
C2895 C 0.36733 0.83112 0.27587 0.0
C2896 C 0.35874 0.84336 0.26699 0.0
C2897 C 0.32805 0.86864 0.23629 0.0
C2898 C 0.33938 0.86163 0.24742 0.0
H2899 H 0.36036 0.79552 0.2925 0.0
H2900 H 0.34651 0.81704 0.27998 0.0
H2901 H 0.37548 0.84459 0.24786 0.0
H2902 H 0.32397 0.8987 0.21023 0.0
H2903 H 0.34348 0.88706 0.228 0.0
C2904 C 0.09319 0.6823 0.76333 0.0
C2905 C 0.09525 0.68309 0.77964 0.0
C2906 C 0.09844 0.66925 0.75493 0.0
C2907 C 0.11664 0.62931 0.75945 0.0
H2908 H 0.13892 0.64193 0.72184 0.0
C2909 C 0.17383 0.6017 0.73711 0.0
C2910 C 0.17643 0.60074 0.72086 0.0
C2911 C 0.15984 0.60794 0.74291 0.0
C2912 C 0.13248 0.63807 0.73211 0.0
H2913 H 0.10358 0.67058 0.80013 0.0
H2914 H 0.11345 0.64815 0.78551 0.0
H2915 H 0.12153 0.66038 0.73462 0.0
H2916 H 0.16605 0.6045 0.69793 0.0
H2917 H 0.14165 0.61569 0.70811 0.0
H2918 H 0.12874 0.60732 0.7574 0.0
C2919 C 0.10739 0.65731 0.77912 0.0
C2920 C 0.12243 0.64867 0.73947 0.0
C2921 C 0.10184 0.67024 0.78754 0.0
C2922 C 0.16438 0.60516 0.71052 0.0
C2923 C 0.15045 0.61158 0.71632 0.0
C2924 C 0.12691 0.61877 0.75218 0.0
C2925 C 0.10622 0.65687 0.76264 0.0
C2926 C 0.11471 0.64461 0.7535 0.0
C2927 C 0.14827 0.61349 0.73256 0.0
C2928 C 0.13524 0.62323 0.73867 0.0
H2929 H 0.08794 0.69199 0.75698 0.0
H2930 H 0.09692 0.66914 0.74232 0.0
H2931 H 0.11064 0.62564 0.77003 0.0
H2932 H 0.1829 0.5983 0.74535 0.0
H2933 H 0.15855 0.60939 0.75547 0.0
C2934 C 0.40109 0.16973 0.71377 0.0
C2935 C 0.40804 0.18165 0.72277 0.0
C2936 C 0.3969 0.15549 0.72071 0.0
C2937 C 0.38485 0.14198 0.75968 0.0
H2938 H 0.37546 0.10401 0.73645 0.0
C2939 C 0.33733 0.10076 0.78177 0.0
C2940 C 0.3254 0.0995 0.77046 0.0
C2941 C 0.35242 0.10547 0.77736 0.0
C2942 C 0.3782 0.11444 0.74318 0.0
H2943 H 0.4177 0.18743 0.74557 0.0
H2944 H 0.41091 0.16235 0.75759 0.0
H2945 H 0.39447 0.12273 0.72593 0.0
H2946 H 0.32021 0.10059 0.74559 0.0
H2947 H 0.34646 0.10873 0.7379 0.0
H2948 H 0.36812 0.13407 0.77656 0.0
C2949 C 0.40815 0.16417 0.74532 0.0
C2950 C 0.389 0.12521 0.73713 0.0
C2951 C 0.41212 0.17852 0.73842 0.0
C2952 C 0.32916 0.10159 0.75456 0.0
C2953 C 0.34425 0.10612 0.75014 0.0
C2954 C 0.37421 0.13115 0.76578 0.0
C2955 C 0.39977 0.15279 0.73676 0.0
C2956 C 0.39183 0.13951 0.74491 0.0
C2957 C 0.35584 0.10881 0.76157 0.0
C2958 C 0.37018 0.11766 0.75722 0.0
H2959 H 0.39784 0.1718 0.70166 0.0
H2960 H 0.39036 0.14715 0.71372 0.0
H2961 H 0.38653 0.15288 0.76599 0.0
H2962 H 0.33476 0.09915 0.79412 0.0
H2963 H 0.36118 0.10734 0.78639 0.0
C2964 C 0.83032 0.3954 0.73951 0.0
C2965 C 0.8261 0.39777 0.72376 0.0
C2966 C 0.84567 0.39128 0.74345 0.0
C2967 C 0.87627 0.36785 0.7267 0.0
H2968 H 0.89767 0.37712 0.76576 0.0
C2969 C 0.91605 0.32151 0.7523 0.0
C2970 C 0.91249 0.31827 0.76805 0.0
C2971 C 0.91195 0.33596 0.74569 0.0
C2972 C 0.89189 0.37439 0.75478 0.0
H2973 H 0.83485 0.3989 0.69989 0.0
H2974 H 0.86169 0.3914 0.70678 0.0
H2975 H 0.8773 0.39487 0.75615 0.0
H2976 H 0.90341 0.32809 0.78968 0.0
H2977 H 0.89562 0.35285 0.77814 0.0
H2978 H 0.88957 0.34676 0.72586 0.0
C2979 C 0.85311 0.39277 0.71605 0.0
C2980 C 0.88029 0.38462 0.74925 0.0
C2981 C 0.83777 0.39707 0.71213 0.0
C2982 C 0.90624 0.33024 0.77747 0.0
C2983 C 0.90184 0.34455 0.77081 0.0
C2984 C 0.88766 0.35753 0.73232 0.0
C2985 C 0.85706 0.38929 0.73169 0.0
C2986 C 0.87191 0.38107 0.7355 0.0
C2987 C 0.90386 0.34727 0.75463 0.0
C2988 C 0.89511 0.36027 0.74681 0.0
H2989 H 0.82158 0.39597 0.74872 0.0
H2990 H 0.8483 0.38853 0.75558 0.0
H2991 H 0.86992 0.36469 0.71615 0.0
H2992 H 0.9211 0.31255 0.74483 0.0
H2993 H 0.91418 0.33782 0.73332 0.0
C2994 C 0.6772 0.91367 0.7585 0.0
C2995 C 0.68124 0.90878 0.77371 0.0
C2996 C 0.66271 0.90951 0.75204 0.0
C2997 C 0.62505 0.88812 0.76079 0.0
H2998 H 0.63276 0.87025 0.71968 0.0
C2999 C 0.60236 0.82876 0.74018 0.0
C3000 C 0.59913 0.82627 0.72422 0.0
C3001 C 0.60701 0.84353 0.74548 0.0
C3002 C 0.63017 0.87548 0.73097 0.0
H3003 H 0.67282 0.89694 0.79458 0.0
H3004 H 0.64794 0.88917 0.78323 0.0
H3005 H 0.65132 0.88874 0.73056 0.0
H3006 H 0.59706 0.83748 0.70147 0.0
H3007 H 0.60549 0.86333 0.71073 0.0
H3008 H 0.60449 0.87362 0.76157 0.0
C3009 C 0.65567 0.89647 0.77628 0.0
C3010 C 0.64084 0.88617 0.73726 0.0
C3011 C 0.67004 0.90083 0.7828 0.0
C3012 C 0.59954 0.83907 0.71384 0.0
C3013 C 0.60438 0.85384 0.71912 0.0
C3014 C 0.61446 0.87724 0.75456 0.0
C3015 C 0.6521 0.90014 0.76056 0.0
C3016 C 0.63881 0.8921 0.75255 0.0
C3017 C 0.60868 0.85606 0.73489 0.0
C3018 C 0.61729 0.87033 0.73986 0.0
H3019 H 0.68555 0.92001 0.7513 0.0
H3020 H 0.66019 0.91292 0.74006 0.0
H3021 H 0.62289 0.89274 0.77243 0.0
H3022 H 0.60204 0.8191 0.74845 0.0
H3023 H 0.61038 0.84482 0.75767 0.0
C3024 C 0.26355 0.16815 0.40144 0.0
C3025 C 0.27903 0.17376 0.40123 0.0
C3026 C 0.26016 0.15301 0.39621 0.0
C3027 C 0.27498 0.12706 0.36638 0.0
H3028 H 0.23933 0.10155 0.37852 0.0
C3029 C 0.24597 0.08915 0.32028 0.0
C3030 C 0.22969 0.09148 0.3195 0.0
C3031 C 0.25422 0.0929 0.33394 0.0
C3032 C 0.24936 0.1085 0.37498 0.0
H3033 H 0.30329 0.16751 0.3968 0.0
H3034 H 0.29734 0.14102 0.38755 0.0
H3035 H 0.25024 0.12046 0.39711 0.0
H3036 H 0.20904 0.0982 0.33273 0.0
H3037 H 0.22339 0.1054 0.35625 0.0
H3038 H 0.27347 0.11624 0.34395 0.0
C3039 C 0.28782 0.14838 0.39165 0.0
C3040 C 0.25564 0.11927 0.38566 0.0
C3041 C 0.29122 0.16352 0.39696 0.0
C3042 C 0.22162 0.09634 0.333 0.0
C3043 C 0.22988 0.10036 0.34657 0.0
C3044 C 0.26864 0.11644 0.35569 0.0
C3045 C 0.27219 0.14322 0.39059 0.0
C3046 C 0.26809 0.12913 0.38121 0.0
C3047 C 0.24638 0.09939 0.34696 0.0
C3048 C 0.2553 0.10752 0.35959 0.0
H3049 H 0.25392 0.17575 0.40479 0.0
H3050 H 0.24798 0.14946 0.39542 0.0
H3051 H 0.28445 0.13459 0.3625 0.0
H3052 H 0.25244 0.08518 0.31009 0.0
H3053 H 0.26685 0.09157 0.33397 0.0
C3054 C 0.89251 0.2121 0.33403 0.0
C3055 C 0.8998 0.22033 0.32178 0.0
C3056 C 0.88786 0.21994 0.34765 0.0
C3057 C 0.87621 0.25989 0.3591 0.0
H3058 H 0.86698 0.23909 0.3985 0.0
C3059 C 0.83216 0.28673 0.40166 0.0
C3060 C 0.81956 0.27636 0.404 0.0
C3061 C 0.84656 0.28111 0.39617 0.0
C3062 C 0.86967 0.24513 0.38764 0.0
H3063 H 0.90938 0.24278 0.3147 0.0
H3064 H 0.9019 0.25638 0.33874 0.0
H3065 H 0.88511 0.22689 0.37995 0.0
H3066 H 0.8125 0.25193 0.4039 0.0
H3067 H 0.83761 0.24211 0.39447 0.0
H3068 H 0.86042 0.27786 0.36657 0.0
C3069 C 0.89917 0.24402 0.33764 0.0
C3070 C 0.87996 0.23811 0.37696 0.0
C3071 C 0.90355 0.23622 0.3239 0.0
C3072 C 0.82199 0.26019 0.40208 0.0
C3073 C 0.83643 0.25455 0.3968 0.0
C3074 C 0.86612 0.26699 0.36986 0.0
C3075 C 0.89063 0.23615 0.3494 0.0
C3076 C 0.88279 0.24506 0.36223 0.0
C3077 C 0.84864 0.26501 0.39317 0.0
C3078 C 0.86222 0.25936 0.38392 0.0
H3079 H 0.88948 0.19982 0.3327 0.0
H3080 H 0.88118 0.21347 0.35629 0.0
H3081 H 0.87786 0.26558 0.34786 0.0
H3082 H 0.83059 0.29927 0.4031 0.0
H3083 H 0.85583 0.2894 0.39353 0.0
C3084 C 0.77833 0.89312 0.3298 0.0
C3085 C 0.76928 0.90161 0.31898 0.0
C3086 C 0.77169 0.88777 0.34379 0.0
C3087 C 0.73262 0.87649 0.35808 0.0
H3088 H 0.75653 0.86338 0.3945 0.0
C3089 C 0.7077 0.83041 0.3997 0.0
C3090 C 0.71768 0.81732 0.40063 0.0
C3091 C 0.71348 0.84488 0.39456 0.0
C3092 C 0.74965 0.86712 0.38448 0.0
H3093 H 0.74672 0.91264 0.315 0.0
H3094 H 0.73526 0.90386 0.33972 0.0
H3095 H 0.76771 0.88256 0.37634 0.0
H3096 H 0.74174 0.8094 0.39834 0.0
H3097 H 0.75183 0.83462 0.38945 0.0
H3098 H 0.7148 0.86072 0.36592 0.0
C3099 C 0.74732 0.90078 0.33717 0.0
C3100 C 0.75607 0.87803 0.37403 0.0
C3101 C 0.75391 0.90592 0.32305 0.0
C3102 C 0.73376 0.81927 0.39764 0.0
C3103 C 0.73956 0.83376 0.39265 0.0
C3104 C 0.72616 0.86576 0.36861 0.0
C3105 C 0.75588 0.89099 0.34737 0.0
C3106 C 0.7479 0.88234 0.36032 0.0
C3107 C 0.72937 0.84653 0.39043 0.0
C3108 C 0.73485 0.86048 0.38157 0.0
H3109 H 0.79023 0.88963 0.32699 0.0
H3110 H 0.77867 0.88017 0.3512 0.0
H3111 H 0.726 0.87928 0.34759 0.0
H3112 H 0.69525 0.82926 0.40199 0.0
H3113 H 0.70539 0.85458 0.39307 0.0
C3114 C 0.16064 0.71795 0.39589 0.0
C3115 C 0.17345 0.72816 0.39777 0.0
C3116 C 0.14624 0.72365 0.39048 0.0
C3117 C 0.12322 0.75956 0.38183 0.0
H3118 H 0.11263 0.73767 0.34342 0.0
C3119 C 0.0964 0.79029 0.32863 0.0
C3120 C 0.08891 0.78139 0.31698 0.0
C3121 C 0.10175 0.78311 0.34236 0.0
C3122 C 0.11495 0.74376 0.35431 0.0
H3123 H 0.18093 0.75245 0.39675 0.0
H3124 H 0.15579 0.7624 0.38735 0.0
H3125 H 0.13135 0.72617 0.36135 0.0
H3126 H 0.07947 0.75851 0.31123 0.0
H3127 H 0.08803 0.74611 0.33555 0.0
H3128 H 0.10707 0.77738 0.37458 0.0
C3129 C 0.15684 0.75002 0.39004 0.0
C3130 C 0.1258 0.73714 0.36461 0.0
C3131 C 0.17127 0.74431 0.39531 0.0
C3132 C 0.08543 0.76558 0.31996 0.0
C3133 C 0.09047 0.75847 0.33385 0.0
C3134 C 0.11215 0.76612 0.37162 0.0
C3135 C 0.14437 0.73966 0.38703 0.0
C3136 C 0.13049 0.74523 0.37816 0.0
C3137 C 0.09946 0.76693 0.34483 0.0
C3138 C 0.10837 0.75861 0.35739 0.0
H3139 H 0.16195 0.70545 0.39779 0.0
H3140 H 0.13678 0.71543 0.38835 0.0
H3141 H 0.12652 0.76596 0.39231 0.0
H3142 H 0.09924 0.80252 0.32661 0.0
H3143 H 0.1087 0.79006 0.3504 0.0
C3144 C 0.26135 0.8218 0.6043 0.0
C3145 C 0.27748 0.82041 0.60127 0.0
C3146 C 0.25506 0.83605 0.60931 0.0
C3147 C 0.26656 0.86851 0.63341 0.0
H3148 H 0.22479 0.88384 0.62388 0.0
C3149 C 0.23508 0.90705 0.6779 0.0
C3150 C 0.21974 0.90204 0.68122 0.0
C3151 C 0.24253 0.90234 0.66408 0.0
C3152 C 0.23648 0.87973 0.62669 0.0
H3153 H 0.29956 0.83297 0.60019 0.0
H3154 H 0.28857 0.85793 0.60937 0.0
H3155 H 0.23748 0.8652 0.60616 0.0
H3156 H 0.19974 0.88918 0.67223 0.0
H3157 H 0.21284 0.88043 0.64851 0.0
H3158 H 0.26524 0.88186 0.65449 0.0
C3159 C 0.28081 0.84799 0.60774 0.0
C3160 C 0.24377 0.86914 0.61649 0.0
C3161 C 0.28708 0.83374 0.60249 0.0
C3162 C 0.21159 0.8932 0.66998 0.0
C3163 C 0.21911 0.88828 0.65628 0.0
C3164 C 0.25923 0.87892 0.6437 0.0
C3165 C 0.26481 0.84914 0.61159 0.0
C3166 C 0.25863 0.86298 0.62008 0.0
C3167 C 0.23489 0.89228 0.65344 0.0
C3168 C 0.24383 0.88418 0.6408 0.0
H3169 H 0.25367 0.81171 0.60335 0.0
H3170 H 0.24273 0.83652 0.61236 0.0
H3171 H 0.27795 0.86383 0.63658 0.0
H3172 H 0.24156 0.91407 0.68629 0.0
H3173 H 0.25454 0.90599 0.6621 0.0
C3174 C 0.15676 0.28621 0.60239 0.0
C3175 C 0.16847 0.27468 0.60106 0.0
C3176 C 0.14162 0.2821 0.60721 0.0
C3177 C 0.11502 0.24855 0.61578 0.0
H3178 H 0.10664 0.2714 0.65418 0.0
C3179 C 0.09053 0.21954 0.67048 0.0
C3180 C 0.08414 0.22872 0.68256 0.0
C3181 C 0.09479 0.22641 0.65623 0.0
C3182 C 0.10832 0.2651 0.64328 0.0
H3183 H 0.17323 0.24972 0.60228 0.0
H3184 H 0.14687 0.24255 0.61065 0.0
H3185 H 0.12571 0.2815 0.6358 0.0
H3186 H 0.0753 0.25178 0.68858 0.0
H3187 H 0.0821 0.26369 0.66344 0.0
H3188 H 0.09802 0.2318 0.6236 0.0
C3189 C 0.14931 0.25475 0.60799 0.0
C3190 C 0.11936 0.27093 0.63271 0.0
C3191 C 0.16446 0.25887 0.60334 0.0
C3192 C 0.08045 0.24449 0.67953 0.0
C3193 C 0.08446 0.25132 0.66516 0.0
C3194 C 0.10379 0.2428 0.62628 0.0
C3195 C 0.13792 0.26639 0.61059 0.0
C3196 C 0.12339 0.26233 0.61925 0.0
C3197 C 0.09252 0.24258 0.65368 0.0
C3198 C 0.10091 0.25058 0.64058 0.0
H3199 H 0.15951 0.2985 0.60063 0.0
H3200 H 0.13303 0.29129 0.60904 0.0
H3201 H 0.11775 0.2418 0.60536 0.0
H3202 H 0.09345 0.20732 0.67245 0.0
H3203 H 0.10103 0.21924 0.6478 0.0
C3204 C 0.78731 0.09458 0.66901 0.0
C3205 C 0.77682 0.09267 0.68158 0.0
C3206 C 0.78184 0.09934 0.6543 0.0
C3207 C 0.74593 0.10775 0.63072 0.0
H3208 H 0.76815 0.1461 0.62057 0.0
C3209 C 0.71566 0.16217 0.60584 0.0
C3210 C 0.72458 0.17369 0.59817 0.0
C3211 C 0.72267 0.14819 0.61077 0.0
C3212 C 0.76195 0.13523 0.62277 0.0
H3213 H 0.75226 0.09263 0.68823 0.0
H3214 H 0.74272 0.10103 0.66265 0.0
H3215 H 0.77958 0.12779 0.6389 0.0
H3216 H 0.74727 0.179 0.58804 0.0
H3217 H 0.75937 0.15431 0.59598 0.0
H3218 H 0.72798 0.11558 0.61496 0.0
C3219 C 0.75516 0.09884 0.66408 0.0
C3220 C 0.76856 0.12468 0.63338 0.0
C3221 C 0.76064 0.09413 0.67879 0.0
C3222 C 0.7402 0.17038 0.59416 0.0
C3223 C 0.74714 0.15628 0.59881 0.0
C3224 C 0.73936 0.11827 0.61994 0.0
C3225 C 0.76577 0.10221 0.65189 0.0
C3226 C 0.76034 0.11115 0.63797 0.0
C3227 C 0.7387 0.14536 0.6079 0.0
C3228 C 0.74699 0.13248 0.61635 0.0
H3229 H 0.79985 0.09341 0.67078 0.0
H3230 H 0.79026 0.10164 0.64506 0.0
H3231 H 0.73942 0.09731 0.63389 0.0
H3232 H 0.70357 0.16441 0.60908 0.0
H3233 H 0.71577 0.14018 0.61782 0.0
C3234 C 0.82439 0.71345 0.59532 0.0
C3235 C 0.81362 0.72279 0.58709 0.0
C3236 C 0.83877 0.71966 0.60009 0.0
C3237 C 0.85378 0.75842 0.61099 0.0
H3238 H 0.88917 0.73353 0.62507 0.0
C3239 C 0.89364 0.78111 0.65977 0.0
C3240 C 0.89358 0.77068 0.67254 0.0
C3241 C 0.8891 0.77596 0.64486 0.0
C3242 C 0.87947 0.7407 0.62104 0.0
H3243 H 0.81015 0.74525 0.57567 0.0
H3244 H 0.83553 0.75593 0.58344 0.0
H3245 H 0.87147 0.72298 0.60514 0.0
H3246 H 0.89005 0.74648 0.67955 0.0
H3247 H 0.88219 0.73749 0.65359 0.0
H3248 H 0.8614 0.77584 0.62729 0.0
C3249 C 0.83266 0.74401 0.58679 0.0
C3250 C 0.86928 0.73464 0.60968 0.0
C3251 C 0.81815 0.73787 0.58223 0.0
C3252 C 0.89008 0.7548 0.66993 0.0
C3253 C 0.88573 0.74962 0.65502 0.0
C3254 C 0.86405 0.76452 0.62216 0.0
C3255 C 0.84276 0.7353 0.59654 0.0
C3256 C 0.85584 0.74311 0.60512 0.0
C3257 C 0.88464 0.76026 0.64246 0.0
C3258 C 0.87655 0.75542 0.62785 0.0
H3259 H 0.82122 0.70175 0.59919 0.0
H3260 H 0.84611 0.71257 0.60765 0.0
H3261 H 0.84352 0.76528 0.60798 0.0
H3262 H 0.89636 0.79342 0.66145 0.0
H3263 H 0.88843 0.78438 0.63536 0.0
C3264 C 0.31967 0.24497 0.09822 0.0
C3265 C 0.31828 0.22935 0.09321 0.0
C3266 C 0.3342 0.25096 0.10273 0.0
C3267 C 0.36598 0.26305 0.11131 0.0
H3268 H 0.38907 0.23297 0.13636 0.0
C3269 C 0.40461 0.28433 0.16209 0.0
C3270 C 0.40164 0.27609 0.17605 0.0
C3271 C 0.4001 0.27797 0.1476 0.0
C3272 C 0.38278 0.24156 0.12942 0.0
H3273 H 0.33116 0.20819 0.08752 0.0
H3274 H 0.35675 0.21885 0.09475 0.0
H3275 H 0.36947 0.22374 0.11806 0.0
H3276 H 0.39271 0.25431 0.18575 0.0
H3277 H 0.38446 0.24356 0.16094 0.0
H3278 H 0.37804 0.28093 0.12403 0.0
C3279 C 0.34654 0.22633 0.0958 0.0
C3280 C 0.37165 0.23623 0.11865 0.0
C3281 C 0.33189 0.22023 0.09155 0.0
C3282 C 0.39507 0.26102 0.1752 0.0
C3283 C 0.3905 0.25474 0.16084 0.0
C3284 C 0.37683 0.26839 0.12239 0.0
C3285 C 0.3478 0.24157 0.1021 0.0
C3286 C 0.36244 0.24695 0.11008 0.0
C3287 C 0.3925 0.2633 0.14686 0.0
C3288 C 0.38469 0.25772 0.13223 0.0
H3289 H 0.30939 0.2523 0.09961 0.0
H3290 H 0.33447 0.26264 0.10771 0.0
H3291 H 0.35961 0.27165 0.10447 0.0
H3292 H 0.40977 0.29594 0.16241 0.0
H3293 H 0.40206 0.28479 0.13706 0.0
C3294 C 0.3947 0.73647 0.8121 0.0
C3295 C 0.40089 0.72124 0.81129 0.0
C3296 C 0.38998 0.74276 0.82644 0.0
C3297 C 0.38224 0.75585 0.85805 0.0
H3298 H 0.35844 0.72599 0.8827 0.0
C3299 C 0.33298 0.77738 0.89836 0.0
C3300 C 0.31894 0.76902 0.89616 0.0
C3301 C 0.34727 0.77102 0.8933 0.0
C3302 C 0.36505 0.73451 0.87598 0.0
H3303 H 0.40819 0.70109 0.82497 0.0
H3304 H 0.40037 0.71225 0.85021 0.0
H3305 H 0.37644 0.71653 0.86285 0.0
H3306 H 0.30891 0.74711 0.88794 0.0
H3307 H 0.33345 0.73636 0.87873 0.0
H3308 H 0.36958 0.77383 0.87001 0.0
C3309 C 0.39872 0.71919 0.83968 0.0
C3310 C 0.37562 0.72907 0.86471 0.0
C3311 C 0.40328 0.7128 0.82525 0.0
C3312 C 0.31955 0.75389 0.88974 0.0
C3313 C 0.33372 0.74761 0.88459 0.0
C3314 C 0.37142 0.76129 0.86909 0.0
C3315 C 0.39152 0.73405 0.8404 0.0
C3316 C 0.38371 0.73968 0.855 0.0
C3317 C 0.34773 0.75626 0.88588 0.0
C3318 C 0.36206 0.75067 0.87758 0.0
H3319 H 0.39274 0.74329 0.80153 0.0
H3320 H 0.38426 0.7541 0.82635 0.0
H3321 H 0.38869 0.76438 0.85118 0.0
H3322 H 0.33285 0.78902 0.90341 0.0
H3323 H 0.35785 0.77792 0.89471 0.0
C3324 C 0.21264 0.32849 0.89927 0.0
C3325 C 0.22117 0.31636 0.90643 0.0
C3326 C 0.22019 0.34224 0.89453 0.0
C3327 C 0.23791 0.37151 0.88555 0.0
H3328 H 0.27729 0.3608 0.86545 0.0
C3329 C 0.28514 0.39513 0.83579 0.0
C3330 C 0.27443 0.39721 0.82343 0.0
C3331 C 0.27993 0.3899 0.85045 0.0
C3332 C 0.26652 0.3642 0.87129 0.0
H3333 H 0.24382 0.30974 0.91588 0.0
H3334 H 0.25689 0.33404 0.90827 0.0
H3335 H 0.26561 0.34262 0.88384 0.0
H3336 H 0.24983 0.39681 0.81702 0.0
H3337 H 0.24074 0.38779 0.84257 0.0
H3338 H 0.23837 0.39259 0.87179 0.0
C3339 C 0.24452 0.33272 0.90569 0.0
C3340 C 0.25978 0.35375 0.88193 0.0
C3341 C 0.23702 0.31884 0.91017 0.0
C3342 C 0.25834 0.3952 0.82632 0.0
C3343 C 0.25313 0.39016 0.841 0.0
C3344 C 0.24458 0.38189 0.87471 0.0
C3345 C 0.2364 0.34425 0.89707 0.0
C3346 C 0.24507 0.35696 0.88873 0.0
C3347 C 0.26392 0.38688 0.85303 0.0
C3348 C 0.25866 0.37804 0.86705 0.0
H3349 H 0.2004 0.3269 0.89625 0.0
H3350 H 0.2135 0.35072 0.88784 0.0
H3351 H 0.22677 0.37457 0.89084 0.0
H3352 H 0.29762 0.39665 0.83389 0.0
H3353 H 0.28848 0.38754 0.85956 0.0
C3354 C 0.59489 0.28265 0.83321 0.0
C3355 C 0.58789 0.27321 0.82167 0.0
C3356 C 0.59922 0.27621 0.84764 0.0
C3357 C 0.61175 0.23764 0.86184 0.0
H3358 H 0.62298 0.26216 0.89848 0.0
C3359 C 0.66152 0.21716 0.90121 0.0
C3360 C 0.67345 0.22855 0.90139 0.0
C3361 C 0.64617 0.22134 0.89717 0.0
C3362 C 0.61973 0.25507 0.88844 0.0
H3363 H 0.5781 0.25026 0.81683 0.0
H3364 H 0.58506 0.23916 0.84228 0.0
H3365 H 0.60299 0.272 0.88042 0.0
H3366 H 0.67844 0.25338 0.89907 0.0
H3367 H 0.65174 0.26067 0.8921 0.0
H3368 H 0.62893 0.22108 0.86945 0.0
C3369 C 0.58781 0.25135 0.83999 0.0
C3370 C 0.60835 0.26073 0.87804 0.0
C3371 C 0.58372 0.25773 0.82544 0.0
C3372 C 0.6695 0.24435 0.8989 0.0
C3373 C 0.65415 0.24854 0.89504 0.0
C3374 C 0.62295 0.23193 0.87231 0.0
C3375 C 0.59644 0.26025 0.85092 0.0
C3376 C 0.60487 0.25249 0.86414 0.0
C3377 C 0.64249 0.23699 0.89345 0.0
C3378 C 0.62765 0.24096 0.88526 0.0
H3379 H 0.5982 0.29465 0.83065 0.0
H3380 H 0.60591 0.28348 0.85563 0.0
H3381 H 0.60958 0.23096 0.85126 0.0
H3382 H 0.66424 0.2049 0.90315 0.0
H3383 H 0.63738 0.21223 0.89613 0.0
C3384 C 0.73445 0.60371 0.81999 0.0
C3385 C 0.71827 0.60149 0.81785 0.0
C3386 C 0.74025 0.60925 0.83428 0.0
C3387 C 0.72824 0.63577 0.86469 0.0
H3388 H 0.76745 0.62399 0.88452 0.0
C3389 C 0.75761 0.67884 0.90638 0.0
C3390 C 0.77373 0.68091 0.90378 0.0
C3391 C 0.74995 0.6655 0.90068 0.0
C3392 C 0.75651 0.62748 0.87911 0.0
H3393 H 0.69553 0.6024 0.82922 0.0
H3394 H 0.70566 0.61242 0.85415 0.0
H3395 H 0.75565 0.60665 0.86495 0.0
H3396 H 0.79473 0.67027 0.8942 0.0
H3397 H 0.78137 0.64745 0.88361 0.0
H3398 H 0.72952 0.65706 0.87766 0.0
C3399 C 0.71384 0.6098 0.84478 0.0
C3400 C 0.74972 0.61748 0.86798 0.0
C3401 C 0.70806 0.60405 0.83054 0.0
C3402 C 0.78228 0.66893 0.8964 0.0
C3403 C 0.77458 0.65577 0.89039 0.0
C3404 C 0.73513 0.64585 0.87558 0.0
C3405 C 0.72993 0.61286 0.84662 0.0
C3406 C 0.73574 0.62176 0.86038 0.0
C3407 C 0.75819 0.65418 0.8919 0.0
C3408 C 0.7496 0.64208 0.88261 0.0
H3409 H 0.74259 0.60176 0.81042 0.0
H3410 H 0.75269 0.61165 0.83532 0.0
H3411 H 0.71757 0.63947 0.85886 0.0
H3412 H 0.75079 0.68784 0.91222 0.0
H3413 H 0.73743 0.66447 0.90254 0.0
C3414 C 0.66959 0.78154 0.09512 0.0
C3415 C 0.68245 0.77318 0.08915 0.0
C3416 C 0.65581 0.77368 0.09922 0.0
C3417 C 0.6453 0.73418 0.11278 0.0
H3418 H 0.60524 0.75434 0.12037 0.0
C3419 C 0.60391 0.70925 0.15882 0.0
C3420 C 0.60086 0.72049 0.17049 0.0
C3421 C 0.60916 0.71395 0.144 0.0
C3422 C 0.61629 0.74847 0.11816 0.0
H3423 H 0.69043 0.75049 0.08094 0.0
H3424 H 0.66611 0.73685 0.08733 0.0
H3425 H 0.62358 0.76588 0.10158 0.0
H3426 H 0.59945 0.74541 0.17543 0.0
H3427 H 0.60862 0.75359 0.14964 0.0
H3428 H 0.63832 0.71713 0.12974 0.0
C3429 C 0.66684 0.74934 0.08955 0.0
C3430 C 0.62684 0.7551 0.10747 0.0
C3431 C 0.68074 0.75716 0.08577 0.0
C3432 C 0.60185 0.73649 0.16669 0.0
C3433 C 0.60696 0.74118 0.15186 0.0
C3434 C 0.63471 0.72747 0.12328 0.0
C3435 C 0.65454 0.75732 0.09716 0.0
C3436 C 0.6418 0.74845 0.10522 0.0
C3437 C 0.6113 0.72995 0.14058 0.0
C3438 C 0.62041 0.73492 0.12662 0.0
H3439 H 0.67061 0.79392 0.09784 0.0
H3440 H 0.64671 0.78027 0.10513 0.0
H3441 H 0.65672 0.72874 0.11161 0.0
H3442 H 0.60316 0.69683 0.16141 0.0
H3443 H 0.61231 0.70505 0.13548 0.0
C3444 C 0.26113 0.59148 0.18184 0.0
C3445 C 0.27714 0.59448 0.18425 0.0
C3446 C 0.25364 0.59685 0.16829 0.0
C3447 C 0.2605 0.61793 0.13012 0.0
H3448 H 0.22161 0.63858 0.14159 0.0
C3449 C 0.23968 0.67704 0.10568 0.0
C3450 C 0.22354 0.67969 0.1037 0.0
C3451 C 0.24509 0.66262 0.11125 0.0
C3452 C 0.23226 0.63262 0.13801 0.0
H3453 H 0.29816 0.60438 0.17394 0.0
H3454 H 0.28507 0.61436 0.15067 0.0
H3455 H 0.23325 0.61981 0.15943 0.0
H3456 H 0.20047 0.66904 0.10499 0.0
H3457 H 0.20993 0.64386 0.11498 0.0
H3458 H 0.25992 0.63186 0.10915 0.0
C3459 C 0.27825 0.60755 0.15895 0.0
C3460 C 0.23896 0.62176 0.14825 0.0
C3461 C 0.28579 0.6019 0.17237 0.0
C3462 C 0.21297 0.66735 0.10648 0.0
C3463 C 0.21837 0.65296 0.11221 0.0
C3464 C 0.25386 0.62898 0.11994 0.0
C3465 C 0.26195 0.60565 0.15703 0.0
C3466 C 0.25345 0.61466 0.1447 0.0
C3467 C 0.23444 0.65062 0.11508 0.0
C3468 C 0.23993 0.63677 0.12404 0.0
H3469 H 0.25424 0.58558 0.19075 0.0
H3470 H 0.24118 0.59476 0.16701 0.0
H3471 H 0.27147 0.61245 0.12683 0.0
H3472 H 0.2481 0.68632 0.10354 0.0
H3473 H 0.25752 0.66121 0.11349 0.0
C3474 C 0.73973 0.39454 0.17218 0.0
C3475 C 0.72374 0.39661 0.1755 0.0
C3476 C 0.74451 0.38937 0.15739 0.0
C3477 C 0.73062 0.36243 0.12873 0.0
H3478 H 0.76885 0.37326 0.1066 0.0
C3479 C 0.7604 0.31589 0.09144 0.0
C3480 C 0.77658 0.31461 0.09418 0.0
C3481 C 0.75238 0.32963 0.09545 0.0
C3482 C 0.75815 0.37004 0.11264 0.0
H3483 H 0.70026 0.39603 0.16572 0.0
H3484 H 0.70863 0.38656 0.13991 0.0
H3485 H 0.75758 0.39176 0.12538 0.0
H3486 H 0.7973 0.32701 0.10212 0.0
H3487 H 0.78336 0.35054 0.10987 0.0
H3488 H 0.73179 0.34024 0.11737 0.0
C3489 C 0.71744 0.38908 0.14872 0.0
C3490 C 0.75164 0.38071 0.12328 0.0
C3491 C 0.71268 0.39451 0.16346 0.0
C3492 C 0.7848 0.32767 0.0999 0.0
C3493 C 0.77675 0.34127 0.10424 0.0
C3494 C 0.73725 0.35166 0.11834 0.0
C3495 C 0.73335 0.38597 0.14575 0.0
C3496 C 0.73815 0.37674 0.13184 0.0
C3497 C 0.76032 0.3422 0.10267 0.0
C3498 C 0.75148 0.35504 0.11064 0.0
H3499 H 0.7485 0.39615 0.18125 0.0
H3500 H 0.75684 0.38693 0.15548 0.0
H3501 H 0.72029 0.35898 0.13529 0.0
H3502 H 0.75382 0.30604 0.08681 0.0
H3503 H 0.73982 0.33006 0.0936 0.0
loop_
_geom_bond_atom_site_label_1
_geom_bond_atom_site_label_2
_geom_bond_distance
_geom_bond_site_symmetry_2
_ccdc_geom_bond_type
In0 O1 2.294 . S
In0 O2 2.326 . S
In0 O6 2.266 . S
In0 O7 2.326 . S
In0 O8 2.266 . S
In0 O9 2.326 . S
In0 O11 2.294 . S
In0 O12 2.326 . S
O1 In0 2.294 . S
O1 C10 1.240 . S
O2 In0 2.326 . S
O2 C10 1.252 . S
C3 O6 1.252 . S
C3 O7 1.260 . S
C4 O11 1.240 . S
C4 O12 1.252 . S
C5 O8 1.252 . S
C5 O9 1.260 . S
O6 In0 2.266 . S
O6 C3 1.252 . S
O7 In0 2.326 . S
O7 C3 1.260 . S
O8 In0 2.266 . S
O8 C5 1.252 . S
O9 In0 2.326 . S
O9 C5 1.260 . S
C10 O1 1.240 . S
C10 O2 1.252 . S
O11 In0 2.294 . S
O11 C4 1.240 . S
O12 In0 2.326 . S
O12 C4 1.252 . S
In13 O14 2.294 . S
In13 O15 2.326 . S
In13 O19 2.266 . S
In13 O20 2.326 . S
In13 O21 2.266 . S
In13 O22 2.326 . S
In13 O24 2.294 . S
In13 O25 2.326 . S
O14 In13 2.294 . S
O14 C23 1.240 . S
O15 In13 2.326 . S
O15 C23 1.252 . S
C16 O19 1.252 . S
C16 O20 1.260 . S
C17 O24 1.240 . S
C17 O25 1.252 . S
C18 O21 1.252 . S
C18 O22 1.260 . S
O19 In13 2.266 . S
O19 C16 1.252 . S
O20 In13 2.326 . S
O20 C16 1.260 . S
O21 In13 2.266 . S
O21 C18 1.252 . S
O22 In13 2.326 . S
O22 C18 1.260 . S
C23 O14 1.240 . S
C23 O15 1.252 . S
O24 In13 2.294 . S
O24 C17 1.240 . S
O25 In13 2.326 . S
O25 C17 1.252 . S
In26 O27 2.294 . S
In26 O28 2.326 . S
In26 O32 2.266 . S
In26 O33 2.326 . S
In26 O34 2.266 . S
In26 O35 2.326 . S
In26 O37 2.294 . S
In26 O38 2.326 . S
O27 In26 2.294 . S
O27 C36 1.240 . S
O28 In26 2.326 . S
O28 C36 1.252 . S
C29 O32 1.252 . S
C29 O33 1.260 . S
C30 O37 1.240 . S
C30 O38 1.252 . S
C31 O34 1.252 . S
C31 O35 1.260 . S
O32 In26 2.266 . S
O32 C29 1.252 . S
O33 In26 2.326 . S
O33 C29 1.260 . S
O34 In26 2.266 . S
O34 C31 1.252 . S
O35 In26 2.326 . S
O35 C31 1.260 . S
C36 O27 1.240 . S
C36 O28 1.252 . S
O37 In26 2.294 . S
O37 C30 1.240 . S
O38 In26 2.326 . S
O38 C30 1.252 . S
In39 O40 2.294 . S
In39 O41 2.326 . S
In39 O45 2.266 . S
In39 O46 2.326 . S
In39 O47 2.266 . S
In39 O48 2.326 . S
In39 O50 2.294 . S
In39 O51 2.326 . S
O40 In39 2.294 . S
O40 C49 1.240 . S
O41 In39 2.326 . S
O41 C49 1.252 . S
C42 O45 1.252 . S
C42 O46 1.260 . S
C43 O50 1.240 . S
C43 O51 1.252 . S
C44 O47 1.252 . S
C44 O48 1.260 . S
O45 In39 2.266 . S
O45 C42 1.252 . S
O46 In39 2.326 . S
O46 C42 1.260 . S
O47 In39 2.266 . S
O47 C44 1.252 . S
O48 In39 2.326 . S
O48 C44 1.260 . S
C49 O40 1.240 . S
C49 O41 1.252 . S
O50 In39 2.294 . S
O50 C43 1.240 . S
O51 In39 2.326 . S
O51 C43 1.252 . S
In52 O53 2.294 . S
In52 O54 2.326 . S
In52 O58 2.266 . S
In52 O59 2.326 . S
In52 O60 2.266 . S
In52 O61 2.326 . S
In52 O63 2.294 . S
In52 O64 2.326 . S
O53 In52 2.294 . S
O53 C62 1.240 . S
O54 In52 2.326 . S
O54 C62 1.252 . S
C55 O58 1.252 . S
C55 O59 1.260 . S
C56 O63 1.240 . S
C56 O64 1.252 . S
C57 O60 1.252 . S
C57 O61 1.260 . S
O58 In52 2.266 . S
O58 C55 1.252 . S
O59 In52 2.326 . S
O59 C55 1.260 . S
O60 In52 2.266 . S
O60 C57 1.252 . S
O61 In52 2.326 . S
O61 C57 1.260 . S
C62 O53 1.240 . S
C62 O54 1.252 . S
O63 In52 2.294 . S
O63 C56 1.240 . S
O64 In52 2.326 . S
O64 C56 1.252 . S
In65 O66 2.294 . S
In65 O67 2.326 . S
In65 O71 2.266 . S
In65 O72 2.326 . S
In65 O73 2.266 . S
In65 O74 2.326 . S
In65 O76 2.294 . S
In65 O77 2.326 . S
O66 In65 2.294 . S
O66 C75 1.240 . S
O67 In65 2.326 . S
O67 C75 1.252 . S
C68 O71 1.252 . S
C68 O72 1.260 . S
C69 O76 1.240 . S
C69 O77 1.252 . S
C70 O73 1.252 . S
C70 O74 1.260 . S
O71 In65 2.266 . S
O71 C68 1.252 . S
O72 In65 2.326 . S
O72 C68 1.260 . S
O73 In65 2.266 . S
O73 C70 1.252 . S
O74 In65 2.326 . S
O74 C70 1.260 . S
C75 O66 1.240 . S
C75 O67 1.252 . S
O76 In65 2.294 . S
O76 C69 1.240 . S
O77 In65 2.326 . S
O77 C69 1.252 . S
In78 O79 2.294 . S
In78 O80 2.326 . S
In78 O84 2.266 . S
In78 O85 2.326 . S
In78 O86 2.266 . S
In78 O87 2.326 . S
In78 O89 2.294 . S
In78 O90 2.326 . S
O79 In78 2.294 . S
O79 C88 1.240 . S
O80 In78 2.326 . S
O80 C88 1.252 . S
C81 O84 1.252 . S
C81 O85 1.260 . S
C82 O89 1.240 . S
C82 O90 1.252 . S
C83 O86 1.252 . S
C83 O87 1.260 . S
O84 In78 2.266 . S
O84 C81 1.252 . S
O85 In78 2.326 . S
O85 C81 1.260 . S
O86 In78 2.266 . S
O86 C83 1.252 . S
O87 In78 2.326 . S
O87 C83 1.260 . S
C88 O79 1.240 . S
C88 O80 1.252 . S
O89 In78 2.294 . S
O89 C82 1.240 . S
O90 In78 2.326 . S
O90 C82 1.252 . S
In91 O92 2.294 . S
In91 O93 2.326 . S
In91 O97 2.266 . S
In91 O98 2.326 . S
In91 O99 2.266 . S
In91 O100 2.326 . S
In91 O102 2.294 . S
In91 O103 2.326 . S
O92 In91 2.294 . S
O92 C101 1.240 . S
O93 In91 2.326 . S
O93 C101 1.252 . S
C94 O97 1.252 . S
C94 O98 1.260 . S
C95 O102 1.240 . S
C95 O103 1.252 . S
C96 O99 1.252 . S
C96 O100 1.260 . S
O97 In91 2.266 . S
O97 C94 1.252 . S
O98 In91 2.326 . S
O98 C94 1.260 . S
O99 In91 2.266 . S
O99 C96 1.252 . S
O100 In91 2.326 . S
O100 C96 1.260 . S
C101 O92 1.240 . S
C101 O93 1.252 . S
O102 In91 2.294 . S
O102 C95 1.240 . S
O103 In91 2.326 . S
O103 C95 1.252 . S
In104 O105 2.294 . S
In104 O106 2.326 . S
In104 O110 2.266 . S
In104 O111 2.326 . S
In104 O112 2.266 . S
In104 O113 2.326 . S
In104 O115 2.294 . S
In104 O116 2.326 . S
O105 In104 2.294 . S
O105 C114 1.240 . S
O106 In104 2.326 . S
O106 C114 1.252 . S
C107 O110 1.252 . S
C107 O111 1.260 . S
C108 O115 1.240 . S
C108 O116 1.252 . S
C109 O112 1.252 . S
C109 O113 1.260 . S
O110 In104 2.266 . S
O110 C107 1.252 . S
O111 In104 2.326 . S
O111 C107 1.260 . S
O112 In104 2.266 . S
O112 C109 1.252 . S
O113 In104 2.326 . S
O113 C109 1.260 . S
C114 O105 1.240 . S
C114 O106 1.252 . S
O115 In104 2.294 . S
O115 C108 1.240 . S
O116 In104 2.326 . S
O116 C108 1.252 . S
In117 O118 2.294 . S
In117 O119 2.326 . S
In117 O123 2.266 . S
In117 O124 2.326 . S
In117 O125 2.266 . S
In117 O126 2.326 . S
In117 O128 2.294 . S
In117 O129 2.326 . S
O118 In117 2.294 . S
O118 C127 1.240 . S
O119 In117 2.326 . S
O119 C127 1.252 . S
C120 O123 1.252 . S
C120 O124 1.260 . S
C121 O128 1.240 . S
C121 O129 1.252 . S
C122 O125 1.252 . S
C122 O126 1.260 . S
O123 In117 2.266 . S
O123 C120 1.252 . S
O124 In117 2.326 . S
O124 C120 1.260 . S
O125 In117 2.266 . S
O125 C122 1.252 . S
O126 In117 2.326 . S
O126 C122 1.260 . S
C127 O118 1.240 . S
C127 O119 1.252 . S
O128 In117 2.294 . S
O128 C121 1.240 . S
O129 In117 2.326 . S
O129 C121 1.252 . S
In130 O131 2.294 . S
In130 O132 2.326 . S
In130 O136 2.266 . S
In130 O137 2.326 . S
In130 O138 2.266 . S
In130 O139 2.326 . S
In130 O141 2.294 . S
In130 O142 2.326 . S
O131 In130 2.294 . S
O131 C140 1.240 . S
O132 In130 2.326 . S
O132 C140 1.252 . S
C133 O136 1.252 . S
C133 O137 1.260 . S
C134 O141 1.240 . S
C134 O142 1.252 . S
C135 O138 1.252 . S
C135 O139 1.260 . S
O136 In130 2.266 . S
O136 C133 1.252 . S
O137 In130 2.326 . S
O137 C133 1.260 . S
O138 In130 2.266 . S
O138 C135 1.252 . S
O139 In130 2.326 . S
O139 C135 1.260 . S
C140 O131 1.240 . S
C140 O132 1.252 . S
O141 In130 2.294 . S
O141 C134 1.240 . S
O142 In130 2.326 . S
O142 C134 1.252 . S
In143 O144 2.294 . S
In143 O145 2.326 . S
In143 O149 2.266 . S
In143 O150 2.326 . S
In143 O151 2.266 . S
In143 O152 2.326 . S
In143 O154 2.294 . S
In143 O155 2.326 . S
O144 In143 2.294 . S
O144 C153 1.240 . S
O145 In143 2.326 . S
O145 C153 1.252 . S
C146 O149 1.252 . S
C146 O150 1.260 . S
C147 O154 1.240 . S
C147 O155 1.252 . S
C148 O151 1.252 . S
C148 O152 1.260 . S
O149 In143 2.266 . S
O149 C146 1.252 . S
O150 In143 2.326 . S
O150 C146 1.260 . S
O151 In143 2.266 . S
O151 C148 1.252 . S
O152 In143 2.326 . S
O152 C148 1.260 . S
C153 O144 1.240 . S
C153 O145 1.252 . S
O154 In143 2.294 . S
O154 C147 1.240 . S
O155 In143 2.326 . S
O155 C147 1.252 . S
In156 O157 2.294 . S
In156 O158 2.326 . S
In156 O162 2.266 . S
In156 O163 2.326 . S
In156 O164 2.266 . S
In156 O165 2.326 . S
In156 O167 2.294 . S
In156 O168 2.326 . S
O157 In156 2.294 . S
O157 C166 1.240 . S
O158 In156 2.326 . S
O158 C166 1.252 . S
C159 O162 1.252 . S
C159 O163 1.260 . S
C160 O167 1.240 . S
C160 O168 1.252 . S
C161 O164 1.252 . S
C161 O165 1.260 . S
O162 In156 2.266 . S
O162 C159 1.252 . S
O163 In156 2.326 . S
O163 C159 1.260 . S
O164 In156 2.266 . S
O164 C161 1.252 . S
O165 In156 2.326 . S
O165 C161 1.260 . S
C166 O157 1.240 . S
C166 O158 1.252 . S
O167 In156 2.294 . S
O167 C160 1.240 . S
O168 In156 2.326 . S
O168 C160 1.252 . S
In169 O170 2.294 . S
In169 O171 2.326 . S
In169 O175 2.266 . S
In169 O176 2.326 . S
In169 O177 2.266 . S
In169 O178 2.326 . S
In169 O180 2.294 . S
In169 O181 2.326 . S
O170 In169 2.294 . S
O170 C179 1.240 . S
O171 In169 2.326 . S
O171 C179 1.252 . S
C172 O175 1.252 . S
C172 O176 1.260 . S
C173 O180 1.240 . S
C173 O181 1.252 . S
C174 O177 1.252 . S
C174 O178 1.260 . S
O175 In169 2.266 . S
O175 C172 1.252 . S
O176 In169 2.326 . S
O176 C172 1.260 . S
O177 In169 2.266 . S
O177 C174 1.252 . S
O178 In169 2.326 . S
O178 C174 1.260 . S
C179 O170 1.240 . S
C179 O171 1.252 . S
O180 In169 2.294 . S
O180 C173 1.240 . S
O181 In169 2.326 . S
O181 C173 1.252 . S
In182 O183 2.294 . S
In182 O184 2.326 . S
In182 O188 2.266 . S
In182 O189 2.326 . S
In182 O190 2.266 . S
In182 O191 2.326 . S
In182 O193 2.294 . S
In182 O194 2.326 . S
O183 In182 2.294 . S
O183 C192 1.240 . S
O184 In182 2.326 . S
O184 C192 1.252 . S
C185 O188 1.252 . S
C185 O189 1.260 . S
C186 O193 1.240 . S
C186 O194 1.252 . S
C187 O190 1.252 . S
C187 O191 1.260 . S
O188 In182 2.266 . S
O188 C185 1.252 . S
O189 In182 2.326 . S
O189 C185 1.260 . S
O190 In182 2.266 . S
O190 C187 1.252 . S
O191 In182 2.326 . S
O191 C187 1.260 . S
C192 O183 1.240 . S
C192 O184 1.252 . S
O193 In182 2.294 . S
O193 C186 1.240 . S
O194 In182 2.326 . S
O194 C186 1.252 . S
In195 O196 2.294 . S
In195 O197 2.326 . S
In195 O201 2.266 . S
In195 O202 2.326 . S
In195 O203 2.266 . S
In195 O204 2.326 . S
In195 O206 2.294 . S
In195 O207 2.326 . S
O196 In195 2.294 . S
O196 C205 1.240 . S
O197 In195 2.326 . S
O197 C205 1.252 . S
C198 O201 1.252 . S
C198 O202 1.260 . S
C199 O206 1.240 . S
C199 O207 1.252 . S
C200 O203 1.252 . S
C200 O204 1.260 . S
O201 In195 2.266 . S
O201 C198 1.252 . S
O202 In195 2.326 . S
O202 C198 1.260 . S
O203 In195 2.266 . S
O203 C200 1.252 . S
O204 In195 2.326 . S
O204 C200 1.260 . S
C205 O196 1.240 . S
C205 O197 1.252 . S
O206 In195 2.294 . S
O206 C199 1.240 . S
O207 In195 2.326 . S
O207 C199 1.252 . S
In208 O209 2.294 . S
In208 O210 2.326 . S
In208 O214 2.266 . S
In208 O215 2.326 . S
In208 O216 2.266 . S
In208 O217 2.326 . S
In208 O219 2.294 . S
In208 O220 2.326 . S
O209 In208 2.294 . S
O209 C218 1.240 . S
O210 In208 2.326 . S
O210 C218 1.252 . S
C211 O214 1.252 . S
C211 O215 1.260 . S
C212 O219 1.240 . S
C212 O220 1.252 . S
C213 O216 1.252 . S
C213 O217 1.260 . S
O214 In208 2.266 . S
O214 C211 1.252 . S
O215 In208 2.326 . S
O215 C211 1.260 . S
O216 In208 2.266 . S
O216 C213 1.252 . S
O217 In208 2.326 . S
O217 C213 1.260 . S
C218 O209 1.240 . S
C218 O210 1.252 . S
O219 In208 2.294 . S
O219 C212 1.240 . S
O220 In208 2.326 . S
O220 C212 1.252 . S
In221 O222 2.294 . S
In221 O223 2.326 . S
In221 O227 2.266 . S
In221 O228 2.326 . S
In221 O229 2.266 . S
In221 O230 2.326 . S
In221 O232 2.294 . S
In221 O233 2.326 . S
O222 In221 2.294 . S
O222 C231 1.240 . S
O223 In221 2.326 . S
O223 C231 1.252 . S
C224 O227 1.252 . S
C224 O228 1.260 . S
C225 O232 1.240 . S
C225 O233 1.252 . S
C226 O229 1.252 . S
C226 O230 1.260 . S
O227 In221 2.266 . S
O227 C224 1.252 . S
O228 In221 2.326 . S
O228 C224 1.260 . S
O229 In221 2.266 . S
O229 C226 1.252 . S
O230 In221 2.326 . S
O230 C226 1.260 . S
C231 O222 1.240 . S
C231 O223 1.252 . S
O232 In221 2.294 . S
O232 C225 1.240 . S
O233 In221 2.326 . S
O233 C225 1.252 . S
In234 O235 2.294 . S
In234 O236 2.326 . S
In234 O240 2.266 . S
In234 O241 2.326 . S
In234 O242 2.266 . S
In234 O243 2.326 . S
In234 O245 2.294 . S
In234 O246 2.326 . S
O235 In234 2.294 . S
O235 C244 1.240 . S
O236 In234 2.326 . S
O236 C244 1.252 . S
C237 O240 1.252 . S
C237 O241 1.260 . S
C238 O245 1.240 . S
C238 O246 1.252 . S
C239 O242 1.252 . S
C239 O243 1.260 . S
O240 In234 2.266 . S
O240 C237 1.252 . S
O241 In234 2.326 . S
O241 C237 1.260 . S
O242 In234 2.266 . S
O242 C239 1.252 . S
O243 In234 2.326 . S
O243 C239 1.260 . S
C244 O235 1.240 . S
C244 O236 1.252 . S
O245 In234 2.294 . S
O245 C238 1.240 . S
O246 In234 2.326 . S
O246 C238 1.252 . S
In247 O248 2.294 . S
In247 O249 2.326 . S
In247 O253 2.266 . S
In247 O254 2.326 . S
In247 O255 2.266 . S
In247 O256 2.326 . S
In247 O258 2.294 . S
In247 O259 2.326 . S
O248 In247 2.294 . S
O248 C257 1.240 . S
O249 In247 2.326 . S
O249 C257 1.252 . S
C250 O253 1.252 . S
C250 O254 1.260 . S
C251 O258 1.240 . S
C251 O259 1.252 . S
C252 O255 1.252 . S
C252 O256 1.260 . S
O253 In247 2.266 . S
O253 C250 1.252 . S
O254 In247 2.326 . S
O254 C250 1.260 . S
O255 In247 2.266 . S
O255 C252 1.252 . S
O256 In247 2.326 . S
O256 C252 1.260 . S
C257 O248 1.240 . S
C257 O249 1.252 . S
O258 In247 2.294 . S
O258 C251 1.240 . S
O259 In247 2.326 . S
O259 C251 1.252 . S
In260 O261 2.294 . S
In260 O262 2.326 . S
In260 O266 2.266 . S
In260 O267 2.326 . S
In260 O268 2.266 . S
In260 O269 2.326 . S
In260 O271 2.294 . S
In260 O272 2.326 . S
O261 In260 2.294 . S
O261 C270 1.240 . S
O262 In260 2.326 . S
O262 C270 1.252 . S
C263 O266 1.252 . S
C263 O267 1.260 . S
C264 O271 1.240 . S
C264 O272 1.252 . S
C265 O268 1.252 . S
C265 O269 1.260 . S
O266 In260 2.266 . S
O266 C263 1.252 . S
O267 In260 2.326 . S
O267 C263 1.260 . S
O268 In260 2.266 . S
O268 C265 1.252 . S
O269 In260 2.326 . S
O269 C265 1.260 . S
C270 O261 1.240 . S
C270 O262 1.252 . S
O271 In260 2.294 . S
O271 C264 1.240 . S
O272 In260 2.326 . S
O272 C264 1.252 . S
In273 O274 2.294 . S
In273 O275 2.326 . S
In273 O279 2.266 . S
In273 O280 2.326 . S
In273 O281 2.266 . S
In273 O282 2.326 . S
In273 O284 2.294 . S
In273 O285 2.326 . S
O274 In273 2.294 . S
O274 C283 1.240 . S
O275 In273 2.326 . S
O275 C283 1.252 . S
C276 O279 1.252 . S
C276 O280 1.260 . S
C277 O284 1.240 . S
C277 O285 1.252 . S
C278 O281 1.252 . S
C278 O282 1.260 . S
O279 In273 2.266 . S
O279 C276 1.252 . S
O280 In273 2.326 . S
O280 C276 1.260 . S
O281 In273 2.266 . S
O281 C278 1.252 . S
O282 In273 2.326 . S
O282 C278 1.260 . S
C283 O274 1.240 . S
C283 O275 1.252 . S
O284 In273 2.294 . S
O284 C277 1.240 . S
O285 In273 2.326 . S
O285 C277 1.252 . S
In286 O287 2.294 . S
In286 O288 2.326 . S
In286 O292 2.266 . S
In286 O293 2.326 . S
In286 O294 2.266 . S
In286 O295 2.326 . S
In286 O297 2.294 . S
In286 O298 2.326 . S
O287 In286 2.294 . S
O287 C296 1.240 . S
O288 In286 2.326 . S
O288 C296 1.252 . S
C289 O292 1.252 . S
C289 O293 1.260 . S
C290 O297 1.240 . S
C290 O298 1.252 . S
C291 O294 1.252 . S
C291 O295 1.260 . S
O292 In286 2.266 . S
O292 C289 1.252 . S
O293 In286 2.326 . S
O293 C289 1.260 . S
O294 In286 2.266 . S
O294 C291 1.252 . S
O295 In286 2.326 . S
O295 C291 1.260 . S
C296 O287 1.240 . S
C296 O288 1.252 . S
O297 In286 2.294 . S
O297 C290 1.240 . S
O298 In286 2.326 . S
O298 C290 1.252 . S
In299 O300 2.294 . S
In299 O301 2.326 . S
In299 O305 2.266 . S
In299 O306 2.326 . S
In299 O307 2.266 . S
In299 O308 2.326 . S
In299 O310 2.294 . S
In299 O311 2.326 . S
O300 In299 2.294 . S
O300 C309 1.240 . S
O301 In299 2.326 . S
O301 C309 1.252 . S
C302 O305 1.252 . S
C302 O306 1.260 . S
C303 O310 1.240 . S
C303 O311 1.252 . S
C304 O307 1.252 . S
C304 O308 1.260 . S
O305 In299 2.266 . S
O305 C302 1.252 . S
O306 In299 2.326 . S
O306 C302 1.260 . S
O307 In299 2.266 . S
O307 C304 1.252 . S
O308 In299 2.326 . S
O308 C304 1.260 . S
C309 O300 1.240 . S
C309 O301 1.252 . S
O310 In299 2.294 . S
O310 C303 1.240 . S
O311 In299 2.326 . S
O311 C303 1.252 . S
In312 O313 2.294 . S
In312 O314 2.326 . S
In312 O318 2.266 . S
In312 O319 2.326 . S
In312 O320 2.266 . S
In312 O321 2.326 . S
In312 O323 2.294 . S
In312 O324 2.326 . S
O313 In312 2.294 . S
O313 C322 1.240 . S
O314 In312 2.326 . S
O314 C322 1.252 . S
C315 O318 1.252 . S
C315 O319 1.260 . S
C316 O323 1.240 . S
C316 O324 1.252 . S
C317 O320 1.252 . S
C317 O321 1.260 . S
O318 In312 2.266 . S
O318 C315 1.252 . S
O319 In312 2.326 . S
O319 C315 1.260 . S
O320 In312 2.266 . S
O320 C317 1.252 . S
O321 In312 2.326 . S
O321 C317 1.260 . S
C322 O313 1.240 . S
C322 O314 1.252 . S
O323 In312 2.294 . S
O323 C316 1.240 . S
O324 In312 2.326 . S
O324 C316 1.252 . S
In325 O326 2.294 . S
In325 O327 2.326 . S
In325 O331 2.266 . S
In325 O332 2.326 . S
In325 O333 2.266 . S
In325 O334 2.326 . S
In325 O336 2.294 . S
In325 O337 2.326 . S
O326 In325 2.294 . S
O326 C335 1.240 . S
O327 In325 2.326 . S
O327 C335 1.252 . S
C328 O331 1.252 . S
C328 O332 1.260 . S
C329 O336 1.240 . S
C329 O337 1.252 . S
C330 O333 1.252 . S
C330 O334 1.260 . S
O331 In325 2.266 . S
O331 C328 1.252 . S
O332 In325 2.326 . S
O332 C328 1.260 . S
O333 In325 2.266 . S
O333 C330 1.252 . S
O334 In325 2.326 . S
O334 C330 1.260 . S
C335 O326 1.240 . S
C335 O327 1.252 . S
O336 In325 2.294 . S
O336 C329 1.240 . S
O337 In325 2.326 . S
O337 C329 1.252 . S
In338 O339 2.294 . S
In338 O340 2.326 . S
In338 O344 2.266 . S
In338 O345 2.326 . S
In338 O346 2.266 . S
In338 O347 2.326 . S
In338 O349 2.294 . S
In338 O350 2.326 . S
O339 In338 2.294 . S
O339 C348 1.240 . S
O340 In338 2.326 . S
O340 C348 1.252 . S
C341 O344 1.252 . S
C341 O345 1.260 . S
C342 O349 1.240 . S
C342 O350 1.252 . S
C343 O346 1.252 . S
C343 O347 1.260 . S
O344 In338 2.266 . S
O344 C341 1.252 . S
O345 In338 2.326 . S
O345 C341 1.260 . S
O346 In338 2.266 . S
O346 C343 1.252 . S
O347 In338 2.326 . S
O347 C343 1.260 . S
C348 O339 1.240 . S
C348 O340 1.252 . S
O349 In338 2.294 . S
O349 C342 1.240 . S
O350 In338 2.326 . S
O350 C342 1.252 . S
In351 O352 2.294 . S
In351 O353 2.326 . S
In351 O357 2.266 . S
In351 O358 2.326 . S
In351 O359 2.266 . S
In351 O360 2.326 . S
In351 O362 2.294 . S
In351 O363 2.326 . S
O352 In351 2.294 . S
O352 C361 1.240 . S
O353 In351 2.326 . S
O353 C361 1.252 . S
C354 O357 1.252 . S
C354 O358 1.260 . S
C355 O362 1.240 . S
C355 O363 1.252 . S
C356 O359 1.252 . S
C356 O360 1.260 . S
O357 In351 2.266 . S
O357 C354 1.252 . S
O358 In351 2.326 . S
O358 C354 1.260 . S
O359 In351 2.266 . S
O359 C356 1.252 . S
O360 In351 2.326 . S
O360 C356 1.260 . S
C361 O352 1.240 . S
C361 O353 1.252 . S
O362 In351 2.294 . S
O362 C355 1.240 . S
O363 In351 2.326 . S
O363 C355 1.252 . S
In364 O365 2.294 . S
In364 O366 2.326 . S
In364 O370 2.266 . S
In364 O371 2.326 . S
In364 O372 2.266 . S
In364 O373 2.326 . S
In364 O375 2.294 . S
In364 O376 2.326 . S
O365 In364 2.294 . S
O365 C374 1.240 . S
O366 In364 2.326 . S
O366 C374 1.252 . S
C367 O370 1.252 . S
C367 O371 1.260 . S
C368 O375 1.240 . S
C368 O376 1.252 . S
C369 O372 1.252 . S
C369 O373 1.260 . S
O370 In364 2.266 . S
O370 C367 1.252 . S
O371 In364 2.326 . S
O371 C367 1.260 . S
O372 In364 2.266 . S
O372 C369 1.252 . S
O373 In364 2.326 . S
O373 C369 1.260 . S
C374 O365 1.240 . S
C374 O366 1.252 . S
O375 In364 2.294 . S
O375 C368 1.240 . S
O376 In364 2.326 . S
O376 C368 1.252 . S
In377 O378 2.294 . S
In377 O379 2.326 . S
In377 O383 2.266 . S
In377 O384 2.326 . S
In377 O385 2.266 . S
In377 O386 2.326 . S
In377 O388 2.294 . S
In377 O389 2.326 . S
O378 In377 2.294 . S
O378 C387 1.240 . S
O379 In377 2.326 . S
O379 C387 1.252 . S
C380 O383 1.252 . S
C380 O384 1.260 . S
C381 O388 1.240 . S
C381 O389 1.252 . S
C382 O385 1.252 . S
C382 O386 1.260 . S
O383 In377 2.266 . S
O383 C380 1.252 . S
O384 In377 2.326 . S
O384 C380 1.260 . S
O385 In377 2.266 . S
O385 C382 1.252 . S
O386 In377 2.326 . S
O386 C382 1.260 . S
C387 O378 1.240 . S
C387 O379 1.252 . S
O388 In377 2.294 . S
O388 C381 1.240 . S
O389 In377 2.326 . S
O389 C381 1.252 . S
In390 O391 2.294 . S
In390 O392 2.326 . S
In390 O396 2.266 . S
In390 O397 2.326 . S
In390 O398 2.266 . S
In390 O399 2.326 . S
In390 O401 2.294 . S
In390 O402 2.326 . S
O391 In390 2.294 . S
O391 C400 1.240 . S
O392 In390 2.326 . S
O392 C400 1.252 . S
C393 O396 1.252 . S
C393 O397 1.260 . S
C394 O401 1.240 . S
C394 O402 1.252 . S
C395 O398 1.252 . S
C395 O399 1.260 . S
O396 In390 2.266 . S
O396 C393 1.252 . S
O397 In390 2.326 . S
O397 C393 1.260 . S
O398 In390 2.266 . S
O398 C395 1.252 . S
O399 In390 2.326 . S
O399 C395 1.260 . S
C400 O391 1.240 . S
C400 O392 1.252 . S
O401 In390 2.294 . S
O401 C394 1.240 . S
O402 In390 2.326 . S
O402 C394 1.252 . S
In403 O404 2.294 . S
In403 O405 2.326 . S
In403 O409 2.266 . S
In403 O410 2.326 . S
In403 O411 2.266 . S
In403 O412 2.326 . S
In403 O414 2.294 . S
In403 O415 2.326 . S
O404 In403 2.294 . S
O404 C413 1.240 . S
O405 In403 2.326 . S
O405 C413 1.252 . S
C406 O409 1.252 . S
C406 O410 1.260 . S
C407 O414 1.240 . S
C407 O415 1.252 . S
C408 O411 1.252 . S
C408 O412 1.260 . S
O409 In403 2.266 . S
O409 C406 1.252 . S
O410 In403 2.326 . S
O410 C406 1.260 . S
O411 In403 2.266 . S
O411 C408 1.252 . S
O412 In403 2.326 . S
O412 C408 1.260 . S
C413 O404 1.240 . S
C413 O405 1.252 . S
O414 In403 2.294 . S
O414 C407 1.240 . S
O415 In403 2.326 . S
O415 C407 1.252 . S
In416 O417 2.294 . S
In416 O418 2.326 . S
In416 O422 2.266 . S
In416 O423 2.326 . S
In416 O424 2.266 . S
In416 O425 2.326 . S
In416 O427 2.294 . S
In416 O428 2.326 . S
O417 In416 2.294 . S
O417 C426 1.240 . S
O418 In416 2.326 . S
O418 C426 1.252 . S
C419 O422 1.252 . S
C419 O423 1.260 . S
C420 O427 1.240 . S
C420 O428 1.252 . S
C421 O424 1.252 . S
C421 O425 1.260 . S
O422 In416 2.266 . S
O422 C419 1.252 . S
O423 In416 2.326 . S
O423 C419 1.260 . S
O424 In416 2.266 . S
O424 C421 1.252 . S
O425 In416 2.326 . S
O425 C421 1.260 . S
C426 O417 1.240 . S
C426 O418 1.252 . S
O427 In416 2.294 . S
O427 C420 1.240 . S
O428 In416 2.326 . S
O428 C420 1.252 . S
In429 O430 2.294 . S
In429 O431 2.326 . S
In429 O435 2.266 . S
In429 O436 2.326 . S
In429 O437 2.266 . S
In429 O438 2.326 . S
In429 O440 2.294 . S
In429 O441 2.326 . S
O430 In429 2.294 . S
O430 C439 1.240 . S
O431 In429 2.326 . S
O431 C439 1.252 . S
C432 O435 1.252 . S
C432 O436 1.260 . S
C433 O440 1.240 . S
C433 O441 1.252 . S
C434 O437 1.252 . S
C434 O438 1.260 . S
O435 In429 2.266 . S
O435 C432 1.252 . S
O436 In429 2.326 . S
O436 C432 1.260 . S
O437 In429 2.266 . S
O437 C434 1.252 . S
O438 In429 2.326 . S
O438 C434 1.260 . S
C439 O430 1.240 . S
C439 O431 1.252 . S
O440 In429 2.294 . S
O440 C433 1.240 . S
O441 In429 2.326 . S
O441 C433 1.252 . S
In442 O443 2.294 . S
In442 O444 2.326 . S
In442 O448 2.266 . S
In442 O449 2.326 . S
In442 O450 2.266 . S
In442 O451 2.326 . S
In442 O453 2.294 . S
In442 O454 2.326 . S
O443 In442 2.294 . S
O443 C452 1.240 . S
O444 In442 2.326 . S
O444 C452 1.252 . S
C445 O448 1.252 . S
C445 O449 1.260 . S
C446 O453 1.240 . S
C446 O454 1.252 . S
C447 O450 1.252 . S
C447 O451 1.260 . S
O448 In442 2.266 . S
O448 C445 1.252 . S
O449 In442 2.326 . S
O449 C445 1.260 . S
O450 In442 2.266 . S
O450 C447 1.252 . S
O451 In442 2.326 . S
O451 C447 1.260 . S
C452 O443 1.240 . S
C452 O444 1.252 . S
O453 In442 2.294 . S
O453 C446 1.240 . S
O454 In442 2.326 . S
O454 C446 1.252 . S
In455 O456 2.294 . S
In455 O457 2.326 . S
In455 O461 2.266 . S
In455 O462 2.326 . S
In455 O463 2.266 . S
In455 O464 2.326 . S
In455 O466 2.294 . S
In455 O467 2.326 . S
O456 In455 2.294 . S
O456 C465 1.240 . S
O457 In455 2.326 . S
O457 C465 1.252 . S
C458 O461 1.252 . S
C458 O462 1.260 . S
C459 O466 1.240 . S
C459 O467 1.252 . S
C460 O463 1.252 . S
C460 O464 1.260 . S
O461 In455 2.266 . S
O461 C458 1.252 . S
O462 In455 2.326 . S
O462 C458 1.260 . S
O463 In455 2.266 . S
O463 C460 1.252 . S
O464 In455 2.326 . S
O464 C460 1.260 . S
C465 O456 1.240 . S
C465 O457 1.252 . S
O466 In455 2.294 . S
O466 C459 1.240 . S
O467 In455 2.326 . S
O467 C459 1.252 . S
In468 O469 2.294 . S
In468 O470 2.326 . S
In468 O474 2.266 . S
In468 O475 2.326 . S
In468 O476 2.266 . S
In468 O477 2.326 . S
In468 O479 2.294 . S
In468 O480 2.326 . S
O469 In468 2.294 . S
O469 C478 1.240 . S
O470 In468 2.326 . S
O470 C478 1.252 . S
C471 O474 1.252 . S
C471 O475 1.260 . S
C472 O479 1.240 . S
C472 O480 1.252 . S
C473 O476 1.252 . S
C473 O477 1.260 . S
O474 In468 2.266 . S
O474 C471 1.252 . S
O475 In468 2.326 . S
O475 C471 1.260 . S
O476 In468 2.266 . S
O476 C473 1.252 . S
O477 In468 2.326 . S
O477 C473 1.260 . S
C478 O469 1.240 . S
C478 O470 1.252 . S
O479 In468 2.294 . S
O479 C472 1.240 . S
O480 In468 2.326 . S
O480 C472 1.252 . S
In481 O482 2.294 . S
In481 O483 2.326 . S
In481 O487 2.266 . S
In481 O488 2.326 . S
In481 O489 2.266 . S
In481 O490 2.326 . S
In481 O492 2.294 . S
In481 O493 2.326 . S
O482 In481 2.294 . S
O482 C491 1.240 . S
O483 In481 2.326 . S
O483 C491 1.252 . S
C484 O487 1.252 . S
C484 O488 1.260 . S
C485 O492 1.240 . S
C485 O493 1.252 . S
C486 O489 1.252 . S
C486 O490 1.260 . S
O487 In481 2.266 . S
O487 C484 1.252 . S
O488 In481 2.326 . S
O488 C484 1.260 . S
O489 In481 2.266 . S
O489 C486 1.252 . S
O490 In481 2.326 . S
O490 C486 1.260 . S
C491 O482 1.240 . S
C491 O483 1.252 . S
O492 In481 2.294 . S
O492 C485 1.240 . S
O493 In481 2.326 . S
O493 C485 1.252 . S
In494 O495 2.294 . S
In494 O496 2.326 . S
In494 O500 2.266 . S
In494 O501 2.326 . S
In494 O502 2.266 . S
In494 O503 2.326 . S
In494 O505 2.294 . S
In494 O506 2.326 . S
O495 In494 2.294 . S
O495 C504 1.240 . S
O496 In494 2.326 . S
O496 C504 1.252 . S
C497 O500 1.252 . S
C497 O501 1.260 . S
C498 O505 1.240 . S
C498 O506 1.252 . S
C499 O502 1.252 . S
C499 O503 1.260 . S
O500 In494 2.266 . S
O500 C497 1.252 . S
O501 In494 2.326 . S
O501 C497 1.260 . S
O502 In494 2.266 . S
O502 C499 1.252 . S
O503 In494 2.326 . S
O503 C499 1.260 . S
C504 O495 1.240 . S
C504 O496 1.252 . S
O505 In494 2.294 . S
O505 C498 1.240 . S
O506 In494 2.326 . S
O506 C498 1.252 . S
In507 O508 2.294 . S
In507 O509 2.326 . S
In507 O513 2.266 . S
In507 O514 2.326 . S
In507 O515 2.266 . S
In507 O516 2.326 . S
In507 O518 2.294 . S
In507 O519 2.326 . S
O508 In507 2.294 . S
O508 C517 1.240 . S
O509 In507 2.326 . S
O509 C517 1.252 . S
C510 O513 1.252 . S
C510 O514 1.260 . S
C511 O518 1.240 . S
C511 O519 1.252 . S
C512 O515 1.252 . S
C512 O516 1.260 . S
O513 In507 2.266 . S
O513 C510 1.252 . S
O514 In507 2.326 . S
O514 C510 1.260 . S
O515 In507 2.266 . S
O515 C512 1.252 . S
O516 In507 2.326 . S
O516 C512 1.260 . S
C517 O508 1.240 . S
C517 O509 1.252 . S
O518 In507 2.294 . S
O518 C511 1.240 . S
O519 In507 2.326 . S
O519 C511 1.252 . S
In520 O521 2.294 . S
In520 O522 2.326 . S
In520 O526 2.266 . S
In520 O527 2.326 . S
In520 O528 2.266 . S
In520 O529 2.326 . S
In520 O531 2.294 . S
In520 O532 2.326 . S
O521 In520 2.294 . S
O521 C530 1.240 . S
O522 In520 2.326 . S
O522 C530 1.252 . S
C523 O526 1.252 . S
C523 O527 1.260 . S
C524 O531 1.240 . S
C524 O532 1.252 . S
C525 O528 1.252 . S
C525 O529 1.260 . S
O526 In520 2.266 . S
O526 C523 1.252 . S
O527 In520 2.326 . S
O527 C523 1.260 . S
O528 In520 2.266 . S
O528 C525 1.252 . S
O529 In520 2.326 . S
O529 C525 1.260 . S
C530 O521 1.240 . S
C530 O522 1.252 . S
O531 In520 2.294 . S
O531 C524 1.240 . S
O532 In520 2.326 . S
O532 C524 1.252 . S
In533 O534 2.294 . S
In533 O535 2.326 . S
In533 O539 2.266 . S
In533 O540 2.326 . S
In533 O541 2.266 . S
In533 O542 2.326 . S
In533 O544 2.294 . S
In533 O545 2.326 . S
O534 In533 2.294 . S
O534 C543 1.240 . S
O535 In533 2.326 . S
O535 C543 1.252 . S
C536 O539 1.252 . S
C536 O540 1.260 . S
C537 O544 1.240 . S
C537 O545 1.252 . S
C538 O541 1.252 . S
C538 O542 1.260 . S
O539 In533 2.266 . S
O539 C536 1.252 . S
O540 In533 2.326 . S
O540 C536 1.260 . S
O541 In533 2.266 . S
O541 C538 1.252 . S
O542 In533 2.326 . S
O542 C538 1.260 . S
C543 O534 1.240 . S
C543 O535 1.252 . S
O544 In533 2.294 . S
O544 C537 1.240 . S
O545 In533 2.326 . S
O545 C537 1.252 . S
In546 O547 2.294 . S
In546 O548 2.326 . S
In546 O552 2.266 . S
In546 O553 2.326 . S
In546 O554 2.266 . S
In546 O555 2.326 . S
In546 O557 2.294 . S
In546 O558 2.326 . S
O547 In546 2.294 . S
O547 C556 1.240 . S
O548 In546 2.326 . S
O548 C556 1.252 . S
C549 O552 1.252 . S
C549 O553 1.260 . S
C550 O557 1.240 . S
C550 O558 1.252 . S
C551 O554 1.252 . S
C551 O555 1.260 . S
O552 In546 2.266 . S
O552 C549 1.252 . S
O553 In546 2.326 . S
O553 C549 1.260 . S
O554 In546 2.266 . S
O554 C551 1.252 . S
O555 In546 2.326 . S
O555 C551 1.260 . S
C556 O547 1.240 . S
C556 O548 1.252 . S
O557 In546 2.294 . S
O557 C550 1.240 . S
O558 In546 2.326 . S
O558 C550 1.252 . S
In559 O560 2.294 . S
In559 O561 2.326 . S
In559 O565 2.266 . S
In559 O566 2.326 . S
In559 O567 2.266 . S
In559 O568 2.326 . S
In559 O570 2.294 . S
In559 O571 2.326 . S
O560 In559 2.294 . S
O560 C569 1.240 . S
O561 In559 2.326 . S
O561 C569 1.252 . S
C562 O565 1.252 . S
C562 O566 1.260 . S
C563 O570 1.240 . S
C563 O571 1.252 . S
C564 O567 1.252 . S
C564 O568 1.260 . S
O565 In559 2.266 . S
O565 C562 1.252 . S
O566 In559 2.326 . S
O566 C562 1.260 . S
O567 In559 2.266 . S
O567 C564 1.252 . S
O568 In559 2.326 . S
O568 C564 1.260 . S
C569 O560 1.240 . S
C569 O561 1.252 . S
O570 In559 2.294 . S
O570 C563 1.240 . S
O571 In559 2.326 . S
O571 C563 1.252 . S
In572 O573 2.294 . S
In572 O574 2.326 . S
In572 O578 2.266 . S
In572 O579 2.326 . S
In572 O580 2.266 . S
In572 O581 2.326 . S
In572 O583 2.294 . S
In572 O584 2.326 . S
O573 In572 2.294 . S
O573 C582 1.240 . S
O574 In572 2.326 . S
O574 C582 1.252 . S
C575 O578 1.252 . S
C575 O579 1.260 . S
C576 O583 1.240 . S
C576 O584 1.252 . S
C577 O580 1.252 . S
C577 O581 1.260 . S
O578 In572 2.266 . S
O578 C575 1.252 . S
O579 In572 2.326 . S
O579 C575 1.260 . S
O580 In572 2.266 . S
O580 C577 1.252 . S
O581 In572 2.326 . S
O581 C577 1.260 . S
C582 O573 1.240 . S
C582 O574 1.252 . S
O583 In572 2.294 . S
O583 C576 1.240 . S
O584 In572 2.326 . S
O584 C576 1.252 . S
In585 O586 2.294 . S
In585 O587 2.326 . S
In585 O591 2.266 . S
In585 O592 2.326 . S
In585 O593 2.266 . S
In585 O594 2.326 . S
In585 O596 2.294 . S
In585 O597 2.326 . S
O586 In585 2.294 . S
O586 C595 1.240 . S
O587 In585 2.326 . S
O587 C595 1.252 . S
C588 O591 1.252 . S
C588 O592 1.260 . S
C589 O596 1.240 . S
C589 O597 1.252 . S
C590 O593 1.252 . S
C590 O594 1.260 . S
O591 In585 2.266 . S
O591 C588 1.252 . S
O592 In585 2.326 . S
O592 C588 1.260 . S
O593 In585 2.266 . S
O593 C590 1.252 . S
O594 In585 2.326 . S
O594 C590 1.260 . S
C595 O586 1.240 . S
C595 O587 1.252 . S
O596 In585 2.294 . S
O596 C589 1.240 . S
O597 In585 2.326 . S
O597 C589 1.252 . S
In598 O599 2.294 . S
In598 O600 2.326 . S
In598 O604 2.266 . S
In598 O605 2.326 . S
In598 O606 2.266 . S
In598 O607 2.326 . S
In598 O609 2.294 . S
In598 O610 2.326 . S
O599 In598 2.294 . S
O599 C608 1.240 . S
O600 In598 2.326 . S
O600 C608 1.252 . S
C601 O604 1.252 . S
C601 O605 1.260 . S
C602 O609 1.240 . S
C602 O610 1.252 . S
C603 O606 1.252 . S
C603 O607 1.260 . S
O604 In598 2.266 . S
O604 C601 1.252 . S
O605 In598 2.326 . S
O605 C601 1.260 . S
O606 In598 2.266 . S
O606 C603 1.252 . S
O607 In598 2.326 . S
O607 C603 1.260 . S
C608 O599 1.240 . S
C608 O600 1.252 . S
O609 In598 2.294 . S
O609 C602 1.240 . S
O610 In598 2.326 . S
O610 C602 1.252 . S
In611 O612 2.294 . S
In611 O613 2.326 . S
In611 O617 2.266 . S
In611 O618 2.326 . S
In611 O619 2.266 . S
In611 O620 2.326 . S
In611 O622 2.294 . S
In611 O623 2.326 . S
O612 In611 2.294 . S
O612 C621 1.240 . S
O613 In611 2.326 . S
O613 C621 1.252 . S
C614 O617 1.252 . S
C614 O618 1.260 . S
C615 O622 1.240 . S
C615 O623 1.252 . S
C616 O619 1.252 . S
C616 O620 1.260 . S
O617 In611 2.266 . S
O617 C614 1.252 . S
O618 In611 2.326 . S
O618 C614 1.260 . S
O619 In611 2.266 . S
O619 C616 1.252 . S
O620 In611 2.326 . S
O620 C616 1.260 . S
C621 O612 1.240 . S
C621 O613 1.252 . S
O622 In611 2.294 . S
O622 C615 1.240 . S
O623 In611 2.326 . S
O623 C615 1.252 . S
C624 C625 1.349 . S
C624 C626 1.327 . S
C624 H649 0.950 . S
C625 C624 1.349 . S
C625 C641 1.349 . S
C626 C624 1.327 . S
C626 C645 1.429 . S
C626 H650 0.950 . S
C627 C644 1.574 1_655 S
C627 C646 1.368 . S
C627 H651 0.949 . S
H628 C632 0.949 . S
C629 C630 1.349 . S
C629 C631 1.327 . S
C629 H652 0.950 . S
C630 C629 1.349 . S
C630 C642 1.349 . S
C631 C629 1.327 . S
C631 C647 1.429 . S
C631 H653 0.950 . S
C632 H628 0.949 . S
C632 C640 1.574 1_455 S
C632 C648 1.368 . S
H633 C641 0.950 . S
H634 C639 0.950 . S
H635 C640 0.949 . S
H636 C642 0.950 . S
H637 C643 0.950 . S
H638 C644 0.949 . S
C639 H634 0.950 . S
C639 C641 1.327 . S
C639 C645 1.429 . S
C640 C632 1.574 1_655 S
C640 H635 0.949 . S
C640 C646 1.368 . S
C641 C625 1.349 . S
C641 H633 0.950 . S
C641 C639 1.327 . S
C642 C630 1.349 . S
C642 H636 0.950 . S
C642 C643 1.327 . S
C643 H637 0.950 . S
C643 C642 1.327 . S
C643 C647 1.429 . S
C644 C627 1.574 1_455 S
C644 H638 0.949 . S
C644 C648 1.368 . S
C645 C626 1.429 . S
C645 C639 1.429 . S
C645 C646 1.523 . S
C646 C627 1.368 . S
C646 C640 1.368 . S
C646 C645 1.523 . S
C647 C631 1.429 . S
C647 C643 1.429 . S
C647 C648 1.523 . S
C648 C632 1.368 . S
C648 C644 1.368 . S
C648 C647 1.523 . S
H649 C624 0.950 . S
H650 C626 0.950 . S
H651 C627 0.949 . S
H652 C629 0.950 . S
H653 C631 0.950 . S
C654 C655 1.349 . S
C654 C656 1.327 . S
C654 H679 0.950 . S
C655 C654 1.349 . S
C655 C671 1.349 . S
C656 C654 1.327 . S
C656 C675 1.429 . S
C656 H680 0.950 . S
C657 C674 1.574 . S
C657 C676 1.368 . S
C657 H681 0.949 . S
H658 C662 0.949 . S
C659 C660 1.349 . S
C659 C661 1.327 . S
C659 H682 0.950 . S
C660 C659 1.349 . S
C660 C672 1.349 . S
C661 C659 1.327 . S
C661 C677 1.429 . S
C661 H683 0.950 . S
C662 H658 0.949 . S
C662 C670 1.574 . S
C662 C678 1.368 . S
H663 C671 0.950 . S
H664 C669 0.950 . S
H665 C670 0.949 . S
H666 C672 0.950 . S
H667 C673 0.950 . S
H668 C674 0.949 . S
C669 H664 0.950 . S
C669 C671 1.327 . S
C669 C675 1.429 . S
C670 C662 1.574 . S
C670 H665 0.949 . S
C670 C676 1.368 1_545 S
C671 C655 1.349 . S
C671 H663 0.950 . S
C671 C669 1.327 . S
C672 C660 1.349 . S
C672 H666 0.950 . S
C672 C673 1.327 . S
C673 H667 0.950 . S
C673 C672 1.327 . S
C673 C677 1.429 . S
C674 C657 1.574 . S
C674 H668 0.949 . S
C674 C678 1.368 1_565 S
C675 C656 1.429 . S
C675 C669 1.429 . S
C675 C676 1.523 . S
C676 C657 1.368 . S
C676 C670 1.368 1_565 S
C676 C675 1.523 . S
C677 C661 1.429 . S
C677 C673 1.429 . S
C677 C678 1.523 . S
C678 C662 1.368 . S
C678 C674 1.368 1_545 S
C678 C677 1.523 . S
H679 C654 0.950 . S
H680 C656 0.950 . S
H681 C657 0.949 . S
H682 C659 0.950 . S
H683 C661 0.950 . S
C684 C685 1.349 . S
C684 C686 1.327 . S
C684 H709 0.950 . S
C685 C684 1.349 . S
C685 C701 1.349 . S
C686 C684 1.327 . S
C686 C705 1.429 . S
C686 H710 0.950 . S
C687 C704 1.529 1_455 S
C687 C706 1.410 . S
C687 H711 0.955 . S
H688 C692 0.955 . S
C689 C690 1.349 . S
C689 C691 1.327 . S
C689 H712 0.950 . S
C690 C689 1.349 . S
C690 C702 1.349 . S
C691 C689 1.327 . S
C691 C707 1.429 . S
C691 H713 0.950 . S
C692 H688 0.955 . S
C692 C700 1.529 1_655 S
C692 C708 1.410 . S
H693 C701 0.950 . S
H694 C699 0.950 . S
H695 C700 0.949 . S
H696 C702 0.950 . S
H697 C703 0.950 . S
H698 C704 0.949 . S
C699 H694 0.950 . S
C699 C701 1.327 . S
C699 C705 1.429 . S
C700 C692 1.529 1_455 S
C700 H695 0.949 . S
C700 C706 1.368 . S
C701 C685 1.349 . S
C701 H693 0.950 . S
C701 C699 1.327 . S
C702 C690 1.349 . S
C702 H696 0.950 . S
C702 C703 1.327 . S
C703 H697 0.950 . S
C703 C702 1.327 . S
C703 C707 1.429 . S
C704 C687 1.529 1_655 S
C704 H698 0.949 . S
C704 C708 1.368 . S
C705 C686 1.429 . S
C705 C699 1.429 . S
C705 C706 1.523 . S
C706 C687 1.410 . S
C706 C700 1.368 . S
C706 C705 1.523 . S
C707 C691 1.429 . S
C707 C703 1.429 . S
C707 C708 1.523 . S
C708 C692 1.410 . S
C708 C704 1.368 . S
C708 C707 1.523 . S
H709 C684 0.950 . S
H710 C686 0.950 . S
H711 C687 0.955 . S
H712 C689 0.950 . S
H713 C691 0.950 . S
C714 C715 1.349 . S
C714 C716 1.327 . S
C714 H739 0.950 . S
C715 C714 1.349 . S
C715 C731 1.349 . S
C716 C714 1.327 . S
C716 C735 1.429 . S
C716 H740 0.950 . S
C717 C734 1.574 1_565 S
C717 C736 1.368 . S
C717 H741 0.949 . S
H718 C722 0.949 . S
C719 C720 1.349 . S
C719 C721 1.327 . S
C719 H742 0.950 . S
C720 C719 1.349 . S
C720 C732 1.349 . S
C721 C719 1.327 . S
C721 C737 1.429 . S
C721 H743 0.950 . S
C722 H718 0.949 . S
C722 C730 1.574 1_545 S
C722 C738 1.368 . S
H723 C731 0.950 . S
H724 C729 0.950 . S
H725 C730 0.949 . S
H726 C732 0.950 . S
H727 C733 0.950 . S
H728 C734 0.949 . S
C729 H724 0.950 . S
C729 C731 1.327 . S
C729 C735 1.429 . S
C730 C722 1.574 1_565 S
C730 H725 0.949 . S
C730 C736 1.368 . S
C731 C715 1.349 . S
C731 H723 0.950 . S
C731 C729 1.327 . S
C732 C720 1.349 . S
C732 H726 0.950 . S
C732 C733 1.327 . S
C733 H727 0.950 . S
C733 C732 1.327 . S
C733 C737 1.429 . S
C734 C717 1.574 1_545 S
C734 H728 0.949 . S
C734 C738 1.368 . S
C735 C716 1.429 . S
C735 C729 1.429 . S
C735 C736 1.523 . S
C736 C717 1.368 . S
C736 C730 1.368 . S
C736 C735 1.523 . S
C737 C721 1.429 . S
C737 C733 1.429 . S
C737 C738 1.523 . S
C738 C722 1.368 . S
C738 C734 1.368 . S
C738 C737 1.523 . S
H739 C714 0.950 . S
H740 C716 0.950 . S
H741 C717 0.949 . S
H742 C719 0.950 . S
H743 C721 0.950 . S
C744 C745 1.349 . S
C744 C746 1.327 . S
C744 H769 0.950 . S
C745 C744 1.349 . S
C745 C761 1.349 . S
C746 C744 1.327 . S
C746 C765 1.429 . S
C746 H770 0.950 . S
C747 C764 1.574 1_655 S
C747 C766 1.368 . S
C747 H771 0.949 . S
H748 C752 0.949 . S
C749 C750 1.349 . S
C749 C751 1.327 . S
C749 H772 0.950 . S
C750 C749 1.349 . S
C750 C762 1.349 . S
C751 C749 1.327 . S
C751 C767 1.429 . S
C751 H773 0.950 . S
C752 H748 0.949 . S
C752 C760 1.574 1_455 S
C752 C768 1.368 . S
H753 C761 0.950 . S
H754 C759 0.950 . S
H755 C760 0.949 . S
H756 C762 0.950 . S
H757 C763 0.950 . S
H758 C764 0.949 . S
C759 H754 0.950 . S
C759 C761 1.327 . S
C759 C765 1.429 . S
C760 C752 1.574 1_655 S
C760 H755 0.949 . S
C760 C766 1.368 . S
C761 C745 1.349 . S
C761 H753 0.950 . S
C761 C759 1.327 . S
C762 C750 1.349 . S
C762 H756 0.950 . S
C762 C763 1.327 . S
C763 H757 0.950 . S
C763 C762 1.327 . S
C763 C767 1.429 . S
C764 C747 1.574 1_455 S
C764 H758 0.949 . S
C764 C768 1.368 . S
C765 C746 1.429 . S
C765 C759 1.429 . S
C765 C766 1.523 . S
C766 C747 1.368 . S
C766 C760 1.368 . S
C766 C765 1.523 . S
C767 C751 1.429 . S
C767 C763 1.429 . S
C767 C768 1.523 . S
C768 C752 1.368 . S
C768 C764 1.368 . S
C768 C767 1.523 . S
H769 C744 0.950 . S
H770 C746 0.950 . S
H771 C747 0.949 . S
H772 C749 0.950 . S
H773 C751 0.950 . S
C774 C775 1.349 . S
C774 C776 1.327 . S
C774 H799 0.950 . S
C775 C774 1.349 . S
C775 C791 1.349 . S
C776 C774 1.327 . S
C776 C795 1.429 . S
C776 H800 0.950 . S
C777 C794 1.574 1_545 S
C777 C796 1.368 . S
C777 H801 0.949 . S
H778 C782 0.949 . S
C779 C780 1.349 . S
C779 C781 1.327 . S
C779 H802 0.950 . S
C780 C779 1.349 . S
C780 C792 1.349 . S
C781 C779 1.327 . S
C781 C797 1.429 . S
C781 H803 0.950 . S
C782 H778 0.949 . S
C782 C790 1.574 1_565 S
C782 C798 1.368 . S
H783 C791 0.950 . S
H784 C789 0.950 . S
H785 C790 0.949 . S
H786 C792 0.950 . S
H787 C793 0.950 . S
H788 C794 0.949 . S
C789 H784 0.950 . S
C789 C791 1.327 . S
C789 C795 1.429 . S
C790 C782 1.574 1_545 S
C790 H785 0.949 . S
C790 C796 1.368 . S
C791 C775 1.349 . S
C791 H783 0.950 . S
C791 C789 1.327 . S
C792 C780 1.349 . S
C792 H786 0.950 . S
C792 C793 1.327 . S
C793 H787 0.950 . S
C793 C792 1.327 . S
C793 C797 1.429 . S
C794 C777 1.574 1_565 S
C794 H788 0.949 . S
C794 C798 1.368 . S
C795 C776 1.429 . S
C795 C789 1.429 . S
C795 C796 1.523 . S
C796 C777 1.368 . S
C796 C790 1.368 . S
C796 C795 1.523 . S
C797 C781 1.429 . S
C797 C793 1.429 . S
C797 C798 1.523 . S
C798 C782 1.368 . S
C798 C794 1.368 . S
C798 C797 1.523 . S
H799 C774 0.950 . S
H800 C776 0.950 . S
H801 C777 0.949 . S
H802 C779 0.950 . S
H803 C781 0.950 . S
C804 C805 1.349 . S
C804 C806 1.327 . S
C804 H829 0.950 . S
C805 C804 1.349 . S
C805 C821 1.349 . S
C806 C804 1.327 . S
C806 C825 1.429 . S
C806 H830 0.950 . S
C807 C824 1.574 . S
C807 C826 1.368 . S
C807 H831 0.949 . S
H808 C812 0.949 . S
C809 C810 1.349 . S
C809 C811 1.327 . S
C809 H832 0.950 . S
C810 C809 1.349 . S
C810 C822 1.349 . S
C811 C809 1.327 . S
C811 C827 1.429 . S
C811 H833 0.950 . S
C812 H808 0.949 . S
C812 C820 1.574 . S
C812 C828 1.368 . S
H813 C821 0.950 . S
H814 C819 0.950 . S
H815 C820 0.949 . S
H816 C822 0.950 . S
H817 C823 0.950 . S
H818 C824 0.949 . S
C819 H814 0.950 . S
C819 C821 1.327 . S
C819 C825 1.429 . S
C820 C812 1.574 . S
C820 H815 0.949 . S
C820 C826 1.368 1_655 S
C821 C805 1.349 . S
C821 H813 0.950 . S
C821 C819 1.327 . S
C822 C810 1.349 . S
C822 H816 0.950 . S
C822 C823 1.327 . S
C823 H817 0.950 . S
C823 C822 1.327 . S
C823 C827 1.429 . S
C824 C807 1.574 . S
C824 H818 0.949 . S
C824 C828 1.368 1_455 S
C825 C806 1.429 . S
C825 C819 1.429 . S
C825 C826 1.523 . S
C826 C807 1.368 . S
C826 C820 1.368 1_455 S
C826 C825 1.523 . S
C827 C811 1.429 . S
C827 C823 1.429 . S
C827 C828 1.523 . S
C828 C812 1.368 . S
C828 C824 1.368 1_655 S
C828 C827 1.523 . S
H829 C804 0.950 . S
H830 C806 0.950 . S
H831 C807 0.949 . S
H832 C809 0.950 . S
H833 C811 0.950 . S
C834 C835 1.349 . S
C834 C836 1.327 . S
C834 H859 0.950 . S
C835 C834 1.349 . S
C835 C851 1.349 . S
C836 C834 1.327 . S
C836 C855 1.429 . S
C836 H860 0.950 . S
C837 C854 1.574 . S
C837 C856 1.368 1_565 S
C837 H861 0.949 . S
H838 C842 0.949 . S
C839 C840 1.349 . S
C839 C841 1.327 . S
C839 H862 0.950 . S
C840 C839 1.349 . S
C840 C852 1.349 . S
C841 C839 1.327 . S
C841 C857 1.429 . S
C841 H863 0.950 . S
C842 H838 0.949 . S
C842 C850 1.574 . S
C842 C858 1.368 1_545 S
H843 C851 0.950 . S
H844 C849 0.950 . S
H845 C850 0.949 . S
H846 C852 0.950 . S
H847 C853 0.950 . S
H848 C854 0.949 . S
C849 H844 0.950 . S
C849 C851 1.327 . S
C849 C855 1.429 . S
C850 C842 1.574 . S
C850 H845 0.949 . S
C850 C856 1.368 . S
C851 C835 1.349 . S
C851 H843 0.950 . S
C851 C849 1.327 . S
C852 C840 1.349 . S
C852 H846 0.950 . S
C852 C853 1.327 . S
C853 H847 0.950 . S
C853 C852 1.327 . S
C853 C857 1.429 . S
C854 C837 1.574 . S
C854 H848 0.949 . S
C854 C858 1.368 . S
C855 C836 1.429 . S
C855 C849 1.429 . S
C855 C856 1.523 . S
C856 C837 1.368 1_545 S
C856 C850 1.368 . S
C856 C855 1.523 . S
C857 C841 1.429 . S
C857 C853 1.429 . S
C857 C858 1.523 . S
C858 C842 1.368 1_565 S
C858 C854 1.368 . S
C858 C857 1.523 . S
H859 C834 0.950 . S
H860 C836 0.950 . S
H861 C837 0.949 . S
H862 C839 0.950 . S
H863 C841 0.950 . S
C864 C865 1.349 . S
C864 C866 1.327 . S
C864 H889 0.950 . S
C865 C864 1.349 . S
C865 C881 1.349 . S
C866 C864 1.327 . S
C866 C885 1.429 . S
C866 H890 0.950 . S
C867 C884 1.574 1_554 S
C867 C886 1.368 . S
C867 H891 0.949 . S
H868 C872 0.949 . S
C869 C870 1.349 . S
C869 C871 1.327 . S
C869 H892 0.950 . S
C870 C869 1.349 . S
C870 C882 1.349 . S
C871 C869 1.327 . S
C871 C887 1.429 . S
C871 H893 0.950 . S
C872 H868 0.949 . S
C872 C880 1.574 1_556 S
C872 C888 1.368 . S
H873 C881 0.950 . S
H874 C879 0.950 . S
H875 C880 0.949 . S
H876 C882 0.950 . S
H877 C883 0.950 . S
H878 C884 0.949 . S
C879 H874 0.950 . S
C879 C881 1.327 . S
C879 C885 1.429 . S
C880 C872 1.574 1_554 S
C880 H875 0.949 . S
C880 C886 1.368 . S
C881 C865 1.349 . S
C881 H873 0.950 . S
C881 C879 1.327 . S
C882 C870 1.349 . S
C882 H876 0.950 . S
C882 C883 1.327 . S
C883 H877 0.950 . S
C883 C882 1.327 . S
C883 C887 1.429 . S
C884 C867 1.574 1_556 S
C884 H878 0.949 . S
C884 C888 1.368 . S
C885 C866 1.429 . S
C885 C879 1.429 . S
C885 C886 1.523 . S
C886 C867 1.368 . S
C886 C880 1.368 . S
C886 C885 1.523 . S
C887 C871 1.429 . S
C887 C883 1.429 . S
C887 C888 1.523 . S
C888 C872 1.368 . S
C888 C884 1.368 . S
C888 C887 1.523 . S
H889 C864 0.950 . S
H890 C866 0.950 . S
H891 C867 0.949 . S
H892 C869 0.950 . S
H893 C871 0.950 . S
C894 C895 1.349 . S
C894 C896 1.327 . S
C894 H919 0.950 . S
C895 C894 1.349 . S
C895 C911 1.349 . S
C896 C894 1.327 . S
C896 C915 1.429 . S
C896 H920 0.950 . S
C897 C914 1.579 . S
C897 C916 1.368 . S
C897 H921 0.949 . S
H898 C902 0.949 . S
C899 C900 1.349 . S
C899 C901 1.327 . S
C899 H922 0.950 . S
C900 C899 1.349 . S
C900 C912 1.349 . S
C901 C899 1.327 . S
C901 C917 1.429 . S
C901 H923 0.950 . S
C902 H898 0.949 . S
C902 C910 1.579 . S
C902 C918 1.368 . S
H903 C911 0.950 . S
H904 C909 0.950 . S
H905 C910 0.949 . S
H906 C912 0.950 . S
H907 C913 0.950 . S
H908 C914 0.949 . S
C909 H904 0.950 . S
C909 C911 1.327 . S
C909 C915 1.429 . S
C910 C902 1.579 . S
C910 H905 0.949 . S
C910 C916 1.363 1_554 S
C911 C895 1.349 . S
C911 H903 0.950 . S
C911 C909 1.327 . S
C912 C900 1.349 . S
C912 H906 0.950 . S
C912 C913 1.327 . S
C913 H907 0.950 . S
C913 C912 1.327 . S
C913 C917 1.429 . S
C914 C897 1.579 . S
C914 H908 0.949 . S
C914 C918 1.363 1_556 S
C915 C896 1.429 . S
C915 C909 1.429 . S
C915 C916 1.523 . S
C916 C897 1.368 . S
C916 C910 1.363 1_556 S
C916 C915 1.523 . S
C917 C901 1.429 . S
C917 C913 1.429 . S
C917 C918 1.523 . S
C918 C902 1.368 . S
C918 C914 1.363 1_554 S
C918 C917 1.523 . S
H919 C894 0.950 . S
H920 C896 0.950 . S
H921 C897 0.949 . S
H922 C899 0.950 . S
H923 C901 0.950 . S
C924 C925 1.349 . S
C924 C926 1.327 . S
C924 H949 0.950 . S
C925 C924 1.349 . S
C925 C941 1.349 . S
C926 C924 1.327 . S
C926 C945 1.429 . S
C926 H950 0.950 . S
C927 C944 1.574 . S
C927 C946 1.368 . S
C927 H951 0.949 . S
H928 C932 0.949 . S
C929 C930 1.349 . S
C929 C931 1.327 . S
C929 H952 0.950 . S
C930 C929 1.349 . S
C930 C942 1.349 . S
C931 C929 1.327 . S
C931 C947 1.429 . S
C931 H953 0.950 . S
C932 H928 0.949 . S
C932 C940 1.574 . S
C932 C948 1.368 . S
H933 C941 0.950 . S
H934 C939 0.950 . S
H935 C940 0.949 . S
H936 C942 0.950 . S
H937 C943 0.950 . S
H938 C944 0.949 . S
C939 H934 0.950 . S
C939 C941 1.327 . S
C939 C945 1.429 . S
C940 C932 1.574 . S
C940 H935 0.949 . S
C940 C946 1.368 1_554 S
C941 C925 1.349 . S
C941 H933 0.950 . S
C941 C939 1.327 . S
C942 C930 1.349 . S
C942 H936 0.950 . S
C942 C943 1.327 . S
C943 H937 0.950 . S
C943 C942 1.327 . S
C943 C947 1.429 . S
C944 C927 1.574 . S
C944 H938 0.949 . S
C944 C948 1.368 1_556 S
C945 C926 1.429 . S
C945 C939 1.429 . S
C945 C946 1.523 . S
C946 C927 1.368 . S
C946 C940 1.368 1_556 S
C946 C945 1.523 . S
C947 C931 1.429 . S
C947 C943 1.429 . S
C947 C948 1.523 . S
C948 C932 1.368 . S
C948 C944 1.368 1_554 S
C948 C947 1.523 . S
H949 C924 0.950 . S
H950 C926 0.950 . S
H951 C927 0.949 . S
H952 C929 0.950 . S
H953 C931 0.950 . S
C954 C955 1.349 . S
C954 C956 1.327 . S
C954 H979 0.950 . S
C955 C954 1.349 . S
C955 C971 1.349 . S
C956 C954 1.327 . S
C956 C975 1.429 . S
C956 H980 0.950 . S
C957 C974 1.574 . S
C957 C976 1.368 . S
C957 H981 0.949 . S
H958 C962 0.949 . S
C959 C960 1.349 . S
C959 C961 1.327 . S
C959 H982 0.950 . S
C960 C959 1.349 . S
C960 C972 1.349 . S
C961 C959 1.327 . S
C961 C977 1.429 . S
C961 H983 0.950 . S
C962 H958 0.949 . S
C962 C970 1.574 . S
C962 C978 1.368 . S
H963 C971 0.950 . S
H964 C969 0.950 . S
H965 C970 0.949 . S
H966 C972 0.950 . S
H967 C973 0.950 . S
H968 C974 0.949 . S
C969 H964 0.950 . S
C969 C971 1.327 . S
C969 C975 1.429 . S
C970 C962 1.574 . S
C970 H965 0.949 . S
C970 C976 1.368 1_554 S
C971 C955 1.349 . S
C971 H963 0.950 . S
C971 C969 1.327 . S
C972 C960 1.349 . S
C972 H966 0.950 . S
C972 C973 1.327 . S
C973 H967 0.950 . S
C973 C972 1.327 . S
C973 C977 1.429 . S
C974 C957 1.574 . S
C974 H968 0.949 . S
C974 C978 1.368 1_556 S
C975 C956 1.429 . S
C975 C969 1.429 . S
C975 C976 1.523 . S
C976 C957 1.368 . S
C976 C970 1.368 1_556 S
C976 C975 1.523 . S
C977 C961 1.429 . S
C977 C973 1.429 . S
C977 C978 1.523 . S
C978 C962 1.368 . S
C978 C974 1.368 1_554 S
C978 C977 1.523 . S
H979 C954 0.950 . S
H980 C956 0.950 . S
H981 C957 0.949 . S
H982 C959 0.950 . S
H983 C961 0.950 . S
C984 C985 1.349 . S
C984 C986 1.327 . S
C984 H1009 0.950 . S
C985 C984 1.349 . S
C985 C1001 1.349 . S
C986 C984 1.327 . S
C986 C1005 1.429 . S
C986 H1010 0.950 . S
C987 C1004 1.574 . S
C987 C1006 1.368 . S
C987 H1011 0.949 . S
H988 C992 0.949 . S
C989 C990 1.349 . S
C989 C991 1.327 . S
C989 H1012 0.950 . S
C990 C989 1.349 . S
C990 C1002 1.349 . S
C991 C989 1.327 . S
C991 C1007 1.429 . S
C991 H1013 0.950 . S
C992 H988 0.949 . S
C992 C1000 1.574 . S
C992 C1008 1.368 . S
H993 C1001 0.950 . S
H994 C999 0.950 . S
H995 C1000 0.949 . S
H996 C1002 0.950 . S
H997 C1003 0.950 . S
H998 C1004 0.949 . S
C999 H994 0.950 . S
C999 C1001 1.327 . S
C999 C1005 1.429 . S
C1000 C992 1.574 . S
C1000 H995 0.949 . S
C1000 C1006 1.368 . S
C1001 C985 1.349 . S
C1001 H993 0.950 . S
C1001 C999 1.327 . S
C1002 C990 1.349 . S
C1002 H996 0.950 . S
C1002 C1003 1.327 . S
C1003 H997 0.950 . S
C1003 C1002 1.327 . S
C1003 C1007 1.429 . S
C1004 C987 1.574 . S
C1004 H998 0.949 . S
C1004 C1008 1.368 . S
C1005 C986 1.429 . S
C1005 C999 1.429 . S
C1005 C1006 1.523 . S
C1006 C987 1.368 . S
C1006 C1000 1.368 . S
C1006 C1005 1.523 . S
C1007 C991 1.429 . S
C1007 C1003 1.429 . S
C1007 C1008 1.523 . S
C1008 C992 1.368 . S
C1008 C1004 1.368 . S
C1008 C1007 1.523 . S
H1009 C984 0.950 . S
H1010 C986 0.950 . S
H1011 C987 0.949 . S
H1012 C989 0.950 . S
H1013 C991 0.950 . S
C1014 C1015 1.349 . S
C1014 C1016 1.327 . S
C1014 H1039 0.950 . S
C1015 C1014 1.349 . S
C1015 C1031 1.349 . S
C1016 C1014 1.327 . S
C1016 C1035 1.429 . S
C1016 H1040 0.950 . S
C1017 C1034 1.574 . S
C1017 C1036 1.368 . S
C1017 H1041 0.949 . S
H1018 C1022 0.949 . S
C1019 C1020 1.349 . S
C1019 C1021 1.327 . S
C1019 H1042 0.950 . S
C1020 C1019 1.349 . S
C1020 C1032 1.349 . S
C1021 C1019 1.327 . S
C1021 C1037 1.429 . S
C1021 H1043 0.950 . S
C1022 H1018 0.949 . S
C1022 C1030 1.574 . S
C1022 C1038 1.368 . S
H1023 C1031 0.950 . S
H1024 C1029 0.950 . S
H1025 C1030 0.949 . S
H1026 C1032 0.950 . S
H1027 C1033 0.950 . S
H1028 C1034 0.949 . S
C1029 H1024 0.950 . S
C1029 C1031 1.327 . S
C1029 C1035 1.429 . S
C1030 C1022 1.574 . S
C1030 H1025 0.949 . S
C1030 C1036 1.368 . S
C1031 C1015 1.349 . S
C1031 H1023 0.950 . S
C1031 C1029 1.327 . S
C1032 C1020 1.349 . S
C1032 H1026 0.950 . S
C1032 C1033 1.327 . S
C1033 H1027 0.950 . S
C1033 C1032 1.327 . S
C1033 C1037 1.429 . S
C1034 C1017 1.574 . S
C1034 H1028 0.949 . S
C1034 C1038 1.368 . S
C1035 C1016 1.429 . S
C1035 C1029 1.429 . S
C1035 C1036 1.523 . S
C1036 C1017 1.368 . S
C1036 C1030 1.368 . S
C1036 C1035 1.523 . S
C1037 C1021 1.429 . S
C1037 C1033 1.429 . S
C1037 C1038 1.523 . S
C1038 C1022 1.368 . S
C1038 C1034 1.368 . S
C1038 C1037 1.523 . S
H1039 C1014 0.950 . S
H1040 C1016 0.950 . S
H1041 C1017 0.949 . S
H1042 C1019 0.950 . S
H1043 C1021 0.950 . S
C1044 C1045 1.349 . S
C1044 C1046 1.327 . S
C1044 H1069 0.950 . S
C1045 C1044 1.349 . S
C1045 C1061 1.349 . S
C1046 C1044 1.327 . S
C1046 C1065 1.429 . S
C1046 H1070 0.950 . S
C1047 C1064 1.574 . S
C1047 C1066 1.368 . S
C1047 H1071 0.949 . S
H1048 C1052 0.949 . S
C1049 C1050 1.349 . S
C1049 C1051 1.327 . S
C1049 H1072 0.950 . S
C1050 C1049 1.349 . S
C1050 C1062 1.349 . S
C1051 C1049 1.327 . S
C1051 C1067 1.429 . S
C1051 H1073 0.950 . S
C1052 H1048 0.949 . S
C1052 C1060 1.574 . S
C1052 C1068 1.368 . S
H1053 C1061 0.950 . S
H1054 C1059 0.950 . S
H1055 C1060 0.949 . S
H1056 C1062 0.950 . S
H1057 C1063 0.950 . S
H1058 C1064 0.949 . S
C1059 H1054 0.950 . S
C1059 C1061 1.327 . S
C1059 C1065 1.429 . S
C1060 C1052 1.574 . S
C1060 H1055 0.949 . S
C1060 C1066 1.368 . S
C1061 C1045 1.349 . S
C1061 H1053 0.950 . S
C1061 C1059 1.327 . S
C1062 C1050 1.349 . S
C1062 H1056 0.950 . S
C1062 C1063 1.327 . S
C1063 H1057 0.950 . S
C1063 C1062 1.327 . S
C1063 C1067 1.429 . S
C1064 C1047 1.574 . S
C1064 H1058 0.949 . S
C1064 C1068 1.368 . S
C1065 C1046 1.429 . S
C1065 C1059 1.429 . S
C1065 C1066 1.523 . S
C1066 C1047 1.368 . S
C1066 C1060 1.368 . S
C1066 C1065 1.523 . S
C1067 C1051 1.429 . S
C1067 C1063 1.429 . S
C1067 C1068 1.523 . S
C1068 C1052 1.368 . S
C1068 C1064 1.368 . S
C1068 C1067 1.523 . S
H1069 C1044 0.950 . S
H1070 C1046 0.950 . S
H1071 C1047 0.949 . S
H1072 C1049 0.950 . S
H1073 C1051 0.950 . S
C1074 C1075 1.349 . S
C1074 C1076 1.327 . S
C1074 H1099 0.950 . S
C1075 C1074 1.349 . S
C1075 C1091 1.349 . S
C1076 C1074 1.327 . S
C1076 C1095 1.429 . S
C1076 H1100 0.950 . S
C1077 C1094 1.574 . S
C1077 C1096 1.368 . S
C1077 H1101 0.949 . S
H1078 C1082 0.949 . S
C1079 C1080 1.349 . S
C1079 C1081 1.327 . S
C1079 H1102 0.950 . S
C1080 C1079 1.349 . S
C1080 C1092 1.349 . S
C1081 C1079 1.327 . S
C1081 C1097 1.429 . S
C1081 H1103 0.950 . S
C1082 H1078 0.949 . S
C1082 C1090 1.574 . S
C1082 C1098 1.368 . S
H1083 C1091 0.950 . S
H1084 C1089 0.950 . S
H1085 C1090 0.949 . S
H1086 C1092 0.950 . S
H1087 C1093 0.950 . S
H1088 C1094 0.949 . S
C1089 H1084 0.950 . S
C1089 C1091 1.327 . S
C1089 C1095 1.429 . S
C1090 C1082 1.574 . S
C1090 H1085 0.949 . S
C1090 C1096 1.368 . S
C1091 C1075 1.349 . S
C1091 H1083 0.950 . S
C1091 C1089 1.327 . S
C1092 C1080 1.349 . S
C1092 H1086 0.950 . S
C1092 C1093 1.327 . S
C1093 H1087 0.950 . S
C1093 C1092 1.327 . S
C1093 C1097 1.429 . S
C1094 C1077 1.574 . S
C1094 H1088 0.949 . S
C1094 C1098 1.368 . S
C1095 C1076 1.429 . S
C1095 C1089 1.429 . S
C1095 C1096 1.523 . S
C1096 C1077 1.368 . S
C1096 C1090 1.368 . S
C1096 C1095 1.523 . S
C1097 C1081 1.429 . S
C1097 C1093 1.429 . S
C1097 C1098 1.523 . S
C1098 C1082 1.368 . S
C1098 C1094 1.368 . S
C1098 C1097 1.523 . S
H1099 C1074 0.950 . S
H1100 C1076 0.950 . S
H1101 C1077 0.949 . S
H1102 C1079 0.950 . S
H1103 C1081 0.950 . S
C1104 C1105 1.349 . S
C1104 C1106 1.327 . S
C1104 H1129 0.950 . S
C1105 C1104 1.349 . S
C1105 C1121 1.349 . S
C1106 C1104 1.327 . S
C1106 C1125 1.429 . S
C1106 H1130 0.950 . S
C1107 C1124 1.574 . S
C1107 C1126 1.368 . S
C1107 H1131 0.949 . S
H1108 C1112 0.949 . S
C1109 C1110 1.349 . S
C1109 C1111 1.327 . S
C1109 H1132 0.950 . S
C1110 C1109 1.349 . S
C1110 C1122 1.349 . S
C1111 C1109 1.327 . S
C1111 C1127 1.429 . S
C1111 H1133 0.950 . S
C1112 H1108 0.949 . S
C1112 C1120 1.574 . S
C1112 C1128 1.368 . S
H1113 C1121 0.950 . S
H1114 C1119 0.950 . S
H1115 C1120 0.949 . S
H1116 C1122 0.950 . S
H1117 C1123 0.950 . S
H1118 C1124 0.949 . S
C1119 H1114 0.950 . S
C1119 C1121 1.327 . S
C1119 C1125 1.429 . S
C1120 C1112 1.574 . S
C1120 H1115 0.949 . S
C1120 C1126 1.368 . S
C1121 C1105 1.349 . S
C1121 H1113 0.950 . S
C1121 C1119 1.327 . S
C1122 C1110 1.349 . S
C1122 H1116 0.950 . S
C1122 C1123 1.327 . S
C1123 H1117 0.950 . S
C1123 C1122 1.327 . S
C1123 C1127 1.429 . S
C1124 C1107 1.574 . S
C1124 H1118 0.949 . S
C1124 C1128 1.368 . S
C1125 C1106 1.429 . S
C1125 C1119 1.429 . S
C1125 C1126 1.523 . S
C1126 C1107 1.368 . S
C1126 C1120 1.368 . S
C1126 C1125 1.523 . S
C1127 C1111 1.429 . S
C1127 C1123 1.429 . S
C1127 C1128 1.523 . S
C1128 C1112 1.368 . S
C1128 C1124 1.368 . S
C1128 C1127 1.523 . S
H1129 C1104 0.950 . S
H1130 C1106 0.950 . S
H1131 C1107 0.949 . S
H1132 C1109 0.950 . S
H1133 C1111 0.950 . S
C1134 C1135 1.349 . S
C1134 C1136 1.327 . S
C1134 H1159 0.950 . S
C1135 C1134 1.349 . S
C1135 C1151 1.349 . S
C1136 C1134 1.327 . S
C1136 C1155 1.429 . S
C1136 H1160 0.950 . S
C1137 C1154 1.574 . S
C1137 C1156 1.368 . S
C1137 H1161 0.949 . S
H1138 C1142 0.949 . S
C1139 C1140 1.349 . S
C1139 C1141 1.327 . S
C1139 H1162 0.950 . S
C1140 C1139 1.349 . S
C1140 C1152 1.349 . S
C1141 C1139 1.327 . S
C1141 C1157 1.429 . S
C1141 H1163 0.950 . S
C1142 H1138 0.949 . S
C1142 C1150 1.574 . S
C1142 C1158 1.368 . S
H1143 C1151 0.950 . S
H1144 C1149 0.950 . S
H1145 C1150 0.949 . S
H1146 C1152 0.950 . S
H1147 C1153 0.950 . S
H1148 C1154 0.949 . S
C1149 H1144 0.950 . S
C1149 C1151 1.327 . S
C1149 C1155 1.429 . S
C1150 C1142 1.574 . S
C1150 H1145 0.949 . S
C1150 C1156 1.368 . S
C1151 C1135 1.349 . S
C1151 H1143 0.950 . S
C1151 C1149 1.327 . S
C1152 C1140 1.349 . S
C1152 H1146 0.950 . S
C1152 C1153 1.327 . S
C1153 H1147 0.950 . S
C1153 C1152 1.327 . S
C1153 C1157 1.429 . S
C1154 C1137 1.574 . S
C1154 H1148 0.949 . S
C1154 C1158 1.368 . S
C1155 C1136 1.429 . S
C1155 C1149 1.429 . S
C1155 C1156 1.523 . S
C1156 C1137 1.368 . S
C1156 C1150 1.368 . S
C1156 C1155 1.523 . S
C1157 C1141 1.429 . S
C1157 C1153 1.429 . S
C1157 C1158 1.523 . S
C1158 C1142 1.368 . S
C1158 C1154 1.368 . S
C1158 C1157 1.523 . S
H1159 C1134 0.950 . S
H1160 C1136 0.950 . S
H1161 C1137 0.949 . S
H1162 C1139 0.950 . S
H1163 C1141 0.950 . S
C1164 C1165 1.349 . S
C1164 C1166 1.327 . S
C1164 H1189 0.950 . S
C1165 C1164 1.349 . S
C1165 C1181 1.349 . S
C1166 C1164 1.327 . S
C1166 C1185 1.429 . S
C1166 H1190 0.950 . S
C1167 C1184 1.574 . S
C1167 C1186 1.368 . S
C1167 H1191 0.949 . S
H1168 C1172 0.949 . S
C1169 C1170 1.349 . S
C1169 C1171 1.327 . S
C1169 H1192 0.950 . S
C1170 C1169 1.349 . S
C1170 C1182 1.349 . S
C1171 C1169 1.327 . S
C1171 C1187 1.429 . S
C1171 H1193 0.950 . S
C1172 H1168 0.949 . S
C1172 C1180 1.574 . S
C1172 C1188 1.368 . S
H1173 C1181 0.950 . S
H1174 C1179 0.950 . S
H1175 C1180 0.949 . S
H1176 C1182 0.950 . S
H1177 C1183 0.950 . S
H1178 C1184 0.949 . S
C1179 H1174 0.950 . S
C1179 C1181 1.327 . S
C1179 C1185 1.429 . S
C1180 C1172 1.574 . S
C1180 H1175 0.949 . S
C1180 C1186 1.368 . S
C1181 C1165 1.349 . S
C1181 H1173 0.950 . S
C1181 C1179 1.327 . S
C1182 C1170 1.349 . S
C1182 H1176 0.950 . S
C1182 C1183 1.327 . S
C1183 H1177 0.950 . S
C1183 C1182 1.327 . S
C1183 C1187 1.429 . S
C1184 C1167 1.574 . S
C1184 H1178 0.949 . S
C1184 C1188 1.368 . S
C1185 C1166 1.429 . S
C1185 C1179 1.429 . S
C1185 C1186 1.523 . S
C1186 C1167 1.368 . S
C1186 C1180 1.368 . S
C1186 C1185 1.523 . S
C1187 C1171 1.429 . S
C1187 C1183 1.429 . S
C1187 C1188 1.523 . S
C1188 C1172 1.368 . S
C1188 C1184 1.368 . S
C1188 C1187 1.523 . S
H1189 C1164 0.950 . S
H1190 C1166 0.950 . S
H1191 C1167 0.949 . S
H1192 C1169 0.950 . S
H1193 C1171 0.950 . S
C1194 C1195 1.349 . S
C1194 C1196 1.327 . S
C1194 H1219 0.950 . S
C1195 C1194 1.349 . S
C1195 C1211 1.349 . S
C1196 C1194 1.327 . S
C1196 C1215 1.429 . S
C1196 H1220 0.950 . S
C1197 C1214 1.574 . S
C1197 C1216 1.368 . S
C1197 H1221 0.949 . S
H1198 C1202 0.949 . S
C1199 C1200 1.349 . S
C1199 C1201 1.327 . S
C1199 H1222 0.950 . S
C1200 C1199 1.349 . S
C1200 C1212 1.349 . S
C1201 C1199 1.327 . S
C1201 C1217 1.429 . S
C1201 H1223 0.950 . S
C1202 H1198 0.949 . S
C1202 C1210 1.574 . S
C1202 C1218 1.368 . S
H1203 C1211 0.950 . S
H1204 C1209 0.950 . S
H1205 C1210 0.949 . S
H1206 C1212 0.950 . S
H1207 C1213 0.950 . S
H1208 C1214 0.949 . S
C1209 H1204 0.950 . S
C1209 C1211 1.327 . S
C1209 C1215 1.429 . S
C1210 C1202 1.574 . S
C1210 H1205 0.949 . S
C1210 C1216 1.368 . S
C1211 C1195 1.349 . S
C1211 H1203 0.950 . S
C1211 C1209 1.327 . S
C1212 C1200 1.349 . S
C1212 H1206 0.950 . S
C1212 C1213 1.327 . S
C1213 H1207 0.950 . S
C1213 C1212 1.327 . S
C1213 C1217 1.429 . S
C1214 C1197 1.574 . S
C1214 H1208 0.949 . S
C1214 C1218 1.368 . S
C1215 C1196 1.429 . S
C1215 C1209 1.429 . S
C1215 C1216 1.523 . S
C1216 C1197 1.368 . S
C1216 C1210 1.368 . S
C1216 C1215 1.523 . S
C1217 C1201 1.429 . S
C1217 C1213 1.429 . S
C1217 C1218 1.523 . S
C1218 C1202 1.368 . S
C1218 C1214 1.368 . S
C1218 C1217 1.523 . S
H1219 C1194 0.950 . S
H1220 C1196 0.950 . S
H1221 C1197 0.949 . S
H1222 C1199 0.950 . S
H1223 C1201 0.950 . S
C1224 C1225 1.349 . S
C1224 C1226 1.327 . S
C1224 H1249 0.950 . S
C1225 C1224 1.349 . S
C1225 C1241 1.349 . S
C1226 C1224 1.327 . S
C1226 C1245 1.429 . S
C1226 H1250 0.950 . S
C1227 C1244 1.574 . S
C1227 C1246 1.368 . S
C1227 H1251 0.949 . S
H1228 C1232 0.949 . S
C1229 C1230 1.349 . S
C1229 C1231 1.327 . S
C1229 H1252 0.950 . S
C1230 C1229 1.349 . S
C1230 C1242 1.349 . S
C1231 C1229 1.327 . S
C1231 C1247 1.429 . S
C1231 H1253 0.950 . S
C1232 H1228 0.949 . S
C1232 C1240 1.574 . S
C1232 C1248 1.368 . S
H1233 C1241 0.950 . S
H1234 C1239 0.950 . S
H1235 C1240 0.949 . S
H1236 C1242 0.950 . S
H1237 C1243 0.950 . S
H1238 C1244 0.949 . S
C1239 H1234 0.950 . S
C1239 C1241 1.327 . S
C1239 C1245 1.429 . S
C1240 C1232 1.574 . S
C1240 H1235 0.949 . S
C1240 C1246 1.368 . S
C1241 C1225 1.349 . S
C1241 H1233 0.950 . S
C1241 C1239 1.327 . S
C1242 C1230 1.349 . S
C1242 H1236 0.950 . S
C1242 C1243 1.327 . S
C1243 H1237 0.950 . S
C1243 C1242 1.327 . S
C1243 C1247 1.429 . S
C1244 C1227 1.574 . S
C1244 H1238 0.949 . S
C1244 C1248 1.368 . S
C1245 C1226 1.429 . S
C1245 C1239 1.429 . S
C1245 C1246 1.523 . S
C1246 C1227 1.368 . S
C1246 C1240 1.368 . S
C1246 C1245 1.523 . S
C1247 C1231 1.429 . S
C1247 C1243 1.429 . S
C1247 C1248 1.523 . S
C1248 C1232 1.368 . S
C1248 C1244 1.368 . S
C1248 C1247 1.523 . S
H1249 C1224 0.950 . S
H1250 C1226 0.950 . S
H1251 C1227 0.949 . S
H1252 C1229 0.950 . S
H1253 C1231 0.950 . S
C1254 C1255 1.349 . S
C1254 C1256 1.327 . S
C1254 H1279 0.950 . S
C1255 C1254 1.349 . S
C1255 C1271 1.349 . S
C1256 C1254 1.327 . S
C1256 C1275 1.429 . S
C1256 H1280 0.950 . S
C1257 C1274 1.574 . S
C1257 C1276 1.368 . S
C1257 H1281 0.949 . S
H1258 C1262 0.949 . S
C1259 C1260 1.349 . S
C1259 C1261 1.327 . S
C1259 H1282 0.950 . S
C1260 C1259 1.349 . S
C1260 C1272 1.349 . S
C1261 C1259 1.327 . S
C1261 C1277 1.429 . S
C1261 H1283 0.950 . S
C1262 H1258 0.949 . S
C1262 C1270 1.574 . S
C1262 C1278 1.368 . S
H1263 C1271 0.950 . S
H1264 C1269 0.950 . S
H1265 C1270 0.949 . S
H1266 C1272 0.950 . S
H1267 C1273 0.950 . S
H1268 C1274 0.949 . S
C1269 H1264 0.950 . S
C1269 C1271 1.327 . S
C1269 C1275 1.429 . S
C1270 C1262 1.574 . S
C1270 H1265 0.949 . S
C1270 C1276 1.368 . S
C1271 C1255 1.349 . S
C1271 H1263 0.950 . S
C1271 C1269 1.327 . S
C1272 C1260 1.349 . S
C1272 H1266 0.950 . S
C1272 C1273 1.327 . S
C1273 H1267 0.950 . S
C1273 C1272 1.327 . S
C1273 C1277 1.429 . S
C1274 C1257 1.574 . S
C1274 H1268 0.949 . S
C1274 C1278 1.368 . S
C1275 C1256 1.429 . S
C1275 C1269 1.429 . S
C1275 C1276 1.523 . S
C1276 C1257 1.368 . S
C1276 C1270 1.368 . S
C1276 C1275 1.523 . S
C1277 C1261 1.429 . S
C1277 C1273 1.429 . S
C1277 C1278 1.523 . S
C1278 C1262 1.368 . S
C1278 C1274 1.368 . S
C1278 C1277 1.523 . S
H1279 C1254 0.950 . S
H1280 C1256 0.950 . S
H1281 C1257 0.949 . S
H1282 C1259 0.950 . S
H1283 C1261 0.950 . S
C1284 C1285 1.349 . S
C1284 C1286 1.327 . S
C1284 H1309 0.950 . S
C1285 C1284 1.349 . S
C1285 C1301 1.349 . S
C1286 C1284 1.327 . S
C1286 C1305 1.429 . S
C1286 H1310 0.950 . S
C1287 C1304 1.574 . S
C1287 C1306 1.368 . S
C1287 H1311 0.949 . S
H1288 C1292 0.949 . S
C1289 C1290 1.349 . S
C1289 C1291 1.327 . S
C1289 H1312 0.950 . S
C1290 C1289 1.349 . S
C1290 C1302 1.349 . S
C1291 C1289 1.327 . S
C1291 C1307 1.429 . S
C1291 H1313 0.950 . S
C1292 H1288 0.949 . S
C1292 C1300 1.574 . S
C1292 C1308 1.368 . S
H1293 C1301 0.950 . S
H1294 C1299 0.950 . S
H1295 C1300 0.949 . S
H1296 C1302 0.950 . S
H1297 C1303 0.950 . S
H1298 C1304 0.949 . S
C1299 H1294 0.950 . S
C1299 C1301 1.327 . S
C1299 C1305 1.429 . S
C1300 C1292 1.574 . S
C1300 H1295 0.949 . S
C1300 C1306 1.368 . S
C1301 C1285 1.349 . S
C1301 H1293 0.950 . S
C1301 C1299 1.327 . S
C1302 C1290 1.349 . S
C1302 H1296 0.950 . S
C1302 C1303 1.327 . S
C1303 H1297 0.950 . S
C1303 C1302 1.327 . S
C1303 C1307 1.429 . S
C1304 C1287 1.574 . S
C1304 H1298 0.949 . S
C1304 C1308 1.368 . S
C1305 C1286 1.429 . S
C1305 C1299 1.429 . S
C1305 C1306 1.523 . S
C1306 C1287 1.368 . S
C1306 C1300 1.368 . S
C1306 C1305 1.523 . S
C1307 C1291 1.429 . S
C1307 C1303 1.429 . S
C1307 C1308 1.523 . S
C1308 C1292 1.368 . S
C1308 C1304 1.368 . S
C1308 C1307 1.523 . S
H1309 C1284 0.950 . S
H1310 C1286 0.950 . S
H1311 C1287 0.949 . S
H1312 C1289 0.950 . S
H1313 C1291 0.950 . S
C1314 C1315 1.349 . S
C1314 C1316 1.327 . S
C1314 H1339 0.950 . S
C1315 C1314 1.349 . S
C1315 C1331 1.349 . S
C1316 C1314 1.327 . S
C1316 C1335 1.429 . S
C1316 H1340 0.950 . S
C1317 C1334 1.574 . S
C1317 C1336 1.368 . S
C1317 H1341 0.949 . S
H1318 C1322 0.949 . S
C1319 C1320 1.349 . S
C1319 C1321 1.327 . S
C1319 H1342 0.950 . S
C1320 C1319 1.349 . S
C1320 C1332 1.349 . S
C1321 C1319 1.327 . S
C1321 C1337 1.429 . S
C1321 H1343 0.950 . S
C1322 H1318 0.949 . S
C1322 C1330 1.574 . S
C1322 C1338 1.368 . S
H1323 C1331 0.950 . S
H1324 C1329 0.950 . S
H1325 C1330 0.949 . S
H1326 C1332 0.950 . S
H1327 C1333 0.950 . S
H1328 C1334 0.949 . S
C1329 H1324 0.950 . S
C1329 C1331 1.327 . S
C1329 C1335 1.429 . S
C1330 C1322 1.574 . S
C1330 H1325 0.949 . S
C1330 C1336 1.368 . S
C1331 C1315 1.349 . S
C1331 H1323 0.950 . S
C1331 C1329 1.327 . S
C1332 C1320 1.349 . S
C1332 H1326 0.950 . S
C1332 C1333 1.327 . S
C1333 H1327 0.950 . S
C1333 C1332 1.327 . S
C1333 C1337 1.429 . S
C1334 C1317 1.574 . S
C1334 H1328 0.949 . S
C1334 C1338 1.368 . S
C1335 C1316 1.429 . S
C1335 C1329 1.429 . S
C1335 C1336 1.523 . S
C1336 C1317 1.368 . S
C1336 C1330 1.368 . S
C1336 C1335 1.523 . S
C1337 C1321 1.429 . S
C1337 C1333 1.429 . S
C1337 C1338 1.523 . S
C1338 C1322 1.368 . S
C1338 C1334 1.368 . S
C1338 C1337 1.523 . S
H1339 C1314 0.950 . S
H1340 C1316 0.950 . S
H1341 C1317 0.949 . S
H1342 C1319 0.950 . S
H1343 C1321 0.950 . S
C1344 C1345 1.349 . S
C1344 C1346 1.327 . S
C1344 H1369 0.950 . S
C1345 C1344 1.349 . S
C1345 C1361 1.349 . S
C1346 C1344 1.327 . S
C1346 C1365 1.429 . S
C1346 H1370 0.950 . S
C1347 C1364 1.574 . S
C1347 C1366 1.368 . S
C1347 H1371 0.949 . S
H1348 C1352 0.949 . S
C1349 C1350 1.349 . S
C1349 C1351 1.327 . S
C1349 H1372 0.950 . S
C1350 C1349 1.349 . S
C1350 C1362 1.349 . S
C1351 C1349 1.327 . S
C1351 C1367 1.429 . S
C1351 H1373 0.950 . S
C1352 H1348 0.949 . S
C1352 C1360 1.574 . S
C1352 C1368 1.368 . S
H1353 C1361 0.950 . S
H1354 C1359 0.950 . S
H1355 C1360 0.949 . S
H1356 C1362 0.950 . S
H1357 C1363 0.950 . S
H1358 C1364 0.949 . S
C1359 H1354 0.950 . S
C1359 C1361 1.327 . S
C1359 C1365 1.429 . S
C1360 C1352 1.574 . S
C1360 H1355 0.949 . S
C1360 C1366 1.368 . S
C1361 C1345 1.349 . S
C1361 H1353 0.950 . S
C1361 C1359 1.327 . S
C1362 C1350 1.349 . S
C1362 H1356 0.950 . S
C1362 C1363 1.327 . S
C1363 H1357 0.950 . S
C1363 C1362 1.327 . S
C1363 C1367 1.429 . S
C1364 C1347 1.574 . S
C1364 H1358 0.949 . S
C1364 C1368 1.368 . S
C1365 C1346 1.429 . S
C1365 C1359 1.429 . S
C1365 C1366 1.523 . S
C1366 C1347 1.368 . S
C1366 C1360 1.368 . S
C1366 C1365 1.523 . S
C1367 C1351 1.429 . S
C1367 C1363 1.429 . S
C1367 C1368 1.523 . S
C1368 C1352 1.368 . S
C1368 C1364 1.368 . S
C1368 C1367 1.523 . S
H1369 C1344 0.950 . S
H1370 C1346 0.950 . S
H1371 C1347 0.949 . S
H1372 C1349 0.950 . S
H1373 C1351 0.950 . S
C1374 C1375 1.349 . S
C1374 C1376 1.327 . S
C1374 H1399 0.950 . S
C1375 C1374 1.349 . S
C1375 C1391 1.349 . S
C1376 C1374 1.327 . S
C1376 C1395 1.429 . S
C1376 H1400 0.950 . S
C1377 C1394 1.574 . S
C1377 C1396 1.368 . S
C1377 H1401 0.949 . S
H1378 C1382 0.949 . S
C1379 C1380 1.349 . S
C1379 C1381 1.327 . S
C1379 H1402 0.950 . S
C1380 C1379 1.349 . S
C1380 C1392 1.349 . S
C1381 C1379 1.327 . S
C1381 C1397 1.429 . S
C1381 H1403 0.950 . S
C1382 H1378 0.949 . S
C1382 C1390 1.574 . S
C1382 C1398 1.368 . S
H1383 C1391 0.950 . S
H1384 C1389 0.950 . S
H1385 C1390 0.949 . S
H1386 C1392 0.950 . S
H1387 C1393 0.950 . S
H1388 C1394 0.949 . S
C1389 H1384 0.950 . S
C1389 C1391 1.327 . S
C1389 C1395 1.429 . S
C1390 C1382 1.574 . S
C1390 H1385 0.949 . S
C1390 C1396 1.368 . S
C1391 C1375 1.349 . S
C1391 H1383 0.950 . S
C1391 C1389 1.327 . S
C1392 C1380 1.349 . S
C1392 H1386 0.950 . S
C1392 C1393 1.327 . S
C1393 H1387 0.950 . S
C1393 C1392 1.327 . S
C1393 C1397 1.429 . S
C1394 C1377 1.574 . S
C1394 H1388 0.949 . S
C1394 C1398 1.368 . S
C1395 C1376 1.429 . S
C1395 C1389 1.429 . S
C1395 C1396 1.523 . S
C1396 C1377 1.368 . S
C1396 C1390 1.368 . S
C1396 C1395 1.523 . S
C1397 C1381 1.429 . S
C1397 C1393 1.429 . S
C1397 C1398 1.523 . S
C1398 C1382 1.368 . S
C1398 C1394 1.368 . S
C1398 C1397 1.523 . S
H1399 C1374 0.950 . S
H1400 C1376 0.950 . S
H1401 C1377 0.949 . S
H1402 C1379 0.950 . S
H1403 C1381 0.950 . S
C1404 C1405 1.349 . S
C1404 C1406 1.327 . S
C1404 H1429 0.950 . S
C1405 C1404 1.349 . S
C1405 C1421 1.349 . S
C1406 C1404 1.327 . S
C1406 C1425 1.429 . S
C1406 H1430 0.950 . S
C1407 C1424 1.574 . S
C1407 C1426 1.368 . S
C1407 H1431 0.949 . S
H1408 C1412 0.949 . S
C1409 C1410 1.349 . S
C1409 C1411 1.327 . S
C1409 H1432 0.950 . S
C1410 C1409 1.349 . S
C1410 C1422 1.349 . S
C1411 C1409 1.327 . S
C1411 C1427 1.429 . S
C1411 H1433 0.950 . S
C1412 H1408 0.949 . S
C1412 C1420 1.574 . S
C1412 C1428 1.368 . S
H1413 C1421 0.950 . S
H1414 C1419 0.950 . S
H1415 C1420 0.949 . S
H1416 C1422 0.950 . S
H1417 C1423 0.950 . S
H1418 C1424 0.949 . S
C1419 H1414 0.950 . S
C1419 C1421 1.327 . S
C1419 C1425 1.429 . S
C1420 C1412 1.574 . S
C1420 H1415 0.949 . S
C1420 C1426 1.368 . S
C1421 C1405 1.349 . S
C1421 H1413 0.950 . S
C1421 C1419 1.327 . S
C1422 C1410 1.349 . S
C1422 H1416 0.950 . S
C1422 C1423 1.327 . S
C1423 H1417 0.950 . S
C1423 C1422 1.327 . S
C1423 C1427 1.429 . S
C1424 C1407 1.574 . S
C1424 H1418 0.949 . S
C1424 C1428 1.368 . S
C1425 C1406 1.429 . S
C1425 C1419 1.429 . S
C1425 C1426 1.523 . S
C1426 C1407 1.368 . S
C1426 C1420 1.368 . S
C1426 C1425 1.523 . S
C1427 C1411 1.429 . S
C1427 C1423 1.429 . S
C1427 C1428 1.523 . S
C1428 C1412 1.368 . S
C1428 C1424 1.368 . S
C1428 C1427 1.523 . S
H1429 C1404 0.950 . S
H1430 C1406 0.950 . S
H1431 C1407 0.949 . S
H1432 C1409 0.950 . S
H1433 C1411 0.950 . S
C1434 C1435 1.349 . S
C1434 C1436 1.327 . S
C1434 H1459 0.950 . S
C1435 C1434 1.349 . S
C1435 C1451 1.349 . S
C1436 C1434 1.327 . S
C1436 C1455 1.429 . S
C1436 H1460 0.950 . S
C1437 C1454 1.574 . S
C1437 C1456 1.368 . S
C1437 H1461 0.949 . S
H1438 C1442 0.949 . S
C1439 C1440 1.349 . S
C1439 C1441 1.327 . S
C1439 H1462 0.950 . S
C1440 C1439 1.349 . S
C1440 C1452 1.349 . S
C1441 C1439 1.327 . S
C1441 C1457 1.429 . S
C1441 H1463 0.950 . S
C1442 H1438 0.949 . S
C1442 C1450 1.574 . S
C1442 C1458 1.368 . S
H1443 C1451 0.950 . S
H1444 C1449 0.950 . S
H1445 C1450 0.949 . S
H1446 C1452 0.950 . S
H1447 C1453 0.950 . S
H1448 C1454 0.949 . S
C1449 H1444 0.950 . S
C1449 C1451 1.327 . S
C1449 C1455 1.429 . S
C1450 C1442 1.574 . S
C1450 H1445 0.949 . S
C1450 C1456 1.368 . S
C1451 C1435 1.349 . S
C1451 H1443 0.950 . S
C1451 C1449 1.327 . S
C1452 C1440 1.349 . S
C1452 H1446 0.950 . S
C1452 C1453 1.327 . S
C1453 H1447 0.950 . S
C1453 C1452 1.327 . S
C1453 C1457 1.429 . S
C1454 C1437 1.574 . S
C1454 H1448 0.949 . S
C1454 C1458 1.368 . S
C1455 C1436 1.429 . S
C1455 C1449 1.429 . S
C1455 C1456 1.523 . S
C1456 C1437 1.368 . S
C1456 C1450 1.368 . S
C1456 C1455 1.523 . S
C1457 C1441 1.429 . S
C1457 C1453 1.429 . S
C1457 C1458 1.523 . S
C1458 C1442 1.368 . S
C1458 C1454 1.368 . S
C1458 C1457 1.523 . S
H1459 C1434 0.950 . S
H1460 C1436 0.950 . S
H1461 C1437 0.949 . S
H1462 C1439 0.950 . S
H1463 C1441 0.950 . S
C1464 C1465 1.349 . S
C1464 C1466 1.327 . S
C1464 H1489 0.950 . S
C1465 C1464 1.349 . S
C1465 C1481 1.349 . S
C1466 C1464 1.327 . S
C1466 C1485 1.429 . S
C1466 H1490 0.950 . S
C1467 C1484 1.574 . S
C1467 C1486 1.368 . S
C1467 H1491 0.949 . S
H1468 C1472 0.949 . S
C1469 C1470 1.349 . S
C1469 C1471 1.327 . S
C1469 H1492 0.950 . S
C1470 C1469 1.349 . S
C1470 C1482 1.349 . S
C1471 C1469 1.327 . S
C1471 C1487 1.429 . S
C1471 H1493 0.950 . S
C1472 H1468 0.949 . S
C1472 C1480 1.574 . S
C1472 C1488 1.368 . S
H1473 C1481 0.950 . S
H1474 C1479 0.950 . S
H1475 C1480 0.949 . S
H1476 C1482 0.950 . S
H1477 C1483 0.950 . S
H1478 C1484 0.949 . S
C1479 H1474 0.950 . S
C1479 C1481 1.327 . S
C1479 C1485 1.429 . S
C1480 C1472 1.574 . S
C1480 H1475 0.949 . S
C1480 C1486 1.368 . S
C1481 C1465 1.349 . S
C1481 H1473 0.950 . S
C1481 C1479 1.327 . S
C1482 C1470 1.349 . S
C1482 H1476 0.950 . S
C1482 C1483 1.327 . S
C1483 H1477 0.950 . S
C1483 C1482 1.327 . S
C1483 C1487 1.429 . S
C1484 C1467 1.574 . S
C1484 H1478 0.949 . S
C1484 C1488 1.368 . S
C1485 C1466 1.429 . S
C1485 C1479 1.429 . S
C1485 C1486 1.523 . S
C1486 C1467 1.368 . S
C1486 C1480 1.368 . S
C1486 C1485 1.523 . S
C1487 C1471 1.429 . S
C1487 C1483 1.429 . S
C1487 C1488 1.523 . S
C1488 C1472 1.368 . S
C1488 C1484 1.368 . S
C1488 C1487 1.523 . S
H1489 C1464 0.950 . S
H1490 C1466 0.950 . S
H1491 C1467 0.949 . S
H1492 C1469 0.950 . S
H1493 C1471 0.950 . S
C1494 C1495 1.349 . S
C1494 C1496 1.327 . S
C1494 H1519 0.950 . S
C1495 C1494 1.349 . S
C1495 C1511 1.349 . S
C1496 C1494 1.327 . S
C1496 C1515 1.429 . S
C1496 H1520 0.950 . S
C1497 C1514 1.574 . S
C1497 C1516 1.368 . S
C1497 H1521 0.949 . S
H1498 C1502 0.949 . S
C1499 C1500 1.349 . S
C1499 C1501 1.327 . S
C1499 H1522 0.950 . S
C1500 C1499 1.349 . S
C1500 C1512 1.349 . S
C1501 C1499 1.327 . S
C1501 C1517 1.429 . S
C1501 H1523 0.950 . S
C1502 H1498 0.949 . S
C1502 C1510 1.574 . S
C1502 C1518 1.368 . S
H1503 C1511 0.950 . S
H1504 C1509 0.950 . S
H1505 C1510 0.949 . S
H1506 C1512 0.950 . S
H1507 C1513 0.950 . S
H1508 C1514 0.949 . S
C1509 H1504 0.950 . S
C1509 C1511 1.327 . S
C1509 C1515 1.429 . S
C1510 C1502 1.574 . S
C1510 H1505 0.949 . S
C1510 C1516 1.368 . S
C1511 C1495 1.349 . S
C1511 H1503 0.950 . S
C1511 C1509 1.327 . S
C1512 C1500 1.349 . S
C1512 H1506 0.950 . S
C1512 C1513 1.327 . S
C1513 H1507 0.950 . S
C1513 C1512 1.327 . S
C1513 C1517 1.429 . S
C1514 C1497 1.574 . S
C1514 H1508 0.949 . S
C1514 C1518 1.368 . S
C1515 C1496 1.429 . S
C1515 C1509 1.429 . S
C1515 C1516 1.523 . S
C1516 C1497 1.368 . S
C1516 C1510 1.368 . S
C1516 C1515 1.523 . S
C1517 C1501 1.429 . S
C1517 C1513 1.429 . S
C1517 C1518 1.523 . S
C1518 C1502 1.368 . S
C1518 C1514 1.368 . S
C1518 C1517 1.523 . S
H1519 C1494 0.950 . S
H1520 C1496 0.950 . S
H1521 C1497 0.949 . S
H1522 C1499 0.950 . S
H1523 C1501 0.950 . S
C1524 C1525 1.349 . S
C1524 C1526 1.327 . S
C1524 H1549 0.950 . S
C1525 C1524 1.349 . S
C1525 C1541 1.349 . S
C1526 C1524 1.327 . S
C1526 C1545 1.429 . S
C1526 H1550 0.950 . S
C1527 C1544 1.574 . S
C1527 C1546 1.368 . S
C1527 H1551 0.949 . S
H1528 C1532 0.949 . S
C1529 C1530 1.349 . S
C1529 C1531 1.327 . S
C1529 H1552 0.950 . S
C1530 C1529 1.349 . S
C1530 C1542 1.349 . S
C1531 C1529 1.327 . S
C1531 C1547 1.429 . S
C1531 H1553 0.950 . S
C1532 H1528 0.949 . S
C1532 C1540 1.574 . S
C1532 C1548 1.368 . S
H1533 C1541 0.950 . S
H1534 C1539 0.950 . S
H1535 C1540 0.949 . S
H1536 C1542 0.950 . S
H1537 C1543 0.950 . S
H1538 C1544 0.949 . S
C1539 H1534 0.950 . S
C1539 C1541 1.327 . S
C1539 C1545 1.429 . S
C1540 C1532 1.574 . S
C1540 H1535 0.949 . S
C1540 C1546 1.368 . S
C1541 C1525 1.349 . S
C1541 H1533 0.950 . S
C1541 C1539 1.327 . S
C1542 C1530 1.349 . S
C1542 H1536 0.950 . S
C1542 C1543 1.327 . S
C1543 H1537 0.950 . S
C1543 C1542 1.327 . S
C1543 C1547 1.429 . S
C1544 C1527 1.574 . S
C1544 H1538 0.949 . S
C1544 C1548 1.368 . S
C1545 C1526 1.429 . S
C1545 C1539 1.429 . S
C1545 C1546 1.523 . S
C1546 C1527 1.368 . S
C1546 C1540 1.368 . S
C1546 C1545 1.523 . S
C1547 C1531 1.429 . S
C1547 C1543 1.429 . S
C1547 C1548 1.523 . S
C1548 C1532 1.368 . S
C1548 C1544 1.368 . S
C1548 C1547 1.523 . S
H1549 C1524 0.950 . S
H1550 C1526 0.950 . S
H1551 C1527 0.949 . S
H1552 C1529 0.950 . S
H1553 C1531 0.950 . S
C1554 C1555 1.349 . S
C1554 C1556 1.327 . S
C1554 H1579 0.950 . S
C1555 C1554 1.349 . S
C1555 C1571 1.349 . S
C1556 C1554 1.327 . S
C1556 C1575 1.429 . S
C1556 H1580 0.950 . S
C1557 C1574 1.574 . S
C1557 C1576 1.368 . S
C1557 H1581 0.949 . S
H1558 C1562 0.949 . S
C1559 C1560 1.349 . S
C1559 C1561 1.327 . S
C1559 H1582 0.950 . S
C1560 C1559 1.349 . S
C1560 C1572 1.349 . S
C1561 C1559 1.327 . S
C1561 C1577 1.429 . S
C1561 H1583 0.950 . S
C1562 H1558 0.949 . S
C1562 C1570 1.574 . S
C1562 C1578 1.368 . S
H1563 C1571 0.950 . S
H1564 C1569 0.950 . S
H1565 C1570 0.949 . S
H1566 C1572 0.950 . S
H1567 C1573 0.950 . S
H1568 C1574 0.949 . S
C1569 H1564 0.950 . S
C1569 C1571 1.327 . S
C1569 C1575 1.429 . S
C1570 C1562 1.574 . S
C1570 H1565 0.949 . S
C1570 C1576 1.368 . S
C1571 C1555 1.349 . S
C1571 H1563 0.950 . S
C1571 C1569 1.327 . S
C1572 C1560 1.349 . S
C1572 H1566 0.950 . S
C1572 C1573 1.327 . S
C1573 H1567 0.950 . S
C1573 C1572 1.327 . S
C1573 C1577 1.429 . S
C1574 C1557 1.574 . S
C1574 H1568 0.949 . S
C1574 C1578 1.368 . S
C1575 C1556 1.429 . S
C1575 C1569 1.429 . S
C1575 C1576 1.523 . S
C1576 C1557 1.368 . S
C1576 C1570 1.368 . S
C1576 C1575 1.523 . S
C1577 C1561 1.429 . S
C1577 C1573 1.429 . S
C1577 C1578 1.523 . S
C1578 C1562 1.368 . S
C1578 C1574 1.368 . S
C1578 C1577 1.523 . S
H1579 C1554 0.950 . S
H1580 C1556 0.950 . S
H1581 C1557 0.949 . S
H1582 C1559 0.950 . S
H1583 C1561 0.950 . S
C1584 C1585 1.349 . S
C1584 C1586 1.327 . S
C1584 H1609 0.950 . S
C1585 C1584 1.349 . S
C1585 C1601 1.349 . S
C1586 C1584 1.327 . S
C1586 C1605 1.429 . S
C1586 H1610 0.950 . S
C1587 C1604 1.574 . S
C1587 C1606 1.368 . S
C1587 H1611 0.949 . S
H1588 C1592 0.949 . S
C1589 C1590 1.349 . S
C1589 C1591 1.327 . S
C1589 H1612 0.950 . S
C1590 C1589 1.349 . S
C1590 C1602 1.349 . S
C1591 C1589 1.327 . S
C1591 C1607 1.429 . S
C1591 H1613 0.950 . S
C1592 H1588 0.949 . S
C1592 C1600 1.574 . S
C1592 C1608 1.368 . S
H1593 C1601 0.950 . S
H1594 C1599 0.950 . S
H1595 C1600 0.949 . S
H1596 C1602 0.950 . S
H1597 C1603 0.950 . S
H1598 C1604 0.949 . S
C1599 H1594 0.950 . S
C1599 C1601 1.327 . S
C1599 C1605 1.429 . S
C1600 C1592 1.574 . S
C1600 H1595 0.949 . S
C1600 C1606 1.368 . S
C1601 C1585 1.349 . S
C1601 H1593 0.950 . S
C1601 C1599 1.327 . S
C1602 C1590 1.349 . S
C1602 H1596 0.950 . S
C1602 C1603 1.327 . S
C1603 H1597 0.950 . S
C1603 C1602 1.327 . S
C1603 C1607 1.429 . S
C1604 C1587 1.574 . S
C1604 H1598 0.949 . S
C1604 C1608 1.368 . S
C1605 C1586 1.429 . S
C1605 C1599 1.429 . S
C1605 C1606 1.523 . S
C1606 C1587 1.368 . S
C1606 C1600 1.368 . S
C1606 C1605 1.523 . S
C1607 C1591 1.429 . S
C1607 C1603 1.429 . S
C1607 C1608 1.523 . S
C1608 C1592 1.368 . S
C1608 C1604 1.368 . S
C1608 C1607 1.523 . S
H1609 C1584 0.950 . S
H1610 C1586 0.950 . S
H1611 C1587 0.949 . S
H1612 C1589 0.950 . S
H1613 C1591 0.950 . S
C1614 C1615 1.349 . S
C1614 C1616 1.327 . S
C1614 H1639 0.950 . S
C1615 C1614 1.349 . S
C1615 C1631 1.349 . S
C1616 C1614 1.327 . S
C1616 C1635 1.429 . S
C1616 H1640 0.950 . S
C1617 C1634 1.574 . S
C1617 C1636 1.368 . S
C1617 H1641 0.949 . S
H1618 C1622 0.949 . S
C1619 C1620 1.349 . S
C1619 C1621 1.327 . S
C1619 H1642 0.950 . S
C1620 C1619 1.349 . S
C1620 C1632 1.349 . S
C1621 C1619 1.327 . S
C1621 C1637 1.429 . S
C1621 H1643 0.950 . S
C1622 H1618 0.949 . S
C1622 C1630 1.574 . S
C1622 C1638 1.368 . S
H1623 C1631 0.950 . S
H1624 C1629 0.950 . S
H1625 C1630 0.949 . S
H1626 C1632 0.950 . S
H1627 C1633 0.950 . S
H1628 C1634 0.949 . S
C1629 H1624 0.950 . S
C1629 C1631 1.327 . S
C1629 C1635 1.429 . S
C1630 C1622 1.574 . S
C1630 H1625 0.949 . S
C1630 C1636 1.368 . S
C1631 C1615 1.349 . S
C1631 H1623 0.950 . S
C1631 C1629 1.327 . S
C1632 C1620 1.349 . S
C1632 H1626 0.950 . S
C1632 C1633 1.327 . S
C1633 H1627 0.950 . S
C1633 C1632 1.327 . S
C1633 C1637 1.429 . S
C1634 C1617 1.574 . S
C1634 H1628 0.949 . S
C1634 C1638 1.368 . S
C1635 C1616 1.429 . S
C1635 C1629 1.429 . S
C1635 C1636 1.523 . S
C1636 C1617 1.368 . S
C1636 C1630 1.368 . S
C1636 C1635 1.523 . S
C1637 C1621 1.429 . S
C1637 C1633 1.429 . S
C1637 C1638 1.523 . S
C1638 C1622 1.368 . S
C1638 C1634 1.368 . S
C1638 C1637 1.523 . S
H1639 C1614 0.950 . S
H1640 C1616 0.950 . S
H1641 C1617 0.949 . S
H1642 C1619 0.950 . S
H1643 C1621 0.950 . S
C1644 C1645 1.349 . S
C1644 C1646 1.327 . S
C1644 H1669 0.950 . S
C1645 C1644 1.349 . S
C1645 C1661 1.349 . S
C1646 C1644 1.327 . S
C1646 C1665 1.429 . S
C1646 H1670 0.950 . S
C1647 C1664 1.574 . S
C1647 C1666 1.368 . S
C1647 H1671 0.949 . S
H1648 C1652 0.949 . S
C1649 C1650 1.349 . S
C1649 C1651 1.327 . S
C1649 H1672 0.950 . S
C1650 C1649 1.349 . S
C1650 C1662 1.349 . S
C1651 C1649 1.327 . S
C1651 C1667 1.429 . S
C1651 H1673 0.950 . S
C1652 H1648 0.949 . S
C1652 C1660 1.574 . S
C1652 C1668 1.368 . S
H1653 C1661 0.950 . S
H1654 C1659 0.950 . S
H1655 C1660 0.949 . S
H1656 C1662 0.950 . S
H1657 C1663 0.950 . S
H1658 C1664 0.949 . S
C1659 H1654 0.950 . S
C1659 C1661 1.327 . S
C1659 C1665 1.429 . S
C1660 C1652 1.574 . S
C1660 H1655 0.949 . S
C1660 C1666 1.368 . S
C1661 C1645 1.349 . S
C1661 H1653 0.950 . S
C1661 C1659 1.327 . S
C1662 C1650 1.349 . S
C1662 H1656 0.950 . S
C1662 C1663 1.327 . S
C1663 H1657 0.950 . S
C1663 C1662 1.327 . S
C1663 C1667 1.429 . S
C1664 C1647 1.574 . S
C1664 H1658 0.949 . S
C1664 C1668 1.368 . S
C1665 C1646 1.429 . S
C1665 C1659 1.429 . S
C1665 C1666 1.523 . S
C1666 C1647 1.368 . S
C1666 C1660 1.368 . S
C1666 C1665 1.523 . S
C1667 C1651 1.429 . S
C1667 C1663 1.429 . S
C1667 C1668 1.523 . S
C1668 C1652 1.368 . S
C1668 C1664 1.368 . S
C1668 C1667 1.523 . S
H1669 C1644 0.950 . S
H1670 C1646 0.950 . S
H1671 C1647 0.949 . S
H1672 C1649 0.950 . S
H1673 C1651 0.950 . S
C1674 C1675 1.349 . S
C1674 C1676 1.327 . S
C1674 H1699 0.950 . S
C1675 C1674 1.349 . S
C1675 C1691 1.349 . S
C1676 C1674 1.327 . S
C1676 C1695 1.429 . S
C1676 H1700 0.950 . S
C1677 C1694 1.574 . S
C1677 C1696 1.368 . S
C1677 H1701 0.949 . S
H1678 C1682 0.949 . S
C1679 C1680 1.349 . S
C1679 C1681 1.327 . S
C1679 H1702 0.950 . S
C1680 C1679 1.349 . S
C1680 C1692 1.349 . S
C1681 C1679 1.327 . S
C1681 C1697 1.429 . S
C1681 H1703 0.950 . S
C1682 H1678 0.949 . S
C1682 C1690 1.574 . S
C1682 C1698 1.368 . S
H1683 C1691 0.950 . S
H1684 C1689 0.950 . S
H1685 C1690 0.949 . S
H1686 C1692 0.950 . S
H1687 C1693 0.950 . S
H1688 C1694 0.949 . S
C1689 H1684 0.950 . S
C1689 C1691 1.327 . S
C1689 C1695 1.429 . S
C1690 C1682 1.574 . S
C1690 H1685 0.949 . S
C1690 C1696 1.368 . S
C1691 C1675 1.349 . S
C1691 H1683 0.950 . S
C1691 C1689 1.327 . S
C1692 C1680 1.349 . S
C1692 H1686 0.950 . S
C1692 C1693 1.327 . S
C1693 H1687 0.950 . S
C1693 C1692 1.327 . S
C1693 C1697 1.429 . S
C1694 C1677 1.574 . S
C1694 H1688 0.949 . S
C1694 C1698 1.368 . S
C1695 C1676 1.429 . S
C1695 C1689 1.429 . S
C1695 C1696 1.523 . S
C1696 C1677 1.368 . S
C1696 C1690 1.368 . S
C1696 C1695 1.523 . S
C1697 C1681 1.429 . S
C1697 C1693 1.429 . S
C1697 C1698 1.523 . S
C1698 C1682 1.368 . S
C1698 C1694 1.368 . S
C1698 C1697 1.523 . S
H1699 C1674 0.950 . S
H1700 C1676 0.950 . S
H1701 C1677 0.949 . S
H1702 C1679 0.950 . S
H1703 C1681 0.950 . S
C1704 C1705 1.349 . S
C1704 C1706 1.327 . S
C1704 H1729 0.950 . S
C1705 C1704 1.349 . S
C1705 C1721 1.349 . S
C1706 C1704 1.327 . S
C1706 C1725 1.429 . S
C1706 H1730 0.950 . S
C1707 C1724 1.574 . S
C1707 C1726 1.368 . S
C1707 H1731 0.949 . S
H1708 C1712 0.949 . S
C1709 C1710 1.349 . S
C1709 C1711 1.327 . S
C1709 H1732 0.950 . S
C1710 C1709 1.349 . S
C1710 C1722 1.349 . S
C1711 C1709 1.327 . S
C1711 C1727 1.429 . S
C1711 H1733 0.950 . S
C1712 H1708 0.949 . S
C1712 C1720 1.574 . S
C1712 C1728 1.368 . S
H1713 C1721 0.950 . S
H1714 C1719 0.950 . S
H1715 C1720 0.949 . S
H1716 C1722 0.950 . S
H1717 C1723 0.950 . S
H1718 C1724 0.949 . S
C1719 H1714 0.950 . S
C1719 C1721 1.327 . S
C1719 C1725 1.429 . S
C1720 C1712 1.574 . S
C1720 H1715 0.949 . S
C1720 C1726 1.368 . S
C1721 C1705 1.349 . S
C1721 H1713 0.950 . S
C1721 C1719 1.327 . S
C1722 C1710 1.349 . S
C1722 H1716 0.950 . S
C1722 C1723 1.327 . S
C1723 H1717 0.950 . S
C1723 C1722 1.327 . S
C1723 C1727 1.429 . S
C1724 C1707 1.574 . S
C1724 H1718 0.949 . S
C1724 C1728 1.368 . S
C1725 C1706 1.429 . S
C1725 C1719 1.429 . S
C1725 C1726 1.523 . S
C1726 C1707 1.368 . S
C1726 C1720 1.368 . S
C1726 C1725 1.523 . S
C1727 C1711 1.429 . S
C1727 C1723 1.429 . S
C1727 C1728 1.523 . S
C1728 C1712 1.368 . S
C1728 C1724 1.368 . S
C1728 C1727 1.523 . S
H1729 C1704 0.950 . S
H1730 C1706 0.950 . S
H1731 C1707 0.949 . S
H1732 C1709 0.950 . S
H1733 C1711 0.950 . S
C1734 C1735 1.349 . S
C1734 C1736 1.327 . S
C1734 H1759 0.950 . S
C1735 C1734 1.349 . S
C1735 C1751 1.349 . S
C1736 C1734 1.327 . S
C1736 C1755 1.429 . S
C1736 H1760 0.950 . S
C1737 C1754 1.574 . S
C1737 C1756 1.368 . S
C1737 H1761 0.949 . S
H1738 C1742 0.949 . S
C1739 C1740 1.349 . S
C1739 C1741 1.327 . S
C1739 H1762 0.950 . S
C1740 C1739 1.349 . S
C1740 C1752 1.349 . S
C1741 C1739 1.327 . S
C1741 C1757 1.429 . S
C1741 H1763 0.950 . S
C1742 H1738 0.949 . S
C1742 C1750 1.574 . S
C1742 C1758 1.368 . S
H1743 C1751 0.950 . S
H1744 C1749 0.950 . S
H1745 C1750 0.949 . S
H1746 C1752 0.950 . S
H1747 C1753 0.950 . S
H1748 C1754 0.949 . S
C1749 H1744 0.950 . S
C1749 C1751 1.327 . S
C1749 C1755 1.429 . S
C1750 C1742 1.574 . S
C1750 H1745 0.949 . S
C1750 C1756 1.368 . S
C1751 C1735 1.349 . S
C1751 H1743 0.950 . S
C1751 C1749 1.327 . S
C1752 C1740 1.349 . S
C1752 H1746 0.950 . S
C1752 C1753 1.327 . S
C1753 H1747 0.950 . S
C1753 C1752 1.327 . S
C1753 C1757 1.429 . S
C1754 C1737 1.574 . S
C1754 H1748 0.949 . S
C1754 C1758 1.368 . S
C1755 C1736 1.429 . S
C1755 C1749 1.429 . S
C1755 C1756 1.523 . S
C1756 C1737 1.368 . S
C1756 C1750 1.368 . S
C1756 C1755 1.523 . S
C1757 C1741 1.429 . S
C1757 C1753 1.429 . S
C1757 C1758 1.523 . S
C1758 C1742 1.368 . S
C1758 C1754 1.368 . S
C1758 C1757 1.523 . S
H1759 C1734 0.950 . S
H1760 C1736 0.950 . S
H1761 C1737 0.949 . S
H1762 C1739 0.950 . S
H1763 C1741 0.950 . S
C1764 C1765 1.349 . S
C1764 C1766 1.327 . S
C1764 H1789 0.950 . S
C1765 C1764 1.349 . S
C1765 C1781 1.349 . S
C1766 C1764 1.327 . S
C1766 C1785 1.429 . S
C1766 H1790 0.950 . S
C1767 C1784 1.574 . S
C1767 C1786 1.368 . S
C1767 H1791 0.949 . S
H1768 C1772 0.949 . S
C1769 C1770 1.349 . S
C1769 C1771 1.327 . S
C1769 H1792 0.950 . S
C1770 C1769 1.349 . S
C1770 C1782 1.349 . S
C1771 C1769 1.327 . S
C1771 C1787 1.429 . S
C1771 H1793 0.950 . S
C1772 H1768 0.949 . S
C1772 C1780 1.574 . S
C1772 C1788 1.368 . S
H1773 C1781 0.950 . S
H1774 C1779 0.950 . S
H1775 C1780 0.949 . S
H1776 C1782 0.950 . S
H1777 C1783 0.950 . S
H1778 C1784 0.949 . S
C1779 H1774 0.950 . S
C1779 C1781 1.327 . S
C1779 C1785 1.429 . S
C1780 C1772 1.574 . S
C1780 H1775 0.949 . S
C1780 C1786 1.368 . S
C1781 C1765 1.349 . S
C1781 H1773 0.950 . S
C1781 C1779 1.327 . S
C1782 C1770 1.349 . S
C1782 H1776 0.950 . S
C1782 C1783 1.327 . S
C1783 H1777 0.950 . S
C1783 C1782 1.327 . S
C1783 C1787 1.429 . S
C1784 C1767 1.574 . S
C1784 H1778 0.949 . S
C1784 C1788 1.368 . S
C1785 C1766 1.429 . S
C1785 C1779 1.429 . S
C1785 C1786 1.523 . S
C1786 C1767 1.368 . S
C1786 C1780 1.368 . S
C1786 C1785 1.523 . S
C1787 C1771 1.429 . S
C1787 C1783 1.429 . S
C1787 C1788 1.523 . S
C1788 C1772 1.368 . S
C1788 C1784 1.368 . S
C1788 C1787 1.523 . S
H1789 C1764 0.950 . S
H1790 C1766 0.950 . S
H1791 C1767 0.949 . S
H1792 C1769 0.950 . S
H1793 C1771 0.950 . S
C1794 C1795 1.349 . S
C1794 C1796 1.327 . S
C1794 H1819 0.950 . S
C1795 C1794 1.349 . S
C1795 C1811 1.349 . S
C1796 C1794 1.327 . S
C1796 C1815 1.429 . S
C1796 H1820 0.950 . S
C1797 C1814 1.574 . S
C1797 C1816 1.368 . S
C1797 H1821 0.949 . S
H1798 C1802 0.949 . S
C1799 C1800 1.349 . S
C1799 C1801 1.327 . S
C1799 H1822 0.950 . S
C1800 C1799 1.349 . S
C1800 C1812 1.349 . S
C1801 C1799 1.327 . S
C1801 C1817 1.429 . S
C1801 H1823 0.950 . S
C1802 H1798 0.949 . S
C1802 C1810 1.574 . S
C1802 C1818 1.368 . S
H1803 C1811 0.950 . S
H1804 C1809 0.950 . S
H1805 C1810 0.949 . S
H1806 C1812 0.950 . S
H1807 C1813 0.950 . S
H1808 C1814 0.949 . S
C1809 H1804 0.950 . S
C1809 C1811 1.327 . S
C1809 C1815 1.429 . S
C1810 C1802 1.574 . S
C1810 H1805 0.949 . S
C1810 C1816 1.368 . S
C1811 C1795 1.349 . S
C1811 H1803 0.950 . S
C1811 C1809 1.327 . S
C1812 C1800 1.349 . S
C1812 H1806 0.950 . S
C1812 C1813 1.327 . S
C1813 H1807 0.950 . S
C1813 C1812 1.327 . S
C1813 C1817 1.429 . S
C1814 C1797 1.574 . S
C1814 H1808 0.949 . S
C1814 C1818 1.368 . S
C1815 C1796 1.429 . S
C1815 C1809 1.429 . S
C1815 C1816 1.523 . S
C1816 C1797 1.368 . S
C1816 C1810 1.368 . S
C1816 C1815 1.523 . S
C1817 C1801 1.429 . S
C1817 C1813 1.429 . S
C1817 C1818 1.523 . S
C1818 C1802 1.368 . S
C1818 C1814 1.368 . S
C1818 C1817 1.523 . S
H1819 C1794 0.950 . S
H1820 C1796 0.950 . S
H1821 C1797 0.949 . S
H1822 C1799 0.950 . S
H1823 C1801 0.950 . S
C1824 C1825 1.349 . S
C1824 C1826 1.327 . S
C1824 H1849 0.950 . S
C1825 C1824 1.349 . S
C1825 C1841 1.349 . S
C1826 C1824 1.327 . S
C1826 C1845 1.429 . S
C1826 H1850 0.950 . S
C1827 C1844 1.574 . S
C1827 C1846 1.368 . S
C1827 H1851 0.949 . S
H1828 C1832 0.949 . S
C1829 C1830 1.349 . S
C1829 C1831 1.327 . S
C1829 H1852 0.950 . S
C1830 C1829 1.349 . S
C1830 C1842 1.349 . S
C1831 C1829 1.327 . S
C1831 C1847 1.429 . S
C1831 H1853 0.950 . S
C1832 H1828 0.949 . S
C1832 C1840 1.574 . S
C1832 C1848 1.368 . S
H1833 C1841 0.950 . S
H1834 C1839 0.950 . S
H1835 C1840 0.949 . S
H1836 C1842 0.950 . S
H1837 C1843 0.950 . S
H1838 C1844 0.949 . S
C1839 H1834 0.950 . S
C1839 C1841 1.327 . S
C1839 C1845 1.429 . S
C1840 C1832 1.574 . S
C1840 H1835 0.949 . S
C1840 C1846 1.368 . S
C1841 C1825 1.349 . S
C1841 H1833 0.950 . S
C1841 C1839 1.327 . S
C1842 C1830 1.349 . S
C1842 H1836 0.950 . S
C1842 C1843 1.327 . S
C1843 H1837 0.950 . S
C1843 C1842 1.327 . S
C1843 C1847 1.429 . S
C1844 C1827 1.574 . S
C1844 H1838 0.949 . S
C1844 C1848 1.368 . S
C1845 C1826 1.429 . S
C1845 C1839 1.429 . S
C1845 C1846 1.523 . S
C1846 C1827 1.368 . S
C1846 C1840 1.368 . S
C1846 C1845 1.523 . S
C1847 C1831 1.429 . S
C1847 C1843 1.429 . S
C1847 C1848 1.523 . S
C1848 C1832 1.368 . S
C1848 C1844 1.368 . S
C1848 C1847 1.523 . S
H1849 C1824 0.950 . S
H1850 C1826 0.950 . S
H1851 C1827 0.949 . S
H1852 C1829 0.950 . S
H1853 C1831 0.950 . S
C1854 C1855 1.349 . S
C1854 C1856 1.327 . S
C1854 H1879 0.950 . S
C1855 C1854 1.349 . S
C1855 C1871 1.349 . S
C1856 C1854 1.327 . S
C1856 C1875 1.429 . S
C1856 H1880 0.950 . S
C1857 C1874 1.574 . S
C1857 C1876 1.368 . S
C1857 H1881 0.949 . S
H1858 C1862 0.949 . S
C1859 C1860 1.349 . S
C1859 C1861 1.327 . S
C1859 H1882 0.950 . S
C1860 C1859 1.349 . S
C1860 C1872 1.349 . S
C1861 C1859 1.327 . S
C1861 C1877 1.429 . S
C1861 H1883 0.950 . S
C1862 H1858 0.949 . S
C1862 C1870 1.574 . S
C1862 C1878 1.368 . S
H1863 C1871 0.950 . S
H1864 C1869 0.950 . S
H1865 C1870 0.949 . S
H1866 C1872 0.950 . S
H1867 C1873 0.950 . S
H1868 C1874 0.949 . S
C1869 H1864 0.950 . S
C1869 C1871 1.327 . S
C1869 C1875 1.429 . S
C1870 C1862 1.574 . S
C1870 H1865 0.949 . S
C1870 C1876 1.368 . S
C1871 C1855 1.349 . S
C1871 H1863 0.950 . S
C1871 C1869 1.327 . S
C1872 C1860 1.349 . S
C1872 H1866 0.950 . S
C1872 C1873 1.327 . S
C1873 H1867 0.950 . S
C1873 C1872 1.327 . S
C1873 C1877 1.429 . S
C1874 C1857 1.574 . S
C1874 H1868 0.949 . S
C1874 C1878 1.368 . S
C1875 C1856 1.429 . S
C1875 C1869 1.429 . S
C1875 C1876 1.523 . S
C1876 C1857 1.368 . S
C1876 C1870 1.368 . S
C1876 C1875 1.523 . S
C1877 C1861 1.429 . S
C1877 C1873 1.429 . S
C1877 C1878 1.523 . S
C1878 C1862 1.368 . S
C1878 C1874 1.368 . S
C1878 C1877 1.523 . S
H1879 C1854 0.950 . S
H1880 C1856 0.950 . S
H1881 C1857 0.949 . S
H1882 C1859 0.950 . S
H1883 C1861 0.950 . S
C1884 C1885 1.349 . S
C1884 C1886 1.327 . S
C1884 H1909 0.950 . S
C1885 C1884 1.349 . S
C1885 C1901 1.349 . S
C1886 C1884 1.327 . S
C1886 C1905 1.429 . S
C1886 H1910 0.950 . S
C1887 C1904 1.574 . S
C1887 C1906 1.368 . S
C1887 H1911 0.949 . S
H1888 C1892 0.949 . S
C1889 C1890 1.349 . S
C1889 C1891 1.327 . S
C1889 H1912 0.950 . S
C1890 C1889 1.349 . S
C1890 C1902 1.349 . S
C1891 C1889 1.327 . S
C1891 C1907 1.429 . S
C1891 H1913 0.950 . S
C1892 H1888 0.949 . S
C1892 C1900 1.574 . S
C1892 C1908 1.368 . S
H1893 C1901 0.950 . S
H1894 C1899 0.950 . S
H1895 C1900 0.949 . S
H1896 C1902 0.950 . S
H1897 C1903 0.950 . S
H1898 C1904 0.949 . S
C1899 H1894 0.950 . S
C1899 C1901 1.327 . S
C1899 C1905 1.429 . S
C1900 C1892 1.574 . S
C1900 H1895 0.949 . S
C1900 C1906 1.368 . S
C1901 C1885 1.349 . S
C1901 H1893 0.950 . S
C1901 C1899 1.327 . S
C1902 C1890 1.349 . S
C1902 H1896 0.950 . S
C1902 C1903 1.327 . S
C1903 H1897 0.950 . S
C1903 C1902 1.327 . S
C1903 C1907 1.429 . S
C1904 C1887 1.574 . S
C1904 H1898 0.949 . S
C1904 C1908 1.368 . S
C1905 C1886 1.429 . S
C1905 C1899 1.429 . S
C1905 C1906 1.523 . S
C1906 C1887 1.368 . S
C1906 C1900 1.368 . S
C1906 C1905 1.523 . S
C1907 C1891 1.429 . S
C1907 C1903 1.429 . S
C1907 C1908 1.523 . S
C1908 C1892 1.368 . S
C1908 C1904 1.368 . S
C1908 C1907 1.523 . S
H1909 C1884 0.950 . S
H1910 C1886 0.950 . S
H1911 C1887 0.949 . S
H1912 C1889 0.950 . S
H1913 C1891 0.950 . S
C1914 C1915 1.349 . S
C1914 C1916 1.327 . S
C1914 H1939 0.950 . S
C1915 C1914 1.349 . S
C1915 C1931 1.349 . S
C1916 C1914 1.327 . S
C1916 C1935 1.429 . S
C1916 H1940 0.950 . S
C1917 C1934 1.574 . S
C1917 C1936 1.368 . S
C1917 H1941 0.949 . S
H1918 C1922 0.949 . S
C1919 C1920 1.349 . S
C1919 C1921 1.327 . S
C1919 H1942 0.950 . S
C1920 C1919 1.349 . S
C1920 C1932 1.349 . S
C1921 C1919 1.327 . S
C1921 C1937 1.429 . S
C1921 H1943 0.950 . S
C1922 H1918 0.949 . S
C1922 C1930 1.574 . S
C1922 C1938 1.368 . S
H1923 C1931 0.950 . S
H1924 C1929 0.950 . S
H1925 C1930 0.949 . S
H1926 C1932 0.950 . S
H1927 C1933 0.950 . S
H1928 C1934 0.949 . S
C1929 H1924 0.950 . S
C1929 C1931 1.327 . S
C1929 C1935 1.429 . S
C1930 C1922 1.574 . S
C1930 H1925 0.949 . S
C1930 C1936 1.368 . S
C1931 C1915 1.349 . S
C1931 H1923 0.950 . S
C1931 C1929 1.327 . S
C1932 C1920 1.349 . S
C1932 H1926 0.950 . S
C1932 C1933 1.327 . S
C1933 H1927 0.950 . S
C1933 C1932 1.327 . S
C1933 C1937 1.429 . S
C1934 C1917 1.574 . S
C1934 H1928 0.949 . S
C1934 C1938 1.368 . S
C1935 C1916 1.429 . S
C1935 C1929 1.429 . S
C1935 C1936 1.523 . S
C1936 C1917 1.368 . S
C1936 C1930 1.368 . S
C1936 C1935 1.523 . S
C1937 C1921 1.429 . S
C1937 C1933 1.429 . S
C1937 C1938 1.523 . S
C1938 C1922 1.368 . S
C1938 C1934 1.368 . S
C1938 C1937 1.523 . S
H1939 C1914 0.950 . S
H1940 C1916 0.950 . S
H1941 C1917 0.949 . S
H1942 C1919 0.950 . S
H1943 C1921 0.950 . S
C1944 C1945 1.349 . S
C1944 C1946 1.327 . S
C1944 H1969 0.950 . S
C1945 C1944 1.349 . S
C1945 C1961 1.349 . S
C1946 C1944 1.327 . S
C1946 C1965 1.429 . S
C1946 H1970 0.950 . S
C1947 C1964 1.574 . S
C1947 C1966 1.368 . S
C1947 H1971 0.949 . S
H1948 C1952 0.949 . S
C1949 C1950 1.349 . S
C1949 C1951 1.327 . S
C1949 H1972 0.950 . S
C1950 C1949 1.349 . S
C1950 C1962 1.349 . S
C1951 C1949 1.327 . S
C1951 C1967 1.429 . S
C1951 H1973 0.950 . S
C1952 H1948 0.949 . S
C1952 C1960 1.574 . S
C1952 C1968 1.368 . S
H1953 C1961 0.950 . S
H1954 C1959 0.950 . S
H1955 C1960 0.949 . S
H1956 C1962 0.950 . S
H1957 C1963 0.950 . S
H1958 C1964 0.949 . S
C1959 H1954 0.950 . S
C1959 C1961 1.327 . S
C1959 C1965 1.429 . S
C1960 C1952 1.574 . S
C1960 H1955 0.949 . S
C1960 C1966 1.368 . S
C1961 C1945 1.349 . S
C1961 H1953 0.950 . S
C1961 C1959 1.327 . S
C1962 C1950 1.349 . S
C1962 H1956 0.950 . S
C1962 C1963 1.327 . S
C1963 H1957 0.950 . S
C1963 C1962 1.327 . S
C1963 C1967 1.429 . S
C1964 C1947 1.574 . S
C1964 H1958 0.949 . S
C1964 C1968 1.368 . S
C1965 C1946 1.429 . S
C1965 C1959 1.429 . S
C1965 C1966 1.523 . S
C1966 C1947 1.368 . S
C1966 C1960 1.368 . S
C1966 C1965 1.523 . S
C1967 C1951 1.429 . S
C1967 C1963 1.429 . S
C1967 C1968 1.523 . S
C1968 C1952 1.368 . S
C1968 C1964 1.368 . S
C1968 C1967 1.523 . S
H1969 C1944 0.950 . S
H1970 C1946 0.950 . S
H1971 C1947 0.949 . S
H1972 C1949 0.950 . S
H1973 C1951 0.950 . S
C1974 C1975 1.349 . S
C1974 C1976 1.327 . S
C1974 H1999 0.950 . S
C1975 C1974 1.349 . S
C1975 C1991 1.349 . S
C1976 C1974 1.327 . S
C1976 C1995 1.429 . S
C1976 H2000 0.950 . S
C1977 C1994 1.574 . S
C1977 C1996 1.368 . S
C1977 H2001 0.949 . S
H1978 C1982 0.949 . S
C1979 C1980 1.349 . S
C1979 C1981 1.327 . S
C1979 H2002 0.950 . S
C1980 C1979 1.349 . S
C1980 C1992 1.349 . S
C1981 C1979 1.327 . S
C1981 C1997 1.429 . S
C1981 H2003 0.950 . S
C1982 H1978 0.949 . S
C1982 C1990 1.574 . S
C1982 C1998 1.368 . S
H1983 C1991 0.950 . S
H1984 C1989 0.950 . S
H1985 C1990 0.949 . S
H1986 C1992 0.950 . S
H1987 C1993 0.950 . S
H1988 C1994 0.949 . S
C1989 H1984 0.950 . S
C1989 C1991 1.327 . S
C1989 C1995 1.429 . S
C1990 C1982 1.574 . S
C1990 H1985 0.949 . S
C1990 C1996 1.368 . S
C1991 C1975 1.349 . S
C1991 H1983 0.950 . S
C1991 C1989 1.327 . S
C1992 C1980 1.349 . S
C1992 H1986 0.950 . S
C1992 C1993 1.327 . S
C1993 H1987 0.950 . S
C1993 C1992 1.327 . S
C1993 C1997 1.429 . S
C1994 C1977 1.574 . S
C1994 H1988 0.949 . S
C1994 C1998 1.368 . S
C1995 C1976 1.429 . S
C1995 C1989 1.429 . S
C1995 C1996 1.523 . S
C1996 C1977 1.368 . S
C1996 C1990 1.368 . S
C1996 C1995 1.523 . S
C1997 C1981 1.429 . S
C1997 C1993 1.429 . S
C1997 C1998 1.523 . S
C1998 C1982 1.368 . S
C1998 C1994 1.368 . S
C1998 C1997 1.523 . S
H1999 C1974 0.950 . S
H2000 C1976 0.950 . S
H2001 C1977 0.949 . S
H2002 C1979 0.950 . S
H2003 C1981 0.950 . S
C2004 C2005 1.349 . S
C2004 C2006 1.327 . S
C2004 H2029 0.950 . S
C2005 C2004 1.349 . S
C2005 C2021 1.349 . S
C2006 C2004 1.327 . S
C2006 C2025 1.429 . S
C2006 H2030 0.950 . S
C2007 C2024 1.574 . S
C2007 C2026 1.368 . S
C2007 H2031 0.949 . S
H2008 C2012 0.949 . S
C2009 C2010 1.349 . S
C2009 C2011 1.327 . S
C2009 H2032 0.950 . S
C2010 C2009 1.349 . S
C2010 C2022 1.349 . S
C2011 C2009 1.327 . S
C2011 C2027 1.429 . S
C2011 H2033 0.950 . S
C2012 H2008 0.949 . S
C2012 C2020 1.574 . S
C2012 C2028 1.368 . S
H2013 C2021 0.950 . S
H2014 C2019 0.950 . S
H2015 C2020 0.949 . S
H2016 C2022 0.950 . S
H2017 C2023 0.950 . S
H2018 C2024 0.949 . S
C2019 H2014 0.950 . S
C2019 C2021 1.327 . S
C2019 C2025 1.429 . S
C2020 C2012 1.574 . S
C2020 H2015 0.949 . S
C2020 C2026 1.368 . S
C2021 C2005 1.349 . S
C2021 H2013 0.950 . S
C2021 C2019 1.327 . S
C2022 C2010 1.349 . S
C2022 H2016 0.950 . S
C2022 C2023 1.327 . S
C2023 H2017 0.950 . S
C2023 C2022 1.327 . S
C2023 C2027 1.429 . S
C2024 C2007 1.574 . S
C2024 H2018 0.949 . S
C2024 C2028 1.368 . S
C2025 C2006 1.429 . S
C2025 C2019 1.429 . S
C2025 C2026 1.523 . S
C2026 C2007 1.368 . S
C2026 C2020 1.368 . S
C2026 C2025 1.523 . S
C2027 C2011 1.429 . S
C2027 C2023 1.429 . S
C2027 C2028 1.523 . S
C2028 C2012 1.368 . S
C2028 C2024 1.368 . S
C2028 C2027 1.523 . S
H2029 C2004 0.950 . S
H2030 C2006 0.950 . S
H2031 C2007 0.949 . S
H2032 C2009 0.950 . S
H2033 C2011 0.950 . S
C2034 C2035 1.349 . S
C2034 C2036 1.327 . S
C2034 H2059 0.950 . S
C2035 C2034 1.349 . S
C2035 C2051 1.349 . S
C2036 C2034 1.327 . S
C2036 C2055 1.429 . S
C2036 H2060 0.950 . S
C2037 C2054 1.574 . S
C2037 C2056 1.368 . S
C2037 H2061 0.949 . S
H2038 C2042 0.949 . S
C2039 C2040 1.349 . S
C2039 C2041 1.327 . S
C2039 H2062 0.950 . S
C2040 C2039 1.349 . S
C2040 C2052 1.349 . S
C2041 C2039 1.327 . S
C2041 C2057 1.429 . S
C2041 H2063 0.950 . S
C2042 H2038 0.949 . S
C2042 C2050 1.574 . S
C2042 C2058 1.368 . S
H2043 C2051 0.950 . S
H2044 C2049 0.950 . S
H2045 C2050 0.949 . S
H2046 C2052 0.950 . S
H2047 C2053 0.950 . S
H2048 C2054 0.949 . S
C2049 H2044 0.950 . S
C2049 C2051 1.327 . S
C2049 C2055 1.429 . S
C2050 C2042 1.574 . S
C2050 H2045 0.949 . S
C2050 C2056 1.368 . S
C2051 C2035 1.349 . S
C2051 H2043 0.950 . S
C2051 C2049 1.327 . S
C2052 C2040 1.349 . S
C2052 H2046 0.950 . S
C2052 C2053 1.327 . S
C2053 H2047 0.950 . S
C2053 C2052 1.327 . S
C2053 C2057 1.429 . S
C2054 C2037 1.574 . S
C2054 H2048 0.949 . S
C2054 C2058 1.368 . S
C2055 C2036 1.429 . S
C2055 C2049 1.429 . S
C2055 C2056 1.523 . S
C2056 C2037 1.368 . S
C2056 C2050 1.368 . S
C2056 C2055 1.523 . S
C2057 C2041 1.429 . S
C2057 C2053 1.429 . S
C2057 C2058 1.523 . S
C2058 C2042 1.368 . S
C2058 C2054 1.368 . S
C2058 C2057 1.523 . S
H2059 C2034 0.950 . S
H2060 C2036 0.950 . S
H2061 C2037 0.949 . S
H2062 C2039 0.950 . S
H2063 C2041 0.950 . S
C2064 C2065 1.349 . S
C2064 C2066 1.327 . S
C2064 H2089 0.950 . S
C2065 C2064 1.349 . S
C2065 C2081 1.349 . S
C2066 C2064 1.327 . S
C2066 C2085 1.429 . S
C2066 H2090 0.950 . S
C2067 C2084 1.574 . S
C2067 C2086 1.368 . S
C2067 H2091 0.949 . S
H2068 C2072 0.949 . S
C2069 C2070 1.349 . S
C2069 C2071 1.327 . S
C2069 H2092 0.950 . S
C2070 C2069 1.349 . S
C2070 C2082 1.349 . S
C2071 C2069 1.327 . S
C2071 C2087 1.429 . S
C2071 H2093 0.950 . S
C2072 H2068 0.949 . S
C2072 C2080 1.574 . S
C2072 C2088 1.368 . S
H2073 C2081 0.950 . S
H2074 C2079 0.950 . S
H2075 C2080 0.949 . S
H2076 C2082 0.950 . S
H2077 C2083 0.950 . S
H2078 C2084 0.949 . S
C2079 H2074 0.950 . S
C2079 C2081 1.327 . S
C2079 C2085 1.429 . S
C2080 C2072 1.574 . S
C2080 H2075 0.949 . S
C2080 C2086 1.368 . S
C2081 C2065 1.349 . S
C2081 H2073 0.950 . S
C2081 C2079 1.327 . S
C2082 C2070 1.349 . S
C2082 H2076 0.950 . S
C2082 C2083 1.327 . S
C2083 H2077 0.950 . S
C2083 C2082 1.327 . S
C2083 C2087 1.429 . S
C2084 C2067 1.574 . S
C2084 H2078 0.949 . S
C2084 C2088 1.368 . S
C2085 C2066 1.429 . S
C2085 C2079 1.429 . S
C2085 C2086 1.523 . S
C2086 C2067 1.368 . S
C2086 C2080 1.368 . S
C2086 C2085 1.523 . S
C2087 C2071 1.429 . S
C2087 C2083 1.429 . S
C2087 C2088 1.523 . S
C2088 C2072 1.368 . S
C2088 C2084 1.368 . S
C2088 C2087 1.523 . S
H2089 C2064 0.950 . S
H2090 C2066 0.950 . S
H2091 C2067 0.949 . S
H2092 C2069 0.950 . S
H2093 C2071 0.950 . S
C2094 C2095 1.349 . S
C2094 C2096 1.327 . S
C2094 H2119 0.950 . S
C2095 C2094 1.349 . S
C2095 C2111 1.349 . S
C2096 C2094 1.327 . S
C2096 C2115 1.429 . S
C2096 H2120 0.950 . S
C2097 C2114 1.574 . S
C2097 C2116 1.368 . S
C2097 H2121 0.949 . S
H2098 C2102 0.949 . S
C2099 C2100 1.349 . S
C2099 C2101 1.327 . S
C2099 H2122 0.950 . S
C2100 C2099 1.349 . S
C2100 C2112 1.349 . S
C2101 C2099 1.327 . S
C2101 C2117 1.429 . S
C2101 H2123 0.950 . S
C2102 H2098 0.949 . S
C2102 C2110 1.574 . S
C2102 C2118 1.368 . S
H2103 C2111 0.950 . S
H2104 C2109 0.950 . S
H2105 C2110 0.949 . S
H2106 C2112 0.950 . S
H2107 C2113 0.950 . S
H2108 C2114 0.949 . S
C2109 H2104 0.950 . S
C2109 C2111 1.327 . S
C2109 C2115 1.429 . S
C2110 C2102 1.574 . S
C2110 H2105 0.949 . S
C2110 C2116 1.368 . S
C2111 C2095 1.349 . S
C2111 H2103 0.950 . S
C2111 C2109 1.327 . S
C2112 C2100 1.349 . S
C2112 H2106 0.950 . S
C2112 C2113 1.327 . S
C2113 H2107 0.950 . S
C2113 C2112 1.327 . S
C2113 C2117 1.429 . S
C2114 C2097 1.574 . S
C2114 H2108 0.949 . S
C2114 C2118 1.368 . S
C2115 C2096 1.429 . S
C2115 C2109 1.429 . S
C2115 C2116 1.523 . S
C2116 C2097 1.368 . S
C2116 C2110 1.368 . S
C2116 C2115 1.523 . S
C2117 C2101 1.429 . S
C2117 C2113 1.429 . S
C2117 C2118 1.523 . S
C2118 C2102 1.368 . S
C2118 C2114 1.368 . S
C2118 C2117 1.523 . S
H2119 C2094 0.950 . S
H2120 C2096 0.950 . S
H2121 C2097 0.949 . S
H2122 C2099 0.950 . S
H2123 C2101 0.950 . S
C2124 C2125 1.349 . S
C2124 C2126 1.327 . S
C2124 H2149 0.950 . S
C2125 C2124 1.349 . S
C2125 C2141 1.349 . S
C2126 C2124 1.327 . S
C2126 C2145 1.429 . S
C2126 H2150 0.950 . S
C2127 C2144 1.574 . S
C2127 C2146 1.368 . S
C2127 H2151 0.949 . S
H2128 C2132 0.949 . S
C2129 C2130 1.349 . S
C2129 C2131 1.327 . S
C2129 H2152 0.950 . S
C2130 C2129 1.349 . S
C2130 C2142 1.349 . S
C2131 C2129 1.327 . S
C2131 C2147 1.429 . S
C2131 H2153 0.950 . S
C2132 H2128 0.949 . S
C2132 C2140 1.574 . S
C2132 C2148 1.368 . S
H2133 C2141 0.950 . S
H2134 C2139 0.950 . S
H2135 C2140 0.949 . S
H2136 C2142 0.950 . S
H2137 C2143 0.950 . S
H2138 C2144 0.949 . S
C2139 H2134 0.950 . S
C2139 C2141 1.327 . S
C2139 C2145 1.429 . S
C2140 C2132 1.574 . S
C2140 H2135 0.949 . S
C2140 C2146 1.368 . S
C2141 C2125 1.349 . S
C2141 H2133 0.950 . S
C2141 C2139 1.327 . S
C2142 C2130 1.349 . S
C2142 H2136 0.950 . S
C2142 C2143 1.327 . S
C2143 H2137 0.950 . S
C2143 C2142 1.327 . S
C2143 C2147 1.429 . S
C2144 C2127 1.574 . S
C2144 H2138 0.949 . S
C2144 C2148 1.368 . S
C2145 C2126 1.429 . S
C2145 C2139 1.429 . S
C2145 C2146 1.523 . S
C2146 C2127 1.368 . S
C2146 C2140 1.368 . S
C2146 C2145 1.523 . S
C2147 C2131 1.429 . S
C2147 C2143 1.429 . S
C2147 C2148 1.523 . S
C2148 C2132 1.368 . S
C2148 C2144 1.368 . S
C2148 C2147 1.523 . S
H2149 C2124 0.950 . S
H2150 C2126 0.950 . S
H2151 C2127 0.949 . S
H2152 C2129 0.950 . S
H2153 C2131 0.950 . S
C2154 C2155 1.349 . S
C2154 C2156 1.327 . S
C2154 H2179 0.950 . S
C2155 C2154 1.349 . S
C2155 C2171 1.349 . S
C2156 C2154 1.327 . S
C2156 C2175 1.429 . S
C2156 H2180 0.950 . S
C2157 C2174 1.574 . S
C2157 C2176 1.368 . S
C2157 H2181 0.949 . S
H2158 C2162 0.949 . S
C2159 C2160 1.349 . S
C2159 C2161 1.327 . S
C2159 H2182 0.950 . S
C2160 C2159 1.349 . S
C2160 C2172 1.349 . S
C2161 C2159 1.327 . S
C2161 C2177 1.429 . S
C2161 H2183 0.950 . S
C2162 H2158 0.949 . S
C2162 C2170 1.574 . S
C2162 C2178 1.368 . S
H2163 C2171 0.950 . S
H2164 C2169 0.950 . S
H2165 C2170 0.949 . S
H2166 C2172 0.950 . S
H2167 C2173 0.950 . S
H2168 C2174 0.949 . S
C2169 H2164 0.950 . S
C2169 C2171 1.327 . S
C2169 C2175 1.429 . S
C2170 C2162 1.574 . S
C2170 H2165 0.949 . S
C2170 C2176 1.368 . S
C2171 C2155 1.349 . S
C2171 H2163 0.950 . S
C2171 C2169 1.327 . S
C2172 C2160 1.349 . S
C2172 H2166 0.950 . S
C2172 C2173 1.327 . S
C2173 H2167 0.950 . S
C2173 C2172 1.327 . S
C2173 C2177 1.429 . S
C2174 C2157 1.574 . S
C2174 H2168 0.949 . S
C2174 C2178 1.368 . S
C2175 C2156 1.429 . S
C2175 C2169 1.429 . S
C2175 C2176 1.523 . S
C2176 C2157 1.368 . S
C2176 C2170 1.368 . S
C2176 C2175 1.523 . S
C2177 C2161 1.429 . S
C2177 C2173 1.429 . S
C2177 C2178 1.523 . S
C2178 C2162 1.368 . S
C2178 C2174 1.368 . S
C2178 C2177 1.523 . S
H2179 C2154 0.950 . S
H2180 C2156 0.950 . S
H2181 C2157 0.949 . S
H2182 C2159 0.950 . S
H2183 C2161 0.950 . S
C2184 C2185 1.349 . S
C2184 C2186 1.327 . S
C2184 H2209 0.950 . S
C2185 C2184 1.349 . S
C2185 C2201 1.349 . S
C2186 C2184 1.327 . S
C2186 C2205 1.429 . S
C2186 H2210 0.950 . S
C2187 C2204 1.574 . S
C2187 C2206 1.368 . S
C2187 H2211 0.949 . S
H2188 C2192 0.949 . S
C2189 C2190 1.349 . S
C2189 C2191 1.327 . S
C2189 H2212 0.950 . S
C2190 C2189 1.349 . S
C2190 C2202 1.349 . S
C2191 C2189 1.327 . S
C2191 C2207 1.429 . S
C2191 H2213 0.950 . S
C2192 H2188 0.949 . S
C2192 C2200 1.574 . S
C2192 C2208 1.368 . S
H2193 C2201 0.950 . S
H2194 C2199 0.950 . S
H2195 C2200 0.949 . S
H2196 C2202 0.950 . S
H2197 C2203 0.950 . S
H2198 C2204 0.949 . S
C2199 H2194 0.950 . S
C2199 C2201 1.327 . S
C2199 C2205 1.429 . S
C2200 C2192 1.574 . S
C2200 H2195 0.949 . S
C2200 C2206 1.368 . S
C2201 C2185 1.349 . S
C2201 H2193 0.950 . S
C2201 C2199 1.327 . S
C2202 C2190 1.349 . S
C2202 H2196 0.950 . S
C2202 C2203 1.327 . S
C2203 H2197 0.950 . S
C2203 C2202 1.327 . S
C2203 C2207 1.429 . S
C2204 C2187 1.574 . S
C2204 H2198 0.949 . S
C2204 C2208 1.368 . S
C2205 C2186 1.429 . S
C2205 C2199 1.429 . S
C2205 C2206 1.523 . S
C2206 C2187 1.368 . S
C2206 C2200 1.368 . S
C2206 C2205 1.523 . S
C2207 C2191 1.429 . S
C2207 C2203 1.429 . S
C2207 C2208 1.523 . S
C2208 C2192 1.368 . S
C2208 C2204 1.368 . S
C2208 C2207 1.523 . S
H2209 C2184 0.950 . S
H2210 C2186 0.950 . S
H2211 C2187 0.949 . S
H2212 C2189 0.950 . S
H2213 C2191 0.950 . S
C2214 C2215 1.349 . S
C2214 C2216 1.327 . S
C2214 H2239 0.950 . S
C2215 C2214 1.349 . S
C2215 C2231 1.349 . S
C2216 C2214 1.327 . S
C2216 C2235 1.429 . S
C2216 H2240 0.950 . S
C2217 C2234 1.574 . S
C2217 C2236 1.368 . S
C2217 H2241 0.949 . S
H2218 C2222 0.949 . S
C2219 C2220 1.349 . S
C2219 C2221 1.327 . S
C2219 H2242 0.950 . S
C2220 C2219 1.349 . S
C2220 C2232 1.349 . S
C2221 C2219 1.327 . S
C2221 C2237 1.429 . S
C2221 H2243 0.950 . S
C2222 H2218 0.949 . S
C2222 C2230 1.574 . S
C2222 C2238 1.368 . S
H2223 C2231 0.950 . S
H2224 C2229 0.950 . S
H2225 C2230 0.949 . S
H2226 C2232 0.950 . S
H2227 C2233 0.950 . S
H2228 C2234 0.949 . S
C2229 H2224 0.950 . S
C2229 C2231 1.327 . S
C2229 C2235 1.429 . S
C2230 C2222 1.574 . S
C2230 H2225 0.949 . S
C2230 C2236 1.368 . S
C2231 C2215 1.349 . S
C2231 H2223 0.950 . S
C2231 C2229 1.327 . S
C2232 C2220 1.349 . S
C2232 H2226 0.950 . S
C2232 C2233 1.327 . S
C2233 H2227 0.950 . S
C2233 C2232 1.327 . S
C2233 C2237 1.429 . S
C2234 C2217 1.574 . S
C2234 H2228 0.949 . S
C2234 C2238 1.368 . S
C2235 C2216 1.429 . S
C2235 C2229 1.429 . S
C2235 C2236 1.523 . S
C2236 C2217 1.368 . S
C2236 C2230 1.368 . S
C2236 C2235 1.523 . S
C2237 C2221 1.429 . S
C2237 C2233 1.429 . S
C2237 C2238 1.523 . S
C2238 C2222 1.368 . S
C2238 C2234 1.368 . S
C2238 C2237 1.523 . S
H2239 C2214 0.950 . S
H2240 C2216 0.950 . S
H2241 C2217 0.949 . S
H2242 C2219 0.950 . S
H2243 C2221 0.950 . S
C2244 C2245 1.349 . S
C2244 C2246 1.327 . S
C2244 H2269 0.950 . S
C2245 C2244 1.349 . S
C2245 C2261 1.349 . S
C2246 C2244 1.327 . S
C2246 C2265 1.429 . S
C2246 H2270 0.950 . S
C2247 C2264 1.574 . S
C2247 C2266 1.368 . S
C2247 H2271 0.949 . S
H2248 C2252 0.949 . S
C2249 C2250 1.349 . S
C2249 C2251 1.327 . S
C2249 H2272 0.950 . S
C2250 C2249 1.349 . S
C2250 C2262 1.349 . S
C2251 C2249 1.327 . S
C2251 C2267 1.429 . S
C2251 H2273 0.950 . S
C2252 H2248 0.949 . S
C2252 C2260 1.574 . S
C2252 C2268 1.368 . S
H2253 C2261 0.950 . S
H2254 C2259 0.950 . S
H2255 C2260 0.949 . S
H2256 C2262 0.950 . S
H2257 C2263 0.950 . S
H2258 C2264 0.949 . S
C2259 H2254 0.950 . S
C2259 C2261 1.327 . S
C2259 C2265 1.429 . S
C2260 C2252 1.574 . S
C2260 H2255 0.949 . S
C2260 C2266 1.368 . S
C2261 C2245 1.349 . S
C2261 H2253 0.950 . S
C2261 C2259 1.327 . S
C2262 C2250 1.349 . S
C2262 H2256 0.950 . S
C2262 C2263 1.327 . S
C2263 H2257 0.950 . S
C2263 C2262 1.327 . S
C2263 C2267 1.429 . S
C2264 C2247 1.574 . S
C2264 H2258 0.949 . S
C2264 C2268 1.368 . S
C2265 C2246 1.429 . S
C2265 C2259 1.429 . S
C2265 C2266 1.523 . S
C2266 C2247 1.368 . S
C2266 C2260 1.368 . S
C2266 C2265 1.523 . S
C2267 C2251 1.429 . S
C2267 C2263 1.429 . S
C2267 C2268 1.523 . S
C2268 C2252 1.368 . S
C2268 C2264 1.368 . S
C2268 C2267 1.523 . S
H2269 C2244 0.950 . S
H2270 C2246 0.950 . S
H2271 C2247 0.949 . S
H2272 C2249 0.950 . S
H2273 C2251 0.950 . S
C2274 C2275 1.349 . S
C2274 C2276 1.327 . S
C2274 H2299 0.950 . S
C2275 C2274 1.349 . S
C2275 C2291 1.349 . S
C2276 C2274 1.327 . S
C2276 C2295 1.429 . S
C2276 H2300 0.950 . S
C2277 C2294 1.574 . S
C2277 C2296 1.368 . S
C2277 H2301 0.949 . S
H2278 C2282 0.949 . S
C2279 C2280 1.349 . S
C2279 C2281 1.327 . S
C2279 H2302 0.950 . S
C2280 C2279 1.349 . S
C2280 C2292 1.349 . S
C2281 C2279 1.327 . S
C2281 C2297 1.429 . S
C2281 H2303 0.950 . S
C2282 H2278 0.949 . S
C2282 C2290 1.574 . S
C2282 C2298 1.368 . S
H2283 C2291 0.950 . S
H2284 C2289 0.950 . S
H2285 C2290 0.949 . S
H2286 C2292 0.950 . S
H2287 C2293 0.950 . S
H2288 C2294 0.949 . S
C2289 H2284 0.950 . S
C2289 C2291 1.327 . S
C2289 C2295 1.429 . S
C2290 C2282 1.574 . S
C2290 H2285 0.949 . S
C2290 C2296 1.368 . S
C2291 C2275 1.349 . S
C2291 H2283 0.950 . S
C2291 C2289 1.327 . S
C2292 C2280 1.349 . S
C2292 H2286 0.950 . S
C2292 C2293 1.327 . S
C2293 H2287 0.950 . S
C2293 C2292 1.327 . S
C2293 C2297 1.429 . S
C2294 C2277 1.574 . S
C2294 H2288 0.949 . S
C2294 C2298 1.368 . S
C2295 C2276 1.429 . S
C2295 C2289 1.429 . S
C2295 C2296 1.523 . S
C2296 C2277 1.368 . S
C2296 C2290 1.368 . S
C2296 C2295 1.523 . S
C2297 C2281 1.429 . S
C2297 C2293 1.429 . S
C2297 C2298 1.523 . S
C2298 C2282 1.368 . S
C2298 C2294 1.368 . S
C2298 C2297 1.523 . S
H2299 C2274 0.950 . S
H2300 C2276 0.950 . S
H2301 C2277 0.949 . S
H2302 C2279 0.950 . S
H2303 C2281 0.950 . S
C2304 C2305 1.349 . S
C2304 C2306 1.327 . S
C2304 H2329 0.950 . S
C2305 C2304 1.349 . S
C2305 C2321 1.349 . S
C2306 C2304 1.327 . S
C2306 C2325 1.429 . S
C2306 H2330 0.950 . S
C2307 C2324 1.574 . S
C2307 C2326 1.368 . S
C2307 H2331 0.949 . S
H2308 C2312 0.949 . S
C2309 C2310 1.349 . S
C2309 C2311 1.327 . S
C2309 H2332 0.950 . S
C2310 C2309 1.349 . S
C2310 C2322 1.349 . S
C2311 C2309 1.327 . S
C2311 C2327 1.429 . S
C2311 H2333 0.950 . S
C2312 H2308 0.949 . S
C2312 C2320 1.574 . S
C2312 C2328 1.368 . S
H2313 C2321 0.950 . S
H2314 C2319 0.950 . S
H2315 C2320 0.949 . S
H2316 C2322 0.950 . S
H2317 C2323 0.950 . S
H2318 C2324 0.949 . S
C2319 H2314 0.950 . S
C2319 C2321 1.327 . S
C2319 C2325 1.429 . S
C2320 C2312 1.574 . S
C2320 H2315 0.949 . S
C2320 C2326 1.368 . S
C2321 C2305 1.349 . S
C2321 H2313 0.950 . S
C2321 C2319 1.327 . S
C2322 C2310 1.349 . S
C2322 H2316 0.950 . S
C2322 C2323 1.327 . S
C2323 H2317 0.950 . S
C2323 C2322 1.327 . S
C2323 C2327 1.429 . S
C2324 C2307 1.574 . S
C2324 H2318 0.949 . S
C2324 C2328 1.368 . S
C2325 C2306 1.429 . S
C2325 C2319 1.429 . S
C2325 C2326 1.523 . S
C2326 C2307 1.368 . S
C2326 C2320 1.368 . S
C2326 C2325 1.523 . S
C2327 C2311 1.429 . S
C2327 C2323 1.429 . S
C2327 C2328 1.523 . S
C2328 C2312 1.368 . S
C2328 C2324 1.368 . S
C2328 C2327 1.523 . S
H2329 C2304 0.950 . S
H2330 C2306 0.950 . S
H2331 C2307 0.949 . S
H2332 C2309 0.950 . S
H2333 C2311 0.950 . S
C2334 C2335 1.349 . S
C2334 C2336 1.327 . S
C2334 H2359 0.950 . S
C2335 C2334 1.349 . S
C2335 C2351 1.349 . S
C2336 C2334 1.327 . S
C2336 C2355 1.429 . S
C2336 H2360 0.950 . S
C2337 C2354 1.574 . S
C2337 C2356 1.368 . S
C2337 H2361 0.949 . S
H2338 C2342 0.949 . S
C2339 C2340 1.349 . S
C2339 C2341 1.327 . S
C2339 H2362 0.950 . S
C2340 C2339 1.349 . S
C2340 C2352 1.349 . S
C2341 C2339 1.327 . S
C2341 C2357 1.429 . S
C2341 H2363 0.950 . S
C2342 H2338 0.949 . S
C2342 C2350 1.574 . S
C2342 C2358 1.368 . S
H2343 C2351 0.950 . S
H2344 C2349 0.950 . S
H2345 C2350 0.949 . S
H2346 C2352 0.950 . S
H2347 C2353 0.950 . S
H2348 C2354 0.949 . S
C2349 H2344 0.950 . S
C2349 C2351 1.327 . S
C2349 C2355 1.429 . S
C2350 C2342 1.574 . S
C2350 H2345 0.949 . S
C2350 C2356 1.368 . S
C2351 C2335 1.349 . S
C2351 H2343 0.950 . S
C2351 C2349 1.327 . S
C2352 C2340 1.349 . S
C2352 H2346 0.950 . S
C2352 C2353 1.327 . S
C2353 H2347 0.950 . S
C2353 C2352 1.327 . S
C2353 C2357 1.429 . S
C2354 C2337 1.574 . S
C2354 H2348 0.949 . S
C2354 C2358 1.368 . S
C2355 C2336 1.429 . S
C2355 C2349 1.429 . S
C2355 C2356 1.523 . S
C2356 C2337 1.368 . S
C2356 C2350 1.368 . S
C2356 C2355 1.523 . S
C2357 C2341 1.429 . S
C2357 C2353 1.429 . S
C2357 C2358 1.523 . S
C2358 C2342 1.368 . S
C2358 C2354 1.368 . S
C2358 C2357 1.523 . S
H2359 C2334 0.950 . S
H2360 C2336 0.950 . S
H2361 C2337 0.949 . S
H2362 C2339 0.950 . S
H2363 C2341 0.950 . S
C2364 C2365 1.349 . S
C2364 C2366 1.327 . S
C2364 H2389 0.950 . S
C2365 C2364 1.349 . S
C2365 C2381 1.349 . S
C2366 C2364 1.327 . S
C2366 C2385 1.429 . S
C2366 H2390 0.950 . S
C2367 C2384 1.574 . S
C2367 C2386 1.368 . S
C2367 H2391 0.949 . S
H2368 C2372 0.949 . S
C2369 C2370 1.349 . S
C2369 C2371 1.327 . S
C2369 H2392 0.950 . S
C2370 C2369 1.349 . S
C2370 C2382 1.349 . S
C2371 C2369 1.327 . S
C2371 C2387 1.429 . S
C2371 H2393 0.950 . S
C2372 H2368 0.949 . S
C2372 C2380 1.574 . S
C2372 C2388 1.368 . S
H2373 C2381 0.950 . S
H2374 C2379 0.950 . S
H2375 C2380 0.949 . S
H2376 C2382 0.950 . S
H2377 C2383 0.950 . S
H2378 C2384 0.949 . S
C2379 H2374 0.950 . S
C2379 C2381 1.327 . S
C2379 C2385 1.429 . S
C2380 C2372 1.574 . S
C2380 H2375 0.949 . S
C2380 C2386 1.368 . S
C2381 C2365 1.349 . S
C2381 H2373 0.950 . S
C2381 C2379 1.327 . S
C2382 C2370 1.349 . S
C2382 H2376 0.950 . S
C2382 C2383 1.327 . S
C2383 H2377 0.950 . S
C2383 C2382 1.327 . S
C2383 C2387 1.429 . S
C2384 C2367 1.574 . S
C2384 H2378 0.949 . S
C2384 C2388 1.368 . S
C2385 C2366 1.429 . S
C2385 C2379 1.429 . S
C2385 C2386 1.523 . S
C2386 C2367 1.368 . S
C2386 C2380 1.368 . S
C2386 C2385 1.523 . S
C2387 C2371 1.429 . S
C2387 C2383 1.429 . S
C2387 C2388 1.523 . S
C2388 C2372 1.368 . S
C2388 C2384 1.368 . S
C2388 C2387 1.523 . S
H2389 C2364 0.950 . S
H2390 C2366 0.950 . S
H2391 C2367 0.949 . S
H2392 C2369 0.950 . S
H2393 C2371 0.950 . S
C2394 C2395 1.349 . S
C2394 C2396 1.327 . S
C2394 H2419 0.950 . S
C2395 C2394 1.349 . S
C2395 C2411 1.349 . S
C2396 C2394 1.327 . S
C2396 C2415 1.429 . S
C2396 H2420 0.950 . S
C2397 C2414 1.574 . S
C2397 C2416 1.368 . S
C2397 H2421 0.949 . S
H2398 C2402 0.949 . S
C2399 C2400 1.349 . S
C2399 C2401 1.327 . S
C2399 H2422 0.950 . S
C2400 C2399 1.349 . S
C2400 C2412 1.349 . S
C2401 C2399 1.327 . S
C2401 C2417 1.429 . S
C2401 H2423 0.950 . S
C2402 H2398 0.949 . S
C2402 C2410 1.574 . S
C2402 C2418 1.368 . S
H2403 C2411 0.950 . S
H2404 C2409 0.950 . S
H2405 C2410 0.949 . S
H2406 C2412 0.950 . S
H2407 C2413 0.950 . S
H2408 C2414 0.949 . S
C2409 H2404 0.950 . S
C2409 C2411 1.327 . S
C2409 C2415 1.429 . S
C2410 C2402 1.574 . S
C2410 H2405 0.949 . S
C2410 C2416 1.368 . S
C2411 C2395 1.349 . S
C2411 H2403 0.950 . S
C2411 C2409 1.327 . S
C2412 C2400 1.349 . S
C2412 H2406 0.950 . S
C2412 C2413 1.327 . S
C2413 H2407 0.950 . S
C2413 C2412 1.327 . S
C2413 C2417 1.429 . S
C2414 C2397 1.574 . S
C2414 H2408 0.949 . S
C2414 C2418 1.368 . S
C2415 C2396 1.429 . S
C2415 C2409 1.429 . S
C2415 C2416 1.523 . S
C2416 C2397 1.368 . S
C2416 C2410 1.368 . S
C2416 C2415 1.523 . S
C2417 C2401 1.429 . S
C2417 C2413 1.429 . S
C2417 C2418 1.523 . S
C2418 C2402 1.368 . S
C2418 C2414 1.368 . S
C2418 C2417 1.523 . S
H2419 C2394 0.950 . S
H2420 C2396 0.950 . S
H2421 C2397 0.949 . S
H2422 C2399 0.950 . S
H2423 C2401 0.950 . S
C2424 C2425 1.349 . S
C2424 C2426 1.327 . S
C2424 H2449 0.950 . S
C2425 C2424 1.349 . S
C2425 C2441 1.349 . S
C2426 C2424 1.327 . S
C2426 C2445 1.429 . S
C2426 H2450 0.950 . S
C2427 C2444 1.574 . S
C2427 C2446 1.368 . S
C2427 H2451 0.949 . S
H2428 C2432 0.949 . S
C2429 C2430 1.349 . S
C2429 C2431 1.327 . S
C2429 H2452 0.950 . S
C2430 C2429 1.349 . S
C2430 C2442 1.349 . S
C2431 C2429 1.327 . S
C2431 C2447 1.429 . S
C2431 H2453 0.950 . S
C2432 H2428 0.949 . S
C2432 C2440 1.574 . S
C2432 C2448 1.368 . S
H2433 C2441 0.950 . S
H2434 C2439 0.950 . S
H2435 C2440 0.949 . S
H2436 C2442 0.950 . S
H2437 C2443 0.950 . S
H2438 C2444 0.949 . S
C2439 H2434 0.950 . S
C2439 C2441 1.327 . S
C2439 C2445 1.429 . S
C2440 C2432 1.574 . S
C2440 H2435 0.949 . S
C2440 C2446 1.368 . S
C2441 C2425 1.349 . S
C2441 H2433 0.950 . S
C2441 C2439 1.327 . S
C2442 C2430 1.349 . S
C2442 H2436 0.950 . S
C2442 C2443 1.327 . S
C2443 H2437 0.950 . S
C2443 C2442 1.327 . S
C2443 C2447 1.429 . S
C2444 C2427 1.574 . S
C2444 H2438 0.949 . S
C2444 C2448 1.368 . S
C2445 C2426 1.429 . S
C2445 C2439 1.429 . S
C2445 C2446 1.523 . S
C2446 C2427 1.368 . S
C2446 C2440 1.368 . S
C2446 C2445 1.523 . S
C2447 C2431 1.429 . S
C2447 C2443 1.429 . S
C2447 C2448 1.523 . S
C2448 C2432 1.368 . S
C2448 C2444 1.368 . S
C2448 C2447 1.523 . S
H2449 C2424 0.950 . S
H2450 C2426 0.950 . S
H2451 C2427 0.949 . S
H2452 C2429 0.950 . S
H2453 C2431 0.950 . S
C2454 C2455 1.349 . S
C2454 C2456 1.327 . S
C2454 H2479 0.950 . S
C2455 C2454 1.349 . S
C2455 C2471 1.349 . S
C2456 C2454 1.327 . S
C2456 C2475 1.429 . S
C2456 H2480 0.950 . S
C2457 C2474 1.574 . S
C2457 C2476 1.368 . S
C2457 H2481 0.949 . S
H2458 C2462 0.949 . S
C2459 C2460 1.349 . S
C2459 C2461 1.327 . S
C2459 H2482 0.950 . S
C2460 C2459 1.349 . S
C2460 C2472 1.349 . S
C2461 C2459 1.327 . S
C2461 C2477 1.429 . S
C2461 H2483 0.950 . S
C2462 H2458 0.949 . S
C2462 C2470 1.574 . S
C2462 C2478 1.368 . S
H2463 C2471 0.950 . S
H2464 C2469 0.950 . S
H2465 C2470 0.949 . S
H2466 C2472 0.950 . S
H2467 C2473 0.950 . S
H2468 C2474 0.949 . S
C2469 H2464 0.950 . S
C2469 C2471 1.327 . S
C2469 C2475 1.429 . S
C2470 C2462 1.574 . S
C2470 H2465 0.949 . S
C2470 C2476 1.368 . S
C2471 C2455 1.349 . S
C2471 H2463 0.950 . S
C2471 C2469 1.327 . S
C2472 C2460 1.349 . S
C2472 H2466 0.950 . S
C2472 C2473 1.327 . S
C2473 H2467 0.950 . S
C2473 C2472 1.327 . S
C2473 C2477 1.429 . S
C2474 C2457 1.574 . S
C2474 H2468 0.949 . S
C2474 C2478 1.368 . S
C2475 C2456 1.429 . S
C2475 C2469 1.429 . S
C2475 C2476 1.523 . S
C2476 C2457 1.368 . S
C2476 C2470 1.368 . S
C2476 C2475 1.523 . S
C2477 C2461 1.429 . S
C2477 C2473 1.429 . S
C2477 C2478 1.523 . S
C2478 C2462 1.368 . S
C2478 C2474 1.368 . S
C2478 C2477 1.523 . S
H2479 C2454 0.950 . S
H2480 C2456 0.950 . S
H2481 C2457 0.949 . S
H2482 C2459 0.950 . S
H2483 C2461 0.950 . S
C2484 C2485 1.349 . S
C2484 C2486 1.327 . S
C2484 H2509 0.950 . S
C2485 C2484 1.349 . S
C2485 C2501 1.349 . S
C2486 C2484 1.327 . S
C2486 C2505 1.429 . S
C2486 H2510 0.950 . S
C2487 C2504 1.574 . S
C2487 C2506 1.368 . S
C2487 H2511 0.949 . S
H2488 C2492 0.949 . S
C2489 C2490 1.349 . S
C2489 C2491 1.327 . S
C2489 H2512 0.950 . S
C2490 C2489 1.349 . S
C2490 C2502 1.349 . S
C2491 C2489 1.327 . S
C2491 C2507 1.429 . S
C2491 H2513 0.950 . S
C2492 H2488 0.949 . S
C2492 C2500 1.574 . S
C2492 C2508 1.368 . S
H2493 C2501 0.950 . S
H2494 C2499 0.950 . S
H2495 C2500 0.949 . S
H2496 C2502 0.950 . S
H2497 C2503 0.950 . S
H2498 C2504 0.949 . S
C2499 H2494 0.950 . S
C2499 C2501 1.327 . S
C2499 C2505 1.429 . S
C2500 C2492 1.574 . S
C2500 H2495 0.949 . S
C2500 C2506 1.368 . S
C2501 C2485 1.349 . S
C2501 H2493 0.950 . S
C2501 C2499 1.327 . S
C2502 C2490 1.349 . S
C2502 H2496 0.950 . S
C2502 C2503 1.327 . S
C2503 H2497 0.950 . S
C2503 C2502 1.327 . S
C2503 C2507 1.429 . S
C2504 C2487 1.574 . S
C2504 H2498 0.949 . S
C2504 C2508 1.368 . S
C2505 C2486 1.429 . S
C2505 C2499 1.429 . S
C2505 C2506 1.523 . S
C2506 C2487 1.368 . S
C2506 C2500 1.368 . S
C2506 C2505 1.523 . S
C2507 C2491 1.429 . S
C2507 C2503 1.429 . S
C2507 C2508 1.523 . S
C2508 C2492 1.368 . S
C2508 C2504 1.368 . S
C2508 C2507 1.523 . S
H2509 C2484 0.950 . S
H2510 C2486 0.950 . S
H2511 C2487 0.949 . S
H2512 C2489 0.950 . S
H2513 C2491 0.950 . S
C2514 C2515 1.349 . S
C2514 C2516 1.327 . S
C2514 H2539 0.950 . S
C2515 C2514 1.349 . S
C2515 C2531 1.349 . S
C2516 C2514 1.327 . S
C2516 C2535 1.429 . S
C2516 H2540 0.950 . S
C2517 C2534 1.574 . S
C2517 C2536 1.368 . S
C2517 H2541 0.949 . S
H2518 C2522 0.949 . S
C2519 C2520 1.349 . S
C2519 C2521 1.327 . S
C2519 H2542 0.950 . S
C2520 C2519 1.349 . S
C2520 C2532 1.349 . S
C2521 C2519 1.327 . S
C2521 C2537 1.429 . S
C2521 H2543 0.950 . S
C2522 H2518 0.949 . S
C2522 C2530 1.574 . S
C2522 C2538 1.368 . S
H2523 C2531 0.950 . S
H2524 C2529 0.950 . S
H2525 C2530 0.949 . S
H2526 C2532 0.950 . S
H2527 C2533 0.950 . S
H2528 C2534 0.949 . S
C2529 H2524 0.950 . S
C2529 C2531 1.327 . S
C2529 C2535 1.429 . S
C2530 C2522 1.574 . S
C2530 H2525 0.949 . S
C2530 C2536 1.368 . S
C2531 C2515 1.349 . S
C2531 H2523 0.950 . S
C2531 C2529 1.327 . S
C2532 C2520 1.349 . S
C2532 H2526 0.950 . S
C2532 C2533 1.327 . S
C2533 H2527 0.950 . S
C2533 C2532 1.327 . S
C2533 C2537 1.429 . S
C2534 C2517 1.574 . S
C2534 H2528 0.949 . S
C2534 C2538 1.368 . S
C2535 C2516 1.429 . S
C2535 C2529 1.429 . S
C2535 C2536 1.523 . S
C2536 C2517 1.368 . S
C2536 C2530 1.368 . S
C2536 C2535 1.523 . S
C2537 C2521 1.429 . S
C2537 C2533 1.429 . S
C2537 C2538 1.523 . S
C2538 C2522 1.368 . S
C2538 C2534 1.368 . S
C2538 C2537 1.523 . S
H2539 C2514 0.950 . S
H2540 C2516 0.950 . S
H2541 C2517 0.949 . S
H2542 C2519 0.950 . S
H2543 C2521 0.950 . S
C2544 C2545 1.349 . S
C2544 C2546 1.327 . S
C2544 H2569 0.950 . S
C2545 C2544 1.349 . S
C2545 C2561 1.349 . S
C2546 C2544 1.327 . S
C2546 C2565 1.429 . S
C2546 H2570 0.950 . S
C2547 C2564 1.574 . S
C2547 C2566 1.368 . S
C2547 H2571 0.949 . S
H2548 C2552 0.949 . S
C2549 C2550 1.349 . S
C2549 C2551 1.327 . S
C2549 H2572 0.950 . S
C2550 C2549 1.349 . S
C2550 C2562 1.349 . S
C2551 C2549 1.327 . S
C2551 C2567 1.429 . S
C2551 H2573 0.950 . S
C2552 H2548 0.949 . S
C2552 C2560 1.574 . S
C2552 C2568 1.368 . S
H2553 C2561 0.950 . S
H2554 C2559 0.950 . S
H2555 C2560 0.949 . S
H2556 C2562 0.950 . S
H2557 C2563 0.950 . S
H2558 C2564 0.949 . S
C2559 H2554 0.950 . S
C2559 C2561 1.327 . S
C2559 C2565 1.429 . S
C2560 C2552 1.574 . S
C2560 H2555 0.949 . S
C2560 C2566 1.368 . S
C2561 C2545 1.349 . S
C2561 H2553 0.950 . S
C2561 C2559 1.327 . S
C2562 C2550 1.349 . S
C2562 H2556 0.950 . S
C2562 C2563 1.327 . S
C2563 H2557 0.950 . S
C2563 C2562 1.327 . S
C2563 C2567 1.429 . S
C2564 C2547 1.574 . S
C2564 H2558 0.949 . S
C2564 C2568 1.368 . S
C2565 C2546 1.429 . S
C2565 C2559 1.429 . S
C2565 C2566 1.523 . S
C2566 C2547 1.368 . S
C2566 C2560 1.368 . S
C2566 C2565 1.523 . S
C2567 C2551 1.429 . S
C2567 C2563 1.429 . S
C2567 C2568 1.523 . S
C2568 C2552 1.368 . S
C2568 C2564 1.368 . S
C2568 C2567 1.523 . S
H2569 C2544 0.950 . S
H2570 C2546 0.950 . S
H2571 C2547 0.949 . S
H2572 C2549 0.950 . S
H2573 C2551 0.950 . S
C2574 C2575 1.349 . S
C2574 C2576 1.327 . S
C2574 H2599 0.950 . S
C2575 C2574 1.349 . S
C2575 C2591 1.349 . S
C2576 C2574 1.327 . S
C2576 C2595 1.429 . S
C2576 H2600 0.950 . S
C2577 C2594 1.574 . S
C2577 C2596 1.368 . S
C2577 H2601 0.949 . S
H2578 C2582 0.949 . S
C2579 C2580 1.349 . S
C2579 C2581 1.327 . S
C2579 H2602 0.950 . S
C2580 C2579 1.349 . S
C2580 C2592 1.349 . S
C2581 C2579 1.327 . S
C2581 C2597 1.429 . S
C2581 H2603 0.950 . S
C2582 H2578 0.949 . S
C2582 C2590 1.574 . S
C2582 C2598 1.368 . S
H2583 C2591 0.950 . S
H2584 C2589 0.950 . S
H2585 C2590 0.949 . S
H2586 C2592 0.950 . S
H2587 C2593 0.950 . S
H2588 C2594 0.949 . S
C2589 H2584 0.950 . S
C2589 C2591 1.327 . S
C2589 C2595 1.429 . S
C2590 C2582 1.574 . S
C2590 H2585 0.949 . S
C2590 C2596 1.368 . S
C2591 C2575 1.349 . S
C2591 H2583 0.950 . S
C2591 C2589 1.327 . S
C2592 C2580 1.349 . S
C2592 H2586 0.950 . S
C2592 C2593 1.327 . S
C2593 H2587 0.950 . S
C2593 C2592 1.327 . S
C2593 C2597 1.429 . S
C2594 C2577 1.574 . S
C2594 H2588 0.949 . S
C2594 C2598 1.368 . S
C2595 C2576 1.429 . S
C2595 C2589 1.429 . S
C2595 C2596 1.523 . S
C2596 C2577 1.368 . S
C2596 C2590 1.368 . S
C2596 C2595 1.523 . S
C2597 C2581 1.429 . S
C2597 C2593 1.429 . S
C2597 C2598 1.523 . S
C2598 C2582 1.368 . S
C2598 C2594 1.368 . S
C2598 C2597 1.523 . S
H2599 C2574 0.950 . S
H2600 C2576 0.950 . S
H2601 C2577 0.949 . S
H2602 C2579 0.950 . S
H2603 C2581 0.950 . S
C2604 C2605 1.349 . S
C2604 C2606 1.327 . S
C2604 H2629 0.950 . S
C2605 C2604 1.349 . S
C2605 C2621 1.349 . S
C2606 C2604 1.327 . S
C2606 C2625 1.429 . S
C2606 H2630 0.950 . S
C2607 C2624 1.574 . S
C2607 C2626 1.368 . S
C2607 H2631 0.949 . S
H2608 C2612 0.949 . S
C2609 C2610 1.349 . S
C2609 C2611 1.327 . S
C2609 H2632 0.950 . S
C2610 C2609 1.349 . S
C2610 C2622 1.349 . S
C2611 C2609 1.327 . S
C2611 C2627 1.429 . S
C2611 H2633 0.950 . S
C2612 H2608 0.949 . S
C2612 C2620 1.574 . S
C2612 C2628 1.368 . S
H2613 C2621 0.950 . S
H2614 C2619 0.950 . S
H2615 C2620 0.949 . S
H2616 C2622 0.950 . S
H2617 C2623 0.950 . S
H2618 C2624 0.949 . S
C2619 H2614 0.950 . S
C2619 C2621 1.327 . S
C2619 C2625 1.429 . S
C2620 C2612 1.574 . S
C2620 H2615 0.949 . S
C2620 C2626 1.368 . S
C2621 C2605 1.349 . S
C2621 H2613 0.950 . S
C2621 C2619 1.327 . S
C2622 C2610 1.349 . S
C2622 H2616 0.950 . S
C2622 C2623 1.327 . S
C2623 H2617 0.950 . S
C2623 C2622 1.327 . S
C2623 C2627 1.429 . S
C2624 C2607 1.574 . S
C2624 H2618 0.949 . S
C2624 C2628 1.368 . S
C2625 C2606 1.429 . S
C2625 C2619 1.429 . S
C2625 C2626 1.523 . S
C2626 C2607 1.368 . S
C2626 C2620 1.368 . S
C2626 C2625 1.523 . S
C2627 C2611 1.429 . S
C2627 C2623 1.429 . S
C2627 C2628 1.523 . S
C2628 C2612 1.368 . S
C2628 C2624 1.368 . S
C2628 C2627 1.523 . S
H2629 C2604 0.950 . S
H2630 C2606 0.950 . S
H2631 C2607 0.949 . S
H2632 C2609 0.950 . S
H2633 C2611 0.950 . S
C2634 C2635 1.349 . S
C2634 C2636 1.327 . S
C2634 H2659 0.950 . S
C2635 C2634 1.349 . S
C2635 C2651 1.349 . S
C2636 C2634 1.327 . S
C2636 C2655 1.429 . S
C2636 H2660 0.950 . S
C2637 C2654 1.574 . S
C2637 C2656 1.368 . S
C2637 H2661 0.949 . S
H2638 C2642 0.949 . S
C2639 C2640 1.349 . S
C2639 C2641 1.327 . S
C2639 H2662 0.950 . S
C2640 C2639 1.349 . S
C2640 C2652 1.349 . S
C2641 C2639 1.327 . S
C2641 C2657 1.429 . S
C2641 H2663 0.950 . S
C2642 H2638 0.949 . S
C2642 C2650 1.574 . S
C2642 C2658 1.368 . S
H2643 C2651 0.950 . S
H2644 C2649 0.950 . S
H2645 C2650 0.949 . S
H2646 C2652 0.950 . S
H2647 C2653 0.950 . S
H2648 C2654 0.949 . S
C2649 H2644 0.950 . S
C2649 C2651 1.327 . S
C2649 C2655 1.429 . S
C2650 C2642 1.574 . S
C2650 H2645 0.949 . S
C2650 C2656 1.368 . S
C2651 C2635 1.349 . S
C2651 H2643 0.950 . S
C2651 C2649 1.327 . S
C2652 C2640 1.349 . S
C2652 H2646 0.950 . S
C2652 C2653 1.327 . S
C2653 H2647 0.950 . S
C2653 C2652 1.327 . S
C2653 C2657 1.429 . S
C2654 C2637 1.574 . S
C2654 H2648 0.949 . S
C2654 C2658 1.368 . S
C2655 C2636 1.429 . S
C2655 C2649 1.429 . S
C2655 C2656 1.523 . S
C2656 C2637 1.368 . S
C2656 C2650 1.368 . S
C2656 C2655 1.523 . S
C2657 C2641 1.429 . S
C2657 C2653 1.429 . S
C2657 C2658 1.523 . S
C2658 C2642 1.368 . S
C2658 C2654 1.368 . S
C2658 C2657 1.523 . S
H2659 C2634 0.950 . S
H2660 C2636 0.950 . S
H2661 C2637 0.949 . S
H2662 C2639 0.950 . S
H2663 C2641 0.950 . S
C2664 C2665 1.349 . S
C2664 C2666 1.327 . S
C2664 H2689 0.950 . S
C2665 C2664 1.349 . S
C2665 C2681 1.349 . S
C2666 C2664 1.327 . S
C2666 C2685 1.429 . S
C2666 H2690 0.950 . S
C2667 C2684 1.574 . S
C2667 C2686 1.368 . S
C2667 H2691 0.949 . S
H2668 C2672 0.949 . S
C2669 C2670 1.349 . S
C2669 C2671 1.327 . S
C2669 H2692 0.950 . S
C2670 C2669 1.349 . S
C2670 C2682 1.349 . S
C2671 C2669 1.327 . S
C2671 C2687 1.429 . S
C2671 H2693 0.950 . S
C2672 H2668 0.949 . S
C2672 C2680 1.574 . S
C2672 C2688 1.368 . S
H2673 C2681 0.950 . S
H2674 C2679 0.950 . S
H2675 C2680 0.949 . S
H2676 C2682 0.950 . S
H2677 C2683 0.950 . S
H2678 C2684 0.949 . S
C2679 H2674 0.950 . S
C2679 C2681 1.327 . S
C2679 C2685 1.429 . S
C2680 C2672 1.574 . S
C2680 H2675 0.949 . S
C2680 C2686 1.368 . S
C2681 C2665 1.349 . S
C2681 H2673 0.950 . S
C2681 C2679 1.327 . S
C2682 C2670 1.349 . S
C2682 H2676 0.950 . S
C2682 C2683 1.327 . S
C2683 H2677 0.950 . S
C2683 C2682 1.327 . S
C2683 C2687 1.429 . S
C2684 C2667 1.574 . S
C2684 H2678 0.949 . S
C2684 C2688 1.368 . S
C2685 C2666 1.429 . S
C2685 C2679 1.429 . S
C2685 C2686 1.523 . S
C2686 C2667 1.368 . S
C2686 C2680 1.368 . S
C2686 C2685 1.523 . S
C2687 C2671 1.429 . S
C2687 C2683 1.429 . S
C2687 C2688 1.523 . S
C2688 C2672 1.368 . S
C2688 C2684 1.368 . S
C2688 C2687 1.523 . S
H2689 C2664 0.950 . S
H2690 C2666 0.950 . S
H2691 C2667 0.949 . S
H2692 C2669 0.950 . S
H2693 C2671 0.950 . S
C2694 C2695 1.349 . S
C2694 C2696 1.327 . S
C2694 H2719 0.950 . S
C2695 C2694 1.349 . S
C2695 C2711 1.349 . S
C2696 C2694 1.327 . S
C2696 C2715 1.429 . S
C2696 H2720 0.950 . S
C2697 C2714 1.574 . S
C2697 C2716 1.368 . S
C2697 H2721 0.949 . S
H2698 C2702 0.949 . S
C2699 C2700 1.349 . S
C2699 C2701 1.327 . S
C2699 H2722 0.950 . S
C2700 C2699 1.349 . S
C2700 C2712 1.349 . S
C2701 C2699 1.327 . S
C2701 C2717 1.429 . S
C2701 H2723 0.950 . S
C2702 H2698 0.949 . S
C2702 C2710 1.574 . S
C2702 C2718 1.368 . S
H2703 C2711 0.950 . S
H2704 C2709 0.950 . S
H2705 C2710 0.949 . S
H2706 C2712 0.950 . S
H2707 C2713 0.950 . S
H2708 C2714 0.949 . S
C2709 H2704 0.950 . S
C2709 C2711 1.327 . S
C2709 C2715 1.429 . S
C2710 C2702 1.574 . S
C2710 H2705 0.949 . S
C2710 C2716 1.368 . S
C2711 C2695 1.349 . S
C2711 H2703 0.950 . S
C2711 C2709 1.327 . S
C2712 C2700 1.349 . S
C2712 H2706 0.950 . S
C2712 C2713 1.327 . S
C2713 H2707 0.950 . S
C2713 C2712 1.327 . S
C2713 C2717 1.429 . S
C2714 C2697 1.574 . S
C2714 H2708 0.949 . S
C2714 C2718 1.368 . S
C2715 C2696 1.429 . S
C2715 C2709 1.429 . S
C2715 C2716 1.523 . S
C2716 C2697 1.368 . S
C2716 C2710 1.368 . S
C2716 C2715 1.523 . S
C2717 C2701 1.429 . S
C2717 C2713 1.429 . S
C2717 C2718 1.523 . S
C2718 C2702 1.368 . S
C2718 C2714 1.368 . S
C2718 C2717 1.523 . S
H2719 C2694 0.950 . S
H2720 C2696 0.950 . S
H2721 C2697 0.949 . S
H2722 C2699 0.950 . S
H2723 C2701 0.950 . S
C2724 C2725 1.349 . S
C2724 C2726 1.327 . S
C2724 H2749 0.950 . S
C2725 C2724 1.349 . S
C2725 C2741 1.349 . S
C2726 C2724 1.327 . S
C2726 C2745 1.429 . S
C2726 H2750 0.950 . S
C2727 C2744 1.574 . S
C2727 C2746 1.368 . S
C2727 H2751 0.949 . S
H2728 C2732 0.949 . S
C2729 C2730 1.349 . S
C2729 C2731 1.327 . S
C2729 H2752 0.950 . S
C2730 C2729 1.349 . S
C2730 C2742 1.349 . S
C2731 C2729 1.327 . S
C2731 C2747 1.429 . S
C2731 H2753 0.950 . S
C2732 H2728 0.949 . S
C2732 C2740 1.574 . S
C2732 C2748 1.368 . S
H2733 C2741 0.950 . S
H2734 C2739 0.950 . S
H2735 C2740 0.949 . S
H2736 C2742 0.950 . S
H2737 C2743 0.950 . S
H2738 C2744 0.949 . S
C2739 H2734 0.950 . S
C2739 C2741 1.327 . S
C2739 C2745 1.429 . S
C2740 C2732 1.574 . S
C2740 H2735 0.949 . S
C2740 C2746 1.368 . S
C2741 C2725 1.349 . S
C2741 H2733 0.950 . S
C2741 C2739 1.327 . S
C2742 C2730 1.349 . S
C2742 H2736 0.950 . S
C2742 C2743 1.327 . S
C2743 H2737 0.950 . S
C2743 C2742 1.327 . S
C2743 C2747 1.429 . S
C2744 C2727 1.574 . S
C2744 H2738 0.949 . S
C2744 C2748 1.368 . S
C2745 C2726 1.429 . S
C2745 C2739 1.429 . S
C2745 C2746 1.523 . S
C2746 C2727 1.368 . S
C2746 C2740 1.368 . S
C2746 C2745 1.523 . S
C2747 C2731 1.429 . S
C2747 C2743 1.429 . S
C2747 C2748 1.523 . S
C2748 C2732 1.368 . S
C2748 C2744 1.368 . S
C2748 C2747 1.523 . S
H2749 C2724 0.950 . S
H2750 C2726 0.950 . S
H2751 C2727 0.949 . S
H2752 C2729 0.950 . S
H2753 C2731 0.950 . S
C2754 C2755 1.349 . S
C2754 C2756 1.327 . S
C2754 H2779 0.950 . S
C2755 C2754 1.349 . S
C2755 C2771 1.349 . S
C2756 C2754 1.327 . S
C2756 C2775 1.429 . S
C2756 H2780 0.950 . S
C2757 C2774 1.574 . S
C2757 C2776 1.368 . S
C2757 H2781 0.949 . S
H2758 C2762 0.949 . S
C2759 C2760 1.349 . S
C2759 C2761 1.327 . S
C2759 H2782 0.950 . S
C2760 C2759 1.349 . S
C2760 C2772 1.349 . S
C2761 C2759 1.327 . S
C2761 C2777 1.429 . S
C2761 H2783 0.950 . S
C2762 H2758 0.949 . S
C2762 C2770 1.574 . S
C2762 C2778 1.368 . S
H2763 C2771 0.950 . S
H2764 C2769 0.950 . S
H2765 C2770 0.949 . S
H2766 C2772 0.950 . S
H2767 C2773 0.950 . S
H2768 C2774 0.949 . S
C2769 H2764 0.950 . S
C2769 C2771 1.327 . S
C2769 C2775 1.429 . S
C2770 C2762 1.574 . S
C2770 H2765 0.949 . S
C2770 C2776 1.368 . S
C2771 C2755 1.349 . S
C2771 H2763 0.950 . S
C2771 C2769 1.327 . S
C2772 C2760 1.349 . S
C2772 H2766 0.950 . S
C2772 C2773 1.327 . S
C2773 H2767 0.950 . S
C2773 C2772 1.327 . S
C2773 C2777 1.429 . S
C2774 C2757 1.574 . S
C2774 H2768 0.949 . S
C2774 C2778 1.368 . S
C2775 C2756 1.429 . S
C2775 C2769 1.429 . S
C2775 C2776 1.523 . S
C2776 C2757 1.368 . S
C2776 C2770 1.368 . S
C2776 C2775 1.523 . S
C2777 C2761 1.429 . S
C2777 C2773 1.429 . S
C2777 C2778 1.523 . S
C2778 C2762 1.368 . S
C2778 C2774 1.368 . S
C2778 C2777 1.523 . S
H2779 C2754 0.950 . S
H2780 C2756 0.950 . S
H2781 C2757 0.949 . S
H2782 C2759 0.950 . S
H2783 C2761 0.950 . S
C2784 C2785 1.349 . S
C2784 C2786 1.327 . S
C2784 H2809 0.950 . S
C2785 C2784 1.349 . S
C2785 C2801 1.349 . S
C2786 C2784 1.327 . S
C2786 C2805 1.429 . S
C2786 H2810 0.950 . S
C2787 C2804 1.574 . S
C2787 C2806 1.368 . S
C2787 H2811 0.949 . S
H2788 C2792 0.949 . S
C2789 C2790 1.349 . S
C2789 C2791 1.327 . S
C2789 H2812 0.950 . S
C2790 C2789 1.349 . S
C2790 C2802 1.349 . S
C2791 C2789 1.327 . S
C2791 C2807 1.429 . S
C2791 H2813 0.950 . S
C2792 H2788 0.949 . S
C2792 C2800 1.574 . S
C2792 C2808 1.368 . S
H2793 C2801 0.950 . S
H2794 C2799 0.950 . S
H2795 C2800 0.949 . S
H2796 C2802 0.950 . S
H2797 C2803 0.950 . S
H2798 C2804 0.949 . S
C2799 H2794 0.950 . S
C2799 C2801 1.327 . S
C2799 C2805 1.429 . S
C2800 C2792 1.574 . S
C2800 H2795 0.949 . S
C2800 C2806 1.368 . S
C2801 C2785 1.349 . S
C2801 H2793 0.950 . S
C2801 C2799 1.327 . S
C2802 C2790 1.349 . S
C2802 H2796 0.950 . S
C2802 C2803 1.327 . S
C2803 H2797 0.950 . S
C2803 C2802 1.327 . S
C2803 C2807 1.429 . S
C2804 C2787 1.574 . S
C2804 H2798 0.949 . S
C2804 C2808 1.368 . S
C2805 C2786 1.429 . S
C2805 C2799 1.429 . S
C2805 C2806 1.523 . S
C2806 C2787 1.368 . S
C2806 C2800 1.368 . S
C2806 C2805 1.523 . S
C2807 C2791 1.429 . S
C2807 C2803 1.429 . S
C2807 C2808 1.523 . S
C2808 C2792 1.368 . S
C2808 C2804 1.368 . S
C2808 C2807 1.523 . S
H2809 C2784 0.950 . S
H2810 C2786 0.950 . S
H2811 C2787 0.949 . S
H2812 C2789 0.950 . S
H2813 C2791 0.950 . S
C2814 C2815 1.349 . S
C2814 C2816 1.327 . S
C2814 H2839 0.950 . S
C2815 C2814 1.349 . S
C2815 C2831 1.349 . S
C2816 C2814 1.327 . S
C2816 C2835 1.429 . S
C2816 H2840 0.950 . S
C2817 C2834 1.574 . S
C2817 C2836 1.368 . S
C2817 H2841 0.949 . S
H2818 C2822 0.949 . S
C2819 C2820 1.349 . S
C2819 C2821 1.327 . S
C2819 H2842 0.950 . S
C2820 C2819 1.349 . S
C2820 C2832 1.349 . S
C2821 C2819 1.327 . S
C2821 C2837 1.429 . S
C2821 H2843 0.950 . S
C2822 H2818 0.949 . S
C2822 C2830 1.574 . S
C2822 C2838 1.368 . S
H2823 C2831 0.950 . S
H2824 C2829 0.950 . S
H2825 C2830 0.949 . S
H2826 C2832 0.950 . S
H2827 C2833 0.950 . S
H2828 C2834 0.949 . S
C2829 H2824 0.950 . S
C2829 C2831 1.327 . S
C2829 C2835 1.429 . S
C2830 C2822 1.574 . S
C2830 H2825 0.949 . S
C2830 C2836 1.368 . S
C2831 C2815 1.349 . S
C2831 H2823 0.950 . S
C2831 C2829 1.327 . S
C2832 C2820 1.349 . S
C2832 H2826 0.950 . S
C2832 C2833 1.327 . S
C2833 H2827 0.950 . S
C2833 C2832 1.327 . S
C2833 C2837 1.429 . S
C2834 C2817 1.574 . S
C2834 H2828 0.949 . S
C2834 C2838 1.368 . S
C2835 C2816 1.429 . S
C2835 C2829 1.429 . S
C2835 C2836 1.523 . S
C2836 C2817 1.368 . S
C2836 C2830 1.368 . S
C2836 C2835 1.523 . S
C2837 C2821 1.429 . S
C2837 C2833 1.429 . S
C2837 C2838 1.523 . S
C2838 C2822 1.368 . S
C2838 C2834 1.368 . S
C2838 C2837 1.523 . S
H2839 C2814 0.950 . S
H2840 C2816 0.950 . S
H2841 C2817 0.949 . S
H2842 C2819 0.950 . S
H2843 C2821 0.950 . S
C2844 C2845 1.349 . S
C2844 C2846 1.327 . S
C2844 H2869 0.950 . S
C2845 C2844 1.349 . S
C2845 C2861 1.349 . S
C2846 C2844 1.327 . S
C2846 C2865 1.429 . S
C2846 H2870 0.950 . S
C2847 C2864 1.574 . S
C2847 C2866 1.368 . S
C2847 H2871 0.949 . S
H2848 C2852 0.949 . S
C2849 C2850 1.349 . S
C2849 C2851 1.327 . S
C2849 H2872 0.950 . S
C2850 C2849 1.349 . S
C2850 C2862 1.349 . S
C2851 C2849 1.327 . S
C2851 C2867 1.429 . S
C2851 H2873 0.950 . S
C2852 H2848 0.949 . S
C2852 C2860 1.574 . S
C2852 C2868 1.368 . S
H2853 C2861 0.950 . S
H2854 C2859 0.950 . S
H2855 C2860 0.949 . S
H2856 C2862 0.950 . S
H2857 C2863 0.950 . S
H2858 C2864 0.949 . S
C2859 H2854 0.950 . S
C2859 C2861 1.327 . S
C2859 C2865 1.429 . S
C2860 C2852 1.574 . S
C2860 H2855 0.949 . S
C2860 C2866 1.368 . S
C2861 C2845 1.349 . S
C2861 H2853 0.950 . S
C2861 C2859 1.327 . S
C2862 C2850 1.349 . S
C2862 H2856 0.950 . S
C2862 C2863 1.327 . S
C2863 H2857 0.950 . S
C2863 C2862 1.327 . S
C2863 C2867 1.429 . S
C2864 C2847 1.574 . S
C2864 H2858 0.949 . S
C2864 C2868 1.368 . S
C2865 C2846 1.429 . S
C2865 C2859 1.429 . S
C2865 C2866 1.523 . S
C2866 C2847 1.368 . S
C2866 C2860 1.368 . S
C2866 C2865 1.523 . S
C2867 C2851 1.429 . S
C2867 C2863 1.429 . S
C2867 C2868 1.523 . S
C2868 C2852 1.368 . S
C2868 C2864 1.368 . S
C2868 C2867 1.523 . S
H2869 C2844 0.950 . S
H2870 C2846 0.950 . S
H2871 C2847 0.949 . S
H2872 C2849 0.950 . S
H2873 C2851 0.950 . S
C2874 C2875 1.349 . S
C2874 C2876 1.327 . S
C2874 H2899 0.950 . S
C2875 C2874 1.349 . S
C2875 C2891 1.349 . S
C2876 C2874 1.327 . S
C2876 C2895 1.429 . S
C2876 H2900 0.950 . S
C2877 C2894 1.574 . S
C2877 C2896 1.368 . S
C2877 H2901 0.949 . S
H2878 C2882 0.949 . S
C2879 C2880 1.349 . S
C2879 C2881 1.327 . S
C2879 H2902 0.950 . S
C2880 C2879 1.349 . S
C2880 C2892 1.349 . S
C2881 C2879 1.327 . S
C2881 C2897 1.429 . S
C2881 H2903 0.950 . S
C2882 H2878 0.949 . S
C2882 C2890 1.574 . S
C2882 C2898 1.368 . S
H2883 C2891 0.950 . S
H2884 C2889 0.950 . S
H2885 C2890 0.949 . S
H2886 C2892 0.950 . S
H2887 C2893 0.950 . S
H2888 C2894 0.949 . S
C2889 H2884 0.950 . S
C2889 C2891 1.327 . S
C2889 C2895 1.429 . S
C2890 C2882 1.574 . S
C2890 H2885 0.949 . S
C2890 C2896 1.368 . S
C2891 C2875 1.349 . S
C2891 H2883 0.950 . S
C2891 C2889 1.327 . S
C2892 C2880 1.349 . S
C2892 H2886 0.950 . S
C2892 C2893 1.327 . S
C2893 H2887 0.950 . S
C2893 C2892 1.327 . S
C2893 C2897 1.429 . S
C2894 C2877 1.574 . S
C2894 H2888 0.949 . S
C2894 C2898 1.368 . S
C2895 C2876 1.429 . S
C2895 C2889 1.429 . S
C2895 C2896 1.523 . S
C2896 C2877 1.368 . S
C2896 C2890 1.368 . S
C2896 C2895 1.523 . S
C2897 C2881 1.429 . S
C2897 C2893 1.429 . S
C2897 C2898 1.523 . S
C2898 C2882 1.368 . S
C2898 C2894 1.368 . S
C2898 C2897 1.523 . S
H2899 C2874 0.950 . S
H2900 C2876 0.950 . S
H2901 C2877 0.949 . S
H2902 C2879 0.950 . S
H2903 C2881 0.950 . S
C2904 C2905 1.349 . S
C2904 C2906 1.327 . S
C2904 H2929 0.950 . S
C2905 C2904 1.349 . S
C2905 C2921 1.349 . S
C2906 C2904 1.327 . S
C2906 C2925 1.429 . S
C2906 H2930 0.950 . S
C2907 C2924 1.574 . S
C2907 C2926 1.368 . S
C2907 H2931 0.949 . S
H2908 C2912 0.949 . S
C2909 C2910 1.349 . S
C2909 C2911 1.327 . S
C2909 H2932 0.950 . S
C2910 C2909 1.349 . S
C2910 C2922 1.349 . S
C2911 C2909 1.327 . S
C2911 C2927 1.429 . S
C2911 H2933 0.950 . S
C2912 H2908 0.949 . S
C2912 C2920 1.574 . S
C2912 C2928 1.368 . S
H2913 C2921 0.950 . S
H2914 C2919 0.950 . S
H2915 C2920 0.949 . S
H2916 C2922 0.950 . S
H2917 C2923 0.950 . S
H2918 C2924 0.949 . S
C2919 H2914 0.950 . S
C2919 C2921 1.327 . S
C2919 C2925 1.429 . S
C2920 C2912 1.574 . S
C2920 H2915 0.949 . S
C2920 C2926 1.368 . S
C2921 C2905 1.349 . S
C2921 H2913 0.950 . S
C2921 C2919 1.327 . S
C2922 C2910 1.349 . S
C2922 H2916 0.950 . S
C2922 C2923 1.327 . S
C2923 H2917 0.950 . S
C2923 C2922 1.327 . S
C2923 C2927 1.429 . S
C2924 C2907 1.574 . S
C2924 H2918 0.949 . S
C2924 C2928 1.368 . S
C2925 C2906 1.429 . S
C2925 C2919 1.429 . S
C2925 C2926 1.523 . S
C2926 C2907 1.368 . S
C2926 C2920 1.368 . S
C2926 C2925 1.523 . S
C2927 C2911 1.429 . S
C2927 C2923 1.429 . S
C2927 C2928 1.523 . S
C2928 C2912 1.368 . S
C2928 C2924 1.368 . S
C2928 C2927 1.523 . S
H2929 C2904 0.950 . S
H2930 C2906 0.950 . S
H2931 C2907 0.949 . S
H2932 C2909 0.950 . S
H2933 C2911 0.950 . S
C2934 C2935 1.349 . S
C2934 C2936 1.327 . S
C2934 H2959 0.950 . S
C2935 C2934 1.349 . S
C2935 C2951 1.349 . S
C2936 C2934 1.327 . S
C2936 C2955 1.429 . S
C2936 H2960 0.950 . S
C2937 C2954 1.574 . S
C2937 C2956 1.368 . S
C2937 H2961 0.949 . S
H2938 C2942 0.949 . S
C2939 C2940 1.349 . S
C2939 C2941 1.327 . S
C2939 H2962 0.950 . S
C2940 C2939 1.349 . S
C2940 C2952 1.349 . S
C2941 C2939 1.327 . S
C2941 C2957 1.429 . S
C2941 H2963 0.950 . S
C2942 H2938 0.949 . S
C2942 C2950 1.574 . S
C2942 C2958 1.368 . S
H2943 C2951 0.950 . S
H2944 C2949 0.950 . S
H2945 C2950 0.949 . S
H2946 C2952 0.950 . S
H2947 C2953 0.950 . S
H2948 C2954 0.949 . S
C2949 H2944 0.950 . S
C2949 C2951 1.327 . S
C2949 C2955 1.429 . S
C2950 C2942 1.574 . S
C2950 H2945 0.949 . S
C2950 C2956 1.368 . S
C2951 C2935 1.349 . S
C2951 H2943 0.950 . S
C2951 C2949 1.327 . S
C2952 C2940 1.349 . S
C2952 H2946 0.950 . S
C2952 C2953 1.327 . S
C2953 H2947 0.950 . S
C2953 C2952 1.327 . S
C2953 C2957 1.429 . S
C2954 C2937 1.574 . S
C2954 H2948 0.949 . S
C2954 C2958 1.368 . S
C2955 C2936 1.429 . S
C2955 C2949 1.429 . S
C2955 C2956 1.523 . S
C2956 C2937 1.368 . S
C2956 C2950 1.368 . S
C2956 C2955 1.523 . S
C2957 C2941 1.429 . S
C2957 C2953 1.429 . S
C2957 C2958 1.523 . S
C2958 C2942 1.368 . S
C2958 C2954 1.368 . S
C2958 C2957 1.523 . S
H2959 C2934 0.950 . S
H2960 C2936 0.950 . S
H2961 C2937 0.949 . S
H2962 C2939 0.950 . S
H2963 C2941 0.950 . S
C2964 C2965 1.349 . S
C2964 C2966 1.327 . S
C2964 H2989 0.950 . S
C2965 C2964 1.349 . S
C2965 C2981 1.349 . S
C2966 C2964 1.327 . S
C2966 C2985 1.429 . S
C2966 H2990 0.950 . S
C2967 C2984 1.574 . S
C2967 C2986 1.368 . S
C2967 H2991 0.949 . S
H2968 C2972 0.949 . S
C2969 C2970 1.349 . S
C2969 C2971 1.327 . S
C2969 H2992 0.950 . S
C2970 C2969 1.349 . S
C2970 C2982 1.349 . S
C2971 C2969 1.327 . S
C2971 C2987 1.429 . S
C2971 H2993 0.950 . S
C2972 H2968 0.949 . S
C2972 C2980 1.574 . S
C2972 C2988 1.368 . S
H2973 C2981 0.950 . S
H2974 C2979 0.950 . S
H2975 C2980 0.949 . S
H2976 C2982 0.950 . S
H2977 C2983 0.950 . S
H2978 C2984 0.949 . S
C2979 H2974 0.950 . S
C2979 C2981 1.327 . S
C2979 C2985 1.429 . S
C2980 C2972 1.574 . S
C2980 H2975 0.949 . S
C2980 C2986 1.368 . S
C2981 C2965 1.349 . S
C2981 H2973 0.950 . S
C2981 C2979 1.327 . S
C2982 C2970 1.349 . S
C2982 H2976 0.950 . S
C2982 C2983 1.327 . S
C2983 H2977 0.950 . S
C2983 C2982 1.327 . S
C2983 C2987 1.429 . S
C2984 C2967 1.574 . S
C2984 H2978 0.949 . S
C2984 C2988 1.368 . S
C2985 C2966 1.429 . S
C2985 C2979 1.429 . S
C2985 C2986 1.523 . S
C2986 C2967 1.368 . S
C2986 C2980 1.368 . S
C2986 C2985 1.523 . S
C2987 C2971 1.429 . S
C2987 C2983 1.429 . S
C2987 C2988 1.523 . S
C2988 C2972 1.368 . S
C2988 C2984 1.368 . S
C2988 C2987 1.523 . S
H2989 C2964 0.950 . S
H2990 C2966 0.950 . S
H2991 C2967 0.949 . S
H2992 C2969 0.950 . S
H2993 C2971 0.950 . S
C2994 C2995 1.349 . S
C2994 C2996 1.327 . S
C2994 H3019 0.950 . S
C2995 C2994 1.349 . S
C2995 C3011 1.349 . S
C2996 C2994 1.327 . S
C2996 C3015 1.429 . S
C2996 H3020 0.950 . S
C2997 C3014 1.574 . S
C2997 C3016 1.368 . S
C2997 H3021 0.949 . S
H2998 C3002 0.949 . S
C2999 C3000 1.349 . S
C2999 C3001 1.327 . S
C2999 H3022 0.950 . S
C3000 C2999 1.349 . S
C3000 C3012 1.349 . S
C3001 C2999 1.327 . S
C3001 C3017 1.429 . S
C3001 H3023 0.950 . S
C3002 H2998 0.949 . S
C3002 C3010 1.574 . S
C3002 C3018 1.368 . S
H3003 C3011 0.950 . S
H3004 C3009 0.950 . S
H3005 C3010 0.949 . S
H3006 C3012 0.950 . S
H3007 C3013 0.950 . S
H3008 C3014 0.949 . S
C3009 H3004 0.950 . S
C3009 C3011 1.327 . S
C3009 C3015 1.429 . S
C3010 C3002 1.574 . S
C3010 H3005 0.949 . S
C3010 C3016 1.368 . S
C3011 C2995 1.349 . S
C3011 H3003 0.950 . S
C3011 C3009 1.327 . S
C3012 C3000 1.349 . S
C3012 H3006 0.950 . S
C3012 C3013 1.327 . S
C3013 H3007 0.950 . S
C3013 C3012 1.327 . S
C3013 C3017 1.429 . S
C3014 C2997 1.574 . S
C3014 H3008 0.949 . S
C3014 C3018 1.368 . S
C3015 C2996 1.429 . S
C3015 C3009 1.429 . S
C3015 C3016 1.523 . S
C3016 C2997 1.368 . S
C3016 C3010 1.368 . S
C3016 C3015 1.523 . S
C3017 C3001 1.429 . S
C3017 C3013 1.429 . S
C3017 C3018 1.523 . S
C3018 C3002 1.368 . S
C3018 C3014 1.368 . S
C3018 C3017 1.523 . S
H3019 C2994 0.950 . S
H3020 C2996 0.950 . S
H3021 C2997 0.949 . S
H3022 C2999 0.950 . S
H3023 C3001 0.950 . S
C3024 C3025 1.349 . S
C3024 C3026 1.327 . S
C3024 H3049 0.950 . S
C3025 C3024 1.349 . S
C3025 C3041 1.349 . S
C3026 C3024 1.327 . S
C3026 C3045 1.429 . S
C3026 H3050 0.950 . S
C3027 C3044 1.574 . S
C3027 C3046 1.368 . S
C3027 H3051 0.949 . S
H3028 C3032 0.949 . S
C3029 C3030 1.349 . S
C3029 C3031 1.327 . S
C3029 H3052 0.950 . S
C3030 C3029 1.349 . S
C3030 C3042 1.349 . S
C3031 C3029 1.327 . S
C3031 C3047 1.429 . S
C3031 H3053 0.950 . S
C3032 H3028 0.949 . S
C3032 C3040 1.574 . S
C3032 C3048 1.368 . S
H3033 C3041 0.950 . S
H3034 C3039 0.950 . S
H3035 C3040 0.949 . S
H3036 C3042 0.950 . S
H3037 C3043 0.950 . S
H3038 C3044 0.949 . S
C3039 H3034 0.950 . S
C3039 C3041 1.327 . S
C3039 C3045 1.429 . S
C3040 C3032 1.574 . S
C3040 H3035 0.949 . S
C3040 C3046 1.368 . S
C3041 C3025 1.349 . S
C3041 H3033 0.950 . S
C3041 C3039 1.327 . S
C3042 C3030 1.349 . S
C3042 H3036 0.950 . S
C3042 C3043 1.327 . S
C3043 H3037 0.950 . S
C3043 C3042 1.327 . S
C3043 C3047 1.429 . S
C3044 C3027 1.574 . S
C3044 H3038 0.949 . S
C3044 C3048 1.368 . S
C3045 C3026 1.429 . S
C3045 C3039 1.429 . S
C3045 C3046 1.523 . S
C3046 C3027 1.368 . S
C3046 C3040 1.368 . S
C3046 C3045 1.523 . S
C3047 C3031 1.429 . S
C3047 C3043 1.429 . S
C3047 C3048 1.523 . S
C3048 C3032 1.368 . S
C3048 C3044 1.368 . S
C3048 C3047 1.523 . S
H3049 C3024 0.950 . S
H3050 C3026 0.950 . S
H3051 C3027 0.949 . S
H3052 C3029 0.950 . S
H3053 C3031 0.950 . S
C3054 C3055 1.349 . S
C3054 C3056 1.327 . S
C3054 H3079 0.950 . S
C3055 C3054 1.349 . S
C3055 C3071 1.349 . S
C3056 C3054 1.327 . S
C3056 C3075 1.429 . S
C3056 H3080 0.950 . S
C3057 C3074 1.574 . S
C3057 C3076 1.368 . S
C3057 H3081 0.949 . S
H3058 C3062 0.949 . S
C3059 C3060 1.349 . S
C3059 C3061 1.327 . S
C3059 H3082 0.950 . S
C3060 C3059 1.349 . S
C3060 C3072 1.349 . S
C3061 C3059 1.327 . S
C3061 C3077 1.429 . S
C3061 H3083 0.950 . S
C3062 H3058 0.949 . S
C3062 C3070 1.574 . S
C3062 C3078 1.368 . S
H3063 C3071 0.950 . S
H3064 C3069 0.950 . S
H3065 C3070 0.949 . S
H3066 C3072 0.950 . S
H3067 C3073 0.950 . S
H3068 C3074 0.949 . S
C3069 H3064 0.950 . S
C3069 C3071 1.327 . S
C3069 C3075 1.429 . S
C3070 C3062 1.574 . S
C3070 H3065 0.949 . S
C3070 C3076 1.368 . S
C3071 C3055 1.349 . S
C3071 H3063 0.950 . S
C3071 C3069 1.327 . S
C3072 C3060 1.349 . S
C3072 H3066 0.950 . S
C3072 C3073 1.327 . S
C3073 H3067 0.950 . S
C3073 C3072 1.327 . S
C3073 C3077 1.429 . S
C3074 C3057 1.574 . S
C3074 H3068 0.949 . S
C3074 C3078 1.368 . S
C3075 C3056 1.429 . S
C3075 C3069 1.429 . S
C3075 C3076 1.523 . S
C3076 C3057 1.368 . S
C3076 C3070 1.368 . S
C3076 C3075 1.523 . S
C3077 C3061 1.429 . S
C3077 C3073 1.429 . S
C3077 C3078 1.523 . S
C3078 C3062 1.368 . S
C3078 C3074 1.368 . S
C3078 C3077 1.523 . S
H3079 C3054 0.950 . S
H3080 C3056 0.950 . S
H3081 C3057 0.949 . S
H3082 C3059 0.950 . S
H3083 C3061 0.950 . S
C3084 C3085 1.349 . S
C3084 C3086 1.327 . S
C3084 H3109 0.950 . S
C3085 C3084 1.349 . S
C3085 C3101 1.349 . S
C3086 C3084 1.327 . S
C3086 C3105 1.429 . S
C3086 H3110 0.950 . S
C3087 C3104 1.574 . S
C3087 C3106 1.368 . S
C3087 H3111 0.949 . S
H3088 C3092 0.949 . S
C3089 C3090 1.349 . S
C3089 C3091 1.327 . S
C3089 H3112 0.950 . S
C3090 C3089 1.349 . S
C3090 C3102 1.349 . S
C3091 C3089 1.327 . S
C3091 C3107 1.429 . S
C3091 H3113 0.950 . S
C3092 H3088 0.949 . S
C3092 C3100 1.574 . S
C3092 C3108 1.368 . S
H3093 C3101 0.950 . S
H3094 C3099 0.950 . S
H3095 C3100 0.949 . S
H3096 C3102 0.950 . S
H3097 C3103 0.950 . S
H3098 C3104 0.949 . S
C3099 H3094 0.950 . S
C3099 C3101 1.327 . S
C3099 C3105 1.429 . S
C3100 C3092 1.574 . S
C3100 H3095 0.949 . S
C3100 C3106 1.368 . S
C3101 C3085 1.349 . S
C3101 H3093 0.950 . S
C3101 C3099 1.327 . S
C3102 C3090 1.349 . S
C3102 H3096 0.950 . S
C3102 C3103 1.327 . S
C3103 H3097 0.950 . S
C3103 C3102 1.327 . S
C3103 C3107 1.429 . S
C3104 C3087 1.574 . S
C3104 H3098 0.949 . S
C3104 C3108 1.368 . S
C3105 C3086 1.429 . S
C3105 C3099 1.429 . S
C3105 C3106 1.523 . S
C3106 C3087 1.368 . S
C3106 C3100 1.368 . S
C3106 C3105 1.523 . S
C3107 C3091 1.429 . S
C3107 C3103 1.429 . S
C3107 C3108 1.523 . S
C3108 C3092 1.368 . S
C3108 C3104 1.368 . S
C3108 C3107 1.523 . S
H3109 C3084 0.950 . S
H3110 C3086 0.950 . S
H3111 C3087 0.949 . S
H3112 C3089 0.950 . S
H3113 C3091 0.950 . S
C3114 C3115 1.349 . S
C3114 C3116 1.327 . S
C3114 H3139 0.950 . S
C3115 C3114 1.349 . S
C3115 C3131 1.349 . S
C3116 C3114 1.327 . S
C3116 C3135 1.429 . S
C3116 H3140 0.950 . S
C3117 C3134 1.574 . S
C3117 C3136 1.368 . S
C3117 H3141 0.949 . S
H3118 C3122 0.949 . S
C3119 C3120 1.349 . S
C3119 C3121 1.327 . S
C3119 H3142 0.950 . S
C3120 C3119 1.349 . S
C3120 C3132 1.349 . S
C3121 C3119 1.327 . S
C3121 C3137 1.429 . S
C3121 H3143 0.950 . S
C3122 H3118 0.949 . S
C3122 C3130 1.574 . S
C3122 C3138 1.368 . S
H3123 C3131 0.950 . S
H3124 C3129 0.950 . S
H3125 C3130 0.949 . S
H3126 C3132 0.950 . S
H3127 C3133 0.950 . S
H3128 C3134 0.949 . S
C3129 H3124 0.950 . S
C3129 C3131 1.327 . S
C3129 C3135 1.429 . S
C3130 C3122 1.574 . S
C3130 H3125 0.949 . S
C3130 C3136 1.368 . S
C3131 C3115 1.349 . S
C3131 H3123 0.950 . S
C3131 C3129 1.327 . S
C3132 C3120 1.349 . S
C3132 H3126 0.950 . S
C3132 C3133 1.327 . S
C3133 H3127 0.950 . S
C3133 C3132 1.327 . S
C3133 C3137 1.429 . S
C3134 C3117 1.574 . S
C3134 H3128 0.949 . S
C3134 C3138 1.368 . S
C3135 C3116 1.429 . S
C3135 C3129 1.429 . S
C3135 C3136 1.523 . S
C3136 C3117 1.368 . S
C3136 C3130 1.368 . S
C3136 C3135 1.523 . S
C3137 C3121 1.429 . S
C3137 C3133 1.429 . S
C3137 C3138 1.523 . S
C3138 C3122 1.368 . S
C3138 C3134 1.368 . S
C3138 C3137 1.523 . S
H3139 C3114 0.950 . S
H3140 C3116 0.950 . S
H3141 C3117 0.949 . S
H3142 C3119 0.950 . S
H3143 C3121 0.950 . S
C3144 C3145 1.349 . S
C3144 C3146 1.327 . S
C3144 H3169 0.950 . S
C3145 C3144 1.349 . S
C3145 C3161 1.349 . S
C3146 C3144 1.327 . S
C3146 C3165 1.429 . S
C3146 H3170 0.950 . S
C3147 C3164 1.574 . S
C3147 C3166 1.368 . S
C3147 H3171 0.949 . S
H3148 C3152 0.949 . S
C3149 C3150 1.349 . S
C3149 C3151 1.327 . S
C3149 H3172 0.950 . S
C3150 C3149 1.349 . S
C3150 C3162 1.349 . S
C3151 C3149 1.327 . S
C3151 C3167 1.429 . S
C3151 H3173 0.950 . S
C3152 H3148 0.949 . S
C3152 C3160 1.574 . S
C3152 C3168 1.368 . S
H3153 C3161 0.950 . S
H3154 C3159 0.950 . S
H3155 C3160 0.949 . S
H3156 C3162 0.950 . S
H3157 C3163 0.950 . S
H3158 C3164 0.949 . S
C3159 H3154 0.950 . S
C3159 C3161 1.327 . S
C3159 C3165 1.429 . S
C3160 C3152 1.574 . S
C3160 H3155 0.949 . S
C3160 C3166 1.368 . S
C3161 C3145 1.349 . S
C3161 H3153 0.950 . S
C3161 C3159 1.327 . S
C3162 C3150 1.349 . S
C3162 H3156 0.950 . S
C3162 C3163 1.327 . S
C3163 H3157 0.950 . S
C3163 C3162 1.327 . S
C3163 C3167 1.429 . S
C3164 C3147 1.574 . S
C3164 H3158 0.949 . S
C3164 C3168 1.368 . S
C3165 C3146 1.429 . S
C3165 C3159 1.429 . S
C3165 C3166 1.523 . S
C3166 C3147 1.368 . S
C3166 C3160 1.368 . S
C3166 C3165 1.523 . S
C3167 C3151 1.429 . S
C3167 C3163 1.429 . S
C3167 C3168 1.523 . S
C3168 C3152 1.368 . S
C3168 C3164 1.368 . S
C3168 C3167 1.523 . S
H3169 C3144 0.950 . S
H3170 C3146 0.950 . S
H3171 C3147 0.949 . S
H3172 C3149 0.950 . S
H3173 C3151 0.950 . S
C3174 C3175 1.349 . S
C3174 C3176 1.327 . S
C3174 H3199 0.950 . S
C3175 C3174 1.349 . S
C3175 C3191 1.349 . S
C3176 C3174 1.327 . S
C3176 C3195 1.429 . S
C3176 H3200 0.950 . S
C3177 C3194 1.574 . S
C3177 C3196 1.368 . S
C3177 H3201 0.949 . S
H3178 C3182 0.949 . S
C3179 C3180 1.349 . S
C3179 C3181 1.327 . S
C3179 H3202 0.950 . S
C3180 C3179 1.349 . S
C3180 C3192 1.349 . S
C3181 C3179 1.327 . S
C3181 C3197 1.429 . S
C3181 H3203 0.950 . S
C3182 H3178 0.949 . S
C3182 C3190 1.574 . S
C3182 C3198 1.368 . S
H3183 C3191 0.950 . S
H3184 C3189 0.950 . S
H3185 C3190 0.949 . S
H3186 C3192 0.950 . S
H3187 C3193 0.950 . S
H3188 C3194 0.949 . S
C3189 H3184 0.950 . S
C3189 C3191 1.327 . S
C3189 C3195 1.429 . S
C3190 C3182 1.574 . S
C3190 H3185 0.949 . S
C3190 C3196 1.368 . S
C3191 C3175 1.349 . S
C3191 H3183 0.950 . S
C3191 C3189 1.327 . S
C3192 C3180 1.349 . S
C3192 H3186 0.950 . S
C3192 C3193 1.327 . S
C3193 H3187 0.950 . S
C3193 C3192 1.327 . S
C3193 C3197 1.429 . S
C3194 C3177 1.574 . S
C3194 H3188 0.949 . S
C3194 C3198 1.368 . S
C3195 C3176 1.429 . S
C3195 C3189 1.429 . S
C3195 C3196 1.523 . S
C3196 C3177 1.368 . S
C3196 C3190 1.368 . S
C3196 C3195 1.523 . S
C3197 C3181 1.429 . S
C3197 C3193 1.429 . S
C3197 C3198 1.523 . S
C3198 C3182 1.368 . S
C3198 C3194 1.368 . S
C3198 C3197 1.523 . S
H3199 C3174 0.950 . S
H3200 C3176 0.950 . S
H3201 C3177 0.949 . S
H3202 C3179 0.950 . S
H3203 C3181 0.950 . S
C3204 C3205 1.349 . S
C3204 C3206 1.327 . S
C3204 H3229 0.950 . S
C3205 C3204 1.349 . S
C3205 C3221 1.349 . S
C3206 C3204 1.327 . S
C3206 C3225 1.429 . S
C3206 H3230 0.950 . S
C3207 C3224 1.574 . S
C3207 C3226 1.368 . S
C3207 H3231 0.949 . S
H3208 C3212 0.949 . S
C3209 C3210 1.349 . S
C3209 C3211 1.327 . S
C3209 H3232 0.950 . S
C3210 C3209 1.349 . S
C3210 C3222 1.349 . S
C3211 C3209 1.327 . S
C3211 C3227 1.429 . S
C3211 H3233 0.950 . S
C3212 H3208 0.949 . S
C3212 C3220 1.574 . S
C3212 C3228 1.368 . S
H3213 C3221 0.950 . S
H3214 C3219 0.950 . S
H3215 C3220 0.949 . S
H3216 C3222 0.950 . S
H3217 C3223 0.950 . S
H3218 C3224 0.949 . S
C3219 H3214 0.950 . S
C3219 C3221 1.327 . S
C3219 C3225 1.429 . S
C3220 C3212 1.574 . S
C3220 H3215 0.949 . S
C3220 C3226 1.368 . S
C3221 C3205 1.349 . S
C3221 H3213 0.950 . S
C3221 C3219 1.327 . S
C3222 C3210 1.349 . S
C3222 H3216 0.950 . S
C3222 C3223 1.327 . S
C3223 H3217 0.950 . S
C3223 C3222 1.327 . S
C3223 C3227 1.429 . S
C3224 C3207 1.574 . S
C3224 H3218 0.949 . S
C3224 C3228 1.368 . S
C3225 C3206 1.429 . S
C3225 C3219 1.429 . S
C3225 C3226 1.523 . S
C3226 C3207 1.368 . S
C3226 C3220 1.368 . S
C3226 C3225 1.523 . S
C3227 C3211 1.429 . S
C3227 C3223 1.429 . S
C3227 C3228 1.523 . S
C3228 C3212 1.368 . S
C3228 C3224 1.368 . S
C3228 C3227 1.523 . S
H3229 C3204 0.950 . S
H3230 C3206 0.950 . S
H3231 C3207 0.949 . S
H3232 C3209 0.950 . S
H3233 C3211 0.950 . S
C3234 C3235 1.349 . S
C3234 C3236 1.327 . S
C3234 H3259 0.950 . S
C3235 C3234 1.349 . S
C3235 C3251 1.349 . S
C3236 C3234 1.327 . S
C3236 C3255 1.429 . S
C3236 H3260 0.950 . S
C3237 C3254 1.574 . S
C3237 C3256 1.368 . S
C3237 H3261 0.949 . S
H3238 C3242 0.949 . S
C3239 C3240 1.349 . S
C3239 C3241 1.327 . S
C3239 H3262 0.950 . S
C3240 C3239 1.349 . S
C3240 C3252 1.349 . S
C3241 C3239 1.327 . S
C3241 C3257 1.429 . S
C3241 H3263 0.950 . S
C3242 H3238 0.949 . S
C3242 C3250 1.574 . S
C3242 C3258 1.368 . S
H3243 C3251 0.950 . S
H3244 C3249 0.950 . S
H3245 C3250 0.949 . S
H3246 C3252 0.950 . S
H3247 C3253 0.950 . S
H3248 C3254 0.949 . S
C3249 H3244 0.950 . S
C3249 C3251 1.327 . S
C3249 C3255 1.429 . S
C3250 C3242 1.574 . S
C3250 H3245 0.949 . S
C3250 C3256 1.368 . S
C3251 C3235 1.349 . S
C3251 H3243 0.950 . S
C3251 C3249 1.327 . S
C3252 C3240 1.349 . S
C3252 H3246 0.950 . S
C3252 C3253 1.327 . S
C3253 H3247 0.950 . S
C3253 C3252 1.327 . S
C3253 C3257 1.429 . S
C3254 C3237 1.574 . S
C3254 H3248 0.949 . S
C3254 C3258 1.368 . S
C3255 C3236 1.429 . S
C3255 C3249 1.429 . S
C3255 C3256 1.523 . S
C3256 C3237 1.368 . S
C3256 C3250 1.368 . S
C3256 C3255 1.523 . S
C3257 C3241 1.429 . S
C3257 C3253 1.429 . S
C3257 C3258 1.523 . S
C3258 C3242 1.368 . S
C3258 C3254 1.368 . S
C3258 C3257 1.523 . S
H3259 C3234 0.950 . S
H3260 C3236 0.950 . S
H3261 C3237 0.949 . S
H3262 C3239 0.950 . S
H3263 C3241 0.950 . S
C3264 C3265 1.349 . S
C3264 C3266 1.327 . S
C3264 H3289 0.950 . S
C3265 C3264 1.349 . S
C3265 C3281 1.349 . S
C3266 C3264 1.327 . S
C3266 C3285 1.429 . S
C3266 H3290 0.950 . S
C3267 C3284 1.574 . S
C3267 C3286 1.368 . S
C3267 H3291 0.949 . S
H3268 C3272 0.949 . S
C3269 C3270 1.349 . S
C3269 C3271 1.327 . S
C3269 H3292 0.950 . S
C3270 C3269 1.349 . S
C3270 C3282 1.349 . S
C3271 C3269 1.327 . S
C3271 C3287 1.429 . S
C3271 H3293 0.950 . S
C3272 H3268 0.949 . S
C3272 C3280 1.574 . S
C3272 C3288 1.368 . S
H3273 C3281 0.950 . S
H3274 C3279 0.950 . S
H3275 C3280 0.949 . S
H3276 C3282 0.950 . S
H3277 C3283 0.950 . S
H3278 C3284 0.949 . S
C3279 H3274 0.950 . S
C3279 C3281 1.327 . S
C3279 C3285 1.429 . S
C3280 C3272 1.574 . S
C3280 H3275 0.949 . S
C3280 C3286 1.368 . S
C3281 C3265 1.349 . S
C3281 H3273 0.950 . S
C3281 C3279 1.327 . S
C3282 C3270 1.349 . S
C3282 H3276 0.950 . S
C3282 C3283 1.327 . S
C3283 H3277 0.950 . S
C3283 C3282 1.327 . S
C3283 C3287 1.429 . S
C3284 C3267 1.574 . S
C3284 H3278 0.949 . S
C3284 C3288 1.368 . S
C3285 C3266 1.429 . S
C3285 C3279 1.429 . S
C3285 C3286 1.523 . S
C3286 C3267 1.368 . S
C3286 C3280 1.368 . S
C3286 C3285 1.523 . S
C3287 C3271 1.429 . S
C3287 C3283 1.429 . S
C3287 C3288 1.523 . S
C3288 C3272 1.368 . S
C3288 C3284 1.368 . S
C3288 C3287 1.523 . S
H3289 C3264 0.950 . S
H3290 C3266 0.950 . S
H3291 C3267 0.949 . S
H3292 C3269 0.950 . S
H3293 C3271 0.950 . S
C3294 C3295 1.349 . S
C3294 C3296 1.327 . S
C3294 H3319 0.950 . S
C3295 C3294 1.349 . S
C3295 C3311 1.349 . S
C3296 C3294 1.327 . S
C3296 C3315 1.429 . S
C3296 H3320 0.950 . S
C3297 C3314 1.574 . S
C3297 C3316 1.368 . S
C3297 H3321 0.949 . S
H3298 C3302 0.949 . S
C3299 C3300 1.349 . S
C3299 C3301 1.327 . S
C3299 H3322 0.950 . S
C3300 C3299 1.349 . S
C3300 C3312 1.349 . S
C3301 C3299 1.327 . S
C3301 C3317 1.429 . S
C3301 H3323 0.950 . S
C3302 H3298 0.949 . S
C3302 C3310 1.574 . S
C3302 C3318 1.368 . S
H3303 C3311 0.950 . S
H3304 C3309 0.950 . S
H3305 C3310 0.949 . S
H3306 C3312 0.950 . S
H3307 C3313 0.950 . S
H3308 C3314 0.949 . S
C3309 H3304 0.950 . S
C3309 C3311 1.327 . S
C3309 C3315 1.429 . S
C3310 C3302 1.574 . S
C3310 H3305 0.949 . S
C3310 C3316 1.368 . S
C3311 C3295 1.349 . S
C3311 H3303 0.950 . S
C3311 C3309 1.327 . S
C3312 C3300 1.349 . S
C3312 H3306 0.950 . S
C3312 C3313 1.327 . S
C3313 H3307 0.950 . S
C3313 C3312 1.327 . S
C3313 C3317 1.429 . S
C3314 C3297 1.574 . S
C3314 H3308 0.949 . S
C3314 C3318 1.368 . S
C3315 C3296 1.429 . S
C3315 C3309 1.429 . S
C3315 C3316 1.523 . S
C3316 C3297 1.368 . S
C3316 C3310 1.368 . S
C3316 C3315 1.523 . S
C3317 C3301 1.429 . S
C3317 C3313 1.429 . S
C3317 C3318 1.523 . S
C3318 C3302 1.368 . S
C3318 C3314 1.368 . S
C3318 C3317 1.523 . S
H3319 C3294 0.950 . S
H3320 C3296 0.950 . S
H3321 C3297 0.949 . S
H3322 C3299 0.950 . S
H3323 C3301 0.950 . S
C3324 C3325 1.349 . S
C3324 C3326 1.327 . S
C3324 H3349 0.950 . S
C3325 C3324 1.349 . S
C3325 C3341 1.349 . S
C3326 C3324 1.327 . S
C3326 C3345 1.429 . S
C3326 H3350 0.950 . S
C3327 C3344 1.574 . S
C3327 C3346 1.368 . S
C3327 H3351 0.949 . S
H3328 C3332 0.949 . S
C3329 C3330 1.349 . S
C3329 C3331 1.327 . S
C3329 H3352 0.950 . S
C3330 C3329 1.349 . S
C3330 C3342 1.349 . S
C3331 C3329 1.327 . S
C3331 C3347 1.429 . S
C3331 H3353 0.950 . S
C3332 H3328 0.949 . S
C3332 C3340 1.574 . S
C3332 C3348 1.368 . S
H3333 C3341 0.950 . S
H3334 C3339 0.950 . S
H3335 C3340 0.949 . S
H3336 C3342 0.950 . S
H3337 C3343 0.950 . S
H3338 C3344 0.949 . S
C3339 H3334 0.950 . S
C3339 C3341 1.327 . S
C3339 C3345 1.429 . S
C3340 C3332 1.574 . S
C3340 H3335 0.949 . S
C3340 C3346 1.368 . S
C3341 C3325 1.349 . S
C3341 H3333 0.950 . S
C3341 C3339 1.327 . S
C3342 C3330 1.349 . S
C3342 H3336 0.950 . S
C3342 C3343 1.327 . S
C3343 H3337 0.950 . S
C3343 C3342 1.327 . S
C3343 C3347 1.429 . S
C3344 C3327 1.574 . S
C3344 H3338 0.949 . S
C3344 C3348 1.368 . S
C3345 C3326 1.429 . S
C3345 C3339 1.429 . S
C3345 C3346 1.523 . S
C3346 C3327 1.368 . S
C3346 C3340 1.368 . S
C3346 C3345 1.523 . S
C3347 C3331 1.429 . S
C3347 C3343 1.429 . S
C3347 C3348 1.523 . S
C3348 C3332 1.368 . S
C3348 C3344 1.368 . S
C3348 C3347 1.523 . S
H3349 C3324 0.950 . S
H3350 C3326 0.950 . S
H3351 C3327 0.949 . S
H3352 C3329 0.950 . S
H3353 C3331 0.950 . S
C3354 C3355 1.349 . S
C3354 C3356 1.327 . S
C3354 H3379 0.950 . S
C3355 C3354 1.349 . S
C3355 C3371 1.349 . S
C3356 C3354 1.327 . S
C3356 C3375 1.429 . S
C3356 H3380 0.950 . S
C3357 C3374 1.574 . S
C3357 C3376 1.368 . S
C3357 H3381 0.949 . S
H3358 C3362 0.949 . S
C3359 C3360 1.349 . S
C3359 C3361 1.327 . S
C3359 H3382 0.950 . S
C3360 C3359 1.349 . S
C3360 C3372 1.349 . S
C3361 C3359 1.327 . S
C3361 C3377 1.429 . S
C3361 H3383 0.950 . S
C3362 H3358 0.949 . S
C3362 C3370 1.574 . S
C3362 C3378 1.368 . S
H3363 C3371 0.950 . S
H3364 C3369 0.950 . S
H3365 C3370 0.949 . S
H3366 C3372 0.950 . S
H3367 C3373 0.950 . S
H3368 C3374 0.949 . S
C3369 H3364 0.950 . S
C3369 C3371 1.327 . S
C3369 C3375 1.429 . S
C3370 C3362 1.574 . S
C3370 H3365 0.949 . S
C3370 C3376 1.368 . S
C3371 C3355 1.349 . S
C3371 H3363 0.950 . S
C3371 C3369 1.327 . S
C3372 C3360 1.349 . S
C3372 H3366 0.950 . S
C3372 C3373 1.327 . S
C3373 H3367 0.950 . S
C3373 C3372 1.327 . S
C3373 C3377 1.429 . S
C3374 C3357 1.574 . S
C3374 H3368 0.949 . S
C3374 C3378 1.368 . S
C3375 C3356 1.429 . S
C3375 C3369 1.429 . S
C3375 C3376 1.523 . S
C3376 C3357 1.368 . S
C3376 C3370 1.368 . S
C3376 C3375 1.523 . S
C3377 C3361 1.429 . S
C3377 C3373 1.429 . S
C3377 C3378 1.523 . S
C3378 C3362 1.368 . S
C3378 C3374 1.368 . S
C3378 C3377 1.523 . S
H3379 C3354 0.950 . S
H3380 C3356 0.950 . S
H3381 C3357 0.949 . S
H3382 C3359 0.950 . S
H3383 C3361 0.950 . S
C3384 C3385 1.349 . S
C3384 C3386 1.327 . S
C3384 H3409 0.950 . S
C3385 C3384 1.349 . S
C3385 C3401 1.349 . S
C3386 C3384 1.327 . S
C3386 C3405 1.429 . S
C3386 H3410 0.950 . S
C3387 C3404 1.574 . S
C3387 C3406 1.368 . S
C3387 H3411 0.949 . S
H3388 C3392 0.949 . S
C3389 C3390 1.349 . S
C3389 C3391 1.327 . S
C3389 H3412 0.950 . S
C3390 C3389 1.349 . S
C3390 C3402 1.349 . S
C3391 C3389 1.327 . S
C3391 C3407 1.429 . S
C3391 H3413 0.950 . S
C3392 H3388 0.949 . S
C3392 C3400 1.574 . S
C3392 C3408 1.368 . S
H3393 C3401 0.950 . S
H3394 C3399 0.950 . S
H3395 C3400 0.949 . S
H3396 C3402 0.950 . S
H3397 C3403 0.950 . S
H3398 C3404 0.949 . S
C3399 H3394 0.950 . S
C3399 C3401 1.327 . S
C3399 C3405 1.429 . S
C3400 C3392 1.574 . S
C3400 H3395 0.949 . S
C3400 C3406 1.368 . S
C3401 C3385 1.349 . S
C3401 H3393 0.950 . S
C3401 C3399 1.327 . S
C3402 C3390 1.349 . S
C3402 H3396 0.950 . S
C3402 C3403 1.327 . S
C3403 H3397 0.950 . S
C3403 C3402 1.327 . S
C3403 C3407 1.429 . S
C3404 C3387 1.574 . S
C3404 H3398 0.949 . S
C3404 C3408 1.368 . S
C3405 C3386 1.429 . S
C3405 C3399 1.429 . S
C3405 C3406 1.523 . S
C3406 C3387 1.368 . S
C3406 C3400 1.368 . S
C3406 C3405 1.523 . S
C3407 C3391 1.429 . S
C3407 C3403 1.429 . S
C3407 C3408 1.523 . S
C3408 C3392 1.368 . S
C3408 C3404 1.368 . S
C3408 C3407 1.523 . S
H3409 C3384 0.950 . S
H3410 C3386 0.950 . S
H3411 C3387 0.949 . S
H3412 C3389 0.950 . S
H3413 C3391 0.950 . S
C3414 C3415 1.349 . S
C3414 C3416 1.327 . S
C3414 H3439 0.950 . S
C3415 C3414 1.349 . S
C3415 C3431 1.349 . S
C3416 C3414 1.327 . S
C3416 C3435 1.429 . S
C3416 H3440 0.950 . S
C3417 C3434 1.574 . S
C3417 C3436 1.368 . S
C3417 H3441 0.949 . S
H3418 C3422 0.949 . S
C3419 C3420 1.349 . S
C3419 C3421 1.327 . S
C3419 H3442 0.950 . S
C3420 C3419 1.349 . S
C3420 C3432 1.349 . S
C3421 C3419 1.327 . S
C3421 C3437 1.429 . S
C3421 H3443 0.950 . S
C3422 H3418 0.949 . S
C3422 C3430 1.574 . S
C3422 C3438 1.368 . S
H3423 C3431 0.950 . S
H3424 C3429 0.950 . S
H3425 C3430 0.949 . S
H3426 C3432 0.950 . S
H3427 C3433 0.950 . S
H3428 C3434 0.949 . S
C3429 H3424 0.950 . S
C3429 C3431 1.327 . S
C3429 C3435 1.429 . S
C3430 C3422 1.574 . S
C3430 H3425 0.949 . S
C3430 C3436 1.368 . S
C3431 C3415 1.349 . S
C3431 H3423 0.950 . S
C3431 C3429 1.327 . S
C3432 C3420 1.349 . S
C3432 H3426 0.950 . S
C3432 C3433 1.327 . S
C3433 H3427 0.950 . S
C3433 C3432 1.327 . S
C3433 C3437 1.429 . S
C3434 C3417 1.574 . S
C3434 H3428 0.949 . S
C3434 C3438 1.368 . S
C3435 C3416 1.429 . S
C3435 C3429 1.429 . S
C3435 C3436 1.523 . S
C3436 C3417 1.368 . S
C3436 C3430 1.368 . S
C3436 C3435 1.523 . S
C3437 C3421 1.429 . S
C3437 C3433 1.429 . S
C3437 C3438 1.523 . S
C3438 C3422 1.368 . S
C3438 C3434 1.368 . S
C3438 C3437 1.523 . S
H3439 C3414 0.950 . S
H3440 C3416 0.950 . S
H3441 C3417 0.949 . S
H3442 C3419 0.950 . S
H3443 C3421 0.950 . S
C3444 C3445 1.349 . S
C3444 C3446 1.327 . S
C3444 H3469 0.950 . S
C3445 C3444 1.349 . S
C3445 C3461 1.349 . S
C3446 C3444 1.327 . S
C3446 C3465 1.429 . S
C3446 H3470 0.950 . S
C3447 C3464 1.574 . S
C3447 C3466 1.368 . S
C3447 H3471 0.949 . S
H3448 C3452 0.949 . S
C3449 C3450 1.349 . S
C3449 C3451 1.327 . S
C3449 H3472 0.950 . S
C3450 C3449 1.349 . S
C3450 C3462 1.349 . S
C3451 C3449 1.327 . S
C3451 C3467 1.429 . S
C3451 H3473 0.950 . S
C3452 H3448 0.949 . S
C3452 C3460 1.574 . S
C3452 C3468 1.368 . S
H3453 C3461 0.950 . S
H3454 C3459 0.950 . S
H3455 C3460 0.949 . S
H3456 C3462 0.950 . S
H3457 C3463 0.950 . S
H3458 C3464 0.949 . S
C3459 H3454 0.950 . S
C3459 C3461 1.327 . S
C3459 C3465 1.429 . S
C3460 C3452 1.574 . S
C3460 H3455 0.949 . S
C3460 C3466 1.368 . S
C3461 C3445 1.349 . S
C3461 H3453 0.950 . S
C3461 C3459 1.327 . S
C3462 C3450 1.349 . S
C3462 H3456 0.950 . S
C3462 C3463 1.327 . S
C3463 H3457 0.950 . S
C3463 C3462 1.327 . S
C3463 C3467 1.429 . S
C3464 C3447 1.574 . S
C3464 H3458 0.949 . S
C3464 C3468 1.368 . S
C3465 C3446 1.429 . S
C3465 C3459 1.429 . S
C3465 C3466 1.523 . S
C3466 C3447 1.368 . S
C3466 C3460 1.368 . S
C3466 C3465 1.523 . S
C3467 C3451 1.429 . S
C3467 C3463 1.429 . S
C3467 C3468 1.523 . S
C3468 C3452 1.368 . S
C3468 C3464 1.368 . S
C3468 C3467 1.523 . S
H3469 C3444 0.950 . S
H3470 C3446 0.950 . S
H3471 C3447 0.949 . S
H3472 C3449 0.950 . S
H3473 C3451 0.950 . S
C3474 C3475 1.349 . S
C3474 C3476 1.327 . S
C3474 H3499 0.950 . S
C3475 C3474 1.349 . S
C3475 C3491 1.349 . S
C3476 C3474 1.327 . S
C3476 C3495 1.429 . S
C3476 H3500 0.950 . S
C3477 C3494 1.574 . S
C3477 C3496 1.368 . S
C3477 H3501 0.949 . S
H3478 C3482 0.949 . S
C3479 C3480 1.349 . S
C3479 C3481 1.327 . S
C3479 H3502 0.950 . S
C3480 C3479 1.349 . S
C3480 C3492 1.349 . S
C3481 C3479 1.327 . S
C3481 C3497 1.429 . S
C3481 H3503 0.950 . S
C3482 H3478 0.949 . S
C3482 C3490 1.574 . S
C3482 C3498 1.368 . S
H3483 C3491 0.950 . S
H3484 C3489 0.950 . S
H3485 C3490 0.949 . S
H3486 C3492 0.950 . S
H3487 C3493 0.950 . S
H3488 C3494 0.949 . S
C3489 H3484 0.950 . S
C3489 C3491 1.327 . S
C3489 C3495 1.429 . S
C3490 C3482 1.574 . S
C3490 H3485 0.949 . S
C3490 C3496 1.368 . S
C3491 C3475 1.349 . S
C3491 H3483 0.950 . S
C3491 C3489 1.327 . S
C3492 C3480 1.349 . S
C3492 H3486 0.950 . S
C3492 C3493 1.327 . S
C3493 H3487 0.950 . S
C3493 C3492 1.327 . S
C3493 C3497 1.429 . S
C3494 C3477 1.574 . S
C3494 H3488 0.949 . S
C3494 C3498 1.368 . S
C3495 C3476 1.429 . S
C3495 C3489 1.429 . S
C3495 C3496 1.523 . S
C3496 C3477 1.368 . S
C3496 C3490 1.368 . S
C3496 C3495 1.523 . S
C3497 C3481 1.429 . S
C3497 C3493 1.429 . S
C3497 C3498 1.523 . S
C3498 C3482 1.368 . S
C3498 C3494 1.368 . S
C3498 C3497 1.523 . S
H3499 C3474 0.950 . S
H3500 C3476 0.950 . S
H3501 C3477 0.949 . S
H3502 C3479 0.950 . S
H3503 C3481 0.950 . S
C625 C127 1.499 . S
C630 C4 1.499 . S
C655 C134 1.499 . S
C660 C17 1.499 . S
C685 C153 1.499 . S
C690 C36 1.499 . S
C715 C49 1.499 . S
C720 C108 1.499 . S
C745 C199 1.499 . S
C750 C62 1.499 . S
C775 C69 1.499 . S
C780 C166 1.499 . S
C805 C179 1.499 . S
C810 C82 1.499 . S
C835 C192 1.499 . S
C840 C101 1.499 . S
C865 C218 1.499 . S
C870 C238 1.499 . S
C895 C231 1.499 . S
C900 C290 1.499 . S
C925 C251 1.499 . S
C930 C309 1.499 . S
C955 C264 1.499 . S
C960 C277 1.499 . S
C985 C316 1.499 . S
C990 C433 1.499 . S
C1015 C446 1.499 . S
C1020 C335 1.499 . S
C1045 C342 1.499 . S
C1050 C459 1.499 . S
C1075 C361 1.499 . S
C1080 C426 1.499 . S
C1105 C511 1.499 . S
C1110 C374 1.499 . S
C1135 C478 1.499 . S
C1140 C381 1.499 . S
C1165 C491 1.499 . S
C1170 C400 1.499 . S
C1195 C504 1.499 . S
C1200 C413 1.499 . S
C1225 C530 1.499 . S
C1230 C556 1.499 . S
C1255 C537 1.499 . S
C1260 C608 1.499 . S
C1285 C569 1.499 . S
C1290 C615 1.499 . S
C1315 C589 1.499 . S
C1320 C576 1.499 . S
C1345 C109 1.106 . S
C1350 C3 1.148 . S
C1375 C120 1.106 . S
C1380 C16 1.148 . S
C1405 C31 1.148 . S
C1410 C135 1.106 . S
C1435 C44 1.148 . S
C1440 C146 1.106 . S
C1465 C57 1.148 . S
C1470 C159 1.106 . S
C1495 C68 1.148 . S
C1500 C172 1.106 . S
C1525 C81 1.148 . S
C1530 C185 1.106 . S
C1555 C200 1.106 . S
C1560 C96 1.148 . S
C1585 C107 1.148 . S
C1590 C211 1.106 . S
C1615 C302 1.106 . S
C1620 C122 1.148 . S
C1645 C133 1.148 . S
C1650 C278 1.106 . S
C1675 C148 1.148 . S
C1680 C291 1.106 . S
C1705 C161 1.148 . S
C1710 C224 1.106 . S
C1735 C174 1.148 . S
C1740 C239 1.106 . S
C1765 C187 1.148 . S
C1770 C252 1.106 . S
C1795 C265 1.106 . S
C1800 C198 1.148 . S
C1825 C5 1.106 . S
C1830 C213 1.148 . S
C1855 C226 1.148 . S
C1860 C55 1.106 . S
C1885 C237 1.148 . S
C1890 C70 1.106 . S
C1915 C250 1.148 . S
C1920 C83 1.106 . S
C1945 C94 1.106 . S
C1950 C263 1.148 . S
C1975 C276 1.148 . S
C1980 C29 1.106 . S
C2005 C289 1.148 . S
C2010 C42 1.106 . S
C2035 C18 1.106 . S
C2040 C304 1.148 . S
C2065 C419 1.106 . S
C2070 C315 1.148 . S
C2095 C330 1.148 . S
C2100 C434 1.106 . S
C2125 C341 1.148 . S
C2130 C447 1.106 . S
C2155 C460 1.106 . S
C2160 C356 1.148 . S
C2185 C471 1.106 . S
C2190 C369 1.148 . S
C2215 C380 1.148 . S
C2220 C484 1.106 . S
C2245 C497 1.106 . S
C2250 C395 1.148 . S
C2275 C512 1.106 . S
C2280 C408 1.148 . S
C2305 C421 1.148 . S
C2310 C523 1.106 . S
C2335 C432 1.148 . S
C2340 C616 1.106 . S
C2365 C445 1.148 . S
C2370 C590 1.106 . S
C2395 C601 1.106 . S
C2400 C458 1.148 . S
C2425 C473 1.148 . S
C2430 C538 1.106 . S
C2455 C486 1.148 . S
C2460 C549 1.106 . S
C2485 C562 1.106 . S
C2490 C499 1.148 . S
C2515 C577 1.106 . S
C2520 C510 1.148 . S
C2545 C525 1.148 . S
C2550 C317 1.106 . S
C2575 C536 1.148 . S
C2580 C367 1.106 . S
C2605 C382 1.106 . S
C2610 C551 1.148 . S
C2635 C564 1.148 . S
C2640 C393 1.106 . S
C2665 C575 1.148 . S
C2670 C406 1.106 . S
C2695 C343 1.106 . S
C2700 C588 1.148 . S
C2725 C603 1.148 . S
C2730 C354 1.106 . S
C2755 C328 1.106 . S
C2760 C614 1.148 . S
C2785 C407 1.326 . S
C2790 C10 1.326 . S
C2815 C23 1.326 . S
C2820 C368 1.326 . S
C2845 C387 1.326 . S
C2850 C30 1.326 . S
C2875 C394 1.326 . S
C2880 C43 1.326 . S
C2905 C56 1.326 . S
C2910 C329 1.326 . S
C2935 C348 1.326 . S
C2940 C75 1.326 . S
C2965 C355 1.326 . S
C2970 C88 1.326 . S
C2995 C95 1.326 . S
C3000 C322 1.326 . S
C3025 C582 1.326 . S
C3030 C114 1.326 . S
C3055 C121 1.326 . S
C3060 C543 1.326 . S
C3085 C140 1.326 . S
C3090 C550 1.326 . S
C3115 C563 1.326 . S
C3120 C147 1.326 . S
C3145 C621 1.326 . S
C3150 C160 1.326 . S
C3175 C595 1.326 . S
C3180 C173 1.326 . S
C3205 C186 1.326 . S
C3210 C602 1.326 . S
C3235 C524 1.326 . S
C3240 C205 1.326 . S
C3265 C212 1.326 . S
C3270 C517 1.326 . S
C3295 C439 1.326 . S
C3300 C225 1.326 . S
C3325 C244 1.326 . S
C3330 C452 1.326 . S
C3355 C465 1.326 . S
C3360 C257 1.326 . S
C3385 C420 1.326 . S
C3390 C270 1.326 . S
C3415 C283 1.326 . S
C3420 C485 1.326 . S
C3445 C498 1.326 . S
C3450 C296 1.326 . S
C3475 C472 1.326 . S
C3480 C303 1.326 . S
