# Generated by pormake.
# Topology wkf, (6)-cn, num edge types: 1
# Building blocks:
#     Node 0, Type 0, BuildingBlock: KUMBUR_clean_sbu_0, # of connection points: 6
#     Node 1, Type 0, BuildingBlock: KUMBUR_clean_sbu_0, # of connection points: 6
#     Node 2, Type 0, BuildingBlock: KUMBUR_clean_sbu_0, # of connection points: 6
#     Node 3, Type 0, BuildingBlock: KUMBUR_clean_sbu_0, # of connection points: 6
#     Node 4, Type 0, BuildingBlock: KUMBUR_clean_sbu_0, # of connection points: 6
#     Node 5, Type 0, BuildingBlock: KUMBUR_clean_sbu_0, # of connection points: 6
#     Node 6, Type 0, BuildingBlock: KUMBUR_clean_sbu_0, # of connection points: 6
#     Node 7, Type 0, BuildingBlock: KUMBUR_clean_sbu_0, # of connection points: 6
#     Node 8, Type 0, BuildingBlock: KUMBUR_clean_sbu_0, # of connection points: 6
#     Node 9, Type 0, BuildingBlock: KUMBUR_clean_sbu_0, # of connection points: 6
#     Node 10, Type 0, BuildingBlock: KUMBUR_clean_sbu_0, # of connection points: 6
#     Node 11, Type 0, BuildingBlock: KUMBUR_clean_sbu_0, # of connection points: 6
#     Edge 12, Type (0, 0), BuildingBlock: XIVTED_clean_linker_0, # of connection points: 2
#     Edge 13, Type (0, 0), BuildingBlock: XIVTED_clean_linker_0, # of connection points: 2
#     Edge 14, Type (0, 0), BuildingBlock: XIVTED_clean_linker_0, # of connection points: 2
#     Edge 15, Type (0, 0), BuildingBlock: XIVTED_clean_linker_0, # of connection points: 2
#     Edge 16, Type (0, 0), BuildingBlock: XIVTED_clean_linker_0, # of connection points: 2
#     Edge 17, Type (0, 0), BuildingBlock: XIVTED_clean_linker_0, # of connection points: 2
#     Edge 18, Type (0, 0), BuildingBlock: XIVTED_clean_linker_0, # of connection points: 2
#     Edge 19, Type (0, 0), BuildingBlock: XIVTED_clean_linker_0, # of connection points: 2
#     Edge 20, Type (0, 0), BuildingBlock: XIVTED_clean_linker_0, # of connection points: 2
#     Edge 21, Type (0, 0), BuildingBlock: XIVTED_clean_linker_0, # of connection points: 2
#     Edge 22, Type (0, 0), BuildingBlock: XIVTED_clean_linker_0, # of connection points: 2
#     Edge 23, Type (0, 0), BuildingBlock: XIVTED_clean_linker_0, # of connection points: 2
#     Edge 24, Type (0, 0), BuildingBlock: XIVTED_clean_linker_0, # of connection points: 2
#     Edge 25, Type (0, 0), BuildingBlock: XIVTED_clean_linker_0, # of connection points: 2
#     Edge 26, Type (0, 0), BuildingBlock: XIVTED_clean_linker_0, # of connection points: 2
#     Edge 27, Type (0, 0), BuildingBlock: XIVTED_clean_linker_0, # of connection points: 2
#     Edge 28, Type (0, 0), BuildingBlock: XIVTED_clean_linker_0, # of connection points: 2
#     Edge 29, Type (0, 0), BuildingBlock: XIVTED_clean_linker_0, # of connection points: 2
#     Edge 30, Type (0, 0), BuildingBlock: XIVTED_clean_linker_0, # of connection points: 2
#     Edge 31, Type (0, 0), BuildingBlock: XIVTED_clean_linker_0, # of connection points: 2
#     Edge 32, Type (0, 0), BuildingBlock: XIVTED_clean_linker_0, # of connection points: 2
#     Edge 33, Type (0, 0), BuildingBlock: XIVTED_clean_linker_0, # of connection points: 2
#     Edge 34, Type (0, 0), BuildingBlock: XIVTED_clean_linker_0, # of connection points: 2
#     Edge 35, Type (0, 0), BuildingBlock: XIVTED_clean_linker_0, # of connection points: 2
#     Edge 36, Type (0, 0), BuildingBlock: XIVTED_clean_linker_0, # of connection points: 2
#     Edge 37, Type (0, 0), BuildingBlock: XIVTED_clean_linker_0, # of connection points: 2
#     Edge 38, Type (0, 0), BuildingBlock: XIVTED_clean_linker_0, # of connection points: 2
#     Edge 39, Type (0, 0), BuildingBlock: XIVTED_clean_linker_0, # of connection points: 2
#     Edge 40, Type (0, 0), BuildingBlock: XIVTED_clean_linker_0, # of connection points: 2
#     Edge 41, Type (0, 0), BuildingBlock: XIVTED_clean_linker_0, # of connection points: 2
#     Edge 42, Type (0, 0), BuildingBlock: XIVTED_clean_linker_0, # of connection points: 2
#     Edge 43, Type (0, 0), BuildingBlock: XIVTED_clean_linker_0, # of connection points: 2
#     Edge 44, Type (0, 0), BuildingBlock: XIVTED_clean_linker_0, # of connection points: 2
#     Edge 45, Type (0, 0), BuildingBlock: XIVTED_clean_linker_0, # of connection points: 2
#     Edge 46, Type (0, 0), BuildingBlock: XIVTED_clean_linker_0, # of connection points: 2
#     Edge 47, Type (0, 0), BuildingBlock: XIVTED_clean_linker_0, # of connection points: 2
# Relax obj value: 0.169
# Max RMSD: 0.269
# Mean RMSD: 0.261
data_MOF--net-wkf--node1-KUMBUR_clean_sbu_0--edge1-XIVTED_clean_linker_0
_symmetry_space_group_name_H-M    P1
_symmetry_Int_Tables_number       1
_symmetry_cell_setting            triclinic
loop_
_symmetry_equiv_pos_as_xyz
'x, y, z'
_cell_length_a     30.509514
_cell_length_b     30.429977
_cell_length_c     81.618257
_cell_angle_alpha  89.952947
_cell_angle_beta   89.978016
_cell_angle_gamma 119.68283
loop_
_atom_site_label
_atom_site_type_symbol
_atom_site_fract_x
_atom_site_fract_y
_atom_site_fract_z
_atom_type_partial_charge
Tb0 Tb 0.54187 1.00417 0.36864 0.0
C1 C 0.47386 1.01926 0.30566 0.0
C2 C 0.42534 0.06254 0.30283 0.0
C3 C 0.478 0.06353 0.28032 0.0
C4 C 0.44024 1.03301 0.31204 0.0
C5 C 0.4934 1.03484 0.28972 0.0
C6 C 0.44401 0.07729 0.28685 0.0
C7 C 0.5426 0.99342 0.29357 0.0
N8 N 0.48812 0.99165 0.31518 0.0
C9 C 0.52202 0.97853 0.30926 0.0
C10 C 0.52812 1.02149 0.28373 0.0
Tb11 Tb 0.44667 0.96607 0.33992 0.0
N12 N 0.42452 1.01978 0.32776 0.0
C13 C 0.39259 1.03361 0.3349 0.0
C14 C 0.39268 0.0769 0.31004 0.0
C15 C 0.37628 0.06241 0.32615 0.0
H16 H 0.53442 0.95721 0.31643 0.0
H17 H 0.35116 0.07345 0.33184 0.0
H18 H 0.43289 0.09984 0.27952 0.0
H19 H 0.56969 0.98314 0.28907 0.0
H20 H 0.38019 1.02252 0.3474 0.0
H21 H 0.65097 0.08138 0.31287 0.0
H22 H 0.38025 0.0995 0.30334 0.0
H23 H 0.53205 0.91022 0.39324 0.0
H24 H 0.58144 0.06126 0.33157 0.0
H25 H 0.57645 0.86268 0.39714 0.0
H26 H 0.4925 0.07563 0.26804 0.0
H27 H 0.70803 0.04688 0.31772 0.0
H28 H 0.72921 0.99063 0.33428 0.0
H29 H 0.54413 1.03285 0.27157 0.0
H30 H 0.70778 0.92971 0.35683 0.0
N31 N 0.59949 1.01832 0.34818 0.0
C32 C 0.60657 0.04739 0.33456 0.0
C33 C 0.67792 1.03876 0.32634 0.0
C34 C 0.66942 1.00723 0.33982 0.0
C35 C 0.64587 0.05833 0.32359 0.0
C36 C 0.6294 0.99756 0.35063 0.0
H37 H 0.64989 0.88049 0.37985 0.0
N38 N 0.57694 0.95309 0.37278 0.0
C39 C 0.58826 0.89074 0.3875 0.0
C40 C 0.61748 0.96347 0.3633 0.0
C41 C 0.56243 0.91736 0.38495 0.0
C42 C 0.62991 0.90116 0.37782 0.0
C43 C 0.6451 0.93792 0.36556 0.0
O44 O 0.56931 1.00852 0.3925 0.0
O45 O 0.47705 1.01192 0.36216 0.0
O46 O 0.487 0.05395 0.34087 0.0
O47 O 0.55759 0.07993 0.35728 0.0
O48 O 0.48495 0.99953 0.3858 0.0
O49 O 0.59914 0.07477 0.37731 0.0
O50 O 0.39662 0.91686 0.32187 0.0
O51 O 0.51006 0.95555 0.34772 0.0
O52 O 0.47999 0.93012 0.37738 0.0
O53 O 0.41054 0.91876 0.36211 0.0
O54 O 0.45851 0.90028 0.33423 0.0
O55 O 0.36808 0.92925 0.34449 0.0
C56 C 0.45835 1.0107 0.37632 0.0
C57 C 0.58882 0.08519 0.40551 0.0
C58 C 0.62105 0.162 0.42174 0.0
C59 C 0.62693 0.13433 0.40901 0.0
C60 C 0.5756 0.14131 0.43049 0.0
C61 C 0.54447 0.06361 0.41507 0.0
C62 C 0.53755 0.09202 0.4272 0.0
C63 C 0.53021 0.09201 0.34712 0.0
C64 C 0.59669 0.05735 0.39207 0.0
C65 C 0.68605 0.94879 0.35523 0.0
C66 C 0.69828 0.9835 0.34241 0.0
C67 C 0.49798 0.91058 0.34267 0.0
C68 C 0.31247 0.90446 0.32074 0.0
C69 C 0.2914 0.87298 0.30656 0.0
C70 C 0.24785 0.86899 0.29855 0.0
C71 C 0.22834 0.8993 0.30449 0.0
C72 C 0.28868 0.93065 0.32667 0.0
C73 C 0.24819 0.92922 0.31838 0.0
C74 C 0.43059 0.90543 0.37434 0.0
C75 C 0.35619 0.90688 0.33013 0.0
H76 H 0.66193 0.15067 0.40211 0.0
H77 H 0.57058 0.16226 0.44034 0.0
H78 H 0.51522 1.02482 0.4134 0.0
H79 H 0.50304 0.07537 0.4343 0.0
H80 H 0.30756 0.85045 0.30223 0.0
H81 H 0.19663 0.89928 0.29852 0.0
H82 H 0.30085 0.95209 0.33791 0.0
H83 H 0.2313 0.9508 0.32297 0.0
Tb84 Tb 0.58766 0.52272 0.53564 0.0
C85 C 0.48462 0.43859 0.47374 0.0
C86 C 0.39343 0.38711 0.47599 0.0
C87 C 0.43152 0.42989 0.45036 0.0
C88 C 0.44192 0.40647 0.48275 0.0
C89 C 0.4797 0.45133 0.45751 0.0
C90 C 0.38848 0.39791 0.45958 0.0
C91 C 0.56977 0.5083 0.4571 0.0
N92 N 0.53044 0.45999 0.48134 0.0
C93 C 0.57281 0.49464 0.47327 0.0
C94 C 0.52315 0.48628 0.44914 0.0
Tb95 Tb 0.52923 0.42714 0.50672 0.0
N96 N 0.4482 0.39935 0.49885 0.0
C97 C 0.40767 0.37329 0.50894 0.0
C98 C 0.3515 0.35952 0.48616 0.0
C99 C 0.35867 0.35307 0.50274 0.0
H100 H 0.60923 0.51204 0.47909 0.0
H101 H 0.3265 0.33209 0.5107 0.0
H102 H 0.35153 0.38302 0.45407 0.0
H103 H 0.60349 0.53578 0.45077 0.0
H104 H 0.41337 0.36715 0.52161 0.0
H105 H 0.62417 0.62399 0.47794 0.0
H106 H 0.31352 0.34403 0.48144 0.0
H107 H 0.66737 0.51678 0.56281 0.0
H108 H 0.57215 0.56185 0.49845 0.0
H109 H 0.75863 0.56007 0.5676 0.0
H110 H 0.42702 0.43894 0.43785 0.0
H111 H 0.7166 0.67365 0.48148 0.0
H112 H 0.79279 0.69219 0.49812 0.0
H113 H 0.52102 0.49716 0.43665 0.0
H114 H 0.82932 0.67461 0.5224 0.0
N115 N 0.63286 0.57671 0.51457 0.0
C116 C 0.61169 0.58387 0.50078 0.0
C117 C 0.69358 0.64679 0.49084 0.0
C118 C 0.71544 0.63886 0.50474 0.0
C119 C 0.64148 0.61896 0.48883 0.0
C120 C 0.68372 0.60326 0.51653 0.0
H121 H 0.81697 0.62549 0.54827 0.0
N122 N 0.67268 0.55659 0.5406 0.0
C123 C 0.74391 0.56966 0.55696 0.0
C124 C 0.70428 0.59306 0.53006 0.0
C125 C 0.69194 0.5449 0.55406 0.0
C126 C 0.77668 0.6067 0.54607 0.0
C127 C 0.7571 0.61866 0.53238 0.0
O128 O 0.60667 0.54868 0.55972 0.0
O129 O 0.51529 0.45932 0.529 0.0
O130 O 0.48691 0.47306 0.50596 0.0
O131 O 0.52761 0.53893 0.52443 0.0
O132 O 0.53438 0.46669 0.5528 0.0
O133 O 0.5797 0.58482 0.54312 0.0
O134 O 0.53269 0.37827 0.48893 0.0
O135 O 0.60291 0.48599 0.51577 0.0
O136 O 0.59898 0.46029 0.54466 0.0
O137 O 0.54081 0.39148 0.52908 0.0
O138 O 0.60656 0.44787 0.49696 0.0
O139 O 0.49007 0.3481 0.51105 0.0
C140 C 0.49693 0.44086 0.54316 0.0
C141 C 0.55369 0.57646 0.57086 0.0
C142 C 0.50823 0.61356 0.58404 0.0
C143 C 0.54204 0.61524 0.57207 0.0
C144 C 0.48478 0.57186 0.59461 0.0
C145 C 0.5308 0.53522 0.58179 0.0
C146 C 0.49611 0.5328 0.59345 0.0
C147 C 0.49019 0.51422 0.5134 0.0
C148 C 0.59024 0.58037 0.55831 0.0
C149 C 0.78872 0.65471 0.52084 0.0
C150 C 0.76793 0.66473 0.50703 0.0
C151 C 0.63618 0.48118 0.50733 0.0
C152 C 0.46181 0.29428 0.48685 0.0
C153 C 0.47325 0.27225 0.47308 0.0
C154 C 0.43405 0.23013 0.46444 0.0
C155 C 0.3839 0.2132 0.46932 0.0
C156 C 0.41119 0.27296 0.49169 0.0
C157 C 0.3728 0.23402 0.48278 0.0
C158 C 0.57349 0.41079 0.54151 0.0
C159 C 0.50208 0.3371 0.4968 0.0
H160 H 0.55985 0.64724 0.56376 0.0
H161 H 0.45887 0.5702 0.60399 0.0
H162 H 0.53949 0.50482 0.58139 0.0
H163 H 0.47838 0.50083 0.60172 0.0
H164 H 0.5122 0.28657 0.46953 0.0
H165 H 0.35266 0.18276 0.46284 0.0
H166 H 0.40087 0.28577 0.50257 0.0
H167 H 0.33395 0.21908 0.48655 0.0
Tb168 Tb 0.09288 0.55978 0.70383 0.0
C169 C 1.0588 0.42206 0.64876 0.0
C170 C 1.05149 0.34339 0.65858 0.0
C171 C 1.01175 0.34518 0.6329 0.0
C172 C 0.07004 0.39566 0.66041 0.0
C173 C 1.02931 0.3971 0.63497 0.0
C174 C 1.02267 0.31838 0.64469 0.0
C175 C 1.03509 0.47635 0.62674 0.0
N176 N 0.0745 0.47201 0.65163 0.0
C177 C 0.06417 0.49966 0.64067 0.0
C178 C 1.01764 0.42497 0.62387 0.0
Tb179 Tb 0.12838 0.5061 0.6733 0.0
N180 N 0.09793 0.42108 0.67373 0.0
C181 C 0.10864 0.39649 0.68569 0.0
C182 C 0.0621 0.31782 0.67085 0.0
C183 C 0.09063 0.34446 0.68448 0.0
H184 H 0.07875 0.53961 0.64257 0.0
H185 H 0.09922 0.32503 0.69398 0.0
H186 H 1.00826 0.27821 0.64303 0.0
H187 H 1.02658 0.49815 0.61814 0.0
H188 H 0.13211 0.41722 0.69595 0.0
H189 H 1.02001 0.59813 0.64792 0.0
H190 H 1.04841 0.27757 0.66994 0.0
H191 H 0.18043 0.63947 0.73003 0.0
H192 H 1.03609 0.54634 0.66686 0.0
H193 H 0.22624 0.7306 0.73543 0.0
H194 H 0.98908 0.32524 0.62235 0.0
H195 H 1.05683 0.68969 0.65295 0.0
H196 H 0.11291 0.76524 0.67 0.0
H197 H 0.99508 0.40717 0.61309 0.0
H198 H 0.17011 0.80147 0.69351 0.0
N199 N 0.07816 0.60526 0.68393 0.0
C200 C 1.05057 0.58499 0.66999 0.0
C201 C 0.06301 0.66652 0.6617 0.0
C202 C 0.0933 0.6879 0.67548 0.0
C203 C 1.0421 0.61491 0.65885 0.0
C204 C 0.10029 0.65598 0.68647 0.0
H205 H 0.21313 0.78902 0.71774 0.0
N206 N 0.1412 0.64492 0.70909 0.0
C207 C 0.2002 0.71595 0.72525 0.0
C208 C 0.13294 0.67646 0.6995 0.0
C209 C 0.17409 0.66403 0.72202 0.0
C210 C 0.19256 0.74875 0.71529 0.0
C211 C 0.15876 0.72924 0.7022 0.0
O212 O 0.09074 0.57219 0.729 0.0
O213 O 0.08308 0.48842 0.69567 0.0
O214 O 1.04035 0.46528 0.67248 0.0
O215 O 1.01587 0.50011 0.6932 0.0
O216 O 0.09557 0.50416 0.71984 0.0
O217 O 1.0269 0.55512 0.71376 0.0
O218 O 0.17725 0.53593 0.65304 0.0
O219 O 0.15266 0.57911 0.68591 0.0
O220 O 0.167 0.57048 0.7118 0.0
O221 O 0.17864 0.51504 0.69484 0.0
O222 O 0.15418 0.58257 0.66164 0.0
O223 O 0.18091 0.48039 0.66798 0.0
C224 C 0.08474 0.46872 0.70941 0.0
C225 C 1.01046 0.51838 0.74024 0.0
C226 C 0.92688 0.46599 0.7519 0.0
C227 C 0.95966 0.50479 0.74131 0.0
C228 C 0.9448 0.43938 0.76115 0.0
C229 C 1.02858 0.49263 0.75005 0.0
C230 C 0.99571 0.45306 0.7603 0.0
C231 C 1.00267 0.46533 0.68118 0.0
C232 C 1.04336 0.55897 0.72873 0.0
C233 C 0.15067 0.76091 0.69162 0.0
C234 C 0.11803 0.74028 0.67827 0.0
C235 C 0.16888 0.61195 0.67431 0.0
C236 C 0.1997 0.4814 0.63875 0.0
C237 C 0.24222 0.47624 0.63396 0.0
C238 C 0.24258 0.45411 0.61846 0.0
C239 C 0.19997 0.4362 0.60838 0.0
C240 C 0.1609 0.4673 0.6272 0.0
C241 C 0.15994 0.44332 0.61262 0.0
C242 C 0.19085 0.54495 0.70811 0.0
C243 C 0.19713 0.50681 0.65448 0.0
H244 H 0.94557 0.5249 0.73397 0.0
H245 H 0.91995 0.40939 0.76939 0.0
H246 H 0.06792 0.50268 0.74982 0.0
H247 H 1.00984 0.43317 0.76767 0.0
H248 H 0.27484 0.49038 0.6419 0.0
H249 H 0.19896 0.41925 0.59661 0.0
H250 H 0.13197 0.47687 0.62892 0.0
H251 H 0.12875 0.43208 0.60421 0.0
Tb252 Tb 0.57606 0.08043 0.86665 0.0
C253 C 0.66914 0.06276 0.80715 0.0
C254 C 0.72104 1.02338 0.81064 0.0
C255 C 0.68124 1.01849 0.78436 0.0
C256 C 0.70022 0.05217 0.81682 0.0
C257 C 0.65877 0.04538 0.79087 0.0
C258 C 0.71227 1.00748 0.79422 0.0
C259 C 0.60287 0.08017 0.789 0.0
N260 N 0.64672 0.08736 0.81415 0.0
C261 C 0.61431 0.09669 0.80524 0.0
C262 C 0.62536 0.05465 0.78175 0.0
Tb263 Tb 0.67694 0.12003 0.83962 0.0
N264 N 0.70552 0.066 0.83287 0.0
C265 C 0.7321 0.05314 0.84337 0.0
C266 C 0.74861 1.01015 0.82131 0.0
C267 C 0.75385 1.02479 0.83777 0.0
H268 H 0.59684 0.1167 0.8105 0.0
H269 H 0.77524 1.01491 0.84608 0.0
H270 H 0.72829 0.98563 0.78916 0.0
H271 H 0.57687 0.08738 0.78205 0.0
H272 H 0.73835 0.06672 0.85583 0.0
H273 H 0.48279 1.01925 0.80712 0.0
H274 H 0.76535 0.98808 0.81703 0.0
H275 H 0.57702 0.16609 0.89257 0.0
H276 H 0.54616 1.03388 0.82744 0.0
H277 H 0.52799 0.20834 0.8974 0.0
H278 H 0.67399 1.00509 0.77182 0.0
H279 H 0.42385 0.05166 0.81146 0.0
H280 H 0.39767 0.1029 0.8285 0.0
H281 H 0.6163 1.04187 0.76918 0.0
H282 H 0.41112 0.15585 0.85278 0.0
N283 N 0.5215 0.06892 0.84503 0.0
C284 C 0.51953 0.04557 0.83047 0.0
C285 C 0.45099 0.05681 0.82089 0.0
C286 C 0.45528 0.08409 0.83509 0.0
C287 C 0.48394 1.03828 0.81845 0.0
C288 C 0.49152 0.08991 0.84698 0.0
H289 H 0.45996 0.19588 0.87832 0.0
N290 N 0.53729 0.128 0.87076 0.0
C291 C 0.51949 0.18364 0.88692 0.0
C292 C 0.49965 0.1204 0.86035 0.0
C293 C 0.54724 0.15911 0.88406 0.0
C294 C 0.48111 0.17646 0.87616 0.0
C295 C 0.47093 0.14481 0.86263 0.0
O296 O 0.58082 0.08994 0.892 0.0
O297 O 0.65053 0.08766 0.86414 0.0
O298 O 0.62935 1.03228 0.83815 0.0
O299 O 0.55586 1.00545 0.8536 0.0
O300 O 0.59407 1.02315 0.87457 0.0
O301 O 0.51124 1.03434 0.88074 0.0
O302 O 0.72479 0.17543 0.82238 0.0
O303 O 0.6169 0.13453 0.84791 0.0
O304 O 0.63904 0.15301 0.87666 0.0
O305 O 0.70991 0.16184 0.86296 0.0
O306 O 0.65655 0.17703 0.82955 0.0
O307 O 0.75585 0.1594 0.8435 0.0
C308 C 0.64135 0.04603 0.87105 0.0
C309 C 0.53346 1.01412 0.90654 0.0
C310 C 0.48655 0.93063 0.91887 0.0
C311 C 0.48907 0.9677 0.90808 0.0
C312 C 0.52892 0.94001 0.92818 0.0
C313 C 0.57524 1.02387 0.9164 0.0
C314 C 0.57297 0.98681 0.92705 0.0
C315 C 0.58472 0.99428 0.84366 0.0
C316 C 0.53605 0.05158 0.89449 0.0
C317 C 0.43355 0.13751 0.85122 0.0
C318 C 0.4258 0.10726 0.83744 0.0
C319 C 0.62143 0.17225 0.83937 0.0
C320 C 0.80743 0.18538 0.81898 0.0
C321 C 0.8285 0.21876 0.8052 0.0
C322 C 0.86877 0.21992 0.79583 0.0
C323 C 0.88459 0.18499 0.79996 0.0
C324 C 0.82804 0.15461 0.82313 0.0
C325 C 0.86492 0.15334 0.81349 0.0
C326 C 0.68908 0.17598 0.87478 0.0
C327 C 0.76622 0.18399 0.8296 0.0
H328 H 0.45649 0.95998 0.90068 0.0
H329 H 0.52754 0.91167 0.93653 0.0
H330 H 0.60982 0.0599 0.91583 0.0
H331 H 0.60537 0.99446 0.93447 0.0
H332 H 0.81487 0.24455 0.80218 0.0
H333 H 0.91328 0.18257 0.79284 0.0
H334 H 0.81625 0.13161 0.83402 0.0
H335 H 0.87909 0.12815 0.81671 0.0
Tb336 Tb 0.53707 0.56589 0.03445 0.0
C337 C 0.66077 0.66608 0.97619 0.0
C338 C 0.74864 0.7232 0.98308 0.0
C339 C 0.72636 0.68578 0.95591 0.0
C340 C 0.69717 0.69815 0.9873 0.0
C341 C 0.67524 0.65881 0.96049 0.0
C342 C 0.76297 0.71784 0.96718 0.0
C343 C 0.58846 0.59537 0.9556 0.0
N344 N 0.61189 0.6388 0.98141 0.0
C345 C 0.57585 0.6035 0.97136 0.0
C346 C 0.6382 0.62339 0.95008 0.0
Tb347 Tb 0.59738 0.66316 0.00652 0.0
N348 N 0.68207 0.7004 1.00281 0.0
C349 C 0.71629 0.72738 0.01468 0.0
C350 C 0.78415 0.75135 0.99517 0.0
C351 C 0.7679 0.75312 0.01106 0.0
H352 H 0.53719 0.58128 0.97525 0.0
H353 H 0.79505 0.77492 0.02046 0.0
H354 H 0.80237 0.73717 0.96363 0.0
H355 H 0.5597 0.56741 0.9477 0.0
H356 H 0.70358 0.7308 0.0267 0.0
H357 H 0.50914 0.47055 0.97582 0.0
H358 H 0.82414 0.77123 0.99242 0.0
H359 H 0.45278 0.57 0.05989 0.0
H360 H 0.5574 0.53236 0.99675 0.0
H361 H 0.36102 0.52508 0.06351 0.0
H362 H 0.73816 0.68096 0.94383 0.0
H363 H 0.41683 0.41688 0.97869 0.0
H364 H 0.33836 0.39473 0.99457 0.0
H365 H 0.64777 0.61664 0.93791 0.0
H366 H 0.29799 0.41026 0.01822 0.0
N367 N 0.4952 0.51272 0.01274 0.0
C368 C 0.5181 0.50834 0.99892 0.0
C369 C 0.43831 0.44343 0.9883 0.0
C370 C 0.41443 0.44928 1.00204 0.0
C371 C 0.49034 0.47352 0.98667 0.0
C372 C 0.44422 0.48458 0.01418 0.0
H373 H 0.30604 0.45904 0.04381 0.0
N374 N 0.45123 0.53032 0.03806 0.0
C375 C 0.37747 0.51587 0.05324 0.0
C376 C 0.42149 0.49363 0.02733 0.0
C377 C 0.42978 0.54151 0.05102 0.0
C378 C 0.3466 0.47849 0.04216 0.0
C379 C 0.36841 0.46713 0.02895 0.0
O380 O 0.51654 0.54223 0.05869 0.0
O381 O 0.61016 0.62851 0.02835 0.0
O382 O 0.64017 0.61758 0.00548 0.0
O383 O 0.59804 0.55017 0.02334 0.0
O384 O 0.58987 0.61957 0.05209 0.0
O385 O 0.54224 0.50306 0.04298 0.0
O386 O 0.59208 0.70923 0.98791 0.0
O387 O 0.52266 0.60968 0.01667 0.0
O388 O 0.52626 0.62846 0.04387 0.0
O389 O 0.58617 0.69838 0.02907 0.0
O390 O 0.52115 0.62996 0.99401 0.0
O391 O 0.62755 0.74131 0.01088 0.0
C392 C 0.62782 0.64563 0.04268 0.0
C393 C 0.56703 0.51306 0.07088 0.0
C394 C 0.60999 0.47503 0.08503 0.0
C395 C 0.57694 0.47331 0.07281 0.0
C396 C 0.63468 0.51764 0.09512 0.0
C397 C 0.59059 0.55506 0.08149 0.0
C398 C 0.62481 0.55754 0.09334 0.0
C399 C 0.63642 0.57572 0.01261 0.0
C400 C 0.53151 0.50928 0.05797 0.0
C401 C 0.33875 0.43094 0.01718 0.0
C402 C 0.36173 0.42206 1.00374 0.0
C403 C 0.49034 0.60323 1.00547 0.0
C404 C 0.65752 0.7969 0.98725 0.0
C405 C 0.64685 0.81775 0.97304 0.0
C406 C 0.68489 0.86394 0.96585 0.0
C407 C 0.73346 0.88713 0.97272 0.0
C408 C 0.70648 0.82301 0.9938 0.0
C409 C 0.74404 0.86686 0.98645 0.0
C410 C 0.55302 0.67838 0.04138 0.0
C411 C 0.61742 0.75098 0.99617 0.0
H412 H 0.5582 0.44041 0.06492 0.0
H413 H 0.66015 0.51926 0.10464 0.0
H414 H 0.58279 0.586 0.08071 0.0
H415 H 0.64319 0.59016 0.1013 0.0
H416 H 0.60905 0.79932 0.96801 0.0
H417 H 0.76355 0.92175 0.96751 0.0
H418 H 0.71591 0.8104 1.00492 0.0
H419 H 0.78156 0.88598 0.99168 0.0
Tb420 Tb 1.03043 0.53113 0.20531 0.0
C421 C 0.0666 0.66956 0.15041 0.0
C422 C 0.07333 0.74781 0.16035 0.0
C423 C 0.11456 0.74707 0.13487 0.0
C424 C 1.05471 0.69548 0.16204 0.0
C425 C 0.09686 0.69506 0.13679 0.0
C426 C 0.10297 0.77339 0.14664 0.0
C427 C 0.09113 0.61602 0.12836 0.0
N428 N 1.05071 0.61946 0.15313 0.0
C429 C 1.06131 0.59216 0.14212 0.0
C430 C 0.10898 0.66759 0.12568 0.0
Tb431 Tb 0.99606 0.5846 0.17459 0.0
N432 N 1.02604 0.66953 0.1752 0.0
C433 C 1.01464 0.69367 0.18713 0.0
C434 C 0.06199 0.7729 0.17259 0.0
C435 C 1.03268 0.74573 0.18605 0.0
H436 H 1.04646 0.55209 0.14389 0.0
H437 H 1.02357 0.7648 0.19551 0.0
H438 H 0.11746 0.81362 0.14508 0.0
H439 H 0.09994 0.59453 0.11972 0.0
H440 H 0.99076 0.67262 0.1973 0.0
H441 H 0.1026 0.49147 0.14953 0.0
H442 H 0.07572 0.81318 0.17177 0.0
H443 H 0.94473 0.45306 0.23219 0.0
H444 H 0.08803 0.5442 0.16855 0.0
H445 H 0.89839 0.36195 0.2379 0.0
H446 H 0.13781 0.76744 0.12445 0.0
H447 H 0.064 0.39967 0.15456 0.0
H448 H 1.00729 0.32449 0.17174 0.0
H449 H 0.13211 0.68583 0.11502 0.0
H450 H 0.9508 0.28911 0.1955 0.0
N451 N 1.04446 0.48525 0.18547 0.0
C452 C 0.07251 0.50531 0.17159 0.0
C453 C 1.05833 0.42318 0.1633 0.0
C454 C 1.028 0.40216 0.17712 0.0
C455 C 0.08023 0.47493 0.16045 0.0
C456 C 1.0217 0.4345 0.18809 0.0
H457 H 0.90951 0.30264 0.22004 0.0
N458 N 0.98185 0.44641 0.21089 0.0
C459 C 0.9237 0.37615 0.2275 0.0
C460 C 0.98934 0.41447 0.20126 0.0
C461 C 0.95003 0.42799 0.2241 0.0
C462 C 0.93023 0.34283 0.21744 0.0
C463 C 0.96329 0.36177 0.20412 0.0
O464 O 1.03453 0.52166 0.23062 0.0
O465 O 1.04093 0.60283 0.19712 0.0
O466 O 0.0844 0.62518 0.17383 0.0
O467 O 0.10793 0.59125 0.19504 0.0
O468 O 1.02723 0.58623 0.22135 0.0
O469 O 0.09465 0.53101 0.21465 0.0
O470 O 0.9485 0.55518 0.15404 0.0
O471 O 0.9708 0.51136 0.18728 0.0
O472 O 0.95596 0.5202 0.21318 0.0
O473 O 0.94465 0.57523 0.19587 0.0
O474 O 0.96982 0.50782 0.16306 0.0
O475 O 0.94357 0.61011 0.1689 0.0
C476 C 1.03822 0.62179 0.21091 0.0
C477 C 0.11767 0.57089 0.24049 0.0
C478 C 0.20378 0.61779 0.25065 0.0
C479 C 0.16688 0.57908 0.24099 0.0
C480 C 0.1915 0.64941 0.25967 0.0
C481 C 0.10526 0.60185 0.24998 0.0
C482 C 0.14215 0.641 0.25944 0.0
C483 C 0.12183 0.62552 0.18281 0.0
C484 C 0.08063 0.5305 0.22978 0.0
C485 C 0.9705 0.32964 0.19351 0.0
C486 C 1.00274 0.34979 0.18001 0.0
C487 C 0.95434 0.47833 0.17573 0.0
C488 C 0.92521 0.60888 0.1396 0.0
C489 C 0.88185 0.6122 0.13453 0.0
C490 C 0.88126 0.63388 0.11893 0.0
C491 C 0.9244 0.65301 0.10903 0.0
C492 C 0.96479 0.62446 0.12825 0.0
C493 C 0.96536 0.6478 0.11356 0.0
C494 C 0.93193 0.54539 0.20919 0.0
C495 C 0.92798 0.58374 0.15538 0.0
H496 H 0.17656 0.55507 0.23381 0.0
H497 H 0.21952 0.6794 0.26723 0.0
H498 H 0.06734 0.59616 0.25012 0.0
H499 H 0.13237 0.66468 0.26668 0.0
H500 H 0.84885 0.59712 0.14234 0.0
H501 H 0.92531 0.66969 0.0972 0.0
H502 H 0.99472 0.61651 0.13021 0.0
H503 H 0.9971 0.66014 0.1053 0.0
Tb504 Tb 0.10757 0.56498 0.47437 0.0
C505 C 0.09039 0.6553 0.53405 0.0
C506 C 1.04894 0.70562 0.53154 0.0
C507 C 1.04566 0.66408 0.55736 0.0
C508 C 0.07865 0.68651 0.52488 0.0
C509 C 0.07334 0.64317 0.55034 0.0
C510 C 1.03344 0.69518 0.54797 0.0
C511 C 0.10958 0.58834 0.55117 0.0
N512 N 0.11555 0.63425 0.52655 0.0
C513 C 0.12563 0.6014 0.53494 0.0
C514 C 0.08358 0.60948 0.55894 0.0
Tb515 Tb 0.1466 0.66642 0.50107 0.0
N516 N 0.09187 0.69315 0.50875 0.0
C517 C 0.07786 0.71983 0.49869 0.0
C518 C 1.03429 0.73304 0.5213 0.0
C519 C 1.04857 0.73991 0.50478 0.0
H520 H 0.14583 0.58477 0.52927 0.0
H521 H 1.03757 0.76118 0.4968 0.0
H522 H 1.01089 0.70986 0.55341 0.0
H523 H 0.11744 0.56203 0.5577 0.0
H524 H 0.09067 0.72685 0.48613 0.0
H525 H 1.0454 0.46993 0.53373 0.0
H526 H 1.01143 0.74843 0.52594 0.0
H527 H 0.19161 0.5664 0.44789 0.0
H528 H 1.05677 0.53163 0.51315 0.0
H529 H 0.23782 0.52081 0.44361 0.0
H530 H 1.03249 0.65544 0.56991 0.0
H531 H 0.08438 0.4163 0.53025 0.0
H532 H 0.14004 0.39448 0.51388 0.0
H533 H 0.07108 0.59908 0.57149 0.0
H534 H 0.19364 0.40939 0.48969 0.0
N535 N 0.09721 0.51136 0.49619 0.0
C536 C 0.07156 0.50728 0.51042 0.0
C537 C 0.08828 0.4427 0.52068 0.0
C538 C 0.11706 0.44871 0.50671 0.0
C539 C 0.06603 0.47265 0.52262 0.0
C540 C 0.12112 0.48387 0.49461 0.0
H541 H 0.23057 0.45654 0.4636 0.0
N542 N 0.15745 0.52899 0.47043 0.0
C543 C 0.21395 0.51262 0.45429 0.0
C544 C 0.15206 0.49286 0.48124 0.0
C545 C 0.18745 0.53857 0.45687 0.0
C546 C 0.20965 0.4763 0.46556 0.0
C547 C 0.17855 0.46605 0.47925 0.0
O548 O 0.11298 0.5676 0.44876 0.0
O549 O 0.11426 0.63942 0.47669 0.0
O550 O 1.05882 0.61811 0.50275 0.0
O551 O 1.03258 0.54536 0.48691 0.0
O552 O 1.05063 0.58301 0.4661 0.0
O553 O 0.06434 0.49742 0.46139 0.0
O554 O 0.2015 0.71633 0.51805 0.0
O555 O 0.16192 0.60655 0.493 0.0
O556 O 0.17912 0.62761 0.46397 0.0
O557 O 0.18753 0.69882 0.4774 0.0
O558 O 0.2056 0.6486 0.51078 0.0
O559 O 0.18394 0.74526 0.49668 0.0
C560 C 0.073 0.63037 0.46966 0.0
C561 C 1.0359 0.5135 0.43611 0.0
C562 C 0.94593 0.4738 0.42995 0.0
C563 C 0.9854 0.48501 0.44102 0.0
C564 C 0.95806 0.49627 0.41428 0.0
C565 C 1.04718 0.5353 0.42043 0.0
C566 C 1.00836 0.52749 0.40971 0.0
C567 C 1.02109 0.57382 0.49691 0.0
C568 C 0.07697 0.52097 0.44727 0.0
C569 C 0.17354 0.43022 0.49101 0.0
C570 C 0.14293 0.42164 0.50474 0.0
C571 C 0.20088 0.61292 0.5012 0.0
C572 C 0.2115 0.79976 0.52057 0.0
C573 C 0.24455 0.82096 0.53437 0.0
C574 C 0.24901 0.86434 0.5427 0.0
C575 C 0.21894 0.88457 0.53735 0.0
C576 C 0.18346 0.82272 0.5156 0.0
C577 C 0.18654 0.8639 0.52404 0.0
C578 C 0.20152 0.67773 0.46558 0.0
C579 C 0.20908 0.75705 0.51045 0.0
H580 H 0.97692 0.4705 0.45341 0.0
H581 H 0.92911 0.4883 0.40525 0.0
H582 H 0.08599 0.55827 0.41649 0.0
H583 H 1.01729 0.54431 0.39762 0.0
H584 H 0.26772 0.80501 0.5382 0.0
H585 H 0.22092 0.91714 0.54344 0.0
H586 H 0.1597 0.80972 0.50488 0.0
H587 H 0.16431 0.88068 0.52001 0.0
Tb588 Tb 0.57267 0.0798 0.64155 0.0
C589 C 0.46722 0.06188 0.70163 0.0
C590 C 0.37587 1.01928 0.69937 0.0
C591 C 0.41491 1.01671 0.72506 0.0
C592 C 0.42413 0.0497 0.6926 0.0
C593 C 0.46296 0.04483 0.71791 0.0
C594 C 0.37147 1.00388 0.7158 0.0
C595 C 0.55358 0.08167 0.71846 0.0
N596 N 0.51293 0.08742 0.694 0.0
C597 C 0.55594 0.09766 0.70224 0.0
C598 C 0.50699 0.05545 0.72637 0.0
Tb599 Tb 0.5107 0.11874 0.6686 0.0
N600 N 0.4301 0.06292 0.67647 0.0
C601 C 0.38925 0.04789 0.66648 0.0
C602 C 0.33372 1.00367 0.68921 0.0
C603 C 0.34047 1.01769 0.67268 0.0
H604 H 0.59239 0.11768 0.69646 0.0
H605 H 0.3081 1.00591 0.66477 0.0
H606 H 0.33468 0.98085 0.72132 0.0
H607 H 0.5878 0.08966 0.72486 0.0
H608 H 0.39444 0.0607 0.65393 0.0
H609 H 0.59569 1.00779 0.70053 0.0
H610 H 0.2959 0.98018 0.69395 0.0
H611 H 0.66104 0.16719 0.61715 0.0
H612 H 0.55093 1.02788 0.6802 0.0
H613 H 0.75217 0.20791 0.61348 0.0
H614 H 0.41091 1.00357 0.73761 0.0
H615 H 0.68658 1.038 0.69716 0.0
H616 H 0.76587 0.09008 0.6813 0.0
H617 H 0.50537 1.04298 0.7389 0.0
H618 H 0.80886 0.14627 0.65797 0.0
N619 N 0.61219 0.06344 0.6633 0.0
C620 C 0.58896 1.03841 0.67745 0.0
C621 C 0.66629 0.04543 0.68766 0.0
C622 C 0.69123 0.07455 0.67397 0.0
C623 C 0.61505 1.0281 0.68954 0.0
C624 C 0.66295 0.08329 0.66197 0.0
H625 H 0.80421 0.19097 0.63286 0.0
N626 N 0.65909 0.12533 0.63854 0.0
C627 C 0.73445 0.18187 0.62356 0.0
C628 C 0.68721 0.1154 0.64912 0.0
C629 C 0.6822 0.15812 0.62574 0.0
C630 C 0.76366 0.1722 0.63449 0.0
C631 C 0.74023 0.13884 0.64751 0.0
O632 O 0.58005 0.09433 0.61647 0.0
O633 O 0.50584 0.08798 0.644 0.0
O634 O 0.47056 1.03044 0.66965 0.0
O635 O 0.51547 1.00345 0.65324 0.0
O636 O 0.4983 1.02458 0.63274 0.0
O637 O 0.5909 1.03478 0.62647 0.0
O638 O 0.5165 0.17424 0.68556 0.0
O639 O 0.58551 0.13348 0.66055 0.0
O640 O 0.58474 0.1542 0.63244 0.0
O641 O 0.5203 0.16121 0.64515 0.0
O642 O 0.58707 0.17749 0.67829 0.0
O643 O 0.46811 0.15555 0.66475 0.0
C644 C 0.47392 0.04753 0.63655 0.0
C645 C 0.54915 1.02086 0.60064 0.0
C646 C 0.50401 0.93741 0.58821 0.0
C647 C 0.53978 0.97117 0.59937 0.0
C648 C 0.47685 0.95331 0.57835 0.0
C649 C 0.52296 1.03696 0.59022 0.0
C650 C 0.4868 1.00319 0.57926 0.0
C651 C 0.47576 0.99214 0.66331 0.0
C652 C 0.58469 0.05511 0.61314 0.0
C653 C 0.76822 0.12876 0.65903 0.0
C654 C 0.74374 0.09667 0.67226 0.0
C655 C 0.61796 0.17253 0.66874 0.0
C656 C 0.44255 0.18193 0.68927 0.0
C657 C 0.45457 0.21633 0.70274 0.0
C658 C 0.41553 0.21688 0.71235 0.0
C659 C 0.36527 0.18043 0.70874 0.0
C660 C 0.39144 0.14949 0.68564 0.0
C661 C 0.35351 0.14775 0.69551 0.0
C662 C 0.55675 0.1765 0.63381 0.0
C663 C 0.48228 0.1811 0.67844 0.0
H664 H 0.56007 0.95846 0.60718 0.0
H665 H 0.44914 0.92766 0.56967 0.0
H666 H 0.52981 0.07543 0.59068 0.0
H667 H 0.46656 1.01579 0.57143 0.0
H668 H 0.49367 0.24328 0.70534 0.0
H669 H 0.33432 0.17746 0.71607 0.0
H670 H 0.38027 0.1255 0.67499 0.0
H671 H 0.31443 0.12132 0.6927 0.0
Tb672 Tb 0.52921 0.55788 0.80512 0.0
C673 C 0.45833 0.47068 0.8687 0.0
C674 C 0.40789 0.37909 0.87045 0.0
C675 C 0.45835 0.42732 0.89376 0.0
C676 C 0.42458 0.42454 0.86172 0.0
C677 C 0.47617 0.47238 0.88474 0.0
C678 C 0.42425 0.38079 0.88664 0.0
C679 C 0.52985 0.56251 0.88146 0.0
N680 N 0.47528 0.51342 0.85945 0.0
C681 C 0.51095 0.55903 0.86562 0.0
C682 C 0.51211 0.51914 0.89113 0.0
Tb683 Tb 0.4355 0.50144 0.83462 0.0
N684 N 0.41163 0.42423 0.84577 0.0
C685 C 0.38133 0.3798 0.83784 0.0
C686 C 0.37651 0.33331 0.86246 0.0
C687 C 0.36344 0.33368 0.84606 0.0
H688 H 0.52575 0.59313 0.85849 0.0
H689 H 0.33941 0.29849 0.83977 0.0
H690 H 0.41165 0.3463 0.89363 0.0
H691 H 0.55817 0.59878 0.88622 0.0
H692 H 0.3709 0.3803 0.8252 0.0
H693 H 0.64051 0.58971 0.86031 0.0
H694 H 0.36283 0.29751 0.86876 0.0
H695 H 0.51892 0.64118 0.78033 0.0
H696 H 0.57113 0.54026 0.84168 0.0
H697 H 0.56214 0.73283 0.77645 0.0
H698 H 0.47142 0.42795 0.90615 0.0
H699 H 0.6958 0.68132 0.85569 0.0
H700 H 0.71515 0.75862 0.83939 0.0
H701 H 0.52692 0.52207 0.90339 0.0
H702 H 0.6926 0.79777 0.81699 0.0
N703 N 0.58732 0.60126 0.82538 0.0
C704 C 0.5954 0.57926 0.8388 0.0
C705 C 0.66569 0.65932 0.84711 0.0
C706 C 0.65628 0.68229 0.83379 0.0
C707 C 0.63465 0.60768 0.84973 0.0
C708 C 0.6163 0.65191 0.82305 0.0
H709 H 0.63466 0.78871 0.79393 0.0
N710 N 0.56351 0.64363 0.80095 0.0
C711 C 0.57409 0.71682 0.78615 0.0
C712 C 0.60373 0.6739 0.81047 0.0
C713 C 0.54896 0.66453 0.78868 0.0
C714 C 0.61519 0.74819 0.79594 0.0
C715 C 0.63067 0.72691 0.80824 0.0
O716 O 0.55235 0.57755 0.78072 0.0
O717 O 0.46533 0.48602 0.81224 0.0
O718 O 0.4787 0.45604 0.83449 0.0
O719 O 0.54412 0.4964 0.81578 0.0
O720 O 0.47213 0.50429 0.78835 0.0
O721 O 0.58944 0.54917 0.79638 0.0
O722 O 0.38492 0.50135 0.85248 0.0
O723 O 0.49642 0.57457 0.82581 0.0
O724 O 0.46731 0.57051 0.79681 0.0
O725 O 0.39886 0.51263 0.81245 0.0
O726 O 0.45127 0.57947 0.84203 0.0
O727 O 0.35709 0.46081 0.82984 0.0
C728 C 0.44585 0.46769 0.79825 0.0
C729 C 0.57498 0.52083 0.76894 0.0
C730 C 0.60456 0.46812 0.75615 0.0
C731 C 0.61114 0.50574 0.7674 0.0
C732 C 0.56051 0.44407 0.74672 0.0
C733 C 0.53177 0.498 0.75889 0.0
C734 C 0.52438 0.45935 0.74803 0.0
C735 C 0.51956 0.45903 0.82688 0.0
C736 C 0.58275 0.55929 0.78137 0.0
C737 C 0.67142 0.75708 0.81856 0.0
C738 C 0.6843 0.73479 0.83129 0.0
C739 C 0.48813 0.60828 0.83254 0.0
C740 C 0.30007 0.43055 0.85326 0.0
C741 C 0.2787 0.44115 0.86736 0.0
C742 C 0.23326 0.4026 0.87475 0.0
C743 C 0.21141 0.35355 0.86817 0.0
C744 C 0.27525 0.3811 0.84699 0.0
C745 C 0.23216 0.34305 0.85454 0.0
C746 C 0.41808 0.54536 0.8 0.0
C747 C 0.34475 0.47139 0.8441 0.0
H748 H 0.64495 0.52374 0.77488 0.0
H749 H 0.55499 0.41497 0.738 0.0
H750 H 0.5035 0.50955 0.7594 0.0
H751 H 0.49076 0.44152 0.74053 0.0
H752 H 0.29616 0.47933 0.87212 0.0
H753 H 0.17762 0.32287 0.87356 0.0
H754 H 0.28845 0.37162 0.83598 0.0
H755 H 0.21404 0.30511 0.84957 0.0
Tb756 Tb 1.01715 0.52062 0.97198 0.0
C757 C 1.03653 0.43473 0.03256 0.0
C758 C 0.07808 0.38443 0.03032 0.0
C759 C 0.08221 0.42748 0.05586 0.0
C760 C 1.04805 0.40305 0.02357 0.0
C761 C 1.05417 0.44785 0.04875 0.0
C762 C 0.09419 0.39589 0.04666 0.0
C763 C 1.01787 0.50263 0.04927 0.0
N764 N 1.01098 0.45521 0.02496 0.0
C765 C 1.00125 0.4886 0.03315 0.0
C766 C 1.04417 0.48198 0.05714 0.0
Tb767 Tb 0.97919 0.42161 0.99969 0.0
N768 N 1.03425 0.3954 0.00751 0.0
C769 C 1.04794 0.36811 0.99762 0.0
C770 C 0.09242 0.35644 0.02025 0.0
C771 C 0.0775 0.34849 1.00381 0.0
H772 H 0.98106 0.50512 0.02739 0.0
H773 H 0.08822 0.32671 0.99597 0.0
H774 H 0.117 0.38162 0.05216 0.0
H775 H 1.01029 0.52936 0.05563 0.0
H776 H 1.0346 0.36016 0.98514 0.0
H777 H 0.08498 0.61885 0.03053 0.0
H778 H 0.11551 0.3414 0.02498 0.0
H779 H 0.92958 0.51837 0.94674 0.0
H780 H 0.06823 0.55388 0.01061 0.0
H781 H 0.88668 0.56693 0.94226 0.0
H782 H 0.09584 0.4369 0.06833 0.0
H783 H 1.05144 0.67703 0.02647 0.0
H784 H 0.9979 0.70149 0.01 0.0
H785 H 1.05713 0.49314 0.06961 0.0
H786 H 0.94243 0.68618 0.98632 0.0
N787 N 1.03093 0.57687 0.99332 0.0
C788 C 1.05612 0.5802 0.00759 0.0
C789 C 1.04539 0.64921 0.01716 0.0
C790 C 1.01639 0.64363 1.0033 0.0
C791 C 0.06458 0.6167 0.01943 0.0
C792 C 1.00947 0.60653 0.99156 0.0
H793 H 0.90033 0.63582 0.96121 0.0
N794 N 0.96934 0.55926 0.96819 0.0
C795 C 0.91221 0.57602 0.95252 0.0
C796 C 0.97765 0.59743 0.97851 0.0
C797 C 0.93713 0.54854 0.95518 0.0
C798 C 0.92006 0.61488 0.9632 0.0
C799 C 0.95286 0.62589 0.97644 0.0
O800 O 1.00544 0.51447 0.94672 0.0
O801 O 1.01012 0.44616 0.97501 0.0
O802 O 0.06713 0.46974 1.00081 0.0
O803 O 0.09319 0.54082 0.98408 0.0
O804 O 0.07325 0.5014 0.96368 0.0
O805 O 0.06235 0.58464 0.95736 0.0
O806 O 0.92522 0.37239 0.01707 0.0
O807 O 0.96379 0.48117 0.99117 0.0
O808 O 0.94431 0.45734 0.96252 0.0
O809 O 0.93638 0.3872 0.97654 0.0
O810 O 0.92103 0.44069 0.00938 0.0
O811 O 0.94146 0.3427 0.99563 0.0
C812 C 1.05086 0.45444 0.96777 0.0
C813 C 0.08046 0.55971 0.93172 0.0
C814 C 0.16283 0.605 0.91872 0.0
C815 C 0.12627 0.6042 0.92932 0.0
C816 C 0.15347 0.56092 0.91039 0.0
C817 C 0.07072 0.51602 0.92285 0.0
C818 C 0.1072 0.51672 0.91233 0.0
C819 C 0.10492 0.51318 0.99443 0.0
C820 C 1.04402 0.55884 0.94383 0.0
C821 C 0.96106 0.66395 0.98772 0.0
C822 C 0.99274 0.67276 1.00116 0.0
C823 C 0.92537 0.47577 0.99954 0.0
C824 C 0.91465 0.28871 0.01962 0.0
C825 C 0.88186 0.2677 0.03349 0.0
C826 C 0.87712 0.22412 0.04179 0.0
C827 C 0.90703 0.20374 0.03634 0.0
C828 C 0.94233 0.2655 0.01453 0.0
C829 C 0.93918 0.22425 0.02295 0.0
C830 C 0.9216 0.40736 0.96467 0.0
C831 C 0.91697 0.33141 0.00952 0.0
H832 H 0.13405 0.63813 0.93599 0.0
H833 H 0.18149 0.56099 0.90222 0.0
H834 H 1.03525 0.48114 0.92416 0.0
H835 H 0.09962 0.4829 0.90569 0.0
H836 H 0.85903 0.28395 0.03741 0.0
H837 H 0.90538 0.17134 0.04246 0.0
H838 H 0.96588 0.27839 1.00374 0.0
H839 H 0.96124 0.20735 0.01886 0.0
Tb840 Tb 0.55182 1.00915 0.14186 0.0
C841 C 0.69411 1.03556 0.19451 0.0
C842 C 0.77619 0.06048 0.18271 0.0
C843 C 0.76984 0.08384 0.21077 0.0
C844 C 0.72328 1.03582 0.18143 0.0
C845 C 0.71709 0.06008 0.20926 0.0
C846 C 0.79933 0.08412 0.19752 0.0
C847 C 0.63434 1.03791 0.21952 0.0
N848 N 0.64335 1.01459 0.19215 0.0
C849 C 0.61323 1.01437 0.20459 0.0
C850 C 0.68644 0.06089 0.22187 0.0
Tb851 Tb 0.61367 0.97027 0.16814 0.0
N852 N 0.69951 1.01344 0.1672 0.0
C853 C 0.7263 1.01208 0.15404 0.0
C854 C 0.80412 0.06088 0.16904 0.0
C855 C 0.77904 1.0365 0.15464 0.0
H856 H 0.57285 0.99586 0.20319 0.0
H857 H 0.80022 1.03565 0.14413 0.0
H858 H 0.83998 0.10312 0.1988 0.0
H859 H 0.61031 1.038 0.22927 0.0
H860 H 0.70684 0.99068 0.14327 0.0
H861 H 0.53036 0.06846 0.20316 0.0
H862 H 0.84492 0.07948 0.16951 0.0
H863 H 0.462 0.92503 0.11766 0.0
H864 H 0.57236 0.04752 0.18178 0.0
H865 H 0.3711 0.889 0.11365 0.0
H866 H 0.78826 0.10279 0.22203 0.0
H867 H 0.44213 0.04872 0.19934 0.0
H868 H 0.36318 1.00595 0.18249 0.0
H869 H 0.7026 0.0793 0.23343 0.0
H870 H 0.31894 0.95466 0.15836 0.0
N871 N 0.51332 1.02361 0.16433 0.0
C872 C 0.53598 1.04224 0.17914 0.0
C873 C 0.46153 1.04137 0.18951 0.0
C874 C 0.43637 1.01717 0.17516 0.0
C875 C 0.51128 0.05274 0.19167 0.0
C876 C 0.4635 1.00831 0.16279 0.0
H877 H 0.32131 0.90962 0.1329 0.0
N878 N 0.46547 0.96744 0.13897 0.0
C879 C 0.38957 0.91442 0.1238 0.0
C880 C 0.43857 0.97888 0.14957 0.0
C881 C 0.44154 0.93538 0.12614 0.0
C882 C 0.36164 0.92621 0.13464 0.0
C883 C 0.38597 0.95841 0.14783 0.0
O884 O 0.5462 0.99533 0.11668 0.0
O885 O 0.61942 1.00311 0.14377 0.0
O886 O 0.6524 0.05826 0.17058 0.0
O887 O 0.60707 0.08507 0.15443 0.0
O888 O 0.62554 0.06792 0.13393 0.0
O889 O 0.53244 0.05288 0.12656 0.0
O890 O 0.60206 0.91837 0.18746 0.0
O891 O 0.53773 0.94758 0.15814 0.0
O892 O 0.54217 0.93652 0.13165 0.0
O893 O 0.60415 0.92672 0.14504 0.0
O894 O 0.53842 0.9343 0.18157 0.0
O895 O 0.63922 0.91757 0.16549 0.0
C896 C 0.65078 0.04527 0.13696 0.0
C897 C 0.5753 0.06893 0.10091 0.0
C898 C 0.61664 0.15244 0.08838 0.0
C899 C 0.58203 0.11763 0.09961 0.0
C900 C 0.6455 0.13866 0.07852 0.0
C901 C 0.60319 0.05485 0.09052 0.0
C902 C 0.63831 0.08973 0.0795 0.0
C903 C 0.64675 0.09663 0.16455 0.0
C904 C 0.54013 1.0336 0.11329 0.0
C905 C 0.35926 0.96969 0.15953 0.0
C906 C 0.38446 0.99904 0.17321 0.0
C907 C 0.50654 0.92618 0.16998 0.0
C908 C 0.66594 0.89402 0.19014 0.0
C909 C 0.6532 0.86033 0.20383 0.0
C910 C 0.69112 0.85397 0.21203 0.0
C911 C 0.74126 0.88267 0.20669 0.0
C912 C 0.71669 0.92051 0.18514 0.0
C913 C 0.75382 0.91557 0.19346 0.0
C914 C 0.56991 0.91382 0.13309 0.0
C915 C 0.62694 0.89939 0.18028 0.0
H916 H 0.56043 0.12873 0.10743 0.0
H917 H 0.67239 0.16513 0.06979 0.0
H918 H 0.59834 1.01713 0.09101 0.0
H919 H 0.65987 0.07874 0.07167 0.0
H920 H 0.61424 0.8383 0.20771 0.0
H921 H 0.771 0.87907 0.21271 0.0
H922 H 0.72807 0.94455 0.17451 0.0
H923 H 0.79264 0.93674 0.18939 0.0
Tb924 Tb 0.586 0.52579 0.3087 0.0
C925 C 0.6735 0.62706 0.36888 0.0
C926 C 0.72536 0.7186 0.36798 0.0
C927 C 0.68047 0.67695 0.39299 0.0
C928 C 0.70598 0.671 0.36047 0.0
C929 C 0.65985 0.62966 0.38518 0.0
C930 C 0.71317 0.72131 0.38442 0.0
C931 C 0.60496 0.53901 0.38452 0.0
N932 N 0.65344 0.58217 0.36071 0.0
C933 C 0.61979 0.53831 0.36834 0.0
C934 C 0.62526 0.58479 0.39302 0.0
Tb935 Tb 0.68784 0.58665 0.33542 0.0
N936 N 0.71451 0.66684 0.34433 0.0
C937 C 0.74326 0.70878 0.33505 0.0
C938 C 0.75522 0.76193 0.35859 0.0
C939 C 0.76402 0.757 0.34204 0.0
H940 H 0.6038 0.50255 0.36208 0.0
H941 H 0.78701 0.79026 0.3347 0.0
H942 H 0.72793 0.75755 0.39049 0.0
H943 H 0.578 0.50415 0.39046 0.0
H944 H 0.75112 0.70476 0.3224 0.0
H945 H 0.48142 0.50105 0.36571 0.0
H946 H 0.77102 0.79931 0.36392 0.0
H947 H 0.60016 0.43553 0.28943 0.0
H948 H 0.55315 0.54498 0.34752 0.0
H949 H 0.55141 0.34411 0.28587 0.0
H950 H 0.67067 0.6797 0.40556 0.0
H951 H 0.41621 0.41287 0.35992 0.0
H952 H 0.38926 0.33456 0.34323 0.0
H953 H 0.61365 0.58511 0.40554 0.0
H954 H 0.40965 0.29092 0.32174 0.0
N955 N 0.52738 0.48612 0.32961 0.0
C956 C 0.52427 0.50817 0.34388 0.0
C957 C 0.44714 0.43288 0.3514 0.0
C958 C 0.45319 0.40841 0.33786 0.0
C959 C 0.48376 0.48259 0.35468 0.0
C960 C 0.49443 0.43625 0.32721 0.0
H961 H 0.47133 0.29377 0.30087 0.0
N962 N 0.54957 0.43906 0.30692 0.0
C963 C 0.53809 0.3626 0.29421 0.0
C964 C 0.50609 0.41169 0.31537 0.0
C965 C 0.56605 0.41497 0.29648 0.0
C966 C 0.49276 0.33438 0.30258 0.0
C967 C 0.47651 0.35871 0.31349 0.0
O968 O 0.58522 0.50858 0.2839 0.0
O969 O 0.6602 0.5921 0.31128 0.0
O970 O 0.64209 0.62915 0.33646 0.0
O971 O 0.56809 0.58301 0.32118 0.0
O972 O 0.60588 0.60046 0.29941 0.0
O973 O 0.52291 0.51299 0.29451 0.0
O974 O 0.73673 0.58013 0.3525 0.0
O975 O 0.6246 0.51266 0.32831 0.0
O976 O 0.6505 0.51991 0.29774 0.0
O977 O 0.72119 0.57961 0.31183 0.0
O978 O 0.67307 0.50924 0.34331 0.0
O979 O 0.76658 0.62699 0.3312 0.0
C980 C 0.65258 0.62448 0.30362 0.0
C981 C 0.54965 0.54659 0.26768 0.0
C982 C 0.51659 0.59443 0.25348 0.0
C983 C 0.51124 0.55828 0.26521 0.0
C984 C 0.56096 0.61924 0.24417 0.0
C985 C 0.59341 0.5707 0.25788 0.0
C986 C 0.59895 0.60686 0.24626 0.0
C987 C 0.5975 0.62302 0.33095 0.0
C988 C 0.54482 0.51127 0.28094 0.0
C989 C 0.43312 0.33148 0.32313 0.0
C990 C 0.42145 0.35635 0.33532 0.0
C991 C 0.63351 0.47946 0.33502 0.0
C992 C 0.82064 0.65123 0.35518 0.0
C993 C 0.84076 0.63736 0.36883 0.0
C994 C 0.8837 0.67461 0.37756 0.0
C995 C 0.90507 0.7253 0.37268 0.0
C996 C 0.84476 0.70246 0.35057 0.0
C997 C 0.88578 0.73898 0.35938 0.0
C998 C 0.7005 0.54598 0.29969 0.0
C999 C 0.77767 0.61252 0.34494 0.0
H1000 H 0.47736 0.53987 0.27265 0.0
H1001 H 0.56571 0.64726 0.23509 0.0
H1002 H 0.62379 0.56233 0.25932 0.0
H1003 H 0.63287 0.62546 0.2389 0.0
H1004 H 0.82402 0.59797 0.37236 0.0
H1005 H 0.9376 0.75453 0.37907 0.0
H1006 H 0.83277 0.71459 0.33987 0.0
H1007 H 0.90348 0.77823 0.35564 0.0
H1008 H 0.14258 0.67596 0.2106 0.0
H1009 H 0.14554 0.81051 0.29456 0.0
H1010 H 1.01367 0.67895 0.23013 0.0
H1011 H 0.28441 0.84372 0.27047 0.0
H1012 H 0.09836 0.76089 0.27099 0.0
H1013 H 0.19636 0.73862 0.23074 0.0
C1014 C 0.12584 0.69204 0.2183 0.0
C1015 C 0.07339 0.67339 0.21777 0.0
C1016 C 0.13913 0.77905 0.27071 0.0
C1017 C 0.13481 0.74297 0.24242 0.0
C1018 C 0.16645 0.80763 0.28428 0.0
C1019 C 0.21967 0.83273 0.28462 0.0
C1020 C 0.16442 0.77412 0.25708 0.0
C1021 C 0.24368 0.82548 0.27093 0.0
C1022 C 0.15664 0.72714 0.23029 0.0
C1023 C 1.05394 0.6932 0.22948 0.0
N1024 N 0.21601 0.79703 0.25777 0.0
N1025 N 0.0842 0.72598 0.24133 0.0
H1026 H 0.38726 0.12733 0.4605 0.0
H1027 H 0.51975 0.11493 0.3779 0.0
H1028 H 0.49907 0.26439 0.43707 0.0
H1029 H 0.37767 0.99372 0.39493 0.0
H1030 H 0.51542 0.17087 0.3984 0.0
H1031 H 0.38885 0.07873 0.43709 0.0
C1032 C 0.41237 0.14753 0.45043 0.0
C1033 C 0.44237 0.20074 0.45087 0.0
C1034 C 0.48419 0.13262 0.39729 0.0
C1035 C 0.44463 0.1438 0.42351 0.0
C1036 C 0.48582 0.1006 0.3851 0.0
C1037 C 0.44737 0.04954 0.3837 0.0
C1038 C 0.4447 0.11338 0.40879 0.0
C1039 C 0.40715 1.033 0.3949 0.0
C1040 C 0.41307 0.11941 0.43694 0.0
C1041 C 0.47509 0.22372 0.43744 0.0
N1042 N 0.4072 0.0643 0.40695 0.0
N1043 N 0.47526 0.19526 0.42435 0.0
H1044 H 0.32464 0.53178 0.60366 0.0
H1045 H 0.42252 0.35869 0.55962 0.0
H1046 H 0.25709 0.37254 0.61371 0.0
H1047 H 0.46733 0.51168 0.54635 0.0
H1048 H 0.3624 0.36051 0.57951 0.0
H1049 H 0.37994 0.52414 0.58344 0.0
C1050 C 0.32307 0.49564 0.6022 0.0
C1051 C 0.28717 0.45318 0.61094 0.0
C1052 C 0.38417 0.39312 0.57176 0.0
C1053 C 0.35009 0.44365 0.58718 0.0
C1054 C 0.41788 0.39172 0.56012 0.0
C1055 C 0.4483 0.434 0.5502 0.0
C1056 C 0.38151 0.43773 0.5739 0.0
C1057 C 0.44247 0.47677 0.5524 0.0
C1058 C 0.35416 0.49104 0.59039 0.0
C1059 C 0.28529 0.40668 0.60772 0.0
N1060 N 0.41046 0.4776 0.5639 0.0
N1061 N 0.31613 0.40315 0.5962 0.0
H1062 H 0.10494 0.40322 0.72585 0.0
H1063 H 0.83283 0.2565 0.77052 0.0
H1064 H 0.98144 0.42458 0.71165 0.0
H1065 H 0.97053 0.26942 0.7896 0.0
H1066 H 0.88129 0.30931 0.74689 0.0
H1067 H 1.05025 0.34119 0.74626 0.0
C1068 C 0.06545 0.39272 0.72624 0.0
C1069 C 1.04744 0.41756 0.71604 0.0
C1070 C 0.90066 0.30018 0.75624 0.0
C1071 C 0.98438 0.348 0.74042 0.0
C1072 C 0.87304 0.27043 0.76987 0.0
C1073 C 0.89699 0.25721 0.78212 0.0
C1074 C 0.95268 0.31667 0.75472 0.0
C1075 C 0.94955 0.27689 0.78039 0.0
C1076 C 1.03434 0.35801 0.73824 0.0
C1077 C 0.9964 0.4043 0.71812 0.0
N1078 N 0.97509 0.30483 0.76705 0.0
N1079 N 0.96696 0.37095 0.73002 0.0
H1080 H 0.65159 0.96344 0.86826 0.0
H1081 H 0.704 0.96175 0.96478 0.0
H1082 H 0.69348 0.09212 0.89932 0.0
H1083 H 0.64998 0.82967 0.93426 0.0
H1084 H 0.70533 1.01121 0.94089 0.0
H1085 H 0.66102 0.91772 0.89138 0.0
C1086 C 0.66551 0.98325 0.87974 0.0
C1087 C 0.67302 1.03253 0.88154 0.0
C1088 C 0.69288 0.97139 0.93935 0.0
C1089 C 0.68118 0.97867 0.90876 0.0
C1090 C 0.69164 0.94284 0.95307 0.0
C1091 C 0.67638 0.89101 0.9517 0.0
C1092 C 0.67924 0.94857 0.92383 0.0
C1093 C 0.66129 0.86911 0.93607 0.0
C1094 C 0.66961 0.95644 0.89313 0.0
C1095 C 0.68882 0.05499 0.89708 0.0
N1096 N 0.66337 0.89791 0.92282 0.0
N1097 N 0.69171 1.02782 0.91005 0.0
H1098 H 0.79856 0.55494 0.10466 0.0
H1099 H 0.70205 0.72728 0.05919 0.0
H1100 H 0.86655 0.71483 0.11343 0.0
H1101 H 0.65626 0.57383 0.04625 0.0
H1102 H 0.76136 0.72517 0.07927 0.0
H1103 H 0.74249 0.56123 0.08436 0.0
C1104 C 0.80019 0.591 0.10287 0.0
C1105 C 0.83642 0.63404 0.11128 0.0
C1106 C 0.73954 0.69247 0.07159 0.0
C1107 C 0.77302 0.64212 0.08735 0.0
C1108 C 0.70632 0.69404 0.05982 0.0
C1109 C 0.67596 0.6518 0.04993 0.0
C1110 C 0.74171 0.64766 0.07394 0.0
C1111 C 0.68115 0.60869 0.05234 0.0
C1112 C 0.76873 0.59483 0.091 0.0
C1113 C 0.83823 0.68031 0.10768 0.0
N1114 N 0.71271 0.60767 0.064 0.0
N1115 N 0.80725 0.68313 0.09608 0.0
H1116 H 0.38097 0.96664 0.63996 0.0
H1117 H 0.32631 0.9622 0.54328 0.0
H1118 H 0.46774 0.09365 0.6083 0.0
H1119 H 0.25181 0.83064 0.57417 0.0
H1120 H 0.3745 1.01232 0.56699 0.0
H1121 H 0.32661 0.92027 0.61686 0.0
C1122 C 0.38702 0.98599 0.62833 0.0
C1123 C 0.42867 1.03495 0.62635 0.0
C1124 C 0.34803 0.97244 0.56864 0.0
C1125 C 0.36735 0.98042 0.59923 0.0
C1126 C 0.3208 0.94353 0.55502 0.0
C1127 C 0.28534 0.89163 0.55655 0.0
C1128 C 0.33961 0.94993 0.58422 0.0
C1129 C 0.2793 0.87008 0.57223 0.0
C1130 C 0.35656 0.9588 0.61497 0.0
C1131 C 0.43537 0.05683 0.61069 0.0
N1132 N 0.30579 0.89922 0.58539 0.0
N1133 N 0.40564 1.02937 0.59778 0.0
H1134 H 0.49063 0.25833 0.73662 0.0
H1135 H 0.35987 0.39949 0.78272 0.0
H1136 H 0.3598 0.26322 0.71905 0.0
H1137 H 0.50837 0.42744 0.79481 0.0
H1138 H 0.35343 0.33756 0.76222 0.0
H1139 H 0.49508 0.31231 0.75993 0.0
C1140 C 0.46302 0.27072 0.73754 0.0
C1141 C 0.42418 0.25485 0.72582 0.0
C1142 C 0.38687 0.35589 0.7698 0.0
C1143 C 0.42817 0.31577 0.75288 0.0
C1144 C 0.39003 0.39055 0.78182 0.0
C1145 C 0.43358 0.41707 0.79145 0.0
C1146 C 0.42788 0.34761 0.76708 0.0
C1147 C 0.47267 0.40572 0.7888 0.0
C1148 C 0.46524 0.30118 0.75099 0.0
C1149 C 0.38963 0.27268 0.72788 0.0
N1150 N 0.46905 0.37233 0.77694 0.0
N1151 N 0.3922 0.30138 0.74105 0.0
H1152 H 1.00212 0.39474 0.94103 0.0
H1153 H 0.27109 0.45022 0.90477 0.0
H1154 H 0.13574 0.4484 0.97046 0.0
H1155 H 0.13241 0.37235 0.87751 0.0
H1156 H 0.22243 0.45146 0.92876 0.0
H1157 H 1.04704 0.38183 0.91812 0.0
C1158 C 1.03993 0.4011 0.94302 0.0
C1159 C 0.06447 0.42147 0.95798 0.0
C1160 C 0.20261 0.43416 0.91751 0.0
C1161 C 0.11799 0.41042 0.93122 0.0
C1162 C 0.23062 0.43407 0.90371 0.0
C1163 C 0.20618 0.41111 0.88896 0.0
C1164 C 0.14951 0.41146 0.91667 0.0
C1165 C 0.1532 0.39021 0.88857 0.0
C1166 C 0.06623 0.39508 0.92973 0.0
C1167 C 0.11474 0.43162 0.95934 0.0
N1168 N 0.12697 0.39089 0.90207 0.0
N1169 N 0.13989 0.42696 0.94618 0.0
H1170 H 0.65881 0.99586 0.10963 0.0
H1171 H 0.865 0.26374 0.07105 0.0
H1172 H 0.73968 0.13197 0.13795 0.0
H1173 H 0.80896 0.12289 0.04507 0.0
H1174 H 0.81614 0.21621 0.09528 0.0
H1175 H 0.71423 1.03953 0.08611 0.0
C1176 C 0.68977 1.03408 0.11119 0.0
C1177 C 0.69512 0.05976 0.12602 0.0
C1178 C 0.81436 0.19566 0.08425 0.0
C1179 C 0.75656 0.11163 0.09864 0.0
C1180 C 0.84181 0.223 0.07031 0.0
C1181 C 0.84132 0.19758 0.05588 0.0
C1182 C 0.78568 0.14228 0.08385 0.0
C1183 C 0.81084 0.14433 0.05588 0.0
C1184 C 0.72074 0.05957 0.0976 0.0
C1185 C 0.73453 0.11031 0.12691 0.0
N1186 N 0.78453 0.11872 0.06952 0.0
N1187 N 0.76287 0.13466 0.11346 0.0
H1188 H 0.6689 0.71921 0.30835 0.0
H1189 H 0.70113 0.76977 0.21122 0.0
H1190 H 0.70298 0.63074 0.27517 0.0
H1191 H 0.66447 0.85682 0.24432 0.0
H1192 H 0.7049 0.72064 0.23447 0.0
H1193 H 0.67617 0.7753 0.28578 0.0
C1194 C 0.68081 0.71314 0.2965 0.0
C1195 C 0.68632 0.6704 0.29392 0.0
C1196 C 0.69543 0.75001 0.23672 0.0
C1197 C 0.69187 0.73344 0.26741 0.0
C1198 C 0.69254 0.77768 0.22337 0.0
C1199 C 0.68125 0.81687 0.22568 0.0
C1200 C 0.68767 0.76167 0.25275 0.0
C1201 C 0.67203 0.82625 0.24184 0.0
C1202 C 0.68357 0.74456 0.28344 0.0
C1203 C 0.69973 0.66378 0.27798 0.0
N1204 N 0.67559 0.79911 0.25469 0.0
N1205 N 0.70118 0.6942 0.26536 0.0
H1206 H 0.99829 0.65276 0.47373 0.0
H1207 H 0.96886 0.66626 0.37608 0.0
H1208 H 0.11199 0.6683 0.43939 0.0
H1209 H 0.86082 0.66336 0.41057 0.0
H1210 H 1.02134 0.66669 0.39901 0.0
H1211 H 0.9503 0.66185 0.45122 0.0
C1212 C 1.01479 0.66117 0.46158 0.0
C1213 C 1.06075 0.66206 0.45873 0.0
C1214 C 0.98593 0.66539 0.40164 0.0
C1215 C 1.00338 0.66854 0.43233 0.0
C1216 C 0.95549 0.66432 0.3885 0.0
C1217 C 0.90943 0.66318 0.39132 0.0
C1218 C 0.97091 0.66609 0.41791 0.0
C1219 C 0.89517 0.66271 0.40775 0.0
C1220 C 0.98649 0.66491 0.44858 0.0
C1221 C 0.07811 0.66966 0.4424 0.0
N1222 N 0.92561 0.66418 0.42034 0.0
N1223 N 1.04928 0.67185 0.42989 0.0
H1224 H 0.65933 0.72614 0.33925 0.0
H1225 H 0.45122 0.81308 0.3556 0.0
H1226 H 0.50299 0.62177 0.32984 0.0
H1227 H 0.5871 0.91359 0.32988 0.0
H1228 H 0.47299 0.74515 0.35303 0.0
H1229 H 0.63903 0.79471 0.34247 0.0
C1230 C 0.62048 0.7168 0.33799 0.0
C1231 C 0.58351 0.66611 0.33412 0.0
C1232 C 0.49911 0.78241 0.34834 0.0
C1233 C 0.55869 0.74778 0.33844 0.0
C1234 C 0.48692 0.82217 0.35001 0.0
C1235 C 0.51868 0.87228 0.34415 0.0
C1236 C 0.5443 0.79088 0.34065 0.0
C1237 C 0.56273 0.87824 0.33599 0.0
C1238 C 0.60882 0.75689 0.33979 0.0
C1239 C 0.53377 0.65906 0.33272 0.0
N1240 N 0.57433 0.83938 0.33483 0.0
N1241 N 0.52317 0.69828 0.33505 0.0
H1242 H 0.70309 0.48418 0.53272 0.0
H1243 H 0.93794 0.52503 0.47554 0.0
H1244 H 0.70561 0.51702 0.48156 0.0
H1245 H 0.97014 0.5909 0.52365 0.0
H1246 H 0.84995 0.50716 0.47842 0.0
H1247 H 0.79373 0.50917 0.53111 0.0
C1248 C 0.72269 0.4989 0.52126 0.0
C1249 C 0.69527 0.50203 0.50763 0.0
C1250 C 0.87581 0.52519 0.48849 0.0
C1251 C 0.80175 0.52583 0.50508 0.0
C1252 C 0.92697 0.53534 0.48689 0.0
C1253 C 0.96392 0.55965 0.49935 0.0
C1254 C 0.85834 0.53741 0.50297 0.0
C1255 C 0.94478 0.5721 0.51354 0.0
C1256 C 0.77508 0.51206 0.52022 0.0
C1257 C 0.72389 0.51586 0.49278 0.0
N1258 N 0.89451 0.56042 0.51498 0.0
N1259 N 0.77382 0.52658 0.49195 0.0
H1260 H 0.43804 0.90905 0.64148 0.0
H1261 H 0.24085 0.67531 0.69878 0.0
H1262 H 0.40888 0.94115 0.69024 0.0
H1263 H 0.2074 0.68146 0.64808 0.0
H1264 H 0.31003 0.76431 0.69698 0.0
H1265 H 0.36629 0.82187 0.64421 0.0
C1266 C 0.41749 0.89821 0.65294 0.0
C1267 C 0.43193 0.93502 0.66561 0.0
C1268 C 0.28751 0.74669 0.6862 0.0
C1269 C 0.34649 0.83018 0.66907 0.0
C1270 C 0.24653 0.6951 0.68732 0.0
C1271 C 0.21439 0.66896 0.67386 0.0
C1272 C 0.30026 0.77403 0.67116 0.0
C1273 C 0.22885 0.69829 0.65911 0.0
C1274 C 0.37548 0.84751 0.65446 0.0
C1275 C 0.40102 0.91601 0.67994 0.0
N1276 N 0.26969 0.7474 0.6582 0.0
N1277 N 0.36148 0.86616 0.68128 0.0
H1278 H 0.58037 0.43243 0.80754 0.0
H1279 H 0.60995 0.23172 0.86459 0.0
H1280 H 0.49542 0.38582 0.85241 0.0
H1281 H 0.59054 0.20799 0.81278 0.0
H1282 H 0.5821 0.2955 0.86245 0.0
H1283 H 0.59947 0.36298 0.81071 0.0
C1284 C 0.56543 0.40808 0.81816 0.0
C1285 C 0.5349 0.41659 0.8295 0.0
C1286 C 0.58266 0.27571 0.85151 0.0
C1287 C 0.55972 0.33473 0.8337 0.0
C1288 C 0.59719 0.23731 0.85286 0.0
C1289 C 0.59868 0.20915 0.83917 0.0
C1290 C 0.57232 0.29032 0.83607 0.0
C1291 C 0.58803 0.22551 0.82401 0.0
C1292 C 0.5767 0.36767 0.81996 0.0
C1293 C 0.51846 0.38217 0.84304 0.0
N1294 N 0.57605 0.26402 0.82293 0.0
N1295 N 0.53131 0.34429 0.84478 0.0
H1296 H 0.15405 0.49715 0.02176 0.0
H1297 H 0.42261 0.56773 0.97935 0.0
H1298 H 0.1903 0.56145 0.97343 0.0
H1299 H 0.42191 0.60496 0.02997 0.0
H1300 H 0.33405 0.54822 0.97701 0.0
H1301 H 0.24306 0.51769 0.02522 0.0
C1302 C 0.18016 0.51566 0.01177 0.0
C1303 C 0.16221 0.5277 0.99726 0.0
C1304 C 0.35248 0.55956 0.98881 0.0
C1305 C 0.26822 0.55062 1.00109 0.0
C1306 C 0.40399 0.57071 0.99024 0.0
C1307 C 0.43176 0.58607 1.00518 0.0
C1308 C 0.32529 0.56264 1.00244 0.0
C1309 C 0.40326 0.59024 0.0184 0.0
C1310 C 0.23196 0.52763 0.01382 0.0
C1311 C 0.2004 0.55159 0.98502 0.0
N1312 N 0.35281 0.5781 0.0168 0.0
N1313 N 0.24977 0.56118 0.98711 0.0
H1314 H 0.88309 0.41367 0.20039 0.0
H1315 H 0.68106 0.18198 0.14358 0.0
H1316 H 0.91402 0.40942 0.14933 0.0
H1317 H 0.71689 0.14655 0.19092 0.0
H1318 H 0.75265 0.26926 0.14631 0.0
H1319 H 0.8139 0.32468 0.19856 0.0
C1320 C 0.87685 0.39438 0.18881 0.0
C1321 C 0.90844 0.42118 0.17526 0.0
C1322 C 0.74497 0.24288 0.15626 0.0
C1323 C 0.82227 0.31577 0.17258 0.0
C1324 C 0.70299 0.19203 0.15476 0.0
C1325 C 0.69034 0.1541 0.16701 0.0
C1326 C 0.77586 0.25941 0.1705 0.0
C1327 C 0.72311 0.17242 0.18094 0.0
C1328 C 0.83583 0.34269 0.18769 0.0
C1329 C 0.89314 0.39222 0.16044 0.0
N1330 N 0.76256 0.2224 0.18232 0.0
N1331 N 0.85224 0.34304 0.15954 0.0
H1332 H 0.23469 0.58161 0.52805 0.0
H1333 H 0.41888 0.48937 0.48756 0.0
H1334 H 0.26236 0.60166 0.47638 0.0
H1335 H 0.46103 0.57494 0.53231 0.0
H1336 H 0.35057 0.51012 0.48384 0.0
H1337 H 0.3026 0.5602 0.53066 0.0
C1338 C 0.2533 0.57972 0.517 0.0
C1339 C 0.23811 0.59048 0.5017 0.0
C1340 C 0.37449 0.52438 0.49455 0.0
C1341 C 0.32028 0.56562 0.50479 0.0
C1342 C 0.41425 0.51226 0.49677 0.0
C1343 C 0.44773 0.52944 0.51045 0.0
C1344 C 0.36503 0.55314 0.50629 0.0
C1345 C 0.4375 0.55955 0.52159 0.0
C1346 C 0.29317 0.56774 0.51859 0.0
C1347 C 0.26777 0.58962 0.48827 0.0
N1348 N 0.39774 0.56928 0.51942 0.0
N1349 N 0.30569 0.57684 0.49007 0.0
H1350 H 0.68202 0.20786 0.69568 0.0
H1351 H 0.95541 0.39768 0.65446 0.0
H1352 H 0.69089 0.23355 0.64387 0.0
H1353 H 0.91388 0.43194 0.701 0.0
H1354 H 0.86754 0.32869 0.65072 0.0
H1355 H 0.77023 0.27663 0.69839 0.0
C1356 C 0.70262 0.22613 0.68461 0.0
C1357 C 0.6773 0.21 0.66926 0.0
C1358 C 0.87728 0.35096 0.66183 0.0
C1359 C 0.78316 0.29352 0.67248 0.0
C1360 C 0.92859 0.39118 0.66406 0.0
C1361 C 0.94524 0.4227 0.67823 0.0
C1362 C 0.8398 0.33898 0.67404 0.0
C1363 C 0.90554 0.41007 0.68985 0.0
C1364 C 0.75385 0.26658 0.68627 0.0
C1365 C 0.70792 0.23939 0.65582 0.0
N1366 N 0.85656 0.36993 0.68763 0.0
N1367 N 0.758 0.27797 0.6577 0.0
H1368 H 0.64706 0.95251 0.83644 0.0
H1369 H 0.44083 0.65844 0.81881 0.0
H1370 H 0.48976 0.90154 0.84386 0.0
H1371 H 0.57553 0.69417 0.84543 0.0
H1372 H 0.46167 0.74787 0.8212 0.0
H1373 H 0.62706 0.86391 0.83319 0.0
C1374 C 0.60805 0.92328 0.8372 0.0
C1375 C 0.57072 0.93725 0.8405 0.0
C1376 C 0.48773 0.73686 0.82616 0.0
C1377 C 0.54629 0.83094 0.83622 0.0
C1378 C 0.47609 0.68506 0.82458 0.0
C1379 C 0.50783 0.66692 0.83079 0.0
C1380 C 0.53228 0.77356 0.83409 0.0
C1381 C 0.55117 0.70499 0.83915 0.0
C1382 C 0.59655 0.87165 0.83542 0.0
C1383 C 0.52082 0.89485 0.8414 0.0
N1384 N 0.56223 0.75521 0.8402 0.0
N1385 N 0.51043 0.84512 0.8391 0.0
H1386 H 0.70933 0.60301 0.9871 0.0
H1387 H 0.89179 0.50697 0.02648 0.0
H1388 H 0.6646 0.5131 0.03101 0.0
H1389 H 0.86359 0.4877 0.97486 0.0
H1390 H 0.82412 0.52865 0.02931 0.0
H1391 H 0.7773 0.58186 0.98311 0.0
C1392 C 0.71321 0.57893 0.99605 0.0
C1393 C 0.67897 0.56055 0.00956 0.0
C1394 C 0.83344 0.52133 0.01719 0.0
C1395 C 0.76159 0.53658 1.00512 0.0
C1396 C 0.87322 0.50919 0.01546 0.0
C1397 C 0.88833 0.49861 1.00011 0.0
C1398 C 0.8063 0.52389 1.00347 0.0
C1399 C 0.8586 0.49991 0.98677 0.0
C1400 C 0.75286 0.56665 0.99368 0.0
C1401 C 0.68858 0.5293 0.02041 0.0
N1402 N 0.8208 0.51286 0.9887 0.0
N1403 N 0.72827 0.51945 0.01812 0.0
H1404 H 0.43629 0.8626 0.1449 0.0
H1405 H 0.20861 0.65726 0.20319 0.0
H1406 H 0.44156 0.88191 0.19701 0.0
H1407 H 0.17256 0.69519 0.15631 0.0
H1408 H 0.29612 0.72762 0.20008 0.0
H1409 H 0.34674 0.79518 0.14726 0.0
C1410 C 0.41888 0.85453 0.15685 0.0
C1411 C 0.44856 0.88235 0.17058 0.0
C1412 C 0.26946 0.72084 0.19034 0.0
C1413 C 0.34252 0.79774 0.17376 0.0
C1414 C 0.21828 0.67966 0.19209 0.0
C1415 C 0.17981 0.66819 0.18017 0.0
C1416 C 0.2859 0.75202 0.17612 0.0
C1417 C 0.1984 0.70081 0.16615 0.0
C1418 C 0.36693 0.8143 0.15827 0.0
C1419 C 0.42205 0.86414 0.18578 0.0
N1420 N 0.24856 0.73952 0.16454 0.0
N1421 N 0.3725 0.82414 0.18688 0.0
H1422 H 0.68228 0.42803 0.32417 0.0
H1423 H 0.46754 0.13525 0.34287 0.0
H1424 H 0.54127 0.39398 0.34621 0.0
H1425 H 0.62547 0.18304 0.34547 0.0
H1426 H 0.48898 0.22439 0.33932 0.0
H1427 H 0.65898 0.33818 0.32694 0.0
C1428 C 0.64538 0.40175 0.32904 0.0
C1429 C 0.61288 0.42056 0.33384 0.0
C1430 C 0.51927 0.2158 0.34056 0.0
C1431 C 0.58534 0.31326 0.33761 0.0
C1432 C 0.50691 0.16391 0.34249 0.0
C1433 C 0.54415 0.14907 0.34441 0.0
C1434 C 0.57007 0.25565 0.34001 0.0
C1435 C 0.59454 0.19058 0.34407 0.0
C1436 C 0.63221 0.34965 0.33082 0.0
C1437 C 0.56684 0.38276 0.34104 0.0
N1438 N 0.60557 0.24045 0.34176 0.0
N1439 N 0.55453 0.3322 0.3424 0.0
H1440 H 0.20271 0.65264 0.43321 0.0
H1441 H 0.45085 0.90681 0.40713 0.0
H1442 H 0.27828 0.77763 0.46666 0.0
H1443 H 0.33268 0.8237 0.37205 0.0
H1444 H 0.39569 0.85242 0.42901 0.0
H1445 H 0.25661 0.70672 0.41089 0.0
C1446 C 0.23094 0.6913 0.43595 0.0
C1447 C 0.23588 0.71027 0.45201 0.0
C1448 C 0.3818 0.84587 0.41653 0.0
C1449 C 0.29857 0.77262 0.42627 0.0
C1450 C 0.41349 0.87673 0.40393 0.0
C1451 C 0.39685 0.86994 0.38753 0.0
C1452 C 0.333 0.80657 0.41289 0.0
C1453 C 0.34743 0.83052 0.38442 0.0
C1454 C 0.26149 0.72229 0.42311 0.0
C1455 C 0.27293 0.76111 0.45457 0.0
N1456 N 0.31759 0.80012 0.39689 0.0
N1457 N 0.30304 0.79013 0.44196 0.0
H1458 H 0.55425 0.31169 0.53886 0.0
H1459 H 0.53476 0.25453 0.6351 0.0
H1460 H 0.59086 0.42932 0.5745 0.0
H1461 H 0.58597 0.17985 0.60168 0.0
H1462 H 0.54019 0.31149 0.61268 0.0
H1463 H 0.55118 0.25529 0.56116 0.0
C1464 C 0.56184 0.32581 0.55131 0.0
C1465 C 0.57351 0.37583 0.55464 0.0
C1466 C 0.5503 0.28264 0.61028 0.0
C1467 C 0.56834 0.31061 0.58042 0.0
C1468 C 0.54713 0.25001 0.62309 0.0
C1469 C 0.5604 0.21241 0.62044 0.0
C1470 C 0.56531 0.27687 0.59446 0.0
C1471 C 0.57593 0.2085 0.60447 0.0
C1472 C 0.56008 0.29356 0.56405 0.0
C1473 C 0.5825 0.39152 0.57116 0.0
N1474 N 0.57742 0.23973 0.59214 0.0
N1475 N 0.57918 0.35911 0.58334 0.0
H1476 H 0.3185 0.52432 0.80225 0.0
H1477 H 0.27206 0.52699 0.70526 0.0
H1478 H 0.43843 0.56567 0.76719 0.0
H1479 H 0.18864 0.56035 0.74103 0.0
H1480 H 0.32707 0.527 0.72754 0.0
H1481 H 0.26375 0.52344 0.77984 0.0
C1482 C 0.33346 0.53336 0.78991 0.0
C1483 C 0.38367 0.54586 0.7868 0.0
C1484 C 0.29668 0.53437 0.73045 0.0
C1485 C 0.32041 0.5434 0.76085 0.0
C1486 C 0.2652 0.53429 0.71772 0.0
C1487 C 0.22582 0.54438 0.72109 0.0
C1488 C 0.28796 0.54309 0.74681 0.0
C1489 C 0.21884 0.5532 0.73763 0.0
C1490 C 0.30215 0.53283 0.77709 0.0
C1491 C 0.40045 0.5567 0.77038 0.0
N1492 N 0.24906 0.55197 0.74975 0.0
N1493 N 0.36903 0.55482 0.75812 0.0
H1494 H 0.78693 0.2549 0.87195 0.0
H1495 H 0.84326 0.30873 0.96763 0.0
H1496 H 0.66862 0.17917 0.90763 0.0
H1497 H 0.91708 0.42771 0.93195 0.0
H1498 H 0.78577 0.25374 0.94601 0.0
H1499 H 0.84194 0.31156 0.89368 0.0
C1500 C 0.77238 0.25017 0.88432 0.0
C1501 C 0.72261 0.21224 0.88781 0.0
C1502 C 0.81446 0.29195 0.94294 0.0
C1503 C 0.78641 0.27651 0.91302 0.0
C1504 C 0.84743 0.32342 0.95529 0.0
C1505 C 0.88506 0.37339 0.95177 0.0
C1506 C 0.81986 0.30971 0.9267 0.0
C1507 C 0.88846 0.38987 0.93541 0.0
C1508 C 0.80388 0.28266 0.89674 0.0
C1509 C 0.70631 0.20809 0.90421 0.0
N1510 N 0.85693 0.35816 0.92355 0.0
N1511 N 0.7381 0.2392 0.91615 0.0
H1512 H 0.59402 0.83761 0.13488 0.0
H1513 H 0.52577 0.65395 0.07357 0.0
H1514 H 0.5391 0.90778 0.10096 0.0
H1515 H 0.5803 0.78044 0.04031 0.0
H1516 H 0.52986 0.70911 0.09599 0.0
H1517 H 0.58906 0.77974 0.11301 0.0
C1518 C 0.58075 0.84082 0.12288 0.0
C1519 C 0.56631 0.87743 0.11994 0.0
C1520 C 0.54102 0.72495 0.08381 0.0
C1521 C 0.56124 0.81132 0.09457 0.0
C1522 C 0.53816 0.69324 0.07087 0.0
C1523 C 0.55254 0.71217 0.05483 0.0
C1524 C 0.55759 0.77636 0.08087 0.0
C1525 C 0.56882 0.7639 0.05239 0.0
C1526 C 0.57772 0.80755 0.11038 0.0
C1527 C 0.5499 0.8798 0.10396 0.0
N1528 N 0.5704 0.79393 0.06518 0.0
N1529 N 0.54831 0.84773 0.09191 0.0
H1530 H 0.80017 0.56977 0.30152 0.0
H1531 H 0.84956 0.56126 0.20527 0.0
H1532 H 0.67797 0.52023 0.26699 0.0
H1533 H 0.93137 0.53004 0.24222 0.0
H1534 H 0.79213 0.56035 0.22691 0.0
H1535 H 0.85476 0.56958 0.27937 0.0
C1536 C 0.78468 0.55881 0.2893 0.0
C1537 C 0.73396 0.54455 0.28629 0.0
C1538 C 0.82265 0.55359 0.23021 0.0
C1539 C 0.79725 0.54561 0.26053 0.0
C1540 C 0.85557 0.55423 0.21785 0.0
C1541 C 0.89536 0.54514 0.22175 0.0
C1542 C 0.83035 0.54539 0.24674 0.0
C1543 C 0.90106 0.53653 0.23842 0.0
C1544 C 0.81597 0.55869 0.27662 0.0
C1545 C 0.71651 0.53099 0.27004 0.0
N1546 N 0.86956 0.53736 0.25017 0.0
N1547 N 0.74802 0.53232 0.25782 0.0
H1548 H 0.91621 0.39206 0.4505 0.0
H1549 H 0.71113 0.17496 0.43087 0.0
H1550 H 0.85472 0.46264 0.41892 0.0
H1551 H 0.63012 0.2563 0.42425 0.0
H1552 H 0.78681 0.25366 0.43723 0.0
H1553 H 0.83314 0.32083 0.45383 0.0
C1554 C 0.88549 0.39349 0.44439 0.0
C1555 C 0.89352 0.4338 0.43404 0.0
C1556 C 0.75235 0.2546 0.43493 0.0
C1557 C 0.7979 0.34868 0.43674 0.0
C1558 C 0.70937 0.20967 0.43103 0.0
C1559 C 0.66487 0.20962 0.42697 0.0
C1560 C 0.75095 0.30004 0.43478 0.0
C1561 C 0.6641 0.25529 0.42737 0.0
C1562 C 0.83783 0.35171 0.44605 0.0
C1563 C 0.85111 0.43176 0.42646 0.0
N1564 N 0.70705 0.2992 0.43095 0.0
N1565 N 0.80515 0.38928 0.42767 0.0
H1566 H 0.41621 0.8461 0.58931 0.0
H1567 H 0.41905 0.61523 0.58564 0.0
H1568 H 0.57731 0.91376 0.58354 0.0
H1569 H 0.58069 0.71122 0.5867 0.0
H1570 H 0.40957 0.69044 0.58626 0.0
H1571 H 0.40891 0.76224 0.58908 0.0
C1572 C 0.44984 0.84299 0.58778 0.0
C1573 C 0.49743 0.88645 0.58657 0.0
C1574 C 0.44711 0.69529 0.58651 0.0
C1575 C 0.48985 0.79146 0.58627 0.0
C1576 C 0.45242 0.65223 0.5862 0.0
C1577 C 0.50068 0.65737 0.58593 0.0
C1578 C 0.49061 0.74341 0.58668 0.0
C1579 C 0.54283 0.70581 0.58662 0.0
C1580 C 0.44581 0.79517 0.5877 0.0
C1581 C 0.54002 0.88102 0.58472 0.0
N1582 N 0.53675 0.74683 0.58689 0.0
N1583 N 0.53518 0.83446 0.58469 0.0
H1584 H 0.60494 0.37819 0.7591 0.0
H1585 H 0.83699 0.37657 0.74905 0.0
H1586 H 0.69906 0.53629 0.74755 0.0
H1587 H 0.90032 0.53562 0.75927 0.0
H1588 H 0.75205 0.36749 0.74911 0.0
H1589 H 0.68036 0.36814 0.75859 0.0
C1590 C 0.64136 0.41034 0.75612 0.0
C1591 C 0.64644 0.4582 0.75352 0.0
C1592 C 0.78449 0.40406 0.75163 0.0
C1593 C 0.73168 0.44736 0.75289 0.0
C1594 C 0.83273 0.4092 0.7516 0.0
C1595 C 0.87525 0.45701 0.75397 0.0
C1596 C 0.77966 0.44721 0.75409 0.0
C1597 C 0.86839 0.49832 0.75713 0.0
C1598 C 0.68421 0.40467 0.75583 0.0
C1599 C 0.69397 0.49896 0.74982 0.0
N1600 N 0.8216 0.49252 0.75694 0.0
N1601 N 0.73476 0.49268 0.74978 0.0
H1602 H 0.3939 0.9179 0.92504 0.0
H1603 H 0.17533 0.69619 0.90993 0.0
H1604 H 0.47189 0.83478 0.91578 0.0
H1605 H 0.25833 0.6207 0.92302 0.0
H1606 H 0.25372 0.77668 0.90974 0.0
H1607 H 0.31394 0.8391 0.92455 0.0
C1608 C 0.39387 0.88278 0.9228 0.0
C1609 C 0.43906 0.8825 0.92023 0.0
C1610 C 0.25499 0.74286 0.91297 0.0
C1611 C 0.34781 0.79243 0.91885 0.0
C1612 C 0.21035 0.6969 0.91282 0.0
C1613 C 0.21074 0.65232 0.9167 0.0
C1614 C 0.30018 0.74424 0.91736 0.0
C1615 C 0.25686 0.65462 0.92002 0.0
C1616 C 0.34824 0.83787 0.92227 0.0
C1617 C 0.43753 0.83621 0.91776 0.0
N1618 N 0.29999 0.70013 0.9204 0.0
N1619 N 0.39236 0.79277 0.91703 0.0
H1620 H 0.7016 0.24636 0.08882 0.0
H1621 H 0.53457 0.38153 0.09173 0.0
H1622 H 0.53948 0.17084 0.08448 0.0
H1623 H 0.69557 0.46673 0.08441 0.0
H1624 H 0.53885 0.30399 0.09268 0.0
H1625 H 0.7035 0.32829 0.08928 0.0
C1626 C 0.66664 0.24723 0.08777 0.0
C1627 C 0.62025 0.2022 0.08679 0.0
C1628 C 0.57344 0.3395 0.0909 0.0
C1629 C 0.62201 0.29437 0.08758 0.0
C1630 C 0.57094 0.38365 0.09045 0.0
C1631 C 0.61469 0.42999 0.08781 0.0
C1632 C 0.62005 0.34165 0.0886 0.0
C1633 C 0.6611 0.43132 0.08643 0.0
C1634 C 0.66769 0.29367 0.08815 0.0
C1635 C 0.5759 0.20482 0.08553 0.0
N1636 N 0.66263 0.3874 0.08669 0.0
N1637 N 0.57789 0.25009 0.08606 0.0
H1638 H 0.52039 0.68644 0.25298 0.0
H1639 H 0.29671 0.70205 0.24599 0.0
H1640 H 0.41835 0.52601 0.24869 0.0
H1641 H 0.22393 0.54315 0.25779 0.0
H1642 H 0.37833 0.70435 0.24528 0.0
H1643 H 0.44797 0.70068 0.25236 0.0
C1644 C 0.48273 0.65443 0.25158 0.0
C1645 C 0.47493 0.60499 0.25103 0.0
C1646 C 0.34471 0.66922 0.2483 0.0
C1647 C 0.39243 0.62061 0.25022 0.0
C1648 C 0.29826 0.66799 0.2487 0.0
C1649 C 0.25392 0.62228 0.25185 0.0
C1650 C 0.34617 0.62436 0.25117 0.0
C1651 C 0.25732 0.57897 0.25512 0.0
C1652 C 0.44141 0.66249 0.25123 0.0
C1653 C 0.42574 0.56463 0.24938 0.0
N1654 N 0.30256 0.58106 0.25459 0.0
N1655 N 0.38642 0.57335 0.24916 0.0
loop_
_geom_bond_atom_site_label_1
_geom_bond_atom_site_label_2
_geom_bond_distance
_geom_bond_site_symmetry_2
_ccdc_geom_bond_type
Tb0 N31 2.660 . S
Tb0 N38 2.600 1_545 S
Tb0 O44 2.546 . S
Tb0 O45 2.610 . S
Tb0 O47 2.320 . S
Tb0 O48 2.552 . S
Tb0 O49 2.413 . S
Tb0 O51 2.362 1_545 S
Tb0 O52 2.421 1_545 S
Tb0 C64 2.833 . S
C1 C4 1.432 . S
C1 C5 1.414 . S
C1 N8 1.359 . S
C2 C4 1.417 . S
C2 C6 1.432 . S
C2 C14 1.410 . S
C3 C5 1.444 . S
C3 C6 1.317 . S
C3 H26 0.929 . S
C4 C1 1.432 . S
C4 C2 1.417 . S
C4 N12 1.360 1_545 S
C5 C1 1.414 . S
C5 C3 1.444 . S
C5 C10 1.385 . S
C6 C2 1.432 . S
C6 C3 1.317 . S
C6 H18 0.930 . S
C7 C9 1.392 . S
C7 C10 1.370 . S
C7 H19 0.931 . S
N8 C1 1.359 . S
N8 C9 1.327 . S
N8 Tb11 2.600 1_545 S
C9 C7 1.392 . S
C9 N8 1.327 . S
C9 H16 0.930 . S
C10 C5 1.385 . S
C10 C7 1.370 . S
C10 H29 0.930 . S
Tb11 N8 2.600 1_565 S
Tb11 N12 2.660 . S
Tb11 O45 2.362 1_565 S
Tb11 O46 2.421 1_565 S
Tb11 O50 2.546 . S
Tb11 O51 2.610 . S
Tb11 O53 2.320 . S
Tb11 O54 2.552 . S
Tb11 O55 2.413 . S
Tb11 C75 2.833 . S
N12 C4 1.360 1_565 S
N12 Tb11 2.660 . S
N12 C13 1.305 . S
C13 N12 1.305 . S
C13 C15 1.407 . S
C13 H20 0.930 . S
C14 C2 1.410 . S
C14 C15 1.345 1_545 S
C14 H22 0.930 . S
C15 C13 1.407 . S
C15 C14 1.345 1_565 S
C15 H17 0.930 . S
H16 C9 0.930 . S
H17 C15 0.930 . S
H18 C6 0.930 . S
H19 C7 0.931 . S
H20 C13 0.930 . S
H21 C35 0.930 . S
H22 C14 0.930 . S
H23 C41 0.930 . S
H24 C32 0.930 . S
H25 C39 0.931 . S
H26 C3 0.929 . S
H27 C33 0.930 . S
H28 C66 0.930 . S
H29 C10 0.930 . S
H30 C65 0.929 . S
N31 Tb0 2.660 . S
N31 C32 1.305 . S
N31 C36 1.360 1_545 S
C32 H24 0.930 . S
C32 N31 1.305 . S
C32 C35 1.407 . S
C33 H27 0.930 . S
C33 C34 1.410 . S
C33 C35 1.345 1_565 S
C34 C33 1.410 . S
C34 C36 1.417 . S
C34 C66 1.432 . S
C35 H21 0.930 . S
C35 C32 1.407 . S
C35 C33 1.345 1_545 S
C36 N31 1.360 1_565 S
C36 C34 1.417 . S
C36 C40 1.432 . S
H37 C42 0.930 . S
N38 Tb0 2.600 1_565 S
N38 C40 1.359 . S
N38 C41 1.327 . S
C39 H25 0.931 . S
C39 C41 1.392 . S
C39 C42 1.370 . S
C40 C36 1.432 . S
C40 N38 1.359 . S
C40 C43 1.414 . S
C41 H23 0.930 . S
C41 N38 1.327 . S
C41 C39 1.392 . S
C42 H37 0.930 . S
C42 C39 1.370 . S
C42 C43 1.385 . S
C43 C40 1.414 . S
C43 C42 1.385 . S
C43 C65 1.444 . S
O44 Tb0 2.546 . S
O44 C64 1.251 . S
O45 Tb0 2.610 . S
O45 Tb11 2.362 1_545 S
O45 C56 1.283 . S
O46 Tb11 2.421 1_545 S
O46 C63 1.262 . S
O47 Tb0 2.320 . S
O47 C63 1.260 . S
O48 Tb0 2.552 . S
O48 C56 1.243 . S
O49 Tb0 2.413 . S
O49 C64 1.256 . S
O50 Tb11 2.546 . S
O50 C75 1.251 . S
O51 Tb0 2.362 1_565 S
O51 Tb11 2.610 . S
O51 C67 1.283 . S
O52 Tb0 2.421 1_565 S
O52 C74 1.262 . S
O53 Tb11 2.320 . S
O53 C74 1.260 . S
O54 Tb11 2.552 . S
O54 C67 1.243 . S
O55 Tb11 2.413 . S
O55 C75 1.256 . S
C56 O45 1.283 . S
C56 O48 1.243 . S
C57 C59 1.382 . S
C57 C61 1.393 . S
C57 C64 1.500 . S
C58 C59 1.400 . S
C58 C60 1.384 . S
C59 C57 1.382 . S
C59 C58 1.400 . S
C59 H76 0.930 . S
C60 C58 1.384 . S
C60 C62 1.392 . S
C60 H77 0.931 . S
C61 C57 1.393 . S
C61 C62 1.401 . S
C61 H78 0.930 . S
C62 C60 1.392 . S
C62 C61 1.401 . S
C62 H79 0.930 . S
C63 O46 1.262 . S
C63 O47 1.260 . S
C64 Tb0 2.833 . S
C64 O44 1.251 . S
C64 O49 1.256 . S
C64 C57 1.500 . S
C65 H30 0.929 . S
C65 C43 1.444 . S
C65 C66 1.317 . S
C66 H28 0.930 . S
C66 C34 1.432 . S
C66 C65 1.317 . S
C67 O51 1.283 . S
C67 O54 1.243 . S
C68 C69 1.382 . S
C68 C72 1.393 . S
C68 C75 1.500 . S
C69 C68 1.382 . S
C69 C70 1.400 . S
C69 H80 0.930 . S
C70 C69 1.400 . S
C70 C71 1.384 . S
C71 C70 1.384 . S
C71 C73 1.392 . S
C71 H81 0.931 . S
C72 C68 1.393 . S
C72 C73 1.401 . S
C72 H82 0.930 . S
C73 C71 1.392 . S
C73 C72 1.401 . S
C73 H83 0.930 . S
C74 O52 1.262 . S
C74 O53 1.260 . S
C75 Tb11 2.833 . S
C75 O50 1.251 . S
C75 O55 1.256 . S
C75 C68 1.500 . S
H76 C59 0.930 . S
H77 C60 0.931 . S
H78 C61 0.930 . S
H79 C62 0.930 . S
H80 C69 0.930 . S
H81 C71 0.931 . S
H82 C72 0.930 . S
H83 C73 0.930 . S
Tb84 N115 2.660 . S
Tb84 N122 2.600 . S
Tb84 O128 2.546 . S
Tb84 O129 2.610 . S
Tb84 O131 2.320 . S
Tb84 O132 2.552 . S
Tb84 O133 2.413 . S
Tb84 O135 2.362 . S
Tb84 O136 2.421 . S
Tb84 C148 2.833 . S
C85 C88 1.432 . S
C85 C89 1.414 . S
C85 N92 1.359 . S
C86 C88 1.417 . S
C86 C90 1.432 . S
C86 C98 1.410 . S
C87 C89 1.444 . S
C87 C90 1.317 . S
C87 H110 0.929 . S
C88 C85 1.432 . S
C88 C86 1.417 . S
C88 N96 1.360 . S
C89 C85 1.414 . S
C89 C87 1.444 . S
C89 C94 1.385 . S
C90 C86 1.432 . S
C90 C87 1.317 . S
C90 H102 0.930 . S
C91 C93 1.392 . S
C91 C94 1.370 . S
C91 H103 0.931 . S
N92 C85 1.359 . S
N92 C93 1.327 . S
N92 Tb95 2.600 . S
C93 C91 1.392 . S
C93 N92 1.327 . S
C93 H100 0.930 . S
C94 C89 1.385 . S
C94 C91 1.370 . S
C94 H113 0.930 . S
Tb95 N92 2.600 . S
Tb95 N96 2.660 . S
Tb95 O129 2.362 . S
Tb95 O130 2.421 . S
Tb95 O134 2.546 . S
Tb95 O135 2.610 . S
Tb95 O137 2.320 . S
Tb95 O138 2.552 . S
Tb95 O139 2.413 . S
Tb95 C159 2.833 . S
N96 C88 1.360 . S
N96 Tb95 2.660 . S
N96 C97 1.305 . S
C97 N96 1.305 . S
C97 C99 1.407 . S
C97 H104 0.930 . S
C98 C86 1.410 . S
C98 C99 1.345 . S
C98 H106 0.930 . S
C99 C97 1.407 . S
C99 C98 1.345 . S
C99 H101 0.930 . S
H100 C93 0.930 . S
H101 C99 0.930 . S
H102 C90 0.930 . S
H103 C91 0.931 . S
H104 C97 0.930 . S
H105 C119 0.930 . S
H106 C98 0.930 . S
H107 C125 0.930 . S
H108 C116 0.930 . S
H109 C123 0.931 . S
H110 C87 0.929 . S
H111 C117 0.930 . S
H112 C150 0.930 . S
H113 C94 0.930 . S
H114 C149 0.929 . S
N115 Tb84 2.660 . S
N115 C116 1.305 . S
N115 C120 1.360 . S
C116 H108 0.930 . S
C116 N115 1.305 . S
C116 C119 1.407 . S
C117 H111 0.930 . S
C117 C118 1.410 . S
C117 C119 1.345 . S
C118 C117 1.410 . S
C118 C120 1.417 . S
C118 C150 1.432 . S
C119 H105 0.930 . S
C119 C116 1.407 . S
C119 C117 1.345 . S
C120 N115 1.360 . S
C120 C118 1.417 . S
C120 C124 1.432 . S
H121 C126 0.930 . S
N122 Tb84 2.600 . S
N122 C124 1.359 . S
N122 C125 1.327 . S
C123 H109 0.931 . S
C123 C125 1.392 . S
C123 C126 1.370 . S
C124 C120 1.432 . S
C124 N122 1.359 . S
C124 C127 1.414 . S
C125 H107 0.930 . S
C125 N122 1.327 . S
C125 C123 1.392 . S
C126 H121 0.930 . S
C126 C123 1.370 . S
C126 C127 1.385 . S
C127 C124 1.414 . S
C127 C126 1.385 . S
C127 C149 1.444 . S
O128 Tb84 2.546 . S
O128 C148 1.251 . S
O129 Tb84 2.610 . S
O129 Tb95 2.362 . S
O129 C140 1.283 . S
O130 Tb95 2.421 . S
O130 C147 1.262 . S
O131 Tb84 2.320 . S
O131 C147 1.260 . S
O132 Tb84 2.552 . S
O132 C140 1.243 . S
O133 Tb84 2.413 . S
O133 C148 1.256 . S
O134 Tb95 2.546 . S
O134 C159 1.251 . S
O135 Tb84 2.362 . S
O135 Tb95 2.610 . S
O135 C151 1.283 . S
O136 Tb84 2.421 . S
O136 C158 1.262 . S
O137 Tb95 2.320 . S
O137 C158 1.260 . S
O138 Tb95 2.552 . S
O138 C151 1.243 . S
O139 Tb95 2.413 . S
O139 C159 1.256 . S
C140 O129 1.283 . S
C140 O132 1.243 . S
C141 C143 1.382 . S
C141 C145 1.393 . S
C141 C148 1.500 . S
C142 C143 1.400 . S
C142 C144 1.384 . S
C143 C141 1.382 . S
C143 C142 1.400 . S
C143 H160 0.930 . S
C144 C142 1.384 . S
C144 C146 1.392 . S
C144 H161 0.931 . S
C145 C141 1.393 . S
C145 C146 1.401 . S
C145 H162 0.930 . S
C146 C144 1.392 . S
C146 C145 1.401 . S
C146 H163 0.930 . S
C147 O130 1.262 . S
C147 O131 1.260 . S
C148 Tb84 2.833 . S
C148 O128 1.251 . S
C148 O133 1.256 . S
C148 C141 1.500 . S
C149 H114 0.929 . S
C149 C127 1.444 . S
C149 C150 1.317 . S
C150 H112 0.930 . S
C150 C118 1.432 . S
C150 C149 1.317 . S
C151 O135 1.283 . S
C151 O138 1.243 . S
C152 C153 1.382 . S
C152 C156 1.393 . S
C152 C159 1.500 . S
C153 C152 1.382 . S
C153 C154 1.400 . S
C153 H164 0.930 . S
C154 C153 1.400 . S
C154 C155 1.384 . S
C155 C154 1.384 . S
C155 C157 1.392 . S
C155 H165 0.931 . S
C156 C152 1.393 . S
C156 C157 1.401 . S
C156 H166 0.930 . S
C157 C155 1.392 . S
C157 C156 1.401 . S
C157 H167 0.930 . S
C158 O136 1.262 . S
C158 O137 1.260 . S
C159 Tb95 2.833 . S
C159 O134 1.251 . S
C159 O139 1.256 . S
C159 C152 1.500 . S
H160 C143 0.930 . S
H161 C144 0.931 . S
H162 C145 0.930 . S
H163 C146 0.930 . S
H164 C153 0.930 . S
H165 C155 0.931 . S
H166 C156 0.930 . S
H167 C157 0.930 . S
Tb168 N199 2.660 . S
Tb168 N206 2.600 1_655 S
Tb168 O212 2.546 . S
Tb168 O213 2.610 . S
Tb168 O215 2.320 . S
Tb168 O216 2.552 . S
Tb168 O217 2.413 . S
Tb168 O219 2.362 1_655 S
Tb168 O220 2.421 1_655 S
Tb168 C232 2.833 . S
C169 C172 1.432 . S
C169 C173 1.414 . S
C169 N176 1.359 . S
C170 C172 1.417 . S
C170 C174 1.432 . S
C170 C182 1.410 1_655 S
C171 C173 1.444 . S
C171 C174 1.317 . S
C171 H194 0.929 . S
C172 C169 1.432 . S
C172 C170 1.417 . S
C172 N180 1.360 1_655 S
C173 C169 1.414 . S
C173 C171 1.444 . S
C173 C178 1.385 . S
C174 C170 1.432 . S
C174 C171 1.317 . S
C174 H186 0.930 . S
C175 C177 1.392 . S
C175 C178 1.370 . S
C175 H187 0.931 . S
N176 C169 1.359 . S
N176 C177 1.327 . S
N176 Tb179 2.600 1_655 S
C177 C175 1.392 . S
C177 N176 1.327 . S
C177 H184 0.930 . S
C178 C173 1.385 . S
C178 C175 1.370 . S
C178 H197 0.930 . S
Tb179 N176 2.600 1_455 S
Tb179 N180 2.660 . S
Tb179 O213 2.362 1_455 S
Tb179 O214 2.421 1_455 S
Tb179 O218 2.546 . S
Tb179 O219 2.610 . S
Tb179 O221 2.320 . S
Tb179 O222 2.552 . S
Tb179 O223 2.413 . S
Tb179 C243 2.833 . S
N180 C172 1.360 1_455 S
N180 Tb179 2.660 . S
N180 C181 1.305 . S
C181 N180 1.305 . S
C181 C183 1.407 . S
C181 H188 0.930 . S
C182 C170 1.410 1_455 S
C182 C183 1.345 . S
C182 H190 0.927 . S
C183 C181 1.407 . S
C183 C182 1.345 . S
C183 H185 0.930 . S
H184 C177 0.930 . S
H185 C183 0.930 . S
H186 C174 0.930 . S
H187 C175 0.931 . S
H188 C181 0.930 . S
H189 C203 0.930 . S
H190 C182 0.927 . S
H191 C209 0.930 . S
H192 C200 0.930 . S
H193 C207 0.931 . S
H194 C171 0.929 . S
H195 C201 0.925 . S
H196 C234 0.930 . S
H197 C178 0.930 . S
H198 C233 0.929 . S
N199 Tb168 2.660 . S
N199 C200 1.305 . S
N199 C204 1.360 1_655 S
C200 H192 0.930 . S
C200 N199 1.305 . S
C200 C203 1.407 . S
C201 H195 0.925 . S
C201 C202 1.410 1_655 S
C201 C203 1.345 . S
C202 C201 1.410 1_455 S
C202 C204 1.417 . S
C202 C234 1.432 . S
C203 H189 0.930 . S
C203 C200 1.407 . S
C203 C201 1.345 . S
C204 N199 1.360 1_455 S
C204 C202 1.417 . S
C204 C208 1.432 . S
H205 C210 0.930 . S
N206 Tb168 2.600 1_455 S
N206 C208 1.359 . S
N206 C209 1.327 . S
C207 H193 0.931 . S
C207 C209 1.392 . S
C207 C210 1.370 . S
C208 C204 1.432 . S
C208 N206 1.359 . S
C208 C211 1.414 . S
C209 H191 0.930 . S
C209 N206 1.327 . S
C209 C207 1.392 . S
C210 H205 0.930 . S
C210 C207 1.370 . S
C210 C211 1.385 . S
C211 C208 1.414 . S
C211 C210 1.385 . S
C211 C233 1.444 . S
O212 Tb168 2.546 . S
O212 C232 1.251 . S
O213 Tb168 2.610 . S
O213 Tb179 2.362 1_655 S
O213 C224 1.283 . S
O214 Tb179 2.421 1_655 S
O214 C231 1.262 . S
O215 Tb168 2.320 . S
O215 C231 1.260 . S
O216 Tb168 2.552 . S
O216 C224 1.243 . S
O217 Tb168 2.413 . S
O217 C232 1.256 . S
O218 Tb179 2.546 . S
O218 C243 1.251 . S
O219 Tb168 2.362 1_455 S
O219 Tb179 2.610 . S
O219 C235 1.283 . S
O220 Tb168 2.421 1_455 S
O220 C242 1.262 . S
O221 Tb179 2.320 . S
O221 C242 1.260 . S
O222 Tb179 2.552 . S
O222 C235 1.243 . S
O223 Tb179 2.413 . S
O223 C243 1.256 . S
C224 O213 1.283 . S
C224 O216 1.243 . S
C225 C227 1.382 . S
C225 C229 1.393 . S
C225 C232 1.500 . S
C226 C227 1.400 . S
C226 C228 1.384 . S
C227 C225 1.382 . S
C227 C226 1.400 . S
C227 H244 0.930 . S
C228 C226 1.384 . S
C228 C230 1.392 . S
C228 H245 0.931 . S
C229 C225 1.393 . S
C229 C230 1.401 . S
C229 H246 0.930 . S
C230 C228 1.392 . S
C230 C229 1.401 . S
C230 H247 0.930 . S
C231 O214 1.262 . S
C231 O215 1.260 . S
C232 Tb168 2.833 . S
C232 O212 1.251 . S
C232 O217 1.256 . S
C232 C225 1.500 . S
C233 H198 0.929 . S
C233 C211 1.444 . S
C233 C234 1.317 . S
C234 H196 0.930 . S
C234 C202 1.432 . S
C234 C233 1.317 . S
C235 O219 1.283 . S
C235 O222 1.243 . S
C236 C237 1.382 . S
C236 C240 1.393 . S
C236 C243 1.500 . S
C237 C236 1.382 . S
C237 C238 1.400 . S
C237 H248 0.930 . S
C238 C237 1.400 . S
C238 C239 1.384 . S
C239 C238 1.384 . S
C239 C241 1.392 . S
C239 H249 0.931 . S
C240 C236 1.393 . S
C240 C241 1.401 . S
C240 H250 0.930 . S
C241 C239 1.392 . S
C241 C240 1.401 . S
C241 H251 0.930 . S
C242 O220 1.262 . S
C242 O221 1.260 . S
C243 Tb179 2.833 . S
C243 O218 1.251 . S
C243 O223 1.256 . S
C243 C236 1.500 . S
H244 C227 0.930 . S
H245 C228 0.931 . S
H246 C229 0.930 . S
H247 C230 0.930 . S
H248 C237 0.930 . S
H249 C239 0.931 . S
H250 C240 0.930 . S
H251 C241 0.930 . S
Tb252 N283 2.660 . S
Tb252 N290 2.600 1_565 S
Tb252 O296 2.546 . S
Tb252 O297 2.610 . S
Tb252 O299 2.320 . S
Tb252 O300 2.552 . S
Tb252 O301 2.413 . S
Tb252 O303 2.362 1_565 S
Tb252 O304 2.421 1_565 S
Tb252 C316 2.833 . S
C253 C256 1.432 . S
C253 C257 1.414 . S
C253 N260 1.359 . S
C254 C256 1.417 . S
C254 C258 1.432 . S
C254 C266 1.410 . S
C255 C257 1.444 . S
C255 C258 1.317 . S
C255 H278 0.929 . S
C256 C253 1.432 . S
C256 C254 1.417 . S
C256 N264 1.360 1_565 S
C257 C253 1.414 . S
C257 C255 1.444 . S
C257 C262 1.385 . S
C258 C254 1.432 . S
C258 C255 1.317 . S
C258 H270 0.930 . S
C259 C261 1.392 . S
C259 C262 1.370 . S
C259 H271 0.931 . S
N260 C253 1.359 . S
N260 C261 1.327 . S
N260 Tb263 2.600 1_565 S
C261 C259 1.392 . S
C261 N260 1.327 . S
C261 H268 0.930 . S
C262 C257 1.385 . S
C262 C259 1.370 . S
C262 H281 0.930 . S
Tb263 N260 2.600 1_545 S
Tb263 N264 2.660 . S
Tb263 O297 2.362 1_545 S
Tb263 O298 2.421 1_545 S
Tb263 O302 2.546 . S
Tb263 O303 2.610 . S
Tb263 O305 2.320 . S
Tb263 O306 2.552 . S
Tb263 O307 2.413 . S
Tb263 C327 2.833 . S
N264 C256 1.360 1_545 S
N264 Tb263 2.660 . S
N264 C265 1.305 . S
C265 N264 1.305 . S
C265 C267 1.407 . S
C265 H272 0.930 . S
C266 C254 1.410 . S
C266 C267 1.345 1_565 S
C266 H274 0.930 . S
C267 C265 1.407 . S
C267 C266 1.345 1_545 S
C267 H269 0.930 . S
H268 C261 0.930 . S
H269 C267 0.930 . S
H270 C258 0.930 . S
H271 C259 0.931 . S
H272 C265 0.930 . S
H273 C287 0.930 . S
H274 C266 0.930 . S
H275 C293 0.930 . S
H276 C284 0.930 . S
H277 C291 0.931 . S
H278 C255 0.929 . S
H279 C285 0.930 . S
H280 C318 0.930 . S
H281 C262 0.930 . S
H282 C317 0.929 . S
N283 Tb252 2.660 . S
N283 C284 1.305 . S
N283 C288 1.360 1_565 S
C284 H276 0.930 . S
C284 N283 1.305 . S
C284 C287 1.407 . S
C285 H279 0.930 . S
C285 C286 1.410 . S
C285 C287 1.345 1_545 S
C286 C285 1.410 . S
C286 C288 1.417 . S
C286 C318 1.432 . S
C287 H273 0.930 . S
C287 C284 1.407 . S
C287 C285 1.345 1_565 S
C288 N283 1.360 1_545 S
C288 C286 1.417 . S
C288 C292 1.432 . S
H289 C294 0.930 . S
N290 Tb252 2.600 1_545 S
N290 C292 1.359 . S
N290 C293 1.327 . S
C291 H277 0.931 . S
C291 C293 1.392 . S
C291 C294 1.370 . S
C292 C288 1.432 . S
C292 N290 1.359 . S
C292 C295 1.414 . S
C293 H275 0.930 . S
C293 N290 1.327 . S
C293 C291 1.392 . S
C294 H289 0.930 . S
C294 C291 1.370 . S
C294 C295 1.385 . S
C295 C292 1.414 . S
C295 C294 1.385 . S
C295 C317 1.444 . S
O296 Tb252 2.546 . S
O296 C316 1.251 . S
O297 Tb252 2.610 . S
O297 Tb263 2.362 1_565 S
O297 C308 1.283 . S
O298 Tb263 2.421 1_565 S
O298 C315 1.262 . S
O299 Tb252 2.320 . S
O299 C315 1.260 . S
O300 Tb252 2.552 . S
O300 C308 1.243 . S
O301 Tb252 2.413 . S
O301 C316 1.256 . S
O302 Tb263 2.546 . S
O302 C327 1.251 . S
O303 Tb252 2.362 1_545 S
O303 Tb263 2.610 . S
O303 C319 1.283 . S
O304 Tb252 2.421 1_545 S
O304 C326 1.262 . S
O305 Tb263 2.320 . S
O305 C326 1.260 . S
O306 Tb263 2.552 . S
O306 C319 1.243 . S
O307 Tb263 2.413 . S
O307 C327 1.256 . S
C308 O297 1.283 . S
C308 O300 1.243 . S
C309 C311 1.382 . S
C309 C313 1.393 . S
C309 C316 1.500 . S
C310 C311 1.400 . S
C310 C312 1.384 . S
C311 C309 1.382 . S
C311 C310 1.400 . S
C311 H328 0.930 . S
C312 C310 1.384 . S
C312 C314 1.392 . S
C312 H329 0.931 . S
C313 C309 1.393 . S
C313 C314 1.401 . S
C313 H330 0.930 . S
C314 C312 1.392 . S
C314 C313 1.401 . S
C314 H331 0.930 . S
C315 O298 1.262 . S
C315 O299 1.260 . S
C316 Tb252 2.833 . S
C316 O296 1.251 . S
C316 O301 1.256 . S
C316 C309 1.500 . S
C317 H282 0.929 . S
C317 C295 1.444 . S
C317 C318 1.317 . S
C318 H280 0.930 . S
C318 C286 1.432 . S
C318 C317 1.317 . S
C319 O303 1.283 . S
C319 O306 1.243 . S
C320 C321 1.382 . S
C320 C324 1.393 . S
C320 C327 1.500 . S
C321 C320 1.382 . S
C321 C322 1.400 . S
C321 H332 0.930 . S
C322 C321 1.400 . S
C322 C323 1.384 . S
C323 C322 1.384 . S
C323 C325 1.392 . S
C323 H333 0.931 . S
C324 C320 1.393 . S
C324 C325 1.401 . S
C324 H334 0.930 . S
C325 C323 1.392 . S
C325 C324 1.401 . S
C325 H335 0.930 . S
C326 O304 1.262 . S
C326 O305 1.260 . S
C327 Tb263 2.833 . S
C327 O302 1.251 . S
C327 O307 1.256 . S
C327 C320 1.500 . S
H328 C311 0.930 . S
H329 C312 0.931 . S
H330 C313 0.930 . S
H331 C314 0.930 . S
H332 C321 0.930 . S
H333 C323 0.931 . S
H334 C324 0.930 . S
H335 C325 0.930 . S
Tb336 N367 2.660 . S
Tb336 N374 2.600 . S
Tb336 O380 2.546 . S
Tb336 O381 2.610 . S
Tb336 O383 2.320 . S
Tb336 O384 2.552 . S
Tb336 O385 2.413 . S
Tb336 O387 2.362 . S
Tb336 O388 2.421 . S
Tb336 C400 2.833 . S
C337 C340 1.432 . S
C337 C341 1.414 . S
C337 N344 1.359 . S
C338 C340 1.417 . S
C338 C342 1.432 . S
C338 C350 1.410 . S
C339 C341 1.444 . S
C339 C342 1.317 . S
C339 H362 0.929 . S
C340 C337 1.432 . S
C340 C338 1.417 . S
C340 N348 1.360 . S
C341 C337 1.414 . S
C341 C339 1.444 . S
C341 C346 1.385 1_554 S
C342 C338 1.432 . S
C342 C339 1.317 . S
C342 H354 0.930 . S
C343 C345 1.392 . S
C343 C346 1.370 . S
C343 H355 0.931 . S
N344 C337 1.359 . S
N344 C345 1.327 1_554 S
N344 Tb347 2.600 . S
C345 C343 1.392 . S
C345 N344 1.327 1_556 S
C345 H352 0.930 . S
C346 C341 1.385 1_556 S
C346 C343 1.370 . S
C346 H365 0.930 . S
Tb347 N344 2.600 . S
Tb347 N348 2.660 . S
Tb347 O381 2.362 . S
Tb347 O382 2.421 . S
Tb347 O386 2.546 1_554 S
Tb347 O387 2.610 . S
Tb347 O389 2.320 . S
Tb347 O390 2.552 . S
Tb347 O391 2.413 . S
Tb347 C411 2.833 1_554 S
N348 C340 1.360 . S
N348 Tb347 2.660 . S
N348 C349 1.305 . S
C349 N348 1.305 . S
C349 C351 1.407 . S
C349 H356 0.930 . S
C350 C338 1.410 . S
C350 C351 1.345 . S
C350 H358 0.930 . S
C351 C349 1.407 . S
C351 C350 1.345 . S
C351 H353 0.930 . S
H352 C345 0.930 . S
H353 C351 0.930 . S
H354 C342 0.930 . S
H355 C343 0.931 . S
H356 C349 0.930 . S
H357 C371 0.930 1_556 S
H358 C350 0.930 . S
H359 C377 0.930 . S
H360 C368 0.930 . S
H361 C375 0.931 . S
H362 C339 0.929 . S
H363 C369 0.930 . S
H364 C402 0.930 . S
H365 C346 0.930 . S
H366 C401 0.929 . S
N367 Tb336 2.660 . S
N367 C368 1.305 . S
N367 C372 1.360 . S
C368 H360 0.930 . S
C368 N367 1.305 . S
C368 C371 1.407 . S
C369 H363 0.930 . S
C369 C370 1.410 . S
C369 C371 1.345 . S
C370 C369 1.410 . S
C370 C372 1.417 . S
C370 C402 1.432 . S
C371 H357 0.930 1_554 S
C371 C368 1.407 . S
C371 C369 1.345 . S
C372 N367 1.360 . S
C372 C370 1.417 . S
C372 C376 1.432 . S
H373 C378 0.930 . S
N374 Tb336 2.600 . S
N374 C376 1.359 . S
N374 C377 1.327 . S
C375 H361 0.931 . S
C375 C377 1.392 . S
C375 C378 1.370 . S
C376 C372 1.432 . S
C376 N374 1.359 . S
C376 C379 1.414 . S
C377 H359 0.930 . S
C377 N374 1.327 . S
C377 C375 1.392 . S
C378 H373 0.930 . S
C378 C375 1.370 . S
C378 C379 1.385 . S
C379 C376 1.414 . S
C379 C378 1.385 . S
C379 C401 1.444 . S
O380 Tb336 2.546 . S
O380 C400 1.251 . S
O381 Tb336 2.610 . S
O381 Tb347 2.362 . S
O381 C392 1.283 . S
O382 Tb347 2.421 . S
O382 C399 1.262 . S
O383 Tb336 2.320 . S
O383 C399 1.260 . S
O384 Tb336 2.552 . S
O384 C392 1.243 . S
O385 Tb336 2.413 . S
O385 C400 1.256 . S
O386 Tb347 2.546 1_556 S
O386 C411 1.251 . S
O387 Tb336 2.362 . S
O387 Tb347 2.610 . S
O387 C403 1.283 . S
O388 Tb336 2.421 . S
O388 C410 1.262 . S
O389 Tb347 2.320 . S
O389 C410 1.260 . S
O390 Tb347 2.552 . S
O390 C403 1.243 . S
O391 Tb347 2.413 . S
O391 C411 1.256 1_554 S
C392 O381 1.283 . S
C392 O384 1.243 . S
C393 C395 1.382 . S
C393 C397 1.393 . S
C393 C400 1.500 . S
C394 C395 1.400 . S
C394 C396 1.384 . S
C395 C393 1.382 . S
C395 C394 1.400 . S
C395 H412 0.930 . S
C396 C394 1.384 . S
C396 C398 1.392 . S
C396 H413 0.931 . S
C397 C393 1.393 . S
C397 C398 1.401 . S
C397 H414 0.930 . S
C398 C396 1.392 . S
C398 C397 1.401 . S
C398 H415 0.930 . S
C399 O382 1.262 . S
C399 O383 1.260 . S
C400 Tb336 2.833 . S
C400 O380 1.251 . S
C400 O385 1.256 . S
C400 C393 1.500 . S
C401 H366 0.929 . S
C401 C379 1.444 . S
C401 C402 1.317 . S
C402 H364 0.930 . S
C402 C370 1.432 . S
C402 C401 1.317 . S
C403 O387 1.283 . S
C403 O390 1.243 . S
C404 C405 1.382 . S
C404 C408 1.393 . S
C404 C411 1.500 . S
C405 C404 1.382 . S
C405 C406 1.400 . S
C405 H416 0.930 . S
C406 C405 1.400 . S
C406 C407 1.384 . S
C407 C406 1.384 . S
C407 C409 1.392 . S
C407 H417 0.931 . S
C408 C404 1.393 . S
C408 C409 1.401 . S
C408 H418 0.930 . S
C409 C407 1.392 . S
C409 C408 1.401 . S
C409 H419 0.930 . S
C410 O388 1.262 . S
C410 O389 1.260 . S
C411 Tb347 2.833 1_556 S
C411 O386 1.251 . S
C411 O391 1.256 1_556 S
C411 C404 1.500 . S
H412 C395 0.930 . S
H413 C396 0.931 . S
H414 C397 0.930 . S
H415 C398 0.930 . S
H416 C405 0.930 . S
H417 C407 0.931 . S
H418 C408 0.930 . S
H419 C409 0.930 . S
Tb420 N451 2.660 . S
Tb420 N458 2.600 1_455 S
Tb420 O464 2.546 . S
Tb420 O465 2.610 . S
Tb420 O467 2.320 . S
Tb420 O468 2.552 . S
Tb420 O469 2.413 . S
Tb420 O471 2.362 1_455 S
Tb420 O472 2.421 1_455 S
Tb420 C484 2.833 . S
C421 C424 1.432 . S
C421 C425 1.414 . S
C421 N428 1.359 . S
C422 C424 1.417 . S
C422 C426 1.432 . S
C422 C434 1.410 1_455 S
C423 C425 1.444 . S
C423 C426 1.317 . S
C423 H446 0.929 . S
C424 C421 1.432 . S
C424 C422 1.417 . S
C424 N432 1.360 1_455 S
C425 C421 1.414 . S
C425 C423 1.444 . S
C425 C430 1.385 . S
C426 C422 1.432 . S
C426 C423 1.317 . S
C426 H438 0.930 . S
C427 C429 1.392 . S
C427 C430 1.370 . S
C427 H439 0.931 . S
N428 C421 1.359 . S
N428 C429 1.327 . S
N428 Tb431 2.600 1_455 S
C429 C427 1.392 . S
C429 N428 1.327 . S
C429 H436 0.930 . S
C430 C425 1.385 . S
C430 C427 1.370 . S
C430 H449 0.930 . S
Tb431 N428 2.600 1_655 S
Tb431 N432 2.660 . S
Tb431 O465 2.362 1_655 S
Tb431 O466 2.421 1_655 S
Tb431 O470 2.546 . S
Tb431 O471 2.610 . S
Tb431 O473 2.320 . S
Tb431 O474 2.552 . S
Tb431 O475 2.413 . S
Tb431 C495 2.833 . S
N432 C424 1.360 1_655 S
N432 Tb431 2.660 . S
N432 C433 1.305 . S
C433 N432 1.305 . S
C433 C435 1.407 . S
C433 H440 0.930 . S
C434 C422 1.410 1_655 S
C434 C435 1.345 . S
C434 H442 0.927 . S
C435 C433 1.407 . S
C435 C434 1.345 . S
C435 H437 0.930 . S
H436 C429 0.930 . S
H437 C435 0.930 . S
H438 C426 0.930 . S
H439 C427 0.931 . S
H440 C433 0.930 . S
H441 C455 0.930 . S
H442 C434 0.927 . S
H443 C461 0.930 . S
H444 C452 0.930 . S
H445 C459 0.931 . S
H446 C423 0.929 . S
H447 C453 0.925 . S
H448 C486 0.930 . S
H449 C430 0.930 . S
H450 C485 0.929 . S
N451 Tb420 2.660 . S
N451 C452 1.305 . S
N451 C456 1.360 1_455 S
C452 H444 0.930 . S
C452 N451 1.305 . S
C452 C455 1.407 . S
C453 H447 0.925 . S
C453 C454 1.410 1_455 S
C453 C455 1.345 . S
C454 C453 1.410 1_655 S
C454 C456 1.417 . S
C454 C486 1.432 . S
C455 H441 0.930 . S
C455 C452 1.407 . S
C455 C453 1.345 . S
C456 N451 1.360 1_655 S
C456 C454 1.417 . S
C456 C460 1.432 . S
H457 C462 0.930 . S
N458 Tb420 2.600 1_655 S
N458 C460 1.359 . S
N458 C461 1.327 . S
C459 H445 0.931 . S
C459 C461 1.392 . S
C459 C462 1.370 . S
C460 C456 1.432 . S
C460 N458 1.359 . S
C460 C463 1.414 . S
C461 H443 0.930 . S
C461 N458 1.327 . S
C461 C459 1.392 . S
C462 H457 0.930 . S
C462 C459 1.370 . S
C462 C463 1.385 . S
C463 C460 1.414 . S
C463 C462 1.385 . S
C463 C485 1.444 . S
O464 Tb420 2.546 . S
O464 C484 1.251 . S
O465 Tb420 2.610 . S
O465 Tb431 2.362 1_455 S
O465 C476 1.283 . S
O466 Tb431 2.421 1_455 S
O466 C483 1.262 . S
O467 Tb420 2.320 . S
O467 C483 1.260 . S
O468 Tb420 2.552 . S
O468 C476 1.243 . S
O469 Tb420 2.413 . S
O469 C484 1.256 . S
O470 Tb431 2.546 . S
O470 C495 1.251 . S
O471 Tb420 2.362 1_655 S
O471 Tb431 2.610 . S
O471 C487 1.283 . S
O472 Tb420 2.421 1_655 S
O472 C494 1.262 . S
O473 Tb431 2.320 . S
O473 C494 1.260 . S
O474 Tb431 2.552 . S
O474 C487 1.243 . S
O475 Tb431 2.413 . S
O475 C495 1.256 . S
C476 O465 1.283 . S
C476 O468 1.243 . S
C477 C479 1.382 . S
C477 C481 1.393 . S
C477 C484 1.500 . S
C478 C479 1.400 . S
C478 C480 1.384 . S
C479 C477 1.382 . S
C479 C478 1.400 . S
C479 H496 0.930 . S
C480 C478 1.384 . S
C480 C482 1.392 . S
C480 H497 0.931 . S
C481 C477 1.393 . S
C481 C482 1.401 . S
C481 H498 0.930 . S
C482 C480 1.392 . S
C482 C481 1.401 . S
C482 H499 0.930 . S
C483 O466 1.262 . S
C483 O467 1.260 . S
C484 Tb420 2.833 . S
C484 O464 1.251 . S
C484 O469 1.256 . S
C484 C477 1.500 . S
C485 H450 0.929 . S
C485 C463 1.444 . S
C485 C486 1.317 . S
C486 H448 0.930 . S
C486 C454 1.432 . S
C486 C485 1.317 . S
C487 O471 1.283 . S
C487 O474 1.243 . S
C488 C489 1.382 . S
C488 C492 1.393 . S
C488 C495 1.500 . S
C489 C488 1.382 . S
C489 C490 1.400 . S
C489 H500 0.930 . S
C490 C489 1.400 . S
C490 C491 1.384 . S
C491 C490 1.384 . S
C491 C493 1.392 . S
C491 H501 0.931 . S
C492 C488 1.393 . S
C492 C493 1.401 . S
C492 H502 0.930 . S
C493 C491 1.392 . S
C493 C492 1.401 . S
C493 H503 0.930 . S
C494 O472 1.262 . S
C494 O473 1.260 . S
C495 Tb431 2.833 . S
C495 O470 1.251 . S
C495 O475 1.256 . S
C495 C488 1.500 . S
H496 C479 0.930 . S
H497 C480 0.931 . S
H498 C481 0.930 . S
H499 C482 0.930 . S
H500 C489 0.930 . S
H501 C491 0.931 . S
H502 C492 0.930 . S
H503 C493 0.930 . S
Tb504 N535 2.660 . S
Tb504 N542 2.600 1_655 S
Tb504 O548 2.546 . S
Tb504 O549 2.610 . S
Tb504 O551 2.320 . S
Tb504 O552 2.552 . S
Tb504 O553 2.413 . S
Tb504 O555 2.362 1_655 S
Tb504 O556 2.421 1_655 S
Tb504 C568 2.833 . S
C505 C508 1.432 . S
C505 C509 1.414 . S
C505 N512 1.359 . S
C506 C508 1.417 . S
C506 C510 1.432 . S
C506 C518 1.410 . S
C507 C509 1.444 . S
C507 C510 1.317 . S
C507 H530 0.929 . S
C508 C505 1.432 . S
C508 C506 1.417 . S
C508 N516 1.360 1_655 S
C509 C505 1.414 . S
C509 C507 1.444 . S
C509 C514 1.385 . S
C510 C506 1.432 . S
C510 C507 1.317 . S
C510 H522 0.930 . S
C511 C513 1.392 . S
C511 C514 1.370 . S
C511 H523 0.931 . S
N512 C505 1.359 . S
N512 C513 1.327 . S
N512 Tb515 2.600 1_655 S
C513 C511 1.392 . S
C513 N512 1.327 . S
C513 H520 0.930 . S
C514 C509 1.385 . S
C514 C511 1.370 . S
C514 H533 0.930 . S
Tb515 N512 2.600 1_455 S
Tb515 N516 2.660 . S
Tb515 O549 2.362 1_455 S
Tb515 O550 2.421 1_455 S
Tb515 O554 2.546 . S
Tb515 O555 2.610 . S
Tb515 O557 2.320 . S
Tb515 O558 2.552 . S
Tb515 O559 2.413 . S
Tb515 C579 2.833 . S
N516 C508 1.360 1_455 S
N516 Tb515 2.660 . S
N516 C517 1.305 . S
C517 N516 1.305 . S
C517 C519 1.407 . S
C517 H524 0.930 . S
C518 C506 1.410 . S
C518 C519 1.345 1_655 S
C518 H526 0.930 . S
C519 C517 1.407 . S
C519 C518 1.345 1_455 S
C519 H521 0.930 . S
H520 C513 0.930 . S
H521 C519 0.930 . S
H522 C510 0.930 . S
H523 C511 0.931 . S
H524 C517 0.930 . S
H525 C539 0.930 . S
H526 C518 0.930 . S
H527 C545 0.930 . S
H528 C536 0.930 . S
H529 C543 0.931 . S
H530 C507 0.929 . S
H531 C537 0.930 . S
H532 C570 0.930 . S
H533 C514 0.930 . S
H534 C569 0.929 . S
N535 Tb504 2.660 . S
N535 C536 1.305 . S
N535 C540 1.360 1_655 S
C536 H528 0.930 . S
C536 N535 1.305 . S
C536 C539 1.407 . S
C537 H531 0.930 . S
C537 C538 1.410 . S
C537 C539 1.345 1_455 S
C538 C537 1.410 . S
C538 C540 1.417 . S
C538 C570 1.432 . S
C539 H525 0.930 . S
C539 C536 1.407 . S
C539 C537 1.345 1_655 S
C540 N535 1.360 1_455 S
C540 C538 1.417 . S
C540 C544 1.432 . S
H541 C546 0.930 . S
N542 Tb504 2.600 1_455 S
N542 C544 1.359 . S
N542 C545 1.327 . S
C543 H529 0.931 . S
C543 C545 1.392 . S
C543 C546 1.370 . S
C544 C540 1.432 . S
C544 N542 1.359 . S
C544 C547 1.414 . S
C545 H527 0.930 . S
C545 N542 1.327 . S
C545 C543 1.392 . S
C546 H541 0.930 . S
C546 C543 1.370 . S
C546 C547 1.385 . S
C547 C544 1.414 . S
C547 C546 1.385 . S
C547 C569 1.444 . S
O548 Tb504 2.546 . S
O548 C568 1.251 . S
O549 Tb504 2.610 . S
O549 Tb515 2.362 1_655 S
O549 C560 1.283 . S
O550 Tb515 2.421 1_655 S
O550 C567 1.262 . S
O551 Tb504 2.320 . S
O551 C567 1.260 . S
O552 Tb504 2.552 . S
O552 C560 1.243 . S
O553 Tb504 2.413 . S
O553 C568 1.256 . S
O554 Tb515 2.546 . S
O554 C579 1.251 . S
O555 Tb504 2.362 1_455 S
O555 Tb515 2.610 . S
O555 C571 1.283 . S
O556 Tb504 2.421 1_455 S
O556 C578 1.262 . S
O557 Tb515 2.320 . S
O557 C578 1.260 . S
O558 Tb515 2.552 . S
O558 C571 1.243 . S
O559 Tb515 2.413 . S
O559 C579 1.256 . S
C560 O549 1.283 . S
C560 O552 1.243 . S
C561 C563 1.382 . S
C561 C565 1.393 . S
C561 C568 1.500 . S
C562 C563 1.400 . S
C562 C564 1.384 . S
C563 C561 1.382 . S
C563 C562 1.400 . S
C563 H580 0.930 . S
C564 C562 1.384 . S
C564 C566 1.392 . S
C564 H581 0.931 . S
C565 C561 1.393 . S
C565 C566 1.401 . S
C565 H582 0.930 . S
C566 C564 1.392 . S
C566 C565 1.401 . S
C566 H583 0.930 . S
C567 O550 1.262 . S
C567 O551 1.260 . S
C568 Tb504 2.833 . S
C568 O548 1.251 . S
C568 O553 1.256 . S
C568 C561 1.500 . S
C569 H534 0.929 . S
C569 C547 1.444 . S
C569 C570 1.317 . S
C570 H532 0.930 . S
C570 C538 1.432 . S
C570 C569 1.317 . S
C571 O555 1.283 . S
C571 O558 1.243 . S
C572 C573 1.382 . S
C572 C576 1.393 . S
C572 C579 1.500 . S
C573 C572 1.382 . S
C573 C574 1.400 . S
C573 H584 0.930 . S
C574 C573 1.400 . S
C574 C575 1.384 . S
C575 C574 1.384 . S
C575 C577 1.392 . S
C575 H585 0.931 . S
C576 C572 1.393 . S
C576 C577 1.401 . S
C576 H586 0.930 . S
C577 C575 1.392 . S
C577 C576 1.401 . S
C577 H587 0.930 . S
C578 O556 1.262 . S
C578 O557 1.260 . S
C579 Tb515 2.833 . S
C579 O554 1.251 . S
C579 O559 1.256 . S
C579 C572 1.500 . S
H580 C563 0.930 . S
H581 C564 0.931 . S
H582 C565 0.930 . S
H583 C566 0.930 . S
H584 C573 0.930 . S
H585 C575 0.931 . S
H586 C576 0.930 . S
H587 C577 0.930 . S
Tb588 N619 2.660 . S
Tb588 N626 2.600 1_565 S
Tb588 O632 2.546 . S
Tb588 O633 2.610 . S
Tb588 O635 2.320 . S
Tb588 O636 2.552 . S
Tb588 O637 2.413 . S
Tb588 O639 2.362 1_565 S
Tb588 O640 2.421 1_565 S
Tb588 C652 2.833 . S
C589 C592 1.432 . S
C589 C593 1.414 . S
C589 N596 1.359 . S
C590 C592 1.417 . S
C590 C594 1.432 . S
C590 C602 1.410 1_565 S
C591 C593 1.444 . S
C591 C594 1.317 . S
C591 H614 0.929 . S
C592 C589 1.432 . S
C592 C590 1.417 . S
C592 N600 1.360 1_565 S
C593 C589 1.414 . S
C593 C591 1.444 . S
C593 C598 1.385 . S
C594 C590 1.432 . S
C594 C591 1.317 . S
C594 H606 0.930 . S
C595 C597 1.392 . S
C595 C598 1.370 . S
C595 H607 0.931 . S
N596 C589 1.359 . S
N596 C597 1.327 . S
N596 Tb599 2.600 1_565 S
C597 C595 1.392 . S
C597 N596 1.327 . S
C597 H604 0.930 . S
C598 C593 1.385 . S
C598 C595 1.370 . S
C598 H617 0.930 . S
Tb599 N596 2.600 1_545 S
Tb599 N600 2.660 . S
Tb599 O633 2.362 1_545 S
Tb599 O634 2.421 1_545 S
Tb599 O638 2.546 . S
Tb599 O639 2.610 . S
Tb599 O641 2.320 . S
Tb599 O642 2.552 . S
Tb599 O643 2.413 . S
Tb599 C663 2.833 . S
N600 C592 1.360 1_545 S
N600 Tb599 2.660 . S
N600 C601 1.305 . S
C601 N600 1.305 . S
C601 C603 1.407 . S
C601 H608 0.930 . S
C602 C590 1.410 1_545 S
C602 C603 1.345 . S
C602 H610 0.927 . S
C603 C601 1.407 . S
C603 C602 1.345 . S
C603 H605 0.930 . S
H604 C597 0.930 . S
H605 C603 0.930 . S
H606 C594 0.930 . S
H607 C595 0.931 . S
H608 C601 0.930 . S
H609 C623 0.930 . S
H610 C602 0.927 . S
H611 C629 0.930 . S
H612 C620 0.930 . S
H613 C627 0.931 . S
H614 C591 0.929 . S
H615 C621 0.925 . S
H616 C654 0.930 . S
H617 C598 0.930 . S
H618 C653 0.929 . S
N619 Tb588 2.660 . S
N619 C620 1.305 . S
N619 C624 1.360 1_565 S
C620 H612 0.930 . S
C620 N619 1.305 . S
C620 C623 1.407 . S
C621 H615 0.925 . S
C621 C622 1.410 1_565 S
C621 C623 1.345 . S
C622 C621 1.410 1_545 S
C622 C624 1.417 . S
C622 C654 1.432 . S
C623 H609 0.930 . S
C623 C620 1.407 . S
C623 C621 1.345 . S
C624 N619 1.360 1_545 S
C624 C622 1.417 . S
C624 C628 1.432 . S
H625 C630 0.930 . S
N626 Tb588 2.600 1_545 S
N626 C628 1.359 . S
N626 C629 1.327 . S
C627 H613 0.931 . S
C627 C629 1.392 . S
C627 C630 1.370 . S
C628 C624 1.432 . S
C628 N626 1.359 . S
C628 C631 1.414 . S
C629 H611 0.930 . S
C629 N626 1.327 . S
C629 C627 1.392 . S
C630 H625 0.930 . S
C630 C627 1.370 . S
C630 C631 1.385 . S
C631 C628 1.414 . S
C631 C630 1.385 . S
C631 C653 1.444 . S
O632 Tb588 2.546 . S
O632 C652 1.251 . S
O633 Tb588 2.610 . S
O633 Tb599 2.362 1_565 S
O633 C644 1.283 . S
O634 Tb599 2.421 1_565 S
O634 C651 1.262 . S
O635 Tb588 2.320 . S
O635 C651 1.260 . S
O636 Tb588 2.552 . S
O636 C644 1.243 . S
O637 Tb588 2.413 . S
O637 C652 1.256 . S
O638 Tb599 2.546 . S
O638 C663 1.251 . S
O639 Tb588 2.362 1_545 S
O639 Tb599 2.610 . S
O639 C655 1.283 . S
O640 Tb588 2.421 1_545 S
O640 C662 1.262 . S
O641 Tb599 2.320 . S
O641 C662 1.260 . S
O642 Tb599 2.552 . S
O642 C655 1.243 . S
O643 Tb599 2.413 . S
O643 C663 1.256 . S
C644 O633 1.283 . S
C644 O636 1.243 . S
C645 C647 1.382 . S
C645 C649 1.393 . S
C645 C652 1.500 . S
C646 C647 1.400 . S
C646 C648 1.384 . S
C647 C645 1.382 . S
C647 C646 1.400 . S
C647 H664 0.930 . S
C648 C646 1.384 . S
C648 C650 1.392 . S
C648 H665 0.931 . S
C649 C645 1.393 . S
C649 C650 1.401 . S
C649 H666 0.930 . S
C650 C648 1.392 . S
C650 C649 1.401 . S
C650 H667 0.930 . S
C651 O634 1.262 . S
C651 O635 1.260 . S
C652 Tb588 2.833 . S
C652 O632 1.251 . S
C652 O637 1.256 . S
C652 C645 1.500 . S
C653 H618 0.929 . S
C653 C631 1.444 . S
C653 C654 1.317 . S
C654 H616 0.930 . S
C654 C622 1.432 . S
C654 C653 1.317 . S
C655 O639 1.283 . S
C655 O642 1.243 . S
C656 C657 1.382 . S
C656 C660 1.393 . S
C656 C663 1.500 . S
C657 C656 1.382 . S
C657 C658 1.400 . S
C657 H668 0.930 . S
C658 C657 1.400 . S
C658 C659 1.384 . S
C659 C658 1.384 . S
C659 C661 1.392 . S
C659 H669 0.931 . S
C660 C656 1.393 . S
C660 C661 1.401 . S
C660 H670 0.930 . S
C661 C659 1.392 . S
C661 C660 1.401 . S
C661 H671 0.930 . S
C662 O640 1.262 . S
C662 O641 1.260 . S
C663 Tb599 2.833 . S
C663 O638 1.251 . S
C663 O643 1.256 . S
C663 C656 1.500 . S
H664 C647 0.930 . S
H665 C648 0.931 . S
H666 C649 0.930 . S
H667 C650 0.930 . S
H668 C657 0.930 . S
H669 C659 0.931 . S
H670 C660 0.930 . S
H671 C661 0.930 . S
Tb672 N703 2.660 . S
Tb672 N710 2.600 . S
Tb672 O716 2.546 . S
Tb672 O717 2.610 . S
Tb672 O719 2.320 . S
Tb672 O720 2.552 . S
Tb672 O721 2.413 . S
Tb672 O723 2.362 . S
Tb672 O724 2.421 . S
Tb672 C736 2.833 . S
C673 C676 1.432 . S
C673 C677 1.414 . S
C673 N680 1.359 . S
C674 C676 1.417 . S
C674 C678 1.432 . S
C674 C686 1.410 . S
C675 C677 1.444 . S
C675 C678 1.317 . S
C675 H698 0.929 . S
C676 C673 1.432 . S
C676 C674 1.417 . S
C676 N684 1.360 . S
C677 C673 1.414 . S
C677 C675 1.444 . S
C677 C682 1.385 . S
C678 C674 1.432 . S
C678 C675 1.317 . S
C678 H690 0.930 . S
C679 C681 1.392 . S
C679 C682 1.370 . S
C679 H691 0.931 . S
N680 C673 1.359 . S
N680 C681 1.327 . S
N680 Tb683 2.600 . S
C681 C679 1.392 . S
C681 N680 1.327 . S
C681 H688 0.930 . S
C682 C677 1.385 . S
C682 C679 1.370 . S
C682 H701 0.930 . S
Tb683 N680 2.600 . S
Tb683 N684 2.660 . S
Tb683 O717 2.362 . S
Tb683 O718 2.421 . S
Tb683 O722 2.546 . S
Tb683 O723 2.610 . S
Tb683 O725 2.320 . S
Tb683 O726 2.552 . S
Tb683 O727 2.413 . S
Tb683 C747 2.833 . S
N684 C676 1.360 . S
N684 Tb683 2.660 . S
N684 C685 1.305 . S
C685 N684 1.305 . S
C685 C687 1.407 . S
C685 H692 0.930 . S
C686 C674 1.410 . S
C686 C687 1.345 . S
C686 H694 0.930 . S
C687 C685 1.407 . S
C687 C686 1.345 . S
C687 H689 0.930 . S
H688 C681 0.930 . S
H689 C687 0.930 . S
H690 C678 0.930 . S
H691 C679 0.931 . S
H692 C685 0.930 . S
H693 C707 0.930 . S
H694 C686 0.930 . S
H695 C713 0.930 . S
H696 C704 0.930 . S
H697 C711 0.931 . S
H698 C675 0.929 . S
H699 C705 0.930 . S
H700 C738 0.930 . S
H701 C682 0.930 . S
H702 C737 0.929 . S
N703 Tb672 2.660 . S
N703 C704 1.305 . S
N703 C708 1.360 . S
C704 H696 0.930 . S
C704 N703 1.305 . S
C704 C707 1.407 . S
C705 H699 0.930 . S
C705 C706 1.410 . S
C705 C707 1.345 . S
C706 C705 1.410 . S
C706 C708 1.417 . S
C706 C738 1.432 . S
C707 H693 0.930 . S
C707 C704 1.407 . S
C707 C705 1.345 . S
C708 N703 1.360 . S
C708 C706 1.417 . S
C708 C712 1.432 . S
H709 C714 0.930 . S
N710 Tb672 2.600 . S
N710 C712 1.359 . S
N710 C713 1.327 . S
C711 H697 0.931 . S
C711 C713 1.392 . S
C711 C714 1.370 . S
C712 C708 1.432 . S
C712 N710 1.359 . S
C712 C715 1.414 . S
C713 H695 0.930 . S
C713 N710 1.327 . S
C713 C711 1.392 . S
C714 H709 0.930 . S
C714 C711 1.370 . S
C714 C715 1.385 . S
C715 C712 1.414 . S
C715 C714 1.385 . S
C715 C737 1.444 . S
O716 Tb672 2.546 . S
O716 C736 1.251 . S
O717 Tb672 2.610 . S
O717 Tb683 2.362 . S
O717 C728 1.283 . S
O718 Tb683 2.421 . S
O718 C735 1.262 . S
O719 Tb672 2.320 . S
O719 C735 1.260 . S
O720 Tb672 2.552 . S
O720 C728 1.243 . S
O721 Tb672 2.413 . S
O721 C736 1.256 . S
O722 Tb683 2.546 . S
O722 C747 1.251 . S
O723 Tb672 2.362 . S
O723 Tb683 2.610 . S
O723 C739 1.283 . S
O724 Tb672 2.421 . S
O724 C746 1.262 . S
O725 Tb683 2.320 . S
O725 C746 1.260 . S
O726 Tb683 2.552 . S
O726 C739 1.243 . S
O727 Tb683 2.413 . S
O727 C747 1.256 . S
C728 O717 1.283 . S
C728 O720 1.243 . S
C729 C731 1.382 . S
C729 C733 1.393 . S
C729 C736 1.500 . S
C730 C731 1.400 . S
C730 C732 1.384 . S
C731 C729 1.382 . S
C731 C730 1.400 . S
C731 H748 0.930 . S
C732 C730 1.384 . S
C732 C734 1.392 . S
C732 H749 0.931 . S
C733 C729 1.393 . S
C733 C734 1.401 . S
C733 H750 0.930 . S
C734 C732 1.392 . S
C734 C733 1.401 . S
C734 H751 0.930 . S
C735 O718 1.262 . S
C735 O719 1.260 . S
C736 Tb672 2.833 . S
C736 O716 1.251 . S
C736 O721 1.256 . S
C736 C729 1.500 . S
C737 H702 0.929 . S
C737 C715 1.444 . S
C737 C738 1.317 . S
C738 H700 0.930 . S
C738 C706 1.432 . S
C738 C737 1.317 . S
C739 O723 1.283 . S
C739 O726 1.243 . S
C740 C741 1.382 . S
C740 C744 1.393 . S
C740 C747 1.500 . S
C741 C740 1.382 . S
C741 C742 1.400 . S
C741 H752 0.930 . S
C742 C741 1.400 . S
C742 C743 1.384 . S
C743 C742 1.384 . S
C743 C745 1.392 . S
C743 H753 0.931 . S
C744 C740 1.393 . S
C744 C745 1.401 . S
C744 H754 0.930 . S
C745 C743 1.392 . S
C745 C744 1.401 . S
C745 H755 0.930 . S
C746 O724 1.262 . S
C746 O725 1.260 . S
C747 Tb683 2.833 . S
C747 O722 1.251 . S
C747 O727 1.256 . S
C747 C740 1.500 . S
H748 C731 0.930 . S
H749 C732 0.931 . S
H750 C733 0.930 . S
H751 C734 0.930 . S
H752 C741 0.930 . S
H753 C743 0.931 . S
H754 C744 0.930 . S
H755 C745 0.930 . S
Tb756 N787 2.660 . S
Tb756 N794 2.600 1_455 S
Tb756 O800 2.546 . S
Tb756 O801 2.610 . S
Tb756 O803 2.320 . S
Tb756 O804 2.552 . S
Tb756 O805 2.413 . S
Tb756 O807 2.362 1_455 S
Tb756 O808 2.421 1_455 S
Tb756 C820 2.833 . S
C757 C760 1.432 . S
C757 C761 1.414 . S
C757 N764 1.359 . S
C758 C760 1.417 . S
C758 C762 1.432 . S
C758 C770 1.410 . S
C759 C761 1.444 . S
C759 C762 1.317 . S
C759 H782 0.929 . S
C760 C757 1.432 . S
C760 C758 1.417 . S
C760 N768 1.360 1_455 S
C761 C757 1.414 . S
C761 C759 1.444 . S
C761 C766 1.385 1_556 S
C762 C758 1.432 . S
C762 C759 1.317 . S
C762 H774 0.930 . S
C763 C765 1.392 . S
C763 C766 1.370 . S
C763 H775 0.931 . S
N764 C757 1.359 . S
N764 C765 1.327 1_556 S
N764 Tb767 2.600 1_455 S
C765 C763 1.392 . S
C765 N764 1.327 1_554 S
C765 H772 0.930 . S
C766 C761 1.385 1_554 S
C766 C763 1.370 . S
C766 H785 0.930 . S
Tb767 N764 2.600 1_655 S
Tb767 N768 2.660 . S
Tb767 O801 2.362 1_655 S
Tb767 O802 2.446 1_655 S
Tb767 O806 2.546 1_556 S
Tb767 O807 2.610 . S
Tb767 O809 2.320 . S
Tb767 O810 2.552 1_556 S
Tb767 O811 2.413 . S
Tb767 C831 2.833 1_556 S
N768 C760 1.360 1_655 S
N768 Tb767 2.660 . S
N768 C769 1.305 . S
C769 N768 1.305 . S
C769 C771 1.407 . S
C769 H776 0.930 . S
C770 C758 1.410 . S
C770 C771 1.345 1_455 S
C770 H778 0.930 . S
C771 C769 1.407 . S
C771 C770 1.345 1_655 S
C771 H773 0.930 . S
H772 C765 0.930 . S
H773 C771 0.930 . S
H774 C762 0.930 . S
H775 C763 0.931 . S
H776 C769 0.930 . S
H777 C791 0.924 . S
H778 C770 0.930 . S
H779 C797 0.930 . S
H780 C788 0.930 . S
H781 C795 0.931 . S
H782 C759 0.929 . S
H783 C789 0.930 1_554 S
H784 C822 0.930 . S
H785 C766 0.930 . S
H786 C821 0.929 . S
N787 Tb756 2.660 . S
N787 C788 1.305 . S
N787 C792 1.360 1_455 S
C788 H780 0.930 . S
C788 N787 1.305 . S
C788 C791 1.411 1_556 S
C789 H783 0.930 1_556 S
C789 C790 1.410 . S
C789 C791 1.347 1_656 S
C790 C789 1.410 . S
C790 C792 1.417 . S
C790 C822 1.432 . S
C791 H777 0.924 . S
C791 C788 1.411 1_554 S
C791 C789 1.347 1_454 S
C792 N787 1.360 1_655 S
C792 C790 1.417 . S
C792 C796 1.432 . S
H793 C798 0.930 . S
N794 Tb756 2.600 1_655 S
N794 C796 1.359 . S
N794 C797 1.327 . S
C795 H781 0.931 . S
C795 C797 1.392 . S
C795 C798 1.370 . S
C796 C792 1.432 . S
C796 N794 1.359 . S
C796 C799 1.414 . S
C797 H779 0.930 . S
C797 N794 1.327 . S
C797 C795 1.392 . S
C798 H793 0.930 . S
C798 C795 1.370 . S
C798 C799 1.385 . S
C799 C796 1.414 . S
C799 C798 1.385 . S
C799 C821 1.444 . S
O800 Tb756 2.546 . S
O800 C820 1.251 . S
O801 Tb756 2.610 . S
O801 Tb767 2.362 1_455 S
O801 C812 1.283 . S
O802 Tb767 2.446 1_455 S
O802 C819 1.301 . S
O803 Tb756 2.320 . S
O803 C819 1.260 . S
O804 Tb756 2.552 . S
O804 C812 1.243 . S
O805 Tb756 2.413 . S
O805 C820 1.256 . S
O806 Tb767 2.546 1_554 S
O806 C831 1.251 . S
O807 Tb756 2.362 1_655 S
O807 Tb767 2.610 . S
O807 C823 1.283 . S
O808 Tb756 2.421 1_655 S
O808 C830 1.262 . S
O809 Tb767 2.320 . S
O809 C830 1.260 . S
O810 Tb767 2.552 1_554 S
O810 C823 1.243 1_554 S
O811 Tb767 2.413 . S
O811 C831 1.256 1_556 S
C812 O801 1.283 . S
C812 O804 1.243 . S
C813 C815 1.382 . S
C813 C817 1.393 . S
C813 C820 1.500 . S
C814 C815 1.400 . S
C814 C816 1.384 . S
C815 C813 1.382 . S
C815 C814 1.400 . S
C815 H832 0.930 . S
C816 C814 1.384 . S
C816 C818 1.392 . S
C816 H833 0.931 . S
C817 C813 1.393 . S
C817 C818 1.401 . S
C817 H834 0.930 . S
C818 C816 1.392 . S
C818 C817 1.401 . S
C818 H835 0.930 . S
C819 O802 1.301 . S
C819 O803 1.260 . S
C820 Tb756 2.833 . S
C820 O800 1.251 . S
C820 O805 1.256 . S
C820 C813 1.500 . S
C821 H786 0.929 . S
C821 C799 1.444 . S
C821 C822 1.317 . S
C822 H784 0.930 . S
C822 C790 1.432 . S
C822 C821 1.317 . S
C823 O807 1.283 . S
C823 O810 1.243 1_556 S
C824 C825 1.382 . S
C824 C828 1.393 . S
C824 C831 1.500 . S
C825 C824 1.382 . S
C825 C826 1.400 . S
C825 H836 0.930 . S
C826 C825 1.400 . S
C826 C827 1.384 . S
C827 C826 1.384 . S
C827 C829 1.392 . S
C827 H837 0.931 . S
C828 C824 1.393 . S
C828 C829 1.401 . S
C828 H838 0.930 . S
C829 C827 1.392 . S
C829 C828 1.401 . S
C829 H839 0.930 . S
C830 O808 1.262 . S
C830 O809 1.260 . S
C831 Tb767 2.833 1_554 S
C831 O806 1.251 . S
C831 O811 1.256 1_554 S
C831 C824 1.500 . S
H832 C815 0.930 . S
H833 C816 0.931 . S
H834 C817 0.930 . S
H835 C818 0.930 . S
H836 C825 0.930 . S
H837 C827 0.931 . S
H838 C828 0.930 . S
H839 C829 0.930 . S
Tb840 N871 2.660 . S
Tb840 N878 2.600 1_545 S
Tb840 O884 2.546 . S
Tb840 O885 2.610 . S
Tb840 O887 2.320 . S
Tb840 O888 2.552 . S
Tb840 O889 2.413 . S
Tb840 O891 2.362 1_545 S
Tb840 O892 2.421 1_545 S
Tb840 C904 2.833 . S
C841 C844 1.432 . S
C841 C845 1.414 . S
C841 N848 1.359 . S
C842 C844 1.417 . S
C842 C846 1.432 . S
C842 C854 1.410 1_545 S
C843 C845 1.444 . S
C843 C846 1.317 . S
C843 H866 0.929 . S
C844 C841 1.432 . S
C844 C842 1.417 . S
C844 N852 1.360 1_545 S
C845 C841 1.414 . S
C845 C843 1.444 . S
C845 C850 1.385 . S
C846 C842 1.432 . S
C846 C843 1.317 . S
C846 H858 0.930 . S
C847 C849 1.392 . S
C847 C850 1.370 . S
C847 H859 0.931 . S
N848 C841 1.359 . S
N848 C849 1.327 . S
N848 Tb851 2.600 1_545 S
C849 C847 1.392 . S
C849 N848 1.327 . S
C849 H856 0.930 . S
C850 C845 1.385 . S
C850 C847 1.370 . S
C850 H869 0.930 . S
Tb851 N848 2.600 1_565 S
Tb851 N852 2.660 . S
Tb851 O885 2.362 1_565 S
Tb851 O886 2.421 1_565 S
Tb851 O890 2.546 . S
Tb851 O891 2.610 . S
Tb851 O893 2.320 . S
Tb851 O894 2.552 . S
Tb851 O895 2.413 . S
Tb851 C915 2.833 . S
N852 C844 1.360 1_565 S
N852 Tb851 2.660 . S
N852 C853 1.305 . S
C853 N852 1.305 . S
C853 C855 1.407 . S
C853 H860 0.930 . S
C854 C842 1.410 1_565 S
C854 C855 1.345 . S
C854 H862 0.927 . S
C855 C853 1.407 . S
C855 C854 1.345 . S
C855 H857 0.930 . S
H856 C849 0.930 . S
H857 C855 0.930 . S
H858 C846 0.930 . S
H859 C847 0.931 . S
H860 C853 0.930 . S
H861 C875 0.930 . S
H862 C854 0.927 . S
H863 C881 0.930 . S
H864 C872 0.930 . S
H865 C879 0.931 . S
H866 C843 0.929 . S
H867 C873 0.925 . S
H868 C906 0.930 . S
H869 C850 0.930 . S
H870 C905 0.929 . S
N871 Tb840 2.660 . S
N871 C872 1.305 . S
N871 C876 1.360 1_545 S
C872 H864 0.930 . S
C872 N871 1.305 . S
C872 C875 1.407 . S
C873 H867 0.925 . S
C873 C874 1.410 1_545 S
C873 C875 1.345 . S
C874 C873 1.410 1_565 S
C874 C876 1.417 . S
C874 C906 1.432 . S
C875 H861 0.930 . S
C875 C872 1.407 . S
C875 C873 1.345 . S
C876 N871 1.360 1_565 S
C876 C874 1.417 . S
C876 C880 1.432 . S
H877 C882 0.930 . S
N878 Tb840 2.600 1_565 S
N878 C880 1.359 . S
N878 C881 1.327 . S
C879 H865 0.931 . S
C879 C881 1.392 . S
C879 C882 1.370 . S
C880 C876 1.432 . S
C880 N878 1.359 . S
C880 C883 1.414 . S
C881 H863 0.930 . S
C881 N878 1.327 . S
C881 C879 1.392 . S
C882 H877 0.930 . S
C882 C879 1.370 . S
C882 C883 1.385 . S
C883 C880 1.414 . S
C883 C882 1.385 . S
C883 C905 1.444 . S
O884 Tb840 2.546 . S
O884 C904 1.251 . S
O885 Tb840 2.610 . S
O885 Tb851 2.362 1_545 S
O885 C896 1.283 . S
O886 Tb851 2.421 1_545 S
O886 C903 1.262 . S
O887 Tb840 2.320 . S
O887 C903 1.260 . S
O888 Tb840 2.552 . S
O888 C896 1.243 . S
O889 Tb840 2.413 . S
O889 C904 1.256 . S
O890 Tb851 2.546 . S
O890 C915 1.251 . S
O891 Tb840 2.362 1_565 S
O891 Tb851 2.610 . S
O891 C907 1.283 . S
O892 Tb840 2.421 1_565 S
O892 C914 1.262 . S
O893 Tb851 2.320 . S
O893 C914 1.260 . S
O894 Tb851 2.552 . S
O894 C907 1.243 . S
O895 Tb851 2.413 . S
O895 C915 1.256 . S
C896 O885 1.283 . S
C896 O888 1.243 . S
C897 C899 1.382 . S
C897 C901 1.393 . S
C897 C904 1.500 . S
C898 C899 1.400 . S
C898 C900 1.384 . S
C899 C897 1.382 . S
C899 C898 1.400 . S
C899 H916 0.930 . S
C900 C898 1.384 . S
C900 C902 1.392 . S
C900 H917 0.931 . S
C901 C897 1.393 . S
C901 C902 1.401 . S
C901 H918 0.930 . S
C902 C900 1.392 . S
C902 C901 1.401 . S
C902 H919 0.930 . S
C903 O886 1.262 . S
C903 O887 1.260 . S
C904 Tb840 2.833 . S
C904 O884 1.251 . S
C904 O889 1.256 . S
C904 C897 1.500 . S
C905 H870 0.929 . S
C905 C883 1.444 . S
C905 C906 1.317 . S
C906 H868 0.930 . S
C906 C874 1.432 . S
C906 C905 1.317 . S
C907 O891 1.283 . S
C907 O894 1.243 . S
C908 C909 1.382 . S
C908 C912 1.393 . S
C908 C915 1.500 . S
C909 C908 1.382 . S
C909 C910 1.400 . S
C909 H920 0.930 . S
C910 C909 1.400 . S
C910 C911 1.384 . S
C911 C910 1.384 . S
C911 C913 1.392 . S
C911 H921 0.931 . S
C912 C908 1.393 . S
C912 C913 1.401 . S
C912 H922 0.930 . S
C913 C911 1.392 . S
C913 C912 1.401 . S
C913 H923 0.930 . S
C914 O892 1.262 . S
C914 O893 1.260 . S
C915 Tb851 2.833 . S
C915 O890 1.251 . S
C915 O895 1.256 . S
C915 C908 1.500 . S
H916 C899 0.930 . S
H917 C900 0.931 . S
H918 C901 0.930 . S
H919 C902 0.930 . S
H920 C909 0.930 . S
H921 C911 0.931 . S
H922 C912 0.930 . S
H923 C913 0.930 . S
Tb924 N955 2.660 . S
Tb924 N962 2.600 . S
Tb924 O968 2.546 . S
Tb924 O969 2.610 . S
Tb924 O971 2.320 . S
Tb924 O972 2.552 . S
Tb924 O973 2.413 . S
Tb924 O975 2.362 . S
Tb924 O976 2.421 . S
Tb924 C988 2.833 . S
C925 C928 1.432 . S
C925 C929 1.414 . S
C925 N932 1.359 . S
C926 C928 1.417 . S
C926 C930 1.432 . S
C926 C938 1.410 . S
C927 C929 1.444 . S
C927 C930 1.317 . S
C927 H950 0.929 . S
C928 C925 1.432 . S
C928 C926 1.417 . S
C928 N936 1.360 . S
C929 C925 1.414 . S
C929 C927 1.444 . S
C929 C934 1.385 . S
C930 C926 1.432 . S
C930 C927 1.317 . S
C930 H942 0.930 . S
C931 C933 1.392 . S
C931 C934 1.370 . S
C931 H943 0.931 . S
N932 C925 1.359 . S
N932 C933 1.327 . S
N932 Tb935 2.600 . S
C933 C931 1.392 . S
C933 N932 1.327 . S
C933 H940 0.930 . S
C934 C929 1.385 . S
C934 C931 1.370 . S
C934 H953 0.930 . S
Tb935 N932 2.600 . S
Tb935 N936 2.660 . S
Tb935 O969 2.362 . S
Tb935 O970 2.421 . S
Tb935 O974 2.546 . S
Tb935 O975 2.610 . S
Tb935 O977 2.320 . S
Tb935 O978 2.552 . S
Tb935 O979 2.413 . S
Tb935 C999 2.833 . S
N936 C928 1.360 . S
N936 Tb935 2.660 . S
N936 C937 1.305 . S
C937 N936 1.305 . S
C937 C939 1.407 . S
C937 H944 0.930 . S
C938 C926 1.410 . S
C938 C939 1.345 . S
C938 H946 0.930 . S
C939 C937 1.407 . S
C939 C938 1.345 . S
C939 H941 0.930 . S
H940 C933 0.930 . S
H941 C939 0.930 . S
H942 C930 0.930 . S
H943 C931 0.931 . S
H944 C937 0.930 . S
H945 C959 0.930 . S
H946 C938 0.930 . S
H947 C965 0.930 . S
H948 C956 0.930 . S
H949 C963 0.931 . S
H950 C927 0.929 . S
H951 C957 0.930 . S
H952 C990 0.930 . S
H953 C934 0.930 . S
H954 C989 0.929 . S
N955 Tb924 2.660 . S
N955 C956 1.305 . S
N955 C960 1.360 . S
C956 H948 0.930 . S
C956 N955 1.305 . S
C956 C959 1.407 . S
C957 H951 0.930 . S
C957 C958 1.410 . S
C957 C959 1.345 . S
C958 C957 1.410 . S
C958 C960 1.417 . S
C958 C990 1.432 . S
C959 H945 0.930 . S
C959 C956 1.407 . S
C959 C957 1.345 . S
C960 N955 1.360 . S
C960 C958 1.417 . S
C960 C964 1.432 . S
H961 C966 0.930 . S
N962 Tb924 2.600 . S
N962 C964 1.359 . S
N962 C965 1.327 . S
C963 H949 0.931 . S
C963 C965 1.392 . S
C963 C966 1.370 . S
C964 C960 1.432 . S
C964 N962 1.359 . S
C964 C967 1.414 . S
C965 H947 0.930 . S
C965 N962 1.327 . S
C965 C963 1.392 . S
C966 H961 0.930 . S
C966 C963 1.370 . S
C966 C967 1.385 . S
C967 C964 1.414 . S
C967 C966 1.385 . S
C967 C989 1.444 . S
O968 Tb924 2.546 . S
O968 C988 1.251 . S
O969 Tb924 2.610 . S
O969 Tb935 2.362 . S
O969 C980 1.283 . S
O970 Tb935 2.421 . S
O970 C987 1.262 . S
O971 Tb924 2.320 . S
O971 C987 1.260 . S
O972 Tb924 2.552 . S
O972 C980 1.243 . S
O973 Tb924 2.413 . S
O973 C988 1.256 . S
O974 Tb935 2.546 . S
O974 C999 1.251 . S
O975 Tb924 2.362 . S
O975 Tb935 2.610 . S
O975 C991 1.283 . S
O976 Tb924 2.421 . S
O976 C998 1.262 . S
O977 Tb935 2.320 . S
O977 C998 1.260 . S
O978 Tb935 2.552 . S
O978 C991 1.243 . S
O979 Tb935 2.413 . S
O979 C999 1.256 . S
C980 O969 1.283 . S
C980 O972 1.243 . S
C981 C983 1.382 . S
C981 C985 1.393 . S
C981 C988 1.500 . S
C982 C983 1.400 . S
C982 C984 1.384 . S
C983 C981 1.382 . S
C983 C982 1.400 . S
C983 H1000 0.930 . S
C984 C982 1.384 . S
C984 C986 1.392 . S
C984 H1001 0.931 . S
C985 C981 1.393 . S
C985 C986 1.401 . S
C985 H1002 0.930 . S
C986 C984 1.392 . S
C986 C985 1.401 . S
C986 H1003 0.930 . S
C987 O970 1.262 . S
C987 O971 1.260 . S
C988 Tb924 2.833 . S
C988 O968 1.251 . S
C988 O973 1.256 . S
C988 C981 1.500 . S
C989 H954 0.929 . S
C989 C967 1.444 . S
C989 C990 1.317 . S
C990 H952 0.930 . S
C990 C958 1.432 . S
C990 C989 1.317 . S
C991 O975 1.283 . S
C991 O978 1.243 . S
C992 C993 1.382 . S
C992 C996 1.393 . S
C992 C999 1.500 . S
C993 C992 1.382 . S
C993 C994 1.400 . S
C993 H1004 0.930 . S
C994 C993 1.400 . S
C994 C995 1.384 . S
C995 C994 1.384 . S
C995 C997 1.392 . S
C995 H1005 0.931 . S
C996 C992 1.393 . S
C996 C997 1.401 . S
C996 H1006 0.930 . S
C997 C995 1.392 . S
C997 C996 1.401 . S
C997 H1007 0.930 . S
C998 O976 1.262 . S
C998 O977 1.260 . S
C999 Tb935 2.833 . S
C999 O974 1.251 . S
C999 O979 1.256 . S
C999 C992 1.500 . S
H1000 C983 0.930 . S
H1001 C984 0.931 . S
H1002 C985 0.930 . S
H1003 C986 0.930 . S
H1004 C993 0.930 . S
H1005 C995 0.931 . S
H1006 C996 0.930 . S
H1007 C997 0.930 . S
H1008 C1014 0.930 . S
H1009 C1018 0.930 . S
H1010 C1023 0.929 . S
H1011 C1021 0.929 . S
H1012 C1016 0.929 . S
H1013 C1022 0.929 . S
C1014 H1008 0.930 . S
C1014 C1015 1.367 . S
C1014 C1022 1.378 . S
C1015 C1014 1.367 . S
C1015 C1023 1.433 . S
C1016 H1012 0.929 . S
C1016 C1018 1.378 . S
C1016 C1020 1.350 . S
C1017 C1020 1.463 . S
C1017 C1022 1.350 . S
C1017 N1025 1.427 . S
C1018 H1009 0.930 . S
C1018 C1016 1.378 . S
C1018 C1019 1.367 . S
C1019 C1018 1.367 . S
C1019 C1021 1.433 . S
C1020 C1016 1.350 . S
C1020 C1017 1.463 . S
C1020 N1024 1.427 . S
C1021 H1011 0.929 . S
C1021 C1019 1.433 . S
C1021 N1024 1.384 . S
C1022 H1013 0.929 . S
C1022 C1014 1.378 . S
C1022 C1017 1.350 . S
C1023 H1010 0.929 . S
C1023 C1015 1.433 . S
C1023 N1025 1.384 . S
N1024 C1020 1.427 . S
N1024 C1021 1.384 . S
N1025 C1017 1.427 . S
N1025 C1023 1.384 . S
H1026 C1032 0.930 . S
H1027 C1036 0.930 . S
H1028 C1041 0.929 . S
H1029 C1039 0.929 . S
H1030 C1034 0.929 . S
H1031 C1040 0.929 . S
C1032 H1026 0.930 . S
C1032 C1033 1.367 . S
C1032 C1040 1.378 . S
C1033 C1032 1.367 . S
C1033 C1041 1.433 . S
C1034 H1030 0.929 . S
C1034 C1036 1.378 . S
C1034 C1038 1.350 . S
C1035 C1038 1.463 . S
C1035 C1040 1.350 . S
C1035 N1043 1.427 . S
C1036 H1027 0.930 . S
C1036 C1034 1.378 . S
C1036 C1037 1.367 . S
C1037 C1036 1.367 . S
C1037 C1039 1.433 . S
C1038 C1034 1.350 . S
C1038 C1035 1.463 . S
C1038 N1042 1.427 . S
C1039 H1029 0.929 . S
C1039 C1037 1.433 . S
C1039 N1042 1.384 . S
C1040 H1031 0.929 . S
C1040 C1032 1.378 . S
C1040 C1035 1.350 . S
C1041 H1028 0.929 . S
C1041 C1033 1.433 . S
C1041 N1043 1.384 . S
N1042 C1038 1.427 . S
N1042 C1039 1.384 . S
N1043 C1035 1.427 . S
N1043 C1041 1.384 . S
H1044 C1050 0.930 . S
H1045 C1054 0.930 . S
H1046 C1059 0.929 . S
H1047 C1057 0.929 . S
H1048 C1052 0.929 . S
H1049 C1058 0.929 . S
C1050 H1044 0.930 . S
C1050 C1051 1.367 . S
C1050 C1058 1.378 . S
C1051 C1050 1.367 . S
C1051 C1059 1.433 . S
C1052 H1048 0.929 . S
C1052 C1054 1.378 . S
C1052 C1056 1.350 . S
C1053 C1056 1.463 . S
C1053 C1058 1.350 . S
C1053 N1061 1.427 . S
C1054 H1045 0.930 . S
C1054 C1052 1.378 . S
C1054 C1055 1.367 . S
C1055 C1054 1.367 . S
C1055 C1057 1.433 . S
C1056 C1052 1.350 . S
C1056 C1053 1.463 . S
C1056 N1060 1.427 . S
C1057 H1047 0.929 . S
C1057 C1055 1.433 . S
C1057 N1060 1.384 . S
C1058 H1049 0.929 . S
C1058 C1050 1.378 . S
C1058 C1053 1.350 . S
C1059 H1046 0.929 . S
C1059 C1051 1.433 . S
C1059 N1061 1.384 . S
N1060 C1056 1.427 . S
N1060 C1057 1.384 . S
N1061 C1053 1.427 . S
N1061 C1059 1.384 . S
H1062 C1068 0.930 . S
H1063 C1072 0.930 . S
H1064 C1077 0.929 . S
H1065 C1075 0.929 . S
H1066 C1070 0.929 . S
H1067 C1076 0.929 . S
C1068 H1062 0.930 . S
C1068 C1069 1.367 . S
C1068 C1076 1.378 . S
C1069 C1068 1.367 . S
C1069 C1077 1.433 . S
C1070 H1066 0.929 . S
C1070 C1072 1.378 . S
C1070 C1074 1.350 . S
C1071 C1074 1.463 . S
C1071 C1076 1.350 . S
C1071 N1079 1.427 . S
C1072 H1063 0.930 . S
C1072 C1070 1.378 . S
C1072 C1073 1.367 . S
C1073 C1072 1.367 . S
C1073 C1075 1.433 . S
C1074 C1070 1.350 . S
C1074 C1071 1.463 . S
C1074 N1078 1.427 . S
C1075 H1065 0.929 . S
C1075 C1073 1.433 . S
C1075 N1078 1.384 . S
C1076 H1067 0.929 . S
C1076 C1068 1.378 . S
C1076 C1071 1.350 . S
C1077 H1064 0.929 . S
C1077 C1069 1.433 . S
C1077 N1079 1.384 . S
N1078 C1074 1.427 . S
N1078 C1075 1.384 . S
N1079 C1071 1.427 . S
N1079 C1077 1.384 . S
H1080 C1086 0.930 . S
H1081 C1090 0.930 . S
H1082 C1095 0.929 . S
H1083 C1093 0.929 . S
H1084 C1088 0.929 . S
H1085 C1094 0.929 . S
C1086 H1080 0.930 . S
C1086 C1087 1.367 . S
C1086 C1094 1.378 . S
C1087 C1086 1.367 . S
C1087 C1095 1.433 . S
C1088 H1084 0.929 . S
C1088 C1090 1.378 . S
C1088 C1092 1.350 . S
C1089 C1092 1.463 . S
C1089 C1094 1.350 . S
C1089 N1097 1.427 . S
C1090 H1081 0.930 . S
C1090 C1088 1.378 . S
C1090 C1091 1.367 . S
C1091 C1090 1.367 . S
C1091 C1093 1.433 . S
C1092 C1088 1.350 . S
C1092 C1089 1.463 . S
C1092 N1096 1.427 . S
C1093 H1083 0.929 . S
C1093 C1091 1.433 . S
C1093 N1096 1.384 . S
C1094 H1085 0.929 . S
C1094 C1086 1.378 . S
C1094 C1089 1.350 . S
C1095 H1082 0.929 . S
C1095 C1087 1.433 . S
C1095 N1097 1.384 . S
N1096 C1092 1.427 . S
N1096 C1093 1.384 . S
N1097 C1089 1.427 . S
N1097 C1095 1.384 . S
H1098 C1104 0.930 . S
H1099 C1108 0.930 . S
H1100 C1113 0.929 . S
H1101 C1111 0.929 . S
H1102 C1106 0.929 . S
H1103 C1112 0.929 . S
C1104 H1098 0.930 . S
C1104 C1105 1.367 . S
C1104 C1112 1.378 . S
C1105 C1104 1.367 . S
C1105 C1113 1.433 . S
C1106 H1102 0.929 . S
C1106 C1108 1.378 . S
C1106 C1110 1.350 . S
C1107 C1110 1.463 . S
C1107 C1112 1.350 . S
C1107 N1115 1.427 . S
C1108 H1099 0.930 . S
C1108 C1106 1.378 . S
C1108 C1109 1.367 . S
C1109 C1108 1.367 . S
C1109 C1111 1.433 . S
C1110 C1106 1.350 . S
C1110 C1107 1.463 . S
C1110 N1114 1.427 . S
C1111 H1101 0.929 . S
C1111 C1109 1.433 . S
C1111 N1114 1.384 . S
C1112 H1103 0.929 . S
C1112 C1104 1.378 . S
C1112 C1107 1.350 . S
C1113 H1100 0.929 . S
C1113 C1105 1.433 . S
C1113 N1115 1.384 . S
N1114 C1110 1.427 . S
N1114 C1111 1.384 . S
N1115 C1107 1.427 . S
N1115 C1113 1.384 . S
H1116 C1122 0.930 . S
H1117 C1126 0.930 . S
H1118 C1131 0.929 . S
H1119 C1129 0.929 . S
H1120 C1124 0.929 . S
H1121 C1130 0.929 . S
C1122 H1116 0.930 . S
C1122 C1123 1.367 . S
C1122 C1130 1.378 . S
C1123 C1122 1.367 . S
C1123 C1131 1.433 . S
C1124 H1120 0.929 . S
C1124 C1126 1.378 . S
C1124 C1128 1.350 . S
C1125 C1128 1.463 . S
C1125 C1130 1.350 . S
C1125 N1133 1.427 . S
C1126 H1117 0.930 . S
C1126 C1124 1.378 . S
C1126 C1127 1.367 . S
C1127 C1126 1.367 . S
C1127 C1129 1.433 . S
C1128 C1124 1.350 . S
C1128 C1125 1.463 . S
C1128 N1132 1.427 . S
C1129 H1119 0.929 . S
C1129 C1127 1.433 . S
C1129 N1132 1.384 . S
C1130 H1121 0.929 . S
C1130 C1122 1.378 . S
C1130 C1125 1.350 . S
C1131 H1118 0.929 . S
C1131 C1123 1.433 . S
C1131 N1133 1.384 . S
N1132 C1128 1.427 . S
N1132 C1129 1.384 . S
N1133 C1125 1.427 . S
N1133 C1131 1.384 . S
H1134 C1140 0.930 . S
H1135 C1144 0.930 . S
H1136 C1149 0.929 . S
H1137 C1147 0.929 . S
H1138 C1142 0.929 . S
H1139 C1148 0.929 . S
C1140 H1134 0.930 . S
C1140 C1141 1.367 . S
C1140 C1148 1.378 . S
C1141 C1140 1.367 . S
C1141 C1149 1.433 . S
C1142 H1138 0.929 . S
C1142 C1144 1.378 . S
C1142 C1146 1.350 . S
C1143 C1146 1.463 . S
C1143 C1148 1.350 . S
C1143 N1151 1.427 . S
C1144 H1135 0.930 . S
C1144 C1142 1.378 . S
C1144 C1145 1.367 . S
C1145 C1144 1.367 . S
C1145 C1147 1.433 . S
C1146 C1142 1.350 . S
C1146 C1143 1.463 . S
C1146 N1150 1.427 . S
C1147 H1137 0.929 . S
C1147 C1145 1.433 . S
C1147 N1150 1.384 . S
C1148 H1139 0.929 . S
C1148 C1140 1.378 . S
C1148 C1143 1.350 . S
C1149 H1136 0.929 . S
C1149 C1141 1.433 . S
C1149 N1151 1.384 . S
N1150 C1146 1.427 . S
N1150 C1147 1.384 . S
N1151 C1143 1.427 . S
N1151 C1149 1.384 . S
H1152 C1158 0.930 . S
H1153 C1162 0.930 . S
H1154 C1167 0.929 . S
H1155 C1165 0.929 . S
H1156 C1160 0.929 . S
H1157 C1166 0.929 . S
C1158 H1152 0.930 . S
C1158 C1159 1.367 . S
C1158 C1166 1.378 . S
C1159 C1158 1.367 . S
C1159 C1167 1.433 . S
C1160 H1156 0.929 . S
C1160 C1162 1.378 . S
C1160 C1164 1.350 . S
C1161 C1164 1.463 . S
C1161 C1166 1.350 . S
C1161 N1169 1.427 . S
C1162 H1153 0.930 . S
C1162 C1160 1.378 . S
C1162 C1163 1.367 . S
C1163 C1162 1.367 . S
C1163 C1165 1.433 . S
C1164 C1160 1.350 . S
C1164 C1161 1.463 . S
C1164 N1168 1.427 . S
C1165 H1155 0.929 . S
C1165 C1163 1.433 . S
C1165 N1168 1.384 . S
C1166 H1157 0.929 . S
C1166 C1158 1.378 . S
C1166 C1161 1.350 . S
C1167 H1154 0.929 . S
C1167 C1159 1.433 . S
C1167 N1169 1.384 . S
N1168 C1164 1.427 . S
N1168 C1165 1.384 . S
N1169 C1161 1.427 . S
N1169 C1167 1.384 . S
H1170 C1176 0.930 . S
H1171 C1180 0.930 . S
H1172 C1185 0.929 . S
H1173 C1183 0.929 . S
H1174 C1178 0.929 . S
H1175 C1184 0.929 . S
C1176 H1170 0.930 . S
C1176 C1177 1.367 . S
C1176 C1184 1.378 . S
C1177 C1176 1.367 . S
C1177 C1185 1.433 . S
C1178 H1174 0.929 . S
C1178 C1180 1.378 . S
C1178 C1182 1.350 . S
C1179 C1182 1.463 . S
C1179 C1184 1.350 . S
C1179 N1187 1.427 . S
C1180 H1171 0.930 . S
C1180 C1178 1.378 . S
C1180 C1181 1.367 . S
C1181 C1180 1.367 . S
C1181 C1183 1.433 . S
C1182 C1178 1.350 . S
C1182 C1179 1.463 . S
C1182 N1186 1.427 . S
C1183 H1173 0.929 . S
C1183 C1181 1.433 . S
C1183 N1186 1.384 . S
C1184 H1175 0.929 . S
C1184 C1176 1.378 . S
C1184 C1179 1.350 . S
C1185 H1172 0.929 . S
C1185 C1177 1.433 . S
C1185 N1187 1.384 . S
N1186 C1182 1.427 . S
N1186 C1183 1.384 . S
N1187 C1179 1.427 . S
N1187 C1185 1.384 . S
H1188 C1194 0.930 . S
H1189 C1198 0.930 . S
H1190 C1203 0.929 . S
H1191 C1201 0.929 . S
H1192 C1196 0.929 . S
H1193 C1202 0.929 . S
C1194 H1188 0.930 . S
C1194 C1195 1.367 . S
C1194 C1202 1.378 . S
C1195 C1194 1.367 . S
C1195 C1203 1.433 . S
C1196 H1192 0.929 . S
C1196 C1198 1.378 . S
C1196 C1200 1.350 . S
C1197 C1200 1.463 . S
C1197 C1202 1.350 . S
C1197 N1205 1.427 . S
C1198 H1189 0.930 . S
C1198 C1196 1.378 . S
C1198 C1199 1.367 . S
C1199 C1198 1.367 . S
C1199 C1201 1.433 . S
C1200 C1196 1.350 . S
C1200 C1197 1.463 . S
C1200 N1204 1.427 . S
C1201 H1191 0.929 . S
C1201 C1199 1.433 . S
C1201 N1204 1.384 . S
C1202 H1193 0.929 . S
C1202 C1194 1.378 . S
C1202 C1197 1.350 . S
C1203 H1190 0.929 . S
C1203 C1195 1.433 . S
C1203 N1205 1.384 . S
N1204 C1200 1.427 . S
N1204 C1201 1.384 . S
N1205 C1197 1.427 . S
N1205 C1203 1.384 . S
H1206 C1212 0.930 . S
H1207 C1216 0.930 . S
H1208 C1221 0.929 . S
H1209 C1219 0.929 . S
H1210 C1214 0.929 . S
H1211 C1220 0.929 . S
C1212 H1206 0.930 . S
C1212 C1213 1.367 . S
C1212 C1220 1.378 . S
C1213 C1212 1.367 . S
C1213 C1221 1.433 . S
C1214 H1210 0.929 . S
C1214 C1216 1.378 . S
C1214 C1218 1.350 . S
C1215 C1218 1.463 . S
C1215 C1220 1.350 . S
C1215 N1223 1.427 . S
C1216 H1207 0.930 . S
C1216 C1214 1.378 . S
C1216 C1217 1.367 . S
C1217 C1216 1.367 . S
C1217 C1219 1.433 . S
C1218 C1214 1.350 . S
C1218 C1215 1.463 . S
C1218 N1222 1.427 . S
C1219 H1209 0.929 . S
C1219 C1217 1.433 . S
C1219 N1222 1.384 . S
C1220 H1211 0.929 . S
C1220 C1212 1.378 . S
C1220 C1215 1.350 . S
C1221 H1208 0.929 . S
C1221 C1213 1.433 . S
C1221 N1223 1.384 . S
N1222 C1218 1.427 . S
N1222 C1219 1.384 . S
N1223 C1215 1.427 . S
N1223 C1221 1.384 . S
H1224 C1230 0.930 . S
H1225 C1234 0.930 . S
H1226 C1239 0.929 . S
H1227 C1237 0.929 . S
H1228 C1232 0.929 . S
H1229 C1238 0.929 . S
C1230 H1224 0.930 . S
C1230 C1231 1.367 . S
C1230 C1238 1.378 . S
C1231 C1230 1.367 . S
C1231 C1239 1.433 . S
C1232 H1228 0.929 . S
C1232 C1234 1.378 . S
C1232 C1236 1.350 . S
C1233 C1236 1.463 . S
C1233 C1238 1.350 . S
C1233 N1241 1.427 . S
C1234 H1225 0.930 . S
C1234 C1232 1.378 . S
C1234 C1235 1.367 . S
C1235 C1234 1.367 . S
C1235 C1237 1.433 . S
C1236 C1232 1.350 . S
C1236 C1233 1.463 . S
C1236 N1240 1.427 . S
C1237 H1227 0.929 . S
C1237 C1235 1.433 . S
C1237 N1240 1.384 . S
C1238 H1229 0.929 . S
C1238 C1230 1.378 . S
C1238 C1233 1.350 . S
C1239 H1226 0.929 . S
C1239 C1231 1.433 . S
C1239 N1241 1.384 . S
N1240 C1236 1.427 . S
N1240 C1237 1.384 . S
N1241 C1233 1.427 . S
N1241 C1239 1.384 . S
H1242 C1248 0.930 . S
H1243 C1252 0.930 . S
H1244 C1257 0.929 . S
H1245 C1255 0.929 . S
H1246 C1250 0.929 . S
H1247 C1256 0.929 . S
C1248 H1242 0.930 . S
C1248 C1249 1.367 . S
C1248 C1256 1.378 . S
C1249 C1248 1.367 . S
C1249 C1257 1.433 . S
C1250 H1246 0.929 . S
C1250 C1252 1.378 . S
C1250 C1254 1.350 . S
C1251 C1254 1.463 . S
C1251 C1256 1.350 . S
C1251 N1259 1.427 . S
C1252 H1243 0.930 . S
C1252 C1250 1.378 . S
C1252 C1253 1.367 . S
C1253 C1252 1.367 . S
C1253 C1255 1.433 . S
C1254 C1250 1.350 . S
C1254 C1251 1.463 . S
C1254 N1258 1.427 . S
C1255 H1245 0.929 . S
C1255 C1253 1.433 . S
C1255 N1258 1.384 . S
C1256 H1247 0.929 . S
C1256 C1248 1.378 . S
C1256 C1251 1.350 . S
C1257 H1244 0.929 . S
C1257 C1249 1.433 . S
C1257 N1259 1.384 . S
N1258 C1254 1.427 . S
N1258 C1255 1.384 . S
N1259 C1251 1.427 . S
N1259 C1257 1.384 . S
H1260 C1266 0.930 . S
H1261 C1270 0.930 . S
H1262 C1275 0.929 . S
H1263 C1273 0.929 . S
H1264 C1268 0.929 . S
H1265 C1274 0.929 . S
C1266 H1260 0.930 . S
C1266 C1267 1.367 . S
C1266 C1274 1.378 . S
C1267 C1266 1.367 . S
C1267 C1275 1.433 . S
C1268 H1264 0.929 . S
C1268 C1270 1.378 . S
C1268 C1272 1.350 . S
C1269 C1272 1.463 . S
C1269 C1274 1.350 . S
C1269 N1277 1.427 . S
C1270 H1261 0.930 . S
C1270 C1268 1.378 . S
C1270 C1271 1.367 . S
C1271 C1270 1.367 . S
C1271 C1273 1.433 . S
C1272 C1268 1.350 . S
C1272 C1269 1.463 . S
C1272 N1276 1.427 . S
C1273 H1263 0.929 . S
C1273 C1271 1.433 . S
C1273 N1276 1.384 . S
C1274 H1265 0.929 . S
C1274 C1266 1.378 . S
C1274 C1269 1.350 . S
C1275 H1262 0.929 . S
C1275 C1267 1.433 . S
C1275 N1277 1.384 . S
N1276 C1272 1.427 . S
N1276 C1273 1.384 . S
N1277 C1269 1.427 . S
N1277 C1275 1.384 . S
H1278 C1284 0.930 . S
H1279 C1288 0.930 . S
H1280 C1293 0.929 . S
H1281 C1291 0.929 . S
H1282 C1286 0.929 . S
H1283 C1292 0.929 . S
C1284 H1278 0.930 . S
C1284 C1285 1.367 . S
C1284 C1292 1.378 . S
C1285 C1284 1.367 . S
C1285 C1293 1.433 . S
C1286 H1282 0.929 . S
C1286 C1288 1.378 . S
C1286 C1290 1.350 . S
C1287 C1290 1.463 . S
C1287 C1292 1.350 . S
C1287 N1295 1.427 . S
C1288 H1279 0.930 . S
C1288 C1286 1.378 . S
C1288 C1289 1.367 . S
C1289 C1288 1.367 . S
C1289 C1291 1.433 . S
C1290 C1286 1.350 . S
C1290 C1287 1.463 . S
C1290 N1294 1.427 . S
C1291 H1281 0.929 . S
C1291 C1289 1.433 . S
C1291 N1294 1.384 . S
C1292 H1283 0.929 . S
C1292 C1284 1.378 . S
C1292 C1287 1.350 . S
C1293 H1280 0.929 . S
C1293 C1285 1.433 . S
C1293 N1295 1.384 . S
N1294 C1290 1.427 . S
N1294 C1291 1.384 . S
N1295 C1287 1.427 . S
N1295 C1293 1.384 . S
H1296 C1302 0.930 . S
H1297 C1306 0.930 . S
H1298 C1311 0.929 . S
H1299 C1309 0.929 . S
H1300 C1304 0.929 . S
H1301 C1310 0.929 . S
C1302 H1296 0.930 . S
C1302 C1303 1.367 1_554 S
C1302 C1310 1.378 . S
C1303 C1302 1.367 1_556 S
C1303 C1311 1.433 . S
C1304 H1300 0.929 . S
C1304 C1306 1.378 . S
C1304 C1308 1.350 1_556 S
C1305 C1308 1.468 . S
C1305 C1310 1.386 . S
C1305 N1313 1.384 1_554 S
C1306 H1297 0.930 . S
C1306 C1304 1.378 . S
C1306 C1307 1.367 1_556 S
C1307 C1306 1.367 1_554 S
C1307 C1309 1.433 . S
C1308 C1304 1.350 1_554 S
C1308 C1305 1.468 . S
C1308 N1312 1.427 . S
C1309 H1299 0.929 . S
C1309 C1307 1.433 . S
C1309 N1312 1.384 . S
C1310 H1301 0.929 . S
C1310 C1302 1.378 . S
C1310 C1305 1.386 . S
C1311 H1298 0.929 . S
C1311 C1303 1.433 . S
C1311 N1313 1.384 . S
N1312 C1308 1.427 . S
N1312 C1309 1.384 . S
N1313 C1305 1.384 1_556 S
N1313 C1311 1.384 . S
H1314 C1320 0.930 . S
H1315 C1324 0.930 . S
H1316 C1329 0.929 . S
H1317 C1327 0.929 . S
H1318 C1322 0.929 . S
H1319 C1328 0.929 . S
C1320 H1314 0.930 . S
C1320 C1321 1.367 . S
C1320 C1328 1.378 . S
C1321 C1320 1.367 . S
C1321 C1329 1.433 . S
C1322 H1318 0.929 . S
C1322 C1324 1.378 . S
C1322 C1326 1.350 . S
C1323 C1326 1.463 . S
C1323 C1328 1.350 . S
C1323 N1331 1.427 . S
C1324 H1315 0.930 . S
C1324 C1322 1.378 . S
C1324 C1325 1.367 . S
C1325 C1324 1.367 . S
C1325 C1327 1.433 . S
C1326 C1322 1.350 . S
C1326 C1323 1.463 . S
C1326 N1330 1.427 . S
C1327 H1317 0.929 . S
C1327 C1325 1.433 . S
C1327 N1330 1.384 . S
C1328 H1319 0.929 . S
C1328 C1320 1.378 . S
C1328 C1323 1.350 . S
C1329 H1316 0.929 . S
C1329 C1321 1.433 . S
C1329 N1331 1.384 . S
N1330 C1326 1.427 . S
N1330 C1327 1.384 . S
N1331 C1323 1.427 . S
N1331 C1329 1.384 . S
H1332 C1338 0.930 . S
H1333 C1342 0.930 . S
H1334 C1347 0.929 . S
H1335 C1345 0.929 . S
H1336 C1340 0.929 . S
H1337 C1346 0.929 . S
C1338 H1332 0.930 . S
C1338 C1339 1.367 . S
C1338 C1346 1.378 . S
C1339 C1338 1.367 . S
C1339 C1347 1.433 . S
C1340 H1336 0.929 . S
C1340 C1342 1.378 . S
C1340 C1344 1.350 . S
C1341 C1344 1.463 . S
C1341 C1346 1.350 . S
C1341 N1349 1.427 . S
C1342 H1333 0.930 . S
C1342 C1340 1.378 . S
C1342 C1343 1.367 . S
C1343 C1342 1.367 . S
C1343 C1345 1.433 . S
C1344 C1340 1.350 . S
C1344 C1341 1.463 . S
C1344 N1348 1.427 . S
C1345 H1335 0.929 . S
C1345 C1343 1.433 . S
C1345 N1348 1.384 . S
C1346 H1337 0.929 . S
C1346 C1338 1.378 . S
C1346 C1341 1.350 . S
C1347 H1334 0.929 . S
C1347 C1339 1.433 . S
C1347 N1349 1.384 . S
N1348 C1344 1.427 . S
N1348 C1345 1.384 . S
N1349 C1341 1.427 . S
N1349 C1347 1.384 . S
H1350 C1356 0.930 . S
H1351 C1360 0.930 . S
H1352 C1365 0.929 . S
H1353 C1363 0.929 . S
H1354 C1358 0.929 . S
H1355 C1364 0.929 . S
C1356 H1350 0.930 . S
C1356 C1357 1.367 . S
C1356 C1364 1.378 . S
C1357 C1356 1.367 . S
C1357 C1365 1.433 . S
C1358 H1354 0.929 . S
C1358 C1360 1.378 . S
C1358 C1362 1.350 . S
C1359 C1362 1.463 . S
C1359 C1364 1.350 . S
C1359 N1367 1.427 . S
C1360 H1351 0.930 . S
C1360 C1358 1.378 . S
C1360 C1361 1.367 . S
C1361 C1360 1.367 . S
C1361 C1363 1.433 . S
C1362 C1358 1.350 . S
C1362 C1359 1.463 . S
C1362 N1366 1.427 . S
C1363 H1353 0.929 . S
C1363 C1361 1.433 . S
C1363 N1366 1.384 . S
C1364 H1355 0.929 . S
C1364 C1356 1.378 . S
C1364 C1359 1.350 . S
C1365 H1352 0.929 . S
C1365 C1357 1.433 . S
C1365 N1367 1.384 . S
N1366 C1362 1.427 . S
N1366 C1363 1.384 . S
N1367 C1359 1.427 . S
N1367 C1365 1.384 . S
H1368 C1374 0.930 . S
H1369 C1378 0.930 . S
H1370 C1383 0.929 . S
H1371 C1381 0.929 . S
H1372 C1376 0.929 . S
H1373 C1382 0.929 . S
C1374 H1368 0.930 . S
C1374 C1375 1.367 . S
C1374 C1382 1.378 . S
C1375 C1374 1.367 . S
C1375 C1383 1.433 . S
C1376 H1372 0.929 . S
C1376 C1378 1.378 . S
C1376 C1380 1.350 . S
C1377 C1380 1.463 . S
C1377 C1382 1.350 . S
C1377 N1385 1.427 . S
C1378 H1369 0.930 . S
C1378 C1376 1.378 . S
C1378 C1379 1.367 . S
C1379 C1378 1.367 . S
C1379 C1381 1.433 . S
C1380 C1376 1.350 . S
C1380 C1377 1.463 . S
C1380 N1384 1.427 . S
C1381 H1371 0.929 . S
C1381 C1379 1.433 . S
C1381 N1384 1.384 . S
C1382 H1373 0.929 . S
C1382 C1374 1.378 . S
C1382 C1377 1.350 . S
C1383 H1370 0.929 . S
C1383 C1375 1.433 . S
C1383 N1385 1.384 . S
N1384 C1380 1.427 . S
N1384 C1381 1.384 . S
N1385 C1377 1.427 . S
N1385 C1383 1.384 . S
H1386 C1392 0.915 1_556 S
H1387 C1396 0.930 . S
H1388 C1401 0.929 . S
H1389 C1399 0.929 . S
H1390 C1394 0.929 . S
H1391 C1400 0.927 1_556 S
C1392 H1386 0.915 1_554 S
C1392 C1393 1.367 . S
C1392 C1400 1.378 . S
C1393 C1392 1.367 . S
C1393 C1401 1.433 . S
C1394 H1390 0.929 . S
C1394 C1396 1.378 . S
C1394 C1398 1.350 . S
C1395 C1398 1.463 . S
C1395 C1400 1.351 . S
C1395 N1403 1.427 . S
C1396 H1387 0.930 . S
C1396 C1394 1.378 . S
C1396 C1397 1.367 1_554 S
C1397 C1396 1.367 1_556 S
C1397 C1399 1.433 . S
C1398 C1394 1.350 . S
C1398 C1395 1.463 . S
C1398 N1402 1.427 1_554 S
C1399 H1389 0.929 . S
C1399 C1397 1.433 . S
C1399 N1402 1.384 . S
C1400 H1391 0.927 1_554 S
C1400 C1392 1.378 . S
C1400 C1395 1.351 . S
C1401 H1388 0.929 . S
C1401 C1393 1.433 . S
C1401 N1403 1.384 . S
N1402 C1398 1.427 1_556 S
N1402 C1399 1.384 . S
N1403 C1395 1.427 . S
N1403 C1401 1.384 . S
H1404 C1410 0.930 . S
H1405 C1414 0.930 . S
H1406 C1419 0.929 . S
H1407 C1417 0.929 . S
H1408 C1412 0.929 . S
H1409 C1418 0.929 . S
C1410 H1404 0.930 . S
C1410 C1411 1.367 . S
C1410 C1418 1.378 . S
C1411 C1410 1.367 . S
C1411 C1419 1.433 . S
C1412 H1408 0.929 . S
C1412 C1414 1.378 . S
C1412 C1416 1.350 . S
C1413 C1416 1.463 . S
C1413 C1418 1.350 . S
C1413 N1421 1.427 . S
C1414 H1405 0.930 . S
C1414 C1412 1.378 . S
C1414 C1415 1.367 . S
C1415 C1414 1.367 . S
C1415 C1417 1.433 . S
C1416 C1412 1.350 . S
C1416 C1413 1.463 . S
C1416 N1420 1.427 . S
C1417 H1407 0.929 . S
C1417 C1415 1.433 . S
C1417 N1420 1.384 . S
C1418 H1409 0.929 . S
C1418 C1410 1.378 . S
C1418 C1413 1.350 . S
C1419 H1406 0.929 . S
C1419 C1411 1.433 . S
C1419 N1421 1.384 . S
N1420 C1416 1.427 . S
N1420 C1417 1.384 . S
N1421 C1413 1.427 . S
N1421 C1419 1.384 . S
H1422 C1428 0.930 . S
H1423 C1432 0.930 . S
H1424 C1437 0.929 . S
H1425 C1435 0.929 . S
H1426 C1430 0.929 . S
H1427 C1436 0.929 . S
C1428 H1422 0.930 . S
C1428 C1429 1.367 . S
C1428 C1436 1.378 . S
C1429 C1428 1.367 . S
C1429 C1437 1.433 . S
C1430 H1426 0.929 . S
C1430 C1432 1.378 . S
C1430 C1434 1.350 . S
C1431 C1434 1.463 . S
C1431 C1436 1.350 . S
C1431 N1439 1.427 . S
C1432 H1423 0.930 . S
C1432 C1430 1.378 . S
C1432 C1433 1.367 . S
C1433 C1432 1.367 . S
C1433 C1435 1.433 . S
C1434 C1430 1.350 . S
C1434 C1431 1.463 . S
C1434 N1438 1.427 . S
C1435 H1425 0.929 . S
C1435 C1433 1.433 . S
C1435 N1438 1.384 . S
C1436 H1427 0.929 . S
C1436 C1428 1.378 . S
C1436 C1431 1.350 . S
C1437 H1424 0.929 . S
C1437 C1429 1.433 . S
C1437 N1439 1.384 . S
N1438 C1434 1.427 . S
N1438 C1435 1.384 . S
N1439 C1431 1.427 . S
N1439 C1437 1.384 . S
H1440 C1446 0.930 . S
H1441 C1450 0.930 . S
H1442 C1455 0.929 . S
H1443 C1453 0.929 . S
H1444 C1448 0.929 . S
H1445 C1454 0.929 . S
C1446 H1440 0.930 . S
C1446 C1447 1.367 . S
C1446 C1454 1.378 . S
C1447 C1446 1.367 . S
C1447 C1455 1.433 . S
C1448 H1444 0.929 . S
C1448 C1450 1.378 . S
C1448 C1452 1.350 . S
C1449 C1452 1.463 . S
C1449 C1454 1.350 . S
C1449 N1457 1.427 . S
C1450 H1441 0.930 . S
C1450 C1448 1.378 . S
C1450 C1451 1.367 . S
C1451 C1450 1.367 . S
C1451 C1453 1.433 . S
C1452 C1448 1.350 . S
C1452 C1449 1.463 . S
C1452 N1456 1.427 . S
C1453 H1443 0.929 . S
C1453 C1451 1.433 . S
C1453 N1456 1.384 . S
C1454 H1445 0.929 . S
C1454 C1446 1.378 . S
C1454 C1449 1.350 . S
C1455 H1442 0.929 . S
C1455 C1447 1.433 . S
C1455 N1457 1.384 . S
N1456 C1452 1.427 . S
N1456 C1453 1.384 . S
N1457 C1449 1.427 . S
N1457 C1455 1.384 . S
H1458 C1464 0.930 . S
H1459 C1468 0.930 . S
H1460 C1473 0.929 . S
H1461 C1471 0.929 . S
H1462 C1466 0.929 . S
H1463 C1472 0.929 . S
C1464 H1458 0.930 . S
C1464 C1465 1.367 . S
C1464 C1472 1.378 . S
C1465 C1464 1.367 . S
C1465 C1473 1.433 . S
C1466 H1462 0.929 . S
C1466 C1468 1.378 . S
C1466 C1470 1.350 . S
C1467 C1470 1.463 . S
C1467 C1472 1.350 . S
C1467 N1475 1.427 . S
C1468 H1459 0.930 . S
C1468 C1466 1.378 . S
C1468 C1469 1.367 . S
C1469 C1468 1.367 . S
C1469 C1471 1.433 . S
C1470 C1466 1.350 . S
C1470 C1467 1.463 . S
C1470 N1474 1.427 . S
C1471 H1461 0.929 . S
C1471 C1469 1.433 . S
C1471 N1474 1.384 . S
C1472 H1463 0.929 . S
C1472 C1464 1.378 . S
C1472 C1467 1.350 . S
C1473 H1460 0.929 . S
C1473 C1465 1.433 . S
C1473 N1475 1.384 . S
N1474 C1470 1.427 . S
N1474 C1471 1.384 . S
N1475 C1467 1.427 . S
N1475 C1473 1.384 . S
H1476 C1482 0.930 . S
H1477 C1486 0.930 . S
H1478 C1491 0.929 . S
H1479 C1489 0.929 . S
H1480 C1484 0.929 . S
H1481 C1490 0.929 . S
C1482 H1476 0.930 . S
C1482 C1483 1.367 . S
C1482 C1490 1.378 . S
C1483 C1482 1.367 . S
C1483 C1491 1.433 . S
C1484 H1480 0.929 . S
C1484 C1486 1.378 . S
C1484 C1488 1.350 . S
C1485 C1488 1.463 . S
C1485 C1490 1.350 . S
C1485 N1493 1.427 . S
C1486 H1477 0.930 . S
C1486 C1484 1.378 . S
C1486 C1487 1.367 . S
C1487 C1486 1.367 . S
C1487 C1489 1.433 . S
C1488 C1484 1.350 . S
C1488 C1485 1.463 . S
C1488 N1492 1.427 . S
C1489 H1479 0.929 . S
C1489 C1487 1.433 . S
C1489 N1492 1.384 . S
C1490 H1481 0.929 . S
C1490 C1482 1.378 . S
C1490 C1485 1.350 . S
C1491 H1478 0.929 . S
C1491 C1483 1.433 . S
C1491 N1493 1.384 . S
N1492 C1488 1.427 . S
N1492 C1489 1.384 . S
N1493 C1485 1.427 . S
N1493 C1491 1.384 . S
H1494 C1500 0.930 . S
H1495 C1504 0.930 . S
H1496 C1509 0.929 . S
H1497 C1507 0.929 . S
H1498 C1502 0.929 . S
H1499 C1508 0.929 . S
C1500 H1494 0.930 . S
C1500 C1501 1.367 . S
C1500 C1508 1.378 . S
C1501 C1500 1.367 . S
C1501 C1509 1.433 . S
C1502 H1498 0.929 . S
C1502 C1504 1.378 . S
C1502 C1506 1.350 . S
C1503 C1506 1.463 . S
C1503 C1508 1.350 . S
C1503 N1511 1.427 . S
C1504 H1495 0.930 . S
C1504 C1502 1.378 . S
C1504 C1505 1.367 . S
C1505 C1504 1.367 . S
C1505 C1507 1.433 . S
C1506 C1502 1.350 . S
C1506 C1503 1.463 . S
C1506 N1510 1.427 . S
C1507 H1497 0.929 . S
C1507 C1505 1.433 . S
C1507 N1510 1.384 . S
C1508 H1499 0.929 . S
C1508 C1500 1.378 . S
C1508 C1503 1.350 . S
C1509 H1496 0.929 . S
C1509 C1501 1.433 . S
C1509 N1511 1.384 . S
N1510 C1506 1.427 . S
N1510 C1507 1.384 . S
N1511 C1503 1.427 . S
N1511 C1509 1.384 . S
H1512 C1518 0.930 . S
H1513 C1522 0.930 . S
H1514 C1527 0.929 . S
H1515 C1525 0.929 . S
H1516 C1520 0.929 . S
H1517 C1526 0.929 . S
C1518 H1512 0.930 . S
C1518 C1519 1.367 . S
C1518 C1526 1.378 . S
C1519 C1518 1.367 . S
C1519 C1527 1.433 . S
C1520 H1516 0.929 . S
C1520 C1522 1.378 . S
C1520 C1524 1.350 . S
C1521 C1524 1.463 . S
C1521 C1526 1.350 . S
C1521 N1529 1.427 . S
C1522 H1513 0.930 . S
C1522 C1520 1.378 . S
C1522 C1523 1.367 . S
C1523 C1522 1.367 . S
C1523 C1525 1.433 . S
C1524 C1520 1.350 . S
C1524 C1521 1.463 . S
C1524 N1528 1.427 . S
C1525 H1515 0.929 . S
C1525 C1523 1.433 . S
C1525 N1528 1.384 . S
C1526 H1517 0.929 . S
C1526 C1518 1.378 . S
C1526 C1521 1.350 . S
C1527 H1514 0.929 . S
C1527 C1519 1.433 . S
C1527 N1529 1.384 . S
N1528 C1524 1.427 . S
N1528 C1525 1.384 . S
N1529 C1521 1.427 . S
N1529 C1527 1.384 . S
H1530 C1536 0.930 . S
H1531 C1540 0.930 . S
H1532 C1545 0.929 . S
H1533 C1543 0.929 . S
H1534 C1538 0.929 . S
H1535 C1544 0.929 . S
C1536 H1530 0.930 . S
C1536 C1537 1.367 . S
C1536 C1544 1.378 . S
C1537 C1536 1.367 . S
C1537 C1545 1.433 . S
C1538 H1534 0.929 . S
C1538 C1540 1.378 . S
C1538 C1542 1.350 . S
C1539 C1542 1.463 . S
C1539 C1544 1.350 . S
C1539 N1547 1.427 . S
C1540 H1531 0.930 . S
C1540 C1538 1.378 . S
C1540 C1541 1.367 . S
C1541 C1540 1.367 . S
C1541 C1543 1.433 . S
C1542 C1538 1.350 . S
C1542 C1539 1.463 . S
C1542 N1546 1.427 . S
C1543 H1533 0.929 . S
C1543 C1541 1.433 . S
C1543 N1546 1.384 . S
C1544 H1535 0.929 . S
C1544 C1536 1.378 . S
C1544 C1539 1.350 . S
C1545 H1532 0.929 . S
C1545 C1537 1.433 . S
C1545 N1547 1.384 . S
N1546 C1542 1.427 . S
N1546 C1543 1.384 . S
N1547 C1539 1.427 . S
N1547 C1545 1.384 . S
H1548 C1554 0.930 . S
H1549 C1558 0.930 . S
H1550 C1563 0.929 . S
H1551 C1561 0.929 . S
H1552 C1556 0.929 . S
H1553 C1562 0.929 . S
C1554 H1548 0.930 . S
C1554 C1555 1.367 . S
C1554 C1562 1.378 . S
C1555 C1554 1.367 . S
C1555 C1563 1.433 . S
C1556 H1552 0.929 . S
C1556 C1558 1.378 . S
C1556 C1560 1.350 . S
C1557 C1560 1.463 . S
C1557 C1562 1.350 . S
C1557 N1565 1.427 . S
C1558 H1549 0.930 . S
C1558 C1556 1.378 . S
C1558 C1559 1.367 . S
C1559 C1558 1.367 . S
C1559 C1561 1.433 . S
C1560 C1556 1.350 . S
C1560 C1557 1.463 . S
C1560 N1564 1.427 . S
C1561 H1551 0.929 . S
C1561 C1559 1.433 . S
C1561 N1564 1.384 . S
C1562 H1553 0.929 . S
C1562 C1554 1.378 . S
C1562 C1557 1.350 . S
C1563 H1550 0.929 . S
C1563 C1555 1.433 . S
C1563 N1565 1.384 . S
N1564 C1560 1.427 . S
N1564 C1561 1.384 . S
N1565 C1557 1.427 . S
N1565 C1563 1.384 . S
H1566 C1572 0.930 . S
H1567 C1576 0.930 . S
H1568 C1581 0.929 . S
H1569 C1579 0.929 . S
H1570 C1574 0.929 . S
H1571 C1580 0.929 . S
C1572 H1566 0.930 . S
C1572 C1573 1.367 . S
C1572 C1580 1.378 . S
C1573 C1572 1.367 . S
C1573 C1581 1.433 . S
C1574 H1570 0.929 . S
C1574 C1576 1.378 . S
C1574 C1578 1.350 . S
C1575 C1578 1.463 . S
C1575 C1580 1.350 . S
C1575 N1583 1.427 . S
C1576 H1567 0.930 . S
C1576 C1574 1.378 . S
C1576 C1577 1.367 . S
C1577 C1576 1.367 . S
C1577 C1579 1.433 . S
C1578 C1574 1.350 . S
C1578 C1575 1.463 . S
C1578 N1582 1.427 . S
C1579 H1569 0.929 . S
C1579 C1577 1.433 . S
C1579 N1582 1.384 . S
C1580 H1571 0.929 . S
C1580 C1572 1.378 . S
C1580 C1575 1.350 . S
C1581 H1568 0.929 . S
C1581 C1573 1.433 . S
C1581 N1583 1.384 . S
N1582 C1578 1.427 . S
N1582 C1579 1.384 . S
N1583 C1575 1.427 . S
N1583 C1581 1.384 . S
H1584 C1590 0.930 . S
H1585 C1594 0.930 . S
H1586 C1599 0.929 . S
H1587 C1597 0.929 . S
H1588 C1592 0.929 . S
H1589 C1598 0.929 . S
C1590 H1584 0.930 . S
C1590 C1591 1.367 . S
C1590 C1598 1.378 . S
C1591 C1590 1.367 . S
C1591 C1599 1.433 . S
C1592 H1588 0.929 . S
C1592 C1594 1.378 . S
C1592 C1596 1.350 . S
C1593 C1596 1.463 . S
C1593 C1598 1.350 . S
C1593 N1601 1.427 . S
C1594 H1585 0.930 . S
C1594 C1592 1.378 . S
C1594 C1595 1.367 . S
C1595 C1594 1.367 . S
C1595 C1597 1.433 . S
C1596 C1592 1.350 . S
C1596 C1593 1.463 . S
C1596 N1600 1.427 . S
C1597 H1587 0.929 . S
C1597 C1595 1.433 . S
C1597 N1600 1.384 . S
C1598 H1589 0.929 . S
C1598 C1590 1.378 . S
C1598 C1593 1.350 . S
C1599 H1586 0.929 . S
C1599 C1591 1.433 . S
C1599 N1601 1.384 . S
N1600 C1596 1.427 . S
N1600 C1597 1.384 . S
N1601 C1593 1.427 . S
N1601 C1599 1.384 . S
H1602 C1608 0.930 . S
H1603 C1612 0.930 . S
H1604 C1617 0.929 . S
H1605 C1615 0.929 . S
H1606 C1610 0.929 . S
H1607 C1616 0.929 . S
C1608 H1602 0.930 . S
C1608 C1609 1.367 . S
C1608 C1616 1.378 . S
C1609 C1608 1.367 . S
C1609 C1617 1.433 . S
C1610 H1606 0.929 . S
C1610 C1612 1.378 . S
C1610 C1614 1.350 . S
C1611 C1614 1.463 . S
C1611 C1616 1.350 . S
C1611 N1619 1.427 . S
C1612 H1603 0.930 . S
C1612 C1610 1.378 . S
C1612 C1613 1.367 . S
C1613 C1612 1.367 . S
C1613 C1615 1.433 . S
C1614 C1610 1.350 . S
C1614 C1611 1.463 . S
C1614 N1618 1.427 . S
C1615 H1605 0.929 . S
C1615 C1613 1.433 . S
C1615 N1618 1.384 . S
C1616 H1607 0.929 . S
C1616 C1608 1.378 . S
C1616 C1611 1.350 . S
C1617 H1604 0.929 . S
C1617 C1609 1.433 . S
C1617 N1619 1.384 . S
N1618 C1614 1.427 . S
N1618 C1615 1.384 . S
N1619 C1611 1.427 . S
N1619 C1617 1.384 . S
H1620 C1626 0.930 . S
H1621 C1630 0.930 . S
H1622 C1635 0.929 . S
H1623 C1633 0.929 . S
H1624 C1628 0.929 . S
H1625 C1634 0.929 . S
C1626 H1620 0.930 . S
C1626 C1627 1.367 . S
C1626 C1634 1.378 . S
C1627 C1626 1.367 . S
C1627 C1635 1.433 . S
C1628 H1624 0.929 . S
C1628 C1630 1.378 . S
C1628 C1632 1.350 . S
C1629 C1632 1.463 . S
C1629 C1634 1.350 . S
C1629 N1637 1.427 . S
C1630 H1621 0.930 . S
C1630 C1628 1.378 . S
C1630 C1631 1.367 . S
C1631 C1630 1.367 . S
C1631 C1633 1.433 . S
C1632 C1628 1.350 . S
C1632 C1629 1.463 . S
C1632 N1636 1.427 . S
C1633 H1623 0.929 . S
C1633 C1631 1.433 . S
C1633 N1636 1.384 . S
C1634 H1625 0.929 . S
C1634 C1626 1.378 . S
C1634 C1629 1.350 . S
C1635 H1622 0.929 . S
C1635 C1627 1.433 . S
C1635 N1637 1.384 . S
N1636 C1632 1.427 . S
N1636 C1633 1.384 . S
N1637 C1629 1.427 . S
N1637 C1635 1.384 . S
H1638 C1644 0.930 . S
H1639 C1648 0.930 . S
H1640 C1653 0.929 . S
H1641 C1651 0.929 . S
H1642 C1646 0.929 . S
H1643 C1652 0.929 . S
C1644 H1638 0.930 . S
C1644 C1645 1.367 . S
C1644 C1652 1.378 . S
C1645 C1644 1.367 . S
C1645 C1653 1.433 . S
C1646 H1642 0.929 . S
C1646 C1648 1.378 . S
C1646 C1650 1.350 . S
C1647 C1650 1.463 . S
C1647 C1652 1.350 . S
C1647 N1655 1.427 . S
C1648 H1639 0.930 . S
C1648 C1646 1.378 . S
C1648 C1649 1.367 . S
C1649 C1648 1.367 . S
C1649 C1651 1.433 . S
C1650 C1646 1.350 . S
C1650 C1647 1.463 . S
C1650 N1654 1.427 . S
C1651 H1641 0.929 . S
C1651 C1649 1.433 . S
C1651 N1654 1.384 . S
C1652 H1643 0.929 . S
C1652 C1644 1.378 . S
C1652 C1647 1.350 . S
C1653 H1640 0.929 . S
C1653 C1645 1.433 . S
C1653 N1655 1.384 . S
N1654 C1650 1.427 . S
N1654 C1651 1.384 . S
N1655 C1647 1.427 . S
N1655 C1653 1.384 . S
C1015 C476 1.361 . S
C1019 C70 1.259 . S
C1033 C154 1.212 . S
C1037 C56 1.331 . S
C1051 C238 1.323 . S
C1055 C140 1.440 . S
C1069 C224 1.361 . S
C1073 C322 1.259 . S
C1087 C308 1.356 . S
C1091 C406 1.237 . S
C1105 C490 1.325 . S
C1109 C392 1.441 . S
C1123 C644 1.358 . S
C1127 C574 1.255 . S
C1141 C658 1.306 . S
C1145 C728 1.425 . S
C1159 C812 1.338 . S
C1163 C742 1.218 . S
C1177 C896 1.334 . S
C1181 C826 1.227 . S
C1195 C980 1.439 . S
C1199 C910 1.328 . S
C1213 C560 1.349 . S
C1217 C994 1.227 . S
C1231 C987 3.471 . S
C1235 C67 3.461 . S
C1249 C151 2.854 . S
C1253 C567 2.863 . S
C1267 C651 3.172 . S
C1271 C235 3.155 . S
C1285 C735 3.472 . S
C1289 C319 3.462 . S
C1303 C819 2.867 . S
C1307 C403 2.852 . S
C1321 C487 3.156 . S
C1325 C903 3.170 . S
C1339 C571 3.458 . S
C1343 C147 3.475 . S
C1357 C655 3.157 . S
C1361 C231 3.172 . S
C1375 C315 2.866 . S
C1379 C739 2.850 . S
C1393 C399 3.471 . S
C1397 C823 3.460 . S
C1411 C907 3.156 . S
C1415 C483 3.170 . S
C1429 C991 2.853 . S
C1433 C63 2.862 . S
C1447 C578 2.708 . S
C1451 C74 2.710 . S
C1465 C158 1.851 . S
C1469 C662 1.875 . S
C1483 C746 1.850 . S
C1487 C242 1.876 . S
C1501 C326 2.707 . S
C1505 C830 2.718 . S
C1519 C914 1.862 . S
C1523 C410 1.855 . S
C1537 C998 1.844 . S
C1541 C494 1.879 . S
C1555 C562 0.714 . S
C1559 C58 0.727 . S
C1573 C646 0.464 . S
C1577 C142 0.467 . S
C1591 C730 0.451 . S
C1595 C226 0.478 . S
C1609 C310 0.725 . S
C1613 C814 0.717 . S
C1627 C898 0.511 . S
C1631 C394 0.432 . S
C1645 C982 0.442 . S
C1649 C478 0.488 . S
