# Generated by pormake.
# Topology soe, (5)-cn, num edge types: 1
# Building blocks:
#     Node 0, Type 0, BuildingBlock: BEQFEK_clean_sbu_0, # of connection points: 5
#     Node 1, Type 0, BuildingBlock: BEQFEK_clean_sbu_0, # of connection points: 5
#     Node 2, Type 0, BuildingBlock: BEQFEK_clean_sbu_0, # of connection points: 5
#     Node 3, Type 0, BuildingBlock: BEQFEK_clean_sbu_0, # of connection points: 5
#     Node 4, Type 0, BuildingBlock: BEQFEK_clean_sbu_0, # of connection points: 5
#     Node 5, Type 0, BuildingBlock: BEQFEK_clean_sbu_0, # of connection points: 5
#     Node 6, Type 0, BuildingBlock: BEQFEK_clean_sbu_0, # of connection points: 5
#     Node 7, Type 0, BuildingBlock: BEQFEK_clean_sbu_0, # of connection points: 5
#     Edge 8, Type (0, 0), BuildingBlock: MIFKUJ_clean_linker_0, # of connection points: 2
#     Edge 9, Type (0, 0), BuildingBlock: MIFKUJ_clean_linker_0, # of connection points: 2
#     Edge 10, Type (0, 0), BuildingBlock: MIFKUJ_clean_linker_0, # of connection points: 2
#     Edge 11, Type (0, 0), BuildingBlock: MIFKUJ_clean_linker_0, # of connection points: 2
#     Edge 12, Type (0, 0), BuildingBlock: MIFKUJ_clean_linker_0, # of connection points: 2
#     Edge 13, Type (0, 0), BuildingBlock: MIFKUJ_clean_linker_0, # of connection points: 2
#     Edge 14, Type (0, 0), BuildingBlock: MIFKUJ_clean_linker_0, # of connection points: 2
#     Edge 15, Type (0, 0), BuildingBlock: MIFKUJ_clean_linker_0, # of connection points: 2
#     Edge 16, Type (0, 0), BuildingBlock: MIFKUJ_clean_linker_0, # of connection points: 2
#     Edge 17, Type (0, 0), BuildingBlock: MIFKUJ_clean_linker_0, # of connection points: 2
#     Edge 18, Type (0, 0), BuildingBlock: MIFKUJ_clean_linker_0, # of connection points: 2
#     Edge 19, Type (0, 0), BuildingBlock: MIFKUJ_clean_linker_0, # of connection points: 2
#     Edge 20, Type (0, 0), BuildingBlock: MIFKUJ_clean_linker_0, # of connection points: 2
#     Edge 21, Type (0, 0), BuildingBlock: MIFKUJ_clean_linker_0, # of connection points: 2
#     Edge 22, Type (0, 0), BuildingBlock: MIFKUJ_clean_linker_0, # of connection points: 2
#     Edge 23, Type (0, 0), BuildingBlock: MIFKUJ_clean_linker_0, # of connection points: 2
#     Edge 24, Type (0, 0), BuildingBlock: MIFKUJ_clean_linker_0, # of connection points: 2
#     Edge 25, Type (0, 0), BuildingBlock: MIFKUJ_clean_linker_0, # of connection points: 2
#     Edge 26, Type (0, 0), BuildingBlock: MIFKUJ_clean_linker_0, # of connection points: 2
#     Edge 27, Type (0, 0), BuildingBlock: MIFKUJ_clean_linker_0, # of connection points: 2
# Relax obj value: 0.150
# Max RMSD: 0.227
# Mean RMSD: 0.168
data_MOF--net-soe--node1-BEQFEK_clean_sbu_0--edge1-MIFKUJ_clean_linker_0
_symmetry_space_group_name_H-M    P1
_symmetry_Int_Tables_number       1
_symmetry_cell_setting            triclinic
loop_
_symmetry_equiv_pos_as_xyz
'x, y, z'
_cell_length_a     75.517597
_cell_length_b     50.835954
_cell_length_c     23.355787
_cell_angle_alpha  89.500837
_cell_angle_beta   90.661565
_cell_angle_gamma 92.891625
loop_
_atom_site_label
_atom_site_type_symbol
_atom_site_fract_x
_atom_site_fract_y
_atom_site_fract_z
_atom_type_partial_charge
Co0 Co 0.11826 0.99127 0.16842 0.0
Co1 Co 0.12147 0.01287 0.04267 0.0
C2 C 0.14999 0.98185 0.09876 0.0
O3 O 0.14151 0.97908 0.14536 0.0
O4 O 0.14364 0.99414 0.0561 0.0
C5 C 0.12184 0.96239 0.2747 0.0
O6 O 0.13532 0.95201 0.24981 0.0
C7 C 0.1229 0.00469 0.91999 0.0
C8 C 0.11596 0.04322 0.88404 0.0
C9 C 0.12003 0.01793 0.86879 0.0
N10 N 0.12062 0.02134 0.96327 0.0
N11 N 0.11666 0.04444 0.94161 0.0
C12 C 0.12611 0.9761 0.92847 0.0
H13 H 0.1219 0.96943 0.97182 0.0
H14 H 0.11888 0.96403 0.8955 0.0
H15 H 0.1405 0.97315 0.92457 0.0
C16 C 0.08468 0.96745 0.12106 0.0
N17 N 0.1002 0.98136 0.11507 0.0
N18 N 0.10103 0.99154 0.06314 0.0
C19 C 0.08581 0.985 0.03481 0.0
C20 C 0.07498 0.96929 0.07035 0.0
C21 C 0.07935 0.95293 0.17463 0.0
H22 H 0.09097 0.94334 0.19344 0.0
H23 H 0.06858 0.93776 0.16608 0.0
H24 H 0.07473 0.96716 0.20625 0.0
O25 O 0.12009 0.03005 0.17548 0.0
O26 O 0.12259 0.04597 0.08699 0.0
H27 H 0.06622 0.99604 0.97161 0.0
H28 H 0.0866 0.9848 0.94334 0.0
C29 C 0.08081 0.99639 0.97784 0.0
H30 H 0.08606 0.01707 0.9744 0.0
H31 H 0.11399 0.06081 0.96614 0.0
O32 O 0.11252 0.97825 0.24655 0.0
C33 C 0.12182 0.04945 0.14083 0.0
Co34 Co 0.36497 0.905 0.15895 0.0
Co35 Co 0.36167 0.88792 0.03087 0.0
C36 C 0.33223 0.91391 0.09144 0.0
O37 O 0.34117 0.91637 0.13772 0.0
O38 O 0.33862 0.90324 0.04769 0.0
C39 C 0.36381 0.93658 0.26056 0.0
O40 O 0.35319 0.95108 0.23023 0.0
C41 C 0.3591 0.89904 0.90782 0.0
C42 C 0.36687 0.86158 0.87054 0.0
C43 C 0.36204 0.88676 0.85619 0.0
N44 N 0.36239 0.88203 0.95061 0.0
N45 N 0.3669 0.85962 0.92803 0.0
C46 C 0.35287 0.92622 0.91658 0.0
H47 H 0.36443 0.94055 0.91709 0.0
H48 H 0.34376 0.93174 0.88132 0.0
H49 H 0.34608 0.92762 0.95806 0.0
C50 C 0.39843 0.93035 0.11706 0.0
N51 N 0.38257 0.91776 0.10757 0.0
N52 N 0.38148 0.91015 0.05389 0.0
C53 C 0.39679 0.91743 0.02757 0.0
C54 C 0.408 0.93054 0.06667 0.0
C55 C 0.40512 0.9385 0.17517 0.0
H56 H 0.40446 0.92116 0.2044 0.0
H57 H 0.39639 0.95334 0.19261 0.0
H58 H 0.41896 0.94686 0.17409 0.0
O59 O 0.36453 0.86608 0.16156 0.0
O60 O 0.3627 0.85341 0.07083 0.0
H61 H 0.39904 0.88872 0.96178 0.0
H62 H 0.41484 0.91659 0.95578 0.0
C63 C 0.40107 0.91031 0.96737 0.0
H64 H 0.39204 0.92018 0.93747 0.0
H65 H 0.37019 0.84309 0.95191 0.0
O66 O 0.37048 0.91685 0.2376 0.0
C67 C 0.36372 0.84798 0.1241 0.0
Co68 Co 0.1401 0.36901 0.33023 0.0
Co69 Co 0.14183 0.35067 0.45788 0.0
C70 C 0.17163 0.38313 0.40141 0.0
O71 O 0.16339 0.38468 0.35377 0.0
O72 O 0.16483 0.37052 0.4438 0.0
C73 C 0.13906 0.39975 0.22318 0.0
O74 O 0.14714 0.41963 0.24999 0.0
C75 C 0.14156 0.36196 0.58036 0.0
C76 C 0.13371 0.32302 0.61732 0.0
C77 C 0.13733 0.34918 0.63166 0.0
N78 N 0.14006 0.34425 0.53795 0.0
N79 N 0.13556 0.32096 0.56036 0.0
C80 C 0.14729 0.39032 0.57122 0.0
H81 H 0.13543 0.40222 0.56671 0.0
H82 H 0.15541 0.39782 0.60806 0.0
H83 H 0.155 0.39293 0.53146 0.0
C84 C 0.10674 0.39104 0.37005 0.0
N85 N 0.12187 0.37864 0.37951 0.0
N86 N 0.1222 0.36995 0.43273 0.0
C87 C 0.10707 0.37601 0.45847 0.0
C88 C 0.0969 0.38988 0.41993 0.0
C89 C 0.10189 0.40356 0.31422 0.0
H90 H 0.09958 0.38802 0.2815 0.0
H91 H 0.11307 0.41684 0.29978 0.0
H92 H 0.08987 0.41508 0.31777 0.0
O93 O 0.14103 0.33023 0.32834 0.0
O94 O 0.14135 0.3163 0.41855 0.0
H95 H 0.10579 0.34547 0.52264 0.0
H96 H 0.08659 0.36497 0.51952 0.0
C97 C 0.10124 0.36563 0.51584 0.0
H98 H 0.10696 0.37863 0.54985 0.0
H99 H 0.13331 0.3038 0.53659 0.0
O100 O 0.13496 0.37861 0.25031 0.0
C101 C 0.14125 0.31163 0.36509 0.0
Co102 Co 0.37512 0.52621 0.32398 0.0
Co103 Co 0.37278 0.54909 0.44736 0.0
C104 C 0.34488 0.51066 0.40035 0.0
O105 O 0.353 0.50894 0.35318 0.0
O106 O 0.35101 0.52551 0.44032 0.0
C107 C 0.36805 0.50329 0.2148 0.0
O108 O 0.35181 0.50068 0.23432 0.0
C109 C 0.37135 0.54626 0.57187 0.0
C110 C 0.38229 0.58564 0.59731 0.0
C111 C 0.37599 0.56155 0.61912 0.0
N112 N 0.37479 0.56063 0.52443 0.0
N113 N 0.38111 0.58426 0.53983 0.0
C114 C 0.36563 0.51762 0.57116 0.0
H115 H 0.36933 0.50861 0.53018 0.0
H116 H 0.37175 0.50697 0.60742 0.0
H117 H 0.351 0.51557 0.57526 0.0
C118 C 0.4096 0.50982 0.36927 0.0
N119 N 0.39411 0.52138 0.37544 0.0
N120 N 0.39341 0.53133 0.42716 0.0
C121 C 0.40863 0.52668 0.45538 0.0
C122 C 0.41935 0.51288 0.41964 0.0
C123 C 0.41518 0.49733 0.31503 0.0
H124 H 0.415 0.51207 0.27974 0.0
H125 H 0.40549 0.481 0.30378 0.0
H126 H 0.42865 0.4897 0.31889 0.0
O127 O 0.37198 0.56416 0.31112 0.0
O128 O 0.3705 0.58076 0.39828 0.0
H129 H 0.41112 0.5561 0.5204 0.0
H130 H 0.42624 0.52988 0.52957 0.0
C131 C 0.41266 0.53465 0.5159 0.0
H132 H 0.40314 0.52408 0.54477 0.0
H133 H 0.38512 0.59916 0.51109 0.0
O134 O 0.38037 0.51242 0.24759 0.0
C135 C 0.3704 0.58366 0.34408 0.0
Co136 Co 0.8607 0.86642 0.9647 0.0
Co137 Co 0.86726 0.87921 0.83532 0.0
C138 C 0.83788 0.9028 0.89848 0.0
O139 O 0.84232 0.89119 0.94447 0.0
O140 O 0.84634 0.89997 0.85228 0.0
C141 C 0.8408 0.85393 0.06593 0.0
O142 O 0.82731 0.86126 0.03468 0.0
C143 C 0.85944 0.87778 0.71251 0.0
C144 C 0.8862 0.88343 0.67569 0.0
C145 C 0.86849 0.87866 0.66098 0.0
N146 N 0.87131 0.88157 0.7553 0.0
N147 N 0.88725 0.88531 0.73302 0.0
C148 C 0.84018 0.87095 0.72205 0.0
H149 H 0.83801 0.86372 0.76652 0.0
H150 H 0.83516 0.85576 0.69125 0.0
H151 H 0.83257 0.88887 0.71556 0.0
C152 C 0.85858 0.81187 0.92043 0.0
N153 N 0.86029 0.83815 0.91255 0.0
N154 N 0.86319 0.84334 0.858 0.0
C155 C 0.86351 0.82041 0.82952 0.0
C156 C 0.86038 0.79984 0.86798 0.0
C157 C 0.85561 0.79873 0.97728 0.0
H158 H 0.86666 0.80471 0.00691 0.0
H159 H 0.84318 0.80546 0.9958 0.0
H160 H 0.85467 0.77695 0.97357 0.0
O161 O 0.88443 0.88469 0.96576 0.0
O162 O 0.8891 0.89382 0.87391 0.0
H163 H 0.87985 0.83199 0.75811 0.0
H164 H 0.87261 0.79769 0.75846 0.0
C165 C 0.86864 0.81789 0.76811 0.0
H166 H 0.85719 0.82229 0.7402 0.0
H167 H 0.8989 0.88828 0.75707 0.0
O168 O 0.85607 0.85369 0.04364 0.0
C169 C 0.8942 0.89441 0.92606 0.0
Co170 Co 0.63279 0.0239 0.86575 0.0
Co171 Co 0.64 0.03994 0.99294 0.0
C172 C 0.66665 0.01182 0.92444 0.0
O173 O 0.65652 0.01085 0.88055 0.0
O174 O 0.66189 0.02237 0.97071 0.0
C175 C 0.62814 0.99285 0.76168 0.0
O176 O 0.63502 0.97327 0.7898 0.0
C177 C 0.64425 0.02971 0.11639 0.0
C178 C 0.63561 0.06695 0.15238 0.0
C179 C 0.64072 0.04201 0.16768 0.0
N180 N 0.64083 0.04639 0.07309 0.0
N181 N 0.63599 0.06876 0.09496 0.0
C182 C 0.65087 0.00273 0.10815 0.0
H183 H 0.65918 0.0023 0.0695 0.0
H184 H 0.63945 0.98841 0.1019 0.0
H185 H 0.65874 0.99657 0.14593 0.0
C186 C 0.59992 8e-05 0.91526 0.0
N187 N 0.6162 0.0119 0.92082 0.0
N188 N 0.61884 0.01921 0.97431 0.0
C189 C 0.60415 0.01239 0.00448 0.0
C190 C 0.59174 -2e-05 0.96812 0.0
C191 C 0.59161 0.99243 0.85893 0.0
H192 H 0.59284 0.00938 0.82874 0.0
H193 H 0.59887 0.9761 0.84061 0.0
H194 H 0.57741 0.98613 0.86316 0.0
O195 O 0.63403 0.06257 0.86452 0.0
O196 O 0.6395 0.07491 0.95406 0.0
H197 H 0.60407 0.04044 0.07236 0.0
H198 H 0.58811 0.01299 0.08113 0.0
C199 C 0.6016 0.01897 0.06612 0.0
H200 H 0.61119 0.00845 0.09281 0.0
H201 H 0.63231 0.08493 0.07058 0.0
O202 O 0.62559 0.01423 0.78733 0.0
C203 C 0.63671 0.08052 0.90161 0.0
Co204 Co 0.88129 0.48473 0.66326 0.0
Co205 Co 0.87902 0.50852 0.53939 0.0
C206 C 0.84873 0.47614 0.59394 0.0
O207 O 0.85747 0.47101 0.63925 0.0
O208 O 0.85552 0.49055 0.55424 0.0
C209 C 0.87742 0.45557 0.76969 0.0
O210 O 0.86328 0.44422 0.74531 0.0
C211 C 0.87708 0.50031 0.41594 0.0
C212 C 0.88451 0.53988 0.38139 0.0
C213 C 0.88021 0.51413 0.36515 0.0
N214 N 0.87978 0.51702 0.45986 0.0
N215 N 0.88408 0.54068 0.43896 0.0
C216 C 0.87111 0.47193 0.42314 0.0
H217 H 0.86422 0.46863 0.46431 0.0
H218 H 0.8828 0.45959 0.4235 0.0
H219 H 0.86214 0.46552 0.38737 0.0
C220 C 0.91321 0.46214 0.61524 0.0
N221 N 0.8986 0.47612 0.61003 0.0
N222 N 0.89808 0.48686 0.55861 0.0
C223 C 0.91262 0.48051 0.52983 0.0
C224 C 0.92254 0.46438 0.56446 0.0
C225 C 0.91812 0.44728 0.66816 0.0
H226 H 0.92343 0.46143 0.70076 0.0
H227 H 0.90614 0.43683 0.68601 0.0
H228 H 0.92826 0.43285 0.65921 0.0
O229 O 0.88101 0.52351 0.67161 0.0
O230 O 0.88074 0.54126 0.58449 0.0
H231 H 0.91405 0.51298 0.4702 0.0
H232 H 0.93281 0.49249 0.4686 0.0
C233 C 0.91821 0.49244 0.47357 0.0
H234 H 0.91196 0.48077 0.43822 0.0
H235 H 0.887 0.55727 0.46401 0.0
O236 O 0.88712 0.47189 0.74102 0.0
C237 C 0.88102 0.54363 0.63873 0.0
Co238 Co 0.63262 0.39767 0.66498 0.0
Co239 Co 0.63101 0.3705 0.5449 0.0
C240 C 0.66276 0.40427 0.58615 0.0
O241 O 0.65529 0.41087 0.63207 0.0
O242 O 0.655 0.38854 0.55062 0.0
C243 C 0.64268 0.41452 0.77559 0.0
O244 O 0.65845 0.40996 0.7559 0.0
C245 C 0.63282 0.37159 0.42022 0.0
C246 C 0.61784 0.33488 0.39571 0.0
C247 C 0.62683 0.35702 0.37325 0.0
N248 N 0.62764 0.35868 0.46807 0.0
N249 N 0.61884 0.33661 0.45321 0.0
C250 C 0.64165 0.39863 0.42019 0.0
H251 H 0.63838 0.4092 0.45978 0.0
H252 H 0.63748 0.41013 0.38219 0.0
H253 H 0.65623 0.39694 0.419 0.0
C254 C 0.59904 0.41846 0.62228 0.0
N255 N 0.6135 0.40444 0.61538 0.0
N256 N 0.61274 0.39316 0.56486 0.0
C257 C 0.59763 0.39954 0.53801 0.0
C258 C 0.58845 0.41573 0.57353 0.0
C259 C 0.59499 0.43244 0.67632 0.0
H260 H 0.59475 0.41815 0.71252 0.0
H261 H 0.60572 0.44761 0.68531 0.0
H262 H 0.58206 0.44183 0.67371 0.0
O263 O 0.63365 0.35949 0.68012 0.0
O264 O 0.63048 0.33935 0.59644 0.0
H265 H 0.59095 0.36876 0.47854 0.0
H266 H 0.57954 0.39868 0.46491 0.0
C267 C 0.59223 0.39058 0.47918 0.0
H268 H 0.60261 0.39717 0.44843 0.0
H269 H 0.61315 0.32305 0.48229 0.0
O270 O 0.62938 0.41257 0.74177 0.0
C271 C 0.63232 0.33854 0.65069 0.0
H272 H 0.31022 0.91678 0.99782 0.0
H273 H 0.27907 0.92785 0.99605 0.0
H274 H 0.28118 0.94071 0.17833 0.0
H275 H 0.3123 0.92969 0.18067 0.0
H276 H 0.25225 0.90848 0.14352 0.0
H277 H 0.28082 0.99211 0.09042 0.0
H278 H 0.30051 0.02154 0.03228 0.0
H279 H 0.26965 0.0019 0.88169 0.0
H280 H 0.2499 0.97205 0.93883 0.0
H281 H 0.17202 0.96986 0.18744 0.0
H282 H 0.20269 0.95742 0.18245 0.0
H283 H 0.19953 0.95888 0.99777 0.0
H284 H 0.16898 0.97255 0.00258 0.0
H285 H 0.22897 0.98217 0.02941 0.0
H286 H 0.19987 0.89972 0.07961 0.0
H287 H 0.18015 0.86914 0.13494 0.0
H288 H 0.21169 0.88426 0.28634 0.0
H289 H 0.23148 0.91521 0.23209 0.0
C290 C 0.3041 0.92213 0.0375 0.0
C291 C 0.31375 0.92231 0.08942 0.0
C292 C 0.28632 0.92851 0.03635 0.0
C293 C 0.27787 0.93513 0.08705 0.0
C294 C 0.28748 0.9356 0.13878 0.0
C295 C 0.30529 0.92941 0.13995 0.0
C296 C 0.25885 0.94091 0.08654 0.0
C297 C 0.24714 0.92476 0.11911 0.0
C298 C 0.25219 0.96159 0.05311 0.0
C299 C 0.26399 0.97964 0.0188 0.0
C300 C 0.27832 0.9939 0.04482 0.0
C301 C 0.28947 0.01069 0.01207 0.0
C302 C 0.28637 0.01353 0.9533 0.0
C303 C 0.27206 0.99965 0.9272 0.0
C304 C 0.26087 0.98281 0.95975 0.0
C305 C 0.17777 0.96726 0.14573 0.0
C306 C 0.16806 0.97211 0.09538 0.0
C307 C 0.19532 0.96002 0.14292 0.0
C308 C 0.20339 0.95678 0.08971 0.0
C309 C 0.19361 0.96124 0.03932 0.0
C310 C 0.17613 0.96896 0.04211 0.0
C311 C 0.22224 0.94983 0.08685 0.0
C312 C 0.23396 0.96575 0.0536 0.0
C313 C 0.22889 0.9287 0.11916 0.0
C314 C 0.21708 0.90995 0.15185 0.0
C315 C 0.20254 0.89665 0.12478 0.0
C316 C 0.19136 0.87924 0.15594 0.0
C317 C 0.19464 0.87481 0.21414 0.0
C318 C 0.20916 0.88773 0.24126 0.0
C319 C 0.22037 0.90518 0.21031 0.0
H320 H 0.18596 0.86132 0.2382 0.0
H321 H 0.29502 0.02654 0.92801 0.0
H322 H 0.18967 0.39629 0.50021 0.0
H323 H 0.21967 0.41673 0.50922 0.0
H324 H 0.22431 0.41828 0.32538 0.0
H325 H 0.19428 0.39833 0.31582 0.0
H326 H 0.25394 0.3969 0.38934 0.0
H327 H 0.21682 0.47236 0.38318 0.0
H328 H 0.19249 0.49858 0.41715 0.0
H329 H 0.21719 0.50427 0.58342 0.0
H330 H 0.24156 0.47774 0.55059 0.0
H331 H 0.32581 0.48249 0.31974 0.0
H332 H 0.29714 0.4591 0.33056 0.0
H333 H 0.29638 0.48078 0.5087 0.0
H334 H 0.32503 0.50498 0.49785 0.0
H335 H 0.26527 0.48784 0.46125 0.0
H336 H 0.30371 0.41714 0.46872 0.0
H337 H 0.32812 0.38987 0.43986 0.0
H338 H 0.30149 0.37295 0.27997 0.0
H339 H 0.27703 0.40045 0.3075 0.0
C340 C 0.19707 0.40102 0.46171 0.0
C341 C 0.18961 0.39575 0.40727 0.0
C342 C 0.21417 0.4127 0.46697 0.0
C343 C 0.22412 0.41894 0.41794 0.0
C344 C 0.21679 0.41352 0.36366 0.0
C345 C 0.19962 0.40227 0.35831 0.0
C346 C 0.24223 0.43118 0.42286 0.0
C347 C 0.25647 0.41684 0.40464 0.0
C348 C 0.24547 0.45676 0.44504 0.0
C349 C 0.23088 0.4728 0.46465 0.0
C350 C 0.21697 0.47899 0.42714 0.0
C351 C 0.2032 0.49395 0.44615 0.0
C352 C 0.20326 0.50301 0.50247 0.0
C353 C 0.21714 0.49719 0.53984 0.0
C354 C 0.23094 0.48221 0.52105 0.0
C355 C 0.31965 0.4822 0.3614 0.0
C356 C 0.32776 0.49559 0.40797 0.0
C357 C 0.30326 0.46866 0.3676 0.0
C358 C 0.29472 0.4678 0.42069 0.0
C359 C 0.30276 0.4811 0.46739 0.0
C360 C 0.31915 0.49487 0.46112 0.0
C361 C 0.27709 0.45382 0.42628 0.0
C362 C 0.26289 0.46776 0.4466 0.0
C363 C 0.27391 0.42766 0.40688 0.0
C364 C 0.28859 0.41104 0.39004 0.0
C365 C 0.30312 0.40777 0.42722 0.0
C366 C 0.31695 0.39224 0.41112 0.0
C367 C 0.31637 0.37972 0.35807 0.0
C368 C 0.30193 0.38267 0.32104 0.0
C369 C 0.28806 0.3982 0.33691 0.0
H370 H 0.3271 0.3677 0.34569 0.0
H371 H 0.19259 0.5146 0.5171 0.0
H372 H 0.69019 0.00283 0.01183 0.0
H373 H 0.72003 0.98677 0.00423 0.0
H374 H 0.71369 0.98221 0.82064 0.0
H375 H 0.68369 0.99738 0.82804 0.0
H376 H 0.72868 0.9406 0.85749 0.0
H377 H 0.73899 0.03303 0.88748 0.0
H378 H 0.73631 0.07554 0.93587 0.0
H379 H 0.76006 0.04434 0.08824 0.0
H380 H 0.76267 0.00151 0.041 0.0
H381 H 0.81976 0.92211 0.80604 0.0
H382 H 0.79158 0.94395 0.80697 0.0
H383 H 0.79156 0.94036 0.99154 0.0
H384 H 0.81966 0.91873 0.99117 0.0
H385 H 0.78048 0.98795 0.9491 0.0
H386 H 0.76844 0.89461 0.9177 0.0
H387 H 0.77153 0.85286 0.86661 0.0
H388 H 0.75139 0.88756 0.71234 0.0
H389 H 0.74841 0.92965 0.76238 0.0
C390 C 0.69513 0.99836 0.96986 0.0
C391 C 0.68456 0.00145 0.92055 0.0
C392 C 0.71225 0.98934 0.96552 0.0
C393 C 0.71924 0.98372 0.91173 0.0
C394 C 0.70861 0.98647 0.86258 0.0
C395 C 0.69145 0.99516 0.86693 0.0
C396 C 0.73753 0.97459 0.90663 0.0
C397 C 0.74002 0.95123 0.87677 0.0
C398 C 0.75235 0.98822 0.93236 0.0
C399 C 0.75088 0.01399 0.96085 0.0
C400 C 0.74353 0.03518 0.93144 0.0
C401 C 0.74204 0.05934 0.95864 0.0
C402 C 0.74798 0.06262 0.01514 0.0
C403 C 0.75545 0.04176 0.0445 0.0
C404 C 0.75695 0.01754 0.01751 0.0
C405 C 0.81389 0.92631 0.84684 0.0
C406 C 0.82189 0.91849 0.89852 0.0
C407 C 0.79777 0.93869 0.84728 0.0
C408 C 0.78942 0.94347 0.89933 0.0
C409 C 0.79778 0.9368 0.95094 0.0
C410 C 0.81381 0.92433 0.95058 0.0
C411 C 0.7715 0.95402 0.9003 0.0
C412 C 0.76911 0.97755 0.92946 0.0
C413 C 0.75678 0.94072 0.87349 0.0
C414 C 0.75838 0.91534 0.8436 0.0
C415 C 0.76479 0.89338 0.87278 0.0
C416 C 0.76651 0.86966 0.84403 0.0
C417 C 0.76171 0.86758 0.78622 0.0
C418 C 0.75513 0.88921 0.75709 0.0
C419 C 0.75341 0.913 0.78563 0.0
H420 H 0.76305 0.8492 0.76403 0.0
H421 H 0.74681 0.08134 0.03613 0.0
H422 H 0.83148 0.43692 0.6559 0.0
H423 H 0.80023 0.42206 0.6484 0.0
H424 H 0.79239 0.47934 0.51413 0.0
H425 H 0.82366 0.49342 0.51967 0.0
H426 H 0.77189 0.44499 0.66888 0.0
H427 H 0.7598 0.4604 0.42389 0.0
H428 H 0.77613 0.45666 0.3337 0.0
H429 H 0.81006 0.40143 0.41339 0.0
H430 H 0.79378 0.40453 0.50378 0.0
H431 H 0.68039 0.44837 0.62767 0.0
H432 H 0.71215 0.45981 0.62184 0.0
H433 H 0.71918 0.39027 0.52142 0.0
H434 H 0.68731 0.37963 0.52434 0.0
H435 H 0.74065 0.42616 0.48459 0.0
H436 H 0.72703 0.39273 0.67109 0.0
H437 H 0.71116 0.38994 0.76283 0.0
H438 H 0.73019 0.46865 0.8036 0.0
H439 H 0.74595 0.47206 0.71167 0.0
C440 C 0.82312 0.44613 0.62436 0.0
C441 C 0.83006 0.46626 0.58821 0.0
C442 C 0.80525 0.43768 0.62023 0.0
C443 C 0.79396 0.44936 0.58026 0.0
C444 C 0.80089 0.46954 0.54432 0.0
C445 C 0.81878 0.47768 0.54776 0.0
C446 C 0.77479 0.44127 0.57764 0.0
C447 C 0.76509 0.44076 0.62857 0.0
C448 C 0.76593 0.43516 0.52528 0.0
C449 C 0.77565 0.43291 0.47078 0.0
C450 C 0.77069 0.44736 0.4221 0.0
C451 C 0.77995 0.44537 0.37095 0.0
C452 C 0.79416 0.42888 0.36787 0.0
C453 C 0.79909 0.41427 0.41588 0.0
C454 C 0.78986 0.41616 0.4671 0.0
C455 C 0.6887 0.43578 0.6036 0.0
C456 C 0.68143 0.413 0.57687 0.0
C457 C 0.70686 0.44221 0.60063 0.0
C458 C 0.71817 0.42549 0.57262 0.0
C459 C 0.71078 0.40342 0.54356 0.0
C460 C 0.69255 0.39734 0.54529 0.0
C461 C 0.73772 0.43035 0.57568 0.0
C462 C 0.74747 0.43027 0.52488 0.0
C463 C 0.74676 0.43485 0.62847 0.0
C464 C 0.73755 0.43272 0.68427 0.0
C465 C 0.72776 0.40949 0.6995 0.0
C466 C 0.71878 0.4078 0.75153 0.0
C467 C 0.71963 0.42913 0.78896 0.0
C468 C 0.72952 0.45216 0.77453 0.0
C469 C 0.73849 0.45398 0.72249 0.0
H470 H 0.71265 0.42779 0.82918 0.0
H471 H 0.80132 0.42739 0.32825 0.0
H472 H 0.92219 0.90253 0.85383 0.0
H473 H 0.95286 0.9157 0.87951 0.0
H474 H 0.93793 0.92313 0.05603 0.0
H475 H 0.90725 0.9096 0.03101 0.0
H476 H 0.9613 0.96576 0.01012 0.0
H477 H 0.95589 0.87061 0.02529 0.0
H478 H 0.94807 0.82611 0.98877 0.0
H479 H 0.98499 0.83858 0.85155 0.0
H480 H 0.99283 0.88334 0.88679 0.0
H481 H 0.04609 0.97264 0.13866 0.0
H482 H 0.0153 0.95924 0.11566 0.0
H483 H 0.03135 0.93234 0.95021 0.0
H484 H 0.06231 0.94423 0.97471 0.0
H485 H 0.007 0.89972 0.98966 0.0
H486 H 0.01293 0.99326 0.96936 0.0
H487 H 0.02074 0.03889 0.99866 0.0
H488 H 0.98321 0.03159 0.1353 0.0
H489 H 0.97535 0.98574 0.10732 0.0
C490 C 0.92537 0.90726 0.89802 0.0
C491 C 0.91231 0.90491 0.94047 0.0
C492 C 0.9429 0.91468 0.91259 0.0
C493 C 0.94761 0.92016 0.96966 0.0
C494 C 0.9345 0.91892 0.01176 0.0
C495 C 0.91702 0.91113 0.9974 0.0
C496 C 0.96635 0.92615 0.98581 0.0
C497 C 0.9713 0.95129 0.00641 0.0
C498 C 0.97938 0.90742 0.9792 0.0
C499 C 0.97481 0.88042 0.95834 0.0
C500 C 0.96223 0.86395 0.98705 0.0
C501 C 0.95781 0.83866 0.96663 0.0
C502 C 0.96599 0.82955 0.91778 0.0
C503 C 0.97865 0.84568 0.88934 0.0
C504 C 0.98309 0.871 0.90954 0.0
C505 C 0.04308 0.9633 0.09797 0.0
C506 C 0.05654 0.95949 0.05837 0.0
C507 C 0.02546 0.95601 0.08448 0.0
C508 C 0.02094 0.94532 0.03066 0.0
C509 C 0.03448 0.9407 0.99185 0.0
C510 C 0.05213 0.94764 0.00569 0.0
C511 C 0.00209 0.93946 0.01433 0.0
C512 C 0.99708 0.9143 0.99355 0.0
C513 C 0.98906 0.95837 0.01978 0.0
C514 C 0.99368 0.98598 0.03659 0.0
C515 C 0.00643 0.00132 0.00592 0.0
C516 C 0.01086 0.02723 0.02225 0.0
C517 C 0.00251 0.03811 0.06891 0.0
C518 C 0.98968 0.02312 0.09923 0.0
C519 C 0.98523 0.99717 0.08313 0.0
H520 H 0.00595 0.05818 0.08148 0.0
H521 H 0.96255 0.80997 0.90203 0.0
H522 H 0.43419 0.89883 0.03707 0.0
H523 H 0.4656 0.91126 0.02316 0.0
H524 H 0.45598 0.99135 0.06889 0.0
H525 H 0.42435 0.97895 0.08126 0.0
H526 H 0.47626 0.9899 0.97548 0.0
H527 H 0.47643 0.95054 0.16224 0.0
H528 H 0.46974 0.9161 0.2349 0.0
H529 H 0.49996 0.86174 0.14174 0.0
H530 H 0.50663 0.89575 0.06802 0.0
H531 H 0.56681 0.03204 0.00623 0.0
H532 H 0.53559 0.02035 0.02603 0.0
H533 H 0.54319 0.94034 0.97498 0.0
H534 H 0.5746 0.952 0.95622 0.0
H535 H 0.52402 0.94251 0.07339 0.0
H536 H 0.5232 0.98187 0.88563 0.0
H537 H 0.52998 0.01655 0.81357 0.0
H538 H 0.50095 0.07126 0.90992 0.0
H539 H 0.49423 0.03699 0.98305 0.0
C540 C 0.43883 0.9191 0.04381 0.0
C541 C 0.42697 0.93806 0.05963 0.0
C542 C 0.45675 0.92614 0.03638 0.0
C543 C 0.46316 0.95219 0.04552 0.0
C544 C 0.4513 0.97115 0.06163 0.0
C545 C 0.43332 0.96409 0.06887 0.0
C546 C 0.48218 0.95967 0.03699 0.0
C547 C 0.4867 0.97982 0.99758 0.0
C548 C 0.4958 0.9461 0.06487 0.0
C549 C 0.4919 0.92564 0.10932 0.0
C550 C 0.48154 0.93118 0.157 0.0
C551 C 0.47777 0.91175 0.19842 0.0
C552 C 0.48439 0.88673 0.19287 0.0
C553 C 0.49483 0.88112 0.14595 0.0
C554 C 0.49862 0.90048 0.10436 0.0
C555 C 0.56179 0.01193 -0.00024 0.0
C556 C 0.57298 0.9928 0.98023 0.0
C557 C 0.54398 0.00532 0.01066 0.0
C558 C 0.53706 0.97953 0.00155 0.0
C559 C 0.5483 0.96034 0.98233 0.0
C560 C 0.56614 0.96698 0.97144 0.0
C561 C 0.51805 0.97265 0.01179 0.0
C562 C 0.51355 0.95262 0.05148 0.0
C563 C 0.50445 0.98636 0.98428 0.0
C564 C 0.50835 0.00693 0.94009 0.0
C565 C 0.51837 0.00135 0.89167 0.0
C566 C 0.52219 0.02093 0.8506 0.0
C567 C 0.51593 0.04611 0.85723 0.0
C568 C 0.50581 0.05175 0.90488 0.0
C569 C 0.50198 0.03225 0.94613 0.0
H570 H 0.5189 0.06124 0.82538 0.0
H571 H 0.48145 0.87171 0.22499 0.0
H572 H 0.0669 0.37996 0.35586 0.0
H573 H 0.03676 0.39232 0.37806 0.0
H574 H 0.05666 0.43245 0.52953 0.0
H575 H 0.08674 0.42009 0.50734 0.0
H576 H 0.0282 0.40006 0.55255 0.0
H577 H 0.04406 0.46649 0.41108 0.0
H578 H 0.05433 0.48279 0.3168 0.0
H579 H 0.01035 0.44091 0.23485 0.0
H580 H -4e-05 0.42402 0.3286 0.0
H581 H 0.95314 0.47019 0.62679 0.0
H582 H 0.98251 0.45629 0.60037 0.0
H583 H 0.96034 0.42193 0.44532 0.0
H584 H 0.93103 0.43638 0.47129 0.0
H585 H 0.9895 0.44966 0.42198 0.0
H586 H 0.97311 0.38366 0.56121 0.0
H587 H 0.96255 0.36637 0.65438 0.0
H588 H 0.00705 0.40566 0.7391 0.0
H589 H 0.01775 0.42351 0.6465 0.0
C590 C 0.06482 0.39186 0.3932 0.0
C591 C 0.07904 0.39929 0.42978 0.0
C592 C 0.04764 0.39883 0.40595 0.0
C593 C 0.0445 0.41341 0.45533 0.0
C594 C 0.05879 0.42116 0.49132 0.0
C595 C 0.07592 0.41419 0.47859 0.0
C596 C 0.02625 0.41977 0.47088 0.0
C597 C 0.0198 0.41119 0.52433 0.0
C598 C 0.01513 0.43353 0.43321 0.0
C599 C 0.02134 0.44376 0.37683 0.0
C600 C 0.03666 0.46057 0.37292 0.0
C601 C 0.04249 0.46995 0.31957 0.0
C602 C 0.03303 0.46283 0.26985 0.0
C603 C 0.01769 0.44637 0.27339 0.0
C604 C 0.01182 0.4369 0.32662 0.0
C605 C 0.95455 0.45929 0.58759 0.0
C606 C 0.93993 0.45412 0.55117 0.0
C607 C 0.9713 0.45137 0.57248 0.0
C608 C 0.9736 0.43779 0.52112 0.0
C609 C 0.95888 0.43237 0.4851 0.0
C610 C 0.94218 0.44051 0.49998 0.0
C611 C 0.99147 0.43015 0.50398 0.0
C612 C 0.99786 0.43844 0.45019 0.0
C613 C 0.00249 0.41594 0.54117 0.0
C614 C 0.99614 0.40512 0.59693 0.0
C615 C 0.98058 0.38878 0.59975 0.0
C616 C 0.97458 0.37885 0.65246 0.0
C617 C 0.9841 0.38496 0.70264 0.0
C618 C 0.99968 0.40096 0.7002 0.0
C619 C 0.00572 0.41097 0.6476 0.0
H620 H 0.97944 0.37726 0.74341 0.0
H621 H 0.03756 0.47011 0.22859 0.0
H622 H 0.42939 0.46239 0.42098 0.0
H623 H 0.45851 0.44664 0.44867 0.0
H624 H 0.47812 0.52684 0.47574 0.0
H625 H 0.44901 0.54255 0.44773 0.0
H626 H 0.50193 0.49721 0.41823 0.0
H627 H 0.46664 0.49055 0.58741 0.0
H628 H 0.44035 0.47702 0.64412 0.0
H629 H 0.44974 0.39569 0.61432 0.0
H630 H 0.47594 0.40876 0.55657 0.0
H631 H 0.57989 0.46705 0.57314 0.0
H632 H 0.55096 0.4846 0.54954 0.0
H633 H 0.52882 0.40546 0.52559 0.0
H634 H 0.55765 0.38798 0.55004 0.0
H635 H 0.50635 0.43573 0.58348 0.0
H636 H 0.54103 0.44231 0.41216 0.0
H637 H 0.56715 0.4557 0.35447 0.0
H638 H 0.55876 0.53705 0.38776 0.0
H639 H 0.53273 0.52411 0.44645 0.0
C640 C 0.44001 0.47656 0.4324 0.0
C641 C 0.4371 0.50357 0.43273 0.0
C642 C 0.45655 0.4676 0.44842 0.0
C643 C 0.47037 0.48559 0.46487 0.0
C644 C 0.4676 0.51267 0.46335 0.0
C645 C 0.45103 0.5216 0.44761 0.0
C646 C 0.4876 0.47609 0.48484 0.0
C647 C 0.50296 0.48406 0.45483 0.0
C648 C 0.48882 0.45858 0.532 0.0
C649 C 0.47317 0.45065 0.56718 0.0
C650 C 0.46303 0.46978 0.59255 0.0
C651 C 0.44815 0.4622 0.62495 0.0
C652 C 0.44335 0.43551 0.63271 0.0
C653 C 0.45346 0.41636 0.60821 0.0
C654 C 0.46833 0.42384 0.57567 0.0
C655 C 0.56875 0.45351 0.56338 0.0
C656 C 0.57088 0.42627 0.56284 0.0
C657 C 0.55231 0.46348 0.54967 0.0
C658 C 0.53782 0.44632 0.53513 0.0
C659 C 0.53984 0.41903 0.53653 0.0
C660 C 0.55627 0.40909 0.55016 0.0
C661 C 0.52069 0.45675 0.5167 0.0
C662 C 0.50534 0.44895 0.547 0.0
C663 C 0.51947 0.4744 0.46977 0.0
C664 C 0.53505 0.48223 0.4342 0.0
C665 C 0.54484 0.46305 0.40757 0.0
C666 C 0.55961 0.47055 0.37463 0.0
C667 C 0.56464 0.4972 0.36758 0.0
C668 C 0.55486 0.51641 0.39334 0.0
C669 C 0.5401 0.509 0.42642 0.0
H670 H 0.57608 0.50298 0.34204 0.0
H671 H 0.43183 0.42968 0.65781 0.0
H672 H 0.09724 0.02902 0.78226 0.0
H673 H 0.09689 0.0122 0.68438 0.0
H674 H 0.1423 0.96693 0.7243 0.0
H675 H 0.1429 0.98407 0.822 0.0
H676 H 0.1459 0.9945 0.6236 0.0
H677 H 0.1027 0.93574 0.71048 0.0
H678 H 0.07624 0.92338 0.76743 0.0
H679 H 0.04357 0.9642 0.64796 0.0
H680 H 0.06988 0.97719 0.59073 0.0
H681 H 0.1422 0.93584 0.35141 0.0
H682 H 0.14093 0.93748 0.45589 0.0
H683 H 0.09494 0.98428 0.44388 0.0
H684 H 0.09592 0.98243 0.33962 0.0
H685 H 0.09259 0.9501 0.53409 0.0
H686 H 0.13567 0.01383 0.45607 0.0
H687 H 0.16185 0.02798 0.39932 0.0
H688 H 0.1944 0.97913 0.50295 0.0
H689 H 0.16833 0.96442 0.55985 0.0
C690 C 0.10712 0.01542 0.77016 0.0
C691 C 0.1199 0.00747 0.80997 0.0
C692 C 0.10682 0.00568 0.71444 0.0
C693 C 0.11939 0.98797 0.69744 0.0
C694 C 0.13236 0.98034 0.73684 0.0
C695 C 0.13259 0.98995 0.79274 0.0
C696 C 0.11937 0.97838 0.63774 0.0
C697 C 0.13438 0.98428 0.60435 0.0
C698 C 0.1042 0.96554 0.61245 0.0
C699 C 0.0883 0.95761 0.64653 0.0
C700 C 0.08989 0.94226 0.69657 0.0
C701 C 0.07492 0.93511 0.72887 0.0
C702 C 0.05824 0.94304 0.71139 0.0
C703 C 0.0565 0.95808 0.66147 0.0
C704 C 0.07144 0.96532 0.62904 0.0
C705 C 0.13159 0.94603 0.37097 0.0
C706 C 0.11933 0.95936 0.33719 0.0
C707 C 0.13093 0.947 0.43069 0.0
C708 C 0.11805 0.96143 0.45755 0.0
C709 C 0.10503 0.97314 0.42401 0.0
C710 C 0.10567 0.97214 0.36436 0.0
C711 C 0.11904 0.9665 0.51992 0.0
C712 C 0.1042 0.95988 0.55371 0.0
C713 C 0.13433 0.97884 0.54563 0.0
C714 C 0.15003 0.98779 0.51174 0.0
C715 C 0.14839 0.00596 0.46646 0.0
C716 C 0.1632 0.0141 0.43432 0.0
C717 C 0.17977 0.00439 0.44741 0.0
C718 C 0.18156 0.98659 0.49279 0.0
C719 C 0.16677 0.97835 0.52501 0.0
H720 H 0.19123 0.01072 0.42248 0.0
H721 H 0.04666 0.93748 0.73646 0.0
H722 H 0.38647 0.91225 0.33286 0.0
H723 H 0.38671 0.91307 0.43714 0.0
H724 H 0.34686 0.97098 0.43391 0.0
H725 H 0.34633 0.97001 0.32908 0.0
H726 H 0.39228 0.94835 0.52244 0.0
H727 H 0.31692 0.95265 0.53831 0.0
H728 H 0.29 0.94442 0.4788 0.0
H729 H 0.31631 0.88623 0.38367 0.0
H730 H 0.34327 0.8939 0.44307 0.0
H731 H 0.37197 0.93674 0.81886 0.0
H732 H 0.37157 0.9535 0.72064 0.0
H733 H 0.35148 0.87741 0.6616 0.0
H734 H 0.3511 0.86088 0.76019 0.0
H735 H 0.33514 0.91604 0.60694 0.0
H736 H 0.39559 0.8959 0.6562 0.0
H737 H 0.42314 0.9 0.71391 0.0
H738 H 0.42791 0.98284 0.67602 0.0
H739 H 0.40025 0.97927 0.61865 0.0
C740 C 0.37795 0.9255 0.35421 0.0
C741 C 0.36614 0.94071 0.32277 0.0
C742 C 0.37819 0.92607 0.41386 0.0
C743 C 0.36662 0.94179 0.44319 0.0
C744 C 0.35574 0.95848 0.41196 0.0
C745 C 0.35549 0.95792 0.35211 0.0
C746 C 0.36467 0.93827 0.5058 0.0
C747 C 0.37974 0.94167 0.54114 0.0
C748 C 0.34836 0.92921 0.52998 0.0
C749 C 0.33214 0.9241 0.49463 0.0
C750 C 0.31692 0.93806 0.50477 0.0
C751 C 0.30167 0.9335 0.47108 0.0
C752 C 0.30147 0.91489 0.42734 0.0
C753 C 0.3165 0.90071 0.4174 0.0
C754 C 0.33177 0.90517 0.45104 0.0
C755 C 0.36691 0.92382 0.78533 0.0
C756 C 0.36116 0.89764 0.79741 0.0
C757 C 0.36695 0.93333 0.72904 0.0
C758 C 0.36155 0.91668 0.68383 0.0
C759 C 0.3556 0.89065 0.69591 0.0
C760 C 0.35549 0.88117 0.75215 0.0
C761 C 0.36282 0.92577 0.62356 0.0
C762 C 0.34759 0.92341 0.58865 0.0
C763 C 0.37908 0.93527 0.59963 0.0
C764 C 0.39576 0.93738 0.63372 0.0
C765 C 0.40245 0.91502 0.66053 0.0
C766 C 0.41809 0.91724 0.69311 0.0
C767 C 0.42724 0.94168 0.69877 0.0
C768 C 0.42079 0.96394 0.67169 0.0
C769 C 0.40514 0.96182 0.63912 0.0
H770 H 0.43935 0.94336 0.72403 0.0
H771 H 0.28966 0.91141 0.40125 0.0
H772 H 0.12804 0.39897 0.6638 0.0
H773 H 0.12581 0.4157 0.76089 0.0
H774 H 0.13873 0.33994 0.82917 0.0
H775 H 0.14213 0.3234 0.73223 0.0
H776 H 0.10571 0.36651 0.87222 0.0
H777 H 0.16975 0.38017 0.8344 0.0
H778 H 0.19454 0.39994 0.77819 0.0
H779 H 0.17638 0.47719 0.80921 0.0
H780 H 0.15131 0.45779 0.86494 0.0
H781 H 0.13081 0.35839 0.15386 0.0
H782 H 0.12689 0.35858 0.05092 0.0
H783 H 0.13537 0.4432 0.04702 0.0
H784 H 0.14014 0.44301 0.15133 0.0
H785 H 0.15287 0.42345 0.96484 0.0
H786 H 0.09329 0.41267 0.0195 0.0
H787 H 0.06725 0.39565 0.07352 0.0
H788 H 0.0738 0.31815 0.00796 0.0
H789 H 0.10005 0.33456 0.95421 0.0
C790 C 0.1311 0.38608 0.69911 0.0
C791 C 0.13595 0.36006 0.69 0.0
C792 C 0.12947 0.3956 0.75466 0.0
C793 C 0.1322 0.37905 0.80179 0.0
C794 C 0.13661 0.35296 0.79303 0.0
C795 C 0.13856 0.34359 0.73767 0.0
C796 C 0.13045 0.38861 0.8607 0.0
C797 C 0.11596 0.37896 0.89279 0.0
C798 C 0.14338 0.40596 0.88606 0.0
C799 C 0.15855 0.41753 0.85315 0.0
C800 C 0.17095 0.40135 0.82875 0.0
C801 C 0.18507 0.41249 0.79709 0.0
C802 C 0.187 0.4398 0.78995 0.0
C803 C 0.17485 0.45603 0.81466 0.0
C804 C 0.16069 0.44498 0.8463 0.0
C805 C 0.13168 0.37715 0.13145 0.0
C806 C 0.13571 0.40073 0.16082 0.0
C807 C 0.12927 0.37724 0.07239 0.0
C808 C 0.13036 0.40097 0.0412 0.0
C809 C 0.13431 0.42467 0.0703 0.0
C810 C 0.13701 0.42455 0.12978 0.0
C811 C 0.12851 0.40021 0.97792 0.0
C812 C 0.14228 0.41159 0.94454 0.0
C813 C 0.11462 0.38493 0.95099 0.0
C814 C 0.0987 0.37488 0.98285 0.0
C815 C 0.08925 0.39196 0.0168 0.0
C816 C 0.07443 0.38242 0.04738 0.0
C817 C 0.06888 0.35584 0.04419 0.0
C818 C 0.0781 0.33874 0.01033 0.0
C819 C 0.09293 0.34818 0.97968 0.0
H820 H 0.05741 0.34848 0.06793 0.0
H821 H 0.19794 0.44839 0.76542 0.0
H822 H 0.39891 0.51489 0.15777 0.0
H823 H 0.40243 0.51963 0.05432 0.0
H824 H 0.34817 0.49141 0.02803 0.0
H825 H 0.34447 0.48658 0.13151 0.0
H826 H 0.37218 0.47443 0.9433 0.0
H827 H 0.35564 0.55419 0.03783 0.0
H828 H 0.35959 0.58887 0.11078 0.0
H829 H 0.41109 0.61082 0.04452 0.0
H830 H 0.40756 0.57596 0.97177 0.0
H831 H 0.35059 0.53209 0.67674 0.0
H832 H 0.35137 0.51806 0.77708 0.0
H833 H 0.40228 0.55942 0.79927 0.0
H834 H 0.40142 0.57376 0.69897 0.0
H835 H 0.38196 0.56832 0.88628 0.0
H836 H 0.39843 0.4916 0.78776 0.0
H837 H 0.39564 0.45652 0.71551 0.0
H838 H 0.34621 0.42832 0.78825 0.0
H839 H 0.34858 0.46348 0.86048 0.0
C840 C 0.38783 0.5091 0.13002 0.0
C841 C 0.3713 0.50082 0.15286 0.0
C842 C 0.38988 0.51184 0.07094 0.0
C843 C 0.37546 0.50629 0.03385 0.0
C844 C 0.35941 0.49588 0.05613 0.0
C845 C 0.35731 0.49324 0.11527 0.0
C846 C 0.37645 0.51423 0.97293 0.0
C847 C 0.3742 0.49494 0.93061 0.0
C848 C 0.37946 0.54096 0.95678 0.0
C849 C 0.38141 0.56229 -0.00025 0.0
C850 C 0.36785 0.5663 0.03907 0.0
C851 C 0.37001 0.58599 0.08036 0.0
C852 C 0.3856 0.60198 0.08238 0.0
C853 C 0.39904 0.59838 0.04296 0.0
C854 C 0.39696 0.57867 0.00168 0.0
C855 C 0.36203 0.53789 0.70287 0.0
C856 C 0.3761 0.55356 0.67998 0.0
C857 C 0.36247 0.52989 0.76017 0.0
C858 C 0.37706 0.53723 0.79538 0.0
C859 C 0.39094 0.5534 0.77281 0.0
C860 C 0.39043 0.56159 0.71563 0.0
C861 C 0.37765 0.52852 0.85608 0.0
C862 C 0.38012 0.54774 0.89858 0.0
C863 C 0.37501 0.50169 0.87226 0.0
C864 C 0.37362 0.48033 0.82926 0.0
C865 C 0.38691 0.47803 0.78813 0.0
C866 C 0.38541 0.45812 0.7472 0.0
C867 C 0.37073 0.44024 0.74721 0.0
C868 C 0.35756 0.44219 0.78827 0.0
C869 C 0.35899 0.4621 0.82926 0.0
H870 H 0.36959 0.42484 0.71548 0.0
H871 H 0.38727 0.61719 0.11441 0.0
H872 H 0.86478 0.83357 0.14012 0.0
H873 H 0.86338 0.83221 0.2444 0.0
H874 H 0.81122 0.86309 0.23721 0.0
H875 H 0.81253 0.86462 0.13254 0.0
H876 H 0.83388 0.89169 0.30663 0.0
H877 H 0.81564 0.80153 0.28527 0.0
H878 H 0.8165 0.75634 0.24832 0.0
H879 H 0.86789 0.74859 0.32539 0.0
H880 H 0.86747 0.79388 0.36212 0.0
H881 H 0.83655 0.89102 0.61196 0.0
H882 H 0.82615 0.88139 0.51444 0.0
H883 H 0.87533 0.84532 0.47924 0.0
H884 H 0.88548 0.85391 0.57713 0.0
H885 H 0.84777 0.81684 0.43433 0.0
H886 H 0.86826 0.90876 0.43885 0.0
H887 H 0.86854 0.95453 0.47319 0.0
H888 H 0.81369 0.95904 0.42535 0.0
H889 H 0.81304 0.91314 0.39137 0.0
C890 C 0.85288 0.83965 0.16062 0.0
C891 C 0.83883 0.8494 0.12814 0.0
C892 C 0.85205 0.8387 0.22024 0.0
C893 C 0.83716 0.84746 0.24849 0.0
C894 C 0.82281 0.8562 0.21614 0.0
C895 C 0.82357 0.85699 0.15638 0.0
C896 C 0.83754 0.84996 0.3116 0.0
C897 C 0.83645 0.87519 0.33479 0.0
C898 C 0.84125 0.82852 0.34802 0.0
C899 C 0.84156 0.8012 0.3262 0.0
C900 C 0.82719 0.79027 0.294 0.0
C901 C 0.82758 0.76462 0.27315 0.0
C902 C 0.84225 0.74962 0.28443 0.0
C903 C 0.85653 0.76023 0.31669 0.0
C904 C 0.85621 0.78589 0.33762 0.0
C905 C 0.84496 0.88047 0.58396 0.0
C906 C 0.86174 0.87288 0.60251 0.0
C907 C 0.83908 0.87525 0.528 0.0
C908 C 0.84999 0.8627 0.48955 0.0
C909 C 0.86665 0.85489 0.50827 0.0
C910 C 0.87249 0.86003 0.56407 0.0
C911 C 0.84459 0.85866 0.42895 0.0
C912 C 0.84476 0.83318 0.40629 0.0
C913 C 0.84016 0.87989 0.39284 0.0
C914 C 0.84054 0.90744 0.4133 0.0
C915 C 0.85622 0.91945 0.43612 0.0
C916 C 0.85646 0.94542 0.45543 0.0
C917 C 0.84113 0.95965 0.45165 0.0
C918 C 0.82554 0.94796 0.42839 0.0
C919 C 0.82523 0.92198 0.40909 0.0
H920 H 0.84133 0.97976 0.46659 0.0
H921 H 0.84253 0.72976 0.26824 0.0
H922 H 0.6233 0.03414 0.68992 0.0
H923 H 0.62238 0.03419 0.58641 0.0
H924 H 0.62594 0.94968 0.58627 0.0
H925 H 0.62783 0.94968 0.69136 0.0
H926 H 0.64717 0.96952 0.51097 0.0
H927 H 0.58663 0.98078 0.54399 0.0
H928 H 0.56018 0.99829 0.58793 0.0
H929 H 0.57474 0.07552 0.52287 0.0
H930 H 0.60142 0.05859 0.47921 0.0
H931 H 0.63164 0.99105 0.20246 0.0
H932 H 0.62779 0.97493 0.30054 0.0
H933 H 0.64168 0.05264 0.36425 0.0
H934 H 0.6465 0.06871 0.26646 0.0
H935 H 0.60712 0.02602 0.4006 0.0
H936 H 0.67068 0.01222 0.38186 0.0
H937 H 0.69591 0.99211 0.33607 0.0
H938 H 0.67255 0.91495 0.37093 0.0
H939 H 0.64704 0.93465 0.41623 0.0
C940 C 0.62363 0.01543 0.66819 0.0
C941 C 0.62559 0.99186 0.69893 0.0
C942 C 0.62296 0.01547 0.6087 0.0
C943 C 0.62366 0.99187 0.57829 0.0
C944 C 0.62525 0.96813 0.60881 0.0
C945 C 0.62628 0.96813 0.66876 0.0
C946 C 0.62408 0.99278 0.51475 0.0
C947 C 0.6381 0.98132 0.48671 0.0
C948 C 0.61223 0.00806 0.48268 0.0
C949 C 0.59608 0.01838 0.5084 0.0
C950 C 0.58425 0.00152 0.53926 0.0
C951 C 0.5692 0.01135 0.56412 0.0
C952 C 0.56579 0.038 0.55822 0.0
C953 C 0.57739 0.05487 0.52734 0.0
C954 C 0.59246 0.04515 0.50242 0.0
C955 C 0.63465 0.00451 0.23717 0.0
C956 C 0.63991 0.03106 0.22657 0.0
C957 C 0.63214 0.9953 0.29322 0.0
C958 C 0.6345 0.01262 0.33928 0.0
C959 C 0.63983 0.03902 0.329 0.0
C960 C 0.6426 0.04813 0.2732 0.0
C961 C 0.63059 0.00383 0.39832 0.0
C962 C 0.61584 0.01372 0.42504 0.0
C963 C 0.64148 0.98664 0.4287 0.0
C964 C 0.65685 0.9749 0.40172 0.0
C965 C 0.67083 0.99098 0.37922 0.0
C966 C 0.68521 0.97965 0.35349 0.0
C967 C 0.6858 0.95227 0.35041 0.0
C968 C 0.67205 0.93616 0.37323 0.0
C969 C 0.65764 0.94739 0.39895 0.0
H970 H 0.69694 0.94354 0.33048 0.0
H971 H 0.55414 0.04557 0.57754 0.0
H972 H 0.88932 0.46568 0.32574 0.0
H973 H 0.88865 0.4504 0.22728 0.0
H974 H 0.87193 0.52625 0.1699 0.0
H975 H 0.87137 0.54108 0.26904 0.0
H976 H 0.85422 0.48982 0.11364 0.0
H977 H 0.91571 0.50755 0.16099 0.0
H978 H 0.94327 0.50351 0.21737 0.0
H979 H 0.94226 0.42063 0.18274 0.0
H980 H 0.91454 0.42412 0.12675 0.0
H981 H 0.90404 0.47924 0.83388 0.0
H982 H 0.90532 0.48305 0.93779 0.0
H983 H 0.85866 0.43093 0.95178 0.0
H984 H 0.85702 0.42746 0.84745 0.0
H985 H 0.90773 0.45278 0.03077 0.0
H986 H 0.83183 0.45568 0.05087 0.0
H987 H 0.80575 0.46568 0.99131 0.0
H988 H 0.83836 0.51759 0.88603 0.0
H989 H 0.86456 0.50809 0.9453 0.0
C990 C 0.88489 0.47886 0.29261 0.0
C991 C 0.87985 0.50437 0.30556 0.0
C992 C 0.88489 0.47024 0.236 0.0
C993 C 0.88035 0.48721 0.19106 0.0
C994 C 0.87539 0.51273 0.20386 0.0
C995 C 0.87518 0.52124 0.26051 0.0
C996 C 0.88094 0.47863 0.13057 0.0
C997 C 0.8659 0.48158 0.09572 0.0
C998 C 0.89625 0.46816 0.10682 0.0
C999 C 0.91296 0.46604 0.14021 0.0
C1000 C 0.9213 0.48843 0.16575 0.0
C1001 C 0.93696 0.48625 0.19758 0.0
C1002 C 0.94448 0.46182 0.20377 0.0
C1003 C 0.93639 0.43953 0.17799 0.0
C1004 C 0.92072 0.4416 0.14617 0.0
C1005 C 0.89421 0.46819 0.85899 0.0
C1006 C 0.88022 0.45344 0.83231 0.0
C1007 C 0.89502 0.47031 0.91849 0.0
C1008 C 0.88189 0.4577 0.95242 0.0
C1009 C 0.86874 0.44121 0.92624 0.0
C1010 C 0.86787 0.43918 0.86662 0.0
C1011 C 0.88103 0.46402 0.01413 0.0
C1012 C 0.89599 0.46064 0.04911 0.0
C1013 C 0.86586 0.47489 0.03767 0.0
C1014 C 0.85016 0.48092 0.0021 0.0
C1015 C 0.8334 0.46926 0.01507 0.0
C1016 C 0.81861 0.47483 0.98136 0.0
C1017 C 0.82041 0.49218 0.93478 0.0
C1018 C 0.83699 0.50407 0.92195 0.0
C1019 C 0.85182 0.49857 0.95554 0.0
H1020 H 0.80895 0.49645 0.90873 0.0
H1021 H 0.95661 0.46017 0.22844 0.0
H1022 H 0.6014 0.3503 0.29067 0.0
H1023 H 0.60333 0.36291 0.18951 0.0
H1024 H 0.65767 0.39109 0.21592 0.0
H1025 H 0.65564 0.37892 0.31727 0.0
H1026 H 0.64145 0.42516 0.15381 0.0
H1027 H 0.64585 0.33179 0.14768 0.0
H1028 H 0.63749 0.28484 0.16402 0.0
H1029 H 0.58912 0.29325 0.06872 0.0
H1030 H 0.59705 0.34036 0.05255 0.0
H1031 H 0.66793 0.42266 0.85913 0.0
H1032 H 0.66402 0.41722 0.96248 0.0
H1033 H 0.60768 0.40357 0.93662 0.0
H1034 H 0.61141 0.40924 0.83334 0.0
H1035 H 0.62414 0.36328 0.99755 0.0
H1036 H 0.6215 0.45744 0.00118 0.0
H1037 H 0.632 0.50325 0.98088 0.0
H1038 H 0.6797 0.49161 0.07762 0.0
H1039 H 0.6696 0.4456 0.09784 0.0
C1040 C 0.61377 0.3591 0.27473 0.0
C1041 C 0.62829 0.36399 0.31186 0.0
C1042 C 0.61488 0.36623 0.21691 0.0
C1043 C 0.6307 0.3778 0.19488 0.0
C1044 C 0.64529 0.38237 0.23193 0.0
C1045 C 0.64411 0.37551 0.28988 0.0
C1046 C 0.63194 0.38557 0.13351 0.0
C1047 C 0.63786 0.4115 0.11968 0.0
C1048 C 0.62694 0.36794 0.08882 0.0
C1049 C 0.62194 0.33973 0.09962 0.0
C1050 C 0.63333 0.32372 0.13082 0.0
C1051 C 0.62868 0.29705 0.13992 0.0
C1052 C 0.61274 0.2861 0.11766 0.0
C1053 C 0.60142 0.30179 0.08619 0.0
C1054 C 0.60599 0.32847 0.07702 0.0
C1055 C 0.65466 0.4191 0.87553 0.0
C1056 C 0.64 0.41621 0.83804 0.0
C1057 C 0.65245 0.41603 0.93458 0.0
C1058 C 0.63557 0.4099 0.95701 0.0
C1059 C 0.62081 0.40826 0.91999 0.0
C1060 C 0.62297 0.41163 0.86103 0.0
C1061 C 0.63358 0.40274 0.01823 0.0
C1062 C 0.62759 0.37692 0.03189 0.0
C1063 C 0.63876 0.4203 0.0626 0.0
C1064 C 0.64486 0.44798 0.05057 0.0
C1065 C 0.6343 0.46457 0.0177 0.0
C1066 C 0.64017 0.49059 0.0063 0.0
C1067 C 0.65653 0.50031 0.02783 0.0
C1068 C 0.66704 0.48405 0.06092 0.0
C1069 C 0.66124 0.458 0.07242 0.0
H1070 H 0.66104 0.52047 0.01896 0.0
H1071 H 0.6092 0.26544 0.12461 0.0
H1072 H 0.13049 0.09554 0.0836 0.0
H1073 H 0.13429 0.13976 0.12396 0.0
H1074 H 0.12061 0.10866 0.29097 0.0
H1075 H 0.11674 0.06448 0.25121 0.0
H1076 H 0.10401 0.15422 0.26595 0.0
H1077 H 0.16276 0.12284 0.26196 0.0
H1078 H 0.18869 0.10376 0.21811 0.0
H1079 H 0.19342 0.16897 0.10025 0.0
H1080 H 0.16734 0.18826 0.14288 0.0
H1081 H 0.13434 0.26626 0.42702 0.0
H1082 H 0.1316 0.22116 0.39066 0.0
H1083 H 0.14414 0.24982 0.22082 0.0
H1084 H 0.14689 0.29483 0.25652 0.0
H1085 H 0.16164 0.205 0.24973 0.0
H1086 H 0.10247 0.23573 0.2522 0.0
H1087 H 0.07649 0.25476 0.29583 0.0
H1088 H 0.0726 0.19065 0.41669 0.0
H1089 H 0.09874 0.17142 0.37426 0.0
C1090 C 0.12821 0.09812 0.12886 0.0
C1091 C 0.12339 0.07645 0.16421 0.0
C1092 C 0.13046 0.12336 0.15188 0.0
C1093 C 0.1279 0.12738 0.21054 0.0
C1094 C 0.12268 0.10594 0.24562 0.0
C1095 C 0.12053 0.08069 0.22278 0.0
C1096 C 0.13082 0.15393 0.23553 0.0
C1097 C 0.11668 0.16519 0.26312 0.0
C1098 C 0.14727 0.16835 0.23089 0.0
C1099 C 0.16298 0.15685 0.20523 0.0
C1100 C 0.16923 0.133 0.22636 0.0
C1101 C 0.18398 0.12217 0.20179 0.0
C1102 C 0.19267 0.13511 0.15632 0.0
C1103 C 0.18666 0.15895 0.13542 0.0
C1104 C 0.1719 0.16985 0.1598 0.0
C1105 C 0.13666 0.26294 0.38204 0.0
C1106 C 0.14073 0.28414 0.3446 0.0
C1107 C 0.13502 0.23719 0.36133 0.0
C1108 C 0.13752 0.23225 0.30299 0.0
C1109 C 0.14214 0.25326 0.26596 0.0
C1110 C 0.14364 0.27897 0.28646 0.0
C1111 C 0.13482 0.20531 0.27998 0.0
C1112 C 0.149 0.19398 0.25273 0.0
C1113 C 0.11841 0.19081 0.28495 0.0
C1114 C 0.10268 0.2023 0.31049 0.0
C1115 C 0.09618 0.22581 0.28842 0.0
C1116 C 0.0814 0.23661 0.31287 0.0
C1117 C 0.07293 0.22397 0.35912 0.0
C1118 C 0.07919 0.20045 0.38093 0.0
C1119 C 0.09398 0.18959 0.35668 0.0
H1120 H 0.06149 0.23235 0.37798 0.0
H1121 H 0.20408 0.1267 0.13736 0.0
H1122 H 0.36502 0.8037 0.05806 0.0
H1123 H 0.366 0.75797 0.09114 0.0
H1124 H 0.36382 0.78366 0.26638 0.0
H1125 H 0.36316 0.82927 0.23399 0.0
H1126 H 0.38862 0.74895 0.25437 0.0
H1127 H 0.32733 0.75498 0.19673 0.0
H1128 H 0.3029 0.76392 0.12949 0.0
H1129 H 0.3206 0.70518 0.01529 0.0
H1130 H 0.34528 0.69613 0.08155 0.0
H1131 H 0.36709 0.63019 0.40015 0.0
H1132 H 0.36569 0.67419 0.35817 0.0
H1133 H 0.36901 0.6416 0.18896 0.0
H1134 H 0.3702 0.59742 0.23038 0.0
H1135 H 0.34472 0.67873 0.19226 0.0
H1136 H 0.40521 0.67141 0.25082 0.0
H1137 H 0.42966 0.66212 0.31769 0.0
H1138 H 0.41373 0.72317 0.42908 0.0
H1139 H 0.38902 0.73259 0.36324 0.0
C1140 C 0.36471 0.79961 0.10364 0.0
C1141 C 0.36401 0.82017 0.14336 0.0
C1142 C 0.3652 0.77345 0.12245 0.0
C1143 C 0.36484 0.76739 0.18123 0.0
C1144 C 0.36415 0.78788 0.22084 0.0
C1145 C 0.36373 0.81397 0.20217 0.0
C1146 C 0.36548 0.73981 0.20201 0.0
C1147 C 0.3789 0.73367 0.24126 0.0
C1148 C 0.35312 0.7197 0.18357 0.0
C1149 C 0.33826 0.72508 0.1438 0.0
C1150 C 0.3261 0.74412 0.15706 0.0
C1151 C 0.31219 0.74918 0.11917 0.0
C1152 C 0.31023 0.73519 0.06807 0.0
C1153 C 0.32215 0.71604 0.05484 0.0
C1154 C 0.33609 0.71092 0.09256 0.0
C1155 C 0.36746 0.63231 0.35399 0.0
C1156 C 0.36887 0.61026 0.31871 0.0
C1157 C 0.36673 0.6575 0.33008 0.0
C1158 C 0.36753 0.66118 0.2705 0.0
C1159 C 0.36846 0.63918 0.23504 0.0
C1160 C 0.36918 0.61396 0.25889 0.0
C1161 C 0.36765 0.68805 0.24538 0.0
C1162 C 0.35446 0.69401 0.20518 0.0
C1163 C 0.38024 0.70803 0.26282 0.0
C1164 C 0.39517 0.70255 0.30232 0.0
C1165 C 0.40685 0.68273 0.28977 0.0
C1166 C 0.42076 0.67746 0.32746 0.0
C1167 C 0.42322 0.69201 0.37767 0.0
C1168 C 0.4118 0.7119 0.3902 0.0
C1169 C 0.39784 0.71724 0.35269 0.0
H1170 H 0.434 0.68789 0.4068 0.0
H1171 H 0.29945 0.73913 0.03879 0.0
H1172 H 0.8843 0.76548 0.90628 0.0
H1173 H 0.88763 0.72034 0.87234 0.0
H1174 H 0.84083 0.72625 0.76622 0.0
H1175 H 0.83774 0.7715 0.79924 0.0
H1176 H 0.84408 0.67583 0.82581 0.0
H1177 H 0.87616 0.73852 0.70376 0.0
H1178 H 0.89762 0.77574 0.68573 0.0
H1179 H 0.93944 0.7315 0.75842 0.0
H1180 H 0.91813 0.69416 0.77785 0.0
H1181 H 0.87986 0.59146 0.58379 0.0
H1182 H 0.8765 0.63451 0.62737 0.0
H1183 H 0.87762 0.59871 0.79538 0.0
H1184 H 0.88084 0.55568 0.75252 0.0
H1185 H 0.89667 0.6643 0.70446 0.0
H1186 H 0.84728 0.62774 0.87713 0.0
H1187 H 0.82525 0.59098 0.89333 0.0
H1188 H 0.81656 0.58396 0.71197 0.0
H1189 H 0.83838 0.62085 0.69475 0.0
C1190 C 0.87455 0.75679 0.87675 0.0
C1191 C 0.86073 0.77159 0.85536 0.0
C1192 C 0.87647 0.73119 0.85731 0.0
C1193 C 0.86449 0.72012 0.81675 0.0
C1194 C 0.85014 0.73446 0.79774 0.0
C1195 C 0.84838 0.76019 0.81648 0.0
C1196 C 0.86774 0.69455 0.79035 0.0
C1197 C 0.85561 0.67321 0.79955 0.0
C1198 C 0.88264 0.69142 0.75537 0.0
C1199 C 0.89552 0.71366 0.7428 0.0
C1200 C 0.8899 0.73681 0.71633 0.0
C1201 C 0.90204 0.75792 0.70579 0.0
C1202 C 0.91988 0.75601 0.72105 0.0
C1203 C 0.92562 0.73296 0.74671 0.0
C1204 C 0.91352 0.71181 0.75747 0.0
C1205 C 0.87953 0.59276 0.63002 0.0
C1206 C 0.88046 0.57006 0.6646 0.0
C1207 C 0.87766 0.61738 0.65483 0.0
C1208 C 0.87658 0.61969 0.7145 0.0
C1209 C 0.87817 0.59727 0.74918 0.0
C1210 C 0.88005 0.57268 0.72452 0.0
C1211 C 0.87313 0.64536 0.74047 0.0
C1212 C 0.8852 0.66679 0.73108 0.0
C1213 C 0.85807 0.64863 0.77484 0.0
C1214 C 0.84457 0.6269 0.7847 0.0
C1215 C 0.84059 0.61843 0.84075 0.0
C1216 C 0.82816 0.59756 0.8501 0.0
C1217 C 0.81955 0.5851 0.80371 0.0
C1218 C 0.82328 0.59357 0.74786 0.0
C1219 C 0.8357 0.61444 0.73828 0.0
H1220 H 0.80996 0.5689 0.81103 0.0
H1221 H 0.92926 0.77238 0.71287 0.0
H1222 H 0.62315 0.09896 0.80167 0.0
H1223 H 0.62358 0.1442 0.76703 0.0
H1224 H 0.65026 0.17048 0.92216 0.0
H1225 H 0.64943 0.1249 0.95825 0.0
H1226 H 0.62553 0.20396 0.88982 0.0
H1227 H 0.67361 0.1646 0.79924 0.0
H1228 H 0.68853 0.13063 0.74572 0.0
H1229 H 0.65438 0.14275 0.60063 0.0
H1230 H 0.63908 0.17655 0.65356 0.0
H1231 H 0.64548 0.32932 0.75784 0.0
H1232 H 0.64757 0.287 0.8069 0.0
H1233 H 0.62282 0.24765 0.66141 0.0
H1234 H 0.62137 0.28987 0.6111 0.0
H1235 H 0.64999 0.22226 0.69645 0.0
H1236 H 0.60067 0.26042 0.79355 0.0
H1237 H 0.58679 0.29469 0.84939 0.0
H1238 H 0.62508 0.28577 0.98462 0.0
H1239 H 0.63927 0.25161 0.92936 0.0
C1240 C 0.62912 0.1143 0.82862 0.0
C1241 C 0.63647 0.1083 0.88245 0.0
C1242 C 0.62939 0.14018 0.80863 0.0
C1243 C 0.63733 0.16063 0.8414 0.0
C1244 C 0.64419 0.15493 0.89602 0.0
C1245 C 0.64373 0.12892 0.91649 0.0
C1246 C 0.63858 0.18778 0.81758 0.0
C1247 C 0.63112 0.20811 0.84793 0.0
C1248 C 0.64582 0.19313 0.76283 0.0
C1249 C 0.65513 0.17301 0.73054 0.0
C1250 C 0.66921 0.15992 0.75604 0.0
C1251 C 0.67774 0.1407 0.72579 0.0
C1252 C 0.67238 0.13451 0.66985 0.0
C1253 C 0.65851 0.14757 0.64397 0.0
C1254 C 0.64992 0.16679 0.67405 0.0
C1255 C 0.64042 0.31165 0.73635 0.0
C1256 C 0.63322 0.31291 0.6806 0.0
C1257 C 0.64154 0.28748 0.76463 0.0
C1258 C 0.63508 0.26416 0.7383 0.0
C1259 C 0.62787 0.2654 0.68264 0.0
C1260 C 0.62702 0.28952 0.65393 0.0
C1261 C 0.63632 0.23829 0.76762 0.0
C1262 C 0.64443 0.2182 0.73843 0.0
C1263 C 0.62984 0.23333 0.82363 0.0
C1264 C 0.62113 0.25363 0.85706 0.0
C1265 C 0.60618 0.26587 0.83506 0.0
C1266 C 0.59825 0.28525 0.86665 0.0
C1267 C 0.60507 0.29244 0.92047 0.0
C1268 C 0.61981 0.28019 0.94293 0.0
C1269 C 0.62778 0.26079 0.91153 0.0
H1270 H 0.59893 0.30748 0.94481 0.0
H1271 H 0.679 0.11961 0.64652 0.0
loop_
_geom_bond_atom_site_label_1
_geom_bond_atom_site_label_2
_geom_bond_distance
_geom_bond_site_symmetry_2
_ccdc_geom_bond_type
Co0 O3 1.970 1_545 S
Co0 N17 1.989 1_545 S
Co0 O25 1.967 . S
Co0 O32 1.920 . S
Co1 O4 1.966 . S
Co1 N10 2.022 1_554 S
Co1 N18 1.993 1_545 S
Co1 O26 1.941 . S
C2 O3 1.258 . S
C2 O4 1.263 1_565 S
O3 Co0 1.970 1_565 S
O3 C2 1.258 . S
O4 Co1 1.966 . S
O4 C2 1.263 1_545 S
C5 O6 1.235 . S
C5 O32 1.289 1_565 S
O6 C5 1.235 . S
C7 C9 1.400 . S
C7 N10 1.351 . S
C7 C12 1.501 1_545 S
C8 C9 1.387 . S
C8 N11 1.341 . S
C9 C7 1.400 . S
C9 C8 1.387 . S
N10 Co1 2.022 1_556 S
N10 C7 1.351 . S
N10 N11 1.365 . S
N11 C8 1.341 . S
N11 N10 1.365 . S
N11 H31 0.862 . S
C12 C7 1.501 1_565 S
C12 H13 0.961 . S
C12 H14 0.961 . S
C12 H15 0.960 . S
H13 C12 0.961 . S
H14 C12 0.961 . S
H15 C12 0.960 . S
C16 N17 1.342 . S
C16 C20 1.401 . S
C16 C21 1.499 . S
N17 Co0 1.989 1_565 S
N17 C16 1.342 . S
N17 N18 1.388 . S
N18 Co1 1.993 1_565 S
N18 N17 1.388 . S
N18 C19 1.346 . S
C19 N18 1.346 . S
C19 C20 1.396 . S
C19 C29 1.510 1_554 S
C20 C16 1.401 . S
C20 C19 1.396 . S
C21 C16 1.499 . S
C21 H22 0.959 . S
C21 H23 0.960 . S
C21 H24 0.961 . S
H22 C21 0.959 . S
H23 C21 0.960 . S
H24 C21 0.961 . S
O25 Co0 1.967 . S
O25 C33 1.258 . S
O26 Co1 1.941 . S
O26 C33 1.266 . S
H27 C29 0.959 . S
H28 C29 0.961 . S
C29 C19 1.510 1_556 S
C29 H27 0.959 . S
C29 H28 0.961 . S
C29 H30 0.960 . S
H30 C29 0.960 . S
H31 N11 0.862 . S
O32 Co0 1.920 . S
O32 C5 1.289 1_545 S
C33 O25 1.258 . S
C33 O26 1.266 . S
Co34 O37 1.970 . S
Co34 N51 1.989 . S
Co34 O59 1.967 . S
Co34 O66 1.920 . S
Co35 O38 1.966 . S
Co35 N44 2.022 1_554 S
Co35 N52 1.993 . S
Co35 O60 1.941 . S
C36 O37 1.258 . S
C36 O38 1.263 . S
O37 Co34 1.970 . S
O37 C36 1.258 . S
O38 Co35 1.966 . S
O38 C36 1.263 . S
C39 O40 1.235 . S
C39 O66 1.289 . S
O40 C39 1.235 . S
C41 C43 1.400 . S
C41 N44 1.351 . S
C41 C46 1.501 . S
C42 C43 1.387 . S
C42 N45 1.341 . S
C43 C41 1.400 . S
C43 C42 1.387 . S
N44 Co35 2.022 1_556 S
N44 C41 1.351 . S
N44 N45 1.365 . S
N45 C42 1.341 . S
N45 N44 1.365 . S
N45 H65 0.862 . S
C46 C41 1.501 . S
C46 H47 0.961 . S
C46 H48 0.961 . S
C46 H49 0.960 . S
H47 C46 0.961 . S
H48 C46 0.961 . S
H49 C46 0.960 . S
C50 N51 1.342 . S
C50 C54 1.401 . S
C50 C55 1.499 . S
N51 Co34 1.989 . S
N51 C50 1.342 . S
N51 N52 1.388 . S
N52 Co35 1.993 . S
N52 N51 1.388 . S
N52 C53 1.346 . S
C53 N52 1.346 . S
C53 C54 1.396 . S
C53 C63 1.510 1_554 S
C54 C50 1.401 . S
C54 C53 1.396 . S
C55 C50 1.499 . S
C55 H56 0.959 . S
C55 H57 0.960 . S
C55 H58 0.961 . S
H56 C55 0.959 . S
H57 C55 0.960 . S
H58 C55 0.961 . S
O59 Co34 1.967 . S
O59 C67 1.258 . S
O60 Co35 1.941 . S
O60 C67 1.266 . S
H61 C63 0.959 . S
H62 C63 0.961 . S
C63 C53 1.510 1_556 S
C63 H61 0.959 . S
C63 H62 0.961 . S
C63 H64 0.960 . S
H64 C63 0.960 . S
H65 N45 0.862 . S
O66 Co34 1.920 . S
O66 C39 1.289 . S
C67 O59 1.258 . S
C67 O60 1.266 . S
Co68 O71 1.970 . S
Co68 N85 1.989 . S
Co68 O93 1.967 . S
Co68 O100 1.920 . S
Co69 O72 1.966 . S
Co69 N78 2.022 . S
Co69 N86 1.993 . S
Co69 O94 1.941 . S
C70 O71 1.258 . S
C70 O72 1.263 . S
O71 Co68 1.970 . S
O71 C70 1.258 . S
O72 Co69 1.966 . S
O72 C70 1.263 . S
C73 O74 1.235 . S
C73 O100 1.289 . S
O74 C73 1.235 . S
C75 C77 1.400 . S
C75 N78 1.351 . S
C75 C80 1.501 . S
C76 C77 1.387 . S
C76 N79 1.341 . S
C77 C75 1.400 . S
C77 C76 1.387 . S
N78 Co69 2.022 . S
N78 C75 1.351 . S
N78 N79 1.365 . S
N79 C76 1.341 . S
N79 N78 1.365 . S
N79 H99 0.862 . S
C80 C75 1.501 . S
C80 H81 0.961 . S
C80 H82 0.961 . S
C80 H83 0.960 . S
H81 C80 0.961 . S
H82 C80 0.961 . S
H83 C80 0.960 . S
C84 N85 1.342 . S
C84 C88 1.401 . S
C84 C89 1.499 . S
N85 Co68 1.989 . S
N85 C84 1.342 . S
N85 N86 1.388 . S
N86 Co69 1.993 . S
N86 N85 1.388 . S
N86 C87 1.346 . S
C87 N86 1.346 . S
C87 C88 1.396 . S
C87 C97 1.510 . S
C88 C84 1.401 . S
C88 C87 1.396 . S
C89 C84 1.499 . S
C89 H90 0.959 . S
C89 H91 0.960 . S
C89 H92 0.961 . S
H90 C89 0.959 . S
H91 C89 0.960 . S
H92 C89 0.961 . S
O93 Co68 1.967 . S
O93 C101 1.258 . S
O94 Co69 1.941 . S
O94 C101 1.266 . S
H95 C97 0.959 . S
H96 C97 0.961 . S
C97 C87 1.510 . S
C97 H95 0.959 . S
C97 H96 0.961 . S
C97 H98 0.960 . S
H98 C97 0.960 . S
H99 N79 0.862 . S
O100 Co68 1.920 . S
O100 C73 1.289 . S
C101 O93 1.258 . S
C101 O94 1.266 . S
Co102 O105 1.970 . S
Co102 N119 1.989 . S
Co102 O127 1.967 . S
Co102 O134 1.920 . S
Co103 O106 1.966 . S
Co103 N112 2.022 . S
Co103 N120 1.993 . S
Co103 O128 1.941 . S
C104 O105 1.258 . S
C104 O106 1.263 . S
O105 Co102 1.970 . S
O105 C104 1.258 . S
O106 Co103 1.966 . S
O106 C104 1.263 . S
C107 O108 1.235 . S
C107 O134 1.289 . S
O108 C107 1.235 . S
C109 C111 1.400 . S
C109 N112 1.351 . S
C109 C114 1.501 . S
C110 C111 1.387 . S
C110 N113 1.341 . S
C111 C109 1.400 . S
C111 C110 1.387 . S
N112 Co103 2.022 . S
N112 C109 1.351 . S
N112 N113 1.365 . S
N113 C110 1.341 . S
N113 N112 1.365 . S
N113 H133 0.862 . S
C114 C109 1.501 . S
C114 H115 0.961 . S
C114 H116 0.961 . S
C114 H117 0.960 . S
H115 C114 0.961 . S
H116 C114 0.961 . S
H117 C114 0.960 . S
C118 N119 1.342 . S
C118 C122 1.401 . S
C118 C123 1.499 . S
N119 Co102 1.989 . S
N119 C118 1.342 . S
N119 N120 1.388 . S
N120 Co103 1.993 . S
N120 N119 1.388 . S
N120 C121 1.346 . S
C121 N120 1.346 . S
C121 C122 1.396 . S
C121 C131 1.510 . S
C122 C118 1.401 . S
C122 C121 1.396 . S
C123 C118 1.499 . S
C123 H124 0.959 . S
C123 H125 0.960 . S
C123 H126 0.961 . S
H124 C123 0.959 . S
H125 C123 0.960 . S
H126 C123 0.961 . S
O127 Co102 1.967 . S
O127 C135 1.258 . S
O128 Co103 1.941 . S
O128 C135 1.266 . S
H129 C131 0.959 . S
H130 C131 0.961 . S
C131 C121 1.510 . S
C131 H129 0.959 . S
C131 H130 0.961 . S
C131 H132 0.960 . S
H132 C131 0.960 . S
H133 N113 0.862 . S
O134 Co102 1.920 . S
O134 C107 1.289 . S
C135 O127 1.258 . S
C135 O128 1.266 . S
Co136 O139 1.970 . S
Co136 N153 1.989 . S
Co136 O161 1.967 . S
Co136 O168 1.920 1_556 S
Co137 O140 1.966 . S
Co137 N146 2.022 . S
Co137 N154 1.993 . S
Co137 O162 1.941 . S
C138 O139 1.258 . S
C138 O140 1.263 . S
O139 Co136 1.970 . S
O139 C138 1.258 . S
O140 Co137 1.966 . S
O140 C138 1.263 . S
C141 O142 1.235 . S
C141 O168 1.289 . S
O142 C141 1.235 . S
C143 C145 1.400 . S
C143 N146 1.351 . S
C143 C148 1.501 . S
C144 C145 1.387 . S
C144 N147 1.341 . S
C145 C143 1.400 . S
C145 C144 1.387 . S
N146 Co137 2.022 . S
N146 C143 1.351 . S
N146 N147 1.365 . S
N147 C144 1.341 . S
N147 N146 1.365 . S
N147 H167 0.862 . S
C148 C143 1.501 . S
C148 H149 0.961 . S
C148 H150 0.961 . S
C148 H151 0.960 . S
H149 C148 0.961 . S
H150 C148 0.961 . S
H151 C148 0.960 . S
C152 N153 1.342 . S
C152 C156 1.401 . S
C152 C157 1.499 . S
N153 Co136 1.989 . S
N153 C152 1.342 . S
N153 N154 1.388 . S
N154 Co137 1.993 . S
N154 N153 1.388 . S
N154 C155 1.346 . S
C155 N154 1.346 . S
C155 C156 1.396 . S
C155 C165 1.510 . S
C156 C152 1.401 . S
C156 C155 1.396 . S
C157 C152 1.499 . S
C157 H158 0.959 . S
C157 H159 0.960 . S
C157 H160 0.961 . S
H158 C157 0.959 . S
H159 C157 0.960 . S
H160 C157 0.961 . S
O161 Co136 1.967 . S
O161 C169 1.258 . S
O162 Co137 1.941 . S
O162 C169 1.266 . S
H163 C165 0.959 . S
H164 C165 0.961 . S
C165 C155 1.510 . S
C165 H163 0.959 . S
C165 H164 0.961 . S
C165 H166 0.960 . S
H166 C165 0.960 . S
H167 N147 0.862 . S
O168 Co136 1.920 1_554 S
O168 C141 1.289 . S
C169 O161 1.258 . S
C169 O162 1.266 . S
Co170 O173 1.970 . S
Co170 N187 1.989 . S
Co170 O195 1.967 . S
Co170 O202 1.920 . S
Co171 O174 1.966 . S
Co171 N180 2.022 1_556 S
Co171 N188 1.993 . S
Co171 O196 1.941 . S
C172 O173 1.258 . S
C172 O174 1.263 . S
O173 Co170 1.970 . S
O173 C172 1.258 . S
O174 Co171 1.966 . S
O174 C172 1.263 . S
C175 O176 1.258 . S
C175 O202 1.289 . S
O176 C175 1.258 . S
C177 C179 1.400 . S
C177 N180 1.351 . S
C177 C182 1.501 . S
C178 C179 1.387 . S
C178 N181 1.341 . S
C179 C177 1.400 . S
C179 C178 1.387 . S
N180 Co171 2.022 1_554 S
N180 C177 1.351 . S
N180 N181 1.365 . S
N181 C178 1.341 . S
N181 N180 1.365 . S
N181 H201 0.862 . S
C182 C177 1.501 . S
C182 H183 0.961 . S
C182 H184 0.961 . S
C182 H185 0.960 . S
H183 C182 0.961 . S
H184 C182 0.961 . S
H185 C182 0.960 . S
C186 N187 1.342 . S
C186 C190 1.401 . S
C186 C191 1.499 . S
N187 Co170 1.989 . S
N187 C186 1.342 . S
N187 N188 1.388 . S
N188 Co171 1.993 . S
N188 N187 1.388 . S
N188 C189 1.346 . S
C189 N188 1.346 . S
C189 C190 1.396 . S
C189 C199 1.510 1_556 S
C190 C186 1.401 . S
C190 C189 1.396 . S
C191 C186 1.499 . S
C191 H192 0.959 . S
C191 H193 0.960 . S
C191 H194 0.961 . S
H192 C191 0.959 . S
H193 C191 0.960 . S
H194 C191 0.961 . S
O195 Co170 1.967 . S
O195 C203 1.258 . S
O196 Co171 1.941 . S
O196 C203 1.266 . S
H197 C199 0.959 . S
H198 C199 0.961 . S
C199 C189 1.510 1_554 S
C199 H197 0.959 . S
C199 H198 0.961 . S
C199 H200 0.960 . S
H200 C199 0.960 . S
H201 N181 0.862 . S
O202 Co170 1.920 . S
O202 C175 1.289 . S
C203 O195 1.258 . S
C203 O196 1.266 . S
Co204 O207 1.970 . S
Co204 N221 1.989 . S
Co204 O229 1.967 . S
Co204 O236 1.920 . S
Co205 O208 1.966 . S
Co205 N214 2.022 . S
Co205 N222 1.993 . S
Co205 O230 1.941 . S
C206 O207 1.258 . S
C206 O208 1.263 . S
O207 Co204 1.970 . S
O207 C206 1.258 . S
O208 Co205 1.966 . S
O208 C206 1.263 . S
C209 O210 1.235 . S
C209 O236 1.289 . S
O210 C209 1.235 . S
C211 C213 1.400 . S
C211 N214 1.351 . S
C211 C216 1.501 . S
C212 C213 1.387 . S
C212 N215 1.341 . S
C213 C211 1.400 . S
C213 C212 1.387 . S
N214 Co205 2.022 . S
N214 C211 1.351 . S
N214 N215 1.365 . S
N215 C212 1.341 . S
N215 N214 1.365 . S
N215 H235 0.862 . S
C216 C211 1.501 . S
C216 H217 0.961 . S
C216 H218 0.961 . S
C216 H219 0.960 . S
H217 C216 0.961 . S
H218 C216 0.961 . S
H219 C216 0.960 . S
C220 N221 1.342 . S
C220 C224 1.401 . S
C220 C225 1.499 . S
N221 Co204 1.989 . S
N221 C220 1.342 . S
N221 N222 1.388 . S
N222 Co205 1.993 . S
N222 N221 1.388 . S
N222 C223 1.346 . S
C223 N222 1.346 . S
C223 C224 1.396 . S
C223 C233 1.510 . S
C224 C220 1.401 . S
C224 C223 1.396 . S
C225 C220 1.499 . S
C225 H226 0.959 . S
C225 H227 0.960 . S
C225 H228 0.961 . S
H226 C225 0.959 . S
H227 C225 0.960 . S
H228 C225 0.961 . S
O229 Co204 1.967 . S
O229 C237 1.258 . S
O230 Co205 1.941 . S
O230 C237 1.266 . S
H231 C233 0.959 . S
H232 C233 0.961 . S
C233 C223 1.510 . S
C233 H231 0.959 . S
C233 H232 0.961 . S
C233 H234 0.960 . S
H234 C233 0.960 . S
H235 N215 0.862 . S
O236 Co204 1.920 . S
O236 C209 1.289 . S
C237 O229 1.258 . S
C237 O230 1.266 . S
Co238 O241 1.970 . S
Co238 N255 1.989 . S
Co238 O263 1.967 . S
Co238 O270 1.920 . S
Co239 O242 1.966 . S
Co239 N248 2.022 . S
Co239 N256 1.993 . S
Co239 O264 1.941 . S
C240 O241 1.258 . S
C240 O242 1.263 . S
O241 Co238 1.970 . S
O241 C240 1.258 . S
O242 Co239 1.966 . S
O242 C240 1.263 . S
C243 O244 1.235 . S
C243 O270 1.289 . S
O244 C243 1.235 . S
C245 C247 1.400 . S
C245 N248 1.351 . S
C245 C250 1.501 . S
C246 C247 1.387 . S
C246 N249 1.341 . S
C247 C245 1.400 . S
C247 C246 1.387 . S
N248 Co239 2.022 . S
N248 C245 1.351 . S
N248 N249 1.365 . S
N249 C246 1.341 . S
N249 N248 1.365 . S
N249 H269 0.862 . S
C250 C245 1.501 . S
C250 H251 0.961 . S
C250 H252 0.961 . S
C250 H253 0.960 . S
H251 C250 0.961 . S
H252 C250 0.961 . S
H253 C250 0.960 . S
C254 N255 1.342 . S
C254 C258 1.401 . S
C254 C259 1.499 . S
N255 Co238 1.989 . S
N255 C254 1.342 . S
N255 N256 1.388 . S
N256 Co239 1.993 . S
N256 N255 1.388 . S
N256 C257 1.346 . S
C257 N256 1.346 . S
C257 C258 1.396 . S
C257 C267 1.510 . S
C258 C254 1.401 . S
C258 C257 1.396 . S
C259 C254 1.499 . S
C259 H260 0.959 . S
C259 H261 0.960 . S
C259 H262 0.961 . S
H260 C259 0.959 . S
H261 C259 0.960 . S
H262 C259 0.961 . S
O263 Co238 1.967 . S
O263 C271 1.258 . S
O264 Co239 1.941 . S
O264 C271 1.266 . S
H265 C267 0.959 . S
H266 C267 0.961 . S
C267 C257 1.510 . S
C267 H265 0.959 . S
C267 H266 0.961 . S
C267 H268 0.960 . S
H268 C267 0.960 . S
H269 N249 0.862 . S
O270 Co238 1.920 . S
O270 C243 1.289 . S
C271 O263 1.258 . S
C271 O264 1.266 . S
H272 C290 0.951 . S
H273 C292 0.951 . S
H274 C294 0.950 . S
H275 C295 0.950 . S
H276 C297 0.950 . S
H277 C300 0.950 1_554 S
H278 C301 0.950 . S
H279 C303 0.950 . S
H280 C304 0.950 . S
H281 C305 0.941 1_545 S
H282 C307 0.951 1_545 S
H283 C309 0.950 . S
H284 C310 0.950 . S
H285 C312 0.950 . S
H286 C315 0.950 . S
H287 C316 0.950 . S
H288 C318 0.950 . S
H289 C319 0.950 . S
C290 H272 0.951 . S
C290 C291 1.366 . S
C290 C292 1.388 . S
C291 C290 1.366 . S
C291 C295 1.385 . S
C292 H273 0.951 . S
C292 C290 1.388 . S
C292 C293 1.366 . S
C293 C292 1.366 . S
C293 C294 1.414 . S
C293 C296 1.499 . S
C294 H274 0.950 . S
C294 C293 1.414 . S
C294 C295 1.374 . S
C295 H275 0.950 . S
C295 C291 1.385 . S
C295 C294 1.374 . S
C296 C293 1.499 . S
C296 C297 1.373 . S
C296 C298 1.389 . S
C297 H276 0.950 . S
C297 C296 1.373 . S
C297 C313 1.377 . S
C298 C296 1.389 . S
C298 C299 1.524 . S
C298 C312 1.377 . S
C299 C298 1.524 . S
C299 C300 1.397 1_554 S
C299 C304 1.363 1_554 S
C300 H277 0.950 1_556 S
C300 C299 1.397 1_556 S
C300 C301 1.334 . S
C301 H278 0.950 . S
C301 C300 1.334 . S
C301 C302 1.287 . S
C302 C301 1.287 . S
C302 C303 1.524 . S
C302 H321 0.913 . S
C303 H279 0.950 . S
C303 C302 1.524 . S
C303 C304 1.415 . S
C304 H280 0.950 . S
C304 C299 1.363 1_556 S
C304 C303 1.415 . S
C305 H281 0.941 1_565 S
C305 C306 1.372 . S
C305 C307 1.392 . S
C306 C305 1.372 . S
C306 C310 1.385 . S
C307 H282 0.951 1_565 S
C307 C305 1.392 . S
C307 C308 1.366 . S
C308 C307 1.366 . S
C308 C309 1.414 . S
C308 C311 1.499 . S
C309 H283 0.950 . S
C309 C308 1.414 . S
C309 C310 1.374 . S
C310 H284 0.950 . S
C310 C306 1.385 . S
C310 C309 1.374 . S
C311 C308 1.499 . S
C311 C312 1.373 . S
C311 C313 1.389 . S
C312 H285 0.950 . S
C312 C298 1.377 . S
C312 C311 1.373 . S
C313 C297 1.377 . S
C313 C311 1.389 . S
C313 C314 1.524 . S
C314 C313 1.524 . S
C314 C315 1.397 . S
C314 C319 1.363 . S
C315 H286 0.950 . S
C315 C314 1.397 . S
C315 C316 1.334 . S
C316 H287 0.950 . S
C316 C315 1.334 . S
C316 C317 1.287 . S
C317 C316 1.287 . S
C317 C318 1.524 . S
C317 H320 0.999 . S
C318 H288 0.950 . S
C318 C317 1.524 . S
C318 C319 1.415 . S
C319 H289 0.950 . S
C319 C314 1.363 . S
C319 C318 1.415 . S
H320 C317 0.999 . S
H321 C302 0.913 . S
H322 C340 0.951 . S
H323 C342 0.951 . S
H324 C344 0.950 . S
H325 C345 0.950 . S
H326 C347 0.950 . S
H327 C350 0.950 . S
H328 C351 0.950 . S
H329 C353 0.950 . S
H330 C354 0.950 . S
H331 C355 0.951 . S
H332 C357 0.951 . S
H333 C359 0.950 . S
H334 C360 0.950 . S
H335 C362 0.950 . S
H336 C365 0.950 . S
H337 C366 0.950 . S
H338 C368 0.950 . S
H339 C369 0.950 . S
C340 H322 0.951 . S
C340 C341 1.366 . S
C340 C342 1.388 . S
C341 C340 1.366 . S
C341 C345 1.385 . S
C342 H323 0.951 . S
C342 C340 1.388 . S
C342 C343 1.366 . S
C343 C342 1.366 . S
C343 C344 1.414 . S
C343 C346 1.499 . S
C344 H324 0.950 . S
C344 C343 1.414 . S
C344 C345 1.374 . S
C345 H325 0.950 . S
C345 C341 1.385 . S
C345 C344 1.374 . S
C346 C343 1.499 . S
C346 C347 1.373 . S
C346 C348 1.389 . S
C347 H326 0.950 . S
C347 C346 1.373 . S
C347 C363 1.377 . S
C348 C346 1.389 . S
C348 C349 1.524 . S
C348 C362 1.377 . S
C349 C348 1.524 . S
C349 C350 1.397 . S
C349 C354 1.363 . S
C350 H327 0.950 . S
C350 C349 1.397 . S
C350 C351 1.334 . S
C351 H328 0.950 . S
C351 C350 1.334 . S
C351 C352 1.287 . S
C352 C351 1.287 . S
C352 C353 1.524 . S
C352 H371 0.913 . S
C353 H329 0.950 . S
C353 C352 1.524 . S
C353 C354 1.415 . S
C354 H330 0.950 . S
C354 C349 1.363 . S
C354 C353 1.415 . S
C355 H331 0.951 . S
C355 C356 1.366 . S
C355 C357 1.388 . S
C356 C355 1.366 . S
C356 C360 1.385 . S
C357 H332 0.951 . S
C357 C355 1.388 . S
C357 C358 1.366 . S
C358 C357 1.366 . S
C358 C359 1.414 . S
C358 C361 1.499 . S
C359 H333 0.950 . S
C359 C358 1.414 . S
C359 C360 1.374 . S
C360 H334 0.950 . S
C360 C356 1.385 . S
C360 C359 1.374 . S
C361 C358 1.499 . S
C361 C362 1.373 . S
C361 C363 1.389 . S
C362 H335 0.950 . S
C362 C348 1.377 . S
C362 C361 1.373 . S
C363 C347 1.377 . S
C363 C361 1.389 . S
C363 C364 1.524 . S
C364 C363 1.524 . S
C364 C365 1.397 . S
C364 C369 1.363 . S
C365 H336 0.950 . S
C365 C364 1.397 . S
C365 C366 1.334 . S
C366 H337 0.950 . S
C366 C365 1.334 . S
C366 C367 1.287 . S
C367 C366 1.287 . S
C367 C368 1.524 . S
C367 H370 0.999 . S
C368 H338 0.950 . S
C368 C367 1.524 . S
C368 C369 1.415 . S
C369 H339 0.950 . S
C369 C364 1.363 . S
C369 C368 1.415 . S
H370 C367 0.999 . S
H371 C352 0.913 . S
H372 C390 0.951 . S
H373 C392 0.951 . S
H374 C394 0.950 . S
H375 C395 0.950 . S
H376 C397 0.950 . S
H377 C400 0.950 1_556 S
H378 C401 0.950 . S
H379 C403 0.950 . S
H380 C404 0.950 . S
H381 C405 0.951 . S
H382 C407 0.951 . S
H383 C409 0.950 . S
H384 C410 0.950 . S
H385 C412 0.950 . S
H386 C415 0.950 . S
H387 C416 0.950 . S
H388 C418 0.950 . S
H389 C419 0.950 . S
C390 H372 0.951 . S
C390 C391 1.366 1_565 S
C390 C392 1.388 . S
C391 C390 1.366 1_545 S
C391 C395 1.385 . S
C392 H373 0.951 . S
C392 C390 1.388 . S
C392 C393 1.366 . S
C393 C392 1.366 . S
C393 C394 1.414 1_565 S
C393 C396 1.499 . S
C394 H374 0.950 . S
C394 C393 1.414 1_545 S
C394 C395 1.374 . S
C395 H375 0.950 . S
C395 C391 1.385 . S
C395 C394 1.374 . S
C396 C393 1.499 . S
C396 C397 1.373 . S
C396 C398 1.389 . S
C397 H376 0.950 . S
C397 C396 1.373 . S
C397 C413 1.377 . S
C398 C396 1.389 . S
C398 C399 1.524 1_556 S
C398 C412 1.377 . S
C399 C398 1.524 1_554 S
C399 C400 1.397 1_565 S
C399 C404 1.363 . S
C400 H377 0.950 1_554 S
C400 C399 1.397 1_545 S
C400 C401 1.334 . S
C401 H378 0.950 . S
C401 C400 1.334 . S
C401 C402 1.287 . S
C402 C401 1.287 . S
C402 C403 1.524 1_545 S
C402 H421 0.913 . S
C403 H379 0.950 . S
C403 C402 1.524 1_565 S
C403 C404 1.415 . S
C404 H380 0.950 . S
C404 C399 1.363 . S
C404 C403 1.415 . S
C405 H381 0.951 . S
C405 C406 1.366 . S
C405 C407 1.388 . S
C406 C405 1.366 . S
C406 C410 1.385 . S
C407 H382 0.951 . S
C407 C405 1.388 . S
C407 C408 1.366 . S
C408 C407 1.366 . S
C408 C409 1.414 . S
C408 C411 1.499 . S
C409 H383 0.950 . S
C409 C408 1.414 . S
C409 C410 1.374 . S
C410 H384 0.950 . S
C410 C406 1.385 . S
C410 C409 1.374 . S
C411 C408 1.499 . S
C411 C412 1.373 . S
C411 C413 1.389 . S
C412 H385 0.950 . S
C412 C398 1.377 . S
C412 C411 1.373 . S
C413 C397 1.377 . S
C413 C411 1.389 . S
C413 C414 1.524 . S
C414 C413 1.524 . S
C414 C415 1.397 . S
C414 C419 1.363 . S
C415 H386 0.950 . S
C415 C414 1.397 . S
C415 C416 1.334 . S
C416 H387 0.950 . S
C416 C415 1.334 . S
C416 C417 1.287 . S
C417 C416 1.287 . S
C417 C418 1.524 . S
C417 H420 0.999 . S
C418 H388 0.950 . S
C418 C417 1.524 . S
C418 C419 1.415 . S
C419 H389 0.950 . S
C419 C414 1.363 . S
C419 C418 1.415 . S
H420 C417 0.999 . S
H421 C402 0.913 . S
H422 C440 0.951 . S
H423 C442 0.951 . S
H424 C444 0.950 . S
H425 C445 0.950 . S
H426 C447 0.950 . S
H427 C450 0.950 . S
H428 C451 0.950 . S
H429 C453 0.950 . S
H430 C454 0.950 . S
H431 C455 0.951 . S
H432 C457 0.951 . S
H433 C459 0.950 . S
H434 C460 0.950 . S
H435 C462 0.950 . S
H436 C465 0.950 . S
H437 C466 0.950 . S
H438 C468 0.950 . S
H439 C469 0.950 . S
C440 H422 0.951 . S
C440 C441 1.366 . S
C440 C442 1.388 . S
C441 C440 1.366 . S
C441 C445 1.385 . S
C442 H423 0.951 . S
C442 C440 1.388 . S
C442 C443 1.366 . S
C443 C442 1.366 . S
C443 C444 1.414 . S
C443 C446 1.499 . S
C444 H424 0.950 . S
C444 C443 1.414 . S
C444 C445 1.374 . S
C445 H425 0.950 . S
C445 C441 1.385 . S
C445 C444 1.374 . S
C446 C443 1.499 . S
C446 C447 1.373 . S
C446 C448 1.389 . S
C447 H426 0.950 . S
C447 C446 1.373 . S
C447 C463 1.377 . S
C448 C446 1.389 . S
C448 C449 1.524 . S
C448 C462 1.377 . S
C449 C448 1.524 . S
C449 C450 1.397 . S
C449 C454 1.363 . S
C450 H427 0.950 . S
C450 C449 1.397 . S
C450 C451 1.334 . S
C451 H428 0.950 . S
C451 C450 1.334 . S
C451 C452 1.287 . S
C452 C451 1.287 . S
C452 C453 1.524 . S
C452 H471 0.913 . S
C453 H429 0.950 . S
C453 C452 1.524 . S
C453 C454 1.415 . S
C454 H430 0.950 . S
C454 C449 1.363 . S
C454 C453 1.415 . S
C455 H431 0.951 . S
C455 C456 1.366 . S
C455 C457 1.388 . S
C456 C455 1.366 . S
C456 C460 1.385 . S
C457 H432 0.951 . S
C457 C455 1.388 . S
C457 C458 1.366 . S
C458 C457 1.366 . S
C458 C459 1.414 . S
C458 C461 1.499 . S
C459 H433 0.950 . S
C459 C458 1.414 . S
C459 C460 1.374 . S
C460 H434 0.950 . S
C460 C456 1.385 . S
C460 C459 1.374 . S
C461 C458 1.499 . S
C461 C462 1.373 . S
C461 C463 1.389 . S
C462 H435 0.950 . S
C462 C448 1.377 . S
C462 C461 1.373 . S
C463 C447 1.377 . S
C463 C461 1.389 . S
C463 C464 1.524 . S
C464 C463 1.524 . S
C464 C465 1.397 . S
C464 C469 1.363 . S
C465 H436 0.950 . S
C465 C464 1.397 . S
C465 C466 1.334 . S
C466 H437 0.950 . S
C466 C465 1.334 . S
C466 C467 1.287 . S
C467 C466 1.287 . S
C467 C468 1.524 . S
C467 H470 0.999 . S
C468 H438 0.950 . S
C468 C467 1.524 . S
C468 C469 1.415 . S
C469 H439 0.950 . S
C469 C464 1.363 . S
C469 C468 1.415 . S
H470 C467 0.999 . S
H471 C452 0.913 . S
H472 C490 0.951 . S
H473 C492 0.951 . S
H474 C494 0.950 1_554 S
H475 C495 0.950 . S
H476 C497 0.950 . S
H477 C500 0.957 . S
H478 C501 0.950 . S
H479 C503 0.950 . S
H480 C504 0.950 . S
H481 C505 0.951 . S
H482 C507 0.951 . S
H483 C509 0.950 . S
H484 C510 0.950 1_556 S
H485 C512 0.950 1_455 S
H486 C515 0.950 1_465 S
H487 C516 0.950 1_456 S
H488 C518 0.950 . S
H489 C519 0.950 . S
C490 H472 0.951 . S
C490 C491 1.366 . S
C490 C492 1.388 . S
C491 C490 1.366 . S
C491 C495 1.385 . S
C492 H473 0.951 . S
C492 C490 1.388 . S
C492 C493 1.366 . S
C493 C492 1.366 . S
C493 C494 1.414 . S
C493 C496 1.499 . S
C494 H474 0.950 1_556 S
C494 C493 1.414 . S
C494 C495 1.374 . S
C495 H475 0.950 . S
C495 C491 1.385 . S
C495 C494 1.374 . S
C496 C493 1.499 . S
C496 C497 1.373 . S
C496 C498 1.389 . S
C497 H476 0.950 . S
C497 C496 1.373 . S
C497 C513 1.377 1_556 S
C498 C496 1.389 . S
C498 C499 1.524 . S
C498 C512 1.377 . S
C499 C498 1.524 . S
C499 C500 1.397 . S
C499 C504 1.363 . S
C500 H477 0.957 . S
C500 C499 1.397 . S
C500 C501 1.334 . S
C501 H478 0.950 . S
C501 C500 1.334 . S
C501 C502 1.287 . S
C502 C501 1.287 . S
C502 C503 1.524 . S
C502 H521 0.913 . S
C503 H479 0.950 . S
C503 C502 1.524 . S
C503 C504 1.415 . S
C504 H480 0.950 . S
C504 C499 1.363 . S
C504 C503 1.415 . S
C505 H481 0.951 . S
C505 C506 1.366 . S
C505 C507 1.388 . S
C506 C505 1.366 . S
C506 C510 1.385 . S
C507 H482 0.951 . S
C507 C505 1.388 . S
C507 C508 1.366 . S
C508 C507 1.366 . S
C508 C509 1.414 1_554 S
C508 C511 1.499 1_455 S
C509 H483 0.950 . S
C509 C508 1.414 1_556 S
C509 C510 1.374 1_556 S
C510 H484 0.950 1_554 S
C510 C506 1.385 . S
C510 C509 1.374 1_554 S
C511 C508 1.499 1_655 S
C511 C512 1.373 1_554 S
C511 C513 1.389 . S
C512 H485 0.950 1_655 S
C512 C498 1.377 . S
C512 C511 1.373 1_556 S
C513 C497 1.377 1_554 S
C513 C511 1.389 . S
C513 C514 1.524 . S
C514 C513 1.524 . S
C514 C515 1.397 1_564 S
C514 C519 1.363 . S
C515 H486 0.950 1_645 S
C515 C514 1.397 1_546 S
C515 C516 1.334 1_556 S
C516 H487 0.950 1_654 S
C516 C515 1.334 1_554 S
C516 C517 1.287 . S
C517 C516 1.287 . S
C517 C518 1.524 . S
C517 H520 0.999 . S
C518 H488 0.950 . S
C518 C517 1.524 . S
C518 C519 1.415 1_545 S
C519 H489 0.950 . S
C519 C514 1.363 . S
C519 C518 1.415 1_565 S
H520 C517 0.999 . S
H521 C502 0.913 . S
H522 C540 0.951 . S
H523 C542 0.951 1_556 S
H524 C544 0.950 . S
H525 C545 0.950 . S
H526 C547 0.950 1_545 S
H527 C550 0.950 . S
H528 C551 0.950 . S
H529 C553 0.950 . S
H530 C554 0.950 . S
H531 C555 0.951 . S
H532 C557 0.951 . S
H533 C559 0.950 . S
H534 C560 0.950 . S
H535 C562 0.950 . S
H536 C565 0.950 1_556 S
H537 C566 0.948 1_556 S
H538 C568 0.950 . S
H539 C569 0.950 . S
C540 H522 0.951 . S
C540 C541 1.366 . S
C540 C542 1.388 . S
C541 C540 1.366 . S
C541 C545 1.385 . S
C542 H523 0.951 1_554 S
C542 C540 1.388 . S
C542 C543 1.366 . S
C543 C542 1.366 . S
C543 C544 1.414 . S
C543 C546 1.499 . S
C544 H524 0.950 . S
C544 C543 1.414 . S
C544 C545 1.374 . S
C545 H525 0.950 . S
C545 C541 1.385 . S
C545 C544 1.374 . S
C546 C543 1.499 . S
C546 C547 1.373 . S
C546 C548 1.389 . S
C547 H526 0.950 1_565 S
C547 C546 1.373 . S
C547 C563 1.377 1_565 S
C548 C546 1.389 . S
C548 C549 1.524 1_554 S
C548 C562 1.377 1_554 S
C549 C548 1.524 1_556 S
C549 C550 1.397 1_556 S
C549 C554 1.363 . S
C550 H527 0.950 . S
C550 C549 1.397 1_554 S
C550 C551 1.334 . S
C551 H528 0.950 . S
C551 C550 1.334 . S
C551 C552 1.287 1_554 S
C552 C551 1.287 1_556 S
C552 C553 1.524 . S
C552 H571 0.913 . S
C553 H529 0.950 . S
C553 C552 1.524 . S
C553 C554 1.415 . S
C554 H530 0.950 . S
C554 C549 1.363 . S
C554 C553 1.415 . S
C555 H531 0.951 . S
C555 C556 1.366 1_554 S
C555 C557 1.388 . S
C556 C555 1.366 1_556 S
C556 C560 1.385 . S
C557 H532 0.951 . S
C557 C555 1.388 . S
C557 C558 1.366 1_544 S
C558 C557 1.366 1_566 S
C558 C559 1.414 . S
C558 C561 1.499 1_556 S
C559 H533 0.950 . S
C559 C558 1.414 . S
C559 C560 1.374 1_565 S
C560 H534 0.950 . S
C560 C556 1.385 . S
C560 C559 1.374 1_545 S
C561 C558 1.499 1_554 S
C561 C562 1.373 1_554 S
C561 C563 1.389 1_565 S
C562 H535 0.950 . S
C562 C548 1.377 1_556 S
C562 C561 1.373 1_556 S
C563 C547 1.377 1_545 S
C563 C561 1.389 1_545 S
C563 C564 1.524 . S
C564 C563 1.524 . S
C564 C565 1.397 . S
C564 C569 1.363 . S
C565 H536 0.950 1_554 S
C565 C564 1.397 . S
C565 C566 1.334 . S
C566 H537 0.948 1_554 S
C566 C565 1.334 . S
C566 C567 1.287 . S
C567 C566 1.287 . S
C567 C568 1.524 . S
C567 H570 0.999 . S
C568 H538 0.950 . S
C568 C567 1.524 . S
C568 C569 1.415 . S
C569 H539 0.950 . S
C569 C564 1.363 . S
C569 C568 1.415 . S
H570 C567 0.999 . S
H571 C552 0.913 . S
H572 C590 0.951 . S
H573 C592 0.951 . S
H574 C594 0.950 . S
H575 C595 0.950 . S
H576 C597 0.950 . S
H577 C600 0.950 . S
H578 C601 0.950 . S
H579 C603 0.950 . S
H580 C604 0.950 . S
H581 C605 0.951 . S
H582 C607 0.951 . S
H583 C609 0.950 . S
H584 C610 0.950 . S
H585 C612 0.950 . S
H586 C615 0.950 . S
H587 C616 0.950 . S
H588 C618 0.950 . S
H589 C619 0.950 . S
C590 H572 0.951 . S
C590 C591 1.366 . S
C590 C592 1.388 . S
C591 C590 1.366 . S
C591 C595 1.385 . S
C592 H573 0.951 . S
C592 C590 1.388 . S
C592 C593 1.366 . S
C593 C592 1.366 . S
C593 C594 1.414 . S
C593 C596 1.499 . S
C594 H574 0.950 . S
C594 C593 1.414 . S
C594 C595 1.374 . S
C595 H575 0.950 . S
C595 C591 1.385 . S
C595 C594 1.374 . S
C596 C593 1.499 . S
C596 C597 1.373 . S
C596 C598 1.389 . S
C597 H576 0.950 . S
C597 C596 1.373 . S
C597 C613 1.377 . S
C598 C596 1.389 . S
C598 C599 1.524 . S
C598 C612 1.377 1_455 S
C599 C598 1.524 . S
C599 C600 1.397 . S
C599 C604 1.363 1_455 S
C600 H577 0.950 . S
C600 C599 1.397 . S
C600 C601 1.334 . S
C601 H578 0.950 . S
C601 C600 1.334 . S
C601 C602 1.287 . S
C602 C601 1.287 . S
C602 C603 1.524 1_455 S
C602 H621 0.913 . S
C603 H579 0.950 . S
C603 C602 1.524 1_655 S
C603 C604 1.415 . S
C604 H580 0.950 . S
C604 C599 1.363 1_655 S
C604 C603 1.415 . S
C605 H581 0.951 . S
C605 C606 1.366 . S
C605 C607 1.388 . S
C606 C605 1.366 . S
C606 C610 1.385 . S
C607 H582 0.951 . S
C607 C605 1.388 . S
C607 C608 1.366 . S
C608 C607 1.366 . S
C608 C609 1.414 . S
C608 C611 1.499 . S
C609 H583 0.950 . S
C609 C608 1.414 . S
C609 C610 1.374 . S
C610 H584 0.950 . S
C610 C606 1.385 . S
C610 C609 1.374 . S
C611 C608 1.499 . S
C611 C612 1.373 . S
C611 C613 1.389 1_655 S
C612 H585 0.950 . S
C612 C598 1.377 1_655 S
C612 C611 1.373 . S
C613 C597 1.377 . S
C613 C611 1.389 1_455 S
C613 C614 1.524 . S
C614 C613 1.524 . S
C614 C615 1.397 1_455 S
C614 C619 1.363 . S
C615 H586 0.950 . S
C615 C614 1.397 1_655 S
C615 C616 1.334 . S
C616 H587 0.950 . S
C616 C615 1.334 . S
C616 C617 1.287 1_655 S
C617 C616 1.287 1_455 S
C617 C618 1.524 . S
C617 H620 1.002 . S
C618 H588 0.950 . S
C618 C617 1.524 . S
C618 C619 1.415 . S
C619 H589 0.950 . S
C619 C614 1.363 . S
C619 C618 1.415 . S
H620 C617 1.002 . S
H621 C602 0.913 . S
H622 C640 0.951 . S
H623 C642 0.951 . S
H624 C644 0.950 . S
H625 C645 0.950 . S
H626 C647 0.950 . S
H627 C650 0.950 . S
H628 C651 0.950 . S
H629 C653 0.950 . S
H630 C654 0.950 . S
H631 C655 0.951 . S
H632 C657 0.951 . S
H633 C659 0.950 . S
H634 C660 0.950 . S
H635 C662 0.950 . S
H636 C665 0.950 . S
H637 C666 0.950 . S
H638 C668 0.950 . S
H639 C669 0.950 . S
C640 H622 0.951 . S
C640 C641 1.366 . S
C640 C642 1.388 . S
C641 C640 1.366 . S
C641 C645 1.385 . S
C642 H623 0.951 . S
C642 C640 1.388 . S
C642 C643 1.366 . S
C643 C642 1.366 . S
C643 C644 1.414 . S
C643 C646 1.499 . S
C644 H624 0.950 . S
C644 C643 1.414 . S
C644 C645 1.374 . S
C645 H625 0.950 . S
C645 C641 1.385 . S
C645 C644 1.374 . S
C646 C643 1.499 . S
C646 C647 1.373 . S
C646 C648 1.389 . S
C647 H626 0.950 . S
C647 C646 1.373 . S
C647 C663 1.377 . S
C648 C646 1.389 . S
C648 C649 1.524 . S
C648 C662 1.377 . S
C649 C648 1.524 . S
C649 C650 1.397 . S
C649 C654 1.363 . S
C650 H627 0.950 . S
C650 C649 1.397 . S
C650 C651 1.334 . S
C651 H628 0.950 . S
C651 C650 1.334 . S
C651 C652 1.287 . S
C652 C651 1.287 . S
C652 C653 1.524 . S
C652 H671 0.913 . S
C653 H629 0.950 . S
C653 C652 1.524 . S
C653 C654 1.415 . S
C654 H630 0.950 . S
C654 C649 1.363 . S
C654 C653 1.415 . S
C655 H631 0.951 . S
C655 C656 1.366 . S
C655 C657 1.388 . S
C656 C655 1.366 . S
C656 C660 1.385 . S
C657 H632 0.951 . S
C657 C655 1.388 . S
C657 C658 1.366 . S
C658 C657 1.366 . S
C658 C659 1.414 . S
C658 C661 1.499 . S
C659 H633 0.950 . S
C659 C658 1.414 . S
C659 C660 1.374 . S
C660 H634 0.950 . S
C660 C656 1.385 . S
C660 C659 1.374 . S
C661 C658 1.499 . S
C661 C662 1.373 . S
C661 C663 1.389 . S
C662 H635 0.950 . S
C662 C648 1.377 . S
C662 C661 1.373 . S
C663 C647 1.377 . S
C663 C661 1.389 . S
C663 C664 1.524 . S
C664 C663 1.524 . S
C664 C665 1.397 . S
C664 C669 1.363 . S
C665 H636 0.950 . S
C665 C664 1.397 . S
C665 C666 1.334 . S
C666 H637 0.950 . S
C666 C665 1.334 . S
C666 C667 1.287 . S
C667 C666 1.287 . S
C667 C668 1.524 . S
C667 H670 0.999 . S
C668 H638 0.950 . S
C668 C667 1.524 . S
C668 C669 1.415 . S
C669 H639 0.950 . S
C669 C664 1.363 . S
C669 C668 1.415 . S
H670 C667 0.999 . S
H671 C652 0.913 . S
H672 C690 0.950 1_545 S
H673 C692 0.951 . S
H674 C694 0.950 . S
H675 C695 0.950 . S
H676 C697 0.950 . S
H677 C700 0.950 . S
H678 C701 0.950 . S
H679 C703 0.950 . S
H680 C704 0.950 . S
H681 C705 0.951 . S
H682 C707 0.951 . S
H683 C709 0.950 . S
H684 C710 0.950 . S
H685 C712 0.950 . S
H686 C715 0.950 . S
H687 C716 0.950 . S
H688 C718 0.950 . S
H689 C719 0.950 . S
C690 H672 0.950 1_565 S
C690 C691 1.366 1_565 S
C690 C692 1.389 . S
C691 C690 1.366 1_545 S
C691 C695 1.382 1_545 S
C692 H673 0.951 . S
C692 C690 1.389 . S
C692 C693 1.366 . S
C693 C692 1.366 . S
C693 C694 1.414 . S
C693 C696 1.499 . S
C694 H674 0.950 . S
C694 C693 1.414 . S
C694 C695 1.374 . S
C695 H675 0.950 . S
C695 C691 1.382 1_565 S
C695 C694 1.374 . S
C696 C693 1.499 . S
C696 C697 1.373 1_565 S
C696 C698 1.389 . S
C697 H676 0.950 . S
C697 C696 1.373 1_545 S
C697 C713 1.377 . S
C698 C696 1.389 . S
C698 C699 1.524 . S
C698 C712 1.377 . S
C699 C698 1.524 . S
C699 C700 1.397 . S
C699 C704 1.363 . S
C700 H677 0.950 . S
C700 C699 1.397 . S
C700 C701 1.334 . S
C701 H678 0.950 . S
C701 C700 1.334 . S
C701 C702 1.287 . S
C702 C701 1.287 . S
C702 C703 1.524 . S
C702 H721 0.913 . S
C703 H679 0.950 . S
C703 C702 1.524 . S
C703 C704 1.415 . S
C704 H680 0.950 . S
C704 C699 1.363 . S
C704 C703 1.415 . S
C705 H681 0.951 . S
C705 C706 1.366 . S
C705 C707 1.388 . S
C706 C705 1.366 . S
C706 C710 1.385 . S
C707 H682 0.951 . S
C707 C705 1.388 . S
C707 C708 1.366 . S
C708 C707 1.366 . S
C708 C709 1.414 . S
C708 C711 1.499 . S
C709 H683 0.950 . S
C709 C708 1.414 . S
C709 C710 1.374 . S
C710 H684 0.950 . S
C710 C706 1.385 . S
C710 C709 1.374 . S
C711 C708 1.499 . S
C711 C712 1.373 . S
C711 C713 1.389 1_565 S
C712 H685 0.950 . S
C712 C698 1.377 . S
C712 C711 1.373 . S
C713 C697 1.377 . S
C713 C711 1.389 1_545 S
C713 C714 1.524 . S
C714 C713 1.524 . S
C714 C715 1.397 . S
C714 C719 1.363 . S
C715 H686 0.950 . S
C715 C714 1.397 . S
C715 C716 1.334 . S
C716 H687 0.950 . S
C716 C715 1.334 . S
C716 C717 1.287 . S
C717 C716 1.287 . S
C717 C718 1.524 . S
C717 H720 0.999 . S
C718 H688 0.950 . S
C718 C717 1.524 . S
C718 C719 1.415 . S
C719 H689 0.950 . S
C719 C714 1.363 . S
C719 C718 1.415 . S
H720 C717 0.999 . S
H721 C702 0.913 . S
H722 C740 0.951 . S
H723 C742 0.951 . S
H724 C744 0.950 . S
H725 C745 0.950 . S
H726 C747 0.950 . S
H727 C750 0.950 . S
H728 C751 0.950 . S
H729 C753 0.950 . S
H730 C754 0.950 . S
H731 C755 0.951 . S
H732 C757 0.951 . S
H733 C759 0.950 . S
H734 C760 0.950 . S
H735 C762 0.950 . S
H736 C765 0.950 . S
H737 C766 0.950 . S
H738 C768 0.950 . S
H739 C769 0.950 . S
C740 H722 0.951 . S
C740 C741 1.366 . S
C740 C742 1.388 . S
C741 C740 1.366 . S
C741 C745 1.385 . S
C742 H723 0.951 . S
C742 C740 1.388 . S
C742 C743 1.366 . S
C743 C742 1.366 . S
C743 C744 1.414 . S
C743 C746 1.499 . S
C744 H724 0.950 . S
C744 C743 1.414 . S
C744 C745 1.374 . S
C745 H725 0.950 . S
C745 C741 1.385 . S
C745 C744 1.374 . S
C746 C743 1.499 . S
C746 C747 1.373 . S
C746 C748 1.389 . S
C747 H726 0.950 . S
C747 C746 1.373 . S
C747 C763 1.377 . S
C748 C746 1.389 . S
C748 C749 1.524 . S
C748 C762 1.377 . S
C749 C748 1.524 . S
C749 C750 1.397 . S
C749 C754 1.363 . S
C750 H727 0.950 . S
C750 C749 1.397 . S
C750 C751 1.334 . S
C751 H728 0.950 . S
C751 C750 1.334 . S
C751 C752 1.287 . S
C752 C751 1.287 . S
C752 C753 1.524 . S
C752 H771 0.913 . S
C753 H729 0.950 . S
C753 C752 1.524 . S
C753 C754 1.415 . S
C754 H730 0.950 . S
C754 C749 1.363 . S
C754 C753 1.415 . S
C755 H731 0.951 . S
C755 C756 1.366 . S
C755 C757 1.388 . S
C756 C755 1.366 . S
C756 C760 1.385 . S
C757 H732 0.951 . S
C757 C755 1.388 . S
C757 C758 1.366 . S
C758 C757 1.366 . S
C758 C759 1.414 . S
C758 C761 1.499 . S
C759 H733 0.950 . S
C759 C758 1.414 . S
C759 C760 1.374 . S
C760 H734 0.950 . S
C760 C756 1.385 . S
C760 C759 1.374 . S
C761 C758 1.499 . S
C761 C762 1.373 . S
C761 C763 1.389 . S
C762 H735 0.950 . S
C762 C748 1.377 . S
C762 C761 1.373 . S
C763 C747 1.377 . S
C763 C761 1.389 . S
C763 C764 1.524 . S
C764 C763 1.524 . S
C764 C765 1.397 . S
C764 C769 1.363 . S
C765 H736 0.950 . S
C765 C764 1.397 . S
C765 C766 1.334 . S
C766 H737 0.950 . S
C766 C765 1.334 . S
C766 C767 1.287 . S
C767 C766 1.287 . S
C767 C768 1.524 . S
C767 H770 0.999 . S
C768 H738 0.950 . S
C768 C767 1.524 . S
C768 C769 1.415 . S
C769 H739 0.950 . S
C769 C764 1.363 . S
C769 C768 1.415 . S
H770 C767 0.999 . S
H771 C752 0.913 . S
H772 C790 0.951 . S
H773 C792 0.951 . S
H774 C794 0.950 . S
H775 C795 0.950 . S
H776 C797 0.950 . S
H777 C800 0.950 . S
H778 C801 0.950 . S
H779 C803 0.950 . S
H780 C804 0.950 . S
H781 C805 0.951 . S
H782 C807 0.951 . S
H783 C809 0.950 . S
H784 C810 0.950 . S
H785 C812 0.950 . S
H786 C815 0.950 . S
H787 C816 0.950 . S
H788 C818 0.950 . S
H789 C819 0.950 . S
C790 H772 0.951 . S
C790 C791 1.366 . S
C790 C792 1.388 . S
C791 C790 1.366 . S
C791 C795 1.385 . S
C792 H773 0.951 . S
C792 C790 1.388 . S
C792 C793 1.366 . S
C793 C792 1.366 . S
C793 C794 1.414 . S
C793 C796 1.499 . S
C794 H774 0.950 . S
C794 C793 1.414 . S
C794 C795 1.374 . S
C795 H775 0.950 . S
C795 C791 1.385 . S
C795 C794 1.374 . S
C796 C793 1.499 . S
C796 C797 1.373 . S
C796 C798 1.389 . S
C797 H776 0.950 . S
C797 C796 1.373 . S
C797 C813 1.377 . S
C798 C796 1.389 . S
C798 C799 1.524 . S
C798 C812 1.377 . S
C799 C798 1.524 . S
C799 C800 1.397 . S
C799 C804 1.363 . S
C800 H777 0.950 . S
C800 C799 1.397 . S
C800 C801 1.334 . S
C801 H778 0.950 . S
C801 C800 1.334 . S
C801 C802 1.287 . S
C802 C801 1.287 . S
C802 C803 1.524 . S
C802 H821 0.913 . S
C803 H779 0.950 . S
C803 C802 1.524 . S
C803 C804 1.415 . S
C804 H780 0.950 . S
C804 C799 1.363 . S
C804 C803 1.415 . S
C805 H781 0.951 . S
C805 C806 1.366 . S
C805 C807 1.388 . S
C806 C805 1.366 . S
C806 C810 1.385 . S
C807 H782 0.951 . S
C807 C805 1.388 . S
C807 C808 1.366 . S
C808 C807 1.366 . S
C808 C809 1.414 . S
C808 C811 1.499 1_554 S
C809 H783 0.950 . S
C809 C808 1.414 . S
C809 C810 1.374 . S
C810 H784 0.950 . S
C810 C806 1.385 . S
C810 C809 1.374 . S
C811 C808 1.499 1_556 S
C811 C812 1.373 . S
C811 C813 1.389 . S
C812 H785 0.950 . S
C812 C798 1.377 . S
C812 C811 1.373 . S
C813 C797 1.377 . S
C813 C811 1.389 . S
C813 C814 1.524 . S
C814 C813 1.524 . S
C814 C815 1.397 1_556 S
C814 C819 1.363 . S
C815 H786 0.950 . S
C815 C814 1.397 1_554 S
C815 C816 1.334 . S
C816 H787 0.950 . S
C816 C815 1.334 . S
C816 C817 1.287 . S
C817 C816 1.287 . S
C817 C818 1.524 . S
C817 H820 0.999 . S
C818 H788 0.950 . S
C818 C817 1.524 . S
C818 C819 1.415 1_554 S
C819 H789 0.950 . S
C819 C814 1.363 . S
C819 C818 1.415 1_556 S
H820 C817 0.999 . S
H821 C802 0.913 . S
H822 C840 0.951 . S
H823 C842 0.951 . S
H824 C844 0.950 . S
H825 C845 0.950 . S
H826 C847 0.950 . S
H827 C850 0.950 . S
H828 C851 0.950 . S
H829 C853 0.950 . S
H830 C854 0.950 . S
H831 C855 0.951 . S
H832 C857 0.951 . S
H833 C859 0.950 . S
H834 C860 0.950 . S
H835 C862 0.950 . S
H836 C865 0.950 . S
H837 C866 0.950 . S
H838 C868 0.950 . S
H839 C869 0.950 . S
C840 H822 0.951 . S
C840 C841 1.366 . S
C840 C842 1.388 . S
C841 C840 1.366 . S
C841 C845 1.385 . S
C842 H823 0.951 . S
C842 C840 1.388 . S
C842 C843 1.366 . S
C843 C842 1.366 . S
C843 C844 1.414 . S
C843 C846 1.499 1_554 S
C844 H824 0.950 . S
C844 C843 1.414 . S
C844 C845 1.374 . S
C845 H825 0.950 . S
C845 C841 1.385 . S
C845 C844 1.374 . S
C846 C843 1.499 1_556 S
C846 C847 1.373 . S
C846 C848 1.389 . S
C847 H826 0.950 . S
C847 C846 1.373 . S
C847 C863 1.377 . S
C848 C846 1.389 . S
C848 C849 1.524 . S
C848 C862 1.377 . S
C849 C848 1.524 . S
C849 C850 1.397 1_556 S
C849 C854 1.363 . S
C850 H827 0.950 . S
C850 C849 1.397 1_554 S
C850 C851 1.334 . S
C851 H828 0.950 . S
C851 C850 1.334 . S
C851 C852 1.287 . S
C852 C851 1.287 . S
C852 C853 1.524 1_554 S
C852 H871 0.913 . S
C853 H829 0.950 . S
C853 C852 1.524 1_556 S
C853 C854 1.415 . S
C854 H830 0.950 . S
C854 C849 1.363 . S
C854 C853 1.415 . S
C855 H831 0.951 . S
C855 C856 1.366 . S
C855 C857 1.388 . S
C856 C855 1.366 . S
C856 C860 1.385 . S
C857 H832 0.951 . S
C857 C855 1.388 . S
C857 C858 1.366 . S
C858 C857 1.366 . S
C858 C859 1.414 . S
C858 C861 1.499 . S
C859 H833 0.950 . S
C859 C858 1.414 . S
C859 C860 1.374 . S
C860 H834 0.950 . S
C860 C856 1.385 . S
C860 C859 1.374 . S
C861 C858 1.499 . S
C861 C862 1.373 . S
C861 C863 1.389 . S
C862 H835 0.950 . S
C862 C848 1.377 . S
C862 C861 1.373 . S
C863 C847 1.377 . S
C863 C861 1.389 . S
C863 C864 1.524 . S
C864 C863 1.524 . S
C864 C865 1.397 . S
C864 C869 1.363 . S
C865 H836 0.950 . S
C865 C864 1.397 . S
C865 C866 1.334 . S
C866 H837 0.950 . S
C866 C865 1.334 . S
C866 C867 1.287 . S
C867 C866 1.287 . S
C867 C868 1.524 . S
C867 H870 0.999 . S
C868 H838 0.950 . S
C868 C867 1.524 . S
C868 C869 1.415 . S
C869 H839 0.950 . S
C869 C864 1.363 . S
C869 C868 1.415 . S
H870 C867 0.999 . S
H871 C852 0.913 . S
H872 C890 0.951 . S
H873 C892 0.951 . S
H874 C894 0.950 . S
H875 C895 0.950 . S
H876 C897 0.950 . S
H877 C900 0.950 . S
H878 C901 0.950 . S
H879 C903 0.950 . S
H880 C904 0.950 . S
H881 C905 0.951 . S
H882 C907 0.951 . S
H883 C909 0.950 . S
H884 C910 0.950 . S
H885 C912 0.950 . S
H886 C915 0.950 . S
H887 C916 0.950 . S
H888 C918 0.950 . S
H889 C919 0.950 . S
C890 H872 0.951 . S
C890 C891 1.366 . S
C890 C892 1.388 . S
C891 C890 1.366 . S
C891 C895 1.385 . S
C892 H873 0.951 . S
C892 C890 1.388 . S
C892 C893 1.366 . S
C893 C892 1.366 . S
C893 C894 1.414 . S
C893 C896 1.499 . S
C894 H874 0.950 . S
C894 C893 1.414 . S
C894 C895 1.374 . S
C895 H875 0.950 . S
C895 C891 1.385 . S
C895 C894 1.374 . S
C896 C893 1.499 . S
C896 C897 1.373 . S
C896 C898 1.389 . S
C897 H876 0.950 . S
C897 C896 1.373 . S
C897 C913 1.377 . S
C898 C896 1.389 . S
C898 C899 1.524 . S
C898 C912 1.377 . S
C899 C898 1.524 . S
C899 C900 1.397 . S
C899 C904 1.363 . S
C900 H877 0.950 . S
C900 C899 1.397 . S
C900 C901 1.334 . S
C901 H878 0.950 . S
C901 C900 1.334 . S
C901 C902 1.287 . S
C902 C901 1.287 . S
C902 C903 1.524 . S
C902 H921 0.913 . S
C903 H879 0.950 . S
C903 C902 1.524 . S
C903 C904 1.415 . S
C904 H880 0.950 . S
C904 C899 1.363 . S
C904 C903 1.415 . S
C905 H881 0.951 . S
C905 C906 1.366 . S
C905 C907 1.388 . S
C906 C905 1.366 . S
C906 C910 1.385 . S
C907 H882 0.951 . S
C907 C905 1.388 . S
C907 C908 1.366 . S
C908 C907 1.366 . S
C908 C909 1.414 . S
C908 C911 1.499 . S
C909 H883 0.950 . S
C909 C908 1.414 . S
C909 C910 1.374 . S
C910 H884 0.950 . S
C910 C906 1.385 . S
C910 C909 1.374 . S
C911 C908 1.499 . S
C911 C912 1.373 . S
C911 C913 1.389 . S
C912 H885 0.950 . S
C912 C898 1.377 . S
C912 C911 1.373 . S
C913 C897 1.377 . S
C913 C911 1.389 . S
C913 C914 1.524 . S
C914 C913 1.524 . S
C914 C915 1.397 . S
C914 C919 1.363 . S
C915 H886 0.950 . S
C915 C914 1.397 . S
C915 C916 1.334 . S
C916 H887 0.950 . S
C916 C915 1.334 . S
C916 C917 1.287 . S
C917 C916 1.287 . S
C917 C918 1.524 . S
C917 H920 0.999 . S
C918 H888 0.950 . S
C918 C917 1.524 . S
C918 C919 1.415 . S
C919 H889 0.950 . S
C919 C914 1.363 . S
C919 C918 1.415 . S
H920 C917 0.999 . S
H921 C902 0.913 . S
H922 C940 0.951 . S
H923 C942 0.951 . S
H924 C944 0.950 . S
H925 C945 0.952 . S
H926 C947 0.950 1_565 S
H927 C950 0.950 . S
H928 C951 0.950 . S
H929 C953 0.950 . S
H930 C954 0.950 . S
H931 C955 0.951 . S
H932 C957 0.951 . S
H933 C959 0.950 . S
H934 C960 0.950 . S
H935 C962 0.950 . S
H936 C965 0.950 . S
H937 C966 0.950 . S
H938 C968 0.950 . S
H939 C969 0.950 . S
C940 H922 0.951 . S
C940 C941 1.366 . S
C940 C942 1.388 . S
C941 C940 1.366 . S
C941 C945 1.385 . S
C942 H923 0.951 . S
C942 C940 1.388 . S
C942 C943 1.366 . S
C943 C942 1.366 . S
C943 C944 1.414 . S
C943 C946 1.499 . S
C944 H924 0.950 . S
C944 C943 1.414 . S
C944 C945 1.374 . S
C945 H925 0.952 . S
C945 C941 1.385 . S
C945 C944 1.374 . S
C946 C943 1.499 . S
C946 C947 1.373 . S
C946 C948 1.389 . S
C947 H926 0.950 1_545 S
C947 C946 1.373 . S
C947 C963 1.377 . S
C948 C946 1.389 . S
C948 C949 1.524 . S
C948 C962 1.377 . S
C949 C948 1.524 . S
C949 C950 1.397 . S
C949 C954 1.363 . S
C950 H927 0.950 . S
C950 C949 1.397 . S
C950 C951 1.334 . S
C951 H928 0.950 . S
C951 C950 1.334 . S
C951 C952 1.287 . S
C952 C951 1.287 . S
C952 C953 1.524 . S
C952 H971 0.913 . S
C953 H929 0.950 . S
C953 C952 1.524 . S
C953 C954 1.415 . S
C954 H930 0.950 . S
C954 C949 1.363 . S
C954 C953 1.415 . S
C955 H931 0.951 . S
C955 C956 1.366 . S
C955 C957 1.388 . S
C956 C955 1.366 . S
C956 C960 1.385 . S
C957 H932 0.951 . S
C957 C955 1.388 . S
C957 C958 1.366 . S
C958 C957 1.366 . S
C958 C959 1.414 . S
C958 C961 1.499 . S
C959 H933 0.950 . S
C959 C958 1.414 . S
C959 C960 1.374 . S
C960 H934 0.950 . S
C960 C956 1.385 . S
C960 C959 1.374 . S
C961 C958 1.499 . S
C961 C962 1.373 . S
C961 C963 1.389 . S
C962 H935 0.950 . S
C962 C948 1.377 . S
C962 C961 1.373 . S
C963 C947 1.377 . S
C963 C961 1.389 . S
C963 C964 1.524 1_545 S
C964 C963 1.524 1_565 S
C964 C965 1.397 . S
C964 C969 1.363 . S
C965 H936 0.950 . S
C965 C964 1.397 . S
C965 C966 1.334 . S
C966 H937 0.950 . S
C966 C965 1.334 . S
C966 C967 1.287 . S
C967 C966 1.287 . S
C967 C968 1.524 . S
C967 H970 0.999 . S
C968 H938 0.950 . S
C968 C967 1.524 . S
C968 C969 1.415 . S
C969 H939 0.950 . S
C969 C964 1.363 . S
C969 C968 1.415 . S
H970 C967 0.999 . S
H971 C952 0.913 . S
H972 C990 0.951 . S
H973 C992 0.951 . S
H974 C994 0.950 . S
H975 C995 0.950 . S
H976 C997 0.950 . S
H977 C1000 0.950 . S
H978 C1001 0.950 . S
H979 C1003 0.950 . S
H980 C1004 0.950 . S
H981 C1005 0.951 . S
H982 C1007 0.951 . S
H983 C1009 0.950 . S
H984 C1010 0.950 . S
H985 C1012 0.950 . S
H986 C1015 0.950 . S
H987 C1016 0.950 . S
H988 C1018 0.950 1_554 S
H989 C1019 0.950 . S
C990 H972 0.951 . S
C990 C991 1.366 . S
C990 C992 1.388 . S
C991 C990 1.366 . S
C991 C995 1.385 . S
C992 H973 0.951 . S
C992 C990 1.388 . S
C992 C993 1.366 . S
C993 C992 1.366 . S
C993 C994 1.414 . S
C993 C996 1.499 . S
C994 H974 0.950 . S
C994 C993 1.414 . S
C994 C995 1.374 . S
C995 H975 0.950 . S
C995 C991 1.385 . S
C995 C994 1.374 . S
C996 C993 1.499 . S
C996 C997 1.373 . S
C996 C998 1.389 . S
C997 H976 0.950 . S
C997 C996 1.373 . S
C997 C1013 1.377 . S
C998 C996 1.389 . S
C998 C999 1.524 . S
C998 C1012 1.377 . S
C999 C998 1.524 . S
C999 C1000 1.397 . S
C999 C1004 1.363 . S
C1000 H977 0.950 . S
C1000 C999 1.397 . S
C1000 C1001 1.334 . S
C1001 H978 0.950 . S
C1001 C1000 1.334 . S
C1001 C1002 1.287 . S
C1002 C1001 1.287 . S
C1002 C1003 1.524 . S
C1002 H1021 0.913 . S
C1003 H979 0.950 . S
C1003 C1002 1.524 . S
C1003 C1004 1.415 . S
C1004 H980 0.950 . S
C1004 C999 1.363 . S
C1004 C1003 1.415 . S
C1005 H981 0.951 . S
C1005 C1006 1.366 . S
C1005 C1007 1.388 . S
C1006 C1005 1.366 . S
C1006 C1010 1.385 . S
C1007 H982 0.951 . S
C1007 C1005 1.388 . S
C1007 C1008 1.366 . S
C1008 C1007 1.366 . S
C1008 C1009 1.414 . S
C1008 C1011 1.499 1_556 S
C1009 H983 0.950 . S
C1009 C1008 1.414 . S
C1009 C1010 1.374 . S
C1010 H984 0.950 . S
C1010 C1006 1.385 . S
C1010 C1009 1.374 . S
C1011 C1008 1.499 1_554 S
C1011 C1012 1.373 . S
C1011 C1013 1.389 . S
C1012 H985 0.950 . S
C1012 C998 1.377 . S
C1012 C1011 1.373 . S
C1013 C997 1.377 . S
C1013 C1011 1.389 . S
C1013 C1014 1.524 . S
C1014 C1013 1.524 . S
C1014 C1015 1.397 1_554 S
C1014 C1019 1.363 . S
C1015 H986 0.950 . S
C1015 C1014 1.397 1_556 S
C1015 C1016 1.334 . S
C1016 H987 0.950 . S
C1016 C1015 1.334 . S
C1016 C1017 1.287 . S
C1017 C1016 1.287 . S
C1017 C1018 1.524 . S
C1017 H1020 0.999 . S
C1018 H988 0.950 1_556 S
C1018 C1017 1.524 . S
C1018 C1019 1.415 1_556 S
C1019 H989 0.950 . S
C1019 C1014 1.363 . S
C1019 C1018 1.415 1_554 S
H1020 C1017 0.999 . S
H1021 C1002 0.913 . S
H1022 C1040 0.951 . S
H1023 C1042 0.951 . S
H1024 C1044 0.950 . S
H1025 C1045 0.950 . S
H1026 C1047 0.950 . S
H1027 C1050 0.950 . S
H1028 C1051 0.950 . S
H1029 C1053 0.950 . S
H1030 C1054 0.950 . S
H1031 C1055 0.951 . S
H1032 C1057 0.951 . S
H1033 C1059 0.950 . S
H1034 C1060 0.950 . S
H1035 C1062 0.950 . S
H1036 C1065 0.950 . S
H1037 C1066 0.950 . S
H1038 C1068 0.950 . S
H1039 C1069 0.950 . S
C1040 H1022 0.951 . S
C1040 C1041 1.366 . S
C1040 C1042 1.388 . S
C1041 C1040 1.366 . S
C1041 C1045 1.385 . S
C1042 H1023 0.951 . S
C1042 C1040 1.388 . S
C1042 C1043 1.366 . S
C1043 C1042 1.366 . S
C1043 C1044 1.414 . S
C1043 C1046 1.499 . S
C1044 H1024 0.950 . S
C1044 C1043 1.414 . S
C1044 C1045 1.374 . S
C1045 H1025 0.950 . S
C1045 C1041 1.385 . S
C1045 C1044 1.374 . S
C1046 C1043 1.499 . S
C1046 C1047 1.373 . S
C1046 C1048 1.389 . S
C1047 H1026 0.950 . S
C1047 C1046 1.373 . S
C1047 C1063 1.377 . S
C1048 C1046 1.389 . S
C1048 C1049 1.524 . S
C1048 C1062 1.377 . S
C1049 C1048 1.524 . S
C1049 C1050 1.397 . S
C1049 C1054 1.363 . S
C1050 H1027 0.950 . S
C1050 C1049 1.397 . S
C1050 C1051 1.334 . S
C1051 H1028 0.950 . S
C1051 C1050 1.334 . S
C1051 C1052 1.287 . S
C1052 C1051 1.287 . S
C1052 C1053 1.524 . S
C1052 H1071 0.913 . S
C1053 H1029 0.950 . S
C1053 C1052 1.524 . S
C1053 C1054 1.415 . S
C1054 H1030 0.950 . S
C1054 C1049 1.363 . S
C1054 C1053 1.415 . S
C1055 H1031 0.951 . S
C1055 C1056 1.366 . S
C1055 C1057 1.388 . S
C1056 C1055 1.366 . S
C1056 C1060 1.385 . S
C1057 H1032 0.951 . S
C1057 C1055 1.388 . S
C1057 C1058 1.366 . S
C1058 C1057 1.366 . S
C1058 C1059 1.414 . S
C1058 C1061 1.499 1_556 S
C1059 H1033 0.950 . S
C1059 C1058 1.414 . S
C1059 C1060 1.374 . S
C1060 H1034 0.950 . S
C1060 C1056 1.385 . S
C1060 C1059 1.374 . S
C1061 C1058 1.499 1_554 S
C1061 C1062 1.373 . S
C1061 C1063 1.389 . S
C1062 H1035 0.950 . S
C1062 C1048 1.377 . S
C1062 C1061 1.373 . S
C1063 C1047 1.377 . S
C1063 C1061 1.389 . S
C1063 C1064 1.524 . S
C1064 C1063 1.524 . S
C1064 C1065 1.397 1_554 S
C1064 C1069 1.363 . S
C1065 H1036 0.950 . S
C1065 C1064 1.397 1_556 S
C1065 C1066 1.334 . S
C1066 H1037 0.950 . S
C1066 C1065 1.334 . S
C1066 C1067 1.287 . S
C1067 C1066 1.287 . S
C1067 C1068 1.524 1_556 S
C1067 H1070 0.999 . S
C1068 H1038 0.950 . S
C1068 C1067 1.524 1_554 S
C1068 C1069 1.415 . S
C1069 H1039 0.950 . S
C1069 C1064 1.363 . S
C1069 C1068 1.415 . S
H1070 C1067 0.999 . S
H1071 C1052 0.913 . S
H1072 C1090 0.951 . S
H1073 C1092 0.951 . S
H1074 C1094 0.950 . S
H1075 C1095 0.950 . S
H1076 C1097 0.950 . S
H1077 C1100 0.950 . S
H1078 C1101 0.950 . S
H1079 C1103 0.950 . S
H1080 C1104 0.950 . S
H1081 C1105 0.951 . S
H1082 C1107 0.951 . S
H1083 C1109 0.950 . S
H1084 C1110 0.950 . S
H1085 C1112 0.950 . S
H1086 C1115 0.950 . S
H1087 C1116 0.950 . S
H1088 C1118 0.950 . S
H1089 C1119 0.950 . S
C1090 H1072 0.951 . S
C1090 C1091 1.366 . S
C1090 C1092 1.388 . S
C1091 C1090 1.366 . S
C1091 C1095 1.385 . S
C1092 H1073 0.951 . S
C1092 C1090 1.388 . S
C1092 C1093 1.366 . S
C1093 C1092 1.366 . S
C1093 C1094 1.414 . S
C1093 C1096 1.499 . S
C1094 H1074 0.950 . S
C1094 C1093 1.414 . S
C1094 C1095 1.374 . S
C1095 H1075 0.950 . S
C1095 C1091 1.385 . S
C1095 C1094 1.374 . S
C1096 C1093 1.499 . S
C1096 C1097 1.373 . S
C1096 C1098 1.389 . S
C1097 H1076 0.950 . S
C1097 C1096 1.373 . S
C1097 C1113 1.377 . S
C1098 C1096 1.389 . S
C1098 C1099 1.524 . S
C1098 C1112 1.377 . S
C1099 C1098 1.524 . S
C1099 C1100 1.397 . S
C1099 C1104 1.363 . S
C1100 H1077 0.950 . S
C1100 C1099 1.397 . S
C1100 C1101 1.334 . S
C1101 H1078 0.950 . S
C1101 C1100 1.334 . S
C1101 C1102 1.287 . S
C1102 C1101 1.287 . S
C1102 C1103 1.524 . S
C1102 H1121 0.913 . S
C1103 H1079 0.950 . S
C1103 C1102 1.524 . S
C1103 C1104 1.415 . S
C1104 H1080 0.950 . S
C1104 C1099 1.363 . S
C1104 C1103 1.415 . S
C1105 H1081 0.951 . S
C1105 C1106 1.366 . S
C1105 C1107 1.388 . S
C1106 C1105 1.366 . S
C1106 C1110 1.385 . S
C1107 H1082 0.951 . S
C1107 C1105 1.388 . S
C1107 C1108 1.366 . S
C1108 C1107 1.366 . S
C1108 C1109 1.414 . S
C1108 C1111 1.499 . S
C1109 H1083 0.950 . S
C1109 C1108 1.414 . S
C1109 C1110 1.374 . S
C1110 H1084 0.950 . S
C1110 C1106 1.385 . S
C1110 C1109 1.374 . S
C1111 C1108 1.499 . S
C1111 C1112 1.373 . S
C1111 C1113 1.389 . S
C1112 H1085 0.950 . S
C1112 C1098 1.377 . S
C1112 C1111 1.373 . S
C1113 C1097 1.377 . S
C1113 C1111 1.389 . S
C1113 C1114 1.524 . S
C1114 C1113 1.524 . S
C1114 C1115 1.397 . S
C1114 C1119 1.363 . S
C1115 H1086 0.950 . S
C1115 C1114 1.397 . S
C1115 C1116 1.334 . S
C1116 H1087 0.950 . S
C1116 C1115 1.334 . S
C1116 C1117 1.287 . S
C1117 C1116 1.287 . S
C1117 C1118 1.524 . S
C1117 H1120 0.999 . S
C1118 H1088 0.950 . S
C1118 C1117 1.524 . S
C1118 C1119 1.415 . S
C1119 H1089 0.950 . S
C1119 C1114 1.363 . S
C1119 C1118 1.415 . S
H1120 C1117 0.999 . S
H1121 C1102 0.913 . S
H1122 C1140 0.951 . S
H1123 C1142 0.951 . S
H1124 C1144 0.950 . S
H1125 C1145 0.950 . S
H1126 C1147 0.950 . S
H1127 C1150 0.950 . S
H1128 C1151 0.950 . S
H1129 C1153 0.950 . S
H1130 C1154 0.950 . S
H1131 C1155 0.951 . S
H1132 C1157 0.951 . S
H1133 C1159 0.950 . S
H1134 C1160 0.950 . S
H1135 C1162 0.950 . S
H1136 C1165 0.950 . S
H1137 C1166 0.950 . S
H1138 C1168 0.950 . S
H1139 C1169 0.950 . S
C1140 H1122 0.951 . S
C1140 C1141 1.366 . S
C1140 C1142 1.388 . S
C1141 C1140 1.366 . S
C1141 C1145 1.385 . S
C1142 H1123 0.951 . S
C1142 C1140 1.388 . S
C1142 C1143 1.366 . S
C1143 C1142 1.366 . S
C1143 C1144 1.414 . S
C1143 C1146 1.499 . S
C1144 H1124 0.950 . S
C1144 C1143 1.414 . S
C1144 C1145 1.374 . S
C1145 H1125 0.950 . S
C1145 C1141 1.385 . S
C1145 C1144 1.374 . S
C1146 C1143 1.499 . S
C1146 C1147 1.373 . S
C1146 C1148 1.389 . S
C1147 H1126 0.950 . S
C1147 C1146 1.373 . S
C1147 C1163 1.377 . S
C1148 C1146 1.389 . S
C1148 C1149 1.524 . S
C1148 C1162 1.377 . S
C1149 C1148 1.524 . S
C1149 C1150 1.397 . S
C1149 C1154 1.363 . S
C1150 H1127 0.950 . S
C1150 C1149 1.397 . S
C1150 C1151 1.334 . S
C1151 H1128 0.950 . S
C1151 C1150 1.334 . S
C1151 C1152 1.287 . S
C1152 C1151 1.287 . S
C1152 C1153 1.524 . S
C1152 H1171 0.913 . S
C1153 H1129 0.950 . S
C1153 C1152 1.524 . S
C1153 C1154 1.415 . S
C1154 H1130 0.950 . S
C1154 C1149 1.363 . S
C1154 C1153 1.415 . S
C1155 H1131 0.951 . S
C1155 C1156 1.366 . S
C1155 C1157 1.388 . S
C1156 C1155 1.366 . S
C1156 C1160 1.385 . S
C1157 H1132 0.951 . S
C1157 C1155 1.388 . S
C1157 C1158 1.366 . S
C1158 C1157 1.366 . S
C1158 C1159 1.414 . S
C1158 C1161 1.499 . S
C1159 H1133 0.950 . S
C1159 C1158 1.414 . S
C1159 C1160 1.374 . S
C1160 H1134 0.950 . S
C1160 C1156 1.385 . S
C1160 C1159 1.374 . S
C1161 C1158 1.499 . S
C1161 C1162 1.373 . S
C1161 C1163 1.389 . S
C1162 H1135 0.950 . S
C1162 C1148 1.377 . S
C1162 C1161 1.373 . S
C1163 C1147 1.377 . S
C1163 C1161 1.389 . S
C1163 C1164 1.524 . S
C1164 C1163 1.524 . S
C1164 C1165 1.397 . S
C1164 C1169 1.363 . S
C1165 H1136 0.950 . S
C1165 C1164 1.397 . S
C1165 C1166 1.334 . S
C1166 H1137 0.950 . S
C1166 C1165 1.334 . S
C1166 C1167 1.287 . S
C1167 C1166 1.287 . S
C1167 C1168 1.524 . S
C1167 H1170 0.999 . S
C1168 H1138 0.950 . S
C1168 C1167 1.524 . S
C1168 C1169 1.415 . S
C1169 H1139 0.950 . S
C1169 C1164 1.363 . S
C1169 C1168 1.415 . S
H1170 C1167 0.999 . S
H1171 C1152 0.913 . S
H1172 C1190 0.951 . S
H1173 C1192 0.951 . S
H1174 C1194 0.950 . S
H1175 C1195 0.950 . S
H1176 C1197 0.950 . S
H1177 C1200 0.950 . S
H1178 C1201 0.950 . S
H1179 C1203 0.950 . S
H1180 C1204 0.950 . S
H1181 C1205 0.951 . S
H1182 C1207 0.951 . S
H1183 C1209 0.950 . S
H1184 C1210 0.950 . S
H1185 C1212 0.950 . S
H1186 C1215 0.950 . S
H1187 C1216 0.950 . S
H1188 C1218 0.950 . S
H1189 C1219 0.950 . S
C1190 H1172 0.951 . S
C1190 C1191 1.366 . S
C1190 C1192 1.388 . S
C1191 C1190 1.366 . S
C1191 C1195 1.385 . S
C1192 H1173 0.951 . S
C1192 C1190 1.388 . S
C1192 C1193 1.366 . S
C1193 C1192 1.366 . S
C1193 C1194 1.414 . S
C1193 C1196 1.499 . S
C1194 H1174 0.950 . S
C1194 C1193 1.414 . S
C1194 C1195 1.374 . S
C1195 H1175 0.950 . S
C1195 C1191 1.385 . S
C1195 C1194 1.374 . S
C1196 C1193 1.499 . S
C1196 C1197 1.373 . S
C1196 C1198 1.389 . S
C1197 H1176 0.950 . S
C1197 C1196 1.373 . S
C1197 C1213 1.377 . S
C1198 C1196 1.389 . S
C1198 C1199 1.524 . S
C1198 C1212 1.377 . S
C1199 C1198 1.524 . S
C1199 C1200 1.397 . S
C1199 C1204 1.363 . S
C1200 H1177 0.950 . S
C1200 C1199 1.397 . S
C1200 C1201 1.334 . S
C1201 H1178 0.950 . S
C1201 C1200 1.334 . S
C1201 C1202 1.287 . S
C1202 C1201 1.287 . S
C1202 C1203 1.524 . S
C1202 H1221 0.913 . S
C1203 H1179 0.950 . S
C1203 C1202 1.524 . S
C1203 C1204 1.415 . S
C1204 H1180 0.950 . S
C1204 C1199 1.363 . S
C1204 C1203 1.415 . S
C1205 H1181 0.951 . S
C1205 C1206 1.366 . S
C1205 C1207 1.388 . S
C1206 C1205 1.366 . S
C1206 C1210 1.385 . S
C1207 H1182 0.951 . S
C1207 C1205 1.388 . S
C1207 C1208 1.366 . S
C1208 C1207 1.366 . S
C1208 C1209 1.414 . S
C1208 C1211 1.499 . S
C1209 H1183 0.950 . S
C1209 C1208 1.414 . S
C1209 C1210 1.374 . S
C1210 H1184 0.950 . S
C1210 C1206 1.385 . S
C1210 C1209 1.374 . S
C1211 C1208 1.499 . S
C1211 C1212 1.373 . S
C1211 C1213 1.389 . S
C1212 H1185 0.950 . S
C1212 C1198 1.377 . S
C1212 C1211 1.373 . S
C1213 C1197 1.377 . S
C1213 C1211 1.389 . S
C1213 C1214 1.524 . S
C1214 C1213 1.524 . S
C1214 C1215 1.397 . S
C1214 C1219 1.363 . S
C1215 H1186 0.950 . S
C1215 C1214 1.397 . S
C1215 C1216 1.334 . S
C1216 H1187 0.950 . S
C1216 C1215 1.334 . S
C1216 C1217 1.287 . S
C1217 C1216 1.287 . S
C1217 C1218 1.524 . S
C1217 H1220 0.999 . S
C1218 H1188 0.950 . S
C1218 C1217 1.524 . S
C1218 C1219 1.415 . S
C1219 H1189 0.950 . S
C1219 C1214 1.363 . S
C1219 C1218 1.415 . S
H1220 C1217 0.999 . S
H1221 C1202 0.913 . S
H1222 C1240 0.951 . S
H1223 C1242 0.951 . S
H1224 C1244 0.950 . S
H1225 C1245 0.950 . S
H1226 C1247 0.950 . S
H1227 C1250 0.950 . S
H1228 C1251 0.950 . S
H1229 C1253 0.950 . S
H1230 C1254 0.950 . S
H1231 C1255 0.951 . S
H1232 C1257 0.951 . S
H1233 C1259 0.950 . S
H1234 C1260 0.950 . S
H1235 C1262 0.950 . S
H1236 C1265 0.950 . S
H1237 C1266 0.950 . S
H1238 C1268 0.950 . S
H1239 C1269 0.950 . S
C1240 H1222 0.951 . S
C1240 C1241 1.366 . S
C1240 C1242 1.388 . S
C1241 C1240 1.366 . S
C1241 C1245 1.385 . S
C1242 H1223 0.951 . S
C1242 C1240 1.388 . S
C1242 C1243 1.366 . S
C1243 C1242 1.366 . S
C1243 C1244 1.414 . S
C1243 C1246 1.499 . S
C1244 H1224 0.950 . S
C1244 C1243 1.414 . S
C1244 C1245 1.374 . S
C1245 H1225 0.950 . S
C1245 C1241 1.385 . S
C1245 C1244 1.374 . S
C1246 C1243 1.499 . S
C1246 C1247 1.373 . S
C1246 C1248 1.389 . S
C1247 H1226 0.950 . S
C1247 C1246 1.373 . S
C1247 C1263 1.377 . S
C1248 C1246 1.389 . S
C1248 C1249 1.524 . S
C1248 C1262 1.377 . S
C1249 C1248 1.524 . S
C1249 C1250 1.397 . S
C1249 C1254 1.363 . S
C1250 H1227 0.950 . S
C1250 C1249 1.397 . S
C1250 C1251 1.334 . S
C1251 H1228 0.950 . S
C1251 C1250 1.334 . S
C1251 C1252 1.287 . S
C1252 C1251 1.287 . S
C1252 C1253 1.524 . S
C1252 H1271 0.913 . S
C1253 H1229 0.950 . S
C1253 C1252 1.524 . S
C1253 C1254 1.415 . S
C1254 H1230 0.950 . S
C1254 C1249 1.363 . S
C1254 C1253 1.415 . S
C1255 H1231 0.951 . S
C1255 C1256 1.366 . S
C1255 C1257 1.388 . S
C1256 C1255 1.366 . S
C1256 C1260 1.385 . S
C1257 H1232 0.951 . S
C1257 C1255 1.388 . S
C1257 C1258 1.366 . S
C1258 C1257 1.366 . S
C1258 C1259 1.414 . S
C1258 C1261 1.499 . S
C1259 H1233 0.950 . S
C1259 C1258 1.414 . S
C1259 C1260 1.374 . S
C1260 H1234 0.950 . S
C1260 C1256 1.385 . S
C1260 C1259 1.374 . S
C1261 C1258 1.499 . S
C1261 C1262 1.373 . S
C1261 C1263 1.389 . S
C1262 H1235 0.950 . S
C1262 C1248 1.377 . S
C1262 C1261 1.373 . S
C1263 C1247 1.377 . S
C1263 C1261 1.389 . S
C1263 C1264 1.524 . S
C1264 C1263 1.524 . S
C1264 C1265 1.397 . S
C1264 C1269 1.363 . S
C1265 H1236 0.950 . S
C1265 C1264 1.397 . S
C1265 C1266 1.334 . S
C1266 H1237 0.950 . S
C1266 C1265 1.334 . S
C1266 C1267 1.287 . S
C1267 C1266 1.287 . S
C1267 C1268 1.524 . S
C1267 H1270 0.999 . S
C1268 H1238 0.950 . S
C1268 C1267 1.524 . S
C1268 C1269 1.415 . S
C1269 H1239 0.950 . S
C1269 C1264 1.363 . S
C1269 C1268 1.415 . S
H1270 C1267 0.999 . S
H1271 C1252 0.913 . S
C291 C36 1.870 . S
C306 C2 1.871 . S
C341 C70 1.412 . S
C356 C104 1.413 . S
C391 C172 1.748 . S
C406 C138 1.743 . S
C441 C206 1.042 . S
C456 C240 1.042 . S
C491 C169 1.787 . S
C506 C20 1.796 . S
C541 C54 1.781 . S
C556 C190 1.781 . S
C591 C88 1.074 . S
C606 C224 1.073 . S
C641 C122 1.564 . S
C656 C258 1.564 . S
C691 C9 1.169 . S
C706 C5 1.197 . S
C741 C39 1.171 . S
C756 C43 1.132 . S
C791 C77 1.156 . S
C806 C73 1.194 . S
C841 C107 1.169 . S
C856 C111 1.129 . S
C891 C141 1.208 . S
C906 C145 1.159 . S
C941 C175 1.200 . S
C956 C179 1.158 . S
C991 C213 1.129 . S
C1006 C209 1.169 . S
C1041 C247 1.164 . S
C1056 C243 1.196 . S
C1091 C33 1.633 . S
C1106 C101 1.627 . S
C1141 C67 1.920 . S
C1156 C135 1.922 . S
C1191 C156 1.364 . S
C1206 C237 1.370 . S
C1241 C203 1.278 . S
C1256 C271 1.286 . S
