# Generated by pormake.
# Topology whr, (6)-cn, num edge types: 1
# Building blocks:
#     Node 0, Type 0, BuildingBlock: VOLQOD_clean_sbu_1, # of connection points: 6
#     Node 1, Type 0, BuildingBlock: VOLQOD_clean_sbu_1, # of connection points: 6
#     Node 2, Type 0, BuildingBlock: VOLQOD_clean_sbu_1, # of connection points: 6
#     Node 3, Type 0, BuildingBlock: VOLQOD_clean_sbu_1, # of connection points: 6
#     Node 4, Type 0, BuildingBlock: VOLQOD_clean_sbu_1, # of connection points: 6
#     Node 5, Type 0, BuildingBlock: VOLQOD_clean_sbu_1, # of connection points: 6
#     Node 6, Type 0, BuildingBlock: VOLQOD_clean_sbu_1, # of connection points: 6
#     Node 7, Type 0, BuildingBlock: VOLQOD_clean_sbu_1, # of connection points: 6
#     Node 8, Type 0, BuildingBlock: VOLQOD_clean_sbu_1, # of connection points: 6
#     Node 9, Type 0, BuildingBlock: VOLQOD_clean_sbu_1, # of connection points: 6
#     Node 10, Type 0, BuildingBlock: VOLQOD_clean_sbu_1, # of connection points: 6
#     Node 11, Type 0, BuildingBlock: VOLQOD_clean_sbu_1, # of connection points: 6
#     Node 12, Type 0, BuildingBlock: VOLQOD_clean_sbu_1, # of connection points: 6
#     Node 13, Type 0, BuildingBlock: VOLQOD_clean_sbu_1, # of connection points: 6
#     Node 14, Type 0, BuildingBlock: VOLQOD_clean_sbu_1, # of connection points: 6
#     Node 15, Type 0, BuildingBlock: VOLQOD_clean_sbu_1, # of connection points: 6
#     Edge 16, Type (0, 0), BuildingBlock: AJUNOK_clean_linker_0, # of connection points: 2
#     Edge 17, Type (0, 0), BuildingBlock: AJUNOK_clean_linker_0, # of connection points: 2
#     Edge 18, Type (0, 0), BuildingBlock: AJUNOK_clean_linker_0, # of connection points: 2
#     Edge 19, Type (0, 0), BuildingBlock: AJUNOK_clean_linker_0, # of connection points: 2
#     Edge 20, Type (0, 0), BuildingBlock: AJUNOK_clean_linker_0, # of connection points: 2
#     Edge 21, Type (0, 0), BuildingBlock: AJUNOK_clean_linker_0, # of connection points: 2
#     Edge 22, Type (0, 0), BuildingBlock: AJUNOK_clean_linker_0, # of connection points: 2
#     Edge 23, Type (0, 0), BuildingBlock: AJUNOK_clean_linker_0, # of connection points: 2
#     Edge 24, Type (0, 0), BuildingBlock: AJUNOK_clean_linker_0, # of connection points: 2
#     Edge 25, Type (0, 0), BuildingBlock: AJUNOK_clean_linker_0, # of connection points: 2
#     Edge 26, Type (0, 0), BuildingBlock: AJUNOK_clean_linker_0, # of connection points: 2
#     Edge 27, Type (0, 0), BuildingBlock: AJUNOK_clean_linker_0, # of connection points: 2
#     Edge 28, Type (0, 0), BuildingBlock: AJUNOK_clean_linker_0, # of connection points: 2
#     Edge 29, Type (0, 0), BuildingBlock: AJUNOK_clean_linker_0, # of connection points: 2
#     Edge 30, Type (0, 0), BuildingBlock: AJUNOK_clean_linker_0, # of connection points: 2
#     Edge 31, Type (0, 0), BuildingBlock: AJUNOK_clean_linker_0, # of connection points: 2
#     Edge 32, Type (0, 0), BuildingBlock: AJUNOK_clean_linker_0, # of connection points: 2
#     Edge 33, Type (0, 0), BuildingBlock: AJUNOK_clean_linker_0, # of connection points: 2
#     Edge 34, Type (0, 0), BuildingBlock: AJUNOK_clean_linker_0, # of connection points: 2
#     Edge 35, Type (0, 0), BuildingBlock: AJUNOK_clean_linker_0, # of connection points: 2
#     Edge 36, Type (0, 0), BuildingBlock: AJUNOK_clean_linker_0, # of connection points: 2
#     Edge 37, Type (0, 0), BuildingBlock: AJUNOK_clean_linker_0, # of connection points: 2
#     Edge 38, Type (0, 0), BuildingBlock: AJUNOK_clean_linker_0, # of connection points: 2
#     Edge 39, Type (0, 0), BuildingBlock: AJUNOK_clean_linker_0, # of connection points: 2
#     Edge 40, Type (0, 0), BuildingBlock: AJUNOK_clean_linker_0, # of connection points: 2
#     Edge 41, Type (0, 0), BuildingBlock: AJUNOK_clean_linker_0, # of connection points: 2
#     Edge 42, Type (0, 0), BuildingBlock: AJUNOK_clean_linker_0, # of connection points: 2
#     Edge 43, Type (0, 0), BuildingBlock: AJUNOK_clean_linker_0, # of connection points: 2
#     Edge 44, Type (0, 0), BuildingBlock: AJUNOK_clean_linker_0, # of connection points: 2
#     Edge 45, Type (0, 0), BuildingBlock: AJUNOK_clean_linker_0, # of connection points: 2
#     Edge 46, Type (0, 0), BuildingBlock: AJUNOK_clean_linker_0, # of connection points: 2
#     Edge 47, Type (0, 0), BuildingBlock: AJUNOK_clean_linker_0, # of connection points: 2
#     Edge 48, Type (0, 0), BuildingBlock: AJUNOK_clean_linker_0, # of connection points: 2
#     Edge 49, Type (0, 0), BuildingBlock: AJUNOK_clean_linker_0, # of connection points: 2
#     Edge 50, Type (0, 0), BuildingBlock: AJUNOK_clean_linker_0, # of connection points: 2
#     Edge 51, Type (0, 0), BuildingBlock: AJUNOK_clean_linker_0, # of connection points: 2
#     Edge 52, Type (0, 0), BuildingBlock: AJUNOK_clean_linker_0, # of connection points: 2
#     Edge 53, Type (0, 0), BuildingBlock: AJUNOK_clean_linker_0, # of connection points: 2
#     Edge 54, Type (0, 0), BuildingBlock: AJUNOK_clean_linker_0, # of connection points: 2
#     Edge 55, Type (0, 0), BuildingBlock: AJUNOK_clean_linker_0, # of connection points: 2
#     Edge 56, Type (0, 0), BuildingBlock: AJUNOK_clean_linker_0, # of connection points: 2
#     Edge 57, Type (0, 0), BuildingBlock: AJUNOK_clean_linker_0, # of connection points: 2
#     Edge 58, Type (0, 0), BuildingBlock: AJUNOK_clean_linker_0, # of connection points: 2
#     Edge 59, Type (0, 0), BuildingBlock: AJUNOK_clean_linker_0, # of connection points: 2
#     Edge 60, Type (0, 0), BuildingBlock: AJUNOK_clean_linker_0, # of connection points: 2
#     Edge 61, Type (0, 0), BuildingBlock: AJUNOK_clean_linker_0, # of connection points: 2
#     Edge 62, Type (0, 0), BuildingBlock: AJUNOK_clean_linker_0, # of connection points: 2
#     Edge 63, Type (0, 0), BuildingBlock: AJUNOK_clean_linker_0, # of connection points: 2
# Relax obj value: 0.384
# Max RMSD: 0.249
# Mean RMSD: 0.247
data_MOF--net-whr--node1-VOLQOD_clean_sbu_1--edge1-AJUNOK_clean_linker_0
_symmetry_space_group_name_H-M    P1
_symmetry_Int_Tables_number       1
_symmetry_cell_setting            triclinic
loop_
_symmetry_equiv_pos_as_xyz
'x, y, z'
_cell_length_a     40.302455
_cell_length_b     40.061711
_cell_length_c     21.984649
_cell_angle_alpha  90.004269
_cell_angle_beta   90.104548
_cell_angle_gamma 90.087777
loop_
_atom_site_label
_atom_site_type_symbol
_atom_site_fract_x
_atom_site_fract_y
_atom_site_fract_z
_atom_type_partial_charge
O0 O 0.14328 0.05708 0.14872 0.0
Zn1 Zn 0.15419 0.03623 0.06886 0.0
O2 O 0.20033 0.04198 0.04831 0.0
Zn3 Zn 0.22103 -0.00179 0.04159 0.0
Zn4 Zn 0.22057 0.06731 0.11223 0.0
Zn5 Zn 0.20445 0.06951 0.97672 0.0
O6 O 0.24433 -0.0039 0.95758 0.0
O7 O 0.22323 0.04097 0.91109 0.0
O8 O 0.13982 -0.0113 0.06804 0.0
O9 O 0.18559 0.96141 0.04261 0.0
O10 O 0.24808 -0.01095 0.12023 0.0
O11 O 0.24146 0.03669 0.1704 0.0
O12 O 0.25336 0.10104 0.0842 0.0
O13 O 0.12572 0.06145 0.0113 0.0
O14 O 0.2374 0.10667 0.98851 0.0
O15 O 0.16036 0.09066 0.95354 0.0
C16 C 0.15699 0.08251 0.17262 0.0
C17 C 0.24034 0.01421 0.90982 0.0
C18 C 0.25135 0.00664 0.16864 0.0
C19 C 0.15476 0.9616 0.05587 0.0
C20 C 0.25553 0.11558 0.03309 0.0
C21 C 0.13106 0.08353 0.97098 0.0
O22 O 0.18605 0.0916 0.15779 0.0
O23 O 0.04519 0.81855 0.85442 0.0
Zn24 Zn 0.02672 0.81276 0.9379 0.0
O25 O 0.03399 0.76803 0.96586 0.0
Zn26 Zn -0.00813 0.74562 0.97459 0.0
Zn27 Zn 0.05985 0.74625 0.90531 0.0
Zn28 Zn 0.0608 0.76746 0.03797 0.0
O29 O -0.00764 0.72111 0.05727 0.0
O30 O 0.03274 0.74933 0.10495 0.0
O31 O 0.97856 0.82579 0.94051 0.0
O32 O 0.95514 0.78016 0.97869 0.0
O33 O 0.98189 0.71965 0.89486 0.0
O34 O 0.02991 0.72505 0.8464 0.0
O35 O 0.09054 0.71227 0.93979 0.0
O36 O 0.05349 0.84457 0.9884 0.0
O37 O 0.09747 0.7338 0.03175 0.0
O38 O 0.08111 0.81318 0.05469 0.0
C39 C 0.07237 0.80648 0.83495 0.0
C40 C 0.00891 0.72826 0.1056 0.0
C41 C -0.00019 0.71576 0.84723 0.0
C42 C 0.9532 0.81035 0.96058 0.0
C43 C 0.10475 0.71229 0.99141 0.0
C44 C 0.07494 0.8415 0.03062 0.0
O45 O 0.08495 0.78029 0.85823 0.0
O46 O 0.81635 0.91951 0.16587 0.0
Zn47 Zn 0.81003 0.9384 0.0831 0.0
O48 O 0.76487 0.93498 0.05553 0.0
Zn49 Zn 0.74627 0.97948 0.04715 0.0
Zn50 Zn 0.74228 0.91059 0.11771 0.0
Zn51 Zn 0.76206 0.90821 0.98268 0.0
O52 O 0.7236 0.98247 0.9628 0.0
O53 O 0.74365 0.93708 0.91652 0.0
O54 O 0.82689 0.9849 0.0808 0.0
O55 O 0.78347 0.01431 0.04975 0.0
O56 O 0.71826 -0.01008 0.1234 0.0
O57 O 0.72095 0.94204 0.17441 0.0
O58 O 0.70923 0.87883 0.08547 0.0
O59 O 0.83917 0.90958 0.03281 0.0
O60 O 0.72885 0.87101 0.99258 0.0
O61 O 0.80662 0.88672 0.96235 0.0
C62 C 0.80295 0.89263 0.18431 0.0
C63 C 0.72718 0.96429 0.91512 0.0
C64 C 0.71239 0.97249 0.17109 0.0
C65 C 0.8139 0.01256 0.06572 0.0
C66 C 0.70884 0.86338 0.03512 0.0
C67 C 0.83488 0.89017 0.98784 0.0
O68 O 0.77482 0.88348 0.16429 0.0
O69 O 0.91467 0.15099 0.86404 0.0
Zn70 Zn 0.93767 0.15976 0.94261 0.0
O71 O 0.9318 0.20505 0.96891 0.0
Zn72 Zn 0.97472 0.2268 0.97664 0.0
Zn73 Zn 0.9059 0.22709 0.90818 0.0
Zn74 Zn 0.90567 0.20606 0.04197 0.0
O75 O 0.97671 0.24939 0.06157 0.0
O76 O 0.93387 0.22483 0.10814 0.0
O77 O -0.01481 0.14736 0.93648 0.0
O78 O 0.01158 0.19202 0.9718 0.0
O79 O 0.98328 0.25517 0.89963 0.0
O80 O 0.93581 0.2488 0.84955 0.0
O81 O 0.87408 0.25971 0.94257 0.0
O82 O 0.91522 0.12831 0.99922 0.0
O83 O 0.86827 0.23856 0.035 0.0
O84 O 0.88633 0.16047 0.06202 0.0
C85 C 0.88898 0.16519 0.84268 0.0
C86 C 0.95932 0.24379 0.1095 0.0
C87 C 0.96573 0.25875 0.85139 0.0
C88 C 0.0119 0.16217 0.95146 0.0
C89 C 0.85995 0.2594 0.99417 0.0
C90 C 0.89407 0.13174 0.04157 0.0
O91 O 0.88007 0.19383 0.86116 0.0
O92 O 0.71163 0.0136 0.46119 0.0
Zn93 Zn 0.72076 0.03515 0.54506 0.0
O94 O 0.76777 0.046 0.54934 0.0
Zn95 Zn 0.7889 0.02642 0.61791 0.0
Zn96 Zn 0.79192 0.03206 0.47973 0.0
Zn97 Zn 0.77328 0.09305 0.5575 0.0
O98 O 0.817 0.06018 0.66061 0.0
O99 O 0.78535 0.10423 0.64244 0.0
O100 O 0.70621 0.01075 0.6242 0.0
O101 O 0.75404 0.01357 0.6754 0.0
O102 O 0.81452 0.98498 0.5967 0.0
O103 O 0.81348 -0.01248 0.49593 0.0
O104 O 0.82859 0.06509 0.45923 0.0
O105 O 0.69417 0.078 0.54154 0.0
O106 O 0.81195 0.10956 0.51026 0.0
O107 O 0.73276 0.11758 0.53363 0.0
C108 C 0.72844 0.01773 0.41219 0.0
C109 C 0.80859 0.09017 0.67198 0.0
C110 C 0.82137 0.9725 0.54503 0.0
C111 C 0.72321 0.00721 0.67312 0.0
C112 C 0.83264 0.09541 0.47526 0.0
C113 C 0.70263 0.10829 0.53295 0.0
O114 O 0.75864 0.02739 0.41306 0.0
O115 O 0.05544 0.14711 0.36807 0.0
Zn116 Zn 0.0341 0.15788 0.44755 0.0
O117 O 0.04204 0.2035 0.47079 0.0
Zn118 Zn 0.00012 0.22697 0.47804 0.0
Zn119 Zn 0.06786 0.22326 0.408 0.0
Zn120 Zn 0.06949 0.20547 0.54262 0.0
O121 O -0.00058 0.25002 0.56249 0.0
O122 O 0.04171 0.22449 0.60921 0.0
O123 O -0.01413 0.14668 0.44412 0.0
O124 O 0.96213 0.19343 0.47575 0.0
O125 O -0.00812 0.25493 0.39984 0.0
O126 O 0.03849 0.24518 0.34938 0.0
O127 O 0.10062 0.25584 0.43856 0.0
O128 O 0.05684 0.12713 0.50511 0.0
O129 O 0.10684 0.23861 0.53347 0.0
O130 O 0.08885 0.15965 0.56258 0.0
C131 C 0.08119 0.16022 0.34468 0.0
C132 C 0.01667 0.24396 0.61051 0.0
C133 C 0.0093 0.25692 0.35121 0.0
C134 C 0.96005 0.1631 0.45828 0.0
C135 C 0.11506 0.2577 0.48974 0.0
C136 C 0.07949 0.13078 0.54491 0.0
O137 O 0.09167 0.18857 0.36194 0.0
O138 O 0.13638 0.90793 0.63534 0.0
Zn139 Zn 0.15083 0.93264 0.56183 0.0
O140 O 0.19735 0.92676 0.5476 0.0
Zn141 Zn 0.2189 0.97028 0.54185 0.0
Zn142 Zn 0.21552 0.9011 0.61314 0.0
Zn143 Zn 0.20232 0.89933 0.47646 0.0
O144 O 0.24203 0.9726 0.45739 0.0
O145 O 0.2203 0.92806 0.41066 0.0
O146 O 0.13831 0.98022 0.56986 0.0
O147 O 0.18417 0.00773 0.54598 0.0
O148 O 0.24678 0.97819 0.62012 0.0
O149 O 0.23608 0.93175 0.6719 0.0
O150 O 0.24966 0.86877 0.58563 0.0
O151 O 0.12349 0.91181 0.49663 0.0
O152 O 0.2369 0.8642 0.48817 0.0
O153 O 0.15892 0.87676 0.45336 0.0
C154 C 0.14957 0.88387 0.66414 0.0
C155 C 0.23777 0.95461 0.4095 0.0
C156 C 0.24821 0.961 0.6693 0.0
C157 C 0.15349 0.00753 0.56057 0.0
C158 C 0.25432 0.85565 0.5338 0.0
C159 C 0.12942 0.88699 0.46233 0.0
O160 O 0.17992 0.8763 0.65669 0.0
O161 O 0.91498 0.81629 0.34203 0.0
Zn162 Zn 0.93518 0.81176 0.42398 0.0
O163 O 0.9276 0.76918 0.45984 0.0
Zn164 Zn 0.9699 0.74707 0.46956 0.0
Zn165 Zn 0.90059 0.74691 0.40164 0.0
Zn166 Zn 0.90138 0.7722 0.53285 0.0
O167 O 0.97021 0.72595 0.55555 0.0
O168 O 0.92922 0.75417 0.60077 0.0
O169 O 0.98262 0.82384 0.42063 0.0
O170 O 0.00791 0.78113 0.46452 0.0
O171 O 0.97738 0.71744 0.39382 0.0
O172 O 0.92981 0.72388 0.3438 0.0
O173 O 0.8693 0.71549 0.43983 0.0
O174 O 0.9117 0.8459 0.4718 0.0
O175 O 0.86245 0.74007 0.52933 0.0
O176 O 0.88495 0.82023 0.5466 0.0
C177 C 0.88606 0.80582 0.32901 0.0
C178 C 0.95359 0.73384 0.60331 0.0
C179 C 0.95954 0.71343 0.34598 0.0
C180 C 0.00885 0.81014 0.4404 0.0
C181 C 0.85461 0.71764 0.49073 0.0
C182 C 0.89203 0.84672 0.51684 0.0
O183 O 0.87415 0.78021 0.35511 0.0
O184 O 0.64491 0.55633 0.6543 0.0
Zn185 Zn 0.65582 0.53455 0.57534 0.0
O186 O 0.70163 0.54122 0.55359 0.0
Zn187 Zn 0.72327 0.49798 0.54614 0.0
Zn188 Zn 0.72173 0.56716 0.61675 0.0
Zn189 Zn 0.70454 0.56889 0.48225 0.0
O190 O 0.74605 0.49668 0.46131 0.0
O191 O 0.72321 0.54101 0.41587 0.0
O192 O 0.64311 0.48651 0.57811 0.0
O193 O 0.68877 0.46019 0.54912 0.0
O194 O 0.75112 0.48966 0.62421 0.0
O195 O 0.7429 0.53688 0.67504 0.0
O196 O 0.75445 0.60066 0.58767 0.0
O197 O 0.62608 0.55845 0.51757 0.0
O198 O 0.73718 0.60638 0.49276 0.0
O199 O 0.65994 0.5893 0.46109 0.0
C200 C 0.65812 0.5824 0.67677 0.0
C201 C 0.74119 0.51486 0.41387 0.0
C202 C 0.75375 0.50717 0.67288 0.0
C203 C 0.65836 0.45964 0.56538 0.0
C204 C 0.75592 0.61523 0.53651 0.0
C205 C 0.63082 0.58126 0.47831 0.0
O206 O 0.68703 0.59177 0.66149 0.0
O207 O 0.5528 0.32562 0.36976 0.0
Zn208 Zn 0.53123 0.31577 0.44919 0.0
O209 O 0.53614 0.26956 0.47066 0.0
Zn210 Zn 0.49266 0.24887 0.47597 0.0
Zn211 Zn 0.56153 0.24892 0.40793 0.0
Zn212 Zn 0.56258 0.26556 0.54328 0.0
O213 O 0.49021 0.22501 0.55933 0.0
O214 O 0.53284 0.24863 0.6086 0.0
O215 O 0.48398 0.33031 0.44742 0.0
O216 O 0.45643 0.28455 0.47363 0.0
O217 O 0.48372 0.22197 0.39722 0.0
O218 O 0.53115 0.22925 0.3476 0.0
O219 O 0.5926 0.21441 0.4384 0.0
O220 O 0.55657 0.34469 0.50645 0.0
O221 O 0.5967 0.22924 0.53534 0.0
O222 O 0.58595 0.30971 0.56354 0.0
C223 C 0.57884 0.31208 0.34852 0.0
C224 C 0.50696 0.23019 0.60827 0.0
C225 C 0.50123 0.21927 0.34884 0.0
C226 C 0.45686 0.31539 0.45906 0.0
C227 C 0.60501 0.21067 0.49103 0.0
C228 C 0.57915 0.33926 0.54567 0.0
O229 O 0.58787 0.28312 0.36499 0.0
O230 O 0.3199 0.4207 0.65949 0.0
Zn231 Zn 0.31125 0.44097 0.57886 0.0
O232 O 0.26587 0.43535 0.55431 0.0
Zn233 Zn 0.24524 0.47909 0.54631 0.0
Zn234 Zn 0.24441 0.40965 0.61691 0.0
Zn235 Zn 0.26399 0.40908 0.48094 0.0
O236 O 0.22236 0.48165 0.46207 0.0
O237 O 0.24469 0.43759 0.41508 0.0
O238 O 0.32525 0.48829 0.58049 0.0
O239 O 0.28049 0.51583 0.55023 0.0
O240 O 0.21714 0.48814 0.62269 0.0
O241 O 0.22215 0.4406 0.67405 0.0
O242 O 0.21236 0.37635 0.58367 0.0
O243 O 0.34156 0.41586 0.52431 0.0
O244 O 0.23157 0.37167 0.48974 0.0
O245 O 0.30891 0.38864 0.45972 0.0
C246 C 0.30654 0.39501 0.68285 0.0
C247 C 0.22673 0.46381 0.4142 0.0
C248 C 0.21272 0.47083 0.671 0.0
C249 C 0.3108 0.51546 0.56714 0.0
C250 C 0.21186 0.36252 0.53162 0.0
C251 C 0.33761 0.39488 0.48155 0.0
O252 O 0.27823 0.38474 0.66532 0.0
O253 O 0.41605 0.6495 0.36801 0.0
Zn254 Zn 0.43741 0.6592 0.44768 0.0
O255 O 0.43204 0.70522 0.47059 0.0
Zn256 Zn 0.47534 0.7265 0.47732 0.0
Zn257 Zn 0.4062 0.72667 0.40866 0.0
Zn258 Zn 0.40632 0.70774 0.54415 0.0
O259 O 0.47793 0.74989 0.56135 0.0
O260 O 0.4352 0.72616 0.60953 0.0
O261 O 0.48471 0.64559 0.4452 0.0
O262 O 0.51177 0.69119 0.47411 0.0
O263 O 0.48414 0.75418 0.39953 0.0
O264 O 0.43614 0.749 0.3508 0.0
O265 O 0.37318 0.75885 0.44155 0.0
O266 O 0.41296 0.62932 0.50424 0.0
O267 O 0.36979 0.741 0.53661 0.0
O268 O 0.38525 0.66322 0.56571 0.0
C269 C 0.39144 0.66394 0.34325 0.0
C270 C 0.461 0.74465 0.60994 0.0
C271 C 0.46624 0.75839 0.35192 0.0
C272 C 0.51165 0.66059 0.4579 0.0
C273 C 0.36028 0.76027 0.49418 0.0
C274 C 0.39163 0.63405 0.54586 0.0
O275 O 0.38211 0.69281 0.35987 0.0
O276 O 0.2119 0.51327 0.96108 0.0
Zn277 Zn 0.22049 0.53567 0.04445 0.0
O278 O 0.26739 0.54699 0.05006 0.0
Zn279 Zn 0.28834 0.5272 0.11882 0.0
Zn280 Zn 0.29176 0.53312 0.98054 0.0
Zn281 Zn 0.27301 0.59399 0.06044 0.0
O282 O 0.31854 0.55973 0.16034 0.0
O283 O 0.28767 0.60446 0.14394 0.0
O284 O 0.20593 0.51157 0.12434 0.0
O285 O 0.2533 0.51569 0.17681 0.0
O286 O 0.31248 0.48507 0.09774 0.0
O287 O 0.31376 0.48869 0.9971 0.0
O288 O 0.32775 0.56685 0.96021 0.0
O289 O 0.19381 0.57856 0.03918 0.0
O290 O 0.31006 0.61149 0.00977 0.0
O291 O 0.23174 0.61881 0.04472 0.0
C292 C 0.22872 0.51765 0.9122 0.0
C293 C 0.3114 0.59006 0.17135 0.0
C294 C 0.32034 0.47306 0.04623 0.0
C295 C 0.22254 0.50899 0.17398 0.0
C296 C 0.331 0.59746 0.97503 0.0
C297 C 0.20183 0.60936 0.03898 0.0
O298 O 0.25875 0.52783 0.91326 0.0
O299 O 0.55326 0.64938 0.8634 0.0
Zn300 Zn 0.53223 0.65898 0.94362 0.0
O301 O 0.54074 0.70404 0.96931 0.0
Zn302 Zn 0.49932 0.72818 0.97692 0.0
Zn303 Zn 0.56765 0.7241 0.90823 0.0
Zn304 Zn 0.56736 0.70444 0.04194 0.0
O305 O 0.49887 0.75081 0.06181 0.0
O306 O 0.53958 0.72295 0.10883 0.0
O307 O 0.48379 0.64843 0.94057 0.0
O308 O 0.46082 0.69526 0.97389 0.0
O309 O 0.49206 0.75678 0.89923 0.0
O310 O 0.53908 0.74712 0.84979 0.0
O311 O 0.6004 0.75609 0.94126 0.0
O312 O 0.55511 0.62705 0.99894 0.0
O313 O 0.60471 0.73739 0.03563 0.0
O314 O 0.58634 0.65836 0.05989 0.0
C315 C 0.5799 0.66181 0.84219 0.0
C316 C 0.51546 0.74355 0.11004 0.0
C317 C 0.51007 0.7593 0.85139 0.0
C318 C 0.45827 0.66512 0.95556 0.0
C319 C 0.61367 0.75722 0.99359 0.0
C320 C 0.57738 0.62987 0.03969 0.0
O321 O 0.59129 0.68937 0.86174 0.0
O322 O 0.64399 0.41349 0.15381 0.0
Zn323 Zn 0.65411 0.43355 0.07341 0.0
O324 O 0.69998 0.42842 0.05248 0.0
Zn325 Zn 0.72058 0.47234 0.04521 0.0
Zn326 Zn 0.72032 0.40343 0.11651 0.0
Zn327 Zn 0.70374 0.40089 0.9809 0.0
O328 O 0.74411 0.4739 0.96124 0.0
O329 O 0.72203 0.4294 0.91486 0.0
O330 O 0.63986 0.48078 0.07317 0.0
O331 O 0.68487 0.50889 0.04612 0.0
O332 O 0.74797 0.48187 0.12358 0.0
O333 O 0.74158 0.43422 0.1738 0.0
O334 O 0.75354 0.37088 0.08742 0.0
O335 O 0.62526 0.40792 0.01675 0.0
O336 O 0.73776 0.3649 0.99164 0.0
O337 O 0.65978 0.3788 0.95874 0.0
C338 C 0.65771 0.38863 0.17939 0.0
C339 C 0.7398 0.45577 0.91356 0.0
C340 C 0.7516 0.46424 0.17185 0.0
C341 C 0.65414 0.50813 0.06026 0.0
C342 C 0.7563 0.35676 0.03605 0.0
C343 C 0.63052 0.38573 0.97664 0.0
O344 O 0.68643 0.37891 0.16384 0.0
O345 O 0.41753 0.31914 0.84784 0.0
Zn346 Zn 0.43646 0.31322 0.93055 0.0
O347 O 0.4273 0.27028 0.96376 0.0
Zn348 Zn 0.46876 0.24653 0.97265 0.0
Zn349 Zn 0.39956 0.25007 0.90428 0.0
Zn350 Zn 0.40072 0.27297 0.03629 0.0
O351 O 0.46844 0.22513 0.05845 0.0
O352 O 0.42837 0.25467 0.10397 0.0
O353 O 0.48427 0.3245 0.93071 0.0
O354 O 0.50793 0.27924 0.9691 0.0
O355 O 0.4751 0.2172 0.89594 0.0
O356 O 0.42796 0.22666 0.84599 0.0
O357 O 0.36726 0.21889 0.9402 0.0
O358 O 0.41257 0.3471 0.9781 0.0
O359 O 0.36186 0.24083 0.03216 0.0
O360 O 0.38407 0.32091 0.05007 0.0
C361 C 0.38798 0.31065 0.83488 0.0
C362 C 0.45203 0.23351 0.10622 0.0
C363 C 0.457 0.21445 0.84809 0.0
C364 C 0.50995 0.309 0.94866 0.0
C365 C 0.35324 0.21966 0.99183 0.0
C366 C 0.39191 0.34762 0.02162 0.0
O367 O 0.37474 0.28521 0.85937 0.0
C368 C 0.11132 0.08863 0.2476 0.0
C369 C 0.13817 0.10279 0.21617 0.0
C370 C 0.09272 0.10756 0.28844 0.0
C371 C 0.10021 0.14138 0.29903 0.0
H372 H 0.1048 0.06262 0.24115 0.0
H373 H 0.07258 0.09538 0.31237 0.0
S374 S 0.16664 0.19089 0.22417 0.0
N375 N 0.17043 0.15299 0.19572 0.0
N376 N 0.13537 0.18872 0.27231 0.0
C377 C 0.12664 0.15604 0.26685 0.0
C378 C 0.14568 0.1367 0.22551 0.0
C379 C 0.12565 0.82156 0.78549 0.0
C380 C 0.09099 0.82484 0.7883 0.0
C381 C 0.14435 0.84075 0.74514 0.0
C382 C 0.12905 0.86382 0.70592 0.0
H383 H 0.13861 0.80469 0.81581 0.0
H384 H 0.17106 0.83773 0.74539 0.0
S385 S 0.03844 0.87921 0.69143 0.0
N386 N 0.04171 0.8511 0.74596 0.0
N387 N 0.07678 0.88714 0.66951 0.0
C388 C 0.09421 0.86659 0.70698 0.0
C389 C 0.0752 0.84709 0.74831 0.0
C390 C 0.87287 0.86048 0.28204 0.0
C391 C 0.86471 0.82664 0.29021 0.0
C392 C 0.85211 0.88178 0.2495 0.0
C393 C 0.82239 0.8701 0.22353 0.0
H394 H 0.89525 0.87091 0.30178 0.0
H395 H 0.85964 0.9076 0.24443 0.0
S396 S 0.79018 0.78321 0.23019 0.0
N397 N 0.82523 0.78213 0.26909 0.0
N398 N 0.78604 0.8222 0.20721 0.0
C399 C 0.81385 0.83625 0.23127 0.0
C400 C 0.83508 0.81451 0.26467 0.0
C401 C 0.85509 0.09503 0.746 0.0
C402 C 0.8277 0.10972 0.71684 0.0
C403 C 0.87494 0.11334 0.78591 0.0
C404 C 0.86816 0.14707 0.79844 0.0
H405 H 0.86157 0.0692 0.73769 0.0
H406 H 0.89567 0.10074 0.80731 0.0
S407 S 0.7991 0.19738 0.73427 0.0
N408 N 0.79454 0.16008 0.70361 0.0
N409 N 0.83202 0.19456 0.77864 0.0
C410 C 0.84072 0.16212 0.76988 0.0
C411 C 0.82044 0.14343 0.72916 0.0
C412 C 0.59265 0.60842 0.78951 0.0
C413 C 0.59922 0.64263 0.79756 0.0
C414 C 0.61201 0.58905 0.75061 0.0
C415 C 0.63868 0.60317 0.71859 0.0
H416 H 0.57279 0.59627 0.81422 0.0
H417 H 0.60623 0.56274 0.74615 0.0
S418 S 0.66444 0.69221 0.7196 0.0
N419 N 0.63301 0.6903 0.76747 0.0
N420 N 0.66956 0.65376 0.69443 0.0
C421 C 0.64517 0.63748 0.72522 0.0
C422 C 0.62536 0.65726 0.76463 0.0
C423 C 0.58572 0.35767 0.2733 0.0
C424 C 0.59961 0.33102 0.30596 0.0
C425 C 0.60493 0.37651 0.23335 0.0
C426 C 0.63879 0.36948 0.22477 0.0
H427 H 0.55969 0.36387 0.27806 0.0
H428 H 0.59289 0.39645 0.20845 0.0
S429 S 0.68759 0.3037 0.30335 0.0
N430 N 0.64954 0.2994 0.3298 0.0
N431 N 0.68585 0.33495 0.25458 0.0
C432 C 0.6532 0.34326 0.25817 0.0
C433 C 0.63354 0.32396 0.29874 0.0
C434 C 0.3391 0.31995 0.76776 0.0
C435 C 0.3677 0.33259 0.79626 0.0
C436 C 0.31869 0.34065 0.73288 0.0
C437 C 0.32614 0.37472 0.72553 0.0
H438 H 0.33259 0.29379 0.77183 0.0
H439 H 0.29742 0.32961 0.7103 0.0
S440 S 0.39613 0.42083 0.79668 0.0
N441 N 0.40115 0.38179 0.81872 0.0
N442 N 0.36264 0.42075 0.75343 0.0
C443 C 0.35409 0.38791 0.75546 0.0
C444 C 0.37496 0.36681 0.79068 0.0
C445 C 0.35301 0.59289 0.25502 0.0
C446 C 0.33179 0.60946 0.21427 0.0
C447 C 0.3728 0.6108 0.29577 0.0
C448 C 0.37202 0.64588 0.29718 0.0
H449 H 0.35411 0.56587 0.25601 0.0
H450 H 0.38828 0.59697 0.32723 0.0
S451 S 0.32303 0.70129 0.1961 0.0
N452 N 0.31275 0.6631 0.17512 0.0
N453 N 0.34996 0.69667 0.25207 0.0
C454 C 0.35152 0.66282 0.25578 0.0
C455 C 0.33138 0.64462 0.21423 0.0
C456 C 0.10065 0.93204 0.04352 0.0
C457 C 0.13501 0.93028 0.05477 0.0
C458 C 0.08123 0.90317 0.0388 0.0
C459 C 0.09514 0.87127 0.04624 0.0
H460 H 0.0887 0.95592 0.03625 0.0
H461 H 0.05515 0.90588 0.02779 0.0
S462 S 0.18335 0.85289 0.08152 0.0
N463 N 0.18186 0.89402 0.07674 0.0
N464 N 0.14514 0.8396 0.06869 0.0
C465 C 0.12917 0.86909 0.06028 0.0
C466 C 0.14916 0.8986 0.06414 0.0
C467 C 0.88517 0.87383 0.92877 0.0
C468 C 0.86191 0.8668 0.97436 0.0
C469 C 0.91435 0.85487 0.9237 0.0
C470 C 0.92108 0.82827 0.96396 0.0
H471 H 0.88141 0.89482 0.89849 0.0
H472 H 0.93204 0.86148 0.88865 0.0
S473 S 0.86761 0.80075 0.0919 0.0
N474 N 0.84719 0.8321 0.06066 0.0
N475 N 0.90162 0.79617 0.05093 0.0
C476 C 0.8974 0.82065 0.00882 0.0
C477 C 0.86794 0.84008 0.01415 0.0
C478 C 0.84018 0.10391 0.06559 0.0
C479 C 0.87485 0.1019 0.05932 0.0
C480 C 0.82057 0.07493 0.06839 0.0
C481 C 0.83502 0.04296 0.06597 0.0
H482 H 0.82793 0.12796 0.06484 0.0
H483 H 0.79389 0.07762 0.07139 0.0
S484 S 0.92525 0.02462 0.0552 0.0
N485 N 0.92304 0.06574 0.05463 0.0
N486 N 0.8866 0.01134 0.06082 0.0
C487 C 0.86991 0.0408 0.06289 0.0
C488 C 0.8897 0.07024 0.05936 0.0
C489 C 0.04213 0.10804 0.94608 0.0
C490 C 0.04338 0.14317 0.94777 0.0
C491 C 0.07104 0.08889 0.94874 0.0
C492 C 0.10244 0.10401 0.95213 0.0
H493 H 0.01855 0.09502 0.94561 0.0
H494 H 0.06869 0.06196 0.9509 0.0
S495 S 0.11981 0.19495 0.95016 0.0
N496 N 0.07892 0.19234 0.94741 0.0
N497 N 0.13347 0.1561 0.95197 0.0
C498 C 0.10434 0.13904 0.94962 0.0
C499 C 0.07475 0.15868 0.94774 0.0
C500 C 0.85756 0.93318 0.48833 0.0
C501 C 0.8396 0.94045 0.54129 0.0
C502 C 0.87483 0.90323 0.48218 0.0
C503 C 0.87471 0.87881 0.52842 0.0
H504 H 0.85845 0.95084 0.45104 0.0
H505 H 0.88788 0.89908 0.43981 0.0
S506 S 0.83146 0.88555 0.67667 0.0
N507 N 0.82284 0.92098 0.64161 0.0
N508 N 0.85512 0.86411 0.62948 0.0
C509 C 0.85693 0.88568 0.58193 0.0
C510 C 0.83952 0.91663 0.58855 0.0
C511 C 0.86818 0.14651 0.48198 0.0
C512 C 0.86395 0.11349 0.46105 0.0
C513 C 0.89901 0.16257 0.4793 0.0
C514 C 0.92708 0.14639 0.45559 0.0
H515 H 0.84779 0.15984 0.5028 0.0
H516 H 0.90095 0.18756 0.4978 0.0
S517 S 0.92858 0.06141 0.38742 0.0
N518 N 0.88995 0.06628 0.41051 0.0
N519 N 0.94789 0.09645 0.40512 0.0
C520 C 0.92285 0.11404 0.43122 0.0
C521 C 0.89133 0.09766 0.43391 0.0
C522 C 0.13299 0.10053 0.56094 0.0
C523 C 0.09811 0.10057 0.56265 0.0
C524 C 0.15089 0.07042 0.56189 0.0
C525 C 0.13452 0.03934 0.56519 0.0
H526 H 0.14646 0.12371 0.55489 0.0
H527 H 0.17766 0.07152 0.55814 0.0
S528 S 0.04323 0.02681 0.57835 0.0
N529 N 0.04794 0.06762 0.57309 0.0
N530 N 0.08106 0.01117 0.57596 0.0
C531 C 0.0996 0.03943 0.57094 0.0
C532 C 0.08155 0.07 0.5694 0.0
C533 C 0.10067 0.83209 0.45252 0.0
C534 C 0.10073 0.86679 0.44276 0.0
C535 C 0.07102 0.81364 0.45007 0.0
C536 C 0.0405 0.82923 0.43712 0.0
H537 H 0.12327 0.81948 0.4661 0.0
H538 H 0.07192 0.7872 0.46027 0.0
S539 S 0.02865 0.91923 0.40079 0.0
N540 N 0.06871 0.9156 0.41472 0.0
N541 N 0.01312 0.88135 0.40883 0.0
C542 C 0.04083 0.86368 0.42329 0.0
C543 C 0.0709 0.88234 0.42644 0.0
C544 C 0.60445 0.42882 0.57043 0.0
C545 C 0.63938 0.42771 0.56772 0.0
C546 C 0.58528 0.39973 0.56774 0.0
C547 C 0.60008 0.3681 0.56325 0.0
H548 H 0.59154 0.45249 0.57221 0.0
H549 H 0.5585 0.40212 0.5668 0.0
S550 S 0.69044 0.35072 0.56043 0.0
N551 N 0.68805 0.39182 0.56462 0.0
N552 N 0.65176 0.33699 0.55999 0.0
C553 C 0.63494 0.36627 0.56402 0.0
C554 C 0.65462 0.39608 0.56598 0.0
C555 C 0.39859 0.38936 0.46868 0.0
C556 C 0.3669 0.37486 0.4639 0.0
C557 C 0.42734 0.36998 0.46513 0.0
C558 C 0.42569 0.33511 0.45769 0.0
H559 H 0.40119 0.41586 0.47741 0.0
H560 H 0.45105 0.38239 0.47075 0.0
S561 S 0.34881 0.2852 0.43729 0.0
N562 N 0.33549 0.32382 0.44689 0.0
N563 N 0.38971 0.28716 0.44077 0.0
C564 C 0.39421 0.32039 0.45009 0.0
C565 C 0.36479 0.34032 0.45285 0.0
C566 C 0.36546 0.54449 0.56493 0.0
C567 C 0.33066 0.54661 0.56907 0.0
C568 C 0.3852 0.57312 0.56185 0.0
C569 C 0.37108 0.60513 0.56378 0.0
H570 H 0.37763 0.52047 0.56146 0.0
H571 H 0.41169 0.57015 0.55553 0.0
S572 S 0.28164 0.62461 0.58155 0.0
N573 N 0.2831 0.58341 0.58012 0.0
N574 N 0.32042 0.63749 0.57483 0.0
C575 C 0.33654 0.60778 0.57172 0.0
C576 C 0.31627 0.57847 0.57401 0.0
C577 C 0.54144 0.60609 0.45756 0.0
C578 C 0.54295 0.6412 0.45567 0.0
C579 C 0.57024 0.58677 0.46051 0.0
C580 C 0.60182 0.60165 0.46074 0.0
H581 H 0.51777 0.59328 0.45931 0.0
H582 H 0.5677 0.55995 0.46499 0.0
S583 S 0.61975 0.69234 0.44966 0.0
N584 N 0.57883 0.68998 0.44919 0.0
N585 N 0.63316 0.65348 0.45436 0.0
C586 C 0.60389 0.63659 0.45512 0.0
C587 C 0.57442 0.65641 0.45289 0.0
C588 C 0.37585 0.4045 0.98704 0.0
C589 C 0.37425 0.37961 0.03239 0.0
C590 C 0.35822 0.4343 0.99206 0.0
C591 C 0.33847 0.44097 0.04307 0.0
H592 H 0.39041 0.40087 0.94624 0.0
H593 H 0.36033 0.45236 0.95557 0.0
S594 S 0.32579 0.38467 0.17535 0.0
N595 N 0.35118 0.3638 0.13037 0.0
N596 N 0.31828 0.42042 0.14052 0.0
C597 C 0.33683 0.41666 0.08943 0.0
C598 C 0.35458 0.38587 0.08388 0.0
C599 C 0.36697 0.64815 0.98486 0.0
C600 C 0.36198 0.616 0.96022 0.0
C601 C 0.3978 0.66417 0.98146 0.0
C602 C 0.4251 0.64882 0.9533 0.0
H603 H 0.34729 0.66069 0.00932 0.0
H604 H 0.40044 0.68834 1.00305 0.0
S605 S 0.42414 0.56686 0.87383 0.0
N606 N 0.38623 0.57089 0.9011 0.0
N607 N 0.44417 0.60101 0.89444 0.0
C608 C 0.42001 0.61754 0.9252 0.0
C609 C 0.38849 0.6012 0.92862 0.0
C610 C 0.63085 0.60039 0.06106 0.0
C611 C 0.59604 0.59943 0.05611 0.0
C612 C 0.64957 0.57081 0.06306 0.0
C613 C 0.63409 0.53927 0.06098 0.0
H614 H 0.64383 0.62407 0.06005 0.0
H615 H 0.67636 0.57271 0.06521 0.0
S616 S 0.54311 0.52368 0.05343 0.0
N617 N 0.54668 0.5647 0.05307 0.0
N618 N 0.58138 0.50926 0.05744 0.0
C619 C 0.59909 0.53818 0.05903 0.0
C620 C 0.58021 0.56821 0.05647 0.0
C621 C 0.54166 0.36245 0.94576 0.0
C622 C 0.54203 0.3273 0.94845 0.0
C623 C 0.57087 0.38109 0.95071 0.0
C624 C 0.60179 0.36544 0.95732 0.0
H625 H 0.51845 0.37593 0.94243 0.0
H626 H 0.56909 0.40808 0.95166 0.0
S627 S 0.61712 0.27422 0.96104 0.0
N628 N 0.57643 0.27751 0.95403 0.0
N629 N 0.63159 0.31282 0.96253 0.0
C630 C 0.60294 0.33036 0.95654 0.0
C631 C 0.573 0.31123 0.95247 0.0
C632 C 0.26109 0.95574 0.78015 0.0
C633 C 0.25763 0.97647 0.7285 0.0
C634 C 0.25842 0.96849 0.83936 0.0
C635 C 0.25232 0.00255 0.84938 0.0
H636 H 0.26324 0.92894 0.77491 0.0
H637 H 0.25854 0.95109 0.87708 0.0
S638 S 0.25028 0.06872 0.73074 0.0
N639 N 0.25417 0.03363 0.69206 0.0
N640 N 0.24984 0.0578 0.80315 0.0
C641 C 0.25312 0.02413 0.79853 0.0
C642 C 0.25572 0.01107 0.73815 0.0
C643 C 0.95417 0.70001 0.23544 0.0
C644 C 0.97496 0.70469 0.2866 0.0
C645 C 0.96591 0.70486 0.17604 0.0
C646 C -0.00106 0.71438 0.16556 0.0
H647 H 0.92786 0.6955 0.24138 0.0
H648 H 0.94831 0.70381 0.13878 0.0
S649 S 0.06568 0.72031 0.28199 0.0
N650 N 0.03174 0.71253 0.32148 0.0
N651 N 0.05396 0.72106 0.21001 0.0
C652 C 0.02097 0.71462 0.21555 0.0
C653 C 0.00899 0.70973 0.27605 0.0
C654 C 0.71228 0.95223 0.80668 0.0
C655 C 0.71459 0.97554 0.85475 0.0
C656 C 0.70938 0.9626 0.74592 0.0
C657 C 0.70839 -0.0034 0.73106 0.0
H658 H 0.71534 0.92581 0.81547 0.0
H659 H 0.71153 0.94407 0.71023 0.0
S660 S 0.70766 0.06746 0.83939 0.0
N661 N 0.71085 0.0341 0.88316 0.0
N662 N 0.70554 0.05338 0.76887 0.0
C663 C 0.70684 0.01992 0.77878 0.0
C664 C 0.70986 0.00945 0.84073 0.0
C665 C 0.00328 0.26495 0.18081 0.0
C666 C 0.96988 0.25694 0.16989 0.0
C667 C 0.01515 0.26928 0.24034 0.0
C668 C -0.00585 0.26556 0.29139 0.0
H669 H 0.02094 0.26533 0.14372 0.0
H670 H 0.04161 0.27277 0.2465 0.0
S671 S 0.90291 0.25376 0.28596 0.0
N672 N 0.9146 0.25261 0.21405 0.0
N673 N 0.93714 0.25996 0.32577 0.0
C674 C 0.96 0.26183 0.28052 0.0
C675 C 0.94785 0.25756 0.21983 0.0
C676 C 0.71792 0.02042 0.24201 0.0
C677 C 0.70395 -0.01098 0.22939 0.0
C678 C 0.72311 0.03083 0.30214 0.0
C679 C 0.71393 0.01056 0.35172 0.0
H680 H 0.72823 0.03548 0.20571 0.0
H681 H 0.73658 0.05388 0.30984 0.0
S682 S 0.66934 0.92986 0.34286 0.0
N683 N 0.67574 0.94042 0.27118 0.0
N684 N 0.68511 0.96044 0.38429 0.0
C685 C 0.69607 0.98122 0.3398 0.0
C686 C 0.69111 0.97037 0.27849 0.0
C687 C 0.97304 0.26635 0.68095 0.0
C688 C 0.00619 0.25714 0.67088 0.0
C689 C 0.96095 0.27105 0.74016 0.0
C690 C 0.98146 0.2666 0.79175 0.0
H691 H 0.95566 0.26748 0.64337 0.0
H692 H 0.93461 0.27552 0.74559 0.0
S693 S 0.07217 0.25099 0.78889 0.0
N694 N 0.06091 0.25041 0.71666 0.0
N695 N 0.03799 0.25864 0.82768 0.0
C696 C 0.01552 0.26149 0.78179 0.0
C697 C 0.02788 0.25676 0.72146 0.0
C698 C 0.25865 -0.00063 0.33923 0.0
C699 C 0.25064 0.9657 0.34924 0.0
C700 C 0.26302 0.01172 0.28005 0.0
C701 C 0.25931 -0.00902 0.2284 0.0
H702 H 0.25914 0.01686 0.37679 0.0
H703 H 0.26666 0.03836 0.2747 0.0
S704 S 0.24712 0.89921 0.23113 0.0
N705 N 0.24607 0.91044 0.30335 0.0
N706 N 0.25346 0.93392 0.19239 0.0
C707 C 0.25541 0.95656 0.23831 0.0
C708 C 0.25113 0.9439 0.29863 0.0
C709 C 0.95245 0.72082 0.77468 0.0
C710 C -0.01552 0.70882 0.78699 0.0
C711 C 0.942 0.72674 0.71472 0.0
C712 C 0.96308 0.72082 0.66455 0.0
H713 H 0.93642 0.72862 0.81152 0.0
H714 H 0.91779 0.73791 0.70812 0.0
S715 S 0.04653 0.68205 0.67219 0.0
N716 N 0.03502 0.68563 0.74394 0.0
N717 N 0.01543 0.69687 0.6314 0.0
C718 C -0.0063 0.70527 0.67603 0.0
C719 C 0.00433 0.69919 0.73717 0.0
C720 C 0.76147 0.47067 0.34208 0.0
C721 C 0.75363 0.50425 0.35307 0.0
C722 C 0.76497 0.45865 0.28249 0.0
C723 C 0.76049 0.47965 0.23141 0.0
H724 H 0.76241 0.45296 0.37928 0.0
H725 H 0.76849 0.43205 0.2765 0.0
S726 S 0.74871 0.57139 0.23644 0.0
N727 N 0.74863 0.55977 0.30849 0.0
N728 N 0.75435 0.5369 0.19673 0.0
C729 C 0.75687 0.51401 0.24212 0.0
C730 C 0.7535 0.52633 0.30287 0.0
C731 C 0.51705 0.219 0.71883 0.0
C732 C 0.49579 0.21652 0.66784 0.0
C733 C 0.50542 0.21358 0.77805 0.0
C734 C 0.47201 0.20556 0.78867 0.0
H735 H 0.54245 0.22737 0.71355 0.0
H736 H 0.52194 0.219 0.81572 0.0
S737 S 0.40839 0.18742 0.67067 0.0
N738 N 0.44139 0.19912 0.63165 0.0
N739 N 0.41956 0.18869 0.74294 0.0
C740 C 0.45168 0.1987 0.73782 0.0
C741 C 0.46351 0.20431 0.67741 0.0
C742 C 0.2081 0.52035 0.28073 0.0
C743 C 0.20768 0.49777 0.23159 0.0
C744 C 0.21079 0.50915 0.34111 0.0
C745 C 0.21365 0.47493 0.3542 0.0
H746 H 0.20995 0.54693 0.27207 0.0
H747 H 0.21394 0.5275 0.37685 0.0
S748 S 0.20691 0.40563 0.24247 0.0
N749 N 0.20519 0.43982 0.20058 0.0
N750 N 0.20985 0.41843 0.31371 0.0
C751 C 0.20929 0.45208 0.30592 0.0
C752 C 0.20637 0.46359 0.24462 0.0
C753 C 0.45048 0.75536 0.72056 0.0
C754 C 0.47194 0.75808 0.66999 0.0
C755 C 0.4619 0.76036 0.78017 0.0
C756 C 0.49528 0.76825 0.79164 0.0
H757 H 0.42507 0.74711 0.7146 0.0
H758 H 0.44522 0.7548 0.81744 0.0
S759 S 0.55948 0.78664 0.67519 0.0
N760 N 0.52658 0.77534 0.63529 0.0
N761 N 0.54799 0.78507 0.7472 0.0
C762 C 0.51584 0.77527 0.74127 0.0
C763 C 0.50423 0.77004 0.68049 0.0
C764 C 0.19991 0.47879 0.84013 0.0
C765 C 0.21439 0.51001 0.85177 0.0
C766 C 0.19531 0.46762 0.78006 0.0
C767 C 0.2048 0.48741 0.72975 0.0
H768 H 0.19493 0.46175 0.87728 0.0
H769 H 0.18697 0.44218 0.77312 0.0
S770 S 0.23691 0.5742 0.7374 0.0
N771 N 0.233 0.56273 0.80917 0.0
N772 N 0.22404 0.54207 0.69661 0.0
C773 C 0.21538 0.52029 0.74129 0.0
C774 C 0.22043 0.53144 0.8023 0.0
C775 C 0.47232 0.76605 0.18129 0.0
C776 C 0.50539 0.75688 0.17047 0.0
C777 C 0.46066 0.77075 0.2408 0.0
C778 C 0.48155 0.76631 0.29192 0.0
H779 H 0.45468 0.76708 0.14411 0.0
H780 H 0.43436 0.77516 0.24684 0.0
S781 S 0.57232 0.75118 0.28666 0.0
N782 N 0.56048 0.75044 0.21474 0.0
N783 N 0.53841 0.75866 0.32637 0.0
C784 C 0.51556 0.76133 0.2811 0.0
C785 C 0.52747 0.75661 0.22045 0.0
C786 C 0.76136 0.50012 0.8432 0.0
C787 C 0.75296 0.46655 0.85336 0.0
C788 C 0.76591 0.51232 0.78398 0.0
C789 C 0.762 0.49153 0.73247 0.0
H790 H 0.76197 0.51768 0.88066 0.0
H791 H 0.76976 0.53892 0.77844 0.0
S792 S 0.74896 0.39989 0.73565 0.0
N793 N 0.74794 0.41125 0.80781 0.0
N794 N 0.75568 0.43447 0.69673 0.0
C795 C 0.75782 0.45717 0.74254 0.0
C796 C 0.75334 0.44465 0.80291 0.0
C797 C 0.50634 0.20635 0.23801 0.0
C798 C 0.48565 0.21174 0.2889 0.0
C799 C 0.49469 0.21079 0.17837 0.0
C800 C 0.46186 0.22076 0.16723 0.0
H801 H 0.53251 0.20121 0.24431 0.0
H802 H 0.51223 0.20885 0.14125 0.0
S803 S 0.39544 0.22986 0.28323 0.0
N804 N 0.42918 0.22164 0.32316 0.0
N805 N 0.40711 0.22946 0.21128 0.0
C806 C 0.43992 0.22226 0.21718 0.0
C807 C 0.45181 0.21774 0.27796 0.0
C808 C 0.31106 0.1788 0.95579 0.0
C809 C 0.3271 0.19478 1.00467 0.0
C810 C 0.28772 0.1536 0.96563 0.0
C811 C 0.27965 0.14307 0.02478 0.0
H812 H 0.31667 0.18564 0.90925 0.0
H813 H 0.27636 0.14193 0.92629 0.0
S814 S 0.31399 0.17758 0.16872 0.0
N815 N 0.33283 0.19891 0.11459 0.0
N816 N 0.28887 0.15135 0.13336 0.0
C817 C 0.29512 0.15919 0.07432 0.0
C818 C 0.31879 0.18513 0.06421 0.0
C819 C 0.14999 0.62955 0.9895 0.0
C820 C 0.17624 0.63504 0.03035 0.0
C821 C 0.1271 0.65486 0.97673 0.0
C822 C 0.12934 0.68621 1.00542 0.0
H823 H 0.14767 0.60589 0.96595 0.0
H824 H 0.10741 0.64976 0.94442 0.0
S825 S 0.19274 0.71231 0.11845 0.0
N826 N 0.20281 0.67358 0.10076 0.0
N827 N 0.15937 0.72096 0.07777 0.0
C828 C 0.15503 0.69166 0.04757 0.0
C829 C 0.17862 0.66611 0.05975 0.0
C830 C 0.67817 0.82423 0.96713 0.0
C831 C 0.68504 0.83577 0.0262 0.0
C832 C 0.65539 0.79848 0.9572 0.0
C833 C 0.63889 0.78302 1.00602 0.0
H834 H 0.69009 0.83546 0.92801 0.0
H835 H 0.65065 0.79071 0.91078 0.0
S836 S 0.64881 0.80321 0.16986 0.0
N837 N 0.6741 0.82919 0.13458 0.0
N838 N 0.63126 0.78072 0.11575 0.0
C839 C 0.64593 0.79386 0.06548 0.0
C840 C 0.66896 0.82029 0.07561 0.0
C841 C 0.79177 0.32244 0.96778 0.0
C842 C 0.78214 0.33118 0.02712 0.0
C843 C 0.81698 0.29924 0.9577 0.0
C844 C 0.8333 0.28361 1.00654 0.0
H845 H 0.78011 0.33395 0.92861 0.0
H846 H 0.82359 0.29343 0.91114 0.0
S847 S 0.81702 0.29721 0.17087 0.0
N848 N 0.79056 0.322 0.13563 0.0
N849 N 0.83801 0.27827 0.11655 0.0
C850 C 0.82371 0.29178 0.06619 0.0
C851 C 0.79814 0.31561 0.07651 0.0
C852 C 0.65077 0.13796 0.56126 0.0
C853 C 0.67716 0.13337 0.52054 0.0
C854 C 0.6276 0.1635 0.55192 0.0
C855 C 0.62971 0.18435 0.50065 0.0
H856 H 0.64856 0.12229 0.60123 0.0
H857 H 0.60774 0.16672 0.58454 0.0
S858 S 0.69376 0.18161 0.38006 0.0
N859 N 0.70419 0.15138 0.42746 0.0
N860 N 0.6598 0.19854 0.40848 0.0
C861 C 0.6556 0.17948 0.45905 0.0
C862 C 0.67961 0.15416 0.46941 0.0
C863 C 0.14938 0.29338 0.55841 0.0
C864 C 0.14088 0.28337 0.49909 0.0
C865 C 0.17235 0.319 0.56846 0.0
C866 C 0.18795 0.33533 0.51958 0.0
H867 H 0.13774 0.28183 0.59751 0.0
H868 H 0.1779 0.32599 0.61498 0.0
S869 S 0.17519 0.31767 0.35527 0.0
N870 N 0.15053 0.29114 0.39064 0.0
N871 N 0.19367 0.33929 0.40951 0.0
C872 C 0.18011 0.32518 0.45996 0.0
C873 C 0.15657 0.29922 0.44973 0.0
C874 C 0.31579 0.7982 0.45688 0.0
C875 C 0.33346 0.78442 0.50596 0.0
C876 C 0.29003 0.82086 0.46651 0.0
C877 C 0.28108 0.83087 0.52561 0.0
H878 H 0.32168 0.79127 0.41051 0.0
H879 H 0.27727 0.83079 0.42706 0.0
S880 S 0.32011 0.80243 0.66981 0.0
N881 N 0.34057 0.78257 0.61592 0.0
N882 N 0.29211 0.82524 0.63415 0.0
C883 C 0.29862 0.81732 0.57523 0.0
C884 C 0.32479 0.79407 0.56538 0.0
C885 C 0.8124 0.67641 0.45638 0.0
C886 C 0.8283 0.69315 0.50458 0.0
C887 C 0.78871 0.65169 0.46732 0.0
C888 C 0.78017 0.64242 0.52693 0.0
H889 H 0.81839 0.68231 0.40957 0.0
H890 H 0.77748 0.63935 0.42854 0.0
S891 S 0.81386 0.67935 0.66929 0.0
N892 N 0.83331 0.69941 0.61427 0.0
N893 N 0.78872 0.6527 0.63508 0.0
C894 C 0.79548 0.65931 0.57573 0.0
C895 C 0.81949 0.68478 0.5645 0.0
loop_
_geom_bond_atom_site_label_1
_geom_bond_atom_site_label_2
_geom_bond_distance
_geom_bond_site_symmetry_2
_ccdc_geom_bond_type
O0 Zn1 1.953 . S
O0 C16 1.225 . S
Zn1 O0 1.953 . S
Zn1 O2 1.949 . S
Zn1 O8 1.919 . S
Zn1 O13 1.924 . S
O2 Zn1 1.949 . S
O2 Zn3 1.923 . S
O2 Zn4 1.950 . S
O2 Zn5 1.945 1_554 S
Zn3 O2 1.923 . S
Zn3 O6 1.933 1_554 S
Zn3 O9 1.941 1_545 S
Zn3 O10 1.965 . S
Zn4 O2 1.950 . S
Zn4 O11 1.938 . S
Zn4 O12 1.906 . S
Zn4 O22 1.953 . S
Zn5 O2 1.945 1_556 S
Zn5 O7 1.932 . S
Zn5 O14 1.977 . S
Zn5 O15 1.910 . S
O6 Zn3 1.933 1_556 S
O6 C17 1.226 . S
O7 Zn5 1.932 . S
O7 C17 1.307 . S
O8 Zn1 1.919 . S
O8 C19 1.253 1_545 S
O9 Zn3 1.941 1_565 S
O9 C19 1.283 . S
O10 Zn3 1.965 . S
O10 C18 1.303 . S
O11 Zn4 1.938 . S
O11 C18 1.247 . S
O12 Zn4 1.906 . S
O12 C20 1.304 . S
O13 Zn1 1.924 . S
O13 C21 1.311 1_554 S
O14 Zn5 1.977 . S
O14 C20 1.272 1_556 S
O15 Zn5 1.910 . S
O15 C21 1.231 . S
C16 O0 1.225 . S
C16 O22 1.298 . S
C17 O6 1.226 . S
C17 O7 1.307 . S
C18 O10 1.303 . S
C18 O11 1.247 . S
C19 O8 1.253 1_565 S
C19 O9 1.283 . S
C20 O12 1.304 . S
C20 O14 1.272 1_554 S
C21 O13 1.311 1_556 S
C21 O15 1.231 . S
O22 Zn4 1.953 . S
O22 C16 1.298 . S
O23 Zn24 1.953 . S
O23 C39 1.225 . S
Zn24 O23 1.953 . S
Zn24 O25 1.949 . S
Zn24 O31 1.919 . S
Zn24 O36 1.924 . S
O25 Zn24 1.949 . S
O25 Zn26 1.923 . S
O25 Zn27 1.950 . S
O25 Zn28 1.945 1_556 S
Zn26 O25 1.923 . S
Zn26 O29 1.933 1_556 S
Zn26 O32 1.941 1_455 S
Zn26 O33 1.965 . S
Zn27 O25 1.950 . S
Zn27 O34 1.938 . S
Zn27 O35 1.906 . S
Zn27 O45 1.953 . S
Zn28 O25 1.945 1_554 S
Zn28 O30 1.932 . S
Zn28 O37 1.977 . S
Zn28 O38 1.910 . S
O29 Zn26 1.933 1_554 S
O29 C40 1.226 . S
O30 Zn28 1.932 . S
O30 C40 1.307 . S
O31 Zn24 1.919 . S
O31 C42 1.253 1_455 S
O32 Zn26 1.941 1_655 S
O32 C42 1.283 . S
O33 Zn26 1.965 . S
O33 C41 1.303 . S
O34 Zn27 1.938 . S
O34 C41 1.247 . S
O35 Zn27 1.906 . S
O35 C43 1.304 . S
O36 Zn24 1.924 . S
O36 C44 1.311 1_556 S
O37 Zn28 1.977 . S
O37 C43 1.272 1_554 S
O38 Zn28 1.910 . S
O38 C44 1.231 . S
C39 O23 1.225 . S
C39 O45 1.298 . S
C40 O29 1.226 . S
C40 O30 1.307 . S
C41 O33 1.303 . S
C41 O34 1.247 . S
C42 O31 1.253 1_655 S
C42 O32 1.283 . S
C43 O35 1.304 . S
C43 O37 1.272 1_556 S
C44 O36 1.311 1_554 S
C44 O38 1.231 . S
O45 Zn27 1.953 . S
O45 C39 1.298 . S
O46 Zn47 1.953 . S
O46 C62 1.225 . S
Zn47 O46 1.953 . S
Zn47 O48 1.949 . S
Zn47 O54 1.919 . S
Zn47 O59 1.924 . S
O48 Zn47 1.949 . S
O48 Zn49 1.923 . S
O48 Zn50 1.950 . S
O48 Zn51 1.945 1_554 S
Zn49 O48 1.923 . S
Zn49 O52 1.933 1_554 S
Zn49 O55 1.941 1_565 S
Zn49 O56 1.965 . S
Zn50 O48 1.950 . S
Zn50 O57 1.938 . S
Zn50 O58 1.906 . S
Zn50 O68 1.953 . S
Zn51 O48 1.945 1_556 S
Zn51 O53 1.932 . S
Zn51 O60 1.977 . S
Zn51 O61 1.910 . S
O52 Zn49 1.933 1_556 S
O52 C63 1.226 . S
O53 Zn51 1.932 . S
O53 C63 1.307 . S
O54 Zn47 1.919 . S
O54 C65 1.253 1_565 S
O55 Zn49 1.941 1_545 S
O55 C65 1.283 . S
O56 Zn49 1.965 . S
O56 C64 1.303 . S
O57 Zn50 1.938 . S
O57 C64 1.247 . S
O58 Zn50 1.906 . S
O58 C66 1.304 . S
O59 Zn47 1.924 . S
O59 C67 1.311 1_554 S
O60 Zn51 1.977 . S
O60 C66 1.272 1_556 S
O61 Zn51 1.910 . S
O61 C67 1.231 . S
C62 O46 1.225 . S
C62 O68 1.298 . S
C63 O52 1.226 . S
C63 O53 1.307 . S
C64 O56 1.303 . S
C64 O57 1.247 . S
C65 O54 1.253 1_545 S
C65 O55 1.283 . S
C66 O58 1.304 . S
C66 O60 1.272 1_554 S
C67 O59 1.311 1_556 S
C67 O61 1.231 . S
O68 Zn50 1.953 . S
O68 C62 1.298 . S
O69 Zn70 1.953 . S
O69 C85 1.225 . S
Zn70 O69 1.953 . S
Zn70 O71 1.949 . S
Zn70 O77 1.919 . S
Zn70 O82 1.924 . S
O71 Zn70 1.949 . S
O71 Zn72 1.923 . S
O71 Zn73 1.950 . S
O71 Zn74 1.945 1_556 S
Zn72 O71 1.923 . S
Zn72 O75 1.933 1_556 S
Zn72 O78 1.941 1_655 S
Zn72 O79 1.965 . S
Zn73 O71 1.950 . S
Zn73 O80 1.938 . S
Zn73 O81 1.906 . S
Zn73 O91 1.953 . S
Zn74 O71 1.945 1_554 S
Zn74 O76 1.932 . S
Zn74 O83 1.977 . S
Zn74 O84 1.910 . S
O75 Zn72 1.933 1_554 S
O75 C86 1.226 . S
O76 Zn74 1.932 . S
O76 C86 1.307 . S
O77 Zn70 1.919 . S
O77 C88 1.253 1_655 S
O78 Zn72 1.941 1_455 S
O78 C88 1.283 . S
O79 Zn72 1.965 . S
O79 C87 1.303 . S
O80 Zn73 1.938 . S
O80 C87 1.247 . S
O81 Zn73 1.906 . S
O81 C89 1.304 . S
O82 Zn70 1.924 . S
O82 C90 1.311 1_556 S
O83 Zn74 1.977 . S
O83 C89 1.272 1_554 S
O84 Zn74 1.910 . S
O84 C90 1.231 . S
C85 O69 1.225 . S
C85 O91 1.298 . S
C86 O75 1.226 . S
C86 O76 1.307 . S
C87 O79 1.303 . S
C87 O80 1.247 . S
C88 O77 1.253 1_455 S
C88 O78 1.283 . S
C89 O81 1.304 . S
C89 O83 1.272 1_556 S
C90 O82 1.311 1_554 S
C90 O84 1.231 . S
O91 Zn73 1.953 . S
O91 C85 1.298 . S
O92 Zn93 1.953 . S
O92 C108 1.225 . S
Zn93 O92 1.953 . S
Zn93 O94 1.949 . S
Zn93 O100 1.919 . S
Zn93 O105 1.924 . S
O94 Zn93 1.949 . S
O94 Zn95 1.923 . S
O94 Zn96 1.950 . S
O94 Zn97 1.945 . S
Zn95 O94 1.923 . S
Zn95 O98 1.933 . S
Zn95 O101 1.941 . S
Zn95 O102 1.965 . S
Zn96 O94 1.950 . S
Zn96 O103 1.938 . S
Zn96 O104 1.906 . S
Zn96 O114 1.953 . S
Zn97 O94 1.945 . S
Zn97 O99 1.932 . S
Zn97 O106 1.977 . S
Zn97 O107 1.910 . S
O98 Zn95 1.933 . S
O98 C109 1.226 . S
O99 Zn97 1.932 . S
O99 C109 1.307 . S
O100 Zn93 1.919 . S
O100 C111 1.253 . S
O101 Zn95 1.941 . S
O101 C111 1.283 . S
O102 Zn95 1.965 . S
O102 C110 1.303 1_545 S
O103 Zn96 1.938 . S
O103 C110 1.247 1_545 S
O104 Zn96 1.906 . S
O104 C112 1.304 . S
O105 Zn93 1.924 . S
O105 C113 1.311 . S
O106 Zn97 1.977 . S
O106 C112 1.272 . S
O107 Zn97 1.910 . S
O107 C113 1.231 . S
C108 O92 1.225 . S
C108 O114 1.298 . S
C109 O98 1.226 . S
C109 O99 1.307 . S
C110 O102 1.303 1_565 S
C110 O103 1.247 1_565 S
C111 O100 1.253 . S
C111 O101 1.283 . S
C112 O104 1.304 . S
C112 O106 1.272 . S
C113 O105 1.311 . S
C113 O107 1.231 . S
O114 Zn96 1.953 . S
O114 C108 1.298 . S
O115 Zn116 1.953 . S
O115 C131 1.225 . S
Zn116 O115 1.953 . S
Zn116 O117 1.949 . S
Zn116 O123 1.919 . S
Zn116 O128 1.924 . S
O117 Zn116 1.949 . S
O117 Zn118 1.923 . S
O117 Zn119 1.950 . S
O117 Zn120 1.945 . S
Zn118 O117 1.923 . S
Zn118 O121 1.933 . S
Zn118 O124 1.941 1_455 S
Zn118 O125 1.965 . S
Zn119 O117 1.950 . S
Zn119 O126 1.938 . S
Zn119 O127 1.906 . S
Zn119 O137 1.953 . S
Zn120 O117 1.945 . S
Zn120 O122 1.932 . S
Zn120 O129 1.977 . S
Zn120 O130 1.910 . S
O121 Zn118 1.933 . S
O121 C132 1.226 . S
O122 Zn120 1.932 . S
O122 C132 1.307 . S
O123 Zn116 1.919 . S
O123 C134 1.253 1_455 S
O124 Zn118 1.941 1_655 S
O124 C134 1.283 . S
O125 Zn118 1.965 . S
O125 C133 1.303 . S
O126 Zn119 1.938 . S
O126 C133 1.247 . S
O127 Zn119 1.906 . S
O127 C135 1.304 . S
O128 Zn116 1.924 . S
O128 C136 1.311 . S
O129 Zn120 1.977 . S
O129 C135 1.272 . S
O130 Zn120 1.910 . S
O130 C136 1.231 . S
C131 O115 1.225 . S
C131 O137 1.298 . S
C132 O121 1.226 . S
C132 O122 1.307 . S
C133 O125 1.303 . S
C133 O126 1.247 . S
C134 O123 1.253 1_655 S
C134 O124 1.283 . S
C135 O127 1.304 . S
C135 O129 1.272 . S
C136 O128 1.311 . S
C136 O130 1.231 . S
O137 Zn119 1.953 . S
O137 C131 1.298 . S
O138 Zn139 1.953 . S
O138 C154 1.225 . S
Zn139 O138 1.953 . S
Zn139 O140 1.949 . S
Zn139 O146 1.919 . S
Zn139 O151 1.924 . S
O140 Zn139 1.949 . S
O140 Zn141 1.923 . S
O140 Zn142 1.950 . S
O140 Zn143 1.945 . S
Zn141 O140 1.923 . S
Zn141 O144 1.933 . S
Zn141 O147 1.941 1_565 S
Zn141 O148 1.965 . S
Zn142 O140 1.950 . S
Zn142 O149 1.938 . S
Zn142 O150 1.906 . S
Zn142 O160 1.953 . S
Zn143 O140 1.945 . S
Zn143 O145 1.932 . S
Zn143 O152 1.977 . S
Zn143 O153 1.910 . S
O144 Zn141 1.933 . S
O144 C155 1.226 . S
O145 Zn143 1.932 . S
O145 C155 1.307 . S
O146 Zn139 1.919 . S
O146 C157 1.253 1_565 S
O147 Zn141 1.941 1_545 S
O147 C157 1.283 . S
O148 Zn141 1.965 . S
O148 C156 1.303 . S
O149 Zn142 1.938 . S
O149 C156 1.247 . S
O150 Zn142 1.906 . S
O150 C158 1.304 . S
O151 Zn139 1.924 . S
O151 C159 1.311 . S
O152 Zn143 1.977 . S
O152 C158 1.272 . S
O153 Zn143 1.910 . S
O153 C159 1.231 . S
C154 O138 1.225 . S
C154 O160 1.298 . S
C155 O144 1.226 . S
C155 O145 1.307 . S
C156 O148 1.303 . S
C156 O149 1.247 . S
C157 O146 1.253 1_545 S
C157 O147 1.283 . S
C158 O150 1.304 . S
C158 O152 1.272 . S
C159 O151 1.311 . S
C159 O153 1.231 . S
O160 Zn142 1.953 . S
O160 C154 1.298 . S
O161 Zn162 1.953 . S
O161 C177 1.225 . S
Zn162 O161 1.953 . S
Zn162 O163 1.949 . S
Zn162 O169 1.919 . S
Zn162 O174 1.924 . S
O163 Zn162 1.949 . S
O163 Zn164 1.923 . S
O163 Zn165 1.950 . S
O163 Zn166 1.945 . S
Zn164 O163 1.923 . S
Zn164 O167 1.933 . S
Zn164 O170 1.941 1_655 S
Zn164 O171 1.965 . S
Zn165 O163 1.950 . S
Zn165 O172 1.938 . S
Zn165 O173 1.906 . S
Zn165 O183 1.953 . S
Zn166 O163 1.945 . S
Zn166 O168 1.932 . S
Zn166 O175 1.977 . S
Zn166 O176 1.910 . S
O167 Zn164 1.933 . S
O167 C178 1.226 . S
O168 Zn166 1.932 . S
O168 C178 1.307 . S
O169 Zn162 1.919 . S
O169 C180 1.253 1_655 S
O170 Zn164 1.941 1_455 S
O170 C180 1.283 . S
O171 Zn164 1.965 . S
O171 C179 1.303 . S
O172 Zn165 1.938 . S
O172 C179 1.247 . S
O173 Zn165 1.906 . S
O173 C181 1.304 . S
O174 Zn162 1.924 . S
O174 C182 1.311 . S
O175 Zn166 1.977 . S
O175 C181 1.272 . S
O176 Zn166 1.910 . S
O176 C182 1.231 . S
C177 O161 1.225 . S
C177 O183 1.298 . S
C178 O167 1.226 . S
C178 O168 1.307 . S
C179 O171 1.303 . S
C179 O172 1.247 . S
C180 O169 1.253 1_455 S
C180 O170 1.283 . S
C181 O173 1.304 . S
C181 O175 1.272 . S
C182 O174 1.311 . S
C182 O176 1.231 . S
O183 Zn165 1.953 . S
O183 C177 1.298 . S
O184 Zn185 1.953 . S
O184 C200 1.225 . S
Zn185 O184 1.953 . S
Zn185 O186 1.949 . S
Zn185 O192 1.919 . S
Zn185 O197 1.924 . S
O186 Zn185 1.949 . S
O186 Zn187 1.923 . S
O186 Zn188 1.950 . S
O186 Zn189 1.945 . S
Zn187 O186 1.923 . S
Zn187 O190 1.933 . S
Zn187 O193 1.941 . S
Zn187 O194 1.965 . S
Zn188 O186 1.950 . S
Zn188 O195 1.938 . S
Zn188 O196 1.906 . S
Zn188 O206 1.953 . S
Zn189 O186 1.945 . S
Zn189 O191 1.932 . S
Zn189 O198 1.977 . S
Zn189 O199 1.910 . S
O190 Zn187 1.933 . S
O190 C201 1.226 . S
O191 Zn189 1.932 . S
O191 C201 1.307 . S
O192 Zn185 1.919 . S
O192 C203 1.253 . S
O193 Zn187 1.941 . S
O193 C203 1.283 . S
O194 Zn187 1.965 . S
O194 C202 1.303 . S
O195 Zn188 1.938 . S
O195 C202 1.247 . S
O196 Zn188 1.906 . S
O196 C204 1.304 . S
O197 Zn185 1.924 . S
O197 C205 1.311 . S
O198 Zn189 1.977 . S
O198 C204 1.272 . S
O199 Zn189 1.910 . S
O199 C205 1.231 . S
C200 O184 1.225 . S
C200 O206 1.298 . S
C201 O190 1.226 . S
C201 O191 1.307 . S
C202 O194 1.303 . S
C202 O195 1.247 . S
C203 O192 1.253 . S
C203 O193 1.283 . S
C204 O196 1.304 . S
C204 O198 1.272 . S
C205 O197 1.311 . S
C205 O199 1.231 . S
O206 Zn188 1.953 . S
O206 C200 1.298 . S
O207 Zn208 1.953 . S
O207 C223 1.225 . S
Zn208 O207 1.953 . S
Zn208 O209 1.949 . S
Zn208 O215 1.919 . S
Zn208 O220 1.924 . S
O209 Zn208 1.949 . S
O209 Zn210 1.923 . S
O209 Zn211 1.950 . S
O209 Zn212 1.945 . S
Zn210 O209 1.923 . S
Zn210 O213 1.933 . S
Zn210 O216 1.941 . S
Zn210 O217 1.965 . S
Zn211 O209 1.950 . S
Zn211 O218 1.938 . S
Zn211 O219 1.906 . S
Zn211 O229 1.953 . S
Zn212 O209 1.945 . S
Zn212 O214 1.932 . S
Zn212 O221 1.977 . S
Zn212 O222 1.910 . S
O213 Zn210 1.933 . S
O213 C224 1.226 . S
O214 Zn212 1.932 . S
O214 C224 1.307 . S
O215 Zn208 1.919 . S
O215 C226 1.253 . S
O216 Zn210 1.941 . S
O216 C226 1.283 . S
O217 Zn210 1.965 . S
O217 C225 1.303 . S
O218 Zn211 1.938 . S
O218 C225 1.247 . S
O219 Zn211 1.906 . S
O219 C227 1.304 . S
O220 Zn208 1.924 . S
O220 C228 1.311 . S
O221 Zn212 1.977 . S
O221 C227 1.272 . S
O222 Zn212 1.910 . S
O222 C228 1.231 . S
C223 O207 1.225 . S
C223 O229 1.298 . S
C224 O213 1.226 . S
C224 O214 1.307 . S
C225 O217 1.303 . S
C225 O218 1.247 . S
C226 O215 1.253 . S
C226 O216 1.283 . S
C227 O219 1.304 . S
C227 O221 1.272 . S
C228 O220 1.311 . S
C228 O222 1.231 . S
O229 Zn211 1.953 . S
O229 C223 1.298 . S
O230 Zn231 1.953 . S
O230 C246 1.225 . S
Zn231 O230 1.953 . S
Zn231 O232 1.949 . S
Zn231 O238 1.919 . S
Zn231 O243 1.924 . S
O232 Zn231 1.949 . S
O232 Zn233 1.923 . S
O232 Zn234 1.950 . S
O232 Zn235 1.945 . S
Zn233 O232 1.923 . S
Zn233 O236 1.933 . S
Zn233 O239 1.941 . S
Zn233 O240 1.965 . S
Zn234 O232 1.950 . S
Zn234 O241 1.938 . S
Zn234 O242 1.906 . S
Zn234 O252 1.953 . S
Zn235 O232 1.945 . S
Zn235 O237 1.932 . S
Zn235 O244 1.977 . S
Zn235 O245 1.910 . S
O236 Zn233 1.933 . S
O236 C247 1.226 . S
O237 Zn235 1.932 . S
O237 C247 1.307 . S
O238 Zn231 1.919 . S
O238 C249 1.253 . S
O239 Zn233 1.941 . S
O239 C249 1.283 . S
O240 Zn233 1.965 . S
O240 C248 1.303 . S
O241 Zn234 1.938 . S
O241 C248 1.247 . S
O242 Zn234 1.906 . S
O242 C250 1.304 . S
O243 Zn231 1.924 . S
O243 C251 1.311 . S
O244 Zn235 1.977 . S
O244 C250 1.272 . S
O245 Zn235 1.910 . S
O245 C251 1.231 . S
C246 O230 1.225 . S
C246 O252 1.298 . S
C247 O236 1.226 . S
C247 O237 1.307 . S
C248 O240 1.303 . S
C248 O241 1.247 . S
C249 O238 1.253 . S
C249 O239 1.283 . S
C250 O242 1.304 . S
C250 O244 1.272 . S
C251 O243 1.311 . S
C251 O245 1.231 . S
O252 Zn234 1.953 . S
O252 C246 1.298 . S
O253 Zn254 1.953 . S
O253 C269 1.225 . S
Zn254 O253 1.953 . S
Zn254 O255 1.949 . S
Zn254 O261 1.919 . S
Zn254 O266 1.924 . S
O255 Zn254 1.949 . S
O255 Zn256 1.923 . S
O255 Zn257 1.950 . S
O255 Zn258 1.945 . S
Zn256 O255 1.923 . S
Zn256 O259 1.933 . S
Zn256 O262 1.941 . S
Zn256 O263 1.965 . S
Zn257 O255 1.950 . S
Zn257 O264 1.938 . S
Zn257 O265 1.906 . S
Zn257 O275 1.953 . S
Zn258 O255 1.945 . S
Zn258 O260 1.932 . S
Zn258 O267 1.977 . S
Zn258 O268 1.910 . S
O259 Zn256 1.933 . S
O259 C270 1.226 . S
O260 Zn258 1.932 . S
O260 C270 1.307 . S
O261 Zn254 1.919 . S
O261 C272 1.253 . S
O262 Zn256 1.941 . S
O262 C272 1.283 . S
O263 Zn256 1.965 . S
O263 C271 1.303 . S
O264 Zn257 1.938 . S
O264 C271 1.247 . S
O265 Zn257 1.906 . S
O265 C273 1.304 . S
O266 Zn254 1.924 . S
O266 C274 1.311 . S
O267 Zn258 1.977 . S
O267 C273 1.272 . S
O268 Zn258 1.910 . S
O268 C274 1.231 . S
C269 O253 1.225 . S
C269 O275 1.298 . S
C270 O259 1.226 . S
C270 O260 1.307 . S
C271 O263 1.303 . S
C271 O264 1.247 . S
C272 O261 1.253 . S
C272 O262 1.283 . S
C273 O265 1.304 . S
C273 O267 1.272 . S
C274 O266 1.311 . S
C274 O268 1.231 . S
O275 Zn257 1.953 . S
O275 C269 1.298 . S
O276 Zn277 1.953 1_556 S
O276 C292 1.225 . S
Zn277 O276 1.953 1_554 S
Zn277 O278 1.949 . S
Zn277 O284 1.919 . S
Zn277 O289 1.924 . S
O278 Zn277 1.949 . S
O278 Zn279 1.923 . S
O278 Zn280 1.950 1_554 S
O278 Zn281 1.945 . S
Zn279 O278 1.923 . S
Zn279 O282 1.933 . S
Zn279 O285 1.941 . S
Zn279 O286 1.965 . S
Zn280 O278 1.950 1_556 S
Zn280 O287 1.938 . S
Zn280 O288 1.906 . S
Zn280 O298 1.953 . S
Zn281 O278 1.945 . S
Zn281 O283 1.932 . S
Zn281 O290 1.977 . S
Zn281 O291 1.910 . S
O282 Zn279 1.933 . S
O282 C293 1.226 . S
O283 Zn281 1.932 . S
O283 C293 1.307 . S
O284 Zn277 1.919 . S
O284 C295 1.253 . S
O285 Zn279 1.941 . S
O285 C295 1.283 . S
O286 Zn279 1.965 . S
O286 C294 1.303 . S
O287 Zn280 1.938 . S
O287 C294 1.247 1_556 S
O288 Zn280 1.906 . S
O288 C296 1.304 . S
O289 Zn277 1.924 . S
O289 C297 1.311 . S
O290 Zn281 1.977 . S
O290 C296 1.272 1_554 S
O291 Zn281 1.910 . S
O291 C297 1.231 . S
C292 O276 1.225 . S
C292 O298 1.298 . S
C293 O282 1.226 . S
C293 O283 1.307 . S
C294 O286 1.303 . S
C294 O287 1.247 1_554 S
C295 O284 1.253 . S
C295 O285 1.283 . S
C296 O288 1.304 . S
C296 O290 1.272 1_556 S
C297 O289 1.311 . S
C297 O291 1.231 . S
O298 Zn280 1.953 . S
O298 C292 1.298 . S
O299 Zn300 1.953 . S
O299 C315 1.225 . S
Zn300 O299 1.953 . S
Zn300 O301 1.949 . S
Zn300 O307 1.919 . S
Zn300 O312 1.924 . S
O301 Zn300 1.949 . S
O301 Zn302 1.923 . S
O301 Zn303 1.950 . S
O301 Zn304 1.945 1_556 S
Zn302 O301 1.923 . S
Zn302 O305 1.933 1_556 S
Zn302 O308 1.941 . S
Zn302 O309 1.965 . S
Zn303 O301 1.950 . S
Zn303 O310 1.938 . S
Zn303 O311 1.906 . S
Zn303 O321 1.953 . S
Zn304 O301 1.945 1_554 S
Zn304 O306 1.932 . S
Zn304 O313 1.977 . S
Zn304 O314 1.910 . S
O305 Zn302 1.933 1_554 S
O305 C316 1.226 . S
O306 Zn304 1.932 . S
O306 C316 1.307 . S
O307 Zn300 1.919 . S
O307 C318 1.253 . S
O308 Zn302 1.941 . S
O308 C318 1.283 . S
O309 Zn302 1.965 . S
O309 C317 1.303 . S
O310 Zn303 1.938 . S
O310 C317 1.247 . S
O311 Zn303 1.906 . S
O311 C319 1.304 . S
O312 Zn300 1.924 . S
O312 C320 1.311 1_556 S
O313 Zn304 1.977 . S
O313 C319 1.272 1_554 S
O314 Zn304 1.910 . S
O314 C320 1.231 . S
C315 O299 1.225 . S
C315 O321 1.298 . S
C316 O305 1.226 . S
C316 O306 1.307 . S
C317 O309 1.303 . S
C317 O310 1.247 . S
C318 O307 1.253 . S
C318 O308 1.283 . S
C319 O311 1.304 . S
C319 O313 1.272 1_556 S
C320 O312 1.311 1_554 S
C320 O314 1.231 . S
O321 Zn303 1.953 . S
O321 C315 1.298 . S
O322 Zn323 1.953 . S
O322 C338 1.225 . S
Zn323 O322 1.953 . S
Zn323 O324 1.949 . S
Zn323 O330 1.919 . S
Zn323 O335 1.924 . S
O324 Zn323 1.949 . S
O324 Zn325 1.923 . S
O324 Zn326 1.950 . S
O324 Zn327 1.945 1_554 S
Zn325 O324 1.923 . S
Zn325 O328 1.933 1_554 S
Zn325 O331 1.941 . S
Zn325 O332 1.965 . S
Zn326 O324 1.950 . S
Zn326 O333 1.938 . S
Zn326 O334 1.906 . S
Zn326 O344 1.953 . S
Zn327 O324 1.945 1_556 S
Zn327 O329 1.932 . S
Zn327 O336 1.977 . S
Zn327 O337 1.910 . S
O328 Zn325 1.933 1_556 S
O328 C339 1.226 . S
O329 Zn327 1.932 . S
O329 C339 1.307 . S
O330 Zn323 1.919 . S
O330 C341 1.253 . S
O331 Zn325 1.941 . S
O331 C341 1.283 . S
O332 Zn325 1.965 . S
O332 C340 1.303 . S
O333 Zn326 1.938 . S
O333 C340 1.247 . S
O334 Zn326 1.906 . S
O334 C342 1.304 . S
O335 Zn323 1.924 . S
O335 C343 1.311 1_554 S
O336 Zn327 1.977 . S
O336 C342 1.272 1_556 S
O337 Zn327 1.910 . S
O337 C343 1.231 . S
C338 O322 1.225 . S
C338 O344 1.298 . S
C339 O328 1.226 . S
C339 O329 1.307 . S
C340 O332 1.303 . S
C340 O333 1.247 . S
C341 O330 1.253 . S
C341 O331 1.283 . S
C342 O334 1.304 . S
C342 O336 1.272 1_554 S
C343 O335 1.311 1_556 S
C343 O337 1.231 . S
O344 Zn326 1.953 . S
O344 C338 1.298 . S
O345 Zn346 1.953 . S
O345 C361 1.225 . S
Zn346 O345 1.953 . S
Zn346 O347 1.949 . S
Zn346 O353 1.919 . S
Zn346 O358 1.924 . S
O347 Zn346 1.949 . S
O347 Zn348 1.923 . S
O347 Zn349 1.950 . S
O347 Zn350 1.945 1_556 S
Zn348 O347 1.923 . S
Zn348 O351 1.933 1_556 S
Zn348 O354 1.941 . S
Zn348 O355 1.965 . S
Zn349 O347 1.950 . S
Zn349 O356 1.938 . S
Zn349 O357 1.906 . S
Zn349 O367 1.953 . S
Zn350 O347 1.945 1_554 S
Zn350 O352 1.932 . S
Zn350 O359 1.977 . S
Zn350 O360 1.910 . S
O351 Zn348 1.933 1_554 S
O351 C362 1.226 . S
O352 Zn350 1.932 . S
O352 C362 1.307 . S
O353 Zn346 1.919 . S
O353 C364 1.253 . S
O354 Zn348 1.941 . S
O354 C364 1.283 . S
O355 Zn348 1.965 . S
O355 C363 1.303 . S
O356 Zn349 1.938 . S
O356 C363 1.247 . S
O357 Zn349 1.906 . S
O357 C365 1.304 . S
O358 Zn346 1.924 . S
O358 C366 1.311 1_556 S
O359 Zn350 1.977 . S
O359 C365 1.272 1_554 S
O360 Zn350 1.910 . S
O360 C366 1.231 . S
C361 O345 1.225 . S
C361 O367 1.298 . S
C362 O351 1.226 . S
C362 O352 1.307 . S
C363 O355 1.303 . S
C363 O356 1.247 . S
C364 O353 1.253 . S
C364 O354 1.283 . S
C365 O357 1.304 . S
C365 O359 1.272 1_556 S
C366 O358 1.311 1_554 S
C366 O360 1.231 . S
O367 Zn349 1.953 . S
O367 C361 1.298 . S
C368 C369 1.369 . S
C368 C370 1.419 . S
C368 H372 0.930 . S
C369 C368 1.369 . S
C369 C378 1.429 . S
C370 C368 1.419 . S
C370 C371 1.363 . S
C370 H373 0.929 . S
C371 C370 1.363 . S
C371 C377 1.428 . S
H372 C368 0.930 . S
H373 C370 0.929 . S
S374 N375 1.613 . S
S374 N376 1.610 . S
N375 S374 1.613 . S
N375 C378 1.350 . S
N376 S374 1.610 . S
N376 C377 1.351 . S
C377 C371 1.428 . S
C377 N376 1.351 . S
C377 C378 1.434 . S
C378 C369 1.429 . S
C378 N375 1.350 . S
C378 C377 1.434 . S
C379 C380 1.369 . S
C379 C381 1.419 . S
C379 H383 0.930 . S
C380 C379 1.369 . S
C380 C389 1.429 . S
C381 C379 1.419 . S
C381 C382 1.363 . S
C381 H384 0.929 . S
C382 C381 1.363 . S
C382 C388 1.428 . S
H383 C379 0.930 . S
H384 C381 0.929 . S
S385 N386 1.613 . S
S385 N387 1.610 . S
N386 S385 1.613 . S
N386 C389 1.350 . S
N387 S385 1.610 . S
N387 C388 1.351 . S
C388 C382 1.428 . S
C388 N387 1.351 . S
C388 C389 1.434 . S
C389 C380 1.429 . S
C389 N386 1.350 . S
C389 C388 1.434 . S
C390 C391 1.369 . S
C390 C392 1.419 . S
C390 H394 0.930 . S
C391 C390 1.369 . S
C391 C400 1.429 . S
C392 C390 1.419 . S
C392 C393 1.363 . S
C392 H395 0.929 . S
C393 C392 1.363 . S
C393 C399 1.428 . S
H394 C390 0.930 . S
H395 C392 0.929 . S
S396 N397 1.613 . S
S396 N398 1.610 . S
N397 S396 1.613 . S
N397 C400 1.350 . S
N398 S396 1.610 . S
N398 C399 1.351 . S
C399 C393 1.428 . S
C399 N398 1.351 . S
C399 C400 1.434 . S
C400 C391 1.429 . S
C400 N397 1.350 . S
C400 C399 1.434 . S
C401 C402 1.369 . S
C401 C403 1.419 . S
C401 H405 0.930 . S
C402 C401 1.369 . S
C402 C411 1.429 . S
C403 C401 1.419 . S
C403 C404 1.363 . S
C403 H406 0.929 . S
C404 C403 1.363 . S
C404 C410 1.428 . S
H405 C401 0.930 . S
H406 C403 0.929 . S
S407 N408 1.613 . S
S407 N409 1.610 . S
N408 S407 1.613 . S
N408 C411 1.350 . S
N409 S407 1.610 . S
N409 C410 1.351 . S
C410 C404 1.428 . S
C410 N409 1.351 . S
C410 C411 1.434 . S
C411 C402 1.429 . S
C411 N408 1.350 . S
C411 C410 1.434 . S
C412 C413 1.369 . S
C412 C414 1.419 . S
C412 H416 0.930 . S
C413 C412 1.369 . S
C413 C422 1.429 . S
C414 C412 1.419 . S
C414 C415 1.363 . S
C414 H417 0.929 . S
C415 C414 1.363 . S
C415 C421 1.428 . S
H416 C412 0.930 . S
H417 C414 0.929 . S
S418 N419 1.613 . S
S418 N420 1.610 . S
N419 S418 1.613 . S
N419 C422 1.350 . S
N420 S418 1.610 . S
N420 C421 1.351 . S
C421 C415 1.428 . S
C421 N420 1.351 . S
C421 C422 1.434 . S
C422 C413 1.429 . S
C422 N419 1.350 . S
C422 C421 1.434 . S
C423 C424 1.369 . S
C423 C425 1.419 . S
C423 H427 0.930 . S
C424 C423 1.369 . S
C424 C433 1.429 . S
C425 C423 1.419 . S
C425 C426 1.363 . S
C425 H428 0.929 . S
C426 C425 1.363 . S
C426 C432 1.428 . S
H427 C423 0.930 . S
H428 C425 0.929 . S
S429 N430 1.613 . S
S429 N431 1.610 . S
N430 S429 1.613 . S
N430 C433 1.350 . S
N431 S429 1.610 . S
N431 C432 1.351 . S
C432 C426 1.428 . S
C432 N431 1.351 . S
C432 C433 1.434 . S
C433 C424 1.429 . S
C433 N430 1.350 . S
C433 C432 1.434 . S
C434 C435 1.369 . S
C434 C436 1.419 . S
C434 H438 0.930 . S
C435 C434 1.369 . S
C435 C444 1.429 . S
C436 C434 1.419 . S
C436 C437 1.363 . S
C436 H439 0.929 . S
C437 C436 1.363 . S
C437 C443 1.428 . S
H438 C434 0.930 . S
H439 C436 0.929 . S
S440 N441 1.613 . S
S440 N442 1.610 . S
N441 S440 1.613 . S
N441 C444 1.350 . S
N442 S440 1.610 . S
N442 C443 1.351 . S
C443 C437 1.428 . S
C443 N442 1.351 . S
C443 C444 1.434 . S
C444 C435 1.429 . S
C444 N441 1.350 . S
C444 C443 1.434 . S
C445 C446 1.369 . S
C445 C447 1.419 . S
C445 H449 0.930 . S
C446 C445 1.369 . S
C446 C455 1.429 . S
C447 C445 1.419 . S
C447 C448 1.363 . S
C447 H450 0.929 . S
C448 C447 1.363 . S
C448 C454 1.428 . S
H449 C445 0.930 . S
H450 C447 0.929 . S
S451 N452 1.613 . S
S451 N453 1.610 . S
N452 S451 1.613 . S
N452 C455 1.350 . S
N453 S451 1.610 . S
N453 C454 1.351 . S
C454 C448 1.428 . S
C454 N453 1.351 . S
C454 C455 1.434 . S
C455 C446 1.429 . S
C455 N452 1.350 . S
C455 C454 1.434 . S
C456 C457 1.369 1_556 S
C456 C458 1.419 . S
C456 H460 0.930 . S
C457 C456 1.369 1_554 S
C457 C466 1.429 . S
C458 C456 1.419 . S
C458 C459 1.363 1_556 S
C458 H461 0.929 . S
C459 C458 1.363 1_554 S
C459 C465 1.428 . S
H460 C456 0.930 . S
H461 C458 0.929 . S
S462 N463 1.613 . S
S462 N464 1.610 . S
N463 S462 1.613 . S
N463 C466 1.350 . S
N464 S462 1.610 . S
N464 C465 1.351 . S
C465 C459 1.428 . S
C465 N464 1.351 . S
C465 C466 1.434 . S
C466 C457 1.429 . S
C466 N463 1.350 . S
C466 C465 1.434 . S
C467 C468 1.369 . S
C467 C469 1.419 . S
C467 H471 0.930 . S
C468 C467 1.369 . S
C468 C477 1.429 1_556 S
C469 C467 1.419 . S
C469 C470 1.363 . S
C469 H472 0.929 . S
C470 C469 1.363 . S
C470 C476 1.428 1_556 S
H471 C467 0.930 . S
H472 C469 0.929 . S
S473 N474 1.613 . S
S473 N475 1.610 . S
N474 S473 1.613 . S
N474 C477 1.350 . S
N475 S473 1.610 . S
N475 C476 1.351 . S
C476 C470 1.428 1_554 S
C476 N475 1.351 . S
C476 C477 1.434 . S
C477 C468 1.429 1_554 S
C477 N474 1.350 . S
C477 C476 1.434 . S
C478 C479 1.369 . S
C478 C480 1.419 . S
C478 H482 0.930 1_554 S
C479 C478 1.369 . S
C479 C488 1.429 . S
C480 C478 1.419 . S
C480 C481 1.363 . S
C480 H483 0.929 1_554 S
C481 C480 1.363 . S
C481 C487 1.428 . S
H482 C478 0.930 1_556 S
H483 C480 0.929 1_556 S
S484 N485 1.613 . S
S484 N486 1.610 . S
N485 S484 1.613 . S
N485 C488 1.350 . S
N486 S484 1.610 . S
N486 C487 1.351 . S
C487 C481 1.428 . S
C487 N486 1.351 . S
C487 C488 1.434 . S
C488 C479 1.429 . S
C488 N485 1.350 . S
C488 C487 1.434 . S
C489 C490 1.369 . S
C489 C491 1.419 . S
C489 H493 0.930 . S
C490 C489 1.369 . S
C490 C499 1.429 . S
C491 C489 1.419 . S
C491 C492 1.363 . S
C491 H494 0.929 . S
C492 C491 1.363 . S
C492 C498 1.428 . S
H493 C489 0.930 . S
H494 C491 0.929 . S
S495 N496 1.613 . S
S495 N497 1.610 . S
N496 S495 1.613 . S
N496 C499 1.350 . S
N497 S495 1.610 . S
N497 C498 1.351 . S
C498 C492 1.428 . S
C498 N497 1.351 . S
C498 C499 1.434 . S
C499 C490 1.429 . S
C499 N496 1.350 . S
C499 C498 1.434 . S
C500 C501 1.369 . S
C500 C502 1.419 . S
C500 H504 0.930 . S
C501 C500 1.369 . S
C501 C510 1.429 . S
C502 C500 1.419 . S
C502 C503 1.363 . S
C502 H505 0.929 . S
C503 C502 1.363 . S
C503 C509 1.428 . S
H504 C500 0.930 . S
H505 C502 0.929 . S
S506 N507 1.613 . S
S506 N508 1.610 . S
N507 S506 1.613 . S
N507 C510 1.350 . S
N508 S506 1.610 . S
N508 C509 1.351 . S
C509 C503 1.428 . S
C509 N508 1.351 . S
C509 C510 1.434 . S
C510 C501 1.429 . S
C510 N507 1.350 . S
C510 C509 1.434 . S
C511 C512 1.369 . S
C511 C513 1.419 . S
C511 H515 0.930 . S
C512 C511 1.369 . S
C512 C521 1.429 . S
C513 C511 1.419 . S
C513 C514 1.363 . S
C513 H516 0.929 . S
C514 C513 1.363 . S
C514 C520 1.428 . S
H515 C511 0.930 . S
H516 C513 0.929 . S
S517 N518 1.613 . S
S517 N519 1.610 . S
N518 S517 1.613 . S
N518 C521 1.350 . S
N519 S517 1.610 . S
N519 C520 1.351 . S
C520 C514 1.428 . S
C520 N519 1.351 . S
C520 C521 1.434 . S
C521 C512 1.429 . S
C521 N518 1.350 . S
C521 C520 1.434 . S
C522 C523 1.369 . S
C522 C524 1.419 . S
C522 H526 0.930 . S
C523 C522 1.369 . S
C523 C532 1.429 . S
C524 C522 1.419 . S
C524 C525 1.363 . S
C524 H527 0.929 . S
C525 C524 1.363 . S
C525 C531 1.428 . S
H526 C522 0.930 . S
H527 C524 0.929 . S
S528 N529 1.613 . S
S528 N530 1.610 . S
N529 S528 1.613 . S
N529 C532 1.350 . S
N530 S528 1.610 . S
N530 C531 1.351 . S
C531 C525 1.428 . S
C531 N530 1.351 . S
C531 C532 1.434 . S
C532 C523 1.429 . S
C532 N529 1.350 . S
C532 C531 1.434 . S
C533 C534 1.369 . S
C533 C535 1.419 . S
C533 H537 0.930 . S
C534 C533 1.369 . S
C534 C543 1.429 . S
C535 C533 1.419 . S
C535 C536 1.363 . S
C535 H538 0.929 . S
C536 C535 1.363 . S
C536 C542 1.428 . S
H537 C533 0.930 . S
H538 C535 0.929 . S
S539 N540 1.613 . S
S539 N541 1.610 . S
N540 S539 1.613 . S
N540 C543 1.350 . S
N541 S539 1.610 . S
N541 C542 1.351 . S
C542 C536 1.428 . S
C542 N541 1.351 . S
C542 C543 1.434 . S
C543 C534 1.429 . S
C543 N540 1.350 . S
C543 C542 1.434 . S
C544 C545 1.369 . S
C544 C546 1.419 . S
C544 H548 0.930 . S
C545 C544 1.369 . S
C545 C554 1.429 . S
C546 C544 1.419 . S
C546 C547 1.363 . S
C546 H549 0.929 . S
C547 C546 1.363 . S
C547 C553 1.428 . S
H548 C544 0.930 . S
H549 C546 0.929 . S
S550 N551 1.613 . S
S550 N552 1.610 . S
N551 S550 1.613 . S
N551 C554 1.350 . S
N552 S550 1.610 . S
N552 C553 1.351 . S
C553 C547 1.428 . S
C553 N552 1.351 . S
C553 C554 1.434 . S
C554 C545 1.429 . S
C554 N551 1.350 . S
C554 C553 1.434 . S
C555 C556 1.369 . S
C555 C557 1.419 . S
C555 H559 0.930 . S
C556 C555 1.369 . S
C556 C565 1.429 . S
C557 C555 1.419 . S
C557 C558 1.363 . S
C557 H560 0.929 . S
C558 C557 1.363 . S
C558 C564 1.428 . S
H559 C555 0.930 . S
H560 C557 0.929 . S
S561 N562 1.613 . S
S561 N563 1.610 . S
N562 S561 1.613 . S
N562 C565 1.350 . S
N563 S561 1.610 . S
N563 C564 1.351 . S
C564 C558 1.428 . S
C564 N563 1.351 . S
C564 C565 1.434 . S
C565 C556 1.429 . S
C565 N562 1.350 . S
C565 C564 1.434 . S
C566 C567 1.369 . S
C566 C568 1.419 . S
C566 H570 0.930 . S
C567 C566 1.369 . S
C567 C576 1.429 . S
C568 C566 1.419 . S
C568 C569 1.363 . S
C568 H571 0.929 . S
C569 C568 1.363 . S
C569 C575 1.428 . S
H570 C566 0.930 . S
H571 C568 0.929 . S
S572 N573 1.613 . S
S572 N574 1.610 . S
N573 S572 1.613 . S
N573 C576 1.350 . S
N574 S572 1.610 . S
N574 C575 1.351 . S
C575 C569 1.428 . S
C575 N574 1.351 . S
C575 C576 1.434 . S
C576 C567 1.429 . S
C576 N573 1.350 . S
C576 C575 1.434 . S
C577 C578 1.369 . S
C577 C579 1.419 . S
C577 H581 0.930 . S
C578 C577 1.369 . S
C578 C587 1.429 . S
C579 C577 1.419 . S
C579 C580 1.363 . S
C579 H582 0.929 . S
C580 C579 1.363 . S
C580 C586 1.428 . S
H581 C577 0.930 . S
H582 C579 0.929 . S
S583 N584 1.613 . S
S583 N585 1.610 . S
N584 S583 1.613 . S
N584 C587 1.350 . S
N585 S583 1.610 . S
N585 C586 1.351 . S
C586 C580 1.428 . S
C586 N585 1.351 . S
C586 C587 1.434 . S
C587 C578 1.429 . S
C587 N584 1.350 . S
C587 C586 1.434 . S
C588 C589 1.366 1_556 S
C588 C590 1.418 1_556 S
C588 H592 0.934 . S
C589 C588 1.366 1_554 S
C589 C598 1.429 . S
C590 C588 1.418 1_554 S
C590 C591 1.363 . S
C590 H593 0.929 1_554 S
C591 C590 1.363 . S
C591 C597 1.428 . S
H592 C588 0.934 . S
H593 C590 0.929 1_556 S
S594 N595 1.613 . S
S594 N596 1.610 . S
N595 S594 1.613 . S
N595 C598 1.350 . S
N596 S594 1.610 . S
N596 C597 1.351 . S
C597 C591 1.428 . S
C597 N596 1.351 . S
C597 C598 1.434 . S
C598 C589 1.429 . S
C598 N595 1.350 . S
C598 C597 1.434 . S
C599 C600 1.369 . S
C599 C601 1.419 . S
C599 H603 0.926 1_556 S
C600 C599 1.369 . S
C600 C609 1.429 . S
C601 C599 1.419 . S
C601 C602 1.363 . S
C601 H604 0.929 . S
C602 C601 1.363 . S
C602 C608 1.428 . S
H603 C599 0.926 1_554 S
H604 C601 0.929 . S
S605 N606 1.613 . S
S605 N607 1.610 . S
N606 S605 1.613 . S
N606 C609 1.350 . S
N607 S605 1.610 . S
N607 C608 1.351 . S
C608 C602 1.428 . S
C608 N607 1.351 . S
C608 C609 1.434 . S
C609 C600 1.429 . S
C609 N606 1.350 . S
C609 C608 1.434 . S
C610 C611 1.369 1_556 S
C610 C612 1.419 . S
C610 H614 0.930 . S
C611 C610 1.369 1_554 S
C611 C620 1.429 . S
C612 C610 1.419 . S
C612 C613 1.363 1_556 S
C612 H615 0.929 . S
C613 C612 1.363 1_554 S
C613 C619 1.428 . S
H614 C610 0.930 . S
H615 C612 0.929 . S
S616 N617 1.613 . S
S616 N618 1.610 . S
N617 S616 1.613 . S
N617 C620 1.350 . S
N618 S616 1.610 . S
N618 C619 1.351 . S
C619 C613 1.428 . S
C619 N618 1.351 . S
C619 C620 1.434 . S
C620 C611 1.429 . S
C620 N617 1.350 . S
C620 C619 1.434 . S
C621 C622 1.369 . S
C621 C623 1.419 . S
C621 H625 0.930 . S
C622 C621 1.369 . S
C622 C631 1.429 . S
C623 C621 1.419 . S
C623 C624 1.363 . S
C623 H626 0.929 . S
C624 C623 1.363 . S
C624 C630 1.428 . S
H625 C621 0.930 . S
H626 C623 0.929 . S
S627 N628 1.613 . S
S627 N629 1.610 . S
N628 S627 1.613 . S
N628 C631 1.350 1_554 S
N629 S627 1.610 . S
N629 C630 1.351 1_554 S
C630 C624 1.428 . S
C630 N629 1.351 1_556 S
C630 C631 1.434 . S
C631 C622 1.429 . S
C631 N628 1.350 1_556 S
C631 C630 1.434 . S
C632 C633 1.369 . S
C632 C634 1.419 . S
C632 H636 0.930 . S
C633 C632 1.369 . S
C633 C642 1.429 1_565 S
C634 C632 1.419 . S
C634 C635 1.363 1_565 S
C634 H637 0.929 . S
C635 C634 1.363 1_545 S
C635 C641 1.428 . S
H636 C632 0.930 . S
H637 C634 0.929 . S
S638 N639 1.613 . S
S638 N640 1.610 . S
N639 S638 1.613 . S
N639 C642 1.350 . S
N640 S638 1.610 . S
N640 C641 1.351 . S
C641 C635 1.428 . S
C641 N640 1.351 . S
C641 C642 1.434 . S
C642 C633 1.429 1_545 S
C642 N639 1.350 . S
C642 C641 1.434 . S
C643 C644 1.369 . S
C643 C645 1.419 . S
C643 H647 0.930 . S
C644 C643 1.369 . S
C644 C653 1.429 1_655 S
C645 C643 1.419 . S
C645 C646 1.363 1_655 S
C645 H648 0.929 . S
C646 C645 1.363 1_455 S
C646 C652 1.428 . S
H647 C643 0.930 . S
H648 C645 0.929 . S
S649 N650 1.613 . S
S649 N651 1.610 . S
N650 S649 1.613 . S
N650 C653 1.350 . S
N651 S649 1.610 . S
N651 C652 1.351 . S
C652 C646 1.428 . S
C652 N651 1.351 . S
C652 C653 1.434 . S
C653 C644 1.429 1_455 S
C653 N650 1.350 . S
C653 C652 1.434 . S
C654 C655 1.369 . S
C654 C656 1.419 . S
C654 H658 0.930 . S
C655 C654 1.369 . S
C655 C664 1.429 1_565 S
C656 C654 1.419 . S
C656 C657 1.363 1_565 S
C656 H659 0.929 . S
C657 C656 1.363 1_545 S
C657 C663 1.428 . S
H658 C654 0.930 . S
H659 C656 0.929 . S
S660 N661 1.613 . S
S660 N662 1.610 . S
N661 S660 1.613 . S
N661 C664 1.350 . S
N662 S660 1.610 . S
N662 C663 1.351 . S
C663 C657 1.428 . S
C663 N662 1.351 . S
C663 C664 1.434 . S
C664 C655 1.429 1_545 S
C664 N661 1.350 . S
C664 C663 1.434 . S
C665 C666 1.369 1_455 S
C665 C667 1.419 . S
C665 H669 0.930 . S
C666 C665 1.369 1_655 S
C666 C675 1.429 . S
C667 C665 1.419 . S
C667 C668 1.363 . S
C667 H670 0.929 . S
C668 C667 1.363 . S
C668 C674 1.428 1_455 S
H669 C665 0.930 . S
H670 C667 0.929 . S
S671 N672 1.613 . S
S671 N673 1.610 . S
N672 S671 1.613 . S
N672 C675 1.350 . S
N673 S671 1.610 . S
N673 C674 1.351 . S
C674 C668 1.428 1_655 S
C674 N673 1.351 . S
C674 C675 1.434 . S
C675 C666 1.429 . S
C675 N672 1.350 . S
C675 C674 1.434 . S
C676 C677 1.369 1_545 S
C676 C678 1.419 . S
C676 H680 0.930 . S
C677 C676 1.369 1_565 S
C677 C686 1.429 . S
C678 C676 1.419 . S
C678 C679 1.363 . S
C678 H681 0.929 . S
C679 C678 1.363 . S
C679 C685 1.428 1_545 S
H680 C676 0.930 . S
H681 C678 0.929 . S
S682 N683 1.613 . S
S682 N684 1.610 . S
N683 S682 1.613 . S
N683 C686 1.350 . S
N684 S682 1.610 . S
N684 C685 1.351 . S
C685 C679 1.428 1_565 S
C685 N684 1.351 . S
C685 C686 1.434 . S
C686 C677 1.429 . S
C686 N683 1.350 . S
C686 C685 1.434 . S
C687 C688 1.369 1_655 S
C687 C689 1.419 . S
C687 H691 0.930 . S
C688 C687 1.369 1_455 S
C688 C697 1.429 . S
C689 C687 1.419 . S
C689 C690 1.363 . S
C689 H692 0.929 . S
C690 C689 1.363 . S
C690 C696 1.428 1_655 S
H691 C687 0.930 . S
H692 C689 0.929 . S
S693 N694 1.613 . S
S693 N695 1.610 . S
N694 S693 1.613 . S
N694 C697 1.350 . S
N695 S693 1.610 . S
N695 C696 1.351 . S
C696 C690 1.428 1_455 S
C696 N695 1.351 . S
C696 C697 1.434 . S
C697 C688 1.429 . S
C697 N694 1.350 . S
C697 C696 1.434 . S
C698 C699 1.369 1_545 S
C698 C700 1.419 . S
C698 H702 0.930 . S
C699 C698 1.369 1_565 S
C699 C708 1.429 . S
C700 C698 1.419 . S
C700 C701 1.363 . S
C700 H703 0.929 . S
C701 C700 1.363 . S
C701 C707 1.428 1_545 S
H702 C698 0.930 . S
H703 C700 0.929 . S
S704 N705 1.613 . S
S704 N706 1.610 . S
N705 S704 1.613 . S
N705 C708 1.350 . S
N706 S704 1.610 . S
N706 C707 1.351 . S
C707 C701 1.428 1_565 S
C707 N706 1.351 . S
C707 C708 1.434 . S
C708 C699 1.429 . S
C708 N705 1.350 . S
C708 C707 1.434 . S
C709 C710 1.369 1_655 S
C709 C711 1.419 . S
C709 H713 0.930 . S
C710 C709 1.369 1_455 S
C710 C719 1.429 . S
C711 C709 1.419 . S
C711 C712 1.363 . S
C711 H714 0.929 . S
C712 C711 1.363 . S
C712 C718 1.428 1_655 S
H713 C709 0.930 . S
H714 C711 0.929 . S
S715 N716 1.613 . S
S715 N717 1.610 . S
N716 S715 1.613 . S
N716 C719 1.350 . S
N717 S715 1.610 . S
N717 C718 1.351 . S
C718 C712 1.428 1_455 S
C718 N717 1.351 . S
C718 C719 1.434 . S
C719 C710 1.429 . S
C719 N716 1.350 . S
C719 C718 1.434 . S
C720 C721 1.369 . S
C720 C722 1.419 . S
C720 H724 0.930 . S
C721 C720 1.369 . S
C721 C730 1.429 . S
C722 C720 1.419 . S
C722 C723 1.363 . S
C722 H725 0.929 . S
C723 C722 1.363 . S
C723 C729 1.428 . S
H724 C720 0.930 . S
H725 C722 0.929 . S
S726 N727 1.613 . S
S726 N728 1.610 . S
N727 S726 1.613 . S
N727 C730 1.350 . S
N728 S726 1.610 . S
N728 C729 1.351 . S
C729 C723 1.428 . S
C729 N728 1.351 . S
C729 C730 1.434 . S
C730 C721 1.429 . S
C730 N727 1.350 . S
C730 C729 1.434 . S
C731 C732 1.369 . S
C731 C733 1.419 . S
C731 H735 0.930 . S
C732 C731 1.369 . S
C732 C741 1.429 . S
C733 C731 1.419 . S
C733 C734 1.363 . S
C733 H736 0.929 . S
C734 C733 1.363 . S
C734 C740 1.428 . S
H735 C731 0.930 . S
H736 C733 0.929 . S
S737 N738 1.613 . S
S737 N739 1.610 . S
N738 S737 1.613 . S
N738 C741 1.350 . S
N739 S737 1.610 . S
N739 C740 1.351 . S
C740 C734 1.428 . S
C740 N739 1.351 . S
C740 C741 1.434 . S
C741 C732 1.429 . S
C741 N738 1.350 . S
C741 C740 1.434 . S
C742 C743 1.369 . S
C742 C744 1.419 . S
C742 H746 0.930 . S
C743 C742 1.369 . S
C743 C752 1.429 . S
C744 C742 1.419 . S
C744 C745 1.363 . S
C744 H747 0.929 . S
C745 C744 1.363 . S
C745 C751 1.428 . S
H746 C742 0.930 . S
H747 C744 0.929 . S
S748 N749 1.613 . S
S748 N750 1.610 . S
N749 S748 1.613 . S
N749 C752 1.350 . S
N750 S748 1.610 . S
N750 C751 1.351 . S
C751 C745 1.428 . S
C751 N750 1.351 . S
C751 C752 1.434 . S
C752 C743 1.429 . S
C752 N749 1.350 . S
C752 C751 1.434 . S
C753 C754 1.369 . S
C753 C755 1.419 . S
C753 H757 0.930 . S
C754 C753 1.369 . S
C754 C763 1.429 . S
C755 C753 1.419 . S
C755 C756 1.363 . S
C755 H758 0.929 . S
C756 C755 1.363 . S
C756 C762 1.428 . S
H757 C753 0.930 . S
H758 C755 0.929 . S
S759 N760 1.613 . S
S759 N761 1.610 . S
N760 S759 1.613 . S
N760 C763 1.350 . S
N761 S759 1.610 . S
N761 C762 1.351 . S
C762 C756 1.428 . S
C762 N761 1.351 . S
C762 C763 1.434 . S
C763 C754 1.429 . S
C763 N760 1.350 . S
C763 C762 1.434 . S
C764 C765 1.369 . S
C764 C766 1.419 . S
C764 H768 0.930 . S
C765 C764 1.369 . S
C765 C774 1.429 . S
C766 C764 1.419 . S
C766 C767 1.363 . S
C766 H769 0.929 . S
C767 C766 1.363 . S
C767 C773 1.428 . S
H768 C764 0.930 . S
H769 C766 0.929 . S
S770 N771 1.613 . S
S770 N772 1.610 . S
N771 S770 1.613 . S
N771 C774 1.350 . S
N772 S770 1.610 . S
N772 C773 1.351 . S
C773 C767 1.428 . S
C773 N772 1.351 . S
C773 C774 1.434 . S
C774 C765 1.429 . S
C774 N771 1.350 . S
C774 C773 1.434 . S
C775 C776 1.369 . S
C775 C777 1.419 . S
C775 H779 0.930 . S
C776 C775 1.369 . S
C776 C785 1.429 . S
C777 C775 1.419 . S
C777 C778 1.363 . S
C777 H780 0.929 . S
C778 C777 1.363 . S
C778 C784 1.428 . S
H779 C775 0.930 . S
H780 C777 0.929 . S
S781 N782 1.613 . S
S781 N783 1.610 . S
N782 S781 1.613 . S
N782 C785 1.350 . S
N783 S781 1.610 . S
N783 C784 1.351 . S
C784 C778 1.428 . S
C784 N783 1.351 . S
C784 C785 1.434 . S
C785 C776 1.429 . S
C785 N782 1.350 . S
C785 C784 1.434 . S
C786 C787 1.369 . S
C786 C788 1.419 . S
C786 H790 0.930 . S
C787 C786 1.369 . S
C787 C796 1.429 . S
C788 C786 1.419 . S
C788 C789 1.363 . S
C788 H791 0.929 . S
C789 C788 1.363 . S
C789 C795 1.428 . S
H790 C786 0.930 . S
H791 C788 0.929 . S
S792 N793 1.613 . S
S792 N794 1.610 . S
N793 S792 1.613 . S
N793 C796 1.350 . S
N794 S792 1.610 . S
N794 C795 1.351 . S
C795 C789 1.428 . S
C795 N794 1.351 . S
C795 C796 1.434 . S
C796 C787 1.429 . S
C796 N793 1.350 . S
C796 C795 1.434 . S
C797 C798 1.369 . S
C797 C799 1.419 . S
C797 H801 0.930 . S
C798 C797 1.369 . S
C798 C807 1.429 . S
C799 C797 1.419 . S
C799 C800 1.363 . S
C799 H802 0.929 . S
C800 C799 1.363 . S
C800 C806 1.428 . S
H801 C797 0.930 . S
H802 C799 0.929 . S
S803 N804 1.613 . S
S803 N805 1.610 . S
N804 S803 1.613 . S
N804 C807 1.350 . S
N805 S803 1.610 . S
N805 C806 1.351 . S
C806 C800 1.428 . S
C806 N805 1.351 . S
C806 C807 1.434 . S
C807 C798 1.429 . S
C807 N804 1.350 . S
C807 C806 1.434 . S
C808 C809 1.369 . S
C808 C810 1.419 . S
C808 H812 0.930 . S
C809 C808 1.369 . S
C809 C818 1.429 1_556 S
C810 C808 1.419 . S
C810 C811 1.363 1_556 S
C810 H813 0.929 . S
C811 C810 1.363 1_554 S
C811 C817 1.428 . S
H812 C808 0.930 . S
H813 C810 0.929 . S
S814 N815 1.613 . S
S814 N816 1.610 . S
N815 S814 1.613 . S
N815 C818 1.350 . S
N816 S814 1.610 . S
N816 C817 1.351 . S
C817 C811 1.428 . S
C817 N816 1.351 . S
C817 C818 1.434 . S
C818 C809 1.429 1_554 S
C818 N815 1.350 . S
C818 C817 1.434 . S
C819 C820 1.369 1_556 S
C819 C821 1.419 . S
C819 H823 0.930 . S
C820 C819 1.369 1_554 S
C820 C829 1.429 . S
C821 C819 1.419 . S
C821 C822 1.363 . S
C821 H824 0.929 . S
C822 C821 1.363 . S
C822 C828 1.428 1_556 S
H823 C819 0.930 . S
H824 C821 0.929 . S
S825 N826 1.613 . S
S825 N827 1.610 . S
N826 S825 1.613 . S
N826 C829 1.350 . S
N827 S825 1.610 . S
N827 C828 1.351 . S
C828 C822 1.428 1_554 S
C828 N827 1.351 . S
C828 C829 1.434 . S
C829 C820 1.429 . S
C829 N826 1.350 . S
C829 C828 1.434 . S
C830 C831 1.369 1_556 S
C830 C832 1.419 . S
C830 H834 0.930 . S
C831 C830 1.369 1_554 S
C831 C840 1.429 . S
C832 C830 1.419 . S
C832 C833 1.363 . S
C832 H835 0.929 . S
C833 C832 1.363 . S
C833 C839 1.428 1_556 S
H834 C830 0.930 . S
H835 C832 0.929 . S
S836 N837 1.613 . S
S836 N838 1.610 . S
N837 S836 1.613 . S
N837 C840 1.350 . S
N838 S836 1.610 . S
N838 C839 1.351 . S
C839 C833 1.428 1_554 S
C839 N838 1.351 . S
C839 C840 1.434 . S
C840 C831 1.429 . S
C840 N837 1.350 . S
C840 C839 1.434 . S
C841 C842 1.369 1_556 S
C841 C843 1.419 . S
C841 H845 0.930 . S
C842 C841 1.369 1_554 S
C842 C851 1.429 . S
C843 C841 1.419 . S
C843 C844 1.363 . S
C843 H846 0.929 . S
C844 C843 1.363 . S
C844 C850 1.428 1_556 S
H845 C841 0.930 . S
H846 C843 0.929 . S
S847 N848 1.613 . S
S847 N849 1.610 . S
N848 S847 1.613 . S
N848 C851 1.350 . S
N849 S847 1.610 . S
N849 C850 1.351 . S
C850 C844 1.428 1_554 S
C850 N849 1.351 . S
C850 C851 1.434 . S
C851 C842 1.429 . S
C851 N848 1.350 . S
C851 C850 1.434 . S
C852 C853 1.369 . S
C852 C854 1.419 . S
C852 H856 0.930 . S
C853 C852 1.369 . S
C853 C862 1.429 . S
C854 C852 1.419 . S
C854 C855 1.363 . S
C854 H857 0.929 . S
C855 C854 1.363 . S
C855 C861 1.428 . S
H856 C852 0.930 . S
H857 C854 0.929 . S
S858 N859 1.613 . S
S858 N860 1.610 . S
N859 S858 1.613 . S
N859 C862 1.350 . S
N860 S858 1.610 . S
N860 C861 1.351 . S
C861 C855 1.428 . S
C861 N860 1.351 . S
C861 C862 1.434 . S
C862 C853 1.429 . S
C862 N859 1.350 . S
C862 C861 1.434 . S
C863 C864 1.369 . S
C863 C865 1.419 . S
C863 H867 0.930 . S
C864 C863 1.369 . S
C864 C873 1.429 . S
C865 C863 1.419 . S
C865 C866 1.363 . S
C865 H868 0.929 . S
C866 C865 1.363 . S
C866 C872 1.428 . S
H867 C863 0.930 . S
H868 C865 0.929 . S
S869 N870 1.613 . S
S869 N871 1.610 . S
N870 S869 1.613 . S
N870 C873 1.350 . S
N871 S869 1.610 . S
N871 C872 1.351 . S
C872 C866 1.428 . S
C872 N871 1.351 . S
C872 C873 1.434 . S
C873 C864 1.429 . S
C873 N870 1.350 . S
C873 C872 1.434 . S
C874 C875 1.369 . S
C874 C876 1.419 . S
C874 H878 0.930 . S
C875 C874 1.369 . S
C875 C884 1.429 . S
C876 C874 1.419 . S
C876 C877 1.363 . S
C876 H879 0.929 . S
C877 C876 1.363 . S
C877 C883 1.428 . S
H878 C874 0.930 . S
H879 C876 0.929 . S
S880 N881 1.613 . S
S880 N882 1.610 . S
N881 S880 1.613 . S
N881 C884 1.350 . S
N882 S880 1.610 . S
N882 C883 1.351 . S
C883 C877 1.428 . S
C883 N882 1.351 . S
C883 C884 1.434 . S
C884 C875 1.429 . S
C884 N881 1.350 . S
C884 C883 1.434 . S
C885 C886 1.369 . S
C885 C887 1.419 . S
C885 H889 0.930 . S
C886 C885 1.369 . S
C886 C895 1.429 . S
C887 C885 1.419 . S
C887 C888 1.363 . S
C887 H890 0.929 . S
C888 C887 1.363 . S
C888 C894 1.428 . S
H889 C885 0.930 . S
H890 C887 0.929 . S
S891 N892 1.613 . S
S891 N893 1.610 . S
N892 S891 1.613 . S
N892 C895 1.350 . S
N893 S891 1.610 . S
N893 C894 1.351 . S
C894 C888 1.428 . S
C894 N893 1.351 . S
C894 C895 1.434 . S
C895 C886 1.429 . S
C895 N892 1.350 . S
C895 C894 1.434 . S
C369 C16 1.241 . S
C371 C131 1.241 . S
C380 C39 1.242 . S
C382 C154 1.235 . S
C391 C177 1.241 . S
C393 C62 1.231 . S
C402 C109 1.226 . S
C404 C85 1.238 . S
C413 C315 1.246 . S
C415 C200 1.236 . S
C424 C223 1.233 . S
C426 C338 1.242 . S
C435 C361 1.233 . S
C437 C246 1.236 . S
C446 C293 1.224 . S
C448 C269 1.239 . S
C457 C19 1.606 . S
C459 C44 1.577 . S
C468 C67 1.571 . S
C470 C42 1.613 . S
C479 C90 1.579 . S
C481 C65 1.621 . S
C490 C88 1.605 . S
C492 C21 1.577 . S
C501 C110 1.641 . S
C503 C182 1.571 . S
C512 C112 1.599 . S
C514 C134 1.585 . S
C523 C136 1.566 . S
C525 C157 1.601 . S
C534 C159 1.567 . S
C536 C180 1.608 . S
C545 C203 1.608 . S
C547 C228 1.577 . S
C556 C251 1.579 . S
C558 C226 1.609 . S
C567 C249 1.621 . S
C569 C274 1.585 . S
C578 C272 1.606 . S
C580 C205 1.577 . S
C589 C366 1.572 . S
C591 C294 1.641 . S
C600 C296 1.599 . S
C602 C318 1.584 . S
C611 C320 1.566 . S
C613 C341 1.601 . S
C622 C364 1.608 . S
C624 C343 1.573 . S
C633 C156 1.599 . S
C635 C17 1.611 . S
C644 C179 1.591 . S
C646 C40 1.607 . S
C655 C63 1.633 . S
C657 C111 1.597 . S
C666 C86 1.609 . S
C668 C133 1.597 . S
C677 C64 1.643 . S
C679 C108 1.653 . S
C688 C132 1.616 . S
C690 C87 1.603 . S
C699 C155 1.609 . S
C701 C18 1.596 . S
C710 C41 1.596 . S
C712 C178 1.616 . S
C721 C201 1.612 . S
C723 C340 1.593 . S
C732 C224 1.612 . S
C734 C363 1.592 . S
C743 C295 1.601 . S
C745 C247 1.632 . S
C754 C270 1.612 . S
C756 C317 1.592 . S
C765 C292 1.652 . S
C767 C248 1.644 . S
C776 C316 1.617 . S
C778 C271 1.603 . S
C787 C339 1.610 . S
C789 C202 1.597 . S
C798 C225 1.603 . S
C800 C362 1.617 . S
C809 C365 1.323 . S
C811 C20 1.324 . S
C820 C297 1.336 . S
C822 C43 1.328 . S
C831 C66 1.314 . S
C833 C319 1.313 . S
C842 C342 1.300 . S
C844 C89 1.300 . S
C853 C113 1.338 . S
C855 C227 1.327 . S
C864 C135 1.313 . S
C866 C250 1.312 . S
C875 C273 1.300 . S
C877 C158 1.300 . S
C886 C181 1.322 . S
C888 C204 1.323 . S
