# Generated by pormake.
# Topology bcg, (8)-cn, num edge types: 1
# Building blocks:
#     Node 0, Type 0, BuildingBlock: TAGTUT_clean_sbu_3, # of connection points: 8
#     Node 1, Type 0, BuildingBlock: TAGTUT_clean_sbu_3, # of connection points: 8
#     Node 2, Type 0, BuildingBlock: TAGTUT_clean_sbu_3, # of connection points: 8
#     Node 3, Type 0, BuildingBlock: TAGTUT_clean_sbu_3, # of connection points: 8
#     Edge 4, Type (0, 0), BuildingBlock: KIFKEQ_clean_linker_1, # of connection points: 2
#     Edge 5, Type (0, 0), BuildingBlock: KIFKEQ_clean_linker_1, # of connection points: 2
#     Edge 6, Type (0, 0), BuildingBlock: KIFKEQ_clean_linker_1, # of connection points: 2
#     Edge 7, Type (0, 0), BuildingBlock: KIFKEQ_clean_linker_1, # of connection points: 2
#     Edge 8, Type (0, 0), BuildingBlock: KIFKEQ_clean_linker_1, # of connection points: 2
#     Edge 9, Type (0, 0), BuildingBlock: KIFKEQ_clean_linker_1, # of connection points: 2
#     Edge 10, Type (0, 0), BuildingBlock: KIFKEQ_clean_linker_1, # of connection points: 2
#     Edge 11, Type (0, 0), BuildingBlock: KIFKEQ_clean_linker_1, # of connection points: 2
#     Edge 12, Type (0, 0), BuildingBlock: KIFKEQ_clean_linker_1, # of connection points: 2
#     Edge 13, Type (0, 0), BuildingBlock: KIFKEQ_clean_linker_1, # of connection points: 2
#     Edge 14, Type (0, 0), BuildingBlock: KIFKEQ_clean_linker_1, # of connection points: 2
#     Edge 15, Type (0, 0), BuildingBlock: KIFKEQ_clean_linker_1, # of connection points: 2
#     Edge 16, Type (0, 0), BuildingBlock: KIFKEQ_clean_linker_1, # of connection points: 2
#     Edge 17, Type (0, 0), BuildingBlock: KIFKEQ_clean_linker_1, # of connection points: 2
#     Edge 18, Type (0, 0), BuildingBlock: KIFKEQ_clean_linker_1, # of connection points: 2
#     Edge 19, Type (0, 0), BuildingBlock: KIFKEQ_clean_linker_1, # of connection points: 2
# Relax obj value: 0.117
# Max RMSD: 0.248
# Mean RMSD: 0.248
data_MOF--net-bcg--node1-TAGTUT_clean_sbu_3--edge1-KIFKEQ_clean_linker_1
_symmetry_space_group_name_H-M    P1
_symmetry_Int_Tables_number       1
_symmetry_cell_setting            triclinic
loop_
_symmetry_equiv_pos_as_xyz
'x, y, z'
_cell_length_a     15.265238
_cell_length_b     27.955565
_cell_length_c     33.67149
_cell_angle_alpha  91.003335
_cell_angle_beta   89.952984
_cell_angle_gamma 89.95574
loop_
_atom_site_label
_atom_site_type_symbol
_atom_site_fract_x
_atom_site_fract_y
_atom_site_fract_z
_atom_type_partial_charge
C0 C 0.42599 0.21305 0.00949 0.0
C1 C 0.28728 0.26881 0.14937 0.0
C2 C 0.05211 0.25413 0.08979 0.0
Mg3 Mg 0.33693 0.2139 0.92233 0.0
Mg4 Mg 0.19464 0.29935 0.89677 0.0
O5 O 0.22791 0.25194 0.93235 0.0
Mg6 Mg 0.24574 0.26606 0.99041 0.0
O7 O 0.26734 0.27394 0.04891 0.0
Mg8 Mg 0.25002 0.206 0.06512 0.0
Mg9 Mg 0.20428 0.32018 0.07707 0.0
C10 C 0.05063 0.30631 0.96509 0.0
O11 O 0.2935 0.34494 0.9851 0.0
O12 O 0.28286 0.19527 0.85942 0.0
O13 O 0.2481 0.38003 0.04244 0.0
O14 O 0.40389 0.28066 0.89772 0.0
O15 O 0.18756 0.25387 0.8445 0.0
O16 O 0.31155 0.34204 0.88922 0.0
O17 O 0.20235 0.19041 0.00096 0.0
O18 O 0.26044 0.15107 0.94919 0.0
C19 C 0.21246 0.15186 0.98047 0.0
C20 C 0.22813 0.2149 0.83579 0.0
O21 O 0.10613 0.29174 0.99075 0.0
O22 O 0.29264 0.22977 0.12868 0.0
O23 O 0.07174 0.3157 0.92897 0.0
O24 O 0.10744 0.21971 0.0869 0.0
O25 O 0.25759 0.30776 0.13503 0.0
O26 O 0.07218 0.29666 0.08009 0.0
O27 O 0.3792 0.23666 0.98543 0.0
O28 O 0.39425 0.19838 0.04251 0.0
C29 C 0.38886 0.32418 0.88859 0.0
C30 C 0.28699 0.38171 0.00862 0.0
C31 C 0.93826 0.71339 0.01283 0.0
C32 C 0.7869 0.76784 0.1511 0.0
C33 C 0.55624 0.74558 0.08724 0.0
Mg34 Mg 0.8513 0.7109 0.92468 0.0
Mg35 Mg 0.709 0.79466 0.89796 0.0
O36 O 0.7412 0.74853 0.93437 0.0
Mg37 Mg 0.75427 0.76337 0.99236 0.0
O38 O 0.77296 0.7722 0.0509 0.0
Mg39 Mg 0.7605 0.70379 0.06681 0.0
Mg40 Mg 0.70273 0.81665 0.07771 0.0
C41 C 0.56203 0.80569 0.96453 0.0
O42 O 0.79696 0.84268 0.98693 0.0
O43 O 0.79667 0.68998 0.86202 0.0
O44 O 0.7445 0.87739 0.04318 0.0
O45 O 0.91881 0.77701 0.89846 0.0
O46 O 0.693 0.74502 0.84912 0.0
O47 O 0.82505 0.83694 0.88809 0.0
O48 O 0.71562 0.68723 0.0027 0.0
O49 O 0.7758 0.64772 0.95169 0.0
C50 C 0.72684 0.64856 0.9826 0.0
C51 C 0.73508 0.70664 0.84026 0.0
O52 O 0.61142 0.78789 0.99135 0.0
O53 O 0.79743 0.729 0.13056 0.0
O54 O 0.5894 0.81539 0.92941 0.0
O55 O 0.61615 0.71352 0.08586 0.0
O56 O 0.75364 0.80575 0.13643 0.0
O57 O 0.57248 0.78891 0.0785 0.0
O58 O 0.89024 0.73564 0.98827 0.0
O59 O 0.90692 0.69888 0.04596 0.0
C60 C 0.90287 0.8199 0.88785 0.0
C61 C 0.78576 0.87954 0.00993 0.0
C62 C 0.43714 0.78437 0.48769 0.0
C63 C 0.29868 0.72867 0.34904 0.0
C64 C 0.06192 0.75059 0.40775 0.0
Mg65 Mg 0.34821 0.78958 0.57558 0.0
Mg66 Mg 0.20605 0.70594 0.60359 0.0
O67 O 0.23858 0.75115 0.56633 0.0
Mg68 Mg 0.2527 0.73529 0.50854 0.0
O69 O 0.27237 0.72602 0.44989 0.0
Mg70 Mg 0.26116 0.79395 0.43265 0.0
Mg71 Mg 0.21089 0.68002 0.42104 0.0
C72 C 0.05974 0.69146 0.53712 0.0
O73 O 0.29672 0.65616 0.51475 0.0
O74 O 0.29248 0.81172 0.63782 0.0
O75 O 0.24929 0.62065 0.45788 0.0
O76 O 0.41686 0.72466 0.60254 0.0
O77 O 0.18918 0.75681 0.65156 0.0
O78 O 0.32374 0.6647 0.61397 0.0
O79 O 0.21326 0.81118 0.49662 0.0
O80 O 0.27213 0.8516 0.5474 0.0
C81 C 0.22373 0.85016 0.51636 0.0
C82 C 0.23086 0.79547 0.65981 0.0
O83 O 0.10976 0.70942 0.5104 0.0
O84 O 0.30225 0.76829 0.36905 0.0
O85 O 0.08626 0.68327 0.57265 0.0
O86 O 0.11813 0.7842 0.41222 0.0
O87 O 0.26995 0.6899 0.364 0.0
O88 O 0.08169 0.70694 0.41382 0.0
O89 O 0.38918 0.7632 0.51285 0.0
O90 O 0.40578 0.79807 0.45438 0.0
C91 C 0.40144 0.68194 0.6137 0.0
C92 C 0.28768 0.61902 0.49184 0.0
C93 C 0.92517 0.28187 0.49244 0.0
C94 C 0.79441 0.23139 0.35313 0.0
C95 C 0.55318 0.24785 0.4093 0.0
Mg96 Mg 0.8369 0.28232 0.58009 0.0
Mg97 Mg 0.69705 0.19646 0.60621 0.0
O98 O 0.72703 0.24441 0.57057 0.0
Mg99 Mg 0.74165 0.23108 0.51216 0.0
O100 O 0.76122 0.22451 0.45334 0.0
Mg101 Mg 0.74886 0.29296 0.43783 0.0
Mg102 Mg 0.70538 0.17856 0.4222 0.0
C103 C 0.54866 0.18672 0.53967 0.0
O104 O 0.78788 0.15185 0.5159 0.0
O105 O 0.78416 0.30066 0.64333 0.0
O106 O 0.74391 0.11821 0.4577 0.0
O107 O 0.90572 0.21577 0.60402 0.0
O108 O 0.68993 0.24174 0.65864 0.0
O109 O 0.8146 0.15414 0.61301 0.0
O110 O 0.70085 0.30732 0.5024 0.0
O111 O 0.76003 0.3457 0.55426 0.0
C112 C 0.71151 0.34551 0.52323 0.0
C113 C 0.73008 0.28084 0.66718 0.0
O114 O 0.59966 0.20483 0.51345 0.0
O115 O 0.79087 0.27055 0.37368 0.0
O116 O 0.57447 0.1773 0.57515 0.0
O117 O 0.60665 0.28225 0.41636 0.0
O118 O 0.7706 0.19101 0.36683 0.0
O119 O 0.57529 0.20415 0.4136 0.0
O120 O 0.87732 0.25932 0.51676 0.0
O121 O 0.89364 0.29722 0.45968 0.0
C122 C 0.89166 0.17218 0.61315 0.0
C123 C 0.78123 0.11561 0.49183 0.0
H124 H 0.55389 0.21516 0.06599 0.0
H125 H 0.51222 0.21991 0.93923 0.0
H126 H 0.70394 0.24252 0.05674 0.0
H127 H 0.66257 0.24671 0.92988 0.0
H128 H 0.98981 0.24221 0.01675 0.0
H129 H 0.84184 0.21748 0.0286 0.0
H130 H 0.74971 0.3198 0.94341 0.0
H131 H 0.90144 0.34593 0.9321 0.0
C132 C 0.57764 0.22049 0.03606 0.0
C133 C 0.52136 0.2155 0.00335 0.0
C134 C 0.66325 0.23675 0.03076 0.0
C135 C 0.69422 0.24792 0.99262 0.0
C136 C 0.63966 0.23986 0.9597 0.0
C137 C 0.55413 0.22373 0.96502 0.0
C138 C 0.93829 0.26166 0.00213 0.0
C139 C 0.95757 0.2979 0.97496 0.0
C140 C 0.853 0.24664 0.00843 0.0
C141 C 0.78395 0.26681 0.98722 0.0
C142 C 0.80209 0.30345 0.96011 0.0
C143 C 0.8885 0.3188 0.95391 0.0
H144 H 0.07276 0.70963 0.06717 0.0
H145 H 0.01906 0.72178 0.94193 0.0
H146 H 0.2252 0.73222 0.05529 0.0
H147 H 0.16646 0.74813 0.93044 0.0
H148 H 0.45262 0.76499 0.91205 0.0
H149 H 0.30911 0.7331 0.92476 0.0
H150 H 0.31185 0.7986 0.04229 0.0
H151 H 0.46051 0.8276 0.02994 0.0
C152 C 0.09383 0.71629 0.03705 0.0
C153 C 0.03364 0.71452 0.00553 0.0
C154 C 0.1807 0.73035 0.0303 0.0
C155 C 0.20845 0.74331 0.99198 0.0
C156 C 0.14892 0.73835 0.96033 0.0
C157 C 0.06342 0.72348 0.96695 0.0
C158 C 0.42166 0.77376 0.94024 0.0
C159 C 0.46718 0.79931 0.96987 0.0
C160 C 0.33894 0.75517 0.94772 0.0
C161 C 0.29773 0.76303 0.98467 0.0
C162 C 0.34193 0.79067 0.01381 0.0
C163 C 0.42643 0.80809 0.00662 0.0
H164 H 0.54659 0.74599 0.43306 0.0
H165 H 0.53713 0.80152 0.55318 0.0
H166 H 0.68991 0.71245 0.44511 0.0
H167 H 0.68521 0.77242 0.56472 0.0
H168 H 0.92301 0.68765 0.59046 0.0
H169 H 0.77113 0.7085 0.57734 0.0
H170 H 0.83265 0.72009 0.45229 0.0
H171 H 0.97896 0.69306 0.46543 0.0
C172 C 0.5775 0.75303 0.46153 0.0
C173 C 0.53192 0.77721 0.49192 0.0
C174 C 0.66004 0.73354 0.4687 0.0
C175 C 0.70056 0.73917 0.50614 0.0
C176 C 0.65607 0.76581 0.53587 0.0
C177 C 0.572 0.78376 0.52906 0.0
C178 C 0.90293 0.6929 0.56 0.0
C179 C 0.96428 0.6903 0.52886 0.0
C180 C 0.81601 0.70615 0.55249 0.0
C181 C 0.78907 0.71817 0.51381 0.0
C182 C 0.8492 0.71151 0.48253 0.0
C183 C 0.93458 0.69669 0.49 0.0
H184 H 0.02273 0.29298 0.55949 0.0
H185 H 0.03798 0.25029 0.43607 0.0
H186 H 0.17098 0.26361 0.57011 0.0
H187 H 0.18195 0.21673 0.44683 0.0
H188 H 0.47087 0.19845 0.46819 0.0
H189 H 0.3246 0.22567 0.45598 0.0
H190 H 0.25764 0.19846 0.57853 0.0
H191 H 0.40936 0.17646 0.59129 0.0
C192 C 0.05888 0.27805 0.53448 0.0
C193 C 0.02019 0.2751 0.49675 0.0
C194 C 0.14312 0.25997 0.54068 0.0
C195 C 0.18942 0.23688 0.50956 0.0
C196 C 0.15049 0.235 0.47156 0.0
C197 C 0.06761 0.25456 0.46515 0.0
C198 C 0.42523 0.19817 0.49245 0.0
C199 C 0.45331 0.18679 0.53078 0.0
C200 C 0.33991 0.21337 0.48544 0.0
C201 C 0.27818 0.21572 0.51642 0.0
C202 C 0.30371 0.19927 0.55412 0.0
C203 C 0.39055 0.18545 0.56133 0.0
H204 H 0.74196 0.55488 0.95744 0.0
H205 H 0.56989 0.65267 0.02051 0.0
H206 H 0.63083 0.49231 0.96164 0.0
H207 H 0.4577 0.59201 0.02247 0.0
H208 H 0.30595 0.46076 0.05643 0.0
H209 H 0.41405 0.523 0.05137 0.0
H210 H 0.49573 0.46555 0.93708 0.0
H211 H 0.39035 0.4008 0.94366 0.0
C212 C 0.68071 0.56287 0.97241 0.0
C213 C 0.66544 0.6085 0.98915 0.0
C214 C 0.6163 0.52728 0.97429 0.0
C215 C 0.5345 0.53688 0.99222 0.0
C216 C 0.52008 0.58257 0.00918 0.0
C217 C 0.58489 0.6176 0.00809 0.0
C218 C 0.34585 0.46152 0.02983 0.0
C219 C 0.3393 0.42527 0.00047 0.0
C220 C 0.40821 0.49767 0.02685 0.0
C221 C 0.46483 0.49948 0.99394 0.0
C222 C 0.45498 0.46481 0.96339 0.0
C223 C 0.39332 0.428 0.96676 0.0
H224 H 0.72856 0.43863 0.54934 0.0
H225 H 0.55601 0.34341 0.48414 0.0
H226 H 0.62044 0.50269 0.54424 0.0
H227 H 0.44644 0.40561 0.4813 0.0
H228 H 0.30551 0.53944 0.44465 0.0
H229 H 0.40906 0.47522 0.45161 0.0
H230 H 0.48503 0.53174 0.56696 0.0
H231 H 0.38426 0.5985 0.5586 0.0
C232 C 0.66775 0.43149 0.53378 0.0
C233 C 0.65152 0.38619 0.51665 0.0
C234 C 0.60504 0.46795 0.53138 0.0
C235 C 0.52397 0.45956 0.5125 0.0
C236 C 0.50842 0.41411 0.49532 0.0
C237 C 0.57164 0.3782 0.49693 0.0
C238 C 0.34309 0.53806 0.47188 0.0
C239 C 0.33655 0.57461 0.50098 0.0
C240 C 0.40279 0.50078 0.47597 0.0
C241 C 0.45657 0.4981 0.50974 0.0
C242 C 0.44646 0.53311 0.54003 0.0
C243 C 0.38751 0.5711 0.53558 0.0
H244 H 0.05889 0.15402 0.02154 0.0
H245 H 0.2278 0.05892 0.95397 0.0
H246 H 0.94863 0.09213 0.02473 0.0
H247 H 0.11912 0.99537 0.95922 0.0
H248 H 0.88112 0.90216 0.94338 0.0
H249 H 0.98263 0.96865 0.93618 0.0
H250 H 0.91018 0.02142 0.05322 0.0
H251 H 0.80596 0.9572 0.0592 0.0
C252 C 0.07358 0.11935 0.00827 0.0
C253 C 0.15253 0.11132 0.98768 0.0
C254 C 0.00998 0.08364 0.01008 0.0
C255 C 0.02423 0.03846 0.99211 0.0
C256 C 0.10463 0.02996 0.97262 0.0
C257 C 0.16769 0.06613 0.97012 0.0
C258 C 0.88538 0.92864 0.96709 0.0
C259 C 0.83518 0.92406 0.00183 0.0
C260 C 0.94473 0.96647 0.96328 0.0
C261 C 0.95611 0.0003 0.99437 0.0
C262 C 0.903 0.9967 0.02833 0.0
C263 C 0.84289 0.95948 0.03182 0.0
H264 H 0.88194 0.09476 0.55714 0.0
H265 H 0.80065 0.03736 0.44306 0.0
H266 H 0.98784 0.03012 0.56299 0.0
H267 H 0.90932 0.97521 0.4475 0.0
H268 H 0.06838 0.84566 0.4771 0.0
H269 H 0.95469 0.90568 0.47533 0.0
H270 H 0.12403 0.00552 0.53792 0.0
H271 H 0.23655 0.94368 0.54185 0.0
C272 C 0.88565 0.06812 0.53359 0.0
C273 C 0.83258 0.07162 0.49968 0.0
C274 C 0.94762 0.03139 0.53656 0.0
C275 C 0.95872 0.99761 0.50541 0.0
C276 C 0.90262 -5e-05 0.4724 0.0
C277 C 0.83992 0.03601 0.4698 0.0
C278 C 0.08221 0.88064 0.48994 0.0
C279 C 0.16198 0.88996 0.5094 0.0
C280 C 0.01655 0.91528 0.48897 0.0
C281 C 0.02939 0.96073 0.50662 0.0
C282 C 0.11064 0.97065 0.52483 0.0
C283 C 0.17587 0.93549 0.52654 0.0
H284 H 0.50421 0.3327 0.37679 0.0
H285 H 0.42288 0.18536 0.38742 0.0
H286 H 0.41806 0.33944 0.31682 0.0
H287 H 0.33413 0.1927 0.3278 0.0
H288 H 0.36272 0.1962 0.19075 0.0
H289 H 0.39523 0.19459 0.26133 0.0
H290 H 0.28925 0.33721 0.2761 0.0
H291 H 0.25875 0.33941 0.2052 0.0
C292 C 0.46489 0.30231 0.36739 0.0
C293 C 0.47355 0.25783 0.38586 0.0
C294 C 0.41524 0.30622 0.33283 0.0
C295 C 0.37233 0.26593 0.31663 0.0
C296 C 0.36945 0.22381 0.33878 0.0
C297 C 0.41962 0.21978 0.37319 0.0
C298 C 0.34631 0.22724 0.20899 0.0
C299 C 0.30922 0.26812 0.19215 0.0
C300 C 0.36366 0.22606 0.24964 0.0
C301 C 0.34387 0.26562 0.2745 0.0
C302 C 0.30559 0.30625 0.25777 0.0
C303 C 0.28859 0.30753 0.21705 0.0
H304 H 0.42465 0.80783 0.10869 0.0
H305 H 0.50792 0.66088 0.12024 0.0
H306 H 0.33857 0.80134 0.16919 0.0
H307 H 0.42454 0.65502 0.18113 0.0
H308 H 0.372 0.80071 0.3061 0.0
H309 H 0.40197 0.80103 0.23517 0.0
H310 H 0.29878 0.65756 0.22335 0.0
H311 H 0.27111 0.65664 0.29448 0.0
C312 C 0.42225 0.77361 0.12325 0.0
C313 C 0.47645 0.73555 0.11066 0.0
C314 C 0.37372 0.77011 0.15825 0.0
C315 C 0.37823 0.72846 0.18096 0.0
C316 C 0.42068 0.68796 0.16478 0.0
C317 C 0.46874 0.69135 0.12968 0.0
C318 C 0.35584 0.76919 0.28843 0.0
C319 C 0.32028 0.72848 0.30616 0.0
C320 C 0.37166 0.76962 0.24759 0.0
C321 C 0.35177 0.72947 0.22342 0.0
C322 C 0.31522 0.68897 0.24109 0.0
C323 C 0.29985 0.68843 0.28197 0.0
H324 H 0.38978 0.60339 0.66118 0.0
H325 H 0.57627 0.70277 0.61249 0.0
H326 H 0.49305 0.5847 0.71382 0.0
H327 H 0.67782 0.68518 0.66555 0.0
H328 H 0.82966 0.67304 0.77613 0.0
H329 H 0.76822 0.64095 0.71352 0.0
H330 H 0.50909 0.64668 0.76542 0.0
H331 H 0.57015 0.67868 0.82667 0.0
C332 C 0.45398 0.61984 0.6607 0.0
C333 C 0.47322 0.6563 0.63388 0.0
C334 C 0.51315 0.6092 0.69097 0.0
C335 C 0.59192 0.63502 0.69483 0.0
C336 C 0.61723 0.66511 0.66388 0.0
C337 C 0.55836 0.67557 0.63354 0.0
C338 C 0.76003 0.66596 0.77415 0.0
C339 C 0.70409 0.67879 0.80566 0.0
C340 C 0.7249 0.64765 0.7385 0.0
C341 C 0.63375 0.6412 0.73442 0.0
C342 C 0.57958 0.65034 0.76749 0.0
C343 C 0.6143 0.6693 0.80252 0.0
H344 H 0.3785 0.38454 0.82618 0.0
H345 H 0.56237 0.31962 0.90625 0.0
H346 H 0.49371 0.39201 0.77668 0.0
H347 H 0.6782 0.32774 0.85697 0.0
H348 H 0.71493 0.23666 0.7373 0.0
H349 H 0.65968 0.27016 0.79939 0.0
H350 H 0.6442 0.40982 0.74677 0.0
H351 H 0.70206 0.3758 0.68415 0.0
C352 C 0.44471 0.37457 0.83415 0.0
C353 C 0.46112 0.34996 0.86936 0.0
C354 C 0.51097 0.37883 0.80571 0.0
C355 C 0.59408 0.35881 0.81249 0.0
C356 C 0.61406 0.34238 0.85064 0.0
C357 C 0.54782 0.33783 0.87889 0.0
C358 C 0.70202 0.27476 0.73933 0.0
C359 C 0.71175 0.30361 0.70604 0.0
C360 C 0.6713 0.29418 0.77504 0.0
C361 C 0.64787 0.34278 0.77806 0.0
C362 C 0.6622 0.37234 0.74531 0.0
C363 C 0.69513 0.35294 0.7096 0.0
H364 H 0.01159 0.83525 0.37522 0.0
H365 H 0.92924 0.68843 0.38853 0.0
H366 H 0.92051 0.84157 0.31665 0.0
H367 H 0.83553 0.69545 0.33056 0.0
H368 H 0.75655 0.83921 0.20622 0.0
H369 H 0.78829 0.83845 0.27714 0.0
H370 H 0.89622 0.69611 0.26374 0.0
H371 H 0.86301 0.69633 0.19331 0.0
C372 C 0.97111 0.80494 0.36677 0.0
C373 C 0.98079 0.76064 0.38544 0.0
C374 C 0.91853 0.80863 0.33309 0.0
C375 C 0.87387 0.7683 0.31805 0.0
C376 C 0.87203 0.72656 0.34068 0.0
C377 C 0.92519 0.72271 0.37414 0.0
C378 C 0.78692 0.80768 0.21842 0.0
C379 C 0.80816 0.76797 0.19395 0.0
C380 C 0.80458 0.80723 0.25911 0.0
C381 C 0.84385 0.76709 0.27619 0.0
C382 C 0.86387 0.72719 0.25178 0.0
C383 C 0.8461 0.72758 0.21119 0.0
H384 H 0.89644 0.16931 0.31067 0.0
H385 H 0.73868 0.29642 0.30015 0.0
H386 H 0.93023 0.17142 0.24013 0.0
H387 H 0.76543 0.29672 0.2289 0.0
H388 H 0.94875 0.32346 0.12307 0.0
H389 H 0.86928 0.31561 0.18421 0.0
H390 H 0.89232 0.1615 0.17467 0.0
H391 H 0.97885 0.16996 0.11443 0.0
C392 C 0.86854 0.1975 0.29297 0.0
C393 C 0.81711 0.23341 0.31078 0.0
C394 C 0.8863 0.19832 0.25229 0.0
C395 C 0.85052 0.23424 0.22824 0.0
C396 C 0.79616 0.26915 0.24624 0.0
C397 C 0.78084 0.26915 0.28714 0.0
C398 C 0.93484 0.2877 0.13323 0.0
C399 C 0.97349 0.24744 0.11478 0.0
C400 C 0.88861 0.2831 0.16866 0.0
C401 C 0.8775 0.23792 0.18576 0.0
C402 C 0.90361 0.19709 0.16361 0.0
C403 C 0.95194 0.20182 0.1286 0.0
H404 H 0.20231 0.11991 0.81798 0.0
H405 H 0.21252 0.25984 0.76611 0.0
H406 H 0.14666 0.0863 0.75484 0.0
H407 H 0.15937 0.22679 0.70358 0.0
H408 H 0.06545 0.17897 0.59616 0.0
H409 H 0.18059 0.17068 0.64565 0.0
H410 H -0.00301 0.1027 0.72422 0.0
H411 H 0.88253 0.11008 0.67446 0.0
C412 C 0.19517 0.14306 0.79272 0.0
C413 C 0.21042 0.19247 0.79678 0.0
C414 C 0.16353 0.12389 0.75672 0.0
C415 C 0.14912 0.15378 0.72417 0.0
C416 C 0.17109 0.20252 0.72774 0.0
C417 C 0.20056 0.22168 0.76371 0.0
C418 C 0.051 0.15988 0.62313 0.0
C419 C 0.96456 0.14665 0.63216 0.0
C420 C 0.11688 0.15525 0.65151 0.0
C421 C 0.09674 0.1378 0.68932 0.0
C422 C 0.01431 0.11673 0.69548 0.0
C423 C 0.94847 0.12096 0.66688 0.0
H424 H 0.06564 0.82293 0.67409 0.0
H425 H 0.32636 0.83057 0.72294 0.0
H426 H 0.00557 0.85529 0.73551 0.0
H427 H 0.26595 0.86296 0.78569 0.0
H428 H 0.07768 0.79953 0.88765 0.0
H429 H 0.17748 0.81763 0.83401 0.0
H430 H 0.98994 0.9177 0.78726 0.0
H431 H 0.88868 0.89866 0.84069 0.0
C432 C 0.11024 0.83285 0.69787 0.0
C433 C 0.20014 0.82378 0.69424 0.0
C434 C 0.07607 0.85202 0.73299 0.0
C435 C 0.13094 0.86174 0.76566 0.0
C436 C 0.2221 0.85581 0.76103 0.0
C437 C 0.25665 0.83732 0.72529 0.0
C438 C 0.05896 0.82683 0.8669 0.0
C439 C 0.97368 0.84591 0.8673 0.0
C440 C 0.11676 0.83758 0.83619 0.0
C441 C 0.09012 0.86772 0.80551 0.0
C442 C 0.01111 0.89325 0.80995 0.0
C443 C 0.95311 0.8824 0.84067 0.0
loop_
_geom_bond_atom_site_label_1
_geom_bond_atom_site_label_2
_geom_bond_distance
_geom_bond_site_symmetry_2
_ccdc_geom_bond_type
C0 O27 1.312 1_554 S
C0 O28 1.208 . S
C1 O22 1.331 . S
C1 O25 1.244 . S
C2 O24 1.264 . S
C2 O26 1.273 . S
Mg3 O5 1.936 . S
Mg3 O12 2.081 . S
Mg3 O14 2.023 . S
Mg3 O18 2.031 . S
Mg3 O27 2.291 . S
Mg4 O5 1.963 . S
Mg4 O15 1.942 . S
Mg4 O16 1.955 . S
Mg4 O23 1.986 . S
O5 Mg3 1.936 . S
O5 Mg4 1.963 . S
O5 Mg6 1.915 1_556 S
Mg6 O5 1.915 1_554 S
Mg6 O7 1.915 . S
Mg6 O11 2.013 1_554 S
Mg6 O17 2.114 . S
Mg6 O21 2.013 . S
Mg6 O27 2.114 1_554 S
O7 Mg6 1.915 . S
O7 Mg8 1.936 . S
O7 Mg9 1.963 . S
Mg8 O7 1.936 . S
Mg8 O17 2.291 . S
Mg8 O22 2.081 . S
Mg8 O24 2.023 . S
Mg8 O28 2.031 . S
Mg9 O7 1.963 . S
Mg9 O13 1.986 . S
Mg9 O25 1.942 . S
Mg9 O26 1.955 . S
C10 O21 1.191 1_556 S
C10 O23 1.307 . S
O11 Mg6 2.013 1_556 S
O11 C30 1.191 1_556 S
O12 Mg3 2.081 . S
O12 C20 1.331 . S
O13 Mg9 1.986 . S
O13 C30 1.307 . S
O14 Mg3 2.023 . S
O14 C29 1.264 . S
O15 Mg4 1.942 . S
O15 C20 1.244 . S
O16 Mg4 1.955 . S
O16 C29 1.273 . S
O17 Mg6 2.114 . S
O17 Mg8 2.291 . S
O17 C19 1.312 1_554 S
O18 Mg3 2.031 . S
O18 C19 1.208 . S
C19 O17 1.312 1_556 S
C19 O18 1.208 . S
C20 O12 1.331 . S
C20 O15 1.244 . S
O21 Mg6 2.013 . S
O21 C10 1.191 1_554 S
O22 C1 1.331 . S
O22 Mg8 2.081 . S
O23 Mg4 1.986 . S
O23 C10 1.307 . S
O24 C2 1.264 . S
O24 Mg8 2.023 . S
O25 C1 1.244 . S
O25 Mg9 1.942 . S
O26 C2 1.273 . S
O26 Mg9 1.955 . S
O27 C0 1.312 1_556 S
O27 Mg3 2.291 . S
O27 Mg6 2.114 1_556 S
O28 C0 1.208 . S
O28 Mg8 2.031 . S
C29 O14 1.264 . S
C29 O16 1.273 . S
C30 O11 1.191 1_554 S
C30 O13 1.307 . S
C31 O58 1.312 1_554 S
C31 O59 1.208 . S
C32 O53 1.331 . S
C32 O56 1.244 . S
C33 O55 1.264 . S
C33 O57 1.273 . S
Mg34 O36 1.936 . S
Mg34 O43 2.081 . S
Mg34 O45 2.023 . S
Mg34 O49 2.031 . S
Mg34 O58 2.291 . S
Mg35 O36 1.963 . S
Mg35 O46 1.942 . S
Mg35 O47 1.955 . S
Mg35 O54 1.986 . S
O36 Mg34 1.936 . S
O36 Mg35 1.963 . S
O36 Mg37 1.915 1_556 S
Mg37 O36 1.915 1_554 S
Mg37 O38 1.915 . S
Mg37 O42 2.013 1_554 S
Mg37 O48 2.114 . S
Mg37 O52 2.013 . S
Mg37 O58 2.114 1_554 S
O38 Mg37 1.915 . S
O38 Mg39 1.936 . S
O38 Mg40 1.963 . S
Mg39 O38 1.936 . S
Mg39 O48 2.291 . S
Mg39 O53 2.081 . S
Mg39 O55 2.023 . S
Mg39 O59 2.031 . S
Mg40 O38 1.963 . S
Mg40 O44 1.986 . S
Mg40 O56 1.942 . S
Mg40 O57 1.955 . S
C41 O52 1.191 1_556 S
C41 O54 1.307 . S
O42 Mg37 2.013 1_556 S
O42 C61 1.191 1_556 S
O43 Mg34 2.081 . S
O43 C51 1.331 . S
O44 Mg40 1.986 . S
O44 C61 1.307 . S
O45 Mg34 2.023 . S
O45 C60 1.264 . S
O46 Mg35 1.942 . S
O46 C51 1.244 . S
O47 Mg35 1.955 . S
O47 C60 1.273 . S
O48 Mg37 2.114 . S
O48 Mg39 2.291 . S
O48 C50 1.312 1_554 S
O49 Mg34 2.031 . S
O49 C50 1.208 . S
C50 O48 1.312 1_556 S
C50 O49 1.208 . S
C51 O43 1.331 . S
C51 O46 1.244 . S
O52 Mg37 2.013 . S
O52 C41 1.191 1_554 S
O53 C32 1.331 . S
O53 Mg39 2.081 . S
O54 Mg35 1.986 . S
O54 C41 1.307 . S
O55 C33 1.264 . S
O55 Mg39 2.023 . S
O56 C32 1.244 . S
O56 Mg40 1.942 . S
O57 C33 1.273 . S
O57 Mg40 1.955 . S
O58 C31 1.312 1_556 S
O58 Mg34 2.291 . S
O58 Mg37 2.114 1_556 S
O59 C31 1.208 . S
O59 Mg39 2.031 . S
C60 O45 1.264 . S
C60 O47 1.273 . S
C61 O42 1.191 1_554 S
C61 O44 1.307 . S
C62 O89 1.312 . S
C62 O90 1.208 . S
C63 O84 1.331 . S
C63 O87 1.244 . S
C64 O86 1.264 . S
C64 O88 1.273 . S
Mg65 O67 1.936 . S
Mg65 O74 2.081 . S
Mg65 O76 2.023 . S
Mg65 O80 2.031 . S
Mg65 O89 2.291 . S
Mg66 O67 1.963 . S
Mg66 O77 1.942 . S
Mg66 O78 1.955 . S
Mg66 O85 1.986 . S
O67 Mg65 1.936 . S
O67 Mg66 1.963 . S
O67 Mg68 1.915 . S
Mg68 O67 1.915 . S
Mg68 O69 1.915 . S
Mg68 O73 2.013 . S
Mg68 O79 2.114 . S
Mg68 O83 2.013 . S
Mg68 O89 2.114 . S
O69 Mg68 1.915 . S
O69 Mg70 1.936 . S
O69 Mg71 1.963 . S
Mg70 O69 1.936 . S
Mg70 O79 2.291 . S
Mg70 O84 2.081 . S
Mg70 O86 2.023 . S
Mg70 O90 2.031 . S
Mg71 O69 1.963 . S
Mg71 O75 1.986 . S
Mg71 O87 1.942 . S
Mg71 O88 1.955 . S
C72 O83 1.191 . S
C72 O85 1.307 . S
O73 Mg68 2.013 . S
O73 C92 1.191 . S
O74 Mg65 2.081 . S
O74 C82 1.331 . S
O75 Mg71 1.986 . S
O75 C92 1.307 . S
O76 Mg65 2.023 . S
O76 C91 1.264 . S
O77 Mg66 1.942 . S
O77 C82 1.244 . S
O78 Mg66 1.955 . S
O78 C91 1.273 . S
O79 Mg68 2.114 . S
O79 Mg70 2.291 . S
O79 C81 1.312 . S
O80 Mg65 2.031 . S
O80 C81 1.208 . S
C81 O79 1.312 . S
C81 O80 1.208 . S
C82 O74 1.331 . S
C82 O77 1.244 . S
O83 Mg68 2.013 . S
O83 C72 1.191 . S
O84 C63 1.331 . S
O84 Mg70 2.081 . S
O85 Mg66 1.986 . S
O85 C72 1.307 . S
O86 C64 1.264 . S
O86 Mg70 2.023 . S
O87 C63 1.244 . S
O87 Mg71 1.942 . S
O88 C64 1.273 . S
O88 Mg71 1.955 . S
O89 C62 1.312 . S
O89 Mg65 2.291 . S
O89 Mg68 2.114 . S
O90 C62 1.208 . S
O90 Mg70 2.031 . S
C91 O76 1.264 . S
C91 O78 1.273 . S
C92 O73 1.191 . S
C92 O75 1.307 . S
C93 O120 1.312 . S
C93 O121 1.208 . S
C94 O115 1.331 . S
C94 O118 1.244 . S
C95 O117 1.264 . S
C95 O119 1.273 . S
Mg96 O98 1.936 . S
Mg96 O105 2.081 . S
Mg96 O107 2.023 . S
Mg96 O111 2.031 . S
Mg96 O120 2.291 . S
Mg97 O98 1.963 . S
Mg97 O108 1.942 . S
Mg97 O109 1.955 . S
Mg97 O116 1.986 . S
O98 Mg96 1.936 . S
O98 Mg97 1.963 . S
O98 Mg99 1.915 . S
Mg99 O98 1.915 . S
Mg99 O100 1.915 . S
Mg99 O104 2.013 . S
Mg99 O110 2.114 . S
Mg99 O114 2.013 . S
Mg99 O120 2.114 . S
O100 Mg99 1.915 . S
O100 Mg101 1.936 . S
O100 Mg102 1.963 . S
Mg101 O100 1.936 . S
Mg101 O110 2.291 . S
Mg101 O115 2.081 . S
Mg101 O117 2.023 . S
Mg101 O121 2.031 . S
Mg102 O100 1.963 . S
Mg102 O106 1.986 . S
Mg102 O118 1.942 . S
Mg102 O119 1.955 . S
C103 O114 1.191 . S
C103 O116 1.307 . S
O104 Mg99 2.013 . S
O104 C123 1.191 . S
O105 Mg96 2.081 . S
O105 C113 1.331 . S
O106 Mg102 1.986 . S
O106 C123 1.307 . S
O107 Mg96 2.023 . S
O107 C122 1.264 . S
O108 Mg97 1.942 . S
O108 C113 1.244 . S
O109 Mg97 1.955 . S
O109 C122 1.273 . S
O110 Mg99 2.114 . S
O110 Mg101 2.291 . S
O110 C112 1.312 . S
O111 Mg96 2.031 . S
O111 C112 1.208 . S
C112 O110 1.312 . S
C112 O111 1.208 . S
C113 O105 1.331 . S
C113 O108 1.244 . S
O114 Mg99 2.013 . S
O114 C103 1.191 . S
O115 C94 1.331 . S
O115 Mg101 2.081 . S
O116 Mg97 1.986 . S
O116 C103 1.307 . S
O117 C95 1.264 . S
O117 Mg101 2.023 . S
O118 C94 1.244 . S
O118 Mg102 1.942 . S
O119 C95 1.273 . S
O119 Mg102 1.955 . S
O120 C93 1.312 . S
O120 Mg96 2.291 . S
O120 Mg99 2.114 . S
O121 C93 1.208 . S
O121 Mg101 2.031 . S
C122 O107 1.264 . S
C122 O109 1.273 . S
C123 O104 1.191 . S
C123 O106 1.307 . S
H124 C132 0.950 . S
H125 C137 0.950 . S
H126 C134 0.950 . S
H127 C136 0.950 . S
H128 C138 0.950 . S
H129 C140 0.950 . S
H130 C142 0.950 . S
H131 C143 0.950 . S
C132 H124 0.950 . S
C132 C133 1.386 . S
C132 C134 1.391 . S
C133 C132 1.386 . S
C133 C137 1.393 1_554 S
C134 H126 0.950 . S
C134 C132 1.391 . S
C134 C135 1.400 . S
C135 C134 1.400 . S
C135 C136 1.398 1_554 S
C135 C141 1.491 . S
C136 H127 0.950 . S
C136 C135 1.398 1_556 S
C136 C137 1.391 . S
C137 H125 0.950 . S
C137 C133 1.393 1_556 S
C137 C136 1.391 . S
C138 H128 0.950 . S
C138 C139 1.386 . S
C138 C140 1.391 . S
C139 C138 1.386 . S
C139 C143 1.392 1_556 S
C140 H129 0.950 . S
C140 C138 1.391 . S
C140 C141 1.395 1_556 S
C141 C135 1.491 . S
C141 C140 1.395 1_554 S
C141 C142 1.404 . S
C142 H130 0.950 . S
C142 C141 1.404 . S
C142 C143 1.391 . S
C143 H131 0.950 . S
C143 C139 1.392 1_554 S
C143 C142 1.391 . S
H144 C152 0.950 . S
H145 C157 0.950 . S
H146 C154 0.950 . S
H147 C156 0.950 . S
H148 C158 0.950 . S
H149 C160 0.950 . S
H150 C162 0.950 . S
H151 C163 0.950 . S
C152 H144 0.950 . S
C152 C153 1.386 . S
C152 C154 1.391 . S
C153 C152 1.386 . S
C153 C157 1.393 1_554 S
C154 H146 0.950 . S
C154 C152 1.391 . S
C154 C155 1.400 . S
C155 C154 1.400 . S
C155 C156 1.398 1_554 S
C155 C161 1.491 . S
C156 H147 0.950 . S
C156 C155 1.398 1_556 S
C156 C157 1.391 . S
C157 H145 0.950 . S
C157 C153 1.393 1_556 S
C157 C156 1.391 . S
C158 H148 0.950 . S
C158 C159 1.386 1_556 S
C158 C160 1.391 . S
C159 C158 1.386 1_554 S
C159 C163 1.393 . S
C160 H149 0.950 . S
C160 C158 1.391 . S
C160 C161 1.391 1_556 S
C161 C155 1.491 . S
C161 C160 1.391 1_554 S
C161 C162 1.408 . S
C162 H150 0.950 . S
C162 C161 1.408 . S
C162 C163 1.391 . S
C163 H151 0.950 . S
C163 C159 1.393 . S
C163 C162 1.391 . S
H164 C172 0.950 . S
H165 C177 0.950 . S
H166 C174 0.950 . S
H167 C176 0.950 . S
H168 C178 0.950 . S
H169 C180 0.950 . S
H170 C182 0.950 . S
H171 C183 0.950 . S
C172 H164 0.950 . S
C172 C173 1.386 . S
C172 C174 1.391 . S
C173 C172 1.386 . S
C173 C177 1.393 . S
C174 H166 0.950 . S
C174 C172 1.391 . S
C174 C175 1.400 . S
C175 C174 1.400 . S
C175 C176 1.398 . S
C175 C181 1.491 . S
C176 H167 0.950 . S
C176 C175 1.398 . S
C176 C177 1.391 . S
C177 H165 0.950 . S
C177 C173 1.393 . S
C177 C176 1.391 . S
C178 H168 0.950 . S
C178 C179 1.386 . S
C178 C180 1.391 . S
C179 C178 1.386 . S
C179 C183 1.393 . S
C180 H169 0.950 . S
C180 C178 1.391 . S
C180 C181 1.400 . S
C181 C175 1.491 . S
C181 C180 1.400 . S
C181 C182 1.398 . S
C182 H170 0.950 . S
C182 C181 1.398 . S
C182 C183 1.391 . S
C183 H171 0.950 . S
C183 C179 1.393 . S
C183 C182 1.391 . S
H184 C192 0.950 . S
H185 C197 0.950 . S
H186 C194 0.950 . S
H187 C196 0.950 . S
H188 C198 0.950 . S
H189 C200 0.950 . S
H190 C202 0.950 . S
H191 C203 0.950 . S
C192 H184 0.950 . S
C192 C193 1.386 . S
C192 C194 1.391 . S
C193 C192 1.386 . S
C193 C197 1.393 . S
C194 H186 0.950 . S
C194 C192 1.391 . S
C194 C195 1.400 . S
C195 C194 1.400 . S
C195 C196 1.398 . S
C195 C201 1.491 . S
C196 H187 0.950 . S
C196 C195 1.398 . S
C196 C197 1.391 . S
C197 H185 0.950 . S
C197 C193 1.393 . S
C197 C196 1.391 . S
C198 H188 0.950 . S
C198 C199 1.386 . S
C198 C200 1.391 . S
C199 C198 1.386 . S
C199 C203 1.393 . S
C200 H189 0.950 . S
C200 C198 1.391 . S
C200 C201 1.400 . S
C201 C195 1.491 . S
C201 C200 1.400 . S
C201 C202 1.398 . S
C202 H190 0.950 . S
C202 C201 1.398 . S
C202 C203 1.391 . S
C203 H191 0.950 . S
C203 C199 1.393 . S
C203 C202 1.391 . S
H204 C212 0.950 . S
H205 C217 0.950 . S
H206 C214 0.950 . S
H207 C216 0.950 . S
H208 C218 0.950 . S
H209 C220 0.950 . S
H210 C222 0.950 . S
H211 C223 0.950 . S
C212 H204 0.950 . S
C212 C213 1.386 . S
C212 C214 1.391 . S
C213 C212 1.386 . S
C213 C217 1.393 1_554 S
C214 H206 0.950 . S
C214 C212 1.391 . S
C214 C215 1.400 . S
C215 C214 1.400 . S
C215 C216 1.398 1_554 S
C215 C221 1.491 . S
C216 H207 0.950 . S
C216 C215 1.398 1_556 S
C216 C217 1.391 . S
C217 H205 0.950 . S
C217 C213 1.393 1_556 S
C217 C216 1.391 . S
C218 H208 0.950 . S
C218 C219 1.386 1_556 S
C218 C220 1.391 . S
C219 C218 1.386 1_554 S
C219 C223 1.393 . S
C220 H209 0.950 . S
C220 C218 1.391 . S
C220 C221 1.400 1_556 S
C221 C215 1.491 . S
C221 C220 1.400 1_554 S
C221 C222 1.398 . S
C222 H210 0.950 . S
C222 C221 1.398 . S
C222 C223 1.391 . S
C223 H211 0.950 . S
C223 C219 1.393 . S
C223 C222 1.391 . S
H224 C232 0.950 . S
H225 C237 0.950 . S
H226 C234 0.950 . S
H227 C236 0.950 . S
H228 C238 0.950 . S
H229 C240 0.950 . S
H230 C242 0.950 . S
H231 C243 0.950 . S
C232 H224 0.950 . S
C232 C233 1.386 . S
C232 C234 1.391 . S
C233 C232 1.386 . S
C233 C237 1.393 . S
C234 H226 0.950 . S
C234 C232 1.391 . S
C234 C235 1.400 . S
C235 C234 1.400 . S
C235 C236 1.398 . S
C235 C241 1.491 . S
C236 H227 0.950 . S
C236 C235 1.398 . S
C236 C237 1.391 . S
C237 H225 0.950 . S
C237 C233 1.393 . S
C237 C236 1.391 . S
C238 H228 0.950 . S
C238 C239 1.386 . S
C238 C240 1.391 . S
C239 C238 1.386 . S
C239 C243 1.393 . S
C240 H229 0.950 . S
C240 C238 1.391 . S
C240 C241 1.400 . S
C241 C235 1.491 . S
C241 C240 1.400 . S
C241 C242 1.398 . S
C242 H230 0.950 . S
C242 C241 1.398 . S
C242 C243 1.391 . S
C243 H231 0.950 . S
C243 C239 1.393 . S
C243 C242 1.391 . S
H244 C252 0.950 . S
H245 C257 0.950 . S
H246 C254 0.950 1_655 S
H247 C256 0.950 . S
H248 C258 0.950 . S
H249 C260 0.950 1_455 S
H250 C262 0.950 1_545 S
H251 C263 0.950 . S
C252 H244 0.950 . S
C252 C253 1.386 . S
C252 C254 1.391 . S
C253 C252 1.386 . S
C253 C257 1.393 1_554 S
C254 H246 0.950 1_455 S
C254 C252 1.391 . S
C254 C255 1.400 . S
C255 C254 1.400 . S
C255 C256 1.398 1_554 S
C255 C261 1.491 1_445 S
C256 H247 0.950 . S
C256 C255 1.398 1_556 S
C256 C257 1.391 . S
C257 H245 0.950 . S
C257 C253 1.393 1_556 S
C257 C256 1.391 . S
C258 H248 0.950 . S
C258 C259 1.386 1_556 S
C258 C260 1.391 . S
C259 C258 1.386 1_554 S
C259 C263 1.393 . S
C260 H249 0.950 1_655 S
C260 C258 1.391 . S
C260 C261 1.400 1_556 S
C261 C255 1.491 1_665 S
C261 C260 1.400 1_554 S
C261 C262 1.398 . S
C262 H250 0.950 1_565 S
C262 C261 1.398 . S
C262 C263 1.391 . S
C263 H251 0.950 . S
C263 C259 1.393 . S
C263 C262 1.391 . S
H264 C272 0.950 . S
H265 C277 0.950 . S
H266 C274 0.950 . S
H267 C276 0.950 1_565 S
H268 C278 0.950 . S
H269 C280 0.950 . S
H270 C282 0.950 1_545 S
H271 C283 0.950 . S
C272 H264 0.950 . S
C272 C273 1.386 . S
C272 C274 1.391 1_655 S
C273 C272 1.386 . S
C273 C277 1.393 . S
C274 H266 0.950 . S
C274 C272 1.391 1_455 S
C274 C275 1.400 1_455 S
C275 C274 1.400 1_655 S
C275 C276 1.398 . S
C275 C281 1.491 1_645 S
C276 H267 0.950 1_545 S
C276 C275 1.398 . S
C276 C277 1.391 . S
C277 H265 0.950 . S
C277 C273 1.393 . S
C277 C276 1.391 . S
C278 H268 0.950 . S
C278 C279 1.386 . S
C278 C280 1.391 1_455 S
C279 C278 1.386 . S
C279 C283 1.393 . S
C280 H269 0.950 . S
C280 C278 1.391 1_655 S
C280 C281 1.400 1_655 S
C281 C275 1.491 1_465 S
C281 C280 1.400 1_455 S
C281 C282 1.398 . S
C282 H270 0.950 1_565 S
C282 C281 1.398 . S
C282 C283 1.391 . S
C283 H271 0.950 . S
C283 C279 1.393 . S
C283 C282 1.391 . S
H284 C292 0.950 . S
H285 C297 0.950 . S
H286 C294 0.950 . S
H287 C296 0.950 . S
H288 C298 0.950 . S
H289 C300 0.950 . S
H290 C302 0.950 . S
H291 C303 0.950 . S
C292 H284 0.950 . S
C292 C293 1.386 . S
C292 C294 1.391 . S
C293 C292 1.386 . S
C293 C297 1.393 . S
C294 H286 0.950 . S
C294 C292 1.391 . S
C294 C295 1.400 . S
C295 C294 1.400 . S
C295 C296 1.398 . S
C295 C301 1.491 . S
C296 H287 0.950 . S
C296 C295 1.398 . S
C296 C297 1.391 . S
C297 H285 0.950 . S
C297 C293 1.393 . S
C297 C296 1.391 . S
C298 H288 0.950 . S
C298 C299 1.386 . S
C298 C300 1.391 . S
C299 C298 1.386 . S
C299 C303 1.393 . S
C300 H289 0.950 . S
C300 C298 1.391 . S
C300 C301 1.400 . S
C301 C295 1.491 . S
C301 C300 1.400 . S
C301 C302 1.398 . S
C302 H290 0.950 . S
C302 C301 1.398 . S
C302 C303 1.391 . S
C303 H291 0.950 . S
C303 C299 1.393 . S
C303 C302 1.391 . S
H304 C312 0.950 . S
H305 C317 0.950 . S
H306 C314 0.950 . S
H307 C316 0.950 . S
H308 C318 0.950 . S
H309 C320 0.950 . S
H310 C322 0.950 . S
H311 C323 0.950 . S
C312 H304 0.950 . S
C312 C313 1.386 . S
C312 C314 1.391 . S
C313 C312 1.386 . S
C313 C317 1.393 . S
C314 H306 0.950 . S
C314 C312 1.391 . S
C314 C315 1.400 . S
C315 C314 1.400 . S
C315 C316 1.398 . S
C315 C321 1.491 . S
C316 H307 0.950 . S
C316 C315 1.398 . S
C316 C317 1.391 . S
C317 H305 0.950 . S
C317 C313 1.393 . S
C317 C316 1.391 . S
C318 H308 0.950 . S
C318 C319 1.386 . S
C318 C320 1.391 . S
C319 C318 1.386 . S
C319 C323 1.393 . S
C320 H309 0.950 . S
C320 C318 1.391 . S
C320 C321 1.400 . S
C321 C315 1.491 . S
C321 C320 1.400 . S
C321 C322 1.398 . S
C322 H310 0.950 . S
C322 C321 1.398 . S
C322 C323 1.391 . S
C323 H311 0.950 . S
C323 C319 1.393 . S
C323 C322 1.391 . S
H324 C332 0.950 . S
H325 C337 0.950 . S
H326 C334 0.950 . S
H327 C336 0.950 . S
H328 C338 0.950 . S
H329 C340 0.950 . S
H330 C342 0.950 . S
H331 C343 0.950 . S
C332 H324 0.950 . S
C332 C333 1.386 . S
C332 C334 1.391 . S
C333 C332 1.386 . S
C333 C337 1.393 . S
C334 H326 0.950 . S
C334 C332 1.391 . S
C334 C335 1.400 . S
C335 C334 1.400 . S
C335 C336 1.398 . S
C335 C341 1.491 . S
C336 H327 0.950 . S
C336 C335 1.398 . S
C336 C337 1.391 . S
C337 H325 0.950 . S
C337 C333 1.393 . S
C337 C336 1.391 . S
C338 H328 0.950 . S
C338 C339 1.386 . S
C338 C340 1.391 . S
C339 C338 1.386 . S
C339 C343 1.393 . S
C340 H329 0.950 . S
C340 C338 1.391 . S
C340 C341 1.400 . S
C341 C335 1.491 . S
C341 C340 1.400 . S
C341 C342 1.398 . S
C342 H330 0.950 . S
C342 C341 1.398 . S
C342 C343 1.391 . S
C343 H331 0.950 . S
C343 C339 1.393 . S
C343 C342 1.391 . S
H344 C352 0.950 . S
H345 C357 0.950 . S
H346 C354 0.950 . S
H347 C356 0.950 . S
H348 C358 0.950 . S
H349 C360 0.950 . S
H350 C362 0.950 . S
H351 C363 0.950 . S
C352 H344 0.950 . S
C352 C353 1.386 . S
C352 C354 1.391 . S
C353 C352 1.386 . S
C353 C357 1.393 . S
C354 H346 0.950 . S
C354 C352 1.391 . S
C354 C355 1.400 . S
C355 C354 1.400 . S
C355 C356 1.398 . S
C355 C361 1.491 . S
C356 H347 0.950 . S
C356 C355 1.398 . S
C356 C357 1.391 . S
C357 H345 0.950 . S
C357 C353 1.393 . S
C357 C356 1.391 . S
C358 H348 0.950 . S
C358 C359 1.386 . S
C358 C360 1.391 . S
C359 C358 1.386 . S
C359 C363 1.393 . S
C360 H349 0.950 . S
C360 C358 1.391 . S
C360 C361 1.400 . S
C361 C355 1.491 . S
C361 C360 1.400 . S
C361 C362 1.398 . S
C362 H350 0.950 . S
C362 C361 1.398 . S
C362 C363 1.391 . S
C363 H351 0.950 . S
C363 C359 1.393 . S
C363 C362 1.391 . S
H364 C372 0.950 . S
H365 C377 0.950 . S
H366 C374 0.950 . S
H367 C376 0.950 . S
H368 C378 0.950 . S
H369 C380 0.950 . S
H370 C382 0.950 . S
H371 C383 0.950 . S
C372 H364 0.950 . S
C372 C373 1.386 . S
C372 C374 1.391 . S
C373 C372 1.386 . S
C373 C377 1.393 1_455 S
C374 H366 0.950 . S
C374 C372 1.391 . S
C374 C375 1.400 . S
C375 C374 1.400 . S
C375 C376 1.398 1_455 S
C375 C381 1.491 1_455 S
C376 H367 0.950 . S
C376 C375 1.398 1_655 S
C376 C377 1.391 . S
C377 H365 0.950 . S
C377 C373 1.393 1_655 S
C377 C376 1.391 . S
C378 H368 0.950 . S
C378 C379 1.386 . S
C378 C380 1.391 . S
C379 C378 1.386 . S
C379 C383 1.393 1_655 S
C380 H369 0.950 . S
C380 C378 1.391 . S
C380 C381 1.400 . S
C381 C375 1.491 1_655 S
C381 C380 1.400 . S
C381 C382 1.398 1_655 S
C382 H370 0.950 . S
C382 C381 1.398 1_455 S
C382 C383 1.391 . S
C383 H371 0.950 . S
C383 C379 1.393 1_455 S
C383 C382 1.391 . S
H384 C392 0.950 . S
H385 C397 0.950 . S
H386 C394 0.950 . S
H387 C396 0.950 . S
H388 C398 0.950 . S
H389 C400 0.950 . S
H390 C402 0.950 . S
H391 C403 0.950 1_655 S
C392 H384 0.950 . S
C392 C393 1.386 . S
C392 C394 1.391 . S
C393 C392 1.386 . S
C393 C397 1.393 1_655 S
C394 H386 0.950 . S
C394 C392 1.391 . S
C394 C395 1.400 . S
C395 C394 1.400 . S
C395 C396 1.398 1_655 S
C395 C401 1.491 1_655 S
C396 H387 0.950 . S
C396 C395 1.398 1_455 S
C396 C397 1.391 . S
C397 H385 0.950 . S
C397 C393 1.393 1_455 S
C397 C396 1.391 . S
C398 H388 0.950 . S
C398 C399 1.386 . S
C398 C400 1.391 . S
C399 C398 1.386 . S
C399 C403 1.393 . S
C400 H389 0.950 . S
C400 C398 1.391 . S
C400 C401 1.400 . S
C401 C395 1.491 1_455 S
C401 C400 1.400 . S
C401 C402 1.398 1_455 S
C402 H390 0.950 . S
C402 C401 1.398 1_655 S
C402 C403 1.391 1_655 S
C403 H391 0.950 1_455 S
C403 C399 1.393 . S
C403 C402 1.391 1_455 S
H404 C412 0.950 1_655 S
H405 C417 0.950 . S
H406 C414 0.950 . S
H407 C416 0.950 . S
H408 C418 0.950 1_455 S
H409 C420 0.950 . S
H410 C422 0.950 . S
H411 C423 0.950 . S
C412 H404 0.950 1_455 S
C412 C413 1.386 . S
C412 C414 1.391 1_455 S
C413 C412 1.386 . S
C413 C417 1.393 . S
C414 H406 0.950 . S
C414 C412 1.391 1_655 S
C414 C415 1.400 1_655 S
C415 C414 1.400 1_455 S
C415 C416 1.398 . S
C415 C421 1.491 1_455 S
C416 H407 0.950 . S
C416 C415 1.398 . S
C416 C417 1.391 . S
C417 H405 0.950 . S
C417 C413 1.393 . S
C417 C416 1.391 . S
C418 H408 0.950 1_655 S
C418 C419 1.386 . S
C418 C420 1.391 1_655 S
C419 C418 1.386 . S
C419 C423 1.393 . S
C420 H409 0.950 . S
C420 C418 1.391 1_455 S
C420 C421 1.400 1_455 S
C421 C415 1.491 1_655 S
C421 C420 1.400 1_655 S
C421 C422 1.398 . S
C422 H410 0.950 . S
C422 C421 1.398 . S
C422 C423 1.391 . S
C423 H411 0.950 . S
C423 C419 1.393 . S
C423 C422 1.391 . S
H424 C432 0.950 . S
H425 C437 0.950 . S
H426 C434 0.950 . S
H427 C436 0.950 . S
H428 C438 0.950 1_455 S
H429 C440 0.950 . S
H430 C442 0.950 . S
H431 C443 0.950 . S
C432 H424 0.950 . S
C432 C433 1.386 1_655 S
C432 C434 1.391 . S
C433 C432 1.386 1_455 S
C433 C437 1.393 . S
C434 H426 0.950 . S
C434 C432 1.391 . S
C434 C435 1.400 1_655 S
C435 C434 1.400 1_455 S
C435 C436 1.398 . S
C435 C441 1.491 1_455 S
C436 H427 0.950 . S
C436 C435 1.398 . S
C436 C437 1.391 . S
C437 H425 0.950 . S
C437 C433 1.393 . S
C437 C436 1.391 . S
C438 H428 0.950 1_655 S
C438 C439 1.386 . S
C438 C440 1.391 1_655 S
C439 C438 1.386 . S
C439 C443 1.393 . S
C440 H429 0.950 . S
C440 C438 1.391 1_455 S
C440 C441 1.400 1_455 S
C441 C435 1.491 1_655 S
C441 C440 1.400 1_655 S
C441 C442 1.398 . S
C442 H430 0.950 . S
C442 C441 1.398 . S
C442 C443 1.391 . S
C443 H431 0.950 . S
C443 C439 1.393 . S
C443 C442 1.391 . S
C133 C0 1.458 . S
C139 C10 1.443 1_655 S
C153 C31 1.460 1_455 S
C159 C41 1.445 1_554 S
C173 C62 1.461 . S
C179 C72 1.446 1_655 S
C193 C93 1.458 1_455 S
C199 C103 1.436 . S
C213 C50 1.563 1_554 S
C219 C30 1.562 . S
C233 C112 1.564 . S
C239 C92 1.564 . S
C253 C19 1.551 1_554 S
C259 C61 1.550 . S
C273 C123 1.565 . S
C279 C81 1.564 . S
C293 C95 1.129 . S
C299 C1 1.143 . S
C313 C33 1.152 . S
C319 C63 1.137 . S
C333 C91 1.255 . S
C339 C51 1.222 . S
C353 C29 1.259 . S
C359 C113 1.231 . S
C373 C64 1.146 . S
C379 C32 1.165 . S
C393 C94 1.137 . S
C399 C2 1.152 . S
C413 C20 1.212 . S
C419 C122 1.240 . S
C433 C82 1.213 . S
C439 C60 1.244 . S
