# Generated by pormake.
# Topology wjw, (5)-cn, num edge types: 1
# Building blocks:
#     Node 0, Type 0, BuildingBlock: XOMCOT_clean_sbu_1, # of connection points: 5
#     Node 1, Type 0, BuildingBlock: XOMCOT_clean_sbu_1, # of connection points: 5
#     Node 2, Type 0, BuildingBlock: XOMCOT_clean_sbu_1, # of connection points: 5
#     Node 3, Type 0, BuildingBlock: XOMCOT_clean_sbu_1, # of connection points: 5
#     Node 4, Type 0, BuildingBlock: XOMCOT_clean_sbu_1, # of connection points: 5
#     Node 5, Type 0, BuildingBlock: XOMCOT_clean_sbu_1, # of connection points: 5
#     Node 6, Type 0, BuildingBlock: XOMCOT_clean_sbu_1, # of connection points: 5
#     Node 7, Type 0, BuildingBlock: XOMCOT_clean_sbu_1, # of connection points: 5
#     Node 8, Type 0, BuildingBlock: XOMCOT_clean_sbu_1, # of connection points: 5
#     Node 9, Type 0, BuildingBlock: XOMCOT_clean_sbu_1, # of connection points: 5
#     Node 10, Type 0, BuildingBlock: XOMCOT_clean_sbu_1, # of connection points: 5
#     Node 11, Type 0, BuildingBlock: XOMCOT_clean_sbu_1, # of connection points: 5
#     Edge 12, Type (0, 0), BuildingBlock: TEMPAE_clean_linker_10, # of connection points: 2
#     Edge 13, Type (0, 0), BuildingBlock: TEMPAE_clean_linker_10, # of connection points: 2
#     Edge 14, Type (0, 0), BuildingBlock: TEMPAE_clean_linker_10, # of connection points: 2
#     Edge 15, Type (0, 0), BuildingBlock: TEMPAE_clean_linker_10, # of connection points: 2
#     Edge 16, Type (0, 0), BuildingBlock: TEMPAE_clean_linker_10, # of connection points: 2
#     Edge 17, Type (0, 0), BuildingBlock: TEMPAE_clean_linker_10, # of connection points: 2
#     Edge 18, Type (0, 0), BuildingBlock: TEMPAE_clean_linker_10, # of connection points: 2
#     Edge 19, Type (0, 0), BuildingBlock: TEMPAE_clean_linker_10, # of connection points: 2
#     Edge 20, Type (0, 0), BuildingBlock: TEMPAE_clean_linker_10, # of connection points: 2
#     Edge 21, Type (0, 0), BuildingBlock: TEMPAE_clean_linker_10, # of connection points: 2
#     Edge 22, Type (0, 0), BuildingBlock: TEMPAE_clean_linker_10, # of connection points: 2
#     Edge 23, Type (0, 0), BuildingBlock: TEMPAE_clean_linker_10, # of connection points: 2
#     Edge 24, Type (0, 0), BuildingBlock: TEMPAE_clean_linker_10, # of connection points: 2
#     Edge 25, Type (0, 0), BuildingBlock: TEMPAE_clean_linker_10, # of connection points: 2
#     Edge 26, Type (0, 0), BuildingBlock: TEMPAE_clean_linker_10, # of connection points: 2
#     Edge 27, Type (0, 0), BuildingBlock: TEMPAE_clean_linker_10, # of connection points: 2
#     Edge 28, Type (0, 0), BuildingBlock: TEMPAE_clean_linker_10, # of connection points: 2
#     Edge 29, Type (0, 0), BuildingBlock: TEMPAE_clean_linker_10, # of connection points: 2
#     Edge 30, Type (0, 0), BuildingBlock: TEMPAE_clean_linker_10, # of connection points: 2
#     Edge 31, Type (0, 0), BuildingBlock: TEMPAE_clean_linker_10, # of connection points: 2
#     Edge 32, Type (0, 0), BuildingBlock: TEMPAE_clean_linker_10, # of connection points: 2
#     Edge 33, Type (0, 0), BuildingBlock: TEMPAE_clean_linker_10, # of connection points: 2
#     Edge 34, Type (0, 0), BuildingBlock: TEMPAE_clean_linker_10, # of connection points: 2
#     Edge 35, Type (0, 0), BuildingBlock: TEMPAE_clean_linker_10, # of connection points: 2
#     Edge 36, Type (0, 0), BuildingBlock: TEMPAE_clean_linker_10, # of connection points: 2
#     Edge 37, Type (0, 0), BuildingBlock: TEMPAE_clean_linker_10, # of connection points: 2
#     Edge 38, Type (0, 0), BuildingBlock: TEMPAE_clean_linker_10, # of connection points: 2
#     Edge 39, Type (0, 0), BuildingBlock: TEMPAE_clean_linker_10, # of connection points: 2
#     Edge 40, Type (0, 0), BuildingBlock: TEMPAE_clean_linker_10, # of connection points: 2
#     Edge 41, Type (0, 0), BuildingBlock: TEMPAE_clean_linker_10, # of connection points: 2
# Relax obj value: 0.184
# Max RMSD: 0.165
# Mean RMSD: 0.161
data_MOF--net-wjw--node1-XOMCOT_clean_sbu_1--edge1-TEMPAE_clean_linker_10
_symmetry_space_group_name_H-M    P1
_symmetry_Int_Tables_number       1
_symmetry_cell_setting            triclinic
loop_
_symmetry_equiv_pos_as_xyz
'x, y, z'
_cell_length_a     40.680906
_cell_length_b     40.667631
_cell_length_c     37.358918
_cell_angle_alpha  90.052287
_cell_angle_beta   90.052414
_cell_angle_gamma 120.17617
loop_
_atom_site_label
_atom_site_type_symbol
_atom_site_fract_x
_atom_site_fract_y
_atom_site_fract_z
_atom_type_partial_charge
C0 C 0.19155 0.37746 0.28047 0.0
C1 C 0.2117 0.35874 0.2767 0.0
N2 N 0.20135 0.33291 0.3032 0.0
N3 N 0.16863 0.36355 0.30921 0.0
C4 C 0.17493 0.33619 0.32221 0.0
H5 H 0.19466 0.40089 0.26429 0.0
Co6 Co 0.14025 0.3835 0.32908 0.0
C7 C 0.10819 0.33226 0.39341 0.0
O8 O 0.07257 0.3198 0.38461 0.0
N9 N 0.11199 0.40401 0.34925 0.0
C10 C 0.08874 0.42799 0.38876 0.0
C11 C 0.11149 0.41231 0.38421 0.0
C12 C 0.09014 0.41602 0.33294 0.0
N13 N 0.07541 0.43038 0.3565 0.0
O14 O 0.09505 0.34268 0.30801 0.0
H15 H 0.12752 0.40829 0.40511 0.0
H16 H 0.08533 0.4147 0.30437 0.0
O17 O 0.13478 0.35594 0.37317 0.0
C18 C 0.09373 0.35404 0.27647 0.0
O19 O 0.12087 0.38798 0.26663 0.0
N20 N 0.18494 0.42482 0.34604 0.0
C21 C 0.25558 0.48883 0.35858 0.0
C22 C 0.2459 0.45399 0.37472 0.0
C23 C 0.21035 0.42216 0.36798 0.0
C24 C 0.19363 0.45854 0.33059 0.0
C25 C 0.22871 0.49103 0.33674 0.0
H26 H 0.20416 0.39516 0.37894 0.0
H27 H 0.17371 0.45983 0.31227 0.0
H28 H 0.16216 0.32048 0.34645 0.0
H29 H 0.23306 0.36453 0.2566 0.0
H30 H 0.08352 0.43818 0.41368 0.0
H31 H 0.26595 0.45116 0.39168 0.0
H32 H 0.23536 0.51719 0.32318 0.0
C33 C 0.8201 0.20794 0.62266 0.0
C34 C 0.85895 0.23096 0.62499 0.0
N35 N 0.87272 0.21369 0.64601 0.0
N36 N 0.8093 0.17635 0.6423 0.0
C37 C 0.842 0.18038 0.65561 0.0
H38 H 0.80089 0.2142 0.60815 0.0
Co39 Co 0.75958 0.13716 0.65114 0.0
C40 C 0.76081 0.11962 0.72864 0.0
O41 O 0.72532 0.11143 0.73188 0.0
N42 N 0.70923 0.09655 0.65954 0.0
C43 C 0.66308 0.03689 0.66956 0.0
C44 C 0.70168 0.06116 0.66816 0.0
C45 C 0.67426 0.09275 0.65566 0.0
N46 N 0.64574 0.05673 0.66158 0.0
O47 O 0.77017 0.10201 0.62672 0.0
H48 H 0.72308 0.05333 0.673 0.0
H49 H 0.66927 0.11532 0.64767 0.0
O50 O 0.77675 0.12851 0.69786 0.0
C51 C 0.7679 0.10713 0.59329 0.0
O52 O 0.76187 0.13469 0.58347 0.0
N53 N 0.74907 0.17328 0.67051 0.0
C54 C 0.74652 0.24009 0.67902 0.0
C55 C 0.76561 0.22994 0.70407 0.0
C56 C 0.76707 0.1966 0.69904 0.0
C57 C 0.73009 0.18265 0.64633 0.0
C58 C 0.72757 0.21525 0.65054 0.0
H59 H 0.78557 0.19181 0.71619 0.0
H60 H 0.7193 0.16619 0.62201 0.0
H61 H 0.84312 0.15963 0.6728 0.0
H62 H 0.87561 0.25843 0.61236 0.0
H63 H 0.64892 0.00696 0.67621 0.0
H64 H 0.78165 0.24894 0.72581 0.0
H65 H 0.71262 0.22197 0.63047 0.0
C66 C 0.62179 0.82235 0.9318 0.0
C67 C 0.64267 0.86147 0.93043 0.0
N68 N 0.66276 0.87438 0.96107 0.0
N69 N 0.62865 0.81046 0.96308 0.0
C70 C 0.654 0.84276 0.98014 0.0
H71 H 0.60121 0.80388 0.91215 0.0
Co72 Co 0.60135 0.7606 0.98031 0.0
C73 C 0.63613 0.76587 0.05197 0.0
O74 O 0.63635 0.73397 0.04735 0.0
N75 N 0.57288 0.71011 0.99779 0.0
C76 C 0.53367 0.66143 0.03224 0.0
C77 C 0.55272 0.70025 0.02854 0.0
C78 C 0.56526 0.67643 0.98315 0.0
N79 N 0.54138 0.64631 1.00361 0.0
O80 O 0.64154 0.75221 0.96542 0.0
H81 H 0.55175 0.72011 0.04717 0.0
H82 H 0.57612 0.67378 0.9576 0.0
O83 O 0.62344 0.7783 0.02749 0.0
C84 C 0.63406 0.74119 0.93291 0.0
O85 O 0.60286 0.73739 0.91846 0.0
N86 N 0.56123 0.76829 0.99087 0.0
C87 C 0.49868 0.77842 0.99453 0.0
C88 C 0.52941 0.79793 0.0182 0.0
C89 C 0.5608 0.79271 0.01573 0.0
C90 C 0.5316 0.74902 0.96794 0.0
C91 C 0.49994 0.75347 0.96942 0.0
H92 H 0.58493 0.80892 0.03311 0.0
H93 H 0.53292 0.73039 0.94802 0.0
H94 H 0.66485 0.84325 1.00663 0.0
H95 H 0.64123 0.87899 0.90941 0.0
H96 H 0.51576 0.64563 0.05457 0.0
H97 H 0.52959 0.81773 0.03771 0.0
H98 H 0.47662 0.73748 0.951 0.0
C99 C 0.81294 0.61685 0.28452 0.0
C100 C 0.79279 0.63545 0.27974 0.0
N101 N 0.80367 0.66248 0.30521 0.0
N102 N 0.83615 0.63189 0.31302 0.0
C103 C 0.83019 0.65988 0.32472 0.0
H104 H 0.81 0.59306 0.26898 0.0
Co105 Co 0.86634 0.61413 0.33296 0.0
C106 C 0.88517 0.66598 0.39771 0.0
O107 O 0.91689 0.69418 0.38486 0.0
N108 N 0.89693 0.59611 0.35279 0.0
C109 C 0.92841 0.57965 0.39069 0.0
C110 C 0.90472 0.59442 0.38771 0.0
C111 C 0.91569 0.58136 0.33516 0.0
N112 N 0.93521 0.57137 0.35765 0.0
O113 O 0.91059 0.659 0.31678 0.0
H114 H 0.89346 0.60258 0.40999 0.0
H115 H 0.91501 0.57784 0.30642 0.0
O116 O 0.86557 0.63608 0.37898 0.0
C117 C 0.91564 0.65193 0.28464 0.0
O118 O 0.89225 0.61829 0.27103 0.0
N119 N 0.82266 0.56912 0.34525 0.0
C120 C 0.75292 0.50201 0.34815 0.0
C121 C 0.75883 0.53416 0.36739 0.0
C122 C 0.79391 0.5677 0.36528 0.0
C123 C 0.81772 0.53787 0.32717 0.0
C124 C 0.78313 0.50388 0.32848 0.0
H125 H 0.79692 0.59304 0.37771 0.0
H126 H 0.84009 0.53986 0.31012 0.0
H127 H 0.8437 0.677 0.3481 0.0
H128 H 0.77133 0.62907 0.2595 0.0
H129 H 0.93895 0.57428 0.41533 0.0
H130 H 0.73594 0.53407 0.38226 0.0
H131 H 0.77971 0.47961 0.31335 0.0
C132 C 0.19687 0.80001 0.6257 0.0
C133 C 0.15806 0.77638 0.62301 0.0
N134 N 0.141 0.79063 0.64368 0.0
N135 N 0.20431 0.82895 0.64812 0.0
C136 C 0.1697 0.82274 0.65807 0.0
H137 H 0.21834 0.79541 0.61353 0.0
Co138 Co 0.25237 0.86514 0.66601 0.0
C139 C 0.2159 0.88883 0.72408 0.0
O140 O 0.21745 0.91779 0.70699 0.0
N141 N 0.30052 0.90138 0.6842 0.0
C142 C 0.3479 0.93583 0.72192 0.0
C143 C 0.30935 0.9124 0.71866 0.0
C144 C 0.33446 0.91874 0.66701 0.0
N145 N 0.36393 0.93952 0.68954 0.0
O146 O 0.24867 0.90458 0.64165 0.0
H147 H 0.28954 0.90279 0.7407 0.0
H148 H 0.33764 0.91424 0.63898 0.0
O149 O 0.22851 0.86909 0.70936 0.0
C150 C 0.25658 0.90185 0.6091 0.0
O151 O 0.26563 0.87593 0.60098 0.0
N152 N 0.25723 0.82596 0.68642 0.0
C153 C 0.26174 0.76179 0.703 0.0
C154 C 0.23171 0.76581 0.71612 0.0
C155 C 0.22998 0.79831 0.70755 0.0
C156 C 0.28678 0.82252 0.67381 0.0
C157 C 0.28999 0.79096 0.68235 0.0
H158 H 0.20538 0.7999 0.71577 0.0
H159 H 0.3069 0.84331 0.65538 0.0
H160 H 0.16544 0.84013 0.67718 0.0
H161 H 0.14368 0.75014 0.60788 0.0
H162 H 0.36299 0.94829 0.74662 0.0
H163 H 0.20907 0.7434 0.73166 0.0
H164 H 0.313 0.78824 0.67098 0.0
C165 C 0.40216 0.1959 0.94115 0.0
C166 C 0.38003 0.15726 0.93604 0.0
N167 N 0.34771 0.14446 0.95507 0.0
N168 N 0.38427 0.20762 0.96379 0.0
C169 C 0.35037 0.17594 0.97011 0.0
H170 H 0.42999 0.21369 0.9298 0.0
Co171 Co 0.40125 0.25601 0.98487 0.0
C172 C 0.37819 0.20161 0.04668 0.0
O173 O 0.39251 0.18286 0.03066 0.0
N174 N 0.4177 0.30396 1.00513 0.0
C175 C 0.43724 0.35155 0.04399 0.0
C176 C 0.42134 0.31293 0.04025 0.0
C177 C 0.43161 0.33773 0.98802 0.0
N178 N 0.44394 0.3673 1.01116 0.0
O179 O 0.35399 0.25227 0.97133 0.0
H180 H 0.41389 0.29303 0.06206 0.0
H181 H 0.43378 0.34064 0.95919 0.0
O182 O 0.38051 0.23126 0.03204 0.0
C183 C 0.35681 0.2585 0.93766 0.0
O184 O 0.38877 0.26672 0.92162 0.0
N185 N 0.44941 0.26252 0.99391 0.0
C186 C 0.5229 0.27381 0.99279 0.0
C187 C 0.501 0.26178 0.02423 0.0
C188 C 0.46462 0.25738 0.02453 0.0
C189 C 0.47159 0.27767 0.96442 0.0
C190 C 0.50824 0.28335 0.96315 0.0
H191 H 0.4492 0.24994 0.04935 0.0
H192 H 0.46015 0.28431 0.94119 0.0
H193 H 0.32951 0.1756 0.98826 0.0
H194 H 0.38805 0.13988 0.9206 0.0
H195 H 0.44344 0.36686 0.06909 0.0
H196 H 0.51138 0.25506 0.04821 0.0
H197 H 0.52467 0.29468 0.9389 0.0
C198 C 0.64706 0.82864 0.41733 0.0
C199 C 0.66956 0.81225 0.41849 0.0
N200 N 0.67756 0.80721 0.38462 0.0
N201 N 0.64101 0.83407 0.38291 0.0
C202 C 0.65988 0.82061 0.36369 0.0
H203 H 0.63514 0.83525 0.44017 0.0
Co204 Co 0.60988 0.85237 0.3665 0.0
C205 C 0.63694 0.87819 0.2921 0.0
O206 O 0.634 0.90874 0.29571 0.0
N207 N 0.57753 0.8702 0.34991 0.0
C208 C 0.53224 0.873 0.31878 0.0
C209 C 0.55309 0.85511 0.32208 0.0
C210 C 0.57097 0.89752 0.36292 0.0
N211 N 0.54348 0.89966 0.34451 0.0
O212 O 0.64943 0.90297 0.37748 0.0
H213 H 0.55048 0.83236 0.30511 0.0
H214 H 0.58529 0.91514 0.38585 0.0
O215 O 0.62874 0.85515 0.31814 0.0
C216 C 0.64428 0.90973 0.40972 0.0
O217 O 0.61366 0.88436 0.42665 0.0
N218 N 0.57102 0.80267 0.35978 0.0
C219 C 0.50938 0.72894 0.36012 0.0
C220 C 0.53726 0.74063 0.33335 0.0
C221 C 0.56822 0.77777 0.33377 0.0
C222 C 0.54451 0.79169 0.3861 0.0
C223 C 0.51335 0.75503 0.38671 0.0
H224 H 0.58976 0.78625 0.31336 0.0
H225 H 0.54765 0.81181 0.40667 0.0
H226 H 0.65928 0.81893 0.33483 0.0
H227 H 0.67894 0.80435 0.44242 0.0
H228 H 0.5108 0.86718 0.29868 0.0
H229 H 0.53536 0.72116 0.31256 0.0
H230 H 0.49224 0.74739 0.40755 0.0
C231 C 0.81816 0.60871 0.75196 0.0
C232 C 0.85734 0.62795 0.75292 0.0
N233 N 0.87046 0.65571 0.72807 0.0
N234 N 0.80657 0.62425 0.72663 0.0
C235 C 0.83906 0.65321 0.71306 0.0
H236 H 0.79935 0.58355 0.76716 0.0
Co237 Co 0.75689 0.60423 0.70912 0.0
C238 C 0.77395 0.65103 0.64236 0.0
O239 O 0.74988 0.6626 0.65003 0.0
N240 N 0.70719 0.58382 0.69091 0.0
C241 C 0.658 0.55278 0.65412 0.0
C242 C 0.69673 0.57006 0.65736 0.0
C243 C 0.67406 0.57452 0.70764 0.0
N244 N 0.64364 0.55536 0.68575 0.0
O245 O 0.75519 0.64714 0.72814 0.0
H246 H 0.71594 0.57101 0.63685 0.0
H247 H 0.67205 0.5799 0.7357 0.0
O248 O 0.77772 0.62864 0.66359 0.0
C249 C 0.74782 0.63927 0.76131 0.0
O250 O 0.74296 0.60656 0.77282 0.0
N251 N 0.75731 0.56077 0.6946 0.0
C252 C 0.75616 0.49249 0.68476 0.0
C253 C 0.78234 0.52524 0.66608 0.0
C254 C 0.78246 0.55936 0.67138 0.0
C255 C 0.73197 0.52933 0.71307 0.0
C256 C 0.7306 0.49477 0.70826 0.0
H257 H 0.80348 0.58473 0.65787 0.0
H258 H 0.71324 0.53138 0.73232 0.0
H259 H 0.8398 0.67133 0.69157 0.0
H260 H 0.87471 0.6204 0.76898 0.0
H261 H 0.64151 0.53868 0.63045 0.0
H262 H 0.8027 0.52453 0.64789 0.0
H263 H 0.71056 0.47036 0.72376 0.0
C264 C 0.19474 0.82799 0.07099 0.0
C265 C 0.21421 0.86716 0.07176 0.0
N266 N 0.19714 0.87967 0.04896 0.0
N267 N 0.16554 0.81572 0.04776 0.0
C268 C 0.16728 0.8478 0.0354 0.0
H269 H 0.20285 0.80969 0.08464 0.0
Co270 Co 0.13548 0.76578 0.03074 0.0
C271 C 0.10338 0.78261 0.96473 0.0
O272 O 0.06762 0.75781 0.97161 0.0
N273 N 0.10582 0.71586 0.01319 0.0
C274 C 0.08254 0.66652 0.97599 0.0
C275 C 0.10493 0.70525 0.97879 0.0
C276 C 0.08435 0.68276 0.03101 0.0
N277 N 0.06958 0.65224 1.00879 0.0
O278 O 0.09136 0.76346 0.05161 0.0
H279 H 0.12084 0.72428 0.95717 0.0
H280 H 0.08028 0.68101 0.05972 0.0
O281 O 0.12945 0.78617 0.98602 0.0
C282 C 0.09368 0.75947 0.08524 0.0
O283 O 0.12248 0.75672 0.09752 0.0
N284 N 0.17909 0.76721 0.01375 0.0
C285 C 0.2485 0.77137 1.00166 0.0
C286 C 0.239 0.79558 0.98336 0.0
C287 C 0.20402 0.79311 0.98986 0.0
C288 C 0.18762 0.74314 0.03133 0.0
C289 C 0.22206 0.74451 0.02548 0.0
H290 H 0.19789 0.81317 0.977 0.0
H291 H 0.1681 0.72374 0.05109 0.0
H292 H 0.14794 0.84782 0.01558 0.0
H293 H 0.24051 0.88492 0.086 0.0
H294 H 0.07764 0.64992 0.95185 0.0
H295 H 0.25873 0.81674 0.96481 0.0
H296 H 0.2286 0.72584 0.04069 0.0
C297 C 0.36364 0.17279 0.41872 0.0
C298 C 0.3424 0.19058 0.42005 0.0
N299 N 0.33213 0.19343 0.3864 0.0
N300 N 0.36664 0.16432 0.38441 0.0
C301 C 0.3473 0.17745 0.36545 0.0
H302 H 0.37657 0.16703 0.44132 0.0
Co303 Co 0.39411 0.14216 0.36705 0.0
C304 C 0.35808 0.11026 0.29686 0.0
O305 O 0.35718 0.07808 0.30339 0.0
N306 N 0.42256 0.12036 0.3489 0.0
C307 C 0.46134 0.11168 0.31322 0.0
C308 C 0.44354 0.13225 0.31868 0.0
C309 C 0.42818 0.09218 0.36124 0.0
N310 N 0.45164 0.0862 0.33991 0.0
O311 O 0.35423 0.09353 0.38271 0.0
H312 H 0.44581 0.15459 0.30139 0.0
H313 H 0.41507 0.076 0.38514 0.0
O314 O 0.37132 0.13667 0.3202 0.0
C315 C 0.36334 0.0898 0.41452 0.0
O316 O 0.39627 0.11622 0.42731 0.0
N317 N 0.43397 0.1901 0.35602 0.0
C318 C 0.50021 0.25971 0.34803 0.0
C319 C 0.46951 0.24895 0.32447 0.0
C320 C 0.4363 0.21375 0.32898 0.0
C321 C 0.46289 0.2008 0.37982 0.0
C322 C 0.49635 0.23539 0.37625 0.0
H323 H 0.41291 0.20547 0.3106 0.0
H324 H 0.46002 0.18189 0.40146 0.0
H325 H 0.34557 0.17677 0.33661 0.0
H326 H 0.33524 0.2007 0.44395 0.0
H327 H 0.48042 0.11579 0.29134 0.0
H328 H 0.47146 0.26716 0.30246 0.0
H329 H 0.51901 0.24306 0.39551 0.0
C330 C 0.19097 0.39345 0.75392 0.0
C331 C 0.15219 0.37088 0.75758 0.0
N332 N 0.1402 0.34053 0.73588 0.0
N333 N 0.20352 0.37786 0.72939 0.0
C334 C 0.17206 0.34468 0.72047 0.0
H335 H 0.20813 0.42019 0.76747 0.0
Co336 Co 0.25195 0.39632 0.70791 0.0
C337 C 0.19903 0.3781 0.64624 0.0
O338 O 0.18392 0.39577 0.66296 0.0
N339 N 0.29991 0.41395 0.68727 0.0
C340 C 0.34748 0.43278 0.64858 0.0
C341 C 0.30866 0.41492 0.65228 0.0
C342 C 0.33394 0.43121 0.70429 0.0
N343 N 0.3634 0.44308 0.68128 0.0
O344 O 0.24943 0.34953 0.72016 0.0
H345 H 0.28839 0.40412 0.63053 0.0
H346 H 0.33713 0.43603 0.73289 0.0
O347 O 0.2265 0.3759 0.66075 0.0
C348 C 0.26214 0.35504 0.75215 0.0
O349 O 0.27262 0.38793 0.7675 0.0
N350 N 0.25768 0.44441 0.69986 0.0
C351 C 0.26728 0.51721 0.70018 0.0
C352 C 0.26097 0.49708 0.6679 0.0
C353 C 0.25768 0.46116 0.66818 0.0
C354 C 0.26846 0.46542 0.73047 0.0
C355 C 0.27289 0.5016 0.73142 0.0
H356 H 0.25485 0.44701 0.64298 0.0
H357 H 0.27289 0.45356 0.75464 0.0
H358 H 0.17216 0.32497 0.70106 0.0
H359 H 0.13397 0.3778 0.77303 0.0
H360 H 0.36284 0.43774 0.62367 0.0
H361 H 0.25786 0.50846 0.64276 0.0
H362 H 0.28033 0.51699 0.75655 0.0
C363 C 0.80025 0.20332 0.05632 0.0
C364 C 0.77568 0.16461 0.05742 0.0
N365 N 0.79144 0.14749 0.03905 0.0
N366 N 0.8312 0.21067 0.037 0.0
C367 C 0.82523 0.176 0.02742 0.0
H368 H 0.79521 0.22487 0.06765 0.0
Co369 Co 0.87011 0.25931 0.02328 0.0
C370 C 0.89133 0.22154 0.96376 0.0
O371 O 0.91352 0.21331 0.98263 0.0
N372 N 0.90905 0.30826 1.00976 0.0
C373 C 0.95272 0.35772 0.97888 0.0
C374 C 0.92799 0.31916 0.97837 0.0
C375 C 0.92302 0.34093 0.02893 0.0
N376 N 0.94949 0.37154 1.01061 0.0
O377 O 0.90679 0.25137 0.04828 0.0
H378 H 0.92359 0.30081 0.95579 0.0
H379 H 0.91344 0.34233 0.05561 0.0
O380 O 0.87557 0.2384 0.97845 0.0
C381 C 0.90313 0.25704 0.08131 0.0
O382 O 0.87725 0.26597 0.08996 0.0
N383 N 0.83364 0.26816 1.00213 0.0
C384 C 0.77098 0.27533 0.98535 0.0
C385 C 0.77672 0.2481 0.96795 0.0
C386 C 0.80843 0.24499 0.97667 0.0
C387 C 0.82877 0.29528 0.01865 0.0
C388 C 0.79796 0.29982 1.01019 0.0
H389 H 0.81097 0.22212 0.96488 0.0
H390 H 0.84738 0.31183 0.04026 0.0
H391 H 0.84433 0.17154 1.01087 0.0
H392 H 0.74803 0.15027 0.07009 0.0
H393 H 0.97045 0.37457 0.95686 0.0
H394 H 0.75601 0.22834 0.949 0.0
H395 H 0.79382 0.32048 0.02483 0.0
C396 C 0.91635 0.25382 0.14565 0.0
C397 C 0.92839 0.25712 0.10996 0.0
C398 C 0.94169 0.26209 0.17419 0.0
C399 C 0.98015 0.27385 0.16698 0.0
C400 C 0.99164 0.2736 0.13113 0.0
C401 C 0.96555 0.26528 0.1029 0.0
C402 C 0.92802 0.26196 0.21181 0.0
C403 C 0.03224 0.28527 0.12237 0.0
C404 C 0.05175 0.35177 0.22756 0.0
C405 C 0.06239 0.33187 0.25102 0.0
C406 C 0.02519 0.33308 0.20026 0.0
C407 C 0.00908 0.29335 0.19575 0.0
C408 C 0.01939 0.27285 0.21959 0.0
C409 C 0.04579 0.29238 0.24729 0.0
C410 C 0.01442 0.35608 0.1762 0.0
C411 C 0.00322 0.2306 0.21529 0.0
H412 H 0.88741 0.24681 0.15135 0.0
H413 H 0.97496 0.26765 0.0754 0.0
H414 H 0.93896 0.24869 0.2307 0.0
H415 H 0.93897 0.29173 0.22075 0.0
H416 H 0.89649 0.24656 0.21349 0.0
H417 H 0.03499 0.27666 0.09481 0.0
H418 H 0.05021 0.31665 0.12448 0.0
H419 H 0.04347 0.27258 0.14166 0.0
H420 H 0.06446 0.38231 0.2305 0.0
H421 H 0.05445 0.27709 0.26511 0.0
H422 H 0.98333 0.3449 0.17766 0.0
H423 H 0.02133 0.35354 0.14798 0.0
H424 H 0.02938 0.38671 0.18354 0.0
H425 H 0.9717 0.21559 0.21569 0.0
H426 H 0.01314 0.21861 0.23663 0.0
H427 H 0.01173 0.2247 0.18892 0.0
C428 C 0.70946 0.95411 0.43318 0.0
C429 C 0.67134 0.94426 0.42926 0.0
C430 C 0.73289 0.98143 0.45874 0.0
C431 C 0.71772 0.99935 0.4803 0.0
C432 C 0.67973 0.99074 0.47483 0.0
C433 C 0.65696 0.96302 0.44968 0.0
C434 C 0.77306 0.98955 0.46399 0.0
C435 C 0.66256 0.00975 0.49652 0.0
C436 C 0.74931 0.04122 0.57308 0.0
C437 C 0.7654 0.08002 0.56556 0.0
C438 C 0.73688 0.01436 0.5451 0.0
C439 C 0.74067 0.0268 0.50906 0.0
C440 C 0.76059 0.06618 0.5015 0.0
C441 C 0.77272 0.09228 0.52986 0.0
C442 C 0.71643 0.97259 0.55425 0.0
C443 C 0.76554 0.08081 0.46361 0.0
H444 H 0.7202 0.93883 0.41791 0.0
H445 H 0.62733 0.95504 0.44674 0.0
H446 H 0.79324 0.02063 0.46522 0.0
H447 H 0.77508 0.97732 0.48988 0.0
H448 H 0.78205 0.9771 0.44227 0.0
H449 H 0.63325 1.0012 0.48766 0.0
H450 H 0.6616 0.00225 0.52519 0.0
H451 H 0.68042 0.04113 0.49436 0.0
H452 H 0.7436 0.03161 0.60062 0.0
H453 H 0.78567 0.12237 0.52395 0.0
H454 H 0.72537 0.95692 0.5361 0.0
H455 H 0.68537 0.96054 0.55064 0.0
H456 H 0.72172 0.96765 0.58238 0.0
H457 H 0.77408 0.06475 0.44555 0.0
H458 H 0.78712 0.11155 0.46188 0.0
H459 H 0.73802 0.07677 0.45368 0.0
C460 C 0.63809 0.69758 0.88956 0.0
C461 C 0.65704 0.72962 0.91165 0.0
C462 C 0.65801 0.68771 0.86545 0.0
C463 C 0.69799 0.71098 0.86272 0.0
C464 C 0.71746 0.74333 0.88523 0.0
C465 C 0.6967 0.75209 0.90984 0.0
C466 C 0.63612 0.65232 0.84283 0.0
C467 C 0.75996 0.76906 0.88266 0.0
C468 C 0.74208 0.65657 0.82373 0.0
C469 C 0.74224 0.66382 0.78696 0.0
C470 C 0.73044 0.67401 0.84903 0.0
C471 C 0.7189 0.69973 0.8374 0.0
C472 C 0.72195 0.70961 0.80062 0.0
C473 C 0.73354 0.69141 0.77569 0.0
C474 C 0.72743 0.66233 0.88782 0.0
C475 C 0.71049 0.73742 0.7873 0.0
H476 H 0.60736 0.68021 0.89102 0.0
H477 H 0.7112 0.77725 0.92653 0.0
H478 H 0.64025 0.65991 0.81403 0.0
H479 H 0.64695 0.63253 0.84763 0.0
H480 H 0.60514 0.63709 0.84864 0.0
H481 H 0.77091 0.79273 0.90238 0.0
H482 H 0.77455 0.75257 0.8871 0.0
H483 H 0.76758 0.78128 0.85534 0.0
H484 H 0.74945 0.63576 0.83279 0.0
H485 H 0.73383 0.6973 0.74737 0.0
H486 H 0.697 0.64435 0.89511 0.0
H487 H 0.7398 0.68761 0.9056 0.0
H488 H 0.74199 0.64591 0.89314 0.0
H489 H 0.67904 0.72373 0.78768 0.0
H490 H 0.72047 0.74693 0.75953 0.0
H491 H 0.72204 0.76272 0.80506 0.0
C492 C 0.0781 0.77633 0.14374 0.0
C493 C 0.06525 0.75691 0.11112 0.0
C494 C 0.05373 0.76685 0.17321 0.0
C495 C 0.01578 0.73663 0.17014 0.0
C496 C 1.00179 0.71923 0.13627 0.0
C497 C 0.02678 0.72978 0.10694 0.0
C498 C 0.06969 0.78666 0.20849 0.0
C499 C 0.96146 0.68697 0.13183 0.0
C500 C 0.97277 0.66971 0.24885 0.0
C501 C 0.94664 0.67948 0.26192 0.0
C502 C 0.99642 0.6892 0.21989 0.0
C503 C 0.9933 0.71878 0.20315 0.0
C504 C 0.96804 0.72991 0.21734 0.0
C505 C 0.94488 0.71001 0.24673 0.0
C506 C 0.02338 0.67674 0.2061 0.0
C507 C 0.96385 0.76121 0.20027 0.0
H508 H 0.10797 0.79743 0.14684 0.0
H509 H 0.01701 0.71451 0.0818 0.0
H510 H 0.04927 0.79287 0.22227 0.0
H511 H 0.07477 0.76776 0.2262 0.0
H512 H 0.09704 0.81369 0.20499 0.0
H513 H 0.95336 0.68047 0.10319 0.0
H514 H 0.9585 0.66104 0.14473 0.0
H515 H 0.94126 0.69378 0.14518 0.0
H516 H 0.97342 0.64553 0.26031 0.0
H517 H 0.92376 0.71671 0.25631 0.0
H518 H 0.05273 0.70141 0.20478 0.0
H519 H 0.01504 0.66525 0.17856 0.0
H520 H 0.02359 0.65451 0.22321 0.0
H521 H 0.99213 0.78648 0.19499 0.0
H522 H 0.94711 0.76991 0.21725 0.0
H523 H 0.94917 0.7512 0.17412 0.0
C524 C 0.35676 0.04266 0.45954 0.0
C525 C 0.33913 0.05715 0.43762 0.0
C526 C 0.33667 0.01647 0.48664 0.0
C527 C 0.29793 0.00484 0.49243 0.0
C528 C 0.27954 0.01856 0.46966 0.0
C529 C 0.30041 0.04452 0.44222 0.0
C530 C 0.35729 1.00196 0.50961 0.0
C531 C 0.2384 0.00702 0.47519 0.0
C532 C 0.25138 0.91358 0.54496 0.0
C533 C 0.25769 0.92722 0.58027 0.0
C534 C 0.26088 0.9383 0.5158 0.0
C535 C 0.27727 0.97775 0.52208 0.0
C536 C 0.28021 0.99124 0.55769 0.0
C537 C 0.27029 0.96569 0.58654 0.0
C538 C 0.25697 0.92252 0.47843 0.0
C539 C 0.29703 0.03307 0.56544 0.0
H540 H 0.38678 0.05257 0.45595 0.0
H541 H 0.28704 0.0564 0.42567 0.0
H542 H 0.35747 0.01033 0.53791 0.0
H543 H 0.34232 0.97043 0.50862 0.0
H544 H 0.38717 0.01315 0.50093 0.0
H545 H 0.22738 0.01735 0.45332 0.0
H546 H 0.22048 0.97563 0.47694 0.0
H547 H 0.23541 0.0189 0.50092 0.0
H548 H 0.24101 0.88365 0.54004 0.0
H549 H 0.2751 0.97627 0.61381 0.0
H550 H 0.28542 0.92939 0.46847 0.0
H551 H 0.2456 0.93561 0.45978 0.0
H552 H 0.23804 0.89114 0.47769 0.0
H553 H 0.32831 0.04776 0.56172 0.0
H554 H 0.29113 0.03819 0.5933 0.0
H555 H 0.28568 0.04602 0.54659 0.0
C556 C 0.30537 0.33908 0.78315 0.0
C557 C 0.2683 0.32758 0.77211 0.0
C558 C 0.31233 0.32006 0.8107 0.0
C559 C 0.28128 0.2889 0.82793 0.0
C560 C 0.24376 0.27578 0.81545 0.0
C561 C 0.23767 0.29547 0.7876 0.0
C562 C 0.35288 0.33485 0.82271 0.0
C563 C 0.20998 0.2426 0.83293 0.0
C564 C 0.31806 0.23662 0.88281 0.0
C565 C 0.32595 0.2563 0.91539 0.0
C566 C 0.29933 0.24378 0.85504 0.0
C567 C 0.28886 0.27178 0.85989 0.0
C568 C 0.29315 0.28872 0.89412 0.0
C569 C 0.3117 0.28069 0.92166 0.0
C570 C 0.2948 0.22455 0.81933 0.0
C571 C 0.28199 0.31844 0.90052 0.0
H572 H 0.3289 0.36444 0.77151 0.0
H573 H 0.20892 0.28735 0.77964 0.0
H574 H 0.35658 0.34572 0.85054 0.0
H575 H 0.35954 0.31154 0.82262 0.0
H576 H 0.37378 0.35817 0.80533 0.0
H577 H 0.18381 0.23197 0.81647 0.0
H578 H 0.21551 0.21888 0.83768 0.0
H579 H 0.20479 0.25161 0.85935 0.0
H580 H 0.32919 0.21771 0.87806 0.0
H581 H 0.31823 0.29619 0.94674 0.0
H582 H 0.31742 0.24452 0.80089 0.0
H583 H 0.26699 0.21669 0.80696 0.0
H584 H 0.29712 0.19857 0.82185 0.0
H585 H 0.30305 0.34545 0.88752 0.0
H586 H 0.28104 0.32399 0.92951 0.0
H587 H 0.25379 0.30955 0.88849 0.0
C588 C 0.09271 0.31584 0.45847 0.0
C589 C 0.11852 0.32613 0.43002 0.0
C590 C 0.1048 0.31789 0.49418 0.0
C591 C 0.14365 0.33092 0.50157 0.0
C592 C 0.16903 0.33828 0.47278 0.0
C593 C 0.15605 0.33538 0.43745 0.0
C594 C 0.07656 0.30881 0.52405 0.0
C595 C 0.21067 0.35232 0.4792 0.0
C596 C 0.18312 0.39066 0.58571 0.0
C597 C 0.18722 0.36593 0.6089 0.0
C598 C 0.16966 0.3797 0.55067 0.0
C599 C 0.15884 0.34254 0.53872 0.0
C600 C 0.16287 0.3173 0.56211 0.0
C601 C 0.17755 0.32951 0.5969 0.0
C602 C 0.16686 0.40797 0.52649 0.0
C603 C 0.15071 0.27717 0.55074 0.0
H604 H 0.06356 0.30831 0.45308 0.0
H605 H 0.1759 0.34212 0.41562 0.0
H606 H 0.08015 0.29159 0.54506 0.0
H607 H 0.08164 0.33564 0.53676 0.0
H608 H 0.04675 0.29314 0.5142 0.0
H609 H 0.22546 0.35182 0.45439 0.0
H610 H 0.22469 0.38202 0.48929 0.0
H611 H 0.21437 0.33489 0.49987 0.0
H612 H 0.1907 0.41888 0.59503 0.0
H613 H 0.18018 0.31022 0.61512 0.0
H614 H 0.13679 0.39706 0.51875 0.0
H615 H 0.18317 0.41183 0.50153 0.0
H616 H 0.17787 0.4362 0.53946 0.0
H617 H 0.11959 0.26131 0.54577 0.0
H618 H 0.15745 0.26172 0.57131 0.0
H619 H 0.16476 0.27727 0.52528 0.0
C620 C 0.82391 0.15168 0.7606 0.0
C621 C 0.78427 0.12755 0.76162 0.0
C622 C 0.84541 0.16514 0.79229 0.0
C623 C 0.82691 0.15406 0.82591 0.0
C624 C 0.78735 0.12759 0.82707 0.0
C625 C 0.76654 0.11483 0.79499 0.0
C626 C 0.88752 0.19316 0.78967 0.0
C627 C 0.76648 0.11451 0.86227 0.0
C628 C 0.88121 0.17501 0.91441 0.0
C629 C 0.87954 0.20674 0.92674 0.0
C630 C 0.86533 0.15812 0.88108 0.0
C631 C 0.84756 0.17347 0.85956 0.0
C632 C 0.84737 0.20651 0.87129 0.0
C633 C 0.86327 0.22264 0.90461 0.0
C634 C 0.86612 0.12294 0.86962 0.0
C635 C 0.82902 0.22409 0.84924 0.0
H636 H 0.83799 0.1619 0.73512 0.0
H637 H 0.73601 0.09596 0.79613 0.0
H638 H 0.89311 0.2219 0.79729 0.0
H639 H 0.90367 0.18545 0.80848 0.0
H640 H 0.89853 0.19467 0.76213 0.0
H641 H 0.73676 0.09088 0.85876 0.0
H642 H 0.78148 0.10494 0.88059 0.0
H643 H 0.76582 0.13863 0.87546 0.0
H644 H 0.89353 0.1624 0.9314 0.0
H645 H 0.86221 0.24741 0.91373 0.0
H646 H 0.87615 0.12579 0.84158 0.0
H647 H 0.8369 0.098 0.87063 0.0
H648 H 0.88474 0.11717 0.88711 0.0
H649 H 0.84092 0.23013 0.82176 0.0
H650 H 0.83315 0.25094 0.86118 0.0
H651 H 0.79804 0.20378 0.8469 0.0
C652 C 0.62229 0.86792 0.22689 0.0
C653 C 0.64284 0.86647 0.25634 0.0
C654 C 0.62367 0.85236 0.19367 0.0
C655 C 0.64731 0.83625 0.18947 0.0
C656 C 0.6695 0.83639 0.21882 0.0
C657 C 0.66632 0.85072 0.25213 0.0
C658 C 0.59851 0.85163 0.16357 0.0
C659 C 0.69606 0.82077 0.2153 0.0
C660 C 0.62081 0.76117 0.11685 0.0
C661 C 0.6425 0.78317 0.08789 0.0
C662 C 0.62234 0.77804 0.15014 0.0
C663 C 0.64723 0.81766 0.15491 0.0
C664 C 0.67052 0.83963 0.12605 0.0
C665 C 0.66718 0.82226 0.09261 0.0
C666 C 0.596 0.75376 0.17967 0.0
C667 C 0.69854 0.88155 0.13035 0.0
H668 H 0.60364 0.87953 0.23033 0.0
H669 H 0.68226 0.84966 0.27493 0.0
H670 H 0.61592 0.86658 0.1398 0.0
H671 H 0.57861 0.82176 0.15548 0.0
H672 H 0.58164 0.86515 0.17121 0.0
H673 H 0.71564 0.8286 0.23855 0.0
H674 H 0.67933 0.78931 0.21347 0.0
H675 H 0.7132 0.83144 0.19049 0.0
H676 H 0.60119 0.73105 0.1129 0.0
H677 H 0.68386 0.83924 0.0701 0.0
H678 H 0.57691 0.76472 0.18736 0.0
H679 H 0.6126 0.75528 0.20379 0.0
H680 H 0.57825 0.72347 0.17162 0.0
H681 H 0.68307 0.89724 0.13441 0.0
H682 H 0.7173 0.89364 0.10662 0.0
H683 H 0.71652 0.88649 0.15439 0.0
C684 C 0.78227 0.67369 0.57857 0.0
C685 C 0.79455 0.66081 0.60765 0.0
C686 C 0.79918 0.67881 0.5446 0.0
C687 C 0.82934 0.67126 0.53972 0.0
C688 C 0.84314 0.66024 0.56948 0.0
C689 C 0.82549 0.65498 0.60293 0.0
C690 C 0.78348 0.69041 0.51355 0.0
C691 C 0.87547 0.6523 0.5657 0.0
C692 C 0.8406 0.6356 0.44912 0.0
C693 C 0.8714 0.66813 0.43408 0.0
C694 C 0.82642 0.63656 0.48306 0.0
C695 C 0.8437 0.6708 0.50302 0.0
C696 C 0.87501 0.70378 0.48826 0.0
C697 C 0.88847 0.70208 0.45392 0.0
C698 C 0.79306 0.60064 0.4977 0.0
C699 C 0.89439 0.74073 0.50884 0.0
H700 H 0.75842 0.67828 0.58194 0.0
H701 H 0.83551 0.64548 0.6253 0.0
H702 H 0.80684 0.71449 0.49883 0.0
H703 H 0.76915 0.66632 0.49447 0.0
H704 H 0.76265 0.69883 0.52231 0.0
H705 H 0.88491 0.64711 0.59195 0.0
H706 H 0.86639 0.62687 0.54855 0.0
H707 H 0.9001 0.67653 0.55243 0.0
H708 H 0.8276 0.609 0.43452 0.0
H709 H 0.91231 0.72736 0.44262 0.0
H710 H 0.76963 0.60591 0.50487 0.0
H711 H 0.80161 0.59189 0.52249 0.0
H712 H 0.782 0.57671 0.47827 0.0
H713 H 0.87349 0.74963 0.51577 0.0
H714 H 0.91801 0.76396 0.49348 0.0
H715 H 0.90592 0.73678 0.53437 0.0
C716 C 0.0919 0.78912 0.89959 0.0
C717 C 0.11489 0.80334 0.93017 0.0
C718 C 0.1056 0.80561 0.86575 0.0
C719 C 0.14288 0.83737 0.86262 0.0
C720 C 0.1651 0.85329 0.89382 0.0
C721 C 0.15096 0.83592 0.92704 0.0
C722 C 0.08118 0.78745 0.83309 0.0
C723 C 0.20476 0.88739 0.8919 0.0
C724 C 0.19991 0.84832 0.77874 0.0
C725 C 0.19754 0.87687 0.75981 0.0
C726 C 0.18146 0.83473 0.81159 0.0
C727 C 0.16073 0.85068 0.82671 0.0
C728 C 0.15868 0.88003 0.80822 0.0
C729 C 0.17695 0.89267 0.77485 0.0
C730 C 0.18448 0.80338 0.83025 0.0
C731 C 0.13736 0.89815 0.8238 0.0
H732 H 0.06406 0.76388 0.90175 0.0
H733 H 0.1688 0.84722 0.95053 0.0
H734 H 0.08082 0.80935 0.81568 0.0
H735 H 0.09335 0.77307 0.81716 0.0
H736 H 0.05145 0.76606 0.84026 0.0
H737 H 0.21727 0.89785 0.91885 0.0
H738 H 0.22361 0.87983 0.87697 0.0
H739 H 0.20441 0.91088 0.87717 0.0
H740 H 0.21645 0.8365 0.76799 0.0
H741 H 0.17499 0.91478 0.76053 0.0
H742 H 0.1557 0.77921 0.83623 0.0
H743 H 0.1996 0.81395 0.85614 0.0
H744 H 0.19996 0.79263 0.81396 0.0
H745 H 0.10727 0.87616 0.82861 0.0
H746 H 0.13808 0.92036 0.80599 0.0
H747 H 0.14984 0.91125 0.85007 0.0
C748 C 0.38877 0.21441 0.11183 0.0
C749 C 0.36564 0.1914 0.08397 0.0
C750 C 0.38313 0.20071 0.14714 0.0
C751 C 0.35287 0.16353 0.15479 0.0
C752 C 0.32764 0.1414 0.12698 0.0
C753 C 0.33492 0.15527 0.09171 0.0
C754 C 0.41149 0.22482 0.17559 0.0
C755 C 0.29424 0.10223 0.134 0.0
C756 C 0.36872 0.11128 0.23123 0.0
C757 C 0.35218 0.1196 0.26009 0.0
C758 C 0.36868 0.12503 0.19677 0.0
C759 C 0.35042 0.14646 0.19077 0.0
C760 C 0.33189 0.15317 0.21957 0.0
C761 C 0.33373 0.14036 0.25409 0.0
C762 C 0.38981 0.11816 0.16716 0.0
C763 C 0.31072 0.17439 0.21405 0.0
H764 H 0.413 0.24203 0.10562 0.0
H765 H 0.31737 0.13731 0.06995 0.0
H766 H 0.3967 0.22723 0.19948 0.0
H767 H 0.42777 0.21103 0.18427 0.0
H768 H 0.4319 0.25391 0.16586 0.0
H769 H 0.27314 0.0925 0.11185 0.0
H770 H 0.30436 0.08161 0.13662 0.0
H771 H 0.27985 0.10176 0.15938 0.0
H772 H 0.38356 0.09578 0.23602 0.0
H773 H 0.32087 0.14672 0.27646 0.0
H774 H 0.41248 0.14579 0.15647 0.0
H775 H 0.37019 0.10263 0.14474 0.0
H776 H 0.40304 0.1015 0.17638 0.0
H777 H 0.33095 0.20438 0.20681 0.0
H778 H 0.29494 0.17417 0.23839 0.0
H779 H 0.29029 0.16157 0.19153 0.0
C780 C 0.99148 0.56498 0.36707 0.0
C781 C 0.95708 0.55348 0.34925 0.0
C782 C 0.01109 0.54507 0.36283 0.0
C783 C 0.99543 0.5122 0.34086 0.0
C784 C 0.96142 0.50135 0.32159 0.0
C785 C 0.94281 0.52241 0.32576 0.0
C786 C 0.04769 0.55822 0.38324 0.0
C787 C 0.94349 0.46624 0.29832 0.0
C788 C 0.06073 0.4725 0.32074 0.0
C789 C 0.05229 0.44723 0.34935 0.0
C790 C 0.04146 0.49294 0.31663 0.0
C791 C 0.01268 0.48734 0.34136 0.0
C792 C 0.00264 0.46012 0.369 0.0
C793 C 0.02284 0.44075 0.37285 0.0
C794 C 0.05338 0.52202 0.28712 0.0
C795 C 0.97165 0.4526 0.39553 0.0
H796 H 0.00262 0.58927 0.38494 0.0
H797 H 0.91603 0.51339 0.31222 0.0
H798 H 0.04313 0.53738 0.40457 0.0
H799 H 0.07008 0.55982 0.36518 0.0
H800 H 0.05818 0.58651 0.39589 0.0
H801 H 0.91969 0.46416 0.28196 0.0
H802 H 0.96493 0.46597 0.28019 0.0
H803 H 0.93232 0.44058 0.31549 0.0
H804 H 0.08371 0.47771 0.30274 0.0
H805 H 0.01608 0.42086 0.39471 0.0
H806 H 0.06801 0.551 0.29895 0.0
H807 H 0.02816 0.51864 0.2724 0.0
H808 H 0.07297 0.51991 0.26778 0.0
H809 H 0.9808 0.47803 0.41271 0.0
H810 H 0.9647 0.42789 0.41306 0.0
H811 H 0.94543 0.44718 0.3813 0.0
C812 C 0.58986 0.06533 0.66815 0.0
C813 C 0.60517 0.04207 0.65985 0.0
C814 C 0.55026 0.0504 0.66944 0.0
C815 C 0.5253 0.01128 0.66219 0.0
C816 C 0.54062 0.98811 0.65221 0.0
C817 C 0.58024 0.00375 0.65119 0.0
C818 C 0.53517 0.07611 0.68024 0.0
C819 C 0.51515 0.94634 0.64407 0.0
C820 C 0.42971 0.96124 0.70936 0.0
C821 C 0.40429 0.95788 0.68219 0.0
C822 C 0.46895 0.97891 0.7032 0.0
C823 C 0.48356 0.99363 0.66886 0.0
C824 C 0.45821 0.99037 0.64116 0.0
C825 C 0.41885 0.97245 0.64813 0.0
C826 C 0.49478 0.98142 0.73348 0.0
C827 C 0.47267 0.00571 0.6042 0.0
H828 H 0.60882 0.09488 0.67503 0.0
H829 H 0.59175 0.98574 0.64397 0.0
H830 H 0.5128 0.07306 0.66127 0.0
H831 H 0.52191 0.06774 0.70711 0.0
H832 H 0.55791 0.10649 0.68123 0.0
H833 H 0.5313 0.93306 0.63355 0.0
H834 H 0.50017 0.93112 0.6688 0.0
H835 H 0.49312 0.94224 0.62419 0.0
H836 H 0.41888 0.94937 0.73554 0.0
H837 H 0.39953 0.97021 0.62706 0.0
H838 H 0.51687 0.01151 0.73823 0.0
H839 H 0.50966 0.96578 0.72621 0.0
H840 H 0.47904 0.96942 0.75885 0.0
H841 H 0.49389 0.03652 0.60575 0.0
H842 H 0.44944 1.0016 0.58577 0.0
H843 H 0.48728 0.99134 0.59263 0.0
C844 C 0.45119 0.42049 0.97296 0.0
C845 C 0.46139 0.40749 1.00345 0.0
C846 C 0.4653 0.45967 0.9675 0.0
C847 C 0.49024 0.48641 0.99309 0.0
C848 C 0.50204 0.47344 0.02291 0.0
C849 C 0.48757 0.43432 0.02765 0.0
C850 C 0.45221 0.47227 0.93521 0.0
C851 C 0.52874 0.50079 0.05079 0.0
C852 C 0.5482 0.5937 0.97788 0.0
C853 C 0.52687 0.60624 0.99708 0.0
C854 C 0.53577 0.55461 0.97466 0.0
C855 C 0.50123 0.52743 0.99103 0.0
C856 C 0.47875 0.53992 1.00884 0.0
C857 C 0.49177 0.579 1.01156 0.0
C858 C 0.56048 0.54255 0.9552 0.0
C859 C 0.44165 0.51207 0.02653 0.0
H860 H 0.43098 0.39998 0.95416 0.0
H861 H 0.49638 0.42463 0.05079 0.0
H862 H 0.43294 0.48266 0.94388 0.0
H863 H 0.47681 0.49623 0.9216 0.0
H864 H 0.43679 0.4488 0.91566 0.0
H865 H 0.53729 0.48646 0.07099 0.0
H866 H 0.55473 0.5237 0.03787 0.0
H867 H 0.51472 0.51449 0.06487 0.0
H868 H 0.57533 0.61446 0.96661 0.0
H869 H 0.4746 0.58828 0.02562 0.0
H870 H 0.54316 0.51873 0.93658 0.0
H871 H 0.57367 0.5322 0.97484 0.0
H872 H 0.58351 0.56634 0.93981 0.0
H873 H 0.42298 0.48952 1.00733 0.0
H874 H 0.42614 0.52608 0.03691 0.0
H875 H 0.44727 0.49797 0.04921 0.0
C876 C 0.49086 0.91325 0.34356 0.0
C877 C 0.52919 0.92529 0.35034 0.0
C878 C 0.47705 0.93862 0.34597 0.0
C879 C 0.50231 0.9772 0.35485 0.0
C880 C 0.54075 0.98919 0.36313 0.0
C881 C 0.55366 0.96299 0.36102 0.0
C882 C 0.43574 0.92444 0.33756 0.0
C883 C 0.56872 0.03012 0.37232 0.0
C884 C 0.47866 0.04856 0.31469 0.0
C885 C 0.46391 0.05855 0.34408 0.0
C886 C 0.49175 0.02273 0.31813 0.0
C887 C 0.48945 0.00558 0.35166 0.0
C888 C 0.47415 0.01494 0.38142 0.0
C889 C 0.46179 0.04146 0.37735 0.0
C890 C 0.50792 0.01367 0.28566 0.0
C891 C 0.47077 0.99686 0.41752 0.0
H892 H 0.47172 0.88395 0.33595 0.0
H893 H 0.58333 0.97242 0.36611 0.0
H894 H 0.42278 0.93339 0.35876 0.0
H895 H 0.43351 0.93712 0.31204 0.0
H896 H 0.419 0.89297 0.33498 0.0
H897 H 0.5965 0.0341 0.38143 0.0
H898 H 0.57363 0.04816 0.34839 0.0
H899 H 0.55708 0.04041 0.3936 0.0
H900 H 0.47977 0.06062 0.28864 0.0
H901 H 0.45084 0.04901 0.40039 0.0
H902 H 0.4903 0.98304 0.27891 0.0
H903 H 0.53707 0.01935 0.29151 0.0
H904 H 0.50914 0.03058 0.26185 0.0
H905 H 0.4533 0.96545 0.41518 0.0
H906 H 0.45766 0.00665 0.43786 0.0
H907 H 0.4993 0.00363 0.42716 0.0
C908 C 0.57754 0.50333 0.67881 0.0
C909 C 0.60372 0.5385 0.69397 0.0
C910 C 0.53824 0.48831 0.6824 0.0
C911 C 0.5245 0.50909 0.70141 0.0
C912 C 0.55078 0.54371 0.71846 0.0
C913 C 0.59017 0.55794 0.71469 0.0
C914 C 0.51146 0.45105 0.66421 0.0
C915 C 0.5374 0.56677 0.73897 0.0
C916 C 0.42937 0.4901 0.66512 0.0
C917 C 0.40361 0.46294 0.68916 0.0
C918 C 0.46879 0.50703 0.67011 0.0
C919 C 0.48303 0.49629 0.69975 0.0
C920 C 0.45718 0.47016 0.72511 0.0
C921 C 0.41772 0.45394 0.71961 0.0
C922 C 0.49516 0.5351 0.64263 0.0
C923 C 0.47108 0.45779 0.75697 0.0
H924 H 0.58795 0.48787 0.66339 0.0
H925 H 0.61036 0.58513 0.72639 0.0
H926 H 0.48926 0.43151 0.68319 0.0
H927 H 0.49682 0.45623 0.6417 0.0
H928 H 0.52649 0.4367 0.65347 0.0
H929 H 0.56069 0.58985 0.75485 0.0
H930 H 0.52633 0.5798 0.7199 0.0
H931 H 0.51379 0.5483 0.75725 0.0
H932 H 0.41858 0.49768 0.64194 0.0
H933 H 0.3979 0.43288 0.7382 0.0
H934 H 0.50963 0.52244 0.62761 0.0
H935 H 0.51751 0.56122 0.65597 0.0
H936 H 0.47982 0.54324 0.62318 0.0
H937 H 0.48285 0.43984 0.74775 0.0
H938 H 0.44795 0.44116 0.77644 0.0
H939 H 0.49433 0.48284 0.77085 0.0
C940 C 0.94793 0.42557 0.03972 0.0
C941 C 0.96755 0.41133 0.02017 0.0
C942 C 0.96318 0.46505 0.0442 0.0
C943 C 0.99893 0.49084 0.02889 0.0
C944 C 0.01983 0.47641 1.01116 0.0
C945 C 0.00388 0.43697 1.00699 0.0
C946 C 0.94001 0.47913 0.06342 0.0
C947 C 0.05818 0.50269 0.9947 0.0
C948 C 0.02091 0.58689 0.99259 0.0
C949 C 0.04761 0.61222 0.01732 0.0
C950 C 0.00333 0.54738 0.99718 0.0
C951 C 0.01266 0.53254 0.02731 0.0
C952 C 0.03792 0.55795 0.05355 0.0
C953 C 0.05506 0.59756 0.04829 0.0
C954 C 0.97632 0.52155 0.96865 0.0
C955 C 0.04848 0.54337 0.08615 0.0
H956 H 0.91977 0.40597 0.04983 0.0
H957 H 0.01944 0.42611 0.99242 0.0
H958 H 0.95804 0.50222 0.08245 0.0
H959 H 0.92851 0.49112 0.04366 0.0
H960 H 0.9158 0.45599 0.07829 0.0
H961 H 0.07234 0.48711 0.98492 0.0
H962 H 0.05467 0.518 0.97178 0.0
H963 H 0.0771 0.52438 0.01445 0.0
H964 H 0.01459 0.59812 0.96893 0.0
H965 H 0.07578 0.61698 0.06741 0.0
H966 H 0.94939 0.49944 0.98093 0.0
H967 H 0.98918 0.50672 0.95457 0.0
H968 H 0.96956 0.53739 0.94853 0.0
H969 H 0.02273 0.51976 0.09873 0.0
H970 H 0.0639 0.5661 0.10638 0.0
H971 H 0.06703 0.53193 0.07802 0.0
C972 C 0.19811 0.2772 0.33325 0.0
C973 C 0.21835 0.31029 0.31263 0.0
C974 C 0.21523 0.2566 0.34513 0.0
C975 C 0.2535 0.26919 0.33599 0.0
C976 C 0.27381 0.30194 0.31439 0.0
C977 C 0.25605 0.32211 0.30304 0.0
C978 C 0.19255 0.22169 0.36795 0.0
C979 C 0.31464 0.31618 0.30395 0.0
C980 C 0.3114 0.24065 0.39475 0.0
C981 C 0.3111 0.21138 0.37459 0.0
C982 C 0.2924 0.25939 0.3827 0.0
C983 C 0.27261 0.24863 0.34966 0.0
C984 C 0.27162 0.2187 0.32947 0.0
C985 C 0.29084 0.20045 0.34217 0.0
C986 C 0.29399 0.29112 0.40506 0.0
C987 C 0.25081 0.20633 0.29413 0.0
H988 H 0.16882 0.26744 0.3403 0.0
H989 H 0.27215 0.34783 0.28755 0.0
H990 H 0.19204 0.19671 0.35537 0.0
H991 H 0.2063 0.22593 0.39455 0.0
H992 H 0.1628 0.21512 0.37197 0.0
H993 H 0.32603 0.34126 0.28595 0.0
H994 H 0.33269 0.32419 0.32831 0.0
H995 H 0.31712 0.29329 0.29028 0.0
H996 H 0.32726 0.24959 0.41958 0.0
H997 H 0.28985 0.17747 0.32666 0.0
H998 H 0.26478 0.28495 0.41133 0.0
H999 H 0.30813 0.31813 0.38975 0.0
H1000 H 0.30968 0.29533 0.43058 0.0
H1001 H 0.2213 0.20073 0.29703 0.0
H1002 H 0.24973 0.18031 0.28341 0.0
H1003 H 0.26527 0.22949 0.27423 0.0
C1004 C 0.9364 0.26841 0.65945 0.0
C1005 C 0.91141 0.22895 0.65834 0.0
C1006 C 0.97363 0.2838 0.6725 0.0
C1007 C 0.98633 0.25921 0.68498 0.0
C1008 C 0.96143 0.21937 0.68386 0.0
C1009 C 0.92433 0.20472 0.67051 0.0
C1010 C 0.99927 0.32649 0.67329 0.0
C1011 C 0.97396 0.19225 0.69689 0.0
C1012 C 0.09361 0.30343 0.68862 0.0
C1013 C 0.10152 0.3154 0.72446 0.0
C1014 C 0.05613 0.28369 0.67572 0.0
C1015 C 0.0257 0.27554 0.69924 0.0
C1016 C 0.03332 0.28584 0.73583 0.0
C1017 C 0.07115 0.30577 0.74796 0.0
C1018 C 0.04933 0.27339 0.63648 0.0
C1019 C 1.00161 0.27734 0.76183 0.0
H1020 H 0.92668 0.28748 0.6508 0.0
H1021 H 0.90554 0.17422 0.66942 0.0
H1022 H 0.0081 0.33624 0.70123 0.0
H1023 H 0.02549 0.33476 0.65769 0.0
H1024 H 0.98525 0.34167 0.66214 0.0
H1025 H 0.95129 0.16202 0.69395 0.0
H1026 H 0.99937 0.19681 0.68175 0.0
H1027 H 0.98227 0.19788 0.72551 0.0
H1028 H 0.11679 0.31119 0.67007 0.0
H1029 H 0.0771 0.31465 0.77569 0.0
H1030 H 0.03867 0.29062 0.62318 0.0
H1031 H 0.02725 0.24305 0.63314 0.0
H1032 H 0.07561 0.27853 0.62253 0.0
H1033 H 0.9879 0.29408 0.75449 0.0
H1034 H 0.01196 0.28437 0.78987 0.0
H1035 H 0.97941 0.24684 0.76042 0.0
C1036 C 0.79667 0.09103 0.02422 0.0
C1037 C 0.77415 0.10771 0.02985 0.0
C1038 C 0.78034 0.05278 0.01364 0.0
C1039 C 0.74055 0.03076 1.00817 0.0
C1040 C 0.71765 0.0474 0.014 0.0
C1041 C 0.73469 0.08556 0.02491 0.0
C1042 C 0.80568 0.036 1.0081 0.0
C1043 C 0.67517 0.02504 1.00811 0.0
C1044 C 0.69968 0.94341 0.94792 0.0
C1045 C 0.68457 0.91357 0.97289 0.0
C1046 C 0.71852 0.98164 0.959 0.0
C1047 C 0.72272 0.99041 0.99601 0.0
C1048 C 0.70851 0.96056 0.02138 0.0
C1049 C 0.68956 0.9226 1.00956 0.0
C1050 C 0.73318 0.01266 0.93107 0.0
C1051 C 0.71265 0.96871 0.06108 0.0
H1052 H 0.82711 0.10789 0.0283 0.0
H1053 H 0.71719 0.0984 0.02862 0.0
H1054 H 0.79607 0.01055 0.02528 0.0
H1055 H 0.8037 0.02653 0.97992 0.0
H1056 H 0.83594 0.05662 0.01434 0.0
H1057 H 0.66135 0.04203 0.01412 0.0
H1058 H 0.66893 0.01524 0.9799 0.0
H1059 H 0.66218 0.99933 0.02529 0.0
H1060 H 0.69658 0.93691 0.91959 0.0
H1061 H 0.67773 0.90007 0.02925 0.0
H1062 H 0.76403 0.03257 0.93504 0.0
H1063 H 0.71865 0.02944 0.93393 0.0
H1064 H 0.72857 1.00118 0.90338 0.0
H1065 H 0.74318 0.9864 0.06817 0.0
H1066 H 0.7 0.94232 0.07735 0.0
H1067 H 0.69865 0.98515 0.06848 0.0
C1068 C 0.80896 0.72068 0.3315 0.0
C1069 C 0.7875 0.68614 0.31314 0.0
C1070 C 0.79267 0.74235 0.34239 0.0
C1071 C 0.75398 0.72927 0.33461 0.0
C1072 C 0.73248 0.69512 0.31504 0.0
C1073 C 0.74948 0.67395 0.30456 0.0
C1074 C 0.81665 0.77889 0.36279 0.0
C1075 C 0.69118 0.68037 0.30606 0.0
C1076 C 0.69948 0.76116 0.39405 0.0
C1077 C 0.6982 0.78892 0.37281 0.0
C1078 C 0.71792 0.74186 0.38208 0.0
C1079 C 0.7356 0.75057 0.34805 0.0
C1080 C 0.73514 0.77911 0.32678 0.0
C1081 C 0.71635 0.79783 0.33936 0.0
C1082 C 0.71794 0.71169 0.40563 0.0
C1083 C 0.75375 0.78939 0.29039 0.0
H1084 H 0.83853 0.73069 0.33762 0.0
H1085 H 0.73256 0.64716 0.29073 0.0
H1086 H 0.81622 0.80284 0.34902 0.0
H1087 H 0.80464 0.77661 0.38993 0.0
H1088 H 0.84666 0.78582 0.36558 0.0
H1089 H 0.67883 0.65412 0.28949 0.0
H1090 H 0.67442 0.6741 0.33109 0.0
H1091 H 0.6881 0.70238 0.29139 0.0
H1092 H 0.68519 0.75376 0.41969 0.0
H1093 H 0.71598 0.81959 0.32296 0.0
H1094 H 0.74757 0.71851 0.41085 0.0
H1095 H 0.70321 0.68378 0.39174 0.0
H1096 H 0.70367 0.70892 0.4317 0.0
H1097 H 0.78223 0.79201 0.29116 0.0
H1098 H 0.75693 0.81651 0.28028 0.0
H1099 H 0.73608 0.76648 0.27105 0.0
C1100 C 0.08579 0.79485 0.66548 0.0
C1101 C 0.10121 0.77283 0.6531 0.0
C1102 C 0.04802 0.77777 0.67752 0.0
C1103 C 0.02494 0.73766 0.67708 0.0
C1104 C 0.03998 0.71529 0.66385 0.0
C1105 C 0.07787 0.73311 0.65207 0.0
C1106 C 0.03293 0.80263 0.69107 0.0
C1107 C 0.01626 0.67242 0.66284 0.0
C1108 C 0.93976 0.68801 0.73938 0.0
C1109 C 0.9093 0.67871 0.716 0.0
C1110 C 0.97759 0.70801 0.72729 0.0
C1111 C 0.98519 0.71891 0.69086 0.0
C1112 C 0.95465 0.71056 0.66734 0.0
C1113 C 0.91717 0.69051 0.68015 0.0
C1114 C 0.0094 0.7168 0.75335 0.0
C1115 C 0.96135 0.72156 0.62829 0.0
H1116 H 0.10333 0.82554 0.66587 0.0
H1117 H 0.08951 0.71575 0.64307 0.0
H1118 H 0.00726 0.79689 0.67562 0.0
H1119 H 0.02425 0.79584 0.71948 0.0
H1120 H 0.05428 0.83341 0.68902 0.0
H1121 H 0.03185 0.65915 0.65099 0.0
H1122 H 0.00738 0.66126 0.69038 0.0
H1123 H 0.99 0.66347 0.64702 0.0
H1124 H 0.93399 0.67945 0.76717 0.0
H1125 H 0.89401 0.68304 0.66163 0.0
H1126 H 0.03018 0.74778 0.75353 0.0
H1127 H 0.02489 0.70215 0.74479 0.0
H1128 H 0.99887 0.70773 0.78106 0.0
H1129 H 0.98474 0.75138 0.62515 0.0
H1130 H 0.93547 0.71849 0.61507 0.0
H1131 H 0.96991 0.70306 0.61412 0.0
C1132 C 0.2856 0.0956 0.97993 0.0
C1133 C 0.32099 0.10545 0.96477 0.0
C1134 C 0.26158 0.05902 0.99381 0.0
C1135 C 0.273 0.03143 0.99223 0.0
C1136 C 0.30789 0.04063 0.97572 0.0
C1137 C 0.33142 0.07742 0.96233 0.0
C1138 C 0.22451 0.05024 1.01107 0.0
C1139 C 0.32101 0.01191 0.97324 0.0
C1140 C 0.23748 0.94923 0.05782 0.0
C1141 C 0.21217 0.91831 0.03649 0.0
C1142 C 0.25606 0.98654 0.04434 0.0
C1143 C 0.24926 0.99315 1.00859 0.0
C1144 C 0.22221 0.96246 0.98758 0.0
C1145 C 0.20403 0.92551 1.00176 0.0
C1146 C 0.28431 0.01862 0.06783 0.0
C1147 C 0.21394 0.96821 0.9494 0.0
H1148 H 0.27684 0.11667 0.98152 0.0
H1149 H 0.35872 0.08446 0.95122 0.0
H1150 H 0.20062 0.02408 0.99923 0.0
H1151 H 0.22542 0.04477 0.04004 0.0
H1152 H 0.21852 0.0739 1.00802 0.0
H1153 H 0.34813 0.02302 0.95829 0.0
H1154 H 0.3251 0.00381 1.00054 0.0
H1155 H 0.29903 0.98566 0.95977 0.0
H1156 H 0.24341 0.94419 0.08488 0.0
H1157 H 0.18469 0.90217 0.98487 0.0
H1158 H 0.27903 0.04284 0.06716 0.0
H1159 H 0.3135 0.02912 0.05753 0.0
H1160 H 0.28317 0.00959 0.09608 0.0
H1161 H 0.21006 0.99325 0.9473 0.0
H1162 H 0.18812 0.9429 0.93868 0.0
H1163 H 0.23844 0.97375 0.93223 0.0
C1164 C 0.46196 0.67024 0.39234 0.0
C1165 C 0.47557 0.69023 0.3601 0.0
C1166 C 0.42757 0.6356 0.39351 0.0
C1167 C 0.40642 0.62059 0.36164 0.0
C1168 C 0.42088 0.63969 0.32872 0.0
C1169 C 0.45534 0.67436 0.32835 0.0
C1170 C 0.41314 0.6159 0.42906 0.0
C1171 C 0.39913 0.62438 0.29416 0.0
C1172 C 0.32629 0.51794 0.35818 0.0
C1173 C 0.29432 0.52215 0.36228 0.0
C1174 C 0.36311 0.5497 0.35849 0.0
C1175 C 0.36793 0.5864 0.36307 0.0
C1176 C 0.33581 0.59071 0.36818 0.0
C1177 C 0.29937 0.5585 0.36768 0.0
C1178 C 0.39673 0.54409 0.35293 0.0
C1179 C 0.3399 0.62943 0.37345 0.0
H1180 H 0.47789 0.68212 0.41685 0.0
H1181 H 0.46561 0.68983 0.30342 0.0
H1182 H 0.38688 0.61619 0.4365 0.0
H1183 H 0.40563 0.58569 0.4271 0.0
H1184 H 0.43436 0.62977 0.45085 0.0
H1185 H 0.4157 0.64098 0.27053 0.0
H1186 H 0.39126 0.59424 0.29037 0.0
H1187 H 0.37233 0.62526 0.2953 0.0
H1188 H 0.32245 0.4899 0.35351 0.0
H1189 H 0.2747 0.56175 0.37124 0.0
H1190 H 0.41764 0.5578 0.37492 0.0
H1191 H 0.41134 0.55793 0.32761 0.0
H1192 H 0.38825 0.51353 0.35168 0.0
H1193 H 0.3588 0.64406 0.3966 0.0
H1194 H 0.31212 0.62774 0.37813 0.0
H1195 H 0.35331 0.6473 0.34949 0.0
C1196 C 0.72189 0.42197 0.67738 0.0
C1197 C 0.75627 0.45629 0.68143 0.0
C1198 C 0.721 0.38709 0.67713 0.0
C1199 C 0.75531 0.38657 0.68125 0.0
C1200 C 0.79021 0.42118 0.68486 0.0
C1201 C 0.79029 0.45573 0.68475 0.0
C1202 C 0.6833 0.35079 0.67268 0.0
C1203 C 0.82733 0.42165 0.68945 0.0
C1204 C 0.74653 0.29365 0.7126 0.0
C1205 C 0.74951 0.27798 0.68017 0.0
C1206 C 0.74907 0.32938 0.71349 0.0
C1207 C 0.75458 0.34972 0.68118 0.0
C1208 C 0.7582 0.33431 0.64849 0.0
C1209 C 0.75587 0.29878 0.64842 0.0
C1210 C 0.7453 0.34514 0.74887 0.0
C1211 C 0.76409 0.35514 0.61349 0.0
H1212 H 0.6956 0.42245 0.67455 0.0
H1213 H 0.81683 0.48224 0.68835 0.0
H1214 H 0.6842 0.33492 0.64888 0.0
H1215 H 0.67766 0.33219 0.6963 0.0
H1216 H 0.65927 0.35619 0.66948 0.0
H1217 H 0.85201 0.45099 0.69167 0.0
H1218 H 0.82617 0.40561 0.71388 0.0
H1219 H 0.83206 0.40729 0.66642 0.0
H1220 H 0.7416 0.2777 0.73718 0.0
H1221 H 0.75927 0.28736 0.62338 0.0
H1222 H 0.71979 0.34835 0.74844 0.0
H1223 H 0.77033 0.37381 0.75341 0.0
H1224 H 0.74279 0.32656 0.77174 0.0
H1225 H 0.73975 0.3596 0.60831 0.0
H1226 H 0.76691 0.33943 0.59046 0.0
H1227 H 0.79004 0.38364 0.61497 0.0
C1228 C 0.44785 0.78286 0.02815 0.0
C1229 C 0.46527 0.78375 0.99555 0.0
C1230 C 0.41388 0.78388 0.02894 0.0
C1231 C 0.39715 0.78589 0.99635 0.0
C1232 C 0.41555 0.78851 0.9635 0.0
C1233 C 0.44943 0.78746 0.96351 0.0
C1234 C 0.39507 0.78115 0.0645 0.0
C1235 C 0.3987 0.79094 0.92824 0.0
C1236 C 0.2902 0.743 0.99506 0.0
C1237 C 0.28658 0.7754 0.99787 0.0
C1238 C 0.32608 0.74611 0.99428 0.0
C1239 C 0.35912 0.78253 0.9964 0.0
C1240 C 0.3557 0.81542 0.99857 0.0
C1241 C 0.3194 0.81146 0.99924 0.0
C1242 C 0.32863 0.71039 0.99162 0.0
C1243 C 0.39034 0.85468 1.0009 0.0
H1244 H 0.45994 0.77981 0.05294 0.0
H1245 H 0.46325 0.78889 0.9383 0.0
H1246 H 0.38827 0.80426 0.06709 0.0
H1247 H 0.36784 0.75376 0.06606 0.0
H1248 H 0.41324 0.78287 0.08747 0.0
H1249 H 0.41792 0.79552 0.90532 0.0
H1250 H 0.3714 0.7642 0.92354 0.0
H1251 H 0.39238 0.81448 0.92889 0.0
H1252 H 0.26487 0.71513 0.99363 0.0
H1253 H 0.31669 0.83654 1.00193 0.0
H1254 H 0.34365 0.70798 0.01539 0.0
H1255 H 0.3454 0.71176 0.96769 0.0
H1256 H 0.30019 0.6843 0.9898 0.0
H1257 H 0.4067 0.85704 0.02549 0.0
H1258 H 0.38281 0.87741 1.00138 0.0
H1259 H 0.40937 0.85963 0.97778 0.0
C1260 C 0.57098 0.29633 0.3471 0.0
C1261 C 0.53646 0.29591 0.34362 0.0
C1262 C 0.60571 0.33053 0.3464 0.0
C1263 C 0.6059 0.36515 0.34193 0.0
C1264 C 0.57123 0.36489 0.33716 0.0
C1265 C 0.53678 0.33013 0.33802 0.0
C1266 C 0.64214 0.32966 0.35129 0.0
C1267 C 0.57049 0.40134 0.33217 0.0
C1268 C 0.69309 0.45287 0.37774 0.0
C1269 C 0.71477 0.46754 0.3466 0.0
C1270 C 0.65709 0.41999 0.37647 0.0
C1271 C 0.64251 0.40158 0.34322 0.0
C1272 C 0.66393 0.41674 0.31159 0.0
C1273 C 0.69985 0.44955 0.31367 0.0
C1274 C 0.63506 0.40445 0.41079 0.0
C1275 C 0.64918 0.39794 0.27566 0.0
H1276 H 0.57078 0.26979 0.35083 0.0
H1277 H 0.51009 0.32984 0.33553 0.0
H1278 H 0.66156 0.34394 0.32844 0.0
H1279 H 0.65696 0.34551 0.37589 0.0
H1280 H 0.63705 0.30021 0.35344 0.0
H1281 H 0.54136 0.39607 0.32685 0.0
H1282 H 0.58168 0.4192 0.35656 0.0
H1283 H 0.58919 0.41792 0.3096 0.0
H1284 H 0.70464 0.46668 0.40323 0.0
H1285 H 0.71624 0.46131 0.28942 0.0
H1286 H 0.63124 0.37592 0.41626 0.0
H1287 H 0.60631 0.40094 0.40813 0.0
H1288 H 0.64959 0.42319 0.43411 0.0
H1289 H 0.64566 0.36906 0.27579 0.0
H1290 H 0.66856 0.41443 0.25339 0.0
H1291 H 0.6208 0.39454 0.27035 0.0
C1292 C 0.23022 0.6918 0.69474 0.0
C1293 C 0.26155 0.72564 0.70693 0.0
C1294 C 0.23117 0.65785 0.6941 0.0
C1295 C 0.26399 0.65777 0.70659 0.0
C1296 C 0.29524 0.69167 0.72004 0.0
C1297 C 0.29381 0.72541 0.71965 0.0
C1298 C 0.19757 0.62239 0.67901 0.0
C1299 C 0.33032 0.6924 0.73435 0.0
C1300 C 0.25181 0.56212 0.73165 0.0
C1301 C 0.2673 0.55376 0.70178 0.0
C1302 C 0.25131 0.59623 0.73389 0.0
C1303 C 0.26573 0.62225 0.70515 0.0
C1304 C 0.28112 0.61401 0.67476 0.0
C1305 C 0.28207 0.58001 0.67359 0.0
C1306 C 0.23508 0.60428 0.76691 0.0
C1307 C 0.29625 0.64095 0.64336 0.0
H1308 H 0.20555 0.69227 0.68436 0.0
H1309 H 0.318 0.75173 0.729 0.0
H1310 H 0.20665 0.61236 0.6554 0.0
H1311 H 0.18647 0.59924 0.69913 0.0
H1312 H 0.17409 0.62721 0.67074 0.0
H1313 H 0.35131 0.72066 0.74547 0.0
H1314 H 0.32235 0.67069 0.75564 0.0
H1315 H 0.34419 0.68512 0.71266 0.0
H1316 H 0.2395 0.54173 0.75325 0.0
H1317 H 0.29457 0.57415 0.65063 0.0
H1318 H 0.20966 0.60621 0.75963 0.0
H1319 H 0.25622 0.63209 0.77864 0.0
H1320 H 0.22678 0.58194 0.78767 0.0
H1321 H 0.27358 0.64568 0.63245 0.0
H1322 H 0.30676 0.63006 0.62152 0.0
H1323 H 0.31987 0.66899 0.65221 0.0
C1324 C 0.57114 0.26579 0.9581 0.0
C1325 C 0.56026 0.27553 0.99029 0.0
C1326 C 0.60597 0.26684 0.95506 0.0
C1327 C 0.63013 0.27683 0.98522 0.0
C1328 C 0.6194 0.2865 0.01786 0.0
C1329 C 0.58478 0.28614 0.0199 0.0
C1330 C 0.6167 0.25684 0.91967 0.0
C1331 C 0.64428 0.29674 0.05076 0.0
C1332 C 0.7005 0.24175 0.98889 0.0
C1333 C 0.73478 0.2751 0.98151 0.0
C1334 C 0.66615 0.24189 0.99002 0.0
C1335 C 0.66615 0.27607 0.9829 0.0
C1336 C 0.70057 0.30954 0.97418 0.0
C1337 C 0.73466 0.30877 0.97404 0.0
C1338 C 0.63011 0.20581 1.00004 0.0
C1339 C 0.70146 0.34625 0.9656 0.0
H1340 H 0.55215 0.25667 0.93525 0.0
H1341 H 0.57703 0.29428 0.04471 0.0
H1342 H 0.64511 0.27998 0.91113 0.0
H1343 H 0.6186 0.23071 0.9226 0.0
H1344 H 0.59581 0.25199 0.89821 0.0
H1345 H 0.63167 0.30323 0.07417 0.0
H1346 H 0.64888 0.27287 0.0579 0.0
H1347 H 0.67259 0.32183 0.04522 0.0
H1348 H 0.70082 0.21591 0.99529 0.0
H1349 H 0.76131 0.33452 0.96843 0.0
H1350 H 0.60839 0.19793 0.97875 0.0
H1351 H 0.61818 0.21049 0.02495 0.0
H1352 H 0.63496 0.18154 1.00433 0.0
H1353 H 0.68107 0.34157 0.94373 0.0
H1354 H 0.73021 0.36912 0.95739 0.0
H1355 H 0.69249 0.35614 0.98936 0.0
loop_
_geom_bond_atom_site_label_1
_geom_bond_atom_site_label_2
_geom_bond_distance
_geom_bond_site_symmetry_2
_ccdc_geom_bond_type
C0 C1 1.351 . S
C0 N3 1.368 . S
C0 H5 0.931 . S
C1 C0 1.351 . S
C1 N2 1.373 . S
C1 H29 0.930 . S
N2 C1 1.373 . S
N2 C4 1.340 . S
N3 C0 1.368 . S
N3 C4 1.321 . S
N3 Co6 2.135 . S
C4 N2 1.340 . S
C4 N3 1.321 . S
C4 H28 0.930 . S
H5 C0 0.931 . S
Co6 N3 2.135 . S
Co6 N9 2.121 . S
Co6 O14 2.055 . S
Co6 O17 2.039 . S
Co6 N20 2.140 . S
C7 O8 1.227 . S
C7 O17 1.265 . S
O8 C7 1.227 . S
N9 Co6 2.121 . S
N9 C11 1.375 . S
N9 C12 1.313 . S
C10 C11 1.338 . S
C10 N13 1.377 . S
C10 H30 0.930 . S
C11 N9 1.375 . S
C11 C10 1.338 . S
C11 H15 0.931 . S
C12 N9 1.313 . S
C12 N13 1.344 . S
C12 H16 0.930 . S
N13 C10 1.377 . S
N13 C12 1.344 . S
O14 Co6 2.055 . S
O14 C18 1.253 . S
H15 C11 0.931 . S
H16 C12 0.930 . S
O17 Co6 2.039 . S
O17 C7 1.265 . S
C18 O14 1.253 . S
C18 O19 1.227 . S
O19 C18 1.227 . S
N20 Co6 2.140 . S
N20 C23 1.346 . S
N20 C24 1.345 . S
C21 C22 1.387 . S
C21 C25 1.391 . S
C22 C21 1.387 . S
C22 C23 1.369 . S
C22 H31 0.929 . S
C23 N20 1.346 . S
C23 C22 1.369 . S
C23 H26 0.928 . S
C24 N20 1.345 . S
C24 C25 1.371 . S
C24 H27 0.931 . S
C25 C21 1.391 . S
C25 C24 1.371 . S
C25 H32 0.930 . S
H26 C23 0.928 . S
H27 C24 0.931 . S
H28 C4 0.930 . S
H29 C1 0.930 . S
H30 C10 0.930 . S
H31 C22 0.929 . S
H32 C25 0.930 . S
C33 C34 1.351 . S
C33 N36 1.368 . S
C33 H38 0.931 . S
C34 C33 1.351 . S
C34 N35 1.373 . S
C34 H62 0.930 . S
N35 C34 1.373 . S
N35 C37 1.340 . S
N36 C33 1.368 . S
N36 C37 1.321 . S
N36 Co39 2.135 . S
C37 N35 1.340 . S
C37 N36 1.321 . S
C37 H61 0.930 . S
H38 C33 0.931 . S
Co39 N36 2.135 . S
Co39 N42 2.121 . S
Co39 O47 2.055 . S
Co39 O50 2.039 . S
Co39 N53 2.140 . S
C40 O41 1.227 . S
C40 O50 1.265 . S
O41 C40 1.227 . S
N42 Co39 2.121 . S
N42 C44 1.375 . S
N42 C45 1.313 . S
C43 C44 1.338 . S
C43 N46 1.377 . S
C43 H63 0.930 . S
C44 N42 1.375 . S
C44 C43 1.338 . S
C44 H48 0.931 . S
C45 N42 1.313 . S
C45 N46 1.344 . S
C45 H49 0.930 . S
N46 C43 1.377 . S
N46 C45 1.344 . S
O47 Co39 2.055 . S
O47 C51 1.253 . S
H48 C44 0.931 . S
H49 C45 0.930 . S
O50 Co39 2.039 . S
O50 C40 1.265 . S
C51 O47 1.253 . S
C51 O52 1.227 . S
O52 C51 1.227 . S
N53 Co39 2.140 . S
N53 C56 1.346 . S
N53 C57 1.345 . S
C54 C55 1.387 . S
C54 C58 1.391 . S
C55 C54 1.387 . S
C55 C56 1.369 . S
C55 H64 0.929 . S
C56 N53 1.346 . S
C56 C55 1.369 . S
C56 H59 0.928 . S
C57 N53 1.345 . S
C57 C58 1.371 . S
C57 H60 0.931 . S
C58 C54 1.391 . S
C58 C57 1.371 . S
C58 H65 0.930 . S
H59 C56 0.928 . S
H60 C57 0.931 . S
H61 C37 0.930 . S
H62 C34 0.930 . S
H63 C43 0.930 . S
H64 C55 0.929 . S
H65 C58 0.930 . S
C66 C67 1.351 . S
C66 N69 1.368 . S
C66 H71 0.931 . S
C67 C66 1.351 . S
C67 N68 1.373 . S
C67 H95 0.930 . S
N68 C67 1.373 . S
N68 C70 1.340 1_556 S
N69 C66 1.368 . S
N69 C70 1.321 1_556 S
N69 Co72 2.135 1_556 S
C70 N68 1.340 1_554 S
C70 N69 1.321 1_554 S
C70 H94 0.930 . S
H71 C66 0.931 . S
Co72 N69 2.135 1_554 S
Co72 N75 2.121 . S
Co72 O80 2.055 1_554 S
Co72 O83 2.039 . S
Co72 N86 2.140 1_554 S
C73 O74 1.227 . S
C73 O83 1.265 . S
O74 C73 1.227 . S
N75 Co72 2.121 . S
N75 C77 1.375 . S
N75 C78 1.314 . S
C76 C77 1.338 . S
C76 N79 1.377 . S
C76 H96 0.930 . S
C77 N75 1.375 . S
C77 C76 1.338 . S
C77 H81 0.931 . S
C78 N75 1.314 . S
C78 N79 1.345 . S
C78 H82 0.929 1_554 S
N79 C76 1.377 . S
N79 C78 1.345 . S
O80 Co72 2.055 1_556 S
O80 C84 1.253 . S
H81 C77 0.931 . S
H82 C78 0.929 1_556 S
O83 Co72 2.039 . S
O83 C73 1.265 . S
C84 O80 1.253 . S
C84 O85 1.227 . S
O85 C84 1.227 . S
N86 Co72 2.140 1_556 S
N86 C89 1.346 1_556 S
N86 C90 1.345 . S
C87 C88 1.387 . S
C87 C91 1.391 . S
C88 C87 1.387 . S
C88 C89 1.369 1_556 S
C88 H97 0.929 1_556 S
C89 N86 1.346 1_554 S
C89 C88 1.369 1_554 S
C89 H92 0.928 . S
C90 N86 1.345 . S
C90 C91 1.371 . S
C90 H93 0.931 . S
C91 C87 1.391 . S
C91 C90 1.371 . S
C91 H98 0.930 . S
H92 C89 0.928 . S
H93 C90 0.931 . S
H94 C70 0.930 . S
H95 C67 0.930 . S
H96 C76 0.930 . S
H97 C88 0.929 1_554 S
H98 C91 0.930 . S
C99 C100 1.351 . S
C99 N102 1.368 . S
C99 H104 0.931 . S
C100 C99 1.351 . S
C100 N101 1.373 . S
C100 H128 0.930 . S
N101 C100 1.373 . S
N101 C103 1.340 . S
N102 C99 1.368 . S
N102 C103 1.321 . S
N102 Co105 2.135 . S
C103 N101 1.340 . S
C103 N102 1.321 . S
C103 H127 0.930 . S
H104 C99 0.931 . S
Co105 N102 2.135 . S
Co105 N108 2.121 . S
Co105 O113 2.055 . S
Co105 O116 2.039 . S
Co105 N119 2.140 . S
C106 O107 1.227 . S
C106 O116 1.265 . S
O107 C106 1.227 . S
N108 Co105 2.121 . S
N108 C110 1.375 . S
N108 C111 1.313 . S
C109 C110 1.338 . S
C109 N112 1.377 . S
C109 H129 0.930 . S
C110 N108 1.375 . S
C110 C109 1.338 . S
C110 H114 0.931 . S
C111 N108 1.313 . S
C111 N112 1.344 . S
C111 H115 0.930 . S
N112 C109 1.377 . S
N112 C111 1.344 . S
O113 Co105 2.055 . S
O113 C117 1.253 . S
H114 C110 0.931 . S
H115 C111 0.930 . S
O116 Co105 2.039 . S
O116 C106 1.265 . S
C117 O113 1.253 . S
C117 O118 1.227 . S
O118 C117 1.227 . S
N119 Co105 2.140 . S
N119 C122 1.346 . S
N119 C123 1.345 . S
C120 C121 1.387 . S
C120 C124 1.391 . S
C121 C120 1.387 . S
C121 C122 1.369 . S
C121 H130 0.929 . S
C122 N119 1.346 . S
C122 C121 1.369 . S
C122 H125 0.928 . S
C123 N119 1.345 . S
C123 C124 1.371 . S
C123 H126 0.931 . S
C124 C120 1.391 . S
C124 C123 1.371 . S
C124 H131 0.930 . S
H125 C122 0.928 . S
H126 C123 0.931 . S
H127 C103 0.930 . S
H128 C100 0.930 . S
H129 C109 0.930 . S
H130 C121 0.929 . S
H131 C124 0.930 . S
C132 C133 1.351 . S
C132 N135 1.368 . S
C132 H137 0.931 . S
C133 C132 1.351 . S
C133 N134 1.373 . S
C133 H161 0.930 . S
N134 C133 1.373 . S
N134 C136 1.340 . S
N135 C132 1.368 . S
N135 C136 1.321 . S
N135 Co138 2.135 . S
C136 N134 1.340 . S
C136 N135 1.321 . S
C136 H160 0.930 . S
H137 C132 0.931 . S
Co138 N135 2.135 . S
Co138 N141 2.121 . S
Co138 O146 2.055 . S
Co138 O149 2.039 . S
Co138 N152 2.140 . S
C139 O140 1.227 . S
C139 O149 1.265 . S
O140 C139 1.227 . S
N141 Co138 2.121 . S
N141 C143 1.375 . S
N141 C144 1.313 . S
C142 C143 1.338 . S
C142 N145 1.377 . S
C142 H162 0.930 . S
C143 N141 1.375 . S
C143 C142 1.338 . S
C143 H147 0.931 . S
C144 N141 1.313 . S
C144 N145 1.344 . S
C144 H148 0.930 . S
N145 C142 1.377 . S
N145 C144 1.344 . S
O146 Co138 2.055 . S
O146 C150 1.253 . S
H147 C143 0.931 . S
H148 C144 0.930 . S
O149 Co138 2.039 . S
O149 C139 1.265 . S
C150 O146 1.253 . S
C150 O151 1.227 . S
O151 C150 1.227 . S
N152 Co138 2.140 . S
N152 C155 1.346 . S
N152 C156 1.345 . S
C153 C154 1.387 . S
C153 C157 1.391 . S
C154 C153 1.387 . S
C154 C155 1.369 . S
C154 H163 0.929 . S
C155 N152 1.346 . S
C155 C154 1.369 . S
C155 H158 0.928 . S
C156 N152 1.345 . S
C156 C157 1.371 . S
C156 H159 0.931 . S
C157 C153 1.391 . S
C157 C156 1.371 . S
C157 H164 0.930 . S
H158 C155 0.928 . S
H159 C156 0.931 . S
H160 C136 0.930 . S
H161 C133 0.930 . S
H162 C142 0.930 . S
H163 C154 0.929 . S
H164 C157 0.930 . S
C165 C166 1.351 . S
C165 N168 1.368 . S
C165 H170 0.931 . S
C166 C165 1.351 . S
C166 N167 1.373 . S
C166 H194 0.930 . S
N167 C166 1.373 . S
N167 C169 1.340 1_556 S
N168 C165 1.368 . S
N168 C169 1.321 1_556 S
N168 Co171 2.135 1_556 S
C169 N167 1.340 1_554 S
C169 N168 1.321 1_554 S
C169 H193 0.930 . S
H170 C165 0.931 . S
Co171 N168 2.135 1_554 S
Co171 N174 2.121 . S
Co171 O179 2.055 1_554 S
Co171 O182 2.039 . S
Co171 N185 2.140 1_554 S
C172 O173 1.227 . S
C172 O182 1.265 . S
O173 C172 1.227 . S
N174 Co171 2.121 . S
N174 C176 1.375 . S
N174 C177 1.314 . S
C175 C176 1.338 . S
C175 N178 1.377 . S
C175 H195 0.930 . S
C176 N174 1.375 . S
C176 C175 1.338 . S
C176 H180 0.931 . S
C177 N174 1.314 . S
C177 N178 1.345 . S
C177 H181 0.929 1_554 S
N178 C175 1.377 . S
N178 C177 1.345 . S
O179 Co171 2.055 1_556 S
O179 C183 1.253 . S
H180 C176 0.931 . S
H181 C177 0.929 1_556 S
O182 Co171 2.039 . S
O182 C172 1.265 . S
C183 O179 1.253 . S
C183 O184 1.227 . S
O184 C183 1.227 . S
N185 Co171 2.140 1_556 S
N185 C188 1.346 1_556 S
N185 C189 1.345 . S
C186 C187 1.387 . S
C186 C190 1.391 . S
C187 C186 1.387 . S
C187 C188 1.369 1_556 S
C187 H196 0.929 1_556 S
C188 N185 1.346 1_554 S
C188 C187 1.369 1_554 S
C188 H191 0.928 . S
C189 N185 1.345 . S
C189 C190 1.371 . S
C189 H192 0.931 . S
C190 C186 1.391 . S
C190 C189 1.371 . S
C190 H197 0.930 . S
H191 C188 0.928 . S
H192 C189 0.931 . S
H193 C169 0.930 . S
H194 C166 0.930 . S
H195 C175 0.930 . S
H196 C187 0.929 1_554 S
H197 C190 0.930 . S
C198 C199 1.351 . S
C198 N201 1.368 . S
C198 H203 0.931 . S
C199 C198 1.351 . S
C199 N200 1.373 . S
C199 H227 0.930 . S
N200 C199 1.373 . S
N200 C202 1.340 . S
N201 C198 1.368 . S
N201 C202 1.321 . S
N201 Co204 2.135 . S
C202 N200 1.340 . S
C202 N201 1.321 . S
C202 H226 0.930 . S
H203 C198 0.931 . S
Co204 N201 2.135 . S
Co204 N207 2.121 . S
Co204 O212 2.055 . S
Co204 O215 2.039 . S
Co204 N218 2.140 . S
C205 O206 1.227 . S
C205 O215 1.265 . S
O206 C205 1.227 . S
N207 Co204 2.121 . S
N207 C209 1.375 . S
N207 C210 1.313 . S
C208 C209 1.338 . S
C208 N211 1.377 . S
C208 H228 0.930 . S
C209 N207 1.375 . S
C209 C208 1.338 . S
C209 H213 0.931 . S
C210 N207 1.313 . S
C210 N211 1.344 . S
C210 H214 0.930 . S
N211 C208 1.377 . S
N211 C210 1.344 . S
O212 Co204 2.055 . S
O212 C216 1.253 . S
H213 C209 0.931 . S
H214 C210 0.930 . S
O215 Co204 2.039 . S
O215 C205 1.265 . S
C216 O212 1.253 . S
C216 O217 1.227 . S
O217 C216 1.227 . S
N218 Co204 2.140 . S
N218 C221 1.346 . S
N218 C222 1.345 . S
C219 C220 1.387 . S
C219 C223 1.391 . S
C220 C219 1.387 . S
C220 C221 1.369 . S
C220 H229 0.929 . S
C221 N218 1.346 . S
C221 C220 1.369 . S
C221 H224 0.928 . S
C222 N218 1.345 . S
C222 C223 1.371 . S
C222 H225 0.931 . S
C223 C219 1.391 . S
C223 C222 1.371 . S
C223 H230 0.930 . S
H224 C221 0.928 . S
H225 C222 0.931 . S
H226 C202 0.930 . S
H227 C199 0.930 . S
H228 C208 0.930 . S
H229 C220 0.929 . S
H230 C223 0.930 . S
C231 C232 1.351 . S
C231 N234 1.368 . S
C231 H236 0.931 . S
C232 C231 1.351 . S
C232 N233 1.373 . S
C232 H260 0.930 . S
N233 C232 1.373 . S
N233 C235 1.340 . S
N234 C231 1.368 . S
N234 C235 1.321 . S
N234 Co237 2.135 . S
C235 N233 1.340 . S
C235 N234 1.321 . S
C235 H259 0.930 . S
H236 C231 0.931 . S
Co237 N234 2.135 . S
Co237 N240 2.121 . S
Co237 O245 2.055 . S
Co237 O248 2.039 . S
Co237 N251 2.140 . S
C238 O239 1.227 . S
C238 O248 1.265 . S
O239 C238 1.227 . S
N240 Co237 2.121 . S
N240 C242 1.375 . S
N240 C243 1.313 . S
C241 C242 1.338 . S
C241 N244 1.377 . S
C241 H261 0.930 . S
C242 N240 1.375 . S
C242 C241 1.338 . S
C242 H246 0.931 . S
C243 N240 1.313 . S
C243 N244 1.344 . S
C243 H247 0.930 . S
N244 C241 1.377 . S
N244 C243 1.344 . S
O245 Co237 2.055 . S
O245 C249 1.253 . S
H246 C242 0.931 . S
H247 C243 0.930 . S
O248 Co237 2.039 . S
O248 C238 1.265 . S
C249 O245 1.253 . S
C249 O250 1.227 . S
O250 C249 1.227 . S
N251 Co237 2.140 . S
N251 C254 1.346 . S
N251 C255 1.345 . S
C252 C253 1.387 . S
C252 C256 1.391 . S
C253 C252 1.387 . S
C253 C254 1.369 . S
C253 H262 0.929 . S
C254 N251 1.346 . S
C254 C253 1.369 . S
C254 H257 0.928 . S
C255 N251 1.345 . S
C255 C256 1.371 . S
C255 H258 0.931 . S
C256 C252 1.391 . S
C256 C255 1.371 . S
C256 H263 0.930 . S
H257 C254 0.928 . S
H258 C255 0.931 . S
H259 C235 0.930 . S
H260 C232 0.930 . S
H261 C241 0.930 . S
H262 C253 0.929 . S
H263 C256 0.930 . S
C264 C265 1.351 . S
C264 N267 1.368 . S
C264 H269 0.931 . S
C265 C264 1.351 . S
C265 N266 1.373 . S
C265 H293 0.930 . S
N266 C265 1.373 . S
N266 C268 1.340 1_554 S
N267 C264 1.368 . S
N267 C268 1.321 1_554 S
N267 Co270 2.135 1_554 S
C268 N266 1.340 1_556 S
C268 N267 1.321 1_556 S
C268 H292 0.930 . S
H269 C264 0.931 . S
Co270 N267 2.135 1_556 S
Co270 N273 2.121 . S
Co270 O278 2.055 1_556 S
Co270 O281 2.039 . S
Co270 N284 2.140 1_556 S
C271 O272 1.227 . S
C271 O281 1.265 . S
O272 C271 1.227 . S
N273 Co270 2.121 . S
N273 C275 1.375 . S
N273 C276 1.314 . S
C274 C275 1.338 . S
C274 N277 1.377 . S
C274 H294 0.930 . S
C275 N273 1.375 . S
C275 C274 1.338 . S
C275 H279 0.931 . S
C276 N273 1.314 . S
C276 N277 1.345 . S
C276 H280 0.929 1_556 S
N277 C274 1.377 . S
N277 C276 1.345 . S
O278 Co270 2.055 1_554 S
O278 C282 1.253 . S
H279 C275 0.931 . S
H280 C276 0.929 1_554 S
O281 Co270 2.039 . S
O281 C271 1.265 . S
C282 O278 1.253 . S
C282 O283 1.227 . S
O283 C282 1.227 . S
N284 Co270 2.140 1_554 S
N284 C287 1.346 1_554 S
N284 C288 1.345 . S
C285 C286 1.387 . S
C285 C289 1.391 . S
C286 C285 1.387 . S
C286 C287 1.369 1_554 S
C286 H295 0.929 1_554 S
C287 N284 1.346 1_556 S
C287 C286 1.369 1_556 S
C287 H290 0.928 . S
C288 N284 1.345 . S
C288 C289 1.371 . S
C288 H291 0.931 . S
C289 C285 1.391 . S
C289 C288 1.371 . S
C289 H296 0.930 . S
H290 C287 0.928 . S
H291 C288 0.931 . S
H292 C268 0.930 . S
H293 C265 0.930 . S
H294 C274 0.930 . S
H295 C286 0.929 1_556 S
H296 C289 0.930 . S
C297 C298 1.351 . S
C297 N300 1.368 . S
C297 H302 0.931 . S
C298 C297 1.351 . S
C298 N299 1.373 . S
C298 H326 0.930 . S
N299 C298 1.373 . S
N299 C301 1.340 . S
N300 C297 1.368 . S
N300 C301 1.321 . S
N300 Co303 2.135 . S
C301 N299 1.340 . S
C301 N300 1.321 . S
C301 H325 0.930 . S
H302 C297 0.931 . S
Co303 N300 2.135 . S
Co303 N306 2.121 . S
Co303 O311 2.055 . S
Co303 O314 2.039 . S
Co303 N317 2.140 . S
C304 O305 1.227 . S
C304 O314 1.265 . S
O305 C304 1.227 . S
N306 Co303 2.121 . S
N306 C308 1.375 . S
N306 C309 1.313 . S
C307 C308 1.338 . S
C307 N310 1.377 . S
C307 H327 0.930 . S
C308 N306 1.375 . S
C308 C307 1.338 . S
C308 H312 0.931 . S
C309 N306 1.313 . S
C309 N310 1.344 . S
C309 H313 0.930 . S
N310 C307 1.377 . S
N310 C309 1.344 . S
O311 Co303 2.055 . S
O311 C315 1.253 . S
H312 C308 0.931 . S
H313 C309 0.930 . S
O314 Co303 2.039 . S
O314 C304 1.265 . S
C315 O311 1.253 . S
C315 O316 1.227 . S
O316 C315 1.227 . S
N317 Co303 2.140 . S
N317 C320 1.346 . S
N317 C321 1.345 . S
C318 C319 1.387 . S
C318 C322 1.391 . S
C319 C318 1.387 . S
C319 C320 1.369 . S
C319 H328 0.929 . S
C320 N317 1.346 . S
C320 C319 1.369 . S
C320 H323 0.928 . S
C321 N317 1.345 . S
C321 C322 1.371 . S
C321 H324 0.931 . S
C322 C318 1.391 . S
C322 C321 1.371 . S
C322 H329 0.930 . S
H323 C320 0.928 . S
H324 C321 0.931 . S
H325 C301 0.930 . S
H326 C298 0.930 . S
H327 C307 0.930 . S
H328 C319 0.929 . S
H329 C322 0.930 . S
C330 C331 1.351 . S
C330 N333 1.368 . S
C330 H335 0.931 . S
C331 C330 1.351 . S
C331 N332 1.373 . S
C331 H359 0.930 . S
N332 C331 1.373 . S
N332 C334 1.340 . S
N333 C330 1.368 . S
N333 C334 1.321 . S
N333 Co336 2.135 . S
C334 N332 1.340 . S
C334 N333 1.321 . S
C334 H358 0.930 . S
H335 C330 0.931 . S
Co336 N333 2.135 . S
Co336 N339 2.121 . S
Co336 O344 2.055 . S
Co336 O347 2.039 . S
Co336 N350 2.140 . S
C337 O338 1.227 . S
C337 O347 1.265 . S
O338 C337 1.227 . S
N339 Co336 2.121 . S
N339 C341 1.375 . S
N339 C342 1.313 . S
C340 C341 1.338 . S
C340 N343 1.377 . S
C340 H360 0.930 . S
C341 N339 1.375 . S
C341 C340 1.338 . S
C341 H345 0.931 . S
C342 N339 1.313 . S
C342 N343 1.344 . S
C342 H346 0.930 . S
N343 C340 1.377 . S
N343 C342 1.344 . S
O344 Co336 2.055 . S
O344 C348 1.253 . S
H345 C341 0.931 . S
H346 C342 0.930 . S
O347 Co336 2.039 . S
O347 C337 1.265 . S
C348 O344 1.253 . S
C348 O349 1.227 . S
O349 C348 1.227 . S
N350 Co336 2.140 . S
N350 C353 1.346 . S
N350 C354 1.345 . S
C351 C352 1.387 . S
C351 C355 1.391 . S
C352 C351 1.387 . S
C352 C353 1.369 . S
C352 H361 0.929 . S
C353 N350 1.346 . S
C353 C352 1.369 . S
C353 H356 0.928 . S
C354 N350 1.345 . S
C354 C355 1.371 . S
C354 H357 0.931 . S
C355 C351 1.391 . S
C355 C354 1.371 . S
C355 H362 0.930 . S
H356 C353 0.928 . S
H357 C354 0.931 . S
H358 C334 0.930 . S
H359 C331 0.930 . S
H360 C340 0.930 . S
H361 C352 0.929 . S
H362 C355 0.930 . S
C363 C364 1.351 . S
C363 N366 1.368 . S
C363 H368 0.931 . S
C364 C363 1.351 . S
C364 N365 1.373 . S
C364 H392 0.930 . S
N365 C364 1.373 . S
N365 C367 1.340 1_554 S
N366 C363 1.368 . S
N366 C367 1.321 1_554 S
N366 Co369 2.135 1_554 S
C367 N365 1.340 1_556 S
C367 N366 1.321 1_556 S
C367 H391 0.930 . S
H368 C363 0.931 . S
Co369 N366 2.135 1_556 S
Co369 N372 2.121 . S
Co369 O377 2.055 1_556 S
Co369 O380 2.039 . S
Co369 N383 2.140 1_556 S
C370 O371 1.227 . S
C370 O380 1.265 . S
O371 C370 1.227 . S
N372 Co369 2.121 . S
N372 C374 1.375 . S
N372 C375 1.314 . S
C373 C374 1.338 . S
C373 N376 1.377 . S
C373 H393 0.930 . S
C374 N372 1.375 . S
C374 C373 1.338 . S
C374 H378 0.931 . S
C375 N372 1.314 . S
C375 N376 1.345 . S
C375 H379 0.929 1_556 S
N376 C373 1.377 . S
N376 C375 1.345 . S
O377 Co369 2.055 1_554 S
O377 C381 1.253 . S
H378 C374 0.931 . S
H379 C375 0.929 1_554 S
O380 Co369 2.039 . S
O380 C370 1.265 . S
C381 O377 1.253 . S
C381 O382 1.227 . S
O382 C381 1.227 . S
N383 Co369 2.140 1_554 S
N383 C386 1.346 1_554 S
N383 C387 1.345 . S
C384 C385 1.387 . S
C384 C388 1.391 . S
C385 C384 1.387 . S
C385 C386 1.369 1_554 S
C385 H394 0.929 1_554 S
C386 N383 1.346 1_556 S
C386 C385 1.369 1_556 S
C386 H389 0.928 . S
C387 N383 1.345 . S
C387 C388 1.371 . S
C387 H390 0.931 . S
C388 C384 1.391 . S
C388 C387 1.371 . S
C388 H395 0.930 . S
H389 C386 0.928 . S
H390 C387 0.931 . S
H391 C367 0.930 . S
H392 C364 0.930 . S
H393 C373 0.930 . S
H394 C385 0.929 1_556 S
H395 C388 0.930 . S
C396 C397 1.391 . S
C396 C398 1.394 . S
C396 H412 0.931 . S
C397 C396 1.391 . S
C397 C401 1.376 . S
C398 C396 1.394 . S
C398 C399 1.369 . S
C398 C402 1.531 . S
C399 C398 1.369 . S
C399 C400 1.410 1_655 S
C399 C407 1.503 1_655 S
C400 C399 1.410 1_455 S
C400 C401 1.392 1_455 S
C400 C403 1.511 . S
C401 C397 1.376 . S
C401 C400 1.392 1_655 S
C401 H413 0.929 . S
C402 C398 1.531 . S
C402 H414 0.960 . S
C402 H415 0.962 . S
C402 H416 0.960 . S
C403 C400 1.511 . S
C403 H417 0.961 . S
C403 H418 0.961 . S
C403 H419 0.961 . S
C404 C405 1.370 . S
C404 C406 1.363 . S
C404 H420 0.931 . S
C405 C404 1.370 . S
C405 C409 1.408 . S
C406 C404 1.363 . S
C406 C407 1.370 . S
C406 C410 1.524 . S
C407 C399 1.503 1_455 S
C407 C406 1.370 . S
C407 C408 1.403 . S
C408 C407 1.403 . S
C408 C409 1.404 . S
C408 C411 1.539 . S
C409 C405 1.408 . S
C409 C408 1.404 . S
C409 H421 0.930 . S
C410 C406 1.524 . S
C410 H422 0.956 1_455 S
C410 H423 0.961 . S
C410 H424 0.961 . S
C411 C408 1.539 . S
C411 H425 0.958 1_455 S
C411 H426 0.961 . S
C411 H427 0.960 . S
H412 C396 0.931 . S
H413 C401 0.929 . S
H414 C402 0.960 . S
H415 C402 0.962 . S
H416 C402 0.960 . S
H417 C403 0.961 . S
H418 C403 0.961 . S
H419 C403 0.961 . S
H420 C404 0.931 . S
H421 C409 0.930 . S
H422 C410 0.956 1_655 S
H423 C410 0.961 . S
H424 C410 0.961 . S
H425 C411 0.958 1_655 S
H426 C411 0.961 . S
H427 C411 0.960 . S
C428 C429 1.391 . S
C428 C430 1.394 . S
C428 H444 0.931 . S
C429 C428 1.391 . S
C429 C433 1.376 . S
C430 C428 1.394 . S
C430 C431 1.369 . S
C430 C434 1.531 1_565 S
C431 C430 1.369 . S
C431 C432 1.410 . S
C431 C439 1.503 1_565 S
C432 C431 1.410 . S
C432 C433 1.392 . S
C432 C435 1.511 . S
C433 C429 1.376 . S
C433 C432 1.392 . S
C433 H445 0.929 . S
C434 C430 1.531 1_545 S
C434 H446 0.960 . S
C434 H447 0.962 . S
C434 H448 0.960 . S
C435 C432 1.511 . S
C435 H449 0.961 . S
C435 H450 0.961 . S
C435 H451 0.961 . S
C436 C437 1.370 . S
C436 C438 1.363 . S
C436 H452 0.931 . S
C437 C436 1.370 . S
C437 C441 1.408 . S
C438 C436 1.363 . S
C438 C439 1.370 . S
C438 C442 1.524 1_545 S
C439 C431 1.503 1_545 S
C439 C438 1.370 . S
C439 C440 1.403 . S
C440 C439 1.403 . S
C440 C441 1.404 . S
C440 C443 1.539 . S
C441 C437 1.408 . S
C441 C440 1.404 . S
C441 H453 0.930 . S
C442 C438 1.524 1_565 S
C442 H454 0.956 . S
C442 H455 0.961 . S
C442 H456 0.961 . S
C443 C440 1.539 . S
C443 H457 0.958 . S
C443 H458 0.961 . S
C443 H459 0.960 . S
H444 C428 0.931 . S
H445 C433 0.929 . S
H446 C434 0.960 . S
H447 C434 0.962 . S
H448 C434 0.960 . S
H449 C435 0.961 . S
H450 C435 0.961 . S
H451 C435 0.961 . S
H452 C436 0.931 . S
H453 C441 0.930 . S
H454 C442 0.956 . S
H455 C442 0.961 . S
H456 C442 0.961 . S
H457 C443 0.958 . S
H458 C443 0.961 . S
H459 C443 0.960 . S
C460 C461 1.391 . S
C460 C462 1.394 . S
C460 H476 0.931 . S
C461 C460 1.391 . S
C461 C465 1.376 . S
C462 C460 1.394 . S
C462 C463 1.369 . S
C462 C466 1.531 . S
C463 C462 1.369 . S
C463 C464 1.410 . S
C463 C471 1.503 . S
C464 C463 1.410 . S
C464 C465 1.392 . S
C464 C467 1.511 . S
C465 C461 1.376 . S
C465 C464 1.392 . S
C465 H477 0.929 . S
C466 C462 1.531 . S
C466 H478 0.960 . S
C466 H479 0.962 . S
C466 H480 0.960 . S
C467 C464 1.511 . S
C467 H481 0.961 . S
C467 H482 0.961 . S
C467 H483 0.961 . S
C468 C469 1.370 . S
C468 C470 1.363 . S
C468 H484 0.931 . S
C469 C468 1.370 . S
C469 C473 1.408 . S
C470 C468 1.363 . S
C470 C471 1.370 . S
C470 C474 1.524 . S
C471 C463 1.503 . S
C471 C470 1.370 . S
C471 C472 1.403 . S
C472 C471 1.403 . S
C472 C473 1.404 . S
C472 C475 1.539 . S
C473 C469 1.408 . S
C473 C472 1.404 . S
C473 H485 0.930 . S
C474 C470 1.524 . S
C474 H486 0.956 . S
C474 H487 0.961 . S
C474 H488 0.961 . S
C475 C472 1.539 . S
C475 H489 0.958 . S
C475 H490 0.961 . S
C475 H491 0.960 . S
H476 C460 0.931 . S
H477 C465 0.929 . S
H478 C466 0.960 . S
H479 C466 0.962 . S
H480 C466 0.960 . S
H481 C467 0.961 . S
H482 C467 0.961 . S
H483 C467 0.961 . S
H484 C468 0.931 . S
H485 C473 0.930 . S
H486 C474 0.956 . S
H487 C474 0.961 . S
H488 C474 0.961 . S
H489 C475 0.958 . S
H490 C475 0.961 . S
H491 C475 0.960 . S
C492 C493 1.391 . S
C492 C494 1.394 . S
C492 H508 0.931 . S
C493 C492 1.391 . S
C493 C497 1.376 . S
C494 C492 1.394 . S
C494 C495 1.369 . S
C494 C498 1.531 . S
C495 C494 1.369 . S
C495 C496 1.410 . S
C495 C503 1.503 1_455 S
C496 C495 1.410 . S
C496 C497 1.392 . S
C496 C499 1.511 1_455 S
C497 C493 1.376 . S
C497 C496 1.392 . S
C497 H509 0.929 . S
C498 C494 1.531 . S
C498 H510 0.960 . S
C498 H511 0.962 . S
C498 H512 0.960 . S
C499 C496 1.511 1_655 S
C499 H513 0.961 . S
C499 H514 0.961 . S
C499 H515 0.961 . S
C500 C501 1.370 . S
C500 C502 1.363 . S
C500 H516 0.931 . S
C501 C500 1.370 . S
C501 C505 1.408 . S
C502 C500 1.363 . S
C502 C503 1.370 . S
C502 C506 1.524 1_655 S
C503 C495 1.503 1_655 S
C503 C502 1.370 . S
C503 C504 1.403 . S
C504 C503 1.403 . S
C504 C505 1.404 . S
C504 C507 1.539 . S
C505 C501 1.408 . S
C505 C504 1.404 . S
C505 H517 0.930 . S
C506 C502 1.524 1_455 S
C506 H518 0.956 . S
C506 H519 0.961 . S
C506 H520 0.961 . S
C507 C504 1.539 . S
C507 H521 0.958 . S
C507 H522 0.961 . S
C507 H523 0.960 . S
H508 C492 0.931 . S
H509 C497 0.929 . S
H510 C498 0.960 . S
H511 C498 0.962 . S
H512 C498 0.960 . S
H513 C499 0.961 . S
H514 C499 0.961 . S
H515 C499 0.961 . S
H516 C500 0.931 . S
H517 C505 0.930 . S
H518 C506 0.956 . S
H519 C506 0.961 . S
H520 C506 0.961 . S
H521 C507 0.958 . S
H522 C507 0.961 . S
H523 C507 0.960 . S
C524 C525 1.391 . S
C524 C526 1.394 . S
C524 H540 0.931 . S
C525 C524 1.391 . S
C525 C529 1.376 . S
C526 C524 1.394 . S
C526 C527 1.369 . S
C526 C530 1.531 1_545 S
C527 C526 1.369 . S
C527 C528 1.410 . S
C527 C535 1.503 1_545 S
C528 C527 1.410 . S
C528 C529 1.392 . S
C528 C531 1.511 . S
C529 C525 1.376 . S
C529 C528 1.392 . S
C529 H541 0.929 . S
C530 C526 1.531 1_565 S
C530 H542 0.960 . S
C530 H543 0.962 . S
C530 H544 0.960 1_565 S
C531 C528 1.511 . S
C531 H545 0.961 . S
C531 H546 0.961 . S
C531 H547 0.961 . S
C532 C533 1.370 . S
C532 C534 1.363 . S
C532 H548 0.931 . S
C533 C532 1.370 . S
C533 C537 1.408 . S
C534 C532 1.363 . S
C534 C535 1.370 . S
C534 C538 1.524 . S
C535 C527 1.503 1_565 S
C535 C534 1.370 . S
C535 C536 1.403 1_565 S
C536 C535 1.403 1_545 S
C536 C537 1.404 1_545 S
C536 C539 1.539 . S
C537 C533 1.408 . S
C537 C536 1.404 1_565 S
C537 H549 0.930 . S
C538 C534 1.524 . S
C538 H550 0.956 . S
C538 H551 0.961 . S
C538 H552 0.961 . S
C539 C536 1.539 . S
C539 H553 0.958 . S
C539 H554 0.961 . S
C539 H555 0.960 . S
H540 C524 0.931 . S
H541 C529 0.929 . S
H542 C530 0.960 . S
H543 C530 0.962 . S
H544 C530 0.960 1_545 S
H545 C531 0.961 . S
H546 C531 0.961 . S
H547 C531 0.961 . S
H548 C532 0.931 . S
H549 C537 0.930 . S
H550 C538 0.956 . S
H551 C538 0.961 . S
H552 C538 0.961 . S
H553 C539 0.958 . S
H554 C539 0.961 . S
H555 C539 0.960 . S
C556 C557 1.391 . S
C556 C558 1.394 . S
C556 H572 0.931 . S
C557 C556 1.391 . S
C557 C561 1.376 . S
C558 C556 1.394 . S
C558 C559 1.369 . S
C558 C562 1.531 . S
C559 C558 1.369 . S
C559 C560 1.410 . S
C559 C567 1.503 . S
C560 C559 1.410 . S
C560 C561 1.392 . S
C560 C563 1.511 . S
C561 C557 1.376 . S
C561 C560 1.392 . S
C561 H573 0.929 . S
C562 C558 1.531 . S
C562 H574 0.960 . S
C562 H575 0.962 . S
C562 H576 0.960 . S
C563 C560 1.511 . S
C563 H577 0.961 . S
C563 H578 0.961 . S
C563 H579 0.961 . S
C564 C565 1.370 . S
C564 C566 1.363 . S
C564 H580 0.931 . S
C565 C564 1.370 . S
C565 C569 1.408 . S
C566 C564 1.363 . S
C566 C567 1.370 . S
C566 C570 1.524 . S
C567 C559 1.503 . S
C567 C566 1.370 . S
C567 C568 1.403 . S
C568 C567 1.403 . S
C568 C569 1.404 . S
C568 C571 1.539 . S
C569 C565 1.408 . S
C569 C568 1.404 . S
C569 H581 0.930 . S
C570 C566 1.524 . S
C570 H582 0.956 . S
C570 H583 0.961 . S
C570 H584 0.961 . S
C571 C568 1.539 . S
C571 H585 0.958 . S
C571 H586 0.961 . S
C571 H587 0.960 . S
H572 C556 0.931 . S
H573 C561 0.929 . S
H574 C562 0.960 . S
H575 C562 0.962 . S
H576 C562 0.960 . S
H577 C563 0.961 . S
H578 C563 0.961 . S
H579 C563 0.961 . S
H580 C564 0.931 . S
H581 C569 0.930 . S
H582 C570 0.956 . S
H583 C570 0.961 . S
H584 C570 0.961 . S
H585 C571 0.958 . S
H586 C571 0.961 . S
H587 C571 0.960 . S
C588 C589 1.391 . S
C588 C590 1.394 . S
C588 H604 0.931 . S
C589 C588 1.391 . S
C589 C593 1.376 . S
C590 C588 1.394 . S
C590 C591 1.369 . S
C590 C594 1.531 . S
C591 C590 1.369 . S
C591 C592 1.410 . S
C591 C599 1.503 . S
C592 C591 1.410 . S
C592 C593 1.392 . S
C592 C595 1.511 . S
C593 C589 1.376 . S
C593 C592 1.392 . S
C593 H605 0.929 . S
C594 C590 1.531 . S
C594 H606 0.960 . S
C594 H607 0.962 . S
C594 H608 0.960 . S
C595 C592 1.511 . S
C595 H609 0.961 . S
C595 H610 0.961 . S
C595 H611 0.961 . S
C596 C597 1.370 . S
C596 C598 1.363 . S
C596 H612 0.931 . S
C597 C596 1.370 . S
C597 C601 1.408 . S
C598 C596 1.363 . S
C598 C599 1.370 . S
C598 C602 1.524 . S
C599 C591 1.503 . S
C599 C598 1.370 . S
C599 C600 1.403 . S
C600 C599 1.403 . S
C600 C601 1.404 . S
C600 C603 1.539 . S
C601 C597 1.408 . S
C601 C600 1.404 . S
C601 H613 0.930 . S
C602 C598 1.524 . S
C602 H614 0.956 . S
C602 H615 0.961 . S
C602 H616 0.961 . S
C603 C600 1.539 . S
C603 H617 0.958 . S
C603 H618 0.961 . S
C603 H619 0.960 . S
H604 C588 0.931 . S
H605 C593 0.929 . S
H606 C594 0.960 . S
H607 C594 0.962 . S
H608 C594 0.960 . S
H609 C595 0.961 . S
H610 C595 0.961 . S
H611 C595 0.961 . S
H612 C596 0.931 . S
H613 C601 0.930 . S
H614 C602 0.956 . S
H615 C602 0.961 . S
H616 C602 0.961 . S
H617 C603 0.958 . S
H618 C603 0.961 . S
H619 C603 0.960 . S
C620 C621 1.391 . S
C620 C622 1.394 . S
C620 H636 0.931 . S
C621 C620 1.391 . S
C621 C625 1.376 . S
C622 C620 1.394 . S
C622 C623 1.369 . S
C622 C626 1.531 . S
C623 C622 1.369 . S
C623 C624 1.410 . S
C623 C631 1.503 . S
C624 C623 1.410 . S
C624 C625 1.392 . S
C624 C627 1.511 . S
C625 C621 1.376 . S
C625 C624 1.392 . S
C625 H637 0.929 . S
C626 C622 1.531 . S
C626 H638 0.960 . S
C626 H639 0.962 . S
C626 H640 0.960 . S
C627 C624 1.511 . S
C627 H641 0.961 . S
C627 H642 0.961 . S
C627 H643 0.961 . S
C628 C629 1.370 . S
C628 C630 1.363 . S
C628 H644 0.931 . S
C629 C628 1.370 . S
C629 C633 1.408 . S
C630 C628 1.363 . S
C630 C631 1.370 . S
C630 C634 1.524 . S
C631 C623 1.503 . S
C631 C630 1.370 . S
C631 C632 1.403 . S
C632 C631 1.403 . S
C632 C633 1.404 . S
C632 C635 1.539 . S
C633 C629 1.408 . S
C633 C632 1.404 . S
C633 H645 0.930 . S
C634 C630 1.524 . S
C634 H646 0.956 . S
C634 H647 0.961 . S
C634 H648 0.961 . S
C635 C632 1.539 . S
C635 H649 0.958 . S
C635 H650 0.961 . S
C635 H651 0.960 . S
H636 C620 0.931 . S
H637 C625 0.929 . S
H638 C626 0.960 . S
H639 C626 0.962 . S
H640 C626 0.960 . S
H641 C627 0.961 . S
H642 C627 0.961 . S
H643 C627 0.961 . S
H644 C628 0.931 . S
H645 C633 0.930 . S
H646 C634 0.956 . S
H647 C634 0.961 . S
H648 C634 0.961 . S
H649 C635 0.958 . S
H650 C635 0.961 . S
H651 C635 0.960 . S
C652 C653 1.391 . S
C652 C654 1.394 . S
C652 H668 0.931 . S
C653 C652 1.391 . S
C653 C657 1.376 . S
C654 C652 1.394 . S
C654 C655 1.369 . S
C654 C658 1.531 . S
C655 C654 1.369 . S
C655 C656 1.410 . S
C655 C663 1.503 . S
C656 C655 1.410 . S
C656 C657 1.392 . S
C656 C659 1.511 . S
C657 C653 1.376 . S
C657 C656 1.392 . S
C657 H669 0.929 . S
C658 C654 1.531 . S
C658 H670 0.960 . S
C658 H671 0.962 . S
C658 H672 0.960 . S
C659 C656 1.511 . S
C659 H673 0.961 . S
C659 H674 0.961 . S
C659 H675 0.961 . S
C660 C661 1.370 . S
C660 C662 1.363 . S
C660 H676 0.931 . S
C661 C660 1.370 . S
C661 C665 1.408 . S
C662 C660 1.363 . S
C662 C663 1.370 . S
C662 C666 1.524 . S
C663 C655 1.503 . S
C663 C662 1.370 . S
C663 C664 1.403 . S
C664 C663 1.403 . S
C664 C665 1.404 . S
C664 C667 1.539 . S
C665 C661 1.408 . S
C665 C664 1.404 . S
C665 H677 0.930 . S
C666 C662 1.524 . S
C666 H678 0.956 . S
C666 H679 0.961 . S
C666 H680 0.961 . S
C667 C664 1.539 . S
C667 H681 0.958 . S
C667 H682 0.961 . S
C667 H683 0.960 . S
H668 C652 0.931 . S
H669 C657 0.929 . S
H670 C658 0.960 . S
H671 C658 0.962 . S
H672 C658 0.960 . S
H673 C659 0.961 . S
H674 C659 0.961 . S
H675 C659 0.961 . S
H676 C660 0.931 . S
H677 C665 0.930 . S
H678 C666 0.956 . S
H679 C666 0.961 . S
H680 C666 0.961 . S
H681 C667 0.958 . S
H682 C667 0.961 . S
H683 C667 0.960 . S
C684 C685 1.391 . S
C684 C686 1.394 . S
C684 H700 0.931 . S
C685 C684 1.391 . S
C685 C689 1.376 . S
C686 C684 1.394 . S
C686 C687 1.369 . S
C686 C690 1.531 . S
C687 C686 1.369 . S
C687 C688 1.410 . S
C687 C695 1.503 . S
C688 C687 1.410 . S
C688 C689 1.392 . S
C688 C691 1.511 . S
C689 C685 1.376 . S
C689 C688 1.392 . S
C689 H701 0.929 . S
C690 C686 1.531 . S
C690 H702 0.960 . S
C690 H703 0.962 . S
C690 H704 0.960 . S
C691 C688 1.511 . S
C691 H705 0.961 . S
C691 H706 0.961 . S
C691 H707 0.961 . S
C692 C693 1.370 . S
C692 C694 1.363 . S
C692 H708 0.931 . S
C693 C692 1.370 . S
C693 C697 1.408 . S
C694 C692 1.363 . S
C694 C695 1.370 . S
C694 C698 1.524 . S
C695 C687 1.503 . S
C695 C694 1.370 . S
C695 C696 1.403 . S
C696 C695 1.403 . S
C696 C697 1.404 . S
C696 C699 1.539 . S
C697 C693 1.408 . S
C697 C696 1.404 . S
C697 H709 0.930 . S
C698 C694 1.524 . S
C698 H710 0.956 . S
C698 H711 0.961 . S
C698 H712 0.961 . S
C699 C696 1.539 . S
C699 H713 0.958 . S
C699 H714 0.961 . S
C699 H715 0.960 . S
H700 C684 0.931 . S
H701 C689 0.929 . S
H702 C690 0.960 . S
H703 C690 0.962 . S
H704 C690 0.960 . S
H705 C691 0.961 . S
H706 C691 0.961 . S
H707 C691 0.961 . S
H708 C692 0.931 . S
H709 C697 0.930 . S
H710 C698 0.956 . S
H711 C698 0.961 . S
H712 C698 0.961 . S
H713 C699 0.958 . S
H714 C699 0.961 . S
H715 C699 0.960 . S
C716 C717 1.391 . S
C716 C718 1.394 . S
C716 H732 0.931 . S
C717 C716 1.391 . S
C717 C721 1.376 . S
C718 C716 1.394 . S
C718 C719 1.369 . S
C718 C722 1.531 . S
C719 C718 1.369 . S
C719 C720 1.410 . S
C719 C727 1.503 . S
C720 C719 1.410 . S
C720 C721 1.392 . S
C720 C723 1.511 . S
C721 C717 1.376 . S
C721 C720 1.392 . S
C721 H733 0.929 . S
C722 C718 1.531 . S
C722 H734 0.960 . S
C722 H735 0.962 . S
C722 H736 0.960 . S
C723 C720 1.511 . S
C723 H737 0.961 . S
C723 H738 0.961 . S
C723 H739 0.961 . S
C724 C725 1.370 . S
C724 C726 1.363 . S
C724 H740 0.931 . S
C725 C724 1.370 . S
C725 C729 1.408 . S
C726 C724 1.363 . S
C726 C727 1.370 . S
C726 C730 1.524 . S
C727 C719 1.503 . S
C727 C726 1.370 . S
C727 C728 1.403 . S
C728 C727 1.403 . S
C728 C729 1.404 . S
C728 C731 1.539 . S
C729 C725 1.408 . S
C729 C728 1.404 . S
C729 H741 0.930 . S
C730 C726 1.524 . S
C730 H742 0.956 . S
C730 H743 0.961 . S
C730 H744 0.961 . S
C731 C728 1.539 . S
C731 H745 0.958 . S
C731 H746 0.961 . S
C731 H747 0.960 . S
H732 C716 0.931 . S
H733 C721 0.929 . S
H734 C722 0.960 . S
H735 C722 0.962 . S
H736 C722 0.960 . S
H737 C723 0.961 . S
H738 C723 0.961 . S
H739 C723 0.961 . S
H740 C724 0.931 . S
H741 C729 0.930 . S
H742 C730 0.956 . S
H743 C730 0.961 . S
H744 C730 0.961 . S
H745 C731 0.958 . S
H746 C731 0.961 . S
H747 C731 0.960 . S
C748 C749 1.391 . S
C748 C750 1.394 . S
C748 H764 0.931 . S
C749 C748 1.391 . S
C749 C753 1.376 . S
C750 C748 1.394 . S
C750 C751 1.369 . S
C750 C754 1.531 . S
C751 C750 1.369 . S
C751 C752 1.410 . S
C751 C759 1.503 . S
C752 C751 1.410 . S
C752 C753 1.392 . S
C752 C755 1.511 . S
C753 C749 1.376 . S
C753 C752 1.392 . S
C753 H765 0.929 . S
C754 C750 1.531 . S
C754 H766 0.960 . S
C754 H767 0.962 . S
C754 H768 0.960 . S
C755 C752 1.511 . S
C755 H769 0.961 . S
C755 H770 0.961 . S
C755 H771 0.961 . S
C756 C757 1.370 . S
C756 C758 1.363 . S
C756 H772 0.931 . S
C757 C756 1.370 . S
C757 C761 1.408 . S
C758 C756 1.363 . S
C758 C759 1.370 . S
C758 C762 1.524 . S
C759 C751 1.503 . S
C759 C758 1.370 . S
C759 C760 1.403 . S
C760 C759 1.403 . S
C760 C761 1.404 . S
C760 C763 1.539 . S
C761 C757 1.408 . S
C761 C760 1.404 . S
C761 H773 0.930 . S
C762 C758 1.524 . S
C762 H774 0.956 . S
C762 H775 0.961 . S
C762 H776 0.961 . S
C763 C760 1.539 . S
C763 H777 0.958 . S
C763 H778 0.961 . S
C763 H779 0.960 . S
H764 C748 0.931 . S
H765 C753 0.929 . S
H766 C754 0.960 . S
H767 C754 0.962 . S
H768 C754 0.960 . S
H769 C755 0.961 . S
H770 C755 0.961 . S
H771 C755 0.961 . S
H772 C756 0.931 . S
H773 C761 0.930 . S
H774 C762 0.956 . S
H775 C762 0.961 . S
H776 C762 0.961 . S
H777 C763 0.958 . S
H778 C763 0.961 . S
H779 C763 0.960 . S
C780 C781 1.391 . S
C780 C782 1.367 1_655 S
C780 H796 0.931 . S
C781 C780 1.391 . S
C781 C785 1.376 . S
C782 C780 1.367 1_455 S
C782 C783 1.371 1_455 S
C782 C786 1.555 . S
C783 C782 1.371 1_655 S
C783 C784 1.410 . S
C783 C791 1.503 1_655 S
C784 C783 1.410 . S
C784 C785 1.392 . S
C784 C787 1.511 . S
C785 C781 1.376 . S
C785 C784 1.392 . S
C785 H797 0.929 . S
C786 C782 1.555 . S
C786 H798 0.960 . S
C786 H799 0.962 . S
C786 H800 0.960 . S
C787 C784 1.511 . S
C787 H801 0.961 . S
C787 H802 0.961 . S
C787 H803 0.961 . S
C788 C789 1.370 . S
C788 C790 1.363 . S
C788 H804 0.931 . S
C789 C788 1.370 . S
C789 C793 1.408 . S
C790 C788 1.363 . S
C790 C791 1.370 . S
C790 C794 1.524 . S
C791 C783 1.503 1_455 S
C791 C790 1.370 . S
C791 C792 1.403 . S
C792 C791 1.403 . S
C792 C793 1.404 . S
C792 C795 1.539 1_455 S
C793 C789 1.408 . S
C793 C792 1.404 . S
C793 H805 0.930 . S
C794 C790 1.524 . S
C794 H806 0.956 . S
C794 H807 0.961 . S
C794 H808 0.961 . S
C795 C792 1.539 1_655 S
C795 H809 0.958 . S
C795 H810 0.961 . S
C795 H811 0.960 . S
H796 C780 0.931 . S
H797 C785 0.929 . S
H798 C786 0.960 . S
H799 C786 0.962 . S
H800 C786 0.960 . S
H801 C787 0.961 . S
H802 C787 0.961 . S
H803 C787 0.961 . S
H804 C788 0.931 . S
H805 C793 0.930 . S
H806 C794 0.956 . S
H807 C794 0.961 . S
H808 C794 0.961 . S
H809 C795 0.958 . S
H810 C795 0.961 . S
H811 C795 0.960 . S
C812 C813 1.391 . S
C812 C814 1.394 . S
C812 H828 0.931 . S
C813 C812 1.391 . S
C813 C817 1.376 . S
C814 C812 1.394 . S
C814 C815 1.369 . S
C814 C818 1.531 . S
C815 C814 1.369 . S
C815 C816 1.410 . S
C815 C823 1.503 1_545 S
C816 C815 1.410 . S
C816 C817 1.392 . S
C816 C819 1.511 1_545 S
C817 C813 1.376 . S
C817 C816 1.392 . S
C817 H829 0.929 . S
C818 C814 1.531 . S
C818 H830 0.960 . S
C818 H831 0.962 . S
C818 H832 0.960 . S
C819 C816 1.511 1_565 S
C819 H833 0.961 . S
C819 H834 0.961 . S
C819 H835 0.961 . S
C820 C821 1.370 . S
C820 C822 1.363 . S
C820 H836 0.931 . S
C821 C820 1.370 . S
C821 C825 1.408 . S
C822 C820 1.363 . S
C822 C823 1.370 . S
C822 C826 1.524 . S
C823 C815 1.503 1_565 S
C823 C822 1.370 . S
C823 C824 1.403 . S
C824 C823 1.403 . S
C824 C825 1.404 . S
C824 C827 1.539 1_565 S
C825 C821 1.408 . S
C825 C824 1.404 . S
C825 H837 0.930 . S
C826 C822 1.524 . S
C826 H838 0.956 . S
C826 H839 0.961 . S
C826 H840 0.961 . S
C827 C824 1.539 1_545 S
C827 H841 0.958 . S
C827 H842 0.961 . S
C827 H843 0.960 . S
H828 C812 0.931 . S
H829 C817 0.929 . S
H830 C818 0.960 . S
H831 C818 0.962 . S
H832 C818 0.960 . S
H833 C819 0.961 . S
H834 C819 0.961 . S
H835 C819 0.961 . S
H836 C820 0.931 . S
H837 C825 0.930 . S
H838 C826 0.956 . S
H839 C826 0.961 . S
H840 C826 0.961 . S
H841 C827 0.958 . S
H842 C827 0.961 . S
H843 C827 0.960 . S
C844 C845 1.391 1_556 S
C844 C846 1.394 . S
C844 H860 0.931 . S
C845 C844 1.391 1_554 S
C845 C849 1.376 . S
C846 C844 1.394 . S
C846 C847 1.369 1_556 S
C846 C850 1.531 . S
C847 C846 1.369 1_554 S
C847 C848 1.410 . S
C847 C855 1.503 . S
C848 C847 1.410 . S
C848 C849 1.392 . S
C848 C851 1.511 . S
C849 C845 1.376 . S
C849 C848 1.392 . S
C849 H861 0.929 . S
C850 C846 1.531 . S
C850 H862 0.960 . S
C850 H863 0.962 . S
C850 H864 0.960 . S
C851 C848 1.511 . S
C851 H865 0.961 . S
C851 H866 0.961 . S
C851 H867 0.961 . S
C852 C853 1.370 . S
C852 C854 1.363 . S
C852 H868 0.931 . S
C853 C852 1.370 . S
C853 C857 1.408 1_554 S
C854 C852 1.363 . S
C854 C855 1.370 . S
C854 C858 1.524 . S
C855 C847 1.503 . S
C855 C854 1.370 . S
C855 C856 1.403 1_554 S
C856 C855 1.403 1_556 S
C856 C857 1.404 . S
C856 C859 1.539 . S
C857 C853 1.408 1_556 S
C857 C856 1.404 . S
C857 H869 0.930 . S
C858 C854 1.524 . S
C858 H870 0.956 . S
C858 H871 0.961 . S
C858 H872 0.961 . S
C859 C856 1.539 . S
C859 H873 0.958 . S
C859 H874 0.961 . S
C859 H875 0.960 . S
H860 C844 0.931 . S
H861 C849 0.929 . S
H862 C850 0.960 . S
H863 C850 0.962 . S
H864 C850 0.960 . S
H865 C851 0.961 . S
H866 C851 0.961 . S
H867 C851 0.961 . S
H868 C852 0.931 . S
H869 C857 0.930 . S
H870 C858 0.956 . S
H871 C858 0.961 . S
H872 C858 0.961 . S
H873 C859 0.958 . S
H874 C859 0.961 . S
H875 C859 0.960 . S
C876 C877 1.391 . S
C876 C878 1.394 . S
C876 H892 0.931 . S
C877 C876 1.391 . S
C877 C881 1.376 . S
C878 C876 1.394 . S
C878 C879 1.369 . S
C878 C882 1.531 . S
C879 C878 1.369 . S
C879 C880 1.410 1_565 S
C879 C887 1.503 1_565 S
C880 C879 1.410 1_545 S
C880 C881 1.392 1_545 S
C880 C883 1.511 . S
C881 C877 1.376 . S
C881 C880 1.392 1_565 S
C881 H893 0.929 . S
C882 C878 1.531 . S
C882 H894 0.960 . S
C882 H895 0.962 . S
C882 H896 0.960 . S
C883 C880 1.511 . S
C883 H897 0.961 . S
C883 H898 0.961 . S
C883 H899 0.961 . S
C884 C885 1.370 . S
C884 C886 1.363 . S
C884 H900 0.931 . S
C885 C884 1.370 . S
C885 C889 1.408 . S
C886 C884 1.363 . S
C886 C887 1.370 . S
C886 C890 1.524 . S
C887 C879 1.503 1_545 S
C887 C886 1.370 . S
C887 C888 1.403 . S
C888 C887 1.403 . S
C888 C889 1.404 . S
C888 C891 1.539 . S
C889 C885 1.408 . S
C889 C888 1.404 . S
C889 H901 0.930 . S
C890 C886 1.524 . S
C890 H902 0.956 1_545 S
C890 H903 0.961 . S
C890 H904 0.961 . S
C891 C888 1.539 . S
C891 H905 0.958 1_545 S
C891 H906 0.961 . S
C891 H907 0.967 . S
H892 C876 0.931 . S
H893 C881 0.929 . S
H894 C882 0.960 . S
H895 C882 0.962 . S
H896 C882 0.960 . S
H897 C883 0.961 . S
H898 C883 0.961 . S
H899 C883 0.961 . S
H900 C884 0.931 . S
H901 C889 0.930 . S
H902 C890 0.956 1_565 S
H903 C890 0.961 . S
H904 C890 0.961 . S
H905 C891 0.958 1_565 S
H906 C891 0.961 . S
H907 C891 0.967 . S
C908 C909 1.391 . S
C908 C910 1.394 . S
C908 H924 0.931 . S
C909 C908 1.391 . S
C909 C913 1.376 . S
C910 C908 1.394 . S
C910 C911 1.369 . S
C910 C914 1.531 . S
C911 C910 1.369 . S
C911 C912 1.410 . S
C911 C919 1.503 . S
C912 C911 1.410 . S
C912 C913 1.392 . S
C912 C915 1.511 . S
C913 C909 1.376 . S
C913 C912 1.392 . S
C913 H925 0.929 . S
C914 C910 1.531 . S
C914 H926 0.960 . S
C914 H927 0.962 . S
C914 H928 0.960 . S
C915 C912 1.511 . S
C915 H929 0.961 . S
C915 H930 0.961 . S
C915 H931 0.961 . S
C916 C917 1.370 . S
C916 C918 1.363 . S
C916 H932 0.931 . S
C917 C916 1.370 . S
C917 C921 1.408 . S
C918 C916 1.363 . S
C918 C919 1.370 . S
C918 C922 1.524 . S
C919 C911 1.503 . S
C919 C918 1.370 . S
C919 C920 1.403 . S
C920 C919 1.403 . S
C920 C921 1.404 . S
C920 C923 1.539 . S
C921 C917 1.408 . S
C921 C920 1.404 . S
C921 H933 0.930 . S
C922 C918 1.524 . S
C922 H934 0.956 . S
C922 H935 0.961 . S
C922 H936 0.961 . S
C923 C920 1.539 . S
C923 H937 0.958 . S
C923 H938 0.961 . S
C923 H939 0.960 . S
H924 C908 0.931 . S
H925 C913 0.929 . S
H926 C914 0.960 . S
H927 C914 0.962 . S
H928 C914 0.960 . S
H929 C915 0.961 . S
H930 C915 0.961 . S
H931 C915 0.961 . S
H932 C916 0.931 . S
H933 C921 0.930 . S
H934 C922 0.956 . S
H935 C922 0.961 . S
H936 C922 0.961 . S
H937 C923 0.958 . S
H938 C923 0.961 . S
H939 C923 0.960 . S
C940 C941 1.391 1_554 S
C940 C942 1.394 . S
C940 H956 0.931 . S
C941 C940 1.391 1_556 S
C941 C945 1.376 . S
C942 C940 1.394 . S
C942 C943 1.369 1_554 S
C942 C946 1.531 . S
C943 C942 1.369 1_556 S
C943 C944 1.410 1_655 S
C943 C951 1.503 1_655 S
C944 C943 1.410 1_455 S
C944 C945 1.392 1_455 S
C944 C947 1.511 . S
C945 C941 1.376 . S
C945 C944 1.392 1_655 S
C945 H957 0.929 . S
C946 C942 1.531 . S
C946 H958 0.960 . S
C946 H959 0.962 1_554 S
C946 H960 0.960 . S
C947 C944 1.511 . S
C947 H961 0.961 . S
C947 H962 0.961 . S
C947 H963 0.956 1_556 S
C948 C949 1.370 . S
C948 C950 1.363 . S
C948 H964 0.931 . S
C949 C948 1.370 . S
C949 C953 1.408 1_556 S
C950 C948 1.363 . S
C950 C951 1.370 . S
C950 C954 1.524 1_455 S
C951 C943 1.503 1_455 S
C951 C950 1.370 . S
C951 C952 1.403 1_556 S
C952 C951 1.403 1_554 S
C952 C953 1.404 . S
C952 C955 1.539 . S
C953 C949 1.408 1_554 S
C953 C952 1.404 . S
C953 H965 0.930 . S
C954 C950 1.524 1_655 S
C954 H966 0.956 . S
C954 H967 0.973 . S
C954 H968 0.961 . S
C955 C952 1.539 . S
C955 H969 0.958 . S
C955 H970 0.961 . S
C955 H971 0.960 . S
H956 C940 0.931 . S
H957 C945 0.929 . S
H958 C946 0.960 . S
H959 C946 0.962 1_556 S
H960 C946 0.960 . S
H961 C947 0.961 . S
H962 C947 0.961 . S
H963 C947 0.956 1_554 S
H964 C948 0.931 . S
H965 C953 0.930 . S
H966 C954 0.956 . S
H967 C954 0.973 . S
H968 C954 0.961 . S
H969 C955 0.958 . S
H970 C955 0.961 . S
H971 C955 0.960 . S
C972 C973 1.391 . S
C972 C974 1.394 . S
C972 H988 0.931 . S
C973 C972 1.391 . S
C973 C977 1.376 . S
C974 C972 1.394 . S
C974 C975 1.369 . S
C974 C978 1.531 . S
C975 C974 1.369 . S
C975 C976 1.410 . S
C975 C983 1.503 . S
C976 C975 1.410 . S
C976 C977 1.392 . S
C976 C979 1.511 . S
C977 C973 1.376 . S
C977 C976 1.392 . S
C977 H989 0.929 . S
C978 C974 1.531 . S
C978 H990 0.960 . S
C978 H991 0.962 . S
C978 H992 0.960 . S
C979 C976 1.511 . S
C979 H993 0.961 . S
C979 H994 0.961 . S
C979 H995 0.961 . S
C980 C981 1.370 . S
C980 C982 1.363 . S
C980 H996 0.931 . S
C981 C980 1.370 . S
C981 C985 1.408 . S
C982 C980 1.363 . S
C982 C983 1.370 . S
C982 C986 1.524 . S
C983 C975 1.503 . S
C983 C982 1.370 . S
C983 C984 1.403 . S
C984 C983 1.403 . S
C984 C985 1.404 . S
C984 C987 1.539 . S
C985 C981 1.408 . S
C985 C984 1.404 . S
C985 H997 0.930 . S
C986 C982 1.524 . S
C986 H998 0.956 . S
C986 H999 0.961 . S
C986 H1000 0.961 . S
C987 C984 1.539 . S
C987 H1001 0.958 . S
C987 H1002 0.961 . S
C987 H1003 0.960 . S
H988 C972 0.931 . S
H989 C977 0.929 . S
H990 C978 0.960 . S
H991 C978 0.962 . S
H992 C978 0.960 . S
H993 C979 0.961 . S
H994 C979 0.961 . S
H995 C979 0.961 . S
H996 C980 0.931 . S
H997 C985 0.930 . S
H998 C986 0.956 . S
H999 C986 0.961 . S
H1000 C986 0.961 . S
H1001 C987 0.958 . S
H1002 C987 0.961 . S
H1003 C987 0.960 . S
C1004 C1005 1.391 . S
C1004 C1006 1.394 . S
C1004 H1020 0.931 . S
C1005 C1004 1.391 . S
C1005 C1009 1.376 . S
C1006 C1004 1.394 . S
C1006 C1007 1.369 . S
C1006 C1010 1.531 . S
C1007 C1006 1.369 . S
C1007 C1008 1.410 . S
C1007 C1015 1.503 1_655 S
C1008 C1007 1.410 . S
C1008 C1009 1.392 . S
C1008 C1011 1.511 . S
C1009 C1005 1.376 . S
C1009 C1008 1.392 . S
C1009 H1021 0.929 . S
C1010 C1006 1.531 . S
C1010 H1022 0.960 1_655 S
C1010 H1023 0.962 . S
C1010 H1024 0.960 . S
C1011 C1008 1.511 . S
C1011 H1025 0.961 . S
C1011 H1026 0.961 1_655 S
C1011 H1027 0.961 . S
C1012 C1013 1.370 . S
C1012 C1014 1.363 . S
C1012 H1028 0.931 . S
C1013 C1012 1.370 . S
C1013 C1017 1.408 . S
C1014 C1012 1.363 . S
C1014 C1015 1.370 . S
C1014 C1018 1.524 . S
C1015 C1007 1.503 1_455 S
C1015 C1014 1.370 . S
C1015 C1016 1.403 . S
C1016 C1015 1.403 . S
C1016 C1017 1.404 . S
C1016 C1019 1.539 . S
C1017 C1013 1.408 . S
C1017 C1016 1.404 . S
C1017 H1029 0.930 . S
C1018 C1014 1.524 . S
C1018 H1030 0.956 . S
C1018 H1031 0.961 1_455 S
C1018 H1032 0.961 . S
C1019 C1016 1.539 . S
C1019 H1033 0.958 . S
C1019 H1034 0.961 . S
C1019 H1035 0.959 1_455 S
H1020 C1004 0.931 . S
H1021 C1009 0.929 . S
H1022 C1010 0.960 1_455 S
H1023 C1010 0.962 . S
H1024 C1010 0.960 . S
H1025 C1011 0.961 . S
H1026 C1011 0.961 1_455 S
H1027 C1011 0.961 . S
H1028 C1012 0.931 . S
H1029 C1017 0.930 . S
H1030 C1018 0.956 . S
H1031 C1018 0.961 1_655 S
H1032 C1018 0.961 . S
H1033 C1019 0.958 . S
H1034 C1019 0.961 . S
H1035 C1019 0.959 1_655 S
C1036 C1037 1.391 . S
C1036 C1038 1.394 . S
C1036 H1052 0.931 . S
C1037 C1036 1.391 . S
C1037 C1041 1.376 1_554 S
C1038 C1036 1.394 . S
C1038 C1039 1.369 . S
C1038 C1042 1.531 . S
C1039 C1038 1.369 . S
C1039 C1040 1.410 1_554 S
C1039 C1047 1.503 1_545 S
C1040 C1039 1.410 1_556 S
C1040 C1041 1.392 . S
C1040 C1043 1.511 . S
C1041 C1037 1.376 1_556 S
C1041 C1040 1.392 . S
C1041 H1053 0.929 . S
C1042 C1038 1.531 . S
C1042 H1054 0.960 1_545 S
C1042 H1055 0.962 . S
C1042 H1056 0.960 . S
C1043 C1040 1.511 . S
C1043 H1057 0.961 . S
C1043 H1058 0.961 1_545 S
C1043 H1059 0.958 . S
C1044 C1045 1.370 . S
C1044 C1046 1.363 . S
C1044 H1060 0.931 . S
C1045 C1044 1.370 . S
C1045 C1049 1.408 1_556 S
C1046 C1044 1.363 . S
C1046 C1047 1.370 1_556 S
C1046 C1050 1.524 . S
C1047 C1039 1.503 1_565 S
C1047 C1046 1.370 1_554 S
C1047 C1048 1.403 . S
C1048 C1047 1.403 . S
C1048 C1049 1.404 . S
C1048 C1051 1.539 . S
C1049 C1045 1.408 1_554 S
C1049 C1048 1.404 . S
C1049 H1061 0.930 . S
C1050 C1046 1.524 . S
C1050 H1062 0.956 1_565 S
C1050 H1063 0.961 1_565 S
C1050 H1064 0.961 . S
C1051 C1048 1.539 . S
C1051 H1065 0.958 . S
C1051 H1066 0.961 . S
C1051 H1067 0.960 . S
H1052 C1036 0.931 . S
H1053 C1041 0.929 . S
H1054 C1042 0.960 1_565 S
H1055 C1042 0.962 . S
H1056 C1042 0.960 . S
H1057 C1043 0.961 . S
H1058 C1043 0.961 1_565 S
H1059 C1043 0.958 . S
H1060 C1044 0.931 . S
H1061 C1049 0.930 . S
H1062 C1050 0.956 1_545 S
H1063 C1050 0.961 1_545 S
H1064 C1050 0.961 . S
H1065 C1051 0.958 . S
H1066 C1051 0.961 . S
H1067 C1051 0.960 . S
C1068 C1069 1.391 . S
C1068 C1070 1.394 . S
C1068 H1084 0.931 . S
C1069 C1068 1.391 . S
C1069 C1073 1.376 . S
C1070 C1068 1.394 . S
C1070 C1071 1.369 . S
C1070 C1074 1.531 . S
C1071 C1070 1.369 . S
C1071 C1072 1.410 . S
C1071 C1079 1.503 . S
C1072 C1071 1.410 . S
C1072 C1073 1.392 . S
C1072 C1075 1.511 . S
C1073 C1069 1.376 . S
C1073 C1072 1.392 . S
C1073 H1085 0.929 . S
C1074 C1070 1.531 . S
C1074 H1086 0.960 . S
C1074 H1087 0.962 . S
C1074 H1088 0.960 . S
C1075 C1072 1.511 . S
C1075 H1089 0.961 . S
C1075 H1090 0.961 . S
C1075 H1091 0.961 . S
C1076 C1077 1.370 . S
C1076 C1078 1.363 . S
C1076 H1092 0.931 . S
C1077 C1076 1.370 . S
C1077 C1081 1.408 . S
C1078 C1076 1.363 . S
C1078 C1079 1.370 . S
C1078 C1082 1.524 . S
C1079 C1071 1.503 . S
C1079 C1078 1.370 . S
C1079 C1080 1.403 . S
C1080 C1079 1.403 . S
C1080 C1081 1.404 . S
C1080 C1083 1.539 . S
C1081 C1077 1.408 . S
C1081 C1080 1.404 . S
C1081 H1093 0.930 . S
C1082 C1078 1.524 . S
C1082 H1094 0.956 . S
C1082 H1095 0.961 . S
C1082 H1096 0.961 . S
C1083 C1080 1.539 . S
C1083 H1097 0.958 . S
C1083 H1098 0.961 . S
C1083 H1099 0.960 . S
H1084 C1068 0.931 . S
H1085 C1073 0.929 . S
H1086 C1074 0.960 . S
H1087 C1074 0.962 . S
H1088 C1074 0.960 . S
H1089 C1075 0.961 . S
H1090 C1075 0.961 . S
H1091 C1075 0.961 . S
H1092 C1076 0.931 . S
H1093 C1081 0.930 . S
H1094 C1082 0.956 . S
H1095 C1082 0.961 . S
H1096 C1082 0.961 . S
H1097 C1083 0.958 . S
H1098 C1083 0.961 . S
H1099 C1083 0.960 . S
C1100 C1101 1.391 . S
C1100 C1102 1.394 . S
C1100 H1116 0.931 . S
C1101 C1100 1.391 . S
C1101 C1105 1.376 . S
C1102 C1100 1.394 . S
C1102 C1103 1.369 . S
C1102 C1106 1.531 . S
C1103 C1102 1.369 . S
C1103 C1104 1.410 . S
C1103 C1111 1.503 1_455 S
C1104 C1103 1.410 . S
C1104 C1105 1.392 . S
C1104 C1107 1.511 . S
C1105 C1101 1.376 . S
C1105 C1104 1.392 . S
C1105 H1117 0.929 . S
C1106 C1102 1.531 . S
C1106 H1118 0.960 1_455 S
C1106 H1119 0.962 . S
C1106 H1120 0.960 . S
C1107 C1104 1.511 . S
C1107 H1121 0.961 . S
C1107 H1122 0.961 1_455 S
C1107 H1123 0.961 . S
C1108 C1109 1.370 . S
C1108 C1110 1.363 . S
C1108 H1124 0.931 . S
C1109 C1108 1.370 . S
C1109 C1113 1.408 . S
C1110 C1108 1.363 . S
C1110 C1111 1.370 . S
C1110 C1114 1.524 . S
C1111 C1103 1.503 1_655 S
C1111 C1110 1.370 . S
C1111 C1112 1.403 . S
C1112 C1111 1.403 . S
C1112 C1113 1.404 . S
C1112 C1115 1.539 . S
C1113 C1109 1.408 . S
C1113 C1112 1.404 . S
C1113 H1125 0.930 . S
C1114 C1110 1.524 . S
C1114 H1126 0.956 . S
C1114 H1127 0.961 1_655 S
C1114 H1128 0.961 . S
C1115 C1112 1.539 . S
C1115 H1129 0.958 . S
C1115 H1130 0.961 . S
C1115 H1131 0.960 . S
H1116 C1100 0.931 . S
H1117 C1105 0.929 . S
H1118 C1106 0.960 1_655 S
H1119 C1106 0.962 . S
H1120 C1106 0.960 . S
H1121 C1107 0.961 . S
H1122 C1107 0.961 1_655 S
H1123 C1107 0.961 . S
H1124 C1108 0.931 . S
H1125 C1113 0.930 . S
H1126 C1114 0.956 . S
H1127 C1114 0.961 1_455 S
H1128 C1114 0.961 . S
H1129 C1115 0.958 . S
H1130 C1115 0.961 . S
H1131 C1115 0.960 . S
C1132 C1133 1.391 . S
C1132 C1134 1.394 . S
C1132 H1148 0.931 . S
C1133 C1132 1.391 . S
C1133 C1137 1.376 1_556 S
C1134 C1132 1.394 . S
C1134 C1135 1.369 . S
C1134 C1138 1.531 . S
C1135 C1134 1.369 . S
C1135 C1136 1.410 1_556 S
C1135 C1143 1.503 1_545 S
C1136 C1135 1.410 1_554 S
C1136 C1137 1.392 . S
C1136 C1139 1.511 . S
C1137 C1133 1.376 1_554 S
C1137 C1136 1.392 . S
C1137 H1149 0.929 . S
C1138 C1134 1.531 . S
C1138 H1150 0.960 1_545 S
C1138 H1151 0.962 . S
C1138 H1152 0.960 . S
C1139 C1136 1.511 . S
C1139 H1153 0.961 . S
C1139 H1154 0.959 . S
C1139 H1155 0.961 . S
C1140 C1141 1.370 . S
C1140 C1142 1.363 . S
C1140 H1156 0.931 . S
C1141 C1140 1.370 . S
C1141 C1145 1.408 1_554 S
C1142 C1140 1.363 . S
C1142 C1143 1.370 1_554 S
C1142 C1146 1.524 . S
C1143 C1135 1.503 1_565 S
C1143 C1142 1.370 1_556 S
C1143 C1144 1.403 . S
C1144 C1143 1.403 . S
C1144 C1145 1.404 . S
C1144 C1147 1.539 . S
C1145 C1141 1.408 1_556 S
C1145 C1144 1.404 . S
C1145 H1157 0.930 . S
C1146 C1142 1.524 . S
C1146 H1158 0.963 . S
C1146 H1159 0.961 1_565 S
C1146 H1160 0.961 . S
C1147 C1144 1.539 . S
C1147 H1161 0.958 . S
C1147 H1162 0.961 . S
C1147 H1163 0.960 . S
H1148 C1132 0.931 . S
H1149 C1137 0.929 . S
H1150 C1138 0.960 1_565 S
H1151 C1138 0.962 . S
H1152 C1138 0.960 . S
H1153 C1139 0.961 . S
H1154 C1139 0.959 . S
H1155 C1139 0.961 . S
H1156 C1140 0.931 . S
H1157 C1145 0.930 . S
H1158 C1146 0.963 . S
H1159 C1146 0.961 1_545 S
H1160 C1146 0.961 . S
H1161 C1147 0.958 . S
H1162 C1147 0.961 . S
H1163 C1147 0.960 . S
C1164 C1165 1.391 . S
C1164 C1166 1.394 . S
C1164 H1180 0.931 . S
C1165 C1164 1.391 . S
C1165 C1169 1.376 . S
C1166 C1164 1.394 . S
C1166 C1167 1.369 . S
C1166 C1170 1.531 . S
C1167 C1166 1.369 . S
C1167 C1168 1.410 . S
C1167 C1175 1.503 . S
C1168 C1167 1.410 . S
C1168 C1169 1.392 . S
C1168 C1171 1.511 . S
C1169 C1165 1.376 . S
C1169 C1168 1.392 . S
C1169 H1181 0.929 . S
C1170 C1166 1.531 . S
C1170 H1182 0.960 . S
C1170 H1183 0.962 . S
C1170 H1184 0.960 . S
C1171 C1168 1.511 . S
C1171 H1185 0.961 . S
C1171 H1186 0.961 . S
C1171 H1187 0.961 . S
C1172 C1173 1.370 . S
C1172 C1174 1.363 . S
C1172 H1188 0.931 . S
C1173 C1172 1.370 . S
C1173 C1177 1.408 . S
C1174 C1172 1.363 . S
C1174 C1175 1.370 . S
C1174 C1178 1.524 . S
C1175 C1167 1.503 . S
C1175 C1174 1.370 . S
C1175 C1176 1.403 . S
C1176 C1175 1.403 . S
C1176 C1177 1.404 . S
C1176 C1179 1.539 . S
C1177 C1173 1.408 . S
C1177 C1176 1.404 . S
C1177 H1189 0.930 . S
C1178 C1174 1.524 . S
C1178 H1190 0.956 . S
C1178 H1191 0.961 . S
C1178 H1192 0.961 . S
C1179 C1176 1.539 . S
C1179 H1193 0.958 . S
C1179 H1194 0.961 . S
C1179 H1195 0.960 . S
H1180 C1164 0.931 . S
H1181 C1169 0.929 . S
H1182 C1170 0.960 . S
H1183 C1170 0.962 . S
H1184 C1170 0.960 . S
H1185 C1171 0.961 . S
H1186 C1171 0.961 . S
H1187 C1171 0.961 . S
H1188 C1172 0.931 . S
H1189 C1177 0.930 . S
H1190 C1178 0.956 . S
H1191 C1178 0.961 . S
H1192 C1178 0.961 . S
H1193 C1179 0.958 . S
H1194 C1179 0.961 . S
H1195 C1179 0.960 . S
C1196 C1197 1.391 . S
C1196 C1198 1.394 . S
C1196 H1212 0.931 . S
C1197 C1196 1.391 . S
C1197 C1201 1.376 . S
C1198 C1196 1.394 . S
C1198 C1199 1.369 . S
C1198 C1202 1.531 . S
C1199 C1198 1.369 . S
C1199 C1200 1.410 . S
C1199 C1207 1.503 . S
C1200 C1199 1.410 . S
C1200 C1201 1.392 . S
C1200 C1203 1.511 . S
C1201 C1197 1.376 . S
C1201 C1200 1.392 . S
C1201 H1213 0.929 . S
C1202 C1198 1.531 . S
C1202 H1214 0.960 . S
C1202 H1215 0.962 . S
C1202 H1216 0.960 . S
C1203 C1200 1.511 . S
C1203 H1217 0.961 . S
C1203 H1218 0.961 . S
C1203 H1219 0.961 . S
C1204 C1205 1.370 . S
C1204 C1206 1.363 . S
C1204 H1220 0.931 . S
C1205 C1204 1.370 . S
C1205 C1209 1.408 . S
C1206 C1204 1.363 . S
C1206 C1207 1.370 . S
C1206 C1210 1.524 . S
C1207 C1199 1.503 . S
C1207 C1206 1.370 . S
C1207 C1208 1.403 . S
C1208 C1207 1.403 . S
C1208 C1209 1.404 . S
C1208 C1211 1.539 . S
C1209 C1205 1.408 . S
C1209 C1208 1.404 . S
C1209 H1221 0.930 . S
C1210 C1206 1.524 . S
C1210 H1222 0.956 . S
C1210 H1223 0.961 . S
C1210 H1224 0.961 . S
C1211 C1208 1.539 . S
C1211 H1225 0.958 . S
C1211 H1226 0.961 . S
C1211 H1227 0.960 . S
H1212 C1196 0.931 . S
H1213 C1201 0.929 . S
H1214 C1202 0.960 . S
H1215 C1202 0.962 . S
H1216 C1202 0.960 . S
H1217 C1203 0.961 . S
H1218 C1203 0.961 . S
H1219 C1203 0.961 . S
H1220 C1204 0.931 . S
H1221 C1209 0.930 . S
H1222 C1210 0.956 . S
H1223 C1210 0.961 . S
H1224 C1210 0.961 . S
H1225 C1211 0.958 . S
H1226 C1211 0.961 . S
H1227 C1211 0.960 . S
C1228 C1229 1.391 1_554 S
C1228 C1230 1.394 . S
C1228 H1244 0.931 . S
C1229 C1228 1.391 1_556 S
C1229 C1233 1.376 . S
C1230 C1228 1.394 . S
C1230 C1231 1.369 1_554 S
C1230 C1234 1.531 . S
C1231 C1230 1.369 1_556 S
C1231 C1232 1.410 . S
C1231 C1239 1.503 1_556 S
C1232 C1231 1.410 . S
C1232 C1233 1.392 . S
C1232 C1235 1.511 . S
C1233 C1229 1.376 . S
C1233 C1232 1.392 . S
C1233 H1245 0.929 . S
C1234 C1230 1.531 . S
C1234 H1246 0.960 . S
C1234 H1247 0.962 . S
C1234 H1248 0.960 . S
C1235 C1232 1.511 . S
C1235 H1249 0.961 . S
C1235 H1250 0.961 . S
C1235 H1251 0.961 . S
C1236 C1237 1.370 . S
C1236 C1238 1.363 . S
C1236 H1252 0.931 . S
C1237 C1236 1.370 . S
C1237 C1241 1.408 . S
C1238 C1236 1.363 . S
C1238 C1239 1.370 . S
C1238 C1242 1.524 1_554 S
C1239 C1231 1.503 1_554 S
C1239 C1238 1.370 . S
C1239 C1240 1.403 . S
C1240 C1239 1.403 . S
C1240 C1241 1.404 . S
C1240 C1243 1.539 . S
C1241 C1237 1.408 . S
C1241 C1240 1.404 . S
C1241 H1253 0.930 . S
C1242 C1238 1.524 1_556 S
C1242 H1254 0.956 1_556 S
C1242 H1255 0.961 . S
C1242 H1256 0.961 . S
C1243 C1240 1.539 . S
C1243 H1257 0.958 . S
C1243 H1258 0.961 . S
C1243 H1259 0.960 . S
H1244 C1228 0.931 . S
H1245 C1233 0.929 . S
H1246 C1234 0.960 . S
H1247 C1234 0.962 . S
H1248 C1234 0.960 . S
H1249 C1235 0.961 . S
H1250 C1235 0.961 . S
H1251 C1235 0.961 . S
H1252 C1236 0.931 . S
H1253 C1241 0.930 . S
H1254 C1242 0.956 1_554 S
H1255 C1242 0.961 . S
H1256 C1242 0.961 . S
H1257 C1243 0.958 . S
H1258 C1243 0.961 . S
H1259 C1243 0.960 . S
C1260 C1261 1.391 . S
C1260 C1262 1.394 . S
C1260 H1276 0.931 . S
C1261 C1260 1.391 . S
C1261 C1265 1.376 . S
C1262 C1260 1.394 . S
C1262 C1263 1.369 . S
C1262 C1266 1.531 . S
C1263 C1262 1.369 . S
C1263 C1264 1.410 . S
C1263 C1271 1.503 . S
C1264 C1263 1.410 . S
C1264 C1265 1.392 . S
C1264 C1267 1.511 . S
C1265 C1261 1.376 . S
C1265 C1264 1.392 . S
C1265 H1277 0.929 . S
C1266 C1262 1.531 . S
C1266 H1278 0.960 . S
C1266 H1279 0.962 . S
C1266 H1280 0.960 . S
C1267 C1264 1.511 . S
C1267 H1281 0.961 . S
C1267 H1282 0.961 . S
C1267 H1283 0.961 . S
C1268 C1269 1.370 . S
C1268 C1270 1.363 . S
C1268 H1284 0.931 . S
C1269 C1268 1.370 . S
C1269 C1273 1.408 . S
C1270 C1268 1.363 . S
C1270 C1271 1.370 . S
C1270 C1274 1.524 . S
C1271 C1263 1.503 . S
C1271 C1270 1.370 . S
C1271 C1272 1.403 . S
C1272 C1271 1.403 . S
C1272 C1273 1.404 . S
C1272 C1275 1.539 . S
C1273 C1269 1.408 . S
C1273 C1272 1.404 . S
C1273 H1285 0.930 . S
C1274 C1270 1.524 . S
C1274 H1286 0.956 . S
C1274 H1287 0.961 . S
C1274 H1288 0.961 . S
C1275 C1272 1.539 . S
C1275 H1289 0.958 . S
C1275 H1290 0.961 . S
C1275 H1291 0.960 . S
H1276 C1260 0.931 . S
H1277 C1265 0.929 . S
H1278 C1266 0.960 . S
H1279 C1266 0.962 . S
H1280 C1266 0.960 . S
H1281 C1267 0.961 . S
H1282 C1267 0.961 . S
H1283 C1267 0.961 . S
H1284 C1268 0.931 . S
H1285 C1273 0.930 . S
H1286 C1274 0.956 . S
H1287 C1274 0.961 . S
H1288 C1274 0.961 . S
H1289 C1275 0.958 . S
H1290 C1275 0.961 . S
H1291 C1275 0.960 . S
C1292 C1293 1.391 . S
C1292 C1294 1.394 . S
C1292 H1308 0.931 . S
C1293 C1292 1.391 . S
C1293 C1297 1.376 . S
C1294 C1292 1.394 . S
C1294 C1295 1.369 . S
C1294 C1298 1.531 . S
C1295 C1294 1.369 . S
C1295 C1296 1.410 . S
C1295 C1303 1.503 . S
C1296 C1295 1.410 . S
C1296 C1297 1.392 . S
C1296 C1299 1.511 . S
C1297 C1293 1.376 . S
C1297 C1296 1.392 . S
C1297 H1309 0.929 . S
C1298 C1294 1.531 . S
C1298 H1310 0.960 . S
C1298 H1311 0.962 . S
C1298 H1312 0.960 . S
C1299 C1296 1.511 . S
C1299 H1313 0.961 . S
C1299 H1314 0.961 . S
C1299 H1315 0.961 . S
C1300 C1301 1.370 . S
C1300 C1302 1.363 . S
C1300 H1316 0.931 . S
C1301 C1300 1.370 . S
C1301 C1305 1.408 . S
C1302 C1300 1.363 . S
C1302 C1303 1.370 . S
C1302 C1306 1.524 . S
C1303 C1295 1.503 . S
C1303 C1302 1.370 . S
C1303 C1304 1.403 . S
C1304 C1303 1.403 . S
C1304 C1305 1.404 . S
C1304 C1307 1.539 . S
C1305 C1301 1.408 . S
C1305 C1304 1.404 . S
C1305 H1317 0.930 . S
C1306 C1302 1.524 . S
C1306 H1318 0.956 . S
C1306 H1319 0.961 . S
C1306 H1320 0.961 . S
C1307 C1304 1.539 . S
C1307 H1321 0.958 . S
C1307 H1322 0.961 . S
C1307 H1323 0.960 . S
H1308 C1292 0.931 . S
H1309 C1297 0.929 . S
H1310 C1298 0.960 . S
H1311 C1298 0.962 . S
H1312 C1298 0.960 . S
H1313 C1299 0.961 . S
H1314 C1299 0.961 . S
H1315 C1299 0.961 . S
H1316 C1300 0.931 . S
H1317 C1305 0.930 . S
H1318 C1306 0.956 . S
H1319 C1306 0.961 . S
H1320 C1306 0.961 . S
H1321 C1307 0.958 . S
H1322 C1307 0.961 . S
H1323 C1307 0.960 . S
C1324 C1325 1.391 . S
C1324 C1326 1.394 . S
C1324 H1340 0.931 . S
C1325 C1324 1.391 . S
C1325 C1329 1.376 1_556 S
C1326 C1324 1.394 . S
C1326 C1327 1.369 . S
C1326 C1330 1.531 . S
C1327 C1326 1.369 . S
C1327 C1328 1.410 1_556 S
C1327 C1335 1.503 1_556 S
C1328 C1327 1.410 1_554 S
C1328 C1329 1.392 . S
C1328 C1331 1.511 . S
C1329 C1325 1.376 1_554 S
C1329 C1328 1.392 . S
C1329 H1341 0.929 . S
C1330 C1326 1.531 . S
C1330 H1342 0.960 . S
C1330 H1343 0.962 . S
C1330 H1344 0.960 . S
C1331 C1328 1.511 . S
C1331 H1345 0.961 . S
C1331 H1346 0.961 . S
C1331 H1347 0.961 . S
C1332 C1333 1.370 . S
C1332 C1334 1.363 . S
C1332 H1348 0.931 . S
C1333 C1332 1.370 . S
C1333 C1337 1.408 . S
C1334 C1332 1.363 . S
C1334 C1335 1.370 . S
C1334 C1338 1.524 . S
C1335 C1327 1.503 1_554 S
C1335 C1334 1.370 . S
C1335 C1336 1.402 1_554 S
C1336 C1335 1.402 1_556 S
C1336 C1337 1.401 1_556 S
C1336 C1339 1.542 . S
C1337 C1333 1.408 . S
C1337 C1336 1.401 1_554 S
C1337 H1349 0.930 . S
C1338 C1334 1.524 . S
C1338 H1350 0.956 1_554 S
C1338 H1351 0.961 . S
C1338 H1352 0.961 . S
C1339 C1336 1.542 . S
C1339 H1353 0.958 . S
C1339 H1354 0.961 1_556 S
C1339 H1355 0.960 . S
H1340 C1324 0.931 . S
H1341 C1329 0.929 . S
H1342 C1330 0.960 . S
H1343 C1330 0.962 . S
H1344 C1330 0.960 . S
H1345 C1331 0.961 . S
H1346 C1331 0.961 . S
H1347 C1331 0.961 . S
H1348 C1332 0.931 . S
H1349 C1337 0.930 . S
H1350 C1338 0.956 1_556 S
H1351 C1338 0.961 . S
H1352 C1338 0.961 . S
H1353 C1339 0.958 . S
H1354 C1339 0.961 1_554 S
H1355 C1339 0.960 . S
C397 C381 1.910 . S
C405 C18 1.904 . S
C429 C216 1.987 . S
C437 C51 1.988 . S
C461 C84 1.891 . S
C469 C249 1.903 . S
C493 C282 1.911 . S
C501 C117 1.901 . S
C525 C315 1.978 . S
C533 C150 1.995 . S
C557 C348 1.899 . S
C565 C183 1.906 . S
C589 C7 0.576 . S
C597 C337 0.583 . S
C621 C40 0.591 . S
C629 C370 0.555 . S
C653 C205 0.631 . S
C661 C73 0.622 . S
C685 C238 0.584 . S
C693 C106 0.581 . S
C717 C271 0.613 . S
C725 C139 0.626 . S
C749 C172 0.645 . S
C757 C304 0.548 . S
C781 N112 1.252 . S
C789 N13 1.276 . S
C813 N46 1.295 . S
C821 N145 1.297 . S
C845 N178 1.302 . S
C853 N79 1.285 . S
C877 N211 1.303 . S
C885 N310 1.296 . S
C909 N244 1.299 . S
C917 N343 1.287 . S
C941 N376 1.308 . S
C949 N277 1.293 . S
C973 N2 0.915 . S
C981 N299 0.960 . S
C1005 N35 0.979 . S
C1013 N332 0.937 . S
C1037 N365 0.918 . S
C1045 N68 0.949 . S
C1069 N101 0.912 . S
C1077 N200 0.956 . S
C1101 N134 0.914 . S
C1109 N233 0.961 . S
C1133 N167 0.933 . S
C1141 N266 0.947 . S
C1165 C219 1.696 . S
C1173 C21 1.690 . S
C1197 C252 1.669 . S
C1205 C54 1.699 . S
C1229 C87 1.676 . S
C1237 C285 1.686 . S
C1261 C318 1.669 . S
C1269 C120 1.699 . S
C1293 C153 1.705 . S
C1301 C351 1.685 . S
C1325 C186 1.687 . S
C1333 C384 1.686 . S
