# Generated by pormake.
# Topology svj, (7)-cn, num edge types: 1
# Building blocks:
#     Node 0, Type 0, BuildingBlock: HICVOG_clean_sbu_0, # of connection points: 7
#     Node 1, Type 0, BuildingBlock: HICVOG_clean_sbu_0, # of connection points: 7
#     Node 2, Type 0, BuildingBlock: HICVOG_clean_sbu_0, # of connection points: 7
#     Node 3, Type 0, BuildingBlock: HICVOG_clean_sbu_0, # of connection points: 7
#     Node 4, Type 0, BuildingBlock: HICVOG_clean_sbu_0, # of connection points: 7
#     Node 5, Type 0, BuildingBlock: HICVOG_clean_sbu_0, # of connection points: 7
#     Edge 6, Type (0, 0), BuildingBlock: CIFDUS_clean_linker_0, # of connection points: 2
#     Edge 7, Type (0, 0), BuildingBlock: CIFDUS_clean_linker_0, # of connection points: 2
#     Edge 8, Type (0, 0), BuildingBlock: CIFDUS_clean_linker_0, # of connection points: 2
#     Edge 9, Type (0, 0), BuildingBlock: CIFDUS_clean_linker_0, # of connection points: 2
#     Edge 10, Type (0, 0), BuildingBlock: CIFDUS_clean_linker_0, # of connection points: 2
#     Edge 11, Type (0, 0), BuildingBlock: CIFDUS_clean_linker_0, # of connection points: 2
#     Edge 12, Type (0, 0), BuildingBlock: CIFDUS_clean_linker_0, # of connection points: 2
#     Edge 13, Type (0, 0), BuildingBlock: CIFDUS_clean_linker_0, # of connection points: 2
#     Edge 14, Type (0, 0), BuildingBlock: CIFDUS_clean_linker_0, # of connection points: 2
#     Edge 15, Type (0, 0), BuildingBlock: CIFDUS_clean_linker_0, # of connection points: 2
#     Edge 16, Type (0, 0), BuildingBlock: CIFDUS_clean_linker_0, # of connection points: 2
#     Edge 17, Type (0, 0), BuildingBlock: CIFDUS_clean_linker_0, # of connection points: 2
#     Edge 18, Type (0, 0), BuildingBlock: CIFDUS_clean_linker_0, # of connection points: 2
#     Edge 19, Type (0, 0), BuildingBlock: CIFDUS_clean_linker_0, # of connection points: 2
#     Edge 20, Type (0, 0), BuildingBlock: CIFDUS_clean_linker_0, # of connection points: 2
#     Edge 21, Type (0, 0), BuildingBlock: CIFDUS_clean_linker_0, # of connection points: 2
#     Edge 22, Type (0, 0), BuildingBlock: CIFDUS_clean_linker_0, # of connection points: 2
#     Edge 23, Type (0, 0), BuildingBlock: CIFDUS_clean_linker_0, # of connection points: 2
#     Edge 24, Type (0, 0), BuildingBlock: CIFDUS_clean_linker_0, # of connection points: 2
#     Edge 25, Type (0, 0), BuildingBlock: CIFDUS_clean_linker_0, # of connection points: 2
#     Edge 26, Type (0, 0), BuildingBlock: CIFDUS_clean_linker_0, # of connection points: 2
# Relax obj value: 0.278
# Max RMSD: 0.258
# Mean RMSD: 0.241
data_MOF--net-svj--node1-HICVOG_clean_sbu_0--edge1-CIFDUS_clean_linker_0
_symmetry_space_group_name_H-M    P1
_symmetry_Int_Tables_number       1
_symmetry_cell_setting            triclinic
loop_
_symmetry_equiv_pos_as_xyz
'x, y, z'
_cell_length_a     36.18028
_cell_length_b     36.289844
_cell_length_c     18.5959
_cell_angle_alpha  90.060504
_cell_angle_beta   89.754474
_cell_angle_gamma 119.97867
loop_
_atom_site_label
_atom_site_type_symbol
_atom_site_fract_x
_atom_site_fract_y
_atom_site_fract_z
_atom_type_partial_charge
Zn0 Zn 0.21194 0.4479 0.94836 0.0
C1 C 0.11517 0.4522 0.04001 0.0
N2 N 0.12554 0.48402 0.99312 0.0
C3 C 0.16254 0.49025 0.9651 0.0
N4 N 0.17404 0.46337 0.99401 0.0
N5 N 0.14462 0.43987 0.04203 0.0
C6 C 0.06559 0.33862 0.0964 0.0
O7 O 0.07891 0.345 0.0293 0.0
O8 O 0.26538 0.49914 0.91308 0.0
Zn9 Zn 0.15038 0.40804 0.1201 0.0
N10 N 0.18189 0.41278 0.86811 0.0
C11 C 0.13106 0.34531 0.82145 0.0
C12 C 0.15322 0.37106 0.87958 0.0
C13 C 0.18941 0.43004 0.80129 0.0
N14 N 0.1389 0.36235 0.75433 0.0
C15 C 0.16779 0.40413 0.74218 0.0
O16 O 0.19236 0.38634 0.10836 0.0
C17 C 0.22185 0.39156 0.06478 0.0
O18 O 0.23009 0.41391 0.00818 0.0
H19 H 0.14765 0.35808 0.93344 0.0
H20 H 0.21164 0.46368 0.79511 0.0
C21 C 0.1597 0.43198 0.26775 0.0
C22 C 0.17611 0.46043 0.32574 0.0
C23 C 0.21431 0.51725 0.24354 0.0
C24 C 0.19822 0.48881 0.18633 0.0
N25 N 0.17124 0.44685 0.19964 0.0
N26 N 0.20316 0.50243 0.31176 0.0
H27 H 0.13904 0.39819 0.27623 0.0
C28 C 0.28929 0.52456 0.96116 0.0
O29 O 0.27726 0.51648 0.0288 0.0
O30 O 0.09161 0.36044 0.1457 0.0
H31 H 0.20731 0.49996 0.1318 0.0
H32 H 0.10797 0.31202 0.82948 0.0
H33 H 0.23586 0.55076 0.23392 0.0
Zn34 Zn 0.6422 0.11305 0.24346 0.0
C35 C 0.71324 0.22504 0.19909 0.0
N36 N 0.68034 0.229 0.2233 0.0
C37 C 0.64631 0.19033 0.21189 0.0
N38 N 0.65869 0.16348 0.18605 0.0
N39 N 0.70002 0.18578 0.17254 0.0
C40 C 0.81132 0.21229 0.12404 0.0
O41 O 0.7983 0.19648 0.18874 0.0
O42 O 0.57769 0.07933 0.26098 0.0
Zn43 Zn 0.72181 0.16373 0.09803 0.0
N44 N 0.67581 0.13204 0.33167 0.0
C45 C 0.74687 0.16262 0.37518 0.0
C46 C 0.71792 0.14692 0.31892 0.0
C47 C 0.66117 0.13158 0.39966 0.0
N48 N 0.73251 0.16205 0.44276 0.0
C49 C 0.69043 0.14676 0.45765 0.0
O50 O 0.714 0.1059 0.12193 0.0
C51 C 0.68695 0.07274 0.15599 0.0
O52 O 0.6586 0.07259 0.19717 0.0
H53 H 0.72887 0.14662 0.26494 0.0
H54 H 0.62751 0.11988 0.40788 0.0
C55 C 0.69898 0.16392 0.94348 0.0
C56 C 0.66843 0.14857 0.88718 0.0
C57 C 0.61398 0.10954 0.97369 0.0
C58 C 0.64426 0.12333 0.02774 0.0
N59 N 0.68583 0.15121 0.01265 0.0
N60 N 0.62675 0.12225 0.90525 0.0
H61 H 0.73266 0.18411 0.93296 0.0
C62 C 0.55364 0.07833 0.21029 0.0
O63 O 0.5713 0.10007 0.15156 0.0
O64 O 0.78375 0.20378 0.07516 0.0
H65 H 0.63496 0.11106 0.08145 0.0
H66 H 0.78053 0.17491 0.36537 0.0
H67 H 0.58067 0.08787 0.98558 0.0
Zn68 Zn 0.60929 0.74308 0.18041 0.0
C69 C 0.52663 0.67688 0.02208 0.0
N70 N 0.52895 0.6447 0.05318 0.0
C71 C 0.56049 0.66473 0.10098 0.0
N72 N 0.57629 0.70706 0.1009 0.0
N73 N 0.55596 0.71483 0.04939 0.0
C74 C 0.50175 0.77708 0.01768 0.0
O75 O 0.51572 0.78066 0.08389 0.0
O76 O 0.65563 0.72857 0.20257 0.0
Zn77 Zn 0.57378 0.76834 1.00115 0.0
N78 N 0.57001 0.72792 0.26199 0.0
C79 C 0.4983 0.70449 0.29704 0.0
C80 C 0.52913 0.71558 0.24374 0.0
C81 C 0.58168 0.73085 0.33249 0.0
N82 N 0.5097 0.70714 0.36699 0.0
C83 C 0.5506 0.72033 0.38712 0.0
O84 O 0.60819 0.81922 0.06462 0.0
C85 C 0.62954 0.8319 0.12257 0.0
O86 O 0.63266 0.80647 0.16609 0.0
H87 H 0.52051 0.71429 0.18794 0.0
H88 H 0.61452 0.74101 0.34543 0.0
C89 C 0.59916 0.76719 0.85023 0.0
C90 C 0.62978 0.77306 0.79719 0.0
C91 C 0.681 0.78924 0.88934 0.0
C92 C 0.65083 0.78365 0.94122 0.0
N93 N 0.61069 0.77299 0.921 0.0
N94 N 0.66989 0.78405 0.81896 0.0
H95 H 0.56708 0.75918 0.83562 0.0
C96 C 0.67497 0.72235 0.15068 0.0
O97 O 0.66724 0.72943 0.08469 0.0
O98 O 0.52222 0.77151 0.96716 0.0
H99 H 0.65934 0.78812 0.99752 0.0
H100 H 0.46557 0.69418 0.28302 0.0
H101 H 0.71314 0.79791 0.90477 0.0
Zn102 Zn 0.90757 0.53041 0.26653 0.0
C103 C 0.79462 0.49227 0.21274 0.0
N104 N 0.78875 0.45572 0.24138 0.0
C105 C 0.82744 0.4592 0.23743 0.0
N106 N 0.85622 0.49766 0.21076 0.0
N107 N 0.83547 0.51741 0.19101 0.0
C108 C 0.8105 0.60261 0.15225 0.0
O109 O 0.82238 0.59987 0.21771 0.0
O110 O 0.94029 0.49876 0.28293 0.0
Zn111 Zn 0.86111 0.56333 0.11948 0.0
N112 N 0.88968 0.54618 0.3544 0.0
C113 C 0.8608 0.58821 0.39788 0.0
C114 C 0.87578 0.57405 0.34154 0.0
C115 C 0.88985 0.53215 0.42233 0.0
N116 N 0.86113 0.57462 0.46554 0.0
C117 C 0.87545 0.54715 0.48028 0.0
O118 O 0.9213 0.61181 0.14372 0.0
C119 C 0.95301 0.61586 0.18003 0.0
O120 O 0.94989 0.58662 0.22173 0.0
H121 H 0.87637 0.58511 0.28745 0.0
H122 H 0.9007 0.50961 0.43048 0.0
C123 C 0.85938 0.54032 0.9647 0.0
C124 C 0.87216 0.52251 0.90858 0.0
C125 C 0.90687 0.50201 0.99485 0.0
C126 C 0.89558 0.52088 0.0489 0.0
N127 N 0.87119 0.53858 0.0337 0.0
N128 N 0.89513 0.50345 0.92644 0.0
H129 H 0.84189 0.55666 0.95411 0.0
C130 C 0.9405 0.47549 0.23183 0.0
O131 O 0.91715 0.47043 0.17502 0.0
O132 O 0.82272 0.58844 0.10007 0.0
H133 H 0.90703 0.52245 0.10274 0.0
H134 H 0.84934 0.61016 0.38812 0.0
H135 H 0.92582 0.4873 0.00674 0.0
Zn136 Zn 0.27242 0.87295 0.11094 0.0
C137 C 0.34599 0.86009 0.96148 0.0
N138 N 0.37492 0.89877 0.98581 0.0
C139 C 0.35193 0.90894 0.02988 0.0
N140 N 0.31084 0.87771 0.03397 0.0
N141 N 0.30698 0.84738 0.98995 0.0
C142 C 0.2601 0.73175 0.97855 0.0
O143 O 0.26072 0.74671 0.04319 0.0
O144 O 0.28319 0.93285 0.12714 0.0
Zn145 Zn 0.25436 0.80415 0.94944 0.0
N146 N 0.29093 0.85433 0.19365 0.0
C147 C 0.322 0.81443 0.23735 0.0
C148 C 0.30881 0.8298 0.18041 0.0
C149 C 0.28491 0.86359 0.26205 0.0
N150 N 0.3159 0.82345 0.30561 0.0
C151 C 0.29758 0.84757 0.3201 0.0
O152 O 0.20188 0.78581 0.00999 0.0
C153 C 0.18599 0.79629 0.06177 0.0
O154 O 0.20853 0.82924 0.10001 0.0
H155 H 0.31259 0.82206 0.126 0.0
H156 H 0.26922 0.88197 0.27059 0.0
C157 C 0.25591 0.82364 0.79849 0.0
C158 C 0.24802 0.84323 0.73981 0.0
C159 C 0.21892 0.87315 0.82022 0.0
C160 C 0.22642 0.85337 0.87779 0.0
N161 N 0.24462 0.82901 0.86577 0.0
N162 N 0.2298 0.86761 0.75287 0.0
H163 H 0.27138 0.80494 0.79165 0.0
C164 C 0.28093 0.95353 0.07367 0.0
O165 O 0.26713 0.93376 0.01196 0.0
O166 O 0.25753 0.75167 0.92445 0.0
H167 H 0.21804 0.85752 0.93188 0.0
H168 H 0.33647 0.79504 0.22749 0.0
H169 H 0.20455 0.89275 0.82888 0.0
Zn170 Zn 0.44513 0.29283 0.10246 0.0
C171 C 0.55925 0.36546 0.16318 0.0
N172 N 0.56391 0.33406 0.13453 0.0
C173 C 0.52401 0.30059 0.13479 0.0
N174 N 0.496 0.31167 0.16015 0.0
N175 N 0.51816 0.35176 0.18138 0.0
C176 C 0.5485 0.45915 0.20678 0.0
O177 O 0.54067 0.43896 0.14527 0.0
O178 O 0.4153 0.22823 0.08668 0.0
Zn179 Zn 0.49254 0.37455 0.2471 0.0
N180 N 0.46523 0.32507 0.01323 0.0
C181 C 0.49793 0.39604 0.96909 0.0
C182 C 0.48121 0.36721 0.02549 0.0
C183 C 0.46418 0.31015 0.94543 0.0
N184 N 0.49685 0.38146 0.90168 0.0
C185 C 0.48016 0.3393 0.88725 0.0
O186 O 0.43599 0.36651 0.21123 0.0
C187 C 0.40339 0.34005 0.17547 0.0
O188 O 0.40277 0.30971 0.13972 0.0
H189 H 0.48063 0.37815 0.07916 0.0
H190 H 0.45121 0.27639 0.9374 0.0
C191 C 0.49105 0.35187 0.40274 0.0
C192 C 0.47449 0.3208 0.45825 0.0
C193 C 0.43204 0.2685 0.37149 0.0
C194 C 0.44759 0.29927 0.31806 0.0
N195 N 0.4772 0.33997 0.3339 0.0
N196 N 0.44569 0.27998 0.43977 0.0
H197 H 0.51352 0.38491 0.41348 0.0
C198 C 0.40791 0.20509 0.14236 0.0
O199 O 0.41906 0.22361 0.20532 0.0
O200 O 0.53123 0.43798 0.26372 0.0
H201 H 0.43591 0.29116 0.26386 0.0
H202 H 0.51112 0.42973 0.97854 0.0
H203 H 0.40874 0.23584 0.35919 0.0
H204 H 0.34809 0.31965 0.06453 0.0
H205 H 0.37626 0.37686 0.27516 0.0
H206 H 0.31867 0.39332 0.26316 0.0
H207 H 0.26367 0.39629 0.1886 0.0
H208 H 0.2415 0.34589 0.97331 0.0
H209 H 0.29274 0.32144 0.99133 0.0
C210 C 0.34119 0.33513 0.10826 0.0
C211 C 0.36628 0.34681 0.1708 0.0
C212 C 0.30905 0.34581 0.09993 0.0
C213 C 0.35744 0.36758 0.22643 0.0
C214 C 0.32451 0.377 0.21959 0.0
C215 C 0.26958 0.3792 0.14637 0.0
C216 C 0.24861 0.37237 0.08006 0.0
C217 C 0.30053 0.36691 0.15608 0.0
C218 C 0.25717 0.35119 0.02491 0.0
C219 C 0.28654 0.33738 0.03512 0.0
H220 H 0.99958 0.30778 1.00239 0.0
H221 H 0.02816 0.31194 0.22837 0.0
H222 H 0.95198 0.27389 0.2569 0.0
H223 H 0.87737 0.24041 0.21782 0.0
H224 H 0.84906 0.23912 0.9922 0.0
H225 H 0.92515 0.2758 0.96361 0.0
C226 C 0.98918 0.29994 0.05785 0.0
C227 C 0.01954 0.31233 0.1131 0.0
C228 C 0.94541 0.27911 0.07403 0.0
C229 C 1.00547 0.30255 0.18476 0.0
C230 C 0.96192 0.28098 0.20116 0.0
C231 C 0.88781 0.24819 0.16237 0.0
C232 C 0.8575 0.23683 0.10724 0.0
C233 C 0.93162 0.26936 0.14627 0.0
C234 C 0.87165 0.24748 0.03574 0.0
C235 C 0.91518 0.2683 0.01927 0.0
H236 H 0.66408 0.90072 0.03462 0.0
H237 H 0.63296 0.86357 0.25664 0.0
H238 H 0.65 0.93589 0.28806 0.0
H239 H 0.66728 0.008 0.24984 0.0
H240 H 0.70281 0.0461 0.02916 0.0
H241 H 0.6909 0.97532 0.99976 0.0
C242 C 0.66174 0.90873 0.09004 0.0
C243 C 0.64699 0.87691 0.14315 0.0
C244 C 0.67206 0.95044 0.10779 0.0
C245 C 0.64445 0.88764 0.2149 0.0
C246 C 0.65387 0.92889 0.23278 0.0
C247 C 0.67293 1.00085 0.19561 0.0
C248 C 0.6855 0.03198 0.14158 0.0
C249 C 0.6667 0.96027 0.17934 0.0
C250 C 0.69325 0.02265 0.07168 0.0
C251 C 0.68622 0.98213 0.05475 0.0
H252 H 0.77894 0.63437 0.25278 0.0
H253 H 0.78288 0.6168 0.0238 0.0
H254 H 0.7422 0.653 1.00341 0.0
H255 H 0.70645 0.69052 0.0503 0.0
H256 H 0.7013 0.70692 0.27936 0.0
H257 H 0.7418 0.67052 0.29983 0.0
C258 C 0.77092 0.63838 0.19833 0.0
C259 C 0.78429 0.62306 0.13987 0.0
C260 C 0.74755 0.6593 0.18695 0.0
C261 C 0.77322 0.62836 0.0698 0.0
C262 C 0.75 0.64915 0.05808 0.0
C263 C 0.71446 0.6865 0.10475 0.0
C264 C 0.70124 0.70197 0.16318 0.0
C265 C 0.7373 0.66505 0.11619 0.0
C266 C 0.71133 0.69571 0.23335 0.0
C267 C 0.73439 0.67475 0.24512 0.0
H268 H 0.14574 0.76377 0.18997 0.0
H269 H 0.1227 0.76631 0.96343 0.0
H270 H 0.04714 0.71424 0.98102 0.0
H271 H 0.9887 0.66302 0.05901 0.0
H272 H 0.01341 0.65487 0.28326 0.0
H273 H 0.08653 0.71378 0.26888 0.0
C274 C 0.12389 0.75344 0.14491 0.0
C275 C 0.13962 0.76906 0.07563 0.0
C276 C 0.08068 0.72205 0.15499 0.0
C277 C 0.11123 0.75477 0.0173 0.0
C278 C 0.06805 0.72491 0.0273 0.0
C279 C 1.00991 0.6747 0.10491 0.0
C280 C 0.99555 0.65472 0.17215 0.0
C281 C 0.05252 0.7076 0.09562 0.0
C282 C 0.02369 0.66968 0.23088 0.0
C283 C 0.06556 0.70336 0.22268 0.0
H284 H 0.32772 0.00677 0.1823 0.0
H285 H 0.27769 1.00601 0.97174 0.0
H286 H 0.31357 0.08363 0.97257 0.0
H287 H 0.35998 0.1523 0.03287 0.0
H288 H 0.40963 0.15216 0.24342 0.0
H289 H 0.3737 0.07475 0.24218 0.0
C290 C 0.32418 0.0235 0.13694 0.0
C291 C 0.29969 1.00043 0.07734 0.0
C292 C 0.34533 0.06822 0.13732 0.0
C293 C 0.29612 0.02284 0.01857 0.0
C294 C 0.31682 0.06733 0.0188 0.0
C295 C 0.36302 0.13528 0.07826 0.0
C296 C 0.3873 0.15808 0.13822 0.0
C297 C 0.34175 0.09044 0.07771 0.0
C298 C 0.39084 0.13549 0.19676 0.0
C299 C 0.37027 0.09113 0.19621 0.0
H300 H 0.11267 0.37476 0.63042 0.0
H301 H 0.24144 0.47067 0.68514 0.0
H302 H 0.25381 0.49736 0.56257 0.0
H303 H 0.22925 0.49237 0.43877 0.0
H304 H 0.1015 0.39541 0.38215 0.0
H305 H 0.08792 0.36997 0.50624 0.0
C306 C 0.14347 0.40151 0.6156 0.0
C307 C 0.17567 0.42102 0.66766 0.0
C308 C 0.15077 0.41635 0.54443 0.0
C309 C 0.21545 0.45564 0.64726 0.0
C310 C 0.22281 0.47076 0.57674 0.0
C311 C 0.19831 0.46585 0.45368 0.0
C312 C 0.16668 0.44555 0.40115 0.0
C313 C 0.19076 0.45131 0.52493 0.0
C314 C 0.12679 0.41109 0.42119 0.0
C315 C 0.11888 0.39667 0.49225 0.0
H316 H 0.74011 0.19547 0.56783 0.0
H317 H 0.61214 0.09411 0.52226 0.0
H318 H 0.59464 0.08822 0.64967 0.0
H319 H 0.61649 0.10807 0.77397 0.0
H320 H 0.74476 0.20872 0.82104 0.0
H321 H 0.76108 0.21773 0.69306 0.0
C322 C 0.70822 0.17216 0.58545 0.0
C323 C 0.67755 0.1455 0.53448 0.0
C324 C 0.69848 0.16824 0.65938 0.0
C325 C 0.63639 0.11575 0.55903 0.0
C326 C 0.6264 0.11198 0.6324 0.0
C327 C 0.64811 0.13235 0.757 0.0
C328 C 0.67937 0.15706 0.80874 0.0
C329 C 0.65738 0.13761 0.68304 0.0
C330 C 0.71998 0.1883 0.78402 0.0
C331 C 0.72938 0.19376 0.71025 0.0
H332 H 0.55523 0.7176 0.72778 0.0
H333 H 0.68454 0.81801 0.6892 0.0
H334 H 0.67278 0.80987 0.55976 0.0
H335 H 0.62564 0.77503 0.45684 0.0
H336 H 0.49656 0.67385 0.49525 0.0
H337 H 0.50843 0.6818 0.62455 0.0
C338 C 0.58066 0.73809 0.69116 0.0
C339 C 0.6206 0.76868 0.71859 0.0
C340 C 0.57389 0.73296 0.61628 0.0
C341 C 0.65344 0.79418 0.66985 0.0
C342 C 0.64679 0.78956 0.59561 0.0
C343 C 0.60029 0.75413 0.49319 0.0
C344 C 0.56032 0.72363 0.46563 0.0
C345 C 0.6072 0.75894 0.56805 0.0
C346 C 0.52768 0.6977 0.51447 0.0
C347 C 0.53438 0.7022 0.58871 0.0
H348 H 0.91326 0.51162 0.79555 0.0
H349 H 0.81307 0.54003 0.84389 0.0
H350 H 0.80453 0.54786 0.71594 0.0
H351 H 0.82687 0.54884 0.59059 0.0
H352 H 0.92769 0.52118 0.54393 0.0
H353 H 0.93329 0.50951 0.67116 0.0
C354 C 0.88918 0.51922 0.77873 0.0
C355 C 0.86443 0.52586 0.83056 0.0
C356 C 0.88415 0.52339 0.70498 0.0
C357 C 0.83352 0.5357 0.80644 0.0
C358 C 0.8283 0.53985 0.73283 0.0
C359 C 0.85 0.54004 0.60798 0.0
C360 C 0.87656 0.53567 0.55688 0.0
C361 C 0.85376 0.53421 0.68174 0.0
C362 C 0.9061 0.524 0.58096 0.0
C363 C 0.90971 0.51777 0.65417 0.0
H364 H 0.28394 0.79473 0.43164 0.0
H365 H 0.29464 0.91573 0.38007 0.0
H366 H 0.28075 0.92472 0.50549 0.0
H367 H 0.26532 0.89815 0.62944 0.0
H368 H 0.25356 0.77646 0.67981 0.0
H369 H 0.26924 0.76855 0.55538 0.0
C370 C 0.28349 0.82324 0.44775 0.0
C371 C 0.28978 0.85418 0.3961 0.0
C372 C 0.27571 0.82833 0.51991 0.0
C373 C 0.2889 0.89084 0.41807 0.0
C374 C 0.28132 0.8962 0.49001 0.0
C375 C 0.26617 0.86984 0.61335 0.0
C376 C 0.25883 0.83833 0.66462 0.0
C377 C 0.27449 0.86505 0.54126 0.0
C378 C 0.26015 0.8019 0.64252 0.0
C379 C 0.26869 0.79706 0.57095 0.0
H380 H 0.43319 0.26887 0.57132 0.0
H381 H 0.53988 0.39382 0.52344 0.0
H382 H 0.55206 0.40833 0.65142 0.0
H383 H 0.53056 0.38717 0.77692 0.0
H384 H 0.4232 0.26272 0.82359 0.0
H385 H 0.41446 0.24626 0.69577 0.0
C386 C 0.45946 0.29935 0.58811 0.0
C387 C 0.48488 0.33037 0.53632 0.0
C388 C 0.46656 0.30754 0.66201 0.0
C389 C 0.51879 0.36942 0.56067 0.0
C390 C 0.5261 0.37774 0.63438 0.0
C391 C 0.50537 0.35624 0.75939 0.0
C392 C 0.47772 0.32629 0.81059 0.0
C393 C 0.49979 0.34726 0.68543 0.0
C394 C 0.44555 0.2863 0.78638 0.0
C395 C 0.44016 0.27699 0.71288 0.0
H396 H 0.22468 0.67419 0.86969 0.0
H397 H 0.29164 0.69676 0.07079 0.0
H398 H 0.27617 0.62323 0.07319 0.0
H399 H 0.23021 0.55044 0.03293 0.0
H400 H 0.15767 0.5252 0.8385 0.0
H401 H 0.18887 0.60182 0.81766 0.0
C402 C 0.23685 0.66322 0.91288 0.0
C403 C 0.25848 0.69048 0.97076 0.0
C404 C 0.22649 0.62033 0.91519 0.0
C405 C 0.27417 0.67604 0.02641 0.0
C406 C 0.26538 0.63402 0.02778 0.0
C407 C 0.22355 0.56172 0.98349 0.0
C408 C 0.19291 0.53241 0.93603 0.0
C409 C 0.23982 0.60547 0.97437 0.0
C410 C 0.18213 0.54737 0.87462 0.0
C411 C 0.19946 0.59113 0.86346 0.0
H412 H 0.5427 0.2533 0.04601 0.0
H413 H 0.49982 0.25774 0.26042 0.0
H414 H 0.52799 0.21356 0.30455 0.0
H415 H 0.58276 0.19247 0.28724 0.0
H416 H 0.62665 0.18957 0.0728 0.0
H417 H 0.57989 0.21335 0.02338 0.0
C418 C 0.53738 0.24241 0.10142 0.0
C419 C 0.51946 0.25876 0.14984 0.0
C420 C 0.55514 0.21827 0.12694 0.0
C421 C 0.51302 0.245 0.22183 0.0
C422 C 0.52998 0.22044 0.2475 0.0
C423 C 0.58048 0.19526 0.22957 0.0
C424 C 0.60799 0.1895 0.18368 0.0
C425 C 0.55388 0.20966 0.20149 0.0
C426 C 0.6053 0.19346 0.10896 0.0
C427 C 0.57888 0.20749 0.08069 0.0
H428 H 0.33301 0.59963 0.02914 0.0
H429 H 0.34205 0.52673 0.85391 0.0
H430 H 0.41899 0.57601 0.84491 0.0
H431 H 0.48477 0.63032 0.90512 0.0
H432 H 0.47396 0.69851 0.08581 0.0
H433 H 0.3971 0.66242 0.07258 0.0
C434 C 0.35175 0.59527 0.9878 0.0
C435 C 0.33243 0.55931 0.94346 0.0
C436 C 0.39581 0.62331 0.98362 0.0
C437 C 0.35654 0.55415 0.88911 0.0
C438 C 0.40054 0.58217 0.88421 0.0
C439 C 0.46556 0.63869 0.9389 0.0
C440 C 0.48515 0.66837 0.99448 0.0
C441 C 0.42081 0.61564 0.93362 0.0
C442 C 0.45996 0.6778 0.04005 0.0
C443 C 0.41574 0.65615 0.03378 0.0
H444 H 0.82745 0.39758 0.32197 0.0
H445 H 0.8249 0.43289 0.10183 0.0
H446 H 0.79883 0.3598 0.06305 0.0
H447 H 0.7589 0.28399 0.09741 0.0
H448 H 0.76201 0.24849 0.31684 0.0
H449 H 0.80727 0.32298 0.34985 0.0
C450 C 0.82306 0.3895 0.26529 0.0
C451 C 0.82781 0.42034 0.21489 0.0
C452 C 0.80775 0.3471 0.24325 0.0
C453 C 0.82167 0.40959 0.1415 0.0
C454 C 0.80638 0.36768 0.11932 0.0
C455 C 0.77187 0.2925 0.15128 0.0
C456 C 0.75706 0.26096 0.20469 0.0
C457 C 0.79683 0.33571 0.17029 0.0
C458 C 0.77341 0.2723 0.27466 0.0
C459 C 0.79857 0.31506 0.29394 0.0
H460 H 0.47996 0.8066 0.89913 0.0
H461 H 0.43408 0.74878 0.10719 0.0
H462 H 0.37278 0.75911 0.09689 0.0
H463 H 0.34148 0.79739 0.04131 0.0
H464 H 0.39032 0.86281 0.84063 0.0
H465 H 0.44076 0.83628 0.83414 0.0
C466 C 0.45595 0.79547 0.94126 0.0
C467 C 0.46181 0.77762 0.00436 0.0
C468 C 0.4214 0.80301 0.93617 0.0
C469 C 0.43062 0.76333 0.05874 0.0
C470 C 0.39547 0.76908 0.05279 0.0
C471 C 0.3611 0.80353 0.99389 0.0
C472 C 0.36115 0.83077 0.94041 0.0
C473 C 0.39157 0.79049 0.99327 0.0
C474 C 0.38891 0.84083 0.8814 0.0
C475 C 0.41825 0.82628 0.87848 0.0
H476 H 0.73293 0.48612 0.30002 0.0
H477 H 0.77065 0.4997 0.07742 0.0
H478 H 0.69603 0.46825 0.04082 0.0
H479 H 0.62091 0.41937 0.07397 0.0
H480 H 0.58355 0.39975 0.29702 0.0
H481 H 0.65677 0.45137 0.33228 0.0
C482 C 0.72483 0.48422 0.24349 0.0
C483 C 0.75703 0.49518 0.19138 0.0
C484 C 0.68169 0.46374 0.22331 0.0
C485 C 0.74647 0.49216 0.11833 0.0
C486 C 0.70366 0.47331 0.09756 0.0
C487 C 0.62862 0.42787 0.13009 0.0
C488 C 0.5972 0.40602 0.18302 0.0
C489 C 0.67103 0.45632 0.14971 0.0
C490 C 0.60722 0.41663 0.25557 0.0
C491 C 0.64917 0.44579 0.27559 0.0
H492 H 0.93838 0.41438 0.14675 0.0
H493 H 0.01637 0.50808 0.30453 0.0
H494 H 0.07786 0.5014 0.26804 0.0
H495 H 0.11226 0.48106 0.17278 0.0
H496 H 0.03476 0.39362 0.00767 0.0
H497 H 0.97017 0.38481 0.06585 0.0
C498 C 0.96857 0.43251 0.17449 0.0
C499 C 0.97314 0.46239 0.22701 0.0
C500 C 1.00401 0.42979 0.1512 0.0
C501 C 0.01213 0.4851 0.26349 0.0
C502 C 0.04742 0.48158 0.24213 0.0
C503 C 0.08102 0.45871 0.15171 0.0
C504 C 0.07783 0.43711 0.08727 0.0
C505 C 0.04425 0.4558 0.18337 0.0
C506 C 0.03756 0.40958 0.05833 0.0
C507 C 1.00076 0.40501 0.09108 0.0
H508 H 0.49345 0.08298 0.1324 0.0
H509 H 0.51062 1.00298 0.28397 0.0
H510 H 0.44071 0.94307 0.25208 0.0
H511 H 0.38433 0.91037 0.16038 0.0
H512 H 0.37127 0.98946 1.00206 0.0
H513 H 0.4292 0.05305 0.05796 0.0
C514 C 0.4813 0.05272 0.15993 0.0
C515 C 0.50748 0.04701 0.2091 0.0
C516 C 0.44189 0.01819 0.13945 0.0
C517 C 0.49119 0.00803 0.24548 0.0
C518 C 0.45136 0.97366 0.22675 0.0
C519 C 0.39279 0.94173 0.14069 0.0
C520 C 0.37321 0.94557 0.0783 0.0
C521 C 0.42766 0.97781 0.17089 0.0
C522 C 0.38544 0.98607 0.05103 0.0
C523 C 0.41895 0.0223 0.08238 0.0
H524 H 0.53023 0.51171 0.2835 0.0
H525 H 0.61659 0.51063 0.12427 0.0
H526 H 0.63729 0.58313 0.08843 0.0
H527 H 0.6152 0.63675 0.07997 0.0
H528 H 0.52466 0.63555 0.2319 0.0
H529 H 0.52124 0.57451 0.29365 0.0
C530 C 0.55488 0.52813 0.24317 0.0
C531 C 0.57128 0.50589 0.2054 0.0
C532 C 0.56504 0.56908 0.22047 0.0
C533 C 0.60312 0.52717 0.15309 0.0
C534 C 0.61472 0.56846 0.13226 0.0
C535 C 0.59659 0.62444 0.12897 0.0
C536 C 0.5709 0.64085 0.15251 0.0
C537 C 0.59362 0.5884 0.16211 0.0
C538 C 0.54558 0.624 0.21429 0.0
C539 C 0.54316 0.58868 0.24887 0.0
loop_
_geom_bond_atom_site_label_1
_geom_bond_atom_site_label_2
_geom_bond_distance
_geom_bond_site_symmetry_2
_ccdc_geom_bond_type
Zn0 N4 2.020 1_556 S
Zn0 O8 2.019 . S
Zn0 N10 2.119 . S
Zn0 O18 1.975 1_556 S
C1 N2 1.334 . S
C1 N5 1.336 . S
N2 C1 1.334 . S
N2 C3 1.334 . S
C3 N2 1.334 . S
C3 N4 1.336 . S
N4 Zn0 2.020 1_554 S
N4 C3 1.336 . S
N4 N5 1.354 . S
N5 C1 1.336 . S
N5 N4 1.354 . S
N5 Zn9 2.020 . S
C6 O7 1.244 . S
C6 O30 1.257 . S
O7 C6 1.244 . S
O8 Zn0 2.019 . S
O8 C28 1.257 . S
Zn9 N5 2.020 . S
Zn9 O16 1.975 . S
Zn9 N25 2.119 . S
Zn9 O30 2.019 . S
N10 Zn0 2.119 . S
N10 C12 1.334 . S
N10 C13 1.328 . S
C11 C12 1.391 . S
C11 N14 1.329 . S
C11 H32 0.930 . S
C12 N10 1.334 . S
C12 C11 1.391 . S
C12 H19 0.930 . S
C13 N10 1.328 . S
C13 C15 1.392 . S
C13 H20 0.930 . S
N14 C11 1.329 . S
N14 C15 1.331 . S
C15 C13 1.392 . S
C15 N14 1.331 . S
O16 Zn9 1.975 . S
O16 C17 1.252 . S
C17 O16 1.252 . S
C17 O18 1.252 . S
O18 Zn0 1.975 1_554 S
O18 C17 1.252 . S
H19 C12 0.930 . S
H20 C13 0.930 . S
C21 C22 1.392 . S
C21 N25 1.328 . S
C21 H27 0.930 . S
C22 C21 1.392 . S
C22 N26 1.331 . S
C23 C24 1.391 . S
C23 N26 1.329 . S
C23 H33 0.930 . S
C24 C23 1.391 . S
C24 N25 1.334 . S
C24 H31 0.930 . S
N25 Zn9 2.119 . S
N25 C21 1.328 . S
N25 C24 1.334 . S
N26 C22 1.331 . S
N26 C23 1.329 . S
H27 C21 0.930 . S
C28 O8 1.257 . S
C28 O29 1.244 1_556 S
O29 C28 1.244 1_554 S
O30 C6 1.257 . S
O30 Zn9 2.019 . S
H31 C24 0.930 . S
H32 C11 0.930 . S
H33 C23 0.930 . S
Zn34 N38 2.020 . S
Zn34 O42 2.019 . S
Zn34 N44 2.119 . S
Zn34 O52 1.975 . S
C35 N36 1.334 . S
C35 N39 1.336 . S
N36 C35 1.334 . S
N36 C37 1.334 . S
C37 N36 1.334 . S
C37 N38 1.336 . S
N38 Zn34 2.020 . S
N38 C37 1.336 . S
N38 N39 1.354 . S
N39 C35 1.336 . S
N39 N38 1.354 . S
N39 Zn43 2.020 . S
C40 O41 1.244 . S
C40 O64 1.257 . S
O41 C40 1.244 . S
O42 Zn34 2.019 . S
O42 C62 1.257 . S
Zn43 N39 2.020 . S
Zn43 O50 1.975 . S
Zn43 N59 2.119 . S
Zn43 O64 2.019 . S
N44 Zn34 2.119 . S
N44 C46 1.334 . S
N44 C47 1.328 . S
C45 C46 1.391 . S
C45 N48 1.329 . S
C45 H66 0.930 . S
C46 N44 1.334 . S
C46 C45 1.391 . S
C46 H53 0.930 . S
C47 N44 1.328 . S
C47 C49 1.392 . S
C47 H54 0.930 . S
N48 C45 1.329 . S
N48 C49 1.331 . S
C49 C47 1.392 . S
C49 N48 1.331 . S
O50 Zn43 1.975 . S
O50 C51 1.252 . S
C51 O50 1.252 . S
C51 O52 1.252 . S
O52 Zn34 1.975 . S
O52 C51 1.252 . S
H53 C46 0.930 . S
H54 C47 0.930 . S
C55 C56 1.392 . S
C55 N59 1.328 1_556 S
C55 H61 0.930 . S
C56 C55 1.392 . S
C56 N60 1.331 . S
C57 C58 1.391 . S
C57 N60 1.329 . S
C57 H67 0.930 . S
C58 C57 1.391 . S
C58 N59 1.334 1_556 S
C58 H65 0.930 1_556 S
N59 Zn43 2.119 . S
N59 C55 1.328 1_554 S
N59 C58 1.334 1_554 S
N60 C56 1.331 . S
N60 C57 1.329 . S
H61 C55 0.930 . S
C62 O42 1.257 . S
C62 O63 1.244 . S
O63 C62 1.244 . S
O64 C40 1.257 . S
O64 Zn43 2.019 . S
H65 C58 0.930 1_554 S
H66 C45 0.930 . S
H67 C57 0.930 . S
Zn68 N72 2.020 . S
Zn68 O76 2.019 . S
Zn68 N78 2.119 . S
Zn68 O86 1.975 . S
C69 N70 1.334 . S
C69 N73 1.336 . S
N70 C69 1.334 . S
N70 C71 1.334 . S
C71 N70 1.334 . S
C71 N72 1.336 . S
N72 Zn68 2.020 . S
N72 C71 1.336 . S
N72 N73 1.354 . S
N73 C69 1.336 . S
N73 N72 1.354 . S
N73 Zn77 2.020 1_554 S
C74 O75 1.244 1_556 S
C74 O98 1.257 . S
O75 C74 1.244 1_554 S
O76 Zn68 2.019 . S
O76 C96 1.257 . S
Zn77 N73 2.020 1_556 S
Zn77 O84 1.975 1_556 S
Zn77 N93 2.119 . S
Zn77 O98 2.019 . S
N78 Zn68 2.119 . S
N78 C80 1.334 . S
N78 C81 1.328 . S
C79 C80 1.391 . S
C79 N82 1.329 . S
C79 H100 0.930 . S
C80 N78 1.334 . S
C80 C79 1.391 . S
C80 H87 0.930 . S
C81 N78 1.328 . S
C81 C83 1.392 . S
C81 H88 0.930 . S
N82 C79 1.329 . S
N82 C83 1.331 . S
C83 C81 1.392 . S
C83 N82 1.331 . S
O84 Zn77 1.975 1_554 S
O84 C85 1.252 . S
C85 O84 1.252 . S
C85 O86 1.252 . S
O86 Zn68 1.975 . S
O86 C85 1.252 . S
H87 C80 0.930 . S
H88 C81 0.930 . S
C89 C90 1.392 . S
C89 N93 1.328 . S
C89 H95 0.930 . S
C90 C89 1.392 . S
C90 N94 1.331 . S
C91 C92 1.391 . S
C91 N94 1.329 . S
C91 H101 0.930 . S
C92 C91 1.391 . S
C92 N93 1.334 . S
C92 H99 0.930 . S
N93 Zn77 2.119 . S
N93 C89 1.328 . S
N93 C92 1.334 . S
N94 C90 1.331 . S
N94 C91 1.329 . S
H95 C89 0.930 . S
C96 O76 1.257 . S
C96 O97 1.244 . S
O97 C96 1.244 . S
O98 C74 1.257 . S
O98 Zn77 2.019 . S
H99 C92 0.930 . S
H100 C79 0.930 . S
H101 C91 0.930 . S
Zn102 N106 2.020 . S
Zn102 O110 2.019 . S
Zn102 N112 2.119 . S
Zn102 O120 1.975 . S
C103 N104 1.334 . S
C103 N107 1.336 . S
N104 C103 1.334 . S
N104 C105 1.334 . S
C105 N104 1.334 . S
C105 N106 1.336 . S
N106 Zn102 2.020 . S
N106 C105 1.336 . S
N106 N107 1.354 . S
N107 C103 1.336 . S
N107 N106 1.354 . S
N107 Zn111 2.020 . S
C108 O109 1.244 . S
C108 O132 1.257 . S
O109 C108 1.244 . S
O110 Zn102 2.019 . S
O110 C130 1.257 . S
Zn111 N107 2.020 . S
Zn111 O118 1.975 . S
Zn111 N127 2.119 . S
Zn111 O132 2.019 . S
N112 Zn102 2.119 . S
N112 C114 1.334 . S
N112 C115 1.328 . S
C113 C114 1.391 . S
C113 N116 1.329 . S
C113 H134 0.930 . S
C114 N112 1.334 . S
C114 C113 1.391 . S
C114 H121 0.930 . S
C115 N112 1.328 . S
C115 C117 1.392 . S
C115 H122 0.930 . S
N116 C113 1.329 . S
N116 C117 1.331 . S
C117 C115 1.392 . S
C117 N116 1.331 . S
O118 Zn111 1.975 . S
O118 C119 1.252 . S
C119 O118 1.252 . S
C119 O120 1.252 . S
O120 Zn102 1.975 . S
O120 C119 1.252 . S
H121 C114 0.930 . S
H122 C115 0.930 . S
C123 C124 1.392 . S
C123 N127 1.328 1_556 S
C123 H129 0.930 . S
C124 C123 1.392 . S
C124 N128 1.331 . S
C125 C126 1.391 . S
C125 N128 1.329 . S
C125 H135 0.930 . S
C126 C125 1.391 . S
C126 N127 1.334 1_556 S
C126 H133 0.930 1_556 S
N127 Zn111 2.119 . S
N127 C123 1.328 1_554 S
N127 C126 1.334 1_554 S
N128 C124 1.331 . S
N128 C125 1.329 . S
H129 C123 0.930 . S
C130 O110 1.257 . S
C130 O131 1.244 . S
O131 C130 1.244 . S
O132 C108 1.257 . S
O132 Zn111 2.019 . S
H133 C126 0.930 1_554 S
H134 C113 0.930 . S
H135 C125 0.930 . S
Zn136 N140 2.020 . S
Zn136 O144 2.019 . S
Zn136 N146 2.119 . S
Zn136 O154 1.975 . S
C137 N138 1.334 . S
C137 N141 1.336 . S
N138 C137 1.334 . S
N138 C139 1.334 . S
C139 N138 1.334 . S
C139 N140 1.336 . S
N140 Zn136 2.020 . S
N140 C139 1.336 . S
N140 N141 1.354 . S
N141 C137 1.336 . S
N141 N140 1.354 . S
N141 Zn145 2.020 1_554 S
C142 O143 1.244 1_556 S
C142 O166 1.257 . S
O143 C142 1.244 1_554 S
O144 Zn136 2.019 . S
O144 C164 1.257 . S
Zn145 N141 2.020 1_556 S
Zn145 O152 1.975 1_556 S
Zn145 N161 2.119 . S
Zn145 O166 2.019 . S
N146 Zn136 2.119 . S
N146 C148 1.334 . S
N146 C149 1.328 . S
C147 C148 1.391 . S
C147 N150 1.329 . S
C147 H168 0.930 . S
C148 N146 1.334 . S
C148 C147 1.391 . S
C148 H155 0.930 . S
C149 N146 1.328 . S
C149 C151 1.392 . S
C149 H156 0.930 . S
N150 C147 1.329 . S
N150 C151 1.331 . S
C151 C149 1.392 . S
C151 N150 1.331 . S
O152 Zn145 1.975 1_554 S
O152 C153 1.252 . S
C153 O152 1.252 . S
C153 O154 1.252 . S
O154 Zn136 1.975 . S
O154 C153 1.252 . S
H155 C148 0.930 . S
H156 C149 0.930 . S
C157 C158 1.392 . S
C157 N161 1.328 . S
C157 H163 0.930 . S
C158 C157 1.392 . S
C158 N162 1.331 . S
C159 C160 1.391 . S
C159 N162 1.329 . S
C159 H169 0.930 . S
C160 C159 1.391 . S
C160 N161 1.334 . S
C160 H167 0.930 . S
N161 Zn145 2.119 . S
N161 C157 1.328 . S
N161 C160 1.334 . S
N162 C158 1.331 . S
N162 C159 1.329 . S
H163 C157 0.930 . S
C164 O144 1.257 . S
C164 O165 1.244 . S
O165 C164 1.244 . S
O166 C142 1.257 . S
O166 Zn145 2.019 . S
H167 C160 0.930 . S
H168 C147 0.930 . S
H169 C159 0.930 . S
Zn170 N174 2.020 . S
Zn170 O178 2.019 . S
Zn170 N180 2.119 . S
Zn170 O188 1.975 . S
C171 N172 1.334 . S
C171 N175 1.336 . S
N172 C171 1.334 . S
N172 C173 1.334 . S
C173 N172 1.334 . S
C173 N174 1.336 . S
N174 Zn170 2.020 . S
N174 C173 1.336 . S
N174 N175 1.354 . S
N175 C171 1.336 . S
N175 N174 1.354 . S
N175 Zn179 2.020 . S
C176 O177 1.244 . S
C176 O200 1.257 . S
O177 C176 1.244 . S
O178 Zn170 2.019 . S
O178 C198 1.257 . S
Zn179 N175 2.020 . S
Zn179 O186 1.975 . S
Zn179 N195 2.119 . S
Zn179 O200 2.019 . S
N180 Zn170 2.119 . S
N180 C182 1.334 1_554 S
N180 C183 1.328 1_554 S
C181 C182 1.391 . S
C181 N184 1.329 . S
C181 H202 0.930 . S
C182 N180 1.334 1_556 S
C182 C181 1.391 . S
C182 H189 0.930 1_556 S
C183 N180 1.328 1_556 S
C183 C185 1.392 . S
C183 H190 0.930 . S
N184 C181 1.329 . S
N184 C185 1.331 . S
C185 C183 1.392 . S
C185 N184 1.331 . S
O186 Zn179 1.975 . S
O186 C187 1.252 . S
C187 O186 1.252 . S
C187 O188 1.252 . S
O188 Zn170 1.975 . S
O188 C187 1.252 . S
H189 C182 0.930 1_554 S
H190 C183 0.930 . S
C191 C192 1.392 . S
C191 N195 1.328 . S
C191 H197 0.930 . S
C192 C191 1.392 . S
C192 N196 1.331 . S
C193 C194 1.391 . S
C193 N196 1.329 . S
C193 H203 0.930 . S
C194 C193 1.391 . S
C194 N195 1.334 . S
C194 H201 0.930 . S
N195 Zn179 2.119 . S
N195 C191 1.328 . S
N195 C194 1.334 . S
N196 C192 1.331 . S
N196 C193 1.329 . S
H197 C191 0.930 . S
C198 O178 1.257 . S
C198 O199 1.244 . S
O199 C198 1.244 . S
O200 C176 1.257 . S
O200 Zn179 2.019 . S
H201 C194 0.930 . S
H202 C181 0.930 . S
H203 C193 0.930 . S
H204 C210 0.930 . S
H205 C213 0.930 . S
H206 C214 0.930 . S
H207 C215 0.930 . S
H208 C218 0.930 1_556 S
H209 C219 0.930 1_556 S
C210 H204 0.930 . S
C210 C211 1.355 . S
C210 C212 1.415 . S
C211 C210 1.355 . S
C211 C213 1.419 . S
C212 C210 1.415 . S
C212 C217 1.425 . S
C212 C219 1.409 . S
C213 H205 0.930 . S
C213 C211 1.419 . S
C213 C214 1.362 . S
C214 H206 0.930 . S
C214 C213 1.362 . S
C214 C217 1.409 . S
C215 H207 0.930 . S
C215 C216 1.355 . S
C215 C217 1.415 . S
C216 C215 1.355 . S
C216 C218 1.419 . S
C217 C212 1.425 . S
C217 C214 1.409 . S
C217 C215 1.415 . S
C218 H208 0.930 1_554 S
C218 C216 1.419 . S
C218 C219 1.362 . S
C219 H209 0.930 1_554 S
C219 C212 1.409 . S
C219 C218 1.362 . S
H220 C226 0.930 . S
H221 C229 0.956 . S
H222 C230 0.930 . S
H223 C231 0.930 . S
H224 C234 0.930 . S
H225 C235 0.930 . S
C226 H220 0.930 . S
C226 C227 1.355 1_655 S
C226 C228 1.415 . S
C227 C226 1.355 1_455 S
C227 C229 1.416 . S
C228 C226 1.415 . S
C228 C233 1.425 . S
C228 C235 1.409 . S
C229 H221 0.956 . S
C229 C227 1.416 . S
C229 C230 1.339 1_455 S
C230 H222 0.930 . S
C230 C229 1.339 1_655 S
C230 C233 1.409 . S
C231 H223 0.930 . S
C231 C232 1.355 . S
C231 C233 1.415 . S
C232 C231 1.355 . S
C232 C234 1.419 . S
C233 C228 1.425 . S
C233 C230 1.409 . S
C233 C231 1.415 . S
C234 H224 0.930 . S
C234 C232 1.419 . S
C234 C235 1.362 . S
C235 H225 0.930 . S
C235 C228 1.409 . S
C235 C234 1.362 . S
H236 C242 0.930 1_556 S
H237 C245 0.930 . S
H238 C246 0.930 . S
H239 C247 0.930 . S
H240 C250 0.930 . S
H241 C251 0.930 1_556 S
C242 H236 0.930 1_554 S
C242 C243 1.355 . S
C242 C244 1.415 . S
C243 C242 1.355 . S
C243 C245 1.419 . S
C244 C242 1.415 . S
C244 C249 1.425 . S
C244 C251 1.409 . S
C245 H237 0.930 . S
C245 C243 1.419 . S
C245 C246 1.362 . S
C246 H238 0.930 . S
C246 C245 1.362 . S
C246 C249 1.409 . S
C247 H239 0.930 . S
C247 C248 1.355 1_565 S
C247 C249 1.415 . S
C248 C247 1.355 1_545 S
C248 C250 1.419 . S
C249 C244 1.425 . S
C249 C246 1.409 . S
C249 C247 1.415 . S
C250 H240 0.930 . S
C250 C248 1.419 . S
C250 C251 1.362 1_545 S
C251 H241 0.930 1_554 S
C251 C244 1.409 . S
C251 C250 1.362 1_565 S
H252 C258 0.930 . S
H253 C261 0.930 . S
H254 C262 0.930 1_556 S
H255 C263 0.930 . S
H256 C266 0.930 . S
H257 C267 0.930 . S
C258 H252 0.930 . S
C258 C259 1.355 . S
C258 C260 1.415 . S
C259 C258 1.355 . S
C259 C261 1.419 . S
C260 C258 1.415 . S
C260 C265 1.425 . S
C260 C267 1.409 . S
C261 H253 0.930 . S
C261 C259 1.419 . S
C261 C262 1.362 . S
C262 H254 0.930 1_554 S
C262 C261 1.362 . S
C262 C265 1.409 . S
C263 H255 0.930 . S
C263 C264 1.355 . S
C263 C265 1.415 . S
C264 C263 1.355 . S
C264 C266 1.419 . S
C265 C260 1.425 . S
C265 C262 1.409 . S
C265 C263 1.415 . S
C266 H256 0.930 . S
C266 C264 1.419 . S
C266 C267 1.362 . S
C267 H257 0.930 . S
C267 C260 1.409 . S
C267 C266 1.362 . S
H268 C274 0.930 . S
H269 C277 0.930 1_556 S
H270 C278 0.930 . S
H271 C279 0.928 . S
H272 C282 0.930 . S
H273 C283 0.930 . S
C274 H268 0.930 . S
C274 C275 1.355 . S
C274 C276 1.415 . S
C275 C274 1.355 . S
C275 C277 1.419 . S
C276 C274 1.415 . S
C276 C281 1.425 . S
C276 C283 1.409 . S
C277 H269 0.930 1_554 S
C277 C275 1.419 . S
C277 C278 1.362 . S
C278 H270 0.930 . S
C278 C277 1.362 . S
C278 C281 1.409 . S
C279 H271 0.928 . S
C279 C280 1.355 1_455 S
C279 C281 1.415 . S
C280 C279 1.355 1_655 S
C280 C282 1.419 . S
C281 C276 1.425 . S
C281 C278 1.409 . S
C281 C279 1.415 . S
C282 H272 0.930 . S
C282 C280 1.419 . S
C282 C283 1.362 1_655 S
C283 H273 0.930 . S
C283 C276 1.409 . S
C283 C282 1.362 1_455 S
H284 C290 0.930 . S
H285 C293 0.930 1_565 S
H286 C294 0.930 . S
H287 C295 0.930 . S
H288 C298 0.930 . S
H289 C299 0.930 . S
C290 H284 0.930 . S
C290 C291 1.355 1_545 S
C290 C292 1.415 . S
C291 C290 1.355 1_565 S
C291 C293 1.419 1_565 S
C292 C290 1.415 . S
C292 C297 1.425 . S
C292 C299 1.409 . S
C293 H285 0.930 1_545 S
C293 C291 1.419 1_545 S
C293 C294 1.362 . S
C294 H286 0.930 . S
C294 C293 1.362 . S
C294 C297 1.409 . S
C295 H287 0.930 . S
C295 C296 1.355 . S
C295 C297 1.415 . S
C296 C295 1.355 . S
C296 C298 1.419 . S
C297 C292 1.425 . S
C297 C294 1.409 . S
C297 C295 1.415 . S
C298 H288 0.930 . S
C298 C296 1.419 . S
C298 C299 1.362 . S
C299 H289 0.930 . S
C299 C292 1.409 . S
C299 C298 1.362 . S
H300 C306 0.930 . S
H301 C309 0.930 . S
H302 C310 0.930 . S
H303 C311 0.930 . S
H304 C314 0.930 . S
H305 C315 0.930 . S
C306 H300 0.930 . S
C306 C307 1.355 . S
C306 C308 1.415 . S
C307 C306 1.355 . S
C307 C309 1.419 . S
C308 C306 1.415 . S
C308 C313 1.425 . S
C308 C315 1.409 . S
C309 H301 0.930 . S
C309 C307 1.419 . S
C309 C310 1.362 . S
C310 H302 0.930 . S
C310 C309 1.362 . S
C310 C313 1.409 . S
C311 H303 0.930 . S
C311 C312 1.355 . S
C311 C313 1.415 . S
C312 C311 1.355 . S
C312 C314 1.419 . S
C313 C308 1.425 . S
C313 C310 1.409 . S
C313 C311 1.415 . S
C314 H304 0.930 . S
C314 C312 1.419 . S
C314 C315 1.362 . S
C315 H305 0.930 . S
C315 C308 1.409 . S
C315 C314 1.362 . S
H316 C322 0.930 . S
H317 C325 0.930 . S
H318 C326 0.930 . S
H319 C327 0.930 . S
H320 C330 0.930 . S
H321 C331 0.930 . S
C322 H316 0.930 . S
C322 C323 1.355 . S
C322 C324 1.415 . S
C323 C322 1.355 . S
C323 C325 1.419 . S
C324 C322 1.415 . S
C324 C329 1.425 . S
C324 C331 1.409 . S
C325 H317 0.930 . S
C325 C323 1.419 . S
C325 C326 1.362 . S
C326 H318 0.930 . S
C326 C325 1.362 . S
C326 C329 1.409 . S
C327 H319 0.930 . S
C327 C328 1.355 . S
C327 C329 1.415 . S
C328 C327 1.355 . S
C328 C330 1.419 . S
C329 C324 1.425 . S
C329 C326 1.409 . S
C329 C327 1.415 . S
C330 H320 0.930 . S
C330 C328 1.419 . S
C330 C331 1.362 . S
C331 H321 0.930 . S
C331 C324 1.409 . S
C331 C330 1.362 . S
H332 C338 0.930 . S
H333 C341 0.930 . S
H334 C342 0.930 . S
H335 C343 0.930 . S
H336 C346 0.930 . S
H337 C347 0.930 . S
C338 H332 0.930 . S
C338 C339 1.355 . S
C338 C340 1.415 . S
C339 C338 1.355 . S
C339 C341 1.419 . S
C340 C338 1.415 . S
C340 C345 1.425 . S
C340 C347 1.409 . S
C341 H333 0.930 . S
C341 C339 1.419 . S
C341 C342 1.362 . S
C342 H334 0.930 . S
C342 C341 1.362 . S
C342 C345 1.409 . S
C343 H335 0.930 . S
C343 C344 1.355 . S
C343 C345 1.415 . S
C344 C343 1.355 . S
C344 C346 1.419 . S
C345 C340 1.425 . S
C345 C342 1.409 . S
C345 C343 1.415 . S
C346 H336 0.930 . S
C346 C344 1.419 . S
C346 C347 1.362 . S
C347 H337 0.930 . S
C347 C340 1.409 . S
C347 C346 1.362 . S
H348 C354 0.930 . S
H349 C357 0.930 . S
H350 C358 0.930 . S
H351 C359 0.930 . S
H352 C362 0.930 . S
H353 C363 0.930 . S
C354 H348 0.930 . S
C354 C355 1.355 . S
C354 C356 1.415 . S
C355 C354 1.355 . S
C355 C357 1.419 . S
C356 C354 1.415 . S
C356 C361 1.425 . S
C356 C363 1.409 . S
C357 H349 0.930 . S
C357 C355 1.419 . S
C357 C358 1.362 . S
C358 H350 0.930 . S
C358 C357 1.362 . S
C358 C361 1.409 . S
C359 H351 0.930 . S
C359 C360 1.355 . S
C359 C361 1.415 . S
C360 C359 1.355 . S
C360 C362 1.419 . S
C361 C356 1.425 . S
C361 C358 1.409 . S
C361 C359 1.415 . S
C362 H352 0.930 . S
C362 C360 1.419 . S
C362 C363 1.362 . S
C363 H353 0.930 . S
C363 C356 1.409 . S
C363 C362 1.362 . S
H364 C370 0.930 . S
H365 C373 0.930 . S
H366 C374 0.930 . S
H367 C375 0.930 . S
H368 C378 0.930 . S
H369 C379 0.930 . S
C370 H364 0.930 . S
C370 C371 1.355 . S
C370 C372 1.415 . S
C371 C370 1.355 . S
C371 C373 1.419 . S
C372 C370 1.415 . S
C372 C377 1.425 . S
C372 C379 1.409 . S
C373 H365 0.930 . S
C373 C371 1.419 . S
C373 C374 1.362 . S
C374 H366 0.930 . S
C374 C373 1.362 . S
C374 C377 1.409 . S
C375 H367 0.930 . S
C375 C376 1.355 . S
C375 C377 1.415 . S
C376 C375 1.355 . S
C376 C378 1.419 . S
C377 C372 1.425 . S
C377 C374 1.409 . S
C377 C375 1.415 . S
C378 H368 0.930 . S
C378 C376 1.419 . S
C378 C379 1.362 . S
C379 H369 0.930 . S
C379 C372 1.409 . S
C379 C378 1.362 . S
H380 C386 0.930 . S
H381 C389 0.930 . S
H382 C390 0.930 . S
H383 C391 0.930 . S
H384 C394 0.930 . S
H385 C395 0.930 . S
C386 H380 0.930 . S
C386 C387 1.355 . S
C386 C388 1.415 . S
C387 C386 1.355 . S
C387 C389 1.419 . S
C388 C386 1.415 . S
C388 C393 1.425 . S
C388 C395 1.409 . S
C389 H381 0.930 . S
C389 C387 1.419 . S
C389 C390 1.362 . S
C390 H382 0.930 . S
C390 C389 1.362 . S
C390 C393 1.409 . S
C391 H383 0.930 . S
C391 C392 1.355 . S
C391 C393 1.415 . S
C392 C391 1.355 . S
C392 C394 1.419 . S
C393 C388 1.425 . S
C393 C390 1.409 . S
C393 C391 1.415 . S
C394 H384 0.930 . S
C394 C392 1.419 . S
C394 C395 1.362 . S
C395 H385 0.930 . S
C395 C388 1.409 . S
C395 C394 1.362 . S
H396 C402 0.930 . S
H397 C405 0.930 . S
H398 C406 0.930 . S
H399 C407 0.930 . S
H400 C410 0.930 . S
H401 C411 0.930 . S
C402 H396 0.930 . S
C402 C403 1.355 . S
C402 C404 1.415 . S
C403 C402 1.355 . S
C403 C405 1.419 1_556 S
C404 C402 1.415 . S
C404 C409 1.425 1_556 S
C404 C411 1.409 . S
C405 H397 0.930 . S
C405 C403 1.419 1_554 S
C405 C406 1.362 . S
C406 H398 0.930 . S
C406 C405 1.362 . S
C406 C409 1.409 . S
C407 H399 0.930 . S
C407 C408 1.355 1_554 S
C407 C409 1.415 . S
C408 C407 1.355 1_556 S
C408 C410 1.419 . S
C409 C404 1.425 1_554 S
C409 C406 1.409 . S
C409 C407 1.415 . S
C410 H400 0.930 . S
C410 C408 1.419 . S
C410 C411 1.362 . S
C411 H401 0.930 . S
C411 C404 1.409 . S
C411 C410 1.362 . S
H412 C418 0.930 . S
H413 C421 0.930 . S
H414 C422 0.930 . S
H415 C423 0.930 . S
H416 C426 0.930 . S
H417 C427 0.930 . S
C418 H412 0.930 . S
C418 C419 1.355 . S
C418 C420 1.415 . S
C419 C418 1.355 . S
C419 C421 1.419 . S
C420 C418 1.415 . S
C420 C425 1.425 . S
C420 C427 1.409 . S
C421 H413 0.930 . S
C421 C419 1.419 . S
C421 C422 1.362 . S
C422 H414 0.930 . S
C422 C421 1.362 . S
C422 C425 1.409 . S
C423 H415 0.930 . S
C423 C424 1.355 . S
C423 C425 1.415 . S
C424 C423 1.355 . S
C424 C426 1.419 . S
C425 C420 1.425 . S
C425 C422 1.409 . S
C425 C423 1.415 . S
C426 H416 0.930 . S
C426 C424 1.419 . S
C426 C427 1.362 . S
C427 H417 0.930 . S
C427 C420 1.409 . S
C427 C426 1.362 . S
H428 C434 0.930 . S
H429 C437 0.930 . S
H430 C438 0.930 . S
H431 C439 0.930 . S
H432 C442 0.930 . S
H433 C443 0.930 . S
C434 H428 0.930 . S
C434 C435 1.355 1_554 S
C434 C436 1.415 . S
C435 C434 1.355 1_556 S
C435 C437 1.419 . S
C436 C434 1.415 . S
C436 C441 1.425 1_554 S
C436 C443 1.409 . S
C437 H429 0.930 . S
C437 C435 1.419 . S
C437 C438 1.362 . S
C438 H430 0.930 . S
C438 C437 1.362 . S
C438 C441 1.409 . S
C439 H431 0.930 . S
C439 C440 1.355 . S
C439 C441 1.415 . S
C440 C439 1.355 . S
C440 C442 1.419 1_556 S
C441 C436 1.425 1_556 S
C441 C438 1.409 . S
C441 C439 1.415 . S
C442 H432 0.930 . S
C442 C440 1.419 1_554 S
C442 C443 1.362 . S
C443 H433 0.930 . S
C443 C436 1.409 . S
C443 C442 1.362 . S
H444 C450 0.930 . S
H445 C453 0.930 . S
H446 C454 0.930 . S
H447 C455 0.930 . S
H448 C458 0.930 . S
H449 C459 0.930 . S
C450 H444 0.930 . S
C450 C451 1.355 . S
C450 C452 1.415 . S
C451 C450 1.355 . S
C451 C453 1.419 . S
C452 C450 1.415 . S
C452 C457 1.425 . S
C452 C459 1.409 . S
C453 H445 0.930 . S
C453 C451 1.419 . S
C453 C454 1.362 . S
C454 H446 0.930 . S
C454 C453 1.362 . S
C454 C457 1.409 . S
C455 H447 0.930 . S
C455 C456 1.355 . S
C455 C457 1.415 . S
C456 C455 1.355 . S
C456 C458 1.419 . S
C457 C452 1.425 . S
C457 C454 1.409 . S
C457 C455 1.415 . S
C458 H448 0.930 . S
C458 C456 1.419 . S
C458 C459 1.362 . S
C459 H449 0.930 . S
C459 C452 1.409 . S
C459 C458 1.362 . S
H460 C466 0.930 . S
H461 C469 0.930 . S
H462 C470 0.930 . S
H463 C471 0.930 . S
H464 C474 0.930 . S
H465 C475 0.930 . S
C466 H460 0.930 . S
C466 C467 1.357 . S
C466 C468 1.415 . S
C467 C466 1.357 . S
C467 C469 1.417 1_556 S
C468 C466 1.415 . S
C468 C473 1.425 1_556 S
C468 C475 1.409 . S
C469 H461 0.930 . S
C469 C467 1.417 1_554 S
C469 C470 1.362 . S
C470 H462 0.930 . S
C470 C469 1.362 . S
C470 C473 1.409 . S
C471 H463 0.930 . S
C471 C472 1.355 1_554 S
C471 C473 1.415 . S
C472 C471 1.355 1_556 S
C472 C474 1.419 . S
C473 C468 1.425 1_554 S
C473 C470 1.409 . S
C473 C471 1.415 . S
C474 H464 0.930 . S
C474 C472 1.419 . S
C474 C475 1.362 . S
C475 H465 0.930 . S
C475 C468 1.409 . S
C475 C474 1.362 . S
H476 C482 0.930 . S
H477 C485 0.930 . S
H478 C486 0.930 . S
H479 C487 0.930 . S
H480 C490 0.930 . S
H481 C491 0.930 . S
C482 H476 0.930 . S
C482 C483 1.355 . S
C482 C484 1.415 . S
C483 C482 1.355 . S
C483 C485 1.419 . S
C484 C482 1.415 . S
C484 C489 1.425 . S
C484 C491 1.409 . S
C485 H477 0.930 . S
C485 C483 1.419 . S
C485 C486 1.362 . S
C486 H478 0.930 . S
C486 C485 1.362 . S
C486 C489 1.409 . S
C487 H479 0.930 . S
C487 C488 1.355 . S
C487 C489 1.415 . S
C488 C487 1.355 . S
C488 C490 1.419 . S
C489 C484 1.425 . S
C489 C486 1.409 . S
C489 C487 1.415 . S
C490 H480 0.930 . S
C490 C488 1.419 . S
C490 C491 1.362 . S
C491 H481 0.930 . S
C491 C484 1.409 . S
C491 C490 1.362 . S
H492 C498 0.930 . S
H493 C501 0.930 . S
H494 C502 0.930 . S
H495 C503 0.930 . S
H496 C506 0.930 . S
H497 C507 0.930 1_655 S
C498 H492 0.930 . S
C498 C499 1.355 . S
C498 C500 1.415 1_655 S
C499 C498 1.355 . S
C499 C501 1.419 1_655 S
C500 C498 1.415 1_455 S
C500 C505 1.425 . S
C500 C507 1.409 . S
C501 H493 0.930 . S
C501 C499 1.419 1_455 S
C501 C502 1.362 . S
C502 H494 0.930 . S
C502 C501 1.362 . S
C502 C505 1.409 . S
C503 H495 0.930 . S
C503 C504 1.355 . S
C503 C505 1.415 . S
C504 C503 1.355 . S
C504 C506 1.419 . S
C505 C500 1.425 . S
C505 C502 1.409 . S
C505 C503 1.415 . S
C506 H496 0.930 . S
C506 C504 1.419 . S
C506 C507 1.362 . S
C507 H497 0.930 1_455 S
C507 C500 1.409 . S
C507 C506 1.362 . S
H508 C514 0.930 . S
H509 C517 0.930 . S
H510 C518 0.930 . S
H511 C519 0.930 . S
H512 C522 0.930 . S
H513 C523 0.930 1_545 S
C514 H508 0.930 . S
C514 C515 1.355 . S
C514 C516 1.415 1_545 S
C515 C514 1.355 . S
C515 C517 1.419 1_545 S
C516 C514 1.415 1_565 S
C516 C521 1.425 . S
C516 C523 1.409 . S
C517 H509 0.930 . S
C517 C515 1.419 1_565 S
C517 C518 1.362 . S
C518 H510 0.930 . S
C518 C517 1.362 . S
C518 C521 1.409 . S
C519 H511 0.930 . S
C519 C520 1.355 . S
C519 C521 1.415 . S
C520 C519 1.355 . S
C520 C522 1.419 . S
C521 C516 1.425 . S
C521 C518 1.409 . S
C521 C519 1.415 . S
C522 H512 0.930 . S
C522 C520 1.419 . S
C522 C523 1.362 . S
C523 H513 0.930 1_565 S
C523 C516 1.409 . S
C523 C522 1.362 . S
H524 C530 0.930 . S
H525 C533 0.930 . S
H526 C534 0.930 . S
H527 C535 0.930 . S
H528 C538 0.930 . S
H529 C539 0.930 . S
C530 H524 0.930 . S
C530 C531 1.355 . S
C530 C532 1.415 . S
C531 C530 1.355 . S
C531 C533 1.419 . S
C532 C530 1.415 . S
C532 C537 1.425 . S
C532 C539 1.409 . S
C533 H525 0.930 . S
C533 C531 1.419 . S
C533 C534 1.362 . S
C534 H526 0.930 . S
C534 C533 1.362 . S
C534 C537 1.409 . S
C535 H527 0.930 . S
C535 C536 1.355 . S
C535 C537 1.415 . S
C536 C535 1.355 . S
C536 C538 1.419 . S
C537 C532 1.425 . S
C537 C534 1.409 . S
C537 C535 1.415 . S
C538 H528 0.930 . S
C538 C536 1.419 . S
C538 C539 1.362 . S
C539 H529 0.930 . S
C539 C532 1.409 . S
C539 C538 1.362 . S
C211 C187 1.588 . S
C216 C17 1.529 . S
C227 C6 1.211 . S
C232 C40 1.219 . S
C243 C85 1.503 . S
C248 C51 1.553 . S
C259 C108 1.219 . S
C264 C96 1.211 . S
C275 C153 1.498 . S
C280 C119 1.587 . S
C291 C164 1.169 . S
C296 C198 1.232 . S
C307 C15 1.723 . S
C312 C22 1.725 . S
C323 C49 1.826 . S
C328 C56 1.829 . S
C339 C90 1.620 . S
C344 C83 1.623 . S
C355 C124 1.855 . S
C360 C117 1.852 . S
C371 C151 1.727 . S
C376 C158 1.725 . S
C387 C192 1.799 . S
C392 C185 1.807 . S
C403 C142 1.427 . S
C408 C3 1.325 1_556 S
C419 C173 1.911 . S
C424 C37 1.855 . S
C435 C28 1.414 . S
C440 C69 1.203 1_556 S
C451 C105 1.867 . S
C456 C35 1.846 . S
C467 C74 1.406 . S
C472 C137 1.284 1_556 S
C483 C103 1.898 . S
C488 C171 1.936 . S
C499 C130 1.477 . S
C504 C1 1.350 . S
C515 C62 1.457 . S
C520 C139 1.399 . S
C531 C176 1.434 . S
C536 C71 1.336 . S
