# Generated by pormake.
# Topology vme, (6)-cn, num edge types: 1
# Building blocks:
#     Node 0, Type 0, BuildingBlock: MIDCAF_clean_sbu_0, # of connection points: 6
#     Node 1, Type 0, BuildingBlock: MIDCAF_clean_sbu_0, # of connection points: 6
#     Node 2, Type 0, BuildingBlock: MIDCAF_clean_sbu_0, # of connection points: 6
#     Node 3, Type 0, BuildingBlock: MIDCAF_clean_sbu_0, # of connection points: 6
#     Edge 4, Type (0, 0), BuildingBlock: MIFKUJ_clean_linker_0, # of connection points: 2
#     Edge 5, Type (0, 0), BuildingBlock: MIFKUJ_clean_linker_0, # of connection points: 2
#     Edge 6, Type (0, 0), BuildingBlock: MIFKUJ_clean_linker_0, # of connection points: 2
#     Edge 7, Type (0, 0), BuildingBlock: MIFKUJ_clean_linker_0, # of connection points: 2
#     Edge 8, Type (0, 0), BuildingBlock: MIFKUJ_clean_linker_0, # of connection points: 2
#     Edge 9, Type (0, 0), BuildingBlock: MIFKUJ_clean_linker_0, # of connection points: 2
#     Edge 10, Type (0, 0), BuildingBlock: MIFKUJ_clean_linker_0, # of connection points: 2
#     Edge 11, Type (0, 0), BuildingBlock: MIFKUJ_clean_linker_0, # of connection points: 2
#     Edge 12, Type (0, 0), BuildingBlock: MIFKUJ_clean_linker_0, # of connection points: 2
#     Edge 13, Type (0, 0), BuildingBlock: MIFKUJ_clean_linker_0, # of connection points: 2
#     Edge 14, Type (0, 0), BuildingBlock: MIFKUJ_clean_linker_0, # of connection points: 2
#     Edge 15, Type (0, 0), BuildingBlock: MIFKUJ_clean_linker_0, # of connection points: 2
# Relax obj value: 0.251
# Max RMSD: 0.208
# Mean RMSD: 0.208
data_MOF--net-vme--node1-MIDCAF_clean_sbu_0--edge1-MIFKUJ_clean_linker_0
_symmetry_space_group_name_H-M    P1
_symmetry_Int_Tables_number       1
_symmetry_cell_setting            triclinic
loop_
_symmetry_equiv_pos_as_xyz
'x, y, z'
_cell_length_a     30.566566
_cell_length_b     32.827161
_cell_length_c     34.726233
_cell_angle_alpha  89.878277
_cell_angle_beta   105.98366
_cell_angle_gamma 90.137235
loop_
_atom_site_label
_atom_site_type_symbol
_atom_site_fract_x
_atom_site_fract_y
_atom_site_fract_z
_atom_type_partial_charge
Zn0 Zn 0.22771 0.42541 0.28932 0.0
Zn1 Zn 0.13737 0.33956 0.35402 0.0
Zn2 Zn 0.18659 0.37921 0.33006 0.0
C3 C 0.21869 0.32423 0.4055 0.0
C4 C 0.11927 0.30767 0.28392 0.0
O5 O 0.1516 0.43993 0.3144 0.0
O6 O 0.18622 0.47322 0.27561 0.0
C7 C 0.28669 0.40811 0.36848 0.0
O8 O 0.22566 0.35899 0.39091 0.0
O9 O 0.18494 0.30314 0.38679 0.0
O10 O 0.09394 0.31677 0.30574 0.0
O11 O 0.1589 0.32461 0.2907 0.0
O12 O 0.28313 0.42753 0.33625 0.0
O13 O 0.25345 0.38643 0.37312 0.0
O14 O 0.19411 0.34372 0.27749 0.0
O15 O 0.22893 0.38663 0.24646 0.0
C16 C 0.21248 0.35178 0.24902 0.0
O17 O 0.13353 0.41954 0.34094 0.0
O18 O 0.11539 0.38024 0.38566 0.0
C19 C 0.15507 0.47141 0.29299 0.0
C20 C 0.11426 0.41456 0.36923 0.0
Zn21 Zn 0.78544 0.78165 0.08765 0.0
Zn22 Zn 0.78336 0.93456 0.19761 0.0
Zn23 Zn 0.80103 0.88138 0.1467 0.0
C24 C 0.78654 0.85598 0.23118 0.0
C25 C 0.70906 0.93629 0.12912 0.0
O26 O 0.82718 0.85759 0.10241 0.0
O27 O 0.82864 0.80945 0.05926 0.0
C28 C 0.83351 0.78275 0.17585 0.0
O29 O 0.79313 0.84587 0.19747 0.0
O30 O 0.78435 0.89315 0.23997 0.0
O31 O 0.72287 0.95264 0.16324 0.0
O32 O 0.73365 0.90914 0.11865 0.0
O33 O 0.82064 0.76416 0.14253 0.0
O34 O 0.82592 0.8214 0.17941 0.0
O35 O 0.7497 0.87997 0.08812 0.0
O36 O 0.7353 0.81669 0.09661 0.0
C37 C 0.73038 0.84669 0.07313 0.0
O38 O 0.85408 0.92816 0.15626 0.0
O39 O 0.8361 0.97051 0.19858 0.0
C40 C 0.84336 0.84329 0.07534 0.0
C41 C 0.86155 0.96096 0.17688 0.0
Zn42 Zn 0.75514 0.57269 0.68471 0.0
Zn43 Zn 0.81567 0.67233 0.61002 0.0
Zn44 Zn 0.79255 0.61966 0.64424 0.0
C45 C 0.73575 0.66849 0.56535 0.0
C46 C 0.84831 0.70306 0.67962 0.0
O47 O 0.83685 0.5642 0.657 0.0
O48 O 0.79953 0.52744 0.69103 0.0
C49 C 0.69007 0.5845 0.61253 0.0
O50 O 0.7443 0.63402 0.58391 0.0
O51 O 0.75816 0.69945 0.58093 0.0
O52 O 0.8597 0.70586 0.64756 0.0
O53 O 0.81974 0.6751 0.68318 0.0
O54 O 0.69489 0.56661 0.6456 0.0
O55 O 0.72296 0.60559 0.60623 0.0
O56 O 0.78993 0.65329 0.69953 0.0
O57 O 0.75738 0.60862 0.7306 0.0
C58 C 0.77381 0.64369 0.72907 0.0
O59 O 0.84735 0.58875 0.62652 0.0
O60 O 0.83991 0.63344 0.57772 0.0
C61 C 0.83276 0.5314 0.67629 0.0
C62 C 0.85477 0.59969 0.59329 0.0
Zn63 Zn 0.15457 0.15686 0.88169 0.0
Zn64 Zn 0.20634 0.06437 0.79434 0.0
Zn65 Zn 0.18385 0.11436 0.84299 0.0
C66 C 0.19505 0.14096 0.75682 0.0
C67 C 0.28023 0.07128 0.86624 0.0
O68 O 0.13135 0.08146 0.86353 0.0
O69 O 0.1404 0.11638 0.91927 0.0
C70 C 0.11749 0.18843 0.81084 0.0
O71 O 0.18302 0.15064 0.78842 0.0
O72 O 0.20675 0.10485 0.75209 0.0
O73 O 0.26585 0.0512 0.83414 0.0
O74 O 0.25491 0.09901 0.87512 0.0
O75 O 0.10295 0.18099 0.84073 0.0
O76 O 0.15393 0.17044 0.80782 0.0
O77 O 0.23703 0.12893 0.89899 0.0
O78 O 0.21025 0.19029 0.9025 0.0
C79 C 0.24107 0.16426 0.91567 0.0
O80 O 0.13869 0.05917 0.8323 0.0
O81 O 0.15567 0.02395 0.78415 0.0
C82 C 0.12484 0.08553 0.89842 0.0
C83 C 0.13156 0.02865 0.808 0.0
H84 H 0.8476 0.04084 0.16242 0.0
H85 H 0.90402 0.09419 0.16532 0.0
H86 H 0.01019 0.00375 0.18726 0.0
H87 H 0.95284 0.94951 0.1833 0.0
H88 H 0.02368 0.06828 0.24512 0.0
H89 H 0.98658 0.05213 0.10486 0.0
H90 H 0.93778 0.04577 0.03574 0.0
H91 H 0.8902 0.16805 0.03991 0.0
H92 H 0.93697 0.17474 0.10967 0.0
H93 H 0.16738 0.23998 0.27593 0.0
H94 H 0.13572 0.17611 0.24343 0.0
H95 H 0.00482 0.23375 0.1985 0.0
H96 H 0.03659 0.29751 0.23081 0.0
H97 H 0.01815 0.17785 0.14531 0.0
H98 H 0.03031 0.18418 0.28651 0.0
H99 H 0.07097 0.19324 0.35789 0.0
H100 H 0.15788 0.09224 0.3519 0.0
H101 H 0.11807 0.08299 0.28023 0.0
C102 C 0.88287 0.03219 0.16701 0.0
C103 C 0.89596 0.99114 0.17276 0.0
C104 C 0.91506 0.06272 0.16852 0.0
C105 C 0.96132 0.05304 0.17641 0.0
C106 C 0.97458 0.01184 0.18096 0.0
C107 C 0.94193 0.98094 0.17855 0.0
C108 C -0.00472 0.08672 0.1838 0.0
C109 C 0.02355 0.09159 0.22288 0.0
C110 C -0.00608 0.11783 0.15509 0.0
C111 C 0.96544 0.11389 0.11288 0.0
C112 C 0.96535 0.07757 0.09136 0.0
C113 C 0.93798 0.07387 0.05199 0.0
C114 C 0.91111 0.1065 0.03341 0.0
C115 C 0.91118 0.14281 0.0543 0.0
C116 C 0.93805 0.14653 0.09384 0.0
C117 C 0.13255 0.23953 0.2574 0.0
C118 C 0.10463 0.27382 0.25529 0.0
C119 C 0.1142 0.20283 0.23935 0.0
C120 C 0.06765 0.1999 0.21887 0.0
C121 C 0.04077 0.23516 0.21402 0.0
C122 C 0.05897 0.27163 0.23241 0.0
C123 C 0.04547 0.15965 0.20674 0.0
C124 C 0.01922 0.15383 0.16702 0.0
C125 C 0.04781 0.1279 0.23492 0.0
C126 C 0.07164 0.13322 0.27796 0.0
C127 C 0.05833 0.16411 0.30036 0.0
C128 C 0.08117 0.16926 0.34086 0.0
C129 C 0.11709 0.14341 0.35939 0.0
C130 C 0.13013 0.11229 0.33747 0.0
C131 C 0.10745 0.10708 0.29692 0.0
H132 H 0.13473 0.14742 0.39076 0.0
H133 H 0.89018 0.10364 0.00283 0.0
H134 H 0.09955 0.50121 0.22397 0.0
H135 H 0.04654 0.55844 0.21587 0.0
H136 H 0.08756 0.57752 0.34386 0.0
H137 H 0.13931 0.51907 0.35184 0.0
H138 H 0.00161 0.58581 0.31951 0.0
H139 H 0.12307 0.64116 0.27326 0.0
H140 H 0.17799 0.64401 0.23291 0.0
H141 H 0.068 0.6473 0.12491 0.0
H142 H 0.01242 0.64395 0.16457 0.0
H143 H 0.91476 0.80309 0.22951 0.0
H144 H 0.972 0.75393 0.26586 0.0
H145 H 0.87424 0.65685 0.22986 0.0
H146 H 0.81717 0.70557 0.19526 0.0
H147 H -0.00482 0.69362 0.21791 0.0
H148 H 0.88199 0.60744 0.27805 0.0
H149 H 0.83674 0.60026 0.3265 0.0
H150 H 0.94391 0.65668 0.41742 0.0
H151 H 0.98876 0.66601 0.36877 0.0
C152 C 0.09701 0.51767 0.25028 0.0
C153 C 0.12287 0.50562 0.28853 0.0
C154 C 0.06705 0.55061 0.24567 0.0
C155 C 0.06346 0.57304 0.27915 0.0
C156 C 0.08961 0.56092 0.31748 0.0
C157 C 0.11907 0.52751 0.3221 0.0
C158 C 0.03157 0.60832 0.27423 0.0
C159 C 0.00055 0.60951 0.29743 0.0
C160 C 0.0302 0.63975 0.24585 0.0
C161 C 0.06358 0.64204 0.22192 0.0
C162 C 0.1106 0.64226 0.2409 0.0
C163 C 0.14185 0.64399 0.21815 0.0
C164 C 0.1265 0.64577 0.17637 0.0
C165 C 0.07985 0.64591 0.15726 0.0
C166 C 0.04846 0.64416 0.17987 0.0
C167 C 0.90479 0.77165 0.23155 0.0
C168 C 0.86137 0.75824 0.20973 0.0
C169 C 0.93766 0.74342 0.252 0.0
C170 C 0.92742 0.70147 0.25147 0.0
C171 C 0.88283 0.68886 0.23251 0.0
C172 C 0.85015 0.71691 0.21225 0.0
C173 C 0.96457 0.67057 0.26254 0.0
C174 C -0.00335 0.67015 0.24029 0.0
C175 C 0.96721 0.64002 0.292 0.0
C176 C 0.93762 0.63935 0.31921 0.0
C177 C 0.89501 0.61995 0.30782 0.0
C178 C 0.86965 0.61507 0.33547 0.0
C179 C 0.88721 0.62839 0.37492 0.0
C180 C 0.93013 0.64671 0.38677 0.0
C181 C 0.95526 0.65227 0.35904 0.0
H182 H 0.86771 0.62428 0.39637 0.0
H183 H 0.15074 0.64709 0.15882 0.0
H184 H 0.12608 0.97786 0.86865 0.0
H185 H 0.07116 0.92193 0.86513 0.0
H186 H 0.00242 0.95599 0.74352 0.0
H187 H 0.05789 0.0109 0.74665 0.0
H188 H 0.94347 0.93504 0.79703 0.0
H189 H 0.06896 0.88684 0.74813 0.0
H190 H 0.15002 0.87381 0.75429 0.0
H191 H 0.15933 0.79972 0.85831 0.0
H192 H 0.07835 0.81289 0.85305 0.0
H193 H 0.8392 0.78296 0.66543 0.0
H194 H 0.8797 0.83793 0.70708 0.0
H195 H 0.93595 0.75223 0.80222 0.0
H196 H 0.89505 0.69634 0.75958 0.0
H197 H 0.00145 0.79626 0.78365 0.0
H198 H 0.86376 0.82852 0.81254 0.0
H199 H 0.7825 0.84342 0.80256 0.0
H200 H 0.79287 0.94745 0.73069 0.0
H201 H 0.87429 0.93356 0.74028 0.0
C202 C 0.09872 0.97363 0.84148 0.0
C203 C 0.09577 -0.00143 0.80795 0.0
C204 C 0.06753 0.94179 0.83949 0.0
C205 C 0.03272 0.93496 0.80409 0.0
C206 C 0.02881 0.96099 0.77119 0.0
C207 C 0.06048 0.99217 0.77292 0.0
C208 C 0.00258 0.8988 0.7996 0.0
C209 C 0.95586 0.90457 0.79419 0.0
C210 C 0.01926 0.85905 0.79719 0.0
C211 C 0.06792 0.85139 0.80063 0.0
C212 C 0.08846 0.8682 0.77262 0.0
C213 C 0.13433 0.8607 0.77586 0.0
C214 C 0.15987 0.8361 0.80679 0.0
C215 C 0.13954 0.81889 0.83446 0.0
C216 C 0.09368 0.82637 0.83138 0.0
C217 C 0.85912 0.77599 0.6957 0.0
C218 C 0.86414 0.73558 0.70938 0.0
C219 C 0.88213 0.80751 0.71964 0.0
C220 C 0.91076 0.79944 0.75799 0.0
C221 C 0.91389 0.75921 0.77276 0.0
C222 C 0.89041 0.72739 0.74862 0.0
C223 C 0.94147 0.83239 0.77939 0.0
C224 C 0.98864 0.82624 0.78786 0.0
C225 C 0.92491 0.87191 0.784 0.0
C226 C 0.87548 0.88001 0.77735 0.0
C227 C 0.84877 0.85441 0.79429 0.0
C228 C 0.8026 0.86269 0.78873 0.0
C229 C 0.78248 0.89618 0.76587 0.0
C230 C 0.80852 0.92156 0.74852 0.0
C231 C 0.85479 0.91364 0.75423 0.0
H232 H 0.74673 0.90251 0.7617 0.0
H233 H 0.19537 0.83026 0.80922 0.0
H234 H 0.92451 0.53426 0.68161 0.0
H235 H 0.97912 0.47756 0.69866 0.0
H236 H 0.86987 0.39576 0.70293 0.0
H237 H 0.81584 0.45166 0.68584 0.0
H238 H 0.93868 0.38661 0.76773 0.0
H239 H 0.9189 0.39547 0.62664 0.0
H240 H 0.91916 0.42895 0.56367 0.0
H241 H 0.06327 0.44956 0.60765 0.0
H242 H 0.06326 0.41768 0.67208 0.0
H243 H 0.02713 0.19286 0.77709 0.0
H244 H 0.98409 0.25293 0.74707 0.0
H245 H 0.10953 0.31689 0.75432 0.0
H246 H 0.15289 0.25574 0.78319 0.0
H247 H 0.04029 0.34008 0.68742 0.0
H248 H 0.05902 0.32615 0.8289 0.0
H249 H 0.0554 0.29026 0.89042 0.0
H250 H 0.91077 0.27651 0.84317 0.0
H251 H 0.91362 0.31176 0.7811 0.0
C252 C 0.91218 0.50395 0.68516 0.0
C253 C 0.86587 0.49741 0.68203 0.0
C254 C 0.94339 0.47163 0.69526 0.0
C255 C 0.92867 0.4323 0.70227 0.0
C256 C 0.88224 0.42578 0.6981 0.0
C257 C 0.85131 0.45783 0.68814 0.0
C258 C 0.96109 0.39777 0.71504 0.0
C259 C 0.96076 0.37638 0.75001 0.0
C260 C 0.99085 0.38486 0.69264 0.0
C261 C 0.99101 0.40449 0.65427 0.0
C262 C 0.95057 0.40756 0.6231 0.0
C263 C 0.95072 0.42625 0.58704 0.0
C264 C 0.99136 0.44117 0.58133 0.0
C265 C 0.03184 0.43786 0.61201 0.0
C266 C 0.03175 0.41962 0.6484 0.0
C267 C 0.04548 0.21923 0.77086 0.0
C268 C 0.09327 0.21971 0.78234 0.0
C269 C 0.02088 0.25371 0.75411 0.0
C270 C 0.04355 0.28987 0.74952 0.0
C271 C 0.0913 0.28943 0.75781 0.0
C272 C 0.11606 0.25444 0.77403 0.0
C273 C 0.01734 0.32854 0.73964 0.0
C274 C 0.01891 0.35072 0.70546 0.0
C275 C 0.98847 0.34216 0.76268 0.0
C276 C 0.98661 0.32137 0.80023 0.0
C277 C 0.02649 0.31527 0.83154 0.0
C278 C 0.02456 0.29505 0.86651 0.0
C279 C 0.98289 0.28106 0.87067 0.0
C280 C 0.94303 0.28734 0.8399 0.0
C281 C 0.94478 0.30747 0.80483 0.0
H282 H 0.98148 0.2654 0.89777 0.0
H283 H 0.99152 0.45542 0.55324 0.0
H284 H 0.82695 0.58694 0.51441 0.0
H285 H 0.87179 0.56149 0.47211 0.0
H286 H 0.97963 0.52924 0.57707 0.0
H287 H 0.93502 0.55714 0.61984 0.0
H288 H 0.01274 0.57074 0.52859 0.0
H289 H 0.91822 0.44552 0.5002 0.0
H290 H 0.84455 0.40906 0.48374 0.0
H291 H 0.79583 0.48455 0.37956 0.0
H292 H 0.86911 0.52165 0.39627 0.0
H293 H 0.13814 0.4374 0.44591 0.0
H294 H 0.0958 0.48159 0.47866 0.0
H295 H 0.00407 0.51241 0.36364 0.0
H296 H 0.04624 0.46653 0.33077 0.0
H297 H 0.95973 0.48093 0.41019 0.0
H298 H 0.06696 0.58768 0.42795 0.0
H299 H 0.14216 0.621 0.44424 0.0
H300 H 0.16967 0.58012 0.5661 0.0
H301 H 0.09493 0.546 0.55047 0.0
C302 C 0.85967 0.57318 0.52854 0.0
C303 C 0.87748 0.57361 0.57039 0.0
C304 C 0.88518 0.55823 0.50422 0.0
C305 C 0.9288 0.54246 0.52118 0.0
C306 C 0.94573 0.54068 0.56324 0.0
C307 C 0.92011 0.55609 0.58778 0.0
C308 C 0.95821 0.5325 0.49488 0.0
C309 C 0.00153 0.55052 0.50309 0.0
C310 C 0.94262 0.50829 0.46009 0.0
C311 C 0.89838 0.48686 0.45023 0.0
C312 C 0.89128 0.45475 0.47447 0.0
C313 C 0.84982 0.43385 0.46489 0.0
C314 C 0.81534 0.44471 0.43077 0.0
C315 C 0.82244 0.47632 0.4061 0.0
C316 C 0.86394 0.49723 0.41561 0.0
C317 C 0.10974 0.45463 0.42757 0.0
C318 C 0.09506 0.4487 0.38605 0.0
C319 C 0.08584 0.48028 0.44624 0.0
C320 C 0.04683 0.50056 0.42365 0.0
C321 C 0.03417 0.49709 0.38161 0.0
C322 C 0.05816 0.47108 0.36286 0.0
C323 C 0.01512 0.51785 0.44469 0.0
C324 C 0.97104 0.50154 0.4354 0.0
C325 C 0.03016 0.5437 0.47833 0.0
C326 C 0.0753 0.56412 0.48795 0.0
C327 C 0.08915 0.58552 0.45816 0.0
C328 C 0.1317 0.60461 0.4673 0.0
C329 C 0.16068 0.60266 0.50618 0.0
C330 C 0.14716 0.58164 0.53601 0.0
C331 C 0.10466 0.56248 0.52704 0.0
H332 H 0.19361 0.61747 0.51319 0.0
H333 H 0.78326 0.42847 0.42332 0.0
H334 H 0.82412 0.88093 0.00374 0.0
H335 H 0.87433 0.92315 0.97698 0.0
H336 H 0.98371 0.90197 0.08405 0.0
H337 H 0.93129 0.86258 0.1125 0.0
H338 H 0.98449 0.97914 0.05657 0.0
H339 H 0.97853 0.84276 -0.00785 0.0
H340 H 0.92821 0.78631 0.95949 0.0
H341 H 0.84971 0.86973 0.87237 0.0
H342 H 0.90121 0.92582 0.90262 0.0
H343 H 0.15212 0.0514 0.97175 0.0
H344 H 0.10875 0.00534 0.00274 0.0
H345 H -0.00185 0.00642 0.89394 0.0
H346 H 0.04301 0.05065 0.86219 0.0
H347 H 0.00113 0.9361 0.92428 0.0
H348 H 0.00218 0.0695 0.97782 0.0
H349 H 0.03338 0.13388 0.01061 0.0
H350 H 0.10157 0.06848 0.11741 0.0
H351 H 0.07125 0.00363 0.08506 0.0
C352 C 0.85866 0.88547 0.02154 0.0
C353 C 0.87426 0.86807 0.0596 0.0
C354 C 0.88757 0.90926 0.00616 0.0
C355 C 0.93336 0.91416 0.02775 0.0
C356 C 0.94869 0.89793 0.0666 0.0
C357 C 0.91903 0.87531 0.08266 0.0
C358 C 0.96519 0.93522 0.00903 0.0
C359 C 0.989 0.96937 0.02807 0.0
C360 C 0.9697 0.92319 0.97121 0.0
C361 C 0.94387 0.88825 0.94936 0.0
C362 C 0.95134 0.84866 0.96525 0.0
C363 C 0.92272 0.81674 0.94704 0.0
C364 C 0.88626 0.82435 0.91339 0.0
C365 C 0.87881 0.86362 0.89749 0.0
C366 C 0.90803 0.89534 0.9148 0.0
C367 C 0.11878 0.04121 0.9544 0.0
C368 C 0.10048 0.05455 0.91487 0.0
C369 C 0.09392 0.01518 0.97214 0.0
C370 C 0.04958 0.00345 0.95115 0.0
C371 C 0.03213 0.01533 0.91088 0.0
C372 C 0.05759 0.04059 0.89277 0.0
C373 C 0.02076 0.98046 0.97176 0.0
C374 C -0.00244 0.94573 0.95313 0.0
C375 C 0.01578 0.99283 0.00948 0.0
C376 C 0.035 0.03165 0.0288 0.0
C377 C 0.02435 0.06879 0.00811 0.0
C378 C 0.04175 0.10538 0.02665 0.0
C379 C 0.06964 0.10527 0.06597 0.0
C380 C 0.08016 0.06855 0.08688 0.0
C381 C 0.06285 0.03185 0.06846 0.0
H382 H 0.08288 0.13368 0.0802 0.0
H383 H 0.86341 0.80005 0.89986 0.0
H384 H 0.27594 0.23648 0.94651 0.0
H385 H 0.2937 0.25423 0.01654 0.0
H386 H 0.29245 0.12685 0.04788 0.0
H387 H 0.27031 0.1094 0.97673 0.0
H388 H 0.23985 0.15991 0.07927 0.0
H389 H 0.38942 0.19663 0.0874 0.0
H390 H 0.45478 0.22494 0.06763 0.0
H391 H 0.4005 0.34553 0.06686 0.0
H392 H 0.33441 0.31799 0.08597 0.0
H393 H 0.2327 0.27077 0.26277 0.0
H394 H 0.25649 0.22349 0.21738 0.0
H395 H 0.23119 0.31677 0.12625 0.0
H396 H 0.20711 0.3634 0.17095 0.0
H397 H 0.31949 0.28379 0.14437 0.0
H398 H 0.16016 0.23417 0.12166 0.0
H399 H 0.09928 0.19936 0.14319 0.0
H400 H 0.18519 0.09494 0.17954 0.0
H401 H 0.24671 0.12929 0.15848 0.0
C402 C 0.28148 0.21208 0.96839 0.0
C403 C 0.2716 0.17162 0.95607 0.0
C404 C 0.29203 0.22224 0.00883 0.0
C405 C 0.29455 0.19198 0.03811 0.0
C406 C 0.29039 0.1509 0.02605 0.0
C407 C 0.27855 0.1408 0.9853 0.0
C408 C 0.29231 0.20412 0.07895 0.0
C409 C 0.25851 0.18626 0.09408 0.0
C410 C 0.31679 0.23809 0.09922 0.0
C411 C 0.35686 0.25513 0.08822 0.0
C412 C 0.39128 0.22918 0.08289 0.0
C413 C 0.42848 0.2451 0.07176 0.0
C414 C 0.4318 0.287 0.06601 0.0
C415 C 0.39794 0.31308 0.07143 0.0
C416 C 0.36065 0.29733 0.08253 0.0
C417 C 0.23059 0.28045 0.2325 0.0
C418 C 0.21758 0.3205 0.22013 0.0
C419 C 0.24478 0.25368 0.20683 0.0
C420 C 0.24614 0.26685 0.16863 0.0
C421 C 0.23093 0.30615 0.15576 0.0
C422 C 0.21686 0.33267 0.1812 0.0
C423 C 0.26517 0.24128 0.142 0.0
C424 C 0.30231 0.25659 0.13002 0.0
C425 C 0.24491 0.20426 0.12555 0.0
C426 C 0.20816 0.18448 0.13903 0.0
C427 C 0.16623 0.20401 0.13471 0.0
C428 C 0.1316 0.18431 0.14677 0.0
C429 C 0.13851 0.14503 0.16293 0.0
C430 C 0.18001 0.12541 0.16716 0.0
C431 C 0.21471 0.14495 0.15516 0.0
H432 H 0.11165 0.1295 0.17185 0.0
H433 H 0.46061 0.29926 0.05734 0.0
H434 H 0.80087 0.86371 0.31148 0.0
H435 H 0.77951 0.81597 0.35722 0.0
H436 H 0.73034 0.7311 0.26028 0.0
H437 H 0.75238 0.77876 0.21406 0.0
H438 H 0.66911 0.75329 0.31651 0.0
H439 H 0.81879 0.70859 0.31386 0.0
H440 H 0.89753 0.72695 0.31655 0.0
H441 H 0.9213 0.76613 0.43829 0.0
H442 H 0.84161 0.75067 0.43567 0.0
H443 H 0.73742 0.61112 0.50943 0.0
H444 H 0.73215 0.62631 0.43925 0.0
H445 H 0.68238 0.74658 0.45342 0.0
H446 H 0.68817 0.73174 0.52351 0.0
H447 H 0.78821 0.6893 0.42661 0.0
H448 H 0.62605 0.78472 0.36351 0.0
H449 H 0.54613 0.78545 0.36565 0.0
H450 H 0.54975 0.65586 0.38328 0.0
H451 H 0.62954 0.65424 0.38067 0.0
C452 C 0.78593 0.83473 0.2999 0.0
C453 C 0.77851 0.82485 0.25925 0.0
C454 C 0.77348 0.80765 0.32601 0.0
C455 C 0.75299 0.77031 0.31196 0.0
C456 C 0.7458 0.76 0.27149 0.0
C457 C 0.75896 0.78694 0.24534 0.0
C458 C 0.74073 0.74192 0.3405 0.0
C459 C 0.69492 0.73858 0.34024 0.0
C460 C 0.77473 0.72322 0.37149 0.0
C461 C 0.82385 0.72881 0.37439 0.0
C462 C 0.84053 0.72158 0.3411 0.0
C463 C 0.88528 0.73183 0.34247 0.0
C464 C 0.91438 0.74788 0.37743 0.0
C465 C 0.89869 0.75378 0.41116 0.0
C466 C 0.85359 0.7445 0.40967 0.0
C467 C 0.72292 0.63996 0.49698 0.0
C468 C 0.71326 0.67034 0.52194 0.0
C469 C 0.72049 0.64878 0.45697 0.0
C470 C 0.70722 0.68767 0.44116 0.0
C471 C 0.69236 0.71626 0.4648 0.0
C472 C 0.69541 0.70768 0.50486 0.0
C473 C 0.7164 0.70115 0.40326 0.0
C474 C 0.76198 0.70235 0.40206 0.0
C475 C 0.68232 0.71899 0.37165 0.0
C476 C 0.63386 0.71938 0.37194 0.0
C477 C 0.6097 0.7563 0.36745 0.0
C478 C 0.56444 0.7569 0.36886 0.0
C479 C 0.54289 0.72073 0.37463 0.0
C480 C 0.56651 0.68387 0.37888 0.0
C481 C 0.61178 0.6831 0.37747 0.0
H482 H 0.50787 0.72127 0.3758 0.0
H483 H 0.94918 0.75541 0.37847 0.0
H484 H 0.74429 0.89774 0.01395 0.0
H485 H 0.75093 0.87631 0.94796 0.0
H486 H 0.70666 0.75552 0.96871 0.0
H487 H 0.69936 0.77653 0.03371 0.0
H488 H 0.79435 0.75861 0.95827 0.0
H489 H 0.64268 0.81683 0.89518 0.0
H490 H 0.5894 0.87472 0.87844 0.0
H491 H 0.68037 0.93719 0.82354 0.0
H492 H 0.73445 0.87995 0.84055 0.0
H493 H 0.75807 0.62668 0.80055 0.0
H494 H 0.75211 0.67367 0.85252 0.0
H495 H 0.78241 0.77426 0.78389 0.0
H496 H 0.78441 0.72731 0.72972 0.0
H497 H 0.71879 0.79653 0.81739 0.0
H498 H 0.86195 0.73529 0.86587 0.0
H499 H 0.92016 0.68164 0.883 0.0
H500 H 0.85555 0.63033 0.96721 0.0
H501 H 0.79649 0.68339 0.95032 0.0
C502 C 0.73475 0.86694 0.00392 0.0
C503 C 0.72296 0.8384 0.02973 0.0
C504 C 0.73857 0.85476 0.9662 0.0
C505 C 0.73059 0.81401 0.95401 0.0
C506 C 0.71398 0.7869 0.97791 0.0
C507 C 0.7098 0.79903 0.01515 0.0
C508 C 0.74467 0.7975 0.91948 0.0
C509 C 0.77759 0.76661 0.9274 0.0
C510 C 0.7253 0.81007 0.87947 0.0
C511 C 0.69269 0.84429 0.86937 0.0
C512 C 0.65143 0.84306 0.87982 0.0
C513 C 0.62108 0.87573 0.87024 0.0
C514 C 0.63152 0.90964 0.85 0.0
C515 C 0.67231 0.91093 0.83923 0.0
C516 C 0.7028 0.87837 0.84879 0.0
C517 C 0.76366 0.65878 0.79635 0.0
C518 C 0.77323 0.67303 0.76134 0.0
C519 C 0.76054 0.6857 0.82637 0.0
C520 C 0.76816 0.72755 0.82286 0.0
C521 C 0.77707 0.74213 0.78769 0.0
C522 C 0.77919 0.71511 0.75702 0.0
C523 C 0.7659 0.75525 0.85613 0.0
C524 C 0.73601 0.78866 0.84817 0.0
C525 C 0.78891 0.74561 0.89639 0.0
C526 C 0.82467 0.71358 0.90686 0.0
C527 C 0.85999 0.7126 0.88802 0.0
C528 C 0.89318 0.68222 0.89768 0.0
C529 C 0.89159 0.65262 0.92621 0.0
C530 C 0.85681 0.65335 0.94518 0.0
C531 C 0.8235 0.68366 0.93565 0.0
H532 H 0.91731 0.62909 0.93361 0.0
H533 H 0.60798 0.9349 0.84262 0.0
H534 H 0.22469 0.22045 0.76733 0.0
H535 H 0.24602 0.2634 0.71698 0.0
H536 H 0.19407 0.17149 0.62728 0.0
H537 H 0.17386 0.12874 0.67714 0.0
H538 H 0.28149 0.19234 0.6316 0.0
H539 H 0.13996 0.2637 0.63166 0.0
H540 H 0.09507 0.30275 0.66757 0.0
H541 H 0.19863 0.39525 0.69581 0.0
H542 H 0.24475 0.356 0.66068 0.0
H543 H 0.22523 0.24764 0.43449 0.0
H544 H 0.23805 0.22788 0.50359 0.0
H545 H 0.27785 0.35101 0.5412 0.0
H546 H 0.26155 0.37177 0.47052 0.0
H547 H 0.22119 0.32742 0.57868 0.0
H548 H 0.35498 0.26422 0.56563 0.0
H549 H 0.40369 0.22438 0.5337 0.0
H550 H 0.32202 0.11795 0.53449 0.0
H551 H 0.27245 0.15718 0.56588 0.0
C552 C 0.21675 0.21013 0.73657 0.0
C553 C 0.19777 0.17128 0.72606 0.0
C554 C 0.22924 0.23449 0.70793 0.0
C555 C 0.22228 0.22037 0.66843 0.0
C556 C 0.20048 0.18277 0.65764 0.0
C557 C 0.18857 0.15848 0.68608 0.0
C558 C 0.23933 0.24275 0.63812 0.0
C559 C 0.26839 0.22191 0.61995 0.0
C560 C 0.22461 0.28237 0.62459 0.0
C561 C 0.19595 0.30676 0.64394 0.0
C562 C 0.15321 0.29231 0.64563 0.0
C563 C 0.12754 0.31451 0.66587 0.0
C564 C 0.14396 0.35152 0.68408 0.0
C565 C 0.18598 0.36655 0.68177 0.0
C566 C 0.21191 0.34432 0.66171 0.0
C567 C 0.23812 0.27042 0.45737 0.0
C568 C 0.24228 0.31131 0.4469 0.0
C569 C 0.24582 0.25895 0.49726 0.0
C570 C 0.25966 0.28768 0.52818 0.0
C571 C 0.2673 0.32816 0.51803 0.0
C572 C 0.2587 0.33991 0.47764 0.0
C573 C 0.26072 0.27551 0.56995 0.0
C574 C 0.23552 0.29835 0.5907 0.0
C575 C 0.27965 0.2378 0.58638 0.0
C576 C 0.31002 0.21373 0.56824 0.0
C577 C 0.34735 0.23234 0.55894 0.0
C578 C 0.3751 0.20985 0.5409 0.0
C579 C 0.36597 0.16866 0.53211 0.0
C580 C 0.32913 0.14983 0.54142 0.0
C581 C 0.30128 0.17216 0.55946 0.0
H582 H 0.38745 0.15133 0.51807 0.0
H583 H 0.12423 0.36851 0.70007 0.0
H584 H 0.29674 0.43662 0.44409 0.0
H585 H 0.36693 0.4662 0.48777 0.0
H586 H 0.4418 0.42399 0.40694 0.0
H587 H 0.37183 0.39516 0.3632 0.0
H588 H 0.493 0.42064 0.48783 0.0
H589 H 0.401 0.51412 0.39284 0.0
H590 H 0.32994 0.54999 0.35924 0.0
H591 H 0.32751 0.60448 0.47094 0.0
H592 H 0.39821 0.56826 0.50538 0.0
H593 H 0.67848 0.55856 0.53574 0.0
H594 H 0.60824 0.52878 0.4922 0.0
H595 H 0.53518 0.56472 0.57659 0.0
H596 H 0.60526 0.59327 0.62043 0.0
H597 H 0.48337 0.57144 0.49341 0.0
H598 H 0.57552 0.47682 0.58824 0.0
H599 H 0.64695 0.44112 0.62108 0.0
H600 H 0.64943 0.38903 0.50837 0.0
H601 H 0.57837 0.42513 0.4747 0.0
C602 C 0.32859 0.4322 0.4367 0.0
C603 C 0.32919 0.41345 0.40058 0.0
C604 C 0.36852 0.44944 0.46135 0.0
C605 C 0.40942 0.44776 0.45023 0.0
C606 C 0.41068 0.42567 0.41606 0.0
C607 C 0.37078 0.40908 0.3912 0.0
C608 C 0.44935 0.47286 0.47112 0.0
C609 C 0.49096 0.45359 0.48879 0.0
C610 C 0.44671 0.5159 0.47242 0.0
C611 C 0.40456 0.53811 0.45176 0.0
C612 C 0.3851 0.53347 0.41031 0.0
C613 C 0.34492 0.5539 0.3911 0.0
C614 C 0.32414 0.57941 0.41296 0.0
C615 C 0.3436 0.58463 0.45407 0.0
C616 C 0.38372 0.56416 0.47345 0.0
C617 C 0.647 0.56136 0.54413 0.0
C618 C 0.64702 0.57814 0.58127 0.0
C619 C 0.60706 0.54412 0.51948 0.0
C620 C 0.56669 0.54418 0.53148 0.0
C621 C 0.56591 0.56435 0.56681 0.0
C622 C 0.60589 0.5807 0.59176 0.0
C623 C 0.5269 0.51919 0.51019 0.0
C624 C 0.48535 0.53848 0.49243 0.0
C625 C 0.52963 0.47619 0.50868 0.0
C626 C 0.57198 0.45407 0.52888 0.0
C627 C 0.59153 0.45806 0.57039 0.0
C628 C 0.63191 0.43772 0.58916 0.0
C629 C 0.6528 0.41292 0.5668 0.0
C630 C 0.63326 0.40833 0.52563 0.0
C631 C 0.59294 0.42873 0.50669 0.0
H632 H 0.68406 0.39717 0.58139 0.0
H633 H 0.29304 0.59521 0.39804 0.0
H634 H 0.32697 0.10706 0.93775 0.0
H635 H 0.39927 0.08527 0.98352 0.0
H636 H 0.41062 0.9916 0.89983 0.0
H637 H 0.33754 0.01154 0.85559 0.0
H638 H 0.43247 0.96037 0.97003 0.0
H639 H 0.47477 0.08432 0.91453 0.0
H640 H 0.46953 0.15757 0.89794 0.0
H641 H 0.49878 0.1873 0.02283 0.0
H642 H 0.50361 0.11418 0.04012 0.0
H643 H 0.66686 0.91085 0.05181 0.0
H644 H 0.59505 0.93534 0.00745 0.0
H645 H 0.58008 0.01812 0.09919 0.0
H646 H 0.65157 0.994 0.14362 0.0
H647 H 0.56029 0.05536 0.0267 0.0
H648 H 0.51907 0.93126 0.08172 0.0
H649 H 0.52478 0.85798 0.09809 0.0
H650 H 0.49399 0.82867 0.97301 0.0
H651 H 0.48873 0.90184 0.95594 0.0
C652 C 0.34452 0.08156 0.92944 0.0
C653 C 0.32573 0.06075 0.89333 0.0
C654 C 0.38631 0.06939 0.95537 0.0
C655 C 0.4108 0.0368 0.94515 0.0
C656 C 0.39247 0.01661 0.90869 0.0
C657 C 0.35056 0.02831 0.88322 0.0
C658 C 0.45503 0.02284 0.97238 0.0
C659 C 0.46056 0.98118 0.9819 0.0
C660 C 0.49156 0.04989 0.98886 0.0
C661 C 0.48912 0.09382 0.97857 0.0
C662 C 0.4798 0.10649 0.93842 0.0
C663 C 0.47694 0.14797 0.9289 0.0
C664 C 0.48367 0.17707 0.95931 0.0
C665 C 0.49346 0.16473 -0.00069 0.0
C666 C 0.49633 0.12328 0.00899 0.0
C667 C 0.64832 0.93404 0.06273 0.0
C668 C 0.66511 0.95008 0.10157 0.0
C669 C 0.60716 0.94809 0.03725 0.0
C670 C 0.58196 0.97843 0.05008 0.0
C671 C 0.59889 0.99477 0.08858 0.0
C672 C 0.6398 0.9807 0.11404 0.0
C673 C 0.53769 0.99296 0.02372 0.0
C674 C 0.53215 0.03467 0.01459 0.0
C675 C 0.50119 0.96597 0.00743 0.0
C676 C 0.50395 0.92199 0.01759 0.0
C677 C 0.51385 0.90918 0.05774 0.0
C678 C 0.51695 0.86768 0.06714 0.0
C679 C 0.50987 0.83869 0.03662 0.0
C680 C 0.49953 0.85116 -0.00338 0.0
C681 C 0.49645 0.89263 0.98706 0.0
H682 H 0.51229 0.80656 0.04396 0.0
H683 H 0.48141 0.20917 0.95188 0.0
loop_
_geom_bond_atom_site_label_1
_geom_bond_atom_site_label_2
_geom_bond_distance
_geom_bond_site_symmetry_2
_ccdc_geom_bond_type
Zn0 O6 1.920 . S
Zn0 O12 1.898 . S
Zn0 O15 1.905 . S
Zn1 O9 1.905 . S
Zn1 O10 1.898 . S
Zn1 O18 1.920 . S
Zn2 O5 2.080 . S
Zn2 O8 2.114 . S
Zn2 O11 2.120 . S
Zn2 O13 2.120 . S
Zn2 O14 2.114 . S
Zn2 O17 2.080 . S
C3 O8 1.166 . S
C3 O9 1.182 . S
C4 O10 1.167 . S
C4 O11 1.299 . S
O5 Zn2 2.080 . S
O5 C19 1.305 . S
O6 Zn0 1.920 . S
O6 C19 1.234 . S
C7 O12 1.167 . S
C7 O13 1.299 . S
O8 Zn2 2.114 . S
O8 C3 1.166 . S
O9 Zn1 1.905 . S
O9 C3 1.182 . S
O10 Zn1 1.898 . S
O10 C4 1.167 . S
O11 Zn2 2.120 . S
O11 C4 1.299 . S
O12 Zn0 1.898 . S
O12 C7 1.167 . S
O13 Zn2 2.120 . S
O13 C7 1.299 . S
O14 Zn2 2.114 . S
O14 C16 1.166 . S
O15 Zn0 1.905 . S
O15 C16 1.182 . S
C16 O14 1.166 . S
C16 O15 1.182 . S
O17 Zn2 2.080 . S
O17 C20 1.305 . S
O18 Zn1 1.920 . S
O18 C20 1.234 . S
C19 O5 1.305 . S
C19 O6 1.234 . S
C20 O17 1.305 . S
C20 O18 1.234 . S
Zn21 O27 1.920 . S
Zn21 O33 1.898 . S
Zn21 O36 1.905 . S
Zn22 O30 1.905 . S
Zn22 O31 1.898 . S
Zn22 O39 1.920 . S
Zn23 O26 2.080 . S
Zn23 O29 2.114 . S
Zn23 O32 2.120 . S
Zn23 O34 2.120 . S
Zn23 O35 2.114 . S
Zn23 O38 2.080 . S
C24 O29 1.166 . S
C24 O30 1.182 . S
C25 O31 1.167 . S
C25 O32 1.299 . S
O26 Zn23 2.080 . S
O26 C40 1.305 . S
O27 Zn21 1.920 . S
O27 C40 1.234 . S
C28 O33 1.167 . S
C28 O34 1.299 . S
O29 Zn23 2.114 . S
O29 C24 1.166 . S
O30 Zn22 1.905 . S
O30 C24 1.182 . S
O31 Zn22 1.898 . S
O31 C25 1.167 . S
O32 Zn23 2.120 . S
O32 C25 1.299 . S
O33 Zn21 1.898 . S
O33 C28 1.167 . S
O34 Zn23 2.120 . S
O34 C28 1.299 . S
O35 Zn23 2.114 . S
O35 C37 1.166 . S
O36 Zn21 1.905 . S
O36 C37 1.182 . S
C37 O35 1.166 . S
C37 O36 1.182 . S
O38 Zn23 2.080 . S
O38 C41 1.305 . S
O39 Zn22 1.920 . S
O39 C41 1.234 . S
C40 O26 1.305 . S
C40 O27 1.234 . S
C41 O38 1.305 . S
C41 O39 1.234 . S
Zn42 O48 1.920 . S
Zn42 O54 1.898 . S
Zn42 O57 1.905 . S
Zn43 O51 1.905 . S
Zn43 O52 1.898 . S
Zn43 O60 1.920 . S
Zn44 O47 2.080 . S
Zn44 O50 2.114 . S
Zn44 O53 2.120 . S
Zn44 O55 2.120 . S
Zn44 O56 2.114 . S
Zn44 O59 2.080 . S
C45 O50 1.166 . S
C45 O51 1.182 . S
C46 O52 1.167 . S
C46 O53 1.299 . S
O47 Zn44 2.080 . S
O47 C61 1.305 . S
O48 Zn42 1.920 . S
O48 C61 1.234 . S
C49 O54 1.167 . S
C49 O55 1.299 . S
O50 Zn44 2.114 . S
O50 C45 1.166 . S
O51 Zn43 1.905 . S
O51 C45 1.182 . S
O52 Zn43 1.898 . S
O52 C46 1.167 . S
O53 Zn44 2.120 . S
O53 C46 1.299 . S
O54 Zn42 1.898 . S
O54 C49 1.167 . S
O55 Zn44 2.120 . S
O55 C49 1.299 . S
O56 Zn44 2.114 . S
O56 C58 1.166 . S
O57 Zn42 1.905 . S
O57 C58 1.182 . S
C58 O56 1.166 . S
C58 O57 1.182 . S
O59 Zn44 2.080 . S
O59 C62 1.305 . S
O60 Zn43 1.920 . S
O60 C62 1.234 . S
C61 O47 1.305 . S
C61 O48 1.234 . S
C62 O59 1.305 . S
C62 O60 1.234 . S
Zn63 O69 1.920 . S
Zn63 O75 1.898 . S
Zn63 O78 1.905 . S
Zn64 O72 1.905 . S
Zn64 O73 1.898 . S
Zn64 O81 1.920 . S
Zn65 O68 2.080 . S
Zn65 O71 2.114 . S
Zn65 O74 2.120 . S
Zn65 O76 2.120 . S
Zn65 O77 2.114 . S
Zn65 O80 2.080 . S
C66 O71 1.166 . S
C66 O72 1.182 . S
C67 O73 1.167 . S
C67 O74 1.299 . S
O68 Zn65 2.080 . S
O68 C82 1.305 . S
O69 Zn63 1.920 . S
O69 C82 1.234 . S
C70 O75 1.167 . S
C70 O76 1.299 . S
O71 Zn65 2.114 . S
O71 C66 1.166 . S
O72 Zn64 1.905 . S
O72 C66 1.182 . S
O73 Zn64 1.898 . S
O73 C67 1.167 . S
O74 Zn65 2.120 . S
O74 C67 1.299 . S
O75 Zn63 1.898 . S
O75 C70 1.167 . S
O76 Zn65 2.120 . S
O76 C70 1.299 . S
O77 Zn65 2.114 . S
O77 C79 1.166 . S
O78 Zn63 1.905 . S
O78 C79 1.182 . S
C79 O77 1.166 . S
C79 O78 1.182 . S
O80 Zn65 2.080 . S
O80 C83 1.305 . S
O81 Zn64 1.920 . S
O81 C83 1.234 . S
C82 O68 1.305 . S
C82 O69 1.234 . S
C83 O80 1.305 . S
C83 O81 1.234 . S
H84 C102 0.951 . S
H85 C104 0.951 . S
H86 C106 0.950 . S
H87 C107 0.950 . S
H88 C109 0.950 . S
H89 C112 0.950 . S
H90 C113 0.950 . S
H91 C115 0.950 . S
H92 C116 0.950 . S
H93 C117 0.951 . S
H94 C119 0.951 . S
H95 C121 0.950 1_655 S
H96 C122 0.950 . S
H97 C124 0.950 . S
H98 C127 0.950 . S
H99 C128 0.950 1_655 S
H100 C130 0.950 . S
H101 C131 0.950 . S
C102 H84 0.951 . S
C102 C103 1.366 . S
C102 C104 1.388 . S
C103 C102 1.366 . S
C103 C107 1.385 1_545 S
C104 H85 0.951 . S
C104 C102 1.388 . S
C104 C105 1.366 . S
C105 C104 1.366 . S
C105 C106 1.414 . S
C105 C108 1.499 . S
C106 H86 0.950 . S
C106 C105 1.414 . S
C106 C107 1.374 1_545 S
C107 H87 0.950 . S
C107 C103 1.385 1_565 S
C107 C106 1.374 1_565 S
C108 C105 1.499 . S
C108 C109 1.373 . S
C108 C110 1.389 . S
C109 H88 0.950 . S
C109 C108 1.373 . S
C109 C125 1.377 . S
C110 C108 1.389 . S
C110 C111 1.524 . S
C110 C124 1.377 . S
C111 C110 1.524 . S
C111 C112 1.397 . S
C111 C116 1.363 . S
C112 H89 0.950 . S
C112 C111 1.397 . S
C112 C113 1.334 . S
C113 H90 0.950 . S
C113 C112 1.334 . S
C113 C114 1.287 . S
C114 C113 1.287 . S
C114 C115 1.524 . S
C114 H133 0.913 . S
C115 H91 0.950 . S
C115 C114 1.524 . S
C115 C116 1.415 . S
C116 H92 0.950 . S
C116 C111 1.363 . S
C116 C115 1.415 . S
C117 H93 0.951 . S
C117 C118 1.366 . S
C117 C119 1.388 . S
C118 C117 1.366 . S
C118 C122 1.385 . S
C119 H94 0.951 . S
C119 C117 1.388 . S
C119 C120 1.366 . S
C120 C119 1.366 . S
C120 C121 1.414 . S
C120 C123 1.499 . S
C121 H95 0.950 1_455 S
C121 C120 1.414 . S
C121 C122 1.374 . S
C122 H96 0.950 . S
C122 C118 1.385 . S
C122 C121 1.374 . S
C123 C120 1.499 . S
C123 C124 1.373 1_455 S
C123 C125 1.389 1_455 S
C124 H97 0.950 . S
C124 C110 1.377 . S
C124 C123 1.373 1_655 S
C125 C109 1.377 . S
C125 C123 1.389 1_655 S
C125 C126 1.524 1_655 S
C126 C125 1.524 1_455 S
C126 C127 1.397 1_455 S
C126 C131 1.363 . S
C127 H98 0.950 . S
C127 C126 1.397 1_655 S
C127 C128 1.334 1_655 S
C128 H99 0.950 1_455 S
C128 C127 1.334 1_455 S
C128 C129 1.287 . S
C129 C128 1.287 . S
C129 C130 1.524 . S
C129 H132 0.999 . S
C130 H100 0.950 . S
C130 C129 1.524 . S
C130 C131 1.415 . S
C131 H101 0.950 . S
C131 C126 1.363 . S
C131 C130 1.415 . S
H132 C129 0.999 . S
H133 C114 0.913 . S
H134 C152 0.951 . S
H135 C154 0.951 . S
H136 C156 0.950 . S
H137 C157 0.950 . S
H138 C159 0.950 . S
H139 C162 0.950 . S
H140 C163 0.950 . S
H141 C165 0.950 . S
H142 C166 0.950 . S
H143 C167 0.951 . S
H144 C169 0.951 . S
H145 C171 0.950 . S
H146 C172 0.950 . S
H147 C174 0.950 . S
H148 C177 0.950 . S
H149 C178 0.950 . S
H150 C180 0.950 . S
H151 C181 0.950 1_455 S
C152 H134 0.951 . S
C152 C153 1.366 . S
C152 C154 1.388 . S
C153 C152 1.366 . S
C153 C157 1.385 . S
C154 H135 0.951 . S
C154 C152 1.388 . S
C154 C155 1.366 . S
C155 C154 1.366 . S
C155 C156 1.414 . S
C155 C158 1.499 . S
C156 H136 0.950 . S
C156 C155 1.414 . S
C156 C157 1.374 . S
C157 H137 0.950 . S
C157 C153 1.385 . S
C157 C156 1.374 . S
C158 C155 1.499 . S
C158 C159 1.373 . S
C158 C160 1.389 . S
C159 H138 0.950 . S
C159 C158 1.373 . S
C159 C175 1.377 1_455 S
C160 C158 1.389 . S
C160 C161 1.524 . S
C160 C174 1.377 . S
C161 C160 1.524 . S
C161 C162 1.397 . S
C161 C166 1.363 . S
C162 H139 0.950 . S
C162 C161 1.397 . S
C162 C163 1.334 . S
C163 H140 0.950 . S
C163 C162 1.334 . S
C163 C164 1.287 . S
C164 C163 1.287 . S
C164 C165 1.524 . S
C164 H183 0.913 . S
C165 H141 0.950 . S
C165 C164 1.524 . S
C165 C166 1.415 . S
C166 H142 0.950 . S
C166 C161 1.363 . S
C166 C165 1.415 . S
C167 H143 0.951 . S
C167 C168 1.366 . S
C167 C169 1.388 . S
C168 C167 1.366 . S
C168 C172 1.385 . S
C169 H144 0.951 . S
C169 C167 1.388 . S
C169 C170 1.366 . S
C170 C169 1.366 . S
C170 C171 1.414 . S
C170 C173 1.499 . S
C171 H145 0.950 . S
C171 C170 1.414 . S
C171 C172 1.374 . S
C172 H146 0.950 . S
C172 C168 1.385 . S
C172 C171 1.374 . S
C173 C170 1.499 . S
C173 C174 1.373 1_655 S
C173 C175 1.389 . S
C174 H147 0.950 . S
C174 C160 1.377 . S
C174 C173 1.373 1_455 S
C175 C159 1.377 1_655 S
C175 C173 1.389 . S
C175 C176 1.524 . S
C176 C175 1.524 . S
C176 C177 1.397 . S
C176 C181 1.363 . S
C177 H148 0.950 . S
C177 C176 1.397 . S
C177 C178 1.334 . S
C178 H149 0.950 . S
C178 C177 1.334 . S
C178 C179 1.287 . S
C179 C178 1.287 . S
C179 C180 1.524 . S
C179 H182 0.999 . S
C180 H150 0.950 . S
C180 C179 1.524 . S
C180 C181 1.415 . S
C181 H151 0.950 1_655 S
C181 C176 1.363 . S
C181 C180 1.415 . S
H182 C179 0.999 . S
H183 C164 0.913 . S
H184 C202 0.951 . S
H185 C204 0.951 . S
H186 C206 0.950 . S
H187 C207 0.968 . S
H188 C209 0.944 1_655 S
H189 C212 0.950 . S
H190 C213 0.950 . S
H191 C215 0.950 . S
H192 C216 0.950 . S
H193 C217 0.951 . S
H194 C219 0.951 . S
H195 C221 0.950 . S
H196 C222 0.950 . S
H197 C224 0.950 . S
H198 C227 0.950 . S
H199 C228 0.950 . S
H200 C230 0.950 . S
H201 C231 0.950 . S
C202 H184 0.951 . S
C202 C203 1.366 . S
C202 C204 1.388 . S
C203 C202 1.366 . S
C203 C207 1.383 1_565 S
C204 H185 0.951 . S
C204 C202 1.388 . S
C204 C205 1.366 . S
C205 C204 1.366 . S
C205 C206 1.414 . S
C205 C208 1.499 . S
C206 H186 0.950 . S
C206 C205 1.414 . S
C206 C207 1.358 1_565 S
C207 H187 0.968 . S
C207 C203 1.383 1_545 S
C207 C206 1.358 1_545 S
C208 C205 1.499 . S
C208 C209 1.387 . S
C208 C210 1.389 . S
C209 H188 0.944 1_455 S
C209 C208 1.387 . S
C209 C225 1.369 1_455 S
C210 C208 1.389 . S
C210 C211 1.524 . S
C210 C224 1.377 . S
C211 C210 1.524 . S
C211 C212 1.397 . S
C211 C216 1.363 . S
C212 H189 0.950 . S
C212 C211 1.397 . S
C212 C213 1.334 . S
C213 H190 0.950 . S
C213 C212 1.334 . S
C213 C214 1.287 . S
C214 C213 1.287 . S
C214 C215 1.524 . S
C214 H233 0.913 . S
C215 H191 0.950 . S
C215 C214 1.524 . S
C215 C216 1.415 . S
C216 H192 0.950 . S
C216 C211 1.363 . S
C216 C215 1.415 . S
C217 H193 0.951 . S
C217 C218 1.366 . S
C217 C219 1.388 . S
C218 C217 1.366 . S
C218 C222 1.385 . S
C219 H194 0.951 . S
C219 C217 1.388 . S
C219 C220 1.366 . S
C220 C219 1.366 . S
C220 C221 1.414 . S
C220 C223 1.499 . S
C221 H195 0.950 . S
C221 C220 1.414 . S
C221 C222 1.374 . S
C222 H196 0.950 . S
C222 C218 1.385 . S
C222 C221 1.374 . S
C223 C220 1.499 . S
C223 C224 1.373 1_655 S
C223 C225 1.389 . S
C224 H197 0.950 . S
C224 C210 1.377 . S
C224 C223 1.373 1_455 S
C225 C209 1.369 1_655 S
C225 C223 1.389 . S
C225 C226 1.524 . S
C226 C225 1.524 . S
C226 C227 1.397 . S
C226 C231 1.363 . S
C227 H198 0.950 . S
C227 C226 1.397 . S
C227 C228 1.334 . S
C228 H199 0.950 . S
C228 C227 1.334 . S
C228 C229 1.287 . S
C229 C228 1.287 . S
C229 C230 1.524 . S
C229 H232 0.999 . S
C230 H200 0.950 . S
C230 C229 1.524 . S
C230 C231 1.415 . S
C231 H201 0.950 . S
C231 C226 1.363 . S
C231 C230 1.415 . S
H232 C229 0.999 . S
H233 C214 0.913 . S
H234 C252 0.951 . S
H235 C254 0.951 . S
H236 C256 0.950 . S
H237 C257 0.950 . S
H238 C259 0.950 . S
H239 C262 0.950 . S
H240 C263 0.950 . S
H241 C265 0.950 . S
H242 C266 0.950 . S
H243 C267 0.951 . S
H244 C269 0.951 1_655 S
H245 C271 0.950 . S
H246 C272 0.950 . S
H247 C274 0.950 . S
H248 C277 0.950 1_455 S
H249 C278 0.950 . S
H250 C280 0.950 . S
H251 C281 0.950 . S
C252 H234 0.951 . S
C252 C253 1.366 . S
C252 C254 1.388 . S
C253 C252 1.366 . S
C253 C257 1.385 . S
C254 H235 0.951 . S
C254 C252 1.388 . S
C254 C255 1.366 . S
C255 C254 1.366 . S
C255 C256 1.414 . S
C255 C258 1.499 . S
C256 H236 0.950 . S
C256 C255 1.414 . S
C256 C257 1.374 . S
C257 H237 0.950 . S
C257 C253 1.385 . S
C257 C256 1.374 . S
C258 C255 1.499 . S
C258 C259 1.373 . S
C258 C260 1.389 . S
C259 H238 0.950 . S
C259 C258 1.373 . S
C259 C275 1.377 . S
C260 C258 1.389 . S
C260 C261 1.524 1_655 S
C260 C274 1.377 1_655 S
C261 C260 1.524 1_455 S
C261 C262 1.397 1_455 S
C261 C266 1.363 . S
C262 H239 0.950 . S
C262 C261 1.397 1_655 S
C262 C263 1.334 . S
C263 H240 0.950 . S
C263 C262 1.334 . S
C263 C264 1.287 1_655 S
C264 C263 1.287 1_455 S
C264 C265 1.524 . S
C264 H283 0.913 . S
C265 H241 0.950 . S
C265 C264 1.524 . S
C265 C266 1.415 . S
C266 H242 0.950 . S
C266 C261 1.363 . S
C266 C265 1.415 . S
C267 H243 0.951 . S
C267 C268 1.366 . S
C267 C269 1.388 . S
C268 C267 1.366 . S
C268 C272 1.385 . S
C269 H244 0.951 1_455 S
C269 C267 1.388 . S
C269 C270 1.366 . S
C270 C269 1.366 . S
C270 C271 1.414 . S
C270 C273 1.499 . S
C271 H245 0.950 . S
C271 C270 1.414 . S
C271 C272 1.374 . S
C272 H246 0.950 . S
C272 C268 1.385 . S
C272 C271 1.374 . S
C273 C270 1.499 . S
C273 C274 1.373 . S
C273 C275 1.389 1_455 S
C274 H247 0.950 . S
C274 C260 1.377 1_455 S
C274 C273 1.373 . S
C275 C259 1.377 . S
C275 C273 1.389 1_655 S
C275 C276 1.524 . S
C276 C275 1.524 . S
C276 C277 1.397 . S
C276 C281 1.363 . S
C277 H248 0.950 1_655 S
C277 C276 1.397 . S
C277 C278 1.334 . S
C278 H249 0.950 . S
C278 C277 1.334 . S
C278 C279 1.287 . S
C279 C278 1.287 . S
C279 C280 1.524 . S
C279 H282 0.999 . S
C280 H250 0.950 . S
C280 C279 1.524 . S
C280 C281 1.415 . S
C281 H251 0.950 . S
C281 C276 1.363 . S
C281 C280 1.415 . S
H282 C279 0.999 . S
H283 C264 0.913 . S
H284 C302 0.951 . S
H285 C304 0.951 . S
H286 C306 0.950 . S
H287 C307 0.950 . S
H288 C309 0.950 . S
H289 C312 0.950 . S
H290 C313 0.950 . S
H291 C315 0.950 . S
H292 C316 0.950 . S
H293 C317 0.951 . S
H294 C319 0.951 . S
H295 C321 0.950 . S
H296 C322 0.950 . S
H297 C324 0.950 . S
H298 C327 0.950 . S
H299 C328 0.950 . S
H300 C330 0.950 . S
H301 C331 0.950 . S
C302 H284 0.951 . S
C302 C303 1.366 . S
C302 C304 1.388 . S
C303 C302 1.366 . S
C303 C307 1.385 . S
C304 H285 0.951 . S
C304 C302 1.388 . S
C304 C305 1.366 . S
C305 C304 1.366 . S
C305 C306 1.414 . S
C305 C308 1.499 . S
C306 H286 0.950 . S
C306 C305 1.414 . S
C306 C307 1.374 . S
C307 H287 0.950 . S
C307 C303 1.385 . S
C307 C306 1.374 . S
C308 C305 1.499 . S
C308 C309 1.373 1_655 S
C308 C310 1.389 . S
C309 H288 0.950 . S
C309 C308 1.373 1_455 S
C309 C325 1.377 . S
C310 C308 1.389 . S
C310 C311 1.524 . S
C310 C324 1.377 . S
C311 C310 1.524 . S
C311 C312 1.397 . S
C311 C316 1.363 . S
C312 H289 0.950 . S
C312 C311 1.397 . S
C312 C313 1.334 . S
C313 H290 0.950 . S
C313 C312 1.334 . S
C313 C314 1.287 . S
C314 C313 1.287 . S
C314 C315 1.524 . S
C314 H333 0.913 . S
C315 H291 0.950 . S
C315 C314 1.524 . S
C315 C316 1.415 . S
C316 H292 0.950 . S
C316 C311 1.363 . S
C316 C315 1.415 . S
C317 H293 0.951 . S
C317 C318 1.366 . S
C317 C319 1.388 . S
C318 C317 1.366 . S
C318 C322 1.385 . S
C319 H294 0.951 . S
C319 C317 1.388 . S
C319 C320 1.366 . S
C320 C319 1.366 . S
C320 C321 1.414 . S
C320 C323 1.499 . S
C321 H295 0.950 . S
C321 C320 1.414 . S
C321 C322 1.374 . S
C322 H296 0.950 . S
C322 C318 1.385 . S
C322 C321 1.374 . S
C323 C320 1.499 . S
C323 C324 1.373 1_455 S
C323 C325 1.389 . S
C324 H297 0.950 . S
C324 C310 1.377 . S
C324 C323 1.373 1_655 S
C325 C309 1.377 . S
C325 C323 1.389 . S
C325 C326 1.524 . S
C326 C325 1.524 . S
C326 C327 1.397 . S
C326 C331 1.363 . S
C327 H298 0.950 . S
C327 C326 1.397 . S
C327 C328 1.334 . S
C328 H299 0.950 . S
C328 C327 1.334 . S
C328 C329 1.287 . S
C329 C328 1.287 . S
C329 C330 1.524 . S
C329 H332 0.999 . S
C330 H300 0.950 . S
C330 C329 1.524 . S
C330 C331 1.415 . S
C331 H301 0.950 . S
C331 C326 1.363 . S
C331 C330 1.415 . S
H332 C329 0.999 . S
H333 C314 0.913 . S
H334 C352 0.951 . S
H335 C354 0.951 1_556 S
H336 C356 0.950 . S
H337 C357 0.950 . S
H338 C359 0.950 . S
H339 C362 0.950 1_554 S
H340 C363 0.950 . S
H341 C365 0.950 . S
H342 C366 0.950 . S
H343 C367 0.951 . S
H344 C369 0.951 1_554 S
H345 C371 0.950 . S
H346 C372 0.950 . S
H347 C374 0.950 . S
H348 C377 0.950 1_556 S
H349 C378 0.950 . S
H350 C380 0.950 . S
H351 C381 0.950 . S
C352 H334 0.951 . S
C352 C353 1.366 . S
C352 C354 1.388 . S
C353 C352 1.366 . S
C353 C357 1.385 . S
C354 H335 0.951 1_554 S
C354 C352 1.388 . S
C354 C355 1.366 . S
C355 C354 1.366 . S
C355 C356 1.414 . S
C355 C358 1.499 . S
C356 H336 0.950 . S
C356 C355 1.414 . S
C356 C357 1.374 . S
C357 H337 0.950 . S
C357 C353 1.385 . S
C357 C356 1.374 . S
C358 C355 1.499 . S
C358 C359 1.373 1_565 S
C358 C360 1.389 1_554 S
C359 H338 0.950 . S
C359 C358 1.373 1_545 S
C359 C375 1.377 1_655 S
C360 C358 1.389 1_556 S
C360 C361 1.524 . S
C360 C374 1.377 1_655 S
C361 C360 1.524 . S
C361 C362 1.397 . S
C361 C366 1.363 . S
C362 H339 0.950 1_556 S
C362 C361 1.397 . S
C362 C363 1.334 . S
C363 H340 0.950 . S
C363 C362 1.334 . S
C363 C364 1.287 . S
C364 C363 1.287 . S
C364 C365 1.524 . S
C364 H383 0.913 . S
C365 H341 0.950 . S
C365 C364 1.524 . S
C365 C366 1.415 . S
C366 H342 0.950 . S
C366 C361 1.363 . S
C366 C365 1.415 . S
C367 H343 0.951 . S
C367 C368 1.366 . S
C367 C369 1.388 . S
C368 C367 1.366 . S
C368 C372 1.385 . S
C369 H344 0.951 1_556 S
C369 C367 1.388 . S
C369 C370 1.366 . S
C370 C369 1.366 . S
C370 C371 1.414 . S
C370 C373 1.499 . S
C371 H345 0.950 . S
C371 C370 1.414 . S
C371 C372 1.374 . S
C372 H346 0.950 . S
C372 C368 1.385 . S
C372 C371 1.374 . S
C373 C370 1.499 . S
C373 C374 1.373 1_545 S
C373 C375 1.389 1_556 S
C374 H347 0.950 . S
C374 C360 1.377 1_455 S
C374 C373 1.373 1_565 S
C375 C359 1.377 1_455 S
C375 C373 1.389 1_554 S
C375 C376 1.524 . S
C376 C375 1.524 . S
C376 C377 1.397 . S
C376 C381 1.363 . S
C377 H348 0.950 1_554 S
C377 C376 1.397 . S
C377 C378 1.334 . S
C378 H349 0.950 . S
C378 C377 1.334 . S
C378 C379 1.287 . S
C379 C378 1.287 . S
C379 C380 1.524 . S
C379 H382 0.999 . S
C380 H350 0.950 . S
C380 C379 1.524 . S
C380 C381 1.415 . S
C381 H351 0.950 . S
C381 C376 1.363 . S
C381 C380 1.415 . S
H382 C379 0.999 . S
H383 C364 0.913 . S
H384 C402 0.951 . S
H385 C404 0.951 . S
H386 C406 0.950 . S
H387 C407 0.950 . S
H388 C409 0.950 . S
H389 C412 0.950 . S
H390 C413 0.950 . S
H391 C415 0.950 . S
H392 C416 0.950 . S
H393 C417 0.951 . S
H394 C419 0.951 . S
H395 C421 0.950 . S
H396 C422 0.950 . S
H397 C424 0.950 . S
H398 C427 0.950 . S
H399 C428 0.950 . S
H400 C430 0.950 . S
H401 C431 0.950 . S
C402 H384 0.951 . S
C402 C403 1.366 . S
C402 C404 1.388 1_556 S
C403 C402 1.366 . S
C403 C407 1.385 1_556 S
C404 H385 0.951 . S
C404 C402 1.388 1_554 S
C404 C405 1.366 . S
C405 C404 1.366 . S
C405 C406 1.414 . S
C405 C408 1.499 . S
C406 H386 0.950 . S
C406 C405 1.414 . S
C406 C407 1.374 . S
C407 H387 0.950 . S
C407 C403 1.385 1_554 S
C407 C406 1.374 . S
C408 C405 1.499 . S
C408 C409 1.373 . S
C408 C410 1.389 . S
C409 H388 0.950 . S
C409 C408 1.373 . S
C409 C425 1.377 . S
C410 C408 1.389 . S
C410 C411 1.524 . S
C410 C424 1.377 . S
C411 C410 1.524 . S
C411 C412 1.397 . S
C411 C416 1.363 . S
C412 H389 0.950 . S
C412 C411 1.397 . S
C412 C413 1.334 . S
C413 H390 0.950 . S
C413 C412 1.334 . S
C413 C414 1.287 . S
C414 C413 1.287 . S
C414 C415 1.524 . S
C414 H433 0.913 . S
C415 H391 0.950 . S
C415 C414 1.524 . S
C415 C416 1.415 . S
C416 H392 0.950 . S
C416 C411 1.363 . S
C416 C415 1.415 . S
C417 H393 0.951 . S
C417 C418 1.366 . S
C417 C419 1.388 . S
C418 C417 1.366 . S
C418 C422 1.385 . S
C419 H394 0.951 . S
C419 C417 1.388 . S
C419 C420 1.366 . S
C420 C419 1.366 . S
C420 C421 1.414 . S
C420 C423 1.499 . S
C421 H395 0.950 . S
C421 C420 1.414 . S
C421 C422 1.374 . S
C422 H396 0.950 . S
C422 C418 1.385 . S
C422 C421 1.374 . S
C423 C420 1.499 . S
C423 C424 1.373 . S
C423 C425 1.389 . S
C424 H397 0.950 . S
C424 C410 1.377 . S
C424 C423 1.373 . S
C425 C409 1.377 . S
C425 C423 1.389 . S
C425 C426 1.524 . S
C426 C425 1.524 . S
C426 C427 1.397 . S
C426 C431 1.363 . S
C427 H398 0.950 . S
C427 C426 1.397 . S
C427 C428 1.334 . S
C428 H399 0.950 . S
C428 C427 1.334 . S
C428 C429 1.287 . S
C429 C428 1.287 . S
C429 C430 1.524 . S
C429 H432 0.999 . S
C430 H400 0.950 . S
C430 C429 1.524 . S
C430 C431 1.415 . S
C431 H401 0.950 . S
C431 C426 1.363 . S
C431 C430 1.415 . S
H432 C429 0.999 . S
H433 C414 0.913 . S
H434 C452 0.951 . S
H435 C454 0.951 . S
H436 C456 0.950 . S
H437 C457 0.950 . S
H438 C459 0.950 . S
H439 C462 0.950 . S
H440 C463 0.950 . S
H441 C465 0.950 . S
H442 C466 0.950 . S
H443 C467 0.951 . S
H444 C469 0.951 . S
H445 C471 0.950 . S
H446 C472 0.950 . S
H447 C474 0.950 . S
H448 C477 0.950 . S
H449 C478 0.950 . S
H450 C480 0.950 . S
H451 C481 0.950 . S
C452 H434 0.951 . S
C452 C453 1.366 . S
C452 C454 1.388 . S
C453 C452 1.366 . S
C453 C457 1.385 . S
C454 H435 0.951 . S
C454 C452 1.388 . S
C454 C455 1.366 . S
C455 C454 1.366 . S
C455 C456 1.414 . S
C455 C458 1.499 . S
C456 H436 0.950 . S
C456 C455 1.414 . S
C456 C457 1.374 . S
C457 H437 0.950 . S
C457 C453 1.385 . S
C457 C456 1.374 . S
C458 C455 1.499 . S
C458 C459 1.373 . S
C458 C460 1.389 . S
C459 H438 0.950 . S
C459 C458 1.373 . S
C459 C475 1.377 . S
C460 C458 1.389 . S
C460 C461 1.524 . S
C460 C474 1.377 . S
C461 C460 1.524 . S
C461 C462 1.397 . S
C461 C466 1.363 . S
C462 H439 0.950 . S
C462 C461 1.397 . S
C462 C463 1.334 . S
C463 H440 0.950 . S
C463 C462 1.334 . S
C463 C464 1.287 . S
C464 C463 1.287 . S
C464 C465 1.524 . S
C464 H483 0.913 . S
C465 H441 0.950 . S
C465 C464 1.524 . S
C465 C466 1.415 . S
C466 H442 0.950 . S
C466 C461 1.363 . S
C466 C465 1.415 . S
C467 H443 0.951 . S
C467 C468 1.366 . S
C467 C469 1.388 . S
C468 C467 1.366 . S
C468 C472 1.385 . S
C469 H444 0.951 . S
C469 C467 1.388 . S
C469 C470 1.366 . S
C470 C469 1.366 . S
C470 C471 1.414 . S
C470 C473 1.499 . S
C471 H445 0.950 . S
C471 C470 1.414 . S
C471 C472 1.374 . S
C472 H446 0.950 . S
C472 C468 1.385 . S
C472 C471 1.374 . S
C473 C470 1.499 . S
C473 C474 1.373 . S
C473 C475 1.389 . S
C474 H447 0.950 . S
C474 C460 1.377 . S
C474 C473 1.373 . S
C475 C459 1.377 . S
C475 C473 1.389 . S
C475 C476 1.524 . S
C476 C475 1.524 . S
C476 C477 1.397 . S
C476 C481 1.363 . S
C477 H448 0.950 . S
C477 C476 1.397 . S
C477 C478 1.334 . S
C478 H449 0.950 . S
C478 C477 1.334 . S
C478 C479 1.287 . S
C479 C478 1.287 . S
C479 C480 1.524 . S
C479 H482 0.999 . S
C480 H450 0.950 . S
C480 C479 1.524 . S
C480 C481 1.415 . S
C481 H451 0.950 . S
C481 C476 1.363 . S
C481 C480 1.415 . S
H482 C479 0.999 . S
H483 C464 0.913 . S
H484 C502 0.951 . S
H485 C504 0.951 . S
H486 C506 0.950 . S
H487 C507 0.950 . S
H488 C509 0.950 . S
H489 C512 0.950 . S
H490 C513 0.950 . S
H491 C515 0.950 . S
H492 C516 0.950 . S
H493 C517 0.951 . S
H494 C519 0.951 . S
H495 C521 0.950 . S
H496 C522 0.950 . S
H497 C524 0.950 . S
H498 C527 0.950 . S
H499 C528 0.950 . S
H500 C530 0.950 . S
H501 C531 0.950 . S
C502 H484 0.951 . S
C502 C503 1.366 1_556 S
C502 C504 1.388 . S
C503 C502 1.366 1_554 S
C503 C507 1.385 . S
C504 H485 0.951 . S
C504 C502 1.388 . S
C504 C505 1.366 . S
C505 C504 1.366 . S
C505 C506 1.414 . S
C505 C508 1.499 . S
C506 H486 0.950 . S
C506 C505 1.414 . S
C506 C507 1.374 1_556 S
C507 H487 0.950 . S
C507 C503 1.385 . S
C507 C506 1.374 1_554 S
C508 C505 1.499 . S
C508 C509 1.373 . S
C508 C510 1.389 . S
C509 H488 0.950 . S
C509 C508 1.373 . S
C509 C525 1.377 . S
C510 C508 1.389 . S
C510 C511 1.524 . S
C510 C524 1.377 . S
C511 C510 1.524 . S
C511 C512 1.397 . S
C511 C516 1.363 . S
C512 H489 0.950 . S
C512 C511 1.397 . S
C512 C513 1.334 . S
C513 H490 0.950 . S
C513 C512 1.334 . S
C513 C514 1.287 . S
C514 C513 1.287 . S
C514 C515 1.524 . S
C514 H533 0.913 . S
C515 H491 0.950 . S
C515 C514 1.524 . S
C515 C516 1.415 . S
C516 H492 0.950 . S
C516 C511 1.363 . S
C516 C515 1.415 . S
C517 H493 0.951 . S
C517 C518 1.366 . S
C517 C519 1.388 . S
C518 C517 1.366 . S
C518 C522 1.385 . S
C519 H494 0.951 . S
C519 C517 1.388 . S
C519 C520 1.366 . S
C520 C519 1.366 . S
C520 C521 1.414 . S
C520 C523 1.499 . S
C521 H495 0.950 . S
C521 C520 1.414 . S
C521 C522 1.374 . S
C522 H496 0.950 . S
C522 C518 1.385 . S
C522 C521 1.374 . S
C523 C520 1.499 . S
C523 C524 1.373 . S
C523 C525 1.389 . S
C524 H497 0.950 . S
C524 C510 1.377 . S
C524 C523 1.373 . S
C525 C509 1.377 . S
C525 C523 1.389 . S
C525 C526 1.524 . S
C526 C525 1.524 . S
C526 C527 1.397 . S
C526 C531 1.363 . S
C527 H498 0.950 . S
C527 C526 1.397 . S
C527 C528 1.334 . S
C528 H499 0.950 . S
C528 C527 1.334 . S
C528 C529 1.287 . S
C529 C528 1.287 . S
C529 C530 1.524 . S
C529 H532 0.999 . S
C530 H500 0.950 . S
C530 C529 1.524 . S
C530 C531 1.415 . S
C531 H501 0.950 . S
C531 C526 1.363 . S
C531 C530 1.415 . S
H532 C529 0.999 . S
H533 C514 0.913 . S
H534 C552 0.951 . S
H535 C554 0.951 . S
H536 C556 0.950 . S
H537 C557 0.950 . S
H538 C559 0.950 . S
H539 C562 0.950 . S
H540 C563 0.950 . S
H541 C565 0.950 . S
H542 C566 0.950 . S
H543 C567 0.951 . S
H544 C569 0.951 . S
H545 C571 0.950 . S
H546 C572 0.950 . S
H547 C574 0.950 . S
H548 C577 0.950 . S
H549 C578 0.950 . S
H550 C580 0.950 . S
H551 C581 0.950 . S
C552 H534 0.951 . S
C552 C553 1.366 . S
C552 C554 1.388 . S
C553 C552 1.366 . S
C553 C557 1.385 . S
C554 H535 0.951 . S
C554 C552 1.388 . S
C554 C555 1.366 . S
C555 C554 1.366 . S
C555 C556 1.414 . S
C555 C558 1.499 . S
C556 H536 0.950 . S
C556 C555 1.414 . S
C556 C557 1.374 . S
C557 H537 0.950 . S
C557 C553 1.385 . S
C557 C556 1.374 . S
C558 C555 1.499 . S
C558 C559 1.373 . S
C558 C560 1.389 . S
C559 H538 0.950 . S
C559 C558 1.373 . S
C559 C575 1.377 . S
C560 C558 1.389 . S
C560 C561 1.524 . S
C560 C574 1.377 . S
C561 C560 1.524 . S
C561 C562 1.397 . S
C561 C566 1.363 . S
C562 H539 0.950 . S
C562 C561 1.397 . S
C562 C563 1.334 . S
C563 H540 0.950 . S
C563 C562 1.334 . S
C563 C564 1.287 . S
C564 C563 1.287 . S
C564 C565 1.524 . S
C564 H583 0.913 . S
C565 H541 0.950 . S
C565 C564 1.524 . S
C565 C566 1.415 . S
C566 H542 0.950 . S
C566 C561 1.363 . S
C566 C565 1.415 . S
C567 H543 0.951 . S
C567 C568 1.366 . S
C567 C569 1.388 . S
C568 C567 1.366 . S
C568 C572 1.385 . S
C569 H544 0.951 . S
C569 C567 1.388 . S
C569 C570 1.366 . S
C570 C569 1.366 . S
C570 C571 1.414 . S
C570 C573 1.499 . S
C571 H545 0.950 . S
C571 C570 1.414 . S
C571 C572 1.374 . S
C572 H546 0.950 . S
C572 C568 1.385 . S
C572 C571 1.374 . S
C573 C570 1.499 . S
C573 C574 1.373 . S
C573 C575 1.389 . S
C574 H547 0.950 . S
C574 C560 1.377 . S
C574 C573 1.373 . S
C575 C559 1.377 . S
C575 C573 1.389 . S
C575 C576 1.524 . S
C576 C575 1.524 . S
C576 C577 1.397 . S
C576 C581 1.363 . S
C577 H548 0.950 . S
C577 C576 1.397 . S
C577 C578 1.334 . S
C578 H549 0.950 . S
C578 C577 1.334 . S
C578 C579 1.287 . S
C579 C578 1.287 . S
C579 C580 1.524 . S
C579 H582 0.999 . S
C580 H550 0.950 . S
C580 C579 1.524 . S
C580 C581 1.415 . S
C581 H551 0.950 . S
C581 C576 1.363 . S
C581 C580 1.415 . S
H582 C579 0.999 . S
H583 C564 0.913 . S
H584 C602 0.951 . S
H585 C604 0.951 . S
H586 C606 0.950 . S
H587 C607 0.950 . S
H588 C609 0.950 . S
H589 C612 0.950 . S
H590 C613 0.950 . S
H591 C615 0.950 . S
H592 C616 0.950 . S
H593 C617 0.951 . S
H594 C619 0.951 . S
H595 C621 0.950 . S
H596 C622 0.950 . S
H597 C624 0.950 . S
H598 C627 0.950 . S
H599 C628 0.950 . S
H600 C630 0.950 . S
H601 C631 0.950 . S
C602 H584 0.951 . S
C602 C603 1.366 . S
C602 C604 1.388 . S
C603 C602 1.366 . S
C603 C607 1.385 . S
C604 H585 0.951 . S
C604 C602 1.388 . S
C604 C605 1.366 . S
C605 C604 1.366 . S
C605 C606 1.414 . S
C605 C608 1.499 . S
C606 H586 0.950 . S
C606 C605 1.414 . S
C606 C607 1.374 . S
C607 H587 0.950 . S
C607 C603 1.385 . S
C607 C606 1.374 . S
C608 C605 1.499 . S
C608 C609 1.373 . S
C608 C610 1.389 . S
C609 H588 0.950 . S
C609 C608 1.373 . S
C609 C625 1.377 . S
C610 C608 1.389 . S
C610 C611 1.524 . S
C610 C624 1.377 . S
C611 C610 1.524 . S
C611 C612 1.397 . S
C611 C616 1.363 . S
C612 H589 0.950 . S
C612 C611 1.397 . S
C612 C613 1.334 . S
C613 H590 0.950 . S
C613 C612 1.334 . S
C613 C614 1.287 . S
C614 C613 1.287 . S
C614 C615 1.524 . S
C614 H633 0.913 . S
C615 H591 0.950 . S
C615 C614 1.524 . S
C615 C616 1.415 . S
C616 H592 0.950 . S
C616 C611 1.363 . S
C616 C615 1.415 . S
C617 H593 0.951 . S
C617 C618 1.366 . S
C617 C619 1.388 . S
C618 C617 1.366 . S
C618 C622 1.385 . S
C619 H594 0.951 . S
C619 C617 1.388 . S
C619 C620 1.366 . S
C620 C619 1.366 . S
C620 C621 1.414 . S
C620 C623 1.499 . S
C621 H595 0.950 . S
C621 C620 1.414 . S
C621 C622 1.374 . S
C622 H596 0.950 . S
C622 C618 1.385 . S
C622 C621 1.374 . S
C623 C620 1.499 . S
C623 C624 1.373 . S
C623 C625 1.389 . S
C624 H597 0.950 . S
C624 C610 1.377 . S
C624 C623 1.373 . S
C625 C609 1.377 . S
C625 C623 1.389 . S
C625 C626 1.524 . S
C626 C625 1.524 . S
C626 C627 1.397 . S
C626 C631 1.363 . S
C627 H598 0.950 . S
C627 C626 1.397 . S
C627 C628 1.334 . S
C628 H599 0.950 . S
C628 C627 1.334 . S
C628 C629 1.287 . S
C629 C628 1.287 . S
C629 C630 1.524 . S
C629 H632 0.999 . S
C630 H600 0.950 . S
C630 C629 1.524 . S
C630 C631 1.415 . S
C631 H601 0.950 . S
C631 C626 1.363 . S
C631 C630 1.415 . S
H632 C629 0.999 . S
H633 C614 0.913 . S
H634 C652 0.951 . S
H635 C654 0.951 1_554 S
H636 C656 0.950 1_565 S
H637 C657 0.950 . S
H638 C659 0.950 . S
H639 C662 0.950 . S
H640 C663 0.950 . S
H641 C665 0.950 . S
H642 C666 0.950 . S
H643 C667 0.951 . S
H644 C669 0.951 1_556 S
H645 C671 0.950 1_545 S
H646 C672 0.950 . S
H647 C674 0.950 . S
H648 C677 0.950 . S
H649 C678 0.950 . S
H650 C680 0.950 . S
H651 C681 0.950 . S
C652 H634 0.951 . S
C652 C653 1.366 . S
C652 C654 1.388 . S
C653 C652 1.366 . S
C653 C657 1.385 . S
C654 H635 0.951 1_556 S
C654 C652 1.388 . S
C654 C655 1.366 . S
C655 C654 1.366 . S
C655 C656 1.414 . S
C655 C658 1.499 . S
C656 H636 0.950 1_545 S
C656 C655 1.414 . S
C656 C657 1.374 . S
C657 H637 0.950 . S
C657 C653 1.385 . S
C657 C656 1.374 . S
C658 C655 1.499 . S
C658 C659 1.373 1_545 S
C658 C660 1.389 . S
C659 H638 0.950 . S
C659 C658 1.373 1_565 S
C659 C675 1.377 1_556 S
C660 C658 1.389 . S
C660 C661 1.524 . S
C660 C674 1.377 1_556 S
C661 C660 1.524 . S
C661 C662 1.397 . S
C661 C666 1.363 1_556 S
C662 H639 0.950 . S
C662 C661 1.397 . S
C662 C663 1.334 . S
C663 H640 0.950 . S
C663 C662 1.334 . S
C663 C664 1.287 . S
C664 C663 1.287 . S
C664 C665 1.524 1_556 S
C664 H683 0.913 . S
C665 H641 0.950 . S
C665 C664 1.524 1_554 S
C665 C666 1.415 . S
C666 H642 0.950 . S
C666 C661 1.363 1_554 S
C666 C665 1.415 . S
C667 H643 0.951 . S
C667 C668 1.366 . S
C667 C669 1.388 . S
C668 C667 1.366 . S
C668 C672 1.385 . S
C669 H644 0.951 1_554 S
C669 C667 1.388 . S
C669 C670 1.366 . S
C670 C669 1.366 . S
C670 C671 1.414 . S
C670 C673 1.499 . S
C671 H645 0.950 1_565 S
C671 C670 1.414 . S
C671 C672 1.374 . S
C672 H646 0.950 . S
C672 C668 1.385 . S
C672 C671 1.374 . S
C673 C670 1.499 . S
C673 C674 1.373 1_565 S
C673 C675 1.389 . S
C674 H647 0.950 . S
C674 C660 1.377 1_554 S
C674 C673 1.373 1_545 S
C675 C659 1.377 1_554 S
C675 C673 1.389 . S
C675 C676 1.524 . S
C676 C675 1.524 . S
C676 C677 1.397 . S
C676 C681 1.363 1_554 S
C677 H648 0.950 . S
C677 C676 1.397 . S
C677 C678 1.334 . S
C678 H649 0.950 . S
C678 C677 1.334 . S
C678 C679 1.287 . S
C679 C678 1.287 . S
C679 C680 1.524 1_554 S
C679 H682 0.999 . S
C680 H650 0.950 . S
C680 C679 1.524 1_556 S
C680 C681 1.415 . S
C681 H651 0.950 . S
C681 C676 1.363 1_556 S
C681 C680 1.415 . S
H682 C679 0.999 . S
H683 C664 0.913 . S
C103 C41 1.730 1_545 S
C118 C4 1.640 . S
C153 C19 1.731 . S
C168 C28 1.638 . S
C203 C83 1.731 1_565 S
C218 C46 1.639 . S
C253 C61 1.730 . S
C268 C70 1.640 . S
C303 C62 0.582 . S
C318 C20 0.582 . S
C353 C40 0.585 . S
C368 C82 0.585 . S
C403 C79 1.131 . S
C418 C16 1.324 . S
C453 C24 1.324 . S
C468 C45 1.131 . S
C503 C37 1.131 . S
C518 C58 1.326 . S
C553 C66 1.324 . S
C568 C3 1.131 . S
C603 C7 1.229 . S
C618 C49 1.229 . S
C653 C67 1.229 . S
C668 C25 1.229 . S
