# Generated by pormake.
# Topology wir, (6)-cn, num edge types: 1
# Building blocks:
#     Node 0, Type 0, BuildingBlock: MIDCAF_clean_sbu_0, # of connection points: 6
#     Node 1, Type 0, BuildingBlock: MIDCAF_clean_sbu_0, # of connection points: 6
#     Node 2, Type 0, BuildingBlock: MIDCAF_clean_sbu_0, # of connection points: 6
#     Node 3, Type 0, BuildingBlock: MIDCAF_clean_sbu_0, # of connection points: 6
#     Node 4, Type 0, BuildingBlock: MIDCAF_clean_sbu_0, # of connection points: 6
#     Node 5, Type 0, BuildingBlock: MIDCAF_clean_sbu_0, # of connection points: 6
#     Node 6, Type 0, BuildingBlock: MIDCAF_clean_sbu_0, # of connection points: 6
#     Node 7, Type 0, BuildingBlock: MIDCAF_clean_sbu_0, # of connection points: 6
#     Node 8, Type 0, BuildingBlock: MIDCAF_clean_sbu_0, # of connection points: 6
#     Node 9, Type 0, BuildingBlock: MIDCAF_clean_sbu_0, # of connection points: 6
#     Node 10, Type 0, BuildingBlock: MIDCAF_clean_sbu_0, # of connection points: 6
#     Node 11, Type 0, BuildingBlock: MIDCAF_clean_sbu_0, # of connection points: 6
#     Node 12, Type 0, BuildingBlock: MIDCAF_clean_sbu_0, # of connection points: 6
#     Node 13, Type 0, BuildingBlock: MIDCAF_clean_sbu_0, # of connection points: 6
#     Node 14, Type 0, BuildingBlock: MIDCAF_clean_sbu_0, # of connection points: 6
#     Node 15, Type 0, BuildingBlock: MIDCAF_clean_sbu_0, # of connection points: 6
#     Node 16, Type 0, BuildingBlock: MIDCAF_clean_sbu_0, # of connection points: 6
#     Node 17, Type 0, BuildingBlock: MIDCAF_clean_sbu_0, # of connection points: 6
#     Node 18, Type 0, BuildingBlock: MIDCAF_clean_sbu_0, # of connection points: 6
#     Node 19, Type 0, BuildingBlock: MIDCAF_clean_sbu_0, # of connection points: 6
#     Node 20, Type 0, BuildingBlock: MIDCAF_clean_sbu_0, # of connection points: 6
#     Node 21, Type 0, BuildingBlock: MIDCAF_clean_sbu_0, # of connection points: 6
#     Node 22, Type 0, BuildingBlock: MIDCAF_clean_sbu_0, # of connection points: 6
#     Node 23, Type 0, BuildingBlock: MIDCAF_clean_sbu_0, # of connection points: 6
#     Node 24, Type 0, BuildingBlock: MIDCAF_clean_sbu_0, # of connection points: 6
#     Node 25, Type 0, BuildingBlock: MIDCAF_clean_sbu_0, # of connection points: 6
#     Node 26, Type 0, BuildingBlock: MIDCAF_clean_sbu_0, # of connection points: 6
#     Node 27, Type 0, BuildingBlock: MIDCAF_clean_sbu_0, # of connection points: 6
#     Node 28, Type 0, BuildingBlock: MIDCAF_clean_sbu_0, # of connection points: 6
#     Node 29, Type 0, BuildingBlock: MIDCAF_clean_sbu_0, # of connection points: 6
#     Node 30, Type 0, BuildingBlock: MIDCAF_clean_sbu_0, # of connection points: 6
#     Node 31, Type 0, BuildingBlock: MIDCAF_clean_sbu_0, # of connection points: 6
#     Edge 32, Type (0, 0), BuildingBlock: OJICUG_clean_linker_0, # of connection points: 2
#     Edge 33, Type (0, 0), BuildingBlock: OJICUG_clean_linker_0, # of connection points: 2
#     Edge 34, Type (0, 0), BuildingBlock: OJICUG_clean_linker_0, # of connection points: 2
#     Edge 35, Type (0, 0), BuildingBlock: OJICUG_clean_linker_0, # of connection points: 2
#     Edge 36, Type (0, 0), BuildingBlock: OJICUG_clean_linker_0, # of connection points: 2
#     Edge 37, Type (0, 0), BuildingBlock: OJICUG_clean_linker_0, # of connection points: 2
#     Edge 38, Type (0, 0), BuildingBlock: OJICUG_clean_linker_0, # of connection points: 2
#     Edge 39, Type (0, 0), BuildingBlock: OJICUG_clean_linker_0, # of connection points: 2
#     Edge 40, Type (0, 0), BuildingBlock: OJICUG_clean_linker_0, # of connection points: 2
#     Edge 41, Type (0, 0), BuildingBlock: OJICUG_clean_linker_0, # of connection points: 2
#     Edge 42, Type (0, 0), BuildingBlock: OJICUG_clean_linker_0, # of connection points: 2
#     Edge 43, Type (0, 0), BuildingBlock: OJICUG_clean_linker_0, # of connection points: 2
#     Edge 44, Type (0, 0), BuildingBlock: OJICUG_clean_linker_0, # of connection points: 2
#     Edge 45, Type (0, 0), BuildingBlock: OJICUG_clean_linker_0, # of connection points: 2
#     Edge 46, Type (0, 0), BuildingBlock: OJICUG_clean_linker_0, # of connection points: 2
#     Edge 47, Type (0, 0), BuildingBlock: OJICUG_clean_linker_0, # of connection points: 2
#     Edge 48, Type (0, 0), BuildingBlock: OJICUG_clean_linker_0, # of connection points: 2
#     Edge 49, Type (0, 0), BuildingBlock: OJICUG_clean_linker_0, # of connection points: 2
#     Edge 50, Type (0, 0), BuildingBlock: OJICUG_clean_linker_0, # of connection points: 2
#     Edge 51, Type (0, 0), BuildingBlock: OJICUG_clean_linker_0, # of connection points: 2
#     Edge 52, Type (0, 0), BuildingBlock: OJICUG_clean_linker_0, # of connection points: 2
#     Edge 53, Type (0, 0), BuildingBlock: OJICUG_clean_linker_0, # of connection points: 2
#     Edge 54, Type (0, 0), BuildingBlock: OJICUG_clean_linker_0, # of connection points: 2
#     Edge 55, Type (0, 0), BuildingBlock: OJICUG_clean_linker_0, # of connection points: 2
#     Edge 56, Type (0, 0), BuildingBlock: OJICUG_clean_linker_0, # of connection points: 2
#     Edge 57, Type (0, 0), BuildingBlock: OJICUG_clean_linker_0, # of connection points: 2
#     Edge 58, Type (0, 0), BuildingBlock: OJICUG_clean_linker_0, # of connection points: 2
#     Edge 59, Type (0, 0), BuildingBlock: OJICUG_clean_linker_0, # of connection points: 2
#     Edge 60, Type (0, 0), BuildingBlock: OJICUG_clean_linker_0, # of connection points: 2
#     Edge 61, Type (0, 0), BuildingBlock: OJICUG_clean_linker_0, # of connection points: 2
#     Edge 62, Type (0, 0), BuildingBlock: OJICUG_clean_linker_0, # of connection points: 2
#     Edge 63, Type (0, 0), BuildingBlock: OJICUG_clean_linker_0, # of connection points: 2
#     Edge 64, Type (0, 0), BuildingBlock: OJICUG_clean_linker_0, # of connection points: 2
#     Edge 65, Type (0, 0), BuildingBlock: OJICUG_clean_linker_0, # of connection points: 2
#     Edge 66, Type (0, 0), BuildingBlock: OJICUG_clean_linker_0, # of connection points: 2
#     Edge 67, Type (0, 0), BuildingBlock: OJICUG_clean_linker_0, # of connection points: 2
#     Edge 68, Type (0, 0), BuildingBlock: OJICUG_clean_linker_0, # of connection points: 2
#     Edge 69, Type (0, 0), BuildingBlock: OJICUG_clean_linker_0, # of connection points: 2
#     Edge 70, Type (0, 0), BuildingBlock: OJICUG_clean_linker_0, # of connection points: 2
#     Edge 71, Type (0, 0), BuildingBlock: OJICUG_clean_linker_0, # of connection points: 2
#     Edge 72, Type (0, 0), BuildingBlock: OJICUG_clean_linker_0, # of connection points: 2
#     Edge 73, Type (0, 0), BuildingBlock: OJICUG_clean_linker_0, # of connection points: 2
#     Edge 74, Type (0, 0), BuildingBlock: OJICUG_clean_linker_0, # of connection points: 2
#     Edge 75, Type (0, 0), BuildingBlock: OJICUG_clean_linker_0, # of connection points: 2
#     Edge 76, Type (0, 0), BuildingBlock: OJICUG_clean_linker_0, # of connection points: 2
#     Edge 77, Type (0, 0), BuildingBlock: OJICUG_clean_linker_0, # of connection points: 2
#     Edge 78, Type (0, 0), BuildingBlock: OJICUG_clean_linker_0, # of connection points: 2
#     Edge 79, Type (0, 0), BuildingBlock: OJICUG_clean_linker_0, # of connection points: 2
#     Edge 80, Type (0, 0), BuildingBlock: OJICUG_clean_linker_0, # of connection points: 2
#     Edge 81, Type (0, 0), BuildingBlock: OJICUG_clean_linker_0, # of connection points: 2
#     Edge 82, Type (0, 0), BuildingBlock: OJICUG_clean_linker_0, # of connection points: 2
#     Edge 83, Type (0, 0), BuildingBlock: OJICUG_clean_linker_0, # of connection points: 2
#     Edge 84, Type (0, 0), BuildingBlock: OJICUG_clean_linker_0, # of connection points: 2
#     Edge 85, Type (0, 0), BuildingBlock: OJICUG_clean_linker_0, # of connection points: 2
#     Edge 86, Type (0, 0), BuildingBlock: OJICUG_clean_linker_0, # of connection points: 2
#     Edge 87, Type (0, 0), BuildingBlock: OJICUG_clean_linker_0, # of connection points: 2
#     Edge 88, Type (0, 0), BuildingBlock: OJICUG_clean_linker_0, # of connection points: 2
#     Edge 89, Type (0, 0), BuildingBlock: OJICUG_clean_linker_0, # of connection points: 2
#     Edge 90, Type (0, 0), BuildingBlock: OJICUG_clean_linker_0, # of connection points: 2
#     Edge 91, Type (0, 0), BuildingBlock: OJICUG_clean_linker_0, # of connection points: 2
#     Edge 92, Type (0, 0), BuildingBlock: OJICUG_clean_linker_0, # of connection points: 2
#     Edge 93, Type (0, 0), BuildingBlock: OJICUG_clean_linker_0, # of connection points: 2
#     Edge 94, Type (0, 0), BuildingBlock: OJICUG_clean_linker_0, # of connection points: 2
#     Edge 95, Type (0, 0), BuildingBlock: OJICUG_clean_linker_0, # of connection points: 2
#     Edge 96, Type (0, 0), BuildingBlock: OJICUG_clean_linker_0, # of connection points: 2
#     Edge 97, Type (0, 0), BuildingBlock: OJICUG_clean_linker_0, # of connection points: 2
#     Edge 98, Type (0, 0), BuildingBlock: OJICUG_clean_linker_0, # of connection points: 2
#     Edge 99, Type (0, 0), BuildingBlock: OJICUG_clean_linker_0, # of connection points: 2
#     Edge 100, Type (0, 0), BuildingBlock: OJICUG_clean_linker_0, # of connection points: 2
#     Edge 101, Type (0, 0), BuildingBlock: OJICUG_clean_linker_0, # of connection points: 2
#     Edge 102, Type (0, 0), BuildingBlock: OJICUG_clean_linker_0, # of connection points: 2
#     Edge 103, Type (0, 0), BuildingBlock: OJICUG_clean_linker_0, # of connection points: 2
#     Edge 104, Type (0, 0), BuildingBlock: OJICUG_clean_linker_0, # of connection points: 2
#     Edge 105, Type (0, 0), BuildingBlock: OJICUG_clean_linker_0, # of connection points: 2
#     Edge 106, Type (0, 0), BuildingBlock: OJICUG_clean_linker_0, # of connection points: 2
#     Edge 107, Type (0, 0), BuildingBlock: OJICUG_clean_linker_0, # of connection points: 2
#     Edge 108, Type (0, 0), BuildingBlock: OJICUG_clean_linker_0, # of connection points: 2
#     Edge 109, Type (0, 0), BuildingBlock: OJICUG_clean_linker_0, # of connection points: 2
#     Edge 110, Type (0, 0), BuildingBlock: OJICUG_clean_linker_0, # of connection points: 2
#     Edge 111, Type (0, 0), BuildingBlock: OJICUG_clean_linker_0, # of connection points: 2
#     Edge 112, Type (0, 0), BuildingBlock: OJICUG_clean_linker_0, # of connection points: 2
#     Edge 113, Type (0, 0), BuildingBlock: OJICUG_clean_linker_0, # of connection points: 2
#     Edge 114, Type (0, 0), BuildingBlock: OJICUG_clean_linker_0, # of connection points: 2
#     Edge 115, Type (0, 0), BuildingBlock: OJICUG_clean_linker_0, # of connection points: 2
#     Edge 116, Type (0, 0), BuildingBlock: OJICUG_clean_linker_0, # of connection points: 2
#     Edge 117, Type (0, 0), BuildingBlock: OJICUG_clean_linker_0, # of connection points: 2
#     Edge 118, Type (0, 0), BuildingBlock: OJICUG_clean_linker_0, # of connection points: 2
#     Edge 119, Type (0, 0), BuildingBlock: OJICUG_clean_linker_0, # of connection points: 2
#     Edge 120, Type (0, 0), BuildingBlock: OJICUG_clean_linker_0, # of connection points: 2
#     Edge 121, Type (0, 0), BuildingBlock: OJICUG_clean_linker_0, # of connection points: 2
#     Edge 122, Type (0, 0), BuildingBlock: OJICUG_clean_linker_0, # of connection points: 2
#     Edge 123, Type (0, 0), BuildingBlock: OJICUG_clean_linker_0, # of connection points: 2
#     Edge 124, Type (0, 0), BuildingBlock: OJICUG_clean_linker_0, # of connection points: 2
#     Edge 125, Type (0, 0), BuildingBlock: OJICUG_clean_linker_0, # of connection points: 2
#     Edge 126, Type (0, 0), BuildingBlock: OJICUG_clean_linker_0, # of connection points: 2
#     Edge 127, Type (0, 0), BuildingBlock: OJICUG_clean_linker_0, # of connection points: 2
# Relax obj value: 0.318
# Max RMSD: 0.222
# Mean RMSD: 0.222
data_MOF--net-wir--node1-MIDCAF_clean_sbu_0--edge1-OJICUG_clean_linker_0
_symmetry_space_group_name_H-M    P1
_symmetry_Int_Tables_number       1
_symmetry_cell_setting            triclinic
loop_
_symmetry_equiv_pos_as_xyz
'x, y, z'
_cell_length_a     27.941275
_cell_length_b     27.671177
_cell_length_c     62.630453
_cell_angle_alpha  90.108946
_cell_angle_beta   90.900288
_cell_angle_gamma 89.318625
loop_
_atom_site_label
_atom_site_type_symbol
_atom_site_fract_x
_atom_site_fract_y
_atom_site_fract_z
_atom_type_partial_charge
Zn0 Zn 0.20545 0.07528 0.30675 0.0
Zn1 Zn 0.22306 0.23873 0.30325 0.0
Zn2 Zn 0.20062 0.15699 0.29255 0.0
C3 C 0.19264 0.19521 0.33868 0.0
C4 C 0.12377 0.24124 0.29884 0.0
O5 O 0.18964 0.09972 0.2687 0.0
O6 O 0.22976 0.03786 0.28201 0.0
C7 C 0.281 0.12337 0.32439 0.0
O8 O 0.16742 0.17592 0.32359 0.0
O9 O 0.23095 0.21662 0.33396 0.0
O10 O 0.15753 0.27078 0.2965 0.0
O11 O 0.13431 0.1962 0.30192 0.0
O12 O 0.25167 0.09161 0.33006 0.0
O13 O 0.271 0.15023 0.30832 0.0
O14 O 0.13206 0.1471 0.30887 0.0
O15 O 0.13483 0.06749 0.31102 0.0
C16 C 0.11099 0.10642 0.31194 0.0
O17 O 0.21155 0.20479 0.26633 0.0
O18 O 0.27198 0.24466 0.2802 0.0
C19 C 0.2069 0.05685 0.26659 0.0
C20 C 0.24618 0.234 0.26408 0.0
Zn21 Zn 0.09867 0.98534 0.56061 0.0
Zn22 Zn 0.23403 0.9072 0.56321 0.0
Zn23 Zn 0.1565 0.93101 0.55363 0.0
C24 C 0.18401 0.82737 0.57494 0.0
C25 C 0.21585 0.99777 0.5815 0.0
O26 O 0.12553 0.94087 0.52083 0.0
O27 O 0.05928 0.97146 0.53412 0.0
C28 C 0.05924 0.88798 0.5573 0.0
O29 O 0.15047 0.8593 0.5714 0.0
O30 O 0.22691 0.83861 0.57174 0.0
O31 O 0.24241 0.96102 0.5846 0.0
O32 O 0.18161 0.99605 0.568 0.0
O33 O 0.0453 0.93094 0.55293 0.0
O34 O 0.10309 0.88113 0.56323 0.0
O35 O 0.1274 0.90288 0.584 0.0
O36 O 0.10271 0.97636 0.5925 0.0
C37 C 0.1122 0.93334 0.59815 0.0
O38 O 0.18198 0.92181 0.52171 0.0
O39 O 0.2565 0.91717 0.53369 0.0
C40 C 0.08275 0.95759 0.5179 0.0
C41 C 0.22704 0.91987 0.5182 0.0
Zn42 Zn 0.26259 0.99703 0.80549 0.0
Zn43 Zn 0.31188 0.84242 0.80434 0.0
Zn44 Zn 0.29676 0.91835 0.80359 0.0
C45 C 0.28916 0.85616 0.84294 0.0
C46 C 0.39458 0.8733 0.79364 0.0
O47 O 0.27984 0.93454 0.76994 0.0
O48 O 0.26684 0.01221 0.77535 0.0
C49 C 0.20204 0.95698 0.83065 0.0
O50 O 0.26279 0.88388 0.83106 0.0
O51 O 0.32737 0.83929 0.83541 0.0
O52 O 0.36613 0.84409 0.78486 0.0
O53 O 0.37696 0.90607 0.80612 0.0
O54 O 0.19866 0.99326 0.81855 0.0
O55 O 0.23773 0.92723 0.82835 0.0
O56 O 0.36137 0.95525 0.81298 0.0
O57 O 0.3187 0.0181 0.82367 0.0
C58 C 0.35857 0.99596 0.82279 0.0
O59 O 0.27367 0.88157 0.77339 0.0
O60 O 0.24945 0.81993 0.7922 0.0
C61 C 0.27478 0.9778 0.76263 0.0
C62 C 0.25145 0.84093 0.77434 0.0
Zn63 Zn 0.30997 0.09142 0.07854 0.0
Zn64 Zn 0.44082 0.02261 0.04558 0.0
Zn65 Zn 0.36362 0.07167 0.04641 0.0
C66 C 0.43282 0.06205 0.08479 0.0
C67 C 0.46184 0.11975 0.03856 0.0
O68 O 0.29598 0.10077 0.03529 0.0
O69 O 0.24819 0.08527 0.06198 0.0
C70 C 0.33827 0.99879 0.08314 0.0
O71 O 0.41071 0.09284 0.07275 0.0
O72 O 0.44093 0.01976 0.07782 0.0
O73 O 0.4772 0.07941 0.03183 0.0
O74 O 0.42285 0.12169 0.04925 0.0
O75 O 0.33316 0.03451 0.09558 0.0
O76 O 0.34592 1.00614 0.06336 0.0
O77 O 0.38462 0.14425 0.05997 0.0
O78 O 0.3285 0.16018 0.08356 0.0
C79 C 0.36306 0.17424 0.07252 0.0
O80 O 0.3889 0.04734 0.01591 0.0
O81 O 0.41366 0.97462 0.0249 0.0
C82 C 0.25395 0.09903 0.04298 0.0
C83 C 0.40565 1.00593 0.0105 0.0
Zn84 Zn 0.13971 0.7021 0.17313 0.0
Zn85 Zn 0.13105 0.93277 0.14977 0.0
Zn86 Zn 0.14385 0.84915 0.1622 0.0
C87 C 0.04676 0.88712 0.14087 0.0
C88 C 0.20737 0.89968 0.12615 0.0
O89 O 0.1701 0.84168 0.19567 0.0
O90 O 0.15598 0.77094 0.18322 0.0
C91 C 0.05245 0.76223 0.16094 0.0
O92 O 0.07027 0.85244 0.14996 0.0
O93 O 0.0652 0.92823 0.1392 0.0
O94 O 0.1826 0.93769 0.12841 0.0
O95 O 0.19801 0.86164 0.13704 0.0
O96 O 0.07134 0.72102 0.16549 0.0
O97 O 0.07628 0.80245 0.1598 0.0
O98 O 0.18958 0.8138 0.13934 0.0
O99 O 0.17809 0.75718 0.16185 0.0
C100 C 0.18662 0.76871 0.14282 0.0
O101 O 0.16223 0.89407 0.19103 0.0
O102 O 0.14141 0.96477 0.17719 0.0
C103 C 0.17036 0.79612 0.1989 0.0
C104 C 0.15663 0.9403 0.1929 0.0
Zn105 Zn 0.48188 0.9496 0.39426 0.0
Zn106 Zn 0.32298 0.95017 0.39587 0.0
Zn107 Zn 0.40496 0.93304 0.4064 0.0
C108 C 0.33786 0.85177 0.38594 0.0
C109 C 0.37402 0.01923 0.376 0.0
O110 O 0.45733 0.94674 0.43214 0.0
O111 O 0.49583 1.00329 0.41516 0.0
C112 C 0.47857 0.84904 0.40152 0.0
O113 O 0.38205 0.86352 0.38988 0.0
O114 O 0.30527 0.88326 0.38818 0.0
O115 O 0.33466 0.99799 0.37346 0.0
O116 O 0.40493 1.00306 0.38953 0.0
O117 O 0.50893 0.88257 0.40302 0.0
O118 O 0.43434 0.86083 0.39779 0.0
O119 O 0.41672 0.89317 0.37643 0.0
O120 O 0.45735 0.95362 0.36354 0.0
C121 C 0.43456 0.91488 0.36028 0.0
O122 O 0.35579 0.92877 0.43279 0.0
O123 O 0.29352 0.97248 0.42258 0.0
C124 C 0.48729 0.98161 0.43247 0.0
C125 C 0.31535 0.94859 0.43691 0.0
Zn126 Zn 0.40806 0.07003 0.65234 0.0
Zn127 Zn 0.36474 0.23421 0.65447 0.0
Zn128 Zn 0.38929 0.1551 0.66542 0.0
C129 C 0.40763 0.19406 0.62083 0.0
C130 C 0.46226 0.24199 0.66413 0.0
O131 O 0.37496 0.10043 0.6894 0.0
O132 O 0.37733 0.02923 0.6737 0.0
C133 C 0.33229 0.1125 0.62847 0.0
O134 O 0.43035 0.17462 0.63676 0.0
O135 O 0.36663 0.21286 0.62384 0.0
O136 O 0.42589 0.26977 0.6639 0.0
O137 O 0.45605 0.19618 0.66164 0.0
O138 O 0.36838 0.08502 0.62597 0.0
O139 O 0.33012 0.14047 0.64461 0.0
O140 O 0.46503 0.1483 0.65419 0.0
O141 O 0.47883 0.0697 0.65293 0.0
C142 C 0.49453 0.11215 0.65211 0.0
O143 O 0.36777 0.20141 0.69081 0.0
O144 O 0.30866 0.23921 0.67409 0.0
C145 C 0.36753 0.05481 0.68973 0.0
C146 C 0.33087 0.22906 0.69132 0.0
Zn147 Zn 0.16815 0.07681 0.93516 0.0
Zn148 Zn 0.01886 0.08087 0.90223 0.0
Zn149 Zn 0.08932 0.11995 0.92655 0.0
C150 C 0.07834 0.15664 0.88467 0.0
C151 C 0.98117 0.16653 0.91125 0.0
O152 O 0.10372 0.12557 0.96175 0.0
O153 O 0.16503 0.0751 0.96594 0.0
C154 C 0.12949 0.01384 0.90851 0.0
O155 O 0.07984 0.17611 0.90325 0.0
O156 O 0.07498 0.11099 0.88399 0.0
O157 O 0.96678 0.13106 0.90013 0.0
O158 O 0.02307 0.16471 0.92018 0.0
O159 O 0.16632 0.0147 0.92035 0.0
O160 O 0.09874 0.04845 0.90983 0.0
O161 O 0.14178 0.17226 0.91721 0.0
O162 O 0.20766 0.12939 0.92236 0.0
C163 C 0.18727 0.16807 0.91615 0.0
O164 O 0.04918 0.11654 0.95424 0.0
O165 O 0.0046 0.0668 0.93491 0.0
C166 C 0.13474 0.10372 0.97383 0.0
C167 C 0.01443 0.08714 0.95275 0.0
Zn168 Zn 0.83413 0.80549 0.66124 0.0
Zn169 Zn 0.88544 0.96446 0.67189 0.0
Zn170 Zn 0.86535 0.87987 0.67056 0.0
C171 C 0.96651 0.91873 0.65624 0.0
C172 C 0.80079 0.95131 0.64648 0.0
O173 O 0.83852 0.84554 0.69927 0.0
O174 O 0.78011 0.81154 0.68106 0.0
C175 C 0.93118 0.78822 0.66806 0.0
O176 O 0.93793 0.88261 0.65764 0.0
O177 O 0.95227 0.9606 0.66134 0.0
O178 O 0.82991 0.9831 0.65289 0.0
O179 O 0.80726 0.90736 0.65174 0.0
O180 O 0.89347 0.76427 0.67089 0.0
O181 O 0.92684 0.83313 0.6627 0.0
O182 O 0.90195 0.85251 0.64156 0.0
O183 O 0.8313 0.82807 0.63068 0.0
C184 C 0.87356 0.83981 0.62615 0.0
O185 O 0.86628 0.8924 0.7051 0.0
O186 O 0.87945 0.9708 0.70292 0.0
C187 C 0.79859 0.82297 0.69888 0.0
C188 C 0.87259 0.93364 0.71403 0.0
Zn189 Zn 0.9998 0.01544 0.40044 0.0
Zn190 Zn 0.8392 0.06357 0.38834 0.0
Zn191 Zn 0.91612 0.04431 0.4072 0.0
C192 C 0.88084 0.15119 0.38788 0.0
C193 C 0.87665 0.98255 0.37048 0.0
O194 O 0.95736 0.01732 0.43457 0.0
O195 O 0.99926 0.95854 0.41995 0.0
C196 C 1.00133 0.11395 0.4113 0.0
O197 O 0.91613 0.12191 0.39282 0.0
O198 O 0.83917 0.13469 0.38609 0.0
O199 O 0.85784 0.02152 0.3638 0.0
O200 O 0.89792 0.98197 0.38861 0.0
O201 O 0.02919 0.0779 0.41371 0.0
O202 O 0.95919 0.10746 0.4032 0.0
O203 O 0.94469 0.08329 0.38022 0.0
O204 O 0.97938 0.01615 0.36933 0.0
C205 C 0.96451 0.0586 0.36525 0.0
O206 O 0.85953 0.05152 0.42928 0.0
O207 O 0.79403 0.03961 0.41012 0.0
C208 C 0.98498 0.98015 0.43654 0.0
C209 C 0.81449 0.04441 0.42809 0.0
Zn210 Zn 0.69694 0.23207 0.14631 0.0
Zn211 Zn 0.67439 0.07241 0.14344 0.0
Zn212 Zn 0.67674 0.15177 0.15747 0.0
C213 C 0.58025 0.10048 0.14283 0.0
C214 C 0.74301 0.11181 0.12085 0.0
O215 O 0.69816 0.1992 0.18332 0.0
O216 O 0.75338 0.23921 0.1665 0.0
C217 C 0.59823 0.23767 0.1538 0.0
O218 O 0.60224 0.14132 0.14467 0.0
O219 O 0.6043 0.06171 0.14377 0.0
O220 O 0.70833 0.08463 0.1163 0.0
O221 O 0.74131 0.13759 0.13787 0.0
O222 O 0.63353 0.26596 0.15487 0.0
O223 O 0.60684 0.19199 0.1509 0.0
O224 O 0.63417 0.16943 0.12881 0.0
O225 O 0.69635 0.20708 0.11598 0.0
C226 C 0.65652 0.18656 0.11275 0.0
O227 O 0.67681 0.09732 0.18264 0.0
O228 O 0.70937 0.03561 0.16604 0.0
C229 C 0.73387 0.22778 0.18385 0.0
C230 C 0.69557 0.05482 0.18319 0.0
Zn231 Zn 0.43317 0.01571 0.90817 0.0
Zn232 Zn 0.65282 0.95474 0.88803 0.0
Zn233 Zn 0.57477 0.98274 0.90116 0.0
C234 C 0.59285 0.87593 0.88652 0.0
C235 C 0.6374 0.03279 0.86308 0.0
O236 O 0.56792 1.00084 0.93516 0.0
O237 O 0.50322 0.0216 0.91839 0.0
C238 C 0.47016 0.91504 0.89822 0.0
O239 O 0.56279 0.9089 0.8918 0.0
O240 O 0.63627 0.88607 0.88396 0.0
O241 O 0.66581 0.99701 0.86317 0.0
O242 O 0.60205 0.03406 0.87613 0.0
O243 O 0.43393 0.94319 0.90078 0.0
O244 O 0.51416 0.92985 0.89851 0.0
O245 O 0.5531 0.03783 0.87777 0.0
O246 O 0.49546 0.0483 0.8993 0.0
C247 C 0.50974 0.05083 0.88022 0.0
O248 O 0.61881 0.98775 0.93066 0.0
O249 O 0.68687 0.96871 0.91515 0.0
C250 C 0.52378 0.01285 0.93608 0.0
C251 C 0.66433 0.97997 0.9318 0.0
Zn252 Zn 0.86324 0.198 0.75949 0.0
Zn253 Zn 0.85794 0.10011 0.82514 0.0
Zn254 Zn 0.84677 0.1561 0.79474 0.0
C255 C 0.92833 0.1668 0.8331 0.0
C256 C 0.76248 0.14353 0.82415 0.0
O257 O 0.78377 0.19539 0.7837 0.0
O258 O 0.79883 0.16833 0.75171 0.0
C259 C 0.94869 0.17776 0.7772 0.0
O260 O 0.90827 0.18312 0.81573 0.0
O261 O 0.91348 0.12815 0.84122 0.0
O262 O 0.79143 0.11647 0.83446 0.0
O263 O 0.77581 0.16477 0.80718 0.0
O264 O 0.93231 0.16938 0.75858 0.0
O265 O 0.91937 0.18251 0.79274 0.0
O266 O 0.88619 0.22071 0.80214 0.0
O267 O 0.85711 0.26392 0.77527 0.0
C268 C 0.87375 0.26212 0.79417 0.0
O269 O 0.85714 0.09034 0.77816 0.0
O270 O 0.86725 0.04159 0.80577 0.0
C271 C 0.77098 0.19132 0.76407 0.0
C272 C 0.86424 0.0481 0.78579 0.0
Zn273 Zn 0.73143 0.11483 0.54836 0.0
Zn274 Zn 0.57623 0.06393 0.54736 0.0
Zn275 Zn 0.65352 0.09001 0.5432 0.0
C276 C 0.61117 0.09848 0.58527 0.0
C277 C 0.56733 0.16249 0.54336 0.0
O278 O 0.6769 0.08487 0.51054 0.0
O279 O 0.75179 0.0833 0.52191 0.0
C280 C 0.71001 0.03946 0.57699 0.0
O281 O 0.62799 0.12805 0.57145 0.0
O282 O 0.59352 0.05904 0.57874 0.0
O283 O 0.5423 0.12728 0.53706 0.0
O284 O 0.61009 0.15406 0.55063 0.0
O285 O 0.73531 0.07678 0.57534 0.0
O286 O 0.67712 0.03115 0.5632 0.0
O287 O 0.65881 0.16542 0.55861 0.0
O288 O 0.73259 0.18654 0.551 0.0
C289 C 0.69269 0.19727 0.55899 0.0
O290 O 0.61963 0.06736 0.51218 0.0
O291 O 0.57871 1.00924 0.52681 0.0
C292 C 0.72137 0.07687 0.50709 0.0
C293 C 0.59277 0.03 0.51011 0.0
Zn294 Zn 0.65605 0.93196 0.30363 0.0
Zn295 Zn 0.6822 0.70237 0.27515 0.0
Zn296 Zn 0.67073 0.84876 0.28866 0.0
C297 C 0.71636 0.77162 0.31121 0.0
C298 C 0.58885 0.75342 0.28425 0.0
O299 O 0.68717 0.89516 0.26093 0.0
O300 O 0.67052 0.9647 0.27667 0.0
C301 C 0.73177 0.90091 0.32735 0.0
O302 O 0.71694 0.81715 0.31347 0.0
O303 O 0.71029 0.75788 0.29207 0.0
O304 O 0.611 0.71479 0.27855 0.0
O305 O 0.60918 0.79502 0.28762 0.0
O306 O 0.70472 0.93772 0.32713 0.0
O307 O 0.72324 0.8651 0.31474 0.0
O308 O 0.59568 0.84655 0.29647 0.0
O309 O 0.58786 0.92052 0.30943 0.0
C310 C 0.56983 0.88026 0.30458 0.0
O311 O 0.69722 0.84398 0.25619 0.0
O312 O 0.69822 0.77377 0.271 0.0
C313 C 0.68344 0.94162 0.26028 0.0
C314 C 0.70423 0.7986 0.25438 0.0
Zn315 Zn 0.78984 0.91724 0.05156 0.0
Zn316 Zn 0.94666 0.92246 0.02491 0.0
Zn317 Zn 0.86362 0.91961 0.03466 0.0
C318 C 0.92996 0.90207 0.06874 0.0
C319 C 0.94509 0.8304 0.02745 0.0
O320 O 0.81186 0.91967 0.00884 0.0
O321 O 0.75242 0.94861 0.02768 0.0
C322 C 0.84187 0.99128 0.07108 0.0
O323 O 0.89785 0.87682 0.05911 0.0
O324 O 0.95137 0.93425 0.05817 0.0
O325 O 0.97087 0.85844 0.01687 0.0
O326 O 0.90683 0.84718 0.03646 0.0
O327 O 0.8125 0.95891 0.07612 0.0
O328 O 0.86417 0.98747 0.05337 0.0
O329 O 0.8628 0.84629 0.0503 0.0
O330 O 0.78439 0.84523 0.05382 0.0
C331 C 0.82393 0.82264 0.05385 0.0
O332 O 0.8958 0.99243 0.03281 0.0
O333 O 0.90872 0.9591 0.00223 0.0
C334 C 0.77019 0.93926 0.00969 0.0
C335 C 0.9041 0.99726 0.0129 0.0
Zn336 Zn 0.67071 0.75652 0.80933 0.0
Zn337 Zn 0.60512 0.60302 0.81223 0.0
Zn338 Zn 0.63363 0.6832 0.79446 0.0
C339 C 0.52243 0.66082 0.8021 0.0
C340 C 0.68597 0.63845 0.83379 0.0
O341 O 0.67018 0.72423 0.77147 0.0
O342 O 0.73019 0.74764 0.7919 0.0
C343 C 0.58076 0.78623 0.7948 0.0
O344 O 0.55456 0.69376 0.80011 0.0
O345 O 0.53552 0.61854 0.80733 0.0
O346 O 0.64744 0.61693 0.83809 0.0
O347 O 0.68905 0.66281 0.81666 0.0
O348 O 0.62101 0.8054 0.79832 0.0
O349 O 0.57688 0.73973 0.79562 0.0
O350 O 0.59024 0.70976 0.8212 0.0
O351 O 0.65454 0.7339 0.8388 0.0
C352 C 0.61048 0.72312 0.83881 0.0
O353 O 0.63733 0.62196 0.77276 0.0
O354 O 0.6308 0.55543 0.79176 0.0
C355 C 0.71184 0.74237 0.77342 0.0
C356 C 0.63988 0.57579 0.77433 0.0
Zn357 Zn 0.49337 0.40152 0.01369 0.0
Zn358 Zn 0.66525 0.40045 0.0452 0.0
Zn359 Zn 0.57954 0.40841 0.02846 0.0
C360 C 0.62707 0.31111 0.04942 0.0
C361 C 0.61941 0.47326 0.06777 0.0
O362 O 0.58068 0.44357 -0.00318 0.0
O363 O 0.50216 0.45171 -0.00741 0.0
C364 C 0.51895 0.31036 0.01706 0.0
O365 O 0.59259 0.33407 0.0399 0.0
O366 O 0.6657 0.33216 0.05391 0.0
O367 O 0.65918 0.45137 0.06695 0.0
O368 O 0.58467 0.46148 0.05515 0.0
O369 O 0.48928 0.33219 0.00504 0.0
O370 O 0.55043 0.33431 0.02787 0.0
O371 O 0.53776 0.45109 0.05006 0.0
O372 O 0.46595 0.42379 0.04117 0.0
C373 C 0.49276 0.44807 0.05346 0.0
O374 O 0.62818 0.42807 0.00286 0.0
O375 O 0.69845 0.41704 0.01915 0.0
C376 C 0.54395 0.46238 -0.01281 0.0
C377 C 0.67429 0.42776 0.00263 0.0
Zn378 Zn 0.8215 0.45499 0.30472 0.0
Zn379 Zn 0.82538 0.29489 0.3012 0.0
Zn380 Zn 0.83845 0.37314 0.29982 0.0
C381 C 0.85528 0.31367 0.34034 0.0
C382 C 0.92507 0.305 0.29761 0.0
O383 O 0.84069 0.40133 0.26683 0.0
O384 O 0.83369 0.47811 0.27578 0.0
C385 C 0.74114 0.40394 0.31807 0.0
O386 O 0.87895 0.34171 0.32802 0.0
O387 O 0.81709 0.2953 0.33308 0.0
O388 O 0.89323 0.27684 0.29036 0.0
O389 O 0.91089 0.34359 0.3075 0.0
O390 O 0.75312 0.44643 0.31329 0.0
O391 O 0.7709 0.36935 0.31557 0.0
O392 O 0.90174 0.39302 0.3195 0.0
O393 O 0.87344 0.46622 0.32632 0.0
C394 C 0.90578 0.43433 0.32901 0.0
O395 O 0.82536 0.34529 0.26699 0.0
O396 O 0.77206 0.2962 0.28006 0.0
C397 C 0.83944 0.44628 0.26159 0.0
C398 C 0.79051 0.31576 0.26398 0.0
Zn399 Zn 0.02909 0.61836 0.51877 0.0
Zn400 Zn 0.83266 0.61865 0.55785 0.0
Zn401 Zn 0.91511 0.61004 0.54125 0.0
C402 C 0.87724 0.70713 0.56264 0.0
C403 C 0.88328 0.54305 0.57912 0.0
O404 O 0.9117 0.57016 0.51115 0.0
O405 O 0.96573 0.62097 0.50446 0.0
C406 C 0.98642 0.70763 0.53258 0.0
O407 O 0.90664 0.68563 0.55014 0.0
O408 O 0.84179 0.68479 0.5698 0.0
O409 O 0.84157 0.56023 0.57631 0.0
O410 O 0.91858 0.56059 0.56889 0.0
O411 O 0.02296 0.6886 0.52395 0.0
O412 O 0.95056 0.68232 0.53888 0.0
O413 O 0.96464 0.57461 0.5625 0.0
O414 O 0.03705 0.58716 0.54859 0.0
C415 C 0.01069 0.57313 0.56375 0.0
O416 O 0.86187 0.58435 0.51708 0.0
O417 O 0.79469 0.6109 0.53136 0.0
C418 C 0.94831 0.58057 0.50034 0.0
C419 C 0.81621 0.59153 0.51592 0.0
Zn420 Zn 0.72675 0.48155 0.65976 0.0
Zn421 Zn 0.7587 0.33067 0.65966 0.0
Zn422 Zn 0.72482 0.39955 0.66487 0.0
C423 C 0.72068 0.34324 0.6207 0.0
C424 C 0.65409 0.31903 0.6604 0.0
O425 O 0.70909 0.42753 0.69728 0.0
O426 O 0.72811 0.50208 0.68917 0.0
C427 C 0.81187 0.44908 0.64326 0.0
O428 O 0.69513 0.37008 0.63327 0.0
O429 O 0.75968 0.32542 0.62781 0.0
O430 O 0.69115 0.29412 0.66556 0.0
O431 O 0.66098 0.36206 0.65335 0.0
O432 O 0.78706 0.48729 0.64461 0.0
O433 O 0.79573 0.40948 0.65063 0.0
O434 O 0.66312 0.41137 0.64311 0.0
O435 O 0.66488 0.49121 0.64418 0.0
C436 C 0.6448 0.45291 0.63804 0.0
O437 O 0.72293 0.36802 0.6983 0.0
O438 O 0.73361 0.29509 0.68503 0.0
C439 C 0.7152 0.47184 0.70286 0.0
C440 C 0.72566 0.32195 0.70117 0.0
Zn441 Zn 0.92019 0.42387 0.93044 0.0
Zn442 Zn 0.80058 0.44614 0.88955 0.0
Zn443 Zn 0.87768 0.45923 0.901 0.0
C444 C 0.85389 0.40428 0.85866 0.0
C445 C 0.81278 0.53962 0.88517 0.0
O446 O 0.93701 0.50148 0.91322 0.0
O447 O 0.91459 0.48831 0.94577 0.0
C448 C 0.87857 0.34936 0.91347 0.0
O449 O 0.88289 0.40662 0.87491 0.0
O450 O 0.81313 0.42424 0.85965 0.0
O451 O 0.78222 0.51487 0.89464 0.0
O452 O 0.85341 0.52014 0.88145 0.0
O453 O 0.87535 0.36769 0.93195 0.0
O454 O 0.88291 0.37834 0.89747 0.0
O455 O 0.92846 0.40884 0.88608 0.0
O456 O 0.98097 0.40891 0.91256 0.0
C457 C 0.9715 0.40087 0.89301 0.0
O458 O 0.82695 0.45137 0.9268 0.0
O459 O 0.77392 0.40389 0.91139 0.0
C460 C 0.93984 0.5121 0.93302 0.0
C461 C 0.78894 0.42605 0.92782 0.0
Zn462 Zn 0.7606 0.69692 0.14027 0.0
Zn463 Zn 0.80056 0.54034 0.13711 0.0
Zn464 Zn 0.79722 0.62295 0.14888 0.0
C465 C 0.89058 0.58071 0.1283 0.0
C466 C 0.71784 0.57597 0.12016 0.0
O467 O 0.77737 0.66649 0.17601 0.0
O468 O 0.70981 0.69437 0.16204 0.0
C469 C 0.85818 0.71469 0.14499 0.0
O470 O 0.86715 0.62042 0.13203 0.0
O471 O 0.86938 0.54083 0.12974 0.0
O472 O 0.74868 0.5442 0.1154 0.0
O473 O 0.72754 0.60766 0.13433 0.0
O474 O 0.81979 0.73671 0.14955 0.0
O475 O 0.85613 0.67017 0.1389 0.0
O476 O 0.82669 0.6484 0.1179 0.0
O477 O 0.75519 0.67664 0.10944 0.0
C478 C 0.79675 0.66433 0.10355 0.0
O479 O 0.81718 0.57398 0.17495 0.0
O480 O 0.78827 0.50483 0.16384 0.0
C481 C 0.73741 0.68906 0.17812 0.0
C482 C 0.80732 0.52965 0.17852 0.0
Zn483 Zn 0.70082 0.55561 0.39571 0.0
Zn484 Zn 0.54027 0.54811 0.39914 0.0
Zn485 Zn 0.61953 0.56469 0.40605 0.0
C486 C 0.57051 0.57934 0.36222 0.0
C487 C 0.54378 0.64857 0.40432 0.0
O488 O 0.66557 0.56983 0.43491 0.0
O489 O 0.73289 0.54 0.42261 0.0
C490 C 0.65097 0.47848 0.378 0.0
O491 O 0.59429 0.60276 0.37664 0.0
O492 O 0.55156 0.5398 0.36743 0.0
O493 O 0.51465 0.61533 0.40853 0.0
O494 O 0.58593 0.63598 0.39793 0.0
O495 O 0.68987 0.50076 0.37625 0.0
O496 O 0.61815 0.49533 0.38988 0.0
O497 O 0.63403 0.63062 0.38671 0.0
O498 O 0.71248 0.6213 0.38414 0.0
C499 C 0.67525 0.64658 0.38087 0.0
O500 O 0.58068 0.55319 0.43521 0.0
O501 O 0.53569 0.49653 0.42103 0.0
C502 C 0.70888 0.55525 0.43813 0.0
C503 C 0.55059 0.51897 0.43743 0.0
Zn504 Zn 0.30327 0.3049 0.14632 0.0
Zn505 Zn 0.28119 0.46569 0.13997 0.0
Zn506 Zn 0.31267 0.38623 0.14886 0.0
C507 C 0.37674 0.45636 0.12443 0.0
C508 C 0.21673 0.40202 0.12201 0.0
O509 O 0.30309 0.36251 0.18092 0.0
O510 O 0.25037 0.31186 0.16777 0.0
C511 C 0.4011 0.31268 0.15386 0.0
O512 O 0.37451 0.41408 0.13292 0.0
O513 O 0.34083 0.48462 0.12494 0.0
O514 O 0.22304 0.44696 0.12372 0.0
O515 O 0.24697 0.37282 0.13053 0.0
O516 O 0.3683 0.2837 0.15874 0.0
O517 O 0.38829 0.35398 0.14562 0.0
O518 O 0.36161 0.36323 0.12372 0.0
O519 O 0.30394 0.31453 0.11382 0.0
C520 C 0.34139 0.33741 0.10906 0.0
O521 O 0.30774 0.42467 0.1794 0.0
O522 O 0.27199 0.49183 0.16841 0.0
C523 C 0.2697 0.33198 0.1839 0.0
C524 C 0.28913 0.46639 0.1834 0.0
Zn525 Zn 0.30429 0.59358 0.88619 0.0
Zn526 Zn 0.45838 0.61251 0.8831 0.0
Zn527 Zn 0.38378 0.61711 0.89984 0.0
C528 C 0.39678 0.63904 0.85213 0.0
C529 C 0.44085 0.70956 0.89211 0.0
O530 O 0.33352 0.61495 0.92522 0.0
O531 O 0.27974 0.56463 0.91273 0.0
C532 C 0.36403 0.52985 0.86864 0.0
O533 O 0.37988 0.65853 0.86912 0.0
O534 O 0.42791 0.60572 0.8542 0.0
O535 O 0.47658 0.68108 0.89304 0.0
O536 O 0.39881 0.69161 0.88951 0.0
O537 O 0.32545 0.55056 0.86285 0.0
O538 O 0.38902 0.54743 0.88389 0.0
O539 O 0.34599 0.68506 0.88987 0.0
O540 O 0.27391 0.65774 0.88177 0.0
C541 C 0.30103 0.69295 0.88558 0.0
O542 O 0.44495 0.60328 0.92167 0.0
O543 O 0.48645 0.5583 0.89946 0.0
C544 C 0.29607 0.58989 0.92793 0.0
C545 C 0.47892 0.57257 0.9183 0.0
Zn546 Zn 0.22229 0.69607 0.66729 0.0
Zn547 Zn 0.19923 0.54703 0.66016 0.0
Zn548 Zn 0.19329 0.62257 0.67561 0.0
C549 C 0.1151 0.5725 0.64348 0.0
C550 C 0.27831 0.59065 0.64827 0.0
O551 O 0.20223 0.67486 0.70248 0.0
O552 O 0.26929 0.70543 0.69091 0.0
C553 C 0.12109 0.70305 0.66884 0.0
O554 O 0.13314 0.61285 0.65048 0.0
O555 O 0.13463 0.5331 0.64898 0.0
O556 O 0.24752 0.56473 0.63901 0.0
O557 O 0.26709 0.61324 0.66526 0.0
O558 O 0.15672 0.72942 0.67309 0.0
O559 O 0.12922 0.659 0.66318 0.0
O560 O 0.16862 0.64848 0.6427 0.0
O561 O 0.23691 0.68438 0.6366 0.0
C562 C 0.19667 0.67021 0.62965 0.0
O563 O 0.17876 0.56521 0.69882 0.0
O564 O 0.22192 0.50727 0.68467 0.0
C565 C 0.2383 0.70274 0.70542 0.0
C566 C 0.19889 0.52346 0.70032 0.0
Zn567 Zn 0.9992 0.40627 0.44529 0.0
Zn568 Zn 0.20186 0.39701 0.41675 0.0
Zn569 Zn 0.11779 0.40511 0.42722 0.0
C570 C 0.16566 0.3078 0.40883 0.0
C571 C 0.15955 0.46805 0.39065 0.0
O572 O 0.11497 0.44343 0.45775 0.0
O573 O 0.0584 0.39394 0.46223 0.0
C574 C 0.04364 0.3119 0.43251 0.0
O575 O 0.12992 0.32903 0.41779 0.0
O576 O 0.20427 0.33008 0.40643 0.0
O577 O 0.19955 0.44956 0.3957 0.0
O578 O 0.12117 0.45335 0.39943 0.0
O579 O 0.00778 0.33641 0.4389 0.0
O580 O 0.08421 0.33174 0.42822 0.0
O581 O 0.07262 0.44151 0.40407 0.0
O582 O 0.99779 0.44128 0.41655 0.0
C583 C 0.02747 0.45041 0.40195 0.0
O584 O 0.16509 0.43529 0.45342 0.0
O585 O 0.23706 0.41429 0.44232 0.0
C586 C 0.07736 0.43269 0.46783 0.0
C587 C 0.21101 0.4343 0.45606 0.0
Zn588 Zn 0.29133 0.78643 0.29862 0.0
Zn589 Zn 0.33347 0.5605 0.3071 0.0
Zn590 Zn 0.31017 0.63853 0.29995 0.0
C591 C 0.41325 0.61156 0.31475 0.0
C592 C 0.25305 0.5677 0.32997 0.0
O593 O 0.26859 0.65061 0.27055 0.0
O594 O 0.27618 0.71883 0.28665 0.0
C595 C 0.38746 0.73731 0.29619 0.0
O596 O 0.38758 0.64217 0.30415 0.0
O597 O 0.39498 0.57307 0.32149 0.0
O598 O 0.27713 0.53422 0.32153 0.0
O599 O 0.26528 0.6119 0.32702 0.0
O600 O 0.36324 0.77693 0.29643 0.0
O601 O 0.36888 0.6945 0.29757 0.0
O602 O 0.27628 0.65884 0.32957 0.0
O603 O 0.26939 0.72274 0.3104 0.0
C604 C 0.27315 0.70475 0.32891 0.0
O605 O 0.28858 0.5989 0.27073 0.0
O606 O 0.33852 0.53875 0.27792 0.0
C607 C 0.26059 0.69612 0.27042 0.0
C608 C 0.30955 0.55919 0.26516 0.0
Zn609 Zn 0.19587 0.55819 0.04859 0.0
Zn610 Zn 0.03909 0.53989 0.03276 0.0
Zn611 Zn 0.11454 0.56912 0.03849 0.0
C612 C 0.04824 0.55976 0.07501 0.0
C613 C 0.02865 0.64042 0.037 0.0
O614 O 0.15166 0.5892 0.00959 0.0
O615 O 0.22528 0.5813 0.02231 0.0
C616 C 0.15377 0.46871 0.05424 0.0
O617 O 0.073 0.59279 0.06602 0.0
O618 O 0.03752 0.52222 0.06434 0.0
O619 O 0.00892 0.60635 0.02675 0.0
O620 O 0.06793 0.63128 0.04758 0.0
O621 O 0.19497 0.48705 0.05406 0.0
O622 O 0.1176 0.49486 0.04911 0.0
O623 O 0.11916 0.62676 0.06272 0.0
O624 O 0.19251 0.60483 0.07285 0.0
C625 C 0.15639 0.63234 0.07489 0.0
O626 O 0.0964 0.57414 0.00483 0.0
O627 O 0.06203 0.50353 0.00659 0.0
C628 C 0.19699 0.59178 0.00708 0.0
C629 C 0.07663 0.53828 -0.00467 0.0
Zn630 Zn 0.23672 0.24415 0.80541 0.0
Zn631 Zn 0.19053 0.40182 0.8169 0.0
Zn632 Zn 0.2072 0.325 0.80986 0.0
C633 C 0.12621 0.35305 0.83905 0.0
C634 C 0.28318 0.39011 0.82819 0.0
O635 O 0.23548 0.31986 0.77765 0.0
O636 O 0.28868 0.26381 0.78644 0.0
C637 C 0.13743 0.24452 0.79896 0.0
O638 O 0.134 0.3263 0.8226 0.0
O639 O 0.15458 0.38698 0.84337 0.0
O640 O 0.25908 0.42117 0.81786 0.0
O641 O 0.26398 0.34917 0.83211 0.0
O642 O 0.17415 0.22195 0.79256 0.0
O643 O 0.14237 0.28372 0.80979 0.0
O644 O 0.24979 0.30576 0.83903 0.0
O645 O 0.25088 0.22653 0.83521 0.0
C646 C 0.25623 0.26311 0.84699 0.0
O647 O 0.21328 0.37012 0.78051 0.0
O648 O 0.15581 0.41989 0.79027 0.0
C649 C 0.27245 0.29408 0.77304 0.0
C650 C 0.18386 0.40506 0.77599 0.0
Zn651 Zn 0.3478 0.41165 0.57078 0.0
Zn652 Zn 0.56374 0.46082 0.5348 0.0
Zn653 Zn 0.42417 0.44243 0.55382 0.0
C654 C 0.5016 0.48964 0.57378 0.0
C655 C 0.51988 0.3638 0.54088 0.0
O656 O 0.37003 0.46195 0.52969 0.0
O657 O 0.30669 0.43664 0.54698 0.0
C658 C 0.38052 0.48172 0.59863 0.0
O659 O 0.45745 0.48811 0.57809 0.0
O660 O 0.51076 0.48395 0.5542 0.0
O661 O 0.55647 0.38799 0.53532 0.0
O662 O 0.47965 0.38327 0.54696 0.0
O663 O 0.34904 0.44935 0.59812 0.0
O664 O 0.41099 0.48477 0.58348 0.0
O665 O 0.43638 0.36623 0.55891 0.0
O666 O 0.36684 0.34198 0.57077 0.0
C667 C 0.40925 0.33242 0.56534 0.0
O668 O 0.4187 0.47548 0.5221 0.0
O669 O 0.4917 0.4765 0.53358 0.0
C670 C 0.32446 0.45628 0.53076 0.0
C671 C 0.46253 0.48384 0.51828 0.0
C672 C 0.13192 0.23476 0.3615 0.0
C673 C 0.17305 0.20535 0.35992 0.0
H674 H 0.09592 0.28968 0.37955 0.0
C675 C 0.20336 0.20004 0.37785 0.0
H676 H 0.10877 0.24075 0.34771 0.0
C677 C 0.19694 0.22922 0.39582 0.0
C678 C 0.15948 0.26336 0.3962 0.0
H679 H 0.23507 0.17743 0.37706 0.0
H680 H 0.22417 0.22886 0.40833 0.0
C681 C 0.12478 0.26315 0.37973 0.0
C682 C 0.08693 0.95038 0.63501 0.0
C683 C 0.08993 0.91753 0.61795 0.0
H684 H 0.04437 0.97674 0.66076 0.0
C685 C 0.05808 0.87893 0.61697 0.0
H686 H 0.1109 0.98083 0.63602 0.0
C687 C 0.02046 0.87625 0.63114 0.0
C688 C 0.0134 0.91298 0.64617 0.0
H689 H 0.05777 0.85479 0.60358 0.0
H690 H 0.99415 0.84848 0.62872 0.0
C691 C 0.04856 0.94838 0.64896 0.0
C692 C 0.30052 0.82709 0.87939 0.0
C693 C 0.27049 0.83092 0.86132 0.0
H694 H 0.3341 0.77825 0.90172 0.0
C695 C 0.23843 0.79375 0.85666 0.0
H696 H 0.32424 0.85632 0.88366 0.0
C697 C 0.24508 0.74892 0.86639 0.0
C698 C 0.28299 0.74201 0.88114 0.0
H699 H 0.21439 0.79639 0.84295 0.0
H700 H 0.22451 0.71866 0.86045 0.0
C701 C 0.30694 0.78234 0.88931 0.0
C702 C 0.50672 0.0537 0.13497 0.0
C703 C 0.53134 0.09768 0.13394 0.0
H704 H 0.45469 1.00791 0.12001 0.0
C705 C 0.5147 0.13358 0.11989 0.0
H706 H 0.51865 0.02543 0.14583 0.0
C707 C 0.47874 0.12314 0.10503 0.0
C708 C 0.45811 0.07741 0.10432 0.0
H709 H 0.53303 0.16753 0.11863 0.0
H710 H 0.47135 0.14849 0.09249 0.0
C711 C 0.47032 0.04357 0.12018 0.0
C712 C 0.185 0.6849 0.12873 0.0
C713 C 0.17712 0.73438 0.12528 0.0
H714 H 0.18385 0.61384 0.11533 0.0
C715 C 0.15776 0.74997 0.10553 0.0
H716 H 0.19941 0.67193 0.14386 0.0
C717 C 0.14753 0.71641 0.08932 0.0
C718 C 0.15741 0.66716 0.09262 0.0
H719 H 0.1505 0.78796 0.10263 0.0
H720 H 0.1341 0.72909 0.074 0.0
C721 C 0.17572 0.65171 0.1125 0.0
C722 C 0.4848 0.90427 0.30715 0.0
C723 C 0.52172 0.87135 0.31239 0.0
H724 H 0.42414 0.94354 0.31888 0.0
C725 C 0.51755 0.84242 0.33054 0.0
H726 H 0.48804 0.92796 0.2935 0.0
C727 C 0.47895 0.84862 0.34409 0.0
C728 C 0.44749 0.88791 0.34103 0.0
H729 H 0.54706 0.8194 0.33575 0.0
H730 H 0.47936 0.82864 0.35888 0.0
C731 C 0.44792 0.91286 0.32154 0.0
C732 C 0.40359 0.2435 0.5676 0.0
C733 C 0.42947 0.28553 0.57194 0.0
H734 H 0.37983 0.1764 0.58004 0.0
C735 C 0.46332 0.28533 0.58869 0.0
H736 H 0.37725 0.24297 0.55472 0.0
C737 C 0.46411 0.24757 0.60343 0.0
C738 C 0.43146 0.20958 0.60131 0.0
H739 H 0.48331 0.31768 0.59246 0.0
H740 H 0.48338 0.25336 0.61827 0.0
C741 C 0.40536 0.20516 0.58207 0.0
C742 C 0.05757 0.15783 0.84641 0.0
C743 C 0.05795 0.1828 0.86599 0.0
H744 H 0.01346 0.13204 0.8207 0.0
C745 C 0.02236 0.21817 0.86938 0.0
H746 H 0.08554 0.13165 0.8429 0.0
C747 C 0.98033 0.21758 0.85686 0.0
C748 C 0.97562 0.1841 0.84014 0.0
H749 H 0.02317 0.2402 0.88367 0.0
H750 H 0.95006 0.23951 0.86161 0.0
C751 C 0.01599 0.15756 0.83381 0.0
C752 C 0.9267 0.78737 0.60477 0.0
C753 C 0.89058 0.82302 0.60528 0.0
H754 H 0.95078 0.72188 0.58993 0.0
C755 C 0.85892 0.82762 0.58769 0.0
H756 H 0.95042 0.78175 0.61839 0.0
C757 C 0.85812 0.79231 0.57172 0.0
C758 C 0.89006 0.75304 0.57284 0.0
H759 H 0.83046 0.85457 0.58784 0.0
H760 H 0.82949 0.793 0.55985 0.0
C761 C 0.92645 0.75256 0.58856 0.0
C762 C 0.01486 0.12337 0.35151 0.0
C763 C 0.98694 0.08256 0.34729 0.0
H764 H 0.07565 0.16401 0.34266 0.0
C765 C 0.99397 0.05629 0.32839 0.0
H766 H 0.01254 0.14224 0.3666 0.0
C767 C 0.03232 0.06711 0.31533 0.0
C768 C 0.06301 0.10503 0.32083 0.0
H769 H 0.97339 0.0241 0.32508 0.0
H770 H 0.04038 0.04346 0.30202 0.0
C771 C 0.05198 0.13521 0.33803 0.0
C772 C 0.65227 0.22719 0.05742 0.0
C773 C 0.61861 0.26465 0.05965 0.0
H774 H 0.68873 0.16856 0.07303 0.0
C775 C 0.58683 0.26391 0.07675 0.0
H776 H 0.67742 0.22755 0.04442 0.0
C777 C 0.59327 0.23021 0.09307 0.0
C778 C 0.63207 0.19766 0.0925 0.0
H779 H 0.56166 0.29347 0.0791 0.0
H780 H 0.57323 0.23538 0.10756 0.0
C781 C 0.65859 0.19337 0.07374 0.0
C782 C 0.44686 1.0007 0.83118 0.0
C783 C 0.39958 0.01552 0.83508 0.0
H784 H 0.5199 1.00072 0.84238 0.0
C785 C 0.39078 0.04799 0.85189 0.0
H786 H 0.45477 0.97767 0.81771 0.0
C787 C 0.42773 0.06212 0.86558 0.0
C788 C 0.47434 0.04421 0.8628 0.0
H789 H 0.35484 0.06074 0.8552 0.0
H790 H 0.41934 0.0852 0.87904 0.0
C791 C 0.48412 0.0148 0.845 0.0
C792 C 0.84515 0.34431 0.80469 0.0
C793 C 0.8769 0.30522 0.80772 0.0
H794 H 0.81301 0.40715 0.81878 0.0
C795 C 0.90565 0.30324 0.82621 0.0
H796 H 0.82264 0.34676 0.79052 0.0
C797 C 0.89919 0.33634 0.84257 0.0
C798 C 0.86515 0.37352 0.8403 0.0
H799 H 0.93125 0.27425 0.82854 0.0
H800 H 0.91897 0.33108 0.85737 0.0
C801 C 0.83933 0.37838 0.82095 0.0
C802 C 0.57666 0.15541 0.61133 0.0
C803 C 0.6015 0.11226 0.60734 0.0
H804 H 0.52488 0.1905 0.63044 0.0
C805 C 0.60259 0.0759 0.62296 0.0
H806 H 0.57367 0.18325 0.59935 0.0
C807 C 0.57282 0.0794 0.64052 0.0
C808 C 0.54149 0.11912 0.64236 0.0
H809 H 0.62112 0.04196 0.62011 0.0
H810 H 0.5695 0.04823 0.65081 0.0
C811 C 0.54772 0.1592 0.62911 0.0
C812 C 0.71842 0.75401 0.35041 0.0
C813 C 0.7044 0.74093 0.32953 0.0
H814 H 0.71972 0.73383 0.38358 0.0
C815 C 0.67615 0.69987 0.32646 0.0
H816 H 0.73992 0.7858 0.35322 0.0
C817 C 0.66281 0.67194 0.34376 0.0
C818 C 0.67823 0.68385 0.36447 0.0
H819 H 0.6645 0.68885 0.31071 0.0
H820 H 0.64311 0.63913 0.34075 0.0
C821 C 0.70621 0.72501 0.36776 0.0
C822 C 0.96829 0.91279 0.12595 0.0
C823 C 0.00518 0.87796 0.12697 0.0
H824 H 0.91573 0.94795 0.10598 0.0
C825 C 0.01089 0.84562 0.10987 0.0
H826 H 0.96432 0.93918 0.13863 0.0
C827 C 0.98227 0.85011 0.09147 0.0
C828 C 0.94885 0.88806 0.08976 0.0
H829 H 0.04092 0.82049 0.10971 0.0
H830 H 0.98953 0.8271 0.07788 0.0
C831 C 0.9407 0.9181 0.10732 0.0
C832 C 0.60461 0.78759 0.88851 0.0
C833 C 0.57764 0.82715 0.88088 0.0
H834 H 0.63276 0.71767 0.88105 0.0
C835 C 0.54588 0.82082 0.86366 0.0
H836 H 0.62882 0.79169 0.90206 0.0
C837 C 0.54821 0.77835 0.85168 0.0
C838 C 0.58295 0.743 0.85664 0.0
H839 H 0.52448 0.85092 0.85768 0.0
H840 H 0.53001 0.77799 0.83649 0.0
C841 C 0.60631 0.74496 0.87664 0.0
C842 C 0.45819 0.44075 0.11009 0.0
C843 C 0.41496 0.46696 0.10937 0.0
H844 H 0.51883 0.41605 0.09247 0.0
C845 C 0.40434 0.49653 0.09161 0.0
H846 H 0.4672 0.41812 0.12362 0.0
C847 C 0.43303 0.4944 0.07368 0.0
C848 C 0.4735 0.46428 0.0737 0.0
H849 H 0.37127 0.51729 0.0906 0.0
H850 H 0.42153 0.5131 0.05927 0.0
C851 C 0.48775 0.43988 0.09237 0.0
C852 C 0.85186 0.23629 0.38755 0.0
C853 C 0.88759 0.20253 0.38209 0.0
H854 H 0.81502 0.30166 0.37879 0.0
C855 C 0.9223 0.2161 0.36739 0.0
H856 H 0.82486 0.22704 0.39903 0.0
C857 C 0.91723 0.25956 0.35602 0.0
C858 C 0.87682 0.28932 0.35908 0.0
H859 H 0.94962 0.19084 0.3627 0.0
H860 H 0.94079 0.26596 0.34278 0.0
C861 C 0.84661 0.27944 0.37618 0.0
C862 C 0.01328 0.58764 0.60311 0.0
C863 C 0.03377 0.56631 0.58488 0.0
H864 H 0.02293 0.60699 0.63613 0.0
C865 C 0.08013 0.5468 0.58641 0.0
H866 H 0.97816 0.60454 0.60215 0.0
C867 C 0.10566 0.54884 0.60568 0.0
C868 C 0.08581 0.57122 0.62374 0.0
H869 H 0.09711 0.53114 0.57254 0.0
H870 H 0.14171 0.53392 0.60634 0.0
C871 C 0.03923 0.59025 0.62242 0.0
C872 C 0.7144 0.28372 0.567 0.0
C873 C 0.6893 0.24166 0.57225 0.0
H874 H 0.74337 0.3509 0.57847 0.0
C875 C 0.66834 0.23901 0.59236 0.0
H876 H 0.73242 0.2862 0.55186 0.0
C877 C 0.67171 0.27708 0.60686 0.0
C878 C 0.69943 0.31758 0.60232 0.0
H879 H 0.65228 0.20591 0.5975 0.0
H880 H 0.65753 0.27182 0.62262 0.0
C881 C 0.72002 0.32111 0.58205 0.0
C882 C 0.08631 0.34325 0.87373 0.0
C883 C 0.08239 0.35051 0.85159 0.0
H884 H 0.05391 0.35265 0.90426 0.0
C885 C 0.03976 0.36978 0.84296 0.0
H886 H 0.11922 0.32963 0.88084 0.0
C887 C 1.00308 0.38493 0.85645 0.0
C888 C 0.0079 0.37984 0.87873 0.0
H889 H 0.0366 0.37728 0.82601 0.0
H890 H 0.97221 0.40335 0.84949 0.0
C891 C 0.04923 0.35731 0.88718 0.0
C892 C 0.78253 0.74432 0.05736 0.0
C893 C 0.8246 0.77112 0.05996 0.0
H894 H 0.7416 0.68522 0.06856 0.0
C895 C 0.86367 0.75016 0.07103 0.0
H896 H 0.75241 0.75863 0.04817 0.0
C897 C 0.85769 0.70674 0.08214 0.0
C898 C 0.81235 0.68588 0.08324 0.0
H899 H 0.89717 0.76922 0.07273 0.0
H900 H 0.88653 0.69276 0.09187 0.0
C901 C 0.77661 0.70169 0.06875 0.0
C902 C 0.5181 0.64401 0.34851 0.0
C903 C 0.54803 0.60438 0.34394 0.0
H904 H 0.44783 0.67394 0.34398 0.0
C905 C 0.53972 0.57798 0.32513 0.0
H906 H 0.52389 0.66531 0.3627 0.0
C907 C 0.49779 0.58603 0.31316 0.0
C908 C 0.46357 0.61978 0.32018 0.0
H909 H 0.56214 0.54705 0.32132 0.0
H910 H 0.4893 0.56163 0.30012 0.0
C911 C 0.47471 0.64983 0.33747 0.0
C912 C 0.34217 0.30585 0.0727 0.0
C913 C 0.36856 0.31754 0.09121 0.0
H914 H 0.32028 0.24833 0.05196 0.0
C915 C 0.40747 0.28788 0.09714 0.0
H916 H 0.31265 0.32886 0.06745 0.0
C917 C 0.4094 0.24055 0.08953 0.0
C918 C 0.37651 0.22519 0.07389 0.0
H919 H 0.42964 0.29702 0.11082 0.0
H920 H 0.43247 0.21523 0.09782 0.0
C921 C 0.34596 0.25938 0.06411 0.0
C922 C 0.3987 0.63064 0.81362 0.0
C923 C 0.39458 0.66246 0.83103 0.0
H924 H 0.44745 0.60402 0.79028 0.0
C925 C 0.41735 0.70729 0.82955 0.0
H926 H 0.3795 0.59683 0.8136 0.0
C927 C 0.45569 0.71229 0.81559 0.0
C928 C 0.47073 0.67228 0.80361 0.0
H929 H 0.41268 0.7342 0.84181 0.0
H930 H 0.4775 0.74394 0.81667 0.0
C931 C 0.43818 0.6345 0.80035 0.0
C932 C 0.14312 0.73216 0.61371 0.0
C933 C 0.17811 0.69602 0.61063 0.0
H934 H 0.12081 0.8042 0.6062 0.0
C935 C 0.20758 0.69919 0.59276 0.0
H936 H 0.12049 0.73138 0.62751 0.0
C937 C 0.20574 0.74026 0.57973 0.0
C938 C 0.17512 0.7794 0.58459 0.0
H939 H 0.23554 0.6724 0.59023 0.0
H940 H 0.23133 0.7432 0.56699 0.0
C941 C 0.14282 0.77415 0.60128 0.0
C942 C 0.97037 0.48952 0.37645 0.0
C943 C 0.00698 0.45567 0.38034 0.0
H944 H 0.91067 0.51006 0.35678 0.0
C945 C 0.01409 0.41771 0.3657 0.0
H946 H 0.96359 0.51835 0.38778 0.0
C947 C 0.98233 0.41129 0.34845 0.0
C948 C 0.94395 0.4437 0.34517 0.0
H949 H 0.04137 0.39029 0.36876 0.0
H950 H 0.98635 0.37965 0.33846 0.0
C951 C 0.93973 0.48414 0.35881 0.0
C952 C 0.27494 0.79472 0.37367 0.0
C953 C 0.324 0.80615 0.37515 0.0
H954 H 0.22048 0.7538 0.35758 0.0
C955 C 0.35689 0.77819 0.36357 0.0
H956 H 0.24858 0.8151 0.38258 0.0
C957 C 0.34042 0.74222 0.34952 0.0
C958 C 0.29104 0.73425 0.34678 0.0
H959 H 0.39477 0.78602 0.36432 0.0
H960 H 0.36604 0.72243 0.34001 0.0
C961 C 0.25862 0.75957 0.35943 0.0
C962 C 0.95989 0.62044 0.11045 0.0
C963 C 0.93979 0.57981 0.11995 0.0
H964 H 0.01211 0.64652 0.08869 0.0
C965 C 0.96475 0.53544 0.11903 0.0
H966 H 0.94219 0.65487 0.11141 0.0
C967 C 0.00485 0.53037 0.10631 0.0
C968 C 0.02084 0.56962 0.09437 0.0
H969 H 0.95121 0.50354 0.12679 0.0
H970 H 0.02056 0.4947 0.10426 0.0
C971 C 1.00031 0.61554 0.09767 0.0
C972 C 0.27901 0.21488 0.87869 0.0
C973 C 0.25452 0.25503 0.87012 0.0
H974 H 0.27724 0.15624 0.90068 0.0
C975 C 0.21499 0.27407 0.88098 0.0
H976 H 0.30958 0.19951 0.87054 0.0
C977 C 0.19473 0.248 0.89764 0.0
C978 C 0.21529 0.20372 0.90413 0.0
H979 H 0.1959 0.30519 0.8746 0.0
H980 H 0.16089 0.26022 0.90405 0.0
C981 C 0.25988 0.18973 0.89579 0.0
C982 C 0.5732 0.44424 0.58721 0.0
C983 C 0.53749 0.47949 0.59055 0.0
H984 H 0.63416 0.40639 0.60027 0.0
C985 C 0.53438 0.50224 0.61049 0.0
H986 H 0.57562 0.42541 0.57214 0.0
C987 C 0.56837 0.4919 0.62646 0.0
C988 C 0.60455 0.45726 0.62294 0.0
H989 H 0.50651 0.52885 0.61349 0.0
H990 H 0.56696 0.51152 0.64143 0.0
C991 C 0.6061 0.43266 0.60341 0.0
C992 C 0.03593 0.22479 0.29609 0.0
C993 C 0.07307 0.2581 0.29891 0.0
H994 H 0.96051 0.21337 0.29345 0.0
C995 C 0.06114 0.3074 0.30117 0.0
H996 H 0.04375 0.18677 0.29385 0.0
C997 C 0.01309 0.32284 0.30076 0.0
C998 C 0.97607 0.28935 0.29798 0.0
H999 H 0.08889 0.33406 0.30325 0.0
H1000 H 0.00496 0.36103 0.30225 0.0
C1001 C 0.98811 0.24019 0.2956 0.0
C1002 C 0.97713 0.79794 0.53086 0.0
C1003 C 0.99284 0.75582 0.54143 0.0
H1004 H 0.98524 0.87502 0.52826 0.0
C1005 C 0.02314 0.75909 0.55923 0.0
H1006 H 0.95405 0.79563 0.51685 0.0
C1007 C 0.04107 0.80329 0.56539 0.0
C1008 C 0.02867 0.84552 0.55423 0.0
H1009 H 0.03593 0.72681 0.56743 0.0
H1010 H 0.06792 0.80341 0.57778 0.0
C1011 C 0.99472 0.84307 0.53744 0.0
C1012 C 0.46004 0.82933 0.77529 0.0
C1013 C 0.44636 0.86191 0.79153 0.0
H1014 H 0.51252 0.77854 0.7642 0.0
C1015 C 0.48041 0.8744 0.80726 0.0
H1016 H 0.43496 0.81893 0.76279 0.0
C1017 C 0.52633 0.8531 0.80716 0.0
C1018 C 0.53748 0.81672 0.79224 0.0
H1019 H 0.47071 0.89753 0.82045 0.0
H1020 H 0.55165 0.86202 0.81977 0.0
C1021 C 0.5045 0.80606 0.77599 0.0
C1022 C 0.48678 0.20196 0.04879 0.0
C1023 C 0.48573 0.16523 0.03343 0.0
H1024 H 0.49635 0.27694 0.05526 0.0
C1025 C 0.4996 0.17556 0.01246 0.0
H1026 H 0.47622 0.19507 0.06488 0.0
C1027 C 0.51182 0.22291 0.00688 0.0
C1028 C 0.511 0.25967 0.02235 0.0
H1029 H 0.49817 0.14791 0.00021 0.0
H1030 H 0.52067 0.23104 -0.00949 0.0
C1031 C 0.49883 0.24872 0.04331 0.0
C1032 C 0.93708 0.74116 0.13142 0.0
C1033 C 0.90486 0.73803 0.14822 0.0
H1034 H 0.01032 0.74784 0.12257 0.0
C1035 C 0.92005 0.75128 0.16887 0.0
H1036 H 0.92579 0.73403 0.11528 0.0
C1037 C 0.96792 0.76352 0.17282 0.0
C1038 C 1.00095 0.76224 0.15616 0.0
H1039 H 0.89573 0.7492 0.18214 0.0
H1040 H 0.97978 0.77082 0.18904 0.0
C1041 C 0.98514 0.75113 0.13546 0.0
C1042 C 0.46217 0.75994 0.4042 0.0
C1043 C 0.49494 0.79762 0.40191 0.0
H1044 H 0.4518 0.68363 0.40702 0.0
C1045 C 0.54393 0.78579 0.40025 0.0
H1046 H 0.42424 0.76772 0.40551 0.0
C1047 C 0.55977 0.73755 0.40096 0.0
C1048 C 0.52711 0.69991 0.40364 0.0
H1049 H 0.57019 0.81385 0.3983 0.0
H1050 H 0.59768 0.72981 0.39955 0.0
C1051 C 0.47808 0.71172 0.40518 0.0
C1052 C 0.59756 0.25177 0.66874 0.0
C1053 C 0.60517 0.2988 0.66116 0.0
H1054 H 0.54634 0.19743 0.67618 0.0
C1055 C 0.56522 0.32741 0.65519 0.0
H1056 H 0.62748 0.22886 0.67356 0.0
C1057 C 0.51881 0.30942 0.6567 0.0
C1058 C 0.51121 0.26225 0.66409 0.0
H1059 H 0.5697 0.36389 0.64936 0.0
H1060 H 0.48892 0.33213 0.65164 0.0
C1061 C 0.55108 0.23379 0.67027 0.0
C1062 C 0.91018 0.21866 0.89969 0.0
C1063 C 0.95182 0.21159 0.91247 0.0
H1064 H 0.85484 0.26879 0.88913 0.0
C1065 C 0.96724 0.24944 0.92566 0.0
H1066 H 0.89746 0.19017 0.88925 0.0
C1067 C 0.94248 0.29335 0.92587 0.0
C1068 C 0.90185 0.30114 0.91272 0.0
H1069 H 0.99897 0.2455 0.9357 0.0
H1070 H 0.95592 0.32191 0.93612 0.0
C1071 C 0.88589 0.26356 0.89948 0.0
C1072 C 0.03168 0.69462 0.66646 0.0
C1073 C 0.07217 0.72407 0.66851 0.0
H1074 H 0.9549 0.69166 0.66454 0.0
C1075 C 0.0656 0.77406 0.67115 0.0
H1076 H 0.03572 0.65584 0.6652 0.0
C1077 C 0.01972 0.79423 0.67144 0.0
C1078 C 0.9792 0.76521 0.66871 0.0
H1079 H 0.09592 0.79777 0.67313 0.0
H1080 H 0.01608 0.83269 0.67408 0.0
C1081 C 0.9855 0.71503 0.66644 0.0
C1082 C 0.06253 0.17751 0.42106 0.0
C1083 C 0.01485 0.16335 0.41767 0.0
H1084 H 0.10928 0.23554 0.43001 0.0
C1085 C 0.97798 0.19719 0.42096 0.0
H1086 H 0.09167 0.15172 0.41934 0.0
C1087 C 0.988 0.24479 0.4257 0.0
C1088 C 0.03542 0.26004 0.42826 0.0
H1089 H 0.9408 0.18708 0.42006 0.0
H1090 H 0.95803 0.2697 0.42726 0.0
C1091 C 0.07267 0.22559 0.42669 0.0
C1092 C 0.50907 0.22675 0.15721 0.0
C1093 C 0.54801 0.25747 0.15416 0.0
H1094 H 0.43319 0.21968 0.15944 0.0
C1095 C 0.53834 0.30737 0.15164 0.0
H1096 H 0.51491 0.18843 0.15968 0.0
C1097 C 0.49104 0.32571 0.15181 0.0
C1098 C 0.45207 0.29473 0.15447 0.0
H1099 H 0.56737 0.33236 0.14941 0.0
H1100 H 0.48506 0.36414 0.15007 0.0
C1101 C 0.46199 0.24498 0.1573 0.0
C1102 C 0.48812 0.8307 0.90979 0.0
C1103 C 0.46179 0.86272 0.89666 0.0
H1104 H 0.50285 0.75686 0.91816 0.0
C1105 C 0.42784 0.84429 0.8822 0.0
H1106 H 0.51415 0.84424 0.92126 0.0
C1107 C 0.42085 0.79439 0.8807 0.0
C1108 C 0.44783 0.76225 0.89352 0.0
H1109 H 0.40733 0.8684 0.87186 0.0
H1110 H 0.3945 0.78104 0.86944 0.0
C1111 C 0.48171 0.78085 0.90801 0.0
C1112 C 0.08366 0.18361 0.78125 0.0
C1113 C 0.0894 0.22696 0.7929 0.0
H1114 H 0.034 0.13389 0.76674 0.0
C1115 C 0.04883 0.2546 0.79791 0.0
H1116 H 0.11441 0.16164 0.77701 0.0
C1117 C 1.00361 0.23907 0.79175 0.0
C1118 C 0.99759 0.19533 0.78068 0.0
H1119 H 0.05177 0.28839 0.80655 0.0
H1120 H 0.97318 0.26138 0.79582 0.0
C1121 C 0.03792 0.16791 0.77514 0.0
C1122 C 0.55717 0.29336 0.55819 0.0
C1123 C 0.52608 0.31146 0.54246 0.0
H1124 H 0.59033 0.23116 0.57156 0.0
C1125 C 0.50362 0.27962 0.52806 0.0
H1126 H 0.57405 0.31729 0.56971 0.0
C1127 C 0.51479 0.22998 0.52874 0.0
C1128 C 0.54806 0.21234 0.54397 0.0
H1129 H 0.47916 0.29333 0.51586 0.0
H1130 H 0.49924 0.20602 0.5169 0.0
C1131 C 0.56702 0.24424 0.55914 0.0
C1132 C 0.50626 0.74769 0.26937 0.0
C1133 C 0.53736 0.74958 0.28712 0.0
H1134 H 0.43327 0.74108 0.25853 0.0
C1135 C 0.51922 0.7454 0.30768 0.0
H1136 H 0.52003 0.74976 0.25332 0.0
C1137 C 0.46992 0.74392 0.31065 0.0
C1138 C 0.43888 0.74097 0.29303 0.0
H1139 H 0.54319 0.74414 0.32142 0.0
H1140 H 0.45602 0.745 0.32666 0.0
C1141 C 0.45709 0.74283 0.27233 0.0
C1142 C 0.01253 0.77601 0.03821 0.0
C1143 C 0.96406 0.78159 0.03219 0.0
H1144 H 0.07064 0.72692 0.04502 0.0
C1145 C 0.93587 0.74047 0.02953 0.0
H1146 H 0.03493 0.80737 0.04046 0.0
C1147 C 0.95652 0.69434 0.03189 0.0
C1148 C 0.00549 0.68876 0.03727 0.0
H1149 H 0.89854 0.74395 0.0248 0.0
H1150 H 0.93441 0.66303 0.02901 0.0
C1151 C 0.03291 0.73007 0.04099 0.0
C1152 C 0.21873 0.2537 0.22694 0.0
C1153 C 0.2519 0.26017 0.24375 0.0
H1154 H 0.19739 0.27267 0.19514 0.0
C1155 C 0.28868 0.29393 0.24135 0.0
H1156 H 0.18954 0.22856 0.22837 0.0
C1157 C 0.29299 0.31959 0.22228 0.0
C1158 C 0.26051 0.31209 0.20528 0.0
H1159 H 0.31453 0.30013 0.2541 0.0
H1160 H 0.32285 0.34375 0.22057 0.0
C1161 C 0.22292 0.27944 0.20796 0.0
C1162 C 0.98856 0.98856 0.47607 0.0
C1163 C 0.00751 0.96849 0.45748 0.0
H1164 H 0.99735 1.00084 0.50934 0.0
C1165 C 0.05099 0.94201 0.45889 0.0
H1166 H 0.95528 1.00907 0.47556 0.0
C1167 C 0.0759 0.93754 0.47847 0.0
C1168 C 0.05748 0.95919 0.49691 0.0
H1169 H 0.06671 0.9263 0.44475 0.0
H1170 H 0.10956 0.91777 0.4791 0.0
C1171 C 0.01305 0.98385 0.49548 0.0
C1172 C 0.21011 0.77161 0.75646 0.0
C1173 C 0.24111 0.81133 0.75512 0.0
H1174 H 0.18499 0.70592 0.74201 0.0
C1175 C 0.26966 0.81564 0.73704 0.0
H1176 H 0.18801 0.76701 0.77036 0.0
C1177 C 0.26907 0.77989 0.72122 0.0
C1178 C 0.23936 0.73921 0.72289 0.0
H1179 H 0.29457 0.84511 0.73569 0.0
H1180 H 0.29234 0.78411 0.7077 0.0
C1181 C 0.2089 0.73619 0.74042 0.0
C1182 C 0.4745 0.97368 -0.01072 0.0
C1183 C 0.43258 1.00252 -0.0096 0.0
H1184 H 0.53748 0.95535 0.9715 0.0
C1185 C 0.42169 0.03443 0.97363 0.0
H1186 H 0.48446 0.94934 0.00217 0.0
C1187 C 0.45214 0.03796 0.9563 0.0
C1188 C 0.49456 1.01017 0.95542 0.0
H1189 H 0.39018 0.05759 0.97415 0.0
H1190 H 0.44272 0.06313 0.94364 0.0
C1191 C 0.50547 0.97776 0.972 0.0
C1192 C 0.20914 0.6968 0.2373 0.0
C1193 C 0.23654 0.722 0.25245 0.0
H1194 H 0.16573 0.70055 0.20906 0.0
C1195 C 0.23949 0.77266 0.25071 0.0
H1196 H 0.20506 0.65807 0.23851 0.0
C1197 C 0.21664 0.79734 0.23381 0.0
C1198 C 0.19019 0.77196 0.21834 0.0
H1199 H 0.26017 0.79329 0.2622 0.0
H1200 H 0.22072 0.83597 0.23259 0.0
C1201 C 0.1862 0.72145 0.2205 0.0
C1202 C 0.57262 0.04517 0.47121 0.0
C1203 C 0.57063 0.01546 0.48932 0.0
H1204 H 0.54759 0.05816 0.43916 0.0
C1205 C 0.5416 0.97412 0.48835 0.0
H1206 H 0.5938 0.07767 0.4715 0.0
C1207 C 0.51425 0.96353 0.47007 0.0
C1208 C 0.51542 0.99368 0.45212 0.0
H1209 H 0.53894 0.95033 0.50198 0.0
H1210 H 0.49212 0.93165 0.47006 0.0
C1211 C 0.54552 0.03427 0.45278 0.0
C1212 C 0.2719 0.27423 0.71387 0.0
C1213 C 0.31717 0.25232 0.71149 0.0
H1214 H 0.22204 0.30596 0.73566 0.0
C1215 C 0.35004 0.25301 0.72864 0.0
H1216 H 0.24615 0.27481 0.70075 0.0
C1217 C 0.33681 0.27203 0.74826 0.0
C1218 C 0.29028 0.29021 0.7512 0.0
H1219 H 0.38566 0.2376 0.72712 0.0
H1220 H 0.36205 0.26961 0.76155 0.0
C1221 C 0.2584 0.29286 0.73369 0.0
C1222 C 0.93361 0.07095 0.96692 0.0
C1223 C 0.98256 0.0783 0.97099 0.0
H1224 H 0.8681 0.04255 -0.02156 0.0
C1225 C 1.00027 0.07291 -0.00802 0.0
H1226 H 0.91862 0.07608 0.95101 0.0
C1227 C 0.97094 0.05377 0.00787 0.0
C1228 C 0.92349 0.04074 0.00293 0.0
H1229 H 0.03764 0.07918 -0.0044 0.0
H1230 H 0.98702 0.04371 0.0231 0.0
C1231 C 0.90427 0.05292 -0.01721 0.0
C1232 C 0.7785 0.78811 0.7565 0.0
C1233 C 0.73537 0.76254 0.75458 0.0
H1234 H 0.83233 0.82823 0.74034 0.0
C1235 C 0.71279 0.75894 0.73451 0.0
H1236 H 0.79648 0.79189 0.77185 0.0
C1237 C 0.73279 0.78015 0.71672 0.0
C1238 C 0.77612 0.80525 0.71846 0.0
H1239 H 0.67937 0.73989 0.73247 0.0
H1240 H 0.71434 0.77619 0.70148 0.0
C1241 C 0.79877 0.80934 0.73855 0.0
C1242 C 0.73135 0.27368 0.24067 0.0
C1243 C 0.77485 0.29859 0.2426 0.0
H1244 H 0.68498 0.23124 0.22097 0.0
C1245 C 0.80484 0.30064 0.22485 0.0
H1246 H 0.70738 0.27124 0.25404 0.0
C1247 C 0.79167 0.27771 0.20566 0.0
C1248 C 0.74873 0.25161 0.20406 0.0
H1249 H 0.839 0.31865 0.22597 0.0
H1250 H 0.81552 0.27964 0.19223 0.0
C1251 C 0.71862 0.25029 0.22173 0.0
C1252 C 0.69988 0.24915 0.72048 0.0
C1253 C 0.71762 0.29662 0.72166 0.0
H1254 H 0.70321 0.17758 0.73338 0.0
C1255 C 0.7392 0.31187 0.74085 0.0
H1256 H 0.68213 0.23647 0.70606 0.0
C1257 C 0.74931 0.27798 0.75712 0.0
C1258 C 0.73954 0.22849 0.75394 0.0
H1259 H 0.75297 0.34817 0.74235 0.0
H1260 H 0.76991 0.28949 0.77092 0.0
C1261 C 0.71155 0.21522 0.73623 0.0
C1262 C 0.74281 0.73111 0.23522 0.0
C1263 C 0.71469 0.77357 0.23435 0.0
H1264 H 0.77195 0.67092 0.21808 0.0
C1265 C 0.69357 0.78796 0.21496 0.0
H1266 H 0.75937 0.71933 0.25012 0.0
C1267 C 0.69967 0.75939 0.19674 0.0
C1268 C 0.72777 0.71674 0.19766 0.0
H1269 H 0.67132 0.82024 0.21404 0.0
H1270 H 0.68302 0.7711 0.18186 0.0
C1271 C 0.74974 0.70322 0.217 0.0
C1272 C 0.55616 0.48377 0.94949 0.0
C1273 C 0.54726 0.4987 0.9704 0.0
H1274 H 0.54128 0.49593 0.91637 0.0
C1275 C 0.52342 0.54298 0.97392 0.0
H1276 H 0.57341 0.44924 0.94644 0.0
C1277 C 0.50343 0.56896 0.95686 0.0
C1278 C 0.50761 0.55126 0.936 0.0
H1279 H 0.5156 0.55469 -0.00997 0.0
H1280 H 0.48208 0.60098 0.96014 0.0
C1281 C 0.53674 0.51013 0.93235 0.0
C1282 C 0.97115 0.49303 0.49462 0.0
C1283 C 0.98046 0.54224 0.49172 0.0
H1284 H 0.99518 0.42013 0.4898 0.0
C1285 C 0.02293 0.55529 0.48138 0.0
H1286 H 0.93906 0.48167 0.5026 0.0
C1287 C 0.05546 0.52013 0.47427 0.0
C1288 C 0.04604 0.47092 0.47708 0.0
H1289 H 0.03119 0.59297 0.4788 0.0
H1290 H 0.0874 0.53151 0.46619 0.0
C1291 C 1.0036 0.45784 0.48743 0.0
C1292 C 0.06021 0.5096 0.95835 0.0
C1293 C 0.05411 0.54484 0.97417 0.0
H1294 H 0.02921 0.47438 0.93121 0.0
C1295 C 0.01588 0.57814 0.97222 0.0
H1296 H 0.08914 0.4833 0.95968 0.0
C1297 C 0.98024 0.57156 0.95659 0.0
C1298 C 0.98374 0.53306 0.94213 0.0
H1299 H 0.0103 0.60547 -0.01565 0.0
H1300 H 0.9479 0.59349 0.95715 0.0
C1301 C 0.02576 0.50455 0.94209 0.0
C1302 C 0.52395 0.52259 0.49631 0.0
C1303 C 0.4815 0.49584 0.49722 0.0
H1304 H 0.57929 0.55067 0.47678 0.0
C1305 C 0.46174 0.47682 0.47839 0.0
H1306 H 0.53997 0.53752 0.51071 0.0
C1307 C 0.48485 0.4836 0.45899 0.0
C1308 C 0.52772 0.50998 0.45812 0.0
H1309 H 0.42964 0.45532 0.47877 0.0
H1310 H 0.46899 0.46826 0.44465 0.0
C1311 C 0.54667 0.52988 0.47695 0.0
C1312 C 0.36053 0.08635 0.32699 0.0
C1313 C 0.32858 0.12156 0.33471 0.0
H1314 H 0.40399 0.02485 0.33529 0.0
C1315 C 0.33167 0.13452 0.35634 0.0
H1316 H 0.35884 0.0756 0.31035 0.0
C1317 C 0.35768 0.10533 0.37072 0.0
C1318 C 0.38072 0.06323 0.36341 0.0
H1319 H 0.30806 0.16212 0.36259 0.0
H1320 H 0.35267 0.11093 0.38768 0.0
C1321 C 0.38651 0.05711 0.34135 0.0
C1322 C 0.24958 0.08421 0.62423 0.0
C1323 C 0.29038 0.10367 0.61484 0.0
H1324 H 0.19258 0.03339 0.62043 0.0
C1325 C 0.29704 0.09836 0.59283 0.0
H1326 H 0.24438 0.0872 0.6413 0.0
C1327 C 0.26692 0.06869 0.58089 0.0
C1328 C 0.2306 0.0434 0.591 0.0
H1329 H 0.32879 0.11215 0.58542 0.0
H1330 H 0.27583 0.06073 0.56446 0.0
C1331 C 0.2201 0.05336 0.61237 0.0
C1332 C 0.10949 0.99757 0.87008 0.0
C1333 C 0.13168 0.98243 0.88926 0.0
H1334 H 0.11467 1.001 0.83602 0.0
C1335 C 0.16803 0.94682 0.88822 0.0
H1336 H 0.08055 0.02386 0.87017 0.0
C1337 C 0.18775 0.93383 0.86863 0.0
C1338 C 0.17093 0.95542 0.84966 0.0
H1339 H 0.18546 0.9336 0.90268 0.0
H1340 H 0.21968 0.9116 0.86877 0.0
C1341 C 0.12926 0.98452 0.85043 0.0
C1342 C 0.24409 0.90975 0.09084 0.0
C1343 C 0.24988 0.90216 0.11285 0.0
H1344 H 0.2713 0.94478 0.06325 0.0
C1345 C 0.29367 0.91307 0.12285 0.0
H1346 H 0.21025 0.902 0.08295 0.0
C1347 C 0.3282 0.93858 0.11175 0.0
C1348 C 0.31931 0.95256 0.0905 0.0
H1349 H 0.29848 0.90794 0.13991 0.0
H1350 H 0.3587 0.95279 0.12051 0.0
C1351 C 0.27923 0.93404 0.07957 0.0
C1352 C 0.75392 0.93914 0.61259 0.0
C1353 C 0.76293 0.96607 0.63127 0.0
H1354 H 0.72864 0.94189 0.57995 0.0
C1355 C 0.74366 0.01279 0.63313 0.0
H1356 H 0.76877 0.90304 0.61083 0.0
C1357 C 0.72125 0.03466 0.6157 0.0
C1358 C 0.71715 1.01003 0.59619 0.0
H1359 H 0.74982 0.03405 0.64745 0.0
H1360 H 0.71079 0.07241 0.61692 0.0
C1361 C 0.73102 0.96122 0.59498 0.0
C1362 C 0.81712 0.91978 0.37286 0.0
C1363 C 0.85579 0.93871 0.36161 0.0
H1364 H 0.74493 0.89436 0.37037 0.0
C1365 C 0.85804 0.9317 0.33948 0.0
H1366 H 0.81442 0.92552 0.38993 0.0
C1367 C 0.81872 0.91297 0.32841 0.0
C1368 C 0.77684 0.90219 0.3394 0.0
H1369 H 0.88717 0.94677 0.33052 0.0
H1370 H 0.81893 0.91259 0.3111 0.0
C1371 C 0.77705 0.90277 0.36172 0.0
C1372 C 0.84383 0.0346 0.10582 0.0
C1373 C 0.83941 0.03678 0.08345 0.0
H1374 H 0.81844 0.0609 0.13577 0.0
C1375 C 0.81488 0.0764 0.07428 0.0
H1376 H 0.86107 1.00396 0.11346 0.0
C1377 C 0.78861 0.10824 0.08721 0.0
C1378 C 0.7878 0.10171 0.10946 0.0
H1379 H 0.81003 0.07856 0.05711 0.0
H1380 H 0.76439 0.13394 0.07962 0.0
C1381 C 0.81911 0.06748 0.11872 0.0
C1382 C 0.65787 0.0691 0.82821 0.0
C1383 C 0.64937 0.07504 0.85007 0.0
H1384 H 0.69891 0.09182 0.80159 0.0
C1385 C 0.66593 0.11672 0.86047 0.0
H1386 H 0.64557 0.03704 0.81993 0.0
C1387 C 0.69752 0.14746 0.85012 0.0
C1388 C 0.71184 0.13723 0.82918 0.0
H1389 H 0.66008 0.12176 0.8774 0.0
H1390 H 0.71596 0.17473 0.85945 0.0
C1391 C 0.68798 0.10091 0.81765 0.0
C1392 C 0.72158 0.63064 0.87001 0.0
C1393 C 0.72785 0.63136 0.8479 0.0
H1394 H 0.74716 0.60301 0.89987 0.0
C1395 C 0.77126 0.61463 0.83938 0.0
H1396 H 0.68856 0.64385 0.87688 0.0
C1397 C 0.80464 0.59028 0.85251 0.0
C1398 C 0.79469 0.58322 0.87417 0.0
H1399 H 0.7767 0.61501 0.82229 0.0
H1400 H 0.83465 0.57183 0.84521 0.0
C1401 C 0.75529 0.6075 0.88313 0.0
C1402 C 0.61479 0.50585 0.10408 0.0
C1403 C 0.61646 0.51492 0.0821 0.0
H1404 H 0.64586 0.52216 0.13463 0.0
C1405 C 0.63708 0.55788 0.07498 0.0
H1406 H 0.59945 0.47264 0.10986 0.0
C1407 C 0.66431 0.58589 0.08911 0.0
C1408 C 0.67021 0.5713 0.11041 0.0
H1409 H 0.63911 0.56524 0.05803 0.0
H1410 H 0.68662 0.61396 0.08268 0.0
C1411 C 0.64142 0.53429 0.11826 0.0
C1412 C 0.65828 0.42856 0.32634 0.0
C1413 C 0.69787 0.3983 0.33083 0.0
H1414 H 0.60622 0.47644 0.33964 0.0
C1415 C 0.7029 0.37816 0.3513 0.0
H1416 H 0.65327 0.44395 0.31055 0.0
C1417 C 0.67598 0.39724 0.36803 0.0
C1418 C 0.64448 0.43633 0.36418 0.0
H1419 H 0.73289 0.35435 0.35513 0.0
H1420 H 0.68663 0.38811 0.38426 0.0
C1421 C 0.63088 0.44683 0.34304 0.0
C1422 C 0.84805 0.43399 0.60853 0.0
C1423 C 0.85375 0.45165 0.62941 0.0
H1424 H 0.85408 0.45069 0.57529 0.0
C1425 C 0.88537 0.49011 0.63308 0.0
H1426 H 0.82344 0.40482 0.60522 0.0
C1427 C 0.90287 0.51655 0.61591 0.0
C1428 C 0.88938 0.50424 0.59498 0.0
H1429 H 0.88996 0.50467 0.64904 0.0
H1430 H 0.92064 0.55037 0.61917 0.0
C1431 C 0.86527 0.46062 0.59134 0.0
C1432 C 0.20275 0.37059 0.08614 0.0
C1433 C 0.18265 0.38636 0.10537 0.0
H1434 H 0.20774 0.3858 0.05279 0.0
C1435 C 0.13778 0.40975 0.10461 0.0
H1436 H 0.23687 0.35165 0.08626 0.0
C1437 C 0.12019 0.42829 0.08524 0.0
C1438 C 0.14835 0.42442 0.06693 0.0
H1439 H 0.12105 0.42155 0.11925 0.0
H1440 H 0.09032 0.45351 0.08569 0.0
C1441 C 0.186 0.3903 0.06685 0.0
C1442 C 0.37802 0.47699 0.83809 0.0
C1443 C 0.373 0.48141 0.8602 0.0
H1444 H 0.35352 0.44057 0.81 0.0
C1445 C 0.35443 0.44258 0.87177 0.0
H1446 H 0.39226 0.50656 0.82892 0.0
C1447 C 0.33136 0.40499 0.86091 0.0
C1448 C 0.32753 0.40646 0.83859 0.0
H1449 H 0.35017 0.4455 0.88889 0.0
H1450 H 0.31017 0.37989 0.86994 0.0
C1451 C 0.35555 0.43928 0.82729 0.0
C1452 C 0.36532 0.56702 0.60794 0.0
C1453 C 0.37711 0.52002 0.61474 0.0
H1454 H 0.32393 0.63057 0.61485 0.0
C1455 C 0.37221 0.50784 0.63628 0.0
H1456 H 0.36894 0.57704 0.59133 0.0
C1457 C 0.34893 0.53976 0.65006 0.0
C1458 C 0.32775 0.58233 0.64193 0.0
H1459 H 0.38138 0.47177 0.64181 0.0
H1460 H 0.33958 0.52682 0.66576 0.0
C1461 C 0.34022 0.59808 0.62151 0.0
C1462 C 0.18211 0.54939 0.37944 0.0
C1463 C 0.15981 0.50548 0.37422 0.0
H1464 H 0.22962 0.60478 0.36901 0.0
C1465 C 0.1583 0.49023 0.35293 0.0
H1466 H 0.1844 0.56122 0.39593 0.0
C1467 C 0.18512 0.51429 0.33774 0.0
C1468 C 0.21304 0.55426 0.34365 0.0
H1469 H 0.14205 0.4561 0.34865 0.0
H1470 H 0.18771 0.49886 0.32188 0.0
C1471 C 0.20847 0.57399 0.36413 0.0
C1472 C 0.21621 0.98069 0.24484 0.0
C1473 C 0.19544 0.02703 0.24753 0.0
H1474 H 0.22069 0.91686 0.22532 0.0
C1475 C 0.16089 0.04308 0.23265 0.0
H1476 H 0.24296 0.96715 0.25609 0.0
C1477 C 0.14741 0.01373 0.21553 0.0
C1478 C 0.16831 0.96758 0.21266 0.0
H1479 H 0.14371 0.07816 0.23435 0.0
H1480 H 0.12061 0.02756 0.20437 0.0
C1481 C 0.20291 0.95135 0.22749 0.0
C1482 C 0.29364 0.90634 0.49309 0.0
C1483 C 0.24679 0.92344 0.49662 0.0
H1484 H 0.35218 0.90129 0.47163 0.0
C1485 C 0.2222 0.94822 0.48027 0.0
H1486 H 0.3135 0.88703 0.50545 0.0
C1487 C 0.24469 0.95682 0.46088 0.0
C1488 C 0.29202 0.94056 0.45754 0.0
H1489 H 0.18645 0.9625 0.48272 0.0
H1490 H 0.22505 0.97648 0.44856 0.0
C1491 C 0.31598 0.91472 0.47376 0.0
C1492 C 0.34864 0.98392 0.71297 0.0
C1493 C 0.34136 0.03277 0.7074 0.0
H1494 H 0.33246 0.92721 0.735 0.0
C1495 C 0.30574 0.05963 0.71768 0.0
H1496 H 0.37527 0.96214 0.70488 0.0
C1497 C 0.27961 0.03899 0.73398 0.0
C1498 C 0.28958 0.99147 0.74094 0.0
H1499 H 0.29816 0.09677 0.71317 0.0
H1500 H 0.25364 0.06151 0.74212 0.0
C1501 C 0.32333 0.96353 0.72982 0.0
C1502 C 0.14014 0.08112 0.01156 0.0
C1503 C 0.14408 0.11733 -0.00398 0.0
H1504 H 0.17245 0.04727 0.03906 0.0
C1505 C 0.17791 0.1539 -0.00086 0.0
H1506 H 0.11536 0.05172 0.00918 0.0
C1507 C 0.21254 0.1496 0.01537 0.0
C1508 C 0.21205 0.11003 0.0293 0.0
H1509 H 0.18227 0.1816 -0.01288 0.0
H1510 H 0.24153 0.17524 0.01612 0.0
C1511 C 0.17361 0.0779 0.02833 0.0
C1512 C 0.91127 0.95377 0.74819 0.0
C1513 C 0.86913 0.94153 0.73701 0.0
H1514 H 0.94265 0.99806 0.77277 0.0
C1515 C 0.82484 0.95763 0.7447 0.0
H1516 H 0.94587 0.94285 0.74212 0.0
C1517 C 0.82314 0.99037 0.76168 0.0
C1518 C 0.86566 1.00645 0.77136 0.0
H1519 H 0.79208 0.94971 0.73595 0.0
H1520 H 0.78894 1.00573 0.76625 0.0
C1521 C 0.90954 0.98601 0.76539 0.0
C1522 C 0.78545 0.03887 0.48602 0.0
C1523 C 0.7397 0.06065 0.48638 0.0
H1524 H 0.84485 0.01685 0.46722 0.0
C1525 C 0.71569 0.0708 0.46705 0.0
H1526 H 0.80448 0.02953 0.50068 0.0
C1527 C 0.73893 0.06269 0.44768 0.0
C1528 C 0.78636 0.04487 0.44764 0.0
H1529 H 0.68049 0.08756 0.46694 0.0
H1530 H 0.72102 0.07312 0.4329 0.0
C1531 C 0.80868 0.03149 0.46688 0.0
C1532 C 0.70278 0.9479 0.22114 0.0
C1533 C 0.69131 0.96997 0.2406 0.0
H1534 H 0.71363 0.95765 0.18765 0.0
C1535 C 0.68464 0.02061 0.24117 0.0
H1536 H 0.70828 0.90916 0.22015 0.0
C1537 C 0.68729 0.04824 0.22267 0.0
C1538 C 0.69718 0.02615 0.2031 0.0
H1539 H 0.67609 0.03915 0.25589 0.0
H1540 H 0.68075 0.08685 0.22367 0.0
C1541 C 0.70589 0.9758 0.20256 0.0
C1542 C 0.69349 0.96281 -0.00931 0.0
C1543 C 0.74304 0.95261 -0.00994 0.0
H1544 H 0.62932 0.98004 0.97278 0.0
C1545 C 0.76667 0.95676 0.97063 0.0
H1546 H 0.67436 0.96044 0.00556 0.0
C1547 C 0.74116 0.96906 0.95209 0.0
C1548 C 0.69116 0.97681 0.95238 0.0
H1549 H 0.8049 0.95028 0.9697 0.0
H1550 H 0.76068 0.97083 0.9373 0.0
C1551 C 0.66769 0.97456 0.97199 0.0
C1552 C 0.69735 0.56582 0.74506 0.0
C1553 C 0.66023 0.54661 0.75693 0.0
H1554 H 0.74635 0.5554 0.71986 0.0
C1555 C 0.64595 0.49862 0.75309 0.0
H1556 H 0.71027 0.60197 0.7482 0.0
C1557 C 0.66624 0.47163 0.7364 0.0
C1558 C 0.70184 0.49212 0.72382 0.0
H1559 H 0.61799 0.4827 0.76247 0.0
H1560 H 0.65251 0.4361 0.73269 0.0
C1561 C 0.71845 0.53866 0.72901 0.0
C1562 C 0.77725 0.4469 0.96607 0.0
C1563 C 0.75921 0.42758 0.94693 0.0
H1564 H 0.76351 0.46326 -0.00124 0.0
C1565 C 0.71109 0.41311 0.94568 0.0
H1566 H 0.81391 0.45902 0.96737 0.0
C1567 C 0.68191 0.41662 0.96348 0.0
C1568 C 0.70064 0.43405 -0.01718 0.0
H1569 H 0.69591 0.39896 0.93096 0.0
H1570 H 0.6456 0.40342 0.9624 0.0
C1571 C 0.74826 0.44985 -0.01609 0.0
C1572 C 0.85454 0.5102 0.23483 0.0
C1573 C 0.83899 0.46308 0.23924 0.0
H1574 H 0.85634 0.56837 0.2124 0.0
C1575 C 0.81544 0.43699 0.22314 0.0
H1576 H 0.87263 0.53131 0.24704 0.0
C1577 C 0.80585 0.45838 0.20327 0.0
C1578 C 0.81941 0.50642 0.19922 0.0
H1579 H 0.80175 0.40142 0.22631 0.0
H1580 H 0.78641 0.43775 0.19133 0.0
C1581 C 0.84483 0.53166 0.21507 0.0
C1582 C 0.78213 0.54449 0.46107 0.0
C1583 C 0.73396 0.56002 0.45901 0.0
H1584 H 0.8459 0.54233 0.48043 0.0
C1585 C 0.7124 0.5833 0.47631 0.0
H1586 H 0.79994 0.52608 0.44809 0.0
C1587 C 0.73903 0.59249 0.49494 0.0
C1588 C 0.7878 0.57877 0.49661 0.0
H1589 H 0.6755 0.59564 0.47524 0.0
H1590 H 0.72156 0.6115 0.50785 0.0
C1591 C 0.80876 0.55391 0.47961 0.0
C1592 C 0.27338 0.55653 0.22826 0.0
C1593 C 0.30066 0.53482 0.24456 0.0
H1594 H 0.24761 0.55135 0.19611 0.0
C1595 C 0.32098 0.48853 0.24111 0.0
H1596 H 0.25727 0.59187 0.23046 0.0
C1597 C 0.3158 0.4653 0.22152 0.0
C1598 C 0.29001 0.48768 0.20496 0.0
H1599 H 0.34189 0.47029 0.25345 0.0
H1600 H 0.33333 0.43065 0.21918 0.0
C1601 C 0.268 0.53312 0.20862 0.0
C1602 C 0.28992 0.61522 0.96601 0.0
C1603 C 0.26914 0.59376 0.94788 0.0
H1604 H 0.28235 0.63244 -0.00094 0.0
C1605 C 0.22162 0.57757 0.94871 0.0
H1606 H 0.32616 0.62866 0.96575 0.0
C1607 C 0.19611 0.5808 0.96765 0.0
C1608 C 0.21802 0.59964 -0.01392 0.0
H1609 H 0.20432 0.56172 0.93482 0.0
H1610 H 0.16049 0.56593 0.96816 0.0
C1611 C 0.26467 0.61785 -0.01502 0.0
C1612 C 0.22554 0.45287 0.72274 0.0
C1613 C 0.19448 0.49283 0.71954 0.0
H1614 H 0.24709 0.39415 0.74313 0.0
C1615 C 0.15874 0.50206 0.73449 0.0
H1616 H 0.25361 0.4448 0.7115 0.0
C1617 C 0.15426 0.47216 0.75229 0.0
C1618 C 0.18588 0.43269 0.75575 0.0
H1619 H 0.13403 0.53221 0.73239 0.0
H1620 H 0.12642 0.48068 0.76358 0.0
C1621 C 0.22154 0.42339 0.74074 0.0
C1622 C 0.21436 0.45096 0.49531 0.0
C1623 C 0.23517 0.45388 0.47519 0.0
H1624 H 0.22674 0.45038 0.52904 0.0
C1625 C 0.28317 0.4683 0.4737 0.0
H1626 H 0.17739 0.44035 0.49687 0.0
C1627 C 0.31155 0.47402 0.492 0.0
C1628 C 0.29244 0.46508 0.51211 0.0
H1629 H 0.2998 0.47188 0.45827 0.0
H1630 H 0.34916 0.48168 0.49023 0.0
C1631 C 0.24287 0.4565 0.51368 0.0
loop_
_geom_bond_atom_site_label_1
_geom_bond_atom_site_label_2
_geom_bond_distance
_geom_bond_site_symmetry_2
_ccdc_geom_bond_type
Zn0 O6 1.920 . S
Zn0 O12 1.898 . S
Zn0 O15 1.905 . S
Zn1 O9 1.905 . S
Zn1 O10 1.898 . S
Zn1 O18 1.920 . S
Zn2 O5 2.080 . S
Zn2 O8 2.114 . S
Zn2 O11 2.120 . S
Zn2 O13 2.120 . S
Zn2 O14 2.114 . S
Zn2 O17 2.080 . S
C3 O8 1.166 . S
C3 O9 1.182 . S
C4 O10 1.167 . S
C4 O11 1.299 . S
O5 Zn2 2.080 . S
O5 C19 1.305 . S
O6 Zn0 1.920 . S
O6 C19 1.234 . S
C7 O12 1.167 . S
C7 O13 1.299 . S
O8 Zn2 2.114 . S
O8 C3 1.166 . S
O9 Zn1 1.905 . S
O9 C3 1.182 . S
O10 Zn1 1.898 . S
O10 C4 1.167 . S
O11 Zn2 2.120 . S
O11 C4 1.299 . S
O12 Zn0 1.898 . S
O12 C7 1.167 . S
O13 Zn2 2.120 . S
O13 C7 1.299 . S
O14 Zn2 2.114 . S
O14 C16 1.166 . S
O15 Zn0 1.905 . S
O15 C16 1.182 . S
C16 O14 1.166 . S
C16 O15 1.182 . S
O17 Zn2 2.080 . S
O17 C20 1.305 . S
O18 Zn1 1.920 . S
O18 C20 1.234 . S
C19 O5 1.305 . S
C19 O6 1.234 . S
C20 O17 1.305 . S
C20 O18 1.234 . S
Zn21 O27 1.920 1_655 S
Zn21 O33 1.898 . S
Zn21 O36 1.905 . S
Zn22 O30 1.905 . S
Zn22 O31 1.898 . S
Zn22 O39 1.920 . S
Zn23 O26 2.080 . S
Zn23 O29 2.114 . S
Zn23 O32 2.120 . S
Zn23 O34 2.120 . S
Zn23 O35 2.114 . S
Zn23 O38 2.080 . S
C24 O29 1.166 . S
C24 O30 1.182 . S
C25 O31 1.167 . S
C25 O32 1.299 . S
O26 Zn23 2.080 . S
O26 C40 1.305 . S
O27 Zn21 1.920 1_455 S
O27 C40 1.234 . S
C28 O33 1.167 1_455 S
C28 O34 1.299 . S
O29 Zn23 2.114 . S
O29 C24 1.166 . S
O30 Zn22 1.905 . S
O30 C24 1.182 . S
O31 Zn22 1.898 . S
O31 C25 1.167 . S
O32 Zn23 2.120 . S
O32 C25 1.299 . S
O33 Zn21 1.898 . S
O33 C28 1.167 1_655 S
O34 Zn23 2.120 . S
O34 C28 1.299 . S
O35 Zn23 2.114 . S
O35 C37 1.166 . S
O36 Zn21 1.905 . S
O36 C37 1.182 1_655 S
C37 O35 1.166 . S
C37 O36 1.182 1_455 S
O38 Zn23 2.080 . S
O38 C41 1.305 . S
O39 Zn22 1.920 . S
O39 C41 1.234 . S
C40 O26 1.305 . S
C40 O27 1.234 . S
C41 O38 1.305 . S
C41 O39 1.234 . S
Zn42 O48 1.920 . S
Zn42 O54 1.898 . S
Zn42 O57 1.905 . S
Zn43 O51 1.905 . S
Zn43 O52 1.898 . S
Zn43 O60 1.920 . S
Zn44 O47 2.080 . S
Zn44 O50 2.114 . S
Zn44 O53 2.120 . S
Zn44 O55 2.120 . S
Zn44 O56 2.114 . S
Zn44 O59 2.080 . S
C45 O50 1.166 . S
C45 O51 1.182 . S
C46 O52 1.167 . S
C46 O53 1.299 . S
O47 Zn44 2.080 . S
O47 C61 1.305 . S
O48 Zn42 1.920 . S
O48 C61 1.234 . S
C49 O54 1.167 . S
C49 O55 1.299 . S
O50 Zn44 2.114 . S
O50 C45 1.166 . S
O51 Zn43 1.905 . S
O51 C45 1.182 . S
O52 Zn43 1.898 . S
O52 C46 1.167 . S
O53 Zn44 2.120 . S
O53 C46 1.299 . S
O54 Zn42 1.898 . S
O54 C49 1.167 . S
O55 Zn44 2.120 . S
O55 C49 1.299 . S
O56 Zn44 2.114 . S
O56 C58 1.166 . S
O57 Zn42 1.905 . S
O57 C58 1.182 . S
C58 O56 1.166 . S
C58 O57 1.182 . S
O59 Zn44 2.080 . S
O59 C62 1.305 . S
O60 Zn43 1.920 . S
O60 C62 1.234 . S
C61 O47 1.305 . S
C61 O48 1.234 . S
C62 O59 1.305 . S
C62 O60 1.234 . S
Zn63 O69 1.920 . S
Zn63 O75 1.898 . S
Zn63 O78 1.905 . S
Zn64 O72 1.905 . S
Zn64 O73 1.898 . S
Zn64 O81 1.920 . S
Zn65 O68 2.080 . S
Zn65 O71 2.114 . S
Zn65 O74 2.120 . S
Zn65 O76 2.120 . S
Zn65 O77 2.114 . S
Zn65 O80 2.080 . S
C66 O71 1.166 . S
C66 O72 1.182 . S
C67 O73 1.167 . S
C67 O74 1.299 . S
O68 Zn65 2.080 . S
O68 C82 1.305 . S
O69 Zn63 1.920 . S
O69 C82 1.234 . S
C70 O75 1.167 . S
C70 O76 1.299 . S
O71 Zn65 2.114 . S
O71 C66 1.166 . S
O72 Zn64 1.905 . S
O72 C66 1.182 . S
O73 Zn64 1.898 . S
O73 C67 1.167 . S
O74 Zn65 2.120 . S
O74 C67 1.299 . S
O75 Zn63 1.898 . S
O75 C70 1.167 . S
O76 Zn65 2.120 . S
O76 C70 1.299 . S
O77 Zn65 2.114 . S
O77 C79 1.166 . S
O78 Zn63 1.905 . S
O78 C79 1.182 . S
C79 O77 1.166 . S
C79 O78 1.182 . S
O80 Zn65 2.080 . S
O80 C83 1.305 . S
O81 Zn64 1.920 . S
O81 C83 1.234 . S
C82 O68 1.305 . S
C82 O69 1.234 . S
C83 O80 1.305 . S
C83 O81 1.234 . S
Zn84 O90 1.920 . S
Zn84 O96 1.898 . S
Zn84 O99 1.905 . S
Zn85 O93 1.905 . S
Zn85 O94 1.898 . S
Zn85 O102 1.920 . S
Zn86 O89 2.080 . S
Zn86 O92 2.114 . S
Zn86 O95 2.120 . S
Zn86 O97 2.120 . S
Zn86 O98 2.114 . S
Zn86 O101 2.080 . S
C87 O92 1.166 . S
C87 O93 1.182 . S
C88 O94 1.167 . S
C88 O95 1.299 . S
O89 Zn86 2.080 . S
O89 C103 1.305 . S
O90 Zn84 1.920 . S
O90 C103 1.234 . S
C91 O96 1.167 . S
C91 O97 1.299 . S
O92 Zn86 2.114 . S
O92 C87 1.166 . S
O93 Zn85 1.905 . S
O93 C87 1.182 . S
O94 Zn85 1.898 . S
O94 C88 1.167 . S
O95 Zn86 2.120 . S
O95 C88 1.299 . S
O96 Zn84 1.898 . S
O96 C91 1.167 . S
O97 Zn86 2.120 . S
O97 C91 1.299 . S
O98 Zn86 2.114 . S
O98 C100 1.166 . S
O99 Zn84 1.905 . S
O99 C100 1.182 . S
C100 O98 1.166 . S
C100 O99 1.182 . S
O101 Zn86 2.080 . S
O101 C104 1.305 . S
O102 Zn85 1.920 . S
O102 C104 1.234 . S
C103 O89 1.305 . S
C103 O90 1.234 . S
C104 O101 1.305 . S
C104 O102 1.234 . S
Zn105 O111 1.920 . S
Zn105 O117 1.898 . S
Zn105 O120 1.905 . S
Zn106 O114 1.905 . S
Zn106 O115 1.898 . S
Zn106 O123 1.920 . S
Zn107 O110 2.080 . S
Zn107 O113 2.114 . S
Zn107 O116 2.120 . S
Zn107 O118 2.120 . S
Zn107 O119 2.114 . S
Zn107 O122 2.080 . S
C108 O113 1.166 . S
C108 O114 1.182 . S
C109 O115 1.167 . S
C109 O116 1.299 . S
O110 Zn107 2.080 . S
O110 C124 1.305 . S
O111 Zn105 1.920 . S
O111 C124 1.234 . S
C112 O117 1.167 . S
C112 O118 1.299 . S
O113 Zn107 2.114 . S
O113 C108 1.166 . S
O114 Zn106 1.905 . S
O114 C108 1.182 . S
O115 Zn106 1.898 . S
O115 C109 1.167 . S
O116 Zn107 2.120 . S
O116 C109 1.299 . S
O117 Zn105 1.898 . S
O117 C112 1.167 . S
O118 Zn107 2.120 . S
O118 C112 1.299 . S
O119 Zn107 2.114 . S
O119 C121 1.166 . S
O120 Zn105 1.905 . S
O120 C121 1.182 . S
C121 O119 1.166 . S
C121 O120 1.182 . S
O122 Zn107 2.080 . S
O122 C125 1.305 . S
O123 Zn106 1.920 . S
O123 C125 1.234 . S
C124 O110 1.305 . S
C124 O111 1.234 . S
C125 O122 1.305 . S
C125 O123 1.234 . S
Zn126 O132 1.920 . S
Zn126 O138 1.898 . S
Zn126 O141 1.905 . S
Zn127 O135 1.905 . S
Zn127 O136 1.898 . S
Zn127 O144 1.920 . S
Zn128 O131 2.080 . S
Zn128 O134 2.114 . S
Zn128 O137 2.120 . S
Zn128 O139 2.120 . S
Zn128 O140 2.114 . S
Zn128 O143 2.080 . S
C129 O134 1.166 . S
C129 O135 1.182 . S
C130 O136 1.167 . S
C130 O137 1.299 . S
O131 Zn128 2.080 . S
O131 C145 1.305 . S
O132 Zn126 1.920 . S
O132 C145 1.234 . S
C133 O138 1.167 . S
C133 O139 1.299 . S
O134 Zn128 2.114 . S
O134 C129 1.166 . S
O135 Zn127 1.905 . S
O135 C129 1.182 . S
O136 Zn127 1.898 . S
O136 C130 1.167 . S
O137 Zn128 2.120 . S
O137 C130 1.299 . S
O138 Zn126 1.898 . S
O138 C133 1.167 . S
O139 Zn128 2.120 . S
O139 C133 1.299 . S
O140 Zn128 2.114 . S
O140 C142 1.166 . S
O141 Zn126 1.905 . S
O141 C142 1.182 . S
C142 O140 1.166 . S
C142 O141 1.182 . S
O143 Zn128 2.080 . S
O143 C146 1.305 . S
O144 Zn127 1.920 . S
O144 C146 1.234 . S
C145 O131 1.305 . S
C145 O132 1.234 . S
C146 O143 1.305 . S
C146 O144 1.234 . S
Zn147 O153 1.920 . S
Zn147 O159 1.898 . S
Zn147 O162 1.905 . S
Zn148 O156 1.905 . S
Zn148 O157 1.898 . S
Zn148 O165 1.920 1_655 S
Zn149 O152 2.080 . S
Zn149 O155 2.114 . S
Zn149 O158 2.120 . S
Zn149 O160 2.120 . S
Zn149 O161 2.114 . S
Zn149 O164 2.080 . S
C150 O155 1.166 . S
C150 O156 1.182 1_455 S
C151 O157 1.167 1_455 S
C151 O158 1.299 . S
O152 Zn149 2.080 . S
O152 C166 1.305 . S
O153 Zn147 1.920 . S
O153 C166 1.234 . S
C154 O159 1.167 . S
C154 O160 1.299 . S
O155 Zn149 2.114 . S
O155 C150 1.166 . S
O156 Zn148 1.905 . S
O156 C150 1.182 1_655 S
O157 Zn148 1.898 . S
O157 C151 1.167 1_655 S
O158 Zn149 2.120 . S
O158 C151 1.299 . S
O159 Zn147 1.898 . S
O159 C154 1.167 . S
O160 Zn149 2.120 . S
O160 C154 1.299 . S
O161 Zn149 2.114 . S
O161 C163 1.166 . S
O162 Zn147 1.905 . S
O162 C163 1.182 . S
C163 O161 1.166 . S
C163 O162 1.182 . S
O164 Zn149 2.080 . S
O164 C167 1.305 . S
O165 Zn148 1.920 1_455 S
O165 C167 1.234 . S
C166 O152 1.305 . S
C166 O153 1.234 . S
C167 O164 1.305 . S
C167 O165 1.234 . S
Zn168 O174 1.920 . S
Zn168 O180 1.898 . S
Zn168 O183 1.905 . S
Zn169 O177 1.905 . S
Zn169 O178 1.898 . S
Zn169 O186 1.920 . S
Zn170 O173 2.080 . S
Zn170 O176 2.114 . S
Zn170 O179 2.120 . S
Zn170 O181 2.120 . S
Zn170 O182 2.114 . S
Zn170 O185 2.080 . S
C171 O176 1.166 . S
C171 O177 1.182 . S
C172 O178 1.167 . S
C172 O179 1.299 . S
O173 Zn170 2.080 . S
O173 C187 1.305 . S
O174 Zn168 1.920 . S
O174 C187 1.234 . S
C175 O180 1.167 . S
C175 O181 1.299 . S
O176 Zn170 2.114 . S
O176 C171 1.166 . S
O177 Zn169 1.905 . S
O177 C171 1.182 . S
O178 Zn169 1.898 . S
O178 C172 1.167 . S
O179 Zn170 2.120 . S
O179 C172 1.299 . S
O180 Zn168 1.898 . S
O180 C175 1.167 . S
O181 Zn170 2.120 . S
O181 C175 1.299 . S
O182 Zn170 2.114 . S
O182 C184 1.166 . S
O183 Zn168 1.905 . S
O183 C184 1.182 . S
C184 O182 1.166 . S
C184 O183 1.182 . S
O185 Zn170 2.080 . S
O185 C188 1.305 . S
O186 Zn169 1.920 . S
O186 C188 1.234 . S
C187 O173 1.305 . S
C187 O174 1.234 . S
C188 O185 1.305 . S
C188 O186 1.234 . S
Zn189 O195 1.920 1_455 S
Zn189 O201 1.898 . S
Zn189 O204 1.905 . S
Zn190 O198 1.905 . S
Zn190 O199 1.898 . S
Zn190 O207 1.920 . S
Zn191 O194 2.080 . S
Zn191 O197 2.114 . S
Zn191 O200 2.120 . S
Zn191 O202 2.120 . S
Zn191 O203 2.114 . S
Zn191 O206 2.080 . S
C192 O197 1.166 . S
C192 O198 1.182 . S
C193 O199 1.167 . S
C193 O200 1.299 . S
O194 Zn191 2.080 . S
O194 C208 1.305 . S
O195 Zn189 1.920 1_655 S
O195 C208 1.234 . S
C196 O201 1.167 1_655 S
C196 O202 1.299 . S
O197 Zn191 2.114 . S
O197 C192 1.166 . S
O198 Zn190 1.905 . S
O198 C192 1.182 . S
O199 Zn190 1.898 . S
O199 C193 1.167 . S
O200 Zn191 2.120 . S
O200 C193 1.299 . S
O201 Zn189 1.898 . S
O201 C196 1.167 1_455 S
O202 Zn191 2.120 . S
O202 C196 1.299 . S
O203 Zn191 2.114 . S
O203 C205 1.166 . S
O204 Zn189 1.905 . S
O204 C205 1.182 1_455 S
C205 O203 1.166 . S
C205 O204 1.182 1_655 S
O206 Zn191 2.080 . S
O206 C209 1.305 . S
O207 Zn190 1.920 . S
O207 C209 1.234 . S
C208 O194 1.305 . S
C208 O195 1.234 . S
C209 O206 1.305 . S
C209 O207 1.234 . S
Zn210 O216 1.920 . S
Zn210 O222 1.898 . S
Zn210 O225 1.905 . S
Zn211 O219 1.905 . S
Zn211 O220 1.898 . S
Zn211 O228 1.920 . S
Zn212 O215 2.080 . S
Zn212 O218 2.114 . S
Zn212 O221 2.120 . S
Zn212 O223 2.120 . S
Zn212 O224 2.114 . S
Zn212 O227 2.080 . S
C213 O218 1.166 . S
C213 O219 1.182 . S
C214 O220 1.167 . S
C214 O221 1.299 . S
O215 Zn212 2.080 . S
O215 C229 1.305 . S
O216 Zn210 1.920 . S
O216 C229 1.234 . S
C217 O222 1.167 . S
C217 O223 1.299 . S
O218 Zn212 2.114 . S
O218 C213 1.166 . S
O219 Zn211 1.905 . S
O219 C213 1.182 . S
O220 Zn211 1.898 . S
O220 C214 1.167 . S
O221 Zn212 2.120 . S
O221 C214 1.299 . S
O222 Zn210 1.898 . S
O222 C217 1.167 . S
O223 Zn212 2.120 . S
O223 C217 1.299 . S
O224 Zn212 2.114 . S
O224 C226 1.166 . S
O225 Zn210 1.905 . S
O225 C226 1.182 . S
C226 O224 1.166 . S
C226 O225 1.182 . S
O227 Zn212 2.080 . S
O227 C230 1.305 . S
O228 Zn211 1.920 . S
O228 C230 1.234 . S
C229 O215 1.305 . S
C229 O216 1.234 . S
C230 O227 1.305 . S
C230 O228 1.234 . S
Zn231 O237 1.920 . S
Zn231 O243 1.898 . S
Zn231 O246 1.905 . S
Zn232 O240 1.905 . S
Zn232 O241 1.898 . S
Zn232 O249 1.920 . S
Zn233 O236 2.080 . S
Zn233 O239 2.114 . S
Zn233 O242 2.120 . S
Zn233 O244 2.120 . S
Zn233 O245 2.114 . S
Zn233 O248 2.080 . S
C234 O239 1.166 . S
C234 O240 1.182 . S
C235 O241 1.167 . S
C235 O242 1.299 . S
O236 Zn233 2.080 . S
O236 C250 1.305 . S
O237 Zn231 1.920 . S
O237 C250 1.234 . S
C238 O243 1.167 . S
C238 O244 1.299 . S
O239 Zn233 2.114 . S
O239 C234 1.166 . S
O240 Zn232 1.905 . S
O240 C234 1.182 . S
O241 Zn232 1.898 . S
O241 C235 1.167 . S
O242 Zn233 2.120 . S
O242 C235 1.299 . S
O243 Zn231 1.898 . S
O243 C238 1.167 . S
O244 Zn233 2.120 . S
O244 C238 1.299 . S
O245 Zn233 2.114 . S
O245 C247 1.166 . S
O246 Zn231 1.905 . S
O246 C247 1.182 . S
C247 O245 1.166 . S
C247 O246 1.182 . S
O248 Zn233 2.080 . S
O248 C251 1.305 . S
O249 Zn232 1.920 . S
O249 C251 1.234 . S
C250 O236 1.305 . S
C250 O237 1.234 . S
C251 O248 1.305 . S
C251 O249 1.234 . S
Zn252 O258 1.920 . S
Zn252 O264 1.898 . S
Zn252 O267 1.905 . S
Zn253 O261 1.905 . S
Zn253 O262 1.898 . S
Zn253 O270 1.920 . S
Zn254 O257 2.080 . S
Zn254 O260 2.114 . S
Zn254 O263 2.120 . S
Zn254 O265 2.120 . S
Zn254 O266 2.114 . S
Zn254 O269 2.080 . S
C255 O260 1.166 . S
C255 O261 1.182 . S
C256 O262 1.167 . S
C256 O263 1.299 . S
O257 Zn254 2.080 . S
O257 C271 1.305 . S
O258 Zn252 1.920 . S
O258 C271 1.234 . S
C259 O264 1.167 . S
C259 O265 1.299 . S
O260 Zn254 2.114 . S
O260 C255 1.166 . S
O261 Zn253 1.905 . S
O261 C255 1.182 . S
O262 Zn253 1.898 . S
O262 C256 1.167 . S
O263 Zn254 2.120 . S
O263 C256 1.299 . S
O264 Zn252 1.898 . S
O264 C259 1.167 . S
O265 Zn254 2.120 . S
O265 C259 1.299 . S
O266 Zn254 2.114 . S
O266 C268 1.166 . S
O267 Zn252 1.905 . S
O267 C268 1.182 . S
C268 O266 1.166 . S
C268 O267 1.182 . S
O269 Zn254 2.080 . S
O269 C272 1.305 . S
O270 Zn253 1.920 . S
O270 C272 1.234 . S
C271 O257 1.305 . S
C271 O258 1.234 . S
C272 O269 1.305 . S
C272 O270 1.234 . S
Zn273 O279 1.920 . S
Zn273 O285 1.898 . S
Zn273 O288 1.905 . S
Zn274 O282 1.905 . S
Zn274 O283 1.898 . S
Zn274 O291 1.920 . S
Zn275 O278 2.080 . S
Zn275 O281 2.114 . S
Zn275 O284 2.120 . S
Zn275 O286 2.120 . S
Zn275 O287 2.114 . S
Zn275 O290 2.080 . S
C276 O281 1.166 . S
C276 O282 1.182 . S
C277 O283 1.167 . S
C277 O284 1.299 . S
O278 Zn275 2.080 . S
O278 C292 1.305 . S
O279 Zn273 1.920 . S
O279 C292 1.234 . S
C280 O285 1.167 . S
C280 O286 1.299 . S
O281 Zn275 2.114 . S
O281 C276 1.166 . S
O282 Zn274 1.905 . S
O282 C276 1.182 . S
O283 Zn274 1.898 . S
O283 C277 1.167 . S
O284 Zn275 2.120 . S
O284 C277 1.299 . S
O285 Zn273 1.898 . S
O285 C280 1.167 . S
O286 Zn275 2.120 . S
O286 C280 1.299 . S
O287 Zn275 2.114 . S
O287 C289 1.166 . S
O288 Zn273 1.905 . S
O288 C289 1.182 . S
C289 O287 1.166 . S
C289 O288 1.182 . S
O290 Zn275 2.080 . S
O290 C293 1.305 . S
O291 Zn274 1.920 . S
O291 C293 1.234 . S
C292 O278 1.305 . S
C292 O279 1.234 . S
C293 O290 1.305 . S
C293 O291 1.234 . S
Zn294 O300 1.920 . S
Zn294 O306 1.898 . S
Zn294 O309 1.905 . S
Zn295 O303 1.905 . S
Zn295 O304 1.898 . S
Zn295 O312 1.920 . S
Zn296 O299 2.080 . S
Zn296 O302 2.114 . S
Zn296 O305 2.120 . S
Zn296 O307 2.120 . S
Zn296 O308 2.114 . S
Zn296 O311 2.080 . S
C297 O302 1.166 . S
C297 O303 1.182 . S
C298 O304 1.167 . S
C298 O305 1.299 . S
O299 Zn296 2.080 . S
O299 C313 1.305 . S
O300 Zn294 1.920 . S
O300 C313 1.234 . S
C301 O306 1.167 . S
C301 O307 1.299 . S
O302 Zn296 2.114 . S
O302 C297 1.166 . S
O303 Zn295 1.905 . S
O303 C297 1.182 . S
O304 Zn295 1.898 . S
O304 C298 1.167 . S
O305 Zn296 2.120 . S
O305 C298 1.299 . S
O306 Zn294 1.898 . S
O306 C301 1.167 . S
O307 Zn296 2.120 . S
O307 C301 1.299 . S
O308 Zn296 2.114 . S
O308 C310 1.166 . S
O309 Zn294 1.905 . S
O309 C310 1.182 . S
C310 O308 1.166 . S
C310 O309 1.182 . S
O311 Zn296 2.080 . S
O311 C314 1.305 . S
O312 Zn295 1.920 . S
O312 C314 1.234 . S
C313 O299 1.305 . S
C313 O300 1.234 . S
C314 O311 1.305 . S
C314 O312 1.234 . S
Zn315 O321 1.920 . S
Zn315 O327 1.898 . S
Zn315 O330 1.905 . S
Zn316 O324 1.905 . S
Zn316 O325 1.898 . S
Zn316 O333 1.920 1_455 S
Zn317 O320 2.080 . S
Zn317 O323 2.114 . S
Zn317 O326 2.120 . S
Zn317 O328 2.120 . S
Zn317 O329 2.114 . S
Zn317 O332 2.080 . S
C318 O323 1.166 . S
C318 O324 1.182 1_655 S
C319 O325 1.167 1_655 S
C319 O326 1.299 . S
O320 Zn317 2.080 . S
O320 C334 1.305 . S
O321 Zn315 1.920 . S
O321 C334 1.234 . S
C322 O327 1.167 . S
C322 O328 1.299 . S
O323 Zn317 2.114 . S
O323 C318 1.166 . S
O324 Zn316 1.905 . S
O324 C318 1.182 1_455 S
O325 Zn316 1.898 . S
O325 C319 1.167 1_455 S
O326 Zn317 2.120 . S
O326 C319 1.299 . S
O327 Zn315 1.898 . S
O327 C322 1.167 . S
O328 Zn317 2.120 . S
O328 C322 1.299 . S
O329 Zn317 2.114 . S
O329 C331 1.166 . S
O330 Zn315 1.905 . S
O330 C331 1.182 . S
C331 O329 1.166 . S
C331 O330 1.182 . S
O332 Zn317 2.080 . S
O332 C335 1.305 . S
O333 Zn316 1.920 1_655 S
O333 C335 1.234 . S
C334 O320 1.305 . S
C334 O321 1.234 . S
C335 O332 1.305 . S
C335 O333 1.234 . S
Zn336 O342 1.920 . S
Zn336 O348 1.898 . S
Zn336 O351 1.905 . S
Zn337 O345 1.905 . S
Zn337 O346 1.898 . S
Zn337 O354 1.920 . S
Zn338 O341 2.080 . S
Zn338 O344 2.114 . S
Zn338 O347 2.120 . S
Zn338 O349 2.120 . S
Zn338 O350 2.114 . S
Zn338 O353 2.080 . S
C339 O344 1.166 . S
C339 O345 1.182 . S
C340 O346 1.167 . S
C340 O347 1.299 . S
O341 Zn338 2.080 . S
O341 C355 1.305 . S
O342 Zn336 1.920 . S
O342 C355 1.234 . S
C343 O348 1.167 . S
C343 O349 1.299 . S
O344 Zn338 2.114 . S
O344 C339 1.166 . S
O345 Zn337 1.905 . S
O345 C339 1.182 . S
O346 Zn337 1.898 . S
O346 C340 1.167 . S
O347 Zn338 2.120 . S
O347 C340 1.299 . S
O348 Zn336 1.898 . S
O348 C343 1.167 . S
O349 Zn338 2.120 . S
O349 C343 1.299 . S
O350 Zn338 2.114 . S
O350 C352 1.166 . S
O351 Zn336 1.905 . S
O351 C352 1.182 . S
C352 O350 1.166 . S
C352 O351 1.182 . S
O353 Zn338 2.080 . S
O353 C356 1.305 . S
O354 Zn337 1.920 . S
O354 C356 1.234 . S
C355 O341 1.305 . S
C355 O342 1.234 . S
C356 O353 1.305 . S
C356 O354 1.234 . S
Zn357 O363 1.920 . S
Zn357 O369 1.898 . S
Zn357 O372 1.905 . S
Zn358 O366 1.905 . S
Zn358 O367 1.898 . S
Zn358 O375 1.920 . S
Zn359 O362 2.080 . S
Zn359 O365 2.114 . S
Zn359 O368 2.120 . S
Zn359 O370 2.120 . S
Zn359 O371 2.114 . S
Zn359 O374 2.080 . S
C360 O365 1.166 . S
C360 O366 1.182 . S
C361 O367 1.167 . S
C361 O368 1.299 . S
O362 Zn359 2.080 . S
O362 C376 1.305 . S
O363 Zn357 1.920 . S
O363 C376 1.234 . S
C364 O369 1.167 . S
C364 O370 1.299 . S
O365 Zn359 2.114 . S
O365 C360 1.166 . S
O366 Zn358 1.905 . S
O366 C360 1.182 . S
O367 Zn358 1.898 . S
O367 C361 1.167 . S
O368 Zn359 2.120 . S
O368 C361 1.299 . S
O369 Zn357 1.898 . S
O369 C364 1.167 . S
O370 Zn359 2.120 . S
O370 C364 1.299 . S
O371 Zn359 2.114 . S
O371 C373 1.166 . S
O372 Zn357 1.905 . S
O372 C373 1.182 . S
C373 O371 1.166 . S
C373 O372 1.182 . S
O374 Zn359 2.080 . S
O374 C377 1.305 . S
O375 Zn358 1.920 . S
O375 C377 1.234 . S
C376 O362 1.305 . S
C376 O363 1.234 . S
C377 O374 1.305 . S
C377 O375 1.234 . S
Zn378 O384 1.920 . S
Zn378 O390 1.898 . S
Zn378 O393 1.905 . S
Zn379 O387 1.905 . S
Zn379 O388 1.898 . S
Zn379 O396 1.920 . S
Zn380 O383 2.080 . S
Zn380 O386 2.114 . S
Zn380 O389 2.120 . S
Zn380 O391 2.120 . S
Zn380 O392 2.114 . S
Zn380 O395 2.080 . S
C381 O386 1.166 . S
C381 O387 1.182 . S
C382 O388 1.167 . S
C382 O389 1.299 . S
O383 Zn380 2.080 . S
O383 C397 1.305 . S
O384 Zn378 1.920 . S
O384 C397 1.234 . S
C385 O390 1.167 . S
C385 O391 1.299 . S
O386 Zn380 2.114 . S
O386 C381 1.166 . S
O387 Zn379 1.905 . S
O387 C381 1.182 . S
O388 Zn379 1.898 . S
O388 C382 1.167 . S
O389 Zn380 2.120 . S
O389 C382 1.299 . S
O390 Zn378 1.898 . S
O390 C385 1.167 . S
O391 Zn380 2.120 . S
O391 C385 1.299 . S
O392 Zn380 2.114 . S
O392 C394 1.166 . S
O393 Zn378 1.905 . S
O393 C394 1.182 . S
C394 O392 1.166 . S
C394 O393 1.182 . S
O395 Zn380 2.080 . S
O395 C398 1.305 . S
O396 Zn379 1.920 . S
O396 C398 1.234 . S
C397 O383 1.305 . S
C397 O384 1.234 . S
C398 O395 1.305 . S
C398 O396 1.234 . S
Zn399 O405 1.920 1_455 S
Zn399 O411 1.898 . S
Zn399 O414 1.905 . S
Zn400 O408 1.905 . S
Zn400 O409 1.898 . S
Zn400 O417 1.920 . S
Zn401 O404 2.080 . S
Zn401 O407 2.114 . S
Zn401 O410 2.120 . S
Zn401 O412 2.120 . S
Zn401 O413 2.114 . S
Zn401 O416 2.080 . S
C402 O407 1.166 . S
C402 O408 1.182 . S
C403 O409 1.167 . S
C403 O410 1.299 . S
O404 Zn401 2.080 . S
O404 C418 1.305 . S
O405 Zn399 1.920 1_655 S
O405 C418 1.234 . S
C406 O411 1.167 1_655 S
C406 O412 1.299 . S
O407 Zn401 2.114 . S
O407 C402 1.166 . S
O408 Zn400 1.905 . S
O408 C402 1.182 . S
O409 Zn400 1.898 . S
O409 C403 1.167 . S
O410 Zn401 2.120 . S
O410 C403 1.299 . S
O411 Zn399 1.898 . S
O411 C406 1.167 1_455 S
O412 Zn401 2.120 . S
O412 C406 1.299 . S
O413 Zn401 2.114 . S
O413 C415 1.166 . S
O414 Zn399 1.905 . S
O414 C415 1.182 1_455 S
C415 O413 1.166 . S
C415 O414 1.182 1_655 S
O416 Zn401 2.080 . S
O416 C419 1.305 . S
O417 Zn400 1.920 . S
O417 C419 1.234 . S
C418 O404 1.305 . S
C418 O405 1.234 . S
C419 O416 1.305 . S
C419 O417 1.234 . S
Zn420 O426 1.920 . S
Zn420 O432 1.898 . S
Zn420 O435 1.905 . S
Zn421 O429 1.905 . S
Zn421 O430 1.898 . S
Zn421 O438 1.920 . S
Zn422 O425 2.080 . S
Zn422 O428 2.114 . S
Zn422 O431 2.120 . S
Zn422 O433 2.120 . S
Zn422 O434 2.114 . S
Zn422 O437 2.080 . S
C423 O428 1.166 . S
C423 O429 1.182 . S
C424 O430 1.167 . S
C424 O431 1.299 . S
O425 Zn422 2.080 . S
O425 C439 1.305 . S
O426 Zn420 1.920 . S
O426 C439 1.234 . S
C427 O432 1.167 . S
C427 O433 1.299 . S
O428 Zn422 2.114 . S
O428 C423 1.166 . S
O429 Zn421 1.905 . S
O429 C423 1.182 . S
O430 Zn421 1.898 . S
O430 C424 1.167 . S
O431 Zn422 2.120 . S
O431 C424 1.299 . S
O432 Zn420 1.898 . S
O432 C427 1.167 . S
O433 Zn422 2.120 . S
O433 C427 1.299 . S
O434 Zn422 2.114 . S
O434 C436 1.166 . S
O435 Zn420 1.905 . S
O435 C436 1.182 . S
C436 O434 1.166 . S
C436 O435 1.182 . S
O437 Zn422 2.080 . S
O437 C440 1.305 . S
O438 Zn421 1.920 . S
O438 C440 1.234 . S
C439 O425 1.305 . S
C439 O426 1.234 . S
C440 O437 1.305 . S
C440 O438 1.234 . S
Zn441 O447 1.920 1_455 S
Zn441 O453 1.898 . S
Zn441 O456 1.905 . S
Zn442 O450 1.905 . S
Zn442 O451 1.898 . S
Zn442 O459 1.920 . S
Zn443 O446 2.080 . S
Zn443 O449 2.114 . S
Zn443 O452 2.120 . S
Zn443 O454 2.120 . S
Zn443 O455 2.114 . S
Zn443 O458 2.080 . S
C444 O449 1.166 . S
C444 O450 1.182 . S
C445 O451 1.167 . S
C445 O452 1.299 . S
O446 Zn443 2.080 . S
O446 C460 1.305 . S
O447 Zn441 1.920 1_655 S
O447 C460 1.234 . S
C448 O453 1.167 1_655 S
C448 O454 1.299 . S
O449 Zn443 2.114 . S
O449 C444 1.166 . S
O450 Zn442 1.905 . S
O450 C444 1.182 . S
O451 Zn442 1.898 . S
O451 C445 1.167 . S
O452 Zn443 2.120 . S
O452 C445 1.299 . S
O453 Zn441 1.898 . S
O453 C448 1.167 1_455 S
O454 Zn443 2.120 . S
O454 C448 1.299 . S
O455 Zn443 2.114 . S
O455 C457 1.166 . S
O456 Zn441 1.905 . S
O456 C457 1.182 1_455 S
C457 O455 1.166 . S
C457 O456 1.182 1_655 S
O458 Zn443 2.080 . S
O458 C461 1.305 . S
O459 Zn442 1.920 . S
O459 C461 1.234 . S
C460 O446 1.305 . S
C460 O447 1.234 . S
C461 O458 1.305 . S
C461 O459 1.234 . S
Zn462 O468 1.920 . S
Zn462 O474 1.898 . S
Zn462 O477 1.905 . S
Zn463 O471 1.905 . S
Zn463 O472 1.898 . S
Zn463 O480 1.920 . S
Zn464 O467 2.080 . S
Zn464 O470 2.114 . S
Zn464 O473 2.120 . S
Zn464 O475 2.120 . S
Zn464 O476 2.114 . S
Zn464 O479 2.080 . S
C465 O470 1.166 . S
C465 O471 1.182 . S
C466 O472 1.167 . S
C466 O473 1.299 . S
O467 Zn464 2.080 . S
O467 C481 1.305 . S
O468 Zn462 1.920 . S
O468 C481 1.234 . S
C469 O474 1.167 . S
C469 O475 1.299 . S
O470 Zn464 2.114 . S
O470 C465 1.166 . S
O471 Zn463 1.905 . S
O471 C465 1.182 . S
O472 Zn463 1.898 . S
O472 C466 1.167 . S
O473 Zn464 2.120 . S
O473 C466 1.299 . S
O474 Zn462 1.898 . S
O474 C469 1.167 . S
O475 Zn464 2.120 . S
O475 C469 1.299 . S
O476 Zn464 2.114 . S
O476 C478 1.166 . S
O477 Zn462 1.905 . S
O477 C478 1.182 . S
C478 O476 1.166 . S
C478 O477 1.182 . S
O479 Zn464 2.080 . S
O479 C482 1.305 . S
O480 Zn463 1.920 . S
O480 C482 1.234 . S
C481 O467 1.305 . S
C481 O468 1.234 . S
C482 O479 1.305 . S
C482 O480 1.234 . S
Zn483 O489 1.920 . S
Zn483 O495 1.898 . S
Zn483 O498 1.905 . S
Zn484 O492 1.905 . S
Zn484 O493 1.898 . S
Zn484 O501 1.920 . S
Zn485 O488 2.080 . S
Zn485 O491 2.114 . S
Zn485 O494 2.120 . S
Zn485 O496 2.120 . S
Zn485 O497 2.114 . S
Zn485 O500 2.080 . S
C486 O491 1.166 . S
C486 O492 1.182 . S
C487 O493 1.167 . S
C487 O494 1.299 . S
O488 Zn485 2.080 . S
O488 C502 1.305 . S
O489 Zn483 1.920 . S
O489 C502 1.234 . S
C490 O495 1.167 . S
C490 O496 1.299 . S
O491 Zn485 2.114 . S
O491 C486 1.166 . S
O492 Zn484 1.905 . S
O492 C486 1.182 . S
O493 Zn484 1.898 . S
O493 C487 1.167 . S
O494 Zn485 2.120 . S
O494 C487 1.299 . S
O495 Zn483 1.898 . S
O495 C490 1.167 . S
O496 Zn485 2.120 . S
O496 C490 1.299 . S
O497 Zn485 2.114 . S
O497 C499 1.166 . S
O498 Zn483 1.905 . S
O498 C499 1.182 . S
C499 O497 1.166 . S
C499 O498 1.182 . S
O500 Zn485 2.080 . S
O500 C503 1.305 . S
O501 Zn484 1.920 . S
O501 C503 1.234 . S
C502 O488 1.305 . S
C502 O489 1.234 . S
C503 O500 1.305 . S
C503 O501 1.234 . S
Zn504 O510 1.920 . S
Zn504 O516 1.898 . S
Zn504 O519 1.905 . S
Zn505 O513 1.905 . S
Zn505 O514 1.898 . S
Zn505 O522 1.920 . S
Zn506 O509 2.080 . S
Zn506 O512 2.114 . S
Zn506 O515 2.120 . S
Zn506 O517 2.120 . S
Zn506 O518 2.114 . S
Zn506 O521 2.080 . S
C507 O512 1.166 . S
C507 O513 1.182 . S
C508 O514 1.167 . S
C508 O515 1.299 . S
O509 Zn506 2.080 . S
O509 C523 1.305 . S
O510 Zn504 1.920 . S
O510 C523 1.234 . S
C511 O516 1.167 . S
C511 O517 1.299 . S
O512 Zn506 2.114 . S
O512 C507 1.166 . S
O513 Zn505 1.905 . S
O513 C507 1.182 . S
O514 Zn505 1.898 . S
O514 C508 1.167 . S
O515 Zn506 2.120 . S
O515 C508 1.299 . S
O516 Zn504 1.898 . S
O516 C511 1.167 . S
O517 Zn506 2.120 . S
O517 C511 1.299 . S
O518 Zn506 2.114 . S
O518 C520 1.166 . S
O519 Zn504 1.905 . S
O519 C520 1.182 . S
C520 O518 1.166 . S
C520 O519 1.182 . S
O521 Zn506 2.080 . S
O521 C524 1.305 . S
O522 Zn505 1.920 . S
O522 C524 1.234 . S
C523 O509 1.305 . S
C523 O510 1.234 . S
C524 O521 1.305 . S
C524 O522 1.234 . S
Zn525 O531 1.920 . S
Zn525 O537 1.898 . S
Zn525 O540 1.905 . S
Zn526 O534 1.905 . S
Zn526 O535 1.898 . S
Zn526 O543 1.920 . S
Zn527 O530 2.080 . S
Zn527 O533 2.114 . S
Zn527 O536 2.120 . S
Zn527 O538 2.120 . S
Zn527 O539 2.114 . S
Zn527 O542 2.080 . S
C528 O533 1.166 . S
C528 O534 1.182 . S
C529 O535 1.167 . S
C529 O536 1.299 . S
O530 Zn527 2.080 . S
O530 C544 1.305 . S
O531 Zn525 1.920 . S
O531 C544 1.234 . S
C532 O537 1.167 . S
C532 O538 1.299 . S
O533 Zn527 2.114 . S
O533 C528 1.166 . S
O534 Zn526 1.905 . S
O534 C528 1.182 . S
O535 Zn526 1.898 . S
O535 C529 1.167 . S
O536 Zn527 2.120 . S
O536 C529 1.299 . S
O537 Zn525 1.898 . S
O537 C532 1.167 . S
O538 Zn527 2.120 . S
O538 C532 1.299 . S
O539 Zn527 2.114 . S
O539 C541 1.166 . S
O540 Zn525 1.905 . S
O540 C541 1.182 . S
C541 O539 1.166 . S
C541 O540 1.182 . S
O542 Zn527 2.080 . S
O542 C545 1.305 . S
O543 Zn526 1.920 . S
O543 C545 1.234 . S
C544 O530 1.305 . S
C544 O531 1.234 . S
C545 O542 1.305 . S
C545 O543 1.234 . S
Zn546 O552 1.920 . S
Zn546 O558 1.898 . S
Zn546 O561 1.905 . S
Zn547 O555 1.905 . S
Zn547 O556 1.898 . S
Zn547 O564 1.920 . S
Zn548 O551 2.080 . S
Zn548 O554 2.114 . S
Zn548 O557 2.120 . S
Zn548 O559 2.120 . S
Zn548 O560 2.114 . S
Zn548 O563 2.080 . S
C549 O554 1.166 . S
C549 O555 1.182 . S
C550 O556 1.167 . S
C550 O557 1.299 . S
O551 Zn548 2.080 . S
O551 C565 1.305 . S
O552 Zn546 1.920 . S
O552 C565 1.234 . S
C553 O558 1.167 . S
C553 O559 1.299 . S
O554 Zn548 2.114 . S
O554 C549 1.166 . S
O555 Zn547 1.905 . S
O555 C549 1.182 . S
O556 Zn547 1.898 . S
O556 C550 1.167 . S
O557 Zn548 2.120 . S
O557 C550 1.299 . S
O558 Zn546 1.898 . S
O558 C553 1.167 . S
O559 Zn548 2.120 . S
O559 C553 1.299 . S
O560 Zn548 2.114 . S
O560 C562 1.166 . S
O561 Zn546 1.905 . S
O561 C562 1.182 . S
C562 O560 1.166 . S
C562 O561 1.182 . S
O563 Zn548 2.080 . S
O563 C566 1.305 . S
O564 Zn547 1.920 . S
O564 C566 1.234 . S
C565 O551 1.305 . S
C565 O552 1.234 . S
C566 O563 1.305 . S
C566 O564 1.234 . S
Zn567 O573 1.920 1_655 S
Zn567 O579 1.898 . S
Zn567 O582 1.905 . S
Zn568 O576 1.905 . S
Zn568 O577 1.898 . S
Zn568 O585 1.920 . S
Zn569 O572 2.080 . S
Zn569 O575 2.114 . S
Zn569 O578 2.120 . S
Zn569 O580 2.120 . S
Zn569 O581 2.114 . S
Zn569 O584 2.080 . S
C570 O575 1.166 . S
C570 O576 1.182 . S
C571 O577 1.167 . S
C571 O578 1.299 . S
O572 Zn569 2.080 . S
O572 C586 1.305 . S
O573 Zn567 1.920 1_455 S
O573 C586 1.234 . S
C574 O579 1.167 1_455 S
C574 O580 1.299 . S
O575 Zn569 2.114 . S
O575 C570 1.166 . S
O576 Zn568 1.905 . S
O576 C570 1.182 . S
O577 Zn568 1.898 . S
O577 C571 1.167 . S
O578 Zn569 2.120 . S
O578 C571 1.299 . S
O579 Zn567 1.898 . S
O579 C574 1.167 1_655 S
O580 Zn569 2.120 . S
O580 C574 1.299 . S
O581 Zn569 2.114 . S
O581 C583 1.166 . S
O582 Zn567 1.905 . S
O582 C583 1.182 1_655 S
C583 O581 1.166 . S
C583 O582 1.182 1_455 S
O584 Zn569 2.080 . S
O584 C587 1.305 . S
O585 Zn568 1.920 . S
O585 C587 1.234 . S
C586 O572 1.305 . S
C586 O573 1.234 . S
C587 O584 1.305 . S
C587 O585 1.234 . S
Zn588 O594 1.920 . S
Zn588 O600 1.898 . S
Zn588 O603 1.905 . S
Zn589 O597 1.905 . S
Zn589 O598 1.898 . S
Zn589 O606 1.920 . S
Zn590 O593 2.080 . S
Zn590 O596 2.114 . S
Zn590 O599 2.120 . S
Zn590 O601 2.120 . S
Zn590 O602 2.114 . S
Zn590 O605 2.080 . S
C591 O596 1.166 . S
C591 O597 1.182 . S
C592 O598 1.167 . S
C592 O599 1.299 . S
O593 Zn590 2.080 . S
O593 C607 1.305 . S
O594 Zn588 1.920 . S
O594 C607 1.234 . S
C595 O600 1.167 . S
C595 O601 1.299 . S
O596 Zn590 2.114 . S
O596 C591 1.166 . S
O597 Zn589 1.905 . S
O597 C591 1.182 . S
O598 Zn589 1.898 . S
O598 C592 1.167 . S
O599 Zn590 2.120 . S
O599 C592 1.299 . S
O600 Zn588 1.898 . S
O600 C595 1.167 . S
O601 Zn590 2.120 . S
O601 C595 1.299 . S
O602 Zn590 2.114 . S
O602 C604 1.166 . S
O603 Zn588 1.905 . S
O603 C604 1.182 . S
C604 O602 1.166 . S
C604 O603 1.182 . S
O605 Zn590 2.080 . S
O605 C608 1.305 . S
O606 Zn589 1.920 . S
O606 C608 1.234 . S
C607 O593 1.305 . S
C607 O594 1.234 . S
C608 O605 1.305 . S
C608 O606 1.234 . S
Zn609 O615 1.920 . S
Zn609 O621 1.898 . S
Zn609 O624 1.905 . S
Zn610 O618 1.905 . S
Zn610 O619 1.898 . S
Zn610 O627 1.920 1_655 S
Zn611 O614 2.080 . S
Zn611 O617 2.114 . S
Zn611 O620 2.120 . S
Zn611 O622 2.120 . S
Zn611 O623 2.114 . S
Zn611 O626 2.080 . S
C612 O617 1.166 . S
C612 O618 1.182 1_455 S
C613 O619 1.167 1_455 S
C613 O620 1.299 . S
O614 Zn611 2.080 . S
O614 C628 1.305 . S
O615 Zn609 1.920 . S
O615 C628 1.234 . S
C616 O621 1.167 . S
C616 O622 1.299 . S
O617 Zn611 2.114 . S
O617 C612 1.166 . S
O618 Zn610 1.905 . S
O618 C612 1.182 1_655 S
O619 Zn610 1.898 . S
O619 C613 1.167 1_655 S
O620 Zn611 2.120 . S
O620 C613 1.299 . S
O621 Zn609 1.898 . S
O621 C616 1.167 . S
O622 Zn611 2.120 . S
O622 C616 1.299 . S
O623 Zn611 2.114 . S
O623 C625 1.166 . S
O624 Zn609 1.905 . S
O624 C625 1.182 . S
C625 O623 1.166 . S
C625 O624 1.182 . S
O626 Zn611 2.080 . S
O626 C629 1.305 . S
O627 Zn610 1.920 1_455 S
O627 C629 1.234 . S
C628 O614 1.305 . S
C628 O615 1.234 . S
C629 O626 1.305 . S
C629 O627 1.234 . S
Zn630 O636 1.920 . S
Zn630 O642 1.898 . S
Zn630 O645 1.905 . S
Zn631 O639 1.905 . S
Zn631 O640 1.898 . S
Zn631 O648 1.920 . S
Zn632 O635 2.080 . S
Zn632 O638 2.114 . S
Zn632 O641 2.120 . S
Zn632 O643 2.120 . S
Zn632 O644 2.114 . S
Zn632 O647 2.080 . S
C633 O638 1.166 . S
C633 O639 1.182 . S
C634 O640 1.167 . S
C634 O641 1.299 . S
O635 Zn632 2.080 . S
O635 C649 1.305 . S
O636 Zn630 1.920 . S
O636 C649 1.234 . S
C637 O642 1.167 . S
C637 O643 1.299 . S
O638 Zn632 2.114 . S
O638 C633 1.166 . S
O639 Zn631 1.905 . S
O639 C633 1.182 . S
O640 Zn631 1.898 . S
O640 C634 1.167 . S
O641 Zn632 2.120 . S
O641 C634 1.299 . S
O642 Zn630 1.898 . S
O642 C637 1.167 . S
O643 Zn632 2.120 . S
O643 C637 1.299 . S
O644 Zn632 2.114 . S
O644 C646 1.166 . S
O645 Zn630 1.905 . S
O645 C646 1.182 . S
C646 O644 1.166 . S
C646 O645 1.182 . S
O647 Zn632 2.080 . S
O647 C650 1.305 . S
O648 Zn631 1.920 . S
O648 C650 1.234 . S
C649 O635 1.305 . S
C649 O636 1.234 . S
C650 O647 1.305 . S
C650 O648 1.234 . S
Zn651 O657 1.920 . S
Zn651 O663 1.898 . S
Zn651 O666 1.905 . S
Zn652 O660 1.905 . S
Zn652 O661 1.898 . S
Zn652 O669 1.920 . S
Zn653 O656 2.080 . S
Zn653 O659 2.114 . S
Zn653 O662 2.120 . S
Zn653 O664 2.120 . S
Zn653 O665 2.114 . S
Zn653 O668 2.080 . S
C654 O659 1.166 . S
C654 O660 1.182 . S
C655 O661 1.167 . S
C655 O662 1.299 . S
O656 Zn653 2.080 . S
O656 C670 1.305 . S
O657 Zn651 1.920 . S
O657 C670 1.234 . S
C658 O663 1.167 . S
C658 O664 1.299 . S
O659 Zn653 2.114 . S
O659 C654 1.166 . S
O660 Zn652 1.905 . S
O660 C654 1.182 . S
O661 Zn652 1.898 . S
O661 C655 1.167 . S
O662 Zn653 2.120 . S
O662 C655 1.299 . S
O663 Zn651 1.898 . S
O663 C658 1.167 . S
O664 Zn653 2.120 . S
O664 C658 1.299 . S
O665 Zn653 2.114 . S
O665 C667 1.166 . S
O666 Zn651 1.905 . S
O666 C667 1.182 . S
C667 O665 1.166 . S
C667 O666 1.182 . S
O668 Zn653 2.080 . S
O668 C671 1.305 . S
O669 Zn652 1.920 . S
O669 C671 1.234 . S
C670 O656 1.305 . S
C670 O657 1.234 . S
C671 O668 1.305 . S
C671 O669 1.234 . S
C672 C673 1.387 . S
C672 H676 0.950 . S
C672 C681 1.390 . S
C673 C672 1.387 . S
C673 C675 1.387 . S
H674 C681 0.950 . S
C675 C673 1.387 . S
C675 C677 1.390 . S
C675 H679 0.950 . S
H676 C672 0.950 . S
C677 C675 1.390 . S
C677 C678 1.387 . S
C677 H680 0.950 . S
C678 C677 1.387 . S
C678 C681 1.387 . S
H679 C675 0.950 . S
H680 C677 0.950 . S
C681 C672 1.390 . S
C681 H674 0.950 . S
C681 C678 1.387 . S
C682 C683 1.387 . S
C682 H686 0.950 . S
C682 C691 1.390 1_455 S
C683 C682 1.387 . S
C683 C685 1.387 1_455 S
H684 C691 0.950 . S
C685 C683 1.387 1_655 S
C685 C687 1.390 . S
C685 H689 0.950 . S
H686 C682 0.950 . S
C687 C685 1.390 . S
C687 C688 1.387 . S
C687 H690 0.950 . S
C688 C687 1.387 . S
C688 C691 1.387 . S
H689 C685 0.950 . S
H690 C687 0.950 . S
C691 C682 1.390 1_655 S
C691 H684 0.950 . S
C691 C688 1.387 . S
C692 C693 1.387 . S
C692 H696 0.950 . S
C692 C701 1.390 . S
C693 C692 1.387 . S
C693 C695 1.387 . S
H694 C701 0.950 . S
C695 C693 1.387 . S
C695 C697 1.390 . S
C695 H699 0.950 . S
H696 C692 0.950 . S
C697 C695 1.390 . S
C697 C698 1.387 . S
C697 H700 0.950 . S
C698 C697 1.387 . S
C698 C701 1.387 . S
H699 C695 0.950 . S
H700 C697 0.950 . S
C701 C692 1.390 . S
C701 H694 0.950 . S
C701 C698 1.387 . S
C702 C703 1.387 . S
C702 H706 0.950 . S
C702 C711 1.390 . S
C703 C702 1.387 . S
C703 C705 1.387 . S
H704 C711 0.950 1_565 S
C705 C703 1.387 . S
C705 C707 1.390 . S
C705 H709 0.950 . S
H706 C702 0.950 . S
C707 C705 1.390 . S
C707 C708 1.387 . S
C707 H710 0.950 . S
C708 C707 1.387 . S
C708 C711 1.387 . S
H709 C705 0.950 . S
H710 C707 0.950 . S
C711 C702 1.390 . S
C711 H704 0.950 1_545 S
C711 C708 1.387 . S
C712 C713 1.387 . S
C712 H716 0.950 . S
C712 C721 1.390 . S
C713 C712 1.387 . S
C713 C715 1.387 . S
H714 C721 0.950 . S
C715 C713 1.387 . S
C715 C717 1.390 . S
C715 H719 0.950 . S
H716 C712 0.950 . S
C717 C715 1.390 . S
C717 C718 1.387 . S
C717 H720 0.950 . S
C718 C717 1.387 . S
C718 C721 1.387 . S
H719 C715 0.950 . S
H720 C717 0.950 . S
C721 C712 1.390 . S
C721 H714 0.950 . S
C721 C718 1.387 . S
C722 C723 1.387 . S
C722 H726 0.950 . S
C722 C731 1.390 . S
C723 C722 1.387 . S
C723 C725 1.387 . S
H724 C731 0.950 1_545 S
C725 C723 1.387 . S
C725 C727 1.390 . S
C725 H729 0.950 . S
H726 C722 0.950 . S
C727 C725 1.390 . S
C727 C728 1.387 . S
C727 H730 0.950 . S
C728 C727 1.387 . S
C728 C731 1.387 . S
H729 C725 0.950 . S
H730 C727 0.950 . S
C731 C722 1.390 . S
C731 H724 0.950 1_565 S
C731 C728 1.387 . S
C732 C733 1.387 . S
C732 H736 0.950 . S
C732 C741 1.390 . S
C733 C732 1.387 . S
C733 C735 1.387 . S
H734 C741 0.950 . S
C735 C733 1.387 . S
C735 C737 1.390 . S
C735 H739 0.950 . S
H736 C732 0.950 . S
C737 C735 1.390 . S
C737 C738 1.387 . S
C737 H740 0.950 . S
C738 C737 1.387 . S
C738 C741 1.387 . S
H739 C735 0.950 . S
H740 C737 0.950 . S
C741 C732 1.390 . S
C741 H734 0.950 . S
C741 C738 1.387 . S
C742 C743 1.387 . S
C742 H746 0.950 1_545 S
C742 C751 1.390 1_455 S
C743 C742 1.387 . S
C743 C745 1.387 1_455 S
H744 C751 0.950 . S
C745 C743 1.387 1_655 S
C745 C747 1.390 . S
C745 H749 0.950 . S
H746 C742 0.950 1_565 S
C747 C745 1.390 . S
C747 C748 1.387 . S
C747 H750 0.950 . S
C748 C747 1.387 . S
C748 C751 1.387 . S
H749 C745 0.950 . S
H750 C747 0.950 . S
C751 C742 1.390 1_655 S
C751 H744 0.950 . S
C751 C748 1.387 . S
C752 C753 1.387 . S
C752 H756 0.950 . S
C752 C761 1.390 . S
C753 C752 1.387 . S
C753 C755 1.387 . S
H754 C761 0.950 . S
C755 C753 1.387 . S
C755 C757 1.390 . S
C755 H759 0.950 . S
H756 C752 0.950 . S
C757 C755 1.390 . S
C757 C758 1.387 . S
C757 H760 0.950 . S
C758 C757 1.387 . S
C758 C761 1.387 . S
H759 C755 0.950 . S
H760 C757 0.950 . S
C761 C752 1.390 . S
C761 H754 0.950 . S
C761 C758 1.387 . S
C762 C763 1.387 1_455 S
C762 H766 0.950 1_455 S
C762 C771 1.390 . S
C763 C762 1.387 1_655 S
C763 C765 1.387 . S
H764 C771 0.950 . S
C765 C763 1.387 . S
C765 C767 1.390 1_655 S
C765 H769 0.950 1_545 S
H766 C762 0.950 1_655 S
C767 C765 1.390 1_455 S
C767 C768 1.387 . S
C767 H770 0.950 . S
C768 C767 1.387 . S
C768 C771 1.387 . S
H769 C765 0.950 1_565 S
H770 C767 0.950 . S
C771 C762 1.390 . S
C771 H764 0.950 . S
C771 C768 1.387 . S
C772 C773 1.387 . S
C772 H776 0.950 . S
C772 C781 1.390 . S
C773 C772 1.387 . S
C773 C775 1.387 . S
H774 C781 0.950 . S
C775 C773 1.387 . S
C775 C777 1.390 . S
C775 H779 0.950 . S
H776 C772 0.950 . S
C777 C775 1.390 . S
C777 C778 1.387 . S
C777 H780 0.950 . S
C778 C777 1.387 . S
C778 C781 1.387 . S
H779 C775 0.950 . S
H780 C777 0.950 . S
C781 C772 1.390 . S
C781 H774 0.950 . S
C781 C778 1.387 . S
C782 C783 1.387 . S
C782 H786 0.950 . S
C782 C791 1.390 . S
C783 C782 1.387 . S
C783 C785 1.387 . S
H784 C791 0.950 . S
C785 C783 1.387 . S
C785 C787 1.390 . S
C785 H789 0.950 . S
H786 C782 0.950 . S
C787 C785 1.390 . S
C787 C788 1.387 . S
C787 H790 0.950 1_565 S
C788 C787 1.387 . S
C788 C791 1.387 . S
H789 C785 0.950 . S
H790 C787 0.950 1_545 S
C791 C782 1.390 . S
C791 H784 0.950 . S
C791 C788 1.387 . S
C792 C793 1.387 . S
C792 H796 0.950 . S
C792 C801 1.390 . S
C793 C792 1.387 . S
C793 C795 1.387 . S
H794 C801 0.950 . S
C795 C793 1.387 . S
C795 C797 1.390 . S
C795 H799 0.950 . S
H796 C792 0.950 . S
C797 C795 1.390 . S
C797 C798 1.387 . S
C797 H800 0.950 . S
C798 C797 1.387 . S
C798 C801 1.387 . S
H799 C795 0.950 . S
H800 C797 0.950 . S
C801 C792 1.390 . S
C801 H794 0.950 . S
C801 C798 1.387 . S
C802 C803 1.387 . S
C802 H806 0.950 . S
C802 C811 1.390 . S
C803 C802 1.387 . S
C803 C805 1.387 . S
H804 C811 0.950 . S
C805 C803 1.387 . S
C805 C807 1.390 . S
C805 H809 0.950 1_545 S
H806 C802 0.950 . S
C807 C805 1.390 . S
C807 C808 1.387 . S
C807 H810 0.950 . S
C808 C807 1.387 . S
C808 C811 1.387 . S
H809 C805 0.950 1_565 S
H810 C807 0.950 . S
C811 C802 1.390 . S
C811 H804 0.950 . S
C811 C808 1.387 . S
C812 C813 1.387 . S
C812 H816 0.950 . S
C812 C821 1.390 . S
C813 C812 1.387 . S
C813 C815 1.387 . S
H814 C821 0.950 . S
C815 C813 1.387 . S
C815 C817 1.390 . S
C815 H819 0.950 . S
H816 C812 0.950 . S
C817 C815 1.390 . S
C817 C818 1.387 . S
C817 H820 0.950 . S
C818 C817 1.387 . S
C818 C821 1.387 . S
H819 C815 0.950 . S
H820 C817 0.950 . S
C821 C812 1.390 . S
C821 H814 0.950 . S
C821 C818 1.387 . S
C822 C823 1.387 . S
C822 H826 0.950 . S
C822 C831 1.390 . S
C823 C822 1.387 . S
C823 C825 1.387 . S
H824 C831 0.950 1_545 S
C825 C823 1.387 . S
C825 C827 1.390 1_455 S
C825 H829 0.950 . S
H826 C822 0.950 . S
C827 C825 1.390 1_655 S
C827 C828 1.387 . S
C827 H830 0.950 . S
C828 C827 1.387 . S
C828 C831 1.387 1_655 S
H829 C825 0.950 . S
H830 C827 0.950 . S
C831 C822 1.390 . S
C831 H824 0.950 1_565 S
C831 C828 1.387 1_455 S
C832 C833 1.387 . S
C832 H836 0.950 . S
C832 C841 1.390 . S
C833 C832 1.387 . S
C833 C835 1.387 . S
H834 C841 0.950 . S
C835 C833 1.387 . S
C835 C837 1.390 . S
C835 H839 0.950 . S
H836 C832 0.950 . S
C837 C835 1.390 . S
C837 C838 1.387 . S
C837 H840 0.950 . S
C838 C837 1.387 . S
C838 C841 1.387 . S
H839 C835 0.950 . S
H840 C837 0.950 . S
C841 C832 1.390 . S
C841 H834 0.950 . S
C841 C838 1.387 . S
C842 C843 1.387 . S
C842 H846 0.950 . S
C842 C851 1.390 . S
C843 C842 1.387 . S
C843 C845 1.387 . S
H844 C851 0.950 . S
C845 C843 1.387 . S
C845 C847 1.390 . S
C845 H849 0.950 . S
H846 C842 0.950 . S
C847 C845 1.390 . S
C847 C848 1.387 . S
C847 H850 0.950 . S
C848 C847 1.387 . S
C848 C851 1.387 . S
H849 C845 0.950 . S
H850 C847 0.950 . S
C851 C842 1.390 . S
C851 H844 0.950 . S
C851 C848 1.387 . S
C852 C853 1.387 . S
C852 H856 0.950 . S
C852 C861 1.390 . S
C853 C852 1.387 . S
C853 C855 1.387 . S
H854 C861 0.950 . S
C855 C853 1.387 . S
C855 C857 1.390 . S
C855 H859 0.950 . S
H856 C852 0.950 . S
C857 C855 1.390 . S
C857 C858 1.387 . S
C857 H860 0.950 . S
C858 C857 1.387 . S
C858 C861 1.387 . S
H859 C855 0.950 . S
H860 C857 0.950 . S
C861 C852 1.390 . S
C861 H854 0.950 . S
C861 C858 1.387 . S
C862 C863 1.387 . S
C862 H866 0.950 . S
C862 C871 1.390 1_655 S
C863 C862 1.387 . S
C863 C865 1.387 1_655 S
H864 C871 0.950 . S
C865 C863 1.387 1_455 S
C865 C867 1.390 . S
C865 H869 0.950 . S
H866 C862 0.950 . S
C867 C865 1.390 . S
C867 C868 1.387 . S
C867 H870 0.950 . S
C868 C867 1.387 . S
C868 C871 1.387 . S
H869 C865 0.950 . S
H870 C867 0.950 . S
C871 C862 1.390 1_455 S
C871 H864 0.950 . S
C871 C868 1.387 . S
C872 C873 1.387 . S
C872 H876 0.950 . S
C872 C881 1.390 . S
C873 C872 1.387 . S
C873 C875 1.387 . S
H874 C881 0.950 . S
C875 C873 1.387 . S
C875 C877 1.390 . S
C875 H879 0.950 . S
H876 C872 0.950 . S
C877 C875 1.390 . S
C877 C878 1.387 . S
C877 H880 0.950 . S
C878 C877 1.387 . S
C878 C881 1.387 . S
H879 C875 0.950 . S
H880 C877 0.950 . S
C881 C872 1.390 . S
C881 H874 0.950 . S
C881 C878 1.387 . S
C882 C883 1.387 . S
C882 H886 0.950 . S
C882 C891 1.390 1_455 S
C883 C882 1.387 . S
C883 C885 1.387 . S
H884 C891 0.950 . S
C885 C883 1.387 . S
C885 C887 1.390 . S
C885 H889 0.950 . S
H886 C882 0.950 . S
C887 C885 1.390 . S
C887 C888 1.387 1_455 S
C887 H890 0.950 1_455 S
C888 C887 1.387 1_655 S
C888 C891 1.387 . S
H889 C885 0.950 . S
H890 C887 0.950 1_655 S
C891 C882 1.390 1_655 S
C891 H884 0.950 . S
C891 C888 1.387 . S
C892 C893 1.387 . S
C892 H896 0.950 . S
C892 C901 1.390 . S
C893 C892 1.387 . S
C893 C895 1.387 . S
H894 C901 0.950 . S
C895 C893 1.387 . S
C895 C897 1.390 . S
C895 H899 0.950 . S
H896 C892 0.950 . S
C897 C895 1.390 . S
C897 C898 1.387 . S
C897 H900 0.950 . S
C898 C897 1.387 . S
C898 C901 1.387 . S
H899 C895 0.950 . S
H900 C897 0.950 . S
C901 C892 1.390 . S
C901 H894 0.950 . S
C901 C898 1.387 . S
C902 C903 1.387 . S
C902 H906 0.950 . S
C902 C911 1.390 . S
C903 C902 1.387 . S
C903 C905 1.387 . S
H904 C911 0.950 . S
C905 C903 1.387 . S
C905 C907 1.390 . S
C905 H909 0.950 . S
H906 C902 0.950 . S
C907 C905 1.390 . S
C907 C908 1.387 . S
C907 H910 0.950 . S
C908 C907 1.387 . S
C908 C911 1.387 . S
H909 C905 0.950 . S
H910 C907 0.950 . S
C911 C902 1.390 . S
C911 H904 0.950 . S
C911 C908 1.387 . S
C912 C913 1.387 . S
C912 H916 0.950 . S
C912 C921 1.390 . S
C913 C912 1.387 . S
C913 C915 1.387 . S
H914 C921 0.950 . S
C915 C913 1.387 . S
C915 C917 1.390 . S
C915 H919 0.950 . S
H916 C912 0.950 . S
C917 C915 1.390 . S
C917 C918 1.387 . S
C917 H920 0.950 . S
C918 C917 1.387 . S
C918 C921 1.387 . S
H919 C915 0.950 . S
H920 C917 0.950 . S
C921 C912 1.390 . S
C921 H914 0.950 . S
C921 C918 1.387 . S
C922 C923 1.387 . S
C922 H926 0.950 . S
C922 C931 1.390 . S
C923 C922 1.387 . S
C923 C925 1.387 . S
H924 C931 0.950 . S
C925 C923 1.387 . S
C925 C927 1.390 . S
C925 H929 0.950 . S
H926 C922 0.950 . S
C927 C925 1.390 . S
C927 C928 1.387 . S
C927 H930 0.950 . S
C928 C927 1.387 . S
C928 C931 1.387 . S
H929 C925 0.950 . S
H930 C927 0.950 . S
C931 C922 1.390 . S
C931 H924 0.950 . S
C931 C928 1.387 . S
C932 C933 1.387 . S
C932 H936 0.950 . S
C932 C941 1.390 . S
C933 C932 1.387 . S
C933 C935 1.387 . S
H934 C941 0.950 . S
C935 C933 1.387 . S
C935 C937 1.390 . S
C935 H939 0.950 . S
H936 C932 0.950 . S
C937 C935 1.390 . S
C937 C938 1.387 . S
C937 H940 0.950 . S
C938 C937 1.387 . S
C938 C941 1.387 . S
H939 C935 0.950 . S
H940 C937 0.950 . S
C941 C932 1.390 . S
C941 H934 0.950 . S
C941 C938 1.387 . S
C942 C943 1.387 1_655 S
C942 H946 0.950 . S
C942 C951 1.390 . S
C943 C942 1.387 1_455 S
C943 C945 1.387 . S
H944 C951 0.950 . S
C945 C943 1.387 . S
C945 C947 1.390 1_455 S
C945 H949 0.950 . S
H946 C942 0.950 . S
C947 C945 1.390 1_655 S
C947 C948 1.387 . S
C947 H950 0.950 . S
C948 C947 1.387 . S
C948 C951 1.387 . S
H949 C945 0.950 . S
H950 C947 0.950 . S
C951 C942 1.390 . S
C951 H944 0.950 . S
C951 C948 1.387 . S
C952 C953 1.387 . S
C952 H956 0.950 . S
C952 C961 1.390 . S
C953 C952 1.387 . S
C953 C955 1.387 . S
H954 C961 0.950 . S
C955 C953 1.387 . S
C955 C957 1.390 . S
C955 H959 0.950 . S
H956 C952 0.950 . S
C957 C955 1.390 . S
C957 C958 1.387 . S
C957 H960 0.950 . S
C958 C957 1.387 . S
C958 C961 1.387 . S
H959 C955 0.950 . S
H960 C957 0.950 . S
C961 C952 1.390 . S
C961 H954 0.950 . S
C961 C958 1.387 . S
C962 C963 1.387 . S
C962 H966 0.950 . S
C962 C971 1.391 1_655 S
C963 C962 1.387 . S
C963 C965 1.387 . S
H964 C971 0.949 . S
C965 C963 1.387 . S
C965 C967 1.390 . S
C965 H969 0.950 . S
H966 C962 0.950 . S
C967 C965 1.390 . S
C967 C968 1.387 1_655 S
C967 H970 0.950 1_655 S
C968 C967 1.387 1_455 S
C968 C971 1.387 . S
H969 C965 0.950 . S
H970 C967 0.950 1_455 S
C971 C962 1.391 1_455 S
C971 H964 0.949 . S
C971 C968 1.387 . S
C972 C973 1.387 . S
C972 H976 0.950 . S
C972 C981 1.390 . S
C973 C972 1.387 . S
C973 C975 1.387 . S
H974 C981 0.950 . S
C975 C973 1.387 . S
C975 C977 1.390 . S
C975 H979 0.950 . S
H976 C972 0.950 . S
C977 C975 1.390 . S
C977 C978 1.387 . S
C977 H980 0.950 . S
C978 C977 1.387 . S
C978 C981 1.387 . S
H979 C975 0.950 . S
H980 C977 0.950 . S
C981 C972 1.390 . S
C981 H974 0.950 . S
C981 C978 1.387 . S
C982 C983 1.387 . S
C982 H986 0.950 . S
C982 C991 1.390 . S
C983 C982 1.387 . S
C983 C985 1.387 . S
H984 C991 0.950 . S
C985 C983 1.387 . S
C985 C987 1.390 . S
C985 H989 0.950 . S
H986 C982 0.950 . S
C987 C985 1.390 . S
C987 C988 1.387 . S
C987 H990 0.950 . S
C988 C987 1.387 . S
C988 C991 1.387 . S
H989 C985 0.950 . S
H990 C987 0.950 . S
C991 C982 1.390 . S
C991 H984 0.950 . S
C991 C988 1.387 . S
C992 C993 1.387 . S
C992 H996 0.950 . S
C992 C1001 1.390 1_455 S
C993 C992 1.387 . S
C993 C995 1.387 . S
H994 C1001 0.950 . S
C995 C993 1.387 . S
C995 C997 1.390 1_455 S
C995 H999 0.950 . S
H996 C992 0.950 . S
C997 C995 1.390 1_655 S
C997 C998 1.387 . S
C997 H1000 0.950 . S
C998 C997 1.387 . S
C998 C1001 1.387 . S
H999 C995 0.950 . S
H1000 C997 0.950 . S
C1001 C992 1.390 1_655 S
C1001 H994 0.950 . S
C1001 C998 1.387 . S
C1002 C1003 1.387 . S
C1002 H1006 0.950 . S
C1002 C1011 1.390 1_655 S
C1003 C1002 1.387 . S
C1003 C1005 1.387 . S
H1004 C1011 0.950 . S
C1005 C1003 1.387 . S
C1005 C1007 1.390 1_655 S
C1005 H1009 0.950 . S
H1006 C1002 0.950 . S
C1007 C1005 1.390 1_455 S
C1007 C1008 1.387 . S
C1007 H1010 0.950 . S
C1008 C1007 1.387 . S
C1008 C1011 1.387 . S
H1009 C1005 0.950 . S
H1010 C1007 0.950 . S
C1011 C1002 1.390 1_455 S
C1011 H1004 0.950 . S
C1011 C1008 1.387 . S
C1012 C1013 1.387 . S
C1012 H1016 0.950 . S
C1012 C1021 1.390 . S
C1013 C1012 1.387 . S
C1013 C1015 1.387 . S
H1014 C1021 0.950 . S
C1015 C1013 1.387 . S
C1015 C1017 1.390 . S
C1015 H1019 0.950 . S
H1016 C1012 0.950 . S
C1017 C1015 1.390 . S
C1017 C1018 1.387 . S
C1017 H1020 0.950 . S
C1018 C1017 1.387 . S
C1018 C1021 1.387 . S
H1019 C1015 0.950 . S
H1020 C1017 0.950 . S
C1021 C1012 1.390 . S
C1021 H1014 0.950 . S
C1021 C1018 1.387 . S
C1022 C1023 1.387 . S
C1022 H1026 0.950 . S
C1022 C1031 1.390 . S
C1023 C1022 1.387 . S
C1023 C1025 1.387 . S
H1024 C1031 0.950 . S
C1025 C1023 1.387 . S
C1025 C1027 1.390 . S
C1025 H1029 0.950 . S
H1026 C1022 0.950 . S
C1027 C1025 1.390 . S
C1027 C1028 1.387 . S
C1027 H1030 0.950 . S
C1028 C1027 1.387 . S
C1028 C1031 1.387 . S
H1029 C1025 0.950 . S
H1030 C1027 0.950 . S
C1031 C1022 1.390 . S
C1031 H1024 0.950 . S
C1031 C1028 1.387 . S
C1032 C1033 1.387 . S
C1032 H1036 0.950 . S
C1032 C1041 1.390 1_655 S
C1033 C1032 1.387 . S
C1033 C1035 1.387 . S
H1034 C1041 0.950 . S
C1035 C1033 1.387 . S
C1035 C1037 1.390 1_655 S
C1035 H1039 0.950 . S
H1036 C1032 0.950 . S
C1037 C1035 1.390 1_455 S
C1037 C1038 1.387 . S
C1037 H1040 0.950 . S
C1038 C1037 1.387 . S
C1038 C1041 1.387 . S
H1039 C1035 0.950 . S
H1040 C1037 0.950 . S
C1041 C1032 1.390 1_455 S
C1041 H1034 0.950 . S
C1041 C1038 1.387 . S
C1042 C1043 1.387 . S
C1042 H1046 0.950 . S
C1042 C1051 1.390 . S
C1043 C1042 1.387 . S
C1043 C1045 1.387 . S
H1044 C1051 0.950 . S
C1045 C1043 1.387 . S
C1045 C1047 1.390 . S
C1045 H1049 0.950 . S
H1046 C1042 0.950 . S
C1047 C1045 1.390 . S
C1047 C1048 1.387 . S
C1047 H1050 0.950 . S
C1048 C1047 1.387 . S
C1048 C1051 1.387 . S
H1049 C1045 0.950 . S
H1050 C1047 0.950 . S
C1051 C1042 1.390 . S
C1051 H1044 0.950 . S
C1051 C1048 1.387 . S
C1052 C1053 1.387 . S
C1052 H1056 0.950 . S
C1052 C1061 1.390 . S
C1053 C1052 1.387 . S
C1053 C1055 1.387 . S
H1054 C1061 0.950 . S
C1055 C1053 1.387 . S
C1055 C1057 1.390 . S
C1055 H1059 0.950 . S
H1056 C1052 0.950 . S
C1057 C1055 1.390 . S
C1057 C1058 1.387 . S
C1057 H1060 0.950 . S
C1058 C1057 1.387 . S
C1058 C1061 1.387 . S
H1059 C1055 0.950 . S
H1060 C1057 0.950 . S
C1061 C1052 1.390 . S
C1061 H1054 0.950 . S
C1061 C1058 1.387 . S
C1062 C1063 1.387 . S
C1062 H1066 0.950 . S
C1062 C1071 1.390 1_455 S
C1063 C1062 1.387 . S
C1063 C1065 1.387 . S
H1064 C1071 0.950 . S
C1065 C1063 1.387 . S
C1065 C1067 1.390 1_455 S
C1065 H1069 0.950 . S
H1066 C1062 0.950 . S
C1067 C1065 1.390 1_655 S
C1067 C1068 1.387 . S
C1067 H1070 0.950 . S
C1068 C1067 1.387 . S
C1068 C1071 1.387 . S
H1069 C1065 0.950 . S
H1070 C1067 0.950 . S
C1071 C1062 1.390 1_655 S
C1071 H1064 0.950 . S
C1071 C1068 1.387 . S
C1072 C1073 1.387 . S
C1072 H1076 0.950 . S
C1072 C1081 1.390 1_455 S
C1073 C1072 1.387 . S
C1073 C1075 1.387 . S
H1074 C1081 0.950 . S
C1075 C1073 1.387 . S
C1075 C1077 1.390 1_455 S
C1075 H1079 0.950 . S
H1076 C1072 0.950 . S
C1077 C1075 1.390 1_655 S
C1077 C1078 1.387 . S
C1077 H1080 0.950 . S
C1078 C1077 1.387 . S
C1078 C1081 1.387 . S
H1079 C1075 0.950 . S
H1080 C1077 0.950 . S
C1081 C1072 1.390 1_655 S
C1081 H1074 0.950 . S
C1081 C1078 1.387 . S
C1082 C1083 1.387 . S
C1082 H1086 0.950 . S
C1082 C1091 1.390 1_655 S
C1083 C1082 1.387 . S
C1083 C1085 1.387 . S
H1084 C1091 0.950 . S
C1085 C1083 1.387 . S
C1085 C1087 1.390 1_655 S
C1085 H1089 0.950 . S
H1086 C1082 0.950 . S
C1087 C1085 1.390 1_455 S
C1087 C1088 1.387 . S
C1087 H1090 0.950 . S
C1088 C1087 1.387 . S
C1088 C1091 1.387 . S
H1089 C1085 0.950 . S
H1090 C1087 0.950 . S
C1091 C1082 1.390 1_455 S
C1091 H1084 0.950 . S
C1091 C1088 1.387 . S
C1092 C1093 1.387 . S
C1092 H1096 0.950 . S
C1092 C1101 1.390 . S
C1093 C1092 1.387 . S
C1093 C1095 1.387 . S
H1094 C1101 0.950 . S
C1095 C1093 1.387 . S
C1095 C1097 1.390 . S
C1095 H1099 0.950 . S
H1096 C1092 0.950 . S
C1097 C1095 1.390 . S
C1097 C1098 1.387 . S
C1097 H1100 0.950 . S
C1098 C1097 1.387 . S
C1098 C1101 1.387 . S
H1099 C1095 0.950 . S
H1100 C1097 0.950 . S
C1101 C1092 1.390 . S
C1101 H1094 0.950 . S
C1101 C1098 1.387 . S
C1102 C1103 1.387 . S
C1102 H1106 0.950 . S
C1102 C1111 1.390 . S
C1103 C1102 1.387 . S
C1103 C1105 1.387 . S
H1104 C1111 0.950 . S
C1105 C1103 1.387 . S
C1105 C1107 1.390 . S
C1105 H1109 0.950 . S
H1106 C1102 0.950 . S
C1107 C1105 1.390 . S
C1107 C1108 1.387 . S
C1107 H1110 0.950 . S
C1108 C1107 1.387 . S
C1108 C1111 1.387 . S
H1109 C1105 0.950 . S
H1110 C1107 0.950 . S
C1111 C1102 1.390 . S
C1111 H1104 0.950 . S
C1111 C1108 1.387 . S
C1112 C1113 1.387 . S
C1112 H1116 0.950 . S
C1112 C1121 1.390 1_455 S
C1113 C1112 1.387 . S
C1113 C1115 1.387 . S
H1114 C1121 0.950 . S
C1115 C1113 1.387 . S
C1115 C1117 1.390 1_455 S
C1115 H1119 0.950 . S
H1116 C1112 0.950 . S
C1117 C1115 1.390 1_655 S
C1117 C1118 1.387 . S
C1117 H1120 0.950 . S
C1118 C1117 1.387 . S
C1118 C1121 1.387 . S
H1119 C1115 0.950 . S
H1120 C1117 0.950 . S
C1121 C1112 1.390 1_655 S
C1121 H1114 0.950 . S
C1121 C1118 1.387 . S
C1122 C1123 1.387 . S
C1122 H1126 0.950 . S
C1122 C1131 1.390 . S
C1123 C1122 1.387 . S
C1123 C1125 1.387 . S
H1124 C1131 0.950 . S
C1125 C1123 1.387 . S
C1125 C1127 1.390 . S
C1125 H1129 0.950 . S
H1126 C1122 0.950 . S
C1127 C1125 1.390 . S
C1127 C1128 1.387 . S
C1127 H1130 0.950 . S
C1128 C1127 1.387 . S
C1128 C1131 1.387 . S
H1129 C1125 0.950 . S
H1130 C1127 0.950 . S
C1131 C1122 1.390 . S
C1131 H1124 0.950 . S
C1131 C1128 1.387 . S
C1132 C1133 1.387 . S
C1132 H1136 0.950 . S
C1132 C1141 1.390 . S
C1133 C1132 1.387 . S
C1133 C1135 1.387 . S
H1134 C1141 0.950 . S
C1135 C1133 1.387 . S
C1135 C1137 1.390 . S
C1135 H1139 0.950 . S
H1136 C1132 0.950 . S
C1137 C1135 1.390 . S
C1137 C1138 1.387 . S
C1137 H1140 0.950 . S
C1138 C1137 1.387 . S
C1138 C1141 1.387 . S
H1139 C1135 0.950 . S
H1140 C1137 0.950 . S
C1141 C1132 1.390 . S
C1141 H1134 0.950 . S
C1141 C1138 1.387 . S
C1142 C1143 1.387 . S
C1142 H1146 0.950 . S
C1142 C1151 1.390 1_655 S
C1143 C1142 1.387 . S
C1143 C1145 1.387 . S
H1144 C1151 0.950 . S
C1145 C1143 1.387 . S
C1145 C1147 1.390 1_655 S
C1145 H1149 0.950 . S
H1146 C1142 0.950 . S
C1147 C1145 1.390 1_455 S
C1147 C1148 1.387 . S
C1147 H1150 0.950 . S
C1148 C1147 1.387 . S
C1148 C1151 1.387 . S
H1149 C1145 0.950 . S
H1150 C1147 0.950 . S
C1151 C1142 1.390 1_455 S
C1151 H1144 0.950 . S
C1151 C1148 1.387 . S
C1152 C1153 1.387 . S
C1152 H1156 0.950 . S
C1152 C1161 1.390 . S
C1153 C1152 1.387 . S
C1153 C1155 1.387 . S
H1154 C1161 0.950 . S
C1155 C1153 1.387 . S
C1155 C1157 1.390 . S
C1155 H1159 0.950 . S
H1156 C1152 0.950 . S
C1157 C1155 1.390 . S
C1157 C1158 1.387 . S
C1157 H1160 0.950 . S
C1158 C1157 1.387 . S
C1158 C1161 1.387 . S
H1159 C1155 0.950 . S
H1160 C1157 0.950 . S
C1161 C1152 1.390 . S
C1161 H1154 0.950 . S
C1161 C1158 1.387 . S
C1162 C1163 1.387 1_565 S
C1162 H1166 0.950 . S
C1162 C1171 1.390 1_655 S
C1163 C1162 1.387 1_545 S
C1163 C1165 1.387 . S
H1164 C1171 0.950 . S
C1165 C1163 1.387 . S
C1165 C1167 1.390 1_655 S
C1165 H1169 0.950 . S
H1166 C1162 0.950 . S
C1167 C1165 1.390 1_455 S
C1167 C1168 1.387 1_545 S
C1167 H1170 0.950 . S
C1168 C1167 1.387 1_565 S
C1168 C1171 1.387 . S
H1169 C1165 0.950 . S
H1170 C1167 0.950 . S
C1171 C1162 1.390 1_455 S
C1171 H1164 0.950 . S
C1171 C1168 1.387 . S
C1172 C1173 1.387 . S
C1172 H1176 0.950 . S
C1172 C1181 1.390 . S
C1173 C1172 1.387 . S
C1173 C1175 1.387 . S
H1174 C1181 0.950 . S
C1175 C1173 1.387 . S
C1175 C1177 1.390 . S
C1175 H1179 0.950 . S
H1176 C1172 0.950 . S
C1177 C1175 1.390 . S
C1177 C1178 1.387 . S
C1177 H1180 0.950 . S
C1178 C1177 1.387 . S
C1178 C1181 1.387 . S
H1179 C1175 0.950 . S
H1180 C1177 0.950 . S
C1181 C1172 1.390 . S
C1181 H1174 0.950 . S
C1181 C1178 1.387 . S
C1182 C1183 1.387 1_565 S
C1182 H1186 0.950 . S
C1182 C1191 1.390 1_554 S
C1183 C1182 1.387 1_545 S
C1183 C1185 1.387 . S
H1184 C1191 0.950 . S
C1185 C1183 1.387 . S
C1185 C1187 1.390 1_554 S
C1185 H1189 0.950 . S
H1186 C1182 0.950 . S
C1187 C1185 1.390 1_556 S
C1187 C1188 1.387 1_545 S
C1187 H1190 0.950 . S
C1188 C1187 1.387 1_565 S
C1188 C1191 1.387 . S
H1189 C1185 0.950 . S
H1190 C1187 0.950 . S
C1191 C1182 1.390 1_556 S
C1191 H1184 0.950 . S
C1191 C1188 1.387 . S
C1192 C1193 1.387 . S
C1192 H1196 0.950 . S
C1192 C1201 1.390 . S
C1193 C1192 1.387 . S
C1193 C1195 1.387 . S
H1194 C1201 0.950 . S
C1195 C1193 1.387 . S
C1195 C1197 1.390 . S
C1195 H1199 0.950 . S
H1196 C1192 0.950 . S
C1197 C1195 1.390 . S
C1197 C1198 1.387 . S
C1197 H1200 0.950 . S
C1198 C1197 1.387 . S
C1198 C1201 1.387 . S
H1199 C1195 0.950 . S
H1200 C1197 0.950 . S
C1201 C1192 1.390 . S
C1201 H1194 0.950 . S
C1201 C1198 1.387 . S
C1202 C1203 1.387 1_565 S
C1202 H1206 0.950 . S
C1202 C1211 1.390 . S
C1203 C1202 1.387 1_545 S
C1203 C1205 1.387 . S
H1204 C1211 0.950 . S
C1205 C1203 1.387 . S
C1205 C1207 1.390 . S
C1205 H1209 0.950 . S
H1206 C1202 0.950 . S
C1207 C1205 1.390 . S
C1207 C1208 1.387 1_545 S
C1207 H1210 0.950 . S
C1208 C1207 1.387 1_565 S
C1208 C1211 1.387 . S
H1209 C1205 0.950 . S
H1210 C1207 0.950 . S
C1211 C1202 1.390 . S
C1211 H1204 0.950 . S
C1211 C1208 1.387 . S
C1212 C1213 1.387 . S
C1212 H1216 0.950 . S
C1212 C1221 1.390 . S
C1213 C1212 1.387 . S
C1213 C1215 1.387 . S
H1214 C1221 0.950 . S
C1215 C1213 1.387 . S
C1215 C1217 1.390 . S
C1215 H1219 0.950 . S
H1216 C1212 0.950 . S
C1217 C1215 1.390 . S
C1217 C1218 1.387 . S
C1217 H1220 0.950 . S
C1218 C1217 1.387 . S
C1218 C1221 1.387 . S
H1219 C1215 0.950 . S
H1220 C1217 0.950 . S
C1221 C1212 1.390 . S
C1221 H1214 0.950 . S
C1221 C1218 1.387 . S
C1222 C1223 1.387 1_655 S
C1222 H1226 0.950 . S
C1222 C1231 1.390 1_545 S
C1223 C1222 1.387 1_455 S
C1223 C1225 1.387 1_556 S
H1224 C1231 0.950 . S
C1225 C1223 1.387 1_554 S
C1225 C1227 1.390 1_545 S
C1225 H1229 0.950 . S
H1226 C1222 0.950 . S
C1227 C1225 1.390 1_565 S
C1227 C1228 1.387 1_455 S
C1227 H1230 0.950 . S
C1228 C1227 1.387 1_655 S
C1228 C1231 1.387 1_554 S
H1229 C1225 0.950 . S
H1230 C1227 0.950 . S
C1231 C1222 1.390 1_565 S
C1231 H1224 0.950 . S
C1231 C1228 1.387 1_556 S
C1232 C1233 1.387 . S
C1232 H1236 0.950 . S
C1232 C1241 1.390 . S
C1233 C1232 1.387 . S
C1233 C1235 1.387 . S
H1234 C1241 0.950 . S
C1235 C1233 1.387 . S
C1235 C1237 1.390 . S
C1235 H1239 0.950 . S
H1236 C1232 0.950 . S
C1237 C1235 1.390 . S
C1237 C1238 1.387 . S
C1237 H1240 0.950 . S
C1238 C1237 1.387 . S
C1238 C1241 1.387 . S
H1239 C1235 0.950 . S
H1240 C1237 0.950 . S
C1241 C1232 1.390 . S
C1241 H1234 0.950 . S
C1241 C1238 1.387 . S
C1242 C1243 1.387 . S
C1242 H1246 0.950 . S
C1242 C1251 1.390 . S
C1243 C1242 1.387 . S
C1243 C1245 1.387 . S
H1244 C1251 0.950 . S
C1245 C1243 1.387 . S
C1245 C1247 1.390 . S
C1245 H1249 0.950 . S
H1246 C1242 0.950 . S
C1247 C1245 1.390 . S
C1247 C1248 1.387 . S
C1247 H1250 0.950 . S
C1248 C1247 1.387 . S
C1248 C1251 1.387 . S
H1249 C1245 0.950 . S
H1250 C1247 0.950 . S
C1251 C1242 1.390 . S
C1251 H1244 0.950 . S
C1251 C1248 1.387 . S
C1252 C1253 1.387 . S
C1252 H1256 0.950 . S
C1252 C1261 1.390 . S
C1253 C1252 1.387 . S
C1253 C1255 1.387 . S
H1254 C1261 0.950 . S
C1255 C1253 1.387 . S
C1255 C1257 1.390 . S
C1255 H1259 0.950 . S
H1256 C1252 0.950 . S
C1257 C1255 1.390 . S
C1257 C1258 1.387 . S
C1257 H1260 0.950 . S
C1258 C1257 1.387 . S
C1258 C1261 1.387 . S
H1259 C1255 0.950 . S
H1260 C1257 0.950 . S
C1261 C1252 1.390 . S
C1261 H1254 0.950 . S
C1261 C1258 1.387 . S
C1262 C1263 1.387 . S
C1262 H1266 0.950 . S
C1262 C1271 1.390 . S
C1263 C1262 1.387 . S
C1263 C1265 1.387 . S
H1264 C1271 0.950 . S
C1265 C1263 1.387 . S
C1265 C1267 1.390 . S
C1265 H1269 0.950 . S
H1266 C1262 0.950 . S
C1267 C1265 1.390 . S
C1267 C1268 1.387 . S
C1267 H1270 0.950 . S
C1268 C1267 1.387 . S
C1268 C1271 1.387 . S
H1269 C1265 0.950 . S
H1270 C1267 0.950 . S
C1271 C1262 1.390 . S
C1271 H1264 0.950 . S
C1271 C1268 1.387 . S
C1272 C1273 1.387 . S
C1272 H1276 0.950 . S
C1272 C1281 1.390 . S
C1273 C1272 1.387 . S
C1273 C1275 1.387 1_554 S
H1274 C1281 0.950 . S
C1275 C1273 1.387 1_556 S
C1275 C1277 1.390 . S
C1275 H1279 0.950 . S
H1276 C1272 0.950 . S
C1277 C1275 1.390 . S
C1277 C1278 1.387 . S
C1277 H1280 0.950 . S
C1278 C1277 1.387 . S
C1278 C1281 1.387 1_556 S
H1279 C1275 0.950 . S
H1280 C1277 0.950 . S
C1281 C1272 1.390 . S
C1281 H1274 0.950 . S
C1281 C1278 1.387 1_554 S
C1282 C1283 1.387 . S
C1282 H1286 0.950 . S
C1282 C1291 1.390 1_655 S
C1283 C1282 1.387 . S
C1283 C1285 1.387 . S
H1284 C1291 0.950 . S
C1285 C1283 1.387 . S
C1285 C1287 1.390 1_655 S
C1285 H1289 0.950 . S
H1286 C1282 0.950 . S
C1287 C1285 1.390 1_455 S
C1287 C1288 1.387 . S
C1287 H1290 0.950 . S
C1288 C1287 1.387 . S
C1288 C1291 1.387 . S
H1289 C1285 0.950 . S
H1290 C1287 0.950 . S
C1291 C1282 1.390 1_455 S
C1291 H1284 0.950 . S
C1291 C1288 1.387 . S
C1292 C1293 1.387 . S
C1292 H1296 0.950 . S
C1292 C1301 1.390 1_455 S
C1293 C1292 1.387 . S
C1293 C1295 1.387 1_554 S
H1294 C1301 0.950 . S
C1295 C1293 1.387 1_556 S
C1295 C1297 1.390 1_455 S
C1295 H1299 0.950 . S
H1296 C1292 0.950 . S
C1297 C1295 1.390 1_655 S
C1297 C1298 1.387 . S
C1297 H1300 0.950 . S
C1298 C1297 1.387 . S
C1298 C1301 1.387 1_556 S
H1299 C1295 0.950 . S
H1300 C1297 0.950 . S
C1301 C1292 1.390 1_655 S
C1301 H1294 0.950 . S
C1301 C1298 1.387 1_554 S
C1302 C1303 1.387 . S
C1302 H1306 0.950 . S
C1302 C1311 1.390 . S
C1303 C1302 1.387 . S
C1303 C1305 1.387 . S
H1304 C1311 0.950 . S
C1305 C1303 1.387 . S
C1305 C1307 1.390 . S
C1305 H1309 0.950 . S
H1306 C1302 0.950 . S
C1307 C1305 1.390 . S
C1307 C1308 1.387 . S
C1307 H1310 0.950 . S
C1308 C1307 1.387 . S
C1308 C1311 1.387 . S
H1309 C1305 0.950 . S
H1310 C1307 0.950 . S
C1311 C1302 1.390 . S
C1311 H1304 0.950 . S
C1311 C1308 1.387 . S
C1312 C1313 1.387 . S
C1312 H1316 0.950 . S
C1312 C1321 1.390 1_545 S
C1313 C1312 1.387 . S
C1313 C1315 1.387 . S
H1314 C1321 0.950 . S
C1315 C1313 1.387 . S
C1315 C1317 1.390 . S
C1315 H1319 0.950 . S
H1316 C1312 0.950 . S
C1317 C1315 1.390 . S
C1317 C1318 1.387 . S
C1317 H1320 0.950 . S
C1318 C1317 1.387 . S
C1318 C1321 1.387 1_545 S
H1319 C1315 0.950 . S
H1320 C1317 0.950 . S
C1321 C1312 1.390 1_565 S
C1321 H1314 0.950 . S
C1321 C1318 1.387 1_565 S
C1322 C1323 1.387 . S
C1322 H1326 0.950 . S
C1322 C1331 1.390 . S
C1323 C1322 1.387 . S
C1323 C1325 1.387 . S
H1324 C1331 0.950 1_565 S
C1325 C1323 1.387 . S
C1325 C1327 1.390 . S
C1325 H1329 0.950 . S
H1326 C1322 0.950 . S
C1327 C1325 1.390 . S
C1327 C1328 1.387 . S
C1327 H1330 0.950 . S
C1328 C1327 1.387 . S
C1328 C1331 1.387 . S
H1329 C1325 0.950 . S
H1330 C1327 0.950 . S
C1331 C1322 1.390 . S
C1331 H1324 0.950 1_545 S
C1331 C1328 1.387 . S
C1332 C1333 1.387 . S
C1332 H1336 0.950 . S
C1332 C1341 1.390 . S
C1333 C1332 1.387 . S
C1333 C1335 1.387 . S
H1334 C1341 0.950 . S
C1335 C1333 1.387 . S
C1335 C1337 1.390 . S
C1335 H1339 0.950 1_565 S
H1336 C1332 0.950 . S
C1337 C1335 1.390 . S
C1337 C1338 1.387 . S
C1337 H1340 0.950 . S
C1338 C1337 1.387 . S
C1338 C1341 1.387 . S
H1339 C1335 0.950 1_545 S
H1340 C1337 0.950 . S
C1341 C1332 1.390 . S
C1341 H1334 0.950 . S
C1341 C1338 1.387 . S
C1342 C1343 1.387 . S
C1342 H1346 0.950 . S
C1342 C1351 1.390 . S
C1343 C1342 1.387 . S
C1343 C1345 1.387 . S
H1344 C1351 0.950 . S
C1345 C1343 1.387 . S
C1345 C1347 1.390 . S
C1345 H1349 0.950 . S
H1346 C1342 0.950 . S
C1347 C1345 1.390 . S
C1347 C1348 1.387 . S
C1347 H1350 0.950 1_565 S
C1348 C1347 1.387 . S
C1348 C1351 1.387 . S
H1349 C1345 0.950 . S
H1350 C1347 0.950 1_545 S
C1351 C1342 1.390 . S
C1351 H1344 0.950 . S
C1351 C1348 1.387 . S
C1352 C1353 1.387 . S
C1352 H1356 0.950 . S
C1352 C1361 1.390 . S
C1353 C1352 1.387 . S
C1353 C1355 1.387 . S
H1354 C1361 0.950 . S
C1355 C1353 1.387 . S
C1355 C1357 1.390 1_565 S
C1355 H1359 0.950 . S
H1356 C1352 0.950 . S
C1357 C1355 1.390 1_545 S
C1357 C1358 1.387 1_545 S
C1357 H1360 0.950 . S
C1358 C1357 1.387 1_565 S
C1358 C1361 1.387 . S
H1359 C1355 0.950 . S
H1360 C1357 0.950 . S
C1361 C1352 1.390 . S
C1361 H1354 0.950 . S
C1361 C1358 1.387 . S
C1362 C1363 1.387 . S
C1362 H1366 0.950 . S
C1362 C1371 1.390 . S
C1363 C1362 1.387 . S
C1363 C1365 1.387 . S
H1364 C1371 0.950 . S
C1365 C1363 1.387 . S
C1365 C1367 1.390 . S
C1365 H1369 0.950 1_565 S
H1366 C1362 0.950 . S
C1367 C1365 1.390 . S
C1367 C1368 1.387 . S
C1367 H1370 0.950 . S
C1368 C1367 1.387 . S
C1368 C1371 1.387 . S
H1369 C1365 0.950 1_545 S
H1370 C1367 0.950 . S
C1371 C1362 1.390 . S
C1371 H1364 0.950 . S
C1371 C1368 1.387 . S
C1372 C1373 1.389 . S
C1372 H1376 0.942 1_545 S
C1372 C1381 1.396 . S
C1373 C1372 1.389 . S
C1373 C1375 1.387 . S
H1374 C1381 0.950 . S
C1375 C1373 1.387 . S
C1375 C1377 1.390 . S
C1375 H1379 0.950 . S
H1376 C1372 0.942 1_565 S
C1377 C1375 1.390 . S
C1377 C1378 1.387 . S
C1377 H1380 0.950 . S
C1378 C1377 1.387 . S
C1378 C1381 1.387 . S
H1379 C1375 0.950 . S
H1380 C1377 0.950 . S
C1381 C1372 1.396 . S
C1381 H1374 0.950 . S
C1381 C1378 1.387 . S
C1382 C1383 1.387 1_565 S
C1382 H1386 0.950 . S
C1382 C1391 1.390 1_565 S
C1383 C1382 1.387 1_545 S
C1383 C1385 1.387 . S
H1384 C1391 0.950 . S
C1385 C1383 1.387 . S
C1385 C1387 1.390 . S
C1385 H1389 0.950 . S
H1386 C1382 0.950 . S
C1387 C1385 1.390 . S
C1387 C1388 1.387 . S
C1387 H1390 0.950 . S
C1388 C1387 1.387 . S
C1388 C1391 1.387 . S
H1389 C1385 0.950 . S
H1390 C1387 0.950 . S
C1391 C1382 1.390 1_545 S
C1391 H1384 0.950 . S
C1391 C1388 1.387 . S
C1392 C1393 1.387 . S
C1392 H1396 0.950 . S
C1392 C1401 1.390 . S
C1393 C1392 1.387 . S
C1393 C1395 1.387 . S
H1394 C1401 0.950 . S
C1395 C1393 1.387 . S
C1395 C1397 1.390 . S
C1395 H1399 0.950 . S
H1396 C1392 0.950 . S
C1397 C1395 1.390 . S
C1397 C1398 1.387 . S
C1397 H1400 0.950 . S
C1398 C1397 1.387 . S
C1398 C1401 1.387 . S
H1399 C1395 0.950 . S
H1400 C1397 0.950 . S
C1401 C1392 1.390 . S
C1401 H1394 0.950 . S
C1401 C1398 1.387 . S
C1402 C1403 1.387 . S
C1402 H1406 0.950 . S
C1402 C1411 1.390 . S
C1403 C1402 1.387 . S
C1403 C1405 1.387 . S
H1404 C1411 0.950 . S
C1405 C1403 1.387 . S
C1405 C1407 1.390 . S
C1405 H1409 0.950 . S
H1406 C1402 0.950 . S
C1407 C1405 1.390 . S
C1407 C1408 1.387 . S
C1407 H1410 0.950 . S
C1408 C1407 1.387 . S
C1408 C1411 1.387 . S
H1409 C1405 0.950 . S
H1410 C1407 0.950 . S
C1411 C1402 1.390 . S
C1411 H1404 0.950 . S
C1411 C1408 1.387 . S
C1412 C1413 1.387 . S
C1412 H1416 0.950 . S
C1412 C1421 1.390 . S
C1413 C1412 1.387 . S
C1413 C1415 1.387 . S
H1414 C1421 0.950 . S
C1415 C1413 1.387 . S
C1415 C1417 1.390 . S
C1415 H1419 0.950 . S
H1416 C1412 0.950 . S
C1417 C1415 1.390 . S
C1417 C1418 1.387 . S
C1417 H1420 0.950 . S
C1418 C1417 1.387 . S
C1418 C1421 1.387 . S
H1419 C1415 0.950 . S
H1420 C1417 0.950 . S
C1421 C1412 1.390 . S
C1421 H1414 0.950 . S
C1421 C1418 1.387 . S
C1422 C1423 1.387 . S
C1422 H1426 0.950 . S
C1422 C1431 1.390 . S
C1423 C1422 1.387 . S
C1423 C1425 1.387 . S
H1424 C1431 0.950 . S
C1425 C1423 1.387 . S
C1425 C1427 1.390 . S
C1425 H1429 0.950 . S
H1426 C1422 0.950 . S
C1427 C1425 1.390 . S
C1427 C1428 1.387 . S
C1427 H1430 0.950 . S
C1428 C1427 1.387 . S
C1428 C1431 1.387 . S
H1429 C1425 0.950 . S
H1430 C1427 0.950 . S
C1431 C1422 1.390 . S
C1431 H1424 0.950 . S
C1431 C1428 1.387 . S
C1432 C1433 1.387 . S
C1432 H1436 0.950 . S
C1432 C1441 1.390 . S
C1433 C1432 1.387 . S
C1433 C1435 1.387 . S
H1434 C1441 0.950 . S
C1435 C1433 1.387 . S
C1435 C1437 1.390 . S
C1435 H1439 0.950 . S
H1436 C1432 0.950 . S
C1437 C1435 1.390 . S
C1437 C1438 1.387 . S
C1437 H1440 0.950 . S
C1438 C1437 1.387 . S
C1438 C1441 1.387 . S
H1439 C1435 0.950 . S
H1440 C1437 0.950 . S
C1441 C1432 1.390 . S
C1441 H1434 0.950 . S
C1441 C1438 1.387 . S
C1442 C1443 1.387 . S
C1442 H1446 0.950 . S
C1442 C1451 1.390 . S
C1443 C1442 1.387 . S
C1443 C1445 1.387 . S
H1444 C1451 0.950 . S
C1445 C1443 1.387 . S
C1445 C1447 1.390 . S
C1445 H1449 0.950 . S
H1446 C1442 0.950 . S
C1447 C1445 1.390 . S
C1447 C1448 1.387 . S
C1447 H1450 0.950 . S
C1448 C1447 1.387 . S
C1448 C1451 1.387 . S
H1449 C1445 0.950 . S
H1450 C1447 0.950 . S
C1451 C1442 1.390 . S
C1451 H1444 0.950 . S
C1451 C1448 1.387 . S
C1452 C1453 1.387 . S
C1452 H1456 0.950 . S
C1452 C1461 1.390 . S
C1453 C1452 1.387 . S
C1453 C1455 1.387 . S
H1454 C1461 0.950 . S
C1455 C1453 1.387 . S
C1455 C1457 1.390 . S
C1455 H1459 0.950 . S
H1456 C1452 0.950 . S
C1457 C1455 1.390 . S
C1457 C1458 1.387 . S
C1457 H1460 0.950 . S
C1458 C1457 1.387 . S
C1458 C1461 1.387 . S
H1459 C1455 0.950 . S
H1460 C1457 0.950 . S
C1461 C1452 1.390 . S
C1461 H1454 0.950 . S
C1461 C1458 1.387 . S
C1462 C1463 1.387 . S
C1462 H1466 0.950 . S
C1462 C1471 1.390 . S
C1463 C1462 1.387 . S
C1463 C1465 1.387 . S
H1464 C1471 0.950 . S
C1465 C1463 1.387 . S
C1465 C1467 1.390 . S
C1465 H1469 0.950 . S
H1466 C1462 0.950 . S
C1467 C1465 1.390 . S
C1467 C1468 1.387 . S
C1467 H1470 0.950 . S
C1468 C1467 1.387 . S
C1468 C1471 1.387 . S
H1469 C1465 0.950 . S
H1470 C1467 0.950 . S
C1471 C1462 1.390 . S
C1471 H1464 0.950 . S
C1471 C1468 1.387 . S
C1472 C1473 1.387 . S
C1472 H1476 0.950 . S
C1472 C1481 1.390 1_545 S
C1473 C1472 1.387 . S
C1473 C1475 1.387 . S
H1474 C1481 0.950 . S
C1475 C1473 1.387 . S
C1475 C1477 1.390 1_545 S
C1475 H1479 0.950 . S
H1476 C1472 0.950 . S
C1477 C1475 1.390 1_565 S
C1477 C1478 1.387 . S
C1477 H1480 0.950 . S
C1478 C1477 1.387 . S
C1478 C1481 1.387 . S
H1479 C1475 0.950 . S
H1480 C1477 0.950 . S
C1481 C1472 1.390 1_565 S
C1481 H1474 0.950 . S
C1481 C1478 1.387 . S
C1482 C1483 1.387 . S
C1482 H1486 0.950 . S
C1482 C1491 1.390 . S
C1483 C1482 1.387 . S
C1483 C1485 1.387 . S
H1484 C1491 0.950 . S
C1485 C1483 1.387 . S
C1485 C1487 1.390 . S
C1485 H1489 0.950 . S
H1486 C1482 0.950 . S
C1487 C1485 1.390 . S
C1487 C1488 1.387 . S
C1487 H1490 0.950 . S
C1488 C1487 1.387 . S
C1488 C1491 1.387 . S
H1489 C1485 0.950 . S
H1490 C1487 0.950 . S
C1491 C1482 1.390 . S
C1491 H1484 0.950 . S
C1491 C1488 1.387 . S
C1492 C1493 1.387 . S
C1492 H1496 0.950 . S
C1492 C1501 1.390 1_545 S
C1493 C1492 1.387 . S
C1493 C1495 1.387 . S
H1494 C1501 0.950 . S
C1495 C1493 1.387 . S
C1495 C1497 1.390 1_545 S
C1495 H1499 0.950 . S
H1496 C1492 0.950 . S
C1497 C1495 1.390 1_565 S
C1497 C1498 1.387 . S
C1497 H1500 0.950 . S
C1498 C1497 1.387 . S
C1498 C1501 1.387 . S
H1499 C1495 0.950 . S
H1500 C1497 0.950 . S
C1501 C1492 1.390 1_565 S
C1501 H1494 0.950 . S
C1501 C1498 1.387 . S
C1502 C1503 1.387 . S
C1502 H1506 0.950 . S
C1502 C1511 1.390 1_556 S
C1503 C1502 1.387 . S
C1503 C1505 1.387 . S
H1504 C1511 0.950 . S
C1505 C1503 1.387 . S
C1505 C1507 1.390 1_556 S
C1505 H1509 0.950 . S
H1506 C1502 0.950 . S
C1507 C1505 1.390 1_554 S
C1507 C1508 1.387 . S
C1507 H1510 0.950 . S
C1508 C1507 1.387 . S
C1508 C1511 1.387 . S
H1509 C1505 0.950 . S
H1510 C1507 0.950 . S
C1511 C1502 1.390 1_554 S
C1511 H1504 0.950 . S
C1511 C1508 1.387 . S
C1512 C1513 1.387 . S
C1512 H1516 0.950 . S
C1512 C1521 1.390 1_565 S
C1513 C1512 1.387 . S
C1513 C1515 1.387 . S
H1514 C1521 0.950 . S
C1515 C1513 1.387 . S
C1515 C1517 1.390 1_565 S
C1515 H1519 0.950 . S
H1516 C1512 0.950 . S
C1517 C1515 1.390 1_545 S
C1517 C1518 1.387 . S
C1517 H1520 0.950 . S
C1518 C1517 1.387 . S
C1518 C1521 1.387 . S
H1519 C1515 0.950 . S
H1520 C1517 0.950 . S
C1521 C1512 1.390 1_545 S
C1521 H1514 0.950 . S
C1521 C1518 1.387 . S
C1522 C1523 1.387 . S
C1522 H1526 0.950 . S
C1522 C1531 1.390 . S
C1523 C1522 1.387 . S
C1523 C1525 1.387 . S
H1524 C1531 0.950 . S
C1525 C1523 1.387 . S
C1525 C1527 1.390 . S
C1525 H1529 0.950 . S
H1526 C1522 0.950 . S
C1527 C1525 1.390 . S
C1527 C1528 1.387 . S
C1527 H1530 0.950 . S
C1528 C1527 1.387 . S
C1528 C1531 1.387 . S
H1529 C1525 0.950 . S
H1530 C1527 0.950 . S
C1531 C1522 1.390 . S
C1531 H1524 0.950 . S
C1531 C1528 1.387 . S
C1532 C1533 1.387 . S
C1532 H1536 0.950 . S
C1532 C1541 1.390 1_565 S
C1533 C1532 1.387 . S
C1533 C1535 1.387 . S
H1534 C1541 0.950 . S
C1535 C1533 1.387 . S
C1535 C1537 1.390 1_565 S
C1535 H1539 0.950 . S
H1536 C1532 0.950 . S
C1537 C1535 1.390 1_545 S
C1537 C1538 1.387 . S
C1537 H1540 0.950 . S
C1538 C1537 1.387 . S
C1538 C1541 1.387 . S
H1539 C1535 0.950 . S
H1540 C1537 0.950 . S
C1541 C1532 1.390 1_545 S
C1541 H1534 0.950 . S
C1541 C1538 1.387 . S
C1542 C1543 1.387 . S
C1542 H1546 0.950 . S
C1542 C1551 1.390 1_554 S
C1543 C1542 1.387 . S
C1543 C1545 1.387 . S
H1544 C1551 0.950 . S
C1545 C1543 1.387 . S
C1545 C1547 1.390 1_554 S
C1545 H1549 0.950 . S
H1546 C1542 0.950 . S
C1547 C1545 1.390 1_556 S
C1547 C1548 1.387 . S
C1547 H1550 0.950 . S
C1548 C1547 1.387 . S
C1548 C1551 1.387 . S
H1549 C1545 0.950 . S
H1550 C1547 0.950 . S
C1551 C1542 1.390 1_556 S
C1551 H1544 0.950 . S
C1551 C1548 1.387 . S
C1552 C1553 1.387 . S
C1552 H1556 0.950 . S
C1552 C1561 1.390 . S
C1553 C1552 1.387 . S
C1553 C1555 1.387 . S
H1554 C1561 0.950 . S
C1555 C1553 1.387 . S
C1555 C1557 1.390 . S
C1555 H1559 0.950 . S
H1556 C1552 0.950 . S
C1557 C1555 1.390 . S
C1557 C1558 1.387 . S
C1557 H1560 0.950 . S
C1558 C1557 1.387 . S
C1558 C1561 1.387 . S
H1559 C1555 0.950 . S
H1560 C1557 0.950 . S
C1561 C1552 1.390 . S
C1561 H1554 0.950 . S
C1561 C1558 1.387 . S
C1562 C1563 1.387 . S
C1562 H1566 0.950 . S
C1562 C1571 1.390 1_556 S
C1563 C1562 1.387 . S
C1563 C1565 1.387 . S
H1564 C1571 0.950 . S
C1565 C1563 1.387 . S
C1565 C1567 1.390 1_556 S
C1565 H1569 0.950 . S
H1566 C1562 0.950 . S
C1567 C1565 1.390 1_554 S
C1567 C1568 1.387 . S
C1567 H1570 0.950 . S
C1568 C1567 1.387 . S
C1568 C1571 1.387 . S
H1569 C1565 0.950 . S
H1570 C1567 0.950 . S
C1571 C1562 1.390 1_554 S
C1571 H1564 0.950 . S
C1571 C1568 1.387 . S
C1572 C1573 1.387 . S
C1572 H1576 0.950 . S
C1572 C1581 1.390 . S
C1573 C1572 1.387 . S
C1573 C1575 1.387 . S
H1574 C1581 0.950 . S
C1575 C1573 1.387 . S
C1575 C1577 1.390 . S
C1575 H1579 0.950 . S
H1576 C1572 0.950 . S
C1577 C1575 1.390 . S
C1577 C1578 1.387 . S
C1577 H1580 0.950 . S
C1578 C1577 1.387 . S
C1578 C1581 1.387 . S
H1579 C1575 0.950 . S
H1580 C1577 0.950 . S
C1581 C1572 1.390 . S
C1581 H1574 0.950 . S
C1581 C1578 1.387 . S
C1582 C1583 1.387 . S
C1582 H1586 0.950 . S
C1582 C1591 1.390 . S
C1583 C1582 1.387 . S
C1583 C1585 1.387 . S
H1584 C1591 0.950 . S
C1585 C1583 1.387 . S
C1585 C1587 1.390 . S
C1585 H1589 0.950 . S
H1586 C1582 0.950 . S
C1587 C1585 1.390 . S
C1587 C1588 1.387 . S
C1587 H1590 0.950 . S
C1588 C1587 1.387 . S
C1588 C1591 1.387 . S
H1589 C1585 0.950 . S
H1590 C1587 0.950 . S
C1591 C1582 1.390 . S
C1591 H1584 0.950 . S
C1591 C1588 1.387 . S
C1592 C1593 1.387 . S
C1592 H1596 0.950 . S
C1592 C1601 1.390 . S
C1593 C1592 1.387 . S
C1593 C1595 1.387 . S
H1594 C1601 0.950 . S
C1595 C1593 1.387 . S
C1595 C1597 1.390 . S
C1595 H1599 0.950 . S
H1596 C1592 0.950 . S
C1597 C1595 1.390 . S
C1597 C1598 1.387 . S
C1597 H1600 0.950 . S
C1598 C1597 1.387 . S
C1598 C1601 1.387 . S
H1599 C1595 0.950 . S
H1600 C1597 0.950 . S
C1601 C1592 1.390 . S
C1601 H1594 0.950 . S
C1601 C1598 1.387 . S
C1602 C1603 1.387 . S
C1602 H1606 0.950 . S
C1602 C1611 1.390 1_556 S
C1603 C1602 1.387 . S
C1603 C1605 1.387 . S
H1604 C1611 0.950 . S
C1605 C1603 1.387 . S
C1605 C1607 1.390 1_556 S
C1605 H1609 0.950 . S
H1606 C1602 0.950 . S
C1607 C1605 1.390 1_554 S
C1607 C1608 1.387 . S
C1607 H1610 0.950 . S
C1608 C1607 1.387 . S
C1608 C1611 1.387 . S
H1609 C1605 0.950 . S
H1610 C1607 0.950 . S
C1611 C1602 1.390 1_554 S
C1611 H1604 0.950 . S
C1611 C1608 1.387 . S
C1612 C1613 1.387 . S
C1612 H1616 0.950 . S
C1612 C1621 1.390 . S
C1613 C1612 1.387 . S
C1613 C1615 1.387 . S
H1614 C1621 0.950 . S
C1615 C1613 1.387 . S
C1615 C1617 1.390 . S
C1615 H1619 0.950 . S
H1616 C1612 0.950 . S
C1617 C1615 1.390 . S
C1617 C1618 1.387 . S
C1617 H1620 0.950 . S
C1618 C1617 1.387 . S
C1618 C1621 1.387 . S
H1619 C1615 0.950 . S
H1620 C1617 0.950 . S
C1621 C1612 1.390 . S
C1621 H1614 0.950 . S
C1621 C1618 1.387 . S
C1622 C1623 1.387 . S
C1622 H1626 0.950 . S
C1622 C1631 1.390 . S
C1623 C1622 1.387 . S
C1623 C1625 1.387 . S
H1624 C1631 0.950 . S
C1625 C1623 1.387 . S
C1625 C1627 1.390 . S
C1625 H1629 0.950 . S
H1626 C1622 0.950 . S
C1627 C1625 1.390 . S
C1627 C1628 1.387 . S
C1627 H1630 0.950 . S
C1628 C1627 1.387 . S
C1628 C1631 1.387 . S
H1629 C1625 0.950 . S
H1630 C1627 0.950 . S
C1631 C1622 1.390 . S
C1631 H1624 0.950 . S
C1631 C1628 1.387 . S
C673 C3 1.043 . S
C678 C570 1.121 . S
C683 C37 1.044 . S
C688 C171 1.115 . S
C693 C45 1.040 . S
C698 C541 1.117 . S
C703 C213 1.116 . S
C708 C66 1.045 . S
C713 C100 1.046 . S
C718 C625 1.120 . S
C723 C310 1.116 . S
C728 C121 1.045 . S
C733 C667 1.117 . S
C738 C129 1.040 . S
C743 C150 1.045 . S
C748 C255 1.116 . S
C753 C184 1.047 . S
C758 C402 1.117 . S
C763 C205 1.045 . S
C768 C16 1.116 . S
C773 C360 1.121 . S
C778 C226 1.044 . S
C783 C58 1.116 . S
C788 C247 1.045 . S
C793 C268 1.040 . S
C798 C444 1.118 . S
C803 C276 1.046 . S
C808 C142 1.116 . S
C813 C297 1.046 . S
C818 C499 1.120 . S
C823 C87 1.120 . S
C828 C318 1.040 . S
C833 C234 1.117 . S
C838 C352 1.047 . S
C843 C507 1.121 . S
C848 C373 1.043 . S
C853 C192 1.117 . S
C858 C381 1.047 . S
C863 C415 1.040 . S
C868 C549 1.118 . S
C873 C289 1.116 . S
C878 C423 1.042 . S
C883 C633 1.116 . S
C888 C457 1.045 . S
C893 C331 1.116 . S
C898 C478 1.044 . S
C903 C486 1.041 . S
C908 C591 1.120 . S
C913 C520 1.041 . S
C918 C79 1.120 . S
C923 C528 1.041 . S
C928 C339 1.120 . S
C933 C562 1.045 . S
C938 C24 1.116 . S
C943 C583 1.041 . S
C948 C394 1.120 . S
C953 C108 1.117 . S
C958 C604 1.041 . S
C963 C465 1.116 . S
C968 C612 1.046 . S
C973 C646 1.042 . S
C978 C163 1.121 . S
C983 C654 1.041 . S
C988 C436 1.116 . S
C993 C4 1.059 . S
C998 C382 1.059 . S
C1003 C406 1.052 . S
C1008 C28 1.052 . S
C1013 C46 1.052 . S
C1018 C343 1.052 . S
C1023 C67 1.059 . S
C1028 C364 1.059 . S
C1033 C469 1.059 . S
C1038 C91 1.059 . S
C1043 C112 1.059 . S
C1048 C487 1.059 . S
C1053 C424 1.052 . S
C1058 C130 1.052 . S
C1063 C151 1.052 . S
C1068 C448 1.052 . S
C1073 C553 1.052 . S
C1078 C175 1.052 . S
C1083 C196 1.052 . S
C1088 C574 1.052 . S
C1093 C217 1.059 . S
C1098 C511 1.059 . S
C1103 C238 1.059 . S
C1108 C529 1.059 . S
C1113 C637 1.059 . S
C1118 C259 1.059 . S
C1123 C655 1.052 . S
C1128 C277 1.052 . S
C1133 C298 1.059 . S
C1138 C595 1.059 . S
C1143 C319 1.052 . S
C1148 C613 1.052 . S
C1153 C20 1.384 . S
C1158 C523 1.384 . S
C1163 C208 1.384 . S
C1168 C40 1.384 . S
C1173 C62 1.384 . S
C1178 C565 1.384 . S
C1183 C83 1.379 . S
C1188 C250 1.379 . S
C1193 C607 1.382 . S
C1198 C103 1.382 . S
C1203 C293 1.384 . S
C1208 C124 1.384 . S
C1213 C146 1.378 . S
C1218 C649 1.378 . S
C1223 C167 1.380 . S
C1228 C335 1.380 . S
C1233 C355 1.379 . S
C1238 C187 1.379 . S
C1243 C398 1.379 . S
C1248 C229 1.379 . S
C1253 C440 1.384 . S
C1258 C271 1.384 . S
C1263 C314 1.383 . S
C1268 C481 1.383 . S
C1273 C376 1.378 . S
C1278 C545 1.378 . S
C1283 C418 1.378 . S
C1288 C586 1.378 . S
C1293 C629 1.384 . S
C1298 C460 1.384 . S
C1303 C671 1.384 . S
C1308 C503 1.384 . S
C1313 C7 1.334 . S
C1318 C109 1.338 1_545 S
C1323 C133 1.333 . S
C1328 C25 1.339 1_545 S
C1333 C154 1.337 1_565 S
C1338 C49 1.333 . S
C1343 C88 1.338 . S
C1348 C70 1.333 1_565 S
C1353 C172 1.334 . S
C1358 C280 1.339 1_565 S
C1363 C193 1.339 1_565 S
C1368 C301 1.333 . S
C1373 C322 1.333 1_545 S
C1378 C214 1.338 . S
C1383 C235 1.334 1_545 S
C1388 C256 1.335 . S
C1393 C340 1.338 . S
C1398 C445 1.333 . S
C1403 C361 1.338 . S
C1408 C466 1.335 . S
C1413 C385 1.333 . S
C1418 C490 1.339 . S
C1423 C427 1.336 . S
C1428 C403 1.334 . S
C1433 C508 1.334 . S
C1438 C616 1.339 . S
C1443 C532 1.335 . S
C1448 C634 1.338 . S
C1453 C658 1.339 . S
C1458 C550 1.334 . S
C1463 C571 1.339 . S
C1468 C592 1.334 . S
C1473 C19 1.363 . S
C1478 C104 1.363 . S
C1483 C41 1.358 . S
C1488 C125 1.358 . S
C1493 C145 1.358 . S
C1498 C61 1.358 . S
C1503 C166 1.363 . S
C1508 C82 1.363 . S
C1513 C188 1.363 . S
C1518 C272 1.363 . S
C1523 C292 1.363 . S
C1528 C209 1.363 . S
C1533 C313 1.358 . S
C1538 C230 1.358 . S
C1543 C334 1.358 . S
C1548 C251 1.358 . S
C1553 C356 1.363 . S
C1558 C439 1.363 . S
C1563 C461 1.358 . S
C1568 C377 1.358 . S
C1573 C397 1.358 . S
C1578 C482 1.358 . S
C1583 C502 1.363 . S
C1588 C419 1.363 . S
C1593 C608 1.358 . S
C1598 C524 1.358 . S
C1603 C544 1.363 . S
C1608 C628 1.363 . S
C1613 C566 1.358 . S
C1618 C650 1.358 . S
C1623 C587 1.363 . S
C1628 C670 1.363 . S
