# Generated by pormake.
# Topology tzs, (4)-cn, num edge types: 1
# Building blocks:
#     Node 0, Type 0, BuildingBlock: UXUYUI_clean_sbu_0, # of connection points: 4
#     Node 1, Type 0, BuildingBlock: UXUYUI_clean_sbu_0, # of connection points: 4
#     Node 2, Type 0, BuildingBlock: UXUYUI_clean_sbu_0, # of connection points: 4
#     Node 3, Type 0, BuildingBlock: UXUYUI_clean_sbu_0, # of connection points: 4
#     Node 4, Type 0, BuildingBlock: UXUYUI_clean_sbu_0, # of connection points: 4
#     Node 5, Type 0, BuildingBlock: UXUYUI_clean_sbu_0, # of connection points: 4
#     Node 6, Type 0, BuildingBlock: UXUYUI_clean_sbu_0, # of connection points: 4
#     Node 7, Type 0, BuildingBlock: UXUYUI_clean_sbu_0, # of connection points: 4
#     Node 8, Type 0, BuildingBlock: UXUYUI_clean_sbu_0, # of connection points: 4
#     Node 9, Type 0, BuildingBlock: UXUYUI_clean_sbu_0, # of connection points: 4
#     Node 10, Type 0, BuildingBlock: UXUYUI_clean_sbu_0, # of connection points: 4
#     Node 11, Type 0, BuildingBlock: UXUYUI_clean_sbu_0, # of connection points: 4
#     Node 12, Type 0, BuildingBlock: UXUYUI_clean_sbu_0, # of connection points: 4
#     Node 13, Type 0, BuildingBlock: UXUYUI_clean_sbu_0, # of connection points: 4
#     Node 14, Type 0, BuildingBlock: UXUYUI_clean_sbu_0, # of connection points: 4
#     Node 15, Type 0, BuildingBlock: UXUYUI_clean_sbu_0, # of connection points: 4
#     Edge 16, Type (0, 0), BuildingBlock: UVAHIK_clean_linker_0, # of connection points: 2
#     Edge 17, Type (0, 0), BuildingBlock: UVAHIK_clean_linker_0, # of connection points: 2
#     Edge 18, Type (0, 0), BuildingBlock: UVAHIK_clean_linker_0, # of connection points: 2
#     Edge 19, Type (0, 0), BuildingBlock: UVAHIK_clean_linker_0, # of connection points: 2
#     Edge 20, Type (0, 0), BuildingBlock: UVAHIK_clean_linker_0, # of connection points: 2
#     Edge 21, Type (0, 0), BuildingBlock: UVAHIK_clean_linker_0, # of connection points: 2
#     Edge 22, Type (0, 0), BuildingBlock: UVAHIK_clean_linker_0, # of connection points: 2
#     Edge 23, Type (0, 0), BuildingBlock: UVAHIK_clean_linker_0, # of connection points: 2
#     Edge 24, Type (0, 0), BuildingBlock: UVAHIK_clean_linker_0, # of connection points: 2
#     Edge 25, Type (0, 0), BuildingBlock: UVAHIK_clean_linker_0, # of connection points: 2
#     Edge 26, Type (0, 0), BuildingBlock: UVAHIK_clean_linker_0, # of connection points: 2
#     Edge 27, Type (0, 0), BuildingBlock: UVAHIK_clean_linker_0, # of connection points: 2
#     Edge 28, Type (0, 0), BuildingBlock: UVAHIK_clean_linker_0, # of connection points: 2
#     Edge 29, Type (0, 0), BuildingBlock: UVAHIK_clean_linker_0, # of connection points: 2
#     Edge 30, Type (0, 0), BuildingBlock: UVAHIK_clean_linker_0, # of connection points: 2
#     Edge 31, Type (0, 0), BuildingBlock: UVAHIK_clean_linker_0, # of connection points: 2
#     Edge 32, Type (0, 0), BuildingBlock: UVAHIK_clean_linker_0, # of connection points: 2
#     Edge 33, Type (0, 0), BuildingBlock: UVAHIK_clean_linker_0, # of connection points: 2
#     Edge 34, Type (0, 0), BuildingBlock: UVAHIK_clean_linker_0, # of connection points: 2
#     Edge 35, Type (0, 0), BuildingBlock: UVAHIK_clean_linker_0, # of connection points: 2
#     Edge 36, Type (0, 0), BuildingBlock: UVAHIK_clean_linker_0, # of connection points: 2
#     Edge 37, Type (0, 0), BuildingBlock: UVAHIK_clean_linker_0, # of connection points: 2
#     Edge 38, Type (0, 0), BuildingBlock: UVAHIK_clean_linker_0, # of connection points: 2
#     Edge 39, Type (0, 0), BuildingBlock: UVAHIK_clean_linker_0, # of connection points: 2
#     Edge 40, Type (0, 0), BuildingBlock: UVAHIK_clean_linker_0, # of connection points: 2
#     Edge 41, Type (0, 0), BuildingBlock: UVAHIK_clean_linker_0, # of connection points: 2
#     Edge 42, Type (0, 0), BuildingBlock: UVAHIK_clean_linker_0, # of connection points: 2
#     Edge 43, Type (0, 0), BuildingBlock: UVAHIK_clean_linker_0, # of connection points: 2
#     Edge 44, Type (0, 0), BuildingBlock: UVAHIK_clean_linker_0, # of connection points: 2
#     Edge 45, Type (0, 0), BuildingBlock: UVAHIK_clean_linker_0, # of connection points: 2
#     Edge 46, Type (0, 0), BuildingBlock: UVAHIK_clean_linker_0, # of connection points: 2
#     Edge 47, Type (0, 0), BuildingBlock: UVAHIK_clean_linker_0, # of connection points: 2
# Relax obj value: 0.120
# Max RMSD: 0.120
# Mean RMSD: 0.120
data_MOF--net-tzs--node1-UXUYUI_clean_sbu_0--edge1-UVAHIK_clean_linker_0
_symmetry_space_group_name_H-M    P1
_symmetry_Int_Tables_number       1
_symmetry_cell_setting            triclinic
loop_
_symmetry_equiv_pos_as_xyz
'x, y, z'
_cell_length_a     84.310862
_cell_length_b     84.291829
_cell_length_c     72.636465
_cell_angle_alpha  89.988633
_cell_angle_beta   89.998875
_cell_angle_gamma 90.0095
loop_
_atom_site_label
_atom_site_type_symbol
_atom_site_fract_x
_atom_site_fract_y
_atom_site_fract_z
_atom_type_partial_charge
Li0 Li 0.15509 0.34204 0.19104 0.0
Li1 Li 0.14943 0.36959 0.1916 0.0
Li2 Li 0.12717 0.35185 0.19175 0.0
Li3 Li 0.14428 0.35525 0.16459 0.0
C4 C 0.14014 0.34473 0.22557 0.0
N5 N 0.13247 0.32567 0.25523 0.0
C6 C 0.14214 0.35033 0.24354 0.0
C7 C 0.1342 0.32943 0.2227 0.0
C8 C 0.13821 0.3405 0.25834 0.0
C9 C 0.1304 0.31998 0.23787 0.0
C10 C 0.1802 0.36123 0.18232 0.0
C11 C 0.20814 0.36509 0.17677 0.0
N12 N 0.21066 0.36602 0.19524 0.0
C13 C 0.18306 0.36222 0.20125 0.0
C14 C 0.19282 0.36267 0.16998 0.0
C15 C 0.19854 0.36465 0.2075 0.0
C16 C 0.17674 0.31721 0.18533 0.0
N17 N 0.16966 0.32603 0.19868 0.0
C18 C 0.18397 0.31218 0.22207 0.0
C19 C 0.17341 0.32402 0.21675 0.0
C20 C 0.19108 0.30258 0.20864 0.0
C21 C 0.18756 0.30533 0.19003 0.0
H22 H 0.17406 0.31952 0.17103 0.0
H23 H 0.16844 0.3317 0.2271 0.0
C24 C 0.15004 0.39381 0.21783 0.0
N25 N 0.15606 0.38946 0.20124 0.0
C26 C 0.15378 0.40857 0.22531 0.0
C27 C 0.16994 0.41405 0.19853 0.0
C28 C 0.16595 0.39912 0.1916 0.0
C29 C 0.16376 0.41895 0.21557 0.0
H30 H 0.14205 0.38593 0.22503 0.0
H31 H 0.17049 0.39534 0.17839 0.0
C32 C 0.13148 0.32683 0.16099 0.0
N33 N 0.12122 0.31127 0.12969 0.0
C34 C 0.11832 0.33243 0.15128 0.0
C35 C 0.13932 0.3132 0.1549 0.0
C36 C 0.11335 0.32444 0.13545 0.0
C37 C 0.13397 0.30552 0.13902 0.0
C38 C 0.12782 0.38668 0.17559 0.0
C39 C 0.11808 0.39409 0.18855 0.0
C40 C 0.13586 0.39582 0.16252 0.0
C41 C 0.11668 0.41061 0.18836 0.0
C42 C 0.13413 0.4123 0.16277 0.0
N43 N 0.12468 0.41929 0.17559 0.0
C44 C 0.10281 0.35703 0.21679 0.0
C45 C 0.09631 0.33777 0.19427 0.0
C46 C 0.08812 0.35505 0.22528 0.0
N47 N 0.10659 0.34848 0.20156 0.0
C48 C 0.08135 0.3356 0.20213 0.0
C49 C 0.07706 0.34432 0.21788 0.0
H50 H 0.11133 0.36528 0.22247 0.0
H51 H 0.09969 0.33085 0.18241 0.0
C52 C 0.1562 0.3475 0.12959 0.0
N53 N 0.1445 0.35546 0.13852 0.0
C54 C 0.15629 0.3468 0.11039 0.0
C55 C 0.13233 0.36258 0.11003 0.0
C56 C 0.13274 0.36301 0.12922 0.0
C57 C 0.14419 0.35436 0.10035 0.0
H58 H 0.16537 0.34157 0.13742 0.0
H59 H 0.12348 0.36908 0.13674 0.0
O60 O 0.1438 0.35437 0.211 0.0
O61 O 0.16519 0.35876 0.17574 0.0
O62 O 0.13673 0.33471 0.17631 0.0
O63 O 0.12972 0.37057 0.17589 0.0
H64 H 0.14671 0.36213 0.24601 0.0
H65 H 0.13253 0.32485 0.20895 0.0
H66 H 0.13971 0.34468 0.27232 0.0
H67 H 0.1258 0.30813 0.23585 0.0
H68 H 0.21802 0.36622 0.16736 0.0
H69 H 0.17349 0.36114 0.21106 0.0
H70 H 0.1908 0.3619 0.15528 0.0
H71 H 0.20093 0.36543 0.2221 0.0
H72 H 0.18676 0.31071 0.23653 0.0
H73 H 0.19297 0.29827 0.17927 0.0
H74 H 0.14855 0.41199 0.23834 0.0
H75 H 0.17773 0.42167 0.19065 0.0
H76 H 0.11219 0.34305 0.15572 0.0
H77 H 0.14935 0.30852 0.16238 0.0
H78 H 0.10328 0.32876 0.1277 0.0
H79 H 0.13994 0.29497 0.13414 0.0
H80 H 0.11179 0.38719 0.19876 0.0
H81 H 0.14356 0.39027 0.1525 0.0
H82 H 0.10927 0.41652 0.19839 0.0
H83 H 0.14037 0.41954 0.15284 0.0
H84 H 0.08558 0.36176 0.23764 0.0
H85 H 0.07321 0.32731 0.19579 0.0
H86 H 0.16577 0.3405 0.1035 0.0
H87 H 0.12264 0.36835 0.1029 0.0
Li88 Li 0.62783 0.14542 0.18661 0.0
Li89 Li 0.65546 0.15211 0.18813 0.0
Li90 Li 0.64483 0.14219 0.15991 0.0
Li91 Li 0.64847 0.12443 0.18702 0.0
C92 C 0.63481 0.17681 0.17893 0.0
N93 N 0.62612 0.20627 0.19223 0.0
C94 C 0.63423 0.17957 0.19789 0.0
C95 C 0.63096 0.18904 0.16674 0.0
C96 C 0.62982 0.19453 0.20435 0.0
C97 C 0.6266 0.20385 0.17373 0.0
C98 C 0.6466 0.13846 0.22433 0.0
C99 C 0.66273 0.12754 0.24867 0.0
N100 N 0.65375 0.13537 0.2613 0.0
C101 C 0.6375 0.14635 0.23756 0.0
C102 C 0.65929 0.12893 0.22993 0.0
C103 C 0.64132 0.14466 0.25617 0.0
C104 C 0.60213 0.14089 0.20976 0.0
N105 N 0.60713 0.1498 0.19531 0.0
C106 C 0.5827 0.16414 0.19496 0.0
C107 C 0.59776 0.16118 0.18772 0.0
C108 C 0.57733 0.15531 0.21014 0.0
C109 C 0.58723 0.1435 0.21749 0.0
H110 H 0.60978 0.13177 0.21532 0.0
H111 H 0.60197 0.16798 0.17609 0.0
C112 C 0.67577 0.17816 0.18509 0.0
N113 N 0.67041 0.16722 0.19736 0.0
C114 C 0.68715 0.1893 0.19033 0.0
C115 C 0.68691 0.17806 0.22093 0.0
C116 C 0.67567 0.16706 0.21504 0.0
C117 C 0.69293 0.18931 0.20847 0.0
H118 H 0.67134 0.17807 0.17112 0.0
H119 H 0.67126 0.15842 0.22465 0.0
C120 C 0.61615 0.12505 0.15996 0.0
N121 N 0.58906 0.12231 0.13882 0.0
C122 C 0.6084 0.11046 0.15853 0.0
C123 C 0.61012 0.13826 0.15066 0.0
C124 C 0.59471 0.10931 0.14776 0.0
C125 C 0.59641 0.13663 0.14004 0.0
C126 C 0.68017 0.14001 0.17128 0.0
C127 C 0.68576 0.14861 0.15616 0.0
C128 C 0.6904 0.13662 0.18591 0.0
C129 C 0.70147 0.15389 0.15606 0.0
C130 C 0.70602 0.14214 0.1853 0.0
N131 N 0.71118 0.1506 0.17052 0.0
C132 C 0.64769 0.15735 0.12568 0.0
C133 C 0.64403 0.12949 0.12411 0.0
C134 C 0.64816 0.15838 0.10651 0.0
N135 N 0.64563 0.14307 0.13399 0.0
C136 C 0.64437 0.12997 0.10491 0.0
C137 C 0.64646 0.14457 0.09586 0.0
H138 H 0.64905 0.16792 0.13396 0.0
H139 H 0.64237 0.11831 0.13117 0.0
C140 C 0.64159 0.09634 0.20547 0.0
N141 N 0.65289 0.10373 0.19528 0.0
C142 C 0.64452 0.08139 0.21294 0.0
C143 C 0.67061 0.08189 0.19908 0.0
C144 C 0.66715 0.09683 0.19183 0.0
C145 C 0.65926 0.07402 0.20993 0.0
H146 H 0.63038 0.1022 0.20797 0.0
H147 H 0.67591 0.10307 0.18371 0.0
O148 O 0.63902 0.16224 0.1722 0.0
O149 O 0.64284 0.13982 0.20606 0.0
O150 O 0.62953 0.12634 0.17051 0.0
O151 O 0.66472 0.13508 0.17183 0.0
H152 H 0.63719 0.1703 0.20754 0.0
H153 H 0.63129 0.18709 0.15201 0.0
H154 H 0.62934 0.19682 0.21899 0.0
H155 H 0.62357 0.21342 0.16444 0.0
H156 H 0.67254 0.12025 0.25317 0.0
H157 H 0.62759 0.15372 0.23352 0.0
H158 H 0.66652 0.1228 0.21994 0.0
H159 H 0.6344 0.15072 0.26655 0.0
H160 H 0.57544 0.17338 0.18893 0.0
H161 H 0.58343 0.13623 0.22897 0.0
H162 H 0.69154 0.19762 0.18018 0.0
H163 H 0.69075 0.17782 0.23515 0.0
H164 H 0.61292 0.10013 0.16568 0.0
H165 H 0.61595 0.14966 0.15162 0.0
H166 H 0.58859 0.09808 0.14652 0.0
H167 H 0.59162 0.14675 0.13277 0.0
H168 H 0.67801 0.15132 0.14472 0.0
H169 H 0.68628 0.12998 0.1977 0.0
H170 H 0.70593 0.16066 0.1445 0.0
H171 H 0.71402 0.13973 0.1966 0.0
H172 H 0.65003 0.16984 0.10013 0.0
H173 H 0.64279 0.11906 0.09726 0.0
H174 H 0.63532 0.07566 0.22095 0.0
H175 H 0.68217 0.07673 0.19658 0.0
Li176 Li 0.83814 0.65408 0.18582 0.0
Li177 Li 0.84553 0.62694 0.18635 0.0
Li178 Li 0.86562 0.64728 0.18798 0.0
Li179 Li 0.85144 0.64157 0.15837 0.0
C180 C 0.84105 0.64901 0.22074 0.0
N181 N 0.82454 0.66243 0.2497 0.0
C182 C 0.82878 0.64062 0.22929 0.0
C183 C 0.84492 0.66423 0.22696 0.0
C184 C 0.8206 0.6476 0.24392 0.0
C185 C 0.83643 0.67081 0.24159 0.0
C186 C 0.81892 0.626 0.16564 0.0
C187 C 0.80607 0.60783 0.14478 0.0
N188 N 0.7959 0.60351 0.15844 0.0
C189 C 0.80831 0.62144 0.17944 0.0
C190 C 0.81778 0.61919 0.14814 0.0
C191 C 0.79678 0.61002 0.17554 0.0
C192 C 0.82542 0.685 0.18915 0.0
N193 N 0.82255 0.6694 0.19247 0.0
C194 C 0.79796 0.67566 0.20706 0.0
C195 C 0.80899 0.66457 0.20087 0.0
C196 C 0.80072 0.69192 0.20422 0.0
C197 C 0.81459 0.69652 0.19488 0.0
H198 H 0.83616 0.68852 0.18217 0.0
H199 H 0.80691 0.65211 0.20322 0.0
C200 C 0.84504 0.60354 0.21346 0.0
N201 N 0.841 0.6061 0.1956 0.0
C202 C 0.84313 0.58859 0.22134 0.0
C203 C 0.83321 0.57897 0.19219 0.0
C204 C 0.83539 0.59412 0.18485 0.0
C205 C 0.83717 0.57606 0.21066 0.0
H206 H 0.85005 0.61306 0.22154 0.0
H207 H 0.83301 0.59618 0.17044 0.0
C208 C 0.86768 0.67327 0.168 0.0
N209 N 0.89252 0.69432 0.16355 0.0
C210 C 0.87697 0.67278 0.15207 0.0
C211 C 0.87095 0.68454 0.1816 0.0
C212 C 0.88949 0.68352 0.15009 0.0
C213 C 0.88359 0.69504 0.17912 0.0
C214 C 0.87208 0.61325 0.17576 0.0
C215 C 0.88095 0.6105 0.19171 0.0
C216 C 0.86892 0.6007 0.16373 0.0
C217 C 0.88648 0.5952 0.19538 0.0
C218 C 0.87466 0.58557 0.16789 0.0
N219 N 0.88324 0.58316 0.1835 0.0
C220 C 0.88713 0.65436 0.21656 0.0
C221 C 0.89867 0.6532 0.18683 0.0
C222 C 0.90191 0.65716 0.22451 0.0
N223 N 0.88578 0.65249 0.19805 0.0
C224 C 0.9137 0.65606 0.19419 0.0
C225 C 0.91547 0.65792 0.2133 0.0
H226 H 0.87679 0.65329 0.22523 0.0
H227 H 0.89731 0.6512 0.17222 0.0
C228 C 0.84359 0.65217 0.12317 0.0
N229 N 0.85272 0.64155 0.13244 0.0
C230 C 0.84403 0.65273 0.10398 0.0
C231 C 0.86318 0.63136 0.10429 0.0
C232 C 0.86252 0.63134 0.12349 0.0
C233 C 0.85385 0.64217 0.09433 0.0
H234 H 0.83597 0.66017 0.13073 0.0
H235 H 0.86987 0.62326 0.13126 0.0
O236 O 0.84908 0.64248 0.2062 0.0
O237 O 0.83023 0.63725 0.16909 0.0
O238 O 0.85552 0.6627 0.17032 0.0
O239 O 0.86616 0.62805 0.17224 0.0
H240 H 0.82539 0.62897 0.2245 0.0
H241 H 0.85426 0.67096 0.22042 0.0
H242 H 0.81103 0.64127 0.25059 0.0
H243 H 0.83925 0.68261 0.24646 0.0
H244 H 0.80507 0.60243 0.13132 0.0
H245 H 0.80918 0.62637 0.19313 0.0
H246 H 0.82587 0.6226 0.13728 0.0
H247 H 0.78857 0.60628 0.18613 0.0
H248 H 0.78759 0.6715 0.21441 0.0
H249 H 0.81709 0.70887 0.19202 0.0
H250 H 0.84631 0.58687 0.23564 0.0
H251 H 0.82894 0.56953 0.18338 0.0
H252 H 0.87467 0.66413 0.14142 0.0
H253 H 0.8639 0.68508 0.19402 0.0
H254 H 0.89682 0.68323 0.13787 0.0
H255 H 0.88631 0.70376 0.18958 0.0
H256 H 0.88335 0.62002 0.20129 0.0
H257 H 0.8618 0.60253 0.15152 0.0
H258 H 0.89328 0.59289 0.20772 0.0
H259 H 0.8722 0.57573 0.15878 0.0
H260 H 0.90275 0.65858 0.2393 0.0
H261 H 0.92388 0.65628 0.18511 0.0
H262 H 0.8366 0.66117 0.09675 0.0
H263 H 0.87104 0.62317 0.09731 0.0
Li264 Li 0.36767 0.84791 0.18576 0.0
Li265 Li 0.3401 0.83901 0.18853 0.0
Li266 Li 0.35031 0.85196 0.15993 0.0
Li267 Li 0.3454 0.86779 0.18752 0.0
C268 C 0.36697 0.81897 0.17083 0.0
N269 N 0.38831 0.7941 0.17083 0.0
C270 C 0.36413 0.80555 0.18165 0.0
C271 C 0.38057 0.81966 0.15985 0.0
C272 C 0.37508 0.79312 0.18149 0.0
C273 C 0.39125 0.80699 0.1601 0.0
C274 C 0.34886 0.85055 0.22437 0.0
C275 C 0.33177 0.8562 0.25019 0.0
N276 N 0.34153 0.84766 0.26132 0.0
C277 C 0.35884 0.842 0.23612 0.0
C278 C 0.33531 0.85785 0.2315 0.0
C279 C 0.35488 0.84061 0.25473 0.0
C280 C 0.39989 0.85539 0.18925 0.0
N281 N 0.38893 0.84412 0.19334 0.0
C282 C 0.40851 0.8285 0.20875 0.0
C283 C 0.3929 0.83087 0.20297 0.0
C284 C 0.42011 0.83998 0.20476 0.0
C285 C 0.41561 0.85356 0.19484 0.0
H286 H 0.39638 0.86596 0.18189 0.0
H287 H 0.38392 0.82219 0.20631 0.0
C288 C 0.3137 0.81919 0.18658 0.0
N289 N 0.32609 0.82321 0.1976 0.0
C290 C 0.30258 0.80803 0.19245 0.0
C291 C 0.31742 0.80503 0.22072 0.0
C292 C 0.32827 0.81622 0.21427 0.0
C293 C 0.30429 0.80088 0.20981 0.0
H294 H 0.31242 0.82476 0.17325 0.0
H295 H 0.33842 0.81927 0.22257 0.0
C296 C 0.37009 0.87627 0.15693 0.0
N297 N 0.38073 0.89305 0.12668 0.0
C298 C 0.36427 0.89148 0.15338 0.0
C299 C 0.38148 0.86966 0.14523 0.0
C300 C 0.36977 0.89976 0.13799 0.0
C301 C 0.38666 0.87831 0.12996 0.0
C302 C 0.31458 0.86071 0.1742 0.0
C303 C 0.30722 0.86801 0.15918 0.0
C304 C 0.3061 0.85853 0.19053 0.0
C305 C 0.29159 0.87331 0.16089 0.0
C306 C 0.29049 0.86397 0.1917 0.0
N307 N 0.28362 0.87121 0.17699 0.0
C308 C 0.35336 0.83918 0.12423 0.0
C309 C 0.34359 0.86554 0.12526 0.0
C310 C 0.35284 0.83926 0.10503 0.0
N311 N 0.34889 0.85225 0.13387 0.0
C312 C 0.34302 0.8662 0.10608 0.0
C313 C 0.34772 0.85294 0.09574 0.0
H314 H 0.35739 0.82872 0.13145 0.0
H315 H 0.33993 0.87569 0.13329 0.0
C316 C 0.34699 0.89297 0.21237 0.0
N317 N 0.33957 0.88797 0.19682 0.0
C318 C 0.34374 0.90793 0.21963 0.0
C319 C 0.32539 0.91244 0.19458 0.0
C320 C 0.32898 0.89735 0.18783 0.0
C321 C 0.33286 0.91792 0.21066 0.0
H322 H 0.35563 0.8854 0.21899 0.0
H323 H 0.32358 0.8933 0.17521 0.0
O324 O 0.35642 0.83129 0.17087 0.0
O325 O 0.35261 0.85206 0.20611 0.0
O326 O 0.36467 0.86788 0.17177 0.0
O327 O 0.3299 0.85546 0.17271 0.0
H328 H 0.35363 0.80478 0.19014 0.0
H329 H 0.3829 0.82991 0.15132 0.0
H330 H 0.37307 0.78269 0.18986 0.0
H331 H 0.40187 0.80742 0.15176 0.0
H332 H 0.32129 0.86177 0.25586 0.0
H333 H 0.36946 0.83642 0.23092 0.0
H334 H 0.3277 0.86491 0.22279 0.0
H335 H 0.36244 0.83393 0.26394 0.0
H336 H 0.41145 0.81779 0.21624 0.0
H337 H 0.42404 0.86289 0.19179 0.0
H338 H 0.29282 0.80497 0.18344 0.0
H339 H 0.31918 0.79988 0.23422 0.0
H340 H 0.35551 0.8968 0.16234 0.0
H341 H 0.38618 0.85795 0.14785 0.0
H342 H 0.36529 0.91151 0.13501 0.0
H343 H 0.39538 0.8733 0.12072 0.0
H344 H 0.31353 0.86964 0.14636 0.0
H345 H 0.31142 0.85252 0.20211 0.0
H346 H 0.28579 0.87907 0.14941 0.0
H347 H 0.28381 0.86237 0.20428 0.0
H348 H 0.35667 0.82883 0.09754 0.0
H349 H 0.33881 0.8769 0.09942 0.0
H350 H 0.35002 0.91181 0.23183 0.0
H351 H 0.31693 0.91975 0.18725 0.0
Li352 Li 0.1248 0.64749 0.30826 0.0
Li353 Li 0.14288 0.64449 0.33426 0.0
Li354 Li 0.15188 0.65539 0.30505 0.0
Li355 Li 0.14554 0.62732 0.30806 0.0
C356 C 0.14075 0.6796 0.32318 0.0
N357 N 0.15237 0.71023 0.32453 0.0
C358 C 0.1494 0.68473 0.33848 0.0
C359 C 0.13795 0.69006 0.30861 0.0
C360 C 0.15517 0.70027 0.3389 0.0
C361 C 0.14396 0.70549 0.30953 0.0
C362 C 0.1202 0.62387 0.34053 0.0
C363 C 0.12109 0.60913 0.369 0.0
N364 N 0.10648 0.61478 0.37344 0.0
C365 C 0.10518 0.62951 0.34538 0.0
C366 C 0.12821 0.61356 0.35241 0.0
C367 C 0.09844 0.62477 0.36208 0.0
C368 C 0.09427 0.63861 0.29726 0.0
N369 N 0.1035 0.65142 0.30107 0.0
C370 C 0.08245 0.66907 0.29304 0.0
C371 C 0.0979 0.66646 0.29926 0.0
C372 C 0.07268 0.65606 0.28886 0.0
C373 C 0.07874 0.64067 0.29114 0.0
H374 H 0.09909 0.62679 0.2988 0.0
H375 H 0.10547 0.67641 0.30251 0.0
C376 C 0.15855 0.64158 0.36849 0.0
N377 N 0.14482 0.6461 0.36023 0.0
C378 C 0.16 0.64225 0.38761 0.0
C379 C 0.13327 0.65252 0.3893 0.0
C380 C 0.13239 0.65178 0.37014 0.0
C381 C 0.14719 0.64761 0.39831 0.0
H382 H 0.16838 0.63748 0.36024 0.0
H383 H 0.12172 0.65555 0.36314 0.0
C384 C 0.12939 0.64103 0.27361 0.0
N385 N 0.10716 0.63891 0.24577 0.0
C386 C 0.12381 0.62621 0.26792 0.0
C387 C 0.1237 0.65478 0.2651 0.0
C388 C 0.11258 0.62539 0.25381 0.0
C389 C 0.11244 0.65346 0.25107 0.0
C390 C 0.17499 0.62951 0.31851 0.0
C391 C 0.18588 0.63224 0.30435 0.0
C392 C 0.17666 0.61611 0.3297 0.0
C393 C 0.19826 0.62148 0.30159 0.0
C394 C 0.18918 0.60562 0.32646 0.0
N395 N 0.19963 0.6085 0.31259 0.0
C396 C 0.17814 0.67552 0.30561 0.0
C397 C 0.16515 0.67451 0.27667 0.0
C398 C 0.18931 0.68617 0.29874 0.0
N399 N 0.16637 0.66999 0.29457 0.0
C400 C 0.17603 0.68522 0.26924 0.0
C401 C 0.18834 0.69113 0.28032 0.0
H402 H 0.17883 0.67161 0.31977 0.0
H403 H 0.15581 0.66973 0.26815 0.0
C404 C 0.14555 0.5937 0.30867 0.0
N405 N 0.15108 0.60671 0.29971 0.0
C406 C 0.14956 0.57854 0.30253 0.0
C407 C 0.16475 0.59048 0.27792 0.0
C408 C 0.16046 0.60541 0.28456 0.0
C409 C 0.15927 0.5768 0.28693 0.0
H410 H 0.13788 0.59507 0.32046 0.0
H411 H 0.16455 0.616 0.27762 0.0
O412 O 0.1353 0.66432 0.32233 0.0
O413 O 0.1271 0.62856 0.32437 0.0
O414 O 0.14008 0.64212 0.28773 0.0
O415 O 0.16257 0.6397 0.32118 0.0
H416 H 0.15177 0.67679 0.34984 0.0
H417 H 0.13151 0.68623 0.29653 0.0
H418 H 0.16194 0.70438 0.35062 0.0
H419 H 0.14201 0.71367 0.29828 0.0
H420 H 0.12722 0.60127 0.37837 0.0
H421 H 0.09885 0.63761 0.33648 0.0
H422 H 0.13994 0.60925 0.34902 0.0
H423 H 0.08685 0.62909 0.36603 0.0
H424 H 0.07815 0.68112 0.29163 0.0
H425 H 0.07165 0.63033 0.28788 0.0
H426 H 0.17109 0.63869 0.3939 0.0
H427 H 0.12303 0.6566 0.39695 0.0
H428 H 0.12794 0.61545 0.27447 0.0
H429 H 0.12767 0.66637 0.26953 0.0
H430 H 0.1081 0.614 0.24933 0.0
H431 H 0.10783 0.664 0.24448 0.0
H432 H 0.18469 0.64244 0.29542 0.0
H433 H 0.16824 0.61371 0.34059 0.0
H434 H 0.20673 0.62342 0.29063 0.0
H435 H 0.19054 0.59515 0.33493 0.0
H436 H 0.19853 0.69057 0.30778 0.0
H437 H 0.17501 0.6886 0.2549 0.0
H438 H 0.14483 0.56831 0.30968 0.0
H439 H 0.17233 0.58967 0.26592 0.0
Li440 Li 0.34789 0.12626 0.3063 0.0
Li441 Li 0.35182 0.14376 0.33274 0.0
Li442 Li 0.34132 0.15469 0.30289 0.0
Li443 Li 0.36908 0.14698 0.30679 0.0
C444 C 0.31651 0.13309 0.32026 0.0
N445 N 0.2857 0.12186 0.32143 0.0
C446 C 0.31083 0.12546 0.33603 0.0
C447 C 0.30639 0.13528 0.30523 0.0
C448 C 0.29526 0.11978 0.33632 0.0
C449 C 0.29089 0.12945 0.30605 0.0
C450 C 0.37224 0.11992 0.33753 0.0
C451 C 0.3878 0.11915 0.36538 0.0
N452 N 0.38269 0.10409 0.36855 0.0
C453 C 0.36723 0.1044 0.34099 0.0
C454 C 0.3827 0.12733 0.34974 0.0
C455 C 0.37262 0.09661 0.35677 0.0
C456 C 0.35162 0.10012 0.28345 0.0
N457 N 0.34298 0.10547 0.29796 0.0
C458 C 0.32821 0.08128 0.29892 0.0
C459 C 0.33158 0.09634 0.30592 0.0
C460 C 0.33667 0.07563 0.28361 0.0
C461 C 0.34858 0.08522 0.27593 0.0
H462 H 0.36083 0.10751 0.27764 0.0
H463 H 0.32515 0.10067 0.31772 0.0
C464 C 0.35293 0.15931 0.36711 0.0
N465 N 0.35014 0.14513 0.35881 0.0
C466 C 0.35216 0.16063 0.38624 0.0
C467 C 0.34553 0.13276 0.3879 0.0
C468 C 0.34632 0.13202 0.36875 0.0
C469 C 0.3485 0.14721 0.39693 0.0
H470 H 0.35576 0.1696 0.35886 0.0
H471 H 0.34407 0.12091 0.36181 0.0
C472 C 0.34971 0.13946 0.26864 0.0
N473 N 0.34016 0.13567 0.2325 0.0
C474 C 0.35939 0.14471 0.25426 0.0
C475 C 0.33527 0.1321 0.26462 0.0
C476 C 0.35432 0.14275 0.23608 0.0
C477 C 0.33063 0.13033 0.24628 0.0
C478 C 0.36765 0.17628 0.31897 0.0
C479 C 0.36525 0.18837 0.30611 0.0
C480 C 0.38091 0.17675 0.3305 0.0
C481 C 0.3763 0.20068 0.30485 0.0
C482 C 0.3917 0.18924 0.32879 0.0
N483 N 0.3892 0.20084 0.3161 0.0
C484 C 0.31566 0.17552 0.30339 0.0
C485 C 0.32835 0.17391 0.27431 0.0
C486 C 0.30462 0.1863 0.29645 0.0
N487 N 0.32711 0.16948 0.29225 0.0
C488 C 0.31746 0.18452 0.26674 0.0
C489 C 0.30539 0.19081 0.27787 0.0
H490 H 0.31506 0.17184 0.31764 0.0
H491 H 0.33782 0.16933 0.26587 0.0
C492 C 0.40237 0.14366 0.30619 0.0
N493 N 0.38998 0.15174 0.2988 0.0
C494 C 0.4178 0.1466 0.30013 0.0
C495 C 0.4074 0.16615 0.27897 0.0
C496 C 0.39217 0.16283 0.28546 0.0
C497 C 0.42045 0.15792 0.28626 0.0
H498 H 0.40027 0.13473 0.31658 0.0
H499 H 0.38207 0.16902 0.27976 0.0
O500 O 0.3317 0.13885 0.31986 0.0
O501 O 0.36698 0.12778 0.32223 0.0
O502 O 0.35453 0.14132 0.28652 0.0
O503 O 0.3571 0.164 0.3202 0.0
H504 H 0.31838 0.12383 0.3479 0.0
H505 H 0.31033 0.14157 0.29311 0.0
H506 H 0.29078 0.11374 0.34838 0.0
H507 H 0.28297 0.13103 0.29448 0.0
H508 H 0.3958 0.12478 0.37502 0.0
H509 H 0.35919 0.09846 0.33165 0.0
H510 H 0.38669 0.13934 0.34726 0.0
H511 H 0.36878 0.08462 0.35967 0.0
H512 H 0.31896 0.07423 0.30525 0.0
H513 H 0.35561 0.08117 0.26437 0.0
H514 H 0.35427 0.17207 0.39257 0.0
H515 H 0.34288 0.12205 0.39555 0.0
H516 H 0.37068 0.15028 0.25707 0.0
H517 H 0.32784 0.12756 0.2755 0.0
H518 H 0.36167 0.14683 0.22483 0.0
H519 H 0.31948 0.12464 0.24299 0.0
H520 H 0.35504 0.1882 0.2971 0.0
H521 H 0.38292 0.16749 0.34055 0.0
H522 H 0.37465 0.21008 0.29489 0.0
H523 H 0.40208 0.1897 0.33753 0.0
H524 H 0.29543 0.19087 0.30543 0.0
H525 H 0.31857 0.18793 0.25242 0.0
H526 H 0.42748 0.13978 0.3059 0.0
H527 H 0.40893 0.17506 0.26837 0.0
Li528 Li 0.86608 0.34842 0.30826 0.0
Li529 Li 0.8478 0.35001 0.33429 0.0
Li530 Li 0.83912 0.34008 0.30448 0.0
Li531 Li 0.84493 0.3681 0.3091 0.0
C532 C 0.85164 0.31527 0.32138 0.0
N533 N 0.8426 0.28376 0.32119 0.0
C534 C 0.84353 0.30886 0.33643 0.0
C535 C 0.85527 0.30563 0.30631 0.0
C536 C 0.83905 0.2929 0.33606 0.0
C537 C 0.85055 0.28974 0.30645 0.0
C538 C 0.87042 0.3705 0.34172 0.0
C539 C 0.86964 0.38346 0.37133 0.0
N540 N 0.88454 0.37809 0.37491 0.0
C541 C 0.88573 0.36514 0.34569 0.0
C542 C 0.86232 0.37979 0.35462 0.0
C543 C 0.89266 0.36911 0.36255 0.0
C544 C 0.89579 0.35812 0.29568 0.0
N545 N 0.88746 0.34518 0.30123 0.0
C546 C 0.91001 0.3285 0.2967 0.0
C547 C 0.89421 0.33056 0.30194 0.0
C548 C 0.9189 0.34163 0.29066 0.0
C549 C 0.91153 0.35659 0.29014 0.0
H550 H 0.89015 0.36963 0.29552 0.0
H551 H 0.88736 0.32053 0.30671 0.0
C552 C 0.83241 0.35122 0.3689 0.0
N553 N 0.84602 0.34717 0.36008 0.0
C554 C 0.83129 0.34967 0.38798 0.0
C555 C 0.85814 0.33957 0.38844 0.0
C556 C 0.85866 0.34116 0.36934 0.0
C557 C 0.84434 0.34394 0.39806 0.0
H558 H 0.82245 0.35569 0.36112 0.0
H559 H 0.86926 0.33785 0.36189 0.0
C560 C 0.86098 0.35525 0.27349 0.0
N561 N 0.8822 0.35718 0.24458 0.0
C562 C 0.86616 0.37004 0.26721 0.0
C563 C 0.86653 0.34144 0.265 0.0
C564 C 0.87689 0.37077 0.25258 0.0
C565 C 0.87728 0.34266 0.25044 0.0
C566 C 0.81559 0.3651 0.31864 0.0
C567 C 0.80526 0.36282 0.30383 0.0
C568 C 0.81343 0.37805 0.33038 0.0
C569 C 0.79293 0.37362 0.30097 0.0
C570 C 0.80098 0.3886 0.32704 0.0
N571 N 0.79107 0.38618 0.31252 0.0
C572 C 0.81506 0.31732 0.30401 0.0
C573 C 0.82547 0.32334 0.27448 0.0
C574 C 0.80489 0.30604 0.29647 0.0
N575 N 0.82526 0.32546 0.29302 0.0
C576 C 0.81532 0.31232 0.2663 0.0
C577 C 0.80499 0.3034 0.27739 0.0
H578 H 0.81491 0.31956 0.31866 0.0
H579 H 0.83349 0.3302 0.26605 0.0
C580 C 0.84486 0.40144 0.31199 0.0
N581 N 0.83959 0.38903 0.30176 0.0
C582 C 0.84224 0.41695 0.30611 0.0
C583 C 0.82864 0.40665 0.27935 0.0
C584 C 0.83143 0.39131 0.28584 0.0
C585 C 0.83432 0.41973 0.28939 0.0
H586 H 0.85142 0.39929 0.32449 0.0
H587 H 0.82754 0.38117 0.2779 0.0
O588 O 0.85588 0.33094 0.32134 0.0
O589 O 0.86333 0.36656 0.3254 0.0
O590 O 0.85071 0.35427 0.28803 0.0
O591 O 0.82798 0.3549 0.32139 0.0
H592 H 0.84057 0.31615 0.34819 0.0
H593 H 0.8615 0.31041 0.29453 0.0
H594 H 0.83269 0.2878 0.34757 0.0
H595 H 0.85318 0.28218 0.29481 0.0
H596 H 0.86345 0.39051 0.38149 0.0
H597 H 0.89216 0.35787 0.33597 0.0
H598 H 0.85036 0.38383 0.35192 0.0
H599 H 0.90448 0.36499 0.36583 0.0
H600 H 0.91526 0.3168 0.29762 0.0
H601 H 0.91778 0.36701 0.28533 0.0
H602 H 0.8203 0.35286 0.39474 0.0
H603 H 0.86856 0.33529 0.39558 0.0
H604 H 0.86213 0.38085 0.27372 0.0
H605 H 0.86273 0.32989 0.26976 0.0
H606 H 0.88107 0.38214 0.24764 0.0
H607 H 0.88175 0.33207 0.24382 0.0
H608 H 0.80682 0.35292 0.29453 0.0
H609 H 0.82143 0.38008 0.34179 0.0
H610 H 0.78487 0.37205 0.28952 0.0
H611 H 0.79922 0.39873 0.33594 0.0
H612 H 0.7969 0.29957 0.30541 0.0
H613 H 0.81569 0.3106 0.25153 0.0
H614 H 0.84659 0.42666 0.31446 0.0
H615 H 0.82266 0.4082 0.26629 0.0
Li616 Li 0.64971 0.86802 0.30868 0.0
Li617 Li 0.64306 0.85267 0.33617 0.0
Li618 Li 0.65514 0.84006 0.3082 0.0
Li619 Li 0.62733 0.84841 0.3079 0.0
C620 C 0.67657 0.86656 0.32745 0.0
N621 N 0.70084 0.88823 0.33192 0.0
C622 C 0.6782 0.87477 0.34405 0.0
C623 C 0.68738 0.86922 0.3132 0.0
C624 C 0.69053 0.88572 0.34602 0.0
C625 C 0.69954 0.88027 0.3157 0.0
C626 C 0.61759 0.87517 0.33234 0.0
C627 C 0.59204 0.87389 0.34721 0.0
N628 N 0.5932 0.88955 0.3515 0.0
C629 C 0.61843 0.8913 0.33669 0.0
C630 C 0.60422 0.86642 0.33747 0.0
C631 C 0.60602 0.89833 0.34647 0.0
C632 C 0.657 0.89093 0.28182 0.0
N633 N 0.65613 0.88834 0.30025 0.0
C634 C 0.66326 0.91524 0.30645 0.0
C635 C 0.65913 0.90009 0.31256 0.0
C636 C 0.66407 0.91835 0.28745 0.0
C637 C 0.66098 0.9059 0.27508 0.0
H638 H 0.65427 0.88145 0.27233 0.0
H639 H 0.65814 0.89775 0.32715 0.0
C640 C 0.64679 0.839 0.37103 0.0
N641 N 0.64273 0.85265 0.36226 0.0
C642 C 0.64704 0.83837 0.39022 0.0
C643 C 0.63916 0.86595 0.39099 0.0
C644 C 0.63908 0.86603 0.37179 0.0
C645 C 0.64319 0.85198 0.40047 0.0
H646 H 0.64994 0.82862 0.36308 0.0
H647 H 0.63631 0.87684 0.36451 0.0
C648 C 0.64821 0.846 0.27283 0.0
N649 N 0.65714 0.83188 0.24012 0.0
C650 C 0.63748 0.83647 0.2632 0.0
C651 C 0.66341 0.8485 0.26573 0.0
C652 C 0.64223 0.82941 0.24669 0.0
C653 C 0.66772 0.8412 0.2492 0.0
C654 C 0.62823 0.82028 0.33052 0.0
C655 C 0.62973 0.80494 0.3234 0.0
C656 C 0.61735 0.8232 0.34463 0.0
C657 C 0.62009 0.79284 0.33031 0.0
C658 C 0.60793 0.81079 0.35117 0.0
N659 N 0.60947 0.79599 0.34392 0.0
C660 C 0.68479 0.8249 0.30504 0.0
C661 C 0.66404 0.81275 0.28816 0.0
C662 C 0.69571 0.81396 0.29818 0.0
N663 N 0.66936 0.82423 0.29975 0.0
C664 C 0.67456 0.80172 0.28074 0.0
C665 C 0.6907 0.80229 0.28561 0.0
H666 H 0.68865 0.834 0.31451 0.0
H667 H 0.65165 0.81237 0.28436 0.0
C668 C 0.60009 0.85773 0.28971 0.0
N669 N 0.60683 0.84489 0.29786 0.0
C670 C 0.58523 0.85649 0.28139 0.0
C671 C 0.58446 0.82882 0.29012 0.0
C672 C 0.59941 0.83057 0.29813 0.0
C673 C 0.57723 0.84188 0.28154 0.0
H674 H 0.60633 0.86895 0.28962 0.0
H675 H 0.60509 0.82044 0.30432 0.0
O676 O 0.66446 0.85593 0.32519 0.0
O677 O 0.62964 0.86815 0.32269 0.0
O678 O 0.64381 0.8529 0.28909 0.0
O679 O 0.63762 0.83224 0.3239 0.0
H680 H 0.66998 0.8728 0.35525 0.0
H681 H 0.68633 0.86289 0.30031 0.0
H682 H 0.69189 0.89223 0.35876 0.0
H683 H 0.70793 0.88253 0.30474 0.0
H684 H 0.58165 0.86724 0.3513 0.0
H685 H 0.6286 0.8983 0.33265 0.0
H686 H 0.60315 0.85406 0.33382 0.0
H687 H 0.60657 0.91078 0.35004 0.0
H688 H 0.66568 0.92441 0.31649 0.0
H689 H 0.66113 0.90781 0.26034 0.0
H690 H 0.65049 0.82744 0.39695 0.0
H691 H 0.63604 0.87668 0.39833 0.0
H692 H 0.62565 0.83444 0.26846 0.0
H693 H 0.67183 0.8559 0.27297 0.0
H694 H 0.63409 0.82193 0.23914 0.0
H695 H 0.67949 0.84294 0.24361 0.0
H696 H 0.63819 0.80242 0.31261 0.0
H697 H 0.61628 0.83488 0.35062 0.0
H698 H 0.62106 0.78094 0.32485 0.0
H699 H 0.59944 0.8129 0.36206 0.0
H700 H 0.70792 0.81465 0.30269 0.0
H701 H 0.67013 0.7931 0.27097 0.0
H702 H 0.57999 0.86688 0.27506 0.0
H703 H 0.57875 0.81731 0.29031 0.0
Li704 Li 0.85127 0.62701 0.80358 0.0
Li705 Li 0.85436 0.64391 0.83174 0.0
Li706 Li 0.8423 0.65416 0.80442 0.0
Li707 Li 0.87031 0.64957 0.80454 0.0
C708 C 0.81889 0.63935 0.82017 0.0
N709 N 0.78709 0.64719 0.82012 0.0
C710 C 0.81245 0.64803 0.83475 0.0
C711 C 0.80914 0.6345 0.80567 0.0
C712 C 0.79634 0.65191 0.83445 0.0
C713 C 0.7931 0.63863 0.80587 0.0
C714 C 0.88451 0.62873 0.82882 0.0
C715 C 0.90443 0.64014 0.84862 0.0
N716 N 0.91312 0.6266 0.84717 0.0
C717 C 0.89364 0.61495 0.82748 0.0
C718 C 0.88994 0.64145 0.83943 0.0
C719 C 0.90807 0.6141 0.83689 0.0
C720 C 0.85828 0.601 0.78129 0.0
N721 N 0.84819 0.60632 0.79449 0.0
C722 C 0.83339 0.5822 0.79339 0.0
C723 C 0.83595 0.5973 0.8007 0.0
C724 C 0.84349 0.57645 0.77952 0.0
C725 C 0.85611 0.58604 0.77352 0.0
H726 H 0.86791 0.60851 0.77668 0.0
H727 H 0.82811 0.60191 0.8112 0.0
C728 C 0.84944 0.65684 0.86687 0.0
N729 N 0.8542 0.64361 0.85773 0.0
C730 C 0.84931 0.65706 0.88608 0.0
C731 C 0.85922 0.63012 0.88603 0.0
C732 C 0.85894 0.63035 0.86683 0.0
C733 C 0.85433 0.6436 0.89587 0.0
H734 H 0.84574 0.6672 0.8592 0.0
H735 H 0.86258 0.61998 0.85915 0.0
C736 C 0.85119 0.64319 0.76705 0.0
N737 N 0.8435 0.64202 0.73007 0.0
C738 C 0.85896 0.65306 0.75447 0.0
C739 C 0.83958 0.63263 0.76076 0.0
C740 C 0.85488 0.65232 0.73585 0.0
C741 C 0.83585 0.63225 0.74203 0.0
C742 C 0.86145 0.67996 0.8149 0.0
C743 C 0.8613 0.68395 0.79623 0.0
C744 C 0.86479 0.6916 0.82802 0.0
C745 C 0.86451 0.69956 0.79098 0.0
C746 C 0.86795 0.70709 0.82222 0.0
N747 N 0.86774 0.71072 0.80398 0.0
C748 C 0.8212 0.67968 0.80873 0.0
C749 C 0.82001 0.66801 0.7791 0.0
C750 C 0.80977 0.69088 0.80376 0.0
N751 N 0.82614 0.66859 0.79639 0.0
C752 C 0.80875 0.67908 0.77347 0.0
C753 C 0.80359 0.69075 0.78584 0.0
H754 H 0.82622 0.67987 0.82243 0.0
H755 H 0.82381 0.65904 0.76957 0.0
C756 C 0.8955 0.64854 0.78003 0.0
N757 N 0.89041 0.65589 0.79557 0.0
C758 C 0.91013 0.65247 0.77235 0.0
C759 C 0.91422 0.6712 0.79712 0.0
C760 C 0.89941 0.66701 0.80423 0.0
C761 C 0.91969 0.66394 0.78092 0.0
H762 H 0.88818 0.63956 0.77363 0.0
H763 H 0.89512 0.67257 0.81669 0.0
O764 O 0.83472 0.63583 0.81997 0.0
O765 O 0.87043 0.62979 0.81955 0.0
O766 O 0.85524 0.64358 0.7853 0.0
O767 O 0.85839 0.66475 0.82043 0.0
H768 H 0.81984 0.65187 0.84607 0.0
H769 H 0.81394 0.62774 0.79431 0.0
H770 H 0.79121 0.65872 0.84558 0.0
H771 H 0.78543 0.63506 0.79467 0.0
H772 H 0.90879 0.64989 0.85687 0.0
H773 H 0.88961 0.60503 0.81925 0.0
H774 H 0.88307 0.65225 0.84053 0.0
H775 H 0.91527 0.6035 0.83599 0.0
H776 H 0.82346 0.57522 0.79828 0.0
H777 H 0.86428 0.58196 0.76304 0.0
H778 H 0.84556 0.66771 0.8932 0.0
H779 H 0.86302 0.61948 0.89312 0.0
H780 H 0.86808 0.6612 0.759 0.0
H781 H 0.83338 0.62495 0.77023 0.0
H782 H 0.86078 0.65992 0.72599 0.0
H783 H 0.82685 0.62419 0.73701 0.0
H784 H 0.85866 0.67513 0.78592 0.0
H785 H 0.86497 0.68868 0.84253 0.0
H786 H 0.86441 0.70282 0.77657 0.0
H787 H 0.87057 0.71622 0.83223 0.0
H788 H 0.80608 0.69976 0.81366 0.0
H789 H 0.80406 0.67848 0.7596 0.0
H790 H 0.91404 0.64639 0.76003 0.0
H791 H 0.92126 0.68011 0.80411 0.0
Li792 Li 0.36704 0.84892 0.80584 0.0
Li793 Li 0.35234 0.85386 0.83294 0.0
Li794 Li 0.34012 0.84046 0.80745 0.0
Li795 Li 0.34547 0.86965 0.80611 0.0
C796 C 0.37036 0.82249 0.82237 0.0
N797 N 0.39619 0.80231 0.82084 0.0
C798 C 0.38165 0.82255 0.83648 0.0
C799 C 0.37226 0.81216 0.80747 0.0
C800 C 0.39459 0.81224 0.83547 0.0
C801 C 0.38539 0.80206 0.80694 0.0
C802 C 0.37225 0.87865 0.83301 0.0
C803 C 0.37426 0.90397 0.84832 0.0
N804 N 0.38489 0.89764 0.86034 0.0
C805 C 0.38327 0.87243 0.84545 0.0
C806 C 0.36774 0.89457 0.8344 0.0
C807 C 0.38948 0.8822 0.8592 0.0
C808 C 0.38832 0.84174 0.77695 0.0
N809 N 0.38737 0.84479 0.79529 0.0
C810 C 0.41546 0.8423 0.79842 0.0
C811 C 0.40057 0.84525 0.80602 0.0
C812 C 0.41681 0.83913 0.77951 0.0
C813 C 0.403 0.83887 0.76872 0.0
H814 H 0.37769 0.84166 0.76866 0.0
H815 H 0.39955 0.84792 0.82049 0.0
C816 C 0.35364 0.84085 0.86866 0.0
N817 N 0.3522 0.85472 0.85928 0.0
C818 C 0.35323 0.84072 0.88785 0.0
C819 C 0.34905 0.86909 0.88742 0.0
C820 C 0.34966 0.86867 0.86824 0.0
C821 C 0.35097 0.85499 0.89746 0.0
H822 H 0.35485 0.82981 0.86123 0.0
H823 H 0.34789 0.87946 0.86049 0.0
C824 C 0.3417 0.84809 0.77229 0.0
N825 N 0.32376 0.83786 0.74274 0.0
C826 C 0.32988 0.85785 0.76494 0.0
C827 C 0.34447 0.83318 0.7645 0.0
C828 C 0.32093 0.85245 0.75001 0.0
C829 C 0.33524 0.8282 0.74961 0.0
C830 C 0.32119 0.85675 0.83714 0.0
C831 C 0.31724 0.8418 0.84411 0.0
C832 C 0.3157 0.87039 0.84603 0.0
C833 C 0.30786 0.84076 0.85992 0.0
C834 C 0.30635 0.86884 0.8618 0.0
N835 N 0.30266 0.85418 0.86837 0.0
C836 C 0.32775 0.80942 0.80239 0.0
C837 C 0.3109 0.83047 0.79314 0.0
C838 C 0.31665 0.79824 0.79649 0.0
N839 N 0.32481 0.82516 0.8003 0.0
C840 C 0.29948 0.81973 0.78702 0.0
C841 C 0.30236 0.80336 0.78851 0.0
H842 H 0.33867 0.80552 0.80869 0.0
H843 H 0.30879 0.84309 0.79196 0.0
C844 C 0.34954 0.89689 0.78519 0.0
N845 N 0.3391 0.88941 0.79646 0.0
C846 C 0.34563 0.91146 0.77732 0.0
C847 C 0.32027 0.91035 0.79288 0.0
C848 C 0.32464 0.89571 0.80033 0.0
C849 C 0.33084 0.91838 0.78118 0.0
H850 H 0.36092 0.8915 0.78235 0.0
H851 H 0.31647 0.88932 0.80908 0.0
O852 O 0.35771 0.83268 0.82294 0.0
O853 O 0.36602 0.86931 0.81941 0.0
O854 O 0.35038 0.85304 0.78715 0.0
O855 O 0.33078 0.85799 0.82202 0.0
H856 H 0.38063 0.83065 0.84794 0.0
H857 H 0.36383 0.81209 0.79628 0.0
H858 H 0.40344 0.81222 0.84626 0.0
H859 H 0.38703 0.79409 0.79543 0.0
H860 H 0.37084 0.91629 0.8496 0.0
H861 H 0.38671 0.8601 0.84477 0.0
H862 H 0.35925 0.89961 0.82489 0.0
H863 H 0.39791 0.8775 0.86902 0.0
H864 H 0.42586 0.84286 0.80716 0.0
H865 H 0.40354 0.83643 0.75409 0.0
H866 H 0.35436 0.82954 0.89509 0.0
H867 H 0.34721 0.88032 0.89433 0.0
H868 H 0.32751 0.86939 0.77078 0.0
H869 H 0.35352 0.82544 0.77001 0.0
H870 H 0.31169 0.85985 0.74425 0.0
H871 H 0.33719 0.81664 0.74355 0.0
H872 H 0.32157 0.83112 0.83756 0.0
H873 H 0.31887 0.88205 0.84101 0.0
H874 H 0.30477 0.82927 0.86552 0.0
H875 H 0.3021 0.87929 0.86889 0.0
H876 H 0.31919 0.78574 0.79827 0.0
H877 H 0.28867 0.82419 0.78087 0.0
H878 H 0.35417 0.91736 0.76854 0.0
H879 H 0.3087 0.91523 0.79601 0.0
Li880 Li 0.14792 0.36764 0.81102 0.0
Li881 Li 0.14294 0.35261 0.83787 0.0
Li882 Li 0.15564 0.34076 0.81101 0.0
Li883 Li 0.12692 0.3476 0.80945 0.0
C884 C 0.1747 0.36927 0.82976 0.0
N885 N 0.1965 0.39341 0.83453 0.0
C886 C 0.17533 0.37759 0.8464 0.0
C887 C 0.18523 0.37318 0.81559 0.0
C888 C 0.18643 0.38975 0.84854 0.0
C889 C 0.19613 0.38545 0.81825 0.0
C890 C 0.12313 0.38208 0.82628 0.0
C891 C 0.11085 0.40485 0.81211 0.0
N892 N 0.11458 0.41371 0.82715 0.0
C893 C 0.1268 0.39139 0.84162 0.0
C894 C 0.11501 0.38882 0.81144 0.0
C895 C 0.12238 0.40736 0.8418 0.0
C896 C 0.15165 0.39026 0.78301 0.0
N897 N 0.15274 0.38835 0.80154 0.0
C898 C 0.15852 0.41593 0.80544 0.0
C899 C 0.15616 0.4008 0.81277 0.0
C900 C 0.15728 0.41827 0.78635 0.0
C901 C 0.15396 0.40515 0.77508 0.0
H902 H 0.14869 0.38028 0.77435 0.0
H903 H 0.1567 0.39913 0.82748 0.0
C904 C 0.1551 0.34628 0.87299 0.0
N905 N 0.14224 0.35205 0.86393 0.0
C906 C 0.15517 0.34552 0.89216 0.0
C907 C 0.12868 0.35654 0.89231 0.0
C908 C 0.1291 0.357 0.8731 0.0
C909 C 0.14188 0.35081 0.90211 0.0
H910 H 0.1653 0.34225 0.86526 0.0
H911 H 0.11897 0.36134 0.86548 0.0
C912 C 0.14926 0.34485 0.77597 0.0
N913 N 0.16087 0.32902 0.74552 0.0
C914 C 0.14034 0.3328 0.76775 0.0
C915 C 0.16403 0.34893 0.76863 0.0
C916 C 0.14642 0.32493 0.75237 0.0
C917 C 0.16972 0.34076 0.75326 0.0
C918 C 0.13741 0.32189 0.84021 0.0
C919 C 0.15084 0.3131 0.84505 0.0
C920 C 0.12383 0.32109 0.85121 0.0
C921 C 0.15045 0.30364 0.86083 0.0
C922 C 0.12392 0.31152 0.86691 0.0
N923 N 0.13711 0.30306 0.87135 0.0
C924 C 0.18635 0.32852 0.80426 0.0
C925 C 0.16508 0.31182 0.79529 0.0
C926 C 0.19737 0.31761 0.79756 0.0
N927 N 0.17057 0.32552 0.8028 0.0
C928 C 0.17567 0.30061 0.78833 0.0
C929 C 0.19207 0.30349 0.78932 0.0
H930 H 0.19038 0.33938 0.81059 0.0
H931 H 0.15245 0.30971 0.79451 0.0
C932 C 0.10256 0.35042 0.7838 0.0
N933 N 0.10704 0.34227 0.79907 0.0
C934 C 0.08808 0.34715 0.77532 0.0
C935 C 0.08317 0.32701 0.79834 0.0
C936 C 0.09779 0.33066 0.80636 0.0
C937 C 0.07815 0.33534 0.78262 0.0
H938 H 0.11028 0.35945 0.77818 0.0
H939 H 0.10178 0.32418 0.81832 0.0
O940 O 0.16396 0.35727 0.82744 0.0
O941 O 0.12752 0.36647 0.82575 0.0
O942 O 0.14367 0.35247 0.79128 0.0
O943 O 0.13773 0.33158 0.82511 0.0
H944 H 0.16722 0.37482 0.85748 0.0
H945 H 0.18486 0.36693 0.8026 0.0
H946 H 0.187 0.39634 0.8613 0.0
H947 H 0.20427 0.38866 0.80736 0.0
H948 H 0.10467 0.41026 0.80067 0.0
H949 H 0.13323 0.38641 0.85314 0.0
H950 H 0.11213 0.38181 0.79944 0.0
H951 H 0.12523 0.41473 0.85353 0.0
H952 H 0.1608 0.42574 0.81468 0.0
H953 H 0.15305 0.40638 0.76028 0.0
H954 H 0.16548 0.34073 0.8991 0.0
H955 H 0.11824 0.36086 0.89939 0.0
H956 H 0.12894 0.3294 0.77333 0.0
H957 H 0.17108 0.35822 0.77482 0.0
H958 H 0.13969 0.31552 0.74593 0.0
H959 H 0.18117 0.34372 0.7475 0.0
H960 H 0.16152 0.31371 0.83683 0.0
H961 H 0.11344 0.32806 0.8479 0.0
H962 H 0.16077 0.29681 0.86477 0.0
H963 H 0.11353 0.31088 0.87563 0.0
H964 H 0.2099 0.32017 0.79894 0.0
H965 H 0.17104 0.28997 0.78195 0.0
H966 H 0.08462 0.35397 0.76335 0.0
H967 H 0.07597 0.31767 0.80426 0.0
Li968 Li 0.62679 0.14414 0.8068 0.0
Li969 Li 0.64492 0.14238 0.83342 0.0
Li970 Li 0.65422 0.15369 0.80458 0.0
Li971 Li 0.65023 0.12555 0.80767 0.0
C972 C 0.63298 0.17677 0.81591 0.0
N973 N 0.6257 0.20755 0.806 0.0
C974 C 0.63477 0.18907 0.82862 0.0
C975 C 0.62754 0.18011 0.79816 0.0
C976 C 0.631 0.20457 0.82335 0.0
C977 C 0.62391 0.19575 0.79341 0.0
C978 C 0.6235 0.12043 0.8389 0.0
C979 C 0.62398 0.10554 0.86727 0.0
N980 N 0.60909 0.11074 0.87118 0.0
C981 C 0.60816 0.12555 0.84315 0.0
C982 C 0.63144 0.11026 0.85099 0.0
C983 C 0.60109 0.12053 0.85955 0.0
C984 C 0.60068 0.13573 0.78571 0.0
N985 N 0.60555 0.1462 0.79874 0.0
C986 C 0.5799 0.15823 0.79956 0.0
C987 C 0.59554 0.15727 0.80584 0.0
C988 C 0.57455 0.1476 0.78601 0.0
C989 C 0.58518 0.13624 0.77907 0.0
H990 H 0.60892 0.12699 0.78045 0.0
H991 H 0.59966 0.16525 0.81647 0.0
C992 C 0.65904 0.14013 0.86854 0.0
N993 N 0.64566 0.14444 0.85941 0.0
C994 C 0.65961 0.14091 0.8877 0.0
C995 C 0.63276 0.15099 0.88768 0.0
C996 C 0.63274 0.15006 0.86849 0.0
C997 C 0.6463 0.14624 0.89755 0.0
H998 H 0.66927 0.13607 0.86096 0.0
H999 H 0.62233 0.1536 0.86081 0.0
C1000 C 0.64705 0.14301 0.76974 0.0
N1001 N 0.65592 0.15039 0.73412 0.0
C1002 C 0.66287 0.14151 0.76429 0.0
C1003 C 0.63574 0.14832 0.75709 0.0
C1004 C 0.66713 0.1453 0.74623 0.0
C1005 C 0.64046 0.15197 0.73914 0.0
C1006 C 0.67869 0.12939 0.82052 0.0
C1007 C 0.69114 0.13285 0.80844 0.0
C1008 C 0.67957 0.11588 0.83165 0.0
C1009 C 0.70421 0.12269 0.80764 0.0
C1010 C 0.69283 0.10599 0.83041 0.0
N1011 N 0.70477 0.10957 0.81853 0.0
C1012 C 0.68001 0.17409 0.80552 0.0
C1013 C 0.66399 0.17819 0.77914 0.0
C1014 C 0.69066 0.18568 0.79965 0.0
N1015 N 0.66721 0.17029 0.79505 0.0
C1016 C 0.67435 0.18987 0.77272 0.0
C1017 C 0.68802 0.19358 0.78291 0.0
H1018 H 0.68202 0.16795 0.81838 0.0
H1019 H 0.65348 0.17537 0.7713 0.0
C1020 C 0.64795 0.09239 0.80681 0.0
N1021 N 0.65652 0.10476 0.80011 0.0
C1022 C 0.65151 0.07689 0.80154 0.0
C1023 C 0.67267 0.08708 0.78248 0.0
C1024 C 0.6687 0.10239 0.78815 0.0
C1025 C 0.66396 0.07409 0.78912 0.0
H1026 H 0.63814 0.09456 0.81604 0.0
H1027 H 0.67537 0.11234 0.78296 0.0
O1028 O 0.63673 0.16157 0.82082 0.0
O1029 O 0.63076 0.12549 0.8231 0.0
O1030 O 0.64263 0.13939 0.78737 0.0
O1031 O 0.66571 0.13912 0.82142 0.0
H1032 H 0.63901 0.18666 0.84241 0.0
H1033 H 0.62621 0.17073 0.78811 0.0
H1034 H 0.63229 0.21422 0.83305 0.0
H1035 H 0.61971 0.1985 0.77971 0.0
H1036 H 0.63004 0.09777 0.87681 0.0
H1037 H 0.60182 0.13341 0.83398 0.0
H1038 H 0.6433 0.10617 0.84793 0.0
H1039 H 0.58926 0.12447 0.86305 0.0
H1040 H 0.57203 0.16702 0.80546 0.0
H1041 H 0.58162 0.12794 0.76848 0.0
H1042 H 0.67041 0.13747 0.89471 0.0
H1043 H 0.62219 0.15507 0.8947 0.0
H1044 H 0.67185 0.13789 0.77401 0.0
H1045 H 0.62346 0.14967 0.76108 0.0
H1046 H 0.67935 0.14429 0.74187 0.0
H1047 H 0.63183 0.15609 0.72921 0.0
H1048 H 0.69068 0.14316 0.79963 0.0
H1049 H 0.67004 0.11294 0.84099 0.0
H1050 H 0.71388 0.12519 0.79829 0.0
H1051 H 0.6936 0.09545 0.83886 0.0
H1052 H 0.70083 0.18844 0.80817 0.0
H1053 H 0.67185 0.19568 0.75975 0.0
H1054 H 0.6443 0.06724 0.80675 0.0
H1055 H 0.68244 0.08543 0.77299 0.0
Li1056 Li 0.87038 0.34481 0.68626 0.0
Li1057 Li 0.84235 0.33822 0.68991 0.0
Li1058 Li 0.85327 0.34892 0.66019 0.0
Li1059 Li 0.84992 0.36639 0.68687 0.0
C1060 C 0.86791 0.31575 0.67314 0.0
N1061 N 0.88854 0.29032 0.67455 0.0
C1062 C 0.86538 0.30348 0.68575 0.0
C1063 C 0.88081 0.315 0.6611 0.0
C1064 C 0.87597 0.29074 0.68628 0.0
C1065 C 0.89115 0.30208 0.66207 0.0
C1066 C 0.85073 0.3513 0.72445 0.0
C1067 C 0.83171 0.35951 0.74735 0.0
N1068 N 0.84027 0.35186 0.76051 0.0
C1069 C 0.85944 0.34369 0.73824 0.0
C1070 C 0.83685 0.35942 0.72907 0.0
C1071 C 0.85392 0.34404 0.75637 0.0
C1072 C 0.90365 0.34772 0.68702 0.0
N1073 N 0.89124 0.33936 0.69396 0.0
C1074 C 0.90873 0.32394 0.71268 0.0
C1075 C 0.89348 0.32763 0.70655 0.0
C1076 C 0.92178 0.33245 0.70581 0.0
C1077 C 0.91909 0.34442 0.69272 0.0
H1078 H 0.90154 0.35717 0.67728 0.0
H1079 H 0.88339 0.32121 0.71192 0.0
C1080 C 0.81419 0.32082 0.68993 0.0
N1081 N 0.82733 0.32398 0.70013 0.0
C1082 C 0.80253 0.31062 0.69666 0.0
C1083 C 0.81837 0.30672 0.72404 0.0
C1084 C 0.82971 0.31703 0.71678 0.0
C1085 C 0.80451 0.30348 0.71398 0.0
H1086 H 0.81278 0.32627 0.67655 0.0
H1087 H 0.84046 0.31936 0.72438 0.0
C1088 C 0.875 0.37187 0.65586 0.0
N1089 N 0.88706 0.38732 0.62536 0.0
C1090 C 0.87118 0.38776 0.65259 0.0
C1091 C 0.88512 0.3639 0.64373 0.0
C1092 C 0.87736 0.39535 0.63707 0.0
C1093 C 0.89104 0.3719 0.62835 0.0
C1094 C 0.81877 0.36162 0.67244 0.0
C1095 C 0.81381 0.36932 0.65639 0.0
C1096 C 0.80852 0.3608 0.68754 0.0
C1097 C 0.79884 0.37641 0.65589 0.0
C1098 C 0.79364 0.36802 0.68649 0.0
N1099 N 0.78916 0.37564 0.67083 0.0
C1100 C 0.85242 0.33314 0.62612 0.0
C1101 C 0.84899 0.36099 0.62405 0.0
C1102 C 0.85113 0.33166 0.60704 0.0
N1103 N 0.85143 0.34765 0.63418 0.0
C1104 C 0.84781 0.36008 0.60493 0.0
C1105 C 0.84887 0.34526 0.59615 0.0
H1106 H 0.8541 0.3227 0.63453 0.0
H1107 H 0.84802 0.37236 0.63081 0.0
C1108 C 0.85284 0.3923 0.71067 0.0
N1109 N 0.84563 0.3874 0.69493 0.0
C1110 C 0.85037 0.40763 0.71729 0.0
C1111 C 0.83343 0.41277 0.69111 0.0
C1112 C 0.83617 0.3973 0.68505 0.0
C1113 C 0.84055 0.41809 0.70746 0.0
H1114 H 0.86062 0.38431 0.71802 0.0
H1115 H 0.83098 0.39332 0.67229 0.0
O1116 O 0.8578 0.32842 0.67261 0.0
O1117 O 0.85598 0.35102 0.70661 0.0
O1118 O 0.86897 0.36421 0.67092 0.0
O1119 O 0.83338 0.35452 0.67309 0.0
H1120 H 0.85542 0.30384 0.69512 0.0
H1121 H 0.88286 0.32432 0.65116 0.0
H1122 H 0.87422 0.28121 0.69604 0.0
H1123 H 0.90124 0.30139 0.65292 0.0
H1124 H 0.82097 0.36574 0.75109 0.0
H1125 H 0.87032 0.33751 0.73499 0.0
H1126 H 0.83022 0.36578 0.71872 0.0
H1127 H 0.86049 0.33811 0.76715 0.0
H1128 H 0.91029 0.31455 0.7227 0.0
H1129 H 0.92877 0.35147 0.68732 0.0
H1130 H 0.79218 0.3082 0.6883 0.0
H1131 H 0.82036 0.3015 0.73747 0.0
H1132 H 0.86348 0.39415 0.6619 0.0
H1133 H 0.88826 0.35164 0.6461 0.0
H1134 H 0.87443 0.40762 0.63432 0.0
H1135 H 0.89878 0.36584 0.61879 0.0
H1136 H 0.82146 0.36991 0.64448 0.0
H1137 H 0.81189 0.35446 0.69985 0.0
H1138 H 0.79492 0.38252 0.6436 0.0
H1139 H 0.78562 0.36749 0.6981 0.0
H1140 H 0.8517 0.31995 0.60095 0.0
H1141 H 0.84628 0.37092 0.59714 0.0
H1142 H 0.85636 0.41136 0.72974 0.0
H1143 H 0.8258 0.42047 0.6831 0.0
Li1144 Li 0.6485 0.86815 0.68947 0.0
Li1145 Li 0.65448 0.83996 0.69177 0.0
Li1146 Li 0.64518 0.85156 0.663 0.0
Li1147 Li 0.62743 0.84833 0.68917 0.0
C1148 C 0.67788 0.86561 0.67862 0.0
N1149 N 0.70307 0.88586 0.68494 0.0
C1150 C 0.68926 0.86185 0.69192 0.0
C1151 C 0.67936 0.87962 0.66846 0.0
C1152 C 0.70191 0.87225 0.69491 0.0
C1153 C 0.69216 0.88973 0.6719 0.0
C1154 C 0.63254 0.8539 0.72381 0.0
C1155 C 0.61628 0.84102 0.74669 0.0
N1156 N 0.61067 0.85541 0.75208 0.0
C1157 C 0.62664 0.86857 0.7296 0.0
C1158 C 0.62738 0.84001 0.73245 0.0
C1159 C 0.61559 0.86908 0.74392 0.0
C1160 C 0.64828 0.9018 0.69104 0.0
N1161 N 0.65432 0.88838 0.69865 0.0
C1162 C 0.66835 0.90346 0.72121 0.0
C1163 C 0.66416 0.88892 0.71345 0.0
C1164 C 0.66223 0.91756 0.71373 0.0
C1165 C 0.65214 0.91661 0.69836 0.0
H1166 H 0.64022 0.901 0.67952 0.0
H1167 H 0.66862 0.87801 0.71933 0.0
C1168 C 0.67877 0.8172 0.69084 0.0
N1169 N 0.6687 0.82509 0.70221 0.0
C1170 C 0.68952 0.80626 0.698 0.0
C1171 C 0.67975 0.81222 0.72853 0.0
C1172 C 0.66905 0.82292 0.72074 0.0
C1173 C 0.69017 0.80368 0.71712 0.0
H1174 H 0.67841 0.81942 0.67619 0.0
H1175 H 0.66116 0.82965 0.72948 0.0
C1176 C 0.6229 0.87254 0.65753 0.0
N1177 N 0.60929 0.88213 0.62475 0.0
C1178 C 0.60812 0.86659 0.65223 0.0
C1179 C 0.63074 0.88341 0.64619 0.0
C1180 C 0.60143 0.87159 0.63562 0.0
C1181 C 0.62368 0.88808 0.62965 0.0
C1182 C 0.64211 0.81609 0.67336 0.0
C1183 C 0.64944 0.8105 0.65736 0.0
C1184 C 0.63961 0.80575 0.68813 0.0
C1185 C 0.65422 0.79465 0.65644 0.0
C1186 C 0.6446 0.78999 0.68669 0.0
N1187 N 0.65173 0.78481 0.67101 0.0
C1188 C 0.65902 0.85657 0.62789 0.0
C1189 C 0.634 0.84372 0.62779 0.0
C1190 C 0.65949 0.85636 0.60868 0.0
N1191 N 0.64632 0.85046 0.63696 0.0
C1192 C 0.63395 0.84328 0.6086 0.0
C1193 C 0.64678 0.84974 0.59878 0.0
H1194 H 0.66874 0.86166 0.63555 0.0
H1195 H 0.62411 0.83887 0.63543 0.0
C1196 C 0.59693 0.85738 0.70005 0.0
N1197 N 0.60617 0.84454 0.69649 0.0
C1198 C 0.58127 0.85538 0.70578 0.0
C1199 C 0.58495 0.82696 0.70414 0.0
C1200 C 0.60051 0.82952 0.69828 0.0
C1201 C 0.57513 0.84 0.70794 0.0
H1202 H 0.60178 0.86918 0.69851 0.0
H1203 H 0.60808 0.81954 0.6952 0.0
O1204 O 0.66523 0.85574 0.67573 0.0
O1205 O 0.64302 0.8531 0.70947 0.0
O1206 O 0.6298 0.86754 0.67356 0.0
O1207 O 0.63751 0.83162 0.6746 0.0
H1208 H 0.68828 0.85111 0.69997 0.0
H1209 H 0.67058 0.88281 0.65825 0.0
H1210 H 0.71076 0.86953 0.70521 0.0
H1211 H 0.69339 0.90067 0.66424 0.0
H1212 H 0.61209 0.83036 0.7534 0.0
H1213 H 0.63039 0.87943 0.72297 0.0
H1214 H 0.63169 0.82854 0.728 0.0
H1215 H 0.61086 0.88034 0.74849 0.0
H1216 H 0.67625 0.90366 0.73296 0.0
H1217 H 0.64691 0.92715 0.69239 0.0
H1218 H 0.69715 0.79984 0.68862 0.0
H1219 H 0.68003 0.81089 0.74335 0.0
H1220 H 0.60195 0.85803 0.66071 0.0
H1221 H 0.64228 0.88798 0.64994 0.0
H1222 H 0.59003 0.86702 0.6313 0.0
H1223 H 0.62967 0.89639 0.62067 0.0
H1224 H 0.65157 0.81834 0.64583 0.0
H1225 H 0.63418 0.80991 0.70072 0.0
H1226 H 0.65996 0.79018 0.64418 0.0
H1227 H 0.64286 0.7819 0.69807 0.0
H1228 H 0.66973 0.86123 0.60168 0.0
H1229 H 0.62384 0.83821 0.60154 0.0
H1230 H 0.57412 0.86574 0.70877 0.0
H1231 H 0.58059 0.81493 0.70547 0.0
Li1232 Li 0.12637 0.64882 0.68594 0.0
Li1233 Li 0.15424 0.65532 0.68924 0.0
Li1234 Li 0.14358 0.64315 0.66107 0.0
Li1235 Li 0.14582 0.62703 0.68835 0.0
C1236 C 0.12882 0.67683 0.67146 0.0
N1237 N 0.10742 0.70164 0.67225 0.0
C1238 C 0.12997 0.6885 0.68505 0.0
C1239 C 0.1169 0.67787 0.65814 0.0
C1240 C 0.11901 0.70093 0.68525 0.0
C1241 C 0.10616 0.69047 0.65881 0.0
C1242 C 0.14791 0.64025 0.72316 0.0
C1243 C 0.17149 0.6334 0.74018 0.0
N1244 N 0.16279 0.63285 0.75593 0.0
C1245 C 0.13919 0.63961 0.7395 0.0
C1246 C 0.16419 0.63711 0.72347 0.0
C1247 C 0.14694 0.63586 0.75594 0.0
C1248 C 0.09276 0.65022 0.68484 0.0
N1249 N 0.10593 0.65541 0.69377 0.0
C1250 C 0.09008 0.66972 0.7154 0.0
C1251 C 0.10489 0.66497 0.70879 0.0
C1252 C 0.07624 0.66447 0.70652 0.0
C1253 C 0.07773 0.65465 0.69098 0.0
H1254 H 0.09389 0.6424 0.67317 0.0
H1255 H 0.11559 0.66881 0.71569 0.0
C1256 C 0.18142 0.67474 0.68943 0.0
N1257 N 0.16861 0.67021 0.69948 0.0
C1258 C 0.19225 0.68561 0.69662 0.0
C1259 C 0.17628 0.68724 0.7242 0.0
C1260 C 0.16576 0.67635 0.71647 0.0
C1261 C 0.18978 0.69195 0.71428 0.0
H1262 H 0.18312 0.67002 0.67577 0.0
H1263 H 0.15529 0.67281 0.72401 0.0
C1264 C 0.12079 0.62093 0.65726 0.0
N1265 N 0.10798 0.60504 0.62748 0.0
C1266 C 0.12332 0.60464 0.65512 0.0
C1267 C 0.11162 0.62909 0.64432 0.0
C1268 C 0.11676 0.59683 0.63996 0.0
C1269 C 0.10529 0.62087 0.62934 0.0
C1270 C 0.17276 0.62894 0.66276 0.0
C1271 C 0.16892 0.61331 0.65812 0.0
C1272 C 0.18614 0.63603 0.65491 0.0
C1273 C 0.17853 0.60503 0.64576 0.0
C1274 C 0.19546 0.62736 0.6426 0.0
N1275 N 0.1915 0.61216 0.63832 0.0
C1276 C 0.14656 0.65772 0.6264 0.0
C1277 C 0.14657 0.62964 0.62496 0.0
C1278 C 0.14766 0.65872 0.60725 0.0
N1279 N 0.14583 0.64333 0.63483 0.0
C1280 C 0.14752 0.63008 0.60582 0.0
C1281 C 0.14795 0.64476 0.59673 0.0
H1282 H 0.14614 0.66844 0.63454 0.0
H1283 H 0.14617 0.61832 0.63186 0.0
C1284 C 0.13643 0.5981 0.70353 0.0
N1285 N 0.1494 0.60679 0.69896 0.0
C1286 C 0.13818 0.58293 0.71091 0.0
C1287 C 0.16665 0.58617 0.70932 0.0
C1288 C 0.16434 0.60128 0.70193 0.0
C1289 C 0.15346 0.57672 0.71372 0.0
H1290 H 0.1247 0.60293 0.70124 0.0
H1291 H 0.17445 0.60855 0.69835 0.0
O1292 O 0.13919 0.66435 0.67132 0.0
O1293 O 0.14044 0.6438 0.70696 0.0
O1294 O 0.12712 0.62877 0.67205 0.0
O1295 O 0.16348 0.63727 0.67485 0.0
H1296 H 0.13911 0.68788 0.69547 0.0
H1297 H 0.11592 0.66902 0.64743 0.0
H1298 H 0.11969 0.70998 0.69577 0.0
H1299 H 0.09682 0.69138 0.64865 0.0
H1300 H 0.18408 0.63094 0.74062 0.0
H1301 H 0.12657 0.64199 0.73946 0.0
H1302 H 0.17112 0.63754 0.71095 0.0
H1303 H 0.14034 0.63532 0.7687 0.0
H1304 H 0.08949 0.67739 0.72734 0.0
H1305 H 0.06739 0.65005 0.68393 0.0
H1306 H 0.20233 0.68917 0.68835 0.0
H1307 H 0.17395 0.69177 0.73789 0.0
H1308 H 0.13034 0.59809 0.66498 0.0
H1309 H 0.1096 0.6417 0.64568 0.0
H1310 H 0.11869 0.58424 0.6381 0.0
H1311 H 0.09828 0.62707 0.61915 0.0
H1312 H 0.15846 0.60771 0.66371 0.0
H1313 H 0.18932 0.64811 0.65823 0.0
H1314 H 0.17563 0.59295 0.64201 0.0
H1315 H 0.20584 0.63271 0.63644 0.0
H1316 H 0.14791 0.67027 0.60073 0.0
H1317 H 0.14796 0.61904 0.5982 0.0
H1318 H 0.12769 0.57616 0.71443 0.0
H1319 H 0.17863 0.5818 0.71118 0.0
Li1320 Li 0.34253 0.12463 0.68494 0.0
Li1321 Li 0.33724 0.15296 0.68897 0.0
Li1322 Li 0.34845 0.14197 0.65954 0.0
Li1323 Li 0.36508 0.14398 0.68707 0.0
C1324 C 0.31412 0.12887 0.67018 0.0
N1325 N 0.28754 0.10971 0.66911 0.0
C1326 C 0.301 0.13237 0.68122 0.0
C1327 C 0.31365 0.11575 0.65842 0.0
C1328 C 0.28769 0.12251 0.68051 0.0
C1329 C 0.30013 0.10617 0.65814 0.0
C1330 C 0.34906 0.14265 0.72392 0.0
C1331 C 0.35818 0.15979 0.74832 0.0
N1332 N 0.34983 0.15102 0.7607 0.0
C1333 C 0.34074 0.1337 0.73692 0.0
C1334 C 0.35799 0.15571 0.72968 0.0
C1335 C 0.3412 0.13817 0.75543 0.0
C1336 C 0.34462 0.09138 0.68701 0.0
N1337 N 0.33583 0.10409 0.69229 0.0
C1338 C 0.31844 0.08742 0.70963 0.0
C1339 C 0.32295 0.10242 0.70337 0.0
C1340 C 0.32742 0.07405 0.70463 0.0
C1341 C 0.34061 0.07618 0.69304 0.0
H1342 H 0.35497 0.09308 0.67847 0.0
H1343 H 0.31631 0.11277 0.70759 0.0
C1344 C 0.32051 0.18176 0.68998 0.0
N1345 N 0.32318 0.16805 0.69932 0.0
C1346 C 0.31006 0.19309 0.697 0.0
C1347 C 0.30514 0.17584 0.72298 0.0
C1348 C 0.31564 0.16485 0.71543 0.0
C1349 C 0.30222 0.1902 0.71375 0.0
H1350 H 0.32645 0.18385 0.677 0.0
H1351 H 0.31759 0.15367 0.7223 0.0
C1352 C 0.37054 0.11938 0.65581 0.0
N1353 N 0.38679 0.10754 0.62577 0.0
C1354 C 0.38643 0.12345 0.65298 0.0
C1355 C 0.36298 0.10913 0.64349 0.0
C1356 C 0.39443 0.11737 0.63768 0.0
C1357 C 0.37137 0.10332 0.62835 0.0
C1358 C 0.36221 0.17578 0.67381 0.0
C1359 C 0.37075 0.18117 0.65855 0.0
C1360 C 0.36115 0.18531 0.6895 0.0
C1361 C 0.37841 0.19585 0.65941 0.0
C1362 C 0.36896 0.19992 0.68983 0.0
N1363 N 0.37738 0.20483 0.67491 0.0
C1364 C 0.33422 0.14275 0.62449 0.0
C1365 C 0.36204 0.14673 0.62421 0.0
C1366 C 0.33364 0.14391 0.60534 0.0
N1367 N 0.3483 0.14404 0.63347 0.0
C1368 C 0.36203 0.14784 0.60504 0.0
C1369 C 0.34769 0.14638 0.59532 0.0
H1370 H 0.32343 0.14087 0.6322 0.0
H1371 H 0.37305 0.1479 0.63169 0.0
C1372 C 0.38981 0.13691 0.7109 0.0
N1373 N 0.38591 0.14658 0.69663 0.0
C1374 C 0.40492 0.13758 0.71865 0.0
C1375 C 0.41183 0.15805 0.69676 0.0
C1376 C 0.39656 0.15697 0.68941 0.0
C1377 C 0.41619 0.14822 0.71154 0.0
H1378 H 0.38116 0.12861 0.71621 0.0
H1379 H 0.39336 0.1642 0.67774 0.0
O1380 O 0.32732 0.13828 0.67083 0.0
O1381 O 0.34872 0.13839 0.70574 0.0
O1382 O 0.36248 0.12532 0.67062 0.0
O1383 O 0.35459 0.16144 0.67313 0.0
H1384 H 0.30112 0.14252 0.6903 0.0
H1385 H 0.32365 0.11296 0.6497 0.0
H1386 H 0.27748 0.12502 0.68905 0.0
H1387 H 0.29965 0.09592 0.6492 0.0
H1388 H 0.36503 0.16988 0.75295 0.0
H1389 H 0.33391 0.12345 0.73276 0.0
H1390 H 0.36489 0.16249 0.71994 0.0
H1391 H 0.33472 0.13141 0.76562 0.0
H1392 H 0.30811 0.08635 0.7184 0.0
H1393 H 0.34809 0.0663 0.68913 0.0
H1394 H 0.30795 0.20385 0.68924 0.0
H1395 H 0.29945 0.17314 0.73598 0.0
H1396 H 0.39249 0.1313 0.66242 0.0
H1397 H 0.35073 0.10577 0.64555 0.0
H1398 H 0.4067 0.12049 0.63527 0.0
H1399 H 0.36563 0.09547 0.61864 0.0
H1400 H 0.37155 0.17406 0.6462 0.0
H1401 H 0.35421 0.18159 0.70124 0.0
H1402 H 0.38516 0.2001 0.64774 0.0
H1403 H 0.36826 0.20739 0.70191 0.0
H1404 H 0.32226 0.14302 0.59848 0.0
H1405 H 0.37319 0.14958 0.59794 0.0
H1406 H 0.40773 0.12988 0.73014 0.0
H1407 H 0.42025 0.16621 0.69065 0.0
C1408 C 0.28992 0.21607 0.2795 0.0
C1409 C 0.29367 0.20202 0.27012 0.0
C1410 C 0.27882 0.22664 0.27223 0.0
C1411 C 0.25789 0.23716 0.22894 0.0
H1412 H 0.22968 0.25908 0.26251 0.0
C1413 C 0.21714 0.28855 0.20565 0.0
C1414 C 0.20227 0.28996 0.21419 0.0
C1415 C 0.22808 0.27729 0.21184 0.0
C1416 C 0.23732 0.25292 0.25289 0.0
H1417 H 0.28869 0.18784 0.24593 0.0
H1418 H 0.26898 0.20607 0.2334 0.0
H1419 H 0.24888 0.24033 0.27458 0.0
H1420 H 0.18684 0.28031 0.23525 0.0
H1421 H 0.2057 0.26036 0.24572 0.0
H1422 H 0.2459 0.24936 0.20719 0.0
C1423 C 0.27488 0.20917 0.24614 0.0
C1424 C 0.24853 0.24234 0.25986 0.0
C1425 C 0.28612 0.1987 0.25333 0.0
C1426 C 0.19833 0.2796 0.22862 0.0
C1427 C 0.20917 0.26824 0.23466 0.0
C1428 C 0.24656 0.24765 0.22194 0.0
C1429 C 0.27108 0.22328 0.25551 0.0
C1430 C 0.25902 0.23438 0.24799 0.0
C1431 C 0.22428 0.26711 0.22656 0.0
C1432 C 0.23616 0.25569 0.23385 0.0
H1433 H 0.29574 0.219 0.29236 0.0
H1434 H 0.27644 0.23753 0.27963 0.0
H1435 H 0.26589 0.23138 0.2194 0.0
H1436 H 0.2205 0.2965 0.1946 0.0
H1437 H 0.23966 0.27689 0.20543 0.0
C1438 C 0.78496 0.2952 0.25382 0.0
C1439 C 0.79431 0.29143 0.26919 0.0
C1440 C 0.77439 0.28405 0.24659 0.0
C1441 C 0.7532 0.24711 0.25936 0.0
H1442 H 0.7456 0.24415 0.2068 0.0
C1443 C 0.71712 0.19639 0.22685 0.0
C1444 C 0.70514 0.20092 0.21443 0.0
C1445 C 0.72829 0.20739 0.23298 0.0
C1446 C 0.74756 0.24494 0.22151 0.0
H1447 H 0.80045 0.27298 0.28869 0.0
H1448 H 0.78236 0.25336 0.27582 0.0
H1449 H 0.7649 0.26328 0.21847 0.0
H1450 H 0.69568 0.22062 0.1986 0.0
H1451 H 0.7155 0.23974 0.20903 0.0
H1452 H 0.73606 0.22855 0.26231 0.0
C1453 C 0.78277 0.26504 0.26964 0.0
C1454 C 0.75856 0.25591 0.22822 0.0
C1455 C 0.79318 0.27624 0.27698 0.0
C1456 C 0.70485 0.21666 0.20797 0.0
C1457 C 0.71615 0.22763 0.21397 0.0
C1458 C 0.74236 0.23603 0.25263 0.0
C1459 C 0.77309 0.26886 0.25449 0.0
C1460 C 0.7615 0.25714 0.24724 0.0
C1461 C 0.72787 0.22312 0.22667 0.0
C1462 C 0.73943 0.23485 0.23366 0.0
H1463 H 0.78553 0.3069 0.24768 0.0
H1464 H 0.76697 0.28749 0.2351 0.0
H1465 H 0.75489 0.24794 0.2741 0.0
H1466 H 0.71793 0.18429 0.23179 0.0
H1467 H 0.73735 0.20357 0.24258 0.0
C1468 C 0.77298 0.70088 0.21155 0.0
C1469 C 0.78938 0.70395 0.21138 0.0
C1470 C 0.76242 0.7118 0.21918 0.0
C1471 C 0.76115 0.74629 0.25094 0.0
H1472 H 0.719 0.75161 0.23046 0.0
C1473 C 0.71775 0.79593 0.27304 0.0
C1474 C 0.70224 0.79099 0.27738 0.0
C1475 C 0.7285 0.78542 0.265 0.0
C1476 C 0.73071 0.75015 0.23635 0.0
H1477 H 0.80744 0.72112 0.21895 0.0
H1478 H 0.78897 0.74048 0.23133 0.0
H1479 H 0.73763 0.73353 0.21566 0.0
H1480 H 0.68607 0.77091 0.2769 0.0
H1481 H 0.70475 0.75277 0.26229 0.0
H1482 H 0.75423 0.7633 0.27135 0.0
C1483 C 0.7843 0.72942 0.22603 0.0
C1484 C 0.74138 0.73976 0.22795 0.0
C1485 C 0.79489 0.7184 0.21862 0.0
C1486 C 0.69779 0.77525 0.27345 0.0
C1487 C 0.70849 0.76482 0.26515 0.0
C1488 C 0.75055 0.75686 0.25916 0.0
C1489 C 0.76794 0.72619 0.2266 0.0
C1490 C 0.75671 0.73761 0.2352 0.0
C1491 C 0.72392 0.76982 0.26086 0.0
C1492 C 0.73522 0.7588 0.25201 0.0
H1493 H 0.76826 0.69 0.20583 0.0
H1494 H 0.74994 0.70879 0.21955 0.0
H1495 H 0.77272 0.74474 0.25714 0.0
H1496 H 0.72153 0.80802 0.27551 0.0
H1497 H 0.74032 0.78958 0.26164 0.0
C1498 C 0.29716 0.77576 0.22647 0.0
C1499 C 0.29239 0.78928 0.21656 0.0
C1500 C 0.28592 0.76502 0.23309 0.0
C1501 C 0.24496 0.75129 0.22611 0.0
H1502 H 0.24886 0.73575 0.27616 0.0
C1503 C 0.19553 0.71497 0.26144 0.0
C1504 C 0.20024 0.70226 0.27268 0.0
C1505 C 0.20677 0.72553 0.2544 0.0
C1506 C 0.2477 0.73981 0.26208 0.0
H1507 H 0.27203 0.80215 0.20601 0.0
H1508 H 0.25244 0.78328 0.21742 0.0
H1509 H 0.26859 0.75414 0.26408 0.0
H1510 H 0.22043 0.69041 0.28504 0.0
H1511 H 0.24007 0.70873 0.27263 0.0
H1512 H 0.22414 0.73689 0.22404 0.0
C1513 C 0.2649 0.78094 0.21988 0.0
C1514 C 0.259 0.75036 0.25518 0.0
C1515 C 0.27613 0.79173 0.21332 0.0
C1516 C 0.21643 0.70025 0.27665 0.0
C1517 C 0.22767 0.71076 0.26955 0.0
C1518 C 0.23369 0.74068 0.23299 0.0
C1519 C 0.26968 0.76751 0.22989 0.0
C1520 C 0.25774 0.75622 0.23714 0.0
C1521 C 0.22297 0.72356 0.2584 0.0
C1522 C 0.23493 0.73483 0.25106 0.0
H1523 H 0.3096 0.77338 0.22894 0.0
H1524 H 0.28996 0.75465 0.24055 0.0
H1525 H 0.2438 0.75547 0.21207 0.0
H1526 H 0.18311 0.71691 0.25834 0.0
H1527 H 0.20273 0.7354 0.24608 0.0
C1528 C 0.71702 0.79081 0.71741 0.0
C1529 C 0.70177 0.79231 0.72506 0.0
C1530 C 0.72783 0.7799 0.72457 0.0
C1531 C 0.73823 0.75765 0.76589 0.0
H1532 H 0.75971 0.72948 0.73185 0.0
C1533 C 0.77853 0.70621 0.79047 0.0
C1534 C 0.79201 0.70285 0.77983 0.0
C1535 C 0.76732 0.71721 0.78427 0.0
C1536 C 0.75402 0.7374 0.74154 0.0
H1537 H 0.68599 0.78346 0.74636 0.0
H1538 H 0.70509 0.76468 0.75914 0.0
H1539 H 0.74066 0.74871 0.7202 0.0
H1540 H 0.80476 0.70871 0.75485 0.0
H1541 H 0.78552 0.72822 0.74428 0.0
H1542 H 0.75185 0.74664 0.78722 0.0
C1543 C 0.7086 0.772 0.74758 0.0
C1544 C 0.74305 0.74836 0.73485 0.0
C1545 C 0.6977 0.7828 0.74028 0.0
C1546 C 0.79431 0.71092 0.76315 0.0
C1547 C 0.78324 0.72203 0.75708 0.0
C1548 C 0.74937 0.7468 0.7726 0.0
C1549 C 0.7237 0.77037 0.73968 0.0
C1550 C 0.7351 0.75861 0.74694 0.0
C1551 C 0.7695 0.72518 0.76743 0.0
C1552 C 0.75745 0.73658 0.76048 0.0
H1553 H 0.72071 0.79818 0.70597 0.0
H1554 H 0.73949 0.77902 0.7184 0.0
H1555 H 0.73233 0.76552 0.77548 0.0
H1556 H 0.77646 0.70004 0.80333 0.0
H1557 H 0.75679 0.71919 0.7925 0.0
C1558 C 0.19582 0.7167 0.73216 0.0
C1559 C 0.20121 0.70341 0.72228 0.0
C1560 C 0.2066 0.72745 0.73973 0.0
C1561 C 0.24835 0.73115 0.75431 0.0
H1562 H 0.24027 0.77632 0.75047 0.0
C1563 C 0.29562 0.77817 0.77194 0.0
C1564 C 0.2906 0.7917 0.78161 0.0
C1565 C 0.28457 0.76731 0.76516 0.0
C1566 C 0.2426 0.76374 0.75185 0.0
H1567 H 0.22216 0.69092 0.71277 0.0
H1568 H 0.24096 0.70985 0.72568 0.0
H1569 H 0.22123 0.75754 0.73768 0.0
H1570 H 0.27005 0.8043 0.79205 0.0
H1571 H 0.25074 0.78533 0.78018 0.0
H1572 H 0.26975 0.73735 0.76841 0.0
C1573 C 0.2284 0.71187 0.72773 0.0
C1574 C 0.23169 0.75298 0.74452 0.0
C1575 C 0.21762 0.70112 0.72014 0.0
C1576 C 0.27428 0.79411 0.78442 0.0
C1577 C 0.26322 0.78325 0.77763 0.0
C1578 C 0.25925 0.7419 0.76163 0.0
C1579 C 0.22301 0.72515 0.73761 0.0
C1580 C 0.23448 0.73657 0.74562 0.0
C1581 C 0.26825 0.76975 0.76789 0.0
C1582 C 0.25652 0.75832 0.76042 0.0
H1583 H 0.18325 0.71888 0.73389 0.0
H1584 H 0.20208 0.73749 0.74742 0.0
H1585 H 0.2507 0.71857 0.75564 0.0
H1586 H 0.30809 0.77611 0.76928 0.0
H1587 H 0.2888 0.75715 0.75746 0.0
C1588 C 0.20107 0.27549 0.78381 0.0
C1589 C 0.20357 0.29188 0.78171 0.0
C1590 C 0.21182 0.26458 0.7765 0.0
C1591 C 0.24367 0.26079 0.74177 0.0
H1592 H 0.25448 0.22301 0.76955 0.0
C1593 C 0.2942 0.21832 0.72042 0.0
C1594 C 0.29094 0.20198 0.72145 0.0
C1595 C 0.2836 0.22937 0.72774 0.0
C1596 C 0.25146 0.23344 0.76157 0.0
H1597 H 0.2193 0.30963 0.7701 0.0
H1598 H 0.23829 0.29062 0.75782 0.0
H1599 H 0.23595 0.24219 0.78253 0.0
H1600 H 0.27378 0.1845 0.73069 0.0
H1601 H 0.2554 0.2038 0.74364 0.0
H1602 H 0.25931 0.25205 0.72088 0.0
C1603 C 0.22789 0.28619 0.76491 0.0
C1604 C 0.24083 0.24442 0.76898 0.0
C1605 C 0.21711 0.2971 0.77217 0.0
C1606 C 0.27681 0.19697 0.72995 0.0
C1607 C 0.26626 0.20802 0.73735 0.0
C1608 C 0.25436 0.24984 0.73441 0.0
C1609 C 0.22536 0.2698 0.76696 0.0
C1610 C 0.23677 0.2582 0.75915 0.0
C1611 C 0.26954 0.22433 0.73632 0.0
C1612 C 0.25833 0.23604 0.74421 0.0
H1613 H 0.19085 0.27107 0.79125 0.0
H1614 H 0.20941 0.25204 0.77815 0.0
H1615 H 0.24061 0.27115 0.73371 0.0
H1616 H 0.30508 0.22256 0.71421 0.0
H1617 H 0.28653 0.24187 0.72695 0.0
C1618 C 0.69454 0.21952 0.76762 0.0
C1619 C 0.69964 0.2054 0.77603 0.0
C1620 C 0.70557 0.23057 0.76114 0.0
C1621 C 0.74729 0.24293 0.76652 0.0
H1622 H 0.74117 0.26273 0.71886 0.0
C1623 C 0.79663 0.27854 0.73046 0.0
C1624 C 0.79224 0.29261 0.72141 0.0
C1625 C 0.78508 0.26827 0.73736 0.0
C1626 C 0.74295 0.25745 0.73229 0.0
H1627 H 0.72032 0.19164 0.78385 0.0
H1628 H 0.73952 0.21091 0.77262 0.0
H1629 H 0.72135 0.24418 0.73051 0.0
H1630 H 0.7723 0.30706 0.71278 0.0
H1631 H 0.75212 0.28911 0.72484 0.0
H1632 H 0.7689 0.25613 0.7683 0.0
C1633 C 0.727 0.21358 0.77132 0.0
C1634 C 0.7316 0.24683 0.73896 0.0
C1635 C 0.71599 0.20254 0.77776 0.0
C1636 C 0.77605 0.29619 0.71945 0.0
C1637 C 0.76449 0.28592 0.72635 0.0
C1638 C 0.75863 0.25355 0.75986 0.0
C1639 C 0.72192 0.22772 0.76296 0.0
C1640 C 0.7337 0.23938 0.7561 0.0
C1641 C 0.76888 0.27184 0.73538 0.0
C1642 C 0.75663 0.26086 0.74263 0.0
H1643 H 0.68202 0.22215 0.76627 0.0
H1644 H 0.7013 0.24145 0.75494 0.0
H1645 H 0.74911 0.23758 0.77992 0.0
H1646 H 0.809 0.27533 0.73194 0.0
H1647 H 0.78884 0.25739 0.74399 0.0
C1648 C 0.12813 0.34643 0.93241 0.0
C1649 C 0.1419 0.35053 0.92256 0.0
C1650 C 0.12816 0.34636 0.95165 0.0
C1651 C 0.15478 0.34378 0.99167 0.0
H1652 H 0.11984 0.36321 0.01809 0.0
C1653 C 0.14794 0.33949 0.07069 0.0
C1654 C 0.14385 0.35357 0.07992 0.0
C1655 C 0.14752 0.33874 0.05148 0.0
C1656 C 0.1297 0.35779 0.01089 0.0
H1657 H 0.16643 0.35799 0.92529 0.0
H1658 H 0.16651 0.35765 0.95881 0.0
H1659 H 0.11951 0.3626 0.98447 0.0
H1660 H 0.13634 0.37798 0.07613 0.0
H1661 H 0.13545 0.37659 0.04262 0.0
H1662 H 0.16507 0.33915 0.01808 0.0
C1663 C 0.15575 0.35433 0.95163 0.0
C1664 C 0.12944 0.35731 0.99167 0.0
C1665 C 0.1557 0.35449 0.93241 0.0
C1666 C 0.13931 0.36687 0.06948 0.0
C1667 C 0.13881 0.36609 0.05029 0.0
C1668 C 0.155 0.34417 0.01089 0.0
C1669 C 0.14198 0.3503 0.96145 0.0
C1670 C 0.14203 0.35038 0.98186 0.0
C1671 C 0.14292 0.35202 0.04109 0.0
C1672 C 0.14251 0.35126 0.0207 0.0
H1673 H 0.11737 0.34308 0.92526 0.0
H1674 H 0.11742 0.34302 0.95886 0.0
H1675 H 0.16458 0.33824 0.98448 0.0
H1676 H 0.15122 0.32894 0.0783 0.0
H1677 H 0.15056 0.32767 0.04476 0.0
C1678 C 0.6537 0.13436 0.92801 0.0
C1679 C 0.64652 0.14668 0.91798 0.0
C1680 C 0.65396 0.13472 0.94722 0.0
C1681 C 0.63352 0.15191 0.98718 0.0
H1682 H 0.67186 0.14003 0.01327 0.0
C1683 C 0.63927 0.15786 0.06607 0.0
C1684 C 0.64682 0.14537 0.07544 0.0
C1685 C 0.63949 0.15854 0.04685 0.0
C1686 C 0.66101 0.14322 0.0062 0.0
H1687 H 0.63412 0.16914 0.9203 0.0
H1688 H 0.63447 0.16969 0.9539 0.0
H1689 H 0.67172 0.14025 0.9797 0.0
H1690 H 0.66073 0.12393 0.07196 0.0
H1691 H 0.66078 0.1249 0.03845 0.0
H1692 H 0.62275 0.1547 0.01364 0.0
C1693 C 0.63976 0.15969 0.94685 0.0
C1694 C 0.66094 0.14336 0.98697 0.0
C1695 C 0.63955 0.15935 0.92762 0.0
C1696 C 0.65464 0.13361 0.06516 0.0
C1697 C 0.65485 0.13428 0.04596 0.0
C1698 C 0.63358 0.15171 0.00641 0.0
C1699 C 0.64699 0.14738 0.95685 0.0
C1700 C 0.64717 0.14763 0.97726 0.0
C1701 C 0.64725 0.14673 0.03658 0.0
C1702 C 0.6473 0.1473 0.01614 0.0
H1703 H 0.65891 0.12428 0.92103 0.0
H1704 H 0.65938 0.12493 0.95455 0.0
H1705 H 0.62268 0.15506 0.98007 0.0
H1706 H 0.63299 0.16702 0.07356 0.0
H1707 H 0.63367 0.16838 0.04006 0.0
C1708 C 0.86781 0.6381 0.92589 0.0
C1709 C 0.85449 0.64362 0.91624 0.0
C1710 C 0.86799 0.63814 0.94512 0.0
C1711 C 0.84753 0.65565 0.98564 0.0
H1712 H 0.86835 0.62127 0.01156 0.0
C1713 C 0.85582 0.65679 0.06441 0.0
C1714 C 0.85431 0.64238 0.07396 0.0
C1715 C 0.85616 0.657 0.04519 0.0
C1716 C 0.86233 0.63088 0.00457 0.0
H1717 H 0.8308 0.65327 0.91904 0.0
H1718 H 0.83087 0.65294 0.9526 0.0
H1719 H 0.86782 0.62125 0.97812 0.0
H1720 H 0.85175 0.61695 0.07098 0.0
H1721 H 0.85189 0.6173 0.03742 0.0
H1722 H 0.84144 0.66492 0.01209 0.0
C1723 C 0.84139 0.64899 0.94539 0.0
C1724 C 0.86224 0.631 0.98534 0.0
C1725 C 0.8413 0.64912 0.92616 0.0
C1726 C 0.85312 0.6282 0.06394 0.0
C1727 C 0.85326 0.62842 0.04471 0.0
C1728 C 0.84748 0.65544 0.00487 0.0
C1729 C 0.85475 0.64353 0.95513 0.0
C1730 C 0.85486 0.6434 0.97562 0.0
C1731 C 0.8548 0.64282 0.03508 0.0
C1732 C 0.8549 0.64306 0.01459 0.0
H1733 H 0.87821 0.63397 0.91855 0.0
H1734 H 0.8786 0.63413 0.95211 0.0
H1735 H 0.84192 0.66551 0.97865 0.0
H1736 H 0.85696 0.66788 0.07183 0.0
H1737 H 0.85767 0.66828 0.03828 0.0
C1738 C 0.35332 0.86667 0.06585 0.0
C1739 C 0.34742 0.85341 0.07536 0.0
C1740 C 0.35336 0.86698 0.04663 0.0
C1741 C 0.35146 0.84047 0.00611 0.0
H1742 H 0.34247 0.87957 0.97998 0.0
C1743 C 0.36165 0.84645 0.92804 0.0
C1744 C 0.35045 0.85509 0.91784 0.0
C1745 C 0.36113 0.84641 0.94725 0.0
C1746 C 0.34486 0.86851 0.98705 0.0
H1747 H 0.33658 0.83025 0.07225 0.0
H1748 H 0.3364 0.83087 0.03869 0.0
H1749 H 0.34123 0.8791 0.01347 0.0
H1750 H 0.3298 0.87031 0.91968 0.0
H1751 H 0.32871 0.87008 0.95325 0.0
H1752 H 0.35464 0.82976 0.9797 0.0
C1753 C 0.34134 0.84089 0.04605 0.0
C1754 C 0.34435 0.8683 0.00627 0.0
C1755 C 0.34141 0.84054 0.06527 0.0
C1756 C 0.33871 0.86371 0.92722 0.0
C1757 C 0.33811 0.86359 0.94644 0.0
C1758 C 0.35188 0.84067 0.98689 0.0
C1759 C 0.3474 0.85408 0.03649 0.0
C1760 C 0.34769 0.85428 0.01603 0.0
C1761 C 0.34931 0.85493 0.95669 0.0
C1762 C 0.34865 0.8547 0.97713 0.0
H1763 H 0.35822 0.87668 0.07329 0.0
H1764 H 0.35836 0.87722 0.03972 0.0
H1765 H 0.35429 0.82952 0.01317 0.0
H1766 H 0.37097 0.83987 0.92117 0.0
H1767 H 0.37012 0.83986 0.9547 0.0
C1768 C 0.13831 0.63567 0.56593 0.0
C1769 C 0.14837 0.64543 0.57636 0.0
C1770 C 0.13866 0.63621 0.54673 0.0
C1771 C 0.15152 0.66123 0.50754 0.0
H1772 H 0.14638 0.62203 0.48026 0.0
C1773 C 0.14124 0.66018 0.42894 0.0
C1774 C 0.14825 0.64786 0.41874 0.0
C1775 C 0.14186 0.66013 0.44817 0.0
C1776 C 0.14802 0.63307 0.48764 0.0
H1777 H 0.16676 0.66335 0.57493 0.0
H1778 H 0.16761 0.66411 0.54133 0.0
H1779 H 0.14673 0.62139 0.5137 0.0
H1780 H 0.16145 0.62583 0.42085 0.0
H1781 H 0.16303 0.62605 0.45426 0.0
H1782 H 0.15327 0.67284 0.48143 0.0
C1783 C 0.15921 0.65625 0.54798 0.0
C1784 C 0.14798 0.63273 0.50685 0.0
C1785 C 0.15877 0.6558 0.56721 0.0
C1786 C 0.15608 0.63561 0.42823 0.0
C1787 C 0.15679 0.63562 0.44743 0.0
C1788 C 0.15166 0.66155 0.48831 0.0
C1789 C 0.14917 0.64644 0.5375 0.0
C1790 C 0.14963 0.64681 0.51705 0.0
C1791 C 0.14958 0.64781 0.45765 0.0
C1792 C 0.14983 0.64748 0.47812 0.0
H1793 H 0.12999 0.62775 0.57262 0.0
H1794 H 0.13052 0.62873 0.53913 0.0
H1795 H 0.15266 0.67232 0.51495 0.0
H1796 H 0.1353 0.66992 0.42209 0.0
H1797 H 0.13603 0.66963 0.45558 0.0
C1798 C 0.33727 0.13748 0.5646 0.0
C1799 C 0.3474 0.14734 0.57488 0.0
C1800 C 0.33708 0.13828 0.54539 0.0
C1801 C 0.36152 0.14968 0.50588 0.0
H1802 H 0.32159 0.14997 0.47938 0.0
C1803 C 0.35895 0.15752 0.42706 0.0
C1804 C 0.34792 0.1482 0.41736 0.0
C1805 C 0.35861 0.15817 0.44627 0.0
C1806 C 0.33284 0.14971 0.48655 0.0
H1807 H 0.36507 0.16601 0.57294 0.0
H1808 H 0.36493 0.16715 0.53939 0.0
H1809 H 0.32154 0.14953 0.51296 0.0
H1810 H 0.32766 0.13252 0.42034 0.0
H1811 H 0.32744 0.1332 0.45381 0.0
H1812 H 0.37287 0.14951 0.47957 0.0
C1813 C 0.35722 0.15874 0.54625 0.0
C1814 C 0.3328 0.14949 0.50578 0.0
C1815 C 0.35733 0.15804 0.56547 0.0
C1816 C 0.33648 0.13965 0.42735 0.0
C1817 C 0.3362 0.14022 0.44657 0.0
C1818 C 0.36157 0.14976 0.48665 0.0
C1819 C 0.3471 0.14886 0.53603 0.0
C1820 C 0.34714 0.14943 0.51563 0.0
C1821 C 0.3473 0.14944 0.45627 0.0
C1822 C 0.34723 0.14973 0.47674 0.0
H1823 H 0.32967 0.12891 0.57135 0.0
H1824 H 0.32932 0.13037 0.53785 0.0
H1825 H 0.37275 0.14943 0.51312 0.0
H1826 H 0.36803 0.16413 0.41983 0.0
H1827 H 0.36721 0.16556 0.45328 0.0
C1828 C 0.83582 0.35449 0.42887 0.0
C1829 C 0.8437 0.34282 0.41847 0.0
C1830 C 0.83565 0.35373 0.44807 0.0
C1831 C 0.85833 0.33861 0.48694 0.0
H1832 H 0.8196 0.34521 0.51469 0.0
C1833 C 0.85698 0.33307 0.566 0.0
C1834 C 0.84764 0.34402 0.57578 0.0
C1835 C 0.85598 0.33206 0.54685 0.0
C1836 C 0.83057 0.34354 0.50717 0.0
H1837 H 0.8572 0.32093 0.42024 0.0
H1838 H 0.85724 0.31989 0.4538 0.0
H1839 H 0.81875 0.34517 0.48111 0.0
H1840 H 0.82965 0.36229 0.57298 0.0
H1841 H 0.82843 0.36103 0.5396 0.0
H1842 H 0.87029 0.33747 0.51283 0.0
C1843 C 0.85126 0.32964 0.44699 0.0
C1844 C 0.83004 0.34345 0.48795 0.0
C1845 C 0.85128 0.33029 0.42778 0.0
C1846 C 0.83721 0.35388 0.56591 0.0
C1847 C 0.83632 0.35298 0.54674 0.0
C1848 C 0.8589 0.33887 0.50615 0.0
C1849 C 0.84349 0.34139 0.45731 0.0
C1850 C 0.84393 0.34102 0.47767 0.0
C1851 C 0.84572 0.34208 0.53696 0.0
C1852 C 0.84503 0.34139 0.51651 0.0
H1853 H 0.8301 0.36446 0.42221 0.0
H1854 H 0.82974 0.36304 0.45572 0.0
H1855 H 0.86925 0.33691 0.47932 0.0
H1856 H 0.86528 0.32541 0.5731 0.0
H1857 H 0.86324 0.32338 0.5398 0.0
C1858 C 0.64125 0.83647 0.56852 0.0
C1859 C 0.64682 0.84971 0.57835 0.0
C1860 C 0.64101 0.83656 0.5493 0.0
C1861 C 0.65875 0.85622 0.50895 0.0
H1862 H 0.62172 0.84006 0.48342 0.0
C1863 C 0.64975 0.86456 0.43084 0.0
C1864 C 0.64357 0.85165 0.4209 0.0
C1865 C 0.6502 0.86423 0.45006 0.0
C1866 C 0.63223 0.84444 0.49033 0.0
H1867 H 0.65636 0.8735 0.57567 0.0
H1868 H 0.65603 0.87362 0.54211 0.0
H1869 H 0.62254 0.83955 0.51697 0.0
H1870 H 0.63288 0.82834 0.42337 0.0
H1871 H 0.63399 0.82762 0.45689 0.0
H1872 H 0.66846 0.86108 0.48232 0.0
C1873 C 0.65203 0.86309 0.54929 0.0
C1874 C 0.63269 0.84416 0.50955 0.0
C1875 C 0.65224 0.86301 0.56851 0.0
C1876 C 0.63786 0.83841 0.43061 0.0
C1877 C 0.63832 0.83807 0.44983 0.0
C1878 C 0.6583 0.85648 0.48973 0.0
C1879 C 0.64637 0.84989 0.53948 0.0
C1880 C 0.64595 0.85007 0.51906 0.0
C1881 C 0.64451 0.85097 0.45977 0.0
C1882 C 0.64502 0.85061 0.4802 0.0
H1883 H 0.63722 0.82594 0.57568 0.0
H1884 H 0.6368 0.82612 0.54211 0.0
H1885 H 0.66923 0.86066 0.51588 0.0
H1886 H 0.65441 0.87487 0.42378 0.0
H1887 H 0.65488 0.87443 0.45731 0.0
C1888 C 0.16691 0.54837 0.29201 0.0
C1889 C 0.16318 0.56077 0.27982 0.0
C1890 C 0.1696 0.53304 0.2854 0.0
C1891 C 0.17833 0.51 0.24313 0.0
H1892 H 0.15705 0.47604 0.26936 0.0
C1893 C 0.16632 0.44835 0.21133 0.0
C1894 C 0.16711 0.43501 0.2229 0.0
C1895 C 0.16813 0.46361 0.21854 0.0
C1896 C 0.16331 0.48532 0.26203 0.0
H1897 H 0.15962 0.56687 0.25111 0.0
H1898 H 0.16426 0.54012 0.23958 0.0
H1899 H 0.15615 0.50289 0.28154 0.0
H1900 H 0.17123 0.42714 0.25091 0.0
H1901 H 0.17449 0.45377 0.2635 0.0
H1902 H 0.18523 0.4924 0.22343 0.0
C1903 C 0.16533 0.54228 0.25422 0.0
C1904 C 0.16278 0.50073 0.26902 0.0
C1905 C 0.16265 0.55761 0.26083 0.0
C1906 C 0.1703 0.43721 0.24171 0.0
C1907 C 0.17215 0.45246 0.24891 0.0
C1908 C 0.17886 0.49455 0.23613 0.0
C1909 C 0.16861 0.52978 0.26645 0.0
C1910 C 0.17014 0.51327 0.25956 0.0
C1911 C 0.17079 0.46584 0.23748 0.0
C1912 C 0.17122 0.48207 0.24542 0.0
H1913 H 0.16768 0.55049 0.30669 0.0
H1914 H 0.17237 0.52372 0.29514 0.0
H1915 H 0.18429 0.51938 0.23565 0.0
H1916 H 0.16369 0.44703 0.19681 0.0
H1917 H 0.16681 0.47367 0.20939 0.0
C1918 C 0.54812 0.16039 0.20701 0.0
C1919 C 0.56148 0.15825 0.2183 0.0
C1920 C 0.53307 0.16226 0.21478 0.0
C1921 C 0.51099 0.15316 0.25723 0.0
H1922 H 0.47953 0.18172 0.23679 0.0
C1923 C 0.44978 0.16095 0.29093 0.0
C1924 C 0.43668 0.1606 0.27898 0.0
C1925 C 0.46516 0.16236 0.28396 0.0
C1926 C 0.48817 0.17363 0.24257 0.0
H1927 H 0.56967 0.15715 0.24657 0.0
H1928 H 0.54345 0.16049 0.26013 0.0
H1929 H 0.50623 0.18113 0.22374 0.0
H1930 H 0.42943 0.16173 0.25035 0.0
H1931 H 0.45626 0.16421 0.2382 0.0
H1932 H 0.49295 0.14552 0.27591 0.0
C1933 C 0.54453 0.16038 0.24527 0.0
C1934 C 0.50345 0.17328 0.23509 0.0
C1935 C 0.55955 0.15847 0.23751 0.0
C1936 C 0.43926 0.16216 0.25994 0.0
C1937 C 0.45464 0.16358 0.25298 0.0
C1938 C 0.49575 0.15353 0.26471 0.0
C1939 C 0.53108 0.16207 0.234 0.0
C1940 C 0.515 0.16297 0.24228 0.0
C1941 C 0.46777 0.16346 0.26489 0.0
C1942 C 0.48414 0.1637 0.25741 0.0
H1943 H 0.54923 0.16013 0.19215 0.0
H1944 H 0.52293 0.16334 0.20571 0.0
H1945 H 0.51951 0.14487 0.26288 0.0
H1946 H 0.44816 0.16005 0.30569 0.0
H1947 H 0.47502 0.16251 0.29352 0.0
C1948 C 0.84756 0.55384 0.23005 0.0
C1949 C 0.83555 0.55997 0.2187 0.0
C1950 C 0.846 0.53885 0.23797 0.0
C1951 C 0.82483 0.5008 0.23347 0.0
H1952 H 0.8394 0.49484 0.28365 0.0
C1953 C 0.81908 0.44102 0.27266 0.0
C1954 C 0.83283 0.43611 0.28202 0.0
C1955 C 0.81803 0.45635 0.26534 0.0
C1956 C 0.83534 0.49631 0.2696 0.0
H1957 H 0.81251 0.55518 0.20667 0.0
H1958 H 0.80974 0.52892 0.22062 0.0
H1959 H 0.8401 0.52121 0.26995 0.0
H1960 H 0.8564 0.44339 0.29065 0.0
H1961 H 0.85445 0.47005 0.27818 0.0
H1962 H 0.82018 0.4758 0.23317 0.0
C1963 C 0.82043 0.53568 0.22323 0.0
C1964 C 0.83577 0.5114 0.26174 0.0
C1965 C 0.82201 0.5507 0.21525 0.0
C1966 C 0.84547 0.44687 0.28393 0.0
C1967 C 0.84438 0.46216 0.27673 0.0
C1968 C 0.82434 0.48568 0.24139 0.0
C1969 C 0.83238 0.52964 0.23478 0.0
C1970 C 0.8308 0.51377 0.24347 0.0
C1971 C 0.83068 0.46707 0.26735 0.0
C1972 C 0.82986 0.48325 0.25942 0.0
H1973 H 0.85828 0.56056 0.23265 0.0
H1974 H 0.85559 0.5344 0.24645 0.0
H1975 H 0.82103 0.50221 0.21932 0.0
H1976 H 0.80907 0.43308 0.27111 0.0
H1977 H 0.80727 0.45986 0.25829 0.0
C1978 C 0.54907 0.83235 0.28171 0.0
C1979 C 0.56149 0.8403 0.27269 0.0
C1980 C 0.5341 0.83128 0.27356 0.0
C1981 C 0.50918 0.85051 0.23802 0.0
H1982 H 0.48327 0.8128 0.24364 0.0
C1983 C 0.44951 0.84313 0.20045 0.0
C1984 C 0.43669 0.83813 0.21139 0.0
C1985 C 0.46501 0.84237 0.20715 0.0
C1986 C 0.49036 0.82342 0.24204 0.0
H1987 H 0.56816 0.85286 0.24784 0.0
H1988 H 0.54214 0.85076 0.23344 0.0
H1989 H 0.50996 0.81337 0.25668 0.0
H1990 H 0.43021 0.82816 0.23791 0.0
H1991 H 0.45732 0.82661 0.24945 0.0
H1992 H 0.48961 0.86051 0.22331 0.0
C1993 C 0.5438 0.84571 0.24701 0.0
C1994 C 0.50563 0.82379 0.24955 0.0
C1995 C 0.55873 0.84689 0.25523 0.0
C1996 C 0.4398 0.83191 0.229 0.0
C1997 C 0.45533 0.83104 0.23565 0.0
C1998 C 0.49399 0.85009 0.2304 0.0
C1999 C 0.53125 0.83802 0.25614 0.0
C2000 C 0.51519 0.83738 0.24772 0.0
C2001 C 0.46806 0.83647 0.22488 0.0
C2002 C 0.4844 0.83659 0.23242 0.0
H2003 H 0.55084 0.8273 0.29526 0.0
H2004 H 0.52466 0.82549 0.28111 0.0
H2005 H 0.51608 0.86129 0.23664 0.0
H2006 H 0.44758 0.84769 0.18669 0.0
H2007 H 0.47464 0.84641 0.19845 0.0
C2008 C 0.83748 0.54743 0.7826 0.0
C2009 C 0.84096 0.56054 0.77135 0.0
C2010 C 0.83574 0.53233 0.77494 0.0
C2011 C 0.84698 0.50918 0.73391 0.0
H2012 H 0.81601 0.47917 0.75254 0.0
C2013 C 0.83891 0.44735 0.70153 0.0
C2014 C 0.83824 0.4346 0.71397 0.0
C2015 C 0.8377 0.46296 0.70782 0.0
C2016 C 0.82476 0.48741 0.74727 0.0
H2017 H 0.8447 0.56824 0.7432 0.0
H2018 H 0.84152 0.54191 0.7298 0.0
H2019 H 0.81667 0.50613 0.76482 0.0
H2020 H 0.83515 0.42817 0.74265 0.0
H2021 H 0.83321 0.45544 0.75368 0.0
H2022 H 0.85515 0.49045 0.71647 0.0
C2023 C 0.84049 0.54322 0.74458 0.0
C2024 C 0.82517 0.50284 0.75431 0.0
C2025 C 0.8423 0.5583 0.75225 0.0
C2026 C 0.83589 0.43777 0.73277 0.0
C2027 C 0.83461 0.45337 0.73905 0.0
C2028 C 0.84654 0.49379 0.72683 0.0
C2029 C 0.83737 0.53003 0.75585 0.0
C2030 C 0.83637 0.51386 0.74782 0.0
C2031 C 0.83572 0.46614 0.72668 0.0
C2032 C 0.83552 0.48271 0.73354 0.0
H2033 H 0.83654 0.54877 0.79739 0.0
H2034 H 0.83356 0.52239 0.78405 0.0
H2035 H 0.85595 0.51727 0.72882 0.0
H2036 H 0.84083 0.44529 0.68698 0.0
H2037 H 0.83844 0.47256 0.69794 0.0
C2038 C 0.55508 0.82656 0.72807 0.0
C2039 C 0.55859 0.83765 0.71421 0.0
C2040 C 0.53955 0.82482 0.73448 0.0
C2041 C 0.49782 0.83229 0.72237 0.0
H2042 H 0.49113 0.83315 0.77518 0.0
C2043 C 0.43659 0.84439 0.75456 0.0
C2044 C 0.4326 0.83666 0.77104 0.0
C2045 C 0.45176 0.84281 0.74708 0.0
C2046 C 0.49277 0.8326 0.7604 0.0
H2047 H 0.5486 0.85525 0.69581 0.0
H2048 H 0.52146 0.85223 0.70703 0.0
H2049 H 0.51805 0.83327 0.763 0.0
H2050 H 0.44111 0.82074 0.79228 0.0
H2051 H 0.46756 0.81773 0.77907 0.0
H2052 H 0.47256 0.83164 0.71972 0.0
C2053 C 0.5307 0.84488 0.71291 0.0
C2054 C 0.50821 0.8327 0.75344 0.0
C2055 C 0.54624 0.84672 0.70662 0.0
C2056 C 0.44395 0.82701 0.77968 0.0
C2057 C 0.4591 0.82532 0.77213 0.0
C2058 C 0.48237 0.83206 0.72933 0.0
C2059 C 0.52723 0.83402 0.72702 0.0
C2060 C 0.51088 0.83276 0.73436 0.0
C2061 C 0.46325 0.83336 0.75586 0.0
C2062 C 0.47966 0.83244 0.74843 0.0
H2063 H 0.5644 0.81948 0.73423 0.0
H2064 H 0.53718 0.81629 0.7453 0.0
H2065 H 0.49955 0.83211 0.7076 0.0
H2066 H 0.42814 0.85208 0.74773 0.0
H2067 H 0.45461 0.84939 0.73471 0.0
C2068 C 0.1485 0.43928 0.76417 0.0
C2069 C 0.15878 0.4344 0.77831 0.0
C2070 C 0.14959 0.45453 0.75682 0.0
C2071 C 0.1634 0.49474 0.7677 0.0
H2072 H 0.15831 0.50131 0.71518 0.0
C2073 C 0.16723 0.55692 0.73406 0.0
C2074 C 0.15555 0.56035 0.72085 0.0
C2075 C 0.16904 0.54148 0.74081 0.0
C2076 C 0.15964 0.49968 0.72989 0.0
H2077 H 0.17846 0.44166 0.79561 0.0
H2078 H 0.1803 0.4684 0.7828 0.0
H2079 H 0.15902 0.4744 0.72743 0.0
H2080 H 0.13683 0.55023 0.70405 0.0
H2081 H 0.13977 0.52343 0.71604 0.0
H2082 H 0.16376 0.52005 0.77018 0.0
C2083 C 0.1713 0.46042 0.77755 0.0
C2084 C 0.16006 0.48427 0.7369 0.0
C2085 C 0.17023 0.44512 0.78489 0.0
C2086 C 0.14581 0.54801 0.7144 0.0
C2087 C 0.14764 0.53261 0.7211 0.0
C2088 C 0.16297 0.51018 0.76068 0.0
C2089 C 0.16097 0.46529 0.76345 0.0
C2090 C 0.16171 0.48163 0.75591 0.0
C2091 C 0.15925 0.52917 0.73439 0.0
C2092 C 0.16085 0.51281 0.74173 0.0
H2093 H 0.13934 0.43144 0.75904 0.0
H2094 H 0.14126 0.45802 0.74621 0.0
H2095 H 0.16452 0.49309 0.78243 0.0
H2096 H 0.17484 0.5662 0.73939 0.0
H2097 H 0.17817 0.53918 0.75095 0.0
C2098 C 0.44028 0.16329 0.72201 0.0
C2099 C 0.43249 0.14874 0.71924 0.0
C2100 C 0.45564 0.16369 0.72926 0.0
C2101 C 0.49123 0.1388 0.73532 0.0
H2102 H 0.50241 0.16938 0.77303 0.0
C2103 C 0.5495 0.13417 0.77593 0.0
C2104 C 0.558 0.14825 0.77911 0.0
C2105 C 0.53414 0.13468 0.76879 0.0
C2106 C 0.49952 0.16089 0.76236 0.0
H2107 H 0.4348 0.12319 0.72166 0.0
H2108 H 0.46144 0.1239 0.73456 0.0
H2109 H 0.47571 0.16952 0.75998 0.0
H2110 H 0.55699 0.17392 0.77742 0.0
H2111 H 0.53011 0.1748 0.7649 0.0
H2112 H 0.51498 0.13014 0.73766 0.0
C2113 C 0.45574 0.135 0.73102 0.0
C2114 C 0.48423 0.16097 0.75488 0.0
C2115 C 0.4404 0.1346 0.72382 0.0
C2116 C 0.55068 0.16287 0.77529 0.0
C2117 C 0.5353 0.16338 0.76812 0.0
C2118 C 0.50649 0.13872 0.74277 0.0
C2119 C 0.46355 0.14953 0.7338 0.0
C2120 C 0.4799 0.14984 0.74137 0.0
C2121 C 0.52692 0.14927 0.76464 0.0
C2122 C 0.51078 0.14968 0.75647 0.0
H2123 H 0.43445 0.17438 0.71875 0.0
H2124 H 0.46139 0.17506 0.73111 0.0
H2125 H 0.48835 0.13026 0.72468 0.0
H2126 H 0.55469 0.12273 0.77907 0.0
H2127 H 0.52789 0.12361 0.76663 0.0
C2128 C 0.66691 0.04489 0.79488 0.0
C2129 C 0.66733 0.05777 0.78259 0.0
C2130 C 0.66886 0.0294 0.78846 0.0
C2131 C 0.68241 0.00567 0.74843 0.0
H2132 H 0.65229 0.97481 0.76702 0.0
C2133 C 0.66852 0.94661 0.71149 0.0
C2134 C 0.66572 0.93312 0.72239 0.0
C2135 C 0.67077 0.96144 0.71967 0.0
C2136 C 0.66096 0.9832 0.76189 0.0
H2137 H 0.67042 0.0645 0.75399 0.0
H2138 H 0.67374 0.03747 0.74279 0.0
H2139 H 0.65271 0.00142 0.77994 0.0
H2140 H 0.66339 0.92457 0.75044 0.0
H2141 H 0.6676 0.95039 0.76469 0.0
H2142 H 0.69042 0.98745 0.73009 0.0
C2143 C 0.67215 0.03935 0.75742 0.0
C2144 C 0.66121 -0.00154 0.76931 0.0
C2145 C 0.67023 0.05485 0.76384 0.0
C2146 C 0.66565 0.93471 0.74165 0.0
C2147 C 0.66789 0.94953 0.74982 0.0
C2148 C 0.68215 0.99038 0.74099 0.0
C2149 C 0.67123 0.02643 0.76962 0.0
C2150 C 0.67182 0.00992 0.76254 0.0
C2151 C 0.67025 0.9631 0.73891 0.0
C2152 C 0.67131 0.97903 0.74752 0.0
H2153 H 0.66496 0.04679 0.80945 0.0
H2154 H 0.66837 0.01972 0.79826 0.0
H2155 H 0.69087 0.01418 0.74309 0.0
H2156 H 0.66883 0.94574 0.69662 0.0
H2157 H 0.67244 0.97169 0.71087 0.0
C2158 C 0.94886 0.66876 0.78451 0.0
C2159 C 0.93543 0.66792 0.77312 0.0
C2160 C 0.9639 0.67117 0.77691 0.0
C2161 C 0.9854 0.6657 0.7332 0.0
H2162 H 0.01852 0.68948 0.75792 0.0
C2163 C 0.04766 0.67182 0.70183 0.0
C2164 C 0.0603 0.6685 0.71386 0.0
C2165 C 0.03236 0.67419 0.70866 0.0
C2166 C 0.00938 0.68277 0.7509 0.0
H2167 H 0.92704 0.66983 0.745 0.0
H2168 H 0.95323 0.67429 0.73174 0.0
H2169 H 0.99166 0.68935 0.7706 0.0
H2170 H 0.06682 0.66551 0.74255 0.0
H2171 H 0.04013 0.66974 0.75445 0.0
H2172 H 0.0031 0.65896 0.71365 0.0
C2173 C 0.95224 0.67267 0.74649 0.0
C2174 C 0.99402 0.68267 0.75816 0.0
C2175 C 0.93724 0.67015 0.75407 0.0
C2176 C 0.0574 0.66823 0.73292 0.0
C2177 C 0.0421 0.67065 0.73975 0.0
C2178 C 0.0007 0.66587 0.72591 0.0
C2179 C 0.96579 0.67289 0.75777 0.0
C2180 C 0.98189 0.67398 0.7495 0.0
C2181 C 0.02937 0.67336 0.72766 0.0
C2182 C 0.0129 0.67425 0.73478 0.0
H2183 H 0.94782 0.66693 0.79922 0.0
H2184 H 0.97409 0.67107 0.78598 0.0
H2185 H 0.97644 0.65863 0.72635 0.0
H2186 H 0.04956 0.67241 0.6871 0.0
H2187 H 0.02283 0.67651 0.69903 0.0
C2188 C 0.32563 0.04442 0.70136 0.0
C2189 C 0.32363 0.0581 0.71218 0.0
C2190 C 0.32341 0.02936 0.70894 0.0
C2191 C 0.32406 0.00899 0.75384 0.0
H2192 H 0.30805 0.97348 0.72544 0.0
C2193 C 0.31995 0.94593 0.78423 0.0
C2194 C 0.32665 0.934 0.77319 0.0
C2195 C 0.31706 0.96101 0.77698 0.0
C2196 C 0.31256 0.9833 0.73351 0.0
H2197 H 0.31722 0.06661 0.73939 0.0
H2198 H 0.31281 0.04039 0.7524 0.0
H2199 H 0.3072 0.00017 0.71239 0.0
H2200 H 0.33492 0.92827 0.74573 0.0
H2201 H 0.32993 0.95462 0.73308 0.0
H2202 H 0.32955 0.99209 0.77487 0.0
C2203 C 0.31642 0.04129 0.73813 0.0
C2204 C 0.31212 -0.00143 0.72604 0.0
C2205 C 0.31875 0.05636 0.73058 0.0
C2206 C 0.3299 0.93729 0.75461 0.0
C2207 C 0.3269 0.95232 0.74732 0.0
C2208 C 0.32439 0.99375 0.76135 0.0
C2209 C 0.31902 0.0276 0.72751 0.0
C2210 C 0.31811 0.01157 0.736 0.0
C2211 C 0.32068 0.96441 0.75851 0.0
C2212 C 0.31889 0.98071 0.75115 0.0
H2213 H 0.32915 0.04533 0.68705 0.0
H2214 H 0.32566 0.01909 0.70038 0.0
H2215 H 0.32903 0.01865 0.7618 0.0
H2216 H 0.3174 0.94375 0.79863 0.0
H2217 H 0.31215 0.97008 0.78588 0.0
C2218 C 0.049 0.3296 0.78498 0.0
C2219 C 0.06253 0.33199 0.77402 0.0
C2220 C 0.03413 0.32743 0.77686 0.0
C2221 C 0.0125 0.33644 0.7342 0.0
H2222 H 0.98121 0.30731 0.75395 0.0
C2223 C 0.95107 0.32949 0.70069 0.0
C2224 C 0.93805 0.3294 0.71278 0.0
C2225 C 0.9665 0.32784 0.70743 0.0
C2226 C 0.9898 0.31556 0.74835 0.0
H2227 H 0.07118 0.33322 0.74593 0.0
H2228 H 0.04523 0.32944 0.73176 0.0
H2229 H 0.00786 0.30797 0.76713 0.0
H2230 H 0.931 0.32724 0.74138 0.0
H2231 H 0.95792 0.32443 0.75316 0.0
H2232 H 0.99443 0.34425 0.71566 0.0
C2233 C 0.04607 0.32954 0.74664 0.0
C2234 C 0.00505 0.31594 0.75589 0.0
C2235 C 0.06093 0.33171 0.75476 0.0
C2236 C 0.94076 0.32716 0.73169 0.0
C2237 C 0.9562 0.32554 0.73844 0.0
C2238 C 0.99727 0.33607 0.72667 0.0
C2239 C 0.03247 0.32759 0.7576 0.0
C2240 C 0.01653 0.32648 0.749 0.0
C2241 C 0.96926 0.32611 0.72641 0.0
C2242 C 0.9857 0.32573 0.73376 0.0
H2243 H 0.04981 0.32992 0.79985 0.0
H2244 H 0.02386 0.32617 0.78569 0.0
H2245 H 0.02097 0.34489 0.72877 0.0
H2246 H 0.94934 0.33093 0.68601 0.0
H2247 H 0.97628 0.32804 0.69778 0.0
C2248 C 0.33118 0.04654 0.28725 0.0
C2249 C 0.33332 0.05976 0.27573 0.0
C2250 C 0.32899 0.03144 0.27972 0.0
C2251 C 0.33725 0.00887 0.23743 0.0
H2252 H 0.309 0.97772 0.2591 0.0
C2253 C 0.32922 0.94708 0.20534 0.0
C2254 C 0.32996 0.93421 0.21761 0.0
C2255 C 0.32772 0.96256 0.21194 0.0
C2256 C 0.31699 0.98628 0.25297 0.0
H2257 H 0.33405 0.06767 0.24734 0.0
H2258 H 0.33011 0.04136 0.2342 0.0
H2259 H 0.3098 0.00463 0.27158 0.0
H2260 H 0.32902 0.92743 0.2464 0.0
H2261 H 0.32666 0.9545 0.25795 0.0
H2262 H 0.34459 0.99054 0.21899 0.0
C2263 C 0.33048 0.04259 0.24904 0.0
C2264 C 0.31747 0.00167 0.26012 0.0
C2265 C 0.33273 0.05765 0.25655 0.0
C2266 C 0.32867 0.93712 0.23661 0.0
C2267 C 0.32714 0.95261 0.24321 0.0
C2268 C 0.33675 0.99352 0.23028 0.0
C2269 C 0.32883 0.02927 0.26053 0.0
C2270 C 0.32769 0.01311 0.2525 0.0
C2271 C 0.32691 0.96551 0.23096 0.0
C2272 C 0.3267 0.98202 0.23804 0.0
H2273 H 0.33172 0.04779 0.30208 0.0
H2274 H 0.32794 0.0214 0.28896 0.0
H2275 H 0.34547 0.01729 0.23146 0.0
H2276 H 0.33031 0.94525 0.19063 0.0
H2277 H 0.32739 0.97225 0.20215 0.0
C2278 C 0.94082 0.32641 0.27513 0.0
C2279 C 0.93574 0.33985 0.28496 0.0
C2280 C 0.95654 0.32509 0.26922 0.0
C2281 C 0.99674 0.34262 0.27609 0.0
H2282 H 0.00458 0.32582 0.22721 0.0
C2283 C 0.05339 0.35542 0.23452 0.0
C2284 C 0.06115 0.34235 0.22648 0.0
C2285 C 0.03853 0.35363 0.24269 0.0
C2286 C 0.00256 0.33037 0.24097 0.0
H2287 H 0.94344 0.3622 0.29683 0.0
H2288 H 0.9705 0.36029 0.28582 0.0
H2289 H 0.97773 0.32538 0.23973 0.0
H2290 H 0.05922 0.31708 0.22096 0.0
H2291 H 0.03292 0.3142 0.23464 0.0
H2292 H 0.02151 0.34825 0.27685 0.0
C2293 C 0.96248 0.35057 0.28294 0.0
C2294 C 0.9872 0.33007 0.2482 0.0
C2295 C 0.94683 0.3518 0.289 0.0
C2296 C 0.05354 0.32748 0.22671 0.0
C2297 C 0.03852 0.32577 0.23463 0.0
C2298 C 0.01202 0.34312 0.26873 0.0
C2299 C 0.96754 0.33725 0.27289 0.0
C2300 C 0.98406 0.33639 0.26576 0.0
C2301 C 0.03095 0.33882 0.24277 0.0
C2302 C 0.01502 0.33718 0.25104 0.0
H2303 H 0.93257 0.31702 0.27163 0.0
H2304 H 0.96006 0.31456 0.26173 0.0
H2305 H 0.99485 0.34724 0.28982 0.0
H2306 H 0.05866 0.36713 0.23426 0.0
H2307 H 0.0328 0.36393 0.24864 0.0
C2308 C 0.67633 0.93704 0.26451 0.0
C2309 C 0.66727 0.93463 0.28053 0.0
C2310 C 0.67824 0.95226 0.25721 0.0
C2311 C 0.67476 0.99487 0.26831 0.0
H2312 H 0.6656 -0.0004 0.21628 0.0
C2313 C 0.65763 0.0548 0.23622 0.0
C2314 C 0.66276 0.05832 0.21826 0.0
C2315 C 0.66045 0.03989 0.24391 0.0
C2316 C 0.66849 -0.00151 0.23075 0.0
H2317 H 0.65332 0.94644 0.30158 0.0
H2318 H 0.65684 0.97296 0.289 0.0
H2319 H 0.66688 0.97317 0.22976 0.0
H2320 H 0.6751 0.04896 0.1944 0.0
H2321 H 0.68034 0.02303 0.20801 0.0
H2322 H 0.67619 0.02019 0.26937 0.0
C2323 C 0.66258 0.96308 0.28218 0.0
C2324 C 0.6692 0.98334 0.23847 0.0
C2325 C 0.66059 0.94787 0.2894 0.0
C2326 C 0.67107 0.04667 0.20831 0.0
C2327 C 0.67393 0.03175 0.21604 0.0
C2328 C 0.67413 0.01003 0.26057 0.0
C2329 C 0.67122 0.96541 0.26586 0.0
C2330 C 0.67206 0.98139 0.25739 0.0
C2331 C 0.66853 0.02815 0.23387 0.0
C2332 C 0.67068 0.01203 0.24176 0.0
H2333 H 0.68187 0.92714 0.25751 0.0
H2334 H 0.68512 0.95374 0.24474 0.0
H2335 H 0.67721 0.9937 0.28288 0.0
H2336 H 0.65142 0.06357 0.24437 0.0
H2337 H 0.65595 0.03747 0.25758 0.0
C2338 C 0.05316 0.66971 0.26818 0.0
C2339 C 0.05631 0.65846 0.28199 0.0
C2340 C 0.03781 0.67146 0.26117 0.0
C2341 C 0.99579 0.66348 0.27166 0.0
H2342 H 0.99031 0.66404 0.21866 0.0
C2343 C 0.93551 0.65134 0.23755 0.0
C2344 C 0.93142 0.65987 0.22163 0.0
C2345 C 0.95062 0.65275 0.2452 0.0
C2346 C 0.99162 0.66417 0.23349 0.0
H2347 H 0.04584 0.64057 0.29965 0.0
H2348 H 0.01907 0.64359 0.28737 0.0
H2349 H 0.01697 0.66386 0.23168 0.0
H2350 H 0.93987 0.67679 0.20141 0.0
H2351 H 0.96631 0.67938 0.21487 0.0
H2352 H 0.97048 0.6637 0.27353 0.0
C2353 C 0.02844 0.65107 0.28199 0.0
C2354 C 0.0069 0.66405 0.24094 0.0
C2355 C 0.04378 0.64923 0.28889 0.0
C2356 C 0.94275 0.66994 0.21358 0.0
C2357 C 0.95788 0.6714 0.22128 0.0
C2358 C 0.98052 0.66369 0.26423 0.0
C2359 C 0.02531 0.66211 0.26796 0.0
C2360 C 0.00914 0.66345 0.26009 0.0
C2361 C 0.96201 0.66277 0.23714 0.0
C2362 C 0.97824 0.66378 0.24504 0.0
H2363 H 0.06262 0.6769 0.2625 0.0
H2364 H 0.03573 0.68014 0.25043 0.0
H2365 H 0.99715 0.66328 0.28649 0.0
H2366 H 0.92714 0.64326 0.24388 0.0
H2367 H 0.95349 0.64567 0.25719 0.0
loop_
_geom_bond_atom_site_label_1
_geom_bond_atom_site_label_2
_geom_bond_distance
_geom_bond_site_symmetry_2
_ccdc_geom_bond_type
Li0 N17 1.990 . S
Li0 O60 1.956 . S
Li0 O61 1.970 . S
Li0 O62 1.961 . S
Li1 N25 1.990 . S
Li1 O60 1.970 . S
Li1 O61 1.956 . S
Li1 O63 1.961 . S
Li2 N47 1.990 . S
Li2 O60 1.961 . S
Li2 O62 1.956 . S
Li2 O63 1.970 . S
Li3 N53 1.990 . S
Li3 O61 1.961 . S
Li3 O62 1.970 . S
Li3 O63 1.956 . S
C4 C6 1.348 . S
C4 C7 1.356 . S
C4 O60 1.325 . S
N5 C8 1.314 . S
N5 C9 1.279 . S
C6 C4 1.348 . S
C6 C8 1.353 . S
C6 H64 0.929 . S
C7 C4 1.356 . S
C7 C9 1.358 . S
C7 H65 0.930 . S
C8 N5 1.314 . S
C8 C6 1.353 . S
C8 H66 0.930 . S
C9 N5 1.279 . S
C9 C7 1.358 . S
C9 H67 0.930 . S
C10 C13 1.348 . S
C10 C14 1.356 . S
C10 O61 1.325 . S
C11 N12 1.279 . S
C11 C14 1.358 . S
C11 H68 0.930 . S
N12 C11 1.279 . S
N12 C15 1.314 . S
C13 C10 1.348 . S
C13 C15 1.353 . S
C13 H69 0.929 . S
C14 C10 1.356 . S
C14 C11 1.358 . S
C14 H70 0.930 . S
C15 N12 1.314 . S
C15 C13 1.353 . S
C15 H71 0.930 . S
C16 N17 1.314 . S
C16 C21 1.353 . S
C16 H22 0.930 . S
N17 Li0 1.990 . S
N17 C16 1.314 . S
N17 C19 1.279 . S
C18 C19 1.358 . S
C18 C20 1.356 . S
C18 H72 0.930 . S
C19 N17 1.279 . S
C19 C18 1.358 . S
C19 H23 0.930 . S
C20 C18 1.356 . S
C20 C21 1.348 . S
C21 C16 1.353 . S
C21 C20 1.348 . S
C21 H73 0.929 . S
H22 C16 0.930 . S
H23 C19 0.930 . S
C24 N25 1.314 . S
C24 C26 1.353 . S
C24 H30 0.930 . S
N25 Li1 1.990 . S
N25 C24 1.314 . S
N25 C28 1.279 . S
C26 C24 1.353 . S
C26 C29 1.348 . S
C26 H74 0.929 . S
C27 C28 1.358 . S
C27 C29 1.356 . S
C27 H75 0.930 . S
C28 N25 1.279 . S
C28 C27 1.358 . S
C28 H31 0.930 . S
C29 C26 1.348 . S
C29 C27 1.356 . S
H30 C24 0.930 . S
H31 C28 0.930 . S
C32 C34 1.348 . S
C32 C35 1.356 . S
C32 O62 1.325 . S
N33 C36 1.314 . S
N33 C37 1.279 . S
C34 C32 1.348 . S
C34 C36 1.353 . S
C34 H76 0.929 . S
C35 C32 1.356 . S
C35 C37 1.358 . S
C35 H77 0.930 . S
C36 N33 1.314 . S
C36 C34 1.353 . S
C36 H78 0.930 . S
C37 N33 1.279 . S
C37 C35 1.358 . S
C37 H79 0.930 . S
C38 C39 1.348 . S
C38 C40 1.356 . S
C38 O63 1.325 . S
C39 C38 1.348 . S
C39 C41 1.353 . S
C39 H80 0.929 . S
C40 C38 1.356 . S
C40 C42 1.358 . S
C40 H81 0.930 . S
C41 C39 1.353 . S
C41 N43 1.314 . S
C41 H82 0.930 . S
C42 C40 1.358 . S
C42 N43 1.279 . S
C42 H83 0.930 . S
N43 C41 1.314 . S
N43 C42 1.279 . S
C44 C46 1.353 . S
C44 N47 1.314 . S
C44 H50 0.930 . S
C45 N47 1.279 . S
C45 C48 1.358 . S
C45 H51 0.930 . S
C46 C44 1.353 . S
C46 C49 1.348 . S
C46 H84 0.929 . S
N47 Li2 1.990 . S
N47 C44 1.314 . S
N47 C45 1.279 . S
C48 C45 1.358 . S
C48 C49 1.356 . S
C48 H85 0.930 . S
C49 C46 1.348 . S
C49 C48 1.356 . S
H50 C44 0.930 . S
H51 C45 0.930 . S
C52 N53 1.314 . S
C52 C54 1.353 . S
C52 H58 0.930 . S
N53 Li3 1.990 . S
N53 C52 1.314 . S
N53 C56 1.279 . S
C54 C52 1.353 . S
C54 C57 1.348 . S
C54 H86 0.929 . S
C55 C56 1.358 . S
C55 C57 1.356 . S
C55 H87 0.930 . S
C56 N53 1.279 . S
C56 C55 1.358 . S
C56 H59 0.930 . S
C57 C54 1.348 . S
C57 C55 1.356 . S
H58 C52 0.930 . S
H59 C56 0.930 . S
O60 Li0 1.956 . S
O60 Li1 1.970 . S
O60 Li2 1.961 . S
O60 C4 1.325 . S
O61 Li0 1.970 . S
O61 Li1 1.956 . S
O61 Li3 1.961 . S
O61 C10 1.325 . S
O62 Li0 1.961 . S
O62 Li2 1.956 . S
O62 Li3 1.970 . S
O62 C32 1.325 . S
O63 Li1 1.961 . S
O63 Li2 1.970 . S
O63 Li3 1.956 . S
O63 C38 1.325 . S
H64 C6 0.929 . S
H65 C7 0.930 . S
H66 C8 0.930 . S
H67 C9 0.930 . S
H68 C11 0.930 . S
H69 C13 0.929 . S
H70 C14 0.930 . S
H71 C15 0.930 . S
H72 C18 0.930 . S
H73 C21 0.929 . S
H74 C26 0.929 . S
H75 C27 0.930 . S
H76 C34 0.929 . S
H77 C35 0.930 . S
H78 C36 0.930 . S
H79 C37 0.930 . S
H80 C39 0.929 . S
H81 C40 0.930 . S
H82 C41 0.930 . S
H83 C42 0.930 . S
H84 C46 0.929 . S
H85 C48 0.930 . S
H86 C54 0.929 . S
H87 C55 0.930 . S
Li88 N105 1.990 . S
Li88 O148 1.956 . S
Li88 O149 1.970 . S
Li88 O150 1.961 . S
Li89 N113 1.990 . S
Li89 O148 1.970 . S
Li89 O149 1.956 . S
Li89 O151 1.961 . S
Li90 N135 1.990 . S
Li90 O148 1.961 . S
Li90 O150 1.956 . S
Li90 O151 1.970 . S
Li91 N141 1.990 . S
Li91 O149 1.961 . S
Li91 O150 1.970 . S
Li91 O151 1.956 . S
C92 C94 1.348 . S
C92 C95 1.356 . S
C92 O148 1.325 . S
N93 C96 1.314 . S
N93 C97 1.279 . S
C94 C92 1.348 . S
C94 C96 1.353 . S
C94 H152 0.929 . S
C95 C92 1.356 . S
C95 C97 1.358 . S
C95 H153 0.930 . S
C96 N93 1.314 . S
C96 C94 1.353 . S
C96 H154 0.930 . S
C97 N93 1.279 . S
C97 C95 1.358 . S
C97 H155 0.930 . S
C98 C101 1.348 . S
C98 C102 1.356 . S
C98 O149 1.325 . S
C99 N100 1.279 . S
C99 C102 1.358 . S
C99 H156 0.930 . S
N100 C99 1.279 . S
N100 C103 1.314 . S
C101 C98 1.348 . S
C101 C103 1.353 . S
C101 H157 0.929 . S
C102 C98 1.356 . S
C102 C99 1.358 . S
C102 H158 0.930 . S
C103 N100 1.314 . S
C103 C101 1.353 . S
C103 H159 0.930 . S
C104 N105 1.314 . S
C104 C109 1.353 . S
C104 H110 0.930 . S
N105 Li88 1.990 . S
N105 C104 1.314 . S
N105 C107 1.279 . S
C106 C107 1.358 . S
C106 C108 1.356 . S
C106 H160 0.930 . S
C107 N105 1.279 . S
C107 C106 1.358 . S
C107 H111 0.930 . S
C108 C106 1.356 . S
C108 C109 1.348 . S
C109 C104 1.353 . S
C109 C108 1.348 . S
C109 H161 0.929 . S
H110 C104 0.930 . S
H111 C107 0.930 . S
C112 N113 1.314 . S
C112 C114 1.353 . S
C112 H118 0.930 . S
N113 Li89 1.990 . S
N113 C112 1.314 . S
N113 C116 1.279 . S
C114 C112 1.353 . S
C114 C117 1.348 . S
C114 H162 0.929 . S
C115 C116 1.358 . S
C115 C117 1.356 . S
C115 H163 0.930 . S
C116 N113 1.279 . S
C116 C115 1.358 . S
C116 H119 0.930 . S
C117 C114 1.348 . S
C117 C115 1.356 . S
H118 C112 0.930 . S
H119 C116 0.930 . S
C120 C122 1.348 . S
C120 C123 1.356 . S
C120 O150 1.325 . S
N121 C124 1.314 . S
N121 C125 1.279 . S
C122 C120 1.348 . S
C122 C124 1.353 . S
C122 H164 0.929 . S
C123 C120 1.356 . S
C123 C125 1.358 . S
C123 H165 0.930 . S
C124 N121 1.314 . S
C124 C122 1.353 . S
C124 H166 0.930 . S
C125 N121 1.279 . S
C125 C123 1.358 . S
C125 H167 0.930 . S
C126 C127 1.348 . S
C126 C128 1.356 . S
C126 O151 1.325 . S
C127 C126 1.348 . S
C127 C129 1.353 . S
C127 H168 0.929 . S
C128 C126 1.356 . S
C128 C130 1.358 . S
C128 H169 0.930 . S
C129 C127 1.353 . S
C129 N131 1.314 . S
C129 H170 0.930 . S
C130 C128 1.358 . S
C130 N131 1.279 . S
C130 H171 0.930 . S
N131 C129 1.314 . S
N131 C130 1.279 . S
C132 C134 1.353 . S
C132 N135 1.314 . S
C132 H138 0.930 . S
C133 N135 1.279 . S
C133 C136 1.358 . S
C133 H139 0.930 . S
C134 C132 1.353 . S
C134 C137 1.348 . S
C134 H172 0.929 . S
N135 Li90 1.990 . S
N135 C132 1.314 . S
N135 C133 1.279 . S
C136 C133 1.358 . S
C136 C137 1.356 . S
C136 H173 0.930 . S
C137 C134 1.348 . S
C137 C136 1.356 . S
H138 C132 0.930 . S
H139 C133 0.930 . S
C140 N141 1.314 . S
C140 C142 1.353 . S
C140 H146 0.930 . S
N141 Li91 1.990 . S
N141 C140 1.314 . S
N141 C144 1.279 . S
C142 C140 1.353 . S
C142 C145 1.348 . S
C142 H174 0.929 . S
C143 C144 1.358 . S
C143 C145 1.356 . S
C143 H175 0.930 . S
C144 N141 1.279 . S
C144 C143 1.358 . S
C144 H147 0.930 . S
C145 C142 1.348 . S
C145 C143 1.356 . S
H146 C140 0.930 . S
H147 C144 0.930 . S
O148 Li88 1.956 . S
O148 Li89 1.970 . S
O148 Li90 1.961 . S
O148 C92 1.325 . S
O149 Li88 1.970 . S
O149 Li89 1.956 . S
O149 Li91 1.961 . S
O149 C98 1.325 . S
O150 Li88 1.961 . S
O150 Li90 1.956 . S
O150 Li91 1.970 . S
O150 C120 1.325 . S
O151 Li89 1.961 . S
O151 Li90 1.970 . S
O151 Li91 1.956 . S
O151 C126 1.325 . S
H152 C94 0.929 . S
H153 C95 0.930 . S
H154 C96 0.930 . S
H155 C97 0.930 . S
H156 C99 0.930 . S
H157 C101 0.929 . S
H158 C102 0.930 . S
H159 C103 0.930 . S
H160 C106 0.930 . S
H161 C109 0.929 . S
H162 C114 0.929 . S
H163 C115 0.930 . S
H164 C122 0.929 . S
H165 C123 0.930 . S
H166 C124 0.930 . S
H167 C125 0.930 . S
H168 C127 0.929 . S
H169 C128 0.930 . S
H170 C129 0.930 . S
H171 C130 0.930 . S
H172 C134 0.929 . S
H173 C136 0.930 . S
H174 C142 0.929 . S
H175 C143 0.930 . S
Li176 N193 1.990 . S
Li176 O236 1.956 . S
Li176 O237 1.970 . S
Li176 O238 1.961 . S
Li177 N201 1.990 . S
Li177 O236 1.970 . S
Li177 O237 1.956 . S
Li177 O239 1.961 . S
Li178 N223 1.990 . S
Li178 O236 1.961 . S
Li178 O238 1.956 . S
Li178 O239 1.970 . S
Li179 N229 1.990 . S
Li179 O237 1.961 . S
Li179 O238 1.970 . S
Li179 O239 1.956 . S
C180 C182 1.348 . S
C180 C183 1.356 . S
C180 O236 1.325 . S
N181 C184 1.314 . S
N181 C185 1.279 . S
C182 C180 1.348 . S
C182 C184 1.353 . S
C182 H240 0.929 . S
C183 C180 1.356 . S
C183 C185 1.358 . S
C183 H241 0.930 . S
C184 N181 1.314 . S
C184 C182 1.353 . S
C184 H242 0.930 . S
C185 N181 1.279 . S
C185 C183 1.358 . S
C185 H243 0.930 . S
C186 C189 1.348 . S
C186 C190 1.356 . S
C186 O237 1.325 . S
C187 N188 1.279 . S
C187 C190 1.358 . S
C187 H244 0.930 . S
N188 C187 1.279 . S
N188 C191 1.314 . S
C189 C186 1.348 . S
C189 C191 1.353 . S
C189 H245 0.929 . S
C190 C186 1.356 . S
C190 C187 1.358 . S
C190 H246 0.930 . S
C191 N188 1.314 . S
C191 C189 1.353 . S
C191 H247 0.930 . S
C192 N193 1.314 . S
C192 C197 1.353 . S
C192 H198 0.930 . S
N193 Li176 1.990 . S
N193 C192 1.314 . S
N193 C195 1.279 . S
C194 C195 1.358 . S
C194 C196 1.356 . S
C194 H248 0.930 . S
C195 N193 1.279 . S
C195 C194 1.358 . S
C195 H199 0.930 . S
C196 C194 1.356 . S
C196 C197 1.348 . S
C197 C192 1.353 . S
C197 C196 1.348 . S
C197 H249 0.929 . S
H198 C192 0.930 . S
H199 C195 0.930 . S
C200 N201 1.314 . S
C200 C202 1.353 . S
C200 H206 0.930 . S
N201 Li177 1.990 . S
N201 C200 1.314 . S
N201 C204 1.279 . S
C202 C200 1.353 . S
C202 C205 1.348 . S
C202 H250 0.929 . S
C203 C204 1.358 . S
C203 C205 1.356 . S
C203 H251 0.930 . S
C204 N201 1.279 . S
C204 C203 1.358 . S
C204 H207 0.930 . S
C205 C202 1.348 . S
C205 C203 1.356 . S
H206 C200 0.930 . S
H207 C204 0.930 . S
C208 C210 1.348 . S
C208 C211 1.356 . S
C208 O238 1.325 . S
N209 C212 1.314 . S
N209 C213 1.279 . S
C210 C208 1.348 . S
C210 C212 1.353 . S
C210 H252 0.929 . S
C211 C208 1.356 . S
C211 C213 1.358 . S
C211 H253 0.930 . S
C212 N209 1.314 . S
C212 C210 1.353 . S
C212 H254 0.930 . S
C213 N209 1.279 . S
C213 C211 1.358 . S
C213 H255 0.930 . S
C214 C215 1.348 . S
C214 C216 1.356 . S
C214 O239 1.325 . S
C215 C214 1.348 . S
C215 C217 1.353 . S
C215 H256 0.929 . S
C216 C214 1.356 . S
C216 C218 1.358 . S
C216 H257 0.930 . S
C217 C215 1.353 . S
C217 N219 1.314 . S
C217 H258 0.930 . S
C218 C216 1.358 . S
C218 N219 1.279 . S
C218 H259 0.930 . S
N219 C217 1.314 . S
N219 C218 1.279 . S
C220 C222 1.353 . S
C220 N223 1.314 . S
C220 H226 0.930 . S
C221 N223 1.279 . S
C221 C224 1.358 . S
C221 H227 0.930 . S
C222 C220 1.353 . S
C222 C225 1.348 . S
C222 H260 0.929 . S
N223 Li178 1.990 . S
N223 C220 1.314 . S
N223 C221 1.279 . S
C224 C221 1.358 . S
C224 C225 1.356 . S
C224 H261 0.930 . S
C225 C222 1.348 . S
C225 C224 1.356 . S
H226 C220 0.930 . S
H227 C221 0.930 . S
C228 N229 1.314 . S
C228 C230 1.353 . S
C228 H234 0.930 . S
N229 Li179 1.990 . S
N229 C228 1.314 . S
N229 C232 1.279 . S
C230 C228 1.353 . S
C230 C233 1.348 . S
C230 H262 0.929 . S
C231 C232 1.358 . S
C231 C233 1.356 . S
C231 H263 0.930 . S
C232 N229 1.279 . S
C232 C231 1.358 . S
C232 H235 0.930 . S
C233 C230 1.348 . S
C233 C231 1.356 . S
H234 C228 0.930 . S
H235 C232 0.930 . S
O236 Li176 1.956 . S
O236 Li177 1.970 . S
O236 Li178 1.961 . S
O236 C180 1.325 . S
O237 Li176 1.970 . S
O237 Li177 1.956 . S
O237 Li179 1.961 . S
O237 C186 1.325 . S
O238 Li176 1.961 . S
O238 Li178 1.956 . S
O238 Li179 1.970 . S
O238 C208 1.325 . S
O239 Li177 1.961 . S
O239 Li178 1.970 . S
O239 Li179 1.956 . S
O239 C214 1.325 . S
H240 C182 0.929 . S
H241 C183 0.930 . S
H242 C184 0.930 . S
H243 C185 0.930 . S
H244 C187 0.930 . S
H245 C189 0.929 . S
H246 C190 0.930 . S
H247 C191 0.930 . S
H248 C194 0.930 . S
H249 C197 0.929 . S
H250 C202 0.929 . S
H251 C203 0.930 . S
H252 C210 0.929 . S
H253 C211 0.930 . S
H254 C212 0.930 . S
H255 C213 0.930 . S
H256 C215 0.929 . S
H257 C216 0.930 . S
H258 C217 0.930 . S
H259 C218 0.930 . S
H260 C222 0.929 . S
H261 C224 0.930 . S
H262 C230 0.929 . S
H263 C231 0.930 . S
Li264 N281 1.990 . S
Li264 O324 1.956 . S
Li264 O325 1.970 . S
Li264 O326 1.961 . S
Li265 N289 1.990 . S
Li265 O324 1.970 . S
Li265 O325 1.956 . S
Li265 O327 1.961 . S
Li266 N311 1.990 . S
Li266 O324 1.961 . S
Li266 O326 1.956 . S
Li266 O327 1.970 . S
Li267 N317 1.990 . S
Li267 O325 1.961 . S
Li267 O326 1.970 . S
Li267 O327 1.956 . S
C268 C270 1.348 . S
C268 C271 1.356 . S
C268 O324 1.325 . S
N269 C272 1.314 . S
N269 C273 1.279 . S
C270 C268 1.348 . S
C270 C272 1.353 . S
C270 H328 0.929 . S
C271 C268 1.356 . S
C271 C273 1.358 . S
C271 H329 0.930 . S
C272 N269 1.314 . S
C272 C270 1.353 . S
C272 H330 0.930 . S
C273 N269 1.279 . S
C273 C271 1.358 . S
C273 H331 0.930 . S
C274 C277 1.348 . S
C274 C278 1.356 . S
C274 O325 1.325 . S
C275 N276 1.279 . S
C275 C278 1.358 . S
C275 H332 0.930 . S
N276 C275 1.279 . S
N276 C279 1.314 . S
C277 C274 1.348 . S
C277 C279 1.353 . S
C277 H333 0.929 . S
C278 C274 1.356 . S
C278 C275 1.358 . S
C278 H334 0.930 . S
C279 N276 1.314 . S
C279 C277 1.353 . S
C279 H335 0.930 . S
C280 N281 1.314 . S
C280 C285 1.353 . S
C280 H286 0.930 . S
N281 Li264 1.990 . S
N281 C280 1.314 . S
N281 C283 1.279 . S
C282 C283 1.358 . S
C282 C284 1.356 . S
C282 H336 0.930 . S
C283 N281 1.279 . S
C283 C282 1.358 . S
C283 H287 0.930 . S
C284 C282 1.356 . S
C284 C285 1.348 . S
C285 C280 1.353 . S
C285 C284 1.348 . S
C285 H337 0.929 . S
H286 C280 0.930 . S
H287 C283 0.930 . S
C288 N289 1.314 . S
C288 C290 1.353 . S
C288 H294 0.930 . S
N289 Li265 1.990 . S
N289 C288 1.314 . S
N289 C292 1.279 . S
C290 C288 1.353 . S
C290 C293 1.348 . S
C290 H338 0.929 . S
C291 C292 1.358 . S
C291 C293 1.356 . S
C291 H339 0.930 . S
C292 N289 1.279 . S
C292 C291 1.358 . S
C292 H295 0.930 . S
C293 C290 1.348 . S
C293 C291 1.356 . S
H294 C288 0.930 . S
H295 C292 0.930 . S
C296 C298 1.348 . S
C296 C299 1.356 . S
C296 O326 1.325 . S
N297 C300 1.314 . S
N297 C301 1.279 . S
C298 C296 1.348 . S
C298 C300 1.353 . S
C298 H340 0.929 . S
C299 C296 1.356 . S
C299 C301 1.358 . S
C299 H341 0.930 . S
C300 N297 1.314 . S
C300 C298 1.353 . S
C300 H342 0.930 . S
C301 N297 1.279 . S
C301 C299 1.358 . S
C301 H343 0.930 . S
C302 C303 1.348 . S
C302 C304 1.356 . S
C302 O327 1.325 . S
C303 C302 1.348 . S
C303 C305 1.353 . S
C303 H344 0.929 . S
C304 C302 1.356 . S
C304 C306 1.358 . S
C304 H345 0.930 . S
C305 C303 1.353 . S
C305 N307 1.314 . S
C305 H346 0.930 . S
C306 C304 1.358 . S
C306 N307 1.279 . S
C306 H347 0.930 . S
N307 C305 1.314 . S
N307 C306 1.279 . S
C308 C310 1.353 . S
C308 N311 1.314 . S
C308 H314 0.930 . S
C309 N311 1.279 . S
C309 C312 1.358 . S
C309 H315 0.930 . S
C310 C308 1.353 . S
C310 C313 1.348 . S
C310 H348 0.929 . S
N311 Li266 1.990 . S
N311 C308 1.314 . S
N311 C309 1.279 . S
C312 C309 1.358 . S
C312 C313 1.356 . S
C312 H349 0.930 . S
C313 C310 1.348 . S
C313 C312 1.356 . S
H314 C308 0.930 . S
H315 C309 0.930 . S
C316 N317 1.314 . S
C316 C318 1.353 . S
C316 H322 0.930 . S
N317 Li267 1.990 . S
N317 C316 1.314 . S
N317 C320 1.279 . S
C318 C316 1.353 . S
C318 C321 1.348 . S
C318 H350 0.929 . S
C319 C320 1.358 . S
C319 C321 1.356 . S
C319 H351 0.930 . S
C320 N317 1.279 . S
C320 C319 1.358 . S
C320 H323 0.930 . S
C321 C318 1.348 . S
C321 C319 1.356 . S
H322 C316 0.930 . S
H323 C320 0.930 . S
O324 Li264 1.956 . S
O324 Li265 1.970 . S
O324 Li266 1.961 . S
O324 C268 1.325 . S
O325 Li264 1.970 . S
O325 Li265 1.956 . S
O325 Li267 1.961 . S
O325 C274 1.325 . S
O326 Li264 1.961 . S
O326 Li266 1.956 . S
O326 Li267 1.970 . S
O326 C296 1.325 . S
O327 Li265 1.961 . S
O327 Li266 1.970 . S
O327 Li267 1.956 . S
O327 C302 1.325 . S
H328 C270 0.929 . S
H329 C271 0.930 . S
H330 C272 0.930 . S
H331 C273 0.930 . S
H332 C275 0.930 . S
H333 C277 0.929 . S
H334 C278 0.930 . S
H335 C279 0.930 . S
H336 C282 0.930 . S
H337 C285 0.929 . S
H338 C290 0.929 . S
H339 C291 0.930 . S
H340 C298 0.929 . S
H341 C299 0.930 . S
H342 C300 0.930 . S
H343 C301 0.930 . S
H344 C303 0.929 . S
H345 C304 0.930 . S
H346 C305 0.930 . S
H347 C306 0.930 . S
H348 C310 0.929 . S
H349 C312 0.930 . S
H350 C318 0.929 . S
H351 C319 0.930 . S
Li352 N369 1.990 . S
Li352 O412 1.956 . S
Li352 O413 1.970 . S
Li352 O414 1.961 . S
Li353 N377 1.990 . S
Li353 O412 1.970 . S
Li353 O413 1.956 . S
Li353 O415 1.961 . S
Li354 N399 1.990 . S
Li354 O412 1.961 . S
Li354 O414 1.956 . S
Li354 O415 1.970 . S
Li355 N405 1.990 . S
Li355 O413 1.961 . S
Li355 O414 1.970 . S
Li355 O415 1.956 . S
C356 C358 1.348 . S
C356 C359 1.356 . S
C356 O412 1.325 . S
N357 C360 1.314 . S
N357 C361 1.279 . S
C358 C356 1.348 . S
C358 C360 1.353 . S
C358 H416 0.929 . S
C359 C356 1.356 . S
C359 C361 1.358 . S
C359 H417 0.930 . S
C360 N357 1.314 . S
C360 C358 1.353 . S
C360 H418 0.930 . S
C361 N357 1.279 . S
C361 C359 1.358 . S
C361 H419 0.930 . S
C362 C365 1.348 . S
C362 C366 1.356 . S
C362 O413 1.325 . S
C363 N364 1.279 . S
C363 C366 1.358 . S
C363 H420 0.930 . S
N364 C363 1.279 . S
N364 C367 1.314 . S
C365 C362 1.348 . S
C365 C367 1.353 . S
C365 H421 0.929 . S
C366 C362 1.356 . S
C366 C363 1.358 . S
C366 H422 0.930 . S
C367 N364 1.314 . S
C367 C365 1.353 . S
C367 H423 0.930 . S
C368 N369 1.314 . S
C368 C373 1.353 . S
C368 H374 0.930 . S
N369 Li352 1.990 . S
N369 C368 1.314 . S
N369 C371 1.279 . S
C370 C371 1.358 . S
C370 C372 1.356 . S
C370 H424 0.930 . S
C371 N369 1.279 . S
C371 C370 1.358 . S
C371 H375 0.930 . S
C372 C370 1.356 . S
C372 C373 1.348 . S
C373 C368 1.353 . S
C373 C372 1.348 . S
C373 H425 0.929 . S
H374 C368 0.930 . S
H375 C371 0.930 . S
C376 N377 1.314 . S
C376 C378 1.353 . S
C376 H382 0.930 . S
N377 Li353 1.990 . S
N377 C376 1.314 . S
N377 C380 1.279 . S
C378 C376 1.353 . S
C378 C381 1.348 . S
C378 H426 0.929 . S
C379 C380 1.358 . S
C379 C381 1.356 . S
C379 H427 0.930 . S
C380 N377 1.279 . S
C380 C379 1.358 . S
C380 H383 0.930 . S
C381 C378 1.348 . S
C381 C379 1.356 . S
H382 C376 0.930 . S
H383 C380 0.930 . S
C384 C386 1.348 . S
C384 C387 1.356 . S
C384 O414 1.325 . S
N385 C388 1.314 . S
N385 C389 1.279 . S
C386 C384 1.348 . S
C386 C388 1.353 . S
C386 H428 0.929 . S
C387 C384 1.356 . S
C387 C389 1.358 . S
C387 H429 0.930 . S
C388 N385 1.314 . S
C388 C386 1.353 . S
C388 H430 0.930 . S
C389 N385 1.279 . S
C389 C387 1.358 . S
C389 H431 0.930 . S
C390 C391 1.348 . S
C390 C392 1.356 . S
C390 O415 1.325 . S
C391 C390 1.348 . S
C391 C393 1.353 . S
C391 H432 0.929 . S
C392 C390 1.356 . S
C392 C394 1.358 . S
C392 H433 0.930 . S
C393 C391 1.353 . S
C393 N395 1.314 . S
C393 H434 0.930 . S
C394 C392 1.358 . S
C394 N395 1.279 . S
C394 H435 0.930 . S
N395 C393 1.314 . S
N395 C394 1.279 . S
C396 C398 1.353 . S
C396 N399 1.314 . S
C396 H402 0.930 . S
C397 N399 1.279 . S
C397 C400 1.358 . S
C397 H403 0.930 . S
C398 C396 1.353 . S
C398 C401 1.348 . S
C398 H436 0.929 . S
N399 Li354 1.990 . S
N399 C396 1.314 . S
N399 C397 1.279 . S
C400 C397 1.358 . S
C400 C401 1.356 . S
C400 H437 0.930 . S
C401 C398 1.348 . S
C401 C400 1.356 . S
H402 C396 0.930 . S
H403 C397 0.930 . S
C404 N405 1.314 . S
C404 C406 1.353 . S
C404 H410 0.930 . S
N405 Li355 1.990 . S
N405 C404 1.314 . S
N405 C408 1.279 . S
C406 C404 1.353 . S
C406 C409 1.348 . S
C406 H438 0.929 . S
C407 C408 1.358 . S
C407 C409 1.356 . S
C407 H439 0.930 . S
C408 N405 1.279 . S
C408 C407 1.358 . S
C408 H411 0.930 . S
C409 C406 1.348 . S
C409 C407 1.356 . S
H410 C404 0.930 . S
H411 C408 0.930 . S
O412 Li352 1.956 . S
O412 Li353 1.970 . S
O412 Li354 1.961 . S
O412 C356 1.325 . S
O413 Li352 1.970 . S
O413 Li353 1.956 . S
O413 Li355 1.961 . S
O413 C362 1.325 . S
O414 Li352 1.961 . S
O414 Li354 1.956 . S
O414 Li355 1.970 . S
O414 C384 1.325 . S
O415 Li353 1.961 . S
O415 Li354 1.970 . S
O415 Li355 1.956 . S
O415 C390 1.325 . S
H416 C358 0.929 . S
H417 C359 0.930 . S
H418 C360 0.930 . S
H419 C361 0.930 . S
H420 C363 0.930 . S
H421 C365 0.929 . S
H422 C366 0.930 . S
H423 C367 0.930 . S
H424 C370 0.930 . S
H425 C373 0.929 . S
H426 C378 0.929 . S
H427 C379 0.930 . S
H428 C386 0.929 . S
H429 C387 0.930 . S
H430 C388 0.930 . S
H431 C389 0.930 . S
H432 C391 0.929 . S
H433 C392 0.930 . S
H434 C393 0.930 . S
H435 C394 0.930 . S
H436 C398 0.929 . S
H437 C400 0.930 . S
H438 C406 0.929 . S
H439 C407 0.930 . S
Li440 N457 1.990 . S
Li440 O500 1.956 . S
Li440 O501 1.970 . S
Li440 O502 1.961 . S
Li441 N465 1.990 . S
Li441 O500 1.970 . S
Li441 O501 1.956 . S
Li441 O503 1.961 . S
Li442 N487 1.990 . S
Li442 O500 1.961 . S
Li442 O502 1.956 . S
Li442 O503 1.970 . S
Li443 N493 1.990 . S
Li443 O501 1.961 . S
Li443 O502 1.970 . S
Li443 O503 1.956 . S
C444 C446 1.348 . S
C444 C447 1.356 . S
C444 O500 1.325 . S
N445 C448 1.314 . S
N445 C449 1.279 . S
C446 C444 1.348 . S
C446 C448 1.353 . S
C446 H504 0.929 . S
C447 C444 1.356 . S
C447 C449 1.358 . S
C447 H505 0.930 . S
C448 N445 1.314 . S
C448 C446 1.353 . S
C448 H506 0.930 . S
C449 N445 1.279 . S
C449 C447 1.358 . S
C449 H507 0.930 . S
C450 C453 1.348 . S
C450 C454 1.356 . S
C450 O501 1.325 . S
C451 N452 1.279 . S
C451 C454 1.358 . S
C451 H508 0.930 . S
N452 C451 1.279 . S
N452 C455 1.314 . S
C453 C450 1.348 . S
C453 C455 1.353 . S
C453 H509 0.929 . S
C454 C450 1.356 . S
C454 C451 1.358 . S
C454 H510 0.930 . S
C455 N452 1.314 . S
C455 C453 1.353 . S
C455 H511 0.930 . S
C456 N457 1.314 . S
C456 C461 1.353 . S
C456 H462 0.930 . S
N457 Li440 1.990 . S
N457 C456 1.314 . S
N457 C459 1.279 . S
C458 C459 1.358 . S
C458 C460 1.356 . S
C458 H512 0.930 . S
C459 N457 1.279 . S
C459 C458 1.358 . S
C459 H463 0.930 . S
C460 C458 1.356 . S
C460 C461 1.348 . S
C461 C456 1.353 . S
C461 C460 1.348 . S
C461 H513 0.929 . S
H462 C456 0.930 . S
H463 C459 0.930 . S
C464 N465 1.314 . S
C464 C466 1.353 . S
C464 H470 0.930 . S
N465 Li441 1.990 . S
N465 C464 1.314 . S
N465 C468 1.279 . S
C466 C464 1.353 . S
C466 C469 1.348 . S
C466 H514 0.929 . S
C467 C468 1.358 . S
C467 C469 1.356 . S
C467 H515 0.930 . S
C468 N465 1.279 . S
C468 C467 1.358 . S
C468 H471 0.930 . S
C469 C466 1.348 . S
C469 C467 1.356 . S
H470 C464 0.930 . S
H471 C468 0.930 . S
C472 C474 1.348 . S
C472 C475 1.356 . S
C472 O502 1.325 . S
N473 C476 1.314 . S
N473 C477 1.279 . S
C474 C472 1.348 . S
C474 C476 1.353 . S
C474 H516 0.929 . S
C475 C472 1.356 . S
C475 C477 1.358 . S
C475 H517 0.930 . S
C476 N473 1.314 . S
C476 C474 1.353 . S
C476 H518 0.930 . S
C477 N473 1.279 . S
C477 C475 1.358 . S
C477 H519 0.930 . S
C478 C479 1.348 . S
C478 C480 1.356 . S
C478 O503 1.325 . S
C479 C478 1.348 . S
C479 C481 1.353 . S
C479 H520 0.929 . S
C480 C478 1.356 . S
C480 C482 1.358 . S
C480 H521 0.930 . S
C481 C479 1.353 . S
C481 N483 1.314 . S
C481 H522 0.930 . S
C482 C480 1.358 . S
C482 N483 1.279 . S
C482 H523 0.930 . S
N483 C481 1.314 . S
N483 C482 1.279 . S
C484 C486 1.353 . S
C484 N487 1.314 . S
C484 H490 0.930 . S
C485 N487 1.279 . S
C485 C488 1.358 . S
C485 H491 0.930 . S
C486 C484 1.353 . S
C486 C489 1.348 . S
C486 H524 0.929 . S
N487 Li442 1.990 . S
N487 C484 1.314 . S
N487 C485 1.279 . S
C488 C485 1.358 . S
C488 C489 1.356 . S
C488 H525 0.930 . S
C489 C486 1.348 . S
C489 C488 1.356 . S
H490 C484 0.930 . S
H491 C485 0.930 . S
C492 N493 1.314 . S
C492 C494 1.353 . S
C492 H498 0.930 . S
N493 Li443 1.990 . S
N493 C492 1.314 . S
N493 C496 1.279 . S
C494 C492 1.353 . S
C494 C497 1.348 . S
C494 H526 0.929 . S
C495 C496 1.358 . S
C495 C497 1.356 . S
C495 H527 0.930 . S
C496 N493 1.279 . S
C496 C495 1.358 . S
C496 H499 0.930 . S
C497 C494 1.348 . S
C497 C495 1.356 . S
H498 C492 0.930 . S
H499 C496 0.930 . S
O500 Li440 1.956 . S
O500 Li441 1.970 . S
O500 Li442 1.961 . S
O500 C444 1.325 . S
O501 Li440 1.970 . S
O501 Li441 1.956 . S
O501 Li443 1.961 . S
O501 C450 1.325 . S
O502 Li440 1.961 . S
O502 Li442 1.956 . S
O502 Li443 1.970 . S
O502 C472 1.325 . S
O503 Li441 1.961 . S
O503 Li442 1.970 . S
O503 Li443 1.956 . S
O503 C478 1.325 . S
H504 C446 0.929 . S
H505 C447 0.930 . S
H506 C448 0.930 . S
H507 C449 0.930 . S
H508 C451 0.930 . S
H509 C453 0.929 . S
H510 C454 0.930 . S
H511 C455 0.930 . S
H512 C458 0.930 . S
H513 C461 0.929 . S
H514 C466 0.929 . S
H515 C467 0.930 . S
H516 C474 0.929 . S
H517 C475 0.930 . S
H518 C476 0.930 . S
H519 C477 0.930 . S
H520 C479 0.929 . S
H521 C480 0.930 . S
H522 C481 0.930 . S
H523 C482 0.930 . S
H524 C486 0.929 . S
H525 C488 0.930 . S
H526 C494 0.929 . S
H527 C495 0.930 . S
Li528 N545 1.990 . S
Li528 O588 1.956 . S
Li528 O589 1.970 . S
Li528 O590 1.961 . S
Li529 N553 1.990 . S
Li529 O588 1.970 . S
Li529 O589 1.956 . S
Li529 O591 1.961 . S
Li530 N575 1.990 . S
Li530 O588 1.961 . S
Li530 O590 1.956 . S
Li530 O591 1.970 . S
Li531 N581 1.990 . S
Li531 O589 1.961 . S
Li531 O590 1.970 . S
Li531 O591 1.956 . S
C532 C534 1.348 . S
C532 C535 1.356 . S
C532 O588 1.325 . S
N533 C536 1.314 . S
N533 C537 1.279 . S
C534 C532 1.348 . S
C534 C536 1.353 . S
C534 H592 0.929 . S
C535 C532 1.356 . S
C535 C537 1.358 . S
C535 H593 0.930 . S
C536 N533 1.314 . S
C536 C534 1.353 . S
C536 H594 0.930 . S
C537 N533 1.279 . S
C537 C535 1.358 . S
C537 H595 0.930 . S
C538 C541 1.348 . S
C538 C542 1.356 . S
C538 O589 1.325 . S
C539 N540 1.279 . S
C539 C542 1.358 . S
C539 H596 0.930 . S
N540 C539 1.279 . S
N540 C543 1.314 . S
C541 C538 1.348 . S
C541 C543 1.353 . S
C541 H597 0.929 . S
C542 C538 1.356 . S
C542 C539 1.358 . S
C542 H598 0.930 . S
C543 N540 1.314 . S
C543 C541 1.353 . S
C543 H599 0.930 . S
C544 N545 1.314 . S
C544 C549 1.353 . S
C544 H550 0.930 . S
N545 Li528 1.990 . S
N545 C544 1.314 . S
N545 C547 1.279 . S
C546 C547 1.358 . S
C546 C548 1.356 . S
C546 H600 0.930 . S
C547 N545 1.279 . S
C547 C546 1.358 . S
C547 H551 0.930 . S
C548 C546 1.356 . S
C548 C549 1.348 . S
C549 C544 1.353 . S
C549 C548 1.348 . S
C549 H601 0.929 . S
H550 C544 0.930 . S
H551 C547 0.930 . S
C552 N553 1.314 . S
C552 C554 1.353 . S
C552 H558 0.930 . S
N553 Li529 1.990 . S
N553 C552 1.314 . S
N553 C556 1.279 . S
C554 C552 1.353 . S
C554 C557 1.348 . S
C554 H602 0.929 . S
C555 C556 1.358 . S
C555 C557 1.356 . S
C555 H603 0.930 . S
C556 N553 1.279 . S
C556 C555 1.358 . S
C556 H559 0.930 . S
C557 C554 1.348 . S
C557 C555 1.356 . S
H558 C552 0.930 . S
H559 C556 0.930 . S
C560 C562 1.348 . S
C560 C563 1.356 . S
C560 O590 1.325 . S
N561 C564 1.314 . S
N561 C565 1.279 . S
C562 C560 1.348 . S
C562 C564 1.353 . S
C562 H604 0.929 . S
C563 C560 1.356 . S
C563 C565 1.358 . S
C563 H605 0.930 . S
C564 N561 1.314 . S
C564 C562 1.353 . S
C564 H606 0.930 . S
C565 N561 1.279 . S
C565 C563 1.358 . S
C565 H607 0.930 . S
C566 C567 1.348 . S
C566 C568 1.356 . S
C566 O591 1.325 . S
C567 C566 1.348 . S
C567 C569 1.353 . S
C567 H608 0.929 . S
C568 C566 1.356 . S
C568 C570 1.358 . S
C568 H609 0.930 . S
C569 C567 1.353 . S
C569 N571 1.314 . S
C569 H610 0.930 . S
C570 C568 1.358 . S
C570 N571 1.279 . S
C570 H611 0.930 . S
N571 C569 1.314 . S
N571 C570 1.279 . S
C572 C574 1.353 . S
C572 N575 1.314 . S
C572 H578 0.930 . S
C573 N575 1.279 . S
C573 C576 1.358 . S
C573 H579 0.930 . S
C574 C572 1.353 . S
C574 C577 1.348 . S
C574 H612 0.929 . S
N575 Li530 1.990 . S
N575 C572 1.314 . S
N575 C573 1.279 . S
C576 C573 1.358 . S
C576 C577 1.356 . S
C576 H613 0.930 . S
C577 C574 1.348 . S
C577 C576 1.356 . S
H578 C572 0.930 . S
H579 C573 0.930 . S
C580 N581 1.314 . S
C580 C582 1.353 . S
C580 H586 0.930 . S
N581 Li531 1.990 . S
N581 C580 1.314 . S
N581 C584 1.279 . S
C582 C580 1.353 . S
C582 C585 1.348 . S
C582 H614 0.929 . S
C583 C584 1.358 . S
C583 C585 1.356 . S
C583 H615 0.930 . S
C584 N581 1.279 . S
C584 C583 1.358 . S
C584 H587 0.930 . S
C585 C582 1.348 . S
C585 C583 1.356 . S
H586 C580 0.930 . S
H587 C584 0.930 . S
O588 Li528 1.956 . S
O588 Li529 1.970 . S
O588 Li530 1.961 . S
O588 C532 1.325 . S
O589 Li528 1.970 . S
O589 Li529 1.956 . S
O589 Li531 1.961 . S
O589 C538 1.325 . S
O590 Li528 1.961 . S
O590 Li530 1.956 . S
O590 Li531 1.970 . S
O590 C560 1.325 . S
O591 Li529 1.961 . S
O591 Li530 1.970 . S
O591 Li531 1.956 . S
O591 C566 1.325 . S
H592 C534 0.929 . S
H593 C535 0.930 . S
H594 C536 0.930 . S
H595 C537 0.930 . S
H596 C539 0.930 . S
H597 C541 0.929 . S
H598 C542 0.930 . S
H599 C543 0.930 . S
H600 C546 0.930 . S
H601 C549 0.929 . S
H602 C554 0.929 . S
H603 C555 0.930 . S
H604 C562 0.929 . S
H605 C563 0.930 . S
H606 C564 0.930 . S
H607 C565 0.930 . S
H608 C567 0.929 . S
H609 C568 0.930 . S
H610 C569 0.930 . S
H611 C570 0.930 . S
H612 C574 0.929 . S
H613 C576 0.930 . S
H614 C582 0.929 . S
H615 C583 0.930 . S
Li616 N633 1.990 . S
Li616 O676 1.956 . S
Li616 O677 1.970 . S
Li616 O678 1.961 . S
Li617 N641 1.990 . S
Li617 O676 1.970 . S
Li617 O677 1.956 . S
Li617 O679 1.961 . S
Li618 N663 1.990 . S
Li618 O676 1.961 . S
Li618 O678 1.956 . S
Li618 O679 1.970 . S
Li619 N669 1.990 . S
Li619 O677 1.961 . S
Li619 O678 1.970 . S
Li619 O679 1.956 . S
C620 C622 1.348 . S
C620 C623 1.356 . S
C620 O676 1.325 . S
N621 C624 1.314 . S
N621 C625 1.279 . S
C622 C620 1.348 . S
C622 C624 1.353 . S
C622 H680 0.929 . S
C623 C620 1.356 . S
C623 C625 1.358 . S
C623 H681 0.930 . S
C624 N621 1.314 . S
C624 C622 1.353 . S
C624 H682 0.930 . S
C625 N621 1.279 . S
C625 C623 1.358 . S
C625 H683 0.930 . S
C626 C629 1.348 . S
C626 C630 1.356 . S
C626 O677 1.325 . S
C627 N628 1.279 . S
C627 C630 1.358 . S
C627 H684 0.930 . S
N628 C627 1.279 . S
N628 C631 1.314 . S
C629 C626 1.348 . S
C629 C631 1.353 . S
C629 H685 0.929 . S
C630 C626 1.356 . S
C630 C627 1.358 . S
C630 H686 0.930 . S
C631 N628 1.314 . S
C631 C629 1.353 . S
C631 H687 0.930 . S
C632 N633 1.314 . S
C632 C637 1.353 . S
C632 H638 0.930 . S
N633 Li616 1.990 . S
N633 C632 1.314 . S
N633 C635 1.279 . S
C634 C635 1.358 . S
C634 C636 1.356 . S
C634 H688 0.930 . S
C635 N633 1.279 . S
C635 C634 1.358 . S
C635 H639 0.930 . S
C636 C634 1.356 . S
C636 C637 1.348 . S
C637 C632 1.353 . S
C637 C636 1.348 . S
C637 H689 0.929 . S
H638 C632 0.930 . S
H639 C635 0.930 . S
C640 N641 1.314 . S
C640 C642 1.353 . S
C640 H646 0.930 . S
N641 Li617 1.990 . S
N641 C640 1.314 . S
N641 C644 1.279 . S
C642 C640 1.353 . S
C642 C645 1.348 . S
C642 H690 0.929 . S
C643 C644 1.358 . S
C643 C645 1.356 . S
C643 H691 0.930 . S
C644 N641 1.279 . S
C644 C643 1.358 . S
C644 H647 0.930 . S
C645 C642 1.348 . S
C645 C643 1.356 . S
H646 C640 0.930 . S
H647 C644 0.930 . S
C648 C650 1.348 . S
C648 C651 1.356 . S
C648 O678 1.325 . S
N649 C652 1.314 . S
N649 C653 1.279 . S
C650 C648 1.348 . S
C650 C652 1.353 . S
C650 H692 0.929 . S
C651 C648 1.356 . S
C651 C653 1.358 . S
C651 H693 0.930 . S
C652 N649 1.314 . S
C652 C650 1.353 . S
C652 H694 0.930 . S
C653 N649 1.279 . S
C653 C651 1.358 . S
C653 H695 0.930 . S
C654 C655 1.348 . S
C654 C656 1.356 . S
C654 O679 1.325 . S
C655 C654 1.348 . S
C655 C657 1.353 . S
C655 H696 0.929 . S
C656 C654 1.356 . S
C656 C658 1.358 . S
C656 H697 0.930 . S
C657 C655 1.353 . S
C657 N659 1.314 . S
C657 H698 0.930 . S
C658 C656 1.358 . S
C658 N659 1.279 . S
C658 H699 0.930 . S
N659 C657 1.314 . S
N659 C658 1.279 . S
C660 C662 1.353 . S
C660 N663 1.314 . S
C660 H666 0.930 . S
C661 N663 1.279 . S
C661 C664 1.358 . S
C661 H667 0.930 . S
C662 C660 1.353 . S
C662 C665 1.348 . S
C662 H700 0.929 . S
N663 Li618 1.990 . S
N663 C660 1.314 . S
N663 C661 1.279 . S
C664 C661 1.358 . S
C664 C665 1.356 . S
C664 H701 0.930 . S
C665 C662 1.348 . S
C665 C664 1.356 . S
H666 C660 0.930 . S
H667 C661 0.930 . S
C668 N669 1.314 . S
C668 C670 1.353 . S
C668 H674 0.930 . S
N669 Li619 1.990 . S
N669 C668 1.314 . S
N669 C672 1.279 . S
C670 C668 1.353 . S
C670 C673 1.348 . S
C670 H702 0.929 . S
C671 C672 1.358 . S
C671 C673 1.356 . S
C671 H703 0.930 . S
C672 N669 1.279 . S
C672 C671 1.358 . S
C672 H675 0.930 . S
C673 C670 1.348 . S
C673 C671 1.356 . S
H674 C668 0.930 . S
H675 C672 0.930 . S
O676 Li616 1.956 . S
O676 Li617 1.970 . S
O676 Li618 1.961 . S
O676 C620 1.325 . S
O677 Li616 1.970 . S
O677 Li617 1.956 . S
O677 Li619 1.961 . S
O677 C626 1.325 . S
O678 Li616 1.961 . S
O678 Li618 1.956 . S
O678 Li619 1.970 . S
O678 C648 1.325 . S
O679 Li617 1.961 . S
O679 Li618 1.970 . S
O679 Li619 1.956 . S
O679 C654 1.325 . S
H680 C622 0.929 . S
H681 C623 0.930 . S
H682 C624 0.930 . S
H683 C625 0.930 . S
H684 C627 0.930 . S
H685 C629 0.929 . S
H686 C630 0.930 . S
H687 C631 0.930 . S
H688 C634 0.930 . S
H689 C637 0.929 . S
H690 C642 0.929 . S
H691 C643 0.930 . S
H692 C650 0.929 . S
H693 C651 0.930 . S
H694 C652 0.930 . S
H695 C653 0.930 . S
H696 C655 0.929 . S
H697 C656 0.930 . S
H698 C657 0.930 . S
H699 C658 0.930 . S
H700 C662 0.929 . S
H701 C664 0.930 . S
H702 C670 0.929 . S
H703 C671 0.930 . S
Li704 N721 1.990 . S
Li704 O764 1.956 . S
Li704 O765 1.970 . S
Li704 O766 1.961 . S
Li705 N729 1.990 . S
Li705 O764 1.970 . S
Li705 O765 1.956 . S
Li705 O767 1.961 . S
Li706 N751 1.990 . S
Li706 O764 1.961 . S
Li706 O766 1.956 . S
Li706 O767 1.970 . S
Li707 N757 1.990 . S
Li707 O765 1.961 . S
Li707 O766 1.970 . S
Li707 O767 1.956 . S
C708 C710 1.348 . S
C708 C711 1.356 . S
C708 O764 1.325 . S
N709 C712 1.314 . S
N709 C713 1.279 . S
C710 C708 1.348 . S
C710 C712 1.353 . S
C710 H768 0.929 . S
C711 C708 1.356 . S
C711 C713 1.358 . S
C711 H769 0.930 . S
C712 N709 1.314 . S
C712 C710 1.353 . S
C712 H770 0.930 . S
C713 N709 1.279 . S
C713 C711 1.358 . S
C713 H771 0.930 . S
C714 C717 1.348 . S
C714 C718 1.356 . S
C714 O765 1.325 . S
C715 N716 1.279 . S
C715 C718 1.358 . S
C715 H772 0.930 . S
N716 C715 1.279 . S
N716 C719 1.314 . S
C717 C714 1.348 . S
C717 C719 1.353 . S
C717 H773 0.929 . S
C718 C714 1.356 . S
C718 C715 1.358 . S
C718 H774 0.930 . S
C719 N716 1.314 . S
C719 C717 1.353 . S
C719 H775 0.930 . S
C720 N721 1.314 . S
C720 C725 1.353 . S
C720 H726 0.930 . S
N721 Li704 1.990 . S
N721 C720 1.314 . S
N721 C723 1.279 . S
C722 C723 1.358 . S
C722 C724 1.356 . S
C722 H776 0.930 . S
C723 N721 1.279 . S
C723 C722 1.358 . S
C723 H727 0.930 . S
C724 C722 1.356 . S
C724 C725 1.348 . S
C725 C720 1.353 . S
C725 C724 1.348 . S
C725 H777 0.929 . S
H726 C720 0.930 . S
H727 C723 0.930 . S
C728 N729 1.314 . S
C728 C730 1.353 . S
C728 H734 0.930 . S
N729 Li705 1.990 . S
N729 C728 1.314 . S
N729 C732 1.279 . S
C730 C728 1.353 . S
C730 C733 1.348 . S
C730 H778 0.929 . S
C731 C732 1.358 . S
C731 C733 1.356 . S
C731 H779 0.930 . S
C732 N729 1.279 . S
C732 C731 1.358 . S
C732 H735 0.930 . S
C733 C730 1.348 . S
C733 C731 1.356 . S
H734 C728 0.930 . S
H735 C732 0.930 . S
C736 C738 1.348 . S
C736 C739 1.356 . S
C736 O766 1.325 . S
N737 C740 1.314 . S
N737 C741 1.279 . S
C738 C736 1.348 . S
C738 C740 1.353 . S
C738 H780 0.929 . S
C739 C736 1.356 . S
C739 C741 1.358 . S
C739 H781 0.930 . S
C740 N737 1.314 . S
C740 C738 1.353 . S
C740 H782 0.930 . S
C741 N737 1.279 . S
C741 C739 1.358 . S
C741 H783 0.930 . S
C742 C743 1.348 . S
C742 C744 1.356 . S
C742 O767 1.325 . S
C743 C742 1.348 . S
C743 C745 1.353 . S
C743 H784 0.929 . S
C744 C742 1.356 . S
C744 C746 1.358 . S
C744 H785 0.930 . S
C745 C743 1.353 . S
C745 N747 1.314 . S
C745 H786 0.930 . S
C746 C744 1.358 . S
C746 N747 1.279 . S
C746 H787 0.930 . S
N747 C745 1.314 . S
N747 C746 1.279 . S
C748 C750 1.353 . S
C748 N751 1.314 . S
C748 H754 0.930 . S
C749 N751 1.279 . S
C749 C752 1.358 . S
C749 H755 0.930 . S
C750 C748 1.353 . S
C750 C753 1.348 . S
C750 H788 0.929 . S
N751 Li706 1.990 . S
N751 C748 1.314 . S
N751 C749 1.279 . S
C752 C749 1.358 . S
C752 C753 1.356 . S
C752 H789 0.930 . S
C753 C750 1.348 . S
C753 C752 1.356 . S
H754 C748 0.930 . S
H755 C749 0.930 . S
C756 N757 1.314 . S
C756 C758 1.353 . S
C756 H762 0.930 . S
N757 Li707 1.990 . S
N757 C756 1.314 . S
N757 C760 1.279 . S
C758 C756 1.353 . S
C758 C761 1.348 . S
C758 H790 0.929 . S
C759 C760 1.358 . S
C759 C761 1.356 . S
C759 H791 0.930 . S
C760 N757 1.279 . S
C760 C759 1.358 . S
C760 H763 0.930 . S
C761 C758 1.348 . S
C761 C759 1.356 . S
H762 C756 0.930 . S
H763 C760 0.930 . S
O764 Li704 1.956 . S
O764 Li705 1.970 . S
O764 Li706 1.961 . S
O764 C708 1.325 . S
O765 Li704 1.970 . S
O765 Li705 1.956 . S
O765 Li707 1.961 . S
O765 C714 1.325 . S
O766 Li704 1.961 . S
O766 Li706 1.956 . S
O766 Li707 1.970 . S
O766 C736 1.325 . S
O767 Li705 1.961 . S
O767 Li706 1.970 . S
O767 Li707 1.956 . S
O767 C742 1.325 . S
H768 C710 0.929 . S
H769 C711 0.930 . S
H770 C712 0.930 . S
H771 C713 0.930 . S
H772 C715 0.930 . S
H773 C717 0.929 . S
H774 C718 0.930 . S
H775 C719 0.930 . S
H776 C722 0.930 . S
H777 C725 0.929 . S
H778 C730 0.929 . S
H779 C731 0.930 . S
H780 C738 0.929 . S
H781 C739 0.930 . S
H782 C740 0.930 . S
H783 C741 0.930 . S
H784 C743 0.929 . S
H785 C744 0.930 . S
H786 C745 0.930 . S
H787 C746 0.930 . S
H788 C750 0.929 . S
H789 C752 0.930 . S
H790 C758 0.929 . S
H791 C759 0.930 . S
Li792 N809 1.990 . S
Li792 O852 1.956 . S
Li792 O853 1.970 . S
Li792 O854 1.961 . S
Li793 N817 1.990 . S
Li793 O852 1.970 . S
Li793 O853 1.956 . S
Li793 O855 1.961 . S
Li794 N839 1.990 . S
Li794 O852 1.961 . S
Li794 O854 1.956 . S
Li794 O855 1.970 . S
Li795 N845 1.990 . S
Li795 O853 1.961 . S
Li795 O854 1.970 . S
Li795 O855 1.956 . S
C796 C798 1.348 . S
C796 C799 1.356 . S
C796 O852 1.325 . S
N797 C800 1.314 . S
N797 C801 1.279 . S
C798 C796 1.348 . S
C798 C800 1.353 . S
C798 H856 0.929 . S
C799 C796 1.356 . S
C799 C801 1.358 . S
C799 H857 0.930 . S
C800 N797 1.314 . S
C800 C798 1.353 . S
C800 H858 0.930 . S
C801 N797 1.279 . S
C801 C799 1.358 . S
C801 H859 0.930 . S
C802 C805 1.348 . S
C802 C806 1.356 . S
C802 O853 1.325 . S
C803 N804 1.279 . S
C803 C806 1.358 . S
C803 H860 0.930 . S
N804 C803 1.279 . S
N804 C807 1.314 . S
C805 C802 1.348 . S
C805 C807 1.353 . S
C805 H861 0.929 . S
C806 C802 1.356 . S
C806 C803 1.358 . S
C806 H862 0.930 . S
C807 N804 1.314 . S
C807 C805 1.353 . S
C807 H863 0.930 . S
C808 N809 1.314 . S
C808 C813 1.353 . S
C808 H814 0.930 . S
N809 Li792 1.990 . S
N809 C808 1.314 . S
N809 C811 1.279 . S
C810 C811 1.358 . S
C810 C812 1.356 . S
C810 H864 0.930 . S
C811 N809 1.279 . S
C811 C810 1.358 . S
C811 H815 0.930 . S
C812 C810 1.356 . S
C812 C813 1.348 . S
C813 C808 1.353 . S
C813 C812 1.348 . S
C813 H865 0.929 . S
H814 C808 0.930 . S
H815 C811 0.930 . S
C816 N817 1.314 . S
C816 C818 1.353 . S
C816 H822 0.930 . S
N817 Li793 1.990 . S
N817 C816 1.314 . S
N817 C820 1.279 . S
C818 C816 1.353 . S
C818 C821 1.348 . S
C818 H866 0.929 . S
C819 C820 1.358 . S
C819 C821 1.356 . S
C819 H867 0.930 . S
C820 N817 1.279 . S
C820 C819 1.358 . S
C820 H823 0.930 . S
C821 C818 1.348 . S
C821 C819 1.356 . S
H822 C816 0.930 . S
H823 C820 0.930 . S
C824 C826 1.348 . S
C824 C827 1.356 . S
C824 O854 1.325 . S
N825 C828 1.314 . S
N825 C829 1.279 . S
C826 C824 1.348 . S
C826 C828 1.353 . S
C826 H868 0.929 . S
C827 C824 1.356 . S
C827 C829 1.358 . S
C827 H869 0.930 . S
C828 N825 1.314 . S
C828 C826 1.353 . S
C828 H870 0.930 . S
C829 N825 1.279 . S
C829 C827 1.358 . S
C829 H871 0.930 . S
C830 C831 1.348 . S
C830 C832 1.356 . S
C830 O855 1.325 . S
C831 C830 1.348 . S
C831 C833 1.353 . S
C831 H872 0.929 . S
C832 C830 1.356 . S
C832 C834 1.358 . S
C832 H873 0.930 . S
C833 C831 1.353 . S
C833 N835 1.314 . S
C833 H874 0.930 . S
C834 C832 1.358 . S
C834 N835 1.279 . S
C834 H875 0.930 . S
N835 C833 1.314 . S
N835 C834 1.279 . S
C836 C838 1.353 . S
C836 N839 1.314 . S
C836 H842 0.930 . S
C837 N839 1.279 . S
C837 C840 1.358 . S
C837 H843 0.930 . S
C838 C836 1.353 . S
C838 C841 1.348 . S
C838 H876 0.929 . S
N839 Li794 1.990 . S
N839 C836 1.314 . S
N839 C837 1.279 . S
C840 C837 1.358 . S
C840 C841 1.356 . S
C840 H877 0.930 . S
C841 C838 1.348 . S
C841 C840 1.356 . S
H842 C836 0.930 . S
H843 C837 0.930 . S
C844 N845 1.314 . S
C844 C846 1.353 . S
C844 H850 0.930 . S
N845 Li795 1.990 . S
N845 C844 1.314 . S
N845 C848 1.279 . S
C846 C844 1.353 . S
C846 C849 1.348 . S
C846 H878 0.929 . S
C847 C848 1.358 . S
C847 C849 1.356 . S
C847 H879 0.930 . S
C848 N845 1.279 . S
C848 C847 1.358 . S
C848 H851 0.930 . S
C849 C846 1.348 . S
C849 C847 1.356 . S
H850 C844 0.930 . S
H851 C848 0.930 . S
O852 Li792 1.956 . S
O852 Li793 1.970 . S
O852 Li794 1.961 . S
O852 C796 1.325 . S
O853 Li792 1.970 . S
O853 Li793 1.956 . S
O853 Li795 1.961 . S
O853 C802 1.325 . S
O854 Li792 1.961 . S
O854 Li794 1.956 . S
O854 Li795 1.970 . S
O854 C824 1.325 . S
O855 Li793 1.961 . S
O855 Li794 1.970 . S
O855 Li795 1.956 . S
O855 C830 1.325 . S
H856 C798 0.929 . S
H857 C799 0.930 . S
H858 C800 0.930 . S
H859 C801 0.930 . S
H860 C803 0.930 . S
H861 C805 0.929 . S
H862 C806 0.930 . S
H863 C807 0.930 . S
H864 C810 0.930 . S
H865 C813 0.929 . S
H866 C818 0.929 . S
H867 C819 0.930 . S
H868 C826 0.929 . S
H869 C827 0.930 . S
H870 C828 0.930 . S
H871 C829 0.930 . S
H872 C831 0.929 . S
H873 C832 0.930 . S
H874 C833 0.930 . S
H875 C834 0.930 . S
H876 C838 0.929 . S
H877 C840 0.930 . S
H878 C846 0.929 . S
H879 C847 0.930 . S
Li880 N897 1.990 . S
Li880 O940 1.956 . S
Li880 O941 1.970 . S
Li880 O942 1.961 . S
Li881 N905 1.990 . S
Li881 O940 1.970 . S
Li881 O941 1.956 . S
Li881 O943 1.961 . S
Li882 N927 1.990 . S
Li882 O940 1.961 . S
Li882 O942 1.956 . S
Li882 O943 1.970 . S
Li883 N933 1.990 . S
Li883 O941 1.961 . S
Li883 O942 1.970 . S
Li883 O943 1.956 . S
C884 C886 1.348 . S
C884 C887 1.356 . S
C884 O940 1.325 . S
N885 C888 1.314 . S
N885 C889 1.279 . S
C886 C884 1.348 . S
C886 C888 1.353 . S
C886 H944 0.929 . S
C887 C884 1.356 . S
C887 C889 1.358 . S
C887 H945 0.930 . S
C888 N885 1.314 . S
C888 C886 1.353 . S
C888 H946 0.930 . S
C889 N885 1.279 . S
C889 C887 1.358 . S
C889 H947 0.930 . S
C890 C893 1.348 . S
C890 C894 1.356 . S
C890 O941 1.325 . S
C891 N892 1.279 . S
C891 C894 1.358 . S
C891 H948 0.930 . S
N892 C891 1.279 . S
N892 C895 1.314 . S
C893 C890 1.348 . S
C893 C895 1.353 . S
C893 H949 0.929 . S
C894 C890 1.356 . S
C894 C891 1.358 . S
C894 H950 0.930 . S
C895 N892 1.314 . S
C895 C893 1.353 . S
C895 H951 0.930 . S
C896 N897 1.314 . S
C896 C901 1.353 . S
C896 H902 0.930 . S
N897 Li880 1.990 . S
N897 C896 1.314 . S
N897 C899 1.279 . S
C898 C899 1.358 . S
C898 C900 1.356 . S
C898 H952 0.930 . S
C899 N897 1.279 . S
C899 C898 1.358 . S
C899 H903 0.930 . S
C900 C898 1.356 . S
C900 C901 1.348 . S
C901 C896 1.353 . S
C901 C900 1.348 . S
C901 H953 0.929 . S
H902 C896 0.930 . S
H903 C899 0.930 . S
C904 N905 1.314 . S
C904 C906 1.353 . S
C904 H910 0.930 . S
N905 Li881 1.990 . S
N905 C904 1.314 . S
N905 C908 1.279 . S
C906 C904 1.353 . S
C906 C909 1.348 . S
C906 H954 0.929 . S
C907 C908 1.358 . S
C907 C909 1.356 . S
C907 H955 0.930 . S
C908 N905 1.279 . S
C908 C907 1.358 . S
C908 H911 0.930 . S
C909 C906 1.348 . S
C909 C907 1.356 . S
H910 C904 0.930 . S
H911 C908 0.930 . S
C912 C914 1.348 . S
C912 C915 1.356 . S
C912 O942 1.325 . S
N913 C916 1.314 . S
N913 C917 1.279 . S
C914 C912 1.348 . S
C914 C916 1.353 . S
C914 H956 0.929 . S
C915 C912 1.356 . S
C915 C917 1.358 . S
C915 H957 0.930 . S
C916 N913 1.314 . S
C916 C914 1.353 . S
C916 H958 0.930 . S
C917 N913 1.279 . S
C917 C915 1.358 . S
C917 H959 0.930 . S
C918 C919 1.348 . S
C918 C920 1.356 . S
C918 O943 1.325 . S
C919 C918 1.348 . S
C919 C921 1.353 . S
C919 H960 0.929 . S
C920 C918 1.356 . S
C920 C922 1.358 . S
C920 H961 0.930 . S
C921 C919 1.353 . S
C921 N923 1.314 . S
C921 H962 0.930 . S
C922 C920 1.358 . S
C922 N923 1.279 . S
C922 H963 0.930 . S
N923 C921 1.314 . S
N923 C922 1.279 . S
C924 C926 1.353 . S
C924 N927 1.314 . S
C924 H930 0.930 . S
C925 N927 1.279 . S
C925 C928 1.358 . S
C925 H931 0.930 . S
C926 C924 1.353 . S
C926 C929 1.348 . S
C926 H964 0.929 . S
N927 Li882 1.990 . S
N927 C924 1.314 . S
N927 C925 1.279 . S
C928 C925 1.358 . S
C928 C929 1.356 . S
C928 H965 0.930 . S
C929 C926 1.348 . S
C929 C928 1.356 . S
H930 C924 0.930 . S
H931 C925 0.930 . S
C932 N933 1.314 . S
C932 C934 1.353 . S
C932 H938 0.930 . S
N933 Li883 1.990 . S
N933 C932 1.314 . S
N933 C936 1.279 . S
C934 C932 1.353 . S
C934 C937 1.348 . S
C934 H966 0.929 . S
C935 C936 1.358 . S
C935 C937 1.356 . S
C935 H967 0.930 . S
C936 N933 1.279 . S
C936 C935 1.358 . S
C936 H939 0.930 . S
C937 C934 1.348 . S
C937 C935 1.356 . S
H938 C932 0.930 . S
H939 C936 0.930 . S
O940 Li880 1.956 . S
O940 Li881 1.970 . S
O940 Li882 1.961 . S
O940 C884 1.325 . S
O941 Li880 1.970 . S
O941 Li881 1.956 . S
O941 Li883 1.961 . S
O941 C890 1.325 . S
O942 Li880 1.961 . S
O942 Li882 1.956 . S
O942 Li883 1.970 . S
O942 C912 1.325 . S
O943 Li881 1.961 . S
O943 Li882 1.970 . S
O943 Li883 1.956 . S
O943 C918 1.325 . S
H944 C886 0.929 . S
H945 C887 0.930 . S
H946 C888 0.930 . S
H947 C889 0.930 . S
H948 C891 0.930 . S
H949 C893 0.929 . S
H950 C894 0.930 . S
H951 C895 0.930 . S
H952 C898 0.930 . S
H953 C901 0.929 . S
H954 C906 0.929 . S
H955 C907 0.930 . S
H956 C914 0.929 . S
H957 C915 0.930 . S
H958 C916 0.930 . S
H959 C917 0.930 . S
H960 C919 0.929 . S
H961 C920 0.930 . S
H962 C921 0.930 . S
H963 C922 0.930 . S
H964 C926 0.929 . S
H965 C928 0.930 . S
H966 C934 0.929 . S
H967 C935 0.930 . S
Li968 N985 1.990 . S
Li968 O1028 1.956 . S
Li968 O1029 1.970 . S
Li968 O1030 1.961 . S
Li969 N993 1.990 . S
Li969 O1028 1.970 . S
Li969 O1029 1.956 . S
Li969 O1031 1.961 . S
Li970 N1015 1.990 . S
Li970 O1028 1.961 . S
Li970 O1030 1.956 . S
Li970 O1031 1.970 . S
Li971 N1021 1.990 . S
Li971 O1029 1.961 . S
Li971 O1030 1.970 . S
Li971 O1031 1.956 . S
C972 C974 1.348 . S
C972 C975 1.356 . S
C972 O1028 1.325 . S
N973 C976 1.314 . S
N973 C977 1.279 . S
C974 C972 1.348 . S
C974 C976 1.353 . S
C974 H1032 0.929 . S
C975 C972 1.356 . S
C975 C977 1.358 . S
C975 H1033 0.930 . S
C976 N973 1.314 . S
C976 C974 1.353 . S
C976 H1034 0.930 . S
C977 N973 1.279 . S
C977 C975 1.358 . S
C977 H1035 0.930 . S
C978 C981 1.348 . S
C978 C982 1.356 . S
C978 O1029 1.325 . S
C979 N980 1.279 . S
C979 C982 1.358 . S
C979 H1036 0.930 . S
N980 C979 1.279 . S
N980 C983 1.314 . S
C981 C978 1.348 . S
C981 C983 1.353 . S
C981 H1037 0.929 . S
C982 C978 1.356 . S
C982 C979 1.358 . S
C982 H1038 0.930 . S
C983 N980 1.314 . S
C983 C981 1.353 . S
C983 H1039 0.930 . S
C984 N985 1.314 . S
C984 C989 1.353 . S
C984 H990 0.930 . S
N985 Li968 1.990 . S
N985 C984 1.314 . S
N985 C987 1.279 . S
C986 C987 1.358 . S
C986 C988 1.356 . S
C986 H1040 0.930 . S
C987 N985 1.279 . S
C987 C986 1.358 . S
C987 H991 0.930 . S
C988 C986 1.356 . S
C988 C989 1.348 . S
C989 C984 1.353 . S
C989 C988 1.348 . S
C989 H1041 0.929 . S
H990 C984 0.930 . S
H991 C987 0.930 . S
C992 N993 1.314 . S
C992 C994 1.353 . S
C992 H998 0.930 . S
N993 Li969 1.990 . S
N993 C992 1.314 . S
N993 C996 1.279 . S
C994 C992 1.353 . S
C994 C997 1.348 . S
C994 H1042 0.929 . S
C995 C996 1.358 . S
C995 C997 1.356 . S
C995 H1043 0.930 . S
C996 N993 1.279 . S
C996 C995 1.358 . S
C996 H999 0.930 . S
C997 C994 1.348 . S
C997 C995 1.356 . S
H998 C992 0.930 . S
H999 C996 0.930 . S
C1000 C1002 1.348 . S
C1000 C1003 1.356 . S
C1000 O1030 1.325 . S
N1001 C1004 1.314 . S
N1001 C1005 1.279 . S
C1002 C1000 1.348 . S
C1002 C1004 1.353 . S
C1002 H1044 0.929 . S
C1003 C1000 1.356 . S
C1003 C1005 1.358 . S
C1003 H1045 0.930 . S
C1004 N1001 1.314 . S
C1004 C1002 1.353 . S
C1004 H1046 0.930 . S
C1005 N1001 1.279 . S
C1005 C1003 1.358 . S
C1005 H1047 0.930 . S
C1006 C1007 1.348 . S
C1006 C1008 1.356 . S
C1006 O1031 1.325 . S
C1007 C1006 1.348 . S
C1007 C1009 1.353 . S
C1007 H1048 0.929 . S
C1008 C1006 1.356 . S
C1008 C1010 1.358 . S
C1008 H1049 0.930 . S
C1009 C1007 1.353 . S
C1009 N1011 1.314 . S
C1009 H1050 0.930 . S
C1010 C1008 1.358 . S
C1010 N1011 1.279 . S
C1010 H1051 0.930 . S
N1011 C1009 1.314 . S
N1011 C1010 1.279 . S
C1012 C1014 1.353 . S
C1012 N1015 1.314 . S
C1012 H1018 0.930 . S
C1013 N1015 1.279 . S
C1013 C1016 1.358 . S
C1013 H1019 0.930 . S
C1014 C1012 1.353 . S
C1014 C1017 1.348 . S
C1014 H1052 0.929 . S
N1015 Li970 1.990 . S
N1015 C1012 1.314 . S
N1015 C1013 1.279 . S
C1016 C1013 1.358 . S
C1016 C1017 1.356 . S
C1016 H1053 0.930 . S
C1017 C1014 1.348 . S
C1017 C1016 1.356 . S
H1018 C1012 0.930 . S
H1019 C1013 0.930 . S
C1020 N1021 1.314 . S
C1020 C1022 1.353 . S
C1020 H1026 0.930 . S
N1021 Li971 1.990 . S
N1021 C1020 1.314 . S
N1021 C1024 1.279 . S
C1022 C1020 1.353 . S
C1022 C1025 1.348 . S
C1022 H1054 0.929 . S
C1023 C1024 1.358 . S
C1023 C1025 1.356 . S
C1023 H1055 0.930 . S
C1024 N1021 1.279 . S
C1024 C1023 1.358 . S
C1024 H1027 0.930 . S
C1025 C1022 1.348 . S
C1025 C1023 1.356 . S
H1026 C1020 0.930 . S
H1027 C1024 0.930 . S
O1028 Li968 1.956 . S
O1028 Li969 1.970 . S
O1028 Li970 1.961 . S
O1028 C972 1.325 . S
O1029 Li968 1.970 . S
O1029 Li969 1.956 . S
O1029 Li971 1.961 . S
O1029 C978 1.325 . S
O1030 Li968 1.961 . S
O1030 Li970 1.956 . S
O1030 Li971 1.970 . S
O1030 C1000 1.325 . S
O1031 Li969 1.961 . S
O1031 Li970 1.970 . S
O1031 Li971 1.956 . S
O1031 C1006 1.325 . S
H1032 C974 0.929 . S
H1033 C975 0.930 . S
H1034 C976 0.930 . S
H1035 C977 0.930 . S
H1036 C979 0.930 . S
H1037 C981 0.929 . S
H1038 C982 0.930 . S
H1039 C983 0.930 . S
H1040 C986 0.930 . S
H1041 C989 0.929 . S
H1042 C994 0.929 . S
H1043 C995 0.930 . S
H1044 C1002 0.929 . S
H1045 C1003 0.930 . S
H1046 C1004 0.930 . S
H1047 C1005 0.930 . S
H1048 C1007 0.929 . S
H1049 C1008 0.930 . S
H1050 C1009 0.930 . S
H1051 C1010 0.930 . S
H1052 C1014 0.929 . S
H1053 C1016 0.930 . S
H1054 C1022 0.929 . S
H1055 C1023 0.930 . S
Li1056 N1073 1.990 . S
Li1056 O1116 1.956 . S
Li1056 O1117 1.970 . S
Li1056 O1118 1.961 . S
Li1057 N1081 1.990 . S
Li1057 O1116 1.970 . S
Li1057 O1117 1.956 . S
Li1057 O1119 1.961 . S
Li1058 N1103 1.990 . S
Li1058 O1116 1.961 . S
Li1058 O1118 1.956 . S
Li1058 O1119 1.970 . S
Li1059 N1109 1.990 . S
Li1059 O1117 1.961 . S
Li1059 O1118 1.970 . S
Li1059 O1119 1.956 . S
C1060 C1062 1.348 . S
C1060 C1063 1.356 . S
C1060 O1116 1.325 . S
N1061 C1064 1.314 . S
N1061 C1065 1.279 . S
C1062 C1060 1.348 . S
C1062 C1064 1.353 . S
C1062 H1120 0.929 . S
C1063 C1060 1.356 . S
C1063 C1065 1.358 . S
C1063 H1121 0.930 . S
C1064 N1061 1.314 . S
C1064 C1062 1.353 . S
C1064 H1122 0.930 . S
C1065 N1061 1.279 . S
C1065 C1063 1.358 . S
C1065 H1123 0.930 . S
C1066 C1069 1.348 . S
C1066 C1070 1.356 . S
C1066 O1117 1.325 . S
C1067 N1068 1.279 . S
C1067 C1070 1.358 . S
C1067 H1124 0.930 . S
N1068 C1067 1.279 . S
N1068 C1071 1.314 . S
C1069 C1066 1.348 . S
C1069 C1071 1.353 . S
C1069 H1125 0.929 . S
C1070 C1066 1.356 . S
C1070 C1067 1.358 . S
C1070 H1126 0.930 . S
C1071 N1068 1.314 . S
C1071 C1069 1.353 . S
C1071 H1127 0.930 . S
C1072 N1073 1.314 . S
C1072 C1077 1.353 . S
C1072 H1078 0.930 . S
N1073 Li1056 1.990 . S
N1073 C1072 1.314 . S
N1073 C1075 1.279 . S
C1074 C1075 1.358 . S
C1074 C1076 1.356 . S
C1074 H1128 0.930 . S
C1075 N1073 1.279 . S
C1075 C1074 1.358 . S
C1075 H1079 0.930 . S
C1076 C1074 1.356 . S
C1076 C1077 1.348 . S
C1077 C1072 1.353 . S
C1077 C1076 1.348 . S
C1077 H1129 0.929 . S
H1078 C1072 0.930 . S
H1079 C1075 0.930 . S
C1080 N1081 1.314 . S
C1080 C1082 1.353 . S
C1080 H1086 0.930 . S
N1081 Li1057 1.990 . S
N1081 C1080 1.314 . S
N1081 C1084 1.279 . S
C1082 C1080 1.353 . S
C1082 C1085 1.348 . S
C1082 H1130 0.929 . S
C1083 C1084 1.358 . S
C1083 C1085 1.356 . S
C1083 H1131 0.930 . S
C1084 N1081 1.279 . S
C1084 C1083 1.358 . S
C1084 H1087 0.930 . S
C1085 C1082 1.348 . S
C1085 C1083 1.356 . S
H1086 C1080 0.930 . S
H1087 C1084 0.930 . S
C1088 C1090 1.348 . S
C1088 C1091 1.356 . S
C1088 O1118 1.325 . S
N1089 C1092 1.314 . S
N1089 C1093 1.279 . S
C1090 C1088 1.348 . S
C1090 C1092 1.353 . S
C1090 H1132 0.929 . S
C1091 C1088 1.356 . S
C1091 C1093 1.358 . S
C1091 H1133 0.930 . S
C1092 N1089 1.314 . S
C1092 C1090 1.353 . S
C1092 H1134 0.930 . S
C1093 N1089 1.279 . S
C1093 C1091 1.358 . S
C1093 H1135 0.930 . S
C1094 C1095 1.348 . S
C1094 C1096 1.356 . S
C1094 O1119 1.325 . S
C1095 C1094 1.348 . S
C1095 C1097 1.353 . S
C1095 H1136 0.929 . S
C1096 C1094 1.356 . S
C1096 C1098 1.358 . S
C1096 H1137 0.930 . S
C1097 C1095 1.353 . S
C1097 N1099 1.314 . S
C1097 H1138 0.930 . S
C1098 C1096 1.358 . S
C1098 N1099 1.279 . S
C1098 H1139 0.930 . S
N1099 C1097 1.314 . S
N1099 C1098 1.279 . S
C1100 C1102 1.353 . S
C1100 N1103 1.314 . S
C1100 H1106 0.930 . S
C1101 N1103 1.279 . S
C1101 C1104 1.358 . S
C1101 H1107 0.930 . S
C1102 C1100 1.353 . S
C1102 C1105 1.348 . S
C1102 H1140 0.929 . S
N1103 Li1058 1.990 . S
N1103 C1100 1.314 . S
N1103 C1101 1.279 . S
C1104 C1101 1.358 . S
C1104 C1105 1.356 . S
C1104 H1141 0.930 . S
C1105 C1102 1.348 . S
C1105 C1104 1.356 . S
H1106 C1100 0.930 . S
H1107 C1101 0.930 . S
C1108 N1109 1.314 . S
C1108 C1110 1.353 . S
C1108 H1114 0.930 . S
N1109 Li1059 1.990 . S
N1109 C1108 1.314 . S
N1109 C1112 1.279 . S
C1110 C1108 1.353 . S
C1110 C1113 1.348 . S
C1110 H1142 0.929 . S
C1111 C1112 1.358 . S
C1111 C1113 1.356 . S
C1111 H1143 0.930 . S
C1112 N1109 1.279 . S
C1112 C1111 1.358 . S
C1112 H1115 0.930 . S
C1113 C1110 1.348 . S
C1113 C1111 1.356 . S
H1114 C1108 0.930 . S
H1115 C1112 0.930 . S
O1116 Li1056 1.956 . S
O1116 Li1057 1.970 . S
O1116 Li1058 1.961 . S
O1116 C1060 1.325 . S
O1117 Li1056 1.970 . S
O1117 Li1057 1.956 . S
O1117 Li1059 1.961 . S
O1117 C1066 1.325 . S
O1118 Li1056 1.961 . S
O1118 Li1058 1.956 . S
O1118 Li1059 1.970 . S
O1118 C1088 1.325 . S
O1119 Li1057 1.961 . S
O1119 Li1058 1.970 . S
O1119 Li1059 1.956 . S
O1119 C1094 1.325 . S
H1120 C1062 0.929 . S
H1121 C1063 0.930 . S
H1122 C1064 0.930 . S
H1123 C1065 0.930 . S
H1124 C1067 0.930 . S
H1125 C1069 0.929 . S
H1126 C1070 0.930 . S
H1127 C1071 0.930 . S
H1128 C1074 0.930 . S
H1129 C1077 0.929 . S
H1130 C1082 0.929 . S
H1131 C1083 0.930 . S
H1132 C1090 0.929 . S
H1133 C1091 0.930 . S
H1134 C1092 0.930 . S
H1135 C1093 0.930 . S
H1136 C1095 0.929 . S
H1137 C1096 0.930 . S
H1138 C1097 0.930 . S
H1139 C1098 0.930 . S
H1140 C1102 0.929 . S
H1141 C1104 0.930 . S
H1142 C1110 0.929 . S
H1143 C1111 0.930 . S
Li1144 N1161 1.990 . S
Li1144 O1204 1.956 . S
Li1144 O1205 1.970 . S
Li1144 O1206 1.961 . S
Li1145 N1169 1.990 . S
Li1145 O1204 1.970 . S
Li1145 O1205 1.956 . S
Li1145 O1207 1.961 . S
Li1146 N1191 1.990 . S
Li1146 O1204 1.961 . S
Li1146 O1206 1.956 . S
Li1146 O1207 1.970 . S
Li1147 N1197 1.990 . S
Li1147 O1205 1.961 . S
Li1147 O1206 1.970 . S
Li1147 O1207 1.956 . S
C1148 C1150 1.348 . S
C1148 C1151 1.356 . S
C1148 O1204 1.325 . S
N1149 C1152 1.314 . S
N1149 C1153 1.279 . S
C1150 C1148 1.348 . S
C1150 C1152 1.353 . S
C1150 H1208 0.929 . S
C1151 C1148 1.356 . S
C1151 C1153 1.358 . S
C1151 H1209 0.930 . S
C1152 N1149 1.314 . S
C1152 C1150 1.353 . S
C1152 H1210 0.930 . S
C1153 N1149 1.279 . S
C1153 C1151 1.358 . S
C1153 H1211 0.930 . S
C1154 C1157 1.348 . S
C1154 C1158 1.356 . S
C1154 O1205 1.325 . S
C1155 N1156 1.279 . S
C1155 C1158 1.358 . S
C1155 H1212 0.930 . S
N1156 C1155 1.279 . S
N1156 C1159 1.314 . S
C1157 C1154 1.348 . S
C1157 C1159 1.353 . S
C1157 H1213 0.929 . S
C1158 C1154 1.356 . S
C1158 C1155 1.358 . S
C1158 H1214 0.930 . S
C1159 N1156 1.314 . S
C1159 C1157 1.353 . S
C1159 H1215 0.930 . S
C1160 N1161 1.314 . S
C1160 C1165 1.353 . S
C1160 H1166 0.930 . S
N1161 Li1144 1.990 . S
N1161 C1160 1.314 . S
N1161 C1163 1.279 . S
C1162 C1163 1.358 . S
C1162 C1164 1.356 . S
C1162 H1216 0.930 . S
C1163 N1161 1.279 . S
C1163 C1162 1.358 . S
C1163 H1167 0.930 . S
C1164 C1162 1.356 . S
C1164 C1165 1.348 . S
C1165 C1160 1.353 . S
C1165 C1164 1.348 . S
C1165 H1217 0.929 . S
H1166 C1160 0.930 . S
H1167 C1163 0.930 . S
C1168 N1169 1.314 . S
C1168 C1170 1.353 . S
C1168 H1174 0.930 . S
N1169 Li1145 1.990 . S
N1169 C1168 1.314 . S
N1169 C1172 1.279 . S
C1170 C1168 1.353 . S
C1170 C1173 1.348 . S
C1170 H1218 0.929 . S
C1171 C1172 1.358 . S
C1171 C1173 1.356 . S
C1171 H1219 0.930 . S
C1172 N1169 1.279 . S
C1172 C1171 1.358 . S
C1172 H1175 0.930 . S
C1173 C1170 1.348 . S
C1173 C1171 1.356 . S
H1174 C1168 0.930 . S
H1175 C1172 0.930 . S
C1176 C1178 1.348 . S
C1176 C1179 1.356 . S
C1176 O1206 1.325 . S
N1177 C1180 1.314 . S
N1177 C1181 1.279 . S
C1178 C1176 1.348 . S
C1178 C1180 1.353 . S
C1178 H1220 0.929 . S
C1179 C1176 1.356 . S
C1179 C1181 1.358 . S
C1179 H1221 0.930 . S
C1180 N1177 1.314 . S
C1180 C1178 1.353 . S
C1180 H1222 0.930 . S
C1181 N1177 1.279 . S
C1181 C1179 1.358 . S
C1181 H1223 0.930 . S
C1182 C1183 1.348 . S
C1182 C1184 1.356 . S
C1182 O1207 1.325 . S
C1183 C1182 1.348 . S
C1183 C1185 1.353 . S
C1183 H1224 0.929 . S
C1184 C1182 1.356 . S
C1184 C1186 1.358 . S
C1184 H1225 0.930 . S
C1185 C1183 1.353 . S
C1185 N1187 1.314 . S
C1185 H1226 0.930 . S
C1186 C1184 1.358 . S
C1186 N1187 1.279 . S
C1186 H1227 0.930 . S
N1187 C1185 1.314 . S
N1187 C1186 1.279 . S
C1188 C1190 1.353 . S
C1188 N1191 1.314 . S
C1188 H1194 0.930 . S
C1189 N1191 1.279 . S
C1189 C1192 1.358 . S
C1189 H1195 0.930 . S
C1190 C1188 1.353 . S
C1190 C1193 1.348 . S
C1190 H1228 0.929 . S
N1191 Li1146 1.990 . S
N1191 C1188 1.314 . S
N1191 C1189 1.279 . S
C1192 C1189 1.358 . S
C1192 C1193 1.356 . S
C1192 H1229 0.930 . S
C1193 C1190 1.348 . S
C1193 C1192 1.356 . S
H1194 C1188 0.930 . S
H1195 C1189 0.930 . S
C1196 N1197 1.314 . S
C1196 C1198 1.353 . S
C1196 H1202 0.930 . S
N1197 Li1147 1.990 . S
N1197 C1196 1.314 . S
N1197 C1200 1.279 . S
C1198 C1196 1.353 . S
C1198 C1201 1.348 . S
C1198 H1230 0.929 . S
C1199 C1200 1.358 . S
C1199 C1201 1.356 . S
C1199 H1231 0.930 . S
C1200 N1197 1.279 . S
C1200 C1199 1.358 . S
C1200 H1203 0.930 . S
C1201 C1198 1.348 . S
C1201 C1199 1.356 . S
H1202 C1196 0.930 . S
H1203 C1200 0.930 . S
O1204 Li1144 1.956 . S
O1204 Li1145 1.970 . S
O1204 Li1146 1.961 . S
O1204 C1148 1.325 . S
O1205 Li1144 1.970 . S
O1205 Li1145 1.956 . S
O1205 Li1147 1.961 . S
O1205 C1154 1.325 . S
O1206 Li1144 1.961 . S
O1206 Li1146 1.956 . S
O1206 Li1147 1.970 . S
O1206 C1176 1.325 . S
O1207 Li1145 1.961 . S
O1207 Li1146 1.970 . S
O1207 Li1147 1.956 . S
O1207 C1182 1.325 . S
H1208 C1150 0.929 . S
H1209 C1151 0.930 . S
H1210 C1152 0.930 . S
H1211 C1153 0.930 . S
H1212 C1155 0.930 . S
H1213 C1157 0.929 . S
H1214 C1158 0.930 . S
H1215 C1159 0.930 . S
H1216 C1162 0.930 . S
H1217 C1165 0.929 . S
H1218 C1170 0.929 . S
H1219 C1171 0.930 . S
H1220 C1178 0.929 . S
H1221 C1179 0.930 . S
H1222 C1180 0.930 . S
H1223 C1181 0.930 . S
H1224 C1183 0.929 . S
H1225 C1184 0.930 . S
H1226 C1185 0.930 . S
H1227 C1186 0.930 . S
H1228 C1190 0.929 . S
H1229 C1192 0.930 . S
H1230 C1198 0.929 . S
H1231 C1199 0.930 . S
Li1232 N1249 1.990 . S
Li1232 O1292 1.956 . S
Li1232 O1293 1.970 . S
Li1232 O1294 1.961 . S
Li1233 N1257 1.990 . S
Li1233 O1292 1.970 . S
Li1233 O1293 1.956 . S
Li1233 O1295 1.961 . S
Li1234 N1279 1.990 . S
Li1234 O1292 1.961 . S
Li1234 O1294 1.956 . S
Li1234 O1295 1.970 . S
Li1235 N1285 1.990 . S
Li1235 O1293 1.961 . S
Li1235 O1294 1.970 . S
Li1235 O1295 1.956 . S
C1236 C1238 1.348 . S
C1236 C1239 1.356 . S
C1236 O1292 1.325 . S
N1237 C1240 1.314 . S
N1237 C1241 1.279 . S
C1238 C1236 1.348 . S
C1238 C1240 1.353 . S
C1238 H1296 0.929 . S
C1239 C1236 1.356 . S
C1239 C1241 1.358 . S
C1239 H1297 0.930 . S
C1240 N1237 1.314 . S
C1240 C1238 1.353 . S
C1240 H1298 0.930 . S
C1241 N1237 1.279 . S
C1241 C1239 1.358 . S
C1241 H1299 0.930 . S
C1242 C1245 1.348 . S
C1242 C1246 1.356 . S
C1242 O1293 1.325 . S
C1243 N1244 1.279 . S
C1243 C1246 1.358 . S
C1243 H1300 0.930 . S
N1244 C1243 1.279 . S
N1244 C1247 1.314 . S
C1245 C1242 1.348 . S
C1245 C1247 1.353 . S
C1245 H1301 0.929 . S
C1246 C1242 1.356 . S
C1246 C1243 1.358 . S
C1246 H1302 0.930 . S
C1247 N1244 1.314 . S
C1247 C1245 1.353 . S
C1247 H1303 0.930 . S
C1248 N1249 1.314 . S
C1248 C1253 1.353 . S
C1248 H1254 0.930 . S
N1249 Li1232 1.990 . S
N1249 C1248 1.314 . S
N1249 C1251 1.279 . S
C1250 C1251 1.358 . S
C1250 C1252 1.356 . S
C1250 H1304 0.930 . S
C1251 N1249 1.279 . S
C1251 C1250 1.358 . S
C1251 H1255 0.930 . S
C1252 C1250 1.356 . S
C1252 C1253 1.348 . S
C1253 C1248 1.353 . S
C1253 C1252 1.348 . S
C1253 H1305 0.929 . S
H1254 C1248 0.930 . S
H1255 C1251 0.930 . S
C1256 N1257 1.314 . S
C1256 C1258 1.353 . S
C1256 H1262 0.930 . S
N1257 Li1233 1.990 . S
N1257 C1256 1.314 . S
N1257 C1260 1.279 . S
C1258 C1256 1.353 . S
C1258 C1261 1.348 . S
C1258 H1306 0.929 . S
C1259 C1260 1.358 . S
C1259 C1261 1.356 . S
C1259 H1307 0.930 . S
C1260 N1257 1.279 . S
C1260 C1259 1.358 . S
C1260 H1263 0.930 . S
C1261 C1258 1.348 . S
C1261 C1259 1.356 . S
H1262 C1256 0.930 . S
H1263 C1260 0.930 . S
C1264 C1266 1.348 . S
C1264 C1267 1.356 . S
C1264 O1294 1.325 . S
N1265 C1268 1.314 . S
N1265 C1269 1.279 . S
C1266 C1264 1.348 . S
C1266 C1268 1.353 . S
C1266 H1308 0.929 . S
C1267 C1264 1.356 . S
C1267 C1269 1.358 . S
C1267 H1309 0.930 . S
C1268 N1265 1.314 . S
C1268 C1266 1.353 . S
C1268 H1310 0.930 . S
C1269 N1265 1.279 . S
C1269 C1267 1.358 . S
C1269 H1311 0.930 . S
C1270 C1271 1.348 . S
C1270 C1272 1.356 . S
C1270 O1295 1.325 . S
C1271 C1270 1.348 . S
C1271 C1273 1.353 . S
C1271 H1312 0.929 . S
C1272 C1270 1.356 . S
C1272 C1274 1.358 . S
C1272 H1313 0.930 . S
C1273 C1271 1.353 . S
C1273 N1275 1.314 . S
C1273 H1314 0.930 . S
C1274 C1272 1.358 . S
C1274 N1275 1.279 . S
C1274 H1315 0.930 . S
N1275 C1273 1.314 . S
N1275 C1274 1.279 . S
C1276 C1278 1.353 . S
C1276 N1279 1.314 . S
C1276 H1282 0.930 . S
C1277 N1279 1.279 . S
C1277 C1280 1.358 . S
C1277 H1283 0.930 . S
C1278 C1276 1.353 . S
C1278 C1281 1.348 . S
C1278 H1316 0.929 . S
N1279 Li1234 1.990 . S
N1279 C1276 1.314 . S
N1279 C1277 1.279 . S
C1280 C1277 1.358 . S
C1280 C1281 1.356 . S
C1280 H1317 0.930 . S
C1281 C1278 1.348 . S
C1281 C1280 1.356 . S
H1282 C1276 0.930 . S
H1283 C1277 0.930 . S
C1284 N1285 1.314 . S
C1284 C1286 1.353 . S
C1284 H1290 0.930 . S
N1285 Li1235 1.990 . S
N1285 C1284 1.314 . S
N1285 C1288 1.279 . S
C1286 C1284 1.353 . S
C1286 C1289 1.348 . S
C1286 H1318 0.929 . S
C1287 C1288 1.358 . S
C1287 C1289 1.356 . S
C1287 H1319 0.930 . S
C1288 N1285 1.279 . S
C1288 C1287 1.358 . S
C1288 H1291 0.930 . S
C1289 C1286 1.348 . S
C1289 C1287 1.356 . S
H1290 C1284 0.930 . S
H1291 C1288 0.930 . S
O1292 Li1232 1.956 . S
O1292 Li1233 1.970 . S
O1292 Li1234 1.961 . S
O1292 C1236 1.325 . S
O1293 Li1232 1.970 . S
O1293 Li1233 1.956 . S
O1293 Li1235 1.961 . S
O1293 C1242 1.325 . S
O1294 Li1232 1.961 . S
O1294 Li1234 1.956 . S
O1294 Li1235 1.970 . S
O1294 C1264 1.325 . S
O1295 Li1233 1.961 . S
O1295 Li1234 1.970 . S
O1295 Li1235 1.956 . S
O1295 C1270 1.325 . S
H1296 C1238 0.929 . S
H1297 C1239 0.930 . S
H1298 C1240 0.930 . S
H1299 C1241 0.930 . S
H1300 C1243 0.930 . S
H1301 C1245 0.929 . S
H1302 C1246 0.930 . S
H1303 C1247 0.930 . S
H1304 C1250 0.930 . S
H1305 C1253 0.929 . S
H1306 C1258 0.929 . S
H1307 C1259 0.930 . S
H1308 C1266 0.929 . S
H1309 C1267 0.930 . S
H1310 C1268 0.930 . S
H1311 C1269 0.930 . S
H1312 C1271 0.929 . S
H1313 C1272 0.930 . S
H1314 C1273 0.930 . S
H1315 C1274 0.930 . S
H1316 C1278 0.929 . S
H1317 C1280 0.930 . S
H1318 C1286 0.929 . S
H1319 C1287 0.930 . S
Li1320 N1337 1.990 . S
Li1320 O1380 1.956 . S
Li1320 O1381 1.970 . S
Li1320 O1382 1.961 . S
Li1321 N1345 1.990 . S
Li1321 O1380 1.970 . S
Li1321 O1381 1.956 . S
Li1321 O1383 1.961 . S
Li1322 N1367 1.990 . S
Li1322 O1380 1.961 . S
Li1322 O1382 1.956 . S
Li1322 O1383 1.970 . S
Li1323 N1373 1.990 . S
Li1323 O1381 1.961 . S
Li1323 O1382 1.970 . S
Li1323 O1383 1.956 . S
C1324 C1326 1.348 . S
C1324 C1327 1.356 . S
C1324 O1380 1.325 . S
N1325 C1328 1.314 . S
N1325 C1329 1.279 . S
C1326 C1324 1.348 . S
C1326 C1328 1.353 . S
C1326 H1384 0.929 . S
C1327 C1324 1.356 . S
C1327 C1329 1.358 . S
C1327 H1385 0.930 . S
C1328 N1325 1.314 . S
C1328 C1326 1.353 . S
C1328 H1386 0.930 . S
C1329 N1325 1.279 . S
C1329 C1327 1.358 . S
C1329 H1387 0.930 . S
C1330 C1333 1.348 . S
C1330 C1334 1.356 . S
C1330 O1381 1.325 . S
C1331 N1332 1.279 . S
C1331 C1334 1.358 . S
C1331 H1388 0.930 . S
N1332 C1331 1.279 . S
N1332 C1335 1.314 . S
C1333 C1330 1.348 . S
C1333 C1335 1.353 . S
C1333 H1389 0.929 . S
C1334 C1330 1.356 . S
C1334 C1331 1.358 . S
C1334 H1390 0.930 . S
C1335 N1332 1.314 . S
C1335 C1333 1.353 . S
C1335 H1391 0.930 . S
C1336 N1337 1.314 . S
C1336 C1341 1.353 . S
C1336 H1342 0.930 . S
N1337 Li1320 1.990 . S
N1337 C1336 1.314 . S
N1337 C1339 1.279 . S
C1338 C1339 1.358 . S
C1338 C1340 1.356 . S
C1338 H1392 0.930 . S
C1339 N1337 1.279 . S
C1339 C1338 1.358 . S
C1339 H1343 0.930 . S
C1340 C1338 1.356 . S
C1340 C1341 1.348 . S
C1341 C1336 1.353 . S
C1341 C1340 1.348 . S
C1341 H1393 0.929 . S
H1342 C1336 0.930 . S
H1343 C1339 0.930 . S
C1344 N1345 1.314 . S
C1344 C1346 1.353 . S
C1344 H1350 0.930 . S
N1345 Li1321 1.990 . S
N1345 C1344 1.314 . S
N1345 C1348 1.279 . S
C1346 C1344 1.353 . S
C1346 C1349 1.348 . S
C1346 H1394 0.929 . S
C1347 C1348 1.358 . S
C1347 C1349 1.356 . S
C1347 H1395 0.930 . S
C1348 N1345 1.279 . S
C1348 C1347 1.358 . S
C1348 H1351 0.930 . S
C1349 C1346 1.348 . S
C1349 C1347 1.356 . S
H1350 C1344 0.930 . S
H1351 C1348 0.930 . S
C1352 C1354 1.348 . S
C1352 C1355 1.356 . S
C1352 O1382 1.325 . S
N1353 C1356 1.314 . S
N1353 C1357 1.279 . S
C1354 C1352 1.348 . S
C1354 C1356 1.353 . S
C1354 H1396 0.929 . S
C1355 C1352 1.356 . S
C1355 C1357 1.358 . S
C1355 H1397 0.930 . S
C1356 N1353 1.314 . S
C1356 C1354 1.353 . S
C1356 H1398 0.930 . S
C1357 N1353 1.279 . S
C1357 C1355 1.358 . S
C1357 H1399 0.930 . S
C1358 C1359 1.348 . S
C1358 C1360 1.356 . S
C1358 O1383 1.325 . S
C1359 C1358 1.348 . S
C1359 C1361 1.353 . S
C1359 H1400 0.929 . S
C1360 C1358 1.356 . S
C1360 C1362 1.358 . S
C1360 H1401 0.930 . S
C1361 C1359 1.353 . S
C1361 N1363 1.314 . S
C1361 H1402 0.930 . S
C1362 C1360 1.358 . S
C1362 N1363 1.279 . S
C1362 H1403 0.930 . S
N1363 C1361 1.314 . S
N1363 C1362 1.279 . S
C1364 C1366 1.353 . S
C1364 N1367 1.314 . S
C1364 H1370 0.930 . S
C1365 N1367 1.279 . S
C1365 C1368 1.358 . S
C1365 H1371 0.930 . S
C1366 C1364 1.353 . S
C1366 C1369 1.348 . S
C1366 H1404 0.929 . S
N1367 Li1322 1.990 . S
N1367 C1364 1.314 . S
N1367 C1365 1.279 . S
C1368 C1365 1.358 . S
C1368 C1369 1.356 . S
C1368 H1405 0.930 . S
C1369 C1366 1.348 . S
C1369 C1368 1.356 . S
H1370 C1364 0.930 . S
H1371 C1365 0.930 . S
C1372 N1373 1.314 . S
C1372 C1374 1.353 . S
C1372 H1378 0.930 . S
N1373 Li1323 1.990 . S
N1373 C1372 1.314 . S
N1373 C1376 1.279 . S
C1374 C1372 1.353 . S
C1374 C1377 1.348 . S
C1374 H1406 0.929 . S
C1375 C1376 1.358 . S
C1375 C1377 1.356 . S
C1375 H1407 0.930 . S
C1376 N1373 1.279 . S
C1376 C1375 1.358 . S
C1376 H1379 0.930 . S
C1377 C1374 1.348 . S
C1377 C1375 1.356 . S
H1378 C1372 0.930 . S
H1379 C1376 0.930 . S
O1380 Li1320 1.956 . S
O1380 Li1321 1.970 . S
O1380 Li1322 1.961 . S
O1380 C1324 1.325 . S
O1381 Li1320 1.970 . S
O1381 Li1321 1.956 . S
O1381 Li1323 1.961 . S
O1381 C1330 1.325 . S
O1382 Li1320 1.961 . S
O1382 Li1322 1.956 . S
O1382 Li1323 1.970 . S
O1382 C1352 1.325 . S
O1383 Li1321 1.961 . S
O1383 Li1322 1.970 . S
O1383 Li1323 1.956 . S
O1383 C1358 1.325 . S
H1384 C1326 0.929 . S
H1385 C1327 0.930 . S
H1386 C1328 0.930 . S
H1387 C1329 0.930 . S
H1388 C1331 0.930 . S
H1389 C1333 0.929 . S
H1390 C1334 0.930 . S
H1391 C1335 0.930 . S
H1392 C1338 0.930 . S
H1393 C1341 0.929 . S
H1394 C1346 0.929 . S
H1395 C1347 0.930 . S
H1396 C1354 0.929 . S
H1397 C1355 0.930 . S
H1398 C1356 0.930 . S
H1399 C1357 0.930 . S
H1400 C1359 0.929 . S
H1401 C1360 0.930 . S
H1402 C1361 0.930 . S
H1403 C1362 0.930 . S
H1404 C1366 0.929 . S
H1405 C1368 0.930 . S
H1406 C1374 0.929 . S
H1407 C1375 0.930 . S
C1408 C1409 1.349 . S
C1408 C1410 1.327 . S
C1408 H1433 0.950 . S
C1409 C1408 1.349 . S
C1409 C1425 1.349 . S
C1410 C1408 1.327 . S
C1410 C1429 1.429 . S
C1410 H1434 0.950 . S
C1411 C1428 1.574 . S
C1411 C1430 1.368 . S
C1411 H1435 0.949 . S
H1412 C1416 0.949 . S
C1413 C1414 1.349 . S
C1413 C1415 1.327 . S
C1413 H1436 0.950 . S
C1414 C1413 1.349 . S
C1414 C1426 1.349 . S
C1415 C1413 1.327 . S
C1415 C1431 1.429 . S
C1415 H1437 0.950 . S
C1416 H1412 0.949 . S
C1416 C1424 1.574 . S
C1416 C1432 1.368 . S
H1417 C1425 0.950 . S
H1418 C1423 0.950 . S
H1419 C1424 0.949 . S
H1420 C1426 0.950 . S
H1421 C1427 0.950 . S
H1422 C1428 0.949 . S
C1423 H1418 0.950 . S
C1423 C1425 1.327 . S
C1423 C1429 1.429 . S
C1424 C1416 1.574 . S
C1424 H1419 0.949 . S
C1424 C1430 1.368 . S
C1425 C1409 1.349 . S
C1425 H1417 0.950 . S
C1425 C1423 1.327 . S
C1426 C1414 1.349 . S
C1426 H1420 0.950 . S
C1426 C1427 1.327 . S
C1427 H1421 0.950 . S
C1427 C1426 1.327 . S
C1427 C1431 1.429 . S
C1428 C1411 1.574 . S
C1428 H1422 0.949 . S
C1428 C1432 1.368 . S
C1429 C1410 1.429 . S
C1429 C1423 1.429 . S
C1429 C1430 1.523 . S
C1430 C1411 1.368 . S
C1430 C1424 1.368 . S
C1430 C1429 1.523 . S
C1431 C1415 1.429 . S
C1431 C1427 1.429 . S
C1431 C1432 1.523 . S
C1432 C1416 1.368 . S
C1432 C1428 1.368 . S
C1432 C1431 1.523 . S
H1433 C1408 0.950 . S
H1434 C1410 0.950 . S
H1435 C1411 0.949 . S
H1436 C1413 0.950 . S
H1437 C1415 0.950 . S
C1438 C1439 1.349 . S
C1438 C1440 1.327 . S
C1438 H1463 0.950 . S
C1439 C1438 1.349 . S
C1439 C1455 1.349 . S
C1440 C1438 1.327 . S
C1440 C1459 1.429 . S
C1440 H1464 0.950 . S
C1441 C1458 1.574 . S
C1441 C1460 1.368 . S
C1441 H1465 0.949 . S
H1442 C1446 0.949 . S
C1443 C1444 1.349 . S
C1443 C1445 1.327 . S
C1443 H1466 0.950 . S
C1444 C1443 1.349 . S
C1444 C1456 1.349 . S
C1445 C1443 1.327 . S
C1445 C1461 1.429 . S
C1445 H1467 0.950 . S
C1446 H1442 0.949 . S
C1446 C1454 1.574 . S
C1446 C1462 1.368 . S
H1447 C1455 0.950 . S
H1448 C1453 0.950 . S
H1449 C1454 0.949 . S
H1450 C1456 0.950 . S
H1451 C1457 0.950 . S
H1452 C1458 0.949 . S
C1453 H1448 0.950 . S
C1453 C1455 1.327 . S
C1453 C1459 1.429 . S
C1454 C1446 1.574 . S
C1454 H1449 0.949 . S
C1454 C1460 1.368 . S
C1455 C1439 1.349 . S
C1455 H1447 0.950 . S
C1455 C1453 1.327 . S
C1456 C1444 1.349 . S
C1456 H1450 0.950 . S
C1456 C1457 1.327 . S
C1457 H1451 0.950 . S
C1457 C1456 1.327 . S
C1457 C1461 1.429 . S
C1458 C1441 1.574 . S
C1458 H1452 0.949 . S
C1458 C1462 1.368 . S
C1459 C1440 1.429 . S
C1459 C1453 1.429 . S
C1459 C1460 1.523 . S
C1460 C1441 1.368 . S
C1460 C1454 1.368 . S
C1460 C1459 1.523 . S
C1461 C1445 1.429 . S
C1461 C1457 1.429 . S
C1461 C1462 1.523 . S
C1462 C1446 1.368 . S
C1462 C1458 1.368 . S
C1462 C1461 1.523 . S
H1463 C1438 0.950 . S
H1464 C1440 0.950 . S
H1465 C1441 0.949 . S
H1466 C1443 0.950 . S
H1467 C1445 0.950 . S
C1468 C1469 1.349 . S
C1468 C1470 1.327 . S
C1468 H1493 0.950 . S
C1469 C1468 1.349 . S
C1469 C1485 1.349 . S
C1470 C1468 1.327 . S
C1470 C1489 1.429 . S
C1470 H1494 0.950 . S
C1471 C1488 1.574 . S
C1471 C1490 1.368 . S
C1471 H1495 0.949 . S
H1472 C1476 0.949 . S
C1473 C1474 1.349 . S
C1473 C1475 1.327 . S
C1473 H1496 0.950 . S
C1474 C1473 1.349 . S
C1474 C1486 1.349 . S
C1475 C1473 1.327 . S
C1475 C1491 1.429 . S
C1475 H1497 0.950 . S
C1476 H1472 0.949 . S
C1476 C1484 1.574 . S
C1476 C1492 1.368 . S
H1477 C1485 0.950 . S
H1478 C1483 0.950 . S
H1479 C1484 0.949 . S
H1480 C1486 0.950 . S
H1481 C1487 0.950 . S
H1482 C1488 0.949 . S
C1483 H1478 0.950 . S
C1483 C1485 1.327 . S
C1483 C1489 1.429 . S
C1484 C1476 1.574 . S
C1484 H1479 0.949 . S
C1484 C1490 1.368 . S
C1485 C1469 1.349 . S
C1485 H1477 0.950 . S
C1485 C1483 1.327 . S
C1486 C1474 1.349 . S
C1486 H1480 0.950 . S
C1486 C1487 1.327 . S
C1487 H1481 0.950 . S
C1487 C1486 1.327 . S
C1487 C1491 1.429 . S
C1488 C1471 1.574 . S
C1488 H1482 0.949 . S
C1488 C1492 1.368 . S
C1489 C1470 1.429 . S
C1489 C1483 1.429 . S
C1489 C1490 1.523 . S
C1490 C1471 1.368 . S
C1490 C1484 1.368 . S
C1490 C1489 1.523 . S
C1491 C1475 1.429 . S
C1491 C1487 1.429 . S
C1491 C1492 1.523 . S
C1492 C1476 1.368 . S
C1492 C1488 1.368 . S
C1492 C1491 1.523 . S
H1493 C1468 0.950 . S
H1494 C1470 0.950 . S
H1495 C1471 0.949 . S
H1496 C1473 0.950 . S
H1497 C1475 0.950 . S
C1498 C1499 1.349 . S
C1498 C1500 1.327 . S
C1498 H1523 0.950 . S
C1499 C1498 1.349 . S
C1499 C1515 1.349 . S
C1500 C1498 1.327 . S
C1500 C1519 1.429 . S
C1500 H1524 0.950 . S
C1501 C1518 1.574 . S
C1501 C1520 1.368 . S
C1501 H1525 0.949 . S
H1502 C1506 0.949 . S
C1503 C1504 1.349 . S
C1503 C1505 1.327 . S
C1503 H1526 0.950 . S
C1504 C1503 1.349 . S
C1504 C1516 1.349 . S
C1505 C1503 1.327 . S
C1505 C1521 1.429 . S
C1505 H1527 0.950 . S
C1506 H1502 0.949 . S
C1506 C1514 1.574 . S
C1506 C1522 1.368 . S
H1507 C1515 0.950 . S
H1508 C1513 0.950 . S
H1509 C1514 0.949 . S
H1510 C1516 0.950 . S
H1511 C1517 0.950 . S
H1512 C1518 0.949 . S
C1513 H1508 0.950 . S
C1513 C1515 1.327 . S
C1513 C1519 1.429 . S
C1514 C1506 1.574 . S
C1514 H1509 0.949 . S
C1514 C1520 1.368 . S
C1515 C1499 1.349 . S
C1515 H1507 0.950 . S
C1515 C1513 1.327 . S
C1516 C1504 1.349 . S
C1516 H1510 0.950 . S
C1516 C1517 1.327 . S
C1517 H1511 0.950 . S
C1517 C1516 1.327 . S
C1517 C1521 1.429 . S
C1518 C1501 1.574 . S
C1518 H1512 0.949 . S
C1518 C1522 1.368 . S
C1519 C1500 1.429 . S
C1519 C1513 1.429 . S
C1519 C1520 1.523 . S
C1520 C1501 1.368 . S
C1520 C1514 1.368 . S
C1520 C1519 1.523 . S
C1521 C1505 1.429 . S
C1521 C1517 1.429 . S
C1521 C1522 1.523 . S
C1522 C1506 1.368 . S
C1522 C1518 1.368 . S
C1522 C1521 1.523 . S
H1523 C1498 0.950 . S
H1524 C1500 0.950 . S
H1525 C1501 0.949 . S
H1526 C1503 0.950 . S
H1527 C1505 0.950 . S
C1528 C1529 1.349 . S
C1528 C1530 1.327 . S
C1528 H1553 0.950 . S
C1529 C1528 1.349 . S
C1529 C1545 1.349 . S
C1530 C1528 1.327 . S
C1530 C1549 1.429 . S
C1530 H1554 0.950 . S
C1531 C1548 1.574 . S
C1531 C1550 1.368 . S
C1531 H1555 0.949 . S
H1532 C1536 0.949 . S
C1533 C1534 1.349 . S
C1533 C1535 1.327 . S
C1533 H1556 0.950 . S
C1534 C1533 1.349 . S
C1534 C1546 1.349 . S
C1535 C1533 1.327 . S
C1535 C1551 1.429 . S
C1535 H1557 0.950 . S
C1536 H1532 0.949 . S
C1536 C1544 1.574 . S
C1536 C1552 1.368 . S
H1537 C1545 0.950 . S
H1538 C1543 0.950 . S
H1539 C1544 0.949 . S
H1540 C1546 0.950 . S
H1541 C1547 0.950 . S
H1542 C1548 0.949 . S
C1543 H1538 0.950 . S
C1543 C1545 1.327 . S
C1543 C1549 1.429 . S
C1544 C1536 1.574 . S
C1544 H1539 0.949 . S
C1544 C1550 1.368 . S
C1545 C1529 1.349 . S
C1545 H1537 0.950 . S
C1545 C1543 1.327 . S
C1546 C1534 1.349 . S
C1546 H1540 0.950 . S
C1546 C1547 1.327 . S
C1547 H1541 0.950 . S
C1547 C1546 1.327 . S
C1547 C1551 1.429 . S
C1548 C1531 1.574 . S
C1548 H1542 0.949 . S
C1548 C1552 1.368 . S
C1549 C1530 1.429 . S
C1549 C1543 1.429 . S
C1549 C1550 1.523 . S
C1550 C1531 1.368 . S
C1550 C1544 1.368 . S
C1550 C1549 1.523 . S
C1551 C1535 1.429 . S
C1551 C1547 1.429 . S
C1551 C1552 1.523 . S
C1552 C1536 1.368 . S
C1552 C1548 1.368 . S
C1552 C1551 1.523 . S
H1553 C1528 0.950 . S
H1554 C1530 0.950 . S
H1555 C1531 0.949 . S
H1556 C1533 0.950 . S
H1557 C1535 0.950 . S
C1558 C1559 1.349 . S
C1558 C1560 1.327 . S
C1558 H1583 0.950 . S
C1559 C1558 1.349 . S
C1559 C1575 1.349 . S
C1560 C1558 1.327 . S
C1560 C1579 1.429 . S
C1560 H1584 0.950 . S
C1561 C1578 1.574 . S
C1561 C1580 1.368 . S
C1561 H1585 0.949 . S
H1562 C1566 0.949 . S
C1563 C1564 1.349 . S
C1563 C1565 1.327 . S
C1563 H1586 0.950 . S
C1564 C1563 1.349 . S
C1564 C1576 1.349 . S
C1565 C1563 1.327 . S
C1565 C1581 1.429 . S
C1565 H1587 0.950 . S
C1566 H1562 0.949 . S
C1566 C1574 1.574 . S
C1566 C1582 1.368 . S
H1567 C1575 0.950 . S
H1568 C1573 0.950 . S
H1569 C1574 0.949 . S
H1570 C1576 0.950 . S
H1571 C1577 0.950 . S
H1572 C1578 0.949 . S
C1573 H1568 0.950 . S
C1573 C1575 1.327 . S
C1573 C1579 1.429 . S
C1574 C1566 1.574 . S
C1574 H1569 0.949 . S
C1574 C1580 1.368 . S
C1575 C1559 1.349 . S
C1575 H1567 0.950 . S
C1575 C1573 1.327 . S
C1576 C1564 1.349 . S
C1576 H1570 0.950 . S
C1576 C1577 1.327 . S
C1577 H1571 0.950 . S
C1577 C1576 1.327 . S
C1577 C1581 1.429 . S
C1578 C1561 1.574 . S
C1578 H1572 0.949 . S
C1578 C1582 1.368 . S
C1579 C1560 1.429 . S
C1579 C1573 1.429 . S
C1579 C1580 1.523 . S
C1580 C1561 1.368 . S
C1580 C1574 1.368 . S
C1580 C1579 1.523 . S
C1581 C1565 1.429 . S
C1581 C1577 1.429 . S
C1581 C1582 1.523 . S
C1582 C1566 1.368 . S
C1582 C1578 1.368 . S
C1582 C1581 1.523 . S
H1583 C1558 0.950 . S
H1584 C1560 0.950 . S
H1585 C1561 0.949 . S
H1586 C1563 0.950 . S
H1587 C1565 0.950 . S
C1588 C1589 1.349 . S
C1588 C1590 1.327 . S
C1588 H1613 0.950 . S
C1589 C1588 1.349 . S
C1589 C1605 1.349 . S
C1590 C1588 1.327 . S
C1590 C1609 1.429 . S
C1590 H1614 0.950 . S
C1591 C1608 1.574 . S
C1591 C1610 1.368 . S
C1591 H1615 0.949 . S
H1592 C1596 0.949 . S
C1593 C1594 1.349 . S
C1593 C1595 1.327 . S
C1593 H1616 0.950 . S
C1594 C1593 1.349 . S
C1594 C1606 1.349 . S
C1595 C1593 1.327 . S
C1595 C1611 1.429 . S
C1595 H1617 0.950 . S
C1596 H1592 0.949 . S
C1596 C1604 1.574 . S
C1596 C1612 1.368 . S
H1597 C1605 0.950 . S
H1598 C1603 0.950 . S
H1599 C1604 0.949 . S
H1600 C1606 0.950 . S
H1601 C1607 0.950 . S
H1602 C1608 0.949 . S
C1603 H1598 0.950 . S
C1603 C1605 1.327 . S
C1603 C1609 1.429 . S
C1604 C1596 1.574 . S
C1604 H1599 0.949 . S
C1604 C1610 1.368 . S
C1605 C1589 1.349 . S
C1605 H1597 0.950 . S
C1605 C1603 1.327 . S
C1606 C1594 1.349 . S
C1606 H1600 0.950 . S
C1606 C1607 1.327 . S
C1607 H1601 0.950 . S
C1607 C1606 1.327 . S
C1607 C1611 1.429 . S
C1608 C1591 1.574 . S
C1608 H1602 0.949 . S
C1608 C1612 1.368 . S
C1609 C1590 1.429 . S
C1609 C1603 1.429 . S
C1609 C1610 1.523 . S
C1610 C1591 1.368 . S
C1610 C1604 1.368 . S
C1610 C1609 1.523 . S
C1611 C1595 1.429 . S
C1611 C1607 1.429 . S
C1611 C1612 1.523 . S
C1612 C1596 1.368 . S
C1612 C1608 1.368 . S
C1612 C1611 1.523 . S
H1613 C1588 0.950 . S
H1614 C1590 0.950 . S
H1615 C1591 0.949 . S
H1616 C1593 0.950 . S
H1617 C1595 0.950 . S
C1618 C1619 1.349 . S
C1618 C1620 1.327 . S
C1618 H1643 0.950 . S
C1619 C1618 1.349 . S
C1619 C1635 1.349 . S
C1620 C1618 1.327 . S
C1620 C1639 1.429 . S
C1620 H1644 0.950 . S
C1621 C1638 1.574 . S
C1621 C1640 1.368 . S
C1621 H1645 0.949 . S
H1622 C1626 0.949 . S
C1623 C1624 1.349 . S
C1623 C1625 1.327 . S
C1623 H1646 0.950 . S
C1624 C1623 1.349 . S
C1624 C1636 1.349 . S
C1625 C1623 1.327 . S
C1625 C1641 1.429 . S
C1625 H1647 0.950 . S
C1626 H1622 0.949 . S
C1626 C1634 1.574 . S
C1626 C1642 1.368 . S
H1627 C1635 0.950 . S
H1628 C1633 0.950 . S
H1629 C1634 0.949 . S
H1630 C1636 0.950 . S
H1631 C1637 0.950 . S
H1632 C1638 0.949 . S
C1633 H1628 0.950 . S
C1633 C1635 1.327 . S
C1633 C1639 1.429 . S
C1634 C1626 1.574 . S
C1634 H1629 0.949 . S
C1634 C1640 1.368 . S
C1635 C1619 1.349 . S
C1635 H1627 0.950 . S
C1635 C1633 1.327 . S
C1636 C1624 1.349 . S
C1636 H1630 0.950 . S
C1636 C1637 1.327 . S
C1637 H1631 0.950 . S
C1637 C1636 1.327 . S
C1637 C1641 1.429 . S
C1638 C1621 1.574 . S
C1638 H1632 0.949 . S
C1638 C1642 1.368 . S
C1639 C1620 1.429 . S
C1639 C1633 1.429 . S
C1639 C1640 1.523 . S
C1640 C1621 1.368 . S
C1640 C1634 1.368 . S
C1640 C1639 1.523 . S
C1641 C1625 1.429 . S
C1641 C1637 1.429 . S
C1641 C1642 1.523 . S
C1642 C1626 1.368 . S
C1642 C1638 1.368 . S
C1642 C1641 1.523 . S
H1643 C1618 0.950 . S
H1644 C1620 0.950 . S
H1645 C1621 0.949 . S
H1646 C1623 0.950 . S
H1647 C1625 0.950 . S
C1648 C1649 1.349 . S
C1648 C1650 1.327 . S
C1648 H1673 0.950 . S
C1649 C1648 1.349 . S
C1649 C1665 1.349 . S
C1650 C1648 1.327 . S
C1650 C1669 1.429 . S
C1650 H1674 0.950 . S
C1651 C1668 1.574 1_556 S
C1651 C1670 1.368 . S
C1651 H1675 0.949 . S
H1652 C1656 0.949 . S
C1653 C1654 1.349 . S
C1653 C1655 1.327 . S
C1653 H1676 0.950 . S
C1654 C1653 1.349 . S
C1654 C1666 1.349 . S
C1655 C1653 1.327 . S
C1655 C1671 1.429 . S
C1655 H1677 0.950 . S
C1656 H1652 0.949 . S
C1656 C1664 1.574 1_554 S
C1656 C1672 1.368 . S
H1657 C1665 0.950 . S
H1658 C1663 0.950 . S
H1659 C1664 0.949 . S
H1660 C1666 0.950 . S
H1661 C1667 0.950 . S
H1662 C1668 0.949 . S
C1663 H1658 0.950 . S
C1663 C1665 1.327 . S
C1663 C1669 1.429 . S
C1664 C1656 1.574 1_556 S
C1664 H1659 0.949 . S
C1664 C1670 1.368 . S
C1665 C1649 1.349 . S
C1665 H1657 0.950 . S
C1665 C1663 1.327 . S
C1666 C1654 1.349 . S
C1666 H1660 0.950 . S
C1666 C1667 1.327 . S
C1667 H1661 0.950 . S
C1667 C1666 1.327 . S
C1667 C1671 1.429 . S
C1668 C1651 1.574 1_554 S
C1668 H1662 0.949 . S
C1668 C1672 1.368 . S
C1669 C1650 1.429 . S
C1669 C1663 1.429 . S
C1669 C1670 1.523 . S
C1670 C1651 1.368 . S
C1670 C1664 1.368 . S
C1670 C1669 1.523 . S
C1671 C1655 1.429 . S
C1671 C1667 1.429 . S
C1671 C1672 1.523 . S
C1672 C1656 1.368 . S
C1672 C1668 1.368 . S
C1672 C1671 1.523 . S
H1673 C1648 0.950 . S
H1674 C1650 0.950 . S
H1675 C1651 0.949 . S
H1676 C1653 0.950 . S
H1677 C1655 0.950 . S
C1678 C1679 1.349 . S
C1678 C1680 1.327 . S
C1678 H1703 0.950 . S
C1679 C1678 1.349 . S
C1679 C1695 1.349 . S
C1680 C1678 1.327 . S
C1680 C1699 1.429 . S
C1680 H1704 0.950 . S
C1681 C1698 1.574 1_556 S
C1681 C1700 1.368 . S
C1681 H1705 0.949 . S
H1682 C1686 0.949 . S
C1683 C1684 1.349 . S
C1683 C1685 1.327 . S
C1683 H1706 0.950 . S
C1684 C1683 1.349 . S
C1684 C1696 1.349 . S
C1685 C1683 1.327 . S
C1685 C1701 1.429 . S
C1685 H1707 0.950 . S
C1686 H1682 0.949 . S
C1686 C1694 1.574 1_554 S
C1686 C1702 1.368 . S
H1687 C1695 0.950 . S
H1688 C1693 0.950 . S
H1689 C1694 0.949 . S
H1690 C1696 0.950 . S
H1691 C1697 0.950 . S
H1692 C1698 0.949 . S
C1693 H1688 0.950 . S
C1693 C1695 1.327 . S
C1693 C1699 1.429 . S
C1694 C1686 1.574 1_556 S
C1694 H1689 0.949 . S
C1694 C1700 1.368 . S
C1695 C1679 1.349 . S
C1695 H1687 0.950 . S
C1695 C1693 1.327 . S
C1696 C1684 1.349 . S
C1696 H1690 0.950 . S
C1696 C1697 1.327 . S
C1697 H1691 0.950 . S
C1697 C1696 1.327 . S
C1697 C1701 1.429 . S
C1698 C1681 1.574 1_554 S
C1698 H1692 0.949 . S
C1698 C1702 1.368 . S
C1699 C1680 1.429 . S
C1699 C1693 1.429 . S
C1699 C1700 1.523 . S
C1700 C1681 1.368 . S
C1700 C1694 1.368 . S
C1700 C1699 1.523 . S
C1701 C1685 1.429 . S
C1701 C1697 1.429 . S
C1701 C1702 1.523 . S
C1702 C1686 1.368 . S
C1702 C1698 1.368 . S
C1702 C1701 1.523 . S
H1703 C1678 0.950 . S
H1704 C1680 0.950 . S
H1705 C1681 0.949 . S
H1706 C1683 0.950 . S
H1707 C1685 0.950 . S
C1708 C1709 1.349 . S
C1708 C1710 1.327 . S
C1708 H1733 0.950 . S
C1709 C1708 1.349 . S
C1709 C1725 1.349 . S
C1710 C1708 1.327 . S
C1710 C1729 1.429 . S
C1710 H1734 0.950 . S
C1711 C1728 1.574 1_556 S
C1711 C1730 1.368 . S
C1711 H1735 0.949 . S
H1712 C1716 0.949 . S
C1713 C1714 1.349 . S
C1713 C1715 1.327 . S
C1713 H1736 0.950 . S
C1714 C1713 1.349 . S
C1714 C1726 1.349 . S
C1715 C1713 1.327 . S
C1715 C1731 1.429 . S
C1715 H1737 0.950 . S
C1716 H1712 0.949 . S
C1716 C1724 1.574 1_554 S
C1716 C1732 1.368 . S
H1717 C1725 0.950 . S
H1718 C1723 0.950 . S
H1719 C1724 0.949 . S
H1720 C1726 0.950 . S
H1721 C1727 0.950 . S
H1722 C1728 0.949 . S
C1723 H1718 0.950 . S
C1723 C1725 1.327 . S
C1723 C1729 1.429 . S
C1724 C1716 1.574 1_556 S
C1724 H1719 0.949 . S
C1724 C1730 1.368 . S
C1725 C1709 1.349 . S
C1725 H1717 0.950 . S
C1725 C1723 1.327 . S
C1726 C1714 1.349 . S
C1726 H1720 0.950 . S
C1726 C1727 1.327 . S
C1727 H1721 0.950 . S
C1727 C1726 1.327 . S
C1727 C1731 1.429 . S
C1728 C1711 1.574 1_554 S
C1728 H1722 0.949 . S
C1728 C1732 1.368 . S
C1729 C1710 1.429 . S
C1729 C1723 1.429 . S
C1729 C1730 1.523 . S
C1730 C1711 1.368 . S
C1730 C1724 1.368 . S
C1730 C1729 1.523 . S
C1731 C1715 1.429 . S
C1731 C1727 1.429 . S
C1731 C1732 1.523 . S
C1732 C1716 1.368 . S
C1732 C1728 1.368 . S
C1732 C1731 1.523 . S
H1733 C1708 0.950 . S
H1734 C1710 0.950 . S
H1735 C1711 0.949 . S
H1736 C1713 0.950 . S
H1737 C1715 0.950 . S
C1738 C1739 1.349 . S
C1738 C1740 1.327 . S
C1738 H1763 0.950 . S
C1739 C1738 1.349 . S
C1739 C1755 1.349 . S
C1740 C1738 1.327 . S
C1740 C1759 1.429 . S
C1740 H1764 0.950 . S
C1741 C1758 1.574 1_554 S
C1741 C1760 1.368 . S
C1741 H1765 0.949 . S
H1742 C1746 0.949 . S
C1743 C1744 1.349 . S
C1743 C1745 1.327 . S
C1743 H1766 0.950 . S
C1744 C1743 1.349 . S
C1744 C1756 1.349 . S
C1745 C1743 1.327 . S
C1745 C1761 1.429 . S
C1745 H1767 0.950 . S
C1746 H1742 0.949 . S
C1746 C1754 1.574 1_556 S
C1746 C1762 1.368 . S
H1747 C1755 0.950 . S
H1748 C1753 0.950 . S
H1749 C1754 0.949 . S
H1750 C1756 0.950 . S
H1751 C1757 0.950 . S
H1752 C1758 0.949 . S
C1753 H1748 0.950 . S
C1753 C1755 1.327 . S
C1753 C1759 1.429 . S
C1754 C1746 1.574 1_554 S
C1754 H1749 0.949 . S
C1754 C1760 1.368 . S
C1755 C1739 1.349 . S
C1755 H1747 0.950 . S
C1755 C1753 1.327 . S
C1756 C1744 1.349 . S
C1756 H1750 0.950 . S
C1756 C1757 1.327 . S
C1757 H1751 0.950 . S
C1757 C1756 1.327 . S
C1757 C1761 1.429 . S
C1758 C1741 1.574 1_556 S
C1758 H1752 0.949 . S
C1758 C1762 1.368 . S
C1759 C1740 1.429 . S
C1759 C1753 1.429 . S
C1759 C1760 1.523 . S
C1760 C1741 1.368 . S
C1760 C1754 1.368 . S
C1760 C1759 1.523 . S
C1761 C1745 1.429 . S
C1761 C1757 1.429 . S
C1761 C1762 1.523 . S
C1762 C1746 1.368 . S
C1762 C1758 1.368 . S
C1762 C1761 1.523 . S
H1763 C1738 0.950 . S
H1764 C1740 0.950 . S
H1765 C1741 0.949 . S
H1766 C1743 0.950 . S
H1767 C1745 0.950 . S
C1768 C1769 1.349 . S
C1768 C1770 1.327 . S
C1768 H1793 0.950 . S
C1769 C1768 1.349 . S
C1769 C1785 1.349 . S
C1770 C1768 1.327 . S
C1770 C1789 1.429 . S
C1770 H1794 0.950 . S
C1771 C1788 1.574 . S
C1771 C1790 1.368 . S
C1771 H1795 0.949 . S
H1772 C1776 0.949 . S
C1773 C1774 1.349 . S
C1773 C1775 1.327 . S
C1773 H1796 0.950 . S
C1774 C1773 1.349 . S
C1774 C1786 1.349 . S
C1775 C1773 1.327 . S
C1775 C1791 1.429 . S
C1775 H1797 0.950 . S
C1776 H1772 0.949 . S
C1776 C1784 1.574 . S
C1776 C1792 1.368 . S
H1777 C1785 0.950 . S
H1778 C1783 0.950 . S
H1779 C1784 0.949 . S
H1780 C1786 0.950 . S
H1781 C1787 0.950 . S
H1782 C1788 0.949 . S
C1783 H1778 0.950 . S
C1783 C1785 1.327 . S
C1783 C1789 1.429 . S
C1784 C1776 1.574 . S
C1784 H1779 0.949 . S
C1784 C1790 1.368 . S
C1785 C1769 1.349 . S
C1785 H1777 0.950 . S
C1785 C1783 1.327 . S
C1786 C1774 1.349 . S
C1786 H1780 0.950 . S
C1786 C1787 1.327 . S
C1787 H1781 0.950 . S
C1787 C1786 1.327 . S
C1787 C1791 1.429 . S
C1788 C1771 1.574 . S
C1788 H1782 0.949 . S
C1788 C1792 1.368 . S
C1789 C1770 1.429 . S
C1789 C1783 1.429 . S
C1789 C1790 1.523 . S
C1790 C1771 1.368 . S
C1790 C1784 1.368 . S
C1790 C1789 1.523 . S
C1791 C1775 1.429 . S
C1791 C1787 1.429 . S
C1791 C1792 1.523 . S
C1792 C1776 1.368 . S
C1792 C1788 1.368 . S
C1792 C1791 1.523 . S
H1793 C1768 0.950 . S
H1794 C1770 0.950 . S
H1795 C1771 0.949 . S
H1796 C1773 0.950 . S
H1797 C1775 0.950 . S
C1798 C1799 1.349 . S
C1798 C1800 1.327 . S
C1798 H1823 0.950 . S
C1799 C1798 1.349 . S
C1799 C1815 1.349 . S
C1800 C1798 1.327 . S
C1800 C1819 1.429 . S
C1800 H1824 0.950 . S
C1801 C1818 1.574 . S
C1801 C1820 1.368 . S
C1801 H1825 0.949 . S
H1802 C1806 0.949 . S
C1803 C1804 1.349 . S
C1803 C1805 1.327 . S
C1803 H1826 0.950 . S
C1804 C1803 1.349 . S
C1804 C1816 1.349 . S
C1805 C1803 1.327 . S
C1805 C1821 1.429 . S
C1805 H1827 0.950 . S
C1806 H1802 0.949 . S
C1806 C1814 1.574 . S
C1806 C1822 1.368 . S
H1807 C1815 0.950 . S
H1808 C1813 0.950 . S
H1809 C1814 0.949 . S
H1810 C1816 0.950 . S
H1811 C1817 0.950 . S
H1812 C1818 0.949 . S
C1813 H1808 0.950 . S
C1813 C1815 1.327 . S
C1813 C1819 1.429 . S
C1814 C1806 1.574 . S
C1814 H1809 0.949 . S
C1814 C1820 1.368 . S
C1815 C1799 1.349 . S
C1815 H1807 0.950 . S
C1815 C1813 1.327 . S
C1816 C1804 1.349 . S
C1816 H1810 0.950 . S
C1816 C1817 1.327 . S
C1817 H1811 0.950 . S
C1817 C1816 1.327 . S
C1817 C1821 1.429 . S
C1818 C1801 1.574 . S
C1818 H1812 0.949 . S
C1818 C1822 1.368 . S
C1819 C1800 1.429 . S
C1819 C1813 1.429 . S
C1819 C1820 1.523 . S
C1820 C1801 1.368 . S
C1820 C1814 1.368 . S
C1820 C1819 1.523 . S
C1821 C1805 1.429 . S
C1821 C1817 1.429 . S
C1821 C1822 1.523 . S
C1822 C1806 1.368 . S
C1822 C1818 1.368 . S
C1822 C1821 1.523 . S
H1823 C1798 0.950 . S
H1824 C1800 0.950 . S
H1825 C1801 0.949 . S
H1826 C1803 0.950 . S
H1827 C1805 0.950 . S
C1828 C1829 1.349 . S
C1828 C1830 1.327 . S
C1828 H1853 0.950 . S
C1829 C1828 1.349 . S
C1829 C1845 1.349 . S
C1830 C1828 1.327 . S
C1830 C1849 1.429 . S
C1830 H1854 0.950 . S
C1831 C1848 1.574 . S
C1831 C1850 1.368 . S
C1831 H1855 0.949 . S
H1832 C1836 0.949 . S
C1833 C1834 1.349 . S
C1833 C1835 1.327 . S
C1833 H1856 0.950 . S
C1834 C1833 1.349 . S
C1834 C1846 1.349 . S
C1835 C1833 1.327 . S
C1835 C1851 1.429 . S
C1835 H1857 0.950 . S
C1836 H1832 0.949 . S
C1836 C1844 1.574 . S
C1836 C1852 1.368 . S
H1837 C1845 0.950 . S
H1838 C1843 0.950 . S
H1839 C1844 0.949 . S
H1840 C1846 0.950 . S
H1841 C1847 0.950 . S
H1842 C1848 0.949 . S
C1843 H1838 0.950 . S
C1843 C1845 1.327 . S
C1843 C1849 1.429 . S
C1844 C1836 1.574 . S
C1844 H1839 0.949 . S
C1844 C1850 1.368 . S
C1845 C1829 1.349 . S
C1845 H1837 0.950 . S
C1845 C1843 1.327 . S
C1846 C1834 1.349 . S
C1846 H1840 0.950 . S
C1846 C1847 1.327 . S
C1847 H1841 0.950 . S
C1847 C1846 1.327 . S
C1847 C1851 1.429 . S
C1848 C1831 1.574 . S
C1848 H1842 0.949 . S
C1848 C1852 1.368 . S
C1849 C1830 1.429 . S
C1849 C1843 1.429 . S
C1849 C1850 1.523 . S
C1850 C1831 1.368 . S
C1850 C1844 1.368 . S
C1850 C1849 1.523 . S
C1851 C1835 1.429 . S
C1851 C1847 1.429 . S
C1851 C1852 1.523 . S
C1852 C1836 1.368 . S
C1852 C1848 1.368 . S
C1852 C1851 1.523 . S
H1853 C1828 0.950 . S
H1854 C1830 0.950 . S
H1855 C1831 0.949 . S
H1856 C1833 0.950 . S
H1857 C1835 0.950 . S
C1858 C1859 1.349 . S
C1858 C1860 1.327 . S
C1858 H1883 0.950 . S
C1859 C1858 1.349 . S
C1859 C1875 1.349 . S
C1860 C1858 1.327 . S
C1860 C1879 1.429 . S
C1860 H1884 0.950 . S
C1861 C1878 1.574 . S
C1861 C1880 1.368 . S
C1861 H1885 0.949 . S
H1862 C1866 0.949 . S
C1863 C1864 1.349 . S
C1863 C1865 1.327 . S
C1863 H1886 0.950 . S
C1864 C1863 1.349 . S
C1864 C1876 1.349 . S
C1865 C1863 1.327 . S
C1865 C1881 1.429 . S
C1865 H1887 0.950 . S
C1866 H1862 0.949 . S
C1866 C1874 1.574 . S
C1866 C1882 1.368 . S
H1867 C1875 0.950 . S
H1868 C1873 0.950 . S
H1869 C1874 0.949 . S
H1870 C1876 0.950 . S
H1871 C1877 0.950 . S
H1872 C1878 0.949 . S
C1873 H1868 0.950 . S
C1873 C1875 1.327 . S
C1873 C1879 1.429 . S
C1874 C1866 1.574 . S
C1874 H1869 0.949 . S
C1874 C1880 1.368 . S
C1875 C1859 1.349 . S
C1875 H1867 0.950 . S
C1875 C1873 1.327 . S
C1876 C1864 1.349 . S
C1876 H1870 0.950 . S
C1876 C1877 1.327 . S
C1877 H1871 0.950 . S
C1877 C1876 1.327 . S
C1877 C1881 1.429 . S
C1878 C1861 1.574 . S
C1878 H1872 0.949 . S
C1878 C1882 1.368 . S
C1879 C1860 1.429 . S
C1879 C1873 1.429 . S
C1879 C1880 1.523 . S
C1880 C1861 1.368 . S
C1880 C1874 1.368 . S
C1880 C1879 1.523 . S
C1881 C1865 1.429 . S
C1881 C1877 1.429 . S
C1881 C1882 1.523 . S
C1882 C1866 1.368 . S
C1882 C1878 1.368 . S
C1882 C1881 1.523 . S
H1883 C1858 0.950 . S
H1884 C1860 0.950 . S
H1885 C1861 0.949 . S
H1886 C1863 0.950 . S
H1887 C1865 0.950 . S
C1888 C1889 1.349 . S
C1888 C1890 1.327 . S
C1888 H1913 0.950 . S
C1889 C1888 1.349 . S
C1889 C1905 1.349 . S
C1890 C1888 1.327 . S
C1890 C1909 1.429 . S
C1890 H1914 0.950 . S
C1891 C1908 1.574 . S
C1891 C1910 1.368 . S
C1891 H1915 0.949 . S
H1892 C1896 0.949 . S
C1893 C1894 1.349 . S
C1893 C1895 1.327 . S
C1893 H1916 0.950 . S
C1894 C1893 1.349 . S
C1894 C1906 1.349 . S
C1895 C1893 1.327 . S
C1895 C1911 1.429 . S
C1895 H1917 0.950 . S
C1896 H1892 0.949 . S
C1896 C1904 1.574 . S
C1896 C1912 1.368 . S
H1897 C1905 0.950 . S
H1898 C1903 0.950 . S
H1899 C1904 0.949 . S
H1900 C1906 0.950 . S
H1901 C1907 0.950 . S
H1902 C1908 0.949 . S
C1903 H1898 0.950 . S
C1903 C1905 1.327 . S
C1903 C1909 1.429 . S
C1904 C1896 1.574 . S
C1904 H1899 0.949 . S
C1904 C1910 1.368 . S
C1905 C1889 1.349 . S
C1905 H1897 0.950 . S
C1905 C1903 1.327 . S
C1906 C1894 1.349 . S
C1906 H1900 0.950 . S
C1906 C1907 1.327 . S
C1907 H1901 0.950 . S
C1907 C1906 1.327 . S
C1907 C1911 1.429 . S
C1908 C1891 1.574 . S
C1908 H1902 0.949 . S
C1908 C1912 1.368 . S
C1909 C1890 1.429 . S
C1909 C1903 1.429 . S
C1909 C1910 1.523 . S
C1910 C1891 1.368 . S
C1910 C1904 1.368 . S
C1910 C1909 1.523 . S
C1911 C1895 1.429 . S
C1911 C1907 1.429 . S
C1911 C1912 1.523 . S
C1912 C1896 1.368 . S
C1912 C1908 1.368 . S
C1912 C1911 1.523 . S
H1913 C1888 0.950 . S
H1914 C1890 0.950 . S
H1915 C1891 0.949 . S
H1916 C1893 0.950 . S
H1917 C1895 0.950 . S
C1918 C1919 1.349 . S
C1918 C1920 1.327 . S
C1918 H1943 0.950 . S
C1919 C1918 1.349 . S
C1919 C1935 1.349 . S
C1920 C1918 1.327 . S
C1920 C1939 1.429 . S
C1920 H1944 0.950 . S
C1921 C1938 1.574 . S
C1921 C1940 1.368 . S
C1921 H1945 0.949 . S
H1922 C1926 0.949 . S
C1923 C1924 1.349 . S
C1923 C1925 1.327 . S
C1923 H1946 0.950 . S
C1924 C1923 1.349 . S
C1924 C1936 1.349 . S
C1925 C1923 1.327 . S
C1925 C1941 1.429 . S
C1925 H1947 0.950 . S
C1926 H1922 0.949 . S
C1926 C1934 1.574 . S
C1926 C1942 1.368 . S
H1927 C1935 0.950 . S
H1928 C1933 0.950 . S
H1929 C1934 0.949 . S
H1930 C1936 0.950 . S
H1931 C1937 0.950 . S
H1932 C1938 0.949 . S
C1933 H1928 0.950 . S
C1933 C1935 1.327 . S
C1933 C1939 1.429 . S
C1934 C1926 1.574 . S
C1934 H1929 0.949 . S
C1934 C1940 1.368 . S
C1935 C1919 1.349 . S
C1935 H1927 0.950 . S
C1935 C1933 1.327 . S
C1936 C1924 1.349 . S
C1936 H1930 0.950 . S
C1936 C1937 1.327 . S
C1937 H1931 0.950 . S
C1937 C1936 1.327 . S
C1937 C1941 1.429 . S
C1938 C1921 1.574 . S
C1938 H1932 0.949 . S
C1938 C1942 1.368 . S
C1939 C1920 1.429 . S
C1939 C1933 1.429 . S
C1939 C1940 1.523 . S
C1940 C1921 1.368 . S
C1940 C1934 1.368 . S
C1940 C1939 1.523 . S
C1941 C1925 1.429 . S
C1941 C1937 1.429 . S
C1941 C1942 1.523 . S
C1942 C1926 1.368 . S
C1942 C1938 1.368 . S
C1942 C1941 1.523 . S
H1943 C1918 0.950 . S
H1944 C1920 0.950 . S
H1945 C1921 0.949 . S
H1946 C1923 0.950 . S
H1947 C1925 0.950 . S
C1948 C1949 1.349 . S
C1948 C1950 1.327 . S
C1948 H1973 0.950 . S
C1949 C1948 1.349 . S
C1949 C1965 1.349 . S
C1950 C1948 1.327 . S
C1950 C1969 1.429 . S
C1950 H1974 0.950 . S
C1951 C1968 1.574 . S
C1951 C1970 1.368 . S
C1951 H1975 0.949 . S
H1952 C1956 0.949 . S
C1953 C1954 1.349 . S
C1953 C1955 1.327 . S
C1953 H1976 0.950 . S
C1954 C1953 1.349 . S
C1954 C1966 1.349 . S
C1955 C1953 1.327 . S
C1955 C1971 1.429 . S
C1955 H1977 0.950 . S
C1956 H1952 0.949 . S
C1956 C1964 1.574 . S
C1956 C1972 1.368 . S
H1957 C1965 0.950 . S
H1958 C1963 0.950 . S
H1959 C1964 0.949 . S
H1960 C1966 0.950 . S
H1961 C1967 0.950 . S
H1962 C1968 0.949 . S
C1963 H1958 0.950 . S
C1963 C1965 1.327 . S
C1963 C1969 1.429 . S
C1964 C1956 1.574 . S
C1964 H1959 0.949 . S
C1964 C1970 1.368 . S
C1965 C1949 1.349 . S
C1965 H1957 0.950 . S
C1965 C1963 1.327 . S
C1966 C1954 1.349 . S
C1966 H1960 0.950 . S
C1966 C1967 1.327 . S
C1967 H1961 0.950 . S
C1967 C1966 1.327 . S
C1967 C1971 1.429 . S
C1968 C1951 1.574 . S
C1968 H1962 0.949 . S
C1968 C1972 1.368 . S
C1969 C1950 1.429 . S
C1969 C1963 1.429 . S
C1969 C1970 1.523 . S
C1970 C1951 1.368 . S
C1970 C1964 1.368 . S
C1970 C1969 1.523 . S
C1971 C1955 1.429 . S
C1971 C1967 1.429 . S
C1971 C1972 1.523 . S
C1972 C1956 1.368 . S
C1972 C1968 1.368 . S
C1972 C1971 1.523 . S
H1973 C1948 0.950 . S
H1974 C1950 0.950 . S
H1975 C1951 0.949 . S
H1976 C1953 0.950 . S
H1977 C1955 0.950 . S
C1978 C1979 1.349 . S
C1978 C1980 1.327 . S
C1978 H2003 0.950 . S
C1979 C1978 1.349 . S
C1979 C1995 1.349 . S
C1980 C1978 1.327 . S
C1980 C1999 1.429 . S
C1980 H2004 0.950 . S
C1981 C1998 1.574 . S
C1981 C2000 1.368 . S
C1981 H2005 0.949 . S
H1982 C1986 0.949 . S
C1983 C1984 1.349 . S
C1983 C1985 1.327 . S
C1983 H2006 0.950 . S
C1984 C1983 1.349 . S
C1984 C1996 1.349 . S
C1985 C1983 1.327 . S
C1985 C2001 1.429 . S
C1985 H2007 0.950 . S
C1986 H1982 0.949 . S
C1986 C1994 1.574 . S
C1986 C2002 1.368 . S
H1987 C1995 0.950 . S
H1988 C1993 0.950 . S
H1989 C1994 0.949 . S
H1990 C1996 0.950 . S
H1991 C1997 0.950 . S
H1992 C1998 0.949 . S
C1993 H1988 0.950 . S
C1993 C1995 1.327 . S
C1993 C1999 1.429 . S
C1994 C1986 1.574 . S
C1994 H1989 0.949 . S
C1994 C2000 1.368 . S
C1995 C1979 1.349 . S
C1995 H1987 0.950 . S
C1995 C1993 1.327 . S
C1996 C1984 1.349 . S
C1996 H1990 0.950 . S
C1996 C1997 1.327 . S
C1997 H1991 0.950 . S
C1997 C1996 1.327 . S
C1997 C2001 1.429 . S
C1998 C1981 1.574 . S
C1998 H1992 0.949 . S
C1998 C2002 1.368 . S
C1999 C1980 1.429 . S
C1999 C1993 1.429 . S
C1999 C2000 1.523 . S
C2000 C1981 1.368 . S
C2000 C1994 1.368 . S
C2000 C1999 1.523 . S
C2001 C1985 1.429 . S
C2001 C1997 1.429 . S
C2001 C2002 1.523 . S
C2002 C1986 1.368 . S
C2002 C1998 1.368 . S
C2002 C2001 1.523 . S
H2003 C1978 0.950 . S
H2004 C1980 0.950 . S
H2005 C1981 0.949 . S
H2006 C1983 0.950 . S
H2007 C1985 0.950 . S
C2008 C2009 1.349 . S
C2008 C2010 1.327 . S
C2008 H2033 0.950 . S
C2009 C2008 1.349 . S
C2009 C2025 1.349 . S
C2010 C2008 1.327 . S
C2010 C2029 1.429 . S
C2010 H2034 0.950 . S
C2011 C2028 1.574 . S
C2011 C2030 1.368 . S
C2011 H2035 0.949 . S
H2012 C2016 0.949 . S
C2013 C2014 1.349 . S
C2013 C2015 1.327 . S
C2013 H2036 0.950 . S
C2014 C2013 1.349 . S
C2014 C2026 1.349 . S
C2015 C2013 1.327 . S
C2015 C2031 1.429 . S
C2015 H2037 0.950 . S
C2016 H2012 0.949 . S
C2016 C2024 1.574 . S
C2016 C2032 1.368 . S
H2017 C2025 0.950 . S
H2018 C2023 0.950 . S
H2019 C2024 0.949 . S
H2020 C2026 0.950 . S
H2021 C2027 0.950 . S
H2022 C2028 0.949 . S
C2023 H2018 0.950 . S
C2023 C2025 1.327 . S
C2023 C2029 1.429 . S
C2024 C2016 1.574 . S
C2024 H2019 0.949 . S
C2024 C2030 1.368 . S
C2025 C2009 1.349 . S
C2025 H2017 0.950 . S
C2025 C2023 1.327 . S
C2026 C2014 1.349 . S
C2026 H2020 0.950 . S
C2026 C2027 1.327 . S
C2027 H2021 0.950 . S
C2027 C2026 1.327 . S
C2027 C2031 1.429 . S
C2028 C2011 1.574 . S
C2028 H2022 0.949 . S
C2028 C2032 1.368 . S
C2029 C2010 1.429 . S
C2029 C2023 1.429 . S
C2029 C2030 1.523 . S
C2030 C2011 1.368 . S
C2030 C2024 1.368 . S
C2030 C2029 1.523 . S
C2031 C2015 1.429 . S
C2031 C2027 1.429 . S
C2031 C2032 1.523 . S
C2032 C2016 1.368 . S
C2032 C2028 1.368 . S
C2032 C2031 1.523 . S
H2033 C2008 0.950 . S
H2034 C2010 0.950 . S
H2035 C2011 0.949 . S
H2036 C2013 0.950 . S
H2037 C2015 0.950 . S
C2038 C2039 1.349 . S
C2038 C2040 1.327 . S
C2038 H2063 0.950 . S
C2039 C2038 1.349 . S
C2039 C2055 1.349 . S
C2040 C2038 1.327 . S
C2040 C2059 1.429 . S
C2040 H2064 0.950 . S
C2041 C2058 1.574 . S
C2041 C2060 1.368 . S
C2041 H2065 0.949 . S
H2042 C2046 0.949 . S
C2043 C2044 1.349 . S
C2043 C2045 1.327 . S
C2043 H2066 0.950 . S
C2044 C2043 1.349 . S
C2044 C2056 1.349 . S
C2045 C2043 1.327 . S
C2045 C2061 1.429 . S
C2045 H2067 0.950 . S
C2046 H2042 0.949 . S
C2046 C2054 1.574 . S
C2046 C2062 1.368 . S
H2047 C2055 0.950 . S
H2048 C2053 0.950 . S
H2049 C2054 0.949 . S
H2050 C2056 0.950 . S
H2051 C2057 0.950 . S
H2052 C2058 0.949 . S
C2053 H2048 0.950 . S
C2053 C2055 1.327 . S
C2053 C2059 1.429 . S
C2054 C2046 1.574 . S
C2054 H2049 0.949 . S
C2054 C2060 1.368 . S
C2055 C2039 1.349 . S
C2055 H2047 0.950 . S
C2055 C2053 1.327 . S
C2056 C2044 1.349 . S
C2056 H2050 0.950 . S
C2056 C2057 1.327 . S
C2057 H2051 0.950 . S
C2057 C2056 1.327 . S
C2057 C2061 1.429 . S
C2058 C2041 1.574 . S
C2058 H2052 0.949 . S
C2058 C2062 1.368 . S
C2059 C2040 1.429 . S
C2059 C2053 1.429 . S
C2059 C2060 1.523 . S
C2060 C2041 1.368 . S
C2060 C2054 1.368 . S
C2060 C2059 1.523 . S
C2061 C2045 1.429 . S
C2061 C2057 1.429 . S
C2061 C2062 1.523 . S
C2062 C2046 1.368 . S
C2062 C2058 1.368 . S
C2062 C2061 1.523 . S
H2063 C2038 0.950 . S
H2064 C2040 0.950 . S
H2065 C2041 0.949 . S
H2066 C2043 0.950 . S
H2067 C2045 0.950 . S
C2068 C2069 1.349 . S
C2068 C2070 1.327 . S
C2068 H2093 0.950 . S
C2069 C2068 1.349 . S
C2069 C2085 1.349 . S
C2070 C2068 1.327 . S
C2070 C2089 1.429 . S
C2070 H2094 0.950 . S
C2071 C2088 1.574 . S
C2071 C2090 1.368 . S
C2071 H2095 0.949 . S
H2072 C2076 0.949 . S
C2073 C2074 1.349 . S
C2073 C2075 1.327 . S
C2073 H2096 0.950 . S
C2074 C2073 1.349 . S
C2074 C2086 1.349 . S
C2075 C2073 1.327 . S
C2075 C2091 1.429 . S
C2075 H2097 0.950 . S
C2076 H2072 0.949 . S
C2076 C2084 1.574 . S
C2076 C2092 1.368 . S
H2077 C2085 0.950 . S
H2078 C2083 0.950 . S
H2079 C2084 0.949 . S
H2080 C2086 0.950 . S
H2081 C2087 0.950 . S
H2082 C2088 0.949 . S
C2083 H2078 0.950 . S
C2083 C2085 1.327 . S
C2083 C2089 1.429 . S
C2084 C2076 1.574 . S
C2084 H2079 0.949 . S
C2084 C2090 1.368 . S
C2085 C2069 1.349 . S
C2085 H2077 0.950 . S
C2085 C2083 1.327 . S
C2086 C2074 1.349 . S
C2086 H2080 0.950 . S
C2086 C2087 1.327 . S
C2087 H2081 0.950 . S
C2087 C2086 1.327 . S
C2087 C2091 1.429 . S
C2088 C2071 1.574 . S
C2088 H2082 0.949 . S
C2088 C2092 1.368 . S
C2089 C2070 1.429 . S
C2089 C2083 1.429 . S
C2089 C2090 1.523 . S
C2090 C2071 1.368 . S
C2090 C2084 1.368 . S
C2090 C2089 1.523 . S
C2091 C2075 1.429 . S
C2091 C2087 1.429 . S
C2091 C2092 1.523 . S
C2092 C2076 1.368 . S
C2092 C2088 1.368 . S
C2092 C2091 1.523 . S
H2093 C2068 0.950 . S
H2094 C2070 0.950 . S
H2095 C2071 0.949 . S
H2096 C2073 0.950 . S
H2097 C2075 0.950 . S
C2098 C2099 1.349 . S
C2098 C2100 1.327 . S
C2098 H2123 0.950 . S
C2099 C2098 1.349 . S
C2099 C2115 1.349 . S
C2100 C2098 1.327 . S
C2100 C2119 1.429 . S
C2100 H2124 0.950 . S
C2101 C2118 1.574 . S
C2101 C2120 1.368 . S
C2101 H2125 0.949 . S
H2102 C2106 0.949 . S
C2103 C2104 1.349 . S
C2103 C2105 1.327 . S
C2103 H2126 0.950 . S
C2104 C2103 1.349 . S
C2104 C2116 1.349 . S
C2105 C2103 1.327 . S
C2105 C2121 1.429 . S
C2105 H2127 0.950 . S
C2106 H2102 0.949 . S
C2106 C2114 1.574 . S
C2106 C2122 1.368 . S
H2107 C2115 0.950 . S
H2108 C2113 0.950 . S
H2109 C2114 0.949 . S
H2110 C2116 0.950 . S
H2111 C2117 0.950 . S
H2112 C2118 0.949 . S
C2113 H2108 0.950 . S
C2113 C2115 1.327 . S
C2113 C2119 1.429 . S
C2114 C2106 1.574 . S
C2114 H2109 0.949 . S
C2114 C2120 1.368 . S
C2115 C2099 1.349 . S
C2115 H2107 0.950 . S
C2115 C2113 1.327 . S
C2116 C2104 1.349 . S
C2116 H2110 0.950 . S
C2116 C2117 1.327 . S
C2117 H2111 0.950 . S
C2117 C2116 1.327 . S
C2117 C2121 1.429 . S
C2118 C2101 1.574 . S
C2118 H2112 0.949 . S
C2118 C2122 1.368 . S
C2119 C2100 1.429 . S
C2119 C2113 1.429 . S
C2119 C2120 1.523 . S
C2120 C2101 1.368 . S
C2120 C2114 1.368 . S
C2120 C2119 1.523 . S
C2121 C2105 1.429 . S
C2121 C2117 1.429 . S
C2121 C2122 1.523 . S
C2122 C2106 1.368 . S
C2122 C2118 1.368 . S
C2122 C2121 1.523 . S
H2123 C2098 0.950 . S
H2124 C2100 0.950 . S
H2125 C2101 0.949 . S
H2126 C2103 0.950 . S
H2127 C2105 0.950 . S
C2128 C2129 1.349 . S
C2128 C2130 1.327 . S
C2128 H2153 0.950 . S
C2129 C2128 1.349 . S
C2129 C2145 1.349 . S
C2130 C2128 1.327 . S
C2130 C2149 1.429 . S
C2130 H2154 0.950 . S
C2131 C2148 1.574 1_545 S
C2131 C2150 1.368 . S
C2131 H2155 0.949 . S
H2132 C2136 0.949 . S
C2133 C2134 1.349 . S
C2133 C2135 1.327 . S
C2133 H2156 0.950 . S
C2134 C2133 1.349 . S
C2134 C2146 1.349 . S
C2135 C2133 1.327 . S
C2135 C2151 1.429 . S
C2135 H2157 0.950 . S
C2136 H2132 0.949 . S
C2136 C2144 1.574 1_565 S
C2136 C2152 1.368 . S
H2137 C2145 0.950 . S
H2138 C2143 0.950 . S
H2139 C2144 0.949 . S
H2140 C2146 0.950 . S
H2141 C2147 0.950 . S
H2142 C2148 0.949 . S
C2143 H2138 0.950 . S
C2143 C2145 1.327 . S
C2143 C2149 1.429 . S
C2144 C2136 1.574 1_545 S
C2144 H2139 0.949 . S
C2144 C2150 1.368 . S
C2145 C2129 1.349 . S
C2145 H2137 0.950 . S
C2145 C2143 1.327 . S
C2146 C2134 1.349 . S
C2146 H2140 0.950 . S
C2146 C2147 1.327 . S
C2147 H2141 0.950 . S
C2147 C2146 1.327 . S
C2147 C2151 1.429 . S
C2148 C2131 1.574 1_565 S
C2148 H2142 0.949 . S
C2148 C2152 1.368 . S
C2149 C2130 1.429 . S
C2149 C2143 1.429 . S
C2149 C2150 1.523 . S
C2150 C2131 1.368 . S
C2150 C2144 1.368 . S
C2150 C2149 1.523 . S
C2151 C2135 1.429 . S
C2151 C2147 1.429 . S
C2151 C2152 1.523 . S
C2152 C2136 1.368 . S
C2152 C2148 1.368 . S
C2152 C2151 1.523 . S
H2153 C2128 0.950 . S
H2154 C2130 0.950 . S
H2155 C2131 0.949 . S
H2156 C2133 0.950 . S
H2157 C2135 0.950 . S
C2158 C2159 1.349 . S
C2158 C2160 1.327 . S
C2158 H2183 0.950 . S
C2159 C2158 1.349 . S
C2159 C2175 1.349 . S
C2160 C2158 1.327 . S
C2160 C2179 1.429 . S
C2160 H2184 0.950 . S
C2161 C2178 1.574 1_655 S
C2161 C2180 1.368 . S
C2161 H2185 0.949 . S
H2162 C2166 0.949 . S
C2163 C2164 1.349 . S
C2163 C2165 1.327 . S
C2163 H2186 0.950 . S
C2164 C2163 1.349 . S
C2164 C2176 1.349 . S
C2165 C2163 1.327 . S
C2165 C2181 1.429 . S
C2165 H2187 0.950 . S
C2166 H2162 0.949 . S
C2166 C2174 1.574 1_455 S
C2166 C2182 1.368 . S
H2167 C2175 0.950 . S
H2168 C2173 0.950 . S
H2169 C2174 0.949 . S
H2170 C2176 0.950 . S
H2171 C2177 0.950 . S
H2172 C2178 0.949 . S
C2173 H2168 0.950 . S
C2173 C2175 1.327 . S
C2173 C2179 1.429 . S
C2174 C2166 1.574 1_655 S
C2174 H2169 0.949 . S
C2174 C2180 1.368 . S
C2175 C2159 1.349 . S
C2175 H2167 0.950 . S
C2175 C2173 1.327 . S
C2176 C2164 1.349 . S
C2176 H2170 0.950 . S
C2176 C2177 1.327 . S
C2177 H2171 0.950 . S
C2177 C2176 1.327 . S
C2177 C2181 1.429 . S
C2178 C2161 1.574 1_455 S
C2178 H2172 0.949 . S
C2178 C2182 1.368 . S
C2179 C2160 1.429 . S
C2179 C2173 1.429 . S
C2179 C2180 1.523 . S
C2180 C2161 1.368 . S
C2180 C2174 1.368 . S
C2180 C2179 1.523 . S
C2181 C2165 1.429 . S
C2181 C2177 1.429 . S
C2181 C2182 1.523 . S
C2182 C2166 1.368 . S
C2182 C2178 1.368 . S
C2182 C2181 1.523 . S
H2183 C2158 0.950 . S
H2184 C2160 0.950 . S
H2185 C2161 0.949 . S
H2186 C2163 0.950 . S
H2187 C2165 0.950 . S
C2188 C2189 1.349 . S
C2188 C2190 1.327 . S
C2188 H2213 0.950 . S
C2189 C2188 1.349 . S
C2189 C2205 1.349 . S
C2190 C2188 1.327 . S
C2190 C2209 1.429 . S
C2190 H2214 0.950 . S
C2191 C2208 1.574 1_545 S
C2191 C2210 1.368 . S
C2191 H2215 0.949 . S
H2192 C2196 0.949 . S
C2193 C2194 1.349 . S
C2193 C2195 1.327 . S
C2193 H2216 0.950 . S
C2194 C2193 1.349 . S
C2194 C2206 1.349 . S
C2195 C2193 1.327 . S
C2195 C2211 1.429 . S
C2195 H2217 0.950 . S
C2196 H2192 0.949 . S
C2196 C2204 1.574 1_565 S
C2196 C2212 1.368 . S
H2197 C2205 0.950 . S
H2198 C2203 0.950 . S
H2199 C2204 0.949 . S
H2200 C2206 0.950 . S
H2201 C2207 0.950 . S
H2202 C2208 0.949 . S
C2203 H2198 0.950 . S
C2203 C2205 1.327 . S
C2203 C2209 1.429 . S
C2204 C2196 1.574 1_545 S
C2204 H2199 0.949 . S
C2204 C2210 1.368 . S
C2205 C2189 1.349 . S
C2205 H2197 0.950 . S
C2205 C2203 1.327 . S
C2206 C2194 1.349 . S
C2206 H2200 0.950 . S
C2206 C2207 1.327 . S
C2207 H2201 0.950 . S
C2207 C2206 1.327 . S
C2207 C2211 1.429 . S
C2208 C2191 1.574 1_565 S
C2208 H2202 0.949 . S
C2208 C2212 1.368 . S
C2209 C2190 1.429 . S
C2209 C2203 1.429 . S
C2209 C2210 1.523 . S
C2210 C2191 1.368 . S
C2210 C2204 1.368 . S
C2210 C2209 1.523 . S
C2211 C2195 1.429 . S
C2211 C2207 1.429 . S
C2211 C2212 1.523 . S
C2212 C2196 1.368 . S
C2212 C2208 1.368 . S
C2212 C2211 1.523 . S
H2213 C2188 0.950 . S
H2214 C2190 0.950 . S
H2215 C2191 0.949 . S
H2216 C2193 0.950 . S
H2217 C2195 0.950 . S
C2218 C2219 1.349 . S
C2218 C2220 1.327 . S
C2218 H2243 0.950 . S
C2219 C2218 1.349 . S
C2219 C2235 1.349 . S
C2220 C2218 1.327 . S
C2220 C2239 1.429 . S
C2220 H2244 0.950 . S
C2221 C2238 1.574 1_455 S
C2221 C2240 1.368 . S
C2221 H2245 0.949 . S
H2222 C2226 0.949 . S
C2223 C2224 1.349 . S
C2223 C2225 1.327 . S
C2223 H2246 0.950 . S
C2224 C2223 1.349 . S
C2224 C2236 1.349 . S
C2225 C2223 1.327 . S
C2225 C2241 1.429 . S
C2225 H2247 0.950 . S
C2226 H2222 0.949 . S
C2226 C2234 1.574 1_655 S
C2226 C2242 1.368 . S
H2227 C2235 0.950 . S
H2228 C2233 0.950 . S
H2229 C2234 0.949 . S
H2230 C2236 0.950 . S
H2231 C2237 0.950 . S
H2232 C2238 0.949 . S
C2233 H2228 0.950 . S
C2233 C2235 1.327 . S
C2233 C2239 1.429 . S
C2234 C2226 1.574 1_455 S
C2234 H2229 0.949 . S
C2234 C2240 1.368 . S
C2235 C2219 1.349 . S
C2235 H2227 0.950 . S
C2235 C2233 1.327 . S
C2236 C2224 1.349 . S
C2236 H2230 0.950 . S
C2236 C2237 1.327 . S
C2237 H2231 0.950 . S
C2237 C2236 1.327 . S
C2237 C2241 1.429 . S
C2238 C2221 1.574 1_655 S
C2238 H2232 0.949 . S
C2238 C2242 1.368 . S
C2239 C2220 1.429 . S
C2239 C2233 1.429 . S
C2239 C2240 1.523 . S
C2240 C2221 1.368 . S
C2240 C2234 1.368 . S
C2240 C2239 1.523 . S
C2241 C2225 1.429 . S
C2241 C2237 1.429 . S
C2241 C2242 1.523 . S
C2242 C2226 1.368 . S
C2242 C2238 1.368 . S
C2242 C2241 1.523 . S
H2243 C2218 0.950 . S
H2244 C2220 0.950 . S
H2245 C2221 0.949 . S
H2246 C2223 0.950 . S
H2247 C2225 0.950 . S
C2248 C2249 1.349 . S
C2248 C2250 1.327 . S
C2248 H2273 0.950 . S
C2249 C2248 1.349 . S
C2249 C2265 1.349 . S
C2250 C2248 1.327 . S
C2250 C2269 1.429 . S
C2250 H2274 0.950 . S
C2251 C2268 1.574 1_545 S
C2251 C2270 1.368 . S
C2251 H2275 0.949 . S
H2252 C2256 0.949 . S
C2253 C2254 1.349 . S
C2253 C2255 1.327 . S
C2253 H2276 0.950 . S
C2254 C2253 1.349 . S
C2254 C2266 1.349 . S
C2255 C2253 1.327 . S
C2255 C2271 1.429 . S
C2255 H2277 0.950 . S
C2256 H2252 0.949 . S
C2256 C2264 1.574 1_565 S
C2256 C2272 1.368 . S
H2257 C2265 0.950 . S
H2258 C2263 0.950 . S
H2259 C2264 0.949 . S
H2260 C2266 0.950 . S
H2261 C2267 0.950 . S
H2262 C2268 0.949 . S
C2263 H2258 0.950 . S
C2263 C2265 1.327 . S
C2263 C2269 1.429 . S
C2264 C2256 1.574 1_545 S
C2264 H2259 0.949 . S
C2264 C2270 1.368 . S
C2265 C2249 1.349 . S
C2265 H2257 0.950 . S
C2265 C2263 1.327 . S
C2266 C2254 1.349 . S
C2266 H2260 0.950 . S
C2266 C2267 1.327 . S
C2267 H2261 0.950 . S
C2267 C2266 1.327 . S
C2267 C2271 1.429 . S
C2268 C2251 1.574 1_565 S
C2268 H2262 0.949 . S
C2268 C2272 1.368 . S
C2269 C2250 1.429 . S
C2269 C2263 1.429 . S
C2269 C2270 1.523 . S
C2270 C2251 1.368 . S
C2270 C2264 1.368 . S
C2270 C2269 1.523 . S
C2271 C2255 1.429 . S
C2271 C2267 1.429 . S
C2271 C2272 1.523 . S
C2272 C2256 1.368 . S
C2272 C2268 1.368 . S
C2272 C2271 1.523 . S
H2273 C2248 0.950 . S
H2274 C2250 0.950 . S
H2275 C2251 0.949 . S
H2276 C2253 0.950 . S
H2277 C2255 0.950 . S
C2278 C2279 1.349 . S
C2278 C2280 1.327 . S
C2278 H2303 0.950 . S
C2279 C2278 1.349 . S
C2279 C2295 1.349 . S
C2280 C2278 1.327 . S
C2280 C2299 1.429 . S
C2280 H2304 0.950 . S
C2281 C2298 1.574 1_655 S
C2281 C2300 1.368 . S
C2281 H2305 0.949 . S
H2282 C2286 0.949 . S
C2283 C2284 1.349 . S
C2283 C2285 1.327 . S
C2283 H2306 0.950 . S
C2284 C2283 1.349 . S
C2284 C2296 1.349 . S
C2285 C2283 1.327 . S
C2285 C2301 1.429 . S
C2285 H2307 0.950 . S
C2286 H2282 0.949 . S
C2286 C2294 1.574 1_455 S
C2286 C2302 1.368 . S
H2287 C2295 0.950 . S
H2288 C2293 0.950 . S
H2289 C2294 0.949 . S
H2290 C2296 0.950 . S
H2291 C2297 0.950 . S
H2292 C2298 0.949 . S
C2293 H2288 0.950 . S
C2293 C2295 1.327 . S
C2293 C2299 1.429 . S
C2294 C2286 1.574 1_655 S
C2294 H2289 0.949 . S
C2294 C2300 1.368 . S
C2295 C2279 1.349 . S
C2295 H2287 0.950 . S
C2295 C2293 1.327 . S
C2296 C2284 1.349 . S
C2296 H2290 0.950 . S
C2296 C2297 1.327 . S
C2297 H2291 0.950 . S
C2297 C2296 1.327 . S
C2297 C2301 1.429 . S
C2298 C2281 1.574 1_455 S
C2298 H2292 0.949 . S
C2298 C2302 1.368 . S
C2299 C2280 1.429 . S
C2299 C2293 1.429 . S
C2299 C2300 1.523 . S
C2300 C2281 1.368 . S
C2300 C2294 1.368 . S
C2300 C2299 1.523 . S
C2301 C2285 1.429 . S
C2301 C2297 1.429 . S
C2301 C2302 1.523 . S
C2302 C2286 1.368 . S
C2302 C2298 1.368 . S
C2302 C2301 1.523 . S
H2303 C2278 0.950 . S
H2304 C2280 0.950 . S
H2305 C2281 0.949 . S
H2306 C2283 0.950 . S
H2307 C2285 0.950 . S
C2308 C2309 1.349 . S
C2308 C2310 1.327 . S
C2308 H2333 0.950 . S
C2309 C2308 1.349 . S
C2309 C2325 1.349 . S
C2310 C2308 1.327 . S
C2310 C2329 1.429 . S
C2310 H2334 0.950 . S
C2311 C2328 1.574 1_565 S
C2311 C2330 1.368 . S
C2311 H2335 0.949 . S
H2312 C2316 0.949 . S
C2313 C2314 1.349 . S
C2313 C2315 1.327 . S
C2313 H2336 0.950 . S
C2314 C2313 1.349 . S
C2314 C2326 1.349 . S
C2315 C2313 1.327 . S
C2315 C2331 1.429 . S
C2315 H2337 0.950 . S
C2316 H2312 0.949 . S
C2316 C2324 1.574 1_545 S
C2316 C2332 1.368 . S
H2317 C2325 0.950 . S
H2318 C2323 0.950 . S
H2319 C2324 0.949 . S
H2320 C2326 0.950 . S
H2321 C2327 0.950 . S
H2322 C2328 0.949 . S
C2323 H2318 0.950 . S
C2323 C2325 1.327 . S
C2323 C2329 1.429 . S
C2324 C2316 1.574 1_565 S
C2324 H2319 0.949 . S
C2324 C2330 1.368 . S
C2325 C2309 1.349 . S
C2325 H2317 0.950 . S
C2325 C2323 1.327 . S
C2326 C2314 1.349 . S
C2326 H2320 0.950 . S
C2326 C2327 1.327 . S
C2327 H2321 0.950 . S
C2327 C2326 1.327 . S
C2327 C2331 1.429 . S
C2328 C2311 1.574 1_545 S
C2328 H2322 0.949 . S
C2328 C2332 1.368 . S
C2329 C2310 1.429 . S
C2329 C2323 1.429 . S
C2329 C2330 1.523 . S
C2330 C2311 1.368 . S
C2330 C2324 1.368 . S
C2330 C2329 1.523 . S
C2331 C2315 1.429 . S
C2331 C2327 1.429 . S
C2331 C2332 1.523 . S
C2332 C2316 1.368 . S
C2332 C2328 1.368 . S
C2332 C2331 1.523 . S
H2333 C2308 0.950 . S
H2334 C2310 0.950 . S
H2335 C2311 0.949 . S
H2336 C2313 0.950 . S
H2337 C2315 0.950 . S
C2338 C2339 1.349 . S
C2338 C2340 1.327 . S
C2338 H2363 0.950 . S
C2339 C2338 1.349 . S
C2339 C2355 1.349 . S
C2340 C2338 1.327 . S
C2340 C2359 1.429 . S
C2340 H2364 0.950 . S
C2341 C2358 1.574 1_455 S
C2341 C2360 1.368 . S
C2341 H2365 0.949 . S
H2342 C2346 0.949 . S
C2343 C2344 1.349 . S
C2343 C2345 1.327 . S
C2343 H2366 0.950 . S
C2344 C2343 1.349 . S
C2344 C2356 1.349 . S
C2345 C2343 1.327 . S
C2345 C2361 1.429 . S
C2345 H2367 0.950 . S
C2346 H2342 0.949 . S
C2346 C2354 1.574 1_655 S
C2346 C2362 1.368 . S
H2347 C2355 0.950 . S
H2348 C2353 0.950 . S
H2349 C2354 0.949 . S
H2350 C2356 0.950 . S
H2351 C2357 0.950 . S
H2352 C2358 0.949 . S
C2353 H2348 0.950 . S
C2353 C2355 1.327 . S
C2353 C2359 1.429 . S
C2354 C2346 1.574 1_455 S
C2354 H2349 0.949 . S
C2354 C2360 1.368 . S
C2355 C2339 1.349 . S
C2355 H2347 0.950 . S
C2355 C2353 1.327 . S
C2356 C2344 1.349 . S
C2356 H2350 0.950 . S
C2356 C2357 1.327 . S
C2357 H2351 0.950 . S
C2357 C2356 1.327 . S
C2357 C2361 1.429 . S
C2358 C2341 1.574 1_655 S
C2358 H2352 0.949 . S
C2358 C2362 1.368 . S
C2359 C2340 1.429 . S
C2359 C2353 1.429 . S
C2359 C2360 1.523 . S
C2360 C2341 1.368 . S
C2360 C2354 1.368 . S
C2360 C2359 1.523 . S
C2361 C2345 1.429 . S
C2361 C2357 1.429 . S
C2361 C2362 1.523 . S
C2362 C2346 1.368 . S
C2362 C2358 1.368 . S
C2362 C2361 1.523 . S
H2363 C2338 0.950 . S
H2364 C2340 0.950 . S
H2365 C2341 0.949 . S
H2366 C2343 0.950 . S
H2367 C2345 0.950 . S
C1409 C489 0.847 . S
C1414 C20 0.847 . S
C1439 C577 0.847 . S
C1444 C117 0.847 . S
C1469 C196 0.847 . S
C1474 C665 0.847 . S
C1499 C293 0.847 . S
C1504 C401 0.847 . S
C1529 C1173 0.847 . S
C1534 C753 0.847 . S
C1559 C1261 0.847 . S
C1564 C841 0.847 . S
C1589 C929 0.847 . S
C1594 C1349 0.847 . S
C1619 C1017 0.847 . S
C1624 C1085 0.847 . S
C1649 C909 1.505 . S
C1654 C57 1.505 . S
C1679 C997 1.505 . S
C1684 C137 1.505 . S
C1709 C733 1.505 . S
C1714 C233 1.505 . S
C1739 C313 1.505 . S
C1744 C821 1.505 . S
C1769 C1281 1.505 . S
C1774 C381 1.505 . S
C1799 C1369 1.505 . S
C1804 C469 1.505 . S
C1829 C557 1.505 . S
C1834 C1105 1.505 . S
C1859 C1193 1.505 . S
C1864 C645 1.505 . S
C1889 C409 1.362 . S
C1894 C29 1.362 . S
C1919 C108 1.362 . S
C1924 C497 1.362 . S
C1949 C205 1.362 . S
C1954 C585 1.362 . S
C1979 C673 1.362 . S
C1984 C284 1.362 . S
C2009 C724 1.404 . S
C2014 C1113 1.404 . S
C2039 C1201 1.404 . S
C2044 C812 1.404 . S
C2069 C900 1.404 . S
C2074 C1289 1.404 . S
C2099 C1377 1.404 . S
C2104 C988 1.404 . S
C2129 C1025 1.362 . S
C2134 C1164 1.362 . S
C2159 C761 1.362 . S
C2164 C1252 1.362 . S
C2189 C1340 1.362 . S
C2194 C849 1.362 . S
C2219 C937 1.362 . S
C2224 C1076 1.362 . S
C2249 C460 1.404 . S
C2254 C321 1.404 . S
C2279 C548 1.404 . S
C2284 C49 1.404 . S
C2309 C636 1.404 . S
C2314 C145 1.404 . S
C2339 C372 1.404 . S
C2344 C225 1.404 . S
