# Generated by pormake.
# Topology ana, (4)-cn, num edge types: 1
# Building blocks:
#     Node 0, Type 0, BuildingBlock: QUQFOY_clean_sbu_3, # of connection points: 4
#     Node 1, Type 0, BuildingBlock: QUQFOY_clean_sbu_3, # of connection points: 4
#     Node 2, Type 0, BuildingBlock: QUQFOY_clean_sbu_3, # of connection points: 4
#     Node 3, Type 0, BuildingBlock: QUQFOY_clean_sbu_3, # of connection points: 4
#     Node 4, Type 0, BuildingBlock: QUQFOY_clean_sbu_3, # of connection points: 4
#     Node 5, Type 0, BuildingBlock: QUQFOY_clean_sbu_3, # of connection points: 4
#     Node 6, Type 0, BuildingBlock: QUQFOY_clean_sbu_3, # of connection points: 4
#     Node 7, Type 0, BuildingBlock: QUQFOY_clean_sbu_3, # of connection points: 4
#     Node 8, Type 0, BuildingBlock: QUQFOY_clean_sbu_3, # of connection points: 4
#     Node 9, Type 0, BuildingBlock: QUQFOY_clean_sbu_3, # of connection points: 4
#     Node 10, Type 0, BuildingBlock: QUQFOY_clean_sbu_3, # of connection points: 4
#     Node 11, Type 0, BuildingBlock: QUQFOY_clean_sbu_3, # of connection points: 4
#     Node 12, Type 0, BuildingBlock: QUQFOY_clean_sbu_3, # of connection points: 4
#     Node 13, Type 0, BuildingBlock: QUQFOY_clean_sbu_3, # of connection points: 4
#     Node 14, Type 0, BuildingBlock: QUQFOY_clean_sbu_3, # of connection points: 4
#     Node 15, Type 0, BuildingBlock: QUQFOY_clean_sbu_3, # of connection points: 4
#     Node 16, Type 0, BuildingBlock: QUQFOY_clean_sbu_3, # of connection points: 4
#     Node 17, Type 0, BuildingBlock: QUQFOY_clean_sbu_3, # of connection points: 4
#     Node 18, Type 0, BuildingBlock: QUQFOY_clean_sbu_3, # of connection points: 4
#     Node 19, Type 0, BuildingBlock: QUQFOY_clean_sbu_3, # of connection points: 4
#     Node 20, Type 0, BuildingBlock: QUQFOY_clean_sbu_3, # of connection points: 4
#     Node 21, Type 0, BuildingBlock: QUQFOY_clean_sbu_3, # of connection points: 4
#     Node 22, Type 0, BuildingBlock: QUQFOY_clean_sbu_3, # of connection points: 4
#     Node 23, Type 0, BuildingBlock: QUQFOY_clean_sbu_3, # of connection points: 4
#     Node 24, Type 0, BuildingBlock: QUQFOY_clean_sbu_3, # of connection points: 4
#     Node 25, Type 0, BuildingBlock: QUQFOY_clean_sbu_3, # of connection points: 4
#     Node 26, Type 0, BuildingBlock: QUQFOY_clean_sbu_3, # of connection points: 4
#     Node 27, Type 0, BuildingBlock: QUQFOY_clean_sbu_3, # of connection points: 4
#     Node 28, Type 0, BuildingBlock: QUQFOY_clean_sbu_3, # of connection points: 4
#     Node 29, Type 0, BuildingBlock: QUQFOY_clean_sbu_3, # of connection points: 4
#     Node 30, Type 0, BuildingBlock: QUQFOY_clean_sbu_3, # of connection points: 4
#     Node 31, Type 0, BuildingBlock: QUQFOY_clean_sbu_3, # of connection points: 4
#     Node 32, Type 0, BuildingBlock: QUQFOY_clean_sbu_3, # of connection points: 4
#     Node 33, Type 0, BuildingBlock: QUQFOY_clean_sbu_3, # of connection points: 4
#     Node 34, Type 0, BuildingBlock: QUQFOY_clean_sbu_3, # of connection points: 4
#     Node 35, Type 0, BuildingBlock: QUQFOY_clean_sbu_3, # of connection points: 4
#     Node 36, Type 0, BuildingBlock: QUQFOY_clean_sbu_3, # of connection points: 4
#     Node 37, Type 0, BuildingBlock: QUQFOY_clean_sbu_3, # of connection points: 4
#     Node 38, Type 0, BuildingBlock: QUQFOY_clean_sbu_3, # of connection points: 4
#     Node 39, Type 0, BuildingBlock: QUQFOY_clean_sbu_3, # of connection points: 4
#     Node 40, Type 0, BuildingBlock: QUQFOY_clean_sbu_3, # of connection points: 4
#     Node 41, Type 0, BuildingBlock: QUQFOY_clean_sbu_3, # of connection points: 4
#     Node 42, Type 0, BuildingBlock: QUQFOY_clean_sbu_3, # of connection points: 4
#     Node 43, Type 0, BuildingBlock: QUQFOY_clean_sbu_3, # of connection points: 4
#     Node 44, Type 0, BuildingBlock: QUQFOY_clean_sbu_3, # of connection points: 4
#     Node 45, Type 0, BuildingBlock: QUQFOY_clean_sbu_3, # of connection points: 4
#     Node 46, Type 0, BuildingBlock: QUQFOY_clean_sbu_3, # of connection points: 4
#     Node 47, Type 0, BuildingBlock: QUQFOY_clean_sbu_3, # of connection points: 4
#     Edge 48, Type (0, 0), None
#     Edge 49, Type (0, 0), None
#     Edge 50, Type (0, 0), None
#     Edge 51, Type (0, 0), None
#     Edge 52, Type (0, 0), None
#     Edge 53, Type (0, 0), None
#     Edge 54, Type (0, 0), None
#     Edge 55, Type (0, 0), None
#     Edge 56, Type (0, 0), None
#     Edge 57, Type (0, 0), None
#     Edge 58, Type (0, 0), None
#     Edge 59, Type (0, 0), None
#     Edge 60, Type (0, 0), None
#     Edge 61, Type (0, 0), None
#     Edge 62, Type (0, 0), None
#     Edge 63, Type (0, 0), None
#     Edge 64, Type (0, 0), None
#     Edge 65, Type (0, 0), None
#     Edge 66, Type (0, 0), None
#     Edge 67, Type (0, 0), None
#     Edge 68, Type (0, 0), None
#     Edge 69, Type (0, 0), None
#     Edge 70, Type (0, 0), None
#     Edge 71, Type (0, 0), None
#     Edge 72, Type (0, 0), None
#     Edge 73, Type (0, 0), None
#     Edge 74, Type (0, 0), None
#     Edge 75, Type (0, 0), None
#     Edge 76, Type (0, 0), None
#     Edge 77, Type (0, 0), None
#     Edge 78, Type (0, 0), None
#     Edge 79, Type (0, 0), None
#     Edge 80, Type (0, 0), None
#     Edge 81, Type (0, 0), None
#     Edge 82, Type (0, 0), None
#     Edge 83, Type (0, 0), None
#     Edge 84, Type (0, 0), None
#     Edge 85, Type (0, 0), None
#     Edge 86, Type (0, 0), None
#     Edge 87, Type (0, 0), None
#     Edge 88, Type (0, 0), None
#     Edge 89, Type (0, 0), None
#     Edge 90, Type (0, 0), None
#     Edge 91, Type (0, 0), None
#     Edge 92, Type (0, 0), None
#     Edge 93, Type (0, 0), None
#     Edge 94, Type (0, 0), None
#     Edge 95, Type (0, 0), None
#     Edge 96, Type (0, 0), None
#     Edge 97, Type (0, 0), None
#     Edge 98, Type (0, 0), None
#     Edge 99, Type (0, 0), None
#     Edge 100, Type (0, 0), None
#     Edge 101, Type (0, 0), None
#     Edge 102, Type (0, 0), None
#     Edge 103, Type (0, 0), None
#     Edge 104, Type (0, 0), None
#     Edge 105, Type (0, 0), None
#     Edge 106, Type (0, 0), None
#     Edge 107, Type (0, 0), None
#     Edge 108, Type (0, 0), None
#     Edge 109, Type (0, 0), None
#     Edge 110, Type (0, 0), None
#     Edge 111, Type (0, 0), None
#     Edge 112, Type (0, 0), None
#     Edge 113, Type (0, 0), None
#     Edge 114, Type (0, 0), None
#     Edge 115, Type (0, 0), None
#     Edge 116, Type (0, 0), None
#     Edge 117, Type (0, 0), None
#     Edge 118, Type (0, 0), None
#     Edge 119, Type (0, 0), None
#     Edge 120, Type (0, 0), None
#     Edge 121, Type (0, 0), None
#     Edge 122, Type (0, 0), None
#     Edge 123, Type (0, 0), None
#     Edge 124, Type (0, 0), None
#     Edge 125, Type (0, 0), None
#     Edge 126, Type (0, 0), None
#     Edge 127, Type (0, 0), None
#     Edge 128, Type (0, 0), None
#     Edge 129, Type (0, 0), None
#     Edge 130, Type (0, 0), None
#     Edge 131, Type (0, 0), None
#     Edge 132, Type (0, 0), None
#     Edge 133, Type (0, 0), None
#     Edge 134, Type (0, 0), None
#     Edge 135, Type (0, 0), None
#     Edge 136, Type (0, 0), None
#     Edge 137, Type (0, 0), None
#     Edge 138, Type (0, 0), None
#     Edge 139, Type (0, 0), None
#     Edge 140, Type (0, 0), None
#     Edge 141, Type (0, 0), None
#     Edge 142, Type (0, 0), None
#     Edge 143, Type (0, 0), None
# Relax obj value: 0.104
# Max RMSD: 0.140
# Mean RMSD: 0.114
data_MOF--net-ana--node1-QUQFOY_clean_sbu_3--edge1-none
_symmetry_space_group_name_H-M    P1
_symmetry_Int_Tables_number       1
_symmetry_cell_setting            triclinic
loop_
_symmetry_equiv_pos_as_xyz
'x, y, z'
_cell_length_a     31.117137
_cell_length_b     32.248154
_cell_length_c     32.305295
_cell_angle_alpha  90.291942
_cell_angle_beta   90.66646
_cell_angle_gamma 93.093143
loop_
_atom_site_label
_atom_site_type_symbol
_atom_site_fract_x
_atom_site_fract_y
_atom_site_fract_z
_atom_type_partial_charge
C0 C 0.17577 0.06386 0.3409 0.0
O1 O 0.14896 0.03361 0.34732 0.0
Cd2 Cd 0.07526 0.04239 0.36706 0.0
O3 O 0.16467 0.10104 0.3442 0.0
Cd4 Cd 0.09867 0.13467 0.36213 0.0
C5 C 0.08574 0.09691 0.45745 0.0
O6 O 0.04006 0.09394 0.32698 0.0
O7 O 0.02507 0.13054 0.38083 0.0
O8 O 0.09677 0.19464 0.31676 0.0
C9 C 0.01188 0.10935 0.34973 0.0
O10 O 0.07431 0.06218 0.44063 0.0
C11 C 0.10709 0.21999 0.34589 0.0
O12 O 0.09969 0.12743 0.43594 0.0
O13 O 0.11623 0.20515 0.38091 0.0
C14 C 0.06649 0.85263 0.7286 0.0
O15 O 0.02893 0.86509 0.73395 0.0
Cd16 Cd -0.01919 0.88013 0.67872 0.0
O17 O 0.07997 0.84353 0.69295 0.0
Cd18 Cd 0.04975 0.83636 0.62322 0.0
C19 C 0.05297 0.93796 0.6189 0.0
O20 O -0.02368 0.81594 0.64331 0.0
O21 O -0.01319 0.82842 0.57839 0.0
O22 O 0.08672 0.7742 0.62578 0.0
C23 C 0.96175 0.81547 0.60664 0.0
O24 O 0.0188 0.93585 0.64027 0.0
C25 C 0.09435 0.77314 0.58731 0.0
O26 O 0.07275 0.90596 0.60963 0.0
O27 O 0.08497 0.80425 0.56577 0.0
C28 C 0.2731 0.83067 0.84438 0.0
O29 O 0.29622 0.86426 0.84569 0.0
Cd30 Cd 0.36924 0.86753 0.86913 0.0
O31 O 0.28866 0.79633 0.85407 0.0
Cd32 Cd 0.35954 0.77442 0.87745 0.0
C33 C 0.35203 0.82721 -0.03501 0.0
O34 O 0.4092 0.81573 0.83423 0.0
O35 O 0.43512 0.79185 0.89118 0.0
O36 O 0.35392 0.71233 0.83568 0.0
C37 C 0.44185 0.80805 0.85608 0.0
O38 O 0.36264 0.85959 0.94432 0.0
C39 C 0.36017 0.68786 0.86553 0.0
O40 O 0.3464 0.79204 0.94756 0.0
O41 O 0.36483 0.70352 0.90147 0.0
C42 C 0.39541 0.08494 0.22332 0.0
O43 O 0.43196 0.07356 0.21216 0.0
Cd44 Cd 0.4578 0.06837 0.14414 0.0
O45 O 0.36838 0.09877 0.19739 0.0
Cd46 Cd 0.36851 0.11641 0.1215 0.0
C47 C 0.36648 0.0152 0.10232 0.0
O48 O 0.44415 0.13454 0.12103 0.0
O49 O 0.4159 0.127 0.0604 0.0
O50 O 0.33597 0.18087 0.13796 0.0
C51 C 0.44887 0.13646 0.08245 0.0
O52 O 0.40622 0.01767 0.11255 0.0
C53 C 0.31543 0.1829 0.10388 0.0
O54 O 0.34319 0.04631 0.10461 0.0
O55 O 0.31576 0.15166 0.07988 0.0
C56 C 0.00846 0.86575 0.10289 0.0
O57 O 0.03241 0.87258 0.13444 0.0
Cd58 Cd 0.09903 0.83997 0.13992 0.0
O59 O 0.02195 0.84616 0.07189 0.0
Cd60 Cd 0.08943 0.81657 0.05183 0.0
C61 C 0.06528 0.73975 0.11536 0.0
O62 O 0.14791 0.85821 0.08477 0.0
O63 O 0.15862 0.7935 0.0719 0.0
O64 O 0.09605 0.85241 -0.01325 0.0
C65 C 0.17407 0.82968 0.08055 0.0
O66 O 0.07744 0.76554 0.14367 0.0
C67 C 0.09595 0.81936 -0.03473 0.0
O68 O 0.06482 0.75026 0.07761 0.0
O69 O 0.09078 0.78499 -0.01608 0.0
C70 C 0.4867 0.80921 0.27525 0.0
O71 O 0.47775 0.7879 0.24282 0.0
Cd72 Cd 0.40653 0.77835 0.21591 0.0
O73 O 0.45775 0.82694 0.29526 0.0
Cd74 Cd 0.38063 0.83942 0.29227 0.0
C75 C 0.35397 0.7391 0.30381 0.0
O76 O 0.38636 0.84726 0.21886 0.0
O77 O 0.3218 0.84872 0.2422 0.0
O78 O 0.4094 0.90463 0.32172 0.0
C79 C 0.34714 0.85252 0.21194 0.0
O80 O 0.36685 0.73622 0.26667 0.0
C81 C 0.37342 0.91552 0.33475 0.0
O82 O 0.35765 0.77325 0.32377 0.0
O83 O 0.34154 0.88946 0.33134 0.0
C84 C 0.41242 0.09935 0.61854 0.0
O85 O 0.38691 0.09558 0.64874 0.0
Cd86 Cd 0.31544 0.11734 0.63978 0.0
O87 O 0.3989 0.10774 0.58253 0.0
Cd88 Cd 0.33295 0.11936 0.54512 0.0
C89 C 0.34547 0.2096 0.59025 0.0
O90 O 0.27525 0.08515 0.58359 0.0
O91 O 0.26177 0.1417 0.55043 0.0
O92 O 0.33255 0.06354 0.49561 0.0
C93 C 0.24798 0.10982 0.57001 0.0
O94 O 0.33356 0.18949 0.62233 0.0
C95 C 0.33739 0.08716 0.46457 0.0
O96 O 0.34917 0.19198 0.55537 0.0
O97 O 0.34177 0.12602 0.47103 0.0
C98 C -0.02833 0.10211 0.82161 0.0
O99 O -0.03011 0.13075 0.79501 0.0
Cd100 Cd 0.02752 0.15676 0.75426 0.0
O101 O 0.00622 0.08414 0.82909 0.0
Cd102 Cd 0.08094 0.08892 0.80413 0.0
C103 C 0.09811 0.18633 0.83427 0.0
O104 O 0.05839 0.09569 0.73131 0.0
O105 O 0.12674 0.09915 0.74414 0.0
O106 O 0.06748 0.01675 0.82007 0.0
C107 C 0.09634 0.09881 0.71776 0.0
O108 O 0.07343 0.19342 0.80381 0.0
C109 C 0.10598 0.00969 0.82951 0.0
O110 O 0.10665 0.14968 0.84451 0.0
O111 O 0.13372 0.04 0.8283 0.0
C112 C 0.22105 0.40858 0.06512 0.0
O113 O 0.21981 0.4404 0.04219 0.0
Cd114 Cd 0.15653 0.4743 0.02265 0.0
O115 O 0.18714 0.392 0.08118 0.0
Cd116 Cd 0.1101 0.40817 0.0868 0.0
C117 C 0.09176 0.39006 -0.01302 0.0
O118 O 0.13014 0.48095 0.08949 0.0
O119 O 0.06182 0.46732 0.09171 0.0
O120 O 0.12486 0.37878 0.15296 0.0
C121 C 0.09302 0.49421 0.09225 0.0
O122 O 0.11187 0.42491 -0.01913 0.0
C123 C 0.0865 0.36564 0.1598 0.0
O124 O 0.08865 0.37458 0.02289 0.0
O125 O 0.05838 0.3713 0.13193 0.0
C126 C 0.72596 0.05047 0.8807 0.0
O127 O 0.72156 0.01427 0.89581 0.0
Cd128 Cd 0.65384 -0.02391 0.89608 0.0
O129 O 0.69559 0.06691 0.86132 0.0
Cd130 Cd 0.62345 0.04891 0.83571 0.0
C131 C 0.59133 0.05437 0.93204 0.0
O132 O 0.63485 -0.02325 0.82557 0.0
O133 O 0.56849 -0.00687 0.82204 0.0
O134 O 0.65165 0.07983 0.77301 0.0
C135 C 0.59594 0.96575 0.81856 0.0
O136 O 0.60699 0.01893 0.93632 0.0
C137 C 0.61645 0.09542 0.76316 0.0
O138 O 0.59518 0.0747 0.89864 0.0
O139 O 0.58541 0.09117 0.78822 0.0
C140 C 0.72136 0.85698 0.37177 0.0
O141 O 0.72112 0.89063 0.39226 0.0
Cd142 Cd 0.78485 0.93076 0.40858 0.0
O143 O 0.75514 0.84474 0.355 0.0
Cd144 Cd 0.83027 0.86523 0.34155 0.0
C145 C 0.84579 0.84685 0.4402 0.0
O146 O 0.81509 0.93756 0.34311 0.0
O147 O 0.88227 0.92518 0.33785 0.0
O148 O 0.7979 0.83922 0.27803 0.0
C149 C 0.85361 0.95149 0.34033 0.0
O150 O 0.82445 0.87915 0.44429 0.0
C151 C 0.83289 0.83213 0.26046 0.0
O152 O 0.85414 0.83182 0.40485 0.0
O153 O 0.86749 0.83795 0.28156 0.0
C154 C 0.77263 0.95157 0.11434 0.0
O155 O 0.73869 0.95507 0.13529 0.0
Cd156 Cd 0.70705 0.01712 0.15459 0.0
O157 O 0.79368 -0.0168 0.09964 0.0
Cd158 Cd 0.78591 0.06025 0.09496 0.0
C159 C 0.79884 0.06805 0.19746 0.0
O160 O 0.71025 0.04532 0.08848 0.0
O161 O 0.72779 0.11055 0.08737 0.0
O162 O 0.82399 0.05114 0.03105 0.0
C163 C 0.69848 0.08182 0.08558 0.0
O164 O 0.76116 0.05095 0.20069 0.0
C165 C 0.83617 0.08908 0.02688 0.0
O166 O 0.81645 0.07392 0.16258 0.0
O167 O 0.82663 0.11391 0.05547 0.0
C168 C 0.26726 0.43874 0.60418 0.0
O169 O 0.2342 0.44372 0.62596 0.0
Cd170 Cd 0.20502 0.508 0.64184 0.0
O171 O 0.28771 0.46928 0.5869 0.0
Cd172 Cd 0.27839 0.54527 0.57847 0.0
C173 C 0.29796 0.55954 0.67904 0.0
O174 O 0.2016 0.53199 0.57334 0.0
O175 O 0.22178 0.59669 0.5751 0.0
O176 O 0.31074 0.53983 0.51103 0.0
C177 C 0.19149 0.56911 0.57119 0.0
O178 O 0.26012 0.5442 0.68574 0.0
C179 C 0.32729 0.57675 0.51098 0.0
O180 O 0.31312 0.56159 0.64288 0.0
O181 O 0.32276 0.59855 0.54321 0.0
C182 C 0.11644 0.46376 0.31748 0.0
O183 O 0.15529 0.46805 0.30592 0.0
Cd184 Cd 0.19755 0.53185 0.30368 0.0
O185 O 0.09666 0.49376 0.33247 0.0
Cd186 Cd 0.11341 0.56587 0.35328 0.0
C187 C 0.12228 0.59068 0.25462 0.0
O188 O 0.18638 0.55597 0.3707 0.0
O189 O 0.16971 0.61995 0.36968 0.0
O190 O 0.07509 0.5453 0.4141 0.0
C191 C 0.19782 0.59372 0.37601 0.0
O192 O 0.15909 0.57517 0.25535 0.0
C193 C 0.06131 0.58102 0.42065 0.0
O194 O 0.09731 0.58875 0.28546 0.0
O195 O 0.06796 0.60855 0.39315 0.0
C196 C 0.22047 0.37685 0.8587 0.0
O197 O 0.22361 0.41521 0.86797 0.0
Cd198 Cd 0.29201 0.45057 0.87614 0.0
O199 O 0.25259 0.35703 0.84747 0.0
Cd200 Cd 0.32823 0.36288 0.82836 0.0
C201 C 0.34053 0.36842 0.92923 0.0
O202 O 0.32245 0.43338 0.81415 0.0
O203 O 0.38799 0.41472 0.81449 0.0
O204 O 0.29212 0.33033 0.76987 0.0
C205 C 0.36187 0.44324 0.81023 0.0
O206 O 0.32511 0.40396 0.92455 0.0
C207 C 0.32601 0.31732 0.75418 0.0
O208 O 0.34452 0.34328 0.89909 0.0
O209 O 0.3606 0.32119 0.77558 0.0
C210 C 0.77244 0.87938 0.56474 0.0
O211 O 0.80766 0.89959 0.55763 0.0
Cd212 Cd 0.88008 0.87829 0.5645 0.0
O213 O 0.77168 0.84142 0.5755 0.0
Cd214 Cd 0.83006 0.79266 0.57288 0.0
C215 C 0.85979 0.82815 0.47838 0.0
O216 O 0.88775 0.82539 0.61411 0.0
O217 O 0.90628 0.78383 0.56549 0.0
O218 O 0.80813 0.74617 0.62855 0.0
C219 C 0.91675 0.80486 0.59765 0.0
O220 O 0.89073 0.84788 0.4971 0.0
C221 C 0.8059 0.71376 0.60599 0.0
O222 O 0.83067 0.80826 0.49887 0.0
O223 O 0.8097 0.7189 0.56714 0.0
C224 C 0.84749 0.16081 0.37482 0.0
O225 O 0.84467 0.13864 0.40703 0.0
Cd226 Cd 0.87311 0.07107 0.40045 0.0
O227 O 0.85766 0.14505 0.3405 0.0
Cd228 Cd 0.87113 0.07779 0.30992 0.0
C229 C -0.03331 0.09611 0.34689 0.0
O230 O 0.83912 0.02231 0.35187 0.0
O231 O 0.89669 0.00913 0.3175 0.0
O232 O 0.80581 0.07527 0.26997 0.0
C233 C 0.86402 -0.00416 0.33749 0.0
O234 O 0.94693 0.08832 0.38046 0.0
C235 C 0.82405 0.076 0.23513 0.0
O236 O 0.94704 0.09555 0.31223 0.0
O237 O 0.86496 0.07914 0.23472 0.0
C238 C 0.65309 0.08954 0.08044 0.0
O239 O 0.62501 0.06256 0.09284 0.0
Cd240 Cd 0.55127 0.06341 0.07191 0.0
O241 O 0.64246 0.12093 0.06 0.0
Cd242 Cd 0.57644 0.15177 0.0364 0.0
C243 C 0.5763 0.07479 -0.03113 0.0
O244 O 0.52411 0.12968 0.08682 0.0
O245 O 0.49831 0.14906 0.02766 0.0
O246 O 0.6042 0.20651 0.07902 0.0
C247 C 0.49189 0.13925 0.06512 0.0
O248 O 0.56302 0.05217 -0.00125 0.0
C249 C 0.59735 0.23535 0.05371 0.0
O250 O 0.5845 0.11366 -0.02673 0.0
O251 O 0.58429 0.22505 0.01736 0.0
C252 C 0.6144 0.76272 0.83383 0.0
O253 O 0.61986 0.78449 0.86643 0.0
Cd254 Cd 0.58968 0.85036 0.87321 0.0
O255 O 0.5957 0.77688 0.8021 0.0
Cd256 Cd 0.56574 0.84241 0.77989 0.0
C257 C 0.48529 0.82121 0.84375 0.0
O258 O 0.60943 0.89438 0.81664 0.0
O259 O 0.54609 0.91196 0.79642 0.0
O260 O 0.61374 0.84759 0.72294 0.0
C261 C 0.58337 0.92263 0.81013 0.0
O262 O 0.51292 0.83109 0.87194 0.0
C263 C 0.58499 0.85231 0.69556 0.0
O264 O 0.49522 0.82119 0.80565 0.0
O265 O 0.54587 0.84884 0.70663 0.0
C266 C 0.93179 0.08794 0.84081 0.0
O267 O 0.90937 0.05923 0.82264 0.0
Cd268 Cd 0.83555 0.07348 0.81835 0.0
O269 O 0.91449 0.11266 0.86553 0.0
Cd270 Cd 0.84529 0.11662 0.90087 0.0
C271 C 0.84471 0.18244 0.82511 0.0
O272 O 0.80179 0.05563 0.88134 0.0
O273 O 0.76884 0.11303 0.88678 0.0
O274 O 0.86461 0.07813 0.96076 0.0
C275 C 0.76688 0.07367 0.88467 0.0
O276 O 0.8408 0.14844 0.80479 0.0
C277 C 0.8511 0.10394 -0.01335 0.0
O278 O 0.84638 0.18256 0.86454 0.0
O279 O 0.84046 0.13898 -0.02703 0.0
C280 C 0.6094 0.04019 0.59834 0.0
O281 O 0.64253 0.06479 0.59656 0.0
Cd282 Cd 0.64251 0.13405 0.62425 0.0
O283 O 0.57427 0.05249 0.61207 0.0
Cd284 Cd 0.54747 0.11741 0.63811 0.0
C285 C 0.60922 0.11008 0.72141 0.0
O286 O 0.58322 0.17172 0.59668 0.0
O287 O 0.55554 0.19125 0.65443 0.0
O288 O 0.48425 0.10574 0.59574 0.0
C289 C 0.57242 0.20105 0.62009 0.0
O290 O 0.64095 0.12165 0.69899 0.0
C291 C 0.45861 0.10175 0.62588 0.0
O292 O 0.57156 0.10491 0.70637 0.0
O293 O 0.47428 0.10583 0.66219 0.0
C294 C 0.53014 0.8099 0.29242 0.0
O295 O 0.5594 0.79281 0.27256 0.0
Cd296 Cd 0.63192 0.78689 0.29659 0.0
O297 O 0.53675 0.8236 0.32901 0.0
Cd298 Cd 0.59549 0.81266 0.37685 0.0
C299 C 0.59194 0.7131 0.34962 0.0
O300 O 0.65387 0.84484 0.33931 0.0
O301 O 0.67105 0.80242 0.38833 0.0
O302 O 0.58355 0.87679 0.4114 0.0
C303 C 0.68136 0.8331 0.36534 0.0
O304 O 0.62909 0.72322 0.33602 0.0
C305 C 0.5852 0.86167 0.44753 0.0
O306 O 0.56982 0.74092 0.36551 0.0
O307 O 0.58538 0.82232 0.45072 0.0
C308 C 0.78932 0.91024 0.1112 0.0
O309 O 0.76332 0.87906 0.11648 0.0
Cd310 Cd 0.77836 0.80777 0.12508 0.0
O311 O 0.82975 0.90637 0.10987 0.0
Cd312 Cd 0.87489 0.84685 0.1214 0.0
C313 C 0.83315 0.82538 0.21584 0.0
O314 O 0.83658 0.79189 0.08118 0.0
O315 O 0.88176 0.77281 0.12739 0.0
O316 O 0.93663 0.86055 0.0769 0.0
C317 C 0.85686 0.76289 0.09728 0.0
O318 O 0.79973 0.80875 0.19807 0.0
C319 C 0.96223 0.86891 0.10712 0.0
O320 O 0.86336 0.84296 0.19517 0.0
O321 O 0.94627 0.87002 0.14298 0.0
C322 C 0.89171 0.56563 0.78213 0.0
O323 O 0.92168 0.56091 0.80835 0.0
Cd324 Cd 0.9093 0.53615 0.87633 0.0
O325 O 0.85253 0.55731 0.79126 0.0
Cd326 Cd 0.81511 0.5312 0.85391 0.0
C327 C 0.86491 0.44107 0.84929 0.0
O328 O 0.85331 0.57778 0.90296 0.0
O329 O 0.81561 0.52671 0.92967 0.0
O330 O 0.75641 0.5749 0.83524 0.0
C331 C 0.8353 0.56186 0.93438 0.0
O332 O 0.89776 0.46115 0.86442 0.0
C333 C 0.72708 0.54668 0.84076 0.0
O334 O 0.83066 0.45926 0.84126 0.0
O335 O 0.73876 0.51102 0.85089 0.0
C336 C 0.34328 0.8304 0.00902 0.0
O337 O 0.34218 0.79779 0.03083 0.0
Cd338 Cd 0.31897 0.79604 0.10072 0.0
O339 O 0.33366 0.86505 0.02418 0.0
Cd340 Cd 0.31282 0.89147 0.09184 0.0
C341 C 0.22015 0.83716 0.08653 0.0
O342 O 0.35383 0.85159 0.13924 0.0
O343 O 0.29755 0.87939 0.16431 0.0
O344 O 0.37018 0.94349 0.08975 0.0
C345 C 0.33219 0.86136 0.17049 0.0
O346 O 0.24259 0.80628 0.09445 0.0
C347 C 0.34671 -0.02587 0.09345 0.0
O348 O 0.23732 0.87343 0.08148 0.0
O349 O 0.30617 -0.03325 0.09435 0.0
C350 C 0.08674 0.10106 0.50242 0.0
O351 O 0.08401 0.13638 0.51926 0.0
Cd352 Cd 0.10554 0.14638 0.59063 0.0
O353 O 0.09546 0.06994 0.52392 0.0
Cd354 Cd 0.10983 0.05778 0.59642 0.0
C355 C 0.2028 0.10464 0.57982 0.0
O356 O 0.07705 0.10288 0.64602 0.0
O357 O 0.13883 0.07806 0.66251 0.0
O358 O 0.04955 0.0098 0.60668 0.0
C359 C 0.10484 0.09471 0.67377 0.0
O360 O 0.18149 0.13698 0.58341 0.0
C361 C 0.07221 -0.02163 0.60845 0.0
O362 O 0.18485 0.06845 0.58204 0.0
O363 O 0.11264 -0.01619 0.6038 0.0
C364 C 0.10471 0.82086 0.92121 0.0
O365 O 0.10458 0.78736 0.9005 0.0
Cd366 Cd 0.125 0.78794 0.82988 0.0
O367 O 0.11509 0.85568 0.90481 0.0
Cd368 Cd 0.13539 0.88191 0.83642 0.0
C369 C 0.22681 0.83242 0.83727 0.0
O370 O 0.08218 0.83998 0.79874 0.0
O371 O 0.13323 0.86886 0.76199 0.0
O372 O 0.08893 0.93888 0.84329 0.0
C373 C 0.09565 0.85179 0.76377 0.0
O374 O 0.2037 0.79912 0.83138 0.0
C375 C 0.1178 -0.03277 0.83686 0.0
O376 O 0.20986 0.86705 0.84143 0.0
O377 O 0.156 0.95634 0.83209 0.0
C378 C 0.5953 0.32557 0.41021 0.0
O379 O 0.59672 0.29164 0.39043 0.0
Cd380 Cd 0.61694 0.29114 0.31961 0.0
O381 O 0.60296 0.36023 0.39238 0.0
Cd382 Cd 0.62005 0.3841 0.32171 0.0
C383 C 0.71575 0.34267 0.32498 0.0
O384 O 0.57153 0.33762 0.28321 0.0
O385 O 0.62359 0.3672 0.24827 0.0
O386 O 0.56708 0.43639 0.32067 0.0
C387 C 0.58645 0.349 0.24856 0.0
O388 O 0.69476 0.30787 0.32133 0.0
C389 C 0.59388 0.46692 0.31609 0.0
O390 O 0.69646 0.37629 0.32688 0.0
O391 O 0.63351 0.45952 0.31609 0.0
C392 C 0.85726 0.34628 0.65951 0.0
O393 O 0.88962 0.34141 0.63683 0.0
Cd394 Cd 0.89738 0.37214 0.57051 0.0
O395 O 0.82468 0.36408 0.6458 0.0
Cd396 Cd 0.80301 0.39099 0.57802 0.0
C397 C 0.87041 0.47065 0.59812 0.0
O398 O 0.83821 0.35012 0.52696 0.0
O399 O 0.8193 0.4108 0.50707 0.0
O400 O 0.74463 0.34084 0.57679 0.0
C401 C 0.832 0.37526 0.49772 0.0
O402 O 0.89876 0.44567 0.58776 0.0
C403 C 0.71533 0.36653 0.57504 0.0
O404 O 0.83068 0.45925 0.59875 0.0
O405 O 0.72648 0.40508 0.57598 0.0
C406 C 0.57395 0.60431 -0.01526 0.0
O407 O 0.56995 0.64082 -0.00173 0.0
Cd408 Cd 0.58883 0.65268 0.07086 0.0
O409 O 0.58317 0.57571 0.00938 0.0
Cd410 Cd 0.59704 0.56624 0.08219 0.0
C411 C 0.68929 0.61711 0.07051 0.0
O412 O 0.5587 0.61091 0.12798 0.0
O413 O 0.62082 0.58978 0.14881 0.0
O414 O 0.54054 0.5144 0.09376 0.0
C415 C 0.58495 0.60422 0.15764 0.0
O416 O 0.66648 0.64866 0.06996 0.0
C417 C 0.56526 0.4845 0.09539 0.0
O418 O 0.67239 0.58056 0.07328 0.0
O419 O 0.60529 0.49242 0.09035 0.0
C420 C 0.68166 0.55603 0.84046 0.0
O421 O 0.65395 0.52749 0.85088 0.0
Cd422 Cd 0.57659 0.52394 0.86243 0.0
O423 O 0.67168 0.59344 0.83445 0.0
Cd424 Cd 0.60606 0.63186 0.84121 0.0
C425 C 0.57469 0.59514 0.94036 0.0
O426 O 0.55737 0.57903 0.82235 0.0
O427 O 0.5385 0.63605 0.79706 0.0
O428 O 0.62135 0.69589 0.80365 0.0
C429 C 0.52859 0.59832 0.80455 0.0
O430 O 0.57011 0.55723 0.929 0.0
C431 C 0.61977 0.71822 0.83618 0.0
O432 O 0.58659 0.62387 0.91528 0.0
O433 O 0.61479 0.69992 0.87065 0.0
C434 C 0.55826 0.35128 0.21268 0.0
O435 O 0.52072 0.36386 0.21776 0.0
Cd436 Cd 0.47465 0.38262 0.16244 0.0
O437 O 0.57291 0.34445 0.17687 0.0
Cd438 Cd 0.54612 0.34105 0.10508 0.0
C439 C 0.54832 0.44302 0.10534 0.0
O440 O 0.47257 0.32105 0.12353 0.0
O441 O 0.48336 0.33526 0.05913 0.0
O442 O 0.58377 0.27937 0.10899 0.0
C443 C 0.45774 0.32277 0.08712 0.0
O444 O 0.51411 0.4391 0.12657 0.0
C445 C 0.59057 0.27627 0.07052 0.0
O446 O 0.56899 0.41196 0.09451 0.0
O447 O 0.58024 0.30607 0.04759 0.0
C448 C 0.7621 0.34377 0.33304 0.0
O449 O 0.78444 0.37749 0.32871 0.0
Cd450 Cd 0.85734 0.38561 0.35353 0.0
O451 O 0.77822 0.31235 0.34942 0.0
Cd452 Cd 0.84751 0.29377 0.37917 0.0
C453 C 0.83904 0.36344 0.45495 0.0
O454 O 0.90051 0.32856 0.33395 0.0
O455 O 0.92259 0.3106 0.39487 0.0
O456 O 0.84526 0.22734 0.34443 0.0
C457 C 0.93162 0.3238 0.35898 0.0
O458 O 0.84856 0.39128 0.42834 0.0
C459 C 0.84385 0.20571 0.37712 0.0
O460 O 0.83472 0.32529 0.44499 0.0
O461 O 0.84358 0.22495 0.41148 0.0
C462 C 0.90323 0.57592 0.73963 0.0
O463 O 0.94086 0.56823 0.72805 0.0
Cd464 Cd -0.0306 0.57033 0.66043 0.0
O465 O 0.87514 0.5893 0.71455 0.0
Cd466 Cd 0.8728 0.61071 0.64034 0.0
C467 C 0.88475 0.51173 0.61339 0.0
O468 O 0.94703 0.63403 0.63835 0.0
O469 O 0.91576 0.62848 0.5788 0.0
O470 O 0.83685 0.67323 0.65765 0.0
C471 C 0.94949 0.63799 0.59966 0.0
O472 O 0.92425 0.51774 0.62383 0.0
C473 C 0.81526 0.67368 0.62403 0.0
O474 O 0.85751 0.53934 0.61866 0.0
O475 O 0.81551 0.64158 0.60113 0.0
C476 C 0.50368 0.36227 0.59792 0.0
O477 O 0.52746 0.37044 0.62933 0.0
Cd478 Cd 0.59876 0.34792 0.63308 0.0
O479 O 0.51855 0.34537 0.56589 0.0
Cd480 Cd 0.58831 0.32333 0.54244 0.0
C481 C 0.5799 0.24453 0.60848 0.0
O482 O 0.63955 0.37392 0.57505 0.0
O483 O 0.66256 0.31398 0.55809 0.0
O484 O 0.58724 0.35798 0.47576 0.0
C485 C 0.67096 0.35132 0.56904 0.0
O486 O 0.5883 0.27181 0.63646 0.0
C487 C 0.58906 0.32471 0.45488 0.0
O488 O 0.57678 0.25455 0.57067 0.0
O489 O 0.5888 0.29081 0.47462 0.0
C490 C -0.01291 0.29606 0.7798 0.0
O491 O -0.01841 0.27213 0.74858 0.0
Cd492 Cd 0.91384 0.25767 0.71617 0.0
O493 O 0.95591 0.3138 0.79648 0.0
Cd494 Cd 0.87777 0.3232 0.78895 0.0
C495 C 0.85621 0.22039 0.80207 0.0
O496 O 0.89611 0.32715 0.71835 0.0
O497 O 0.82936 0.33713 0.72815 0.0
O498 O 0.90545 0.38536 0.82593 0.0
C499 C 0.86038 0.33568 0.7032 0.0
O500 O 0.87367 0.21603 0.76696 0.0
C501 C 0.86888 0.39851 0.83426 0.0
O502 O 0.8542 0.256 0.819 0.0
O503 O 0.8361 0.37562 0.82356 0.0
C504 C 0.89315 0.60278 0.1297 0.0
O505 O 0.8667 0.60324 0.15921 0.0
Cd506 Cd 0.79892 0.6316 0.14263 0.0
O507 O 0.88164 0.61117 0.09306 0.0
Cd508 Cd 0.8226 0.62799 0.04854 0.0
C509 C 0.84093 0.71986 0.09276 0.0
O510 O 0.7609 0.59931 0.08449 0.0
O511 O 0.75154 0.65264 0.04479 0.0
O512 O 0.82383 0.56578 0.00664 0.0
C513 C 0.73547 0.623 0.06627 0.0
O514 O 0.82502 0.70178 0.12447 0.0
C515 C 0.83397 0.5845 -0.02651 0.0
O516 O 0.84513 0.70066 0.05866 0.0
O517 O 0.83984 0.62382 -0.02488 0.0
C518 C 0.44014 0.59896 0.297 0.0
O519 O 0.44044 0.62753 0.27023 0.0
Cd520 Cd 0.50232 0.65874 0.2404 0.0
O521 O 0.4746 0.58291 0.30892 0.0
Cd522 Cd 0.55054 0.58733 0.28518 0.0
C523 C 0.56808 0.68039 0.3266 0.0
O524 O 0.53361 0.6004 0.21141 0.0
O525 O 0.60054 0.60511 0.22956 0.0
O526 O 0.54134 0.51279 0.29402 0.0
C527 C 0.57247 0.60567 0.20095 0.0
O528 O 0.54444 0.69154 0.2967 0.0
C529 C 0.57918 0.50823 0.30755 0.0
O530 O 0.57654 0.64271 0.33147 0.0
O531 O 0.60411 0.54049 0.31098 0.0
C532 C 0.73223 0.89978 0.55749 0.0
O533 O 0.73215 0.92998 0.53238 0.0
Cd534 Cd 0.67029 -0.03245 0.51548 0.0
O535 O 0.69812 0.88704 0.57594 0.0
Cd536 Cd 0.62315 0.90883 0.58139 0.0
C537 C 0.59868 0.88849 0.48237 0.0
O538 O 0.64897 -0.01855 0.58379 0.0
O539 O 0.5801 -0.02897 0.58628 0.0
O540 O 0.6359 0.88087 0.64877 0.0
C541 C 0.61269 -0.00368 0.58813 0.0
O542 O 0.62026 0.92213 0.47451 0.0
C543 C 0.59739 0.86775 0.6549 0.0
O544 O 0.59687 0.87426 0.51885 0.0
O545 O 0.56996 0.87327 0.62637 0.0
C546 C 0.26236 0.38997 0.07102 0.0
O547 O 0.29592 0.4139 0.0746 0.0
Cd548 Cd 0.36897 0.39551 0.06928 0.0
O549 O 0.26472 0.35096 0.06638 0.0
Cd550 Cd 0.32466 0.30445 0.0585 0.0
C551 C 0.34827 0.35596 -0.02836 0.0
O552 O 0.38424 0.33171 0.10064 0.0
O553 O 0.39978 0.29931 0.04415 0.0
O554 O 0.30737 0.25474 0.1121 0.0
C555 C 0.4122 0.31526 0.07843 0.0
O556 O 0.36639 0.38333 -0.00449 0.0
C557 C 0.30491 0.2235 0.088 0.0
O558 O 0.3277 0.32389 -0.01424 0.0
O559 O 0.30622 0.23049 0.04928 0.0
C560 C 0.36699 0.64424 0.85772 0.0
O561 O 0.37713 0.62066 0.88713 0.0
Cd562 Cd 0.40227 0.55302 0.87226 0.0
O563 O 0.36749 0.63183 0.82048 0.0
Cd564 Cd 0.38218 0.56925 0.78314 0.0
C565 C 0.48386 0.58344 0.80708 0.0
O566 O 0.35557 0.51385 0.82631 0.0
O567 O 0.40645 0.49866 0.78407 0.0
O568 O 0.31245 0.56898 0.75053 0.0
C569 C 0.37597 0.48657 0.80757 0.0
O570 O 0.47214 0.56519 0.84025 0.0
C571 C 0.3268 0.56871 0.71402 0.0
O572 O 0.45658 0.59423 0.78022 0.0
O573 O 0.36741 0.57132 0.70948 0.0
C574 C 0.14655 0.57921 0.56778 0.0
O575 O 0.11711 0.55149 0.57492 0.0
Cd576 Cd 0.0422 0.56201 0.56325 0.0
O577 O 0.13757 0.61532 0.5565 0.0
Cd578 Cd 0.07266 0.65248 0.54481 0.0
C579 C 0.05189 0.59295 0.46271 0.0
O580 O 0.02347 0.6254 0.59606 0.0
O581 O -0.00485 0.65683 0.54395 0.0
O582 O 0.10444 0.70222 0.5914 0.0
C583 C -0.00891 0.6416 0.57984 0.0
O584 O 0.03965 0.56475 0.48803 0.0
C585 C 0.09929 0.73308 0.56813 0.0
O586 O 0.06699 0.62826 0.47518 0.0
O587 O 0.08529 0.72598 0.53147 0.0
C588 C 0.10153 0.26423 0.34194 0.0
O589 O 0.10876 0.28716 0.37349 0.0
Cd590 Cd 0.08258 0.3542 0.37729 0.0
O591 O 0.08326 0.27788 0.30973 0.0
Cd592 Cd 0.05979 0.34578 0.28645 0.0
C593 C -0.02374 0.33379 0.34769 0.0
O594 O 0.11367 0.39068 0.31995 0.0
O595 O 0.05454 0.41936 0.30356 0.0
O596 O 0.10419 0.34307 0.22669 0.0
C597 C 0.09412 0.42334 0.31334 0.0
O598 O 0.0041 0.34151 0.37626 0.0
C599 C 0.07489 0.35112 0.20091 0.0
O600 O -0.01293 0.33258 0.30996 0.0
O601 O 0.03688 0.35328 0.21433 0.0
C602 C 0.39955 0.58893 0.31703 0.0
O603 O 0.36937 0.57207 0.29506 0.0
Cd604 Cd 0.30003 0.59832 0.30295 0.0
O605 O 0.39139 0.61021 0.3489 0.0
Cd606 Cd 0.33022 0.62618 0.39203 0.0
C607 C 0.33777 0.70085 0.32369 0.0
O608 O 0.27126 0.58191 0.36843 0.0
O609 O 0.25538 0.64292 0.3908 0.0
O610 O 0.34438 0.57293 0.44041 0.0
C611 C 0.24302 0.60632 0.37988 0.0
O612 O 0.32232 0.67183 0.30012 0.0
C613 C 0.34101 0.59579 0.47212 0.0
O614 O 0.34482 0.69479 0.36211 0.0
O615 O 0.33892 0.63477 0.46658 0.0
C616 C 0.0877 0.53827 0.09907 0.0
O617 O 0.11844 0.56401 0.09017 0.0
Cd618 Cd 0.12361 0.63386 0.11486 0.0
O619 O 0.05502 0.54958 0.11838 0.0
Cd620 Cd 0.02849 0.61413 0.14584 0.0
C621 C 0.10578 0.60532 0.21557 0.0
O622 O 0.05836 0.66749 0.10094 0.0
O623 O 0.03978 0.68762 0.16207 0.0
O624 O 0.96433 0.60029 0.10707 0.0
C625 C 0.05267 0.69703 0.12607 0.0
O626 O 0.13208 0.6183 0.18803 0.0
C627 C 0.93905 0.60072 0.13755 0.0
O628 O 0.06566 0.60012 0.20827 0.0
O629 O 0.95552 0.60656 0.17347 0.0
C630 C 0.03016 0.30279 0.79737 0.0
O631 O 0.06209 0.29118 0.77712 0.0
Cd632 Cd 0.13602 0.30074 0.79805 0.0
O633 O 0.03498 0.31867 0.8333 0.0
Cd634 Cd 0.09806 0.32023 0.87841 0.0
C635 C 0.11742 0.22251 0.85549 0.0
O636 O 0.14816 0.36247 0.8387 0.0
O637 O 0.17548 0.32212 0.88449 0.0
O638 O 0.07784 0.38018 0.91574 0.0
C639 C 0.17941 0.35434 0.86216 0.0
O640 O 0.15013 0.23948 0.83806 0.0
C641 C 0.08202 0.36379 0.95104 0.0
O642 O 0.09057 0.24541 0.87233 0.0
O643 O 0.08841 0.3252 0.95243 0.0
C644 C 0.28421 0.39752 0.60317 0.0
O645 O 0.25856 0.36615 0.60887 0.0
Cd646 Cd 0.27531 0.29492 0.61775 0.0
O647 O 0.3247 0.39428 0.60279 0.0
Cd648 Cd 0.37098 0.33706 0.61698 0.0
C649 C 0.3271 0.31066 0.70971 0.0
O650 O 0.33654 0.28059 0.57702 0.0
O651 O 0.38143 0.26486 0.62538 0.0
O652 O 0.43207 0.35182 0.57255 0.0
C653 C 0.35774 0.25325 0.59495 0.0
O654 O 0.29425 0.29376 0.69125 0.0
C655 C 0.45726 0.36213 0.60253 0.0
O656 O 0.35676 0.3302 0.68986 0.0
O657 O 0.44131 0.36358 0.63841 0.0
C658 C 0.38412 0.07863 0.26666 0.0
O659 O 0.41453 0.07748 0.29304 0.0
Cd660 Cd 0.40777 0.05732 0.36329 0.0
O661 O 0.34541 0.06886 0.27651 0.0
Cd662 Cd 0.31116 0.04482 0.3419 0.0
C663 C 0.36742 0.9588 0.34523 0.0
O664 O 0.34801 0.09098 0.39204 0.0
O665 O 0.31725 0.03442 0.41597 0.0
O666 O 0.24909 0.08656 0.33284 0.0
C667 C 0.33443 0.0703 0.42285 0.0
O668 O 0.39944 -0.01827 0.358 0.0
C669 C 0.22137 0.05643 0.33576 0.0
O670 O 0.33207 -0.02585 0.33506 0.0
O671 O 0.23529 0.02033 0.3392 0.0
loop_
_geom_bond_atom_site_label_1
_geom_bond_atom_site_label_2
_geom_bond_distance
_geom_bond_site_symmetry_2
_ccdc_geom_bond_type
C0 O1 1.306 . S
C0 O3 1.160 . S
O1 C0 1.306 . S
O1 Cd2 2.228 . S
Cd2 O1 2.228 . S
Cd2 O6 2.273 . S
Cd2 O10 2.277 . S
O3 C0 1.160 . S
O3 Cd4 2.203 . S
Cd4 O3 2.203 . S
Cd4 O6 2.411 . S
Cd4 O7 2.333 . S
Cd4 O8 2.352 . S
Cd4 O12 2.277 . S
Cd4 O13 2.356 . S
C5 O10 1.209 . S
C5 O12 1.226 . S
O6 Cd2 2.273 . S
O6 Cd4 2.411 . S
O6 C9 1.320 . S
O7 Cd4 2.333 . S
O7 C9 1.214 . S
O8 Cd4 2.352 . S
O8 C11 1.258 . S
C9 O6 1.320 . S
C9 O7 1.214 . S
O10 Cd2 2.277 . S
O10 C5 1.209 . S
C11 O8 1.258 . S
C11 O13 1.282 . S
O12 Cd4 2.277 . S
O12 C5 1.226 . S
O13 Cd4 2.356 . S
O13 C11 1.282 . S
C14 O15 1.306 . S
C14 O17 1.160 . S
O15 C14 1.306 . S
O15 Cd16 2.228 . S
Cd16 O15 2.228 . S
Cd16 O20 2.273 . S
Cd16 O24 2.277 . S
O17 C14 1.160 . S
O17 Cd18 2.203 . S
Cd18 O17 2.203 . S
Cd18 O20 2.411 . S
Cd18 O21 2.333 . S
Cd18 O22 2.352 . S
Cd18 O26 2.277 . S
Cd18 O27 2.356 . S
C19 O24 1.209 . S
C19 O26 1.226 . S
O20 Cd16 2.273 . S
O20 Cd18 2.411 . S
O20 C23 1.320 . S
O21 Cd18 2.333 . S
O21 C23 1.214 . S
O22 Cd18 2.352 . S
O22 C25 1.258 . S
C23 O20 1.320 . S
C23 O21 1.214 . S
O24 Cd16 2.277 . S
O24 C19 1.209 . S
C25 O22 1.258 . S
C25 O27 1.282 . S
O26 Cd18 2.277 . S
O26 C19 1.226 . S
O27 Cd18 2.356 . S
O27 C25 1.282 . S
C28 O29 1.306 . S
C28 O31 1.160 . S
O29 C28 1.306 . S
O29 Cd30 2.228 . S
Cd30 O29 2.228 . S
Cd30 O34 2.273 . S
Cd30 O38 2.277 . S
O31 C28 1.160 . S
O31 Cd32 2.203 . S
Cd32 O31 2.203 . S
Cd32 O34 2.411 . S
Cd32 O35 2.333 . S
Cd32 O36 2.352 . S
Cd32 O40 2.277 . S
Cd32 O41 2.356 . S
C33 O38 1.209 . S
C33 O40 1.226 . S
O34 Cd30 2.273 . S
O34 Cd32 2.411 . S
O34 C37 1.320 . S
O35 Cd32 2.333 . S
O35 C37 1.214 . S
O36 Cd32 2.352 . S
O36 C39 1.258 . S
C37 O34 1.320 . S
C37 O35 1.214 . S
O38 Cd30 2.277 . S
O38 C33 1.209 . S
C39 O36 1.258 . S
C39 O41 1.282 . S
O40 Cd32 2.277 . S
O40 C33 1.226 . S
O41 Cd32 2.356 . S
O41 C39 1.282 . S
C42 O43 1.306 . S
C42 O45 1.160 . S
O43 C42 1.306 . S
O43 Cd44 2.228 . S
Cd44 O43 2.228 . S
Cd44 O48 2.273 . S
Cd44 O52 2.277 . S
O45 C42 1.160 . S
O45 Cd46 2.203 . S
Cd46 O45 2.203 . S
Cd46 O48 2.411 . S
Cd46 O49 2.333 . S
Cd46 O50 2.352 . S
Cd46 O54 2.277 . S
Cd46 O55 2.356 . S
C47 O52 1.209 . S
C47 O54 1.226 . S
O48 Cd44 2.273 . S
O48 Cd46 2.411 . S
O48 C51 1.320 . S
O49 Cd46 2.333 . S
O49 C51 1.214 . S
O50 Cd46 2.352 . S
O50 C53 1.258 . S
C51 O48 1.320 . S
C51 O49 1.214 . S
O52 Cd44 2.277 . S
O52 C47 1.209 . S
C53 O50 1.258 . S
C53 O55 1.282 . S
O54 Cd46 2.277 . S
O54 C47 1.226 . S
O55 Cd46 2.356 . S
O55 C53 1.282 . S
C56 O57 1.306 . S
C56 O59 1.160 . S
O57 C56 1.306 . S
O57 Cd58 2.228 . S
Cd58 O57 2.228 . S
Cd58 O62 2.273 . S
Cd58 O66 2.277 . S
O59 C56 1.160 . S
O59 Cd60 2.203 . S
Cd60 O59 2.203 . S
Cd60 O62 2.411 . S
Cd60 O63 2.333 . S
Cd60 O64 2.352 . S
Cd60 O68 2.277 . S
Cd60 O69 2.356 . S
C61 O66 1.209 . S
C61 O68 1.226 . S
O62 Cd58 2.273 . S
O62 Cd60 2.411 . S
O62 C65 1.320 . S
O63 Cd60 2.333 . S
O63 C65 1.214 . S
O64 Cd60 2.352 . S
O64 C67 1.259 . S
C65 O62 1.320 . S
C65 O63 1.214 . S
O66 Cd58 2.277 . S
O66 C61 1.209 . S
C67 O64 1.259 . S
C67 O69 1.282 . S
O68 Cd60 2.277 . S
O68 C61 1.226 . S
O69 Cd60 2.356 . S
O69 C67 1.282 . S
C70 O71 1.306 . S
C70 O73 1.160 . S
O71 C70 1.306 . S
O71 Cd72 2.228 . S
Cd72 O71 2.228 . S
Cd72 O76 2.273 . S
Cd72 O80 2.277 . S
O73 C70 1.160 . S
O73 Cd74 2.203 . S
Cd74 O73 2.203 . S
Cd74 O76 2.411 . S
Cd74 O77 2.333 . S
Cd74 O78 2.352 . S
Cd74 O82 2.277 . S
Cd74 O83 2.356 . S
C75 O80 1.209 . S
C75 O82 1.226 . S
O76 Cd72 2.273 . S
O76 Cd74 2.411 . S
O76 C79 1.320 . S
O77 Cd74 2.333 . S
O77 C79 1.214 . S
O78 Cd74 2.352 . S
O78 C81 1.258 . S
C79 O76 1.320 . S
C79 O77 1.214 . S
O80 Cd72 2.277 . S
O80 C75 1.209 . S
C81 O78 1.258 . S
C81 O83 1.282 . S
O82 Cd74 2.277 . S
O82 C75 1.226 . S
O83 Cd74 2.356 . S
O83 C81 1.282 . S
C84 O85 1.306 . S
C84 O87 1.160 . S
O85 C84 1.306 . S
O85 Cd86 2.228 . S
Cd86 O85 2.228 . S
Cd86 O90 2.273 . S
Cd86 O94 2.277 . S
O87 C84 1.160 . S
O87 Cd88 2.203 . S
Cd88 O87 2.203 . S
Cd88 O90 2.411 . S
Cd88 O91 2.333 . S
Cd88 O92 2.352 . S
Cd88 O96 2.277 . S
Cd88 O97 2.356 . S
C89 O94 1.209 . S
C89 O96 1.226 . S
O90 Cd86 2.273 . S
O90 Cd88 2.411 . S
O90 C93 1.320 . S
O91 Cd88 2.333 . S
O91 C93 1.214 . S
O92 Cd88 2.352 . S
O92 C95 1.258 . S
C93 O90 1.320 . S
C93 O91 1.214 . S
O94 Cd86 2.277 . S
O94 C89 1.209 . S
C95 O92 1.258 . S
C95 O97 1.282 . S
O96 Cd88 2.277 . S
O96 C89 1.226 . S
O97 Cd88 2.356 . S
O97 C95 1.282 . S
C98 O99 1.306 . S
C98 O101 1.160 . S
O99 C98 1.306 . S
O99 Cd100 2.228 . S
Cd100 O99 2.228 . S
Cd100 O104 2.273 . S
Cd100 O108 2.277 . S
O101 C98 1.160 . S
O101 Cd102 2.203 . S
Cd102 O101 2.203 . S
Cd102 O104 2.411 . S
Cd102 O105 2.333 . S
Cd102 O106 2.352 . S
Cd102 O110 2.277 . S
Cd102 O111 2.356 . S
C103 O108 1.209 . S
C103 O110 1.226 . S
O104 Cd100 2.273 . S
O104 Cd102 2.411 . S
O104 C107 1.320 . S
O105 Cd102 2.333 . S
O105 C107 1.214 . S
O106 Cd102 2.352 . S
O106 C109 1.258 . S
C107 O104 1.320 . S
C107 O105 1.214 . S
O108 Cd100 2.277 . S
O108 C103 1.209 . S
C109 O106 1.258 . S
C109 O111 1.282 . S
O110 Cd102 2.277 . S
O110 C103 1.226 . S
O111 Cd102 2.356 . S
O111 C109 1.282 . S
C112 O113 1.306 . S
C112 O115 1.160 . S
O113 C112 1.306 . S
O113 Cd114 2.228 . S
Cd114 O113 2.228 . S
Cd114 O118 2.273 . S
Cd114 O122 2.277 . S
O115 C112 1.160 . S
O115 Cd116 2.203 . S
Cd116 O115 2.203 . S
Cd116 O118 2.411 . S
Cd116 O119 2.333 . S
Cd116 O120 2.352 . S
Cd116 O124 2.277 . S
Cd116 O125 2.356 . S
C117 O122 1.209 . S
C117 O124 1.226 . S
O118 Cd114 2.273 . S
O118 Cd116 2.411 . S
O118 C121 1.320 . S
O119 Cd116 2.333 . S
O119 C121 1.214 . S
O120 Cd116 2.352 . S
O120 C123 1.258 . S
C121 O118 1.320 . S
C121 O119 1.214 . S
O122 Cd114 2.277 . S
O122 C117 1.209 . S
C123 O120 1.258 . S
C123 O125 1.282 . S
O124 Cd116 2.277 . S
O124 C117 1.226 . S
O125 Cd116 2.356 . S
O125 C123 1.282 . S
C126 O127 1.306 . S
C126 O129 1.160 . S
O127 C126 1.306 . S
O127 Cd128 2.228 . S
Cd128 O127 2.228 . S
Cd128 O132 2.273 . S
Cd128 O136 2.277 . S
O129 C126 1.160 . S
O129 Cd130 2.203 . S
Cd130 O129 2.203 . S
Cd130 O132 2.411 . S
Cd130 O133 2.333 . S
Cd130 O134 2.352 . S
Cd130 O138 2.277 . S
Cd130 O139 2.356 . S
C131 O136 1.209 . S
C131 O138 1.226 . S
O132 Cd128 2.273 . S
O132 Cd130 2.411 . S
O132 C135 1.320 . S
O133 Cd130 2.333 . S
O133 C135 1.214 . S
O134 Cd130 2.352 . S
O134 C137 1.258 . S
C135 O132 1.320 . S
C135 O133 1.214 . S
O136 Cd128 2.277 . S
O136 C131 1.209 . S
C137 O134 1.258 . S
C137 O139 1.282 . S
O138 Cd130 2.277 . S
O138 C131 1.226 . S
O139 Cd130 2.356 . S
O139 C137 1.282 . S
C140 O141 1.306 . S
C140 O143 1.160 . S
O141 C140 1.306 . S
O141 Cd142 2.228 . S
Cd142 O141 2.228 . S
Cd142 O146 2.273 . S
Cd142 O150 2.277 . S
O143 C140 1.160 . S
O143 Cd144 2.203 . S
Cd144 O143 2.203 . S
Cd144 O146 2.411 . S
Cd144 O147 2.333 . S
Cd144 O148 2.352 . S
Cd144 O152 2.277 . S
Cd144 O153 2.356 . S
C145 O150 1.209 . S
C145 O152 1.226 . S
O146 Cd142 2.273 . S
O146 Cd144 2.411 . S
O146 C149 1.320 . S
O147 Cd144 2.333 . S
O147 C149 1.214 . S
O148 Cd144 2.352 . S
O148 C151 1.258 . S
C149 O146 1.320 . S
C149 O147 1.214 . S
O150 Cd142 2.277 . S
O150 C145 1.209 . S
C151 O148 1.258 . S
C151 O153 1.282 . S
O152 Cd144 2.277 . S
O152 C145 1.226 . S
O153 Cd144 2.356 . S
O153 C151 1.282 . S
C154 O155 1.305 1_545 S
C154 O157 1.176 . S
O155 C154 1.305 1_565 S
O155 Cd156 2.228 1_565 S
Cd156 O155 2.228 1_545 S
Cd156 O160 2.273 . S
Cd156 O164 2.277 . S
O157 C154 1.176 . S
O157 Cd158 2.203 . S
Cd158 O157 2.203 . S
Cd158 O160 2.411 . S
Cd158 O161 2.333 . S
Cd158 O162 2.352 . S
Cd158 O166 2.277 . S
Cd158 O167 2.356 . S
C159 O164 1.209 . S
C159 O166 1.226 . S
O160 Cd156 2.273 . S
O160 Cd158 2.411 . S
O160 C163 1.320 . S
O161 Cd158 2.333 . S
O161 C163 1.214 . S
O162 Cd158 2.352 . S
O162 C165 1.258 . S
C163 O160 1.320 . S
C163 O161 1.214 . S
O164 Cd156 2.277 . S
O164 C159 1.209 . S
C165 O162 1.258 . S
C165 O167 1.282 . S
O166 Cd158 2.277 . S
O166 C159 1.226 . S
O167 Cd158 2.356 . S
O167 C165 1.282 . S
C168 O169 1.306 . S
C168 O171 1.160 . S
O169 C168 1.306 . S
O169 Cd170 2.228 . S
Cd170 O169 2.228 . S
Cd170 O174 2.273 . S
Cd170 O178 2.277 . S
O171 C168 1.160 . S
O171 Cd172 2.203 . S
Cd172 O171 2.203 . S
Cd172 O174 2.411 . S
Cd172 O175 2.333 . S
Cd172 O176 2.352 . S
Cd172 O180 2.277 . S
Cd172 O181 2.356 . S
C173 O178 1.209 . S
C173 O180 1.226 . S
O174 Cd170 2.273 . S
O174 Cd172 2.411 . S
O174 C177 1.320 . S
O175 Cd172 2.333 . S
O175 C177 1.214 . S
O176 Cd172 2.352 . S
O176 C179 1.258 . S
C177 O174 1.320 . S
C177 O175 1.214 . S
O178 Cd170 2.277 . S
O178 C173 1.209 . S
C179 O176 1.258 . S
C179 O181 1.282 . S
O180 Cd172 2.277 . S
O180 C173 1.226 . S
O181 Cd172 2.356 . S
O181 C179 1.282 . S
C182 O183 1.306 . S
C182 O185 1.160 . S
O183 C182 1.306 . S
O183 Cd184 2.228 . S
Cd184 O183 2.228 . S
Cd184 O188 2.273 . S
Cd184 O192 2.277 . S
O185 C182 1.160 . S
O185 Cd186 2.203 . S
Cd186 O185 2.203 . S
Cd186 O188 2.411 . S
Cd186 O189 2.333 . S
Cd186 O190 2.352 . S
Cd186 O194 2.277 . S
Cd186 O195 2.356 . S
C187 O192 1.209 . S
C187 O194 1.226 . S
O188 Cd184 2.273 . S
O188 Cd186 2.411 . S
O188 C191 1.320 . S
O189 Cd186 2.333 . S
O189 C191 1.214 . S
O190 Cd186 2.352 . S
O190 C193 1.258 . S
C191 O188 1.320 . S
C191 O189 1.214 . S
O192 Cd184 2.277 . S
O192 C187 1.209 . S
C193 O190 1.258 . S
C193 O195 1.282 . S
O194 Cd186 2.277 . S
O194 C187 1.226 . S
O195 Cd186 2.356 . S
O195 C193 1.282 . S
C196 O197 1.306 . S
C196 O199 1.160 . S
O197 C196 1.306 . S
O197 Cd198 2.228 . S
Cd198 O197 2.228 . S
Cd198 O202 2.273 . S
Cd198 O206 2.277 . S
O199 C196 1.160 . S
O199 Cd200 2.203 . S
Cd200 O199 2.203 . S
Cd200 O202 2.411 . S
Cd200 O203 2.333 . S
Cd200 O204 2.352 . S
Cd200 O208 2.277 . S
Cd200 O209 2.356 . S
C201 O206 1.209 . S
C201 O208 1.226 . S
O202 Cd198 2.273 . S
O202 Cd200 2.411 . S
O202 C205 1.320 . S
O203 Cd200 2.333 . S
O203 C205 1.214 . S
O204 Cd200 2.352 . S
O204 C207 1.258 . S
C205 O202 1.320 . S
C205 O203 1.214 . S
O206 Cd198 2.277 . S
O206 C201 1.209 . S
C207 O204 1.258 . S
C207 O209 1.282 . S
O208 Cd200 2.277 . S
O208 C201 1.226 . S
O209 Cd200 2.356 . S
O209 C207 1.282 . S
C210 O211 1.306 . S
C210 O213 1.160 . S
O211 C210 1.306 . S
O211 Cd212 2.228 . S
Cd212 O211 2.228 . S
Cd212 O216 2.273 . S
Cd212 O220 2.277 . S
O213 C210 1.160 . S
O213 Cd214 2.203 . S
Cd214 O213 2.203 . S
Cd214 O216 2.411 . S
Cd214 O217 2.333 . S
Cd214 O218 2.352 . S
Cd214 O222 2.277 . S
Cd214 O223 2.356 . S
C215 O220 1.209 . S
C215 O222 1.226 . S
O216 Cd212 2.273 . S
O216 Cd214 2.411 . S
O216 C219 1.320 . S
O217 Cd214 2.333 . S
O217 C219 1.214 . S
O218 Cd214 2.352 . S
O218 C221 1.258 . S
C219 O216 1.320 . S
C219 O217 1.214 . S
O220 Cd212 2.277 . S
O220 C215 1.209 . S
C221 O218 1.258 . S
C221 O223 1.282 . S
O222 Cd214 2.277 . S
O222 C215 1.226 . S
O223 Cd214 2.356 . S
O223 C221 1.282 . S
C224 O225 1.306 . S
C224 O227 1.160 . S
O225 C224 1.306 . S
O225 Cd226 2.228 . S
Cd226 O225 2.228 . S
Cd226 O230 2.273 . S
Cd226 O234 2.277 . S
O227 C224 1.160 . S
O227 Cd228 2.203 . S
Cd228 O227 2.203 . S
Cd228 O230 2.411 . S
Cd228 O231 2.333 . S
Cd228 O232 2.352 . S
Cd228 O236 2.277 . S
Cd228 O237 2.356 . S
C229 O234 1.209 . S
C229 O236 1.226 . S
O230 Cd226 2.273 . S
O230 Cd228 2.411 . S
O230 C233 1.320 . S
O231 Cd228 2.333 . S
O231 C233 1.214 . S
O232 Cd228 2.352 . S
O232 C235 1.258 . S
C233 O230 1.320 . S
C233 O231 1.214 . S
O234 Cd226 2.277 . S
O234 C229 1.209 . S
C235 O232 1.258 . S
C235 O237 1.282 . S
O236 Cd228 2.277 . S
O236 C229 1.226 . S
O237 Cd228 2.356 . S
O237 C235 1.282 . S
C238 O239 1.306 . S
C238 O241 1.160 . S
O239 C238 1.306 . S
O239 Cd240 2.228 . S
Cd240 O239 2.228 . S
Cd240 O244 2.273 . S
Cd240 O248 2.277 . S
O241 C238 1.160 . S
O241 Cd242 2.203 . S
Cd242 O241 2.203 . S
Cd242 O244 2.411 . S
Cd242 O245 2.333 . S
Cd242 O246 2.352 . S
Cd242 O250 2.277 . S
Cd242 O251 2.356 . S
C243 O248 1.209 . S
C243 O250 1.226 . S
O244 Cd240 2.273 . S
O244 Cd242 2.411 . S
O244 C247 1.320 . S
O245 Cd242 2.333 . S
O245 C247 1.214 . S
O246 Cd242 2.352 . S
O246 C249 1.258 . S
C247 O244 1.320 . S
C247 O245 1.214 . S
O248 Cd240 2.277 . S
O248 C243 1.209 . S
C249 O246 1.258 . S
C249 O251 1.282 . S
O250 Cd242 2.277 . S
O250 C243 1.226 . S
O251 Cd242 2.356 . S
O251 C249 1.282 . S
C252 O253 1.306 . S
C252 O255 1.160 . S
O253 C252 1.306 . S
O253 Cd254 2.228 . S
Cd254 O253 2.228 . S
Cd254 O258 2.273 . S
Cd254 O262 2.277 . S
O255 C252 1.160 . S
O255 Cd256 2.203 . S
Cd256 O255 2.203 . S
Cd256 O258 2.411 . S
Cd256 O259 2.333 . S
Cd256 O260 2.352 . S
Cd256 O264 2.277 . S
Cd256 O265 2.356 . S
C257 O262 1.209 . S
C257 O264 1.226 . S
O258 Cd254 2.273 . S
O258 Cd256 2.411 . S
O258 C261 1.320 . S
O259 Cd256 2.333 . S
O259 C261 1.214 . S
O260 Cd256 2.352 . S
O260 C263 1.258 . S
C261 O258 1.320 . S
C261 O259 1.214 . S
O262 Cd254 2.277 . S
O262 C257 1.209 . S
C263 O260 1.258 . S
C263 O265 1.282 . S
O264 Cd256 2.277 . S
O264 C257 1.226 . S
O265 Cd256 2.356 . S
O265 C263 1.282 . S
C266 O267 1.306 . S
C266 O269 1.160 . S
O267 C266 1.306 . S
O267 Cd268 2.228 . S
Cd268 O267 2.228 . S
Cd268 O272 2.273 . S
Cd268 O276 2.277 . S
O269 C266 1.160 . S
O269 Cd270 2.203 . S
Cd270 O269 2.203 . S
Cd270 O272 2.411 . S
Cd270 O273 2.333 . S
Cd270 O274 2.352 . S
Cd270 O278 2.277 . S
Cd270 O279 2.356 . S
C271 O276 1.209 . S
C271 O278 1.226 . S
O272 Cd268 2.273 . S
O272 Cd270 2.411 . S
O272 C275 1.320 . S
O273 Cd270 2.333 . S
O273 C275 1.214 . S
O274 Cd270 2.352 . S
O274 C277 1.258 . S
C275 O272 1.320 . S
C275 O273 1.214 . S
O276 Cd268 2.277 . S
O276 C271 1.209 . S
C277 O274 1.258 . S
C277 O279 1.282 . S
O278 Cd270 2.277 . S
O278 C271 1.226 . S
O279 Cd270 2.356 . S
O279 C277 1.282 . S
C280 O281 1.306 . S
C280 O283 1.160 . S
O281 C280 1.306 . S
O281 Cd282 2.228 . S
Cd282 O281 2.228 . S
Cd282 O286 2.273 . S
Cd282 O290 2.277 . S
O283 C280 1.160 . S
O283 Cd284 2.203 . S
Cd284 O283 2.203 . S
Cd284 O286 2.411 . S
Cd284 O287 2.333 . S
Cd284 O288 2.352 . S
Cd284 O292 2.277 . S
Cd284 O293 2.356 . S
C285 O290 1.209 . S
C285 O292 1.226 . S
O286 Cd282 2.273 . S
O286 Cd284 2.411 . S
O286 C289 1.320 . S
O287 Cd284 2.333 . S
O287 C289 1.214 . S
O288 Cd284 2.352 . S
O288 C291 1.258 . S
C289 O286 1.320 . S
C289 O287 1.214 . S
O290 Cd282 2.277 . S
O290 C285 1.209 . S
C291 O288 1.258 . S
C291 O293 1.282 . S
O292 Cd284 2.277 . S
O292 C285 1.226 . S
O293 Cd284 2.356 . S
O293 C291 1.282 . S
C294 O295 1.306 . S
C294 O297 1.160 . S
O295 C294 1.306 . S
O295 Cd296 2.228 . S
Cd296 O295 2.228 . S
Cd296 O300 2.273 . S
Cd296 O304 2.277 . S
O297 C294 1.160 . S
O297 Cd298 2.203 . S
Cd298 O297 2.203 . S
Cd298 O300 2.411 . S
Cd298 O301 2.333 . S
Cd298 O302 2.352 . S
Cd298 O306 2.277 . S
Cd298 O307 2.356 . S
C299 O304 1.209 . S
C299 O306 1.226 . S
O300 Cd296 2.273 . S
O300 Cd298 2.411 . S
O300 C303 1.320 . S
O301 Cd298 2.333 . S
O301 C303 1.214 . S
O302 Cd298 2.352 . S
O302 C305 1.258 . S
C303 O300 1.320 . S
C303 O301 1.214 . S
O304 Cd296 2.277 . S
O304 C299 1.209 . S
C305 O302 1.258 . S
C305 O307 1.282 . S
O306 Cd298 2.277 . S
O306 C299 1.226 . S
O307 Cd298 2.356 . S
O307 C305 1.282 . S
C308 O309 1.306 . S
C308 O311 1.160 . S
O309 C308 1.306 . S
O309 Cd310 2.228 . S
Cd310 O309 2.228 . S
Cd310 O314 2.273 . S
Cd310 O318 2.277 . S
O311 C308 1.160 . S
O311 Cd312 2.203 . S
Cd312 O311 2.203 . S
Cd312 O314 2.411 . S
Cd312 O315 2.333 . S
Cd312 O316 2.352 . S
Cd312 O320 2.277 . S
Cd312 O321 2.336 1_655 S
C313 O318 1.209 . S
C313 O320 1.226 . S
O314 Cd310 2.273 . S
O314 Cd312 2.411 . S
O314 C317 1.320 . S
O315 Cd312 2.333 . S
O315 C317 1.214 . S
O316 Cd312 2.352 . S
O316 C319 1.258 1_655 S
C317 O314 1.320 . S
C317 O315 1.214 . S
O318 Cd310 2.277 . S
O318 C313 1.209 . S
C319 O316 1.258 1_455 S
C319 O321 1.284 . S
O320 Cd312 2.277 . S
O320 C313 1.226 . S
O321 Cd312 2.336 1_455 S
O321 C319 1.284 . S
C322 O323 1.306 . S
C322 O325 1.160 . S
O323 C322 1.306 . S
O323 Cd324 2.228 . S
Cd324 O323 2.228 . S
Cd324 O328 2.273 . S
Cd324 O332 2.277 . S
O325 C322 1.160 . S
O325 Cd326 2.203 . S
Cd326 O325 2.203 . S
Cd326 O328 2.411 . S
Cd326 O329 2.333 . S
Cd326 O330 2.352 . S
Cd326 O334 2.277 . S
Cd326 O335 2.356 . S
C327 O332 1.209 . S
C327 O334 1.226 . S
O328 Cd324 2.273 . S
O328 Cd326 2.411 . S
O328 C331 1.320 . S
O329 Cd326 2.333 . S
O329 C331 1.214 . S
O330 Cd326 2.352 . S
O330 C333 1.258 . S
C331 O328 1.320 . S
C331 O329 1.214 . S
O332 Cd324 2.277 . S
O332 C327 1.209 . S
C333 O330 1.258 . S
C333 O335 1.282 . S
O334 Cd326 2.277 . S
O334 C327 1.226 . S
O335 Cd326 2.356 . S
O335 C333 1.282 . S
C336 O337 1.306 . S
C336 O339 1.160 . S
O337 C336 1.306 . S
O337 Cd338 2.228 . S
Cd338 O337 2.228 . S
Cd338 O342 2.273 . S
Cd338 O346 2.277 . S
O339 C336 1.160 . S
O339 Cd340 2.203 . S
Cd340 O339 2.203 . S
Cd340 O342 2.411 . S
Cd340 O343 2.333 . S
Cd340 O344 2.352 . S
Cd340 O348 2.277 . S
Cd340 O349 2.356 . S
C341 O346 1.209 . S
C341 O348 1.226 . S
O342 Cd338 2.273 . S
O342 Cd340 2.411 . S
O342 C345 1.320 . S
O343 Cd340 2.333 . S
O343 C345 1.214 . S
O344 Cd340 2.352 . S
O344 C347 1.258 . S
C345 O342 1.320 . S
C345 O343 1.214 . S
O346 Cd338 2.277 . S
O346 C341 1.209 . S
C347 O344 1.258 . S
C347 O349 1.282 . S
O348 Cd340 2.277 . S
O348 C341 1.226 . S
O349 Cd340 2.356 . S
O349 C347 1.282 . S
C350 O351 1.306 . S
C350 O353 1.160 . S
O351 C350 1.306 . S
O351 Cd352 2.228 . S
Cd352 O351 2.228 . S
Cd352 O356 2.273 . S
Cd352 O360 2.277 . S
O353 C350 1.160 . S
O353 Cd354 2.203 . S
Cd354 O353 2.203 . S
Cd354 O356 2.411 . S
Cd354 O357 2.333 . S
Cd354 O358 2.352 . S
Cd354 O362 2.277 . S
Cd354 O363 2.356 . S
C355 O360 1.209 . S
C355 O362 1.226 . S
O356 Cd352 2.273 . S
O356 Cd354 2.411 . S
O356 C359 1.320 . S
O357 Cd354 2.333 . S
O357 C359 1.214 . S
O358 Cd354 2.352 . S
O358 C361 1.258 . S
C359 O356 1.320 . S
C359 O357 1.214 . S
O360 Cd352 2.277 . S
O360 C355 1.209 . S
C361 O358 1.258 . S
C361 O363 1.282 . S
O362 Cd354 2.277 . S
O362 C355 1.226 . S
O363 Cd354 2.356 . S
O363 C361 1.282 . S
C364 O365 1.306 . S
C364 O367 1.160 . S
O365 C364 1.306 . S
O365 Cd366 2.228 . S
Cd366 O365 2.228 . S
Cd366 O370 2.273 . S
Cd366 O374 2.277 . S
O367 C364 1.160 . S
O367 Cd368 2.203 . S
Cd368 O367 2.203 . S
Cd368 O370 2.411 . S
Cd368 O371 2.333 . S
Cd368 O372 2.352 . S
Cd368 O376 2.277 . S
Cd368 O377 2.356 . S
C369 O374 1.209 . S
C369 O376 1.226 . S
O370 Cd366 2.273 . S
O370 Cd368 2.411 . S
O370 C373 1.320 . S
O371 Cd368 2.333 . S
O371 C373 1.214 . S
O372 Cd368 2.352 . S
O372 C375 1.248 1_565 S
C373 O370 1.320 . S
C373 O371 1.214 . S
O374 Cd366 2.277 . S
O374 C369 1.209 . S
C375 O372 1.248 1_545 S
C375 O377 1.281 1_545 S
O376 Cd368 2.277 . S
O376 C369 1.226 . S
O377 Cd368 2.356 . S
O377 C375 1.281 1_565 S
C378 O379 1.306 . S
C378 O381 1.160 . S
O379 C378 1.306 . S
O379 Cd380 2.228 . S
Cd380 O379 2.228 . S
Cd380 O384 2.273 . S
Cd380 O388 2.277 . S
O381 C378 1.160 . S
O381 Cd382 2.203 . S
Cd382 O381 2.203 . S
Cd382 O384 2.411 . S
Cd382 O385 2.333 . S
Cd382 O386 2.352 . S
Cd382 O390 2.277 . S
Cd382 O391 2.356 . S
C383 O388 1.209 . S
C383 O390 1.226 . S
O384 Cd380 2.273 . S
O384 Cd382 2.411 . S
O384 C387 1.320 . S
O385 Cd382 2.333 . S
O385 C387 1.214 . S
O386 Cd382 2.352 . S
O386 C389 1.258 . S
C387 O384 1.320 . S
C387 O385 1.214 . S
O388 Cd380 2.277 . S
O388 C383 1.209 . S
C389 O386 1.258 . S
C389 O391 1.282 . S
O390 Cd382 2.277 . S
O390 C383 1.226 . S
O391 Cd382 2.356 . S
O391 C389 1.282 . S
C392 O393 1.306 . S
C392 O395 1.160 . S
O393 C392 1.306 . S
O393 Cd394 2.228 . S
Cd394 O393 2.228 . S
Cd394 O398 2.273 . S
Cd394 O402 2.277 . S
O395 C392 1.160 . S
O395 Cd396 2.203 . S
Cd396 O395 2.203 . S
Cd396 O398 2.411 . S
Cd396 O399 2.333 . S
Cd396 O400 2.352 . S
Cd396 O404 2.277 . S
Cd396 O405 2.356 . S
C397 O402 1.209 . S
C397 O404 1.226 . S
O398 Cd394 2.273 . S
O398 Cd396 2.411 . S
O398 C401 1.320 . S
O399 Cd396 2.333 . S
O399 C401 1.214 . S
O400 Cd396 2.352 . S
O400 C403 1.258 . S
C401 O398 1.320 . S
C401 O399 1.214 . S
O402 Cd394 2.277 . S
O402 C397 1.209 . S
C403 O400 1.258 . S
C403 O405 1.282 . S
O404 Cd396 2.277 . S
O404 C397 1.226 . S
O405 Cd396 2.356 . S
O405 C403 1.282 . S
C406 O407 1.306 . S
C406 O409 1.160 . S
O407 C406 1.306 . S
O407 Cd408 2.228 . S
Cd408 O407 2.228 . S
Cd408 O412 2.273 . S
Cd408 O416 2.277 . S
O409 C406 1.160 . S
O409 Cd410 2.203 . S
Cd410 O409 2.203 . S
Cd410 O412 2.411 . S
Cd410 O413 2.333 . S
Cd410 O414 2.352 . S
Cd410 O418 2.277 . S
Cd410 O419 2.356 . S
C411 O416 1.209 . S
C411 O418 1.226 . S
O412 Cd408 2.273 . S
O412 Cd410 2.411 . S
O412 C415 1.320 . S
O413 Cd410 2.333 . S
O413 C415 1.214 . S
O414 Cd410 2.352 . S
O414 C417 1.258 . S
C415 O412 1.320 . S
C415 O413 1.214 . S
O416 Cd408 2.277 . S
O416 C411 1.209 . S
C417 O414 1.258 . S
C417 O419 1.282 . S
O418 Cd410 2.277 . S
O418 C411 1.226 . S
O419 Cd410 2.356 . S
O419 C417 1.282 . S
C420 O421 1.306 . S
C420 O423 1.160 . S
O421 C420 1.306 . S
O421 Cd422 2.228 . S
Cd422 O421 2.228 . S
Cd422 O426 2.273 . S
Cd422 O430 2.277 . S
O423 C420 1.160 . S
O423 Cd424 2.203 . S
Cd424 O423 2.203 . S
Cd424 O426 2.411 . S
Cd424 O427 2.333 . S
Cd424 O428 2.352 . S
Cd424 O432 2.277 . S
Cd424 O433 2.356 . S
C425 O430 1.209 . S
C425 O432 1.226 . S
O426 Cd422 2.273 . S
O426 Cd424 2.411 . S
O426 C429 1.320 . S
O427 Cd424 2.333 . S
O427 C429 1.214 . S
O428 Cd424 2.352 . S
O428 C431 1.258 . S
C429 O426 1.320 . S
C429 O427 1.214 . S
O430 Cd422 2.277 . S
O430 C425 1.209 . S
C431 O428 1.258 . S
C431 O433 1.282 . S
O432 Cd424 2.277 . S
O432 C425 1.226 . S
O433 Cd424 2.356 . S
O433 C431 1.282 . S
C434 O435 1.306 . S
C434 O437 1.160 . S
O435 C434 1.306 . S
O435 Cd436 2.228 . S
Cd436 O435 2.228 . S
Cd436 O440 2.273 . S
Cd436 O444 2.277 . S
O437 C434 1.160 . S
O437 Cd438 2.203 . S
Cd438 O437 2.203 . S
Cd438 O440 2.411 . S
Cd438 O441 2.333 . S
Cd438 O442 2.352 . S
Cd438 O446 2.277 . S
Cd438 O447 2.356 . S
C439 O444 1.209 . S
C439 O446 1.226 . S
O440 Cd436 2.273 . S
O440 Cd438 2.411 . S
O440 C443 1.320 . S
O441 Cd438 2.333 . S
O441 C443 1.214 . S
O442 Cd438 2.352 . S
O442 C445 1.258 . S
C443 O440 1.320 . S
C443 O441 1.214 . S
O444 Cd436 2.277 . S
O444 C439 1.209 . S
C445 O442 1.258 . S
C445 O447 1.282 . S
O446 Cd438 2.277 . S
O446 C439 1.226 . S
O447 Cd438 2.356 . S
O447 C445 1.282 . S
C448 O449 1.306 . S
C448 O451 1.160 . S
O449 C448 1.306 . S
O449 Cd450 2.228 . S
Cd450 O449 2.228 . S
Cd450 O454 2.273 . S
Cd450 O458 2.277 . S
O451 C448 1.160 . S
O451 Cd452 2.203 . S
Cd452 O451 2.203 . S
Cd452 O454 2.411 . S
Cd452 O455 2.333 . S
Cd452 O456 2.352 . S
Cd452 O460 2.277 . S
Cd452 O461 2.356 . S
C453 O458 1.209 . S
C453 O460 1.226 . S
O454 Cd450 2.273 . S
O454 Cd452 2.411 . S
O454 C457 1.320 . S
O455 Cd452 2.333 . S
O455 C457 1.214 . S
O456 Cd452 2.352 . S
O456 C459 1.258 . S
C457 O454 1.320 . S
C457 O455 1.214 . S
O458 Cd450 2.277 . S
O458 C453 1.209 . S
C459 O456 1.258 . S
C459 O461 1.282 . S
O460 Cd452 2.277 . S
O460 C453 1.226 . S
O461 Cd452 2.356 . S
O461 C459 1.282 . S
C462 O463 1.306 . S
C462 O465 1.160 . S
O463 C462 1.306 . S
O463 Cd464 2.228 . S
Cd464 O463 2.228 . S
Cd464 O468 2.273 . S
Cd464 O472 2.277 . S
O465 C462 1.160 . S
O465 Cd466 2.203 . S
Cd466 O465 2.203 . S
Cd466 O468 2.411 . S
Cd466 O469 2.333 . S
Cd466 O470 2.352 . S
Cd466 O474 2.277 . S
Cd466 O475 2.356 . S
C467 O472 1.209 . S
C467 O474 1.226 . S
O468 Cd464 2.273 . S
O468 Cd466 2.411 . S
O468 C471 1.320 . S
O469 Cd466 2.333 . S
O469 C471 1.214 . S
O470 Cd466 2.352 . S
O470 C473 1.258 . S
C471 O468 1.320 . S
C471 O469 1.214 . S
O472 Cd464 2.277 . S
O472 C467 1.209 . S
C473 O470 1.258 . S
C473 O475 1.282 . S
O474 Cd466 2.277 . S
O474 C467 1.226 . S
O475 Cd466 2.356 . S
O475 C473 1.282 . S
C476 O477 1.306 . S
C476 O479 1.160 . S
O477 C476 1.306 . S
O477 Cd478 2.228 . S
Cd478 O477 2.228 . S
Cd478 O482 2.273 . S
Cd478 O486 2.277 . S
O479 C476 1.160 . S
O479 Cd480 2.203 . S
Cd480 O479 2.203 . S
Cd480 O482 2.411 . S
Cd480 O483 2.333 . S
Cd480 O484 2.352 . S
Cd480 O488 2.277 . S
Cd480 O489 2.356 . S
C481 O486 1.209 . S
C481 O488 1.226 . S
O482 Cd478 2.273 . S
O482 Cd480 2.411 . S
O482 C485 1.320 . S
O483 Cd480 2.333 . S
O483 C485 1.214 . S
O484 Cd480 2.352 . S
O484 C487 1.258 . S
C485 O482 1.320 . S
C485 O483 1.214 . S
O486 Cd478 2.277 . S
O486 C481 1.209 . S
C487 O484 1.258 . S
C487 O489 1.282 . S
O488 Cd480 2.277 . S
O488 C481 1.226 . S
O489 Cd480 2.356 . S
O489 C487 1.282 . S
C490 O491 1.306 . S
C490 O493 1.160 . S
O491 C490 1.306 . S
O491 Cd492 2.228 . S
Cd492 O491 2.228 . S
Cd492 O496 2.273 . S
Cd492 O500 2.277 . S
O493 C490 1.160 . S
O493 Cd494 2.203 . S
Cd494 O493 2.203 . S
Cd494 O496 2.411 . S
Cd494 O497 2.333 . S
Cd494 O498 2.352 . S
Cd494 O502 2.277 . S
Cd494 O503 2.356 . S
C495 O500 1.209 . S
C495 O502 1.226 . S
O496 Cd492 2.273 . S
O496 Cd494 2.411 . S
O496 C499 1.320 . S
O497 Cd494 2.333 . S
O497 C499 1.214 . S
O498 Cd494 2.352 . S
O498 C501 1.258 . S
C499 O496 1.320 . S
C499 O497 1.214 . S
O500 Cd492 2.277 . S
O500 C495 1.209 . S
C501 O498 1.258 . S
C501 O503 1.282 . S
O502 Cd494 2.277 . S
O502 C495 1.226 . S
O503 Cd494 2.356 . S
O503 C501 1.282 . S
C504 O505 1.306 . S
C504 O507 1.160 . S
O505 C504 1.306 . S
O505 Cd506 2.228 . S
Cd506 O505 2.228 . S
Cd506 O510 2.273 . S
Cd506 O514 2.277 . S
O507 C504 1.160 . S
O507 Cd508 2.203 . S
Cd508 O507 2.203 . S
Cd508 O510 2.411 . S
Cd508 O511 2.333 . S
Cd508 O512 2.352 . S
Cd508 O516 2.277 . S
Cd508 O517 2.353 1_554 S
C509 O514 1.209 . S
C509 O516 1.226 . S
O510 Cd506 2.273 . S
O510 Cd508 2.411 . S
O510 C513 1.320 . S
O511 Cd508 2.333 . S
O511 C513 1.214 . S
O512 Cd508 2.352 . S
O512 C515 1.258 1_554 S
C513 O510 1.320 . S
C513 O511 1.214 . S
O514 Cd506 2.277 . S
O514 C509 1.209 . S
C515 O512 1.258 1_556 S
C515 O517 1.283 . S
O516 Cd508 2.277 . S
O516 C509 1.226 . S
O517 Cd508 2.353 1_556 S
O517 C515 1.283 . S
C518 O519 1.306 . S
C518 O521 1.160 . S
O519 C518 1.306 . S
O519 Cd520 2.228 . S
Cd520 O519 2.228 . S
Cd520 O524 2.273 . S
Cd520 O528 2.277 . S
O521 C518 1.160 . S
O521 Cd522 2.203 . S
Cd522 O521 2.203 . S
Cd522 O524 2.411 . S
Cd522 O525 2.333 . S
Cd522 O526 2.352 . S
Cd522 O530 2.277 . S
Cd522 O531 2.356 . S
C523 O528 1.209 . S
C523 O530 1.226 . S
O524 Cd520 2.273 . S
O524 Cd522 2.411 . S
O524 C527 1.320 . S
O525 Cd522 2.333 . S
O525 C527 1.214 . S
O526 Cd522 2.352 . S
O526 C529 1.258 . S
C527 O524 1.320 . S
C527 O525 1.214 . S
O528 Cd520 2.277 . S
O528 C523 1.209 . S
C529 O526 1.258 . S
C529 O531 1.282 . S
O530 Cd522 2.277 . S
O530 C523 1.226 . S
O531 Cd522 2.356 . S
O531 C529 1.282 . S
C532 O533 1.306 . S
C532 O535 1.160 . S
O533 C532 1.306 . S
O533 Cd534 2.228 . S
Cd534 O533 2.228 . S
Cd534 O538 2.273 . S
Cd534 O542 2.277 . S
O535 C532 1.160 . S
O535 Cd536 2.203 . S
Cd536 O535 2.203 . S
Cd536 O538 2.411 . S
Cd536 O539 2.333 . S
Cd536 O540 2.352 . S
Cd536 O544 2.277 . S
Cd536 O545 2.356 . S
C537 O542 1.209 . S
C537 O544 1.226 . S
O538 Cd534 2.273 . S
O538 Cd536 2.411 . S
O538 C541 1.320 . S
O539 Cd536 2.333 . S
O539 C541 1.214 . S
O540 Cd536 2.352 . S
O540 C543 1.258 . S
C541 O538 1.320 . S
C541 O539 1.214 . S
O542 Cd534 2.277 . S
O542 C537 1.209 . S
C543 O540 1.258 . S
C543 O545 1.282 . S
O544 Cd536 2.277 . S
O544 C537 1.226 . S
O545 Cd536 2.356 . S
O545 C543 1.282 . S
C546 O547 1.306 . S
C546 O549 1.160 . S
O547 C546 1.306 . S
O547 Cd548 2.228 . S
Cd548 O547 2.228 . S
Cd548 O552 2.273 . S
Cd548 O556 2.277 . S
O549 C546 1.160 . S
O549 Cd550 2.203 . S
Cd550 O549 2.203 . S
Cd550 O552 2.411 . S
Cd550 O553 2.333 . S
Cd550 O554 2.352 . S
Cd550 O558 2.277 . S
Cd550 O559 2.356 . S
C551 O556 1.209 . S
C551 O558 1.226 . S
O552 Cd548 2.273 . S
O552 Cd550 2.411 . S
O552 C555 1.320 . S
O553 Cd550 2.333 . S
O553 C555 1.214 . S
O554 Cd550 2.352 . S
O554 C557 1.258 . S
C555 O552 1.320 . S
C555 O553 1.214 . S
O556 Cd548 2.277 . S
O556 C551 1.209 . S
C557 O554 1.258 . S
C557 O559 1.282 . S
O558 Cd550 2.277 . S
O558 C551 1.226 . S
O559 Cd550 2.356 . S
O559 C557 1.282 . S
C560 O561 1.306 . S
C560 O563 1.160 . S
O561 C560 1.306 . S
O561 Cd562 2.228 . S
Cd562 O561 2.228 . S
Cd562 O566 2.273 . S
Cd562 O570 2.277 . S
O563 C560 1.160 . S
O563 Cd564 2.203 . S
Cd564 O563 2.203 . S
Cd564 O566 2.411 . S
Cd564 O567 2.333 . S
Cd564 O568 2.352 . S
Cd564 O572 2.277 . S
Cd564 O573 2.356 . S
C565 O570 1.209 . S
C565 O572 1.226 . S
O566 Cd562 2.273 . S
O566 Cd564 2.411 . S
O566 C569 1.320 . S
O567 Cd564 2.333 . S
O567 C569 1.214 . S
O568 Cd564 2.352 . S
O568 C571 1.258 . S
C569 O566 1.320 . S
C569 O567 1.214 . S
O570 Cd562 2.277 . S
O570 C565 1.209 . S
C571 O568 1.258 . S
C571 O573 1.282 . S
O572 Cd564 2.277 . S
O572 C565 1.226 . S
O573 Cd564 2.356 . S
O573 C571 1.282 . S
C574 O575 1.306 . S
C574 O577 1.160 . S
O575 C574 1.306 . S
O575 Cd576 2.228 . S
Cd576 O575 2.228 . S
Cd576 O580 2.273 . S
Cd576 O584 2.277 . S
O577 C574 1.160 . S
O577 Cd578 2.203 . S
Cd578 O577 2.203 . S
Cd578 O580 2.411 . S
Cd578 O581 2.333 . S
Cd578 O582 2.352 . S
Cd578 O586 2.277 . S
Cd578 O587 2.356 . S
C579 O584 1.209 . S
C579 O586 1.226 . S
O580 Cd576 2.273 . S
O580 Cd578 2.411 . S
O580 C583 1.320 . S
O581 Cd578 2.333 . S
O581 C583 1.214 . S
O582 Cd578 2.352 . S
O582 C585 1.258 . S
C583 O580 1.320 . S
C583 O581 1.214 . S
O584 Cd576 2.277 . S
O584 C579 1.209 . S
C585 O582 1.258 . S
C585 O587 1.282 . S
O586 Cd578 2.277 . S
O586 C579 1.226 . S
O587 Cd578 2.356 . S
O587 C585 1.282 . S
C588 O589 1.306 . S
C588 O591 1.160 . S
O589 C588 1.306 . S
O589 Cd590 2.228 . S
Cd590 O589 2.228 . S
Cd590 O594 2.273 . S
Cd590 O598 2.277 . S
O591 C588 1.160 . S
O591 Cd592 2.203 . S
Cd592 O591 2.203 . S
Cd592 O594 2.411 . S
Cd592 O595 2.333 . S
Cd592 O596 2.352 . S
Cd592 O600 2.277 . S
Cd592 O601 2.356 . S
C593 O598 1.209 . S
C593 O600 1.226 . S
O594 Cd590 2.273 . S
O594 Cd592 2.411 . S
O594 C597 1.320 . S
O595 Cd592 2.333 . S
O595 C597 1.214 . S
O596 Cd592 2.352 . S
O596 C599 1.258 . S
C597 O594 1.320 . S
C597 O595 1.214 . S
O598 Cd590 2.277 . S
O598 C593 1.209 . S
C599 O596 1.258 . S
C599 O601 1.282 . S
O600 Cd592 2.277 . S
O600 C593 1.226 . S
O601 Cd592 2.356 . S
O601 C599 1.282 . S
C602 O603 1.306 . S
C602 O605 1.160 . S
O603 C602 1.306 . S
O603 Cd604 2.228 . S
Cd604 O603 2.228 . S
Cd604 O608 2.273 . S
Cd604 O612 2.277 . S
O605 C602 1.160 . S
O605 Cd606 2.203 . S
Cd606 O605 2.203 . S
Cd606 O608 2.411 . S
Cd606 O609 2.333 . S
Cd606 O610 2.352 . S
Cd606 O614 2.277 . S
Cd606 O615 2.356 . S
C607 O612 1.209 . S
C607 O614 1.226 . S
O608 Cd604 2.273 . S
O608 Cd606 2.411 . S
O608 C611 1.320 . S
O609 Cd606 2.333 . S
O609 C611 1.214 . S
O610 Cd606 2.352 . S
O610 C613 1.258 . S
C611 O608 1.320 . S
C611 O609 1.214 . S
O612 Cd604 2.277 . S
O612 C607 1.209 . S
C613 O610 1.258 . S
C613 O615 1.282 . S
O614 Cd606 2.277 . S
O614 C607 1.226 . S
O615 Cd606 2.356 . S
O615 C613 1.282 . S
C616 O617 1.306 . S
C616 O619 1.160 . S
O617 C616 1.306 . S
O617 Cd618 2.228 . S
Cd618 O617 2.228 . S
Cd618 O622 2.273 . S
Cd618 O626 2.277 . S
O619 C616 1.160 . S
O619 Cd620 2.203 . S
Cd620 O619 2.203 . S
Cd620 O622 2.411 . S
Cd620 O623 2.333 . S
Cd620 O624 2.352 . S
Cd620 O628 2.277 . S
Cd620 O629 2.356 . S
C621 O626 1.209 . S
C621 O628 1.226 . S
O622 Cd618 2.273 . S
O622 Cd620 2.411 . S
O622 C625 1.320 . S
O623 Cd620 2.333 . S
O623 C625 1.214 . S
O624 Cd620 2.352 . S
O624 C627 1.258 . S
C625 O622 1.320 . S
C625 O623 1.214 . S
O626 Cd618 2.277 . S
O626 C621 1.209 . S
C627 O624 1.258 . S
C627 O629 1.282 . S
O628 Cd620 2.277 . S
O628 C621 1.226 . S
O629 Cd620 2.356 . S
O629 C627 1.282 . S
C630 O631 1.306 . S
C630 O633 1.160 . S
O631 C630 1.306 . S
O631 Cd632 2.228 . S
Cd632 O631 2.228 . S
Cd632 O636 2.273 . S
Cd632 O640 2.277 . S
O633 C630 1.160 . S
O633 Cd634 2.203 . S
Cd634 O633 2.203 . S
Cd634 O636 2.411 . S
Cd634 O637 2.333 . S
Cd634 O638 2.352 . S
Cd634 O642 2.277 . S
Cd634 O643 2.356 . S
C635 O640 1.209 . S
C635 O642 1.226 . S
O636 Cd632 2.273 . S
O636 Cd634 2.411 . S
O636 C639 1.320 . S
O637 Cd634 2.333 . S
O637 C639 1.214 . S
O638 Cd634 2.352 . S
O638 C641 1.258 . S
C639 O636 1.320 . S
C639 O637 1.214 . S
O640 Cd632 2.277 . S
O640 C635 1.209 . S
C641 O638 1.258 . S
C641 O643 1.282 . S
O642 Cd634 2.277 . S
O642 C635 1.226 . S
O643 Cd634 2.356 . S
O643 C641 1.282 . S
C644 O645 1.306 . S
C644 O647 1.160 . S
O645 C644 1.306 . S
O645 Cd646 2.228 . S
Cd646 O645 2.228 . S
Cd646 O650 2.273 . S
Cd646 O654 2.277 . S
O647 C644 1.160 . S
O647 Cd648 2.203 . S
Cd648 O647 2.203 . S
Cd648 O650 2.411 . S
Cd648 O651 2.333 . S
Cd648 O652 2.352 . S
Cd648 O656 2.277 . S
Cd648 O657 2.356 . S
C649 O654 1.209 . S
C649 O656 1.226 . S
O650 Cd646 2.273 . S
O650 Cd648 2.411 . S
O650 C653 1.320 . S
O651 Cd648 2.333 . S
O651 C653 1.214 . S
O652 Cd648 2.352 . S
O652 C655 1.258 . S
C653 O650 1.320 . S
C653 O651 1.214 . S
O654 Cd646 2.277 . S
O654 C649 1.209 . S
C655 O652 1.258 . S
C655 O657 1.282 . S
O656 Cd648 2.277 . S
O656 C649 1.226 . S
O657 Cd648 2.356 . S
O657 C655 1.282 . S
C658 O659 1.306 . S
C658 O661 1.160 . S
O659 C658 1.306 . S
O659 Cd660 2.228 . S
Cd660 O659 2.228 . S
Cd660 O664 2.273 . S
Cd660 O668 2.277 . S
O661 C658 1.160 . S
O661 Cd662 2.203 . S
Cd662 O661 2.203 . S
Cd662 O664 2.411 . S
Cd662 O665 2.333 . S
Cd662 O666 2.352 . S
Cd662 O670 2.277 . S
Cd662 O671 2.356 . S
C663 O668 1.209 . S
C663 O670 1.226 . S
O664 Cd660 2.273 . S
O664 Cd662 2.411 . S
O664 C667 1.320 . S
O665 Cd662 2.333 . S
O665 C667 1.214 . S
O666 Cd662 2.352 . S
O666 C669 1.258 . S
C667 O664 1.320 . S
C667 O665 1.214 . S
O668 Cd660 2.277 . S
O668 C663 1.209 . S
C669 O666 1.258 . S
C669 O671 1.282 . S
O670 Cd662 2.277 . S
O670 C663 1.226 . S
O671 Cd662 2.356 . S
O671 C669 1.282 . S
C588 C11 1.497 . S
C23 C219 1.490 1_455 S
C39 C560 1.529 . S
C51 C247 1.493 . S
C625 C61 1.497 . S
C70 C294 1.546 . S
C89 C653 1.497 . S
C98 C266 1.531 1_455 S
C42 C658 1.475 . S
C5 C350 1.629 . S
C373 C14 1.430 . S
C33 C336 1.654 1_556 S
C79 C345 1.494 . S
C95 C667 1.408 . S
C107 C359 1.488 . S
C67 C364 1.437 1_554 S
C546 C112 1.471 . S
C126 C275 1.529 . S
C121 C616 1.505 . S
C303 C140 1.489 . S
C308 C154 1.456 1_565 S
C574 C177 1.530 . S
C597 C182 1.461 . S
C569 C205 1.485 . S
C473 C221 1.511 . S
C229 C9 1.417 1_655 S
C249 C445 1.480 . S
C37 C257 1.464 . S
C271 C495 1.496 . S
C84 C291 1.434 . S
C299 C523 1.461 . S
C56 C319 1.432 . S
C543 C263 1.370 . S
C215 C145 1.557 . S
C159 C235 1.398 . S
C131 C243 1.647 1_556 S
C137 C285 1.606 . S
C305 C537 1.362 . S
C151 C313 1.512 . S
C277 C165 1.348 1_556 S
C333 C420 1.340 . S
C341 C65 1.410 . S
C327 C501 1.454 . S
C355 C93 1.490 . S
C375 C109 1.395 . S
C448 C383 1.521 . S
C397 C467 1.538 . S
C417 C439 1.447 . S
C431 C252 1.525 . S
C443 C555 1.497 . S
C224 C459 1.566 . S
C471 C583 1.491 1_655 S
C481 C289 1.474 . S
C630 C490 1.508 1_455 S
C509 C317 1.494 . S
C602 C518 1.559 . S
C322 C462 1.529 . S
C406 C425 1.620 1_554 S
C434 C387 1.432 . S
C401 C453 1.598 . S
C499 C392 1.592 . S
C331 C515 1.422 . S
C527 C415 1.473 . S
C487 C378 1.398 . S
C532 C210 1.480 . S
C191 C611 1.535 . S
C280 C541 1.514 1_545 S
C639 C196 1.469 . S
C644 C168 1.477 . S
C163 C238 1.528 . S
C135 C261 1.501 1_545 S
C233 C149 1.502 1_545 S
C557 C53 1.464 . S
C429 C565 1.420 . S
C585 C25 1.464 . S
C593 C457 1.400 1_455 S
C75 C607 1.499 . S
C627 C504 1.462 1_455 S
C635 C103 1.469 . S
C476 C655 1.387 . S
C599 C123 1.288 . S
C201 C551 1.561 1_556 S
C173 C571 1.392 . S
C579 C193 1.640 . S
C621 C187 1.589 . S
C117 C641 1.343 1_554 S
C207 C649 1.532 . S
C613 C179 1.410 . S
C0 C669 1.348 . S
C403 C485 1.288 . S
C81 C663 1.501 1_565 S
C513 C411 1.505 . S
C529 C389 1.377 . S
C369 C28 1.470 . S
C347 C47 1.386 1_565 S
C19 C361 1.444 1_565 S
