# Generated by pormake.
# Topology una, (4)-cn, num edge types: 1
# Building blocks:
#     Node 0, Type 0, BuildingBlock: QUQFOY_clean_sbu_1, # of connection points: 4
#     Node 1, Type 0, BuildingBlock: QUQFOY_clean_sbu_1, # of connection points: 4
#     Node 2, Type 0, BuildingBlock: QUQFOY_clean_sbu_1, # of connection points: 4
#     Node 3, Type 0, BuildingBlock: QUQFOY_clean_sbu_1, # of connection points: 4
#     Node 4, Type 0, BuildingBlock: QUQFOY_clean_sbu_1, # of connection points: 4
#     Node 5, Type 0, BuildingBlock: QUQFOY_clean_sbu_1, # of connection points: 4
#     Node 6, Type 0, BuildingBlock: QUQFOY_clean_sbu_1, # of connection points: 4
#     Node 7, Type 0, BuildingBlock: QUQFOY_clean_sbu_1, # of connection points: 4
#     Node 8, Type 0, BuildingBlock: QUQFOY_clean_sbu_1, # of connection points: 4
#     Node 9, Type 0, BuildingBlock: QUQFOY_clean_sbu_1, # of connection points: 4
#     Node 10, Type 0, BuildingBlock: QUQFOY_clean_sbu_1, # of connection points: 4
#     Node 11, Type 0, BuildingBlock: QUQFOY_clean_sbu_1, # of connection points: 4
#     Edge 12, Type (0, 0), BuildingBlock: XUDNAN_clean_linker_2, # of connection points: 2
#     Edge 13, Type (0, 0), BuildingBlock: XUDNAN_clean_linker_2, # of connection points: 2
#     Edge 14, Type (0, 0), BuildingBlock: XUDNAN_clean_linker_2, # of connection points: 2
#     Edge 15, Type (0, 0), BuildingBlock: XUDNAN_clean_linker_2, # of connection points: 2
#     Edge 16, Type (0, 0), BuildingBlock: XUDNAN_clean_linker_2, # of connection points: 2
#     Edge 17, Type (0, 0), BuildingBlock: XUDNAN_clean_linker_2, # of connection points: 2
#     Edge 18, Type (0, 0), BuildingBlock: XUDNAN_clean_linker_2, # of connection points: 2
#     Edge 19, Type (0, 0), BuildingBlock: XUDNAN_clean_linker_2, # of connection points: 2
#     Edge 20, Type (0, 0), BuildingBlock: XUDNAN_clean_linker_2, # of connection points: 2
#     Edge 21, Type (0, 0), BuildingBlock: XUDNAN_clean_linker_2, # of connection points: 2
#     Edge 22, Type (0, 0), BuildingBlock: XUDNAN_clean_linker_2, # of connection points: 2
#     Edge 23, Type (0, 0), BuildingBlock: XUDNAN_clean_linker_2, # of connection points: 2
#     Edge 24, Type (0, 0), BuildingBlock: XUDNAN_clean_linker_2, # of connection points: 2
#     Edge 25, Type (0, 0), BuildingBlock: XUDNAN_clean_linker_2, # of connection points: 2
#     Edge 26, Type (0, 0), BuildingBlock: XUDNAN_clean_linker_2, # of connection points: 2
#     Edge 27, Type (0, 0), BuildingBlock: XUDNAN_clean_linker_2, # of connection points: 2
#     Edge 28, Type (0, 0), BuildingBlock: XUDNAN_clean_linker_2, # of connection points: 2
#     Edge 29, Type (0, 0), BuildingBlock: XUDNAN_clean_linker_2, # of connection points: 2
#     Edge 30, Type (0, 0), BuildingBlock: XUDNAN_clean_linker_2, # of connection points: 2
#     Edge 31, Type (0, 0), BuildingBlock: XUDNAN_clean_linker_2, # of connection points: 2
#     Edge 32, Type (0, 0), BuildingBlock: XUDNAN_clean_linker_2, # of connection points: 2
#     Edge 33, Type (0, 0), BuildingBlock: XUDNAN_clean_linker_2, # of connection points: 2
#     Edge 34, Type (0, 0), BuildingBlock: XUDNAN_clean_linker_2, # of connection points: 2
#     Edge 35, Type (0, 0), BuildingBlock: XUDNAN_clean_linker_2, # of connection points: 2
# Relax obj value: 0.095
# Max RMSD: 0.099
# Mean RMSD: 0.099
data_MOF--net-una--node1-QUQFOY_clean_sbu_1--edge1-XUDNAN_clean_linker_2
_symmetry_space_group_name_H-M    P1
_symmetry_Int_Tables_number       1
_symmetry_cell_setting            triclinic
loop_
_symmetry_equiv_pos_as_xyz
'x, y, z'
_cell_length_a     59.76548
_cell_length_b     59.808811
_cell_length_c     21.983197
_cell_angle_alpha  90.046919
_cell_angle_beta   90.015634
_cell_angle_gamma 119.97156
loop_
_atom_site_label
_atom_site_type_symbol
_atom_site_fract_x
_atom_site_fract_y
_atom_site_fract_z
_atom_type_partial_charge
O0 O 0.13639 0.4774 0.12275 0.0
Cd1 Cd 0.13875 0.44448 0.10365 0.0
Cd2 Cd 0.18503 0.48038 0.06402 0.0
O3 O 0.17115 0.50541 0.07252 0.0
O4 O 0.10226 0.41515 0.10669 0.0
O5 O 0.12476 0.4282 0.02153 0.0
C6 C 0.10311 0.41322 0.04838 0.0
C7 C 0.20144 0.47335 0.97494 0.0
C8 C 0.151 0.50015 0.10273 0.0
C9 C 0.18556 0.45078 0.17076 0.0
O10 O 0.19795 0.47184 0.14179 0.0
O11 O 0.16186 0.43523 0.15848 0.0
O12 O 0.21429 0.49453 1.00531 0.0
O13 O 0.17851 0.45674 0.99346 0.0
O14 O 0.68034 0.12533 0.28525 0.0
Cd15 Cd 0.71559 0.12728 0.26657 0.0
Cd16 Cd 0.72819 0.177 0.23971 0.0
O17 O 0.68952 0.16362 0.25043 0.0
O18 O 0.70705 0.09106 0.24764 0.0
O19 O 0.72202 0.12232 0.17915 0.0
C20 C 0.71328 0.09825 0.19189 0.0
C21 C 0.75149 0.20598 0.16265 0.0
C22 C 0.67343 0.1418 0.27263 0.0
C23 C 0.75642 0.16863 0.34353 0.0
O24 O 0.74975 0.18312 0.31659 0.0
O25 O 0.74664 0.14505 0.32802 0.0
O26 O 0.74371 0.21304 0.20963 0.0
O27 O 0.74481 0.18193 0.15735 0.0
O28 O 0.57755 0.66963 0.46729 0.0
Cd29 Cd 0.60844 0.70381 0.43512 0.0
Cd30 Cd 0.57051 0.71104 0.39449 0.0
O31 O 0.54866 0.67173 0.40908 0.0
O32 O 0.63746 0.69754 0.41349 0.0
O33 O 0.61538 0.70611 0.34556 0.0
C34 C 0.63313 0.70038 0.35721 0.0
C35 C 0.5623 0.72881 0.30859 0.0
C36 C 0.55476 0.65926 0.44579 0.0
C37 C 0.60411 0.74535 0.49639 0.0
O38 O 0.58251 0.73541 0.46895 0.0
O39 O 0.61983 0.73734 0.48536 0.0
O40 O 0.54595 0.71926 0.35249 0.0
O41 O 0.58324 0.72761 0.31228 0.0
O42 O 0.92667 0.56248 0.61544 0.0
Cd43 Cd 0.92444 0.59564 0.59761 0.0
Cd44 Cd 0.87775 0.56002 0.55941 0.0
O45 O 0.89136 0.53474 0.56638 0.0
O46 O 0.96093 0.62493 0.5998 0.0
O47 O 0.93787 0.61187 0.51529 0.0
C48 C 0.95966 0.62693 0.54163 0.0
C49 C 0.86059 0.56677 0.47141 0.0
C50 C 0.91172 0.53978 0.59543 0.0
C51 C 0.87825 0.59016 0.66611 0.0
O52 O 0.86553 0.56898 0.63769 0.0
O53 O 0.90193 0.60541 0.65321 0.0
O54 O 0.84798 0.5457 0.50219 0.0
O55 O 0.8837 0.58342 0.48886 0.0
O56 O 0.38378 0.91753 0.78761 0.0
Cd57 Cd 0.34856 0.91523 0.76752 0.0
Cd58 Cd 0.33847 0.86932 0.72446 0.0
O59 O 0.37718 0.88303 0.73627 0.0
O60 O 0.35548 0.95161 0.7702 0.0
O61 O 0.34664 0.92904 0.6851 0.0
C62 C 0.35301 0.95067 0.71178 0.0
C63 C 0.317 0.85327 0.63305 0.0
C64 C 0.39194 0.90295 0.76734 0.0
C65 C 0.30667 0.86781 0.82948 0.0
O66 O 0.31535 0.85562 0.79954 0.0
O67 O 0.31561 0.89183 0.82014 0.0
O68 O 0.32484 0.84039 0.66489 0.0
O69 O 0.32268 0.87602 0.65163 0.0
O70 O 0.48782 0.37154 0.95172 0.0
Cd71 Cd 0.45542 0.33628 0.92905 0.0
Cd72 Cd 0.49331 0.32516 0.90217 0.0
O73 O 0.51786 0.36373 0.91648 0.0
O74 O 0.42754 0.34419 0.90753 0.0
O75 O 0.44597 0.33084 0.84045 0.0
C76 C 0.42996 0.33892 0.85177 0.0
C77 C 0.50035 0.30313 0.82404 0.0
C78 C 0.51142 0.37908 0.94012 0.0
C79 C 0.45608 0.29517 1.00358 0.0
O80 O 0.47751 0.30254 0.97722 0.0
O81 O 0.44198 0.30467 0.98847 0.0
O82 O 0.51484 0.31079 0.87164 0.0
O83 O 0.48262 0.30934 0.81869 0.0
O84 O 0.57631 0.9181 0.83585 0.0
Cd85 Cd 0.6089 0.91537 0.85647 0.0
Cd86 Cd 0.57081 0.86684 0.89633 0.0
O87 O 0.54735 0.88214 0.88064 0.0
O88 O 0.63821 0.95175 0.85342 0.0
O89 O 0.62506 0.92937 0.93875 0.0
C90 C 0.6401 0.95098 0.91173 0.0
C91 C 0.56277 0.84048 0.98133 0.0
C92 C 0.55316 0.90286 0.85245 0.0
C93 C 0.60408 0.86873 0.79147 0.0
O94 O 0.58347 0.85579 0.82186 0.0
O95 O 0.61864 0.89281 0.80131 0.0
O96 O 0.54689 0.83344 0.93635 0.0
O97 O 0.58323 0.86302 0.97912 0.0
O98 O 0.67818 0.56494 1.00028 0.0
Cd99 Cd 0.71305 0.59847 0.01836 0.0
Cd100 Cd 0.72434 0.56404 0.06421 0.0
O101 O 0.68562 0.53839 0.0549 0.0
O102 O 0.70503 0.62715 0.0141 0.0
O103 O 0.71512 0.61499 0.09986 0.0
C104 C 0.70784 0.62939 0.0724 0.0
C105 C 0.74697 0.56966 0.15405 0.0
C106 C 0.67048 0.54265 0.02277 0.0
C107 C 0.75468 0.59283 0.95595 0.0
O108 O 0.74657 0.57254 0.98773 0.0
O109 O 0.74562 0.60789 0.96441 0.0
O110 O 0.73864 0.54887 0.12219 0.0
O111 O 0.74115 0.58676 0.13653 0.0
O112 O 0.13374 0.66758 0.17156 0.0
Cd113 Cd 0.13562 0.7028 0.18809 0.0
Cd114 Cd 0.18359 0.71486 0.22599 0.0
O115 O 0.16976 0.67589 0.21868 0.0
O116 O 0.0992 0.69533 0.20317 0.0
O117 O 0.12937 0.70901 0.27428 0.0
C118 C 0.10568 0.70114 0.25951 0.0
C119 C 0.20305 0.73928 0.31254 0.0
C120 C 0.14917 0.66026 0.19072 0.0
C121 C 0.18079 0.74302 0.11697 0.0
O122 O 0.19403 0.73559 0.14706 0.0
O123 O 0.15695 0.73415 0.12919 0.0
O124 O 0.21486 0.73054 0.27957 0.0
O125 O 0.17968 0.73289 0.29816 0.0
O126 O 0.48669 0.12304 0.33219 0.0
Cd127 Cd 0.45347 0.12474 0.35271 0.0
Cd128 Cd 0.48973 0.17237 0.39505 0.0
O129 O 0.51547 0.16062 0.3713 0.0
O130 O 0.425 0.0887 0.37106 0.0
O131 O 0.44277 0.11968 0.44017 0.0
C132 C 0.42665 0.09585 0.42714 0.0
C133 C 0.49441 0.19285 0.48793 0.0
C134 C 0.51003 0.13957 0.34497 0.0
C135 C 0.45442 0.16991 0.29246 0.0
O136 O 0.47377 0.18303 0.32669 0.0
O137 O 0.44188 0.14536 0.29604 0.0
O138 O 0.50903 0.20503 0.44249 0.0
O139 O 0.47742 0.16878 0.48137 0.0
O140 O 0.38633 0.47977 0.49786 0.0
Cd141 Cd 0.35297 0.44483 0.51547 0.0
Cd142 Cd 0.33974 0.47533 0.57216 0.0
O143 O 0.37934 0.49949 0.57398 0.0
O144 O 0.36217 0.41701 0.51027 0.0
O145 O 0.35178 0.42862 0.59658 0.0
C146 C 0.35935 0.41455 0.56856 0.0
C147 C 0.31473 0.46877 0.65864 0.0
C148 C 0.39429 0.49894 0.53374 0.0
C149 C 0.31093 0.45009 0.45886 0.0
O150 O 0.31948 0.47009 0.49214 0.0
O151 O 0.31968 0.43472 0.46539 0.0
O152 O 0.32509 0.49038 0.62967 0.0
O153 O 0.31963 0.45114 0.64013 0.0
O154 O 0.92928 0.37199 0.66842 0.0
Cd155 Cd 0.92758 0.33721 0.69049 0.0
Cd156 Cd 0.88003 0.32652 0.73248 0.0
O157 O 0.89176 0.36379 0.70689 0.0
O158 O 0.96378 0.34492 0.70868 0.0
O159 O 0.93309 0.33233 0.77824 0.0
C160 C 0.95688 0.33993 0.76499 0.0
C161 C 0.86035 0.31125 0.8263 0.0
C162 C 0.91284 0.37903 0.68023 0.0
C163 C 0.88191 0.29269 0.63161 0.0
O164 O 0.869 0.29937 0.66529 0.0
O165 O 0.9065 0.30455 0.63506 0.0
O166 O 0.84774 0.31342 0.78134 0.0
O167 O 0.88442 0.31845 0.81875 0.0
H168 H 0.22622 0.48467 0.24005 0.0
H169 H 0.17686 0.40286 0.20522 0.0
H170 H 0.20377 0.39337 0.27481 0.0
H171 H 0.28571 0.48585 0.24661 0.0
H172 H 0.29871 0.50897 0.30782 0.0
H173 H 0.27516 0.50907 0.25693 0.0
H174 H 0.24567 0.50424 0.3483 0.0
H175 H 0.26928 0.50444 0.39958 0.0
H176 H 0.23646 0.47802 0.40109 0.0
H177 H 0.23885 0.39363 0.34241 0.0
H178 H 0.27526 0.40301 0.41165 0.0
H179 H 0.29944 0.48448 0.40591 0.0
C180 C 0.22092 0.46471 0.24746 0.0
C181 C 0.19954 0.44447 0.21711 0.0
C182 C 0.19309 0.41863 0.22833 0.0
C183 C 0.20836 0.4131 0.26745 0.0
C184 C 0.22967 0.43362 0.29571 0.0
C185 C 0.23559 0.45888 0.28704 0.0
C186 C 0.25917 0.47749 0.32327 0.0
C187 C 0.28097 0.49646 0.28113 0.0
C188 C 0.25222 0.49189 0.37089 0.0
C189 C 0.26597 0.45887 0.35305 0.0
C190 C 0.24894 0.43366 0.33626 0.0
C191 C 0.25209 0.41327 0.35636 0.0
C192 C 0.27291 0.41879 0.39535 0.0
C193 C 0.29008 0.44444 0.41444 0.0
C194 C 0.2865 0.46464 0.39264 0.0
H195 H 0.8344 0.27755 0.58604 0.0
H196 H 0.89633 0.25977 0.57731 0.0
H197 H 0.86954 0.22297 0.50797 0.0
H198 H 0.78114 0.21295 0.58457 0.0
H199 H 0.76148 0.221 0.53746 0.0
H200 H 0.78532 0.24495 0.58738 0.0
H201 H 0.80653 0.27596 0.49611 0.0
H202 H 0.78255 0.25228 0.44614 0.0
H203 H 0.81637 0.26493 0.43044 0.0
H204 H 0.83406 0.1871 0.4388 0.0
H205 H 0.79715 0.16057 0.36949 0.0
H206 H 0.76081 0.20442 0.42468 0.0
C207 C 0.84241 0.26589 0.56999 0.0
C208 C 0.86738 0.27138 0.5876 0.0
C209 C 0.87723 0.2559 0.56441 0.0
C210 C 0.86206 0.23488 0.52539 0.0
C211 C 0.83726 0.22983 0.50972 0.0
C212 C 0.8278 0.24527 0.53093 0.0
C213 C 0.80133 0.23713 0.50569 0.0
C214 C 0.78113 0.22849 0.55683 0.0
C215 C 0.80174 0.25886 0.46731 0.0
C216 C 0.79712 0.21461 0.4666 0.0
C217 C 0.81776 0.21028 0.46974 0.0
C218 C 0.81787 0.19042 0.43625 0.0
C219 C 0.79677 0.17529 0.39744 0.0
C220 C 0.77616 0.18044 0.392 0.0
C221 C 0.77628 0.20001 0.42805 0.0
H222 H 0.57023 0.75447 0.55898 0.0
H223 H 0.6522 0.7836 0.53447 0.0
H224 H 0.66186 0.81984 0.60487 0.0
H225 H 0.57231 0.81499 0.56691 0.0
H226 H 0.54775 0.80455 0.62477 0.0
H227 H 0.5477 0.78147 0.57207 0.0
H228 H 0.54863 0.75389 0.66195 0.0
H229 H 0.54846 0.77676 0.71491 0.0
H230 H 0.5737 0.76865 0.71859 0.0
H231 H 0.66184 0.8543 0.67615 0.0
H232 H 0.65216 0.8802 0.74887 0.0
H233 H 0.57029 0.82606 0.72835 0.0
C234 C 0.59025 0.76846 0.56829 0.0
C235 C 0.61048 0.76634 0.54092 0.0
C236 C 0.6364 0.78486 0.55505 0.0
C237 C 0.64204 0.80556 0.59469 0.0
C238 C 0.62153 0.80721 0.62036 0.0
C239 C 0.59616 0.78885 0.60821 0.0
C240 C 0.57747 0.79418 0.64281 0.0
C241 C 0.5603 0.79909 0.59902 0.0
C242 C 0.56111 0.77206 0.6872 0.0
C243 C 0.59618 0.8185 0.67631 0.0
C244 C 0.62154 0.82604 0.66247 0.0
C245 C 0.64203 0.84841 0.68752 0.0
C246 C 0.63639 0.86308 0.72848 0.0
C247 C 0.61051 0.85504 0.74454 0.0
C248 C 0.5903 0.83259 0.71748 0.0
H249 H 0.83752 0.557 0.73562 0.0
H250 H 0.88785 0.63854 0.70011 0.0
H251 H 0.86136 0.64878 0.76943 0.0
H252 H 0.77857 0.55686 0.74134 0.0
H253 H 0.76531 0.53384 0.80257 0.0
H254 H 0.78866 0.53331 0.7518 0.0
H255 H 0.81803 0.53782 0.84331 0.0
H256 H 0.7946 0.53802 0.89445 0.0
H257 H 0.82756 0.56415 0.89607 0.0
H258 H 0.82649 0.64919 0.83812 0.0
H259 H 0.7904 0.64016 0.90844 0.0
H260 H 0.76526 0.5585 0.90061 0.0
C261 C 0.84313 0.57705 0.74278 0.0
C262 C 0.86466 0.59699 0.71238 0.0
C263 C 0.8715 0.62299 0.72331 0.0
C264 C 0.85647 0.62894 0.76225 0.0
C265 C 0.83496 0.60868 0.79054 0.0
C266 C 0.82869 0.58329 0.78202 0.0
C267 C 0.80503 0.56495 0.81811 0.0
C268 C 0.7831 0.54614 0.77592 0.0
C269 C 0.81172 0.55039 0.86582 0.0
C270 C 0.79861 0.58386 0.84773 0.0
C271 C 0.81586 0.609 0.83111 0.0
C272 C 0.81307 0.62958 0.85183 0.0
C273 C 0.79244 0.62428 0.8914 0.0
C274 C 0.77513 0.59866 0.91027 0.0
C275 C 0.7783 0.57833 0.88754 0.0
H276 H 0.29595 0.82351 0.88782 0.0
H277 H 0.26976 0.87902 0.87104 0.0
H278 H 0.23274 0.85203 0.93907 0.0
H279 H 0.23433 0.76644 0.8894 0.0
H280 H 0.24349 0.75036 0.94505 0.0
H281 H 0.26748 0.774 0.89503 0.0
H282 H 0.29498 0.8 0.9879 0.0
H283 H 0.27125 0.77626 0.03815 0.0
H284 H 0.28045 0.80977 0.0463 0.0
H285 H 0.19717 0.81692 1.00712 0.0
H286 H 0.17036 0.7807 0.07734 0.0
H287 H 0.22208 0.75038 0.05027 0.0
C288 C 0.28248 0.83008 0.89844 0.0
C289 C 0.28563 0.85329 0.87387 0.0
C290 C 0.26774 0.86133 0.88957 0.0
C291 C 0.24658 0.84603 0.92779 0.0
C292 C 0.24383 0.82296 0.9504 0.0
C293 C 0.26163 0.81533 0.93689 0.0
C294 C 0.25517 0.79035 0.96825 0.0
C295 C 0.24979 0.76903 0.92164 0.0
C296 C 0.27673 0.79435 0.0128 0.0
C297 C 0.23085 0.7849 1.00152 0.0
C298 C 0.22429 0.80364 0.99035 0.0
C299 C 0.20226 0.80224 0.01628 0.0
C300 C 0.18704 0.78153 0.05571 0.0
C301 C 0.19419 0.76281 0.06933 0.0
C302 C 0.21617 0.76447 0.04099 0.0
H303 H 0.48731 0.21611 0.24242 0.0
H304 H 0.40678 0.15612 0.24092 0.0
H305 H 0.39691 0.18284 0.17103 0.0
H306 H 0.47831 0.27053 0.24035 0.0
H307 H 0.50542 0.28899 0.19074 0.0
H308 H 0.50545 0.26519 0.2408 0.0
H309 H 0.51272 0.2423 0.14895 0.0
H310 H 0.5131 0.26623 0.09877 0.0
H311 H 0.49083 0.23249 0.0852 0.0
H312 H 0.39675 0.21834 0.10153 0.0
H313 H 0.40713 0.25521 0.03224 0.0
H314 H 0.48796 0.28952 0.08074 0.0
C315 C 0.46752 0.2085 0.22767 0.0
C316 C 0.44775 0.18415 0.24754 0.0
C317 C 0.42222 0.17475 0.22615 0.0
C318 C 0.41646 0.18989 0.18684 0.0
C319 C 0.43652 0.21414 0.16902 0.0
C320 C 0.46159 0.22306 0.18832 0.0
C321 C 0.48015 0.24905 0.16135 0.0
C322 C 0.49308 0.26965 0.2113 0.0
C323 C 0.50038 0.2474 0.12118 0.0
C324 C 0.46172 0.25367 0.12381 0.0
C325 C 0.43655 0.23361 0.12889 0.0
C326 C 0.41643 0.23405 0.09734 0.0
C327 C 0.42242 0.25512 0.05852 0.0
C328 C 0.44833 0.27516 0.05122 0.0
C329 C 0.46796 0.27446 0.0853 0.0
H330 H 0.18523 0.55149 0.11784 0.0
H331 H 0.10335 0.49536 0.11893 0.0
H332 H 0.09359 0.53027 0.14069 0.0
H333 H 0.18286 0.58891 0.24345 0.0
H334 H 0.20733 0.61926 0.21243 0.0
H335 H 0.20759 0.59001 0.19453 0.0
H336 H 0.20683 0.59895 0.07942 0.0
H337 H 0.20657 0.62824 0.09695 0.0
H338 H 0.18157 0.60398 0.04965 0.0
H339 H 0.09306 0.5721 0.15771 0.0
H340 H 0.10188 0.61654 0.17821 0.0
H341 H 0.18418 0.64416 0.17453 0.0
C342 C 0.16523 0.54658 0.12228 0.0
C343 C 0.14499 0.52081 0.11606 0.0
C344 C 0.1191 0.51503 0.12341 0.0
C345 C 0.1134 0.53472 0.13559 0.0
C346 C 0.13385 0.55997 0.14142 0.0
C347 C 0.15926 0.56585 0.13583 0.0
C348 C 0.17775 0.59427 0.14674 0.0
C349 C 0.19489 0.59834 0.20261 0.0
C350 C 0.19414 0.60711 0.08979 0.0
C351 C 0.15882 0.60358 0.15872 0.0
C352 C 0.13357 0.5836 0.15475 0.0
C353 C 0.11276 0.58782 0.16159 0.0
C354 C 0.11793 0.61309 0.17305 0.0
C355 C 0.14367 0.63367 0.17864 0.0
C356 C 0.16429 0.62872 0.17151 0.0
H357 H 0.65608 0.17591 0.28811 0.0
H358 H 0.62999 0.09399 0.282 0.0
H359 H 0.58489 0.08421 0.2968 0.0
H360 H 0.61266 0.17175 0.40639 0.0
H361 H 0.60797 0.19689 0.37465 0.0
H362 H 0.63784 0.19713 0.36181 0.0
H363 H 0.63168 0.19841 0.24539 0.0
H364 H 0.60171 0.19803 0.25786 0.0
H365 H 0.60237 0.17379 0.21033 0.0
H366 H 0.54226 0.08372 0.30884 0.0
H367 H 0.50643 0.09245 0.32696 0.0
H368 H 0.56134 0.17465 0.33082 0.0
C369 C 0.64089 0.15589 0.2897 0.0
C370 C 0.6465 0.13569 0.28347 0.0
C371 C 0.62611 0.10976 0.28671 0.0
C372 C 0.60045 0.10404 0.29484 0.0
C373 C 0.59558 0.12446 0.30042 0.0
C374 C 0.61532 0.14987 0.29875 0.0
C375 C 0.60521 0.16831 0.30812 0.0
C376 C 0.61659 0.18446 0.3662 0.0
C377 C 0.61056 0.18565 0.25208 0.0
C378 C 0.57665 0.14936 0.3151 0.0
C379 C 0.57138 0.12416 0.30983 0.0
C380 C 0.54621 0.10338 0.31342 0.0
C381 C 0.52598 0.10852 0.32345 0.0
C382 C 0.53111 0.13421 0.33063 0.0
C383 C 0.55681 0.1548 0.32606 0.0
H384 H 0.41779 0.52937 0.43491 0.0
H385 H 0.43015 0.51784 0.62371 0.0
H386 H 0.47446 0.55553 0.61876 0.0
H387 H 0.48392 0.55362 0.37956 0.0
H388 H 0.48318 0.57754 0.33108 0.0
H389 H 0.45377 0.54787 0.34721 0.0
H390 H 0.43272 0.57391 0.38673 0.0
H391 H 0.46202 0.6036 0.37066 0.0
H392 H 0.44851 0.59746 0.44618 0.0
H393 H 0.51708 0.59487 0.59344 0.0
H394 H 0.55284 0.63599 0.55413 0.0
H395 H 0.51106 0.62434 0.38484 0.0
C396 C 0.4301 0.53458 0.47468 0.0
C397 C 0.42097 0.52059 0.52939 0.0
C398 C 0.43709 0.52829 0.58131 0.0
C399 C 0.46224 0.54956 0.57879 0.0
C400 C 0.47072 0.56316 0.52428 0.0
C401 C 0.45501 0.55621 0.4734 0.0
C402 C 0.4678 0.5756 0.42249 0.0
C403 C 0.47244 0.56289 0.36679 0.0
C404 C 0.45181 0.5884 0.40555 0.0
C405 C 0.49303 0.59462 0.45282 0.0
C406 C 0.49458 0.58679 0.51103 0.0
C407 C 0.51608 0.6012 0.54793 0.0
C408 C 0.53633 0.62447 0.52515 0.0
C409 C 0.53468 0.63337 0.46657 0.0
C410 C 0.51282 0.61805 0.42988 0.0
H411 H 0.87736 0.48825 0.60658 0.0
H412 H 0.95927 0.54421 0.61141 0.0
H413 H 0.96883 0.50894 0.62971 0.0
H414 H 0.879 0.44932 0.72852 0.0
H415 H 0.85462 0.41937 0.69548 0.0
H416 H 0.85456 0.44886 0.67957 0.0
H417 H 0.85588 0.44112 0.56392 0.0
H418 H 0.85603 0.41163 0.57948 0.0
H419 H 0.88127 0.43639 0.53378 0.0
H420 H 0.96917 0.46693 0.64472 0.0
H421 H 0.96018 0.42252 0.66583 0.0
H422 H 0.87791 0.39496 0.65855 0.0
C423 C 0.89733 0.49306 0.61102 0.0
C424 C 0.91763 0.5189 0.60694 0.0
C425 C 0.94346 0.52451 0.61428 0.0
C426 C 0.94906 0.5046 0.62443 0.0
C427 C 0.92856 0.47929 0.62809 0.0
C428 C 0.90319 0.47355 0.62244 0.0
C429 C 0.8846 0.44502 0.63147 0.0
C430 C 0.86718 0.44038 0.68707 0.0
C431 C 0.8685 0.43283 0.57372 0.0
C432 C 0.90342 0.43551 0.64279 0.0
C433 C 0.9287 0.45548 0.63984 0.0
C434 C 0.94944 0.4512 0.6475 0.0
C435 C 0.94416 0.42592 0.65922 0.0
C436 C 0.91837 0.40535 0.66418 0.0
C437 C 0.89783 0.41033 0.65557 0.0
H438 H 0.40894 0.86854 0.77951 0.0
H439 H 0.43488 0.95039 0.78592 0.0
H440 H 0.47961 0.95978 0.80573 0.0
H441 H 0.44898 0.86954 0.90267 0.0
H442 H 0.45459 0.84526 0.86917 0.0
H443 H 0.42512 0.84538 0.85302 0.0
H444 H 0.4345 0.84715 0.73746 0.0
H445 H 0.46405 0.84712 0.75327 0.0
H446 H 0.46473 0.87259 0.7081 0.0
H447 H 0.52205 0.9599 0.82057 0.0
H448 H 0.55741 0.95052 0.84034 0.0
H449 H 0.50231 0.86848 0.83216 0.0
C450 C 0.42406 0.88846 0.78478 0.0
C451 C 0.41858 0.90879 0.7806 0.0
C452 C 0.43875 0.93456 0.78891 0.0
C453 C 0.46418 0.94006 0.79992 0.0
C454 C 0.46895 0.91952 0.80352 0.0
C455 C 0.44933 0.89421 0.7971 0.0
C456 C 0.45916 0.87552 0.80582 0.0
C457 C 0.44619 0.85789 0.86095 0.0
C458 C 0.45539 0.85967 0.74769 0.0
C459 C 0.48744 0.89421 0.81774 0.0
C460 C 0.49286 0.91953 0.81542 0.0
C461 C 0.51795 0.94013 0.82305 0.0
C462 C 0.53791 0.93466 0.83402 0.0
C463 C 0.53251 0.90881 0.83834 0.0
C464 C 0.50694 0.88844 0.82992 0.0
H465 H 0.56223 0.39639 0.96492 0.0
H466 H 0.50638 0.42216 0.94694 0.0
H467 H 0.54101 0.4672 0.96597 0.0
H468 H 0.59817 0.4396 0.08823 0.0
H469 H 0.62882 0.44448 0.06158 0.0
H470 H 0.59965 0.41456 0.04577 0.0
H471 H 0.60999 0.42088 0.93046 0.0
H472 H 0.63914 0.45085 0.94589 0.0
H473 H 0.61545 0.45018 0.89403 0.0
H474 H 0.58277 0.50991 0.98079 0.0
H475 H 0.62709 0.54597 1.00044 0.0
H476 H 0.65434 0.49125 0.01622 0.0
C477 C 0.55727 0.41151 0.96498 0.0
C478 C 0.53169 0.40587 0.95402 0.0
C479 C 0.52588 0.42611 0.95531 0.0
C480 C 0.54543 0.45172 0.96586 0.0
C481 C 0.57053 0.45664 0.97605 0.0
C482 C 0.57638 0.43701 0.97662 0.0
C483 C 0.60466 0.44718 0.99033 0.0
C484 C 0.60801 0.43578 0.05003 0.0
C485 C 0.61809 0.44197 0.93699 0.0
C486 C 0.61394 0.47568 0.99679 0.0
C487 C 0.59408 0.48085 0.98773 0.0
C488 C 0.59838 0.50603 0.9887 0.0
C489 C 0.62359 0.52637 0.99965 0.0
C490 C 0.64401 0.52133 0.01048 0.0
C491 C 0.639 0.49564 1.00908 0.0
H492 H 0.31044 0.50458 0.72711 0.0
H493 H 0.27709 0.42203 0.70166 0.0
H494 H 0.24317 0.41414 0.77707 0.0
H495 H 0.29926 0.50167 0.89014 0.0
H496 H 0.29251 0.52786 0.88902 0.0
H497 H 0.31402 0.52665 0.83346 0.0
H498 H 0.28579 0.52915 0.74714 0.0
H499 H 0.26397 0.52996 0.80243 0.0
H500 H 0.25186 0.50551 0.74403 0.0
H501 H 0.21131 0.41557 0.85059 0.0
H502 H 0.18757 0.42589 0.92738 0.0
H503 H 0.24336 0.50742 0.9082 0.0
C504 C 0.29613 0.48483 0.73779 0.0
C505 C 0.29631 0.4639 0.70852 0.0
C506 C 0.27736 0.43834 0.72389 0.0
C507 C 0.25793 0.43368 0.76628 0.0
C508 C 0.25799 0.4548 0.79337 0.0
C509 C 0.27689 0.47985 0.78059 0.0
C510 C 0.27306 0.49915 0.8171 0.0
C511 C 0.29608 0.51474 0.85998 0.0
C512 C 0.26839 0.51699 0.77515 0.0
C513 C 0.24891 0.48106 0.85215 0.0
C514 C 0.2403 0.45558 0.83727 0.0
C515 C 0.218 0.43545 0.86295 0.0
C516 C 0.20454 0.44151 0.90616 0.0
C517 C 0.21367 0.46744 0.92377 0.0
C518 C 0.23597 0.48741 0.89576 0.0
H519 H 0.75185 0.20335 0.03789 0.0
H520 H 0.79209 0.25243 0.19196 0.0
H521 H 0.82467 0.28489 0.1227 0.0
H522 H 0.80672 0.21747 0.94668 0.0
H523 H 0.79204 0.21835 0.87575 0.0
H524 H 0.77216 0.19864 0.93742 0.0
H525 H 0.74537 0.22184 0.93305 0.0
H526 H 0.76512 0.24156 0.8712 0.0
H527 H 0.76162 0.25652 0.93897 0.0
H528 H 0.85479 0.31008 0.03776 0.0
H529 H 0.87715 0.32949 0.94058 0.0
H530 H 0.81458 0.26692 0.84101 0.0
C531 C 0.76752 0.22099 0.05672 0.0
C532 C 0.7697 0.22548 0.11998 0.0
C533 C 0.79017 0.24881 0.1434 0.0
C534 C 0.80878 0.26726 0.10455 0.0
C535 C 0.80623 0.2623 0.04232 0.0
C536 C 0.78583 0.24003 0.01833 0.0
C537 C 0.78701 0.24009 0.94951 0.0
C538 C 0.78964 0.21728 0.92598 0.0
C539 C 0.76338 0.24001 0.92155 0.0
C540 C 0.8115 0.2656 0.93879 0.0
C541 C 0.82251 0.27791 0.99299 0.0
C542 C 0.84613 0.30091 0.99492 0.0
C543 C 0.85871 0.31174 0.9398 0.0
C544 C 0.84725 0.29985 0.88393 0.0
C545 C 0.82336 0.27659 0.8834 0.0
H546 H 0.598 0.76854 0.23832 0.0
H547 H 0.5156 0.71877 0.26518 0.0
H548 H 0.5069 0.74226 0.18482 0.0
H549 H 0.59536 0.82647 0.2176 0.0
H550 H 0.62046 0.83985 0.16088 0.0
H551 H 0.62045 0.8181 0.21753 0.0
H552 H 0.62099 0.78818 0.13293 0.0
H553 H 0.62128 0.80998 0.07601 0.0
H554 H 0.59651 0.77644 0.07457 0.0
H555 H 0.50705 0.77064 0.10166 0.0
H556 H 0.51599 0.80311 0.02194 0.0
H557 H 0.59827 0.83682 0.05373 0.0
C558 C 0.57816 0.76238 0.22649 0.0
C559 C 0.55743 0.74168 0.25731 0.0
C560 C 0.53171 0.73451 0.2418 0.0
C561 C 0.5266 0.74773 0.19631 0.0
C562 C 0.54743 0.76833 0.16746 0.0
C563 C 0.5727 0.77574 0.18198 0.0
C564 C 0.59148 0.79929 0.14575 0.0
C565 C 0.6079 0.82228 0.18797 0.0
C566 C 0.60857 0.79309 0.10488 0.0
C567 C 0.57279 0.80385 0.10846 0.0
C568 C 0.54749 0.78561 0.12144 0.0
C569 C 0.52676 0.78515 0.09137 0.0
C570 C 0.53202 0.80365 0.04627 0.0
C571 C 0.55777 0.82258 0.03233 0.0
C572 C 0.57839 0.82284 0.06436 0.0
H573 H 0.81944 0.53228 0.40322 0.0
H574 H 0.87273 0.61418 0.42722 0.0
H575 H 0.84815 0.624 0.35174 0.0
H576 H 0.8116 0.5356 0.23984 0.0
H577 H 0.77804 0.51083 0.24116 0.0
H578 H 0.80006 0.5106 0.29675 0.0
H579 H 0.77033 0.51028 0.38299 0.0
H580 H 0.74844 0.51096 0.32768 0.0
H581 H 0.76208 0.53543 0.3859 0.0
H582 H 0.81582 0.62476 0.27883 0.0
H583 H 0.78229 0.61637 0.20187 0.0
H584 H 0.75193 0.53399 0.22139 0.0
C585 C 0.82607 0.55228 0.39212 0.0
C586 C 0.84792 0.5725 0.42105 0.0
C587 C 0.85612 0.59841 0.4052 0.0
C588 C 0.84217 0.60417 0.36281 0.0
C589 C 0.82034 0.58377 0.33612 0.0
C590 C 0.81267 0.55834 0.34918 0.0
C591 C 0.78902 0.53997 0.31281 0.0
C592 C 0.79505 0.52328 0.2701 0.0
C593 C 0.76612 0.52318 0.35487 0.0
C594 C 0.78443 0.55904 0.27759 0.0
C595 C 0.80246 0.58421 0.29231 0.0
C596 C 0.80174 0.60513 0.26655 0.0
C597 C 0.78252 0.60019 0.22329 0.0
C598 C 0.76461 0.57456 0.20569 0.0
C599 C 0.76545 0.55379 0.23386 0.0
H600 H 0.24477 0.74552 0.37843 0.0
H601 H 0.19224 0.7753 0.35726 0.0
H602 H 0.2174 0.80941 0.43271 0.0
H603 H 0.25245 0.75579 0.54159 0.0
H604 H 0.28589 0.76412 0.54083 0.0
H605 H 0.264 0.74249 0.48417 0.0
H606 H 0.29431 0.77229 0.39932 0.0
H607 H 0.31611 0.79421 0.45575 0.0
H608 H 0.30303 0.80583 0.39799 0.0
H609 H 0.24963 0.84166 0.506 0.0
H610 H 0.28259 0.86571 0.58473 0.0
H611 H 0.3122 0.81305 0.56373 0.0
C612 C 0.23852 0.75916 0.38998 0.0
C613 C 0.21667 0.7579 0.36195 0.0
C614 C 0.20888 0.77589 0.3785 0.0
C615 C 0.22315 0.79544 0.4209 0.0
C616 C 0.24488 0.79644 0.44696 0.0
C617 C 0.25222 0.77846 0.43317 0.0
C618 C 0.2756 0.78313 0.46993 0.0
C619 C 0.26909 0.76001 0.51161 0.0
C620 C 0.29862 0.78923 0.42824 0.0
C621 C 0.28035 0.80663 0.50624 0.0
C622 C 0.26268 0.81426 0.49152 0.0
C623 C 0.26346 0.83577 0.51827 0.0
C624 C 0.28235 0.84941 0.56256 0.0
C625 C 0.29986 0.84118 0.58029 0.0
C626 C 0.299 0.81972 0.55111 0.0
H627 H 0.49296 0.30028 0.70016 0.0
H628 H 0.51205 0.26604 0.85085 0.0
H629 H 0.51237 0.23377 0.78129 0.0
H630 H 0.45207 0.24265 0.61849 0.0
H631 H 0.46382 0.25629 0.5443 0.0
H632 H 0.46485 0.27668 0.60583 0.0
H633 H 0.51408 0.3064 0.58983 0.0
H634 H 0.51317 0.28619 0.52796 0.0
H635 H 0.53492 0.29266 0.59089 0.0
H636 H 0.50654 0.20285 0.6975 0.0
H637 H 0.50163 0.17923 0.60106 0.0
H638 H 0.49165 0.23645 0.50292 0.0
C639 C 0.49735 0.28605 0.71818 0.0
C640 C 0.50238 0.28547 0.78068 0.0
C641 C 0.50829 0.26681 0.80291 0.0
C642 C 0.50838 0.24834 0.7639 0.0
C643 C 0.50312 0.24922 0.70256 0.0
C644 C 0.49831 0.26793 0.67946 0.0
C645 C 0.4943 0.26513 0.61124 0.0
C646 C 0.46714 0.25987 0.59398 0.0
C647 C 0.51538 0.28901 0.57803 0.0
C648 C 0.49711 0.24166 0.59995 0.0
C649 C 0.50177 0.23253 0.65341 0.0
C650 C 0.50339 0.21006 0.65513 0.0
C651 C 0.50049 0.19675 0.60049 0.0
C652 C 0.49668 0.20638 0.54519 0.0
C653 C 0.49503 0.22908 0.54484 0.0
H654 H 0.09559 0.41143 0.92432 0.0
H655 H 0.05657 0.37632 0.0937 0.0
H656 H 1.01563 0.3509 0.03789 0.0
H657 H 0.04583 0.41889 0.86232 0.0
H658 H 0.05015 0.41176 0.78498 0.0
H659 H 0.07706 0.42503 0.83682 0.0
H660 H 0.08429 0.38648 0.81577 0.0
H661 H 0.05742 0.37312 0.76356 0.0
H662 H 0.05796 0.35399 0.82625 0.0
H663 H 0.97807 0.33271 0.96584 0.0
H664 H 0.94682 0.32225 0.88208 0.0
H665 H 1.00991 0.36845 0.75857 0.0
C666 C 0.07857 0.39793 0.94947 0.0
C667 C 0.07938 0.39577 0.01346 0.0
C668 C 0.05652 0.37826 0.04474 0.0
C669 C 0.03313 0.3637 0.01339 0.0
C670 C 0.03285 0.36671 0.95059 0.0
C671 C 0.05499 0.38325 0.91883 0.0
C672 C 0.04904 0.38411 0.852 0.0
C673 C 0.05593 0.41158 0.83294 0.0
C674 C 0.06301 0.3738 0.81204 0.0
C675 C 1.02005 0.36591 0.85146 0.0
C676 C 1.01113 0.35599 0.90878 0.0
C677 C 0.98488 0.34003 0.92056 0.0
C678 C 0.96725 0.33423 0.87269 0.0
C679 C 0.9759 0.34428 0.81359 0.0
C680 C 1.00272 0.36005 0.80291 0.0
H681 H 0.64168 0.95907 0.03558 0.0
H682 H 0.67727 0.99717 0.86572 0.0
H683 H 0.70268 0.03834 0.92055 0.0
H684 H 0.63423 1.00916 0.09512 0.0
H685 H 0.64119 1.00521 0.17288 0.0
H686 H 0.62798 0.97806 0.1218 0.0
H687 H 0.66647 0.97086 0.1444 0.0
H688 H 0.67976 0.99797 0.19588 0.0
H689 H 0.69902 0.99708 0.13385 0.0
H690 H 0.72086 0.07631 0.99169 0.0
H691 H 0.73126 0.10792 0.07467 0.0
H692 H 0.68452 0.04539 0.19891 0.0
C693 C 0.65529 0.97593 0.01015 0.0
C694 C 0.65758 0.97479 0.9463 0.0
C695 C 0.67522 0.99747 0.91462 0.0
C696 C 0.68979 0.02099 0.94539 0.0
C697 C 0.68663 0.02161 1.00804 0.0
C698 C 0.66997 0.99965 0.04022 0.0
C699 C 0.66898 1.00593 0.10672 0.0
C700 C 0.64147 0.99919 0.12518 0.0
C701 C 0.67917 0.99214 0.14762 0.0
C702 C 0.68724 0.03489 0.10657 0.0
C703 C 0.69732 0.04353 0.04925 0.0
C704 C 0.7134 0.06972 0.03699 0.0
C705 C 0.71917 0.08755 0.0844 0.0
C706 C 0.70895 0.07917 0.14347 0.0
C707 C 0.69303 0.05241 0.15458 0.0
H708 H 0.70422 0.63309 0.19665 0.0
H709 H 0.69438 0.66338 0.0256 0.0
H710 H 0.67737 0.68759 0.08092 0.0
H711 H 0.64688 0.62288 0.26379 0.0
H712 H 0.65977 0.63216 0.33959 0.0
H713 H 0.67386 0.61941 0.2876 0.0
H714 H 0.71871 0.66026 0.30218 0.0
H715 H 0.70477 0.6731 0.35459 0.0
H716 H 0.72236 0.69167 0.28908 0.0
H717 H 0.65706 0.70475 0.15324 0.0
H718 H 0.63661 0.71504 0.23814 0.0
H719 H 0.66042 0.67464 0.36293 0.0
C720 C 0.69907 0.6453 0.17094 0.0
C721 C 0.7008 0.64641 0.10669 0.0
C722 C 0.69338 0.66226 0.07477 0.0
C723 C 0.68368 0.67613 0.10582 0.0
C724 C 0.68163 0.67412 0.16895 0.0
C725 C 0.68934 0.65931 0.20129 0.0
C726 C 0.68374 0.65931 0.26862 0.0
C727 C 0.66495 0.63181 0.2912 0.0
C728 C 0.7089 0.67184 0.30581 0.0
C729 C 0.67118 0.67597 0.26885 0.0
C730 C 0.67024 0.68438 0.21089 0.0
C731 C 0.65807 0.69863 0.19898 0.0
C732 C 0.64644 0.70433 0.24748 0.0
C733 C 0.64715 0.69591 0.30727 0.0
C734 C 0.65998 0.68179 0.31796 0.0
H735 H 0.05273 0.67154 0.2522 0.0
H736 H 0.11503 0.72083 0.37476 0.0
H737 H 0.08352 0.71051 0.45764 0.0
H738 H 1.00294 0.68469 0.31672 0.0
H739 H 0.97754 0.65169 0.30721 0.0
H740 H 1.0045 0.66549 0.25537 0.0
H741 H 1.01359 0.62837 0.27941 0.0
H742 H 0.98676 0.61453 0.33136 0.0
H743 H 1.01847 0.62233 0.35726 0.0
H744 H 0.04613 0.69172 0.52959 0.0
H745 H 1.00555 0.66544 0.58593 0.0
H746 H 0.96708 0.62782 0.4177 0.0
C747 C 0.05965 0.6807 0.29604 0.0
C748 C 0.08635 0.69723 0.30681 0.0
C749 C 0.09469 0.70825 0.36531 0.0
C750 C 0.07691 0.70255 0.41268 0.0
C751 C 0.0508 0.68575 0.40099 0.0
C752 C 0.04214 0.67501 0.34409 0.0
C753 C 1.01332 0.6559 0.34501 0.0
C754 C 0.99871 0.665 0.30362 0.0
C755 C 1.00772 0.62868 0.32722 0.0
C756 C 1.00728 0.65714 0.41155 0.0
C757 C 1.02914 0.67469 0.44283 0.0
C758 C 1.02881 0.67818 0.50543 0.0
C759 C 1.00564 0.66311 0.53709 0.0
C760 C 0.98305 0.64469 0.50627 0.0
C761 C 0.98388 0.64204 0.44245 0.0
H762 H 0.40204 0.0429 0.42131 0.0
H763 H 0.41866 0.10633 0.54365 0.0
H764 H 0.39755 0.07534 0.62756 0.0
H765 H 0.33928 0.99517 0.48833 0.0
H766 H 0.34553 0.96887 0.47825 0.0
H767 H 0.35917 0.99569 0.42609 0.0
H768 H 0.40493 1.00298 0.44814 0.0
H769 H 0.39146 0.97626 0.50033 0.0
H770 H 0.41639 1.0076 0.52555 0.0
H771 H 0.37799 0.03803 0.70001 0.0
H772 H 0.36244 0.99727 0.7564 0.0
H773 H 0.35895 0.95783 0.58778 0.0
C774 C 0.40069 0.05022 0.4654 0.0
C775 C 0.41177 0.07705 0.47575 0.0
C776 C 0.41019 0.08588 0.53453 0.0
C777 C 0.39817 0.06841 0.58246 0.0
C778 C 0.38784 0.04213 0.57103 0.0
C779 C 0.38896 0.03304 0.51395 0.0
C780 C 0.37824 1.00407 0.51497 0.0
C781 C 0.35412 0.99013 0.47451 0.0
C782 C 0.399 0.99734 0.49615 0.0
C783 C 0.37137 0.99837 0.58175 0.0
C784 C 0.37681 1.02057 0.6131 0.0
C785 C 0.37338 1.02047 0.67581 0.0
C786 C 0.36454 0.99719 0.70748 0.0
C787 C 0.35929 0.97427 0.67657 0.0
C788 C 0.36239 0.97489 0.61266 0.0
H789 H 0.36324 0.41067 0.69253 0.0
H790 H 0.37196 0.38005 0.52069 0.0
H791 H 0.38762 0.3545 0.57539 0.0
H792 H 0.41996 0.41855 0.75964 0.0
H793 H 0.40683 0.40951 0.83524 0.0
H794 H 0.39377 0.42332 0.78337 0.0
H795 H 0.34808 0.38361 0.79729 0.0
H796 H 0.361 0.36968 0.84943 0.0
H797 H 0.34304 0.3517 0.78355 0.0
H798 H 0.40615 0.33538 0.64774 0.0
H799 H 0.42548 0.3237 0.73259 0.0
H800 H 0.40426 0.36619 0.85764 0.0
C801 C 0.36792 0.39818 0.66648 0.0
C802 C 0.3662 0.39728 0.60224 0.0
C803 C 0.37299 0.38102 0.56988 0.0
C804 C 0.38189 0.36638 0.60057 0.0
C805 C 0.38384 0.36809 0.66377 0.0
C806 C 0.37691 0.38346 0.69644 0.0
C807 C 0.38228 0.38302 0.76374 0.0
C808 C 0.40187 0.41021 0.78682 0.0
C809 C 0.3571 0.3713 0.80068 0.0
C810 C 0.39374 0.36541 0.76364 0.0
C811 C 0.39435 0.35689 0.70556 0.0
C812 C 0.40544 0.34163 0.69355 0.0
C813 C 0.41641 0.33511 0.74204 0.0
C814 C 0.41618 0.34378 0.80189 0.0
C815 C 0.40436 0.35885 0.81265 0.0
loop_
_geom_bond_atom_site_label_1
_geom_bond_atom_site_label_2
_geom_bond_distance
_geom_bond_site_symmetry_2
_ccdc_geom_bond_type
O0 Cd1 2.223 . S
O0 C8 1.315 . S
Cd1 O0 2.223 . S
Cd1 O4 2.297 . S
Cd1 O5 2.439 1_554 S
Cd1 O11 2.240 . S
Cd2 O3 2.240 . S
Cd2 O10 2.223 . S
Cd2 O12 2.297 1_554 S
Cd2 O13 2.439 1_554 S
O3 Cd2 2.240 . S
O3 C8 1.279 . S
O4 Cd1 2.297 . S
O4 C6 1.247 . S
O5 Cd1 2.439 1_556 S
O5 C6 1.208 1_556 S
C6 O4 1.247 . S
C6 O5 1.208 1_554 S
C7 O12 1.247 . S
C7 O13 1.208 . S
C8 O0 1.315 . S
C8 O3 1.279 . S
C9 O10 1.315 . S
C9 O11 1.279 . S
O10 Cd2 2.223 . S
O10 C9 1.315 . S
O11 Cd1 2.240 . S
O11 C9 1.279 . S
O12 Cd2 2.297 1_556 S
O12 C7 1.247 . S
O13 Cd2 2.439 1_556 S
O13 C7 1.208 . S
O14 Cd15 2.223 . S
O14 C22 1.315 . S
Cd15 O14 2.223 . S
Cd15 O18 2.297 . S
Cd15 O19 2.439 . S
Cd15 O25 2.240 . S
Cd16 O17 2.240 . S
Cd16 O24 2.223 . S
Cd16 O26 2.297 . S
Cd16 O27 2.439 . S
O17 Cd16 2.240 . S
O17 C22 1.279 . S
O18 Cd15 2.297 . S
O18 C20 1.247 . S
O19 Cd15 2.439 . S
O19 C20 1.208 . S
C20 O18 1.247 . S
C20 O19 1.208 . S
C21 O26 1.247 . S
C21 O27 1.208 . S
C22 O14 1.315 . S
C22 O17 1.279 . S
C23 O24 1.315 . S
C23 O25 1.279 . S
O24 Cd16 2.223 . S
O24 C23 1.315 . S
O25 Cd15 2.240 . S
O25 C23 1.279 . S
O26 Cd16 2.297 . S
O26 C21 1.247 . S
O27 Cd16 2.439 . S
O27 C21 1.208 . S
O28 Cd29 2.223 . S
O28 C36 1.315 . S
Cd29 O28 2.223 . S
Cd29 O32 2.297 . S
Cd29 O33 2.439 . S
Cd29 O39 2.240 . S
Cd30 O31 2.240 . S
Cd30 O38 2.223 . S
Cd30 O40 2.297 . S
Cd30 O41 2.439 . S
O31 Cd30 2.240 . S
O31 C36 1.279 . S
O32 Cd29 2.297 . S
O32 C34 1.247 . S
O33 Cd29 2.439 . S
O33 C34 1.208 . S
C34 O32 1.247 . S
C34 O33 1.208 . S
C35 O40 1.247 . S
C35 O41 1.208 . S
C36 O28 1.315 . S
C36 O31 1.279 . S
C37 O38 1.315 . S
C37 O39 1.279 . S
O38 Cd30 2.223 . S
O38 C37 1.315 . S
O39 Cd29 2.240 . S
O39 C37 1.279 . S
O40 Cd30 2.297 . S
O40 C35 1.247 . S
O41 Cd30 2.439 . S
O41 C35 1.208 . S
O42 Cd43 2.223 . S
O42 C50 1.315 . S
Cd43 O42 2.223 . S
Cd43 O46 2.297 . S
Cd43 O47 2.439 . S
Cd43 O53 2.240 . S
Cd44 O45 2.240 . S
Cd44 O52 2.223 . S
Cd44 O54 2.297 . S
Cd44 O55 2.439 . S
O45 Cd44 2.240 . S
O45 C50 1.279 . S
O46 Cd43 2.297 . S
O46 C48 1.247 . S
O47 Cd43 2.439 . S
O47 C48 1.208 . S
C48 O46 1.247 . S
C48 O47 1.208 . S
C49 O54 1.247 . S
C49 O55 1.208 . S
C50 O42 1.315 . S
C50 O45 1.279 . S
C51 O52 1.315 . S
C51 O53 1.279 . S
O52 Cd44 2.223 . S
O52 C51 1.315 . S
O53 Cd43 2.240 . S
O53 C51 1.279 . S
O54 Cd44 2.297 . S
O54 C49 1.247 . S
O55 Cd44 2.439 . S
O55 C49 1.208 . S
O56 Cd57 2.223 . S
O56 C64 1.315 . S
Cd57 O56 2.223 . S
Cd57 O60 2.297 . S
Cd57 O61 2.439 . S
Cd57 O67 2.240 . S
Cd58 O59 2.240 . S
Cd58 O66 2.223 . S
Cd58 O68 2.297 . S
Cd58 O69 2.439 . S
O59 Cd58 2.240 . S
O59 C64 1.279 . S
O60 Cd57 2.297 . S
O60 C62 1.247 . S
O61 Cd57 2.439 . S
O61 C62 1.208 . S
C62 O60 1.247 . S
C62 O61 1.208 . S
C63 O68 1.247 . S
C63 O69 1.208 . S
C64 O56 1.315 . S
C64 O59 1.279 . S
C65 O66 1.315 . S
C65 O67 1.279 . S
O66 Cd58 2.223 . S
O66 C65 1.315 . S
O67 Cd57 2.240 . S
O67 C65 1.279 . S
O68 Cd58 2.297 . S
O68 C63 1.247 . S
O69 Cd58 2.439 . S
O69 C63 1.208 . S
O70 Cd71 2.223 . S
O70 C78 1.315 . S
Cd71 O70 2.223 . S
Cd71 O74 2.297 . S
Cd71 O75 2.439 . S
Cd71 O81 2.240 . S
Cd72 O73 2.240 . S
Cd72 O80 2.223 . S
Cd72 O82 2.297 . S
Cd72 O83 2.439 . S
O73 Cd72 2.240 . S
O73 C78 1.279 . S
O74 Cd71 2.297 . S
O74 C76 1.247 . S
O75 Cd71 2.439 . S
O75 C76 1.208 . S
C76 O74 1.247 . S
C76 O75 1.208 . S
C77 O82 1.247 . S
C77 O83 1.208 . S
C78 O70 1.315 . S
C78 O73 1.279 . S
C79 O80 1.315 . S
C79 O81 1.279 . S
O80 Cd72 2.223 . S
O80 C79 1.315 . S
O81 Cd71 2.240 . S
O81 C79 1.279 . S
O82 Cd72 2.297 . S
O82 C77 1.247 . S
O83 Cd72 2.439 . S
O83 C77 1.208 . S
O84 Cd85 2.223 . S
O84 C92 1.315 . S
Cd85 O84 2.223 . S
Cd85 O88 2.297 . S
Cd85 O89 2.439 . S
Cd85 O95 2.240 . S
Cd86 O87 2.240 . S
Cd86 O94 2.223 . S
Cd86 O96 2.297 . S
Cd86 O97 2.439 . S
O87 Cd86 2.240 . S
O87 C92 1.279 . S
O88 Cd85 2.297 . S
O88 C90 1.247 . S
O89 Cd85 2.439 . S
O89 C90 1.208 . S
C90 O88 1.247 . S
C90 O89 1.208 . S
C91 O96 1.247 . S
C91 O97 1.208 . S
C92 O84 1.315 . S
C92 O87 1.279 . S
C93 O94 1.315 . S
C93 O95 1.279 . S
O94 Cd86 2.223 . S
O94 C93 1.315 . S
O95 Cd85 2.240 . S
O95 C93 1.279 . S
O96 Cd86 2.297 . S
O96 C91 1.247 . S
O97 Cd86 2.439 . S
O97 C91 1.208 . S
O98 Cd99 2.223 1_556 S
O98 C106 1.315 1_556 S
Cd99 O98 2.223 1_554 S
Cd99 O102 2.297 . S
Cd99 O103 2.439 . S
Cd99 O109 2.240 . S
Cd100 O101 2.240 . S
Cd100 O108 2.233 . S
Cd100 O110 2.297 . S
Cd100 O111 2.439 . S
O101 Cd100 2.240 . S
O101 C106 1.279 . S
O102 Cd99 2.297 . S
O102 C104 1.247 . S
O103 Cd99 2.439 . S
O103 C104 1.208 . S
C104 O102 1.247 . S
C104 O103 1.208 . S
C105 O110 1.247 . S
C105 O111 1.208 . S
C106 O98 1.315 1_554 S
C106 O101 1.279 . S
C107 O108 1.311 1_556 S
C107 O109 1.279 1_556 S
O108 Cd100 2.233 . S
O108 C107 1.311 1_554 S
O109 Cd99 2.240 . S
O109 C107 1.279 1_554 S
O110 Cd100 2.297 . S
O110 C105 1.247 . S
O111 Cd100 2.439 . S
O111 C105 1.208 . S
O112 Cd113 2.223 . S
O112 C120 1.315 . S
Cd113 O112 2.223 . S
Cd113 O116 2.297 . S
Cd113 O117 2.439 . S
Cd113 O123 2.240 . S
Cd114 O115 2.240 . S
Cd114 O122 2.223 . S
Cd114 O124 2.297 . S
Cd114 O125 2.439 . S
O115 Cd114 2.240 . S
O115 C120 1.279 . S
O116 Cd113 2.297 . S
O116 C118 1.247 . S
O117 Cd113 2.439 . S
O117 C118 1.208 . S
C118 O116 1.247 . S
C118 O117 1.208 . S
C119 O124 1.247 . S
C119 O125 1.208 . S
C120 O112 1.315 . S
C120 O115 1.279 . S
C121 O122 1.315 . S
C121 O123 1.279 . S
O122 Cd114 2.223 . S
O122 C121 1.315 . S
O123 Cd113 2.240 . S
O123 C121 1.279 . S
O124 Cd114 2.297 . S
O124 C119 1.247 . S
O125 Cd114 2.439 . S
O125 C119 1.208 . S
O126 Cd127 2.223 . S
O126 C134 1.315 . S
Cd127 O126 2.223 . S
Cd127 O130 2.297 . S
Cd127 O131 2.439 . S
Cd127 O137 2.240 . S
Cd128 O129 2.240 . S
Cd128 O136 2.223 . S
Cd128 O138 2.297 . S
Cd128 O139 2.439 . S
O129 Cd128 2.240 . S
O129 C134 1.279 . S
O130 Cd127 2.297 . S
O130 C132 1.247 . S
O131 Cd127 2.439 . S
O131 C132 1.208 . S
C132 O130 1.247 . S
C132 O131 1.208 . S
C133 O138 1.247 . S
C133 O139 1.208 . S
C134 O126 1.315 . S
C134 O129 1.279 . S
C135 O136 1.315 . S
C135 O137 1.279 . S
O136 Cd128 2.223 . S
O136 C135 1.315 . S
O137 Cd127 2.240 . S
O137 C135 1.279 . S
O138 Cd128 2.297 . S
O138 C133 1.247 . S
O139 Cd128 2.439 . S
O139 C133 1.208 . S
O140 Cd141 2.223 . S
O140 C148 1.315 . S
Cd141 O140 2.223 . S
Cd141 O144 2.297 . S
Cd141 O145 2.439 . S
Cd141 O151 2.240 . S
Cd142 O143 2.240 . S
Cd142 O150 2.223 . S
Cd142 O152 2.297 . S
Cd142 O153 2.439 . S
O143 Cd142 2.240 . S
O143 C148 1.279 . S
O144 Cd141 2.297 . S
O144 C146 1.247 . S
O145 Cd141 2.439 . S
O145 C146 1.208 . S
C146 O144 1.247 . S
C146 O145 1.208 . S
C147 O152 1.247 . S
C147 O153 1.208 . S
C148 O140 1.315 . S
C148 O143 1.279 . S
C149 O150 1.315 . S
C149 O151 1.279 . S
O150 Cd142 2.223 . S
O150 C149 1.315 . S
O151 Cd141 2.240 . S
O151 C149 1.279 . S
O152 Cd142 2.297 . S
O152 C147 1.247 . S
O153 Cd142 2.439 . S
O153 C147 1.208 . S
O154 Cd155 2.223 . S
O154 C162 1.315 . S
Cd155 O154 2.223 . S
Cd155 O158 2.297 . S
Cd155 O159 2.439 . S
Cd155 O165 2.240 . S
Cd156 O157 2.240 . S
Cd156 O164 2.223 . S
Cd156 O166 2.297 . S
Cd156 O167 2.439 . S
O157 Cd156 2.240 . S
O157 C162 1.279 . S
O158 Cd155 2.297 . S
O158 C160 1.247 . S
O159 Cd155 2.439 . S
O159 C160 1.208 . S
C160 O158 1.247 . S
C160 O159 1.208 . S
C161 O166 1.247 . S
C161 O167 1.208 . S
C162 O154 1.315 . S
C162 O157 1.279 . S
C163 O164 1.315 . S
C163 O165 1.279 . S
O164 Cd156 2.223 . S
O164 C163 1.315 . S
O165 Cd155 2.240 . S
O165 C163 1.279 . S
O166 Cd156 2.297 . S
O166 C161 1.247 . S
O167 Cd156 2.439 . S
O167 C161 1.208 . S
H168 C180 0.930 . S
H169 C182 0.930 . S
H170 C183 0.930 . S
H171 C187 0.959 . S
H172 C187 0.959 . S
H173 C187 0.961 . S
H174 C188 0.960 . S
H175 C188 0.961 . S
H176 C188 0.959 . S
H177 C191 0.929 . S
H178 C192 0.931 . S
H179 C194 0.930 . S
C180 H168 0.930 . S
C180 C181 1.399 . S
C180 C185 1.399 . S
C181 C180 1.399 . S
C181 C182 1.376 . S
C182 H169 0.930 . S
C182 C181 1.376 . S
C182 C183 1.388 . S
C183 H170 0.930 . S
C183 C182 1.388 . S
C183 C184 1.390 . S
C184 C183 1.390 . S
C184 C185 1.394 . S
C184 C190 1.465 . S
C185 C180 1.399 . S
C185 C184 1.394 . S
C185 C186 1.516 . S
C186 C185 1.516 . S
C186 C187 1.502 . S
C186 C188 1.561 . S
C186 C189 1.526 . S
C187 H171 0.959 . S
C187 H172 0.959 . S
C187 H173 0.961 . S
C187 C186 1.502 . S
C188 H174 0.960 . S
C188 H175 0.961 . S
C188 H176 0.959 . S
C188 C186 1.561 . S
C189 C186 1.526 . S
C189 C190 1.396 . S
C189 C194 1.390 . S
C190 C184 1.465 . S
C190 C189 1.396 . S
C190 C191 1.399 . S
C191 H177 0.929 . S
C191 C190 1.399 . S
C191 C192 1.385 . S
C192 H178 0.931 . S
C192 C191 1.385 . S
C192 C193 1.389 . S
C193 C192 1.389 . S
C193 C194 1.387 . S
C194 H179 0.930 . S
C194 C189 1.390 . S
C194 C193 1.387 . S
H195 C207 0.930 . S
H196 C209 0.930 . S
H197 C210 0.930 . S
H198 C214 0.959 . S
H199 C214 0.959 . S
H200 C214 0.961 . S
H201 C215 0.960 . S
H202 C215 0.961 . S
H203 C215 0.959 . S
H204 C218 0.929 . S
H205 C219 0.931 . S
H206 C221 0.930 . S
C207 H195 0.930 . S
C207 C208 1.399 . S
C207 C212 1.399 . S
C208 C207 1.399 . S
C208 C209 1.376 . S
C209 H196 0.930 . S
C209 C208 1.376 . S
C209 C210 1.388 . S
C210 H197 0.930 . S
C210 C209 1.388 . S
C210 C211 1.390 . S
C211 C210 1.390 . S
C211 C212 1.394 . S
C211 C217 1.465 . S
C212 C207 1.399 . S
C212 C211 1.394 . S
C212 C213 1.516 . S
C213 C212 1.516 . S
C213 C214 1.502 . S
C213 C215 1.561 . S
C213 C216 1.526 . S
C214 H198 0.959 . S
C214 H199 0.959 . S
C214 H200 0.961 . S
C214 C213 1.502 . S
C215 H201 0.960 . S
C215 H202 0.961 . S
C215 H203 0.959 . S
C215 C213 1.561 . S
C216 C213 1.526 . S
C216 C217 1.396 . S
C216 C221 1.390 . S
C217 C211 1.465 . S
C217 C216 1.396 . S
C217 C218 1.399 . S
C218 H204 0.929 . S
C218 C217 1.399 . S
C218 C219 1.385 . S
C219 H205 0.931 . S
C219 C218 1.385 . S
C219 C220 1.389 . S
C220 C219 1.389 . S
C220 C221 1.387 . S
C221 H206 0.930 . S
C221 C216 1.390 . S
C221 C220 1.387 . S
H222 C234 0.930 . S
H223 C236 0.930 . S
H224 C237 0.930 . S
H225 C241 0.959 . S
H226 C241 0.959 . S
H227 C241 0.961 . S
H228 C242 0.960 . S
H229 C242 0.961 . S
H230 C242 0.959 . S
H231 C245 0.929 . S
H232 C246 0.931 . S
H233 C248 0.930 . S
C234 H222 0.930 . S
C234 C235 1.399 . S
C234 C239 1.399 . S
C235 C234 1.399 . S
C235 C236 1.376 . S
C236 H223 0.930 . S
C236 C235 1.376 . S
C236 C237 1.388 . S
C237 H224 0.930 . S
C237 C236 1.388 . S
C237 C238 1.390 . S
C238 C237 1.390 . S
C238 C239 1.394 . S
C238 C244 1.465 . S
C239 C234 1.399 . S
C239 C238 1.394 . S
C239 C240 1.516 . S
C240 C239 1.516 . S
C240 C241 1.502 . S
C240 C242 1.561 . S
C240 C243 1.526 . S
C241 H225 0.959 . S
C241 H226 0.959 . S
C241 H227 0.961 . S
C241 C240 1.502 . S
C242 H228 0.960 . S
C242 H229 0.961 . S
C242 H230 0.959 . S
C242 C240 1.561 . S
C243 C240 1.526 . S
C243 C244 1.396 . S
C243 C248 1.390 . S
C244 C238 1.465 . S
C244 C243 1.396 . S
C244 C245 1.399 . S
C245 H231 0.929 . S
C245 C244 1.399 . S
C245 C246 1.385 . S
C246 H232 0.931 . S
C246 C245 1.385 . S
C246 C247 1.389 . S
C247 C246 1.389 . S
C247 C248 1.387 . S
C248 H233 0.930 . S
C248 C243 1.390 . S
C248 C247 1.387 . S
H249 C261 0.930 . S
H250 C263 0.930 . S
H251 C264 0.930 . S
H252 C268 0.959 . S
H253 C268 0.959 . S
H254 C268 0.961 . S
H255 C269 0.960 . S
H256 C269 0.961 . S
H257 C269 0.959 . S
H258 C272 0.929 . S
H259 C273 0.931 . S
H260 C275 0.930 . S
C261 H249 0.930 . S
C261 C262 1.399 . S
C261 C266 1.399 . S
C262 C261 1.399 . S
C262 C263 1.376 . S
C263 H250 0.930 . S
C263 C262 1.376 . S
C263 C264 1.388 . S
C264 H251 0.930 . S
C264 C263 1.388 . S
C264 C265 1.390 . S
C265 C264 1.390 . S
C265 C266 1.394 . S
C265 C271 1.465 . S
C266 C261 1.399 . S
C266 C265 1.394 . S
C266 C267 1.516 . S
C267 C266 1.516 . S
C267 C268 1.502 . S
C267 C269 1.561 . S
C267 C270 1.526 . S
C268 H252 0.959 . S
C268 H253 0.959 . S
C268 H254 0.961 . S
C268 C267 1.502 . S
C269 H255 0.960 . S
C269 H256 0.961 . S
C269 H257 0.959 . S
C269 C267 1.561 . S
C270 C267 1.526 . S
C270 C271 1.396 . S
C270 C275 1.390 . S
C271 C265 1.465 . S
C271 C270 1.396 . S
C271 C272 1.399 . S
C272 H258 0.929 . S
C272 C271 1.399 . S
C272 C273 1.385 . S
C273 H259 0.931 . S
C273 C272 1.385 . S
C273 C274 1.389 . S
C274 C273 1.389 . S
C274 C275 1.387 . S
C275 H260 0.930 . S
C275 C270 1.390 . S
C275 C274 1.387 . S
H276 C288 0.930 . S
H277 C290 0.930 . S
H278 C291 0.930 1_554 S
H279 C295 0.959 . S
H280 C295 0.959 . S
H281 C295 0.961 . S
H282 C296 0.960 . S
H283 C296 0.961 . S
H284 C296 0.959 . S
H285 C299 0.929 . S
H286 C300 0.931 . S
H287 C302 0.930 1_556 S
C288 H276 0.930 . S
C288 C289 1.399 . S
C288 C293 1.399 . S
C289 C288 1.399 . S
C289 C290 1.376 . S
C290 H277 0.930 . S
C290 C289 1.376 . S
C290 C291 1.388 . S
C291 H278 0.930 1_556 S
C291 C290 1.388 . S
C291 C292 1.390 . S
C292 C291 1.390 . S
C292 C293 1.394 . S
C292 C298 1.465 1_556 S
C293 C288 1.399 . S
C293 C292 1.394 . S
C293 C294 1.516 . S
C294 C293 1.516 . S
C294 C295 1.502 . S
C294 C296 1.561 . S
C294 C297 1.526 . S
C295 H279 0.959 . S
C295 H280 0.959 . S
C295 H281 0.961 . S
C295 C294 1.502 . S
C296 H282 0.960 . S
C296 H283 0.961 . S
C296 H284 0.959 . S
C296 C294 1.561 . S
C297 C294 1.526 . S
C297 C298 1.396 1_556 S
C297 C302 1.390 1_556 S
C298 C292 1.465 1_554 S
C298 C297 1.396 1_554 S
C298 C299 1.399 . S
C299 H285 0.929 . S
C299 C298 1.399 . S
C299 C300 1.385 . S
C300 H286 0.931 . S
C300 C299 1.385 . S
C300 C301 1.389 . S
C301 C300 1.389 . S
C301 C302 1.387 . S
C302 H287 0.930 1_554 S
C302 C297 1.390 1_554 S
C302 C301 1.387 . S
H303 C315 0.930 . S
H304 C317 0.930 . S
H305 C318 0.930 . S
H306 C322 0.959 . S
H307 C322 0.959 . S
H308 C322 0.961 . S
H309 C323 0.960 . S
H310 C323 0.961 . S
H311 C323 0.959 . S
H312 C326 0.929 . S
H313 C327 0.931 . S
H314 C329 0.930 1_556 S
C315 H303 0.930 . S
C315 C316 1.399 . S
C315 C320 1.399 . S
C316 C315 1.399 . S
C316 C317 1.376 . S
C317 H304 0.930 . S
C317 C316 1.376 . S
C317 C318 1.388 . S
C318 H305 0.930 . S
C318 C317 1.388 . S
C318 C319 1.390 . S
C319 C318 1.390 . S
C319 C320 1.394 . S
C319 C325 1.465 . S
C320 C315 1.399 . S
C320 C319 1.394 . S
C320 C321 1.516 . S
C321 C320 1.516 . S
C321 C322 1.502 . S
C321 C323 1.561 . S
C321 C324 1.526 . S
C322 H306 0.959 . S
C322 H307 0.959 . S
C322 H308 0.961 . S
C322 C321 1.502 . S
C323 H309 0.960 . S
C323 H310 0.961 . S
C323 H311 0.959 . S
C323 C321 1.561 . S
C324 C321 1.526 . S
C324 C325 1.396 . S
C324 C329 1.390 . S
C325 C319 1.465 . S
C325 C324 1.396 . S
C325 C326 1.399 . S
C326 H312 0.929 . S
C326 C325 1.399 . S
C326 C327 1.385 . S
C327 H313 0.931 . S
C327 C326 1.385 . S
C327 C328 1.389 . S
C328 C327 1.389 . S
C328 C329 1.387 . S
C329 H314 0.930 1_554 S
C329 C324 1.390 . S
C329 C328 1.387 . S
H330 C342 0.930 . S
H331 C344 0.930 . S
H332 C345 0.930 . S
H333 C349 0.959 . S
H334 C349 0.959 . S
H335 C349 0.961 . S
H336 C350 0.960 . S
H337 C350 0.961 . S
H338 C350 0.959 . S
H339 C353 0.929 . S
H340 C354 0.931 . S
H341 C356 0.930 . S
C342 H330 0.930 . S
C342 C343 1.399 . S
C342 C347 1.399 . S
C343 C342 1.399 . S
C343 C344 1.376 . S
C344 H331 0.930 . S
C344 C343 1.376 . S
C344 C345 1.388 . S
C345 H332 0.930 . S
C345 C344 1.388 . S
C345 C346 1.390 . S
C346 C345 1.390 . S
C346 C347 1.394 . S
C346 C352 1.465 . S
C347 C342 1.399 . S
C347 C346 1.394 . S
C347 C348 1.516 . S
C348 C347 1.516 . S
C348 C349 1.502 . S
C348 C350 1.561 . S
C348 C351 1.526 . S
C349 H333 0.959 . S
C349 H334 0.959 . S
C349 H335 0.961 . S
C349 C348 1.502 . S
C350 H336 0.960 . S
C350 H337 0.961 . S
C350 H338 0.959 . S
C350 C348 1.561 . S
C351 C348 1.526 . S
C351 C352 1.396 . S
C351 C356 1.390 . S
C352 C346 1.465 . S
C352 C351 1.396 . S
C352 C353 1.399 . S
C353 H339 0.929 . S
C353 C352 1.399 . S
C353 C354 1.385 . S
C354 H340 0.931 . S
C354 C353 1.385 . S
C354 C355 1.389 . S
C355 C354 1.389 . S
C355 C356 1.387 . S
C356 H341 0.930 . S
C356 C351 1.390 . S
C356 C355 1.387 . S
H357 C369 0.930 . S
H358 C371 0.930 . S
H359 C372 0.930 . S
H360 C376 0.959 . S
H361 C376 0.959 . S
H362 C376 0.961 . S
H363 C377 0.960 . S
H364 C377 0.961 . S
H365 C377 0.959 . S
H366 C380 0.929 . S
H367 C381 0.931 . S
H368 C383 0.930 . S
C369 H357 0.930 . S
C369 C370 1.399 . S
C369 C374 1.399 . S
C370 C369 1.399 . S
C370 C371 1.376 . S
C371 H358 0.930 . S
C371 C370 1.376 . S
C371 C372 1.388 . S
C372 H359 0.930 . S
C372 C371 1.388 . S
C372 C373 1.390 . S
C373 C372 1.390 . S
C373 C374 1.394 . S
C373 C379 1.465 . S
C374 C369 1.399 . S
C374 C373 1.394 . S
C374 C375 1.516 . S
C375 C374 1.516 . S
C375 C376 1.502 . S
C375 C377 1.561 . S
C375 C378 1.526 . S
C376 H360 0.959 . S
C376 H361 0.959 . S
C376 H362 0.961 . S
C376 C375 1.502 . S
C377 H363 0.960 . S
C377 H364 0.961 . S
C377 H365 0.959 . S
C377 C375 1.561 . S
C378 C375 1.526 . S
C378 C379 1.396 . S
C378 C383 1.390 . S
C379 C373 1.465 . S
C379 C378 1.396 . S
C379 C380 1.399 . S
C380 H366 0.929 . S
C380 C379 1.399 . S
C380 C381 1.385 . S
C381 H367 0.931 . S
C381 C380 1.385 . S
C381 C382 1.389 . S
C382 C381 1.389 . S
C382 C383 1.387 . S
C383 H368 0.930 . S
C383 C378 1.390 . S
C383 C382 1.387 . S
H384 C396 0.930 . S
H385 C398 0.930 . S
H386 C399 0.930 . S
H387 C403 0.959 . S
H388 C403 0.959 . S
H389 C403 0.961 . S
H390 C404 0.960 . S
H391 C404 0.961 . S
H392 C404 0.959 . S
H393 C407 0.929 . S
H394 C408 0.931 . S
H395 C410 0.930 . S
C396 H384 0.930 . S
C396 C397 1.399 . S
C396 C401 1.399 . S
C397 C396 1.399 . S
C397 C398 1.376 . S
C398 H385 0.930 . S
C398 C397 1.376 . S
C398 C399 1.388 . S
C399 H386 0.930 . S
C399 C398 1.388 . S
C399 C400 1.390 . S
C400 C399 1.390 . S
C400 C401 1.394 . S
C400 C406 1.465 . S
C401 C396 1.399 . S
C401 C400 1.394 . S
C401 C402 1.516 . S
C402 C401 1.516 . S
C402 C403 1.502 . S
C402 C404 1.561 . S
C402 C405 1.526 . S
C403 H387 0.959 . S
C403 H388 0.959 . S
C403 H389 0.961 . S
C403 C402 1.502 . S
C404 H390 0.960 . S
C404 H391 0.961 . S
C404 H392 0.959 . S
C404 C402 1.561 . S
C405 C402 1.526 . S
C405 C406 1.396 . S
C405 C410 1.390 . S
C406 C400 1.465 . S
C406 C405 1.396 . S
C406 C407 1.399 . S
C407 H393 0.929 . S
C407 C406 1.399 . S
C407 C408 1.385 . S
C408 H394 0.931 . S
C408 C407 1.385 . S
C408 C409 1.389 . S
C409 C408 1.389 . S
C409 C410 1.387 . S
C410 H395 0.930 . S
C410 C405 1.390 . S
C410 C409 1.387 . S
H411 C423 0.930 . S
H412 C425 0.930 . S
H413 C426 0.930 . S
H414 C430 0.959 . S
H415 C430 0.959 . S
H416 C430 0.961 . S
H417 C431 0.960 . S
H418 C431 0.961 . S
H419 C431 0.959 . S
H420 C434 0.929 . S
H421 C435 0.931 . S
H422 C437 0.930 . S
C423 H411 0.930 . S
C423 C424 1.399 . S
C423 C428 1.399 . S
C424 C423 1.399 . S
C424 C425 1.376 . S
C425 H412 0.930 . S
C425 C424 1.376 . S
C425 C426 1.388 . S
C426 H413 0.930 . S
C426 C425 1.388 . S
C426 C427 1.390 . S
C427 C426 1.390 . S
C427 C428 1.394 . S
C427 C433 1.465 . S
C428 C423 1.399 . S
C428 C427 1.394 . S
C428 C429 1.516 . S
C429 C428 1.516 . S
C429 C430 1.502 . S
C429 C431 1.561 . S
C429 C432 1.526 . S
C430 H414 0.959 . S
C430 H415 0.959 . S
C430 H416 0.961 . S
C430 C429 1.502 . S
C431 H417 0.960 . S
C431 H418 0.961 . S
C431 H419 0.959 . S
C431 C429 1.561 . S
C432 C429 1.526 . S
C432 C433 1.396 . S
C432 C437 1.390 . S
C433 C427 1.465 . S
C433 C432 1.396 . S
C433 C434 1.399 . S
C434 H420 0.929 . S
C434 C433 1.399 . S
C434 C435 1.385 . S
C435 H421 0.931 . S
C435 C434 1.385 . S
C435 C436 1.389 . S
C436 C435 1.389 . S
C436 C437 1.387 . S
C437 H422 0.930 . S
C437 C432 1.390 . S
C437 C436 1.387 . S
H438 C450 0.930 . S
H439 C452 0.930 . S
H440 C453 0.930 . S
H441 C457 0.959 . S
H442 C457 0.959 . S
H443 C457 0.961 . S
H444 C458 0.960 . S
H445 C458 0.961 . S
H446 C458 0.959 . S
H447 C461 0.929 . S
H448 C462 0.931 . S
H449 C464 0.930 . S
C450 H438 0.930 . S
C450 C451 1.399 . S
C450 C455 1.399 . S
C451 C450 1.399 . S
C451 C452 1.376 . S
C452 H439 0.930 . S
C452 C451 1.376 . S
C452 C453 1.388 . S
C453 H440 0.930 . S
C453 C452 1.388 . S
C453 C454 1.390 . S
C454 C453 1.390 . S
C454 C455 1.394 . S
C454 C460 1.465 . S
C455 C450 1.399 . S
C455 C454 1.394 . S
C455 C456 1.516 . S
C456 C455 1.516 . S
C456 C457 1.502 . S
C456 C458 1.561 . S
C456 C459 1.526 . S
C457 H441 0.959 . S
C457 H442 0.959 . S
C457 H443 0.961 . S
C457 C456 1.502 . S
C458 H444 0.960 . S
C458 H445 0.961 . S
C458 H446 0.959 . S
C458 C456 1.561 . S
C459 C456 1.526 . S
C459 C460 1.396 . S
C459 C464 1.390 . S
C460 C454 1.465 . S
C460 C459 1.396 . S
C460 C461 1.399 . S
C461 H447 0.929 . S
C461 C460 1.399 . S
C461 C462 1.385 . S
C462 H448 0.931 . S
C462 C461 1.385 . S
C462 C463 1.389 . S
C463 C462 1.389 . S
C463 C464 1.387 . S
C464 H449 0.930 . S
C464 C459 1.390 . S
C464 C463 1.387 . S
H465 C477 0.930 . S
H466 C479 0.930 . S
H467 C480 0.930 . S
H468 C484 0.959 . S
H469 C484 0.959 . S
H470 C484 0.961 . S
H471 C485 0.960 . S
H472 C485 0.961 . S
H473 C485 0.959 . S
H474 C488 0.929 . S
H475 C489 0.931 . S
H476 C491 0.930 . S
C477 H465 0.930 . S
C477 C478 1.399 . S
C477 C482 1.399 . S
C478 C477 1.399 . S
C478 C479 1.376 1_556 S
C479 H466 0.930 . S
C479 C478 1.376 1_554 S
C479 C480 1.388 . S
C480 H467 0.930 . S
C480 C479 1.388 . S
C480 C481 1.390 1_554 S
C481 C480 1.390 1_556 S
C481 C482 1.394 . S
C481 C487 1.465 1_556 S
C482 C477 1.399 . S
C482 C481 1.394 . S
C482 C483 1.516 . S
C483 C482 1.516 . S
C483 C484 1.502 . S
C483 C485 1.561 . S
C483 C486 1.526 . S
C484 H468 0.959 . S
C484 H469 0.959 . S
C484 H470 0.961 . S
C484 C483 1.502 . S
C485 H471 0.960 . S
C485 H472 0.961 . S
C485 H473 0.959 . S
C485 C483 1.561 . S
C486 C483 1.526 . S
C486 C487 1.396 1_556 S
C486 C491 1.390 . S
C487 C481 1.465 1_554 S
C487 C486 1.396 1_554 S
C487 C488 1.399 . S
C488 H474 0.929 . S
C488 C487 1.399 . S
C488 C489 1.385 . S
C489 H475 0.931 . S
C489 C488 1.385 . S
C489 C490 1.389 . S
C490 C489 1.389 . S
C490 C491 1.387 1_554 S
C491 H476 0.930 . S
C491 C486 1.390 . S
C491 C490 1.387 1_556 S
H492 C504 0.930 . S
H493 C506 0.930 . S
H494 C507 0.930 . S
H495 C511 0.959 . S
H496 C511 0.959 . S
H497 C511 0.961 . S
H498 C512 0.960 . S
H499 C512 0.961 . S
H500 C512 0.959 . S
H501 C515 0.929 . S
H502 C516 0.931 . S
H503 C518 0.930 . S
C504 H492 0.930 . S
C504 C505 1.399 . S
C504 C509 1.399 . S
C505 C504 1.399 . S
C505 C506 1.376 . S
C506 H493 0.930 . S
C506 C505 1.376 . S
C506 C507 1.388 . S
C507 H494 0.930 . S
C507 C506 1.388 . S
C507 C508 1.390 . S
C508 C507 1.390 . S
C508 C509 1.394 . S
C508 C514 1.465 . S
C509 C504 1.399 . S
C509 C508 1.394 . S
C509 C510 1.516 . S
C510 C509 1.516 . S
C510 C511 1.502 . S
C510 C512 1.561 . S
C510 C513 1.526 . S
C511 H495 0.959 . S
C511 H496 0.959 . S
C511 H497 0.961 . S
C511 C510 1.502 . S
C512 H498 0.960 . S
C512 H499 0.961 . S
C512 H500 0.959 . S
C512 C510 1.561 . S
C513 C510 1.526 . S
C513 C514 1.396 . S
C513 C518 1.390 . S
C514 C508 1.465 . S
C514 C513 1.396 . S
C514 C515 1.399 . S
C515 H501 0.929 . S
C515 C514 1.399 . S
C515 C516 1.385 . S
C516 H502 0.931 . S
C516 C515 1.385 . S
C516 C517 1.389 . S
C517 C516 1.389 . S
C517 C518 1.387 . S
C518 H503 0.930 . S
C518 C513 1.390 . S
C518 C517 1.387 . S
H519 C531 0.930 . S
H520 C533 0.930 . S
H521 C534 0.930 . S
H522 C538 0.959 . S
H523 C538 0.959 . S
H524 C538 0.961 . S
H525 C539 0.960 . S
H526 C539 0.961 . S
H527 C539 0.959 . S
H528 C542 0.929 1_554 S
H529 C543 0.931 . S
H530 C545 0.930 . S
C531 H519 0.930 . S
C531 C532 1.399 . S
C531 C536 1.399 1_554 S
C532 C531 1.399 . S
C532 C533 1.376 . S
C533 H520 0.930 . S
C533 C532 1.376 . S
C533 C534 1.388 . S
C534 H521 0.930 . S
C534 C533 1.388 . S
C534 C535 1.390 . S
C535 C534 1.390 . S
C535 C536 1.394 1_554 S
C535 C541 1.465 1_554 S
C536 C531 1.399 1_556 S
C536 C535 1.394 1_556 S
C536 C537 1.516 . S
C537 C536 1.516 . S
C537 C538 1.502 . S
C537 C539 1.561 . S
C537 C540 1.526 . S
C538 H522 0.959 . S
C538 H523 0.959 . S
C538 H524 0.961 . S
C538 C537 1.502 . S
C539 H525 0.960 . S
C539 H526 0.961 . S
C539 H527 0.959 . S
C539 C537 1.561 . S
C540 C537 1.526 . S
C540 C541 1.396 . S
C540 C545 1.390 . S
C541 C535 1.465 1_556 S
C541 C540 1.396 . S
C541 C542 1.399 . S
C542 H528 0.929 1_556 S
C542 C541 1.399 . S
C542 C543 1.385 . S
C543 H529 0.931 . S
C543 C542 1.385 . S
C543 C544 1.389 . S
C544 C543 1.389 . S
C544 C545 1.387 . S
C545 H530 0.930 . S
C545 C540 1.390 . S
C545 C544 1.387 . S
H546 C558 0.930 . S
H547 C560 0.930 . S
H548 C561 0.930 . S
H549 C565 0.959 . S
H550 C565 0.959 . S
H551 C565 0.961 . S
H552 C566 0.960 . S
H553 C566 0.961 . S
H554 C566 0.959 . S
H555 C569 0.929 . S
H556 C570 0.931 1_556 S
H557 C572 0.930 . S
C558 H546 0.930 . S
C558 C559 1.399 . S
C558 C563 1.399 . S
C559 C558 1.399 . S
C559 C560 1.376 . S
C560 H547 0.930 . S
C560 C559 1.376 . S
C560 C561 1.388 . S
C561 H548 0.930 . S
C561 C560 1.388 . S
C561 C562 1.390 . S
C562 C561 1.390 . S
C562 C563 1.394 . S
C562 C568 1.465 . S
C563 C558 1.399 . S
C563 C562 1.394 . S
C563 C564 1.516 . S
C564 C563 1.516 . S
C564 C565 1.502 . S
C564 C566 1.561 . S
C564 C567 1.526 . S
C565 H549 0.959 . S
C565 H550 0.959 . S
C565 H551 0.961 . S
C565 C564 1.502 . S
C566 H552 0.960 . S
C566 H553 0.961 . S
C566 H554 0.959 . S
C566 C564 1.561 . S
C567 C564 1.526 . S
C567 C568 1.396 . S
C567 C572 1.390 . S
C568 C562 1.465 . S
C568 C567 1.396 . S
C568 C569 1.399 . S
C569 H555 0.929 . S
C569 C568 1.399 . S
C569 C570 1.385 . S
C570 H556 0.931 1_554 S
C570 C569 1.385 . S
C570 C571 1.389 . S
C571 C570 1.389 . S
C571 C572 1.387 . S
C572 H557 0.930 . S
C572 C567 1.390 . S
C572 C571 1.387 . S
H573 C585 0.930 . S
H574 C587 0.930 . S
H575 C588 0.930 . S
H576 C592 0.959 . S
H577 C592 0.959 . S
H578 C592 0.961 . S
H579 C593 0.960 . S
H580 C593 0.961 . S
H581 C593 0.959 . S
H582 C596 0.929 . S
H583 C597 0.931 . S
H584 C599 0.930 . S
C585 H573 0.930 . S
C585 C586 1.399 . S
C585 C590 1.399 . S
C586 C585 1.399 . S
C586 C587 1.376 . S
C587 H574 0.930 . S
C587 C586 1.376 . S
C587 C588 1.388 . S
C588 H575 0.930 . S
C588 C587 1.388 . S
C588 C589 1.390 . S
C589 C588 1.390 . S
C589 C590 1.394 . S
C589 C595 1.465 . S
C590 C585 1.399 . S
C590 C589 1.394 . S
C590 C591 1.516 . S
C591 C590 1.516 . S
C591 C592 1.502 . S
C591 C593 1.561 . S
C591 C594 1.526 . S
C592 H576 0.959 . S
C592 H577 0.959 . S
C592 H578 0.961 . S
C592 C591 1.502 . S
C593 H579 0.960 . S
C593 H580 0.961 . S
C593 H581 0.959 . S
C593 C591 1.561 . S
C594 C591 1.526 . S
C594 C595 1.396 . S
C594 C599 1.390 . S
C595 C589 1.465 . S
C595 C594 1.396 . S
C595 C596 1.399 . S
C596 H582 0.929 . S
C596 C595 1.399 . S
C596 C597 1.385 . S
C597 H583 0.931 . S
C597 C596 1.385 . S
C597 C598 1.389 . S
C598 C597 1.389 . S
C598 C599 1.387 . S
C599 H584 0.930 . S
C599 C594 1.390 . S
C599 C598 1.387 . S
H600 C612 0.930 . S
H601 C614 0.930 . S
H602 C615 0.930 . S
H603 C619 0.959 . S
H604 C619 0.959 . S
H605 C619 0.961 . S
H606 C620 0.960 . S
H607 C620 0.961 . S
H608 C620 0.959 . S
H609 C623 0.929 . S
H610 C624 0.931 . S
H611 C626 0.930 . S
C612 H600 0.930 . S
C612 C613 1.399 . S
C612 C617 1.399 . S
C613 C612 1.399 . S
C613 C614 1.376 . S
C614 H601 0.930 . S
C614 C613 1.376 . S
C614 C615 1.388 . S
C615 H602 0.930 . S
C615 C614 1.388 . S
C615 C616 1.390 . S
C616 C615 1.390 . S
C616 C617 1.394 . S
C616 C622 1.465 . S
C617 C612 1.399 . S
C617 C616 1.394 . S
C617 C618 1.516 . S
C618 C617 1.516 . S
C618 C619 1.502 . S
C618 C620 1.561 . S
C618 C621 1.526 . S
C619 H603 0.959 . S
C619 H604 0.959 . S
C619 H605 0.961 . S
C619 C618 1.502 . S
C620 H606 0.960 . S
C620 H607 0.961 . S
C620 H608 0.959 . S
C620 C618 1.561 . S
C621 C618 1.526 . S
C621 C622 1.396 . S
C621 C626 1.390 . S
C622 C616 1.465 . S
C622 C621 1.396 . S
C622 C623 1.399 . S
C623 H609 0.929 . S
C623 C622 1.399 . S
C623 C624 1.385 . S
C624 H610 0.931 . S
C624 C623 1.385 . S
C624 C625 1.389 . S
C625 C624 1.389 . S
C625 C626 1.387 . S
C626 H611 0.930 . S
C626 C621 1.390 . S
C626 C625 1.387 . S
H627 C639 0.930 . S
H628 C641 0.930 . S
H629 C642 0.930 . S
H630 C646 0.959 . S
H631 C646 0.959 . S
H632 C646 0.961 . S
H633 C647 0.960 . S
H634 C647 0.961 . S
H635 C647 0.959 . S
H636 C650 0.929 . S
H637 C651 0.931 . S
H638 C653 0.930 . S
C639 H627 0.930 . S
C639 C640 1.399 . S
C639 C644 1.399 . S
C640 C639 1.399 . S
C640 C641 1.376 . S
C641 H628 0.930 . S
C641 C640 1.376 . S
C641 C642 1.388 . S
C642 H629 0.930 . S
C642 C641 1.388 . S
C642 C643 1.390 . S
C643 C642 1.390 . S
C643 C644 1.394 . S
C643 C649 1.465 . S
C644 C639 1.399 . S
C644 C643 1.394 . S
C644 C645 1.516 . S
C645 C644 1.516 . S
C645 C646 1.502 . S
C645 C647 1.561 . S
C645 C648 1.526 . S
C646 H630 0.959 . S
C646 H631 0.959 . S
C646 H632 0.961 . S
C646 C645 1.502 . S
C647 H633 0.960 . S
C647 H634 0.961 . S
C647 H635 0.959 . S
C647 C645 1.561 . S
C648 C645 1.526 . S
C648 C649 1.396 . S
C648 C653 1.390 . S
C649 C643 1.465 . S
C649 C648 1.396 . S
C649 C650 1.399 . S
C650 H636 0.929 . S
C650 C649 1.399 . S
C650 C651 1.385 . S
C651 H637 0.931 . S
C651 C650 1.385 . S
C651 C652 1.389 . S
C652 C651 1.389 . S
C652 C653 1.387 . S
C653 H638 0.930 . S
C653 C648 1.390 . S
C653 C652 1.387 . S
H654 C666 0.930 . S
H655 C668 0.930 . S
H656 C669 0.930 1_654 S
H657 C673 0.959 . S
H658 C673 0.959 . S
H659 C673 0.961 . S
H660 C674 0.960 . S
H661 C674 0.961 . S
H662 C674 0.959 . S
H663 C677 0.929 . S
H664 C678 0.931 . S
H665 C680 0.930 . S
C666 H654 0.930 . S
C666 C667 1.399 . S
C666 C671 1.399 . S
C667 C666 1.399 . S
C667 C668 1.376 1_556 S
C668 H655 0.930 . S
C668 C667 1.376 1_554 S
C668 C669 1.388 1_554 S
C669 H656 0.930 1_456 S
C669 C668 1.388 1_556 S
C669 C670 1.390 . S
C670 C669 1.390 . S
C670 C671 1.394 . S
C670 C676 1.465 1_455 S
C671 C666 1.399 . S
C671 C670 1.394 . S
C671 C672 1.516 . S
C672 C671 1.516 . S
C672 C673 1.502 . S
C672 C674 1.561 . S
C672 C675 1.526 1_455 S
C673 H657 0.959 . S
C673 H658 0.959 . S
C673 H659 0.961 . S
C673 C672 1.502 . S
C674 H660 0.960 . S
C674 H661 0.961 . S
C674 H662 0.959 . S
C674 C672 1.561 . S
C675 C672 1.526 1_655 S
C675 C676 1.396 . S
C675 C680 1.390 . S
C676 C670 1.465 1_655 S
C676 C675 1.396 . S
C676 C677 1.399 . S
C677 H663 0.929 . S
C677 C676 1.399 . S
C677 C678 1.385 . S
C678 H664 0.931 . S
C678 C677 1.385 . S
C678 C679 1.389 . S
C679 C678 1.389 . S
C679 C680 1.387 . S
C680 H665 0.930 . S
C680 C675 1.390 . S
C680 C679 1.387 . S
H681 C693 0.930 . S
H682 C695 0.930 . S
H683 C696 0.947 . S
H684 C700 0.959 . S
H685 C700 0.959 . S
H686 C700 0.961 . S
H687 C701 0.960 . S
H688 C701 0.961 . S
H689 C701 0.959 . S
H690 C704 0.929 . S
H691 C705 0.931 . S
H692 C707 0.930 . S
C693 H681 0.930 . S
C693 C694 1.399 1_554 S
C693 C698 1.399 . S
C694 C693 1.399 1_556 S
C694 C695 1.376 . S
C695 H682 0.930 . S
C695 C694 1.376 . S
C695 C696 1.388 . S
C696 H683 0.947 . S
C696 C695 1.388 . S
C696 C697 1.390 1_556 S
C697 C696 1.390 1_554 S
C697 C698 1.394 . S
C697 C703 1.465 1_565 S
C698 C693 1.399 . S
C698 C697 1.394 . S
C698 C699 1.516 . S
C699 C698 1.516 . S
C699 C700 1.502 . S
C699 C701 1.561 . S
C699 C702 1.526 1_565 S
C700 H684 0.959 . S
C700 H685 0.959 . S
C700 H686 0.961 . S
C700 C699 1.502 . S
C701 H687 0.960 . S
C701 H688 0.961 . S
C701 H689 0.959 . S
C701 C699 1.561 . S
C702 C699 1.526 1_545 S
C702 C703 1.396 . S
C702 C707 1.390 . S
C703 C697 1.465 1_545 S
C703 C702 1.396 . S
C703 C704 1.399 . S
C704 H690 0.929 . S
C704 C703 1.399 . S
C704 C705 1.385 . S
C705 H691 0.931 . S
C705 C704 1.385 . S
C705 C706 1.389 . S
C706 C705 1.389 . S
C706 C707 1.387 . S
C707 H692 0.930 . S
C707 C702 1.390 . S
C707 C706 1.387 . S
H708 C720 0.930 . S
H709 C722 0.930 . S
H710 C723 0.930 . S
H711 C727 0.959 . S
H712 C727 0.959 . S
H713 C727 0.961 . S
H714 C728 0.960 . S
H715 C728 0.961 . S
H716 C728 0.959 . S
H717 C731 0.929 . S
H718 C732 0.931 . S
H719 C734 0.930 . S
C720 H708 0.930 . S
C720 C721 1.399 . S
C720 C725 1.399 . S
C721 C720 1.399 . S
C721 C722 1.376 . S
C722 H709 0.930 . S
C722 C721 1.376 . S
C722 C723 1.388 . S
C723 H710 0.930 . S
C723 C722 1.388 . S
C723 C724 1.390 . S
C724 C723 1.390 . S
C724 C725 1.394 . S
C724 C730 1.465 . S
C725 C720 1.399 . S
C725 C724 1.394 . S
C725 C726 1.516 . S
C726 C725 1.516 . S
C726 C727 1.502 . S
C726 C728 1.561 . S
C726 C729 1.526 . S
C727 H711 0.959 . S
C727 H712 0.959 . S
C727 H713 0.961 . S
C727 C726 1.502 . S
C728 H714 0.960 . S
C728 H715 0.961 . S
C728 H716 0.959 . S
C728 C726 1.561 . S
C729 C726 1.526 . S
C729 C730 1.396 . S
C729 C734 1.390 . S
C730 C724 1.465 . S
C730 C729 1.396 . S
C730 C731 1.399 . S
C731 H717 0.929 . S
C731 C730 1.399 . S
C731 C732 1.385 . S
C732 H718 0.931 . S
C732 C731 1.385 . S
C732 C733 1.389 . S
C733 C732 1.389 . S
C733 C734 1.387 . S
C734 H719 0.930 . S
C734 C729 1.390 . S
C734 C733 1.387 . S
H735 C747 0.930 . S
H736 C749 0.930 . S
H737 C750 0.930 . S
H738 C754 0.959 . S
H739 C754 0.959 . S
H740 C754 0.961 . S
H741 C755 0.960 1_455 S
H742 C755 0.961 . S
H743 C755 0.959 1_455 S
H744 C758 0.929 . S
H745 C759 0.931 . S
H746 C761 0.930 . S
C747 H735 0.930 . S
C747 C748 1.399 . S
C747 C752 1.399 . S
C748 C747 1.399 . S
C748 C749 1.376 . S
C749 H736 0.930 . S
C749 C748 1.376 . S
C749 C750 1.388 . S
C750 H737 0.930 . S
C750 C749 1.388 . S
C750 C751 1.390 . S
C751 C750 1.390 . S
C751 C752 1.394 . S
C751 C757 1.465 1_455 S
C752 C747 1.399 . S
C752 C751 1.394 . S
C752 C753 1.516 1_455 S
C753 C752 1.516 1_655 S
C753 C754 1.502 . S
C753 C755 1.561 . S
C753 C756 1.526 . S
C754 H738 0.959 . S
C754 H739 0.959 . S
C754 H740 0.961 . S
C754 C753 1.502 . S
C755 H741 0.960 1_655 S
C755 H742 0.961 . S
C755 H743 0.959 1_655 S
C755 C753 1.561 . S
C756 C753 1.526 . S
C756 C757 1.396 . S
C756 C761 1.390 . S
C757 C751 1.465 1_655 S
C757 C756 1.396 . S
C757 C758 1.399 . S
C758 H744 0.929 . S
C758 C757 1.399 . S
C758 C759 1.385 . S
C759 H745 0.931 . S
C759 C758 1.385 . S
C759 C760 1.389 . S
C760 C759 1.389 . S
C760 C761 1.387 . S
C761 H746 0.930 . S
C761 C756 1.390 . S
C761 C760 1.387 . S
H762 C774 0.930 . S
H763 C776 0.930 . S
H764 C777 0.930 . S
H765 C781 0.959 . S
H766 C781 0.959 . S
H767 C781 0.961 . S
H768 C782 0.960 . S
H769 C782 0.961 . S
H770 C782 0.959 . S
H771 C785 0.929 1_545 S
H772 C786 0.931 . S
H773 C788 0.930 . S
C774 H762 0.930 . S
C774 C775 1.399 . S
C774 C779 1.399 . S
C775 C774 1.399 . S
C775 C776 1.376 . S
C776 H763 0.930 . S
C776 C775 1.376 . S
C776 C777 1.388 . S
C777 H764 0.930 . S
C777 C776 1.388 . S
C777 C778 1.390 . S
C778 C777 1.390 . S
C778 C779 1.394 . S
C778 C784 1.465 1_545 S
C779 C774 1.399 . S
C779 C778 1.394 . S
C779 C780 1.516 1_545 S
C780 C779 1.516 1_565 S
C780 C781 1.502 . S
C780 C782 1.561 . S
C780 C783 1.526 . S
C781 H765 0.959 . S
C781 H766 0.959 . S
C781 H767 0.961 . S
C781 C780 1.502 . S
C782 H768 0.960 . S
C782 H769 0.961 . S
C782 H770 0.959 . S
C782 C780 1.561 . S
C783 C780 1.526 . S
C783 C784 1.396 . S
C783 C788 1.390 . S
C784 C778 1.465 1_565 S
C784 C783 1.396 . S
C784 C785 1.399 . S
C785 H771 0.929 1_565 S
C785 C784 1.399 . S
C785 C786 1.385 . S
C786 H772 0.931 . S
C786 C785 1.385 . S
C786 C787 1.389 . S
C787 C786 1.389 . S
C787 C788 1.387 . S
C788 H773 0.930 . S
C788 C783 1.390 . S
C788 C787 1.387 . S
H789 C801 0.930 . S
H790 C803 0.930 . S
H791 C804 0.930 . S
H792 C808 0.959 . S
H793 C808 0.959 . S
H794 C808 0.961 . S
H795 C809 0.960 . S
H796 C809 0.961 . S
H797 C809 0.959 . S
H798 C812 0.929 . S
H799 C813 0.931 . S
H800 C815 0.930 . S
C801 H789 0.930 . S
C801 C802 1.399 . S
C801 C806 1.399 . S
C802 C801 1.399 . S
C802 C803 1.376 . S
C803 H790 0.930 . S
C803 C802 1.376 . S
C803 C804 1.388 . S
C804 H791 0.930 . S
C804 C803 1.388 . S
C804 C805 1.390 . S
C805 C804 1.390 . S
C805 C806 1.394 . S
C805 C811 1.465 . S
C806 C801 1.399 . S
C806 C805 1.394 . S
C806 C807 1.516 . S
C807 C806 1.516 . S
C807 C808 1.502 . S
C807 C809 1.561 . S
C807 C810 1.526 . S
C808 H792 0.959 . S
C808 H793 0.959 . S
C808 H794 0.961 . S
C808 C807 1.502 . S
C809 H795 0.960 . S
C809 H796 0.961 . S
C809 H797 0.959 . S
C809 C807 1.561 . S
C810 C807 1.526 . S
C810 C811 1.396 . S
C810 C815 1.390 . S
C811 C805 1.465 . S
C811 C810 1.396 . S
C811 C812 1.399 . S
C812 H798 0.929 . S
C812 C811 1.399 . S
C812 C813 1.385 . S
C813 H799 0.931 . S
C813 C812 1.385 . S
C813 C814 1.389 . S
C814 C813 1.389 . S
C814 C815 1.387 . S
C815 H800 0.930 . S
C815 C810 1.390 . S
C815 C814 1.387 . S
C181 C9 2.025 . S
C193 C149 2.061 . S
C208 C163 2.064 . S
C220 C23 2.026 . S
C235 C37 2.039 . S
C247 C93 2.078 . S
C262 C51 2.027 . S
C274 C107 2.051 . S
C289 C65 2.069 . S
C301 C121 2.027 . S
C316 C135 2.035 . S
C328 C79 2.077 1_554 S
C343 C8 1.623 . S
C355 C120 1.630 . S
C370 C22 1.599 . S
C382 C134 1.606 . S
C397 C148 1.630 . S
C409 C36 1.633 . S
C424 C50 1.613 . S
C436 C162 1.622 . S
C451 C64 1.605 . S
C463 C92 1.599 . S
C478 C78 1.606 . S
C490 C106 1.600 . S
C505 C147 0.835 . S
C517 C7 0.844 . S
C532 C21 0.773 . S
C544 C161 0.788 . S
C559 C35 0.755 . S
C571 C91 0.746 1_554 S
C586 C49 0.855 . S
C598 C105 0.856 . S
C613 C119 0.856 . S
C625 C63 0.849 . S
C640 C77 0.751 . S
C652 C133 0.763 . S
C667 C6 1.524 1_556 S
C679 C160 1.541 . S
C694 C90 1.525 . S
C706 C20 1.538 . S
C721 C104 1.524 . S
C733 C34 1.542 . S
C748 C118 1.540 . S
C760 C48 1.524 . S
C775 C132 1.542 . S
C787 C62 1.526 . S
C802 C146 1.523 . S
C814 C76 1.542 . S
