# Generated by pormake.
# Topology uom, (4)-cn, num edge types: 1
# Building blocks:
#     Node 0, Type 0, BuildingBlock: ESEHIV_clean_sbu_0, # of connection points: 4
#     Node 1, Type 0, BuildingBlock: ESEHIV_clean_sbu_0, # of connection points: 4
#     Node 2, Type 0, BuildingBlock: ESEHIV_clean_sbu_0, # of connection points: 4
#     Node 3, Type 0, BuildingBlock: ESEHIV_clean_sbu_0, # of connection points: 4
#     Node 4, Type 0, BuildingBlock: ESEHIV_clean_sbu_0, # of connection points: 4
#     Node 5, Type 0, BuildingBlock: ESEHIV_clean_sbu_0, # of connection points: 4
#     Edge 6, Type (0, 0), BuildingBlock: KIFKEQ_clean_linker_1, # of connection points: 2
#     Edge 7, Type (0, 0), BuildingBlock: KIFKEQ_clean_linker_1, # of connection points: 2
#     Edge 8, Type (0, 0), BuildingBlock: KIFKEQ_clean_linker_1, # of connection points: 2
#     Edge 9, Type (0, 0), BuildingBlock: KIFKEQ_clean_linker_1, # of connection points: 2
#     Edge 10, Type (0, 0), BuildingBlock: KIFKEQ_clean_linker_1, # of connection points: 2
#     Edge 11, Type (0, 0), BuildingBlock: KIFKEQ_clean_linker_1, # of connection points: 2
#     Edge 12, Type (0, 0), BuildingBlock: KIFKEQ_clean_linker_1, # of connection points: 2
#     Edge 13, Type (0, 0), BuildingBlock: KIFKEQ_clean_linker_1, # of connection points: 2
#     Edge 14, Type (0, 0), BuildingBlock: KIFKEQ_clean_linker_1, # of connection points: 2
#     Edge 15, Type (0, 0), BuildingBlock: KIFKEQ_clean_linker_1, # of connection points: 2
#     Edge 16, Type (0, 0), BuildingBlock: KIFKEQ_clean_linker_1, # of connection points: 2
#     Edge 17, Type (0, 0), BuildingBlock: KIFKEQ_clean_linker_1, # of connection points: 2
# Relax obj value: 0.100
# Max RMSD: 0.201
# Mean RMSD: 0.159
data_MOF--net-uom--node1-ESEHIV_clean_sbu_0--edge1-KIFKEQ_clean_linker_1
_symmetry_space_group_name_H-M    P1
_symmetry_Int_Tables_number       1
_symmetry_cell_setting            triclinic
loop_
_symmetry_equiv_pos_as_xyz
'x, y, z'
_cell_length_a     30.139633
_cell_length_b     28.994347
_cell_length_c     47.44158
_cell_angle_alpha  89.746352
_cell_angle_beta   90.26592
_cell_angle_gamma 125.52711
loop_
_atom_site_label
_atom_site_type_symbol
_atom_site_fract_x
_atom_site_fract_y
_atom_site_fract_z
_atom_type_partial_charge
Cu0 Cu 0.3944 0.08227 0.04633 0.0
N1 N 0.40928 0.10917 1.00909 0.0
N2 N 0.41064 0.105 0.96192 0.0
C3 C 0.40702 0.07952 0.98662 0.0
C4 C 0.41632 0.15315 0.96933 0.0
C5 C 0.4153 0.1555 0.99837 0.0
O6 O 0.43277 0.04674 0.05299 0.0
C7 C 0.28017 0.02487 1.03323 0.0
O8 O 0.29481 0.03182 1.00668 0.0
H9 H 0.39871 0.03796 0.98843 0.0
H10 H 0.41595 0.18719 1.01067 0.0
N11 N 0.41948 0.13963 0.07318 0.0
N12 N 0.4207 0.17686 0.1148 0.0
C13 C 0.3997 0.12903 0.0996 0.0
C14 C 0.45478 0.19633 0.0714 0.0
C15 C 0.45568 0.21941 0.09704 0.0
C16 C 0.48483 0.08092 0.05342 0.0
O17 O 0.50735 0.13524 0.04986 0.0
H18 H 0.36988 0.08656 0.10725 0.0
H19 H 0.47751 0.21934 0.05272 0.0
O20 O 0.31502 0.03617 0.05241 0.0
H21 H 0.4192 0.18373 0.95487 0.0
H22 H 0.47918 0.26416 0.10182 0.0
Cu23 Cu 0.322 0.23988 0.39361 0.0
N24 N 0.30223 0.2211 0.35537 0.0
N25 N 0.30514 0.2067 0.30912 0.0
C26 C 0.33179 0.22062 0.33417 0.0
C27 C 0.25711 0.19827 0.31496 0.0
C28 C 0.25547 0.20709 0.34326 0.0
O29 O 0.38905 0.31584 0.39446 0.0
C30 C 0.30962 0.14257 0.42388 0.0
O31 O 0.33467 0.12224 0.4354 0.0
H32 H 0.3718 0.22989 0.33715 0.0
H33 H 0.22208 0.20311 0.35425 0.0
N34 N 0.26924 0.24238 0.41325 0.0
N35 N 0.21377 0.23802 0.44628 0.0
C36 C 0.24914 0.22517 0.43964 0.0
C37 C 0.24634 0.26742 0.4032 0.0
C38 C 0.21202 0.26442 0.42325 0.0
C39 C 0.43466 0.32482 0.38868 0.0
O40 O 0.43613 0.28175 0.38214 0.0
H41 H 0.26135 0.20522 0.45392 0.0
H42 H 0.25483 0.28748 0.38275 0.0
O43 O 0.33851 0.19045 0.4114 0.0
H44 H 0.22541 0.18733 0.29986 0.0
H45 H 0.18769 0.28066 0.42096 0.0
Cu46 Cu 1.00676 0.20399 0.70789 0.0
N47 N 0.94575 0.16523 0.73193 0.0
N48 N 0.89712 0.11894 0.77058 0.0
C49 C 0.94609 0.14578 0.75776 0.0
C50 C 0.86465 0.12202 0.75217 0.0
C51 C 0.89464 0.15034 0.72831 0.0
O52 O 0.04646 0.28569 0.71323 0.0
C53 C 0.02344 0.1222 0.71672 0.0
O54 O 0.97148 0.09145 0.7099 0.0
H55 H 0.98187 0.15149 0.76701 0.0
H56 H 0.88002 0.15934 0.70974 0.0
N57 N 0.99077 0.18802 0.66943 0.0
N58 N 1.00571 0.18065 0.62391 0.0
C59 C 0.02582 0.1915 0.65046 0.0
C60 C 0.94673 0.1744 0.65443 0.0
C61 C 0.95581 0.16983 0.62638 0.0
C62 C 1.02004 0.30759 0.71284 0.0
O63 O 0.96695 0.27436 0.70929 0.0
H64 H 0.06614 0.20364 0.65604 0.0
H65 H 0.91097 0.16918 0.66307 0.0
O66 O 0.04971 0.17596 0.71737 0.0
H67 H 0.82202 0.10418 0.75547 0.0
H68 H 0.92782 0.15962 0.60918 0.0
Cu69 Cu 0.82969 0.9573 0.04716 0.0
N70 N 0.81022 0.93251 1.00986 0.0
N71 N 0.80803 0.93939 0.96289 0.0
C72 C 0.82651 0.96773 0.98755 0.0
C73 C 0.77877 0.88399 0.97002 0.0
C74 C 0.77995 0.87986 0.99903 0.0
O75 O 0.79361 -0.00564 0.0558 0.0
C76 C 0.93773 0.00593 0.0687 0.0
O77 O 0.91441 0.99027 0.09354 0.0
H78 H 0.85241 0.01344 0.98941 0.0
H79 H 0.76008 0.84122 1.01126 0.0
N80 N 0.80577 0.89779 0.07291 0.0
N81 N 0.79828 0.85975 0.11546 0.0
C82 C 0.80047 0.90126 0.10089 0.0
C83 C 0.80566 0.8517 0.0695 0.0
C84 C 0.80064 0.82795 0.09562 0.0
C85 C 0.7417 0.96083 0.05806 0.0
O86 O 0.71818 0.90605 0.05603 0.0
H87 H 0.8032 0.93664 0.11046 0.0
H88 H 0.81391 0.83935 0.04984 0.0
O89 O 0.90992 0.00282 0.04745 0.0
H90 H 0.75755 0.84894 0.95537 0.0
H91 H 0.80385 0.79327 0.09981 0.0
Cu92 Cu 0.89135 0.8114 0.39819 0.0
N93 N 0.9109 0.8379 0.36079 0.0
N94 N 0.90655 0.85476 0.31501 0.0
C95 C 0.87824 0.83127 0.33919 0.0
C96 C 0.95881 0.87658 0.32167 0.0
C97 C 0.96129 0.86588 0.34969 0.0
O98 O 0.82718 0.7335 0.39665 0.0
C99 C 0.89929 0.89925 0.43354 0.0
O100 O 0.87497 0.91573 0.44909 0.0
H101 H 0.83474 0.80992 0.34115 0.0
H102 H 0.99759 0.87808 0.36123 0.0
N103 N 0.94777 0.81217 0.41591 0.0
N104 N 1.00599 0.81718 0.44757 0.0
C105 C 0.96549 0.82367 0.44293 0.0
C106 C 0.97772 0.79753 0.40326 0.0
C107 C 1.01366 0.80086 0.42255 0.0
C108 C 0.78072 0.72353 0.39197 0.0
O109 O 0.77744 0.76638 0.38821 0.0
H110 H 0.94803 0.83491 0.45901 0.0
H111 H 0.97325 0.78462 0.38148 0.0
O112 O 0.87015 0.853 0.41986 0.0
H113 H 0.99284 0.89789 0.3072 0.0
H114 H 0.04326 0.79197 0.41837 0.0
Cu115 Cu 0.21556 0.83465 0.70804 0.0
N116 N 0.27682 0.8742 0.73205 0.0
N117 N 0.32509 0.92153 0.77071 0.0
C118 C 0.27531 0.89039 0.75843 0.0
C119 C 0.35927 0.92438 0.7513 0.0
C120 C 0.32947 0.89535 0.72749 0.0
O121 O 0.1771 0.75296 0.71296 0.0
C122 C 0.19691 0.91453 0.71793 0.0
O123 O 0.24898 0.94639 0.71149 0.0
H124 H 0.23818 0.87995 0.76823 0.0
H125 H 0.34541 0.89081 0.70819 0.0
N126 N 0.2304 0.85177 0.66956 0.0
N127 N 0.21377 0.86048 0.62436 0.0
C128 C 0.19412 0.8474 0.65097 0.0
C129 C 0.27476 0.86815 0.65426 0.0
C130 C 0.26468 0.87362 0.62644 0.0
C131 C 0.20391 0.73174 0.71581 0.0
O132 O 0.2574 0.76573 0.71623 0.0
H133 H 0.15344 0.83338 0.65691 0.0
H134 H 0.31155 0.87493 0.66252 0.0
O135 O 0.17136 0.86083 0.71794 0.0
H136 H 0.40295 0.94726 0.75372 0.0
H137 H 0.29287 0.8863 0.60915 0.0
H138 H 0.47633 0.26774 0.15033 0.0
H139 H 0.33159 0.09566 0.14483 0.0
H140 H 0.44971 0.27534 0.19755 0.0
H141 H 0.30705 0.10229 0.19224 0.0
H142 H 0.24237 0.14973 0.26332 0.0
H143 H 0.27225 0.14474 0.21696 0.0
H144 H 0.43944 0.24497 0.24582 0.0
H145 H 0.4096 0.25276 0.29218 0.0
C146 C 0.43903 0.23141 0.15906 0.0
C147 C 0.40625 0.18113 0.14335 0.0
C148 C 0.42407 0.23558 0.1864 0.0
C149 C 0.376 0.18954 0.19883 0.0
C150 C 0.34384 0.13907 0.18331 0.0
C151 C 0.35851 0.13502 0.15601 0.0
C152 C 0.28561 0.1714 0.25991 0.0
C153 C 0.32342 0.202 0.28176 0.0
C154 C 0.30279 0.1678 0.23323 0.0
C155 C 0.35836 0.19415 0.22749 0.0
C156 C 0.39634 0.22456 0.24931 0.0
C157 C 0.37911 0.22844 0.27609 0.0
H158 H 0.18225 0.15453 0.48503 0.0
H159 H 0.17991 0.29933 0.46734 0.0
H160 H 0.13018 0.13665 0.52832 0.0
H161 H 0.12808 0.28135 0.50998 0.0
H162 H 0.98769 0.20236 0.57092 0.0
H163 H 0.03686 0.21222 0.52818 0.0
H164 H 0.13734 0.17788 0.57556 0.0
H165 H 0.08693 0.16635 0.61836 0.0
C166 C 0.17107 0.18276 0.49043 0.0
C167 C 0.18495 0.22809 0.47247 0.0
C168 C 0.14114 0.17247 0.5152 0.0
C169 C 0.12429 0.20715 0.52249 0.0
C170 C 0.13911 0.25292 0.50474 0.0
C171 C 0.16898 0.26325 0.48019 0.0
C172 C 1.01968 0.19609 0.57227 0.0
C173 C 0.03338 0.18389 0.59827 0.0
C174 C 0.04836 0.20234 0.54774 0.0
C175 C 0.09152 0.19642 0.54842 0.0
C176 C 0.10426 0.18255 0.57422 0.0
C177 C 0.07569 0.17656 0.59884 0.0
H178 H 0.82364 0.03819 0.94797 0.0
H179 H 0.81609 0.89575 0.91431 0.0
H180 H 0.84393 0.08073 0.901 0.0
H181 H 0.83593 0.93805 0.86723 0.0
H182 H 0.9384 0.06762 0.79603 0.0
H183 H 0.91508 0.02292 0.84252 0.0
H184 H 0.79908 0.06321 0.85367 0.0
H185 H 0.82284 0.10841 0.80718 0.0
C186 C 0.82637 0.01599 0.93055 0.0
C187 C 0.81839 0.96362 0.93493 0.0
C188 C 0.83751 0.04012 0.90358 0.0
C189 C 0.84161 0.01283 0.88036 0.0
C190 C 0.83346 0.96037 0.88471 0.0
C191 C 0.82162 0.93588 0.91163 0.0
C192 C 0.90814 0.06721 0.80846 0.0
C193 C 0.88263 0.0918 0.79793 0.0
C194 C 0.89438 0.04109 0.83499 0.0
C195 C 0.8552 0.03946 0.85182 0.0
C196 C 0.8297 0.06408 0.84131 0.0
C197 C 0.84297 0.08958 0.8146 0.0
H198 H 0.84601 0.94766 0.15254 0.0
H199 H 0.76818 0.76737 0.14693 0.0
H200 H 0.86635 0.94579 0.20195 0.0
H201 H 0.79027 0.76589 0.19642 0.0
H202 H 0.8056 0.77785 0.29314 0.0
H203 H 0.77318 0.77831 0.24576 0.0
H204 H 0.92948 0.93408 0.22711 0.0
H205 H 0.9611 0.9343 0.27437 0.0
C206 C 0.83238 0.90735 0.16186 0.0
C207 C 0.80545 0.8576 0.14554 0.0
C208 C 0.84475 0.90645 0.19023 0.0
C209 C 0.83053 0.85582 0.20316 0.0
C210 C 0.80164 0.80561 0.18722 0.0
C211 C 0.78938 0.80653 0.15875 0.0
C212 C 0.83271 0.81252 0.27903 0.0
C213 C 0.88607 0.85591 0.28757 0.0
C214 C 0.81432 0.81252 0.25178 0.0
C215 C 0.84868 0.85624 0.23257 0.0
C216 C 0.90162 0.90007 0.24138 0.0
C217 C 0.92004 0.89986 0.26844 0.0
H218 H 0.23636 0.85054 0.57015 0.0
H219 H 0.12605 0.86508 0.62057 0.0
H220 H 0.18709 0.84356 0.52786 0.0
H221 H 0.07526 0.85562 0.57823 0.0
H222 H 0.02605 0.88738 0.49139 0.0
H223 H 0.07768 0.9012 0.53444 0.0
H224 H 0.10143 0.77578 0.5058 0.0
H225 H 0.05061 0.76249 0.46312 0.0
C226 C 0.20179 0.8525 0.57233 0.0
C227 C 0.18529 0.85806 0.59904 0.0
C228 C 0.17299 0.8478 0.54798 0.0
C229 C 0.12668 0.84839 0.54953 0.0
C230 C 0.11082 0.85525 0.57613 0.0
C231 C 0.13968 0.85999 0.60054 0.0
C232 C 0.04202 0.86256 0.49444 0.0
C233 C 0.0345 0.82418 0.47362 0.0
C234 C 0.07165 0.87045 0.51912 0.0
C235 C 0.09436 0.84005 0.52357 0.0
C236 C 0.08586 0.80103 0.5029 0.0
C237 C 0.05651 0.7933 0.47834 0.0
H238 H 0.37473 0.12928 0.91528 0.0
H239 H 0.42745 0.02702 0.94451 0.0
H240 H 0.35694 0.08684 0.86881 0.0
H241 H 0.40758 0.98287 0.89819 0.0
H242 H 0.41258 0.95262 0.80356 0.0
H243 H 0.43649 -0.00028 0.8493 0.0
H244 H 0.29212 -0.00233 0.84622 0.0
H245 H 0.26944 0.95276 0.80021 0.0
C246 C 0.38297 0.09808 0.91184 0.0
C247 C 0.40252 0.08168 0.93387 0.0
C248 C 0.37203 0.0731 0.88517 0.0
C249 C 0.38033 0.03098 0.87969 0.0
C250 C 0.40099 0.01539 0.90152 0.0
C251 C 0.41188 0.04035 0.92823 0.0
C252 C 0.38617 0.96262 0.81252 0.0
C253 C 0.33896 0.94862 0.79807 0.0
C254 C 0.39961 0.98917 0.83893 0.0
C255 C 0.36632 0.00268 0.85154 0.0
C256 C 0.31915 0.98865 0.83707 0.0
C257 C 0.30569 0.96206 0.81075 0.0
H258 H 0.19127 0.98406 0.99929 0.0
H259 H 0.2509 0.04784 0.08318 0.0
H260 H 0.11065 0.9818 1.0085 0.0
H261 H 0.17134 0.04788 0.09213 0.0
H262 H 0.99735 -0.00602 0.10782 0.0
H263 H 0.0776 -0.00486 0.10026 0.0
H264 H 0.08137 0.04068 1.01299 0.0
H265 H 0.99932 0.03702 1.02037 0.0
C266 C 0.18698 -0.00275 1.01982 0.0
C267 C 0.22759 0.01587 0.04051 0.0
C268 C 0.14096 -0.00326 1.025 0.0
C269 C 0.13436 0.01553 0.05095 0.0
C270 C 0.17433 0.03256 0.07197 0.0
C271 C 0.22013 0.03246 0.06687 0.0
C272 C 1.01555 0.0049 0.08704 0.0
C273 C 0.99152 0.0153 0.06469 0.0
C274 C 0.06195 0.00569 0.0827 0.0
C275 C 0.08621 0.01742 0.05591 0.0
C276 C 0.06334 0.03004 1.03379 0.0
C277 C 1.01654 0.02871 0.03808 0.0
H278 H 0.96313 0.93471 0.38744 0.0
H279 H 0.96945 0.94734 0.47777 0.0
H280 H 0.06232 0.99097 0.3854 0.0
H281 H 0.06902 0.00876 0.47616 0.0
H282 H 0.2456 0.06884 0.46547 0.0
H283 H 0.14641 0.00925 0.46809 0.0
H284 H 0.13946 0.08323 0.39028 0.0
H285 H 0.23799 0.1383 0.38683 0.0
C286 C 0.98611 0.94827 0.40684 0.0
C287 C 0.95912 0.93419 0.43268 0.0
C288 C 0.04292 0.98219 0.40578 0.0
C289 C 0.07401 0.00443 0.43067 0.0
C290 C 0.0466 0.99146 0.45661 0.0
C291 C 0.98965 0.95675 0.45757 0.0
C292 C 0.22271 0.07225 0.44895 0.0
C293 C 0.24966 0.1095 0.42614 0.0
C294 C 0.16584 0.03849 0.45058 0.0
C295 C 0.13462 0.04141 0.42946 0.0
C296 C 0.16185 0.07911 0.4068 0.0
C297 C 0.21858 0.11195 0.40502 0.0
H298 H 0.97549 0.01471 0.73544 0.0
H299 H 0.13102 0.16501 0.71048 0.0
H300 H 1.01646 0.96351 0.74077 0.0
H301 H 0.17184 0.11322 0.71439 0.0
H302 H 0.24223 0.01958 0.73907 0.0
H303 H 0.20042 0.06998 0.74372 0.0
H304 H 0.04825 0.92273 0.71228 0.0
H305 H 0.0898 0.87159 0.70908 0.0
C306 C 1.01858 0.03678 0.7311 0.0
C307 C 0.05011 0.09369 0.72239 0.0
C308 C 0.04201 0.00731 0.73396 0.0
C309 C 0.09737 0.03382 0.7277 0.0
C310 C 0.12926 0.09148 0.71979 0.0
C311 C 0.10593 0.12125 0.71741 0.0
C312 C 0.19961 -0.00217 0.73352 0.0
C313 C 0.16922 0.94186 0.72356 0.0
C314 C 0.17573 0.02686 0.73597 0.0
C315 C 0.12111 0.0009 0.72801 0.0
C316 C 0.09021 0.944 0.71897 0.0
C317 C 0.11395 0.91461 0.71701 0.0
H318 H 0.63697 0.90093 0.07661 0.0
H319 H 0.76589 0.0661 0.04522 0.0
H320 H 0.57521 0.92906 0.07747 0.0
H321 H 0.70333 0.09398 0.04494 0.0
H322 H 0.59215 0.1453 0.06793 0.0
H323 H 0.65424 0.11786 0.0713 0.0
H324 H 0.52292 0.94622 0.0488 0.0
H325 H 0.46006 0.97368 0.04659 0.0
C326 C 0.65222 0.94347 0.06987 0.0
C327 C 0.70655 0.98127 0.06085 0.0
C328 C 0.61644 0.95948 0.0701 0.0
C329 C 0.63356 0.01371 0.06098 0.0
C330 C 0.68844 0.05204 0.05248 0.0
C331 C 0.72453 0.03613 0.05258 0.0
C332 C 0.57629 0.10152 0.06385 0.0
C333 C 0.52093 0.0617 0.05695 0.0
C334 C 0.61224 0.08583 0.06555 0.0
C335 C 0.59427 0.02982 0.06009 0.0
C336 C 0.53852 0.98966 0.05356 0.0
C337 C 0.50227 0.00533 0.05217 0.0
H338 H 0.67811 0.68893 0.37732 0.0
H339 H 0.76994 0.62504 0.40456 0.0
H340 H 0.59532 0.59286 0.3762 0.0
H341 H 0.68657 0.52872 0.40423 0.0
H342 H 0.5367 0.35938 0.37268 0.0
H343 H 0.62034 0.45519 0.37304 0.0
H344 H 0.53191 0.51766 0.40713 0.0
H345 H 0.44799 0.42209 0.406 0.0
C346 C 0.68061 0.65438 0.38322 0.0
C347 C 0.73068 0.66472 0.39108 0.0
C348 C 0.63298 0.59922 0.38275 0.0
C349 C 0.63408 0.55294 0.39028 0.0
C350 C 0.68428 0.56325 0.39798 0.0
C351 C 0.73206 0.61851 0.39832 0.0
C352 C 0.53508 0.39355 0.38025 0.0
C353 C 0.4856 0.38306 0.38925 0.0
C354 C 0.58317 0.4485 0.38062 0.0
C355 C 0.58299 0.49428 0.39011 0.0
C356 C 0.53347 0.48363 0.39926 0.0
C357 C 0.48534 0.42873 0.39877 0.0
H358 H 0.0985 0.64723 0.70125 0.0
H359 H 0.24646 0.67547 0.73371 0.0
H360 H 0.05514 0.54541 0.70107 0.0
H361 H 0.20262 0.57377 0.73487 0.0
H362 H 0.12857 0.39286 0.70536 0.0
H363 H 0.1723 0.49484 0.7066 0.0
H364 H 1.01816 0.46421 0.7286 0.0
H365 H 0.97439 0.36274 0.72598 0.0
C366 C 0.1215 0.63161 0.70875 0.0
C367 C 0.17595 0.66951 0.71742 0.0
C368 C 0.09657 0.57306 0.7088 0.0
C369 C 0.12522 0.55081 0.71793 0.0
C370 C 0.17943 0.58897 0.72713 0.0
C371 C 0.20453 0.64746 0.72669 0.0
C372 C 0.10419 0.40805 0.71056 0.0
C373 C 0.04798 0.36967 0.71543 0.0
C374 C 0.12928 0.46664 0.71143 0.0
C375 C 0.0989 0.48831 0.71759 0.0
C376 C 0.04285 0.44956 0.72312 0.0
C377 C 1.01772 0.39115 0.72185 0.0
loop_
_geom_bond_atom_site_label_1
_geom_bond_atom_site_label_2
_geom_bond_distance
_geom_bond_site_symmetry_2
_ccdc_geom_bond_type
Cu0 N1 1.999 1_554 S
Cu0 O6 1.974 . S
Cu0 N11 1.985 . S
Cu0 O20 1.959 . S
N1 Cu0 1.999 1_556 S
N1 C3 1.263 . S
N1 C5 1.389 . S
N2 C3 1.358 . S
N2 C4 1.400 . S
C3 N1 1.263 . S
C3 N2 1.358 . S
C3 H9 0.930 1_545 S
C4 N2 1.400 . S
C4 C5 1.351 . S
C4 H21 0.930 . S
C5 N1 1.389 . S
C5 C4 1.351 . S
C5 H10 0.930 . S
O6 Cu0 1.974 . S
O6 C16 1.282 . S
C7 O8 1.261 1_545 S
C7 O20 1.251 . S
O8 C7 1.261 1_565 S
H9 C3 0.930 1_565 S
H10 C5 0.930 . S
N11 Cu0 1.985 . S
N11 C13 1.335 . S
N11 C14 1.390 . S
N12 C13 1.345 . S
N12 C15 1.336 . S
C13 N11 1.335 . S
C13 N12 1.345 . S
C13 H18 0.930 . S
C14 N11 1.390 . S
C14 C15 1.346 . S
C14 H19 0.930 . S
C15 N12 1.336 . S
C15 C14 1.346 . S
C15 H22 0.929 . S
C16 O6 1.282 . S
C16 O17 1.216 1_545 S
O17 C16 1.216 1_565 S
H18 C13 0.930 . S
H19 C14 0.930 . S
O20 Cu0 1.959 . S
O20 C7 1.251 . S
H21 C4 0.930 . S
H22 C15 0.929 . S
Cu23 N24 1.999 . S
Cu23 O29 1.974 . S
Cu23 N34 1.985 . S
Cu23 O43 1.959 . S
N24 Cu23 1.999 . S
N24 C26 1.263 . S
N24 C28 1.389 . S
N25 C26 1.358 . S
N25 C27 1.400 . S
C26 N24 1.263 . S
C26 N25 1.358 . S
C26 H32 0.930 . S
C27 N25 1.400 . S
C27 C28 1.351 . S
C27 H44 0.930 . S
C28 N24 1.389 . S
C28 C27 1.351 . S
C28 H33 0.930 . S
O29 Cu23 1.974 . S
O29 C39 1.282 . S
C30 O31 1.261 . S
C30 O43 1.251 . S
O31 C30 1.261 . S
H32 C26 0.930 . S
H33 C28 0.930 . S
N34 Cu23 1.985 . S
N34 C36 1.335 . S
N34 C37 1.390 . S
N35 C36 1.345 . S
N35 C38 1.336 . S
C36 N34 1.335 . S
C36 N35 1.345 . S
C36 H41 0.930 . S
C37 N34 1.390 . S
C37 C38 1.346 . S
C37 H42 0.930 . S
C38 N35 1.336 . S
C38 C37 1.346 . S
C38 H45 0.929 . S
C39 O29 1.282 . S
C39 O40 1.216 . S
O40 C39 1.216 . S
H41 C36 0.930 . S
H42 C37 0.930 . S
O43 Cu23 1.959 . S
O43 C30 1.251 . S
H44 C27 0.930 . S
H45 C38 0.929 . S
Cu46 N47 1.999 . S
Cu46 O52 1.974 . S
Cu46 N57 1.985 . S
Cu46 O66 1.959 . S
N47 Cu46 1.999 . S
N47 C49 1.263 1_455 S
N47 C51 1.389 . S
N48 C49 1.358 . S
N48 C50 1.415 . S
C49 N47 1.263 1_655 S
C49 N48 1.358 . S
C49 H55 0.930 . S
C50 N48 1.415 . S
C50 C51 1.344 1_655 S
C50 H67 0.924 1_655 S
C51 N47 1.389 . S
C51 C50 1.344 1_455 S
C51 H56 0.930 . S
O52 Cu46 1.974 . S
O52 C62 1.282 1_455 S
C53 O54 1.261 . S
C53 O66 1.251 1_655 S
O54 C53 1.261 . S
H55 C49 0.930 . S
H56 C51 0.930 . S
N57 Cu46 1.985 . S
N57 C59 1.335 . S
N57 C60 1.390 . S
N58 C59 1.345 . S
N58 C61 1.336 . S
C59 N57 1.335 . S
C59 N58 1.345 . S
C59 H64 0.930 . S
C60 N57 1.390 . S
C60 C61 1.346 . S
C60 H65 0.930 . S
C61 N58 1.336 . S
C61 C60 1.346 . S
C61 H68 0.929 . S
C62 O52 1.282 1_655 S
C62 O63 1.216 . S
O63 C62 1.216 . S
H64 C59 0.930 . S
H65 C60 0.930 . S
O66 Cu46 1.959 . S
O66 C53 1.251 1_455 S
H67 C50 0.924 1_455 S
H68 C61 0.929 . S
Cu69 N70 1.999 1_554 S
Cu69 O75 1.974 . S
Cu69 N80 1.985 1_545 S
Cu69 O89 1.960 1_545 S
N70 Cu69 1.999 1_556 S
N70 C72 1.263 . S
N70 C74 1.399 . S
N71 C72 1.358 . S
N71 C73 1.400 . S
C72 N70 1.263 . S
C72 N71 1.358 . S
C72 H78 0.930 . S
C73 N71 1.400 . S
C73 C74 1.356 . S
C73 H90 0.930 . S
C74 N70 1.399 . S
C74 C73 1.356 . S
C74 H79 0.916 1_545 S
O75 Cu69 1.974 . S
O75 C85 1.282 . S
C76 O77 1.261 . S
C76 O89 1.252 1_545 S
O77 C76 1.261 . S
H78 C72 0.930 . S
H79 C74 0.916 1_565 S
N80 Cu69 1.985 1_565 S
N80 C82 1.335 . S
N80 C83 1.390 1_565 S
N81 C82 1.345 . S
N81 C84 1.336 . S
C82 N80 1.335 . S
C82 N81 1.345 . S
C82 H87 0.930 . S
C83 N80 1.390 1_545 S
C83 C84 1.346 1_545 S
C83 H88 0.930 . S
C84 N81 1.336 . S
C84 C83 1.346 1_565 S
C84 H91 0.941 . S
C85 O75 1.282 . S
C85 O86 1.216 . S
O86 C85 1.216 . S
H87 C82 0.930 . S
H88 C83 0.930 . S
O89 Cu69 1.960 1_565 S
O89 C76 1.252 1_565 S
H90 C73 0.930 . S
H91 C84 0.941 . S
Cu92 N93 1.999 . S
Cu92 O98 1.974 . S
Cu92 N103 1.985 . S
Cu92 O112 1.959 . S
N93 Cu92 1.999 . S
N93 C95 1.263 . S
N93 C97 1.389 . S
N94 C95 1.358 . S
N94 C96 1.400 . S
C95 N93 1.263 . S
C95 N94 1.358 . S
C95 H101 0.930 . S
C96 N94 1.400 . S
C96 C97 1.351 . S
C96 H113 0.930 . S
C97 N93 1.389 . S
C97 C96 1.351 . S
C97 H102 0.930 . S
O98 Cu92 1.974 . S
O98 C108 1.282 . S
C99 O100 1.261 . S
C99 O112 1.251 . S
O100 C99 1.261 . S
H101 C95 0.930 . S
H102 C97 0.930 . S
N103 Cu92 1.985 . S
N103 C105 1.335 . S
N103 C106 1.390 . S
N104 C105 1.345 . S
N104 C107 1.336 . S
C105 N103 1.335 . S
C105 N104 1.345 . S
C105 H110 0.930 . S
C106 N103 1.390 . S
C106 C107 1.346 . S
C106 H111 0.930 . S
C107 N104 1.336 . S
C107 C106 1.346 . S
C107 H114 0.929 . S
C108 O98 1.282 . S
C108 O109 1.216 . S
O109 C108 1.216 . S
H110 C105 0.930 . S
H111 C106 0.930 . S
O112 Cu92 1.959 . S
O112 C99 1.251 . S
H113 C96 0.930 . S
H114 C107 0.929 . S
Cu115 N116 1.999 . S
Cu115 O121 1.974 . S
Cu115 N126 1.985 . S
Cu115 O135 1.959 . S
N116 Cu115 1.999 . S
N116 C118 1.263 . S
N116 C120 1.389 . S
N117 C118 1.358 . S
N117 C119 1.400 . S
C118 N116 1.263 . S
C118 N117 1.358 . S
C118 H124 0.930 . S
C119 N117 1.400 . S
C119 C120 1.351 . S
C119 H136 0.930 . S
C120 N116 1.389 . S
C120 C119 1.351 . S
C120 H125 0.930 . S
O121 Cu115 1.974 . S
O121 C131 1.282 . S
C122 O123 1.261 . S
C122 O135 1.251 . S
O123 C122 1.261 . S
H124 C118 0.930 . S
H125 C120 0.930 . S
N126 Cu115 1.985 . S
N126 C128 1.335 . S
N126 C129 1.390 . S
N127 C128 1.345 . S
N127 C130 1.336 . S
C128 N126 1.335 . S
C128 N127 1.345 . S
C128 H133 0.930 . S
C129 N126 1.390 . S
C129 C130 1.346 . S
C129 H134 0.930 . S
C130 N127 1.336 . S
C130 C129 1.346 . S
C130 H137 0.929 . S
C131 O121 1.282 . S
C131 O132 1.216 . S
O132 C131 1.216 . S
H133 C128 0.930 . S
H134 C129 0.930 . S
O135 Cu115 1.959 . S
O135 C122 1.251 . S
H136 C119 0.930 . S
H137 C130 0.929 . S
H138 C146 0.950 . S
H139 C151 0.950 . S
H140 C148 0.950 . S
H141 C150 0.950 . S
H142 C152 0.950 . S
H143 C154 0.950 . S
H144 C156 0.950 . S
H145 C157 0.950 . S
C146 H138 0.950 . S
C146 C147 1.386 . S
C146 C148 1.391 . S
C147 C146 1.386 . S
C147 C151 1.393 . S
C148 H140 0.950 . S
C148 C146 1.391 . S
C148 C149 1.400 . S
C149 C148 1.400 . S
C149 C150 1.398 . S
C149 C155 1.491 . S
C150 H141 0.950 . S
C150 C149 1.398 . S
C150 C151 1.391 . S
C151 H139 0.950 . S
C151 C147 1.393 . S
C151 C150 1.391 . S
C152 H142 0.950 . S
C152 C153 1.386 . S
C152 C154 1.391 . S
C153 C152 1.386 . S
C153 C157 1.393 . S
C154 H143 0.950 . S
C154 C152 1.391 . S
C154 C155 1.400 . S
C155 C149 1.491 . S
C155 C154 1.400 . S
C155 C156 1.398 . S
C156 H144 0.950 . S
C156 C155 1.398 . S
C156 C157 1.391 . S
C157 H145 0.950 . S
C157 C153 1.393 . S
C157 C156 1.391 . S
H158 C166 0.950 . S
H159 C171 0.950 . S
H160 C168 0.950 . S
H161 C170 0.950 . S
H162 C172 0.950 . S
H163 C174 0.950 . S
H164 C176 0.950 . S
H165 C177 0.950 . S
C166 H158 0.950 . S
C166 C167 1.386 . S
C166 C168 1.391 . S
C167 C166 1.386 . S
C167 C171 1.393 . S
C168 H160 0.950 . S
C168 C166 1.391 . S
C168 C169 1.400 . S
C169 C168 1.400 . S
C169 C170 1.398 . S
C169 C175 1.491 . S
C170 H161 0.950 . S
C170 C169 1.398 . S
C170 C171 1.391 . S
C171 H159 0.950 . S
C171 C167 1.393 . S
C171 C170 1.391 . S
C172 H162 0.950 . S
C172 C173 1.386 . S
C172 C174 1.391 . S
C173 C172 1.386 . S
C173 C177 1.393 . S
C174 H163 0.950 . S
C174 C172 1.391 . S
C174 C175 1.400 . S
C175 C169 1.491 . S
C175 C174 1.400 . S
C175 C176 1.398 . S
C176 H164 0.950 . S
C176 C175 1.398 . S
C176 C177 1.391 . S
C177 H165 0.950 . S
C177 C173 1.393 . S
C177 C176 1.391 . S
H178 C186 0.950 . S
H179 C191 0.950 . S
H180 C188 0.950 . S
H181 C190 0.950 . S
H182 C192 0.950 1_455 S
H183 C194 0.950 . S
H184 C196 0.950 . S
H185 C197 0.950 . S
C186 H178 0.950 . S
C186 C187 1.386 . S
C186 C188 1.391 . S
C187 C186 1.386 . S
C187 C191 1.393 . S
C188 H180 0.950 . S
C188 C186 1.391 . S
C188 C189 1.400 . S
C189 C188 1.400 . S
C189 C190 1.398 . S
C189 C195 1.491 . S
C190 H181 0.950 . S
C190 C189 1.398 . S
C190 C191 1.391 . S
C191 H179 0.950 . S
C191 C187 1.393 . S
C191 C190 1.391 . S
C192 H182 0.950 1_655 S
C192 C193 1.386 . S
C192 C194 1.391 . S
C193 C192 1.386 . S
C193 C197 1.393 . S
C194 H183 0.950 . S
C194 C192 1.391 . S
C194 C195 1.400 . S
C195 C189 1.491 . S
C195 C194 1.400 . S
C195 C196 1.398 . S
C196 H184 0.950 . S
C196 C195 1.398 . S
C196 C197 1.391 . S
C197 H185 0.950 . S
C197 C193 1.393 . S
C197 C196 1.391 . S
H198 C206 0.950 . S
H199 C211 0.950 . S
H200 C208 0.950 . S
H201 C210 0.950 . S
H202 C212 0.950 . S
H203 C214 0.950 . S
H204 C216 0.950 . S
H205 C217 0.950 . S
C206 H198 0.950 . S
C206 C207 1.386 . S
C206 C208 1.391 . S
C207 C206 1.386 . S
C207 C211 1.393 . S
C208 H200 0.950 . S
C208 C206 1.391 . S
C208 C209 1.400 . S
C209 C208 1.400 . S
C209 C210 1.398 . S
C209 C215 1.491 . S
C210 H201 0.950 . S
C210 C209 1.398 . S
C210 C211 1.391 . S
C211 H199 0.950 . S
C211 C207 1.393 . S
C211 C210 1.391 . S
C212 H202 0.950 . S
C212 C213 1.386 . S
C212 C214 1.391 . S
C213 C212 1.386 . S
C213 C217 1.393 . S
C214 H203 0.950 . S
C214 C212 1.391 . S
C214 C215 1.400 . S
C215 C209 1.491 . S
C215 C214 1.400 . S
C215 C216 1.398 . S
C216 H204 0.950 . S
C216 C215 1.398 . S
C216 C217 1.391 . S
C217 H205 0.950 . S
C217 C213 1.393 . S
C217 C216 1.391 . S
H218 C226 0.950 . S
H219 C231 0.950 . S
H220 C228 0.950 . S
H221 C230 0.950 . S
H222 C232 0.950 . S
H223 C234 0.950 . S
H224 C236 0.950 . S
H225 C237 0.950 . S
C226 H218 0.950 . S
C226 C227 1.386 . S
C226 C228 1.391 . S
C227 C226 1.386 . S
C227 C231 1.393 . S
C228 H220 0.950 . S
C228 C226 1.391 . S
C228 C229 1.400 . S
C229 C228 1.400 . S
C229 C230 1.398 . S
C229 C235 1.491 1_455 S
C230 H221 0.950 . S
C230 C229 1.398 . S
C230 C231 1.391 . S
C231 H219 0.950 . S
C231 C227 1.393 . S
C231 C230 1.391 . S
C232 H222 0.950 . S
C232 C233 1.386 . S
C232 C234 1.391 . S
C233 C232 1.386 . S
C233 C237 1.393 . S
C234 H223 0.950 . S
C234 C232 1.391 . S
C234 C235 1.400 . S
C235 C229 1.491 1_655 S
C235 C234 1.400 . S
C235 C236 1.398 . S
C236 H224 0.950 . S
C236 C235 1.398 . S
C236 C237 1.391 . S
C237 H225 0.950 . S
C237 C233 1.393 . S
C237 C236 1.391 . S
H238 C246 0.950 . S
H239 C251 0.950 . S
H240 C248 0.950 . S
H241 C250 0.950 . S
H242 C252 0.950 . S
H243 C254 0.950 . S
H244 C256 0.950 . S
H245 C257 0.950 . S
C246 H238 0.950 . S
C246 C247 1.386 . S
C246 C248 1.391 . S
C247 C246 1.386 . S
C247 C251 1.393 . S
C248 H240 0.950 . S
C248 C246 1.391 . S
C248 C249 1.400 . S
C249 C248 1.400 . S
C249 C250 1.398 . S
C249 C255 1.491 . S
C250 H241 0.950 . S
C250 C249 1.398 . S
C250 C251 1.391 . S
C251 H239 0.950 . S
C251 C247 1.393 . S
C251 C250 1.391 . S
C252 H242 0.950 . S
C252 C253 1.386 . S
C252 C254 1.391 . S
C253 C252 1.386 . S
C253 C257 1.393 . S
C254 H243 0.950 . S
C254 C252 1.391 . S
C254 C255 1.400 . S
C255 C249 1.491 . S
C255 C254 1.400 . S
C255 C256 1.398 . S
C256 H244 0.950 . S
C256 C255 1.398 . S
C256 C257 1.391 . S
C257 H245 0.950 . S
C257 C253 1.393 . S
C257 C256 1.391 . S
H258 C266 0.950 . S
H259 C271 0.950 . S
H260 C268 0.950 . S
H261 C270 0.950 . S
H262 C272 0.950 . S
H263 C274 0.950 . S
H264 C276 0.950 . S
H265 C277 0.950 . S
C266 H258 0.950 . S
C266 C267 1.386 1_565 S
C266 C268 1.391 . S
C267 C266 1.386 1_545 S
C267 C271 1.393 . S
C268 H260 0.950 . S
C268 C266 1.391 . S
C268 C269 1.400 1_565 S
C269 C268 1.400 1_545 S
C269 C270 1.398 . S
C269 C275 1.491 . S
C270 H261 0.950 . S
C270 C269 1.398 . S
C270 C271 1.391 . S
C271 H259 0.950 . S
C271 C267 1.393 . S
C271 C270 1.391 . S
C272 H262 0.950 . S
C272 C273 1.386 1_455 S
C272 C274 1.391 . S
C273 C272 1.386 1_655 S
C273 C277 1.393 1_545 S
C274 H263 0.950 . S
C274 C272 1.391 . S
C274 C275 1.400 . S
C275 C269 1.491 . S
C275 C274 1.400 . S
C275 C276 1.398 1_545 S
C276 H264 0.950 . S
C276 C275 1.398 1_565 S
C276 C277 1.391 1_455 S
C277 H265 0.950 . S
C277 C273 1.393 1_565 S
C277 C276 1.391 1_655 S
H278 C286 0.950 . S
H279 C291 0.950 . S
H280 C288 0.950 1_545 S
H281 C290 0.950 . S
H282 C292 0.950 . S
H283 C294 0.950 . S
H284 C296 0.950 . S
H285 C297 0.950 . S
C286 H278 0.950 . S
C286 C287 1.386 . S
C286 C288 1.391 1_655 S
C287 C286 1.386 . S
C287 C291 1.393 . S
C288 H280 0.950 1_565 S
C288 C286 1.391 1_455 S
C288 C289 1.400 1_565 S
C289 C288 1.400 1_545 S
C289 C290 1.398 1_545 S
C289 C295 1.491 . S
C290 H281 0.950 . S
C290 C289 1.398 1_565 S
C290 C291 1.391 1_455 S
C291 H279 0.950 . S
C291 C287 1.393 . S
C291 C290 1.391 1_655 S
C292 H282 0.950 . S
C292 C293 1.386 . S
C292 C294 1.391 . S
C293 C292 1.386 . S
C293 C297 1.393 . S
C294 H283 0.950 . S
C294 C292 1.391 . S
C294 C295 1.400 . S
C295 C289 1.491 . S
C295 C294 1.400 . S
C295 C296 1.398 . S
C296 H284 0.950 . S
C296 C295 1.398 . S
C296 C297 1.391 . S
C297 H285 0.950 . S
C297 C293 1.393 . S
C297 C296 1.391 . S
H298 C306 0.950 1_655 S
H299 C311 0.950 . S
H300 C308 0.950 . S
H301 C310 0.950 . S
H302 C312 0.950 . S
H303 C314 0.950 . S
H304 C316 0.950 . S
H305 C317 0.950 . S
C306 H298 0.950 1_455 S
C306 C307 1.386 . S
C306 C308 1.391 . S
C307 C306 1.386 . S
C307 C311 1.393 . S
C308 H300 0.950 . S
C308 C306 1.391 . S
C308 C309 1.400 . S
C309 C308 1.400 . S
C309 C310 1.398 . S
C309 C315 1.491 . S
C310 H301 0.950 . S
C310 C309 1.398 . S
C310 C311 1.391 . S
C311 H299 0.950 . S
C311 C307 1.393 . S
C311 C310 1.391 . S
C312 H302 0.950 . S
C312 C313 1.386 1_545 S
C312 C314 1.391 . S
C313 C312 1.386 1_565 S
C313 C317 1.393 . S
C314 H303 0.950 . S
C314 C312 1.391 . S
C314 C315 1.400 . S
C315 C309 1.491 . S
C315 C314 1.400 . S
C315 C316 1.398 1_545 S
C316 H304 0.950 . S
C316 C315 1.398 1_565 S
C316 C317 1.391 . S
C317 H305 0.950 . S
C317 C313 1.393 . S
C317 C316 1.391 . S
H318 C326 0.950 . S
H319 C331 0.950 . S
H320 C328 0.950 . S
H321 C330 0.950 1_565 S
H322 C332 0.950 . S
H323 C334 0.950 . S
H324 C336 0.950 . S
H325 C337 0.950 . S
C326 H318 0.950 . S
C326 C327 1.386 . S
C326 C328 1.391 . S
C327 C326 1.386 . S
C327 C331 1.393 1_554 S
C328 H320 0.950 . S
C328 C326 1.391 . S
C328 C329 1.400 . S
C329 C328 1.400 . S
C329 C330 1.398 1_554 S
C329 C335 1.491 . S
C330 H321 0.950 1_545 S
C330 C329 1.398 1_556 S
C330 C331 1.391 . S
C331 H319 0.950 . S
C331 C327 1.393 1_556 S
C331 C330 1.391 . S
C332 H322 0.950 . S
C332 C333 1.386 1_566 S
C332 C334 1.391 . S
C333 C332 1.386 1_544 S
C333 C337 1.393 . S
C334 H323 0.950 . S
C334 C332 1.391 . S
C334 C335 1.400 1_566 S
C335 C329 1.491 . S
C335 C334 1.400 1_544 S
C335 C336 1.398 . S
C336 H324 0.950 . S
C336 C335 1.398 . S
C336 C337 1.391 . S
C337 H325 0.950 . S
C337 C333 1.393 . S
C337 C336 1.391 . S
H338 C346 0.950 . S
H339 C351 0.950 . S
H340 C348 0.950 . S
H341 C350 0.950 . S
H342 C352 0.950 . S
H343 C354 0.950 . S
H344 C356 0.950 . S
H345 C357 0.950 . S
C346 H338 0.950 . S
C346 C347 1.386 . S
C346 C348 1.391 . S
C347 C346 1.386 . S
C347 C351 1.393 . S
C348 H340 0.950 . S
C348 C346 1.391 . S
C348 C349 1.400 . S
C349 C348 1.400 . S
C349 C350 1.398 . S
C349 C355 1.491 . S
C350 H341 0.950 . S
C350 C349 1.398 . S
C350 C351 1.391 . S
C351 H339 0.950 . S
C351 C347 1.393 . S
C351 C350 1.391 . S
C352 H342 0.950 . S
C352 C353 1.386 . S
C352 C354 1.391 . S
C353 C352 1.386 . S
C353 C357 1.393 . S
C354 H343 0.950 . S
C354 C352 1.391 . S
C354 C355 1.400 . S
C355 C349 1.491 . S
C355 C354 1.400 . S
C355 C356 1.398 . S
C356 H344 0.950 . S
C356 C355 1.398 . S
C356 C357 1.391 . S
C357 H345 0.950 . S
C357 C353 1.393 . S
C357 C356 1.391 . S
H358 C366 0.950 . S
H359 C371 0.950 . S
H360 C368 0.950 . S
H361 C370 0.950 . S
H362 C372 0.950 . S
H363 C374 0.950 . S
H364 C376 0.950 . S
H365 C377 0.955 . S
C366 H358 0.950 . S
C366 C367 1.386 . S
C366 C368 1.391 . S
C367 C366 1.386 . S
C367 C371 1.393 . S
C368 H360 0.950 . S
C368 C366 1.391 . S
C368 C369 1.400 . S
C369 C368 1.400 . S
C369 C370 1.398 . S
C369 C375 1.491 . S
C370 H361 0.950 . S
C370 C369 1.398 . S
C370 C371 1.391 . S
C371 H359 0.950 . S
C371 C367 1.393 . S
C371 C370 1.391 . S
C372 H362 0.950 . S
C372 C373 1.386 . S
C372 C374 1.391 . S
C373 C372 1.386 . S
C373 C377 1.393 . S
C374 H363 0.950 . S
C374 C372 1.391 . S
C374 C375 1.400 . S
C375 C369 1.491 . S
C375 C374 1.400 . S
C375 C376 1.398 . S
C376 H364 0.950 . S
C376 C375 1.398 . S
C376 C377 1.391 . S
C377 H365 0.955 . S
C377 C373 1.393 . S
C377 C376 1.391 . S
C147 N12 1.710 . S
C153 N25 1.606 . S
C167 N35 1.659 . S
C173 N58 1.647 . S
C187 N71 1.718 . S
C193 N48 1.678 . S
C207 N81 1.710 . S
C213 N94 1.623 . S
C227 N127 1.653 . S
C233 N104 1.668 . S
C247 N2 1.706 1_565 S
C253 N117 1.689 . S
C267 C7 1.759 . S
C273 C76 1.752 . S
C287 C99 0.162 . S
C293 C30 0.102 . S
C307 C53 1.552 1_455 S
C313 C122 1.546 . S
C327 C85 1.795 . S
C333 C16 1.789 . S
C347 C108 1.244 . S
C353 C39 1.229 . S
C367 C131 2.048 . S
C373 C62 2.052 1_455 S
