# Generated by pormake.
# Topology xfg, (7)-cn, num edge types: 1
# Building blocks:
#     Node 0, Type 0, BuildingBlock: HICVOG_clean_sbu_0, # of connection points: 7
#     Node 1, Type 0, BuildingBlock: HICVOG_clean_sbu_0, # of connection points: 7
#     Node 2, Type 0, BuildingBlock: HICVOG_clean_sbu_0, # of connection points: 7
#     Node 3, Type 0, BuildingBlock: HICVOG_clean_sbu_0, # of connection points: 7
#     Node 4, Type 0, BuildingBlock: HICVOG_clean_sbu_0, # of connection points: 7
#     Node 5, Type 0, BuildingBlock: HICVOG_clean_sbu_0, # of connection points: 7
#     Node 6, Type 0, BuildingBlock: HICVOG_clean_sbu_0, # of connection points: 7
#     Node 7, Type 0, BuildingBlock: HICVOG_clean_sbu_0, # of connection points: 7
#     Node 8, Type 0, BuildingBlock: HICVOG_clean_sbu_0, # of connection points: 7
#     Node 9, Type 0, BuildingBlock: HICVOG_clean_sbu_0, # of connection points: 7
#     Node 10, Type 0, BuildingBlock: HICVOG_clean_sbu_0, # of connection points: 7
#     Node 11, Type 0, BuildingBlock: HICVOG_clean_sbu_0, # of connection points: 7
#     Node 12, Type 0, BuildingBlock: HICVOG_clean_sbu_0, # of connection points: 7
#     Node 13, Type 0, BuildingBlock: HICVOG_clean_sbu_0, # of connection points: 7
#     Node 14, Type 0, BuildingBlock: HICVOG_clean_sbu_0, # of connection points: 7
#     Node 15, Type 0, BuildingBlock: HICVOG_clean_sbu_0, # of connection points: 7
#     Edge 16, Type (0, 0), None
#     Edge 17, Type (0, 0), None
#     Edge 18, Type (0, 0), None
#     Edge 19, Type (0, 0), None
#     Edge 20, Type (0, 0), None
#     Edge 21, Type (0, 0), None
#     Edge 22, Type (0, 0), None
#     Edge 23, Type (0, 0), None
#     Edge 24, Type (0, 0), None
#     Edge 25, Type (0, 0), None
#     Edge 26, Type (0, 0), None
#     Edge 27, Type (0, 0), None
#     Edge 28, Type (0, 0), None
#     Edge 29, Type (0, 0), None
#     Edge 30, Type (0, 0), None
#     Edge 31, Type (0, 0), None
#     Edge 32, Type (0, 0), None
#     Edge 33, Type (0, 0), None
#     Edge 34, Type (0, 0), None
#     Edge 35, Type (0, 0), None
#     Edge 36, Type (0, 0), None
#     Edge 37, Type (0, 0), None
#     Edge 38, Type (0, 0), None
#     Edge 39, Type (0, 0), None
#     Edge 40, Type (0, 0), None
#     Edge 41, Type (0, 0), None
#     Edge 42, Type (0, 0), None
#     Edge 43, Type (0, 0), None
#     Edge 44, Type (0, 0), None
#     Edge 45, Type (0, 0), None
#     Edge 46, Type (0, 0), None
#     Edge 47, Type (0, 0), None
#     Edge 48, Type (0, 0), None
#     Edge 49, Type (0, 0), None
#     Edge 50, Type (0, 0), None
#     Edge 51, Type (0, 0), None
#     Edge 52, Type (0, 0), None
#     Edge 53, Type (0, 0), None
#     Edge 54, Type (0, 0), None
#     Edge 55, Type (0, 0), None
#     Edge 56, Type (0, 0), None
#     Edge 57, Type (0, 0), None
#     Edge 58, Type (0, 0), None
#     Edge 59, Type (0, 0), None
#     Edge 60, Type (0, 0), None
#     Edge 61, Type (0, 0), None
#     Edge 62, Type (0, 0), None
#     Edge 63, Type (0, 0), None
#     Edge 64, Type (0, 0), None
#     Edge 65, Type (0, 0), None
#     Edge 66, Type (0, 0), None
#     Edge 67, Type (0, 0), None
#     Edge 68, Type (0, 0), None
#     Edge 69, Type (0, 0), None
#     Edge 70, Type (0, 0), None
#     Edge 71, Type (0, 0), None
# Relax obj value: 0.277
# Max RMSD: 0.214
# Mean RMSD: 0.205
data_MOF--net-xfg--node1-HICVOG_clean_sbu_0--edge1-none
_symmetry_space_group_name_H-M    P1
_symmetry_Int_Tables_number       1
_symmetry_cell_setting            triclinic
loop_
_symmetry_equiv_pos_as_xyz
'x, y, z'
_cell_length_a     13.666692
_cell_length_b     13.514758
_cell_length_c     37.696168
_cell_angle_alpha  90.054765
_cell_angle_beta   89.996975
_cell_angle_gamma 91.177255
loop_
_atom_site_label
_atom_site_type_symbol
_atom_site_fract_x
_atom_site_fract_y
_atom_site_fract_z
_atom_type_partial_charge
Zn0 Zn 0.34618 0.17149 0.06343 0.0
C1 C 0.315 0.45632 0.01879 0.0
N2 N 0.32806 0.47788 0.05301 0.0
C3 C 0.34197 0.39107 0.0687 0.0
N4 N 0.33675 0.31507 0.0454 0.0
N5 N 0.31902 0.35484 0.01335 0.0
C6 C 0.22486 0.33055 0.89885 0.0
O7 O 0.19386 0.41983 0.90555 0.0
O8 O 0.4544 0.15712 0.10391 0.0
Zn9 Zn 0.31268 0.25516 0.97396 0.0
N10 N 0.22383 0.14208 0.08607 0.0
C11 C 1.05206 0.1186 0.08504 0.0
C12 C 0.13859 0.14477 0.06782 0.0
C13 C 0.22533 0.11182 0.12022 0.0
N14 N 1.05244 0.10104 0.12052 0.0
C15 C 0.13721 0.09851 0.13886 0.0
O16 O 0.25048 0.11788 0.99042 0.0
C17 C 0.29252 1.04048 0.00251 0.0
O18 O 0.34849 1.04972 0.02928 0.0
H19 H 0.13786 0.16511 0.04015 0.0
H20 H 0.29516 0.10269 0.133 0.0
C21 C 0.4834 0.17576 0.99076 0.0
C22 C 0.56677 0.12266 0.98505 0.0
C23 C 0.57918 0.19361 0.92745 0.0
C24 C 0.48888 0.23754 0.9323 0.0
N25 N 0.44301 0.22585 0.96399 0.0
N26 N 0.61461 0.13453 0.95352 0.0
H27 H 0.45062 0.17938 0.01642 0.0
C28 C 0.54214 0.18518 0.11158 0.0
O29 O 0.59693 0.22957 0.08765 0.0
O30 O 0.26257 0.27977 0.92351 0.0
H31 H 0.45524 0.27845 0.91106 0.0
H32 H 0.98556 0.11224 0.07034 0.0
H33 H 0.61872 0.2031 0.9028 0.0
Zn34 Zn 0.74229 0.58094 0.31287 0.0
C35 C 0.46493 0.5281 0.26677 0.0
N36 N 0.44367 0.5221 0.30114 0.0
C37 C 0.52848 0.53519 0.31786 0.0
N38 N 0.60363 0.54741 0.2949 0.0
N39 N 0.5647 0.54259 0.26222 0.0
C40 C 0.60747 0.51503 0.15319 0.0
O41 O 0.54217 0.45272 0.1664 0.0
O42 O 0.72629 0.6941 0.3506 0.0
Zn43 Zn 0.66552 0.58415 0.22862 0.0
N44 N 0.7817 0.46435 0.3371 0.0
C45 C 0.8224 0.29524 0.33684 0.0
C46 C 0.79 0.37825 0.319 0.0
C47 C 0.80779 0.47075 0.3716 0.0
N48 N 0.83706 0.29958 0.37248 0.0
C49 C 0.8295 0.38537 0.39056 0.0
O50 O 0.7955 0.51005 0.23941 0.0
C51 C 0.87554 0.53909 0.25428 0.0
O52 O 0.86969 0.59512 0.28127 0.0
H53 H 0.77339 0.37465 0.291 0.0
H54 H 0.80543 0.54105 0.38464 0.0
C55 C 0.77613 0.75186 0.24737 0.0
C56 C 0.79611 0.81477 0.27575 0.0
C57 C 0.62695 0.83215 0.2861 0.0
C58 C 0.60766 0.75973 0.26067 0.0
N59 N 0.68316 0.71877 0.24269 0.0
N60 N 0.72125 0.8559 0.29389 0.0
H61 H 0.83474 0.72047 0.23205 0.0
C62 C 0.78777 0.73165 0.37258 0.0
O63 O 0.87924 0.70418 0.3713 0.0
O64 O 0.65404 0.57378 0.17392 0.0
H65 H 0.53439 0.72988 0.2579 0.0
H66 H 0.83528 0.22799 0.32262 0.0
H67 H 0.56821 0.86434 0.30111 0.0
Zn68 Zn 0.35532 0.92093 0.47277 0.0
C69 C 0.33384 0.78926 0.5687 0.0
N70 N 0.33902 0.70165 0.5529 0.0
C71 C 0.35019 0.72151 0.51858 0.0
N72 N 0.35028 0.82307 0.51287 0.0
N73 N 0.33876 0.86444 0.54514 0.0
C74 C 0.13012 0.98881 0.61187 0.0
O75 O 1.07257 0.95218 0.58711 0.0
O76 O 0.4157 0.89838 0.42281 0.0
Zn77 Zn 0.3267 1.00732 0.56348 0.0
N78 N 0.22424 0.95312 0.46249 0.0
C79 C 0.08696 0.98985 0.4269 0.0
C80 C 0.17664 0.94414 0.43097 0.0
C81 C 0.18562 1.00308 0.48978 0.0
N82 N 1.05345 1.0482 0.45351 0.0
C83 C 0.10265 1.05795 0.48482 0.0
O84 O 0.32186 0.12831 0.52915 0.0
C85 C 0.37796 0.13526 0.50233 0.0
O86 O 0.41855 1.0566 0.49057 0.0
H87 H 0.20794 0.90429 0.40913 0.0
H88 H 0.21987 0.99849 0.5152 0.0
C89 C 0.44425 1.07173 0.62075 0.0
C90 C 0.53118 0.09215 0.63937 0.0
C91 C 0.61722 1.08266 0.58525 0.0
C92 C 0.53314 1.04849 0.56807 0.0
N93 N 0.44795 1.04259 0.58643 0.0
N94 N 0.6155 0.09894 0.62081 0.0
H95 H 0.37399 1.07502 0.63365 0.0
C96 C 0.39123 0.8409 0.39724 0.0
O97 O 0.33418 0.7635 0.40345 0.0
O98 O 0.2185 1.01503 0.60436 0.0
H99 H 0.53553 1.02952 0.54029 0.0
H100 H 1.0465 0.98247 0.40235 0.0
H101 H 0.68328 0.09562 0.57056 0.0
Zn102 Zn 0.92794 0.60967 0.81257 0.0
C103 C 0.2054 0.64955 0.76714 0.0
N104 N 0.2247 0.6591 0.80165 0.0
C105 C 0.13793 0.6564 0.81739 0.0
N106 N 1.06424 0.64477 0.79397 0.0
N107 N 0.10522 0.64184 0.7617 0.0
C108 C 1.07257 0.67612 0.65234 0.0
O109 O 0.15055 0.72285 0.66464 0.0
O110 O 0.95359 0.50658 0.8526 0.0
Zn111 Zn 1.00215 0.61012 0.72738 0.0
N112 N 0.88157 0.72321 0.83644 0.0
C113 C 0.83423 0.89013 0.83765 0.0
C114 C 0.86998 0.80994 0.81908 0.0
C115 C 0.85546 0.71293 0.87088 0.0
N116 N 0.81994 0.88262 0.8732 0.0
C117 C 0.83037 0.79615 0.89054 0.0
O118 O 0.87289 0.68399 0.74137 0.0
C119 C 0.79367 0.64948 0.75543 0.0
O120 O 0.8022 0.58899 0.78104 0.0
H121 H 0.88778 0.81661 0.79127 0.0
H122 H 0.86372 0.64256 0.8836 0.0
C123 C 0.8877 0.44139 0.73937 0.0
C124 C 0.86798 0.3658 0.76324 0.0
C125 C 1.03707 0.33666 0.76867 0.0
C126 C 1.05692 0.42185 0.74909 0.0
N127 N 0.98128 0.47356 0.73563 0.0
N128 N 0.94288 0.31277 0.7766 0.0
H129 H 0.82915 0.48071 0.72691 0.0
C130 C 0.89612 0.45467 0.87211 0.0
O131 O 0.80193 0.45558 0.86585 0.0
O132 O 1.01545 0.63032 0.6736 0.0
H133 H 0.13106 0.45004 0.74666 0.0
H134 H 0.82019 0.9584 0.82423 0.0
H135 H 0.09565 0.29334 0.77921 0.0
Zn136 Zn 0.82424 1.00924 0.93478 0.0
C137 C 0.85556 0.72443 0.97942 0.0
N138 N 0.84261 0.70286 0.9452 0.0
C139 C 0.82872 0.78966 0.9295 0.0
N140 N 0.8338 0.86568 0.9528 0.0
N141 N 0.85148 0.82591 0.98485 0.0
C142 C 0.94571 0.85026 0.09936 0.0
O143 O 0.97681 0.76101 0.09267 0.0
O144 O 0.71597 1.02347 0.89429 0.0
Zn145 Zn 0.85772 0.92557 0.02426 0.0
N146 N 0.94656 1.03881 0.91213 0.0
C147 C 0.11827 1.06286 0.91317 0.0
C148 C 1.0318 1.03649 0.93039 0.0
C149 C 0.94501 1.06892 0.87796 0.0
N150 N 0.11787 1.08023 0.87768 0.0
C151 C 1.03312 1.0824 0.85932 0.0
O152 O 0.9198 1.06293 0.00782 0.0
C153 C 0.87773 0.14028 0.99572 0.0
O154 O 0.82182 0.13098 0.96893 0.0
H155 H 1.03256 1.0163 0.95808 0.0
H156 H 0.87518 1.07785 0.86517 0.0
C157 C 0.68699 1.00486 0.00746 0.0
C158 C 0.6036 1.05793 0.01318 0.0
C159 C 0.59117 0.98695 0.07077 0.0
C160 C 0.68149 0.94305 0.06593 0.0
N161 N 0.72737 0.95476 0.03424 0.0
N162 N 0.55574 1.04604 0.0447 0.0
H163 H 0.7198 1.00126 0.98181 0.0
C164 C 0.62822 0.99546 0.88661 0.0
O165 O 0.57334 0.95124 0.91055 0.0
O166 O 0.90791 0.90095 0.0747 0.0
H167 H 0.71514 0.90215 0.08716 0.0
H168 H 0.18476 1.06955 0.92787 0.0
H169 H 0.55163 0.97744 0.09542 0.0
Zn170 Zn 0.42809 0.59962 0.68532 0.0
C171 C 0.70551 0.65212 0.73142 0.0
N172 N 0.72681 0.65799 0.69705 0.0
C173 C 0.64198 0.64499 0.68033 0.0
N174 N 0.5668 0.63298 0.70329 0.0
N175 N 0.60572 0.63785 0.73597 0.0
C176 C 0.56286 0.66577 0.84501 0.0
O177 O 0.6281 0.72814 0.83178 0.0
O178 O 0.44392 0.48636 0.64762 0.0
Zn179 Zn 0.50488 0.59648 0.7696 0.0
N180 N 0.38885 0.71625 0.66108 0.0
C181 C 0.34812 0.88536 0.66134 0.0
C182 C 0.38053 0.80235 0.67918 0.0
C183 C 0.36281 0.70987 0.62658 0.0
N184 N 0.33347 0.88103 0.62571 0.0
C185 C 0.34109 0.79525 0.60762 0.0
O186 O 0.37495 0.67063 0.75881 0.0
C187 C 0.29491 0.64165 0.74393 0.0
O188 O 0.30067 0.58563 0.71693 0.0
H189 H 0.39709 0.80594 0.70719 0.0
H190 H 0.36515 0.63957 0.61354 0.0
C191 C 0.39419 0.42882 0.75084 0.0
C192 C 0.3743 0.36589 0.72246 0.0
C193 C 0.54348 0.34836 0.71222 0.0
C194 C 0.56272 0.42078 0.73765 0.0
N195 N 0.48717 0.46184 0.75557 0.0
N196 N 0.44921 0.32468 0.70437 0.0
H197 H 0.33555 0.46026 0.76612 0.0
C198 C 0.38242 0.44894 0.62563 0.0
O199 O 0.29101 0.47663 0.62687 0.0
O200 O 0.51638 0.60693 0.8243 0.0
H201 H 0.636 0.45057 0.74046 0.0
H202 H 0.33519 0.95259 0.67557 0.0
H203 H 0.60227 0.31611 0.69725 0.0
Zn204 Zn 0.84379 0.17328 0.43471 0.0
C205 C 0.8203 0.45907 0.47961 0.0
N206 N 0.83153 0.47896 0.44529 0.0
C207 C 0.83663 0.39135 0.42948 0.0
N208 N 0.83168 0.31615 0.45304 0.0
N209 N 0.82012 0.35751 0.48531 0.0
C210 C 0.77914 0.33969 0.60094 0.0
O211 O 0.83621 0.41709 0.59473 0.0
O212 O 0.95202 0.16559 0.39384 0.0
Zn213 Zn 0.81513 0.25966 0.52541 0.0
N214 N 0.72256 0.13793 0.41176 0.0
C215 C 0.55335 0.09762 0.41295 0.0
C216 C 0.63739 0.13189 0.43013 0.0
C217 C 0.72628 0.10883 0.37743 0.0
N218 N 0.55506 1.08138 0.37738 0.0
C219 C 0.63935 1.08833 0.35882 0.0
O220 O 0.75195 0.12394 0.50764 0.0
C221 C 0.79254 1.04531 0.49586 0.0
O222 O 0.84866 1.05233 0.46905 0.0
H223 H 0.63501 0.15083 0.45791 0.0
H224 H 0.79653 0.10564 0.36453 0.0
C225 C 0.98485 0.1776 0.50842 0.0
C226 C 1.06778 0.12267 0.51339 0.0
C227 C 1.0834 0.19066 0.57132 0.0
C228 C 0.99375 0.23643 0.56724 0.0
N229 N 0.94624 0.22757 0.5357 0.0
N230 N 0.11693 0.13234 0.54471 0.0
H231 H 0.95063 0.18221 0.48299 0.0
C232 C 1.04044 0.19168 0.38634 0.0
O233 O 0.09805 0.2281 0.41113 0.0
O234 O 0.75468 0.28222 0.57536 0.0
H235 H 0.96242 0.27622 0.58909 0.0
H236 H 0.48731 1.08455 0.42765 0.0
H237 H 0.12381 0.19796 0.59589 0.0
Zn238 Zn 0.24255 0.57102 0.18563 0.0
C239 C 0.96502 0.5314 0.23104 0.0
N240 N 0.9457 0.52193 0.19653 0.0
C241 C 1.03247 0.52457 0.18078 0.0
N242 N 0.10619 0.53606 0.20421 0.0
N243 N 1.0652 0.53897 0.23649 0.0
C244 C 0.09794 0.5043 0.34581 0.0
O245 O 1.02032 0.45708 0.33344 0.0
O246 O 0.21701 0.67414 0.14561 0.0
Zn247 Zn 0.16826 0.57061 0.27081 0.0
N248 N 0.28884 0.45745 0.16176 0.0
C249 C 0.33619 0.29053 0.16054 0.0
C250 C 0.30039 0.3707 0.1791 0.0
C251 C 0.31504 0.46776 0.12733 0.0
N252 N 0.35056 0.29807 0.125 0.0
C253 C 0.34015 0.38455 0.10766 0.0
O254 O 0.29746 0.49662 0.25686 0.0
C255 C 0.37671 0.53104 0.24278 0.0
O256 O 0.36832 0.59153 0.21717 0.0
H257 H 0.28256 0.36401 0.20692 0.0
H258 H 0.30684 0.53815 0.11461 0.0
C259 C 0.2829 0.73922 0.25882 0.0
C260 C 0.30272 0.81483 0.23496 0.0
C261 C 0.13366 0.84415 0.22952 0.0
C262 C 0.11372 0.75894 0.24908 0.0
N263 N 0.1893 0.70714 0.26254 0.0
N264 N 0.22788 0.86795 0.2216 0.0
H265 H 0.34141 0.69983 0.27128 0.0
C266 C 0.27449 0.7261 0.12611 0.0
O267 O 0.36867 0.72524 0.1324 0.0
O268 O 0.15488 0.55052 0.3246 0.0
H269 H 1.03955 0.73083 0.2515 0.0
H270 H 0.35023 0.22225 0.17396 0.0
H271 H 1.07514 0.88754 0.21898 0.0
Zn272 Zn 0.85152 0.68223 0.56509 0.0
C273 C 0.80433 0.96355 0.52185 0.0
N274 N 0.81855 0.98929 0.55547 0.0
C275 C 0.8334 0.90402 0.57222 0.0
N276 N 0.83152 0.82584 0.54976 0.0
N277 N 0.8101 0.86287 0.51782 0.0
C278 C 0.75301 0.77992 0.40542 0.0
O279 O 0.6657 0.75606 0.41754 0.0
O280 O 0.95394 0.66569 0.60604 0.0
Zn281 Zn 0.83023 0.77284 0.47896 0.0
N282 N 0.73037 0.65081 0.58735 0.0
C283 C 0.55808 0.63666 0.5862 0.0
C284 C 0.64637 0.6482 0.56838 0.0
C285 C 0.72958 0.63981 0.62298 0.0
N286 N 0.55672 0.63484 0.62229 0.0
C287 C 0.64059 0.63786 0.64132 0.0
O288 O 0.77438 0.62544 0.48716 0.0
C289 C 0.8096 0.54914 0.50296 0.0
O290 O 0.86418 0.56319 0.52996 0.0
H291 H 0.64794 0.65601 0.53986 0.0
H292 H 0.7982 0.63728 0.63697 0.0
C293 C 0.99826 0.67455 0.47739 0.0
C294 C 1.07549 0.64262 0.49779 0.0
C295 C 0.1021 0.80506 0.51922 0.0
C296 C 1.01783 0.83404 0.50205 0.0
N297 N 0.96578 0.76598 0.48295 0.0
N298 N 0.12712 0.70906 0.51775 0.0
H299 H 0.95528 0.62441 0.46117 0.0
C300 C 1.0412 0.69037 0.61508 0.0
O301 O 0.0968 0.74198 0.5934 0.0
O302 O 0.81743 0.81323 0.42696 0.0
H303 H 0.98973 0.90665 0.50671 0.0
H304 H 0.49162 0.62933 0.57134 0.0
H305 H 0.14246 0.85545 0.5361 0.0
Zn306 Zn 0.24802 0.10066 0.81391 0.0
C307 C 0.96428 1.07555 0.77003 0.0
N308 N 0.94384 1.08536 0.80427 0.0
C309 C 1.03014 1.08932 0.82038 0.0
N310 N 0.10533 1.08442 0.79702 0.0
N311 N 1.06436 1.07301 0.76476 0.0
C312 C 0.08953 1.01047 0.6476 0.0
O313 O 1.00387 1.05161 0.65026 0.0
O314 O 0.25692 0.20617 0.8552 0.0
Zn315 Zn 0.15552 1.07444 0.72388 0.0
N316 N 0.28817 0.97749 0.8348 0.0
C317 C 0.35213 0.81537 0.83292 0.0
C318 C 0.31015 0.89559 0.81567 0.0
C319 C 0.30935 0.98208 0.86975 0.0
N320 N 0.36215 0.81671 0.86873 0.0
C321 C 0.34053 0.89809 0.88772 0.0
O322 O 0.29954 1.03041 0.73821 0.0
C323 C 0.37692 1.06767 0.75297 0.0
O324 O 0.36748 0.12133 0.78042 0.0
H325 H 0.29877 0.89367 0.78734 0.0
H326 H 0.30229 1.05148 0.88337 0.0
C327 C 0.23517 0.255 0.72694 0.0
C328 C 0.2748 0.33993 0.71274 0.0
C329 C 0.14455 0.34519 0.67148 0.0
C330 C 0.11115 0.25295 0.6836 0.0
N331 N 0.16078 0.20864 0.71031 0.0
N332 N 0.22862 0.38464 0.68537 0.0
H333 H 0.26669 0.22232 0.74972 0.0
C334 C 0.21383 0.28662 0.86292 0.0
O335 O 0.15255 0.32522 0.84036 0.0
O336 O 0.14438 1.00414 0.67486 0.0
H337 H 1.04875 0.217 0.67136 0.0
H338 H 0.37663 0.7524 0.81821 0.0
H339 H 0.10765 0.38206 0.64999 0.0
Zn340 Zn 0.84575 0.41297 0.97883 0.0
C341 C 0.82528 0.28042 0.07165 0.0
N342 N 0.83881 0.19487 0.05479 0.0
C343 C 0.86065 0.22119 0.02171 0.0
N344 N 0.85897 0.32219 0.01801 0.0
N345 N 0.83297 0.35899 0.04956 0.0
C346 C 0.64245 0.50174 0.11616 0.0
O347 O 0.59319 0.44319 0.09459 0.0
O348 O 0.87125 0.37383 0.92731 0.0
Zn349 Zn 0.82759 0.50335 0.06599 0.0
N350 N 0.70867 0.41905 0.98034 0.0
C351 C 0.5738 0.37432 0.01678 0.0
C352 C 0.65664 0.34802 0.99805 0.0
C353 C 0.67561 0.51098 0.97678 0.0
N354 N 0.54699 0.4697 0.01668 0.0
C355 C 0.59681 0.53881 0.99736 0.0
O356 O 0.81805 0.62389 0.03127 0.0
C357 C 0.86912 0.63604 0.00333 0.0
O358 O 0.90343 0.55899 0.98785 0.0
H359 H 0.68475 0.27491 0.001 0.0
H360 H 0.7186 0.56394 0.96185 0.0
C361 C 0.96084 0.54618 0.12126 0.0
C362 C 1.03937 0.5152 0.14215 0.0
C363 C 0.10184 0.42916 0.09259 0.0
C364 C 1.02505 0.46146 0.07187 0.0
N365 N 0.95378 0.51522 0.08716 0.0
N366 N 0.10619 0.4549 0.12741 0.0
H367 H 0.90035 0.58496 0.133 0.0
C368 C 0.92855 0.42672 0.90809 0.0
O369 O 0.99465 0.48355 0.92371 0.0
O370 O 0.72928 0.53031 0.10787 0.0
H371 H 1.01688 0.43505 0.04494 0.0
H372 H 0.53568 0.32213 0.03359 0.0
H373 H 0.15261 0.37753 0.08168 0.0
Zn374 Zn 0.42282 1.07416 0.31282 0.0
C375 C 0.70736 0.10092 0.2695 0.0
N376 N 0.72854 1.08799 0.30356 0.0
C377 C 0.6422 1.08269 0.31981 0.0
N378 N 0.56659 1.08956 0.29662 0.0
N379 N 0.60743 0.10392 0.26453 0.0
C380 C 0.5843 0.15936 0.14663 0.0
O381 O 0.66569 0.10993 0.14803 0.0
O382 O 0.41281 0.96863 0.35394 0.0
Zn383 Zn 0.51834 0.10086 0.22357 0.0
N384 N 0.38555 0.19771 0.33385 0.0
C385 C 0.31841 0.35834 0.33214 0.0
C386 C 0.36063 0.27855 0.31472 0.0
C387 C 0.36866 0.19437 0.36906 0.0
N388 N 0.31142 0.35812 0.36809 0.0
C389 C 0.33794 0.27842 0.38712 0.0
O390 O 0.37266 0.14292 0.23642 0.0
C391 C 0.29404 0.1111 0.25195 0.0
O392 O 0.30136 1.05785 0.27954 0.0
H393 H 0.36945 0.27974 0.28627 0.0
H394 H 0.37693 0.12543 0.38272 0.0
C395 C 0.44435 0.92353 0.23292 0.0
C396 C 0.40133 0.83576 0.22272 0.0
C397 C 0.52334 0.81791 0.17869 0.0
C398 C 0.55775 0.91372 0.18611 0.0
N399 N 0.51354 0.96528 0.21239 0.0
N400 N 0.44223 0.78299 0.196 0.0
H401 H 0.41926 0.96224 0.25564 0.0
C402 C 0.40492 0.87579 0.36006 0.0
O403 O 0.39468 0.81351 0.33352 0.0
O404 O 0.53239 0.16935 0.17448 0.0
H405 H 0.61644 0.94635 0.17074 0.0
H406 H 0.29213 0.42037 0.31738 0.0
H407 H 0.55623 0.77473 0.15784 0.0
Zn408 Zn 0.34007 0.40776 0.51924 0.0
C409 C 0.33741 0.2766 0.42597 0.0
N410 N 0.35237 0.19135 0.44271 0.0
C411 C 0.36627 0.21706 0.47635 0.0
N412 N 0.36009 0.3177 0.48039 0.0
N413 N 0.33887 0.35475 0.44843 0.0
C414 C 0.1293 0.49003 0.38307 0.0
O415 O 1.07389 0.43803 0.4047 0.0
O416 O 0.3527 0.36741 0.57125 0.0
Zn417 Zn 0.31887 0.49836 0.43309 0.0
N418 N 0.20455 0.4148 0.51522 0.0
C419 C 1.06829 0.37567 0.47892 0.0
C420 C 0.15251 0.3467 0.49614 0.0
C421 C 0.17205 0.50623 0.52076 0.0
N422 N 1.0433 0.47169 0.48035 0.0
C423 C 0.0949 0.53814 0.50032 0.0
O424 O 0.30631 0.61744 0.46823 0.0
C425 C 0.36085 0.63142 0.49524 0.0
O426 O 0.39607 0.55509 0.51102 0.0
H427 H 0.1806 0.27406 0.49151 0.0
H428 H 0.21502 0.55637 0.53699 0.0
C429 C 0.44085 0.54063 0.3752 0.0
C430 C 0.52986 0.5424 0.35686 0.0
C431 C 0.61234 0.54354 0.41199 0.0
C432 C 0.52403 0.53218 0.42981 0.0
N433 N 0.44003 0.52969 0.41083 0.0
N434 N 0.61372 0.5453 0.3759 0.0
H435 H 0.37224 0.54324 0.3612 0.0
C436 C 0.41717 0.40054 0.59281 0.0
O437 O 0.50457 0.42413 0.5807 0.0
O438 O 0.21648 0.51496 0.39214 0.0
H439 H 0.52243 0.52439 0.45832 0.0
H440 H 1.02796 0.32525 0.46205 0.0
H441 H 0.67879 0.55077 0.42685 0.0
Zn442 Zn 0.92238 1.08017 0.18427 0.0
C443 C 0.20613 0.10514 0.22814 0.0
N444 N 0.22652 0.09538 0.1939 0.0
C445 C 0.14021 0.09151 0.17779 0.0
N446 N 1.06505 0.09642 0.20116 0.0
N447 N 0.10605 0.10773 0.23343 0.0
C448 C 1.081 0.17009 0.35061 0.0
O449 O 0.16668 0.12901 0.34792 0.0
O450 O 0.91357 0.97469 0.14297 0.0
Zn451 Zn 1.01492 0.10624 0.27431 0.0
N452 N 0.88218 0.20332 0.16338 0.0
C453 C 0.8183 0.36547 0.16528 0.0
C454 C 0.86032 0.28524 0.18251 0.0
C455 C 0.86081 0.1987 0.12844 0.0
N456 N 0.80809 0.3641 0.12948 0.0
C457 C 0.82958 0.28269 0.11048 0.0
O458 O 0.87091 0.15032 0.26 0.0
C459 C 0.79355 0.11307 0.24522 0.0
O460 O 0.80296 1.05944 0.21777 0.0
H461 H 0.87184 0.28718 0.21084 0.0
H462 H 0.86781 0.12929 0.11482 0.0
C463 C 0.93524 0.92565 0.27123 0.0
C464 C 0.89564 0.84071 0.28544 0.0
C465 C 1.02593 0.83546 0.32667 0.0
C466 C 1.05932 0.9277 0.31455 0.0
N467 N 1.00966 0.97201 0.28785 0.0
N468 N 0.94185 0.79602 0.3128 0.0
H469 H 0.90367 0.95834 0.24846 0.0
C470 C 0.9567 0.89425 0.13528 0.0
O471 O 1.01795 0.85569 0.15785 0.0
O472 O 1.0261 0.17643 0.32335 0.0
H473 H 0.12172 0.96366 0.32678 0.0
H474 H 0.79389 0.42847 0.18 0.0
H475 H 1.06286 0.79859 0.34816 0.0
Zn476 Zn 0.32476 0.76779 0.01938 0.0
C477 C 0.34462 0.90036 0.92655 0.0
N478 N 0.33103 0.9859 0.94341 0.0
C479 C 0.30944 0.95956 0.97651 0.0
N480 N 0.31133 0.85857 0.98021 0.0
N481 N 0.33723 0.82178 0.94865 0.0
C482 C 0.52786 0.67909 0.88204 0.0
O483 O 0.5771 0.73767 0.90361 0.0
O484 O 0.29943 0.8069 0.07091 0.0
Zn485 Zn 0.3427 0.67743 0.93221 0.0
N486 N 0.46183 0.76174 0.01779 0.0
C487 C 0.59668 0.80648 0.98133 0.0
C488 C 0.5138 0.83275 4e-05 0.0
C489 C 0.49494 0.66983 0.02137 0.0
N490 N 0.62355 0.71112 0.98146 0.0
C491 C 0.57376 0.64201 0.0008 0.0
O492 O 0.35229 0.55687 0.96692 0.0
C493 C 0.30134 0.54472 0.99489 0.0
O494 O 0.26708 0.62177 0.01039 0.0
H495 H 0.48563 0.90584 0.99706 0.0
H496 H 0.45198 0.61688 0.03631 0.0
C497 C 0.20945 0.63464 0.87693 0.0
C498 C 0.13101 0.66577 0.85602 0.0
C499 C 1.06864 0.75193 0.90557 0.0
C500 C 0.1453 0.71942 0.92631 0.0
N501 N 0.21651 0.66556 0.91103 0.0
N502 N 1.0643 0.72622 0.87075 0.0
H503 H 0.26991 0.59579 0.86519 0.0
C504 C 0.2421 0.75406 0.09013 0.0
O505 O 0.17594 0.69728 0.07451 0.0
O506 O 0.44104 0.6505 0.89033 0.0
H507 H 0.15346 0.7458 0.95325 0.0
H508 H 0.63479 0.85866 0.96453 0.0
H509 H 1.01798 0.8037 0.91647 0.0
Zn510 Zn 0.65226 1.07968 0.77461 0.0
C511 C 0.52831 0.09784 0.67838 0.0
N512 N 0.44196 0.09253 0.69463 0.0
C513 C 0.46313 1.07971 0.72869 0.0
N514 N 0.56307 1.07688 0.73367 0.0
N515 N 0.60391 0.09107 0.70158 0.0
C516 C 0.76544 0.30481 0.63811 0.0
O517 O 0.77561 0.3671 0.66465 0.0
O518 O 0.63816 1.01129 0.82371 0.0
Zn519 Zn 0.74766 0.10644 0.68535 0.0
N520 N 0.6573 0.21521 0.78584 0.0
C521 C 0.6475 0.3625 0.81958 0.0
C522 C 0.61311 0.26671 0.81213 0.0
C523 C 0.72637 0.25706 0.76528 0.0
N524 N 0.72857 0.39749 0.80225 0.0
C525 C 0.7694 0.34481 0.7755 0.0
O526 O 0.86911 0.12275 0.71863 0.0
C527 C 0.87641 1.06943 0.74621 0.0
O528 O 0.79781 1.0373 0.76168 0.0
H529 H 0.55445 0.23402 0.82751 0.0
H530 H 0.75138 0.21845 0.74253 0.0
C531 C 0.80201 0.98626 0.62912 0.0
C532 C 0.8327 0.90219 0.61107 0.0
C533 C 0.85182 0.82216 0.66605 0.0
C534 C 0.80961 0.90198 0.68344 0.0
N535 N 0.78488 0.98288 0.66432 0.0
N536 N 0.859 0.82243 0.6301 0.0
H537 H 0.79385 1.05523 0.61546 0.0
C538 C 0.58613 1.0212 0.85154 0.0
O539 O 0.50463 1.07044 0.8501 0.0
O540 O 0.75762 0.21196 0.64423 0.0
H541 H 0.80063 0.90075 0.71189 0.0
H542 H 0.61464 0.40562 0.84045 0.0
H543 H 0.87796 0.76009 0.68081 0.0
loop_
_geom_bond_atom_site_label_1
_geom_bond_atom_site_label_2
_geom_bond_distance
_geom_bond_site_symmetry_2
_ccdc_geom_bond_type
Zn0 N4 2.020 . S
Zn0 O8 2.019 1_545 S
Zn0 N10 2.120 . S
Zn0 O18 1.975 1_545 S
C1 N2 1.334 . S
C1 N5 1.336 . S
N2 C1 1.334 . S
N2 C3 1.334 . S
C3 N2 1.334 . S
C3 N4 1.336 . S
N4 Zn0 2.020 . S
N4 C3 1.336 . S
N4 N5 1.354 . S
N5 C1 1.336 . S
N5 N4 1.354 . S
N5 Zn9 2.020 1_554 S
C6 O7 1.244 . S
C6 O30 1.257 . S
O7 C6 1.244 . S
O8 Zn0 2.019 1_565 S
O8 C28 1.257 . S
Zn9 N5 2.020 1_556 S
Zn9 O16 1.975 1_546 S
Zn9 N25 2.119 1_556 S
Zn9 O30 2.019 . S
N10 Zn0 2.120 . S
N10 C12 1.334 1_455 S
N10 C13 1.327 1_445 S
C11 C12 1.391 1_565 S
C11 N14 1.329 . S
C11 H32 0.930 . S
C12 N10 1.334 1_655 S
C12 C11 1.391 1_545 S
C12 H19 0.930 1_655 S
C13 N10 1.327 1_665 S
C13 C15 1.392 . S
C13 H20 0.930 1_655 S
N14 C11 1.329 . S
N14 C15 1.331 . S
C15 C13 1.392 . S
C15 N14 1.331 . S
O16 Zn9 1.975 1_564 S
O16 C17 1.252 . S
C17 O16 1.252 . S
C17 O18 1.252 . S
O18 Zn0 1.975 1_565 S
O18 C17 1.252 . S
H19 C12 0.930 1_455 S
H20 C13 0.930 1_455 S
C21 C22 1.392 . S
C21 N25 1.328 1_556 S
C21 H27 0.930 . S
C22 C21 1.392 . S
C22 N26 1.331 1_546 S
C23 C24 1.391 1_565 S
C23 N26 1.329 . S
C23 H33 0.930 . S
C24 C23 1.391 1_545 S
C24 N25 1.334 . S
C24 H31 0.930 . S
N25 Zn9 2.119 1_554 S
N25 C21 1.328 1_554 S
N25 C24 1.334 . S
N26 C22 1.331 1_564 S
N26 C23 1.329 . S
H27 C21 0.930 . S
C28 O8 1.257 . S
C28 O29 1.244 1_565 S
O29 C28 1.244 1_545 S
O30 C6 1.257 . S
O30 Zn9 2.019 . S
H31 C24 0.930 . S
H32 C11 0.930 . S
H33 C23 0.930 . S
Zn34 N38 2.020 . S
Zn34 O42 2.019 . S
Zn34 N44 2.119 . S
Zn34 O52 1.975 . S
C35 N36 1.334 . S
C35 N39 1.336 . S
N36 C35 1.334 . S
N36 C37 1.334 . S
C37 N36 1.334 . S
C37 N38 1.336 . S
N38 Zn34 2.020 . S
N38 C37 1.336 . S
N38 N39 1.354 . S
N39 C35 1.336 . S
N39 N38 1.354 . S
N39 Zn43 2.020 . S
C40 O41 1.244 . S
C40 O64 1.257 . S
O41 C40 1.244 . S
O42 Zn34 2.019 . S
O42 C62 1.257 . S
Zn43 N39 2.020 . S
Zn43 O50 1.975 . S
Zn43 N59 2.119 . S
Zn43 O64 2.019 . S
N44 Zn34 2.119 . S
N44 C46 1.334 . S
N44 C47 1.328 . S
C45 C46 1.391 . S
C45 N48 1.329 . S
C45 H66 0.930 . S
C46 N44 1.334 . S
C46 C45 1.391 . S
C46 H53 0.930 . S
C47 N44 1.328 . S
C47 C49 1.392 . S
C47 H54 0.930 . S
N48 C45 1.329 . S
N48 C49 1.331 . S
C49 C47 1.392 . S
C49 N48 1.331 . S
O50 Zn43 1.975 . S
O50 C51 1.252 . S
C51 O50 1.252 . S
C51 O52 1.252 . S
O52 Zn34 1.975 . S
O52 C51 1.252 . S
H53 C46 0.930 . S
H54 C47 0.930 . S
C55 C56 1.392 . S
C55 N59 1.328 . S
C55 H61 0.930 . S
C56 C55 1.392 . S
C56 N60 1.331 . S
C57 C58 1.391 . S
C57 N60 1.329 . S
C57 H67 0.930 . S
C58 C57 1.391 . S
C58 N59 1.334 . S
C58 H65 0.930 . S
N59 Zn43 2.119 . S
N59 C55 1.328 . S
N59 C58 1.334 . S
N60 C56 1.331 . S
N60 C57 1.329 . S
H61 C55 0.930 . S
C62 O42 1.257 . S
C62 O63 1.244 . S
O63 C62 1.244 . S
O64 C40 1.257 . S
O64 Zn43 2.019 . S
H65 C58 0.930 . S
H66 C45 0.930 . S
H67 C57 0.930 . S
Zn68 N72 2.020 . S
Zn68 O76 2.019 . S
Zn68 N78 2.119 . S
Zn68 O86 1.975 1_565 S
C69 N70 1.334 . S
C69 N73 1.336 . S
N70 C69 1.334 . S
N70 C71 1.334 . S
C71 N70 1.334 . S
C71 N72 1.336 . S
N72 Zn68 2.020 . S
N72 C71 1.336 . S
N72 N73 1.354 . S
N73 C69 1.336 . S
N73 N72 1.354 . S
N73 Zn77 2.020 . S
C74 O75 1.244 1_545 S
C74 O98 1.257 . S
O75 C74 1.244 1_565 S
O76 Zn68 2.019 . S
O76 C96 1.257 . S
Zn77 N73 2.020 . S
Zn77 O84 1.975 1_565 S
Zn77 N93 2.120 . S
Zn77 O98 2.019 1_565 S
N78 Zn68 2.119 . S
N78 C80 1.334 . S
N78 C81 1.328 . S
C79 C80 1.391 1_545 S
C79 N82 1.329 1_455 S
C79 H100 0.930 1_455 S
C80 N78 1.334 . S
C80 C79 1.391 1_565 S
C80 H87 0.930 . S
C81 N78 1.328 . S
C81 C83 1.391 1_455 S
C81 H88 0.930 . S
N82 C79 1.329 1_655 S
N82 C83 1.331 1_545 S
C83 C81 1.391 1_655 S
C83 N82 1.331 1_565 S
O84 Zn77 1.975 1_545 S
O84 C85 1.252 . S
C85 O84 1.252 . S
C85 O86 1.252 . S
O86 Zn68 1.975 1_545 S
O86 C85 1.252 . S
H87 C80 0.930 . S
H88 C81 0.930 . S
C89 C90 1.392 . S
C89 N93 1.327 1_545 S
C89 H95 0.930 . S
C90 C89 1.392 . S
C90 N94 1.331 . S
C91 C92 1.391 1_545 S
C91 N94 1.329 . S
C91 H101 0.930 . S
C92 C91 1.391 1_565 S
C92 N93 1.334 . S
C92 H99 0.930 . S
N93 Zn77 2.120 . S
N93 C89 1.327 1_565 S
N93 C92 1.334 . S
N94 C90 1.331 . S
N94 C91 1.329 . S
H95 C89 0.930 . S
C96 O76 1.257 . S
C96 O97 1.244 . S
O97 C96 1.244 . S
O98 C74 1.257 . S
O98 Zn77 2.019 1_545 S
H99 C92 0.930 . S
H100 C79 0.930 1_655 S
H101 C91 0.930 . S
Zn102 N106 2.020 . S
Zn102 O110 2.019 . S
Zn102 N112 2.119 . S
Zn102 O120 1.975 . S
C103 N104 1.334 1_655 S
C103 N107 1.336 . S
N104 C103 1.334 1_455 S
N104 C105 1.334 1_455 S
C105 N104 1.334 1_655 S
C105 N106 1.336 . S
N106 Zn102 2.020 . S
N106 C105 1.336 . S
N106 N107 1.354 . S
N107 C103 1.336 . S
N107 N106 1.354 . S
N107 Zn111 2.020 . S
C108 O109 1.244 . S
C108 O132 1.257 . S
O109 C108 1.244 . S
O110 Zn102 2.019 . S
O110 C130 1.257 . S
Zn111 N107 2.020 . S
Zn111 O118 1.975 . S
Zn111 N127 2.119 . S
Zn111 O132 2.019 . S
N112 Zn102 2.119 . S
N112 C114 1.334 . S
N112 C115 1.328 . S
C113 C114 1.391 . S
C113 N116 1.329 . S
C113 H134 0.930 . S
C114 N112 1.334 . S
C114 C113 1.391 . S
C114 H121 0.930 . S
C115 N112 1.328 . S
C115 C117 1.392 . S
C115 H122 0.930 . S
N116 C113 1.329 . S
N116 C117 1.331 . S
C117 C115 1.392 . S
C117 N116 1.331 . S
O118 Zn111 1.975 . S
O118 C119 1.252 . S
C119 O118 1.252 . S
C119 O120 1.252 . S
O120 Zn102 1.975 . S
O120 C119 1.252 . S
H121 C114 0.930 . S
H122 C115 0.930 . S
C123 C124 1.392 . S
C123 N127 1.328 . S
C123 H129 0.930 . S
C124 C123 1.392 . S
C124 N128 1.331 . S
C125 C126 1.391 . S
C125 N128 1.329 . S
C125 H135 0.930 . S
C126 C125 1.391 . S
C126 N127 1.334 . S
C126 H133 0.930 . S
N127 Zn111 2.119 . S
N127 C123 1.328 . S
N127 C126 1.334 . S
N128 C124 1.331 . S
N128 C125 1.329 . S
H129 C123 0.930 . S
C130 O110 1.257 . S
C130 O131 1.244 . S
O131 C130 1.244 . S
O132 C108 1.257 . S
O132 Zn111 2.019 . S
H133 C126 0.930 . S
H134 C113 0.930 . S
H135 C125 0.930 . S
Zn136 N140 2.020 . S
Zn136 O144 2.019 1_565 S
Zn136 N146 2.120 . S
Zn136 O154 1.975 1_565 S
C137 N138 1.334 . S
C137 N141 1.336 . S
N138 C137 1.334 . S
N138 C139 1.334 . S
C139 N138 1.334 . S
C139 N140 1.336 . S
N140 Zn136 2.020 . S
N140 C139 1.336 . S
N140 N141 1.354 . S
N141 C137 1.336 . S
N141 N140 1.354 . S
N141 Zn145 2.020 1_556 S
C142 O143 1.244 . S
C142 O166 1.257 . S
O143 C142 1.244 . S
O144 Zn136 2.019 1_545 S
O144 C164 1.257 . S
Zn145 N141 2.020 1_554 S
Zn145 O152 1.975 1_564 S
Zn145 N161 2.119 1_554 S
Zn145 O166 2.019 . S
N146 Zn136 2.120 . S
N146 C148 1.334 1_655 S
N146 C149 1.327 1_665 S
C147 C148 1.391 1_545 S
C147 N150 1.329 . S
C147 H168 0.930 . S
C148 N146 1.334 1_455 S
C148 C147 1.391 1_565 S
C148 H155 0.930 1_455 S
C149 N146 1.327 1_445 S
C149 C151 1.392 . S
C149 H156 0.930 1_455 S
N150 C147 1.329 . S
N150 C151 1.331 . S
C151 C149 1.392 . S
C151 N150 1.331 . S
O152 Zn145 1.975 1_546 S
O152 C153 1.252 . S
C153 O152 1.252 . S
C153 O154 1.252 . S
O154 Zn136 1.975 1_545 S
O154 C153 1.252 . S
H155 C148 0.930 1_655 S
H156 C149 0.930 1_655 S
C157 C158 1.392 . S
C157 N161 1.328 1_554 S
C157 H163 0.930 . S
C158 C157 1.392 . S
C158 N162 1.331 1_564 S
C159 C160 1.391 1_545 S
C159 N162 1.329 . S
C159 H169 0.930 . S
C160 C159 1.391 1_565 S
C160 N161 1.334 . S
C160 H167 0.930 . S
N161 Zn145 2.119 1_556 S
N161 C157 1.328 1_556 S
N161 C160 1.334 . S
N162 C158 1.331 1_546 S
N162 C159 1.329 . S
H163 C157 0.930 . S
C164 O144 1.257 . S
C164 O165 1.244 1_545 S
O165 C164 1.244 1_565 S
O166 C142 1.257 . S
O166 Zn145 2.019 . S
H167 C160 0.930 . S
H168 C147 0.930 . S
H169 C159 0.930 . S
Zn170 N174 2.020 . S
Zn170 O178 2.019 . S
Zn170 N180 2.119 . S
Zn170 O188 1.975 . S
C171 N172 1.334 . S
C171 N175 1.336 . S
N172 C171 1.334 . S
N172 C173 1.334 . S
C173 N172 1.334 . S
C173 N174 1.336 . S
N174 Zn170 2.020 . S
N174 C173 1.336 . S
N174 N175 1.354 . S
N175 C171 1.336 . S
N175 N174 1.354 . S
N175 Zn179 2.020 . S
C176 O177 1.244 . S
C176 O200 1.257 . S
O177 C176 1.244 . S
O178 Zn170 2.019 . S
O178 C198 1.257 . S
Zn179 N175 2.020 . S
Zn179 O186 1.975 . S
Zn179 N195 2.119 . S
Zn179 O200 2.019 . S
N180 Zn170 2.119 . S
N180 C182 1.334 . S
N180 C183 1.328 . S
C181 C182 1.391 . S
C181 N184 1.329 . S
C181 H202 0.930 . S
C182 N180 1.334 . S
C182 C181 1.391 . S
C182 H189 0.930 . S
C183 N180 1.328 . S
C183 C185 1.392 . S
C183 H190 0.930 . S
N184 C181 1.329 . S
N184 C185 1.331 . S
C185 C183 1.392 . S
C185 N184 1.331 . S
O186 Zn179 1.975 . S
O186 C187 1.252 . S
C187 O186 1.252 . S
C187 O188 1.252 . S
O188 Zn170 1.975 . S
O188 C187 1.252 . S
H189 C182 0.930 . S
H190 C183 0.930 . S
C191 C192 1.392 . S
C191 N195 1.328 . S
C191 H197 0.930 . S
C192 C191 1.392 . S
C192 N196 1.331 . S
C193 C194 1.391 . S
C193 N196 1.329 . S
C193 H203 0.930 . S
C194 C193 1.391 . S
C194 N195 1.334 . S
C194 H201 0.930 . S
N195 Zn179 2.119 . S
N195 C191 1.328 . S
N195 C194 1.334 . S
N196 C192 1.331 . S
N196 C193 1.329 . S
H197 C191 0.930 . S
C198 O178 1.257 . S
C198 O199 1.244 . S
O199 C198 1.244 . S
O200 C176 1.257 . S
O200 Zn179 2.019 . S
H201 C194 0.930 . S
H202 C181 0.930 . S
H203 C193 0.930 . S
Zn204 N208 2.020 . S
Zn204 O212 2.019 1_545 S
Zn204 N214 2.120 . S
Zn204 O222 1.975 1_545 S
C205 N206 1.334 . S
C205 N209 1.336 . S
N206 C205 1.334 . S
N206 C207 1.334 . S
C207 N206 1.334 . S
C207 N208 1.336 . S
N208 Zn204 2.020 . S
N208 C207 1.336 . S
N208 N209 1.354 . S
N209 C205 1.336 . S
N209 N208 1.354 . S
N209 Zn213 2.020 . S
C210 O211 1.244 . S
C210 O234 1.257 . S
O211 C210 1.244 . S
O212 Zn204 2.019 1_565 S
O212 C232 1.257 . S
Zn213 N209 2.020 . S
Zn213 O220 1.975 1_545 S
Zn213 N229 2.119 . S
Zn213 O234 2.019 . S
N214 Zn204 2.120 . S
N214 C216 1.334 . S
N214 C217 1.327 1_545 S
C215 C216 1.391 1_565 S
C215 N218 1.329 . S
C215 H236 0.930 . S
C216 N214 1.334 . S
C216 C215 1.391 1_545 S
C216 H223 0.930 . S
C217 N214 1.327 1_565 S
C217 C219 1.392 . S
C217 H224 0.930 . S
N218 C215 1.329 . S
N218 C219 1.331 . S
C219 C217 1.392 . S
C219 N218 1.331 . S
O220 Zn213 1.975 1_565 S
O220 C221 1.252 . S
C221 O220 1.252 . S
C221 O222 1.252 . S
O222 Zn204 1.975 1_565 S
O222 C221 1.252 . S
H223 C216 0.930 . S
H224 C217 0.930 . S
C225 C226 1.391 1_655 S
C225 N229 1.328 . S
C225 H231 0.930 . S
C226 C225 1.391 1_455 S
C226 N230 1.331 1_545 S
C227 C228 1.391 1_565 S
C227 N230 1.329 1_655 S
C227 H237 0.930 1_655 S
C228 C227 1.391 1_545 S
C228 N229 1.334 . S
C228 H235 0.930 . S
N229 Zn213 2.119 . S
N229 C225 1.328 . S
N229 C228 1.334 . S
N230 C226 1.331 1_565 S
N230 C227 1.329 1_455 S
H231 C225 0.930 . S
C232 O212 1.257 . S
C232 O233 1.244 1_565 S
O233 C232 1.244 1_545 S
O234 C210 1.257 . S
O234 Zn213 2.019 . S
H235 C228 0.930 . S
H236 C215 0.930 . S
H237 C227 0.930 1_455 S
Zn238 N242 2.020 . S
Zn238 O246 2.019 . S
Zn238 N248 2.119 . S
Zn238 O256 1.975 . S
C239 N240 1.334 1_455 S
C239 N243 1.336 . S
N240 C239 1.334 1_655 S
N240 C241 1.334 1_655 S
C241 N240 1.334 1_455 S
C241 N242 1.336 . S
N242 Zn238 2.020 . S
N242 C241 1.336 . S
N242 N243 1.354 . S
N243 C239 1.336 . S
N243 N242 1.354 . S
N243 Zn247 2.020 . S
C244 O245 1.244 . S
C244 O268 1.257 . S
O245 C244 1.244 . S
O246 Zn238 2.019 . S
O246 C266 1.257 . S
Zn247 N243 2.020 . S
Zn247 O254 1.975 . S
Zn247 N263 2.119 . S
Zn247 O268 2.019 . S
N248 Zn238 2.119 . S
N248 C250 1.334 . S
N248 C251 1.328 . S
C249 C250 1.391 . S
C249 N252 1.329 . S
C249 H270 0.930 . S
C250 N248 1.334 . S
C250 C249 1.391 . S
C250 H257 0.930 . S
C251 N248 1.328 . S
C251 C253 1.392 . S
C251 H258 0.930 . S
N252 C249 1.329 . S
N252 C253 1.331 . S
C253 C251 1.392 . S
C253 N252 1.331 . S
O254 Zn247 1.975 . S
O254 C255 1.252 . S
C255 O254 1.252 . S
C255 O256 1.252 . S
O256 Zn238 1.975 . S
O256 C255 1.252 . S
H257 C250 0.930 . S
H258 C251 0.930 . S
C259 C260 1.392 . S
C259 N263 1.328 . S
C259 H265 0.930 . S
C260 C259 1.392 . S
C260 N264 1.331 . S
C261 C262 1.391 . S
C261 N264 1.329 . S
C261 H271 0.930 . S
C262 C261 1.391 . S
C262 N263 1.334 . S
C262 H269 0.930 . S
N263 Zn247 2.119 . S
N263 C259 1.328 . S
N263 C262 1.334 . S
N264 C260 1.331 . S
N264 C261 1.329 . S
H265 C259 0.930 . S
C266 O246 1.257 . S
C266 O267 1.244 . S
O267 C266 1.244 . S
O268 C244 1.257 . S
O268 Zn247 2.019 . S
H269 C262 0.930 . S
H270 C249 0.930 . S
H271 C261 0.930 . S
Zn272 N276 2.020 . S
Zn272 O280 2.019 . S
Zn272 N282 2.119 . S
Zn272 O290 1.975 . S
C273 N274 1.334 . S
C273 N277 1.336 . S
N274 C273 1.334 . S
N274 C275 1.334 . S
C275 N274 1.334 . S
C275 N276 1.336 . S
N276 Zn272 2.020 . S
N276 C275 1.336 . S
N276 N277 1.354 . S
N277 C273 1.336 . S
N277 N276 1.354 . S
N277 Zn281 2.020 . S
C278 O279 1.244 . S
C278 O302 1.257 . S
O279 C278 1.244 . S
O280 Zn272 2.019 . S
O280 C300 1.257 . S
Zn281 N277 2.020 . S
Zn281 O288 1.975 . S
Zn281 N297 2.119 . S
Zn281 O302 2.019 . S
N282 Zn272 2.119 . S
N282 C284 1.334 . S
N282 C285 1.328 . S
C283 C284 1.391 . S
C283 N286 1.329 . S
C283 H304 0.930 . S
C284 N282 1.334 . S
C284 C283 1.391 . S
C284 H291 0.930 . S
C285 N282 1.328 . S
C285 C287 1.392 . S
C285 H292 0.930 . S
N286 C283 1.329 . S
N286 C287 1.331 . S
C287 C285 1.392 . S
C287 N286 1.331 . S
O288 Zn281 1.975 . S
O288 C289 1.252 . S
C289 O288 1.252 . S
C289 O290 1.252 . S
O290 Zn272 1.975 . S
O290 C289 1.252 . S
H291 C284 0.930 . S
H292 C285 0.930 . S
C293 C294 1.379 1_655 S
C293 N297 1.328 . S
C293 H299 0.930 . S
C294 C293 1.379 1_455 S
C294 N298 1.337 . S
C295 C296 1.391 . S
C295 N298 1.329 1_655 S
C295 H305 0.930 1_655 S
C296 C295 1.391 . S
C296 N297 1.334 . S
C296 H303 0.930 . S
N297 Zn281 2.119 . S
N297 C293 1.328 . S
N297 C296 1.334 . S
N298 C294 1.337 . S
N298 C295 1.329 1_455 S
H299 C293 0.930 . S
C300 O280 1.257 . S
C300 O301 1.244 . S
O301 C300 1.244 . S
O302 C278 1.257 . S
O302 Zn281 2.019 . S
H303 C296 0.930 . S
H304 C283 0.930 . S
H305 C295 0.930 1_455 S
Zn306 N310 2.020 . S
Zn306 O314 2.019 . S
Zn306 N316 2.119 . S
Zn306 O324 1.975 1_565 S
C307 N308 1.334 1_455 S
C307 N311 1.336 . S
N308 C307 1.334 1_655 S
N308 C309 1.334 1_645 S
C309 N308 1.334 1_465 S
C309 N310 1.336 . S
N310 Zn306 2.020 . S
N310 C309 1.336 . S
N310 N311 1.354 1_565 S
N311 C307 1.336 . S
N311 N310 1.354 1_545 S
N311 Zn315 2.020 . S
C312 O313 1.244 . S
C312 O336 1.257 1_565 S
O313 C312 1.244 . S
O314 Zn306 2.019 . S
O314 C334 1.257 1_565 S
Zn315 N311 2.020 . S
Zn315 O322 1.975 1_545 S
Zn315 N331 2.119 . S
Zn315 O336 2.019 . S
N316 Zn306 2.119 . S
N316 C318 1.334 . S
N316 C319 1.328 . S
C317 C318 1.391 . S
C317 N320 1.329 . S
C317 H338 0.930 . S
C318 N316 1.334 . S
C318 C317 1.391 . S
C318 H325 0.930 . S
C319 N316 1.328 . S
C319 C321 1.392 . S
C319 H326 0.930 . S
N320 C317 1.329 . S
N320 C321 1.331 . S
C321 C319 1.392 . S
C321 N320 1.331 . S
O322 Zn315 1.975 1_565 S
O322 C323 1.252 . S
C323 O322 1.252 . S
C323 O324 1.252 1_565 S
O324 Zn306 1.975 1_545 S
O324 C323 1.252 1_545 S
H325 C318 0.930 . S
H326 C319 0.930 . S
C327 C328 1.392 . S
C327 N331 1.328 . S
C327 H333 0.930 . S
C328 C327 1.392 . S
C328 N332 1.331 . S
C329 C330 1.391 . S
C329 N332 1.329 . S
C329 H339 0.930 . S
C330 C329 1.391 . S
C330 N331 1.334 . S
C330 H337 0.930 . S
N331 Zn315 2.119 . S
N331 C327 1.328 . S
N331 C330 1.334 . S
N332 C328 1.331 . S
N332 C329 1.329 . S
H333 C327 0.930 . S
C334 O314 1.257 1_545 S
C334 O335 1.244 . S
O335 C334 1.244 . S
O336 C312 1.257 1_545 S
O336 Zn315 2.019 . S
H337 C330 0.930 . S
H338 C317 0.930 . S
H339 C329 0.930 . S
Zn340 N344 2.020 1_556 S
Zn340 O348 2.019 . S
Zn340 N350 2.119 1_556 S
Zn340 O358 1.975 1_556 S
C341 N342 1.334 . S
C341 N345 1.336 . S
N342 C341 1.334 . S
N342 C343 1.334 . S
C343 N342 1.334 . S
C343 N344 1.336 . S
N344 Zn340 2.020 1_554 S
N344 C343 1.336 . S
N344 N345 1.354 . S
N345 C341 1.336 . S
N345 N344 1.354 . S
N345 Zn349 2.020 . S
C346 O347 1.244 . S
C346 O370 1.257 . S
O347 C346 1.244 . S
O348 Zn340 2.019 . S
O348 C368 1.257 . S
Zn349 N345 2.020 . S
Zn349 O356 1.975 . S
Zn349 N365 2.119 . S
Zn349 O370 2.019 . S
N350 Zn340 2.119 1_554 S
N350 C352 1.334 . S
N350 C353 1.328 1_554 S
C351 C352 1.391 . S
C351 N354 1.329 . S
C351 H372 0.930 . S
C352 N350 1.334 . S
C352 C351 1.391 . S
C352 H359 0.930 . S
C353 N350 1.328 1_556 S
C353 C355 1.392 . S
C353 H360 0.930 . S
N354 C351 1.329 . S
N354 C355 1.331 1_554 S
C355 C353 1.392 . S
C355 N354 1.331 1_556 S
O356 Zn349 1.975 . S
O356 C357 1.252 . S
C357 O356 1.252 . S
C357 O358 1.252 . S
O358 Zn340 1.975 1_554 S
O358 C357 1.252 . S
H359 C352 0.930 . S
H360 C353 0.930 . S
C361 C362 1.392 . S
C361 N365 1.328 1_455 S
C361 H367 0.930 1_455 S
C362 C361 1.392 . S
C362 N366 1.331 . S
C363 C364 1.391 . S
C363 N366 1.329 . S
C363 H373 0.930 . S
C364 C363 1.391 . S
C364 N365 1.334 1_455 S
C364 H371 0.930 1_455 S
N365 Zn349 2.119 . S
N365 C361 1.328 1_655 S
N365 C364 1.334 1_655 S
N366 C362 1.331 . S
N366 C363 1.329 . S
H367 C361 0.930 1_655 S
C368 O348 1.257 . S
C368 O369 1.244 . S
O369 C368 1.244 . S
O370 C346 1.257 . S
O370 Zn349 2.019 . S
H371 C364 0.930 1_655 S
H372 C351 0.930 . S
H373 C363 0.930 . S
Zn374 N378 2.020 . S
Zn374 O382 2.019 . S
Zn374 N384 2.119 . S
Zn374 O392 1.975 1_545 S
C375 N376 1.334 . S
C375 N379 1.336 . S
N376 C375 1.334 . S
N376 C377 1.334 1_565 S
C377 N376 1.334 1_545 S
C377 N378 1.336 . S
N378 Zn374 2.020 . S
N378 C377 1.336 . S
N378 N379 1.354 1_545 S
N379 C375 1.336 . S
N379 N378 1.354 1_565 S
N379 Zn383 2.020 . S
C380 O381 1.244 . S
C380 O404 1.257 1_545 S
O381 C380 1.244 . S
O382 Zn374 2.019 . S
O382 C402 1.257 1_545 S
Zn383 N379 2.020 . S
Zn383 O390 1.975 1_565 S
Zn383 N399 2.119 . S
Zn383 O404 2.019 . S
N384 Zn374 2.119 . S
N384 C386 1.334 . S
N384 C387 1.328 . S
C385 C386 1.391 . S
C385 N388 1.329 . S
C385 H406 0.930 . S
C386 N384 1.334 . S
C386 C385 1.391 . S
C386 H393 0.930 . S
C387 N384 1.328 . S
C387 C389 1.392 . S
C387 H394 0.930 . S
N388 C385 1.329 . S
N388 C389 1.331 . S
C389 C387 1.392 . S
C389 N388 1.331 . S
O390 Zn383 1.975 1_545 S
O390 C391 1.252 . S
C391 O390 1.252 . S
C391 O392 1.252 1_545 S
O392 Zn374 1.975 1_565 S
O392 C391 1.252 1_565 S
H393 C386 0.930 . S
H394 C387 0.930 . S
C395 C396 1.392 . S
C395 N399 1.328 . S
C395 H401 0.930 . S
C396 C395 1.392 . S
C396 N400 1.331 . S
C397 C398 1.391 . S
C397 N400 1.329 . S
C397 H407 0.930 . S
C398 C397 1.391 . S
C398 N399 1.334 . S
C398 H405 0.930 . S
N399 Zn383 2.119 . S
N399 C395 1.328 . S
N399 C398 1.334 . S
N400 C396 1.331 . S
N400 C397 1.329 . S
H401 C395 0.930 . S
C402 O382 1.257 1_565 S
C402 O403 1.244 . S
O403 C402 1.244 . S
O404 C380 1.257 1_565 S
O404 Zn383 2.019 . S
H405 C398 0.930 . S
H406 C385 0.930 . S
H407 C397 0.930 . S
Zn408 N412 2.020 . S
Zn408 O416 2.019 . S
Zn408 N418 2.119 . S
Zn408 O426 1.975 . S
C409 N410 1.334 . S
C409 N413 1.336 . S
N410 C409 1.334 . S
N410 C411 1.334 . S
C411 N410 1.334 . S
C411 N412 1.336 . S
N412 Zn408 2.020 . S
N412 C411 1.336 . S
N412 N413 1.354 . S
N413 C409 1.336 . S
N413 N412 1.354 . S
N413 Zn417 2.020 . S
C414 O415 1.244 . S
C414 O438 1.257 . S
O415 C414 1.244 . S
O416 Zn408 2.019 . S
O416 C436 1.257 . S
Zn417 N413 2.020 . S
Zn417 O424 1.975 . S
Zn417 N433 2.119 . S
Zn417 O438 2.019 . S
N418 Zn408 2.119 . S
N418 C420 1.334 . S
N418 C421 1.328 . S
C419 C420 1.391 . S
C419 N422 1.329 1_455 S
C419 H440 0.930 1_455 S
C420 N418 1.334 . S
C420 C419 1.391 . S
C420 H427 0.930 . S
C421 N418 1.328 . S
C421 C423 1.379 1_455 S
C421 H428 0.930 . S
N422 C419 1.329 1_655 S
N422 C423 1.337 . S
C423 C421 1.379 1_655 S
C423 N422 1.337 . S
O424 Zn417 1.975 . S
O424 C425 1.252 . S
C425 O424 1.252 . S
C425 O426 1.252 . S
O426 Zn408 1.975 . S
O426 C425 1.252 . S
H427 C420 0.930 . S
H428 C421 0.930 . S
C429 C430 1.392 . S
C429 N433 1.328 . S
C429 H435 0.930 . S
C430 C429 1.392 . S
C430 N434 1.331 . S
C431 C432 1.391 . S
C431 N434 1.329 . S
C431 H441 0.930 . S
C432 C431 1.391 . S
C432 N433 1.334 . S
C432 H439 0.930 . S
N433 Zn417 2.119 . S
N433 C429 1.328 . S
N433 C432 1.334 . S
N434 C430 1.331 . S
N434 C431 1.329 . S
H435 C429 0.930 . S
C436 O416 1.257 . S
C436 O437 1.244 . S
O437 C436 1.244 . S
O438 C414 1.257 . S
O438 Zn417 2.019 . S
H439 C432 0.930 . S
H440 C419 0.930 1_655 S
H441 C431 0.930 . S
Zn442 N446 2.020 . S
Zn442 O450 2.019 . S
Zn442 N452 2.119 . S
Zn442 O460 1.975 1_545 S
C443 N444 1.334 1_655 S
C443 N447 1.336 . S
N444 C443 1.334 1_455 S
N444 C445 1.334 1_465 S
C445 N444 1.334 1_645 S
C445 N446 1.336 . S
N446 Zn442 2.020 . S
N446 C445 1.336 . S
N446 N447 1.354 1_545 S
N447 C443 1.336 . S
N447 N446 1.354 1_565 S
N447 Zn451 2.020 . S
C448 O449 1.244 . S
C448 O472 1.257 1_545 S
O449 C448 1.244 . S
O450 Zn442 2.019 . S
O450 C470 1.257 1_545 S
Zn451 N447 2.020 . S
Zn451 O458 1.975 1_565 S
Zn451 N467 2.119 . S
Zn451 O472 2.019 . S
N452 Zn442 2.119 . S
N452 C454 1.334 . S
N452 C455 1.328 . S
C453 C454 1.391 . S
C453 N456 1.329 . S
C453 H474 0.930 . S
C454 N452 1.334 . S
C454 C453 1.391 . S
C454 H461 0.930 . S
C455 N452 1.328 . S
C455 C457 1.392 . S
C455 H462 0.930 . S
N456 C453 1.329 . S
N456 C457 1.331 . S
C457 C455 1.392 . S
C457 N456 1.331 . S
O458 Zn451 1.975 1_545 S
O458 C459 1.252 . S
C459 O458 1.252 . S
C459 O460 1.252 1_545 S
O460 Zn442 1.975 1_565 S
O460 C459 1.252 1_565 S
H461 C454 0.930 . S
H462 C455 0.930 . S
C463 C464 1.392 . S
C463 N467 1.328 . S
C463 H469 0.930 . S
C464 C463 1.392 . S
C464 N468 1.331 . S
C465 C466 1.391 . S
C465 N468 1.329 . S
C465 H475 0.930 . S
C466 C465 1.391 . S
C466 N467 1.334 . S
C466 H473 0.930 . S
N467 Zn451 2.119 . S
N467 C463 1.328 . S
N467 C466 1.334 . S
N468 C464 1.331 . S
N468 C465 1.329 . S
H469 C463 0.930 . S
C470 O450 1.257 1_565 S
C470 O471 1.244 . S
O471 C470 1.244 . S
O472 C448 1.257 1_565 S
O472 Zn451 2.019 . S
H473 C466 0.930 . S
H474 C453 0.930 . S
H475 C465 0.930 . S
Zn476 N480 2.020 1_554 S
Zn476 O484 2.019 . S
Zn476 N486 2.119 1_554 S
Zn476 O494 1.975 1_554 S
C477 N478 1.334 . S
C477 N481 1.336 . S
N478 C477 1.334 . S
N478 C479 1.334 . S
C479 N478 1.334 . S
C479 N480 1.336 . S
N480 Zn476 2.020 1_556 S
N480 C479 1.336 . S
N480 N481 1.354 . S
N481 C477 1.336 . S
N481 N480 1.354 . S
N481 Zn485 2.020 . S
C482 O483 1.244 . S
C482 O506 1.257 . S
O483 C482 1.244 . S
O484 Zn476 2.019 . S
O484 C504 1.257 . S
Zn485 N481 2.020 . S
Zn485 O492 1.975 . S
Zn485 N501 2.119 . S
Zn485 O506 2.019 . S
N486 Zn476 2.119 1_556 S
N486 C488 1.334 . S
N486 C489 1.328 1_556 S
C487 C488 1.391 . S
C487 N490 1.329 . S
C487 H508 0.930 . S
C488 N486 1.334 . S
C488 C487 1.391 . S
C488 H495 0.930 . S
C489 N486 1.328 1_554 S
C489 C491 1.392 . S
C489 H496 0.930 . S
N490 C487 1.329 . S
N490 C491 1.331 1_556 S
C491 C489 1.392 . S
C491 N490 1.331 1_554 S
O492 Zn485 1.975 . S
O492 C493 1.252 . S
C493 O492 1.252 . S
C493 O494 1.252 . S
O494 Zn476 1.975 1_556 S
O494 C493 1.252 . S
H495 C488 0.930 . S
H496 C489 0.930 . S
C497 C498 1.392 . S
C497 N501 1.328 1_655 S
C497 H503 0.930 1_655 S
C498 C497 1.392 . S
C498 N502 1.331 . S
C499 C500 1.391 . S
C499 N502 1.329 . S
C499 H509 0.930 . S
C500 C499 1.391 . S
C500 N501 1.334 1_655 S
C500 H507 0.930 1_655 S
N501 Zn485 2.119 . S
N501 C497 1.328 1_455 S
N501 C500 1.334 1_455 S
N502 C498 1.331 . S
N502 C499 1.329 . S
H503 C497 0.930 1_455 S
C504 O484 1.257 . S
C504 O505 1.244 . S
O505 C504 1.244 . S
O506 C482 1.257 . S
O506 Zn485 2.019 . S
H507 C500 0.930 1_455 S
H508 C487 0.930 . S
H509 C499 0.930 . S
Zn510 N514 2.020 . S
Zn510 O518 2.019 . S
Zn510 N520 2.119 . S
Zn510 O528 1.975 1_545 S
C511 N512 1.334 1_565 S
C511 N515 1.336 . S
N512 C511 1.334 1_545 S
N512 C513 1.334 . S
C513 N512 1.334 . S
C513 N514 1.336 . S
N514 Zn510 2.020 . S
N514 C513 1.336 . S
N514 N515 1.354 1_545 S
N515 C511 1.336 . S
N515 N514 1.354 1_565 S
N515 Zn519 2.020 . S
C516 O517 1.244 . S
C516 O540 1.257 1_545 S
O517 C516 1.244 . S
O518 Zn510 2.019 . S
O518 C538 1.257 1_545 S
Zn519 N515 2.020 . S
Zn519 O526 1.975 1_565 S
Zn519 N535 2.119 . S
Zn519 O540 2.019 . S
N520 Zn510 2.119 . S
N520 C522 1.334 . S
N520 C523 1.328 . S
C521 C522 1.391 . S
C521 N524 1.329 . S
C521 H542 0.930 . S
C522 N520 1.334 . S
C522 C521 1.391 . S
C522 H529 0.930 . S
C523 N520 1.328 . S
C523 C525 1.392 . S
C523 H530 0.930 . S
N524 C521 1.329 . S
N524 C525 1.331 . S
C525 C523 1.392 . S
C525 N524 1.331 . S
O526 Zn519 1.975 1_545 S
O526 C527 1.252 1_545 S
C527 O526 1.252 1_565 S
C527 O528 1.252 . S
O528 Zn510 1.975 1_565 S
O528 C527 1.252 . S
H529 C522 0.930 . S
H530 C523 0.930 . S
C531 C532 1.392 . S
C531 N535 1.328 . S
C531 H537 0.930 . S
C532 C531 1.392 . S
C532 N536 1.331 . S
C533 C534 1.391 . S
C533 N536 1.329 . S
C533 H543 0.930 . S
C534 C533 1.391 . S
C534 N535 1.334 . S
C534 H541 0.930 . S
N535 Zn519 2.119 . S
N535 C531 1.328 . S
N535 C534 1.334 . S
N536 C532 1.331 . S
N536 C533 1.329 . S
H537 C531 0.930 . S
C538 O518 1.257 1_565 S
C538 O539 1.244 . S
O539 C538 1.244 . S
O540 C516 1.257 1_565 S
O540 Zn519 2.019 . S
H541 C534 0.930 . S
H542 C521 0.930 . S
H543 C533 0.930 . S
C334 C6 1.721 . S
C346 C40 2.008 . S
C402 C96 1.722 . S
C300 C108 2.008 . S
C142 C470 1.721 . S
C482 C176 2.008 . S
C516 C210 1.722 . S
C244 C414 2.008 . S
C62 C278 2.033 . S
C74 C312 1.650 1_545 S
C368 C130 2.032 . S
C28 C380 1.650 1_565 S
C198 C436 2.033 . S
C448 C232 1.650 1_545 S
C504 C266 2.032 . S
C164 C538 1.650 1_545 S
C253 C3 2.414 . S
C37 C430 2.483 . S
C69 C185 2.414 . S
C498 C105 2.483 . S
C117 C139 2.414 . S
C287 C173 2.483 . S
C49 C207 2.414 . S
C362 C241 2.483 . S
C275 C532 2.388 . S
C309 C151 2.341 1_565 S
C457 C341 2.388 . S
C219 C377 2.342 1_565 S
C409 C389 2.388 . S
C445 C15 2.341 1_545 S
C477 C321 2.388 . S
C511 C90 2.342 1_565 S
C158 C22 1.828 1_564 S
C56 C464 1.779 . S
C226 C83 1.829 1_445 S
C525 C124 1.780 . S
C328 C192 1.779 . S
C260 C396 1.780 . S
C294 C423 1.703 1_455 S
C355 C491 1.704 1_556 S
C479 C17 3.710 1_556 S
C239 C51 3.888 1_455 S
C85 C411 3.710 . S
C171 C119 3.888 . S
C153 C343 3.710 1_556 S
C187 C103 3.888 1_455 S
C221 C273 3.710 . S
C35 C255 3.888 . S
C289 C205 4.134 . S
C513 C323 4.007 1_545 S
C357 C137 4.134 1_554 S
C391 C443 4.007 1_445 S
C71 C425 4.134 . S
C459 C375 4.007 1_545 S
C493 C1 4.134 1_556 S
C527 C307 4.007 1_665 S
