# Generated by pormake.
# Topology rkf, (6)-cn, num edge types: 1
# Building blocks:
#     Node 0, Type 0, BuildingBlock: PAMTUU_clean_sbu_0, # of connection points: 6
#     Node 1, Type 0, BuildingBlock: PAMTUU_clean_sbu_0, # of connection points: 6
#     Node 2, Type 0, BuildingBlock: PAMTUU_clean_sbu_0, # of connection points: 6
#     Node 3, Type 0, BuildingBlock: PAMTUU_clean_sbu_0, # of connection points: 6
#     Node 4, Type 0, BuildingBlock: PAMTUU_clean_sbu_0, # of connection points: 6
#     Node 5, Type 0, BuildingBlock: PAMTUU_clean_sbu_0, # of connection points: 6
#     Edge 6, Type (0, 0), BuildingBlock: AJUNOK_clean_linker_0, # of connection points: 2
#     Edge 7, Type (0, 0), BuildingBlock: AJUNOK_clean_linker_0, # of connection points: 2
#     Edge 8, Type (0, 0), BuildingBlock: AJUNOK_clean_linker_0, # of connection points: 2
#     Edge 9, Type (0, 0), BuildingBlock: AJUNOK_clean_linker_0, # of connection points: 2
#     Edge 10, Type (0, 0), BuildingBlock: AJUNOK_clean_linker_0, # of connection points: 2
#     Edge 11, Type (0, 0), BuildingBlock: AJUNOK_clean_linker_0, # of connection points: 2
#     Edge 12, Type (0, 0), BuildingBlock: AJUNOK_clean_linker_0, # of connection points: 2
#     Edge 13, Type (0, 0), BuildingBlock: AJUNOK_clean_linker_0, # of connection points: 2
#     Edge 14, Type (0, 0), BuildingBlock: AJUNOK_clean_linker_0, # of connection points: 2
#     Edge 15, Type (0, 0), BuildingBlock: AJUNOK_clean_linker_0, # of connection points: 2
#     Edge 16, Type (0, 0), BuildingBlock: AJUNOK_clean_linker_0, # of connection points: 2
#     Edge 17, Type (0, 0), BuildingBlock: AJUNOK_clean_linker_0, # of connection points: 2
#     Edge 18, Type (0, 0), BuildingBlock: AJUNOK_clean_linker_0, # of connection points: 2
#     Edge 19, Type (0, 0), BuildingBlock: AJUNOK_clean_linker_0, # of connection points: 2
#     Edge 20, Type (0, 0), BuildingBlock: AJUNOK_clean_linker_0, # of connection points: 2
#     Edge 21, Type (0, 0), BuildingBlock: AJUNOK_clean_linker_0, # of connection points: 2
#     Edge 22, Type (0, 0), BuildingBlock: AJUNOK_clean_linker_0, # of connection points: 2
#     Edge 23, Type (0, 0), BuildingBlock: AJUNOK_clean_linker_0, # of connection points: 2
# Relax obj value: 1.141
# Max RMSD: 0.276
# Mean RMSD: 0.266
data_MOF--net-rkf--node1-PAMTUU_clean_sbu_0--edge1-AJUNOK_clean_linker_0
_symmetry_space_group_name_H-M    P1
_symmetry_Int_Tables_number       1
_symmetry_cell_setting            triclinic
loop_
_symmetry_equiv_pos_as_xyz
'x, y, z'
_cell_length_a     19.811295
_cell_length_b     20.072213
_cell_length_c     31.677994
_cell_angle_alpha  88.339273
_cell_angle_beta   90.362493
_cell_angle_gamma 120.18486
loop_
_atom_site_label
_atom_site_type_symbol
_atom_site_fract_x
_atom_site_fract_y
_atom_site_fract_z
_atom_type_partial_charge
Tb0 Tb 0.20623 -0.02265 0.25488 0.0
Tb1 Tb 0.1862 0.11852 1.22722 0.0
C2 C 0.3466 0.13202 1.23111 0.0
C3 C 0.18951 0.7894 0.28184 0.0
C4 C 0.09905 0.65307 0.32855 0.0
C5 C 0.17884 0.6798 0.3215 0.0
C6 C 0.22442 0.74903 0.29885 0.0
C7 C 0.10812 0.75484 0.2817 0.0
C8 C 0.06283 0.68638 0.30463 0.0
C9 C 0.23725 0.87122 0.27075 0.0
O10 O 0.23016 0.04721 0.3145 0.0
O11 O 0.1723 0.11712 0.29554 0.0
O12 O 0.07111 0.01782 1.22797 0.0
O13 O 0.08671 0.93579 0.27381 0.0
O14 O 0.124 0.17707 1.2323 0.0
O15 O 0.22361 0.21899 1.18993 0.0
O16 O 0.17544 0.05858 1.16736 0.0
O17 O 0.13898 0.93868 1.1949 0.0
O18 O 0.30686 0.06167 1.21886 0.0
O19 O 0.308 0.16306 0.2462 0.0
C20 C 0.20325 0.09395 0.32505 0.0
O21 O 0.22658 0.89119 1.23313 0.0
O22 O 0.2381 0.91776 0.29881 0.0
C23 C 0.04263 0.95718 0.25364 0.0
C24 C 0.20493 0.31079 1.22429 0.0
C25 C 0.29138 0.47084 1.23152 0.0
C26 C 0.21399 0.43474 1.21617 0.0
C27 C 0.17199 0.35521 1.21161 0.0
C28 C 0.27294 0.34391 0.24865 0.0
C29 C 0.31513 0.42383 0.25325 0.0
C30 C 0.17313 0.23357 1.20764 0.0
C31 C 0.14327 -0.01673 1.1621 0.0
H32 H 0.20778 0.65408 0.33883 0.0
H33 H 0.28733 0.77455 0.29825 0.0
H34 H 0.08034 0.78491 0.26787 0.0
H35 H 0.00149 0.66728 0.30888 0.0
H36 H 0.19013 0.46744 1.20123 0.0
H37 H 0.11752 0.32969 1.19445 0.0
H38 H 0.29722 0.30927 0.26049 0.0
H39 H 0.37217 0.44916 0.26767 0.0
Tb40 Tb 0.22977 0.33955 0.56694 0.0
Tb41 Tb 0.24544 0.20411 0.60388 0.0
C42 C 0.38396 0.35379 0.57822 0.0
C43 C 0.22943 0.51874 0.57707 0.0
C44 C 0.12663 0.56965 0.56401 0.0
C45 C 0.207 0.62498 0.56401 0.0
C46 C 0.2594 0.5973 0.56719 0.0
C47 C 0.15446 0.4763 0.59522 0.0
C48 C 0.10387 0.50548 0.5915 0.0
C49 C 0.26307 0.47681 0.55732 0.0
O50 O 0.20872 0.27702 0.50702 0.0
O51 O 0.23153 0.18276 0.53415 0.0
O52 O 0.11929 0.15861 0.60144 0.0
O53 O 0.10772 0.26125 0.57461 0.0
O54 O 0.31724 0.15651 0.596 0.0
O55 O 0.21897 0.10365 0.63928 0.0
O56 O 0.22118 0.23978 0.6647 0.0
O57 O 0.19393 0.32881 0.63534 0.0
O58 O 0.33407 0.33947 0.54867 0.0
O59 O 0.35395 0.31415 0.61308 0.0
C60 C 0.21651 0.21577 0.5012 0.0
O61 O 0.30154 0.45531 0.58259 0.0
O62 O 0.21508 0.4216 0.53254 0.0
C63 C 0.0777 0.19151 0.59114 0.0
C64 C 0.33264 0.10201 0.65977 0.0
C65 C 0.42105 0.10799 0.7311 0.0
C66 C 0.34169 0.05048 0.72804 0.0
C67 C 0.29836 0.04724 0.6927 0.0
C68 C 0.41309 0.15617 0.66104 0.0
C69 C 0.45698 0.1588 0.69634 0.0
C70 C 0.28229 0.10532 0.62641 0.0
C71 C 0.1955 0.28854 0.669 0.0
H72 H 0.22735 0.68074 0.5485 0.0
H73 H 0.31866 0.63295 0.55546 0.0
H74 H 0.13112 0.4167 0.60531 0.0
H75 H 0.04274 0.46627 0.59868 0.0
H76 H 0.31086 0.01069 0.75414 0.0
H77 H 0.2367 0.0045 0.69223 0.0
H78 H 0.44162 0.19849 0.63562 0.0
H79 H 0.51827 0.2021 0.69672 0.0
Tb80 Tb 0.0963 0.33347 0.93898 0.0
Tb81 Tb 0.94535 0.32328 0.90126 0.0
C82 C 0.07618 0.47606 0.92923 0.0
C83 C 0.26085 0.41547 1.00905 0.0
C84 C 0.32944 0.51076 1.07904 0.0
C85 C 0.37082 0.48387 1.05533 0.0
C86 C 0.33705 0.43709 1.02064 0.0
C87 C 0.21973 0.44306 1.03142 0.0
C88 C 0.25276 0.48866 1.0663 0.0
C89 C 0.22252 0.36341 0.97424 0.0
O90 O 0.02369 0.32365 0.99521 0.0
O91 O 0.90501 0.26297 0.96371 0.0
O92 O 0.91805 0.20702 0.89315 0.0
O93 O 0.01423 0.21023 0.93604 0.0
O94 O 0.90061 0.36322 0.85261 0.0
O95 O 0.83076 0.30048 0.9071 0.0
O96 O 0.02224 0.33746 0.84522 0.0
O97 O 0.10302 0.29868 0.87445 0.0
O98 O 0.12047 0.44885 0.91771 0.0
O99 O 0.00336 0.42718 0.93679 0.0
C100 C 0.94672 0.2788 0.99851 0.0
O101 O 0.1554 0.30288 0.98375 0.0
O102 O 0.219 0.39702 0.93928 0.0
C103 C 0.94851 0.17262 0.91504 0.0
C104 C 0.76797 0.26928 0.84259 0.0
C105 C 0.65601 0.1375 0.80167 0.0
C106 C 0.72874 0.18671 0.78228 0.0
C107 C 0.78441 0.25216 0.80258 0.0
C108 C 0.69406 0.22209 0.86096 0.0
C109 C 0.6395 0.15576 0.8412 0.0
C110 C 0.83044 0.32585 0.86894 0.0
C111 C 0.07455 0.31486 0.84041 0.0
H112 H 0.42857 0.49635 1.06391 0.0
H113 H 0.36982 0.4165 1.00351 0.0
H114 H 0.16061 0.42702 1.02283 0.0
H115 H 0.21508 0.50172 1.08432 0.0
H116 H 0.74424 0.17265 0.75246 0.0
H117 H 0.84143 0.28679 0.78791 0.0
H118 H 0.68038 0.23362 0.89202 0.0
H119 H 0.5854 0.11761 0.85757 0.0
Tb120 Tb 0.65851 0.01442 1.23277 0.0
Tb121 Tb 0.79666 0.1641 0.26802 0.0
C122 C 0.63557 0.14275 0.2575 0.0
C123 C 0.53381 0.86887 1.15918 0.0
C124 C 0.52151 0.77817 1.09108 0.0
C125 C 0.45527 0.7788 1.10585 0.0
C126 C 0.46111 0.82312 1.14043 0.0
C127 C 0.60123 0.87522 1.14117 0.0
C128 C 0.59509 0.82998 1.10746 0.0
C129 C 0.54036 0.90771 1.19843 0.0
O130 O 0.72137 0.0881 1.17489 0.0
O131 O 0.83781 0.17725 1.20265 0.0
O132 O 0.83285 0.07855 0.27472 0.0
O133 O 0.75463 -0.00492 1.22436 0.0
O134 O 0.81751 0.26358 0.29787 0.0
O135 O 0.91376 0.24846 0.2783 0.0
O136 O 0.74434 0.09144 0.32679 0.0
O137 O 0.66861 -0.02656 0.29715 0.0
O138 O 0.61493 0.0733 0.27033 0.0
O139 O 0.70509 0.18259 0.24079 0.0
C140 C 0.79477 0.14543 1.16936 0.0
O141 O 0.58037 0.89629 1.22773 0.0
O142 O 0.56075 -0.01976 1.19403 0.0
C143 C 0.81199 0.01833 0.25122 0.0
C144 C 0.93211 0.32562 0.33687 0.0
C145 C -0.00518 0.40836 0.41047 0.0
C146 C 0.92925 0.33362 0.41291 0.0
C147 C 0.89771 0.29261 0.37623 0.0
C148 C 0.00072 0.397 0.3346 0.0
C149 C 0.03223 0.43776 0.37106 0.0
C150 C 0.89293 0.29192 0.29761 0.0
C151 C 0.70287 0.01494 0.3307 0.0
H152 H 0.39891 0.74236 1.09212 0.0
H153 H 0.40892 0.81966 1.15336 0.0
H154 H 0.65821 0.91223 1.15455 0.0
H155 H 0.64754 0.83247 1.0956 0.0
H156 H 0.90172 0.30707 0.44293 0.0
H157 H 0.84508 0.23657 0.37841 0.0
H158 H 0.02807 0.42292 0.30436 0.0
H159 H 0.08403 0.49399 0.36777 0.0
Tb160 Tb 0.63753 0.79789 0.59096 0.0
Tb161 Tb 0.79739 0.81629 0.56238 0.0
C162 C 0.64568 0.66297 0.56001 0.0
C163 C 0.47006 0.7664 0.6548 0.0
C164 C 0.46481 0.84886 0.72234 0.0
C165 C 0.41285 0.83285 0.68866 0.0
C166 C 0.41627 0.79229 0.65449 0.0
C167 C 0.50937 0.76854 0.69215 0.0
C168 C 0.50632 0.80934 0.72605 0.0
C169 C 0.5009 0.75869 0.61467 0.0
O170 O 0.68945 0.77364 0.64913 0.0
O171 O 0.81734 0.84217 0.62924 0.0
O172 O 0.81979 0.93217 0.56953 0.0
O173 O 0.71858 0.91138 0.61373 0.0
O174 O 0.8863 0.79237 0.57754 0.0
O175 O 0.8888 0.85021 0.51866 0.0
O176 O 0.74378 0.82576 0.5021 0.0
O177 O 0.66252 0.86368 0.52973 0.0
O178 O 0.61902 0.70789 0.5485 0.0
O179 O 0.71491 0.69484 0.57624 0.0
C180 C 0.76469 0.80565 0.65908 0.0
O181 O 0.54813 0.82431 0.59541 0.0
O182 O 0.52882 0.71208 0.61512 0.0
C183 C 0.78552 0.95727 0.59472 0.0
C184 C 0.92857 0.75744 0.51824 0.0
C185 C 0.95594 0.65353 0.47463 0.0
C186 C 0.90548 0.67769 0.45798 0.0
C187 C 0.89142 0.72868 0.47974 0.0
C188 C -0.02541 0.72959 0.53641 0.0
C189 C -0.01219 0.67755 0.5149 0.0
C190 C 0.91809 0.81468 0.54029 0.0
C191 C 0.70179 0.86012 0.49702 0.0
H192 H 0.37876 0.86131 0.68588 0.0
H193 H 0.38462 0.78992 0.62602 0.0
H194 H 0.55037 0.74782 0.69322 0.0
H195 H 0.54597 0.81973 0.75203 0.0
H196 H 0.88157 0.66237 0.42661 0.0
H197 H 0.85401 0.74788 0.46551 0.0
H198 H 0.00225 0.74993 0.56664 0.0
H199 H 0.02711 0.66024 0.5285 0.0
Tb200 Tb 0.03353 0.88622 0.8928 0.0
Tb201 Tb 0.88738 0.7294 0.92591 0.0
C202 C 0.04305 0.73755 0.90503 0.0
C203 C 0.22839 0.06177 0.88685 0.0
C204 C 0.3903 0.13327 0.8883 0.0
C205 C 0.34526 0.0676 0.91454 0.0
C206 C 0.26379 0.03005 0.91247 0.0
C207 C 0.27289 0.1371 0.87079 0.0
C208 C 0.35393 0.17407 0.87269 0.0
C209 C 0.1491 0.01411 0.87137 0.0
O210 O -0.02923 0.83164 0.83411 0.0
O211 O 0.84983 0.75359 0.86334 0.0
O212 O 0.85587 0.81535 0.93969 0.0
O213 O 0.93346 0.90119 0.88797 0.0
O214 O 0.81256 0.65307 0.97329 0.0
O215 O 0.80241 0.61752 0.90911 0.0
O216 O -0.03555 0.77656 0.98323 0.0
O217 O 0.03129 0.90233 0.96051 0.0
O218 O 0.07945 0.81112 0.91314 0.0
O219 O -0.03145 0.70149 0.89744 0.0
C220 C 0.89405 0.78965 0.82964 0.0
O221 O 0.13357 0.94886 0.855 0.0
O222 O 0.09363 0.00662 0.89625 0.0
C223 C 0.87569 0.87585 0.91508 0.0
C224 C 0.68735 0.58015 0.94691 0.0
C225 C 0.55702 0.58373 0.97607 0.0
C226 C 0.60078 0.6322 0.94196 0.0
C227 C 0.66622 0.63073 0.92759 0.0
C228 C 0.63526 0.52189 0.9749 0.0
C229 C 0.56893 0.52264 0.98883 0.0
C230 C 0.76946 0.60121 0.94622 0.0
C231 C 0.00991 0.85101 0.99165 0.0
H232 H 0.37181 0.03731 0.92954 0.0
H233 H 0.22934 -0.02703 0.92688 0.0
H234 H 0.24581 0.16387 0.85262 0.0
H235 H 0.386 0.22759 0.85459 0.0
H236 H 0.59283 0.67952 0.93121 0.0
H237 H 0.70556 0.67573 0.90554 0.0
H238 H 0.65041 0.48186 0.98968 0.0
H239 H 0.53479 0.48365 1.0146 0.0
C240 C 0.89082 -0.02099 0.29521 0.0
C241 C 0.85171 -0.02626 0.25712 0.0
C242 C 0.94317 0.95184 0.29846 0.0
C243 C -0.03998 0.92239 0.26303 0.0
H244 H 0.8855 0.00938 0.32156 0.0
H245 H -0.01988 -0.03347 0.32605 0.0
S246 S 0.8554 0.87347 1.1615 0.0
N247 N 0.81792 0.91757 1.18758 0.0
N248 N 0.91948 0.86957 1.19357 0.0
C249 C 0.91074 0.90339 1.22806 0.0
C250 C 0.85666 0.93005 1.22471 0.0
C251 C 0.86218 0.09098 0.57216 0.0
C252 C 0.83418 0.03714 0.60623 0.0
C253 C 0.94157 0.14612 0.56878 0.0
C254 C -0.00629 0.14853 0.59967 0.0
H255 H 0.8255 0.08247 0.54496 0.0
H256 H -0.03689 0.18115 0.53998 0.0
S257 S 0.94264 0.04074 0.70233 0.0
N258 N 0.85909 0.00487 0.67678 0.0
N259 N 0.00902 0.10861 0.67061 0.0
C260 C -0.03623 0.1048 0.63729 0.0
C261 C 0.8829 0.04975 0.64089 0.0
C262 C 0.87959 -0.0269 0.95914 0.0
C263 C 0.8485 0.92914 0.92312 0.0
C264 C 0.90876 0.05247 0.95686 0.0
C265 C 0.90442 0.08853 0.91906 0.0
H266 H 0.89292 0.94885 0.9868 0.0
H267 H 0.93949 0.08633 0.98386 0.0
S268 S 0.80392 -0.00777 0.82112 0.0
N269 N 0.7977 0.92216 0.85253 0.0
N270 N 0.84956 0.07161 0.84851 0.0
C271 C 0.86062 0.04264 0.88556 0.0
C272 C 0.83204 -0.03792 0.88781 0.0
C273 C 0.41042 0.53576 1.18873 0.0
C274 C 0.35181 0.54334 1.20923 0.0
C275 C 0.41057 0.53345 1.14461 0.0
C276 C 0.35948 0.54905 1.12055 0.0
H277 H 0.4423 0.51287 1.20569 0.0
H278 H 0.44382 0.51028 1.13082 0.0
S279 S 0.2567 0.64566 1.16289 0.0
N280 N 0.28632 0.61784 1.2052 0.0
N281 N 0.288 0.6193 1.1219 0.0
C282 C 0.32603 0.58694 1.14165 0.0
C283 C 0.32584 0.58723 1.18669 0.0
C284 C 0.13776 0.54928 0.48752 0.0
C285 C 0.09044 0.54674 0.5215 0.0
C286 C 0.10609 0.50373 0.45262 0.0
C287 C 0.02522 0.45612 0.44843 0.0
H288 H 0.20078 0.582 0.48867 0.0
H289 H 0.14628 0.50436 0.4294 0.0
S290 S 0.87401 0.44083 0.52333 0.0
N291 N -0.04228 0.49934 0.54613 0.0
N292 N 0.89708 0.41755 0.47826 0.0
C293 C -0.02371 0.45757 0.48015 0.0
C294 C 0.00904 0.50265 0.51674 0.0
C295 C 0.56263 -0.00434 0.80605 0.0
C296 C 0.59904 0.06508 0.78186 0.0
C297 C 0.51234 0.92553 0.78737 0.0
C298 C 0.49698 0.92261 0.74393 0.0
H299 H 0.57542 -0.00495 0.83931 0.0
H300 H 0.48871 0.8728 0.80648 0.0
S301 S 0.57584 0.08866 0.66714 0.0
N302 N 0.61306 0.12725 0.7129 0.0
N303 N 0.52092 -0.0047 0.67736 0.0
C304 C 0.53061 -0.00791 0.71977 0.0
C305 C 0.58154 0.06332 0.73879 0.0
C306 C 0.55381 0.67788 1.07537 0.0
C307 C 0.51482 0.71745 1.06333 0.0
C308 C 0.56122 0.6294 1.04782 0.0
C309 C 0.52784 0.61644 1.00741 0.0
H310 H 0.58229 0.68737 1.10573 0.0
H311 H 0.59739 0.60548 1.05756 0.0
S312 S 0.40676 0.69452 0.96387 0.0
N313 N 0.43384 0.73351 1.01067 0.0
N314 N 0.44547 0.63892 0.95878 0.0
C315 C 0.48246 0.65001 0.99636 0.0
C316 C 0.47586 0.70082 1.0245 0.0
C317 C 0.07178 0.65826 0.4429 0.0
C318 C -0.00999 0.62163 0.44568 0.0
C319 C 0.10825 0.65613 0.40601 0.0
C320 C 0.0641 0.61878 0.37033 0.0
H321 H 0.10838 0.69657 0.46713 0.0
H322 H 0.17104 0.69323 0.40387 0.0
S323 S 0.84981 0.4887 0.36801 0.0
N324 N 0.86676 0.52696 0.41512 0.0
N325 N 0.93594 0.52554 0.34448 0.0
C326 C -0.01692 0.57056 0.37549 0.0
C327 C 0.94581 0.57167 0.41349 0.0
C328 C 0.43358 0.06295 0.84402 0.0
C329 C 0.45193 0.13447 0.86085 0.0
C330 C 0.43598 0.05581 0.80047 0.0
C331 C 0.4595 0.12009 0.77298 0.0
H332 H 0.40389 0.01 0.86287 0.0
H333 H 0.40973 -0.00167 0.78816 0.0
S334 S 0.56465 0.32408 0.80554 0.0
N335 N 0.53323 0.27302 0.85024 0.0
N336 N 0.53578 0.2608 0.76768 0.0
C337 C 0.50012 0.19361 0.79075 0.0
C338 C 0.49863 0.20042 0.83539 0.0
C339 C 0.45438 0.15418 0.27943 0.0
C340 C 0.43062 0.16242 0.23864 0.0
C341 C 0.52453 0.15381 0.28573 0.0
C342 C 0.57417 0.16356 0.25163 0.0
H343 H 0.41519 0.14075 0.30611 0.0
H344 H 0.53778 0.14126 0.3172 0.0
S345 S 0.54119 0.19312 1.13913 0.0
N346 N 0.46377 0.18404 1.16399 0.0
N347 N 0.5972 0.18688 1.17607 0.0
C348 C 0.554 0.17783 1.21117 0.0
C349 C 0.48168 0.17628 1.20463 0.0
C350 C 0.48142 0.46557 0.53448 0.0
C351 C 0.46078 0.42621 0.57417 0.0
C352 C 0.54421 0.5409 0.5298 0.0
C353 C 0.59073 0.57931 0.56426 0.0
H354 H 0.44627 0.43961 0.50689 0.0
H355 H 0.55479 0.57032 0.49924 0.0
S356 S 0.56767 0.50107 0.67407 0.0
N357 N 0.49581 0.43046 0.64815 0.0
N358 N 0.6161 0.5719 0.63892 0.0
C359 C 0.57475 0.53941 0.60355 0.0
C360 C 0.50935 0.46274 0.60859 0.0
C361 C 0.08167 0.57764 0.88071 0.0
C362 C 0.09731 0.55714 0.92085 0.0
C363 C 0.07293 0.64252 0.87468 0.0
C364 C 0.08073 0.68994 0.90842 0.0
H365 H 0.06887 0.53933 0.85465 0.0
H366 H 0.0538 0.65212 0.84415 0.0
S367 S 0.12913 0.66522 1.01879 0.0
N368 N 0.12575 0.59212 0.99416 0.0
N369 N 0.11142 0.71536 0.9826 0.0
C370 C 0.10302 0.67381 0.94787 0.0
C371 C 0.11063 0.60689 0.95417 0.0
C372 C 0.22774 0.09644 0.40691 0.0
C373 C 0.20769 0.12487 0.37026 0.0
C374 C 0.22962 0.12495 0.44832 0.0
C375 C 0.21214 0.18432 0.45623 0.0
H376 H 0.24173 0.0512 0.40377 0.0
H377 H 0.24555 0.1 0.47458 0.0
S378 S 0.15739 0.28127 0.37202 0.0
N379 N 0.1707 0.21854 0.34617 0.0
N380 N 0.17459 0.2703 0.42202 0.0
C381 C 0.19249 0.21341 0.41985 0.0
C382 C 0.19021 0.18442 0.37788 0.0
C383 C 0.18358 0.27226 0.75094 0.0
C384 C 0.16432 0.29641 0.71242 0.0
C385 C 0.155 0.27866 0.79118 0.0
C386 C 0.10399 0.3086 0.79608 0.0
H387 H 0.22191 0.24852 0.75018 0.0
H388 H 0.1733 0.25928 0.81897 0.0
S389 S 0.02992 0.3757 0.7057 0.0
N390 N 0.08695 0.34909 0.68282 0.0
N391 N 0.03377 0.36015 0.75692 0.0
C392 C 0.08309 0.33165 0.75775 0.0
C393 C 0.11285 0.32585 0.71678 0.0
C394 C 0.94692 0.2686 1.08024 0.0
C395 C 0.90617 0.24417 1.0417 0.0
C396 C 0.91072 0.23671 1.12036 0.0
C397 C 0.83129 0.17748 1.12506 0.0
H398 H 0.00772 0.31331 1.07959 0.0
H399 H 0.94629 0.2592 1.14825 0.0
S400 S 0.69757 0.08894 1.03462 0.0
N401 N 0.78038 0.15399 1.01172 0.0
N402 N 0.71404 0.09489 1.08593 0.0
C403 C 0.79002 0.15177 1.08675 0.0
C404 C 0.82674 0.18463 1.0458 0.0
C405 C 0.69461 0.00233 0.41239 0.0
C406 C 0.70046 -0.02603 0.37297 0.0
C407 C 0.6931 -0.03542 0.45166 0.0
C408 C 0.70037 0.89771 0.45418 0.0
H409 H 0.69021 0.05394 0.41298 0.0
H410 H 0.68789 -0.01068 0.48053 0.0
S411 S 0.72205 0.80169 0.36077 0.0
N412 N 0.71464 0.87405 0.33983 0.0
N413 N 0.71632 0.80695 0.41246 0.0
C414 C 0.7081 0.86993 0.41502 0.0
C415 C 0.70694 0.90676 0.37505 0.0
C416 C 0.87478 0.83237 0.7109 0.0
C417 C 0.79362 0.79987 0.70357 0.0
C418 C 0.90555 0.82793 0.75086 0.0
C419 C 0.85754 0.7903 0.78664 0.0
H420 H 0.91607 0.86213 0.68528 0.0
H421 H -0.03169 0.85477 0.75356 0.0
S422 S 0.6405 0.69639 0.78633 0.0
N423 N 0.66573 0.72901 0.73712 0.0
N424 N 0.72267 0.72075 0.81151 0.0
C425 C 0.77605 0.75764 0.78004 0.0
C426 C 0.74457 0.76231 0.73907 0.0
C427 C 0.04467 0.83699 1.0702 0.0
C428 C 0.03986 0.882 1.03621 0.0
C429 C 0.07759 0.86918 1.11024 0.0
C430 C 0.10792 0.94841 1.11894 0.0
H431 H 0.02408 0.77653 1.0657 0.0
H432 H 0.07973 0.8313 1.1346 0.0
S433 S 0.10419 0.09113 1.04253 0.0
N434 N 0.06526 0.01066 1.01616 0.0
N435 N 0.12592 0.06927 1.08933 0.0
C436 C 0.10173 -0.00674 1.08546 0.0
C437 C 0.06835 -0.0392 1.04503 0.0
loop_
_geom_bond_atom_site_label_1
_geom_bond_atom_site_label_2
_geom_bond_distance
_geom_bond_site_symmetry_2
_ccdc_geom_bond_type
Tb0 C9 2.764 . S
Tb0 O10 2.325 1_565 S
Tb0 O13 2.303 . S
Tb0 O17 2.322 1_554 S
Tb0 O18 2.349 . S
Tb0 O21 2.415 . S
Tb0 O22 2.399 . S
Tb1 O11 2.335 . S
Tb1 O12 2.351 . S
Tb1 O14 2.405 1_554 S
Tb1 O15 2.388 1_554 S
Tb1 O16 2.318 1_544 S
Tb1 O19 2.307 . S
Tb1 C30 2.752 1_554 S
C2 O18 1.261 . S
C2 O19 1.257 1_565 S
C3 C6 1.358 . S
C3 C7 1.332 . S
C3 C9 1.504 . S
C4 C5 1.373 . S
C4 C8 1.308 . S
C5 C4 1.373 . S
C5 C6 1.429 . S
C5 H32 0.932 . S
C6 C3 1.358 . S
C6 C5 1.429 . S
C6 H33 0.930 . S
C7 C3 1.332 . S
C7 C8 1.394 . S
C7 H34 0.932 . S
C8 C4 1.308 . S
C8 C7 1.394 . S
C8 H35 0.929 . S
C9 Tb0 2.764 . S
C9 C3 1.504 . S
C9 O21 1.239 . S
C9 O22 1.263 . S
O10 Tb0 2.325 1_545 S
O10 C20 1.236 . S
O11 Tb1 2.335 . S
O11 C20 1.257 . S
O12 Tb1 2.351 . S
O12 C23 1.261 . S
O13 Tb0 2.303 . S
O13 C23 1.257 1_565 S
O14 Tb1 2.405 1_556 S
O14 C30 1.239 . S
O15 Tb1 2.388 1_556 S
O15 C30 1.263 . S
O16 Tb1 2.318 1_566 S
O16 C31 1.236 . S
O17 Tb0 2.322 1_556 S
O17 C31 1.257 . S
O18 Tb0 2.349 . S
O18 C2 1.261 . S
O19 Tb1 2.307 . S
O19 C2 1.257 1_545 S
C20 O10 1.236 . S
C20 O11 1.257 . S
O21 Tb0 2.415 . S
O21 C9 1.239 . S
O22 Tb0 2.399 . S
O22 C9 1.263 . S
C23 O12 1.261 . S
C23 O13 1.257 1_545 S
C24 C27 1.358 . S
C24 C28 1.332 . S
C24 C30 1.504 . S
C25 C26 1.373 . S
C25 C29 1.308 . S
C26 C25 1.373 . S
C26 C27 1.429 . S
C26 H36 0.932 . S
C27 C24 1.358 . S
C27 C26 1.429 . S
C27 H37 0.930 . S
C28 C24 1.332 . S
C28 C29 1.394 . S
C28 H38 0.932 . S
C29 C25 1.308 . S
C29 C28 1.394 . S
C29 H39 0.929 . S
C30 Tb1 2.752 1_556 S
C30 O14 1.239 . S
C30 O15 1.263 . S
C30 C24 1.504 . S
C31 O16 1.236 . S
C31 O17 1.257 . S
H32 C5 0.932 . S
H33 C6 0.930 . S
H34 C7 0.932 . S
H35 C8 0.929 . S
H36 C26 0.932 . S
H37 C27 0.930 . S
H38 C28 0.932 . S
H39 C29 0.929 . S
Tb40 C49 2.764 . S
Tb40 O50 2.325 . S
Tb40 O53 2.303 . S
Tb40 O57 2.322 . S
Tb40 O58 2.349 . S
Tb40 O61 2.415 . S
Tb40 O62 2.399 . S
Tb41 O51 2.322 . S
Tb41 O52 2.349 . S
Tb41 O54 2.415 . S
Tb41 O55 2.399 . S
Tb41 O56 2.325 . S
Tb41 O59 2.303 . S
Tb41 C70 2.764 . S
C42 O58 1.261 . S
C42 O59 1.257 . S
C43 C46 1.358 . S
C43 C47 1.332 . S
C43 C49 1.504 . S
C44 C45 1.373 . S
C44 C48 1.308 . S
C45 C44 1.373 . S
C45 C46 1.429 . S
C45 H72 0.932 . S
C46 C43 1.358 . S
C46 C45 1.429 . S
C46 H73 0.930 . S
C47 C43 1.332 . S
C47 C48 1.394 . S
C47 H74 0.932 . S
C48 C44 1.308 . S
C48 C47 1.394 . S
C48 H75 0.929 . S
C49 Tb40 2.764 . S
C49 C43 1.504 . S
C49 O61 1.239 . S
C49 O62 1.263 . S
O50 Tb40 2.325 . S
O50 C60 1.236 . S
O51 Tb41 2.322 . S
O51 C60 1.257 . S
O52 Tb41 2.349 . S
O52 C63 1.261 . S
O53 Tb40 2.303 . S
O53 C63 1.257 . S
O54 Tb41 2.415 . S
O54 C70 1.239 . S
O55 Tb41 2.399 . S
O55 C70 1.263 . S
O56 Tb41 2.325 . S
O56 C71 1.236 . S
O57 Tb40 2.322 . S
O57 C71 1.257 . S
O58 Tb40 2.349 . S
O58 C42 1.261 . S
O59 Tb41 2.303 . S
O59 C42 1.257 . S
C60 O50 1.236 . S
C60 O51 1.257 . S
O61 Tb40 2.415 . S
O61 C49 1.239 . S
O62 Tb40 2.399 . S
O62 C49 1.263 . S
C63 O52 1.261 . S
C63 O53 1.257 . S
C64 C67 1.358 . S
C64 C68 1.332 . S
C64 C70 1.504 . S
C65 C66 1.373 . S
C65 C69 1.308 . S
C66 C65 1.373 . S
C66 C67 1.429 . S
C66 H76 0.932 . S
C67 C64 1.358 . S
C67 C66 1.429 . S
C67 H77 0.930 . S
C68 C64 1.332 . S
C68 C69 1.394 . S
C68 H78 0.932 . S
C69 C65 1.308 . S
C69 C68 1.394 . S
C69 H79 0.929 . S
C70 Tb41 2.764 . S
C70 O54 1.239 . S
C70 O55 1.263 . S
C70 C64 1.504 . S
C71 O56 1.236 . S
C71 O57 1.257 . S
H72 C45 0.932 . S
H73 C46 0.930 . S
H74 C47 0.932 . S
H75 C48 0.929 . S
H76 C66 0.932 . S
H77 C67 0.930 . S
H78 C68 0.932 . S
H79 C69 0.929 . S
Tb80 C89 2.764 . S
Tb80 O90 2.325 . S
Tb80 O93 2.303 . S
Tb80 O97 2.322 . S
Tb80 O98 2.349 . S
Tb80 O101 2.415 . S
Tb80 O102 2.399 . S
Tb81 O91 2.322 . S
Tb81 O92 2.349 . S
Tb81 O94 2.415 1_455 S
Tb81 O95 2.399 1_455 S
Tb81 O96 2.325 . S
Tb81 O99 2.303 . S
Tb81 C110 2.764 1_455 S
C82 O98 1.261 . S
C82 O99 1.257 . S
C83 C86 1.358 . S
C83 C87 1.332 . S
C83 C89 1.504 . S
C84 C85 1.373 . S
C84 C88 1.308 . S
C85 C84 1.373 . S
C85 C86 1.429 . S
C85 H112 0.932 . S
C86 C83 1.358 . S
C86 C85 1.429 . S
C86 H113 0.930 . S
C87 C83 1.332 . S
C87 C88 1.394 . S
C87 H114 0.932 . S
C88 C84 1.308 . S
C88 C87 1.394 . S
C88 H115 0.929 . S
C89 Tb80 2.764 . S
C89 C83 1.504 . S
C89 O101 1.239 . S
C89 O102 1.263 . S
O90 Tb80 2.325 . S
O90 C100 1.236 . S
O91 Tb81 2.322 . S
O91 C100 1.257 . S
O92 Tb81 2.349 . S
O92 C103 1.261 . S
O93 Tb80 2.303 . S
O93 C103 1.257 . S
O94 Tb81 2.415 1_655 S
O94 C110 1.239 . S
O95 Tb81 2.399 1_655 S
O95 C110 1.263 . S
O96 Tb81 2.325 . S
O96 C111 1.236 . S
O97 Tb80 2.322 . S
O97 C111 1.257 . S
O98 Tb80 2.349 . S
O98 C82 1.261 . S
O99 Tb81 2.303 . S
O99 C82 1.257 . S
C100 O90 1.236 . S
C100 O91 1.257 . S
O101 Tb80 2.415 . S
O101 C89 1.239 . S
O102 Tb80 2.399 . S
O102 C89 1.263 . S
C103 O92 1.261 . S
C103 O93 1.257 . S
C104 C107 1.358 . S
C104 C108 1.332 . S
C104 C110 1.504 . S
C105 C106 1.373 . S
C105 C109 1.308 . S
C106 C105 1.373 . S
C106 C107 1.429 . S
C106 H116 0.932 . S
C107 C104 1.358 . S
C107 C106 1.429 . S
C107 H117 0.930 . S
C108 C104 1.332 . S
C108 C109 1.394 . S
C108 H118 0.932 . S
C109 C105 1.308 . S
C109 C108 1.394 . S
C109 H119 0.929 . S
C110 Tb81 2.764 1_655 S
C110 O94 1.239 . S
C110 O95 1.263 . S
C110 C104 1.504 . S
C111 O96 1.236 . S
C111 O97 1.257 . S
H112 C85 0.932 . S
H113 C86 0.930 . S
H114 C87 0.932 . S
H115 C88 0.929 . S
H116 C106 0.932 . S
H117 C107 0.930 . S
H118 C108 0.932 . S
H119 C109 0.929 . S
Tb120 C129 2.764 1_545 S
Tb120 O130 2.325 . S
Tb120 O133 2.303 1_556 S
Tb120 O137 2.322 1_556 S
Tb120 O138 2.349 1_556 S
Tb120 O141 2.415 1_545 S
Tb120 O142 2.399 1_545 S
Tb121 O131 2.322 1_554 S
Tb121 O132 2.349 . S
Tb121 O134 2.415 . S
Tb121 O135 2.399 . S
Tb121 O136 2.325 . S
Tb121 O139 2.303 . S
Tb121 C150 2.764 . S
C122 O138 1.261 . S
C122 O139 1.257 . S
C123 C126 1.358 . S
C123 C127 1.332 . S
C123 C129 1.504 . S
C124 C125 1.373 . S
C124 C128 1.308 . S
C125 C124 1.373 . S
C125 C126 1.429 . S
C125 H152 0.932 . S
C126 C123 1.358 . S
C126 C125 1.429 . S
C126 H153 0.930 . S
C127 C123 1.332 . S
C127 C128 1.394 . S
C127 H154 0.932 . S
C128 C124 1.308 . S
C128 C127 1.394 . S
C128 H155 0.929 . S
C129 Tb120 2.764 1_565 S
C129 C123 1.504 . S
C129 O141 1.239 . S
C129 O142 1.263 . S
O130 Tb120 2.325 . S
O130 C140 1.236 . S
O131 Tb121 2.322 1_556 S
O131 C140 1.257 . S
O132 Tb121 2.349 . S
O132 C143 1.261 . S
O133 Tb120 2.303 1_554 S
O133 C143 1.257 . S
O134 Tb121 2.415 . S
O134 C150 1.239 . S
O135 Tb121 2.399 . S
O135 C150 1.263 . S
O136 Tb121 2.325 . S
O136 C151 1.236 . S
O137 Tb120 2.322 1_554 S
O137 C151 1.257 . S
O138 Tb120 2.349 1_554 S
O138 C122 1.261 . S
O139 Tb121 2.303 . S
O139 C122 1.257 . S
C140 O130 1.236 . S
C140 O131 1.257 . S
O141 Tb120 2.415 1_565 S
O141 C129 1.239 . S
O142 Tb120 2.399 1_565 S
O142 C129 1.263 . S
C143 O132 1.261 . S
C143 O133 1.257 . S
C144 C147 1.358 . S
C144 C148 1.332 . S
C144 C150 1.504 . S
C145 C146 1.373 . S
C145 C149 1.308 . S
C146 C145 1.373 . S
C146 C147 1.429 . S
C146 H156 0.932 . S
C147 C144 1.358 . S
C147 C146 1.429 . S
C147 H157 0.930 . S
C148 C144 1.332 . S
C148 C149 1.394 . S
C148 H158 0.932 . S
C149 C145 1.308 . S
C149 C148 1.394 . S
C149 H159 0.929 . S
C150 Tb121 2.764 . S
C150 O134 1.239 . S
C150 O135 1.263 . S
C150 C144 1.504 . S
C151 O136 1.236 . S
C151 O137 1.257 . S
H152 C125 0.932 . S
H153 C126 0.930 . S
H154 C127 0.932 . S
H155 C128 0.929 . S
H156 C146 0.932 . S
H157 C147 0.930 . S
H158 C148 0.932 . S
H159 C149 0.929 . S
Tb160 C169 2.764 . S
Tb160 O170 2.325 . S
Tb160 O173 2.303 . S
Tb160 O177 2.322 . S
Tb160 O178 2.349 . S
Tb160 O181 2.415 1_565 S
Tb160 O182 2.399 . S
Tb161 O171 2.322 . S
Tb161 O172 2.349 . S
Tb161 O174 2.415 . S
Tb161 O175 2.399 . S
Tb161 O176 2.325 . S
Tb161 O179 2.303 . S
Tb161 C190 2.764 . S
C162 O178 1.261 . S
C162 O179 1.257 . S
C163 C166 1.358 1_545 S
C163 C167 1.332 . S
C163 C169 1.504 1_545 S
C164 C165 1.373 . S
C164 C168 1.308 . S
C165 C164 1.373 . S
C165 C166 1.429 1_545 S
C165 H192 0.932 . S
C166 C163 1.358 1_565 S
C166 C165 1.429 1_565 S
C166 H193 0.930 . S
C167 C163 1.332 . S
C167 C168 1.394 . S
C167 H194 0.932 . S
C168 C164 1.308 . S
C168 C167 1.394 . S
C168 H195 0.929 . S
C169 Tb160 2.764 . S
C169 C163 1.504 1_565 S
C169 O181 1.239 1_565 S
C169 O182 1.263 . S
O170 Tb160 2.325 . S
O170 C180 1.236 . S
O171 Tb161 2.322 . S
O171 C180 1.257 . S
O172 Tb161 2.349 . S
O172 C183 1.261 1_565 S
O173 Tb160 2.303 . S
O173 C183 1.257 1_565 S
O174 Tb161 2.415 . S
O174 C190 1.239 . S
O175 Tb161 2.399 . S
O175 C190 1.263 . S
O176 Tb161 2.325 . S
O176 C191 1.236 . S
O177 Tb160 2.322 . S
O177 C191 1.257 . S
O178 Tb160 2.349 . S
O178 C162 1.261 . S
O179 Tb161 2.303 . S
O179 C162 1.257 . S
C180 O170 1.236 . S
C180 O171 1.257 . S
O181 Tb160 2.415 1_545 S
O181 C169 1.239 1_545 S
O182 Tb160 2.399 . S
O182 C169 1.263 . S
C183 O172 1.261 1_545 S
C183 O173 1.257 1_545 S
C184 C187 1.358 . S
C184 C188 1.332 . S
C184 C190 1.504 . S
C185 C186 1.373 . S
C185 C189 1.308 . S
C186 C185 1.373 . S
C186 C187 1.429 . S
C186 H196 0.932 . S
C187 C184 1.358 . S
C187 C186 1.429 . S
C187 H197 0.930 . S
C188 C184 1.332 . S
C188 C189 1.394 . S
C188 H198 0.932 . S
C189 C185 1.308 . S
C189 C188 1.394 . S
C189 H199 0.929 . S
C190 Tb161 2.764 . S
C190 O174 1.239 . S
C190 O175 1.263 . S
C190 C184 1.504 . S
C191 O176 1.236 . S
C191 O177 1.257 . S
H192 C165 0.932 . S
H193 C166 0.930 . S
H194 C167 0.932 . S
H195 C168 0.929 . S
H196 C186 0.932 . S
H197 C187 0.930 . S
H198 C188 0.932 . S
H199 C189 0.929 . S
Tb200 C209 2.764 . S
Tb200 O210 2.325 1_455 S
Tb200 O213 2.303 . S
Tb200 O217 2.322 . S
Tb200 O218 2.349 . S
Tb200 O221 2.415 . S
Tb200 O222 2.399 . S
Tb201 O211 2.322 . S
Tb201 O212 2.349 . S
Tb201 O214 2.415 . S
Tb201 O215 2.399 . S
Tb201 O216 2.325 1_655 S
Tb201 O219 2.303 . S
Tb201 C230 2.764 . S
C202 O218 1.258 1_655 S
C202 O219 1.261 . S
C203 C206 1.358 . S
C203 C207 1.332 . S
C203 C209 1.504 . S
C204 C205 1.373 . S
C204 C208 1.308 1_565 S
C205 C204 1.373 . S
C205 C206 1.429 . S
C205 H232 0.932 . S
C206 C203 1.358 . S
C206 C205 1.429 . S
C206 H233 0.930 . S
C207 C203 1.332 . S
C207 C208 1.394 1_565 S
C207 H234 0.932 1_565 S
C208 C204 1.308 1_545 S
C208 C207 1.394 1_545 S
C208 H235 0.929 . S
C209 Tb200 2.764 . S
C209 C203 1.504 . S
C209 O221 1.239 . S
C209 O222 1.263 . S
O210 Tb200 2.325 1_655 S
O210 C220 1.236 . S
O211 Tb201 2.322 . S
O211 C220 1.257 . S
O212 Tb201 2.349 . S
O212 C223 1.255 1_655 S
O213 Tb200 2.303 . S
O213 C223 1.264 . S
O214 Tb201 2.415 . S
O214 C230 1.239 . S
O215 Tb201 2.399 . S
O215 C230 1.263 . S
O216 Tb201 2.325 1_455 S
O216 C231 1.236 . S
O217 Tb200 2.322 . S
O217 C231 1.257 . S
O218 Tb200 2.349 . S
O218 C202 1.258 1_455 S
O219 Tb201 2.303 . S
O219 C202 1.261 . S
C220 O210 1.236 . S
C220 O211 1.257 . S
O221 Tb200 2.415 . S
O221 C209 1.239 . S
O222 Tb200 2.399 . S
O222 C209 1.263 . S
C223 O212 1.255 1_455 S
C223 O213 1.264 . S
C224 C227 1.358 . S
C224 C228 1.332 . S
C224 C230 1.504 . S
C225 C226 1.373 . S
C225 C229 1.308 . S
C226 C225 1.373 . S
C226 C227 1.429 . S
C226 H236 0.932 . S
C227 C224 1.358 . S
C227 C226 1.429 . S
C227 H237 0.930 . S
C228 C224 1.332 . S
C228 C229 1.394 . S
C228 H238 0.932 . S
C229 C225 1.308 . S
C229 C228 1.394 . S
C229 H239 0.929 . S
C230 Tb201 2.764 . S
C230 O214 1.239 . S
C230 O215 1.263 . S
C230 C224 1.504 . S
C231 O216 1.236 . S
C231 O217 1.257 . S
H232 C205 0.932 . S
H233 C206 0.930 . S
H234 C207 0.932 1_545 S
H235 C208 0.929 . S
H236 C226 0.932 . S
H237 C227 0.930 . S
H238 C228 0.932 . S
H239 C229 0.929 . S
C240 C241 1.369 . S
C240 C242 1.419 1_655 S
C240 H244 0.930 . S
C241 C240 1.369 . S
C241 C250 1.429 1_554 S
C242 C240 1.419 1_455 S
C242 C243 1.363 . S
C242 H245 0.929 . S
C243 C242 1.363 . S
C243 C249 1.428 1_554 S
H244 C240 0.930 . S
H245 C242 0.929 . S
S246 N247 1.613 1_455 S
S246 N248 1.610 . S
N247 S246 1.613 1_655 S
N247 C250 1.350 . S
N248 S246 1.610 . S
N248 C249 1.351 . S
C249 C243 1.428 1_556 S
C249 N248 1.351 . S
C249 C250 1.434 1_455 S
C250 C241 1.429 1_556 S
C250 N247 1.350 . S
C250 C249 1.434 1_655 S
C251 C252 1.369 . S
C251 C253 1.419 1_655 S
C251 H255 0.930 . S
C252 C251 1.369 . S
C252 C261 1.429 . S
C253 C251 1.419 1_455 S
C253 C254 1.363 . S
C253 H256 0.929 . S
C254 C253 1.363 . S
C254 C260 1.428 . S
H255 C251 0.930 . S
H256 C253 0.929 . S
S257 N258 1.613 1_455 S
S257 N259 1.610 . S
N258 S257 1.613 1_655 S
N258 C261 1.350 . S
N259 S257 1.610 . S
N259 C260 1.351 . S
C260 C254 1.428 . S
C260 N259 1.351 . S
C260 C261 1.434 1_455 S
C261 C252 1.429 . S
C261 N258 1.350 . S
C261 C260 1.434 1_655 S
C262 C263 1.369 . S
C262 C264 1.419 . S
C262 H266 0.930 . S
C263 C262 1.369 . S
C263 C272 1.429 1_455 S
C264 C262 1.419 . S
C264 C265 1.363 . S
C264 H267 0.929 . S
C265 C264 1.363 . S
C265 C271 1.428 . S
H266 C262 0.930 . S
H267 C264 0.929 . S
S268 N269 1.613 . S
S268 N270 1.610 . S
N269 S268 1.613 . S
N269 C272 1.350 . S
N270 S268 1.610 . S
N270 C271 1.351 1_655 S
C271 C265 1.428 . S
C271 N270 1.351 1_455 S
C271 C272 1.434 1_455 S
C272 C263 1.429 1_655 S
C272 N269 1.350 . S
C272 C271 1.434 1_655 S
C273 C274 1.369 . S
C273 C275 1.419 . S
C273 H277 0.930 . S
C274 C273 1.369 . S
C274 C283 1.429 . S
C275 C273 1.419 . S
C275 C276 1.363 . S
C275 H278 0.929 . S
C276 C275 1.363 . S
C276 C282 1.428 . S
H277 C273 0.930 . S
H278 C275 0.929 . S
S279 N280 1.613 . S
S279 N281 1.610 . S
N280 S279 1.613 . S
N280 C283 1.350 . S
N281 S279 1.610 . S
N281 C282 1.351 . S
C282 C276 1.428 . S
C282 N281 1.351 . S
C282 C283 1.434 . S
C283 C274 1.429 . S
C283 N280 1.350 . S
C283 C282 1.434 . S
C284 C285 1.369 . S
C284 C286 1.419 1_455 S
C284 H288 0.930 . S
C285 C284 1.369 . S
C285 C294 1.429 . S
C286 C284 1.419 1_655 S
C286 C287 1.363 . S
C286 H289 0.929 . S
C287 C286 1.363 . S
C287 C293 1.428 . S
H288 C284 0.930 . S
H289 C286 0.929 . S
S290 N291 1.613 1_655 S
S290 N292 1.610 . S
N291 S290 1.613 1_455 S
N291 C294 1.350 . S
N292 S290 1.610 . S
N292 C293 1.351 . S
C293 C287 1.428 . S
C293 N292 1.351 . S
C293 C294 1.434 1_655 S
C294 C285 1.429 . S
C294 N291 1.350 . S
C294 C293 1.434 1_455 S
C295 C296 1.369 . S
C295 C297 1.419 . S
C295 H299 0.930 . S
C296 C295 1.369 . S
C296 C305 1.429 . S
C297 C295 1.419 . S
C297 C298 1.363 . S
C297 H300 0.929 . S
C298 C297 1.363 . S
C298 C304 1.428 . S
H299 C295 0.930 . S
H300 C297 0.929 . S
S301 N302 1.613 . S
S301 N303 1.610 . S
N302 S301 1.613 . S
N302 C305 1.350 . S
N303 S301 1.610 . S
N303 C304 1.351 . S
C304 C298 1.428 . S
C304 N303 1.351 . S
C304 C305 1.434 . S
C305 C296 1.429 . S
C305 N302 1.350 . S
C305 C304 1.434 . S
C306 C307 1.369 . S
C306 C308 1.419 . S
C306 H310 0.930 . S
C307 C306 1.369 . S
C307 C316 1.429 . S
C308 C306 1.419 . S
C308 C309 1.363 . S
C308 H311 0.929 . S
C309 C308 1.363 . S
C309 C315 1.428 . S
H310 C306 0.930 . S
H311 C308 0.929 . S
S312 N313 1.613 . S
S312 N314 1.610 . S
N313 S312 1.613 . S
N313 C316 1.350 . S
N314 S312 1.610 . S
N314 C315 1.351 . S
C315 C309 1.428 . S
C315 N314 1.351 . S
C315 C316 1.434 . S
C316 C307 1.429 . S
C316 N313 1.350 . S
C316 C315 1.434 . S
C317 C318 1.369 . S
C317 C319 1.419 . S
C317 H321 0.930 . S
C318 C317 1.369 . S
C318 C327 1.429 . S
C319 C317 1.419 . S
C319 C320 1.363 . S
C319 H322 0.929 . S
C320 C319 1.363 . S
C320 C326 1.428 . S
H321 C317 0.930 . S
H322 C319 0.929 . S
S323 N324 1.613 1_455 S
S323 N325 1.610 . S
N324 S323 1.613 1_655 S
N324 C327 1.350 . S
N325 S323 1.610 . S
N325 C326 1.351 1_455 S
C326 C320 1.428 . S
C326 N325 1.351 1_655 S
C326 C327 1.434 . S
C327 C318 1.429 . S
C327 N324 1.350 . S
C327 C326 1.434 . S
C328 C329 1.369 . S
C328 C330 1.419 . S
C328 H332 0.930 . S
C329 C328 1.369 . S
C329 C338 1.429 . S
C330 C328 1.419 . S
C330 C331 1.363 . S
C330 H333 0.929 . S
C331 C330 1.363 . S
C331 C337 1.428 . S
H332 C328 0.930 . S
H333 C330 0.929 . S
S334 N335 1.613 . S
S334 N336 1.610 . S
N335 S334 1.613 . S
N335 C338 1.350 . S
N336 S334 1.610 . S
N336 C337 1.351 . S
C337 C331 1.428 . S
C337 N336 1.351 . S
C337 C338 1.434 . S
C338 C329 1.429 . S
C338 N335 1.350 . S
C338 C337 1.434 . S
C339 C340 1.369 1_565 S
C339 C341 1.419 1_565 S
C339 H343 0.930 . S
C340 C339 1.369 1_545 S
C340 C349 1.429 . S
C341 C339 1.419 1_545 S
C341 C342 1.363 . S
C341 H344 0.929 . S
C342 C341 1.363 . S
C342 C348 1.428 . S
H343 C339 0.930 . S
H344 C341 0.929 . S
S345 N346 1.613 . S
S345 N347 1.610 . S
N346 S345 1.613 . S
N346 C349 1.350 1_556 S
N347 S345 1.610 . S
N347 C348 1.351 1_556 S
C348 C342 1.428 . S
C348 N347 1.351 1_554 S
C348 C349 1.434 . S
C349 C340 1.429 . S
C349 N346 1.350 1_554 S
C349 C348 1.434 . S
C350 C351 1.369 . S
C350 C352 1.419 . S
C350 H354 0.930 . S
C351 C350 1.369 . S
C351 C360 1.429 . S
C352 C350 1.419 . S
C352 C353 1.363 . S
C352 H355 0.929 . S
C353 C352 1.363 . S
C353 C359 1.428 . S
H354 C350 0.930 . S
H355 C352 0.929 . S
S356 N357 1.613 . S
S356 N358 1.610 . S
N357 S356 1.613 . S
N357 C360 1.350 . S
N358 S356 1.610 . S
N358 C359 1.351 . S
C359 C353 1.428 . S
C359 N358 1.351 . S
C359 C360 1.434 . S
C360 C351 1.429 . S
C360 N357 1.350 . S
C360 C359 1.434 . S
C361 C362 1.369 . S
C361 C363 1.419 . S
C361 H365 0.930 . S
C362 C361 1.369 . S
C362 C371 1.429 . S
C363 C361 1.419 . S
C363 C364 1.363 1_455 S
C363 H366 0.929 1_455 S
C364 C363 1.363 1_655 S
C364 C370 1.428 1_655 S
H365 C361 0.930 . S
H366 C363 0.929 1_655 S
S367 N368 1.613 . S
S367 N369 1.610 . S
N368 S367 1.613 . S
N368 C371 1.350 . S
N369 S367 1.610 . S
N369 C370 1.351 . S
C370 C364 1.428 1_455 S
C370 N369 1.351 . S
C370 C371 1.434 . S
C371 C362 1.429 . S
C371 N368 1.350 . S
C371 C370 1.434 . S
C372 C373 1.369 . S
C372 C374 1.419 . S
C372 H376 0.930 . S
C373 C372 1.369 . S
C373 C382 1.429 . S
C374 C372 1.419 . S
C374 C375 1.363 . S
C374 H377 0.929 . S
C375 C374 1.363 . S
C375 C381 1.428 . S
H376 C372 0.930 . S
H377 C374 0.929 . S
S378 N379 1.613 . S
S378 N380 1.610 . S
N379 S378 1.613 . S
N379 C382 1.350 . S
N380 S378 1.610 . S
N380 C381 1.351 . S
C381 C375 1.428 . S
C381 N380 1.351 . S
C381 C382 1.434 . S
C382 C373 1.429 . S
C382 N379 1.350 . S
C382 C381 1.434 . S
C383 C384 1.369 . S
C383 C385 1.419 . S
C383 H387 0.930 . S
C384 C383 1.369 . S
C384 C393 1.429 . S
C385 C383 1.419 . S
C385 C386 1.363 . S
C385 H388 0.929 . S
C386 C385 1.363 . S
C386 C392 1.428 . S
H387 C383 0.930 . S
H388 C385 0.929 . S
S389 N390 1.613 . S
S389 N391 1.610 . S
N390 S389 1.613 . S
N390 C393 1.350 . S
N391 S389 1.610 . S
N391 C392 1.351 . S
C392 C386 1.428 . S
C392 N391 1.351 . S
C392 C393 1.434 . S
C393 C384 1.429 . S
C393 N390 1.350 . S
C393 C392 1.434 . S
C394 C395 1.369 . S
C394 C396 1.419 . S
C394 H398 0.930 1_655 S
C395 C394 1.369 . S
C395 C404 1.429 . S
C396 C394 1.419 . S
C396 C397 1.363 . S
C396 H399 0.929 . S
C397 C396 1.363 . S
C397 C403 1.428 . S
H398 C394 0.930 1_455 S
H399 C396 0.929 . S
S400 N401 1.613 . S
S400 N402 1.610 . S
N401 S400 1.613 . S
N401 C404 1.350 . S
N402 S400 1.610 . S
N402 C403 1.351 . S
C403 C397 1.428 . S
C403 N402 1.351 . S
C403 C404 1.434 . S
C404 C395 1.429 . S
C404 N401 1.350 . S
C404 C403 1.434 . S
C405 C406 1.369 1_545 S
C405 C407 1.419 1_545 S
C405 H409 0.930 . S
C406 C405 1.369 1_565 S
C406 C415 1.429 . S
C407 C405 1.419 1_565 S
C407 C408 1.363 . S
C407 H410 0.929 1_565 S
C408 C407 1.363 . S
C408 C414 1.428 . S
H409 C405 0.930 . S
H410 C407 0.929 1_545 S
S411 N412 1.613 . S
S411 N413 1.610 . S
N412 S411 1.613 . S
N412 C415 1.350 . S
N413 S411 1.610 . S
N413 C414 1.351 . S
C414 C408 1.428 . S
C414 N413 1.351 . S
C414 C415 1.434 . S
C415 C406 1.429 . S
C415 N412 1.350 . S
C415 C414 1.434 . S
C416 C417 1.369 . S
C416 C418 1.419 . S
C416 H420 0.930 . S
C417 C416 1.369 . S
C417 C426 1.429 . S
C418 C416 1.419 . S
C418 C419 1.363 . S
C418 H421 0.929 . S
C419 C418 1.363 . S
C419 C425 1.428 . S
H420 C416 0.930 . S
H421 C418 0.929 . S
S422 N423 1.613 . S
S422 N424 1.610 . S
N423 S422 1.613 . S
N423 C426 1.350 . S
N424 S422 1.610 . S
N424 C425 1.351 . S
C425 C419 1.428 . S
C425 N424 1.351 . S
C425 C426 1.434 . S
C426 C417 1.429 . S
C426 N423 1.350 . S
C426 C425 1.434 . S
C427 C428 1.369 . S
C427 C429 1.419 . S
C427 H431 0.930 . S
C428 C427 1.369 . S
C428 C437 1.429 . S
C429 C427 1.419 . S
C429 C430 1.363 . S
C429 H432 0.929 . S
C430 C429 1.363 . S
C430 C436 1.428 . S
H431 C427 0.930 . S
H432 C429 0.929 . S
S433 N434 1.619 . S
S433 N435 1.616 . S
N434 S433 1.619 . S
N434 C437 1.350 . S
N435 S433 1.616 . S
N435 C436 1.351 . S
C436 C430 1.428 . S
C436 N435 1.351 . S
C436 C437 1.434 . S
C437 C428 1.429 . S
C437 N434 1.350 . S
C437 C436 1.434 . S
C241 C143 1.377 . S
C243 C23 1.287 . S
C252 C183 1.296 . S
C254 C63 1.369 . S
C263 C223 1.375 1_545 S
C265 C103 1.285 . S
C274 C25 1.262 . S
C276 C84 1.127 . S
C285 C44 1.181 . S
C287 C145 1.055 . S
C296 C105 1.280 . S
C298 C164 1.113 . S
C307 C124 1.192 . S
C309 C225 1.059 . S
C318 C185 1.278 . S
C320 C4 1.112 1_655 S
C329 C204 1.178 1_545 S
C331 C65 1.057 . S
C340 C2 0.879 1_545 S
C342 C122 0.804 . S
C351 C42 0.788 . S
C353 C162 0.882 . S
C362 C82 0.869 . S
C364 C202 0.803 . S
C373 C20 4.305 . S
C375 C60 4.296 . S
C384 C71 4.177 . S
C386 C111 4.143 . S
C395 C100 4.306 1_655 S
C397 C140 4.297 . S
C406 C151 4.177 1_565 S
C408 C191 4.142 . S
C417 C180 4.305 . S
C419 C220 4.298 . S
C428 C231 4.176 . S
C430 C31 4.142 . S
