# Generated by pormake.
# Topology snz, (6)-cn, num edge types: 1
# Building blocks:
#     Node 0, Type 0, BuildingBlock: BETDEL_clean_sbu_0, # of connection points: 6
#     Node 1, Type 0, BuildingBlock: BETDEL_clean_sbu_0, # of connection points: 6
#     Node 2, Type 0, BuildingBlock: BETDEL_clean_sbu_0, # of connection points: 6
#     Node 3, Type 0, BuildingBlock: BETDEL_clean_sbu_0, # of connection points: 6
#     Node 4, Type 0, BuildingBlock: BETDEL_clean_sbu_0, # of connection points: 6
#     Node 5, Type 0, BuildingBlock: BETDEL_clean_sbu_0, # of connection points: 6
#     Node 6, Type 0, BuildingBlock: BETDEL_clean_sbu_0, # of connection points: 6
#     Node 7, Type 0, BuildingBlock: BETDEL_clean_sbu_0, # of connection points: 6
#     Node 8, Type 0, BuildingBlock: BETDEL_clean_sbu_0, # of connection points: 6
#     Edge 9, Type (0, 0), BuildingBlock: XIVTED_clean_linker_0, # of connection points: 2
#     Edge 10, Type (0, 0), BuildingBlock: XIVTED_clean_linker_0, # of connection points: 2
#     Edge 11, Type (0, 0), BuildingBlock: XIVTED_clean_linker_0, # of connection points: 2
#     Edge 12, Type (0, 0), BuildingBlock: XIVTED_clean_linker_0, # of connection points: 2
#     Edge 13, Type (0, 0), BuildingBlock: XIVTED_clean_linker_0, # of connection points: 2
#     Edge 14, Type (0, 0), BuildingBlock: XIVTED_clean_linker_0, # of connection points: 2
#     Edge 15, Type (0, 0), BuildingBlock: XIVTED_clean_linker_0, # of connection points: 2
#     Edge 16, Type (0, 0), BuildingBlock: XIVTED_clean_linker_0, # of connection points: 2
#     Edge 17, Type (0, 0), BuildingBlock: XIVTED_clean_linker_0, # of connection points: 2
#     Edge 18, Type (0, 0), BuildingBlock: XIVTED_clean_linker_0, # of connection points: 2
#     Edge 19, Type (0, 0), BuildingBlock: XIVTED_clean_linker_0, # of connection points: 2
#     Edge 20, Type (0, 0), BuildingBlock: XIVTED_clean_linker_0, # of connection points: 2
#     Edge 21, Type (0, 0), BuildingBlock: XIVTED_clean_linker_0, # of connection points: 2
#     Edge 22, Type (0, 0), BuildingBlock: XIVTED_clean_linker_0, # of connection points: 2
#     Edge 23, Type (0, 0), BuildingBlock: XIVTED_clean_linker_0, # of connection points: 2
#     Edge 24, Type (0, 0), BuildingBlock: XIVTED_clean_linker_0, # of connection points: 2
#     Edge 25, Type (0, 0), BuildingBlock: XIVTED_clean_linker_0, # of connection points: 2
#     Edge 26, Type (0, 0), BuildingBlock: XIVTED_clean_linker_0, # of connection points: 2
#     Edge 27, Type (0, 0), BuildingBlock: XIVTED_clean_linker_0, # of connection points: 2
#     Edge 28, Type (0, 0), BuildingBlock: XIVTED_clean_linker_0, # of connection points: 2
#     Edge 29, Type (0, 0), BuildingBlock: XIVTED_clean_linker_0, # of connection points: 2
#     Edge 30, Type (0, 0), BuildingBlock: XIVTED_clean_linker_0, # of connection points: 2
#     Edge 31, Type (0, 0), BuildingBlock: XIVTED_clean_linker_0, # of connection points: 2
#     Edge 32, Type (0, 0), BuildingBlock: XIVTED_clean_linker_0, # of connection points: 2
#     Edge 33, Type (0, 0), BuildingBlock: XIVTED_clean_linker_0, # of connection points: 2
#     Edge 34, Type (0, 0), BuildingBlock: XIVTED_clean_linker_0, # of connection points: 2
#     Edge 35, Type (0, 0), BuildingBlock: XIVTED_clean_linker_0, # of connection points: 2
# Relax obj value: 0.181
# Max RMSD: 0.228
# Mean RMSD: 0.174
data_MOF--net-snz--node1-BETDEL_clean_sbu_0--edge1-XIVTED_clean_linker_0
_symmetry_space_group_name_H-M    P1
_symmetry_Int_Tables_number       1
_symmetry_cell_setting            triclinic
loop_
_symmetry_equiv_pos_as_xyz
'x, y, z'
_cell_length_a     52.449767
_cell_length_b     53.705008
_cell_length_c     14.761627
_cell_angle_alpha  91.998289
_cell_angle_beta   92.507234
_cell_angle_gamma 120.07894
loop_
_atom_site_label
_atom_site_type_symbol
_atom_site_fract_x
_atom_site_fract_y
_atom_site_fract_z
_atom_type_partial_charge
Dy0 Dy 0.07626 0.47043 0.04364 0.0
C1 C 0.99499 0.50519 0.94206 0.0
C2 C 0.1119 0.45083 0.11052 0.0
Dy3 Dy 0.026 0.48104 0.01162 0.0
O4 O 0.11714 0.46667 0.04159 0.0
O5 O 0.0873 0.44581 0.14302 0.0
O6 O 0.09414 0.48834 0.91017 0.0
O7 O 0.04858 0.46654 0.92153 0.0
C8 C 0.06866 0.48099 0.8695 0.0
C9 C 0.0335 0.47051 0.18566 0.0
O10 O 0.00296 0.43505 0.95838 0.0
O11 O 0.0371 0.42511 0.02709 0.0
O12 O 0.98574 0.48624 1.00327 0.0
O13 O 0.02047 0.51011 0.91792 0.0
O14 O 0.00799 0.46324 0.14501 0.0
O15 O 0.05364 0.48497 0.13369 0.0
O16 O 0.10054 0.51712 0.09116 0.0
O17 O 0.06463 0.52602 0.03096 0.0
C18 C 0.01102 0.41644 0.98382 0.0
C19 C 0.09136 0.53514 0.06916 0.0
Dy20 Dy 0.59971 0.53296 0.07808 0.0
C21 C 0.56877 0.41958 0.96861 0.0
C22 C 0.61554 0.58683 0.14769 0.0
Dy23 Dy 0.59123 0.47423 0.04461 0.0
O24 O 0.60036 0.57504 0.07098 0.0
O25 O 0.62216 0.56925 0.18622 0.0
O26 O 0.58112 0.5312 0.93603 0.0
O27 O 0.60545 0.51067 0.95972 0.0
C28 C 0.59015 0.5148 0.90031 0.0
C29 C 0.60037 0.49193 0.22255 0.0
O30 O 0.63886 0.49966 0.01562 0.0
O31 O 0.64698 0.54265 0.08447 0.0
O32 O 0.58739 0.4303 0.03975 0.0
O33 O 0.56336 0.43893 0.93832 0.0
O34 O 0.60887 0.47502 0.18713 0.0
O35 O 0.58536 0.49635 0.16283 0.0
O36 O 0.5521 0.5078 0.10674 0.0
O37 O 0.54448 0.46549 0.03557 0.0
C38 C 0.65707 0.52662 0.04789 0.0
C39 C 0.53414 0.48122 0.07195 0.0
Dy40 Dy 0.53668 0.99594 0.11373 0.0
C41 C 0.65517 0.07708 0.02876 0.0
C42 C 0.48197 0.96005 0.17067 0.0
Dy43 Dy 0.60125 0.0478 0.09813 0.0
O44 O 0.49319 0.95414 0.10217 0.0
O45 O 0.50054 0.98554 0.20752 0.0
O46 O 0.53664 0.97882 0.97147 0.0
O47 O 0.56189 0.02298 1.00491 0.0
C48 C 0.55604 0.00355 0.94332 0.0
C49 C 0.59006 0.03855 0.27637 0.0
O50 O 0.57509 0.06976 0.06736 0.0
O51 O 0.52861 0.03313 0.10401 0.0
O52 O 0.64209 0.08944 0.06757 0.0
O53 O 0.63851 0.04929 0.02627 0.0
O54 O 0.61442 0.05964 0.24976 0.0
O55 O 0.57385 0.02513 0.20567 0.0
O56 O 0.56342 0.97679 0.16235 0.0
O57 O 0.60443 0.00763 0.08763 0.0
C58 C 0.54669 0.05985 0.08112 0.0
C59 C 0.58918 0.98381 0.13054 0.0
Dy60 Dy 0.78206 0.84903 0.38303 0.0
C61 C 0.69681 0.87959 0.28237 0.0
C62 C 0.81367 0.82504 0.44971 0.0
Dy63 Dy 0.73293 0.86046 0.34849 0.0
O64 O 0.82283 0.84464 0.39072 0.0
O65 O 0.78791 0.81934 0.47337 0.0
O66 O 0.79977 0.86503 0.24793 0.0
O67 O 0.75417 0.844 0.25969 0.0
C68 C 0.77434 0.85766 0.20699 0.0
C69 C 0.74048 0.851 0.52408 0.0
O70 O 0.70836 0.81363 0.30369 0.0
O71 O 0.74214 0.80475 0.37887 0.0
O72 O 0.6924 0.86469 0.35325 0.0
O73 O 0.72087 0.88394 0.2474 0.0
O74 O 0.71502 0.84331 0.4827 0.0
O75 O 0.76062 0.86514 0.47189 0.0
O76 O 0.80566 0.89535 0.43383 0.0
O77 O 0.7726 0.90543 0.35893 0.0
C78 C 0.71591 0.79549 0.33665 0.0
C79 C 0.79839 0.91411 0.404 0.0
Dy80 Dy 0.21514 0.85772 0.34717 0.0
C81 C 0.18861 0.74281 0.27197 0.0
C82 C 0.23865 0.91286 0.42001 0.0
Dy83 Dy 0.206 0.79892 0.31903 0.0
O84 O 0.21957 0.90189 0.34997 0.0
O85 O 0.24384 0.89347 0.45115 0.0
O86 O 0.19626 0.8562 0.20647 0.0
O87 O 0.21947 0.83437 0.22908 0.0
C88 C 0.20417 0.83889 0.17053 0.0
C89 C 0.2183 0.8196 0.49452 0.0
O90 O 0.25415 0.82193 0.29841 0.0
O91 O 0.26178 0.86639 0.35055 0.0
O92 O 0.18352 0.75216 0.3471 0.0
O93 O 0.20313 0.76412 0.22132 0.0
O94 O 0.22811 0.80399 0.45791 0.0
O95 O 0.20168 0.82247 0.43659 0.0
O96 O 0.16786 0.83234 0.37831 0.0
O97 O 0.15988 0.7916 0.29529 0.0
C98 C 0.27197 0.84948 0.32342 0.0
C99 C 0.14961 0.80641 0.33869 0.0
Dy100 Dy 0.20785 0.28133 0.2872 0.0
C101 C 0.32347 0.36838 0.21969 0.0
C102 C 0.15183 0.24648 0.33949 0.0
Dy103 Dy 0.26873 0.3314 0.27478 0.0
O104 O 0.15839 0.25413 0.25744 0.0
O105 O 0.17592 0.25713 0.39197 0.0
O106 O 0.20881 0.26407 0.14713 0.0
O107 O 0.23055 0.30886 0.17661 0.0
C108 C 0.22556 0.28928 0.11638 0.0
C109 C 0.25139 0.32318 0.44661 0.0
O110 O 0.24303 0.35272 0.238 0.0
O111 O 0.20188 0.31987 0.30688 0.0
O112 O 0.31248 0.37294 0.29129 0.0
O113 O 0.30461 0.34369 0.17851 0.0
O114 O 0.26886 0.34829 0.4169 0.0
O115 O 0.24613 0.30387 0.38526 0.0
O116 O 0.23225 0.25763 0.31138 0.0
O117 O 0.2776 0.29447 0.2723 0.0
C118 C 0.21722 0.34499 0.27063 0.0
C119 C 0.26029 0.26762 0.29472 0.0
Dy120 Dy 0.42496 0.16739 0.61267 0.0
C121 C 0.36512 0.17316 0.91069 0.0
C122 C 0.44721 0.16008 0.45725 0.0
Dy123 Dy 0.38831 0.1662 0.75692 0.0
O124 O 0.45629 0.18444 0.50322 0.0
O125 O 0.42641 0.13965 0.49919 0.0
O126 O 0.46542 0.20123 0.69325 0.0
O127 O 0.42564 0.20172 0.69874 0.0
C128 C 0.45224 0.21363 0.72982 0.0
C129 C 0.36093 0.12016 0.63895 0.0
O130 O 0.37414 0.18808 0.6602 0.0
O131 O 0.3929 0.17726 0.53579 0.0
O132 O 0.35628 0.1489 0.86449 0.0
O133 O 0.38647 0.19368 0.87065 0.0
O134 O 0.34795 0.13278 0.67528 0.0
O135 O 0.38746 0.13181 0.67066 0.0
O136 O 0.43946 0.14579 0.70913 0.0
O137 O 0.42035 0.15617 0.8336 0.0
C138 C 0.37624 0.18664 0.57178 0.0
C139 C 0.43719 0.14701 0.79748 0.0
Dy140 Dy 0.91952 0.16604 0.77276 0.0
C141 C 0.85304 0.15056 0.44464 0.0
C142 C 0.95458 0.17795 0.92904 0.0
Dy143 Dy 0.88857 0.16597 0.60121 0.0
O144 O 0.94128 0.15354 0.88104 0.0
O145 O 0.94989 0.19626 0.88702 0.0
O146 O 0.89201 0.11814 0.7711 0.0
O147 O 0.90456 0.13802 0.64773 0.0
C148 C 0.88961 0.11431 0.68322 0.0
C149 C 0.9184 0.21773 0.69038 0.0
O150 O 0.85098 0.14912 0.69201 0.0
O151 O 0.87757 0.15845 0.8307 0.0
O152 O 0.86881 0.17652 0.48232 0.0
O153 O 0.85545 0.13292 0.49744 0.0
O154 O 0.91544 0.21399 0.60232 0.0
O155 O 0.9036 0.194 0.72581 0.0
O156 O 0.95735 0.18597 0.68405 0.0
O157 O 0.93069 0.17295 0.54492 0.0
C158 C 0.85246 0.15006 0.7819 0.0
C159 C 0.9561 0.18353 0.59432 0.0
Dy160 Dy 0.88489 0.64583 0.61328 0.0
C161 C 0.953 0.70438 0.9363 0.0
C162 C 0.85446 0.62438 0.44847 0.0
Dy163 Dy 0.92241 0.68261 0.77183 0.0
O164 O 0.86967 0.61486 0.49132 0.0
O165 O 0.85509 0.64498 0.49895 0.0
O166 O 0.87867 0.60651 0.67874 0.0
O167 O 0.91953 0.64523 0.69927 0.0
C168 C 0.90476 0.61943 0.72081 0.0
C169 C 0.90224 0.7088 0.66411 0.0
O170 O 0.95819 0.69535 0.67902 0.0
O171 O 0.9271 0.67625 0.54822 0.0
O172 O 0.9379 0.71393 0.89298 0.0
O173 O 0.95207 0.68348 0.88664 0.0
O174 O 0.92839 0.72184 0.70583 0.0
O175 O 0.88767 0.68308 0.68625 0.0
O176 O 0.84908 0.63309 0.70603 0.0
O177 O 0.88012 0.65244 0.83693 0.0
C178 C 0.95382 0.69255 0.58971 0.0
C179 C 0.85341 0.6361 0.79537 0.0
H180 H 0.11014 0.50408 0.74403 0.0
H181 H 0.99199 0.44756 0.31114 0.0
H182 H 0.01593 0.45675 0.7654 0.0
H183 H 0.08621 0.49448 0.28979 0.0
H184 H 1.00026 0.45045 0.47684 0.0
H185 H 0.10185 0.50113 0.57834 0.0
C186 C 0.08767 0.49316 0.7139 0.0
C187 C 0.06371 0.48062 0.769 0.0
C188 C 0.01917 0.46009 0.4361 0.0
C189 C 0.05398 0.47701 0.57829 0.0
C190 C 0.01445 0.45838 0.34127 0.0
C191 C 0.03843 0.47083 0.28618 0.0
C192 C 0.04813 0.47439 0.4769 0.0
C193 C 0.06704 0.48457 0.32937 0.0
C194 C 0.08295 0.49142 0.61907 0.0
C195 C 0.03509 0.46674 0.72581 0.0
N196 N 0.07107 0.48603 0.42185 0.0
N197 N 0.03104 0.46527 0.63334 0.0
H198 H 0.61615 0.48846 0.81146 0.0
H199 H 0.57455 0.51853 0.31125 0.0
H200 H 0.56593 0.53077 0.76183 0.0
H201 H 0.62416 0.47563 0.36114 0.0
H202 H 0.57149 0.52363 0.47568 0.0
H203 H 0.61912 0.48334 0.64706 0.0
C204 C 0.60563 0.49657 0.76595 0.0
C205 C 0.59081 0.51012 0.80061 0.0
C206 C 0.5831 0.51313 0.45078 0.0
C207 C 0.59424 0.50447 0.61177 0.0
C208 C 0.58491 0.51029 0.35681 0.0
C209 C 0.59958 0.49657 0.32222 0.0
C210 C 0.59607 0.5022 0.51104 0.0
C211 C 0.61259 0.48631 0.38465 0.0
C212 C 0.60739 0.4937 0.67198 0.0
C213 C 0.57761 0.5202 0.73825 0.0
N214 N 0.61048 0.48927 0.47568 0.0
N215 N 0.57969 0.51724 0.64718 0.0
H216 H 0.59452 0.05418 0.86853 0.0
H217 H 0.54403 0.99088 0.34753 0.0
H218 H 0.53074 0.96504 0.79432 0.0
H219 H 0.62126 0.07303 0.42726 0.0
H220 H 0.53584 0.98207 0.50944 0.0
H221 H 0.60211 0.06257 0.70676 0.0
C222 C 0.58217 0.03635 0.81829 0.0
C223 C 0.56199 0.00885 0.84547 0.0
C224 C 0.55454 0.00206 0.49145 0.0
C225 C 0.57028 0.01836 0.65906 0.0
C226 C 0.55912 0.00714 0.39892 0.0
C227 C 0.58333 0.03278 0.37347 0.0
C228 C 0.57414 0.02288 0.55933 0.0
C229 C 0.60229 0.05296 0.44339 0.0
C230 C 0.58648 0.04113 0.72573 0.0
C231 C 0.54659 0.98658 0.77685 0.0
N232 N 0.59727 0.04765 0.53248 0.0
N233 N 0.55091 0.99184 0.68727 0.0
H234 H 0.69873 0.82768 0.64841 0.0
H235 H 0.81602 0.88038 0.0823 0.0
H236 H 0.79303 0.87454 0.62884 0.0
H237 H 0.72173 0.83452 0.10244 0.0
H238 H 0.80806 0.87849 0.91685 0.0
H239 H 0.70665 0.82953 0.81392 0.0
C240 C 0.72113 0.8383 0.67892 0.0
C241 C 0.74524 0.85102 0.62443 0.0
C242 C 0.78907 0.86885 0.95724 0.0
C243 C 0.75454 0.85331 0.81487 0.0
C244 C 0.7936 0.86996 0.05193 0.0
C245 C 0.76951 0.85753 0.10659 0.0
C246 C 0.76016 0.85518 0.91614 0.0
C247 C 0.74097 0.84436 0.06314 0.0
C248 C 0.72565 0.83939 0.77363 0.0
C249 C 0.77378 0.86445 0.66801 0.0
N250 N 0.73711 0.84349 0.97075 0.0
N251 N 0.77761 0.86528 0.76038 0.0
H252 H 0.24528 0.80564 0.63018 0.0
H253 H 0.17851 0.85412 0.03478 0.0
H254 H 0.18989 0.84283 0.58653 0.0
H255 H 0.23186 0.81474 0.07863 0.0
H256 H 0.18251 0.85024 0.87089 0.0
H257 H 0.24146 0.80961 0.79429 0.0
C258 C 0.23244 0.8148 0.65517 0.0
C259 C 0.21783 0.82386 0.5944 0.0
C260 C 0.1933 0.84236 0.91615 0.0
C261 C 0.21318 0.82833 0.78275 0.0
C262 C 0.19096 0.84451 0.00987 0.0
C263 C 0.20491 0.83479 0.07068 0.0
C264 C 0.20978 0.83043 0.88242 0.0
C265 C 0.22073 0.82251 0.03432 0.0
C266 C 0.23018 0.81698 0.74898 0.0
C267 C 0.20151 0.83556 0.63081 0.0
N268 N 0.22281 0.82077 0.94278 0.0
N269 N 0.19957 0.83739 0.72237 0.0
H270 H 0.26763 0.36347 0.58887 0.0
H271 H 0.20911 0.24868 0.97445 0.0
H272 H 0.22489 0.2716 0.52946 0.0
H273 H 0.25246 0.34063 0.03304 0.0
H274 H 0.21482 0.25653 0.81215 0.0
H275 H 0.26198 0.35548 0.75096 0.0
C276 C 0.25694 0.34156 0.60985 0.0
C277 C 0.24674 0.31819 0.54505 0.0
C278 C 0.22315 0.27503 0.86033 0.0
C279 C 0.24024 0.3088 0.73184 0.0
C280 C 0.21994 0.27056 0.95326 0.0
C281 C 0.23027 0.29402 0.01785 0.0
C282 C 0.2368 0.30322 0.83096 0.0
C283 C 0.24413 0.32187 0.98594 0.0
C284 C 0.25376 0.33701 0.70269 0.0
C285 C 0.23306 0.29029 0.57672 0.0
N286 N 0.24692 0.32567 0.89512 0.0
N287 N 0.23026 0.2864 0.66754 0.0
H288 H 0.41542 0.11288 0.33956 0.0
H289 H 0.3949 0.22024 0.03018 0.0
H290 H 0.47644 0.20438 0.34822 0.0
H291 H 0.33435 0.12861 0.01759 0.0
H292 H 0.42169 0.21559 0.16109 0.0
H293 H 0.38738 0.11748 0.21207 0.0
C294 C 0.42373 0.13377 0.31181 0.0
C295 C 0.44673 0.1587 0.35827 0.0
C296 C 0.40225 0.19651 0.13059 0.0
C297 C 0.41473 0.16424 0.21585 0.0
C298 C 0.38637 0.19928 0.05772 0.0
C299 C 0.36409 0.17436 0.00927 0.0
C300 C 0.39467 0.16877 0.15546 0.0
C301 C 0.35277 0.14811 0.05034 0.0
C302 C 0.40716 0.13653 0.24101 0.0
C303 C 0.45762 0.18488 0.317 0.0
N304 N 0.36913 0.14562 0.11904 0.0
N305 N 0.44066 0.18733 0.25019 0.0
H306 H 0.84696 0.1036 0.34645 0.0
H307 H 0.96457 0.22224 0.0488 0.0
H308 H 0.85754 0.18774 0.31698 0.0
H309 H 0.94569 0.13428 0.03656 0.0
H310 H 0.9307 0.21119 0.1684 0.0
H311 H 0.88146 0.1127 0.22971 0.0
C312 C 0.8554 0.12348 0.31222 0.0
C313 C 0.85141 0.14596 0.34582 0.0
C314 C 0.93427 0.19436 0.14045 0.0
C315 C 0.89097 0.15665 0.21509 0.0
C316 C 0.95438 0.2009 0.07432 0.0
C317 C 0.9559 0.17847 0.02833 0.0
C318 C 0.9169 0.16555 0.16204 0.0
C319 C 0.94359 0.15174 0.06712 0.0
C320 C 0.87582 0.12899 0.24758 0.0
C321 C 0.8615 0.17051 0.29607 0.0
N322 N 0.92333 0.14549 0.12938 0.0
N323 N 0.88209 0.1759 0.23569 0.0
H324 H 0.83968 0.6566 0.34339 0.0
H325 H 0.96841 0.67293 0.04298 0.0
H326 H 0.86984 0.59534 0.32825 0.0
H327 H 0.93777 0.73385 0.0554 0.0
H328 H 0.93604 0.64695 0.16104 0.0
H329 H 0.87237 0.68299 0.22645 0.0
C330 C 0.85218 0.64792 0.31237 0.0
C331 C 0.85393 0.62514 0.34966 0.0
C332 C 0.9367 0.66627 0.13894 0.0
C333 C 0.89165 0.65535 0.21936 0.0
C334 C 0.95588 0.68165 0.07363 0.0
C335 C 0.95385 0.70414 0.03524 0.0
C336 C 0.9165 0.67438 0.16679 0.0
C337 C 0.93856 0.71548 0.08013 0.0
C338 C 0.87154 0.66351 0.24772 0.0
C339 C 0.86922 0.61388 0.30435 0.0
N340 N 0.91925 0.69966 0.14121 0.0
N341 N 0.88869 0.6299 0.24389 0.0
H342 H 0.16675 0.33845 0.3398 0.0
H343 H 0.16431 0.46024 0.05041 0.0
H344 H 0.23729 0.39349 0.17529 0.0
H345 H 0.10039 0.41348 0.24388 0.0
H346 H 0.19226 0.43711 0.09861 0.0
H347 H 0.14299 0.36674 0.30947 0.0
C348 C 0.17738 0.35661 0.29783 0.0
C349 C 0.20398 0.36348 0.25956 0.0
C350 C 0.17224 0.43206 0.13106 0.0
C351 C 0.17674 0.39586 0.224 0.0
C352 C 0.1563 0.44524 0.1035 0.0
C353 C 0.13 0.43861 0.14302 0.0
C354 C 0.16163 0.41194 0.1981 0.0
C355 C 0.12056 0.41909 0.21157 0.0
C356 C 0.16379 0.37279 0.28058 0.0
C357 C 0.21676 0.38735 0.20607 0.0
N358 N 0.13626 0.40627 0.23651 0.0
N359 N 0.20289 0.40252 0.18925 0.0
H360 H 0.60475 0.62651 0.07117 0.0
H361 H 0.71812 0.75331 0.42695 0.0
H362 H 0.64879 0.61425 0.30436 0.0
H363 H 0.66905 0.76622 0.20943 0.0
H364 H 0.68957 0.70161 0.38946 0.0
H365 H 0.6248 0.6769 0.12602 0.0
C366 C 0.61845 0.63442 0.13432 0.0
C367 C 0.62542 0.61642 0.18308 0.0
C368 C 0.68478 0.71563 0.35027 0.0
C369 C 0.6484 0.67379 0.24592 0.0
C370 C 0.70113 0.74521 0.37159 0.0
C371 C 0.69615 0.76409 0.32052 0.0
C372 C 0.66347 0.70477 0.27655 0.0
C373 C 0.67362 0.75238 0.25032 0.0
C374 C 0.62984 0.66312 0.16562 0.0
C375 C 0.6431 0.62755 0.26451 0.0
N376 N 0.65832 0.72341 0.22957 0.0
N377 N 0.65418 0.65559 0.29303 0.0
H378 H 0.44046 0.90608 0.10034 0.0
H379 H 0.31566 0.90066 0.40299 0.0
H380 H 0.45592 0.97135 0.30893 0.0
H381 H 0.30128 0.82923 0.22193 0.0
H382 H 0.36776 0.92559 0.37395 0.0
H383 H 0.39005 0.87644 0.1471 0.0
C384 C 0.43325 0.91405 0.15629 0.0
C385 C 0.45218 0.94122 0.20054 0.0
C386 C 0.35335 0.90435 0.34108 0.0
C387 C 0.3948 0.90763 0.25416 0.0
C388 C 0.32353 0.89009 0.35761 0.0
C389 C 0.30405 0.8629 0.31425 0.0
C390 C 0.36382 0.89155 0.27983 0.0
C391 C 0.31556 0.85017 0.25678 0.0
C392 C 0.40455 0.89714 0.18306 0.0
C393 C 0.44192 0.95057 0.27274 0.0
N394 N 0.34469 0.86477 0.24035 0.0
N395 N 0.41386 0.93389 0.2969 0.0
H396 H 0.49326 0.05209 0.12807 0.0
H397 H 0.49099 0.15533 0.7636 0.0
H398 H 0.56929 0.10837 0.9845 0.0
H399 H 0.42571 0.12138 0.96184 0.0
H400 H 0.52013 0.13892 0.84755 0.0
H401 H 0.46852 0.07767 0.07379 0.0
C402 C 0.50494 0.07005 0.08605 0.0
C403 C 0.53335 0.07786 0.05998 0.0
C404 C 0.49961 0.13524 0.87358 0.0
C405 C 0.50491 0.10703 0.99698 0.0
C406 C 0.48284 0.14448 0.82534 0.0
C407 C 0.45569 0.13936 0.85521 0.0
C408 C 0.48902 0.12018 0.95178 0.0
C409 C 0.44647 0.12563 0.93638 0.0
C410 C 0.49077 0.08468 0.05533 0.0
C411 C 0.5474 0.10148 1.00614 0.0
N412 N 0.4629 0.11604 0.98122 0.0
N413 N 0.53288 0.11491 0.9754 0.0
H414 H 0.92761 0.23057 0.87443 0.0
H415 H 0.9706 0.39415 0.83815 0.0
H416 H 0.93563 0.26925 0.61813 0.0
H417 H 0.01072 0.36946 0.0518 0.0
H418 H 0.94584 0.34466 0.77081 0.0
H419 H 0.94778 0.27842 0.95359 0.0
C420 C 0.93373 0.24912 0.83493 0.0
C421 C 0.93038 0.24611 0.73967 0.0
C422 C 0.95984 0.35008 0.83297 0.0
C423 C 0.95223 0.30027 0.82935 0.0
C424 C 0.97377 0.37821 0.87188 0.0
C425 C 0.99285 0.38591 0.95044 0.0
C426 C 0.96459 0.32943 0.8738 0.0
C427 C 0.99632 0.3644 0.99081 0.0
C428 C 0.94507 0.27628 0.88005 0.0
C429 C 0.93809 0.27069 0.69164 0.0
N430 N 0.9823 0.33704 0.95198 0.0
N431 N 0.94848 0.29674 0.73704 0.0
H432 H 0.8424 0.64862 0.96785 0.0
H433 H 0.68428 0.50418 0.94724 0.0
H434 H 0.80538 0.58462 0.74228 0.0
H435 H 0.70229 0.5809 0.10688 0.0
H436 H 0.73462 0.5296 0.89975 0.0
H437 H 0.79648 0.62036 0.04526 0.0
C438 C 0.82478 0.62858 0.93515 0.0
C439 C 0.82744 0.61914 0.84803 0.0
C440 C 0.72765 0.54078 0.94598 0.0
C441 C 0.77559 0.58671 0.93615 0.0
C442 C 0.6989 0.52623 0.97352 0.0
C443 C 0.68882 0.54051 0.03022 0.0
C444 C 0.74665 0.56982 0.9756 0.0
C445 C 0.709 0.56913 0.06224 0.0
C446 C 0.79866 0.61256 0.97906 0.0
C447 C 0.80407 0.59297 0.8087 0.0
N448 N 0.73693 0.58296 0.03392 0.0
N449 N 0.77924 0.57773 0.85294 0.0
H450 H 0.87537 0.56556 0.78229 0.0
H451 H 0.01922 0.55277 0.84555 0.0
H452 H 0.96313 0.63739 0.75976 0.0
H453 H 0.93941 0.49552 0.97141 0.0
H454 H 0.99747 0.58178 0.80087 0.0
H455 H 0.89692 0.53765 0.84241 0.0
C456 C 0.89919 0.57549 0.79068 0.0
C457 C 0.91756 0.60368 0.76545 0.0
C458 C 0.9847 0.56292 0.8384 0.0
C459 C 0.94222 0.57186 0.83268 0.0
C460 C 0.997 0.54621 0.86332 0.0
C461 C 0.98099 0.52168 0.9119 0.0
C462 C 0.95597 0.55482 0.86097 0.0
C463 C 0.95239 0.51427 0.93374 0.0
C464 C 0.91142 0.55959 0.82506 0.0
C465 C 0.94822 0.61567 0.77812 0.0
N466 N 0.94065 0.53071 0.90752 0.0
N467 N 0.95961 0.59955 0.80982 0.0
H468 H 0.5206 0.39378 0.84952 0.0
H469 H 0.50802 0.24046 0.8109 0.0
H470 H 0.57927 0.376 0.0122 0.0
H471 H 0.43363 0.25249 0.75494 0.0
H472 H 0.53682 0.29049 0.87479 0.0
H473 H 0.4912 0.34273 0.80004 0.0
C474 C 0.52743 0.37911 0.87426 0.0
C475 C 0.55244 0.38905 0.93473 0.0
C476 C 0.51412 0.28206 0.84928 0.0
C477 C 0.51883 0.33059 0.87847 0.0
C478 C 0.49772 0.25361 0.8128 0.0
C479 C 0.46854 0.24253 0.77709 0.0
C480 C 0.50136 0.29961 0.84833 0.0
C481 C 0.45611 0.26029 0.78153 0.0
C482 C 0.51048 0.34995 0.8466 0.0
C483 C 0.56016 0.36911 0.96527 0.0
N484 N 0.47273 0.28811 0.81538 0.0
N485 N 0.54348 0.34074 0.93629 0.0
H486 H 0.8363 0.12568 0.94494 0.0
H487 H 0.68706 0.13029 0.95893 0.0
H488 H 0.80713 0.15794 0.72379 0.0
H489 H 0.69247 0.05627 0.03586 0.0
H490 H 0.73735 0.1514 0.90542 0.0
H491 H 0.78929 0.11079 0.01403 0.0
C492 C 0.82016 0.1299 0.91158 0.0
C493 C 0.82535 0.14269 0.8281 0.0
C494 C 0.72746 0.13066 0.93488 0.0
C495 C 0.77226 0.12648 0.90742 0.0
C496 C 0.69897 0.11872 0.96542 0.0
C497 C 0.68571 0.09149 1.00091 0.0
C498 C 0.74286 0.11557 0.94302 0.0
C499 C 0.7019 0.07722 1.00795 0.0
C500 C 0.79344 0.12139 0.95079 0.0
C501 C 0.80376 0.14775 0.78763 0.0
N502 N 0.72971 0.0895 0.9798 0.0
N503 N 0.77815 0.13972 0.82781 0.0
H504 H 0.57012 0.93768 0.23728 0.0
H505 H 0.70598 0.91403 0.14186 0.0
H506 H 0.63779 0.98753 0.05689 0.0
H507 H 0.64635 0.87276 0.35105 0.0
H508 H 0.67745 0.9368 0.09682 0.0
H509 H 0.59407 0.90938 0.26707 0.0
C510 C 0.58985 0.94254 0.20337 0.0
C511 C 0.60205 0.96514 0.14493 0.0
C512 C 0.67048 0.92265 0.15229 0.0
C513 C 0.62954 0.9329 0.17879 0.0
C514 C 0.68672 0.90962 0.17783 0.0
C515 C 0.67854 0.89168 0.25052 0.0
C516 C 0.64588 0.91766 0.19982 0.0
C517 C 0.65342 0.88659 0.29482 0.0
C518 C 0.60354 0.92643 0.22062 0.0
C519 C 0.62768 0.97047 0.10297 0.0
N520 N 0.63801 0.89963 0.26903 0.0
N521 N 0.64059 0.95454 0.12095 0.0
H522 H 0.14811 0.69705 0.35592 0.0
H523 H 0.15149 0.57186 0.06917 0.0
H524 H 0.20434 0.71927 0.13226 0.0
H525 H 0.0706 0.56753 0.14142 0.0
H526 H 0.17873 0.6236 0.12152 0.0
H527 H 0.12723 0.64603 0.3098 0.0
C528 C 0.15625 0.69114 0.29758 0.0
C529 C 0.17768 0.71224 0.24704 0.0
C530 C 0.15502 0.61109 0.12561 0.0
C531 C 0.15428 0.65414 0.1952 0.0
C532 C 0.1396 0.58178 0.09635 0.0
C533 C 0.10886 0.56572 0.10057 0.0
C534 C 0.13949 0.62368 0.16182 0.0
C535 C 0.09428 0.57932 0.13613 0.0
C536 C 0.14433 0.66212 0.27141 0.0
C537 C 0.18759 0.70348 0.17222 0.0
N538 N 0.10976 0.60745 0.16617 0.0
N539 N 0.17576 0.6749 0.14823 0.0
H540 H 0.49032 0.43112 0.98605 0.0
H541 H 0.36546 0.42086 0.29878 0.0
H542 H 0.50488 0.49933 0.1821 0.0
H543 H 0.34944 0.35934 0.07658 0.0
H544 H 0.41613 0.45094 0.25475 0.0
H545 H 0.43816 0.40562 0.01491 0.0
C546 C 0.4825 0.44087 0.03473 0.0
C547 C 0.50205 0.46732 0.08219 0.0
C548 C 0.40146 0.43097 0.21523 0.0
C549 C 0.44222 0.43802 0.11627 0.0
C550 C 0.3726 0.41382 0.24041 0.0
C551 C 0.35342 0.38757 0.19145 0.0
C552 C 0.41114 0.42165 0.14096 0.0
C553 C 0.36362 0.3794 0.11632 0.0
C554 C 0.45265 0.42628 0.05115 0.0
C555 C 0.49058 0.47898 0.144 0.0
N556 N 0.39185 0.39628 0.09374 0.0
N557 N 0.46144 0.4641 0.15998 0.0
H558 H 0.84381 0.68959 0.62136 0.0
H559 H 0.86992 0.83659 0.4218 0.0
H560 H 0.93091 0.76339 0.60746 0.0
H561 H 0.78966 0.77594 0.53901 0.0
H562 H 0.89191 0.80719 0.46508 0.0
H563 H 0.82248 0.71784 0.56293 0.0
C564 C 0.85842 0.71165 0.60514 0.0
C565 C 0.8891 0.72436 0.62014 0.0
C566 C 0.86951 0.80043 0.48128 0.0
C567 C 0.86497 0.75667 0.55335 0.0
C568 C 0.85703 0.81717 0.45681 0.0
C569 C 0.82809 0.80873 0.47759 0.0
C570 C 0.85264 0.77491 0.52515 0.0
C571 C 0.81216 0.78332 0.52244 0.0
C572 C 0.84627 0.72778 0.5723 0.0
C573 C 0.90709 0.75296 0.59765 0.0
N574 N 0.82459 0.76724 0.54432 0.0
N575 N 0.89476 0.76823 0.5655 0.0
H576 H 0.30562 0.09436 0.5556 0.0
H577 H 0.28729 0.93857 0.53725 0.0
H578 H 0.37797 0.07985 0.61963 0.0
H579 H 0.22975 0.95704 0.37138 0.0
H580 H 0.31835 0.9899 0.58085 0.0
H581 H 0.27552 0.04398 0.49626 0.0
C582 C 0.31522 0.08059 0.55628 0.0
C583 C 0.34418 0.09109 0.59308 0.0
C584 C 0.29896 0.98277 0.53488 0.0
C585 C 0.30984 0.03358 0.52709 0.0
C586 C 0.28106 0.95346 0.51062 0.0
C587 C 0.25587 0.94362 0.45098 0.0
C588 C 0.29141 0.0024 0.50038 0.0
C589 C 0.24896 0.96383 0.41784 0.0
C590 C 0.29807 0.05192 0.52244 0.0
C591 C 0.35569 0.07252 0.59204 0.0
N592 N 0.26658 0.99236 0.44348 0.0
N593 N 0.33833 0.04451 0.56074 0.0
H594 H 0.96573 0.18438 0.41111 0.0
H595 H 0.13632 0.23187 0.51115 0.0
H596 H 0.01001 0.2001 0.67826 0.0
H597 H 0.09931 0.23011 0.24271 0.0
H598 H 0.08787 0.21456 0.56954 0.0
H599 H 0.01247 0.19661 0.34427 0.0
C600 C 0.98517 0.1904 0.45567 0.0
C601 C 0.98387 0.19129 0.55055 0.0
C602 C 0.09018 0.21775 0.49768 0.0
C603 C 0.03715 0.20495 0.47471 0.0
C604 C 0.11785 0.22749 0.46427 0.0
C605 C 0.1218 0.23249 0.37211 0.0
C606 C 0.06617 0.21303 0.43863 0.0
C607 C 0.09712 0.2265 0.31435 0.0
C608 C 0.01181 0.19732 0.41749 0.0
C609 C 0.00979 0.19917 0.60486 0.0
N610 N 0.07032 0.21723 0.34865 0.0
N611 N 0.03519 0.20561 0.56624 0.0
H612 H 0.3868 0.21014 0.40403 0.0
H613 H 0.23783 0.21785 0.38441 0.0
H614 H 0.32306 0.17967 0.60751 0.0
H615 H 0.31456 0.27717 0.24894 0.0
H616 H 0.26426 0.19372 0.43639 0.0
H617 H 0.35613 0.22564 0.31865 0.0
C618 C 0.36628 0.20646 0.4301 0.0
C619 C 0.35767 0.19409 0.51359 0.0
C620 C 0.27517 0.21181 0.39428 0.0
C621 C 0.32249 0.21107 0.41631 0.0
C622 C 0.26002 0.22551 0.36411 0.0
C623 C 0.2741 0.24985 0.31322 0.0
C624 C 0.30456 0.22233 0.373 0.0
C625 C 0.30295 0.25871 0.28906 0.0
C626 C 0.34888 0.21532 0.38167 0.0
C627 C 0.33082 0.18963 0.54427 0.0
N628 N 0.31734 0.24511 0.31979 0.0
N629 N 0.31427 0.19811 0.49583 0.0
H630 H 0.839 0.93759 0.5492 0.0
H631 H 0.88088 0.10061 0.49921 0.0
H632 H 0.79929 0.96056 0.32953 0.0
H633 H 0.87308 0.06338 0.7581 0.0
H634 H 0.86155 0.05246 0.42268 0.0
H635 H 0.86384 0.98758 0.6121 0.0
C636 C 0.83595 0.95325 0.5132 0.0
C637 C 0.8169 0.9449 0.43436 0.0
C638 C 0.86416 0.05501 0.49621 0.0
C639 C 0.84526 0.00198 0.50596 0.0
C640 C 0.87503 0.08234 0.5398 0.0
C641 C 0.87817 0.08583 0.63504 0.0
C642 C 0.85729 0.03137 0.54846 0.0
C643 C 0.87077 0.06158 0.68456 0.0
C644 C 0.84995 0.98168 0.54954 0.0
C645 C 0.81363 0.9661 0.39091 0.0
N646 N 0.86085 0.0354 0.64068 0.0
N647 N 0.82765 0.99375 0.4274 0.0
H648 H 0.9648 0.68137 0.41536 0.0
H649 H 0.12158 0.82748 0.44119 0.0
H650 H 0.00163 0.74393 0.64481 0.0
H651 H 0.10487 0.75243 0.27441 0.0
H652 H 0.07126 0.80093 0.4881 0.0
H653 H 0.0104 0.71079 0.33759 0.0
C654 C 0.98231 0.70132 0.44891 0.0
C655 C 0.97969 0.71002 0.53717 0.0
C656 C 0.0785 0.79037 0.4404 0.0
C657 C 0.03113 0.74378 0.44861 0.0
C658 C 0.10724 0.80557 0.41318 0.0
C659 C 0.11771 0.79208 0.35472 0.0
C660 C 0.05989 0.76145 0.40885 0.0
C661 C 0.09785 0.76362 0.32037 0.0
C662 C 0.00824 0.718 0.40475 0.0
C663 C 0.00291 0.73611 0.57751 0.0
N664 N 0.06993 0.74911 0.34862 0.0
N665 N 0.02753 0.752 0.53302 0.0
loop_
_geom_bond_atom_site_label_1
_geom_bond_atom_site_label_2
_geom_bond_distance
_geom_bond_site_symmetry_2
_ccdc_geom_bond_type
Dy0 O4 2.398 1_554 S
Dy0 O5 2.491 . S
Dy0 O6 2.403 1_554 S
Dy0 O7 2.664 1_554 S
Dy0 O11 2.326 1_554 S
Dy0 O15 2.310 . S
Dy0 O16 2.351 . S
C1 O12 1.185 1_556 S
C1 O13 1.355 . S
C2 O4 1.185 1_554 S
C2 O5 1.355 . S
Dy3 O7 2.310 1_654 S
Dy3 O10 2.351 1_554 S
Dy3 O12 2.398 . S
Dy3 O13 2.491 1_554 S
Dy3 O14 2.403 . S
Dy3 O15 2.664 1_655 S
Dy3 O17 2.326 1_655 S
O4 Dy0 2.398 1_556 S
O4 C2 1.185 1_556 S
O5 Dy0 2.491 . S
O5 C2 1.355 . S
O6 Dy0 2.403 1_556 S
O6 C8 1.254 . S
O7 Dy0 2.664 1_556 S
O7 Dy3 2.310 1_456 S
O7 C8 1.268 . S
C8 O6 1.254 . S
C8 O7 1.268 . S
C9 O14 1.254 1_455 S
C9 O15 1.268 . S
O10 Dy3 2.351 1_556 S
O10 C18 1.249 . S
O11 Dy0 2.326 1_556 S
O11 C18 1.267 1_455 S
O12 C1 1.185 1_554 S
O12 Dy3 2.398 . S
O13 C1 1.355 . S
O13 Dy3 2.491 1_556 S
O14 Dy3 2.403 . S
O14 C9 1.254 1_655 S
O15 Dy0 2.310 . S
O15 Dy3 2.664 1_455 S
O15 C9 1.268 . S
O16 Dy0 2.351 . S
O16 C19 1.249 . S
O17 Dy3 2.326 1_455 S
O17 C19 1.267 . S
C18 O10 1.249 . S
C18 O11 1.267 1_655 S
C19 O16 1.249 . S
C19 O17 1.267 . S
Dy20 O24 2.398 . S
Dy20 O25 2.491 . S
Dy20 O26 2.403 1_554 S
Dy20 O27 2.664 . S
Dy20 O31 2.326 . S
Dy20 O35 2.310 . S
Dy20 O36 2.351 . S
C21 O32 1.185 . S
C21 O33 1.355 1_554 S
C22 O24 1.185 . S
C22 O25 1.355 . S
Dy23 O27 2.310 . S
Dy23 O30 2.351 . S
Dy23 O32 2.398 . S
Dy23 O33 2.491 1_554 S
Dy23 O34 2.403 . S
Dy23 O35 2.664 . S
Dy23 O37 2.326 . S
O24 Dy20 2.398 . S
O24 C22 1.185 . S
O25 Dy20 2.491 . S
O25 C22 1.355 . S
O26 Dy20 2.403 1_556 S
O26 C28 1.254 . S
O27 Dy20 2.664 . S
O27 Dy23 2.310 . S
O27 C28 1.268 1_554 S
C28 O26 1.254 . S
C28 O27 1.268 1_556 S
C29 O34 1.254 . S
C29 O35 1.268 . S
O30 Dy23 2.351 . S
O30 C38 1.249 . S
O31 Dy20 2.326 . S
O31 C38 1.267 . S
O32 C21 1.185 . S
O32 Dy23 2.398 . S
O33 C21 1.355 1_556 S
O33 Dy23 2.491 1_556 S
O34 Dy23 2.403 . S
O34 C29 1.254 . S
O35 Dy20 2.310 . S
O35 Dy23 2.664 . S
O35 C29 1.268 . S
O36 Dy20 2.351 . S
O36 C39 1.249 . S
O37 Dy23 2.326 . S
O37 C39 1.267 . S
C38 O30 1.249 . S
C38 O31 1.267 . S
C39 O36 1.249 . S
C39 O37 1.267 . S
Dy40 O44 2.398 1_545 S
Dy40 O45 2.491 . S
Dy40 O46 2.403 . S
Dy40 O47 2.664 . S
Dy40 O51 2.326 . S
Dy40 O55 2.310 . S
Dy40 O56 2.351 . S
C41 O52 1.185 . S
C41 O53 1.355 . S
C42 O44 1.209 . S
C42 O45 1.345 1_565 S
Dy43 O47 2.310 . S
Dy43 O50 2.351 . S
Dy43 O52 2.398 . S
Dy43 O53 2.491 . S
Dy43 O54 2.403 . S
Dy43 O55 2.664 . S
Dy43 O57 2.326 . S
O44 Dy40 2.398 1_565 S
O44 C42 1.209 . S
O45 Dy40 2.491 . S
O45 C42 1.345 1_545 S
O46 Dy40 2.403 . S
O46 C48 1.254 . S
O47 Dy40 2.664 . S
O47 Dy43 2.310 . S
O47 C48 1.268 . S
C48 O46 1.254 . S
C48 O47 1.268 . S
C49 O54 1.254 . S
C49 O55 1.268 . S
O50 Dy43 2.351 . S
O50 C58 1.249 . S
O51 Dy40 2.326 . S
O51 C58 1.267 . S
O52 C41 1.185 . S
O52 Dy43 2.398 . S
O53 C41 1.355 . S
O53 Dy43 2.491 . S
O54 Dy43 2.403 . S
O54 C49 1.254 . S
O55 Dy40 2.310 . S
O55 Dy43 2.664 . S
O55 C49 1.268 . S
O56 Dy40 2.351 . S
O56 C59 1.249 . S
O57 Dy43 2.326 . S
O57 C59 1.267 . S
C58 O50 1.249 . S
C58 O51 1.267 . S
C59 O56 1.249 . S
C59 O57 1.267 . S
Dy60 O64 2.398 . S
Dy60 O65 2.491 . S
Dy60 O66 2.403 . S
Dy60 O67 2.664 . S
Dy60 O71 2.326 . S
Dy60 O75 2.310 . S
Dy60 O76 2.351 . S
C61 O72 1.185 . S
C61 O73 1.355 . S
C62 O64 1.185 . S
C62 O65 1.355 . S
Dy63 O67 2.310 . S
Dy63 O70 2.351 . S
Dy63 O72 2.398 . S
Dy63 O73 2.491 . S
Dy63 O74 2.403 . S
Dy63 O75 2.664 . S
Dy63 O77 2.326 . S
O64 Dy60 2.398 . S
O64 C62 1.185 . S
O65 Dy60 2.491 . S
O65 C62 1.355 . S
O66 Dy60 2.403 . S
O66 C68 1.254 . S
O67 Dy60 2.664 . S
O67 Dy63 2.310 . S
O67 C68 1.268 . S
C68 O66 1.254 . S
C68 O67 1.268 . S
C69 O74 1.254 . S
C69 O75 1.268 . S
O70 Dy63 2.351 . S
O70 C78 1.249 . S
O71 Dy60 2.326 . S
O71 C78 1.267 . S
O72 C61 1.185 . S
O72 Dy63 2.398 . S
O73 C61 1.355 . S
O73 Dy63 2.491 . S
O74 Dy63 2.403 . S
O74 C69 1.254 . S
O75 Dy60 2.310 . S
O75 Dy63 2.664 . S
O75 C69 1.268 . S
O76 Dy60 2.351 . S
O76 C79 1.249 . S
O77 Dy63 2.326 . S
O77 C79 1.267 . S
C78 O70 1.249 . S
C78 O71 1.267 . S
C79 O76 1.249 . S
C79 O77 1.267 . S
Dy80 O84 2.398 . S
Dy80 O85 2.491 . S
Dy80 O86 2.403 . S
Dy80 O87 2.664 . S
Dy80 O91 2.326 . S
Dy80 O95 2.310 . S
Dy80 O96 2.351 . S
C81 O92 1.185 . S
C81 O93 1.355 . S
C82 O84 1.185 . S
C82 O85 1.355 . S
Dy83 O87 2.310 . S
Dy83 O90 2.351 . S
Dy83 O92 2.398 . S
Dy83 O93 2.491 . S
Dy83 O94 2.403 . S
Dy83 O95 2.664 . S
Dy83 O97 2.326 . S
O84 Dy80 2.398 . S
O84 C82 1.185 . S
O85 Dy80 2.491 . S
O85 C82 1.355 . S
O86 Dy80 2.403 . S
O86 C88 1.254 . S
O87 Dy80 2.664 . S
O87 Dy83 2.310 . S
O87 C88 1.268 . S
C88 O86 1.254 . S
C88 O87 1.268 . S
C89 O94 1.254 . S
C89 O95 1.268 . S
O90 Dy83 2.351 . S
O90 C98 1.249 . S
O91 Dy80 2.326 . S
O91 C98 1.267 . S
O92 C81 1.185 . S
O92 Dy83 2.398 . S
O93 C81 1.355 . S
O93 Dy83 2.491 . S
O94 Dy83 2.403 . S
O94 C89 1.254 . S
O95 Dy80 2.310 . S
O95 Dy83 2.664 . S
O95 C89 1.268 . S
O96 Dy80 2.351 . S
O96 C99 1.249 . S
O97 Dy83 2.326 . S
O97 C99 1.267 . S
C98 O90 1.249 . S
C98 O91 1.267 . S
C99 O96 1.249 . S
C99 O97 1.267 . S
Dy100 O104 2.398 . S
Dy100 O105 2.491 . S
Dy100 O106 2.403 . S
Dy100 O107 2.664 . S
Dy100 O111 2.326 . S
Dy100 O115 2.310 . S
Dy100 O116 2.351 . S
C101 O112 1.185 . S
C101 O113 1.355 . S
C102 O104 1.185 . S
C102 O105 1.355 . S
Dy103 O107 2.310 . S
Dy103 O110 2.351 . S
Dy103 O112 2.398 . S
Dy103 O113 2.491 . S
Dy103 O114 2.403 . S
Dy103 O115 2.664 . S
Dy103 O117 2.326 . S
O104 Dy100 2.398 . S
O104 C102 1.185 . S
O105 Dy100 2.491 . S
O105 C102 1.355 . S
O106 Dy100 2.403 . S
O106 C108 1.254 . S
O107 Dy100 2.664 . S
O107 Dy103 2.310 . S
O107 C108 1.268 . S
C108 O106 1.254 . S
C108 O107 1.268 . S
C109 O114 1.254 . S
C109 O115 1.268 . S
O110 Dy103 2.351 . S
O110 C118 1.249 . S
O111 Dy100 2.326 . S
O111 C118 1.267 . S
O112 C101 1.185 . S
O112 Dy103 2.398 . S
O113 C101 1.355 . S
O113 Dy103 2.491 . S
O114 Dy103 2.403 . S
O114 C109 1.254 . S
O115 Dy100 2.310 . S
O115 Dy103 2.664 . S
O115 C109 1.268 . S
O116 Dy100 2.351 . S
O116 C119 1.249 . S
O117 Dy103 2.326 . S
O117 C119 1.267 . S
C118 O110 1.249 . S
C118 O111 1.267 . S
C119 O116 1.249 . S
C119 O117 1.267 . S
Dy120 O124 2.398 . S
Dy120 O125 2.491 . S
Dy120 O126 2.403 . S
Dy120 O127 2.664 . S
Dy120 O131 2.326 . S
Dy120 O135 2.310 . S
Dy120 O136 2.351 . S
C121 O132 1.185 . S
C121 O133 1.355 . S
C122 O124 1.185 . S
C122 O125 1.355 . S
Dy123 O127 2.310 . S
Dy123 O130 2.351 . S
Dy123 O132 2.398 . S
Dy123 O133 2.491 . S
Dy123 O134 2.403 . S
Dy123 O135 2.664 . S
Dy123 O137 2.326 . S
O124 Dy120 2.398 . S
O124 C122 1.185 . S
O125 Dy120 2.491 . S
O125 C122 1.355 . S
O126 Dy120 2.403 . S
O126 C128 1.254 . S
O127 Dy120 2.664 . S
O127 Dy123 2.310 . S
O127 C128 1.268 . S
C128 O126 1.254 . S
C128 O127 1.268 . S
C129 O134 1.254 . S
C129 O135 1.268 . S
O130 Dy123 2.351 . S
O130 C138 1.249 . S
O131 Dy120 2.326 . S
O131 C138 1.267 . S
O132 C121 1.185 . S
O132 Dy123 2.398 . S
O133 C121 1.355 . S
O133 Dy123 2.491 . S
O134 Dy123 2.403 . S
O134 C129 1.254 . S
O135 Dy120 2.310 . S
O135 Dy123 2.664 . S
O135 C129 1.268 . S
O136 Dy120 2.351 . S
O136 C139 1.249 . S
O137 Dy123 2.326 . S
O137 C139 1.267 . S
C138 O130 1.249 . S
C138 O131 1.267 . S
C139 O136 1.249 . S
C139 O137 1.267 . S
Dy140 O144 2.398 . S
Dy140 O145 2.491 . S
Dy140 O146 2.403 . S
Dy140 O147 2.664 . S
Dy140 O151 2.326 . S
Dy140 O155 2.310 . S
Dy140 O156 2.351 . S
C141 O152 1.185 . S
C141 O153 1.355 . S
C142 O144 1.185 . S
C142 O145 1.355 . S
Dy143 O147 2.310 . S
Dy143 O150 2.351 . S
Dy143 O152 2.398 . S
Dy143 O153 2.491 . S
Dy143 O154 2.403 . S
Dy143 O155 2.664 . S
Dy143 O157 2.326 . S
O144 Dy140 2.398 . S
O144 C142 1.185 . S
O145 Dy140 2.491 . S
O145 C142 1.355 . S
O146 Dy140 2.403 . S
O146 C148 1.254 . S
O147 Dy140 2.664 . S
O147 Dy143 2.310 . S
O147 C148 1.268 . S
C148 O146 1.254 . S
C148 O147 1.268 . S
C149 O154 1.254 . S
C149 O155 1.268 . S
O150 Dy143 2.351 . S
O150 C158 1.249 . S
O151 Dy140 2.326 . S
O151 C158 1.267 . S
O152 C141 1.185 . S
O152 Dy143 2.398 . S
O153 C141 1.355 . S
O153 Dy143 2.491 . S
O154 Dy143 2.403 . S
O154 C149 1.254 . S
O155 Dy140 2.310 . S
O155 Dy143 2.664 . S
O155 C149 1.268 . S
O156 Dy140 2.351 . S
O156 C159 1.249 . S
O157 Dy143 2.326 . S
O157 C159 1.267 . S
C158 O150 1.249 . S
C158 O151 1.267 . S
C159 O156 1.249 . S
C159 O157 1.267 . S
Dy160 O164 2.398 . S
Dy160 O165 2.491 . S
Dy160 O166 2.403 . S
Dy160 O167 2.664 . S
Dy160 O171 2.326 . S
Dy160 O175 2.310 . S
Dy160 O176 2.351 . S
C161 O172 1.185 . S
C161 O173 1.355 . S
C162 O164 1.185 . S
C162 O165 1.355 . S
Dy163 O167 2.310 . S
Dy163 O170 2.351 . S
Dy163 O172 2.398 . S
Dy163 O173 2.491 . S
Dy163 O174 2.403 . S
Dy163 O175 2.664 . S
Dy163 O177 2.326 . S
O164 Dy160 2.398 . S
O164 C162 1.185 . S
O165 Dy160 2.491 . S
O165 C162 1.355 . S
O166 Dy160 2.403 . S
O166 C168 1.254 . S
O167 Dy160 2.664 . S
O167 Dy163 2.310 . S
O167 C168 1.268 . S
C168 O166 1.254 . S
C168 O167 1.268 . S
C169 O174 1.254 . S
C169 O175 1.268 . S
O170 Dy163 2.351 . S
O170 C178 1.249 . S
O171 Dy160 2.326 . S
O171 C178 1.267 . S
O172 C161 1.185 . S
O172 Dy163 2.398 . S
O173 C161 1.355 . S
O173 Dy163 2.491 . S
O174 Dy163 2.403 . S
O174 C169 1.254 . S
O175 Dy160 2.310 . S
O175 Dy163 2.664 . S
O175 C169 1.268 . S
O176 Dy160 2.351 . S
O176 C179 1.249 . S
O177 Dy163 2.326 . S
O177 C179 1.267 . S
C178 O170 1.249 . S
C178 O171 1.267 . S
C179 O176 1.249 . S
C179 O177 1.267 . S
H180 C186 0.930 . S
H181 C190 0.930 1_655 S
H182 C195 0.929 . S
H183 C193 0.929 . S
H184 C188 0.929 . S
H185 C194 0.929 . S
C186 H180 0.930 . S
C186 C187 1.367 . S
C186 C194 1.378 . S
C187 C186 1.367 . S
C187 C195 1.433 . S
C188 H184 0.929 . S
C188 C190 1.378 . S
C188 C192 1.350 . S
C189 C192 1.463 . S
C189 C194 1.350 . S
C189 N197 1.427 . S
C190 H181 0.930 1_455 S
C190 C188 1.378 . S
C190 C191 1.367 . S
C191 C190 1.367 . S
C191 C193 1.433 . S
C192 C188 1.350 . S
C192 C189 1.463 . S
C192 N196 1.427 . S
C193 H183 0.929 . S
C193 C191 1.433 . S
C193 N196 1.384 . S
C194 H185 0.929 . S
C194 C186 1.378 . S
C194 C189 1.350 . S
C195 H182 0.929 . S
C195 C187 1.433 . S
C195 N197 1.384 . S
N196 C192 1.427 . S
N196 C193 1.384 . S
N197 C189 1.427 . S
N197 C195 1.384 . S
H198 C204 0.930 . S
H199 C208 0.930 . S
H200 C213 0.929 . S
H201 C211 0.929 . S
H202 C206 0.929 . S
H203 C212 0.929 . S
C204 H198 0.930 . S
C204 C205 1.367 . S
C204 C212 1.378 . S
C205 C204 1.367 . S
C205 C213 1.433 . S
C206 H202 0.929 . S
C206 C208 1.378 . S
C206 C210 1.350 . S
C207 C210 1.463 . S
C207 C212 1.350 . S
C207 N215 1.427 . S
C208 H199 0.930 . S
C208 C206 1.378 . S
C208 C209 1.367 . S
C209 C208 1.367 . S
C209 C211 1.433 . S
C210 C206 1.350 . S
C210 C207 1.463 . S
C210 N214 1.427 . S
C211 H201 0.929 . S
C211 C209 1.433 . S
C211 N214 1.384 . S
C212 H203 0.929 . S
C212 C204 1.378 . S
C212 C207 1.350 . S
C213 H200 0.929 . S
C213 C205 1.433 . S
C213 N215 1.384 . S
N214 C210 1.427 . S
N214 C211 1.384 . S
N215 C207 1.427 . S
N215 C213 1.384 . S
H216 C222 0.930 . S
H217 C226 0.930 . S
H218 C231 0.929 . S
H219 C229 0.929 . S
H220 C224 0.929 . S
H221 C230 0.929 . S
C222 H216 0.930 . S
C222 C223 1.367 . S
C222 C230 1.378 . S
C223 C222 1.367 . S
C223 C231 1.433 . S
C224 H220 0.929 . S
C224 C226 1.378 . S
C224 C228 1.350 . S
C225 C228 1.463 . S
C225 C230 1.350 . S
C225 N233 1.427 . S
C226 H217 0.930 . S
C226 C224 1.378 . S
C226 C227 1.367 . S
C227 C226 1.367 . S
C227 C229 1.433 . S
C228 C224 1.350 . S
C228 C225 1.463 . S
C228 N232 1.427 . S
C229 H219 0.929 . S
C229 C227 1.433 . S
C229 N232 1.384 . S
C230 H221 0.929 . S
C230 C222 1.378 . S
C230 C225 1.350 . S
C231 H218 0.929 . S
C231 C223 1.433 . S
C231 N233 1.384 . S
N232 C228 1.427 . S
N232 C229 1.384 . S
N233 C225 1.427 . S
N233 C231 1.384 . S
H234 C240 0.930 . S
H235 C244 0.930 . S
H236 C249 0.929 . S
H237 C247 0.929 . S
H238 C242 0.929 . S
H239 C248 0.929 . S
C240 H234 0.930 . S
C240 C241 1.367 . S
C240 C248 1.378 . S
C241 C240 1.367 . S
C241 C249 1.433 . S
C242 H238 0.929 . S
C242 C244 1.378 1_556 S
C242 C246 1.350 . S
C243 C246 1.463 . S
C243 C248 1.350 . S
C243 N251 1.427 . S
C244 H235 0.930 . S
C244 C242 1.378 1_554 S
C244 C245 1.367 . S
C245 C244 1.367 . S
C245 C247 1.433 . S
C246 C242 1.350 . S
C246 C243 1.463 . S
C246 N250 1.427 . S
C247 H237 0.929 . S
C247 C245 1.433 . S
C247 N250 1.384 1_554 S
C248 H239 0.929 . S
C248 C240 1.378 . S
C248 C243 1.350 . S
C249 H236 0.929 . S
C249 C241 1.433 . S
C249 N251 1.384 . S
N250 C246 1.427 . S
N250 C247 1.384 1_556 S
N251 C243 1.427 . S
N251 C249 1.384 . S
H252 C258 0.930 . S
H253 C262 0.930 . S
H254 C267 0.929 . S
H255 C265 0.929 . S
H256 C260 0.929 . S
H257 C266 0.929 . S
C258 H252 0.930 . S
C258 C259 1.367 . S
C258 C266 1.378 . S
C259 C258 1.367 . S
C259 C267 1.433 . S
C260 H256 0.929 . S
C260 C262 1.378 . S
C260 C264 1.350 . S
C261 C264 1.463 . S
C261 C266 1.350 . S
C261 N269 1.427 . S
C262 H253 0.930 . S
C262 C260 1.378 . S
C262 C263 1.367 . S
C263 C262 1.367 . S
C263 C265 1.433 . S
C264 C260 1.350 . S
C264 C261 1.463 . S
C264 N268 1.427 . S
C265 H255 0.929 . S
C265 C263 1.433 . S
C265 N268 1.384 . S
C266 H257 0.929 . S
C266 C258 1.378 . S
C266 C261 1.350 . S
C267 H254 0.929 . S
C267 C259 1.433 . S
C267 N269 1.384 . S
N268 C264 1.427 . S
N268 C265 1.384 . S
N269 C261 1.427 . S
N269 C267 1.384 . S
H270 C276 0.930 . S
H271 C280 0.930 . S
H272 C285 0.929 . S
H273 C283 0.929 . S
H274 C278 0.929 . S
H275 C284 0.929 . S
C276 H270 0.930 . S
C276 C277 1.367 . S
C276 C284 1.378 . S
C277 C276 1.367 . S
C277 C285 1.433 . S
C278 H274 0.929 . S
C278 C280 1.378 . S
C278 C282 1.350 . S
C279 C282 1.463 . S
C279 C284 1.350 . S
C279 N287 1.427 . S
C280 H271 0.930 . S
C280 C278 1.378 . S
C280 C281 1.367 . S
C281 C280 1.367 . S
C281 C283 1.433 . S
C282 C278 1.350 . S
C282 C279 1.463 . S
C282 N286 1.427 . S
C283 H273 0.929 . S
C283 C281 1.433 . S
C283 N286 1.384 . S
C284 H275 0.929 . S
C284 C276 1.378 . S
C284 C279 1.350 . S
C285 H272 0.929 . S
C285 C277 1.433 . S
C285 N287 1.384 . S
N286 C282 1.427 . S
N286 C283 1.384 . S
N287 C279 1.427 . S
N287 C285 1.384 . S
H288 C294 0.930 . S
H289 C298 0.930 . S
H290 C303 0.929 . S
H291 C301 0.925 1_556 S
H292 C296 0.929 . S
H293 C302 0.929 . S
C294 H288 0.930 . S
C294 C295 1.367 . S
C294 C302 1.378 . S
C295 C294 1.367 . S
C295 C303 1.433 . S
C296 H292 0.929 . S
C296 C298 1.378 1_554 S
C296 C300 1.350 . S
C297 C300 1.463 . S
C297 C302 1.350 . S
C297 N305 1.427 . S
C298 H289 0.930 . S
C298 C296 1.378 1_556 S
C298 C299 1.367 . S
C299 C298 1.367 . S
C299 C301 1.433 1_556 S
C300 C296 1.350 . S
C300 C297 1.463 . S
C300 N304 1.427 . S
C301 H291 0.925 1_554 S
C301 C299 1.433 1_554 S
C301 N304 1.384 . S
C302 H293 0.929 . S
C302 C294 1.378 . S
C302 C297 1.350 . S
C303 H290 0.929 . S
C303 C295 1.433 . S
C303 N305 1.384 . S
N304 C300 1.427 . S
N304 C301 1.384 . S
N305 C297 1.427 . S
N305 C303 1.384 . S
H306 C312 0.930 . S
H307 C316 0.930 . S
H308 C321 0.929 . S
H309 C319 0.929 . S
H310 C314 0.929 . S
H311 C320 0.929 . S
C312 H306 0.930 . S
C312 C313 1.367 . S
C312 C320 1.378 . S
C313 C312 1.367 . S
C313 C321 1.433 . S
C314 H310 0.929 . S
C314 C316 1.378 1_554 S
C314 C318 1.350 . S
C315 C318 1.463 . S
C315 C320 1.350 . S
C315 N323 1.427 . S
C316 H307 0.930 . S
C316 C314 1.378 1_556 S
C316 C317 1.367 . S
C317 C316 1.367 . S
C317 C319 1.433 1_556 S
C318 C314 1.350 . S
C318 C315 1.463 . S
C318 N322 1.427 . S
C319 H309 0.929 . S
C319 C317 1.433 1_554 S
C319 N322 1.384 . S
C320 H311 0.929 . S
C320 C312 1.378 . S
C320 C315 1.350 . S
C321 H308 0.929 . S
C321 C313 1.433 . S
C321 N323 1.384 . S
N322 C318 1.427 . S
N322 C319 1.384 . S
N323 C315 1.427 . S
N323 C321 1.384 . S
H324 C330 0.930 . S
H325 C334 0.930 1_556 S
H326 C339 0.929 . S
H327 C337 0.929 1_556 S
H328 C332 0.929 . S
H329 C338 0.929 . S
C330 H324 0.930 . S
C330 C331 1.367 . S
C330 C338 1.378 . S
C331 C330 1.367 . S
C331 C339 1.433 . S
C332 H328 0.929 . S
C332 C334 1.378 . S
C332 C336 1.350 . S
C333 C336 1.463 . S
C333 C338 1.350 . S
C333 N341 1.427 . S
C334 H325 0.930 1_554 S
C334 C332 1.378 . S
C334 C335 1.367 1_554 S
C335 C334 1.367 1_556 S
C335 C337 1.433 1_556 S
C336 C332 1.350 . S
C336 C333 1.463 . S
C336 N340 1.427 . S
C337 H327 0.929 1_554 S
C337 C335 1.433 1_554 S
C337 N340 1.384 . S
C338 H329 0.929 . S
C338 C330 1.378 . S
C338 C333 1.350 . S
C339 H326 0.929 . S
C339 C331 1.433 . S
C339 N341 1.384 . S
N340 C336 1.427 . S
N340 C337 1.384 . S
N341 C333 1.427 . S
N341 C339 1.384 . S
H342 C348 0.930 . S
H343 C352 0.930 1_556 S
H344 C357 0.929 . S
H345 C355 0.929 . S
H346 C350 0.929 1_556 S
H347 C356 0.929 . S
C348 H342 0.930 . S
C348 C349 1.367 . S
C348 C356 1.378 . S
C349 C348 1.367 . S
C349 C357 1.433 . S
C350 H346 0.929 1_554 S
C350 C352 1.378 . S
C350 C354 1.350 . S
C351 C354 1.463 . S
C351 C356 1.350 . S
C351 N359 1.427 . S
C352 H343 0.930 1_554 S
C352 C350 1.378 . S
C352 C353 1.367 . S
C353 C352 1.367 . S
C353 C355 1.433 . S
C354 C350 1.350 . S
C354 C351 1.463 . S
C354 N358 1.427 . S
C355 H345 0.929 . S
C355 C353 1.433 . S
C355 N358 1.384 . S
C356 H347 0.929 . S
C356 C348 1.378 . S
C356 C351 1.350 . S
C357 H344 0.929 . S
C357 C349 1.433 . S
C357 N359 1.384 . S
N358 C354 1.427 . S
N358 C355 1.384 . S
N359 C351 1.427 . S
N359 C357 1.384 . S
H360 C366 0.930 . S
H361 C370 0.930 . S
H362 C375 0.929 . S
H363 C373 0.929 . S
H364 C368 0.929 . S
H365 C374 0.929 . S
C366 H360 0.930 . S
C366 C367 1.367 . S
C366 C374 1.378 . S
C367 C366 1.367 . S
C367 C375 1.433 . S
C368 H364 0.929 . S
C368 C370 1.378 . S
C368 C372 1.350 . S
C369 C372 1.463 . S
C369 C374 1.350 . S
C369 N377 1.427 . S
C370 H361 0.930 . S
C370 C368 1.378 . S
C370 C371 1.367 . S
C371 C370 1.367 . S
C371 C373 1.433 . S
C372 C368 1.350 . S
C372 C369 1.463 . S
C372 N376 1.427 . S
C373 H363 0.929 . S
C373 C371 1.433 . S
C373 N376 1.384 . S
C374 H365 0.929 . S
C374 C366 1.378 . S
C374 C369 1.350 . S
C375 H362 0.929 . S
C375 C367 1.433 . S
C375 N377 1.384 . S
N376 C372 1.427 . S
N376 C373 1.384 . S
N377 C369 1.427 . S
N377 C375 1.384 . S
H378 C384 0.930 . S
H379 C388 0.930 . S
H380 C393 0.929 . S
H381 C391 0.929 . S
H382 C386 0.929 . S
H383 C392 0.929 . S
C384 H378 0.930 . S
C384 C385 1.367 . S
C384 C392 1.378 . S
C385 C384 1.367 . S
C385 C393 1.433 . S
C386 H382 0.929 . S
C386 C388 1.378 . S
C386 C390 1.350 . S
C387 C390 1.463 . S
C387 C392 1.350 . S
C387 N395 1.427 . S
C388 H379 0.930 . S
C388 C386 1.378 . S
C388 C389 1.367 . S
C389 C388 1.367 . S
C389 C391 1.433 . S
C390 C386 1.350 . S
C390 C387 1.463 . S
C390 N394 1.427 . S
C391 H381 0.929 . S
C391 C389 1.433 . S
C391 N394 1.384 . S
C392 H383 0.929 . S
C392 C384 1.378 . S
C392 C387 1.350 . S
C393 H380 0.929 . S
C393 C385 1.433 . S
C393 N395 1.384 . S
N394 C390 1.427 . S
N394 C391 1.384 . S
N395 C387 1.427 . S
N395 C393 1.384 . S
H396 C402 0.930 . S
H397 C406 0.930 . S
H398 C411 0.929 . S
H399 C409 0.929 . S
H400 C404 0.929 . S
H401 C410 0.929 . S
C402 H396 0.930 . S
C402 C403 1.367 . S
C402 C410 1.378 . S
C403 C402 1.367 . S
C403 C411 1.433 . S
C404 H400 0.929 . S
C404 C406 1.378 . S
C404 C408 1.350 . S
C405 C408 1.463 1_554 S
C405 C410 1.350 . S
C405 N413 1.427 . S
C406 H397 0.930 . S
C406 C404 1.378 . S
C406 C407 1.367 . S
C407 C406 1.367 . S
C407 C409 1.433 . S
C408 C404 1.350 . S
C408 C405 1.463 1_556 S
C408 N412 1.427 . S
C409 H399 0.929 . S
C409 C407 1.433 . S
C409 N412 1.384 . S
C410 H401 0.929 . S
C410 C402 1.378 . S
C410 C405 1.350 . S
C411 H398 0.929 . S
C411 C403 1.433 . S
C411 N413 1.384 . S
N412 C408 1.427 . S
N412 C409 1.384 . S
N413 C405 1.427 . S
N413 C411 1.384 . S
H414 C420 0.930 . S
H415 C424 0.930 . S
H416 C429 0.929 . S
H417 C427 0.929 1_455 S
H418 C422 0.929 . S
H419 C428 0.929 . S
C420 H414 0.930 . S
C420 C421 1.367 . S
C420 C428 1.378 . S
C421 C420 1.367 . S
C421 C429 1.433 . S
C422 H418 0.929 . S
C422 C424 1.378 . S
C422 C426 1.350 . S
C423 C426 1.463 . S
C423 C428 1.350 . S
C423 N431 1.427 . S
C424 H415 0.930 . S
C424 C422 1.378 . S
C424 C425 1.367 . S
C425 C424 1.367 . S
C425 C427 1.433 1_556 S
C426 C422 1.350 . S
C426 C423 1.463 . S
C426 N430 1.427 . S
C427 H417 0.929 1_655 S
C427 C425 1.433 1_554 S
C427 N430 1.384 1_554 S
C428 H419 0.929 . S
C428 C420 1.378 . S
C428 C423 1.350 . S
C429 H416 0.929 . S
C429 C421 1.433 . S
C429 N431 1.384 . S
N430 C426 1.427 . S
N430 C427 1.384 1_556 S
N431 C423 1.427 . S
N431 C429 1.384 . S
H432 C438 0.930 . S
H433 C442 0.930 . S
H434 C447 0.929 . S
H435 C445 0.929 . S
H436 C440 0.929 . S
H437 C446 0.929 . S
C438 H432 0.930 . S
C438 C439 1.367 . S
C438 C446 1.378 . S
C439 C438 1.367 . S
C439 C447 1.433 . S
C440 H436 0.929 . S
C440 C442 1.378 1_556 S
C440 C444 1.350 . S
C441 C444 1.463 . S
C441 C446 1.350 . S
C441 N449 1.427 . S
C442 H433 0.930 . S
C442 C440 1.378 1_554 S
C442 C443 1.367 . S
C443 C442 1.367 . S
C443 C445 1.433 . S
C444 C440 1.350 . S
C444 C441 1.463 . S
C444 N448 1.427 . S
C445 H435 0.929 . S
C445 C443 1.433 . S
C445 N448 1.384 1_554 S
C446 H437 0.929 . S
C446 C438 1.378 . S
C446 C441 1.350 . S
C447 H434 0.929 . S
C447 C439 1.433 . S
C447 N449 1.384 . S
N448 C444 1.427 . S
N448 C445 1.384 1_556 S
N449 C441 1.427 . S
N449 C447 1.384 . S
H450 C456 0.930 . S
H451 C460 0.930 1_455 S
H452 C465 0.929 . S
H453 C463 0.929 1_554 S
H454 C458 0.929 . S
H455 C464 0.929 . S
C456 H450 0.930 . S
C456 C457 1.367 . S
C456 C464 1.378 . S
C457 C456 1.367 . S
C457 C465 1.433 . S
C458 H454 0.929 . S
C458 C460 1.378 . S
C458 C462 1.350 . S
C459 C462 1.463 . S
C459 C464 1.350 . S
C459 N467 1.427 . S
C460 H451 0.930 1_655 S
C460 C458 1.378 . S
C460 C461 1.367 . S
C461 C460 1.367 . S
C461 C463 1.433 . S
C462 C458 1.350 . S
C462 C459 1.463 . S
C462 N466 1.427 . S
C463 H453 0.929 1_556 S
C463 C461 1.433 . S
C463 N466 1.384 . S
C464 H455 0.929 . S
C464 C456 1.378 . S
C464 C459 1.350 . S
C465 H452 0.929 . S
C465 C457 1.433 . S
C465 N467 1.384 . S
N466 C462 1.427 . S
N466 C463 1.384 . S
N467 C459 1.427 . S
N467 C465 1.384 . S
H468 C474 0.930 . S
H469 C478 0.930 . S
H470 C483 0.929 . S
H471 C481 0.929 . S
H472 C476 0.929 . S
H473 C482 0.929 . S
C474 H468 0.930 . S
C474 C475 1.367 1_556 S
C474 C482 1.378 . S
C475 C474 1.367 1_554 S
C475 C483 1.433 . S
C476 H472 0.929 . S
C476 C478 1.378 . S
C476 C480 1.350 . S
C477 C480 1.463 . S
C477 C482 1.350 . S
C477 N485 1.427 . S
C478 H469 0.930 . S
C478 C476 1.378 . S
C478 C479 1.367 . S
C479 C478 1.367 . S
C479 C481 1.433 . S
C480 C476 1.350 . S
C480 C477 1.463 . S
C480 N484 1.427 . S
C481 H471 0.929 . S
C481 C479 1.433 . S
C481 N484 1.384 . S
C482 H473 0.929 . S
C482 C474 1.378 . S
C482 C477 1.350 . S
C483 H470 0.929 . S
C483 C475 1.433 . S
C483 N485 1.384 1_554 S
N484 C480 1.427 . S
N484 C481 1.384 . S
N485 C477 1.427 . S
N485 C483 1.384 1_556 S
H486 C492 0.930 . S
H487 C496 0.930 . S
H488 C501 0.929 . S
H489 C499 0.929 . S
H490 C494 0.931 . S
H491 C500 0.929 . S
C492 H486 0.930 . S
C492 C493 1.367 . S
C492 C500 1.378 . S
C493 C492 1.367 . S
C493 C501 1.433 . S
C494 H490 0.931 . S
C494 C496 1.378 . S
C494 C498 1.350 1_554 S
C495 C498 1.463 . S
C495 C500 1.350 . S
C495 N503 1.427 . S
C496 H487 0.930 . S
C496 C494 1.378 . S
C496 C497 1.367 . S
C497 C496 1.367 . S
C497 C499 1.433 . S
C498 C494 1.350 1_556 S
C498 C495 1.463 . S
C498 N502 1.427 1_556 S
C499 H489 0.929 . S
C499 C497 1.433 . S
C499 N502 1.384 . S
C500 H491 0.929 . S
C500 C492 1.378 . S
C500 C495 1.350 . S
C501 H488 0.929 . S
C501 C493 1.433 . S
C501 N503 1.384 . S
N502 C498 1.427 1_554 S
N502 C499 1.384 . S
N503 C495 1.427 . S
N503 C501 1.384 . S
H504 C510 0.930 . S
H505 C514 0.930 . S
H506 C519 0.929 . S
H507 C517 0.929 . S
H508 C512 0.929 . S
H509 C518 0.929 . S
C510 H504 0.930 . S
C510 C511 1.367 1_565 S
C510 C518 1.378 . S
C511 C510 1.367 1_545 S
C511 C519 1.433 . S
C512 H508 0.929 . S
C512 C514 1.378 . S
C512 C516 1.350 . S
C513 C516 1.463 . S
C513 C518 1.350 . S
C513 N521 1.427 . S
C514 H505 0.930 . S
C514 C512 1.378 . S
C514 C515 1.367 . S
C515 C514 1.367 . S
C515 C517 1.433 . S
C516 C512 1.350 . S
C516 C513 1.463 . S
C516 N520 1.427 . S
C517 H507 0.929 . S
C517 C515 1.433 . S
C517 N520 1.384 . S
C518 H509 0.929 . S
C518 C510 1.378 . S
C518 C513 1.350 . S
C519 H506 0.929 . S
C519 C511 1.433 . S
C519 N521 1.384 1_545 S
N520 C516 1.427 . S
N520 C517 1.384 . S
N521 C513 1.427 . S
N521 C519 1.384 1_565 S
H522 C528 0.930 . S
H523 C532 0.930 1_556 S
H524 C537 0.929 . S
H525 C535 0.929 . S
H526 C530 0.929 . S
H527 C536 0.929 . S
C528 H522 0.930 . S
C528 C529 1.367 . S
C528 C536 1.378 . S
C529 C528 1.367 . S
C529 C537 1.433 . S
C530 H526 0.929 . S
C530 C532 1.378 . S
C530 C534 1.350 . S
C531 C534 1.463 . S
C531 C536 1.350 . S
C531 N539 1.427 . S
C532 H523 0.930 1_554 S
C532 C530 1.378 . S
C532 C533 1.367 . S
C533 C532 1.367 . S
C533 C535 1.433 . S
C534 C530 1.350 . S
C534 C531 1.463 . S
C534 N538 1.427 . S
C535 H525 0.929 . S
C535 C533 1.433 . S
C535 N538 1.384 . S
C536 H527 0.929 . S
C536 C528 1.378 . S
C536 C531 1.350 . S
C537 H524 0.929 . S
C537 C529 1.433 . S
C537 N539 1.384 . S
N538 C534 1.427 . S
N538 C535 1.384 . S
N539 C531 1.427 . S
N539 C537 1.384 . S
H540 C546 0.930 1_556 S
H541 C550 0.930 . S
H542 C555 0.929 . S
H543 C553 0.929 . S
H544 C548 0.929 . S
H545 C554 0.919 1_556 S
C546 H540 0.930 1_554 S
C546 C547 1.367 . S
C546 C554 1.378 . S
C547 C546 1.367 . S
C547 C555 1.433 . S
C548 H544 0.929 . S
C548 C550 1.378 . S
C548 C552 1.350 . S
C549 C552 1.463 . S
C549 C554 1.350 . S
C549 N557 1.427 . S
C550 H541 0.930 . S
C550 C548 1.378 . S
C550 C551 1.367 . S
C551 C550 1.367 . S
C551 C553 1.433 . S
C552 C548 1.350 . S
C552 C549 1.463 . S
C552 N556 1.427 . S
C553 H543 0.929 . S
C553 C551 1.433 . S
C553 N556 1.384 . S
C554 H545 0.919 1_554 S
C554 C546 1.378 . S
C554 C549 1.350 . S
C555 H542 0.929 . S
C555 C547 1.433 . S
C555 N557 1.384 . S
N556 C552 1.427 . S
N556 C553 1.384 . S
N557 C549 1.427 . S
N557 C555 1.384 . S
H558 C564 0.930 . S
H559 C568 0.930 . S
H560 C573 0.929 . S
H561 C571 0.929 . S
H562 C566 0.929 . S
H563 C572 0.929 . S
C564 H558 0.930 . S
C564 C565 1.367 . S
C564 C572 1.378 . S
C565 C564 1.367 . S
C565 C573 1.433 . S
C566 H562 0.929 . S
C566 C568 1.378 . S
C566 C570 1.350 . S
C567 C570 1.463 . S
C567 C572 1.350 . S
C567 N575 1.427 . S
C568 H559 0.930 . S
C568 C566 1.378 . S
C568 C569 1.367 . S
C569 C568 1.367 . S
C569 C571 1.433 . S
C570 C566 1.350 . S
C570 C567 1.463 . S
C570 N574 1.427 . S
C571 H561 0.929 . S
C571 C569 1.433 . S
C571 N574 1.384 . S
C572 H563 0.929 . S
C572 C564 1.378 . S
C572 C567 1.350 . S
C573 H560 0.929 . S
C573 C565 1.433 . S
C573 N575 1.384 . S
N574 C570 1.427 . S
N574 C571 1.384 . S
N575 C567 1.427 . S
N575 C573 1.384 . S
H576 C582 0.930 . S
H577 C586 0.930 . S
H578 C591 0.929 . S
H579 C589 0.929 . S
H580 C584 0.929 . S
H581 C590 0.929 . S
C582 H576 0.930 . S
C582 C583 1.367 . S
C582 C590 1.378 . S
C583 C582 1.367 . S
C583 C591 1.433 . S
C584 H580 0.929 . S
C584 C586 1.378 . S
C584 C588 1.350 1_565 S
C585 C588 1.463 . S
C585 C590 1.350 . S
C585 N593 1.427 . S
C586 H577 0.930 . S
C586 C584 1.378 . S
C586 C587 1.367 . S
C587 C586 1.367 . S
C587 C589 1.433 . S
C588 C584 1.350 1_545 S
C588 C585 1.463 . S
C588 N592 1.427 . S
C589 H579 0.929 . S
C589 C587 1.433 . S
C589 N592 1.384 1_565 S
C590 H581 0.929 . S
C590 C582 1.378 . S
C590 C585 1.350 . S
C591 H578 0.929 . S
C591 C583 1.433 . S
C591 N593 1.384 . S
N592 C588 1.427 . S
N592 C589 1.384 1_545 S
N593 C585 1.427 . S
N593 C591 1.384 . S
H594 C600 0.930 . S
H595 C604 0.930 . S
H596 C609 0.929 . S
H597 C607 0.929 . S
H598 C602 0.929 . S
H599 C608 0.929 . S
C600 H594 0.930 . S
C600 C601 1.367 . S
C600 C608 1.378 1_655 S
C601 C600 1.367 . S
C601 C609 1.433 1_655 S
C602 H598 0.929 . S
C602 C604 1.378 . S
C602 C606 1.350 . S
C603 C606 1.463 . S
C603 C608 1.350 . S
C603 N611 1.427 . S
C604 H595 0.930 . S
C604 C602 1.378 . S
C604 C605 1.367 . S
C605 C604 1.367 . S
C605 C607 1.433 . S
C606 C602 1.350 . S
C606 C603 1.463 . S
C606 N610 1.427 . S
C607 H597 0.929 . S
C607 C605 1.433 . S
C607 N610 1.384 . S
C608 H599 0.929 . S
C608 C600 1.378 1_455 S
C608 C603 1.350 . S
C609 H596 0.929 . S
C609 C601 1.433 1_455 S
C609 N611 1.384 . S
N610 C606 1.427 . S
N610 C607 1.384 . S
N611 C603 1.427 . S
N611 C609 1.384 . S
H612 C618 0.930 . S
H613 C622 0.930 . S
H614 C627 0.929 . S
H615 C625 0.929 . S
H616 C620 0.929 . S
H617 C626 0.929 . S
C618 H612 0.930 . S
C618 C619 1.367 . S
C618 C626 1.378 . S
C619 C618 1.367 . S
C619 C627 1.433 . S
C620 H616 0.929 . S
C620 C622 1.378 . S
C620 C624 1.350 . S
C621 C624 1.463 . S
C621 C626 1.350 . S
C621 N629 1.427 . S
C622 H613 0.930 . S
C622 C620 1.378 . S
C622 C623 1.367 . S
C623 C622 1.367 . S
C623 C625 1.433 . S
C624 C620 1.350 . S
C624 C621 1.463 . S
C624 N628 1.427 . S
C625 H615 0.929 . S
C625 C623 1.433 . S
C625 N628 1.384 . S
C626 H617 0.929 . S
C626 C618 1.378 . S
C626 C621 1.350 . S
C627 H614 0.929 . S
C627 C619 1.433 . S
C627 N629 1.384 . S
N628 C624 1.427 . S
N628 C625 1.384 . S
N629 C621 1.427 . S
N629 C627 1.384 . S
H630 C636 0.930 . S
H631 C640 0.930 . S
H632 C645 0.929 . S
H633 C643 0.929 . S
H634 C638 0.929 . S
H635 C644 0.929 . S
C636 H630 0.930 . S
C636 C637 1.367 . S
C636 C644 1.378 . S
C637 C636 1.367 . S
C637 C645 1.433 . S
C638 H634 0.929 . S
C638 C640 1.378 . S
C638 C642 1.350 . S
C639 C642 1.463 . S
C639 C644 1.350 1_545 S
C639 N647 1.427 . S
C640 H631 0.930 . S
C640 C638 1.378 . S
C640 C641 1.367 . S
C641 C640 1.367 . S
C641 C643 1.433 . S
C642 C638 1.350 . S
C642 C639 1.463 . S
C642 N646 1.427 . S
C643 H633 0.929 . S
C643 C641 1.433 . S
C643 N646 1.384 . S
C644 H635 0.929 . S
C644 C636 1.378 . S
C644 C639 1.350 1_565 S
C645 H632 0.929 . S
C645 C637 1.433 . S
C645 N647 1.384 1_565 S
N646 C642 1.427 . S
N646 C643 1.384 . S
N647 C639 1.427 . S
N647 C645 1.384 1_545 S
H648 C654 0.930 . S
H649 C658 0.930 . S
H650 C663 0.929 . S
H651 C661 0.929 . S
H652 C656 0.929 . S
H653 C662 0.929 . S
C654 H648 0.930 . S
C654 C655 1.367 . S
C654 C662 1.378 1_655 S
C655 C654 1.367 . S
C655 C663 1.433 1_655 S
C656 H652 0.929 . S
C656 C658 1.378 . S
C656 C660 1.350 . S
C657 C660 1.463 . S
C657 C662 1.350 . S
C657 N665 1.427 . S
C658 H649 0.930 . S
C658 C656 1.378 . S
C658 C659 1.367 . S
C659 C658 1.367 . S
C659 C661 1.433 . S
C660 C656 1.350 . S
C660 C657 1.463 . S
C660 N664 1.427 . S
C661 H651 0.929 . S
C661 C659 1.433 . S
C661 N664 1.384 . S
C662 H653 0.929 . S
C662 C654 1.378 1_455 S
C662 C657 1.350 . S
C663 H650 0.929 . S
C663 C655 1.433 1_455 S
C663 N665 1.384 . S
N664 C660 1.427 . S
N664 C661 1.384 . S
N665 C657 1.427 . S
N665 C663 1.384 . S
C187 C8 1.656 . S
C191 C9 1.656 . S
C205 C28 1.685 . S
C209 C29 1.685 . S
C223 C48 1.717 1_556 S
C227 C49 1.717 . S
C241 C69 1.651 . S
C245 C68 1.651 . S
C259 C89 1.686 . S
C263 C88 1.686 1_556 S
C277 C109 1.716 . S
C281 C108 1.716 1_556 S
C295 C122 0.429 . S
C299 C121 0.429 . S
C313 C141 0.426 . S
C317 C142 0.426 . S
C331 C162 0.427 . S
C335 C161 0.427 . S
C349 C118 1.802 . S
C353 C2 1.801 . S
C367 C22 1.785 . S
C371 C78 1.796 . S
C385 C42 1.852 . S
C389 C98 1.878 . S
C403 C58 1.641 . S
C407 C139 1.753 . S
C421 C149 1.289 . S
C425 C18 1.236 . S
C439 C179 1.695 . S
C443 C38 1.598 . S
C457 C168 1.290 . S
C461 C1 1.282 . S
C475 C21 1.318 . S
C479 C128 1.328 . S
C493 C158 1.776 . S
C497 C41 1.723 . S
C511 C59 1.795 . S
C515 C61 1.801 . S
C529 C81 1.793 . S
C533 C19 1.798 . S
C547 C39 1.878 . S
C551 C101 1.855 . S
C565 C169 1.294 . S
C569 C62 1.286 . S
C583 C129 1.329 . S
C587 C82 1.316 . S
C601 C159 1.780 . S
C605 C102 1.723 . S
C619 C138 1.747 . S
C623 C119 1.637 . S
C637 C79 1.236 . S
C641 C148 1.289 . S
C655 C178 1.699 . S
C659 C99 1.588 . S
