# Generated by pormake.
# Topology ung, (4)-cn, num edge types: 1
# Building blocks:
#     Node 0, Type 0, BuildingBlock: MUDLON_clean_sbu_0, # of connection points: 4
#     Node 1, Type 0, BuildingBlock: MUDLON_clean_sbu_0, # of connection points: 4
#     Node 2, Type 0, BuildingBlock: MUDLON_clean_sbu_0, # of connection points: 4
#     Node 3, Type 0, BuildingBlock: MUDLON_clean_sbu_0, # of connection points: 4
#     Node 4, Type 0, BuildingBlock: MUDLON_clean_sbu_0, # of connection points: 4
#     Node 5, Type 0, BuildingBlock: MUDLON_clean_sbu_0, # of connection points: 4
#     Node 6, Type 0, BuildingBlock: MUDLON_clean_sbu_0, # of connection points: 4
#     Node 7, Type 0, BuildingBlock: MUDLON_clean_sbu_0, # of connection points: 4
#     Node 8, Type 0, BuildingBlock: MUDLON_clean_sbu_0, # of connection points: 4
#     Node 9, Type 0, BuildingBlock: MUDLON_clean_sbu_0, # of connection points: 4
#     Node 10, Type 0, BuildingBlock: MUDLON_clean_sbu_0, # of connection points: 4
#     Node 11, Type 0, BuildingBlock: MUDLON_clean_sbu_0, # of connection points: 4
#     Node 12, Type 0, BuildingBlock: MUDLON_clean_sbu_0, # of connection points: 4
#     Node 13, Type 0, BuildingBlock: MUDLON_clean_sbu_0, # of connection points: 4
#     Node 14, Type 0, BuildingBlock: MUDLON_clean_sbu_0, # of connection points: 4
#     Node 15, Type 0, BuildingBlock: MUDLON_clean_sbu_0, # of connection points: 4
#     Node 16, Type 0, BuildingBlock: MUDLON_clean_sbu_0, # of connection points: 4
#     Node 17, Type 0, BuildingBlock: MUDLON_clean_sbu_0, # of connection points: 4
#     Edge 18, Type (0, 0), BuildingBlock: EZIPEK_clean_linker_0, # of connection points: 2
#     Edge 19, Type (0, 0), BuildingBlock: EZIPEK_clean_linker_0, # of connection points: 2
#     Edge 20, Type (0, 0), BuildingBlock: EZIPEK_clean_linker_0, # of connection points: 2
#     Edge 21, Type (0, 0), BuildingBlock: EZIPEK_clean_linker_0, # of connection points: 2
#     Edge 22, Type (0, 0), BuildingBlock: EZIPEK_clean_linker_0, # of connection points: 2
#     Edge 23, Type (0, 0), BuildingBlock: EZIPEK_clean_linker_0, # of connection points: 2
#     Edge 24, Type (0, 0), BuildingBlock: EZIPEK_clean_linker_0, # of connection points: 2
#     Edge 25, Type (0, 0), BuildingBlock: EZIPEK_clean_linker_0, # of connection points: 2
#     Edge 26, Type (0, 0), BuildingBlock: EZIPEK_clean_linker_0, # of connection points: 2
#     Edge 27, Type (0, 0), BuildingBlock: EZIPEK_clean_linker_0, # of connection points: 2
#     Edge 28, Type (0, 0), BuildingBlock: EZIPEK_clean_linker_0, # of connection points: 2
#     Edge 29, Type (0, 0), BuildingBlock: EZIPEK_clean_linker_0, # of connection points: 2
#     Edge 30, Type (0, 0), BuildingBlock: EZIPEK_clean_linker_0, # of connection points: 2
#     Edge 31, Type (0, 0), BuildingBlock: EZIPEK_clean_linker_0, # of connection points: 2
#     Edge 32, Type (0, 0), BuildingBlock: EZIPEK_clean_linker_0, # of connection points: 2
#     Edge 33, Type (0, 0), BuildingBlock: EZIPEK_clean_linker_0, # of connection points: 2
#     Edge 34, Type (0, 0), BuildingBlock: EZIPEK_clean_linker_0, # of connection points: 2
#     Edge 35, Type (0, 0), BuildingBlock: EZIPEK_clean_linker_0, # of connection points: 2
#     Edge 36, Type (0, 0), BuildingBlock: EZIPEK_clean_linker_0, # of connection points: 2
#     Edge 37, Type (0, 0), BuildingBlock: EZIPEK_clean_linker_0, # of connection points: 2
#     Edge 38, Type (0, 0), BuildingBlock: EZIPEK_clean_linker_0, # of connection points: 2
#     Edge 39, Type (0, 0), BuildingBlock: EZIPEK_clean_linker_0, # of connection points: 2
#     Edge 40, Type (0, 0), BuildingBlock: EZIPEK_clean_linker_0, # of connection points: 2
#     Edge 41, Type (0, 0), BuildingBlock: EZIPEK_clean_linker_0, # of connection points: 2
#     Edge 42, Type (0, 0), BuildingBlock: EZIPEK_clean_linker_0, # of connection points: 2
#     Edge 43, Type (0, 0), BuildingBlock: EZIPEK_clean_linker_0, # of connection points: 2
#     Edge 44, Type (0, 0), BuildingBlock: EZIPEK_clean_linker_0, # of connection points: 2
#     Edge 45, Type (0, 0), BuildingBlock: EZIPEK_clean_linker_0, # of connection points: 2
#     Edge 46, Type (0, 0), BuildingBlock: EZIPEK_clean_linker_0, # of connection points: 2
#     Edge 47, Type (0, 0), BuildingBlock: EZIPEK_clean_linker_0, # of connection points: 2
#     Edge 48, Type (0, 0), BuildingBlock: EZIPEK_clean_linker_0, # of connection points: 2
#     Edge 49, Type (0, 0), BuildingBlock: EZIPEK_clean_linker_0, # of connection points: 2
#     Edge 50, Type (0, 0), BuildingBlock: EZIPEK_clean_linker_0, # of connection points: 2
#     Edge 51, Type (0, 0), BuildingBlock: EZIPEK_clean_linker_0, # of connection points: 2
#     Edge 52, Type (0, 0), BuildingBlock: EZIPEK_clean_linker_0, # of connection points: 2
#     Edge 53, Type (0, 0), BuildingBlock: EZIPEK_clean_linker_0, # of connection points: 2
# Relax obj value: 0.034
# Max RMSD: 0.247
# Mean RMSD: 0.245
data_MOF--net-ung--node1-MUDLON_clean_sbu_0--edge1-EZIPEK_clean_linker_0
_symmetry_space_group_name_H-M    P1
_symmetry_Int_Tables_number       1
_symmetry_cell_setting            triclinic
loop_
_symmetry_equiv_pos_as_xyz
'x, y, z'
_cell_length_a     57.104101
_cell_length_b     57.96109
_cell_length_c     17.397877
_cell_angle_alpha  89.442389
_cell_angle_beta   90.854079
_cell_angle_gamma 121.1474
loop_
_atom_site_label
_atom_site_type_symbol
_atom_site_fract_x
_atom_site_fract_y
_atom_site_fract_z
_atom_type_partial_charge
Mg0 Mg 0.04065 0.64026 0.26925 0.0
C1 C 0.04286 0.61698 0.42234 0.0
O2 O 0.06272 0.64212 0.43083 0.0
C3 C 0.01815 0.66237 0.1571 0.0
O4 O 0.04256 0.66986 0.13099 0.0
C5 C 0.03526 0.60872 0.12936 0.0
O6 O 1.01128 0.60661 0.13231 0.0
O7 O 0.05342 0.62318 0.17937 0.0
O8 O 0.02813 0.61031 0.36144 0.0
O9 O 0.07212 0.67882 0.31847 0.0
C10 C 0.06278 0.69164 0.35287 0.0
O11 O 0.03626 0.68182 0.35156 0.0
O12 O 1.01007 0.64815 0.21817 0.0
Mg13 Mg 0.47906 0.50112 0.26985 0.0
C14 C 0.41797 0.48383 0.30443 0.0
O15 O 0.41517 0.4885 0.23188 0.0
C16 C 0.51602 0.54039 0.1566 0.0
O17 O 0.53234 0.53633 0.20107 0.0
C18 C 0.45901 0.4548 0.16715 0.0
O19 O 0.44691 0.46751 0.14176 0.0
O20 O 0.47567 0.46469 0.22371 0.0
O21 O 0.44093 0.48828 0.3298 0.0
O22 O 0.51001 0.5218 0.35849 0.0
C23 C 0.50856 0.54057 0.39113 0.0
O24 O 0.48975 0.54581 0.36839 0.0
O25 O 0.49068 0.52864 0.1725 0.0
Mg26 Mg 0.60841 0.07184 0.26287 0.0
C27 C 0.56121 0.06587 0.16479 0.0
O28 O 0.55412 0.07096 0.23104 0.0
C29 C 0.6257 0.04191 0.36592 0.0
O30 O 0.63029 0.06224 0.40946 0.0
C31 C 0.57159 0.0593 0.39542 0.0
O32 O 0.56543 0.03529 0.37214 0.0
O33 O 0.58993 0.07998 0.35983 0.0
O34 O 0.58211 0.06346 0.16186 0.0
O35 O 0.64829 0.10457 0.22587 0.0
C36 C 0.6581 0.09737 0.17224 0.0
O37 O 0.64369 0.07253 0.14653 0.0
O38 O 0.61553 0.03971 0.29879 0.0
Mg39 Mg 0.04431 0.50883 0.77244 0.0
C40 C 0.03482 0.54405 0.66598 0.0
O41 O 0.01537 0.53704 0.71653 0.0
C42 C 0.07215 0.48862 0.86733 0.0
O43 O 0.04842 0.47979 0.9002 0.0
C44 C 0.04829 0.55092 0.87885 0.0
O45 O 0.06406 0.56574 0.82235 0.0
O46 O 0.03607 0.52535 0.87355 0.0
O47 O 0.05137 0.53567 0.67511 0.0
O48 O 1.01271 0.46834 0.73628 0.0
C49 C 1.00884 0.46395 0.6643 0.0
O50 O 0.02137 0.48426 0.61629 0.0
O51 O 0.07806 0.50364 0.80808 0.0
Mg52 Mg 0.60819 0.64025 0.77105 0.0
C53 C 0.57841 0.60181 0.64692 0.0
O54 O 0.59316 0.59271 0.67827 0.0
C55 C 0.63228 0.68838 0.86773 0.0
O56 O 0.64135 0.67365 0.8986 0.0
C57 C 0.56655 0.60665 0.88734 0.0
O58 O 0.55372 0.616 0.84641 0.0
O59 O 0.59062 0.61292 0.86848 0.0
O60 O 0.57984 0.62273 0.67473 0.0
O61 O 0.64733 0.64733 0.73029 0.0
C62 C 0.65688 0.66376 0.67406 0.0
O63 O 0.64244 0.67369 0.6458 0.0
O64 O 0.61613 0.67923 0.80994 0.0
Mg65 Mg 0.47342 0.07024 0.75595 0.0
C66 C 0.4973 0.05967 0.89454 0.0
O67 O 0.47694 0.03552 0.87629 0.0
C68 C 0.45598 0.09882 0.65015 0.0
O69 O 0.45394 0.07921 0.60778 0.0
C70 C 0.51345 0.06255 0.6623 0.0
O71 O 0.52487 0.06532 0.73032 0.0
O72 O 0.49097 0.06209 0.65668 0.0
O73 O 0.50137 0.07976 0.85363 0.0
O74 O 0.43412 0.03728 0.79651 0.0
C75 C 0.42457 0.0446 0.8505 0.0
O76 O 0.43874 0.06975 0.87394 0.0
O77 O 0.46507 0.10148 0.71882 0.0
Mg78 Mg 0.71155 0.97501 0.59775 0.0
C79 C 0.71603 0.94024 0.71504 0.0
O80 O 0.73848 0.94911 0.67524 0.0
C81 C 0.66936 0.97884 0.49239 0.0
O82 O 0.66956 0.95981 0.45279 0.0
C83 C 0.70436 0.93416 0.48177 0.0
O84 O 0.68101 0.9211 0.51826 0.0
O85 O 0.72236 0.95781 0.50359 0.0
O86 O 0.69896 0.94715 0.6949 0.0
O87 O 0.74539 0.01252 0.6433 0.0
C88 C 0.73765 0.02287 0.69368 0.0
O89 O 0.71177 0.00989 0.7133 0.0
O90 O 0.68285 0.9869 0.5553 0.0
Mg91 Mg 0.14214 0.84212 0.6031 0.0
C92 C 0.09367 0.84576 0.67477 0.0
O93 O 0.10861 0.87201 0.66562 0.0
C94 C 0.15843 0.86507 0.44106 0.0
O95 O 0.14472 0.8395 0.42215 0.0
C96 C 0.1149 0.79017 0.52164 0.0
O97 O 0.09768 0.79868 0.51407 0.0
O98 O 0.13702 0.8044 0.55967 0.0
O99 O 0.1023 0.83078 0.65134 0.0
O100 O 0.17325 0.86199 0.69292 0.0
C101 C 0.16652 0.86325 0.76137 0.0
O102 O 0.1406 0.84968 0.78011 0.0
O103 O 0.15833 0.87183 0.51033 0.0
Mg104 Mg 0.27805 0.40443 0.60681 0.0
C105 C 0.23853 0.40046 0.72127 0.0
O106 O 0.22445 0.37769 0.68344 0.0
C107 C 0.32277 0.42605 0.4978 0.0
O108 O 0.30609 0.40102 0.47596 0.0
C109 C 0.24468 0.41219 0.49175 0.0
O110 O 0.25672 0.43505 0.52963 0.0
O111 O 0.249 0.39356 0.51222 0.0
O112 O 0.26297 0.41734 0.70126 0.0
O113 O 0.284 0.37264 0.65294 0.0
C114 C 0.29562 0.37801 0.7188 0.0
O115 O 0.30207 0.40085 0.75201 0.0
O116 O 0.3169 0.4347 0.55705 0.0
Mg117 Mg 0.71197 0.84199 0.10057 0.0
C118 C 0.71719 0.88173 0.21712 0.0
O119 O 0.73879 0.89651 0.17454 0.0
C120 C 0.68711 0.7938 1.00482 0.0
O121 O 0.71296 0.80723 0.98494 0.0
C122 C 0.70334 0.87389 0.98173 0.0
O123 O 0.67963 0.86109 1.01646 0.0
O124 O 0.72263 0.87058 1.00564 0.0
O125 O 0.70084 0.85717 0.19917 0.0
O126 O 0.74228 0.83175 0.13878 0.0
C127 C 0.75814 0.84205 0.19675 0.0
O128 O 0.75921 0.86231 0.23304 0.0
O129 O 0.67901 0.80391 0.055 0.0
Mg130 Mg 0.27563 0.97644 0.10676 0.0
C131 C 0.22955 0.94023 0.20923 0.0
O132 O 0.21729 0.94679 0.15659 0.0
C133 C 0.32281 0.99501 1.00851 0.0
O134 O 0.30855 1.00476 0.97773 0.0
C135 C 0.24045 0.93389 0.99827 0.0
O136 O 0.24834 0.92205 0.04821 0.0
O137 O 0.24853 0.9587 1.00765 0.0
O138 O 0.25519 0.94963 0.20411 0.0
O139 O 0.28689 0.01697 0.14205 0.0
C140 C 0.27096 0.02343 0.1724 0.0
O141 O 0.24466 1.00566 0.17633 0.0
O142 O 0.31375 0.98039 0.06857 0.0
Mg143 Mg 0.148 0.41082 0.10197 0.0
C144 C 0.17873 0.40291 0.22523 0.0
O145 O 0.16409 0.3788 0.1948 0.0
C146 C 0.12166 0.43405 1.00914 0.0
O147 O 0.10766 0.40834 0.99126 0.0
C148 C 0.18658 0.41716 0.98093 0.0
O149 O 0.19885 0.44112 1.01285 0.0
O150 O 0.16365 0.39872 1.00694 0.0
O151 O 0.17709 0.42234 0.19675 0.0
O152 O 0.10939 0.37979 0.15107 0.0
C153 C 0.10147 0.38857 0.2055 0.0
O154 O 0.11604 0.41424 0.22349 0.0
O155 O 0.14142 0.44233 0.05719 0.0
Mg156 Mg 0.38393 0.3066 0.90991 0.0
C157 C 0.38872 0.28093 0.05063 0.0
O158 O 0.41379 0.30098 0.03885 0.0
C159 C 0.33602 0.31787 0.88305 0.0
O160 O 0.32851 0.30995 0.9541 0.0
C161 C 0.38686 0.28574 0.75427 0.0
O162 O 0.3763 0.30028 0.73296 0.0
O163 O 0.3943 0.28648 0.82388 0.0
O164 O 0.3697 0.27817 1.00536 0.0
O165 O 0.4172 0.34476 0.95538 0.0
C166 C 0.40981 0.35374 1.01062 0.0
O167 O 0.38453 0.33931 0.03504 0.0
O168 O 0.35592 0.31694 0.85481 0.0
Mg169 Mg 0.81223 0.17478 0.93255 0.0
C170 C 0.76361 0.15113 0.02988 0.0
O171 O 0.77864 0.14217 0.06012 0.0
C172 C 0.85154 0.20467 0.80862 0.0
O173 O 0.86118 0.19033 0.83873 0.0
C174 C 0.79052 0.12692 0.83532 0.0
O175 O 0.7812 0.14116 0.80253 0.0
O176 O 0.80589 0.13632 0.89455 0.0
O177 O 0.77266 0.16685 0.972 0.0
O178 O 0.84023 0.19273 0.02915 0.0
C179 C 0.84073 0.213 0.05852 0.0
O180 O 0.82486 0.22115 0.02944 0.0
O181 O 0.83005 0.20265 0.83644 0.0
Mg182 Mg 0.94783 0.74956 0.94553 0.0
C183 C 0.9172 0.75133 0.81293 0.0
O184 O 0.9327 0.77657 0.83447 0.0
C185 C 0.96151 0.70396 0.97716 0.0
O186 O 0.9507 0.6937 0.90969 0.0
C187 C 0.92258 0.74705 0.09866 0.0
O188 O 0.93304 0.73196 0.1139 0.0
O189 O 0.92675 0.75852 0.03329 0.0
O190 O 0.91881 0.7331 0.84985 0.0
O191 O 0.98414 0.78423 0.89705 0.0
C192 C 0.99438 0.77855 0.84105 0.0
O193 O 0.98264 0.75337 0.81837 0.0
O194 O 0.96192 0.72483 1.00081 0.0
Mg195 Mg 0.37387 0.16971 0.41656 0.0
C196 C 0.37559 0.21257 0.31253 0.0
O197 O 0.36406 0.21556 0.37318 0.0
C198 C 0.40226 0.15274 0.52479 0.0
O199 O 0.38184 0.15037 0.565 0.0
C200 C 0.38601 0.21256 0.52812 0.0
O201 O 0.40797 0.22321 0.4853 0.0
O202 O 0.36652 0.18872 0.51328 0.0
O203 O 0.38327 0.19548 0.31496 0.0
O204 O 0.3404 0.13023 0.38018 0.0
C205 C 0.3255 0.12776 0.32201 0.0
O206 O 0.32729 0.14935 0.29091 0.0
O207 O 0.40555 0.16184 0.45637 0.0
Mg208 Mg 0.94514 0.31082 0.43363 0.0
C209 C 0.91394 0.27315 0.30995 0.0
O210 O 0.93286 0.26746 0.32743 0.0
C211 C 0.96498 0.35702 0.53977 0.0
O212 O 0.97374 0.34246 0.57337 0.0
C213 C 0.91011 0.27914 0.56085 0.0
O214 O 0.8989 0.29251 0.53401 0.0
O215 O 0.93166 0.28248 0.52937 0.0
O216 O 0.9132 0.29161 0.34682 0.0
O217 O 0.98215 0.32063 0.3714 0.0
C218 C 1.00637 0.33136 0.39824 0.0
O219 O 1.01072 0.33464 0.47272 0.0
O220 O 0.95133 0.34873 0.47727 0.0
Mg221 Mg 0.81211 0.7457 0.44034 0.0
C222 C 0.84359 0.73644 0.5603 0.0
O223 O 0.83062 0.71317 0.52447 0.0
C224 C 0.80197 0.78025 0.33158 0.0
O225 O 0.80492 0.76486 0.28266 0.0
C226 C 0.85646 0.75285 0.33861 0.0
O227 O 0.86978 0.77165 0.39062 0.0
O228 O 0.83067 0.73732 0.34455 0.0
O229 O 0.84 0.75538 0.53783 0.0
O230 O 0.77255 0.7124 0.47809 0.0
C231 C 0.76286 0.71821 0.53518 0.0
O232 O 0.77738 0.7423 0.56587 0.0
O233 O 0.8051 0.77782 0.40328 0.0
C234 C 0.01973 0.55428 0.98337 0.0
C235 C 0.04547 0.5643 0.9479 0.0
C236 C 0.06488 0.60445 0.0298 0.0
C237 C 0.03994 0.59302 0.07062 0.0
N238 N 0.99714 0.55241 0.10134 0.0
N239 N 0.09451 0.5948 0.9572 0.0
C240 C 0.01842 0.56647 0.05216 0.0
C241 C 0.06869 0.58814 0.97714 0.0
N242 N 0.99623 0.53422 0.94998 0.0
N243 N 0.08442 0.6311 0.03764 0.0
H244 H 0.0984 0.58238 0.92357 0.0
H245 H 0.11203 0.61086 0.98213 0.0
H246 H 0.082 0.64436 0.07182 0.0
H247 H 0.10174 0.64062 1.00329 0.0
H248 H 0.97688 0.52814 0.97114 0.0
H249 H 0.99566 0.52589 0.89672 0.0
H250 H 0.98218 0.53222 0.0927 0.0
H251 H 0.99639 0.55971 0.15523 0.0
C252 C 0.54455 0.59947 1.01657 0.0
C253 C 0.55306 0.58939 0.95556 0.0
C254 C 0.53682 0.547 0.02621 0.0
C255 C 0.52703 0.55654 0.08529 0.0
N256 N 0.51808 0.59011 0.13294 0.0
N257 N 0.55284 0.552 0.89529 0.0
C258 C 0.52967 0.58219 0.07899 0.0
C259 C 0.54806 0.56274 0.95855 0.0
N260 N 0.55199 0.62601 1.01688 0.0
N261 N 0.53557 0.5229 0.03499 0.0
H262 H 0.561 0.56281 0.84462 0.0
H263 H 0.54664 0.53173 0.89031 0.0
H264 H 0.52578 0.5098 0.0808 0.0
H265 H 0.54551 0.51648 0.99916 0.0
H266 H 0.5493 0.63546 0.06358 0.0
H267 H 0.563 0.63939 0.97272 0.0
H268 H 0.51645 0.60712 0.12707 0.0
H269 H 0.50829 0.57866 0.18153 0.0
C270 C 0.53767 0.04392 0.03941 0.0
C271 C 0.54614 0.06508 0.09333 0.0
C272 C 0.52149 0.08226 0.01869 0.0
C273 C 0.51544 0.06279 0.96089 0.0
N274 N 0.52443 0.02978 0.90765 0.0
N275 N 0.55256 0.10883 0.12123 0.0
C276 C 0.52553 0.04501 0.96864 0.0
C277 C 0.53996 0.08559 0.07921 0.0
N278 N 0.53993 0.02211 0.05682 0.0
N279 N 0.50871 0.09671 0.01844 0.0
H280 H 0.56748 0.11291 0.16303 0.0
H281 H 0.55057 0.12533 0.10824 0.0
H282 H 0.49417 0.09422 0.97716 0.0
H283 H 0.51044 0.10912 0.06384 0.0
H284 H 0.53149 1.00495 0.02243 0.0
H285 H 0.5476 0.01985 0.10925 0.0
H286 H 0.53387 0.01846 0.90828 0.0
H287 H 0.51685 0.03083 0.85367 0.0
C288 C 0.52771 0.04487 0.46446 0.0
C289 C 0.55667 0.06171 0.46135 0.0
C290 C 0.55615 0.08235 0.58306 0.0
C291 C 0.52802 0.0625 0.59214 0.0
N292 N 0.48821 0.02154 0.54632 0.0
N293 N 0.59903 0.09298 0.52684 0.0
C294 C 0.51406 0.04285 0.53408 0.0
C295 C 0.57111 0.07958 0.52304 0.0
N296 N 0.51303 0.03157 0.40019 0.0
N297 N 0.56843 0.10455 0.62947 0.0
H298 H 0.61095 0.0909 0.48596 0.0
H299 H 0.61019 0.104 0.57489 0.0
H300 H 0.55792 0.10827 0.67135 0.0
H301 H 0.58817 0.12076 0.62025 0.0
H302 H 0.49172 0.0211 0.39771 0.0
H303 H 0.52203 0.03354 0.34693 0.0
H304 H 0.47829 1.00527 0.50872 0.0
H305 H 0.47778 0.01866 0.59753 0.0
C306 C 0.06429 0.59784 0.50873 0.0
C307 C 0.04021 0.59646 0.4795 0.0
C308 C 1.01289 0.55651 0.55954 0.0
C309 C 0.03699 0.56136 0.59928 0.0
N310 N 0.08574 0.59116 0.62008 0.0
N311 N 0.99122 0.57658 0.48808 0.0
C312 C 0.06278 0.58323 0.57617 0.0
C313 C 1.01432 0.57631 0.50765 0.0
N314 N 0.08847 0.6122 0.47062 0.0
N315 N 0.98883 0.5326 0.5687 0.0
H316 H 0.99136 0.59129 0.45287 0.0
H317 H 0.97234 0.56376 0.51336 0.0
H318 H 0.98725 0.51681 0.60198 0.0
H319 H 0.97134 0.5273 0.53587 0.0
H320 H 0.10596 0.61187 0.48665 0.0
H321 H 0.09013 0.62153 0.41775 0.0
H322 H 0.1044 0.60863 0.60848 0.0
H323 H 0.08559 0.5823 0.67256 0.0
C324 C 0.56419 0.59905 0.50808 0.0
C325 C 0.55967 0.5869 0.58189 0.0
C326 C 0.52366 0.54365 0.52854 0.0
C327 C 0.52714 0.55614 0.45561 0.0
N328 N 0.54841 0.59604 0.37613 0.0
N329 N 0.53192 0.54955 0.66612 0.0
C330 C 0.54668 0.58399 0.44555 0.0
C331 C 0.53859 0.55966 0.59309 0.0
N332 N 0.58596 0.62458 0.49703 0.0
N333 N 0.50601 0.51648 0.53621 0.0
H334 H 0.54182 0.56099 0.71487 0.0
H335 H 0.51498 0.53079 0.67923 0.0
H336 H 0.49351 0.50426 0.49153 0.0
H337 H 0.50499 0.50564 0.58539 0.0
H338 H 0.59252 0.63342 0.44318 0.0
H339 H 0.59876 0.63653 0.54161 0.0
H340 H 0.55964 0.61681 0.36749 0.0
H341 H 0.53743 0.58536 0.3274 0.0
C342 C 0.71065 0.91738 0.27464 0.0
C343 C 0.71242 0.89403 0.28513 0.0
C344 C 0.70841 0.89671 0.42487 0.0
C345 C 0.70891 0.92133 0.41463 0.0
N346 N 0.71437 0.95722 0.33066 0.0
N347 N 0.71658 0.8632 0.37035 0.0
C348 C 0.71135 0.93237 0.3398 0.0
C349 C 0.71204 0.884 0.36027 0.0
N350 N 0.70689 0.92447 0.20227 0.0
N351 N 0.70463 0.88553 0.49661 0.0
H352 H 0.7189 0.85307 0.32485 0.0
H353 H 0.72 0.85712 0.42369 0.0
H354 H 0.70458 0.89535 0.54647 0.0
H355 H 0.70026 0.86596 0.50664 0.0
H356 H 0.70247 0.93951 0.19115 0.0
H357 H 0.70543 0.91351 0.15333 0.0
H358 H 0.71951 0.96768 0.2787 0.0
H359 H 0.71391 0.9685 0.37608 0.0
C360 C 0.19783 0.88135 0.35094 0.0
C361 C 0.17775 0.88529 0.38536 0.0
C362 C 0.19608 0.92817 0.31643 0.0
C363 C 0.21323 0.92212 0.27339 0.0
N364 N 0.22686 0.89025 0.24137 0.0
N365 N 0.15539 0.91085 0.39382 0.0
C366 C 0.21326 0.89803 0.28854 0.0
C367 C 0.17628 0.90834 0.36646 0.0
N368 N 0.203 0.86238 0.37979 0.0
N369 N 0.19937 0.95322 0.31172 0.0
H370 H 0.14039 0.89667 0.43019 0.0
H371 H 0.15157 0.92574 0.37509 0.0
H372 H 0.21423 0.96856 0.27776 0.0
H373 H 0.18939 0.95965 0.34746 0.0
H374 H 0.21926 0.86052 0.36168 0.0
H375 H 0.19306 0.85051 0.42764 0.0
H376 H 0.2249 0.87138 0.24495 0.0
H377 H 0.23802 0.90147 0.19401 0.0
C378 C 0.23787 0.41044 0.34879 0.0
C379 C 0.22756 0.40916 0.42344 0.0
C380 C 0.18699 0.40755 0.36763 0.0
C381 C 0.19633 0.40678 0.29308 0.0
N382 N 0.22899 0.40484 0.21137 0.0
N383 N 0.19137 0.40353 0.50559 0.0
C384 C 0.22128 0.40741 0.28333 0.0
C385 C 0.20189 0.40703 0.43336 0.0
N386 N 0.264 0.41579 0.34046 0.0
N387 N 0.16393 0.40892 0.3754 0.0
H388 H 0.20176 0.40307 0.55489 0.0
H389 H 0.1716 0.39906 0.51673 0.0
H390 H 0.152 0.40838 0.32871 0.0
H391 H 0.15751 0.4124 0.42738 0.0
H392 H 0.27393 0.42009 0.28794 0.0
H393 H 0.2767 0.41797 0.38697 0.0
H394 H 0.24504 0.40171 0.20101 0.0
H395 H 0.21833 0.40438 0.16165 0.0
C396 C 0.20821 0.39357 0.92007 0.0
C397 C 0.19932 0.4123 0.91401 0.0
C398 C 0.21893 0.42541 0.78471 0.0
C399 C 0.2262 0.40544 0.7888 0.0
N400 N 0.22634 0.36903 0.85683 0.0
N401 N 0.19266 0.44349 0.83788 0.0
C402 C 0.22032 0.38902 0.85542 0.0
C403 C 0.20387 0.42766 0.84572 0.0
N404 N 0.20633 0.38112 0.98889 0.0
N405 N 0.22644 0.44226 0.72243 0.0
H406 H 0.18155 0.4457 0.88116 0.0
H407 H 0.1924 0.45279 0.78671 0.0
H408 H 0.23607 0.44028 0.67467 0.0
H409 H 0.22475 0.45929 0.71976 0.0
H410 H 0.21532 0.36974 1.00023 0.0
H411 H 0.19733 0.38367 0.03721 0.0
H412 H 0.21943 0.35409 0.89886 0.0
H413 H 0.2373 0.3665 0.81369 0.0
C414 C 0.68984 0.87915 0.8474 0.0
C415 C 0.70677 0.891 0.91349 0.0
C416 C 0.72973 0.93517 0.84923 0.0
C417 C 0.71179 0.92358 0.78484 0.0
N418 N 0.67272 0.88547 0.72524 0.0
N419 N 0.73944 0.9308 0.98316 0.0
C420 C 0.69112 0.89586 0.78496 0.0
C421 C 0.72591 0.91915 0.91589 0.0
N422 N 0.67343 0.85172 0.84286 0.0
N423 N 0.75053 0.96154 0.8466 0.0
H424 H 0.73713 0.91979 0.03315 0.0
H425 H 0.75124 0.95154 0.99165 0.0
H426 H 0.75289 0.97453 0.80152 0.0
H427 H 0.76637 0.97026 0.88703 0.0
H428 H 0.66302 0.84149 0.79315 0.0
H429 H 0.67181 0.83878 0.88724 0.0
H430 H 0.65522 0.86633 0.72584 0.0
H431 H 0.67389 0.89663 0.67653 0.0
C432 C 0.19867 0.91803 0.9129 0.0
C433 C 0.22306 0.91823 0.93151 0.0
C434 C 0.21056 0.88209 0.83776 0.0
C435 C 0.18709 0.88311 0.81626 0.0
N436 N 0.16423 0.90836 0.81537 0.0
N437 N 0.25586 0.9059 0.89535 0.0
C438 C 0.18276 0.90299 0.84842 0.0
C439 C 0.23012 0.90188 0.88899 0.0
N440 N 0.18977 0.93095 0.95853 0.0
N441 N 0.21374 0.86171 0.81184 0.0
H442 H 0.27118 0.92099 0.92955 0.0
H443 H 0.26289 0.89631 0.86032 0.0
H444 H 0.19979 0.84673 0.77464 0.0
H445 H 0.22897 0.85837 0.83247 0.0
H446 H 0.17059 0.92884 0.95159 0.0
H447 H 0.20019 0.94162 1.00772 0.0
H448 H 0.16201 0.9243 0.83247 0.0
H449 H 0.15351 0.89898 0.765 0.0
C450 C 0.40975 0.26408 0.68845 0.0
C451 C 0.38607 0.26554 0.70066 0.0
C452 C 0.36142 0.2314 0.60094 0.0
C453 C 0.38458 0.22866 0.59208 0.0
N454 N 0.42752 0.23663 0.64475 0.0
N455 N 0.33702 0.24429 0.68584 0.0
C456 C 0.40779 0.24328 0.64115 0.0
C457 C 0.36118 0.24732 0.6621 0.0
N458 N 0.43439 0.28312 0.71924 0.0
N459 N 0.34015 0.22004 0.54934 0.0
H460 H 0.33564 0.25451 0.73291 0.0
H461 H 0.31803 0.22934 0.66454 0.0
H462 H 0.33919 0.20838 0.50298 0.0
H463 H 0.32447 0.22425 0.54866 0.0
H464 H 0.45278 0.28453 0.70537 0.0
H465 H 0.43687 0.29905 0.75281 0.0
H466 H 0.44359 0.24499 0.68462 0.0
H467 H 0.42609 0.22054 0.61417 0.0
C468 C 0.89292 0.24657 0.75966 0.0
C469 C 0.86651 0.22372 0.745 0.0
C470 C 0.86997 0.23603 0.60829 0.0
C471 C 0.89618 0.2591 0.62319 0.0
N472 N 0.93435 0.28507 0.70902 0.0
N473 N 0.82866 0.19726 0.65851 0.0
C474 C 0.9082 0.26395 0.69776 0.0
C475 C 0.85469 0.2186 0.67009 0.0
N476 N 0.90262 0.25241 0.83373 0.0
N477 N 0.8604 0.23017 0.5341 0.0
H478 H 0.81738 0.18338 0.70143 0.0
H479 H 0.81747 0.19379 0.60783 0.0
H480 H 0.87124 0.24225 0.48745 0.0
H481 H 0.84275 0.21251 0.51711 0.0
H482 H 0.92033 0.27005 0.85048 0.0
H483 H 0.89191 0.24033 0.88051 0.0
H484 H 0.94565 0.28832 0.75941 0.0
H485 H 0.94567 0.29883 0.66593 0.0
C486 C 0.90069 0.73675 0.67751 0.0
C487 C 0.89671 0.74473 0.75056 0.0
C488 C 0.85689 0.74594 0.70012 0.0
C489 C 0.86236 0.74028 0.6255 0.0
N490 N 0.89177 0.73439 0.54012 0.0
N491 N 0.87227 0.75842 0.83214 0.0
C492 C 0.88477 0.73658 0.61343 0.0
C493 C 0.87515 0.74976 0.76198 0.0
N494 N 0.91976 0.72942 0.66932 0.0
N495 N 0.83362 0.74653 0.71255 0.0
H496 H 0.88357 0.75916 0.88072 0.0
H497 H 0.85956 0.76601 0.84175 0.0
H498 H 0.82008 0.74451 0.66867 0.0
H499 H 0.82659 0.74717 0.76687 0.0
H500 H 0.92167 0.72064 0.61976 0.0
H501 H 0.93238 0.73015 0.71431 0.0
H502 H 0.90953 0.73454 0.52656 0.0
H503 H 0.8811 0.73491 0.49158 0.0
C504 C 0.88974 0.77448 0.23058 0.0
C505 C 0.87154 0.75085 0.2726 0.0
C506 C 0.88272 0.7244 0.18821 0.0
C507 C 0.90417 0.74857 0.15529 0.0
N508 N 0.93084 0.79727 0.15465 0.0
N509 N 0.85439 0.70378 0.2995 0.0
C510 C 0.90838 0.77383 0.17871 0.0
C511 C 0.8689 0.72586 0.25349 0.0
N512 N 0.8886 0.79732 0.23808 0.0
N513 N 0.87478 0.70004 0.15553 0.0
H514 H 0.84472 0.70408 0.3495 0.0
H515 H 0.85429 0.68591 0.29218 0.0
H516 H 0.88342 0.69814 0.10539 0.0
H517 H 0.85757 0.6821 0.17307 0.0
H518 H 0.89957 0.81426 0.2033 0.0
H519 H 0.87445 0.7983 0.27298 0.0
H520 H 0.93631 0.81608 0.17669 0.0
H521 H 0.94549 0.7978 0.11844 0.0
C522 C 0.35617 0.23186 0.21863 0.0
C523 C 0.37801 0.22806 0.2412 0.0
C524 C 0.4028 0.25284 0.1264 0.0
C525 C 0.38365 0.26121 0.11322 0.0
N526 N 0.34434 0.26227 0.15866 0.0
N527 N 0.42503 0.24029 0.22272 0.0
C528 C 0.36084 0.25167 0.16239 0.0
C529 C 0.40216 0.23994 0.19672 0.0
N530 N 0.33064 0.2159 0.24834 0.0
N531 N 0.42099 0.25624 0.07087 0.0
H532 H 0.42627 0.23266 0.27608 0.0
H533 H 0.44377 0.25097 0.19489 0.0
H534 H 0.42086 0.26375 1.01625 0.0
H535 H 0.43379 0.24843 0.07587 0.0
H536 H 0.31367 0.21658 0.22862 0.0
H537 H 0.3257 0.19977 0.28525 0.0
H538 H 0.32905 0.25754 0.19861 0.0
H539 H 0.34773 0.27787 0.12149 0.0
C540 C 0.87496 0.2301 0.25657 0.0
C541 C 0.89409 0.2581 0.24731 0.0
C542 C 0.87999 0.25566 0.11232 0.0
C543 C 0.85962 0.22812 0.12298 0.0
N544 N 0.83487 0.18982 0.20701 0.0
N545 N 0.91301 0.29852 0.17011 0.0
C546 C 0.85639 0.21546 0.19552 0.0
C547 C 0.89593 0.27121 0.1764 0.0
N548 N 0.87467 0.21746 0.32368 0.0
N549 N 0.8851 0.26657 0.03999 0.0
H550 H 0.92621 0.31045 0.21411 0.0
H551 H 0.91284 0.30971 0.12318 0.0
H552 H 0.8742 0.25573 0.99138 0.0
H553 H 0.90163 0.28556 0.02668 0.0
H554 H 0.86375 0.19662 0.33075 0.0
H555 H 0.88658 0.22773 0.37164 0.0
H556 H 0.82934 0.18058 0.26071 0.0
H557 H 0.82113 0.17826 0.1635 0.0
C558 C 0.10347 0.73897 0.371 0.0
C559 C 0.08054 0.7155 0.40198 0.0
C560 C 0.08462 0.74005 0.52051 0.0
C561 C 0.10712 0.76355 0.48891 0.0
N562 N 0.14312 0.78338 0.39592 0.0
N563 N 0.05475 0.69155 0.5143 0.0
C564 C 0.11835 0.76227 0.41813 0.0
C565 C 0.07285 0.71537 0.47943 0.0
N566 N 0.10994 0.73971 0.29534 0.0
N567 N 0.07402 0.74151 0.58898 0.0
H568 H 0.04605 0.67299 0.4866 0.0
H569 H 0.05037 0.6898 0.57269 0.0
H570 H 0.08331 0.75879 0.62312 0.0
H571 H 0.05545 0.72611 0.61021 0.0
H572 H 0.12441 0.75723 0.26741 0.0
H573 H 0.09937 0.7233 0.2585 0.0
H574 H 0.15353 0.78285 0.34795 0.0
H575 H 0.15461 0.80029 0.43041 0.0
C576 C 0.38711 0.44478 0.3892 0.0
C577 C 0.39369 0.46975 0.35497 0.0
C578 C 0.3535 0.46659 0.41554 0.0
C579 C 0.34851 0.44289 0.45487 0.0
N580 N 0.36438 0.41314 0.49305 0.0
N581 N 0.38601 0.50687 0.3459 0.0
C582 C 0.36653 0.43315 0.44593 0.0
C583 C 0.37769 0.48139 0.37106 0.0
N584 N 0.39947 0.43135 0.36459 0.0
N585 N 0.3346 0.47432 0.41772 0.0
H586 H 0.4036 0.5183 0.31343 0.0
H587 H 0.37682 0.51753 0.36266 0.0
H588 H 0.31675 0.46414 0.44979 0.0
H589 H 0.33558 0.48955 0.38312 0.0
H590 H 0.39343 0.41181 0.38204 0.0
H591 H 0.41369 0.43844 0.32041 0.0
H592 H 0.3787 0.40712 0.49429 0.0
H593 H 0.34992 0.40454 0.53658 0.0
C594 C 0.63367 0.99198 0.4905 0.0
C595 C 0.65724 0.99392 0.45774 0.0
C596 C 0.65946 0.0266 0.3623 0.0
C597 C 0.63519 0.02372 0.39292 0.0
N598 N 0.59695 1.00143 0.47845 0.0
N599 N 0.69154 0.01112 0.35886 0.0
C600 C 0.62168 1.00578 0.455 0.0
C601 C 0.66967 0.01048 0.39214 0.0
N602 N 0.623 0.97722 0.55617 0.0
N603 N 0.67368 0.04596 0.30786 0.0
H604 H 0.70159 1.00206 0.38324 0.0
H605 H 0.69909 0.01959 0.30519 0.0
H606 H 0.6668 0.05798 0.28384 0.0
H607 H 0.69322 0.05156 0.28991 0.0
H608 H 0.60786 0.97738 0.58827 0.0
H609 H 0.6304 0.96581 0.58147 0.0
H610 H 0.58454 0.98672 0.51807 0.0
H611 H 0.5877 0.01123 0.45369 0.0
C612 C 0.68645 0.1183 0.05525 0.0
C613 C 0.68498 0.11622 0.13664 0.0
C614 C 0.73492 0.14501 0.14442 0.0
C615 C 0.73651 0.14242 0.06389 0.0
N616 N 0.71327 0.12384 0.94271 0.0
N617 N 0.70844 0.12552 0.25953 0.0
C618 C 0.71215 0.12866 0.01892 0.0
C619 C 0.70935 0.12933 0.18174 0.0
N620 N 0.66328 0.11067 1.01267 0.0
N621 N 0.75784 0.1628 0.18503 0.0
H622 H 0.6903 0.11387 0.28942 0.0
H623 H 0.7259 0.13209 0.29366 0.0
H624 H 0.77661 0.17528 0.15868 0.0
H625 H 0.75751 0.1673 0.2427 0.0
H626 H 0.66349 0.11403 0.95367 0.0
H627 H 0.64425 0.10368 0.03767 0.0
H628 H 0.69595 0.11119 0.90974 0.0
H629 H 0.73151 0.13049 0.9137 0.0
C630 C 0.96079 0.66539 0.04862 0.0
C631 C 0.97533 0.69275 0.02423 0.0
C632 C 0.01485 0.70063 0.10249 0.0
C633 C 1.00188 0.67261 0.11811 0.0
N634 N 0.96335 0.62753 0.09826 0.0
N635 N 0.01831 0.7351 1.01592 0.0
C636 C 0.97499 0.65473 0.08945 0.0
C637 C 1.00294 0.71005 0.048 0.0
N638 N 0.93324 0.64984 0.03536 0.0
N639 N 0.03818 0.71845 0.14172 0.0
H640 H 1.01083 0.74247 0.97329 0.0
H641 H 0.0393 0.74742 0.02557 0.0
H642 H 0.04692 0.71245 0.18457 0.0
H643 H 0.04703 0.73928 0.13798 0.0
H644 H 0.92104 0.6307 0.05898 0.0
H645 H 0.92208 0.65697 1.0065 0.0
H646 H 0.94526 0.61346 0.07061 0.0
H647 H 0.97274 0.61887 0.12864 0.0
C648 C 0.44083 0.40443 1.00718 0.0
C649 C 0.4288 0.37983 0.04901 0.0
C650 C 0.44095 0.40474 0.17076 0.0
C651 C 0.45271 0.42934 0.12896 0.0
N652 N 0.47104 0.45301 1.00978 0.0
N653 N 0.42482 0.35696 0.16878 0.0
C654 C 0.45502 0.42926 0.04784 0.0
C655 C 0.43137 0.38018 0.13032 0.0
N656 N 0.43726 0.40426 0.92929 0.0
N657 N 0.43719 0.40447 0.24824 0.0
H658 H 0.41812 0.33875 0.14058 0.0
H659 H 0.42869 0.35635 0.22722 0.0
H660 H 0.44404 0.42186 0.28067 0.0
H661 H 0.42552 0.38683 0.27974 0.0
H662 H 0.44242 0.42151 0.89736 0.0
H663 H 0.42746 0.38668 0.89672 0.0
H664 H 0.47578 0.45412 0.95177 0.0
H665 H 0.48185 0.47148 0.03811 0.0
C666 C 1.00328 0.40432 0.55913 0.0
C667 C 0.97518 0.3847 0.56789 0.0
C668 C 0.9684 0.41747 0.63739 0.0
C669 C 0.99697 0.43622 0.63424 0.0
N670 N 0.04241 0.44578 0.60545 0.0
N671 N 0.93123 0.37101 0.62166 0.0
C672 C 1.01464 0.42917 0.59872 0.0
C673 C 0.95773 0.39084 0.60861 0.0
N674 N 0.01898 0.39951 0.51092 0.0
N675 N 0.95148 0.42538 0.66591 0.0
H676 H 0.92268 0.35155 0.5998 0.0
H677 H 0.91822 0.37328 0.65793 0.0
H678 H 0.95877 0.44455 0.68863 0.0
H679 H 0.93022 0.4137 0.66252 0.0
H680 H 0.03881 0.41416 0.49553 0.0
H681 H 1.01131 0.38162 0.48026 0.0
H682 H 0.05626 0.44028 0.58849 0.0
H683 H 0.05169 0.4641 0.63468 0.0
C684 C 0.70815 0.68425 0.68546 0.0
C685 C 0.6839 0.67225 0.63974 0.0
C686 C 0.71146 0.68723 0.52258 0.0
C687 C 0.73569 0.69869 0.56834 0.0
N688 N 0.75654 0.69994 0.69077 0.0
N689 N 0.66274 0.6548 0.51619 0.0
C690 C 0.73381 0.69449 0.64906 0.0
C691 C 0.68568 0.6713 0.55864 0.0
N692 N 0.70707 0.68755 0.76274 0.0
N693 N 0.71274 0.69281 0.44575 0.0
H694 H 0.64383 0.64204 0.5415 0.0
H695 H 0.66314 0.65151 0.45757 0.0
H696 H 0.73104 0.70458 0.41672 0.0
H697 H 0.69547 0.68753 0.41196 0.0
H698 H 0.72449 0.69892 0.79676 0.0
H699 H 0.68891 0.68103 0.79199 0.0
H700 H 0.756 0.69518 0.74888 0.0
H701 H 0.77527 0.70623 0.66488 0.0
C702 C 0.44497 0.15508 0.57688 0.0
C703 C 0.41706 0.13955 0.55375 0.0
C704 C 0.41421 0.09877 0.60579 0.0
C705 C 0.44269 0.11366 0.62234 0.0
N706 N 0.48613 0.15534 0.61648 0.0
N707 N 0.37657 0.09596 0.53204 0.0
C708 C 0.45838 0.14171 0.60618 0.0
C709 C 0.4021 0.1112 0.56422 0.0
N710 N 0.45836 0.18257 0.57292 0.0
N711 N 0.39846 0.07295 0.63252 0.0
H712 H 0.36712 0.10423 0.49981 0.0
H713 H 0.3659 0.07497 0.53072 0.0
H714 H 0.40646 0.06337 0.66509 0.0
H715 H 0.37716 0.06206 0.62936 0.0
H716 H 0.47774 0.19521 0.59654 0.0
H717 H 0.44928 0.19286 0.5503 0.0
H718 H 0.49911 0.17508 0.59808 0.0
H719 H 0.49644 0.14626 0.63907 0.0
C720 C 0.34864 0.99693 0.89155 0.0
C721 C 0.34886 1.00143 0.9717 0.0
C722 C 0.39896 0.02496 0.97216 0.0
C723 C 0.39869 0.02551 0.89055 0.0
N724 N 0.37283 0.01242 0.77129 0.0
N725 N 0.37467 0.02132 0.08871 0.0
C726 C 0.37344 0.01116 0.84969 0.0
C727 C 0.37412 0.01542 1.0126 0.0
N728 N 0.32465 0.97883 0.85565 0.0
N729 N 0.42304 0.03338 1.01094 0.0
H730 H 0.3571 0.01496 0.12082 0.0
H731 H 0.39265 0.03429 0.11873 0.0
H732 H 0.44145 0.03989 0.98278 0.0
H733 H 0.42421 0.03118 0.07012 0.0
H734 H 0.32352 0.97272 0.79892 0.0
H735 H 0.30626 0.96784 0.88513 0.0
H736 H 0.35483 1.00534 0.73932 0.0
H737 H 0.39036 0.02209 0.73801 0.0
C738 C 0.0976 0.48399 0.9786 0.0
C739 C 0.0907 0.47994 0.89919 0.0
C740 C 0.1121 0.4527 0.89027 0.0
C741 C 0.11432 0.45269 0.97171 0.0
N742 N 0.10653 0.46639 0.09483 0.0
N743 N 0.08922 0.45825 0.77976 0.0
C744 C 0.10677 0.46816 1.01641 0.0
C745 C 0.09775 0.46406 0.85465 0.0
N746 N 0.09553 0.50319 0.0177 0.0
N747 N 0.12398 0.44208 0.84683 0.0
H748 H 0.07863 0.46601 0.75116 0.0
H749 H 0.09079 0.44406 0.7476 0.0
H750 H 0.13474 0.4337 0.87098 0.0
H751 H 0.1255 0.44398 0.78723 0.0
H752 H 0.10266 0.50889 0.07387 0.0
H753 H 0.08929 0.51539 0.99113 0.0
H754 H 0.09813 0.4747 0.12972 0.0
H755 H 0.11259 0.45472 0.12516 0.0
C756 C 0.65663 0.73894 0.85386 0.0
C757 C 0.64176 0.7155 0.89992 0.0
C758 C 0.65434 0.74355 1.01573 0.0
C759 C 0.66843 0.76705 0.96937 0.0
N760 N 0.67688 0.78728 0.84329 0.0
N761 N 0.62053 0.69577 0.02097 0.0
C762 C 0.66752 0.76475 0.88802 0.0
C763 C 0.63867 0.71795 0.9797 0.0
N764 N 0.66203 0.73677 0.77885 0.0
N765 N 0.65737 0.7453 0.09395 0.0
H766 H 0.60868 0.67676 0.99623 0.0
H767 H 0.61529 0.69674 0.07744 0.0
H768 H 0.66906 0.76345 0.12317 0.0
H769 H 0.65021 0.72851 0.12967 0.0
H770 H 0.67553 0.75325 0.74547 0.0
H771 H 0.65496 0.71837 0.75149 0.0
H772 H 0.67417 0.78661 0.78384 0.0
H773 H 0.68498 0.80651 0.86636 0.0
C774 C 0.77154 0.07304 0.68592 0.0
C775 C 0.75676 0.04921 0.73063 0.0
C776 C 0.76735 0.07637 0.84757 0.0
C777 C 0.78242 0.10016 0.80301 0.0
N778 N 0.80569 0.12081 0.68505 0.0
N779 N 0.74768 0.02802 0.85535 0.0
C780 C 0.78678 0.09833 0.72381 0.0
C781 C 0.75707 0.05087 0.81203 0.0
N782 N 0.76962 0.07191 0.60749 0.0
N783 N 0.76119 0.0779 0.92227 0.0
H784 H 0.74038 0.00909 0.83096 0.0
H785 H 0.74976 0.02825 0.91498 0.0
H786 H 0.7679 0.09605 0.95065 0.0
H787 H 0.74752 0.06109 0.95434 0.0
H788 H 0.77734 0.08899 0.57276 0.0
H789 H 0.75844 0.05398 0.57693 0.0
H790 H 0.8116 0.12032 0.62902 0.0
H791 H 0.8176 0.13947 0.71188 0.0
C792 C 0.06749 0.83505 0.79797 0.0
C793 C 0.06733 0.8331 0.71662 0.0
C794 C 0.01772 0.80136 0.71845 0.0
C795 C 0.0189 0.79965 0.79979 0.0
N796 N 0.04586 0.81273 0.91706 0.0
N797 N 0.04249 0.81387 0.59842 0.0
C798 C 0.04394 0.81621 0.83986 0.0
C799 C 0.04244 0.81616 0.67652 0.0
N800 N 0.09015 0.85473 0.83544 0.0
N801 N 0.99288 0.7895 0.68157 0.0
H802 H 0.05986 0.82565 0.56539 0.0
H803 H 0.02573 0.79936 0.5669 0.0
H804 H 0.9744 0.77943 0.71094 0.0
H805 H 0.99051 0.79198 0.62319 0.0
H806 H 0.09054 0.85876 0.89381 0.0
H807 H 0.10771 0.86885 0.80681 0.0
H808 H 0.06436 0.82194 0.94737 0.0
H809 H 0.0294 0.79881 0.94999 0.0
C810 C 0.33389 0.37276 0.76755 0.0
C811 C 0.30542 0.36105 0.7541 0.0
C812 C 0.29687 0.31955 0.81903 0.0
C813 C 0.32501 0.33258 0.84 0.0
N814 N 0.36914 0.37373 0.84839 0.0
N815 N 0.25917 0.32446 0.77399 0.0
C816 C 0.34323 0.35976 0.81794 0.0
C817 C 0.28667 0.33466 0.78137 0.0
N818 N 0.35212 0.39603 0.73046 0.0
N819 N 0.28008 0.29262 0.83305 0.0
H820 H 0.25104 0.33475 0.74569 0.0
H821 H 0.24447 0.3067 0.80038 0.0
H822 H 0.28685 0.28104 0.86072 0.0
H823 H 0.26009 0.28134 0.81205 0.0
H824 H 0.37318 0.40398 0.73197 0.0
H825 H 0.34607 0.40585 0.69161 0.0
H826 H 0.38232 0.39437 0.84042 0.0
H827 H 0.37647 0.36542 0.88847 0.0
C828 C 0.0327 0.3651 0.29438 0.0
C829 C 0.02984 0.34431 0.34463 0.0
C830 C 0.07373 0.35131 0.30012 0.0
C831 C 0.07563 0.37094 0.24695 0.0
N832 N 0.05433 0.39223 0.18119 0.0
N833 N 0.04492 0.31421 0.38575 0.0
C834 C 0.05424 0.37643 0.24025 0.0
C835 C 0.04958 0.33639 0.34466 0.0
N836 N 0.01587 0.37524 0.30127 0.0
N837 N 0.09545 0.34778 0.31057 0.0
H838 H 0.02747 0.30286 0.41883 0.0
H839 H 0.05709 0.30574 0.38197 0.0
H840 H 0.1132 0.35793 0.27806 0.0
H841 H 0.09666 0.3362 0.35482 0.0
H842 H 0.01904 0.39242 0.27231 0.0
H843 H 1.00023 0.3682 0.34134 0.0
H844 H 0.0379 0.39473 0.16843 0.0
H845 H 0.06974 0.4007 0.14017 0.0
C846 C 0.76499 0.79144 0.3214 0.0
C847 C 0.79183 0.79778 0.30289 0.0
C848 C 0.79626 0.83256 0.21194 0.0
C849 C 0.77009 0.82722 0.23371 0.0
N850 N 0.73082 0.80434 0.31608 0.0
N851 N 0.83475 0.82684 0.24041 0.0
C852 C 0.75492 0.80757 0.29085 0.0
C853 C 0.80796 0.81906 0.2508 0.0
N854 N 0.74845 0.769 0.36435 0.0
N855 N 0.80962 0.8501 0.15296 0.0
H856 H 0.84398 0.81759 0.26879 0.0
H857 H 0.84848 0.8438 0.20908 0.0
H858 H 0.80192 0.86083 0.1249 0.0
H859 H 0.82734 0.85272 0.12832 0.0
H860 H 0.72766 0.7614 0.37194 0.0
H861 H 0.75484 0.75651 0.38778 0.0
H862 H 0.72062 0.793 0.36432 0.0
H863 H 0.72179 0.81442 0.29177 0.0
C864 C 0.2995 0.0739 0.16588 0.0
C865 C 0.28273 0.05028 0.20934 0.0
C866 C 0.29023 0.07815 0.32323 0.0
C867 C 0.30978 0.10131 0.28228 0.0
N868 N 0.33719 0.12008 0.16819 0.0
N869 N 0.2662 0.02954 0.33366 0.0
C870 C 0.31546 0.09896 0.20434 0.0
C871 C 0.279 0.05226 0.28916 0.0
N872 N 0.29981 0.07252 0.08754 0.0
N873 N 0.28197 0.08091 0.39411 0.0
H874 H 0.25863 0.01021 0.31205 0.0
H875 H 0.26553 0.03002 0.39339 0.0
H876 H 0.28958 0.09959 0.4205 0.0
H877 H 0.26575 0.06504 0.42326 0.0
H878 H 0.3095 0.08952 0.0524 0.0
H879 H 0.28808 0.05456 0.05724 0.0
H880 H 0.34392 0.11842 0.11435 0.0
H881 H 0.35036 0.13847 0.19479 0.0
loop_
_geom_bond_atom_site_label_1
_geom_bond_atom_site_label_2
_geom_bond_distance
_geom_bond_site_symmetry_2
_ccdc_geom_bond_type
Mg0 O7 2.141 . S
Mg0 O8 2.048 . S
Mg0 O9 2.048 . S
Mg0 O12 2.141 . S
C1 O2 1.313 . S
C1 O8 1.195 . S
O2 C1 1.313 . S
C3 O4 1.245 1_455 S
C3 O12 1.289 . S
O4 C3 1.245 1_655 S
C5 O6 1.245 1_455 S
C5 O7 1.289 . S
O6 C5 1.245 1_655 S
O7 Mg0 2.141 . S
O7 C5 1.289 . S
O8 Mg0 2.048 . S
O8 C1 1.195 . S
O9 Mg0 2.048 . S
O9 C10 1.195 . S
C10 O9 1.195 . S
C10 O11 1.313 . S
O11 C10 1.313 . S
O12 Mg0 2.141 . S
O12 C3 1.289 . S
Mg13 O20 2.141 . S
Mg13 O21 2.048 . S
Mg13 O22 2.048 . S
Mg13 O25 2.141 . S
C14 O15 1.313 . S
C14 O21 1.195 . S
O15 C14 1.313 . S
C16 O17 1.245 . S
C16 O25 1.289 . S
O17 C16 1.245 . S
C18 O19 1.245 . S
C18 O20 1.289 . S
O19 C18 1.245 . S
O20 Mg13 2.141 . S
O20 C18 1.289 . S
O21 Mg13 2.048 . S
O21 C14 1.195 . S
O22 Mg13 2.048 . S
O22 C23 1.195 . S
C23 O22 1.195 . S
C23 O24 1.313 . S
O24 C23 1.313 . S
O25 Mg13 2.141 . S
O25 C16 1.289 . S
Mg26 O33 2.141 . S
Mg26 O34 2.048 . S
Mg26 O35 2.048 . S
Mg26 O38 2.141 . S
C27 O28 1.313 . S
C27 O34 1.195 . S
O28 C27 1.313 . S
C29 O30 1.245 . S
C29 O38 1.289 . S
O30 C29 1.245 . S
C31 O32 1.245 . S
C31 O33 1.289 . S
O32 C31 1.245 . S
O33 Mg26 2.141 . S
O33 C31 1.289 . S
O34 Mg26 2.048 . S
O34 C27 1.195 . S
O35 Mg26 2.048 . S
O35 C36 1.195 . S
C36 O35 1.195 . S
C36 O37 1.313 . S
O37 C36 1.313 . S
O38 Mg26 2.141 . S
O38 C29 1.289 . S
Mg39 O46 2.141 . S
Mg39 O47 2.048 . S
Mg39 O48 2.048 . S
Mg39 O51 2.141 . S
C40 O41 1.313 1_455 S
C40 O47 1.195 . S
O41 C40 1.313 1_655 S
C42 O43 1.245 . S
C42 O51 1.289 . S
O43 C42 1.245 . S
C44 O45 1.245 . S
C44 O46 1.289 . S
O45 C44 1.245 . S
O46 Mg39 2.141 . S
O46 C44 1.289 . S
O47 Mg39 2.048 . S
O47 C40 1.195 . S
O48 Mg39 2.048 . S
O48 C49 1.195 . S
C49 O48 1.195 . S
C49 O50 1.313 1_455 S
O50 C49 1.313 1_655 S
O51 Mg39 2.141 . S
O51 C42 1.289 . S
Mg52 O59 2.141 . S
Mg52 O60 2.048 . S
Mg52 O61 2.048 . S
Mg52 O64 2.141 . S
C53 O54 1.313 . S
C53 O60 1.195 . S
O54 C53 1.313 . S
C55 O56 1.245 . S
C55 O64 1.289 . S
O56 C55 1.245 . S
C57 O58 1.245 . S
C57 O59 1.289 . S
O58 C57 1.245 . S
O59 Mg52 2.141 . S
O59 C57 1.289 . S
O60 Mg52 2.048 . S
O60 C53 1.195 . S
O61 Mg52 2.048 . S
O61 C62 1.195 . S
C62 O61 1.195 . S
C62 O63 1.313 . S
O63 C62 1.313 . S
O64 Mg52 2.141 . S
O64 C55 1.289 . S
Mg65 O72 2.141 . S
Mg65 O73 2.048 . S
Mg65 O74 2.048 . S
Mg65 O77 2.141 . S
C66 O67 1.313 . S
C66 O73 1.195 . S
O67 C66 1.313 . S
C68 O69 1.245 . S
C68 O77 1.289 . S
O69 C68 1.245 . S
C70 O71 1.245 . S
C70 O72 1.289 . S
O71 C70 1.245 . S
O72 Mg65 2.141 . S
O72 C70 1.289 . S
O73 Mg65 2.048 . S
O73 C66 1.195 . S
O74 Mg65 2.048 . S
O74 C75 1.195 . S
C75 O74 1.195 . S
C75 O76 1.313 . S
O76 C75 1.313 . S
O77 Mg65 2.141 . S
O77 C68 1.289 . S
Mg78 O85 2.141 . S
Mg78 O86 2.048 . S
Mg78 O87 2.048 1_565 S
Mg78 O90 2.141 . S
C79 O80 1.313 . S
C79 O86 1.195 . S
O80 C79 1.313 . S
C81 O82 1.245 . S
C81 O90 1.289 . S
O82 C81 1.245 . S
C83 O84 1.245 . S
C83 O85 1.289 . S
O84 C83 1.245 . S
O85 Mg78 2.141 . S
O85 C83 1.289 . S
O86 Mg78 2.048 . S
O86 C79 1.195 . S
O87 Mg78 2.048 1_545 S
O87 C88 1.195 . S
C88 O87 1.195 . S
C88 O89 1.313 1_545 S
O89 C88 1.313 1_565 S
O90 Mg78 2.141 . S
O90 C81 1.289 . S
Mg91 O98 2.141 . S
Mg91 O99 2.048 . S
Mg91 O100 2.048 . S
Mg91 O103 2.141 . S
C92 O93 1.313 . S
C92 O99 1.195 . S
O93 C92 1.313 . S
C94 O95 1.245 . S
C94 O103 1.289 . S
O95 C94 1.245 . S
C96 O97 1.245 . S
C96 O98 1.289 . S
O97 C96 1.245 . S
O98 Mg91 2.141 . S
O98 C96 1.289 . S
O99 Mg91 2.048 . S
O99 C92 1.195 . S
O100 Mg91 2.048 . S
O100 C101 1.195 . S
C101 O100 1.195 . S
C101 O102 1.313 . S
O102 C101 1.313 . S
O103 Mg91 2.141 . S
O103 C94 1.289 . S
Mg104 O111 2.141 . S
Mg104 O112 2.048 . S
Mg104 O113 2.048 . S
Mg104 O116 2.141 . S
C105 O106 1.313 . S
C105 O112 1.195 . S
O106 C105 1.313 . S
C107 O108 1.245 . S
C107 O116 1.289 . S
O108 C107 1.245 . S
C109 O110 1.245 . S
C109 O111 1.289 . S
O110 C109 1.245 . S
O111 Mg104 2.141 . S
O111 C109 1.289 . S
O112 Mg104 2.048 . S
O112 C105 1.195 . S
O113 Mg104 2.048 . S
O113 C114 1.195 . S
C114 O113 1.195 . S
C114 O115 1.313 . S
O115 C114 1.313 . S
O116 Mg104 2.141 . S
O116 C107 1.289 . S
Mg117 O124 2.141 . S
Mg117 O125 2.048 . S
Mg117 O126 2.048 . S
Mg117 O129 2.141 . S
C118 O119 1.313 . S
C118 O125 1.195 . S
O119 C118 1.313 . S
C120 O121 1.245 . S
C120 O129 1.289 1_556 S
O121 C120 1.245 . S
C122 O123 1.245 . S
C122 O124 1.289 1_556 S
O123 C122 1.245 . S
O124 Mg117 2.141 . S
O124 C122 1.289 1_554 S
O125 Mg117 2.048 . S
O125 C118 1.195 . S
O126 Mg117 2.048 . S
O126 C127 1.195 . S
C127 O126 1.195 . S
C127 O128 1.313 . S
O128 C127 1.313 . S
O129 Mg117 2.141 . S
O129 C120 1.289 1_554 S
Mg130 O137 2.141 . S
Mg130 O138 2.048 . S
Mg130 O139 2.048 . S
Mg130 O142 2.141 . S
C131 O132 1.313 . S
C131 O138 1.195 . S
O132 C131 1.313 . S
C133 O134 1.245 . S
C133 O142 1.289 1_546 S
O134 C133 1.245 . S
C135 O136 1.245 . S
C135 O137 1.289 1_556 S
O136 C135 1.245 . S
O137 Mg130 2.141 . S
O137 C135 1.289 1_554 S
O138 Mg130 2.048 . S
O138 C131 1.195 . S
O139 Mg130 2.048 . S
O139 C140 1.195 1_565 S
C140 O139 1.195 1_545 S
C140 O141 1.313 . S
O141 C140 1.313 . S
O142 Mg130 2.141 . S
O142 C133 1.289 1_564 S
Mg143 O150 2.141 . S
Mg143 O151 2.048 . S
Mg143 O152 2.048 . S
Mg143 O155 2.141 . S
C144 O145 1.313 . S
C144 O151 1.195 . S
O145 C144 1.313 . S
C146 O147 1.245 . S
C146 O155 1.289 1_556 S
O147 C146 1.245 . S
C148 O149 1.245 . S
C148 O150 1.289 1_556 S
O149 C148 1.245 . S
O150 Mg143 2.141 . S
O150 C148 1.289 1_554 S
O151 Mg143 2.048 . S
O151 C144 1.195 . S
O152 Mg143 2.048 . S
O152 C153 1.195 . S
C153 O152 1.195 . S
C153 O154 1.313 . S
O154 C153 1.313 . S
O155 Mg143 2.141 . S
O155 C146 1.289 1_554 S
Mg156 O163 2.141 . S
Mg156 O164 2.048 . S
Mg156 O165 2.048 . S
Mg156 O168 2.141 . S
C157 O158 1.313 . S
C157 O164 1.195 1_554 S
O158 C157 1.313 . S
C159 O160 1.245 . S
C159 O168 1.289 . S
O160 C159 1.245 . S
C161 O162 1.245 . S
C161 O163 1.289 . S
O162 C161 1.245 . S
O163 Mg156 2.141 . S
O163 C161 1.289 . S
O164 Mg156 2.048 . S
O164 C157 1.195 1_556 S
O165 Mg156 2.048 . S
O165 C166 1.195 1_556 S
C166 O165 1.195 1_554 S
C166 O167 1.313 . S
O167 C166 1.313 . S
O168 Mg156 2.141 . S
O168 C159 1.289 . S
Mg169 O176 2.141 . S
Mg169 O177 2.037 1_556 S
Mg169 O178 2.050 . S
Mg169 O181 2.141 . S
C170 O171 1.313 . S
C170 O177 1.200 . S
O171 C170 1.313 . S
C172 O173 1.245 . S
C172 O181 1.289 . S
O173 C172 1.245 . S
C174 O175 1.245 . S
C174 O176 1.289 . S
O175 C174 1.245 . S
O176 Mg169 2.141 . S
O176 C174 1.289 . S
O177 Mg169 2.037 1_554 S
O177 C170 1.200 . S
O178 Mg169 2.050 . S
O178 C179 1.194 1_556 S
C179 O178 1.194 1_554 S
C179 O180 1.313 . S
O180 C179 1.313 . S
O181 Mg169 2.141 . S
O181 C172 1.289 . S
Mg182 O189 2.141 1_556 S
Mg182 O190 2.048 . S
Mg182 O191 2.048 . S
Mg182 O194 2.141 1_556 S
C183 O184 1.313 . S
C183 O190 1.195 . S
O184 C183 1.313 . S
C185 O186 1.245 1_554 S
C185 O194 1.289 . S
O186 C185 1.245 1_556 S
C187 O188 1.245 1_554 S
C187 O189 1.289 . S
O188 C187 1.245 1_556 S
O189 Mg182 2.141 1_554 S
O189 C187 1.289 . S
O190 Mg182 2.048 . S
O190 C183 1.195 . S
O191 Mg182 2.048 . S
O191 C192 1.195 . S
C192 O191 1.195 . S
C192 O193 1.313 . S
O193 C192 1.313 . S
O194 Mg182 2.141 1_554 S
O194 C185 1.289 . S
Mg195 O202 2.141 . S
Mg195 O203 2.048 . S
Mg195 O204 2.048 . S
Mg195 O207 2.141 . S
C196 O197 1.313 . S
C196 O203 1.195 . S
O197 C196 1.313 . S
C198 O199 1.245 . S
C198 O207 1.289 . S
O199 C198 1.245 . S
C200 O201 1.245 . S
C200 O202 1.289 . S
O201 C200 1.245 . S
O202 Mg195 2.141 . S
O202 C200 1.289 . S
O203 Mg195 2.048 . S
O203 C196 1.195 . S
O204 Mg195 2.048 . S
O204 C205 1.195 . S
C205 O204 1.195 . S
C205 O206 1.313 . S
O206 C205 1.313 . S
O207 Mg195 2.141 . S
O207 C198 1.289 . S
Mg208 O215 2.141 . S
Mg208 O216 2.048 . S
Mg208 O217 2.048 . S
Mg208 O220 2.141 . S
C209 O210 1.313 . S
C209 O216 1.195 . S
O210 C209 1.313 . S
C211 O212 1.245 . S
C211 O220 1.289 . S
O212 C211 1.245 . S
C213 O214 1.245 . S
C213 O215 1.289 . S
O214 C213 1.245 . S
O215 Mg208 2.141 . S
O215 C213 1.289 . S
O216 Mg208 2.048 . S
O216 C209 1.195 . S
O217 Mg208 2.048 . S
O217 C218 1.195 . S
C218 O217 1.195 . S
C218 O219 1.313 . S
O219 C218 1.313 . S
O220 Mg208 2.141 . S
O220 C211 1.289 . S
Mg221 O228 2.141 . S
Mg221 O229 2.048 . S
Mg221 O230 2.048 . S
Mg221 O233 2.141 . S
C222 O223 1.313 . S
C222 O229 1.195 . S
O223 C222 1.313 . S
C224 O225 1.245 . S
C224 O233 1.289 . S
O225 C224 1.245 . S
C226 O227 1.245 . S
C226 O228 1.289 . S
O227 C226 1.245 . S
O228 Mg221 2.141 . S
O228 C226 1.289 . S
O229 Mg221 2.048 . S
O229 C222 1.195 . S
O230 Mg221 2.048 . S
O230 C231 1.195 . S
C231 O230 1.195 . S
C231 O232 1.313 . S
O232 C231 1.313 . S
O233 Mg221 2.141 . S
O233 C224 1.289 . S
C234 C235 1.363 . S
C234 C240 1.379 1_556 S
C234 N242 1.356 . S
C235 C234 1.363 . S
C235 C241 1.363 . S
C236 C237 1.363 . S
C236 C241 1.379 1_554 S
C236 N243 1.356 . S
C237 C236 1.363 . S
C237 C240 1.363 . S
N238 C240 1.356 1_655 S
N238 H250 0.984 . S
N238 H251 0.985 . S
N239 C241 1.356 . S
N239 H244 0.984 . S
N239 H245 0.985 . S
C240 C234 1.379 1_554 S
C240 C237 1.363 . S
C240 N238 1.356 1_455 S
C241 C235 1.363 . S
C241 C236 1.379 1_556 S
C241 N239 1.356 . S
N242 C234 1.356 . S
N242 H248 0.984 . S
N242 H249 0.984 . S
N243 C236 1.356 . S
N243 H246 0.984 . S
N243 H247 0.985 . S
H244 N239 0.984 . S
H245 N239 0.985 . S
H246 N243 0.984 . S
H247 N243 0.985 . S
H248 N242 0.984 . S
H249 N242 0.984 . S
H250 N238 0.984 . S
H251 N238 0.985 . S
C252 C253 1.363 . S
C252 C258 1.379 1_556 S
C252 N260 1.356 . S
C253 C252 1.363 . S
C253 C259 1.363 1_556 S
C254 C255 1.363 . S
C254 C259 1.379 . S
C254 N261 1.356 . S
C255 C254 1.363 . S
C255 C258 1.363 . S
N256 C258 1.356 . S
N256 H268 0.984 1_554 S
N256 H269 0.985 . S
N257 C259 1.356 1_556 S
N257 H262 0.984 . S
N257 H263 0.985 1_556 S
C258 C252 1.379 1_554 S
C258 C255 1.363 . S
C258 N256 1.356 . S
C259 C253 1.363 1_554 S
C259 C254 1.379 . S
C259 N257 1.356 1_554 S
N260 C252 1.356 . S
N260 H266 0.984 . S
N260 H267 0.984 . S
N261 C254 1.356 . S
N261 H264 0.984 . S
N261 H265 0.985 . S
H262 N257 0.984 . S
H263 N257 0.985 1_554 S
H264 N261 0.984 . S
H265 N261 0.985 . S
H266 N260 0.984 . S
H267 N260 0.984 . S
H268 N256 0.984 1_556 S
H269 N256 0.985 . S
C270 C271 1.363 . S
C270 C276 1.379 1_554 S
C270 N278 1.356 . S
C271 C270 1.363 . S
C271 C277 1.363 . S
C272 C273 1.363 . S
C272 C277 1.379 1_556 S
C272 N279 1.356 . S
C273 C272 1.363 . S
C273 C276 1.363 . S
N274 C276 1.356 . S
N274 H286 0.984 . S
N274 H287 0.985 . S
N275 C277 1.356 . S
N275 H280 0.984 . S
N275 H281 0.985 . S
C276 C270 1.379 1_556 S
C276 C273 1.363 . S
C276 N274 1.356 . S
C277 C271 1.363 . S
C277 C272 1.379 1_554 S
C277 N275 1.356 . S
N278 C270 1.356 . S
N278 H284 0.984 . S
N278 H285 0.984 . S
N279 C272 1.356 . S
N279 H282 0.984 . S
N279 H283 0.985 . S
H280 N275 0.984 . S
H281 N275 0.985 . S
H282 N279 0.984 . S
H283 N279 0.985 . S
H284 N278 0.984 . S
H285 N278 0.984 . S
H286 N274 0.984 . S
H287 N274 0.985 . S
C288 C289 1.363 . S
C288 C294 1.379 . S
C288 N296 1.356 . S
C289 C288 1.363 . S
C289 C295 1.363 . S
C290 C291 1.363 . S
C290 C295 1.379 . S
C290 N297 1.356 . S
C291 C290 1.363 . S
C291 C294 1.363 . S
N292 C294 1.356 . S
N292 H304 0.984 . S
N292 H305 0.985 . S
N293 C295 1.356 . S
N293 H298 0.984 . S
N293 H299 0.985 . S
C294 C288 1.379 . S
C294 C291 1.363 . S
C294 N292 1.356 . S
C295 C289 1.363 . S
C295 C290 1.379 . S
C295 N293 1.356 . S
N296 C288 1.356 . S
N296 H302 0.984 . S
N296 H303 0.984 . S
N297 C290 1.356 . S
N297 H300 0.984 . S
N297 H301 0.985 . S
H298 N293 0.984 . S
H299 N293 0.985 . S
H300 N297 0.984 . S
H301 N297 0.985 . S
H302 N296 0.984 . S
H303 N296 0.984 . S
H304 N292 0.984 . S
H305 N292 0.985 . S
C306 C307 1.363 . S
C306 C312 1.379 . S
C306 N314 1.356 . S
C307 C306 1.363 . S
C307 C313 1.363 . S
C308 C309 1.363 . S
C308 C313 1.379 . S
C308 N315 1.356 1_455 S
C309 C308 1.363 . S
C309 C312 1.363 . S
N310 C312 1.356 . S
N310 H322 0.984 . S
N310 H323 0.985 . S
N311 C313 1.367 . S
N311 H316 0.988 . S
N311 H317 0.971 1_455 S
C312 C306 1.379 . S
C312 C309 1.363 . S
C312 N310 1.356 . S
C313 C307 1.363 . S
C313 C308 1.379 . S
C313 N311 1.367 . S
N314 C306 1.356 . S
N314 H320 0.984 . S
N314 H321 0.984 . S
N315 C308 1.356 1_655 S
N315 H318 0.984 . S
N315 H319 0.985 . S
H316 N311 0.988 . S
H317 N311 0.971 1_655 S
H318 N315 0.984 . S
H319 N315 0.985 . S
H320 N314 0.984 . S
H321 N314 0.984 . S
H322 N310 0.984 . S
H323 N310 0.985 . S
C324 C325 1.363 . S
C324 C330 1.379 . S
C324 N332 1.356 . S
C325 C324 1.363 . S
C325 C331 1.363 . S
C326 C327 1.363 . S
C326 C331 1.379 . S
C326 N333 1.356 . S
C327 C326 1.363 . S
C327 C330 1.363 . S
N328 C330 1.356 . S
N328 H340 0.984 . S
N328 H341 0.985 . S
N329 C331 1.356 . S
N329 H334 0.984 . S
N329 H335 0.985 . S
C330 C324 1.379 . S
C330 C327 1.363 . S
C330 N328 1.356 . S
C331 C325 1.363 . S
C331 C326 1.379 . S
C331 N329 1.356 . S
N332 C324 1.356 . S
N332 H338 0.984 . S
N332 H339 0.984 . S
N333 C326 1.356 . S
N333 H336 0.984 . S
N333 H337 0.985 . S
H334 N329 0.984 . S
H335 N329 0.985 . S
H336 N333 0.984 . S
H337 N333 0.985 . S
H338 N332 0.984 . S
H339 N332 0.984 . S
H340 N328 0.984 . S
H341 N328 0.985 . S
C342 C343 1.363 . S
C342 C348 1.379 . S
C342 N350 1.356 . S
C343 C342 1.363 . S
C343 C349 1.363 . S
C344 C345 1.363 . S
C344 C349 1.379 . S
C344 N351 1.356 . S
C345 C344 1.363 . S
C345 C348 1.363 . S
N346 C348 1.356 . S
N346 H358 0.984 . S
N346 H359 0.985 . S
N347 C349 1.356 . S
N347 H352 0.984 . S
N347 H353 0.985 . S
C348 C342 1.379 . S
C348 C345 1.363 . S
C348 N346 1.356 . S
C349 C343 1.363 . S
C349 C344 1.379 . S
C349 N347 1.356 . S
N350 C342 1.356 . S
N350 H356 0.984 . S
N350 H357 0.984 . S
N351 C344 1.356 . S
N351 H354 0.984 . S
N351 H355 0.985 . S
H352 N347 0.984 . S
H353 N347 0.985 . S
H354 N351 0.984 . S
H355 N351 0.985 . S
H356 N350 0.984 . S
H357 N350 0.984 . S
H358 N346 0.984 . S
H359 N346 0.985 . S
C360 C361 1.363 . S
C360 C366 1.379 . S
C360 N368 1.356 . S
C361 C360 1.363 . S
C361 C367 1.363 . S
C362 C363 1.363 . S
C362 C367 1.379 . S
C362 N369 1.356 . S
C363 C362 1.363 . S
C363 C366 1.363 . S
N364 C366 1.356 . S
N364 H376 0.984 . S
N364 H377 0.985 . S
N365 C367 1.356 . S
N365 H370 0.984 . S
N365 H371 0.985 . S
C366 C360 1.379 . S
C366 C363 1.363 . S
C366 N364 1.356 . S
C367 C361 1.363 . S
C367 C362 1.379 . S
C367 N365 1.356 . S
N368 C360 1.356 . S
N368 H374 0.984 . S
N368 H375 0.984 . S
N369 C362 1.356 . S
N369 H372 0.984 . S
N369 H373 0.985 . S
H370 N365 0.984 . S
H371 N365 0.985 . S
H372 N369 0.984 . S
H373 N369 0.985 . S
H374 N368 0.984 . S
H375 N368 0.984 . S
H376 N364 0.984 . S
H377 N364 0.985 . S
C378 C379 1.363 . S
C378 C384 1.379 . S
C378 N386 1.356 . S
C379 C378 1.363 . S
C379 C385 1.363 . S
C380 C381 1.363 . S
C380 C385 1.379 . S
C380 N387 1.356 . S
C381 C380 1.363 . S
C381 C384 1.363 . S
N382 C384 1.356 . S
N382 H394 0.984 . S
N382 H395 0.985 . S
N383 C385 1.356 . S
N383 H388 0.984 . S
N383 H389 0.985 . S
C384 C378 1.379 . S
C384 C381 1.363 . S
C384 N382 1.356 . S
C385 C379 1.363 . S
C385 C380 1.379 . S
C385 N383 1.356 . S
N386 C378 1.356 . S
N386 H392 0.984 . S
N386 H393 0.984 . S
N387 C380 1.356 . S
N387 H390 0.984 . S
N387 H391 0.985 . S
H388 N383 0.984 . S
H389 N383 0.985 . S
H390 N387 0.984 . S
H391 N387 0.985 . S
H392 N386 0.984 . S
H393 N386 0.984 . S
H394 N382 0.984 . S
H395 N382 0.985 . S
C396 C397 1.363 . S
C396 C402 1.379 . S
C396 N404 1.356 . S
C397 C396 1.363 . S
C397 C403 1.363 . S
C398 C399 1.363 . S
C398 C403 1.379 . S
C398 N405 1.356 . S
C399 C398 1.363 . S
C399 C402 1.363 . S
N400 C402 1.356 . S
N400 H412 0.984 . S
N400 H413 0.985 . S
N401 C403 1.356 . S
N401 H406 0.984 1_556 S
N401 H407 0.985 . S
C402 C396 1.379 . S
C402 C399 1.363 . S
C402 N400 1.356 . S
C403 C397 1.363 . S
C403 C398 1.379 . S
C403 N401 1.356 . S
N404 C396 1.356 . S
N404 H410 0.984 . S
N404 H411 0.984 . S
N405 C398 1.356 . S
N405 H408 0.984 . S
N405 H409 0.985 . S
H406 N401 0.984 1_554 S
H407 N401 0.985 . S
H408 N405 0.984 . S
H409 N405 0.985 . S
H410 N404 0.984 . S
H411 N404 0.984 . S
H412 N400 0.984 . S
H413 N400 0.985 . S
C414 C415 1.363 . S
C414 C420 1.379 . S
C414 N422 1.356 . S
C415 C414 1.363 . S
C415 C421 1.363 . S
C416 C417 1.363 . S
C416 C421 1.379 . S
C416 N423 1.356 . S
C417 C416 1.363 . S
C417 C420 1.363 . S
N418 C420 1.356 . S
N418 H430 0.984 . S
N418 H431 0.985 . S
N419 C421 1.356 . S
N419 H424 0.984 . S
N419 H425 0.985 . S
C420 C414 1.379 . S
C420 C417 1.363 . S
C420 N418 1.356 . S
C421 C415 1.363 . S
C421 C416 1.379 . S
C421 N419 1.356 . S
N422 C414 1.356 . S
N422 H428 0.984 . S
N422 H429 0.984 . S
N423 C416 1.356 . S
N423 H426 0.984 . S
N423 H427 0.985 . S
H424 N419 0.984 . S
H425 N419 0.985 . S
H426 N423 0.984 . S
H427 N423 0.985 . S
H428 N422 0.984 . S
H429 N422 0.984 . S
H430 N418 0.984 . S
H431 N418 0.985 . S
C432 C433 1.363 . S
C432 C438 1.379 . S
C432 N440 1.356 . S
C433 C432 1.363 . S
C433 C439 1.363 . S
C434 C435 1.363 . S
C434 C439 1.379 . S
C434 N441 1.356 . S
C435 C434 1.363 . S
C435 C438 1.363 . S
N436 C438 1.356 . S
N436 H448 0.984 . S
N436 H449 0.985 . S
N437 C439 1.356 . S
N437 H442 0.984 . S
N437 H443 0.985 . S
C438 C432 1.379 . S
C438 C435 1.363 . S
C438 N436 1.356 . S
C439 C433 1.363 . S
C439 C434 1.379 . S
C439 N437 1.356 . S
N440 C432 1.356 . S
N440 H446 0.984 . S
N440 H447 0.984 . S
N441 C434 1.356 . S
N441 H444 0.984 . S
N441 H445 0.985 . S
H442 N437 0.984 . S
H443 N437 0.985 . S
H444 N441 0.984 . S
H445 N441 0.985 . S
H446 N440 0.984 . S
H447 N440 0.984 . S
H448 N436 0.984 . S
H449 N436 0.985 . S
C450 C451 1.363 . S
C450 C456 1.379 . S
C450 N458 1.356 . S
C451 C450 1.363 . S
C451 C457 1.363 . S
C452 C453 1.363 . S
C452 C457 1.379 . S
C452 N459 1.356 . S
C453 C452 1.363 . S
C453 C456 1.363 . S
N454 C456 1.356 . S
N454 H466 0.984 . S
N454 H467 0.985 . S
N455 C457 1.356 . S
N455 H460 0.984 . S
N455 H461 0.985 . S
C456 C450 1.379 . S
C456 C453 1.363 . S
C456 N454 1.356 . S
C457 C451 1.363 . S
C457 C452 1.379 . S
C457 N455 1.356 . S
N458 C450 1.356 . S
N458 H464 0.984 . S
N458 H465 0.984 . S
N459 C452 1.356 . S
N459 H462 0.984 . S
N459 H463 0.985 . S
H460 N455 0.984 . S
H461 N455 0.985 . S
H462 N459 0.984 . S
H463 N459 0.985 . S
H464 N458 0.984 . S
H465 N458 0.984 . S
H466 N454 0.984 . S
H467 N454 0.985 . S
C468 C469 1.363 . S
C468 C474 1.379 . S
C468 N476 1.356 . S
C469 C468 1.363 . S
C469 C475 1.363 . S
C470 C471 1.363 . S
C470 C475 1.379 . S
C470 N477 1.356 . S
C471 C470 1.363 . S
C471 C474 1.363 . S
N472 C474 1.356 . S
N472 H484 0.984 . S
N472 H485 0.985 . S
N473 C475 1.356 . S
N473 H478 0.984 . S
N473 H479 0.985 . S
C474 C468 1.379 . S
C474 C471 1.363 . S
C474 N472 1.356 . S
C475 C469 1.363 . S
C475 C470 1.379 . S
C475 N473 1.356 . S
N476 C468 1.356 . S
N476 H482 0.984 . S
N476 H483 0.984 . S
N477 C470 1.356 . S
N477 H480 0.984 . S
N477 H481 0.985 . S
H478 N473 0.984 . S
H479 N473 0.985 . S
H480 N477 0.984 . S
H481 N477 0.985 . S
H482 N476 0.984 . S
H483 N476 0.984 . S
H484 N472 0.984 . S
H485 N472 0.985 . S
C486 C487 1.363 . S
C486 C492 1.379 . S
C486 N494 1.356 . S
C487 C486 1.363 . S
C487 C493 1.363 . S
C488 C489 1.363 . S
C488 C493 1.379 . S
C488 N495 1.356 . S
C489 C488 1.363 . S
C489 C492 1.363 . S
N490 C492 1.356 . S
N490 H502 0.984 . S
N490 H503 0.985 . S
N491 C493 1.356 . S
N491 H496 0.984 . S
N491 H497 0.985 . S
C492 C486 1.379 . S
C492 C489 1.363 . S
C492 N490 1.356 . S
C493 C487 1.363 . S
C493 C488 1.379 . S
C493 N491 1.356 . S
N494 C486 1.356 . S
N494 H500 0.984 . S
N494 H501 0.984 . S
N495 C488 1.356 . S
N495 H498 0.984 . S
N495 H499 0.985 . S
H496 N491 0.984 . S
H497 N491 0.985 . S
H498 N495 0.984 . S
H499 N495 0.985 . S
H500 N494 0.984 . S
H501 N494 0.984 . S
H502 N490 0.984 . S
H503 N490 0.985 . S
C504 C505 1.363 . S
C504 C510 1.379 . S
C504 N512 1.356 . S
C505 C504 1.363 . S
C505 C511 1.363 . S
C506 C507 1.363 . S
C506 C511 1.379 . S
C506 N513 1.356 . S
C507 C506 1.363 . S
C507 C510 1.363 . S
N508 C510 1.356 . S
N508 H520 0.984 . S
N508 H521 0.985 . S
N509 C511 1.356 . S
N509 H514 0.984 . S
N509 H515 0.985 . S
C510 C504 1.379 . S
C510 C507 1.363 . S
C510 N508 1.356 . S
C511 C505 1.363 . S
C511 C506 1.379 . S
C511 N509 1.356 . S
N512 C504 1.356 . S
N512 H518 0.984 . S
N512 H519 0.984 . S
N513 C506 1.356 . S
N513 H516 0.984 . S
N513 H517 0.985 . S
H514 N509 0.984 . S
H515 N509 0.985 . S
H516 N513 0.984 . S
H517 N513 0.985 . S
H518 N512 0.984 . S
H519 N512 0.984 . S
H520 N508 0.984 . S
H521 N508 0.985 . S
C522 C523 1.363 . S
C522 C528 1.379 . S
C522 N530 1.356 . S
C523 C522 1.363 . S
C523 C529 1.363 . S
C524 C525 1.363 . S
C524 C529 1.379 . S
C524 N531 1.356 . S
C525 C524 1.363 . S
C525 C528 1.363 . S
N526 C528 1.356 . S
N526 H538 0.984 . S
N526 H539 0.985 . S
N527 C529 1.356 . S
N527 H532 0.984 . S
N527 H533 0.985 . S
C528 C522 1.379 . S
C528 C525 1.363 . S
C528 N526 1.356 . S
C529 C523 1.363 . S
C529 C524 1.379 . S
C529 N527 1.356 . S
N530 C522 1.356 . S
N530 H536 0.984 . S
N530 H537 0.984 . S
N531 C524 1.356 . S
N531 H534 0.984 . S
N531 H535 0.985 . S
H532 N527 0.984 . S
H533 N527 0.985 . S
H534 N531 0.984 . S
H535 N531 0.985 . S
H536 N530 0.984 . S
H537 N530 0.984 . S
H538 N526 0.984 . S
H539 N526 0.985 . S
C540 C541 1.363 . S
C540 C546 1.379 . S
C540 N548 1.356 . S
C541 C540 1.363 . S
C541 C547 1.363 . S
C542 C543 1.363 . S
C542 C547 1.379 . S
C542 N549 1.356 . S
C543 C542 1.363 . S
C543 C546 1.363 . S
N544 C546 1.356 . S
N544 H556 0.984 . S
N544 H557 0.985 . S
N545 C547 1.356 . S
N545 H550 0.984 . S
N545 H551 0.985 . S
C546 C540 1.379 . S
C546 C543 1.363 . S
C546 N544 1.356 . S
C547 C541 1.363 . S
C547 C542 1.379 . S
C547 N545 1.356 . S
N548 C540 1.356 . S
N548 H554 0.984 . S
N548 H555 0.984 . S
N549 C542 1.356 . S
N549 H552 0.984 . S
N549 H553 0.985 . S
H550 N545 0.984 . S
H551 N545 0.985 . S
H552 N549 0.984 . S
H553 N549 0.985 . S
H554 N548 0.984 . S
H555 N548 0.984 . S
H556 N544 0.984 . S
H557 N544 0.985 . S
C558 C559 1.363 . S
C558 C564 1.379 . S
C558 N566 1.356 . S
C559 C558 1.363 . S
C559 C565 1.363 . S
C560 C561 1.363 . S
C560 C565 1.379 . S
C560 N567 1.356 . S
C561 C560 1.363 . S
C561 C564 1.363 . S
N562 C564 1.356 . S
N562 H574 0.984 . S
N562 H575 0.985 . S
N563 C565 1.356 . S
N563 H568 0.984 . S
N563 H569 0.985 . S
C564 C558 1.379 . S
C564 C561 1.363 . S
C564 N562 1.356 . S
C565 C559 1.363 . S
C565 C560 1.379 . S
C565 N563 1.356 . S
N566 C558 1.356 . S
N566 H572 0.984 . S
N566 H573 0.984 . S
N567 C560 1.356 . S
N567 H570 0.984 . S
N567 H571 0.985 . S
H568 N563 0.984 . S
H569 N563 0.985 . S
H570 N567 0.984 . S
H571 N567 0.985 . S
H572 N566 0.984 . S
H573 N566 0.984 . S
H574 N562 0.984 . S
H575 N562 0.985 . S
C576 C577 1.363 . S
C576 C582 1.379 . S
C576 N584 1.356 . S
C577 C576 1.363 . S
C577 C583 1.363 . S
C578 C579 1.363 . S
C578 C583 1.379 . S
C578 N585 1.356 . S
C579 C578 1.363 . S
C579 C582 1.363 . S
N580 C582 1.356 . S
N580 H592 0.984 . S
N580 H593 0.985 . S
N581 C583 1.356 . S
N581 H586 0.984 . S
N581 H587 0.985 . S
C582 C576 1.379 . S
C582 C579 1.363 . S
C582 N580 1.356 . S
C583 C577 1.363 . S
C583 C578 1.379 . S
C583 N581 1.356 . S
N584 C576 1.356 . S
N584 H590 0.984 . S
N584 H591 0.984 . S
N585 C578 1.356 . S
N585 H588 0.984 . S
N585 H589 0.985 . S
H586 N581 0.984 . S
H587 N581 0.985 . S
H588 N585 0.984 . S
H589 N585 0.985 . S
H590 N584 0.984 . S
H591 N584 0.984 . S
H592 N580 0.984 . S
H593 N580 0.985 . S
C594 C595 1.363 . S
C594 C600 1.379 . S
C594 N602 1.356 . S
C595 C594 1.363 . S
C595 C601 1.363 . S
C596 C597 1.363 . S
C596 C601 1.401 . S
C596 N603 1.356 . S
C597 C596 1.363 . S
C597 C600 1.363 . S
N598 C600 1.356 . S
N598 H610 0.984 . S
N598 H611 0.985 . S
N599 C601 1.331 1_565 S
N599 H604 0.984 . S
N599 H605 0.985 . S
C600 C594 1.379 . S
C600 C597 1.363 . S
C600 N598 1.356 . S
C601 C595 1.363 . S
C601 C596 1.401 . S
C601 N599 1.331 1_545 S
N602 C594 1.356 . S
N602 H608 0.984 . S
N602 H609 0.984 . S
N603 C596 1.356 . S
N603 H606 0.984 . S
N603 H607 0.985 1_545 S
H604 N599 0.984 . S
H605 N599 0.985 . S
H606 N603 0.984 . S
H607 N603 0.985 1_565 S
H608 N602 0.984 . S
H609 N602 0.984 . S
H610 N598 0.984 . S
H611 N598 0.985 . S
C612 C613 1.363 . S
C612 C618 1.379 . S
C612 N620 1.356 . S
C613 C612 1.363 . S
C613 C619 1.363 . S
C614 C615 1.363 . S
C614 C619 1.379 . S
C614 N621 1.356 . S
C615 C614 1.363 . S
C615 C618 1.363 . S
N616 C618 1.356 . S
N616 H628 0.984 . S
N616 H629 0.985 . S
N617 C619 1.356 . S
N617 H622 0.984 . S
N617 H623 0.985 . S
C618 C612 1.379 . S
C618 C615 1.363 . S
C618 N616 1.356 . S
C619 C613 1.363 . S
C619 C614 1.379 . S
C619 N617 1.356 . S
N620 C612 1.356 . S
N620 H626 0.984 . S
N620 H627 0.984 . S
N621 C614 1.356 . S
N621 H624 0.984 1_554 S
N621 H625 0.985 1_554 S
H622 N617 0.984 . S
H623 N617 0.985 . S
H624 N621 0.984 1_556 S
H625 N621 0.985 1_556 S
H626 N620 0.984 . S
H627 N620 0.984 . S
H628 N616 0.984 . S
H629 N616 0.985 . S
C630 C631 1.363 . S
C630 C636 1.379 . S
C630 N638 1.356 . S
C631 C630 1.363 . S
C631 C637 1.363 . S
C632 C633 1.369 . S
C632 C637 1.379 . S
C632 N639 1.356 1_654 S
C633 C632 1.369 . S
C633 C636 1.383 . S
N634 C636 1.356 . S
N634 H646 0.984 . S
N634 H647 0.985 1_655 S
N635 C637 1.356 1_556 S
N635 H640 0.984 . S
N635 H641 0.985 . S
C636 C630 1.379 . S
C636 C633 1.383 . S
C636 N634 1.356 . S
C637 C631 1.363 . S
C637 C632 1.379 . S
C637 N635 1.356 1_554 S
N638 C630 1.356 . S
N638 H644 0.984 . S
N638 H645 0.984 . S
N639 C632 1.356 1_456 S
N639 H642 0.984 1_556 S
N639 H643 0.985 . S
H640 N635 0.984 . S
H641 N635 0.985 . S
H642 N639 0.984 1_554 S
H643 N639 0.985 . S
H644 N638 0.984 . S
H645 N638 0.984 . S
H646 N634 0.984 . S
H647 N634 0.985 1_455 S
C648 C649 1.363 . S
C648 C654 1.379 . S
C648 N656 1.356 1_554 S
C649 C648 1.363 . S
C649 C655 1.363 . S
C650 C651 1.363 . S
C650 C655 1.379 . S
C650 N657 1.356 . S
C651 C650 1.363 . S
C651 C654 1.363 . S
N652 C654 1.356 . S
N652 H664 0.984 1_554 S
N652 H665 0.985 . S
N653 C655 1.356 . S
N653 H658 0.984 . S
N653 H659 0.985 . S
C654 C648 1.379 . S
C654 C651 1.363 . S
C654 N652 1.356 . S
C655 C649 1.363 . S
C655 C650 1.379 . S
C655 N653 1.356 . S
N656 C648 1.356 1_556 S
N656 H662 0.984 . S
N656 H663 0.984 . S
N657 C650 1.356 . S
N657 H660 0.984 . S
N657 H661 0.985 . S
H658 N653 0.984 . S
H659 N653 0.985 . S
H660 N657 0.984 . S
H661 N657 0.985 . S
H662 N656 0.984 . S
H663 N656 0.984 . S
H664 N652 0.984 1_556 S
H665 N652 0.985 . S
C666 C667 1.374 . S
C666 C672 1.380 1_655 S
C666 N674 1.348 1_655 S
C667 C666 1.374 . S
C667 C673 1.363 . S
C668 C669 1.363 1_655 S
C668 C673 1.379 . S
C668 N675 1.356 . S
C669 C668 1.363 1_455 S
C669 C672 1.363 . S
N670 C672 1.356 . S
N670 H682 0.984 . S
N670 H683 0.985 . S
N671 C673 1.356 . S
N671 H676 0.984 . S
N671 H677 0.985 . S
C672 C666 1.380 1_455 S
C672 C669 1.363 . S
C672 N670 1.356 . S
C673 C667 1.363 . S
C673 C668 1.379 . S
C673 N671 1.356 . S
N674 C666 1.348 1_455 S
N674 H680 0.983 . S
N674 H681 0.985 1_455 S
N675 C668 1.356 . S
N675 H678 0.984 . S
N675 H679 0.985 . S
H676 N671 0.984 . S
H677 N671 0.985 . S
H678 N675 0.984 . S
H679 N675 0.985 . S
H680 N674 0.983 . S
H681 N674 0.985 1_655 S
H682 N670 0.984 . S
H683 N670 0.985 . S
C684 C685 1.363 . S
C684 C690 1.379 . S
C684 N692 1.356 . S
C685 C684 1.363 . S
C685 C691 1.363 . S
C686 C687 1.363 . S
C686 C691 1.379 . S
C686 N693 1.356 . S
C687 C686 1.363 . S
C687 C690 1.363 . S
N688 C690 1.356 . S
N688 H700 0.984 . S
N688 H701 0.985 . S
N689 C691 1.356 . S
N689 H694 0.984 . S
N689 H695 0.985 . S
C690 C684 1.379 . S
C690 C687 1.363 . S
C690 N688 1.356 . S
C691 C685 1.363 . S
C691 C686 1.379 . S
C691 N689 1.356 . S
N692 C684 1.356 . S
N692 H698 0.984 . S
N692 H699 0.984 . S
N693 C686 1.356 . S
N693 H696 0.984 . S
N693 H697 0.985 . S
H694 N689 0.984 . S
H695 N689 0.985 . S
H696 N693 0.984 . S
H697 N693 0.985 . S
H698 N692 0.984 . S
H699 N692 0.984 . S
H700 N688 0.984 . S
H701 N688 0.985 . S
C702 C703 1.363 . S
C702 C708 1.379 . S
C702 N710 1.356 . S
C703 C702 1.363 . S
C703 C709 1.363 . S
C704 C705 1.363 . S
C704 C709 1.379 . S
C704 N711 1.356 . S
C705 C704 1.363 . S
C705 C708 1.363 . S
N706 C708 1.356 . S
N706 H718 0.984 . S
N706 H719 0.985 . S
N707 C709 1.356 . S
N707 H712 0.984 . S
N707 H713 0.985 . S
C708 C702 1.379 . S
C708 C705 1.363 . S
C708 N706 1.356 . S
C709 C703 1.363 . S
C709 C704 1.379 . S
C709 N707 1.356 . S
N710 C702 1.356 . S
N710 H716 0.984 . S
N710 H717 0.984 . S
N711 C704 1.356 . S
N711 H714 0.984 . S
N711 H715 0.985 . S
H712 N707 0.984 . S
H713 N707 0.985 . S
H714 N711 0.984 . S
H715 N711 0.985 . S
H716 N710 0.984 . S
H717 N710 0.984 . S
H718 N706 0.984 . S
H719 N706 0.985 . S
C720 C721 1.363 . S
C720 C726 1.379 . S
C720 N728 1.356 1_545 S
C721 C720 1.363 . S
C721 C727 1.363 . S
C722 C723 1.363 . S
C722 C727 1.379 . S
C722 N729 1.356 . S
C723 C722 1.363 . S
C723 C726 1.363 . S
N724 C726 1.356 . S
N724 H736 0.984 1_545 S
N724 H737 0.985 . S
N725 C727 1.356 . S
N725 H730 0.984 . S
N725 H731 0.985 . S
C726 C720 1.379 . S
C726 C723 1.363 . S
C726 N724 1.356 . S
C727 C721 1.363 . S
C727 C722 1.379 . S
C727 N725 1.356 . S
N728 C720 1.356 1_565 S
N728 H734 0.984 . S
N728 H735 0.984 . S
N729 C722 1.356 . S
N729 H732 0.984 . S
N729 H733 0.985 . S
H730 N725 0.984 . S
H731 N725 0.985 . S
H732 N729 0.984 . S
H733 N729 0.985 . S
H734 N728 0.984 . S
H735 N728 0.984 . S
H736 N724 0.984 1_565 S
H737 N724 0.985 . S
C738 C739 1.363 . S
C738 C744 1.379 . S
C738 N746 1.356 . S
C739 C738 1.363 . S
C739 C745 1.363 . S
C740 C741 1.363 . S
C740 C745 1.379 . S
C740 N747 1.356 . S
C741 C740 1.363 . S
C741 C744 1.363 . S
N742 C744 1.356 1_554 S
N742 H754 0.984 . S
N742 H755 0.985 . S
N743 C745 1.356 . S
N743 H748 0.984 . S
N743 H749 0.985 . S
C744 C738 1.379 . S
C744 C741 1.363 . S
C744 N742 1.356 1_556 S
C745 C739 1.363 . S
C745 C740 1.379 . S
C745 N743 1.356 . S
N746 C738 1.356 . S
N746 H752 0.984 1_556 S
N746 H753 0.984 . S
N747 C740 1.356 . S
N747 H750 0.984 . S
N747 H751 0.985 . S
H748 N743 0.984 . S
H749 N743 0.985 . S
H750 N747 0.984 . S
H751 N747 0.985 . S
H752 N746 0.984 1_554 S
H753 N746 0.984 . S
H754 N742 0.984 . S
H755 N742 0.985 . S
C756 C757 1.363 . S
C756 C762 1.379 . S
C756 N764 1.356 . S
C757 C756 1.363 . S
C757 C763 1.363 . S
C758 C759 1.363 . S
C758 C763 1.379 . S
C758 N765 1.356 1_556 S
C759 C758 1.363 . S
C759 C762 1.363 . S
N760 C762 1.356 . S
N760 H772 0.984 . S
N760 H773 0.985 . S
N761 C763 1.356 . S
N761 H766 0.984 . S
N761 H767 0.985 1_556 S
C762 C756 1.379 . S
C762 C759 1.363 . S
C762 N760 1.356 . S
C763 C757 1.363 . S
C763 C758 1.379 . S
C763 N761 1.356 . S
N764 C756 1.356 . S
N764 H770 0.984 . S
N764 H771 0.984 . S
N765 C758 1.356 1_554 S
N765 H768 0.984 . S
N765 H769 0.985 . S
H766 N761 0.984 . S
H767 N761 0.985 1_554 S
H768 N765 0.984 . S
H769 N765 0.985 . S
H770 N764 0.984 . S
H771 N764 0.984 . S
H772 N760 0.984 . S
H773 N760 0.985 . S
C774 C775 1.363 . S
C774 C780 1.379 . S
C774 N782 1.356 . S
C775 C774 1.363 . S
C775 C781 1.363 . S
C776 C777 1.363 . S
C776 C781 1.379 . S
C776 N783 1.356 . S
C777 C776 1.363 . S
C777 C780 1.363 . S
N778 C780 1.356 . S
N778 H790 0.984 . S
N778 H791 0.985 . S
N779 C781 1.356 . S
N779 H784 0.984 . S
N779 H785 0.985 . S
C780 C774 1.379 . S
C780 C777 1.363 . S
C780 N778 1.356 . S
C781 C775 1.363 . S
C781 C776 1.379 . S
C781 N779 1.356 . S
N782 C774 1.356 . S
N782 H788 0.984 . S
N782 H789 0.984 . S
N783 C776 1.356 . S
N783 H786 0.984 . S
N783 H787 0.985 . S
H784 N779 0.984 . S
H785 N779 0.985 . S
H786 N783 0.984 . S
H787 N783 0.985 . S
H788 N782 0.984 . S
H789 N782 0.984 . S
H790 N778 0.984 . S
H791 N778 0.985 . S
C792 C793 1.363 . S
C792 C798 1.379 . S
C792 N800 1.356 . S
C793 C792 1.363 . S
C793 C799 1.363 . S
C794 C795 1.348 1_455 S
C794 C799 1.379 . S
C794 N801 1.356 1_455 S
C795 C794 1.348 1_655 S
C795 C798 1.354 1_655 S
N796 C798 1.356 . S
N796 H808 0.984 . S
N796 H809 0.985 1_455 S
N797 C799 1.356 . S
N797 H802 0.984 . S
N797 H803 0.985 . S
C798 C792 1.379 . S
C798 C795 1.354 1_455 S
C798 N796 1.356 . S
C799 C793 1.363 . S
C799 C794 1.379 . S
C799 N797 1.356 . S
N800 C792 1.356 . S
N800 H806 0.984 . S
N800 H807 0.984 . S
N801 C794 1.356 1_655 S
N801 H804 0.984 . S
N801 H805 0.985 . S
H802 N797 0.984 . S
H803 N797 0.985 . S
H804 N801 0.984 . S
H805 N801 0.985 . S
H806 N800 0.984 . S
H807 N800 0.984 . S
H808 N796 0.984 . S
H809 N796 0.985 1_655 S
C810 C811 1.363 . S
C810 C816 1.379 . S
C810 N818 1.356 . S
C811 C810 1.363 . S
C811 C817 1.363 . S
C812 C813 1.363 . S
C812 C817 1.379 . S
C812 N819 1.356 . S
C813 C812 1.363 . S
C813 C816 1.363 . S
N814 C816 1.356 . S
N814 H826 0.984 . S
N814 H827 0.985 . S
N815 C817 1.356 . S
N815 H820 0.984 . S
N815 H821 0.985 . S
C816 C810 1.379 . S
C816 C813 1.363 . S
C816 N814 1.356 . S
C817 C811 1.363 . S
C817 C812 1.379 . S
C817 N815 1.356 . S
N818 C810 1.356 . S
N818 H824 0.984 . S
N818 H825 0.984 . S
N819 C812 1.356 . S
N819 H822 0.984 . S
N819 H823 0.985 . S
H820 N815 0.984 . S
H821 N815 0.985 . S
H822 N819 0.984 . S
H823 N819 0.985 . S
H824 N818 0.984 . S
H825 N818 0.984 . S
H826 N814 0.984 . S
H827 N814 0.985 . S
C828 C829 1.363 . S
C828 C834 1.379 . S
C828 N836 1.356 . S
C829 C828 1.363 . S
C829 C835 1.363 . S
C830 C831 1.363 . S
C830 C835 1.379 . S
C830 N837 1.356 . S
C831 C830 1.363 . S
C831 C834 1.363 . S
N832 C834 1.356 . S
N832 H844 0.984 . S
N832 H845 0.985 . S
N833 C835 1.356 1_655 S
N833 H838 0.984 . S
N833 H839 0.985 . S
C834 C828 1.379 . S
C834 C831 1.363 . S
C834 N832 1.356 . S
C835 C829 1.363 . S
C835 C830 1.379 . S
C835 N833 1.356 1_455 S
N836 C828 1.356 . S
N836 H842 0.984 . S
N836 H843 0.984 1_455 S
N837 C830 1.356 . S
N837 H840 0.984 . S
N837 H841 0.985 . S
H838 N833 0.984 . S
H839 N833 0.985 . S
H840 N837 0.984 . S
H841 N837 0.985 . S
H842 N836 0.984 . S
H843 N836 0.984 1_655 S
H844 N832 0.984 . S
H845 N832 0.985 . S
C846 C847 1.363 . S
C846 C852 1.379 . S
C846 N854 1.356 . S
C847 C846 1.363 . S
C847 C853 1.363 . S
C848 C849 1.363 . S
C848 C853 1.379 . S
C848 N855 1.356 . S
C849 C848 1.363 . S
C849 C852 1.363 . S
N850 C852 1.356 . S
N850 H862 0.984 . S
N850 H863 0.985 . S
N851 C853 1.356 . S
N851 H856 0.984 . S
N851 H857 0.985 . S
C852 C846 1.379 . S
C852 C849 1.363 . S
C852 N850 1.356 . S
C853 C847 1.363 . S
C853 C848 1.379 . S
C853 N851 1.356 . S
N854 C846 1.356 . S
N854 H860 0.984 . S
N854 H861 0.984 . S
N855 C848 1.356 . S
N855 H858 0.984 . S
N855 H859 0.985 . S
H856 N851 0.984 . S
H857 N851 0.985 . S
H858 N855 0.984 . S
H859 N855 0.985 . S
H860 N854 0.984 . S
H861 N854 0.984 . S
H862 N850 0.984 . S
H863 N850 0.985 . S
C864 C865 1.363 . S
C864 C870 1.379 . S
C864 N872 1.356 . S
C865 C864 1.363 . S
C865 C871 1.363 . S
C866 C867 1.363 . S
C866 C871 1.379 . S
C866 N873 1.356 . S
C867 C866 1.363 . S
C867 C870 1.363 . S
N868 C870 1.356 . S
N868 H880 0.984 . S
N868 H881 0.985 . S
N869 C871 1.356 . S
N869 H874 0.984 . S
N869 H875 0.985 . S
C870 C864 1.379 . S
C870 C867 1.363 . S
C870 N868 1.356 . S
C871 C865 1.363 . S
C871 C866 1.379 . S
C871 N869 1.356 . S
N872 C864 1.356 . S
N872 H878 0.984 . S
N872 H879 0.984 . S
N873 C866 1.356 . S
N873 H876 0.984 . S
N873 H877 0.985 . S
H874 N869 0.984 . S
H875 N869 0.985 . S
H876 N873 0.984 . S
H877 N873 0.985 . S
H878 N872 0.984 . S
H879 N872 0.984 . S
H880 N868 0.984 . S
H881 N868 0.985 . S
C235 C44 1.836 . S
C237 C5 1.972 . S
C253 C57 1.844 . S
C255 C16 1.832 . S
C271 C27 1.812 . S
C273 C66 1.905 . S
C289 C31 1.979 . S
C291 C70 1.839 . S
C307 C1 1.817 . S
C309 C40 1.904 . S
C325 C53 1.909 . S
C327 C23 1.915 . S
C343 C118 1.945 . S
C345 C83 1.957 . S
C361 C94 1.842 . S
C363 C131 1.960 . S
C379 C109 1.947 . S
C381 C144 1.935 . S
C397 C148 1.823 . S
C399 C105 1.843 . S
C415 C122 1.799 . S
C417 C79 1.819 . S
C433 C135 1.816 . S
C435 C101 1.932 . S
C451 C161 1.977 . S
C453 C200 1.848 . S
C469 C172 1.844 . S
C471 C213 1.845 . S
C487 C183 1.823 . S
C489 C222 1.916 . S
C505 C226 1.844 . S
C507 C187 1.986 . S
C523 C196 1.915 . S
C525 C157 1.834 . S
C541 C209 1.922 . S
C543 C179 1.922 . S
C559 C10 1.658 . S
C561 C96 1.665 . S
C577 C14 1.600 . S
C579 C107 1.597 . S
C595 C81 1.525 1_545 S
C597 C29 1.526 . S
C613 C36 1.705 . S
C615 C170 1.638 . S
C631 C185 1.514 . S
C633 C3 1.503 1_655 S
C649 C166 1.645 . S
C651 C18 1.652 . S
C667 C211 1.650 . S
C669 C49 1.582 . S
C685 C62 1.647 . S
C687 C231 1.635 . S
C703 C198 1.586 . S
C705 C68 1.585 . S
C721 C133 1.676 . S
C723 C75 1.607 . S
C739 C42 1.597 . S
C741 C146 1.598 . S
C757 C55 1.606 . S
C759 C120 1.605 . S
C775 C88 1.628 . S
C777 C174 1.634 . S
C793 C92 1.630 . S
C795 C192 1.714 . S
C811 C114 1.619 . S
C813 C159 1.560 . S
C829 C218 1.624 1_455 S
C831 C153 1.632 . S
C847 C224 1.623 . S
C849 C127 1.562 . S
C865 C140 1.620 . S
C867 C205 1.620 . S
