# Generated by pormake.
# Topology nfb, (4)-cn, num edge types: 1
# Building blocks:
#     Node 0, Type 0, BuildingBlock: CEKHIL_clean_sbu_0, # of connection points: 4
#     Node 1, Type 0, BuildingBlock: CEKHIL_clean_sbu_0, # of connection points: 4
#     Node 2, Type 0, BuildingBlock: CEKHIL_clean_sbu_0, # of connection points: 4
#     Node 3, Type 0, BuildingBlock: CEKHIL_clean_sbu_0, # of connection points: 4
#     Node 4, Type 0, BuildingBlock: CEKHIL_clean_sbu_0, # of connection points: 4
#     Node 5, Type 0, BuildingBlock: CEKHIL_clean_sbu_0, # of connection points: 4
#     Node 6, Type 0, BuildingBlock: CEKHIL_clean_sbu_0, # of connection points: 4
#     Node 7, Type 0, BuildingBlock: CEKHIL_clean_sbu_0, # of connection points: 4
#     Node 8, Type 0, BuildingBlock: CEKHIL_clean_sbu_0, # of connection points: 4
#     Node 9, Type 0, BuildingBlock: CEKHIL_clean_sbu_0, # of connection points: 4
#     Node 10, Type 0, BuildingBlock: CEKHIL_clean_sbu_0, # of connection points: 4
#     Node 11, Type 0, BuildingBlock: CEKHIL_clean_sbu_0, # of connection points: 4
#     Node 12, Type 0, BuildingBlock: CEKHIL_clean_sbu_0, # of connection points: 4
#     Node 13, Type 0, BuildingBlock: CEKHIL_clean_sbu_0, # of connection points: 4
#     Node 14, Type 0, BuildingBlock: CEKHIL_clean_sbu_0, # of connection points: 4
#     Node 15, Type 0, BuildingBlock: CEKHIL_clean_sbu_0, # of connection points: 4
#     Node 16, Type 0, BuildingBlock: CEKHIL_clean_sbu_0, # of connection points: 4
#     Node 17, Type 0, BuildingBlock: CEKHIL_clean_sbu_0, # of connection points: 4
#     Node 18, Type 0, BuildingBlock: CEKHIL_clean_sbu_0, # of connection points: 4
#     Node 19, Type 0, BuildingBlock: CEKHIL_clean_sbu_0, # of connection points: 4
#     Node 20, Type 0, BuildingBlock: CEKHIL_clean_sbu_0, # of connection points: 4
#     Node 21, Type 0, BuildingBlock: CEKHIL_clean_sbu_0, # of connection points: 4
#     Node 22, Type 0, BuildingBlock: CEKHIL_clean_sbu_0, # of connection points: 4
#     Node 23, Type 0, BuildingBlock: CEKHIL_clean_sbu_0, # of connection points: 4
#     Node 24, Type 0, BuildingBlock: CEKHIL_clean_sbu_0, # of connection points: 4
#     Node 25, Type 0, BuildingBlock: CEKHIL_clean_sbu_0, # of connection points: 4
#     Node 26, Type 0, BuildingBlock: CEKHIL_clean_sbu_0, # of connection points: 4
#     Node 27, Type 0, BuildingBlock: CEKHIL_clean_sbu_0, # of connection points: 4
#     Node 28, Type 0, BuildingBlock: CEKHIL_clean_sbu_0, # of connection points: 4
#     Node 29, Type 0, BuildingBlock: CEKHIL_clean_sbu_0, # of connection points: 4
#     Node 30, Type 0, BuildingBlock: CEKHIL_clean_sbu_0, # of connection points: 4
#     Node 31, Type 0, BuildingBlock: CEKHIL_clean_sbu_0, # of connection points: 4
#     Node 32, Type 0, BuildingBlock: CEKHIL_clean_sbu_0, # of connection points: 4
#     Node 33, Type 0, BuildingBlock: CEKHIL_clean_sbu_0, # of connection points: 4
#     Node 34, Type 0, BuildingBlock: CEKHIL_clean_sbu_0, # of connection points: 4
#     Node 35, Type 0, BuildingBlock: CEKHIL_clean_sbu_0, # of connection points: 4
#     Node 36, Type 0, BuildingBlock: CEKHIL_clean_sbu_0, # of connection points: 4
#     Node 37, Type 0, BuildingBlock: CEKHIL_clean_sbu_0, # of connection points: 4
#     Node 38, Type 0, BuildingBlock: CEKHIL_clean_sbu_0, # of connection points: 4
#     Node 39, Type 0, BuildingBlock: CEKHIL_clean_sbu_0, # of connection points: 4
#     Node 40, Type 0, BuildingBlock: CEKHIL_clean_sbu_0, # of connection points: 4
#     Node 41, Type 0, BuildingBlock: CEKHIL_clean_sbu_0, # of connection points: 4
#     Node 42, Type 0, BuildingBlock: CEKHIL_clean_sbu_0, # of connection points: 4
#     Node 43, Type 0, BuildingBlock: CEKHIL_clean_sbu_0, # of connection points: 4
#     Node 44, Type 0, BuildingBlock: CEKHIL_clean_sbu_0, # of connection points: 4
#     Node 45, Type 0, BuildingBlock: CEKHIL_clean_sbu_0, # of connection points: 4
#     Node 46, Type 0, BuildingBlock: CEKHIL_clean_sbu_0, # of connection points: 4
#     Node 47, Type 0, BuildingBlock: CEKHIL_clean_sbu_0, # of connection points: 4
#     Edge 48, Type (0, 0), None
#     Edge 49, Type (0, 0), None
#     Edge 50, Type (0, 0), None
#     Edge 51, Type (0, 0), None
#     Edge 52, Type (0, 0), None
#     Edge 53, Type (0, 0), None
#     Edge 54, Type (0, 0), None
#     Edge 55, Type (0, 0), None
#     Edge 56, Type (0, 0), None
#     Edge 57, Type (0, 0), None
#     Edge 58, Type (0, 0), None
#     Edge 59, Type (0, 0), None
#     Edge 60, Type (0, 0), None
#     Edge 61, Type (0, 0), None
#     Edge 62, Type (0, 0), None
#     Edge 63, Type (0, 0), None
#     Edge 64, Type (0, 0), None
#     Edge 65, Type (0, 0), None
#     Edge 66, Type (0, 0), None
#     Edge 67, Type (0, 0), None
#     Edge 68, Type (0, 0), None
#     Edge 69, Type (0, 0), None
#     Edge 70, Type (0, 0), None
#     Edge 71, Type (0, 0), None
#     Edge 72, Type (0, 0), None
#     Edge 73, Type (0, 0), None
#     Edge 74, Type (0, 0), None
#     Edge 75, Type (0, 0), None
#     Edge 76, Type (0, 0), None
#     Edge 77, Type (0, 0), None
#     Edge 78, Type (0, 0), None
#     Edge 79, Type (0, 0), None
#     Edge 80, Type (0, 0), None
#     Edge 81, Type (0, 0), None
#     Edge 82, Type (0, 0), None
#     Edge 83, Type (0, 0), None
#     Edge 84, Type (0, 0), None
#     Edge 85, Type (0, 0), None
#     Edge 86, Type (0, 0), None
#     Edge 87, Type (0, 0), None
#     Edge 88, Type (0, 0), None
#     Edge 89, Type (0, 0), None
#     Edge 90, Type (0, 0), None
#     Edge 91, Type (0, 0), None
#     Edge 92, Type (0, 0), None
#     Edge 93, Type (0, 0), None
#     Edge 94, Type (0, 0), None
#     Edge 95, Type (0, 0), None
#     Edge 96, Type (0, 0), None
#     Edge 97, Type (0, 0), None
#     Edge 98, Type (0, 0), None
#     Edge 99, Type (0, 0), None
#     Edge 100, Type (0, 0), None
#     Edge 101, Type (0, 0), None
#     Edge 102, Type (0, 0), None
#     Edge 103, Type (0, 0), None
#     Edge 104, Type (0, 0), None
#     Edge 105, Type (0, 0), None
#     Edge 106, Type (0, 0), None
#     Edge 107, Type (0, 0), None
#     Edge 108, Type (0, 0), None
#     Edge 109, Type (0, 0), None
#     Edge 110, Type (0, 0), None
#     Edge 111, Type (0, 0), None
#     Edge 112, Type (0, 0), None
#     Edge 113, Type (0, 0), None
#     Edge 114, Type (0, 0), None
#     Edge 115, Type (0, 0), None
#     Edge 116, Type (0, 0), None
#     Edge 117, Type (0, 0), None
#     Edge 118, Type (0, 0), None
#     Edge 119, Type (0, 0), None
#     Edge 120, Type (0, 0), None
#     Edge 121, Type (0, 0), None
#     Edge 122, Type (0, 0), None
#     Edge 123, Type (0, 0), None
#     Edge 124, Type (0, 0), None
#     Edge 125, Type (0, 0), None
#     Edge 126, Type (0, 0), None
#     Edge 127, Type (0, 0), None
#     Edge 128, Type (0, 0), None
#     Edge 129, Type (0, 0), None
#     Edge 130, Type (0, 0), None
#     Edge 131, Type (0, 0), None
#     Edge 132, Type (0, 0), None
#     Edge 133, Type (0, 0), None
#     Edge 134, Type (0, 0), None
#     Edge 135, Type (0, 0), None
#     Edge 136, Type (0, 0), None
#     Edge 137, Type (0, 0), None
#     Edge 138, Type (0, 0), None
#     Edge 139, Type (0, 0), None
#     Edge 140, Type (0, 0), None
#     Edge 141, Type (0, 0), None
#     Edge 142, Type (0, 0), None
#     Edge 143, Type (0, 0), None
# Relax obj value: 0.229
# Max RMSD: 0.071
# Mean RMSD: 0.066
data_MOF--net-nfb--node1-CEKHIL_clean_sbu_0--edge1-none
_symmetry_space_group_name_H-M    P1
_symmetry_Int_Tables_number       1
_symmetry_cell_setting            triclinic
loop_
_symmetry_equiv_pos_as_xyz
'x, y, z'
_cell_length_a     26.736137
_cell_length_b     26.749578
_cell_length_c     26.805812
_cell_angle_alpha  89.872183
_cell_angle_beta   90.231278
_cell_angle_gamma 90.759901
loop_
_atom_site_label
_atom_site_type_symbol
_atom_site_fract_x
_atom_site_fract_y
_atom_site_fract_z
_atom_type_partial_charge
Co0 Co 0.1378 0.12095 0.39286 0.0
O1 O 0.20458 0.13286 0.42301 0.0
O2 O 0.19177 0.08161 0.36118 0.0
C3 C 0.11913 0.20107 0.38474 0.0
O4 O 0.07004 0.10685 0.3524 0.0
Co5 Co 0.04437 0.14059 0.44936 0.0
O6 O 0.02401 0.079 0.41286 0.0
C7 C 0.11009 0.07331 0.48797 0.0
C8 C 0.22418 0.10308 0.39119 0.0
C9 C 0.02633 0.09097 0.36775 0.0
O10 O 0.12337 0.06659 0.44272 0.0
O11 O 0.06542 0.08642 0.49555 0.0
O12 O 0.14656 0.17834 0.35247 0.0
O13 O 0.10622 0.17633 0.42486 0.0
Co14 Co 0.37438 0.62052 0.95455 0.0
O15 O 0.374 0.55111 0.97506 0.0
O16 O 0.40356 0.57488 0.90348 0.0
C17 C 0.3964 0.65005 0.02809 0.0
O18 O 0.38214 0.69351 0.92613 0.0
Co19 Co 0.30075 0.69536 1.00597 0.0
O20 O 0.34027 0.74927 0.97378 0.0
C21 C 0.26355 0.6143 0.94267 0.0
C22 C 0.39245 0.53734 0.93294 0.0
C23 C 0.37086 0.73939 0.93908 0.0
O24 O 0.30707 0.61045 0.92289 0.0
O25 O 0.25415 0.64276 0.97958 0.0
O26 O 0.43158 0.63337 0.99922 0.0
O27 O 0.3512 0.64429 0.01325 0.0
Co28 Co 0.89518 0.86011 0.38042 0.0
O29 O 0.82639 0.8571 0.40696 0.0
O30 O 0.84415 0.89009 0.33484 0.0
C31 C 0.91409 0.78142 0.3978 0.0
O32 O 0.9667 0.86258 0.34415 0.0
Co33 Co 0.9865 0.85148 0.45347 0.0
O34 O 0.01048 0.90015 0.40229 0.0
C35 C 0.92047 0.92988 0.46048 0.0
C36 C 0.80947 0.87787 0.36707 0.0
C37 C 0.01 0.87997 0.36002 0.0
O38 O 0.90768 0.92566 0.4146 0.0
O39 O 0.96554 0.92063 0.47174 0.0
O40 O 0.88762 0.79218 0.35861 0.0
O41 O 0.92432 0.81765 0.42847 0.0
Co42 Co 0.63245 0.43027 0.91884 0.0
O43 O 0.634 0.50361 0.92656 0.0
O44 O 0.60331 0.4674 0.86093 0.0
C45 C 0.60728 0.40914 0.99534 0.0
O46 O 0.62452 0.35358 0.90193 0.0
Co47 Co 0.70534 0.36427 0.98197 0.0
O48 O 0.67229 0.30512 0.95252 0.0
C49 C 0.74262 0.41505 0.89346 0.0
C50 C 0.61411 0.50977 0.88297 0.0
C51 C 0.63965 0.3099 0.91843 0.0
O52 O 0.6989 0.43253 0.88486 0.0
O53 O 0.75398 0.38916 0.93174 0.0
O54 O 0.57445 0.42398 0.96268 0.0
O55 O 0.65354 0.41476 0.98305 0.0
Co56 Co 0.12442 0.85783 0.57243 0.0
O57 O 0.06056 0.84002 0.54494 0.0
O58 O 0.06516 0.88815 0.60951 0.0
C59 C 0.15737 0.87684 0.49887 0.0
O60 O 0.19321 0.88039 0.60398 0.0
Co61 Co 0.20996 0.78686 0.53571 0.0
O62 O 0.25497 0.83884 0.56339 0.0
C63 C 0.14049 0.75206 0.61303 0.0
C64 C 0.03634 0.86548 0.57692 0.0
C65 C 0.2406 0.87211 0.59379 0.0
O66 O 0.12198 0.79618 0.61574 0.0
O67 O 0.17312 0.73936 0.58084 0.0
O68 O 0.13181 0.91031 0.52209 0.0
O69 O 0.15715 0.83263 0.51805 0.0
Co70 Co 0.63515 0.63922 0.11691 0.0
O71 O 0.65628 0.70672 0.09472 0.0
O72 O 0.58556 0.69131 0.1325 0.0
C73 C 0.7071 0.61921 0.15054 0.0
O74 O 0.60683 0.57118 0.14804 0.0
Co75 Co 0.68029 0.54122 0.07808 0.0
O76 O 0.60515 0.53308 0.0784 0.0
C77 C 0.63835 0.61129 0.01219 0.0
C78 C 0.61563 0.72469 0.11268 0.0
C79 C 0.59908 0.52954 0.12445 0.0
O80 O 0.60937 0.62706 0.04717 0.0
O81 O 0.67519 0.5829 0.01962 0.0
O82 O 0.67629 0.64591 0.17651 0.0
O83 O 0.69509 0.60812 0.10557 0.0
Co84 Co 0.90861 0.17237 0.56825 0.0
O85 O 0.97293 0.18457 0.53955 0.0
O86 O 0.96717 0.15408 0.61409 0.0
C87 C 0.87925 0.13488 0.5003 0.0
O88 O 0.83876 0.15709 0.60192 0.0
Co89 Co 0.82247 0.22791 0.51017 0.0
O90 O 0.77714 0.18745 0.5513 0.0
C91 C 0.88785 0.2831 0.57856 0.0
C92 C 0.99655 0.1688 0.5779 0.0
C93 C 0.79136 0.16325 0.58951 0.0
O94 O 0.9086 0.24277 0.59372 0.0
O95 O 0.8557 0.28563 0.54342 0.0
O96 O 0.90391 0.10863 0.53253 0.0
O97 O 0.87778 0.18223 0.50809 0.0
Co98 Co 0.36167 0.39227 0.13621 0.0
O99 O 0.35627 0.32437 0.10678 0.0
O100 O 0.39404 0.33862 0.17716 0.0
C101 C 0.27913 0.40603 0.12319 0.0
O102 O 0.3686 0.46013 0.17777 0.0
Co103 Co 0.35183 0.48425 0.07996 0.0
O104 O 0.40874 0.50514 0.12393 0.0
C105 C 0.42723 0.42412 0.05459 0.0
C106 C 0.37929 0.30537 0.14441 0.0
C107 C 0.39127 0.50228 0.1671 0.0
O108 O 0.42539 0.40592 0.09868 0.0
O109 O 0.41742 0.46991 0.04955 0.0
O110 O 0.29647 0.38466 0.16299 0.0
O111 O 0.31221 0.42094 0.09062 0.0
Co112 Co 0.39518 0.1613 0.16094 0.0
O113 O 0.41719 0.22976 0.18083 0.0
O114 O 0.36053 0.21583 0.12399 0.0
C115 C 0.38792 0.13216 0.23902 0.0
O116 O 0.36139 0.09245 0.13648 0.0
Co117 Co 0.45529 0.06586 0.18331 0.0
O118 O 0.42981 0.05842 0.11329 0.0
C119 C 0.49445 0.13962 0.11405 0.0
C120 C 0.38599 0.24904 0.14962 0.0
C121 C 0.38336 0.05397 0.11717 0.0
O122 O 0.45122 0.16015 0.1106 0.0
O123 O 0.50434 0.10425 0.14419 0.0
O124 O 0.35259 0.1584 0.2188 0.0
O125 O 0.42803 0.12664 0.21329 0.0
Co126 Co 0.39762 0.91961 0.63888 0.0
O127 O 0.46099 0.94581 0.66195 0.0
O128 O 0.45915 0.87888 0.6181 0.0
C129 C 0.37814 0.997 0.61421 0.0
O130 O 0.32864 0.88989 0.61343 0.0
Co131 Co 0.30866 0.97111 0.69576 0.0
O132 O 0.26582 0.93541 0.64788 0.0
C133 C 0.37387 0.89788 0.74524 0.0
C134 C 0.48674 0.91187 0.64168 0.0
C135 C 0.28106 0.90097 0.61933 0.0
O136 O 0.39087 0.88275 0.70323 0.0
O137 O 0.34493 0.93525 0.75022 0.0
O138 O 0.40012 0.96745 0.58323 0.0
O139 O 0.36898 0.97812 0.65724 0.0
Co140 Co 0.60339 0.86657 0.13521 0.0
O141 O 0.58213 0.79808 0.15292 0.0
O142 O 0.63031 0.81444 0.08963 0.0
C143 C 0.62712 0.88424 0.21355 0.0
O144 O 0.63348 0.93788 0.11196 0.0
Co145 Co 0.55037 0.9558 0.17562 0.0
O146 O 0.56254 0.97436 0.10439 0.0
C147 C 0.4973 0.89302 0.10571 0.0
C148 C 0.6079 0.78038 0.1169 0.0
C149 C 0.60899 0.97796 0.09966 0.0
O150 O 0.53917 0.8723 0.09522 0.0
O151 O 0.49317 0.92634 0.13911 0.0
O152 O 0.65701 0.86242 0.18296 0.0
O153 O 0.58241 0.8936 0.19746 0.0
Co154 Co 0.63343 0.12366 0.63651 0.0
O155 O 0.57047 0.09843 0.66121 0.0
O156 O 0.57118 0.16411 0.61572 0.0
C157 C 0.65189 0.04597 0.6137 0.0
O158 O 0.70308 0.15066 0.6105 0.0
Co159 Co 0.7206 0.07193 0.69722 0.0
O160 O 0.76479 0.1073 0.6505 0.0
C161 C 0.6534 0.14508 0.74224 0.0
C162 C 0.54421 0.13196 0.64092 0.0
C163 C 0.75044 0.13968 0.61892 0.0
O164 O 0.64131 0.16206 0.69923 0.0
O165 O 0.68039 0.10652 0.74911 0.0
O166 O 0.62953 0.07478 0.58204 0.0
O167 O 0.66124 0.06543 0.6564 0.0
Co168 Co 0.41182 0.89945 0.89786 0.0
O169 O 0.43599 0.96403 0.87601 0.0
O170 O 0.36761 0.95915 0.91716 0.0
C171 C 0.48994 0.88395 0.92563 0.0
O172 O 0.38397 0.8292 0.92195 0.0
Co173 Co 0.46949 0.81474 0.84132 0.0
O174 O 0.43157 0.76954 0.88504 0.0
C175 C 0.39501 0.87662 0.7903 0.0
C176 C 0.40014 0.9882 0.89483 0.0
C177 C 0.39631 0.78234 0.91384 0.0
O178 O 0.37752 0.89146 0.83219 0.0
O179 O 0.43429 0.85021 0.78594 0.0
O180 O 0.45755 0.90369 0.95526 0.0
O181 O 0.47299 0.87407 0.88187 0.0
Co182 Co 0.66683 0.89463 0.3452 0.0
O183 O 0.73583 0.91519 0.32623 0.0
O184 O 0.71954 0.86076 0.38475 0.0
C185 C 0.63948 0.88596 0.2663 0.0
O186 O 0.59789 0.86197 0.37028 0.0
Co187 Co 0.57115 0.95312 0.31851 0.0
O188 O 0.56385 0.93165 0.38974 0.0
C189 C 0.64501 0.99584 0.38618 0.0
C190 C 0.75367 0.88489 0.35922 0.0
C191 C 0.56008 0.88497 0.38949 0.0
O192 O 0.66507 0.95277 0.39313 0.0
O193 O 0.61044 1.00392 0.35451 0.0
O194 O 0.66464 0.85056 0.28784 0.0
O195 O 0.63326 0.92614 0.29155 0.0
Co196 Co 0.60902 0.14517 0.89318 0.0
O197 O 0.5858 0.07966 0.87357 0.0
O198 O 0.65374 0.08563 0.91454 0.0
C199 C 0.53081 0.15891 0.92011 0.0
O200 O 0.63241 0.21838 0.91146 0.0
Co201 Co 0.54437 0.22053 0.8286 0.0
O202 O 0.58018 0.27074 0.86881 0.0
C203 C 0.62771 0.16484 0.78498 0.0
C204 C 0.62151 0.05594 0.89285 0.0
C205 C 0.6166 0.26316 0.89849 0.0
O206 O 0.64345 0.15127 0.82804 0.0
O207 O 0.58685 0.18803 0.77716 0.0
O208 O 0.56359 0.14165 0.95109 0.0
O209 O 0.5473 0.16664 0.87602 0.0
Co210 Co 0.36738 0.09582 0.3694 0.0
O211 O 0.29933 0.07308 0.35059 0.0
O212 O 0.31361 0.12158 0.41399 0.0
C213 C 0.38631 0.11943 0.29157 0.0
O214 O 0.43825 0.12781 0.39241 0.0
Co215 Co 0.45688 0.04229 0.33135 0.0
O216 O 0.47793 0.05856 0.40097 0.0
C217 C 0.3964 0.99147 0.40455 0.0
C218 C 0.28037 0.09825 0.38633 0.0
C219 C 0.47982 0.10527 0.4039 0.0
O220 O 0.37354 0.0329 0.41117 0.0
O221 O 0.43082 0.98658 0.37251 0.0
O222 O 0.36306 0.14881 0.32158 0.0
O223 O 0.39548 0.07461 0.30751 0.0
Co224 Co 0.15013 0.3679 0.12604 0.0
O225 O 0.16016 0.39366 0.19456 0.0
O226 O 0.12538 0.32132 0.17848 0.0
C227 C 0.22921 0.38816 0.10738 0.0
O228 O 0.14002 0.32897 0.05739 0.0
Co229 Co 0.13536 0.42132 0.0465 0.0
O230 O 0.08187 0.3732 0.02571 0.0
C231 C 0.07536 0.44704 0.11663 0.0
C232 C 0.14081 0.35312 0.21233 0.0
C233 C 0.10907 0.33604 0.02061 0.0
O234 O 0.08276 0.40047 0.12324 0.0
O235 O 0.08227 0.46332 0.07313 0.0
O236 O 0.21607 0.3452 0.12567 0.0
O237 O 0.19392 0.41945 0.09483 0.0
Co238 Co 0.11086 0.55816 0.92958 0.0
O239 O 0.11126 0.53452 0.9981 0.0
O240 O 0.08352 0.60742 0.97896 0.0
C241 C 0.08503 0.48538 0.89747 0.0
O242 O 0.10454 0.58923 0.85714 0.0
Co243 Co 0.18477 0.50676 0.85653 0.0
O244 O 0.14882 0.54178 0.80311 0.0
C245 C 0.223 0.58331 0.92315 0.0
C246 C 0.09387 0.57583 0.01479 0.0
C247 C 0.11881 0.57705 0.81181 0.0
O248 O 0.17838 0.59124 0.93876 0.0
O249 O 0.23431 0.54871 0.89278 0.0
O250 O 0.05203 0.51558 0.91569 0.0
O251 O 0.13106 0.498 0.90409 0.0
Co252 Co 0.90932 0.6213 0.41075 0.0
O253 O 0.93667 0.63289 0.47551 0.0
O254 O 0.85694 0.61867 0.4648 0.0
C255 C 0.97509 0.5724 0.39954 0.0
O256 O 0.8801 0.61095 0.34127 0.0
Co257 Co 0.99289 0.67135 0.34403 0.0
O258 O 0.94182 0.64604 0.2924 0.0
C259 C 0.93234 0.73122 0.40379 0.0
C260 C 0.8938 0.62633 0.49597 0.0
C261 C 0.89914 0.62366 0.29784 0.0
O262 O 0.89979 0.69539 0.40132 0.0
O263 O 0.9781 0.72508 0.39285 0.0
O264 O 0.93559 0.55261 0.41987 0.0
O265 O 0.96632 0.61304 0.37658 0.0
Co266 Co 0.89118 0.44893 0.87295 0.0
O267 O 0.87406 0.45925 0.94262 0.0
O268 O 0.91799 0.39605 0.92196 0.0
C269 C 0.90751 0.53191 0.86808 0.0
O270 O 0.90991 0.43411 0.79606 0.0
Co271 Co 0.82286 0.51655 0.80096 0.0
O272 O 0.86817 0.49208 0.74959 0.0
C273 C 0.78307 0.43407 0.86295 0.0
C274 C 0.89649 0.4204 0.95804 0.0
C275 C 0.89773 0.45527 0.75287 0.0
O276 O 0.82592 0.41265 0.86517 0.0
O277 O 0.77579 0.47685 0.84303 0.0
O278 O 0.94375 0.50308 0.88211 0.0
O279 O 0.86747 0.50894 0.85639 0.0
Co280 Co 0.11509 0.33418 0.35298 0.0
O281 O 0.10335 0.31197 0.28397 0.0
O282 O 0.15607 0.37169 0.30276 0.0
C283 C 0.11918 0.25527 0.38209 0.0
O284 O 0.13376 0.3638 0.42486 0.0
Co285 Co 0.03269 0.30255 0.4283 0.0
O286 O 0.08027 0.3252 0.47826 0.0
C287 C 0.01982 0.39096 0.36426 0.0
C288 C 0.13432 0.34511 0.26772 0.0
C289 C 0.11695 0.35458 0.47005 0.0
O290 O 0.06223 0.38418 0.34419 0.0
O291 O 1.00247 0.36383 0.39935 0.0
O292 O 0.15846 0.27819 0.3645 0.0
O293 O 0.07792 0.27917 0.3782 0.0
Co294 Co 0.86178 0.59392 0.13599 0.0
O295 O 0.843 0.5722 0.07005 0.0
O296 O 0.87542 0.64572 0.08144 0.0
C297 C 0.90031 0.5226 0.15188 0.0
O298 O 0.88317 0.61957 0.20726 0.0
Co299 Co 0.81033 0.52234 0.21619 0.0
O300 O 0.84946 0.56326 0.26236 0.0
C301 C 0.75348 0.60115 0.16889 0.0
C302 C 0.85795 0.6128 0.04964 0.0
C303 C 0.87512 0.60238 0.25264 0.0
O304 O 0.7926 0.61865 0.14694 0.0
O305 O 0.75157 0.56045 0.19361 0.0
O306 O 0.92504 0.55797 0.12946 0.0
O307 O 0.85378 0.53059 0.15947 0.0
Co308 Co 0.92115 0.40829 0.61854 0.0
O309 O 0.9388 0.39882 0.69093 0.0
O310 O 0.89101 0.45775 0.66193 0.0
C311 C 0.9028 0.32945 0.6015 0.0
O312 O 0.88928 0.42388 0.54642 0.0
Co313 Co 0.97609 0.36773 0.52796 0.0
O314 O 0.95564 0.43394 0.50168 0.0
C315 C 0.02728 0.43524 0.59556 0.0
C316 C 0.91119 0.43685 0.70109 0.0
C317 C 0.90876 0.43278 0.50273 0.0
O318 O 0.98432 0.45038 0.61066 0.0
O319 O 0.03142 0.40163 0.56254 0.0
O320 O 0.87024 0.35719 0.62385 0.0
O321 O 0.94667 0.34848 0.59321 0.0
Co322 Co 0.09445 0.60458 0.64683 0.0
O323 O 0.07941 0.61028 0.57624 0.0
O324 O 0.14398 0.5699 0.60242 0.0
C325 C 0.0138 0.59125 0.66445 0.0
O326 O 0.11514 0.59126 0.72181 0.0
Co327 Co 0.04464 0.68102 0.71994 0.0
O328 O 0.06761 0.63736 0.77433 0.0
C329 C 0.11854 0.7132 0.64505 0.0
C330 C 0.11822 0.58534 0.56389 0.0
C331 C 0.09965 0.60357 0.76669 0.0
O332 O 0.13514 0.66828 0.64252 0.0
O333 O 0.08004 0.72498 0.67043 0.0
O334 O 0.04109 0.55349 0.65148 0.0
O335 O 0.03646 0.63367 0.66585 0.0
Co336 Co 0.86933 0.88157 0.57652 0.0
O337 O 0.79876 0.86958 0.5643 0.0
O338 O 0.82768 0.90764 0.63094 0.0
C339 C 0.88612 0.91072 0.49825 0.0
O340 O 0.94603 0.89017 0.59194 0.0
Co341 Co 0.90564 0.79572 0.51267 0.0
O342 O 0.9683 0.82483 0.54315 0.0
C343 C 0.8631 0.77332 0.60567 0.0
C344 C 0.78919 0.88892 0.60663 0.0
C345 C 0.97991 0.86068 0.57304 0.0
O346 O 0.87301 0.81866 0.61566 0.0
O347 O 0.86289 0.75745 0.56087 0.0
O348 O 0.86965 0.9406 0.53205 0.0
O349 O 0.8866 0.86478 0.5125 0.0
Co350 Co 0.65084 0.39854 0.12586 0.0
O351 O 0.65845 0.46763 0.11044 0.0
O352 O 0.60621 0.44454 0.1666 0.0
C353 C 0.73339 0.38942 0.12096 0.0
O354 O 0.64264 0.32248 0.1466 0.0
Co355 Co 0.68818 0.32398 0.04404 0.0
O356 O 0.69543 0.27678 0.09902 0.0
C357 C 0.59436 0.37368 0.03457 0.0
C358 C 0.62464 0.48178 0.1405 0.0
C359 C 0.66554 0.28048 0.13534 0.0
O360 O 0.59324 0.39288 0.0779 0.0
O361 O 0.61459 0.33135 0.02924 0.0
O362 O 0.71343 0.40391 0.16252 0.0
O363 O 0.70354 0.38315 0.08361 0.0
Co364 Co 0.16275 0.15067 0.58628 0.0
O365 O 0.23301 0.15497 0.57184 0.0
O366 O 0.20351 0.14071 0.64693 0.0
C367 C 0.14428 0.10055 0.52046 0.0
O368 O 0.08615 0.1501 0.60252 0.0
Co369 Co 0.12936 0.215 0.49924 0.0
O370 O 0.06551 0.19715 0.53499 0.0
C371 C 0.18335 0.25878 0.5778 0.0
C372 C 0.2422 0.14983 0.61829 0.0
C373 C 0.05299 0.17234 0.57428 0.0
O374 O 0.1638 0.223 0.60231 0.0
O375 O 0.1822 0.25873 0.53031 0.0
O376 O 0.15888 0.08097 0.56215 0.0
O377 O 0.14593 0.14856 0.52035 0.0
Co378 Co 0.34216 0.6352 0.15939 0.0
O379 O 0.33432 0.56402 0.14542 0.0
O380 O 0.38518 0.58935 0.20199 0.0
C381 C 0.25914 0.63771 0.15435 0.0
O382 O 0.35112 0.71152 0.17829 0.0
Co383 Co 0.3042 0.7097 0.08268 0.0
O384 O 0.29176 0.75499 0.13754 0.0
C385 C 0.40368 0.67281 0.07603 0.0
C386 C 0.36606 0.55094 0.17819 0.0
C387 C 0.32675 0.7532 0.16922 0.0
O388 O 0.39872 0.64021 0.11052 0.0
O389 O 0.37989 0.71341 0.07934 0.0
O390 O 0.28138 0.63195 0.19706 0.0
O391 O 0.2879 0.64697 0.11647 0.0
Co392 Co 0.8987 0.15411 0.3675 0.0
O393 O 0.9698 0.15638 0.3843 0.0
O394 O 0.94026 0.10274 0.33163 0.0
C395 C 0.8948 0.2369 0.36222 0.0
O396 O 0.82231 0.1486 0.34486 0.0
Co397 Co 0.82233 0.21156 0.43892 0.0
O398 O 0.77562 0.20812 0.3832 0.0
C399 C 0.85493 0.1136 0.45713 0.0
C400 C 0.97989 0.1201 0.355 0.0
C401 C 0.77993 0.17263 0.35231 0.0
O402 O 0.88552 0.10416 0.42216 0.0
O403 O 0.81544 0.13653 0.44589 0.0
O404 O 0.91002 0.21148 0.32407 0.0
O405 O 0.88527 0.21256 0.40254 0.0
Co406 Co 0.37404 0.3748 0.94041 0.0
O407 O 0.35289 0.30702 0.95711 0.0
O408 O 0.39719 0.32673 0.89085 0.0
C409 C 0.40367 0.39439 0.01592 0.0
O410 O 0.40017 0.44686 0.91914 0.0
Co411 Co 0.31347 0.45741 0.99228 0.0
O412 O 0.32784 0.48398 0.92401 0.0
C413 C 0.26828 0.40199 0.90981 0.0
C414 C 0.37468 0.29206 0.91742 0.0
C415 C 0.37385 0.48734 0.91492 0.0
O416 O 0.31033 0.38168 0.90141 0.0
O417 O 0.26025 0.43072 0.94687 0.0
O418 O 0.4312 0.3701 0.98505 0.0
O419 O 0.35735 0.40028 1.00272 0.0
Co420 Co 0.14189 0.82505 0.37385 0.0
O421 O 0.07054 0.82299 0.39079 0.0
O422 O 0.09673 0.86418 0.32701 0.0
C423 C 0.14777 0.74241 0.39004 0.0
O424 O 0.21724 0.83051 0.34998 0.0
Co425 Co 0.22237 0.78924 0.45445 0.0
O426 O 0.26704 0.78106 0.39738 0.0
C427 C 0.18234 0.88697 0.45232 0.0
C428 C 0.05805 0.85082 0.35389 0.0
C429 C 0.26095 0.81071 0.36091 0.0
O430 O 0.1523 0.88661 0.41524 0.0
O431 O 0.22344 0.86438 0.4482 0.0
O432 O 0.13432 0.75829 0.34615 0.0
O433 O 0.15783 0.77673 0.42225 0.0
Co434 Co 0.64364 0.66728 0.8906 0.0
O435 O 0.67158 0.73069 0.9138 0.0
O436 O 0.60941 0.72388 0.86013 0.0
C437 C 0.63734 0.63232 0.9636 0.0
O438 O 0.60783 0.60005 0.86666 0.0
Co439 Co 0.71479 0.57341 0.90248 0.0
O440 O 0.67286 0.55704 0.84336 0.0
C441 C 0.74047 0.6543 0.84628 0.0
C442 C 0.63932 0.75286 0.88633 0.0
C443 C 0.62721 0.55715 0.85439 0.0
O444 O 0.69562 0.6676 0.83698 0.0
O445 O 0.7466 0.6075 0.84316 0.0
O446 O 0.60258 0.66269 0.94948 0.0
O447 O 0.67667 0.62854 0.93574 0.0
Co448 Co 0.6171 0.89252 0.89445 0.0
O449 O 0.59294 0.8268 0.87394 0.0
O450 O 0.66603 0.83909 0.90853 0.0
C451 C 0.54091 0.90237 0.92676 0.0
O452 O 0.6407 0.96477 0.91011 0.0
Co453 Co 0.54707 0.92956 0.81798 0.0
O454 O 0.58562 0.98931 0.85034 0.0
C455 C 0.63268 0.88606 0.78472 0.0
C456 C 0.63365 0.80769 0.889 0.0
C457 C 0.61967 1.00007 0.88362 0.0
O458 O 0.64892 0.90168 0.82704 0.0
O459 O 0.58585 0.8817 0.77708 0.0
O460 O 0.57501 0.88325 0.955 0.0
O461 O 0.55785 0.92416 0.88784 0.0
Co462 Co 0.61758 0.12356 0.35814 0.0
O463 O 0.5509 0.09397 0.35291 0.0
O464 O 0.56358 0.15373 0.40384 0.0
C465 C 0.62445 0.12735 0.27537 0.0
O466 O 0.6904 0.1557 0.36201 0.0
Co467 Co 0.701 0.05364 0.30853 0.0
O468 O 0.73639 0.11769 0.30163 0.0
C469 C 0.66832 0.04005 0.40681 0.0
C470 C 0.53085 0.12259 0.38465 0.0
C471 C 0.73167 0.15048 0.33536 0.0
O472 O 0.63718 0.07544 0.41299 0.0
O473 O 0.70838 0.05023 0.38371 0.0
O474 O 0.60263 0.16289 0.29921 0.0
O475 O 0.63736 0.08875 0.30126 0.0
Co476 Co 0.39997 0.15425 0.89994 0.0
O477 O 0.41881 0.22318 0.88531 0.0
O478 O 0.35086 0.20262 0.9257 0.0
C479 C 0.47914 0.14379 0.92302 0.0
O480 O 0.38105 0.07925 0.91165 0.0
Co481 Co 0.46802 0.11413 0.8146 0.0
O482 O 0.43286 0.05426 0.84904 0.0
C483 C 0.38485 0.16619 0.79323 0.0
C484 C 0.3799 0.238 0.90779 0.0
C485 C 0.40125 0.04403 0.88443 0.0
O486 O 0.36474 0.15067 0.83384 0.0
O487 O 0.43153 0.17524 0.79296 0.0
O488 O 0.44831 0.15852 0.95694 0.0
O489 O 0.45832 0.12781 0.88341 0.0
Co490 Co 0.4185 0.87173 0.36237 0.0
O491 O 0.48172 0.90559 0.3556 0.0
O492 O 0.47777 0.83464 0.39341 0.0
C493 C 0.40096 0.88653 0.28364 0.0
O494 O 0.34997 0.83185 0.36814 0.0
Co495 Co 0.32107 0.9384 0.3406 0.0
O496 O 0.29939 0.87268 0.31443 0.0
C497 C 0.37613 0.94621 0.42805 0.0
C498 C 0.50627 0.87134 0.37739 0.0
C499 C 0.30762 0.83577 0.34294 0.0
O500 O 0.40448 0.90791 0.42689 0.0
O501 O 0.33079 0.93927 0.41547 0.0
O502 O 0.42722 0.84782 0.29545 0.0
O503 O 0.3876 0.91599 0.31904 0.0
Co504 Co 0.62278 0.11731 0.13923 0.0
O505 O 0.59556 0.05044 0.14762 0.0
O506 O 0.65459 0.06297 0.09547 0.0
C507 C 0.62629 0.12713 0.22175 0.0
O508 O 0.65307 0.19014 0.131 0.0
Co509 Co 0.55262 0.20233 0.18578 0.0
O510 O 0.61759 0.23644 0.19225 0.0
C511 C 0.53705 0.16307 0.09034 0.0
C512 C 0.62469 0.0302 0.11641 0.0
C513 C 0.6481 0.23204 0.15646 0.0
O514 O 0.57342 0.13307 0.08423 0.0
O515 O 0.54673 0.20489 0.11045 0.0
O516 O 0.66272 0.10609 0.19851 0.0
O517 O 0.58757 0.13879 0.19535 0.0
Co518 Co 0.37822 0.12765 0.64027 0.0
O519 O 0.30978 0.10803 0.65582 0.0
O520 O 0.32996 0.17678 0.61584 0.0
C521 C 0.3899 0.04953 0.61451 0.0
O522 O 0.45216 0.14855 0.62669 0.0
Co523 Co 0.4223 0.0597 0.72318 0.0
O524 O 0.48041 0.0958 0.68727 0.0
C525 C 0.36757 0.1421 0.74797 0.0
C526 C 0.29483 0.14749 0.63388 0.0
C527 C 0.48871 0.12831 0.65215 0.0
O528 O 0.38262 0.16158 0.7068 0.0
O529 O 0.36343 0.09485 0.75174 0.0
O530 O 0.37372 0.0813 0.58194 0.0
O531 O 0.40499 0.06905 0.65515 0.0
Co532 Co 0.37743 0.9138 0.15365 0.0
O533 O 0.4078 0.97934 0.15687 0.0
O534 O 0.33701 0.96943 0.11996 0.0
C535 C 0.39222 0.89961 0.23295 0.0
O536 O 0.34279 0.84217 0.15289 0.0
Co537 Co 0.45332 0.82401 0.17881 0.0
O538 O 0.39056 0.79726 0.20659 0.0
C539 C 0.45119 0.87053 0.08678 0.0
C540 C 0.3721 1.00086 0.1341 0.0
C541 C 0.35138 0.80189 0.18027 0.0
O542 O 0.41295 0.89881 0.08883 0.0
O543 O 0.44596 0.8266 0.1038 0.0
O544 O 0.35281 0.92423 0.22009 0.0
O545 O 0.42359 0.88816 0.1984 0.0
Co546 Co 0.65375 0.91364 0.63552 0.0
O547 O 0.72368 0.93097 0.64802 0.0
O548 O 0.69974 0.86498 0.60586 0.0
C549 C 0.64265 0.99314 0.61394 0.0
O550 O 0.57825 0.89558 0.62472 0.0
Co551 Co 0.61071 0.98266 0.7223 0.0
O552 O 0.55184 0.94729 0.68698 0.0
C553 C 0.66254 0.89919 0.74145 0.0
C554 C 0.73652 0.89324 0.62243 0.0
C555 C 0.54262 0.9155 0.65152 0.0
O556 O 0.65099 0.87699 0.70071 0.0
O557 O 0.67287 0.94549 0.73965 0.0
O558 O 0.65602 0.96264 0.57919 0.0
O559 O 0.63049 0.97239 0.65483 0.0
Co560 Co 0.87364 0.66797 0.88763 0.0
O561 O 0.83961 0.62942 0.82753 0.0
O562 O 0.88878 0.68748 0.81583 0.0
C563 C 0.9005 0.58455 0.87921 0.0
O564 O 0.86448 0.65356 0.96542 0.0
Co565 Co 0.79719 0.57821 0.91022 0.0
O566 O 0.83079 0.57683 0.97541 0.0
C567 C 0.76607 0.67609 0.89109 0.0
C568 C 0.86008 0.65647 0.79463 0.0
C569 C 0.85221 0.61554 0.99357 0.0
O570 O 0.80596 0.70196 0.88298 0.0
O571 O 0.76913 0.64567 0.92704 0.0
O572 O 0.93269 0.61961 0.88774 0.0
O573 O 0.85607 0.60077 0.87251 0.0
Co574 Co 0.86879 0.39986 0.09973 0.0
O575 O 0.86054 0.43599 0.0374 0.0
O576 O 0.91068 0.37385 0.04126 0.0
C577 C 0.78657 0.39315 0.11241 0.0
O578 O 0.8789 0.36007 0.16709 0.0
Co579 Co 0.82368 0.45257 0.198 0.0
O580 O 0.81256 0.38209 0.21351 0.0
C581 C 0.92003 0.47375 0.16105 0.0
C582 C 0.89052 0.40832 0.01332 0.0
C583 C 0.85258 0.35814 0.20868 0.0
O584 O 0.92333 0.44809 0.12102 0.0
O585 O 0.8995 0.45357 0.19858 0.0
O586 O 0.80906 0.3611 0.08453 0.0
O587 O 0.81303 0.43065 0.12867 0.0
Co588 Co 0.16986 0.39375 0.60462 0.0
O589 O 0.11877 0.3591 0.55949 0.0
O590 O 0.17439 0.4035 0.52714 0.0
C591 C 0.18105 0.30678 0.60136 0.0
O592 O 0.16631 0.38111 0.68272 0.0
Co593 Co 0.08305 0.32809 0.64676 0.0
O594 O 0.11685 0.31827 0.71062 0.0
C595 C 0.0695 0.43468 0.63004 0.0
C596 C 0.13673 0.37554 0.51829 0.0
C597 C 0.15023 0.35127 0.71841 0.0
O598 O 0.11224 0.44184 0.60915 0.0
O599 O 0.06396 0.39983 0.66208 0.0
O600 O 0.218 0.3377 0.59986 0.0
O601 O 0.13839 0.32865 0.59881 0.0
Co602 Co 0.1193 0.55794 0.17744 0.0
O603 O 0.14288 0.5388 0.24384 0.0
O604 O 0.09301 0.60163 0.23018 0.0
C605 C 0.09605 0.48099 0.15328 0.0
O606 O 0.09009 0.58134 0.10692 0.0
Co607 Co 0.18005 0.51613 0.08919 0.0
O608 O 0.16055 0.58375 0.06488 0.0
C609 C 0.21919 0.60211 0.14508 0.0
C610 C 0.1181 0.5749 0.26245 0.0
C611 C 0.11408 0.59051 0.0653 0.0
O612 O 0.17932 0.60357 0.17111 0.0
O613 O 0.22789 0.56837 0.11274 0.0
O614 O 0.06628 0.50742 0.18008 0.0
O615 O 0.14094 0.49888 0.14802 0.0
Co616 Co 0.88545 0.62925 0.65734 0.0
O617 O 0.90713 0.65496 0.72123 0.0
O618 O 0.83376 0.62131 0.71158 0.0
C619 C 0.96155 0.59414 0.65155 0.0
O620 O 0.86838 0.61179 0.58458 0.0
Co621 Co 0.9659 0.70168 0.62017 0.0
O622 O 0.92742 0.6698 0.56114 0.0
C623 C 0.87514 0.73776 0.64456 0.0
C624 C 0.86578 0.64348 0.74125 0.0
C625 C 0.892 0.63798 0.55016 0.0
O626 O 0.85551 0.69461 0.63908 0.0
O627 O 0.91956 0.74194 0.66118 0.0
O628 O 0.92609 0.56845 0.67244 0.0
O629 O 0.94675 0.63332 0.62933 0.0
Co630 Co 0.14531 0.36496 0.88591 0.0
O631 O 0.15254 0.3772 0.95684 0.0
O632 O 0.11406 0.31134 0.93004 0.0
C633 C 0.22577 0.38666 0.87994 0.0
O634 O 0.13798 0.34728 0.80926 0.0
Co635 Co 0.1645 0.4511 0.81403 0.0
O636 O 0.19498 0.39861 0.77491 0.0
C637 C 0.07263 0.44401 0.86462 0.0
C638 C 0.12976 0.33688 0.96873 0.0
C639 C 0.16491 0.36211 0.77094 0.0
O640 O 0.07984 0.40162 0.88527 0.0
O641 O 0.0896 0.4509 0.82096 0.0
O642 O 0.21229 0.34024 0.88531 0.0
O643 O 0.19008 0.4185 0.87436 0.0
Co644 Co 0.10286 0.59044 0.40326 0.0
O645 O 0.08042 0.60772 0.33607 0.0
O646 O 0.14518 0.56104 0.35033 0.0
C647 C 0.02391 0.56972 0.42283 0.0
O648 O 0.12861 0.5679 0.47481 0.0
Co649 Co 0.06332 0.65493 0.48776 0.0
O650 O 0.13477 0.64278 0.50515 0.0
C651 C 0.12402 0.69776 0.40952 0.0
C652 C 0.11565 0.58205 0.31757 0.0
C653 C 0.13883 0.59673 0.51273 0.0
O654 O 0.14285 0.65454 0.40258 0.0
O655 O 0.08654 0.70487 0.43777 0.0
O656 O 0.05374 0.53635 0.40539 0.0
O657 O 0.04401 0.6134 0.43055 0.0
Co658 Co 0.89545 0.37339 0.3722 0.0
O659 O 0.91729 0.36992 0.44174 0.0
O660 O 0.86167 0.42222 0.42025 0.0
C661 C 0.89292 0.29055 0.36251 0.0
O662 O 0.86942 0.37545 0.29711 0.0
Co663 Co 0.97501 0.32771 0.29403 0.0
O664 O 0.91545 0.31936 0.25253 0.0
C665 C 0.98507 0.42053 0.3355 0.0
C666 C 0.88974 0.40535 0.45645 0.0
C667 C 0.87875 0.34868 0.25654 0.0
O668 O 0.94406 0.42933 0.35721 0.0
O669 O 0.98173 0.40318 0.29175 0.0
O670 O 0.85594 0.31328 0.38352 0.0
O671 O 0.93226 0.31738 0.35336 0.0
loop_
_geom_bond_atom_site_label_1
_geom_bond_atom_site_label_2
_geom_bond_distance
_geom_bond_site_symmetry_2
_ccdc_geom_bond_type
Co0 O1 2.216 . S
Co0 O2 2.091 . S
Co0 O4 2.004 . S
Co0 O10 2.021 . S
Co0 O12 2.137 . S
Co0 O13 2.244 . S
O1 Co0 2.216 . S
O1 C8 1.247 . S
O2 Co0 2.091 . S
O2 C8 1.261 . S
C3 O12 1.247 . S
C3 O13 1.272 . S
O4 Co0 2.004 . S
O4 C9 1.259 . S
Co5 O6 2.061 . S
Co5 O11 2.052 . S
Co5 O13 2.135 . S
O6 Co5 2.061 . S
O6 C9 1.235 . S
C7 O10 1.238 . S
C7 O11 1.241 . S
C8 O1 1.247 . S
C8 O2 1.261 . S
C9 O4 1.259 . S
C9 O6 1.235 . S
O10 Co0 2.021 . S
O10 C7 1.238 . S
O11 Co5 2.052 . S
O11 C7 1.241 . S
O12 Co0 2.137 . S
O12 C3 1.247 . S
O13 Co0 2.244 . S
O13 C3 1.272 . S
O13 Co5 2.135 . S
Co14 O15 2.216 . S
Co14 O16 2.091 . S
Co14 O18 2.004 . S
Co14 O24 2.021 . S
Co14 O26 2.137 . S
Co14 O27 2.244 . S
O15 Co14 2.216 . S
O15 C22 1.247 . S
O16 Co14 2.091 . S
O16 C22 1.261 . S
C17 O26 1.247 . S
C17 O27 1.272 . S
O18 Co14 2.004 . S
O18 C23 1.259 . S
Co19 O20 2.061 . S
Co19 O25 2.052 . S
Co19 O27 2.135 . S
O20 Co19 2.061 . S
O20 C23 1.235 . S
C21 O24 1.238 . S
C21 O25 1.241 . S
C22 O15 1.247 . S
C22 O16 1.261 . S
C23 O18 1.259 . S
C23 O20 1.235 . S
O24 Co14 2.021 . S
O24 C21 1.238 . S
O25 Co19 2.052 . S
O25 C21 1.241 . S
O26 Co14 2.137 . S
O26 C17 1.247 . S
O27 Co14 2.244 . S
O27 C17 1.272 . S
O27 Co19 2.135 . S
Co28 O29 2.216 . S
Co28 O30 2.091 . S
Co28 O32 2.004 . S
Co28 O38 2.021 . S
Co28 O40 2.137 . S
Co28 O41 2.244 . S
O29 Co28 2.216 . S
O29 C36 1.247 . S
O30 Co28 2.091 . S
O30 C36 1.261 . S
C31 O40 1.247 . S
C31 O41 1.272 . S
O32 Co28 2.004 . S
O32 C37 1.259 . S
Co33 O34 2.061 . S
Co33 O39 2.052 . S
Co33 O41 2.135 . S
O34 Co33 2.061 . S
O34 C37 1.235 . S
C35 O38 1.238 . S
C35 O39 1.241 . S
C36 O29 1.247 . S
C36 O30 1.261 . S
C37 O32 1.259 . S
C37 O34 1.235 . S
O38 Co28 2.021 . S
O38 C35 1.238 . S
O39 Co33 2.052 . S
O39 C35 1.241 . S
O40 Co28 2.137 . S
O40 C31 1.247 . S
O41 Co28 2.244 . S
O41 C31 1.272 . S
O41 Co33 2.135 . S
Co42 O43 2.216 . S
Co42 O44 2.091 . S
Co42 O46 2.004 . S
Co42 O52 2.021 . S
Co42 O54 2.137 . S
Co42 O55 2.244 . S
O43 Co42 2.216 . S
O43 C50 1.247 . S
O44 Co42 2.091 . S
O44 C50 1.261 . S
C45 O54 1.247 . S
C45 O55 1.272 . S
O46 Co42 2.004 . S
O46 C51 1.259 . S
Co47 O48 2.061 . S
Co47 O53 2.052 . S
Co47 O55 2.135 . S
O48 Co47 2.061 . S
O48 C51 1.235 . S
C49 O52 1.238 . S
C49 O53 1.241 . S
C50 O43 1.247 . S
C50 O44 1.261 . S
C51 O46 1.259 . S
C51 O48 1.235 . S
O52 Co42 2.021 . S
O52 C49 1.238 . S
O53 Co47 2.052 . S
O53 C49 1.241 . S
O54 Co42 2.137 . S
O54 C45 1.247 . S
O55 Co42 2.244 . S
O55 C45 1.272 . S
O55 Co47 2.135 . S
Co56 O57 2.216 . S
Co56 O58 2.091 . S
Co56 O60 2.004 . S
Co56 O66 2.021 . S
Co56 O68 2.137 . S
Co56 O69 2.244 . S
O57 Co56 2.216 . S
O57 C64 1.247 . S
O58 Co56 2.091 . S
O58 C64 1.261 . S
C59 O68 1.247 . S
C59 O69 1.272 . S
O60 Co56 2.004 . S
O60 C65 1.259 . S
Co61 O62 2.061 . S
Co61 O67 2.052 . S
Co61 O69 2.135 . S
O62 Co61 2.061 . S
O62 C65 1.235 . S
C63 O66 1.238 . S
C63 O67 1.241 . S
C64 O57 1.247 . S
C64 O58 1.261 . S
C65 O60 1.259 . S
C65 O62 1.235 . S
O66 Co56 2.021 . S
O66 C63 1.238 . S
O67 Co61 2.052 . S
O67 C63 1.241 . S
O68 Co56 2.137 . S
O68 C59 1.247 . S
O69 Co56 2.244 . S
O69 C59 1.272 . S
O69 Co61 2.135 . S
Co70 O71 2.216 . S
Co70 O72 2.091 . S
Co70 O74 2.004 . S
Co70 O80 2.021 . S
Co70 O82 2.137 . S
Co70 O83 2.244 . S
O71 Co70 2.216 . S
O71 C78 1.247 . S
O72 Co70 2.091 . S
O72 C78 1.261 . S
C73 O82 1.247 . S
C73 O83 1.272 . S
O74 Co70 2.004 . S
O74 C79 1.259 . S
Co75 O76 2.061 . S
Co75 O81 2.052 . S
Co75 O83 2.135 . S
O76 Co75 2.061 . S
O76 C79 1.235 . S
C77 O80 1.238 . S
C77 O81 1.241 . S
C78 O71 1.247 . S
C78 O72 1.261 . S
C79 O74 1.259 . S
C79 O76 1.235 . S
O80 Co70 2.021 . S
O80 C77 1.238 . S
O81 Co75 2.052 . S
O81 C77 1.241 . S
O82 Co70 2.137 . S
O82 C73 1.247 . S
O83 Co70 2.244 . S
O83 C73 1.272 . S
O83 Co75 2.135 . S
Co84 O85 2.216 . S
Co84 O86 2.091 . S
Co84 O88 2.004 . S
Co84 O94 2.021 . S
Co84 O96 2.137 . S
Co84 O97 2.244 . S
O85 Co84 2.216 . S
O85 C92 1.247 . S
O86 Co84 2.091 . S
O86 C92 1.261 . S
C87 O96 1.247 . S
C87 O97 1.272 . S
O88 Co84 2.004 . S
O88 C93 1.259 . S
Co89 O90 2.061 . S
Co89 O95 2.052 . S
Co89 O97 2.135 . S
O90 Co89 2.061 . S
O90 C93 1.235 . S
C91 O94 1.238 . S
C91 O95 1.241 . S
C92 O85 1.247 . S
C92 O86 1.261 . S
C93 O88 1.259 . S
C93 O90 1.235 . S
O94 Co84 2.021 . S
O94 C91 1.238 . S
O95 Co89 2.052 . S
O95 C91 1.241 . S
O96 Co84 2.137 . S
O96 C87 1.247 . S
O97 Co84 2.244 . S
O97 C87 1.272 . S
O97 Co89 2.135 . S
Co98 O99 2.216 . S
Co98 O100 2.091 . S
Co98 O102 2.004 . S
Co98 O108 2.021 . S
Co98 O110 2.137 . S
Co98 O111 2.244 . S
O99 Co98 2.216 . S
O99 C106 1.247 . S
O100 Co98 2.091 . S
O100 C106 1.261 . S
C101 O110 1.247 . S
C101 O111 1.272 . S
O102 Co98 2.004 . S
O102 C107 1.259 . S
Co103 O104 2.061 . S
Co103 O109 2.052 . S
Co103 O111 2.135 . S
O104 Co103 2.061 . S
O104 C107 1.235 . S
C105 O108 1.238 . S
C105 O109 1.241 . S
C106 O99 1.247 . S
C106 O100 1.261 . S
C107 O102 1.259 . S
C107 O104 1.235 . S
O108 Co98 2.021 . S
O108 C105 1.238 . S
O109 Co103 2.052 . S
O109 C105 1.241 . S
O110 Co98 2.137 . S
O110 C101 1.247 . S
O111 Co98 2.244 . S
O111 C101 1.272 . S
O111 Co103 2.135 . S
Co112 O113 2.216 . S
Co112 O114 2.091 . S
Co112 O116 2.004 . S
Co112 O122 2.021 . S
Co112 O124 2.137 . S
Co112 O125 2.244 . S
O113 Co112 2.216 . S
O113 C120 1.247 . S
O114 Co112 2.091 . S
O114 C120 1.261 . S
C115 O124 1.247 . S
C115 O125 1.272 . S
O116 Co112 2.004 . S
O116 C121 1.259 . S
Co117 O118 2.061 . S
Co117 O123 2.052 . S
Co117 O125 2.135 . S
O118 Co117 2.061 . S
O118 C121 1.235 . S
C119 O122 1.238 . S
C119 O123 1.241 . S
C120 O113 1.247 . S
C120 O114 1.261 . S
C121 O116 1.259 . S
C121 O118 1.235 . S
O122 Co112 2.021 . S
O122 C119 1.238 . S
O123 Co117 2.052 . S
O123 C119 1.241 . S
O124 Co112 2.137 . S
O124 C115 1.247 . S
O125 Co112 2.244 . S
O125 C115 1.272 . S
O125 Co117 2.135 . S
Co126 O127 2.216 . S
Co126 O128 2.091 . S
Co126 O130 2.004 . S
Co126 O136 2.021 . S
Co126 O138 2.137 . S
Co126 O139 2.244 . S
O127 Co126 2.216 . S
O127 C134 1.247 . S
O128 Co126 2.091 . S
O128 C134 1.261 . S
C129 O138 1.247 . S
C129 O139 1.272 . S
O130 Co126 2.004 . S
O130 C135 1.259 . S
Co131 O132 2.061 . S
Co131 O137 2.052 . S
Co131 O139 2.135 . S
O132 Co131 2.061 . S
O132 C135 1.235 . S
C133 O136 1.238 . S
C133 O137 1.241 . S
C134 O127 1.247 . S
C134 O128 1.261 . S
C135 O130 1.259 . S
C135 O132 1.235 . S
O136 Co126 2.021 . S
O136 C133 1.238 . S
O137 Co131 2.052 . S
O137 C133 1.241 . S
O138 Co126 2.137 . S
O138 C129 1.247 . S
O139 Co126 2.244 . S
O139 C129 1.272 . S
O139 Co131 2.135 . S
Co140 O141 2.216 . S
Co140 O142 2.091 . S
Co140 O144 2.004 . S
Co140 O150 2.021 . S
Co140 O152 2.137 . S
Co140 O153 2.244 . S
O141 Co140 2.216 . S
O141 C148 1.247 . S
O142 Co140 2.091 . S
O142 C148 1.261 . S
C143 O152 1.247 . S
C143 O153 1.272 . S
O144 Co140 2.004 . S
O144 C149 1.259 . S
Co145 O146 2.061 . S
Co145 O151 2.052 . S
Co145 O153 2.135 . S
O146 Co145 2.061 . S
O146 C149 1.235 . S
C147 O150 1.238 . S
C147 O151 1.241 . S
C148 O141 1.247 . S
C148 O142 1.261 . S
C149 O144 1.259 . S
C149 O146 1.235 . S
O150 Co140 2.021 . S
O150 C147 1.238 . S
O151 Co145 2.052 . S
O151 C147 1.241 . S
O152 Co140 2.137 . S
O152 C143 1.247 . S
O153 Co140 2.244 . S
O153 C143 1.272 . S
O153 Co145 2.135 . S
Co154 O155 2.216 . S
Co154 O156 2.091 . S
Co154 O158 2.004 . S
Co154 O164 2.021 . S
Co154 O166 2.137 . S
Co154 O167 2.244 . S
O155 Co154 2.216 . S
O155 C162 1.247 . S
O156 Co154 2.091 . S
O156 C162 1.261 . S
C157 O166 1.247 . S
C157 O167 1.272 . S
O158 Co154 2.004 . S
O158 C163 1.259 . S
Co159 O160 2.061 . S
Co159 O165 2.052 . S
Co159 O167 2.135 . S
O160 Co159 2.061 . S
O160 C163 1.235 . S
C161 O164 1.238 . S
C161 O165 1.241 . S
C162 O155 1.247 . S
C162 O156 1.261 . S
C163 O158 1.259 . S
C163 O160 1.235 . S
O164 Co154 2.021 . S
O164 C161 1.238 . S
O165 Co159 2.052 . S
O165 C161 1.241 . S
O166 Co154 2.137 . S
O166 C157 1.247 . S
O167 Co154 2.244 . S
O167 C157 1.272 . S
O167 Co159 2.135 . S
Co168 O169 2.216 . S
Co168 O170 2.091 . S
Co168 O172 2.004 . S
Co168 O178 2.021 . S
Co168 O180 2.137 . S
Co168 O181 2.244 . S
O169 Co168 2.216 . S
O169 C176 1.247 . S
O170 Co168 2.091 . S
O170 C176 1.261 . S
C171 O180 1.247 . S
C171 O181 1.272 . S
O172 Co168 2.004 . S
O172 C177 1.259 . S
Co173 O174 2.061 . S
Co173 O179 2.052 . S
Co173 O181 2.135 . S
O174 Co173 2.061 . S
O174 C177 1.235 . S
C175 O178 1.238 . S
C175 O179 1.241 . S
C176 O169 1.247 . S
C176 O170 1.261 . S
C177 O172 1.259 . S
C177 O174 1.235 . S
O178 Co168 2.021 . S
O178 C175 1.238 . S
O179 Co173 2.052 . S
O179 C175 1.241 . S
O180 Co168 2.137 . S
O180 C171 1.247 . S
O181 Co168 2.244 . S
O181 C171 1.272 . S
O181 Co173 2.135 . S
Co182 O183 2.216 . S
Co182 O184 2.091 . S
Co182 O186 2.004 . S
Co182 O192 2.021 . S
Co182 O194 2.137 . S
Co182 O195 2.244 . S
O183 Co182 2.216 . S
O183 C190 1.247 . S
O184 Co182 2.091 . S
O184 C190 1.261 . S
C185 O194 1.247 . S
C185 O195 1.272 . S
O186 Co182 2.004 . S
O186 C191 1.259 . S
Co187 O188 2.061 . S
Co187 O193 2.052 . S
Co187 O195 2.135 . S
O188 Co187 2.061 . S
O188 C191 1.235 . S
C189 O192 1.238 . S
C189 O193 1.241 . S
C190 O183 1.247 . S
C190 O184 1.261 . S
C191 O186 1.259 . S
C191 O188 1.235 . S
O192 Co182 2.021 . S
O192 C189 1.238 . S
O193 Co187 2.052 . S
O193 C189 1.241 . S
O194 Co182 2.137 . S
O194 C185 1.247 . S
O195 Co182 2.244 . S
O195 C185 1.272 . S
O195 Co187 2.135 . S
Co196 O197 2.216 . S
Co196 O198 2.091 . S
Co196 O200 2.004 . S
Co196 O206 2.021 . S
Co196 O208 2.137 . S
Co196 O209 2.244 . S
O197 Co196 2.216 . S
O197 C204 1.247 . S
O198 Co196 2.091 . S
O198 C204 1.261 . S
C199 O208 1.247 . S
C199 O209 1.272 . S
O200 Co196 2.004 . S
O200 C205 1.259 . S
Co201 O202 2.061 . S
Co201 O207 2.052 . S
Co201 O209 2.135 . S
O202 Co201 2.061 . S
O202 C205 1.235 . S
C203 O206 1.238 . S
C203 O207 1.241 . S
C204 O197 1.247 . S
C204 O198 1.261 . S
C205 O200 1.259 . S
C205 O202 1.235 . S
O206 Co196 2.021 . S
O206 C203 1.238 . S
O207 Co201 2.052 . S
O207 C203 1.241 . S
O208 Co196 2.137 . S
O208 C199 1.247 . S
O209 Co196 2.244 . S
O209 C199 1.272 . S
O209 Co201 2.135 . S
Co210 O211 2.216 . S
Co210 O212 2.091 . S
Co210 O214 2.004 . S
Co210 O220 2.021 . S
Co210 O222 2.137 . S
Co210 O223 2.244 . S
O211 Co210 2.216 . S
O211 C218 1.247 . S
O212 Co210 2.091 . S
O212 C218 1.261 . S
C213 O222 1.247 . S
C213 O223 1.272 . S
O214 Co210 2.004 . S
O214 C219 1.259 . S
Co215 O216 2.061 . S
Co215 O221 2.052 . S
Co215 O223 2.135 . S
O216 Co215 2.061 . S
O216 C219 1.235 . S
C217 O220 1.238 . S
C217 O221 1.241 . S
C218 O211 1.247 . S
C218 O212 1.261 . S
C219 O214 1.259 . S
C219 O216 1.235 . S
O220 Co210 2.021 . S
O220 C217 1.238 . S
O221 Co215 2.052 . S
O221 C217 1.241 . S
O222 Co210 2.137 . S
O222 C213 1.247 . S
O223 Co210 2.244 . S
O223 C213 1.272 . S
O223 Co215 2.135 . S
Co224 O225 2.216 . S
Co224 O226 2.091 . S
Co224 O228 2.004 . S
Co224 O234 2.021 . S
Co224 O236 2.137 . S
Co224 O237 2.244 . S
O225 Co224 2.216 . S
O225 C232 1.247 . S
O226 Co224 2.091 . S
O226 C232 1.261 . S
C227 O236 1.247 . S
C227 O237 1.272 . S
O228 Co224 2.004 . S
O228 C233 1.259 . S
Co229 O230 2.061 . S
Co229 O235 2.052 . S
Co229 O237 2.135 . S
O230 Co229 2.061 . S
O230 C233 1.235 . S
C231 O234 1.238 . S
C231 O235 1.241 . S
C232 O225 1.247 . S
C232 O226 1.261 . S
C233 O228 1.259 . S
C233 O230 1.235 . S
O234 Co224 2.021 . S
O234 C231 1.238 . S
O235 Co229 2.052 . S
O235 C231 1.241 . S
O236 Co224 2.137 . S
O236 C227 1.247 . S
O237 Co224 2.244 . S
O237 C227 1.272 . S
O237 Co229 2.135 . S
Co238 O239 2.216 . S
Co238 O240 2.091 . S
Co238 O242 2.004 . S
Co238 O248 2.021 . S
Co238 O250 2.137 . S
Co238 O251 2.244 . S
O239 Co238 2.216 . S
O239 C246 1.247 . S
O240 Co238 2.091 . S
O240 C246 1.261 . S
C241 O250 1.247 . S
C241 O251 1.272 . S
O242 Co238 2.004 . S
O242 C247 1.259 . S
Co243 O244 2.061 . S
Co243 O249 2.052 . S
Co243 O251 2.135 . S
O244 Co243 2.061 . S
O244 C247 1.235 . S
C245 O248 1.238 . S
C245 O249 1.241 . S
C246 O239 1.247 . S
C246 O240 1.261 . S
C247 O242 1.259 . S
C247 O244 1.235 . S
O248 Co238 2.021 . S
O248 C245 1.238 . S
O249 Co243 2.052 . S
O249 C245 1.241 . S
O250 Co238 2.137 . S
O250 C241 1.247 . S
O251 Co238 2.244 . S
O251 C241 1.272 . S
O251 Co243 2.135 . S
Co252 O253 2.216 . S
Co252 O254 2.091 . S
Co252 O256 2.004 . S
Co252 O262 2.021 . S
Co252 O264 2.137 . S
Co252 O265 2.244 . S
O253 Co252 2.216 . S
O253 C260 1.247 . S
O254 Co252 2.091 . S
O254 C260 1.261 . S
C255 O264 1.247 . S
C255 O265 1.272 . S
O256 Co252 2.004 . S
O256 C261 1.259 . S
Co257 O258 2.061 . S
Co257 O263 2.052 . S
Co257 O265 2.135 . S
O258 Co257 2.061 . S
O258 C261 1.235 . S
C259 O262 1.238 . S
C259 O263 1.241 . S
C260 O253 1.247 . S
C260 O254 1.261 . S
C261 O256 1.259 . S
C261 O258 1.235 . S
O262 Co252 2.021 . S
O262 C259 1.238 . S
O263 Co257 2.052 . S
O263 C259 1.241 . S
O264 Co252 2.137 . S
O264 C255 1.247 . S
O265 Co252 2.244 . S
O265 C255 1.272 . S
O265 Co257 2.135 . S
Co266 O267 2.216 . S
Co266 O268 2.091 . S
Co266 O270 2.004 . S
Co266 O276 2.021 . S
Co266 O278 2.137 . S
Co266 O279 2.244 . S
O267 Co266 2.216 . S
O267 C274 1.247 . S
O268 Co266 2.091 . S
O268 C274 1.261 . S
C269 O278 1.247 . S
C269 O279 1.272 . S
O270 Co266 2.004 . S
O270 C275 1.259 . S
Co271 O272 2.061 . S
Co271 O277 2.052 . S
Co271 O279 2.135 . S
O272 Co271 2.061 . S
O272 C275 1.235 . S
C273 O276 1.238 . S
C273 O277 1.241 . S
C274 O267 1.247 . S
C274 O268 1.261 . S
C275 O270 1.259 . S
C275 O272 1.235 . S
O276 Co266 2.021 . S
O276 C273 1.238 . S
O277 Co271 2.052 . S
O277 C273 1.241 . S
O278 Co266 2.137 . S
O278 C269 1.247 . S
O279 Co266 2.244 . S
O279 C269 1.272 . S
O279 Co271 2.135 . S
Co280 O281 2.216 . S
Co280 O282 2.091 . S
Co280 O284 2.004 . S
Co280 O290 2.021 . S
Co280 O292 2.137 . S
Co280 O293 2.244 . S
O281 Co280 2.216 . S
O281 C288 1.247 . S
O282 Co280 2.091 . S
O282 C288 1.261 . S
C283 O292 1.247 . S
C283 O293 1.272 . S
O284 Co280 2.004 . S
O284 C289 1.259 . S
Co285 O286 2.061 . S
Co285 O291 2.052 . S
Co285 O293 2.135 . S
O286 Co285 2.061 . S
O286 C289 1.235 . S
C287 O290 1.238 . S
C287 O291 1.241 . S
C288 O281 1.247 . S
C288 O282 1.261 . S
C289 O284 1.259 . S
C289 O286 1.235 . S
O290 Co280 2.021 . S
O290 C287 1.238 . S
O291 Co285 2.052 . S
O291 C287 1.241 . S
O292 Co280 2.137 . S
O292 C283 1.247 . S
O293 Co280 2.244 . S
O293 C283 1.272 . S
O293 Co285 2.135 . S
Co294 O295 2.216 . S
Co294 O296 2.091 . S
Co294 O298 2.004 . S
Co294 O304 2.021 . S
Co294 O306 2.137 . S
Co294 O307 2.244 . S
O295 Co294 2.216 . S
O295 C302 1.247 . S
O296 Co294 2.091 . S
O296 C302 1.261 . S
C297 O306 1.247 . S
C297 O307 1.272 . S
O298 Co294 2.004 . S
O298 C303 1.259 . S
Co299 O300 2.061 . S
Co299 O305 2.052 . S
Co299 O307 2.135 . S
O300 Co299 2.061 . S
O300 C303 1.235 . S
C301 O304 1.238 . S
C301 O305 1.241 . S
C302 O295 1.247 . S
C302 O296 1.261 . S
C303 O298 1.259 . S
C303 O300 1.235 . S
O304 Co294 2.021 . S
O304 C301 1.238 . S
O305 Co299 2.052 . S
O305 C301 1.241 . S
O306 Co294 2.137 . S
O306 C297 1.247 . S
O307 Co294 2.244 . S
O307 C297 1.272 . S
O307 Co299 2.135 . S
Co308 O309 2.216 . S
Co308 O310 2.091 . S
Co308 O312 2.004 . S
Co308 O318 2.021 . S
Co308 O320 2.137 . S
Co308 O321 2.244 . S
O309 Co308 2.216 . S
O309 C316 1.247 . S
O310 Co308 2.091 . S
O310 C316 1.261 . S
C311 O320 1.247 . S
C311 O321 1.272 . S
O312 Co308 2.004 . S
O312 C317 1.259 . S
Co313 O314 2.061 . S
Co313 O319 2.052 . S
Co313 O321 2.135 . S
O314 Co313 2.061 . S
O314 C317 1.235 . S
C315 O318 1.238 . S
C315 O319 1.241 . S
C316 O309 1.247 . S
C316 O310 1.261 . S
C317 O312 1.259 . S
C317 O314 1.235 . S
O318 Co308 2.021 . S
O318 C315 1.238 . S
O319 Co313 2.052 . S
O319 C315 1.241 . S
O320 Co308 2.137 . S
O320 C311 1.247 . S
O321 Co308 2.244 . S
O321 C311 1.272 . S
O321 Co313 2.135 . S
Co322 O323 2.216 . S
Co322 O324 2.091 . S
Co322 O326 2.004 . S
Co322 O332 2.021 . S
Co322 O334 2.137 . S
Co322 O335 2.244 . S
O323 Co322 2.216 . S
O323 C330 1.247 . S
O324 Co322 2.091 . S
O324 C330 1.261 . S
C325 O334 1.247 . S
C325 O335 1.272 . S
O326 Co322 2.004 . S
O326 C331 1.259 . S
Co327 O328 2.061 . S
Co327 O333 2.052 . S
Co327 O335 2.135 . S
O328 Co327 2.061 . S
O328 C331 1.235 . S
C329 O332 1.238 . S
C329 O333 1.241 . S
C330 O323 1.247 . S
C330 O324 1.261 . S
C331 O326 1.259 . S
C331 O328 1.235 . S
O332 Co322 2.021 . S
O332 C329 1.238 . S
O333 Co327 2.052 . S
O333 C329 1.241 . S
O334 Co322 2.137 . S
O334 C325 1.247 . S
O335 Co322 2.244 . S
O335 C325 1.272 . S
O335 Co327 2.135 . S
Co336 O337 2.216 . S
Co336 O338 2.091 . S
Co336 O340 2.004 . S
Co336 O346 2.021 . S
Co336 O348 2.137 . S
Co336 O349 2.244 . S
O337 Co336 2.216 . S
O337 C344 1.247 . S
O338 Co336 2.091 . S
O338 C344 1.261 . S
C339 O348 1.247 . S
C339 O349 1.272 . S
O340 Co336 2.004 . S
O340 C345 1.259 . S
Co341 O342 2.061 . S
Co341 O347 2.052 . S
Co341 O349 2.135 . S
O342 Co341 2.061 . S
O342 C345 1.235 . S
C343 O346 1.238 . S
C343 O347 1.241 . S
C344 O337 1.247 . S
C344 O338 1.261 . S
C345 O340 1.259 . S
C345 O342 1.235 . S
O346 Co336 2.021 . S
O346 C343 1.238 . S
O347 Co341 2.052 . S
O347 C343 1.241 . S
O348 Co336 2.137 . S
O348 C339 1.247 . S
O349 Co336 2.244 . S
O349 C339 1.272 . S
O349 Co341 2.135 . S
Co350 O351 2.216 . S
Co350 O352 2.091 . S
Co350 O354 2.004 . S
Co350 O360 2.021 . S
Co350 O362 2.137 . S
Co350 O363 2.244 . S
O351 Co350 2.216 . S
O351 C358 1.247 . S
O352 Co350 2.091 . S
O352 C358 1.261 . S
C353 O362 1.247 . S
C353 O363 1.272 . S
O354 Co350 2.004 . S
O354 C359 1.259 . S
Co355 O356 2.061 . S
Co355 O361 2.052 . S
Co355 O363 2.135 . S
O356 Co355 2.061 . S
O356 C359 1.235 . S
C357 O360 1.238 . S
C357 O361 1.241 . S
C358 O351 1.247 . S
C358 O352 1.261 . S
C359 O354 1.259 . S
C359 O356 1.235 . S
O360 Co350 2.021 . S
O360 C357 1.238 . S
O361 Co355 2.052 . S
O361 C357 1.241 . S
O362 Co350 2.137 . S
O362 C353 1.247 . S
O363 Co350 2.244 . S
O363 C353 1.272 . S
O363 Co355 2.135 . S
Co364 O365 2.216 . S
Co364 O366 2.091 . S
Co364 O368 2.004 . S
Co364 O374 2.021 . S
Co364 O376 2.137 . S
Co364 O377 2.244 . S
O365 Co364 2.216 . S
O365 C372 1.247 . S
O366 Co364 2.091 . S
O366 C372 1.261 . S
C367 O376 1.247 . S
C367 O377 1.272 . S
O368 Co364 2.004 . S
O368 C373 1.259 . S
Co369 O370 2.061 . S
Co369 O375 2.052 . S
Co369 O377 2.135 . S
O370 Co369 2.061 . S
O370 C373 1.235 . S
C371 O374 1.238 . S
C371 O375 1.241 . S
C372 O365 1.247 . S
C372 O366 1.261 . S
C373 O368 1.259 . S
C373 O370 1.235 . S
O374 Co364 2.021 . S
O374 C371 1.238 . S
O375 Co369 2.052 . S
O375 C371 1.241 . S
O376 Co364 2.137 . S
O376 C367 1.247 . S
O377 Co364 2.244 . S
O377 C367 1.272 . S
O377 Co369 2.135 . S
Co378 O379 2.216 . S
Co378 O380 2.091 . S
Co378 O382 2.004 . S
Co378 O388 2.021 . S
Co378 O390 2.137 . S
Co378 O391 2.244 . S
O379 Co378 2.216 . S
O379 C386 1.247 . S
O380 Co378 2.091 . S
O380 C386 1.261 . S
C381 O390 1.247 . S
C381 O391 1.272 . S
O382 Co378 2.004 . S
O382 C387 1.259 . S
Co383 O384 2.061 . S
Co383 O389 2.052 . S
Co383 O391 2.135 . S
O384 Co383 2.061 . S
O384 C387 1.235 . S
C385 O388 1.238 . S
C385 O389 1.241 . S
C386 O379 1.247 . S
C386 O380 1.261 . S
C387 O382 1.259 . S
C387 O384 1.235 . S
O388 Co378 2.021 . S
O388 C385 1.238 . S
O389 Co383 2.052 . S
O389 C385 1.241 . S
O390 Co378 2.137 . S
O390 C381 1.247 . S
O391 Co378 2.244 . S
O391 C381 1.272 . S
O391 Co383 2.135 . S
Co392 O393 2.216 . S
Co392 O394 2.091 . S
Co392 O396 2.004 . S
Co392 O402 2.021 . S
Co392 O404 2.137 . S
Co392 O405 2.244 . S
O393 Co392 2.216 . S
O393 C400 1.247 . S
O394 Co392 2.091 . S
O394 C400 1.261 . S
C395 O404 1.247 . S
C395 O405 1.272 . S
O396 Co392 2.004 . S
O396 C401 1.259 . S
Co397 O398 2.061 . S
Co397 O403 2.052 . S
Co397 O405 2.135 . S
O398 Co397 2.061 . S
O398 C401 1.235 . S
C399 O402 1.238 . S
C399 O403 1.241 . S
C400 O393 1.247 . S
C400 O394 1.261 . S
C401 O396 1.259 . S
C401 O398 1.235 . S
O402 Co392 2.021 . S
O402 C399 1.238 . S
O403 Co397 2.052 . S
O403 C399 1.241 . S
O404 Co392 2.137 . S
O404 C395 1.247 . S
O405 Co392 2.244 . S
O405 C395 1.272 . S
O405 Co397 2.135 . S
Co406 O407 2.216 . S
Co406 O408 2.091 . S
Co406 O410 2.004 . S
Co406 O416 2.021 . S
Co406 O418 2.137 . S
Co406 O419 2.244 . S
O407 Co406 2.216 . S
O407 C414 1.247 . S
O408 Co406 2.091 . S
O408 C414 1.261 . S
C409 O418 1.247 . S
C409 O419 1.272 . S
O410 Co406 2.004 . S
O410 C415 1.259 . S
Co411 O412 2.061 . S
Co411 O417 2.052 . S
Co411 O419 2.135 . S
O412 Co411 2.061 . S
O412 C415 1.235 . S
C413 O416 1.238 . S
C413 O417 1.241 . S
C414 O407 1.247 . S
C414 O408 1.261 . S
C415 O410 1.259 . S
C415 O412 1.235 . S
O416 Co406 2.021 . S
O416 C413 1.238 . S
O417 Co411 2.052 . S
O417 C413 1.241 . S
O418 Co406 2.137 . S
O418 C409 1.247 . S
O419 Co406 2.244 . S
O419 C409 1.272 . S
O419 Co411 2.135 . S
Co420 O421 2.216 . S
Co420 O422 2.091 . S
Co420 O424 2.004 . S
Co420 O430 2.021 . S
Co420 O432 2.137 . S
Co420 O433 2.244 . S
O421 Co420 2.216 . S
O421 C428 1.247 . S
O422 Co420 2.091 . S
O422 C428 1.261 . S
C423 O432 1.247 . S
C423 O433 1.272 . S
O424 Co420 2.004 . S
O424 C429 1.259 . S
Co425 O426 2.061 . S
Co425 O431 2.052 . S
Co425 O433 2.135 . S
O426 Co425 2.061 . S
O426 C429 1.235 . S
C427 O430 1.238 . S
C427 O431 1.241 . S
C428 O421 1.247 . S
C428 O422 1.261 . S
C429 O424 1.259 . S
C429 O426 1.235 . S
O430 Co420 2.021 . S
O430 C427 1.238 . S
O431 Co425 2.052 . S
O431 C427 1.241 . S
O432 Co420 2.137 . S
O432 C423 1.247 . S
O433 Co420 2.244 . S
O433 C423 1.272 . S
O433 Co425 2.135 . S
Co434 O435 2.216 . S
Co434 O436 2.091 . S
Co434 O438 2.004 . S
Co434 O444 2.021 . S
Co434 O446 2.137 . S
Co434 O447 2.244 . S
O435 Co434 2.216 . S
O435 C442 1.247 . S
O436 Co434 2.091 . S
O436 C442 1.261 . S
C437 O446 1.247 . S
C437 O447 1.272 . S
O438 Co434 2.004 . S
O438 C443 1.259 . S
Co439 O440 2.061 . S
Co439 O445 2.052 . S
Co439 O447 2.135 . S
O440 Co439 2.061 . S
O440 C443 1.235 . S
C441 O444 1.238 . S
C441 O445 1.241 . S
C442 O435 1.247 . S
C442 O436 1.261 . S
C443 O438 1.259 . S
C443 O440 1.235 . S
O444 Co434 2.021 . S
O444 C441 1.238 . S
O445 Co439 2.052 . S
O445 C441 1.241 . S
O446 Co434 2.137 . S
O446 C437 1.247 . S
O447 Co434 2.244 . S
O447 C437 1.272 . S
O447 Co439 2.135 . S
Co448 O449 2.216 . S
Co448 O450 2.091 . S
Co448 O452 2.004 . S
Co448 O458 2.021 . S
Co448 O460 2.137 . S
Co448 O461 2.244 . S
O449 Co448 2.216 . S
O449 C456 1.247 . S
O450 Co448 2.091 . S
O450 C456 1.261 . S
C451 O460 1.247 . S
C451 O461 1.272 . S
O452 Co448 2.004 . S
O452 C457 1.259 . S
Co453 O454 2.061 . S
Co453 O459 2.052 . S
Co453 O461 2.135 . S
O454 Co453 2.061 . S
O454 C457 1.235 . S
C455 O458 1.238 . S
C455 O459 1.241 . S
C456 O449 1.247 . S
C456 O450 1.261 . S
C457 O452 1.259 . S
C457 O454 1.235 . S
O458 Co448 2.021 . S
O458 C455 1.238 . S
O459 Co453 2.052 . S
O459 C455 1.241 . S
O460 Co448 2.137 . S
O460 C451 1.247 . S
O461 Co448 2.244 . S
O461 C451 1.272 . S
O461 Co453 2.135 . S
Co462 O463 2.216 . S
Co462 O464 2.091 . S
Co462 O466 2.004 . S
Co462 O472 2.021 . S
Co462 O474 2.137 . S
Co462 O475 2.244 . S
O463 Co462 2.216 . S
O463 C470 1.247 . S
O464 Co462 2.091 . S
O464 C470 1.261 . S
C465 O474 1.247 . S
C465 O475 1.272 . S
O466 Co462 2.004 . S
O466 C471 1.259 . S
Co467 O468 2.061 . S
Co467 O473 2.052 . S
Co467 O475 2.135 . S
O468 Co467 2.061 . S
O468 C471 1.235 . S
C469 O472 1.238 . S
C469 O473 1.241 . S
C470 O463 1.247 . S
C470 O464 1.261 . S
C471 O466 1.259 . S
C471 O468 1.235 . S
O472 Co462 2.021 . S
O472 C469 1.238 . S
O473 Co467 2.052 . S
O473 C469 1.241 . S
O474 Co462 2.137 . S
O474 C465 1.247 . S
O475 Co462 2.244 . S
O475 C465 1.272 . S
O475 Co467 2.135 . S
Co476 O477 2.216 . S
Co476 O478 2.091 . S
Co476 O480 2.004 . S
Co476 O486 2.021 . S
Co476 O488 2.137 . S
Co476 O489 2.244 . S
O477 Co476 2.216 . S
O477 C484 1.247 . S
O478 Co476 2.091 . S
O478 C484 1.261 . S
C479 O488 1.247 . S
C479 O489 1.272 . S
O480 Co476 2.004 . S
O480 C485 1.259 . S
Co481 O482 2.061 . S
Co481 O487 2.052 . S
Co481 O489 2.135 . S
O482 Co481 2.061 . S
O482 C485 1.235 . S
C483 O486 1.238 . S
C483 O487 1.241 . S
C484 O477 1.247 . S
C484 O478 1.261 . S
C485 O480 1.259 . S
C485 O482 1.235 . S
O486 Co476 2.021 . S
O486 C483 1.238 . S
O487 Co481 2.052 . S
O487 C483 1.241 . S
O488 Co476 2.137 . S
O488 C479 1.247 . S
O489 Co476 2.244 . S
O489 C479 1.272 . S
O489 Co481 2.135 . S
Co490 O491 2.216 . S
Co490 O492 2.091 . S
Co490 O494 2.004 . S
Co490 O500 2.021 . S
Co490 O502 2.137 . S
Co490 O503 2.244 . S
O491 Co490 2.216 . S
O491 C498 1.247 . S
O492 Co490 2.091 . S
O492 C498 1.261 . S
C493 O502 1.247 . S
C493 O503 1.272 . S
O494 Co490 2.004 . S
O494 C499 1.259 . S
Co495 O496 2.061 . S
Co495 O501 2.052 . S
Co495 O503 2.135 . S
O496 Co495 2.061 . S
O496 C499 1.235 . S
C497 O500 1.238 . S
C497 O501 1.241 . S
C498 O491 1.247 . S
C498 O492 1.261 . S
C499 O494 1.259 . S
C499 O496 1.235 . S
O500 Co490 2.021 . S
O500 C497 1.238 . S
O501 Co495 2.052 . S
O501 C497 1.241 . S
O502 Co490 2.137 . S
O502 C493 1.247 . S
O503 Co490 2.244 . S
O503 C493 1.272 . S
O503 Co495 2.135 . S
Co504 O505 2.216 . S
Co504 O506 2.091 . S
Co504 O508 2.004 . S
Co504 O514 2.021 . S
Co504 O516 2.137 . S
Co504 O517 2.244 . S
O505 Co504 2.216 . S
O505 C512 1.247 . S
O506 Co504 2.091 . S
O506 C512 1.261 . S
C507 O516 1.247 . S
C507 O517 1.272 . S
O508 Co504 2.004 . S
O508 C513 1.259 . S
Co509 O510 2.061 . S
Co509 O515 2.052 . S
Co509 O517 2.135 . S
O510 Co509 2.061 . S
O510 C513 1.235 . S
C511 O514 1.238 . S
C511 O515 1.241 . S
C512 O505 1.247 . S
C512 O506 1.261 . S
C513 O508 1.259 . S
C513 O510 1.235 . S
O514 Co504 2.021 . S
O514 C511 1.238 . S
O515 Co509 2.052 . S
O515 C511 1.241 . S
O516 Co504 2.137 . S
O516 C507 1.247 . S
O517 Co504 2.244 . S
O517 C507 1.272 . S
O517 Co509 2.135 . S
Co518 O519 2.216 . S
Co518 O520 2.091 . S
Co518 O522 2.004 . S
Co518 O528 2.021 . S
Co518 O530 2.137 . S
Co518 O531 2.244 . S
O519 Co518 2.216 . S
O519 C526 1.247 . S
O520 Co518 2.091 . S
O520 C526 1.261 . S
C521 O530 1.247 . S
C521 O531 1.272 . S
O522 Co518 2.004 . S
O522 C527 1.259 . S
Co523 O524 2.061 . S
Co523 O529 2.052 . S
Co523 O531 2.135 . S
O524 Co523 2.061 . S
O524 C527 1.235 . S
C525 O528 1.238 . S
C525 O529 1.241 . S
C526 O519 1.247 . S
C526 O520 1.261 . S
C527 O522 1.259 . S
C527 O524 1.235 . S
O528 Co518 2.021 . S
O528 C525 1.238 . S
O529 Co523 2.052 . S
O529 C525 1.241 . S
O530 Co518 2.137 . S
O530 C521 1.247 . S
O531 Co518 2.244 . S
O531 C521 1.272 . S
O531 Co523 2.135 . S
Co532 O533 2.216 . S
Co532 O534 2.091 . S
Co532 O536 2.004 . S
Co532 O542 2.021 . S
Co532 O544 2.137 . S
Co532 O545 2.244 . S
O533 Co532 2.216 . S
O533 C540 1.247 . S
O534 Co532 2.091 . S
O534 C540 1.261 . S
C535 O544 1.247 . S
C535 O545 1.272 . S
O536 Co532 2.004 . S
O536 C541 1.259 . S
Co537 O538 2.061 . S
Co537 O543 2.052 . S
Co537 O545 2.135 . S
O538 Co537 2.061 . S
O538 C541 1.235 . S
C539 O542 1.238 . S
C539 O543 1.241 . S
C540 O533 1.247 . S
C540 O534 1.261 . S
C541 O536 1.259 . S
C541 O538 1.235 . S
O542 Co532 2.021 . S
O542 C539 1.238 . S
O543 Co537 2.052 . S
O543 C539 1.241 . S
O544 Co532 2.137 . S
O544 C535 1.247 . S
O545 Co532 2.244 . S
O545 C535 1.272 . S
O545 Co537 2.135 . S
Co546 O547 2.216 . S
Co546 O548 2.091 . S
Co546 O550 2.004 . S
Co546 O556 2.021 . S
Co546 O558 2.137 . S
Co546 O559 2.244 . S
O547 Co546 2.216 . S
O547 C554 1.247 . S
O548 Co546 2.091 . S
O548 C554 1.261 . S
C549 O558 1.247 . S
C549 O559 1.272 . S
O550 Co546 2.004 . S
O550 C555 1.259 . S
Co551 O552 2.061 . S
Co551 O557 2.052 . S
Co551 O559 2.135 . S
O552 Co551 2.061 . S
O552 C555 1.235 . S
C553 O556 1.238 . S
C553 O557 1.241 . S
C554 O547 1.247 . S
C554 O548 1.261 . S
C555 O550 1.259 . S
C555 O552 1.235 . S
O556 Co546 2.021 . S
O556 C553 1.238 . S
O557 Co551 2.052 . S
O557 C553 1.241 . S
O558 Co546 2.137 . S
O558 C549 1.247 . S
O559 Co546 2.244 . S
O559 C549 1.272 . S
O559 Co551 2.135 . S
Co560 O561 2.216 . S
Co560 O562 2.091 . S
Co560 O564 2.004 . S
Co560 O570 2.021 . S
Co560 O572 2.137 . S
Co560 O573 2.244 . S
O561 Co560 2.216 . S
O561 C568 1.247 . S
O562 Co560 2.091 . S
O562 C568 1.261 . S
C563 O572 1.247 . S
C563 O573 1.272 . S
O564 Co560 2.004 . S
O564 C569 1.259 . S
Co565 O566 2.061 . S
Co565 O571 2.052 . S
Co565 O573 2.135 . S
O566 Co565 2.061 . S
O566 C569 1.235 . S
C567 O570 1.238 . S
C567 O571 1.241 . S
C568 O561 1.247 . S
C568 O562 1.261 . S
C569 O564 1.259 . S
C569 O566 1.235 . S
O570 Co560 2.021 . S
O570 C567 1.238 . S
O571 Co565 2.052 . S
O571 C567 1.241 . S
O572 Co560 2.137 . S
O572 C563 1.247 . S
O573 Co560 2.244 . S
O573 C563 1.272 . S
O573 Co565 2.135 . S
Co574 O575 2.216 . S
Co574 O576 2.091 . S
Co574 O578 2.004 . S
Co574 O584 2.021 . S
Co574 O586 2.137 . S
Co574 O587 2.244 . S
O575 Co574 2.216 . S
O575 C582 1.247 . S
O576 Co574 2.091 . S
O576 C582 1.261 . S
C577 O586 1.247 . S
C577 O587 1.272 . S
O578 Co574 2.004 . S
O578 C583 1.259 . S
Co579 O580 2.061 . S
Co579 O585 2.052 . S
Co579 O587 2.135 . S
O580 Co579 2.061 . S
O580 C583 1.235 . S
C581 O584 1.238 . S
C581 O585 1.241 . S
C582 O575 1.247 . S
C582 O576 1.261 . S
C583 O578 1.259 . S
C583 O580 1.235 . S
O584 Co574 2.021 . S
O584 C581 1.238 . S
O585 Co579 2.052 . S
O585 C581 1.241 . S
O586 Co574 2.137 . S
O586 C577 1.247 . S
O587 Co574 2.244 . S
O587 C577 1.272 . S
O587 Co579 2.135 . S
Co588 O589 2.216 . S
Co588 O590 2.091 . S
Co588 O592 2.004 . S
Co588 O598 2.021 . S
Co588 O600 2.137 . S
Co588 O601 2.244 . S
O589 Co588 2.216 . S
O589 C596 1.247 . S
O590 Co588 2.091 . S
O590 C596 1.261 . S
C591 O600 1.247 . S
C591 O601 1.272 . S
O592 Co588 2.004 . S
O592 C597 1.259 . S
Co593 O594 2.061 . S
Co593 O599 2.052 . S
Co593 O601 2.135 . S
O594 Co593 2.061 . S
O594 C597 1.235 . S
C595 O598 1.238 . S
C595 O599 1.241 . S
C596 O589 1.247 . S
C596 O590 1.261 . S
C597 O592 1.259 . S
C597 O594 1.235 . S
O598 Co588 2.021 . S
O598 C595 1.238 . S
O599 Co593 2.052 . S
O599 C595 1.241 . S
O600 Co588 2.137 . S
O600 C591 1.247 . S
O601 Co588 2.244 . S
O601 C591 1.272 . S
O601 Co593 2.135 . S
Co602 O603 2.216 . S
Co602 O604 2.091 . S
Co602 O606 2.004 . S
Co602 O612 2.021 . S
Co602 O614 2.137 . S
Co602 O615 2.244 . S
O603 Co602 2.216 . S
O603 C610 1.247 . S
O604 Co602 2.091 . S
O604 C610 1.261 . S
C605 O614 1.247 . S
C605 O615 1.272 . S
O606 Co602 2.004 . S
O606 C611 1.259 . S
Co607 O608 2.061 . S
Co607 O613 2.052 . S
Co607 O615 2.135 . S
O608 Co607 2.061 . S
O608 C611 1.235 . S
C609 O612 1.238 . S
C609 O613 1.241 . S
C610 O603 1.247 . S
C610 O604 1.261 . S
C611 O606 1.259 . S
C611 O608 1.235 . S
O612 Co602 2.021 . S
O612 C609 1.238 . S
O613 Co607 2.052 . S
O613 C609 1.241 . S
O614 Co602 2.137 . S
O614 C605 1.247 . S
O615 Co602 2.244 . S
O615 C605 1.272 . S
O615 Co607 2.135 . S
Co616 O617 2.216 . S
Co616 O618 2.091 . S
Co616 O620 2.004 . S
Co616 O626 2.021 . S
Co616 O628 2.137 . S
Co616 O629 2.244 . S
O617 Co616 2.216 . S
O617 C624 1.247 . S
O618 Co616 2.091 . S
O618 C624 1.261 . S
C619 O628 1.247 . S
C619 O629 1.272 . S
O620 Co616 2.004 . S
O620 C625 1.259 . S
Co621 O622 2.061 . S
Co621 O627 2.052 . S
Co621 O629 2.135 . S
O622 Co621 2.061 . S
O622 C625 1.235 . S
C623 O626 1.238 . S
C623 O627 1.241 . S
C624 O617 1.247 . S
C624 O618 1.261 . S
C625 O620 1.259 . S
C625 O622 1.235 . S
O626 Co616 2.021 . S
O626 C623 1.238 . S
O627 Co621 2.052 . S
O627 C623 1.241 . S
O628 Co616 2.137 . S
O628 C619 1.247 . S
O629 Co616 2.244 . S
O629 C619 1.272 . S
O629 Co621 2.135 . S
Co630 O631 2.216 . S
Co630 O632 2.091 . S
Co630 O634 2.004 . S
Co630 O640 2.021 . S
Co630 O642 2.137 . S
Co630 O643 2.244 . S
O631 Co630 2.216 . S
O631 C638 1.247 . S
O632 Co630 2.091 . S
O632 C638 1.261 . S
C633 O642 1.247 . S
C633 O643 1.272 . S
O634 Co630 2.004 . S
O634 C639 1.259 . S
Co635 O636 2.061 . S
Co635 O641 2.052 . S
Co635 O643 2.135 . S
O636 Co635 2.061 . S
O636 C639 1.235 . S
C637 O640 1.238 . S
C637 O641 1.241 . S
C638 O631 1.247 . S
C638 O632 1.261 . S
C639 O634 1.259 . S
C639 O636 1.235 . S
O640 Co630 2.021 . S
O640 C637 1.238 . S
O641 Co635 2.052 . S
O641 C637 1.241 . S
O642 Co630 2.137 . S
O642 C633 1.247 . S
O643 Co630 2.244 . S
O643 C633 1.272 . S
O643 Co635 2.135 . S
Co644 O645 2.216 . S
Co644 O646 2.091 . S
Co644 O648 2.004 . S
Co644 O654 2.021 . S
Co644 O656 2.137 . S
Co644 O657 2.244 . S
O645 Co644 2.216 . S
O645 C652 1.247 . S
O646 Co644 2.091 . S
O646 C652 1.261 . S
C647 O656 1.247 . S
C647 O657 1.272 . S
O648 Co644 2.004 . S
O648 C653 1.259 . S
Co649 O650 2.061 . S
Co649 O655 2.052 . S
Co649 O657 2.135 . S
O650 Co649 2.061 . S
O650 C653 1.235 . S
C651 O654 1.238 . S
C651 O655 1.241 . S
C652 O645 1.247 . S
C652 O646 1.261 . S
C653 O648 1.259 . S
C653 O650 1.235 . S
O654 Co644 2.021 . S
O654 C651 1.238 . S
O655 Co649 2.052 . S
O655 C651 1.241 . S
O656 Co644 2.137 . S
O656 C647 1.247 . S
O657 Co644 2.244 . S
O657 C647 1.272 . S
O657 Co649 2.135 . S
Co658 O659 2.216 . S
Co658 O660 2.091 . S
Co658 O662 2.004 . S
Co658 O668 2.021 . S
Co658 O670 2.137 . S
Co658 O671 2.244 . S
O659 Co658 2.216 . S
O659 C666 1.247 . S
O660 Co658 2.091 . S
O660 C666 1.261 . S
C661 O670 1.247 . S
C661 O671 1.272 . S
O662 Co658 2.004 . S
O662 C667 1.259 . S
Co663 O664 2.061 . S
Co663 O669 2.052 . S
Co663 O671 2.135 . S
O664 Co663 2.061 . S
O664 C667 1.235 . S
C665 O668 1.238 . S
C665 O669 1.241 . S
C666 O659 1.247 . S
C666 O660 1.261 . S
C667 O662 1.259 . S
C667 O664 1.235 . S
O668 Co658 2.021 . S
O668 C665 1.238 . S
O669 Co663 2.052 . S
O669 C665 1.241 . S
O670 Co658 2.137 . S
O670 C661 1.247 . S
O671 Co658 2.244 . S
O671 C661 1.272 . S
O671 Co663 2.135 . S
C283 C3 1.895 . S
C21 C245 1.471 . S
C31 C259 1.682 . S
C273 C49 1.476 . S
C329 C63 1.473 . S
C73 C301 1.679 . S
C91 C311 1.659 . S
C101 C227 1.902 . S
C115 C213 1.887 . S
C133 C175 1.476 . S
C143 C185 1.868 . S
C203 C161 1.489 . S
C343 C623 1.642 . S
C577 C353 1.878 . S
C371 C591 1.807 . S
C609 C381 1.781 . S
C395 C661 1.890 . S
C633 C413 1.804 . S
C423 C651 1.776 . S
C567 C441 1.643 . S
C455 C553 1.630 . S
C507 C465 1.900 . S
C525 C483 1.618 . S
C535 C493 1.915 . S
C367 C7 1.337 . S
C17 C385 1.369 1_556 S
C35 C339 1.334 . S
C45 C357 1.389 1_556 S
C59 C427 1.365 . S
C437 C77 1.342 1_556 S
C399 C87 1.361 . S
C409 C105 1.338 1_556 S
C511 C119 1.269 . S
C129 C521 1.434 1_565 S
C539 C147 1.261 . S
C157 C549 1.434 1_545 S
C171 C451 1.436 . S
C189 C469 1.264 1_565 S
C479 C199 1.437 . S
C497 C217 1.265 1_565 S
C231 C605 1.335 . S
C241 C637 1.366 . S
C647 C255 1.432 1_455 S
C563 C269 1.434 . S
C287 C665 1.260 1_455 S
C581 C297 1.381 . S
C315 C595 1.273 1_655 S
C325 C619 1.431 1_455 S
C400 C9 1.706 1_655 S
C415 C22 1.694 . S
C428 C37 1.714 1_455 S
C50 C443 1.688 . S
C345 C64 1.692 1_655 S
C358 C79 1.715 . S
C92 C373 1.690 1_655 S
C386 C107 1.708 . S
C121 C540 1.713 1_545 S
C134 C555 1.696 . S
C512 C149 1.710 1_545 S
C162 C527 1.689 . S
C485 C176 1.693 1_545 S
C191 C498 1.708 . S
C204 C457 1.692 1_545 S
C219 C470 1.715 . S
C638 C233 1.700 1_556 S
C246 C611 1.694 1_556 S
C260 C625 1.680 . S
C274 C582 1.785 1_556 S
C596 C289 1.707 . S
C569 C302 1.700 1_556 S
C666 C317 1.740 . S
C330 C653 1.697 . S
C218 C8 2.330 . S
C23 C177 1.850 . S
C190 C36 2.353 . S
C205 C51 1.839 . S
C135 C65 1.854 . S
C78 C148 2.341 . S
C93 C163 1.840 . S
C120 C106 2.338 . S
C232 C288 2.336 . S
C331 C247 1.855 . S
C303 C261 1.813 . S
C275 C316 2.134 . S
C554 C344 2.429 . S
C513 C359 1.933 . S
C372 C526 2.440 . S
C541 C387 1.931 . S
C471 C401 1.935 . S
C414 C484 2.438 . S
C429 C499 1.927 . S
C442 C456 2.421 . S
C568 C624 2.428 . S
C667 C583 1.969 . S
C639 C597 1.904 . S
C652 C610 2.472 . S
