# Generated by pormake.
# Topology hbo, (4)-cn, num edge types: 1
# Building blocks:
#     Node 0, Type 0, BuildingBlock: KOZSID_clean_sbu_0, # of connection points: 4
#     Node 1, Type 0, BuildingBlock: KOZSID_clean_sbu_0, # of connection points: 4
#     Node 2, Type 0, BuildingBlock: KOZSID_clean_sbu_0, # of connection points: 4
#     Node 3, Type 0, BuildingBlock: KOZSID_clean_sbu_0, # of connection points: 4
#     Node 4, Type 0, BuildingBlock: KOZSID_clean_sbu_0, # of connection points: 4
#     Node 5, Type 0, BuildingBlock: KOZSID_clean_sbu_0, # of connection points: 4
#     Node 6, Type 0, BuildingBlock: KOZSID_clean_sbu_0, # of connection points: 4
#     Node 7, Type 0, BuildingBlock: KOZSID_clean_sbu_0, # of connection points: 4
#     Node 8, Type 0, BuildingBlock: KOZSID_clean_sbu_0, # of connection points: 4
#     Node 9, Type 0, BuildingBlock: KOZSID_clean_sbu_0, # of connection points: 4
#     Node 10, Type 0, BuildingBlock: KOZSID_clean_sbu_0, # of connection points: 4
#     Node 11, Type 0, BuildingBlock: KOZSID_clean_sbu_0, # of connection points: 4
#     Node 12, Type 0, BuildingBlock: KOZSID_clean_sbu_0, # of connection points: 4
#     Node 13, Type 0, BuildingBlock: KOZSID_clean_sbu_0, # of connection points: 4
#     Node 14, Type 0, BuildingBlock: KOZSID_clean_sbu_0, # of connection points: 4
#     Node 15, Type 0, BuildingBlock: KOZSID_clean_sbu_0, # of connection points: 4
#     Node 16, Type 0, BuildingBlock: KOZSID_clean_sbu_0, # of connection points: 4
#     Node 17, Type 0, BuildingBlock: KOZSID_clean_sbu_0, # of connection points: 4
#     Node 18, Type 0, BuildingBlock: KOZSID_clean_sbu_0, # of connection points: 4
#     Node 19, Type 0, BuildingBlock: KOZSID_clean_sbu_0, # of connection points: 4
#     Node 20, Type 0, BuildingBlock: KOZSID_clean_sbu_0, # of connection points: 4
#     Node 21, Type 0, BuildingBlock: KOZSID_clean_sbu_0, # of connection points: 4
#     Node 22, Type 0, BuildingBlock: KOZSID_clean_sbu_0, # of connection points: 4
#     Node 23, Type 0, BuildingBlock: KOZSID_clean_sbu_0, # of connection points: 4
#     Edge 24, Type (0, 0), BuildingBlock: AJUNOK_clean_linker_0, # of connection points: 2
#     Edge 25, Type (0, 0), BuildingBlock: AJUNOK_clean_linker_0, # of connection points: 2
#     Edge 26, Type (0, 0), BuildingBlock: AJUNOK_clean_linker_0, # of connection points: 2
#     Edge 27, Type (0, 0), BuildingBlock: AJUNOK_clean_linker_0, # of connection points: 2
#     Edge 28, Type (0, 0), BuildingBlock: AJUNOK_clean_linker_0, # of connection points: 2
#     Edge 29, Type (0, 0), BuildingBlock: AJUNOK_clean_linker_0, # of connection points: 2
#     Edge 30, Type (0, 0), BuildingBlock: AJUNOK_clean_linker_0, # of connection points: 2
#     Edge 31, Type (0, 0), BuildingBlock: AJUNOK_clean_linker_0, # of connection points: 2
#     Edge 32, Type (0, 0), BuildingBlock: AJUNOK_clean_linker_0, # of connection points: 2
#     Edge 33, Type (0, 0), BuildingBlock: AJUNOK_clean_linker_0, # of connection points: 2
#     Edge 34, Type (0, 0), BuildingBlock: AJUNOK_clean_linker_0, # of connection points: 2
#     Edge 35, Type (0, 0), BuildingBlock: AJUNOK_clean_linker_0, # of connection points: 2
#     Edge 36, Type (0, 0), BuildingBlock: AJUNOK_clean_linker_0, # of connection points: 2
#     Edge 37, Type (0, 0), BuildingBlock: AJUNOK_clean_linker_0, # of connection points: 2
#     Edge 38, Type (0, 0), BuildingBlock: AJUNOK_clean_linker_0, # of connection points: 2
#     Edge 39, Type (0, 0), BuildingBlock: AJUNOK_clean_linker_0, # of connection points: 2
#     Edge 40, Type (0, 0), BuildingBlock: AJUNOK_clean_linker_0, # of connection points: 2
#     Edge 41, Type (0, 0), BuildingBlock: AJUNOK_clean_linker_0, # of connection points: 2
#     Edge 42, Type (0, 0), BuildingBlock: AJUNOK_clean_linker_0, # of connection points: 2
#     Edge 43, Type (0, 0), BuildingBlock: AJUNOK_clean_linker_0, # of connection points: 2
#     Edge 44, Type (0, 0), BuildingBlock: AJUNOK_clean_linker_0, # of connection points: 2
#     Edge 45, Type (0, 0), BuildingBlock: AJUNOK_clean_linker_0, # of connection points: 2
#     Edge 46, Type (0, 0), BuildingBlock: AJUNOK_clean_linker_0, # of connection points: 2
#     Edge 47, Type (0, 0), BuildingBlock: AJUNOK_clean_linker_0, # of connection points: 2
#     Edge 48, Type (0, 0), BuildingBlock: AJUNOK_clean_linker_0, # of connection points: 2
#     Edge 49, Type (0, 0), BuildingBlock: AJUNOK_clean_linker_0, # of connection points: 2
#     Edge 50, Type (0, 0), BuildingBlock: AJUNOK_clean_linker_0, # of connection points: 2
#     Edge 51, Type (0, 0), BuildingBlock: AJUNOK_clean_linker_0, # of connection points: 2
#     Edge 52, Type (0, 0), BuildingBlock: AJUNOK_clean_linker_0, # of connection points: 2
#     Edge 53, Type (0, 0), BuildingBlock: AJUNOK_clean_linker_0, # of connection points: 2
#     Edge 54, Type (0, 0), BuildingBlock: AJUNOK_clean_linker_0, # of connection points: 2
#     Edge 55, Type (0, 0), BuildingBlock: AJUNOK_clean_linker_0, # of connection points: 2
#     Edge 56, Type (0, 0), BuildingBlock: AJUNOK_clean_linker_0, # of connection points: 2
#     Edge 57, Type (0, 0), BuildingBlock: AJUNOK_clean_linker_0, # of connection points: 2
#     Edge 58, Type (0, 0), BuildingBlock: AJUNOK_clean_linker_0, # of connection points: 2
#     Edge 59, Type (0, 0), BuildingBlock: AJUNOK_clean_linker_0, # of connection points: 2
#     Edge 60, Type (0, 0), BuildingBlock: AJUNOK_clean_linker_0, # of connection points: 2
#     Edge 61, Type (0, 0), BuildingBlock: AJUNOK_clean_linker_0, # of connection points: 2
#     Edge 62, Type (0, 0), BuildingBlock: AJUNOK_clean_linker_0, # of connection points: 2
#     Edge 63, Type (0, 0), BuildingBlock: AJUNOK_clean_linker_0, # of connection points: 2
#     Edge 64, Type (0, 0), BuildingBlock: AJUNOK_clean_linker_0, # of connection points: 2
#     Edge 65, Type (0, 0), BuildingBlock: AJUNOK_clean_linker_0, # of connection points: 2
#     Edge 66, Type (0, 0), BuildingBlock: AJUNOK_clean_linker_0, # of connection points: 2
#     Edge 67, Type (0, 0), BuildingBlock: AJUNOK_clean_linker_0, # of connection points: 2
#     Edge 68, Type (0, 0), BuildingBlock: AJUNOK_clean_linker_0, # of connection points: 2
#     Edge 69, Type (0, 0), BuildingBlock: AJUNOK_clean_linker_0, # of connection points: 2
#     Edge 70, Type (0, 0), BuildingBlock: AJUNOK_clean_linker_0, # of connection points: 2
#     Edge 71, Type (0, 0), BuildingBlock: AJUNOK_clean_linker_0, # of connection points: 2
# Relax obj value: 0.082
# Max RMSD: 0.325
# Mean RMSD: 0.298
data_MOF--net-hbo--node1-KOZSID_clean_sbu_0--edge1-AJUNOK_clean_linker_0
_symmetry_space_group_name_H-M    P1
_symmetry_Int_Tables_number       1
_symmetry_cell_setting            triclinic
loop_
_symmetry_equiv_pos_as_xyz
'x, y, z'
_cell_length_a     54.146392
_cell_length_b     48.767314
_cell_length_c     48.720999
_cell_angle_alpha  90.18285
_cell_angle_beta   90.449125
_cell_angle_gamma 88.330503
loop_
_atom_site_label
_atom_site_type_symbol
_atom_site_fract_x
_atom_site_fract_y
_atom_site_fract_z
_atom_type_partial_charge
C0 C 0.19674 0.33708 0.32545 0.0
C1 C 0.20896 0.33304 0.35035 0.0
C2 C 0.21306 0.35844 0.361 0.0
C3 C 0.20325 0.37657 0.34213 0.0
N4 N 0.19275 0.36422 0.32036 0.0
Co5 Co 0.17695 0.38342 0.28822 0.0
N6 N 0.19177 0.41901 0.29816 0.0
C7 C 0.20781 0.42279 0.31896 0.0
C8 C 0.22383 0.44346 0.31415 0.0
C9 C 0.21695 0.45394 0.28915 0.0
C10 C 0.19594 0.44027 0.28101 0.0
N11 N 0.16001 0.40398 0.25726 0.0
C12 C 0.15877 0.43181 0.25183 0.0
C13 C 0.13732 0.43815 0.23702 0.0
C14 C 0.12597 0.41398 0.2314 0.0
C15 C 0.14019 0.394 0.24405 0.0
N16 N 0.16394 0.34713 0.27751 0.0
C17 C 0.14545 0.34337 0.25958 0.0
C18 C 0.14087 0.31607 0.25536 0.0
C19 C 0.15768 0.30183 0.27174 0.0
C20 C 0.17159 0.32126 0.28512 0.0
N21 N 0.14639 0.39118 0.3103 0.0
C22 C 0.09452 0.39563 0.32035 0.0
C23 C 0.1082 0.3712 0.32558 0.0
C24 C 0.13394 0.36958 0.32098 0.0
C25 C 0.10823 0.41859 0.31308 0.0
C26 C 0.13404 0.41611 0.3089 0.0
N27 N 0.20599 0.37402 0.26492 0.0
C28 C 0.22042 0.35489 0.2217 0.0
C29 C 0.24379 0.34864 0.23289 0.0
C30 C 0.24815 0.35649 0.26024 0.0
C31 C 0.22922 0.36948 0.27571 0.0
C32 C 0.20195 0.36735 0.23791 0.0
H33 H 0.23328 0.37479 0.29668 0.0
H34 H 0.18394 0.37013 0.22873 0.0
H35 H 0.1433 0.34997 0.32392 0.0
H36 H 0.14358 0.43409 0.30265 0.0
C37 C 0.21048 0.40361 0.33995 0.0
C38 C 0.19025 0.31473 0.30677 0.0
C39 C 0.17662 0.45249 0.26262 0.0
C40 C 0.13461 0.36602 0.24583 0.0
H41 H 0.21542 0.31385 0.35932 0.0
H42 H 0.22407 0.36307 0.37898 0.0
H43 H 0.23921 0.44961 0.32686 0.0
H44 H 0.22495 0.47146 0.27938 0.0
H45 H 0.12907 0.45802 0.23272 0.0
H46 H 0.10845 0.41154 0.22098 0.0
H47 H 0.12726 0.30747 0.2417 0.0
H48 H 0.15925 0.27978 0.27398 0.0
H49 H 0.09897 0.35278 0.33154 0.0
H50 H 0.09897 0.4383 0.3098 0.0
H51 H 0.21603 0.3491 0.20078 0.0
H52 H 0.26603 0.35241 0.26972 0.0
C53 C 0.16942 0.68192 0.71951 0.0
C54 C 0.16841 0.68741 0.69157 0.0
C55 C 0.16231 0.66342 0.67883 0.0
C56 C 0.15958 0.64494 0.69971 0.0
N57 N 0.16349 0.65574 0.72472 0.0
Co58 Co 0.1567 0.63736 0.76003 0.0
N59 N 0.1608 0.60037 0.74289 0.0
C60 C 0.15972 0.59525 0.71568 0.0
C61 C 0.16228 0.56795 0.70926 0.0
C62 C 0.16469 0.55485 0.73392 0.0
C63 C 0.16327 0.57497 0.75419 0.0
N64 N 0.14819 0.61806 0.79448 0.0
C65 C 0.15062 0.59092 0.80152 0.0
C66 C 0.14138 0.58689 0.82759 0.0
C67 C 0.13298 0.61219 0.83699 0.0
C68 C 0.13735 0.63041 0.81617 0.0
N69 N 0.15399 0.67471 0.77615 0.0
C70 C 0.14437 0.6807 0.80081 0.0
C71 C 0.14908 0.7072 0.8087 0.0
C72 C 0.16259 0.7183 0.78771 0.0
C73 C 0.16535 0.69808 0.76782 0.0
N74 N 0.12044 0.63838 0.75063 0.0
C75 C 0.06724 0.64342 0.74864 0.0
C76 C 0.08258 0.66487 0.74036 0.0
C77 C 0.10872 0.66213 0.74187 0.0
C78 C 0.07988 0.61899 0.75686 0.0
C79 C 0.10596 0.61667 0.75686 0.0
N80 N 0.19239 0.63825 0.77215 0.0
C81 C 0.21783 0.65167 0.81116 0.0
C82 C 0.23486 0.66418 0.79432 0.0
C83 C 0.2319 0.66009 0.76582 0.0
C84 C 0.2108 0.64666 0.7552 0.0
C85 C 0.19736 0.63871 0.79994 0.0
H86 H 0.20873 0.64452 0.73328 0.0
H87 H 0.1849 0.63125 0.81484 0.0
H88 H 0.11941 0.67972 0.73677 0.0
H89 H 0.11434 0.59746 0.76344 0.0
C90 C 0.15783 0.61662 0.69666 0.0
C91 C 0.17748 0.70133 0.74045 0.0
C92 C 0.16066 0.5686 0.7835 0.0
C93 C 0.13619 0.6594 0.81784 0.0
H94 H 0.17251 0.70647 0.68148 0.0
H95 H 0.16122 0.65961 0.65697 0.0
H96 H 0.16232 0.55864 0.68906 0.0
H97 H 0.16618 0.53286 0.73661 0.0
H98 H 0.14092 0.56771 0.83866 0.0
H99 H 0.12554 0.61686 0.85707 0.0
H100 H 0.14469 0.71681 0.82817 0.0
H101 H 0.16988 0.73866 0.78757 0.0
H102 H 0.0746 0.68414 0.73318 0.0
H103 H 0.07006 0.60176 0.76462 0.0
H104 H 0.2194 0.65321 0.83329 0.0
H105 H 0.24558 0.66763 0.7519 0.0
C106 C 0.8789 0.68856 0.31418 0.0
C107 C 0.87471 0.69317 0.34192 0.0
C108 C 0.87885 0.66854 0.35477 0.0
C109 C 0.88541 0.65053 0.3342 0.0
N110 N 0.88577 0.6622 0.30926 0.0
Co111 Co 0.89668 0.64405 0.2747 0.0
N112 N 0.89074 0.60696 0.29003 0.0
C113 C 0.88777 0.60131 0.31689 0.0
C114 C 0.88527 0.57402 0.3222 0.0
C115 C 0.88725 0.56144 0.29727 0.0
C116 C 0.89095 0.58177 0.27796 0.0
N117 N 0.90927 0.62505 0.24104 0.0
C118 C 0.90903 0.59804 0.2334 0.0
C119 C 0.92174 0.59396 0.20907 0.0
C120 C 0.93039 0.61907 0.20146 0.0
C121 C 0.92263 0.63717 0.22154 0.0
N122 N 0.90137 0.68141 0.2599 0.0
C123 C 0.9141 0.68736 0.23728 0.0
C124 C 0.91131 0.71461 0.23021 0.0
C125 C 0.89579 0.72632 0.24962 0.0
C126 C 0.89002 0.7056 0.26763 0.0
N127 N 0.93131 0.64269 0.28913 0.0
C128 C 0.98329 0.64433 0.29829 0.0
C129 C 0.96773 0.6675 0.3027 0.0
C130 C 0.942 0.66621 0.29828 0.0
C131 C 0.97182 0.61996 0.29053 0.0
C132 C 0.94605 0.61952 0.2863 0.0
N133 N 0.86256 0.64731 0.25834 0.0
C134 C 0.83955 0.66266 0.21781 0.0
C135 C 0.81951 0.67193 0.23347 0.0
C136 C 0.82044 0.66597 0.26176 0.0
C137 C 0.84197 0.65343 0.27374 0.0
C138 C 0.86049 0.65058 0.23036 0.0
H139 H 0.84233 0.65025 0.29566 0.0
H140 H 0.87559 0.64613 0.2169 0.0
H141 H 0.93091 0.68472 0.3012 0.0
H142 H 0.93837 0.60057 0.2794 0.0
C143 C 0.88661 0.62212 0.33656 0.0
C144 C 0.87516 0.70925 0.29295 0.0
C145 C 0.89848 0.57557 0.24958 0.0
C146 C 0.92426 0.66601 0.22095 0.0
H147 H 0.8687 0.71217 0.35166 0.0
H148 H 0.87608 0.66402 0.37624 0.0
H149 H 0.88277 0.56434 0.34192 0.0
H150 H 0.88752 0.53961 0.29401 0.0
H151 H 0.92465 0.57478 0.19817 0.0
H152 H 0.94063 0.62364 0.18313 0.0
H153 H 0.91859 0.72454 0.21229 0.0
H154 H 0.88936 0.74751 0.25027 0.0
H155 H 0.97541 0.68677 0.30909 0.0
H156 H 0.98275 0.60148 0.28643 0.0
H157 H 0.83977 0.6662 0.19587 0.0
H158 H 0.80492 0.67161 0.27468 0.0
C159 C 0.87592 0.34552 0.71514 0.0
C160 C 0.87013 0.34487 0.68734 0.0
C161 C 0.87252 0.37106 0.67786 0.0
C162 C 0.87988 0.38598 0.70028 0.0
N163 N 0.88247 0.3708 0.72314 0.0
Co164 Co 0.89519 0.38359 0.75905 0.0
N165 N 0.88598 0.42242 0.75015 0.0
C166 C 0.87984 0.43199 0.72498 0.0
C167 C 0.87358 0.45939 0.7247 0.0
C168 C 0.87646 0.46792 0.75121 0.0
C169 C 0.8848 0.44521 0.76625 0.0
N170 N 0.90919 0.39719 0.79427 0.0
C171 C 0.90865 0.42287 0.80566 0.0
C172 C 0.92373 0.42344 0.82878 0.0
C173 C 0.93424 0.39753 0.83163 0.0
C174 C 0.92518 0.38245 0.81009 0.0
N175 N 0.90278 0.3444 0.76729 0.0
C176 C 0.91821 0.33513 0.78705 0.0
C177 C 0.91699 0.30712 0.79019 0.0
C178 C 0.89965 0.29855 0.77125 0.0
C179 C 0.89118 0.32178 0.75741 0.0
N180 N 0.92887 0.38756 0.74305 0.0
C181 C 0.98136 0.38756 0.73692 0.0
C182 C 0.96737 0.36489 0.72891 0.0
C183 C 0.94135 0.36541 0.7318 0.0
C184 C 0.96791 0.41087 0.74614 0.0
C185 C 0.942 0.41057 0.74862 0.0
N186 N 0.8628 0.37783 0.77715 0.0
C187 C 0.84372 0.3546 0.81509 0.0
C188 C 0.82077 0.35456 0.8019 0.0
C189 C 0.81897 0.36798 0.77625 0.0
C190 C 0.84025 0.3794 0.76414 0.0
C191 C 0.86386 0.36667 0.80296 0.0
H192 H 0.83871 0.38829 0.74388 0.0
H193 H 0.88086 0.36471 0.81415 0.0
H194 H 0.93154 0.34718 0.72639 0.0
H195 H 0.93289 0.42849 0.75701 0.0
C196 C 0.87875 0.41447 0.70231 0.0
C197 C 0.87349 0.32239 0.73378 0.0
C198 C 0.896 0.4476 0.79377 0.0
C199 C 0.92885 0.35389 0.80558 0.0
H200 H 0.86384 0.32755 0.67551 0.0
H201 H 0.86776 0.37864 0.65759 0.0
H202 H 0.86776 0.47176 0.70727 0.0
H203 H 0.87406 0.48889 0.75828 0.0
H204 H 0.92716 0.44094 0.84184 0.0
H205 H 0.94683 0.39052 0.84766 0.0
H206 H 0.92642 0.29458 0.80552 0.0
H207 H 0.89381 0.27773 0.7683 0.0
H208 H 0.97651 0.34648 0.72106 0.0
H209 H 0.97733 0.42894 0.75302 0.0
H210 H 0.84663 0.34419 0.8345 0.0
H211 H 0.80148 0.36901 0.76536 0.0
C212 C 0.2169 0.18299 0.33762 0.0
C213 C 0.1935 0.18472 0.32568 0.0
C214 C 0.18707 0.15862 0.31956 0.0
C215 C 0.20683 0.14247 0.32781 0.0
N216 N 0.22551 0.15642 0.33903 0.0
Co217 Co 0.25733 0.1397 0.35406 0.0
N218 N 0.24851 0.10163 0.34187 0.0
C219 C 0.22771 0.09503 0.32829 0.0
C220 C 0.22641 0.06785 0.32157 0.0
C221 C 0.24763 0.05605 0.33172 0.0
C222 C 0.26074 0.07681 0.34422 0.0
N223 N 0.28798 0.12205 0.37082 0.0
C224 C 0.29552 0.09496 0.37319 0.0
C225 C 0.31716 0.0924 0.38841 0.0
C226 C 0.3234 0.11844 0.39598 0.0
C227 C 0.30526 0.13551 0.38503 0.0
N228 N 0.26642 0.17794 0.36458 0.0
C229 C 0.28689 0.18456 0.37859 0.0
C230 C 0.28945 0.21239 0.38139 0.0
C231 C 0.26936 0.22417 0.36817 0.0
C232 C 0.25559 0.20287 0.35797 0.0
N233 N 0.24108 0.13506 0.39031 0.0
C234 C 0.23475 0.13421 0.448 0.0
C235 C 0.22867 0.15775 0.43263 0.0
C236 C 0.23159 0.15762 0.40395 0.0
C237 C 0.24087 0.11019 0.43328 0.0
C238 C 0.24372 0.111 0.40464 0.0
N239 N 0.27523 0.14616 0.31871 0.0
C240 C 0.31542 0.14774 0.29665 0.0
C241 C 0.3083 0.17131 0.28173 0.0
C242 C 0.28358 0.18028 0.28401 0.0
C243 C 0.26741 0.16705 0.30161 0.0
C244 C 0.29864 0.13531 0.31451 0.0
H245 H 0.24893 0.17514 0.30183 0.0
H246 H 0.30527 0.11744 0.32544 0.0
H247 H 0.22764 0.17649 0.39326 0.0
H248 H 0.24946 0.09233 0.39464 0.0
C249 C 0.20925 0.11456 0.32309 0.0
C250 C 0.2315 0.20723 0.34377 0.0
C251 C 0.28313 0.07114 0.36076 0.0
C252 C 0.30368 0.1641 0.38761 0.0
H253 H 0.18256 0.20292 0.32063 0.0
H254 H 0.1704 0.15227 0.30924 0.0
H255 H 0.21151 0.05768 0.31111 0.0
H256 H 0.25239 0.0344 0.3308 0.0
H257 H 0.32737 0.07363 0.3934 0.0
H258 H 0.33925 0.12421 0.40813 0.0
H259 H 0.3043 0.22289 0.39159 0.0
H260 H 0.26515 0.24594 0.36645 0.0
H261 H 0.22307 0.1767 0.44275 0.0
H262 H 0.24436 0.09097 0.44389 0.0
H263 H 0.33398 0.13906 0.29483 0.0
H264 H 0.27669 0.19822 0.27303 0.0
C265 C 0.36043 0.81804 0.84069 0.0
C266 C 0.35038 0.84455 0.83874 0.0
C267 C 0.35205 0.85598 0.86423 0.0
C268 C 0.36259 0.83586 0.8804 0.0
N269 N 0.3679 0.81239 0.86676 0.0
Co270 Co 0.38194 0.77788 0.88334 0.0
N271 N 0.37237 0.78988 0.92121 0.0
C272 C 0.36492 0.81553 0.92836 0.0
C273 C 0.35911 0.81839 0.9555 0.0
C274 C 0.36366 0.79313 0.96653 0.0
C275 C 0.37234 0.77618 0.94554 0.0
N276 N 0.39713 0.74432 0.90087 0.0
C277 C 0.39708 0.73533 0.92754 0.0
C278 C 0.41256 0.71239 0.93055 0.0
C279 C 0.42288 0.70715 0.90526 0.0
C280 C 0.41326 0.72714 0.88809 0.0
N281 N 0.39015 0.76626 0.84532 0.0
C282 C 0.40607 0.74575 0.83868 0.0
C283 C 0.40692 0.7413 0.81077 0.0
C284 C 0.39039 0.76018 0.79932 0.0
C285 C 0.38025 0.77517 0.82086 0.0
N286 N 0.41519 0.79486 0.88734 0.0
C287 C 0.46763 0.80162 0.88735 0.0
C288 C 0.45276 0.80814 0.86424 0.0
C289 C 0.42684 0.80491 0.86473 0.0
C290 C 0.45496 0.79425 0.91123 0.0
C291 C 0.42904 0.7912 0.91086 0.0
N292 N 0.3499 0.75876 0.87731 0.0
C293 C 0.33182 0.71716 0.85935 0.0
C294 C 0.30974 0.73088 0.85198 0.0
C295 C 0.30768 0.75894 0.85921 0.0
C296 C 0.32774 0.77234 0.87214 0.0
C297 C 0.35123 0.73112 0.87168 0.0
H298 H 0.32553 0.79391 0.87682 0.0
H299 H 0.36791 0.7192 0.87467 0.0
H300 H 0.41645 0.80908 0.84612 0.0
H301 H 0.4206 0.7841 0.92936 0.0
C302 C 0.36183 0.83602 0.90883 0.0
C303 C 0.36252 0.79889 0.81748 0.0
C304 C 0.38407 0.74908 0.95083 0.0
C305 C 0.4167 0.72899 0.85944 0.0
H306 H 0.34195 0.85452 0.8211 0.0
H307 H 0.34462 0.87581 0.87064 0.0
H308 H 0.35234 0.83666 0.96602 0.0
H309 H 0.36166 0.78811 0.98788 0.0
H310 H 0.41631 0.70097 0.9492 0.0
H311 H 0.43569 0.69054 0.90001 0.0
H312 H 0.41755 0.72555 0.80003 0.0
H313 H 0.38626 0.76266 0.77769 0.0
H314 H 0.4611 0.8152 0.84553 0.0
H315 H 0.46512 0.78943 0.92991 0.0
H316 H 0.33474 0.69564 0.85437 0.0
H317 H 0.2908 0.77058 0.85479 0.0
C318 C 0.71138 0.84559 0.33646 0.0
C319 C 0.68831 0.8338 0.33742 0.0
C320 C 0.68366 0.82856 0.36424 0.0
C321 C 0.70408 0.83706 0.37817 0.0
N322 N 0.72149 0.84775 0.36209 0.0
Co323 Co 0.75389 0.86261 0.37515 0.0
N324 N 0.74772 0.85141 0.41421 0.0
C325 C 0.72816 0.83762 0.42313 0.0
C326 C 0.72925 0.83086 0.45038 0.0
C327 C 0.7508 0.84126 0.45971 0.0
C328 C 0.76156 0.85401 0.43752 0.0
N329 N 0.78507 0.87936 0.38924 0.0
C330 C 0.79369 0.88303 0.41555 0.0
C331 C 0.81495 0.89813 0.41572 0.0
C332 C 0.81983 0.90425 0.38886 0.0
C333 C 0.8013 0.89263 0.37374 0.0
N334 N 0.76057 0.87148 0.33579 0.0
C335 C 0.78045 0.8845 0.32671 0.0
C336 C 0.78143 0.88591 0.29858 0.0
C337 C 0.76093 0.87274 0.28922 0.0
C338 C 0.74852 0.86398 0.3122 0.0
N339 N 0.73757 0.89968 0.38065 0.0
C340 C 0.73339 0.95788 0.38484 0.0
C341 C 0.72849 0.94425 0.36001 0.0
C342 C 0.73021 0.91533 0.35848 0.0
C343 C 0.73696 0.94132 0.40813 0.0
C344 C 0.73875 0.91257 0.40563 0.0
N345 N 0.77194 0.82676 0.36812 0.0
C346 C 0.81236 0.80382 0.36551 0.0
C347 C 0.80525 0.78878 0.34228 0.0
C348 C 0.78029 0.7908 0.33456 0.0
C349 C 0.76404 0.80929 0.34793 0.0
C350 C 0.79543 0.82217 0.37833 0.0
H351 H 0.7454 0.80983 0.34068 0.0
H352 H 0.80196 0.83323 0.39592 0.0
H353 H 0.72687 0.90601 0.33881 0.0
H354 H 0.74238 0.90115 0.42391 0.0
C355 C 0.70854 0.83239 0.40576 0.0
C356 C 0.72457 0.8501 0.31068 0.0
C357 C 0.78284 0.87166 0.44072 0.0
C358 C 0.7982 0.89399 0.34522 0.0
H359 H 0.6765 0.82792 0.32056 0.0
H360 H 0.66786 0.81833 0.37246 0.0
H361 H 0.71565 0.82026 0.46221 0.0
H362 H 0.75732 0.84058 0.48076 0.0
H363 H 0.82582 0.90394 0.43344 0.0
H364 H 0.83502 0.91595 0.38129 0.0
H365 H 0.79552 0.89512 0.28628 0.0
H366 H 0.75557 0.87005 0.26795 0.0
H367 H 0.7246 0.95582 0.34146 0.0
H368 H 0.73916 0.95051 0.42822 0.0
H369 H 0.83095 0.80165 0.37371 0.0
H370 H 0.77337 0.77885 0.31753 0.0
C371 C 0.68048 0.2081 0.83632 0.0
C372 C 0.6757 0.18096 0.82998 0.0
C373 C 0.67217 0.16782 0.85437 0.0
C374 C 0.67368 0.18792 0.874 0.0
N375 N 0.67772 0.21286 0.86362 0.0
Co376 Co 0.67033 0.24772 0.88371 0.0
N377 N 0.67616 0.22979 0.92007 0.0
C378 C 0.67639 0.20245 0.92424 0.0
C379 C 0.67949 0.19522 0.95121 0.0
C380 C 0.68076 0.21946 0.9652 0.0
C381 C 0.67812 0.24035 0.94592 0.0
N382 N 0.6608 0.28163 0.90462 0.0
C383 C 0.66237 0.28766 0.93214 0.0
C384 C 0.65173 0.31333 0.93734 0.0
C385 C 0.64296 0.32334 0.91257 0.0
C386 C 0.64875 0.30339 0.89345 0.0
N387 N 0.66556 0.26477 0.84702 0.0
C388 C 0.65221 0.2879 0.8425 0.0
C389 C 0.64931 0.2933 0.81499 0.0
C390 C 0.66199 0.27235 0.80158 0.0
C391 C 0.67313 0.25578 0.82156 0.0
N392 N 0.63444 0.23816 0.88452 0.0
C393 C 0.58134 0.23806 0.88134 0.0
C394 C 0.59647 0.22878 0.85947 0.0
C395 C 0.62252 0.22971 0.86117 0.0
C396 C 0.59409 0.24488 0.90572 0.0
C397 C 0.62019 0.24401 0.90709 0.0
N398 N 0.70567 0.25985 0.88122 0.0
C399 C 0.72992 0.30082 0.87655 0.0
C400 C 0.74575 0.28835 0.85742 0.0
C401 C 0.74244 0.26023 0.85241 0.0
C402 C 0.72281 0.24631 0.86496 0.0
C403 C 0.71098 0.2863 0.88867 0.0
H404 H 0.7212 0.22485 0.86034 0.0
H405 H 0.70019 0.298 0.90298 0.0
H406 H 0.63289 0.22444 0.84304 0.0
H407 H 0.6287 0.24959 0.92626 0.0
C408 C 0.67353 0.18416 0.90236 0.0
C409 C 0.68715 0.22919 0.81627 0.0
C410 C 0.67312 0.2692 0.95376 0.0
C411 C 0.64476 0.30469 0.86478 0.0
H412 H 0.67515 0.17154 0.80985 0.0
H413 H 0.66903 0.14623 0.85741 0.0
H414 H 0.68008 0.17476 0.9598 0.0
H415 H 0.68184 0.22143 0.9873 0.0
H416 H 0.65025 0.32358 0.95702 0.0
H417 H 0.63368 0.34296 0.90896 0.0
H418 H 0.63898 0.31023 0.8057 0.0
H419 H 0.66167 0.26896 0.77966 0.0
H420 H 0.58861 0.22098 0.8407 0.0
H421 H 0.5842 0.2519 0.92372 0.0
H422 H 0.73122 0.32238 0.8815 0.0
H423 H 0.75469 0.24906 0.8386 0.0
C424 C 0.32442 0.83767 0.69339 0.0
C425 C 0.34751 0.82438 0.69261 0.0
C426 C 0.35437 0.82326 0.66585 0.0
C427 C 0.33508 0.83539 0.6517 0.0
N428 N 0.31632 0.84444 0.66772 0.0
Co429 Co 0.28433 0.86172 0.65434 0.0
N430 N 0.29134 0.85111 0.6151 0.0
C431 C 0.31236 0.8389 0.60595 0.0
C432 C 0.31211 0.83269 0.57854 0.0
C433 C 0.28964 0.842 0.56928 0.0
C434 C 0.27754 0.85376 0.59165 0.0
N435 N 0.25357 0.88082 0.63979 0.0
C436 C 0.24436 0.88368 0.61354 0.0
C437 C 0.22404 0.9016 0.61308 0.0
C438 C 0.22052 0.91051 0.63958 0.0
C439 C 0.2389 0.8977 0.65485 0.0
N440 N 0.27719 0.8704 0.69363 0.0
C441 C 0.25877 0.88719 0.70238 0.0
C442 C 0.25744 0.88848 0.73053 0.0
C443 C 0.2762 0.87132 0.74011 0.0
C444 C 0.28802 0.86042 0.71727 0.0
N445 N 0.30076 0.89777 0.65019 0.0
C446 C 0.3049 0.95604 0.65094 0.0
C447 C 0.31125 0.93984 0.67398 0.0
C448 C 0.30976 0.91097 0.67292 0.0
C449 C 0.29925 0.94168 0.62668 0.0
C450 C 0.29748 0.91288 0.62671 0.0
N451 N 0.26608 0.82687 0.66083 0.0
C452 C 0.22787 0.80784 0.67775 0.0
C453 C 0.24025 0.78473 0.68872 0.0
C454 C 0.26584 0.78238 0.68351 0.0
C455 C 0.2781 0.80304 0.66901 0.0
C456 C 0.24083 0.82827 0.66413 0.0
H457 H 0.29757 0.79983 0.6656 0.0
H458 H 0.2298 0.84561 0.65757 0.0
H459 H 0.3141 0.89966 0.69139 0.0
H460 H 0.29169 0.90325 0.60808 0.0
C461 C 0.33195 0.83324 0.62359 0.0
C462 C 0.31063 0.84244 0.71883 0.0
C463 C 0.25506 0.87103 0.58836 0.0
C464 C 0.24226 0.89957 0.68344 0.0
H465 H 0.35805 0.81538 0.7094 0.0
H466 H 0.37066 0.81299 0.65752 0.0
H467 H 0.32671 0.82294 0.56661 0.0
H468 H 0.2834 0.84142 0.54813 0.0
H469 H 0.21316 0.90785 0.59533 0.0
H470 H 0.20625 0.92469 0.64682 0.0
H471 H 0.24418 0.90014 0.7427 0.0
H472 H 0.28085 0.86748 0.76143 0.0
H473 H 0.31587 0.94923 0.69341 0.0
H474 H 0.29515 0.95267 0.60784 0.0
H475 H 0.20807 0.81052 0.67998 0.0
H476 H 0.27676 0.76517 0.69133 0.0
C477 C 0.68446 0.82218 0.1864 0.0
C478 C 0.69315 0.84863 0.18897 0.0
C479 C 0.69194 0.86008 0.16348 0.0
C480 C 0.68296 0.84003 0.14672 0.0
N481 N 0.6783 0.81657 0.15997 0.0
Co482 Co 0.66643 0.78219 0.14262 0.0
N483 N 0.67646 0.79428 0.10522 0.0
C484 C 0.68261 0.81998 0.09848 0.0
C485 C 0.68866 0.823 0.07148 0.0
C486 C 0.68575 0.79776 0.06009 0.0
C487 C 0.67781 0.78063 0.0808 0.0
N488 N 0.65353 0.74863 0.12441 0.0
C489 C 0.65513 0.73949 0.09784 0.0
C490 C 0.64113 0.71641 0.09411 0.0
C491 C 0.63011 0.71125 0.11883 0.0
C492 C 0.63789 0.73141 0.1364 0.0
N493 N 0.65754 0.77043 0.18019 0.0
C494 C 0.64233 0.75003 0.18604 0.0
C495 C 0.64041 0.74577 0.21385 0.0
C496 C 0.65542 0.7647 0.22613 0.0
C497 C 0.66577 0.77951 0.20514 0.0
N498 N 0.63263 0.79938 0.13761 0.0
C499 C 0.58018 0.80799 0.13547 0.0
C500 C 0.59402 0.81384 0.15927 0.0
C501 C 0.62 0.80983 0.1598 0.0
C502 C 0.59374 0.79966 0.1122 0.0
C503 C 0.61967 0.79579 0.11361 0.0
N504 N 0.6992 0.76314 0.14939 0.0
C505 C 0.71966 0.72182 0.16732 0.0
C506 C 0.74101 0.73578 0.17416 0.0
C507 C 0.74152 0.76372 0.16674 0.0
C508 C 0.72065 0.77685 0.15402 0.0
C509 C 0.69929 0.73561 0.15536 0.0
H510 H 0.72162 0.79835 0.14907 0.0
H511 H 0.6831 0.72377 0.15283 0.0
H512 H 0.62967 0.81377 0.1788 0.0
H513 H 0.62889 0.78817 0.09553 0.0
C514 C 0.68432 0.84036 0.11831 0.0
C515 C 0.68196 0.80326 0.20949 0.0
C516 C 0.66808 0.75328 0.07517 0.0
C517 C 0.63327 0.73328 0.16482 0.0
H518 H 0.70023 0.85858 0.20714 0.0
H519 H 0.69851 0.87995 0.15756 0.0
H520 H 0.69454 0.84136 0.06128 0.0
H521 H 0.68828 0.79292 0.03866 0.0
H522 H 0.63877 0.70484 0.07532 0.0
H523 H 0.61809 0.69457 0.12349 0.0
H524 H 0.63003 0.73018 0.22401 0.0
H525 H 0.65838 0.76737 0.24795 0.0
H526 H 0.58477 0.82094 0.17771 0.0
H527 H 0.58433 0.79465 0.09323 0.0
H528 H 0.71809 0.70035 0.17252 0.0
H529 H 0.75781 0.77544 0.17093 0.0
C530 C 0.72198 0.18916 0.6939 0.0
C531 C 0.69704 0.19541 0.6976 0.0
C532 C 0.6863 0.19519 0.67216 0.0
C533 C 0.70516 0.18865 0.65448 0.0
N534 N 0.72721 0.18457 0.66695 0.0
Co535 Co 0.75837 0.17159 0.64833 0.0
N536 N 0.74483 0.18117 0.61097 0.0
C537 C 0.72098 0.18787 0.60534 0.0
C538 C 0.7162 0.19275 0.57814 0.0
C539 C 0.73827 0.18845 0.56539 0.0
C540 C 0.75543 0.18104 0.58562 0.0
N541 N 0.7885 0.1568 0.62884 0.0
C542 C 0.79495 0.15714 0.60158 0.0
C543 C 0.81729 0.14316 0.59766 0.0
C544 C 0.825 0.13374 0.62299 0.0
C545 C 0.80701 0.14238 0.64109 0.0
N546 N 0.77147 0.16335 0.68597 0.0
C547 C 0.7926 0.14923 0.69138 0.0
C548 C 0.79851 0.14905 0.71888 0.0
C549 C 0.77998 0.16412 0.73158 0.0
C550 C 0.76353 0.17262 0.71118 0.0
N551 N 0.74488 0.13387 0.64565 0.0
C552 C 0.73868 0.0757 0.64661 0.0
C553 C 0.73216 0.0927 0.66911 0.0
C554 C 0.73562 0.12131 0.66835 0.0
C555 C 0.74675 0.08939 0.623 0.0
C556 C 0.74884 0.11812 0.62266 0.0
N557 N 0.77401 0.20849 0.65273 0.0
C558 C 0.81363 0.22994 0.66033 0.0
C559 C 0.80389 0.24719 0.68079 0.0
C560 C 0.77811 0.24694 0.68422 0.0
C561 C 0.76356 0.22836 0.66936 0.0
C562 C 0.79856 0.21138 0.64639 0.0
H563 H 0.74398 0.22967 0.67254 0.0
H564 H 0.80772 0.19897 0.63123 0.0
H565 H 0.73184 0.13302 0.68673 0.0
H566 H 0.75527 0.12719 0.60407 0.0
C567 C 0.70355 0.18991 0.62608 0.0
C568 C 0.74018 0.18878 0.71636 0.0
C569 C 0.78043 0.17047 0.57899 0.0
C570 C 0.80772 0.13974 0.66981 0.0
H571 H 0.68762 0.20007 0.71663 0.0
H572 H 0.66721 0.20023 0.66707 0.0
H573 H 0.69863 0.19833 0.56863 0.0
H574 H 0.74105 0.18942 0.54346 0.0
H575 H 0.82702 0.14025 0.5785 0.0
H576 H 0.84199 0.12243 0.62769 0.0
H577 H 0.81489 0.14001 0.72848 0.0
H578 H 0.77892 0.1686 0.7533 0.0
H579 H 0.7251 0.08399 0.68777 0.0
H580 H 0.75288 0.07822 0.60503 0.0
H581 H 0.83305 0.23037 0.65524 0.0
H582 H 0.7691 0.26027 0.69903 0.0
C583 C 0.38229 0.20584 0.18375 0.0
C584 C 0.37672 0.17826 0.18267 0.0
C585 C 0.38046 0.16996 0.15611 0.0
C586 C 0.38825 0.19282 0.14267 0.0
N587 N 0.38983 0.21489 0.15912 0.0
Co588 Co 0.40184 0.25136 0.14846 0.0
N589 N 0.39485 0.24411 0.10897 0.0
C590 C 0.38993 0.21944 0.09793 0.0
C591 C 0.38471 0.22052 0.0704 0.0
C592 C 0.38697 0.24743 0.06341 0.0
C593 C 0.39392 0.26131 0.08712 0.0
N594 N 0.41499 0.28729 0.13726 0.0
C595 C 0.4149 0.29996 0.11231 0.0
C596 C 0.42878 0.3234 0.11342 0.0
C597 C 0.43807 0.32519 0.13972 0.0
C598 C 0.4295 0.30274 0.15329 0.0
N599 N 0.40742 0.25806 0.18824 0.0
C600 C 0.42175 0.27743 0.19896 0.0
C601 C 0.41981 0.27891 0.22711 0.0
C602 C 0.40317 0.25928 0.23431 0.0
C603 C 0.39586 0.24677 0.21014 0.0
N604 N 0.43612 0.2357 0.14487 0.0
C605 C 0.48852 0.22879 0.14602 0.0
C606 C 0.47379 0.21933 0.16757 0.0
C607 C 0.44779 0.22283 0.16655 0.0
C608 C 0.47596 0.23929 0.12284 0.0
C609 C 0.45005 0.24234 0.12262 0.0
N610 N 0.36852 0.26869 0.15335 0.0
C611 C 0.34514 0.30598 0.17467 0.0
C612 C 0.32319 0.29211 0.17168 0.0
C613 C 0.324 0.26684 0.15761 0.0
C614 C 0.34693 0.25545 0.1485 0.0
C615 C 0.36729 0.29412 0.16548 0.0
H616 H 0.34733 0.23554 0.1387 0.0
H617 H 0.38361 0.30525 0.16989 0.0
H618 H 0.43727 0.21644 0.18402 0.0
H619 H 0.44153 0.25188 0.10502 0.0
C620 C 0.38846 0.1961 0.11429 0.0
C621 C 0.37924 0.22314 0.2081 0.0
C622 C 0.40401 0.28903 0.08666 0.0
C623 C 0.43226 0.29697 0.18159 0.0
H624 H 0.36988 0.16578 0.19913 0.0
H625 H 0.37634 0.15019 0.14731 0.0
H626 H 0.37981 0.20376 0.05698 0.0
H627 H 0.38499 0.25558 0.04285 0.0
H628 H 0.43224 0.33739 0.09677 0.0
H629 H 0.44951 0.34111 0.14798 0.0
H630 H 0.42836 0.29352 0.24069 0.0
H631 H 0.39706 0.25488 0.25486 0.0
H632 H 0.48225 0.20984 0.1855 0.0
H633 H 0.48612 0.24662 0.10541 0.0
H634 H 0.34538 0.32559 0.18521 0.0
H635 H 0.30725 0.25564 0.15444 0.0
C636 C 0.83934 0.66984 0.78526 0.0
C637 C 0.82082 0.66521 0.76615 0.0
C638 C 0.83161 0.65088 0.74482 0.0
C639 C 0.85618 0.64771 0.75176 0.0
N640 N 0.86155 0.65892 0.77621 0.0
Co641 Co 0.89577 0.66429 0.7908 0.0
N642 N 0.9127 0.65114 0.75658 0.0
C643 C 0.90111 0.63943 0.7352 0.0
C644 C 0.91688 0.63194 0.71437 0.0
C645 C 0.93995 0.63904 0.72326 0.0
C646 C 0.93716 0.65032 0.74927 0.0
N647 N 0.92964 0.67196 0.80567 0.0
C648 C 0.95246 0.67115 0.79374 0.0
C649 C 0.97082 0.67641 0.81306 0.0
C650 C 0.95945 0.68005 0.83769 0.0
C651 C 0.93488 0.67683 0.83234 0.0
N652 N 0.87951 0.67483 0.82616 0.0
C653 C 0.89092 0.67587 0.85072 0.0
C654 C 0.8751 0.68018 0.87225 0.0
C655 C 0.8521 0.68224 0.86057 0.0
C656 C 0.85534 0.6795 0.83244 0.0
N657 N 0.89839 0.62541 0.80395 0.0
C658 C 0.90115 0.56709 0.80991 0.0
C659 C 0.92248 0.58277 0.80828 0.0
C660 C 0.92073 0.61138 0.80475 0.0
C661 C 0.87846 0.58195 0.81113 0.0
C662 C 0.87755 0.61084 0.8087 0.0
N663 N 0.89172 0.70249 0.77553 0.0
C664 C 0.86315 0.7419 0.77488 0.0
C665 C 0.86326 0.74285 0.746 0.0
C666 C 0.88125 0.72626 0.73299 0.0
C667 C 0.89536 0.70676 0.74797 0.0
C668 C 0.87803 0.72227 0.78918 0.0
H669 H 0.90832 0.69458 0.73633 0.0
H670 H 0.87723 0.72233 0.8112 0.0
H671 H 0.9377 0.62164 0.80162 0.0
H672 H 0.85967 0.62112 0.80953 0.0
C673 C 0.87522 0.63867 0.7343 0.0
C674 C 0.83541 0.68386 0.81224 0.0
C675 C 0.95819 0.66032 0.76605 0.0
C676 C 0.91648 0.67703 0.85214 0.0
H677 H 0.80166 0.67193 0.76706 0.0
H678 H 0.8228 0.64489 0.7258 0.0
H679 H 0.91211 0.6231 0.6947 0.0
H680 H 0.95687 0.6365 0.71174 0.0
H681 H 0.99061 0.67572 0.81034 0.0
H682 H 0.96821 0.68343 0.85742 0.0
H683 H 0.87981 0.68282 0.89371 0.0
H684 H 0.835 0.68635 0.87138 0.0
H685 H 0.9407 0.57312 0.80909 0.0
H686 H 0.86125 0.57139 0.81288 0.0
H687 H 0.85095 0.75549 0.78641 0.0
H688 H 0.88427 0.7279 0.71114 0.0
C689 C 0.89487 0.33087 0.28753 0.0
C690 C 0.90372 0.30805 0.27328 0.0
C691 C 0.92152 0.31716 0.25551 0.0
C692 C 0.92264 0.34507 0.25968 0.0
N693 N 0.90673 0.35377 0.27901 0.0
Co694 Co 0.89883 0.39272 0.28799 0.0
N695 N 0.91388 0.4073 0.25414 0.0
C696 C 0.93046 0.39307 0.23882 0.0
C697 C 0.93967 0.40865 0.21797 0.0
C698 C 0.92854 0.4343 0.22076 0.0
C699 C 0.91297 0.43308 0.24316 0.0
N700 N 0.88917 0.4312 0.29749 0.0
C701 C 0.88762 0.45413 0.28176 0.0
C702 C 0.87866 0.47631 0.29706 0.0
C703 C 0.8758 0.46741 0.32334 0.0
C704 C 0.88267 0.4402 0.3227 0.0
N705 N 0.8851 0.37901 0.32276 0.0
C706 C 0.88211 0.39362 0.34598 0.0
C707 C 0.8742 0.37821 0.36757 0.0
C708 C 0.87192 0.35227 0.35717 0.0
C709 C 0.8783 0.35355 0.32967 0.0
N710 N 0.93196 0.39667 0.30605 0.0
C711 C 0.98405 0.39756 0.31664 0.0
C712 C 0.97065 0.42089 0.30725 0.0
C713 C 0.94496 0.42011 0.30233 0.0
C714 C 0.97009 0.37432 0.32244 0.0
C715 C 0.94428 0.3744 0.31736 0.0
N716 N 0.86708 0.38723 0.26781 0.0
C717 C 0.82374 0.37538 0.26618 0.0
C718 C 0.82645 0.36364 0.23976 0.0
C719 C 0.84936 0.36614 0.2273 0.0
C720 C 0.86892 0.37797 0.24124 0.0
C721 C 0.8443 0.38705 0.27989 0.0
H722 H 0.88611 0.37731 0.23062 0.0
H723 H 0.84206 0.39466 0.30061 0.0
H724 H 0.93602 0.43823 0.29389 0.0
H725 H 0.93458 0.35576 0.32114 0.0
C726 C 0.93386 0.36436 0.24246 0.0
C727 C 0.87649 0.33075 0.3103 0.0
C728 C 0.89871 0.45707 0.2544 0.0
C729 C 0.88114 0.42216 0.3448 0.0
H730 H 0.89782 0.28716 0.27518 0.0
H731 H 0.93135 0.30504 0.24024 0.0
H732 H 0.95252 0.40205 0.20221 0.0
H733 H 0.93166 0.45193 0.20796 0.0
H734 H 0.87522 0.49704 0.29023 0.0
H735 H 0.86925 0.47932 0.34075 0.0
H736 H 0.86908 0.38531 0.38787 0.0
H737 H 0.86541 0.33469 0.36821 0.0
H738 H 0.98007 0.43968 0.30298 0.0
H739 H 0.97911 0.35554 0.32955 0.0
H740 H 0.80611 0.37501 0.27644 0.0
H741 H 0.85282 0.35758 0.2071 0.0
C742 C 0.18845 0.31658 0.76697 0.0
C743 C 0.19411 0.29833 0.78807 0.0
C744 C 0.18787 0.31114 0.81209 0.0
C745 C 0.17968 0.33692 0.80476 0.0
N746 N 0.17982 0.34129 0.77739 0.0
Co747 Co 0.18088 0.37885 0.76052 0.0
N748 N 0.17372 0.39884 0.79587 0.0
C749 C 0.17139 0.38686 0.82049 0.0
C750 C 0.16592 0.40514 0.84122 0.0
C751 C 0.16466 0.43042 0.82897 0.0
C752 C 0.16956 0.42618 0.80138 0.0
N753 N 0.18416 0.41611 0.74352 0.0
C754 C 0.18077 0.44193 0.75399 0.0
C755 C 0.18546 0.46176 0.73445 0.0
C756 C 0.19184 0.44818 0.71096 0.0
C757 C 0.19073 0.4209 0.71732 0.0
N758 N 0.18577 0.35963 0.72447 0.0
C759 C 0.18773 0.37177 0.69986 0.0
C760 C 0.18669 0.35391 0.67815 0.0
C761 C 0.18475 0.32862 0.68976 0.0
C762 C 0.18566 0.33248 0.71802 0.0
N763 N 0.1442 0.37984 0.75321 0.0
C764 C 0.09157 0.38244 0.74532 0.0
C765 C 0.10783 0.3934 0.72605 0.0
C766 C 0.13373 0.39204 0.73038 0.0
C767 C 0.10262 0.36973 0.76837 0.0
C768 C 0.12853 0.36866 0.77187 0.0
N769 N 0.21743 0.37649 0.76945 0.0
C770 C 0.25411 0.34631 0.76852 0.0
C771 C 0.26164 0.3547 0.79481 0.0
C772 C 0.24788 0.37647 0.80666 0.0
C773 C 0.22645 0.38744 0.79347 0.0
C774 C 0.23265 0.35783 0.75607 0.0
H775 H 0.21694 0.40417 0.80366 0.0
H776 H 0.22812 0.35014 0.7361 0.0
H777 H 0.14503 0.40104 0.71505 0.0
H778 H 0.13565 0.35892 0.7901 0.0
C779 C 0.1753 0.35857 0.82319 0.0
C780 C 0.19265 0.31035 0.73732 0.0
C781 C 0.17218 0.44891 0.78174 0.0
C782 C 0.19142 0.39978 0.69805 0.0
H783 H 0.2035 0.27856 0.78683 0.0
H784 H 0.19096 0.30334 0.83265 0.0
H785 H 0.16347 0.40068 0.86276 0.0
H786 H 0.16121 0.44985 0.83923 0.0
H787 H 0.1837 0.48381 0.73662 0.0
H788 H 0.1955 0.45714 0.69116 0.0
H789 H 0.18801 0.35858 0.65652 0.0
H790 H 0.1848 0.30934 0.67869 0.0
H791 H 0.10072 0.4028 0.7074 0.0
H792 H 0.09127 0.36097 0.78411 0.0
H793 H 0.26411 0.33002 0.75785 0.0
H794 H 0.25347 0.38491 0.82626 0.0
C795 C 0.18876 0.70915 0.28278 0.0
C796 C 0.18906 0.72912 0.2626 0.0
C797 C 0.18449 0.71624 0.23813 0.0
C798 C 0.18121 0.68924 0.24464 0.0
N799 N 0.18275 0.68423 0.27178 0.0
Co800 Co 0.18191 0.64674 0.28855 0.0
N801 N 0.17457 0.62721 0.25272 0.0
C802 C 0.17563 0.63932 0.22794 0.0
C803 C 0.17622 0.62096 0.20661 0.0
C804 C 0.17528 0.59558 0.21848 0.0
C805 C 0.17304 0.59959 0.24661 0.0
N806 N 0.18101 0.60939 0.3057 0.0
C807 C 0.16917 0.58703 0.29596 0.0
C808 C 0.16094 0.57094 0.3173 0.0
C809 C 0.17078 0.58124 0.34079 0.0
C810 C 0.1829 0.60411 0.33282 0.0
N811 N 0.18893 0.66525 0.32484 0.0
C812 C 0.1933 0.65202 0.34878 0.0
C813 C 0.20021 0.66853 0.36996 0.0
C814 C 0.20096 0.694 0.35896 0.0
C815 C 0.19388 0.69183 0.33147 0.0
N816 N 0.14534 0.65104 0.29466 0.0
C817 C 0.09275 0.65076 0.29926 0.0
C818 C 0.10836 0.64458 0.32177 0.0
C819 C 0.13434 0.64504 0.31913 0.0
C820 C 0.10426 0.65846 0.27491 0.0
C821 C 0.13018 0.65857 0.2731 0.0
N822 N 0.21848 0.64392 0.28037 0.0
C823 C 0.25179 0.67597 0.27577 0.0
C824 C 0.25437 0.66949 0.24786 0.0
C825 C 0.24266 0.64583 0.23871 0.0
C826 C 0.22616 0.63236 0.25603 0.0
C827 C 0.23412 0.66265 0.29173 0.0
H828 H 0.2183 0.61384 0.24846 0.0
H829 H 0.23257 0.66887 0.31277 0.0
H830 H 0.14523 0.64022 0.33702 0.0
H831 H 0.13773 0.66429 0.25377 0.0
C832 C 0.17874 0.66767 0.22585 0.0
C833 C 0.19613 0.71448 0.31172 0.0
C834 C 0.1705 0.57709 0.26727 0.0
C835 C 0.19019 0.62411 0.35105 0.0
H836 H 0.19321 0.75055 0.26514 0.0
H837 H 0.18458 0.7253 0.21788 0.0
H838 H 0.17874 0.62538 0.18507 0.0
H839 H 0.17806 0.57664 0.20742 0.0
H840 H 0.15032 0.55252 0.31582 0.0
H841 H 0.16804 0.57392 0.36147 0.0
H842 H 0.20494 0.66258 0.39078 0.0
H843 H 0.20758 0.71154 0.37002 0.0
H844 H 0.10062 0.6395 0.34147 0.0
H845 H 0.09332 0.66373 0.25688 0.0
H846 H 0.26244 0.69207 0.28494 0.0
H847 H 0.2459 0.63798 0.21819 0.0
C848 C 0.78101 0.82529 0.66575 0.0
C849 C 0.76499 0.80386 0.66256 0.0
C850 C 0.74452 0.81434 0.64886 0.0
C851 C 0.74896 0.84163 0.64462 0.0
N852 N 0.77101 0.84894 0.65458 0.0
Co853 Co 0.78229 0.88745 0.65837 0.0
N854 N 0.74994 0.90453 0.6464 0.0
C855 C 0.73094 0.89057 0.63593 0.0
C856 C 0.71091 0.90725 0.6293 0.0
C857 C 0.71774 0.9334 0.63579 0.0
C858 C 0.74175 0.9314 0.64588 0.0
N859 N 0.79408 0.92567 0.66414 0.0
C860 C 0.78184 0.95051 0.66378 0.0
C861 C 0.79826 0.97179 0.66687 0.0
C862 C 0.82134 0.96014 0.66882 0.0
C863 C 0.81796 0.93254 0.66676 0.0
N864 N 0.81553 0.87109 0.66778 0.0
C865 C 0.83698 0.88427 0.66722 0.0
C866 C 0.85741 0.86746 0.67139 0.0
C867 C 0.84832 0.84189 0.67494 0.0
C868 C 0.8228 0.84477 0.67285 0.0
N869 N 0.79231 0.8882 0.61887 0.0
C870 C 0.79614 0.88712 0.56034 0.0
C871 C 0.79195 0.91174 0.57493 0.0
C872 C 0.78974 0.9118 0.60371 0.0
C873 C 0.80044 0.86337 0.57629 0.0
C874 C 0.79878 0.86441 0.60524 0.0
N875 N 0.77027 0.88502 0.69746 0.0
C876 C 0.77098 0.85468 0.73713 0.0
C877 C 0.74507 0.85643 0.73949 0.0
C878 C 0.733 0.87661 0.72345 0.0
C879 C 0.7458 0.89077 0.70315 0.0
C880 C 0.78318 0.86977 0.71671 0.0
H881 H 0.73502 0.90552 0.69164 0.0
H882 H 0.80296 0.86781 0.71587 0.0
H883 H 0.78497 0.93104 0.61333 0.0
H884 H 0.80178 0.84554 0.61642 0.0
C885 C 0.73166 0.86176 0.63582 0.0
C886 C 0.806 0.82268 0.67849 0.0
C887 C 0.75578 0.95532 0.65572 0.0
C888 C 0.83691 0.91269 0.6668 0.0
H889 H 0.76756 0.78303 0.66979 0.0
H890 H 0.72781 0.80364 0.64396 0.0
H891 H 0.69312 0.90106 0.62158 0.0
H892 H 0.70617 0.95176 0.63384 0.0
H893 H 0.79439 0.99363 0.66596 0.0
H894 H 0.83864 0.97061 0.67058 0.0
H895 H 0.87651 0.87328 0.67293 0.0
H896 H 0.85911 0.8234 0.67945 0.0
H897 H 0.78983 0.93109 0.56425 0.0
H898 H 0.80413 0.84374 0.5665 0.0
H899 H 0.78179 0.84101 0.75025 0.0
H900 H 0.71351 0.88134 0.72616 0.0
C901 C 0.69465 0.26707 0.208 0.0
C902 C 0.69931 0.29003 0.22393 0.0
C903 C 0.69082 0.3124 0.20954 0.0
C904 C 0.68235 0.3023 0.18507 0.0
N905 N 0.68449 0.27469 0.18305 0.0
Co906 Co 0.68607 0.25447 0.14694 0.0
N907 N 0.67694 0.28768 0.12414 0.0
C908 C 0.6722 0.31297 0.13428 0.0
C909 C 0.66594 0.33192 0.11444 0.0
C910 C 0.66676 0.31778 0.09008 0.0
C911 C 0.67364 0.29092 0.09636 0.0
N912 N 0.69023 0.23427 0.11104 0.0
C913 C 0.68758 0.24262 0.08439 0.0
C914 C 0.69278 0.22126 0.06623 0.0
C915 C 0.69881 0.19878 0.08171 0.0
C916 C 0.69702 0.20752 0.10839 0.0
N917 N 0.6929 0.22051 0.16912 0.0
C918 C 0.69489 0.1948 0.15911 0.0
C919 C 0.6958 0.17498 0.17899 0.0
C920 C 0.6951 0.18904 0.20327 0.0
C921 C 0.69467 0.21677 0.19675 0.0
N922 N 0.64983 0.24648 0.14784 0.0
C923 C 0.59778 0.23778 0.14874 0.0
C924 C 0.61437 0.21869 0.13662 0.0
C925 C 0.64005 0.22333 0.13644 0.0
C926 C 0.60802 0.26141 0.16003 0.0
C927 C 0.63365 0.26523 0.15948 0.0
N928 N 0.72189 0.26421 0.14755 0.0
C929 C 0.75591 0.26657 0.18021 0.0
C930 C 0.75873 0.29465 0.1749 0.0
C931 C 0.74584 0.30527 0.15196 0.0
C932 C 0.72844 0.28941 0.13798 0.0
C933 C 0.73793 0.25165 0.16589 0.0
H934 H 0.7192 0.2988 0.12067 0.0
H935 H 0.73615 0.23047 0.17137 0.0
H936 H 0.65166 0.20799 0.12686 0.0
H937 H 0.64001 0.28386 0.16834 0.0
C938 C 0.67607 0.31838 0.16214 0.0
C939 C 0.70117 0.23835 0.21657 0.0
C940 C 0.67892 0.26992 0.07506 0.0
C941 C 0.69804 0.19031 0.13114 0.0
H942 H 0.70944 0.29106 0.24304 0.0
H943 H 0.69265 0.33371 0.21528 0.0
H944 H 0.66199 0.35363 0.11724 0.0
H945 H 0.66352 0.32642 0.06989 0.0
H946 H 0.69154 0.22157 0.04405 0.0
H947 H 0.70291 0.17818 0.07439 0.0
H948 H 0.69782 0.15301 0.1762 0.0
H949 H 0.6966 0.17991 0.22345 0.0
H950 H 0.6076 0.20007 0.12746 0.0
H951 H 0.59625 0.2774 0.16886 0.0
H952 H 0.76703 0.25619 0.19577 0.0
H953 H 0.74812 0.32623 0.14545 0.0
C954 C 0.26442 0.20749 0.66977 0.0
C955 C 0.28205 0.22736 0.66681 0.0
C956 C 0.3015 0.21536 0.65294 0.0
C957 C 0.29525 0.18862 0.64869 0.0
N958 N 0.27299 0.18293 0.65891 0.0
Co959 Co 0.2609 0.14498 0.66522 0.0
N960 N 0.29222 0.12616 0.65254 0.0
C961 C 0.31103 0.13882 0.64059 0.0
C962 C 0.32959 0.121 0.63217 0.0
C963 C 0.32197 0.09535 0.63909 0.0
C964 C 0.29918 0.09892 0.65161 0.0
N965 N 0.24867 0.10762 0.67383 0.0
C966 C 0.26053 0.08256 0.67465 0.0
C967 C 0.24469 0.06245 0.68328 0.0
C968 C 0.22194 0.07486 0.68634 0.0
C969 C 0.22517 0.10188 0.68007 0.0
N970 N 0.22866 0.16307 0.67516 0.0
C971 C 0.20694 0.15044 0.67566 0.0
C972 C 0.18685 0.16823 0.67601 0.0
C973 C 0.19651 0.19385 0.67595 0.0
C974 C 0.22203 0.1901 0.67657 0.0
N975 N 0.24868 0.14224 0.62665 0.0
C976 C 0.2405 0.13955 0.56913 0.0
C977 C 0.24605 0.11592 0.58451 0.0
C978 C 0.25 0.11766 0.61292 0.0
C979 C 0.23736 0.16437 0.58359 0.0
C980 C 0.24149 0.16527 0.6122 0.0
N981 N 0.27474 0.14879 0.70327 0.0
C982 C 0.28012 0.18363 0.73824 0.0
C983 C 0.30577 0.17853 0.7385 0.0
C984 C 0.31455 0.15491 0.72498 0.0
C985 C 0.29859 0.13979 0.70843 0.0
C986 C 0.26486 0.1679 0.7211 0.0
H987 H 0.30641 0.12188 0.69863 0.0
H988 H 0.24541 0.17278 0.72103 0.0
H989 H 0.25506 0.09898 0.62332 0.0
H990 H 0.23968 0.18489 0.62237 0.0
C991 C 0.31138 0.16748 0.63988 0.0
C992 C 0.23936 0.21218 0.68211 0.0
C993 C 0.28503 0.07602 0.66286 0.0
C994 C 0.20646 0.12211 0.67885 0.0
H995 H 0.28186 0.24802 0.67468 0.0
H996 H 0.31893 0.22458 0.64831 0.0
H997 H 0.34684 0.12606 0.62261 0.0
H998 H 0.33215 0.07626 0.63564 0.0
H999 H 0.24875 0.04072 0.6856 0.0
H1000 H 0.20492 0.06517 0.69176 0.0
H1001 H 0.16754 0.16322 0.67714 0.0
H1002 H 0.18604 0.21307 0.67703 0.0
H1003 H 0.2479 0.09608 0.57455 0.0
H1004 H 0.23275 0.1832 0.57273 0.0
H1005 H 0.27205 0.20052 0.74992 0.0
H1006 H 0.33386 0.14856 0.7265 0.0
C1007 C 0.38113 0.77532 0.20026 0.0
C1008 C 0.38943 0.75877 0.22168 0.0
C1009 C 0.40643 0.74018 0.21073 0.0
C1010 C 0.40762 0.74612 0.18315 0.0
N1011 N 0.3925 0.76732 0.17631 0.0
Co1012 Co 0.38487 0.77925 0.13812 0.0
N1013 N 0.39986 0.74577 0.12054 0.0
C1014 C 0.41575 0.72834 0.1335 0.0
C1015 C 0.42497 0.70815 0.11631 0.0
C1016 C 0.4146 0.71357 0.0909 0.0
C1017 C 0.39944 0.73677 0.09385 0.0
N1018 N 0.37559 0.79176 0.10034 0.0
C1019 C 0.37544 0.77827 0.07582 0.0
C1020 C 0.3681 0.79589 0.05475 0.0
C1021 C 0.36444 0.82127 0.06605 0.0
C1022 C 0.36948 0.81787 0.09341 0.0
N1023 N 0.37145 0.81379 0.1547 0.0
C1024 C 0.36868 0.83794 0.14168 0.0
C1025 C 0.36175 0.8592 0.15874 0.0
C1026 C 0.35989 0.84765 0.18416 0.0
C1027 C 0.36544 0.81984 0.18096 0.0
N1028 N 0.41811 0.79603 0.13502 0.0
C1029 C 0.46996 0.80595 0.13444 0.0
C1030 C 0.45716 0.79769 0.11071 0.0
C1031 C 0.43155 0.79316 0.11134 0.0
C1032 C 0.45559 0.81065 0.15809 0.0
C1033 C 0.42992 0.8059 0.15788 0.0
N1034 N 0.35285 0.76023 0.14314 0.0
C1035 C 0.31155 0.7608 0.16276 0.0
C1036 C 0.31493 0.73362 0.17214 0.0
C1037 C 0.33618 0.71938 0.16367 0.0
C1038 C 0.35433 0.73262 0.14892 0.0
C1039 C 0.33083 0.77384 0.14844 0.0
H1040 H 0.37052 0.72033 0.1448 0.0
H1041 H 0.32848 0.7953 0.14333 0.0
H1042 H 0.42306 0.78573 0.09284 0.0
H1043 H 0.41987 0.80901 0.17674 0.0
C1044 C 0.41852 0.72959 0.16239 0.0
C1045 C 0.3637 0.79958 0.20288 0.0
C1046 C 0.38622 0.75065 0.07061 0.0
C1047 C 0.36791 0.83861 0.11315 0.0
H1048 H 0.38367 0.7597 0.24286 0.0
H1049 H 0.41573 0.72336 0.22139 0.0
H1050 H 0.43734 0.69114 0.12167 0.0
H1051 H 0.41798 0.70198 0.07225 0.0
H1052 H 0.36691 0.7913 0.03317 0.0
H1053 H 0.35914 0.84006 0.05549 0.0
H1054 H 0.35726 0.88023 0.15313 0.0
H1055 H 0.3543 0.85826 0.20274 0.0
H1056 H 0.46701 0.79332 0.09189 0.0
H1057 H 0.4642 0.8175 0.17693 0.0
H1058 H 0.29483 0.77233 0.16785 0.0
H1059 H 0.33937 0.69814 0.16951 0.0
C1060 C 0.77232 0.17868 0.32514 0.0
C1061 C 0.79129 0.17448 0.30647 0.0
C1062 C 0.80996 0.16023 0.31998 0.0
C1063 C 0.80185 0.15689 0.34635 0.0
N1064 N 0.77918 0.16803 0.35033 0.0
Co1065 Co 0.76398 0.17464 0.38719 0.0
N1066 N 0.79382 0.1615 0.40857 0.0
C1067 C 0.81375 0.14891 0.39739 0.0
C1068 C 0.83118 0.14079 0.41661 0.0
C1069 C 0.82157 0.14859 0.44157 0.0
C1070 C 0.79877 0.16118 0.43629 0.0
N1071 N 0.74845 0.18325 0.42365 0.0
C1072 C 0.75797 0.18365 0.44971 0.0
C1073 C 0.73971 0.19022 0.46873 0.0
C1074 C 0.71802 0.19305 0.45448 0.0
C1075 C 0.72412 0.18833 0.42762 0.0
N1076 N 0.73305 0.18513 0.36675 0.0
C1077 C 0.71029 0.1854 0.37761 0.0
C1078 C 0.69166 0.18621 0.35839 0.0
C1079 C 0.70337 0.18664 0.33366 0.0
C1080 C 0.72855 0.18701 0.33935 0.0
N1081 N 0.75219 0.13619 0.38846 0.0
C1082 C 0.74317 0.0789 0.38845 0.0
C1083 C 0.74815 0.09321 0.41288 0.0
C1084 C 0.75253 0.12154 0.41246 0.0
C1085 C 0.74143 0.09445 0.36426 0.0
C1086 C 0.74598 0.12278 0.36468 0.0
N1087 N 0.77768 0.2126 0.38419 0.0
C1088 C 0.7817 0.2507 0.35244 0.0
C1089 C 0.80716 0.25253 0.35806 0.0
C1090 C 0.81652 0.23622 0.37958 0.0
C1091 C 0.80157 0.21713 0.39262 0.0
C1092 C 0.76729 0.23144 0.36629 0.0
H1093 H 0.81029 0.20549 0.40879 0.0
H1094 H 0.74801 0.23107 0.36107 0.0
H1095 H 0.75692 0.13122 0.43165 0.0
H1096 H 0.7452 0.13356 0.34541 0.0
C1097 C 0.81633 0.14784 0.36877 0.0
C1098 C 0.74752 0.19169 0.31857 0.0
C1099 C 0.78272 0.17322 0.45809 0.0
C1100 C 0.70733 0.18746 0.40585 0.0
H1101 H 0.79228 0.18161 0.2856 0.0
H1102 H 0.82798 0.15456 0.31192 0.0
H1103 H 0.84904 0.13102 0.4129 0.0
H1104 H 0.83046 0.14576 0.46138 0.0
H1105 H 0.74151 0.1911 0.49083 0.0
H1106 H 0.69981 0.19709 0.46285 0.0
H1107 H 0.67194 0.18706 0.36193 0.0
H1108 H 0.6944 0.18772 0.31374 0.0
H1109 H 0.74896 0.08254 0.43233 0.0
H1110 H 0.73748 0.08462 0.34482 0.0
H1111 H 0.77295 0.26322 0.33663 0.0
H1112 H 0.83556 0.23787 0.38619 0.0
C1113 C 0.35419 0.28489 0.872 0.0
C1114 C 0.33573 0.26841 0.88158 0.0
C1115 C 0.34694 0.24963 0.8991 0.0
C1116 C 0.37165 0.25547 0.89924 0.0
N1117 N 0.37663 0.27671 0.88295 0.0
Co1118 Co 0.4104 0.28949 0.87451 0.0
N1119 N 0.42779 0.2566 0.89078 0.0
C1120 C 0.41697 0.23872 0.90762 0.0
C1121 C 0.43302 0.21821 0.91644 0.0
C1122 C 0.45539 0.22378 0.90489 0.0
C1123 C 0.45198 0.24762 0.88967 0.0
N1124 N 0.44387 0.30246 0.86438 0.0
C1125 C 0.46665 0.28964 0.86497 0.0
C1126 C 0.48499 0.3081 0.85903 0.0
C1127 C 0.47356 0.333 0.8547 0.0
C1128 C 0.44896 0.32868 0.8584 0.0
N1129 N 0.39368 0.3235 0.86012 0.0
C1130 C 0.40458 0.34762 0.85643 0.0
C1131 C 0.38848 0.36834 0.84837 0.0
C1132 C 0.36591 0.35655 0.84678 0.0
C1133 C 0.36964 0.32913 0.85374 0.0
N1134 N 0.41295 0.30686 0.91144 0.0
C1135 C 0.41437 0.31302 0.96941 0.0
C1136 C 0.43615 0.31027 0.95397 0.0
C1137 C 0.43504 0.3066 0.9254 0.0
C1138 C 0.39215 0.31644 0.95444 0.0
C1139 C 0.39196 0.31409 0.9256 0.0
N1140 N 0.40637 0.27017 0.8387 0.0
C1141 C 0.38564 0.2706 0.79432 0.0
C1142 C 0.37843 0.24341 0.79803 0.0
C1143 C 0.38875 0.22896 0.82006 0.0
C1144 C 0.40306 0.24235 0.83952 0.0
C1145 C 0.39957 0.28375 0.81505 0.0
H1146 H 0.40897 0.22999 0.85652 0.0
H1147 H 0.40314 0.30528 0.81278 0.0
H1148 H 0.45211 0.30179 0.91515 0.0
H1149 H 0.37441 0.31616 0.91509 0.0
C1150 C 0.3911 0.23937 0.91067 0.0
C1151 C 0.34995 0.30914 0.85387 0.0
C1152 C 0.47227 0.26169 0.87545 0.0
C1153 C 0.4302 0.34874 0.85612 0.0
H1154 H 0.31627 0.26971 0.87641 0.0
H1155 H 0.3382 0.23298 0.90955 0.0
H1156 H 0.42878 0.20068 0.92894 0.0
H1157 H 0.47223 0.21153 0.90734 0.0
H1158 H 0.5048 0.30455 0.85939 0.0
H1159 H 0.48223 0.35216 0.85012 0.0
H1160 H 0.39279 0.3892 0.84311 0.0
H1161 H 0.34874 0.36685 0.8408 0.0
H1162 H 0.45411 0.30969 0.96385 0.0
H1163 H 0.37469 0.3194 0.96485 0.0
H1164 H 0.37924 0.28205 0.77654 0.0
H1165 H 0.38465 0.20757 0.82313 0.0
C1166 C 0.26298 0.82104 0.37019 0.0
C1167 C 0.27838 0.79973 0.37932 0.0
C1168 C 0.29717 0.81147 0.39403 0.0
C1169 C 0.2923 0.8393 0.39318 0.0
N1170 N 0.2716 0.84577 0.37898 0.0
Co1171 Co 0.25925 0.88386 0.3711 0.0
N1172 N 0.28976 0.90177 0.38508 0.0
C1173 C 0.30766 0.88877 0.39978 0.0
C1174 C 0.32594 0.90599 0.40818 0.0
C1175 C 0.31903 0.93153 0.39837 0.0
C1176 C 0.29688 0.92859 0.3844 0.0
N1177 N 0.24665 0.92187 0.36158 0.0
C1178 C 0.25799 0.94647 0.36094 0.0
C1179 C 0.24169 0.96747 0.35272 0.0
C1180 C 0.2193 0.95606 0.34889 0.0
C1181 C 0.22314 0.92883 0.3547 0.0
N1182 N 0.22756 0.867 0.35903 0.0
C1183 C 0.2061 0.88084 0.35398 0.0
C1184 C 0.18747 0.86468 0.34499 0.0
C1185 C 0.19761 0.83885 0.34415 0.0
C1186 C 0.22193 0.84054 0.35338 0.0
N1187 N 0.24607 0.88729 0.40947 0.0
C1188 C 0.24161 0.88745 0.46816 0.0
C1189 C 0.24604 0.91158 0.45326 0.0
C1190 C 0.24835 0.91104 0.42435 0.0
C1191 C 0.237 0.86392 0.45225 0.0
C1192 C 0.23893 0.86437 0.42329 0.0
N1193 N 0.27456 0.87828 0.33356 0.0
C1194 C 0.2748 0.85068 0.29164 0.0
C1195 C 0.30083 0.85039 0.28999 0.0
C1196 C 0.3129 0.86666 0.30938 0.0
C1197 C 0.29975 0.88019 0.33054 0.0
C1198 C 0.26218 0.86539 0.31267 0.0
H1199 H 0.3109 0.89122 0.34476 0.0
H1200 H 0.24235 0.86509 0.31223 0.0
H1201 H 0.2532 0.92975 0.41434 0.0
H1202 H 0.23594 0.84552 0.41231 0.0
C1203 C 0.3077 0.86007 0.40272 0.0
C1204 C 0.23935 0.81691 0.3551 0.0
C1205 C 0.28292 0.95182 0.37134 0.0
C1206 C 0.20534 0.90916 0.35249 0.0
H1207 H 0.27614 0.77802 0.37582 0.0
H1208 H 0.31286 0.80094 0.40359 0.0
H1209 H 0.34257 0.90057 0.41961 0.0
H1210 H 0.32908 0.95021 0.40115 0.0
H1211 H 0.24529 0.98906 0.35072 0.0
H1212 H 0.2022 0.96641 0.34268 0.0
H1213 H 0.16922 0.87117 0.33795 0.0
H1214 H 0.18815 0.82123 0.33637 0.0
H1215 H 0.2483 0.93091 0.46379 0.0
H1216 H 0.23303 0.8447 0.46209 0.0
H1217 H 0.2639 0.83881 0.27752 0.0
H1218 H 0.33274 0.86871 0.30869 0.0
C1219 C 0.67328 0.77353 0.82558 0.0
C1220 C 0.66883 0.75512 0.80453 0.0
C1221 C 0.65507 0.73456 0.81559 0.0
C1222 C 0.65198 0.7413 0.84284 0.0
N1223 N 0.66281 0.76484 0.84943 0.0
Co1224 Co 0.66714 0.77927 0.8873 0.0
N1225 N 0.65731 0.74467 0.90548 0.0
C1226 C 0.64545 0.72437 0.8926 0.0
C1227 C 0.63932 0.70364 0.91014 0.0
C1228 C 0.64748 0.71161 0.93569 0.0
C1229 C 0.65831 0.73679 0.93243 0.0
N1230 N 0.67286 0.79434 0.92492 0.0
C1231 C 0.67412 0.78193 0.94992 0.0
C1232 C 0.67759 0.80107 0.97068 0.0
C1233 C 0.6777 0.82624 0.95858 0.0
C1234 C 0.6745 0.82121 0.93114 0.0
N1235 N 0.67522 0.81471 0.86989 0.0
C1236 C 0.67426 0.83943 0.8822 0.0
C1237 C 0.67931 0.8606 0.86481 0.0
C1238 C 0.68392 0.84842 0.83996 0.0
C1239 C 0.68156 0.82042 0.84377 0.0
N1240 N 0.63135 0.7915 0.88859 0.0
C1241 C 0.57849 0.7985 0.88745 0.0
C1242 C 0.5915 0.79126 0.91163 0.0
C1243 C 0.61755 0.78797 0.91179 0.0
C1244 C 0.59308 0.80375 0.86427 0.0
C1245 C 0.61915 0.80021 0.86525 0.0
N1246 N 0.70244 0.76506 0.88425 0.0
C1247 C 0.74355 0.7707 0.86516 0.0
C1248 C 0.74739 0.7421 0.8613 0.0
C1249 C 0.72885 0.72561 0.87164 0.0
C1250 C 0.70695 0.73717 0.88255 0.0
C1251 C 0.72148 0.78158 0.87716 0.0
H1252 H 0.69335 0.72273 0.88803 0.0
H1253 H 0.71949 0.80356 0.87916 0.0
H1254 H 0.62629 0.78147 0.93067 0.0
H1255 H 0.62937 0.80377 0.84673 0.0
C1256 C 0.64359 0.724 0.8637 0.0
C1257 C 0.68643 0.79977 0.82256 0.0
C1258 C 0.66802 0.75326 0.95557 0.0
C1259 C 0.67383 0.84117 0.91069 0.0
H1260 H 0.67519 0.7561 0.78359 0.0
H1261 H 0.64931 0.71608 0.8053 0.0
H1262 H 0.63046 0.68469 0.90492 0.0
H1263 H 0.64555 0.70032 0.9546 0.0
H1264 H 0.67855 0.79747 0.99251 0.0
H1265 H 0.67954 0.84591 0.96864 0.0
H1266 H 0.68093 0.88209 0.86994 0.0
H1267 H 0.6891 0.85884 0.82138 0.0
H1268 H 0.58157 0.78708 0.93029 0.0
H1269 H 0.58446 0.81044 0.84523 0.0
H1270 H 0.75683 0.78504 0.85793 0.0
H1271 H 0.73074 0.70348 0.87076 0.0
C1272 C 0.18397 0.52886 0.28274 0.0
C1273 C 0.1724 0.54542 0.26234 0.0
C1274 C 0.18166 0.50029 0.28379 0.0
C1275 C 0.17381 0.48446 0.26112 0.0
H1276 H 0.19398 0.53807 0.29953 0.0
H1277 H 0.18684 0.49071 0.30301 0.0
S1278 S 0.14565 0.5161 0.19829 0.0
N1279 N 0.14976 0.54249 0.21895 0.0
N1280 N 0.15751 0.48903 0.21446 0.0
C1281 C 0.16484 0.50041 0.23849 0.0
C1282 C 0.16206 0.53031 0.24018 0.0
C1283 C 1.00176 0.67762 0.75765 0.0
C1284 C 0.98532 0.65566 0.75783 0.0
C1285 C 1.02762 0.67351 0.75434 0.0
C1286 C 0.03883 0.64717 0.75013 0.0
H1287 H 0.99463 0.69828 0.76136 0.0
H1288 H 0.03889 0.69138 0.75608 0.0
S1289 S 1.00341 0.58268 0.74541 0.0
N1290 N 0.98212 0.60649 0.75247 0.0
N1291 N 0.02968 0.59886 0.74323 0.0
C1292 C 1.02218 0.62513 0.7486 0.0
C1293 C 0.99589 0.62933 0.75302 0.0
C1294 C 0.92252 0.50093 0.24958 0.0
C1295 C 0.90111 0.48609 0.24365 0.0
C1296 C 0.92245 0.53 0.24839 0.0
C1297 C 0.90092 0.54556 0.24135 0.0
H1298 H 0.93887 0.49016 0.25741 0.0
H1299 H 0.93875 0.54045 0.2553 0.0
S1300 S 0.84055 0.51676 0.22217 0.0
N1301 N 0.85836 0.4894 0.22858 0.0
N1302 N 0.85813 0.54355 0.22678 0.0
C1303 C 0.87996 0.53086 0.23364 0.0
C1304 C 0.88009 0.50135 0.23462 0.0
C1305 C 0.04887 0.36157 0.74886 0.0
C1306 C 0.06352 0.384 0.74174 0.0
C1307 C 1.02274 0.36269 0.74659 0.0
C1308 C 1.00958 0.38637 0.73723 0.0
H1309 H 0.05767 0.34278 0.75629 0.0
H1310 H 1.01273 0.34491 0.75292 0.0
S1311 S 0.03867 0.45082 0.7152 0.0
N1312 N 0.06232 0.43082 0.7247 0.0
N1313 N 1.0138 0.43262 0.71972 0.0
C1314 C 1.02399 0.40882 0.72962 0.0
C1315 C 0.05063 0.40769 0.73196 0.0
C1316 C 0.14527 0.49232 0.78875 0.0
C1317 C 0.1688 0.47904 0.78975 0.0
C1318 C 0.14242 0.52139 0.78977 0.0
C1319 C 0.16297 0.53855 0.79178 0.0
H1320 H 0.12904 0.48025 0.78541 0.0
H1321 H 0.12413 0.53055 0.78691 0.0
S1322 S 0.22841 0.51418 0.79639 0.0
N1323 N 0.21284 0.48559 0.79436 0.0
N1324 N 0.20756 0.53961 0.79581 0.0
C1325 C 0.1864 0.52539 0.79416 0.0
C1326 C 0.18929 0.49592 0.7933 0.0
C1327 C 1.02338 0.66837 0.28856 0.0
C1328 C 1.01121 0.64604 0.30023 0.0
C1329 C 0.04943 0.66986 0.28867 0.0
C1330 C 0.06482 0.64926 0.30074 0.0
H1331 H 1.0127 0.68465 0.27857 0.0
H1332 H 0.05758 0.68743 0.27914 0.0
S1333 S 0.04257 0.58674 0.33504 0.0
N1334 N 1.01696 0.60317 0.32512 0.0
N1335 N 0.06554 0.60576 0.32498 0.0
C1336 C 0.0529 0.62703 0.31293 0.0
C1337 C 1.02634 0.62545 0.3127 0.0
C1338 C 0.88491 0.51999 0.823 0.0
C1339 C 0.90241 0.5358 0.80905 0.0
C1340 C 0.88419 0.49109 0.82006 0.0
C1341 C 0.90127 0.4764 0.80356 0.0
H1342 H 0.87112 0.53005 0.83579 0.0
H1343 H 0.8694 0.48031 0.82975 0.0
S1344 S 0.95098 0.50672 0.7626 0.0
N1345 N 0.93718 0.53338 0.77751 0.0
N1346 N 0.93656 0.47963 0.7737 0.0
C1347 C 0.91956 0.49158 0.79063 0.0
C1348 C 0.91996 0.52098 0.79293 0.0
C1349 C 1.02648 0.41037 0.29869 0.0
C1350 C 1.01225 0.39736 0.31884 0.0
C1351 C 0.05266 0.41012 0.29969 0.0
C1352 C 0.06632 0.39676 0.32084 0.0
H1353 H 1.01733 0.42046 0.28149 0.0
H1354 H 0.06231 0.41999 0.28321 0.0
S1355 S 0.03853 0.36174 0.38034 0.0
N1356 N 1.01439 0.37222 0.36184 0.0
N1357 N 0.06311 0.37158 0.36355 0.0
C1358 C 0.05238 0.38409 0.34143 0.0
C1359 C 1.02566 0.38442 0.34048 0.0
C1360 C 0.2193 0.15072 0.52352 0.0
C1361 C 0.23913 0.13823 0.53824 0.0
C1362 C 0.2178 0.14916 0.49455 0.0
C1363 C 0.23608 0.13509 0.47896 0.0
H1364 H 0.20464 0.1615 0.53449 0.0
H1365 H 0.20204 0.15887 0.48432 0.0
S1366 S 0.29335 0.10176 0.50731 0.0
N1367 N 0.27839 0.11312 0.53465 0.0
N1368 N 0.27573 0.11041 0.48074 0.0
C1369 C 0.25628 0.12311 0.49348 0.0
C1370 C 0.25776 0.12464 0.52287 0.0
C1371 C 0.40872 0.74809 0.9958 0.0
C1372 C 0.38748 0.74053 0.98081 0.0
C1373 C 0.40923 0.7485 0.025 0.0
C1374 C 0.38851 0.74142 0.04071 0.0
H1375 H 0.42441 0.75579 0.98487 0.0
H1376 H 0.4253 0.75647 0.03532 0.0
S1377 S 0.32878 0.71901 1.01182 0.0
N1378 N 0.34568 0.72456 0.98441 0.0
N1379 N 0.34658 0.7255 0.03863 0.0
C1380 C 0.36776 0.73239 0.02597 0.0
C1381 C 0.36727 0.73187 0.99633 0.0
C1382 C 0.80791 0.86486 0.48482 0.0
C1383 C 0.79007 0.88021 0.46965 0.0
C1384 C 0.81036 0.86778 0.51372 0.0
C1385 C 0.79487 0.88598 0.52903 0.0
H1386 H 0.81932 0.84952 0.47444 0.0
H1387 H 0.82421 0.85516 0.5242 0.0
S1388 S 0.7447 0.93054 0.49885 0.0
N1389 N 0.75696 0.91452 0.47216 0.0
N1390 N 0.76059 0.91932 0.52579 0.0
C1391 C 0.77727 0.9018 0.51379 0.0
C1392 C 0.7751 0.89906 0.48443 0.0
C1393 C 0.69796 0.27676 0.02774 0.0
C1394 C 0.67666 0.27574 0.04425 0.0
C1395 C 0.69653 0.27698 0.99862 0.0
C1396 C 0.67372 0.27638 0.98435 0.0
H1397 H 0.71603 0.27598 0.03744 0.0
H1398 H 0.71357 0.27614 0.98712 0.0
S1399 S 0.61234 0.27395 1.01756 0.0
N1400 N 0.63192 0.27467 0.04373 0.0
N1401 N 0.62925 0.27504 0.98951 0.0
C1402 C 0.65226 0.27637 1.00063 0.0
C1403 C 0.65372 0.27609 0.0303 0.0
C1404 C 0.2276 0.86888 0.51492 0.0
C1405 C 0.24283 0.88637 0.49965 0.0
C1406 C 0.23014 0.86564 0.54383 0.0
C1407 C 0.24783 0.87995 0.55924 0.0
H1408 H 0.21382 0.85702 0.50439 0.0
H1409 H 0.21886 0.85086 0.55404 0.0
S1410 S 0.29264 0.92808 0.53036 0.0
N1411 N 0.27675 0.91792 0.50332 0.0
N1412 N 0.28064 0.91252 0.55692 0.0
C1413 C 0.26257 0.89812 0.54453 0.0
C1414 C 0.26028 0.90118 0.51513 0.0
C1415 C 0.68694 0.73708 0.03003 0.0
C1416 C 0.66566 0.74473 0.04518 0.0
C1417 C 0.687 0.73727 1.00091 0.0
C1418 C 0.66572 0.74483 0.98548 0.0
H1419 H 0.70422 0.733 0.0408 0.0
H1420 H 0.7043 0.73329 0.99043 0.0
S1421 S 0.60492 0.76547 1.01481 0.0
N1422 N 0.62248 0.75911 0.04207 0.0
N1423 N 0.6225 0.75903 0.98785 0.0
C1424 C 0.64398 0.7509 1.00034 0.0
C1425 C 0.64396 0.75092 0.02995 0.0
C1426 C 0.78508 0.14575 0.53263 0.0
C1427 C 0.78799 0.16964 0.54876 0.0
C1428 C 0.78548 0.14647 0.50339 0.0
C1429 C 0.78876 0.17112 0.48879 0.0
H1430 H 0.78086 0.12667 0.54262 0.0
H1431 H 0.78163 0.12789 0.49211 0.0
S1432 S 0.79807 0.23916 0.52094 0.0
N1433 N 0.79518 0.21843 0.54741 0.0
N1434 N 0.79586 0.21976 0.49321 0.0
C1435 C 0.79278 0.19479 0.50473 0.0
C1436 C 0.79242 0.19405 0.53436 0.0
C1437 C 0.39464 0.31923 0.04533 0.0
C1438 C 0.41051 0.30024 0.05886 0.0
C1439 C 0.39678 0.32437 1.01688 0.0
C1440 C 0.41455 0.31025 1.00047 0.0
H1441 H 0.37971 0.32924 0.05655 0.0
H1442 H 0.38383 0.33895 1.00757 0.0
S1443 S 0.4605 0.25806 0.02667 0.0
N1444 N 0.4452 0.26818 0.0542 0.0
N1445 N 0.44828 0.27596 1.00103 0.0
C1446 C 0.43097 0.29171 1.01424 0.0
C1447 C 0.42919 0.28721 0.04325 0.0
C1448 C 0.5574 0.2246 0.12547 0.0
C1449 C 0.57008 0.23366 0.1491 0.0
C1450 C 0.53136 0.22252 0.12482 0.0
C1451 C 0.51655 0.2291 0.14785 0.0
H1452 H 0.5676 0.21977 0.10696 0.0
H1453 H 0.52274 0.21581 0.10593 0.0
S1454 S 0.54052 0.25259 0.21543 0.0
N1455 N 0.56557 0.24793 0.1967 0.0
N1456 N 0.51711 0.24477 0.19527 0.0
C1457 C 0.52909 0.23757 0.17182 0.0
C1458 C 0.55558 0.2397 0.17247 0.0
C1459 C 0.53628 0.81085 0.90882 0.0
C1460 C 0.55016 0.80002 0.88655 0.0
C1461 C 0.51001 0.81161 0.90881 0.0
C1462 C 0.49591 0.80165 0.88651 0.0
H1463 H 0.54579 0.81903 0.92653 0.0
H1464 H 0.50066 0.82029 0.92652 0.0
S1465 S 0.52268 0.76879 0.824 0.0
N1466 N 0.54713 0.77753 0.84212 0.0
N1467 N 0.49844 0.77905 0.84207 0.0
C1468 C 0.50954 0.79056 0.86421 0.0
C1469 C 0.53629 0.78974 0.86423 0.0
C1470 C 0.71927 1.0067 0.37193 0.0
C1471 C 0.73571 0.98878 0.38634 0.0
C1472 C 0.72166 0.03555 0.37277 0.0
C1473 C 0.74059 0.04802 0.38808 0.0
H1474 H 0.70424 0.9984 0.36004 0.0
H1475 H 0.70837 0.04823 0.36149 0.0
S1476 S 0.79018 1.01052 0.42705 0.0
N1477 N 0.7728 0.98602 0.41478 0.0
N1478 N 0.77712 0.03964 0.41645 0.0
C1479 C 0.75737 0.03031 0.40219 0.0
C1480 C 0.75499 1.001 0.4013 0.0
C1481 C 0.51185 0.24629 0.90134 0.0
C1482 C 0.49926 0.25135 0.87632 0.0
C1483 C 0.53774 0.24088 0.90255 0.0
C1484 C 0.55296 0.24128 0.87893 0.0
H1485 H 0.50175 0.24737 0.92043 0.0
H1486 H 0.54577 0.23677 0.92255 0.0
S1487 S 0.52879 0.25434 0.80798 0.0
N1488 N 0.5038 0.25521 0.82713 0.0
N1489 N 0.55212 0.24829 0.8293 0.0
C1490 C 0.54031 0.24624 0.85366 0.0
C1491 C 0.51378 0.25049 0.85242 0.0
C1492 C 0.28173 0.99934 0.39354 0.0
C1493 C 0.29072 0.98166 0.37255 0.0
C1494 C 0.2815 0.02838 0.39083 0.0
C1495 C 0.29034 0.04126 0.36704 0.0
H1496 H 0.273 0.99061 0.41128 0.0
H1497 H 0.27271 0.04078 0.40666 0.0
S1498 S 0.31704 1.00474 0.30676 0.0
N1499 N 0.30967 0.97971 0.32769 0.0
N1500 N 0.3096 0.03368 0.32282 0.0
C1501 C 0.30075 0.02385 0.34674 0.0
C1502 C 0.30083 0.99436 0.34942 0.0
C1503 C 0.53853 0.79855 0.15742 0.0
C1504 C 0.552 0.80922 0.13531 0.0
C1505 C 0.51234 0.79807 0.15719 0.0
C1506 C 0.49802 0.80826 0.13484 0.0
H1507 H 0.54833 0.78974 0.17489 0.0
H1508 H 0.50328 0.78889 0.17448 0.0
S1509 S 0.52371 0.84159 0.07315 0.0
N1510 N 0.54843 0.83234 0.09131 0.0
N1511 N 0.49976 0.83157 0.0909 0.0
C1512 C 0.51123 0.81978 0.11298 0.0
C1513 C 0.5379 0.82022 0.1132 0.0
C1514 C 0.74667 1.00238 0.67648 0.0
C1515 C 0.74616 0.9849 0.65337 0.0
C1516 C 0.74352 0.03117 0.67417 0.0
C1517 C 0.73893 0.0443 0.64865 0.0
H1518 H 0.75117 0.99382 0.69646 0.0
H1519 H 0.74596 0.04318 0.69263 0.0
S1520 S 0.73178 1.00712 0.58212 0.0
N1521 N 0.73916 0.98262 0.60425 0.0
N1522 N 0.73048 0.03589 0.60008 0.0
C1523 C 0.73639 0.02661 0.62561 0.0
C1524 C 0.74053 0.99729 0.62793 0.0
C1525 C 0.27827 0.02968 0.64035 0.0
C1526 C 0.29261 0.04616 0.65775 0.0
C1527 C 0.28278 1.00108 0.63791 0.0
C1528 C 0.30212 0.98726 0.65247 0.0
H1529 H 0.26278 0.03889 0.62919 0.0
H1530 H 0.27029 0.98961 0.62512 0.0
S1531 S 0.34695 0.02169 0.69851 0.0
N1532 N 0.32789 0.04686 0.68857 0.0
N1533 N 0.33723 0.99368 0.68319 0.0
C1534 C 0.31736 1.00388 0.66899 0.0
C1535 C 0.31249 0.03305 0.6717 0.0
C1536 C 0.22073 0.27419 0.30261 0.0
C1537 C 0.19895 0.28582 0.31409 0.0
C1538 C 0.23162 0.24934 0.31273 0.0
C1539 C 0.22152 0.23537 0.33516 0.0
H1540 H 0.22966 0.28464 0.28598 0.0
H1541 H 0.248 0.2409 0.30281 0.0
S1542 S 0.16544 0.25783 0.3734 0.0
N1543 N 0.16807 0.28145 0.34945 0.0
N1544 N 0.18879 0.23576 0.3689 0.0
C1545 C 0.20001 0.2471 0.34702 0.0
C1546 C 0.18866 0.27192 0.33637 0.0
C1547 C 0.2846 0.68813 0.84526 0.0
C1548 C 0.28975 0.71513 0.83705 0.0
C1549 C 0.26767 0.6718 0.8309 0.0
C1550 C 0.25487 0.68132 0.80726 0.0
H1551 H 0.29369 0.6794 0.86322 0.0
H1552 H 0.26454 0.65137 0.83853 0.0
S1553 S 0.2611 0.75045 0.77664 0.0
N1554 N 0.28024 0.75055 0.80324 0.0
N1555 N 0.24846 0.72002 0.77649 0.0
C1556 C 0.25978 0.70825 0.79866 0.0
C1557 C 0.277 0.72507 0.81349 0.0
C1558 C 0.8325 0.72539 0.30557 0.0
C1559 C 0.8569 0.73229 0.29924 0.0
C1560 C 0.816 0.74383 0.31872 0.0
C1561 C 0.82315 0.77017 0.32686 0.0
H1562 H 0.82647 0.70481 0.30186 0.0
H1563 H 0.79778 0.7368 0.32365 0.0
S1564 S 0.88508 0.79887 0.31542 0.0
N1565 N 0.88747 0.76755 0.30251 0.0
N1566 N 0.85646 0.80262 0.32665 0.0
C1567 C 0.84741 0.77771 0.32022 0.0
C1568 C 0.86423 0.75877 0.30662 0.0
C1569 C 0.78624 0.31978 0.80098 0.0
C1570 C 0.79987 0.33964 0.81529 0.0
C1571 C 0.76927 0.30289 0.81462 0.0
C1572 C 0.76516 0.30501 0.84322 0.0
H1573 H 0.78919 0.31672 0.77921 0.0
H1574 H 0.75914 0.28821 0.80258 0.0
S1575 S 0.79613 0.35381 0.89021 0.0
N1576 N 0.80713 0.36094 0.85967 0.0
N1577 N 0.7771 0.32844 0.88523 0.0
C1578 C 0.77877 0.32482 0.85762 0.0
C1579 C 0.79552 0.34225 0.84373 0.0
C1580 C 0.20614 0.77096 0.72195 0.0
C1581 C 0.22618 0.76337 0.70461 0.0
C1582 C 0.19131 0.75127 0.73488 0.0
C1583 C 0.19594 0.72282 0.73165 0.0
H1584 H 0.20139 0.79245 0.72508 0.0
H1585 H 0.17529 0.7586 0.74611 0.0
S1586 S 0.24566 0.69164 0.68793 0.0
N1587 N 0.24915 0.72492 0.68468 0.0
N1588 N 0.22239 0.68851 0.70916 0.0
C1589 C 0.21637 0.71511 0.71491 0.0
C1590 C 0.23117 0.73506 0.70152 0.0
C1591 C 0.76983 0.69424 0.18053 0.0
C1592 C 0.76184 0.72067 0.18926 0.0
C1593 C 0.78785 0.67858 0.19519 0.0
C1594 C 0.79862 0.68821 0.21974 0.0
H1595 H 0.76212 0.68552 0.16198 0.0
H1596 H 0.79341 0.65861 0.18718 0.0
S1597 S 0.78443 0.756 0.25187 0.0
N1598 N 0.76641 0.75568 0.22435 0.0
N1599 N 0.8 0.72635 0.25183 0.0
C1600 C 0.79077 0.71455 0.22882 0.0
C1601 C 0.77261 0.73071 0.21363 0.0
C1602 C 0.84462 0.25646 0.70577 0.0
C1603 C 0.82055 0.26553 0.69755 0.0
C1604 C 0.86123 0.27395 0.71949 0.0
C1605 C 0.85446 0.30128 0.72612 0.0
H1606 H 0.85101 0.23578 0.70094 0.0
H1607 H 0.87991 0.26641 0.72341 0.0
S1608 S 0.79406 0.3357 0.70911 0.0
N1609 N 0.79139 0.30432 0.69702 0.0
N1610 N 0.82179 0.3363 0.72327 0.0
C1611 C 0.83019 0.31018 0.71886 0.0
C1612 C 0.8135 0.29265 0.70459 0.0
C1613 C 0.27481 0.30922 0.2262 0.0
C1614 C 0.26312 0.33349 0.21622 0.0
C1615 C 0.29302 0.29477 0.2108 0.0
C1616 C 0.30043 0.30411 0.18487 0.0
H1617 H 0.2699 0.30139 0.24616 0.0
H1618 H 0.30203 0.27673 0.2197 0.0
S1619 S 0.27609 0.36656 0.14954 0.0
N1620 N 0.26045 0.36595 0.1785 0.0
N1621 N 0.29484 0.33923 0.1501 0.0
C1622 C 0.28879 0.32814 0.1746 0.0
C1623 C 0.27009 0.34265 0.19006 0.0
C1624 C 0.36748 0.20487 0.25529 0.0
C1625 C 0.36045 0.21464 0.22906 0.0
C1626 C 0.35064 0.19111 0.27225 0.0
C1627 C 0.32611 0.18625 0.26365 0.0
H1628 H 0.38639 0.2067 0.26226 0.0
H1629 H 0.35702 0.18396 0.29217 0.0
S1630 S 0.29909 0.20615 0.196 0.0
N1631 N 0.32737 0.21777 0.19534 0.0
N1632 N 0.29639 0.19158 0.22628 0.0
C1633 C 0.319 0.19602 0.23749 0.0
C1634 C 0.33594 0.21021 0.22054 0.0
C1635 C 0.32786 0.79762 0.7818 0.0
C1636 C 0.35087 0.80771 0.79035 0.0
C1637 C 0.31422 0.80959 0.75961 0.0
C1638 C 0.32262 0.83282 0.74559 0.0
H1639 H 0.32021 0.78056 0.79265 0.0
H1640 H 0.29713 0.80043 0.75317 0.0
S1641 S 0.38133 0.86771 0.76032 0.0
N1642 N 0.38143 0.84214 0.78247 0.0
N1643 N 0.35532 0.86564 0.74259 0.0
C1644 C 0.34535 0.84335 0.7544 0.0
C1645 C 0.35963 0.83049 0.77604 0.0
C1646 C 0.72531 0.81589 0.27088 0.0
C1647 C 0.71407 0.83878 0.28412 0.0
C1648 C 0.71415 0.80329 0.24779 0.0
C1649 C 0.691 0.81257 0.2374 0.0
H1650 H 0.74283 0.8076 0.27849 0.0
H1651 H 0.72394 0.78653 0.23761 0.0
S1652 S 0.654 0.87186 0.26423 0.0
N1653 N 0.67881 0.87066 0.28419 0.0
N1654 N 0.65734 0.84608 0.24238 0.0
C1655 C 0.67945 0.83507 0.25081 0.0
C1656 C 0.69115 0.84847 0.27354 0.0
C1657 C 0.72929 0.18493 0.76725 0.0
C1658 C 0.73231 0.20124 0.74393 0.0
C1659 C 0.71707 0.19514 0.79094 0.0
C1660 C 0.70507 0.2216 0.79223 0.0
H1661 H 0.7357 0.16369 0.76701 0.0
H1662 H 0.71717 0.18148 0.80826 0.0
S1663 S 0.71688 0.27586 0.74055 0.0
N1664 N 0.72843 0.24758 0.72638 0.0
N1665 N 0.70618 0.26661 0.77067 0.0
C1666 C 0.7113 0.23924 0.7704 0.0
C1667 C 0.72421 0.22897 0.74632 0.0
C1668 C 0.82473 0.80663 0.7235 0.0
C1669 C 0.81549 0.79983 0.6972 0.0
C1670 C 0.83929 0.78805 0.73931 0.0
C1671 C 0.84572 0.76155 0.72965 0.0
H1672 H 0.82196 0.82718 0.73142 0.0
H1673 H 0.84658 0.79518 0.75873 0.0
S1674 S 0.82514 0.73249 0.66276 0.0
N1675 N 0.81358 0.7642 0.66252 0.0
N1676 N 0.83963 0.72874 0.69253 0.0
C1677 C 0.83566 0.75397 0.70384 0.0
C1678 C 0.82096 0.77312 0.68761 0.0
C1679 C 0.7885 0.33376 0.18042 0.0
C1680 C 0.77504 0.31263 0.19247 0.0
C1681 C 0.80371 0.3509 0.19607 0.0
C1682 C 0.80671 0.34786 0.22476 0.0
H1683 H 0.78783 0.33684 0.15843 0.0
H1684 H 0.81371 0.36646 0.18534 0.0
S1685 S 0.77467 0.29688 0.26723 0.0
N1686 N 0.76459 0.29104 0.23573 0.0
N1687 N 0.79409 0.32224 0.26469 0.0
C1688 C 0.79294 0.3273 0.23732 0.0
C1689 C 0.7771 0.30993 0.22136 0.0
C1690 C 0.22506 0.28724 0.70608 0.0
C1691 C 0.2066 0.28469 0.72634 0.0
C1692 C 0.23545 0.26435 0.69191 0.0
C1693 C 0.23049 0.23711 0.69934 0.0
H1694 H 0.23056 0.30742 0.69978 0.0
H1695 H 0.24634 0.2685 0.67405 0.0
S1696 S 0.1854 0.21813 0.753 0.0
N1697 N 0.18268 0.25186 0.75148 0.0
N1698 N 0.20766 0.20939 0.73149 0.0
C1699 C 0.21381 0.23426 0.72151 0.0
C1700 C 0.20081 0.25763 0.73346 0.0
C1701 C 0.2933 0.69466 0.23558 0.0
C1702 C 0.26912 0.68697 0.22872 0.0
C1703 C 0.30747 0.71043 0.21756 0.0
C1704 C 0.29801 0.71993 0.19207 0.0
H1705 H 0.30163 0.68783 0.25474 0.0
H1706 H 0.32625 0.71497 0.22349 0.0
S1707 S 0.23502 0.70761 0.16522 0.0
N1708 N 0.23592 0.6915 0.19502 0.0
N1709 N 0.26235 0.72138 0.16165 0.0
C1710 C 0.27356 0.7133 0.18542 0.0
C1711 C 0.25925 0.6968 0.20354 0.0
C1712 C 0.86477 0.28161 0.32274 0.0
C1713 C 0.85768 0.30902 0.31674 0.0
C1714 C 0.84823 0.26337 0.3352 0.0
C1715 C 0.82382 0.27161 0.34255 0.0
H1716 H 0.88363 0.27456 0.31934 0.0
H1717 H 0.8549 0.24272 0.33975 0.0
S1718 S 0.79639 0.34156 0.33273 0.0
N1719 N 0.82435 0.34328 0.3198 0.0
N1720 N 0.79396 0.30964 0.34321 0.0
C1721 C 0.81643 0.29876 0.33617 0.0
C1722 C 0.83312 0.31717 0.32339 0.0
C1723 C 0.28296 0.33438 0.83766 0.0
C1724 C 0.28374 0.34122 0.80943 0.0
C1725 C 0.30366 0.32232 0.85169 0.0
C1726 C 0.32618 0.3164 0.83818 0.0
H1727 H 0.26624 0.33863 0.84914 0.0
H1728 H 0.30231 0.31874 0.87353 0.0
S1729 S 0.33876 0.3316 0.76499 0.0
N1730 N 0.30969 0.34177 0.76904 0.0
N1731 N 0.34792 0.3194 0.79505 0.0
C1732 C 0.32704 0.323 0.81001 0.0
C1733 C 0.30612 0.33522 0.79578 0.0
C1734 C 0.20929 0.77788 0.35654 0.0
C1735 C 0.23071 0.78908 0.34527 0.0
C1736 C 0.19741 0.75554 0.34422 0.0
C1737 C 0.20738 0.74138 0.32133 0.0
H1738 H 0.20082 0.7875 0.37434 0.0
H1739 H 0.18048 0.74868 0.35333 0.0
S1740 S 0.2638 0.76162 0.28424 0.0
N1741 N 0.26112 0.78455 0.30917 0.0
N1742 N 0.24056 0.74073 0.28794 0.0
C1743 C 0.22922 0.75193 0.31022 0.0
C1744 C 0.24064 0.77575 0.32197 0.0
C1745 C 0.78852 0.68987 0.82007 0.0
C1746 C 0.81236 0.70072 0.82088 0.0
C1747 C 0.76787 0.70377 0.83209 0.0
C1748 C 0.76983 0.72898 0.8466 0.0
H1749 H 0.78582 0.66985 0.81111 0.0
H1750 H 0.75017 0.69417 0.83026 0.0
S1751 S 0.8285 0.7661 0.85541 0.0
N1752 N 0.83645 0.73891 0.83696 0.0
N1753 N 0.79863 0.76369 0.86095 0.0
C1754 C 0.79364 0.74013 0.84731 0.0
C1755 C 0.81448 0.72636 0.83434 0.0
C1756 C 0.74055 0.83139 0.78511 0.0
C1757 C 0.73084 0.83845 0.75903 0.0
C1758 C 0.72676 0.81676 0.80442 0.0
C1759 C 0.70256 0.80805 0.7988 0.0
H1760 H 0.75854 0.83839 0.79134 0.0
H1761 H 0.73463 0.81367 0.82467 0.0
S1762 S 0.66882 0.81909 0.73304 0.0
N1763 N 0.6958 0.8331 0.72795 0.0
N1764 N 0.66974 0.8072 0.76474 0.0
C1765 C 0.69291 0.814 0.77253 0.0
C1766 C 0.70702 0.82871 0.75265 0.0
C1767 C 0.74568 0.19795 0.26573 0.0
C1768 C 0.73977 0.20749 0.29234 0.0
C1769 C 0.73499 0.20998 0.2418 0.0
C1770 C 0.71563 0.23022 0.24285 0.0
H1771 H 0.75752 0.17999 0.26301 0.0
H1772 H 0.74092 0.2019 0.22212 0.0
S1773 S 0.69281 0.26271 0.30736 0.0
N1774 N 0.71564 0.24198 0.31758 0.0
N1775 N 0.6906 0.25831 0.27385 0.0
C1776 C 0.70941 0.23986 0.26933 0.0
C1777 C 0.7225 0.22999 0.29348 0.0
C1778 C 0.3199 0.20513 0.78016 0.0
C1779 C 0.32336 0.19732 0.7526 0.0
C1780 C 0.33737 0.22096 0.7942 0.0
C1781 C 0.35882 0.23013 0.78119 0.0
H1782 H 0.30404 0.19813 0.79127 0.0
H1783 H 0.33435 0.22559 0.81571 0.0
S1784 S 0.3754 0.21767 0.70851 0.0
N1785 N 0.34915 0.20168 0.71228 0.0
N1786 N 0.38169 0.23155 0.73867 0.0
C1787 C 0.36192 0.22359 0.75333 0.0
C1788 C 0.34432 0.20716 0.73909 0.0
C1789 C 0.33962 0.82305 0.27416 0.0
C1790 C 0.31555 0.83407 0.26837 0.0
C1791 C 0.35462 0.81008 0.25379 0.0
C1792 C 0.3462 0.80675 0.22655 0.0
H1793 H 0.34737 0.82504 0.29459 0.0
H1794 H 0.37341 0.80408 0.2592 0.0
S1795 S 0.28489 0.83133 0.19986 0.0
N1796 N 0.28455 0.84051 0.23245 0.0
N1797 N 0.31176 0.8153 0.19527 0.0
C1798 C 0.32182 0.81656 0.22084 0.0
C1799 C 0.30681 0.83028 0.24129 0.0
loop_
_geom_bond_atom_site_label_1
_geom_bond_atom_site_label_2
_geom_bond_distance
_geom_bond_site_symmetry_2
_ccdc_geom_bond_type
C0 C1 1.443 . S
C0 N4 1.376 . S
C0 C38 1.389 . S
C1 C0 1.443 . S
C1 C2 1.340 . S
C1 H41 0.951 . S
C2 C1 1.340 . S
C2 C3 1.439 . S
C2 H42 0.950 . S
C3 C2 1.439 . S
C3 N4 1.374 . S
C3 C37 1.395 . S
N4 C0 1.376 . S
N4 C3 1.374 . S
N4 Co5 2.008 . S
Co5 N4 2.008 . S
Co5 N6 1.995 . S
Co5 N11 2.008 . S
Co5 N16 1.995 . S
Co5 N21 2.282 . S
Co5 N27 2.282 . S
N6 Co5 1.995 . S
N6 C7 1.376 . S
N6 C10 1.383 . S
C7 N6 1.376 . S
C7 C8 1.446 . S
C7 C37 1.391 . S
C8 C7 1.446 . S
C8 C9 1.339 . S
C8 H43 0.949 . S
C9 C8 1.339 . S
C9 C10 1.439 . S
C9 H44 0.950 . S
C10 N6 1.383 . S
C10 C9 1.439 . S
C10 C39 1.392 . S
N11 Co5 2.008 . S
N11 C12 1.376 . S
N11 C15 1.374 . S
C12 N11 1.376 . S
C12 C13 1.443 . S
C12 C39 1.389 . S
C13 C12 1.443 . S
C13 C14 1.340 . S
C13 H45 0.951 . S
C14 C13 1.340 . S
C14 C15 1.439 . S
C14 H46 0.950 . S
C15 N11 1.374 . S
C15 C14 1.439 . S
C15 C40 1.395 . S
N16 Co5 1.995 . S
N16 C17 1.376 . S
N16 C20 1.383 . S
C17 N16 1.376 . S
C17 C18 1.446 . S
C17 C40 1.391 . S
C18 C17 1.446 . S
C18 C19 1.339 . S
C18 H47 0.949 . S
C19 C18 1.339 . S
C19 C20 1.439 . S
C19 H48 0.950 . S
C20 N16 1.383 . S
C20 C19 1.439 . S
C20 C38 1.392 . S
N21 Co5 2.282 . S
N21 C24 1.332 . S
N21 C26 1.332 . S
C22 C23 1.386 . S
C22 C25 1.388 . S
C23 C22 1.386 . S
C23 C24 1.382 . S
C23 H49 0.950 . S
C24 N21 1.332 . S
C24 C23 1.382 . S
C24 H35 0.952 . S
C25 C22 1.388 . S
C25 C26 1.382 . S
C25 H50 0.950 . S
C26 N21 1.332 . S
C26 C25 1.382 . S
C26 H36 0.948 . S
N27 Co5 2.282 . S
N27 C31 1.332 . S
N27 C32 1.332 . S
C28 C29 1.388 . S
C28 C32 1.382 . S
C28 H51 0.950 . S
C29 C28 1.388 . S
C29 C30 1.386 . S
C30 C29 1.386 . S
C30 C31 1.382 . S
C30 H52 0.950 . S
C31 N27 1.332 . S
C31 C30 1.382 . S
C31 H33 0.952 . S
C32 N27 1.332 . S
C32 C28 1.382 . S
C32 H34 0.948 . S
H33 C31 0.952 . S
H34 C32 0.948 . S
H35 C24 0.952 . S
H36 C26 0.948 . S
C37 C3 1.395 . S
C37 C7 1.391 . S
C38 C0 1.389 . S
C38 C20 1.392 . S
C39 C10 1.392 . S
C39 C12 1.389 . S
C40 C15 1.395 . S
C40 C17 1.391 . S
H41 C1 0.951 . S
H42 C2 0.950 . S
H43 C8 0.949 . S
H44 C9 0.950 . S
H45 C13 0.951 . S
H46 C14 0.950 . S
H47 C18 0.949 . S
H48 C19 0.950 . S
H49 C23 0.950 . S
H50 C25 0.950 . S
H51 C28 0.950 . S
H52 C30 0.950 . S
C53 C54 1.443 . S
C53 N57 1.376 . S
C53 C91 1.389 . S
C54 C53 1.443 . S
C54 C55 1.340 . S
C54 H94 0.951 . S
C55 C54 1.340 . S
C55 C56 1.439 . S
C55 H95 0.950 . S
C56 C55 1.439 . S
C56 N57 1.374 . S
C56 C90 1.395 . S
N57 C53 1.376 . S
N57 C56 1.374 . S
N57 Co58 2.008 . S
Co58 N57 2.008 . S
Co58 N59 1.995 . S
Co58 N64 2.008 . S
Co58 N69 1.995 . S
Co58 N74 2.282 . S
Co58 N80 2.282 . S
N59 Co58 1.995 . S
N59 C60 1.376 . S
N59 C63 1.383 . S
C60 N59 1.376 . S
C60 C61 1.446 . S
C60 C90 1.391 . S
C61 C60 1.446 . S
C61 C62 1.339 . S
C61 H96 0.949 . S
C62 C61 1.339 . S
C62 C63 1.439 . S
C62 H97 0.950 . S
C63 N59 1.383 . S
C63 C62 1.439 . S
C63 C92 1.392 . S
N64 Co58 2.008 . S
N64 C65 1.376 . S
N64 C68 1.374 . S
C65 N64 1.376 . S
C65 C66 1.443 . S
C65 C92 1.389 . S
C66 C65 1.443 . S
C66 C67 1.340 . S
C66 H98 0.951 . S
C67 C66 1.340 . S
C67 C68 1.439 . S
C67 H99 0.950 . S
C68 N64 1.374 . S
C68 C67 1.439 . S
C68 C93 1.395 . S
N69 Co58 1.995 . S
N69 C70 1.376 . S
N69 C73 1.383 . S
C70 N69 1.376 . S
C70 C71 1.446 . S
C70 C93 1.391 . S
C71 C70 1.446 . S
C71 C72 1.339 . S
C71 H100 0.949 . S
C72 C71 1.339 . S
C72 C73 1.439 . S
C72 H101 0.950 . S
C73 N69 1.383 . S
C73 C72 1.439 . S
C73 C91 1.392 . S
N74 Co58 2.282 . S
N74 C77 1.332 . S
N74 C79 1.332 . S
C75 C76 1.386 . S
C75 C78 1.388 . S
C76 C75 1.386 . S
C76 C77 1.382 . S
C76 H102 0.950 . S
C77 N74 1.332 . S
C77 C76 1.382 . S
C77 H88 0.952 . S
C78 C75 1.388 . S
C78 C79 1.382 . S
C78 H103 0.950 . S
C79 N74 1.332 . S
C79 C78 1.382 . S
C79 H89 0.948 . S
N80 Co58 2.282 . S
N80 C84 1.332 . S
N80 C85 1.332 . S
C81 C82 1.388 . S
C81 C85 1.382 . S
C81 H104 0.950 . S
C82 C81 1.388 . S
C82 C83 1.386 . S
C83 C82 1.386 . S
C83 C84 1.382 . S
C83 H105 0.950 . S
C84 N80 1.332 . S
C84 C83 1.382 . S
C84 H86 0.952 . S
C85 N80 1.332 . S
C85 C81 1.382 . S
C85 H87 0.948 . S
H86 C84 0.952 . S
H87 C85 0.948 . S
H88 C77 0.952 . S
H89 C79 0.948 . S
C90 C56 1.395 . S
C90 C60 1.391 . S
C91 C53 1.389 . S
C91 C73 1.392 . S
C92 C63 1.392 . S
C92 C65 1.389 . S
C93 C68 1.395 . S
C93 C70 1.391 . S
H94 C54 0.951 . S
H95 C55 0.950 . S
H96 C61 0.949 . S
H97 C62 0.950 . S
H98 C66 0.951 . S
H99 C67 0.950 . S
H100 C71 0.949 . S
H101 C72 0.950 . S
H102 C76 0.950 . S
H103 C78 0.950 . S
H104 C81 0.950 . S
H105 C83 0.950 . S
C106 C107 1.443 . S
C106 N110 1.376 . S
C106 C144 1.389 . S
C107 C106 1.443 . S
C107 C108 1.340 . S
C107 H147 0.951 . S
C108 C107 1.340 . S
C108 C109 1.439 . S
C108 H148 0.950 . S
C109 C108 1.439 . S
C109 N110 1.374 . S
C109 C143 1.395 . S
N110 C106 1.376 . S
N110 C109 1.374 . S
N110 Co111 2.008 . S
Co111 N110 2.008 . S
Co111 N112 1.995 . S
Co111 N117 2.008 . S
Co111 N122 1.995 . S
Co111 N127 2.282 . S
Co111 N133 2.282 . S
N112 Co111 1.995 . S
N112 C113 1.376 . S
N112 C116 1.383 . S
C113 N112 1.376 . S
C113 C114 1.446 . S
C113 C143 1.391 . S
C114 C113 1.446 . S
C114 C115 1.339 . S
C114 H149 0.949 . S
C115 C114 1.339 . S
C115 C116 1.439 . S
C115 H150 0.950 . S
C116 N112 1.383 . S
C116 C115 1.439 . S
C116 C145 1.392 . S
N117 Co111 2.008 . S
N117 C118 1.376 . S
N117 C121 1.374 . S
C118 N117 1.376 . S
C118 C119 1.443 . S
C118 C145 1.389 . S
C119 C118 1.443 . S
C119 C120 1.340 . S
C119 H151 0.951 . S
C120 C119 1.340 . S
C120 C121 1.439 . S
C120 H152 0.950 . S
C121 N117 1.374 . S
C121 C120 1.439 . S
C121 C146 1.395 . S
N122 Co111 1.995 . S
N122 C123 1.376 . S
N122 C126 1.383 . S
C123 N122 1.376 . S
C123 C124 1.446 . S
C123 C146 1.391 . S
C124 C123 1.446 . S
C124 C125 1.339 . S
C124 H153 0.949 . S
C125 C124 1.339 . S
C125 C126 1.439 . S
C125 H154 0.950 . S
C126 N122 1.383 . S
C126 C125 1.439 . S
C126 C144 1.392 . S
N127 Co111 2.282 . S
N127 C130 1.332 . S
N127 C132 1.332 . S
C128 C129 1.386 . S
C128 C131 1.388 . S
C129 C128 1.386 . S
C129 C130 1.382 . S
C129 H155 0.950 . S
C130 N127 1.332 . S
C130 C129 1.382 . S
C130 H141 0.952 . S
C131 C128 1.388 . S
C131 C132 1.382 . S
C131 H156 0.950 . S
C132 N127 1.332 . S
C132 C131 1.382 . S
C132 H142 0.948 . S
N133 Co111 2.282 . S
N133 C137 1.332 . S
N133 C138 1.332 . S
C134 C135 1.388 . S
C134 C138 1.382 . S
C134 H157 0.950 . S
C135 C134 1.388 . S
C135 C136 1.386 . S
C136 C135 1.386 . S
C136 C137 1.382 . S
C136 H158 0.950 . S
C137 N133 1.332 . S
C137 C136 1.382 . S
C137 H139 0.952 . S
C138 N133 1.332 . S
C138 C134 1.382 . S
C138 H140 0.948 . S
H139 C137 0.952 . S
H140 C138 0.948 . S
H141 C130 0.952 . S
H142 C132 0.948 . S
C143 C109 1.395 . S
C143 C113 1.391 . S
C144 C106 1.389 . S
C144 C126 1.392 . S
C145 C116 1.392 . S
C145 C118 1.389 . S
C146 C121 1.395 . S
C146 C123 1.391 . S
H147 C107 0.951 . S
H148 C108 0.950 . S
H149 C114 0.949 . S
H150 C115 0.950 . S
H151 C119 0.951 . S
H152 C120 0.950 . S
H153 C124 0.949 . S
H154 C125 0.950 . S
H155 C129 0.950 . S
H156 C131 0.950 . S
H157 C134 0.950 . S
H158 C136 0.950 . S
C159 C160 1.443 . S
C159 N163 1.376 . S
C159 C197 1.389 . S
C160 C159 1.443 . S
C160 C161 1.340 . S
C160 H200 0.951 . S
C161 C160 1.340 . S
C161 C162 1.439 . S
C161 H201 0.950 . S
C162 C161 1.439 . S
C162 N163 1.374 . S
C162 C196 1.395 . S
N163 C159 1.376 . S
N163 C162 1.374 . S
N163 Co164 2.008 . S
Co164 N163 2.008 . S
Co164 N165 1.995 . S
Co164 N170 2.008 . S
Co164 N175 1.995 . S
Co164 N180 2.282 . S
Co164 N186 2.282 . S
N165 Co164 1.995 . S
N165 C166 1.376 . S
N165 C169 1.383 . S
C166 N165 1.376 . S
C166 C167 1.446 . S
C166 C196 1.391 . S
C167 C166 1.446 . S
C167 C168 1.339 . S
C167 H202 0.949 . S
C168 C167 1.339 . S
C168 C169 1.439 . S
C168 H203 0.950 . S
C169 N165 1.383 . S
C169 C168 1.439 . S
C169 C198 1.392 . S
N170 Co164 2.008 . S
N170 C171 1.376 . S
N170 C174 1.374 . S
C171 N170 1.376 . S
C171 C172 1.443 . S
C171 C198 1.389 . S
C172 C171 1.443 . S
C172 C173 1.340 . S
C172 H204 0.951 . S
C173 C172 1.340 . S
C173 C174 1.439 . S
C173 H205 0.950 . S
C174 N170 1.374 . S
C174 C173 1.439 . S
C174 C199 1.395 . S
N175 Co164 1.995 . S
N175 C176 1.376 . S
N175 C179 1.383 . S
C176 N175 1.376 . S
C176 C177 1.446 . S
C176 C199 1.391 . S
C177 C176 1.446 . S
C177 C178 1.339 . S
C177 H206 0.949 . S
C178 C177 1.339 . S
C178 C179 1.439 . S
C178 H207 0.950 . S
C179 N175 1.383 . S
C179 C178 1.439 . S
C179 C197 1.392 . S
N180 Co164 2.282 . S
N180 C183 1.332 . S
N180 C185 1.332 . S
C181 C182 1.386 . S
C181 C184 1.388 . S
C182 C181 1.386 . S
C182 C183 1.382 . S
C182 H208 0.950 . S
C183 N180 1.332 . S
C183 C182 1.382 . S
C183 H194 0.952 . S
C184 C181 1.388 . S
C184 C185 1.382 . S
C184 H209 0.950 . S
C185 N180 1.332 . S
C185 C184 1.382 . S
C185 H195 0.948 . S
N186 Co164 2.282 . S
N186 C190 1.332 . S
N186 C191 1.332 . S
C187 C188 1.388 . S
C187 C191 1.382 . S
C187 H210 0.950 . S
C188 C187 1.388 . S
C188 C189 1.386 . S
C189 C188 1.386 . S
C189 C190 1.382 . S
C189 H211 0.950 . S
C190 N186 1.332 . S
C190 C189 1.382 . S
C190 H192 0.952 . S
C191 N186 1.332 . S
C191 C187 1.382 . S
C191 H193 0.948 . S
H192 C190 0.952 . S
H193 C191 0.948 . S
H194 C183 0.952 . S
H195 C185 0.948 . S
C196 C162 1.395 . S
C196 C166 1.391 . S
C197 C159 1.389 . S
C197 C179 1.392 . S
C198 C169 1.392 . S
C198 C171 1.389 . S
C199 C174 1.395 . S
C199 C176 1.391 . S
H200 C160 0.951 . S
H201 C161 0.950 . S
H202 C167 0.949 . S
H203 C168 0.950 . S
H204 C172 0.951 . S
H205 C173 0.950 . S
H206 C177 0.949 . S
H207 C178 0.950 . S
H208 C182 0.950 . S
H209 C184 0.950 . S
H210 C187 0.950 . S
H211 C189 0.950 . S
C212 C213 1.443 . S
C212 N216 1.376 . S
C212 C250 1.389 . S
C213 C212 1.443 . S
C213 C214 1.340 . S
C213 H253 0.951 . S
C214 C213 1.340 . S
C214 C215 1.439 . S
C214 H254 0.950 . S
C215 C214 1.439 . S
C215 N216 1.374 . S
C215 C249 1.395 . S
N216 C212 1.376 . S
N216 C215 1.374 . S
N216 Co217 2.008 . S
Co217 N216 2.008 . S
Co217 N218 1.995 . S
Co217 N223 2.008 . S
Co217 N228 1.995 . S
Co217 N233 2.282 . S
Co217 N239 2.282 . S
N218 Co217 1.995 . S
N218 C219 1.376 . S
N218 C222 1.383 . S
C219 N218 1.376 . S
C219 C220 1.446 . S
C219 C249 1.391 . S
C220 C219 1.446 . S
C220 C221 1.339 . S
C220 H255 0.949 . S
C221 C220 1.339 . S
C221 C222 1.439 . S
C221 H256 0.950 . S
C222 N218 1.383 . S
C222 C221 1.439 . S
C222 C251 1.392 . S
N223 Co217 2.008 . S
N223 C224 1.376 . S
N223 C227 1.374 . S
C224 N223 1.376 . S
C224 C225 1.443 . S
C224 C251 1.389 . S
C225 C224 1.443 . S
C225 C226 1.340 . S
C225 H257 0.951 . S
C226 C225 1.340 . S
C226 C227 1.439 . S
C226 H258 0.950 . S
C227 N223 1.374 . S
C227 C226 1.439 . S
C227 C252 1.395 . S
N228 Co217 1.995 . S
N228 C229 1.376 . S
N228 C232 1.383 . S
C229 N228 1.376 . S
C229 C230 1.446 . S
C229 C252 1.391 . S
C230 C229 1.446 . S
C230 C231 1.339 . S
C230 H259 0.949 . S
C231 C230 1.339 . S
C231 C232 1.439 . S
C231 H260 0.950 . S
C232 N228 1.383 . S
C232 C231 1.439 . S
C232 C250 1.392 . S
N233 Co217 2.282 . S
N233 C236 1.332 . S
N233 C238 1.332 . S
C234 C235 1.386 . S
C234 C237 1.388 . S
C235 C234 1.386 . S
C235 C236 1.382 . S
C235 H261 0.950 . S
C236 N233 1.332 . S
C236 C235 1.382 . S
C236 H247 0.952 . S
C237 C234 1.388 . S
C237 C238 1.382 . S
C237 H262 0.950 . S
C238 N233 1.332 . S
C238 C237 1.382 . S
C238 H248 0.948 . S
N239 Co217 2.282 . S
N239 C243 1.332 . S
N239 C244 1.332 . S
C240 C241 1.388 . S
C240 C244 1.382 . S
C240 H263 0.950 . S
C241 C240 1.388 . S
C241 C242 1.386 . S
C242 C241 1.386 . S
C242 C243 1.382 . S
C242 H264 0.950 . S
C243 N239 1.332 . S
C243 C242 1.382 . S
C243 H245 0.952 . S
C244 N239 1.332 . S
C244 C240 1.382 . S
C244 H246 0.948 . S
H245 C243 0.952 . S
H246 C244 0.948 . S
H247 C236 0.952 . S
H248 C238 0.948 . S
C249 C215 1.395 . S
C249 C219 1.391 . S
C250 C212 1.389 . S
C250 C232 1.392 . S
C251 C222 1.392 . S
C251 C224 1.389 . S
C252 C227 1.395 . S
C252 C229 1.391 . S
H253 C213 0.951 . S
H254 C214 0.950 . S
H255 C220 0.949 . S
H256 C221 0.950 . S
H257 C225 0.951 . S
H258 C226 0.950 . S
H259 C230 0.949 . S
H260 C231 0.950 . S
H261 C235 0.950 . S
H262 C237 0.950 . S
H263 C240 0.950 . S
H264 C242 0.950 . S
C265 C266 1.443 . S
C265 N269 1.376 . S
C265 C303 1.389 . S
C266 C265 1.443 . S
C266 C267 1.340 . S
C266 H306 0.951 . S
C267 C266 1.340 . S
C267 C268 1.439 . S
C267 H307 0.950 . S
C268 C267 1.439 . S
C268 N269 1.374 . S
C268 C302 1.395 . S
N269 C265 1.376 . S
N269 C268 1.374 . S
N269 Co270 2.008 . S
Co270 N269 2.008 . S
Co270 N271 1.995 . S
Co270 N276 2.008 . S
Co270 N281 1.995 . S
Co270 N286 2.282 . S
Co270 N292 2.282 . S
N271 Co270 1.995 . S
N271 C272 1.376 . S
N271 C275 1.383 . S
C272 N271 1.376 . S
C272 C273 1.446 . S
C272 C302 1.391 . S
C273 C272 1.446 . S
C273 C274 1.339 . S
C273 H308 0.949 . S
C274 C273 1.339 . S
C274 C275 1.439 . S
C274 H309 0.950 . S
C275 N271 1.383 . S
C275 C274 1.439 . S
C275 C304 1.392 . S
N276 Co270 2.008 . S
N276 C277 1.376 . S
N276 C280 1.374 . S
C277 N276 1.376 . S
C277 C278 1.443 . S
C277 C304 1.389 . S
C278 C277 1.443 . S
C278 C279 1.340 . S
C278 H310 0.951 . S
C279 C278 1.340 . S
C279 C280 1.439 . S
C279 H311 0.950 . S
C280 N276 1.374 . S
C280 C279 1.439 . S
C280 C305 1.395 . S
N281 Co270 1.995 . S
N281 C282 1.376 . S
N281 C285 1.383 . S
C282 N281 1.376 . S
C282 C283 1.446 . S
C282 C305 1.391 . S
C283 C282 1.446 . S
C283 C284 1.339 . S
C283 H312 0.949 . S
C284 C283 1.339 . S
C284 C285 1.439 . S
C284 H313 0.950 . S
C285 N281 1.383 . S
C285 C284 1.439 . S
C285 C303 1.392 . S
N286 Co270 2.282 . S
N286 C289 1.332 . S
N286 C291 1.332 . S
C287 C288 1.386 . S
C287 C290 1.388 . S
C288 C287 1.386 . S
C288 C289 1.382 . S
C288 H314 0.950 . S
C289 N286 1.332 . S
C289 C288 1.382 . S
C289 H300 0.952 . S
C290 C287 1.388 . S
C290 C291 1.382 . S
C290 H315 0.950 . S
C291 N286 1.332 . S
C291 C290 1.382 . S
C291 H301 0.948 . S
N292 Co270 2.282 . S
N292 C296 1.332 . S
N292 C297 1.332 . S
C293 C294 1.388 . S
C293 C297 1.382 . S
C293 H316 0.950 . S
C294 C293 1.388 . S
C294 C295 1.386 . S
C295 C294 1.386 . S
C295 C296 1.382 . S
C295 H317 0.950 . S
C296 N292 1.332 . S
C296 C295 1.382 . S
C296 H298 0.952 . S
C297 N292 1.332 . S
C297 C293 1.382 . S
C297 H299 0.948 . S
H298 C296 0.952 . S
H299 C297 0.948 . S
H300 C289 0.952 . S
H301 C291 0.948 . S
C302 C268 1.395 . S
C302 C272 1.391 . S
C303 C265 1.389 . S
C303 C285 1.392 . S
C304 C275 1.392 . S
C304 C277 1.389 . S
C305 C280 1.395 . S
C305 C282 1.391 . S
H306 C266 0.951 . S
H307 C267 0.950 . S
H308 C273 0.949 . S
H309 C274 0.950 . S
H310 C278 0.951 . S
H311 C279 0.950 . S
H312 C283 0.949 . S
H313 C284 0.950 . S
H314 C288 0.950 . S
H315 C290 0.950 . S
H316 C293 0.950 . S
H317 C295 0.950 . S
C318 C319 1.443 . S
C318 N322 1.376 . S
C318 C356 1.389 . S
C319 C318 1.443 . S
C319 C320 1.340 . S
C319 H359 0.951 . S
C320 C319 1.340 . S
C320 C321 1.439 . S
C320 H360 0.950 . S
C321 C320 1.439 . S
C321 N322 1.374 . S
C321 C355 1.395 . S
N322 C318 1.376 . S
N322 C321 1.374 . S
N322 Co323 2.008 . S
Co323 N322 2.008 . S
Co323 N324 1.995 . S
Co323 N329 2.008 . S
Co323 N334 1.995 . S
Co323 N339 2.282 . S
Co323 N345 2.282 . S
N324 Co323 1.995 . S
N324 C325 1.376 . S
N324 C328 1.383 . S
C325 N324 1.376 . S
C325 C326 1.446 . S
C325 C355 1.391 . S
C326 C325 1.446 . S
C326 C327 1.339 . S
C326 H361 0.949 . S
C327 C326 1.339 . S
C327 C328 1.439 . S
C327 H362 0.950 . S
C328 N324 1.383 . S
C328 C327 1.439 . S
C328 C357 1.392 . S
N329 Co323 2.008 . S
N329 C330 1.376 . S
N329 C333 1.374 . S
C330 N329 1.376 . S
C330 C331 1.443 . S
C330 C357 1.389 . S
C331 C330 1.443 . S
C331 C332 1.340 . S
C331 H363 0.951 . S
C332 C331 1.340 . S
C332 C333 1.439 . S
C332 H364 0.950 . S
C333 N329 1.374 . S
C333 C332 1.439 . S
C333 C358 1.395 . S
N334 Co323 1.995 . S
N334 C335 1.376 . S
N334 C338 1.383 . S
C335 N334 1.376 . S
C335 C336 1.446 . S
C335 C358 1.391 . S
C336 C335 1.446 . S
C336 C337 1.339 . S
C336 H365 0.949 . S
C337 C336 1.339 . S
C337 C338 1.439 . S
C337 H366 0.950 . S
C338 N334 1.383 . S
C338 C337 1.439 . S
C338 C356 1.392 . S
N339 Co323 2.282 . S
N339 C342 1.332 . S
N339 C344 1.332 . S
C340 C341 1.386 . S
C340 C343 1.388 . S
C341 C340 1.386 . S
C341 C342 1.382 . S
C341 H367 0.950 . S
C342 N339 1.332 . S
C342 C341 1.382 . S
C342 H353 0.952 . S
C343 C340 1.388 . S
C343 C344 1.382 . S
C343 H368 0.950 . S
C344 N339 1.332 . S
C344 C343 1.382 . S
C344 H354 0.948 . S
N345 Co323 2.282 . S
N345 C349 1.332 . S
N345 C350 1.332 . S
C346 C347 1.388 . S
C346 C350 1.382 . S
C346 H369 0.950 . S
C347 C346 1.388 . S
C347 C348 1.386 . S
C348 C347 1.386 . S
C348 C349 1.382 . S
C348 H370 0.950 . S
C349 N345 1.332 . S
C349 C348 1.382 . S
C349 H351 0.952 . S
C350 N345 1.332 . S
C350 C346 1.382 . S
C350 H352 0.948 . S
H351 C349 0.952 . S
H352 C350 0.948 . S
H353 C342 0.952 . S
H354 C344 0.948 . S
C355 C321 1.395 . S
C355 C325 1.391 . S
C356 C318 1.389 . S
C356 C338 1.392 . S
C357 C328 1.392 . S
C357 C330 1.389 . S
C358 C333 1.395 . S
C358 C335 1.391 . S
H359 C319 0.951 . S
H360 C320 0.950 . S
H361 C326 0.949 . S
H362 C327 0.950 . S
H363 C331 0.951 . S
H364 C332 0.950 . S
H365 C336 0.949 . S
H366 C337 0.950 . S
H367 C341 0.950 . S
H368 C343 0.950 . S
H369 C346 0.950 . S
H370 C348 0.950 . S
C371 C372 1.443 . S
C371 N375 1.376 . S
C371 C409 1.389 . S
C372 C371 1.443 . S
C372 C373 1.340 . S
C372 H412 0.951 . S
C373 C372 1.340 . S
C373 C374 1.439 . S
C373 H413 0.950 . S
C374 C373 1.439 . S
C374 N375 1.374 . S
C374 C408 1.395 . S
N375 C371 1.376 . S
N375 C374 1.374 . S
N375 Co376 2.008 . S
Co376 N375 2.008 . S
Co376 N377 1.995 . S
Co376 N382 2.008 . S
Co376 N387 1.995 . S
Co376 N392 2.282 . S
Co376 N398 2.282 . S
N377 Co376 1.995 . S
N377 C378 1.376 . S
N377 C381 1.383 . S
C378 N377 1.376 . S
C378 C379 1.446 . S
C378 C408 1.391 . S
C379 C378 1.446 . S
C379 C380 1.339 . S
C379 H414 0.949 . S
C380 C379 1.339 . S
C380 C381 1.439 . S
C380 H415 0.950 . S
C381 N377 1.383 . S
C381 C380 1.439 . S
C381 C410 1.392 . S
N382 Co376 2.008 . S
N382 C383 1.376 . S
N382 C386 1.374 . S
C383 N382 1.376 . S
C383 C384 1.443 . S
C383 C410 1.389 . S
C384 C383 1.443 . S
C384 C385 1.340 . S
C384 H416 0.951 . S
C385 C384 1.340 . S
C385 C386 1.439 . S
C385 H417 0.950 . S
C386 N382 1.374 . S
C386 C385 1.439 . S
C386 C411 1.395 . S
N387 Co376 1.995 . S
N387 C388 1.376 . S
N387 C391 1.383 . S
C388 N387 1.376 . S
C388 C389 1.446 . S
C388 C411 1.391 . S
C389 C388 1.446 . S
C389 C390 1.339 . S
C389 H418 0.949 . S
C390 C389 1.339 . S
C390 C391 1.439 . S
C390 H419 0.950 . S
C391 N387 1.383 . S
C391 C390 1.439 . S
C391 C409 1.392 . S
N392 Co376 2.282 . S
N392 C395 1.332 . S
N392 C397 1.332 . S
C393 C394 1.386 . S
C393 C396 1.388 . S
C394 C393 1.386 . S
C394 C395 1.382 . S
C394 H420 0.950 . S
C395 N392 1.332 . S
C395 C394 1.382 . S
C395 H406 0.952 . S
C396 C393 1.388 . S
C396 C397 1.382 . S
C396 H421 0.950 . S
C397 N392 1.332 . S
C397 C396 1.382 . S
C397 H407 0.948 . S
N398 Co376 2.282 . S
N398 C402 1.332 . S
N398 C403 1.332 . S
C399 C400 1.388 . S
C399 C403 1.382 . S
C399 H422 0.950 . S
C400 C399 1.388 . S
C400 C401 1.386 . S
C401 C400 1.386 . S
C401 C402 1.382 . S
C401 H423 0.950 . S
C402 N398 1.332 . S
C402 C401 1.382 . S
C402 H404 0.952 . S
C403 N398 1.332 . S
C403 C399 1.382 . S
C403 H405 0.948 . S
H404 C402 0.952 . S
H405 C403 0.948 . S
H406 C395 0.952 . S
H407 C397 0.948 . S
C408 C374 1.395 . S
C408 C378 1.391 . S
C409 C371 1.389 . S
C409 C391 1.392 . S
C410 C381 1.392 . S
C410 C383 1.389 . S
C411 C386 1.395 . S
C411 C388 1.391 . S
H412 C372 0.951 . S
H413 C373 0.950 . S
H414 C379 0.949 . S
H415 C380 0.950 . S
H416 C384 0.951 . S
H417 C385 0.950 . S
H418 C389 0.949 . S
H419 C390 0.950 . S
H420 C394 0.950 . S
H421 C396 0.950 . S
H422 C399 0.950 . S
H423 C401 0.950 . S
C424 C425 1.443 . S
C424 N428 1.376 . S
C424 C462 1.389 . S
C425 C424 1.443 . S
C425 C426 1.340 . S
C425 H465 0.951 . S
C426 C425 1.340 . S
C426 C427 1.439 . S
C426 H466 0.950 . S
C427 C426 1.439 . S
C427 N428 1.374 . S
C427 C461 1.395 . S
N428 C424 1.376 . S
N428 C427 1.374 . S
N428 Co429 2.008 . S
Co429 N428 2.008 . S
Co429 N430 1.995 . S
Co429 N435 2.008 . S
Co429 N440 1.995 . S
Co429 N445 2.282 . S
Co429 N451 2.282 . S
N430 Co429 1.995 . S
N430 C431 1.376 . S
N430 C434 1.383 . S
C431 N430 1.376 . S
C431 C432 1.446 . S
C431 C461 1.391 . S
C432 C431 1.446 . S
C432 C433 1.339 . S
C432 H467 0.949 . S
C433 C432 1.339 . S
C433 C434 1.439 . S
C433 H468 0.950 . S
C434 N430 1.383 . S
C434 C433 1.439 . S
C434 C463 1.392 . S
N435 Co429 2.008 . S
N435 C436 1.376 . S
N435 C439 1.374 . S
C436 N435 1.376 . S
C436 C437 1.443 . S
C436 C463 1.389 . S
C437 C436 1.443 . S
C437 C438 1.340 . S
C437 H469 0.951 . S
C438 C437 1.340 . S
C438 C439 1.439 . S
C438 H470 0.950 . S
C439 N435 1.374 . S
C439 C438 1.439 . S
C439 C464 1.395 . S
N440 Co429 1.995 . S
N440 C441 1.376 . S
N440 C444 1.383 . S
C441 N440 1.376 . S
C441 C442 1.446 . S
C441 C464 1.391 . S
C442 C441 1.446 . S
C442 C443 1.339 . S
C442 H471 0.949 . S
C443 C442 1.339 . S
C443 C444 1.439 . S
C443 H472 0.950 . S
C444 N440 1.383 . S
C444 C443 1.439 . S
C444 C462 1.392 . S
N445 Co429 2.282 . S
N445 C448 1.332 . S
N445 C450 1.332 . S
C446 C447 1.386 . S
C446 C449 1.388 . S
C447 C446 1.386 . S
C447 C448 1.382 . S
C447 H473 0.950 . S
C448 N445 1.332 . S
C448 C447 1.382 . S
C448 H459 0.952 . S
C449 C446 1.388 . S
C449 C450 1.382 . S
C449 H474 0.950 . S
C450 N445 1.332 . S
C450 C449 1.382 . S
C450 H460 0.948 . S
N451 Co429 2.282 . S
N451 C455 1.332 . S
N451 C456 1.332 . S
C452 C453 1.388 . S
C452 C456 1.382 . S
C452 H475 0.950 . S
C453 C452 1.388 . S
C453 C454 1.386 . S
C454 C453 1.386 . S
C454 C455 1.382 . S
C454 H476 0.950 . S
C455 N451 1.332 . S
C455 C454 1.382 . S
C455 H457 0.952 . S
C456 N451 1.332 . S
C456 C452 1.382 . S
C456 H458 0.948 . S
H457 C455 0.952 . S
H458 C456 0.948 . S
H459 C448 0.952 . S
H460 C450 0.948 . S
C461 C427 1.395 . S
C461 C431 1.391 . S
C462 C424 1.389 . S
C462 C444 1.392 . S
C463 C434 1.392 . S
C463 C436 1.389 . S
C464 C439 1.395 . S
C464 C441 1.391 . S
H465 C425 0.951 . S
H466 C426 0.950 . S
H467 C432 0.949 . S
H468 C433 0.950 . S
H469 C437 0.951 . S
H470 C438 0.950 . S
H471 C442 0.949 . S
H472 C443 0.950 . S
H473 C447 0.950 . S
H474 C449 0.950 . S
H475 C452 0.950 . S
H476 C454 0.950 . S
C477 C478 1.443 . S
C477 N481 1.376 . S
C477 C515 1.389 . S
C478 C477 1.443 . S
C478 C479 1.340 . S
C478 H518 0.951 . S
C479 C478 1.340 . S
C479 C480 1.439 . S
C479 H519 0.950 . S
C480 C479 1.439 . S
C480 N481 1.374 . S
C480 C514 1.395 . S
N481 C477 1.376 . S
N481 C480 1.374 . S
N481 Co482 2.008 . S
Co482 N481 2.008 . S
Co482 N483 1.995 . S
Co482 N488 2.008 . S
Co482 N493 1.995 . S
Co482 N498 2.282 . S
Co482 N504 2.282 . S
N483 Co482 1.995 . S
N483 C484 1.376 . S
N483 C487 1.383 . S
C484 N483 1.376 . S
C484 C485 1.446 . S
C484 C514 1.391 . S
C485 C484 1.446 . S
C485 C486 1.339 . S
C485 H520 0.949 . S
C486 C485 1.339 . S
C486 C487 1.439 . S
C486 H521 0.950 . S
C487 N483 1.383 . S
C487 C486 1.439 . S
C487 C516 1.392 . S
N488 Co482 2.008 . S
N488 C489 1.376 . S
N488 C492 1.374 . S
C489 N488 1.376 . S
C489 C490 1.443 . S
C489 C516 1.389 . S
C490 C489 1.443 . S
C490 C491 1.340 . S
C490 H522 0.951 . S
C491 C490 1.340 . S
C491 C492 1.439 . S
C491 H523 0.950 . S
C492 N488 1.374 . S
C492 C491 1.439 . S
C492 C517 1.395 . S
N493 Co482 1.995 . S
N493 C494 1.376 . S
N493 C497 1.383 . S
C494 N493 1.376 . S
C494 C495 1.446 . S
C494 C517 1.391 . S
C495 C494 1.446 . S
C495 C496 1.339 . S
C495 H524 0.949 . S
C496 C495 1.339 . S
C496 C497 1.439 . S
C496 H525 0.950 . S
C497 N493 1.383 . S
C497 C496 1.439 . S
C497 C515 1.392 . S
N498 Co482 2.282 . S
N498 C501 1.332 . S
N498 C503 1.332 . S
C499 C500 1.386 . S
C499 C502 1.388 . S
C500 C499 1.386 . S
C500 C501 1.382 . S
C500 H526 0.950 . S
C501 N498 1.332 . S
C501 C500 1.382 . S
C501 H512 0.952 . S
C502 C499 1.388 . S
C502 C503 1.382 . S
C502 H527 0.950 . S
C503 N498 1.332 . S
C503 C502 1.382 . S
C503 H513 0.948 . S
N504 Co482 2.282 . S
N504 C508 1.332 . S
N504 C509 1.332 . S
C505 C506 1.388 . S
C505 C509 1.382 . S
C505 H528 0.950 . S
C506 C505 1.388 . S
C506 C507 1.386 . S
C507 C506 1.386 . S
C507 C508 1.382 . S
C507 H529 0.950 . S
C508 N504 1.332 . S
C508 C507 1.382 . S
C508 H510 0.952 . S
C509 N504 1.332 . S
C509 C505 1.382 . S
C509 H511 0.948 . S
H510 C508 0.952 . S
H511 C509 0.948 . S
H512 C501 0.952 . S
H513 C503 0.948 . S
C514 C480 1.395 . S
C514 C484 1.391 . S
C515 C477 1.389 . S
C515 C497 1.392 . S
C516 C487 1.392 . S
C516 C489 1.389 . S
C517 C492 1.395 . S
C517 C494 1.391 . S
H518 C478 0.951 . S
H519 C479 0.950 . S
H520 C485 0.949 . S
H521 C486 0.950 . S
H522 C490 0.951 . S
H523 C491 0.950 . S
H524 C495 0.949 . S
H525 C496 0.950 . S
H526 C500 0.950 . S
H527 C502 0.950 . S
H528 C505 0.950 . S
H529 C507 0.950 . S
C530 C531 1.443 . S
C530 N534 1.376 . S
C530 C568 1.389 . S
C531 C530 1.443 . S
C531 C532 1.340 . S
C531 H571 0.951 . S
C532 C531 1.340 . S
C532 C533 1.439 . S
C532 H572 0.950 . S
C533 C532 1.439 . S
C533 N534 1.374 . S
C533 C567 1.395 . S
N534 C530 1.376 . S
N534 C533 1.374 . S
N534 Co535 2.008 . S
Co535 N534 2.008 . S
Co535 N536 1.995 . S
Co535 N541 2.008 . S
Co535 N546 1.995 . S
Co535 N551 2.282 . S
Co535 N557 2.282 . S
N536 Co535 1.995 . S
N536 C537 1.376 . S
N536 C540 1.383 . S
C537 N536 1.376 . S
C537 C538 1.446 . S
C537 C567 1.391 . S
C538 C537 1.446 . S
C538 C539 1.339 . S
C538 H573 0.949 . S
C539 C538 1.339 . S
C539 C540 1.439 . S
C539 H574 0.950 . S
C540 N536 1.383 . S
C540 C539 1.439 . S
C540 C569 1.392 . S
N541 Co535 2.008 . S
N541 C542 1.376 . S
N541 C545 1.374 . S
C542 N541 1.376 . S
C542 C543 1.443 . S
C542 C569 1.389 . S
C543 C542 1.443 . S
C543 C544 1.340 . S
C543 H575 0.951 . S
C544 C543 1.340 . S
C544 C545 1.439 . S
C544 H576 0.950 . S
C545 N541 1.374 . S
C545 C544 1.439 . S
C545 C570 1.395 . S
N546 Co535 1.995 . S
N546 C547 1.376 . S
N546 C550 1.383 . S
C547 N546 1.376 . S
C547 C548 1.446 . S
C547 C570 1.391 . S
C548 C547 1.446 . S
C548 C549 1.339 . S
C548 H577 0.949 . S
C549 C548 1.339 . S
C549 C550 1.439 . S
C549 H578 0.950 . S
C550 N546 1.383 . S
C550 C549 1.439 . S
C550 C568 1.392 . S
N551 Co535 2.282 . S
N551 C554 1.332 . S
N551 C556 1.332 . S
C552 C553 1.386 . S
C552 C555 1.388 . S
C553 C552 1.386 . S
C553 C554 1.382 . S
C553 H579 0.950 . S
C554 N551 1.332 . S
C554 C553 1.382 . S
C554 H565 0.952 . S
C555 C552 1.388 . S
C555 C556 1.382 . S
C555 H580 0.950 . S
C556 N551 1.332 . S
C556 C555 1.382 . S
C556 H566 0.948 . S
N557 Co535 2.282 . S
N557 C561 1.332 . S
N557 C562 1.332 . S
C558 C559 1.388 . S
C558 C562 1.382 . S
C558 H581 0.950 . S
C559 C558 1.388 . S
C559 C560 1.386 . S
C560 C559 1.386 . S
C560 C561 1.382 . S
C560 H582 0.950 . S
C561 N557 1.332 . S
C561 C560 1.382 . S
C561 H563 0.952 . S
C562 N557 1.332 . S
C562 C558 1.382 . S
C562 H564 0.948 . S
H563 C561 0.952 . S
H564 C562 0.948 . S
H565 C554 0.952 . S
H566 C556 0.948 . S
C567 C533 1.395 . S
C567 C537 1.391 . S
C568 C530 1.389 . S
C568 C550 1.392 . S
C569 C540 1.392 . S
C569 C542 1.389 . S
C570 C545 1.395 . S
C570 C547 1.391 . S
H571 C531 0.951 . S
H572 C532 0.950 . S
H573 C538 0.949 . S
H574 C539 0.950 . S
H575 C543 0.951 . S
H576 C544 0.950 . S
H577 C548 0.949 . S
H578 C549 0.950 . S
H579 C553 0.950 . S
H580 C555 0.950 . S
H581 C558 0.950 . S
H582 C560 0.950 . S
C583 C584 1.443 . S
C583 N587 1.376 . S
C583 C621 1.389 . S
C584 C583 1.443 . S
C584 C585 1.340 . S
C584 H624 0.951 . S
C585 C584 1.340 . S
C585 C586 1.439 . S
C585 H625 0.950 . S
C586 C585 1.439 . S
C586 N587 1.374 . S
C586 C620 1.395 . S
N587 C583 1.376 . S
N587 C586 1.374 . S
N587 Co588 2.008 . S
Co588 N587 2.008 . S
Co588 N589 1.995 . S
Co588 N594 2.008 . S
Co588 N599 1.995 . S
Co588 N604 2.282 . S
Co588 N610 2.282 . S
N589 Co588 1.995 . S
N589 C590 1.376 . S
N589 C593 1.383 . S
C590 N589 1.376 . S
C590 C591 1.446 . S
C590 C620 1.391 . S
C591 C590 1.446 . S
C591 C592 1.339 . S
C591 H626 0.949 . S
C592 C591 1.339 . S
C592 C593 1.439 . S
C592 H627 0.950 . S
C593 N589 1.383 . S
C593 C592 1.439 . S
C593 C622 1.392 . S
N594 Co588 2.008 . S
N594 C595 1.376 . S
N594 C598 1.374 . S
C595 N594 1.376 . S
C595 C596 1.443 . S
C595 C622 1.389 . S
C596 C595 1.443 . S
C596 C597 1.340 . S
C596 H628 0.951 . S
C597 C596 1.340 . S
C597 C598 1.439 . S
C597 H629 0.950 . S
C598 N594 1.374 . S
C598 C597 1.439 . S
C598 C623 1.395 . S
N599 Co588 1.995 . S
N599 C600 1.376 . S
N599 C603 1.383 . S
C600 N599 1.376 . S
C600 C601 1.446 . S
C600 C623 1.391 . S
C601 C600 1.446 . S
C601 C602 1.339 . S
C601 H630 0.949 . S
C602 C601 1.339 . S
C602 C603 1.439 . S
C602 H631 0.950 . S
C603 N599 1.383 . S
C603 C602 1.439 . S
C603 C621 1.392 . S
N604 Co588 2.282 . S
N604 C607 1.332 . S
N604 C609 1.332 . S
C605 C606 1.386 . S
C605 C608 1.388 . S
C606 C605 1.386 . S
C606 C607 1.382 . S
C606 H632 0.950 . S
C607 N604 1.332 . S
C607 C606 1.382 . S
C607 H618 0.952 . S
C608 C605 1.388 . S
C608 C609 1.382 . S
C608 H633 0.950 . S
C609 N604 1.332 . S
C609 C608 1.382 . S
C609 H619 0.948 . S
N610 Co588 2.282 . S
N610 C614 1.332 . S
N610 C615 1.332 . S
C611 C612 1.388 . S
C611 C615 1.382 . S
C611 H634 0.950 . S
C612 C611 1.388 . S
C612 C613 1.386 . S
C613 C612 1.386 . S
C613 C614 1.382 . S
C613 H635 0.950 . S
C614 N610 1.332 . S
C614 C613 1.382 . S
C614 H616 0.952 . S
C615 N610 1.332 . S
C615 C611 1.382 . S
C615 H617 0.948 . S
H616 C614 0.952 . S
H617 C615 0.948 . S
H618 C607 0.952 . S
H619 C609 0.948 . S
C620 C586 1.395 . S
C620 C590 1.391 . S
C621 C583 1.389 . S
C621 C603 1.392 . S
C622 C593 1.392 . S
C622 C595 1.389 . S
C623 C598 1.395 . S
C623 C600 1.391 . S
H624 C584 0.951 . S
H625 C585 0.950 . S
H626 C591 0.949 . S
H627 C592 0.950 . S
H628 C596 0.951 . S
H629 C597 0.950 . S
H630 C601 0.949 . S
H631 C602 0.950 . S
H632 C606 0.950 . S
H633 C608 0.950 . S
H634 C611 0.950 . S
H635 C613 0.950 . S
C636 C637 1.443 . S
C636 N640 1.376 . S
C636 C674 1.389 . S
C637 C636 1.443 . S
C637 C638 1.340 . S
C637 H677 0.951 . S
C638 C637 1.340 . S
C638 C639 1.439 . S
C638 H678 0.950 . S
C639 C638 1.439 . S
C639 N640 1.374 . S
C639 C673 1.395 . S
N640 C636 1.376 . S
N640 C639 1.374 . S
N640 Co641 2.008 . S
Co641 N640 2.008 . S
Co641 N642 1.995 . S
Co641 N647 2.008 . S
Co641 N652 1.995 . S
Co641 N657 2.282 . S
Co641 N663 2.282 . S
N642 Co641 1.995 . S
N642 C643 1.376 . S
N642 C646 1.383 . S
C643 N642 1.376 . S
C643 C644 1.446 . S
C643 C673 1.391 . S
C644 C643 1.446 . S
C644 C645 1.339 . S
C644 H679 0.949 . S
C645 C644 1.339 . S
C645 C646 1.439 . S
C645 H680 0.950 . S
C646 N642 1.383 . S
C646 C645 1.439 . S
C646 C675 1.392 . S
N647 Co641 2.008 . S
N647 C648 1.376 . S
N647 C651 1.374 . S
C648 N647 1.376 . S
C648 C649 1.443 . S
C648 C675 1.389 . S
C649 C648 1.443 . S
C649 C650 1.340 . S
C649 H681 0.951 . S
C650 C649 1.340 . S
C650 C651 1.439 . S
C650 H682 0.950 . S
C651 N647 1.374 . S
C651 C650 1.439 . S
C651 C676 1.395 . S
N652 Co641 1.995 . S
N652 C653 1.376 . S
N652 C656 1.383 . S
C653 N652 1.376 . S
C653 C654 1.446 . S
C653 C676 1.391 . S
C654 C653 1.446 . S
C654 C655 1.339 . S
C654 H683 0.949 . S
C655 C654 1.339 . S
C655 C656 1.439 . S
C655 H684 0.950 . S
C656 N652 1.383 . S
C656 C655 1.439 . S
C656 C674 1.392 . S
N657 Co641 2.282 . S
N657 C660 1.332 . S
N657 C662 1.332 . S
C658 C659 1.386 . S
C658 C661 1.388 . S
C659 C658 1.386 . S
C659 C660 1.382 . S
C659 H685 0.950 . S
C660 N657 1.332 . S
C660 C659 1.382 . S
C660 H671 0.952 . S
C661 C658 1.388 . S
C661 C662 1.382 . S
C661 H686 0.950 . S
C662 N657 1.332 . S
C662 C661 1.382 . S
C662 H672 0.948 . S
N663 Co641 2.282 . S
N663 C667 1.332 . S
N663 C668 1.332 . S
C664 C665 1.388 . S
C664 C668 1.382 . S
C664 H687 0.950 . S
C665 C664 1.388 . S
C665 C666 1.386 . S
C666 C665 1.386 . S
C666 C667 1.382 . S
C666 H688 0.950 . S
C667 N663 1.332 . S
C667 C666 1.382 . S
C667 H669 0.952 . S
C668 N663 1.332 . S
C668 C664 1.382 . S
C668 H670 0.948 . S
H669 C667 0.952 . S
H670 C668 0.948 . S
H671 C660 0.952 . S
H672 C662 0.948 . S
C673 C639 1.395 . S
C673 C643 1.391 . S
C674 C636 1.389 . S
C674 C656 1.392 . S
C675 C646 1.392 . S
C675 C648 1.389 . S
C676 C651 1.395 . S
C676 C653 1.391 . S
H677 C637 0.951 . S
H678 C638 0.950 . S
H679 C644 0.949 . S
H680 C645 0.950 . S
H681 C649 0.951 . S
H682 C650 0.950 . S
H683 C654 0.949 . S
H684 C655 0.950 . S
H685 C659 0.950 . S
H686 C661 0.950 . S
H687 C664 0.950 . S
H688 C666 0.950 . S
C689 C690 1.443 . S
C689 N693 1.376 . S
C689 C727 1.389 . S
C690 C689 1.443 . S
C690 C691 1.340 . S
C690 H730 0.951 . S
C691 C690 1.340 . S
C691 C692 1.439 . S
C691 H731 0.950 . S
C692 C691 1.439 . S
C692 N693 1.374 . S
C692 C726 1.395 . S
N693 C689 1.376 . S
N693 C692 1.374 . S
N693 Co694 2.008 . S
Co694 N693 2.008 . S
Co694 N695 1.995 . S
Co694 N700 2.008 . S
Co694 N705 1.995 . S
Co694 N710 2.282 . S
Co694 N716 2.282 . S
N695 Co694 1.995 . S
N695 C696 1.376 . S
N695 C699 1.383 . S
C696 N695 1.376 . S
C696 C697 1.446 . S
C696 C726 1.391 . S
C697 C696 1.446 . S
C697 C698 1.339 . S
C697 H732 0.949 . S
C698 C697 1.339 . S
C698 C699 1.439 . S
C698 H733 0.950 . S
C699 N695 1.383 . S
C699 C698 1.439 . S
C699 C728 1.392 . S
N700 Co694 2.008 . S
N700 C701 1.376 . S
N700 C704 1.374 . S
C701 N700 1.376 . S
C701 C702 1.443 . S
C701 C728 1.389 . S
C702 C701 1.443 . S
C702 C703 1.340 . S
C702 H734 0.951 . S
C703 C702 1.340 . S
C703 C704 1.439 . S
C703 H735 0.950 . S
C704 N700 1.374 . S
C704 C703 1.439 . S
C704 C729 1.395 . S
N705 Co694 1.995 . S
N705 C706 1.376 . S
N705 C709 1.383 . S
C706 N705 1.376 . S
C706 C707 1.446 . S
C706 C729 1.391 . S
C707 C706 1.446 . S
C707 C708 1.339 . S
C707 H736 0.949 . S
C708 C707 1.339 . S
C708 C709 1.439 . S
C708 H737 0.950 . S
C709 N705 1.383 . S
C709 C708 1.439 . S
C709 C727 1.392 . S
N710 Co694 2.282 . S
N710 C713 1.332 . S
N710 C715 1.332 . S
C711 C712 1.386 . S
C711 C714 1.388 . S
C712 C711 1.386 . S
C712 C713 1.382 . S
C712 H738 0.950 . S
C713 N710 1.332 . S
C713 C712 1.382 . S
C713 H724 0.952 . S
C714 C711 1.388 . S
C714 C715 1.382 . S
C714 H739 0.950 . S
C715 N710 1.332 . S
C715 C714 1.382 . S
C715 H725 0.948 . S
N716 Co694 2.282 . S
N716 C720 1.332 . S
N716 C721 1.332 . S
C717 C718 1.388 . S
C717 C721 1.382 . S
C717 H740 0.950 . S
C718 C717 1.388 . S
C718 C719 1.386 . S
C719 C718 1.386 . S
C719 C720 1.382 . S
C719 H741 0.950 . S
C720 N716 1.332 . S
C720 C719 1.382 . S
C720 H722 0.952 . S
C721 N716 1.332 . S
C721 C717 1.382 . S
C721 H723 0.948 . S
H722 C720 0.952 . S
H723 C721 0.948 . S
H724 C713 0.952 . S
H725 C715 0.948 . S
C726 C692 1.395 . S
C726 C696 1.391 . S
C727 C689 1.389 . S
C727 C709 1.392 . S
C728 C699 1.392 . S
C728 C701 1.389 . S
C729 C704 1.395 . S
C729 C706 1.391 . S
H730 C690 0.951 . S
H731 C691 0.950 . S
H732 C697 0.949 . S
H733 C698 0.950 . S
H734 C702 0.951 . S
H735 C703 0.950 . S
H736 C707 0.949 . S
H737 C708 0.950 . S
H738 C712 0.950 . S
H739 C714 0.950 . S
H740 C717 0.950 . S
H741 C719 0.950 . S
C742 C743 1.443 . S
C742 N746 1.376 . S
C742 C780 1.389 . S
C743 C742 1.443 . S
C743 C744 1.340 . S
C743 H783 0.951 . S
C744 C743 1.340 . S
C744 C745 1.439 . S
C744 H784 0.950 . S
C745 C744 1.439 . S
C745 N746 1.374 . S
C745 C779 1.395 . S
N746 C742 1.376 . S
N746 C745 1.374 . S
N746 Co747 2.008 . S
Co747 N746 2.008 . S
Co747 N748 1.995 . S
Co747 N753 2.008 . S
Co747 N758 1.995 . S
Co747 N763 2.282 . S
Co747 N769 2.282 . S
N748 Co747 1.995 . S
N748 C749 1.376 . S
N748 C752 1.383 . S
C749 N748 1.376 . S
C749 C750 1.446 . S
C749 C779 1.391 . S
C750 C749 1.446 . S
C750 C751 1.339 . S
C750 H785 0.949 . S
C751 C750 1.339 . S
C751 C752 1.439 . S
C751 H786 0.950 . S
C752 N748 1.383 . S
C752 C751 1.439 . S
C752 C781 1.392 . S
N753 Co747 2.008 . S
N753 C754 1.376 . S
N753 C757 1.374 . S
C754 N753 1.376 . S
C754 C755 1.443 . S
C754 C781 1.389 . S
C755 C754 1.443 . S
C755 C756 1.340 . S
C755 H787 0.951 . S
C756 C755 1.340 . S
C756 C757 1.439 . S
C756 H788 0.950 . S
C757 N753 1.374 . S
C757 C756 1.439 . S
C757 C782 1.395 . S
N758 Co747 1.995 . S
N758 C759 1.376 . S
N758 C762 1.383 . S
C759 N758 1.376 . S
C759 C760 1.446 . S
C759 C782 1.391 . S
C760 C759 1.446 . S
C760 C761 1.339 . S
C760 H789 0.949 . S
C761 C760 1.339 . S
C761 C762 1.439 . S
C761 H790 0.950 . S
C762 N758 1.383 . S
C762 C761 1.439 . S
C762 C780 1.392 . S
N763 Co747 2.282 . S
N763 C766 1.332 . S
N763 C768 1.332 . S
C764 C765 1.386 . S
C764 C767 1.388 . S
C765 C764 1.386 . S
C765 C766 1.382 . S
C765 H791 0.950 . S
C766 N763 1.332 . S
C766 C765 1.382 . S
C766 H777 0.952 . S
C767 C764 1.388 . S
C767 C768 1.382 . S
C767 H792 0.950 . S
C768 N763 1.332 . S
C768 C767 1.382 . S
C768 H778 0.948 . S
N769 Co747 2.282 . S
N769 C773 1.332 . S
N769 C774 1.332 . S
C770 C771 1.388 . S
C770 C774 1.382 . S
C770 H793 0.950 . S
C771 C770 1.388 . S
C771 C772 1.386 . S
C772 C771 1.386 . S
C772 C773 1.382 . S
C772 H794 0.950 . S
C773 N769 1.332 . S
C773 C772 1.382 . S
C773 H775 0.952 . S
C774 N769 1.332 . S
C774 C770 1.382 . S
C774 H776 0.948 . S
H775 C773 0.952 . S
H776 C774 0.948 . S
H777 C766 0.952 . S
H778 C768 0.948 . S
C779 C745 1.395 . S
C779 C749 1.391 . S
C780 C742 1.389 . S
C780 C762 1.392 . S
C781 C752 1.392 . S
C781 C754 1.389 . S
C782 C757 1.395 . S
C782 C759 1.391 . S
H783 C743 0.951 . S
H784 C744 0.950 . S
H785 C750 0.949 . S
H786 C751 0.950 . S
H787 C755 0.951 . S
H788 C756 0.950 . S
H789 C760 0.949 . S
H790 C761 0.950 . S
H791 C765 0.950 . S
H792 C767 0.950 . S
H793 C770 0.950 . S
H794 C772 0.950 . S
C795 C796 1.443 . S
C795 N799 1.376 . S
C795 C833 1.389 . S
C796 C795 1.443 . S
C796 C797 1.340 . S
C796 H836 0.951 . S
C797 C796 1.340 . S
C797 C798 1.439 . S
C797 H837 0.950 . S
C798 C797 1.439 . S
C798 N799 1.374 . S
C798 C832 1.395 . S
N799 C795 1.376 . S
N799 C798 1.374 . S
N799 Co800 2.008 . S
Co800 N799 2.008 . S
Co800 N801 1.995 . S
Co800 N806 2.008 . S
Co800 N811 1.995 . S
Co800 N816 2.282 . S
Co800 N822 2.282 . S
N801 Co800 1.995 . S
N801 C802 1.376 . S
N801 C805 1.383 . S
C802 N801 1.376 . S
C802 C803 1.446 . S
C802 C832 1.391 . S
C803 C802 1.446 . S
C803 C804 1.339 . S
C803 H838 0.949 . S
C804 C803 1.339 . S
C804 C805 1.439 . S
C804 H839 0.950 . S
C805 N801 1.383 . S
C805 C804 1.439 . S
C805 C834 1.392 . S
N806 Co800 2.008 . S
N806 C807 1.376 . S
N806 C810 1.374 . S
C807 N806 1.376 . S
C807 C808 1.443 . S
C807 C834 1.389 . S
C808 C807 1.443 . S
C808 C809 1.340 . S
C808 H840 0.951 . S
C809 C808 1.340 . S
C809 C810 1.439 . S
C809 H841 0.950 . S
C810 N806 1.374 . S
C810 C809 1.439 . S
C810 C835 1.395 . S
N811 Co800 1.995 . S
N811 C812 1.376 . S
N811 C815 1.383 . S
C812 N811 1.376 . S
C812 C813 1.446 . S
C812 C835 1.391 . S
C813 C812 1.446 . S
C813 C814 1.339 . S
C813 H842 0.949 . S
C814 C813 1.339 . S
C814 C815 1.439 . S
C814 H843 0.950 . S
C815 N811 1.383 . S
C815 C814 1.439 . S
C815 C833 1.392 . S
N816 Co800 2.282 . S
N816 C819 1.332 . S
N816 C821 1.332 . S
C817 C818 1.386 . S
C817 C820 1.388 . S
C818 C817 1.386 . S
C818 C819 1.382 . S
C818 H844 0.950 . S
C819 N816 1.332 . S
C819 C818 1.382 . S
C819 H830 0.952 . S
C820 C817 1.388 . S
C820 C821 1.382 . S
C820 H845 0.950 . S
C821 N816 1.332 . S
C821 C820 1.382 . S
C821 H831 0.948 . S
N822 Co800 2.282 . S
N822 C826 1.332 . S
N822 C827 1.332 . S
C823 C824 1.388 . S
C823 C827 1.382 . S
C823 H846 0.950 . S
C824 C823 1.388 . S
C824 C825 1.386 . S
C825 C824 1.386 . S
C825 C826 1.382 . S
C825 H847 0.950 . S
C826 N822 1.332 . S
C826 C825 1.382 . S
C826 H828 0.952 . S
C827 N822 1.332 . S
C827 C823 1.382 . S
C827 H829 0.948 . S
H828 C826 0.952 . S
H829 C827 0.948 . S
H830 C819 0.952 . S
H831 C821 0.948 . S
C832 C798 1.395 . S
C832 C802 1.391 . S
C833 C795 1.389 . S
C833 C815 1.392 . S
C834 C805 1.392 . S
C834 C807 1.389 . S
C835 C810 1.395 . S
C835 C812 1.391 . S
H836 C796 0.951 . S
H837 C797 0.950 . S
H838 C803 0.949 . S
H839 C804 0.950 . S
H840 C808 0.951 . S
H841 C809 0.950 . S
H842 C813 0.949 . S
H843 C814 0.950 . S
H844 C818 0.950 . S
H845 C820 0.950 . S
H846 C823 0.950 . S
H847 C825 0.950 . S
C848 C849 1.443 . S
C848 N852 1.376 . S
C848 C886 1.389 . S
C849 C848 1.443 . S
C849 C850 1.340 . S
C849 H889 0.951 . S
C850 C849 1.340 . S
C850 C851 1.439 . S
C850 H890 0.950 . S
C851 C850 1.439 . S
C851 N852 1.374 . S
C851 C885 1.395 . S
N852 C848 1.376 . S
N852 C851 1.374 . S
N852 Co853 2.008 . S
Co853 N852 2.008 . S
Co853 N854 1.995 . S
Co853 N859 2.008 . S
Co853 N864 1.995 . S
Co853 N869 2.282 . S
Co853 N875 2.282 . S
N854 Co853 1.995 . S
N854 C855 1.376 . S
N854 C858 1.383 . S
C855 N854 1.376 . S
C855 C856 1.446 . S
C855 C885 1.391 . S
C856 C855 1.446 . S
C856 C857 1.339 . S
C856 H891 0.949 . S
C857 C856 1.339 . S
C857 C858 1.439 . S
C857 H892 0.950 . S
C858 N854 1.383 . S
C858 C857 1.439 . S
C858 C887 1.392 . S
N859 Co853 2.008 . S
N859 C860 1.376 . S
N859 C863 1.374 . S
C860 N859 1.376 . S
C860 C861 1.443 . S
C860 C887 1.389 . S
C861 C860 1.443 . S
C861 C862 1.340 . S
C861 H893 0.951 . S
C862 C861 1.340 . S
C862 C863 1.439 . S
C862 H894 0.950 . S
C863 N859 1.374 . S
C863 C862 1.439 . S
C863 C888 1.395 . S
N864 Co853 1.995 . S
N864 C865 1.376 . S
N864 C868 1.383 . S
C865 N864 1.376 . S
C865 C866 1.446 . S
C865 C888 1.391 . S
C866 C865 1.446 . S
C866 C867 1.339 . S
C866 H895 0.949 . S
C867 C866 1.339 . S
C867 C868 1.439 . S
C867 H896 0.950 . S
C868 N864 1.383 . S
C868 C867 1.439 . S
C868 C886 1.392 . S
N869 Co853 2.282 . S
N869 C872 1.332 . S
N869 C874 1.332 . S
C870 C871 1.386 . S
C870 C873 1.388 . S
C871 C870 1.386 . S
C871 C872 1.382 . S
C871 H897 0.950 . S
C872 N869 1.332 . S
C872 C871 1.382 . S
C872 H883 0.952 . S
C873 C870 1.388 . S
C873 C874 1.382 . S
C873 H898 0.950 . S
C874 N869 1.332 . S
C874 C873 1.382 . S
C874 H884 0.948 . S
N875 Co853 2.282 . S
N875 C879 1.332 . S
N875 C880 1.332 . S
C876 C877 1.388 . S
C876 C880 1.382 . S
C876 H899 0.950 . S
C877 C876 1.388 . S
C877 C878 1.386 . S
C878 C877 1.386 . S
C878 C879 1.382 . S
C878 H900 0.950 . S
C879 N875 1.332 . S
C879 C878 1.382 . S
C879 H881 0.952 . S
C880 N875 1.332 . S
C880 C876 1.382 . S
C880 H882 0.948 . S
H881 C879 0.952 . S
H882 C880 0.948 . S
H883 C872 0.952 . S
H884 C874 0.948 . S
C885 C851 1.395 . S
C885 C855 1.391 . S
C886 C848 1.389 . S
C886 C868 1.392 . S
C887 C858 1.392 . S
C887 C860 1.389 . S
C888 C863 1.395 . S
C888 C865 1.391 . S
H889 C849 0.951 . S
H890 C850 0.950 . S
H891 C856 0.949 . S
H892 C857 0.950 . S
H893 C861 0.951 . S
H894 C862 0.950 . S
H895 C866 0.949 . S
H896 C867 0.950 . S
H897 C871 0.950 . S
H898 C873 0.950 . S
H899 C876 0.950 . S
H900 C878 0.950 . S
C901 C902 1.443 . S
C901 N905 1.376 . S
C901 C939 1.389 . S
C902 C901 1.443 . S
C902 C903 1.340 . S
C902 H942 0.951 . S
C903 C902 1.340 . S
C903 C904 1.439 . S
C903 H943 0.950 . S
C904 C903 1.439 . S
C904 N905 1.374 . S
C904 C938 1.395 . S
N905 C901 1.376 . S
N905 C904 1.374 . S
N905 Co906 2.008 . S
Co906 N905 2.008 . S
Co906 N907 1.995 . S
Co906 N912 2.008 . S
Co906 N917 1.995 . S
Co906 N922 2.282 . S
Co906 N928 2.282 . S
N907 Co906 1.995 . S
N907 C908 1.376 . S
N907 C911 1.383 . S
C908 N907 1.376 . S
C908 C909 1.446 . S
C908 C938 1.391 . S
C909 C908 1.446 . S
C909 C910 1.339 . S
C909 H944 0.949 . S
C910 C909 1.339 . S
C910 C911 1.439 . S
C910 H945 0.950 . S
C911 N907 1.383 . S
C911 C910 1.439 . S
C911 C940 1.392 . S
N912 Co906 2.008 . S
N912 C913 1.376 . S
N912 C916 1.374 . S
C913 N912 1.376 . S
C913 C914 1.443 . S
C913 C940 1.389 . S
C914 C913 1.443 . S
C914 C915 1.340 . S
C914 H946 0.951 . S
C915 C914 1.340 . S
C915 C916 1.439 . S
C915 H947 0.950 . S
C916 N912 1.374 . S
C916 C915 1.439 . S
C916 C941 1.395 . S
N917 Co906 1.995 . S
N917 C918 1.376 . S
N917 C921 1.383 . S
C918 N917 1.376 . S
C918 C919 1.446 . S
C918 C941 1.391 . S
C919 C918 1.446 . S
C919 C920 1.339 . S
C919 H948 0.949 . S
C920 C919 1.339 . S
C920 C921 1.439 . S
C920 H949 0.950 . S
C921 N917 1.383 . S
C921 C920 1.439 . S
C921 C939 1.392 . S
N922 Co906 2.282 . S
N922 C925 1.332 . S
N922 C927 1.332 . S
C923 C924 1.386 . S
C923 C926 1.388 . S
C924 C923 1.386 . S
C924 C925 1.382 . S
C924 H950 0.950 . S
C925 N922 1.332 . S
C925 C924 1.382 . S
C925 H936 0.952 . S
C926 C923 1.388 . S
C926 C927 1.382 . S
C926 H951 0.950 . S
C927 N922 1.332 . S
C927 C926 1.382 . S
C927 H937 0.948 . S
N928 Co906 2.282 . S
N928 C932 1.332 . S
N928 C933 1.332 . S
C929 C930 1.388 . S
C929 C933 1.382 . S
C929 H952 0.950 . S
C930 C929 1.388 . S
C930 C931 1.386 . S
C931 C930 1.386 . S
C931 C932 1.382 . S
C931 H953 0.950 . S
C932 N928 1.332 . S
C932 C931 1.382 . S
C932 H934 0.952 . S
C933 N928 1.332 . S
C933 C929 1.382 . S
C933 H935 0.948 . S
H934 C932 0.952 . S
H935 C933 0.948 . S
H936 C925 0.952 . S
H937 C927 0.948 . S
C938 C904 1.395 . S
C938 C908 1.391 . S
C939 C901 1.389 . S
C939 C921 1.392 . S
C940 C911 1.392 . S
C940 C913 1.389 . S
C941 C916 1.395 . S
C941 C918 1.391 . S
H942 C902 0.951 . S
H943 C903 0.950 . S
H944 C909 0.949 . S
H945 C910 0.950 . S
H946 C914 0.951 . S
H947 C915 0.950 . S
H948 C919 0.949 . S
H949 C920 0.950 . S
H950 C924 0.950 . S
H951 C926 0.950 . S
H952 C929 0.950 . S
H953 C931 0.950 . S
C954 C955 1.443 . S
C954 N958 1.376 . S
C954 C992 1.389 . S
C955 C954 1.443 . S
C955 C956 1.340 . S
C955 H995 0.951 . S
C956 C955 1.340 . S
C956 C957 1.439 . S
C956 H996 0.950 . S
C957 C956 1.439 . S
C957 N958 1.374 . S
C957 C991 1.395 . S
N958 C954 1.376 . S
N958 C957 1.374 . S
N958 Co959 2.008 . S
Co959 N958 2.008 . S
Co959 N960 1.995 . S
Co959 N965 2.008 . S
Co959 N970 1.995 . S
Co959 N975 2.282 . S
Co959 N981 2.282 . S
N960 Co959 1.995 . S
N960 C961 1.376 . S
N960 C964 1.383 . S
C961 N960 1.376 . S
C961 C962 1.446 . S
C961 C991 1.391 . S
C962 C961 1.446 . S
C962 C963 1.339 . S
C962 H997 0.949 . S
C963 C962 1.339 . S
C963 C964 1.439 . S
C963 H998 0.950 . S
C964 N960 1.383 . S
C964 C963 1.439 . S
C964 C993 1.392 . S
N965 Co959 2.008 . S
N965 C966 1.376 . S
N965 C969 1.374 . S
C966 N965 1.376 . S
C966 C967 1.443 . S
C966 C993 1.389 . S
C967 C966 1.443 . S
C967 C968 1.340 . S
C967 H999 0.951 . S
C968 C967 1.340 . S
C968 C969 1.439 . S
C968 H1000 0.950 . S
C969 N965 1.374 . S
C969 C968 1.439 . S
C969 C994 1.395 . S
N970 Co959 1.995 . S
N970 C971 1.376 . S
N970 C974 1.383 . S
C971 N970 1.376 . S
C971 C972 1.446 . S
C971 C994 1.391 . S
C972 C971 1.446 . S
C972 C973 1.339 . S
C972 H1001 0.949 . S
C973 C972 1.339 . S
C973 C974 1.439 . S
C973 H1002 0.950 . S
C974 N970 1.383 . S
C974 C973 1.439 . S
C974 C992 1.392 . S
N975 Co959 2.282 . S
N975 C978 1.332 . S
N975 C980 1.332 . S
C976 C977 1.386 . S
C976 C979 1.388 . S
C977 C976 1.386 . S
C977 C978 1.382 . S
C977 H1003 0.950 . S
C978 N975 1.332 . S
C978 C977 1.382 . S
C978 H989 0.952 . S
C979 C976 1.388 . S
C979 C980 1.382 . S
C979 H1004 0.950 . S
C980 N975 1.332 . S
C980 C979 1.382 . S
C980 H990 0.948 . S
N981 Co959 2.282 . S
N981 C985 1.332 . S
N981 C986 1.332 . S
C982 C983 1.388 . S
C982 C986 1.382 . S
C982 H1005 0.950 . S
C983 C982 1.388 . S
C983 C984 1.386 . S
C984 C983 1.386 . S
C984 C985 1.382 . S
C984 H1006 0.950 . S
C985 N981 1.332 . S
C985 C984 1.382 . S
C985 H987 0.952 . S
C986 N981 1.332 . S
C986 C982 1.382 . S
C986 H988 0.948 . S
H987 C985 0.952 . S
H988 C986 0.948 . S
H989 C978 0.952 . S
H990 C980 0.948 . S
C991 C957 1.395 . S
C991 C961 1.391 . S
C992 C954 1.389 . S
C992 C974 1.392 . S
C993 C964 1.392 . S
C993 C966 1.389 . S
C994 C969 1.395 . S
C994 C971 1.391 . S
H995 C955 0.951 . S
H996 C956 0.950 . S
H997 C962 0.949 . S
H998 C963 0.950 . S
H999 C967 0.951 . S
H1000 C968 0.950 . S
H1001 C972 0.949 . S
H1002 C973 0.950 . S
H1003 C977 0.950 . S
H1004 C979 0.950 . S
H1005 C982 0.950 . S
H1006 C984 0.950 . S
C1007 C1008 1.443 . S
C1007 N1011 1.376 . S
C1007 C1045 1.389 . S
C1008 C1007 1.443 . S
C1008 C1009 1.340 . S
C1008 H1048 0.951 . S
C1009 C1008 1.340 . S
C1009 C1010 1.439 . S
C1009 H1049 0.950 . S
C1010 C1009 1.439 . S
C1010 N1011 1.374 . S
C1010 C1044 1.395 . S
N1011 C1007 1.376 . S
N1011 C1010 1.374 . S
N1011 Co1012 2.008 . S
Co1012 N1011 2.008 . S
Co1012 N1013 1.995 . S
Co1012 N1018 2.008 . S
Co1012 N1023 1.995 . S
Co1012 N1028 2.282 . S
Co1012 N1034 2.282 . S
N1013 Co1012 1.995 . S
N1013 C1014 1.376 . S
N1013 C1017 1.383 . S
C1014 N1013 1.376 . S
C1014 C1015 1.446 . S
C1014 C1044 1.391 . S
C1015 C1014 1.446 . S
C1015 C1016 1.339 . S
C1015 H1050 0.949 . S
C1016 C1015 1.339 . S
C1016 C1017 1.439 . S
C1016 H1051 0.950 . S
C1017 N1013 1.383 . S
C1017 C1016 1.439 . S
C1017 C1046 1.392 . S
N1018 Co1012 2.008 . S
N1018 C1019 1.376 . S
N1018 C1022 1.374 . S
C1019 N1018 1.376 . S
C1019 C1020 1.443 . S
C1019 C1046 1.389 . S
C1020 C1019 1.443 . S
C1020 C1021 1.340 . S
C1020 H1052 0.951 . S
C1021 C1020 1.340 . S
C1021 C1022 1.439 . S
C1021 H1053 0.950 . S
C1022 N1018 1.374 . S
C1022 C1021 1.439 . S
C1022 C1047 1.395 . S
N1023 Co1012 1.995 . S
N1023 C1024 1.376 . S
N1023 C1027 1.383 . S
C1024 N1023 1.376 . S
C1024 C1025 1.446 . S
C1024 C1047 1.391 . S
C1025 C1024 1.446 . S
C1025 C1026 1.339 . S
C1025 H1054 0.949 . S
C1026 C1025 1.339 . S
C1026 C1027 1.439 . S
C1026 H1055 0.950 . S
C1027 N1023 1.383 . S
C1027 C1026 1.439 . S
C1027 C1045 1.392 . S
N1028 Co1012 2.282 . S
N1028 C1031 1.332 . S
N1028 C1033 1.332 . S
C1029 C1030 1.386 . S
C1029 C1032 1.388 . S
C1030 C1029 1.386 . S
C1030 C1031 1.382 . S
C1030 H1056 0.950 . S
C1031 N1028 1.332 . S
C1031 C1030 1.382 . S
C1031 H1042 0.952 . S
C1032 C1029 1.388 . S
C1032 C1033 1.382 . S
C1032 H1057 0.950 . S
C1033 N1028 1.332 . S
C1033 C1032 1.382 . S
C1033 H1043 0.948 . S
N1034 Co1012 2.282 . S
N1034 C1038 1.332 . S
N1034 C1039 1.332 . S
C1035 C1036 1.388 . S
C1035 C1039 1.382 . S
C1035 H1058 0.950 . S
C1036 C1035 1.388 . S
C1036 C1037 1.386 . S
C1037 C1036 1.386 . S
C1037 C1038 1.382 . S
C1037 H1059 0.950 . S
C1038 N1034 1.332 . S
C1038 C1037 1.382 . S
C1038 H1040 0.952 . S
C1039 N1034 1.332 . S
C1039 C1035 1.382 . S
C1039 H1041 0.948 . S
H1040 C1038 0.952 . S
H1041 C1039 0.948 . S
H1042 C1031 0.952 . S
H1043 C1033 0.948 . S
C1044 C1010 1.395 . S
C1044 C1014 1.391 . S
C1045 C1007 1.389 . S
C1045 C1027 1.392 . S
C1046 C1017 1.392 . S
C1046 C1019 1.389 . S
C1047 C1022 1.395 . S
C1047 C1024 1.391 . S
H1048 C1008 0.951 . S
H1049 C1009 0.950 . S
H1050 C1015 0.949 . S
H1051 C1016 0.950 . S
H1052 C1020 0.951 . S
H1053 C1021 0.950 . S
H1054 C1025 0.949 . S
H1055 C1026 0.950 . S
H1056 C1030 0.950 . S
H1057 C1032 0.950 . S
H1058 C1035 0.950 . S
H1059 C1037 0.950 . S
C1060 C1061 1.443 . S
C1060 N1064 1.376 . S
C1060 C1098 1.389 . S
C1061 C1060 1.443 . S
C1061 C1062 1.340 . S
C1061 H1101 0.951 . S
C1062 C1061 1.340 . S
C1062 C1063 1.439 . S
C1062 H1102 0.950 . S
C1063 C1062 1.439 . S
C1063 N1064 1.374 . S
C1063 C1097 1.395 . S
N1064 C1060 1.376 . S
N1064 C1063 1.374 . S
N1064 Co1065 2.008 . S
Co1065 N1064 2.008 . S
Co1065 N1066 1.995 . S
Co1065 N1071 2.008 . S
Co1065 N1076 1.995 . S
Co1065 N1081 2.282 . S
Co1065 N1087 2.282 . S
N1066 Co1065 1.995 . S
N1066 C1067 1.376 . S
N1066 C1070 1.383 . S
C1067 N1066 1.376 . S
C1067 C1068 1.446 . S
C1067 C1097 1.391 . S
C1068 C1067 1.446 . S
C1068 C1069 1.339 . S
C1068 H1103 0.949 . S
C1069 C1068 1.339 . S
C1069 C1070 1.439 . S
C1069 H1104 0.950 . S
C1070 N1066 1.383 . S
C1070 C1069 1.439 . S
C1070 C1099 1.392 . S
N1071 Co1065 2.008 . S
N1071 C1072 1.376 . S
N1071 C1075 1.374 . S
C1072 N1071 1.376 . S
C1072 C1073 1.443 . S
C1072 C1099 1.389 . S
C1073 C1072 1.443 . S
C1073 C1074 1.340 . S
C1073 H1105 0.951 . S
C1074 C1073 1.340 . S
C1074 C1075 1.439 . S
C1074 H1106 0.950 . S
C1075 N1071 1.374 . S
C1075 C1074 1.439 . S
C1075 C1100 1.395 . S
N1076 Co1065 1.995 . S
N1076 C1077 1.376 . S
N1076 C1080 1.383 . S
C1077 N1076 1.376 . S
C1077 C1078 1.446 . S
C1077 C1100 1.391 . S
C1078 C1077 1.446 . S
C1078 C1079 1.339 . S
C1078 H1107 0.949 . S
C1079 C1078 1.339 . S
C1079 C1080 1.439 . S
C1079 H1108 0.950 . S
C1080 N1076 1.383 . S
C1080 C1079 1.439 . S
C1080 C1098 1.392 . S
N1081 Co1065 2.282 . S
N1081 C1084 1.332 . S
N1081 C1086 1.332 . S
C1082 C1083 1.386 . S
C1082 C1085 1.388 . S
C1083 C1082 1.386 . S
C1083 C1084 1.382 . S
C1083 H1109 0.950 . S
C1084 N1081 1.332 . S
C1084 C1083 1.382 . S
C1084 H1095 0.952 . S
C1085 C1082 1.388 . S
C1085 C1086 1.382 . S
C1085 H1110 0.950 . S
C1086 N1081 1.332 . S
C1086 C1085 1.382 . S
C1086 H1096 0.948 . S
N1087 Co1065 2.282 . S
N1087 C1091 1.332 . S
N1087 C1092 1.332 . S
C1088 C1089 1.388 . S
C1088 C1092 1.382 . S
C1088 H1111 0.950 . S
C1089 C1088 1.388 . S
C1089 C1090 1.386 . S
C1090 C1089 1.386 . S
C1090 C1091 1.382 . S
C1090 H1112 0.950 . S
C1091 N1087 1.332 . S
C1091 C1090 1.382 . S
C1091 H1093 0.952 . S
C1092 N1087 1.332 . S
C1092 C1088 1.382 . S
C1092 H1094 0.948 . S
H1093 C1091 0.952 . S
H1094 C1092 0.948 . S
H1095 C1084 0.952 . S
H1096 C1086 0.948 . S
C1097 C1063 1.395 . S
C1097 C1067 1.391 . S
C1098 C1060 1.389 . S
C1098 C1080 1.392 . S
C1099 C1070 1.392 . S
C1099 C1072 1.389 . S
C1100 C1075 1.395 . S
C1100 C1077 1.391 . S
H1101 C1061 0.951 . S
H1102 C1062 0.950 . S
H1103 C1068 0.949 . S
H1104 C1069 0.950 . S
H1105 C1073 0.951 . S
H1106 C1074 0.950 . S
H1107 C1078 0.949 . S
H1108 C1079 0.950 . S
H1109 C1083 0.950 . S
H1110 C1085 0.950 . S
H1111 C1088 0.950 . S
H1112 C1090 0.950 . S
C1113 C1114 1.443 . S
C1113 N1117 1.376 . S
C1113 C1151 1.389 . S
C1114 C1113 1.443 . S
C1114 C1115 1.340 . S
C1114 H1154 0.951 . S
C1115 C1114 1.340 . S
C1115 C1116 1.439 . S
C1115 H1155 0.950 . S
C1116 C1115 1.439 . S
C1116 N1117 1.374 . S
C1116 C1150 1.395 . S
N1117 C1113 1.376 . S
N1117 C1116 1.374 . S
N1117 Co1118 2.008 . S
Co1118 N1117 2.008 . S
Co1118 N1119 1.995 . S
Co1118 N1124 2.008 . S
Co1118 N1129 1.995 . S
Co1118 N1134 2.282 . S
Co1118 N1140 2.282 . S
N1119 Co1118 1.995 . S
N1119 C1120 1.376 . S
N1119 C1123 1.383 . S
C1120 N1119 1.376 . S
C1120 C1121 1.446 . S
C1120 C1150 1.391 . S
C1121 C1120 1.446 . S
C1121 C1122 1.339 . S
C1121 H1156 0.949 . S
C1122 C1121 1.339 . S
C1122 C1123 1.439 . S
C1122 H1157 0.950 . S
C1123 N1119 1.383 . S
C1123 C1122 1.439 . S
C1123 C1152 1.392 . S
N1124 Co1118 2.008 . S
N1124 C1125 1.376 . S
N1124 C1128 1.374 . S
C1125 N1124 1.376 . S
C1125 C1126 1.443 . S
C1125 C1152 1.389 . S
C1126 C1125 1.443 . S
C1126 C1127 1.340 . S
C1126 H1158 0.951 . S
C1127 C1126 1.340 . S
C1127 C1128 1.439 . S
C1127 H1159 0.950 . S
C1128 N1124 1.374 . S
C1128 C1127 1.439 . S
C1128 C1153 1.395 . S
N1129 Co1118 1.995 . S
N1129 C1130 1.376 . S
N1129 C1133 1.383 . S
C1130 N1129 1.376 . S
C1130 C1131 1.446 . S
C1130 C1153 1.391 . S
C1131 C1130 1.446 . S
C1131 C1132 1.339 . S
C1131 H1160 0.949 . S
C1132 C1131 1.339 . S
C1132 C1133 1.439 . S
C1132 H1161 0.950 . S
C1133 N1129 1.383 . S
C1133 C1132 1.439 . S
C1133 C1151 1.392 . S
N1134 Co1118 2.282 . S
N1134 C1137 1.332 . S
N1134 C1139 1.332 . S
C1135 C1136 1.386 . S
C1135 C1138 1.388 . S
C1136 C1135 1.386 . S
C1136 C1137 1.382 . S
C1136 H1162 0.950 . S
C1137 N1134 1.332 . S
C1137 C1136 1.382 . S
C1137 H1148 0.952 . S
C1138 C1135 1.388 . S
C1138 C1139 1.382 . S
C1138 H1163 0.950 . S
C1139 N1134 1.332 . S
C1139 C1138 1.382 . S
C1139 H1149 0.948 . S
N1140 Co1118 2.282 . S
N1140 C1144 1.332 . S
N1140 C1145 1.332 . S
C1141 C1142 1.388 . S
C1141 C1145 1.382 . S
C1141 H1164 0.950 . S
C1142 C1141 1.388 . S
C1142 C1143 1.386 . S
C1143 C1142 1.386 . S
C1143 C1144 1.382 . S
C1143 H1165 0.950 . S
C1144 N1140 1.332 . S
C1144 C1143 1.382 . S
C1144 H1146 0.952 . S
C1145 N1140 1.332 . S
C1145 C1141 1.382 . S
C1145 H1147 0.948 . S
H1146 C1144 0.952 . S
H1147 C1145 0.948 . S
H1148 C1137 0.952 . S
H1149 C1139 0.948 . S
C1150 C1116 1.395 . S
C1150 C1120 1.391 . S
C1151 C1113 1.389 . S
C1151 C1133 1.392 . S
C1152 C1123 1.392 . S
C1152 C1125 1.389 . S
C1153 C1128 1.395 . S
C1153 C1130 1.391 . S
H1154 C1114 0.951 . S
H1155 C1115 0.950 . S
H1156 C1121 0.949 . S
H1157 C1122 0.950 . S
H1158 C1126 0.951 . S
H1159 C1127 0.950 . S
H1160 C1131 0.949 . S
H1161 C1132 0.950 . S
H1162 C1136 0.950 . S
H1163 C1138 0.950 . S
H1164 C1141 0.950 . S
H1165 C1143 0.950 . S
C1166 C1167 1.443 . S
C1166 N1170 1.376 . S
C1166 C1204 1.389 . S
C1167 C1166 1.443 . S
C1167 C1168 1.340 . S
C1167 H1207 0.951 . S
C1168 C1167 1.340 . S
C1168 C1169 1.439 . S
C1168 H1208 0.950 . S
C1169 C1168 1.439 . S
C1169 N1170 1.374 . S
C1169 C1203 1.395 . S
N1170 C1166 1.376 . S
N1170 C1169 1.374 . S
N1170 Co1171 2.008 . S
Co1171 N1170 2.008 . S
Co1171 N1172 1.995 . S
Co1171 N1177 2.008 . S
Co1171 N1182 1.995 . S
Co1171 N1187 2.282 . S
Co1171 N1193 2.282 . S
N1172 Co1171 1.995 . S
N1172 C1173 1.376 . S
N1172 C1176 1.383 . S
C1173 N1172 1.376 . S
C1173 C1174 1.446 . S
C1173 C1203 1.391 . S
C1174 C1173 1.446 . S
C1174 C1175 1.339 . S
C1174 H1209 0.949 . S
C1175 C1174 1.339 . S
C1175 C1176 1.439 . S
C1175 H1210 0.950 . S
C1176 N1172 1.383 . S
C1176 C1175 1.439 . S
C1176 C1205 1.392 . S
N1177 Co1171 2.008 . S
N1177 C1178 1.376 . S
N1177 C1181 1.374 . S
C1178 N1177 1.376 . S
C1178 C1179 1.443 . S
C1178 C1205 1.389 . S
C1179 C1178 1.443 . S
C1179 C1180 1.340 . S
C1179 H1211 0.951 . S
C1180 C1179 1.340 . S
C1180 C1181 1.439 . S
C1180 H1212 0.950 . S
C1181 N1177 1.374 . S
C1181 C1180 1.439 . S
C1181 C1206 1.395 . S
N1182 Co1171 1.995 . S
N1182 C1183 1.376 . S
N1182 C1186 1.383 . S
C1183 N1182 1.376 . S
C1183 C1184 1.446 . S
C1183 C1206 1.391 . S
C1184 C1183 1.446 . S
C1184 C1185 1.339 . S
C1184 H1213 0.949 . S
C1185 C1184 1.339 . S
C1185 C1186 1.439 . S
C1185 H1214 0.950 . S
C1186 N1182 1.383 . S
C1186 C1185 1.439 . S
C1186 C1204 1.392 . S
N1187 Co1171 2.282 . S
N1187 C1190 1.332 . S
N1187 C1192 1.332 . S
C1188 C1189 1.386 . S
C1188 C1191 1.388 . S
C1189 C1188 1.386 . S
C1189 C1190 1.382 . S
C1189 H1215 0.950 . S
C1190 N1187 1.332 . S
C1190 C1189 1.382 . S
C1190 H1201 0.952 . S
C1191 C1188 1.388 . S
C1191 C1192 1.382 . S
C1191 H1216 0.950 . S
C1192 N1187 1.332 . S
C1192 C1191 1.382 . S
C1192 H1202 0.948 . S
N1193 Co1171 2.282 . S
N1193 C1197 1.332 . S
N1193 C1198 1.332 . S
C1194 C1195 1.388 . S
C1194 C1198 1.382 . S
C1194 H1217 0.950 . S
C1195 C1194 1.388 . S
C1195 C1196 1.386 . S
C1196 C1195 1.386 . S
C1196 C1197 1.382 . S
C1196 H1218 0.950 . S
C1197 N1193 1.332 . S
C1197 C1196 1.382 . S
C1197 H1199 0.952 . S
C1198 N1193 1.332 . S
C1198 C1194 1.382 . S
C1198 H1200 0.948 . S
H1199 C1197 0.952 . S
H1200 C1198 0.948 . S
H1201 C1190 0.952 . S
H1202 C1192 0.948 . S
C1203 C1169 1.395 . S
C1203 C1173 1.391 . S
C1204 C1166 1.389 . S
C1204 C1186 1.392 . S
C1205 C1176 1.392 . S
C1205 C1178 1.389 . S
C1206 C1181 1.395 . S
C1206 C1183 1.391 . S
H1207 C1167 0.951 . S
H1208 C1168 0.950 . S
H1209 C1174 0.949 . S
H1210 C1175 0.950 . S
H1211 C1179 0.951 . S
H1212 C1180 0.950 . S
H1213 C1184 0.949 . S
H1214 C1185 0.950 . S
H1215 C1189 0.950 . S
H1216 C1191 0.950 . S
H1217 C1194 0.950 . S
H1218 C1196 0.950 . S
C1219 C1220 1.443 . S
C1219 N1223 1.376 . S
C1219 C1257 1.389 . S
C1220 C1219 1.443 . S
C1220 C1221 1.340 . S
C1220 H1260 0.951 . S
C1221 C1220 1.340 . S
C1221 C1222 1.439 . S
C1221 H1261 0.950 . S
C1222 C1221 1.439 . S
C1222 N1223 1.374 . S
C1222 C1256 1.395 . S
N1223 C1219 1.376 . S
N1223 C1222 1.374 . S
N1223 Co1224 2.008 . S
Co1224 N1223 2.008 . S
Co1224 N1225 1.995 . S
Co1224 N1230 2.008 . S
Co1224 N1235 1.995 . S
Co1224 N1240 2.282 . S
Co1224 N1246 2.282 . S
N1225 Co1224 1.995 . S
N1225 C1226 1.376 . S
N1225 C1229 1.383 . S
C1226 N1225 1.376 . S
C1226 C1227 1.446 . S
C1226 C1256 1.391 . S
C1227 C1226 1.446 . S
C1227 C1228 1.339 . S
C1227 H1262 0.949 . S
C1228 C1227 1.339 . S
C1228 C1229 1.439 . S
C1228 H1263 0.950 . S
C1229 N1225 1.383 . S
C1229 C1228 1.439 . S
C1229 C1258 1.392 . S
N1230 Co1224 2.008 . S
N1230 C1231 1.376 . S
N1230 C1234 1.374 . S
C1231 N1230 1.376 . S
C1231 C1232 1.443 . S
C1231 C1258 1.389 . S
C1232 C1231 1.443 . S
C1232 C1233 1.340 . S
C1232 H1264 0.951 . S
C1233 C1232 1.340 . S
C1233 C1234 1.439 . S
C1233 H1265 0.950 . S
C1234 N1230 1.374 . S
C1234 C1233 1.439 . S
C1234 C1259 1.395 . S
N1235 Co1224 1.995 . S
N1235 C1236 1.376 . S
N1235 C1239 1.383 . S
C1236 N1235 1.376 . S
C1236 C1237 1.446 . S
C1236 C1259 1.391 . S
C1237 C1236 1.446 . S
C1237 C1238 1.339 . S
C1237 H1266 0.949 . S
C1238 C1237 1.339 . S
C1238 C1239 1.439 . S
C1238 H1267 0.950 . S
C1239 N1235 1.383 . S
C1239 C1238 1.439 . S
C1239 C1257 1.392 . S
N1240 Co1224 2.282 . S
N1240 C1243 1.332 . S
N1240 C1245 1.332 . S
C1241 C1242 1.386 . S
C1241 C1244 1.388 . S
C1242 C1241 1.386 . S
C1242 C1243 1.382 . S
C1242 H1268 0.950 . S
C1243 N1240 1.332 . S
C1243 C1242 1.382 . S
C1243 H1254 0.952 . S
C1244 C1241 1.388 . S
C1244 C1245 1.382 . S
C1244 H1269 0.950 . S
C1245 N1240 1.332 . S
C1245 C1244 1.382 . S
C1245 H1255 0.948 . S
N1246 Co1224 2.282 . S
N1246 C1250 1.332 . S
N1246 C1251 1.332 . S
C1247 C1248 1.388 . S
C1247 C1251 1.382 . S
C1247 H1270 0.950 . S
C1248 C1247 1.388 . S
C1248 C1249 1.386 . S
C1249 C1248 1.386 . S
C1249 C1250 1.382 . S
C1249 H1271 0.950 . S
C1250 N1246 1.332 . S
C1250 C1249 1.382 . S
C1250 H1252 0.952 . S
C1251 N1246 1.332 . S
C1251 C1247 1.382 . S
C1251 H1253 0.948 . S
H1252 C1250 0.952 . S
H1253 C1251 0.948 . S
H1254 C1243 0.952 . S
H1255 C1245 0.948 . S
C1256 C1222 1.395 . S
C1256 C1226 1.391 . S
C1257 C1219 1.389 . S
C1257 C1239 1.392 . S
C1258 C1229 1.392 . S
C1258 C1231 1.389 . S
C1259 C1234 1.395 . S
C1259 C1236 1.391 . S
H1260 C1220 0.951 . S
H1261 C1221 0.950 . S
H1262 C1227 0.949 . S
H1263 C1228 0.950 . S
H1264 C1232 0.951 . S
H1265 C1233 0.950 . S
H1266 C1237 0.949 . S
H1267 C1238 0.950 . S
H1268 C1242 0.950 . S
H1269 C1244 0.950 . S
H1270 C1247 0.950 . S
H1271 C1249 0.950 . S
C1272 C1273 1.369 . S
C1272 C1274 1.419 . S
C1272 H1276 0.930 . S
C1273 C1272 1.369 . S
C1273 C1282 1.429 . S
C1274 C1272 1.419 . S
C1274 C1275 1.363 . S
C1274 H1277 0.929 . S
C1275 C1274 1.363 . S
C1275 C1281 1.428 . S
H1276 C1272 0.930 . S
H1277 C1274 0.929 . S
S1278 N1279 1.613 . S
S1278 N1280 1.610 . S
N1279 S1278 1.613 . S
N1279 C1282 1.350 . S
N1280 S1278 1.610 . S
N1280 C1281 1.351 . S
C1281 C1275 1.428 . S
C1281 N1280 1.351 . S
C1281 C1282 1.434 . S
C1282 C1273 1.429 . S
C1282 N1279 1.350 . S
C1282 C1281 1.434 . S
C1283 C1284 1.369 . S
C1283 C1285 1.421 1_655 S
C1283 H1287 0.930 . S
C1284 C1283 1.369 . S
C1284 C1293 1.429 . S
C1285 C1283 1.421 1_455 S
C1285 C1286 1.362 . S
C1285 H1288 0.927 . S
C1286 C1285 1.362 . S
C1286 C1292 1.428 1_455 S
H1287 C1283 0.930 . S
H1288 C1285 0.927 . S
S1289 N1290 1.613 . S
S1289 N1291 1.610 . S
N1290 S1289 1.613 . S
N1290 C1293 1.350 . S
N1291 S1289 1.610 . S
N1291 C1292 1.351 . S
C1292 C1286 1.428 1_655 S
C1292 N1291 1.351 . S
C1292 C1293 1.434 . S
C1293 C1284 1.429 . S
C1293 N1290 1.350 . S
C1293 C1292 1.434 . S
C1294 C1295 1.369 . S
C1294 C1296 1.419 . S
C1294 H1298 0.930 . S
C1295 C1294 1.369 . S
C1295 C1304 1.429 . S
C1296 C1294 1.419 . S
C1296 C1297 1.363 . S
C1296 H1299 0.929 . S
C1297 C1296 1.363 . S
C1297 C1303 1.428 . S
H1298 C1294 0.930 . S
H1299 C1296 0.929 . S
S1300 N1301 1.613 . S
S1300 N1302 1.610 . S
N1301 S1300 1.613 . S
N1301 C1304 1.350 . S
N1302 S1300 1.610 . S
N1302 C1303 1.351 . S
C1303 C1297 1.428 . S
C1303 N1302 1.351 . S
C1303 C1304 1.434 . S
C1304 C1295 1.429 . S
C1304 N1301 1.350 . S
C1304 C1303 1.434 . S
C1305 C1306 1.369 . S
C1305 C1307 1.419 1_455 S
C1305 H1309 0.930 . S
C1306 C1305 1.369 . S
C1306 C1315 1.429 . S
C1307 C1305 1.419 1_655 S
C1307 C1308 1.363 . S
C1307 H1310 0.929 . S
C1308 C1307 1.363 . S
C1308 C1314 1.428 . S
H1309 C1305 0.930 . S
H1310 C1307 0.929 . S
S1311 N1312 1.613 . S
S1311 N1313 1.610 1_455 S
N1312 S1311 1.613 . S
N1312 C1315 1.350 . S
N1313 S1311 1.610 1_655 S
N1313 C1314 1.351 . S
C1314 C1308 1.428 . S
C1314 N1313 1.351 . S
C1314 C1315 1.434 1_655 S
C1315 C1306 1.429 . S
C1315 N1312 1.350 . S
C1315 C1314 1.434 1_455 S
C1316 C1317 1.369 . S
C1316 C1318 1.419 . S
C1316 H1320 0.930 . S
C1317 C1316 1.369 . S
C1317 C1326 1.429 . S
C1318 C1316 1.419 . S
C1318 C1319 1.363 . S
C1318 H1321 0.929 . S
C1319 C1318 1.363 . S
C1319 C1325 1.428 . S
H1320 C1316 0.930 . S
H1321 C1318 0.929 . S
S1322 N1323 1.613 . S
S1322 N1324 1.610 . S
N1323 S1322 1.613 . S
N1323 C1326 1.350 . S
N1324 S1322 1.610 . S
N1324 C1325 1.351 . S
C1325 C1319 1.428 . S
C1325 N1324 1.351 . S
C1325 C1326 1.434 . S
C1326 C1317 1.429 . S
C1326 N1323 1.350 . S
C1326 C1325 1.434 . S
C1327 C1328 1.369 . S
C1327 C1329 1.419 1_655 S
C1327 H1331 0.930 . S
C1328 C1327 1.369 . S
C1328 C1337 1.429 . S
C1329 C1327 1.419 1_455 S
C1329 C1330 1.363 . S
C1329 H1332 0.929 . S
C1330 C1329 1.363 . S
C1330 C1336 1.428 . S
H1331 C1327 0.930 . S
H1332 C1329 0.929 . S
S1333 N1334 1.613 1_455 S
S1333 N1335 1.610 . S
N1334 S1333 1.613 1_655 S
N1334 C1337 1.350 . S
N1335 S1333 1.610 . S
N1335 C1336 1.351 . S
C1336 C1330 1.428 . S
C1336 N1335 1.351 . S
C1336 C1337 1.434 1_455 S
C1337 C1328 1.429 . S
C1337 N1334 1.350 . S
C1337 C1336 1.434 1_655 S
C1338 C1339 1.369 . S
C1338 C1340 1.419 . S
C1338 H1342 0.930 . S
C1339 C1338 1.369 . S
C1339 C1348 1.429 . S
C1340 C1338 1.419 . S
C1340 C1341 1.363 . S
C1340 H1343 0.929 . S
C1341 C1340 1.363 . S
C1341 C1347 1.428 . S
H1342 C1338 0.930 . S
H1343 C1340 0.929 . S
S1344 N1345 1.613 . S
S1344 N1346 1.610 . S
N1345 S1344 1.613 . S
N1345 C1348 1.350 . S
N1346 S1344 1.610 . S
N1346 C1347 1.351 . S
C1347 C1341 1.428 . S
C1347 N1346 1.351 . S
C1347 C1348 1.434 . S
C1348 C1339 1.429 . S
C1348 N1345 1.350 . S
C1348 C1347 1.434 . S
C1349 C1350 1.369 . S
C1349 C1351 1.419 1_655 S
C1349 H1353 0.930 . S
C1350 C1349 1.369 . S
C1350 C1359 1.429 . S
C1351 C1349 1.419 1_455 S
C1351 C1352 1.363 . S
C1351 H1354 0.929 . S
C1352 C1351 1.363 . S
C1352 C1358 1.428 . S
H1353 C1349 0.930 . S
H1354 C1351 0.929 . S
S1355 N1356 1.613 1_455 S
S1355 N1357 1.610 . S
N1356 S1355 1.613 1_655 S
N1356 C1359 1.350 . S
N1357 S1355 1.610 . S
N1357 C1358 1.351 . S
C1358 C1352 1.428 . S
C1358 N1357 1.351 . S
C1358 C1359 1.434 1_455 S
C1359 C1350 1.429 . S
C1359 N1356 1.350 . S
C1359 C1358 1.434 1_655 S
C1360 C1361 1.369 . S
C1360 C1362 1.419 . S
C1360 H1364 0.930 . S
C1361 C1360 1.369 . S
C1361 C1370 1.429 . S
C1362 C1360 1.419 . S
C1362 C1363 1.363 . S
C1362 H1365 0.929 . S
C1363 C1362 1.363 . S
C1363 C1369 1.428 . S
H1364 C1360 0.930 . S
H1365 C1362 0.929 . S
S1366 N1367 1.613 . S
S1366 N1368 1.610 . S
N1367 S1366 1.613 . S
N1367 C1370 1.350 . S
N1368 S1366 1.610 . S
N1368 C1369 1.351 . S
C1369 C1363 1.428 . S
C1369 N1368 1.351 . S
C1369 C1370 1.434 . S
C1370 C1361 1.429 . S
C1370 N1367 1.350 . S
C1370 C1369 1.434 . S
C1371 C1372 1.369 . S
C1371 C1373 1.419 1_556 S
C1371 H1375 0.930 . S
C1372 C1371 1.369 . S
C1372 C1381 1.429 . S
C1373 C1371 1.419 1_554 S
C1373 C1374 1.363 . S
C1373 H1376 0.929 . S
C1374 C1373 1.363 . S
C1374 C1380 1.428 . S
H1375 C1371 0.930 . S
H1376 C1373 0.929 . S
S1377 N1378 1.613 . S
S1377 N1379 1.610 1_556 S
N1378 S1377 1.613 . S
N1378 C1381 1.350 . S
N1379 S1377 1.610 1_554 S
N1379 C1380 1.351 . S
C1380 C1374 1.428 . S
C1380 N1379 1.351 . S
C1380 C1381 1.434 1_554 S
C1381 C1372 1.429 . S
C1381 N1378 1.350 . S
C1381 C1380 1.434 1_556 S
C1382 C1383 1.369 . S
C1382 C1384 1.419 . S
C1382 H1386 0.930 . S
C1383 C1382 1.369 . S
C1383 C1392 1.429 . S
C1384 C1382 1.419 . S
C1384 C1385 1.363 . S
C1384 H1387 0.929 . S
C1385 C1384 1.363 . S
C1385 C1391 1.428 . S
H1386 C1382 0.930 . S
H1387 C1384 0.929 . S
S1388 N1389 1.613 . S
S1388 N1390 1.610 . S
N1389 S1388 1.613 . S
N1389 C1392 1.350 . S
N1390 S1388 1.610 . S
N1390 C1391 1.351 . S
C1391 C1385 1.428 . S
C1391 N1390 1.351 . S
C1391 C1392 1.434 . S
C1392 C1383 1.429 . S
C1392 N1389 1.350 . S
C1392 C1391 1.434 . S
C1393 C1394 1.369 . S
C1393 C1395 1.419 1_554 S
C1393 H1397 0.930 . S
C1394 C1393 1.369 . S
C1394 C1403 1.429 . S
C1395 C1393 1.419 1_556 S
C1395 C1396 1.363 . S
C1395 H1398 0.929 . S
C1396 C1395 1.363 . S
C1396 C1402 1.428 . S
H1397 C1393 0.930 . S
H1398 C1395 0.929 . S
S1399 N1400 1.613 . S
S1399 N1401 1.610 1_554 S
N1400 S1399 1.613 . S
N1400 C1403 1.350 . S
N1401 S1399 1.610 1_556 S
N1401 C1402 1.351 . S
C1402 C1396 1.428 . S
C1402 N1401 1.351 . S
C1402 C1403 1.434 1_556 S
C1403 C1394 1.429 . S
C1403 N1400 1.350 . S
C1403 C1402 1.434 1_554 S
C1404 C1405 1.369 . S
C1404 C1406 1.419 . S
C1404 H1408 0.930 . S
C1405 C1404 1.369 . S
C1405 C1414 1.429 . S
C1406 C1404 1.419 . S
C1406 C1407 1.363 . S
C1406 H1409 0.929 . S
C1407 C1406 1.363 . S
C1407 C1413 1.428 . S
H1408 C1404 0.930 . S
H1409 C1406 0.929 . S
S1410 N1411 1.613 . S
S1410 N1412 1.610 . S
N1411 S1410 1.613 . S
N1411 C1414 1.350 . S
N1412 S1410 1.610 . S
N1412 C1413 1.351 . S
C1413 C1407 1.428 . S
C1413 N1412 1.351 . S
C1413 C1414 1.434 . S
C1414 C1405 1.429 . S
C1414 N1411 1.350 . S
C1414 C1413 1.434 . S
C1415 C1416 1.369 . S
C1415 C1417 1.419 1_554 S
C1415 H1419 0.930 . S
C1416 C1415 1.369 . S
C1416 C1425 1.429 . S
C1417 C1415 1.419 1_556 S
C1417 C1418 1.363 . S
C1417 H1420 0.929 . S
C1418 C1417 1.363 . S
C1418 C1424 1.428 . S
H1419 C1415 0.930 . S
H1420 C1417 0.929 . S
S1421 N1422 1.613 1_556 S
S1421 N1423 1.610 . S
N1422 S1421 1.613 1_554 S
N1422 C1425 1.350 . S
N1423 S1421 1.610 . S
N1423 C1424 1.351 . S
C1424 C1418 1.428 . S
C1424 N1423 1.351 . S
C1424 C1425 1.434 1_556 S
C1425 C1416 1.429 . S
C1425 N1422 1.350 . S
C1425 C1424 1.434 1_554 S
C1426 C1427 1.369 . S
C1426 C1428 1.419 . S
C1426 H1430 0.930 . S
C1427 C1426 1.369 . S
C1427 C1436 1.429 . S
C1428 C1426 1.419 . S
C1428 C1429 1.363 . S
C1428 H1431 0.929 . S
C1429 C1428 1.363 . S
C1429 C1435 1.428 . S
H1430 C1426 0.930 . S
H1431 C1428 0.929 . S
S1432 N1433 1.613 . S
S1432 N1434 1.610 . S
N1433 S1432 1.613 . S
N1433 C1436 1.350 . S
N1434 S1432 1.610 . S
N1434 C1435 1.351 . S
C1435 C1429 1.428 . S
C1435 N1434 1.351 . S
C1435 C1436 1.434 . S
C1436 C1427 1.429 . S
C1436 N1433 1.350 . S
C1436 C1435 1.434 . S
C1437 C1438 1.369 . S
C1437 C1439 1.419 . S
C1437 H1441 0.930 . S
C1438 C1437 1.369 . S
C1438 C1447 1.429 . S
C1439 C1437 1.419 . S
C1439 C1440 1.363 1_554 S
C1439 H1442 0.929 . S
C1440 C1439 1.363 1_556 S
C1440 C1446 1.428 . S
H1441 C1437 0.930 . S
H1442 C1439 0.929 . S
S1443 N1444 1.613 1_556 S
S1443 N1445 1.610 . S
N1444 S1443 1.613 1_554 S
N1444 C1447 1.350 . S
N1445 S1443 1.610 . S
N1445 C1446 1.351 . S
C1446 C1440 1.428 . S
C1446 N1445 1.351 . S
C1446 C1447 1.434 1_556 S
C1447 C1438 1.429 . S
C1447 N1444 1.350 . S
C1447 C1446 1.434 1_554 S
C1448 C1449 1.369 . S
C1448 C1450 1.419 . S
C1448 H1452 0.930 . S
C1449 C1448 1.369 . S
C1449 C1458 1.429 . S
C1450 C1448 1.419 . S
C1450 C1451 1.363 . S
C1450 H1453 0.929 . S
C1451 C1450 1.363 . S
C1451 C1457 1.428 . S
H1452 C1448 0.930 . S
H1453 C1450 0.929 . S
S1454 N1455 1.613 . S
S1454 N1456 1.610 . S
N1455 S1454 1.613 . S
N1455 C1458 1.350 . S
N1456 S1454 1.610 . S
N1456 C1457 1.351 . S
C1457 C1451 1.428 . S
C1457 N1456 1.351 . S
C1457 C1458 1.434 . S
C1458 C1449 1.429 . S
C1458 N1455 1.350 . S
C1458 C1457 1.434 . S
C1459 C1460 1.369 . S
C1459 C1461 1.419 . S
C1459 H1463 0.930 . S
C1460 C1459 1.369 . S
C1460 C1469 1.429 . S
C1461 C1459 1.419 . S
C1461 C1462 1.363 . S
C1461 H1464 0.929 . S
C1462 C1461 1.363 . S
C1462 C1468 1.428 . S
H1463 C1459 0.930 . S
H1464 C1461 0.929 . S
S1465 N1466 1.613 . S
S1465 N1467 1.610 . S
N1466 S1465 1.613 . S
N1466 C1469 1.350 . S
N1467 S1465 1.610 . S
N1467 C1468 1.351 . S
C1468 C1462 1.428 . S
C1468 N1467 1.351 . S
C1468 C1469 1.434 . S
C1469 C1460 1.429 . S
C1469 N1466 1.350 . S
C1469 C1468 1.434 . S
C1470 C1471 1.369 . S
C1470 C1472 1.419 1_565 S
C1470 H1474 0.930 . S
C1471 C1470 1.369 . S
C1471 C1480 1.429 . S
C1472 C1470 1.419 1_545 S
C1472 C1473 1.363 . S
C1472 H1475 0.929 . S
C1473 C1472 1.363 . S
C1473 C1479 1.428 . S
H1474 C1470 0.930 . S
H1475 C1472 0.929 . S
S1476 N1477 1.613 . S
S1476 N1478 1.610 1_565 S
N1477 S1476 1.613 . S
N1477 C1480 1.350 . S
N1478 S1476 1.610 1_545 S
N1478 C1479 1.351 . S
C1479 C1473 1.428 . S
C1479 N1478 1.351 . S
C1479 C1480 1.434 1_545 S
C1480 C1471 1.429 . S
C1480 N1477 1.350 . S
C1480 C1479 1.434 1_565 S
C1481 C1482 1.369 . S
C1481 C1483 1.419 . S
C1481 H1485 0.930 . S
C1482 C1481 1.369 . S
C1482 C1491 1.429 . S
C1483 C1481 1.419 . S
C1483 C1484 1.363 . S
C1483 H1486 0.929 . S
C1484 C1483 1.363 . S
C1484 C1490 1.428 . S
H1485 C1481 0.930 . S
H1486 C1483 0.929 . S
S1487 N1488 1.613 . S
S1487 N1489 1.610 . S
N1488 S1487 1.613 . S
N1488 C1491 1.350 . S
N1489 S1487 1.610 . S
N1489 C1490 1.351 . S
C1490 C1484 1.428 . S
C1490 N1489 1.351 . S
C1490 C1491 1.434 . S
C1491 C1482 1.429 . S
C1491 N1488 1.350 . S
C1491 C1490 1.434 . S
C1492 C1493 1.369 . S
C1492 C1494 1.419 1_565 S
C1492 H1496 0.930 . S
C1493 C1492 1.369 . S
C1493 C1502 1.429 . S
C1494 C1492 1.419 1_545 S
C1494 C1495 1.363 . S
C1494 H1497 0.929 . S
C1495 C1494 1.363 . S
C1495 C1501 1.428 . S
H1496 C1492 0.930 . S
H1497 C1494 0.929 . S
S1498 N1499 1.613 . S
S1498 N1500 1.610 1_565 S
N1499 S1498 1.613 . S
N1499 C1502 1.350 . S
N1500 S1498 1.610 1_545 S
N1500 C1501 1.351 . S
C1501 C1495 1.428 . S
C1501 N1500 1.351 . S
C1501 C1502 1.434 1_545 S
C1502 C1493 1.429 . S
C1502 N1499 1.350 . S
C1502 C1501 1.434 1_565 S
C1503 C1504 1.369 . S
C1503 C1505 1.419 . S
C1503 H1507 0.930 . S
C1504 C1503 1.369 . S
C1504 C1513 1.429 . S
C1505 C1503 1.419 . S
C1505 C1506 1.363 . S
C1505 H1508 0.929 . S
C1506 C1505 1.363 . S
C1506 C1512 1.428 . S
H1507 C1503 0.930 . S
H1508 C1505 0.929 . S
S1509 N1510 1.613 . S
S1509 N1511 1.610 . S
N1510 S1509 1.613 . S
N1510 C1513 1.350 . S
N1511 S1509 1.610 . S
N1511 C1512 1.351 . S
C1512 C1506 1.428 . S
C1512 N1511 1.351 . S
C1512 C1513 1.434 . S
C1513 C1504 1.429 . S
C1513 N1510 1.350 . S
C1513 C1512 1.434 . S
C1514 C1515 1.369 . S
C1514 C1516 1.419 1_565 S
C1514 H1518 0.930 . S
C1515 C1514 1.369 . S
C1515 C1524 1.429 . S
C1516 C1514 1.419 1_545 S
C1516 C1517 1.363 . S
C1516 H1519 0.929 . S
C1517 C1516 1.363 . S
C1517 C1523 1.458 . S
H1518 C1514 0.930 . S
H1519 C1516 0.929 . S
S1520 N1521 1.613 . S
S1520 N1522 1.610 1_565 S
N1521 S1520 1.613 . S
N1521 C1524 1.350 . S
N1522 S1520 1.610 1_545 S
N1522 C1523 1.360 . S
C1523 C1517 1.458 . S
C1523 N1522 1.360 . S
C1523 C1524 1.392 1_545 S
C1524 C1515 1.429 . S
C1524 N1521 1.350 . S
C1524 C1523 1.392 1_565 S
C1525 C1526 1.369 . S
C1525 C1527 1.419 1_545 S
C1525 H1529 0.930 . S
C1526 C1525 1.369 . S
C1526 C1535 1.429 . S
C1527 C1525 1.419 1_565 S
C1527 C1528 1.363 . S
C1527 H1530 0.929 . S
C1528 C1527 1.363 . S
C1528 C1534 1.428 . S
H1529 C1525 0.930 . S
H1530 C1527 0.929 . S
S1531 N1532 1.613 . S
S1531 N1533 1.610 1_545 S
N1532 S1531 1.613 . S
N1532 C1535 1.350 . S
N1533 S1531 1.610 1_565 S
N1533 C1534 1.351 . S
C1534 C1528 1.428 . S
C1534 N1533 1.351 . S
C1534 C1535 1.434 1_565 S
C1535 C1526 1.429 . S
C1535 N1532 1.350 . S
C1535 C1534 1.434 1_545 S
C1536 C1537 1.369 . S
C1536 C1538 1.419 . S
C1536 H1540 0.930 . S
C1537 C1536 1.369 . S
C1537 C1546 1.429 . S
C1538 C1536 1.419 . S
C1538 C1539 1.363 . S
C1538 H1541 0.929 . S
C1539 C1538 1.363 . S
C1539 C1545 1.428 . S
H1540 C1536 0.930 . S
H1541 C1538 0.929 . S
S1542 N1543 1.613 . S
S1542 N1544 1.610 . S
N1543 S1542 1.613 . S
N1543 C1546 1.350 . S
N1544 S1542 1.610 . S
N1544 C1545 1.351 . S
C1545 C1539 1.428 . S
C1545 N1544 1.351 . S
C1545 C1546 1.434 . S
C1546 C1537 1.429 . S
C1546 N1543 1.350 . S
C1546 C1545 1.434 . S
C1547 C1548 1.369 . S
C1547 C1549 1.419 . S
C1547 H1551 0.930 . S
C1548 C1547 1.369 . S
C1548 C1557 1.429 . S
C1549 C1547 1.419 . S
C1549 C1550 1.363 . S
C1549 H1552 0.929 . S
C1550 C1549 1.363 . S
C1550 C1556 1.428 . S
H1551 C1547 0.930 . S
H1552 C1549 0.929 . S
S1553 N1554 1.613 . S
S1553 N1555 1.610 . S
N1554 S1553 1.613 . S
N1554 C1557 1.350 . S
N1555 S1553 1.610 . S
N1555 C1556 1.351 . S
C1556 C1550 1.428 . S
C1556 N1555 1.351 . S
C1556 C1557 1.434 . S
C1557 C1548 1.429 . S
C1557 N1554 1.350 . S
C1557 C1556 1.434 . S
C1558 C1559 1.369 . S
C1558 C1560 1.419 . S
C1558 H1562 0.930 . S
C1559 C1558 1.369 . S
C1559 C1568 1.429 . S
C1560 C1558 1.419 . S
C1560 C1561 1.363 . S
C1560 H1563 0.929 . S
C1561 C1560 1.363 . S
C1561 C1567 1.428 . S
H1562 C1558 0.930 . S
H1563 C1560 0.929 . S
S1564 N1565 1.613 . S
S1564 N1566 1.610 . S
N1565 S1564 1.613 . S
N1565 C1568 1.350 . S
N1566 S1564 1.610 . S
N1566 C1567 1.351 . S
C1567 C1561 1.428 . S
C1567 N1566 1.351 . S
C1567 C1568 1.434 . S
C1568 C1559 1.429 . S
C1568 N1565 1.350 . S
C1568 C1567 1.434 . S
C1569 C1570 1.369 . S
C1569 C1571 1.419 . S
C1569 H1573 0.930 . S
C1570 C1569 1.369 . S
C1570 C1579 1.429 . S
C1571 C1569 1.419 . S
C1571 C1572 1.363 . S
C1571 H1574 0.929 . S
C1572 C1571 1.363 . S
C1572 C1578 1.428 . S
H1573 C1569 0.930 . S
H1574 C1571 0.929 . S
S1575 N1576 1.613 . S
S1575 N1577 1.610 . S
N1576 S1575 1.613 . S
N1576 C1579 1.350 . S
N1577 S1575 1.610 . S
N1577 C1578 1.351 . S
C1578 C1572 1.428 . S
C1578 N1577 1.351 . S
C1578 C1579 1.434 . S
C1579 C1570 1.429 . S
C1579 N1576 1.350 . S
C1579 C1578 1.434 . S
C1580 C1581 1.369 . S
C1580 C1582 1.419 . S
C1580 H1584 0.930 . S
C1581 C1580 1.369 . S
C1581 C1590 1.429 . S
C1582 C1580 1.419 . S
C1582 C1583 1.363 . S
C1582 H1585 0.929 . S
C1583 C1582 1.363 . S
C1583 C1589 1.428 . S
H1584 C1580 0.930 . S
H1585 C1582 0.929 . S
S1586 N1587 1.613 . S
S1586 N1588 1.610 . S
N1587 S1586 1.613 . S
N1587 C1590 1.350 . S
N1588 S1586 1.610 . S
N1588 C1589 1.351 . S
C1589 C1583 1.428 . S
C1589 N1588 1.351 . S
C1589 C1590 1.434 . S
C1590 C1581 1.429 . S
C1590 N1587 1.350 . S
C1590 C1589 1.434 . S
C1591 C1592 1.369 . S
C1591 C1593 1.419 . S
C1591 H1595 0.930 . S
C1592 C1591 1.369 . S
C1592 C1601 1.429 . S
C1593 C1591 1.419 . S
C1593 C1594 1.363 . S
C1593 H1596 0.929 . S
C1594 C1593 1.363 . S
C1594 C1600 1.428 . S
H1595 C1591 0.930 . S
H1596 C1593 0.929 . S
S1597 N1598 1.613 . S
S1597 N1599 1.610 . S
N1598 S1597 1.613 . S
N1598 C1601 1.350 . S
N1599 S1597 1.610 . S
N1599 C1600 1.351 . S
C1600 C1594 1.428 . S
C1600 N1599 1.351 . S
C1600 C1601 1.434 . S
C1601 C1592 1.429 . S
C1601 N1598 1.350 . S
C1601 C1600 1.434 . S
C1602 C1603 1.369 . S
C1602 C1604 1.419 . S
C1602 H1606 0.930 . S
C1603 C1602 1.369 . S
C1603 C1612 1.429 . S
C1604 C1602 1.419 . S
C1604 C1605 1.363 . S
C1604 H1607 0.929 . S
C1605 C1604 1.363 . S
C1605 C1611 1.428 . S
H1606 C1602 0.930 . S
H1607 C1604 0.929 . S
S1608 N1609 1.613 . S
S1608 N1610 1.610 . S
N1609 S1608 1.613 . S
N1609 C1612 1.350 . S
N1610 S1608 1.610 . S
N1610 C1611 1.351 . S
C1611 C1605 1.428 . S
C1611 N1610 1.351 . S
C1611 C1612 1.434 . S
C1612 C1603 1.429 . S
C1612 N1609 1.350 . S
C1612 C1611 1.434 . S
C1613 C1614 1.369 . S
C1613 C1615 1.419 . S
C1613 H1617 0.930 . S
C1614 C1613 1.369 . S
C1614 C1623 1.429 . S
C1615 C1613 1.419 . S
C1615 C1616 1.363 . S
C1615 H1618 0.929 . S
C1616 C1615 1.363 . S
C1616 C1622 1.428 . S
H1617 C1613 0.930 . S
H1618 C1615 0.929 . S
S1619 N1620 1.613 . S
S1619 N1621 1.610 . S
N1620 S1619 1.613 . S
N1620 C1623 1.350 . S
N1621 S1619 1.610 . S
N1621 C1622 1.351 . S
C1622 C1616 1.428 . S
C1622 N1621 1.351 . S
C1622 C1623 1.434 . S
C1623 C1614 1.429 . S
C1623 N1620 1.350 . S
C1623 C1622 1.434 . S
C1624 C1625 1.369 . S
C1624 C1626 1.419 . S
C1624 H1628 0.930 . S
C1625 C1624 1.369 . S
C1625 C1634 1.429 . S
C1626 C1624 1.419 . S
C1626 C1627 1.363 . S
C1626 H1629 0.929 . S
C1627 C1626 1.363 . S
C1627 C1633 1.428 . S
H1628 C1624 0.930 . S
H1629 C1626 0.929 . S
S1630 N1631 1.613 . S
S1630 N1632 1.610 . S
N1631 S1630 1.613 . S
N1631 C1634 1.350 . S
N1632 S1630 1.610 . S
N1632 C1633 1.351 . S
C1633 C1627 1.428 . S
C1633 N1632 1.351 . S
C1633 C1634 1.434 . S
C1634 C1625 1.429 . S
C1634 N1631 1.350 . S
C1634 C1633 1.434 . S
C1635 C1636 1.369 . S
C1635 C1637 1.419 . S
C1635 H1639 0.930 . S
C1636 C1635 1.369 . S
C1636 C1645 1.429 . S
C1637 C1635 1.419 . S
C1637 C1638 1.363 . S
C1637 H1640 0.929 . S
C1638 C1637 1.363 . S
C1638 C1644 1.428 . S
H1639 C1635 0.930 . S
H1640 C1637 0.929 . S
S1641 N1642 1.613 . S
S1641 N1643 1.610 . S
N1642 S1641 1.613 . S
N1642 C1645 1.350 . S
N1643 S1641 1.610 . S
N1643 C1644 1.351 . S
C1644 C1638 1.428 . S
C1644 N1643 1.351 . S
C1644 C1645 1.434 . S
C1645 C1636 1.429 . S
C1645 N1642 1.350 . S
C1645 C1644 1.434 . S
C1646 C1647 1.369 . S
C1646 C1648 1.419 . S
C1646 H1650 0.930 . S
C1647 C1646 1.369 . S
C1647 C1656 1.429 . S
C1648 C1646 1.419 . S
C1648 C1649 1.363 . S
C1648 H1651 0.929 . S
C1649 C1648 1.363 . S
C1649 C1655 1.428 . S
H1650 C1646 0.930 . S
H1651 C1648 0.929 . S
S1652 N1653 1.613 . S
S1652 N1654 1.610 . S
N1653 S1652 1.613 . S
N1653 C1656 1.350 . S
N1654 S1652 1.610 . S
N1654 C1655 1.351 . S
C1655 C1649 1.428 . S
C1655 N1654 1.351 . S
C1655 C1656 1.434 . S
C1656 C1647 1.429 . S
C1656 N1653 1.350 . S
C1656 C1655 1.434 . S
C1657 C1658 1.369 . S
C1657 C1659 1.419 . S
C1657 H1661 0.930 . S
C1658 C1657 1.369 . S
C1658 C1667 1.429 . S
C1659 C1657 1.419 . S
C1659 C1660 1.363 . S
C1659 H1662 0.929 . S
C1660 C1659 1.363 . S
C1660 C1666 1.428 . S
H1661 C1657 0.930 . S
H1662 C1659 0.929 . S
S1663 N1664 1.613 . S
S1663 N1665 1.610 . S
N1664 S1663 1.613 . S
N1664 C1667 1.350 . S
N1665 S1663 1.610 . S
N1665 C1666 1.351 . S
C1666 C1660 1.428 . S
C1666 N1665 1.351 . S
C1666 C1667 1.434 . S
C1667 C1658 1.429 . S
C1667 N1664 1.350 . S
C1667 C1666 1.434 . S
C1668 C1669 1.369 . S
C1668 C1670 1.419 . S
C1668 H1672 0.930 . S
C1669 C1668 1.369 . S
C1669 C1678 1.429 . S
C1670 C1668 1.419 . S
C1670 C1671 1.363 . S
C1670 H1673 0.929 . S
C1671 C1670 1.363 . S
C1671 C1677 1.428 . S
H1672 C1668 0.930 . S
H1673 C1670 0.929 . S
S1674 N1675 1.613 . S
S1674 N1676 1.610 . S
N1675 S1674 1.613 . S
N1675 C1678 1.350 . S
N1676 S1674 1.610 . S
N1676 C1677 1.351 . S
C1677 C1671 1.428 . S
C1677 N1676 1.351 . S
C1677 C1678 1.434 . S
C1678 C1669 1.429 . S
C1678 N1675 1.350 . S
C1678 C1677 1.434 . S
C1679 C1680 1.369 . S
C1679 C1681 1.419 . S
C1679 H1683 0.930 . S
C1680 C1679 1.369 . S
C1680 C1689 1.429 . S
C1681 C1679 1.419 . S
C1681 C1682 1.363 . S
C1681 H1684 0.929 . S
C1682 C1681 1.363 . S
C1682 C1688 1.428 . S
H1683 C1679 0.930 . S
H1684 C1681 0.929 . S
S1685 N1686 1.613 . S
S1685 N1687 1.610 . S
N1686 S1685 1.613 . S
N1686 C1689 1.350 . S
N1687 S1685 1.610 . S
N1687 C1688 1.351 . S
C1688 C1682 1.428 . S
C1688 N1687 1.351 . S
C1688 C1689 1.434 . S
C1689 C1680 1.429 . S
C1689 N1686 1.350 . S
C1689 C1688 1.434 . S
C1690 C1691 1.369 . S
C1690 C1692 1.419 . S
C1690 H1694 0.930 . S
C1691 C1690 1.369 . S
C1691 C1700 1.429 . S
C1692 C1690 1.419 . S
C1692 C1693 1.363 . S
C1692 H1695 0.929 . S
C1693 C1692 1.363 . S
C1693 C1699 1.428 . S
H1694 C1690 0.930 . S
H1695 C1692 0.929 . S
S1696 N1697 1.613 . S
S1696 N1698 1.610 . S
N1697 S1696 1.613 . S
N1697 C1700 1.350 . S
N1698 S1696 1.610 . S
N1698 C1699 1.351 . S
C1699 C1693 1.428 . S
C1699 N1698 1.351 . S
C1699 C1700 1.434 . S
C1700 C1691 1.429 . S
C1700 N1697 1.350 . S
C1700 C1699 1.434 . S
C1701 C1702 1.369 . S
C1701 C1703 1.419 . S
C1701 H1705 0.930 . S
C1702 C1701 1.369 . S
C1702 C1711 1.429 . S
C1703 C1701 1.419 . S
C1703 C1704 1.363 . S
C1703 H1706 0.929 . S
C1704 C1703 1.363 . S
C1704 C1710 1.428 . S
H1705 C1701 0.930 . S
H1706 C1703 0.929 . S
S1707 N1708 1.613 . S
S1707 N1709 1.610 . S
N1708 S1707 1.613 . S
N1708 C1711 1.350 . S
N1709 S1707 1.610 . S
N1709 C1710 1.351 . S
C1710 C1704 1.428 . S
C1710 N1709 1.351 . S
C1710 C1711 1.434 . S
C1711 C1702 1.429 . S
C1711 N1708 1.350 . S
C1711 C1710 1.434 . S
C1712 C1713 1.369 . S
C1712 C1714 1.419 . S
C1712 H1716 0.930 . S
C1713 C1712 1.369 . S
C1713 C1722 1.429 . S
C1714 C1712 1.419 . S
C1714 C1715 1.363 . S
C1714 H1717 0.929 . S
C1715 C1714 1.363 . S
C1715 C1721 1.428 . S
H1716 C1712 0.930 . S
H1717 C1714 0.929 . S
S1718 N1719 1.613 . S
S1718 N1720 1.610 . S
N1719 S1718 1.613 . S
N1719 C1722 1.350 . S
N1720 S1718 1.610 . S
N1720 C1721 1.351 . S
C1721 C1715 1.428 . S
C1721 N1720 1.351 . S
C1721 C1722 1.434 . S
C1722 C1713 1.429 . S
C1722 N1719 1.350 . S
C1722 C1721 1.434 . S
C1723 C1724 1.369 . S
C1723 C1725 1.419 . S
C1723 H1727 0.930 . S
C1724 C1723 1.369 . S
C1724 C1733 1.429 . S
C1725 C1723 1.419 . S
C1725 C1726 1.363 . S
C1725 H1728 0.929 . S
C1726 C1725 1.363 . S
C1726 C1732 1.428 . S
H1727 C1723 0.930 . S
H1728 C1725 0.929 . S
S1729 N1730 1.613 . S
S1729 N1731 1.610 . S
N1730 S1729 1.613 . S
N1730 C1733 1.350 . S
N1731 S1729 1.610 . S
N1731 C1732 1.351 . S
C1732 C1726 1.428 . S
C1732 N1731 1.351 . S
C1732 C1733 1.434 . S
C1733 C1724 1.429 . S
C1733 N1730 1.350 . S
C1733 C1732 1.434 . S
C1734 C1735 1.369 . S
C1734 C1736 1.419 . S
C1734 H1738 0.930 . S
C1735 C1734 1.369 . S
C1735 C1744 1.429 . S
C1736 C1734 1.419 . S
C1736 C1737 1.363 . S
C1736 H1739 0.929 . S
C1737 C1736 1.363 . S
C1737 C1743 1.428 . S
H1738 C1734 0.930 . S
H1739 C1736 0.929 . S
S1740 N1741 1.613 . S
S1740 N1742 1.610 . S
N1741 S1740 1.613 . S
N1741 C1744 1.350 . S
N1742 S1740 1.610 . S
N1742 C1743 1.351 . S
C1743 C1737 1.428 . S
C1743 N1742 1.351 . S
C1743 C1744 1.434 . S
C1744 C1735 1.429 . S
C1744 N1741 1.350 . S
C1744 C1743 1.434 . S
C1745 C1746 1.369 . S
C1745 C1747 1.419 . S
C1745 H1749 0.930 . S
C1746 C1745 1.369 . S
C1746 C1755 1.429 . S
C1747 C1745 1.419 . S
C1747 C1748 1.363 . S
C1747 H1750 0.929 . S
C1748 C1747 1.363 . S
C1748 C1754 1.428 . S
H1749 C1745 0.930 . S
H1750 C1747 0.929 . S
S1751 N1752 1.613 . S
S1751 N1753 1.610 . S
N1752 S1751 1.613 . S
N1752 C1755 1.350 . S
N1753 S1751 1.610 . S
N1753 C1754 1.351 . S
C1754 C1748 1.428 . S
C1754 N1753 1.351 . S
C1754 C1755 1.434 . S
C1755 C1746 1.429 . S
C1755 N1752 1.350 . S
C1755 C1754 1.434 . S
C1756 C1757 1.369 . S
C1756 C1758 1.419 . S
C1756 H1760 0.930 . S
C1757 C1756 1.369 . S
C1757 C1766 1.429 . S
C1758 C1756 1.419 . S
C1758 C1759 1.363 . S
C1758 H1761 0.929 . S
C1759 C1758 1.363 . S
C1759 C1765 1.428 . S
H1760 C1756 0.930 . S
H1761 C1758 0.929 . S
S1762 N1763 1.613 . S
S1762 N1764 1.610 . S
N1763 S1762 1.613 . S
N1763 C1766 1.350 . S
N1764 S1762 1.610 . S
N1764 C1765 1.351 . S
C1765 C1759 1.428 . S
C1765 N1764 1.351 . S
C1765 C1766 1.434 . S
C1766 C1757 1.429 . S
C1766 N1763 1.350 . S
C1766 C1765 1.434 . S
C1767 C1768 1.369 . S
C1767 C1769 1.419 . S
C1767 H1771 0.930 . S
C1768 C1767 1.369 . S
C1768 C1777 1.429 . S
C1769 C1767 1.419 . S
C1769 C1770 1.363 . S
C1769 H1772 0.929 . S
C1770 C1769 1.363 . S
C1770 C1776 1.428 . S
H1771 C1767 0.930 . S
H1772 C1769 0.929 . S
S1773 N1774 1.613 . S
S1773 N1775 1.610 . S
N1774 S1773 1.613 . S
N1774 C1777 1.350 . S
N1775 S1773 1.610 . S
N1775 C1776 1.351 . S
C1776 C1770 1.428 . S
C1776 N1775 1.351 . S
C1776 C1777 1.434 . S
C1777 C1768 1.429 . S
C1777 N1774 1.350 . S
C1777 C1776 1.434 . S
C1778 C1779 1.369 . S
C1778 C1780 1.419 . S
C1778 H1782 0.930 . S
C1779 C1778 1.369 . S
C1779 C1788 1.429 . S
C1780 C1778 1.419 . S
C1780 C1781 1.363 . S
C1780 H1783 0.929 . S
C1781 C1780 1.363 . S
C1781 C1787 1.428 . S
H1782 C1778 0.930 . S
H1783 C1780 0.929 . S
S1784 N1785 1.613 . S
S1784 N1786 1.610 . S
N1785 S1784 1.613 . S
N1785 C1788 1.350 . S
N1786 S1784 1.610 . S
N1786 C1787 1.351 . S
C1787 C1781 1.428 . S
C1787 N1786 1.351 . S
C1787 C1788 1.434 . S
C1788 C1779 1.429 . S
C1788 N1785 1.350 . S
C1788 C1787 1.434 . S
C1789 C1790 1.369 . S
C1789 C1791 1.419 . S
C1789 H1793 0.930 . S
C1790 C1789 1.369 . S
C1790 C1799 1.429 . S
C1791 C1789 1.419 . S
C1791 C1792 1.363 . S
C1791 H1794 0.929 . S
C1792 C1791 1.363 . S
C1792 C1798 1.428 . S
H1793 C1789 0.930 . S
H1794 C1791 0.929 . S
S1795 N1796 1.613 . S
S1795 N1797 1.610 . S
N1796 S1795 1.613 . S
N1796 C1799 1.350 . S
N1797 S1795 1.610 . S
N1797 C1798 1.351 . S
C1798 C1792 1.428 . S
C1798 N1797 1.351 . S
C1798 C1799 1.434 . S
C1799 C1790 1.429 . S
C1799 N1796 1.350 . S
C1799 C1798 1.434 . S
C1273 C834 1.990 . S
C1275 C39 1.999 . S
C1284 C675 2.093 . S
C1286 C75 2.038 . S
C1295 C728 1.628 . S
C1297 C145 1.623 . S
C1306 C764 1.827 . S
C1308 C181 1.841 . S
C1317 C781 2.012 . S
C1319 C92 1.986 . S
C1328 C128 1.825 . S
C1330 C817 1.808 . S
C1339 C658 1.800 . S
C1341 C198 1.852 . S
C1350 C711 1.759 . S
C1352 C22 1.768 . S
C1361 C976 1.712 . S
C1363 C234 1.689 . S
C1372 C304 1.941 . S
C1374 C1046 1.942 . S
C1383 C357 1.842 . S
C1385 C870 1.783 . S
C1394 C940 2.113 . S
C1396 C410 2.111 . S
C1405 C1188 2.070 . S
C1407 C463 2.121 . S
C1416 C516 1.859 . S
C1418 C1258 1.849 . S
C1427 C569 2.152 . S
C1429 C1099 2.155 . S
C1438 C622 1.723 . S
C1440 C1135 1.609 . S
C1449 C923 1.678 . S
C1451 C605 1.674 . S
C1460 C1241 1.953 . S
C1462 C287 1.973 . S
C1471 C340 1.811 . S
C1473 C1082 1.791 . S
C1482 C1152 2.052 . S
C1484 C393 1.993 . S
C1493 C1205 2.075 . S
C1495 C251 2.117 . S
C1504 C499 1.844 . S
C1506 C1029 1.842 . S
C1515 C887 2.030 . S
C1517 C552 1.968 . S
C1526 C993 1.868 . S
C1528 C446 1.831 . S
C1537 C38 1.998 . S
C1539 C250 2.009 . S
C1548 C294 1.931 . S
C1550 C82 1.905 . S
C1559 C144 1.974 . S
C1561 C347 1.976 . S
C1570 C188 1.864 . S
C1572 C400 1.856 . S
C1581 C453 2.092 . S
C1583 C91 2.083 . S
C1592 C506 1.919 . S
C1594 C135 1.911 . S
C1603 C559 2.188 . S
C1605 C197 2.183 . S
C1614 C29 1.831 . S
C1616 C612 1.818 . S
C1625 C621 2.165 . S
C1627 C241 2.135 . S
C1636 C303 2.226 . S
C1638 C462 2.228 . S
C1647 C356 2.029 . S
C1649 C515 2.033 . S
C1658 C568 2.266 . S
C1660 C409 2.269 . S
C1669 C886 2.136 . S
C1671 C665 2.119 . S
C1680 C930 1.944 . S
C1682 C718 1.929 . S
C1691 C780 2.038 . S
C1693 C992 2.023 . S
C1702 C824 2.056 . S
C1704 C1036 2.061 . S
C1713 C727 2.095 . S
C1715 C1089 2.084 . S
C1724 C771 1.971 . S
C1726 C1151 1.980 . S
C1735 C1204 2.204 . S
C1737 C833 2.210 . S
C1746 C674 2.031 . S
C1748 C1248 2.010 . S
C1757 C877 1.940 . S
C1759 C1257 1.952 . S
C1768 C1098 2.074 . S
C1770 C939 2.080 . S
C1779 C983 2.143 . S
C1781 C1142 2.107 . S
C1790 C1195 2.066 . S
C1792 C1045 2.064 . S
