# Generated by pormake.
# Topology wni, (7)-cn, num edge types: 1
# Building blocks:
#     Node 0, Type 0, BuildingBlock: HICVOG_clean_sbu_0, # of connection points: 7
#     Node 1, Type 0, BuildingBlock: HICVOG_clean_sbu_0, # of connection points: 7
#     Node 2, Type 0, BuildingBlock: HICVOG_clean_sbu_0, # of connection points: 7
#     Node 3, Type 0, BuildingBlock: HICVOG_clean_sbu_0, # of connection points: 7
#     Node 4, Type 0, BuildingBlock: HICVOG_clean_sbu_0, # of connection points: 7
#     Node 5, Type 0, BuildingBlock: HICVOG_clean_sbu_0, # of connection points: 7
#     Edge 6, Type (0, 0), BuildingBlock: KIFKEQ_clean_linker_1, # of connection points: 2
#     Edge 7, Type (0, 0), BuildingBlock: KIFKEQ_clean_linker_1, # of connection points: 2
#     Edge 8, Type (0, 0), BuildingBlock: KIFKEQ_clean_linker_1, # of connection points: 2
#     Edge 9, Type (0, 0), BuildingBlock: KIFKEQ_clean_linker_1, # of connection points: 2
#     Edge 10, Type (0, 0), BuildingBlock: KIFKEQ_clean_linker_1, # of connection points: 2
#     Edge 11, Type (0, 0), BuildingBlock: KIFKEQ_clean_linker_1, # of connection points: 2
#     Edge 12, Type (0, 0), BuildingBlock: KIFKEQ_clean_linker_1, # of connection points: 2
#     Edge 13, Type (0, 0), BuildingBlock: KIFKEQ_clean_linker_1, # of connection points: 2
#     Edge 14, Type (0, 0), BuildingBlock: KIFKEQ_clean_linker_1, # of connection points: 2
#     Edge 15, Type (0, 0), BuildingBlock: KIFKEQ_clean_linker_1, # of connection points: 2
#     Edge 16, Type (0, 0), BuildingBlock: KIFKEQ_clean_linker_1, # of connection points: 2
#     Edge 17, Type (0, 0), BuildingBlock: KIFKEQ_clean_linker_1, # of connection points: 2
#     Edge 18, Type (0, 0), BuildingBlock: KIFKEQ_clean_linker_1, # of connection points: 2
#     Edge 19, Type (0, 0), BuildingBlock: KIFKEQ_clean_linker_1, # of connection points: 2
#     Edge 20, Type (0, 0), BuildingBlock: KIFKEQ_clean_linker_1, # of connection points: 2
#     Edge 21, Type (0, 0), BuildingBlock: KIFKEQ_clean_linker_1, # of connection points: 2
#     Edge 22, Type (0, 0), BuildingBlock: KIFKEQ_clean_linker_1, # of connection points: 2
#     Edge 23, Type (0, 0), BuildingBlock: KIFKEQ_clean_linker_1, # of connection points: 2
#     Edge 24, Type (0, 0), BuildingBlock: KIFKEQ_clean_linker_1, # of connection points: 2
#     Edge 25, Type (0, 0), BuildingBlock: KIFKEQ_clean_linker_1, # of connection points: 2
#     Edge 26, Type (0, 0), BuildingBlock: KIFKEQ_clean_linker_1, # of connection points: 2
# Relax obj value: 0.262
# Max RMSD: 0.178
# Mean RMSD: 0.178
data_MOF--net-wni--node1-HICVOG_clean_sbu_0--edge1-KIFKEQ_clean_linker_1
_symmetry_space_group_name_H-M    P1
_symmetry_Int_Tables_number       1
_symmetry_cell_setting            triclinic
loop_
_symmetry_equiv_pos_as_xyz
'x, y, z'
_cell_length_a     26.561255
_cell_length_b     26.714154
_cell_length_c     32.293935
_cell_angle_alpha  89.344946
_cell_angle_beta   90.61186
_cell_angle_gamma 119.0006
loop_
_atom_site_label
_atom_site_type_symbol
_atom_site_fract_x
_atom_site_fract_y
_atom_site_fract_z
_atom_type_partial_charge
Zn0 Zn 0.12754 0.47688 0.15959 0.0
C1 C 1.09074 0.47994 1.0376 0.0
N2 N 1.04933 0.49095 0.05183 0.0
C3 C 1.05479 0.49056 0.09342 0.0
N4 N 1.09934 0.48102 0.10419 0.0
N5 N 0.12205 0.47447 0.06955 0.0
C6 C 0.20885 0.36874 0.09135 0.0
O7 O 0.23319 0.39928 0.12448 0.0
O8 O 0.11014 0.52809 0.19463 0.0
Zn9 Zn 0.19431 0.46826 0.06857 0.0
N10 N 1.0867 0.39747 0.17527 0.0
C11 C 1.0482 0.29978 0.15619 0.0
C12 C 1.07418 0.35762 0.14537 0.0
C13 C 1.0737 0.38194 0.21545 0.0
N14 N 1.0363 0.28417 0.19658 0.0
C15 C 1.04793 0.32379 0.22653 0.0
O16 O 0.26016 0.51161 0.11292 0.0
C17 C 0.26154 0.51999 0.15195 0.0
O18 O 0.21478 0.50702 0.17087 0.0
H19 H 1.08522 0.37072 0.11348 0.0
H20 H 1.08565 0.41485 0.2386 0.0
C21 C 0.23857 0.46688 0.99088 0.0
C22 C 0.26197 0.48698 0.95174 0.0
C23 C 0.25944 0.57324 0.96459 0.0
C24 C 0.23824 0.55361 1.00422 0.0
N25 N 0.22803 0.50067 1.0163 0.0
N26 N 0.27138 0.53985 0.93952 0.0
H27 H 0.2282 0.42456 1.00115 0.0
C28 C 0.12835 0.57596 0.17606 0.0
O29 O 0.1576 0.58523 0.14163 0.0
O30 O 0.18202 0.38533 0.06652 0.0
H31 H 0.22858 0.57947 1.02479 0.0
H32 H 1.03853 0.26764 0.13281 0.0
H33 H 0.26708 0.61489 0.954 0.0
Zn34 Zn 0.70318 0.74166 0.73536 0.0
C35 C 0.68332 0.58104 0.76038 0.0
N36 N 0.68689 0.57851 0.71884 0.0
C37 C 0.69731 0.63077 0.70526 0.0
N38 N 0.69915 0.66457 0.73741 0.0
N39 N 0.68986 0.63311 0.77159 0.0
C40 C 0.57666 0.55854 0.82921 0.0
O41 O 0.57617 0.58245 0.79353 0.0
O42 O 0.78452 0.8137 0.73387 0.0
Zn43 Zn 0.68006 0.65643 0.82667 0.0
N44 N 0.66998 0.74157 0.68287 0.0
C45 C 0.59181 0.70461 0.63531 0.0
C46 C 0.61344 0.70561 0.67497 0.0
C47 C 0.70586 0.77644 0.65316 0.0
N48 N 0.62731 0.7411 0.60593 0.0
C49 C 0.68405 0.77769 0.61381 0.0
O50 O 0.64907 0.71374 0.83545 0.0
C51 C 0.64292 0.75233 0.81609 0.0
O52 O 0.65882 0.76375 0.77838 0.0
H53 H 0.58601 0.67722 0.69898 0.0
H54 H 0.75088 0.80281 0.66042 0.0
C55 C 0.75985 0.72042 0.88813 0.0
C56 C 0.81433 0.75216 0.9065 0.0
C57 C 0.85413 0.71963 0.85471 0.0
C58 C 0.80005 0.68929 0.83608 0.0
N59 N 0.75398 0.6899 0.85352 0.0
N60 N 0.86004 0.75025 0.88945 0.0
H61 H 0.72199 0.71957 0.90096 0.0
C62 C 0.79988 0.85122 0.76239 0.0
O63 O 0.77097 0.83699 0.7972 0.0
O64 O 0.61968 0.5845 0.85338 0.0
H65 H 0.79501 0.66604 0.80778 0.0
H66 H 0.54708 0.67584 0.62807 0.0
H67 H 0.8912 0.7193 0.84147 0.0
Zn68 Zn 0.51324 1.02961 0.49328 0.0
C69 C 0.53982 0.06977 0.37035 0.0
N70 N 0.59218 0.11034 0.38372 0.0
C71 C 0.5894 0.10531 0.42544 0.0
N72 N 0.53665 0.06176 0.43714 0.0
N73 N 0.50549 1.03951 0.40295 0.0
C74 C 0.31566 0.96066 0.42637 0.0
O75 O 0.32325 0.93658 0.45975 0.0
O76 O 0.58513 1.03276 0.51661 0.0
Zn77 Zn 0.42679 0.96991 0.40267 0.0
N78 N 0.48638 0.07524 0.52219 0.0
C79 C 0.46713 0.15341 0.52343 0.0
C80 C 0.48982 0.12276 0.50365 0.0
C81 C 0.45968 1.05617 0.55922 0.0
N82 N 0.44067 0.13456 0.5605 0.0
C83 C 0.43561 0.08626 0.57896 0.0
O84 O 0.40414 0.90377 0.44674 0.0
C85 C 0.4142 0.90028 0.48516 0.0
O86 O 0.45217 0.9446 0.50378 0.0
H87 H 0.50997 0.13675 0.47374 0.0
H88 H 0.45755 1.01806 0.57292 0.0
C89 C 0.37329 0.92132 0.32783 0.0
C90 C 0.36361 0.89152 0.29085 0.0
C91 C 0.45337 0.89321 0.29962 0.0
C92 C 0.46093 0.91993 0.33781 0.0
N93 N 0.4209 0.93392 0.35076 0.0
N94 N 0.40457 0.87885 0.27736 0.0
H95 H 0.3424 0.93306 0.33888 0.0
C96 C 0.60598 1.01207 0.4908 0.0
O97 O 0.57694 0.98859 0.45675 0.0
O98 O 0.35775 0.98638 0.40138 0.0
H99 H 0.49856 0.93022 0.35668 0.0
H100 H 0.47007 0.19164 0.50929 0.0
H101 H 0.48519 0.88261 0.28828 0.0
Zn102 Zn 0.51657 0.14719 1.0206 0.0
C103 C 0.54377 1.01256 0.99339 0.0
N104 N 0.54594 1.00628 1.03489 0.0
C105 C 0.5344 1.04656 0.05057 0.0
N106 N 0.52618 0.07717 1.0195 0.0
N107 N 0.53155 1.05543 0.98407 0.0
C108 C 0.58969 0.07657 0.87635 0.0
O109 O 0.62451 0.11086 0.90492 0.0
O110 O 0.43241 0.13309 1.02187 0.0
Zn111 Zn 0.51298 0.0793 0.93141 0.0
N112 N 0.5476 0.18255 0.0727 0.0
C113 C 0.61736 0.21529 0.12671 0.0
C114 C 0.59878 0.1904 0.08788 0.0
C115 C 0.515 0.19957 0.09405 0.0
N116 N 0.58526 0.23369 0.14757 0.0
C117 C 0.53453 0.22711 0.13193 0.0
O118 O 0.55124 0.16651 0.9177 0.0
C119 C 0.56732 0.21342 0.93688 0.0
O120 O 0.55982 0.21225 0.97604 0.0
H121 H 0.62419 0.17649 0.07034 0.0
H122 H 0.47449 0.1923 0.08127 0.0
C123 C 0.4145 1.0412 0.88471 0.0
C124 C 0.35628 1.01703 0.87438 0.0
C125 C 0.3333 1.00753 0.94566 0.0
C126 C 0.39173 1.03014 0.95581 0.0
N127 N 0.43109 1.04717 0.92491 0.0
N128 N 0.31672 1.00132 0.90511 0.0
H129 H 0.44675 1.05512 0.86074 0.0
C130 C 0.41575 0.15979 0.99702 0.0
O131 O 0.44672 0.18436 0.96403 0.0
O132 O 0.53656 1.04849 0.88424 0.0
H133 H 0.40545 1.03396 0.98779 0.0
H134 H 0.65746 0.22103 0.1398 0.0
H135 H 0.3014 0.99443 0.96983 0.0
Zn136 Zn 1.01332 0.38643 0.69027 0.0
C137 C 0.16055 0.53786 0.66287 0.0
N138 N 0.16858 0.5416 0.70414 0.0
C139 C 0.12549 0.49209 0.7195 0.0
N140 N 1.09089 0.45807 0.68809 0.0
N141 N 0.11323 0.48705 0.65299 0.0
C142 C 1.07569 0.56413 0.59544 0.0
O143 O 1.05063 0.53864 0.63021 0.0
O144 O 1.01179 0.31294 0.71415 0.0
Zn145 Zn 1.08218 0.46532 0.59669 0.0
N146 N 0.96466 0.40528 0.72231 0.0
C147 C 0.9344 0.46839 0.75 0.0
C148 C 0.97805 0.45866 0.73506 0.0
C149 C 0.9099 0.36191 0.72307 0.0
N150 N 0.87907 0.42506 0.74973 0.0
C151 C 0.86537 0.37202 0.73573 0.0
O152 O 0.99706 0.40785 0.58238 0.0
C153 C 0.95539 0.36499 0.59969 0.0
O154 O 0.96004 0.35433 0.63768 0.0
H155 H 1.0214 0.49371 0.73229 0.0
H156 H 0.90166 0.32036 0.71249 0.0
C157 C 0.10177 0.40317 0.53604 0.0
C158 C 0.12434 0.37023 0.51902 0.0
C159 C 0.19361 0.39989 0.57323 0.0
C160 C 0.1696 0.43094 0.59077 0.0
N161 N 0.12464 0.4325 0.57142 0.0
N162 N 0.17046 0.37021 0.53784 0.0
H163 H 1.06591 0.40541 0.52174 0.0
C164 C 1.00618 0.27474 0.68817 0.0
O165 O 1.01167 0.28805 0.64858 0.0
O166 O 1.09303 0.53867 0.57099 0.0
H167 H 0.18623 0.45296 0.61974 0.0
H168 H 0.94414 0.51045 0.76053 0.0
H169 H 0.22976 0.39864 0.58795 0.0
Zn170 Zn 0.71197 0.64625 0.26551 0.0
C171 C 0.67504 0.64158 0.38744 0.0
N172 N 0.62232 0.63018 0.37344 0.0
C173 C 0.62706 0.63133 0.33179 0.0
N174 N 0.68085 0.64166 0.32083 0.0
N175 N 0.711 0.64808 0.35537 0.0
C176 C 0.90156 0.75317 0.33272 0.0
O177 O 0.89499 0.72151 0.30021 0.0
O178 O 0.64412 0.59546 0.2301 0.0
Zn179 Zn 0.78969 0.65498 0.35631 0.0
N180 N 0.74847 0.72568 0.24983 0.0
C181 C 0.80508 0.82348 0.26882 0.0
C182 C 0.77455 0.7657 0.27978 0.0
C183 C 0.751 0.74097 0.20947 0.0
N184 N 0.8088 0.83884 0.22827 0.0
C185 C 0.78207 0.79903 0.19826 0.0
O186 O 0.81113 0.61026 0.3126 0.0
C187 C 0.80339 0.60213 0.27355 0.0
O188 O 0.76927 0.61572 0.25459 0.0
H189 H 0.77257 0.7528 0.31183 0.0
H190 H 0.73109 0.70791 0.18632 0.0
C191 C 0.83432 0.66037 0.43585 0.0
C192 C 0.83924 0.64105 0.47524 0.0
C193 C 0.75822 0.55071 0.46026 0.0
C194 C 0.7554 0.56966 0.42033 0.0
N195 N 0.79352 0.62419 0.40915 0.0
N196 N 0.8004 0.58646 0.48651 0.0
H197 H 0.86248 0.70388 0.42637 0.0
C198 C 0.61593 0.54735 0.2483 0.0
O199 O 0.63654 0.53764 0.2828 0.0
O200 O 0.85908 0.73786 0.3573 0.0
H201 H 0.72244 0.54189 0.39878 0.0
H202 H 0.82655 0.85577 0.29224 0.0
H203 H 0.72781 0.50773 0.4701 0.0
H204 H 0.51424 0.55301 0.34453 0.0
H205 H 0.622 0.67924 0.25498 0.0
H206 H 0.42982 0.52869 0.30129 0.0
H207 H 0.53696 0.65442 0.21083 0.0
H208 H 0.37325 0.55419 0.12456 0.0
H209 H 0.46114 0.58241 0.16578 0.0
H210 H 0.36518 0.56103 0.27754 0.0
H211 H 0.27803 0.53286 0.23666 0.0
C212 C 0.52013 0.5758 0.31548 0.0
C213 C 0.57589 0.6175 0.30329 0.0
C214 C 0.47117 0.56187 0.29045 0.0
C215 C 0.47528 0.58924 0.25195 0.0
C216 C 0.53119 0.63144 0.23976 0.0
C217 C 0.58038 0.64583 0.26519 0.0
C218 C 0.3708 0.55586 0.15792 0.0
C219 C 0.31745 0.54098 0.17676 0.0
C220 C 0.4217 0.57234 0.18178 0.0
C221 C 0.42139 0.57402 0.22558 0.0
C222 C 0.36808 0.55969 0.2442 0.0
C223 C 0.31755 0.54378 0.22044 0.0
H224 H 0.65888 0.86031 0.79625 0.0
H225 H 0.58331 0.72909 0.89014 0.0
H226 H 0.63391 0.9224 0.8365 0.0
H227 H 0.55728 0.79073 0.92996 0.0
H228 H 0.47288 0.89944 0.97366 0.0
H229 H 0.49371 0.83646 0.93051 0.0
H230 H 0.66149 0.97789 0.90345 0.0
H231 H 0.64136 1.03955 0.94831 0.0
C232 C 0.63617 0.8441 0.82516 0.0
C233 C 0.62294 0.78883 0.83936 0.0
C234 C 0.62218 0.88019 0.8486 0.0
C235 C 0.59327 0.86223 0.88689 0.0
C236 C 0.57894 0.80647 0.90064 0.0
C237 C 0.59406 0.77086 0.87765 0.0
C238 C 0.51388 0.91735 0.95796 0.0
C239 C 0.55423 0.97574 0.96301 0.0
C240 C 0.52615 0.88098 0.93335 0.0
C241 C 0.57928 0.90158 0.91263 0.0
C242 C 0.61962 0.96012 0.91785 0.0
C243 C 0.60777 0.99602 0.94325 0.0
H244 H 0.32672 0.79454 0.45798 0.0
H245 H 0.41856 0.87953 0.56894 0.0
H246 H 0.26633 0.70807 0.49864 0.0
H247 H 0.35914 0.79343 0.60933 0.0
H248 H 0.20868 0.65166 0.68081 0.0
H249 H 0.26793 0.73562 0.63852 0.0
H250 H 0.25658 0.62634 0.53754 0.0
H251 H 0.19694 0.54226 0.58019 0.0
C252 C 0.33463 0.79493 0.49097 0.0
C253 C 0.37839 0.84503 0.50965 0.0
C254 C 0.29978 0.74478 0.51453 0.0
C255 C 0.30673 0.74252 0.55794 0.0
C256 C 0.3509 0.7926 0.57639 0.0
C257 C 0.38582 0.84247 0.55288 0.0
C258 C 0.21868 0.64508 0.64959 0.0
C259 C 0.19655 0.58885 0.63438 0.0
C260 C 0.25335 0.69387 0.62508 0.0
C261 C 0.26823 0.68917 0.58397 0.0
C262 C 0.24618 0.63287 0.56862 0.0
C263 C 0.21161 0.5839 0.5934 0.0
H264 H 0.71592 0.5744 0.84262 0.0
H265 H 0.61686 0.46774 0.74128 0.0
H266 H 0.69123 0.48902 0.88493 0.0
H267 H 0.5917 0.38257 0.78319 0.0
H268 H 0.5915 0.23305 0.8531 0.0
H269 H 0.62084 0.3204 0.81268 0.0
H270 H 0.62156 0.40945 0.9235 0.0
H271 H 0.59328 0.32196 0.9641 0.0
C272 C 0.68849 0.53296 0.82927 0.0
C273 C 0.6681 0.52907 0.78823 0.0
C274 C 0.67399 0.48332 0.85379 0.0
C275 C 0.63913 0.42742 0.83813 0.0
C276 C 0.61929 0.42388 0.79689 0.0
C277 C 0.63362 0.47334 0.7726 0.0
C278 C 0.59824 0.27121 0.86915 0.0
C279 C 0.58979 0.26938 0.91239 0.0
C280 C 0.61474 0.32185 0.84563 0.0
C281 C 0.62351 0.37332 0.8641 0.0
C282 C 0.6161 0.37172 0.90755 0.0
C283 C 0.59958 0.32096 0.93111 0.0
H284 H 0.59707 0.13442 0.51013 0.0
H285 H 0.70335 0.16224 0.40342 0.0
H286 H 0.68259 0.19429 0.5515 0.0
H287 H 0.78879 0.22257 0.44439 0.0
H288 H 0.92954 0.37436 0.5174 0.0
H289 H 0.843 0.31294 0.47746 0.0
H290 H 0.76982 0.20485 0.58476 0.0
H291 H 0.85705 0.2662 0.62454 0.0
C292 C 0.6383 0.15257 0.49526 0.0
C293 C 0.64181 0.14174 0.45297 0.0
C294 C 0.68815 0.18743 0.51928 0.0
C295 C 0.74396 0.21428 0.50189 0.0
C296 C 0.74734 0.20392 0.45947 0.0
C297 C 0.69767 0.16865 0.43572 0.0
C298 C 0.89513 0.33763 0.53275 0.0
C299 C 0.90098 0.32649 0.57491 0.0
C300 C 0.84503 0.30176 0.50952 0.0
C301 C 0.79802 0.25308 0.52731 0.0
C302 C 0.8039 0.24197 0.56955 0.0
C303 C 0.85436 0.27755 0.59266 0.0
H304 H 1.01791 0.56871 0.08074 0.0
H305 H 1.00553 0.44279 0.17036 0.0
H306 H 0.95845 0.59302 0.12411 0.0
H307 H 0.94589 0.46754 0.21461 0.0
H308 H 0.88238 0.56787 0.3009 0.0
H309 H 0.94153 0.53955 0.25961 0.0
H310 H 0.86298 0.56045 0.14796 0.0
H311 H 0.80455 0.58877 0.1889 0.0
C312 C 1.00247 0.54598 0.10984 0.0
C313 C 1.018 0.50438 0.12201 0.0
C314 C 0.96783 0.5599 0.13493 0.0
C315 C 0.94644 0.53256 0.17346 0.0
C316 C 0.96164 0.49046 0.18565 0.0
C317 C 0.99609 0.47612 0.16016 0.0
C318 C 0.87728 0.56605 0.26755 0.0
C319 C 0.8379 0.58087 0.24874 0.0
C320 C 0.9114 0.54953 0.24366 0.0
C321 C 0.90813 0.54773 0.19987 0.0
C322 C 0.8682 0.56192 0.18128 0.0
C323 C 0.83391 0.57791 0.20507 0.0
H324 H 0.37265 0.21705 0.95109 0.0
H325 H 0.35818 0.13902 0.07132 0.0
H326 H 0.31398 0.25801 0.97431 0.0
H327 H 0.29735 0.17847 0.09434 0.0
H328 H 0.26786 0.327 0.13681 0.0
H329 H 0.30807 0.26781 0.11362 0.0
H330 H 0.22504 0.24881 0.99458 0.0
H331 H 0.18639 0.31022 1.01754 0.0
C332 C 0.35576 0.20737 0.98227 0.0
C333 C 0.37062 0.17479 1.00931 0.0
C334 C 0.3216 0.23078 0.99561 0.0
C335 C 0.30081 0.2222 1.03645 0.0
C336 C 0.31322 0.18706 0.0629 0.0
C337 C 0.34765 0.16373 0.04953 0.0
C338 C 0.25727 0.30953 0.10586 0.0
C339 C 0.2239 0.32382 0.07907 0.0
C340 C 0.28023 0.27504 0.09255 0.0
C341 C 0.27037 0.25332 0.052 0.0
C342 C 0.23458 0.26534 1.0258 0.0
C343 C 0.21172 0.30013 1.03913 0.0
H344 H 0.96342 0.18149 0.63807 0.0
H345 H 1.00027 0.22895 0.76656 0.0
H346 H 0.92063 0.08143 0.65694 0.0
H347 H 0.96035 0.12805 0.78571 0.0
H348 H 0.8229 0.94267 0.81133 0.0
H349 H 0.87721 1.04355 0.79465 0.0
H350 H 0.9265 1.00264 0.67792 0.0
H351 H 0.8686 0.90082 0.69386 0.0
C352 C 0.96355 0.17066 0.67048 0.0
C353 C 0.98541 0.21376 0.70076 0.0
C354 C 0.93916 0.11266 0.68139 0.0
C355 C 0.93651 0.09535 0.72305 0.0
C356 C 0.96015 0.1388 0.75334 0.0
C357 C 0.98372 0.19706 0.74239 0.0
C358 C 0.84579 0.95498 0.78221 0.0
C359 C 0.84098 0.91307 0.75394 0.0
C360 C 0.87758 1.01349 0.77266 0.0
C361 C 0.90662 1.03253 0.73466 0.0
C362 C 0.90391 0.99045 0.70711 0.0
C363 C 0.87118 0.93167 0.71644 0.0
H364 H 0.93902 0.81338 0.4059 0.0
H365 H 0.99992 0.79284 0.28727 0.0
H366 H 1.03847 0.87416 0.42854 0.0
H367 H 1.0987 0.85153 0.31011 0.0
H368 H 0.2764 0.98004 0.35148 0.0
H369 H 0.1765 0.94082 0.32848 0.0
H370 H 0.11856 0.86441 0.44935 0.0
H371 H 0.2178 0.90501 0.47248 0.0
C372 C 0.97345 0.8225 0.38437 0.0
C373 C 0.96104 0.79789 0.34472 0.0
C374 C 1.03077 0.85695 0.39752 0.0
C375 C 1.07737 0.8678 0.37141 0.0
C376 C 1.06458 0.84521 0.33111 0.0
C377 C 1.00747 0.81101 0.318 0.0
C378 C 0.24235 0.95604 0.37343 0.0
C379 C 0.25558 0.94578 0.41388 0.0
C380 C 0.18478 0.93285 0.36009 0.0
C381 C 0.13872 0.89868 0.3868 0.0
C382 C 0.15223 0.89088 0.42782 0.0
C383 C 0.2096 0.9141 0.44111 0.0
H384 H 0.18252 0.35049 0.45838 0.0
H385 H 1.01162 0.316 0.49253 0.0
H386 H 0.14775 0.31557 0.38886 0.0
H387 H 0.97724 0.28198 0.42275 0.0
H388 H 1.00131 0.35978 0.286 0.0
H389 H 1.00618 0.34763 0.36048 0.0
H390 H 1.08 0.23707 0.34043 0.0
H391 H 1.075 0.24937 0.26547 0.0
C392 C 0.13728 0.33415 0.45135 0.0
C393 C 0.10043 0.33825 0.48027 0.0
C394 C 0.11725 0.31377 0.41163 0.0
C395 C 1.06003 0.29702 0.40036 0.0
C396 C 1.02179 0.29563 0.43055 0.0
C397 C 1.04174 0.31578 0.47028 0.0
C398 C 1.01725 0.3318 0.29756 0.0
C399 C 1.03891 0.30643 0.27034 0.0
C400 C 1.01949 0.3243 0.34012 0.0
C401 C 1.04395 0.29177 0.35612 0.0
C402 C 1.06129 0.26261 0.32876 0.0
C403 C 1.05829 0.26951 0.28603 0.0
H404 H 0.75549 0.80767 0.93134 0.0
H405 H 0.89097 0.77073 0.96871 0.0
H406 H 0.75404 0.84127 1.00092 0.0
H407 H 0.89011 0.8054 1.03794 0.0
H408 H 0.88218 0.87262 0.16057 0.0
H409 H 0.89961 0.88452 0.08582 0.0
H410 H 0.71792 0.77495 0.06309 0.0
H411 H 0.70078 0.76311 0.13737 0.0
C412 C 0.78537 0.80723 0.95423 0.0
C413 C 0.82167 0.78417 0.94515 0.0
C414 C 0.78495 0.82716 0.99386 0.0
C415 C 0.82129 0.82505 1.02484 0.0
C416 C 0.86178 0.80774 1.01454 0.0
C417 C 0.86201 0.78752 0.97496 0.0
C418 C 0.84592 0.8526 0.13944 0.0
C419 C 0.79037 0.81608 0.15437 0.0
C420 C 0.8559 0.85927 0.09684 0.0
C421 C 0.8102 0.83033 0.06882 0.0
C422 C 0.75391 0.79812 0.08398 0.0
C423 C 0.74411 0.79082 0.12643 0.0
H424 H 0.37262 0.94982 0.82089 0.0
H425 H 0.30711 0.06874 0.82907 0.0
H426 H 0.37545 0.95864 0.74589 0.0
H427 H 0.30867 0.07717 0.75329 0.0
H428 H 0.43185 0.15397 0.63958 0.0
H429 H 0.39182 0.12592 0.70864 0.0
H430 H 0.33101 0.94835 0.67889 0.0
H431 H 0.37167 0.9765 0.60978 0.0
C432 C 0.35645 0.97598 0.80627 0.0
C433 C 0.33973 1.00869 0.8304 0.0
C434 C 0.35797 0.98107 0.76328 0.0
C435 C 0.34305 1.01927 0.74357 0.0
C436 C 0.32127 1.04806 0.76766 0.0
C437 C 0.31961 1.04276 0.81089 0.0
C438 C 0.4093 0.10886 0.64756 0.0
C439 C 0.40649 0.06772 0.61956 0.0
C440 C 0.3858 0.09268 0.68708 0.0
C441 C 0.35843 1.03486 0.69942 0.0
C442 C 0.35269 0.99334 0.67057 0.0
C443 C 0.37648 1.00957 0.63107 0.0
H444 H 0.29083 0.40352 0.97558 0.0
H445 H 0.28085 0.49798 0.86873 0.0
H446 H 0.3518 0.37705 0.93784 0.0
H447 H 0.34455 0.47358 0.83184 0.0
H448 H 0.48857 0.48441 0.7803 0.0
H449 H 0.3905 0.42212 0.80353 0.0
H450 H 0.44998 0.45331 0.93063 0.0
H451 H 0.54753 0.51443 0.90735 0.0
C452 C 0.29932 0.417 0.94357 0.0
C453 C 0.28251 0.45519 0.92573 0.0
C454 C 0.33473 0.40156 0.9219 0.0
C455 C 0.355 0.42507 0.8826 0.0
C456 C 0.33048 0.45517 0.86238 0.0
C457 C 0.29458 0.47015 0.88383 0.0
C458 C 0.48082 0.47613 0.81318 0.0
C459 C 0.52463 0.50655 0.84228 0.0
C460 C 0.42475 0.44008 0.8264 0.0
C461 C 0.41207 0.43492 0.86881 0.0
C462 C 0.45792 0.45695 0.89762 0.0
C463 C 0.51404 0.49272 0.88436 0.0
H464 H 0.66956 0.98873 0.43679 0.0
H465 H 0.66157 1.02806 0.56509 0.0
H466 H 0.73479 0.95205 0.45516 0.0
H467 H 0.72562 0.99073 0.58365 0.0
H468 H 0.66752 0.77554 0.53043 0.0
H469 H 0.69069 0.85922 0.48843 0.0
H470 H 0.80325 0.96779 0.58494 0.0
H471 H 0.77843 0.88476 0.62774 0.0
C472 C 0.68312 0.99106 0.46879 0.0
C473 C 0.65831 1.00823 0.49998 0.0
C474 C 0.72091 0.97055 0.47919 0.0
C475 C 0.73354 0.96623 0.52095 0.0
C476 C 0.7164 0.99266 0.55111 0.0
C477 C 0.67889 1.0135 0.54065 0.0
C478 C 0.6989 0.81706 0.54215 0.0
C479 C 0.71816 0.8233 0.58333 0.0
C480 C 0.71302 0.86536 0.51775 0.0
C481 C 0.74644 0.92043 0.53445 0.0
C482 C 0.77564 0.92588 0.57198 0.0
C483 C 0.76113 0.87765 0.5966 0.0
H484 H 0.12181 0.5986 0.25729 0.0
H485 H 0.11883 0.65855 0.13314 0.0
H486 H 0.15132 0.69362 0.28367 0.0
H487 H 0.14719 0.75369 0.1595 0.0
H488 H 0.34153 0.86848 0.20899 0.0
H489 H 0.24989 0.80094 0.17896 0.0
H490 H 0.16513 0.79071 0.29474 0.0
H491 H 0.25682 0.85695 0.32523 0.0
C492 C 0.1245 0.63141 0.23597 0.0
C493 C 0.12127 0.62268 0.19319 0.0
C494 C 0.14093 0.68596 0.25103 0.0
C495 C 0.15419 0.73174 0.22324 0.0
C496 C 0.13903 0.71956 0.18137 0.0
C497 C 0.12332 0.66529 0.1663 0.0
C498 C 0.3031 0.85345 0.2276 0.0
C499 C 0.30704 0.86688 0.26969 0.0
C500 C 0.25015 0.81526 0.21024 0.0
C501 C 0.20038 0.78931 0.23495 0.0
C502 C 0.20293 0.80942 0.27523 0.0
C503 C 0.25592 0.84769 0.29262 0.0
H504 H 0.53633 0.25018 0.21376 0.0
H505 H 0.46605 0.26814 0.09642 0.0
H506 H 0.51444 0.31998 0.2436 0.0
H507 H 0.44224 0.33602 0.12686 0.0
H508 H 0.5868 0.52593 0.1668 0.0
H509 H 0.52321 0.43147 0.13946 0.0
H510 H 0.46123 0.36948 0.26291 0.0
H511 H 0.52629 0.46404 0.29023 0.0
C512 C 0.51419 0.26722 0.19478 0.0
C513 C 0.50483 0.2547 0.15249 0.0
C514 C 0.50062 0.30668 0.21205 0.0
C515 C 0.47787 0.33468 0.18715 0.0
C516 C 0.46062 0.31581 0.14652 0.0
C517 C 0.47438 0.27649 0.12916 0.0
C518 C 0.55762 0.49281 0.18775 0.0
C519 C 0.56323 0.50084 0.23061 0.0
C520 C 0.5206 0.43857 0.17213 0.0
C521 C 0.48918 0.3924 0.19946 0.0
C522 C 0.48642 0.40389 0.2414 0.0
C523 C 0.52392 0.45783 0.25702 0.0
H524 H 0.81383 0.27938 0.68349 0.0
H525 H 0.77884 0.35916 0.78683 0.0
H526 H 0.7266 0.19006 0.69816 0.0
H527 H 0.68949 0.27076 0.79941 0.0
H528 H 0.68399 0.08428 0.83913 0.0
H529 H 0.73312 0.14952 0.78165 0.0
H530 H 0.58686 0.17643 0.76313 0.0
H531 H 0.53642 0.10872 0.81897 0.0
C532 C 0.78707 0.27835 0.70878 0.0
C533 C 0.80506 0.32514 0.73578 0.0
C534 C 0.7365 0.22756 0.71639 0.0
C535 C 0.70217 0.22384 0.75001 0.0
C536 C 0.71551 0.27306 0.77308 0.0
C537 C 0.76687 0.32348 0.76611 0.0
C538 C 0.66097 0.10104 0.82084 0.0
C539 C 0.60693 0.09201 0.83331 0.0
C540 C 0.68887 0.13826 0.78801 0.0
C541 C 0.66357 0.16798 0.76855 0.0
C542 C 0.60665 0.1534 0.77757 0.0
C543 C 0.57795 0.11461 0.80946 0.0
H544 H 1.09107 0.61264 0.51854 0.0
H545 H 1.0645 0.63828 0.64651 0.0
H546 H 1.05707 0.67821 0.49722 0.0
H547 H 1.0312 0.70509 0.6253 0.0
H548 H 0.84681 0.63209 0.55878 0.0
H549 H 0.93467 0.65766 0.59677 0.0
H550 H 1.03485 0.75572 0.49175 0.0
H551 H 0.94753 0.72818 0.453 0.0
C552 C 1.08033 0.63429 0.54219 0.0
C553 C 1.07696 0.61804 0.58384 0.0
C554 C 1.06139 0.67265 0.53009 0.0
C555 C 1.03874 0.69478 0.55963 0.0
C556 C 1.04647 0.68711 0.60182 0.0
C557 C 1.06501 0.64843 0.61388 0.0
C558 C 0.88748 0.6607 0.54421 0.0
C559 C 0.8897 0.67537 0.50221 0.0
C560 C 0.93824 0.67633 0.56628 0.0
C561 C 0.99189 0.70658 0.54643 0.0
C562 C 0.99404 0.73083 0.50732 0.0
C563 C 0.94332 0.71477 0.48506 0.0
H564 H 0.17916 0.5729 0.77841 0.0
H565 H 1.05562 0.39352 0.76831 0.0
H566 H 0.17296 0.56615 0.85288 0.0
H567 H 1.04922 0.38682 0.84475 0.0
H568 H 0.10395 0.39987 0.99028 0.0
H569 H 0.10942 0.397 0.91393 0.0
H570 H 0.10097 0.55392 0.90487 0.0
H571 H 1.09545 0.55643 0.97998 0.0
C572 C 0.15028 0.53152 0.79182 0.0
C573 C 0.11761 0.48376 0.7662 0.0
C574 C 0.14667 0.52785 0.83518 0.0
C575 C 0.11039 0.47611 0.85561 0.0
C576 C 1.078 0.42756 0.83043 0.0
C577 C 1.08126 0.43142 0.78637 0.0
C578 C 0.10409 0.43408 0.97188 0.0
C579 C 0.10054 0.47914 0.99165 0.0
C580 C 0.10641 0.43205 0.92798 0.0
C581 C 0.10568 0.47525 0.90261 0.0
C582 C 0.10228 0.52006 0.9228 0.0
C583 C 1.09918 0.5216 0.96619 0.0
H584 H 0.60628 0.58226 0.65258 0.0
H585 H 0.78747 0.70242 0.65372 0.0
H586 H 0.60437 0.58817 0.57751 0.0
H587 H 0.78719 0.70623 0.57758 0.0
H588 H 0.75903 0.72764 0.43616 0.0
H589 H 0.76599 0.73084 0.51223 0.0
H590 H 0.62403 0.55808 0.5181 0.0
H591 H 0.61566 0.55698 0.44317 0.0
C592 C 0.64589 0.61048 0.63663 0.0
C593 C 0.69662 0.6428 0.65957 0.0
C594 C 0.64522 0.6132 0.59305 0.0
C595 C 0.69591 0.64675 0.57007 0.0
C596 C 0.74686 0.68006 0.59328 0.0
C597 C 0.74718 0.67806 0.63725 0.0
C598 C 0.72986 0.69023 0.45389 0.0
C599 C 0.68713 0.64175 0.43324 0.0
C600 C 0.73369 0.69194 0.49783 0.0
C601 C 0.69493 0.64513 0.52263 0.0
C602 C 0.65372 0.59614 0.5013 0.0
C603 C 0.64935 0.59494 0.45779 0.0
H604 H 0.61316 1.05347 0.10784 0.0
H605 H 0.45302 1.05643 0.09913 0.0
H606 H 0.61165 1.05853 0.1824 0.0
H607 H 0.4482 1.05706 0.17492 0.0
H608 H 0.59078 1.02857 0.31866 0.0
H609 H 0.58606 1.02162 0.24398 0.0
H610 H 0.46487 0.0862 0.24139 0.0
H611 H 0.46667 0.08798 0.3173 0.0
C612 C 0.5771 1.05486 0.12205 0.0
C613 C 0.53355 1.0549 0.09691 0.0
C614 C 0.57545 1.05677 0.16562 0.0
C615 C 0.52881 1.05649 0.18676 0.0
C616 C 0.48534 1.05746 0.16122 0.0
C617 C 0.48788 1.05705 0.11722 0.0
C618 C 0.562 1.03997 0.30218 0.0
C619 C 0.52813 1.05743 0.32456 0.0
C620 C 0.56007 1.03731 0.25854 0.0
C621 C 0.52628 1.0549 0.23457 0.0
C622 C 0.49149 0.07172 0.25734 0.0
C623 C 0.49223 0.07268 0.30141 0.0
loop_
_geom_bond_atom_site_label_1
_geom_bond_atom_site_label_2
_geom_bond_distance
_geom_bond_site_symmetry_2
_ccdc_geom_bond_type
Zn0 N4 2.020 . S
Zn0 O8 2.019 . S
Zn0 N10 2.119 . S
Zn0 O18 1.975 . S
C1 N2 1.334 . S
C1 N5 1.336 . S
N2 C1 1.334 . S
N2 C3 1.334 . S
C3 N2 1.334 . S
C3 N4 1.336 . S
N4 Zn0 2.020 . S
N4 C3 1.336 . S
N4 N5 1.354 . S
N5 C1 1.336 . S
N5 N4 1.354 . S
N5 Zn9 2.020 . S
C6 O7 1.244 . S
C6 O30 1.257 . S
O7 C6 1.244 . S
O8 Zn0 2.019 . S
O8 C28 1.257 . S
Zn9 N5 2.020 . S
Zn9 O16 1.975 . S
Zn9 N25 2.119 . S
Zn9 O30 2.019 . S
N10 Zn0 2.119 . S
N10 C12 1.334 . S
N10 C13 1.328 . S
C11 C12 1.391 . S
C11 N14 1.329 . S
C11 H32 0.930 . S
C12 N10 1.334 . S
C12 C11 1.391 . S
C12 H19 0.930 . S
C13 N10 1.328 . S
C13 C15 1.392 . S
C13 H20 0.930 . S
N14 C11 1.329 . S
N14 C15 1.331 . S
C15 C13 1.392 . S
C15 N14 1.331 . S
O16 Zn9 1.975 . S
O16 C17 1.252 . S
C17 O16 1.252 . S
C17 O18 1.252 . S
O18 Zn0 1.975 . S
O18 C17 1.252 . S
H19 C12 0.930 . S
H20 C13 0.930 . S
C21 C22 1.392 . S
C21 N25 1.328 1_556 S
C21 H27 0.930 . S
C22 C21 1.392 . S
C22 N26 1.331 . S
C23 C24 1.391 . S
C23 N26 1.329 1_554 S
C23 H33 0.930 . S
C24 C23 1.391 . S
C24 N25 1.334 . S
C24 H31 0.930 . S
N25 Zn9 2.119 . S
N25 C21 1.328 1_554 S
N25 C24 1.334 . S
N26 C22 1.331 . S
N26 C23 1.329 1_556 S
H27 C21 0.930 . S
C28 O8 1.257 . S
C28 O29 1.244 . S
O29 C28 1.244 . S
O30 C6 1.257 . S
O30 Zn9 2.019 . S
H31 C24 0.930 . S
H32 C11 0.930 . S
H33 C23 0.930 . S
Zn34 N38 2.020 . S
Zn34 O42 2.019 . S
Zn34 N44 2.119 . S
Zn34 O52 1.975 . S
C35 N36 1.334 . S
C35 N39 1.336 . S
N36 C35 1.334 . S
N36 C37 1.334 . S
C37 N36 1.334 . S
C37 N38 1.336 . S
N38 Zn34 2.020 . S
N38 C37 1.336 . S
N38 N39 1.354 . S
N39 C35 1.336 . S
N39 N38 1.354 . S
N39 Zn43 2.020 . S
C40 O41 1.244 . S
C40 O64 1.257 . S
O41 C40 1.244 . S
O42 Zn34 2.019 . S
O42 C62 1.257 . S
Zn43 N39 2.020 . S
Zn43 O50 1.975 . S
Zn43 N59 2.119 . S
Zn43 O64 2.019 . S
N44 Zn34 2.119 . S
N44 C46 1.334 . S
N44 C47 1.328 . S
C45 C46 1.391 . S
C45 N48 1.329 . S
C45 H66 0.930 . S
C46 N44 1.334 . S
C46 C45 1.391 . S
C46 H53 0.930 . S
C47 N44 1.328 . S
C47 C49 1.392 . S
C47 H54 0.930 . S
N48 C45 1.329 . S
N48 C49 1.331 . S
C49 C47 1.392 . S
C49 N48 1.331 . S
O50 Zn43 1.975 . S
O50 C51 1.252 . S
C51 O50 1.252 . S
C51 O52 1.252 . S
O52 Zn34 1.975 . S
O52 C51 1.252 . S
H53 C46 0.930 . S
H54 C47 0.930 . S
C55 C56 1.392 . S
C55 N59 1.328 . S
C55 H61 0.930 . S
C56 C55 1.392 . S
C56 N60 1.331 . S
C57 C58 1.391 . S
C57 N60 1.329 . S
C57 H67 0.930 . S
C58 C57 1.391 . S
C58 N59 1.334 . S
C58 H65 0.930 . S
N59 Zn43 2.119 . S
N59 C55 1.328 . S
N59 C58 1.334 . S
N60 C56 1.331 . S
N60 C57 1.329 . S
H61 C55 0.930 . S
C62 O42 1.257 . S
C62 O63 1.244 . S
O63 C62 1.244 . S
O64 C40 1.257 . S
O64 Zn43 2.019 . S
H65 C58 0.930 . S
H66 C45 0.930 . S
H67 C57 0.930 . S
Zn68 N72 2.020 . S
Zn68 O76 2.019 . S
Zn68 N78 2.119 . S
Zn68 O86 1.975 . S
C69 N70 1.334 . S
C69 N73 1.336 . S
N70 C69 1.334 . S
N70 C71 1.334 . S
C71 N70 1.334 . S
C71 N72 1.336 . S
N72 Zn68 2.020 . S
N72 C71 1.336 . S
N72 N73 1.354 . S
N73 C69 1.336 . S
N73 N72 1.354 . S
N73 Zn77 2.020 . S
C74 O75 1.244 . S
C74 O98 1.257 . S
O75 C74 1.244 . S
O76 Zn68 2.019 . S
O76 C96 1.257 . S
Zn77 N73 2.020 . S
Zn77 O84 1.975 . S
Zn77 N93 2.119 . S
Zn77 O98 2.019 . S
N78 Zn68 2.119 . S
N78 C80 1.334 . S
N78 C81 1.328 . S
C79 C80 1.391 . S
C79 N82 1.329 . S
C79 H100 0.930 . S
C80 N78 1.334 . S
C80 C79 1.391 . S
C80 H87 0.930 . S
C81 N78 1.328 . S
C81 C83 1.392 . S
C81 H88 0.930 . S
N82 C79 1.329 . S
N82 C83 1.331 . S
C83 C81 1.392 . S
C83 N82 1.331 . S
O84 Zn77 1.975 . S
O84 C85 1.252 . S
C85 O84 1.252 . S
C85 O86 1.252 . S
O86 Zn68 1.975 . S
O86 C85 1.252 . S
H87 C80 0.930 . S
H88 C81 0.930 . S
C89 C90 1.392 . S
C89 N93 1.328 . S
C89 H95 0.930 . S
C90 C89 1.392 . S
C90 N94 1.331 . S
C91 C92 1.391 . S
C91 N94 1.329 . S
C91 H101 0.930 . S
C92 C91 1.391 . S
C92 N93 1.334 . S
C92 H99 0.930 . S
N93 Zn77 2.119 . S
N93 C89 1.328 . S
N93 C92 1.334 . S
N94 C90 1.331 . S
N94 C91 1.329 . S
H95 C89 0.930 . S
C96 O76 1.257 . S
C96 O97 1.244 . S
O97 C96 1.244 . S
O98 C74 1.257 . S
O98 Zn77 2.019 . S
H99 C92 0.930 . S
H100 C79 0.930 . S
H101 C91 0.930 . S
Zn102 N106 2.020 . S
Zn102 O110 2.019 . S
Zn102 N112 2.119 . S
Zn102 O120 1.975 . S
C103 N104 1.334 . S
C103 N107 1.336 . S
N104 C103 1.334 . S
N104 C105 1.334 . S
C105 N104 1.334 . S
C105 N106 1.336 . S
N106 Zn102 2.020 . S
N106 C105 1.336 . S
N106 N107 1.354 . S
N107 C103 1.336 . S
N107 N106 1.354 . S
N107 Zn111 2.020 . S
C108 O109 1.244 . S
C108 O132 1.257 . S
O109 C108 1.244 . S
O110 Zn102 2.019 . S
O110 C130 1.257 . S
Zn111 N107 2.020 . S
Zn111 O118 1.975 . S
Zn111 N127 2.119 . S
Zn111 O132 2.019 . S
N112 Zn102 2.119 . S
N112 C114 1.334 . S
N112 C115 1.328 1_556 S
C113 C114 1.391 . S
C113 N116 1.329 1_556 S
C113 H134 0.930 . S
C114 N112 1.334 . S
C114 C113 1.391 . S
C114 H121 0.930 . S
C115 N112 1.328 1_554 S
C115 C117 1.392 . S
C115 H122 0.930 . S
N116 C113 1.329 1_554 S
N116 C117 1.331 . S
C117 C115 1.392 . S
C117 N116 1.331 . S
O118 Zn111 1.975 . S
O118 C119 1.252 . S
C119 O118 1.252 . S
C119 O120 1.252 . S
O120 Zn102 1.975 . S
O120 C119 1.252 . S
H121 C114 0.930 . S
H122 C115 0.930 . S
C123 C124 1.392 . S
C123 N127 1.328 . S
C123 H129 0.930 . S
C124 C123 1.392 . S
C124 N128 1.331 . S
C125 C126 1.391 . S
C125 N128 1.329 . S
C125 H135 0.930 . S
C126 C125 1.391 . S
C126 N127 1.334 . S
C126 H133 0.930 . S
N127 Zn111 2.119 . S
N127 C123 1.328 . S
N127 C126 1.334 . S
N128 C124 1.331 . S
N128 C125 1.329 . S
H129 C123 0.930 . S
C130 O110 1.257 . S
C130 O131 1.244 . S
O131 C130 1.244 . S
O132 C108 1.257 . S
O132 Zn111 2.019 . S
H133 C126 0.930 . S
H134 C113 0.930 . S
H135 C125 0.930 . S
Zn136 N140 2.020 . S
Zn136 O144 2.019 . S
Zn136 N146 2.119 . S
Zn136 O154 1.975 . S
C137 N138 1.334 . S
C137 N141 1.336 . S
N138 C137 1.334 . S
N138 C139 1.334 . S
C139 N138 1.334 . S
C139 N140 1.336 . S
N140 Zn136 2.020 . S
N140 C139 1.336 . S
N140 N141 1.354 . S
N141 C137 1.336 . S
N141 N140 1.354 . S
N141 Zn145 2.020 . S
C142 O143 1.244 . S
C142 O166 1.257 . S
O143 C142 1.244 . S
O144 Zn136 2.019 . S
O144 C164 1.257 . S
Zn145 N141 2.020 . S
Zn145 O152 1.975 . S
Zn145 N161 2.119 . S
Zn145 O166 2.019 . S
N146 Zn136 2.119 . S
N146 C148 1.334 . S
N146 C149 1.328 . S
C147 C148 1.391 . S
C147 N150 1.329 . S
C147 H168 0.930 . S
C148 N146 1.334 . S
C148 C147 1.391 . S
C148 H155 0.930 . S
C149 N146 1.328 . S
C149 C151 1.392 . S
C149 H156 0.930 . S
N150 C147 1.329 . S
N150 C151 1.331 . S
C151 C149 1.392 . S
C151 N150 1.331 . S
O152 Zn145 1.975 . S
O152 C153 1.252 . S
C153 O152 1.252 . S
C153 O154 1.252 . S
O154 Zn136 1.975 . S
O154 C153 1.252 . S
H155 C148 0.930 . S
H156 C149 0.930 . S
C157 C158 1.392 . S
C157 N161 1.328 . S
C157 H163 0.930 . S
C158 C157 1.392 . S
C158 N162 1.331 . S
C159 C160 1.391 . S
C159 N162 1.329 . S
C159 H169 0.930 . S
C160 C159 1.391 . S
C160 N161 1.334 . S
C160 H167 0.930 . S
N161 Zn145 2.119 . S
N161 C157 1.328 . S
N161 C160 1.334 . S
N162 C158 1.331 . S
N162 C159 1.329 . S
H163 C157 0.930 . S
C164 O144 1.257 . S
C164 O165 1.244 . S
O165 C164 1.244 . S
O166 C142 1.257 . S
O166 Zn145 2.019 . S
H167 C160 0.930 . S
H168 C147 0.930 . S
H169 C159 0.930 . S
Zn170 N174 2.020 . S
Zn170 O178 2.019 . S
Zn170 N180 2.119 . S
Zn170 O188 1.975 . S
C171 N172 1.334 . S
C171 N175 1.336 . S
N172 C171 1.334 . S
N172 C173 1.334 . S
C173 N172 1.334 . S
C173 N174 1.336 . S
N174 Zn170 2.020 . S
N174 C173 1.336 . S
N174 N175 1.354 . S
N175 C171 1.336 . S
N175 N174 1.354 . S
N175 Zn179 2.020 . S
C176 O177 1.244 . S
C176 O200 1.257 . S
O177 C176 1.244 . S
O178 Zn170 2.019 . S
O178 C198 1.257 . S
Zn179 N175 2.020 . S
Zn179 O186 1.975 . S
Zn179 N195 2.119 . S
Zn179 O200 2.019 . S
N180 Zn170 2.119 . S
N180 C182 1.334 . S
N180 C183 1.328 . S
C181 C182 1.391 . S
C181 N184 1.329 . S
C181 H202 0.930 . S
C182 N180 1.334 . S
C182 C181 1.391 . S
C182 H189 0.930 . S
C183 N180 1.328 . S
C183 C185 1.392 . S
C183 H190 0.930 . S
N184 C181 1.329 . S
N184 C185 1.331 . S
C185 C183 1.392 . S
C185 N184 1.331 . S
O186 Zn179 1.975 . S
O186 C187 1.252 . S
C187 O186 1.252 . S
C187 O188 1.252 . S
O188 Zn170 1.975 . S
O188 C187 1.252 . S
H189 C182 0.930 . S
H190 C183 0.930 . S
C191 C192 1.392 . S
C191 N195 1.328 . S
C191 H197 0.930 . S
C192 C191 1.392 . S
C192 N196 1.331 . S
C193 C194 1.391 . S
C193 N196 1.329 . S
C193 H203 0.930 . S
C194 C193 1.391 . S
C194 N195 1.334 . S
C194 H201 0.930 . S
N195 Zn179 2.119 . S
N195 C191 1.328 . S
N195 C194 1.334 . S
N196 C192 1.331 . S
N196 C193 1.329 . S
H197 C191 0.930 . S
C198 O178 1.257 . S
C198 O199 1.244 . S
O199 C198 1.244 . S
O200 C176 1.257 . S
O200 Zn179 2.019 . S
H201 C194 0.930 . S
H202 C181 0.930 . S
H203 C193 0.930 . S
H204 C212 0.950 . S
H205 C217 0.950 . S
H206 C214 0.950 . S
H207 C216 0.950 . S
H208 C218 0.950 . S
H209 C220 0.950 . S
H210 C222 0.950 . S
H211 C223 0.950 . S
C212 H204 0.950 . S
C212 C213 1.386 . S
C212 C214 1.391 . S
C213 C212 1.386 . S
C213 C217 1.393 . S
C214 H206 0.950 . S
C214 C212 1.391 . S
C214 C215 1.400 . S
C215 C214 1.400 . S
C215 C216 1.398 . S
C215 C221 1.491 . S
C216 H207 0.950 . S
C216 C215 1.398 . S
C216 C217 1.391 . S
C217 H205 0.950 . S
C217 C213 1.393 . S
C217 C216 1.391 . S
C218 H208 0.950 . S
C218 C219 1.386 . S
C218 C220 1.391 . S
C219 C218 1.386 . S
C219 C223 1.393 . S
C220 H209 0.950 . S
C220 C218 1.391 . S
C220 C221 1.400 . S
C221 C215 1.491 . S
C221 C220 1.400 . S
C221 C222 1.398 . S
C222 H210 0.950 . S
C222 C221 1.398 . S
C222 C223 1.391 . S
C223 H211 0.950 . S
C223 C219 1.393 . S
C223 C222 1.391 . S
H224 C232 0.950 . S
H225 C237 0.950 . S
H226 C234 0.950 . S
H227 C236 0.950 . S
H228 C238 0.950 . S
H229 C240 0.950 . S
H230 C242 0.950 1_545 S
H231 C243 0.950 . S
C232 H224 0.950 . S
C232 C233 1.386 . S
C232 C234 1.391 . S
C233 C232 1.386 . S
C233 C237 1.393 . S
C234 H226 0.950 . S
C234 C232 1.391 . S
C234 C235 1.400 . S
C235 C234 1.400 . S
C235 C236 1.398 . S
C235 C241 1.491 . S
C236 H227 0.950 . S
C236 C235 1.398 . S
C236 C237 1.391 . S
C237 H225 0.950 . S
C237 C233 1.393 . S
C237 C236 1.391 . S
C238 H228 0.950 . S
C238 C239 1.386 . S
C238 C240 1.391 . S
C239 C238 1.386 . S
C239 C243 1.393 1_565 S
C240 H229 0.950 . S
C240 C238 1.391 . S
C240 C241 1.400 . S
C241 C235 1.491 . S
C241 C240 1.400 . S
C241 C242 1.398 . S
C242 H230 0.950 1_565 S
C242 C241 1.398 . S
C242 C243 1.391 1_565 S
C243 H231 0.950 . S
C243 C239 1.393 1_545 S
C243 C242 1.391 1_545 S
H244 C252 0.950 . S
H245 C257 0.950 . S
H246 C254 0.950 . S
H247 C256 0.950 . S
H248 C258 0.950 . S
H249 C260 0.950 . S
H250 C262 0.950 . S
H251 C263 0.950 . S
C252 H244 0.950 . S
C252 C253 1.386 . S
C252 C254 1.391 . S
C253 C252 1.386 . S
C253 C257 1.393 . S
C254 H246 0.950 . S
C254 C252 1.391 . S
C254 C255 1.400 . S
C255 C254 1.400 . S
C255 C256 1.398 . S
C255 C261 1.491 . S
C256 H247 0.950 . S
C256 C255 1.398 . S
C256 C257 1.391 . S
C257 H245 0.950 . S
C257 C253 1.393 . S
C257 C256 1.391 . S
C258 H248 0.950 . S
C258 C259 1.386 . S
C258 C260 1.391 . S
C259 C258 1.386 . S
C259 C263 1.393 . S
C260 H249 0.950 . S
C260 C258 1.391 . S
C260 C261 1.400 . S
C261 C255 1.491 . S
C261 C260 1.400 . S
C261 C262 1.398 . S
C262 H250 0.950 . S
C262 C261 1.398 . S
C262 C263 1.391 . S
C263 H251 0.950 . S
C263 C259 1.393 . S
C263 C262 1.391 . S
H264 C272 0.950 . S
H265 C277 0.950 . S
H266 C274 0.950 . S
H267 C276 0.950 . S
H268 C278 0.950 . S
H269 C280 0.950 . S
H270 C282 0.950 . S
H271 C283 0.950 . S
C272 H264 0.950 . S
C272 C273 1.386 . S
C272 C274 1.391 . S
C273 C272 1.386 . S
C273 C277 1.393 . S
C274 H266 0.950 . S
C274 C272 1.391 . S
C274 C275 1.400 . S
C275 C274 1.400 . S
C275 C276 1.398 . S
C275 C281 1.491 . S
C276 H267 0.950 . S
C276 C275 1.398 . S
C276 C277 1.391 . S
C277 H265 0.950 . S
C277 C273 1.393 . S
C277 C276 1.391 . S
C278 H268 0.950 . S
C278 C279 1.386 . S
C278 C280 1.391 . S
C279 C278 1.386 . S
C279 C283 1.393 . S
C280 H269 0.950 . S
C280 C278 1.391 . S
C280 C281 1.400 . S
C281 C275 1.491 . S
C281 C280 1.400 . S
C281 C282 1.398 . S
C282 H270 0.950 . S
C282 C281 1.398 . S
C282 C283 1.391 . S
C283 H271 0.950 . S
C283 C279 1.393 . S
C283 C282 1.391 . S
H284 C292 0.950 . S
H285 C297 0.950 . S
H286 C294 0.950 . S
H287 C296 0.950 . S
H288 C298 0.950 . S
H289 C300 0.950 . S
H290 C302 0.950 . S
H291 C303 0.950 . S
C292 H284 0.950 . S
C292 C293 1.386 1_565 S
C292 C294 1.391 1_565 S
C293 C292 1.386 1_545 S
C293 C297 1.393 . S
C294 H286 0.950 . S
C294 C292 1.391 1_545 S
C294 C295 1.400 . S
C295 C294 1.400 . S
C295 C296 1.398 . S
C295 C301 1.491 . S
C296 H287 0.950 . S
C296 C295 1.398 . S
C296 C297 1.391 . S
C297 H285 0.950 . S
C297 C293 1.393 . S
C297 C296 1.391 . S
C298 H288 0.950 . S
C298 C299 1.386 . S
C298 C300 1.391 . S
C299 C298 1.386 . S
C299 C303 1.393 . S
C300 H289 0.950 . S
C300 C298 1.391 . S
C300 C301 1.400 . S
C301 C295 1.491 . S
C301 C300 1.400 . S
C301 C302 1.398 . S
C302 H290 0.950 . S
C302 C301 1.398 . S
C302 C303 1.391 . S
C303 H291 0.950 . S
C303 C299 1.393 . S
C303 C302 1.391 . S
H304 C312 0.950 . S
H305 C317 0.950 1_455 S
H306 C314 0.950 . S
H307 C316 0.950 . S
H308 C318 0.950 . S
H309 C320 0.950 . S
H310 C322 0.950 . S
H311 C323 0.950 . S
C312 H304 0.950 . S
C312 C313 1.386 . S
C312 C314 1.391 . S
C313 C312 1.386 . S
C313 C317 1.393 . S
C314 H306 0.950 . S
C314 C312 1.391 . S
C314 C315 1.400 . S
C315 C314 1.400 . S
C315 C316 1.398 . S
C315 C321 1.491 . S
C316 H307 0.950 . S
C316 C315 1.398 . S
C316 C317 1.391 . S
C317 H305 0.950 1_655 S
C317 C313 1.393 . S
C317 C316 1.391 . S
C318 H308 0.950 . S
C318 C319 1.386 . S
C318 C320 1.391 . S
C319 C318 1.386 . S
C319 C323 1.393 . S
C320 H309 0.950 . S
C320 C318 1.391 . S
C320 C321 1.400 . S
C321 C315 1.491 . S
C321 C320 1.400 . S
C321 C322 1.398 . S
C322 H310 0.950 . S
C322 C321 1.398 . S
C322 C323 1.391 . S
C323 H311 0.950 . S
C323 C319 1.393 . S
C323 C322 1.391 . S
H324 C332 0.950 . S
H325 C337 0.950 . S
H326 C334 0.950 . S
H327 C336 0.950 . S
H328 C338 0.950 . S
H329 C340 0.950 . S
H330 C342 0.950 . S
H331 C343 0.950 . S
C332 H324 0.950 . S
C332 C333 1.386 . S
C332 C334 1.391 . S
C333 C332 1.386 . S
C333 C337 1.393 1_556 S
C334 H326 0.950 . S
C334 C332 1.391 . S
C334 C335 1.400 . S
C335 C334 1.400 . S
C335 C336 1.398 1_556 S
C335 C341 1.491 1_556 S
C336 H327 0.950 . S
C336 C335 1.398 1_554 S
C336 C337 1.391 . S
C337 H325 0.950 . S
C337 C333 1.393 1_554 S
C337 C336 1.391 . S
C338 H328 0.950 . S
C338 C339 1.386 . S
C338 C340 1.391 . S
C339 C338 1.386 . S
C339 C343 1.393 1_554 S
C340 H329 0.950 . S
C340 C338 1.391 . S
C340 C341 1.400 . S
C341 C335 1.491 1_554 S
C341 C340 1.400 . S
C341 C342 1.398 1_554 S
C342 H330 0.950 . S
C342 C341 1.398 1_556 S
C342 C343 1.391 . S
C343 H331 0.950 . S
C343 C339 1.393 1_556 S
C343 C342 1.391 . S
H344 C352 0.950 . S
H345 C357 0.950 . S
H346 C354 0.950 . S
H347 C356 0.950 . S
H348 C358 0.950 . S
H349 C360 0.950 . S
H350 C362 0.950 . S
H351 C363 0.950 . S
C352 H344 0.950 . S
C352 C353 1.386 . S
C352 C354 1.391 . S
C353 C352 1.386 . S
C353 C357 1.393 . S
C354 H346 0.950 . S
C354 C352 1.391 . S
C354 C355 1.400 . S
C355 C354 1.400 . S
C355 C356 1.398 . S
C355 C361 1.491 1_545 S
C356 H347 0.950 . S
C356 C355 1.398 . S
C356 C357 1.391 . S
C357 H345 0.950 . S
C357 C353 1.393 . S
C357 C356 1.391 . S
C358 H348 0.950 . S
C358 C359 1.386 . S
C358 C360 1.391 . S
C359 C358 1.386 . S
C359 C363 1.393 . S
C360 H349 0.950 . S
C360 C358 1.391 . S
C360 C361 1.400 . S
C361 C355 1.491 1_565 S
C361 C360 1.400 . S
C361 C362 1.398 . S
C362 H350 0.950 . S
C362 C361 1.398 . S
C362 C363 1.391 . S
C363 H351 0.950 . S
C363 C359 1.393 . S
C363 C362 1.391 . S
H364 C372 0.950 . S
H365 C377 0.950 . S
H366 C374 0.950 . S
H367 C376 0.950 . S
H368 C378 0.950 . S
H369 C380 0.950 . S
H370 C382 0.950 . S
H371 C383 0.950 . S
C372 H364 0.950 . S
C372 C373 1.386 . S
C372 C374 1.391 . S
C373 C372 1.386 . S
C373 C377 1.393 . S
C374 H366 0.950 . S
C374 C372 1.391 . S
C374 C375 1.400 . S
C375 C374 1.400 . S
C375 C376 1.398 . S
C375 C381 1.491 1_655 S
C376 H367 0.950 . S
C376 C375 1.398 . S
C376 C377 1.391 . S
C377 H365 0.950 . S
C377 C373 1.393 . S
C377 C376 1.391 . S
C378 H368 0.950 . S
C378 C379 1.386 . S
C378 C380 1.391 . S
C379 C378 1.386 . S
C379 C383 1.393 . S
C380 H369 0.950 . S
C380 C378 1.391 . S
C380 C381 1.400 . S
C381 C375 1.491 1_455 S
C381 C380 1.400 . S
C381 C382 1.398 . S
C382 H370 0.950 . S
C382 C381 1.398 . S
C382 C383 1.391 . S
C383 H371 0.950 . S
C383 C379 1.393 . S
C383 C382 1.391 . S
H384 C392 0.950 . S
H385 C397 0.950 . S
H386 C394 0.950 . S
H387 C396 0.950 . S
H388 C398 0.950 . S
H389 C400 0.950 . S
H390 C402 0.950 . S
H391 C403 0.950 . S
C392 H384 0.950 . S
C392 C393 1.386 1_455 S
C392 C394 1.391 . S
C393 C392 1.386 1_655 S
C393 C397 1.393 . S
C394 H386 0.950 . S
C394 C392 1.391 . S
C394 C395 1.400 1_455 S
C395 C394 1.400 1_655 S
C395 C396 1.398 . S
C395 C401 1.491 1_655 S
C396 H387 0.950 . S
C396 C395 1.398 . S
C396 C397 1.391 . S
C397 H385 0.950 . S
C397 C393 1.393 . S
C397 C396 1.391 . S
C398 H388 0.950 . S
C398 C399 1.386 1_655 S
C398 C400 1.391 . S
C399 C398 1.386 1_455 S
C399 C403 1.393 . S
C400 H389 0.950 . S
C400 C398 1.391 . S
C400 C401 1.400 1_655 S
C401 C395 1.491 1_455 S
C401 C400 1.400 1_455 S
C401 C402 1.398 . S
C402 H390 0.950 . S
C402 C401 1.398 . S
C402 C403 1.391 . S
C403 H391 0.950 . S
C403 C399 1.393 . S
C403 C402 1.391 . S
H404 C412 0.950 . S
H405 C417 0.950 . S
H406 C414 0.950 . S
H407 C416 0.950 . S
H408 C418 0.950 . S
H409 C420 0.950 . S
H410 C422 0.950 . S
H411 C423 0.950 . S
C412 H404 0.950 . S
C412 C413 1.386 . S
C412 C414 1.391 . S
C413 C412 1.386 . S
C413 C417 1.393 . S
C414 H406 0.950 . S
C414 C412 1.391 . S
C414 C415 1.400 . S
C415 C414 1.400 . S
C415 C416 1.398 . S
C415 C421 1.491 1_556 S
C416 H407 0.950 . S
C416 C415 1.398 . S
C416 C417 1.391 . S
C417 H405 0.950 . S
C417 C413 1.393 . S
C417 C416 1.391 . S
C418 H408 0.950 . S
C418 C419 1.386 . S
C418 C420 1.391 . S
C419 C418 1.386 . S
C419 C423 1.393 . S
C420 H409 0.950 . S
C420 C418 1.391 . S
C420 C421 1.400 . S
C421 C415 1.491 1_554 S
C421 C420 1.400 . S
C421 C422 1.398 . S
C422 H410 0.950 . S
C422 C421 1.398 . S
C422 C423 1.391 . S
C423 H411 0.950 . S
C423 C419 1.393 . S
C423 C422 1.391 . S
H424 C432 0.950 . S
H425 C437 0.950 . S
H426 C434 0.950 . S
H427 C436 0.950 . S
H428 C438 0.950 . S
H429 C440 0.950 . S
H430 C442 0.950 . S
H431 C443 0.950 . S
C432 H424 0.950 . S
C432 C433 1.386 1_565 S
C432 C434 1.391 . S
C433 C432 1.386 1_545 S
C433 C437 1.393 . S
C434 H426 0.950 . S
C434 C432 1.391 . S
C434 C435 1.400 1_565 S
C435 C434 1.400 1_545 S
C435 C436 1.398 . S
C435 C441 1.491 1_545 S
C436 H427 0.950 . S
C436 C435 1.398 . S
C436 C437 1.391 . S
C437 H425 0.950 . S
C437 C433 1.393 . S
C437 C436 1.391 . S
C438 H428 0.950 . S
C438 C439 1.386 1_545 S
C438 C440 1.391 . S
C439 C438 1.386 1_565 S
C439 C443 1.393 . S
C440 H429 0.950 . S
C440 C438 1.391 . S
C440 C441 1.400 1_545 S
C441 C435 1.491 1_565 S
C441 C440 1.400 1_565 S
C441 C442 1.398 . S
C442 H430 0.950 . S
C442 C441 1.398 . S
C442 C443 1.391 . S
C443 H431 0.950 . S
C443 C439 1.393 . S
C443 C442 1.391 . S
H444 C452 0.950 . S
H445 C457 0.950 . S
H446 C454 0.950 . S
H447 C456 0.950 . S
H448 C458 0.950 . S
H449 C460 0.950 . S
H450 C462 0.950 . S
H451 C463 0.950 . S
C452 H444 0.950 . S
C452 C453 1.386 . S
C452 C454 1.391 . S
C453 C452 1.386 . S
C453 C457 1.393 . S
C454 H446 0.950 . S
C454 C452 1.391 . S
C454 C455 1.400 . S
C455 C454 1.400 . S
C455 C456 1.398 . S
C455 C461 1.491 . S
C456 H447 0.950 . S
C456 C455 1.398 . S
C456 C457 1.391 . S
C457 H445 0.950 . S
C457 C453 1.393 . S
C457 C456 1.391 . S
C458 H448 0.950 . S
C458 C459 1.386 . S
C458 C460 1.391 . S
C459 C458 1.386 . S
C459 C463 1.393 . S
C460 H449 0.950 . S
C460 C458 1.391 . S
C460 C461 1.400 . S
C461 C455 1.491 . S
C461 C460 1.400 . S
C461 C462 1.398 . S
C462 H450 0.950 . S
C462 C461 1.398 . S
C462 C463 1.391 . S
C463 H451 0.950 . S
C463 C459 1.393 . S
C463 C462 1.391 . S
H464 C472 0.950 . S
H465 C477 0.950 . S
H466 C474 0.950 . S
H467 C476 0.950 . S
H468 C478 0.950 . S
H469 C480 0.950 . S
H470 C482 0.950 . S
H471 C483 0.950 . S
C472 H464 0.950 . S
C472 C473 1.386 . S
C472 C474 1.391 . S
C473 C472 1.386 . S
C473 C477 1.393 . S
C474 H466 0.950 . S
C474 C472 1.391 . S
C474 C475 1.400 . S
C475 C474 1.400 . S
C475 C476 1.398 . S
C475 C481 1.491 . S
C476 H467 0.950 . S
C476 C475 1.398 . S
C476 C477 1.391 . S
C477 H465 0.950 . S
C477 C473 1.393 . S
C477 C476 1.391 . S
C478 H468 0.950 . S
C478 C479 1.386 . S
C478 C480 1.391 . S
C479 C478 1.386 . S
C479 C483 1.393 . S
C480 H469 0.950 . S
C480 C478 1.391 . S
C480 C481 1.400 . S
C481 C475 1.491 . S
C481 C480 1.400 . S
C481 C482 1.398 . S
C482 H470 0.950 . S
C482 C481 1.398 . S
C482 C483 1.391 . S
C483 H471 0.950 . S
C483 C479 1.393 . S
C483 C482 1.391 . S
H484 C492 0.950 . S
H485 C497 0.950 . S
H486 C494 0.950 . S
H487 C496 0.950 . S
H488 C498 0.950 . S
H489 C500 0.950 . S
H490 C502 0.950 . S
H491 C503 0.950 . S
C492 H484 0.950 . S
C492 C493 1.386 . S
C492 C494 1.391 . S
C493 C492 1.386 . S
C493 C497 1.393 . S
C494 H486 0.950 . S
C494 C492 1.391 . S
C494 C495 1.400 . S
C495 C494 1.400 . S
C495 C496 1.398 . S
C495 C501 1.491 . S
C496 H487 0.950 . S
C496 C495 1.398 . S
C496 C497 1.391 . S
C497 H485 0.950 . S
C497 C493 1.393 . S
C497 C496 1.391 . S
C498 H488 0.950 . S
C498 C499 1.386 . S
C498 C500 1.391 . S
C499 C498 1.386 . S
C499 C503 1.393 . S
C500 H489 0.950 . S
C500 C498 1.391 . S
C500 C501 1.400 . S
C501 C495 1.491 . S
C501 C500 1.400 . S
C501 C502 1.398 . S
C502 H490 0.950 . S
C502 C501 1.398 . S
C502 C503 1.391 . S
C503 H491 0.950 . S
C503 C499 1.393 . S
C503 C502 1.391 . S
H504 C512 0.950 . S
H505 C517 0.950 . S
H506 C514 0.950 . S
H507 C516 0.950 . S
H508 C518 0.950 . S
H509 C520 0.950 . S
H510 C522 0.950 . S
H511 C523 0.950 . S
C512 H504 0.950 . S
C512 C513 1.386 . S
C512 C514 1.391 . S
C513 C512 1.386 . S
C513 C517 1.393 . S
C514 H506 0.950 . S
C514 C512 1.391 . S
C514 C515 1.400 . S
C515 C514 1.400 . S
C515 C516 1.398 . S
C515 C521 1.491 . S
C516 H507 0.950 . S
C516 C515 1.398 . S
C516 C517 1.391 . S
C517 H505 0.950 . S
C517 C513 1.393 . S
C517 C516 1.391 . S
C518 H508 0.950 . S
C518 C519 1.386 . S
C518 C520 1.391 . S
C519 C518 1.386 . S
C519 C523 1.393 . S
C520 H509 0.950 . S
C520 C518 1.391 . S
C520 C521 1.400 . S
C521 C515 1.491 . S
C521 C520 1.400 . S
C521 C522 1.398 . S
C522 H510 0.950 . S
C522 C521 1.398 . S
C522 C523 1.391 . S
C523 H511 0.950 . S
C523 C519 1.393 . S
C523 C522 1.391 . S
H524 C532 0.950 . S
H525 C537 0.950 . S
H526 C534 0.950 . S
H527 C536 0.950 . S
H528 C538 0.950 . S
H529 C540 0.950 . S
H530 C542 0.950 . S
H531 C543 0.950 . S
C532 H524 0.950 . S
C532 C533 1.386 . S
C532 C534 1.391 . S
C533 C532 1.386 . S
C533 C537 1.393 . S
C534 H526 0.950 . S
C534 C532 1.391 . S
C534 C535 1.400 . S
C535 C534 1.400 . S
C535 C536 1.398 . S
C535 C541 1.491 . S
C536 H527 0.950 . S
C536 C535 1.398 . S
C536 C537 1.391 . S
C537 H525 0.950 . S
C537 C533 1.393 . S
C537 C536 1.391 . S
C538 H528 0.950 . S
C538 C539 1.386 . S
C538 C540 1.391 . S
C539 C538 1.386 . S
C539 C543 1.393 . S
C540 H529 0.950 . S
C540 C538 1.391 . S
C540 C541 1.400 . S
C541 C535 1.491 . S
C541 C540 1.400 . S
C541 C542 1.398 . S
C542 H530 0.950 . S
C542 C541 1.398 . S
C542 C543 1.391 . S
C543 H531 0.950 . S
C543 C539 1.393 . S
C543 C542 1.391 . S
H544 C552 0.950 . S
H545 C557 0.950 . S
H546 C554 0.950 . S
H547 C556 0.950 . S
H548 C558 0.950 . S
H549 C560 0.950 . S
H550 C562 0.950 . S
H551 C563 0.950 . S
C552 H544 0.950 . S
C552 C553 1.386 . S
C552 C554 1.391 . S
C553 C552 1.386 . S
C553 C557 1.393 . S
C554 H546 0.950 . S
C554 C552 1.391 . S
C554 C555 1.400 . S
C555 C554 1.400 . S
C555 C556 1.398 . S
C555 C561 1.491 . S
C556 H547 0.950 . S
C556 C555 1.398 . S
C556 C557 1.391 . S
C557 H545 0.950 . S
C557 C553 1.393 . S
C557 C556 1.391 . S
C558 H548 0.950 . S
C558 C559 1.386 . S
C558 C560 1.391 . S
C559 C558 1.386 . S
C559 C563 1.393 . S
C560 H549 0.950 . S
C560 C558 1.391 . S
C560 C561 1.400 . S
C561 C555 1.491 . S
C561 C560 1.400 . S
C561 C562 1.398 . S
C562 H550 0.950 . S
C562 C561 1.398 . S
C562 C563 1.391 . S
C563 H551 0.950 . S
C563 C559 1.393 . S
C563 C562 1.391 . S
H564 C572 0.950 . S
H565 C577 0.950 . S
H566 C574 0.950 . S
H567 C576 0.950 . S
H568 C578 0.950 . S
H569 C580 0.950 . S
H570 C582 0.950 . S
H571 C583 0.950 . S
C572 H564 0.950 . S
C572 C573 1.386 1_455 S
C572 C574 1.391 . S
C573 C572 1.386 1_655 S
C573 C577 1.393 . S
C574 H566 0.950 . S
C574 C572 1.391 . S
C574 C575 1.400 1_455 S
C575 C574 1.400 1_655 S
C575 C576 1.398 . S
C575 C581 1.491 1_655 S
C576 H567 0.950 . S
C576 C575 1.398 . S
C576 C577 1.391 . S
C577 H565 0.950 . S
C577 C573 1.393 . S
C577 C576 1.391 . S
C578 H568 0.950 . S
C578 C579 1.386 1_655 S
C578 C580 1.391 . S
C579 C578 1.386 1_455 S
C579 C583 1.393 . S
C580 H569 0.950 . S
C580 C578 1.391 . S
C580 C581 1.400 1_655 S
C581 C575 1.491 1_455 S
C581 C580 1.400 1_455 S
C581 C582 1.398 . S
C582 H570 0.950 . S
C582 C581 1.398 . S
C582 C583 1.391 . S
C583 H571 0.950 . S
C583 C579 1.393 . S
C583 C582 1.391 . S
H584 C592 0.950 . S
H585 C597 0.950 . S
H586 C594 0.950 . S
H587 C596 0.950 . S
H588 C598 0.950 . S
H589 C600 0.950 . S
H590 C602 0.950 . S
H591 C603 0.950 . S
C592 H584 0.950 . S
C592 C593 1.386 . S
C592 C594 1.391 . S
C593 C592 1.386 . S
C593 C597 1.393 . S
C594 H586 0.950 . S
C594 C592 1.391 . S
C594 C595 1.400 . S
C595 C594 1.400 . S
C595 C596 1.398 . S
C595 C601 1.491 . S
C596 H587 0.950 . S
C596 C595 1.398 . S
C596 C597 1.391 . S
C597 H585 0.950 . S
C597 C593 1.393 . S
C597 C596 1.391 . S
C598 H588 0.950 . S
C598 C599 1.386 . S
C598 C600 1.391 . S
C599 C598 1.386 . S
C599 C603 1.393 . S
C600 H589 0.950 . S
C600 C598 1.391 . S
C600 C601 1.400 . S
C601 C595 1.491 . S
C601 C600 1.400 . S
C601 C602 1.398 . S
C602 H590 0.950 . S
C602 C601 1.398 . S
C602 C603 1.391 . S
C603 H591 0.950 . S
C603 C599 1.393 . S
C603 C602 1.391 . S
H604 C612 0.950 . S
H605 C617 0.950 . S
H606 C614 0.950 . S
H607 C616 0.950 . S
H608 C618 0.950 . S
H609 C620 0.950 . S
H610 C622 0.950 . S
H611 C623 0.950 . S
C612 H604 0.950 . S
C612 C613 1.386 . S
C612 C614 1.391 . S
C613 C612 1.386 . S
C613 C617 1.393 1_545 S
C614 H606 0.950 . S
C614 C612 1.391 . S
C614 C615 1.400 . S
C615 C614 1.400 . S
C615 C616 1.398 1_545 S
C615 C621 1.491 1_545 S
C616 H607 0.950 . S
C616 C615 1.398 1_565 S
C616 C617 1.391 . S
C617 H605 0.950 . S
C617 C613 1.393 1_565 S
C617 C616 1.391 . S
C618 H608 0.950 . S
C618 C619 1.386 . S
C618 C620 1.391 . S
C619 C618 1.386 . S
C619 C623 1.393 1_565 S
C620 H609 0.950 . S
C620 C618 1.391 . S
C620 C621 1.400 . S
C621 C615 1.491 1_565 S
C621 C620 1.400 . S
C621 C622 1.398 1_565 S
C622 H610 0.950 . S
C622 C621 1.398 1_545 S
C622 C623 1.391 . S
C623 H611 0.950 . S
C623 C619 1.393 1_545 S
C623 C622 1.391 . S
C213 C173 2.534 . S
C219 C17 2.548 . S
C233 C51 2.544 . S
C239 C103 2.533 1_565 S
C253 C85 2.544 . S
C259 C137 2.538 1_455 S
C273 C35 2.533 . S
C279 C119 2.543 . S
C293 C71 2.534 1_545 S
C299 C153 2.547 . S
C313 C3 2.539 1_655 S
C319 C187 2.550 . S
C333 C130 0.519 . S
C339 C6 0.498 . S
C353 C164 0.506 . S
C359 C62 0.506 . S
C373 C176 0.547 . S
C379 C74 0.576 . S
C393 C158 0.548 . S
C399 C15 0.579 . S
C413 C56 0.571 . S
C419 C185 0.564 . S
C433 C124 0.548 . S
C439 C83 0.579 . S
C453 C22 0.416 . S
C459 C40 0.164 . S
C473 C96 0.235 . S
C479 C49 0.369 . S
C493 C28 0.169 . S
C499 C90 0.407 . S
C513 C117 0.401 . S
C519 C198 0.238 . S
C533 C151 0.413 . S
C539 C108 0.166 . S
C553 C142 0.156 . S
C559 C192 0.434 . S
C573 C139 3.401 . S
C579 C1 3.409 1_556 S
C593 C37 3.405 . S
C599 C171 3.399 . S
C613 C105 3.406 1_554 S
C619 C69 3.399 . S
