# Generated by pormake.
# Topology uke, (4)-cn, num edge types: 1
# Building blocks:
#     Node 0, Type 0, BuildingBlock: CEKHIL_clean_sbu_0, # of connection points: 4
#     Node 1, Type 0, BuildingBlock: CEKHIL_clean_sbu_0, # of connection points: 4
#     Node 2, Type 0, BuildingBlock: CEKHIL_clean_sbu_0, # of connection points: 4
#     Node 3, Type 0, BuildingBlock: CEKHIL_clean_sbu_0, # of connection points: 4
#     Node 4, Type 0, BuildingBlock: CEKHIL_clean_sbu_0, # of connection points: 4
#     Node 5, Type 0, BuildingBlock: CEKHIL_clean_sbu_0, # of connection points: 4
#     Node 6, Type 0, BuildingBlock: CEKHIL_clean_sbu_0, # of connection points: 4
#     Node 7, Type 0, BuildingBlock: CEKHIL_clean_sbu_0, # of connection points: 4
#     Node 8, Type 0, BuildingBlock: CEKHIL_clean_sbu_0, # of connection points: 4
#     Node 9, Type 0, BuildingBlock: CEKHIL_clean_sbu_0, # of connection points: 4
#     Node 10, Type 0, BuildingBlock: CEKHIL_clean_sbu_0, # of connection points: 4
#     Node 11, Type 0, BuildingBlock: CEKHIL_clean_sbu_0, # of connection points: 4
#     Node 12, Type 0, BuildingBlock: CEKHIL_clean_sbu_0, # of connection points: 4
#     Node 13, Type 0, BuildingBlock: CEKHIL_clean_sbu_0, # of connection points: 4
#     Node 14, Type 0, BuildingBlock: CEKHIL_clean_sbu_0, # of connection points: 4
#     Node 15, Type 0, BuildingBlock: CEKHIL_clean_sbu_0, # of connection points: 4
#     Node 16, Type 0, BuildingBlock: CEKHIL_clean_sbu_0, # of connection points: 4
#     Node 17, Type 0, BuildingBlock: CEKHIL_clean_sbu_0, # of connection points: 4
#     Node 18, Type 0, BuildingBlock: CEKHIL_clean_sbu_0, # of connection points: 4
#     Node 19, Type 0, BuildingBlock: CEKHIL_clean_sbu_0, # of connection points: 4
#     Node 20, Type 0, BuildingBlock: CEKHIL_clean_sbu_0, # of connection points: 4
#     Node 21, Type 0, BuildingBlock: CEKHIL_clean_sbu_0, # of connection points: 4
#     Node 22, Type 0, BuildingBlock: CEKHIL_clean_sbu_0, # of connection points: 4
#     Node 23, Type 0, BuildingBlock: CEKHIL_clean_sbu_0, # of connection points: 4
#     Node 24, Type 0, BuildingBlock: CEKHIL_clean_sbu_0, # of connection points: 4
#     Node 25, Type 0, BuildingBlock: CEKHIL_clean_sbu_0, # of connection points: 4
#     Node 26, Type 0, BuildingBlock: CEKHIL_clean_sbu_0, # of connection points: 4
#     Node 27, Type 0, BuildingBlock: CEKHIL_clean_sbu_0, # of connection points: 4
#     Node 28, Type 0, BuildingBlock: CEKHIL_clean_sbu_0, # of connection points: 4
#     Node 29, Type 0, BuildingBlock: CEKHIL_clean_sbu_0, # of connection points: 4
#     Node 30, Type 0, BuildingBlock: CEKHIL_clean_sbu_0, # of connection points: 4
#     Node 31, Type 0, BuildingBlock: CEKHIL_clean_sbu_0, # of connection points: 4
#     Edge 32, Type (0, 0), BuildingBlock: CIFDUS_clean_linker_0, # of connection points: 2
#     Edge 33, Type (0, 0), BuildingBlock: CIFDUS_clean_linker_0, # of connection points: 2
#     Edge 34, Type (0, 0), BuildingBlock: CIFDUS_clean_linker_0, # of connection points: 2
#     Edge 35, Type (0, 0), BuildingBlock: CIFDUS_clean_linker_0, # of connection points: 2
#     Edge 36, Type (0, 0), BuildingBlock: CIFDUS_clean_linker_0, # of connection points: 2
#     Edge 37, Type (0, 0), BuildingBlock: CIFDUS_clean_linker_0, # of connection points: 2
#     Edge 38, Type (0, 0), BuildingBlock: CIFDUS_clean_linker_0, # of connection points: 2
#     Edge 39, Type (0, 0), BuildingBlock: CIFDUS_clean_linker_0, # of connection points: 2
#     Edge 40, Type (0, 0), BuildingBlock: CIFDUS_clean_linker_0, # of connection points: 2
#     Edge 41, Type (0, 0), BuildingBlock: CIFDUS_clean_linker_0, # of connection points: 2
#     Edge 42, Type (0, 0), BuildingBlock: CIFDUS_clean_linker_0, # of connection points: 2
#     Edge 43, Type (0, 0), BuildingBlock: CIFDUS_clean_linker_0, # of connection points: 2
#     Edge 44, Type (0, 0), BuildingBlock: CIFDUS_clean_linker_0, # of connection points: 2
#     Edge 45, Type (0, 0), BuildingBlock: CIFDUS_clean_linker_0, # of connection points: 2
#     Edge 46, Type (0, 0), BuildingBlock: CIFDUS_clean_linker_0, # of connection points: 2
#     Edge 47, Type (0, 0), BuildingBlock: CIFDUS_clean_linker_0, # of connection points: 2
#     Edge 48, Type (0, 0), BuildingBlock: CIFDUS_clean_linker_0, # of connection points: 2
#     Edge 49, Type (0, 0), BuildingBlock: CIFDUS_clean_linker_0, # of connection points: 2
#     Edge 50, Type (0, 0), BuildingBlock: CIFDUS_clean_linker_0, # of connection points: 2
#     Edge 51, Type (0, 0), BuildingBlock: CIFDUS_clean_linker_0, # of connection points: 2
#     Edge 52, Type (0, 0), BuildingBlock: CIFDUS_clean_linker_0, # of connection points: 2
#     Edge 53, Type (0, 0), BuildingBlock: CIFDUS_clean_linker_0, # of connection points: 2
#     Edge 54, Type (0, 0), BuildingBlock: CIFDUS_clean_linker_0, # of connection points: 2
#     Edge 55, Type (0, 0), BuildingBlock: CIFDUS_clean_linker_0, # of connection points: 2
#     Edge 56, Type (0, 0), BuildingBlock: CIFDUS_clean_linker_0, # of connection points: 2
#     Edge 57, Type (0, 0), BuildingBlock: CIFDUS_clean_linker_0, # of connection points: 2
#     Edge 58, Type (0, 0), BuildingBlock: CIFDUS_clean_linker_0, # of connection points: 2
#     Edge 59, Type (0, 0), BuildingBlock: CIFDUS_clean_linker_0, # of connection points: 2
#     Edge 60, Type (0, 0), BuildingBlock: CIFDUS_clean_linker_0, # of connection points: 2
#     Edge 61, Type (0, 0), BuildingBlock: CIFDUS_clean_linker_0, # of connection points: 2
#     Edge 62, Type (0, 0), BuildingBlock: CIFDUS_clean_linker_0, # of connection points: 2
#     Edge 63, Type (0, 0), BuildingBlock: CIFDUS_clean_linker_0, # of connection points: 2
#     Edge 64, Type (0, 0), BuildingBlock: CIFDUS_clean_linker_0, # of connection points: 2
#     Edge 65, Type (0, 0), BuildingBlock: CIFDUS_clean_linker_0, # of connection points: 2
#     Edge 66, Type (0, 0), BuildingBlock: CIFDUS_clean_linker_0, # of connection points: 2
#     Edge 67, Type (0, 0), BuildingBlock: CIFDUS_clean_linker_0, # of connection points: 2
#     Edge 68, Type (0, 0), BuildingBlock: CIFDUS_clean_linker_0, # of connection points: 2
#     Edge 69, Type (0, 0), BuildingBlock: CIFDUS_clean_linker_0, # of connection points: 2
#     Edge 70, Type (0, 0), BuildingBlock: CIFDUS_clean_linker_0, # of connection points: 2
#     Edge 71, Type (0, 0), BuildingBlock: CIFDUS_clean_linker_0, # of connection points: 2
#     Edge 72, Type (0, 0), BuildingBlock: CIFDUS_clean_linker_0, # of connection points: 2
#     Edge 73, Type (0, 0), BuildingBlock: CIFDUS_clean_linker_0, # of connection points: 2
#     Edge 74, Type (0, 0), BuildingBlock: CIFDUS_clean_linker_0, # of connection points: 2
#     Edge 75, Type (0, 0), BuildingBlock: CIFDUS_clean_linker_0, # of connection points: 2
#     Edge 76, Type (0, 0), BuildingBlock: CIFDUS_clean_linker_0, # of connection points: 2
#     Edge 77, Type (0, 0), BuildingBlock: CIFDUS_clean_linker_0, # of connection points: 2
#     Edge 78, Type (0, 0), BuildingBlock: CIFDUS_clean_linker_0, # of connection points: 2
#     Edge 79, Type (0, 0), BuildingBlock: CIFDUS_clean_linker_0, # of connection points: 2
#     Edge 80, Type (0, 0), BuildingBlock: CIFDUS_clean_linker_0, # of connection points: 2
#     Edge 81, Type (0, 0), BuildingBlock: CIFDUS_clean_linker_0, # of connection points: 2
#     Edge 82, Type (0, 0), BuildingBlock: CIFDUS_clean_linker_0, # of connection points: 2
#     Edge 83, Type (0, 0), BuildingBlock: CIFDUS_clean_linker_0, # of connection points: 2
#     Edge 84, Type (0, 0), BuildingBlock: CIFDUS_clean_linker_0, # of connection points: 2
#     Edge 85, Type (0, 0), BuildingBlock: CIFDUS_clean_linker_0, # of connection points: 2
#     Edge 86, Type (0, 0), BuildingBlock: CIFDUS_clean_linker_0, # of connection points: 2
#     Edge 87, Type (0, 0), BuildingBlock: CIFDUS_clean_linker_0, # of connection points: 2
#     Edge 88, Type (0, 0), BuildingBlock: CIFDUS_clean_linker_0, # of connection points: 2
#     Edge 89, Type (0, 0), BuildingBlock: CIFDUS_clean_linker_0, # of connection points: 2
#     Edge 90, Type (0, 0), BuildingBlock: CIFDUS_clean_linker_0, # of connection points: 2
#     Edge 91, Type (0, 0), BuildingBlock: CIFDUS_clean_linker_0, # of connection points: 2
#     Edge 92, Type (0, 0), BuildingBlock: CIFDUS_clean_linker_0, # of connection points: 2
#     Edge 93, Type (0, 0), BuildingBlock: CIFDUS_clean_linker_0, # of connection points: 2
#     Edge 94, Type (0, 0), BuildingBlock: CIFDUS_clean_linker_0, # of connection points: 2
#     Edge 95, Type (0, 0), BuildingBlock: CIFDUS_clean_linker_0, # of connection points: 2
# Relax obj value: 0.083
# Max RMSD: 0.184
# Mean RMSD: 0.184
data_MOF--net-uke--node1-CEKHIL_clean_sbu_0--edge1-CIFDUS_clean_linker_0
_symmetry_space_group_name_H-M    P1
_symmetry_Int_Tables_number       1
_symmetry_cell_setting            triclinic
loop_
_symmetry_equiv_pos_as_xyz
'x, y, z'
_cell_length_a     17.360814
_cell_length_b     95.01696
_cell_length_c     47.578317
_cell_angle_alpha  90.01778
_cell_angle_beta   90.001799
_cell_angle_gamma 89.994269
loop_
_atom_site_label
_atom_site_type_symbol
_atom_site_fract_x
_atom_site_fract_y
_atom_site_fract_z
_atom_type_partial_charge
Co0 Co 0.11538 0.05473 0.27021 0.0
O1 O 0.09768 0.05371 0.30967 0.0
O2 O 0.00763 0.05848 0.27805 0.0
C3 C 0.18303 0.03478 0.26658 0.0
O4 O 0.11709 0.05605 0.22732 0.0
Co5 Co 0.28438 0.05919 0.25207 0.0
O6 O 0.24187 0.05471 0.21446 0.0
C7 C 0.1976 0.08322 0.27379 0.0
C8 C 0.02645 0.05666 0.30435 0.0
C9 C 0.17029 0.05493 0.20844 0.0
O10 O 0.13767 0.07536 0.27378 0.0
O11 O 0.26489 0.07856 0.26787 0.0
O12 O 0.10837 0.0345 0.26693 0.0
O13 O 0.21425 0.04686 0.27221 0.0
Co14 Co 0.16812 0.191 0.27828 0.0
O15 O 0.18384 0.19211 0.31781 0.0
O16 O 0.27248 0.18514 0.28732 0.0
C17 C 0.11332 0.21212 0.27295 0.0
O18 O 0.1671 0.18912 0.23539 0.0
Co19 Co 0.99763 0.18934 0.26028 0.0
O20 O 0.04318 0.19231 0.22262 0.0
C21 C 0.0721 0.16377 0.28045 0.0
C22 C 0.25289 0.18754 0.31338 0.0
C23 C 0.11415 0.19067 0.21651 0.0
O24 O 0.13411 0.17099 0.28226 0.0
O25 O 0.00741 0.16925 0.27359 0.0
O26 O 0.18761 0.21089 0.27416 0.0
O27 O 0.07451 0.20085 0.27917 0.0
Co28 Co 0.07922 0.1881 0.98784 0.0
O29 O 0.05581 0.18884 0.94874 0.0
O30 O 0.97395 0.18188 0.98167 0.0
C31 C 0.13253 0.20955 0.99103 0.0
O32 O 0.08711 0.18659 0.03061 0.0
Co33 Co 0.25066 0.18718 0.00304 0.0
O34 O 0.21165 0.19028 0.04166 0.0
C35 C 0.17802 0.16132 0.98327 0.0
C36 C 0.98815 0.18413 0.95512 0.0
C37 C 0.14149 0.18854 0.04874 0.0
O38 O 0.1144 0.16812 0.98334 0.0
O39 O 0.24262 0.16721 0.98875 0.0
O40 O 0.05847 0.20791 0.99198 0.0
O41 O 0.17182 0.19839 0.98431 0.0
Co42 Co 0.18076 0.05228 0.97908 0.0
O43 O 0.19711 0.05183 0.93945 0.0
O44 O 0.28455 0.05857 0.9706 0.0
C45 C 0.12763 0.03083 0.98302 0.0
O46 O 0.18016 0.05353 0.022 0.0
Co47 Co 0.0112 0.053 0.99796 0.0
O48 O 0.05742 0.04974 0.03544 0.0
C49 C 0.08175 0.07915 0.97844 0.0
C50 C 0.26571 0.05653 0.94437 0.0
C51 C 0.1285 0.05155 0.04115 0.0
O52 O 0.14499 0.0723 0.97625 0.0
O53 O 0.0181 0.07322 0.98511 0.0
O54 O 0.20179 0.03235 0.98205 0.0
O55 O 0.08787 0.04209 0.97758 0.0
Co56 Co 0.91359 0.94023 0.73198 0.0
O57 O 0.9323 0.94095 0.69268 0.0
O58 O 0.0227 0.93755 0.72491 0.0
C59 C 0.83939 0.9593 0.73439 0.0
O60 O 0.90984 0.93937 0.77484 0.0
Co61 Co 0.74558 0.93366 0.74858 0.0
O62 O 0.78387 0.93894 0.78641 0.0
C63 C 0.84378 0.9107 0.72958 0.0
C64 C 0.00405 0.93874 0.69844 0.0
C65 C 0.85486 0.93979 0.79313 0.0
O66 O 0.89955 0.91946 0.7296 0.0
O67 O 0.77392 0.91432 0.73426 0.0
O68 O 0.91383 0.9604 0.73425 0.0
O69 O 0.81212 0.94687 0.72895 0.0
Co70 Co 0.78292 0.80126 0.73165 0.0
O71 O 0.75668 0.79873 0.69343 0.0
O72 O 0.67658 0.80699 0.7259 0.0
C73 C 0.83924 0.78045 0.73736 0.0
O74 O 0.79627 0.80471 0.77373 0.0
Co75 Co 0.95732 0.80341 0.74309 0.0
O76 O 0.92273 0.80158 0.78256 0.0
C77 C 0.87793 0.82783 0.72019 0.0
C78 C 0.68978 0.8038 0.69963 0.0
C79 C 0.85369 0.80353 0.79085 0.0
O80 O 0.81548 0.82087 0.72298 0.0
O81 O 0.9442 0.82263 0.72575 0.0
O82 O 0.76503 0.78165 0.73946 0.0
O83 O 0.8757 0.79147 0.72826 0.0
Co84 Co 0.9201 0.80459 0.01876 0.0
O85 O 0.94116 0.80358 0.05776 0.0
O86 O 0.02378 0.81151 0.02591 0.0
C87 C 0.87191 0.78283 0.01411 0.0
O88 O 0.91204 0.80653 0.97611 0.0
Co89 Co 0.74807 0.80497 0.00509 0.0
O90 O 0.78677 0.80264 0.9663 0.0
C91 C 0.81821 0.83111 0.02374 0.0
C92 C 0.0077 0.80898 0.05223 0.0
C93 C 0.85612 0.80473 0.95855 0.0
O94 O 0.88166 0.82429 0.02383 0.0
O95 O 0.75372 0.82516 0.01838 0.0
O96 O 0.94551 0.78504 0.01373 0.0
O97 O 0.82993 0.79356 0.02162 0.0
Co98 Co 0.83052 0.94029 0.02231 0.0
O99 O 0.81445 0.94081 0.06183 0.0
O100 O 0.72591 0.9344 0.03079 0.0
C101 C 0.88595 0.96152 0.01839 0.0
O102 O 0.83173 0.9391 0.97941 0.0
Co103 Co 0.00021 0.93864 0.00433 0.0
O104 O 0.95538 0.94274 0.96696 0.0
C105 C 0.92543 0.9129 0.02365 0.0
C106 C 0.74539 0.93635 0.05701 0.0
C107 C 0.88445 0.94122 0.9607 0.0
O108 O 0.86329 0.9201 0.02523 0.0
O109 O 0.99034 0.91848 0.0174 0.0
O110 O 0.81168 0.96024 0.01932 0.0
O111 O 0.9246 0.95014 0.024 0.0
Co112 Co 0.05963 0.55325 0.77589 0.0
O113 O 0.04094 0.55506 0.81491 0.0
O114 O 0.95011 0.55662 0.7824 0.0
C115 C 0.13131 0.53382 0.77853 0.0
O116 O 0.06705 0.55154 0.73301 0.0
Co117 Co 0.23125 0.55857 0.76137 0.0
O118 O 0.19522 0.5512 0.72466 0.0
C119 C 0.13182 0.5826 0.77192 0.0
C120 C 0.96926 0.55697 0.80895 0.0
C121 C 0.12555 0.5501 0.71633 0.0
O122 O 0.07565 0.57395 0.77301 0.0
O123 O 0.2022 0.57871 0.76997 0.0
O124 O 0.05682 0.53307 0.77878 0.0
O125 O 0.15958 0.54641 0.78112 0.0
Co126 Co 0.15788 0.69283 0.77258 0.0
O127 O 0.16749 0.69532 0.81199 0.0
O128 O 0.26215 0.68788 0.78463 0.0
C129 C 0.09912 0.71319 0.76421 0.0
O130 O 0.16055 0.68964 0.72976 0.0
Co131 Co 0.98899 0.68927 0.75356 0.0
O132 O 0.03671 0.6924 0.71637 0.0
C133 C 0.06743 0.66518 0.77804 0.0
C134 C 0.23714 0.69075 0.80993 0.0
C135 C 0.10794 0.69089 0.71054 0.0
O136 O 0.12768 0.67287 0.77904 0.0
O137 O 0.00222 0.66975 0.76946 0.0
O138 O 0.17363 0.71266 0.76605 0.0
O139 O 0.06261 0.70184 0.77142 0.0
Co140 Co 0.06905 0.68466 0.48139 0.0
O141 O 0.05051 0.68441 0.44201 0.0
O142 O 0.96025 0.68109 0.4742 0.0
C143 C 0.13831 0.70439 0.48195 0.0
O144 O 0.07396 0.68471 0.52452 0.0
Co145 Co 0.23934 0.67999 0.49797 0.0
O146 O 0.20041 0.68549 0.53555 0.0
C147 C 0.14686 0.6558 0.48101 0.0
C148 C 0.97909 0.68193 0.44767 0.0
C149 C 0.12952 0.68587 0.54257 0.0
O150 O 0.08856 0.664 0.48057 0.0
O151 O 0.21561 0.66019 0.48526 0.0
O152 O 0.06371 0.70486 0.48196 0.0
O153 O 0.16848 0.69208 0.47761 0.0
Co154 Co 0.22516 0.54504 0.49025 0.0
O155 O 0.25452 0.54412 0.45198 0.0
O156 O 0.33302 0.55042 0.48655 0.0
C157 C 0.16407 0.52447 0.49134 0.0
O158 O 0.20779 0.54663 0.53271 0.0
Co159 Co 0.04924 0.54765 0.49977 0.0
O160 O 0.07972 0.5441 0.53929 0.0
C161 C 0.13488 0.57227 0.4808 0.0
C162 C 0.32147 0.54863 0.45966 0.0
C163 C 0.14818 0.54518 0.54881 0.0
O164 O 0.19641 0.56516 0.48478 0.0
O165 O 0.06745 0.56702 0.48376 0.0
O166 O 0.23832 0.52493 0.49447 0.0
O167 O 0.13133 0.53618 0.48412 0.0
Co168 Co 0.90615 0.43688 0.22527 0.0
O169 O 0.92466 0.43693 0.18575 0.0
O170 O 0.01253 0.43149 0.21764 0.0
C171 C 0.8471 0.45778 0.22764 0.0
O172 O 0.90149 0.43634 0.26846 0.0
Co173 Co 0.73398 0.43498 0.24182 0.0
O174 O 0.77612 0.43951 0.27943 0.0
C175 C 0.81295 0.40941 0.22354 0.0
C176 C 0.99436 0.43303 0.19118 0.0
C177 C 0.84674 0.43843 0.28653 0.0
O178 O 0.87548 0.41656 0.22313 0.0
O179 O 0.74716 0.41498 0.22845 0.0
O180 O 0.92164 0.45703 0.2272 0.0
O181 O 0.81121 0.44609 0.22241 0.0
Co182 Co 0.8163 0.30088 0.22613 0.0
O183 O 0.79622 0.30101 0.18684 0.0
O184 O 0.71164 0.30738 0.21935 0.0
C185 C 0.86923 0.27946 0.22819 0.0
O186 O 0.82263 0.30149 0.26912 0.0
Co187 Co 0.98905 0.30135 0.24165 0.0
O188 O 0.94726 0.2972 0.27948 0.0
C189 C 0.91636 0.32758 0.22408 0.0
C190 C 0.72839 0.30575 0.1928 0.0
C191 C 0.87731 0.29896 0.28691 0.0
O192 O 0.8526 0.32083 0.22369 0.0
O193 O 0.98101 0.32158 0.22897 0.0
O194 O 0.79498 0.28094 0.22825 0.0
O195 O 0.90838 0.29077 0.22273 0.0
Co196 Co 0.93551 0.29967 0.51531 0.0
O197 O 0.95927 0.29948 0.55427 0.0
O198 O 0.0458 0.30229 0.52048 0.0
C199 C 0.85956 0.28075 0.51588 0.0
O200 O 0.92596 0.3 0.47243 0.0
Co201 Co 0.76438 0.30574 0.50092 0.0
O202 O 0.79868 0.30021 0.46277 0.0
C203 C 0.86439 0.32897 0.51824 0.0
C204 C 0.03025 0.30161 0.5473 0.0
C205 C 0.86887 0.2994 0.45499 0.0
O206 O 0.92148 0.32049 0.5171 0.0
O207 O 0.79454 0.32502 0.5147 0.0
O208 O 0.93379 0.27933 0.51428 0.0
O209 O 0.83481 0.29338 0.5206 0.0
Co210 Co 0.80724 0.44109 0.51646 0.0
O211 O 0.79349 0.44149 0.55608 0.0
O212 O 0.69999 0.43693 0.52572 0.0
C213 C 0.8739 0.46101 0.51336 0.0
O214 O 0.80853 0.44014 0.47327 0.0
Co215 Co 0.97735 0.43667 0.499 0.0
O216 O 0.93447 0.44124 0.46152 0.0
C217 C 0.88905 0.41254 0.51856 0.0
C218 C 0.72257 0.43808 0.55183 0.0
C219 C 0.86329 0.44108 0.45482 0.0
O220 O 0.83021 0.42061 0.51881 0.0
O221 O 0.95703 0.417 0.51316 0.0
O222 O 0.79922 0.46132 0.51419 0.0
O223 O 0.90536 0.4489 0.51842 0.0
Co224 Co 0.58997 0.05409 0.76841 0.0
O225 O 0.56928 0.05419 0.80767 0.0
O226 O 0.48186 0.05845 0.77481 0.0
C227 C 0.65616 0.03396 0.76778 0.0
O228 O 0.59602 0.05432 0.7254 0.0
Co229 Co 0.76193 0.05742 0.75217 0.0
O230 O 0.72201 0.0522 0.71455 0.0
C231 C 0.67625 0.08207 0.77152 0.0
C232 C 0.49899 0.05739 0.80145 0.0
C233 C 0.65115 0.05255 0.70744 0.0
O234 O 0.61487 0.07461 0.77032 0.0
O235 O 0.74348 0.07695 0.76726 0.0
O236 O 0.58144 0.03377 0.76715 0.0
O237 O 0.68738 0.04612 0.77244 0.0
Co238 Co 0.64847 0.19024 0.78322 0.0
O239 O 0.6693 0.18962 0.82258 0.0
O240 O 0.75487 0.18484 0.78932 0.0
C241 C 0.58775 0.21092 0.78255 0.0
O242 O 0.6437 0.19029 0.74023 0.0
Co243 Co 0.47678 0.18853 0.76575 0.0
O244 O 0.51917 0.19342 0.72831 0.0
C245 C 0.55627 0.16272 0.78242 0.0
C246 C 0.73865 0.18586 0.81601 0.0
C247 C 0.59023 0.19243 0.7218 0.0
O248 O 0.61837 0.16995 0.78408 0.0
O249 O 0.49056 0.16827 0.77724 0.0
O250 O 0.66246 0.21043 0.7826 0.0
O251 O 0.55293 0.19906 0.78699 0.0
Co252 Co 0.56742 0.18928 0.49253 0.0
O253 O 0.55068 0.18912 0.45302 0.0
O254 O 0.45816 0.18691 0.48479 0.0
C255 C 0.64474 0.208 0.49318 0.0
O256 O 0.56905 0.1894 0.53556 0.0
Co257 Co 0.735 0.18287 0.51114 0.0
O258 O 0.6944 0.18909 0.54808 0.0
C259 C 0.63711 0.15987 0.49157 0.0
C260 C 0.4784 0.18732 0.45837 0.0
C261 C 0.62308 0.19019 0.55422 0.0
O262 O 0.58023 0.16843 0.49191 0.0
O263 O 0.70668 0.16371 0.49614 0.0
O264 O 0.5705 0.20961 0.49285 0.0
O265 O 0.66933 0.19527 0.48946 0.0
Co266 Co 0.6937 0.04834 0.47848 0.0
O267 O 0.71516 0.04778 0.43929 0.0
O268 O 0.80226 0.05216 0.47223 0.0
C269 C 0.62394 0.02868 0.48023 0.0
O270 O 0.68712 0.04935 0.52144 0.0
Co271 Co 0.52166 0.05269 0.49443 0.0
O272 O 0.56086 0.04823 0.53251 0.0
C273 C 0.6124 0.07684 0.47547 0.0
C274 C 0.78553 0.05091 0.4456 0.0
C275 C 0.63176 0.04842 0.53957 0.0
O276 O 0.67208 0.06893 0.47555 0.0
O277 O 0.54446 0.07224 0.4805 0.0
O278 O 0.69862 0.02797 0.48088 0.0
O279 O 0.59522 0.04094 0.4748 0.0
Co280 Co 0.43044 0.93984 0.23481 0.0
O281 O 0.447 0.93799 0.1955 0.0
O282 O 0.53904 0.93642 0.22764 0.0
C283 C 0.35815 0.95929 0.23303 0.0
O284 O 0.42825 0.94164 0.27758 0.0
Co285 Co 0.26178 0.93495 0.2532 0.0
O286 O 0.30226 0.9426 0.2891 0.0
C287 C 0.35742 0.91063 0.24006 0.0
C288 C 0.51895 0.93601 0.20121 0.0
C289 C 0.37343 0.94349 0.29561 0.0
O290 O 0.41436 0.91908 0.23792 0.0
O291 O 0.28795 0.91478 0.24362 0.0
O292 O 0.43262 0.96008 0.23197 0.0
O293 O 0.32971 0.9467 0.23081 0.0
Co294 Co 0.30658 0.80062 0.23183 0.0
O295 O 0.28971 0.79962 0.19243 0.0
O296 O 0.20295 0.80694 0.22345 0.0
C297 C 0.36021 0.77944 0.23684 0.0
O298 O 0.30819 0.80252 0.2746 0.0
Co299 Co 0.47595 0.8021 0.25014 0.0
O300 O 0.43111 0.79877 0.28776 0.0
C301 C 0.40389 0.82762 0.22902 0.0
C302 C 0.22208 0.80479 0.19726 0.0
C303 C 0.36018 0.8006 0.29363 0.0
O304 O 0.34183 0.82046 0.22727 0.0
O305 O 0.46792 0.82226 0.23693 0.0
O306 O 0.28588 0.78081 0.23618 0.0
O307 O 0.39971 0.79063 0.23051 0.0
Co308 Co 0.37297 0.79971 0.52255 0.0
O309 O 0.39007 0.79809 0.56184 0.0
O310 O 0.47986 0.80378 0.53059 0.0
C311 C 0.30665 0.7799 0.51724 0.0
O312 O 0.37174 0.80188 0.47984 0.0
Co313 Co 0.20477 0.80469 0.50457 0.0
O314 O 0.24717 0.80073 0.46678 0.0
C315 C 0.29201 0.82828 0.52704 0.0
C316 C 0.4604 0.8018 0.55678 0.0
C317 C 0.31875 0.80112 0.46086 0.0
O318 O 0.34998 0.82003 0.52776 0.0
O319 O 0.2249 0.82427 0.51934 0.0
O320 O 0.38138 0.77968 0.51776 0.0
O321 O 0.27437 0.79179 0.52384 0.0
Co322 Co 0.3353 0.93991 0.52323 0.0
O323 O 0.31729 0.93834 0.5625 0.0
O324 O 0.22537 0.93874 0.53014 0.0
C325 C 0.41871 0.95764 0.52509 0.0
O326 O 0.33871 0.9418 0.48046 0.0
Co327 Co 0.50026 0.93173 0.50449 0.0
O328 O 0.46452 0.94039 0.46886 0.0
C329 C 0.39013 0.90951 0.51736 0.0
C330 C 0.24464 0.93799 0.55662 0.0
C331 C 0.39425 0.94269 0.46244 0.0
O332 O 0.3387 0.91904 0.51983 0.0
O333 O 0.46167 0.91221 0.51371 0.0
O334 O 0.34521 0.95995 0.52644 0.0
O335 O 0.43961 0.94457 0.52723 0.0
Co336 Co 0.64154 0.55326 0.28325 0.0
O337 O 0.62883 0.55328 0.32306 0.0
O338 O 0.53535 0.55742 0.29238 0.0
C339 C 0.70706 0.53311 0.27971 0.0
O340 O 0.63785 0.55351 0.24031 0.0
Co341 Co 0.80782 0.55732 0.2621 0.0
O342 O 0.76109 0.55162 0.22587 0.0
C343 C 0.72184 0.58204 0.28066 0.0
C344 C 0.55715 0.55622 0.31851 0.0
C345 C 0.68894 0.5518 0.22085 0.0
O346 O 0.66399 0.57389 0.28404 0.0
O347 O 0.78858 0.57747 0.27372 0.0
O348 O 0.63272 0.53309 0.28212 0.0
O349 O 0.74045 0.54518 0.28404 0.0
Co350 Co 0.66486 0.68928 0.26882 0.0
O351 O 0.68321 0.69078 0.30817 0.0
O352 O 0.7705 0.68389 0.27711 0.0
C353 C 0.60684 0.71003 0.26328 0.0
O354 O 0.6612 0.68704 0.226 0.0
Co355 Co 0.49543 0.6862 0.25207 0.0
O356 O 0.53638 0.68929 0.21375 0.0
C357 C 0.57483 0.66146 0.27319 0.0
C358 C 0.75214 0.68626 0.3033 0.0
C359 C 0.60738 0.68817 0.20731 0.0
O360 O 0.6349 0.66919 0.27395 0.0
O361 O 0.5086 0.66632 0.26646 0.0
O362 O 0.68132 0.70909 0.26373 0.0
O363 O 0.56948 0.69869 0.27039 0.0
Co364 Co 0.60261 0.68905 0.97679 0.0
O365 O 0.59628 0.69077 0.93699 0.0
O366 O 0.5002 0.68357 0.96403 0.0
C367 C 0.65599 0.71008 0.98518 0.0
O368 O 0.59487 0.68659 0.01973 0.0
Co369 Co 0.76713 0.68639 0.99869 0.0
O370 O 0.71623 0.69025 0.03483 0.0
C371 C 0.69293 0.6611 0.97771 0.0
C372 C 0.52652 0.68619 0.93884 0.0
C373 C 0.64479 0.68841 0.03966 0.0
O374 O 0.63509 0.66895 0.97227 0.0
O375 O 0.75524 0.66588 0.98839 0.0
O376 O 0.58234 0.70876 0.98184 0.0
O377 O 0.69687 0.69901 0.97886 0.0
Co378 Co 0.6741 0.55098 0.99178 0.0
O379 O 0.68343 0.55107 0.95191 0.0
O380 O 0.77936 0.55544 0.98138 0.0
C381 C 0.61001 0.53062 0.99555 0.0
O382 O 0.68068 0.55127 0.03468 0.0
Co383 Co 0.50999 0.55499 0.0138 0.0
O384 O 0.55815 0.54939 0.04978 0.0
C385 C 0.59513 0.57988 0.99655 0.0
C386 C 0.75494 0.55437 0.95551 0.0
C387 C 0.63043 0.54968 0.05446 0.0
O388 O 0.65159 0.57165 0.9915 0.0
O389 O 0.52916 0.57548 0.00464 0.0
O390 O 0.68426 0.53085 0.99294 0.0
O391 O 0.57521 0.54258 0.99139 0.0
Co392 Co 0.3561 0.44028 0.71943 0.0
O393 O 0.35834 0.44237 0.67967 0.0
O394 O 0.46011 0.43686 0.70535 0.0
C395 C 0.2906 0.45991 0.72854 0.0
O396 O 0.36733 0.43785 0.76226 0.0
Co397 Co 0.19184 0.43464 0.74209 0.0
O398 O 0.24471 0.43853 0.7781 0.0
C399 C 0.27735 0.41127 0.7178 0.0
C400 C 0.43069 0.43935 0.68055 0.0
C401 C 0.31723 0.43832 0.78248 0.0
O402 O 0.33405 0.41975 0.71513 0.0
O403 O 0.21102 0.41522 0.72649 0.0
O404 O 0.36435 0.46036 0.72442 0.0
O405 O 0.25768 0.448 0.72271 0.0
Co406 Co 0.36361 0.30417 0.72239 0.0
O407 O 0.34729 0.30272 0.68283 0.0
O408 O 0.2562 0.30763 0.71402 0.0
C409 C 0.4321 0.28456 0.72787 0.0
O410 O 0.36316 0.30591 0.76525 0.0
Co411 Co 0.53072 0.30965 0.74135 0.0
O412 O 0.48747 0.30515 0.77882 0.0
C413 C 0.44114 0.33316 0.71945 0.0
C414 C 0.27577 0.30563 0.68785 0.0
C415 C 0.41565 0.30513 0.78445 0.0
O416 O 0.38385 0.32473 0.71832 0.0
O417 O 0.50888 0.32913 0.72639 0.0
O418 O 0.35756 0.2841 0.72642 0.0
O419 O 0.46349 0.29657 0.72155 0.0
Co420 Co 0.41891 0.30281 0.01381 0.0
O421 O 0.43477 0.30226 0.05344 0.0
O422 O 0.52232 0.30926 0.02257 0.0
C423 C 0.36707 0.28126 0.00965 0.0
O424 O 0.41892 0.30422 0.97093 0.0
Co425 Co 0.25012 0.30327 0.99454 0.0
O426 O 0.29679 0.30024 0.95705 0.0
C427 C 0.31809 0.32944 0.01506 0.0
C428 C 0.5031 0.30712 0.04874 0.0
C429 C 0.36788 0.30219 0.95158 0.0
O430 O 0.38188 0.32274 0.01701 0.0
O431 O 0.25497 0.32339 0.00815 0.0
O432 O 0.44113 0.28295 0.01047 0.0
O433 O 0.32653 0.29242 0.0152 0.0
Co434 Co 0.30961 0.43866 0.01224 0.0
O435 O 0.29167 0.43929 0.05183 0.0
O436 O 0.20494 0.43253 0.02054 0.0
C437 C 0.36372 0.46006 0.00871 0.0
O438 O 0.31225 0.43725 0.9692 0.0
Co439 Co 0.47917 0.43776 0.99403 0.0
O440 O 0.43549 0.44075 0.95604 0.0
C441 C 0.40837 0.41183 0.0145 0.0
C442 C 0.22313 0.43462 0.04684 0.0
C443 C 0.3645 0.43904 0.95012 0.0
O444 O 0.34474 0.41862 0.01575 0.0
O445 O 0.47222 0.41776 0.00809 0.0
O446 O 0.28948 0.45861 0.00874 0.0
O447 O 0.40281 0.44876 0.01444 0.0
H448 H 0.03203 0.05083 0.0861 0.0
H449 H 0.27335 0.05313 0.0643 0.0
H450 H 0.30682 0.05424 0.11419 0.0
H451 H 0.26746 0.05485 0.16357 0.0
H452 H 0.0259 0.05292 0.18521 0.0
H453 H 0.99273 0.05138 0.13538 0.0
C454 C 0.09216 0.05152 0.09211 0.0
C455 C 0.15016 0.05188 0.07132 0.0
C456 C 0.11086 0.05226 0.12073 0.0
C457 C 0.22754 0.05284 0.07973 0.0
C458 C 0.24668 0.05348 0.10827 0.0
C459 C 0.20739 0.05407 0.15753 0.0
C460 C 0.1492 0.05401 0.17826 0.0
C461 C 0.18876 0.05325 0.12889 0.0
C462 C 0.07186 0.05303 0.16981 0.0
C463 C 0.05287 0.05213 0.14131 0.0
H464 H 0.24316 0.18923 0.09234 0.0
H465 H -0.00056 0.18814 0.0739 0.0
H466 H 0.97072 0.18872 0.12413 0.0
H467 H 0.01428 0.18966 0.17275 0.0
H468 H 0.25763 0.19053 0.19174 0.0
H469 H 0.28696 0.18989 0.14139 0.0
C470 C 0.1836 0.18913 0.0992 0.0
C471 C 0.12345 0.18868 0.07923 0.0
C472 C 0.16751 0.18943 0.1281 0.0
C473 C 0.04683 0.18847 0.08869 0.0
C474 C 0.03039 0.18882 0.11742 0.0
C475 C 0.07399 0.18976 0.16605 0.0
C476 C 0.13376 0.19022 0.18615 0.0
C477 C 0.09026 0.18934 0.13724 0.0
C478 C 0.21053 0.19019 0.17683 0.0
C479 C 0.22726 0.18984 0.14805 0.0
H480 H 0.98295 0.94402 0.91675 0.0
H481 H 0.7414 0.9389 0.93622 0.0
H482 H 0.71143 0.93842 0.88598 0.0
H483 H 0.75434 0.9388 0.83696 0.0
H484 H 0.9964 0.94342 0.81778 0.0
H485 H 0.02551 0.94476 0.86795 0.0
C486 C 0.92349 0.94284 0.91018 0.0
C487 C 0.86445 0.94146 0.93039 0.0
C488 C 0.90688 0.94245 0.88139 0.0
C489 C 0.78798 0.93996 0.92123 0.0
C490 C 0.77086 0.93968 0.8925 0.0
C491 C 0.81362 0.94015 0.84362 0.0
C492 C 0.8732 0.94097 0.82349 0.0
C493 C 0.82997 0.9408 0.87245 0.0
C494 C 0.94946 0.94271 0.83271 0.0
C495 C 0.96612 0.94348 0.8614 0.0
H496 H 0.74935 0.80721 0.91743 0.0
H497 H 0.99454 0.80312 0.93065 0.0
H498 H 0.01479 0.80261 0.87972 0.0
H499 H 0.96235 0.80267 0.83198 0.0
H500 H 0.71683 0.80669 0.81904 0.0
H501 H 0.69733 0.80784 0.86984 0.0
C502 C 0.80744 0.80618 0.90929 0.0
C503 C 0.87043 0.80509 0.9279 0.0
C504 C 0.81846 0.80585 0.88017 0.0
C505 C 0.94515 0.80398 0.91685 0.0
C506 C 0.95665 0.80365 0.88776 0.0
C507 C 0.90436 0.80381 0.84013 0.0
C508 C 0.84098 0.80452 0.82159 0.0
C509 C 0.89361 0.80447 0.86929 0.0
C510 C 0.76656 0.80607 0.83272 0.0
C511 C 0.7554 0.80673 0.86177 0.0
H512 H 0.23753 0.54703 0.67704 0.0
H513 H 0.9899 0.5481 0.68627 0.0
H514 H 0.97586 0.54612 0.63516 0.0
H515 H 0.03419 0.54522 0.58819 0.0
H516 H 0.28207 0.54504 0.57949 0.0
H517 H 0.29543 0.54564 0.63059 0.0
C518 C 0.18009 0.54679 0.6681 0.0
C519 C 0.11467 0.5478 0.68567 0.0
C520 C 0.17262 0.54591 0.63886 0.0
C521 C 0.04117 0.54737 0.67339 0.0
C522 C 0.0332 0.54628 0.64415 0.0
C523 C 0.09137 0.54525 0.59735 0.0
C524 C 0.15721 0.54513 0.57985 0.0
C525 C 0.0986 0.54573 0.62671 0.0
C526 C 0.23051 0.54519 0.5923 0.0
C527 C 0.23814 0.54551 0.62154 0.0
H528 H 0.00799 0.69229 0.66677 0.0
H529 H 0.25055 0.6879 0.6853 0.0
H530 H 0.27793 0.68622 0.63483 0.0
H531 H 0.23233 0.68559 0.58593 0.0
H532 H 0.98911 0.68957 0.56813 0.0
H533 H 0.96279 0.69181 0.6184 0.0
C534 C 0.06722 0.69099 0.66002 0.0
C535 C 0.12727 0.6902 0.68007 0.0
C536 C 0.08225 0.68993 0.63117 0.0
C537 C 0.20325 0.68853 0.67052 0.0
C538 C 0.21882 0.68756 0.64165 0.0
C539 C 0.17337 0.68698 0.5929 0.0
C540 C 0.11262 0.6874 0.57307 0.0
C541 C 0.15865 0.68818 0.62184 0.0
C542 C 0.03687 0.68917 0.58276 0.0
C543 C 0.02185 0.69046 0.61152 0.0
H544 H 0.96638 0.44074 0.41178 0.0
H545 H 0.72175 0.44205 0.42849 0.0
H546 H 0.69619 0.44169 0.37786 0.0
H547 H 0.74323 0.4404 0.32937 0.0
H548 H 0.98788 0.43855 0.31292 0.0
H549 H 0.01335 0.43972 0.36345 0.0
C550 C 0.90716 0.44101 0.40456 0.0
C551 C 0.84592 0.44141 0.42417 0.0
C552 C 0.89302 0.44064 0.37554 0.0
C553 C 0.76995 0.44172 0.41406 0.0
C554 C 0.75538 0.4415 0.38509 0.0
C555 C 0.8024 0.44029 0.33666 0.0
C556 C 0.86371 0.43936 0.31714 0.0
C557 C 0.8165 0.44086 0.3657 0.0
C558 C 0.93964 0.43921 0.32729 0.0
C559 C 0.95417 0.43989 0.3562 0.0
H560 H 0.98124 0.29584 0.32915 0.0
H561 H 0.73754 0.30116 0.3139 0.0
H562 H 0.71401 0.30125 0.36462 0.0
H563 H 0.76304 0.30052 0.41284 0.0
H564 H 0.00722 0.29578 0.42787 0.0
H565 H 0.02995 0.29474 0.37721 0.0
C566 C 0.92268 0.29697 0.33674 0.0
C567 C 0.86114 0.29852 0.31756 0.0
C568 C 0.90976 0.29715 0.36581 0.0
C569 C 0.78596 0.29998 0.32806 0.0
C570 C 0.77253 0.30004 0.35707 0.0
C571 C 0.82142 0.29919 0.40518 0.0
C572 C 0.88346 0.29825 0.42431 0.0
C573 C 0.8341 0.29874 0.37608 0.0
C574 C 0.95846 0.29657 0.41377 0.0
C575 C 0.97145 0.29598 0.38478 0.0
H576 H 0.75388 0.0502 0.66449 0.0
H577 H 0.50951 0.05176 0.68158 0.0
H578 H 0.48285 0.05005 0.63122 0.0
H579 H 0.5288 0.04877 0.58269 0.0
H580 H 0.77322 0.04774 0.56555 0.0
H581 H 0.79978 0.04853 0.616 0.0
C582 C 0.69455 0.05014 0.65736 0.0
C583 C 0.6337 0.05116 0.67698 0.0
C584 C 0.67971 0.04925 0.62843 0.0
C585 C 0.55746 0.05103 0.66709 0.0
C586 C 0.54221 0.05005 0.63828 0.0
C587 C 0.5881 0.04865 0.58984 0.0
C588 C 0.64902 0.04822 0.57016 0.0
C589 C 0.60291 0.04925 0.6188 0.0
C590 C 0.72523 0.04809 0.58008 0.0
C591 C 0.74043 0.04855 0.60894 0.0
H592 H 0.49115 0.19454 0.67761 0.0
H593 H 0.73361 0.19176 0.69747 0.0
H594 H 0.76437 0.19149 0.64736 0.0
H595 H 0.72242 0.19104 0.59838 0.0
H596 H 0.47989 0.19314 0.57834 0.0
H597 H 0.44934 0.19475 0.62843 0.0
C598 C 0.55093 0.19395 0.67111 0.0
C599 C 0.61002 0.1931 0.69145 0.0
C600 C 0.56813 0.19363 0.6423 0.0
C601 C 0.68695 0.19237 0.68241 0.0
C602 C 0.70456 0.19221 0.65373 0.0
C603 C 0.66268 0.1919 0.60479 0.0
C604 C 0.60346 0.19189 0.58444 0.0
C605 C 0.64555 0.19267 0.63355 0.0
C606 C 0.52663 0.19307 0.59341 0.0
C607 C 0.50914 0.19398 0.62208 0.0
H608 H 0.49748 0.9451 0.41976 0.0
H609 H 0.25331 0.94658 0.43728 0.0
H610 H 0.22662 0.94841 0.38696 0.0
H611 H 0.27188 0.94741 0.33839 0.0
H612 H 0.51571 0.94464 0.32086 0.0
H613 H 0.54315 0.94562 0.37121 0.0
C614 C 0.43823 0.94593 0.41274 0.0
C615 C 0.37734 0.94551 0.4324 0.0
C616 C 0.4233 0.94666 0.38384 0.0
C617 C 0.30124 0.94677 0.42271 0.0
C618 C 0.28596 0.94778 0.39393 0.0
C619 C 0.33128 0.94713 0.34542 0.0
C620 C 0.39169 0.94576 0.32573 0.0
C621 C 0.34648 0.94739 0.37434 0.0
C622 C 0.46809 0.94558 0.33544 0.0
C623 C 0.48377 0.94611 0.36425 0.0
H624 H 0.22179 0.80223 0.4161 0.0
H625 H 0.46325 0.79954 0.43759 0.0
H626 H 0.49646 0.79906 0.38767 0.0
H627 H 0.45702 0.7994 0.3384 0.0
H628 H 0.21566 0.80231 0.31688 0.0
H629 H 0.1824 0.8027 0.3668 0.0
C630 C 0.28185 0.80151 0.41001 0.0
C631 C 0.34 0.80089 0.43069 0.0
C632 C 0.30047 0.80128 0.38136 0.0
C633 C 0.41735 0.80004 0.42221 0.0
C634 C 0.43635 0.79975 0.39367 0.0
C635 C 0.39694 0.80009 0.34448 0.0
C636 C 0.33884 0.80079 0.32379 0.0
C637 C 0.37834 0.80036 0.37312 0.0
C638 C 0.26153 0.80176 0.33227 0.0
C639 C 0.2425 0.80197 0.36081 0.0
H640 H 0.53845 0.54854 0.10054 0.0
H641 H 0.77785 0.54915 0.07564 0.0
H642 H 0.81634 0.54927 0.12511 0.0
H643 H 0.7818 0.55018 0.17493 0.0
H644 H 0.54215 0.55028 0.19959 0.0
H645 H 0.50401 0.54888 0.15023 0.0
C646 C 0.59925 0.54862 0.10576 0.0
C647 C 0.65524 0.54889 0.08425 0.0
C648 C 0.62081 0.54888 0.13412 0.0
C649 C 0.73355 0.54898 0.09166 0.0
C650 C 0.75555 0.54907 0.11995 0.0
C651 C 0.72106 0.54984 0.16966 0.0
C652 C 0.66485 0.5504 0.19108 0.0
C653 C 0.69959 0.54918 0.14129 0.0
C654 C 0.58661 0.54993 0.18364 0.0
C655 C 0.56479 0.54912 0.15541 0.0
H656 H 0.5077 0.68813 0.16292 0.0
H657 H 0.75055 0.68778 0.1831 0.0
H658 H 0.7817 0.68766 0.13308 0.0
H659 H 0.74087 0.6878 0.08437 0.0
H660 H 0.49885 0.68811 0.06312 0.0
H661 H 0.46645 0.68801 0.11337 0.0
C662 C 0.56761 0.68804 0.15649 0.0
C663 C 0.62684 0.688 0.17692 0.0
C664 C 0.58512 0.68794 0.12766 0.0
C665 C 0.70387 0.68781 0.16799 0.0
C666 C 0.7217 0.68775 0.13937 0.0
C667 C 0.68068 0.68789 0.09047 0.0
C668 C 0.62223 0.68806 0.0698 0.0
C669 C 0.66282 0.68785 0.11913 0.0
C670 C 0.54494 0.688 0.07846 0.0
C671 C 0.52652 0.68797 0.10718 0.0
H672 H 0.22395 0.43688 0.82808 0.0
H673 H 0.46402 0.44015 0.80496 0.0
H674 H 0.49921 0.44075 0.85492 0.0
H675 H 0.46108 0.44044 0.90482 0.0
H676 H 0.22027 0.43704 0.92696 0.0
H677 H 0.1862 0.43645 0.8772 0.0
C678 C 0.2843 0.43775 0.8337 0.0
C679 C 0.34134 0.43851 0.81253 0.0
C680 C 0.30382 0.43809 0.86225 0.0
C681 C 0.41892 0.43954 0.82064 0.0
C682 C 0.43895 0.4399 0.84922 0.0
C683 C 0.40097 0.43959 0.89888 0.0
C684 C 0.34322 0.43881 0.91982 0.0
C685 C 0.38177 0.43921 0.87017 0.0
C686 C 0.26589 0.43766 0.91148 0.0
C687 C 0.24639 0.43732 0.883 0.0
H688 H 0.51106 0.30547 0.82981 0.0
H689 H 0.27051 0.30289 0.80698 0.0
H690 H 0.23553 0.3015 0.85666 0.0
H691 H 0.273 0.3012 0.90617 0.0
H692 H 0.51335 0.3041 0.9291 0.0
H693 H 0.54857 0.30515 0.87938 0.0
C694 C 0.45081 0.30459 0.83556 0.0
C695 C 0.39344 0.3043 0.81453 0.0
C696 C 0.43114 0.30384 0.86411 0.0
C697 C 0.31585 0.30318 0.8226 0.0
C698 C 0.29583 0.30236 0.85102 0.0
C699 C 0.33329 0.30201 0.90044 0.0
C700 C 0.3905 0.30255 0.9215 0.0
C701 C 0.35301 0.3027 0.8719 0.0
C702 C 0.46811 0.30368 0.91345 0.0
C703 C 0.48826 0.30428 0.88501 0.0
H704 H 0.41296 0.98554 0.23962 0.0
H705 H 0.20114 0.96174 0.23839 0.0
H706 H 0.12827 0.98329 0.24844 0.0
H707 H 0.12606 0.00867 0.25817 0.0
H708 H 0.33882 0.03219 0.26013 0.0
H709 H 0.41085 0.01074 0.24915 0.0
C710 C 0.35075 0.98502 0.24147 0.0
C711 C 0.31226 0.97207 0.23824 0.0
C712 C 0.30988 -0.00267 0.24743 0.0
C713 C 0.23184 0.97159 0.24073 0.0
C714 C 0.19038 0.98389 0.24651 0.0
C715 C 0.18824 0.00912 0.25618 0.0
C716 C 0.22732 0.02198 0.26 0.0
C717 C 0.22898 -0.00322 0.25 0.0
C718 C 0.30769 0.02241 0.25737 0.0
C719 C 0.34872 0.01017 0.25107 0.0
H720 H 0.02105 0.27351 0.23596 0.0
H721 H 0.7946 0.25479 0.23712 0.0
H722 H 0.84922 0.23227 0.25119 0.0
H723 H 0.96145 0.21782 0.26384 0.0
H724 H 0.18773 0.23663 0.2627 0.0
H725 H 0.13319 0.25903 0.24806 0.0
C726 C 0.98388 0.26447 0.23916 0.0
C727 C 0.90417 0.26582 0.23551 0.0
C728 C 0.01552 0.25153 0.2474 0.0
C729 C 0.85642 0.25404 0.23983 0.0
C730 C 0.88747 0.24113 0.24791 0.0
C731 C -0.00142 0.22684 0.26044 0.0
C732 C 0.07822 0.22557 0.26444 0.0
C733 C 0.96693 0.23976 0.25192 0.0
C734 C 0.12596 0.23732 0.25981 0.0
C735 C 0.09496 0.25017 0.2514 0.0
H736 H 0.28303 0.2177 0.9855 0.0
H737 H 0.05702 0.23306 0.00761 0.0
H738 H 0.10819 0.25662 0.01451 0.0
H739 H 0.2171 0.27309 0.01439 0.0
H740 H 0.4435 0.25784 0.99269 0.0
H741 H 0.39236 0.23425 0.98538 0.0
C742 C 0.24523 0.22621 0.9919 0.0
C743 C 0.16649 0.2236 0.99596 0.0
C744 C 0.27496 0.23985 0.99581 0.0
C745 C 0.11804 0.23475 0.00425 0.0
C746 C 0.14711 0.24828 0.0082 0.0
C747 C 0.25502 0.26461 0.00794 0.0
C748 C 0.33378 0.26722 0.00413 0.0
C749 C 0.22542 0.25098 0.00397 0.0
C750 C 0.38244 0.25611 0.99585 0.0
C751 C 0.35336 0.24258 0.99168 0.0
H752 H 0.9755 0.02404 0.98774 0.0
H753 H 0.2042 0.00653 0.99389 0.0
H754 H 0.15088 0.98354 0.00536 0.0
H755 H 0.03882 0.96819 0.01371 0.0
H756 H 0.81033 0.98584 0.00748 0.0
H757 H 0.86381 0.00876 0.99605 0.0
C758 C 0.01351 0.01519 0.99157 0.0
C759 C 0.09348 0.01701 0.98992 0.0
C760 C 0.98254 0.00192 0.99819 0.0
C761 C 0.14218 0.00543 0.995 0.0
C762 C 0.11184 0.99224 0.00158 0.0
C763 C 0.00096 0.97707 0.00987 0.0
C764 C 0.92091 0.97528 0.01151 0.0
C765 C 0.03206 0.99034 0.00324 0.0
C766 C 0.87239 0.98689 0.0064 0.0
C767 C 0.9028 5e-05 0.99983 0.0
H768 H 0.60071 0.00787 0.75739 0.0
H769 H 0.81222 0.03139 0.7663 0.0
H770 H 0.88668 0.0101 0.75691 0.0
H771 H 0.89139 0.9852 0.74592 0.0
H772 H 0.68145 0.96128 0.73667 0.0
H773 H 0.60575 0.98255 0.7466 0.0
C774 C 0.66313 0.00833 0.75731 0.0
C775 C 0.70118 0.02115 0.76251 0.0
C776 C 0.70537 -0.00392 0.75186 0.0
C777 C 0.78186 0.02163 0.76236 0.0
C778 C 0.82433 0.00949 0.75699 0.0
C779 C 0.82899 0.98457 0.74605 0.0
C780 C 0.7918 0.97173 0.74049 0.0
C781 C 0.78659 -0.00329 0.75168 0.0
C782 C 0.71112 0.97109 0.74083 0.0
C783 C 0.66807 0.98322 0.74649 0.0
H784 H 0.94751 0.71938 0.76899 0.0
H785 H 0.16531 0.7363 0.74128 0.0
H786 H 0.10441 0.75878 0.73057 0.0
H787 H 0.98985 0.77384 0.73021 0.0
H788 H 0.77242 0.75697 0.75854 0.0
H789 H 0.83269 0.73433 0.76808 0.0
C790 C 0.98131 0.72797 0.76041 0.0
C791 C 0.06044 0.72626 0.75601 0.0
C792 C 0.94626 0.74091 0.75464 0.0
C793 C 0.10405 0.73744 0.74498 0.0
C794 C 0.06944 0.75029 0.73888 0.0
C795 C 0.95589 0.7652 0.73851 0.0
C796 C 0.87716 0.76703 0.74368 0.0
C797 C 0.99075 0.7522 0.74391 0.0
C798 C 0.83343 0.75579 0.75438 0.0
C799 C 0.86767 0.74283 0.7598 0.0
H800 H 0.80478 0.71951 0.98182 0.0
H801 H 0.57649 0.73159 0.00832 0.0
H802 H 0.62142 0.75518 0.01935 0.0
H803 H 0.72493 0.77285 0.02028 0.0
H804 H 0.9532 0.7608 0.99364 0.0
H805 H 0.90907 0.73703 0.98385 0.0
C806 C 0.76529 0.72728 0.99026 0.0
C807 C 0.68758 0.72381 0.99406 0.0
C808 C 0.79125 0.74098 0.99635 0.0
C809 C 0.63678 0.73401 0.00496 0.0
C810 C 0.66224 0.74755 0.01128 0.0
C811 C 0.76475 0.76502 0.01228 0.0
C812 C 0.84196 0.76863 0.00769 0.0
C813 C 0.73917 0.75124 0.00674 0.0
C814 C 0.89317 0.75833 0.99741 0.0
C815 C 0.86817 0.74467 0.99181 0.0
H816 H 0.07638 0.50754 0.77534 0.0
H817 H 0.28632 0.5316 0.76753 0.0
H818 H 0.35473 0.51034 0.75215 0.0
H819 H 0.35166 0.48548 0.73841 0.0
H820 H 0.13969 0.46187 0.74447 0.0
H821 H 0.07409 0.48271 0.76301 0.0
C822 C 0.13731 0.50818 0.77044 0.0
C823 C 0.17644 0.52111 0.77236 0.0
C824 C 0.17513 0.49611 0.76109 0.0
C825 C 0.25528 0.52174 0.7662 0.0
C826 C 0.29404 0.50963 0.75729 0.0
C827 C 0.29107 0.48487 0.74383 0.0
C828 C 0.25009 0.47222 0.73991 0.0
C829 C 0.25404 0.49685 0.75421 0.0
C830 C 0.17196 0.47154 0.7471 0.0
C831 C 0.13472 0.48341 0.75775 0.0
H832 H 0.36603 0.75425 0.50672 0.0
H833 H 0.15089 0.77696 0.51159 0.0
H834 H 0.08053 0.75537 0.50028 0.0
H835 H 0.08074 0.73027 0.49002 0.0
H836 H 0.29517 0.70733 0.48578 0.0
H837 H 0.36624 0.72906 0.49587 0.0
C838 C 0.30369 0.7545 0.50527 0.0
C839 C 0.26337 0.76713 0.51007 0.0
C840 C 0.26403 0.74211 0.49894 0.0
C841 C 0.18286 0.76733 0.5081 0.0
C842 C 0.14283 0.75502 0.50162 0.0
C843 C 0.14312 0.72998 0.49125 0.0
C844 C 0.18295 0.71724 0.48722 0.0
C845 C 0.18292 0.74238 0.49718 0.0
C846 C 0.26354 0.71704 0.4888 0.0
C847 C 0.30394 0.72942 0.49459 0.0
H848 H 0.02913 0.46417 0.51432 0.0
H849 H 0.81669 0.48656 0.49928 0.0
H850 H 0.88786 0.50821 0.49087 0.0
H851 H 0.00996 0.5209 0.48852 0.0
H852 H 0.22275 0.49874 0.50407 0.0
H853 H 0.15191 0.47689 0.51159 0.0
C854 C -0.00134 0.47379 0.50911 0.0
C855 C 0.91812 0.47381 0.50749 0.0
C856 C 0.03982 0.48624 0.50447 0.0
C857 C 0.87895 0.48631 0.50073 0.0
C858 C 0.91945 0.4987 0.49592 0.0
C859 C 0.04072 0.51128 0.49351 0.0
C860 C 0.12108 0.51139 0.49575 0.0
C861 C -0.00019 0.4988 0.49788 0.0
C862 C 0.16055 0.49889 0.50227 0.0
C863 C 0.12023 0.48639 0.50655 0.0
H864 H 0.64086 0.5083 0.26746 0.0
H865 H 0.8619 0.52907 0.27048 0.0
H866 H 0.9243 0.50743 0.25384 0.0
H867 H 0.915 0.48275 0.2388 0.0
H868 H 0.69314 0.46225 0.23573 0.0
H869 H 0.63129 0.48393 0.25196 0.0
C870 C 0.70282 0.50815 0.26456 0.0
C871 C 0.74696 0.52025 0.27032 0.0
C872 C 0.73768 0.4958 0.2549 0.0
C873 C 0.82693 0.51986 0.26632 0.0
C874 C 0.86239 0.50753 0.25676 0.0
C875 C 0.85302 0.48302 0.24159 0.0
C876 C 0.80848 0.47092 0.23609 0.0
C877 C 0.81819 0.49546 0.25101 0.0
C878 C 0.72843 0.47144 0.23976 0.0
C879 C 0.69323 0.48379 0.2491 0.0
H880 H 0.90223 0.25375 0.50856 0.0
H881 H 0.70234 0.2806 0.51523 0.0
H882 H 0.61815 0.26018 0.50902 0.0
H883 H 0.6022 0.23492 0.50144 0.0
H884 H 0.802 0.20806 0.49481 0.0
H885 H 0.88623 0.22844 0.50141 0.0
C886 C 0.84021 0.25515 0.50866 0.0
C887 C 0.80825 0.26862 0.51231 0.0
C888 C 0.79259 0.24343 0.50513 0.0
C889 C 0.72801 0.2703 0.51246 0.0
C890 C 0.68003 0.25866 0.50891 0.0
C891 C 0.6642 0.23351 0.50145 0.0
C892 C 0.69612 0.22006 0.49758 0.0
C893 C 0.71182 0.24521 0.5052 0.0
C894 C 0.77635 0.21835 0.49771 0.0
C895 C 0.82436 0.22997 0.50146 0.0
H896 H 0.37075 0.26001 0.7443 0.0
H897 H 0.58853 0.2814 0.73461 0.0
H898 H 0.65596 0.26041 0.75192 0.0
H899 H 0.65183 0.23595 0.76884 0.0
H900 H 0.43282 0.21488 0.778 0.0
H901 H 0.36628 0.23605 0.76192 0.0
C902 C 0.43308 0.26014 0.7459 0.0
C903 C 0.47487 0.27219 0.73802 0.0
C904 C 0.47078 0.24817 0.75583 0.0
C905 C 0.55536 0.2722 0.74042 0.0
C906 C 0.59369 0.26023 0.75034 0.0
C907 C 0.58947 0.23601 0.76746 0.0
C908 C 0.54707 0.22389 0.77454 0.0
C909 C 0.55184 0.24816 0.758 0.0
C910 C 0.46651 0.22409 0.77267 0.0
C911 C 0.42858 0.23616 0.76343 0.0
H912 H 0.67185 0.00212 0.49161 0.0
H913 H 0.46855 0.0282 0.48599 0.0
H914 H 0.38861 0.00842 0.50037 0.0
H915 H 0.37654 0.98413 0.51446 0.0
H916 H 0.57665 0.95726 0.51918 0.0
H917 H 0.65884 0.97715 0.50534 0.0
C918 C 0.61001 0.00343 0.49348 0.0
C919 C 0.5759 0.01657 0.48781 0.0
C920 C 0.56438 0.99199 0.50169 0.0
C921 C 0.49593 0.01818 0.49022 0.0
C922 C 0.4503 0.0069 0.4985 0.0
C923 C 0.43822 0.98255 0.51259 0.0
C924 C 0.47079 0.96929 0.51794 0.0
C925 C 0.48402 0.99383 0.50433 0.0
C926 C 0.55058 0.96743 0.51527 0.0
C927 C 0.59728 0.97876 0.5073 0.0
H928 H 0.45452 0.7171 0.26677 0.0
H929 H 0.67827 0.73346 0.24442 0.0
H930 H 0.62273 0.75642 0.23485 0.0
H931 H 0.51101 0.7721 0.23311 0.0
H932 H 0.28672 0.75593 0.25505 0.0
H933 H 0.3419 0.73284 0.2646 0.0
C934 C 0.49081 0.72569 0.2597 0.0
C935 C 0.5702 0.72358 0.25644 0.0
C936 C 0.45858 0.73898 0.25427 0.0
C937 C 0.6168 0.73481 0.24725 0.0
C938 C 0.58524 0.74798 0.24176 0.0
C939 C 0.47441 0.76352 0.24006 0.0
C940 C 0.3952 0.76571 0.24335 0.0
C941 C 0.50631 0.75023 0.24534 0.0
C942 C 0.34816 0.7545 0.25229 0.0
C943 C 0.37954 0.74127 0.25775 0.0
H944 H 0.51109 0.46804 0.01965 0.0
H945 H 0.29383 0.48354 0.98848 0.0
H946 H 0.34826 0.50706 0.98305 0.0
H947 H 0.45903 0.52334 0.98657 0.0
H948 H 0.67543 0.50754 0.01813 0.0
H949 H 0.61986 0.48428 0.02434 0.0
C950 C 0.4759 0.47656 0.01155 0.0
C951 C 0.39886 0.47404 0.0044 0.0
C952 C 0.50724 0.49011 0.00876 0.0
C953 C 0.35357 0.48521 0.99415 0.0
C954 C 0.38451 0.49869 0.99108 0.0
C955 C 0.49347 0.51482 0.99509 0.0
C956 C 0.57116 0.51715 0.00172 0.0
C957 C 0.46135 0.50131 0.99837 0.0
C958 C 0.61545 0.506 0.01262 0.0
C959 C 0.58389 0.49265 0.01616 0.0
H960 H 0.20367 0.149 0.28932 0.0
H961 H 0.95839 0.14356 0.27828 0.0
H962 H 0.97582 0.118 0.27748 0.0
H963 H 0.06173 0.09749 0.27594 0.0
H964 H 0.30762 0.10328 0.28401 0.0
H965 H 0.28847 0.12858 0.2899 0.0
C966 C 0.15353 0.14229 0.28702 0.0
C967 C 0.07965 0.14828 0.28367 0.0
C968 C 0.16423 0.12769 0.28575 0.0
C969 C 0.01583 0.1393 0.28082 0.0
C970 C 0.02585 0.12468 0.28025 0.0
C971 C 0.1113 0.10423 0.27924 0.0
C972 C 0.18624 0.09845 0.27935 0.0
C973 C 0.09999 0.11879 0.28205 0.0
C974 C 0.24949 0.10742 0.28361 0.0
C975 C 0.23854 0.12189 0.28701 0.0
H976 H 0.04884 0.14528 0.97829 0.0
H977 H 0.29725 0.14243 0.97781 0.0
H978 H 0.28837 0.11681 0.97384 0.0
H979 H 0.21058 0.09531 0.97372 0.0
H980 H 0.96231 0.09814 0.97673 0.0
H981 H 0.97102 0.12383 0.97627 0.0
C982 C 0.10135 0.13913 0.97708 0.0
C983 C 0.17382 0.14586 0.9785 0.0
C984 C 0.09581 0.12441 0.97537 0.0
C985 C 0.24081 0.13759 0.9769 0.0
C986 C 0.23573 0.12293 0.97466 0.0
C987 C 0.15806 0.10149 0.97399 0.0
C988 C 0.08569 0.09472 0.97537 0.0
C989 C 0.16356 0.11623 0.97435 0.0
C990 C 0.01867 0.103 0.97576 0.0
C991 C 0.02366 0.11771 0.97555 0.0
H992 H 0.75646 0.88956 0.70732 0.0
H993 H 0.97897 0.89842 0.74369 0.0
H994 H 0.01435 0.87371 0.74043 0.0
H995 H 0.97786 0.84921 0.73135 0.0
H996 H 0.75643 0.84029 0.69413 0.0
H997 H 0.72609 0.86529 0.69294 0.0
C998 C 0.81264 0.88605 0.71441 0.0
C999 C 0.86439 0.89575 0.72605 0.0
C1000 C 0.83329 0.87179 0.71218 0.0
C1001 C 0.93778 0.89113 0.7347 0.0
C1002 C 0.95827 0.87699 0.73285 0.0
C1003 C 0.92386 0.85277 0.72234 0.0
C1004 C 0.86915 0.8429 0.71334 0.0
C1005 C 0.90603 0.86718 0.72208 0.0
C1006 C 0.79927 0.84768 0.70165 0.0
C1007 C 0.78153 0.86198 0.70106 0.0
H1008 H 0.79367 0.89743 0.02726 0.0
H1009 H 0.04158 0.89337 0.02809 0.0
H1010 H 0.02893 0.86777 0.03067 0.0
H1011 H 0.94839 0.84672 0.0297 0.0
H1012 H 0.70057 0.85059 0.02617 0.0
H1013 H 0.71266 0.87626 0.02796 0.0
C1014 C 0.84523 0.891 0.02826 0.0
C1015 C 0.91874 0.8974 0.02738 0.0
C1016 C 0.83751 0.87629 0.02917 0.0
C1017 C 0.98446 0.8888 0.02861 0.0
C1018 C 0.97719 0.87415 0.03007 0.0
C1019 C 0.89659 0.85309 0.02955 0.0
C1020 C 0.82341 0.84663 0.02767 0.0
C1021 C 0.90408 0.8678 0.02991 0.0
C1022 C 0.75748 0.85521 0.02755 0.0
C1023 C 0.76445 0.86989 0.02849 0.0
H1024 H 0.20094 0.60461 0.79877 0.0
H1025 H 0.01313 0.5939 0.74345 0.0
H1026 H 0.97006 0.6183 0.74298 0.0
H1027 H 0.98866 0.64293 0.75666 0.0
H1028 H 0.17519 0.65376 0.81253 0.0
H1029 H 0.21431 0.62915 0.81506 0.0
C1030 C 0.15107 0.60771 0.78651 0.0
C1031 C 0.1108 0.59759 0.77095 0.0
C1032 C 0.12546 0.62175 0.78678 0.0
C1033 C 0.0452 0.60159 0.75554 0.0
C1034 C 0.02026 0.61552 0.75533 0.0
C1035 C 0.03662 0.63984 0.76991 0.0
C1036 C 0.07899 0.65013 0.78425 0.0
C1037 C 0.05993 0.6257 0.77084 0.0
C1038 C 0.14173 0.646 0.80114 0.0
C1039 C 0.16461 0.63195 0.80246 0.0
H1040 H 0.24746 0.63477 0.46746 0.0
H1041 H 0.00934 0.64266 0.48851 0.0
H1042 H 0.98226 0.61758 0.48758 0.0
H1043 H 0.028 0.59323 0.4846 0.0
H1044 H 0.26561 0.58528 0.46289 0.0
H1045 H 0.29019 0.61043 0.45984 0.0
C1046 C 0.18966 0.63099 0.47169 0.0
C1047 C 0.13103 0.64058 0.47835 0.0
C1048 C 0.17402 0.61649 0.47103 0.0
C1049 C 0.05594 0.63552 0.48337 0.0
C1050 C 0.04016 0.62115 0.4829 0.0
C1051 C 0.08477 0.597 0.47876 0.0
C1052 C 0.14496 0.58739 0.47454 0.0
C1053 C 0.09901 0.61152 0.47724 0.0
C1054 C 0.21828 0.59246 0.4668 0.0
C1055 C 0.23264 0.60685 0.46505 0.0
H1056 H 0.78739 0.34336 0.2169 0.0
H1057 H 0.03491 0.34684 0.22363 0.0
H1058 H 0.02428 0.37251 0.22202 0.0
H1059 H 0.94434 0.39379 0.22181 0.0
H1060 H 0.6965 0.39012 0.21738 0.0
H1061 H 0.7081 0.36452 0.21492 0.0
C1062 C 0.83942 0.34966 0.21783 0.0
C1063 C 0.91202 0.3431 0.22057 0.0
C1064 C 0.83276 0.36436 0.21747 0.0
C1065 C 0.97837 0.35155 0.22162 0.0
C1066 C 0.97226 0.36624 0.22076 0.0
C1067 C 0.89264 0.38744 0.22006 0.0
C1068 C 0.81944 0.39393 0.21992 0.0
C1069 C 0.89965 0.37273 0.21917 0.0
C1070 C 0.75343 0.38546 0.21769 0.0
C1071 C 0.76005 0.37081 0.21629 0.0
H1072 H 0.76312 0.35061 0.52462 0.0
H1073 H 0.00648 0.34131 0.52066 0.0
H1074 H 0.03648 0.3663 0.5222 0.0
H1075 H 0.99345 0.39095 0.52099 0.0
H1076 H 0.74964 0.39994 0.52578 0.0
H1077 H 0.72088 0.37503 0.52771 0.0
C1078 C 0.82273 0.35402 0.52429 0.0
C1079 C 0.88206 0.34408 0.52207 0.0
C1080 C 0.83992 0.36842 0.52516 0.0
C1081 C 0.95921 0.34872 0.52207 0.0
C1082 C 0.97668 0.36304 0.52292 0.0
C1083 C 0.93416 0.38746 0.52272 0.0
C1084 C 0.87415 0.39736 0.5228 0.0
C1085 C 0.91743 0.37301 0.52386 0.0
C1086 C 0.79746 0.39262 0.52539 0.0
C1087 C 0.78057 0.37832 0.52648 0.0
H1088 H 0.54201 0.09663 0.77572 0.0
H1089 H 0.78912 0.10186 0.77963 0.0
H1090 H 0.77237 0.12719 0.78599 0.0
H1091 H 0.68864 0.14776 0.78744 0.0
H1092 H 0.44177 0.14274 0.78119 0.0
H1093 H 0.4578 0.11719 0.77911 0.0
C1094 C 0.59247 0.10325 0.77811 0.0
C1095 C 0.66692 0.09732 0.77696 0.0
C1096 C 0.58248 0.11779 0.78132 0.0
C1097 C 0.73128 0.10612 0.78021 0.0
C1098 C 0.72172 0.1206 0.78387 0.0
C1099 C 0.63795 0.14114 0.78587 0.0
C1100 C 0.56395 0.14722 0.78427 0.0
C1101 C 0.64767 0.12654 0.78402 0.0
C1102 C 0.49933 0.13838 0.78234 0.0
C1103 C 0.5085 0.12377 0.78107 0.0
H1104 H 0.73462 0.1391 0.4744 0.0
H1105 H 0.4982 0.14705 0.49777 0.0
H1106 H 0.46753 0.12225 0.49204 0.0
H1107 H 0.50947 0.09806 0.48374 0.0
H1108 H 0.74554 0.09 0.45992 0.0
H1109 H 0.77389 0.11506 0.462 0.0
C1110 C 0.67645 0.13539 0.47819 0.0
C1111 C 0.61924 0.14488 0.48682 0.0
C1112 C 0.6588 0.12109 0.4747 0.0
C1113 C 0.54364 0.13996 0.49118 0.0
C1114 C 0.52585 0.12577 0.48793 0.0
C1115 C 0.5668 0.10178 0.47858 0.0
C1116 C 0.62536 0.09212 0.47215 0.0
C1117 C 0.5832 0.1162 0.4801 0.0
C1118 C 0.69935 0.09717 0.46534 0.0
C1119 C 0.71588 0.11152 0.46659 0.0
H1120 H 0.28513 0.88952 0.21175 0.0
H1121 H 0.47416 0.89815 0.26786 0.0
H1122 H 0.51162 0.87338 0.26726 0.0
H1123 H 0.48723 0.84898 0.25233 0.0
H1124 H 0.3003 0.84049 0.19502 0.0
H1125 H 0.26706 0.86539 0.19386 0.0
C1126 C 0.3341 0.88589 0.22392 0.0
C1127 C 0.37613 0.89551 0.24012 0.0
C1128 C 0.35658 0.87168 0.22292 0.0
C1129 C 0.44067 0.89084 0.25536 0.0
C1130 C 0.46236 0.8767 0.25494 0.0
C1131 C 0.44047 0.85264 0.2391 0.0
C1132 C 0.39615 0.8429 0.22396 0.0
C1133 C 0.42066 0.867 0.23885 0.0
C1134 C 0.33511 0.84779 0.20707 0.0
C1135 C 0.31561 0.86202 0.20651 0.0
H1136 H 0.44919 0.88699 0.54518 0.0
H1137 H 0.2659 0.89978 0.48969 0.0
H1138 H 0.21235 0.87602 0.49033 0.0
H1139 H 0.22128 0.85128 0.50487 0.0
H1140 H 0.40283 0.83861 0.56139 0.0
H1141 H 0.45182 0.86263 0.56286 0.0
C1142 C 0.39796 0.88447 0.53313 0.0
C1143 C 0.36215 0.89493 0.51709 0.0
C1144 C 0.36631 0.87088 0.53415 0.0
C1145 C 0.29465 0.89175 0.50203 0.0
C1146 C 0.26377 0.87823 0.50248 0.0
C1147 C 0.27026 0.85388 0.51805 0.0
C1148 C 0.30855 0.84321 0.53281 0.0
C1149 C 0.2992 0.86767 0.5184 0.0
C1150 C 0.37257 0.84667 0.54965 0.0
C1151 C 0.40109 0.86037 0.55035 0.0
H1152 H 0.71104 0.64824 0.28217 0.0
H1153 H 0.4668 0.64017 0.27499 0.0
H1154 H 0.49148 0.61484 0.27882 0.0
H1155 H 0.58288 0.59518 0.28097 0.0
H1156 H 0.82739 0.60345 0.28503 0.0
H1157 H 0.80158 0.62876 0.28562 0.0
C1158 C 0.66265 0.64103 0.28163 0.0
C1159 C 0.58686 0.64617 0.27815 0.0
C1160 C 0.67745 0.62656 0.28309 0.0
C1161 C 0.52553 0.63655 0.27758 0.0
C1162 C 0.53972 0.62207 0.27969 0.0
C1163 C 0.63078 0.60248 0.28227 0.0
C1164 C 0.70725 0.59738 0.28293 0.0
C1165 C 0.61556 0.61698 0.28196 0.0
C1166 C 0.76822 0.60705 0.28439 0.0
C1167 C 0.75342 0.62151 0.28473 0.0
H1168 H 0.73717 0.64025 0.01319 0.0
H1169 H 0.61475 0.64791 0.93591 0.0
H1170 H 0.56921 0.62356 0.93528 0.0
H1171 H 0.55937 0.60015 0.95801 0.0
H1172 H 0.67887 0.59287 0.03595 0.0
H1173 H 0.72908 0.61692 0.0354 0.0
C1174 C 0.70224 0.63646 0.99586 0.0
C1175 C 0.68045 0.64578 0.97441 0.0
C1176 C 0.67374 0.62258 0.99622 0.0
C1177 C 0.63317 0.64085 0.95248 0.0
C1178 C 0.60636 0.62697 0.95227 0.0
C1179 C 0.59514 0.60399 0.97505 0.0
C1180 C 0.61381 0.59499 0.99739 0.0
C1181 C 0.62482 0.61781 0.97435 0.0
C1182 C 0.66231 0.59983 0.01894 0.0
C1183 C 0.69173 0.6135 0.01847 0.0
H1184 H 0.41769 0.39913 0.71155 0.0
H1185 H 0.1748 0.38927 0.71458 0.0
H1186 H 0.20533 0.36415 0.71257 0.0
H1187 H 0.30048 0.34526 0.71395 0.0
H1188 H 0.54353 0.35513 0.71446 0.0
H1189 H 0.51288 0.38021 0.71091 0.0
C1190 C 0.37102 0.39155 0.71143 0.0
C1191 C 0.29379 0.39612 0.71334 0.0
C1192 C 0.38907 0.37718 0.71112 0.0
C1193 C 0.23456 0.38607 0.71325 0.0
C1194 C 0.25206 0.37171 0.71216 0.0
C1195 C 0.34717 0.35283 0.71301 0.0
C1196 C 0.42448 0.34828 0.71464 0.0
C1197 C 0.32911 0.36718 0.71172 0.0
C1198 C 0.48371 0.35832 0.7134 0.0
C1199 C 0.46614 0.37265 0.7114 0.0
H1200 H 0.28014 0.39548 0.0186 0.0
H1201 H 0.5287 0.39318 0.01932 0.0
H1202 H 0.52163 0.36752 0.02199 0.0
H1203 H 0.44551 0.34585 0.02081 0.0
H1204 H 0.1971 0.34809 0.01747 0.0
H1205 H 0.20383 0.37379 0.01935 0.0
C1206 C 0.33303 0.38942 0.01961 0.0
C1207 C 0.40504 0.39633 0.01862 0.0
C1208 C 0.32855 0.37467 0.02053 0.0
C1209 C 0.4726 0.38821 0.0199 0.0
C1210 C 0.46856 0.37352 0.0214 0.0
C1211 C 0.39252 0.3519 0.02076 0.0
C1212 C 0.32072 0.34497 0.01886 0.0
C1213 C 0.39689 0.36665 0.02122 0.0
C1214 C 0.25306 0.35308 0.01879 0.0
C1215 C 0.25692 0.36779 0.01983 0.0
H1216 H 0.05907 0.05683 0.35978 0.0
H1217 H 0.86913 0.05815 0.30123 0.0
H1218 H 0.77797 0.05712 0.34046 0.0
H1219 H 0.75332 0.0544 0.39072 0.0
H1220 H 0.94289 0.05294 0.44939 0.0
H1221 H 0.03414 0.05552 0.41039 0.0
C1222 C 0.99768 0.05696 0.35554 0.0
C1223 C 0.97065 0.0574 0.32763 0.0
C1224 C 0.94607 0.05626 0.37809 0.0
C1225 C 0.89115 0.05776 0.32251 0.0
C1226 C 0.8392 0.05712 0.3449 0.0
C1227 C 0.81465 0.05465 0.39506 0.0
C1228 C 0.84163 0.05327 0.42285 0.0
C1229 C 0.86618 0.05612 0.37267 0.0
C1230 C 0.92098 0.05389 0.42816 0.0
C1231 C 0.97294 0.05535 0.4059 0.0
H1232 H 0.2139 0.18788 0.36822 0.0
H1233 H 0.40828 0.18235 0.31267 0.0
H1234 H 0.49438 0.18087 0.35338 0.0
H1235 H 0.51446 0.18274 0.40412 0.0
H1236 H 0.32046 0.18858 0.45969 0.0
H1237 H 0.23309 0.18824 0.4192 0.0
C1238 C 0.27512 0.1863 0.36494 0.0
C1239 C 0.30505 0.18541 0.33746 0.0
C1240 C 0.32385 0.18556 0.38832 0.0
C1241 C 0.38412 0.18314 0.3336 0.0
C1242 C 0.43319 0.18233 0.35684 0.0
C1243 C 0.45298 0.1839 0.40746 0.0
C1244 C 0.42381 0.18589 0.43482 0.0
C1245 C 0.40371 0.18379 0.3842 0.0
C1246 C 0.34411 0.18711 0.43883 0.0
C1247 C 0.29438 0.18696 0.41571 0.0
H1248 H 0.70923 0.18218 0.87123 0.0
H1249 H 0.89517 0.18355 0.81104 0.0
H1250 H 0.98895 0.18184 0.84933 0.0
H1251 H 0.01724 0.1821 0.89971 0.0
H1252 H 0.83169 0.18103 0.96004 0.0
H1253 H 0.73773 0.1803 0.9216 0.0
C1254 C 0.77031 0.18202 0.86644 0.0
C1255 C 0.79551 0.18322 0.8384 0.0
C1256 C 0.8235 0.18113 0.88849 0.0
C1257 C 0.87457 0.18272 0.83247 0.0
C1258 C 0.92804 0.18179 0.85433 0.0
C1259 C 0.95621 0.18161 0.90449 0.0
C1260 C 0.93112 0.18185 0.93263 0.0
C1261 C 0.90305 0.18133 0.8824 0.0
C1262 C 0.85216 0.18093 0.93854 0.0
C1263 C 0.79861 0.18058 0.91659 0.0
H1264 H 0.22899 0.05719 0.88924 0.0
H1265 H 0.42065 0.0618 0.94635 0.0
H1266 H 0.50884 0.06378 0.90638 0.0
H1267 H 0.53185 0.0622 0.8558 0.0
H1268 H 0.34101 0.05718 0.79853 0.0
H1269 H 0.25106 0.05756 0.83829 0.0
C1270 C 0.29005 0.05871 0.89299 0.0
C1271 C 0.31864 0.05914 0.9207 0.0
C1272 C 0.34009 0.05973 0.87 0.0
C1273 C 0.39751 0.06135 0.92523 0.0
C1274 C 0.4478 0.06245 0.90241 0.0
C1275 C 0.47047 0.06127 0.85194 0.0
C1276 C 0.44292 0.05943 0.82434 0.0
C1277 C 0.41979 0.06133 0.87479 0.0
C1278 C 0.36338 0.05853 0.81961 0.0
C1279 C 0.3122 0.05868 0.84232 0.0
H1280 H 0.27637 0.93522 0.61176 0.0
H1281 H 0.08707 0.9389 0.55329 0.0
H1282 H 0.99596 0.93897 0.5926 0.0
H1283 H 0.97163 0.93898 0.64311 0.0
H1284 H 0.16094 0.93568 0.70167 0.0
H1285 H 0.25168 0.93447 0.66228 0.0
C1286 C 0.21513 0.93599 0.60751 0.0
C1287 C 0.18829 0.93715 0.57966 0.0
C1288 C 0.16368 0.93616 0.63009 0.0
C1289 C 0.10893 0.93803 0.57454 0.0
C1290 C 0.05705 0.93811 0.59697 0.0
C1291 C 0.03276 0.93798 0.64737 0.0
C1292 C 0.05983 0.93753 0.67527 0.0
C1293 C 0.08403 0.93735 0.62478 0.0
C1294 C 0.13896 0.93611 0.68038 0.0
C1295 C 0.19063 0.93542 0.6579 0.0
H1296 H 0.72466 0.80756 0.64556 0.0
H1297 H 0.53182 0.80506 0.70258 0.0
H1298 H 0.44277 0.80516 0.66243 0.0
H1299 H 0.42231 0.80364 0.61153 0.0
H1300 H 0.61645 0.80554 0.55486 0.0
H1301 H 0.70377 0.80796 0.59497 0.0
C1302 C 0.66302 0.80711 0.64926 0.0
C1303 C 0.63437 0.80602 0.67682 0.0
C1304 C 0.61319 0.80691 0.6263 0.0
C1305 C 0.55474 0.80583 0.68146 0.0
C1306 C 0.5042 0.80579 0.65856 0.0
C1307 C 0.48377 0.8046 0.60791 0.0
C1308 C 0.51341 0.80413 0.58036 0.0
C1309 C 0.53314 0.80592 0.63095 0.0
C1310 C 0.5927 0.80571 0.57591 0.0
C1311 C 0.64239 0.8071 0.59878 0.0
H1312 H 0.26595 0.80792 0.14342 0.0
H1313 H 0.06706 0.81011 0.19774 0.0
H1314 H 0.98404 0.81374 0.15673 0.0
H1315 H 0.96762 0.81353 0.10574 0.0
H1316 H 0.16557 0.81046 0.05123 0.0
H1317 H 0.25069 0.81027 0.09243 0.0
C1318 C 0.2044 0.80925 0.14633 0.0
C1319 C 0.17205 0.80841 0.17343 0.0
C1320 C 0.15751 0.81119 0.12277 0.0
C1321 C 0.09281 0.81054 0.17702 0.0
C1322 C 0.04557 0.8126 0.15363 0.0
C1323 C 0.02956 0.81298 0.10284 0.0
C1324 C 0.06067 0.81172 0.07565 0.0
C1325 C 0.07722 0.81253 0.12645 0.0
C1326 C 0.14069 0.81137 0.07203 0.0
C1327 C 0.18903 0.81114 0.09554 0.0
H1328 H 0.78418 0.9359 0.11179 0.0
H1329 H 0.59015 0.931 0.05584 0.0
H1330 H 0.50379 0.92908 0.09641 0.0
H1331 H 0.48328 0.93083 0.14713 0.0
H1332 H 0.67686 0.93648 0.203 0.0
H1333 H 0.7647 0.93589 0.16269 0.0
C1334 C 0.72299 0.93435 0.10839 0.0
C1335 C 0.69317 0.93381 0.08087 0.0
C1336 C 0.67412 0.93342 0.13167 0.0
C1337 C 0.61417 0.93154 0.07682 0.0
C1338 C 0.56497 0.93048 0.09998 0.0
C1339 C 0.54479 0.93184 0.15058 0.0
C1340 C 0.57371 0.93392 0.17794 0.0
C1341 C 0.59427 0.93172 0.12741 0.0
C1342 C 0.65341 0.93496 0.18212 0.0
C1343 C 0.70341 0.93468 0.1591 0.0
H1344 H 0.0054 0.56332 0.8622 0.0
H1345 H 0.81121 0.55441 0.80837 0.0
H1346 H 0.72657 0.55366 0.84971 0.0
H1347 H 0.71155 0.5534 0.901 0.0
H1348 H 0.90808 0.56119 0.95451 0.0
H1349 H 0.98925 0.56438 0.91295 0.0
C1350 C 0.94437 0.5613 0.85937 0.0
C1351 C 0.91449 0.55873 0.83233 0.0
C1352 C 0.89725 0.5605 0.88308 0.0
C1353 C 0.83532 0.5564 0.82898 0.0
C1354 C 0.7873 0.55587 0.8526 0.0
C1355 C 0.77214 0.55584 0.90365 0.0
C1356 C 0.80419 0.5569 0.93081 0.0
C1357 C 0.81822 0.55753 0.87975 0.0
C1358 C 0.88241 0.56021 0.93385 0.0
C1359 C 0.92861 0.56205 0.91013 0.0
H1360 H 0.39156 0.68527 0.81608 0.0
H1361 H 0.18032 0.69071 0.86274 0.0
H1362 H 0.2491 0.68828 0.90678 0.0
H1363 H 0.37067 0.68642 0.93268 0.0
H1364 H 0.58303 0.68186 0.88659 0.0
H1365 H 0.51291 0.68191 0.84222 0.0
C1366 C 0.36081 0.68582 0.83589 0.0
C1367 C 0.28133 0.68838 0.83602 0.0
C1368 C 0.40093 0.68457 0.86148 0.0
C1369 C 0.24195 0.68898 0.86192 0.0
C1370 C 0.28108 0.68753 0.88726 0.0
C1371 C 0.4012 0.68521 0.91293 0.0
C1372 C 0.48158 0.68427 0.91287 0.0
C1373 C 0.36076 0.68559 0.88737 0.0
C1374 C 0.52083 0.68277 0.88713 0.0
C1375 C 0.48091 0.68281 0.8617 0.0
H1376 H 0.01358 0.67784 0.39317 0.0
H1377 H 0.82114 0.6834 0.44955 0.0
H1378 H 0.73342 0.68454 0.40919 0.0
H1379 H 0.71398 0.68577 0.35824 0.0
H1380 H 0.90697 0.68055 0.30193 0.0
H1381 H 0.99294 0.67747 0.34232 0.0
C1382 C 0.95231 0.67921 0.39671 0.0
C1383 C 0.92375 0.68072 0.42428 0.0
C1384 C 0.90295 0.68004 0.37353 0.0
C1385 C 0.84431 0.68225 0.42854 0.0
C1386 C 0.79442 0.68298 0.40549 0.0
C1387 C 0.77489 0.68394 0.35472 0.0
C1388 C 0.80451 0.68361 0.32713 0.0
C1389 C 0.82351 0.68221 0.37794 0.0
C1390 C 0.88311 0.68097 0.32295 0.0
C1391 C 0.93207 0.67921 0.34601 0.0
H1392 H 0.59344 0.55575 0.37382 0.0
H1393 H 0.40094 0.55944 0.31674 0.0
H1394 H 0.31179 0.55872 0.35646 0.0
H1395 H 0.28888 0.55494 0.4063 0.0
H1396 H 0.47949 0.55054 0.46384 0.0
H1397 H 0.57022 0.55387 0.42471 0.0
C1398 C 0.53196 0.55651 0.37005 0.0
C1399 C 0.50352 0.55744 0.34236 0.0
C1400 C 0.48127 0.5559 0.39292 0.0
C1401 C 0.42401 0.55862 0.33783 0.0
C1402 C 0.37317 0.55818 0.3605 0.0
C1403 C 0.35037 0.55474 0.41038 0.0
C1404 C 0.37788 0.5522 0.43773 0.0
C1405 C 0.40124 0.55646 0.38796 0.0
C1406 C 0.45733 0.55236 0.44287 0.0
C1407 C 0.50889 0.5542 0.42053 0.0
H1408 H 0.9583 0.42953 0.13652 0.0
H1409 H 0.15234 0.43197 0.19302 0.0
H1410 H 0.24054 0.43167 0.15275 0.0
H1411 H 0.26097 0.43277 0.10175 0.0
H1412 H 0.06672 0.43053 0.04529 0.0
H1413 H 0.97936 0.4286 0.08559 0.0
C1414 C 0.01999 0.42989 0.14009 0.0
C1415 C 0.04893 0.43097 0.1677 0.0
C1416 C 0.06984 0.42984 0.11692 0.0
C1417 C 0.12881 0.43118 0.17199 0.0
C1418 C 0.17906 0.43108 0.14898 0.0
C1419 C 0.1995 0.43179 0.0982 0.0
C1420 C 0.17007 0.43201 0.07057 0.0
C1421 C 0.15001 0.43075 0.12139 0.0
C1422 C 0.09059 0.43047 0.06632 0.0
C1423 C 0.04078 0.42941 0.08935 0.0
H1424 H 0.76581 0.3106 0.1389 0.0
H1425 H 0.57078 0.30776 0.19485 0.0
H1426 H 0.48312 0.3093 0.15451 0.0
H1427 H 0.46362 0.3089 0.10344 0.0
H1428 H 0.6592 0.31125 0.04759 0.0
H1429 H 0.74586 0.31257 0.08814 0.0
C1430 C 0.70403 0.31044 0.14232 0.0
C1431 C 0.67448 0.30882 0.1697 0.0
C1432 C 0.65462 0.31114 0.11915 0.0
C1433 C 0.5946 0.30893 0.17393 0.0
C1434 C 0.54472 0.30973 0.1509 0.0
C1435 C 0.52523 0.30981 0.1001 0.0
C1436 C 0.55534 0.30973 0.07259 0.0
C1437 C 0.5743 0.31042 0.12341 0.0
C1438 C 0.63492 0.31119 0.06856 0.0
C1439 C 0.68431 0.3119 0.09171 0.0
H1440 H 0.00151 0.30613 0.60197 0.0
H1441 H 0.18828 0.30127 0.54285 0.0
H1442 H 0.28136 0.30274 0.5816 0.0
H1443 H 0.30785 0.30418 0.63227 0.0
H1444 H 0.11967 0.30889 0.69093 0.0
H1445 H 0.02796 0.30873 0.65193 0.0
C1446 C 0.06263 0.30539 0.59744 0.0
C1447 C 0.08819 0.3034 0.56964 0.0
C1448 C 0.11503 0.30618 0.61965 0.0
C1449 C 0.16742 0.30273 0.56411 0.0
C1450 C 0.22039 0.30354 0.58623 0.0
C1451 C 0.24675 0.30522 0.63656 0.0
C1452 C 0.22031 0.3064 0.66447 0.0
C1453 C 0.19461 0.30506 0.6141 0.0
C1454 C 0.14124 0.3079 0.66966 0.0
C1455 C 0.08893 0.30779 0.6474 0.0
H1456 H 0.5789 0.43049 0.67206 0.0
H1457 H 0.37966 0.44703 0.62897 0.0
H1458 H 0.44863 0.44671 0.58459 0.0
H1459 H 0.56855 0.44306 0.55795 0.0
H1460 H 0.76856 0.42708 0.60112 0.0
H1461 H 0.69647 0.4256 0.64493 0.0
C1462 C 0.55077 0.434 0.65295 0.0
C1463 C 0.47465 0.43887 0.65397 0.0
C1464 C 0.59081 0.43382 0.62725 0.0
C1465 C 0.43856 0.44327 0.62892 0.0
C1466 C 0.47782 0.44308 0.60338 0.0
C1467 C 0.59557 0.43902 0.57686 0.0
C1468 C 0.67349 0.43527 0.57641 0.0
C1469 C 0.55426 0.43851 0.60228 0.0
C1470 C 0.70845 0.43016 0.60108 0.0
C1471 C 0.66746 0.42934 0.62619 0.0
loop_
_geom_bond_atom_site_label_1
_geom_bond_atom_site_label_2
_geom_bond_distance
_geom_bond_site_symmetry_2
_ccdc_geom_bond_type
Co0 O1 2.216 . S
Co0 O2 2.091 1_455 S
Co0 O4 2.004 . S
Co0 O10 2.021 . S
Co0 O12 2.137 . S
Co0 O13 2.244 . S
O1 Co0 2.216 . S
O1 C8 1.247 1_455 S
O2 Co0 2.091 1_655 S
O2 C8 1.261 . S
C3 O12 1.247 . S
C3 O13 1.272 . S
O4 Co0 2.004 . S
O4 C9 1.259 . S
Co5 O6 2.061 . S
Co5 O11 2.052 . S
Co5 O13 2.135 . S
O6 Co5 2.061 . S
O6 C9 1.235 . S
C7 O10 1.238 . S
C7 O11 1.241 . S
C8 O1 1.247 1_655 S
C8 O2 1.261 . S
C9 O4 1.259 . S
C9 O6 1.235 . S
O10 Co0 2.021 . S
O10 C7 1.238 . S
O11 Co5 2.052 . S
O11 C7 1.241 . S
O12 Co0 2.137 . S
O12 C3 1.247 . S
O13 Co0 2.244 . S
O13 C3 1.272 . S
O13 Co5 2.135 . S
Co14 O15 2.216 . S
Co14 O16 2.091 . S
Co14 O18 2.004 . S
Co14 O24 2.021 . S
Co14 O26 2.137 . S
Co14 O27 2.244 . S
O15 Co14 2.216 . S
O15 C22 1.247 . S
O16 Co14 2.091 . S
O16 C22 1.261 . S
C17 O26 1.247 . S
C17 O27 1.272 . S
O18 Co14 2.004 . S
O18 C23 1.259 . S
Co19 O20 2.061 . S
Co19 O25 2.052 . S
Co19 O27 2.135 . S
O20 Co19 2.061 . S
O20 C23 1.235 . S
C21 O24 1.238 . S
C21 O25 1.241 . S
C22 O15 1.247 . S
C22 O16 1.261 . S
C23 O18 1.259 . S
C23 O20 1.235 . S
O24 Co14 2.021 . S
O24 C21 1.238 . S
O25 Co19 2.052 . S
O25 C21 1.241 . S
O26 Co14 2.137 . S
O26 C17 1.247 . S
O27 Co14 2.244 . S
O27 C17 1.272 . S
O27 Co19 2.135 . S
Co28 O29 2.216 . S
Co28 O30 2.091 1_455 S
Co28 O32 2.004 1_556 S
Co28 O38 2.021 . S
Co28 O40 2.137 . S
Co28 O41 2.244 . S
O29 Co28 2.216 . S
O29 C36 1.247 1_455 S
O30 Co28 2.091 1_655 S
O30 C36 1.261 . S
C31 O40 1.247 . S
C31 O41 1.272 . S
O32 Co28 2.004 1_554 S
O32 C37 1.259 . S
Co33 O34 2.061 . S
Co33 O39 2.052 1_554 S
Co33 O41 2.135 1_554 S
O34 Co33 2.061 . S
O34 C37 1.235 . S
C35 O38 1.238 . S
C35 O39 1.241 . S
C36 O29 1.247 1_655 S
C36 O30 1.261 . S
C37 O32 1.259 . S
C37 O34 1.235 . S
O38 Co28 2.021 . S
O38 C35 1.238 . S
O39 Co33 2.052 1_556 S
O39 C35 1.241 . S
O40 Co28 2.137 . S
O40 C31 1.247 . S
O41 Co28 2.244 . S
O41 C31 1.272 . S
O41 Co33 2.135 1_556 S
Co42 O43 2.216 . S
Co42 O44 2.091 . S
Co42 O46 2.004 1_556 S
Co42 O52 2.021 . S
Co42 O54 2.137 . S
Co42 O55 2.244 . S
O43 Co42 2.216 . S
O43 C50 1.247 . S
O44 Co42 2.091 . S
O44 C50 1.261 . S
C45 O54 1.247 . S
C45 O55 1.272 . S
O46 Co42 2.004 1_554 S
O46 C51 1.259 . S
Co47 O48 2.061 . S
Co47 O53 2.052 1_554 S
Co47 O55 2.135 1_554 S
O48 Co47 2.061 . S
O48 C51 1.235 . S
C49 O52 1.238 . S
C49 O53 1.241 . S
C50 O43 1.247 . S
C50 O44 1.261 . S
C51 O46 1.259 . S
C51 O48 1.235 . S
O52 Co42 2.021 . S
O52 C49 1.238 . S
O53 Co47 2.052 1_556 S
O53 C49 1.241 . S
O54 Co42 2.137 . S
O54 C45 1.247 . S
O55 Co42 2.244 . S
O55 C45 1.272 . S
O55 Co47 2.135 1_556 S
Co56 O57 2.216 . S
Co56 O58 2.091 1_655 S
Co56 O60 2.004 . S
Co56 O66 2.021 . S
Co56 O68 2.137 . S
Co56 O69 2.244 . S
O57 Co56 2.216 . S
O57 C64 1.247 1_655 S
O58 Co56 2.091 1_455 S
O58 C64 1.261 . S
C59 O68 1.247 . S
C59 O69 1.272 . S
O60 Co56 2.004 . S
O60 C65 1.259 . S
Co61 O62 2.061 . S
Co61 O67 2.052 . S
Co61 O69 2.135 . S
O62 Co61 2.061 . S
O62 C65 1.235 . S
C63 O66 1.238 . S
C63 O67 1.241 . S
C64 O57 1.247 1_455 S
C64 O58 1.261 . S
C65 O60 1.259 . S
C65 O62 1.235 . S
O66 Co56 2.021 . S
O66 C63 1.238 . S
O67 Co61 2.052 . S
O67 C63 1.241 . S
O68 Co56 2.137 . S
O68 C59 1.247 . S
O69 Co56 2.244 . S
O69 C59 1.272 . S
O69 Co61 2.135 . S
Co70 O71 2.216 . S
Co70 O72 2.091 . S
Co70 O74 2.004 . S
Co70 O80 2.021 . S
Co70 O82 2.137 . S
Co70 O83 2.244 . S
O71 Co70 2.216 . S
O71 C78 1.247 . S
O72 Co70 2.091 . S
O72 C78 1.261 . S
C73 O82 1.247 . S
C73 O83 1.272 . S
O74 Co70 2.004 . S
O74 C79 1.259 . S
Co75 O76 2.061 . S
Co75 O81 2.052 . S
Co75 O83 2.135 . S
O76 Co75 2.061 . S
O76 C79 1.235 . S
C77 O80 1.238 . S
C77 O81 1.241 . S
C78 O71 1.247 . S
C78 O72 1.261 . S
C79 O74 1.259 . S
C79 O76 1.235 . S
O80 Co70 2.021 . S
O80 C77 1.238 . S
O81 Co75 2.052 . S
O81 C77 1.241 . S
O82 Co70 2.137 . S
O82 C73 1.247 . S
O83 Co70 2.244 . S
O83 C73 1.272 . S
O83 Co75 2.135 . S
Co84 O85 2.216 . S
Co84 O86 2.091 1_655 S
Co84 O88 2.004 1_554 S
Co84 O94 2.021 . S
Co84 O96 2.137 . S
Co84 O97 2.244 . S
O85 Co84 2.216 . S
O85 C92 1.247 1_655 S
O86 Co84 2.091 1_455 S
O86 C92 1.261 . S
C87 O96 1.247 . S
C87 O97 1.272 . S
O88 Co84 2.004 1_556 S
O88 C93 1.259 . S
Co89 O90 2.061 . S
Co89 O95 2.052 1_556 S
Co89 O97 2.135 1_556 S
O90 Co89 2.061 . S
O90 C93 1.235 . S
C91 O94 1.238 . S
C91 O95 1.241 . S
C92 O85 1.247 1_455 S
C92 O86 1.261 . S
C93 O88 1.259 . S
C93 O90 1.235 . S
O94 Co84 2.021 . S
O94 C91 1.238 . S
O95 Co89 2.052 1_554 S
O95 C91 1.241 . S
O96 Co84 2.137 . S
O96 C87 1.247 . S
O97 Co84 2.244 . S
O97 C87 1.272 . S
O97 Co89 2.135 1_554 S
Co98 O99 2.216 . S
Co98 O100 2.091 . S
Co98 O102 2.004 1_554 S
Co98 O108 2.021 . S
Co98 O110 2.137 . S
Co98 O111 2.244 . S
O99 Co98 2.216 . S
O99 C106 1.247 . S
O100 Co98 2.091 . S
O100 C106 1.261 . S
C101 O110 1.247 . S
C101 O111 1.272 . S
O102 Co98 2.004 1_556 S
O102 C107 1.259 . S
Co103 O104 2.061 . S
Co103 O109 2.052 1_556 S
Co103 O111 2.135 1_556 S
O104 Co103 2.061 . S
O104 C107 1.235 . S
C105 O108 1.238 . S
C105 O109 1.241 . S
C106 O99 1.247 . S
C106 O100 1.261 . S
C107 O102 1.259 . S
C107 O104 1.235 . S
O108 Co98 2.021 . S
O108 C105 1.238 . S
O109 Co103 2.052 1_554 S
O109 C105 1.241 . S
O110 Co98 2.137 . S
O110 C101 1.247 . S
O111 Co98 2.244 . S
O111 C101 1.272 . S
O111 Co103 2.135 1_554 S
Co112 O113 2.216 . S
Co112 O114 2.091 1_455 S
Co112 O116 2.004 . S
Co112 O122 2.021 . S
Co112 O124 2.137 . S
Co112 O125 2.244 . S
O113 Co112 2.216 . S
O113 C120 1.247 1_455 S
O114 Co112 2.091 1_655 S
O114 C120 1.261 . S
C115 O124 1.247 . S
C115 O125 1.272 . S
O116 Co112 2.004 . S
O116 C121 1.259 . S
Co117 O118 2.061 . S
Co117 O123 2.052 . S
Co117 O125 2.135 . S
O118 Co117 2.061 . S
O118 C121 1.235 . S
C119 O122 1.238 . S
C119 O123 1.241 . S
C120 O113 1.247 1_655 S
C120 O114 1.261 . S
C121 O116 1.259 . S
C121 O118 1.235 . S
O122 Co112 2.021 . S
O122 C119 1.238 . S
O123 Co117 2.052 . S
O123 C119 1.241 . S
O124 Co112 2.137 . S
O124 C115 1.247 . S
O125 Co112 2.244 . S
O125 C115 1.272 . S
O125 Co117 2.135 . S
Co126 O127 2.216 . S
Co126 O128 2.091 . S
Co126 O130 2.004 . S
Co126 O136 2.021 . S
Co126 O138 2.137 . S
Co126 O139 2.244 . S
O127 Co126 2.216 . S
O127 C134 1.247 . S
O128 Co126 2.091 . S
O128 C134 1.261 . S
C129 O138 1.247 . S
C129 O139 1.272 . S
O130 Co126 2.004 . S
O130 C135 1.259 . S
Co131 O132 2.061 . S
Co131 O137 2.052 . S
Co131 O139 2.135 . S
O132 Co131 2.061 . S
O132 C135 1.235 . S
C133 O136 1.238 . S
C133 O137 1.241 . S
C134 O127 1.247 . S
C134 O128 1.261 . S
C135 O130 1.259 . S
C135 O132 1.235 . S
O136 Co126 2.021 . S
O136 C133 1.238 . S
O137 Co131 2.052 . S
O137 C133 1.241 . S
O138 Co126 2.137 . S
O138 C129 1.247 . S
O139 Co126 2.244 . S
O139 C129 1.272 . S
O139 Co131 2.135 . S
Co140 O141 2.216 . S
Co140 O142 2.091 1_455 S
Co140 O144 2.004 . S
Co140 O150 2.021 . S
Co140 O152 2.137 . S
Co140 O153 2.244 . S
O141 Co140 2.216 . S
O141 C148 1.247 1_455 S
O142 Co140 2.091 1_655 S
O142 C148 1.261 . S
C143 O152 1.247 . S
C143 O153 1.272 . S
O144 Co140 2.004 . S
O144 C149 1.259 . S
Co145 O146 2.061 . S
Co145 O151 2.052 . S
Co145 O153 2.135 . S
O146 Co145 2.061 . S
O146 C149 1.235 . S
C147 O150 1.238 . S
C147 O151 1.241 . S
C148 O141 1.247 1_655 S
C148 O142 1.261 . S
C149 O144 1.259 . S
C149 O146 1.235 . S
O150 Co140 2.021 . S
O150 C147 1.238 . S
O151 Co145 2.052 . S
O151 C147 1.241 . S
O152 Co140 2.137 . S
O152 C143 1.247 . S
O153 Co140 2.244 . S
O153 C143 1.272 . S
O153 Co145 2.135 . S
Co154 O155 2.216 . S
Co154 O156 2.091 . S
Co154 O158 2.004 . S
Co154 O164 2.021 . S
Co154 O166 2.137 . S
Co154 O167 2.244 . S
O155 Co154 2.216 . S
O155 C162 1.247 . S
O156 Co154 2.091 . S
O156 C162 1.261 . S
C157 O166 1.247 . S
C157 O167 1.272 . S
O158 Co154 2.004 . S
O158 C163 1.259 . S
Co159 O160 2.061 . S
Co159 O165 2.052 . S
Co159 O167 2.135 . S
O160 Co159 2.061 . S
O160 C163 1.235 . S
C161 O164 1.238 . S
C161 O165 1.241 . S
C162 O155 1.247 . S
C162 O156 1.261 . S
C163 O158 1.259 . S
C163 O160 1.235 . S
O164 Co154 2.021 . S
O164 C161 1.238 . S
O165 Co159 2.052 . S
O165 C161 1.241 . S
O166 Co154 2.137 . S
O166 C157 1.247 . S
O167 Co154 2.244 . S
O167 C157 1.272 . S
O167 Co159 2.135 . S
Co168 O169 2.216 . S
Co168 O170 2.091 1_655 S
Co168 O172 2.004 . S
Co168 O178 2.021 . S
Co168 O180 2.137 . S
Co168 O181 2.244 . S
O169 Co168 2.216 . S
O169 C176 1.247 1_655 S
O170 Co168 2.091 1_455 S
O170 C176 1.261 . S
C171 O180 1.247 . S
C171 O181 1.272 . S
O172 Co168 2.004 . S
O172 C177 1.259 . S
Co173 O174 2.061 . S
Co173 O179 2.052 . S
Co173 O181 2.135 . S
O174 Co173 2.061 . S
O174 C177 1.235 . S
C175 O178 1.238 . S
C175 O179 1.241 . S
C176 O169 1.247 1_455 S
C176 O170 1.261 . S
C177 O172 1.259 . S
C177 O174 1.235 . S
O178 Co168 2.021 . S
O178 C175 1.238 . S
O179 Co173 2.052 . S
O179 C175 1.241 . S
O180 Co168 2.137 . S
O180 C171 1.247 . S
O181 Co168 2.244 . S
O181 C171 1.272 . S
O181 Co173 2.135 . S
Co182 O183 2.216 . S
Co182 O184 2.091 . S
Co182 O186 2.004 . S
Co182 O192 2.021 . S
Co182 O194 2.137 . S
Co182 O195 2.244 . S
O183 Co182 2.216 . S
O183 C190 1.247 . S
O184 Co182 2.091 . S
O184 C190 1.261 . S
C185 O194 1.247 . S
C185 O195 1.272 . S
O186 Co182 2.004 . S
O186 C191 1.259 . S
Co187 O188 2.061 . S
Co187 O193 2.052 . S
Co187 O195 2.135 . S
O188 Co187 2.061 . S
O188 C191 1.235 . S
C189 O192 1.238 . S
C189 O193 1.241 . S
C190 O183 1.247 . S
C190 O184 1.261 . S
C191 O186 1.259 . S
C191 O188 1.235 . S
O192 Co182 2.021 . S
O192 C189 1.238 . S
O193 Co187 2.052 . S
O193 C189 1.241 . S
O194 Co182 2.137 . S
O194 C185 1.247 . S
O195 Co182 2.244 . S
O195 C185 1.272 . S
O195 Co187 2.135 . S
Co196 O197 2.216 . S
Co196 O198 2.091 1_655 S
Co196 O200 2.004 . S
Co196 O206 2.021 . S
Co196 O208 2.137 . S
Co196 O209 2.244 . S
O197 Co196 2.216 . S
O197 C204 1.247 1_655 S
O198 Co196 2.091 1_455 S
O198 C204 1.261 . S
C199 O208 1.247 . S
C199 O209 1.272 . S
O200 Co196 2.004 . S
O200 C205 1.259 . S
Co201 O202 2.061 . S
Co201 O207 2.052 . S
Co201 O209 2.135 . S
O202 Co201 2.061 . S
O202 C205 1.235 . S
C203 O206 1.238 . S
C203 O207 1.241 . S
C204 O197 1.247 1_455 S
C204 O198 1.261 . S
C205 O200 1.259 . S
C205 O202 1.235 . S
O206 Co196 2.021 . S
O206 C203 1.238 . S
O207 Co201 2.052 . S
O207 C203 1.241 . S
O208 Co196 2.137 . S
O208 C199 1.247 . S
O209 Co196 2.244 . S
O209 C199 1.272 . S
O209 Co201 2.135 . S
Co210 O211 2.216 . S
Co210 O212 2.091 . S
Co210 O214 2.004 . S
Co210 O220 2.021 . S
Co210 O222 2.137 . S
Co210 O223 2.244 . S
O211 Co210 2.216 . S
O211 C218 1.247 . S
O212 Co210 2.091 . S
O212 C218 1.261 . S
C213 O222 1.247 . S
C213 O223 1.272 . S
O214 Co210 2.004 . S
O214 C219 1.259 . S
Co215 O216 2.061 . S
Co215 O221 2.052 . S
Co215 O223 2.135 . S
O216 Co215 2.061 . S
O216 C219 1.235 . S
C217 O220 1.238 . S
C217 O221 1.241 . S
C218 O211 1.247 . S
C218 O212 1.261 . S
C219 O214 1.259 . S
C219 O216 1.235 . S
O220 Co210 2.021 . S
O220 C217 1.238 . S
O221 Co215 2.052 . S
O221 C217 1.241 . S
O222 Co210 2.137 . S
O222 C213 1.247 . S
O223 Co210 2.244 . S
O223 C213 1.272 . S
O223 Co215 2.135 . S
Co224 O225 2.216 . S
Co224 O226 2.091 . S
Co224 O228 2.004 . S
Co224 O234 2.021 . S
Co224 O236 2.137 . S
Co224 O237 2.244 . S
O225 Co224 2.216 . S
O225 C232 1.247 . S
O226 Co224 2.091 . S
O226 C232 1.261 . S
C227 O236 1.247 . S
C227 O237 1.272 . S
O228 Co224 2.004 . S
O228 C233 1.259 . S
Co229 O230 2.061 . S
Co229 O235 2.052 . S
Co229 O237 2.135 . S
O230 Co229 2.061 . S
O230 C233 1.235 . S
C231 O234 1.238 . S
C231 O235 1.241 . S
C232 O225 1.247 . S
C232 O226 1.261 . S
C233 O228 1.259 . S
C233 O230 1.235 . S
O234 Co224 2.021 . S
O234 C231 1.238 . S
O235 Co229 2.052 . S
O235 C231 1.241 . S
O236 Co224 2.137 . S
O236 C227 1.247 . S
O237 Co224 2.244 . S
O237 C227 1.272 . S
O237 Co229 2.135 . S
Co238 O239 2.216 . S
Co238 O240 2.091 . S
Co238 O242 2.004 . S
Co238 O248 2.021 . S
Co238 O250 2.137 . S
Co238 O251 2.244 . S
O239 Co238 2.216 . S
O239 C246 1.247 . S
O240 Co238 2.091 . S
O240 C246 1.261 . S
C241 O250 1.247 . S
C241 O251 1.272 . S
O242 Co238 2.004 . S
O242 C247 1.259 . S
Co243 O244 2.061 . S
Co243 O249 2.052 . S
Co243 O251 2.135 . S
O244 Co243 2.061 . S
O244 C247 1.235 . S
C245 O248 1.238 . S
C245 O249 1.241 . S
C246 O239 1.247 . S
C246 O240 1.261 . S
C247 O242 1.259 . S
C247 O244 1.235 . S
O248 Co238 2.021 . S
O248 C245 1.238 . S
O249 Co243 2.052 . S
O249 C245 1.241 . S
O250 Co238 2.137 . S
O250 C241 1.247 . S
O251 Co238 2.244 . S
O251 C241 1.272 . S
O251 Co243 2.135 . S
Co252 O253 2.216 . S
Co252 O254 2.091 . S
Co252 O256 2.004 . S
Co252 O262 2.021 . S
Co252 O264 2.137 . S
Co252 O265 2.244 . S
O253 Co252 2.216 . S
O253 C260 1.247 . S
O254 Co252 2.091 . S
O254 C260 1.261 . S
C255 O264 1.247 . S
C255 O265 1.272 . S
O256 Co252 2.004 . S
O256 C261 1.259 . S
Co257 O258 2.061 . S
Co257 O263 2.052 . S
Co257 O265 2.135 . S
O258 Co257 2.061 . S
O258 C261 1.235 . S
C259 O262 1.238 . S
C259 O263 1.241 . S
C260 O253 1.247 . S
C260 O254 1.261 . S
C261 O256 1.259 . S
C261 O258 1.235 . S
O262 Co252 2.021 . S
O262 C259 1.238 . S
O263 Co257 2.052 . S
O263 C259 1.241 . S
O264 Co252 2.137 . S
O264 C255 1.247 . S
O265 Co252 2.244 . S
O265 C255 1.272 . S
O265 Co257 2.135 . S
Co266 O267 2.216 . S
Co266 O268 2.091 . S
Co266 O270 2.004 . S
Co266 O276 2.021 . S
Co266 O278 2.137 . S
Co266 O279 2.244 . S
O267 Co266 2.216 . S
O267 C274 1.247 . S
O268 Co266 2.091 . S
O268 C274 1.261 . S
C269 O278 1.247 . S
C269 O279 1.272 . S
O270 Co266 2.004 . S
O270 C275 1.259 . S
Co271 O272 2.061 . S
Co271 O277 2.052 . S
Co271 O279 2.135 . S
O272 Co271 2.061 . S
O272 C275 1.235 . S
C273 O276 1.238 . S
C273 O277 1.241 . S
C274 O267 1.247 . S
C274 O268 1.261 . S
C275 O270 1.259 . S
C275 O272 1.235 . S
O276 Co266 2.021 . S
O276 C273 1.238 . S
O277 Co271 2.052 . S
O277 C273 1.241 . S
O278 Co266 2.137 . S
O278 C269 1.247 . S
O279 Co266 2.244 . S
O279 C269 1.272 . S
O279 Co271 2.135 . S
Co280 O281 2.216 . S
Co280 O282 2.091 . S
Co280 O284 2.004 . S
Co280 O290 2.021 . S
Co280 O292 2.137 . S
Co280 O293 2.244 . S
O281 Co280 2.216 . S
O281 C288 1.247 . S
O282 Co280 2.091 . S
O282 C288 1.261 . S
C283 O292 1.247 . S
C283 O293 1.272 . S
O284 Co280 2.004 . S
O284 C289 1.259 . S
Co285 O286 2.061 . S
Co285 O291 2.052 . S
Co285 O293 2.135 . S
O286 Co285 2.061 . S
O286 C289 1.235 . S
C287 O290 1.238 . S
C287 O291 1.241 . S
C288 O281 1.247 . S
C288 O282 1.261 . S
C289 O284 1.259 . S
C289 O286 1.235 . S
O290 Co280 2.021 . S
O290 C287 1.238 . S
O291 Co285 2.052 . S
O291 C287 1.241 . S
O292 Co280 2.137 . S
O292 C283 1.247 . S
O293 Co280 2.244 . S
O293 C283 1.272 . S
O293 Co285 2.135 . S
Co294 O295 2.216 . S
Co294 O296 2.091 . S
Co294 O298 2.004 . S
Co294 O304 2.021 . S
Co294 O306 2.137 . S
Co294 O307 2.244 . S
O295 Co294 2.216 . S
O295 C302 1.247 . S
O296 Co294 2.091 . S
O296 C302 1.261 . S
C297 O306 1.247 . S
C297 O307 1.272 . S
O298 Co294 2.004 . S
O298 C303 1.259 . S
Co299 O300 2.061 . S
Co299 O305 2.052 . S
Co299 O307 2.135 . S
O300 Co299 2.061 . S
O300 C303 1.235 . S
C301 O304 1.238 . S
C301 O305 1.241 . S
C302 O295 1.247 . S
C302 O296 1.261 . S
C303 O298 1.259 . S
C303 O300 1.235 . S
O304 Co294 2.021 . S
O304 C301 1.238 . S
O305 Co299 2.052 . S
O305 C301 1.241 . S
O306 Co294 2.137 . S
O306 C297 1.247 . S
O307 Co294 2.244 . S
O307 C297 1.272 . S
O307 Co299 2.135 . S
Co308 O309 2.216 . S
Co308 O310 2.091 . S
Co308 O312 2.004 . S
Co308 O318 2.021 . S
Co308 O320 2.137 . S
Co308 O321 2.244 . S
O309 Co308 2.216 . S
O309 C316 1.247 . S
O310 Co308 2.091 . S
O310 C316 1.261 . S
C311 O320 1.247 . S
C311 O321 1.272 . S
O312 Co308 2.004 . S
O312 C317 1.259 . S
Co313 O314 2.061 . S
Co313 O319 2.052 . S
Co313 O321 2.135 . S
O314 Co313 2.061 . S
O314 C317 1.235 . S
C315 O318 1.238 . S
C315 O319 1.241 . S
C316 O309 1.247 . S
C316 O310 1.261 . S
C317 O312 1.259 . S
C317 O314 1.235 . S
O318 Co308 2.021 . S
O318 C315 1.238 . S
O319 Co313 2.052 . S
O319 C315 1.241 . S
O320 Co308 2.137 . S
O320 C311 1.247 . S
O321 Co308 2.244 . S
O321 C311 1.272 . S
O321 Co313 2.135 . S
Co322 O323 2.216 . S
Co322 O324 2.091 . S
Co322 O326 2.004 . S
Co322 O332 2.021 . S
Co322 O334 2.137 . S
Co322 O335 2.244 . S
O323 Co322 2.216 . S
O323 C330 1.247 . S
O324 Co322 2.091 . S
O324 C330 1.261 . S
C325 O334 1.247 . S
C325 O335 1.272 . S
O326 Co322 2.004 . S
O326 C331 1.259 . S
Co327 O328 2.061 . S
Co327 O333 2.052 . S
Co327 O335 2.135 . S
O328 Co327 2.061 . S
O328 C331 1.235 . S
C329 O332 1.238 . S
C329 O333 1.241 . S
C330 O323 1.247 . S
C330 O324 1.261 . S
C331 O326 1.259 . S
C331 O328 1.235 . S
O332 Co322 2.021 . S
O332 C329 1.238 . S
O333 Co327 2.052 . S
O333 C329 1.241 . S
O334 Co322 2.137 . S
O334 C325 1.247 . S
O335 Co322 2.244 . S
O335 C325 1.272 . S
O335 Co327 2.135 . S
Co336 O337 2.216 . S
Co336 O338 2.091 . S
Co336 O340 2.004 . S
Co336 O346 2.021 . S
Co336 O348 2.137 . S
Co336 O349 2.244 . S
O337 Co336 2.216 . S
O337 C344 1.247 . S
O338 Co336 2.091 . S
O338 C344 1.261 . S
C339 O348 1.247 . S
C339 O349 1.272 . S
O340 Co336 2.004 . S
O340 C345 1.259 . S
Co341 O342 2.061 . S
Co341 O347 2.052 . S
Co341 O349 2.135 . S
O342 Co341 2.061 . S
O342 C345 1.235 . S
C343 O346 1.238 . S
C343 O347 1.241 . S
C344 O337 1.247 . S
C344 O338 1.261 . S
C345 O340 1.259 . S
C345 O342 1.235 . S
O346 Co336 2.021 . S
O346 C343 1.238 . S
O347 Co341 2.052 . S
O347 C343 1.241 . S
O348 Co336 2.137 . S
O348 C339 1.247 . S
O349 Co336 2.244 . S
O349 C339 1.272 . S
O349 Co341 2.135 . S
Co350 O351 2.216 . S
Co350 O352 2.091 . S
Co350 O354 2.004 . S
Co350 O360 2.021 . S
Co350 O362 2.137 . S
Co350 O363 2.244 . S
O351 Co350 2.216 . S
O351 C358 1.247 . S
O352 Co350 2.091 . S
O352 C358 1.261 . S
C353 O362 1.247 . S
C353 O363 1.272 . S
O354 Co350 2.004 . S
O354 C359 1.259 . S
Co355 O356 2.061 . S
Co355 O361 2.052 . S
Co355 O363 2.135 . S
O356 Co355 2.061 . S
O356 C359 1.235 . S
C357 O360 1.238 . S
C357 O361 1.241 . S
C358 O351 1.247 . S
C358 O352 1.261 . S
C359 O354 1.259 . S
C359 O356 1.235 . S
O360 Co350 2.021 . S
O360 C357 1.238 . S
O361 Co355 2.052 . S
O361 C357 1.241 . S
O362 Co350 2.137 . S
O362 C353 1.247 . S
O363 Co350 2.244 . S
O363 C353 1.272 . S
O363 Co355 2.135 . S
Co364 O365 2.216 . S
Co364 O366 2.091 . S
Co364 O368 2.004 1_556 S
Co364 O374 2.021 . S
Co364 O376 2.137 . S
Co364 O377 2.244 . S
O365 Co364 2.216 . S
O365 C372 1.247 . S
O366 Co364 2.091 . S
O366 C372 1.261 . S
C367 O376 1.247 . S
C367 O377 1.272 . S
O368 Co364 2.004 1_554 S
O368 C373 1.259 . S
Co369 O370 2.061 . S
Co369 O375 2.052 1_554 S
Co369 O377 2.135 1_554 S
O370 Co369 2.061 . S
O370 C373 1.235 . S
C371 O374 1.238 . S
C371 O375 1.241 . S
C372 O365 1.247 . S
C372 O366 1.261 . S
C373 O368 1.259 . S
C373 O370 1.235 . S
O374 Co364 2.021 . S
O374 C371 1.238 . S
O375 Co369 2.052 1_556 S
O375 C371 1.241 . S
O376 Co364 2.137 . S
O376 C367 1.247 . S
O377 Co364 2.244 . S
O377 C367 1.272 . S
O377 Co369 2.135 1_556 S
Co378 O379 2.216 . S
Co378 O380 2.091 . S
Co378 O382 2.004 1_556 S
Co378 O388 2.021 . S
Co378 O390 2.137 . S
Co378 O391 2.244 . S
O379 Co378 2.216 . S
O379 C386 1.247 . S
O380 Co378 2.091 . S
O380 C386 1.261 . S
C381 O390 1.247 . S
C381 O391 1.272 . S
O382 Co378 2.004 1_554 S
O382 C387 1.259 . S
Co383 O384 2.061 . S
Co383 O389 2.052 1_554 S
Co383 O391 2.135 1_554 S
O384 Co383 2.061 . S
O384 C387 1.235 . S
C385 O388 1.238 . S
C385 O389 1.241 . S
C386 O379 1.247 . S
C386 O380 1.261 . S
C387 O382 1.259 . S
C387 O384 1.235 . S
O388 Co378 2.021 . S
O388 C385 1.238 . S
O389 Co383 2.052 1_556 S
O389 C385 1.241 . S
O390 Co378 2.137 . S
O390 C381 1.247 . S
O391 Co378 2.244 . S
O391 C381 1.272 . S
O391 Co383 2.135 1_556 S
Co392 O393 2.216 . S
Co392 O394 2.091 . S
Co392 O396 2.004 . S
Co392 O402 2.021 . S
Co392 O404 2.137 . S
Co392 O405 2.244 . S
O393 Co392 2.216 . S
O393 C400 1.247 . S
O394 Co392 2.091 . S
O394 C400 1.261 . S
C395 O404 1.247 . S
C395 O405 1.272 . S
O396 Co392 2.004 . S
O396 C401 1.259 . S
Co397 O398 2.061 . S
Co397 O403 2.052 . S
Co397 O405 2.135 . S
O398 Co397 2.061 . S
O398 C401 1.235 . S
C399 O402 1.238 . S
C399 O403 1.241 . S
C400 O393 1.247 . S
C400 O394 1.261 . S
C401 O396 1.259 . S
C401 O398 1.235 . S
O402 Co392 2.021 . S
O402 C399 1.238 . S
O403 Co397 2.052 . S
O403 C399 1.241 . S
O404 Co392 2.137 . S
O404 C395 1.247 . S
O405 Co392 2.244 . S
O405 C395 1.272 . S
O405 Co397 2.135 . S
Co406 O407 2.216 . S
Co406 O408 2.091 . S
Co406 O410 2.004 . S
Co406 O416 2.021 . S
Co406 O418 2.137 . S
Co406 O419 2.244 . S
O407 Co406 2.216 . S
O407 C414 1.247 . S
O408 Co406 2.091 . S
O408 C414 1.261 . S
C409 O418 1.247 . S
C409 O419 1.272 . S
O410 Co406 2.004 . S
O410 C415 1.259 . S
Co411 O412 2.061 . S
Co411 O417 2.052 . S
Co411 O419 2.135 . S
O412 Co411 2.061 . S
O412 C415 1.235 . S
C413 O416 1.238 . S
C413 O417 1.241 . S
C414 O407 1.247 . S
C414 O408 1.261 . S
C415 O410 1.259 . S
C415 O412 1.235 . S
O416 Co406 2.021 . S
O416 C413 1.238 . S
O417 Co411 2.052 . S
O417 C413 1.241 . S
O418 Co406 2.137 . S
O418 C409 1.247 . S
O419 Co406 2.244 . S
O419 C409 1.272 . S
O419 Co411 2.135 . S
Co420 O421 2.216 . S
Co420 O422 2.091 . S
Co420 O424 2.004 1_554 S
Co420 O430 2.021 . S
Co420 O432 2.137 . S
Co420 O433 2.244 . S
O421 Co420 2.216 . S
O421 C428 1.247 . S
O422 Co420 2.091 . S
O422 C428 1.261 . S
C423 O432 1.247 . S
C423 O433 1.272 . S
O424 Co420 2.004 1_556 S
O424 C429 1.259 . S
Co425 O426 2.061 . S
Co425 O431 2.052 1_556 S
Co425 O433 2.135 1_556 S
O426 Co425 2.061 . S
O426 C429 1.235 . S
C427 O430 1.238 . S
C427 O431 1.241 . S
C428 O421 1.247 . S
C428 O422 1.261 . S
C429 O424 1.259 . S
C429 O426 1.235 . S
O430 Co420 2.021 . S
O430 C427 1.238 . S
O431 Co425 2.052 1_554 S
O431 C427 1.241 . S
O432 Co420 2.137 . S
O432 C423 1.247 . S
O433 Co420 2.244 . S
O433 C423 1.272 . S
O433 Co425 2.135 1_554 S
Co434 O435 2.216 . S
Co434 O436 2.091 . S
Co434 O438 2.004 1_554 S
Co434 O444 2.021 . S
Co434 O446 2.137 . S
Co434 O447 2.244 . S
O435 Co434 2.216 . S
O435 C442 1.247 . S
O436 Co434 2.091 . S
O436 C442 1.261 . S
C437 O446 1.247 . S
C437 O447 1.272 . S
O438 Co434 2.004 1_556 S
O438 C443 1.259 . S
Co439 O440 2.061 . S
Co439 O445 2.052 1_556 S
Co439 O447 2.135 1_556 S
O440 Co439 2.061 . S
O440 C443 1.235 . S
C441 O444 1.238 . S
C441 O445 1.241 . S
C442 O435 1.247 . S
C442 O436 1.261 . S
C443 O438 1.259 . S
C443 O440 1.235 . S
O444 Co434 2.021 . S
O444 C441 1.238 . S
O445 Co439 2.052 1_554 S
O445 C441 1.241 . S
O446 Co434 2.137 . S
O446 C437 1.247 . S
O447 Co434 2.244 . S
O447 C437 1.272 . S
O447 Co439 2.135 1_554 S
H448 C454 0.930 . S
H449 C457 0.930 . S
H450 C458 0.930 . S
H451 C459 0.930 . S
H452 C462 0.930 . S
H453 C463 0.930 . S
C454 H448 0.930 . S
C454 C455 1.355 . S
C454 C456 1.415 . S
C455 C454 1.355 . S
C455 C457 1.419 . S
C456 C454 1.415 . S
C456 C461 1.425 . S
C456 C463 1.409 . S
C457 H449 0.930 . S
C457 C455 1.419 . S
C457 C458 1.362 . S
C458 H450 0.930 . S
C458 C457 1.362 . S
C458 C461 1.409 . S
C459 H451 0.930 . S
C459 C460 1.355 . S
C459 C461 1.415 . S
C460 C459 1.355 . S
C460 C462 1.419 . S
C461 C456 1.425 . S
C461 C458 1.409 . S
C461 C459 1.415 . S
C462 H452 0.930 . S
C462 C460 1.419 . S
C462 C463 1.362 . S
C463 H453 0.930 . S
C463 C456 1.409 . S
C463 C462 1.362 . S
H464 C470 0.930 . S
H465 C473 0.930 1_655 S
H466 C474 0.930 1_655 S
H467 C475 0.930 . S
H468 C478 0.930 . S
H469 C479 0.930 . S
C470 H464 0.930 . S
C470 C471 1.355 . S
C470 C472 1.415 . S
C471 C470 1.355 . S
C471 C473 1.419 . S
C472 C470 1.415 . S
C472 C477 1.425 . S
C472 C479 1.409 . S
C473 H465 0.930 1_455 S
C473 C471 1.419 . S
C473 C474 1.362 . S
C474 H466 0.930 1_455 S
C474 C473 1.362 . S
C474 C477 1.409 . S
C475 H467 0.930 . S
C475 C476 1.355 . S
C475 C477 1.415 . S
C476 C475 1.355 . S
C476 C478 1.419 . S
C477 C472 1.425 . S
C477 C474 1.409 . S
C477 C475 1.415 . S
C478 H468 0.930 . S
C478 C476 1.419 . S
C478 C479 1.362 . S
C479 H469 0.930 . S
C479 C472 1.409 . S
C479 C478 1.362 . S
H480 C486 0.930 . S
H481 C489 0.930 . S
H482 C490 0.930 . S
H483 C491 0.930 . S
H484 C494 0.930 1_455 S
H485 C495 0.930 1_455 S
C486 H480 0.930 . S
C486 C487 1.355 . S
C486 C488 1.415 . S
C487 C486 1.355 . S
C487 C489 1.419 . S
C488 C486 1.415 . S
C488 C493 1.425 . S
C488 C495 1.409 . S
C489 H481 0.930 . S
C489 C487 1.419 . S
C489 C490 1.362 . S
C490 H482 0.930 . S
C490 C489 1.362 . S
C490 C493 1.409 . S
C491 H483 0.930 . S
C491 C492 1.355 . S
C491 C493 1.415 . S
C492 C491 1.355 . S
C492 C494 1.419 . S
C493 C488 1.425 . S
C493 C490 1.409 . S
C493 C491 1.415 . S
C494 H484 0.930 1_655 S
C494 C492 1.419 . S
C494 C495 1.362 . S
C495 H485 0.930 1_655 S
C495 C488 1.409 . S
C495 C494 1.362 . S
H496 C502 0.930 1_455 S
H497 C505 0.930 . S
H498 C506 0.930 . S
H499 C507 0.930 . S
H500 C510 0.930 . S
H501 C511 0.930 1_455 S
C502 H496 0.930 1_655 S
C502 C503 1.355 . S
C502 C504 1.415 . S
C503 C502 1.355 . S
C503 C505 1.419 . S
C504 C502 1.415 . S
C504 C509 1.425 . S
C504 C511 1.409 . S
C505 H497 0.930 . S
C505 C503 1.419 . S
C505 C506 1.362 . S
C506 H498 0.930 . S
C506 C505 1.362 . S
C506 C509 1.409 . S
C507 H499 0.930 . S
C507 C508 1.355 . S
C507 C509 1.415 . S
C508 C507 1.355 . S
C508 C510 1.419 . S
C509 C504 1.425 . S
C509 C506 1.409 . S
C509 C507 1.415 . S
C510 H500 0.930 . S
C510 C508 1.419 . S
C510 C511 1.362 . S
C511 H501 0.930 1_655 S
C511 C504 1.409 . S
C511 C510 1.362 . S
H512 C518 0.930 . S
H513 C521 0.930 1_655 S
H514 C522 0.930 . S
H515 C523 0.930 . S
H516 C526 0.930 . S
H517 C527 0.930 . S
C518 H512 0.930 . S
C518 C519 1.355 . S
C518 C520 1.415 . S
C519 C518 1.355 . S
C519 C521 1.419 . S
C520 C518 1.415 . S
C520 C525 1.425 . S
C520 C527 1.409 . S
C521 H513 0.930 1_455 S
C521 C519 1.419 . S
C521 C522 1.362 . S
C522 H514 0.930 . S
C522 C521 1.362 . S
C522 C525 1.409 . S
C523 H515 0.930 . S
C523 C524 1.355 . S
C523 C525 1.415 . S
C524 C523 1.355 . S
C524 C526 1.419 . S
C525 C520 1.425 . S
C525 C522 1.409 . S
C525 C523 1.415 . S
C526 H516 0.930 . S
C526 C524 1.419 . S
C526 C527 1.362 . S
C527 H517 0.930 . S
C527 C520 1.409 . S
C527 C526 1.362 . S
H528 C534 0.930 . S
H529 C537 0.930 . S
H530 C538 0.930 . S
H531 C539 0.930 . S
H532 C542 0.930 . S
H533 C543 0.930 . S
C534 H528 0.930 . S
C534 C535 1.355 . S
C534 C536 1.415 . S
C535 C534 1.355 . S
C535 C537 1.419 . S
C536 C534 1.415 . S
C536 C541 1.425 . S
C536 C543 1.409 . S
C537 H529 0.930 . S
C537 C535 1.419 . S
C537 C538 1.362 . S
C538 H530 0.930 . S
C538 C537 1.362 . S
C538 C541 1.409 . S
C539 H531 0.930 . S
C539 C540 1.355 . S
C539 C541 1.415 . S
C540 C539 1.355 . S
C540 C542 1.419 . S
C541 C536 1.425 . S
C541 C538 1.409 . S
C541 C539 1.415 . S
C542 H532 0.930 . S
C542 C540 1.419 . S
C542 C543 1.362 . S
C543 H533 0.930 . S
C543 C536 1.409 . S
C543 C542 1.362 . S
H544 C550 0.930 . S
H545 C553 0.930 . S
H546 C554 0.930 . S
H547 C555 0.930 . S
H548 C558 0.930 . S
H549 C559 0.930 . S
C550 H544 0.930 . S
C550 C551 1.355 . S
C550 C552 1.415 . S
C551 C550 1.355 . S
C551 C553 1.419 . S
C552 C550 1.415 . S
C552 C557 1.425 . S
C552 C559 1.409 . S
C553 H545 0.930 . S
C553 C551 1.419 . S
C553 C554 1.362 . S
C554 H546 0.930 . S
C554 C553 1.362 . S
C554 C557 1.409 . S
C555 H547 0.930 . S
C555 C556 1.355 . S
C555 C557 1.415 . S
C556 C555 1.355 . S
C556 C558 1.419 . S
C557 C552 1.425 . S
C557 C554 1.409 . S
C557 C555 1.415 . S
C558 H548 0.930 . S
C558 C556 1.419 . S
C558 C559 1.362 . S
C559 H549 0.930 . S
C559 C552 1.409 . S
C559 C558 1.362 . S
H560 C566 0.930 . S
H561 C569 0.930 . S
H562 C570 0.930 . S
H563 C571 0.930 . S
H564 C574 0.930 . S
H565 C575 0.930 . S
C566 H560 0.930 . S
C566 C567 1.355 . S
C566 C568 1.415 . S
C567 C566 1.355 . S
C567 C569 1.419 . S
C568 C566 1.415 . S
C568 C573 1.425 . S
C568 C575 1.409 . S
C569 H561 0.930 . S
C569 C567 1.419 . S
C569 C570 1.362 . S
C570 H562 0.930 . S
C570 C569 1.362 . S
C570 C573 1.409 . S
C571 H563 0.930 . S
C571 C572 1.355 . S
C571 C573 1.415 . S
C572 C571 1.355 . S
C572 C574 1.419 . S
C573 C568 1.425 . S
C573 C570 1.409 . S
C573 C571 1.415 . S
C574 H564 0.930 . S
C574 C572 1.419 . S
C574 C575 1.362 . S
C575 H565 0.930 . S
C575 C568 1.409 . S
C575 C574 1.362 . S
H576 C582 0.930 . S
H577 C585 0.930 . S
H578 C586 0.930 . S
H579 C587 0.930 . S
H580 C590 0.930 . S
H581 C591 0.930 . S
C582 H576 0.930 . S
C582 C583 1.355 . S
C582 C584 1.415 . S
C583 C582 1.355 . S
C583 C585 1.419 . S
C584 C582 1.415 . S
C584 C589 1.425 . S
C584 C591 1.409 . S
C585 H577 0.930 . S
C585 C583 1.419 . S
C585 C586 1.362 . S
C586 H578 0.930 . S
C586 C585 1.362 . S
C586 C589 1.409 . S
C587 H579 0.930 . S
C587 C588 1.355 . S
C587 C589 1.415 . S
C588 C587 1.355 . S
C588 C590 1.419 . S
C589 C584 1.425 . S
C589 C586 1.409 . S
C589 C587 1.415 . S
C590 H580 0.930 . S
C590 C588 1.419 . S
C590 C591 1.362 . S
C591 H581 0.930 . S
C591 C584 1.409 . S
C591 C590 1.362 . S
H592 C598 0.930 . S
H593 C601 0.930 . S
H594 C602 0.930 . S
H595 C603 0.930 . S
H596 C606 0.930 . S
H597 C607 0.930 . S
C598 H592 0.930 . S
C598 C599 1.355 . S
C598 C600 1.415 . S
C599 C598 1.355 . S
C599 C601 1.419 . S
C600 C598 1.415 . S
C600 C605 1.425 . S
C600 C607 1.409 . S
C601 H593 0.930 . S
C601 C599 1.419 . S
C601 C602 1.362 . S
C602 H594 0.930 . S
C602 C601 1.362 . S
C602 C605 1.409 . S
C603 H595 0.930 . S
C603 C604 1.355 . S
C603 C605 1.415 . S
C604 C603 1.355 . S
C604 C606 1.419 . S
C605 C600 1.425 . S
C605 C602 1.409 . S
C605 C603 1.415 . S
C606 H596 0.930 . S
C606 C604 1.419 . S
C606 C607 1.362 . S
C607 H597 0.930 . S
C607 C600 1.409 . S
C607 C606 1.362 . S
H608 C614 0.930 . S
H609 C617 0.930 . S
H610 C618 0.930 . S
H611 C619 0.930 . S
H612 C622 0.930 . S
H613 C623 0.930 . S
C614 H608 0.930 . S
C614 C615 1.355 . S
C614 C616 1.415 . S
C615 C614 1.355 . S
C615 C617 1.419 . S
C616 C614 1.415 . S
C616 C621 1.425 . S
C616 C623 1.409 . S
C617 H609 0.930 . S
C617 C615 1.419 . S
C617 C618 1.362 . S
C618 H610 0.930 . S
C618 C617 1.362 . S
C618 C621 1.409 . S
C619 H611 0.930 . S
C619 C620 1.355 . S
C619 C621 1.415 . S
C620 C619 1.355 . S
C620 C622 1.419 . S
C621 C616 1.425 . S
C621 C618 1.409 . S
C621 C619 1.415 . S
C622 H612 0.930 . S
C622 C620 1.419 . S
C622 C623 1.362 . S
C623 H613 0.930 . S
C623 C616 1.409 . S
C623 C622 1.362 . S
H624 C630 0.930 . S
H625 C633 0.930 . S
H626 C634 0.930 . S
H627 C635 0.930 . S
H628 C638 0.930 . S
H629 C639 0.930 . S
C630 H624 0.930 . S
C630 C631 1.355 . S
C630 C632 1.415 . S
C631 C630 1.355 . S
C631 C633 1.419 . S
C632 C630 1.415 . S
C632 C637 1.425 . S
C632 C639 1.409 . S
C633 H625 0.930 . S
C633 C631 1.419 . S
C633 C634 1.362 . S
C634 H626 0.930 . S
C634 C633 1.362 . S
C634 C637 1.409 . S
C635 H627 0.930 . S
C635 C636 1.355 . S
C635 C637 1.415 . S
C636 C635 1.355 . S
C636 C638 1.419 . S
C637 C632 1.425 . S
C637 C634 1.409 . S
C637 C635 1.415 . S
C638 H628 0.930 . S
C638 C636 1.419 . S
C638 C639 1.362 . S
C639 H629 0.930 . S
C639 C632 1.409 . S
C639 C638 1.362 . S
H640 C646 0.930 . S
H641 C649 0.930 . S
H642 C650 0.930 . S
H643 C651 0.930 . S
H644 C654 0.930 . S
H645 C655 0.930 . S
C646 H640 0.930 . S
C646 C647 1.355 . S
C646 C648 1.415 . S
C647 C646 1.355 . S
C647 C649 1.419 . S
C648 C646 1.415 . S
C648 C653 1.425 . S
C648 C655 1.409 . S
C649 H641 0.930 . S
C649 C647 1.419 . S
C649 C650 1.362 . S
C650 H642 0.930 . S
C650 C649 1.362 . S
C650 C653 1.409 . S
C651 H643 0.930 . S
C651 C652 1.355 . S
C651 C653 1.415 . S
C652 C651 1.355 . S
C652 C654 1.419 . S
C653 C648 1.425 . S
C653 C650 1.409 . S
C653 C651 1.415 . S
C654 H644 0.930 . S
C654 C652 1.419 . S
C654 C655 1.362 . S
C655 H645 0.930 . S
C655 C648 1.409 . S
C655 C654 1.362 . S
H656 C662 0.930 . S
H657 C665 0.930 . S
H658 C666 0.930 . S
H659 C667 0.930 . S
H660 C670 0.930 . S
H661 C671 0.930 . S
C662 H656 0.930 . S
C662 C663 1.355 . S
C662 C664 1.415 . S
C663 C662 1.355 . S
C663 C665 1.419 . S
C664 C662 1.415 . S
C664 C669 1.425 . S
C664 C671 1.409 . S
C665 H657 0.930 . S
C665 C663 1.419 . S
C665 C666 1.362 . S
C666 H658 0.930 . S
C666 C665 1.362 . S
C666 C669 1.409 . S
C667 H659 0.930 . S
C667 C668 1.355 . S
C667 C669 1.415 . S
C668 C667 1.355 . S
C668 C670 1.419 . S
C669 C664 1.425 . S
C669 C666 1.409 . S
C669 C667 1.415 . S
C670 H660 0.930 . S
C670 C668 1.419 . S
C670 C671 1.362 . S
C671 H661 0.930 . S
C671 C664 1.409 . S
C671 C670 1.362 . S
H672 C678 0.930 . S
H673 C681 0.930 . S
H674 C682 0.930 . S
H675 C683 0.930 . S
H676 C686 0.930 . S
H677 C687 0.930 . S
C678 H672 0.930 . S
C678 C679 1.355 . S
C678 C680 1.415 . S
C679 C678 1.355 . S
C679 C681 1.419 . S
C680 C678 1.415 . S
C680 C685 1.425 . S
C680 C687 1.409 . S
C681 H673 0.930 . S
C681 C679 1.419 . S
C681 C682 1.362 . S
C682 H674 0.930 . S
C682 C681 1.362 . S
C682 C685 1.409 . S
C683 H675 0.930 . S
C683 C684 1.355 . S
C683 C685 1.415 . S
C684 C683 1.355 . S
C684 C686 1.419 . S
C685 C680 1.425 . S
C685 C682 1.409 . S
C685 C683 1.415 . S
C686 H676 0.930 . S
C686 C684 1.419 . S
C686 C687 1.362 . S
C687 H677 0.930 . S
C687 C680 1.409 . S
C687 C686 1.362 . S
H688 C694 0.930 . S
H689 C697 0.930 . S
H690 C698 0.930 . S
H691 C699 0.930 . S
H692 C702 0.930 . S
H693 C703 0.930 . S
C694 H688 0.930 . S
C694 C695 1.355 . S
C694 C696 1.415 . S
C695 C694 1.355 . S
C695 C697 1.419 . S
C696 C694 1.415 . S
C696 C701 1.425 . S
C696 C703 1.409 . S
C697 H689 0.930 . S
C697 C695 1.419 . S
C697 C698 1.362 . S
C698 H690 0.930 . S
C698 C697 1.362 . S
C698 C701 1.409 . S
C699 H691 0.930 . S
C699 C700 1.355 . S
C699 C701 1.415 . S
C700 C699 1.355 . S
C700 C702 1.419 . S
C701 C696 1.425 . S
C701 C698 1.409 . S
C701 C699 1.415 . S
C702 H692 0.930 . S
C702 C700 1.419 . S
C702 C703 1.362 . S
C703 H693 0.930 . S
C703 C696 1.409 . S
C703 C702 1.362 . S
H704 C710 0.930 . S
H705 C713 0.930 . S
H706 C714 0.930 . S
H707 C715 0.930 . S
H708 C718 0.930 . S
H709 C719 0.930 . S
C710 H704 0.930 . S
C710 C711 1.355 . S
C710 C712 1.415 . S
C711 C710 1.355 . S
C711 C713 1.419 . S
C712 C710 1.415 . S
C712 C717 1.425 1_565 S
C712 C719 1.409 1_565 S
C713 H705 0.930 . S
C713 C711 1.419 . S
C713 C714 1.362 . S
C714 H706 0.930 . S
C714 C713 1.362 . S
C714 C717 1.409 1_565 S
C715 H707 0.930 . S
C715 C716 1.355 . S
C715 C717 1.415 . S
C716 C715 1.355 . S
C716 C718 1.419 . S
C717 C712 1.425 1_545 S
C717 C714 1.409 1_545 S
C717 C715 1.415 . S
C718 H708 0.930 . S
C718 C716 1.419 . S
C718 C719 1.362 . S
C719 H709 0.930 . S
C719 C712 1.409 1_545 S
C719 C718 1.362 . S
H720 C726 0.930 . S
H721 C729 0.930 . S
H722 C730 0.930 . S
H723 C731 0.930 . S
H724 C734 0.930 . S
H725 C735 0.930 . S
C726 H720 0.930 . S
C726 C727 1.355 1_455 S
C726 C728 1.415 . S
C727 C726 1.355 1_655 S
C727 C729 1.419 . S
C728 C726 1.415 . S
C728 C733 1.425 1_455 S
C728 C735 1.409 . S
C729 H721 0.930 . S
C729 C727 1.419 . S
C729 C730 1.362 . S
C730 H722 0.930 . S
C730 C729 1.362 . S
C730 C733 1.409 . S
C731 H723 0.930 . S
C731 C732 1.355 1_655 S
C731 C733 1.415 . S
C732 C731 1.355 1_455 S
C732 C734 1.419 . S
C733 C728 1.425 1_655 S
C733 C730 1.409 . S
C733 C731 1.415 . S
C734 H724 0.930 . S
C734 C732 1.419 . S
C734 C735 1.362 . S
C735 H725 0.930 . S
C735 C728 1.409 . S
C735 C734 1.362 . S
H736 C742 0.930 . S
H737 C745 0.930 . S
H738 C746 0.930 . S
H739 C747 0.930 . S
H740 C750 0.930 . S
H741 C751 0.930 . S
C742 H736 0.930 . S
C742 C743 1.355 . S
C742 C744 1.415 . S
C743 C742 1.355 . S
C743 C745 1.419 1_556 S
C744 C742 1.415 . S
C744 C749 1.425 1_556 S
C744 C751 1.409 . S
C745 H737 0.930 . S
C745 C743 1.419 1_554 S
C745 C746 1.362 . S
C746 H738 0.930 . S
C746 C745 1.362 . S
C746 C749 1.409 . S
C747 H739 0.930 . S
C747 C748 1.355 . S
C747 C749 1.415 . S
C748 C747 1.355 . S
C748 C750 1.419 1_554 S
C749 C744 1.425 1_554 S
C749 C746 1.409 . S
C749 C747 1.415 . S
C750 H740 0.930 . S
C750 C748 1.419 1_556 S
C750 C751 1.362 . S
C751 H741 0.930 . S
C751 C744 1.409 . S
C751 C750 1.362 . S
H752 C758 0.925 1_554 S
H753 C761 0.930 . S
H754 C762 0.904 1_565 S
H755 C763 0.925 1_556 S
H756 C766 0.930 . S
H757 C767 0.904 1_545 S
C758 H752 0.925 1_556 S
C758 C759 1.355 1_655 S
C758 C760 1.415 1_556 S
C759 C758 1.355 1_455 S
C759 C761 1.419 . S
C760 C758 1.415 1_554 S
C760 C765 1.425 1_644 S
C760 C767 1.394 1_545 S
C761 H753 0.930 . S
C761 C759 1.419 . S
C761 C762 1.404 . S
C762 H754 0.904 1_545 S
C762 C761 1.404 . S
C762 C765 1.394 1_545 S
C763 H755 0.925 1_554 S
C763 C764 1.355 1_455 S
C763 C765 1.415 1_554 S
C764 C763 1.355 1_655 S
C764 C766 1.419 . S
C765 C760 1.425 1_466 S
C765 C762 1.394 1_565 S
C765 C763 1.415 1_556 S
C766 H756 0.930 . S
C766 C764 1.419 . S
C766 C767 1.404 . S
C767 H757 0.904 1_565 S
C767 C760 1.394 1_565 S
C767 C766 1.404 . S
H768 C774 0.930 . S
H769 C777 0.930 . S
H770 C778 0.930 . S
H771 C779 0.930 . S
H772 C782 0.930 . S
H773 C783 0.930 . S
C774 H768 0.930 . S
C774 C775 1.355 . S
C774 C776 1.417 . S
C775 C774 1.355 . S
C775 C777 1.419 . S
C776 C774 1.417 . S
C776 C781 1.425 1_545 S
C776 C783 1.407 1_545 S
C777 H769 0.930 . S
C777 C775 1.419 . S
C777 C778 1.362 . S
C778 H770 0.930 . S
C778 C777 1.362 . S
C778 C781 1.407 1_545 S
C779 H771 0.930 . S
C779 C780 1.355 . S
C779 C781 1.417 . S
C780 C779 1.355 . S
C780 C782 1.419 . S
C781 C776 1.425 1_565 S
C781 C778 1.407 1_565 S
C781 C779 1.417 . S
C782 H772 0.930 . S
C782 C780 1.419 . S
C782 C783 1.362 . S
C783 H773 0.930 . S
C783 C776 1.407 1_565 S
C783 C782 1.362 . S
H784 C790 0.930 . S
H785 C793 0.930 . S
H786 C794 0.930 . S
H787 C795 0.930 . S
H788 C798 0.930 . S
H789 C799 0.930 . S
C790 H784 0.930 . S
C790 C791 1.355 1_655 S
C790 C792 1.415 . S
C791 C790 1.355 1_455 S
C791 C793 1.419 . S
C792 C790 1.415 . S
C792 C797 1.425 1_655 S
C792 C799 1.409 . S
C793 H785 0.930 . S
C793 C791 1.419 . S
C793 C794 1.362 . S
C794 H786 0.930 . S
C794 C793 1.362 . S
C794 C797 1.409 . S
C795 H787 0.930 . S
C795 C796 1.355 1_455 S
C795 C797 1.415 . S
C796 C795 1.355 1_655 S
C796 C798 1.419 . S
C797 C792 1.425 1_455 S
C797 C794 1.409 . S
C797 C795 1.415 . S
C798 H788 0.930 . S
C798 C796 1.419 . S
C798 C799 1.362 . S
C799 H789 0.930 . S
C799 C792 1.409 . S
C799 C798 1.362 . S
H800 C806 0.930 . S
H801 C809 0.930 . S
H802 C810 0.930 . S
H803 C811 0.930 . S
H804 C814 0.930 . S
H805 C815 0.930 . S
C806 H800 0.930 . S
C806 C807 1.355 1_554 S
C806 C808 1.415 . S
C807 C806 1.355 1_556 S
C807 C809 1.419 . S
C808 C806 1.415 . S
C808 C813 1.425 1_554 S
C808 C815 1.409 . S
C809 H801 0.930 . S
C809 C807 1.419 . S
C809 C810 1.362 . S
C810 H802 0.930 . S
C810 C809 1.362 . S
C810 C813 1.409 . S
C811 H803 0.930 . S
C811 C812 1.355 1_556 S
C811 C813 1.415 . S
C812 C811 1.355 1_554 S
C812 C814 1.419 . S
C813 C808 1.425 1_556 S
C813 C810 1.409 . S
C813 C811 1.415 . S
C814 H804 0.930 . S
C814 C812 1.419 . S
C814 C815 1.362 . S
C815 H805 0.930 . S
C815 C808 1.409 . S
C815 C814 1.362 . S
H816 C822 0.930 . S
H817 C825 0.930 . S
H818 C826 0.930 . S
H819 C827 0.930 . S
H820 C830 0.930 . S
H821 C831 0.930 . S
C822 H816 0.930 . S
C822 C823 1.355 . S
C822 C824 1.415 . S
C823 C822 1.355 . S
C823 C825 1.419 . S
C824 C822 1.415 . S
C824 C829 1.425 . S
C824 C831 1.409 . S
C825 H817 0.930 . S
C825 C823 1.419 . S
C825 C826 1.362 . S
C826 H818 0.930 . S
C826 C825 1.362 . S
C826 C829 1.409 . S
C827 H819 0.930 . S
C827 C828 1.355 . S
C827 C829 1.415 . S
C828 C827 1.355 . S
C828 C830 1.419 . S
C829 C824 1.425 . S
C829 C826 1.409 . S
C829 C827 1.415 . S
C830 H820 0.930 . S
C830 C828 1.419 . S
C830 C831 1.362 . S
C831 H821 0.930 . S
C831 C824 1.409 . S
C831 C830 1.362 . S
H832 C838 0.930 . S
H833 C841 0.930 . S
H834 C842 0.930 . S
H835 C843 0.930 . S
H836 C846 0.930 . S
H837 C847 0.930 . S
C838 H832 0.930 . S
C838 C839 1.355 . S
C838 C840 1.415 . S
C839 C838 1.355 . S
C839 C841 1.419 . S
C840 C838 1.415 . S
C840 C845 1.425 . S
C840 C847 1.409 . S
C841 H833 0.930 . S
C841 C839 1.419 . S
C841 C842 1.362 . S
C842 H834 0.930 . S
C842 C841 1.362 . S
C842 C845 1.409 . S
C843 H835 0.930 . S
C843 C844 1.355 . S
C843 C845 1.415 . S
C844 C843 1.355 . S
C844 C846 1.419 . S
C845 C840 1.425 . S
C845 C842 1.409 . S
C845 C843 1.415 . S
C846 H836 0.930 . S
C846 C844 1.419 . S
C846 C847 1.362 . S
C847 H837 0.930 . S
C847 C840 1.409 . S
C847 C846 1.362 . S
H848 C854 0.930 . S
H849 C857 0.930 . S
H850 C858 0.930 . S
H851 C859 0.930 . S
H852 C862 0.930 . S
H853 C863 0.930 . S
C854 H848 0.930 . S
C854 C855 1.355 1_455 S
C854 C856 1.415 . S
C855 C854 1.355 1_655 S
C855 C857 1.419 . S
C856 C854 1.415 . S
C856 C861 1.425 1_455 S
C856 C863 1.409 . S
C857 H849 0.930 . S
C857 C855 1.419 . S
C857 C858 1.362 . S
C858 H850 0.930 . S
C858 C857 1.362 . S
C858 C861 1.409 . S
C859 H851 0.930 . S
C859 C860 1.355 1_655 S
C859 C861 1.415 . S
C860 C859 1.355 1_455 S
C860 C862 1.419 . S
C861 C856 1.425 1_655 S
C861 C858 1.409 . S
C861 C859 1.415 . S
C862 H852 0.930 . S
C862 C860 1.419 . S
C862 C863 1.362 . S
C863 H853 0.930 . S
C863 C856 1.409 . S
C863 C862 1.362 . S
H864 C870 0.930 . S
H865 C873 0.930 . S
H866 C874 0.930 . S
H867 C875 0.930 . S
H868 C878 0.930 . S
H869 C879 0.930 . S
C870 H864 0.930 . S
C870 C871 1.355 . S
C870 C872 1.415 . S
C871 C870 1.355 . S
C871 C873 1.419 . S
C872 C870 1.415 . S
C872 C877 1.425 . S
C872 C879 1.409 . S
C873 H865 0.930 . S
C873 C871 1.419 . S
C873 C874 1.362 . S
C874 H866 0.930 . S
C874 C873 1.362 . S
C874 C877 1.409 . S
C875 H867 0.930 . S
C875 C876 1.355 . S
C875 C877 1.415 . S
C876 C875 1.355 . S
C876 C878 1.419 . S
C877 C872 1.425 . S
C877 C874 1.409 . S
C877 C875 1.415 . S
C878 H868 0.930 . S
C878 C876 1.419 . S
C878 C879 1.362 . S
C879 H869 0.930 . S
C879 C872 1.409 . S
C879 C878 1.362 . S
H880 C886 0.930 . S
H881 C889 0.930 . S
H882 C890 0.930 . S
H883 C891 0.930 . S
H884 C894 0.930 . S
H885 C895 0.930 . S
C886 H880 0.930 . S
C886 C887 1.355 . S
C886 C888 1.415 . S
C887 C886 1.355 . S
C887 C889 1.419 . S
C888 C886 1.415 . S
C888 C893 1.425 . S
C888 C895 1.409 . S
C889 H881 0.930 . S
C889 C887 1.419 . S
C889 C890 1.362 . S
C890 H882 0.930 . S
C890 C889 1.362 . S
C890 C893 1.409 . S
C891 H883 0.930 . S
C891 C892 1.355 . S
C891 C893 1.415 . S
C892 C891 1.355 . S
C892 C894 1.419 . S
C893 C888 1.425 . S
C893 C890 1.409 . S
C893 C891 1.415 . S
C894 H884 0.930 . S
C894 C892 1.419 . S
C894 C895 1.362 . S
C895 H885 0.930 . S
C895 C888 1.409 . S
C895 C894 1.362 . S
H896 C902 0.930 . S
H897 C905 0.930 . S
H898 C906 0.930 . S
H899 C907 0.930 . S
H900 C910 0.930 . S
H901 C911 0.930 . S
C902 H896 0.930 . S
C902 C903 1.355 . S
C902 C904 1.415 . S
C903 C902 1.355 . S
C903 C905 1.419 . S
C904 C902 1.415 . S
C904 C909 1.425 . S
C904 C911 1.409 . S
C905 H897 0.930 . S
C905 C903 1.419 . S
C905 C906 1.362 . S
C906 H898 0.930 . S
C906 C905 1.362 . S
C906 C909 1.409 . S
C907 H899 0.930 . S
C907 C908 1.355 . S
C907 C909 1.415 . S
C908 C907 1.355 . S
C908 C910 1.419 . S
C909 C904 1.425 . S
C909 C906 1.409 . S
C909 C907 1.415 . S
C910 H900 0.930 . S
C910 C908 1.419 . S
C910 C911 1.362 . S
C911 H901 0.930 . S
C911 C904 1.409 . S
C911 C910 1.362 . S
H912 C918 0.930 . S
H913 C921 0.930 . S
H914 C922 0.930 1_565 S
H915 C923 0.930 . S
H916 C926 0.930 . S
H917 C927 0.930 1_545 S
C918 H912 0.930 . S
C918 C919 1.355 . S
C918 C920 1.415 . S
C919 C918 1.355 . S
C919 C921 1.419 . S
C920 C918 1.415 . S
C920 C925 1.425 1_545 S
C920 C927 1.409 1_545 S
C921 H913 0.930 . S
C921 C919 1.419 . S
C921 C922 1.362 . S
C922 H914 0.930 1_545 S
C922 C921 1.362 . S
C922 C925 1.409 1_545 S
C923 H915 0.930 . S
C923 C924 1.355 . S
C923 C925 1.415 . S
C924 C923 1.355 . S
C924 C926 1.419 . S
C925 C920 1.425 1_565 S
C925 C922 1.409 1_565 S
C925 C923 1.415 . S
C926 H916 0.930 . S
C926 C924 1.419 . S
C926 C927 1.362 . S
C927 H917 0.930 1_565 S
C927 C920 1.409 1_565 S
C927 C926 1.362 . S
H928 C934 0.930 . S
H929 C937 0.930 . S
H930 C938 0.930 . S
H931 C939 0.930 . S
H932 C942 0.930 . S
H933 C943 0.930 . S
C934 H928 0.930 . S
C934 C935 1.355 . S
C934 C936 1.415 . S
C935 C934 1.355 . S
C935 C937 1.419 . S
C936 C934 1.415 . S
C936 C941 1.425 . S
C936 C943 1.409 . S
C937 H929 0.930 . S
C937 C935 1.419 . S
C937 C938 1.362 . S
C938 H930 0.930 . S
C938 C937 1.362 . S
C938 C941 1.409 . S
C939 H931 0.930 . S
C939 C940 1.355 . S
C939 C941 1.415 . S
C940 C939 1.355 . S
C940 C942 1.419 . S
C941 C936 1.425 . S
C941 C938 1.409 . S
C941 C939 1.415 . S
C942 H932 0.930 . S
C942 C940 1.419 . S
C942 C943 1.362 . S
C943 H933 0.930 . S
C943 C936 1.409 . S
C943 C942 1.362 . S
H944 C950 0.930 . S
H945 C953 0.930 . S
H946 C954 0.930 . S
H947 C955 0.930 . S
H948 C958 0.930 . S
H949 C959 0.930 . S
C950 H944 0.930 . S
C950 C951 1.355 . S
C950 C952 1.415 . S
C951 C950 1.355 . S
C951 C953 1.419 1_554 S
C952 C950 1.415 . S
C952 C957 1.425 1_554 S
C952 C959 1.409 . S
C953 H945 0.930 . S
C953 C951 1.419 1_556 S
C953 C954 1.362 . S
C954 H946 0.930 . S
C954 C953 1.362 . S
C954 C957 1.409 . S
C955 H947 0.930 . S
C955 C956 1.355 . S
C955 C957 1.415 . S
C956 C955 1.355 . S
C956 C958 1.419 1_556 S
C957 C952 1.425 1_556 S
C957 C954 1.409 . S
C957 C955 1.415 . S
C958 H948 0.930 . S
C958 C956 1.419 1_554 S
C958 C959 1.362 . S
C959 H949 0.930 . S
C959 C952 1.409 . S
C959 C958 1.362 . S
H960 C966 0.930 . S
H961 C969 0.930 . S
H962 C970 0.930 . S
H963 C971 0.930 . S
H964 C974 0.930 . S
H965 C975 0.930 . S
C966 H960 0.930 . S
C966 C967 1.355 . S
C966 C968 1.415 . S
C967 C966 1.355 . S
C967 C969 1.419 . S
C968 C966 1.415 . S
C968 C973 1.425 . S
C968 C975 1.409 . S
C969 H961 0.930 . S
C969 C967 1.419 . S
C969 C970 1.362 . S
C970 H962 0.930 . S
C970 C969 1.362 . S
C970 C973 1.409 . S
C971 H963 0.930 . S
C971 C972 1.355 . S
C971 C973 1.415 . S
C972 C971 1.355 . S
C972 C974 1.419 . S
C973 C968 1.425 . S
C973 C970 1.409 . S
C973 C971 1.415 . S
C974 H964 0.930 . S
C974 C972 1.419 . S
C974 C975 1.362 . S
C975 H965 0.930 . S
C975 C968 1.409 . S
C975 C974 1.362 . S
H976 C982 0.930 1_554 S
H977 C985 0.930 . S
H978 C986 0.930 . S
H979 C987 0.930 . S
H980 C990 0.930 . S
H981 C991 0.930 1_655 S
C982 H976 0.930 1_556 S
C982 C983 1.355 . S
C982 C984 1.415 . S
C983 C982 1.355 . S
C983 C985 1.419 . S
C984 C982 1.415 . S
C984 C989 1.425 . S
C984 C991 1.409 1_556 S
C985 H977 0.930 . S
C985 C983 1.419 . S
C985 C986 1.362 . S
C986 H978 0.930 . S
C986 C985 1.362 . S
C986 C989 1.409 . S
C987 H979 0.930 . S
C987 C988 1.355 . S
C987 C989 1.415 . S
C988 C987 1.355 . S
C988 C990 1.419 1_556 S
C989 C984 1.425 . S
C989 C986 1.409 . S
C989 C987 1.415 . S
C990 H980 0.930 . S
C990 C988 1.419 1_554 S
C990 C991 1.362 . S
C991 H981 0.930 1_455 S
C991 C984 1.409 1_554 S
C991 C990 1.362 . S
H992 C998 0.930 . S
H993 C1001 0.930 . S
H994 C1002 0.930 1_455 S
H995 C1003 0.930 . S
H996 C1006 0.930 . S
H997 C1007 0.930 . S
C998 H992 0.930 . S
C998 C999 1.355 . S
C998 C1000 1.415 . S
C999 C998 1.355 . S
C999 C1001 1.419 . S
C1000 C998 1.415 . S
C1000 C1005 1.425 . S
C1000 C1007 1.409 . S
C1001 H993 0.930 . S
C1001 C999 1.419 . S
C1001 C1002 1.362 . S
C1002 H994 0.930 1_655 S
C1002 C1001 1.362 . S
C1002 C1005 1.409 . S
C1003 H995 0.930 . S
C1003 C1004 1.355 . S
C1003 C1005 1.415 . S
C1004 C1003 1.355 . S
C1004 C1006 1.419 . S
C1005 C1000 1.425 . S
C1005 C1002 1.409 . S
C1005 C1003 1.415 . S
C1006 H996 0.930 . S
C1006 C1004 1.419 . S
C1006 C1007 1.362 . S
C1007 H997 0.930 . S
C1007 C1000 1.409 . S
C1007 C1006 1.362 . S
H1008 C1014 0.930 . S
H1009 C1017 0.930 . S
H1010 C1018 0.930 1_455 S
H1011 C1019 0.930 1_556 S
H1012 C1022 0.930 . S
H1013 C1023 0.930 . S
C1014 H1008 0.930 . S
C1014 C1015 1.355 . S
C1014 C1016 1.415 . S
C1015 C1014 1.355 . S
C1015 C1017 1.419 1_554 S
C1016 C1014 1.415 . S
C1016 C1021 1.425 . S
C1016 C1023 1.409 . S
C1017 H1009 0.930 . S
C1017 C1015 1.419 1_556 S
C1017 C1018 1.362 . S
C1018 H1010 0.930 1_655 S
C1018 C1017 1.362 . S
C1018 C1021 1.409 1_556 S
C1019 H1011 0.930 1_554 S
C1019 C1020 1.355 . S
C1019 C1021 1.415 . S
C1020 C1019 1.355 . S
C1020 C1022 1.419 . S
C1021 C1016 1.425 . S
C1021 C1018 1.409 1_554 S
C1021 C1019 1.415 . S
C1022 H1012 0.930 . S
C1022 C1020 1.419 . S
C1022 C1023 1.362 . S
C1023 H1013 0.930 . S
C1023 C1016 1.409 . S
C1023 C1022 1.362 . S
H1024 C1030 0.930 . S
H1025 C1033 0.930 . S
H1026 C1034 0.930 1_655 S
H1027 C1035 0.930 . S
H1028 C1038 0.930 . S
H1029 C1039 0.930 . S
C1030 H1024 0.930 . S
C1030 C1031 1.355 . S
C1030 C1032 1.415 . S
C1031 C1030 1.355 . S
C1031 C1033 1.419 . S
C1032 C1030 1.415 . S
C1032 C1037 1.425 . S
C1032 C1039 1.409 . S
C1033 H1025 0.930 . S
C1033 C1031 1.419 . S
C1033 C1034 1.362 . S
C1034 H1026 0.930 1_455 S
C1034 C1033 1.362 . S
C1034 C1037 1.409 . S
C1035 H1027 0.930 . S
C1035 C1036 1.355 . S
C1035 C1037 1.415 . S
C1036 C1035 1.355 . S
C1036 C1038 1.419 . S
C1037 C1032 1.425 . S
C1037 C1034 1.409 . S
C1037 C1035 1.415 . S
C1038 H1028 0.930 . S
C1038 C1036 1.419 . S
C1038 C1039 1.362 . S
C1039 H1029 0.930 . S
C1039 C1032 1.409 . S
C1039 C1038 1.362 . S
H1040 C1046 0.930 . S
H1041 C1049 0.930 . S
H1042 C1050 0.930 1_655 S
H1043 C1051 0.930 . S
H1044 C1054 0.930 . S
H1045 C1055 0.930 . S
C1046 H1040 0.930 . S
C1046 C1047 1.355 . S
C1046 C1048 1.415 . S
C1047 C1046 1.355 . S
C1047 C1049 1.419 . S
C1048 C1046 1.415 . S
C1048 C1053 1.425 . S
C1048 C1055 1.409 . S
C1049 H1041 0.930 . S
C1049 C1047 1.419 . S
C1049 C1050 1.362 . S
C1050 H1042 0.930 1_455 S
C1050 C1049 1.362 . S
C1050 C1053 1.409 . S
C1051 H1043 0.930 . S
C1051 C1052 1.355 . S
C1051 C1053 1.415 . S
C1052 C1051 1.355 . S
C1052 C1054 1.419 . S
C1053 C1048 1.425 . S
C1053 C1050 1.409 . S
C1053 C1051 1.415 . S
C1054 H1044 0.930 . S
C1054 C1052 1.419 . S
C1054 C1055 1.362 . S
C1055 H1045 0.930 . S
C1055 C1048 1.409 . S
C1055 C1054 1.362 . S
H1056 C1062 0.930 . S
H1057 C1065 0.930 . S
H1058 C1066 0.930 . S
H1059 C1067 0.930 . S
H1060 C1070 0.930 . S
H1061 C1071 0.930 . S
C1062 H1056 0.930 . S
C1062 C1063 1.355 . S
C1062 C1064 1.415 . S
C1063 C1062 1.355 . S
C1063 C1065 1.419 . S
C1064 C1062 1.415 . S
C1064 C1069 1.425 . S
C1064 C1071 1.409 . S
C1065 H1057 0.930 . S
C1065 C1063 1.419 . S
C1065 C1066 1.362 . S
C1066 H1058 0.930 . S
C1066 C1065 1.362 . S
C1066 C1069 1.409 . S
C1067 H1059 0.930 . S
C1067 C1068 1.355 . S
C1067 C1069 1.415 . S
C1068 C1067 1.355 . S
C1068 C1070 1.419 . S
C1069 C1064 1.425 . S
C1069 C1066 1.409 . S
C1069 C1067 1.415 . S
C1070 H1060 0.930 . S
C1070 C1068 1.419 . S
C1070 C1071 1.362 . S
C1071 H1061 0.930 . S
C1071 C1064 1.409 . S
C1071 C1070 1.362 . S
H1072 C1078 0.930 . S
H1073 C1081 0.930 . S
H1074 C1082 0.930 1_455 S
H1075 C1083 0.930 . S
H1076 C1086 0.930 . S
H1077 C1087 0.930 . S
C1078 H1072 0.930 . S
C1078 C1079 1.355 . S
C1078 C1080 1.415 . S
C1079 C1078 1.355 . S
C1079 C1081 1.419 . S
C1080 C1078 1.415 . S
C1080 C1085 1.425 . S
C1080 C1087 1.409 . S
C1081 H1073 0.930 . S
C1081 C1079 1.419 . S
C1081 C1082 1.362 . S
C1082 H1074 0.930 1_655 S
C1082 C1081 1.362 . S
C1082 C1085 1.409 . S
C1083 H1075 0.930 . S
C1083 C1084 1.355 . S
C1083 C1085 1.415 . S
C1084 C1083 1.355 . S
C1084 C1086 1.419 . S
C1085 C1080 1.425 . S
C1085 C1082 1.409 . S
C1085 C1083 1.415 . S
C1086 H1076 0.930 . S
C1086 C1084 1.419 . S
C1086 C1087 1.362 . S
C1087 H1077 0.930 . S
C1087 C1080 1.409 . S
C1087 C1086 1.362 . S
H1088 C1094 0.930 . S
H1089 C1097 0.930 . S
H1090 C1098 0.930 . S
H1091 C1099 0.930 . S
H1092 C1102 0.930 . S
H1093 C1103 0.930 . S
C1094 H1088 0.930 . S
C1094 C1095 1.355 . S
C1094 C1096 1.415 . S
C1095 C1094 1.355 . S
C1095 C1097 1.419 . S
C1096 C1094 1.415 . S
C1096 C1101 1.425 . S
C1096 C1103 1.409 . S
C1097 H1089 0.930 . S
C1097 C1095 1.419 . S
C1097 C1098 1.362 . S
C1098 H1090 0.930 . S
C1098 C1097 1.362 . S
C1098 C1101 1.409 . S
C1099 H1091 0.930 . S
C1099 C1100 1.355 . S
C1099 C1101 1.415 . S
C1100 C1099 1.355 . S
C1100 C1102 1.419 . S
C1101 C1096 1.425 . S
C1101 C1098 1.409 . S
C1101 C1099 1.415 . S
C1102 H1092 0.930 . S
C1102 C1100 1.419 . S
C1102 C1103 1.362 . S
C1103 H1093 0.930 . S
C1103 C1096 1.409 . S
C1103 C1102 1.362 . S
H1104 C1110 0.930 . S
H1105 C1113 0.930 . S
H1106 C1114 0.930 . S
H1107 C1115 0.930 . S
H1108 C1118 0.930 . S
H1109 C1119 0.930 . S
C1110 H1104 0.930 . S
C1110 C1111 1.355 . S
C1110 C1112 1.415 . S
C1111 C1110 1.355 . S
C1111 C1113 1.419 . S
C1112 C1110 1.415 . S
C1112 C1117 1.425 . S
C1112 C1119 1.409 . S
C1113 H1105 0.930 . S
C1113 C1111 1.419 . S
C1113 C1114 1.362 . S
C1114 H1106 0.930 . S
C1114 C1113 1.362 . S
C1114 C1117 1.409 . S
C1115 H1107 0.930 . S
C1115 C1116 1.355 . S
C1115 C1117 1.415 . S
C1116 C1115 1.355 . S
C1116 C1118 1.419 . S
C1117 C1112 1.425 . S
C1117 C1114 1.409 . S
C1117 C1115 1.415 . S
C1118 H1108 0.930 . S
C1118 C1116 1.419 . S
C1118 C1119 1.362 . S
C1119 H1109 0.930 . S
C1119 C1112 1.409 . S
C1119 C1118 1.362 . S
H1120 C1126 0.930 . S
H1121 C1129 0.930 . S
H1122 C1130 0.930 . S
H1123 C1131 0.930 . S
H1124 C1134 0.930 . S
H1125 C1135 0.930 . S
C1126 H1120 0.930 . S
C1126 C1127 1.355 . S
C1126 C1128 1.415 . S
C1127 C1126 1.355 . S
C1127 C1129 1.419 . S
C1128 C1126 1.415 . S
C1128 C1133 1.425 . S
C1128 C1135 1.409 . S
C1129 H1121 0.930 . S
C1129 C1127 1.419 . S
C1129 C1130 1.362 . S
C1130 H1122 0.930 . S
C1130 C1129 1.362 . S
C1130 C1133 1.409 . S
C1131 H1123 0.930 . S
C1131 C1132 1.355 . S
C1131 C1133 1.415 . S
C1132 C1131 1.355 . S
C1132 C1134 1.419 . S
C1133 C1128 1.425 . S
C1133 C1130 1.409 . S
C1133 C1131 1.415 . S
C1134 H1124 0.930 . S
C1134 C1132 1.419 . S
C1134 C1135 1.362 . S
C1135 H1125 0.930 . S
C1135 C1128 1.409 . S
C1135 C1134 1.362 . S
H1136 C1142 0.930 . S
H1137 C1145 0.930 . S
H1138 C1146 0.930 . S
H1139 C1147 0.930 . S
H1140 C1150 0.930 . S
H1141 C1151 0.930 . S
C1142 H1136 0.930 . S
C1142 C1143 1.355 . S
C1142 C1144 1.415 . S
C1143 C1142 1.355 . S
C1143 C1145 1.419 . S
C1144 C1142 1.415 . S
C1144 C1149 1.425 . S
C1144 C1151 1.409 . S
C1145 H1137 0.930 . S
C1145 C1143 1.419 . S
C1145 C1146 1.362 . S
C1146 H1138 0.930 . S
C1146 C1145 1.362 . S
C1146 C1149 1.409 . S
C1147 H1139 0.930 . S
C1147 C1148 1.355 . S
C1147 C1149 1.415 . S
C1148 C1147 1.355 . S
C1148 C1150 1.419 . S
C1149 C1144 1.425 . S
C1149 C1146 1.409 . S
C1149 C1147 1.415 . S
C1150 H1140 0.930 . S
C1150 C1148 1.419 . S
C1150 C1151 1.362 . S
C1151 H1141 0.930 . S
C1151 C1144 1.409 . S
C1151 C1150 1.362 . S
H1152 C1158 0.930 . S
H1153 C1161 0.930 . S
H1154 C1162 0.930 . S
H1155 C1163 0.930 . S
H1156 C1166 0.930 . S
H1157 C1167 0.930 . S
C1158 H1152 0.930 . S
C1158 C1159 1.355 . S
C1158 C1160 1.415 . S
C1159 C1158 1.355 . S
C1159 C1161 1.419 . S
C1160 C1158 1.415 . S
C1160 C1165 1.425 . S
C1160 C1167 1.409 . S
C1161 H1153 0.930 . S
C1161 C1159 1.419 . S
C1161 C1162 1.362 . S
C1162 H1154 0.930 . S
C1162 C1161 1.362 . S
C1162 C1165 1.409 . S
C1163 H1155 0.930 . S
C1163 C1164 1.355 . S
C1163 C1165 1.415 . S
C1164 C1163 1.355 . S
C1164 C1166 1.419 . S
C1165 C1160 1.425 . S
C1165 C1162 1.409 . S
C1165 C1163 1.415 . S
C1166 H1156 0.930 . S
C1166 C1164 1.419 . S
C1166 C1167 1.362 . S
C1167 H1157 0.930 . S
C1167 C1160 1.409 . S
C1167 C1166 1.362 . S
H1168 C1174 0.930 . S
H1169 C1177 0.930 . S
H1170 C1178 0.930 . S
H1171 C1179 0.930 . S
H1172 C1182 0.938 . S
H1173 C1183 0.930 1_554 S
C1174 H1168 0.930 . S
C1174 C1175 1.355 . S
C1174 C1176 1.415 . S
C1175 C1174 1.355 . S
C1175 C1177 1.419 . S
C1176 C1174 1.415 . S
C1176 C1181 1.425 . S
C1176 C1183 1.409 . S
C1177 H1169 0.930 . S
C1177 C1175 1.419 . S
C1177 C1178 1.362 . S
C1178 H1170 0.930 . S
C1178 C1177 1.362 . S
C1178 C1181 1.409 . S
C1179 H1171 0.930 . S
C1179 C1180 1.355 . S
C1179 C1181 1.415 . S
C1180 C1179 1.355 . S
C1180 C1182 1.419 . S
C1181 C1176 1.425 . S
C1181 C1178 1.409 . S
C1181 C1179 1.415 . S
C1182 H1172 0.938 . S
C1182 C1180 1.419 . S
C1182 C1183 1.362 . S
C1183 H1173 0.930 1_556 S
C1183 C1176 1.409 . S
C1183 C1182 1.362 . S
H1184 C1190 0.930 . S
H1185 C1193 0.930 . S
H1186 C1194 0.930 . S
H1187 C1195 0.930 . S
H1188 C1198 0.930 . S
H1189 C1199 0.930 . S
C1190 H1184 0.930 . S
C1190 C1191 1.355 . S
C1190 C1192 1.415 . S
C1191 C1190 1.355 . S
C1191 C1193 1.419 . S
C1192 C1190 1.415 . S
C1192 C1197 1.425 . S
C1192 C1199 1.409 . S
C1193 H1185 0.930 . S
C1193 C1191 1.419 . S
C1193 C1194 1.362 . S
C1194 H1186 0.930 . S
C1194 C1193 1.362 . S
C1194 C1197 1.409 . S
C1195 H1187 0.930 . S
C1195 C1196 1.355 . S
C1195 C1197 1.415 . S
C1196 C1195 1.355 . S
C1196 C1198 1.419 . S
C1197 C1192 1.425 . S
C1197 C1194 1.409 . S
C1197 C1195 1.415 . S
C1198 H1188 0.930 . S
C1198 C1196 1.419 . S
C1198 C1199 1.362 . S
C1199 H1189 0.930 . S
C1199 C1192 1.409 . S
C1199 C1198 1.362 . S
H1200 C1206 0.930 . S
H1201 C1209 0.930 . S
H1202 C1210 0.930 . S
H1203 C1211 0.930 . S
H1204 C1214 0.930 . S
H1205 C1215 0.930 . S
C1206 H1200 0.930 . S
C1206 C1207 1.355 . S
C1206 C1208 1.415 . S
C1207 C1206 1.355 . S
C1207 C1209 1.419 1_554 S
C1208 C1206 1.415 . S
C1208 C1213 1.425 . S
C1208 C1215 1.409 . S
C1209 H1201 0.930 . S
C1209 C1207 1.419 1_556 S
C1209 C1210 1.362 . S
C1210 H1202 0.930 . S
C1210 C1209 1.362 . S
C1210 C1213 1.409 1_556 S
C1211 H1203 0.930 . S
C1211 C1212 1.355 1_556 S
C1211 C1213 1.415 1_556 S
C1212 C1211 1.355 1_554 S
C1212 C1214 1.419 . S
C1213 C1208 1.425 . S
C1213 C1210 1.409 1_554 S
C1213 C1211 1.415 1_554 S
C1214 H1204 0.930 . S
C1214 C1212 1.419 . S
C1214 C1215 1.362 . S
C1215 H1205 0.930 . S
C1215 C1208 1.409 . S
C1215 C1214 1.362 . S
H1216 C1222 0.930 1_455 S
H1217 C1225 0.930 . S
H1218 C1226 0.930 . S
H1219 C1227 0.930 . S
H1220 C1230 0.930 . S
H1221 C1231 0.930 1_455 S
C1222 H1216 0.930 1_655 S
C1222 C1223 1.355 . S
C1222 C1224 1.415 . S
C1223 C1222 1.355 . S
C1223 C1225 1.419 . S
C1224 C1222 1.415 . S
C1224 C1229 1.425 . S
C1224 C1231 1.409 . S
C1225 H1217 0.930 . S
C1225 C1223 1.419 . S
C1225 C1226 1.362 . S
C1226 H1218 0.930 . S
C1226 C1225 1.362 . S
C1226 C1229 1.409 . S
C1227 H1219 0.930 . S
C1227 C1228 1.355 . S
C1227 C1229 1.415 . S
C1228 C1227 1.355 . S
C1228 C1230 1.419 . S
C1229 C1224 1.425 . S
C1229 C1226 1.409 . S
C1229 C1227 1.415 . S
C1230 H1220 0.930 . S
C1230 C1228 1.419 . S
C1230 C1231 1.362 . S
C1231 H1221 0.930 1_655 S
C1231 C1224 1.409 . S
C1231 C1230 1.362 . S
H1232 C1238 0.930 . S
H1233 C1241 0.930 . S
H1234 C1242 0.930 . S
H1235 C1243 0.930 . S
H1236 C1246 0.930 . S
H1237 C1247 0.930 . S
C1238 H1232 0.930 . S
C1238 C1239 1.355 . S
C1238 C1240 1.415 . S
C1239 C1238 1.355 . S
C1239 C1241 1.419 . S
C1240 C1238 1.415 . S
C1240 C1245 1.425 . S
C1240 C1247 1.409 . S
C1241 H1233 0.930 . S
C1241 C1239 1.419 . S
C1241 C1242 1.362 . S
C1242 H1234 0.930 . S
C1242 C1241 1.362 . S
C1242 C1245 1.409 . S
C1243 H1235 0.930 . S
C1243 C1244 1.355 . S
C1243 C1245 1.415 . S
C1244 C1243 1.355 . S
C1244 C1246 1.419 . S
C1245 C1240 1.425 . S
C1245 C1242 1.409 . S
C1245 C1243 1.415 . S
C1246 H1236 0.930 . S
C1246 C1244 1.419 . S
C1246 C1247 1.362 . S
C1247 H1237 0.930 . S
C1247 C1240 1.409 . S
C1247 C1246 1.362 . S
H1248 C1254 0.930 . S
H1249 C1257 0.930 . S
H1250 C1258 0.930 . S
H1251 C1259 0.930 . S
H1252 C1262 0.930 . S
H1253 C1263 0.930 . S
C1254 H1248 0.930 . S
C1254 C1255 1.355 . S
C1254 C1256 1.415 . S
C1255 C1254 1.355 . S
C1255 C1257 1.419 . S
C1256 C1254 1.415 . S
C1256 C1261 1.425 . S
C1256 C1263 1.409 . S
C1257 H1249 0.930 . S
C1257 C1255 1.419 . S
C1257 C1258 1.362 . S
C1258 H1250 0.930 . S
C1258 C1257 1.362 . S
C1258 C1261 1.409 . S
C1259 H1251 0.930 . S
C1259 C1260 1.355 . S
C1259 C1261 1.415 . S
C1260 C1259 1.355 . S
C1260 C1262 1.419 . S
C1261 C1256 1.425 . S
C1261 C1258 1.409 . S
C1261 C1259 1.415 . S
C1262 H1252 0.930 . S
C1262 C1260 1.419 . S
C1262 C1263 1.362 . S
C1263 H1253 0.930 . S
C1263 C1256 1.409 . S
C1263 C1262 1.362 . S
H1264 C1270 0.930 . S
H1265 C1273 0.930 . S
H1266 C1274 0.930 . S
H1267 C1275 0.930 . S
H1268 C1278 0.930 . S
H1269 C1279 0.930 . S
C1270 H1264 0.930 . S
C1270 C1271 1.355 . S
C1270 C1272 1.415 . S
C1271 C1270 1.355 . S
C1271 C1273 1.419 . S
C1272 C1270 1.415 . S
C1272 C1277 1.425 . S
C1272 C1279 1.409 . S
C1273 H1265 0.930 . S
C1273 C1271 1.419 . S
C1273 C1274 1.362 . S
C1274 H1266 0.930 . S
C1274 C1273 1.362 . S
C1274 C1277 1.409 . S
C1275 H1267 0.930 . S
C1275 C1276 1.355 . S
C1275 C1277 1.415 . S
C1276 C1275 1.355 . S
C1276 C1278 1.419 . S
C1277 C1272 1.425 . S
C1277 C1274 1.409 . S
C1277 C1275 1.415 . S
C1278 H1268 0.930 . S
C1278 C1276 1.419 . S
C1278 C1279 1.362 . S
C1279 H1269 0.930 . S
C1279 C1272 1.409 . S
C1279 C1278 1.362 . S
H1280 C1286 0.930 . S
H1281 C1289 0.930 . S
H1282 C1290 0.932 1_655 S
H1283 C1291 0.930 1_655 S
H1284 C1294 0.930 . S
H1285 C1295 0.930 . S
C1286 H1280 0.930 . S
C1286 C1287 1.355 . S
C1286 C1288 1.415 . S
C1287 C1286 1.355 . S
C1287 C1289 1.419 . S
C1288 C1286 1.415 . S
C1288 C1293 1.425 . S
C1288 C1295 1.409 . S
C1289 H1281 0.930 . S
C1289 C1287 1.419 . S
C1289 C1290 1.362 . S
C1290 H1282 0.932 1_455 S
C1290 C1289 1.362 . S
C1290 C1293 1.409 . S
C1291 H1283 0.930 1_455 S
C1291 C1292 1.355 . S
C1291 C1293 1.415 . S
C1292 C1291 1.355 . S
C1292 C1294 1.419 . S
C1293 C1288 1.425 . S
C1293 C1290 1.409 . S
C1293 C1291 1.415 . S
C1294 H1284 0.930 . S
C1294 C1292 1.419 . S
C1294 C1295 1.362 . S
C1295 H1285 0.930 . S
C1295 C1288 1.409 . S
C1295 C1294 1.362 . S
H1296 C1302 0.930 . S
H1297 C1305 0.930 . S
H1298 C1306 0.930 . S
H1299 C1307 0.930 . S
H1300 C1310 0.930 . S
H1301 C1311 0.930 . S
C1302 H1296 0.930 . S
C1302 C1303 1.355 . S
C1302 C1304 1.415 . S
C1303 C1302 1.355 . S
C1303 C1305 1.419 . S
C1304 C1302 1.415 . S
C1304 C1309 1.425 . S
C1304 C1311 1.409 . S
C1305 H1297 0.930 . S
C1305 C1303 1.419 . S
C1305 C1306 1.362 . S
C1306 H1298 0.930 . S
C1306 C1305 1.362 . S
C1306 C1309 1.409 . S
C1307 H1299 0.930 . S
C1307 C1308 1.355 . S
C1307 C1309 1.415 . S
C1308 C1307 1.355 . S
C1308 C1310 1.419 . S
C1309 C1304 1.425 . S
C1309 C1306 1.409 . S
C1309 C1307 1.415 . S
C1310 H1300 0.930 . S
C1310 C1308 1.419 . S
C1310 C1311 1.362 . S
C1311 H1301 0.930 . S
C1311 C1304 1.409 . S
C1311 C1310 1.362 . S
H1312 C1318 0.930 . S
H1313 C1321 0.930 . S
H1314 C1322 0.930 . S
H1315 C1323 0.930 . S
H1316 C1326 0.930 . S
H1317 C1327 0.930 . S
C1318 H1312 0.930 . S
C1318 C1319 1.355 . S
C1318 C1320 1.415 . S
C1319 C1318 1.355 . S
C1319 C1321 1.419 . S
C1320 C1318 1.415 . S
C1320 C1325 1.425 . S
C1320 C1327 1.409 . S
C1321 H1313 0.930 . S
C1321 C1319 1.419 . S
C1321 C1322 1.362 . S
C1322 H1314 0.930 . S
C1322 C1321 1.362 . S
C1322 C1325 1.409 . S
C1323 H1315 0.930 . S
C1323 C1324 1.355 . S
C1323 C1325 1.415 . S
C1324 C1323 1.355 . S
C1324 C1326 1.419 . S
C1325 C1320 1.425 . S
C1325 C1322 1.409 . S
C1325 C1323 1.415 . S
C1326 H1316 0.930 . S
C1326 C1324 1.419 . S
C1326 C1327 1.362 . S
C1327 H1317 0.930 . S
C1327 C1320 1.409 . S
C1327 C1326 1.362 . S
H1328 C1334 0.930 . S
H1329 C1337 0.930 . S
H1330 C1338 0.930 . S
H1331 C1339 0.930 . S
H1332 C1342 0.930 . S
H1333 C1343 0.930 . S
C1334 H1328 0.930 . S
C1334 C1335 1.355 . S
C1334 C1336 1.415 . S
C1335 C1334 1.355 . S
C1335 C1337 1.419 . S
C1336 C1334 1.415 . S
C1336 C1341 1.425 . S
C1336 C1343 1.409 . S
C1337 H1329 0.930 . S
C1337 C1335 1.419 . S
C1337 C1338 1.362 . S
C1338 H1330 0.930 . S
C1338 C1337 1.362 . S
C1338 C1341 1.409 . S
C1339 H1331 0.930 . S
C1339 C1340 1.355 . S
C1339 C1341 1.415 . S
C1340 C1339 1.355 . S
C1340 C1342 1.419 . S
C1341 C1336 1.425 . S
C1341 C1338 1.409 . S
C1341 C1339 1.415 . S
C1342 H1332 0.930 . S
C1342 C1340 1.419 . S
C1342 C1343 1.362 . S
C1343 H1333 0.930 . S
C1343 C1336 1.409 . S
C1343 C1342 1.362 . S
H1344 C1350 0.930 1_455 S
H1345 C1353 0.930 . S
H1346 C1354 0.930 . S
H1347 C1355 0.930 . S
H1348 C1358 0.930 . S
H1349 C1359 0.930 . S
C1350 H1344 0.930 1_655 S
C1350 C1351 1.355 . S
C1350 C1352 1.415 . S
C1351 C1350 1.355 . S
C1351 C1353 1.419 . S
C1352 C1350 1.415 . S
C1352 C1357 1.425 . S
C1352 C1359 1.409 . S
C1353 H1345 0.930 . S
C1353 C1351 1.419 . S
C1353 C1354 1.362 . S
C1354 H1346 0.930 . S
C1354 C1353 1.362 . S
C1354 C1357 1.409 . S
C1355 H1347 0.930 . S
C1355 C1356 1.355 . S
C1355 C1357 1.415 . S
C1356 C1355 1.355 . S
C1356 C1358 1.419 . S
C1357 C1352 1.425 . S
C1357 C1354 1.409 . S
C1357 C1355 1.415 . S
C1358 H1348 0.930 . S
C1358 C1356 1.419 . S
C1358 C1359 1.362 . S
C1359 H1349 0.930 . S
C1359 C1352 1.409 . S
C1359 C1358 1.362 . S
H1360 C1366 0.930 . S
H1361 C1369 0.930 . S
H1362 C1370 0.930 . S
H1363 C1371 0.930 . S
H1364 C1374 0.930 . S
H1365 C1375 0.930 . S
C1366 H1360 0.930 . S
C1366 C1367 1.355 . S
C1366 C1368 1.415 . S
C1367 C1366 1.355 . S
C1367 C1369 1.419 . S
C1368 C1366 1.415 . S
C1368 C1373 1.425 . S
C1368 C1375 1.409 . S
C1369 H1361 0.930 . S
C1369 C1367 1.419 . S
C1369 C1370 1.362 . S
C1370 H1362 0.930 . S
C1370 C1369 1.362 . S
C1370 C1373 1.409 . S
C1371 H1363 0.930 . S
C1371 C1372 1.355 . S
C1371 C1373 1.415 . S
C1372 C1371 1.355 . S
C1372 C1374 1.419 . S
C1373 C1368 1.425 . S
C1373 C1370 1.409 . S
C1373 C1371 1.415 . S
C1374 H1364 0.930 . S
C1374 C1372 1.419 . S
C1374 C1375 1.362 . S
C1375 H1365 0.930 . S
C1375 C1368 1.409 . S
C1375 C1374 1.362 . S
H1376 C1382 0.930 1_455 S
H1377 C1385 0.930 . S
H1378 C1386 0.930 . S
H1379 C1387 0.930 . S
H1380 C1390 0.930 . S
H1381 C1391 0.930 . S
C1382 H1376 0.930 1_655 S
C1382 C1383 1.355 . S
C1382 C1384 1.415 . S
C1383 C1382 1.355 . S
C1383 C1385 1.419 . S
C1384 C1382 1.415 . S
C1384 C1389 1.425 . S
C1384 C1391 1.409 . S
C1385 H1377 0.930 . S
C1385 C1383 1.419 . S
C1385 C1386 1.362 . S
C1386 H1378 0.930 . S
C1386 C1385 1.362 . S
C1386 C1389 1.409 . S
C1387 H1379 0.930 . S
C1387 C1388 1.355 . S
C1387 C1389 1.415 . S
C1388 C1387 1.355 . S
C1388 C1390 1.419 . S
C1389 C1384 1.425 . S
C1389 C1386 1.409 . S
C1389 C1387 1.415 . S
C1390 H1380 0.930 . S
C1390 C1388 1.419 . S
C1390 C1391 1.362 . S
C1391 H1381 0.930 . S
C1391 C1384 1.409 . S
C1391 C1390 1.362 . S
H1392 C1398 0.930 . S
H1393 C1401 0.930 . S
H1394 C1402 0.930 . S
H1395 C1403 0.930 . S
H1396 C1406 0.930 . S
H1397 C1407 0.930 . S
C1398 H1392 0.930 . S
C1398 C1399 1.355 . S
C1398 C1400 1.415 . S
C1399 C1398 1.355 . S
C1399 C1401 1.419 . S
C1400 C1398 1.415 . S
C1400 C1405 1.425 . S
C1400 C1407 1.409 . S
C1401 H1393 0.930 . S
C1401 C1399 1.419 . S
C1401 C1402 1.362 . S
C1402 H1394 0.930 . S
C1402 C1401 1.362 . S
C1402 C1405 1.409 . S
C1403 H1395 0.930 . S
C1403 C1404 1.355 . S
C1403 C1405 1.415 . S
C1404 C1403 1.355 . S
C1404 C1406 1.419 . S
C1405 C1400 1.425 . S
C1405 C1402 1.409 . S
C1405 C1403 1.415 . S
C1406 H1396 0.930 . S
C1406 C1404 1.419 . S
C1406 C1407 1.362 . S
C1407 H1397 0.930 . S
C1407 C1400 1.409 . S
C1407 C1406 1.362 . S
H1408 C1414 0.930 1_655 S
H1409 C1417 0.930 . S
H1410 C1418 0.930 . S
H1411 C1419 0.930 . S
H1412 C1422 0.930 . S
H1413 C1423 0.928 1_655 S
C1414 H1408 0.930 1_455 S
C1414 C1415 1.355 . S
C1414 C1416 1.415 . S
C1415 C1414 1.355 . S
C1415 C1417 1.419 . S
C1416 C1414 1.415 . S
C1416 C1421 1.425 . S
C1416 C1423 1.409 . S
C1417 H1409 0.930 . S
C1417 C1415 1.419 . S
C1417 C1418 1.362 . S
C1418 H1410 0.930 . S
C1418 C1417 1.362 . S
C1418 C1421 1.409 . S
C1419 H1411 0.930 . S
C1419 C1420 1.355 . S
C1419 C1421 1.415 . S
C1420 C1419 1.355 . S
C1420 C1422 1.419 . S
C1421 C1416 1.425 . S
C1421 C1418 1.409 . S
C1421 C1419 1.415 . S
C1422 H1412 0.930 . S
C1422 C1420 1.419 . S
C1422 C1423 1.362 . S
C1423 H1413 0.928 1_455 S
C1423 C1416 1.409 . S
C1423 C1422 1.362 . S
H1424 C1430 0.930 . S
H1425 C1433 0.930 . S
H1426 C1434 0.930 . S
H1427 C1435 0.930 . S
H1428 C1438 0.930 . S
H1429 C1439 0.930 . S
C1430 H1424 0.930 . S
C1430 C1431 1.355 . S
C1430 C1432 1.415 . S
C1431 C1430 1.355 . S
C1431 C1433 1.419 . S
C1432 C1430 1.415 . S
C1432 C1437 1.425 . S
C1432 C1439 1.409 . S
C1433 H1425 0.930 . S
C1433 C1431 1.419 . S
C1433 C1434 1.362 . S
C1434 H1426 0.930 . S
C1434 C1433 1.362 . S
C1434 C1437 1.409 . S
C1435 H1427 0.930 . S
C1435 C1436 1.355 . S
C1435 C1437 1.415 . S
C1436 C1435 1.355 . S
C1436 C1438 1.419 . S
C1437 C1432 1.425 . S
C1437 C1434 1.409 . S
C1437 C1435 1.415 . S
C1438 H1428 0.930 . S
C1438 C1436 1.419 . S
C1438 C1439 1.362 . S
C1439 H1429 0.930 . S
C1439 C1432 1.409 . S
C1439 C1438 1.362 . S
H1440 C1446 0.930 1_655 S
H1441 C1449 0.930 . S
H1442 C1450 0.930 . S
H1443 C1451 0.930 . S
H1444 C1454 0.930 . S
H1445 C1455 0.930 . S
C1446 H1440 0.930 1_455 S
C1446 C1447 1.355 . S
C1446 C1448 1.415 . S
C1447 C1446 1.355 . S
C1447 C1449 1.419 . S
C1448 C1446 1.415 . S
C1448 C1453 1.425 . S
C1448 C1455 1.409 . S
C1449 H1441 0.930 . S
C1449 C1447 1.419 . S
C1449 C1450 1.362 . S
C1450 H1442 0.930 . S
C1450 C1449 1.362 . S
C1450 C1453 1.409 . S
C1451 H1443 0.930 . S
C1451 C1452 1.355 . S
C1451 C1453 1.415 . S
C1452 C1451 1.355 . S
C1452 C1454 1.419 . S
C1453 C1448 1.425 . S
C1453 C1450 1.409 . S
C1453 C1451 1.415 . S
C1454 H1444 0.930 . S
C1454 C1452 1.419 . S
C1454 C1455 1.362 . S
C1455 H1445 0.930 . S
C1455 C1448 1.409 . S
C1455 C1454 1.362 . S
H1456 C1462 0.930 . S
H1457 C1465 0.930 . S
H1458 C1466 0.930 . S
H1459 C1467 0.930 . S
H1460 C1470 0.930 . S
H1461 C1471 0.930 . S
C1462 H1456 0.930 . S
C1462 C1463 1.355 . S
C1462 C1464 1.415 . S
C1463 C1462 1.355 . S
C1463 C1465 1.419 . S
C1464 C1462 1.415 . S
C1464 C1469 1.425 . S
C1464 C1471 1.409 . S
C1465 H1457 0.930 . S
C1465 C1463 1.419 . S
C1465 C1466 1.362 . S
C1466 H1458 0.930 . S
C1466 C1465 1.362 . S
C1466 C1469 1.409 . S
C1467 H1459 0.930 . S
C1467 C1468 1.355 . S
C1467 C1469 1.415 . S
C1468 C1467 1.355 . S
C1468 C1470 1.419 . S
C1469 C1464 1.425 . S
C1469 C1466 1.409 . S
C1469 C1467 1.415 . S
C1470 H1460 0.930 . S
C1470 C1468 1.419 . S
C1470 C1471 1.362 . S
C1471 H1461 0.930 . S
C1471 C1464 1.409 . S
C1471 C1470 1.362 . S
C455 C51 1.075 . S
C460 C9 1.080 . S
C471 C37 1.182 . S
C476 C23 1.182 . S
C487 C107 1.182 . S
C492 C65 1.181 . S
C503 C93 1.062 . S
C508 C79 1.062 . S
C519 C121 1.147 . S
C524 C163 1.153 . S
C535 C135 1.073 . S
C540 C149 1.077 . S
C551 C219 1.082 . S
C556 C177 1.077 . S
C567 C191 1.138 . S
C572 C205 1.131 . S
C583 C233 1.093 . S
C588 C275 1.099 . S
C599 C247 1.073 . S
C604 C261 1.077 . S
C615 C331 1.112 . S
C620 C289 1.105 . S
C631 C317 1.158 . S
C636 C303 1.163 . S
C647 C387 1.167 . S
C652 C345 1.162 . S
C663 C359 1.097 . S
C668 C373 1.091 . S
C679 C401 1.177 . S
C684 C443 1.174 . S
C695 C415 1.166 . S
C700 C429 1.161 . S
C711 C283 1.346 . S
C716 C3 1.346 . S
C727 C185 1.302 . S
C732 C17 1.302 . S
C743 C31 1.296 . S
C748 C423 1.296 . S
C759 C45 1.279 . S
C764 C101 1.279 . S
C775 C227 1.315 . S
C780 C59 1.315 . S
C791 C129 1.276 . S
C796 C73 1.276 . S
C807 C367 1.293 . S
C812 C87 1.293 . S
C823 C115 1.347 . S
C828 C395 1.347 . S
C839 C311 1.307 . S
C844 C143 1.307 . S
C855 C213 1.306 . S
C860 C157 1.306 . S
C871 C339 1.346 . S
C876 C171 1.346 . S
C887 C199 1.327 . S
C892 C255 1.327 . S
C903 C409 1.347 . S
C908 C241 1.347 . S
C919 C269 1.314 . S
C924 C325 1.314 . S
C935 C353 1.276 . S
C940 C297 1.276 . S
C951 C437 1.273 . S
C956 C381 1.273 . S
C967 C21 1.340 . S
C972 C7 1.385 . S
C983 C35 1.366 . S
C988 C49 1.358 . S
C999 C63 1.357 . S
C1004 C77 1.364 . S
C1015 C105 1.357 . S
C1020 C91 1.367 . S
C1031 C119 1.370 . S
C1036 C133 1.349 . S
C1047 C147 1.366 . S
C1052 C161 1.356 . S
C1063 C189 1.340 . S
C1068 C175 1.383 . S
C1079 C203 1.363 . S
C1084 C217 1.358 . S
C1095 C231 1.386 . S
C1100 C245 1.338 . S
C1111 C259 1.349 . S
C1116 C273 1.372 . S
C1127 C287 1.337 . S
C1132 C301 1.384 . S
C1143 C329 1.348 . S
C1148 C315 1.373 . S
C1159 C357 1.339 . S
C1164 C343 1.384 . S
C1175 C371 1.374 . S
C1180 C385 1.347 . S
C1191 C399 1.356 . S
C1196 C413 1.369 . S
C1207 C441 1.351 . S
C1212 C427 1.373 . S
C1223 C8 1.538 . S
C1228 C274 1.538 . S
C1239 C22 1.524 . S
C1244 C260 1.525 . S
C1255 C246 1.526 . S
C1260 C36 1.527 . S
C1271 C50 1.536 . S
C1276 C232 1.536 . S
C1287 C330 1.538 . S
C1292 C64 1.539 . S
C1303 C78 1.538 . S
C1308 C316 1.539 . S
C1319 C302 1.516 . S
C1324 C92 1.517 . S
C1335 C106 1.536 . S
C1340 C288 1.535 . S
C1351 C120 1.537 . S
C1356 C386 1.536 . S
C1367 C134 1.509 . S
C1372 C372 1.509 . S
C1383 C148 1.539 . S
C1388 C358 1.539 . S
C1399 C344 1.511 . S
C1404 C162 1.510 . S
C1415 C176 1.538 . S
C1420 C442 1.539 . S
C1431 C190 1.538 . S
C1436 C428 1.538 . S
C1447 C204 1.535 . S
C1452 C414 1.536 . S
C1463 C400 1.514 . S
C1468 C218 1.513 . S
