# Generated by pormake.
# Topology lig, (3)-cn, num edge types: 1
# Building blocks:
#     Node 0, Type 0, BuildingBlock: WUSLED_clean_sbu_0, # of connection points: 3
#     Node 1, Type 0, BuildingBlock: WUSLED_clean_sbu_0, # of connection points: 3
#     Node 2, Type 0, BuildingBlock: WUSLED_clean_sbu_0, # of connection points: 3
#     Node 3, Type 0, BuildingBlock: WUSLED_clean_sbu_0, # of connection points: 3
#     Node 4, Type 0, BuildingBlock: WUSLED_clean_sbu_0, # of connection points: 3
#     Node 5, Type 0, BuildingBlock: WUSLED_clean_sbu_0, # of connection points: 3
#     Node 6, Type 0, BuildingBlock: WUSLED_clean_sbu_0, # of connection points: 3
#     Node 7, Type 0, BuildingBlock: WUSLED_clean_sbu_0, # of connection points: 3
#     Node 8, Type 0, BuildingBlock: WUSLED_clean_sbu_0, # of connection points: 3
#     Node 9, Type 0, BuildingBlock: WUSLED_clean_sbu_0, # of connection points: 3
#     Node 10, Type 0, BuildingBlock: WUSLED_clean_sbu_0, # of connection points: 3
#     Node 11, Type 0, BuildingBlock: WUSLED_clean_sbu_0, # of connection points: 3
#     Node 12, Type 0, BuildingBlock: WUSLED_clean_sbu_0, # of connection points: 3
#     Node 13, Type 0, BuildingBlock: WUSLED_clean_sbu_0, # of connection points: 3
#     Node 14, Type 0, BuildingBlock: WUSLED_clean_sbu_0, # of connection points: 3
#     Node 15, Type 0, BuildingBlock: WUSLED_clean_sbu_0, # of connection points: 3
#     Edge 16, Type (0, 0), BuildingBlock: KIFKEQ_clean_linker_1, # of connection points: 2
#     Edge 17, Type (0, 0), BuildingBlock: KIFKEQ_clean_linker_1, # of connection points: 2
#     Edge 18, Type (0, 0), BuildingBlock: KIFKEQ_clean_linker_1, # of connection points: 2
#     Edge 19, Type (0, 0), BuildingBlock: KIFKEQ_clean_linker_1, # of connection points: 2
#     Edge 20, Type (0, 0), BuildingBlock: KIFKEQ_clean_linker_1, # of connection points: 2
#     Edge 21, Type (0, 0), BuildingBlock: KIFKEQ_clean_linker_1, # of connection points: 2
#     Edge 22, Type (0, 0), BuildingBlock: KIFKEQ_clean_linker_1, # of connection points: 2
#     Edge 23, Type (0, 0), BuildingBlock: KIFKEQ_clean_linker_1, # of connection points: 2
#     Edge 24, Type (0, 0), BuildingBlock: KIFKEQ_clean_linker_1, # of connection points: 2
#     Edge 25, Type (0, 0), BuildingBlock: KIFKEQ_clean_linker_1, # of connection points: 2
#     Edge 26, Type (0, 0), BuildingBlock: KIFKEQ_clean_linker_1, # of connection points: 2
#     Edge 27, Type (0, 0), BuildingBlock: KIFKEQ_clean_linker_1, # of connection points: 2
#     Edge 28, Type (0, 0), BuildingBlock: KIFKEQ_clean_linker_1, # of connection points: 2
#     Edge 29, Type (0, 0), BuildingBlock: KIFKEQ_clean_linker_1, # of connection points: 2
#     Edge 30, Type (0, 0), BuildingBlock: KIFKEQ_clean_linker_1, # of connection points: 2
#     Edge 31, Type (0, 0), BuildingBlock: KIFKEQ_clean_linker_1, # of connection points: 2
#     Edge 32, Type (0, 0), BuildingBlock: KIFKEQ_clean_linker_1, # of connection points: 2
#     Edge 33, Type (0, 0), BuildingBlock: KIFKEQ_clean_linker_1, # of connection points: 2
#     Edge 34, Type (0, 0), BuildingBlock: KIFKEQ_clean_linker_1, # of connection points: 2
#     Edge 35, Type (0, 0), BuildingBlock: KIFKEQ_clean_linker_1, # of connection points: 2
#     Edge 36, Type (0, 0), BuildingBlock: KIFKEQ_clean_linker_1, # of connection points: 2
#     Edge 37, Type (0, 0), BuildingBlock: KIFKEQ_clean_linker_1, # of connection points: 2
#     Edge 38, Type (0, 0), BuildingBlock: KIFKEQ_clean_linker_1, # of connection points: 2
#     Edge 39, Type (0, 0), BuildingBlock: KIFKEQ_clean_linker_1, # of connection points: 2
# Relax obj value: 0.000
# Max RMSD: 0.008
# Mean RMSD: 0.006
data_MOF--net-lig--node1-WUSLED_clean_sbu_0--edge1-KIFKEQ_clean_linker_1
_symmetry_space_group_name_H-M    P1
_symmetry_Int_Tables_number       1
_symmetry_cell_setting            triclinic
loop_
_symmetry_equiv_pos_as_xyz
'x, y, z'
_cell_length_a     92.055937
_cell_length_b     92.801583
_cell_length_c     66.06967
_cell_angle_alpha  88.459409
_cell_angle_beta   89.986855
_cell_angle_gamma 91.325803
loop_
_atom_site_label
_atom_site_type_symbol
_atom_site_fract_x
_atom_site_fract_y
_atom_site_fract_z
_atom_type_partial_charge
C0 C 0.10404 0.02386 0.04857 0.0
C1 C 0.09691 1.01905 0.03107 0.0
C2 C 0.0735 0.02629 0.04442 0.0
C3 C 0.08181 1.02023 0.02905 0.0
C4 C 0.08072 0.03129 0.06174 0.0
C5 C 0.09577 0.03004 0.0638 0.0
U6 U 0.14465 0.02926 0.03431 0.0
O7 O 0.16339 0.0338 0.05416 0.0
O8 O 0.16253 1.01399 0.03675 0.0
C9 C 0.16945 0.02145 0.05054 0.0
C10 C 0.11983 0.02188 0.05188 0.0
C11 C 0.17491 1.01324 0.06836 0.0
C12 C 0.17324 0.99315 0.09283 0.0
C13 C 0.16724 1.00127 0.07682 0.0
C14 C 0.19444 1.00908 0.09247 0.0
C15 C 0.18703 0.99683 0.1007 0.0
C16 C 0.18845 1.01715 0.07649 0.0
C17 C 0.15482 0.05124 0.98546 0.0
C18 C 0.17862 0.06143 0.97626 0.0
C19 C 0.1592 0.06127 0.95156 0.0
C20 C 0.14991 0.05453 0.96584 0.0
C21 C 0.17367 0.06488 0.95657 0.0
C22 C 0.16929 0.05464 0.99057 0.0
C23 C 0.14448 0.04469 1.00031 0.0
O24 O 0.12661 1.01358 0.03929 0.0
O25 O 0.12747 0.03347 0.05653 0.0
O26 O 0.14438 0.05035 1.01834 0.0
O27 O 0.14352 0.03054 1.00097 0.0
H28 H 0.10295 1.01424 1.01902 0.0
H29 H 0.07664 1.01641 1.01542 0.0
H30 H 0.07467 0.03583 0.07401 0.0
H31 H 0.10095 0.03371 0.07752 0.0
H32 H 0.16726 0.98374 0.09866 0.0
H33 H 0.15674 0.99805 0.07081 0.0
H34 H 0.20493 1.01243 0.09835 0.0
H35 H 0.19453 0.02637 0.07025 0.0
H36 H 0.18973 0.06391 0.98059 0.0
H37 H 0.15491 0.06394 0.9367 0.0
H38 H 0.13877 0.05206 0.96162 0.0
H39 H 0.17332 0.05214 1.00563 0.0
C40 C 0.27481 0.86303 0.29752 0.0
C41 C 0.26163 0.857 0.29061 0.0
C42 C 0.27188 0.83292 0.29181 0.0
C43 C 0.26017 0.8421 0.28786 0.0
C44 C 0.28511 0.83908 0.29843 0.0
C45 C 0.28653 0.85394 0.30128 0.0
U46 U 0.26876 0.90331 0.2848 0.0
O47 O 0.2639 0.92105 0.30513 0.0
O48 O 0.28398 0.92182 0.28719 0.0
C49 C 0.27628 0.92791 0.30123 0.0
C50 C 0.27654 0.87861 0.30149 0.0
C51 C 0.28434 0.93343 0.31887 0.0
C52 C 0.30371 0.93188 0.34394 0.0
C53 C 0.29585 0.9259 0.32786 0.0
C54 C 0.28849 0.9528 0.34243 0.0
C55 C 0.30022 0.9455 0.3513 0.0
C56 C 0.28068 0.94684 0.32641 0.0
C57 C 0.24688 0.91357 0.23664 0.0
C58 C 0.23818 0.93742 0.22726 0.0
C59 C 0.23646 0.91815 0.20333 0.0
C60 C 0.24278 0.90876 0.21751 0.0
C61 C 0.23408 0.93262 0.20797 0.0
C62 C 0.24457 0.92798 0.24146 0.0
C63 C 0.25342 0.90325 0.25119 0.0
O64 O 0.28482 0.88617 0.28873 0.0
O65 O 0.26475 0.88537 0.30668 0.0
O66 O 0.24759 0.90236 0.26936 0.0
O67 O 0.26768 0.90307 0.25149 0.0
H68 H 0.25243 0.86377 0.28746 0.0
H69 H 0.24989 0.83777 0.2825 0.0
H70 H 0.2943 0.83236 0.30184 0.0
H71 H 0.29678 0.85833 0.30668 0.0
H72 H 0.31272 0.92598 0.35028 0.0
H73 H 0.29887 0.91551 0.32229 0.0
H74 H 0.28528 0.96315 0.34791 0.0
H75 H 0.27181 0.9528 0.31976 0.0
H76 H 0.23665 0.94852 0.23129 0.0
H77 H 0.23324 0.91399 0.1888 0.0
H78 H 0.24442 0.89766 0.21352 0.0
H79 H 0.24771 0.93192 0.25615 0.0
C80 C 0.36234 1.01105 0.50045 0.0
C81 C 0.37125 1.00796 0.48394 0.0
C82 C 0.35109 0.99498 0.46787 0.0
C83 C 0.36566 1.00002 0.46777 0.0
C84 C 0.34231 0.99804 0.4846 0.0
C85 C 0.34788 1.00597 0.50067 0.0
U86 U 0.39255 0.02791 0.53369 0.0
O87 O 0.39343 0.04923 0.54754 0.0
O88 O 0.39318 0.02964 0.5669 0.0
C89 C 0.39277 0.04379 0.56611 0.0
C90 C 0.36769 1.0197 0.51748 0.0
C91 C 0.38252 0.05043 0.58016 0.0
C92 C 0.35992 0.06247 0.5874 0.0
C93 C 0.36909 0.05578 0.57369 0.0
C94 C 0.37739 0.05837 0.61418 0.0
C95 C 0.36396 0.06386 0.60785 0.0
C96 C 0.38654 0.05176 0.6005 0.0
C97 C 0.43317 0.02141 0.52196 0.0
C98 C 0.4557 0.03576 0.52319 0.0
C99 C 0.45638 1.00983 0.5277 0.0
C100 C 0.44127 1.00894 0.52542 0.0
C101 C 0.46383 0.02324 0.52643 0.0
C102 C 0.44054 0.03487 0.521 0.0
C103 C 0.41731 1.01991 0.5181 0.0
O104 O 0.37398 1.01253 0.53234 0.0
O105 O 0.37445 0.03195 0.51267 0.0
O106 O 0.41047 0.03152 0.51192 0.0
O107 O 0.40979 1.01194 0.5313 0.0
H108 H 0.38247 1.01172 0.48351 0.0
H109 H 0.37278 0.99775 0.45527 0.0
H110 H 0.331 0.99456 0.48512 0.0
H111 H 0.34082 1.00828 0.51325 0.0
H112 H 0.3496 0.06643 0.58203 0.0
H113 H 0.36572 0.05484 0.55806 0.0
H114 H 0.38099 0.05941 0.62969 0.0
H115 H 0.39688 0.04778 0.6058 0.0
H116 H 0.46105 0.04627 0.52233 0.0
H117 H 0.46226 0.99994 0.52987 0.0
H118 H 0.43592 0.99841 0.52599 0.0
H119 H 0.43466 0.0447 0.51831 0.0
C120 C 0.27786 0.19539 0.76721 0.0
C121 C 0.26565 0.20039 0.77742 0.0
C122 C 0.2751 0.22519 0.77427 0.0
C123 C 0.26426 0.21515 0.78085 0.0
C124 C 0.28738 0.22005 0.76428 0.0
C125 C 0.28871 0.20533 0.76078 0.0
U126 U 0.27042 0.15483 0.77788 0.0
O127 O 0.26551 0.13757 0.75642 0.0
O128 O 0.28507 0.13656 0.77537 0.0
C129 C 0.27756 0.13077 0.7606 0.0
C130 C 0.27939 0.17999 0.76267 0.0
C131 C 0.28585 0.12559 0.74311 0.0
C132 C 0.30762 0.1253 0.72211 0.0
C133 C 0.29962 0.13135 0.73772 0.0
C134 C 0.28807 0.10795 0.71672 0.0
C135 C 0.30204 0.11336 0.7116 0.0
C136 C 0.28011 0.11398 0.73229 0.0
C137 C 0.2464 0.14289 0.82393 0.0
C138 C 0.24651 0.12224 0.84756 0.0
C139 C 0.22424 0.13501 0.84156 0.0
C140 C 0.23154 0.14442 0.8279 0.0
C141 C 0.23164 0.12386 0.85171 0.0
C142 C 0.25381 0.13163 0.83379 0.0
C143 C 0.25395 0.15371 0.81046 0.0
O144 O 0.28703 0.17233 0.77567 0.0
O145 O 0.26758 0.17317 0.75656 0.0
O146 O 0.24873 0.15526 0.79203 0.0
O147 O 0.26823 0.15421 0.81106 0.0
H148 H 0.25716 0.19291 0.78262 0.0
H149 H 0.25475 0.2187 0.7888 0.0
H150 H 0.29585 0.22745 0.75879 0.0
H151 H 0.2982 0.20171 0.75283 0.0
H152 H 0.31837 0.12969 0.7187 0.0
H153 H 0.30431 0.14031 0.74581 0.0
H154 H 0.28327 0.09897 0.70875 0.0
H155 H 0.26951 0.10937 0.73614 0.0
H156 H 0.25251 0.11368 0.85493 0.0
H157 H 0.21285 0.13673 0.84456 0.0
H158 H 0.2256 0.15309 0.82067 0.0
H159 H 0.26528 0.13015 0.83106 0.0
C160 C 0.8618 1.0133 0.06668 0.0
C161 C 0.8712 1.00565 0.07954 0.0
C162 C 0.85056 0.99661 0.09986 0.0
C163 C 0.86562 0.99736 0.09596 0.0
C164 C 0.84126 1.00441 0.08693 0.0
C165 C 0.84683 1.01265 0.07054 0.0
U166 U 0.89266 0.03005 0.03372 0.0
O167 O 0.89434 0.03189 1.00046 0.0
O168 O 0.89411 0.0514 1.01845 0.0
C169 C 0.89398 0.04604 1.00024 0.0
C170 C 0.86731 0.0219 0.04908 0.0
C171 C 0.88397 0.05272 0.98547 0.0
C172 C 0.86006 0.06113 0.97559 0.0
C173 C 0.86918 0.05441 0.98982 0.0
C174 C 0.88038 0.06439 0.95251 0.0
C175 C 0.86555 0.06623 0.95673 0.0
C176 C 0.88946 0.05772 0.96672 0.0
C177 C 0.93259 0.02391 0.04962 0.0
C178 C 0.95423 0.02859 0.02902 0.0
C179 C 0.95662 0.0229 0.06482 0.0
C180 C 0.9415 0.02171 0.06657 0.0
C181 C 0.96322 0.02633 0.04603 0.0
C182 C 0.93904 0.02743 0.03081 0.0
C183 C 0.9167 0.02216 0.05205 0.0
O184 O 0.87386 0.03421 0.05317 0.0
O185 O 0.87407 1.01471 0.03519 0.0
O186 O 0.90991 1.01429 0.03859 0.0
O187 O 0.90968 0.03381 0.05659 0.0
H188 H 0.88281 1.00606 0.07684 0.0
H189 H 0.87313 0.99164 0.10571 0.0
H190 H 0.82961 1.00394 0.08923 0.0
H191 H 0.83941 1.01845 0.06074 0.0
H192 H 0.84868 0.06223 0.97929 0.0
H193 H 0.86472 0.05058 1.00421 0.0
H194 H 0.88507 0.06836 0.93835 0.0
H195 H 0.90085 0.05656 0.96311 0.0
H196 H 0.95892 0.03139 1.01436 0.0
H197 H 0.96315 1.02086 0.07818 0.0
H198 H 0.93674 1.01893 0.0812 0.0
H199 H 0.93235 0.02922 1.01753 0.0
C200 C 0.76185 0.19333 0.7681 0.0
C201 C 0.76454 0.19868 0.78747 0.0
C202 C 0.76526 0.22339 0.77368 0.0
C203 C 0.76618 0.21357 0.79024 0.0
C204 C 0.76271 0.21792 0.7543 0.0
C205 C 0.76101 0.20307 0.75157 0.0
U206 U 0.76806 0.1531 0.78085 0.0
O207 O 0.75253 0.13466 0.78042 0.0
O208 O 0.77145 0.13526 0.76021 0.0
C209 C 0.75932 0.12845 0.76561 0.0
C210 C 0.75962 0.17775 0.76472 0.0
C211 C 0.75014 0.12297 0.74905 0.0
C212 C 0.73751 0.12608 0.71688 0.0
C213 C 0.74591 0.13182 0.73262 0.0
C214 C 0.73741 0.10267 0.73395 0.0
C215 C 0.73316 0.1114 0.71733 0.0
C216 C 0.74579 0.1084 0.74959 0.0
C217 C 0.79312 0.14265 0.82583 0.0
C218 C 0.79337 0.12108 0.84773 0.0
C219 C 0.81491 0.13643 0.84471 0.0
C220 C 0.80761 0.14559 0.83121 0.0
C221 C 0.80789 0.12409 0.85326 0.0
C222 C 0.78607 0.13024 0.8341 0.0
C223 C 0.78558 0.15304 0.81231 0.0
O224 O 0.77099 0.17089 0.7583 0.0
O225 O 0.75212 0.17038 0.7786 0.0
O226 O 0.77135 0.15345 0.81383 0.0
O227 O 0.79022 0.15404 0.7935 0.0
H228 H 0.76532 0.19136 0.80046 0.0
H229 H 0.7683 0.21738 0.80533 0.0
H230 H 0.76176 0.22514 0.74124 0.0
H231 H 0.75891 0.19919 0.73651 0.0
H232 H 0.73432 0.13317 0.70446 0.0
H233 H 0.74913 0.14313 0.73194 0.0
H234 H 0.7345 0.09129 0.73472 0.0
H235 H 0.749 0.10137 0.76208 0.0
H236 H 0.78768 0.11159 0.85384 0.0
H237 H 0.826 0.13922 0.8488 0.0
H238 H 0.81324 0.15514 0.82514 0.0
H239 H 0.7749 0.12767 0.83018 0.0
C240 C 0.60452 1.01951 0.51952 0.0
C241 C 0.59865 0.03088 0.53024 0.0
C242 C 0.57405 1.0213 0.52455 0.0
C243 C 0.58354 0.03178 0.53269 0.0
C244 C 0.58008 1.0099 0.51397 0.0
C245 C 0.59512 1.00903 0.51151 0.0
U246 U 0.64517 0.02726 0.53148 0.0
O247 O 0.66353 1.01256 0.52972 0.0
O248 O 0.66316 0.03198 0.51006 0.0
C249 C 0.66966 1.01984 0.5145 0.0
C250 C 0.62029 1.01842 0.51594 0.0
C251 C 0.67463 1.01146 0.49707 0.0
C252 C 0.67582 0.98919 0.47839 0.0
C253 C 0.6702 0.99702 0.49437 0.0
C254 C 0.69017 1.01011 0.46734 0.0
C255 C 0.68592 0.99562 0.4647 0.0
C256 C 0.68462 1.0179 0.48335 0.0
C257 C 0.6561 0.05071 0.57708 0.0
C258 C 0.67749 0.05047 0.59884 0.0
C259 C 0.6625 0.07154 0.59721 0.0
C260 C 0.65336 0.06473 0.58328 0.0
C261 C 0.67459 0.06445 0.60538 0.0
C262 C 0.66837 0.04368 0.58481 0.0
C263 C 0.64554 0.04347 0.56357 0.0
O264 O 0.62723 0.03032 0.5099 0.0
O265 O 0.62757 1.01084 0.52944 0.0
O266 O 0.64487 0.02929 0.56457 0.0
O267 O 0.64464 0.04875 0.54496 0.0
H268 H 0.60572 0.03907 0.53661 0.0
H269 H 0.57931 0.04062 0.5411 0.0
H270 H 0.57316 1.00176 0.50721 0.0
H271 H 0.59942 1.00021 0.5031 0.0
H272 H 0.67219 0.9781 0.47669 0.0
H273 H 0.6625 0.99174 0.50467 0.0
H274 H 0.69806 1.01537 0.45729 0.0
H275 H 0.68831 0.02896 0.48517 0.0
H276 H 0.68681 0.04475 0.6046 0.0
H277 H 0.6598 0.08222 0.60204 0.0
H278 H 0.64393 0.07035 0.57763 0.0
H279 H 0.6708 0.03288 0.58025 0.0
C280 C 0.76222 0.86202 0.29971 0.0
C281 C 0.76467 0.857 0.28016 0.0
C282 C 0.76537 0.83217 0.29339 0.0
C283 C 0.76618 0.84221 0.27702 0.0
C284 C 0.7631 0.83732 0.31296 0.0
C285 C 0.76153 0.85207 0.31606 0.0
U286 U 0.76819 0.90241 0.28664 0.0
O287 O 0.7527 0.92018 0.28738 0.0
O288 O 0.77203 0.92059 0.30682 0.0
C289 C 0.7598 0.92681 0.30182 0.0
C290 C 0.76007 0.87747 0.3034 0.0
C291 C 0.75094 0.93211 0.3186 0.0
C292 C 0.7408 0.92981 0.35264 0.0
C293 C 0.74875 0.92408 0.33672 0.0
C294 C 0.73697 0.95151 0.33239 0.0
C295 C 0.73484 0.94364 0.35071 0.0
C296 C 0.74491 0.9458 0.31656 0.0
C297 C 0.79197 0.9133 0.24004 0.0
C298 C 0.79334 0.93671 0.22247 0.0
C299 C 0.81061 0.91839 0.21457 0.0
C300 C 0.80401 0.909 0.22891 0.0
C301 C 0.80528 0.93232 0.21097 0.0
C302 C 0.78674 0.92728 0.23688 0.0
C303 C 0.78489 0.9028 0.25429 0.0
O304 O 0.77163 0.88485 0.3092 0.0
O305 O 0.75221 0.88451 0.28996 0.0
O306 O 0.77063 0.90184 0.25355 0.0
O307 O 0.79001 0.90242 0.27285 0.0
H308 H 0.76535 0.86449 0.26731 0.0
H309 H 0.7681 0.83866 0.2618 0.0
H310 H 0.76226 0.82992 0.32588 0.0
H311 H 0.75962 0.85571 0.33126 0.0
H312 H 0.73925 0.92337 0.36642 0.0
H313 H 0.75327 0.91345 0.3386 0.0
H314 H 0.73278 0.96226 0.3304 0.0
H315 H 0.74653 0.95221 0.30276 0.0
H316 H 0.78887 0.9473 0.22002 0.0
H317 H 0.81993 0.91471 0.20633 0.0
H318 H 0.80826 0.89829 0.23119 0.0
H319 H 0.77746 0.93082 0.24533 0.0
C320 C 0.60425 0.52169 0.55037 0.0
C321 C 0.59831 0.52551 0.53144 0.0
C322 C 0.57384 0.52449 0.5459 0.0
C323 C 0.58323 0.52685 0.52921 0.0
C324 C 0.57993 0.52073 0.5648 0.0
C325 C 0.59495 0.51935 0.56697 0.0
U326 U 0.64482 0.52818 0.53641 0.0
O327 O 0.66325 0.53234 0.55695 0.0
O328 O 0.66284 0.51303 0.53848 0.0
C329 C 0.66944 0.52012 0.55294 0.0
C330 C 0.62001 0.5199 0.55332 0.0
C331 C 0.67473 0.51156 0.57059 0.0
C332 C 0.67527 0.48945 0.59135 0.0
C333 C 0.66922 0.49763 0.57543 0.0
C334 C 0.69213 0.50911 0.59817 0.0
C335 C 0.68694 0.49501 0.60278 0.0
C336 C 0.68612 0.51724 0.58226 0.0
C337 C 0.65604 0.55213 0.48965 0.0
C338 C 0.67259 0.55178 0.46078 0.0
C339 C 0.66745 0.5744 0.47631 0.0
C340 C 0.65822 0.56715 0.49023 0.0
C341 C 0.67468 0.56684 0.46128 0.0
C342 C 0.66338 0.54451 0.47476 0.0
C343 C 0.64527 0.54484 0.50353 0.0
O344 O 0.62677 0.51232 0.53983 0.0
O345 O 0.62744 0.53145 0.55864 0.0
O346 O 0.64446 0.54983 0.52194 0.0
O347 O 0.64418 0.53069 0.50318 0.0
H348 H 0.60532 0.52742 0.51842 0.0
H349 H 0.57894 0.52989 0.51449 0.0
H350 H 0.57307 0.5186 0.5779 0.0
H351 H 0.59931 0.51635 0.58169 0.0
H352 H 0.67106 0.4786 0.59431 0.0
H353 H 0.66044 0.49295 0.5667 0.0
H354 H 0.70089 0.51388 0.60683 0.0
H355 H 0.69053 0.52796 0.57886 0.0
H356 H 0.67808 0.54558 0.44955 0.0
H357 H 0.66858 0.58602 0.47699 0.0
H358 H 0.65254 0.57339 0.50125 0.0
H359 H 0.66188 0.53295 0.4737 0.0
C360 C 0.77729 0.36168 0.79806 0.0
C361 C 0.7649 0.35598 0.78844 0.0
C362 C 0.77447 0.33167 0.79168 0.0
C363 C 0.76348 0.34111 0.78535 0.0
C364 C 0.78689 0.3375 0.80114 0.0
C365 C 0.78826 0.35232 0.8043 0.0
U366 U 0.77112 0.402 0.78564 0.0
O367 O 0.76689 0.41974 0.80613 0.0
O368 O 0.78665 0.42038 0.7875 0.0
C369 C 0.77934 0.42642 0.80197 0.0
C370 C 0.77901 0.37723 0.80204 0.0
C371 C 0.78796 0.43183 0.81927 0.0
C372 C 0.79287 0.43334 0.85545 0.0
C373 C 0.7853 0.42707 0.83935 0.0
C374 C 0.80611 0.44896 0.83166 0.0
C375 C 0.80325 0.44452 0.85184 0.0
C376 C 0.79854 0.44273 0.81562 0.0
C377 C 0.74893 0.41274 0.73793 0.0
C378 C 0.7365 0.43512 0.73014 0.0
C379 C 0.74185 0.41879 0.70331 0.0
C380 C 0.74831 0.40941 0.71737 0.0
C381 C 0.73581 0.43176 0.70948 0.0
C382 C 0.74304 0.42572 0.74423 0.0
C383 C 0.75542 0.40226 0.75236 0.0
O384 O 0.78713 0.38479 0.78909 0.0
O385 O 0.76725 0.38394 0.80742 0.0
O386 O 0.74977 0.40132 0.77065 0.0
O387 O 0.76968 0.40178 0.75234 0.0
H388 H 0.75632 0.36301 0.78336 0.0
H389 H 0.75385 0.33703 0.77781 0.0
H390 H 0.79548 0.33057 0.80644 0.0
H391 H 0.79789 0.35648 0.81179 0.0
H392 H 0.79027 0.42971 0.87076 0.0
H393 H 0.77719 0.4187 0.84267 0.0
H394 H 0.8142 0.45733 0.82821 0.0
H395 H 0.8008 0.4466 0.8003 0.0
H396 H 0.73211 0.44508 0.73539 0.0
H397 H 0.74135 0.41573 0.68762 0.0
H398 H 0.75272 0.39943 0.71219 0.0
H399 H 0.74344 0.42857 0.76002 0.0
C400 C 0.86448 0.51235 1.00025 0.0
C401 C 0.86276 0.49724 1.00175 0.0
C402 C 0.85275 0.49655 0.96753 0.0
C403 C 0.85701 0.48945 0.9856 0.0
C404 C 0.8546 0.51164 0.96599 0.0
C405 C 0.86033 0.51943 0.98214 0.0
U406 U 0.89381 0.52902 0.03536 0.0
O407 O 0.89444 0.55018 0.04967 0.0
O408 O 0.89396 0.5304 0.06862 0.0
C409 C 0.89361 0.54455 0.06812 0.0
C410 C 0.86938 0.52084 1.01792 0.0
C411 C 0.88323 0.55107 0.08207 0.0
C412 C 0.85973 0.5612 0.08969 0.0
C413 C 0.86911 0.55471 0.07607 0.0
C414 C 0.87842 0.56038 0.11543 0.0
C415 C 0.86426 0.56411 0.10959 0.0
C416 C 0.88777 0.55394 0.10183 0.0
C417 C 0.93461 0.52262 0.02407 0.0
C418 C 0.95706 0.53694 0.02677 0.0
C419 C 0.95789 0.51089 0.028 0.0
C420 C 0.94277 0.51007 0.02586 0.0
C421 C 0.96528 0.52434 0.02828 0.0
C422 C 0.94189 0.5361 0.02472 0.0
C423 C 0.91877 0.52125 1.0201 0.0
O424 O 0.87531 0.51369 0.03313 0.0
O425 O 0.87599 0.53332 1.01392 0.0
O426 O 0.912 0.53295 1.01412 0.0
O427 O 0.91115 0.51314 0.03304 0.0
H428 H 0.86567 0.4914 1.01551 0.0
H429 H 0.85589 0.47784 0.98729 0.0
H430 H 0.85124 0.51753 0.95247 0.0
H431 H 0.86123 0.53106 0.98057 0.0
H432 H 0.84886 0.56379 0.08473 0.0
H433 H 0.86537 0.55254 0.06088 0.0
H434 H 0.8824 0.56263 0.13047 0.0
H435 H 0.89864 0.55129 0.10674 0.0
H436 H 0.96236 0.54747 0.02715 0.0
H437 H 0.96383 0.50096 0.02881 0.0
H438 H 0.93747 0.49954 0.02518 0.0
H439 H 0.93593 0.546 0.02335 0.0
C440 C 0.77667 0.69461 0.2658 0.0
C441 C 0.76719 0.69936 0.28072 0.0
C442 C 0.77383 0.72447 0.27224 0.0
C443 C 0.76577 0.71415 0.28392 0.0
C444 C 0.78341 0.71956 0.25744 0.0
C445 C 0.78479 0.7048 0.25426 0.0
U446 U 0.76994 0.65429 0.2788 0.0
O447 O 0.76476 0.6364 0.25846 0.0
O448 O 0.78477 0.63616 0.27652 0.0
C449 C 0.77702 0.62989 0.26239 0.0
C450 C 0.77821 0.67913 0.26185 0.0
C451 C 0.78506 0.62457 0.24479 0.0
C452 C 0.80581 0.62539 0.22181 0.0
C453 C 0.79786 0.63143 0.23749 0.0
C454 C 0.78805 0.60582 0.22016 0.0
C455 C 0.80112 0.61237 0.21314 0.0
C456 C 0.78016 0.61184 0.2358 0.0
C457 C 0.74778 0.64354 0.32715 0.0
C458 C 0.73261 0.62231 0.33541 0.0
C459 C 0.74146 0.63748 0.36218 0.0
C460 C 0.74864 0.64644 0.34784 0.0
C461 C 0.73316 0.6254 0.35618 0.0
C462 C 0.73984 0.63129 0.32104 0.0
C463 C 0.7546 0.65394 0.31243 0.0
O464 O 0.78628 0.67187 0.27475 0.0
O465 O 0.76623 0.6721 0.25688 0.0
O466 O 0.7488 0.65479 0.29426 0.0
O467 O 0.76888 0.65454 0.31215 0.0
H468 H 0.76081 0.69164 0.2898 0.0
H469 H 0.75819 0.7175 0.2953 0.0
H470 H 0.78998 0.72712 0.2484 0.0
H471 H 0.79222 0.70135 0.24273 0.0
H472 H 0.81586 0.6307 0.21693 0.0
H473 H 0.80188 0.64129 0.24416 0.0
H474 H 0.78393 0.59596 0.21363 0.0
H475 H 0.77029 0.60638 0.24113 0.0
H476 H 0.72625 0.61318 0.33019 0.0
H477 H 0.7424 0.64007 0.37802 0.0
H478 H 0.75472 0.6558 0.35293 0.0
H479 H 0.739 0.62879 0.30516 0.0
C480 C 0.36224 0.51326 0.56662 0.0
C481 C 0.36961 0.50112 0.57401 0.0
C482 C 0.35072 0.49641 0.59952 0.0
C483 C 0.36388 0.49276 0.59026 0.0
C484 C 0.34355 0.50874 0.59225 0.0
C485 C 0.34924 0.51704 0.57598 0.0
U486 U 0.39254 0.52995 0.53232 0.0
O487 O 0.39345 0.53196 0.49901 0.0
O488 O 0.39381 0.55138 0.51724 0.0
C489 C 0.39335 0.54612 0.49897 0.0
C490 C 0.36755 0.52188 0.54885 0.0
C491 C 0.38342 0.55316 0.48443 0.0
C492 C 0.35982 0.56261 0.47502 0.0
C493 C 0.36872 0.55527 0.48893 0.0
C494 C 0.38017 0.56558 0.45194 0.0
C495 C 0.36549 0.56801 0.45642 0.0
C496 C 0.38901 0.55826 0.46579 0.0
C497 C 0.43299 0.52401 0.54596 0.0
C498 C 0.45508 0.52027 0.52655 0.0
C499 C 0.45667 0.53115 0.55936 0.0
C500 C 0.44155 0.53004 0.56131 0.0
C501 C 0.46367 0.52617 0.54204 0.0
C502 C 0.43991 0.51922 0.52846 0.0
C503 C 0.41709 0.52208 0.54923 0.0
O504 O 0.37423 0.53417 0.55272 0.0
O505 O 0.37388 0.51476 0.53448 0.0
O506 O 0.40983 0.51413 0.53631 0.0
O507 O 0.41008 0.53359 0.55446 0.0
H508 H 0.37971 0.49803 0.56713 0.0
H509 H 0.3698 0.48345 0.59562 0.0
H510 H 0.33333 0.5118 0.59882 0.0
H511 H 0.34336 0.52634 0.57049 0.0
H512 H 0.3486 0.56436 0.47903 0.0
H513 H 0.3642 0.55141 0.50327 0.0
H514 H 0.38486 0.56932 0.43765 0.0
H515 H 0.40031 0.55668 0.46199 0.0
H516 H 0.46008 0.51646 0.51291 0.0
H517 H 0.46292 0.53556 0.57173 0.0
H518 H 0.43653 0.53367 0.57504 0.0
H519 H 0.43365 0.51451 0.51633 0.0
C520 C 0.25917 0.6944 0.26915 0.0
C521 C 0.26768 0.6996 0.28512 0.0
C522 C 0.26189 0.72443 0.27536 0.0
C523 C 0.26904 0.71449 0.28819 0.0
C524 C 0.25341 0.71907 0.25938 0.0
C525 C 0.25207 0.70423 0.25634 0.0
U526 U 0.26686 0.65442 0.28136 0.0
O527 O 0.25205 0.63546 0.28026 0.0
O528 O 0.27116 0.63694 0.26042 0.0
C529 C 0.25925 0.62964 0.26549 0.0
C530 C 0.25758 0.67883 0.26545 0.0
C531 C 0.25046 0.62403 0.24864 0.0
C532 C 0.23492 0.62743 0.21914 0.0
C533 C 0.24318 0.6332 0.23499 0.0
C534 C 0.24117 0.60333 0.23045 0.0
C535 C 0.23377 0.61239 0.21671 0.0
C536 C 0.2494 0.60909 0.24621 0.0
C537 C 0.29182 0.64433 0.32656 0.0
C538 C 0.2925 0.62274 0.34841 0.0
C539 C 0.31383 0.63837 0.34511 0.0
C540 C 0.30631 0.64745 0.33174 0.0
C541 C 0.30702 0.62593 0.35373 0.0
C542 C 0.28499 0.63182 0.33491 0.0
C543 C 0.28405 0.65463 0.31316 0.0
O544 O 0.26932 0.67247 0.25922 0.0
O545 O 0.25029 0.67113 0.27919 0.0
O546 O 0.26979 0.65453 0.31441 0.0
O547 O 0.28885 0.65605 0.29446 0.0
H548 H 0.27324 0.69217 0.2952 0.0
H549 H 0.27553 0.71818 0.30077 0.0
H550 H 0.24794 0.72635 0.24897 0.0
H551 H 0.2455 0.70042 0.24387 0.0
H552 H 0.22928 0.63473 0.20897 0.0
H553 H 0.24387 0.64478 0.23663 0.0
H554 H 0.24078 0.59174 0.2289 0.0
H555 H 0.25499 0.60184 0.25653 0.0
H556 H 0.28698 0.61318 0.35459 0.0
H557 H 0.32491 0.6413 0.34905 0.0
H558 H 0.31178 0.65707 0.32562 0.0
H559 H 0.27382 0.6291 0.33115 0.0
C560 C 0.10588 0.52054 1.01826 0.0
C561 C 0.10012 0.53112 0.03055 0.0
C562 C 0.07543 0.5224 0.02334 0.0
C563 C 0.08502 0.53207 0.03303 0.0
C564 C 0.08135 0.51184 1.01106 0.0
C565 C 0.09639 0.51093 1.00857 0.0
U566 U 0.14616 0.52845 0.03141 0.0
O567 O 0.16453 0.51361 0.03141 0.0
O568 O 0.16469 0.53255 1.01083 0.0
C569 C 0.17119 0.52062 1.01642 0.0
C570 C 0.12167 0.51926 1.01514 0.0
C571 C 0.17665 0.51172 0.99997 0.0
C572 C 0.17336 0.49912 0.96836 0.0
C573 C 0.1677 0.50731 0.98397 0.0
C574 C 0.19689 0.49957 0.98472 0.0
C575 C 0.18806 0.49514 0.96853 0.0
C576 C 0.19124 0.50775 1.00023 0.0
C577 C 0.15588 0.55266 0.07654 0.0
C578 C 0.17893 0.55418 0.09455 0.0
C579 C 0.1605 0.5718 0.10035 0.0
C580 C 0.15139 0.56497 0.08643 0.0
C581 C 0.17436 0.56644 0.10476 0.0
C582 C 0.16979 0.54737 0.08055 0.0
C583 C 0.14562 0.5453 0.06282 0.0
O584 O 0.12874 0.53102 1.00887 0.0
O585 O 0.12866 0.51196 0.02922 0.0
O586 O 0.14497 0.53114 0.06434 0.0
O587 O 0.14535 0.55021 0.04398 0.0
H588 H 0.10728 0.53862 0.03822 0.0
H589 H 0.08087 0.54024 0.04273 0.0
H590 H 0.07434 0.50436 1.00311 0.0
H591 H 0.10061 0.50272 0.99897 0.0
H592 H 0.1662 0.49579 0.95627 0.0
H593 H 0.15637 0.51023 0.98352 0.0
H594 H 0.20829 0.49694 0.98524 0.0
H595 H 0.19834 0.51109 1.0124 0.0
H596 H 0.18959 0.54985 0.09737 0.0
H597 H 0.15652 0.58107 0.10807 0.0
H598 H 0.14068 0.5692 0.08362 0.0
H599 H 0.17353 0.53791 0.07302 0.0
C600 C 0.26209 0.36264 0.80032 0.0
C601 C 0.26437 0.35756 0.78076 0.0
C602 C 0.26538 0.33279 0.79417 0.0
C603 C 0.26595 0.34277 0.77771 0.0
C604 C 0.2632 0.338 0.81373 0.0
C605 C 0.26156 0.35275 0.81674 0.0
U606 U 0.26754 0.403 0.78649 0.0
O607 O 0.25237 0.42085 0.78909 0.0
O608 O 0.27274 0.42116 0.80633 0.0
C609 C 0.26023 0.42732 0.80293 0.0
C610 C 0.26014 0.37811 0.80402 0.0
C611 C 0.25249 0.43247 0.82094 0.0
C612 C 0.23146 0.43255 0.84342 0.0
C613 C 0.23883 0.42677 0.82701 0.0
C614 C 0.25138 0.4496 0.84817 0.0
C615 C 0.23762 0.44409 0.85418 0.0
C616 C 0.25868 0.44388 0.83175 0.0
C617 C 0.28933 0.41353 0.73783 0.0
C618 C 0.29611 0.43793 0.72636 0.0
C619 C 0.30286 0.41757 0.70651 0.0
C620 C 0.29608 0.40818 0.72067 0.0
C621 C 0.30306 0.43257 0.70918 0.0
C622 C 0.28932 0.42848 0.7406 0.0
C623 C 0.28264 0.40321 0.75264 0.0
O624 O 0.27197 0.38549 0.80869 0.0
O625 O 0.25171 0.38509 0.79125 0.0
O626 O 0.26837 0.40262 0.75317 0.0
O627 O 0.28859 0.40273 0.77072 0.0
H628 H 0.26492 0.36501 0.76787 0.0
H629 H 0.26778 0.33916 0.76249 0.0
H630 H 0.26252 0.33065 0.82672 0.0
H631 H 0.25979 0.35644 0.83195 0.0
H632 H 0.22097 0.42792 0.84776 0.0
H633 H 0.23379 0.41794 0.81899 0.0
H634 H 0.25638 0.45859 0.85587 0.0
H635 H 0.26914 0.44853 0.82729 0.0
H636 H 0.29613 0.44939 0.72899 0.0
H637 H 0.30785 0.41305 0.69333 0.0
H638 H 0.29615 0.39668 0.71824 0.0
H639 H 0.28418 0.43281 0.7538 0.0
H640 H 0.17586 0.06007 0.91589 0.0
H641 H 0.19339 0.08704 0.96268 0.0
H642 H 0.19041 0.0735 0.89065 0.0
H643 H 0.20799 0.10046 0.9374 0.0
H644 H 0.24141 0.11406 0.88876 0.0
H645 H 0.22834 0.09898 0.91394 0.0
H646 H 0.19103 0.09722 0.87439 0.0
H647 H 0.20423 0.11188 0.84902 0.0
C648 C 0.18278 0.0689 0.92081 0.0
C649 C 0.18334 0.07251 0.94136 0.0
C650 C 0.19114 0.07661 0.90631 0.0
C651 C 0.20032 0.08816 0.91192 0.0
C652 C 0.20117 0.09154 0.93254 0.0
C653 C 0.19279 0.08382 0.94706 0.0
C654 C 0.23049 0.11029 0.88532 0.0
C655 C 0.22388 0.11422 0.86683 0.0
C656 C 0.22293 0.10177 0.89987 0.0
C657 C 0.2086 0.09689 0.89626 0.0
C658 C 0.20209 0.10065 0.87764 0.0
C659 C 0.20961 0.1092 0.86315 0.0
H660 H 0.21357 0.95321 0.21394 0.0
H661 H 0.23935 0.93456 0.16716 0.0
H662 H 0.20235 0.96906 0.18858 0.0
H663 H 0.2278 0.94996 0.14182 0.0
H664 H 0.21559 0.98939 0.10406 0.0
H665 H 0.22697 0.97472 0.13038 0.0
H666 H 0.18546 0.96839 0.16017 0.0
H667 H 0.17412 0.98361 0.13417 0.0
C668 C 0.21689 0.95252 0.19828 0.0
C669 C 0.22737 0.94257 0.19264 0.0
C670 C 0.21033 0.96149 0.18368 0.0
C671 C 0.21413 0.96081 0.16309 0.0
C672 C 0.22469 0.95093 0.15753 0.0
C673 C 0.23121 0.94196 0.17207 0.0
C674 C 0.20888 0.98505 0.11634 0.0
C675 C 0.19391 0.98777 0.11695 0.0
C676 C 0.2154 0.97646 0.13134 0.0
C677 C 0.20715 0.97029 0.14742 0.0
C678 C 0.19219 0.97306 0.14814 0.0
C679 C 0.18565 0.98166 0.13308 0.0
H680 H 0.3113 0.93239 0.38567 0.0
H681 H 0.30863 0.97387 0.35481 0.0
H682 H 0.32474 0.94361 0.4132 0.0
H683 H 0.32149 0.98513 0.38263 0.0
H684 H 0.35581 0.99988 0.42716 0.0
H685 H 0.34476 0.98731 0.39888 0.0
H686 H 0.32073 0.95943 0.44094 0.0
H687 H 0.33222 0.97161 0.46918 0.0
C688 C 0.31362 0.94389 0.38469 0.0
C689 C 0.30878 0.95221 0.368 0.0
C690 C 0.3212 0.95035 0.40061 0.0
C691 C 0.32419 0.96531 0.40025 0.0
C692 C 0.31955 0.97358 0.3834 0.0
C693 C 0.31197 0.96712 0.36752 0.0
C694 C 0.34835 0.99092 0.4304 0.0
C695 C 0.34489 0.98683 0.45052 0.0
C696 C 0.34187 0.98381 0.41415 0.0
C697 C 0.33175 0.97238 0.41755 0.0
C698 C 0.32855 0.96808 0.43767 0.0
C699 C 0.33502 0.9752 0.45391 0.0
H700 H 0.3199 0.12604 0.6824 0.0
H701 H 0.30426 0.08445 0.70514 0.0
H702 H 0.33459 0.11416 0.65724 0.0
H703 H 0.31846 0.07266 0.6796 0.0
H704 H 0.35815 0.05569 0.64724 0.0
H705 H 0.34339 0.06785 0.67182 0.0
H706 H 0.3328 0.10027 0.62643 0.0
H707 H 0.34803 0.08834 0.60195 0.0
C708 C 0.31957 0.11437 0.68205 0.0
C709 C 0.31085 0.10623 0.69586 0.0
C710 C 0.32788 0.10756 0.66745 0.0
C711 C 0.32775 0.09243 0.66634 0.0
C712 C 0.31898 0.08432 0.68011 0.0
C713 C 0.31068 0.09111 0.69464 0.0
C714 C 0.35276 0.06547 0.6425 0.0
C715 C 0.35435 0.07103 0.62258 0.0
C716 C 0.34415 0.07237 0.65657 0.0
C717 C 0.33685 0.08506 0.65116 0.0
C718 C 0.33836 0.09061 0.63121 0.0
C719 C 0.34696 0.08366 0.61709 0.0
H720 H 0.81514 0.92514 0.17349 0.0
H721 H 0.81071 0.96159 0.21214 0.0
H722 H 0.82641 0.94078 0.14754 0.0
H723 H 0.822 0.9773 0.18606 0.0
H724 H 0.82837 1.00295 0.12573 0.0
H725 H 0.81757 0.98765 0.15256 0.0
H726 H 0.84845 0.95465 0.14031 0.0
H727 H 0.8589 0.96973 0.11298 0.0
C728 C 0.8167 0.93648 0.17657 0.0
C729 C 0.81205 0.94206 0.19502 0.0
C730 C 0.82319 0.94547 0.16164 0.0
C731 C 0.82521 0.96032 0.16468 0.0
C732 C 0.82048 0.96594 0.18308 0.0
C733 C 0.81399 0.95693 0.19805 0.0
C734 C 0.83282 0.99239 0.12866 0.0
C735 C 0.84448 0.98757 0.11705 0.0
C736 C 0.82671 0.98368 0.14424 0.0
C737 C 0.83208 0.96987 0.14861 0.0
C738 C 0.8439 0.96514 0.13722 0.0
C739 C 0.85002 0.97387 0.12167 0.0
H740 H 0.86531 0.06351 0.91548 0.0
H741 H 0.84421 0.08579 0.96351 0.0
H742 H 0.85088 0.07663 0.89051 0.0
H743 H 0.82973 0.09891 0.93848 0.0
H744 H 0.79741 0.1114 0.88856 0.0
H745 H 0.81049 0.09656 0.9133 0.0
H746 H 0.84924 0.1009 0.87658 0.0
H747 H 0.83607 0.11531 0.85163 0.0
C748 C 0.85763 0.07125 0.92074 0.0
C749 C 0.85603 0.07364 0.94156 0.0
C750 C 0.84934 0.07878 0.90639 0.0
C751 C 0.83919 0.08893 0.91242 0.0
C752 C 0.83732 0.09107 0.93327 0.0
C753 C 0.84563 0.08353 0.94765 0.0
C754 C 0.80866 0.10902 0.88564 0.0
C755 C 0.81568 0.11459 0.86808 0.0
C756 C 0.81622 0.10064 0.89995 0.0
C757 C 0.83095 0.09753 0.897 0.0
C758 C 0.83788 0.10293 0.87929 0.0
C759 C 0.83036 0.11134 0.86506 0.0
H760 H 0.686 0.05202 0.63981 0.0
H761 H 0.68396 0.09275 0.60688 0.0
H762 H 0.70026 0.06352 0.66621 0.0
H763 H 0.69784 0.10437 0.63364 0.0
H764 H 0.73568 0.11684 0.6763 0.0
H765 H 0.72193 0.10568 0.64902 0.0
H766 H 0.69695 0.08043 0.69312 0.0
H767 H 0.71061 0.09159 0.72033 0.0
C768 C 0.68867 0.06341 0.63811 0.0
C769 C 0.6838 0.07143 0.62116 0.0
C770 C 0.6967 0.07006 0.65341 0.0
C771 C 0.70015 0.08492 0.65218 0.0
C772 C 0.69549 0.0929 0.63506 0.0
C773 C 0.68739 0.08626 0.6198 0.0
C774 C 0.72714 0.10904 0.6802 0.0
C775 C 0.72435 0.10509 0.70058 0.0
C776 C 0.71926 0.10261 0.66453 0.0
C777 C 0.70838 0.09205 0.66881 0.0
C778 C 0.70545 0.08828 0.6892 0.0
C779 C 0.7133 0.09471 0.70484 0.0
H780 H 0.74096 0.94215 0.39146 0.0
H781 H 0.71025 0.95979 0.34861 0.0
H782 H 0.72853 0.95398 0.41888 0.0
H783 H 0.69789 0.97164 0.37598 0.0
H784 H 0.69103 1.00467 0.42544 0.0
H785 H 0.70232 0.99151 0.39841 0.0
H786 H 0.70608 0.9543 0.43858 0.0
H787 H 0.69516 0.96765 0.46586 0.0
C788 C 0.73144 0.94837 0.38789 0.0
C789 C 0.7267 0.95007 0.36773 0.0
C790 C 0.72431 0.95518 0.40365 0.0
C791 C 0.71225 0.96388 0.39967 0.0
C792 C 0.70731 0.96527 0.37958 0.0
C793 C 0.71441 0.95846 0.36386 0.0
C794 C 0.69432 0.9937 0.42856 0.0
C795 C 0.69221 0.98726 0.44789 0.0
C796 C 0.70066 0.98608 0.41297 0.0
C797 C 0.70512 0.9718 0.41625 0.0
C798 C 0.70291 0.96531 0.43554 0.0
C799 C 0.69649 0.97292 0.45113 0.0
H800 H 0.71809 0.63449 0.38907 0.0
H801 H 0.72919 0.59587 0.35802 0.0
H802 H 0.70464 0.62001 0.41425 0.0
H803 H 0.71563 0.58133 0.3833 0.0
H804 H 0.67669 0.5622 0.42048 0.0
H805 H 0.69107 0.57587 0.39521 0.0
H806 H 0.7082 0.60306 0.44201 0.0
H807 H 0.69383 0.58943 0.46724 0.0
C808 C 0.71782 0.62289 0.38771 0.0
C809 C 0.72484 0.61638 0.37151 0.0
C810 C 0.71007 0.61455 0.4022 0.0
C811 C 0.70908 0.59946 0.40094 0.0
C812 C 0.71601 0.59293 0.38466 0.0
C813 C 0.72379 0.60128 0.37014 0.0
C814 C 0.68367 0.57098 0.42543 0.0
C815 C 0.68402 0.57473 0.44594 0.0
C816 C 0.69192 0.57883 0.41091 0.0
C817 C 0.70075 0.59065 0.41649 0.0
C818 C 0.70132 0.59422 0.43706 0.0
C819 C 0.69307 0.58638 0.45156 0.0
H820 H 0.71596 0.49345 0.6117 0.0
H821 H 0.674 0.47618 0.63063 0.0
H822 H 0.7276 0.47897 0.638 0.0
H823 H 0.68575 0.46119 0.65648 0.0
H824 H 0.71058 0.44672 0.71356 0.0
H825 H 0.69883 0.46233 0.68843 0.0
H826 H 0.73302 0.45421 0.64573 0.0
H827 H 0.74499 0.43907 0.67102 0.0
C828 C 0.70918 0.48662 0.62152 0.0
C829 C 0.694 0.48606 0.619 0.0
C830 C 0.7159 0.47815 0.63648 0.0
C831 C 0.70765 0.46884 0.64937 0.0
C832 C 0.69245 0.46833 0.64697 0.0
C833 C 0.68572 0.47681 0.63197 0.0
C834 C 0.71568 0.44841 0.69889 0.0
C835 C 0.72875 0.4416 0.69435 0.0
C836 C 0.70884 0.45723 0.68438 0.0
C837 C 0.71493 0.45954 0.66498 0.0
C838 C 0.72807 0.45283 0.66054 0.0
C839 C 0.73487 0.444 0.675 0.0
H840 H 0.85719 0.50064 0.92665 0.0
H841 H 0.83304 0.47387 0.96993 0.0
H842 H 0.84563 0.48783 0.899 0.0
H843 H 0.82147 0.46106 0.94227 0.0
H844 H 0.81357 0.43239 0.88739 0.0
H845 H 0.82583 0.4445 0.9152 0.0
H846 H 0.82219 0.48534 0.88293 0.0
H847 H 0.80993 0.47331 0.85526 0.0
C848 C 0.84936 0.49207 0.93029 0.0
C849 C 0.84605 0.48835 0.95059 0.0
C850 C 0.84271 0.48472 0.91441 0.0
C851 C 0.83254 0.47342 0.91834 0.0
C852 C 0.82938 0.46956 0.93863 0.0
C853 C 0.83603 0.47692 0.95453 0.0
C854 C 0.81529 0.44397 0.88628 0.0
C855 C 0.81079 0.45182 0.86896 0.0
C856 C 0.82234 0.45092 0.90225 0.0
C857 C 0.82509 0.46592 0.90133 0.0
C858 C 0.82054 0.47375 0.88405 0.0
C859 C 0.81349 0.46682 0.86812 0.0
H860 H 0.8607 0.55754 0.15 0.0
H861 H 0.84549 0.58635 0.10259 0.0
H862 H 0.84556 0.56938 0.17442 0.0
H863 H 0.82987 0.59791 0.12698 0.0
H864 H 0.81627 0.62517 0.18119 0.0
H865 H 0.83118 0.61355 0.15604 0.0
H866 H 0.82058 0.57198 0.18382 0.0
H867 H 0.8062 0.58359 0.20933 0.0
C868 C 0.85411 0.5664 0.14475 0.0
C869 C 0.8544 0.57101 0.12428 0.0
C870 C 0.84528 0.57311 0.15875 0.0
C871 C 0.83644 0.58462 0.15273 0.0
C872 C 0.83663 0.58918 0.13223 0.0
C873 C 0.84547 0.58243 0.11818 0.0
C874 C 0.8172 0.61356 0.18202 0.0
C875 C 0.80999 0.60535 0.19735 0.0
C876 C 0.82563 0.60687 0.16744 0.0
C877 C 0.82713 0.5918 0.16785 0.0
C878 C 0.81984 0.58361 0.18312 0.0
C879 C 0.81142 0.59028 0.19764 0.0
H880 H 0.33748 0.50515 0.63423 0.0
H881 H 0.34926 0.4669 0.60286 0.0
H882 H 0.32637 0.49016 0.6612 0.0
H883 H 0.33808 0.45192 0.62968 0.0
H884 H 0.32906 0.4288 0.69005 0.0
H885 H 0.34085 0.44431 0.66437 0.0
H886 H 0.3058 0.47428 0.66815 0.0
H887 H 0.29403 0.45875 0.694 0.0
C888 C 0.33763 0.49354 0.63302 0.0
C889 C 0.3443 0.48726 0.61634 0.0
C890 C 0.33123 0.48493 0.64849 0.0
C891 C 0.33129 0.46979 0.64769 0.0
C892 C 0.33802 0.46352 0.63105 0.0
C893 C 0.34445 0.47213 0.61562 0.0
C894 C 0.32381 0.43866 0.68535 0.0
C895 C 0.31052 0.44245 0.69405 0.0
C896 C 0.33058 0.44757 0.67056 0.0
C897 C 0.32427 0.46055 0.66401 0.0
C898 C 0.31109 0.46447 0.67296 0.0
C899 C 0.30433 0.45556 0.6878 0.0
H900 H 0.33528 0.61746 0.35157 0.0
H901 H 0.297 0.6131 0.38921 0.0
H902 H 0.34885 0.60326 0.37628 0.0
H903 H 0.31063 0.59893 0.41409 0.0
H904 H 0.33699 0.56282 0.44555 0.0
H905 H 0.32252 0.57619 0.42068 0.0
H906 H 0.35885 0.60562 0.40956 0.0
H907 H 0.37325 0.5923 0.43422 0.0
C908 C 0.32976 0.61354 0.36518 0.0
C909 C 0.31505 0.61654 0.36842 0.0
C910 C 0.33757 0.60539 0.3794 0.0
C911 C 0.33091 0.60003 0.39734 0.0
C912 C 0.3161 0.60275 0.40039 0.0
C913 C 0.30827 0.61088 0.3861 0.0
C914 C 0.34184 0.57222 0.4379 0.0
C915 C 0.35635 0.57638 0.44179 0.0
C916 C 0.33354 0.57989 0.42363 0.0
C917 C 0.33953 0.59193 0.4129 0.0
C918 C 0.35395 0.59622 0.41711 0.0
C919 C 0.36223 0.58856 0.43132 0.0
H920 H 0.21606 0.5882 0.21833 0.0
H921 H 0.23135 0.62219 0.17718 0.0
H922 H 0.20229 0.57733 0.19101 0.0
H923 H 0.21749 0.6113 0.14978 0.0
H924 H 0.17867 0.59534 0.11136 0.0
H925 H 0.19282 0.60659 0.13813 0.0
H926 H 0.20584 0.56457 0.16001 0.0
H927 H 0.19129 0.5533 0.1337 0.0
C928 C 0.21659 0.59331 0.20341 0.0
C929 C 0.22492 0.60606 0.2 0.0
C930 C 0.20868 0.58705 0.1877 0.0
C931 C 0.20883 0.59335 0.16809 0.0
C932 C 0.21699 0.60621 0.16471 0.0
C933 C 0.22493 0.61248 0.18045 0.0
C934 C 0.18449 0.58849 0.12194 0.0
C935 C 0.18376 0.57338 0.12037 0.0
C936 C 0.19274 0.59496 0.13718 0.0
C937 C 0.20045 0.58651 0.15134 0.0
C938 C 0.1999 0.57142 0.14957 0.0
C939 C 0.19168 0.56495 0.13429 0.0
H940 H 0.18288 0.49772 0.92759 0.0
H941 H 0.20745 0.47317 0.97161 0.0
H942 H 0.19421 0.4847 0.90035 0.0
H943 H 0.21876 0.46019 0.94443 0.0
H944 H 0.24879 0.45298 0.89035 0.0
H945 H 0.23629 0.46472 0.91766 0.0
H946 H 0.19591 0.46132 0.88467 0.0
H947 H 0.20856 0.44997 0.85698 0.0
C948 C 0.19055 0.48942 0.9315 0.0
C949 C 0.1943 0.4866 0.95186 0.0
C950 C 0.19706 0.48194 0.91585 0.0
C951 C 0.2075 0.47144 0.92013 0.0
C952 C 0.211 0.4684 0.94051 0.0
C953 C 0.20449 0.47586 0.95613 0.0
C954 C 0.23726 0.45479 0.88885 0.0
C955 C 0.22972 0.45056 0.87137 0.0
C956 C 0.23003 0.46139 0.90464 0.0
C957 C 0.21505 0.46399 0.90344 0.0
C958 C 0.20747 0.45963 0.88606 0.0
C959 C 0.2147 0.45296 0.87027 0.0
H960 H 0.98059 1.01664 1.01561 0.0
H961 H 0.98261 0.03826 0.07265 0.0
H962 H 1.00709 1.01747 1.01366 0.0
H963 H 1.00902 0.03856 0.07113 0.0
H964 H 0.05605 0.0485 0.0548 0.0
H965 H 0.0296 0.04926 0.05382 0.0
H966 H 0.02785 1.0065 0.02954 0.0
H967 H 0.05431 1.0058 0.03038 0.0
C968 C 0.98667 0.02165 0.02767 0.0
C969 C 0.97941 0.02734 0.04432 0.0
C970 C 1.00189 0.02197 0.02668 0.0
C971 C 1.01027 0.02803 0.04227 0.0
C972 C 1.00298 0.03394 0.05872 0.0
C973 C 0.98779 0.0336 0.05972 0.0
C974 C 0.05002 0.03924 0.04928 0.0
C975 C 0.05735 0.02706 0.04276 0.0
C976 C 0.03483 0.03967 0.04874 0.0
C977 C 0.02651 0.02791 0.04172 0.0
C978 C 0.03386 1.01584 0.03479 0.0
C979 C 0.04907 1.01544 0.03528 0.0
H980 H 0.28614 0.74023 0.28636 0.0
H981 H 0.24079 0.74475 0.27135 0.0
H982 H 0.28843 0.76617 0.29086 0.0
H983 H 0.24322 0.77073 0.27493 0.0
H984 H 0.24879 0.81513 0.30266 0.0
H985 H 0.2464 0.78909 0.29932 0.0
H986 H 0.28899 0.78856 0.27188 0.0
H987 H 0.29141 0.81459 0.27545 0.0
C988 C 0.27663 0.74673 0.28408 0.0
C989 C 0.26328 0.74032 0.27845 0.0
C990 C 0.27799 0.76167 0.2864 0.0
C991 C 0.26603 0.77064 0.28318 0.0
C992 C 0.25265 0.76421 0.27774 0.0
C993 C 0.2513 0.74928 0.27543 0.0
C994 C 0.25759 0.80948 0.29575 0.0
C995 C 0.27029 0.817 0.28934 0.0
C996 C 0.25623 0.79451 0.29382 0.0
C997 C 0.26751 0.78663 0.28534 0.0
C998 C 0.28018 0.79418 0.27883 0.0
C999 C 0.28156 0.80914 0.28083 0.0
H1000 H 0.48294 0.04007 0.50368 0.0
H1001 H 0.48149 1.0081 0.55238 0.0
H1002 H 0.50943 0.0402 0.50459 0.0
H1003 H 0.50796 1.00829 0.55341 0.0
H1004 H 0.55426 0.99929 0.53225 0.0
H1005 H 0.52791 1.00044 0.53354 0.0
H1006 H 0.5308 0.04664 0.52382 0.0
H1007 H 0.55723 0.04539 0.52171 0.0
C1008 C 0.48826 0.03323 0.5148 0.0
C1009 C 0.48003 0.02402 0.52788 0.0
C1010 C 0.50349 0.03331 0.51534 0.0
C1011 C 0.51091 0.0242 0.529 0.0
C1012 C 0.50266 1.01525 0.54241 0.0
C1013 C 0.48745 1.01515 0.54184 0.0
C1014 C 0.5493 1.0097 0.53028 0.0
C1015 C 0.55793 0.02223 0.52673 0.0
C1016 C 0.53415 1.01039 0.53127 0.0
C1017 C 0.52714 0.02364 0.52878 0.0
C1018 C 0.53578 0.03622 0.52558 0.0
C1019 C 0.55097 0.03553 0.52461 0.0
H1020 H 0.25363 0.31635 0.76406 0.0
H1021 H 0.28075 0.31344 0.81726 0.0
H1022 H 0.25603 0.2905 0.75929 0.0
H1023 H 0.28283 0.28757 0.81282 0.0
H1024 H 0.29612 0.24469 0.78594 0.0
H1025 H 0.29389 0.27056 0.79029 0.0
H1026 H 0.24837 0.2673 0.7749 0.0
H1027 H 0.25069 0.24146 0.76999 0.0
C1028 C 0.26015 0.31022 0.7747 0.0
C1029 C 0.26699 0.31702 0.79105 0.0
C1030 C 0.26139 0.29535 0.7721 0.0
C1031 C 0.2696 0.2869 0.78569 0.0
C1032 C 0.27653 0.29373 0.80195 0.0
C1033 C 0.27521 0.30857 0.80462 0.0
C1034 C 0.28565 0.24949 0.78335 0.0
C1035 C 0.27359 0.24095 0.77757 0.0
C1036 C 0.28433 0.26433 0.78605 0.0
C1037 C 0.27095 0.27106 0.78294 0.0
C1038 C 0.25888 0.26252 0.77721 0.0
C1039 C 0.26017 0.24766 0.77463 0.0
H1040 H 0.75026 0.31413 0.79707 0.0
H1041 H 0.79539 0.31322 0.77943 0.0
H1042 H 0.74805 0.28812 0.79262 0.0
H1043 H 0.79329 0.2872 0.77553 0.0
H1044 H 0.78004 0.24339 0.74972 0.0
H1045 H 0.78196 0.26942 0.75369 0.0
H1046 H 0.7562 0.26545 0.80828 0.0
H1047 H 0.75394 0.23943 0.804 0.0
C1048 C 0.75969 0.3084 0.79216 0.0
C1049 C 0.773 0.31581 0.78862 0.0
C1050 C 0.75847 0.29345 0.78984 0.0
C1051 C 0.7705 0.28552 0.78377 0.0
C1052 C 0.78376 0.29295 0.78005 0.0
C1053 C 0.78501 0.30787 0.78249 0.0
C1054 C 0.7747 0.24807 0.76251 0.0
C1055 C 0.76681 0.23928 0.77651 0.0
C1056 C 0.77592 0.263 0.7649 0.0
C1057 C 0.76923 0.26958 0.78131 0.0
C1058 C 0.76137 0.26079 0.79535 0.0
C1059 C 0.76021 0.24583 0.79302 0.0
H1060 H 0.78018 0.81234 0.31647 0.0
H1061 H 0.75353 0.81617 0.26292 0.0
H1062 H 0.78205 0.78653 0.31143 0.0
H1063 H 0.75526 0.79033 0.25796 0.0
H1064 H 0.77345 0.74638 0.24347 0.0
H1065 H 0.77176 0.77217 0.24852 0.0
H1066 H 0.76832 0.76426 0.3131 0.0
H1067 H 0.7707 0.73849 0.3081 0.0
C1068 C 0.77461 0.80766 0.3037 0.0
C1069 C 0.76671 0.81638 0.2901 0.0
C1070 C 0.77566 0.79282 0.30082 0.0
C1071 C 0.76879 0.78625 0.28429 0.0
C1072 C 0.7609 0.795 0.27067 0.0
C1073 C 0.7599 0.80985 0.27352 0.0
C1074 C 0.77249 0.75013 0.25879 0.0
C1075 C 0.77229 0.74028 0.27538 0.0
C1076 C 0.77133 0.76495 0.26167 0.0
C1077 C 0.76989 0.77039 0.28123 0.0
C1078 C 0.76959 0.76053 0.29782 0.0
C1079 C 0.77076 0.74569 0.29494 0.0
H1080 H 0.48173 0.50556 0.52788 0.0
H1081 H 0.48237 0.54807 0.5529 0.0
H1082 H 0.50823 0.50589 0.52748 0.0
H1083 H 0.50885 0.54846 0.55239 0.0
H1084 H 0.55486 0.53647 0.57225 0.0
H1085 H 0.52851 0.53724 0.57006 0.0
H1086 H 0.52988 0.5167 0.5122 0.0
H1087 H 0.55629 0.51543 0.5148 0.0
C1088 C 0.48751 0.51508 0.53301 0.0
C1089 C 0.47987 0.52676 0.54054 0.0
C1090 C 0.50274 0.51528 0.53277 0.0
C1091 C 0.51075 0.52717 0.54002 0.0
C1092 C 0.50309 0.539 0.54706 0.0
C1093 C 0.48788 0.53878 0.54734 0.0
C1094 C 0.54956 0.53204 0.55909 0.0
C1095 C 0.55775 0.52579 0.54377 0.0
C1096 C 0.53442 0.53264 0.55771 0.0
C1097 C 0.52699 0.52703 0.54095 0.0
C1098 C 0.53519 0.52099 0.52544 0.0
C1099 C 0.55037 0.52041 0.52681 0.0
H1100 H 0.98325 0.50766 0.05178 0.0
H1101 H 0.98411 0.54266 1.00735 0.0
H1102 H 1.00972 0.50778 0.05205 0.0
H1103 H 1.01062 0.54274 1.00754 0.0
H1104 H 0.05873 0.54659 0.02421 0.0
H1105 H 0.03232 0.54778 0.02712 0.0
H1106 H 0.02926 0.50125 0.03027 0.0
H1107 H 0.05559 0.5001 0.02814 0.0
C1108 C 0.98908 0.51537 0.04202 0.0
C1109 C 0.98149 0.52509 0.02946 0.0
C1110 C 1.00429 0.51543 0.04216 0.0
C1111 C 1.01238 0.5252 0.0297 0.0
C1112 C 1.0048 0.53518 1.01752 0.0
C1113 C 0.98956 0.53513 1.01741 0.0
C1114 C 0.05243 0.53662 0.02581 0.0
C1115 C 0.05933 0.52324 0.02586 0.0
C1116 C 0.03726 0.5373 0.02725 0.0
C1117 C 0.02859 0.52461 0.02888 0.0
C1118 C 0.03554 0.51126 0.02926 0.0
C1119 C 0.05067 0.51059 0.02778 0.0
loop_
_geom_bond_atom_site_label_1
_geom_bond_atom_site_label_2
_geom_bond_distance
_geom_bond_site_symmetry_2
_ccdc_geom_bond_type
C0 C1 1.264 . S
C0 C5 1.483 1_545 S
C0 C10 1.465 . S
C1 C0 1.264 . S
C1 C3 1.341 . S
C1 H28 0.931 1_554 S
C2 C3 1.405 . S
C2 C4 1.320 1_545 S
C3 C1 1.341 . S
C3 C2 1.405 . S
C3 H29 0.916 1_554 S
C4 C2 1.320 1_565 S
C4 C5 1.404 . S
C4 H30 0.930 . S
C5 C0 1.483 1_565 S
C5 C4 1.404 . S
C5 H31 0.928 . S
U6 O7 2.454 1_545 S
U6 O8 2.458 1_545 S
U6 C9 2.984 1_545 S
U6 C10 2.847 . S
U6 C23 2.882 1_554 S
U6 O24 2.441 . S
U6 O25 2.420 . S
U6 O26 2.455 . S
U6 O27 2.449 1_554 S
O7 U6 2.454 1_565 S
O7 C9 1.353 . S
O8 U6 2.458 1_565 S
O8 C9 1.286 . S
C9 U6 2.984 1_565 S
C9 O7 1.353 . S
C9 O8 1.286 . S
C9 C11 1.363 . S
C10 C0 1.465 . S
C10 U6 2.847 . S
C10 O24 1.249 . S
C10 O25 1.202 . S
C11 C9 1.363 . S
C11 C13 1.408 . S
C11 C16 1.342 . S
C12 C13 1.310 . S
C12 C15 1.461 . S
C12 H32 0.932 . S
C13 C11 1.408 . S
C13 C12 1.310 . S
C13 H33 0.930 . S
C14 C15 1.474 . S
C14 C16 1.285 . S
C14 H34 0.929 . S
C15 C12 1.461 . S
C15 C14 1.474 . S
C16 C11 1.342 . S
C16 C14 1.285 . S
C16 H35 0.930 . S
C17 C20 1.424 . S
C17 C22 1.245 . S
C17 C23 1.428 . S
C18 C21 1.260 . S
C18 C22 1.477 . S
C18 H36 0.932 . S
C19 C20 1.384 . S
C19 C21 1.479 . S
C19 H37 0.929 . S
C20 C17 1.424 . S
C20 C19 1.384 . S
C20 H38 0.928 . S
C21 C18 1.260 . S
C21 C19 1.479 . S
C22 C17 1.245 . S
C22 C18 1.477 . S
C22 H39 0.932 . S
C23 U6 2.882 1_556 S
C23 C17 1.428 . S
C23 O26 1.301 1_556 S
C23 O27 1.282 . S
O24 U6 2.441 . S
O24 C10 1.249 . S
O25 U6 2.420 . S
O25 C10 1.202 . S
O26 U6 2.455 . S
O26 C23 1.301 1_554 S
O27 U6 2.449 1_556 S
O27 C23 1.282 . S
H28 C1 0.931 1_556 S
H29 C3 0.916 1_556 S
H30 C4 0.930 . S
H31 C5 0.928 . S
H32 C12 0.932 . S
H33 C13 0.930 . S
H34 C14 0.929 . S
H35 C16 0.930 . S
H36 C18 0.932 . S
H37 C19 0.929 . S
H38 C20 0.928 . S
H39 C22 0.932 . S
C40 C41 1.264 . S
C40 C45 1.479 . S
C40 C50 1.465 . S
C41 C40 1.264 . S
C41 C43 1.339 . S
C41 H68 0.931 . S
C42 C43 1.395 . S
C42 C44 1.320 . S
C43 C41 1.339 . S
C43 C42 1.395 . S
C43 H69 0.929 . S
C44 C42 1.320 . S
C44 C45 1.405 . S
C44 H70 0.930 . S
C45 C40 1.479 . S
C45 C44 1.405 . S
C45 H71 0.931 . S
U46 O47 2.454 . S
U46 O48 2.458 . S
U46 C49 2.984 . S
U46 C50 2.847 . S
U46 C63 2.882 . S
U46 O64 2.441 . S
U46 O65 2.420 . S
U46 O66 2.455 . S
U46 O67 2.449 . S
O47 U46 2.454 . S
O47 C49 1.353 . S
O48 U46 2.458 . S
O48 C49 1.286 . S
C49 U46 2.984 . S
C49 O47 1.353 . S
C49 O48 1.286 . S
C49 C51 1.363 . S
C50 C40 1.465 . S
C50 U46 2.847 . S
C50 O64 1.249 . S
C50 O65 1.202 . S
C51 C49 1.363 . S
C51 C53 1.408 . S
C51 C56 1.342 . S
C52 C53 1.310 . S
C52 C55 1.461 . S
C52 H72 0.932 . S
C53 C51 1.408 . S
C53 C52 1.310 . S
C53 H73 0.930 . S
C54 C55 1.474 . S
C54 C56 1.285 . S
C54 H74 0.929 . S
C55 C52 1.461 . S
C55 C54 1.474 . S
C56 C51 1.342 . S
C56 C54 1.285 . S
C56 H75 0.930 . S
C57 C60 1.424 . S
C57 C62 1.245 . S
C57 C63 1.428 . S
C58 C61 1.260 . S
C58 C62 1.477 . S
C58 H76 0.932 . S
C59 C60 1.384 . S
C59 C61 1.479 . S
C59 H77 0.929 . S
C60 C57 1.424 . S
C60 C59 1.384 . S
C60 H78 0.928 . S
C61 C58 1.260 . S
C61 C59 1.479 . S
C62 C57 1.245 . S
C62 C58 1.477 . S
C62 H79 0.932 . S
C63 U46 2.882 . S
C63 C57 1.428 . S
C63 O66 1.301 . S
C63 O67 1.282 . S
O64 U46 2.441 . S
O64 C50 1.249 . S
O65 U46 2.420 . S
O65 C50 1.202 . S
O66 U46 2.455 . S
O66 C63 1.301 . S
O67 U46 2.449 . S
O67 C63 1.282 . S
H68 C41 0.931 . S
H69 C43 0.929 . S
H70 C44 0.930 . S
H71 C45 0.931 . S
H72 C52 0.932 . S
H73 C53 0.930 . S
H74 C54 0.929 . S
H75 C56 0.930 . S
H76 C58 0.932 . S
H77 C59 0.929 . S
H78 C60 0.928 . S
H79 C62 0.932 . S
C80 C81 1.264 . S
C80 C85 1.479 . S
C80 C90 1.465 1_565 S
C81 C80 1.264 . S
C81 C83 1.339 . S
C81 H108 0.931 . S
C82 C83 1.395 . S
C82 C84 1.320 . S
C83 C81 1.339 . S
C83 C82 1.395 . S
C83 H109 0.929 . S
C84 C82 1.320 . S
C84 C85 1.405 . S
C84 H110 0.930 . S
C85 C80 1.479 . S
C85 C84 1.405 . S
C85 H111 0.931 . S
U86 O87 2.454 . S
U86 O88 2.458 . S
U86 C89 2.984 . S
U86 C90 2.847 . S
U86 C103 2.882 . S
U86 O104 2.441 . S
U86 O105 2.420 . S
U86 O106 2.455 . S
U86 O107 2.449 . S
O87 U86 2.454 . S
O87 C89 1.353 . S
O88 U86 2.458 . S
O88 C89 1.286 . S
C89 U86 2.984 . S
C89 O87 1.353 . S
C89 O88 1.286 . S
C89 C91 1.363 . S
C90 C80 1.465 1_545 S
C90 U86 2.847 . S
C90 O104 1.249 . S
C90 O105 1.202 . S
C91 C89 1.363 . S
C91 C93 1.408 . S
C91 C96 1.342 . S
C92 C93 1.310 . S
C92 C95 1.461 . S
C92 H112 0.932 . S
C93 C91 1.408 . S
C93 C92 1.310 . S
C93 H113 0.930 . S
C94 C95 1.474 . S
C94 C96 1.285 . S
C94 H114 0.929 . S
C95 C92 1.461 . S
C95 C94 1.474 . S
C96 C91 1.342 . S
C96 C94 1.285 . S
C96 H115 0.930 . S
C97 C100 1.424 . S
C97 C102 1.245 . S
C97 C103 1.428 . S
C98 C101 1.260 . S
C98 C102 1.477 . S
C98 H116 0.932 . S
C99 C100 1.384 . S
C99 C101 1.479 . S
C99 H117 0.929 . S
C100 C97 1.424 . S
C100 C99 1.384 . S
C100 H118 0.928 . S
C101 C98 1.260 . S
C101 C99 1.479 . S
C102 C97 1.245 . S
C102 C98 1.477 . S
C102 H119 0.932 . S
C103 U86 2.882 . S
C103 C97 1.428 . S
C103 O106 1.301 . S
C103 O107 1.282 . S
O104 U86 2.441 . S
O104 C90 1.249 . S
O105 U86 2.420 . S
O105 C90 1.202 . S
O106 U86 2.455 . S
O106 C103 1.301 . S
O107 U86 2.449 . S
O107 C103 1.282 . S
H108 C81 0.931 . S
H109 C83 0.929 . S
H110 C84 0.930 . S
H111 C85 0.931 . S
H112 C92 0.932 . S
H113 C93 0.930 . S
H114 C94 0.929 . S
H115 C96 0.930 . S
H116 C98 0.932 . S
H117 C99 0.929 . S
H118 C100 0.928 . S
H119 C102 0.932 . S
C120 C121 1.264 . S
C120 C125 1.479 . S
C120 C130 1.465 . S
C121 C120 1.264 . S
C121 C123 1.339 . S
C121 H148 0.931 . S
C122 C123 1.395 . S
C122 C124 1.320 . S
C123 C121 1.339 . S
C123 C122 1.395 . S
C123 H149 0.929 . S
C124 C122 1.320 . S
C124 C125 1.405 . S
C124 H150 0.930 . S
C125 C120 1.479 . S
C125 C124 1.405 . S
C125 H151 0.931 . S
U126 O127 2.454 . S
U126 O128 2.458 . S
U126 C129 2.984 . S
U126 C130 2.847 . S
U126 C143 2.882 . S
U126 O144 2.441 . S
U126 O145 2.420 . S
U126 O146 2.455 . S
U126 O147 2.449 . S
O127 U126 2.454 . S
O127 C129 1.353 . S
O128 U126 2.458 . S
O128 C129 1.286 . S
C129 U126 2.984 . S
C129 O127 1.353 . S
C129 O128 1.286 . S
C129 C131 1.363 . S
C130 C120 1.465 . S
C130 U126 2.847 . S
C130 O144 1.249 . S
C130 O145 1.202 . S
C131 C129 1.363 . S
C131 C133 1.408 . S
C131 C136 1.342 . S
C132 C133 1.310 . S
C132 C135 1.461 . S
C132 H152 0.932 . S
C133 C131 1.408 . S
C133 C132 1.310 . S
C133 H153 0.930 . S
C134 C135 1.474 . S
C134 C136 1.285 . S
C134 H154 0.929 . S
C135 C132 1.461 . S
C135 C134 1.474 . S
C136 C131 1.342 . S
C136 C134 1.285 . S
C136 H155 0.930 . S
C137 C140 1.424 . S
C137 C142 1.245 . S
C137 C143 1.428 . S
C138 C141 1.260 . S
C138 C142 1.477 . S
C138 H156 0.932 . S
C139 C140 1.384 . S
C139 C141 1.479 . S
C139 H157 0.929 . S
C140 C137 1.424 . S
C140 C139 1.384 . S
C140 H158 0.928 . S
C141 C138 1.260 . S
C141 C139 1.479 . S
C142 C137 1.245 . S
C142 C138 1.477 . S
C142 H159 0.932 . S
C143 U126 2.882 . S
C143 C137 1.428 . S
C143 O146 1.301 . S
C143 O147 1.282 . S
O144 U126 2.441 . S
O144 C130 1.249 . S
O145 U126 2.420 . S
O145 C130 1.202 . S
O146 U126 2.455 . S
O146 C143 1.301 . S
O147 U126 2.449 . S
O147 C143 1.282 . S
H148 C121 0.931 . S
H149 C123 0.929 . S
H150 C124 0.930 . S
H151 C125 0.931 . S
H152 C132 0.932 . S
H153 C133 0.930 . S
H154 C134 0.929 . S
H155 C136 0.930 . S
H156 C138 0.932 . S
H157 C139 0.929 . S
H158 C140 0.928 . S
H159 C142 0.932 . S
C160 C161 1.264 . S
C160 C165 1.479 . S
C160 C170 1.465 . S
C161 C160 1.264 . S
C161 C163 1.339 . S
C161 H188 0.931 . S
C162 C163 1.395 . S
C162 C164 1.320 . S
C163 C161 1.339 . S
C163 C162 1.395 . S
C163 H189 0.929 . S
C164 C162 1.320 . S
C164 C165 1.405 . S
C164 H190 0.930 . S
C165 C160 1.479 . S
C165 C164 1.405 . S
C165 H191 0.931 . S
U166 O167 2.454 1_554 S
U166 O168 2.458 1_554 S
U166 C169 2.984 1_554 S
U166 C170 2.847 1_545 S
U166 C183 2.882 . S
U166 O184 2.441 1_545 S
U166 O185 2.420 1_545 S
U166 O186 2.455 1_554 S
U166 O187 2.449 1_545 S
O167 U166 2.454 1_556 S
O167 C169 1.353 . S
O168 U166 2.458 1_556 S
O168 C169 1.286 . S
C169 U166 2.984 1_556 S
C169 O167 1.353 . S
C169 O168 1.286 . S
C169 C171 1.363 . S
C170 C160 1.465 . S
C170 U166 2.847 1_565 S
C170 O184 1.249 . S
C170 O185 1.202 . S
C171 C169 1.363 . S
C171 C173 1.408 . S
C171 C176 1.342 . S
C172 C173 1.310 . S
C172 C175 1.461 . S
C172 H192 0.932 . S
C173 C171 1.408 . S
C173 C172 1.310 . S
C173 H193 0.930 . S
C174 C175 1.474 . S
C174 C176 1.285 . S
C174 H194 0.929 . S
C175 C172 1.461 . S
C175 C174 1.474 . S
C176 C171 1.342 . S
C176 C174 1.285 . S
C176 H195 0.930 . S
C177 C180 1.418 1_545 S
C177 C182 1.245 1_554 S
C177 C183 1.428 . S
C178 C181 1.260 1_556 S
C178 C182 1.477 . S
C178 H196 0.932 . S
C179 C180 1.384 . S
C179 C181 1.479 1_565 S
C179 H197 0.928 . S
C180 C177 1.418 1_565 S
C180 C179 1.384 . S
C180 H198 0.934 . S
C181 C178 1.260 1_554 S
C181 C179 1.479 1_545 S
C182 C177 1.245 1_556 S
C182 C178 1.477 . S
C182 H199 0.932 . S
C183 U166 2.882 . S
C183 C177 1.428 . S
C183 O186 1.301 1_554 S
C183 O187 1.282 1_545 S
O184 U166 2.441 1_565 S
O184 C170 1.249 . S
O185 U166 2.420 1_565 S
O185 C170 1.202 . S
O186 U166 2.455 1_556 S
O186 C183 1.301 1_556 S
O187 U166 2.449 1_565 S
O187 C183 1.282 1_565 S
H188 C161 0.931 . S
H189 C163 0.929 . S
H190 C164 0.930 . S
H191 C165 0.931 . S
H192 C172 0.932 . S
H193 C173 0.930 . S
H194 C174 0.929 . S
H195 C176 0.930 . S
H196 C178 0.932 . S
H197 C179 0.928 . S
H198 C180 0.934 . S
H199 C182 0.932 . S
C200 C201 1.264 . S
C200 C205 1.479 . S
C200 C210 1.465 . S
C201 C200 1.264 . S
C201 C203 1.339 . S
C201 H228 0.931 . S
C202 C203 1.395 . S
C202 C204 1.320 . S
C203 C201 1.339 . S
C203 C202 1.395 . S
C203 H229 0.929 . S
C204 C202 1.320 . S
C204 C205 1.405 . S
C204 H230 0.930 . S
C205 C200 1.479 . S
C205 C204 1.405 . S
C205 H231 0.931 . S
U206 O207 2.454 . S
U206 O208 2.458 . S
U206 C209 2.984 . S
U206 C210 2.847 . S
U206 C223 2.882 . S
U206 O224 2.441 . S
U206 O225 2.420 . S
U206 O226 2.455 . S
U206 O227 2.449 . S
O207 U206 2.454 . S
O207 C209 1.353 . S
O208 U206 2.458 . S
O208 C209 1.286 . S
C209 U206 2.984 . S
C209 O207 1.353 . S
C209 O208 1.286 . S
C209 C211 1.363 . S
C210 C200 1.465 . S
C210 U206 2.847 . S
C210 O224 1.249 . S
C210 O225 1.202 . S
C211 C209 1.363 . S
C211 C213 1.408 . S
C211 C216 1.342 . S
C212 C213 1.310 . S
C212 C215 1.461 . S
C212 H232 0.932 . S
C213 C211 1.408 . S
C213 C212 1.310 . S
C213 H233 0.930 . S
C214 C215 1.474 . S
C214 C216 1.285 . S
C214 H234 0.929 . S
C215 C212 1.461 . S
C215 C214 1.474 . S
C216 C211 1.342 . S
C216 C214 1.285 . S
C216 H235 0.930 . S
C217 C220 1.424 . S
C217 C222 1.245 . S
C217 C223 1.428 . S
C218 C221 1.260 . S
C218 C222 1.477 . S
C218 H236 0.932 . S
C219 C220 1.384 . S
C219 C221 1.479 . S
C219 H237 0.929 . S
C220 C217 1.424 . S
C220 C219 1.384 . S
C220 H238 0.928 . S
C221 C218 1.260 . S
C221 C219 1.479 . S
C222 C217 1.245 . S
C222 C218 1.477 . S
C222 H239 0.932 . S
C223 U206 2.882 . S
C223 C217 1.428 . S
C223 O226 1.301 . S
C223 O227 1.282 . S
O224 U206 2.441 . S
O224 C210 1.249 . S
O225 U206 2.420 . S
O225 C210 1.202 . S
O226 U206 2.455 . S
O226 C223 1.301 . S
O227 U206 2.449 . S
O227 C223 1.282 . S
H228 C201 0.931 . S
H229 C203 0.929 . S
H230 C204 0.930 . S
H231 C205 0.931 . S
H232 C212 0.932 . S
H233 C213 0.930 . S
H234 C214 0.929 . S
H235 C216 0.930 . S
H236 C218 0.932 . S
H237 C219 0.929 . S
H238 C220 0.928 . S
H239 C222 0.932 . S
C240 C241 1.264 1_565 S
C240 C245 1.479 . S
C240 C250 1.465 . S
C241 C240 1.264 1_545 S
C241 C243 1.339 . S
C241 H268 0.931 . S
C242 C243 1.395 . S
C242 C244 1.320 1_545 S
C243 C241 1.339 . S
C243 C242 1.395 . S
C243 H269 0.929 . S
C244 C242 1.320 1_565 S
C244 C245 1.405 . S
C244 H270 0.930 . S
C245 C240 1.479 . S
C245 C244 1.405 . S
C245 H271 0.931 . S
U246 O247 2.454 . S
U246 O248 2.458 . S
U246 C249 2.984 . S
U246 C250 2.847 . S
U246 C263 2.882 1_565 S
U246 O264 2.441 . S
U246 O265 2.436 . S
U246 O266 2.455 1_565 S
U246 O267 2.449 1_565 S
O247 U246 2.454 . S
O247 C249 1.353 . S
O248 U246 2.458 . S
O248 C249 1.286 . S
C249 U246 2.984 . S
C249 O247 1.353 . S
C249 O248 1.286 . S
C249 C251 1.363 . S
C250 C240 1.465 . S
C250 U246 2.847 . S
C250 O264 1.249 . S
C250 O265 1.230 . S
C251 C249 1.363 . S
C251 C253 1.408 . S
C251 C256 1.342 . S
C252 C253 1.310 . S
C252 C255 1.461 . S
C252 H272 0.932 . S
C253 C251 1.408 . S
C253 C252 1.310 . S
C253 H273 0.930 . S
C254 C255 1.474 . S
C254 C256 1.285 . S
C254 H274 0.929 . S
C255 C252 1.461 . S
C255 C254 1.474 . S
C256 C251 1.342 . S
C256 C254 1.285 . S
C256 H275 0.930 . S
C257 C260 1.424 . S
C257 C262 1.245 . S
C257 C263 1.428 . S
C258 C261 1.260 . S
C258 C262 1.477 . S
C258 H276 0.932 . S
C259 C260 1.384 . S
C259 C261 1.479 . S
C259 H277 0.929 . S
C260 C257 1.424 . S
C260 C259 1.384 . S
C260 H278 0.928 . S
C261 C258 1.260 . S
C261 C259 1.479 . S
C262 C257 1.245 . S
C262 C258 1.477 . S
C262 H279 0.932 . S
C263 U246 2.882 1_545 S
C263 C257 1.428 . S
C263 O266 1.301 . S
C263 O267 1.282 . S
O264 U246 2.441 . S
O264 C250 1.249 . S
O265 U246 2.436 . S
O265 C250 1.230 . S
O266 U246 2.455 1_545 S
O266 C263 1.301 . S
O267 U246 2.449 1_545 S
O267 C263 1.282 . S
H268 C241 0.931 . S
H269 C243 0.929 . S
H270 C244 0.930 . S
H271 C245 0.931 . S
H272 C252 0.932 . S
H273 C253 0.930 . S
H274 C254 0.929 . S
H275 C256 0.930 . S
H276 C258 0.932 . S
H277 C259 0.929 . S
H278 C260 0.928 . S
H279 C262 0.932 . S
C280 C281 1.264 . S
C280 C285 1.479 . S
C280 C290 1.465 . S
C281 C280 1.264 . S
C281 C283 1.339 . S
C281 H308 0.931 . S
C282 C283 1.395 . S
C282 C284 1.320 . S
C283 C281 1.339 . S
C283 C282 1.395 . S
C283 H309 0.929 . S
C284 C282 1.320 . S
C284 C285 1.405 . S
C284 H310 0.930 . S
C285 C280 1.479 . S
C285 C284 1.405 . S
C285 H311 0.931 . S
U286 O287 2.454 . S
U286 O288 2.458 . S
U286 C289 2.984 . S
U286 C290 2.847 . S
U286 C303 2.882 . S
U286 O304 2.441 . S
U286 O305 2.420 . S
U286 O306 2.455 . S
U286 O307 2.449 . S
O287 U286 2.454 . S
O287 C289 1.353 . S
O288 U286 2.458 . S
O288 C289 1.286 . S
C289 U286 2.984 . S
C289 O287 1.353 . S
C289 O288 1.286 . S
C289 C291 1.363 . S
C290 C280 1.465 . S
C290 U286 2.847 . S
C290 O304 1.249 . S
C290 O305 1.202 . S
C291 C289 1.363 . S
C291 C293 1.408 . S
C291 C296 1.342 . S
C292 C293 1.310 . S
C292 C295 1.461 . S
C292 H312 0.932 . S
C293 C291 1.408 . S
C293 C292 1.310 . S
C293 H313 0.930 . S
C294 C295 1.474 . S
C294 C296 1.285 . S
C294 H314 0.929 . S
C295 C292 1.461 . S
C295 C294 1.474 . S
C296 C291 1.342 . S
C296 C294 1.285 . S
C296 H315 0.930 . S
C297 C300 1.424 . S
C297 C302 1.245 . S
C297 C303 1.428 . S
C298 C301 1.260 . S
C298 C302 1.477 . S
C298 H316 0.932 . S
C299 C300 1.384 . S
C299 C301 1.479 . S
C299 H317 0.929 . S
C300 C297 1.424 . S
C300 C299 1.384 . S
C300 H318 0.928 . S
C301 C298 1.260 . S
C301 C299 1.479 . S
C302 C297 1.245 . S
C302 C298 1.477 . S
C302 H319 0.932 . S
C303 U286 2.882 . S
C303 C297 1.428 . S
C303 O306 1.301 . S
C303 O307 1.282 . S
O304 U286 2.441 . S
O304 C290 1.249 . S
O305 U286 2.420 . S
O305 C290 1.202 . S
O306 U286 2.455 . S
O306 C303 1.301 . S
O307 U286 2.449 . S
O307 C303 1.282 . S
H308 C281 0.931 . S
H309 C283 0.929 . S
H310 C284 0.930 . S
H311 C285 0.931 . S
H312 C292 0.932 . S
H313 C293 0.930 . S
H314 C294 0.929 . S
H315 C296 0.930 . S
H316 C298 0.932 . S
H317 C299 0.929 . S
H318 C300 0.928 . S
H319 C302 0.932 . S
C320 C321 1.264 . S
C320 C325 1.479 . S
C320 C330 1.465 . S
C321 C320 1.264 . S
C321 C323 1.339 . S
C321 H348 0.931 . S
C322 C323 1.395 . S
C322 C324 1.320 . S
C323 C321 1.339 . S
C323 C322 1.395 . S
C323 H349 0.929 . S
C324 C322 1.320 . S
C324 C325 1.405 . S
C324 H350 0.930 . S
C325 C320 1.479 . S
C325 C324 1.405 . S
C325 H351 0.931 . S
U326 O327 2.454 . S
U326 O328 2.458 . S
U326 C329 2.984 . S
U326 C330 2.847 . S
U326 C343 2.882 . S
U326 O344 2.441 . S
U326 O345 2.420 . S
U326 O346 2.455 . S
U326 O347 2.449 . S
O327 U326 2.454 . S
O327 C329 1.353 . S
O328 U326 2.458 . S
O328 C329 1.286 . S
C329 U326 2.984 . S
C329 O327 1.353 . S
C329 O328 1.286 . S
C329 C331 1.363 . S
C330 C320 1.465 . S
C330 U326 2.847 . S
C330 O344 1.249 . S
C330 O345 1.202 . S
C331 C329 1.363 . S
C331 C333 1.408 . S
C331 C336 1.342 . S
C332 C333 1.310 . S
C332 C335 1.461 . S
C332 H352 0.932 . S
C333 C331 1.408 . S
C333 C332 1.310 . S
C333 H353 0.930 . S
C334 C335 1.474 . S
C334 C336 1.285 . S
C334 H354 0.929 . S
C335 C332 1.461 . S
C335 C334 1.474 . S
C336 C331 1.342 . S
C336 C334 1.285 . S
C336 H355 0.930 . S
C337 C340 1.424 . S
C337 C342 1.245 . S
C337 C343 1.428 . S
C338 C341 1.260 . S
C338 C342 1.477 . S
C338 H356 0.932 . S
C339 C340 1.384 . S
C339 C341 1.479 . S
C339 H357 0.929 . S
C340 C337 1.424 . S
C340 C339 1.384 . S
C340 H358 0.928 . S
C341 C338 1.260 . S
C341 C339 1.479 . S
C342 C337 1.245 . S
C342 C338 1.477 . S
C342 H359 0.932 . S
C343 U326 2.882 . S
C343 C337 1.428 . S
C343 O346 1.301 . S
C343 O347 1.282 . S
O344 U326 2.441 . S
O344 C330 1.249 . S
O345 U326 2.420 . S
O345 C330 1.202 . S
O346 U326 2.455 . S
O346 C343 1.301 . S
O347 U326 2.449 . S
O347 C343 1.282 . S
H348 C321 0.931 . S
H349 C323 0.929 . S
H350 C324 0.930 . S
H351 C325 0.931 . S
H352 C332 0.932 . S
H353 C333 0.930 . S
H354 C334 0.929 . S
H355 C336 0.930 . S
H356 C338 0.932 . S
H357 C339 0.929 . S
H358 C340 0.928 . S
H359 C342 0.932 . S
C360 C361 1.264 . S
C360 C365 1.479 . S
C360 C370 1.465 . S
C361 C360 1.264 . S
C361 C363 1.339 . S
C361 H388 0.931 . S
C362 C363 1.395 . S
C362 C364 1.320 . S
C363 C361 1.339 . S
C363 C362 1.395 . S
C363 H389 0.929 . S
C364 C362 1.320 . S
C364 C365 1.405 . S
C364 H390 0.930 . S
C365 C360 1.479 . S
C365 C364 1.405 . S
C365 H391 0.931 . S
U366 O367 2.454 . S
U366 O368 2.458 . S
U366 C369 2.984 . S
U366 C370 2.847 . S
U366 C383 2.882 . S
U366 O384 2.441 . S
U366 O385 2.420 . S
U366 O386 2.455 . S
U366 O387 2.449 . S
O367 U366 2.454 . S
O367 C369 1.353 . S
O368 U366 2.458 . S
O368 C369 1.286 . S
C369 U366 2.984 . S
C369 O367 1.353 . S
C369 O368 1.286 . S
C369 C371 1.363 . S
C370 C360 1.465 . S
C370 U366 2.847 . S
C370 O384 1.249 . S
C370 O385 1.202 . S
C371 C369 1.363 . S
C371 C373 1.408 . S
C371 C376 1.342 . S
C372 C373 1.310 . S
C372 C375 1.461 . S
C372 H392 0.932 . S
C373 C371 1.408 . S
C373 C372 1.310 . S
C373 H393 0.930 . S
C374 C375 1.474 . S
C374 C376 1.285 . S
C374 H394 0.929 . S
C375 C372 1.461 . S
C375 C374 1.474 . S
C376 C371 1.342 . S
C376 C374 1.285 . S
C376 H395 0.930 . S
C377 C380 1.424 . S
C377 C382 1.245 . S
C377 C383 1.428 . S
C378 C381 1.260 . S
C378 C382 1.477 . S
C378 H396 0.932 . S
C379 C380 1.384 . S
C379 C381 1.479 . S
C379 H397 0.929 . S
C380 C377 1.424 . S
C380 C379 1.384 . S
C380 H398 0.928 . S
C381 C378 1.260 . S
C381 C379 1.479 . S
C382 C377 1.245 . S
C382 C378 1.477 . S
C382 H399 0.932 . S
C383 U366 2.882 . S
C383 C377 1.428 . S
C383 O386 1.301 . S
C383 O387 1.282 . S
O384 U366 2.441 . S
O384 C370 1.249 . S
O385 U366 2.420 . S
O385 C370 1.202 . S
O386 U366 2.455 . S
O386 C383 1.301 . S
O387 U366 2.449 . S
O387 C383 1.282 . S
H388 C361 0.931 . S
H389 C363 0.929 . S
H390 C364 0.930 . S
H391 C365 0.931 . S
H392 C372 0.932 . S
H393 C373 0.930 . S
H394 C374 0.929 . S
H395 C376 0.930 . S
H396 C378 0.932 . S
H397 C379 0.929 . S
H398 C380 0.928 . S
H399 C382 0.932 . S
C400 C401 1.264 . S
C400 C405 1.479 . S
C400 C410 1.465 . S
C401 C400 1.264 . S
C401 C403 1.339 . S
C401 H428 0.931 . S
C402 C403 1.395 . S
C402 C404 1.320 . S
C403 C401 1.339 . S
C403 C402 1.395 . S
C403 H429 0.929 . S
C404 C402 1.320 . S
C404 C405 1.405 . S
C404 H430 0.930 . S
C405 C400 1.479 . S
C405 C404 1.405 . S
C405 H431 0.931 . S
U406 O407 2.454 . S
U406 O408 2.458 . S
U406 C409 2.984 . S
U406 C410 2.847 1_554 S
U406 C423 2.882 . S
U406 O424 2.441 1_554 S
U406 O425 2.420 1_554 S
U406 O426 2.455 . S
U406 O427 2.449 1_554 S
O407 U406 2.454 . S
O407 C409 1.353 . S
O408 U406 2.458 . S
O408 C409 1.286 . S
C409 U406 2.984 . S
C409 O407 1.353 . S
C409 O408 1.286 . S
C409 C411 1.363 . S
C410 C400 1.465 . S
C410 U406 2.847 1_556 S
C410 O424 1.249 . S
C410 O425 1.202 . S
C411 C409 1.363 . S
C411 C413 1.408 . S
C411 C416 1.342 . S
C412 C413 1.310 . S
C412 C415 1.461 . S
C412 H432 0.932 . S
C413 C411 1.408 . S
C413 C412 1.310 . S
C413 H433 0.930 . S
C414 C415 1.474 . S
C414 C416 1.285 . S
C414 H434 0.929 . S
C415 C412 1.461 . S
C415 C414 1.474 . S
C416 C411 1.342 . S
C416 C414 1.285 . S
C416 H435 0.930 . S
C417 C420 1.424 1_554 S
C417 C422 1.245 . S
C417 C423 1.428 . S
C418 C421 1.260 . S
C418 C422 1.477 . S
C418 H436 0.932 . S
C419 C420 1.384 . S
C419 C421 1.479 1_556 S
C419 H437 0.929 . S
C420 C417 1.424 1_556 S
C420 C419 1.384 . S
C420 H438 0.928 . S
C421 C418 1.260 . S
C421 C419 1.479 1_554 S
C422 C417 1.245 . S
C422 C418 1.477 . S
C422 H439 0.932 . S
C423 U406 2.882 . S
C423 C417 1.428 . S
C423 O426 1.301 . S
C423 O427 1.282 1_554 S
O424 U406 2.441 1_556 S
O424 C410 1.249 . S
O425 U406 2.420 1_556 S
O425 C410 1.202 . S
O426 U406 2.455 . S
O426 C423 1.301 . S
O427 U406 2.449 1_556 S
O427 C423 1.282 1_556 S
H428 C401 0.931 . S
H429 C403 0.929 . S
H430 C404 0.930 . S
H431 C405 0.931 . S
H432 C412 0.932 . S
H433 C413 0.930 . S
H434 C414 0.929 . S
H435 C416 0.930 . S
H436 C418 0.932 . S
H437 C419 0.929 . S
H438 C420 0.928 . S
H439 C422 0.932 . S
C440 C441 1.264 . S
C440 C445 1.479 . S
C440 C450 1.465 . S
C441 C440 1.264 . S
C441 C443 1.339 . S
C441 H468 0.931 . S
C442 C443 1.395 . S
C442 C444 1.320 . S
C443 C441 1.339 . S
C443 C442 1.395 . S
C443 H469 0.929 . S
C444 C442 1.320 . S
C444 C445 1.405 . S
C444 H470 0.930 . S
C445 C440 1.479 . S
C445 C444 1.405 . S
C445 H471 0.931 . S
U446 O447 2.454 . S
U446 O448 2.458 . S
U446 C449 2.984 . S
U446 C450 2.847 . S
U446 C463 2.882 . S
U446 O464 2.441 . S
U446 O465 2.420 . S
U446 O466 2.455 . S
U446 O467 2.449 . S
O447 U446 2.454 . S
O447 C449 1.353 . S
O448 U446 2.458 . S
O448 C449 1.286 . S
C449 U446 2.984 . S
C449 O447 1.353 . S
C449 O448 1.286 . S
C449 C451 1.363 . S
C450 C440 1.465 . S
C450 U446 2.847 . S
C450 O464 1.249 . S
C450 O465 1.202 . S
C451 C449 1.363 . S
C451 C453 1.408 . S
C451 C456 1.342 . S
C452 C453 1.310 . S
C452 C455 1.461 . S
C452 H472 0.932 . S
C453 C451 1.408 . S
C453 C452 1.310 . S
C453 H473 0.930 . S
C454 C455 1.474 . S
C454 C456 1.285 . S
C454 H474 0.929 . S
C455 C452 1.461 . S
C455 C454 1.474 . S
C456 C451 1.342 . S
C456 C454 1.285 . S
C456 H475 0.930 . S
C457 C460 1.424 . S
C457 C462 1.245 . S
C457 C463 1.428 . S
C458 C461 1.260 . S
C458 C462 1.477 . S
C458 H476 0.932 . S
C459 C460 1.384 . S
C459 C461 1.479 . S
C459 H477 0.929 . S
C460 C457 1.424 . S
C460 C459 1.384 . S
C460 H478 0.928 . S
C461 C458 1.260 . S
C461 C459 1.479 . S
C462 C457 1.245 . S
C462 C458 1.477 . S
C462 H479 0.932 . S
C463 U446 2.882 . S
C463 C457 1.428 . S
C463 O466 1.301 . S
C463 O467 1.282 . S
O464 U446 2.441 . S
O464 C450 1.249 . S
O465 U446 2.420 . S
O465 C450 1.202 . S
O466 U446 2.455 . S
O466 C463 1.301 . S
O467 U446 2.449 . S
O467 C463 1.282 . S
H468 C441 0.931 . S
H469 C443 0.929 . S
H470 C444 0.930 . S
H471 C445 0.931 . S
H472 C452 0.932 . S
H473 C453 0.930 . S
H474 C454 0.929 . S
H475 C456 0.930 . S
H476 C458 0.932 . S
H477 C459 0.929 . S
H478 C460 0.928 . S
H479 C462 0.932 . S
C480 C481 1.264 . S
C480 C485 1.479 . S
C480 C490 1.465 . S
C481 C480 1.264 . S
C481 C483 1.339 . S
C481 H508 0.931 . S
C482 C483 1.395 . S
C482 C484 1.320 . S
C483 C481 1.339 . S
C483 C482 1.395 . S
C483 H509 0.929 . S
C484 C482 1.320 . S
C484 C485 1.405 . S
C484 H510 0.930 . S
C485 C480 1.479 . S
C485 C484 1.405 . S
C485 H511 0.931 . S
U486 O487 2.454 . S
U486 O488 2.458 . S
U486 C489 2.984 . S
U486 C490 2.847 . S
U486 C503 2.882 . S
U486 O504 2.441 . S
U486 O505 2.420 . S
U486 O506 2.455 . S
U486 O507 2.449 . S
O487 U486 2.454 . S
O487 C489 1.353 . S
O488 U486 2.458 . S
O488 C489 1.286 . S
C489 U486 2.984 . S
C489 O487 1.353 . S
C489 O488 1.286 . S
C489 C491 1.363 . S
C490 C480 1.465 . S
C490 U486 2.847 . S
C490 O504 1.249 . S
C490 O505 1.202 . S
C491 C489 1.363 . S
C491 C493 1.408 . S
C491 C496 1.342 . S
C492 C493 1.310 . S
C492 C495 1.461 . S
C492 H512 0.932 . S
C493 C491 1.408 . S
C493 C492 1.310 . S
C493 H513 0.930 . S
C494 C495 1.474 . S
C494 C496 1.285 . S
C494 H514 0.929 . S
C495 C492 1.461 . S
C495 C494 1.474 . S
C496 C491 1.342 . S
C496 C494 1.285 . S
C496 H515 0.930 . S
C497 C500 1.424 . S
C497 C502 1.245 . S
C497 C503 1.428 . S
C498 C501 1.260 . S
C498 C502 1.477 . S
C498 H516 0.932 . S
C499 C500 1.384 . S
C499 C501 1.479 . S
C499 H517 0.929 . S
C500 C497 1.424 . S
C500 C499 1.384 . S
C500 H518 0.928 . S
C501 C498 1.260 . S
C501 C499 1.479 . S
C502 C497 1.245 . S
C502 C498 1.477 . S
C502 H519 0.932 . S
C503 U486 2.882 . S
C503 C497 1.428 . S
C503 O506 1.301 . S
C503 O507 1.282 . S
O504 U486 2.441 . S
O504 C490 1.249 . S
O505 U486 2.420 . S
O505 C490 1.202 . S
O506 U486 2.455 . S
O506 C503 1.301 . S
O507 U486 2.449 . S
O507 C503 1.282 . S
H508 C481 0.931 . S
H509 C483 0.929 . S
H510 C484 0.930 . S
H511 C485 0.931 . S
H512 C492 0.932 . S
H513 C493 0.930 . S
H514 C494 0.929 . S
H515 C496 0.930 . S
H516 C498 0.932 . S
H517 C499 0.929 . S
H518 C500 0.928 . S
H519 C502 0.932 . S
C520 C521 1.264 . S
C520 C525 1.479 . S
C520 C530 1.465 . S
C521 C520 1.264 . S
C521 C523 1.339 . S
C521 H548 0.931 . S
C522 C523 1.395 . S
C522 C524 1.320 . S
C523 C521 1.339 . S
C523 C522 1.395 . S
C523 H549 0.929 . S
C524 C522 1.320 . S
C524 C525 1.405 . S
C524 H550 0.930 . S
C525 C520 1.479 . S
C525 C524 1.405 . S
C525 H551 0.931 . S
U526 O527 2.454 . S
U526 O528 2.458 . S
U526 C529 2.984 . S
U526 C530 2.847 . S
U526 C543 2.882 . S
U526 O544 2.441 . S
U526 O545 2.420 . S
U526 O546 2.455 . S
U526 O547 2.449 . S
O527 U526 2.454 . S
O527 C529 1.353 . S
O528 U526 2.458 . S
O528 C529 1.286 . S
C529 U526 2.984 . S
C529 O527 1.353 . S
C529 O528 1.286 . S
C529 C531 1.363 . S
C530 C520 1.465 . S
C530 U526 2.847 . S
C530 O544 1.249 . S
C530 O545 1.202 . S
C531 C529 1.363 . S
C531 C533 1.408 . S
C531 C536 1.342 . S
C532 C533 1.310 . S
C532 C535 1.461 . S
C532 H552 0.932 . S
C533 C531 1.408 . S
C533 C532 1.310 . S
C533 H553 0.930 . S
C534 C535 1.474 . S
C534 C536 1.285 . S
C534 H554 0.929 . S
C535 C532 1.461 . S
C535 C534 1.474 . S
C536 C531 1.342 . S
C536 C534 1.285 . S
C536 H555 0.930 . S
C537 C540 1.424 . S
C537 C542 1.245 . S
C537 C543 1.428 . S
C538 C541 1.260 . S
C538 C542 1.477 . S
C538 H556 0.932 . S
C539 C540 1.384 . S
C539 C541 1.479 . S
C539 H557 0.929 . S
C540 C537 1.424 . S
C540 C539 1.384 . S
C540 H558 0.928 . S
C541 C538 1.260 . S
C541 C539 1.479 . S
C542 C537 1.245 . S
C542 C538 1.477 . S
C542 H559 0.932 . S
C543 U526 2.882 . S
C543 C537 1.428 . S
C543 O546 1.301 . S
C543 O547 1.282 . S
O544 U526 2.441 . S
O544 C530 1.249 . S
O545 U526 2.420 . S
O545 C530 1.202 . S
O546 U526 2.455 . S
O546 C543 1.301 . S
O547 U526 2.449 . S
O547 C543 1.282 . S
H548 C521 0.931 . S
H549 C523 0.929 . S
H550 C524 0.930 . S
H551 C525 0.931 . S
H552 C532 0.932 . S
H553 C533 0.930 . S
H554 C534 0.929 . S
H555 C536 0.930 . S
H556 C538 0.932 . S
H557 C539 0.929 . S
H558 C540 0.928 . S
H559 C542 0.932 . S
C560 C561 1.264 . S
C560 C565 1.479 . S
C560 C570 1.465 . S
C561 C560 1.264 . S
C561 C563 1.339 . S
C561 H588 0.931 . S
C562 C563 1.395 . S
C562 C564 1.320 . S
C563 C561 1.339 . S
C563 C562 1.395 . S
C563 H589 0.929 . S
C564 C562 1.320 . S
C564 C565 1.405 . S
C564 H590 0.930 1_554 S
C565 C560 1.479 . S
C565 C564 1.405 . S
C565 H591 0.931 1_554 S
U566 O567 2.454 1_554 S
U566 O568 2.458 . S
U566 C569 2.984 1_554 S
U566 C570 2.847 . S
U566 C583 2.882 . S
U566 O584 2.441 . S
U566 O585 2.420 . S
U566 O586 2.455 . S
U566 O587 2.449 . S
O567 U566 2.454 1_556 S
O567 C569 1.353 . S
O568 U566 2.458 . S
O568 C569 1.286 1_554 S
C569 U566 2.984 1_556 S
C569 O567 1.353 . S
C569 O568 1.286 1_556 S
C569 C571 1.363 . S
C570 C560 1.465 . S
C570 U566 2.847 . S
C570 O584 1.249 . S
C570 O585 1.202 . S
C571 C569 1.363 . S
C571 C573 1.408 . S
C571 C576 1.342 . S
C572 C573 1.310 . S
C572 C575 1.461 . S
C572 H592 0.932 . S
C573 C571 1.408 . S
C573 C572 1.310 . S
C573 H593 0.930 . S
C574 C575 1.474 . S
C574 C576 1.285 . S
C574 H594 0.929 . S
C575 C572 1.461 . S
C575 C574 1.474 . S
C576 C571 1.342 . S
C576 C574 1.285 . S
C576 H595 0.930 . S
C577 C580 1.424 . S
C577 C582 1.245 . S
C577 C583 1.428 . S
C578 C581 1.260 . S
C578 C582 1.477 . S
C578 H596 0.932 . S
C579 C580 1.384 . S
C579 C581 1.479 . S
C579 H597 0.929 . S
C580 C577 1.424 . S
C580 C579 1.384 . S
C580 H598 0.928 . S
C581 C578 1.260 . S
C581 C579 1.479 . S
C582 C577 1.245 . S
C582 C578 1.477 . S
C582 H599 0.932 . S
C583 U566 2.882 . S
C583 C577 1.428 . S
C583 O586 1.301 . S
C583 O587 1.282 . S
O584 U566 2.441 . S
O584 C570 1.249 . S
O585 U566 2.420 . S
O585 C570 1.202 . S
O586 U566 2.455 . S
O586 C583 1.301 . S
O587 U566 2.449 . S
O587 C583 1.282 . S
H588 C561 0.931 . S
H589 C563 0.929 . S
H590 C564 0.930 1_556 S
H591 C565 0.931 1_556 S
H592 C572 0.932 . S
H593 C573 0.930 . S
H594 C574 0.929 . S
H595 C576 0.930 . S
H596 C578 0.932 . S
H597 C579 0.929 . S
H598 C580 0.928 . S
H599 C582 0.932 . S
C600 C601 1.264 . S
C600 C605 1.479 . S
C600 C610 1.465 . S
C601 C600 1.264 . S
C601 C603 1.339 . S
C601 H628 0.931 . S
C602 C603 1.395 . S
C602 C604 1.320 . S
C603 C601 1.339 . S
C603 C602 1.395 . S
C603 H629 0.929 . S
C604 C602 1.320 . S
C604 C605 1.405 . S
C604 H630 0.930 . S
C605 C600 1.479 . S
C605 C604 1.405 . S
C605 H631 0.931 . S
U606 O607 2.454 . S
U606 O608 2.458 . S
U606 C609 2.984 . S
U606 C610 2.847 . S
U606 C623 2.882 . S
U606 O624 2.441 . S
U606 O625 2.420 . S
U606 O626 2.455 . S
U606 O627 2.449 . S
O607 U606 2.454 . S
O607 C609 1.353 . S
O608 U606 2.458 . S
O608 C609 1.286 . S
C609 U606 2.984 . S
C609 O607 1.353 . S
C609 O608 1.286 . S
C609 C611 1.363 . S
C610 C600 1.465 . S
C610 U606 2.847 . S
C610 O624 1.249 . S
C610 O625 1.202 . S
C611 C609 1.363 . S
C611 C613 1.408 . S
C611 C616 1.342 . S
C612 C613 1.310 . S
C612 C615 1.461 . S
C612 H632 0.932 . S
C613 C611 1.408 . S
C613 C612 1.310 . S
C613 H633 0.930 . S
C614 C615 1.474 . S
C614 C616 1.285 . S
C614 H634 0.929 . S
C615 C612 1.461 . S
C615 C614 1.474 . S
C616 C611 1.342 . S
C616 C614 1.285 . S
C616 H635 0.930 . S
C617 C620 1.424 . S
C617 C622 1.245 . S
C617 C623 1.428 . S
C618 C621 1.260 . S
C618 C622 1.477 . S
C618 H636 0.932 . S
C619 C620 1.384 . S
C619 C621 1.479 . S
C619 H637 0.929 . S
C620 C617 1.424 . S
C620 C619 1.384 . S
C620 H638 0.928 . S
C621 C618 1.260 . S
C621 C619 1.479 . S
C622 C617 1.245 . S
C622 C618 1.477 . S
C622 H639 0.932 . S
C623 U606 2.882 . S
C623 C617 1.428 . S
C623 O626 1.301 . S
C623 O627 1.282 . S
O624 U606 2.441 . S
O624 C610 1.249 . S
O625 U606 2.420 . S
O625 C610 1.202 . S
O626 U606 2.455 . S
O626 C623 1.301 . S
O627 U606 2.449 . S
O627 C623 1.282 . S
H628 C601 0.931 . S
H629 C603 0.929 . S
H630 C604 0.930 . S
H631 C605 0.931 . S
H632 C612 0.932 . S
H633 C613 0.930 . S
H634 C614 0.929 . S
H635 C616 0.930 . S
H636 C618 0.932 . S
H637 C619 0.929 . S
H638 C620 0.928 . S
H639 C622 0.932 . S
H640 C648 0.950 . S
H641 C653 0.950 . S
H642 C650 0.950 . S
H643 C652 0.950 . S
H644 C654 0.950 . S
H645 C656 0.950 . S
H646 C658 0.950 . S
H647 C659 0.950 . S
C648 H640 0.950 . S
C648 C649 1.386 . S
C648 C650 1.391 . S
C649 C648 1.386 . S
C649 C653 1.393 . S
C650 H642 0.950 . S
C650 C648 1.391 . S
C650 C651 1.400 . S
C651 C650 1.400 . S
C651 C652 1.398 . S
C651 C657 1.491 . S
C652 H643 0.950 . S
C652 C651 1.398 . S
C652 C653 1.391 . S
C653 H641 0.950 . S
C653 C649 1.393 . S
C653 C652 1.391 . S
C654 H644 0.950 . S
C654 C655 1.386 . S
C654 C656 1.391 . S
C655 C654 1.386 . S
C655 C659 1.393 . S
C656 H645 0.950 . S
C656 C654 1.391 . S
C656 C657 1.400 . S
C657 C651 1.491 . S
C657 C656 1.400 . S
C657 C658 1.398 . S
C658 H646 0.950 . S
C658 C657 1.398 . S
C658 C659 1.391 . S
C659 H647 0.950 . S
C659 C655 1.393 . S
C659 C658 1.391 . S
H660 C668 0.950 . S
H661 C673 0.950 . S
H662 C670 0.950 . S
H663 C672 0.950 . S
H664 C674 0.950 . S
H665 C676 0.950 . S
H666 C678 0.950 . S
H667 C679 0.950 . S
C668 H660 0.950 . S
C668 C669 1.386 . S
C668 C670 1.391 . S
C669 C668 1.386 . S
C669 C673 1.393 . S
C670 H662 0.950 . S
C670 C668 1.391 . S
C670 C671 1.400 . S
C671 C670 1.400 . S
C671 C672 1.398 . S
C671 C677 1.491 . S
C672 H663 0.950 . S
C672 C671 1.398 . S
C672 C673 1.391 . S
C673 H661 0.950 . S
C673 C669 1.393 . S
C673 C672 1.391 . S
C674 H664 0.950 . S
C674 C675 1.386 . S
C674 C676 1.391 . S
C675 C674 1.386 . S
C675 C679 1.393 . S
C676 H665 0.950 . S
C676 C674 1.391 . S
C676 C677 1.400 . S
C677 C671 1.491 . S
C677 C676 1.400 . S
C677 C678 1.398 . S
C678 H666 0.950 . S
C678 C677 1.398 . S
C678 C679 1.391 . S
C679 H667 0.950 . S
C679 C675 1.393 . S
C679 C678 1.391 . S
H680 C688 0.950 . S
H681 C693 0.950 . S
H682 C690 0.950 . S
H683 C692 0.950 . S
H684 C694 0.950 . S
H685 C696 0.950 . S
H686 C698 0.950 . S
H687 C699 0.950 . S
C688 H680 0.950 . S
C688 C689 1.386 . S
C688 C690 1.391 . S
C689 C688 1.386 . S
C689 C693 1.393 . S
C690 H682 0.950 . S
C690 C688 1.391 . S
C690 C691 1.400 . S
C691 C690 1.400 . S
C691 C692 1.398 . S
C691 C697 1.491 . S
C692 H683 0.950 . S
C692 C691 1.398 . S
C692 C693 1.391 . S
C693 H681 0.950 . S
C693 C689 1.393 . S
C693 C692 1.391 . S
C694 H684 0.950 . S
C694 C695 1.386 . S
C694 C696 1.391 . S
C695 C694 1.386 . S
C695 C699 1.393 . S
C696 H685 0.950 . S
C696 C694 1.391 . S
C696 C697 1.400 . S
C697 C691 1.491 . S
C697 C696 1.400 . S
C697 C698 1.398 . S
C698 H686 0.950 . S
C698 C697 1.398 . S
C698 C699 1.391 . S
C699 H687 0.950 . S
C699 C695 1.393 . S
C699 C698 1.391 . S
H700 C708 0.950 . S
H701 C713 0.950 . S
H702 C710 0.950 . S
H703 C712 0.950 . S
H704 C714 0.950 . S
H705 C716 0.950 . S
H706 C718 0.950 . S
H707 C719 0.950 . S
C708 H700 0.950 . S
C708 C709 1.386 . S
C708 C710 1.391 . S
C709 C708 1.386 . S
C709 C713 1.393 . S
C710 H702 0.950 . S
C710 C708 1.391 . S
C710 C711 1.400 . S
C711 C710 1.400 . S
C711 C712 1.398 . S
C711 C717 1.491 . S
C712 H703 0.950 . S
C712 C711 1.398 . S
C712 C713 1.391 . S
C713 H701 0.950 . S
C713 C709 1.393 . S
C713 C712 1.391 . S
C714 H704 0.950 . S
C714 C715 1.386 . S
C714 C716 1.391 . S
C715 C714 1.386 . S
C715 C719 1.393 . S
C716 H705 0.950 . S
C716 C714 1.391 . S
C716 C717 1.400 . S
C717 C711 1.491 . S
C717 C716 1.400 . S
C717 C718 1.398 . S
C718 H706 0.950 . S
C718 C717 1.398 . S
C718 C719 1.391 . S
C719 H707 0.950 . S
C719 C715 1.393 . S
C719 C718 1.391 . S
H720 C728 0.950 . S
H721 C733 0.950 . S
H722 C730 0.950 . S
H723 C732 0.950 . S
H724 C734 0.950 . S
H725 C736 0.950 . S
H726 C738 0.950 . S
H727 C739 0.950 . S
C728 H720 0.950 . S
C728 C729 1.386 . S
C728 C730 1.391 . S
C729 C728 1.386 . S
C729 C733 1.393 . S
C730 H722 0.950 . S
C730 C728 1.391 . S
C730 C731 1.400 . S
C731 C730 1.400 . S
C731 C732 1.398 . S
C731 C737 1.491 . S
C732 H723 0.950 . S
C732 C731 1.398 . S
C732 C733 1.391 . S
C733 H721 0.950 . S
C733 C729 1.393 . S
C733 C732 1.391 . S
C734 H724 0.950 . S
C734 C735 1.386 . S
C734 C736 1.391 . S
C735 C734 1.386 . S
C735 C739 1.393 . S
C736 H725 0.950 . S
C736 C734 1.391 . S
C736 C737 1.400 . S
C737 C731 1.491 . S
C737 C736 1.400 . S
C737 C738 1.398 . S
C738 H726 0.950 . S
C738 C737 1.398 . S
C738 C739 1.391 . S
C739 H727 0.950 . S
C739 C735 1.393 . S
C739 C738 1.391 . S
H740 C748 0.950 . S
H741 C753 0.950 . S
H742 C750 0.950 . S
H743 C752 0.950 . S
H744 C754 0.950 . S
H745 C756 0.950 . S
H746 C758 0.950 . S
H747 C759 0.950 . S
C748 H740 0.950 . S
C748 C749 1.386 . S
C748 C750 1.391 . S
C749 C748 1.386 . S
C749 C753 1.393 . S
C750 H742 0.950 . S
C750 C748 1.391 . S
C750 C751 1.400 . S
C751 C750 1.400 . S
C751 C752 1.398 . S
C751 C757 1.491 . S
C752 H743 0.950 . S
C752 C751 1.398 . S
C752 C753 1.391 . S
C753 H741 0.950 . S
C753 C749 1.393 . S
C753 C752 1.391 . S
C754 H744 0.950 . S
C754 C755 1.386 . S
C754 C756 1.391 . S
C755 C754 1.386 . S
C755 C759 1.393 . S
C756 H745 0.950 . S
C756 C754 1.391 . S
C756 C757 1.400 . S
C757 C751 1.491 . S
C757 C756 1.400 . S
C757 C758 1.398 . S
C758 H746 0.950 . S
C758 C757 1.398 . S
C758 C759 1.391 . S
C759 H747 0.950 . S
C759 C755 1.393 . S
C759 C758 1.391 . S
H760 C768 0.950 . S
H761 C773 0.950 . S
H762 C770 0.950 . S
H763 C772 0.950 . S
H764 C774 0.950 . S
H765 C776 0.950 . S
H766 C778 0.950 . S
H767 C779 0.950 . S
C768 H760 0.950 . S
C768 C769 1.386 . S
C768 C770 1.391 . S
C769 C768 1.386 . S
C769 C773 1.393 . S
C770 H762 0.950 . S
C770 C768 1.391 . S
C770 C771 1.400 . S
C771 C770 1.400 . S
C771 C772 1.398 . S
C771 C777 1.491 . S
C772 H763 0.950 . S
C772 C771 1.398 . S
C772 C773 1.391 . S
C773 H761 0.950 . S
C773 C769 1.393 . S
C773 C772 1.391 . S
C774 H764 0.950 . S
C774 C775 1.386 . S
C774 C776 1.391 . S
C775 C774 1.386 . S
C775 C779 1.393 . S
C776 H765 0.950 . S
C776 C774 1.391 . S
C776 C777 1.400 . S
C777 C771 1.491 . S
C777 C776 1.400 . S
C777 C778 1.398 . S
C778 H766 0.950 . S
C778 C777 1.398 . S
C778 C779 1.391 . S
C779 H767 0.950 . S
C779 C775 1.393 . S
C779 C778 1.391 . S
H780 C788 0.950 . S
H781 C793 0.950 . S
H782 C790 0.950 . S
H783 C792 0.950 . S
H784 C794 0.950 . S
H785 C796 0.950 . S
H786 C798 0.950 . S
H787 C799 0.950 . S
C788 H780 0.950 . S
C788 C789 1.386 . S
C788 C790 1.391 . S
C789 C788 1.386 . S
C789 C793 1.393 . S
C790 H782 0.950 . S
C790 C788 1.391 . S
C790 C791 1.400 . S
C791 C790 1.400 . S
C791 C792 1.398 . S
C791 C797 1.491 . S
C792 H783 0.950 . S
C792 C791 1.398 . S
C792 C793 1.391 . S
C793 H781 0.950 . S
C793 C789 1.393 . S
C793 C792 1.391 . S
C794 H784 0.950 . S
C794 C795 1.386 . S
C794 C796 1.391 . S
C795 C794 1.386 . S
C795 C799 1.393 . S
C796 H785 0.950 . S
C796 C794 1.391 . S
C796 C797 1.400 . S
C797 C791 1.491 . S
C797 C796 1.400 . S
C797 C798 1.398 . S
C798 H786 0.950 . S
C798 C797 1.398 . S
C798 C799 1.391 . S
C799 H787 0.950 . S
C799 C795 1.393 . S
C799 C798 1.391 . S
H800 C808 0.950 . S
H801 C813 0.950 . S
H802 C810 0.950 . S
H803 C812 0.950 . S
H804 C814 0.950 . S
H805 C816 0.950 . S
H806 C818 0.950 . S
H807 C819 0.950 . S
C808 H800 0.950 . S
C808 C809 1.386 . S
C808 C810 1.391 . S
C809 C808 1.386 . S
C809 C813 1.393 . S
C810 H802 0.950 . S
C810 C808 1.391 . S
C810 C811 1.400 . S
C811 C810 1.400 . S
C811 C812 1.398 . S
C811 C817 1.491 . S
C812 H803 0.950 . S
C812 C811 1.398 . S
C812 C813 1.391 . S
C813 H801 0.950 . S
C813 C809 1.393 . S
C813 C812 1.391 . S
C814 H804 0.950 . S
C814 C815 1.386 . S
C814 C816 1.391 . S
C815 C814 1.386 . S
C815 C819 1.393 . S
C816 H805 0.950 . S
C816 C814 1.391 . S
C816 C817 1.400 . S
C817 C811 1.491 . S
C817 C816 1.400 . S
C817 C818 1.398 . S
C818 H806 0.950 . S
C818 C817 1.398 . S
C818 C819 1.391 . S
C819 H807 0.950 . S
C819 C815 1.393 . S
C819 C818 1.391 . S
H820 C828 0.950 . S
H821 C833 0.950 . S
H822 C830 0.950 . S
H823 C832 0.950 . S
H824 C834 0.950 . S
H825 C836 0.950 . S
H826 C838 0.950 . S
H827 C839 0.950 . S
C828 H820 0.950 . S
C828 C829 1.386 . S
C828 C830 1.391 . S
C829 C828 1.386 . S
C829 C833 1.393 . S
C830 H822 0.950 . S
C830 C828 1.391 . S
C830 C831 1.400 . S
C831 C830 1.400 . S
C831 C832 1.398 . S
C831 C837 1.491 . S
C832 H823 0.950 . S
C832 C831 1.398 . S
C832 C833 1.391 . S
C833 H821 0.950 . S
C833 C829 1.393 . S
C833 C832 1.391 . S
C834 H824 0.950 . S
C834 C835 1.386 . S
C834 C836 1.391 . S
C835 C834 1.386 . S
C835 C839 1.393 . S
C836 H825 0.950 . S
C836 C834 1.391 . S
C836 C837 1.400 . S
C837 C831 1.491 . S
C837 C836 1.400 . S
C837 C838 1.398 . S
C838 H826 0.950 . S
C838 C837 1.398 . S
C838 C839 1.391 . S
C839 H827 0.950 . S
C839 C835 1.393 . S
C839 C838 1.391 . S
H840 C848 0.950 . S
H841 C853 0.950 . S
H842 C850 0.950 . S
H843 C852 0.950 . S
H844 C854 0.950 . S
H845 C856 0.950 . S
H846 C858 0.950 . S
H847 C859 0.950 . S
C848 H840 0.950 . S
C848 C849 1.386 . S
C848 C850 1.391 . S
C849 C848 1.386 . S
C849 C853 1.393 . S
C850 H842 0.950 . S
C850 C848 1.391 . S
C850 C851 1.400 . S
C851 C850 1.400 . S
C851 C852 1.398 . S
C851 C857 1.491 . S
C852 H843 0.950 . S
C852 C851 1.398 . S
C852 C853 1.391 . S
C853 H841 0.950 . S
C853 C849 1.393 . S
C853 C852 1.391 . S
C854 H844 0.950 . S
C854 C855 1.386 . S
C854 C856 1.391 . S
C855 C854 1.386 . S
C855 C859 1.393 . S
C856 H845 0.950 . S
C856 C854 1.391 . S
C856 C857 1.400 . S
C857 C851 1.491 . S
C857 C856 1.400 . S
C857 C858 1.398 . S
C858 H846 0.950 . S
C858 C857 1.398 . S
C858 C859 1.391 . S
C859 H847 0.950 . S
C859 C855 1.393 . S
C859 C858 1.391 . S
H860 C868 0.950 . S
H861 C873 0.950 . S
H862 C870 0.950 . S
H863 C872 0.950 . S
H864 C874 0.950 . S
H865 C876 0.950 . S
H866 C878 0.950 . S
H867 C879 0.950 . S
C868 H860 0.950 . S
C868 C869 1.386 . S
C868 C870 1.391 . S
C869 C868 1.386 . S
C869 C873 1.393 . S
C870 H862 0.950 . S
C870 C868 1.391 . S
C870 C871 1.400 . S
C871 C870 1.400 . S
C871 C872 1.398 . S
C871 C877 1.491 . S
C872 H863 0.950 . S
C872 C871 1.398 . S
C872 C873 1.391 . S
C873 H861 0.950 . S
C873 C869 1.393 . S
C873 C872 1.391 . S
C874 H864 0.950 . S
C874 C875 1.386 . S
C874 C876 1.391 . S
C875 C874 1.386 . S
C875 C879 1.393 . S
C876 H865 0.950 . S
C876 C874 1.391 . S
C876 C877 1.400 . S
C877 C871 1.491 . S
C877 C876 1.400 . S
C877 C878 1.398 . S
C878 H866 0.950 . S
C878 C877 1.398 . S
C878 C879 1.391 . S
C879 H867 0.950 . S
C879 C875 1.393 . S
C879 C878 1.391 . S
H880 C888 0.950 . S
H881 C893 0.950 . S
H882 C890 0.950 . S
H883 C892 0.950 . S
H884 C894 0.950 . S
H885 C896 0.950 . S
H886 C898 0.950 . S
H887 C899 0.950 . S
C888 H880 0.950 . S
C888 C889 1.386 . S
C888 C890 1.391 . S
C889 C888 1.386 . S
C889 C893 1.393 . S
C890 H882 0.950 . S
C890 C888 1.391 . S
C890 C891 1.400 . S
C891 C890 1.400 . S
C891 C892 1.398 . S
C891 C897 1.491 . S
C892 H883 0.950 . S
C892 C891 1.398 . S
C892 C893 1.391 . S
C893 H881 0.950 . S
C893 C889 1.393 . S
C893 C892 1.391 . S
C894 H884 0.950 . S
C894 C895 1.386 . S
C894 C896 1.391 . S
C895 C894 1.386 . S
C895 C899 1.393 . S
C896 H885 0.950 . S
C896 C894 1.391 . S
C896 C897 1.400 . S
C897 C891 1.491 . S
C897 C896 1.400 . S
C897 C898 1.398 . S
C898 H886 0.950 . S
C898 C897 1.398 . S
C898 C899 1.391 . S
C899 H887 0.950 . S
C899 C895 1.393 . S
C899 C898 1.391 . S
H900 C908 0.950 . S
H901 C913 0.950 . S
H902 C910 0.950 . S
H903 C912 0.950 . S
H904 C914 0.950 . S
H905 C916 0.950 . S
H906 C918 0.950 . S
H907 C919 0.950 . S
C908 H900 0.950 . S
C908 C909 1.386 . S
C908 C910 1.391 . S
C909 C908 1.386 . S
C909 C913 1.393 . S
C910 H902 0.950 . S
C910 C908 1.391 . S
C910 C911 1.400 . S
C911 C910 1.400 . S
C911 C912 1.398 . S
C911 C917 1.491 . S
C912 H903 0.950 . S
C912 C911 1.398 . S
C912 C913 1.391 . S
C913 H901 0.950 . S
C913 C909 1.393 . S
C913 C912 1.391 . S
C914 H904 0.950 . S
C914 C915 1.386 . S
C914 C916 1.391 . S
C915 C914 1.386 . S
C915 C919 1.393 . S
C916 H905 0.950 . S
C916 C914 1.391 . S
C916 C917 1.400 . S
C917 C911 1.491 . S
C917 C916 1.400 . S
C917 C918 1.398 . S
C918 H906 0.950 . S
C918 C917 1.398 . S
C918 C919 1.391 . S
C919 H907 0.950 . S
C919 C915 1.393 . S
C919 C918 1.391 . S
H920 C928 0.950 . S
H921 C933 0.950 . S
H922 C930 0.950 . S
H923 C932 0.950 . S
H924 C934 0.950 . S
H925 C936 0.950 . S
H926 C938 0.950 . S
H927 C939 0.950 . S
C928 H920 0.950 . S
C928 C929 1.386 . S
C928 C930 1.391 . S
C929 C928 1.386 . S
C929 C933 1.393 . S
C930 H922 0.950 . S
C930 C928 1.391 . S
C930 C931 1.400 . S
C931 C930 1.400 . S
C931 C932 1.398 . S
C931 C937 1.491 . S
C932 H923 0.950 . S
C932 C931 1.398 . S
C932 C933 1.391 . S
C933 H921 0.950 . S
C933 C929 1.393 . S
C933 C932 1.391 . S
C934 H924 0.950 . S
C934 C935 1.386 . S
C934 C936 1.391 . S
C935 C934 1.386 . S
C935 C939 1.393 . S
C936 H925 0.950 . S
C936 C934 1.391 . S
C936 C937 1.400 . S
C937 C931 1.491 . S
C937 C936 1.400 . S
C937 C938 1.398 . S
C938 H926 0.950 . S
C938 C937 1.398 . S
C938 C939 1.391 . S
C939 H927 0.950 . S
C939 C935 1.393 . S
C939 C938 1.391 . S
H940 C948 0.950 . S
H941 C953 0.950 . S
H942 C950 0.950 . S
H943 C952 0.950 . S
H944 C954 0.950 . S
H945 C956 0.950 . S
H946 C958 0.950 . S
H947 C959 0.950 . S
C948 H940 0.950 . S
C948 C949 1.386 . S
C948 C950 1.391 . S
C949 C948 1.386 . S
C949 C953 1.393 . S
C950 H942 0.950 . S
C950 C948 1.391 . S
C950 C951 1.400 . S
C951 C950 1.400 . S
C951 C952 1.398 . S
C951 C957 1.491 . S
C952 H943 0.950 . S
C952 C951 1.398 . S
C952 C953 1.391 . S
C953 H941 0.950 . S
C953 C949 1.393 . S
C953 C952 1.391 . S
C954 H944 0.950 . S
C954 C955 1.386 . S
C954 C956 1.391 . S
C955 C954 1.386 . S
C955 C959 1.393 . S
C956 H945 0.950 . S
C956 C954 1.391 . S
C956 C957 1.400 . S
C957 C951 1.491 . S
C957 C956 1.400 . S
C957 C958 1.398 . S
C958 H946 0.950 . S
C958 C957 1.398 . S
C958 C959 1.391 . S
C959 H947 0.950 . S
C959 C955 1.393 . S
C959 C958 1.391 . S
H960 C968 0.953 1_566 S
H961 C973 0.950 . S
H962 C970 0.928 1_565 S
H963 C972 0.950 . S
H964 C974 0.950 . S
H965 C976 0.950 . S
H966 C978 0.950 . S
H967 C979 0.950 . S
C968 H960 0.953 1_544 S
C968 C969 1.382 . S
C968 C970 1.401 1_554 S
C969 C968 1.382 . S
C969 C973 1.393 . S
C970 H962 0.928 1_545 S
C970 C968 1.401 1_556 S
C970 C971 1.422 1_556 S
C971 C970 1.422 1_554 S
C971 C972 1.398 . S
C971 C977 1.491 1_655 S
C972 H963 0.950 . S
C972 C971 1.398 . S
C972 C973 1.391 . S
C973 H961 0.950 . S
C973 C969 1.393 . S
C973 C972 1.391 . S
C974 H964 0.950 . S
C974 C975 1.386 . S
C974 C976 1.391 . S
C975 C974 1.386 . S
C975 C979 1.393 1_544 S
C976 H965 0.950 . S
C976 C974 1.391 . S
C976 C977 1.400 . S
C977 C971 1.491 1_455 S
C977 C976 1.400 . S
C977 C978 1.398 1_544 S
C978 H966 0.950 . S
C978 C977 1.398 1_566 S
C978 C979 1.391 . S
C979 H967 0.950 . S
C979 C975 1.393 1_566 S
C979 C978 1.391 . S
H980 C988 0.950 . S
H981 C993 0.950 . S
H982 C990 0.950 . S
H983 C992 0.950 . S
H984 C994 0.950 . S
H985 C996 0.950 . S
H986 C998 0.950 . S
H987 C999 0.950 . S
C988 H980 0.950 . S
C988 C989 1.386 . S
C988 C990 1.391 . S
C989 C988 1.386 . S
C989 C993 1.393 . S
C990 H982 0.950 . S
C990 C988 1.391 . S
C990 C991 1.400 . S
C991 C990 1.400 . S
C991 C992 1.398 . S
C991 C997 1.491 . S
C992 H983 0.950 . S
C992 C991 1.398 . S
C992 C993 1.391 . S
C993 H981 0.950 . S
C993 C989 1.393 . S
C993 C992 1.391 . S
C994 H984 0.950 . S
C994 C995 1.386 . S
C994 C996 1.391 . S
C995 C994 1.386 . S
C995 C999 1.393 . S
C996 H985 0.950 . S
C996 C994 1.391 . S
C996 C997 1.400 . S
C997 C991 1.491 . S
C997 C996 1.400 . S
C997 C998 1.398 . S
C998 H986 0.950 . S
C998 C997 1.398 . S
C998 C999 1.391 . S
C999 H987 0.950 . S
C999 C995 1.393 . S
C999 C998 1.391 . S
H1000 C1008 0.950 . S
H1001 C1013 0.950 . S
H1002 C1010 0.950 . S
H1003 C1012 0.950 . S
H1004 C1014 0.950 . S
H1005 C1016 0.950 . S
H1006 C1018 0.950 . S
H1007 C1019 0.950 . S
C1008 H1000 0.950 . S
C1008 C1009 1.386 . S
C1008 C1010 1.391 . S
C1009 C1008 1.386 . S
C1009 C1013 1.393 1_545 S
C1010 H1002 0.950 . S
C1010 C1008 1.391 . S
C1010 C1011 1.400 . S
C1011 C1010 1.400 . S
C1011 C1012 1.398 1_545 S
C1011 C1017 1.491 . S
C1012 H1003 0.950 . S
C1012 C1011 1.398 1_565 S
C1012 C1013 1.391 . S
C1013 H1001 0.950 . S
C1013 C1009 1.393 1_565 S
C1013 C1012 1.391 . S
C1014 H1004 0.950 . S
C1014 C1015 1.386 1_565 S
C1014 C1016 1.391 . S
C1015 C1014 1.386 1_545 S
C1015 C1019 1.393 . S
C1016 H1005 0.950 . S
C1016 C1014 1.391 . S
C1016 C1017 1.400 1_565 S
C1017 C1011 1.491 . S
C1017 C1016 1.400 1_545 S
C1017 C1018 1.398 . S
C1018 H1006 0.950 . S
C1018 C1017 1.398 . S
C1018 C1019 1.391 . S
C1019 H1007 0.950 . S
C1019 C1015 1.393 . S
C1019 C1018 1.391 . S
H1020 C1028 0.950 . S
H1021 C1033 0.950 . S
H1022 C1030 0.950 . S
H1023 C1032 0.950 . S
H1024 C1034 0.950 . S
H1025 C1036 0.950 . S
H1026 C1038 0.950 . S
H1027 C1039 0.950 . S
C1028 H1020 0.950 . S
C1028 C1029 1.386 . S
C1028 C1030 1.391 . S
C1029 C1028 1.386 . S
C1029 C1033 1.393 . S
C1030 H1022 0.950 . S
C1030 C1028 1.391 . S
C1030 C1031 1.400 . S
C1031 C1030 1.400 . S
C1031 C1032 1.398 . S
C1031 C1037 1.491 . S
C1032 H1023 0.950 . S
C1032 C1031 1.398 . S
C1032 C1033 1.391 . S
C1033 H1021 0.950 . S
C1033 C1029 1.393 . S
C1033 C1032 1.391 . S
C1034 H1024 0.950 . S
C1034 C1035 1.386 . S
C1034 C1036 1.391 . S
C1035 C1034 1.386 . S
C1035 C1039 1.393 . S
C1036 H1025 0.950 . S
C1036 C1034 1.391 . S
C1036 C1037 1.400 . S
C1037 C1031 1.491 . S
C1037 C1036 1.400 . S
C1037 C1038 1.398 . S
C1038 H1026 0.950 . S
C1038 C1037 1.398 . S
C1038 C1039 1.391 . S
C1039 H1027 0.950 . S
C1039 C1035 1.393 . S
C1039 C1038 1.391 . S
H1040 C1048 0.950 . S
H1041 C1053 0.950 . S
H1042 C1050 0.950 . S
H1043 C1052 0.950 . S
H1044 C1054 0.950 . S
H1045 C1056 0.950 . S
H1046 C1058 0.950 . S
H1047 C1059 0.950 . S
C1048 H1040 0.950 . S
C1048 C1049 1.386 . S
C1048 C1050 1.391 . S
C1049 C1048 1.386 . S
C1049 C1053 1.393 . S
C1050 H1042 0.950 . S
C1050 C1048 1.391 . S
C1050 C1051 1.400 . S
C1051 C1050 1.400 . S
C1051 C1052 1.398 . S
C1051 C1057 1.491 . S
C1052 H1043 0.950 . S
C1052 C1051 1.398 . S
C1052 C1053 1.391 . S
C1053 H1041 0.950 . S
C1053 C1049 1.393 . S
C1053 C1052 1.391 . S
C1054 H1044 0.950 . S
C1054 C1055 1.386 . S
C1054 C1056 1.391 . S
C1055 C1054 1.386 . S
C1055 C1059 1.393 . S
C1056 H1045 0.950 . S
C1056 C1054 1.391 . S
C1056 C1057 1.400 . S
C1057 C1051 1.491 . S
C1057 C1056 1.400 . S
C1057 C1058 1.398 . S
C1058 H1046 0.950 . S
C1058 C1057 1.398 . S
C1058 C1059 1.391 . S
C1059 H1047 0.950 . S
C1059 C1055 1.393 . S
C1059 C1058 1.391 . S
H1060 C1068 0.950 . S
H1061 C1073 0.950 . S
H1062 C1070 0.950 . S
H1063 C1072 0.950 . S
H1064 C1074 0.950 . S
H1065 C1076 0.950 . S
H1066 C1078 0.950 . S
H1067 C1079 0.950 . S
C1068 H1060 0.950 . S
C1068 C1069 1.386 . S
C1068 C1070 1.391 . S
C1069 C1068 1.386 . S
C1069 C1073 1.393 . S
C1070 H1062 0.950 . S
C1070 C1068 1.391 . S
C1070 C1071 1.400 . S
C1071 C1070 1.400 . S
C1071 C1072 1.398 . S
C1071 C1077 1.491 . S
C1072 H1063 0.950 . S
C1072 C1071 1.398 . S
C1072 C1073 1.391 . S
C1073 H1061 0.950 . S
C1073 C1069 1.393 . S
C1073 C1072 1.391 . S
C1074 H1064 0.950 . S
C1074 C1075 1.386 . S
C1074 C1076 1.391 . S
C1075 C1074 1.386 . S
C1075 C1079 1.393 . S
C1076 H1065 0.950 . S
C1076 C1074 1.391 . S
C1076 C1077 1.400 . S
C1077 C1071 1.491 . S
C1077 C1076 1.400 . S
C1077 C1078 1.398 . S
C1078 H1066 0.950 . S
C1078 C1077 1.398 . S
C1078 C1079 1.391 . S
C1079 H1067 0.950 . S
C1079 C1075 1.393 . S
C1079 C1078 1.391 . S
H1080 C1088 0.950 . S
H1081 C1093 0.950 . S
H1082 C1090 0.950 . S
H1083 C1092 0.950 . S
H1084 C1094 0.950 . S
H1085 C1096 0.950 . S
H1086 C1098 0.950 . S
H1087 C1099 0.950 . S
C1088 H1080 0.950 . S
C1088 C1089 1.386 . S
C1088 C1090 1.391 . S
C1089 C1088 1.386 . S
C1089 C1093 1.393 . S
C1090 H1082 0.950 . S
C1090 C1088 1.391 . S
C1090 C1091 1.400 . S
C1091 C1090 1.400 . S
C1091 C1092 1.398 . S
C1091 C1097 1.491 . S
C1092 H1083 0.950 . S
C1092 C1091 1.398 . S
C1092 C1093 1.391 . S
C1093 H1081 0.950 . S
C1093 C1089 1.393 . S
C1093 C1092 1.391 . S
C1094 H1084 0.950 . S
C1094 C1095 1.386 . S
C1094 C1096 1.391 . S
C1095 C1094 1.386 . S
C1095 C1099 1.393 . S
C1096 H1085 0.950 . S
C1096 C1094 1.391 . S
C1096 C1097 1.400 . S
C1097 C1091 1.491 . S
C1097 C1096 1.400 . S
C1097 C1098 1.398 . S
C1098 H1086 0.950 . S
C1098 C1097 1.398 . S
C1098 C1099 1.391 . S
C1099 H1087 0.950 . S
C1099 C1095 1.393 . S
C1099 C1098 1.391 . S
H1100 C1108 0.950 . S
H1101 C1113 0.950 . S
H1102 C1110 0.950 . S
H1103 C1112 0.950 . S
H1104 C1114 0.950 . S
H1105 C1116 0.950 . S
H1106 C1118 0.950 . S
H1107 C1119 0.950 . S
C1108 H1100 0.950 . S
C1108 C1109 1.386 . S
C1108 C1110 1.391 . S
C1109 C1108 1.386 . S
C1109 C1113 1.393 . S
C1110 H1102 0.950 . S
C1110 C1108 1.391 . S
C1110 C1111 1.400 . S
C1111 C1110 1.400 . S
C1111 C1112 1.398 . S
C1111 C1117 1.491 1_655 S
C1112 H1103 0.950 . S
C1112 C1111 1.398 . S
C1112 C1113 1.391 . S
C1113 H1101 0.950 . S
C1113 C1109 1.393 . S
C1113 C1112 1.391 . S
C1114 H1104 0.950 . S
C1114 C1115 1.386 . S
C1114 C1116 1.391 . S
C1115 C1114 1.386 . S
C1115 C1119 1.393 . S
C1116 H1105 0.950 . S
C1116 C1114 1.391 . S
C1116 C1117 1.400 . S
C1117 C1111 1.491 1_455 S
C1117 C1116 1.400 . S
C1117 C1118 1.398 . S
C1118 H1106 0.950 . S
C1118 C1117 1.398 . S
C1118 C1119 1.391 . S
C1119 H1107 0.950 . S
C1119 C1115 1.393 . S
C1119 C1118 1.391 . S
C649 C21 1.480 . S
C655 C141 1.492 . S
C669 C61 1.493 . S
C675 C15 1.501 . S
C689 C55 1.503 . S
C695 C82 1.488 . S
C709 C135 1.502 . S
C715 C95 1.502 . S
C729 C301 1.482 . S
C735 C162 1.496 . S
C749 C175 1.500 . S
C755 C221 1.488 . S
C769 C261 1.495 . S
C775 C215 1.500 . S
C789 C295 1.506 . S
C795 C255 1.506 . S
C809 C461 1.487 . S
C815 C341 1.484 . S
C829 C335 1.499 . S
C835 C381 1.487 . S
C849 C402 1.494 . S
C855 C375 1.500 . S
C869 C415 1.503 . S
C875 C455 1.503 . S
C889 C482 1.486 . S
C895 C621 1.496 . S
C909 C541 1.483 . S
C915 C495 1.500 . S
C929 C535 1.500 . S
C935 C581 1.495 . S
C949 C575 1.505 . S
C955 C615 1.504 . S
C969 C181 1.491 . S
C975 C2 1.486 . S
C989 C522 1.485 . S
C995 C42 1.480 . S
C1009 C101 1.503 . S
C1015 C242 1.498 . S
C1029 C602 1.490 . S
C1035 C122 1.502 . S
C1049 C362 1.490 . S
C1055 C202 1.489 . S
C1069 C282 1.480 . S
C1075 C442 1.500 . S
C1089 C501 1.494 . S
C1095 C322 1.489 . S
C1109 C421 1.494 . S
C1115 C562 1.494 . S
