# Generated by pormake.
# Topology rob, (6)-cn, num edge types: 1
# Building blocks:
#     Node 0, Type 0, BuildingBlock: CUKXOW_clean_sbu_0, # of connection points: 6
#     Node 1, Type 0, BuildingBlock: CUKXOW_clean_sbu_0, # of connection points: 6
#     Node 2, Type 0, BuildingBlock: CUKXOW_clean_sbu_0, # of connection points: 6
#     Node 3, Type 0, BuildingBlock: CUKXOW_clean_sbu_0, # of connection points: 6
#     Edge 4, Type (0, 0), BuildingBlock: MIFKUJ_clean_linker_0, # of connection points: 2
#     Edge 5, Type (0, 0), BuildingBlock: MIFKUJ_clean_linker_0, # of connection points: 2
#     Edge 6, Type (0, 0), BuildingBlock: MIFKUJ_clean_linker_0, # of connection points: 2
#     Edge 7, Type (0, 0), BuildingBlock: MIFKUJ_clean_linker_0, # of connection points: 2
#     Edge 8, Type (0, 0), BuildingBlock: MIFKUJ_clean_linker_0, # of connection points: 2
#     Edge 9, Type (0, 0), BuildingBlock: MIFKUJ_clean_linker_0, # of connection points: 2
#     Edge 10, Type (0, 0), BuildingBlock: MIFKUJ_clean_linker_0, # of connection points: 2
#     Edge 11, Type (0, 0), BuildingBlock: MIFKUJ_clean_linker_0, # of connection points: 2
#     Edge 12, Type (0, 0), BuildingBlock: MIFKUJ_clean_linker_0, # of connection points: 2
#     Edge 13, Type (0, 0), BuildingBlock: MIFKUJ_clean_linker_0, # of connection points: 2
#     Edge 14, Type (0, 0), BuildingBlock: MIFKUJ_clean_linker_0, # of connection points: 2
#     Edge 15, Type (0, 0), BuildingBlock: MIFKUJ_clean_linker_0, # of connection points: 2
# Relax obj value: 0.015
# Max RMSD: 0.092
# Mean RMSD: 0.092
data_MOF--net-rob--node1-CUKXOW_clean_sbu_0--edge1-MIFKUJ_clean_linker_0
_symmetry_space_group_name_H-M    P1
_symmetry_Int_Tables_number       1
_symmetry_cell_setting            triclinic
loop_
_symmetry_equiv_pos_as_xyz
'x, y, z'
_cell_length_a     16.340014
_cell_length_b     36.126719
_cell_length_c     37.035578
_cell_angle_alpha  103.07352
_cell_angle_beta   89.912917
_cell_angle_gamma 89.979633
loop_
_atom_site_label
_atom_site_type_symbol
_atom_site_fract_x
_atom_site_fract_y
_atom_site_fract_z
_atom_type_partial_charge
Tb0 Tb 0.2963 0.2545 0.03797 0.0
C1 C 0.3014 0.32972 0.00916 0.0
Tb2 Tb 0.17654 0.26227 0.97574 0.0
O3 O 0.40037 0.24993 0.99969 0.0
O4 O 0.2841 0.23136 0.98037 0.0
O5 O 0.32411 0.31266 0.03576 0.0
C6 C 0.11664 0.26918 0.91055 0.0
O7 O 0.24766 0.31483 0.98294 0.0
C8 C 0.11666 0.28026 0.0432 0.0
C9 C 0.17124 0.18856 0.00512 0.0
O10 O 0.19286 0.27271 0.92031 0.0
O11 O 0.07366 0.26175 0.93756 0.0
O12 O 0.07174 0.26873 0.01392 0.0
O13 O 0.18849 0.28512 0.03309 0.0
O14 O 0.16451 0.2022 0.97483 0.0
O15 O 0.21055 0.20732 0.0351 0.0
C16 C 0.36096 0.24839 0.10254 0.0
O17 O 0.37032 0.22387 0.07122 0.0
O18 O 0.31598 0.27626 0.09732 0.0
C19 C 0.35564 0.23734 0.97047 0.0
Tb20 Tb 0.81428 0.75113 0.04008 0.0
C21 C 0.81514 0.82649 0.01126 0.0
Tb22 Tb 0.70142 0.75581 0.97422 0.0
O23 O 0.9234 0.75022 0.00541 0.0
O24 O 0.8122 0.72857 0.982 0.0
O25 O 0.83541 0.81017 0.03878 0.0
C26 C 0.64537 0.76007 0.90749 0.0
O27 O 0.76705 0.80999 0.98323 0.0
C28 C 0.63222 0.77231 0.0399 0.0
C29 C 0.7033 0.68133 1.00231 0.0
O30 O 0.7164 0.77164 0.92097 0.0
O31 O 0.60501 0.74657 0.93184 0.0
O32 O 0.59165 0.75985 0.00949 0.0
O33 O 0.70448 0.77881 0.03173 0.0
O34 O 0.69976 0.69528 0.97212 0.0
O35 O 0.73627 0.70075 0.03367 0.0
C36 C 0.87047 0.74669 0.10676 0.0
O37 O 0.81529 0.77022 0.10049 0.0
O38 O 0.89484 0.72565 0.07534 0.0
C39 C 0.88424 0.73693 0.97465 0.0
Tb40 Tb 0.3187 0.74406 0.4711 0.0
C41 C 0.31135 0.66914 0.50047 0.0
Tb42 Tb 0.20505 0.74276 0.53766 0.0
O43 O 0.42614 0.74277 0.50612 0.0
O44 O 0.31708 0.76824 0.52865 0.0
O45 O 0.33434 0.68481 0.47287 0.0
C46 C 0.15506 0.74009 0.60589 0.0
O47 O 0.26392 0.68684 0.52833 0.0
C48 C 0.13459 0.72785 0.47247 0.0
C49 C 0.2097 0.81607 0.50711 0.0
O50 O 0.23026 0.73886 0.59466 0.0
O51 O 0.10725 0.74257 0.57853 0.0
O52 O 0.0958 0.74219 0.50313 0.0
O53 O 0.20597 0.71902 0.48009 0.0
O54 O 0.2007 0.80283 0.53756 0.0
O55 O 0.24515 0.79585 0.47659 0.0
C56 C 0.38104 0.74743 0.4052 0.0
O57 O 0.40491 0.76789 0.4369 0.0
O58 O 0.32236 0.72516 0.41069 0.0
C59 C 0.38774 0.75864 0.53643 0.0
Tb60 Tb 0.79331 0.24344 0.47048 0.0
C61 C 0.80975 0.16779 0.49786 0.0
Tb62 Tb 0.67334 0.22999 0.53144 0.0
O63 O 0.89662 0.25027 0.50947 0.0
O64 O 0.77754 0.26343 0.52835 0.0
O65 O 0.82773 0.1856 0.47116 0.0
C66 C 0.61023 0.22027 0.59546 0.0
O67 O 0.75611 0.18113 0.52475 0.0
C68 C 0.61504 0.21255 0.46375 0.0
C69 C 0.66491 0.30653 0.50597 0.0
O70 O 0.67828 0.20576 0.58068 0.0
O71 O 0.5771 0.2398 0.57394 0.0
O72 O 0.56906 0.21985 0.49311 0.0
O73 O 0.68795 0.21014 0.47377 0.0
O74 O 0.65873 0.29074 0.535 0.0
O75 O 0.70569 0.29001 0.47553 0.0
C76 C 0.85738 0.25209 0.40642 0.0
O77 O 0.87277 0.27383 0.43874 0.0
O78 O 0.80689 0.22574 0.41044 0.0
C79 C 0.84976 0.25966 0.53855 0.0
H80 H 0.63005 0.63323 0.94357 0.0
H81 H 0.56332 0.57265 0.94312 0.0
H82 H 0.62769 0.58342 0.05794 0.0
H83 H 0.69525 0.64389 0.05866 0.0
H84 H 0.65299 0.51103 0.0157 0.0
H85 H 0.4385 0.60593 0.0354 0.0
H86 H 0.35906 0.6582 0.01975 0.0
H87 H 0.29129 0.5858 0.91542 0.0
H88 H 0.37134 0.53324 0.93023 0.0
H89 H 0.39043 0.3761 0.06361 0.0
H90 H 0.45794 0.43559 0.06079 0.0
H91 H 0.36559 0.42642 0.95001 0.0
H92 H 0.29589 0.36738 0.953 0.0
H93 H 0.35632 0.49712 0.98727 0.0
H94 H 0.56571 0.4022 0.9659 0.0
H95 H 0.6466 0.34907 0.97888 0.0
H96 H 0.72672 0.41975 0.08207 0.0
H97 H 0.64536 0.47318 0.06995 0.0
C98 C 0.63061 0.62264 0.96869 0.0
C99 C 0.66773 0.64349 1.00121 0.0
C100 C 0.59218 0.58807 0.96838 0.0
C101 C 0.58979 0.57386 1.00062 0.0
C102 C 0.62883 0.59399 0.03279 0.0
C103 C 0.66727 0.62858 0.03315 0.0
C104 C 0.5449 0.53843 1.00113 0.0
C105 C 0.58796 0.50807 0.00989 0.0
C106 C 0.4606 0.53433 0.99245 0.0
C107 C 0.41151 0.56577 0.98378 0.0
C108 C 0.40709 0.60124 0.00902 0.0
C109 C 0.36189 0.63091 1.00032 0.0
C110 C 0.32029 0.62535 0.96658 0.0
C111 C 0.3236 0.59007 0.94152 0.0
C112 C 0.36881 0.56033 0.95007 0.0
C113 C 0.38422 0.38677 0.03866 0.0
C114 C 0.33843 0.36682 0.00837 0.0
C115 C 0.42319 0.4207 0.03703 0.0
C116 C 0.41846 0.43497 1.00484 0.0
C117 C 0.37067 0.41575 0.975 0.0
C118 C 0.33093 0.382 0.97676 0.0
C119 C 0.46421 0.46969 1.00221 0.0
C120 C 0.42141 0.49993 0.99297 0.0
C121 C 0.54902 0.47353 0.01001 0.0
C122 C 0.59894 0.44161 0.01715 0.0
C123 C 0.60022 0.40635 0.99146 0.0
C124 C 0.64619 0.37619 0.99865 0.0
C125 C 0.69165 0.38101 0.03131 0.0
C126 C 0.69144 0.41605 0.0568 0.0
C127 C 0.64549 0.4463 0.04976 0.0
H128 H 0.72715 0.35761 0.03685 0.0
H129 H 0.28537 0.64836 0.95987 0.0
H130 H 0.27428 0.62596 0.55028 0.0
H131 H 0.32877 0.56352 0.55219 0.0
H132 H 0.47062 0.56244 0.45362 0.0
H133 H 0.41542 0.62456 0.45102 0.0
H134 H 0.40156 0.49475 0.45046 0.0
H135 H 0.55691 0.58484 0.53962 0.0
H136 H 0.57675 0.6377 0.59412 0.0
H137 H 0.46121 0.57268 0.66363 0.0
H138 H 0.4394 0.51967 0.60945 0.0
H139 H 0.69492 0.35452 0.46052 0.0
H140 H 0.62823 0.41504 0.46082 0.0
H141 H 0.48573 0.40493 0.55627 0.0
H142 H 0.55182 0.34391 0.55587 0.0
H143 H 0.54813 0.47691 0.56257 0.0
H144 H 0.39823 0.38566 0.47294 0.0
H145 H 0.37885 0.33332 0.41796 0.0
H146 H 0.48696 0.40088 0.34892 0.0
H147 H 0.5082 0.45345 0.40357 0.0
C148 C 0.31666 0.6124 0.52883 0.0
C149 C 0.34068 0.6304 0.50055 0.0
C150 C 0.34804 0.57676 0.53009 0.0
C151 C 0.40463 0.55859 0.50335 0.0
C152 C 0.42711 0.57601 0.47457 0.0
C153 C 0.39555 0.61158 0.47319 0.0
C154 C 0.44143 0.52167 0.50555 0.0
C155 C 0.43438 0.49096 0.47482 0.0
C156 C 0.48253 0.51654 0.53772 0.0
C157 C 0.49582 0.5484 0.57039 0.0
C158 C 0.53512 0.58192 0.56648 0.0
C159 C 0.54682 0.6119 0.59732 0.0
C160 C 0.52024 0.60856 0.63231 0.0
C161 C 0.48178 0.57525 0.63652 0.0
C162 C 0.46974 0.54522 0.60575 0.0
C163 C 0.64879 0.36496 0.48134 0.0
C164 C 0.6275 0.34412 0.50772 0.0
C165 C 0.61098 0.39961 0.48157 0.0
C166 C 0.5511 0.41412 0.50819 0.0
C167 C 0.53152 0.39406 0.53537 0.0
C168 C 0.5693 0.35924 0.53509 0.0
C169 C 0.50888 0.45018 0.50735 0.0
C170 C 0.51491 0.48069 0.53832 0.0
C171 C 0.46714 0.4552 0.47534 0.0
C172 C 0.45516 0.42346 0.44243 0.0
C173 C 0.41846 0.38927 0.44609 0.0
C174 C 0.40694 0.35959 0.41496 0.0
C175 C 0.43121 0.36388 0.37995 0.0
C176 C 0.46777 0.3977 0.37603 0.0
C177 C 0.47955 0.42744 0.40708 0.0
H178 H 0.42191 0.34094 0.35586 0.0
H179 H 0.52977 0.6317 0.65614 0.0
H180 H 0.17692 0.15027 0.06088 0.0
H181 H 0.11535 0.08891 0.06164 0.0
H182 H 0.0212 0.08092 0.9514 0.0
H183 H 0.08211 0.14246 0.95038 0.0
H184 H 0.90615 0.06257 0.99815 0.0
H185 H 0.18466 0.02937 0.96362 0.0
H186 H 0.33483 0.03335 0.9698 0.0
H187 H 0.31923 0.00316 0.07527 0.0
H188 H 0.16879 -0.0005 0.06994 0.0
H189 H 0.79833 0.86736 0.95786 0.0
H190 H 0.85674 0.92938 0.95755 0.0
H191 H 0.96381 0.93454 0.06499 0.0
H192 H 0.90669 0.8722 0.06538 0.0
H193 H 0.07229 0.95456 0.01954 0.0
H194 H 0.7945 0.9879 0.05466 0.0
H195 H 0.64419 0.98419 0.0491 0.0
H196 H 0.65789 0.01447 0.94362 0.0
H197 H 0.80844 0.01789 0.94834 0.0
C198 C 0.14335 0.13548 0.03671 0.0
C199 C 0.13475 0.15121 0.00547 0.0
C200 C 0.1084 0.10035 0.03718 0.0
C201 C 0.06444 0.08026 0.00644 0.0
C202 C 0.05506 0.096 0.97537 0.0
C203 C 0.09016 0.1311 0.97481 0.0
C204 C 0.02746 0.04299 0.00688 0.0
C205 C 0.9425 0.03875 1.00233 0.0
C206 C 0.07487 0.01233 0.01326 0.0
C207 C 0.16536 0.01453 0.01654 0.0
C208 C 0.21318 0.0239 0.98828 0.0
C209 C 0.29837 0.02603 0.99159 0.0
C210 C 0.33654 0.0186 0.02295 0.0
C211 C 0.28958 0.00895 0.05102 0.0
C212 C 0.20435 0.00681 0.04785 0.0
C213 C 0.83375 0.88174 0.9816 0.0
C214 C 0.84758 0.86481 0.01172 0.0
C215 C 0.86692 0.9173 0.9814 0.0
C216 C 0.91396 0.93675 0.01141 0.0
C217 C 0.92768 0.92 0.04155 0.0
C218 C 0.89474 0.88439 0.04175 0.0
C219 C 0.95078 0.9741 0.01092 0.0
C220 C 0.03579 0.97836 0.01542 0.0
C221 C 0.90336 0.00482 1.00462 0.0
C222 C 0.81281 0.00282 1.00171 0.0
C223 C 0.76551 0.99348 0.03015 0.0
C224 C 0.68026 0.99149 0.02717 0.0
C225 C 0.64152 -0.00099 0.99599 0.0
C226 C 0.68797 0.00862 0.96775 0.0
C227 C 0.77326 0.01063 0.97058 0.0
H228 H 0.5755 0.99747 0.99375 0.0
H229 H 0.40251 0.02023 0.02545 0.0
H230 H 0.907 0.12557 0.44349 0.0
H231 H 0.9795 0.06667 0.44465 0.0
H232 H 0.88157 0.0692 0.55338 0.0
H233 H 0.80907 0.12817 0.55265 0.0
H234 H 0.04735 0.05461 0.54861 0.0
H235 H 0.80352 0.00984 0.47934 0.0
H236 H 0.70299 0.00538 0.42897 0.0
H237 H 0.89109 0.96649 0.34817 0.0
H238 H 0.99309 0.97136 0.39806 0.0
H239 H 0.13043 0.86569 0.56308 0.0
H240 H 0.07029 0.92701 0.561 0.0
H241 H 0.1564 0.91462 0.44871 0.0
H242 H 0.21556 0.85295 0.45026 0.0
H243 H 0.00143 0.93531 0.45395 0.0
H244 H 0.245 0.97805 0.521 0.0
H245 H 0.34949 0.98368 0.56989 0.0
H246 H 0.1687 0.02721 0.6529 0.0
H247 H 0.06276 0.02129 0.60455 0.0
C248 C 0.90063 0.1136 0.46764 0.0
C249 C 0.85197 0.13156 0.49794 0.0
C250 C 0.94195 0.07986 0.46818 0.0
C251 C 0.93544 0.0635 0.499 0.0
C252 C 0.8873 0.0814 0.52933 0.0
C253 C 0.84558 0.11501 0.52875 0.0
C254 C 0.97956 0.02791 0.49987 0.0
C255 C 0.03669 0.02835 0.52821 0.0
C256 C 0.9674 0.99409 0.47249 0.0
C257 C 0.90616 0.99143 0.44245 0.0
C258 C 0.82365 0.00075 0.45083 0.0
C259 C 0.76636 0.99807 0.42236 0.0
C260 C 0.79068 0.9858 0.38539 0.0
C261 C 0.87236 0.9761 0.37682 0.0
C262 C 0.92993 0.97881 0.40518 0.0
C263 C 0.13726 0.8761 0.53802 0.0
C264 C 0.17782 0.85435 0.50682 0.0
C265 C 0.10316 0.9113 0.53696 0.0
C266 C 0.10949 0.92557 0.50482 0.0
C267 C 0.15086 0.90416 0.47382 0.0
C268 C 0.18483 0.86893 0.47481 0.0
C269 C 0.06911 0.96183 0.50286 0.0
C270 C 0.01255 0.96155 0.47431 0.0
C271 C 0.08241 0.99587 0.52986 0.0
C272 C 0.1457 0.99885 0.55913 0.0
C273 C 0.22728 0.98843 0.5497 0.0
C274 C 0.28684 0.99176 0.57732 0.0
C275 C 0.26572 0.00572 0.61449 0.0
C276 C 0.18496 0.01636 0.62411 0.0
C277 C 0.12514 0.01304 0.5966 0.0
H278 H 0.31198 0.00838 0.63582 0.0
H279 H 0.74621 0.9837 0.36339 0.0
H280 H 0.6897 0.18161 0.39776 0.0
H281 H 0.65021 0.18985 0.33601 0.0
H282 H 0.43217 0.24923 0.38272 0.0
H283 H 0.47494 0.24384 0.44478 0.0
H284 H 0.42196 0.1825 0.31231 0.0
H285 H 0.54496 0.30187 0.36904 0.0
H286 H 0.64856 0.34811 0.39844 0.0
H287 H 0.80882 0.31095 0.30546 0.0
H288 H 0.70644 0.26378 0.2756 0.0
H289 H 0.35832 0.30182 0.16714 0.0
H290 H 0.40422 0.29503 0.22823 0.0
H291 H 0.47805 0.17954 0.18109 0.0
H292 H 0.43317 0.18638 0.11965 0.0
H293 H 0.55864 0.27598 0.2527 0.0
H294 H 0.41577 0.12867 0.25079 0.0
H295 H 0.30469 0.088 0.21869 0.0
H296 H 0.17712 0.18649 0.20177 0.0
H297 H 0.2847 0.2279 0.23551 0.0
C298 C 0.63489 0.19749 0.39491 0.0
C299 C 0.58727 0.21351 0.42609 0.0
C300 C 0.61174 0.20163 0.35968 0.0
C301 C 0.53901 0.22065 0.35507 0.0
C302 C 0.48888 0.23474 0.38589 0.0
C303 C 0.51324 0.23154 0.42121 0.0
C304 C 0.51486 0.22566 0.31803 0.0
C305 C 0.45211 0.20274 0.29911 0.0
C306 C 0.55387 0.25245 0.30123 0.0
C307 C 0.61828 0.27868 0.32037 0.0
C308 C 0.60296 0.30279 0.35521 0.0
C309 C 0.66162 0.32923 0.37199 0.0
C310 C 0.73611 0.33191 0.35425 0.0
C311 C 0.7517 0.30837 0.31948 0.0
C312 C 0.69332 0.28176 0.30261 0.0
C313 C 0.38504 0.2751 0.16977 0.0
C314 C 0.39233 0.2446 0.13879 0.0
C315 C 0.4114 0.27131 0.2046 0.0
C316 C 0.44414 0.23676 0.20914 0.0
C317 C 0.45257 0.20638 0.17812 0.0
C318 C 0.42712 0.21033 0.14312 0.0
C319 C 0.46694 0.23231 0.24661 0.0
C320 C 0.52931 0.25535 0.26566 0.0
C321 C 0.42726 0.20581 0.26361 0.0
C322 C 0.35937 0.18137 0.24512 0.0
C323 C 0.36356 0.14171 0.24059 0.0
C324 C 0.30094 0.11852 0.22223 0.0
C325 C 0.23393 0.13466 0.20812 0.0
C326 C 0.22891 0.17404 0.21275 0.0
C327 C 0.29057 0.19739 0.23163 0.0
H328 H 0.18578 0.11667 0.19368 0.0
H329 H 0.78136 0.35252 0.36723 0.0
H330 H 0.50866 0.73094 0.06044 0.0
H331 H 0.46626 0.72966 0.12363 0.0
H332 H 0.64498 0.81614 0.1674 0.0
H333 H 0.68778 0.81706 0.10419 0.0
H334 H 0.65499 0.76246 0.2031 0.0
H335 H 0.43523 0.8337 0.16847 0.0
H336 H 0.3192 0.84982 0.13242 0.0
H337 H 0.18727 0.75232 0.14922 0.0
H338 H 0.30324 0.73508 0.18466 0.0
H339 H 0.49965 0.79488 0.38973 0.0
H340 H 0.54677 0.80077 0.32836 0.0
H341 H 0.3817 0.71105 0.27699 0.0
H342 H 0.33352 0.70566 0.33811 0.0
H343 H 0.3672 0.77016 0.24673 0.0
H344 H 0.59497 0.69864 0.28015 0.0
H345 H 0.71138 0.68617 0.31812 0.0
H346 H 0.82705 0.78935 0.30609 0.0
H347 H 0.71117 0.80264 0.2683 0.0
C348 C 0.53801 0.74997 0.08362 0.0
C349 C 0.60195 0.77382 0.07767 0.0
C350 C 0.51371 0.74931 0.1197 0.0
C351 C 0.55202 0.773 0.15038 0.0
C352 C 0.6147 0.79749 0.14425 0.0
C353 C 0.63925 0.79796 0.1082 0.0
C354 C 0.52957 0.77094 0.1888 0.0
C355 C 0.59208 0.7647 0.2128 0.0
C356 C 0.44739 0.77326 0.20135 0.0
C357 C 0.37861 0.78281 0.17884 0.0
C358 C 0.38205 0.81535 0.16401 0.0
C359 C 0.31615 0.82475 0.14375 0.0
C360 C 0.24608 0.80201 0.13838 0.0
C361 C 0.24175 0.76981 0.15324 0.0
C362 C 0.3076 0.7602 0.1734 0.0
C363 C 0.47403 0.77627 0.36528 0.0
C364 C 0.41297 0.74985 0.36855 0.0
C365 C 0.50131 0.77948 0.33027 0.0
C366 C 0.46834 0.75611 0.29803 0.0
C367 C 0.40813 0.72935 0.30144 0.0
C368 C 0.38071 0.72625 0.33635 0.0
C369 C 0.49226 0.76091 0.26065 0.0
C370 C 0.43003 0.76787 0.23693 0.0
C371 C 0.57467 0.75964 0.24853 0.0
C372 C 0.64374 0.75189 0.27179 0.0
C373 C 0.6448 0.71888 0.28592 0.0
C374 C 0.71086 0.7116 0.30729 0.0
C375 C 0.77635 0.73705 0.31462 0.0
C376 C 0.77614 0.76974 0.30048 0.0
C377 C 0.71035 0.77713 0.27905 0.0
H378 H 0.82729 0.73147 0.33123 0.0
H379 H 0.19499 0.80944 0.12284 0.0
H380 H 0.50181 0.73248 0.87396 0.0
H381 H 0.45911 0.7319 0.81022 0.0
H382 H 0.68451 0.78723 0.7924 0.0
H383 H 0.72759 0.7874 0.85583 0.0
H384 H 0.55339 0.8202 0.76753 0.0
H385 H 0.66424 0.69675 0.75778 0.0
H386 H 0.68241 0.63325 0.77058 0.0
H387 H 0.43623 0.60379 0.73526 0.0
H388 H 0.41551 0.66764 0.72329 0.0
H389 H 0.51493 0.71954 0.55728 0.0
H390 H 0.56074 0.72076 0.6205 0.0
H391 H 0.37209 0.80254 0.66388 0.0
H392 H 0.32866 0.80253 0.60069 0.0
H393 H 0.48838 0.701 0.67582 0.0
H394 H 0.43174 0.85947 0.74459 0.0
H395 H 0.43213 0.92174 0.72769 0.0
H396 H 0.6019 0.87923 0.63943 0.0
H397 H 0.6033 0.81688 0.65608 0.0
C398 C 0.54198 0.74459 0.8564 0.0
C399 C 0.61772 0.76031 0.8697 0.0
C400 C 0.51774 0.74412 0.82004 0.0
C401 C 0.56884 0.75952 0.79664 0.0
C402 C 0.64416 0.77543 0.81011 0.0
C403 C 0.66862 0.77557 0.84623 0.0
C404 C 0.54412 0.7593 0.75809 0.0
C405 C 0.53883 0.79415 0.7475 0.0
C406 C 0.52687 0.72522 0.73179 0.0
C407 C 0.53786 0.68728 0.74026 0.0
C408 C 0.61339 0.67703 0.75339 0.0
C409 C 0.6242 0.64093 0.76042 0.0
C410 C 0.56025 0.61462 0.754 0.0
C411 C 0.48534 0.62437 0.74057 0.0
C412 C 0.47397 0.66054 0.73374 0.0
C413 C 0.48416 0.73815 0.58035 0.0
C414 C 0.41817 0.76084 0.57427 0.0
C415 C 0.50985 0.73861 0.61644 0.0
C416 C 0.47023 0.76192 0.64699 0.0
C417 C 0.40456 0.78481 0.64081 0.0
C418 C 0.37946 0.78462 0.60473 0.0
C419 C 0.49703 0.76192 0.6853 0.0
C420 C 0.50241 0.72706 0.69591 0.0
C421 C 0.51653 0.79589 0.71136 0.0
C422 C 0.51694 0.83341 0.70138 0.0
C423 C 0.46938 0.86347 0.72167 0.0
C424 C 0.46924 0.89876 0.71211 0.0
C425 C 0.5168 0.9044 0.68243 0.0
C426 C 0.56484 0.87479 0.66232 0.0
C427 C 0.56525 0.83945 0.67178 0.0
H428 H 0.51655 0.93173 0.67506 0.0
H429 H 0.56888 0.5866 0.75925 0.0
H430 H 0.67828 0.18198 0.64343 0.0
H431 H 0.63308 0.18222 0.70667 0.0
H432 H 0.43144 0.25561 0.69469 0.0
H433 H 0.47631 0.25538 0.63149 0.0
H434 H 0.51495 0.28096 0.75952 0.0
H435 H 0.40196 0.16361 0.68973 0.0
H436 H 0.40207 0.09968 0.64874 0.0
H437 H 0.55975 0.05955 0.72431 0.0
H438 H 0.56116 0.12344 0.76576 0.0
H439 H 0.2737 0.20325 0.90767 0.0
H440 H 0.3158 0.19892 0.84331 0.0
H441 H 0.54253 0.25555 0.88151 0.0
H442 H 0.49948 0.26092 0.9459 0.0
H443 H 0.44293 0.16481 0.80287 0.0
H444 H 0.59904 0.31073 0.82299 0.0
H445 H 0.59225 0.37433 0.865 0.0
H446 H 0.33829 0.35707 0.88624 0.0
H447 H 0.34384 0.29341 0.84435 0.0
C448 C 0.62382 0.19781 0.65421 0.0
C449 C 0.5804 0.21848 0.6326 0.0
C450 C 0.5981 0.19792 0.69027 0.0
C451 C 0.52864 0.21876 0.70527 0.0
C452 C 0.48514 0.23932 0.68361 0.0
C453 C 0.51057 0.23904 0.64751 0.0
C454 C 0.50244 0.22006 0.74388 0.0
C455 C 0.4993 0.25553 0.76899 0.0
C456 C 0.48189 0.18687 0.75618 0.0
C457 C 0.48212 0.14854 0.73083 0.0
C458 C 0.43721 0.14133 0.69757 0.0
C459 C 0.43685 0.10502 0.67425 0.0
C460 C 0.48101 0.07558 0.68387 0.0
C461 C 0.52558 0.08239 0.71687 0.0
C462 C 0.52607 0.11865 0.74033 0.0
C463 C 0.33241 0.21486 0.90228 0.0
C464 C 0.38298 0.23281 0.93169 0.0
C465 C 0.3566 0.21217 0.86553 0.0
C466 C 0.43194 0.22726 0.85757 0.0
C467 C 0.48357 0.24423 0.88698 0.0
C468 C 0.45918 0.24709 0.92373 0.0
C469 C 0.45589 0.22565 0.81851 0.0
C470 C 0.45897 0.19017 0.79338 0.0
C471 C 0.47614 0.25878 0.80606 0.0
C472 C 0.472 0.29721 0.83088 0.0
C473 C 0.54175 0.32056 0.83661 0.0
C474 C 0.53821 0.35657 0.86046 0.0
C475 C 0.46504 0.36965 0.87848 0.0
C476 C 0.39514 0.34681 0.87255 0.0
C477 C 0.39846 0.31075 0.84882 0.0
H478 H 0.4625 0.39754 0.89689 0.0
H479 H 0.48056 0.04748 0.66579 0.0
H480 H 0.81993 0.78913 0.17327 0.0
H481 H 0.86587 0.78485 0.23495 0.0
H482 H 0.03003 0.69365 0.18598 0.0
H483 H 0.98423 0.69795 0.12395 0.0
H484 H 0.94722 0.6775 0.24399 0.0
H485 H 0.10573 0.78116 0.22155 0.0
H486 H 0.13043 0.84221 0.20423 0.0
H487 H 0.97824 0.89947 0.29433 0.0
H488 H 0.95189 0.83864 0.31196 0.0
H489 H 0.18728 0.68348 0.40697 0.0
H490 H 0.14135 0.6854 0.34436 0.0
H491 H 0.9656 0.77233 0.39095 0.0
H492 H 0.01241 0.77088 0.45351 0.0
H493 H 0.05539 0.78996 0.33388 0.0
H494 H 0.90346 0.68365 0.35697 0.0
H495 H 0.8848 0.62173 0.37321 0.0
H496 H 0.03407 0.56808 0.28059 0.0
H497 H 0.05445 0.62983 0.264 0.0
C498 C 0.86604 0.76826 0.17565 0.0
C499 C 0.89891 0.74398 0.14388 0.0
C500 C 0.89223 0.76582 0.21093 0.0
C501 C 0.95171 0.73905 0.21514 0.0
C502 C 0.98403 0.7145 0.18339 0.0
C503 C 0.95809 0.71705 0.14802 0.0
C504 C 0.97969 0.73663 0.25271 0.0
C505 C 0.97206 0.70193 0.26346 0.0
C506 C 0.01065 0.76867 0.27837 0.0
C507 C 0.02613 0.80529 0.26783 0.0
C508 C 0.07695 0.80672 0.23747 0.0
C509 C 0.09139 0.84129 0.22764 0.0
C510 C 0.0557 0.87467 0.24809 0.0
C511 C 0.0057 0.87357 0.27848 0.0
C512 C 0.99107 0.83906 0.28843 0.0
C513 C 0.13912 0.70307 0.40373 0.0
C514 C 0.10389 0.72729 0.43491 0.0
C515 C 0.11245 0.70393 0.36805 0.0
C516 C 0.04981 0.72892 0.363 0.0
C517 C 0.01404 0.75287 0.39422 0.0
C518 C 0.04045 0.75186 0.42989 0.0
C519 C 0.02298 0.73084 0.32517 0.0
C520 C 0.03072 0.76549 0.31439 0.0
C521 C 0.99316 0.69861 0.29937 0.0
C522 C 0.98106 0.66148 0.30941 0.0
C523 C 0.93282 0.65874 0.3402 0.0
C524 C 0.92182 0.62364 0.34944 0.0
C525 C 0.95838 0.591 0.328 0.0
C526 C 0.00586 0.59339 0.2972 0.0
C527 C 0.01708 0.62843 0.28784 0.0
H528 H 0.94979 0.56385 0.3352 0.0
H529 H 0.06696 0.90142 0.24043 0.0
H530 H 0.8169 0.21057 0.3384 0.0
H531 H 0.8696 0.21688 0.27846 0.0
H532 H 0.02606 0.30876 0.33314 0.0
H533 H 0.97136 0.3031 0.39347 0.0
H534 H 0.95858 0.32661 0.27591 0.0
H535 H 0.10262 0.21842 0.29398 0.0
H536 H 0.12515 0.15559 0.3078 0.0
H537 H 0.97795 0.10338 0.21419 0.0
H538 H 0.95358 0.16598 0.20006 0.0
H539 H 0.18444 0.32011 0.10746 0.0
H540 H 0.14731 0.31692 0.17097 0.0
H541 H 0.95424 0.23774 0.12822 0.0
H542 H 0.99192 0.24053 0.0648 0.0
H543 H 0.05212 0.21471 0.18088 0.0
H544 H 0.90675 0.32707 0.16646 0.0
H545 H 0.89546 0.39061 0.15283 0.0
H546 H 0.06251 0.43555 0.24128 0.0
H547 H 0.07563 0.37211 0.2551 0.0
C548 C 0.86295 0.23196 0.33767 0.0
C549 C 0.89061 0.25619 0.37052 0.0
C550 C 0.89353 0.23536 0.30338 0.0
C551 C 0.95322 0.26276 0.30122 0.0
C552 C 0.98044 0.28726 0.33409 0.0
C553 C 0.94933 0.284 0.3685 0.0
C554 C 0.98443 0.26655 0.26448 0.0
C555 C 0.98063 0.30224 0.25544 0.0
C556 C 0.01229 0.23472 0.23747 0.0
C557 C 0.02543 0.19702 0.24624 0.0
C558 C 0.07412 0.19362 0.27663 0.0
C559 C 0.08744 0.15802 0.28445 0.0
C560 C 0.05267 0.12554 0.262 0.0
C561 C 0.00466 0.12858 0.23162 0.0
C562 C 0.99116 0.16412 0.22366 0.0
C563 C 0.13436 0.30194 0.11175 0.0
C564 C 0.09142 0.28032 0.08141 0.0
C565 C 0.11282 0.30036 0.14794 0.0
C566 C 0.04787 0.27716 0.15427 0.0
C567 C 0.00457 0.25578 0.12392 0.0
C568 C 0.02574 0.25758 0.08778 0.0
C569 C 0.02569 0.27454 0.19245 0.0
C570 C 0.03107 0.23905 0.20166 0.0
C571 C 0.00094 0.30664 0.21978 0.0
C572 C 0.99283 0.34477 0.21155 0.0
C573 C 0.94161 0.35043 0.18279 0.0
C574 C 0.93477 0.38644 0.17507 0.0
C575 C 0.97843 0.41707 0.19611 0.0
C576 C 0.02883 0.41178 0.22497 0.0
C577 C 0.03594 0.37582 0.23278 0.0
H578 H 0.97305 0.44493 0.1901 0.0
H579 H 0.06323 0.09799 0.26805 0.0
H580 H 0.75282 0.26735 0.5993 0.0
H581 H 0.79366 0.2665 0.66211 0.0
H582 H 0.04774 0.26982 0.63005 0.0
H583 H 0.0057 0.26324 0.56557 0.0
H584 H 0.04754 0.2304 0.67391 0.0
H585 H 0.91256 0.35226 0.68549 0.0
H586 H 0.79863 0.39497 0.67851 0.0
H587 H 0.6427 0.33918 0.74314 0.0
H588 H 0.75545 0.296 0.75024 0.0
H589 H 0.20058 0.2907 0.85564 0.0
H590 H 0.15184 0.29239 0.79366 0.0
H591 H 0.91348 0.25488 0.8208 0.0
H592 H 0.962 0.2539 0.88331 0.0
H593 H 0.90472 0.31139 0.78163 0.0
H594 H 0.04407 0.1894 0.76771 0.0
H595 H 0.16355 0.15164 0.77882 0.0
H596 H 0.31858 0.216 0.72205 0.0
H597 H 0.19992 0.25368 0.71019 0.0
C598 C 0.81726 0.26653 0.6055 0.0
C599 C 0.8759 0.26394 0.57739 0.0
C600 C 0.84095 0.26741 0.64186 0.0
C601 C 0.92423 0.2693 0.65172 0.0
C602 C 0.98304 0.26819 0.62359 0.0
C603 C 0.95912 0.26478 0.5867 0.0
C604 C 0.95032 0.27135 0.69085 0.0
C605 C 0.01675 0.24879 0.69717 0.0
C606 C 0.90964 0.2944 0.72196 0.0
C607 C 0.8423 0.32079 0.71819 0.0
C608 C 0.85392 0.34909 0.69813 0.0
C609 C 0.78954 0.37337 0.69416 0.0
C610 C 0.71346 0.36976 0.71032 0.0
C611 C 0.70164 0.34197 0.73063 0.0
C612 C 0.7658 0.31764 0.73471 0.0
C613 C 0.1378 0.28294 0.84837 0.0
C614 C 0.08525 0.27183 0.87398 0.0
C615 C 0.11002 0.28383 0.81298 0.0
C616 C 0.02941 0.27312 0.80241 0.0
C617 C 0.97598 0.26311 0.82837 0.0
C618 C 0.00374 0.26246 0.86396 0.0
C619 C 0.00188 0.27126 0.7639 0.0
C620 C 0.93522 0.2935 0.75795 0.0
C621 C 0.04303 0.2486 0.73315 0.0
C622 C 0.11325 0.22424 0.73802 0.0
C623 C 0.10361 0.19522 0.75735 0.0
C624 C 0.17114 0.17383 0.76376 0.0
C625 C 0.24857 0.18125 0.75099 0.0
C626 C 0.25855 0.20996 0.7316 0.0
C627 C 0.1911 0.2312 0.72484 0.0
H628 H 0.30069 0.16476 0.75618 0.0
H629 H 0.66369 0.38854 0.70715 0.0
H630 H 0.25292 0.73818 0.66478 0.0
H631 H 0.21099 0.73812 0.72823 0.0
H632 H 0.95744 0.7407 0.69642 0.0
H633 H 0.99932 0.74139 0.63294 0.0
H634 H 0.98712 0.79048 0.76129 0.0
H635 H 0.0542 0.65923 0.70703 0.0
H636 H 0.14376 0.60644 0.67637 0.0
H637 H 0.31167 0.63313 0.76765 0.0
H638 H 0.22497 0.68686 0.7981 0.0
H639 H 0.80724 0.71155 0.90824 0.0
H640 H 0.85669 0.71569 0.84666 0.0
H641 H 0.08696 0.75993 0.89434 0.0
H642 H 0.03547 0.75874 0.95636 0.0
H643 H 0.0733 0.68875 0.82342 0.0
H644 H 0.01632 0.81922 0.87709 0.0
H645 H 0.93623 0.87465 0.90892 0.0
H646 H 0.76059 0.85357 0.82056 0.0
H647 H 0.83849 0.797 0.78871 0.0
C648 C 0.18822 0.73865 0.67133 0.0
C649 C 0.12921 0.73961 0.64398 0.0
C650 C 0.16435 0.7385 0.70756 0.0
C651 C 0.081 0.73894 0.71702 0.0
C652 C 0.02206 0.74026 0.68974 0.0
C653 C 0.04595 0.74053 0.65349 0.0
C654 C 0.05509 0.73836 0.75538 0.0
C655 C 0.00509 0.76795 0.77468 0.0
C656 C 0.08101 0.70967 0.77335 0.0
C657 C 0.13346 0.67741 0.75467 0.0
C658 C 0.11082 0.65417 0.72031 0.0
C659 C 0.16121 0.62407 0.70292 0.0
C660 C 0.23381 0.61658 0.71986 0.0
C661 C 0.25598 0.63911 0.75429 0.0
C662 C 0.20631 0.66945 0.7716 0.0
C663 C 0.86771 0.72292 0.90566 0.0
C664 C 0.91659 0.73591 0.93715 0.0
C665 C 0.89602 0.72501 0.87051 0.0
C666 C 0.97482 0.73878 0.86618 0.0
C667 C 0.02547 0.7498 0.8973 0.0
C668 C 0.99612 0.74895 0.93261 0.0
C669 C 0.00489 0.74056 0.82892 0.0
C670 C 0.05536 0.71119 0.80989 0.0
C671 C 0.98054 0.76975 0.81141 0.0
C672 C 0.93197 0.80303 0.83107 0.0
C673 C 0.95941 0.82564 0.86492 0.0
C674 C 0.91459 0.85746 0.88289 0.0
C675 C 0.84273 0.8674 0.86704 0.0
C676 C 0.81597 0.84569 0.83297 0.0
C677 C 0.86029 0.81363 0.81501 0.0
H678 H 0.80819 0.8921 0.88098 0.0
H679 H 0.27266 0.59323 0.70641 0.0
loop_
_geom_bond_atom_site_label_1
_geom_bond_atom_site_label_2
_geom_bond_distance
_geom_bond_site_symmetry_2
_ccdc_geom_bond_type
Tb0 O3 2.453 1_554 S
Tb0 O4 2.596 1_554 S
Tb0 O5 2.374 . S
Tb0 O13 2.343 . S
Tb0 O15 2.353 1_554 S
Tb0 O17 2.427 . S
Tb0 O18 2.513 . S
C1 O5 1.251 . S
C1 O7 1.263 . S
Tb2 O4 2.343 . S
Tb2 O7 2.353 1_556 S
Tb2 O10 2.427 . S
Tb2 O11 2.513 . S
Tb2 O12 2.453 1_556 S
Tb2 O13 2.596 1_556 S
Tb2 O14 2.374 . S
O3 Tb0 2.453 1_556 S
O3 C19 1.245 . S
O4 Tb0 2.596 1_556 S
O4 Tb2 2.343 . S
O4 C19 1.259 . S
O5 Tb0 2.374 . S
O5 C1 1.251 . S
C6 O10 1.275 . S
C6 O11 1.246 . S
O7 C1 1.263 . S
O7 Tb2 2.353 1_554 S
C8 O12 1.245 . S
C8 O13 1.259 . S
C9 O14 1.250 . S
C9 O15 1.263 . S
O10 Tb2 2.427 . S
O10 C6 1.275 . S
O11 Tb2 2.513 . S
O11 C6 1.246 . S
O12 Tb2 2.453 1_554 S
O12 C8 1.245 . S
O13 Tb0 2.343 . S
O13 Tb2 2.596 1_554 S
O13 C8 1.259 . S
O14 Tb2 2.374 . S
O14 C9 1.250 . S
O15 Tb0 2.353 1_556 S
O15 C9 1.263 . S
C16 O17 1.275 . S
C16 O18 1.246 . S
O17 Tb0 2.427 . S
O17 C16 1.275 . S
O18 Tb0 2.513 . S
O18 C16 1.246 . S
C19 O3 1.245 . S
C19 O4 1.259 . S
Tb20 O23 2.453 1_554 S
Tb20 O24 2.596 1_554 S
Tb20 O25 2.374 . S
Tb20 O33 2.343 . S
Tb20 O35 2.353 1_554 S
Tb20 O37 2.427 . S
Tb20 O38 2.513 . S
C21 O25 1.251 . S
C21 O27 1.263 . S
Tb22 O24 2.343 . S
Tb22 O27 2.353 1_556 S
Tb22 O30 2.427 . S
Tb22 O31 2.513 . S
Tb22 O32 2.453 1_556 S
Tb22 O33 2.596 1_556 S
Tb22 O34 2.374 . S
O23 Tb20 2.453 1_556 S
O23 C39 1.245 . S
O24 Tb20 2.596 1_556 S
O24 Tb22 2.343 . S
O24 C39 1.259 . S
O25 Tb20 2.374 . S
O25 C21 1.251 . S
C26 O30 1.275 . S
C26 O31 1.246 . S
O27 C21 1.263 . S
O27 Tb22 2.353 1_554 S
C28 O32 1.245 . S
C28 O33 1.259 . S
C29 O34 1.250 . S
C29 O35 1.263 . S
O30 Tb22 2.427 . S
O30 C26 1.275 . S
O31 Tb22 2.513 . S
O31 C26 1.246 . S
O32 Tb22 2.453 1_554 S
O32 C28 1.245 . S
O33 Tb20 2.343 . S
O33 Tb22 2.596 1_554 S
O33 C28 1.259 . S
O34 Tb22 2.374 . S
O34 C29 1.250 . S
O35 Tb20 2.353 1_556 S
O35 C29 1.263 . S
C36 O37 1.275 . S
C36 O38 1.246 . S
O37 Tb20 2.427 . S
O37 C36 1.275 . S
O38 Tb20 2.513 . S
O38 C36 1.246 . S
C39 O23 1.245 . S
C39 O24 1.259 . S
Tb40 O43 2.453 . S
Tb40 O44 2.596 . S
Tb40 O45 2.374 . S
Tb40 O53 2.343 . S
Tb40 O55 2.353 . S
Tb40 O57 2.427 . S
Tb40 O58 2.513 . S
C41 O45 1.251 . S
C41 O47 1.263 . S
Tb42 O44 2.343 . S
Tb42 O47 2.353 . S
Tb42 O50 2.427 . S
Tb42 O51 2.513 . S
Tb42 O52 2.453 . S
Tb42 O53 2.596 . S
Tb42 O54 2.374 . S
O43 Tb40 2.453 . S
O43 C59 1.245 . S
O44 Tb40 2.596 . S
O44 Tb42 2.343 . S
O44 C59 1.259 . S
O45 Tb40 2.374 . S
O45 C41 1.251 . S
C46 O50 1.275 . S
C46 O51 1.246 . S
O47 C41 1.263 . S
O47 Tb42 2.353 . S
C48 O52 1.245 . S
C48 O53 1.259 . S
C49 O54 1.250 . S
C49 O55 1.263 . S
O50 Tb42 2.427 . S
O50 C46 1.275 . S
O51 Tb42 2.513 . S
O51 C46 1.246 . S
O52 Tb42 2.453 . S
O52 C48 1.245 . S
O53 Tb40 2.343 . S
O53 Tb42 2.596 . S
O53 C48 1.259 . S
O54 Tb42 2.374 . S
O54 C49 1.250 . S
O55 Tb40 2.353 . S
O55 C49 1.263 . S
C56 O57 1.275 . S
C56 O58 1.246 . S
O57 Tb40 2.427 . S
O57 C56 1.275 . S
O58 Tb40 2.513 . S
O58 C56 1.246 . S
C59 O43 1.245 . S
C59 O44 1.259 . S
Tb60 O63 2.453 . S
Tb60 O64 2.596 . S
Tb60 O65 2.374 . S
Tb60 O73 2.343 . S
Tb60 O75 2.353 . S
Tb60 O77 2.427 . S
Tb60 O78 2.513 . S
C61 O65 1.251 . S
C61 O67 1.263 . S
Tb62 O64 2.343 . S
Tb62 O67 2.353 . S
Tb62 O70 2.427 . S
Tb62 O71 2.513 . S
Tb62 O72 2.453 . S
Tb62 O73 2.596 . S
Tb62 O74 2.374 . S
O63 Tb60 2.453 . S
O63 C79 1.245 . S
O64 Tb60 2.596 . S
O64 Tb62 2.343 . S
O64 C79 1.259 . S
O65 Tb60 2.374 . S
O65 C61 1.251 . S
C66 O70 1.275 . S
C66 O71 1.246 . S
O67 C61 1.263 . S
O67 Tb62 2.353 . S
C68 O72 1.245 . S
C68 O73 1.259 . S
C69 O74 1.250 . S
C69 O75 1.263 . S
O70 Tb62 2.427 . S
O70 C66 1.275 . S
O71 Tb62 2.513 . S
O71 C66 1.246 . S
O72 Tb62 2.453 . S
O72 C68 1.245 . S
O73 Tb60 2.343 . S
O73 Tb62 2.596 . S
O73 C68 1.259 . S
O74 Tb62 2.374 . S
O74 C69 1.250 . S
O75 Tb60 2.353 . S
O75 C69 1.263 . S
C76 O77 1.275 . S
C76 O78 1.246 . S
O77 Tb60 2.427 . S
O77 C76 1.275 . S
O78 Tb60 2.513 . S
O78 C76 1.246 . S
C79 O63 1.245 . S
C79 O64 1.259 . S
H80 C98 0.951 . S
H81 C100 0.951 . S
H82 C102 0.950 . S
H83 C103 0.950 . S
H84 C105 0.950 . S
H85 C108 0.950 . S
H86 C109 0.950 . S
H87 C111 0.950 . S
H88 C112 0.950 . S
H89 C113 0.951 . S
H90 C115 0.951 . S
H91 C117 0.950 . S
H92 C118 0.950 . S
H93 C120 0.950 . S
H94 C123 0.950 . S
H95 C124 0.950 . S
H96 C126 0.950 . S
H97 C127 0.950 . S
C98 H80 0.951 . S
C98 C99 1.366 1_556 S
C98 C100 1.388 . S
C99 C98 1.366 1_554 S
C99 C103 1.384 . S
C100 H81 0.951 . S
C100 C98 1.388 . S
C100 C101 1.366 . S
C101 C100 1.366 . S
C101 C102 1.414 1_556 S
C101 C104 1.501 . S
C102 H82 0.950 . S
C102 C101 1.414 1_554 S
C102 C103 1.374 . S
C103 H83 0.950 . S
C103 C99 1.384 . S
C103 C102 1.374 . S
C104 C101 1.501 . S
C104 C105 1.361 1_556 S
C104 C106 1.399 . S
C105 H84 0.950 . S
C105 C104 1.361 1_554 S
C105 C121 1.377 . S
C106 C104 1.399 . S
C106 C107 1.524 . S
C106 C120 1.377 . S
C107 C106 1.524 . S
C107 C108 1.397 . S
C107 C112 1.363 . S
C108 H85 0.950 . S
C108 C107 1.397 . S
C108 C109 1.334 . S
C109 H86 0.950 . S
C109 C108 1.334 . S
C109 C110 1.287 . S
C110 C109 1.287 . S
C110 C111 1.524 . S
C110 H129 0.913 . S
C111 H87 0.950 . S
C111 C110 1.524 . S
C111 C112 1.415 . S
C112 H88 0.950 . S
C112 C107 1.363 . S
C112 C111 1.415 . S
C113 H89 0.951 . S
C113 C114 1.375 . S
C113 C115 1.388 . S
C114 C113 1.375 . S
C114 C118 1.371 1_554 S
C115 H90 0.951 . S
C115 C113 1.388 . S
C115 C116 1.366 . S
C116 C115 1.366 . S
C116 C117 1.414 1_554 S
C116 C119 1.499 . S
C117 H91 0.950 . S
C117 C116 1.414 1_556 S
C117 C118 1.374 . S
C118 H92 0.950 . S
C118 C114 1.371 1_556 S
C118 C117 1.374 . S
C119 C116 1.499 . S
C119 C120 1.373 1_554 S
C119 C121 1.389 . S
C120 H93 0.950 . S
C120 C106 1.377 . S
C120 C119 1.373 1_556 S
C121 C105 1.377 . S
C121 C119 1.389 . S
C121 C122 1.524 . S
C122 C121 1.524 . S
C122 C123 1.397 . S
C122 C127 1.363 . S
C123 H94 0.950 . S
C123 C122 1.397 . S
C123 C124 1.334 . S
C124 H95 0.950 . S
C124 C123 1.334 . S
C124 C125 1.287 . S
C125 C124 1.287 . S
C125 C126 1.524 . S
C125 H128 0.999 . S
C126 H96 0.950 . S
C126 C125 1.524 . S
C126 C127 1.415 . S
C127 H97 0.950 . S
C127 C122 1.363 . S
C127 C126 1.415 . S
H128 C125 0.999 . S
H129 C110 0.913 . S
H130 C148 0.951 . S
H131 C150 0.951 . S
H132 C152 0.950 . S
H133 C153 0.950 . S
H134 C155 0.950 . S
H135 C158 0.950 . S
H136 C159 0.950 . S
H137 C161 0.950 . S
H138 C162 0.950 . S
H139 C163 0.951 . S
H140 C165 0.951 . S
H141 C167 0.950 . S
H142 C168 0.950 . S
H143 C170 0.950 . S
H144 C173 0.950 . S
H145 C174 0.950 . S
H146 C176 0.950 . S
H147 C177 0.950 . S
C148 H130 0.951 . S
C148 C149 1.366 . S
C148 C150 1.388 . S
C149 C148 1.366 . S
C149 C153 1.385 . S
C150 H131 0.951 . S
C150 C148 1.388 . S
C150 C151 1.366 . S
C151 C150 1.366 . S
C151 C152 1.414 . S
C151 C154 1.499 . S
C152 H132 0.950 . S
C152 C151 1.414 . S
C152 C153 1.374 . S
C153 H133 0.950 . S
C153 C149 1.385 . S
C153 C152 1.374 . S
C154 C151 1.499 . S
C154 C155 1.373 . S
C154 C156 1.389 . S
C155 H134 0.950 . S
C155 C154 1.373 . S
C155 C171 1.377 . S
C156 C154 1.389 . S
C156 C157 1.524 . S
C156 C170 1.377 . S
C157 C156 1.524 . S
C157 C158 1.397 . S
C157 C162 1.363 . S
C158 H135 0.950 . S
C158 C157 1.397 . S
C158 C159 1.334 . S
C159 H136 0.950 . S
C159 C158 1.334 . S
C159 C160 1.287 . S
C160 C159 1.287 . S
C160 C161 1.524 . S
C160 H179 0.913 . S
C161 H137 0.950 . S
C161 C160 1.524 . S
C161 C162 1.415 . S
C162 H138 0.950 . S
C162 C157 1.363 . S
C162 C161 1.415 . S
C163 H139 0.951 . S
C163 C164 1.366 . S
C163 C165 1.388 . S
C164 C163 1.366 . S
C164 C168 1.385 . S
C165 H140 0.951 . S
C165 C163 1.388 . S
C165 C166 1.366 . S
C166 C165 1.366 . S
C166 C167 1.414 . S
C166 C169 1.499 . S
C167 H141 0.950 . S
C167 C166 1.414 . S
C167 C168 1.374 . S
C168 H142 0.950 . S
C168 C164 1.385 . S
C168 C167 1.374 . S
C169 C166 1.499 . S
C169 C170 1.373 . S
C169 C171 1.389 . S
C170 H143 0.950 . S
C170 C156 1.377 . S
C170 C169 1.373 . S
C171 C155 1.377 . S
C171 C169 1.389 . S
C171 C172 1.524 . S
C172 C171 1.524 . S
C172 C173 1.397 . S
C172 C177 1.363 . S
C173 H144 0.950 . S
C173 C172 1.397 . S
C173 C174 1.334 . S
C174 H145 0.950 . S
C174 C173 1.334 . S
C174 C175 1.287 . S
C175 C174 1.287 . S
C175 C176 1.524 . S
C175 H178 0.999 . S
C176 H146 0.950 . S
C176 C175 1.524 . S
C176 C177 1.415 . S
C177 H147 0.950 . S
C177 C172 1.363 . S
C177 C176 1.415 . S
H178 C175 0.999 . S
H179 C160 0.913 . S
H180 C198 0.951 . S
H181 C200 0.951 . S
H182 C202 0.950 . S
H183 C203 0.950 . S
H184 C205 0.950 . S
H185 C208 0.950 . S
H186 C209 0.950 . S
H187 C211 0.950 . S
H188 C212 0.950 . S
H189 C213 0.951 . S
H190 C215 0.951 . S
H191 C217 0.950 . S
H192 C218 0.950 . S
H193 C220 0.950 . S
H194 C223 0.950 . S
H195 C224 0.950 . S
H196 C226 0.950 . S
H197 C227 0.950 . S
C198 H180 0.951 . S
C198 C199 1.364 . S
C198 C200 1.388 . S
C199 C198 1.364 . S
C199 C203 1.386 1_554 S
C200 H181 0.951 . S
C200 C198 1.388 . S
C200 C201 1.346 1_554 S
C201 C200 1.346 1_556 S
C201 C202 1.440 . S
C201 C204 1.494 . S
C202 H182 0.950 . S
C202 C201 1.440 . S
C202 C203 1.374 . S
C203 H183 0.950 . S
C203 C199 1.386 1_556 S
C203 C202 1.374 . S
C204 C201 1.494 . S
C204 C205 1.373 1_455 S
C204 C206 1.389 1_556 S
C205 H184 0.950 . S
C205 C204 1.373 1_655 S
C205 C221 1.377 1_545 S
C206 C204 1.389 1_554 S
C206 C207 1.524 . S
C206 C220 1.377 1_545 S
C207 C206 1.524 . S
C207 C208 1.397 1_554 S
C207 C212 1.363 1_545 S
C208 H185 0.950 . S
C208 C207 1.397 1_556 S
C208 C209 1.334 . S
C209 H186 0.950 . S
C209 C208 1.334 . S
C209 C210 1.287 1_546 S
C210 C209 1.287 1_564 S
C210 C211 1.524 . S
C210 H229 0.914 . S
C211 H187 0.950 . S
C211 C210 1.524 . S
C211 C212 1.415 . S
C212 H188 0.950 . S
C212 C207 1.363 1_565 S
C212 C211 1.415 . S
C213 H189 0.951 . S
C213 C214 1.345 1_556 S
C213 C215 1.388 . S
C214 C213 1.345 1_554 S
C214 C218 1.401 . S
C215 H190 0.951 . S
C215 C213 1.388 . S
C215 C216 1.366 1_556 S
C216 C215 1.366 1_554 S
C216 C217 1.414 . S
C216 C219 1.499 . S
C217 H191 0.950 . S
C217 C216 1.414 . S
C217 C218 1.374 . S
C218 H192 0.950 . S
C218 C214 1.401 . S
C218 C217 1.374 . S
C219 C216 1.499 . S
C219 C220 1.373 1_655 S
C219 C221 1.389 1_554 S
C220 H193 0.950 . S
C220 C206 1.377 1_565 S
C220 C219 1.373 1_455 S
C221 C205 1.377 1_565 S
C221 C219 1.389 1_556 S
C221 C222 1.524 . S
C222 C221 1.524 . S
C222 C223 1.397 1_556 S
C222 C227 1.363 1_565 S
C223 H194 0.950 . S
C223 C222 1.397 1_554 S
C223 C224 1.334 . S
C224 H195 0.950 . S
C224 C223 1.334 . S
C224 C225 1.283 1_564 S
C225 C224 1.283 1_546 S
C225 C226 1.528 . S
C225 H228 0.999 . S
C226 H196 0.950 . S
C226 C225 1.528 . S
C226 C227 1.415 . S
C227 H197 0.950 . S
C227 C222 1.363 1_545 S
C227 C226 1.415 . S
H228 C225 0.999 . S
H229 C210 0.914 . S
H230 C248 0.951 . S
H231 C250 0.951 . S
H232 C252 0.950 . S
H233 C253 0.950 . S
H234 C255 0.950 . S
H235 C258 0.950 . S
H236 C259 0.950 . S
H237 C261 0.950 . S
H238 C262 0.950 . S
H239 C263 0.951 . S
H240 C265 0.951 . S
H241 C267 0.950 . S
H242 C268 0.950 . S
H243 C270 0.950 . S
H244 C273 0.950 . S
H245 C274 0.950 . S
H246 C276 0.950 . S
H247 C277 0.950 . S
C248 H230 0.951 . S
C248 C249 1.366 . S
C248 C250 1.388 . S
C249 C248 1.366 . S
C249 C253 1.385 . S
C250 H231 0.951 . S
C250 C248 1.388 . S
C250 C251 1.366 . S
C251 C250 1.366 . S
C251 C252 1.414 . S
C251 C254 1.499 . S
C252 H232 0.950 . S
C252 C251 1.414 . S
C252 C253 1.374 . S
C253 H233 0.950 . S
C253 C249 1.385 . S
C253 C252 1.374 . S
C254 C251 1.499 . S
C254 C255 1.373 1_655 S
C254 C256 1.378 1_545 S
C255 H234 0.950 . S
C255 C254 1.373 1_455 S
C255 C271 1.389 . S
C256 C254 1.378 1_565 S
C256 C257 1.524 . S
C256 C270 1.389 . S
C257 C256 1.524 . S
C257 C258 1.397 1_565 S
C257 C262 1.363 . S
C258 H235 0.950 . S
C258 C257 1.397 1_545 S
C258 C259 1.334 . S
C259 H236 0.950 . S
C259 C258 1.334 . S
C259 C260 1.287 1_545 S
C260 C259 1.287 1_565 S
C260 C261 1.524 . S
C260 H279 0.913 . S
C261 H237 0.950 . S
C261 C260 1.524 . S
C261 C262 1.415 . S
C262 H238 0.950 . S
C262 C257 1.363 . S
C262 C261 1.415 . S
C263 H239 0.951 . S
C263 C264 1.366 . S
C263 C265 1.388 . S
C264 C263 1.366 . S
C264 C268 1.385 . S
C265 H240 0.951 . S
C265 C263 1.388 . S
C265 C266 1.366 . S
C266 C265 1.366 . S
C266 C267 1.414 . S
C266 C269 1.499 . S
C267 H241 0.950 . S
C267 C266 1.414 . S
C267 C268 1.374 . S
C268 H242 0.950 . S
C268 C264 1.385 . S
C268 C267 1.374 . S
C269 C266 1.499 . S
C269 C270 1.373 1_455 S
C269 C271 1.378 1_565 S
C270 H243 0.950 . S
C270 C256 1.389 . S
C270 C269 1.373 1_655 S
C271 C255 1.389 . S
C271 C269 1.378 1_545 S
C271 C272 1.524 . S
C272 C271 1.524 . S
C272 C273 1.397 1_545 S
C272 C277 1.363 . S
C273 H244 0.950 . S
C273 C272 1.397 1_565 S
C273 C274 1.334 . S
C274 H245 0.950 . S
C274 C273 1.334 . S
C274 C275 1.287 1_565 S
C275 C274 1.287 1_545 S
C275 C276 1.524 . S
C275 H278 0.999 . S
C276 H246 0.950 . S
C276 C275 1.524 . S
C276 C277 1.415 . S
C277 H247 0.950 . S
C277 C272 1.363 . S
C277 C276 1.415 . S
H278 C275 0.999 . S
H279 C260 0.913 . S
H280 C298 0.951 . S
H281 C300 0.951 . S
H282 C302 0.950 . S
H283 C303 0.950 . S
H284 C305 0.950 . S
H285 C308 0.950 . S
H286 C309 0.950 . S
H287 C311 0.950 . S
H288 C312 0.950 . S
H289 C313 0.951 . S
H290 C315 0.951 . S
H291 C317 0.950 . S
H292 C318 0.950 . S
H293 C320 0.950 . S
H294 C323 0.950 . S
H295 C324 0.950 . S
H296 C326 0.950 . S
H297 C327 0.950 . S
C298 H280 0.951 . S
C298 C299 1.366 . S
C298 C300 1.388 . S
C299 C298 1.366 . S
C299 C303 1.385 . S
C300 H281 0.951 . S
C300 C298 1.388 . S
C300 C301 1.366 . S
C301 C300 1.366 . S
C301 C302 1.414 . S
C301 C304 1.499 . S
C302 H282 0.950 . S
C302 C301 1.414 . S
C302 C303 1.374 . S
C303 H283 0.950 . S
C303 C299 1.385 . S
C303 C302 1.374 . S
C304 C301 1.499 . S
C304 C305 1.373 . S
C304 C306 1.389 . S
C305 H284 0.950 . S
C305 C304 1.373 . S
C305 C321 1.377 . S
C306 C304 1.389 . S
C306 C307 1.524 . S
C306 C320 1.377 . S
C307 C306 1.524 . S
C307 C308 1.397 . S
C307 C312 1.363 . S
C308 H285 0.950 . S
C308 C307 1.397 . S
C308 C309 1.334 . S
C309 H286 0.950 . S
C309 C308 1.334 . S
C309 C310 1.287 . S
C310 C309 1.287 . S
C310 C311 1.524 . S
C310 H329 0.913 . S
C311 H287 0.950 . S
C311 C310 1.524 . S
C311 C312 1.415 . S
C312 H288 0.950 . S
C312 C307 1.363 . S
C312 C311 1.415 . S
C313 H289 0.951 . S
C313 C314 1.366 . S
C313 C315 1.388 . S
C314 C313 1.366 . S
C314 C318 1.385 . S
C315 H290 0.951 . S
C315 C313 1.388 . S
C315 C316 1.366 . S
C316 C315 1.366 . S
C316 C317 1.414 . S
C316 C319 1.499 . S
C317 H291 0.950 . S
C317 C316 1.414 . S
C317 C318 1.374 . S
C318 H292 0.950 . S
C318 C314 1.385 . S
C318 C317 1.374 . S
C319 C316 1.499 . S
C319 C320 1.373 . S
C319 C321 1.389 . S
C320 H293 0.950 . S
C320 C306 1.377 . S
C320 C319 1.373 . S
C321 C305 1.377 . S
C321 C319 1.389 . S
C321 C322 1.524 . S
C322 C321 1.524 . S
C322 C323 1.397 . S
C322 C327 1.363 . S
C323 H294 0.950 . S
C323 C322 1.397 . S
C323 C324 1.334 . S
C324 H295 0.950 . S
C324 C323 1.334 . S
C324 C325 1.287 . S
C325 C324 1.287 . S
C325 C326 1.524 . S
C325 H328 0.999 . S
C326 H296 0.950 . S
C326 C325 1.524 . S
C326 C327 1.415 . S
C327 H297 0.950 . S
C327 C322 1.363 . S
C327 C326 1.415 . S
H328 C325 0.999 . S
H329 C310 0.913 . S
H330 C348 0.951 . S
H331 C350 0.951 . S
H332 C352 0.950 . S
H333 C353 0.950 . S
H334 C355 0.950 . S
H335 C358 0.950 . S
H336 C359 0.950 . S
H337 C361 0.950 . S
H338 C362 0.950 . S
H339 C363 0.951 . S
H340 C365 0.951 . S
H341 C367 0.950 . S
H342 C368 0.950 . S
H343 C370 0.950 . S
H344 C373 0.950 . S
H345 C374 0.950 . S
H346 C376 0.950 . S
H347 C377 0.950 . S
C348 H330 0.951 . S
C348 C349 1.366 . S
C348 C350 1.388 . S
C349 C348 1.366 . S
C349 C353 1.385 . S
C350 H331 0.951 . S
C350 C348 1.388 . S
C350 C351 1.366 . S
C351 C350 1.366 . S
C351 C352 1.414 . S
C351 C354 1.499 . S
C352 H332 0.950 . S
C352 C351 1.414 . S
C352 C353 1.374 . S
C353 H333 0.950 . S
C353 C349 1.385 . S
C353 C352 1.374 . S
C354 C351 1.499 . S
C354 C355 1.373 . S
C354 C356 1.389 . S
C355 H334 0.950 . S
C355 C354 1.373 . S
C355 C371 1.377 . S
C356 C354 1.389 . S
C356 C357 1.524 . S
C356 C370 1.377 . S
C357 C356 1.524 . S
C357 C358 1.397 . S
C357 C362 1.363 . S
C358 H335 0.950 . S
C358 C357 1.397 . S
C358 C359 1.334 . S
C359 H336 0.950 . S
C359 C358 1.334 . S
C359 C360 1.287 . S
C360 C359 1.287 . S
C360 C361 1.524 . S
C360 H379 0.913 . S
C361 H337 0.950 . S
C361 C360 1.524 . S
C361 C362 1.415 . S
C362 H338 0.950 . S
C362 C357 1.363 . S
C362 C361 1.415 . S
C363 H339 0.951 . S
C363 C364 1.366 . S
C363 C365 1.388 . S
C364 C363 1.366 . S
C364 C368 1.385 . S
C365 H340 0.951 . S
C365 C363 1.388 . S
C365 C366 1.366 . S
C366 C365 1.366 . S
C366 C367 1.414 . S
C366 C369 1.499 . S
C367 H341 0.950 . S
C367 C366 1.414 . S
C367 C368 1.374 . S
C368 H342 0.950 . S
C368 C364 1.385 . S
C368 C367 1.374 . S
C369 C366 1.499 . S
C369 C370 1.373 . S
C369 C371 1.389 . S
C370 H343 0.950 . S
C370 C356 1.377 . S
C370 C369 1.373 . S
C371 C355 1.377 . S
C371 C369 1.389 . S
C371 C372 1.524 . S
C372 C371 1.524 . S
C372 C373 1.397 . S
C372 C377 1.363 . S
C373 H344 0.950 . S
C373 C372 1.397 . S
C373 C374 1.334 . S
C374 H345 0.950 . S
C374 C373 1.334 . S
C374 C375 1.287 . S
C375 C374 1.287 . S
C375 C376 1.524 . S
C375 H378 0.999 . S
C376 H346 0.950 . S
C376 C375 1.524 . S
C376 C377 1.415 . S
C377 H347 0.950 . S
C377 C372 1.363 . S
C377 C376 1.415 . S
H378 C375 0.999 . S
H379 C360 0.913 . S
H380 C398 0.951 . S
H381 C400 0.951 . S
H382 C402 0.950 . S
H383 C403 0.950 . S
H384 C405 0.950 . S
H385 C408 0.950 . S
H386 C409 0.950 . S
H387 C411 0.950 . S
H388 C412 0.950 . S
H389 C413 0.951 . S
H390 C415 0.951 . S
H391 C417 0.950 . S
H392 C418 0.950 . S
H393 C420 0.950 . S
H394 C423 0.950 . S
H395 C424 0.950 . S
H396 C426 0.950 . S
H397 C427 0.950 . S
C398 H380 0.951 . S
C398 C399 1.366 . S
C398 C400 1.388 . S
C399 C398 1.366 . S
C399 C403 1.385 . S
C400 H381 0.951 . S
C400 C398 1.388 . S
C400 C401 1.366 . S
C401 C400 1.366 . S
C401 C402 1.414 . S
C401 C404 1.499 . S
C402 H382 0.950 . S
C402 C401 1.414 . S
C402 C403 1.374 . S
C403 H383 0.950 . S
C403 C399 1.385 . S
C403 C402 1.374 . S
C404 C401 1.499 . S
C404 C405 1.373 . S
C404 C406 1.389 . S
C405 H384 0.950 . S
C405 C404 1.373 . S
C405 C421 1.377 . S
C406 C404 1.389 . S
C406 C407 1.524 . S
C406 C420 1.377 . S
C407 C406 1.524 . S
C407 C408 1.397 . S
C407 C412 1.363 . S
C408 H385 0.950 . S
C408 C407 1.397 . S
C408 C409 1.334 . S
C409 H386 0.950 . S
C409 C408 1.334 . S
C409 C410 1.287 . S
C410 C409 1.287 . S
C410 C411 1.524 . S
C410 H429 0.913 . S
C411 H387 0.950 . S
C411 C410 1.524 . S
C411 C412 1.415 . S
C412 H388 0.950 . S
C412 C407 1.363 . S
C412 C411 1.415 . S
C413 H389 0.951 . S
C413 C414 1.366 . S
C413 C415 1.388 . S
C414 C413 1.366 . S
C414 C418 1.385 . S
C415 H390 0.951 . S
C415 C413 1.388 . S
C415 C416 1.366 . S
C416 C415 1.366 . S
C416 C417 1.414 . S
C416 C419 1.499 . S
C417 H391 0.950 . S
C417 C416 1.414 . S
C417 C418 1.374 . S
C418 H392 0.950 . S
C418 C414 1.385 . S
C418 C417 1.374 . S
C419 C416 1.499 . S
C419 C420 1.373 . S
C419 C421 1.389 . S
C420 H393 0.950 . S
C420 C406 1.377 . S
C420 C419 1.373 . S
C421 C405 1.377 . S
C421 C419 1.389 . S
C421 C422 1.524 . S
C422 C421 1.524 . S
C422 C423 1.397 . S
C422 C427 1.363 . S
C423 H394 0.950 . S
C423 C422 1.397 . S
C423 C424 1.334 . S
C424 H395 0.950 . S
C424 C423 1.334 . S
C424 C425 1.287 . S
C425 C424 1.287 . S
C425 C426 1.524 . S
C425 H428 0.999 . S
C426 H396 0.950 . S
C426 C425 1.524 . S
C426 C427 1.415 . S
C427 H397 0.950 . S
C427 C422 1.363 . S
C427 C426 1.415 . S
H428 C425 0.999 . S
H429 C410 0.913 . S
H430 C448 0.951 . S
H431 C450 0.951 . S
H432 C452 0.950 . S
H433 C453 0.950 . S
H434 C455 0.950 . S
H435 C458 0.950 . S
H436 C459 0.950 . S
H437 C461 0.950 . S
H438 C462 0.950 . S
H439 C463 0.951 . S
H440 C465 0.951 . S
H441 C467 0.950 . S
H442 C468 0.950 . S
H443 C470 0.950 . S
H444 C473 0.950 . S
H445 C474 0.950 . S
H446 C476 0.950 . S
H447 C477 0.950 . S
C448 H430 0.951 . S
C448 C449 1.366 . S
C448 C450 1.388 . S
C449 C448 1.366 . S
C449 C453 1.385 . S
C450 H431 0.951 . S
C450 C448 1.388 . S
C450 C451 1.366 . S
C451 C450 1.366 . S
C451 C452 1.414 . S
C451 C454 1.499 . S
C452 H432 0.950 . S
C452 C451 1.414 . S
C452 C453 1.374 . S
C453 H433 0.950 . S
C453 C449 1.385 . S
C453 C452 1.374 . S
C454 C451 1.499 . S
C454 C455 1.373 . S
C454 C456 1.389 . S
C455 H434 0.950 . S
C455 C454 1.373 . S
C455 C471 1.377 . S
C456 C454 1.389 . S
C456 C457 1.524 . S
C456 C470 1.377 . S
C457 C456 1.524 . S
C457 C458 1.397 . S
C457 C462 1.363 . S
C458 H435 0.950 . S
C458 C457 1.397 . S
C458 C459 1.334 . S
C459 H436 0.950 . S
C459 C458 1.334 . S
C459 C460 1.287 . S
C460 C459 1.287 . S
C460 C461 1.524 . S
C460 H479 0.913 . S
C461 H437 0.950 . S
C461 C460 1.524 . S
C461 C462 1.415 . S
C462 H438 0.950 . S
C462 C457 1.363 . S
C462 C461 1.415 . S
C463 H439 0.951 . S
C463 C464 1.366 . S
C463 C465 1.388 . S
C464 C463 1.366 . S
C464 C468 1.385 . S
C465 H440 0.951 . S
C465 C463 1.388 . S
C465 C466 1.366 . S
C466 C465 1.366 . S
C466 C467 1.414 . S
C466 C469 1.499 . S
C467 H441 0.950 . S
C467 C466 1.414 . S
C467 C468 1.374 . S
C468 H442 0.950 . S
C468 C464 1.385 . S
C468 C467 1.374 . S
C469 C466 1.499 . S
C469 C470 1.373 . S
C469 C471 1.389 . S
C470 H443 0.950 . S
C470 C456 1.377 . S
C470 C469 1.373 . S
C471 C455 1.377 . S
C471 C469 1.389 . S
C471 C472 1.524 . S
C472 C471 1.524 . S
C472 C473 1.397 . S
C472 C477 1.363 . S
C473 H444 0.950 . S
C473 C472 1.397 . S
C473 C474 1.334 . S
C474 H445 0.950 . S
C474 C473 1.334 . S
C474 C475 1.287 . S
C475 C474 1.287 . S
C475 C476 1.524 . S
C475 H478 0.999 . S
C476 H446 0.950 . S
C476 C475 1.524 . S
C476 C477 1.415 . S
C477 H447 0.950 . S
C477 C472 1.363 . S
C477 C476 1.415 . S
H478 C475 0.999 . S
H479 C460 0.913 . S
H480 C498 0.951 . S
H481 C500 0.951 . S
H482 C502 0.950 . S
H483 C503 0.950 1_455 S
H484 C505 0.950 . S
H485 C508 0.950 . S
H486 C509 0.950 . S
H487 C511 0.950 . S
H488 C512 0.950 . S
H489 C513 0.951 . S
H490 C515 0.951 . S
H491 C517 0.950 1_655 S
H492 C518 0.950 . S
H493 C520 0.950 . S
H494 C523 0.950 . S
H495 C524 0.950 . S
H496 C526 0.950 . S
H497 C527 0.950 . S
C498 H480 0.951 . S
C498 C499 1.366 . S
C498 C500 1.388 . S
C499 C498 1.366 . S
C499 C503 1.385 . S
C500 H481 0.951 . S
C500 C498 1.388 . S
C500 C501 1.366 . S
C501 C500 1.366 . S
C501 C502 1.414 1_655 S
C501 C504 1.499 . S
C502 H482 0.950 . S
C502 C501 1.414 1_455 S
C502 C503 1.374 1_455 S
C503 H483 0.950 1_655 S
C503 C499 1.385 . S
C503 C502 1.374 1_655 S
C504 C501 1.499 . S
C504 C505 1.373 1_655 S
C504 C506 1.389 . S
C505 H484 0.950 . S
C505 C504 1.373 1_455 S
C505 C521 1.377 . S
C506 C504 1.389 . S
C506 C507 1.524 . S
C506 C520 1.377 . S
C507 C506 1.524 . S
C507 C508 1.397 . S
C507 C512 1.363 . S
C508 H485 0.950 . S
C508 C507 1.397 . S
C508 C509 1.334 . S
C509 H486 0.950 . S
C509 C508 1.334 . S
C509 C510 1.287 . S
C510 C509 1.287 . S
C510 C511 1.524 . S
C510 H529 0.913 . S
C511 H487 0.950 . S
C511 C510 1.524 . S
C511 C512 1.415 . S
C512 H488 0.950 . S
C512 C507 1.363 . S
C512 C511 1.415 . S
C513 H489 0.951 . S
C513 C514 1.366 . S
C513 C515 1.388 . S
C514 C513 1.366 . S
C514 C518 1.385 . S
C515 H490 0.951 . S
C515 C513 1.388 . S
C515 C516 1.366 . S
C516 C515 1.366 . S
C516 C517 1.414 . S
C516 C519 1.499 . S
C517 H491 0.950 1_455 S
C517 C516 1.414 . S
C517 C518 1.374 . S
C518 H492 0.950 . S
C518 C514 1.385 . S
C518 C517 1.374 . S
C519 C516 1.499 . S
C519 C520 1.373 1_455 S
C519 C521 1.389 . S
C520 H493 0.950 . S
C520 C506 1.377 . S
C520 C519 1.373 1_655 S
C521 C505 1.377 . S
C521 C519 1.389 . S
C521 C522 1.524 . S
C522 C521 1.524 . S
C522 C523 1.397 . S
C522 C527 1.363 . S
C523 H494 0.950 . S
C523 C522 1.397 . S
C523 C524 1.334 . S
C524 H495 0.950 . S
C524 C523 1.334 . S
C524 C525 1.287 . S
C525 C524 1.287 . S
C525 C526 1.524 . S
C525 H528 0.999 . S
C526 H496 0.950 . S
C526 C525 1.524 . S
C526 C527 1.415 . S
C527 H497 0.950 . S
C527 C522 1.363 . S
C527 C526 1.415 . S
H528 C525 0.999 . S
H529 C510 0.913 . S
H530 C548 0.951 . S
H531 C550 0.951 . S
H532 C552 0.950 . S
H533 C553 0.950 1_455 S
H534 C555 0.950 . S
H535 C558 0.950 1_455 S
H536 C559 0.950 . S
H537 C561 0.950 . S
H538 C562 0.950 . S
H539 C563 0.951 . S
H540 C565 0.951 . S
H541 C567 0.950 1_655 S
H542 C568 0.950 . S
H543 C570 0.950 . S
H544 C573 0.950 . S
H545 C574 0.950 . S
H546 C576 0.950 . S
H547 C577 0.950 . S
C548 H530 0.951 . S
C548 C549 1.366 . S
C548 C550 1.388 . S
C549 C548 1.366 . S
C549 C553 1.385 . S
C550 H531 0.951 . S
C550 C548 1.388 . S
C550 C551 1.366 . S
C551 C550 1.366 . S
C551 C552 1.414 1_655 S
C551 C554 1.499 . S
C552 H532 0.950 . S
C552 C551 1.414 1_455 S
C552 C553 1.374 1_455 S
C553 H533 0.950 1_655 S
C553 C549 1.385 . S
C553 C552 1.374 1_655 S
C554 C551 1.499 . S
C554 C555 1.373 1_655 S
C554 C556 1.389 . S
C555 H534 0.950 . S
C555 C554 1.373 1_455 S
C555 C571 1.377 . S
C556 C554 1.389 . S
C556 C557 1.524 . S
C556 C570 1.377 1_655 S
C557 C556 1.524 . S
C557 C558 1.397 . S
C557 C562 1.363 . S
C558 H535 0.950 1_655 S
C558 C557 1.397 . S
C558 C559 1.334 . S
C559 H536 0.950 . S
C559 C558 1.334 . S
C559 C560 1.287 . S
C560 C559 1.287 . S
C560 C561 1.524 . S
C560 H579 0.913 . S
C561 H537 0.950 . S
C561 C560 1.524 . S
C561 C562 1.415 . S
C562 H538 0.950 . S
C562 C557 1.363 . S
C562 C561 1.415 . S
C563 H539 0.951 . S
C563 C564 1.366 . S
C563 C565 1.388 . S
C564 C563 1.366 . S
C564 C568 1.385 . S
C565 H540 0.951 . S
C565 C563 1.388 . S
C565 C566 1.366 . S
C566 C565 1.366 . S
C566 C567 1.414 . S
C566 C569 1.499 . S
C567 H541 0.950 1_455 S
C567 C566 1.414 . S
C567 C568 1.374 . S
C568 H542 0.950 . S
C568 C564 1.385 . S
C568 C567 1.374 . S
C569 C566 1.499 . S
C569 C570 1.373 . S
C569 C571 1.389 . S
C570 H543 0.950 . S
C570 C556 1.377 1_455 S
C570 C569 1.373 . S
C571 C555 1.377 . S
C571 C569 1.389 . S
C571 C572 1.524 . S
C572 C571 1.524 . S
C572 C573 1.397 . S
C572 C577 1.363 . S
C573 H544 0.950 . S
C573 C572 1.397 . S
C573 C574 1.334 . S
C574 H545 0.950 . S
C574 C573 1.334 . S
C574 C575 1.287 . S
C575 C574 1.287 . S
C575 C576 1.524 . S
C575 H578 0.999 . S
C576 H546 0.950 . S
C576 C575 1.524 . S
C576 C577 1.415 . S
C577 H547 0.950 . S
C577 C572 1.363 . S
C577 C576 1.415 . S
H578 C575 0.999 . S
H579 C560 0.913 . S
H580 C598 0.951 . S
H581 C600 0.951 . S
H582 C602 0.950 1_455 S
H583 C603 0.950 . S
H584 C605 0.950 . S
H585 C608 0.950 . S
H586 C609 0.950 . S
H587 C611 0.950 . S
H588 C612 0.950 . S
H589 C613 0.951 . S
H590 C615 0.951 . S
H591 C617 0.950 . S
H592 C618 0.950 1_655 S
H593 C620 0.950 . S
H594 C623 0.950 . S
H595 C624 0.950 . S
H596 C626 0.950 . S
H597 C627 0.950 . S
C598 H580 0.951 . S
C598 C599 1.366 . S
C598 C600 1.388 . S
C599 C598 1.366 . S
C599 C603 1.385 . S
C600 H581 0.951 . S
C600 C598 1.388 . S
C600 C601 1.366 . S
C601 C600 1.366 . S
C601 C602 1.414 . S
C601 C604 1.499 . S
C602 H582 0.950 1_655 S
C602 C601 1.414 . S
C602 C603 1.374 . S
C603 H583 0.950 . S
C603 C599 1.385 . S
C603 C602 1.374 . S
C604 C601 1.499 . S
C604 C605 1.373 1_655 S
C604 C606 1.389 . S
C605 H584 0.950 . S
C605 C604 1.373 1_455 S
C605 C621 1.377 . S
C606 C604 1.389 . S
C606 C607 1.524 . S
C606 C620 1.377 . S
C607 C606 1.524 . S
C607 C608 1.397 . S
C607 C612 1.363 . S
C608 H585 0.950 . S
C608 C607 1.397 . S
C608 C609 1.334 . S
C609 H586 0.950 . S
C609 C608 1.334 . S
C609 C610 1.287 . S
C610 C609 1.287 . S
C610 C611 1.524 . S
C610 H629 0.913 . S
C611 H587 0.950 . S
C611 C610 1.524 . S
C611 C612 1.415 . S
C612 H588 0.950 . S
C612 C607 1.363 . S
C612 C611 1.415 . S
C613 H589 0.951 . S
C613 C614 1.366 . S
C613 C615 1.388 . S
C614 C613 1.366 . S
C614 C618 1.385 . S
C615 H590 0.951 . S
C615 C613 1.388 . S
C615 C616 1.366 . S
C616 C615 1.366 . S
C616 C617 1.414 1_455 S
C616 C619 1.499 . S
C617 H591 0.950 . S
C617 C616 1.414 1_655 S
C617 C618 1.374 1_655 S
C618 H592 0.950 1_455 S
C618 C614 1.385 . S
C618 C617 1.374 1_455 S
C619 C616 1.499 . S
C619 C620 1.373 1_455 S
C619 C621 1.389 . S
C620 H593 0.950 . S
C620 C606 1.377 . S
C620 C619 1.373 1_655 S
C621 C605 1.377 . S
C621 C619 1.389 . S
C621 C622 1.524 . S
C622 C621 1.524 . S
C622 C623 1.397 . S
C622 C627 1.363 . S
C623 H594 0.950 . S
C623 C622 1.397 . S
C623 C624 1.334 . S
C624 H595 0.950 . S
C624 C623 1.334 . S
C624 C625 1.287 . S
C625 C624 1.287 . S
C625 C626 1.524 . S
C625 H628 0.999 . S
C626 H596 0.950 . S
C626 C625 1.524 . S
C626 C627 1.415 . S
C627 H597 0.950 . S
C627 C622 1.363 . S
C627 C626 1.415 . S
H628 C625 0.999 . S
H629 C610 0.913 . S
H630 C648 0.951 . S
H631 C650 0.951 . S
H632 C652 0.950 . S
H633 C653 0.953 . S
H634 C655 0.950 . S
H635 C658 0.950 . S
H636 C659 0.950 . S
H637 C661 0.950 . S
H638 C662 0.950 . S
H639 C663 0.951 . S
H640 C665 0.951 . S
H641 C667 0.950 1_455 S
H642 C668 0.950 . S
H643 C670 0.950 . S
H644 C673 0.950 1_455 S
H645 C674 0.950 . S
H646 C676 0.950 . S
H647 C677 0.950 . S
C648 H630 0.951 . S
C648 C649 1.366 . S
C648 C650 1.388 . S
C649 C648 1.366 . S
C649 C653 1.385 . S
C650 H631 0.951 . S
C650 C648 1.388 . S
C650 C651 1.366 . S
C651 C650 1.366 . S
C651 C652 1.414 1_455 S
C651 C654 1.499 . S
C652 H632 0.950 . S
C652 C651 1.414 1_655 S
C652 C653 1.374 1_655 S
C653 H633 0.953 . S
C653 C649 1.385 . S
C653 C652 1.374 1_455 S
C654 C651 1.499 . S
C654 C655 1.373 1_455 S
C654 C656 1.389 . S
C655 H634 0.950 . S
C655 C654 1.373 1_655 S
C655 C671 1.377 . S
C656 C654 1.389 . S
C656 C657 1.524 . S
C656 C670 1.377 1_455 S
C657 C656 1.524 . S
C657 C658 1.397 1_455 S
C657 C662 1.363 . S
C658 H635 0.950 . S
C658 C657 1.397 1_655 S
C658 C659 1.334 . S
C659 H636 0.950 . S
C659 C658 1.334 . S
C659 C660 1.287 1_655 S
C660 C659 1.287 1_455 S
C660 C661 1.524 . S
C660 H679 0.913 . S
C661 H637 0.950 . S
C661 C660 1.524 . S
C661 C662 1.415 . S
C662 H638 0.950 . S
C662 C657 1.363 . S
C662 C661 1.415 . S
C663 H639 0.951 . S
C663 C664 1.366 . S
C663 C665 1.388 . S
C664 C663 1.366 . S
C664 C668 1.385 . S
C665 H640 0.951 . S
C665 C663 1.388 . S
C665 C666 1.366 . S
C666 C665 1.366 . S
C666 C667 1.414 . S
C666 C669 1.499 . S
C667 H641 0.950 1_655 S
C667 C666 1.414 . S
C667 C668 1.374 . S
C668 H642 0.950 . S
C668 C664 1.385 . S
C668 C667 1.374 . S
C669 C666 1.499 . S
C669 C670 1.373 . S
C669 C671 1.389 . S
C670 H643 0.950 . S
C670 C656 1.377 1_655 S
C670 C669 1.373 . S
C671 C655 1.377 . S
C671 C669 1.389 . S
C671 C672 1.524 . S
C672 C671 1.524 . S
C672 C673 1.397 . S
C672 C677 1.363 . S
C673 H644 0.950 1_655 S
C673 C672 1.397 . S
C673 C674 1.334 . S
C674 H645 0.950 . S
C674 C673 1.334 . S
C674 C675 1.287 . S
C675 C674 1.287 . S
C675 C676 1.524 . S
C675 H678 0.999 . S
C676 H646 0.950 . S
C676 C675 1.524 . S
C676 C677 1.415 . S
C677 H647 0.950 . S
C677 C672 1.363 . S
C677 C676 1.415 . S
H678 C675 0.999 . S
H679 C660 0.913 . S
C99 C29 1.501 1_554 S
C114 C1 1.508 . S
C149 C41 1.500 . S
C164 C69 1.500 . S
C199 C9 1.501 1_554 S
C214 C21 1.508 . S
C249 C61 1.500 . S
C264 C49 1.500 . S
C299 C68 1.244 . S
C314 C16 1.260 . S
C349 C28 1.245 . S
C364 C56 1.261 . S
C399 C26 1.260 . S
C414 C59 1.245 . S
C449 C66 1.261 . S
C464 C19 1.244 . S
C499 C36 1.260 . S
C514 C48 1.245 . S
C549 C76 1.261 . S
C564 C8 1.245 . S
C599 C79 1.244 . S
C614 C6 1.260 . S
C649 C46 1.261 . S
C664 C39 1.244 . S
