# Generated by pormake.
# Topology vbr, (6)-cn, num edge types: 1
# Building blocks:
#     Node 0, Type 0, BuildingBlock: OJICUG_clean_sbu_0, # of connection points: 6
#     Node 1, Type 0, BuildingBlock: OJICUG_clean_sbu_0, # of connection points: 6
#     Node 2, Type 0, BuildingBlock: OJICUG_clean_sbu_0, # of connection points: 6
#     Node 3, Type 0, BuildingBlock: OJICUG_clean_sbu_0, # of connection points: 6
#     Node 4, Type 0, BuildingBlock: OJICUG_clean_sbu_0, # of connection points: 6
#     Node 5, Type 0, BuildingBlock: OJICUG_clean_sbu_0, # of connection points: 6
#     Node 6, Type 0, BuildingBlock: OJICUG_clean_sbu_0, # of connection points: 6
#     Node 7, Type 0, BuildingBlock: OJICUG_clean_sbu_0, # of connection points: 6
#     Node 8, Type 0, BuildingBlock: OJICUG_clean_sbu_0, # of connection points: 6
#     Node 9, Type 0, BuildingBlock: OJICUG_clean_sbu_0, # of connection points: 6
#     Node 10, Type 0, BuildingBlock: OJICUG_clean_sbu_0, # of connection points: 6
#     Node 11, Type 0, BuildingBlock: OJICUG_clean_sbu_0, # of connection points: 6
#     Node 12, Type 0, BuildingBlock: OJICUG_clean_sbu_0, # of connection points: 6
#     Node 13, Type 0, BuildingBlock: OJICUG_clean_sbu_0, # of connection points: 6
#     Node 14, Type 0, BuildingBlock: OJICUG_clean_sbu_0, # of connection points: 6
#     Node 15, Type 0, BuildingBlock: OJICUG_clean_sbu_0, # of connection points: 6
#     Edge 16, Type (0, 0), BuildingBlock: UVAHIK_clean_linker_0, # of connection points: 2
#     Edge 17, Type (0, 0), BuildingBlock: UVAHIK_clean_linker_0, # of connection points: 2
#     Edge 18, Type (0, 0), BuildingBlock: UVAHIK_clean_linker_0, # of connection points: 2
#     Edge 19, Type (0, 0), BuildingBlock: UVAHIK_clean_linker_0, # of connection points: 2
#     Edge 20, Type (0, 0), BuildingBlock: UVAHIK_clean_linker_0, # of connection points: 2
#     Edge 21, Type (0, 0), BuildingBlock: UVAHIK_clean_linker_0, # of connection points: 2
#     Edge 22, Type (0, 0), BuildingBlock: UVAHIK_clean_linker_0, # of connection points: 2
#     Edge 23, Type (0, 0), BuildingBlock: UVAHIK_clean_linker_0, # of connection points: 2
#     Edge 24, Type (0, 0), BuildingBlock: UVAHIK_clean_linker_0, # of connection points: 2
#     Edge 25, Type (0, 0), BuildingBlock: UVAHIK_clean_linker_0, # of connection points: 2
#     Edge 26, Type (0, 0), BuildingBlock: UVAHIK_clean_linker_0, # of connection points: 2
#     Edge 27, Type (0, 0), BuildingBlock: UVAHIK_clean_linker_0, # of connection points: 2
#     Edge 28, Type (0, 0), BuildingBlock: UVAHIK_clean_linker_0, # of connection points: 2
#     Edge 29, Type (0, 0), BuildingBlock: UVAHIK_clean_linker_0, # of connection points: 2
#     Edge 30, Type (0, 0), BuildingBlock: UVAHIK_clean_linker_0, # of connection points: 2
#     Edge 31, Type (0, 0), BuildingBlock: UVAHIK_clean_linker_0, # of connection points: 2
#     Edge 32, Type (0, 0), BuildingBlock: UVAHIK_clean_linker_0, # of connection points: 2
#     Edge 33, Type (0, 0), BuildingBlock: UVAHIK_clean_linker_0, # of connection points: 2
#     Edge 34, Type (0, 0), BuildingBlock: UVAHIK_clean_linker_0, # of connection points: 2
#     Edge 35, Type (0, 0), BuildingBlock: UVAHIK_clean_linker_0, # of connection points: 2
#     Edge 36, Type (0, 0), BuildingBlock: UVAHIK_clean_linker_0, # of connection points: 2
#     Edge 37, Type (0, 0), BuildingBlock: UVAHIK_clean_linker_0, # of connection points: 2
#     Edge 38, Type (0, 0), BuildingBlock: UVAHIK_clean_linker_0, # of connection points: 2
#     Edge 39, Type (0, 0), BuildingBlock: UVAHIK_clean_linker_0, # of connection points: 2
#     Edge 40, Type (0, 0), BuildingBlock: UVAHIK_clean_linker_0, # of connection points: 2
#     Edge 41, Type (0, 0), BuildingBlock: UVAHIK_clean_linker_0, # of connection points: 2
#     Edge 42, Type (0, 0), BuildingBlock: UVAHIK_clean_linker_0, # of connection points: 2
#     Edge 43, Type (0, 0), BuildingBlock: UVAHIK_clean_linker_0, # of connection points: 2
#     Edge 44, Type (0, 0), BuildingBlock: UVAHIK_clean_linker_0, # of connection points: 2
#     Edge 45, Type (0, 0), BuildingBlock: UVAHIK_clean_linker_0, # of connection points: 2
#     Edge 46, Type (0, 0), BuildingBlock: UVAHIK_clean_linker_0, # of connection points: 2
#     Edge 47, Type (0, 0), BuildingBlock: UVAHIK_clean_linker_0, # of connection points: 2
#     Edge 48, Type (0, 0), BuildingBlock: UVAHIK_clean_linker_0, # of connection points: 2
#     Edge 49, Type (0, 0), BuildingBlock: UVAHIK_clean_linker_0, # of connection points: 2
#     Edge 50, Type (0, 0), BuildingBlock: UVAHIK_clean_linker_0, # of connection points: 2
#     Edge 51, Type (0, 0), BuildingBlock: UVAHIK_clean_linker_0, # of connection points: 2
#     Edge 52, Type (0, 0), BuildingBlock: UVAHIK_clean_linker_0, # of connection points: 2
#     Edge 53, Type (0, 0), BuildingBlock: UVAHIK_clean_linker_0, # of connection points: 2
#     Edge 54, Type (0, 0), BuildingBlock: UVAHIK_clean_linker_0, # of connection points: 2
#     Edge 55, Type (0, 0), BuildingBlock: UVAHIK_clean_linker_0, # of connection points: 2
#     Edge 56, Type (0, 0), BuildingBlock: UVAHIK_clean_linker_0, # of connection points: 2
#     Edge 57, Type (0, 0), BuildingBlock: UVAHIK_clean_linker_0, # of connection points: 2
#     Edge 58, Type (0, 0), BuildingBlock: UVAHIK_clean_linker_0, # of connection points: 2
#     Edge 59, Type (0, 0), BuildingBlock: UVAHIK_clean_linker_0, # of connection points: 2
#     Edge 60, Type (0, 0), BuildingBlock: UVAHIK_clean_linker_0, # of connection points: 2
#     Edge 61, Type (0, 0), BuildingBlock: UVAHIK_clean_linker_0, # of connection points: 2
#     Edge 62, Type (0, 0), BuildingBlock: UVAHIK_clean_linker_0, # of connection points: 2
#     Edge 63, Type (0, 0), BuildingBlock: UVAHIK_clean_linker_0, # of connection points: 2
# Relax obj value: 0.306
# Max RMSD: 0.281
# Mean RMSD: 0.281
data_MOF--net-vbr--node1-OJICUG_clean_sbu_0--edge1-UVAHIK_clean_linker_0
_symmetry_space_group_name_H-M    P1
_symmetry_Int_Tables_number       1
_symmetry_cell_setting            triclinic
loop_
_symmetry_equiv_pos_as_xyz
'x, y, z'
_cell_length_a     55.637802
_cell_length_b     37.048502
_cell_length_c     72.273996
_cell_angle_alpha  90.065641
_cell_angle_beta   89.985029
_cell_angle_gamma 90.00248
loop_
_atom_site_label
_atom_site_type_symbol
_atom_site_fract_x
_atom_site_fract_y
_atom_site_fract_z
_atom_type_partial_charge
Sc0 Sc 0.33906 0.16945 0.10362 0.0
Sc1 Sc 0.28072 0.15369 0.11993 0.0
Sc2 Sc 0.3244 0.08512 0.12322 0.0
O3 O 0.31472 0.13604 0.1156 0.0
C4 C 0.35137 0.0939 0.0844 0.0
C5 C 0.29159 0.1827 0.07961 0.0
C6 C 0.27121 0.07065 0.11001 0.0
C7 C 0.31024 0.22663 0.12719 0.0
C8 C 0.36981 0.13189 0.13536 0.0
C9 C 0.29182 0.1124 0.15719 0.0
O10 O 0.35156 0.1281 0.08527 0.0
O11 O 0.27696 0.1703 0.09158 0.0
O12 O 0.29297 0.06079 0.11139 0.0
O13 O 0.32958 0.21579 0.11979 0.0
O14 O 0.35697 0.10358 0.1363 0.0
O15 O 0.28236 0.13848 0.14839 0.0
O16 O 0.36568 0.15749 0.12412 0.0
O17 O 0.29138 0.2074 0.12777 0.0
O18 O 0.30638 0.08996 0.14983 0.0
O19 O 0.31414 0.18492 0.08234 0.0
O20 O 0.34255 0.07432 0.09718 0.0
O21 O 0.26429 0.10267 0.11328 0.0
Sc22 Sc 0.14548 0.83026 0.601 0.0
Sc23 Sc 0.20238 0.84673 0.62034 0.0
Sc24 Sc 0.155 0.90893 0.62724 0.0
O25 O 0.16768 0.86197 0.61626 0.0
C26 C 0.13123 0.90932 0.58708 0.0
C27 C 0.1944 0.82715 0.57792 0.0
C28 C 0.2084 0.93222 0.61688 0.0
C29 C 0.17582 0.77012 0.62164 0.0
C30 C 0.11056 0.85563 0.63321 0.0
C31 C 0.18703 0.87645 0.66005 0.0
O32 O 0.13144 0.87515 0.58583 0.0
O33 O 0.20802 0.83594 0.59134 0.0
O34 O 0.18643 0.93891 0.62003 0.0
O35 O 0.15693 0.78103 0.61362 0.0
O36 O 0.12174 0.8849 0.63634 0.0
O37 O 0.19951 0.85613 0.64958 0.0
O38 O 0.11731 0.83286 0.62114 0.0
O39 O 0.19352 0.79076 0.62506 0.0
O40 O 0.1704 0.89713 0.65412 0.0
O41 O 0.17173 0.82401 0.57949 0.0
O42 O 0.13946 0.92604 0.60112 0.0
O43 O 0.21677 0.90032 0.61637 0.0
Sc44 Sc 0.34826 0.84417 0.89288 0.0
Sc45 Sc 0.28995 0.85881 0.87627 0.0
Sc46 Sc 0.3346 0.92456 0.86895 0.0
O47 O 0.3243 0.87588 0.8793 0.0
C48 C 0.36052 0.92264 0.90853 0.0
C49 C 0.30064 0.83675 0.91756 0.0
C50 C 0.28177 0.94368 0.88162 0.0
C51 C 0.31883 0.78413 0.87214 0.0
C52 C 0.38035 0.87576 0.86005 0.0
C53 C 0.30165 0.89077 0.83676 0.0
O54 O 0.36009 0.88845 0.90958 0.0
O55 O 0.28618 0.84893 0.90543 0.0
O56 O 0.30365 0.95222 0.87947 0.0
O57 O 0.33876 0.79586 0.87817 0.0
O58 O 0.36702 0.90295 0.85699 0.0
O59 O 0.29173 0.86732 0.84708 0.0
O60 O 0.37597 0.85292 0.87271 0.0
O61 O 0.30001 0.80347 0.8716 0.0
O62 O 0.31645 0.91447 0.84269 0.0
O63 O 0.32293 0.83189 0.91448 0.0
O64 O 0.35275 0.93978 0.89446 0.0
O65 O 0.27417 0.91151 0.88005 0.0
Sc66 Sc 0.15674 0.0745 0.37088 0.0
Sc67 Sc 0.20154 0.1411 0.37126 0.0
Sc68 Sc 0.1458 0.15854 0.3918 0.0
O69 O 0.16797 0.12472 0.37796 0.0
C70 C 0.11051 0.12178 0.36237 0.0
C71 C 0.18541 0.10195 0.33491 0.0
C72 C 0.17231 0.21551 0.36723 0.0
C73 C 0.21048 0.05752 0.38025 0.0
C74 C 0.13473 0.08372 0.41158 0.0
C75 C 0.1967 0.16958 0.41197 0.0
O76 O 0.12387 0.09464 0.35924 0.0
O77 O 0.1951 0.129 0.34279 0.0
O78 O 0.15293 0.20377 0.3742 0.0
O79 O 0.1884 0.04955 0.38172 0.0
O80 O 0.13647 0.11785 0.4115 0.0
O81 O 0.20941 0.15441 0.39953 0.0
O82 O 0.14007 0.06439 0.39759 0.0
O83 O 0.21769 0.08848 0.37513 0.0
O84 O 0.17414 0.17469 0.41034 0.0
O85 O 0.1729 0.07845 0.34351 0.0
O86 O 0.11563 0.14588 0.3743 0.0
O87 O 0.19124 0.19642 0.3662 0.0
Sc88 Sc 0.66631 0.9011 0.86972 0.0
Sc89 Sc 0.70907 0.8316 0.87193 0.0
Sc90 Sc 0.65157 0.81777 0.89025 0.0
O91 O 0.67559 0.85017 0.87728 0.0
C92 C 0.64127 0.89377 0.90948 0.0
C93 C 0.72009 0.91476 0.88072 0.0
C94 C 0.70065 0.8042 0.91262 0.0
C95 C 0.69627 0.87106 0.8348 0.0
C96 C 0.61907 0.8566 0.85973 0.0
C97 C 0.67823 0.75903 0.86664 0.0
O98 O 0.64887 0.91283 0.89603 0.0
O99 O 0.72652 0.88292 0.87649 0.0
O100 O 0.67806 0.80081 0.91023 0.0
O101 O 0.6835 0.89523 0.84273 0.0
O102 O 0.62308 0.8316 0.87139 0.0
O103 O 0.69751 0.77731 0.86612 0.0
O104 O 0.63321 0.88318 0.85742 0.0
O105 O 0.70509 0.84407 0.84327 0.0
O106 O 0.65887 0.77132 0.87341 0.0
O107 O 0.69827 0.92458 0.88108 0.0
O108 O 0.64151 0.85954 0.90916 0.0
O109 O 0.7146 0.81775 0.90049 0.0
Sc110 Sc 0.84012 0.18581 0.38702 0.0
Sc111 Sc 0.78211 0.17048 0.36969 0.0
Sc112 Sc 0.82514 0.10121 0.36806 0.0
O113 O 0.81582 0.15251 0.37488 0.0
C114 C 0.87206 0.14458 0.35682 0.0
C115 C 0.81363 0.24115 0.36113 0.0
C116 C 0.79318 0.12646 0.33339 0.0
C117 C 0.79167 0.20292 0.40942 0.0
C118 C 0.85051 0.11155 0.40754 0.0
C119 C 0.7719 0.08859 0.38133 0.0
O120 O 0.86846 0.16976 0.36847 0.0
O121 O 0.79415 0.22326 0.36136 0.0
O122 O 0.80696 0.10392 0.34146 0.0
O123 O 0.81423 0.20549 0.40679 0.0
O124 O 0.84346 0.0919 0.39412 0.0
O125 O 0.76489 0.11997 0.37673 0.0
O126 O 0.84985 0.14577 0.40702 0.0
O127 O 0.77747 0.18851 0.39774 0.0
O128 O 0.79375 0.0789 0.38068 0.0
O129 O 0.83278 0.23001 0.36873 0.0
O130 O 0.85764 0.11833 0.35465 0.0
O131 O 0.78438 0.15398 0.34142 0.0
Sc132 Sc 0.64711 0.06046 0.12528 0.0
Sc133 Sc 0.69432 0.1224 0.11838 0.0
Sc134 Sc 0.63674 0.14207 0.10147 0.0
O135 O 0.65939 0.10831 0.11509 0.0
C136 C 0.62199 0.06451 0.08559 0.0
C137 C 0.69951 0.0374 0.11262 0.0
C138 C 0.68457 0.14557 0.07693 0.0
C139 C 0.68043 0.09104 0.15785 0.0
C140 C 0.60363 0.11367 0.13424 0.0
C141 C 0.66865 0.19951 0.12234 0.0
O142 O 0.62991 0.04653 0.09931 0.0
O143 O 0.70812 0.06904 0.11347 0.0
O144 O 0.66223 0.15092 0.07957 0.0
O145 O 0.66416 0.06968 0.15192 0.0
O146 O 0.60944 0.13713 0.12226 0.0
O147 O 0.68636 0.17811 0.12379 0.0
O148 O 0.6149 0.08418 0.13639 0.0
O149 O 0.69221 0.11238 0.14747 0.0
O150 O 0.64866 0.18989 0.11552 0.0
O151 O 0.67758 0.03051 0.11578 0.0
O152 O 0.6225 0.09876 0.08507 0.0
O153 O 0.69859 0.1337 0.08943 0.0
Sc154 Sc 0.82484 0.91903 0.6191 0.0
Sc155 Sc 0.77803 0.85557 0.61274 0.0
Sc156 Sc 0.8338 0.84292 0.59079 0.0
O157 O 0.81216 0.87256 0.60757 0.0
C158 C 0.8469 0.92326 0.57837 0.0
C159 C 0.77073 0.94086 0.61001 0.0
C160 C 0.78349 0.83936 0.56968 0.0
C161 C 0.79475 0.88424 0.65231 0.0
C162 C 0.86981 0.86615 0.62282 0.0
C163 C 0.80649 0.7807 0.61249 0.0
O164 O 0.83954 0.93842 0.59314 0.0
O165 O 0.76272 0.90873 0.60943 0.0
O166 O 0.80633 0.83817 0.57005 0.0
O167 O 0.81083 0.90561 0.64619 0.0
O168 O 0.863 0.84472 0.61013 0.0
O169 O 0.78878 0.80038 0.61714 0.0
O170 O 0.85844 0.89472 0.62709 0.0
O171 O 0.78203 0.86421 0.64191 0.0
O172 O 0.82392 0.79244 0.60295 0.0
O173 O 0.79271 0.9482 0.61287 0.0
O174 O 0.84644 0.88932 0.57613 0.0
O175 O 0.77066 0.84498 0.58396 0.0
Sc176 Sc 0.84303 0.64261 0.10433 0.0
Sc177 Sc 0.78431 0.62254 0.11867 0.0
Sc178 Sc 0.8315 0.56199 0.12872 0.0
O179 O 0.8196 0.60904 0.1173 0.0
C180 C 0.85913 0.56458 0.08997 0.0
C181 C 0.79714 0.64632 0.07773 0.0
C182 C 0.78028 0.53746 0.11345 0.0
C183 C 0.80948 0.69968 0.12405 0.0
C184 C 0.87453 0.61559 0.13833 0.0
C185 C 0.79508 0.59245 0.15919 0.0
O186 O 0.85849 0.59881 0.089 0.0
O187 O 0.78226 0.63467 0.08966 0.0
O188 O 0.80162 0.53124 0.11871 0.0
O189 O 0.8298 0.69034 0.11769 0.0
O190 O 0.86321 0.58616 0.14052 0.0
O191 O 0.78352 0.61182 0.14773 0.0
O192 O 0.86908 0.63857 0.12604 0.0
O193 O 0.79173 0.67817 0.12492 0.0
O194 O 0.81285 0.57257 0.15462 0.0
O195 O 0.81931 0.65112 0.08124 0.0
O196 O 0.8503 0.54706 0.10353 0.0
O197 O 0.77153 0.56902 0.11264 0.0
Sc198 Sc 0.64385 0.34251 0.60331 0.0
Sc199 Sc 0.70177 0.35499 0.62168 0.0
Sc200 Sc 0.65624 0.41902 0.63065 0.0
O201 O 0.66734 0.37217 0.61858 0.0
C202 C 0.63195 0.42324 0.59071 0.0
C203 C 0.69194 0.33701 0.57929 0.0
C204 C 0.70963 0.43998 0.61888 0.0
C205 C 0.6727 0.28042 0.62364 0.0
C206 C 0.61089 0.36817 0.6368 0.0
C207 C 0.68868 0.38346 0.66214 0.0
O208 O 0.63128 0.3892 0.58867 0.0
O209 O 0.70605 0.34474 0.59256 0.0
O210 O 0.68808 0.44746 0.62311 0.0
O211 O 0.654 0.29235 0.61572 0.0
O212 O 0.62294 0.39644 0.64025 0.0
O213 O 0.70053 0.36367 0.65101 0.0
O214 O 0.61631 0.34617 0.62399 0.0
O215 O 0.69118 0.29982 0.62652 0.0
O216 O 0.67207 0.4049 0.65699 0.0
O217 O 0.66926 0.33488 0.58122 0.0
O218 O 0.64033 0.43826 0.60519 0.0
O219 O 0.7173 0.40779 0.6175 0.0
Sc220 Sc 0.84305 0.31589 0.89533 0.0
Sc221 Sc 0.78637 0.33053 0.87614 0.0
Sc222 Sc 0.82925 0.39931 0.87498 0.0
O223 O 0.81966 0.34858 0.88216 0.0
C224 C 0.85368 0.39094 0.91493 0.0
C225 C 0.79304 0.30309 0.91666 0.0
C226 C 0.77585 0.41381 0.88507 0.0
C227 C 0.81698 0.25756 0.8716 0.0
C228 C 0.87601 0.35456 0.86496 0.0
C229 C 0.79992 0.36988 0.83966 0.0
O230 O 0.85223 0.3568 0.9149 0.0
O231 O 0.77975 0.31839 0.90465 0.0
O232 O 0.79776 0.42221 0.88721 0.0
O233 O 0.83649 0.27073 0.87759 0.0
O234 O 0.86169 0.38068 0.86207 0.0
O235 O 0.79215 0.34155 0.84756 0.0
O236 O 0.87226 0.33053 0.87721 0.0
O237 O 0.79745 0.27533 0.8715 0.0
O238 O 0.81134 0.39479 0.84817 0.0
O239 O 0.81555 0.29808 0.91442 0.0
O240 O 0.84742 0.41009 0.90111 0.0
O241 O 0.76928 0.38282 0.87943 0.0
Sc242 Sc 0.6707 0.59888 0.37717 0.0
Sc243 Sc 0.70864 0.66791 0.36417 0.0
Sc244 Sc 0.65835 0.68454 0.39813 0.0
O245 O 0.67981 0.65149 0.38088 0.0
C246 C 0.62193 0.64138 0.37118 0.0
C247 C 0.68388 0.62229 0.33564 0.0
C248 C 0.67884 0.74213 0.36886 0.0
C249 C 0.72458 0.58804 0.37464 0.0
C250 C 0.65296 0.60926 0.41906 0.0
C251 C 0.71316 0.68087 0.39993 0.0
O252 O 0.6349 0.61333 0.36931 0.0
O253 O 0.6884 0.65463 0.34012 0.0
O254 O 0.66403 0.73093 0.38094 0.0
O255 O 0.70622 0.58259 0.38466 0.0
O256 O 0.65108 0.64323 0.418 0.0
O257 O 0.72948 0.68215 0.38798 0.0
O258 O 0.66009 0.58998 0.4056 0.0
O259 O 0.72605 0.61522 0.36394 0.0
O260 O 0.69389 0.6655 0.39425 0.0
O261 O 0.6806 0.59791 0.34782 0.0
O262 O 0.6283 0.66882 0.38071 0.0
O263 O 0.69561 0.72267 0.36222 0.0
Sc264 Sc 0.15748 0.42507 0.86643 0.0
Sc265 Sc 0.20392 0.36161 0.87323 0.0
Sc266 Sc 0.14656 0.34575 0.89184 0.0
O267 O 0.16934 0.37747 0.87712 0.0
C268 C 0.13313 0.42458 0.90651 0.0
C269 C 0.21071 0.44708 0.87734 0.0
C270 C 0.1953 0.34152 0.91526 0.0
C271 C 0.18946 0.39182 0.8337 0.0
C272 C 0.11258 0.37331 0.85937 0.0
C273 C 0.17651 0.28546 0.87122 0.0
O274 O 0.14086 0.44139 0.89234 0.0
O275 O 0.21882 0.41504 0.87687 0.0
O276 O 0.17277 0.33722 0.9132 0.0
O277 O 0.1738 0.414 0.83978 0.0
O278 O 0.11823 0.35076 0.87186 0.0
O279 O 0.19474 0.30562 0.86888 0.0
O280 O 0.12476 0.4016 0.85615 0.0
O281 O 0.20103 0.37008 0.844 0.0
O282 O 0.15709 0.29678 0.87834 0.0
O283 O 0.18868 0.45438 0.87487 0.0
O284 O 0.13362 0.39043 0.90775 0.0
O285 O 0.20913 0.35183 0.90227 0.0
Sc286 Sc 0.34324 0.65537 0.39307 0.0
Sc287 Sc 0.28635 0.63975 0.37391 0.0
Sc288 Sc 0.3319 0.57411 0.36907 0.0
O289 O 0.3205 0.62302 0.37864 0.0
C290 C 0.37796 0.62346 0.36197 0.0
C291 C 0.31528 0.71431 0.37016 0.0
C292 C 0.30078 0.60532 0.33528 0.0
C293 C 0.29392 0.66438 0.41541 0.0
C294 C 0.35526 0.57753 0.40955 0.0
C295 C 0.27817 0.55506 0.37993 0.0
O296 O 0.37227 0.64671 0.37412 0.0
O297 O 0.29675 0.69461 0.36835 0.0
O298 O 0.31581 0.58279 0.34195 0.0
O299 O 0.31652 0.66775 0.41352 0.0
O300 O 0.34833 0.55983 0.39539 0.0
O301 O 0.27064 0.58725 0.37827 0.0
O302 O 0.35443 0.61172 0.41038 0.0
O303 O 0.28029 0.65261 0.40261 0.0
O304 O 0.30014 0.54645 0.37823 0.0
O305 O 0.33437 0.70334 0.37791 0.0
O306 O 0.36521 0.59578 0.35853 0.0
O307 O 0.2898 0.62864 0.34504 0.0
Sc308 Sc 0.15975 0.58842 0.12273 0.0
Sc309 Sc 0.20373 0.6563 0.12229 0.0
Sc310 Sc 0.14748 0.67253 0.10256 0.0
O311 O 0.17025 0.63906 0.11588 0.0
C312 C 0.13664 0.59792 0.08241 0.0
C313 C 0.21345 0.57297 0.11311 0.0
C314 C 0.19786 0.68478 0.08171 0.0
C315 C 0.18895 0.6162 0.15857 0.0
C316 C 0.11329 0.63448 0.13223 0.0
C317 C 0.17378 0.72988 0.12686 0.0
O318 O 0.14265 0.57831 0.09612 0.0
O319 O 0.22034 0.60394 0.1185 0.0
O320 O 0.17531 0.68959 0.0837 0.0
O321 O 0.17665 0.59242 0.14991 0.0
O322 O 0.11802 0.65903 0.1205 0.0
O323 O 0.19308 0.71157 0.12737 0.0
O324 O 0.12674 0.60725 0.1349 0.0
O325 O 0.19777 0.64403 0.15081 0.0
O326 O 0.15437 0.7173 0.1204 0.0
O327 O 0.19147 0.56474 0.11128 0.0
O328 O 0.13799 0.63207 0.0828 0.0
O329 O 0.21096 0.66961 0.0939 0.0
Sc330 Sc 0.33349 0.4103 0.62298 0.0
Sc331 Sc 0.28847 0.3446 0.61677 0.0
Sc332 Sc 0.34707 0.32726 0.60144 0.0
O333 O 0.32302 0.36076 0.61376 0.0
C334 C 0.36132 0.40394 0.58441 0.0
C335 C 0.28117 0.42895 0.60908 0.0
C336 C 0.30039 0.31958 0.57592 0.0
C337 C 0.29936 0.38078 0.65547 0.0
C338 C 0.37749 0.36022 0.63469 0.0
C339 C 0.31608 0.26955 0.62279 0.0
O340 O 0.35245 0.42268 0.59752 0.0
O341 O 0.27338 0.39705 0.61131 0.0
O342 O 0.32267 0.31518 0.57922 0.0
O343 O 0.31459 0.40334 0.64909 0.0
O344 O 0.37319 0.33589 0.62275 0.0
O345 O 0.2976 0.28962 0.62317 0.0
O346 O 0.36526 0.38906 0.63608 0.0
O347 O 0.28946 0.35638 0.64571 0.0
O348 O 0.33603 0.28007 0.61632 0.0
O349 O 0.30306 0.43745 0.61131 0.0
O350 O 0.36103 0.36969 0.58445 0.0
O351 O 0.2856 0.33173 0.58785 0.0
C352 C 0.29763 0.21002 0.04834 0.0
C353 C 0.28192 0.19722 0.0621 0.0
C354 C 0.28864 0.22662 0.03251 0.0
C355 C 0.23584 0.27563 0.01579 0.0
H356 H 0.26248 0.25564 0.96725 0.0
C357 C 0.19108 0.32066 0.94796 0.0
C358 C 0.20595 0.33165 0.93327 0.0
C359 C 0.20104 0.30734 0.96425 0.0
C360 C 0.25513 0.26193 0.98076 0.0
H361 H 0.24439 0.19077 0.06969 0.0
H362 H 0.22874 0.21951 0.04188 0.0
H363 H 0.27813 0.22385 0.99418 0.0
H364 H 0.243 0.33906 0.9246 0.0
H365 H 0.26037 0.31605 0.95322 0.0
H366 H 0.21273 0.31355 0.00234 0.0
C367 C 0.24802 0.21713 0.04355 0.0
C368 C 0.26402 0.24362 0.99614 0.0
C369 C 0.257 0.20042 0.0594 0.0
C370 C 0.23103 0.3306 0.93559 0.0
C371 C 0.24099 0.31723 0.95191 0.0
C372 C 0.22697 0.29396 0.0004 0.0
C373 C 0.26378 0.2308 0.03009 0.0
C374 C 0.25436 0.25015 0.01378 0.0
C375 C 0.22607 0.30477 0.96623 0.0
C376 C 0.23644 0.28714 0.98273 0.0
H377 H 0.31694 0.20792 0.04994 0.0
H378 H 0.3012 0.23713 0.0224 0.0
H379 H 0.22837 0.28164 0.02928 0.0
H380 H 0.17168 0.32127 0.9467 0.0
H381 H 0.18909 0.29768 0.975 0.0
C382 C 0.29791 0.6871 0.44781 0.0
C383 C 0.28307 0.67729 0.43287 0.0
C384 C 0.28817 0.70322 0.46353 0.0
C385 C 0.23656 0.75729 0.47823 0.0
H386 H 0.25871 0.73363 0.52762 0.0
C387 C 0.19076 0.80845 0.54479 0.0
C388 C 0.20541 0.817 0.56004 0.0
C389 C 0.20073 0.79398 0.52873 0.0
C390 C 0.25263 0.74091 0.51389 0.0
H391 H 0.2462 0.67536 0.4231 0.0
H392 H 0.22917 0.70329 0.45075 0.0
H393 H 0.27425 0.70012 0.50117 0.0
H394 H 0.24225 0.81909 0.5699 0.0
H395 H 0.25967 0.79413 0.54169 0.0
H396 H 0.21488 0.79804 0.49099 0.0
C397 C 0.2484 0.69892 0.45009 0.0
C398 C 0.26143 0.72161 0.49877 0.0
C399 C 0.25813 0.68265 0.43434 0.0
C400 C 0.23043 0.8126 0.55847 0.0
C401 C 0.2404 0.79805 0.54238 0.0
C402 C 0.22775 0.77662 0.49337 0.0
C403 C 0.26339 0.70992 0.46469 0.0
C404 C 0.25347 0.72958 0.48079 0.0
C405 C 0.22557 0.78778 0.52754 0.0
C406 C 0.23569 0.7686 0.51135 0.0
H407 H 0.31719 0.68321 0.4472 0.0
H408 H 0.3002 0.71162 0.47451 0.0
H409 H 0.23043 0.76446 0.4645 0.0
H410 H 0.17143 0.8117 0.54547 0.0
H411 H 0.18883 0.78617 0.51756 0.0
C412 C 0.23451 0.6988 0.06282 0.0
C413 C 0.20938 0.69923 0.06484 0.0
C414 C 0.24532 0.71488 0.04746 0.0
C415 C 0.2339 0.78336 0.01171 0.0
H416 H 0.28604 0.73619 0.98556 0.0
C417 C 0.26624 0.82718 0.93941 0.0
C418 C 0.29106 0.82601 0.93582 0.0
C419 C 0.25712 0.81412 0.9561 0.0
C420 C 0.27173 0.74993 0.99289 0.0
H421 H 0.17587 0.71588 0.05197 0.0
H422 H 0.19473 0.74341 0.02517 0.0
H423 H 0.26851 0.70734 0.0127 0.0
H424 H 0.32586 0.81167 0.94735 0.0
H425 H 0.30988 0.78918 0.97645 0.0
H426 H 0.23695 0.82576 0.99177 0.0
C427 C 0.20608 0.7313 0.03564 0.0
C428 C 0.26169 0.73339 0.0084 0.0
C429 C 0.19529 0.71527 0.05095 0.0
C430 C 0.30661 0.81269 0.94956 0.0
C431 C 0.29748 0.79963 0.96622 0.0
C432 C 0.24393 0.79988 0.9962 0.0
C433 C 0.2312 0.73166 0.03384 0.0
C434 C 0.24252 0.74978 0.01784 0.0
C435 C 0.27263 0.79966 0.96952 0.0
C436 C 0.26281 0.78319 0.98655 0.0
H437 H 0.24591 0.68674 0.07327 0.0
H438 H 0.26474 0.71493 0.04646 0.0
H439 H 0.21942 0.79692 0.01893 0.0
H440 H 0.25375 0.83729 0.92916 0.0
H441 H 0.23785 0.81422 0.95822 0.0
C442 C 0.2665 0.31048 0.55363 0.0
C443 C 0.2912 0.30867 0.55759 0.0
C444 C 0.25769 0.29772 0.5368 0.0
C445 C 0.27224 0.23333 0.50015 0.0
H446 H 0.22102 0.28207 0.47374 0.0
C447 C 0.23386 0.18265 0.43041 0.0
C448 C 0.20869 0.18376 0.42868 0.0
C449 C 0.24513 0.19861 0.4456 0.0
C450 C 0.23522 0.26807 0.48106 0.0
H451 H 0.32613 0.29336 0.54661 0.0
H452 H 0.31066 0.27134 0.51721 0.0
H453 H 0.23881 0.31057 0.50091 0.0
H454 H 0.17562 0.20142 0.44191 0.0
H455 H 0.19531 0.2288 0.4684 0.0
H456 H 0.26841 0.19062 0.48041 0.0
C457 C 0.29814 0.28213 0.52728 0.0
C458 C 0.2454 0.28438 0.49656 0.0
C459 C 0.30697 0.29489 0.5441 0.0
C460 C 0.19504 0.20029 0.4427 0.0
C461 C 0.20631 0.21623 0.45783 0.0
C462 C 0.26206 0.21702 0.48462 0.0
C463 C 0.27339 0.28295 0.52359 0.0
C464 C 0.26379 0.26696 0.50639 0.0
C465 C 0.23145 0.21597 0.45931 0.0
C466 C 0.24323 0.23403 0.4751 0.0
H467 H 0.25386 0.32096 0.56369 0.0
H468 H 0.23848 0.29837 0.53438 0.0
H469 H 0.2862 0.21909 0.50761 0.0
H470 H 0.24491 0.17016 0.41985 0.0
H471 H 0.26457 0.19816 0.4464 0.0
C472 C 0.73617 0.79034 0.93278 0.0
C473 C 0.71116 0.79017 0.92997 0.0
C474 C 0.74604 0.77485 0.94866 0.0
C475 C 0.7307 0.74567 0.99598 0.0
H476 H 0.78645 0.68359 0.9907 0.0
C477 C 0.7632 0.65634 0.05558 0.0
C478 C 0.78797 0.6575 0.05941 0.0
C479 C 0.75422 0.67091 0.0392 0.0
C480 C 0.77099 0.70107 0.99239 0.0
H481 H 0.6769 0.77429 0.94192 0.0
H482 H 0.69415 0.74712 0.96941 0.0
H483 H 0.77025 0.71449 0.9636 0.0
H484 H 0.82283 0.67325 0.04852 0.0
H485 H 0.80705 0.69879 0.01999 0.0
H486 H 0.73137 0.73222 0.02472 0.0
C487 C 0.70611 0.75949 0.95943 0.0
C488 C 0.76178 0.71884 0.97691 0.0
C489 C 0.69624 0.77493 0.94359 0.0
C490 C 0.80364 0.67202 0.04607 0.0
C491 C 0.79464 0.68654 0.02967 0.0
C492 C 0.73988 0.72787 0.01142 0.0
C493 C 0.73111 0.75898 0.96206 0.0
C494 C 0.74148 0.7412 0.97855 0.0
C495 C 0.7698 0.68684 0.02628 0.0
C496 C 0.76003 0.70527 0.00977 0.0
H497 H 0.74819 0.80194 0.92261 0.0
H498 H 0.76537 0.77527 0.95045 0.0
H499 H 0.71528 0.76318 -0.00228 0.0
H500 H 0.75061 0.64514 0.06547 0.0
H501 H 0.73501 0.6702 0.03677 0.0
C502 C 0.68756 0.31715 0.54633 0.0
C503 C 0.70241 0.32838 0.56099 0.0
C504 C 0.69754 0.30631 0.52951 0.0
C505 C 0.75355 0.27013 0.51013 0.0
H506 H 0.72384 0.29292 0.46303 0.0
C507 C 0.79684 0.23229 0.44038 0.0
C508 C 0.78155 0.21792 0.42673 0.0
C509 C 0.78737 0.24704 0.45658 0.0
C510 C 0.73219 0.2861 0.4761 0.0
H511 H 0.73938 0.33837 0.56917 0.0
H512 H 0.75671 0.31983 0.53971 0.0
H513 H 0.70715 0.31809 0.49149 0.0
H514 H 0.74428 0.20771 0.4195 0.0
H515 H 0.72782 0.23328 0.44788 0.0
H516 H 0.77851 0.23802 0.49476 0.0
C517 C 0.73737 0.31881 0.54139 0.0
C518 C 0.72267 0.30052 0.49238 0.0
C519 C 0.72741 0.32962 0.55823 0.0
C520 C 0.75658 0.21856 0.4297 0.0
C521 C 0.74712 0.23343 0.4459 0.0
C522 C 0.76308 0.25577 0.49386 0.0
C523 C 0.72256 0.30653 0.52695 0.0
C524 C 0.73319 0.29255 0.50957 0.0
C525 C 0.76243 0.24783 0.45948 0.0
C526 C 0.75244 0.26348 0.47669 0.0
H527 H 0.66823 0.31587 0.54794 0.0
H528 H 0.68566 0.29665 0.51871 0.0
H529 H 0.7618 0.26295 0.52319 0.0
H530 H 0.81616 0.23229 0.43857 0.0
H531 H 0.79959 0.25828 0.46673 0.0
C532 C 0.71986 0.15392 0.05587 0.0
C533 C 0.69493 0.15598 0.05889 0.0
C534 C 0.72988 0.16752 0.03963 0.0
C535 C 0.71793 0.23531 0.00421 0.0
H536 H 0.77031 0.18878 0.97802 0.0
C537 C 0.75653 0.2898 0.93571 0.0
C538 C 0.78162 0.28847 0.93351 0.0
C539 C 0.74561 0.27337 0.95089 0.0
C540 C 0.75585 0.20224 0.98533 0.0
H541 H 0.66086 0.17208 0.04673 0.0
H542 H 0.67844 0.19554 0.01837 0.0
H543 H 0.75141 0.15813 0.00412 0.0
H544 H 0.81498 0.26991 0.94591 0.0
H545 H 0.79587 0.24171 0.97249 0.0
H546 H 0.7225 0.27956 0.98558 0.0
C547 C 0.6902 0.184 0.02873 0.0
C548 C 0.74502 0.18466 0.0002 0.0
C549 C 0.68016 0.17038 0.04495 0.0
C550 C 0.79559 0.27125 0.9471 0.0
C551 C 0.78466 0.25486 0.96227 0.0
C552 C 0.72878 0.2529 0.98936 0.0
C553 C 0.71519 0.18339 0.0261 0.0
C554 C 0.72601 0.2011 0.00981 0.0
C555 C 0.75955 0.25535 0.96418 0.0
C556 C 0.74792 0.23661 0.97984 0.0
H557 H 0.73176 0.1429 0.06629 0.0
H558 H 0.74923 0.1669 0.03799 0.0
H559 H 0.70359 0.24888 0.01159 0.0
H560 H 0.74521 0.30278 0.92551 0.0
H561 H 0.72619 0.27394 0.95195 0.0
C562 C 0.73084 0.73293 0.41674 0.0
C563 C 0.71429 0.70433 0.41636 0.0
C564 C 0.73445 0.75266 0.43287 0.0
C565 C 0.71165 0.77538 0.47898 0.0
H566 H 0.77948 0.77834 0.49127 0.0
C567 C 0.74896 0.81506 0.55131 0.0
C568 C 0.77151 0.8321 0.55188 0.0
C569 C 0.73927 0.80375 0.53441 0.0
C570 C 0.7605 0.7785 0.48794 0.0
H571 H 0.68779 0.67497 0.43228 0.0
H572 H 0.69415 0.70972 0.46078 0.0
H573 H 0.76676 0.75112 0.46242 0.0
H574 H 0.80063 0.85352 0.53528 0.0
H575 H 0.78339 0.83517 0.50583 0.0
H576 H 0.7055 0.803 0.50465 0.0
C577 C 0.7041 0.71693 0.44844 0.0
C578 C 0.75321 0.76269 0.47142 0.0
C579 C 0.70044 0.6971 0.43217 0.0
C580 C 0.78343 0.83982 0.53525 0.0
C581 C 0.77358 0.82912 0.5184 0.0
C582 C 0.71899 0.79162 0.49556 0.0
C583 C 0.72171 0.74412 0.44903 0.0
C584 C 0.72878 0.76111 0.46672 0.0
C585 C 0.75185 0.80976 0.51782 0.0
C586 C 0.74356 0.79348 0.50016 0.0
H587 H 0.74154 0.7395 0.40468 0.0
H588 H 0.74785 0.7739 0.4329 0.0
H589 H 0.69269 0.77444 0.47562 0.0
H590 H 0.73942 0.80877 0.56397 0.0
H591 H 0.72256 0.78877 0.53448 0.0
C592 C 0.373 0.92391 0.9418 0.0
C593 C 0.36797 0.94285 0.92537 0.0
C594 C 0.37635 0.94219 0.95848 0.0
C595 C 0.36083 0.02906 0.98076 0.0
H596 H 0.39862 0.98971 0.0211 0.0
C597 C 0.36587 0.09885 0.05169 0.0
C598 C 0.35979 0.07693 0.06691 0.0
C599 C 0.37081 0.08365 0.03444 0.0
C600 C 0.38798 0.00092 0.00995 0.0
H601 H 0.36417 0.99628 0.91351 0.0
H602 H 0.37089 0.02838 0.94258 0.0
H603 H 0.40157 0.96284 0.9903 0.0
H604 H 0.35545 0.02151 0.07599 0.0
H605 H 0.3645 0.99489 0.04573 0.0
H606 H 0.34748 0.06734 0.00044 0.0
C607 C 0.37146 -0.00083 0.94263 0.0
C608 C 0.38958 0.98552 0.99229 0.0
C609 C 0.36783 0.98078 0.92589 0.0
C610 C 0.36001 0.03921 0.0646 0.0
C611 C 0.36525 0.02395 0.0473 0.0
C612 C 0.35954 0.04476 -0.00168 0.0
C613 C 0.37508 0.98004 0.95925 0.0
C614 C 0.37566 -0.00106 0.97752 0.0
C615 C 0.37009 0.04613 0.03196 0.0
C616 C 0.3728 0.03052 0.01315 0.0
H617 H 0.37328 0.89468 0.94203 0.0
H618 H 0.37874 0.92633 0.97091 0.0
H619 H 0.34946 0.0398 0.96994 0.0
H620 H 0.366 0.128 0.05287 0.0
H621 H 0.37476 0.10134 0.0229 0.0
C622 C 0.11362 0.9111 0.55524 0.0
C623 C 0.12337 0.92979 0.57047 0.0
C624 C 0.11009 0.92845 0.53835 0.0
C625 C 0.10541 0.01604 0.5148 0.0
H626 H 0.13553 0.96535 0.47392 0.0
C627 C 0.1278 0.0862 0.44579 0.0
C628 C 0.12789 0.06606 0.42926 0.0
C629 C 0.12363 0.06952 0.46279 0.0
C630 C 0.12654 0.97964 0.48502 0.0
H631 H 0.13544 0.98222 0.58012 0.0
H632 H 0.12897 0.01271 0.55048 0.0
H633 H 0.13405 0.93733 0.50428 0.0
H634 H 0.12259 0.01266 0.41768 0.0
H635 H 0.1145 0.98363 0.44734 0.0
H636 H 0.09773 0.0583 0.49554 0.0
C637 C 0.12422 0.98446 0.55174 0.0
C638 C 0.12581 0.96359 0.50248 0.0
C639 C 0.12793 0.96699 0.5687 0.0
C640 C 0.12282 0.02894 0.43013 0.0
C641 C 0.11835 0.01228 0.44718 0.0
C642 C 0.10585 0.03196 0.49724 0.0
C643 C 0.11602 0.96501 0.53625 0.0
C644 C 0.11548 0.98175 0.5176 0.0
C645 C 0.11914 0.03224 0.46379 0.0
C646 C 0.11673 0.01417 0.48215 0.0
H647 H 0.10958 0.88255 0.55609 0.0
H648 H 0.10333 0.91296 0.52674 0.0
H649 H 0.09714 0.03048 0.52618 0.0
H650 H 0.13179 0.11482 0.44573 0.0
H651 H 0.12484 0.08579 0.47521 0.0
C652 C 0.6326 0.94931 0.92875 0.0
C653 C 0.63313 0.9115 0.92687 0.0
C654 C 0.62685 0.96523 0.94581 0.0
C655 C 0.63029 0.946 0.9953 0.0
H656 H 0.58703 0.0271 0.00146 0.0
C657 C 0.61516 0.0073 0.06743 0.0
C658 C 0.615 0.0452 0.06836 0.0
C659 C 0.61289 0.98962 0.05037 0.0
C660 C 0.59934 0.00465 -1e-05 0.0
H661 H 0.62707 0.86096 0.94146 0.0
H662 H 0.61736 0.88872 0.97093 0.0
H663 H 0.59254 0.00034 0.97081 0.0
H664 H 0.6108 0.09406 0.05205 0.0
H665 H 0.6076 0.06356 0.02258 0.0
H666 H 0.63802 0.9509 0.0241 0.0
C667 C 0.62153 0.90601 0.95928 0.0
C668 C 0.60244 0.98934 0.98241 0.0
C669 C 0.62703 0.89015 0.9423 0.0
C670 C 0.61104 0.06482 0.05196 0.0
C671 C 0.60907 0.04723 0.03494 0.0
C672 C 0.62746 0.96153 0.01277 0.0
C673 C 0.62176 0.94365 0.96133 0.0
C674 C 0.618 0.95991 0.9799 0.0
C675 C 0.61067 0.00943 0.03381 0.0
C676 C 0.61204 0.99121 0.01539 0.0
H677 H 0.63715 0.96658 0.91719 0.0
H678 H 0.62724 0.99437 0.94704 0.0
H679 H 0.64266 0.92362 0.99374 0.0
H680 H 0.61798 0.99127 0.07976 0.0
H681 H 0.61357 0.96042 0.05013 0.0
C682 C 0.8603 0.92891 0.54546 0.0
C683 C 0.85465 0.94564 0.5624 0.0
C684 C 0.86497 0.9494 0.5297 0.0
C685 C 0.85233 0.03917 0.51002 0.0
H686 H 0.89411 0.0048 0.47078 0.0
C687 C 0.86167 0.11536 0.44108 0.0
C688 C 0.85782 0.09416 0.42516 0.0
C689 C 0.86553 0.09921 0.45827 0.0
C690 C 0.88238 0.01468 0.48162 0.0
H691 H 0.85074 0.99735 0.57618 0.0
H692 H 0.85952 0.03328 0.54867 0.0
H693 H 0.89407 0.9742 0.50068 0.0
H694 H 0.85632 0.03921 0.4148 0.0
H695 H 0.86331 0.01104 0.44488 0.0
H696 H 0.84064 0.07957 0.49089 0.0
C697 C 0.85975 0.00414 0.54753 0.0
C698 C 0.88228 0.99715 0.49875 0.0
C699 C 0.85488 0.98355 0.56335 0.0
C700 C 0.85915 0.05637 0.42674 0.0
C701 C 0.86325 0.04022 0.44396 0.0
C702 C 0.85265 0.05693 0.49298 0.0
C703 C 0.86437 0.98728 0.53041 0.0
C704 C 0.86684 0.00865 0.51304 0.0
C705 C 0.8659 0.0615 0.45995 0.0
C706 C 0.86733 0.04445 0.47849 0.0
H707 H 0.86029 0.89979 0.5441 0.0
H708 H 0.86804 0.93533 0.51677 0.0
H709 H 0.83991 0.0485 0.52052 0.0
H710 H 0.86086 0.14454 0.44045 0.0
H711 H 0.8678 0.11627 0.47033 0.0
C712 C 0.86796 0.50676 0.07286 0.0
C713 C 0.86776 0.54469 0.07338 0.0
C714 C 0.8721 0.48849 0.05618 0.0
C715 C 0.89045 0.50206 0.00659 0.0
H716 H 0.848 0.4206 -0.00147 0.0
C717 C 0.86202 0.44641 0.93428 0.0
C718 C 0.86149 0.4086 0.93241 0.0
C719 C 0.86697 0.4623 0.95149 0.0
C720 C 0.86017 0.44307 0.00062 0.0
H721 H 0.87328 0.59299 0.05686 0.0
H722 H 0.87965 0.56146 0.02802 0.0
H723 H 0.84991 0.44843 0.02893 0.0
H724 H 0.86694 0.35804 0.94711 0.0
H725 H 0.87524 0.38577 0.97684 0.0
H726 H 0.89972 0.49737 0.97783 0.0
C727 C 0.87706 0.54556 0.04042 0.0
C728 C 0.86142 0.45893 0.01813 0.0
C729 C 0.87323 0.56376 0.05707 0.0
C730 C 0.86696 0.38723 0.94796 0.0
C731 C 0.87167 0.40306 0.96508 0.0
C732 C 0.88892 0.48644 0.98897 0.0
C733 C 0.87587 0.50771 0.03961 0.0
C734 C 0.87642 0.48885 0.02135 0.0
C735 C 0.87125 0.44069 0.96713 0.0
C736 C 0.87366 0.45691 0.98582 0.0
H737 H 0.86403 0.49117 0.08516 0.0
H738 H 0.87165 0.45927 0.0562 0.0
H739 H 0.90251 0.52467 0.00857 0.0
H740 H 0.85794 0.46369 0.92262 0.0
H741 H 0.86646 0.49144 0.95272 0.0
C742 C 0.64467 0.61296 0.45306 0.0
C743 C 0.64699 0.59186 0.43695 0.0
C744 C 0.6395 0.59692 0.47007 0.0
C745 C 0.61376 0.51597 0.49159 0.0
H746 H 0.65372 0.54212 0.53346 0.0
C747 C 0.61999 0.42948 0.55747 0.0
C748 C 0.62565 0.44592 0.57449 0.0
C749 C 0.61854 0.44987 0.5413 0.0
C750 C 0.64199 0.53502 0.52207 0.0
H751 H 0.64533 0.53729 0.42611 0.0
H752 H 0.63612 0.50926 0.45592 0.0
H753 H 0.65958 0.57215 0.50389 0.0
H754 H 0.63228 0.49732 0.58798 0.0
H755 H 0.62899 0.53309 0.55979 0.0
H756 H 0.5961 0.47887 0.50973 0.0
C757 C 0.63828 0.53829 0.45527 0.0
C758 C 0.64548 0.55212 0.50507 0.0
C759 C 0.64372 0.55431 0.43824 0.0
C760 C 0.6281 0.48368 0.57511 0.0
C761 C 0.62644 0.50417 0.5589 0.0
C762 C 0.61007 0.49911 0.50866 0.0
C763 C 0.6363 0.55943 0.47137 0.0
C764 C 0.63165 0.54241 0.48959 0.0
C765 C 0.62245 0.48734 0.54169 0.0
C766 C 0.62441 0.50799 0.52406 0.0
H767 H 0.64714 0.64195 0.45262 0.0
H768 H 0.63792 0.6139 0.48222 0.0
H769 H 0.6026 0.50835 0.47994 0.0
H770 H 0.61793 0.40049 0.5564 0.0
H771 H 0.61566 0.43582 0.52834 0.0
C772 C 0.12837 0.54307 0.0626 0.0
C773 C 0.12946 0.58082 0.06463 0.0
C774 C 0.12404 0.52758 0.0452 0.0
C775 C 0.13322 0.54686 0.99621 0.0
H776 H 0.08987 0.46686 0.98733 0.0
C777 C 0.1262 0.48301 0.9237 0.0
C778 C 0.12552 0.44509 0.92321 0.0
C779 C 0.12234 0.50158 0.94035 0.0
C780 C 0.10222 0.489 0.98958 0.0
H781 H 0.12579 0.63174 0.04993 0.0
H782 H 0.11852 0.60469 0.01986 0.0
H783 H 0.09193 0.49406 0.0181 0.0
H784 H 0.11899 0.39717 0.93982 0.0
H785 H 0.11308 0.42914 0.96857 0.0
H786 H 0.14441 0.5411 0.96811 0.0
C787 C 0.12116 0.58713 0.03166 0.0
C788 C 0.10333 0.50458 0.00721 0.0
C789 C 0.12524 0.60258 0.04898 0.0
C790 C 0.11972 0.42638 0.93957 0.0
C791 C 0.11612 0.44484 0.95616 0.0
C792 C 0.13236 0.53103 0.97868 0.0
C793 C 0.12095 0.54952 0.0295 0.0
C794 C 0.11897 0.53352 0.01073 0.0
C795 C 0.11792 0.48264 0.95692 0.0
C796 C 0.11703 0.50163 0.97513 0.0
H797 H 0.13151 0.52549 0.07431 0.0
H798 H 0.12405 0.49845 0.04389 0.0
H799 H 0.14566 0.56889 -0.00142 0.0
H800 H 0.13046 0.49833 0.91138 0.0
H801 H 0.12336 0.53076 0.9403 0.0
C802 C 0.36773 0.45973 0.56505 0.0
C803 C 0.36972 0.42211 0.56725 0.0
C804 C 0.3718 0.47569 0.54776 0.0
C805 C 0.36581 0.45365 0.49895 0.0
H806 H 0.39997 0.54317 0.49029 0.0
C807 C 0.36572 0.5203 0.42672 0.0
C808 C 0.363 0.55802 0.42649 0.0
C809 C 0.37102 0.50228 0.44329 0.0
C810 C 0.39016 0.5183 0.49247 0.0
H811 H 0.37918 0.37221 0.55313 0.0
H812 H 0.38599 0.40007 0.52317 0.0
H813 H 0.40103 0.51552 0.52094 0.0
H814 H 0.3643 0.60634 0.44357 0.0
H815 H 0.37264 0.57517 0.47215 0.0
H816 H 0.35388 0.45704 0.47093 0.0
C817 C 0.38107 0.4171 0.53476 0.0
C818 C 0.39088 0.50245 0.51003 0.0
C819 C 0.37725 0.40122 0.55201 0.0
C820 C 0.36635 0.57727 0.4431 0.0
C821 C 0.37137 0.55933 0.45959 0.0
C822 C 0.36479 0.46972 0.48149 0.0
C823 C 0.37775 0.45431 0.53233 0.0
C824 C 0.37851 0.47016 0.51349 0.0
C825 C 0.37348 0.52155 0.46002 0.0
C826 C 0.37667 0.50256 0.47806 0.0
H827 H 0.36199 0.47667 0.57645 0.0
H828 H 0.36906 0.50448 0.54625 0.0
H829 H 0.35585 0.42894 0.50128 0.0
H830 H 0.3634 0.50462 0.4142 0.0
H831 H 0.37291 0.47321 0.44299 0.0
C832 C 0.2734 0.13562 0.18619 0.0
C833 C 0.28349 0.10664 0.17636 0.0
C834 C 0.26155 0.12975 0.20287 0.0
C835 C 0.25252 0.06649 0.24128 0.0
H836 H 0.19316 0.12058 0.24661 0.0
C837 C 0.19388 0.06209 0.30769 0.0
C838 C 0.19048 0.09681 0.31509 0.0
C839 C 0.20241 0.05784 0.28959 0.0
C840 C 0.20961 0.10513 0.24526 0.0
H841 H 0.2903 0.04901 0.1768 0.0
H842 H 0.26939 0.03869 0.20618 0.0
H843 H 0.21546 0.12352 0.21764 0.0
H844 H 0.19193 0.15412 0.3092 0.0
H845 H 0.20619 0.14673 0.27759 0.0
H846 H 0.24674 0.04878 0.26918 0.0
C847 C 0.27072 0.06595 0.20088 0.0
C848 C 0.22246 0.10698 0.22875 0.0
C849 C 0.28275 0.07188 0.18413 0.0
C850 C 0.19445 0.12706 0.30383 0.0
C851 C 0.2025 0.12282 0.28573 0.0
C852 C 0.23954 0.06451 0.25784 0.0
C853 C 0.25935 0.09473 0.21008 0.0
C854 C 0.24448 0.08872 0.22681 0.0
C855 C 0.2071 0.08825 0.27857 0.0
C856 C 0.21838 0.08476 0.26014 0.0
H857 H 0.27397 0.16281 0.1807 0.0
H858 H 0.25362 0.15265 0.20994 0.0
H859 H 0.2694 0.05209 0.24016 0.0
H860 H 0.19112 0.03835 0.31617 0.0
H861 H 0.20577 0.03092 0.28432 0.0
C862 C 0.28831 0.85883 0.80835 0.0
C863 C 0.29389 0.89141 0.81728 0.0
C864 C 0.27676 0.85888 0.79125 0.0
C865 C 0.25827 0.91694 0.75173 0.0
H866 H 0.21037 0.8417 0.74563 0.0
C867 C 0.19262 0.91102 0.68949 0.0
C868 C 0.19398 0.87825 0.67973 0.0
C869 C 0.20303 0.91419 0.70704 0.0
C870 C 0.22366 0.86286 0.74718 0.0
H871 H 0.2927 0.94965 0.81508 0.0
H872 H 0.27182 0.94992 0.78529 0.0
H873 H 0.2336 0.84481 0.77412 0.0
H874 H 0.20603 0.82266 0.68101 0.0
H875 H 0.22349 0.82792 0.71187 0.0
H876 H 0.24778 0.93516 0.72475 0.0
C877 C 0.27679 0.92425 0.79132 0.0
C878 C 0.23718 0.86451 0.76341 0.0
C879 C 0.28879 0.92416 0.80836 0.0
C880 C 0.20473 0.84823 0.68823 0.0
C881 C 0.21468 0.85122 0.70588 0.0
C882 C 0.24447 0.91556 0.73557 0.0
C883 C 0.27001 0.89154 0.78283 0.0
C884 C 0.255 0.89112 0.76577 0.0
C885 C 0.21446 0.88444 0.71524 0.0
C886 C 0.22732 0.88815 0.73305 0.0
H887 H 0.29226 0.83319 0.81489 0.0
H888 H 0.2726 0.83318 0.78486 0.0
H889 H 0.27191 0.93764 0.75299 0.0
H890 H 0.18463 0.93467 0.68319 0.0
H891 H 0.20252 0.94002 0.71408 0.0
C892 C 0.77933 0.85302 0.68042 0.0
C893 C 0.78919 0.88407 0.67227 0.0
C894 C 0.77119 0.8538 0.69866 0.0
C895 C 0.74491 0.91386 0.73246 0.0
H896 H 0.7597 0.8374 0.7672 0.0
C897 C 0.70773 0.90963 0.80776 0.0
C898 C 0.70301 0.87536 0.8152 0.0
C899 C 0.71835 0.9129 0.79026 0.0
C900 C 0.75509 0.85871 0.75759 0.0
H901 H 0.79875 0.9401 0.6769 0.0
H902 H 0.78402 0.94159 0.70889 0.0
H903 H 0.77993 0.83896 0.73734 0.0
H904 H 0.70389 0.81785 0.80975 0.0
H905 H 0.72127 0.82349 0.77904 0.0
H906 H 0.7194 0.93292 0.75241 0.0
C907 C 0.7828 0.91667 0.7011 0.0
C908 C 0.76686 0.85972 0.74057 0.0
C909 C 0.79139 0.9157 0.6829 0.0
C910 C 0.70762 0.8446 0.80442 0.0
C911 C 0.71783 0.84786 0.7869 0.0
C912 C 0.73287 0.91262 0.74945 0.0
C913 C 0.77239 0.88581 0.70904 0.0
C914 C 0.76167 0.887 0.72776 0.0
C915 C 0.72413 0.88193 0.77985 0.0
C916 C 0.73754 0.88465 0.7621 0.0
H917 H 0.77744 0.82827 0.67255 0.0
H918 H 0.76311 0.82971 0.70443 0.0
H919 H 0.74045 0.935 0.72271 0.0
H920 H 0.70453 0.93377 0.81587 0.0
H921 H 0.72299 0.93956 0.78529 0.0
C922 C 0.68764 0.05852 0.18773 0.0
C923 C 0.68684 0.09086 0.17761 0.0
C924 C 0.69713 0.05821 0.20568 0.0
C925 C 0.71094 0.11641 0.24535 0.0
H926 H 0.76583 0.05403 0.25386 0.0
C927 C 0.77669 0.14762 0.30332 0.0
C928 C 0.78478 0.11901 0.31441 0.0
C929 C 0.76461 0.1408 0.28682 0.0
C930 C 0.75032 0.07122 0.25182 0.0
H931 H 0.69401 0.14835 0.1785 0.0
H932 H 0.70989 0.14796 0.20988 0.0
H933 H 0.74205 0.04712 0.22557 0.0
H934 H 0.78767 0.0608 0.31647 0.0
H935 H 0.76617 0.04877 0.28758 0.0
H936 H 0.71907 0.14077 0.27137 0.0
C937 C 0.70348 0.12285 0.20397 0.0
C938 C 0.73669 0.06719 0.23567 0.0
C939 C 0.69449 0.12304 0.186 0.0
C940 C 0.78176 0.08338 0.30812 0.0
C941 C 0.76939 0.07651 0.29162 0.0
C942 C 0.72437 0.12026 0.26149 0.0
C943 C 0.70537 0.09037 0.21384 0.0
C944 C 0.71729 0.09042 0.23211 0.0
C945 C 0.76002 0.10518 0.28111 0.0
C946 C 0.74466 0.09846 0.26467 0.0
H947 H 0.68199 0.03333 0.18147 0.0
H948 H 0.69837 0.03287 0.21308 0.0
H949 H 0.69586 0.13436 0.243 0.0
H950 H 0.77903 0.17538 0.30771 0.0
H951 H 0.75833 0.16353 0.27874 0.0
C952 C 0.6873 0.6381 0.30231 0.0
C953 C 0.68865 0.61188 0.31627 0.0
C954 C 0.6978 0.63188 0.28509 0.0
C955 C 0.72556 0.5643 0.2541 0.0
H956 H 0.76439 0.64647 0.23947 0.0
C957 C 0.78983 0.56314 0.19034 0.0
C958 C 0.78657 0.59291 0.17856 0.0
C959 C 0.77921 0.56277 0.20794 0.0
C960 C 0.75361 0.62332 0.24334 0.0
H961 H 0.70025 0.5574 0.32267 0.0
H962 H 0.71875 0.5466 0.29248 0.0
H963 H 0.7405 0.64971 0.26757 0.0
H964 H 0.77054 0.64613 0.17622 0.0
H965 H 0.75234 0.64554 0.20668 0.0
H966 H 0.73871 0.53815 0.22958 0.0
C967 C 0.7095 0.5719 0.29487 0.0
C968 C 0.73979 0.62524 0.25937 0.0
C969 C 0.69882 0.57805 0.31213 0.0
C970 C 0.77331 0.6227 0.18493 0.0
C971 C 0.76298 0.62247 0.20245 0.0
C972 C 0.73945 0.56239 0.23795 0.0
C973 C 0.71004 0.59943 0.28152 0.0
C974 C 0.72521 0.59611 0.26473 0.0
C975 C 0.76554 0.5924 0.21407 0.0
C976 C 0.75321 0.59221 0.23225 0.0
H977 H 0.67936 0.66427 0.30505 0.0
H978 H 0.69736 0.65322 0.27486 0.0
H979 H 0.71458 0.54138 0.25796 0.0
H980 H 0.79986 0.53973 0.18574 0.0
H981 H 0.78156 0.53933 0.2167 0.0
C982 C 0.78986 0.34483 0.80876 0.0
C983 C 0.79295 0.37509 0.8202 0.0
C984 C 0.77873 0.34824 0.7916 0.0
C985 C 0.75747 0.41328 0.75628 0.0
H986 H 0.71273 0.33571 0.74542 0.0
C987 C 0.6937 0.4141 0.6928 0.0
C988 C 0.69595 0.38302 0.68175 0.0
C989 C 0.70376 0.41503 0.71053 0.0
C990 C 0.72514 0.35754 0.7483 0.0
H991 H 0.78803 0.43295 0.82237 0.0
H992 H 0.76803 0.43892 0.79238 0.0
H993 H 0.73566 0.33449 0.77408 0.0
H994 H 0.70931 0.32805 0.68088 0.0
H995 H 0.72634 0.32945 0.71192 0.0
H996 H 0.74662 0.43629 0.73038 0.0
C997 C 0.77452 0.41262 0.79657 0.0
C998 C 0.73845 0.35675 0.76461 0.0
C999 C 0.78602 0.40925 0.81371 0.0
C1000 C 0.70737 0.3524 0.68907 0.0
C1001 C 0.71703 0.35314 0.70684 0.0
C1002 C 0.74395 0.41421 0.73998 0.0
C1003 C 0.77003 0.38189 0.78563 0.0
C1004 C 0.75516 0.38417 0.76862 0.0
C1005 C 0.71576 0.38468 0.71758 0.0
C1006 C 0.72801 0.38598 0.73571 0.0
H1007 H 0.7953 0.31824 0.81337 0.0
H1008 H 0.77627 0.32423 0.78325 0.0
H1009 H 0.77022 0.43475 0.75894 0.0
H1010 H 0.68512 0.43817 0.68744 0.0
H1011 H 0.70243 0.43957 0.71863 0.0
C1012 C 0.20441 0.36113 0.8053 0.0
C1013 C 0.19594 0.39262 0.81394 0.0
C1014 C 0.21349 0.36245 0.78734 0.0
C1015 C 0.24556 0.42118 0.75644 0.0
H1016 H 0.22792 0.35145 0.7188 0.0
C1017 C 0.28832 0.41825 0.68301 0.0
C1018 C 0.29112 0.38418 0.67476 0.0
C1019 C 0.27648 0.42155 0.70002 0.0
C1020 C 0.23331 0.37081 0.72924 0.0
H1021 H 0.1898 0.45002 0.81053 0.0
H1022 H 0.2063 0.45241 0.77906 0.0
H1023 H 0.20572 0.35328 0.74782 0.0
H1024 H 0.28549 0.32673 0.6783 0.0
H1025 H 0.26594 0.33222 0.70824 0.0
H1026 H 0.27382 0.43777 0.73823 0.0
C1027 C 0.20563 0.42676 0.78622 0.0
C1028 C 0.22042 0.37204 0.74576 0.0
C1029 C 0.19605 0.42531 0.8041 0.0
C1030 C 0.28329 0.35337 0.68428 0.0
C1031 C 0.27185 0.35659 0.70134 0.0
C1032 C 0.25872 0.41966 0.73997 0.0
C1033 C 0.21468 0.39538 0.77781 0.0
C1034 C 0.22663 0.39688 0.75959 0.0
C1035 C 0.26754 0.39078 0.70913 0.0
C1036 C 0.25299 0.394 0.7263 0.0
H1037 H 0.20449 0.33558 0.81258 0.0
H1038 H 0.2205 0.33794 0.78118 0.0
H1039 H 0.2508 0.44035 0.76703 0.0
H1040 H 0.29404 0.44245 0.67586 0.0
H1041 H 0.27341 0.4483 0.70559 0.0
C1042 C 0.20036 0.63986 0.18958 0.0
C1043 C 0.19526 0.61018 0.17815 0.0
C1044 C 0.20984 0.63471 0.20722 0.0
C1045 C 0.24769 0.57319 0.23314 0.0
H1046 H 0.22745 0.63154 0.27488 0.0
C1047 C 0.29195 0.56943 0.30661 0.0
C1048 C 0.29366 0.60294 0.31565 0.0
C1049 C 0.28014 0.56674 0.28953 0.0
C1050 C 0.23346 0.61526 0.26331 0.0
H1051 H 0.1954 0.55175 0.17637 0.0
H1052 H 0.21234 0.54274 0.20738 0.0
H1053 H 0.20396 0.63227 0.24648 0.0
H1054 H 0.28637 0.66023 0.31326 0.0
H1055 H 0.26654 0.65574 0.2834 0.0
H1056 H 0.27764 0.557 0.2499 0.0
C1057 C 0.20887 0.56995 0.2026 0.0
C1058 C 0.21991 0.61553 0.24711 0.0
C1059 C 0.19898 0.5751 0.18498 0.0
C1060 C 0.28503 0.63397 0.30672 0.0
C1061 C 0.27347 0.63134 0.28969 0.0
C1062 C 0.26137 0.57303 0.2494 0.0
C1063 C 0.21472 0.59978 0.21376 0.0
C1064 C 0.22717 0.5952 0.23171 0.0
C1065 C 0.27 0.59756 0.28126 0.0
C1066 C 0.25472 0.59485 0.26448 0.0
H1067 H 0.19767 0.66719 0.18468 0.0
H1068 H 0.21436 0.65822 0.21544 0.0
H1069 H 0.25378 0.55745 0.2214 0.0
H1070 H 0.29832 0.54506 0.31326 0.0
H1071 H 0.27782 0.54036 0.28331 0.0
C1072 C 0.40387 0.10412 0.15277 0.0
C1073 C 0.3911 0.13499 0.14734 0.0
C1074 C 0.42627 0.10758 0.1613 0.0
C1075 C 0.47433 0.12082 0.17979 0.0
H1076 H 0.50984 0.18748 0.14885 0.0
C1077 C 0.57554 0.15634 0.14982 0.0
C1078 C 0.58236 0.12072 0.14579 0.0
C1079 C 0.55383 0.16334 0.15875 0.0
C1080 C 0.50042 0.16943 0.15813 0.0
H1081 H 0.39002 0.19344 0.14863 0.0
H1082 H 0.4288 0.19948 0.16396 0.0
H1083 H 0.46673 0.19052 0.14952 0.0
H1084 H 0.57291 0.06438 0.14915 0.0
H1085 H 0.53437 0.0765 0.16376 0.0
H1086 H 0.50839 0.09842 0.18748 0.0
C1087 C 0.422 0.17266 0.16107 0.0
C1088 C 0.47547 0.17119 0.15851 0.0
C1089 C 0.39986 0.16922 0.15225 0.0
C1090 C 0.56795 0.09212 0.15199 0.0
C1091 C 0.54597 0.09913 0.16057 0.0
C1092 C 0.49944 0.11913 0.17947 0.0
C1093 C 0.43605 0.14198 0.16475 0.0
C1094 C 0.46209 0.1458 0.16861 0.0
C1095 C 0.53822 0.13489 0.16337 0.0
C1096 C 0.51267 0.14229 0.16789 0.0
H1097 H 0.39739 0.0774 0.14926 0.0
H1098 H 0.43665 0.08336 0.16383 0.0
H1099 H 0.46449 0.10132 0.18799 0.0
H1100 H 0.58668 0.17887 0.14558 0.0
H1101 H 0.5487 0.19116 0.16115 0.0
C1102 C 0.0782 0.81366 0.64359 0.0
C1103 C 0.08767 0.84878 0.64289 0.0
C1104 C 0.05471 0.8079 0.64961 0.0
C1105 C 0.00181 0.81181 0.64262 0.0
H1106 H 0.9648 0.87142 0.67629 0.0
C1107 C 0.90581 0.88514 0.64112 0.0
C1108 C 0.89225 0.85765 0.63274 0.0
C1109 C 0.92835 0.87754 0.64865 0.0
C1110 C 0.97491 0.85446 0.66688 0.0
H1111 H 0.08087 0.90494 0.64957 0.0
H1112 H 0.03958 0.8951 0.65943 0.0
H1113 H 0.00859 0.86924 0.67915 0.0
H1114 H 0.8905 0.80013 0.62726 0.0
H1115 H 0.92954 0.7867 0.64081 0.0
H1116 H 0.96869 0.79865 0.62958 0.0
C1117 C 0.05034 0.87189 0.65564 0.0
C1118 C -6e-05 0.85316 0.66854 0.0
C1119 C 0.07398 0.8776 0.64984 0.0
C1120 C 0.90083 0.82202 0.63324 0.0
C1121 C 0.92317 0.81433 0.64102 0.0
C1122 C 0.97693 0.81317 0.64093 0.0
C1123 C 0.04012 0.8372 0.65477 0.0
C1124 C 0.01369 0.8328 0.65599 0.0
C1125 C 0.9376 0.84221 0.64816 0.0
C1126 C 0.96324 0.8355 0.6526 0.0
H1127 H 0.08856 0.7908 0.6387 0.0
H1128 H 0.04751 0.78074 0.6492 0.0
H1129 H 0.0118 0.79631 0.63249 0.0
H1130 H 0.89957 0.91284 0.64101 0.0
H1131 H 0.93906 0.89975 0.65384 0.0
C1132 C 0.58016 0.8269 0.85134 0.0
C1133 C 0.59632 0.85573 0.84913 0.0
C1134 C 0.55744 0.82812 0.84322 0.0
C1135 C 0.51311 0.89555 0.83134 0.0
H1136 H 0.47559 0.81102 0.81839 0.0
C1137 C 0.41105 0.89917 0.83759 0.0
C1138 C 0.40266 0.87135 0.84914 0.0
C1139 C 0.43374 0.89677 0.82935 0.0
C1140 C 0.48586 0.83498 0.82178 0.0
H1141 H 0.60194 0.90715 0.83537 0.0
H1142 H 0.56218 0.90922 0.82124 0.0
H1143 H 0.51944 0.80741 0.8186 0.0
H1144 H 0.41063 0.81785 0.85974 0.0
H1145 H 0.45011 0.81401 0.84574 0.0
H1146 H 0.47971 0.92249 0.83576 0.0
C1147 C 0.56706 0.88591 0.82946 0.0
C1148 C 0.51092 0.8329 0.82191 0.0
C1149 C 0.58983 0.88468 0.83757 0.0
C1150 C 0.41665 0.84001 0.85114 0.0
C1151 C 0.43922 0.8376 0.84289 0.0
C1152 C 0.48809 0.89761 0.83124 0.0
C1153 C 0.55036 0.85817 0.83269 0.0
C1154 C 0.52473 0.86266 0.82761 0.0
C1155 C 0.44837 0.86645 0.83243 0.0
C1156 C 0.4742 0.86683 0.8274 0.0
H1157 H 0.58462 0.804 0.85998 0.0
H1158 H 0.54493 0.80649 0.84618 0.0
H1159 H 0.52318 0.91892 0.83592 0.0
H1160 H 0.40061 0.92353 0.83557 0.0
H1161 H 0.44022 0.91926 0.82119 0.0
C1162 C 0.90125 0.11511 0.33506 0.0
C1163 C 0.89479 0.14475 0.34619 0.0
C1164 C 0.92419 0.11305 0.32727 0.0
C1165 C 0.98139 0.1642 0.32072 0.0
H1166 H 0.01054 0.07463 0.33696 0.0
C1167 C 0.07357 0.15638 0.3538 0.0
C1168 C 0.08777 0.12523 0.35192 0.0
C1169 C 0.05127 0.15863 0.34512 0.0
C1170 C 0.00276 0.09947 0.33181 0.0
H1171 H 0.90659 0.19696 0.35641 0.0
H1172 H 0.94653 0.19301 0.34323 0.0
H1173 H 0.96717 0.0792 0.33522 0.0
H1174 H 0.09028 0.07288 0.33848 0.0
H1175 H 0.05109 0.0768 0.32346 0.0
H1176 H 0.01716 0.18513 0.31862 0.0
C1177 C 0.93393 0.17144 0.34035 0.0
C1178 C 0.97781 0.1021 0.33078 0.0
C1179 C 0.91106 0.1735 0.34813 0.0
C1180 C 0.07968 0.09712 0.34039 0.0
C1181 C 0.05727 0.09934 0.33175 0.0
C1182 C 0.00638 0.16158 0.32179 0.0
C1183 C 0.94106 0.14061 0.33042 0.0
C1184 C 0.96685 0.13507 0.32619 0.0
C1185 C 0.04261 0.12978 0.33438 0.0
C1186 C 0.01722 0.12976 0.32829 0.0
H1187 H 0.88903 0.09269 0.33305 0.0
H1188 H 0.9291 0.08916 0.31948 0.0
H1189 H 0.97343 0.18972 0.31676 0.0
H1190 H 0.07934 0.1787 0.36241 0.0
H1191 H 0.04026 0.18224 0.34766 0.0
C1192 C 0.90382 0.65804 0.15269 0.0
C1193 C 0.89619 0.62246 0.1495 0.0
C1194 C 0.92656 0.66479 0.15999 0.0
C1195 C 0.97961 0.66857 0.15453 0.0
H1196 H 0.01865 0.60435 0.18431 0.0
C1197 C 0.07871 0.60676 0.14914 0.0
C1198 C 0.09083 0.63766 0.14289 0.0
C1199 C 0.05589 0.60978 0.15706 0.0
C1200 C 0.00795 0.62264 0.17602 0.0
H1201 H 0.90528 0.56601 0.15303 0.0
H1202 H 0.94545 0.57769 0.16496 0.0
H1203 H 0.9748 0.60118 0.18641 0.0
H1204 H 0.08988 0.69613 0.14177 0.0
H1205 H 0.05042 0.70151 0.15607 0.0
H1206 H 0.01228 0.68863 0.14328 0.0
C1207 C 0.93378 0.60046 0.16224 0.0
C1208 C 0.98288 0.62086 0.17725 0.0
C1209 C 0.91081 0.59372 0.15526 0.0
C1210 C 0.08065 0.67178 0.14606 0.0
C1211 C 0.05807 0.67485 0.15427 0.0
C1212 C 0.00451 0.67032 0.1533 0.0
C1213 C 0.94233 0.63609 0.16381 0.0
C1214 C 0.96845 0.64294 0.16599 0.0
C1215 C 0.04498 0.64381 0.15911 0.0
C1216 C 0.01899 0.64652 0.16352 0.0
H1217 H 0.89263 0.6807 0.14874 0.0
H1218 H 0.93238 0.69254 0.16152 0.0
H1219 H 0.96918 0.68557 0.14537 0.0
H1220 H 0.08624 0.58013 0.14695 0.0
H1221 H 0.04626 0.58528 0.16047 0.0
C1222 C 0.58171 0.3251 0.65074 0.0
C1223 C 0.58925 0.36079 0.64785 0.0
C1224 C 0.55977 0.31808 0.65934 0.0
C1225 C 0.50631 0.31421 0.65832 0.0
H1226 H 0.47124 0.38099 0.68962 0.0
C1227 C 0.41154 0.38461 0.65342 0.0
C1228 C 0.39826 0.35495 0.64699 0.0
C1229 C 0.43357 0.37922 0.66225 0.0
C1230 C 0.48083 0.36184 0.68102 0.0
H1231 H 0.58084 0.41706 0.65283 0.0
H1232 H 0.54189 0.40504 0.6668 0.0
H1233 H 0.51518 0.38193 0.68958 0.0
H1234 H 0.3958 0.29654 0.64683 0.0
H1235 H 0.43393 0.28711 0.66266 0.0
H1236 H 0.47237 0.29549 0.64888 0.0
C1237 C 0.55309 0.38231 0.66301 0.0
C1238 C 0.50597 0.36242 0.68096 0.0
C1239 C 0.5753 0.38929 0.65479 0.0
C1240 C 0.40607 0.31988 0.65122 0.0
C1241 C 0.42783 0.3145 0.66033 0.0
C1242 C 0.48134 0.31353 0.65845 0.0
C1243 C 0.54465 0.34664 0.66471 0.0
C1244 C 0.51892 0.33985 0.66887 0.0
C1245 C 0.44246 0.34406 0.66499 0.0
C1246 C 0.4683 0.33854 0.66907 0.0
H1247 H 0.59249 0.30262 0.64592 0.0
H1248 H 0.55412 0.29027 0.66089 0.0
H1249 H 0.51551 0.29667 0.64865 0.0
H1250 H 0.40579 0.41194 0.65045 0.0
H1251 H 0.44442 0.40262 0.66554 0.0
C1252 C 0.08184 0.39312 0.8361 0.0
C1253 C 0.09022 0.36719 0.84876 0.0
C1254 C 0.05922 0.3894 0.82795 0.0
C1255 C 0.00676 0.32712 0.82343 0.0
H1256 H 0.97026 0.4133 0.8351 0.0
C1257 C 0.91476 0.32427 0.85673 0.0
C1258 C 0.89837 0.35258 0.85393 0.0
C1259 C 0.93686 0.32416 0.84765 0.0
C1260 C 0.98007 0.38922 0.83119 0.0
H1261 H 0.08229 0.31545 0.86147 0.0
H1262 H 0.04283 0.30946 0.84768 0.0
H1263 H 0.01365 0.41648 0.83364 0.0
H1264 H 0.89162 0.40156 0.83825 0.0
H1265 H 0.93036 0.40135 0.82248 0.0
H1266 H 0.97302 0.29941 0.82232 0.0
C1267 C 0.05373 0.33251 0.84386 0.0
C1268 C 0.00505 0.39105 0.83033 0.0
C1269 C 0.07629 0.3362 0.85199 0.0
C1270 C 0.90398 0.37961 0.84096 0.0
C1271 C 0.92613 0.37949 0.83187 0.0
C1272 C 0.98173 0.32528 0.8243 0.0
C1273 C 0.04458 0.35968 0.83228 0.0
C1274 C 0.0187 0.35961 0.82749 0.0
C1275 C 0.94307 0.35232 0.83554 0.0
C1276 C 0.96826 0.35592 0.82922 0.0
H1277 H 0.09228 0.41707 0.83307 0.0
H1278 H 0.05274 0.41056 0.8189 0.0
H1279 H 0.01683 0.30262 0.8208 0.0
H1280 H 0.91095 0.30281 0.86647 0.0
H1281 H 0.94963 0.30309 0.851 0.0
C1282 C 0.41154 0.59936 0.34227 0.0
C1283 C 0.40137 0.62781 0.35251 0.0
C1284 C 0.43529 0.60161 0.33606 0.0
C1285 C 0.48814 0.66367 0.33255 0.0
H1286 H 0.52328 0.57976 0.34966 0.0
C1287 C 0.5821 0.67053 0.36466 0.0
C1288 C 0.59812 0.64165 0.36203 0.0
C1289 C 0.55906 0.66938 0.35704 0.0
C1290 C 0.51384 0.60316 0.34438 0.0
H1291 H 0.40738 0.68227 0.36266 0.0
H1292 H 0.44863 0.68582 0.35227 0.0
H1293 H 0.47995 0.57662 0.34661 0.0
H1294 H 0.6029 0.58985 0.34834 0.0
H1295 H 0.5627 0.58795 0.33515 0.0
H1296 H 0.52213 0.69079 0.33148 0.0
C1297 C 0.4384 0.66184 0.34888 0.0
C1298 C 0.48893 0.60132 0.34256 0.0
C1299 C 0.41474 0.65961 0.35507 0.0
C1300 C 0.59093 0.61237 0.3509 0.0
C1301 C 0.56791 0.61124 0.34329 0.0
C1302 C 0.51309 0.66555 0.33446 0.0
C1303 C 0.44925 0.63236 0.33994 0.0
C1304 C 0.4757 0.63199 0.33737 0.0
C1305 C 0.55156 0.63935 0.34662 0.0
C1306 C 0.52605 0.6357 0.34107 0.0
H1307 H 0.40163 0.57464 0.33987 0.0
H1308 H 0.44307 0.57866 0.32895 0.0
H1309 H 0.47847 0.68756 0.32818 0.0
H1310 H 0.58707 0.69359 0.37305 0.0
H1311 H 0.54675 0.69127 0.36004 0.0
C1312 C 0.23064 0.04556 0.11682 0.0
C1313 C 0.25287 0.04227 0.10769 0.0
C1314 C 0.21558 0.01565 0.1187 0.0
C1315 C 0.20064 0.92605 0.10188 0.0
H1316 H 0.19646 0.89715 0.15343 0.0
C1317 C 0.15753 0.79224 0.12311 0.0
C1318 C 0.175 0.76907 0.13069 0.0
C1319 C 0.16157 0.82936 0.1223 0.0
C1320 C 0.19717 0.90523 0.13904 0.0
H1321 H 0.27581 0.00616 0.09202 0.0
H1322 H 0.24894 0.95415 0.09473 0.0
H1323 H 0.21297 0.95652 0.14541 0.0
H1324 H 0.20914 0.7671 0.14514 0.0
H1325 H 0.21583 0.83228 0.14415 0.0
H1326 H 0.18537 0.87448 0.09546 0.0
C1327 C 0.24345 0.97974 0.10064 0.0
C1328 C 0.20648 0.93908 0.13446 0.0
C1329 C 0.25879 0.00941 0.09911 0.0
C1330 C 0.19543 0.78419 0.13912 0.0
C1331 C 0.19924 0.82146 0.13859 0.0
C1332 C 0.19084 0.89256 0.10648 0.0
C1333 C 0.22223 0.98231 0.11108 0.0
C1334 C 0.20883 0.94929 0.11583 0.0
C1335 C 0.18285 0.84404 0.12943 0.0
C1336 C 0.18961 0.88155 0.12506 0.0
H1337 H 0.22568 0.07046 0.12371 0.0
H1338 H 0.19925 0.01812 0.12678 0.0
H1339 H 0.20243 0.9334 0.08744 0.0
H1340 H 0.14154 0.78157 0.11653 0.0
H1341 H 0.14865 0.8464 0.11528 0.0
C1342 C 0.21646 -0.00183 0.61983 0.0
C1343 C 0.22519 0.96323 0.61622 0.0
C1344 C 0.23226 0.02679 0.62246 0.0
C1345 C 0.28902 0.06521 0.61199 0.0
H1346 H 0.27936 0.11755 0.65795 0.0
C1347 C 0.33063 0.20545 0.6229 0.0
C1348 C 0.31333 0.23124 0.62814 0.0
C1349 C 0.32582 0.16858 0.62477 0.0
C1350 C 0.2824 0.10316 0.64511 0.0
H1351 H 0.25747 0.93162 0.61133 0.0
H1352 H 0.28519 0.98262 0.61541 0.0
H1353 H 0.25896 0.06003 0.65301 0.0
H1354 H 0.27837 0.23859 0.64091 0.0
H1355 H 0.26995 0.17475 0.644 0.0
H1356 H 0.31102 0.10953 0.60346 0.0
C1357 C 0.26602 0.98716 0.61654 0.0
C1358 C 0.27081 0.07026 0.64233 0.0
C1359 C 0.25015 0.95815 0.61415 0.0
C1360 C 0.292 0.21948 0.63659 0.0
C1361 C 0.28726 0.18275 0.6385 0.0
C1362 C 0.30046 0.09841 0.61468 0.0
C1363 C 0.25713 0.02138 0.62128 0.0
C1364 C 0.27331 0.05177 0.62548 0.0
C1365 C 0.30375 0.15687 0.63205 0.0
C1366 C 0.29643 0.11842 0.63098 0.0
H1367 H 0.1974 0.0033 0.62141 0.0
H1368 H 0.22503 0.0532 0.62576 0.0
H1369 H 0.29111 0.05133 0.59888 0.0
H1370 H 0.34732 0.2136 0.61643 0.0
H1371 H 0.339 0.14926 0.6199 0.0
C1372 C 0.19869 0.23255 0.8579 0.0
C1373 C 0.17922 0.24617 0.86817 0.0
C1374 C 0.20398 0.19567 0.85816 0.0
C1375 C 0.20447 0.11203 0.85723 0.0
H1376 H 0.21708 0.08111 0.90762 0.0
C1377 C 0.24148 0.97058 0.87531 0.0
C1378 C 0.2642 0.97319 0.88373 0.0
C1379 C 0.22657 0.00085 0.87416 0.0
C1380 C 0.2133 0.08925 0.89352 0.0
H1381 H 0.14914 0.23137 0.88578 0.0
H1382 H 0.15882 0.16721 0.8865 0.0
H1383 H 0.19825 0.13983 0.90199 0.0
H1384 H 0.28847 0.00858 0.8986 0.0
H1385 H 0.26195 0.06117 0.8972 0.0
H1386 H 0.21997 0.06165 0.84878 0.0
C1387 C 0.16982 0.18511 0.87822 0.0
C1388 C 0.20248 0.12265 0.8903 0.0
C1389 C 0.16426 0.22183 0.8777 0.0
C1390 C 0.27105 0.00588 0.89204 0.0
C1391 C 0.2559 0.03587 0.89127 0.0
C1392 C 0.21484 0.07827 0.86047 0.0
C1393 C 0.19011 0.17194 0.8689 0.0
C1394 C 0.19848 0.13464 0.87212 0.0
C1395 C 0.2339 0.03386 0.88183 0.0
C1396 C 0.21983 0.06703 0.87863 0.0
H1397 H 0.21048 0.25058 0.85037 0.0
H1398 H 0.21979 0.18608 0.85091 0.0
H1399 H 0.20158 0.12081 0.84311 0.0
H1400 H 0.23585 0.94579 0.86863 0.0
H1401 H 0.20963 -0.00121 0.86685 0.0
C1402 C 0.29505 0.76458 0.35332 0.0
C1403 C 0.31303 0.75298 0.36556 0.0
C1404 C 0.28876 0.80098 0.35242 0.0
C1405 C 0.30366 0.89355 0.36943 0.0
H1406 H 0.23424 0.90088 0.3723 0.0
C1407 C 0.22186 0.99682 0.39217 0.0
C1408 C 0.22806 0.02793 0.38219 0.0
C1409 C 0.23584 0.96573 0.3908 0.0
C1410 C 0.25367 0.89933 0.37173 0.0
H1411 H 0.34011 0.77076 0.38516 0.0
H1412 H 0.32866 0.83413 0.384 0.0
H1413 H 0.25256 0.84299 0.36601 0.0
H1414 H 0.25477 0.05185 0.36409 0.0
H1415 H 0.27902 0.99713 0.36141 0.0
H1416 H 0.30449 0.95015 0.37581 0.0
C1417 C 0.3196 0.81529 0.3749 0.0
C1418 C 0.2642 0.86618 0.36772 0.0
C1419 C 0.32613 0.77889 0.3756 0.0
C1420 C 0.24957 0.02824 0.37197 0.0
C1421 C 0.26346 0.99691 0.37043 0.0
C1422 C 0.29305 0.92694 0.37348 0.0
C1423 C 0.30005 0.82641 0.36399 0.0
C1424 C 0.28931 0.86275 0.36661 0.0
C1425 C 0.25614 0.96492 0.37921 0.0
C1426 C 0.26792 0.92999 0.37491 0.0
H1427 H 0.28492 0.74527 0.34518 0.0
H1428 H 0.2741 0.80888 0.34344 0.0
H1429 H 0.32306 0.89179 0.36862 0.0
H1430 H 0.20558 0.99596 0.40039 0.0
H1431 H 0.23013 0.94178 0.39817 0.0
C1432 C 0.83335 0.19516 0.87514 0.0
C1433 C 0.81609 0.2185 0.86744 0.0
C1434 C 0.8297 0.15788 0.87502 0.0
C1435 C 0.79501 0.08323 0.85511 0.0
H1436 H 0.79016 0.04797 0.90555 0.0
C1437 C 0.7338 0.97445 0.89283 0.0
C1438 C 0.73865 0.94293 0.88269 0.0
C1439 C 0.74933 0.00398 0.8918 0.0
C1440 C 0.79182 0.0573 0.8914 0.0
H1441 H 0.78266 0.22086 0.85206 0.0
H1442 H 0.77663 0.15557 0.85147 0.0
H1443 H 0.80708 0.10785 0.89965 0.0
H1444 H 0.76406 0.91691 0.8642 0.0
H1445 H 0.79087 0.9691 0.86204 0.0
H1446 H 0.77905 0.03305 0.84693 0.0
C1447 C 0.7928 0.16626 0.85778 0.0
C1448 C 0.80158 0.09137 0.88801 0.0
C1449 C 0.79621 0.20361 0.85818 0.0
C1450 C 0.75997 0.94078 0.87228 0.0
C1451 C 0.77522 0.97062 0.87094 0.0
C1452 C 0.78569 0.04885 0.85848 0.0
C1453 C 0.80901 0.14325 0.86686 0.0
C1454 C 0.80261 0.10501 0.86989 0.0
C1455 C 0.76969 0.00271 0.88034 0.0
C1456 C 0.78339 0.03608 0.87669 0.0
H1457 H 0.84887 0.20572 0.8824 0.0
H1458 H 0.8425 0.14058 0.88201 0.0
H1459 H 0.79561 0.09326 0.84104 0.0
H1460 H 0.7175 0.97681 0.90095 0.0
H1461 H 0.74463 0.02857 0.89909 0.0
C1462 C 0.76049 0.02909 0.39451 0.0
C1463 C 0.75395 0.06001 0.38452 0.0
C1464 C 0.74686 -0.00232 0.39311 0.0
C1465 C 0.73143 0.93227 0.37205 0.0
H1466 H 0.6624 0.91869 0.36983 0.0
C1467 C 0.69513 0.79547 0.35167 0.0
C1468 C 0.67887 0.78123 0.36462 0.0
C1469 C 0.69954 0.83255 0.35105 0.0
C1470 C 0.68171 0.9222 0.37034 0.0
H1471 H 0.72677 0.08357 0.36674 0.0
H1472 H 0.70305 0.0283 0.36409 0.0
H1473 H 0.67884 0.97794 0.37829 0.0
H1474 H 0.65238 0.79529 0.38554 0.0
H1475 H 0.66053 0.85958 0.38475 0.0
H1476 H 0.73463 0.87684 0.36467 0.0
C1477 C 0.71864 0.02844 0.37307 0.0
C1478 C 0.69108 0.95604 0.37515 0.0
C1479 C 0.73219 0.0601 0.37463 0.0
C1480 C 0.66526 0.80523 0.37553 0.0
C1481 C 0.66983 0.84225 0.37502 0.0
C1482 C 0.72215 0.89873 0.36722 0.0
C1483 C 0.72661 0.99646 0.3815 0.0
C1484 C 0.71606 0.96114 0.37636 0.0
C1485 C 0.68792 0.85604 0.36347 0.0
C1486 C 0.6972 0.89312 0.36647 0.0
H1487 H 0.77702 0.02845 0.40243 0.0
H1488 H 0.75303 0.97365 0.40019 0.0
H1489 H 0.75077 0.93557 0.37241 0.0
H1490 H 0.70559 0.77786 0.3428 0.0
H1491 H 0.71313 0.84256 0.34163 0.0
C1492 C 0.70662 0.97209 0.10632 0.0
C1493 C 0.71598 0.0067 0.1096 0.0
C1494 C 0.72167 0.94208 0.10631 0.0
C1495 C 0.7776 0.91082 0.12697 0.0
H1496 H 0.7651 0.82711 0.09617 0.0
C1497 C 0.82239 0.76451 0.12293 0.0
C1498 C 0.80508 0.73839 0.12777 0.0
C1499 C 0.81604 0.80096 0.12186 0.0
C1500 C 0.76889 0.85047 0.10473 0.0
H1501 H 0.74873 0.03724 0.11437 0.0
H1502 H 0.7751 0.9845 0.11424 0.0
H1503 H 0.74597 0.88459 0.08875 0.0
H1504 H 0.76838 0.73063 0.13729 0.0
H1505 H 0.75744 0.79413 0.13516 0.0
H1506 H 0.80024 0.8759 0.14312 0.0
C1507 C 0.75604 0.98073 0.1119 0.0
C1508 C 0.75794 0.88323 0.10055 0.0
C1509 C 0.74095 0.01089 0.11183 0.0
C1510 C 0.78208 0.74988 0.13329 0.0
C1511 C 0.77577 0.78618 0.13211 0.0
C1512 C 0.78874 0.87795 0.13107 0.0
C1513 C 0.74644 0.94597 0.10956 0.0
C1514 C 0.76152 0.91343 0.11198 0.0
C1515 C 0.79241 0.81158 0.12567 0.0
C1516 C 0.78382 0.84746 0.12026 0.0
H1517 H 0.6875 0.96793 0.10446 0.0
H1518 H 0.71366 0.91563 0.10467 0.0
H1519 H 0.78054 0.93357 0.13612 0.0
H1520 H 0.84031 0.75663 0.11871 0.0
H1521 H 0.82905 0.82038 0.11683 0.0
C1522 C 0.6946 0.22686 0.63621 0.0
C1523 C 0.67393 0.24144 0.62795 0.0
C1524 C 0.69763 0.18959 0.63736 0.0
C1525 C 0.68099 0.10931 0.61142 0.0
H1526 H 0.72051 0.06323 0.64873 0.0
C1527 C 0.72855 0.9655 0.60985 0.0
C1528 C 0.75358 0.97137 0.60966 0.0
C1529 C 0.71272 0.99433 0.61283 0.0
C1530 C 0.70906 0.07556 0.63838 0.0
H1531 H 0.63927 0.22819 0.61584 0.0
H1532 H 0.64463 0.16303 0.61793 0.0
H1533 H 0.70222 0.12181 0.65529 0.0
H1534 H 0.78138 0.01256 0.61116 0.0
H1535 H 0.7538 0.06224 0.61655 0.0
H1536 H 0.68889 0.06343 0.59428 0.0
C1537 C 0.65862 0.18054 0.62324 0.0
C1538 C 0.69874 0.10907 0.64206 0.0
C1539 C 0.65556 0.21789 0.62212 0.0
C1540 C 0.76229 0.00685 0.6114 0.0
C1541 C 0.74656 0.03535 0.61456 0.0
C1542 C 0.69118 0.07554 0.60782 0.0
C1543 C 0.68004 0.16603 0.63031 0.0
C1544 C 0.6856 0.1271 0.62829 0.0
C1545 C 0.7218 0.02914 0.61578 0.0
C1546 C 0.70609 0.05932 0.621 0.0
H1547 H 0.70903 0.24415 0.64098 0.0
H1548 H 0.71447 0.17935 0.64272 0.0
H1549 H 0.67111 0.1226 0.60047 0.0
H1550 H 0.72124 0.93852 0.60851 0.0
H1551 H 0.69357 0.98926 0.6136 0.0
C1552 C 0.65638 0.26452 0.11978 0.0
C1553 C 0.67299 0.23834 0.12583 0.0
C1554 C 0.66319 0.30078 0.11848 0.0
C1555 C 0.71369 0.34843 0.10406 0.0
H1556 H 0.69574 0.43445 0.13134 0.0
C1557 C 0.77442 0.47145 0.10844 0.0
C1558 C 0.76448 0.50618 0.10981 0.0
C1559 C 0.75962 0.44119 0.10782 0.0
C1560 C 0.70051 0.41084 0.12329 0.0
H1561 H 0.70873 0.23044 0.13726 0.0
H1562 H 0.72049 0.29349 0.13471 0.0
H1563 H 0.67521 0.37714 0.13771 0.0
H1564 H 0.7311 0.53652 0.11055 0.0
H1565 H 0.70515 0.48333 0.10931 0.0
H1566 H 0.73911 0.38137 0.08977 0.0
C1567 C 0.70238 0.28577 0.13086 0.0
C1568 C 0.68888 0.37817 0.12704 0.0
C1569 C 0.69559 0.24971 0.1323 0.0
C1570 C 0.73933 0.5101 0.10953 0.0
C1571 C 0.72446 0.47968 0.10896 0.0
C1572 C 0.7251 0.38098 0.10018 0.0
C1573 C 0.6866 0.31115 0.12322 0.0
C1574 C 0.696 0.34666 0.11783 0.0
C1575 C 0.7345 0.44489 0.10851 0.0
C1576 C 0.71926 0.41227 0.1102 0.0
H1577 H 0.63878 0.25673 0.11479 0.0
H1578 H 0.65081 0.32017 0.11256 0.0
H1579 H 0.71917 0.32432 0.09667 0.0
H1580 H 0.79371 0.46745 0.10853 0.0
H1581 H 0.76797 0.41478 0.1077 0.0
C1582 C 0.75104 0.46495 0.6127 0.0
C1583 C 0.72677 0.47037 0.61752 0.0
C1584 C 0.76743 0.49364 0.61356 0.0
C1585 C 0.77763 0.57707 0.63827 0.0
H1586 H 0.80455 0.61911 0.59378 0.0
C1587 C 0.78751 0.72785 0.62828 0.0
C1588 C 0.80606 0.7419 0.61726 0.0
C1589 C 0.78541 0.69073 0.63092 0.0
C1590 C 0.79782 0.60727 0.60646 0.0
H1591 H 0.70066 0.51054 0.62644 0.0
H1592 H 0.72916 0.55976 0.62812 0.0
H1593 H 0.78675 0.55881 0.59256 0.0
H1594 H 0.83787 0.72801 0.6013 0.0
H1595 H 0.83404 0.66307 0.6059 0.0
H1596 H 0.78743 0.62602 0.65202 0.0
C1597 C 0.7355 0.53339 0.6238 0.0
C1598 C 0.78765 0.5728 0.60571 0.0
C1599 C 0.71917 0.50516 0.62268 0.0
C1600 C 0.82323 0.71809 0.60977 0.0
C1601 C 0.82106 0.68088 0.61235 0.0
C1602 C 0.78791 0.61131 0.63906 0.0
C1603 C 0.75977 0.52777 0.61958 0.0
C1604 C 0.77645 0.55836 0.62141 0.0
C1605 C 0.8018 0.6668 0.62258 0.0
C1606 C 0.79694 0.62752 0.62294 0.0
H1607 H 0.75744 0.4385 0.60863 0.0
H1608 H 0.7861 0.48902 0.61004 0.0
H1609 H 0.76919 0.56615 0.65057 0.0
H1610 H 0.77407 0.74539 0.63436 0.0
H1611 H 0.77016 0.68072 0.63868 0.0
C1612 C 0.66494 0.6953 0.87143 0.0
C1613 C 0.67975 0.72018 0.86215 0.0
C1614 C 0.67073 0.65857 0.87148 0.0
C1615 C 0.72576 0.60526 0.86887 0.0
H1616 H 0.6833 0.52304 0.87471 0.0
C1617 C 0.73765 0.44318 0.87479 0.0
C1618 C 0.758 0.44318 0.88634 0.0
C1619 C 0.72421 0.47476 0.87238 0.0
C1620 C 0.69535 0.54577 0.87304 0.0
H1621 H 0.71024 0.72569 0.84371 0.0
H1622 H 0.71979 0.66153 0.84323 0.0
H1623 H 0.66665 0.58175 0.86571 0.0
H1624 H 0.77861 0.4748 0.90596 0.0
H1625 H 0.75477 0.5294 0.90223 0.0
H1626 H 0.75444 0.56975 0.87593 0.0
C1627 C 0.70431 0.67049 0.85108 0.0
C1628 C 0.68583 0.57935 0.86795 0.0
C1629 C 0.69875 0.7072 0.85123 0.0
C1630 C 0.76323 0.47417 0.89677 0.0
C1631 C 0.74969 0.5055 0.89452 0.0
C1632 C 0.7352 0.57195 0.87394 0.0
C1633 C 0.69124 0.6461 0.86208 0.0
C1634 C 0.70097 0.60951 0.86587 0.0
C1635 C 0.73082 0.50668 0.88159 0.0
C1636 C 0.72013 0.54189 0.87631 0.0
H1637 H 0.65015 0.70447 0.87997 0.0
H1638 H 0.66025 0.64055 0.88008 0.0
H1639 H 0.73794 0.62797 0.86779 0.0
H1640 H 0.73323 0.4197 0.86652 0.0
H1641 H 0.70976 0.4748 0.86234 0.0
C1642 C 0.74186 0.5297 0.38549 0.0
C1643 C 0.74235 0.55859 0.37293 0.0
C1644 C 0.75476 0.49829 0.38184 0.0
C1645 C 0.80163 0.45444 0.35438 0.0
H1646 H 0.75807 0.37287 0.35723 0.0
C1647 C 0.79359 0.28966 0.34286 0.0
C1648 C 0.81281 0.27853 0.35408 0.0
C1649 C 0.78905 0.3263 0.34021 0.0
C1650 C 0.77042 0.39535 0.35601 0.0
H1651 H 0.75855 0.57847 0.34756 0.0
H1652 H 0.78116 0.52318 0.34123 0.0
H1653 H 0.74346 0.43285 0.36446 0.0
H1654 H 0.84401 0.29685 0.36947 0.0
H1655 H 0.8357 0.36083 0.36521 0.0
H1656 H 0.82876 0.41631 0.34626 0.0
C1657 C 0.77069 0.52504 0.35384 0.0
C1658 C 0.76212 0.42964 0.36046 0.0
C1659 C 0.75772 0.55661 0.35748 0.0
C1660 C 0.82894 0.3046 0.36086 0.0
C1661 C 0.82425 0.34132 0.35836 0.0
C1662 C 0.81008 0.4198 0.35006 0.0
C1663 C 0.76843 0.49512 0.3656 0.0
C1664 C 0.77769 0.45938 0.36002 0.0
C1665 C 0.80348 0.35244 0.3489 0.0
C1666 C 0.79454 0.38988 0.35101 0.0
H1667 H 0.73051 0.53057 0.39767 0.0
H1668 H 0.75312 0.47574 0.3913 0.0
H1669 H 0.8139 0.47711 0.35385 0.0
H1670 H 0.78113 0.27016 0.33713 0.0
H1671 H 0.77324 0.33417 0.33245 0.0
C1672 C 0.33343 0.7201 0.87383 0.0
C1673 C 0.31653 0.74543 0.86742 0.0
C1674 C 0.32879 0.68308 0.87238 0.0
C1675 C 0.28706 0.61626 0.85101 0.0
H1676 H 0.29247 0.56663 0.8981 0.0
C1677 C 0.21938 0.51303 0.87551 0.0
C1678 C 0.22778 0.4777 0.87849 0.0
C1679 C 0.23546 0.5415 0.87344 0.0
C1680 C 0.29133 0.5799 0.88478 0.0
H1681 H 0.28252 0.75175 0.85311 0.0
H1682 H 0.27438 0.68771 0.85072 0.0
H1683 H 0.31255 0.62481 0.89375 0.0
H1684 H 0.25975 0.44514 0.88285 0.0
H1685 H 0.28796 0.49582 0.87975 0.0
H1686 H 0.2643 0.57262 0.84262 0.0
C1687 C 0.29125 0.69614 0.85682 0.0
C1688 C 0.30286 0.61308 0.88222 0.0
C1689 C 0.29582 0.73299 0.85833 0.0
C1690 C 0.25269 0.47199 0.8805 0.0
C1691 C 0.26883 0.50082 0.87869 0.0
C1692 C 0.27537 0.5834 0.85366 0.0
C1693 C 0.30729 0.67077 0.86435 0.0
C1694 C 0.3 0.6323 0.86555 0.0
C1695 C 0.26026 0.53549 0.87459 0.0
C1696 C 0.27672 0.5657 0.87077 0.0
H1697 H 0.34961 0.72881 0.88087 0.0
H1698 H 0.34161 0.66415 0.87812 0.0
H1699 H 0.28493 0.63001 0.8379 0.0
H1700 H 0.20038 0.51864 0.87396 0.0
H1701 H 0.22851 0.56824 0.87055 0.0
C1702 C 0.26684 0.49248 0.38943 0.0
C1703 C 0.26041 0.52564 0.38143 0.0
C1704 C 0.25149 0.46277 0.38808 0.0
C1705 C 0.21085 0.42209 0.35633 0.0
H1706 H 0.19194 0.36034 0.39711 0.0
C1707 C 0.15875 0.27904 0.3722 0.0
C1708 C 0.17426 0.25457 0.36327 0.0
C1709 C 0.16412 0.31585 0.37258 0.0
C1710 C 0.1968 0.3776 0.38561 0.0
H1711 H 0.23259 0.55407 0.36627 0.0
H1712 H 0.20607 0.50162 0.36347 0.0
H1713 H 0.21139 0.41834 0.40349 0.0
H1714 H 0.20613 0.24999 0.34615 0.0
H1715 H 0.21509 0.31457 0.3464 0.0
H1716 H 0.19764 0.38026 0.33844 0.0
C1717 C 0.22282 0.49897 0.37099 0.0
C1718 C 0.20799 0.41057 0.38927 0.0
C1719 C 0.23791 0.52893 0.37272 0.0
C1720 C 0.19392 0.26812 0.35322 0.0
C1721 C 0.19902 0.30506 0.35332 0.0
C1722 C 0.20011 0.38873 0.35266 0.0
C1723 C 0.22971 0.46555 0.37837 0.0
C1724 C 0.21538 0.43282 0.37466 0.0
C1725 C 0.18476 0.32893 0.3637 0.0
C1726 C 0.19327 0.36605 0.36728 0.0
H1727 H 0.28408 0.48922 0.39619 0.0
H1728 H 0.25719 0.43714 0.39379 0.0
H1729 H 0.21663 0.43876 0.34486 0.0
H1730 H 0.14347 0.26955 0.38011 0.0
H1731 H 0.15281 0.33386 0.38057 0.0
C1732 C 0.25135 0.54295 0.1234 0.0
C1733 C 0.23111 0.54341 0.11175 0.0
C1734 C 0.2645 0.51112 0.1258 0.0
C1735 C 0.29288 0.43986 0.12507 0.0
H1736 H 0.24997 0.35773 0.12893 0.0
C1737 C 0.32324 0.29086 0.12416 0.0
C1738 C 0.30826 0.26502 0.13253 0.0
C1739 C 0.3174 0.32749 0.12499 0.0
C1740 C 0.26223 0.3804 0.12828 0.0
H1741 H 0.21041 0.51244 0.09192 0.0
H1742 H 0.23384 0.45741 0.09555 0.0
H1743 H 0.23376 0.41642 0.12143 0.0
H1744 H 0.27734 0.25755 0.15037 0.0
H1745 H 0.26766 0.32156 0.15241 0.0
H1746 H 0.32136 0.40342 0.13223 0.0
C1747 C 0.23901 0.4811 0.10339 0.0
C1748 C 0.25296 0.41401 0.12356 0.0
C1749 C 0.22572 0.51267 0.10118 0.0
C1750 C 0.28896 0.2768 0.14349 0.0
C1751 C 0.28333 0.31345 0.14455 0.0
C1752 C 0.30222 0.40602 0.12987 0.0
C1753 C 0.25773 0.47944 0.11643 0.0
C1754 C 0.26817 0.44402 0.1216 0.0
C1755 C 0.29665 0.33894 0.1344 0.0
C1756 C 0.28698 0.37583 0.13137 0.0
H1757 H 0.25586 0.56624 0.13179 0.0
H1758 H 0.27885 0.51071 0.13592 0.0
H1759 H 0.30503 0.46255 0.12375 0.0
H1760 H 0.33831 0.28266 0.11564 0.0
H1761 H 0.32807 0.34633 0.11701 0.0
C1762 C 0.16382 0.70657 0.61473 0.0
C1763 C 0.17873 0.7308 0.62442 0.0
C1764 C 0.16956 0.66997 0.61385 0.0
C1765 C 0.20432 0.59647 0.63387 0.0
H1766 H 0.21733 0.56789 0.58312 0.0
C1767 C 0.27087 0.49119 0.59849 0.0
C1768 C 0.26368 0.4584 0.6065 0.0
C1769 C 0.2558 0.52129 0.59925 0.0
C1770 C 0.21345 0.5754 0.5973 0.0
H1771 H 0.21004 0.735 0.64218 0.0
H1772 H 0.21967 0.67063 0.64097 0.0
H1773 H 0.19858 0.62644 0.58946 0.0
H1774 H 0.23473 0.43087 0.62085 0.0
H1775 H 0.2087 0.48396 0.6226 0.0
H1776 H 0.21958 0.54561 0.64169 0.0
C1777 C 0.20377 0.68029 0.63388 0.0
C1778 C 0.20269 0.60868 0.60093 0.0
C1779 C 0.19829 0.71709 0.63452 0.0
C1780 C 0.24067 0.45573 0.61443 0.0
C1781 C 0.22584 0.48606 0.61556 0.0
C1782 C 0.21462 0.56283 0.63021 0.0
C1783 C 0.18998 0.65678 0.62293 0.0
C1784 C 0.19852 0.61977 0.61926 0.0
C1785 C 0.23356 0.51922 0.60836 0.0
C1786 C 0.21973 0.55243 0.61192 0.0
H1787 H 0.14858 0.71612 0.60681 0.0
H1788 H 0.1586 0.65219 0.60543 0.0
H1789 H 0.20129 0.60459 0.64808 0.0
H1790 H 0.28851 0.49395 0.59229 0.0
H1791 H 0.26213 0.54672 0.59368 0.0
loop_
_geom_bond_atom_site_label_1
_geom_bond_atom_site_label_2
_geom_bond_distance
_geom_bond_site_symmetry_2
_ccdc_geom_bond_type
Sc0 O3 2.025 . S
Sc0 O10 2.105 . S
Sc0 O13 2.105 . S
Sc0 O16 2.105 . S
Sc0 O19 2.105 . S
Sc1 O3 2.025 . S
Sc1 O11 2.105 . S
Sc1 O15 2.105 . S
Sc1 O17 2.105 . S
Sc1 O21 2.105 . S
Sc2 O3 2.025 . S
Sc2 O12 2.105 . S
Sc2 O14 2.105 . S
Sc2 O18 2.105 . S
Sc2 O20 2.105 . S
O3 Sc0 2.025 . S
O3 Sc1 2.025 . S
O3 Sc2 2.025 . S
C4 O10 1.268 . S
C4 O20 1.268 . S
C5 O11 1.268 . S
C5 O19 1.268 . S
C6 O12 1.268 . S
C6 O21 1.268 . S
C7 O13 1.268 . S
C7 O17 1.268 . S
C8 O14 1.268 . S
C8 O16 1.268 . S
C9 O15 1.268 . S
C9 O18 1.268 . S
O10 Sc0 2.105 . S
O10 C4 1.268 . S
O11 Sc1 2.105 . S
O11 C5 1.268 . S
O12 Sc2 2.105 . S
O12 C6 1.268 . S
O13 Sc0 2.105 . S
O13 C7 1.268 . S
O14 Sc2 2.105 . S
O14 C8 1.268 . S
O15 Sc1 2.105 . S
O15 C9 1.268 . S
O16 Sc0 2.105 . S
O16 C8 1.268 . S
O17 Sc1 2.105 . S
O17 C7 1.268 . S
O18 Sc2 2.105 . S
O18 C9 1.268 . S
O19 Sc0 2.105 . S
O19 C5 1.268 . S
O20 Sc2 2.105 . S
O20 C4 1.268 . S
O21 Sc1 2.105 . S
O21 C6 1.268 . S
Sc22 O25 2.025 . S
Sc22 O32 2.105 . S
Sc22 O35 2.105 . S
Sc22 O38 2.105 . S
Sc22 O41 2.105 . S
Sc23 O25 2.025 . S
Sc23 O33 2.105 . S
Sc23 O37 2.105 . S
Sc23 O39 2.105 . S
Sc23 O43 2.105 . S
Sc24 O25 2.025 . S
Sc24 O34 2.105 . S
Sc24 O36 2.105 . S
Sc24 O40 2.105 . S
Sc24 O42 2.105 . S
O25 Sc22 2.025 . S
O25 Sc23 2.025 . S
O25 Sc24 2.025 . S
C26 O32 1.268 . S
C26 O42 1.268 . S
C27 O33 1.268 . S
C27 O41 1.268 . S
C28 O34 1.268 . S
C28 O43 1.268 . S
C29 O35 1.268 . S
C29 O39 1.268 . S
C30 O36 1.268 . S
C30 O38 1.268 . S
C31 O37 1.268 . S
C31 O40 1.268 . S
O32 Sc22 2.105 . S
O32 C26 1.268 . S
O33 Sc23 2.105 . S
O33 C27 1.268 . S
O34 Sc24 2.105 . S
O34 C28 1.268 . S
O35 Sc22 2.105 . S
O35 C29 1.268 . S
O36 Sc24 2.105 . S
O36 C30 1.268 . S
O37 Sc23 2.105 . S
O37 C31 1.268 . S
O38 Sc22 2.105 . S
O38 C30 1.268 . S
O39 Sc23 2.105 . S
O39 C29 1.268 . S
O40 Sc24 2.105 . S
O40 C31 1.268 . S
O41 Sc22 2.105 . S
O41 C27 1.268 . S
O42 Sc24 2.105 . S
O42 C26 1.268 . S
O43 Sc23 2.105 . S
O43 C28 1.268 . S
Sc44 O47 2.025 . S
Sc44 O54 2.105 . S
Sc44 O57 2.105 . S
Sc44 O60 2.105 . S
Sc44 O63 2.105 . S
Sc45 O47 2.025 . S
Sc45 O55 2.105 . S
Sc45 O59 2.105 . S
Sc45 O61 2.105 . S
Sc45 O65 2.105 . S
Sc46 O47 2.025 . S
Sc46 O56 2.105 . S
Sc46 O58 2.105 . S
Sc46 O62 2.105 . S
Sc46 O64 2.105 . S
O47 Sc44 2.025 . S
O47 Sc45 2.025 . S
O47 Sc46 2.025 . S
C48 O54 1.268 . S
C48 O64 1.268 . S
C49 O55 1.268 . S
C49 O63 1.268 . S
C50 O56 1.268 . S
C50 O65 1.268 . S
C51 O57 1.268 . S
C51 O61 1.268 . S
C52 O58 1.268 . S
C52 O60 1.268 . S
C53 O59 1.268 . S
C53 O62 1.268 . S
O54 Sc44 2.105 . S
O54 C48 1.268 . S
O55 Sc45 2.105 . S
O55 C49 1.268 . S
O56 Sc46 2.105 . S
O56 C50 1.268 . S
O57 Sc44 2.105 . S
O57 C51 1.268 . S
O58 Sc46 2.105 . S
O58 C52 1.268 . S
O59 Sc45 2.105 . S
O59 C53 1.268 . S
O60 Sc44 2.105 . S
O60 C52 1.268 . S
O61 Sc45 2.105 . S
O61 C51 1.268 . S
O62 Sc46 2.105 . S
O62 C53 1.268 . S
O63 Sc44 2.105 . S
O63 C49 1.268 . S
O64 Sc46 2.105 . S
O64 C48 1.268 . S
O65 Sc45 2.105 . S
O65 C50 1.268 . S
Sc66 O69 2.025 . S
Sc66 O76 2.105 . S
Sc66 O79 2.105 . S
Sc66 O82 2.105 . S
Sc66 O85 2.105 . S
Sc67 O69 2.025 . S
Sc67 O77 2.105 . S
Sc67 O81 2.105 . S
Sc67 O83 2.105 . S
Sc67 O87 2.105 . S
Sc68 O69 2.025 . S
Sc68 O78 2.105 . S
Sc68 O80 2.105 . S
Sc68 O84 2.105 . S
Sc68 O86 2.105 . S
O69 Sc66 2.025 . S
O69 Sc67 2.025 . S
O69 Sc68 2.025 . S
C70 O76 1.268 . S
C70 O86 1.268 . S
C71 O77 1.268 . S
C71 O85 1.268 . S
C72 O78 1.268 . S
C72 O87 1.268 . S
C73 O79 1.268 . S
C73 O83 1.268 . S
C74 O80 1.268 . S
C74 O82 1.268 . S
C75 O81 1.268 . S
C75 O84 1.268 . S
O76 Sc66 2.105 . S
O76 C70 1.268 . S
O77 Sc67 2.105 . S
O77 C71 1.268 . S
O78 Sc68 2.105 . S
O78 C72 1.268 . S
O79 Sc66 2.105 . S
O79 C73 1.268 . S
O80 Sc68 2.105 . S
O80 C74 1.268 . S
O81 Sc67 2.105 . S
O81 C75 1.268 . S
O82 Sc66 2.105 . S
O82 C74 1.268 . S
O83 Sc67 2.105 . S
O83 C73 1.268 . S
O84 Sc68 2.105 . S
O84 C75 1.268 . S
O85 Sc66 2.105 . S
O85 C71 1.268 . S
O86 Sc68 2.105 . S
O86 C70 1.268 . S
O87 Sc67 2.105 . S
O87 C72 1.268 . S
Sc88 O91 2.025 . S
Sc88 O98 2.105 . S
Sc88 O101 2.105 . S
Sc88 O104 2.105 . S
Sc88 O107 2.105 . S
Sc89 O91 2.025 . S
Sc89 O99 2.105 . S
Sc89 O103 2.105 . S
Sc89 O105 2.105 . S
Sc89 O109 2.105 . S
Sc90 O91 2.025 . S
Sc90 O100 2.105 . S
Sc90 O102 2.105 . S
Sc90 O106 2.105 . S
Sc90 O108 2.105 . S
O91 Sc88 2.025 . S
O91 Sc89 2.025 . S
O91 Sc90 2.025 . S
C92 O98 1.268 . S
C92 O108 1.268 . S
C93 O99 1.268 . S
C93 O107 1.268 . S
C94 O100 1.268 . S
C94 O109 1.268 . S
C95 O101 1.268 . S
C95 O105 1.268 . S
C96 O102 1.268 . S
C96 O104 1.268 . S
C97 O103 1.268 . S
C97 O106 1.268 . S
O98 Sc88 2.105 . S
O98 C92 1.268 . S
O99 Sc89 2.105 . S
O99 C93 1.268 . S
O100 Sc90 2.105 . S
O100 C94 1.268 . S
O101 Sc88 2.105 . S
O101 C95 1.268 . S
O102 Sc90 2.105 . S
O102 C96 1.268 . S
O103 Sc89 2.105 . S
O103 C97 1.268 . S
O104 Sc88 2.105 . S
O104 C96 1.268 . S
O105 Sc89 2.105 . S
O105 C95 1.268 . S
O106 Sc90 2.105 . S
O106 C97 1.268 . S
O107 Sc88 2.105 . S
O107 C93 1.268 . S
O108 Sc90 2.105 . S
O108 C92 1.268 . S
O109 Sc89 2.105 . S
O109 C94 1.268 . S
Sc110 O113 2.025 . S
Sc110 O120 2.105 . S
Sc110 O123 2.105 . S
Sc110 O126 2.105 . S
Sc110 O129 2.105 . S
Sc111 O113 2.025 . S
Sc111 O121 2.105 . S
Sc111 O125 2.105 . S
Sc111 O127 2.105 . S
Sc111 O131 2.105 . S
Sc112 O113 2.025 . S
Sc112 O122 2.105 . S
Sc112 O124 2.105 . S
Sc112 O128 2.105 . S
Sc112 O130 2.105 . S
O113 Sc110 2.025 . S
O113 Sc111 2.025 . S
O113 Sc112 2.025 . S
C114 O120 1.268 . S
C114 O130 1.268 . S
C115 O121 1.268 . S
C115 O129 1.268 . S
C116 O122 1.268 . S
C116 O131 1.268 . S
C117 O123 1.268 . S
C117 O127 1.268 . S
C118 O124 1.268 . S
C118 O126 1.268 . S
C119 O125 1.268 . S
C119 O128 1.268 . S
O120 Sc110 2.105 . S
O120 C114 1.268 . S
O121 Sc111 2.105 . S
O121 C115 1.268 . S
O122 Sc112 2.105 . S
O122 C116 1.268 . S
O123 Sc110 2.105 . S
O123 C117 1.268 . S
O124 Sc112 2.105 . S
O124 C118 1.268 . S
O125 Sc111 2.105 . S
O125 C119 1.268 . S
O126 Sc110 2.105 . S
O126 C118 1.268 . S
O127 Sc111 2.105 . S
O127 C117 1.268 . S
O128 Sc112 2.105 . S
O128 C119 1.268 . S
O129 Sc110 2.105 . S
O129 C115 1.268 . S
O130 Sc112 2.105 . S
O130 C114 1.268 . S
O131 Sc111 2.105 . S
O131 C116 1.268 . S
Sc132 O135 2.025 . S
Sc132 O142 2.105 . S
Sc132 O145 2.105 . S
Sc132 O148 2.105 . S
Sc132 O151 2.105 . S
Sc133 O135 2.025 . S
Sc133 O143 2.105 . S
Sc133 O147 2.105 . S
Sc133 O149 2.105 . S
Sc133 O153 2.105 . S
Sc134 O135 2.025 . S
Sc134 O144 2.105 . S
Sc134 O146 2.105 . S
Sc134 O150 2.105 . S
Sc134 O152 2.105 . S
O135 Sc132 2.025 . S
O135 Sc133 2.025 . S
O135 Sc134 2.025 . S
C136 O142 1.268 . S
C136 O152 1.268 . S
C137 O143 1.268 . S
C137 O151 1.268 . S
C138 O144 1.268 . S
C138 O153 1.268 . S
C139 O145 1.268 . S
C139 O149 1.268 . S
C140 O146 1.268 . S
C140 O148 1.268 . S
C141 O147 1.268 . S
C141 O150 1.268 . S
O142 Sc132 2.105 . S
O142 C136 1.268 . S
O143 Sc133 2.105 . S
O143 C137 1.268 . S
O144 Sc134 2.105 . S
O144 C138 1.268 . S
O145 Sc132 2.105 . S
O145 C139 1.268 . S
O146 Sc134 2.105 . S
O146 C140 1.268 . S
O147 Sc133 2.105 . S
O147 C141 1.268 . S
O148 Sc132 2.105 . S
O148 C140 1.268 . S
O149 Sc133 2.105 . S
O149 C139 1.268 . S
O150 Sc134 2.105 . S
O150 C141 1.268 . S
O151 Sc132 2.105 . S
O151 C137 1.268 . S
O152 Sc134 2.105 . S
O152 C136 1.268 . S
O153 Sc133 2.105 . S
O153 C138 1.268 . S
Sc154 O157 2.025 . S
Sc154 O164 2.105 . S
Sc154 O167 2.105 . S
Sc154 O170 2.105 . S
Sc154 O173 2.105 . S
Sc155 O157 2.025 . S
Sc155 O165 2.105 . S
Sc155 O169 2.105 . S
Sc155 O171 2.105 . S
Sc155 O175 2.105 . S
Sc156 O157 2.025 . S
Sc156 O166 2.105 . S
Sc156 O168 2.105 . S
Sc156 O172 2.105 . S
Sc156 O174 2.105 . S
O157 Sc154 2.025 . S
O157 Sc155 2.025 . S
O157 Sc156 2.025 . S
C158 O164 1.268 . S
C158 O174 1.268 . S
C159 O165 1.268 . S
C159 O173 1.268 . S
C160 O166 1.268 . S
C160 O175 1.268 . S
C161 O167 1.268 . S
C161 O171 1.268 . S
C162 O168 1.268 . S
C162 O170 1.268 . S
C163 O169 1.268 . S
C163 O172 1.268 . S
O164 Sc154 2.105 . S
O164 C158 1.268 . S
O165 Sc155 2.105 . S
O165 C159 1.268 . S
O166 Sc156 2.105 . S
O166 C160 1.268 . S
O167 Sc154 2.105 . S
O167 C161 1.268 . S
O168 Sc156 2.105 . S
O168 C162 1.268 . S
O169 Sc155 2.105 . S
O169 C163 1.268 . S
O170 Sc154 2.105 . S
O170 C162 1.268 . S
O171 Sc155 2.105 . S
O171 C161 1.268 . S
O172 Sc156 2.105 . S
O172 C163 1.268 . S
O173 Sc154 2.105 . S
O173 C159 1.268 . S
O174 Sc156 2.105 . S
O174 C158 1.268 . S
O175 Sc155 2.105 . S
O175 C160 1.268 . S
Sc176 O179 2.025 . S
Sc176 O186 2.105 . S
Sc176 O189 2.105 . S
Sc176 O192 2.105 . S
Sc176 O195 2.105 . S
Sc177 O179 2.025 . S
Sc177 O187 2.105 . S
Sc177 O191 2.105 . S
Sc177 O193 2.105 . S
Sc177 O197 2.105 . S
Sc178 O179 2.025 . S
Sc178 O188 2.105 . S
Sc178 O190 2.105 . S
Sc178 O194 2.105 . S
Sc178 O196 2.105 . S
O179 Sc176 2.025 . S
O179 Sc177 2.025 . S
O179 Sc178 2.025 . S
C180 O186 1.268 . S
C180 O196 1.268 . S
C181 O187 1.268 . S
C181 O195 1.268 . S
C182 O188 1.268 . S
C182 O197 1.268 . S
C183 O189 1.268 . S
C183 O193 1.268 . S
C184 O190 1.268 . S
C184 O192 1.268 . S
C185 O191 1.268 . S
C185 O194 1.268 . S
O186 Sc176 2.105 . S
O186 C180 1.268 . S
O187 Sc177 2.105 . S
O187 C181 1.268 . S
O188 Sc178 2.105 . S
O188 C182 1.268 . S
O189 Sc176 2.105 . S
O189 C183 1.268 . S
O190 Sc178 2.105 . S
O190 C184 1.268 . S
O191 Sc177 2.105 . S
O191 C185 1.268 . S
O192 Sc176 2.105 . S
O192 C184 1.268 . S
O193 Sc177 2.105 . S
O193 C183 1.268 . S
O194 Sc178 2.105 . S
O194 C185 1.268 . S
O195 Sc176 2.105 . S
O195 C181 1.268 . S
O196 Sc178 2.105 . S
O196 C180 1.268 . S
O197 Sc177 2.105 . S
O197 C182 1.268 . S
Sc198 O201 2.025 . S
Sc198 O208 2.105 . S
Sc198 O211 2.105 . S
Sc198 O214 2.105 . S
Sc198 O217 2.105 . S
Sc199 O201 2.025 . S
Sc199 O209 2.105 . S
Sc199 O213 2.105 . S
Sc199 O215 2.105 . S
Sc199 O219 2.105 . S
Sc200 O201 2.025 . S
Sc200 O210 2.105 . S
Sc200 O212 2.105 . S
Sc200 O216 2.105 . S
Sc200 O218 2.105 . S
O201 Sc198 2.025 . S
O201 Sc199 2.025 . S
O201 Sc200 2.025 . S
C202 O208 1.268 . S
C202 O218 1.268 . S
C203 O209 1.268 . S
C203 O217 1.268 . S
C204 O210 1.268 . S
C204 O219 1.268 . S
C205 O211 1.268 . S
C205 O215 1.268 . S
C206 O212 1.268 . S
C206 O214 1.268 . S
C207 O213 1.268 . S
C207 O216 1.268 . S
O208 Sc198 2.105 . S
O208 C202 1.268 . S
O209 Sc199 2.105 . S
O209 C203 1.268 . S
O210 Sc200 2.105 . S
O210 C204 1.268 . S
O211 Sc198 2.105 . S
O211 C205 1.268 . S
O212 Sc200 2.105 . S
O212 C206 1.268 . S
O213 Sc199 2.105 . S
O213 C207 1.268 . S
O214 Sc198 2.105 . S
O214 C206 1.268 . S
O215 Sc199 2.105 . S
O215 C205 1.268 . S
O216 Sc200 2.105 . S
O216 C207 1.268 . S
O217 Sc198 2.105 . S
O217 C203 1.268 . S
O218 Sc200 2.105 . S
O218 C202 1.268 . S
O219 Sc199 2.105 . S
O219 C204 1.268 . S
Sc220 O223 2.025 . S
Sc220 O230 2.105 . S
Sc220 O233 2.105 . S
Sc220 O236 2.105 . S
Sc220 O239 2.105 . S
Sc221 O223 2.025 . S
Sc221 O231 2.105 . S
Sc221 O235 2.105 . S
Sc221 O237 2.105 . S
Sc221 O241 2.105 . S
Sc222 O223 2.025 . S
Sc222 O232 2.105 . S
Sc222 O234 2.105 . S
Sc222 O238 2.105 . S
Sc222 O240 2.105 . S
O223 Sc220 2.025 . S
O223 Sc221 2.025 . S
O223 Sc222 2.025 . S
C224 O230 1.268 . S
C224 O240 1.268 . S
C225 O231 1.268 . S
C225 O239 1.268 . S
C226 O232 1.268 . S
C226 O241 1.268 . S
C227 O233 1.268 . S
C227 O237 1.268 . S
C228 O234 1.268 . S
C228 O236 1.268 . S
C229 O235 1.268 . S
C229 O238 1.268 . S
O230 Sc220 2.105 . S
O230 C224 1.268 . S
O231 Sc221 2.105 . S
O231 C225 1.268 . S
O232 Sc222 2.105 . S
O232 C226 1.268 . S
O233 Sc220 2.105 . S
O233 C227 1.268 . S
O234 Sc222 2.105 . S
O234 C228 1.268 . S
O235 Sc221 2.105 . S
O235 C229 1.268 . S
O236 Sc220 2.105 . S
O236 C228 1.268 . S
O237 Sc221 2.105 . S
O237 C227 1.268 . S
O238 Sc222 2.105 . S
O238 C229 1.268 . S
O239 Sc220 2.105 . S
O239 C225 1.268 . S
O240 Sc222 2.105 . S
O240 C224 1.268 . S
O241 Sc221 2.105 . S
O241 C226 1.268 . S
Sc242 O245 2.025 . S
Sc242 O252 2.105 . S
Sc242 O255 2.105 . S
Sc242 O258 2.105 . S
Sc242 O261 2.105 . S
Sc243 O245 2.025 . S
Sc243 O253 2.105 . S
Sc243 O257 2.105 . S
Sc243 O259 2.105 . S
Sc243 O263 2.105 . S
Sc244 O245 2.025 . S
Sc244 O254 2.105 . S
Sc244 O256 2.105 . S
Sc244 O260 2.105 . S
Sc244 O262 2.105 . S
O245 Sc242 2.025 . S
O245 Sc243 2.025 . S
O245 Sc244 2.025 . S
C246 O252 1.268 . S
C246 O262 1.268 . S
C247 O253 1.268 . S
C247 O261 1.268 . S
C248 O254 1.268 . S
C248 O263 1.268 . S
C249 O255 1.268 . S
C249 O259 1.268 . S
C250 O256 1.268 . S
C250 O258 1.268 . S
C251 O257 1.268 . S
C251 O260 1.268 . S
O252 Sc242 2.105 . S
O252 C246 1.268 . S
O253 Sc243 2.105 . S
O253 C247 1.268 . S
O254 Sc244 2.105 . S
O254 C248 1.268 . S
O255 Sc242 2.105 . S
O255 C249 1.268 . S
O256 Sc244 2.105 . S
O256 C250 1.268 . S
O257 Sc243 2.105 . S
O257 C251 1.268 . S
O258 Sc242 2.105 . S
O258 C250 1.268 . S
O259 Sc243 2.105 . S
O259 C249 1.268 . S
O260 Sc244 2.105 . S
O260 C251 1.268 . S
O261 Sc242 2.105 . S
O261 C247 1.268 . S
O262 Sc244 2.105 . S
O262 C246 1.268 . S
O263 Sc243 2.105 . S
O263 C248 1.268 . S
Sc264 O267 2.025 . S
Sc264 O274 2.105 . S
Sc264 O277 2.105 . S
Sc264 O280 2.105 . S
Sc264 O283 2.105 . S
Sc265 O267 2.025 . S
Sc265 O275 2.105 . S
Sc265 O279 2.105 . S
Sc265 O281 2.105 . S
Sc265 O285 2.105 . S
Sc266 O267 2.025 . S
Sc266 O276 2.105 . S
Sc266 O278 2.105 . S
Sc266 O282 2.105 . S
Sc266 O284 2.105 . S
O267 Sc264 2.025 . S
O267 Sc265 2.025 . S
O267 Sc266 2.025 . S
C268 O274 1.268 . S
C268 O284 1.268 . S
C269 O275 1.268 . S
C269 O283 1.268 . S
C270 O276 1.268 . S
C270 O285 1.268 . S
C271 O277 1.268 . S
C271 O281 1.268 . S
C272 O278 1.268 . S
C272 O280 1.268 . S
C273 O279 1.268 . S
C273 O282 1.268 . S
O274 Sc264 2.105 . S
O274 C268 1.268 . S
O275 Sc265 2.105 . S
O275 C269 1.268 . S
O276 Sc266 2.105 . S
O276 C270 1.268 . S
O277 Sc264 2.105 . S
O277 C271 1.268 . S
O278 Sc266 2.105 . S
O278 C272 1.268 . S
O279 Sc265 2.105 . S
O279 C273 1.268 . S
O280 Sc264 2.105 . S
O280 C272 1.268 . S
O281 Sc265 2.105 . S
O281 C271 1.268 . S
O282 Sc266 2.105 . S
O282 C273 1.268 . S
O283 Sc264 2.105 . S
O283 C269 1.268 . S
O284 Sc266 2.105 . S
O284 C268 1.268 . S
O285 Sc265 2.105 . S
O285 C270 1.268 . S
Sc286 O289 2.025 . S
Sc286 O296 2.105 . S
Sc286 O299 2.105 . S
Sc286 O302 2.105 . S
Sc286 O305 2.105 . S
Sc287 O289 2.025 . S
Sc287 O297 2.105 . S
Sc287 O301 2.105 . S
Sc287 O303 2.105 . S
Sc287 O307 2.105 . S
Sc288 O289 2.025 . S
Sc288 O298 2.105 . S
Sc288 O300 2.105 . S
Sc288 O304 2.105 . S
Sc288 O306 2.105 . S
O289 Sc286 2.025 . S
O289 Sc287 2.025 . S
O289 Sc288 2.025 . S
C290 O296 1.268 . S
C290 O306 1.268 . S
C291 O297 1.268 . S
C291 O305 1.268 . S
C292 O298 1.268 . S
C292 O307 1.268 . S
C293 O299 1.268 . S
C293 O303 1.268 . S
C294 O300 1.268 . S
C294 O302 1.268 . S
C295 O301 1.268 . S
C295 O304 1.268 . S
O296 Sc286 2.105 . S
O296 C290 1.268 . S
O297 Sc287 2.105 . S
O297 C291 1.268 . S
O298 Sc288 2.105 . S
O298 C292 1.268 . S
O299 Sc286 2.105 . S
O299 C293 1.268 . S
O300 Sc288 2.105 . S
O300 C294 1.268 . S
O301 Sc287 2.105 . S
O301 C295 1.268 . S
O302 Sc286 2.105 . S
O302 C294 1.268 . S
O303 Sc287 2.105 . S
O303 C293 1.268 . S
O304 Sc288 2.105 . S
O304 C295 1.268 . S
O305 Sc286 2.105 . S
O305 C291 1.268 . S
O306 Sc288 2.105 . S
O306 C290 1.268 . S
O307 Sc287 2.105 . S
O307 C292 1.268 . S
Sc308 O311 2.025 . S
Sc308 O318 2.105 . S
Sc308 O321 2.105 . S
Sc308 O324 2.105 . S
Sc308 O327 2.105 . S
Sc309 O311 2.025 . S
Sc309 O319 2.105 . S
Sc309 O323 2.105 . S
Sc309 O325 2.105 . S
Sc309 O329 2.105 . S
Sc310 O311 2.025 . S
Sc310 O320 2.105 . S
Sc310 O322 2.105 . S
Sc310 O326 2.105 . S
Sc310 O328 2.105 . S
O311 Sc308 2.025 . S
O311 Sc309 2.025 . S
O311 Sc310 2.025 . S
C312 O318 1.268 . S
C312 O328 1.268 . S
C313 O319 1.268 . S
C313 O327 1.268 . S
C314 O320 1.268 . S
C314 O329 1.268 . S
C315 O321 1.268 . S
C315 O325 1.268 . S
C316 O322 1.268 . S
C316 O324 1.268 . S
C317 O323 1.268 . S
C317 O326 1.268 . S
O318 Sc308 2.105 . S
O318 C312 1.268 . S
O319 Sc309 2.105 . S
O319 C313 1.268 . S
O320 Sc310 2.105 . S
O320 C314 1.268 . S
O321 Sc308 2.105 . S
O321 C315 1.268 . S
O322 Sc310 2.105 . S
O322 C316 1.268 . S
O323 Sc309 2.105 . S
O323 C317 1.268 . S
O324 Sc308 2.105 . S
O324 C316 1.268 . S
O325 Sc309 2.105 . S
O325 C315 1.268 . S
O326 Sc310 2.105 . S
O326 C317 1.268 . S
O327 Sc308 2.105 . S
O327 C313 1.268 . S
O328 Sc310 2.105 . S
O328 C312 1.268 . S
O329 Sc309 2.105 . S
O329 C314 1.268 . S
Sc330 O333 2.025 . S
Sc330 O340 2.105 . S
Sc330 O343 2.105 . S
Sc330 O346 2.105 . S
Sc330 O349 2.105 . S
Sc331 O333 2.025 . S
Sc331 O341 2.105 . S
Sc331 O345 2.105 . S
Sc331 O347 2.105 . S
Sc331 O351 2.105 . S
Sc332 O333 2.025 . S
Sc332 O342 2.105 . S
Sc332 O344 2.105 . S
Sc332 O348 2.105 . S
Sc332 O350 2.105 . S
O333 Sc330 2.025 . S
O333 Sc331 2.025 . S
O333 Sc332 2.025 . S
C334 O340 1.268 . S
C334 O350 1.268 . S
C335 O341 1.268 . S
C335 O349 1.268 . S
C336 O342 1.268 . S
C336 O351 1.268 . S
C337 O343 1.268 . S
C337 O347 1.268 . S
C338 O344 1.268 . S
C338 O346 1.268 . S
C339 O345 1.268 . S
C339 O348 1.268 . S
O340 Sc330 2.105 . S
O340 C334 1.268 . S
O341 Sc331 2.105 . S
O341 C335 1.268 . S
O342 Sc332 2.105 . S
O342 C336 1.268 . S
O343 Sc330 2.105 . S
O343 C337 1.268 . S
O344 Sc332 2.105 . S
O344 C338 1.268 . S
O345 Sc331 2.105 . S
O345 C339 1.268 . S
O346 Sc330 2.105 . S
O346 C338 1.268 . S
O347 Sc331 2.105 . S
O347 C337 1.268 . S
O348 Sc332 2.105 . S
O348 C339 1.268 . S
O349 Sc330 2.105 . S
O349 C335 1.268 . S
O350 Sc332 2.105 . S
O350 C334 1.268 . S
O351 Sc331 2.105 . S
O351 C336 1.268 . S
C352 C353 1.349 . S
C352 C354 1.327 . S
C352 H377 0.950 . S
C353 C352 1.349 . S
C353 C369 1.349 . S
C354 C352 1.327 . S
C354 C373 1.429 . S
C354 H378 0.950 . S
C355 C372 1.574 1_554 S
C355 C374 1.368 . S
C355 H379 0.949 . S
H356 C360 0.949 . S
C357 C358 1.349 . S
C357 C359 1.327 . S
C357 H380 0.950 . S
C358 C357 1.349 . S
C358 C370 1.349 . S
C359 C357 1.327 . S
C359 C375 1.429 . S
C359 H381 0.950 . S
C360 H356 0.949 . S
C360 C368 1.574 1_556 S
C360 C376 1.368 . S
H361 C369 0.950 . S
H362 C367 0.950 . S
H363 C368 0.949 . S
H364 C370 0.950 . S
H365 C371 0.950 . S
H366 C372 0.949 . S
C367 H362 0.950 . S
C367 C369 1.327 . S
C367 C373 1.429 . S
C368 C360 1.574 1_554 S
C368 H363 0.949 . S
C368 C374 1.368 . S
C369 C353 1.349 . S
C369 H361 0.950 . S
C369 C367 1.327 . S
C370 C358 1.349 . S
C370 H364 0.950 . S
C370 C371 1.327 . S
C371 H365 0.950 . S
C371 C370 1.327 . S
C371 C375 1.429 . S
C372 C355 1.574 1_556 S
C372 H366 0.949 . S
C372 C376 1.368 . S
C373 C354 1.429 . S
C373 C367 1.429 . S
C373 C374 1.523 . S
C374 C355 1.368 . S
C374 C368 1.368 . S
C374 C373 1.523 . S
C375 C359 1.429 . S
C375 C371 1.429 . S
C375 C376 1.523 . S
C376 C360 1.368 . S
C376 C372 1.368 . S
C376 C375 1.523 . S
H377 C352 0.950 . S
H378 C354 0.950 . S
H379 C355 0.949 . S
H380 C357 0.950 . S
H381 C359 0.950 . S
C382 C383 1.349 . S
C382 C384 1.327 . S
C382 H407 0.950 . S
C383 C382 1.349 . S
C383 C399 1.349 . S
C384 C382 1.327 . S
C384 C403 1.429 . S
C384 H408 0.950 . S
C385 C402 1.574 . S
C385 C404 1.368 . S
C385 H409 0.949 . S
H386 C390 0.949 . S
C387 C388 1.349 . S
C387 C389 1.327 . S
C387 H410 0.950 . S
C388 C387 1.349 . S
C388 C400 1.349 . S
C389 C387 1.327 . S
C389 C405 1.429 . S
C389 H411 0.950 . S
C390 H386 0.949 . S
C390 C398 1.574 . S
C390 C406 1.368 . S
H391 C399 0.950 . S
H392 C397 0.950 . S
H393 C398 0.949 . S
H394 C400 0.950 . S
H395 C401 0.950 . S
H396 C402 0.949 . S
C397 H392 0.950 . S
C397 C399 1.327 . S
C397 C403 1.429 . S
C398 C390 1.574 . S
C398 H393 0.949 . S
C398 C404 1.368 . S
C399 C383 1.349 . S
C399 H391 0.950 . S
C399 C397 1.327 . S
C400 C388 1.349 . S
C400 H394 0.950 . S
C400 C401 1.327 . S
C401 H395 0.950 . S
C401 C400 1.327 . S
C401 C405 1.429 . S
C402 C385 1.574 . S
C402 H396 0.949 . S
C402 C406 1.368 . S
C403 C384 1.429 . S
C403 C397 1.429 . S
C403 C404 1.523 . S
C404 C385 1.368 . S
C404 C398 1.368 . S
C404 C403 1.523 . S
C405 C389 1.429 . S
C405 C401 1.429 . S
C405 C406 1.523 . S
C406 C390 1.368 . S
C406 C402 1.368 . S
C406 C405 1.523 . S
H407 C382 0.950 . S
H408 C384 0.950 . S
H409 C385 0.949 . S
H410 C387 0.950 . S
H411 C389 0.950 . S
C412 C413 1.349 . S
C412 C414 1.327 . S
C412 H437 0.950 . S
C413 C412 1.349 . S
C413 C429 1.349 . S
C414 C412 1.327 . S
C414 C433 1.429 . S
C414 H438 0.950 . S
C415 C432 1.574 1_554 S
C415 C434 1.368 . S
C415 H439 0.949 . S
H416 C420 0.949 . S
C417 C418 1.349 . S
C417 C419 1.327 . S
C417 H440 0.950 . S
C418 C417 1.349 . S
C418 C430 1.349 . S
C419 C417 1.327 . S
C419 C435 1.429 . S
C419 H441 0.950 . S
C420 H416 0.949 . S
C420 C428 1.574 1_556 S
C420 C436 1.368 . S
H421 C429 0.950 . S
H422 C427 0.950 . S
H423 C428 0.949 . S
H424 C430 0.950 . S
H425 C431 0.950 . S
H426 C432 0.949 . S
C427 H422 0.950 . S
C427 C429 1.327 . S
C427 C433 1.429 . S
C428 C420 1.574 1_554 S
C428 H423 0.949 . S
C428 C434 1.368 . S
C429 C413 1.349 . S
C429 H421 0.950 . S
C429 C427 1.327 . S
C430 C418 1.349 . S
C430 H424 0.950 . S
C430 C431 1.327 . S
C431 H425 0.950 . S
C431 C430 1.327 . S
C431 C435 1.429 . S
C432 C415 1.574 1_556 S
C432 H426 0.949 . S
C432 C436 1.368 . S
C433 C414 1.429 . S
C433 C427 1.429 . S
C433 C434 1.523 . S
C434 C415 1.368 . S
C434 C428 1.368 . S
C434 C433 1.523 . S
C435 C419 1.429 . S
C435 C431 1.429 . S
C435 C436 1.523 . S
C436 C420 1.368 . S
C436 C432 1.368 . S
C436 C435 1.523 . S
H437 C412 0.950 . S
H438 C414 0.950 . S
H439 C415 0.949 . S
H440 C417 0.950 . S
H441 C419 0.950 . S
C442 C443 1.349 . S
C442 C444 1.327 . S
C442 H467 0.950 . S
C443 C442 1.349 . S
C443 C459 1.349 . S
C444 C442 1.327 . S
C444 C463 1.429 . S
C444 H468 0.950 . S
C445 C462 1.574 . S
C445 C464 1.368 . S
C445 H469 0.949 . S
H446 C450 0.949 . S
C447 C448 1.349 . S
C447 C449 1.327 . S
C447 H470 0.950 . S
C448 C447 1.349 . S
C448 C460 1.349 . S
C449 C447 1.327 . S
C449 C465 1.429 . S
C449 H471 0.950 . S
C450 H446 0.949 . S
C450 C458 1.574 . S
C450 C466 1.368 . S
H451 C459 0.950 . S
H452 C457 0.950 . S
H453 C458 0.949 . S
H454 C460 0.950 . S
H455 C461 0.950 . S
H456 C462 0.949 . S
C457 H452 0.950 . S
C457 C459 1.327 . S
C457 C463 1.429 . S
C458 C450 1.574 . S
C458 H453 0.949 . S
C458 C464 1.368 . S
C459 C443 1.349 . S
C459 H451 0.950 . S
C459 C457 1.327 . S
C460 C448 1.349 . S
C460 H454 0.950 . S
C460 C461 1.327 . S
C461 H455 0.950 . S
C461 C460 1.327 . S
C461 C465 1.429 . S
C462 C445 1.574 . S
C462 H456 0.949 . S
C462 C466 1.368 . S
C463 C444 1.429 . S
C463 C457 1.429 . S
C463 C464 1.523 . S
C464 C445 1.368 . S
C464 C458 1.368 . S
C464 C463 1.523 . S
C465 C449 1.429 . S
C465 C461 1.429 . S
C465 C466 1.523 . S
C466 C450 1.368 . S
C466 C462 1.368 . S
C466 C465 1.523 . S
H467 C442 0.950 . S
H468 C444 0.950 . S
H469 C445 0.949 . S
H470 C447 0.950 . S
H471 C449 0.950 . S
C472 C473 1.349 . S
C472 C474 1.327 . S
C472 H497 0.950 . S
C473 C472 1.349 . S
C473 C489 1.349 . S
C474 C472 1.327 . S
C474 C493 1.429 . S
C474 H498 0.950 . S
C475 C492 1.574 1_556 S
C475 C494 1.368 . S
C475 H499 0.949 . S
H476 C480 0.949 . S
C477 C478 1.349 . S
C477 C479 1.327 . S
C477 H500 0.950 . S
C478 C477 1.349 . S
C478 C490 1.349 . S
C479 C477 1.327 . S
C479 C495 1.429 . S
C479 H501 0.950 . S
C480 H476 0.949 . S
C480 C488 1.574 1_554 S
C480 C496 1.368 . S
H481 C489 0.950 . S
H482 C487 0.950 . S
H483 C488 0.949 . S
H484 C490 0.950 . S
H485 C491 0.950 . S
H486 C492 0.949 . S
C487 H482 0.950 . S
C487 C489 1.327 . S
C487 C493 1.429 . S
C488 C480 1.574 1_556 S
C488 H483 0.949 . S
C488 C494 1.368 . S
C489 C473 1.349 . S
C489 H481 0.950 . S
C489 C487 1.327 . S
C490 C478 1.349 . S
C490 H484 0.950 . S
C490 C491 1.327 . S
C491 H485 0.950 . S
C491 C490 1.327 . S
C491 C495 1.429 . S
C492 C475 1.574 1_554 S
C492 H486 0.949 . S
C492 C496 1.368 . S
C493 C474 1.429 . S
C493 C487 1.429 . S
C493 C494 1.523 . S
C494 C475 1.368 . S
C494 C488 1.368 . S
C494 C493 1.523 . S
C495 C479 1.429 . S
C495 C491 1.429 . S
C495 C496 1.523 . S
C496 C480 1.368 . S
C496 C492 1.368 . S
C496 C495 1.523 . S
H497 C472 0.950 . S
H498 C474 0.950 . S
H499 C475 0.949 . S
H500 C477 0.950 . S
H501 C479 0.950 . S
C502 C503 1.349 . S
C502 C504 1.327 . S
C502 H527 0.950 . S
C503 C502 1.349 . S
C503 C519 1.349 . S
C504 C502 1.327 . S
C504 C523 1.429 . S
C504 H528 0.950 . S
C505 C522 1.574 . S
C505 C524 1.368 . S
C505 H529 0.949 . S
H506 C510 0.949 . S
C507 C508 1.349 . S
C507 C509 1.327 . S
C507 H530 0.950 . S
C508 C507 1.349 . S
C508 C520 1.349 . S
C509 C507 1.327 . S
C509 C525 1.429 . S
C509 H531 0.950 . S
C510 H506 0.949 . S
C510 C518 1.574 . S
C510 C526 1.368 . S
H511 C519 0.950 . S
H512 C517 0.950 . S
H513 C518 0.949 . S
H514 C520 0.950 . S
H515 C521 0.950 . S
H516 C522 0.949 . S
C517 H512 0.950 . S
C517 C519 1.327 . S
C517 C523 1.429 . S
C518 C510 1.574 . S
C518 H513 0.949 . S
C518 C524 1.368 . S
C519 C503 1.349 . S
C519 H511 0.950 . S
C519 C517 1.327 . S
C520 C508 1.349 . S
C520 H514 0.950 . S
C520 C521 1.327 . S
C521 H515 0.950 . S
C521 C520 1.327 . S
C521 C525 1.429 . S
C522 C505 1.574 . S
C522 H516 0.949 . S
C522 C526 1.368 . S
C523 C504 1.429 . S
C523 C517 1.429 . S
C523 C524 1.523 . S
C524 C505 1.368 . S
C524 C518 1.368 . S
C524 C523 1.523 . S
C525 C509 1.429 . S
C525 C521 1.429 . S
C525 C526 1.523 . S
C526 C510 1.368 . S
C526 C522 1.368 . S
C526 C525 1.523 . S
H527 C502 0.950 . S
H528 C504 0.950 . S
H529 C505 0.949 . S
H530 C507 0.950 . S
H531 C509 0.950 . S
C532 C533 1.349 . S
C532 C534 1.327 . S
C532 H557 0.950 . S
C533 C532 1.349 . S
C533 C549 1.349 . S
C534 C532 1.327 . S
C534 C553 1.429 . S
C534 H558 0.950 . S
C535 C552 1.574 1_554 S
C535 C554 1.368 . S
C535 H559 0.949 . S
H536 C540 0.949 . S
C537 C538 1.349 . S
C537 C539 1.327 . S
C537 H560 0.950 . S
C538 C537 1.349 . S
C538 C550 1.349 . S
C539 C537 1.327 . S
C539 C555 1.429 . S
C539 H561 0.950 . S
C540 H536 0.949 . S
C540 C548 1.574 1_556 S
C540 C556 1.368 . S
H541 C549 0.950 . S
H542 C547 0.950 . S
H543 C548 0.949 . S
H544 C550 0.950 . S
H545 C551 0.950 . S
H546 C552 0.949 . S
C547 H542 0.950 . S
C547 C549 1.327 . S
C547 C553 1.429 . S
C548 C540 1.574 1_554 S
C548 H543 0.949 . S
C548 C554 1.368 . S
C549 C533 1.349 . S
C549 H541 0.950 . S
C549 C547 1.327 . S
C550 C538 1.349 . S
C550 H544 0.950 . S
C550 C551 1.327 . S
C551 H545 0.950 . S
C551 C550 1.327 . S
C551 C555 1.429 . S
C552 C535 1.574 1_556 S
C552 H546 0.949 . S
C552 C556 1.368 . S
C553 C534 1.429 . S
C553 C547 1.429 . S
C553 C554 1.523 . S
C554 C535 1.368 . S
C554 C548 1.368 . S
C554 C553 1.523 . S
C555 C539 1.429 . S
C555 C551 1.429 . S
C555 C556 1.523 . S
C556 C540 1.368 . S
C556 C552 1.368 . S
C556 C555 1.523 . S
H557 C532 0.950 . S
H558 C534 0.950 . S
H559 C535 0.949 . S
H560 C537 0.950 . S
H561 C539 0.950 . S
C562 C563 1.349 . S
C562 C564 1.327 . S
C562 H587 0.950 . S
C563 C562 1.349 . S
C563 C579 1.349 . S
C564 C562 1.327 . S
C564 C583 1.429 . S
C564 H588 0.950 . S
C565 C582 1.574 . S
C565 C584 1.368 . S
C565 H589 0.949 . S
H566 C570 0.949 . S
C567 C568 1.349 . S
C567 C569 1.327 . S
C567 H590 0.950 . S
C568 C567 1.349 . S
C568 C580 1.349 . S
C569 C567 1.327 . S
C569 C585 1.429 . S
C569 H591 0.950 . S
C570 H566 0.949 . S
C570 C578 1.574 . S
C570 C586 1.368 . S
H571 C579 0.950 . S
H572 C577 0.950 . S
H573 C578 0.949 . S
H574 C580 0.950 . S
H575 C581 0.950 . S
H576 C582 0.949 . S
C577 H572 0.950 . S
C577 C579 1.327 . S
C577 C583 1.429 . S
C578 C570 1.574 . S
C578 H573 0.949 . S
C578 C584 1.368 . S
C579 C563 1.349 . S
C579 H571 0.950 . S
C579 C577 1.327 . S
C580 C568 1.349 . S
C580 H574 0.950 . S
C580 C581 1.327 . S
C581 H575 0.950 . S
C581 C580 1.327 . S
C581 C585 1.429 . S
C582 C565 1.574 . S
C582 H576 0.949 . S
C582 C586 1.368 . S
C583 C564 1.429 . S
C583 C577 1.429 . S
C583 C584 1.523 . S
C584 C565 1.368 . S
C584 C578 1.368 . S
C584 C583 1.523 . S
C585 C569 1.429 . S
C585 C581 1.429 . S
C585 C586 1.523 . S
C586 C570 1.368 . S
C586 C582 1.368 . S
C586 C585 1.523 . S
H587 C562 0.950 . S
H588 C564 0.950 . S
H589 C565 0.949 . S
H590 C567 0.950 . S
H591 C569 0.950 . S
C592 C593 1.349 . S
C592 C594 1.327 . S
C592 H617 0.950 . S
C593 C592 1.349 . S
C593 C609 1.349 . S
C594 C592 1.327 . S
C594 C613 1.429 . S
C594 H618 0.950 . S
C595 C612 1.570 . S
C595 C614 1.368 1_545 S
C595 H619 0.949 . S
H596 C600 0.949 . S
C597 C598 1.349 . S
C597 C599 1.327 . S
C597 H620 0.950 . S
C598 C597 1.349 . S
C598 C610 1.349 . S
C599 C597 1.327 . S
C599 C615 1.429 . S
C599 H621 0.950 . S
C600 H596 0.949 . S
C600 C608 1.570 . S
C600 C616 1.368 1_565 S
H601 C609 0.950 . S
H602 C607 0.950 . S
H603 C608 0.949 1_556 S
H604 C610 0.950 . S
H605 C611 0.950 . S
H606 C612 0.949 1_554 S
C607 H602 0.950 . S
C607 C609 1.327 . S
C607 C613 1.429 . S
C608 C600 1.570 . S
C608 H603 0.949 1_554 S
C608 C614 1.372 1_554 S
C609 C593 1.349 . S
C609 H601 0.950 . S
C609 C607 1.327 . S
C610 C598 1.349 . S
C610 H604 0.950 . S
C610 C611 1.327 . S
C611 H605 0.950 . S
C611 C610 1.327 . S
C611 C615 1.429 . S
C612 C595 1.570 . S
C612 H606 0.949 1_556 S
C612 C616 1.372 1_556 S
C613 C594 1.429 . S
C613 C607 1.429 . S
C613 C614 1.523 . S
C614 C595 1.368 1_565 S
C614 C608 1.372 1_556 S
C614 C613 1.523 . S
C615 C599 1.429 . S
C615 C611 1.429 . S
C615 C616 1.523 . S
C616 C600 1.368 1_545 S
C616 C612 1.372 1_554 S
C616 C615 1.523 . S
H617 C592 0.950 . S
H618 C594 0.950 . S
H619 C595 0.949 . S
H620 C597 0.950 . S
H621 C599 0.950 . S
C622 C623 1.349 . S
C622 C624 1.327 . S
C622 H647 0.950 . S
C623 C622 1.349 . S
C623 C639 1.349 . S
C624 C622 1.327 . S
C624 C643 1.429 . S
C624 H648 0.950 . S
C625 C642 1.574 1_565 S
C625 C644 1.368 . S
C625 H649 0.949 . S
H626 C630 0.949 . S
C627 C628 1.349 . S
C627 C629 1.327 . S
C627 H650 0.950 . S
C628 C627 1.349 . S
C628 C640 1.349 . S
C629 C627 1.327 . S
C629 C645 1.429 . S
C629 H651 0.950 . S
C630 H626 0.949 . S
C630 C638 1.574 1_545 S
C630 C646 1.368 . S
H631 C639 0.950 . S
H632 C637 0.950 . S
H633 C638 0.949 . S
H634 C640 0.950 . S
H635 C641 0.950 . S
H636 C642 0.949 . S
C637 H632 0.950 . S
C637 C639 1.327 . S
C637 C643 1.429 . S
C638 C630 1.574 1_565 S
C638 H633 0.949 . S
C638 C644 1.368 . S
C639 C623 1.349 . S
C639 H631 0.950 . S
C639 C637 1.327 . S
C640 C628 1.349 . S
C640 H634 0.950 . S
C640 C641 1.327 . S
C641 H635 0.950 . S
C641 C640 1.327 . S
C641 C645 1.429 . S
C642 C625 1.574 1_545 S
C642 H636 0.949 . S
C642 C646 1.368 . S
C643 C624 1.429 . S
C643 C637 1.429 . S
C643 C644 1.523 . S
C644 C625 1.368 . S
C644 C638 1.368 . S
C644 C643 1.523 . S
C645 C629 1.429 . S
C645 C641 1.429 . S
C645 C646 1.523 . S
C646 C630 1.368 . S
C646 C642 1.368 . S
C646 C645 1.523 . S
H647 C622 0.950 . S
H648 C624 0.950 . S
H649 C625 0.949 . S
H650 C627 0.950 . S
H651 C629 0.950 . S
C652 C653 1.349 . S
C652 C654 1.327 . S
C652 H677 0.950 . S
C653 C652 1.349 . S
C653 C669 1.349 . S
C654 C652 1.327 . S
C654 C673 1.429 . S
C654 H678 0.950 . S
C655 C672 1.574 1_556 S
C655 C674 1.368 . S
C655 H679 0.949 . S
H656 C660 0.949 . S
C657 C658 1.349 . S
C657 C659 1.327 . S
C657 H680 0.950 . S
C658 C657 1.349 . S
C658 C670 1.349 . S
C659 C657 1.327 . S
C659 C675 1.429 . S
C659 H681 0.950 . S
C660 H656 0.949 . S
C660 C668 1.574 1_554 S
C660 C676 1.368 . S
H661 C669 0.950 . S
H662 C667 0.950 . S
H663 C668 0.949 . S
H664 C670 0.950 . S
H665 C671 0.950 . S
H666 C672 0.949 . S
C667 H662 0.950 . S
C667 C669 1.327 . S
C667 C673 1.429 . S
C668 C660 1.574 1_556 S
C668 H663 0.949 . S
C668 C674 1.368 1_545 S
C669 C653 1.349 . S
C669 H661 0.950 . S
C669 C667 1.327 . S
C670 C658 1.349 . S
C670 H664 0.950 . S
C670 C671 1.327 . S
C671 H665 0.950 . S
C671 C670 1.327 . S
C671 C675 1.429 . S
C672 C655 1.574 1_554 S
C672 H666 0.949 . S
C672 C676 1.368 1_565 S
C673 C654 1.429 . S
C673 C667 1.429 . S
C673 C674 1.523 . S
C674 C655 1.368 . S
C674 C668 1.368 1_565 S
C674 C673 1.523 . S
C675 C659 1.429 . S
C675 C671 1.429 . S
C675 C676 1.523 . S
C676 C660 1.368 . S
C676 C672 1.368 1_545 S
C676 C675 1.523 . S
H677 C652 0.950 . S
H678 C654 0.950 . S
H679 C655 0.949 . S
H680 C657 0.950 . S
H681 C659 0.950 . S
C682 C683 1.349 . S
C682 C684 1.327 . S
C682 H707 0.950 . S
C683 C682 1.349 . S
C683 C699 1.349 . S
C684 C682 1.327 . S
C684 C703 1.429 . S
C684 H708 0.950 . S
C685 C702 1.574 . S
C685 C704 1.368 1_545 S
C685 H709 0.949 . S
H686 C690 0.949 . S
C687 C688 1.349 . S
C687 C689 1.327 . S
C687 H710 0.950 . S
C688 C687 1.349 . S
C688 C700 1.349 . S
C689 C687 1.327 . S
C689 C705 1.429 . S
C689 H711 0.950 . S
C690 H686 0.949 . S
C690 C698 1.574 . S
C690 C706 1.368 1_565 S
H691 C699 0.950 . S
H692 C697 0.950 . S
H693 C698 0.949 . S
H694 C700 0.950 . S
H695 C701 0.950 . S
H696 C702 0.949 . S
C697 H692 0.950 . S
C697 C699 1.327 . S
C697 C703 1.429 . S
C698 C690 1.574 . S
C698 H693 0.949 . S
C698 C704 1.368 . S
C699 C683 1.349 . S
C699 H691 0.950 . S
C699 C697 1.327 . S
C700 C688 1.349 . S
C700 H694 0.950 . S
C700 C701 1.327 . S
C701 H695 0.950 . S
C701 C700 1.327 . S
C701 C705 1.429 . S
C702 C685 1.574 . S
C702 H696 0.949 . S
C702 C706 1.368 . S
C703 C684 1.429 . S
C703 C697 1.429 . S
C703 C704 1.523 . S
C704 C685 1.368 1_565 S
C704 C698 1.368 . S
C704 C703 1.523 . S
C705 C689 1.429 . S
C705 C701 1.429 . S
C705 C706 1.523 . S
C706 C690 1.368 1_545 S
C706 C702 1.368 . S
C706 C705 1.523 . S
H707 C682 0.950 . S
H708 C684 0.950 . S
H709 C685 0.949 . S
H710 C687 0.950 . S
H711 C689 0.950 . S
C712 C713 1.349 . S
C712 C714 1.327 . S
C712 H737 0.950 . S
C713 C712 1.349 . S
C713 C729 1.349 . S
C714 C712 1.327 . S
C714 C733 1.429 . S
C714 H738 0.950 . S
C715 C732 1.620 . S
C715 C734 1.322 1_556 S
C715 H739 0.952 . S
H716 C720 0.952 . S
C717 C718 1.349 . S
C717 C719 1.327 . S
C717 H740 0.950 . S
C718 C717 1.349 . S
C718 C730 1.349 . S
C719 C717 1.327 . S
C719 C735 1.429 . S
C719 H741 0.950 . S
C720 H716 0.952 . S
C720 C728 1.620 . S
C720 C736 1.322 1_554 S
H721 C729 0.950 . S
H722 C727 0.950 . S
H723 C728 0.949 . S
H724 C730 0.950 . S
H725 C731 0.950 . S
H726 C732 0.949 . S
C727 H722 0.950 . S
C727 C729 1.327 . S
C727 C733 1.429 . S
C728 C720 1.620 . S
C728 H723 0.949 . S
C728 C734 1.368 . S
C729 C713 1.349 . S
C729 H721 0.950 . S
C729 C727 1.327 . S
C730 C718 1.349 . S
C730 H724 0.950 . S
C730 C731 1.327 . S
C731 H725 0.950 . S
C731 C730 1.327 . S
C731 C735 1.429 . S
C732 C715 1.620 . S
C732 H726 0.949 . S
C732 C736 1.368 . S
C733 C714 1.429 . S
C733 C727 1.429 . S
C733 C734 1.523 . S
C734 C715 1.322 1_554 S
C734 C728 1.368 . S
C734 C733 1.523 . S
C735 C719 1.429 . S
C735 C731 1.429 . S
C735 C736 1.523 . S
C736 C720 1.322 1_556 S
C736 C732 1.368 . S
C736 C735 1.523 . S
H737 C712 0.950 . S
H738 C714 0.950 . S
H739 C715 0.952 . S
H740 C717 0.950 . S
H741 C719 0.950 . S
C742 C743 1.349 . S
C742 C744 1.327 . S
C742 H767 0.950 . S
C743 C742 1.349 . S
C743 C759 1.349 . S
C744 C742 1.327 . S
C744 C763 1.429 . S
C744 H768 0.950 . S
C745 C762 1.574 . S
C745 C764 1.368 . S
C745 H769 0.949 . S
H746 C750 0.949 . S
C747 C748 1.349 . S
C747 C749 1.327 . S
C747 H770 0.950 . S
C748 C747 1.349 . S
C748 C760 1.349 . S
C749 C747 1.327 . S
C749 C765 1.429 . S
C749 H771 0.950 . S
C750 H746 0.949 . S
C750 C758 1.574 . S
C750 C766 1.368 . S
H751 C759 0.950 . S
H752 C757 0.950 . S
H753 C758 0.949 . S
H754 C760 0.950 . S
H755 C761 0.950 . S
H756 C762 0.949 . S
C757 H752 0.950 . S
C757 C759 1.327 . S
C757 C763 1.429 . S
C758 C750 1.574 . S
C758 H753 0.949 . S
C758 C764 1.368 . S
C759 C743 1.349 . S
C759 H751 0.950 . S
C759 C757 1.327 . S
C760 C748 1.349 . S
C760 H754 0.950 . S
C760 C761 1.327 . S
C761 H755 0.950 . S
C761 C760 1.327 . S
C761 C765 1.429 . S
C762 C745 1.574 . S
C762 H756 0.949 . S
C762 C766 1.368 . S
C763 C744 1.429 . S
C763 C757 1.429 . S
C763 C764 1.523 . S
C764 C745 1.368 . S
C764 C758 1.368 . S
C764 C763 1.523 . S
C765 C749 1.429 . S
C765 C761 1.429 . S
C765 C766 1.523 . S
C766 C750 1.368 . S
C766 C762 1.368 . S
C766 C765 1.523 . S
H767 C742 0.950 . S
H768 C744 0.950 . S
H769 C745 0.949 . S
H770 C747 0.950 . S
H771 C749 0.950 . S
C772 C773 1.349 . S
C772 C774 1.327 . S
C772 H797 0.950 . S
C773 C772 1.349 . S
C773 C789 1.349 . S
C774 C772 1.327 . S
C774 C793 1.429 . S
C774 H798 0.950 . S
C775 C792 1.619 . S
C775 C794 1.323 1_556 S
C775 H799 0.952 . S
H776 C780 0.952 . S
C777 C778 1.349 . S
C777 C779 1.327 . S
C777 H800 0.950 . S
C778 C777 1.349 . S
C778 C790 1.349 . S
C779 C777 1.327 . S
C779 C795 1.429 . S
C779 H801 0.950 . S
C780 H776 0.952 . S
C780 C788 1.619 . S
C780 C796 1.323 1_554 S
H781 C789 0.950 . S
H782 C787 0.950 . S
H783 C788 0.949 . S
H784 C790 0.950 . S
H785 C791 0.950 . S
H786 C792 0.949 . S
C787 H782 0.950 . S
C787 C789 1.327 . S
C787 C793 1.429 . S
C788 C780 1.619 . S
C788 H783 0.949 . S
C788 C794 1.368 . S
C789 C773 1.349 . S
C789 H781 0.950 . S
C789 C787 1.327 . S
C790 C778 1.349 . S
C790 H784 0.950 . S
C790 C791 1.327 . S
C791 H785 0.950 . S
C791 C790 1.327 . S
C791 C795 1.429 . S
C792 C775 1.619 . S
C792 H786 0.949 . S
C792 C796 1.368 . S
C793 C774 1.429 . S
C793 C787 1.429 . S
C793 C794 1.523 . S
C794 C775 1.323 1_554 S
C794 C788 1.368 . S
C794 C793 1.523 . S
C795 C779 1.429 . S
C795 C791 1.429 . S
C795 C796 1.523 . S
C796 C780 1.323 1_556 S
C796 C792 1.368 . S
C796 C795 1.523 . S
H797 C772 0.950 . S
H798 C774 0.950 . S
H799 C775 0.952 . S
H800 C777 0.950 . S
H801 C779 0.950 . S
C802 C803 1.349 . S
C802 C804 1.327 . S
C802 H827 0.950 . S
C803 C802 1.349 . S
C803 C819 1.349 . S
C804 C802 1.327 . S
C804 C823 1.429 . S
C804 H828 0.950 . S
C805 C822 1.574 . S
C805 C824 1.368 . S
C805 H829 0.949 . S
H806 C810 0.949 . S
C807 C808 1.349 . S
C807 C809 1.327 . S
C807 H830 0.950 . S
C808 C807 1.349 . S
C808 C820 1.349 . S
C809 C807 1.327 . S
C809 C825 1.429 . S
C809 H831 0.950 . S
C810 H806 0.949 . S
C810 C818 1.574 . S
C810 C826 1.368 . S
H811 C819 0.950 . S
H812 C817 0.950 . S
H813 C818 0.949 . S
H814 C820 0.950 . S
H815 C821 0.950 . S
H816 C822 0.949 . S
C817 H812 0.950 . S
C817 C819 1.327 . S
C817 C823 1.429 . S
C818 C810 1.574 . S
C818 H813 0.949 . S
C818 C824 1.368 . S
C819 C803 1.349 . S
C819 H811 0.950 . S
C819 C817 1.327 . S
C820 C808 1.349 . S
C820 H814 0.950 . S
C820 C821 1.327 . S
C821 H815 0.950 . S
C821 C820 1.327 . S
C821 C825 1.429 . S
C822 C805 1.574 . S
C822 H816 0.949 . S
C822 C826 1.368 . S
C823 C804 1.429 . S
C823 C817 1.429 . S
C823 C824 1.523 . S
C824 C805 1.368 . S
C824 C818 1.368 . S
C824 C823 1.523 . S
C825 C809 1.429 . S
C825 C821 1.429 . S
C825 C826 1.523 . S
C826 C810 1.368 . S
C826 C822 1.368 . S
C826 C825 1.523 . S
H827 C802 0.950 . S
H828 C804 0.950 . S
H829 C805 0.949 . S
H830 C807 0.950 . S
H831 C809 0.950 . S
C832 C833 1.349 . S
C832 C834 1.327 . S
C832 H857 0.950 . S
C833 C832 1.349 . S
C833 C849 1.349 . S
C834 C832 1.327 . S
C834 C853 1.429 . S
C834 H858 0.950 . S
C835 C852 1.574 . S
C835 C854 1.368 . S
C835 H859 0.949 . S
H836 C840 0.949 . S
C837 C838 1.349 . S
C837 C839 1.327 . S
C837 H860 0.950 . S
C838 C837 1.349 . S
C838 C850 1.349 . S
C839 C837 1.327 . S
C839 C855 1.429 . S
C839 H861 0.950 . S
C840 H836 0.949 . S
C840 C848 1.574 . S
C840 C856 1.368 . S
H841 C849 0.950 . S
H842 C847 0.950 . S
H843 C848 0.949 . S
H844 C850 0.950 . S
H845 C851 0.950 . S
H846 C852 0.949 . S
C847 H842 0.950 . S
C847 C849 1.327 . S
C847 C853 1.429 . S
C848 C840 1.574 . S
C848 H843 0.949 . S
C848 C854 1.368 . S
C849 C833 1.349 . S
C849 H841 0.950 . S
C849 C847 1.327 . S
C850 C838 1.349 . S
C850 H844 0.950 . S
C850 C851 1.327 . S
C851 H845 0.950 . S
C851 C850 1.327 . S
C851 C855 1.429 . S
C852 C835 1.574 . S
C852 H846 0.949 . S
C852 C856 1.368 . S
C853 C834 1.429 . S
C853 C847 1.429 . S
C853 C854 1.523 . S
C854 C835 1.368 . S
C854 C848 1.368 . S
C854 C853 1.523 . S
C855 C839 1.429 . S
C855 C851 1.429 . S
C855 C856 1.523 . S
C856 C840 1.368 . S
C856 C852 1.368 . S
C856 C855 1.523 . S
H857 C832 0.950 . S
H858 C834 0.950 . S
H859 C835 0.949 . S
H860 C837 0.950 . S
H861 C839 0.950 . S
C862 C863 1.349 . S
C862 C864 1.327 . S
C862 H887 0.950 . S
C863 C862 1.349 . S
C863 C879 1.349 . S
C864 C862 1.327 . S
C864 C883 1.429 . S
C864 H888 0.950 . S
C865 C882 1.574 . S
C865 C884 1.368 . S
C865 H889 0.949 . S
H866 C870 0.949 . S
C867 C868 1.349 . S
C867 C869 1.327 . S
C867 H890 0.950 . S
C868 C867 1.349 . S
C868 C880 1.349 . S
C869 C867 1.327 . S
C869 C885 1.429 . S
C869 H891 0.950 . S
C870 H866 0.949 . S
C870 C878 1.574 . S
C870 C886 1.368 . S
H871 C879 0.950 . S
H872 C877 0.950 . S
H873 C878 0.949 . S
H874 C880 0.950 . S
H875 C881 0.950 . S
H876 C882 0.949 . S
C877 H872 0.950 . S
C877 C879 1.327 . S
C877 C883 1.429 . S
C878 C870 1.574 . S
C878 H873 0.949 . S
C878 C884 1.368 . S
C879 C863 1.349 . S
C879 H871 0.950 . S
C879 C877 1.327 . S
C880 C868 1.349 . S
C880 H874 0.950 . S
C880 C881 1.327 . S
C881 H875 0.950 . S
C881 C880 1.327 . S
C881 C885 1.429 . S
C882 C865 1.574 . S
C882 H876 0.949 . S
C882 C886 1.368 . S
C883 C864 1.429 . S
C883 C877 1.429 . S
C883 C884 1.523 . S
C884 C865 1.368 . S
C884 C878 1.368 . S
C884 C883 1.523 . S
C885 C869 1.429 . S
C885 C881 1.429 . S
C885 C886 1.523 . S
C886 C870 1.368 . S
C886 C882 1.368 . S
C886 C885 1.523 . S
H887 C862 0.950 . S
H888 C864 0.950 . S
H889 C865 0.949 . S
H890 C867 0.950 . S
H891 C869 0.950 . S
C892 C893 1.349 . S
C892 C894 1.327 . S
C892 H917 0.950 . S
C893 C892 1.349 . S
C893 C909 1.349 . S
C894 C892 1.327 . S
C894 C913 1.429 . S
C894 H918 0.950 . S
C895 C912 1.574 . S
C895 C914 1.368 . S
C895 H919 0.949 . S
H896 C900 0.949 . S
C897 C898 1.349 . S
C897 C899 1.327 . S
C897 H920 0.950 . S
C898 C897 1.349 . S
C898 C910 1.349 . S
C899 C897 1.327 . S
C899 C915 1.429 . S
C899 H921 0.950 . S
C900 H896 0.949 . S
C900 C908 1.574 . S
C900 C916 1.368 . S
H901 C909 0.950 . S
H902 C907 0.950 . S
H903 C908 0.949 . S
H904 C910 0.950 . S
H905 C911 0.950 . S
H906 C912 0.949 . S
C907 H902 0.950 . S
C907 C909 1.327 . S
C907 C913 1.429 . S
C908 C900 1.574 . S
C908 H903 0.949 . S
C908 C914 1.368 . S
C909 C893 1.349 . S
C909 H901 0.950 . S
C909 C907 1.327 . S
C910 C898 1.349 . S
C910 H904 0.950 . S
C910 C911 1.327 . S
C911 H905 0.950 . S
C911 C910 1.327 . S
C911 C915 1.429 . S
C912 C895 1.574 . S
C912 H906 0.949 . S
C912 C916 1.368 . S
C913 C894 1.429 . S
C913 C907 1.429 . S
C913 C914 1.523 . S
C914 C895 1.368 . S
C914 C908 1.368 . S
C914 C913 1.523 . S
C915 C899 1.429 . S
C915 C911 1.429 . S
C915 C916 1.523 . S
C916 C900 1.368 . S
C916 C912 1.368 . S
C916 C915 1.523 . S
H917 C892 0.950 . S
H918 C894 0.950 . S
H919 C895 0.949 . S
H920 C897 0.950 . S
H921 C899 0.950 . S
C922 C923 1.349 . S
C922 C924 1.327 . S
C922 H947 0.950 . S
C923 C922 1.349 . S
C923 C939 1.349 . S
C924 C922 1.327 . S
C924 C943 1.429 . S
C924 H948 0.950 . S
C925 C942 1.574 . S
C925 C944 1.368 . S
C925 H949 0.949 . S
H926 C930 0.949 . S
C927 C928 1.349 . S
C927 C929 1.327 . S
C927 H950 0.950 . S
C928 C927 1.349 . S
C928 C940 1.349 . S
C929 C927 1.327 . S
C929 C945 1.429 . S
C929 H951 0.950 . S
C930 H926 0.949 . S
C930 C938 1.574 . S
C930 C946 1.368 . S
H931 C939 0.950 . S
H932 C937 0.950 . S
H933 C938 0.949 . S
H934 C940 0.950 . S
H935 C941 0.950 . S
H936 C942 0.949 . S
C937 H932 0.950 . S
C937 C939 1.327 . S
C937 C943 1.429 . S
C938 C930 1.574 . S
C938 H933 0.949 . S
C938 C944 1.368 . S
C939 C923 1.349 . S
C939 H931 0.950 . S
C939 C937 1.327 . S
C940 C928 1.349 . S
C940 H934 0.950 . S
C940 C941 1.327 . S
C941 H935 0.950 . S
C941 C940 1.327 . S
C941 C945 1.429 . S
C942 C925 1.574 . S
C942 H936 0.949 . S
C942 C946 1.368 . S
C943 C924 1.429 . S
C943 C937 1.429 . S
C943 C944 1.523 . S
C944 C925 1.368 . S
C944 C938 1.368 . S
C944 C943 1.523 . S
C945 C929 1.429 . S
C945 C941 1.429 . S
C945 C946 1.523 . S
C946 C930 1.368 . S
C946 C942 1.368 . S
C946 C945 1.523 . S
H947 C922 0.950 . S
H948 C924 0.950 . S
H949 C925 0.949 . S
H950 C927 0.950 . S
H951 C929 0.950 . S
C952 C953 1.349 . S
C952 C954 1.327 . S
C952 H977 0.950 . S
C953 C952 1.349 . S
C953 C969 1.349 . S
C954 C952 1.327 . S
C954 C973 1.429 . S
C954 H978 0.950 . S
C955 C972 1.574 . S
C955 C974 1.368 . S
C955 H979 0.949 . S
H956 C960 0.949 . S
C957 C958 1.349 . S
C957 C959 1.327 . S
C957 H980 0.950 . S
C958 C957 1.349 . S
C958 C970 1.349 . S
C959 C957 1.327 . S
C959 C975 1.429 . S
C959 H981 0.950 . S
C960 H956 0.949 . S
C960 C968 1.574 . S
C960 C976 1.368 . S
H961 C969 0.950 . S
H962 C967 0.950 . S
H963 C968 0.949 . S
H964 C970 0.950 . S
H965 C971 0.950 . S
H966 C972 0.949 . S
C967 H962 0.950 . S
C967 C969 1.327 . S
C967 C973 1.429 . S
C968 C960 1.574 . S
C968 H963 0.949 . S
C968 C974 1.368 . S
C969 C953 1.349 . S
C969 H961 0.950 . S
C969 C967 1.327 . S
C970 C958 1.349 . S
C970 H964 0.950 . S
C970 C971 1.327 . S
C971 H965 0.950 . S
C971 C970 1.327 . S
C971 C975 1.429 . S
C972 C955 1.574 . S
C972 H966 0.949 . S
C972 C976 1.368 . S
C973 C954 1.429 . S
C973 C967 1.429 . S
C973 C974 1.523 . S
C974 C955 1.368 . S
C974 C968 1.368 . S
C974 C973 1.523 . S
C975 C959 1.429 . S
C975 C971 1.429 . S
C975 C976 1.523 . S
C976 C960 1.368 . S
C976 C972 1.368 . S
C976 C975 1.523 . S
H977 C952 0.950 . S
H978 C954 0.950 . S
H979 C955 0.949 . S
H980 C957 0.950 . S
H981 C959 0.950 . S
C982 C983 1.349 . S
C982 C984 1.327 . S
C982 H1007 0.950 . S
C983 C982 1.349 . S
C983 C999 1.349 . S
C984 C982 1.327 . S
C984 C1003 1.429 . S
C984 H1008 0.950 . S
C985 C1002 1.574 . S
C985 C1004 1.368 . S
C985 H1009 0.949 . S
H986 C990 0.949 . S
C987 C988 1.349 . S
C987 C989 1.327 . S
C987 H1010 0.950 . S
C988 C987 1.349 . S
C988 C1000 1.349 . S
C989 C987 1.327 . S
C989 C1005 1.429 . S
C989 H1011 0.950 . S
C990 H986 0.949 . S
C990 C998 1.574 . S
C990 C1006 1.368 . S
H991 C999 0.950 . S
H992 C997 0.950 . S
H993 C998 0.949 . S
H994 C1000 0.950 . S
H995 C1001 0.950 . S
H996 C1002 0.949 . S
C997 H992 0.950 . S
C997 C999 1.327 . S
C997 C1003 1.429 . S
C998 C990 1.574 . S
C998 H993 0.949 . S
C998 C1004 1.368 . S
C999 C983 1.349 . S
C999 H991 0.950 . S
C999 C997 1.327 . S
C1000 C988 1.349 . S
C1000 H994 0.950 . S
C1000 C1001 1.327 . S
C1001 H995 0.950 . S
C1001 C1000 1.327 . S
C1001 C1005 1.429 . S
C1002 C985 1.574 . S
C1002 H996 0.949 . S
C1002 C1006 1.368 . S
C1003 C984 1.429 . S
C1003 C997 1.429 . S
C1003 C1004 1.523 . S
C1004 C985 1.368 . S
C1004 C998 1.368 . S
C1004 C1003 1.523 . S
C1005 C989 1.429 . S
C1005 C1001 1.429 . S
C1005 C1006 1.523 . S
C1006 C990 1.368 . S
C1006 C1002 1.368 . S
C1006 C1005 1.523 . S
H1007 C982 0.950 . S
H1008 C984 0.950 . S
H1009 C985 0.949 . S
H1010 C987 0.950 . S
H1011 C989 0.950 . S
C1012 C1013 1.349 . S
C1012 C1014 1.327 . S
C1012 H1037 0.950 . S
C1013 C1012 1.349 . S
C1013 C1029 1.349 . S
C1014 C1012 1.327 . S
C1014 C1033 1.429 . S
C1014 H1038 0.950 . S
C1015 C1032 1.574 . S
C1015 C1034 1.368 . S
C1015 H1039 0.949 . S
H1016 C1020 0.949 . S
C1017 C1018 1.349 . S
C1017 C1019 1.327 . S
C1017 H1040 0.950 . S
C1018 C1017 1.349 . S
C1018 C1030 1.349 . S
C1019 C1017 1.327 . S
C1019 C1035 1.429 . S
C1019 H1041 0.950 . S
C1020 H1016 0.949 . S
C1020 C1028 1.574 . S
C1020 C1036 1.368 . S
H1021 C1029 0.950 . S
H1022 C1027 0.950 . S
H1023 C1028 0.949 . S
H1024 C1030 0.950 . S
H1025 C1031 0.950 . S
H1026 C1032 0.949 . S
C1027 H1022 0.950 . S
C1027 C1029 1.327 . S
C1027 C1033 1.429 . S
C1028 C1020 1.574 . S
C1028 H1023 0.949 . S
C1028 C1034 1.368 . S
C1029 C1013 1.349 . S
C1029 H1021 0.950 . S
C1029 C1027 1.327 . S
C1030 C1018 1.349 . S
C1030 H1024 0.950 . S
C1030 C1031 1.327 . S
C1031 H1025 0.950 . S
C1031 C1030 1.327 . S
C1031 C1035 1.429 . S
C1032 C1015 1.574 . S
C1032 H1026 0.949 . S
C1032 C1036 1.368 . S
C1033 C1014 1.429 . S
C1033 C1027 1.429 . S
C1033 C1034 1.523 . S
C1034 C1015 1.368 . S
C1034 C1028 1.368 . S
C1034 C1033 1.523 . S
C1035 C1019 1.429 . S
C1035 C1031 1.429 . S
C1035 C1036 1.523 . S
C1036 C1020 1.368 . S
C1036 C1032 1.368 . S
C1036 C1035 1.523 . S
H1037 C1012 0.950 . S
H1038 C1014 0.950 . S
H1039 C1015 0.949 . S
H1040 C1017 0.950 . S
H1041 C1019 0.950 . S
C1042 C1043 1.349 . S
C1042 C1044 1.327 . S
C1042 H1067 0.950 . S
C1043 C1042 1.349 . S
C1043 C1059 1.349 . S
C1044 C1042 1.327 . S
C1044 C1063 1.429 . S
C1044 H1068 0.950 . S
C1045 C1062 1.574 . S
C1045 C1064 1.368 . S
C1045 H1069 0.949 . S
H1046 C1050 0.949 . S
C1047 C1048 1.349 . S
C1047 C1049 1.327 . S
C1047 H1070 0.950 . S
C1048 C1047 1.349 . S
C1048 C1060 1.349 . S
C1049 C1047 1.327 . S
C1049 C1065 1.429 . S
C1049 H1071 0.950 . S
C1050 H1046 0.949 . S
C1050 C1058 1.574 . S
C1050 C1066 1.368 . S
H1051 C1059 0.950 . S
H1052 C1057 0.950 . S
H1053 C1058 0.949 . S
H1054 C1060 0.950 . S
H1055 C1061 0.950 . S
H1056 C1062 0.949 . S
C1057 H1052 0.950 . S
C1057 C1059 1.327 . S
C1057 C1063 1.429 . S
C1058 C1050 1.574 . S
C1058 H1053 0.949 . S
C1058 C1064 1.368 . S
C1059 C1043 1.349 . S
C1059 H1051 0.950 . S
C1059 C1057 1.327 . S
C1060 C1048 1.349 . S
C1060 H1054 0.950 . S
C1060 C1061 1.327 . S
C1061 H1055 0.950 . S
C1061 C1060 1.327 . S
C1061 C1065 1.429 . S
C1062 C1045 1.574 . S
C1062 H1056 0.949 . S
C1062 C1066 1.368 . S
C1063 C1044 1.429 . S
C1063 C1057 1.429 . S
C1063 C1064 1.523 . S
C1064 C1045 1.368 . S
C1064 C1058 1.368 . S
C1064 C1063 1.523 . S
C1065 C1049 1.429 . S
C1065 C1061 1.429 . S
C1065 C1066 1.523 . S
C1066 C1050 1.368 . S
C1066 C1062 1.368 . S
C1066 C1065 1.523 . S
H1067 C1042 0.950 . S
H1068 C1044 0.950 . S
H1069 C1045 0.949 . S
H1070 C1047 0.950 . S
H1071 C1049 0.950 . S
C1072 C1073 1.349 . S
C1072 C1074 1.327 . S
C1072 H1097 0.950 . S
C1073 C1072 1.349 . S
C1073 C1089 1.349 . S
C1074 C1072 1.327 . S
C1074 C1093 1.429 . S
C1074 H1098 0.950 . S
C1075 C1092 1.574 . S
C1075 C1094 1.368 . S
C1075 H1099 0.949 . S
H1076 C1080 0.949 . S
C1077 C1078 1.349 . S
C1077 C1079 1.327 . S
C1077 H1100 0.950 . S
C1078 C1077 1.349 . S
C1078 C1090 1.349 . S
C1079 C1077 1.327 . S
C1079 C1095 1.429 . S
C1079 H1101 0.950 . S
C1080 H1076 0.949 . S
C1080 C1088 1.574 . S
C1080 C1096 1.368 . S
H1081 C1089 0.950 . S
H1082 C1087 0.950 . S
H1083 C1088 0.949 . S
H1084 C1090 0.950 . S
H1085 C1091 0.950 . S
H1086 C1092 0.949 . S
C1087 H1082 0.950 . S
C1087 C1089 1.327 . S
C1087 C1093 1.429 . S
C1088 C1080 1.574 . S
C1088 H1083 0.949 . S
C1088 C1094 1.368 . S
C1089 C1073 1.349 . S
C1089 H1081 0.950 . S
C1089 C1087 1.327 . S
C1090 C1078 1.349 . S
C1090 H1084 0.950 . S
C1090 C1091 1.327 . S
C1091 H1085 0.950 . S
C1091 C1090 1.327 . S
C1091 C1095 1.429 . S
C1092 C1075 1.574 . S
C1092 H1086 0.949 . S
C1092 C1096 1.368 . S
C1093 C1074 1.429 . S
C1093 C1087 1.429 . S
C1093 C1094 1.523 . S
C1094 C1075 1.368 . S
C1094 C1088 1.368 . S
C1094 C1093 1.523 . S
C1095 C1079 1.429 . S
C1095 C1091 1.429 . S
C1095 C1096 1.523 . S
C1096 C1080 1.368 . S
C1096 C1092 1.368 . S
C1096 C1095 1.523 . S
H1097 C1072 0.950 . S
H1098 C1074 0.950 . S
H1099 C1075 0.949 . S
H1100 C1077 0.950 . S
H1101 C1079 0.950 . S
C1102 C1103 1.349 . S
C1102 C1104 1.327 . S
C1102 H1127 0.950 . S
C1103 C1102 1.349 . S
C1103 C1119 1.349 . S
C1104 C1102 1.327 . S
C1104 C1123 1.429 . S
C1104 H1128 0.950 . S
C1105 C1122 1.574 1_455 S
C1105 C1124 1.368 . S
C1105 H1129 0.949 . S
H1106 C1110 0.949 . S
C1107 C1108 1.349 . S
C1107 C1109 1.327 . S
C1107 H1130 0.950 . S
C1108 C1107 1.349 . S
C1108 C1120 1.349 . S
C1109 C1107 1.327 . S
C1109 C1125 1.429 . S
C1109 H1131 0.950 . S
C1110 H1106 0.949 . S
C1110 C1118 1.574 1_655 S
C1110 C1126 1.368 . S
H1111 C1119 0.950 . S
H1112 C1117 0.950 . S
H1113 C1118 0.949 . S
H1114 C1120 0.950 . S
H1115 C1121 0.950 . S
H1116 C1122 0.949 . S
C1117 H1112 0.950 . S
C1117 C1119 1.327 . S
C1117 C1123 1.429 . S
C1118 C1110 1.574 1_455 S
C1118 H1113 0.949 . S
C1118 C1124 1.368 . S
C1119 C1103 1.349 . S
C1119 H1111 0.950 . S
C1119 C1117 1.327 . S
C1120 C1108 1.349 . S
C1120 H1114 0.950 . S
C1120 C1121 1.327 . S
C1121 H1115 0.950 . S
C1121 C1120 1.327 . S
C1121 C1125 1.429 . S
C1122 C1105 1.574 1_655 S
C1122 H1116 0.949 . S
C1122 C1126 1.368 . S
C1123 C1104 1.429 . S
C1123 C1117 1.429 . S
C1123 C1124 1.523 . S
C1124 C1105 1.368 . S
C1124 C1118 1.368 . S
C1124 C1123 1.523 . S
C1125 C1109 1.429 . S
C1125 C1121 1.429 . S
C1125 C1126 1.523 . S
C1126 C1110 1.368 . S
C1126 C1122 1.368 . S
C1126 C1125 1.523 . S
H1127 C1102 0.950 . S
H1128 C1104 0.950 . S
H1129 C1105 0.949 . S
H1130 C1107 0.950 . S
H1131 C1109 0.950 . S
C1132 C1133 1.349 . S
C1132 C1134 1.327 . S
C1132 H1157 0.950 . S
C1133 C1132 1.349 . S
C1133 C1149 1.349 . S
C1134 C1132 1.327 . S
C1134 C1153 1.429 . S
C1134 H1158 0.950 . S
C1135 C1152 1.574 . S
C1135 C1154 1.368 . S
C1135 H1159 0.949 . S
H1136 C1140 0.949 . S
C1137 C1138 1.349 . S
C1137 C1139 1.327 . S
C1137 H1160 0.950 . S
C1138 C1137 1.349 . S
C1138 C1150 1.349 . S
C1139 C1137 1.327 . S
C1139 C1155 1.429 . S
C1139 H1161 0.950 . S
C1140 H1136 0.949 . S
C1140 C1148 1.574 . S
C1140 C1156 1.368 . S
H1141 C1149 0.950 . S
H1142 C1147 0.950 . S
H1143 C1148 0.949 . S
H1144 C1150 0.950 . S
H1145 C1151 0.950 . S
H1146 C1152 0.949 . S
C1147 H1142 0.950 . S
C1147 C1149 1.327 . S
C1147 C1153 1.429 . S
C1148 C1140 1.574 . S
C1148 H1143 0.949 . S
C1148 C1154 1.368 . S
C1149 C1133 1.349 . S
C1149 H1141 0.950 . S
C1149 C1147 1.327 . S
C1150 C1138 1.349 . S
C1150 H1144 0.950 . S
C1150 C1151 1.327 . S
C1151 H1145 0.950 . S
C1151 C1150 1.327 . S
C1151 C1155 1.429 . S
C1152 C1135 1.574 . S
C1152 H1146 0.949 . S
C1152 C1156 1.368 . S
C1153 C1134 1.429 . S
C1153 C1147 1.429 . S
C1153 C1154 1.523 . S
C1154 C1135 1.368 . S
C1154 C1148 1.368 . S
C1154 C1153 1.523 . S
C1155 C1139 1.429 . S
C1155 C1151 1.429 . S
C1155 C1156 1.523 . S
C1156 C1140 1.368 . S
C1156 C1152 1.368 . S
C1156 C1155 1.523 . S
H1157 C1132 0.950 . S
H1158 C1134 0.950 . S
H1159 C1135 0.949 . S
H1160 C1137 0.950 . S
H1161 C1139 0.950 . S
C1162 C1163 1.349 . S
C1162 C1164 1.327 . S
C1162 H1187 0.950 . S
C1163 C1162 1.349 . S
C1163 C1179 1.349 . S
C1164 C1162 1.327 . S
C1164 C1183 1.429 . S
C1164 H1188 0.950 . S
C1165 C1182 1.574 1_655 S
C1165 C1184 1.368 . S
C1165 H1189 0.949 . S
H1166 C1170 0.949 . S
C1167 C1168 1.349 . S
C1167 C1169 1.327 . S
C1167 H1190 0.950 . S
C1168 C1167 1.349 . S
C1168 C1180 1.349 . S
C1169 C1167 1.327 . S
C1169 C1185 1.429 . S
C1169 H1191 0.950 . S
C1170 H1166 0.949 . S
C1170 C1178 1.574 1_455 S
C1170 C1186 1.368 . S
H1171 C1179 0.950 . S
H1172 C1177 0.950 . S
H1173 C1178 0.949 . S
H1174 C1180 0.950 . S
H1175 C1181 0.950 . S
H1176 C1182 0.949 . S
C1177 H1172 0.950 . S
C1177 C1179 1.327 . S
C1177 C1183 1.429 . S
C1178 C1170 1.574 1_655 S
C1178 H1173 0.949 . S
C1178 C1184 1.368 . S
C1179 C1163 1.349 . S
C1179 H1171 0.950 . S
C1179 C1177 1.327 . S
C1180 C1168 1.349 . S
C1180 H1174 0.950 . S
C1180 C1181 1.327 . S
C1181 H1175 0.950 . S
C1181 C1180 1.327 . S
C1181 C1185 1.429 . S
C1182 C1165 1.574 1_455 S
C1182 H1176 0.949 . S
C1182 C1186 1.368 . S
C1183 C1164 1.429 . S
C1183 C1177 1.429 . S
C1183 C1184 1.523 . S
C1184 C1165 1.368 . S
C1184 C1178 1.368 . S
C1184 C1183 1.523 . S
C1185 C1169 1.429 . S
C1185 C1181 1.429 . S
C1185 C1186 1.523 . S
C1186 C1170 1.368 . S
C1186 C1182 1.368 . S
C1186 C1185 1.523 . S
H1187 C1162 0.950 . S
H1188 C1164 0.950 . S
H1189 C1165 0.949 . S
H1190 C1167 0.950 . S
H1191 C1169 0.950 . S
C1192 C1193 1.349 . S
C1192 C1194 1.327 . S
C1192 H1217 0.950 . S
C1193 C1192 1.349 . S
C1193 C1209 1.349 . S
C1194 C1192 1.327 . S
C1194 C1213 1.429 . S
C1194 H1218 0.950 . S
C1195 C1212 1.574 1_655 S
C1195 C1214 1.368 . S
C1195 H1219 0.949 . S
H1196 C1200 0.949 . S
C1197 C1198 1.349 . S
C1197 C1199 1.327 . S
C1197 H1220 0.950 . S
C1198 C1197 1.349 . S
C1198 C1210 1.349 . S
C1199 C1197 1.327 . S
C1199 C1215 1.429 . S
C1199 H1221 0.950 . S
C1200 H1196 0.949 . S
C1200 C1208 1.574 1_455 S
C1200 C1216 1.368 . S
H1201 C1209 0.950 . S
H1202 C1207 0.950 . S
H1203 C1208 0.949 . S
H1204 C1210 0.950 . S
H1205 C1211 0.950 . S
H1206 C1212 0.949 . S
C1207 H1202 0.950 . S
C1207 C1209 1.327 . S
C1207 C1213 1.429 . S
C1208 C1200 1.574 1_655 S
C1208 H1203 0.949 . S
C1208 C1214 1.368 . S
C1209 C1193 1.349 . S
C1209 H1201 0.950 . S
C1209 C1207 1.327 . S
C1210 C1198 1.349 . S
C1210 H1204 0.950 . S
C1210 C1211 1.327 . S
C1211 H1205 0.950 . S
C1211 C1210 1.327 . S
C1211 C1215 1.429 . S
C1212 C1195 1.574 1_455 S
C1212 H1206 0.949 . S
C1212 C1216 1.368 . S
C1213 C1194 1.429 . S
C1213 C1207 1.429 . S
C1213 C1214 1.523 . S
C1214 C1195 1.368 . S
C1214 C1208 1.368 . S
C1214 C1213 1.523 . S
C1215 C1199 1.429 . S
C1215 C1211 1.429 . S
C1215 C1216 1.523 . S
C1216 C1200 1.368 . S
C1216 C1212 1.368 . S
C1216 C1215 1.523 . S
H1217 C1192 0.950 . S
H1218 C1194 0.950 . S
H1219 C1195 0.949 . S
H1220 C1197 0.950 . S
H1221 C1199 0.950 . S
C1222 C1223 1.349 . S
C1222 C1224 1.327 . S
C1222 H1247 0.950 . S
C1223 C1222 1.349 . S
C1223 C1239 1.349 . S
C1224 C1222 1.327 . S
C1224 C1243 1.429 . S
C1224 H1248 0.950 . S
C1225 C1242 1.574 . S
C1225 C1244 1.368 . S
C1225 H1249 0.949 . S
H1226 C1230 0.949 . S
C1227 C1228 1.349 . S
C1227 C1229 1.327 . S
C1227 H1250 0.950 . S
C1228 C1227 1.349 . S
C1228 C1240 1.349 . S
C1229 C1227 1.327 . S
C1229 C1245 1.429 . S
C1229 H1251 0.950 . S
C1230 H1226 0.949 . S
C1230 C1238 1.574 . S
C1230 C1246 1.368 . S
H1231 C1239 0.950 . S
H1232 C1237 0.950 . S
H1233 C1238 0.949 . S
H1234 C1240 0.950 . S
H1235 C1241 0.950 . S
H1236 C1242 0.949 . S
C1237 H1232 0.950 . S
C1237 C1239 1.327 . S
C1237 C1243 1.429 . S
C1238 C1230 1.574 . S
C1238 H1233 0.949 . S
C1238 C1244 1.368 . S
C1239 C1223 1.349 . S
C1239 H1231 0.950 . S
C1239 C1237 1.327 . S
C1240 C1228 1.349 . S
C1240 H1234 0.950 . S
C1240 C1241 1.327 . S
C1241 H1235 0.950 . S
C1241 C1240 1.327 . S
C1241 C1245 1.429 . S
C1242 C1225 1.574 . S
C1242 H1236 0.949 . S
C1242 C1246 1.368 . S
C1243 C1224 1.429 . S
C1243 C1237 1.429 . S
C1243 C1244 1.523 . S
C1244 C1225 1.368 . S
C1244 C1238 1.368 . S
C1244 C1243 1.523 . S
C1245 C1229 1.429 . S
C1245 C1241 1.429 . S
C1245 C1246 1.523 . S
C1246 C1230 1.368 . S
C1246 C1242 1.368 . S
C1246 C1245 1.523 . S
H1247 C1222 0.950 . S
H1248 C1224 0.950 . S
H1249 C1225 0.949 . S
H1250 C1227 0.950 . S
H1251 C1229 0.950 . S
C1252 C1253 1.349 . S
C1252 C1254 1.327 . S
C1252 H1277 0.950 . S
C1253 C1252 1.349 . S
C1253 C1269 1.349 . S
C1254 C1252 1.327 . S
C1254 C1273 1.429 . S
C1254 H1278 0.950 . S
C1255 C1272 1.574 1_455 S
C1255 C1274 1.368 . S
C1255 H1279 0.949 . S
H1256 C1260 0.949 . S
C1257 C1258 1.349 . S
C1257 C1259 1.327 . S
C1257 H1280 0.950 . S
C1258 C1257 1.349 . S
C1258 C1270 1.349 . S
C1259 C1257 1.327 . S
C1259 C1275 1.429 . S
C1259 H1281 0.950 . S
C1260 H1256 0.949 . S
C1260 C1268 1.574 1_655 S
C1260 C1276 1.368 . S
H1261 C1269 0.950 . S
H1262 C1267 0.950 . S
H1263 C1268 0.949 . S
H1264 C1270 0.950 . S
H1265 C1271 0.950 . S
H1266 C1272 0.949 . S
C1267 H1262 0.950 . S
C1267 C1269 1.327 . S
C1267 C1273 1.429 . S
C1268 C1260 1.574 1_455 S
C1268 H1263 0.949 . S
C1268 C1274 1.368 . S
C1269 C1253 1.349 . S
C1269 H1261 0.950 . S
C1269 C1267 1.327 . S
C1270 C1258 1.349 . S
C1270 H1264 0.950 . S
C1270 C1271 1.327 . S
C1271 H1265 0.950 . S
C1271 C1270 1.327 . S
C1271 C1275 1.429 . S
C1272 C1255 1.574 1_655 S
C1272 H1266 0.949 . S
C1272 C1276 1.368 . S
C1273 C1254 1.429 . S
C1273 C1267 1.429 . S
C1273 C1274 1.523 . S
C1274 C1255 1.368 . S
C1274 C1268 1.368 . S
C1274 C1273 1.523 . S
C1275 C1259 1.429 . S
C1275 C1271 1.429 . S
C1275 C1276 1.523 . S
C1276 C1260 1.368 . S
C1276 C1272 1.368 . S
C1276 C1275 1.523 . S
H1277 C1252 0.950 . S
H1278 C1254 0.950 . S
H1279 C1255 0.949 . S
H1280 C1257 0.950 . S
H1281 C1259 0.950 . S
C1282 C1283 1.349 . S
C1282 C1284 1.327 . S
C1282 H1307 0.950 . S
C1283 C1282 1.349 . S
C1283 C1299 1.349 . S
C1284 C1282 1.327 . S
C1284 C1303 1.429 . S
C1284 H1308 0.950 . S
C1285 C1302 1.574 . S
C1285 C1304 1.368 . S
C1285 H1309 0.949 . S
H1286 C1290 0.949 . S
C1287 C1288 1.349 . S
C1287 C1289 1.327 . S
C1287 H1310 0.950 . S
C1288 C1287 1.349 . S
C1288 C1300 1.349 . S
C1289 C1287 1.327 . S
C1289 C1305 1.429 . S
C1289 H1311 0.950 . S
C1290 H1286 0.949 . S
C1290 C1298 1.574 . S
C1290 C1306 1.368 . S
H1291 C1299 0.950 . S
H1292 C1297 0.950 . S
H1293 C1298 0.949 . S
H1294 C1300 0.950 . S
H1295 C1301 0.950 . S
H1296 C1302 0.949 . S
C1297 H1292 0.950 . S
C1297 C1299 1.327 . S
C1297 C1303 1.429 . S
C1298 C1290 1.574 . S
C1298 H1293 0.949 . S
C1298 C1304 1.368 . S
C1299 C1283 1.349 . S
C1299 H1291 0.950 . S
C1299 C1297 1.327 . S
C1300 C1288 1.349 . S
C1300 H1294 0.950 . S
C1300 C1301 1.327 . S
C1301 H1295 0.950 . S
C1301 C1300 1.327 . S
C1301 C1305 1.429 . S
C1302 C1285 1.574 . S
C1302 H1296 0.949 . S
C1302 C1306 1.368 . S
C1303 C1284 1.429 . S
C1303 C1297 1.429 . S
C1303 C1304 1.523 . S
C1304 C1285 1.368 . S
C1304 C1298 1.368 . S
C1304 C1303 1.523 . S
C1305 C1289 1.429 . S
C1305 C1301 1.429 . S
C1305 C1306 1.523 . S
C1306 C1290 1.368 . S
C1306 C1302 1.368 . S
C1306 C1305 1.523 . S
H1307 C1282 0.950 . S
H1308 C1284 0.950 . S
H1309 C1285 0.949 . S
H1310 C1287 0.950 . S
H1311 C1289 0.950 . S
C1312 C1313 1.349 . S
C1312 C1314 1.327 . S
C1312 H1337 0.950 . S
C1313 C1312 1.349 . S
C1313 C1329 1.349 . S
C1314 C1312 1.327 . S
C1314 C1333 1.429 . S
C1314 H1338 0.950 . S
C1315 C1332 1.574 . S
C1315 C1334 1.368 . S
C1315 H1339 0.949 . S
H1316 C1320 0.949 . S
C1317 C1318 1.349 . S
C1317 C1319 1.327 . S
C1317 H1340 0.950 . S
C1318 C1317 1.349 . S
C1318 C1330 1.349 . S
C1319 C1317 1.327 . S
C1319 C1335 1.429 . S
C1319 H1341 0.950 . S
C1320 H1316 0.949 . S
C1320 C1328 1.574 . S
C1320 C1336 1.368 . S
H1321 C1329 0.950 . S
H1322 C1327 0.950 . S
H1323 C1328 0.949 . S
H1324 C1330 0.950 . S
H1325 C1331 0.950 . S
H1326 C1332 0.949 . S
C1327 H1322 0.950 . S
C1327 C1329 1.327 . S
C1327 C1333 1.429 . S
C1328 C1320 1.574 . S
C1328 H1323 0.949 . S
C1328 C1334 1.368 . S
C1329 C1313 1.349 . S
C1329 H1321 0.950 . S
C1329 C1327 1.327 . S
C1330 C1318 1.349 . S
C1330 H1324 0.950 . S
C1330 C1331 1.327 . S
C1331 H1325 0.950 . S
C1331 C1330 1.327 . S
C1331 C1335 1.429 . S
C1332 C1315 1.574 . S
C1332 H1326 0.949 . S
C1332 C1336 1.368 . S
C1333 C1314 1.429 . S
C1333 C1327 1.429 . S
C1333 C1334 1.523 1_545 S
C1334 C1315 1.368 . S
C1334 C1328 1.368 . S
C1334 C1333 1.523 1_565 S
C1335 C1319 1.429 . S
C1335 C1331 1.429 . S
C1335 C1336 1.523 . S
C1336 C1320 1.368 . S
C1336 C1332 1.368 . S
C1336 C1335 1.523 . S
H1337 C1312 0.950 . S
H1338 C1314 0.950 . S
H1339 C1315 0.949 . S
H1340 C1317 0.950 . S
H1341 C1319 0.950 . S
C1342 C1343 1.349 . S
C1342 C1344 1.327 . S
C1342 H1367 0.950 . S
C1343 C1342 1.349 . S
C1343 C1359 1.349 . S
C1344 C1342 1.327 . S
C1344 C1363 1.429 . S
C1344 H1368 0.950 . S
C1345 C1362 1.574 . S
C1345 C1364 1.368 . S
C1345 H1369 0.949 . S
H1346 C1350 0.949 . S
C1347 C1348 1.349 . S
C1347 C1349 1.327 . S
C1347 H1370 0.950 . S
C1348 C1347 1.349 . S
C1348 C1360 1.349 . S
C1349 C1347 1.327 . S
C1349 C1365 1.429 . S
C1349 H1371 0.950 . S
C1350 H1346 0.949 . S
C1350 C1358 1.574 . S
C1350 C1366 1.368 . S
H1351 C1359 0.950 . S
H1352 C1357 0.950 . S
H1353 C1358 0.949 . S
H1354 C1360 0.950 . S
H1355 C1361 0.950 . S
H1356 C1362 0.949 . S
C1357 H1352 0.950 . S
C1357 C1359 1.327 . S
C1357 C1363 1.429 . S
C1358 C1350 1.574 . S
C1358 H1353 0.949 . S
C1358 C1364 1.368 . S
C1359 C1343 1.349 . S
C1359 H1351 0.950 . S
C1359 C1357 1.327 . S
C1360 C1348 1.349 . S
C1360 H1354 0.950 . S
C1360 C1361 1.327 . S
C1361 H1355 0.950 . S
C1361 C1360 1.327 . S
C1361 C1365 1.429 . S
C1362 C1345 1.574 . S
C1362 H1356 0.949 . S
C1362 C1366 1.368 . S
C1363 C1344 1.429 . S
C1363 C1357 1.429 . S
C1363 C1364 1.523 1_565 S
C1364 C1345 1.368 . S
C1364 C1358 1.368 . S
C1364 C1363 1.523 1_545 S
C1365 C1349 1.429 . S
C1365 C1361 1.429 . S
C1365 C1366 1.523 . S
C1366 C1350 1.368 . S
C1366 C1362 1.368 . S
C1366 C1365 1.523 . S
H1367 C1342 0.950 . S
H1368 C1344 0.950 . S
H1369 C1345 0.949 . S
H1370 C1347 0.950 . S
H1371 C1349 0.950 . S
C1372 C1373 1.349 . S
C1372 C1374 1.327 . S
C1372 H1397 0.950 . S
C1373 C1372 1.349 . S
C1373 C1389 1.349 . S
C1374 C1372 1.327 . S
C1374 C1393 1.429 . S
C1374 H1398 0.950 . S
C1375 C1392 1.574 . S
C1375 C1394 1.368 . S
C1375 H1399 0.949 . S
H1376 C1380 0.949 . S
C1377 C1378 1.349 . S
C1377 C1379 1.327 . S
C1377 H1400 0.950 . S
C1378 C1377 1.349 . S
C1378 C1390 1.349 . S
C1379 C1377 1.327 . S
C1379 C1395 1.429 . S
C1379 H1401 0.950 . S
C1380 H1376 0.949 . S
C1380 C1388 1.574 . S
C1380 C1396 1.368 . S
H1381 C1389 0.950 . S
H1382 C1387 0.950 . S
H1383 C1388 0.949 . S
H1384 C1390 0.950 . S
H1385 C1391 0.950 . S
H1386 C1392 0.949 . S
C1387 H1382 0.950 . S
C1387 C1389 1.327 . S
C1387 C1393 1.429 . S
C1388 C1380 1.574 . S
C1388 H1383 0.949 . S
C1388 C1394 1.368 . S
C1389 C1373 1.349 . S
C1389 H1381 0.950 . S
C1389 C1387 1.327 . S
C1390 C1378 1.349 . S
C1390 H1384 0.950 . S
C1390 C1391 1.327 . S
C1391 H1385 0.950 . S
C1391 C1390 1.327 . S
C1391 C1395 1.429 . S
C1392 C1375 1.574 . S
C1392 H1386 0.949 . S
C1392 C1396 1.368 . S
C1393 C1374 1.429 . S
C1393 C1387 1.429 . S
C1393 C1394 1.523 . S
C1394 C1375 1.368 . S
C1394 C1388 1.368 . S
C1394 C1393 1.523 . S
C1395 C1379 1.429 . S
C1395 C1391 1.429 . S
C1395 C1396 1.523 1_565 S
C1396 C1380 1.368 . S
C1396 C1392 1.368 . S
C1396 C1395 1.523 1_545 S
H1397 C1372 0.950 . S
H1398 C1374 0.950 . S
H1399 C1375 0.949 . S
H1400 C1377 0.950 . S
H1401 C1379 0.950 . S
C1402 C1403 1.349 . S
C1402 C1404 1.327 . S
C1402 H1427 0.950 . S
C1403 C1402 1.349 . S
C1403 C1419 1.349 . S
C1404 C1402 1.327 . S
C1404 C1423 1.429 . S
C1404 H1428 0.950 . S
C1405 C1422 1.574 . S
C1405 C1424 1.368 . S
C1405 H1429 0.949 . S
H1406 C1410 0.949 . S
C1407 C1408 1.349 . S
C1407 C1409 1.327 . S
C1407 H1430 0.950 . S
C1408 C1407 1.349 . S
C1408 C1420 1.349 . S
C1409 C1407 1.327 . S
C1409 C1425 1.429 . S
C1409 H1431 0.950 . S
C1410 H1406 0.949 . S
C1410 C1418 1.574 . S
C1410 C1426 1.368 . S
H1411 C1419 0.950 . S
H1412 C1417 0.950 . S
H1413 C1418 0.949 . S
H1414 C1420 0.950 . S
H1415 C1421 0.950 . S
H1416 C1422 0.949 . S
C1417 H1412 0.950 . S
C1417 C1419 1.327 . S
C1417 C1423 1.429 . S
C1418 C1410 1.574 . S
C1418 H1413 0.949 . S
C1418 C1424 1.368 . S
C1419 C1403 1.349 . S
C1419 H1411 0.950 . S
C1419 C1417 1.327 . S
C1420 C1408 1.349 . S
C1420 H1414 0.950 . S
C1420 C1421 1.327 . S
C1421 H1415 0.950 . S
C1421 C1420 1.327 . S
C1421 C1425 1.429 . S
C1422 C1405 1.574 . S
C1422 H1416 0.949 . S
C1422 C1426 1.368 . S
C1423 C1404 1.429 . S
C1423 C1417 1.429 . S
C1423 C1424 1.523 . S
C1424 C1405 1.368 . S
C1424 C1418 1.368 . S
C1424 C1423 1.523 . S
C1425 C1409 1.429 . S
C1425 C1421 1.429 . S
C1425 C1426 1.523 1_545 S
C1426 C1410 1.368 . S
C1426 C1422 1.368 . S
C1426 C1425 1.523 1_565 S
H1427 C1402 0.950 . S
H1428 C1404 0.950 . S
H1429 C1405 0.949 . S
H1430 C1407 0.950 . S
H1431 C1409 0.950 . S
C1432 C1433 1.349 . S
C1432 C1434 1.327 . S
C1432 H1457 0.950 . S
C1433 C1432 1.349 . S
C1433 C1449 1.349 . S
C1434 C1432 1.327 . S
C1434 C1453 1.429 . S
C1434 H1458 0.950 . S
C1435 C1452 1.574 . S
C1435 C1454 1.368 . S
C1435 H1459 0.949 . S
H1436 C1440 0.949 . S
C1437 C1438 1.349 . S
C1437 C1439 1.327 . S
C1437 H1460 0.950 . S
C1438 C1437 1.349 . S
C1438 C1450 1.349 . S
C1439 C1437 1.327 . S
C1439 C1455 1.429 . S
C1439 H1461 0.950 . S
C1440 H1436 0.949 . S
C1440 C1448 1.574 . S
C1440 C1456 1.368 . S
H1441 C1449 0.950 . S
H1442 C1447 0.950 . S
H1443 C1448 0.949 . S
H1444 C1450 0.950 . S
H1445 C1451 0.950 . S
H1446 C1452 0.949 . S
C1447 H1442 0.950 . S
C1447 C1449 1.327 . S
C1447 C1453 1.429 . S
C1448 C1440 1.574 . S
C1448 H1443 0.949 . S
C1448 C1454 1.368 . S
C1449 C1433 1.349 . S
C1449 H1441 0.950 . S
C1449 C1447 1.327 . S
C1450 C1438 1.349 . S
C1450 H1444 0.950 . S
C1450 C1451 1.327 . S
C1451 H1445 0.950 . S
C1451 C1450 1.327 . S
C1451 C1455 1.429 . S
C1452 C1435 1.574 . S
C1452 H1446 0.949 . S
C1452 C1456 1.368 . S
C1453 C1434 1.429 . S
C1453 C1447 1.429 . S
C1453 C1454 1.523 . S
C1454 C1435 1.368 . S
C1454 C1448 1.368 . S
C1454 C1453 1.523 . S
C1455 C1439 1.429 . S
C1455 C1451 1.429 . S
C1455 C1456 1.523 1_565 S
C1456 C1440 1.368 . S
C1456 C1452 1.368 . S
C1456 C1455 1.523 1_545 S
H1457 C1432 0.950 . S
H1458 C1434 0.950 . S
H1459 C1435 0.949 . S
H1460 C1437 0.950 . S
H1461 C1439 0.950 . S
C1462 C1463 1.349 . S
C1462 C1464 1.327 . S
C1462 H1487 0.950 . S
C1463 C1462 1.349 . S
C1463 C1479 1.349 . S
C1464 C1462 1.327 . S
C1464 C1483 1.429 . S
C1464 H1488 0.950 . S
C1465 C1482 1.574 . S
C1465 C1484 1.368 . S
C1465 H1489 0.949 . S
H1466 C1470 0.949 . S
C1467 C1468 1.349 . S
C1467 C1469 1.327 . S
C1467 H1490 0.950 . S
C1468 C1467 1.349 . S
C1468 C1480 1.349 . S
C1469 C1467 1.327 . S
C1469 C1485 1.429 . S
C1469 H1491 0.950 . S
C1470 H1466 0.949 . S
C1470 C1478 1.574 . S
C1470 C1486 1.368 . S
H1471 C1479 0.950 . S
H1472 C1477 0.950 . S
H1473 C1478 0.949 . S
H1474 C1480 0.950 . S
H1475 C1481 0.950 . S
H1476 C1482 0.949 . S
C1477 H1472 0.950 . S
C1477 C1479 1.327 . S
C1477 C1483 1.429 . S
C1478 C1470 1.574 . S
C1478 H1473 0.949 . S
C1478 C1484 1.368 . S
C1479 C1463 1.349 . S
C1479 H1471 0.950 . S
C1479 C1477 1.327 . S
C1480 C1468 1.349 . S
C1480 H1474 0.950 . S
C1480 C1481 1.327 . S
C1481 H1475 0.950 . S
C1481 C1480 1.327 . S
C1481 C1485 1.429 . S
C1482 C1465 1.574 . S
C1482 H1476 0.949 . S
C1482 C1486 1.368 . S
C1483 C1464 1.429 . S
C1483 C1477 1.429 . S
C1483 C1484 1.523 1_545 S
C1484 C1465 1.368 . S
C1484 C1478 1.368 . S
C1484 C1483 1.523 1_565 S
C1485 C1469 1.429 . S
C1485 C1481 1.429 . S
C1485 C1486 1.523 . S
C1486 C1470 1.368 . S
C1486 C1482 1.368 . S
C1486 C1485 1.523 . S
H1487 C1462 0.950 . S
H1488 C1464 0.950 . S
H1489 C1465 0.949 . S
H1490 C1467 0.950 . S
H1491 C1469 0.950 . S
C1492 C1493 1.349 . S
C1492 C1494 1.327 . S
C1492 H1517 0.950 . S
C1493 C1492 1.349 . S
C1493 C1509 1.349 . S
C1494 C1492 1.327 . S
C1494 C1513 1.429 . S
C1494 H1518 0.950 . S
C1495 C1512 1.574 . S
C1495 C1514 1.368 . S
C1495 H1519 0.949 . S
H1496 C1500 0.949 . S
C1497 C1498 1.349 . S
C1497 C1499 1.327 . S
C1497 H1520 0.950 . S
C1498 C1497 1.349 . S
C1498 C1510 1.349 . S
C1499 C1497 1.327 . S
C1499 C1515 1.429 . S
C1499 H1521 0.950 . S
C1500 H1496 0.949 . S
C1500 C1508 1.574 . S
C1500 C1516 1.368 . S
H1501 C1509 0.950 . S
H1502 C1507 0.950 . S
H1503 C1508 0.949 . S
H1504 C1510 0.950 . S
H1505 C1511 0.950 . S
H1506 C1512 0.949 . S
C1507 H1502 0.950 . S
C1507 C1509 1.327 . S
C1507 C1513 1.429 . S
C1508 C1500 1.574 . S
C1508 H1503 0.949 . S
C1508 C1514 1.368 . S
C1509 C1493 1.349 . S
C1509 H1501 0.950 . S
C1509 C1507 1.327 . S
C1510 C1498 1.349 . S
C1510 H1504 0.950 . S
C1510 C1511 1.327 . S
C1511 H1505 0.950 . S
C1511 C1510 1.327 . S
C1511 C1515 1.429 . S
C1512 C1495 1.574 . S
C1512 H1506 0.949 . S
C1512 C1516 1.368 . S
C1513 C1494 1.429 . S
C1513 C1507 1.429 . S
C1513 C1514 1.523 1_545 S
C1514 C1495 1.368 . S
C1514 C1508 1.368 . S
C1514 C1513 1.523 1_565 S
C1515 C1499 1.429 . S
C1515 C1511 1.429 . S
C1515 C1516 1.523 . S
C1516 C1500 1.368 . S
C1516 C1512 1.368 . S
C1516 C1515 1.523 . S
H1517 C1492 0.950 . S
H1518 C1494 0.950 . S
H1519 C1495 0.949 . S
H1520 C1497 0.950 . S
H1521 C1499 0.950 . S
C1522 C1523 1.349 . S
C1522 C1524 1.327 . S
C1522 H1547 0.950 . S
C1523 C1522 1.349 . S
C1523 C1539 1.349 . S
C1524 C1522 1.327 . S
C1524 C1543 1.429 . S
C1524 H1548 0.950 . S
C1525 C1542 1.574 . S
C1525 C1544 1.368 . S
C1525 H1549 0.949 . S
H1526 C1530 0.949 . S
C1527 C1528 1.349 . S
C1527 C1529 1.327 . S
C1527 H1550 0.950 . S
C1528 C1527 1.349 . S
C1528 C1540 1.349 . S
C1529 C1527 1.327 . S
C1529 C1545 1.429 . S
C1529 H1551 0.950 . S
C1530 H1526 0.949 . S
C1530 C1538 1.574 . S
C1530 C1546 1.368 . S
H1531 C1539 0.950 . S
H1532 C1537 0.950 . S
H1533 C1538 0.949 . S
H1534 C1540 0.950 . S
H1535 C1541 0.950 . S
H1536 C1542 0.949 . S
C1537 H1532 0.950 . S
C1537 C1539 1.327 . S
C1537 C1543 1.429 . S
C1538 C1530 1.574 . S
C1538 H1533 0.949 . S
C1538 C1544 1.368 . S
C1539 C1523 1.349 . S
C1539 H1531 0.950 . S
C1539 C1537 1.327 . S
C1540 C1528 1.349 . S
C1540 H1534 0.950 . S
C1540 C1541 1.327 . S
C1541 H1535 0.950 . S
C1541 C1540 1.327 . S
C1541 C1545 1.429 . S
C1542 C1525 1.574 . S
C1542 H1536 0.949 . S
C1542 C1546 1.368 . S
C1543 C1524 1.429 . S
C1543 C1537 1.429 . S
C1543 C1544 1.523 . S
C1544 C1525 1.368 . S
C1544 C1538 1.368 . S
C1544 C1543 1.523 . S
C1545 C1529 1.429 . S
C1545 C1541 1.429 . S
C1545 C1546 1.523 1_565 S
C1546 C1530 1.368 . S
C1546 C1542 1.368 . S
C1546 C1545 1.523 1_545 S
H1547 C1522 0.950 . S
H1548 C1524 0.950 . S
H1549 C1525 0.949 . S
H1550 C1527 0.950 . S
H1551 C1529 0.950 . S
C1552 C1553 1.349 . S
C1552 C1554 1.327 . S
C1552 H1577 0.950 . S
C1553 C1552 1.349 . S
C1553 C1569 1.349 . S
C1554 C1552 1.327 . S
C1554 C1573 1.429 . S
C1554 H1578 0.950 . S
C1555 C1572 1.574 . S
C1555 C1574 1.368 . S
C1555 H1579 0.949 . S
H1556 C1560 0.949 . S
C1557 C1558 1.349 . S
C1557 C1559 1.327 . S
C1557 H1580 0.950 . S
C1558 C1557 1.349 . S
C1558 C1570 1.349 . S
C1559 C1557 1.327 . S
C1559 C1575 1.429 . S
C1559 H1581 0.950 . S
C1560 H1556 0.949 . S
C1560 C1568 1.574 . S
C1560 C1576 1.368 . S
H1561 C1569 0.950 . S
H1562 C1567 0.950 . S
H1563 C1568 0.949 . S
H1564 C1570 0.950 . S
H1565 C1571 0.950 . S
H1566 C1572 0.949 . S
C1567 H1562 0.950 . S
C1567 C1569 1.327 . S
C1567 C1573 1.429 . S
C1568 C1560 1.574 . S
C1568 H1563 0.949 . S
C1568 C1574 1.368 . S
C1569 C1553 1.349 . S
C1569 H1561 0.950 . S
C1569 C1567 1.327 . S
C1570 C1558 1.349 . S
C1570 H1564 0.950 . S
C1570 C1571 1.327 . S
C1571 H1565 0.950 . S
C1571 C1570 1.327 . S
C1571 C1575 1.429 . S
C1572 C1555 1.574 . S
C1572 H1566 0.949 . S
C1572 C1576 1.368 . S
C1573 C1554 1.429 . S
C1573 C1567 1.429 . S
C1573 C1574 1.523 . S
C1574 C1555 1.368 . S
C1574 C1568 1.368 . S
C1574 C1573 1.523 . S
C1575 C1559 1.429 . S
C1575 C1571 1.429 . S
C1575 C1576 1.523 . S
C1576 C1560 1.368 . S
C1576 C1572 1.368 . S
C1576 C1575 1.523 . S
H1577 C1552 0.950 . S
H1578 C1554 0.950 . S
H1579 C1555 0.949 . S
H1580 C1557 0.950 . S
H1581 C1559 0.950 . S
C1582 C1583 1.349 . S
C1582 C1584 1.327 . S
C1582 H1607 0.950 . S
C1583 C1582 1.349 . S
C1583 C1599 1.349 . S
C1584 C1582 1.327 . S
C1584 C1603 1.429 . S
C1584 H1608 0.950 . S
C1585 C1602 1.574 . S
C1585 C1604 1.368 . S
C1585 H1609 0.949 . S
H1586 C1590 0.949 . S
C1587 C1588 1.349 . S
C1587 C1589 1.327 . S
C1587 H1610 0.950 . S
C1588 C1587 1.349 . S
C1588 C1600 1.349 . S
C1589 C1587 1.327 . S
C1589 C1605 1.429 . S
C1589 H1611 0.950 . S
C1590 H1586 0.949 . S
C1590 C1598 1.574 . S
C1590 C1606 1.368 . S
H1591 C1599 0.950 . S
H1592 C1597 0.950 . S
H1593 C1598 0.949 . S
H1594 C1600 0.950 . S
H1595 C1601 0.950 . S
H1596 C1602 0.949 . S
C1597 H1592 0.950 . S
C1597 C1599 1.327 . S
C1597 C1603 1.429 . S
C1598 C1590 1.574 . S
C1598 H1593 0.949 . S
C1598 C1604 1.368 . S
C1599 C1583 1.349 . S
C1599 H1591 0.950 . S
C1599 C1597 1.327 . S
C1600 C1588 1.349 . S
C1600 H1594 0.950 . S
C1600 C1601 1.327 . S
C1601 H1595 0.950 . S
C1601 C1600 1.327 . S
C1601 C1605 1.429 . S
C1602 C1585 1.574 . S
C1602 H1596 0.949 . S
C1602 C1606 1.368 . S
C1603 C1584 1.429 . S
C1603 C1597 1.429 . S
C1603 C1604 1.523 . S
C1604 C1585 1.368 . S
C1604 C1598 1.368 . S
C1604 C1603 1.523 . S
C1605 C1589 1.429 . S
C1605 C1601 1.429 . S
C1605 C1606 1.523 . S
C1606 C1590 1.368 . S
C1606 C1602 1.368 . S
C1606 C1605 1.523 . S
H1607 C1582 0.950 . S
H1608 C1584 0.950 . S
H1609 C1585 0.949 . S
H1610 C1587 0.950 . S
H1611 C1589 0.950 . S
C1612 C1613 1.349 . S
C1612 C1614 1.327 . S
C1612 H1637 0.950 . S
C1613 C1612 1.349 . S
C1613 C1629 1.349 . S
C1614 C1612 1.327 . S
C1614 C1633 1.429 . S
C1614 H1638 0.950 . S
C1615 C1632 1.574 . S
C1615 C1634 1.368 . S
C1615 H1639 0.949 . S
H1616 C1620 0.949 . S
C1617 C1618 1.349 . S
C1617 C1619 1.327 . S
C1617 H1640 0.950 . S
C1618 C1617 1.349 . S
C1618 C1630 1.349 . S
C1619 C1617 1.327 . S
C1619 C1635 1.429 . S
C1619 H1641 0.950 . S
C1620 H1616 0.949 . S
C1620 C1628 1.574 . S
C1620 C1636 1.368 . S
H1621 C1629 0.950 . S
H1622 C1627 0.950 . S
H1623 C1628 0.949 . S
H1624 C1630 0.950 . S
H1625 C1631 0.950 . S
H1626 C1632 0.949 . S
C1627 H1622 0.950 . S
C1627 C1629 1.327 . S
C1627 C1633 1.429 . S
C1628 C1620 1.574 . S
C1628 H1623 0.949 . S
C1628 C1634 1.368 . S
C1629 C1613 1.349 . S
C1629 H1621 0.950 . S
C1629 C1627 1.327 . S
C1630 C1618 1.349 . S
C1630 H1624 0.950 . S
C1630 C1631 1.327 . S
C1631 H1625 0.950 . S
C1631 C1630 1.327 . S
C1631 C1635 1.429 . S
C1632 C1615 1.574 . S
C1632 H1626 0.949 . S
C1632 C1636 1.368 . S
C1633 C1614 1.429 . S
C1633 C1627 1.429 . S
C1633 C1634 1.523 . S
C1634 C1615 1.368 . S
C1634 C1628 1.368 . S
C1634 C1633 1.523 . S
C1635 C1619 1.429 . S
C1635 C1631 1.429 . S
C1635 C1636 1.523 . S
C1636 C1620 1.368 . S
C1636 C1632 1.368 . S
C1636 C1635 1.523 . S
H1637 C1612 0.950 . S
H1638 C1614 0.950 . S
H1639 C1615 0.949 . S
H1640 C1617 0.950 . S
H1641 C1619 0.950 . S
C1642 C1643 1.349 . S
C1642 C1644 1.327 . S
C1642 H1667 0.950 . S
C1643 C1642 1.349 . S
C1643 C1659 1.349 . S
C1644 C1642 1.327 . S
C1644 C1663 1.429 . S
C1644 H1668 0.950 . S
C1645 C1662 1.574 . S
C1645 C1664 1.368 . S
C1645 H1669 0.949 . S
H1646 C1650 0.949 . S
C1647 C1648 1.349 . S
C1647 C1649 1.327 . S
C1647 H1670 0.950 . S
C1648 C1647 1.349 . S
C1648 C1660 1.349 . S
C1649 C1647 1.327 . S
C1649 C1665 1.429 . S
C1649 H1671 0.950 . S
C1650 H1646 0.949 . S
C1650 C1658 1.574 . S
C1650 C1666 1.368 . S
H1651 C1659 0.950 . S
H1652 C1657 0.950 . S
H1653 C1658 0.949 . S
H1654 C1660 0.950 . S
H1655 C1661 0.950 . S
H1656 C1662 0.949 . S
C1657 H1652 0.950 . S
C1657 C1659 1.327 . S
C1657 C1663 1.429 . S
C1658 C1650 1.574 . S
C1658 H1653 0.949 . S
C1658 C1664 1.368 . S
C1659 C1643 1.349 . S
C1659 H1651 0.950 . S
C1659 C1657 1.327 . S
C1660 C1648 1.349 . S
C1660 H1654 0.950 . S
C1660 C1661 1.327 . S
C1661 H1655 0.950 . S
C1661 C1660 1.327 . S
C1661 C1665 1.429 . S
C1662 C1645 1.574 . S
C1662 H1656 0.949 . S
C1662 C1666 1.368 . S
C1663 C1644 1.429 . S
C1663 C1657 1.429 . S
C1663 C1664 1.523 . S
C1664 C1645 1.368 . S
C1664 C1658 1.368 . S
C1664 C1663 1.523 . S
C1665 C1649 1.429 . S
C1665 C1661 1.429 . S
C1665 C1666 1.523 . S
C1666 C1650 1.368 . S
C1666 C1662 1.368 . S
C1666 C1665 1.523 . S
H1667 C1642 0.950 . S
H1668 C1644 0.950 . S
H1669 C1645 0.949 . S
H1670 C1647 0.950 . S
H1671 C1649 0.950 . S
C1672 C1673 1.349 . S
C1672 C1674 1.327 . S
C1672 H1697 0.950 . S
C1673 C1672 1.349 . S
C1673 C1689 1.349 . S
C1674 C1672 1.327 . S
C1674 C1693 1.429 . S
C1674 H1698 0.950 . S
C1675 C1692 1.574 . S
C1675 C1694 1.368 . S
C1675 H1699 0.949 . S
H1676 C1680 0.949 . S
C1677 C1678 1.349 . S
C1677 C1679 1.327 . S
C1677 H1700 0.950 . S
C1678 C1677 1.349 . S
C1678 C1690 1.349 . S
C1679 C1677 1.327 . S
C1679 C1695 1.429 . S
C1679 H1701 0.950 . S
C1680 H1676 0.949 . S
C1680 C1688 1.574 . S
C1680 C1696 1.368 . S
H1681 C1689 0.950 . S
H1682 C1687 0.950 . S
H1683 C1688 0.949 . S
H1684 C1690 0.950 . S
H1685 C1691 0.950 . S
H1686 C1692 0.949 . S
C1687 H1682 0.950 . S
C1687 C1689 1.327 . S
C1687 C1693 1.429 . S
C1688 C1680 1.574 . S
C1688 H1683 0.949 . S
C1688 C1694 1.368 . S
C1689 C1673 1.349 . S
C1689 H1681 0.950 . S
C1689 C1687 1.327 . S
C1690 C1678 1.349 . S
C1690 H1684 0.950 . S
C1690 C1691 1.327 . S
C1691 H1685 0.950 . S
C1691 C1690 1.327 . S
C1691 C1695 1.429 . S
C1692 C1675 1.574 . S
C1692 H1686 0.949 . S
C1692 C1696 1.368 . S
C1693 C1674 1.429 . S
C1693 C1687 1.429 . S
C1693 C1694 1.523 . S
C1694 C1675 1.368 . S
C1694 C1688 1.368 . S
C1694 C1693 1.523 . S
C1695 C1679 1.429 . S
C1695 C1691 1.429 . S
C1695 C1696 1.523 . S
C1696 C1680 1.368 . S
C1696 C1692 1.368 . S
C1696 C1695 1.523 . S
H1697 C1672 0.950 . S
H1698 C1674 0.950 . S
H1699 C1675 0.949 . S
H1700 C1677 0.950 . S
H1701 C1679 0.950 . S
C1702 C1703 1.349 . S
C1702 C1704 1.327 . S
C1702 H1727 0.950 . S
C1703 C1702 1.349 . S
C1703 C1719 1.349 . S
C1704 C1702 1.327 . S
C1704 C1723 1.429 . S
C1704 H1728 0.950 . S
C1705 C1722 1.574 . S
C1705 C1724 1.368 . S
C1705 H1729 0.949 . S
H1706 C1710 0.949 . S
C1707 C1708 1.349 . S
C1707 C1709 1.327 . S
C1707 H1730 0.950 . S
C1708 C1707 1.349 . S
C1708 C1720 1.349 . S
C1709 C1707 1.327 . S
C1709 C1725 1.429 . S
C1709 H1731 0.950 . S
C1710 H1706 0.949 . S
C1710 C1718 1.574 . S
C1710 C1726 1.368 . S
H1711 C1719 0.950 . S
H1712 C1717 0.950 . S
H1713 C1718 0.949 . S
H1714 C1720 0.950 . S
H1715 C1721 0.950 . S
H1716 C1722 0.949 . S
C1717 H1712 0.950 . S
C1717 C1719 1.327 . S
C1717 C1723 1.429 . S
C1718 C1710 1.574 . S
C1718 H1713 0.949 . S
C1718 C1724 1.368 . S
C1719 C1703 1.349 . S
C1719 H1711 0.950 . S
C1719 C1717 1.327 . S
C1720 C1708 1.349 . S
C1720 H1714 0.950 . S
C1720 C1721 1.327 . S
C1721 H1715 0.950 . S
C1721 C1720 1.327 . S
C1721 C1725 1.429 . S
C1722 C1705 1.574 . S
C1722 H1716 0.949 . S
C1722 C1726 1.368 . S
C1723 C1704 1.429 . S
C1723 C1717 1.429 . S
C1723 C1724 1.523 . S
C1724 C1705 1.368 . S
C1724 C1718 1.368 . S
C1724 C1723 1.523 . S
C1725 C1709 1.429 . S
C1725 C1721 1.429 . S
C1725 C1726 1.523 . S
C1726 C1710 1.368 . S
C1726 C1722 1.368 . S
C1726 C1725 1.523 . S
H1727 C1702 0.950 . S
H1728 C1704 0.950 . S
H1729 C1705 0.949 . S
H1730 C1707 0.950 . S
H1731 C1709 0.950 . S
C1732 C1733 1.349 . S
C1732 C1734 1.327 . S
C1732 H1757 0.950 . S
C1733 C1732 1.349 . S
C1733 C1749 1.349 . S
C1734 C1732 1.327 . S
C1734 C1753 1.429 . S
C1734 H1758 0.950 . S
C1735 C1752 1.574 . S
C1735 C1754 1.368 . S
C1735 H1759 0.949 . S
H1736 C1740 0.949 . S
C1737 C1738 1.349 . S
C1737 C1739 1.327 . S
C1737 H1760 0.950 . S
C1738 C1737 1.349 . S
C1738 C1750 1.349 . S
C1739 C1737 1.327 . S
C1739 C1755 1.429 . S
C1739 H1761 0.950 . S
C1740 H1736 0.949 . S
C1740 C1748 1.574 . S
C1740 C1756 1.368 . S
H1741 C1749 0.950 . S
H1742 C1747 0.950 . S
H1743 C1748 0.949 . S
H1744 C1750 0.950 . S
H1745 C1751 0.950 . S
H1746 C1752 0.949 . S
C1747 H1742 0.950 . S
C1747 C1749 1.327 . S
C1747 C1753 1.429 . S
C1748 C1740 1.574 . S
C1748 H1743 0.949 . S
C1748 C1754 1.368 . S
C1749 C1733 1.349 . S
C1749 H1741 0.950 . S
C1749 C1747 1.327 . S
C1750 C1738 1.349 . S
C1750 H1744 0.950 . S
C1750 C1751 1.327 . S
C1751 H1745 0.950 . S
C1751 C1750 1.327 . S
C1751 C1755 1.429 . S
C1752 C1735 1.574 . S
C1752 H1746 0.949 . S
C1752 C1756 1.368 . S
C1753 C1734 1.429 . S
C1753 C1747 1.429 . S
C1753 C1754 1.523 . S
C1754 C1735 1.368 . S
C1754 C1748 1.368 . S
C1754 C1753 1.523 . S
C1755 C1739 1.429 . S
C1755 C1751 1.429 . S
C1755 C1756 1.523 . S
C1756 C1740 1.368 . S
C1756 C1752 1.368 . S
C1756 C1755 1.523 . S
H1757 C1732 0.950 . S
H1758 C1734 0.950 . S
H1759 C1735 0.949 . S
H1760 C1737 0.950 . S
H1761 C1739 0.950 . S
C1762 C1763 1.349 . S
C1762 C1764 1.327 . S
C1762 H1787 0.950 . S
C1763 C1762 1.349 . S
C1763 C1779 1.349 . S
C1764 C1762 1.327 . S
C1764 C1783 1.429 . S
C1764 H1788 0.950 . S
C1765 C1782 1.574 . S
C1765 C1784 1.368 . S
C1765 H1789 0.949 . S
H1766 C1770 0.949 . S
C1767 C1768 1.349 . S
C1767 C1769 1.327 . S
C1767 H1790 0.950 . S
C1768 C1767 1.349 . S
C1768 C1780 1.349 . S
C1769 C1767 1.327 . S
C1769 C1785 1.429 . S
C1769 H1791 0.950 . S
C1770 H1766 0.949 . S
C1770 C1778 1.574 . S
C1770 C1786 1.368 . S
H1771 C1779 0.950 . S
H1772 C1777 0.950 . S
H1773 C1778 0.949 . S
H1774 C1780 0.950 . S
H1775 C1781 0.950 . S
H1776 C1782 0.949 . S
C1777 H1772 0.950 . S
C1777 C1779 1.327 . S
C1777 C1783 1.429 . S
C1778 C1770 1.574 . S
C1778 H1773 0.949 . S
C1778 C1784 1.368 . S
C1779 C1763 1.349 . S
C1779 H1771 0.950 . S
C1779 C1777 1.327 . S
C1780 C1768 1.349 . S
C1780 H1774 0.950 . S
C1780 C1781 1.327 . S
C1781 H1775 0.950 . S
C1781 C1780 1.327 . S
C1781 C1785 1.429 . S
C1782 C1765 1.574 . S
C1782 H1776 0.949 . S
C1782 C1786 1.368 . S
C1783 C1764 1.429 . S
C1783 C1777 1.429 . S
C1783 C1784 1.523 . S
C1784 C1765 1.368 . S
C1784 C1778 1.368 . S
C1784 C1783 1.523 . S
C1785 C1769 1.429 . S
C1785 C1781 1.429 . S
C1785 C1786 1.523 . S
C1786 C1770 1.368 . S
C1786 C1782 1.368 . S
C1786 C1785 1.523 . S
H1787 C1762 0.950 . S
H1788 C1764 0.950 . S
H1789 C1765 0.949 . S
H1790 C1767 0.950 . S
H1791 C1769 0.950 . S
C353 C5 0.564 . S
C358 C270 0.564 . S
C383 C293 0.564 . S
C388 C27 0.564 . S
C413 C314 0.564 . S
C418 C49 0.564 . S
C443 C336 0.564 . S
C448 C75 0.564 . S
C473 C94 0.564 . S
C478 C181 0.564 . S
C503 C203 0.564 . S
C508 C117 0.564 . S
C533 C138 0.564 . S
C538 C225 0.564 . S
C563 C251 0.564 . S
C568 C160 0.564 . S
C593 C48 1.847 . S
C598 C4 1.847 . S
C623 C26 1.847 . S
C628 C74 1.847 . S
C653 C92 1.847 . S
C658 C136 1.847 . S
C683 C158 1.847 . S
C688 C118 1.847 . S
C713 C180 1.847 . S
C718 C224 1.847 . S
C743 C250 1.847 . S
C748 C202 1.847 . S
C773 C312 1.847 . S
C778 C268 1.847 . S
C803 C334 1.847 . S
C808 C294 1.847 . S
C833 C9 1.791 . S
C838 C71 1.791 . S
C863 C53 1.791 . S
C868 C31 1.791 . S
C893 C161 1.791 . S
C898 C95 1.791 . S
C923 C139 1.791 . S
C928 C116 1.791 . S
C953 C247 1.791 . S
C958 C185 1.791 . S
C983 C229 1.791 . S
C988 C207 1.791 . S
C1013 C271 1.791 . S
C1018 C337 1.791 . S
C1043 C315 1.791 . S
C1048 C292 1.791 . S
C1073 C8 1.410 . S
C1078 C140 1.410 . S
C1103 C30 1.410 . S
C1108 C162 1.410 . S
C1133 C96 1.410 . S
C1138 C52 1.410 . S
C1163 C114 1.410 . S
C1168 C70 1.410 . S
C1193 C184 1.410 . S
C1198 C316 1.410 . S
C1223 C206 1.410 . S
C1228 C338 1.410 . S
C1253 C272 1.410 . S
C1258 C228 1.410 . S
C1283 C290 1.410 . S
C1288 C246 1.410 . S
C1313 C6 1.181 . S
C1318 C317 1.141 . S
C1343 C28 1.181 . S
C1348 C339 1.141 . S
C1373 C273 1.141 . S
C1378 C50 1.181 . S
C1403 C291 1.141 . S
C1408 C73 1.181 . S
C1433 C227 1.141 . S
C1438 C93 1.181 . S
C1463 C119 1.181 . S
C1468 C248 1.141 . S
C1493 C137 1.181 . S
C1498 C183 1.141 . S
C1523 C205 1.141 . S
C1528 C159 1.181 . S
C1553 C141 1.141 . S
C1558 C182 1.181 . S
C1583 C204 1.181 . S
C1588 C163 1.141 . S
C1613 C97 1.141 . S
C1618 C226 1.181 . S
C1643 C249 1.181 . S
C1648 C115 1.141 . S
C1673 C51 1.141 . S
C1678 C269 1.181 . S
C1703 C295 1.181 . S
C1708 C72 1.141 . S
C1733 C313 1.181 . S
C1738 C7 1.141 . S
C1763 C29 1.141 . S
C1768 C335 1.181 . S
