# Generated by pormake.
# Topology uop, (4)-cn, num edge types: 1
# Building blocks:
#     Node 0, Type 0, BuildingBlock: NAWXER_clean_sbu_0, # of connection points: 4
#     Node 1, Type 0, BuildingBlock: NAWXER_clean_sbu_0, # of connection points: 4
#     Node 2, Type 0, BuildingBlock: NAWXER_clean_sbu_0, # of connection points: 4
#     Node 3, Type 0, BuildingBlock: NAWXER_clean_sbu_0, # of connection points: 4
#     Node 4, Type 0, BuildingBlock: NAWXER_clean_sbu_0, # of connection points: 4
#     Node 5, Type 0, BuildingBlock: NAWXER_clean_sbu_0, # of connection points: 4
#     Node 6, Type 0, BuildingBlock: NAWXER_clean_sbu_0, # of connection points: 4
#     Node 7, Type 0, BuildingBlock: NAWXER_clean_sbu_0, # of connection points: 4
#     Node 8, Type 0, BuildingBlock: NAWXER_clean_sbu_0, # of connection points: 4
#     Node 9, Type 0, BuildingBlock: NAWXER_clean_sbu_0, # of connection points: 4
#     Node 10, Type 0, BuildingBlock: NAWXER_clean_sbu_0, # of connection points: 4
#     Node 11, Type 0, BuildingBlock: NAWXER_clean_sbu_0, # of connection points: 4
#     Edge 12, Type (0, 0), BuildingBlock: CIFDUS_clean_linker_0, # of connection points: 2
#     Edge 13, Type (0, 0), BuildingBlock: CIFDUS_clean_linker_0, # of connection points: 2
#     Edge 14, Type (0, 0), BuildingBlock: CIFDUS_clean_linker_0, # of connection points: 2
#     Edge 15, Type (0, 0), BuildingBlock: CIFDUS_clean_linker_0, # of connection points: 2
#     Edge 16, Type (0, 0), BuildingBlock: CIFDUS_clean_linker_0, # of connection points: 2
#     Edge 17, Type (0, 0), BuildingBlock: CIFDUS_clean_linker_0, # of connection points: 2
#     Edge 18, Type (0, 0), BuildingBlock: CIFDUS_clean_linker_0, # of connection points: 2
#     Edge 19, Type (0, 0), BuildingBlock: CIFDUS_clean_linker_0, # of connection points: 2
#     Edge 20, Type (0, 0), BuildingBlock: CIFDUS_clean_linker_0, # of connection points: 2
#     Edge 21, Type (0, 0), BuildingBlock: CIFDUS_clean_linker_0, # of connection points: 2
#     Edge 22, Type (0, 0), BuildingBlock: CIFDUS_clean_linker_0, # of connection points: 2
#     Edge 23, Type (0, 0), BuildingBlock: CIFDUS_clean_linker_0, # of connection points: 2
#     Edge 24, Type (0, 0), BuildingBlock: CIFDUS_clean_linker_0, # of connection points: 2
#     Edge 25, Type (0, 0), BuildingBlock: CIFDUS_clean_linker_0, # of connection points: 2
#     Edge 26, Type (0, 0), BuildingBlock: CIFDUS_clean_linker_0, # of connection points: 2
#     Edge 27, Type (0, 0), BuildingBlock: CIFDUS_clean_linker_0, # of connection points: 2
#     Edge 28, Type (0, 0), BuildingBlock: CIFDUS_clean_linker_0, # of connection points: 2
#     Edge 29, Type (0, 0), BuildingBlock: CIFDUS_clean_linker_0, # of connection points: 2
#     Edge 30, Type (0, 0), BuildingBlock: CIFDUS_clean_linker_0, # of connection points: 2
#     Edge 31, Type (0, 0), BuildingBlock: CIFDUS_clean_linker_0, # of connection points: 2
#     Edge 32, Type (0, 0), BuildingBlock: CIFDUS_clean_linker_0, # of connection points: 2
#     Edge 33, Type (0, 0), BuildingBlock: CIFDUS_clean_linker_0, # of connection points: 2
#     Edge 34, Type (0, 0), BuildingBlock: CIFDUS_clean_linker_0, # of connection points: 2
#     Edge 35, Type (0, 0), BuildingBlock: CIFDUS_clean_linker_0, # of connection points: 2
# Relax obj value: 0.102
# Max RMSD: 0.272
# Mean RMSD: 0.272
data_MOF--net-uop--node1-NAWXER_clean_sbu_0--edge1-CIFDUS_clean_linker_0
_symmetry_space_group_name_H-M    P1
_symmetry_Int_Tables_number       1
_symmetry_cell_setting            triclinic
loop_
_symmetry_equiv_pos_as_xyz
'x, y, z'
_cell_length_a     29.237996
_cell_length_b     29.21372
_cell_length_c     40.746706
_cell_angle_alpha  90.033967
_cell_angle_beta   89.90616
_cell_angle_gamma 119.84593
loop_
_atom_site_label
_atom_site_type_symbol
_atom_site_fract_x
_atom_site_fract_y
_atom_site_fract_z
_atom_type_partial_charge
C0 C 0.25347 0.36482 0.27431 0.0
C1 C 0.25455 0.5042 0.20777 0.0
O2 O 0.25543 0.35747 0.24338 0.0
Zn3 Zn 0.25497 0.39544 0.19802 0.0
O4 O 0.24925 0.40385 0.28424 0.0
Zn5 Zn 0.25083 0.43317 0.24168 0.0
O6 O 0.17583 0.3765 0.22174 0.0
O7 O 0.19076 0.345 0.17623 0.0
O8 O 0.25108 0.49988 0.23882 0.0
O9 O 0.25597 0.46806 0.19075 0.0
O10 O 0.32205 0.41171 0.17892 0.0
O11 O 0.32911 0.45386 0.22539 0.0
C12 C 0.15846 0.34603 0.19668 0.0
C13 C 0.35067 0.4432 0.20135 0.0
C14 C 0.80686 0.14929 0.53926 0.0
C15 C 0.89717 0.3414 0.5443 0.0
O16 O 0.79435 0.16532 0.56526 0.0
Zn17 Zn 0.81267 0.2403 0.58609 0.0
O18 O 0.83798 0.18285 0.51858 0.0
Zn19 Zn 0.84988 0.24561 0.54159 0.0
O20 O 0.89349 0.24721 0.58591 0.0
O21 O 0.8405 0.23739 0.62732 0.0
O22 O 0.89749 0.31222 0.5213 0.0
O23 O 0.86786 0.32011 0.56961 0.0
O24 O 0.74666 0.23822 0.5882 0.0
O25 O 0.77466 0.24323 0.53746 0.0
C26 C 0.88401 0.24327 0.61696 0.0
C27 C 0.73967 0.24049 0.55772 0.0
C28 C 0.65046 0.88069 0.94721 0.0
C29 C 0.5159 0.74949 0.87646 0.0
O30 O 0.65939 0.89417 0.91682 0.0
Zn31 Zn 0.62342 0.86012 0.86984 0.0
O32 O 0.61168 0.83609 0.955 0.0
Zn33 Zn 0.58498 0.8147 0.91167 0.0
O34 O 0.64261 0.79837 0.89048 0.0
O35 O 0.67571 0.84961 0.84706 0.0
O36 O 0.51974 0.7493 0.90746 0.0
O37 O 0.55162 0.7881 0.85991 0.0
O38 O 0.60753 0.91271 0.85325 0.0
O39 O 0.56427 0.87398 0.89866 0.0
C40 C 0.67413 0.81419 0.86586 0.0
C41 C 0.57577 0.90849 0.87595 0.0
C42 C 0.75715 0.66499 0.24686 0.0
C43 C 0.76401 0.52742 0.18391 0.0
O44 O 0.75267 0.67051 0.21599 0.0
Zn45 Zn 0.75684 0.63286 0.1713 0.0
O46 O 0.76655 0.62928 0.25667 0.0
Zn47 Zn 0.76424 0.5984 0.2147 0.0
O48 O 0.83802 0.65295 0.19203 0.0
O49 O 0.81896 0.68692 0.14941 0.0
O50 O 0.76656 0.53409 0.21479 0.0
O51 O 0.76087 0.56112 0.16517 0.0
O52 O 0.68938 0.61227 0.15166 0.0
O53 O 0.68421 0.57179 0.19848 0.0
C54 C 0.85299 0.68443 0.16742 0.0
C55 C 0.66155 0.58009 0.17406 0.0
C56 C 0.10547 0.74873 0.57946 0.0
C57 C 0.24644 0.74977 0.51547 0.0
O58 O 0.09567 0.74484 0.54852 0.0
Zn59 Zn 0.13542 0.74436 0.50349 0.0
O60 O 0.14928 0.7548 0.58947 0.0
Zn61 Zn 0.17624 0.75111 0.54739 0.0
O62 O 0.19355 0.82513 0.52571 0.0
O63 O 0.14676 0.80688 0.48029 0.0
O64 O 0.24283 0.75268 0.54636 0.0
O65 O 0.20939 0.74654 0.4971 0.0
O66 O 0.08602 0.67616 0.48534 0.0
O67 O 0.11972 0.67128 0.53279 0.0
C68 C 0.17981 0.84074 0.50008 0.0
C69 C 0.08814 0.6485 0.50872 0.0
C70 C 0.36461 0.11162 0.92494 0.0
C71 C 0.50855 0.25738 0.86852 0.0
O72 O 0.36192 0.10152 0.89402 0.0
Zn73 Zn 0.40649 0.14599 0.85055 0.0
O74 O 0.40007 0.15595 0.93556 0.0
Zn75 Zn 0.43417 0.18374 0.89513 0.0
O76 O 0.37948 0.20213 0.87079 0.0
O77 O 0.35765 0.15664 0.82475 0.0
O78 O 0.4972 0.25032 0.89878 0.0
O79 O 0.47837 0.22208 0.84781 0.0
O80 O 0.42861 0.1003 0.83156 0.0
O81 O 0.46231 0.12965 0.88067 0.0
C82 C 0.3536 0.18879 0.84376 0.0
C83 C 0.45694 0.10109 0.85534 0.0
C84 C 0.51372 0.75789 0.46236 0.0
C85 C 0.65453 0.75865 0.39825 0.0
O86 O 0.54783 0.75503 0.48068 0.0
Zn87 Zn 0.62053 0.75447 0.47429 0.0
O88 O 0.52057 0.76176 0.4315 0.0
Zn89 Zn 0.58605 0.7611 0.43039 0.0
O90 O 0.56355 0.68171 0.44523 0.0
O91 O 0.60264 0.68621 0.49242 0.0
O92 O 0.61672 0.76475 0.38835 0.0
O93 O 0.66065 0.75483 0.42917 0.0
O94 O 0.67076 0.81764 0.49744 0.0
O95 O 0.64165 0.83503 0.4519 0.0
C96 C 0.57263 0.65873 0.46911 0.0
C97 C 0.67087 0.85109 0.47751 0.0
C98 C 0.90275 0.64461 0.72666 0.0
C99 C 0.75091 0.50442 0.78178 0.0
O100 O 0.90904 0.64873 0.75791 0.0
Zn101 Zn 0.86204 0.60713 0.80047 0.0
O102 O 0.85959 0.60872 0.71485 0.0
Zn103 Zn 0.82612 0.57685 0.75525 0.0
O104 O 0.80807 0.63378 0.77609 0.0
O105 O 0.84991 0.65797 0.82335 0.0
O106 O 0.75873 0.51503 0.75141 0.0
O107 O 0.78569 0.53502 0.80265 0.0
O108 O 0.90812 0.58662 0.82122 0.0
O109 O 0.8745 0.54536 0.77434 0.0
C110 C 0.81971 0.66142 0.80241 0.0
C111 C 0.90364 0.55326 0.79965 0.0
C112 C 0.26583 0.76395 0.13555 0.0
C113 C 0.25948 0.87899 0.05251 0.0
O114 O 0.26134 0.80126 0.14927 0.0
Zn115 Zn 0.25612 0.86959 0.13125 0.0
O116 O 0.26861 0.76272 0.10453 0.0
Zn117 Zn 0.262 0.82223 0.09523 0.0
O118 O 0.3368 0.8865 0.11241 0.0
O119 O 0.31742 0.92973 0.14925 0.0
O120 O 0.26091 0.83657 0.04942 0.0
O121 O 0.25763 0.89559 0.08139 0.0
O122 O 0.18859 0.85675 0.14711 0.0
O123 O 0.18267 0.79648 0.11201 0.0
C124 C 0.35162 0.92467 0.13291 0.0
C125 C 0.16062 0.81397 0.13169 0.0
C126 C 0.49654 0.24268 0.46985 0.0
C127 C 0.35434 0.25607 0.41809 0.0
O128 O 0.46618 0.24638 0.49118 0.0
Zn129 Zn 0.39523 0.25176 0.49098 0.0
O130 O 0.4857 0.24103 0.43959 0.0
Zn131 Zn 0.42274 0.24576 0.44461 0.0
O132 O 0.45232 0.32556 0.46311 0.0
O133 O 0.41896 0.31825 0.5128 0.0
O134 O 0.38846 0.24684 0.40516 0.0
O135 O 0.35211 0.25872 0.4495 0.0
O136 O 0.34518 0.18906 0.51408 0.0
O137 O 0.36695 0.17109 0.46597 0.0
C138 C 0.44764 0.34714 0.48944 0.0
C139 C 0.34067 0.15534 0.49282 0.0
C140 C 0.12904 0.36553 0.73568 0.0
C141 C 0.25854 0.49463 0.80971 0.0
O142 O 0.1136 0.35532 0.76566 0.0
Zn143 Zn 0.14477 0.38877 0.81332 0.0
O144 O 0.17438 0.40415 0.72934 0.0
Zn145 Zn 0.19424 0.42828 0.7735 0.0
O146 O 0.20775 0.36908 0.79569 0.0
O147 O 0.15122 0.33483 0.83661 0.0
O148 O 0.26062 0.49086 0.77877 0.0
O149 O 0.2181 0.45976 0.82553 0.0
O150 O 0.09179 0.40476 0.82846 0.0
O151 O 0.13975 0.45519 0.78731 0.0
C152 C 0.18878 0.33679 0.81986 0.0
C153 C 0.10275 0.44221 0.8085 0.0
C154 C 0.75872 0.26064 0.13313 0.0
C155 C 0.76116 0.12607 0.06525 0.0
O156 O 0.75853 0.2244 0.15109 0.0
Zn157 Zn 0.76053 0.15204 0.14217 0.0
O158 O 0.7597 0.25706 0.10217 0.0
Zn159 Zn 0.76072 0.19261 0.10002 0.0
O160 O 0.68299 0.13392 0.11762 0.0
O161 O 0.69635 0.09776 0.16149 0.0
O162 O 0.7624 0.1685 0.05691 0.0
O163 O 0.76038 0.11501 0.09583 0.0
O164 O 0.82541 0.16582 0.16275 0.0
O165 O 0.83795 0.21326 0.11811 0.0
C166 C 0.6648 0.10028 0.14118 0.0
C167 C 0.8567 0.19997 0.1424 0.0
H168 H 0.27228 0.68102 0.11219 0.0
H169 H 0.25797 0.74974 0.20267 0.0
H170 H 0.2535 0.67549 0.23352 0.0
H171 H 0.25202 0.58965 0.23424 0.0
H172 H 0.26512 0.52303 0.14232 0.0
H173 H 0.27144 0.59788 0.11273 0.0
C174 C 0.26836 0.68013 0.13869 0.0
C175 C 0.26546 0.72096 0.15506 0.0
C176 C 0.26532 0.63742 0.15606 0.0
C177 C 0.26037 0.71885 0.18943 0.0
C178 C 0.25768 0.67633 0.20706 0.0
C179 C 0.25624 0.5916 0.20776 0.0
C180 C 0.25795 0.55052 0.19063 0.0
C181 C 0.2598 0.63514 0.19057 0.0
C182 C 0.26353 0.55378 0.15627 0.0
C183 C 0.26724 0.5967 0.13921 0.0
H184 H 0.70879 0.23998 0.49436 0.0
H185 H 0.66231 0.2405 0.59499 0.0
H186 H 0.58333 0.24079 0.57662 0.0
H187 H 0.52757 0.24149 0.53236 0.0
H188 H 0.5726 0.24052 0.43153 0.0
H189 H 0.65184 0.23969 0.44967 0.0
C190 C 0.68138 0.24015 0.51225 0.0
C191 C 0.69164 0.24029 0.546 0.0
C192 C 0.63569 0.2402 0.50154 0.0
C193 C 0.65555 0.24037 0.56885 0.0
C194 C 0.61027 0.24055 0.55839 0.0
C195 C 0.55462 0.24104 0.51428 0.0
C196 C 0.54411 0.24114 0.48064 0.0
C197 C 0.59999 0.24055 0.52484 0.0
C198 C 0.57965 0.24043 0.45761 0.0
C199 C 0.62504 0.24001 0.46795 0.0
H200 H 0.42963 0.66588 0.90377 0.0
H201 H 0.50125 0.73431 0.81045 0.0
H202 H 0.42804 0.66165 0.78177 0.0
H203 H 0.34423 0.57865 0.78301 0.0
H204 H 0.27152 0.51017 0.87604 0.0
H205 H 0.3447 0.58302 0.90496 0.0
C206 C 0.42924 0.66491 0.87716 0.0
C207 C 0.47096 0.70547 0.85933 0.0
C208 C 0.38688 0.62304 0.86075 0.0
C209 C 0.46969 0.70367 0.82484 0.0
C210 C 0.42784 0.66209 0.80837 0.0
C211 C 0.34432 0.57955 0.80962 0.0
C212 C 0.30251 0.53892 0.82731 0.0
C213 C 0.38632 0.62155 0.82607 0.0
C214 C 0.3032 0.54094 0.86179 0.0
C215 C 0.34506 0.58256 0.87837 0.0
H216 H 0.76271 0.44517 0.21637 0.0
H217 H 0.76427 0.50449 0.11905 0.0
H218 H 0.76226 0.42708 0.09504 0.0
H219 H 0.75996 0.34286 0.10146 0.0
H220 H 0.75816 0.28265 0.19849 0.0
H221 H 0.76019 0.36019 0.2228 0.0
C222 C 0.76273 0.44126 0.18991 0.0
C223 C 0.76369 0.48069 0.16957 0.0
C224 C 0.76138 0.39647 0.17619 0.0
C225 C 0.76353 0.47482 0.13532 0.0
C226 C 0.76236 0.43052 0.12153 0.0
C227 C 0.75993 0.34652 0.12795 0.0
C228 C 0.75889 0.30692 0.14811 0.0
C229 C 0.7612 0.39112 0.14172 0.0
C230 C 0.7589 0.31248 0.18238 0.0
C231 C 0.76012 0.35685 0.1963 0.0
H232 H 0.43037 0.75542 0.43092 0.0
H233 H 0.4916 0.75706 0.52754 0.0
H234 H 0.4145 0.75459 0.55246 0.0
H235 H 0.32972 0.75209 0.54694 0.0
H236 H 0.26814 0.74965 0.4503 0.0
H237 H 0.34528 0.75222 0.4254 0.0
C238 C 0.42692 0.7553 0.45742 0.0
C239 C 0.46682 0.7565 0.47727 0.0
C240 C 0.38235 0.75367 0.47166 0.0
C241 C 0.46152 0.75613 0.51161 0.0
C242 C 0.41742 0.75473 0.52593 0.0
C243 C 0.33312 0.7521 0.52043 0.0
C244 C 0.29314 0.75071 0.50058 0.0
C245 C 0.37759 0.75349 0.5062 0.0
C246 C 0.29824 0.75065 0.46624 0.0
C247 C 0.3424 0.75217 0.45192 0.0
H248 H 0.53908 0.29026 0.8057 0.0
H249 H 0.5851 0.33396 0.9066 0.0
H250 H 0.66374 0.4142 0.88874 0.0
H251 H 0.7198 0.47193 0.84456 0.0
H252 H 0.67335 0.42879 0.74366 0.0
H253 H 0.59462 0.3486 0.76151 0.0
C254 C 0.56633 0.31729 0.82379 0.0
C255 C 0.55618 0.30598 0.85742 0.0
C256 C 0.61144 0.36359 0.81339 0.0
C257 C 0.59184 0.34163 0.88053 0.0
C258 C 0.6369 0.38758 0.87036 0.0
C259 C 0.69244 0.44506 0.82646 0.0
C260 C 0.70259 0.45643 0.79284 0.0
C261 C 0.64712 0.39897 0.83686 0.0
C262 C 0.66658 0.42113 0.76973 0.0
C263 C 0.62151 0.37515 0.77989 0.0
H264 H 0.59463 0.54436 0.22553 0.0
H265 H 0.59823 0.55711 0.12003 0.0
H266 H 0.50169 0.51314 0.11876 0.0
H267 H 0.41603 0.47218 0.14811 0.0
H268 H 0.4147 0.46663 0.25392 0.0
H269 H 0.51045 0.5064 0.25465 0.0
C270 C 0.57426 0.53723 0.20223 0.0
C271 C 0.60338 0.55354 0.17291 0.0
C272 C 0.51913 0.51325 0.20179 0.0
C273 C 0.57657 0.5449 0.14294 0.0
C274 C 0.52143 0.5197 0.14221 0.0
C275 C 0.43686 0.4795 0.17123 0.0
C276 C 0.4085 0.46639 0.20091 0.0
C277 C 0.49226 0.50382 0.17152 0.0
C278 C 0.43581 0.47664 0.23078 0.0
C279 C 0.49051 0.49927 0.23122 0.0
H280 H 0.04934 0.58631 0.56232 0.0
H281 H 0.04644 0.58125 0.45655 0.0
H282 H 0.98761 0.4854 0.45807 0.0
H283 H 0.93708 0.4029 0.48975 0.0
H284 H 0.93556 0.40995 0.5955 0.0
H285 H 0.99583 0.50511 0.59374 0.0
C286 C 0.03604 0.56415 0.5396 0.0
C287 C 0.05265 0.59063 0.50936 0.0
C288 C 1.00125 0.50945 0.5407 0.0
C289 C 0.03427 0.56165 0.48012 0.0
C290 C 1.00069 0.5069 0.481 0.0
C291 C 0.94997 0.42535 0.51238 0.0
C292 C 0.93203 0.39937 0.54272 0.0
C293 C 0.98391 0.48035 0.51117 0.0
C294 C 0.94857 0.42902 0.57183 0.0
C295 C 0.98321 0.48341 0.57086 0.0
H296 H 0.47898 0.05525 0.90625 0.0
H297 H 0.49091 0.07253 0.80101 0.0
H298 H 0.5305 0.01602 0.79798 0.0
H299 H 0.56022 0.96005 0.82521 0.0
H300 H 0.54179 0.93745 0.93003 0.0
H301 H 0.50626 0.99731 0.93327 0.0
C302 C 0.49068 0.04693 0.88272 0.0
C303 C 0.48246 0.06831 0.85394 0.0
C304 C 0.51198 0.01312 0.88107 0.0
C305 C 0.49687 0.05648 0.82352 0.0
C306 C 0.51951 0.02419 0.82176 0.0
C307 C 0.54851 0.96838 0.84873 0.0
C308 C 0.55369 0.94439 0.87731 0.0
C309 C 0.52699 1.00201 0.85036 0.0
C310 C 0.53788 0.95513 0.90761 0.0
C311 C 0.51773 0.98953 0.90953 0.0
H312 H 0.55142 0.59106 0.52065 0.0
H313 H 0.54318 0.59654 0.41509 0.0
H314 H 0.50627 0.50127 0.41209 0.0
H315 H 0.47501 0.41615 0.43919 0.0
H316 H 0.47679 0.40827 0.54481 0.0
H317 H 0.51754 0.5045 0.5481 0.0
C318 C 0.54163 0.57129 0.49705 0.0
C319 C 0.55005 0.60082 0.46816 0.0
C320 C 0.51927 0.51607 0.4955 0.0
C321 C 0.53675 0.57469 0.43772 0.0
C322 C 0.51579 0.5202 0.43594 0.0
C323 C 0.48469 0.43553 0.46293 0.0
C324 C 0.47336 0.40527 0.49169 0.0
C325 C 0.50676 0.4905 0.46464 0.0
C326 C 0.48521 0.4308 0.52231 0.0
C327 C 0.50851 0.48578 0.52419 0.0
H328 H 0.0087 0.59535 0.80685 0.0
H329 H 0.86361 0.44727 0.79916 0.0
H330 H 0.91221 0.39914 0.80386 0.0
H331 H 0.99671 0.39963 0.80854 0.0
H332 H 0.14237 0.54804 0.80902 0.0
H333 H 0.09334 0.59592 0.80882 0.0
C334 C 0.98794 0.55254 0.80645 0.0
C335 C 0.93287 0.5246 0.80309 0.0
C336 C 0.01636 0.52542 0.80778 0.0
C337 C 0.9061 0.46929 0.80187 0.0
C338 C 0.93384 0.4419 0.80455 0.0
C339 C 0.01746 0.44244 0.80885 0.0
C340 C 0.07284 0.47051 0.8092 0.0
C341 C 0.98902 0.46955 0.80733 0.0
C342 C 0.09966 0.52587 0.80887 0.0
C343 C 0.07167 0.55315 0.80876 0.0
H344 H 0.43289 0.9065 0.14226 0.0
H345 H 0.39595 0.03104 0.13035 0.0
H346 H 0.49002 0.09712 0.13141 0.0
H347 H 0.58326 0.11905 0.13401 0.0
H348 H 0.61943 0.99518 0.15204 0.0
H349 H 0.52549 0.92921 0.15055 0.0
C350 C 0.44567 0.94818 0.1401 0.0
C351 C 0.40799 0.96414 0.13599 0.0
C352 C 0.49962 0.98592 0.14183 0.0
C353 C 0.42455 0.01811 0.13362 0.0
C354 C 0.47823 0.05579 0.13411 0.0
C355 C 0.57032 0.07761 0.13783 0.0
C356 C 0.6079 0.06175 0.14293 0.0
C357 C 0.51617 0.04014 0.13795 0.0
C358 C 0.59098 0.00815 0.14822 0.0
C359 C 0.53737 0.97046 0.14722 0.0
H360 H 0.24935 0.36623 0.34131 0.0
H361 H 0.27787 0.28831 0.26024 0.0
H362 H 0.30629 0.24315 0.29817 0.0
H363 H 0.33272 0.23356 0.35355 0.0
H364 H 0.3046 0.31088 0.43496 0.0
H365 H 0.26562 0.34769 0.39779 0.0
C366 C 0.26101 0.33876 0.33198 0.0
C367 C 0.2622 0.33139 0.29792 0.0
C368 C 0.27771 0.31297 0.35397 0.0
C369 C 0.27689 0.29516 0.28629 0.0
C370 C 0.29335 0.26934 0.30797 0.0
C371 C 0.31731 0.2578 0.36323 0.0
C372 C 0.32214 0.27 0.39686 0.0
C373 C 0.29542 0.27917 0.34174 0.0
C374 C 0.30139 0.3009 0.40914 0.0
C375 C 0.27941 0.32227 0.38786 0.0
H376 H 0.99038 0.29337 0.60798 0.0
H377 H 0.86866 0.21011 0.6803 0.0
H378 H 0.93511 0.235 0.72305 0.0
H379 H 0.0263 0.28955 0.74099 0.0
H380 H 0.14825 0.37723 0.66954 0.0
H381 H 0.08341 0.34086 0.62539 0.0
C382 C 0.97856 0.27973 0.63296 0.0
C383 C 0.92473 0.25042 0.64104 0.0
C384 C 0.01699 0.29545 0.65767 0.0
C385 C 0.90989 0.23321 0.67354 0.0
C386 C 0.94784 0.24748 0.69802 0.0
C387 C 0.03896 0.30005 0.71573 0.0
C388 C 0.09194 0.33661 0.70867 0.0
C389 C 1.00133 0.28008 0.69056 0.0
C390 C 0.10761 0.34951 0.67573 0.0
C391 C 0.07051 0.32884 0.65044 0.0
H392 H 0.71424 0.98603 0.93966 0.0
H393 H 0.6525 0.86293 0.01291 0.0
H394 H 0.68826 0.92917 0.05642 0.0
H395 H 0.72653 0.02167 0.07346 0.0
H396 H 0.78215 0.14411 -0.00011 0.0
H397 H 0.75976 0.07848 0.95669 0.0
C398 C 0.70957 0.97359 0.96511 0.0
C399 C 0.68037 0.91967 0.97305 0.0
C400 C 0.72861 0.01182 0.98996 0.0
C401 C 0.6745 0.90425 0.00617 0.0
C402 C 0.69478 0.9421 0.03106 0.0
C403 C 0.73471 0.03408 0.04802 0.0
C404 C 0.75547 0.08756 0.03985 0.0
C405 C 0.72029 0.99598 0.02324 0.0
C406 C 0.76569 0.10307 0.00677 0.0
C407 C 0.75286 0.06558 0.98206 0.0
H408 H 0.66044 0.77506 0.33228 0.0
H409 H 0.72139 0.72072 0.41028 0.0
H410 H 0.76328 0.69143 0.37008 0.0
H411 H 0.77405 0.67221 0.31281 0.0
H412 H 0.71293 0.72641 0.23483 0.0
H413 H 0.68028 0.76526 0.275 0.0
C414 C 0.68354 0.75752 0.34051 0.0
C415 C 0.68715 0.74949 0.37422 0.0
C416 C 0.70721 0.74034 0.31726 0.0
C417 C 0.71777 0.72726 0.38448 0.0
C418 C 0.74156 0.71022 0.3615 0.0
C419 C 0.75426 0.69318 0.30457 0.0
C420 C 0.74536 0.69575 0.27088 0.0
C421 C 0.73522 0.71515 0.32782 0.0
C422 C 0.72018 0.72363 0.26061 0.0
C423 C 0.70124 0.74568 0.28358 0.0
H424 H 0.11353 0.75837 0.64603 0.0
H425 H 1.00253 0.71726 0.56639 0.0
H426 H 0.93007 0.68645 0.60553 0.0
H427 H 0.89726 0.66124 0.66173 0.0
H428 H 0.00759 0.70147 0.74155 0.0
H429 H 0.08127 0.74317 0.70299 0.0
C430 C 0.07359 0.74347 0.63724 0.0
C431 C 0.06346 0.73939 0.6033 0.0
C432 C 0.0319 0.72524 0.65989 0.0
C433 C 0.01153 0.72057 0.59236 0.0
C434 C 0.96994 0.70268 0.61473 0.0
C435 C 0.93745 0.6798 0.67075 0.0
C436 C 0.94695 0.67759 0.70435 0.0
C437 C 0.97952 0.70325 0.64845 0.0
C438 C 0.99921 0.70249 0.71576 0.0
C439 C 0.04137 0.72609 0.6937 0.0
H440 H 0.26917 0.97631 0.05143 0.0
H441 H 0.26411 0.85552 0.98796 0.0
H442 H 0.28846 0.91518 0.94106 0.0
H443 H 0.32288 0.00544 0.91973 0.0
H444 H 0.33306 0.12705 0.98445 0.0
H445 H 0.2942 0.06317 0.02896 0.0
C446 C 0.27247 0.96265 0.02726 0.0
C447 C 0.26554 0.91177 0.02335 0.0
C448 C 0.28771 0.99751 0.00056 0.0
C449 C 0.26973 0.89469 0.99177 0.0
C450 C 0.28376 0.92883 0.9649 0.0
C451 C 0.3152 0.0175 0.94333 0.0
C452 C 0.33102 0.07081 0.94892 0.0
C453 C 0.29452 0.98089 0.96921 0.0
C454 C 0.32148 0.0862 0.97969 0.0
C455 C 0.29946 0.04977 0.00518 0.0
H456 H 0.90998 0.21582 0.19954 0.0
H457 H 0.93259 0.24116 0.09512 0.0
H458 H 0.02824 0.28507 0.10236 0.0
H459 H 0.10571 0.31935 0.13873 0.0
H460 H 0.08274 0.30112 0.24348 0.0
H461 H 0.98716 0.25114 0.23586 0.0
C462 C 0.9359 0.23061 0.17838 0.0
C463 C 0.91437 0.2251 0.14685 0.0
C464 C 0.99082 0.25717 0.18283 0.0
C465 C 0.94833 0.24511 0.11966 0.0
C466 C 1.00299 0.27013 0.12377 0.0
C467 C 0.07967 0.30389 0.1598 0.0
C468 C 0.10104 0.31349 0.19158 0.0
C469 C 0.02471 0.27677 0.15527 0.0
C470 C 0.06703 0.29418 0.21877 0.0
C471 C 0.01245 0.26563 0.21443 0.0
H472 H 0.79357 0.09988 0.48065 0.0
H473 H 0.76889 0.07036 0.58467 0.0
H474 H 0.72864 0.97546 0.57503 0.0
H475 H 0.69668 0.90039 0.53674 0.0
H476 H 0.71474 0.92996 0.43255 0.0
H477 H 0.76164 0.02508 0.44247 0.0
C478 C 0.77976 0.07266 0.50121 0.0
C479 C 0.78429 0.09209 0.53331 0.0
C480 C 0.7554 0.01808 0.49542 0.0
C481 C 0.76564 0.05634 0.5597 0.0
C482 C 0.74271 1.00208 0.55421 0.0
C483 C 0.71152 0.92777 0.51629 0.0
C484 C 0.7026 0.90832 0.48399 0.0
C485 C 0.7369 0.98243 0.52215 0.0
C486 C 0.72115 0.94409 0.45764 0.0
C487 C 0.74791 0.99845 0.46329 0.0
H488 H 0.80094 0.69174 0.86151 0.0
H489 H 0.7851 0.70626 0.7574 0.0
H490 H 0.7425 0.75881 0.76773 0.0
H491 H 0.7058 0.79708 0.80654 0.0
H492 H 0.71475 0.77534 0.91052 0.0
H493 H 0.76418 0.72958 0.90017 0.0
C494 C 0.78862 0.70688 0.84111 0.0
C495 C 0.79634 0.69535 0.80875 0.0
C496 C 0.76275 0.73568 0.84725 0.0
C497 C 0.77947 0.71453 0.78254 0.0
C498 C 0.75515 0.7446 0.78843 0.0
C499 C 0.71917 0.78282 0.82688 0.0
C500 C 0.70696 0.78976 0.85923 0.0
C501 C 0.74605 0.75496 0.82069 0.0
C502 C 0.72366 0.77035 0.88539 0.0
C503 C 0.7519 0.74419 0.8795 0.0
H504 H 0.92305 0.65033 0.16364 0.0
H505 H 0.90865 0.78937 0.15348 0.0
H506 H 1.00359 0.84282 0.14253 0.0
H507 H 0.09103 0.84966 0.13641 0.0
H508 H 0.10269 0.70838 0.14039 0.0
H509 H 0.00855 0.65585 0.15307 0.0
C510 C 0.94091 0.69236 0.15901 0.0
C511 C 0.90952 0.71627 0.15967 0.0
C512 C 0.99488 0.72221 0.1516 0.0
C513 C 0.93244 0.77042 0.15309 0.0
C514 C 0.98658 0.80087 0.14691 0.0
C515 C 0.07271 0.80736 0.14002 0.0
C516 C 0.10344 0.78277 0.13777 0.0
C517 C 0.01824 0.7772 0.14619 0.0
C518 C 0.07951 0.72793 0.14197 0.0
C519 C 0.02584 0.69798 0.14931 0.0
H520 H 0.21962 0.92059 0.54429 0.0
H521 H 0.19483 0.88895 0.44051 0.0
H522 H 0.24192 0.98376 0.42898 0.0
H523 H 0.29366 0.0757 0.44841 0.0
H524 H 0.31361 0.10696 0.55243 0.0
H525 H 0.26472 0.01232 0.56389 0.0
C526 C 0.22431 0.93451 0.51916 0.0
C527 C 0.20422 0.89789 0.49326 0.0
C528 C 0.25067 0.98898 0.51278 0.0
C529 C 0.2099 0.91639 0.46086 0.0
C530 C 0.237 0.97058 0.45425 0.0
C531 C 0.28703 0.06171 0.47358 0.0
C532 C 0.30757 0.09822 0.49953 0.0
C533 C 0.2581 0.00722 0.48 0.0
C534 C 0.29812 0.07965 0.53203 0.0
C535 C 0.27034 0.02554 0.5386 0.0
H536 H 0.23738 0.29971 0.78 0.0
H537 H 0.19496 0.30277 0.88105 0.0
H538 H 0.24245 0.25731 0.89764 0.0
H539 H 0.29937 0.21991 0.88354 0.0
H540 H 0.33584 0.21097 0.78197 0.0
H541 H 0.28737 0.25533 0.76541 0.0
C542 C 0.23828 0.29006 0.80561 0.0
C543 C 0.21308 0.30484 0.8293 0.0
C544 C 0.2648 0.26308 0.81487 0.0
C545 C 0.21394 0.29159 0.86235 0.0
C546 C 0.24131 0.26586 0.87187 0.0
C547 C 0.29645 0.22757 0.8578 0.0
C548 C 0.32146 0.21268 0.83402 0.0
C549 C 0.26742 0.25196 0.84838 0.0
C550 C 0.31682 0.22204 0.8007 0.0
C551 C 0.28926 0.24753 0.79123 0.0
loop_
_geom_bond_atom_site_label_1
_geom_bond_atom_site_label_2
_geom_bond_distance
_geom_bond_site_symmetry_2
_ccdc_geom_bond_type
C0 O2 1.247 . S
C0 O4 1.258 . S
C1 O8 1.247 . S
C1 O9 1.258 . S
O2 C0 1.247 . S
O2 Zn3 2.028 . S
Zn3 O2 2.028 . S
Zn3 O7 2.035 . S
Zn3 O9 2.035 . S
Zn3 O10 2.028 . S
O4 C0 1.258 . S
O4 Zn5 2.035 . S
Zn5 O4 2.035 . S
Zn5 O6 2.028 . S
Zn5 O8 2.028 . S
Zn5 O11 2.035 . S
O6 Zn5 2.028 . S
O6 C12 1.247 . S
O7 Zn3 2.035 . S
O7 C12 1.258 . S
O8 C1 1.247 . S
O8 Zn5 2.028 . S
O9 C1 1.258 . S
O9 Zn3 2.035 . S
O10 Zn3 2.028 . S
O10 C13 1.247 . S
O11 Zn5 2.035 . S
O11 C13 1.258 . S
C12 O6 1.247 . S
C12 O7 1.258 . S
C13 O10 1.247 . S
C13 O11 1.258 . S
C14 O16 1.247 . S
C14 O18 1.258 . S
C15 O22 1.247 . S
C15 O23 1.258 . S
O16 C14 1.247 . S
O16 Zn17 2.028 . S
Zn17 O16 2.028 . S
Zn17 O21 2.035 . S
Zn17 O23 2.035 . S
Zn17 O24 2.028 . S
O18 C14 1.258 . S
O18 Zn19 2.035 . S
Zn19 O18 2.035 . S
Zn19 O20 2.028 . S
Zn19 O22 2.028 . S
Zn19 O25 2.035 . S
O20 Zn19 2.028 . S
O20 C26 1.247 . S
O21 Zn17 2.035 . S
O21 C26 1.258 . S
O22 C15 1.247 . S
O22 Zn19 2.028 . S
O23 C15 1.258 . S
O23 Zn17 2.035 . S
O24 Zn17 2.028 . S
O24 C27 1.247 . S
O25 Zn19 2.035 . S
O25 C27 1.258 . S
C26 O20 1.247 . S
C26 O21 1.258 . S
C27 O24 1.247 . S
C27 O25 1.258 . S
C28 O30 1.247 . S
C28 O32 1.258 . S
C29 O36 1.247 . S
C29 O37 1.258 . S
O30 C28 1.247 . S
O30 Zn31 2.028 . S
Zn31 O30 2.028 . S
Zn31 O35 2.035 . S
Zn31 O37 2.035 . S
Zn31 O38 2.028 . S
O32 C28 1.258 . S
O32 Zn33 2.035 . S
Zn33 O32 2.035 . S
Zn33 O34 2.028 . S
Zn33 O36 2.028 . S
Zn33 O39 2.035 . S
O34 Zn33 2.028 . S
O34 C40 1.247 . S
O35 Zn31 2.035 . S
O35 C40 1.258 . S
O36 C29 1.247 . S
O36 Zn33 2.028 . S
O37 C29 1.258 . S
O37 Zn31 2.035 . S
O38 Zn31 2.028 . S
O38 C41 1.247 . S
O39 Zn33 2.035 . S
O39 C41 1.258 . S
C40 O34 1.247 . S
C40 O35 1.258 . S
C41 O38 1.247 . S
C41 O39 1.258 . S
C42 O44 1.247 . S
C42 O46 1.258 . S
C43 O50 1.247 . S
C43 O51 1.258 . S
O44 C42 1.247 . S
O44 Zn45 2.028 . S
Zn45 O44 2.028 . S
Zn45 O49 2.035 . S
Zn45 O51 2.035 . S
Zn45 O52 2.028 . S
O46 C42 1.258 . S
O46 Zn47 2.035 . S
Zn47 O46 2.035 . S
Zn47 O48 2.028 . S
Zn47 O50 2.028 . S
Zn47 O53 2.035 . S
O48 Zn47 2.028 . S
O48 C54 1.247 . S
O49 Zn45 2.035 . S
O49 C54 1.258 . S
O50 C43 1.247 . S
O50 Zn47 2.028 . S
O51 C43 1.258 . S
O51 Zn45 2.035 . S
O52 Zn45 2.028 . S
O52 C55 1.247 . S
O53 Zn47 2.035 . S
O53 C55 1.258 . S
C54 O48 1.247 . S
C54 O49 1.258 . S
C55 O52 1.247 . S
C55 O53 1.258 . S
C56 O58 1.247 . S
C56 O60 1.258 . S
C57 O64 1.247 . S
C57 O65 1.258 . S
O58 C56 1.247 . S
O58 Zn59 2.028 . S
Zn59 O58 2.028 . S
Zn59 O63 2.035 . S
Zn59 O65 2.035 . S
Zn59 O66 2.028 . S
O60 C56 1.258 . S
O60 Zn61 2.035 . S
Zn61 O60 2.035 . S
Zn61 O62 2.028 . S
Zn61 O64 2.028 . S
Zn61 O67 2.035 . S
O62 Zn61 2.028 . S
O62 C68 1.247 . S
O63 Zn59 2.035 . S
O63 C68 1.258 . S
O64 C57 1.247 . S
O64 Zn61 2.028 . S
O65 C57 1.258 . S
O65 Zn59 2.035 . S
O66 Zn59 2.028 . S
O66 C69 1.247 . S
O67 Zn61 2.035 . S
O67 C69 1.258 . S
C68 O62 1.247 . S
C68 O63 1.258 . S
C69 O66 1.247 . S
C69 O67 1.258 . S
C70 O72 1.247 . S
C70 O74 1.258 . S
C71 O78 1.247 . S
C71 O79 1.258 . S
O72 C70 1.247 . S
O72 Zn73 2.028 . S
Zn73 O72 2.028 . S
Zn73 O77 2.035 . S
Zn73 O79 2.035 . S
Zn73 O80 2.028 . S
O74 C70 1.258 . S
O74 Zn75 2.035 . S
Zn75 O74 2.035 . S
Zn75 O76 2.028 . S
Zn75 O78 2.028 . S
Zn75 O81 2.035 . S
O76 Zn75 2.028 . S
O76 C82 1.247 . S
O77 Zn73 2.035 . S
O77 C82 1.258 . S
O78 C71 1.247 . S
O78 Zn75 2.028 . S
O79 C71 1.258 . S
O79 Zn73 2.035 . S
O80 Zn73 2.028 . S
O80 C83 1.247 . S
O81 Zn75 2.035 . S
O81 C83 1.258 . S
C82 O76 1.247 . S
C82 O77 1.258 . S
C83 O80 1.247 . S
C83 O81 1.258 . S
C84 O86 1.247 . S
C84 O88 1.258 . S
C85 O92 1.247 . S
C85 O93 1.258 . S
O86 C84 1.247 . S
O86 Zn87 2.028 . S
Zn87 O86 2.028 . S
Zn87 O91 2.035 . S
Zn87 O93 2.035 . S
Zn87 O94 2.028 . S
O88 C84 1.258 . S
O88 Zn89 2.035 . S
Zn89 O88 2.035 . S
Zn89 O90 2.028 . S
Zn89 O92 2.028 . S
Zn89 O95 2.035 . S
O90 Zn89 2.028 . S
O90 C96 1.247 . S
O91 Zn87 2.035 . S
O91 C96 1.258 . S
O92 C85 1.247 . S
O92 Zn89 2.028 . S
O93 C85 1.258 . S
O93 Zn87 2.035 . S
O94 Zn87 2.028 . S
O94 C97 1.247 . S
O95 Zn89 2.035 . S
O95 C97 1.258 . S
C96 O90 1.247 . S
C96 O91 1.258 . S
C97 O94 1.247 . S
C97 O95 1.258 . S
C98 O100 1.247 . S
C98 O102 1.258 . S
C99 O106 1.247 . S
C99 O107 1.258 . S
O100 C98 1.247 . S
O100 Zn101 2.028 . S
Zn101 O100 2.028 . S
Zn101 O105 2.035 . S
Zn101 O107 2.035 . S
Zn101 O108 2.028 . S
O102 C98 1.258 . S
O102 Zn103 2.035 . S
Zn103 O102 2.035 . S
Zn103 O104 2.028 . S
Zn103 O106 2.028 . S
Zn103 O109 2.035 . S
O104 Zn103 2.028 . S
O104 C110 1.247 . S
O105 Zn101 2.035 . S
O105 C110 1.258 . S
O106 C99 1.247 . S
O106 Zn103 2.028 . S
O107 C99 1.258 . S
O107 Zn101 2.035 . S
O108 Zn101 2.028 . S
O108 C111 1.247 . S
O109 Zn103 2.035 . S
O109 C111 1.258 . S
C110 O104 1.247 . S
C110 O105 1.258 . S
C111 O108 1.247 . S
C111 O109 1.258 . S
C112 O114 1.247 . S
C112 O116 1.258 . S
C113 O120 1.247 . S
C113 O121 1.258 . S
O114 C112 1.247 . S
O114 Zn115 2.028 . S
Zn115 O114 2.028 . S
Zn115 O119 2.035 . S
Zn115 O121 2.035 . S
Zn115 O122 2.028 . S
O116 C112 1.258 . S
O116 Zn117 2.035 . S
Zn117 O116 2.035 . S
Zn117 O118 2.028 . S
Zn117 O120 2.028 . S
Zn117 O123 2.035 . S
O118 Zn117 2.028 . S
O118 C124 1.247 . S
O119 Zn115 2.035 . S
O119 C124 1.258 . S
O120 C113 1.247 . S
O120 Zn117 2.028 . S
O121 C113 1.258 . S
O121 Zn115 2.035 . S
O122 Zn115 2.028 . S
O122 C125 1.247 . S
O123 Zn117 2.035 . S
O123 C125 1.258 . S
C124 O118 1.247 . S
C124 O119 1.258 . S
C125 O122 1.247 . S
C125 O123 1.258 . S
C126 O128 1.247 . S
C126 O130 1.258 . S
C127 O134 1.247 . S
C127 O135 1.258 . S
O128 C126 1.247 . S
O128 Zn129 2.028 . S
Zn129 O128 2.028 . S
Zn129 O133 2.035 . S
Zn129 O135 2.035 . S
Zn129 O136 2.028 . S
O130 C126 1.258 . S
O130 Zn131 2.035 . S
Zn131 O130 2.035 . S
Zn131 O132 2.028 . S
Zn131 O134 2.028 . S
Zn131 O137 2.035 . S
O132 Zn131 2.028 . S
O132 C138 1.247 . S
O133 Zn129 2.035 . S
O133 C138 1.258 . S
O134 C127 1.247 . S
O134 Zn131 2.028 . S
O135 C127 1.258 . S
O135 Zn129 2.035 . S
O136 Zn129 2.028 . S
O136 C139 1.247 . S
O137 Zn131 2.035 . S
O137 C139 1.258 . S
C138 O132 1.247 . S
C138 O133 1.258 . S
C139 O136 1.247 . S
C139 O137 1.258 . S
C140 O142 1.247 . S
C140 O144 1.258 . S
C141 O148 1.247 . S
C141 O149 1.258 . S
O142 C140 1.247 . S
O142 Zn143 2.028 . S
Zn143 O142 2.028 . S
Zn143 O147 2.035 . S
Zn143 O149 2.035 . S
Zn143 O150 2.028 . S
O144 C140 1.258 . S
O144 Zn145 2.035 . S
Zn145 O144 2.035 . S
Zn145 O146 2.028 . S
Zn145 O148 2.028 . S
Zn145 O151 2.035 . S
O146 Zn145 2.028 . S
O146 C152 1.247 . S
O147 Zn143 2.035 . S
O147 C152 1.258 . S
O148 C141 1.247 . S
O148 Zn145 2.028 . S
O149 C141 1.258 . S
O149 Zn143 2.035 . S
O150 Zn143 2.028 . S
O150 C153 1.247 . S
O151 Zn145 2.035 . S
O151 C153 1.258 . S
C152 O146 1.247 . S
C152 O147 1.258 . S
C153 O150 1.247 . S
C153 O151 1.258 . S
C154 O156 1.247 . S
C154 O158 1.258 . S
C155 O162 1.247 . S
C155 O163 1.258 . S
O156 C154 1.247 . S
O156 Zn157 2.028 . S
Zn157 O156 2.028 . S
Zn157 O161 2.035 . S
Zn157 O163 2.035 . S
Zn157 O164 2.028 . S
O158 C154 1.258 . S
O158 Zn159 2.035 . S
Zn159 O158 2.035 . S
Zn159 O160 2.028 . S
Zn159 O162 2.028 . S
Zn159 O165 2.035 . S
O160 Zn159 2.028 . S
O160 C166 1.247 . S
O161 Zn157 2.035 . S
O161 C166 1.258 . S
O162 C155 1.247 . S
O162 Zn159 2.028 . S
O163 C155 1.258 . S
O163 Zn157 2.035 . S
O164 Zn157 2.028 . S
O164 C167 1.247 . S
O165 Zn159 2.035 . S
O165 C167 1.258 . S
C166 O160 1.247 . S
C166 O161 1.258 . S
C167 O164 1.247 . S
C167 O165 1.258 . S
H168 C174 0.930 . S
H169 C177 0.930 . S
H170 C178 0.930 . S
H171 C179 0.930 . S
H172 C182 0.930 . S
H173 C183 0.930 . S
C174 H168 0.930 . S
C174 C175 1.355 . S
C174 C176 1.415 . S
C175 C174 1.355 . S
C175 C177 1.419 . S
C176 C174 1.415 . S
C176 C181 1.425 . S
C176 C183 1.409 . S
C177 H169 0.930 . S
C177 C175 1.419 . S
C177 C178 1.362 . S
C178 H170 0.930 . S
C178 C177 1.362 . S
C178 C181 1.409 . S
C179 H171 0.930 . S
C179 C180 1.355 . S
C179 C181 1.415 . S
C180 C179 1.355 . S
C180 C182 1.419 . S
C181 C176 1.425 . S
C181 C178 1.409 . S
C181 C179 1.415 . S
C182 H172 0.930 . S
C182 C180 1.419 . S
C182 C183 1.362 . S
C183 H173 0.930 . S
C183 C176 1.409 . S
C183 C182 1.362 . S
H184 C190 0.930 . S
H185 C193 0.930 . S
H186 C194 0.930 . S
H187 C195 0.930 . S
H188 C198 0.930 . S
H189 C199 0.930 . S
C190 H184 0.930 . S
C190 C191 1.355 . S
C190 C192 1.415 . S
C191 C190 1.355 . S
C191 C193 1.419 . S
C192 C190 1.415 . S
C192 C197 1.425 . S
C192 C199 1.409 . S
C193 H185 0.930 . S
C193 C191 1.419 . S
C193 C194 1.362 . S
C194 H186 0.930 . S
C194 C193 1.362 . S
C194 C197 1.409 . S
C195 H187 0.930 . S
C195 C196 1.355 . S
C195 C197 1.415 . S
C196 C195 1.355 . S
C196 C198 1.419 . S
C197 C192 1.425 . S
C197 C194 1.409 . S
C197 C195 1.415 . S
C198 H188 0.930 . S
C198 C196 1.419 . S
C198 C199 1.362 . S
C199 H189 0.930 . S
C199 C192 1.409 . S
C199 C198 1.362 . S
H200 C206 0.930 . S
H201 C209 0.930 . S
H202 C210 0.930 . S
H203 C211 0.930 . S
H204 C214 0.930 . S
H205 C215 0.930 . S
C206 H200 0.930 . S
C206 C207 1.355 . S
C206 C208 1.415 . S
C207 C206 1.355 . S
C207 C209 1.419 . S
C208 C206 1.415 . S
C208 C213 1.425 . S
C208 C215 1.409 . S
C209 H201 0.930 . S
C209 C207 1.419 . S
C209 C210 1.362 . S
C210 H202 0.930 . S
C210 C209 1.362 . S
C210 C213 1.409 . S
C211 H203 0.930 . S
C211 C212 1.355 . S
C211 C213 1.415 . S
C212 C211 1.355 . S
C212 C214 1.419 . S
C213 C208 1.425 . S
C213 C210 1.409 . S
C213 C211 1.415 . S
C214 H204 0.930 . S
C214 C212 1.419 . S
C214 C215 1.362 . S
C215 H205 0.930 . S
C215 C208 1.409 . S
C215 C214 1.362 . S
H216 C222 0.930 . S
H217 C225 0.930 . S
H218 C226 0.930 . S
H219 C227 0.930 . S
H220 C230 0.930 . S
H221 C231 0.930 . S
C222 H216 0.930 . S
C222 C223 1.355 . S
C222 C224 1.415 . S
C223 C222 1.355 . S
C223 C225 1.419 . S
C224 C222 1.415 . S
C224 C229 1.425 . S
C224 C231 1.409 . S
C225 H217 0.930 . S
C225 C223 1.419 . S
C225 C226 1.362 . S
C226 H218 0.930 . S
C226 C225 1.362 . S
C226 C229 1.409 . S
C227 H219 0.930 . S
C227 C228 1.355 . S
C227 C229 1.415 . S
C228 C227 1.355 . S
C228 C230 1.419 . S
C229 C224 1.425 . S
C229 C226 1.409 . S
C229 C227 1.415 . S
C230 H220 0.930 . S
C230 C228 1.419 . S
C230 C231 1.362 . S
C231 H221 0.930 . S
C231 C224 1.409 . S
C231 C230 1.362 . S
H232 C238 0.930 . S
H233 C241 0.930 . S
H234 C242 0.930 . S
H235 C243 0.930 . S
H236 C246 0.930 . S
H237 C247 0.930 . S
C238 H232 0.930 . S
C238 C239 1.355 . S
C238 C240 1.415 . S
C239 C238 1.355 . S
C239 C241 1.419 . S
C240 C238 1.415 . S
C240 C245 1.425 . S
C240 C247 1.409 . S
C241 H233 0.930 . S
C241 C239 1.419 . S
C241 C242 1.362 . S
C242 H234 0.930 . S
C242 C241 1.362 . S
C242 C245 1.409 . S
C243 H235 0.930 . S
C243 C244 1.355 . S
C243 C245 1.415 . S
C244 C243 1.355 . S
C244 C246 1.419 . S
C245 C240 1.425 . S
C245 C242 1.409 . S
C245 C243 1.415 . S
C246 H236 0.930 . S
C246 C244 1.419 . S
C246 C247 1.362 . S
C247 H237 0.930 . S
C247 C240 1.409 . S
C247 C246 1.362 . S
H248 C254 0.930 . S
H249 C257 0.930 . S
H250 C258 0.930 . S
H251 C259 0.930 . S
H252 C262 0.930 . S
H253 C263 0.930 . S
C254 H248 0.930 . S
C254 C255 1.355 . S
C254 C256 1.415 . S
C255 C254 1.355 . S
C255 C257 1.419 . S
C256 C254 1.415 . S
C256 C261 1.425 . S
C256 C263 1.409 . S
C257 H249 0.930 . S
C257 C255 1.419 . S
C257 C258 1.362 . S
C258 H250 0.930 . S
C258 C257 1.362 . S
C258 C261 1.409 . S
C259 H251 0.930 . S
C259 C260 1.355 . S
C259 C261 1.415 . S
C260 C259 1.355 . S
C260 C262 1.419 . S
C261 C256 1.425 . S
C261 C258 1.409 . S
C261 C259 1.415 . S
C262 H252 0.930 . S
C262 C260 1.419 . S
C262 C263 1.362 . S
C263 H253 0.930 . S
C263 C256 1.409 . S
C263 C262 1.362 . S
H264 C270 0.930 . S
H265 C273 0.930 . S
H266 C274 0.930 . S
H267 C275 0.930 . S
H268 C278 0.930 . S
H269 C279 0.930 . S
C270 H264 0.930 . S
C270 C271 1.355 . S
C270 C272 1.415 . S
C271 C270 1.355 . S
C271 C273 1.419 . S
C272 C270 1.415 . S
C272 C277 1.425 . S
C272 C279 1.409 . S
C273 H265 0.930 . S
C273 C271 1.419 . S
C273 C274 1.362 . S
C274 H266 0.930 . S
C274 C273 1.362 . S
C274 C277 1.409 . S
C275 H267 0.930 . S
C275 C276 1.355 . S
C275 C277 1.415 . S
C276 C275 1.355 . S
C276 C278 1.419 . S
C277 C272 1.425 . S
C277 C274 1.409 . S
C277 C275 1.415 . S
C278 H268 0.930 . S
C278 C276 1.419 . S
C278 C279 1.362 . S
C279 H269 0.930 . S
C279 C272 1.409 . S
C279 C278 1.362 . S
H280 C286 0.930 . S
H281 C289 0.930 . S
H282 C290 0.930 . S
H283 C291 0.930 . S
H284 C294 0.930 . S
H285 C295 0.930 . S
C286 H280 0.930 . S
C286 C287 1.355 . S
C286 C288 1.415 1_455 S
C287 C286 1.355 . S
C287 C289 1.419 . S
C288 C286 1.415 1_655 S
C288 C293 1.425 1_655 S
C288 C295 1.409 . S
C289 H281 0.930 . S
C289 C287 1.419 . S
C289 C290 1.362 . S
C290 H282 0.930 . S
C290 C289 1.362 . S
C290 C293 1.409 . S
C291 H283 0.930 . S
C291 C292 1.355 . S
C291 C293 1.415 1_655 S
C292 C291 1.355 . S
C292 C294 1.419 . S
C293 C288 1.425 1_455 S
C293 C290 1.409 . S
C293 C291 1.415 1_455 S
C294 H284 0.930 . S
C294 C292 1.419 . S
C294 C295 1.362 . S
C295 H285 0.930 . S
C295 C288 1.409 . S
C295 C294 1.362 . S
H296 C302 0.930 . S
H297 C305 0.930 . S
H298 C306 0.930 . S
H299 C307 0.930 . S
H300 C310 0.930 . S
H301 C311 0.930 . S
C302 H296 0.930 . S
C302 C303 1.355 . S
C302 C304 1.415 . S
C303 C302 1.355 . S
C303 C305 1.419 . S
C304 C302 1.415 . S
C304 C309 1.425 1_545 S
C304 C311 1.409 1_545 S
C305 H297 0.930 . S
C305 C303 1.419 . S
C305 C306 1.362 . S
C306 H298 0.930 . S
C306 C305 1.362 . S
C306 C309 1.409 1_545 S
C307 H299 0.930 . S
C307 C308 1.355 . S
C307 C309 1.415 . S
C308 C307 1.355 . S
C308 C310 1.419 . S
C309 C304 1.425 1_565 S
C309 C306 1.409 1_565 S
C309 C307 1.415 . S
C310 H300 0.930 . S
C310 C308 1.419 . S
C310 C311 1.362 . S
C311 H301 0.930 . S
C311 C304 1.409 1_565 S
C311 C310 1.362 . S
H312 C318 0.930 . S
H313 C321 0.930 . S
H314 C322 0.930 . S
H315 C323 0.930 . S
H316 C326 0.930 . S
H317 C327 0.930 . S
C318 H312 0.930 . S
C318 C319 1.355 . S
C318 C320 1.415 . S
C319 C318 1.355 . S
C319 C321 1.419 . S
C320 C318 1.415 . S
C320 C325 1.425 . S
C320 C327 1.409 . S
C321 H313 0.930 . S
C321 C319 1.419 . S
C321 C322 1.362 . S
C322 H314 0.930 . S
C322 C321 1.362 . S
C322 C325 1.409 . S
C323 H315 0.930 . S
C323 C324 1.355 . S
C323 C325 1.415 . S
C324 C323 1.355 . S
C324 C326 1.419 . S
C325 C320 1.425 . S
C325 C322 1.409 . S
C325 C323 1.415 . S
C326 H316 0.930 . S
C326 C324 1.419 . S
C326 C327 1.362 . S
C327 H317 0.930 . S
C327 C320 1.409 . S
C327 C326 1.362 . S
H328 C334 0.930 1_455 S
H329 C337 0.930 . S
H330 C338 0.930 . S
H331 C339 0.930 1_655 S
H332 C342 0.930 . S
H333 C343 0.930 . S
C334 H328 0.930 1_655 S
C334 C335 1.355 . S
C334 C336 1.415 1_655 S
C335 C334 1.355 . S
C335 C337 1.419 . S
C336 C334 1.415 1_455 S
C336 C341 1.425 1_455 S
C336 C343 1.409 . S
C337 H329 0.930 . S
C337 C335 1.419 . S
C337 C338 1.362 . S
C338 H330 0.930 . S
C338 C337 1.362 . S
C338 C341 1.409 . S
C339 H331 0.930 1_455 S
C339 C340 1.355 . S
C339 C341 1.415 1_455 S
C340 C339 1.355 . S
C340 C342 1.419 . S
C341 C336 1.425 1_655 S
C341 C338 1.409 . S
C341 C339 1.415 1_655 S
C342 H332 0.930 . S
C342 C340 1.419 . S
C342 C343 1.362 . S
C343 H333 0.930 . S
C343 C336 1.409 . S
C343 C342 1.362 . S
H344 C350 0.930 . S
H345 C353 0.930 . S
H346 C354 0.930 . S
H347 C355 0.930 . S
H348 C358 0.930 . S
H349 C359 0.930 . S
C350 H344 0.930 . S
C350 C351 1.355 . S
C350 C352 1.415 . S
C351 C350 1.355 . S
C351 C353 1.419 . S
C352 C350 1.415 . S
C352 C357 1.425 1_565 S
C352 C359 1.409 . S
C353 H345 0.930 . S
C353 C351 1.419 . S
C353 C354 1.362 1_565 S
C354 H346 0.930 . S
C354 C353 1.362 1_545 S
C354 C357 1.409 . S
C355 H347 0.930 . S
C355 C356 1.355 . S
C355 C357 1.415 . S
C356 C355 1.355 . S
C356 C358 1.419 . S
C357 C352 1.425 1_545 S
C357 C354 1.409 . S
C357 C355 1.415 . S
C358 H348 0.930 . S
C358 C356 1.419 . S
C358 C359 1.362 1_545 S
C359 H349 0.930 . S
C359 C352 1.409 . S
C359 C358 1.362 1_565 S
H360 C366 0.930 . S
H361 C369 0.930 . S
H362 C370 0.930 . S
H363 C371 0.930 . S
H364 C374 0.930 . S
H365 C375 0.930 . S
C366 H360 0.930 . S
C366 C367 1.355 . S
C366 C368 1.415 . S
C367 C366 1.355 . S
C367 C369 1.419 . S
C368 C366 1.415 . S
C368 C373 1.425 . S
C368 C375 1.409 . S
C369 H361 0.930 . S
C369 C367 1.419 . S
C369 C370 1.362 . S
C370 H362 0.930 . S
C370 C369 1.362 . S
C370 C373 1.409 . S
C371 H363 0.930 . S
C371 C372 1.355 . S
C371 C373 1.415 . S
C372 C371 1.355 . S
C372 C374 1.419 . S
C373 C368 1.425 . S
C373 C370 1.409 . S
C373 C371 1.415 . S
C374 H364 0.930 . S
C374 C372 1.419 . S
C374 C375 1.362 . S
C375 H365 0.930 . S
C375 C368 1.409 . S
C375 C374 1.362 . S
H376 C382 0.930 . S
H377 C385 0.930 . S
H378 C386 0.930 . S
H379 C387 0.930 . S
H380 C390 0.930 . S
H381 C391 0.930 . S
C382 H376 0.930 . S
C382 C383 1.355 1_455 S
C382 C384 1.415 . S
C383 C382 1.355 1_655 S
C383 C385 1.419 . S
C384 C382 1.415 . S
C384 C389 1.425 1_455 S
C384 C391 1.409 . S
C385 H377 0.930 . S
C385 C383 1.419 . S
C385 C386 1.362 . S
C386 H378 0.930 . S
C386 C385 1.362 . S
C386 C389 1.409 . S
C387 H379 0.930 . S
C387 C388 1.355 1_655 S
C387 C389 1.415 . S
C388 C387 1.355 1_455 S
C388 C390 1.419 . S
C389 C384 1.425 1_655 S
C389 C386 1.409 . S
C389 C387 1.415 . S
C390 H380 0.930 . S
C390 C388 1.419 . S
C390 C391 1.362 . S
C391 H381 0.930 . S
C391 C384 1.409 . S
C391 C390 1.362 . S
H392 C398 0.930 . S
H393 C401 0.930 . S
H394 C402 0.930 1_554 S
H395 C403 0.930 . S
H396 C406 0.930 . S
H397 C407 0.930 1_556 S
C398 H392 0.930 . S
C398 C399 1.355 1_545 S
C398 C400 1.415 . S
C399 C398 1.355 1_565 S
C399 C401 1.419 . S
C400 C398 1.415 . S
C400 C405 1.425 1_546 S
C400 C407 1.409 1_556 S
C401 H393 0.930 . S
C401 C399 1.419 . S
C401 C402 1.362 . S
C402 H394 0.930 1_556 S
C402 C401 1.362 . S
C402 C405 1.409 1_556 S
C403 H395 0.930 . S
C403 C404 1.355 1_565 S
C403 C405 1.415 . S
C404 C403 1.355 1_545 S
C404 C406 1.419 . S
C405 C400 1.425 1_564 S
C405 C402 1.409 1_554 S
C405 C403 1.415 . S
C406 H396 0.930 . S
C406 C404 1.419 . S
C406 C407 1.362 . S
C407 H397 0.930 1_554 S
C407 C400 1.409 1_554 S
C407 C406 1.362 . S
H408 C414 0.930 . S
H409 C417 0.930 . S
H410 C418 0.930 . S
H411 C419 0.930 . S
H412 C422 0.930 . S
H413 C423 0.930 . S
C414 H408 0.930 . S
C414 C415 1.355 . S
C414 C416 1.415 . S
C415 C414 1.355 . S
C415 C417 1.419 . S
C416 C414 1.415 . S
C416 C421 1.425 . S
C416 C423 1.409 . S
C417 H409 0.930 . S
C417 C415 1.419 . S
C417 C418 1.362 . S
C418 H410 0.930 . S
C418 C417 1.362 . S
C418 C421 1.409 . S
C419 H411 0.930 . S
C419 C420 1.355 . S
C419 C421 1.415 . S
C420 C419 1.355 . S
C420 C422 1.419 . S
C421 C416 1.425 . S
C421 C418 1.409 . S
C421 C419 1.415 . S
C422 H412 0.930 . S
C422 C420 1.419 . S
C422 C423 1.362 . S
C423 H413 0.930 . S
C423 C416 1.409 . S
C423 C422 1.362 . S
H424 C430 0.930 . S
H425 C433 0.930 . S
H426 C434 0.930 . S
H427 C435 0.930 . S
H428 C438 0.930 . S
H429 C439 0.930 . S
C430 H424 0.930 . S
C430 C431 1.355 . S
C430 C432 1.415 . S
C431 C430 1.355 . S
C431 C433 1.419 1_455 S
C432 C430 1.415 . S
C432 C437 1.425 1_455 S
C432 C439 1.409 . S
C433 H425 0.930 . S
C433 C431 1.419 1_655 S
C433 C434 1.362 . S
C434 H426 0.930 . S
C434 C433 1.362 . S
C434 C437 1.409 . S
C435 H427 0.930 . S
C435 C436 1.355 . S
C435 C437 1.415 . S
C436 C435 1.355 . S
C436 C438 1.419 1_655 S
C437 C432 1.425 1_655 S
C437 C434 1.409 . S
C437 C435 1.415 . S
C438 H428 0.930 . S
C438 C436 1.419 1_455 S
C438 C439 1.362 . S
C439 H429 0.930 . S
C439 C432 1.409 . S
C439 C438 1.362 . S
H440 C446 0.930 1_545 S
H441 C449 0.930 . S
H442 C450 0.917 1_556 S
H443 C451 0.930 1_565 S
H444 C454 0.930 . S
H445 C455 0.917 1_554 S
C446 H440 0.930 1_565 S
C446 C447 1.355 . S
C446 C448 1.415 1_565 S
C447 C446 1.355 . S
C447 C449 1.419 . S
C448 C446 1.415 1_545 S
C448 C453 1.425 1_544 S
C448 C455 1.409 1_554 S
C449 H441 0.930 . S
C449 C447 1.419 . S
C449 C450 1.362 . S
C450 H442 0.917 1_554 S
C450 C449 1.362 . S
C450 C453 1.409 1_554 S
C451 H443 0.930 1_545 S
C451 C452 1.355 . S
C451 C453 1.415 1_545 S
C452 C451 1.355 . S
C452 C454 1.419 . S
C453 C448 1.425 1_566 S
C453 C450 1.409 1_556 S
C453 C451 1.415 1_565 S
C454 H444 0.930 . S
C454 C452 1.419 . S
C454 C455 1.362 . S
C455 H445 0.917 1_556 S
C455 C448 1.409 1_556 S
C455 C454 1.362 . S
H456 C462 0.930 . S
H457 C465 0.930 . S
H458 C466 0.930 1_455 S
H459 C467 0.930 . S
H460 C470 0.930 . S
H461 C471 0.930 1_655 S
C462 H456 0.930 . S
C462 C463 1.355 . S
C462 C464 1.415 . S
C463 C462 1.355 . S
C463 C465 1.419 . S
C464 C462 1.415 . S
C464 C469 1.425 1_655 S
C464 C471 1.409 1_655 S
C465 H457 0.930 . S
C465 C463 1.419 . S
C465 C466 1.362 . S
C466 H458 0.930 1_655 S
C466 C465 1.362 . S
C466 C469 1.409 1_655 S
C467 H459 0.930 . S
C467 C468 1.355 . S
C467 C469 1.415 . S
C468 C467 1.355 . S
C468 C470 1.419 . S
C469 C464 1.425 1_455 S
C469 C466 1.409 1_455 S
C469 C467 1.415 . S
C470 H460 0.930 . S
C470 C468 1.419 . S
C470 C471 1.362 . S
C471 H461 0.930 1_455 S
C471 C464 1.409 1_455 S
C471 C470 1.362 . S
H472 C478 0.930 . S
H473 C481 0.930 . S
H474 C482 0.930 1_565 S
H475 C483 0.930 . S
H476 C486 0.930 . S
H477 C487 0.930 1_545 S
C478 H472 0.930 . S
C478 C479 1.355 . S
C478 C480 1.415 . S
C479 C478 1.355 . S
C479 C481 1.419 . S
C480 C478 1.415 . S
C480 C485 1.425 1_545 S
C480 C487 1.409 1_545 S
C481 H473 0.930 . S
C481 C479 1.419 . S
C481 C482 1.362 . S
C482 H474 0.930 1_545 S
C482 C481 1.362 . S
C482 C485 1.409 1_545 S
C483 H475 0.930 . S
C483 C484 1.355 . S
C483 C485 1.415 . S
C484 C483 1.355 . S
C484 C486 1.419 . S
C485 C480 1.425 1_565 S
C485 C482 1.409 1_565 S
C485 C483 1.415 . S
C486 H476 0.930 . S
C486 C484 1.419 . S
C486 C487 1.362 . S
C487 H477 0.930 1_565 S
C487 C480 1.409 1_565 S
C487 C486 1.362 . S
H488 C494 0.930 . S
H489 C497 0.930 . S
H490 C498 0.930 . S
H491 C499 0.930 . S
H492 C502 0.930 . S
H493 C503 0.930 . S
C494 H488 0.930 . S
C494 C495 1.355 . S
C494 C496 1.415 . S
C495 C494 1.355 . S
C495 C497 1.419 . S
C496 C494 1.415 . S
C496 C501 1.425 . S
C496 C503 1.409 . S
C497 H489 0.930 . S
C497 C495 1.419 . S
C497 C498 1.362 . S
C498 H490 0.930 . S
C498 C497 1.362 . S
C498 C501 1.409 . S
C499 H491 0.930 . S
C499 C500 1.355 . S
C499 C501 1.415 . S
C500 C499 1.355 . S
C500 C502 1.419 . S
C501 C496 1.425 . S
C501 C498 1.409 . S
C501 C499 1.415 . S
C502 H492 0.930 . S
C502 C500 1.419 . S
C502 C503 1.362 . S
C503 H493 0.930 . S
C503 C496 1.409 . S
C503 C502 1.362 . S
H504 C510 0.930 . S
H505 C513 0.930 . S
H506 C514 0.930 . S
H507 C515 0.930 . S
H508 C518 0.930 . S
H509 C519 0.930 . S
C510 H504 0.930 . S
C510 C511 1.355 . S
C510 C512 1.415 . S
C511 C510 1.355 . S
C511 C513 1.419 . S
C512 C510 1.415 . S
C512 C517 1.425 1_655 S
C512 C519 1.409 1_655 S
C513 H505 0.930 . S
C513 C511 1.419 . S
C513 C514 1.362 . S
C514 H506 0.930 . S
C514 C513 1.362 . S
C514 C517 1.409 1_655 S
C515 H507 0.930 . S
C515 C516 1.355 . S
C515 C517 1.415 . S
C516 C515 1.355 . S
C516 C518 1.419 . S
C517 C512 1.425 1_455 S
C517 C514 1.409 1_455 S
C517 C515 1.415 . S
C518 H508 0.930 . S
C518 C516 1.419 . S
C518 C519 1.362 . S
C519 H509 0.930 . S
C519 C512 1.409 1_455 S
C519 C518 1.362 . S
H520 C526 0.930 . S
H521 C529 0.930 . S
H522 C530 0.930 . S
H523 C531 0.930 . S
H524 C534 0.930 . S
H525 C535 0.930 . S
C526 H520 0.930 . S
C526 C527 1.355 . S
C526 C528 1.415 . S
C527 C526 1.355 . S
C527 C529 1.419 . S
C528 C526 1.415 . S
C528 C533 1.425 1_565 S
C528 C535 1.409 1_565 S
C529 H521 0.930 . S
C529 C527 1.419 . S
C529 C530 1.362 . S
C530 H522 0.930 . S
C530 C529 1.362 . S
C530 C533 1.409 1_565 S
C531 H523 0.930 . S
C531 C532 1.355 . S
C531 C533 1.415 . S
C532 C531 1.355 . S
C532 C534 1.419 . S
C533 C528 1.425 1_545 S
C533 C530 1.409 1_545 S
C533 C531 1.415 . S
C534 H524 0.930 . S
C534 C532 1.419 . S
C534 C535 1.362 . S
C535 H525 0.930 . S
C535 C528 1.409 1_545 S
C535 C534 1.362 . S
H536 C542 0.930 . S
H537 C545 0.930 . S
H538 C546 0.930 . S
H539 C547 0.930 . S
H540 C550 0.930 . S
H541 C551 0.930 . S
C542 H536 0.930 . S
C542 C543 1.355 . S
C542 C544 1.415 . S
C543 C542 1.355 . S
C543 C545 1.419 . S
C544 C542 1.415 . S
C544 C549 1.425 . S
C544 C551 1.409 . S
C545 H537 0.930 . S
C545 C543 1.419 . S
C545 C546 1.362 . S
C546 H538 0.930 . S
C546 C545 1.362 . S
C546 C549 1.409 . S
C547 H539 0.930 . S
C547 C548 1.355 . S
C547 C549 1.415 . S
C548 C547 1.355 . S
C548 C550 1.419 . S
C549 C544 1.425 . S
C549 C546 1.409 . S
C549 C547 1.415 . S
C550 H540 0.930 . S
C550 C548 1.419 . S
C550 C551 1.362 . S
C551 H541 0.930 . S
C551 C544 1.409 . S
C551 C550 1.362 . S
C175 C112 2.151 . S
C180 C1 2.162 . S
C191 C27 2.133 . S
C196 C126 2.154 . S
C207 C29 2.170 . S
C212 C141 2.162 . S
C223 C43 2.150 . S
C228 C154 2.168 . S
C239 C84 2.174 . S
C244 C57 2.160 . S
C255 C71 2.108 . S
C260 C99 2.112 . S
C271 C55 1.459 . S
C276 C13 1.473 . S
C287 C69 1.472 . S
C292 C15 1.479 . S
C303 C83 1.464 . S
C308 C41 1.479 . S
C319 C96 1.477 . S
C324 C138 1.462 . S
C335 C111 1.480 . S
C340 C153 1.470 . S
C351 C124 1.461 . S
C356 C166 1.466 . S
C367 C0 1.899 . S
C372 C127 1.870 . S
C383 C26 1.874 . S
C388 C140 1.850 . S
C399 C28 1.844 . S
C404 C155 1.844 . S
C415 C85 1.852 . S
C420 C42 1.882 . S
C431 C56 1.909 . S
C436 C98 1.897 . S
C447 C113 1.841 . S
C452 C70 1.864 . S
C463 C167 1.462 . S
C468 C12 1.468 . S
C479 C14 1.465 . S
C484 C97 1.455 . S
C495 C110 1.468 . S
C500 C40 1.466 . S
C511 C54 1.448 . S
C516 C125 1.458 . S
C527 C68 1.452 . S
C532 C139 1.462 . S
C543 C152 1.432 . S
C548 C82 1.442 . S
