# Generated by pormake.
# Topology lhb, (8)-cn, num edge types: 1
# Building blocks:
#     Node 0, Type 0, BuildingBlock: LIZSOE_clean_sbu_0, # of connection points: 8
#     Node 1, Type 0, BuildingBlock: LIZSOE_clean_sbu_0, # of connection points: 8
#     Node 2, Type 0, BuildingBlock: LIZSOE_clean_sbu_0, # of connection points: 8
#     Node 3, Type 0, BuildingBlock: LIZSOE_clean_sbu_0, # of connection points: 8
#     Node 4, Type 0, BuildingBlock: LIZSOE_clean_sbu_0, # of connection points: 8
#     Node 5, Type 0, BuildingBlock: LIZSOE_clean_sbu_0, # of connection points: 8
#     Node 6, Type 0, BuildingBlock: LIZSOE_clean_sbu_0, # of connection points: 8
#     Node 7, Type 0, BuildingBlock: LIZSOE_clean_sbu_0, # of connection points: 8
#     Edge 8, Type (0, 0), None
#     Edge 9, Type (0, 0), None
#     Edge 10, Type (0, 0), None
#     Edge 11, Type (0, 0), None
#     Edge 12, Type (0, 0), None
#     Edge 13, Type (0, 0), None
#     Edge 14, Type (0, 0), None
#     Edge 15, Type (0, 0), None
#     Edge 16, Type (0, 0), None
#     Edge 17, Type (0, 0), None
#     Edge 18, Type (0, 0), None
#     Edge 19, Type (0, 0), None
#     Edge 20, Type (0, 0), None
#     Edge 21, Type (0, 0), None
#     Edge 22, Type (0, 0), None
#     Edge 23, Type (0, 0), None
#     Edge 24, Type (0, 0), None
#     Edge 25, Type (0, 0), None
#     Edge 26, Type (0, 0), None
#     Edge 27, Type (0, 0), None
#     Edge 28, Type (0, 0), None
#     Edge 29, Type (0, 0), None
#     Edge 30, Type (0, 0), None
#     Edge 31, Type (0, 0), None
#     Edge 32, Type (0, 0), None
#     Edge 33, Type (0, 0), None
#     Edge 34, Type (0, 0), None
#     Edge 35, Type (0, 0), None
#     Edge 36, Type (0, 0), None
#     Edge 37, Type (0, 0), None
#     Edge 38, Type (0, 0), None
#     Edge 39, Type (0, 0), None
# Relax obj value: 0.396
# Max RMSD: 0.270
# Mean RMSD: 0.270
data_MOF--net-lhb--node1-LIZSOE_clean_sbu_0--edge1-none
_symmetry_space_group_name_H-M    P1
_symmetry_Int_Tables_number       1
_symmetry_cell_setting            triclinic
loop_
_symmetry_equiv_pos_as_xyz
'x, y, z'
_cell_length_a     24.248111
_cell_length_b     6.9521079
_cell_length_c     19.191917
_cell_angle_alpha  90.007873
_cell_angle_beta   89.999494
_cell_angle_gamma 90.001537
loop_
_atom_site_label
_atom_site_type_symbol
_atom_site_fract_x
_atom_site_fract_y
_atom_site_fract_z
_atom_type_partial_charge
Co0 Co 0.17412 0.4585 1.00125 0.0
N1 N 0.23606 0.56188 0.99179 0.0
C2 C 0.25193 0.57846 0.92662 0.0
N3 N 0.32118 0.47612 0.98775 0.0
C4 C 0.28048 0.5259 0.02995 0.0
C5 C 0.30687 0.55734 0.92667 0.0
Co6 Co 0.98121 0.79647 1.00118 0.0
N7 N 0.91927 0.69303 0.99171 0.0
N8 N 0.83418 0.77932 0.98773 0.0
C9 C 0.84845 0.69832 0.9266 0.0
C10 C 0.90339 0.67679 0.92653 0.0
C11 C 0.87487 0.72915 0.0299 0.0
Co12 Co 0.07766 0.12752 0.02409 0.0
C13 C 1.05249 0.67557 0.01248 0.0
H14 H 0.93085 0.67857 0.88219 0.0
O15 O 0.10706 0.39184 0.01552 0.0
O16 O 1.01272 1.11365 0.10836 0.0
O17 O 0.1426 0.14137 0.10835 0.0
O18 O 0.13749 1.05027 0.94625 0.0
O19 O 0.20924 0.19741 0.98539 0.0
O20 O 0.96929 0.82762 0.09198 0.0
O21 O 1.04826 0.86319 0.01548 0.0
O22 O 0.94608 1.05755 0.9853 0.0
O23 O 0.18602 0.42742 0.09203 0.0
O24 O 0.14579 0.6852 0.01357 0.0
O25 O 1.01783 0.2048 0.94626 0.0
O26 O 1.00954 0.56983 0.01352 0.0
C27 C 0.17917 0.27956 0.12859 0.0
C28 C 0.86277 0.60073 0.09044 0.0
H29 H 0.88938 0.63546 0.13505 0.0
H30 H 0.81885 0.6109 0.10575 0.0
H31 H 0.87271 0.45042 0.07584 0.0
C32 C 0.97615 0.97542 0.12857 0.0
C33 C 0.19129 1.06174 0.94702 0.0
H34 H 0.22446 0.57662 0.88229 0.0
H35 H 0.28255 0.80456 0.07599 0.0
H36 H 0.33645 0.64421 0.10586 0.0
H37 H 0.26592 0.61937 0.13513 0.0
C38 C 0.29253 0.65426 0.09054 0.0
C39 C 0.10284 0.57946 0.01249 0.0
C40 C 0.96404 0.19337 0.947 0.0
H41 H 0.33044 0.5443 0.88081 0.0
H42 H 0.82478 0.71149 0.88083 0.0
Co43 Co 0.23117 0.70854 0.25125 0.0
N44 N 0.16924 0.81199 0.24181 0.0
C45 C 0.15338 0.82854 0.17665 0.0
N46 N 0.08412 0.72614 0.23777 0.0
C47 C 0.12482 0.77596 0.27997 0.0
C48 C 0.09843 0.80736 0.17669 0.0
Co49 Co 0.42409 1.0464 0.25116 0.0
N50 N 0.48603 0.94295 0.24167 0.0
N51 N 0.57111 1.02925 0.23767 0.0
C52 C 0.55682 0.94829 0.17654 0.0
C53 C 0.50189 0.92673 0.17649 0.0
C54 C 0.53043 0.97908 0.27985 0.0
Co55 Co 0.32764 0.37747 0.27408 0.0
C56 C 0.35281 0.92552 0.26248 0.0
H57 H 0.47442 0.92848 0.13216 0.0
O58 O 0.29823 0.6418 0.26551 0.0
O59 O 0.39259 0.36361 0.35833 0.0
O60 O 0.26271 0.39134 0.35834 0.0
O61 O 0.26781 0.30014 0.19625 0.0
O62 O 0.19603 0.44751 0.23536 0.0
O63 O 0.43602 1.07759 0.34195 0.0
O64 O 0.35705 1.11314 0.26546 0.0
O65 O 0.45922 0.30747 0.23525 0.0
O66 O 0.21927 0.67738 0.34203 0.0
O67 O 0.25952 0.93518 0.26359 0.0
O68 O 0.38747 0.45475 0.19623 0.0
O69 O 0.39576 0.81976 0.26351 0.0
C70 C 0.22613 0.52952 0.37858 0.0
C71 C 0.54254 0.85067 0.34039 0.0
H72 H 0.51592 0.88538 0.385 0.0
H73 H 0.58646 0.86089 0.3557 0.0
H74 H 0.53262 0.70035 0.32579 0.0
C75 C 0.42916 0.22538 0.37855 0.0
C76 C 0.21402 0.31185 0.19703 0.0
H77 H 0.18085 0.82667 0.13231 0.0
H78 H 0.12275 1.05457 0.32605 0.0
H79 H 1.06884 0.89422 0.35588 0.0
H80 H 0.13936 0.86932 0.38517 0.0
C81 C 0.11276 0.90427 0.34058 0.0
C82 C 0.30246 0.82942 0.26249 0.0
C83 C 0.44127 0.44329 0.19696 0.0
H84 H 1.07487 0.79428 0.13082 0.0
H85 H 0.58049 0.96145 0.13076 0.0
Co86 Co 0.73121 0.20841 0.25124 0.0
N87 N 0.66927 0.31181 0.24179 0.0
C88 C 0.65344 0.32839 0.17659 0.0
N89 N 0.58422 0.22589 0.23764 0.0
C90 C 0.62485 0.27561 0.27993 0.0
C91 C 0.59849 0.30698 0.17654 0.0
Co92 Co 0.92413 0.54626 0.25117 0.0
N93 N 0.98608 0.44275 0.24177 0.0
N94 N 1.07108 0.52944 0.23779 0.0
C95 C 1.05691 0.44851 0.17662 0.0
C96 C 1.00198 0.42664 0.17658 0.0
C97 C 1.03044 0.47918 0.28 0.0
Co98 Co 0.82766 0.87738 0.27406 0.0
C99 C 0.85283 0.42543 0.26244 0.0
H100 H 0.97452 0.42849 0.13224 0.0
O101 O 0.79825 0.14171 0.2655 0.0
O102 O 0.89259 0.86356 0.35833 0.0
O103 O 0.76272 0.89123 0.35832 0.0
O104 O 0.76782 0.80012 0.19622 0.0
O105 O 0.69609 0.9473 0.23537 0.0
O106 O 0.93601 0.5775 0.34199 0.0
O107 O 0.85708 0.61305 0.26542 0.0
O108 O 0.95928 0.80731 0.23525 0.0
O109 O 0.71931 0.17733 0.34203 0.0
O110 O 0.75954 0.43509 0.26356 0.0
O111 O 0.88748 0.95475 0.19625 0.0
O112 O 0.89578 0.31966 0.26353 0.0
C113 C 0.72616 1.02946 0.37857 0.0
C114 C 1.0426 0.35075 0.34051 0.0
H115 H 1.01601 0.38543 0.38514 0.0
H116 H 0.08653 0.36098 0.35578 0.0
H117 H 1.03267 0.20043 0.32592 0.0
C118 C 0.92916 0.72535 0.37856 0.0
C119 C 0.71403 0.81163 0.19699 0.0
H120 H 0.68094 0.32663 0.13229 0.0
H121 H 0.62267 0.55432 0.32592 0.0
H122 H 0.56879 0.39384 0.35575 0.0
H123 H 0.63932 0.36924 0.3851 0.0
C124 C 0.61272 0.404 0.34049 0.0
C125 C 0.80249 0.32933 0.26247 0.0
C126 C 0.94127 0.94313 0.197 0.0
H127 H 0.57494 0.29384 0.13068 0.0
H128 H 0.08058 0.46198 0.13087 0.0
Co129 Co 0.17413 0.95851 0.50126 0.0
N130 N 0.23606 1.06197 0.49181 0.0
C131 C 0.25192 1.07851 0.42664 0.0
N132 N 0.32118 0.97617 0.48776 0.0
C133 C 0.28048 1.02598 0.52996 0.0
C134 C 0.30687 1.05737 0.42668 0.0
Co135 Co 0.98119 0.29628 0.5012 0.0
N136 N 0.91926 0.19274 0.49174 0.0
N137 N 0.83418 0.27912 0.48774 0.0
C138 C 0.84846 0.19814 0.42661 0.0
C139 C 0.90339 0.17656 0.42656 0.0
C140 C 0.87486 0.22891 0.52992 0.0
Co141 Co 0.07766 0.62743 0.5241 0.0
C142 C 1.05249 0.17547 0.51255 0.0
H143 H 0.93086 0.1784 0.38222 0.0
O144 O 0.10708 0.89176 0.51553 0.0
O145 O 1.01271 0.61363 0.60835 0.0
O146 O 0.1426 0.64127 0.60836 0.0
O147 O 0.13749 0.55008 0.44627 0.0
O148 O 0.20927 0.69749 0.48535 0.0
O149 O 0.96925 0.32765 0.59198 0.0
O150 O 1.04824 0.36309 0.5155 0.0
O151 O 0.94604 0.55727 0.48523 0.0
O152 O 0.18604 0.9273 0.59203 0.0
O153 O 0.14578 0.18515 0.51362 0.0
O154 O 1.01783 0.70478 0.44626 0.0
O155 O 1.00954 1.06969 0.51362 0.0
C156 C 0.17918 0.77945 0.62859 0.0
C157 C 0.86275 1.1006 0.59049 0.0
H158 H 0.88936 0.13545 0.63509 0.0
H159 H 0.81883 1.11077 0.60578 0.0
H160 H 0.87271 0.95027 0.57593 0.0
C161 C 0.97612 0.47547 0.62856 0.0
C162 C 0.19128 0.5618 0.44703 0.0
H163 H 0.22445 1.07662 0.38231 0.0
H164 H 0.28255 0.30461 0.57603 0.0
H165 H 0.33644 0.14425 0.60589 0.0
H166 H 0.26591 1.11938 0.63515 0.0
C167 C 0.29252 0.1543 0.59057 0.0
C168 C 0.10283 1.07938 0.51255 0.0
C169 C 0.96404 0.6931 0.44699 0.0
H170 H 0.33043 1.04429 0.38081 0.0
H171 H 0.8248 0.21138 0.38083 0.0
Co172 Co 0.23116 0.20849 0.75123 0.0
N173 N 0.16921 0.3119 0.7418 0.0
C174 C 0.15329 0.32838 0.67666 0.0
N175 N 0.0841 0.22596 0.73788 0.0
C176 C 0.12482 0.27592 0.78002 0.0
C177 C 0.09834 0.30719 0.67678 0.0
Co178 Co 0.42408 0.54636 0.75118 0.0
N179 N 0.486 0.44286 0.74169 0.0
N180 N 0.57108 0.52908 0.73756 0.0
C181 C 0.55673 0.44812 0.67645 0.0
C182 C 0.5018 0.42655 0.67649 0.0
C183 C 0.53043 0.47905 0.7798 0.0
Co184 Co 0.32765 0.87747 0.77407 0.0
C185 C 0.3528 0.42552 0.76249 0.0
H186 H 0.47429 0.42821 0.63219 0.0
O187 O 0.29822 0.1418 0.76548 0.0
O188 O 0.39259 0.86365 0.85832 0.0
O189 O 0.26272 0.89133 0.85833 0.0
O190 O 0.26781 0.80011 0.69625 0.0
O191 O 0.19603 0.94742 0.73537 0.0
O192 O 0.43602 0.5776 0.84196 0.0
O193 O 0.35704 0.61314 0.76548 0.0
O194 O 0.45922 0.8074 0.73524 0.0
O195 O 0.21928 0.17738 0.84203 0.0
O196 O 0.2595 0.43516 0.76355 0.0
O197 O 0.38748 0.95472 0.69622 0.0
O198 O 0.39574 0.31975 0.76356 0.0
C199 C 0.22616 1.02955 0.87859 0.0
C200 C 0.54257 0.35082 0.84038 0.0
H201 H 0.51599 0.38567 0.885 0.0
H202 H 0.58651 0.36105 0.85564 0.0
H203 H 0.53263 0.20046 0.82586 0.0
C204 C 0.42916 0.72542 0.87855 0.0
C205 C 0.21403 0.81176 0.69703 0.0
H206 H 0.18073 0.32642 0.63229 0.0
H207 H 0.12275 0.55467 0.82599 0.0
H208 H 1.06888 0.39434 0.85595 0.0
H209 H 0.13943 0.36959 0.88517 0.0
C210 C 0.11279 0.40439 0.84059 0.0
C211 C 0.30245 0.32942 0.76247 0.0
C212 C 0.44127 0.94322 0.69695 0.0
H213 H 1.07474 0.29395 0.63094 0.0
H214 H 0.58036 0.46112 0.63064 0.0
Co215 Co 0.92415 1.04643 0.75121 0.0
N216 N 0.9861 0.94299 0.74183 0.0
C217 C 1.00203 0.92653 0.67667 0.0
N218 N 1.07113 1.0292 0.73787 0.0
C219 C 1.03046 0.97926 0.78007 0.0
C220 C 1.05697 0.94802 0.67674 0.0
Co221 Co 0.73122 0.70858 0.7512 0.0
N222 N 0.66929 0.81206 0.74174 0.0
N223 N 0.58427 0.72565 0.73756 0.0
C224 C 0.59856 0.8065 0.67642 0.0
C225 C 0.65348 0.82829 0.67651 0.0
C226 C 0.62487 0.77568 0.77986 0.0
Co227 Co 0.82766 0.37749 0.77406 0.0
C228 C 0.8025 0.82944 0.76246 0.0
H229 H 0.68101 0.82662 0.63223 0.0
O230 O 0.85709 1.11316 0.76543 0.0
O231 O 0.76272 0.39135 0.85831 0.0
O232 O 0.89259 0.36373 0.85832 0.0
O233 O 0.88749 0.45481 0.69624 0.0
O234 O 0.95928 0.3075 0.73534 0.0
O235 O 0.71929 0.6774 0.84199 0.0
O236 O 0.79826 0.64182 0.76548 0.0
O237 O 0.69609 0.44749 0.73527 0.0
O238 O 0.93599 1.07759 0.84203 0.0
O239 O 0.8958 0.81978 0.76352 0.0
O240 O 0.76783 0.30017 0.69623 0.0
O241 O 0.75956 0.93521 0.76357 0.0
C242 C 0.92913 0.22546 0.87859 0.0
C243 C 0.61268 0.90398 0.84041 0.0
H244 H 0.63924 0.86922 0.88506 0.0
H245 H 0.56873 0.89374 0.85562 0.0
H246 H 0.62262 1.05433 0.82589 0.0
C247 C 0.72614 0.52955 0.87854 0.0
C248 C 0.94128 0.44314 0.69701 0.0
H249 H 0.97458 0.92845 0.63231 0.0
H250 H 1.03263 0.70046 0.82596 0.0
H251 H 0.08647 0.86092 0.85592 0.0
H252 H 1.01592 0.88543 0.88519 0.0
C253 C 1.04255 0.85076 0.84059 0.0
C254 C 0.85285 0.92554 0.76243 0.0
C255 C 0.71403 0.31164 0.69697 0.0
H256 H 0.08057 0.96144 0.63092 0.0
H257 H 0.57493 0.7933 0.63062 0.0
Co258 Co 0.67413 0.45844 0.50121 0.0
N259 N 0.73607 0.56189 0.49182 0.0
C260 C 0.75192 0.5784 0.42663 0.0
N261 N 0.82111 0.47579 0.4877 0.0
C262 C 0.78047 0.52559 0.52998 0.0
C263 C 0.80686 0.55691 0.4266 0.0
Co264 Co 0.48118 0.79623 0.50114 0.0
N265 N 0.41922 0.69274 0.49176 0.0
N266 N 0.33423 0.77949 0.48779 0.0
C267 C 0.34839 0.69852 0.42662 0.0
C268 C 0.40332 0.6766 0.42658 0.0
C269 C 0.37487 0.72923 0.52999 0.0
Co270 Co 0.57766 1.12735 0.52401 0.0
C271 C 0.55248 0.67538 0.51234 0.0
H272 H 0.43078 0.67844 0.38223 0.0
O273 O 0.60707 0.39169 0.51541 0.0
O274 O 0.51272 1.11356 0.60827 0.0
O275 O 0.64259 0.14121 0.60828 0.0
O276 O 0.6375 1.05003 0.44619 0.0
O277 O 0.70927 0.19736 0.48536 0.0
O278 O 0.46933 0.82743 0.59197 0.0
O279 O 0.54823 0.86301 0.51536 0.0
O280 O 0.44604 1.05731 0.48523 0.0
O281 O 0.68597 0.42741 0.59202 0.0
O282 O 0.64577 0.68509 0.51349 0.0
O283 O 0.51784 0.20468 0.4462 0.0
O284 O 0.50953 0.56961 0.51346 0.0
C285 C 0.67912 0.27953 0.62856 0.0
C286 C 0.3627 0.60079 0.59051 0.0
H287 H 0.3893 0.63546 0.63513 0.0
H288 H 0.31877 0.61105 0.60577 0.0
H289 H 0.37262 0.45047 0.57591 0.0
C290 C 0.47619 0.97529 0.62853 0.0
C291 C 0.69128 1.06172 0.447 0.0
H292 H 0.72443 0.57659 0.38231 0.0
H293 H 0.78266 0.8043 0.57596 0.0
H294 H 0.83653 0.64381 0.6058 0.0
H295 H 0.766 0.61925 0.63515 0.0
C296 C 0.7926 0.65398 0.59053 0.0
C297 C 0.60283 0.5793 0.51237 0.0
C298 C 0.46405 0.19309 0.44696 0.0
H299 H 0.83043 0.54368 0.38074 0.0
H300 H 0.32471 0.71199 0.38087 0.0
Co301 Co 0.67413 0.95857 1.00123 0.0
N302 N 0.73606 1.06207 0.99183 0.0
C303 C 0.7519 1.07856 0.92663 0.0
N304 N 0.8211 0.97597 0.98769 0.0
C305 C 0.78047 1.02576 0.02998 0.0
C306 C 0.80684 1.05707 0.92659 0.0
Co307 Co 0.48118 0.29629 1.00115 0.0
N308 N 0.41924 0.19277 0.99176 0.0
N309 N 0.33424 0.27944 0.98777 0.0
C310 C 0.34842 0.19851 0.9266 0.0
C311 C 0.40334 0.17663 0.92657 0.0
C312 C 0.37487 0.22921 0.02998 0.0
Co313 Co 0.57766 0.62743 0.02403 0.0
C314 C 0.55248 0.17547 0.0124 0.0
H315 H 0.43082 0.17846 0.88224 0.0
O316 O 0.60708 0.89178 0.01546 0.0
O317 O 0.51272 0.61366 0.10829 0.0
O318 O 0.6426 0.64123 0.10829 0.0
O319 O 0.6375 0.55012 0.9462 0.0
O320 O 0.70927 0.69753 0.98532 0.0
O321 O 0.46932 0.32754 0.09197 0.0
O322 O 0.54824 0.36309 0.01538 0.0
O323 O 0.44604 0.55734 0.98523 0.0
O324 O 0.686 0.92738 0.09203 0.0
O325 O 0.64578 0.18519 0.01358 0.0
O326 O 0.51784 0.7048 0.94622 0.0
O327 O 0.50954 1.06969 0.0135 0.0
C328 C 0.67915 0.77948 0.12856 0.0
C329 C 0.36271 1.10079 0.0905 0.0
H330 H 0.38931 0.13546 0.13512 0.0
H331 H 0.31878 1.11105 0.10577 0.0
H332 H 0.37263 0.95046 0.0759 0.0
C333 C 0.47618 0.4754 0.12854 0.0
C334 C 0.69128 0.56186 0.94698 0.0
H335 H 0.72439 1.07674 0.88233 0.0
H336 H 0.78266 0.30441 0.07601 0.0
H337 H 0.83654 0.14391 0.1058 0.0
H338 H 0.76602 1.11926 0.13516 0.0
C339 C 0.79261 0.15408 0.09055 0.0
C340 C 0.60283 1.0794 0.01243 0.0
C341 C 0.46405 0.69316 0.94697 0.0
H342 H 0.83038 1.04382 0.88072 0.0
H343 H 0.32475 0.21197 0.88084 0.0
loop_
_geom_bond_atom_site_label_1
_geom_bond_atom_site_label_2
_geom_bond_distance
_geom_bond_site_symmetry_2
_ccdc_geom_bond_type
Co0 N1 2.034 . S
Co0 O15 2.262 . S
Co0 O19 1.958 . S
Co0 O23 1.950 1_556 S
Co0 O24 2.057 . S
N1 Co0 2.034 . S
N1 C2 1.366 . S
N1 C4 1.332 1_556 S
C2 N1 1.366 . S
C2 C5 1.377 . S
C2 H34 0.931 . S
N3 C4 1.346 . S
N3 C5 1.337 1_554 S
C4 N1 1.332 1_554 S
C4 N3 1.346 . S
C4 C38 1.361 . S
C5 C2 1.377 . S
C5 N3 1.337 1_556 S
C5 H41 0.930 . S
Co6 N7 2.034 . S
Co6 O20 1.950 1_556 S
Co6 O21 2.262 . S
Co6 O22 1.958 . S
Co6 O26 2.057 . S
N7 Co6 2.034 . S
N7 C10 1.366 . S
N7 C11 1.332 1_556 S
N8 C9 1.337 1_554 S
N8 C11 1.346 . S
C9 N8 1.337 1_556 S
C9 C10 1.377 . S
C9 H42 0.930 . S
C10 N7 1.366 . S
C10 C9 1.377 . S
C10 H14 0.931 . S
C11 N7 1.332 1_554 S
C11 N8 1.346 . S
C11 C28 1.361 . S
Co12 O15 2.097 . S
Co12 O16 2.065 1_456 S
Co12 O17 2.065 1_546 S
Co12 O18 2.042 1_545 S
Co12 O21 2.097 1_445 S
Co12 O25 2.042 1_455 S
C13 O21 1.253 . S
C13 O26 1.263 . S
H14 C10 0.931 . S
O15 Co0 2.262 . S
O15 Co12 2.097 . S
O15 C39 1.253 . S
O16 Co12 2.065 1_654 S
O16 C32 1.221 . S
O17 Co12 2.065 1_564 S
O17 C27 1.221 . S
O18 Co12 2.042 1_565 S
O18 C33 1.237 . S
O19 Co0 1.958 . S
O19 C33 1.278 1_545 S
O20 Co6 1.950 1_554 S
O20 C32 1.277 1_565 S
O21 Co6 2.262 . S
O21 Co12 2.097 1_665 S
O21 C13 1.253 . S
O22 Co6 1.958 . S
O22 C40 1.278 1_565 S
O23 Co0 1.950 1_554 S
O23 C27 1.277 1_545 S
O24 Co0 2.057 . S
O24 C39 1.263 . S
O25 Co12 2.042 1_655 S
O25 C40 1.237 . S
O26 Co6 2.057 . S
O26 C13 1.263 . S
C27 O17 1.221 . S
C27 O23 1.277 1_565 S
C28 C11 1.361 . S
C28 H29 0.960 . S
C28 H30 0.961 . S
C28 H31 0.961 . S
H29 C28 0.960 . S
H30 C28 0.961 . S
H31 C28 0.961 . S
C32 O16 1.221 . S
C32 O20 1.277 1_545 S
C33 O18 1.237 . S
C33 O19 1.278 1_565 S
H34 C2 0.931 . S
H35 C38 0.961 . S
H36 C38 0.961 . S
H37 C38 0.960 . S
C38 C4 1.361 . S
C38 H35 0.961 . S
C38 H36 0.961 . S
C38 H37 0.960 . S
C39 O15 1.253 . S
C39 O24 1.263 . S
C40 O22 1.278 1_545 S
C40 O25 1.237 . S
H41 C5 0.930 . S
H42 C9 0.930 . S
Co43 N44 2.034 . S
Co43 O58 2.262 . S
Co43 O62 1.958 . S
Co43 O66 1.950 . S
Co43 O67 2.057 . S
N44 Co43 2.034 . S
N44 C45 1.366 . S
N44 C47 1.332 . S
C45 N44 1.366 . S
C45 C48 1.377 . S
C45 H77 0.931 . S
N46 C47 1.346 . S
N46 C48 1.337 . S
C47 N44 1.332 . S
C47 N46 1.346 . S
C47 C81 1.361 . S
C48 C45 1.377 . S
C48 N46 1.337 . S
C48 H84 0.930 1_455 S
Co49 N50 2.034 1_545 S
Co49 O63 1.950 . S
Co49 O64 2.262 . S
Co49 O65 1.958 . S
Co49 O69 2.057 1_545 S
N50 Co49 2.034 1_565 S
N50 C53 1.366 . S
N50 C54 1.332 . S
N51 C52 1.337 . S
N51 C54 1.346 . S
C52 N51 1.337 . S
C52 C53 1.377 . S
C52 H85 0.930 . S
C53 N50 1.366 . S
C53 C52 1.377 . S
C53 H57 0.931 1_565 S
C54 N50 1.332 . S
C54 N51 1.346 . S
C54 C71 1.361 . S
Co55 O58 2.097 . S
Co55 O59 2.065 . S
Co55 O60 2.065 . S
Co55 O61 2.042 . S
Co55 O64 2.097 . S
Co55 O68 2.042 . S
C56 O64 1.253 1_565 S
C56 O69 1.263 . S
H57 C53 0.931 1_545 S
O58 Co43 2.262 . S
O58 Co55 2.097 . S
O58 C82 1.253 . S
O59 Co55 2.065 . S
O59 C75 1.221 . S
O60 Co55 2.065 . S
O60 C70 1.221 . S
O61 Co55 2.042 . S
O61 C76 1.237 . S
O62 Co43 1.958 . S
O62 C76 1.278 . S
O63 Co49 1.950 . S
O63 C75 1.277 . S
O64 Co49 2.262 . S
O64 Co55 2.097 . S
O64 C56 1.253 1_545 S
O65 Co49 1.958 . S
O65 C83 1.278 . S
O66 Co43 1.950 . S
O66 C70 1.277 . S
O67 Co43 2.057 . S
O67 C82 1.263 . S
O68 Co55 2.042 . S
O68 C83 1.237 . S
O69 Co49 2.057 1_565 S
O69 C56 1.263 . S
C70 O60 1.221 . S
C70 O66 1.277 . S
C71 C54 1.361 . S
C71 H72 0.960 . S
C71 H73 0.961 . S
C71 H74 0.961 . S
H72 C71 0.960 . S
H73 C71 0.961 . S
H74 C71 0.961 . S
C75 O59 1.221 . S
C75 O63 1.277 . S
C76 O61 1.237 . S
C76 O62 1.278 . S
H77 C45 0.931 . S
H78 C81 0.961 . S
H79 C81 0.961 . S
H80 C81 0.960 . S
C81 C47 1.361 . S
C81 H78 0.961 . S
C81 H79 0.961 . S
C81 H80 0.960 . S
C82 O58 1.253 . S
C82 O67 1.263 . S
C83 O65 1.278 . S
C83 O68 1.237 . S
H84 C48 0.930 1_655 S
H85 C52 0.930 . S
Co86 N87 2.034 1_565 S
Co86 O101 2.262 . S
Co86 O105 1.958 . S
Co86 O109 1.950 . S
Co86 O110 2.057 1_565 S
N87 Co86 2.034 1_545 S
N87 C88 1.366 . S
N87 C90 1.332 . S
C88 N87 1.366 . S
C88 C91 1.377 . S
C88 H120 0.931 1_545 S
N89 C90 1.346 . S
N89 C91 1.337 . S
C90 N87 1.332 . S
C90 N89 1.346 . S
C90 C124 1.361 . S
C91 C88 1.377 . S
C91 N89 1.337 . S
C91 H127 0.930 . S
Co92 N93 2.034 . S
Co92 O106 1.950 . S
Co92 O107 2.262 . S
Co92 O108 1.958 . S
Co92 O112 2.057 . S
N93 Co92 2.034 . S
N93 C96 1.366 . S
N93 C97 1.332 . S
N94 C95 1.337 . S
N94 C97 1.346 . S
C95 N94 1.337 . S
C95 C96 1.377 . S
C95 H128 0.930 1_655 S
C96 N93 1.366 . S
C96 C95 1.377 . S
C96 H100 0.931 . S
C97 N93 1.332 . S
C97 N94 1.346 . S
C97 C114 1.361 . S
Co98 O101 2.097 . S
Co98 O102 2.065 . S
Co98 O103 2.065 . S
Co98 O104 2.042 . S
Co98 O107 2.097 . S
Co98 O111 2.042 . S
C99 O107 1.253 . S
C99 O112 1.263 . S
H100 C96 0.931 . S
O101 Co86 2.262 . S
O101 Co98 2.097 . S
O101 C125 1.253 1_565 S
O102 Co98 2.065 . S
O102 C118 1.221 . S
O103 Co98 2.065 . S
O103 C113 1.221 . S
O104 Co98 2.042 . S
O104 C119 1.237 . S
O105 Co86 1.958 . S
O105 C119 1.278 . S
O106 Co92 1.950 . S
O106 C118 1.277 . S
O107 Co92 2.262 . S
O107 Co98 2.097 . S
O107 C99 1.253 . S
O108 Co92 1.958 . S
O108 C126 1.278 . S
O109 Co86 1.950 . S
O109 C113 1.277 . S
O110 Co86 2.057 1_545 S
O110 C125 1.263 . S
O111 Co98 2.042 . S
O111 C126 1.237 . S
O112 Co92 2.057 . S
O112 C99 1.263 . S
C113 O103 1.221 . S
C113 O109 1.277 . S
C114 C97 1.361 . S
C114 H115 0.960 . S
C114 H116 0.961 . S
C114 H117 0.961 . S
H115 C114 0.960 . S
H116 C114 0.961 . S
H117 C114 0.961 . S
C118 O102 1.221 . S
C118 O106 1.277 . S
C119 O104 1.237 . S
C119 O105 1.278 . S
H120 C88 0.931 1_565 S
H121 C124 0.961 . S
H122 C124 0.961 . S
H123 C124 0.960 . S
C124 C90 1.361 . S
C124 H121 0.961 . S
C124 H122 0.961 . S
C124 H123 0.960 . S
C125 O101 1.253 1_545 S
C125 O110 1.263 . S
C126 O108 1.278 . S
C126 O111 1.237 . S
H127 C91 0.930 . S
H128 C95 0.930 1_455 S
Co129 N130 2.034 . S
Co129 O144 2.262 . S
Co129 O148 1.958 . S
Co129 O152 1.950 . S
Co129 O153 2.057 . S
N130 Co129 2.034 . S
N130 C131 1.366 . S
N130 C133 1.332 . S
C131 N130 1.366 . S
C131 C134 1.377 . S
C131 H163 0.931 . S
N132 C133 1.346 . S
N132 C134 1.337 . S
C133 N130 1.332 . S
C133 N132 1.346 . S
C133 C167 1.361 . S
C134 C131 1.377 . S
C134 N132 1.337 . S
C134 H170 0.930 . S
Co135 N136 2.034 . S
Co135 O149 1.950 . S
Co135 O150 2.262 . S
Co135 O151 1.958 . S
Co135 O155 2.057 . S
N136 Co135 2.034 . S
N136 C139 1.366 . S
N136 C140 1.332 . S
N137 C138 1.337 . S
N137 C140 1.346 . S
C138 N137 1.337 . S
C138 C139 1.377 . S
C138 H171 0.930 . S
C139 N136 1.366 . S
C139 C138 1.377 . S
C139 H143 0.931 . S
C140 N136 1.332 . S
C140 N137 1.346 . S
C140 C157 1.361 . S
Co141 O144 2.097 . S
Co141 O145 2.065 1_455 S
Co141 O146 2.065 . S
Co141 O147 2.042 . S
Co141 O150 2.097 1_455 S
Co141 O154 2.042 1_455 S
C142 O150 1.253 . S
C142 O155 1.263 . S
H143 C139 0.931 . S
O144 Co129 2.262 . S
O144 Co141 2.097 . S
O144 C168 1.253 . S
O145 Co141 2.065 1_655 S
O145 C161 1.221 . S
O146 Co141 2.065 . S
O146 C156 1.221 . S
O147 Co141 2.042 . S
O147 C162 1.237 . S
O148 Co129 1.958 . S
O148 C162 1.278 . S
O149 Co135 1.950 . S
O149 C161 1.277 . S
O150 Co135 2.262 . S
O150 Co141 2.097 1_655 S
O150 C142 1.253 . S
O151 Co135 1.958 . S
O151 C169 1.278 . S
O152 Co129 1.950 . S
O152 C156 1.277 . S
O153 Co129 2.057 . S
O153 C168 1.263 . S
O154 Co141 2.042 1_655 S
O154 C169 1.237 . S
O155 Co135 2.057 . S
O155 C142 1.263 . S
C156 O146 1.221 . S
C156 O152 1.277 . S
C157 C140 1.361 . S
C157 H158 0.960 . S
C157 H159 0.961 . S
C157 H160 0.961 1_545 S
H158 C157 0.960 . S
H159 C157 0.961 . S
H160 C157 0.961 1_565 S
C161 O145 1.221 . S
C161 O149 1.277 . S
C162 O147 1.237 . S
C162 O148 1.278 . S
H163 C131 0.931 . S
H164 C167 0.961 1_545 S
H165 C167 0.961 . S
H166 C167 0.960 . S
C167 C133 1.361 . S
C167 H164 0.961 1_565 S
C167 H165 0.961 . S
C167 H166 0.960 . S
C168 O144 1.253 . S
C168 O153 1.263 . S
C169 O151 1.278 . S
C169 O154 1.237 . S
H170 C134 0.930 . S
H171 C138 0.930 . S
Co172 N173 2.034 1_565 S
Co172 O187 2.262 . S
Co172 O191 1.958 . S
Co172 O195 1.950 . S
Co172 O196 2.057 1_565 S
N173 Co172 2.034 1_545 S
N173 C174 1.366 . S
N173 C176 1.332 . S
C174 N173 1.366 . S
C174 C177 1.377 . S
C174 H206 0.931 1_545 S
N175 C176 1.346 . S
N175 C177 1.337 . S
C176 N173 1.332 . S
C176 N175 1.346 . S
C176 C210 1.361 . S
C177 C174 1.377 . S
C177 N175 1.337 . S
C177 H213 0.930 1_455 S
Co178 N179 2.034 . S
Co178 O192 1.950 . S
Co178 O193 2.262 . S
Co178 O194 1.958 . S
Co178 O198 2.057 . S
N179 Co178 2.034 . S
N179 C182 1.366 . S
N179 C183 1.332 . S
N180 C181 1.337 . S
N180 C183 1.346 . S
C181 N180 1.337 . S
C181 C182 1.377 . S
C181 H214 0.930 . S
C182 N179 1.366 . S
C182 C181 1.377 . S
C182 H186 0.931 . S
C183 N179 1.332 . S
C183 N180 1.346 . S
C183 C200 1.361 . S
Co184 O187 2.097 . S
Co184 O188 2.065 . S
Co184 O189 2.065 . S
Co184 O190 2.042 . S
Co184 O193 2.097 . S
Co184 O197 2.042 . S
C185 O193 1.253 . S
C185 O198 1.263 . S
H186 C182 0.931 . S
O187 Co172 2.262 . S
O187 Co184 2.097 . S
O187 C211 1.253 1_565 S
O188 Co184 2.065 . S
O188 C204 1.221 . S
O189 Co184 2.065 . S
O189 C199 1.221 . S
O190 Co184 2.042 . S
O190 C205 1.237 . S
O191 Co172 1.958 . S
O191 C205 1.278 . S
O192 Co178 1.950 . S
O192 C204 1.277 . S
O193 Co178 2.262 . S
O193 Co184 2.097 . S
O193 C185 1.253 . S
O194 Co178 1.958 . S
O194 C212 1.278 . S
O195 Co172 1.950 . S
O195 C199 1.277 . S
O196 Co172 2.057 1_545 S
O196 C211 1.263 . S
O197 Co184 2.042 . S
O197 C212 1.237 . S
O198 Co178 2.057 . S
O198 C185 1.263 . S
C199 O189 1.221 . S
C199 O195 1.277 . S
C200 C183 1.361 . S
C200 H201 0.960 . S
C200 H202 0.961 . S
C200 H203 0.961 . S
H201 C200 0.960 . S
H202 C200 0.961 . S
H203 C200 0.961 . S
C204 O188 1.221 . S
C204 O192 1.277 . S
C205 O190 1.237 . S
C205 O191 1.278 . S
H206 C174 0.931 1_565 S
H207 C210 0.961 . S
H208 C210 0.961 . S
H209 C210 0.960 . S
C210 C176 1.361 . S
C210 H207 0.961 . S
C210 H208 0.961 . S
C210 H209 0.960 . S
C211 O187 1.253 1_545 S
C211 O196 1.263 . S
C212 O194 1.278 . S
C212 O197 1.237 . S
H213 C177 0.930 1_655 S
H214 C181 0.930 . S
Co215 N216 2.034 1_545 S
Co215 O230 2.262 . S
Co215 O234 1.958 . S
Co215 O238 1.950 . S
Co215 O239 2.057 1_545 S
N216 Co215 2.034 1_565 S
N216 C217 1.366 . S
N216 C219 1.332 . S
C217 N216 1.366 . S
C217 C220 1.377 . S
C217 H249 0.931 1_565 S
N218 C219 1.346 . S
N218 C220 1.337 . S
C219 N216 1.332 . S
C219 N218 1.346 . S
C219 C253 1.361 . S
C220 C217 1.377 . S
C220 N218 1.337 . S
C220 H256 0.930 1_655 S
Co221 N222 2.034 . S
Co221 O235 1.950 . S
Co221 O236 2.262 . S
Co221 O237 1.958 . S
Co221 O241 2.057 . S
N222 Co221 2.034 . S
N222 C225 1.366 . S
N222 C226 1.332 . S
N223 C224 1.337 . S
N223 C226 1.346 . S
C224 N223 1.337 . S
C224 C225 1.377 . S
C224 H257 0.930 . S
C225 N222 1.366 . S
C225 C224 1.377 . S
C225 H229 0.931 . S
C226 N222 1.332 . S
C226 N223 1.346 . S
C226 C243 1.361 . S
Co227 O230 2.097 . S
Co227 O231 2.065 . S
Co227 O232 2.065 . S
Co227 O233 2.042 . S
Co227 O236 2.097 . S
Co227 O240 2.042 . S
C228 O236 1.253 . S
C228 O241 1.263 . S
H229 C225 0.931 . S
O230 Co215 2.262 . S
O230 Co227 2.097 . S
O230 C254 1.253 1_545 S
O231 Co227 2.065 . S
O231 C247 1.221 . S
O232 Co227 2.065 . S
O232 C242 1.221 . S
O233 Co227 2.042 . S
O233 C248 1.237 . S
O234 Co215 1.958 . S
O234 C248 1.278 . S
O235 Co221 1.950 . S
O235 C247 1.277 . S
O236 Co221 2.262 . S
O236 Co227 2.097 . S
O236 C228 1.253 . S
O237 Co221 1.958 . S
O237 C255 1.278 . S
O238 Co215 1.950 . S
O238 C242 1.277 . S
O239 Co215 2.057 1_565 S
O239 C254 1.263 . S
O240 Co227 2.042 . S
O240 C255 1.237 . S
O241 Co221 2.057 . S
O241 C228 1.263 . S
C242 O232 1.221 . S
C242 O238 1.277 . S
C243 C226 1.361 . S
C243 H244 0.960 . S
C243 H245 0.961 . S
C243 H246 0.961 . S
H244 C243 0.960 . S
H245 C243 0.961 . S
H246 C243 0.961 . S
C247 O231 1.221 . S
C247 O235 1.277 . S
C248 O233 1.237 . S
C248 O234 1.278 . S
H249 C217 0.931 1_545 S
H250 C253 0.961 . S
H251 C253 0.961 . S
H252 C253 0.960 . S
C253 C219 1.361 . S
C253 H250 0.961 . S
C253 H251 0.961 . S
C253 H252 0.960 . S
C254 O230 1.253 1_565 S
C254 O239 1.263 . S
C255 O237 1.278 . S
C255 O240 1.237 . S
H256 C220 0.930 1_455 S
H257 C224 0.930 . S
Co258 N259 2.034 . S
Co258 O273 2.262 . S
Co258 O277 1.958 . S
Co258 O281 1.950 . S
Co258 O282 2.057 . S
N259 Co258 2.034 . S
N259 C260 1.366 . S
N259 C262 1.332 . S
C260 N259 1.366 . S
C260 C263 1.377 . S
C260 H292 0.931 . S
N261 C262 1.346 . S
N261 C263 1.337 . S
C262 N259 1.332 . S
C262 N261 1.346 . S
C262 C296 1.361 . S
C263 C260 1.377 . S
C263 N261 1.337 . S
C263 H299 0.930 . S
Co264 N265 2.034 . S
Co264 O278 1.950 . S
Co264 O279 2.262 . S
Co264 O280 1.958 . S
Co264 O284 2.057 . S
N265 Co264 2.034 . S
N265 C268 1.366 . S
N265 C269 1.332 . S
N266 C267 1.337 . S
N266 C269 1.346 . S
C267 N266 1.337 . S
C267 C268 1.377 . S
C267 H300 0.930 . S
C268 N265 1.366 . S
C268 C267 1.377 . S
C268 H272 0.931 . S
C269 N265 1.332 . S
C269 N266 1.346 . S
C269 C286 1.361 . S
Co270 O273 2.097 . S
Co270 O274 2.065 . S
Co270 O275 2.065 1_545 S
Co270 O276 2.042 1_545 S
Co270 O279 2.097 1_545 S
Co270 O283 2.042 . S
C271 O279 1.253 . S
C271 O284 1.263 . S
H272 C268 0.931 . S
O273 Co258 2.262 . S
O273 Co270 2.097 . S
O273 C297 1.253 . S
O274 Co270 2.065 . S
O274 C290 1.221 . S
O275 Co270 2.065 1_565 S
O275 C285 1.221 . S
O276 Co270 2.042 1_565 S
O276 C291 1.237 . S
O277 Co258 1.958 . S
O277 C291 1.278 1_545 S
O278 Co264 1.950 . S
O278 C290 1.277 1_565 S
O279 Co264 2.262 . S
O279 Co270 2.097 1_565 S
O279 C271 1.253 . S
O280 Co264 1.958 . S
O280 C298 1.278 1_565 S
O281 Co258 1.950 . S
O281 C285 1.277 1_545 S
O282 Co258 2.057 . S
O282 C297 1.263 . S
O283 Co270 2.042 . S
O283 C298 1.237 . S
O284 Co264 2.057 . S
O284 C271 1.263 . S
C285 O275 1.221 . S
C285 O281 1.277 1_565 S
C286 C269 1.361 . S
C286 H287 0.960 . S
C286 H288 0.961 . S
C286 H289 0.961 . S
H287 C286 0.960 . S
H288 C286 0.961 . S
H289 C286 0.961 . S
C290 O274 1.221 . S
C290 O278 1.277 1_545 S
C291 O276 1.237 . S
C291 O277 1.278 1_565 S
H292 C260 0.931 . S
H293 C296 0.961 . S
H294 C296 0.961 . S
H295 C296 0.960 . S
C296 C262 1.361 . S
C296 H293 0.961 . S
C296 H294 0.961 . S
C296 H295 0.960 . S
C297 O273 1.253 . S
C297 O282 1.263 . S
C298 O280 1.278 1_545 S
C298 O283 1.237 . S
H299 C263 0.930 . S
H300 C267 0.930 . S
Co301 N302 2.034 . S
Co301 O316 2.262 . S
Co301 O320 1.958 . S
Co301 O324 1.950 1_556 S
Co301 O325 2.057 . S
N302 Co301 2.034 . S
N302 C303 1.366 . S
N302 C305 1.332 1_556 S
C303 N302 1.366 . S
C303 C306 1.377 . S
C303 H335 0.931 . S
N304 C305 1.346 . S
N304 C306 1.337 1_554 S
C305 N302 1.332 1_554 S
C305 N304 1.346 . S
C305 C339 1.361 . S
C306 C303 1.377 . S
C306 N304 1.337 1_556 S
C306 H342 0.930 . S
Co307 N308 2.034 . S
Co307 O321 1.950 1_556 S
Co307 O322 2.262 . S
Co307 O323 1.958 . S
Co307 O327 2.057 . S
N308 Co307 2.034 . S
N308 C311 1.366 . S
N308 C312 1.332 1_556 S
N309 C310 1.337 1_554 S
N309 C312 1.346 . S
C310 N309 1.337 1_556 S
C310 C311 1.377 . S
C310 H343 0.930 . S
C311 N308 1.366 . S
C311 C310 1.377 . S
C311 H315 0.931 . S
C312 N308 1.332 1_554 S
C312 N309 1.346 . S
C312 C329 1.361 . S
Co313 O316 2.097 . S
Co313 O317 2.065 1_556 S
Co313 O318 2.065 1_556 S
Co313 O319 2.042 . S
Co313 O322 2.097 . S
Co313 O326 2.042 . S
C314 O322 1.253 . S
C314 O327 1.263 . S
H315 C311 0.931 . S
O316 Co301 2.262 . S
O316 Co313 2.097 . S
O316 C340 1.253 . S
O317 Co313 2.065 1_554 S
O317 C333 1.221 . S
O318 Co313 2.065 1_554 S
O318 C328 1.221 . S
O319 Co313 2.042 . S
O319 C334 1.237 . S
O320 Co301 1.958 . S
O320 C334 1.278 . S
O321 Co307 1.950 1_554 S
O321 C333 1.277 . S
O322 Co307 2.262 . S
O322 Co313 2.097 . S
O322 C314 1.253 . S
O323 Co307 1.958 . S
O323 C341 1.278 . S
O324 Co301 1.950 1_554 S
O324 C328 1.277 . S
O325 Co301 2.057 . S
O325 C340 1.263 . S
O326 Co313 2.042 . S
O326 C341 1.237 . S
O327 Co307 2.057 . S
O327 C314 1.263 . S
C328 O318 1.221 . S
C328 O324 1.277 . S
C329 C312 1.361 . S
C329 H330 0.960 . S
C329 H331 0.961 . S
C329 H332 0.961 1_545 S
H330 C329 0.960 . S
H331 C329 0.961 . S
H332 C329 0.961 1_565 S
C333 O317 1.221 . S
C333 O321 1.277 . S
C334 O319 1.237 . S
C334 O320 1.278 . S
H335 C303 0.931 . S
H336 C339 0.961 1_545 S
H337 C339 0.961 . S
H338 C339 0.960 . S
C339 C305 1.361 . S
C339 H336 0.961 1_565 S
C339 H337 0.961 . S
C339 H338 0.960 . S
C340 O316 1.253 . S
C340 O325 1.263 . S
C341 O323 1.278 . S
C341 O326 1.237 . S
H342 C306 0.930 . S
H343 C310 0.930 . S
C27 C76 3.251 1_565 S
C32 C126 3.255 1_545 S
C162 C70 3.252 . S
C118 C169 3.254 . S
C156 C205 3.252 . S
C248 C161 3.255 . S
C199 C33 3.253 . S
C242 C40 3.254 . S
C255 C285 3.253 1_545 S
C290 C212 3.254 1_545 S
C334 C247 3.254 . S
C341 C204 3.254 . S
C328 C119 3.253 . S
C83 C333 3.253 . S
C291 C113 3.254 . S
C298 C75 3.253 . S
C13 C39 2.919 1_655 S
C82 C56 2.919 . S
C125 C99 2.919 . S
C168 C142 2.919 1_465 S
C211 C185 2.919 . S
C228 C254 2.919 . S
C271 C297 2.919 . S
C340 C314 2.919 1_565 S
N309 N3 3.265 . S
N8 N304 3.264 . S
N46 N94 3.265 1_455 S
N266 N132 3.264 . S
N137 N261 3.266 . S
N218 N175 3.265 1_665 S
N223 N180 3.265 . S
N89 N51 3.265 1_545 S
