# Generated by pormake.
# Topology vby, (6)-cn, num edge types: 1
# Building blocks:
#     Node 0, Type 0, BuildingBlock: MIDCAF_clean_sbu_0, # of connection points: 6
#     Node 1, Type 0, BuildingBlock: MIDCAF_clean_sbu_0, # of connection points: 6
#     Node 2, Type 0, BuildingBlock: MIDCAF_clean_sbu_0, # of connection points: 6
#     Node 3, Type 0, BuildingBlock: MIDCAF_clean_sbu_0, # of connection points: 6
#     Node 4, Type 0, BuildingBlock: MIDCAF_clean_sbu_0, # of connection points: 6
#     Node 5, Type 0, BuildingBlock: MIDCAF_clean_sbu_0, # of connection points: 6
#     Node 6, Type 0, BuildingBlock: MIDCAF_clean_sbu_0, # of connection points: 6
#     Node 7, Type 0, BuildingBlock: MIDCAF_clean_sbu_0, # of connection points: 6
#     Edge 8, Type (0, 0), BuildingBlock: EZIPEK_clean_linker_0, # of connection points: 2
#     Edge 9, Type (0, 0), BuildingBlock: EZIPEK_clean_linker_0, # of connection points: 2
#     Edge 10, Type (0, 0), BuildingBlock: EZIPEK_clean_linker_0, # of connection points: 2
#     Edge 11, Type (0, 0), BuildingBlock: EZIPEK_clean_linker_0, # of connection points: 2
#     Edge 12, Type (0, 0), BuildingBlock: EZIPEK_clean_linker_0, # of connection points: 2
#     Edge 13, Type (0, 0), BuildingBlock: EZIPEK_clean_linker_0, # of connection points: 2
#     Edge 14, Type (0, 0), BuildingBlock: EZIPEK_clean_linker_0, # of connection points: 2
#     Edge 15, Type (0, 0), BuildingBlock: EZIPEK_clean_linker_0, # of connection points: 2
#     Edge 16, Type (0, 0), BuildingBlock: EZIPEK_clean_linker_0, # of connection points: 2
#     Edge 17, Type (0, 0), BuildingBlock: EZIPEK_clean_linker_0, # of connection points: 2
#     Edge 18, Type (0, 0), BuildingBlock: EZIPEK_clean_linker_0, # of connection points: 2
#     Edge 19, Type (0, 0), BuildingBlock: EZIPEK_clean_linker_0, # of connection points: 2
#     Edge 20, Type (0, 0), BuildingBlock: EZIPEK_clean_linker_0, # of connection points: 2
#     Edge 21, Type (0, 0), BuildingBlock: EZIPEK_clean_linker_0, # of connection points: 2
#     Edge 22, Type (0, 0), BuildingBlock: EZIPEK_clean_linker_0, # of connection points: 2
#     Edge 23, Type (0, 0), BuildingBlock: EZIPEK_clean_linker_0, # of connection points: 2
#     Edge 24, Type (0, 0), BuildingBlock: EZIPEK_clean_linker_0, # of connection points: 2
#     Edge 25, Type (0, 0), BuildingBlock: EZIPEK_clean_linker_0, # of connection points: 2
#     Edge 26, Type (0, 0), BuildingBlock: EZIPEK_clean_linker_0, # of connection points: 2
#     Edge 27, Type (0, 0), BuildingBlock: EZIPEK_clean_linker_0, # of connection points: 2
#     Edge 28, Type (0, 0), BuildingBlock: EZIPEK_clean_linker_0, # of connection points: 2
#     Edge 29, Type (0, 0), BuildingBlock: EZIPEK_clean_linker_0, # of connection points: 2
#     Edge 30, Type (0, 0), BuildingBlock: EZIPEK_clean_linker_0, # of connection points: 2
#     Edge 31, Type (0, 0), BuildingBlock: EZIPEK_clean_linker_0, # of connection points: 2
# Relax obj value: 0.138
# Max RMSD: 0.180
# Mean RMSD: 0.180
data_MOF--net-vby--node1-MIDCAF_clean_sbu_0--edge1-EZIPEK_clean_linker_0
_symmetry_space_group_name_H-M    P1
_symmetry_Int_Tables_number       1
_symmetry_cell_setting            triclinic
loop_
_symmetry_equiv_pos_as_xyz
'x, y, z'
_cell_length_a     11.692595
_cell_length_b     44.371517
_cell_length_c     22.536954
_cell_angle_alpha  89.653598
_cell_angle_beta   89.535552
_cell_angle_gamma 90.149196
loop_
_atom_site_label
_atom_site_type_symbol
_atom_site_fract_x
_atom_site_fract_y
_atom_site_fract_z
_atom_type_partial_charge
Zn0 Zn 0.01868 0.35697 0.09921 0.0
Zn1 Zn 0.22432 0.39433 0.90233 0.0
Zn2 Zn 0.13055 0.37769 0.98796 0.0
C3 C 0.1569 0.44525 0.95148 0.0
C4 C 0.05977 0.36364 0.85801 0.0
O5 O 0.21621 0.33476 0.00662 0.0
O6 O 0.09959 0.31884 0.07908 0.0
C7 C 0.12585 0.41971 0.11655 0.0
O8 O 0.1676 0.42637 0.99393 0.0
O9 O 0.15947 0.43592 0.89872 0.0
O10 O 0.16645 0.36171 0.85241 0.0
O11 O 0.01776 0.37292 0.90797 0.0
O12 O 0.10523 0.3982 0.08149 0.0
O13 O 0.10796 0.39871 0.07874 0.0
O14 O 0.95153 0.36655 0.9646 0.0
O15 O 0.87619 0.35658 0.05436 0.0
C16 C 0.86551 0.35989 0.99878 0.0
O17 O 0.29921 0.35431 0.98022 0.0
O18 O 0.38095 0.38985 0.92533 0.0
C19 C 0.17714 0.3136 0.04094 0.0
C20 C 0.38952 0.36647 0.95689 0.0
Zn21 Zn 0.77011 0.59201 0.0312 0.0
Zn22 Zn 0.9683 0.6429 0.16215 0.0
Zn23 Zn 0.92673 0.6247 0.04124 0.0
C24 C 0.17687 0.64362 0.10141 0.0
C25 C 0.86442 0.57793 0.15609 0.0
O26 O 0.74979 0.64644 0.05167 0.0
O27 O 0.66703 0.60674 0.09288 0.0
C28 C 0.81363 0.61135 0.9186 0.0
O29 O 0.10994 0.63795 0.05753 0.0
O30 O 0.13561 0.64556 0.1534 0.0
O31 O 0.89976 0.60106 0.12806 0.0
O32 O 0.89907 0.60076 0.12627 0.0
O33 O 0.72435 0.60732 0.94933 0.0
O34 O 0.91055 0.61195 0.94562 0.0
O35 O -0.02249 0.58735 0.98317 0.0
O36 O 0.87312 0.55578 0.03621 0.0
C37 C 0.95826 0.56041 1.00237 0.0
O38 O 0.85965 0.67018 0.03899 0.0
O39 O 0.92468 0.68366 0.12695 0.0
C40 C 0.66243 0.63425 0.07806 0.0
C41 C 0.88164 0.69079 0.07734 0.0
Zn42 Zn 0.02769 0.5842 0.59671 0.0
Zn43 Zn 0.84005 0.66108 0.46723 0.0
Zn44 Zn 0.93187 0.62325 0.5337 0.0
C45 C 0.67646 0.64794 0.5506 0.0
C46 C 0.87928 0.61261 0.39577 0.0
O47 O 0.11277 0.63854 0.54871 0.0
O48 O 0.1841 0.59849 0.59415 0.0
C49 C 0.86595 0.6109 0.6695 0.0
O50 O 0.76317 0.6349 0.57493 0.0
O51 O 0.68718 0.66063 0.50078 0.0
O52 O 0.86009 0.64042 0.39018 0.0
O53 O 0.89925 0.60112 0.44734 0.0
O54 O 0.9473 0.59239 0.67107 0.0
O55 O 0.83782 0.62377 0.62022 0.0
O56 O 0.92152 0.57834 0.48775 0.0
O57 O -0.00663 0.54708 0.55419 0.0
C58 C 0.94657 0.55131 0.50469 0.0
O59 O 0.05041 0.66228 0.52099 0.0
O60 O 0.9325 0.69621 0.48319 0.0
C61 C 0.19788 0.6244 0.57217 0.0
C62 C 0.0285 0.68953 0.50426 0.0
Zn63 Zn 0.01618 0.33074 0.40704 0.0
Zn64 Zn 0.79524 0.38634 0.5365 0.0
Zn65 Zn 0.92158 0.36157 0.47833 0.0
C66 C 0.82976 0.42894 0.45894 0.0
C67 C 0.96867 0.37654 0.61189 0.0
O68 O 0.81807 0.32079 0.45893 0.0
O69 O 0.94465 0.29193 0.41318 0.0
C70 C -0.013 0.38188 0.34548 0.0
O71 O 0.91384 0.41063 0.45046 0.0
O72 O 0.73916 0.41848 0.48132 0.0
O73 O 0.89173 0.39597 0.60413 0.0
O74 O 0.00132 0.36025 0.56768 0.0
O75 O -0.00322 0.35421 0.33453 0.0
O76 O 0.96584 0.39064 0.39904 0.0
O77 O 0.08587 0.34912 0.52242 0.0
O78 O 0.16735 0.33175 0.44081 0.0
C79 C 0.17475 0.33917 0.49443 0.0
O80 O 0.73783 0.34154 0.48448 0.0
O81 O 0.67293 0.36116 0.56766 0.0
C82 C 0.8491 0.29499 0.43822 0.0
C83 C 0.65666 0.34449 0.52381 0.0
Zn84 Zn 0.50729 0.84306 0.10142 0.0
Zn85 Zn 0.73453 0.90815 0.95422 0.0
Zn86 Zn 0.6149 0.87077 0.99975 0.0
C87 C 0.60204 0.94609 0.99837 0.0
C88 C 0.56909 0.87862 0.87397 0.0
O89 O 0.73165 0.8341 0.02135 0.0
O90 O 0.6193 0.81042 0.08724 0.0
C91 C 0.59057 0.90863 0.12856 0.0
O92 O 0.5597 0.91957 1.00129 0.0
O93 O 0.70832 0.94871 0.99005 0.0
O94 O 0.65111 0.89697 0.88019 0.0
O95 O 0.52586 0.86489 0.91908 0.0
O96 O 0.57777 0.88737 0.09203 0.0
O97 O 0.5796 0.8878 0.09018 0.0
O98 O 0.45343 0.85162 0.96612 0.0
O99 O 0.37065 0.83798 0.05166 0.0
C100 C 0.36539 0.84227 0.99611 0.0
O101 O 0.80136 0.85523 0.98939 0.0
O102 O 0.88748 0.89469 0.94857 0.0
C103 C 0.70756 0.81098 0.05422 0.0
C104 C 0.8926 0.86819 0.96837 0.0
Zn105 Zn 0.25549 0.10482 0.90376 0.0
Zn106 Zn 0.44728 0.14583 0.10126 0.0
Zn107 Zn 0.3412 0.124 0.99016 0.0
C108 C 0.60293 0.14461 1.001 0.0
C109 C 0.34732 0.08074 0.11553 0.0
O110 O 0.1668 0.1437 0.9824 0.0
O111 O 0.09762 0.10607 0.92979 0.0
C112 C 0.4127 0.14169 0.86161 0.0
O113 O 0.51713 0.13804 0.96754 0.0
O114 O 0.59257 0.14723 0.05676 0.0
O115 O 0.36796 0.10374 0.08346 0.0
O116 O 0.36554 0.10323 0.08082 0.0
O117 O 0.30664 0.13908 0.8539 0.0
O118 O 0.45457 0.13322 0.91192 0.0
O119 O 0.32724 0.07469 0.99577 0.0
O120 O 0.33665 0.06516 0.90091 0.0
C121 C 0.34911 0.05643 0.95389 0.0
O122 O 0.24309 0.16478 0.00892 0.0
O123 O 0.35873 0.1826 0.07878 0.0
C124 C 0.08096 0.12926 0.96066 0.0
C125 C 0.27907 0.18659 0.04169 0.0
Zn126 Zn 0.59927 0.0876 0.53434 0.0
Zn127 Zn 0.41824 0.15491 0.4298 0.0
Zn128 Zn 0.51619 0.11875 0.48533 0.0
C129 C 0.26173 0.13821 0.51327 0.0
C130 C 0.45041 0.10728 0.35407 0.0
O131 O 0.70177 0.13312 0.49666 0.0
O132 O 0.75949 0.08627 0.50704 0.0
C133 C 0.51068 0.11529 0.6239 0.0
O134 O 0.35318 0.12655 0.53566 0.0
O135 O 0.26717 0.15203 0.46445 0.0
O136 O 0.43689 0.13545 0.35179 0.0
O137 O 0.47267 0.09431 0.4039 0.0
O138 O 0.60236 0.101 0.61541 0.0
O139 O 0.44533 0.12082 0.57893 0.0
O140 O 0.51788 0.07067 0.44714 0.0
O141 O 0.68138 0.05647 0.48655 0.0
C142 C 0.59354 0.04988 0.45644 0.0
O143 O 0.63351 0.15728 0.4714 0.0
O144 O 0.50374 0.19104 0.4458 0.0
C145 C 0.78424 0.11395 0.50266 0.0
C146 C 0.60457 0.18471 0.46012 0.0
Zn147 Zn 0.50914 0.81937 0.43362 0.0
Zn148 Zn 0.30693 0.8974 0.54551 0.0
Zn149 Zn 0.42006 0.85913 0.49825 0.0
C150 C 0.41649 0.93109 0.46556 0.0
C151 C 0.45849 0.87345 0.6289 0.0
O152 O 0.30319 0.8194 0.49343 0.0
O153 O 0.41033 0.78519 0.44837 0.0
C154 C 0.48455 0.86879 0.3605 0.0
O155 O 0.44 0.90376 0.45026 0.0
O156 O 0.35528 0.93561 0.5108 0.0
O157 O 0.36554 0.88747 0.62391 0.0
O158 O 0.50854 0.86254 0.58282 0.0
O159 O 0.50397 0.84092 0.35629 0.0
O160 O 0.45658 0.88023 0.41098 0.0
O161 O 0.58579 0.84809 0.5414 0.0
O162 O 0.65625 0.81778 0.47281 0.0
C163 C 0.66944 0.83253 0.51984 0.0
O164 O 0.23706 0.84352 0.5147 0.0
O165 O 0.15049 0.88629 0.53729 0.0
C166 C 0.32023 0.79209 0.47592 0.0
C167 C 0.14532 0.85842 0.52785 0.0
C168 C 0.56007 0.38055 0.01086 0.0
C169 C 0.50582 0.35872 0.97558 0.0
C170 C 0.69301 0.33759 0.94869 0.0
C171 C 0.7462 0.36187 0.9785 0.0
N172 N 0.72987 0.41049 0.02449 0.0
N173 N 0.51711 0.31751 0.90703 0.0
C174 C 0.67915 0.3846 0.0054 0.0
C175 C 0.57129 0.33735 0.94341 0.0
N176 N 0.49677 0.3977 0.04909 0.0
N177 N 0.75835 0.3147 0.92676 0.0
H178 H 0.42804 0.31613 0.90505 0.0
H179 H 0.55999 0.30338 0.87764 0.0
H180 H 0.84757 0.31518 0.92811 0.0
H181 H 0.72428 0.29489 0.90971 0.0
H182 H 0.53314 0.41236 0.07963 0.0
H183 H 0.40855 0.39484 0.0543 0.0
H184 H 0.68426 0.42903 0.03998 0.0
H185 H 0.81707 0.41449 0.01852 0.0
C186 C 0.35925 0.66028 0.04475 0.0
C187 C 0.30534 0.64596 0.09453 0.0
C188 C 0.49408 0.64234 0.14122 0.0
C189 C 0.54904 0.64913 0.08692 0.0
N190 N 0.53215 0.66481 0.98465 0.0
N191 N 0.33423 0.61569 0.18337 0.0
C192 C 0.48132 0.65861 0.03803 0.0
C193 C 0.37607 0.63527 0.14149 0.0
N194 N 0.29556 0.67625 0.00505 0.0
N195 N 0.55702 0.64036 0.19182 0.0
H196 H 0.2539 0.60574 0.18028 0.0
H197 H 0.38538 0.60584 0.21579 0.0
H198 H 0.64466 0.64506 0.19188 0.0
H199 H 0.51991 0.63715 0.23363 0.0
H200 H 0.33187 0.68914 0.97097 0.0
H201 H 0.20767 0.67929 0.00993 0.0
H202 H 0.48608 0.66797 0.94572 0.0
H203 H 0.62058 0.66566 0.97895 0.0
C204 C 0.48911 0.66007 0.60074 0.0
C205 C 0.55791 0.63999 0.56731 0.0
C206 C 0.3868 0.61641 0.52663 0.0
C207 C 0.31758 0.63434 0.56411 0.0
N208 N 0.30108 0.67058 0.64273 0.0
N209 N 0.57342 0.59509 0.50813 0.0
C210 C 0.36811 0.65555 0.6029 0.0
C211 C 0.50674 0.61678 0.53367 0.0
N212 N 0.53937 0.6836 0.62936 0.0
N213 N 0.33743 0.5995 0.48314 0.0
H214 H 0.66227 0.59489 0.51172 0.0
H215 H 0.54021 0.57587 0.4882 0.0
H216 H 0.24936 0.59931 0.47582 0.0
H217 H 0.38418 0.58824 0.45062 0.0
H218 H 0.49343 0.70095 0.64924 0.0
H219 H 0.62806 0.6863 0.63072 0.0
H220 H 0.33366 0.68424 0.67602 0.0
H221 H 0.21242 0.66794 0.64433 0.0
C222 C 0.47096 0.3177 0.54646 0.0
C223 C 0.53477 0.33837 0.51073 0.0
C224 C 0.35816 0.36532 0.48756 0.0
C225 C 0.29299 0.34255 0.51614 0.0
N226 N 0.28482 0.29542 0.56896 0.0
N227 N 0.53462 0.37809 0.43696 0.0
C228 C 0.34874 0.31822 0.54474 0.0
C229 C 0.47672 0.36093 0.47789 0.0
N230 N 0.52722 0.29802 0.58262 0.0
N231 N 0.30552 0.39117 0.4692 0.0
H232 H 0.6208 0.37489 0.4269 0.0
H233 H 0.49444 0.39314 0.40829 0.0
H234 H 0.21855 0.39501 0.47679 0.0
H235 H 0.34974 0.40983 0.45247 0.0
H236 H 0.48619 0.2844 0.61403 0.0
H237 H 0.61621 0.29654 0.58294 0.0
H238 H 0.3198 0.27541 0.58486 0.0
H239 H 0.1956 0.2963 0.57072 0.0
C240 C 0.08226 0.87663 0.00965 0.0
C241 C 0.00944 0.8568 0.97874 0.0
C242 C 0.1769 0.82655 0.95077 0.0
C243 C 0.24881 0.84895 0.97532 0.0
N244 N 0.26804 0.89987 0.01061 0.0
N245 N -0.01085 0.81568 0.91024 0.0
C246 C 0.20052 0.87556 0.99866 0.0
C247 C 0.05688 0.83233 0.94653 0.0
N248 N 0.03811 0.89651 0.04984 0.0
N249 N 0.2229 0.80004 0.93198 0.0
H250 H 0.90229 0.82021 0.90537 0.0
H251 H 0.02089 0.79909 0.88206 0.0
H252 H 0.31097 0.79619 0.93238 0.0
H253 H 0.17336 0.78174 0.91886 0.0
H254 H 0.08937 0.90982 0.07688 0.0
H255 H 0.95109 0.89714 0.06058 0.0
H256 H 0.23501 0.92068 0.0234 0.0
H257 H 0.35552 0.90001 1.00158 0.0
C258 C 0.89427 0.11245 0.99946 0.0
C259 C 0.96101 0.13636 0.97558 0.0
C260 C 0.78703 0.16624 0.96123 0.0
C261 C 0.72102 0.14096 0.97952 0.0
N262 N 0.70966 0.08797 1.00288 0.0
N263 N 0.97199 0.18484 0.9269 0.0
C264 C 0.77428 0.11336 0.99408 0.0
C265 C 0.90792 0.1631 0.95466 0.0
N266 N 0.94597 0.08924 0.02904 0.0
N267 N 0.73424 0.19319 0.95121 0.0
H268 H 0.0606 0.18335 0.92243 0.0
H269 H 0.93684 0.20345 0.90544 0.0
H270 H 0.64541 0.19547 0.95285 0.0
H271 H 0.77832 0.21331 0.94397 0.0
H272 H 0.90068 0.0726 0.05214 0.0
H273 H 0.03411 0.08849 0.03597 0.0
H274 H 0.74479 0.06658 0.0082 0.0
H275 H 0.62081 0.08787 0.99888 0.0
C276 C 0.067 0.14913 0.55485 0.0
C277 C 0.14518 0.12822 0.53016 0.0
C278 C -0.01168 0.10321 0.47914 0.0
C279 C 0.90757 0.1223 0.50748 0.0
N280 N 0.87084 0.15906 0.58433 0.0
N281 N 0.17558 0.08034 0.48326 0.0
C282 C 0.94679 0.14415 0.54885 0.0
C283 C 0.10351 0.10333 0.49796 0.0
N284 N 0.10797 0.17403 0.58296 0.0
N285 N 0.95625 0.08601 0.43194 0.0
H286 H 0.26088 0.07992 0.49648 0.0
H287 H 0.14747 0.06046 0.46369 0.0
H288 H 0.8744 0.08695 0.41389 0.0
H289 H 0.01417 0.07368 0.40648 0.0
H290 H 0.05626 0.19195 0.59593 0.0
H291 H 0.19521 0.17709 0.59065 0.0
H292 H 0.89598 0.17317 0.61865 0.0
H293 H 0.783 0.15531 0.58321 0.0
C294 C 0.85819 0.82415 0.57122 0.0
C295 C 0.78938 0.84085 0.53141 0.0
C296 C 0.96014 0.85889 0.47917 0.0
C297 C 0.02948 0.84562 0.52297 0.0
N298 N 0.04663 0.81804 0.61478 0.0
N299 N 0.77553 0.87957 0.45632 0.0
C300 C -0.02068 0.8287 0.57021 0.0
C301 C 0.84097 0.86002 0.48834 0.0
N302 N 0.80797 0.80395 0.60921 0.0
N303 N 0.00895 0.87041 0.42853 0.0
H304 H 0.68735 0.88123 0.46248 0.0
H305 H 0.81036 0.89618 0.4287 0.0
H306 H 0.09684 0.86927 0.42022 0.0
H307 H 0.96149 0.87805 0.39253 0.0
H308 H 0.85407 0.78889 0.63529 0.0
H309 H 0.71927 0.80151 0.61232 0.0
H310 H 0.01425 0.808 0.65329 0.0
H311 H 0.13531 0.82074 0.61421 0.0
C312 C 0.13535 0.52821 0.99465 0.0
C313 C 0.01961 0.53374 0.97939 0.0
C314 C -0.00536 0.48105 0.95196 0.0
C315 C 0.11176 0.47569 0.96327 0.0
N316 N 0.29886 0.49453 0.98736 0.0
N317 N 0.84991 0.51779 0.92857 0.0
C318 C 0.18412 0.49944 0.98207 0.0
C319 C 0.95308 0.51086 0.953 0.0
N320 N 0.19651 0.54981 0.02358 0.0
N321 N 0.92141 0.45744 0.94348 0.0
H322 H 0.81858 0.53973 0.92794 0.0
H323 H 0.8022 0.50263 0.90367 0.0
H324 H 0.94746 0.43503 0.94614 0.0
H325 H 0.83305 0.45992 0.94054 0.0
H326 H 0.27677 0.54602 0.04181 0.0
H327 H 0.16401 0.57122 0.03225 0.0
H328 H 0.35793 0.51162 0.99519 0.0
H329 H 0.33582 0.47348 0.98001 0.0
C330 C 0.9097 0.47872 0.41777 0.0
C331 C 0.84697 0.46245 0.4619 0.0
C332 C 0.80822 0.51023 0.51199 0.0
C333 C 0.89315 0.52458 0.47738 0.0
N334 N 0.02797 0.52279 0.39648 0.0
N335 N 0.76422 0.46402 0.56187 0.0
C336 C 0.94456 0.50902 0.42948 0.0
C337 C 0.80165 0.47854 0.5116 0.0
N338 N 0.93186 0.46574 0.36439 0.0
N339 N 0.73967 0.52675 0.54875 0.0
H340 H 0.77375 0.44107 0.56953 0.0
H341 H 0.73947 0.47545 0.60015 0.0
H342 H 0.74586 0.55017 0.55134 0.0
H343 H 0.67012 0.5174 0.57163 0.0
H344 H 0.97158 0.47706 0.32918 0.0
H345 H 0.8968 0.44491 0.35364 0.0
H346 H 0.07614 0.5116 0.36439 0.0
H347 H 0.05197 0.54513 0.40378 0.0
C348 C 0.43162 0.98051 0.02295 0.0
C349 C 0.52784 0.9729 0.9868 0.0
C350 C 0.5107 0.02104 0.93475 0.0
C351 C 0.40864 0.02757 0.96635 0.0
N352 N 0.26011 0.01092 0.03381 0.0
N353 N 0.62498 0.98161 0.89274 0.0
C354 C 0.36552 0.00657 0.00872 0.0
C355 C 0.55707 0.99183 0.93796 0.0
N356 N 0.40466 0.96348 0.07152 0.0
N357 N 0.56771 0.04308 0.90396 0.0
H358 H 0.65312 0.95939 0.88998 0.0
H359 H 0.64009 0.99413 0.85412 0.0
H360 H 0.54247 0.06555 0.90464 0.0
H361 H 0.64795 0.03965 0.88463 0.0
H362 H 0.34481 0.96985 0.10352 0.0
H363 H 0.4473 0.94373 0.08146 0.0
H364 H 0.21902 0.99488 0.06039 0.0
H365 H 0.20903 0.02946 0.02375 0.0
C366 C 0.51114 0.00576 0.39797 0.0
C367 C 0.56486 0.01721 0.44963 0.0
C368 C 0.56981 0.96596 0.48983 0.0
C369 C 0.49067 0.95655 0.44699 0.0
N370 N 0.38616 0.96694 0.35799 0.0
N371 N 0.61267 0.00738 0.5532 0.0
C372 C 0.46178 0.97622 0.39982 0.0
C373 C 0.5877 -0.00295 0.49768 0.0
N374 N 0.51066 0.02255 0.34723 0.0
N375 N 0.62021 0.94534 0.52634 0.0
H376 H 0.60678 0.02991 0.56545 0.0
H377 H 0.62156 0.99303 0.58969 0.0
H378 H 0.60546 0.92223 0.52235 0.0
H379 H 0.68454 0.95117 0.556 0.0
H380 H 0.47893 0.01464 0.30715 0.0
H381 H 0.55431 0.04303 0.34427 0.0
H382 H 0.35325 0.98128 0.3256 0.0
H383 H 0.35366 0.94499 0.35778 0.0
C384 C 0.21225 0.26565 0.98227 0.0
C385 C 0.21564 0.28173 0.03674 0.0
C386 C 0.21935 0.2338 0.09075 0.0
C387 C 0.23463 0.2179 0.03698 0.0
N388 N 0.26784 0.22024 0.93077 0.0
N389 N 0.2533 0.28054 0.14185 0.0
C390 C 0.23691 0.23416 0.9823 0.0
C391 C 0.22892 0.26556 0.09067 0.0
N392 N 0.18054 0.27976 0.93095 0.0
N393 N 0.19471 0.21847 0.14206 0.0
H394 H 0.26706 0.30379 0.14281 0.0
H395 H 0.2727 0.26949 0.18146 0.0
H396 H 0.18245 0.19515 0.14304 0.0
H397 H 0.17393 0.22925 0.18168 0.0
H398 H 0.16481 0.26811 0.89182 0.0
H399 H 0.15988 0.30253 0.92842 0.0
H400 H 0.28288 0.23206 0.89135 0.0
H401 H 0.28744 0.19743 0.92815 0.0
C402 C 0.80226 0.76616 0.00504 0.0
C403 C 0.78024 0.78374 0.05631 0.0
C404 C 0.80769 0.73948 0.11842 0.0
C405 C 0.84459 0.72258 0.06846 0.0
N406 N 0.90929 0.72406 0.966 0.0
N407 N 0.80167 0.78893 0.16202 0.0
C408 C 0.8521 0.73714 0.01209 0.0
C409 C 0.79852 0.77102 0.11303 0.0
N410 N 0.76925 0.77591 0.95029 0.0
N411 N 0.77154 0.72556 0.1695 0.0
H412 H 0.79665 0.81239 0.15898 0.0
H413 H 0.82156 0.78057 0.20405 0.0
H414 H 0.75979 0.70231 0.17296 0.0
H415 H 0.73714 0.73742 0.20522 0.0
H416 H 0.77396 0.7623 0.91279 0.0
H417 H 0.72904 0.79652 0.94321 0.0
H418 H 0.92313 0.73511 0.92559 0.0
H419 H 0.95443 0.70398 0.97054 0.0
C420 C 0.14558 0.73018 0.55115 0.0
C421 C 0.11686 0.71308 0.5005 0.0
C422 C 0.19685 0.75209 0.43555 0.0
C423 C 0.23604 0.76783 0.48593 0.0
N424 N 0.26635 0.76929 0.59179 0.0
N425 N 0.13539 0.70432 0.3955 0.0
C426 C 0.21543 0.75626 0.54397 0.0
C427 C 0.1493 0.72299 0.44297 0.0
N428 N 0.10296 0.72215 0.6056 0.0
N429 N 0.2026 0.7654 0.38071 0.0
H430 H 0.10233 0.68252 0.39982 0.0
H431 H 0.167 0.70924 0.35318 0.0
H432 H 0.23408 0.78722 0.3741 0.0
H433 H 0.16567 0.75615 0.34305 0.0
H434 H 0.11034 0.73568 0.643 0.0
H435 H 0.05409 0.7027 0.61243 0.0
H436 H 0.26451 0.75976 0.63415 0.0
H437 H 0.31692 0.78862 0.58842 0.0
C438 C 0.76648 0.25452 0.50327 0.0
C439 C 0.77932 0.26769 0.44599 0.0
C440 C 0.71422 0.22104 0.40034 0.0
C441 C 0.68724 0.20945 0.45733 0.0
N442 N 0.6739 0.21591 0.5632 0.0
N443 N 0.75037 0.26554 0.34037 0.0
C444 C 0.71 0.22632 0.50901 0.0
C445 C 0.74898 0.25147 0.39453 0.0
N446 N 0.81258 0.26819 0.55172 0.0
N447 N 0.70626 0.20277 0.3519 0.0
H448 H 0.77277 0.28819 0.33499 0.0
H449 H 0.7191 0.25573 0.30189 0.0
H450 H 0.6819 0.18016 0.35533 0.0
H451 H 0.73415 0.20907 0.3096 0.0
H452 H 0.81705 0.25789 0.5933 0.0
H453 H 0.85321 0.28909 0.54956 0.0
H454 H 0.67559 0.22891 0.60153 0.0
H455 H 0.6361 0.19476 0.56901 0.0
C456 C 0.96296 0.41188 0.18954 0.0
C457 C 0.08022 0.41821 0.17862 0.0
C458 C 0.11586 0.41568 0.28597 0.0
C459 C 0.00608 0.40266 0.2944 0.0
N460 N 0.82029 0.39047 0.25644 0.0
N461 N 0.26689 0.43013 0.21627 0.0
C462 C 0.92754 0.40187 0.24687 0.0
C463 C 0.15575 0.42202 0.22707 0.0
N464 N 0.88549 0.41668 0.14557 0.0
N465 N 0.18192 0.42138 0.33434 0.0
H466 H 0.29714 0.43582 0.17396 0.0
H467 H 0.33025 0.43022 0.2484 0.0
H468 H 0.15288 0.41713 0.37746 0.0
H469 H 0.26016 0.43256 0.3325 0.0
H470 H 0.79741 0.41464 0.15151 0.0
H471 H 0.90956 0.4261 0.10486 0.0
H472 H 0.76328 0.38563 0.22252 0.0
H473 H 0.79015 0.38486 0.29885 0.0
C474 C -0.02201 0.58024 0.24961 0.0
C475 C 0.87053 0.57768 0.22166 0.0
C476 C 0.77378 0.58501 0.31724 0.0
C477 C 0.87975 0.59399 0.34166 0.0
N478 N 0.08439 0.59914 0.33344 0.0
N479 N 0.66588 0.57309 0.22845 0.0
C480 C -0.01718 0.59069 0.30893 0.0
C481 C 0.76816 0.57805 0.25571 0.0
N482 N 0.07469 0.57193 0.21967 0.0
N483 N 0.67919 0.58351 0.35312 0.0
H484 H 0.66055 0.56638 0.18426 0.0
H485 H 0.58657 0.57623 0.24868 0.0
H486 H 0.68286 0.58835 0.3983 0.0
H487 H 0.59999 0.5754 0.33978 0.0
H488 H 0.15392 0.56973 0.24 0.0
H489 H 0.07275 0.5641 0.17609 0.0
H490 H 0.16055 0.60086 0.30934 0.0
H491 H 0.09124 0.60569 0.37769 0.0
C492 C 0.86315 0.64005 0.82505 0.0
C493 C 0.80541 0.6154 0.85273 0.0
C494 C 0.73857 0.59911 0.75444 0.0
C495 C 0.81626 0.61936 0.72749 0.0
N496 N 0.94979 0.66037 0.73502 0.0
N497 N 0.68265 0.57143 0.84269 0.0
C498 C 0.87604 0.64062 0.76221 0.0
C499 C 0.7392 0.59528 0.81729 0.0
N500 N 0.90225 0.66338 0.85866 0.0
N501 N 0.66564 0.58326 0.71922 0.0
H502 H 0.67708 0.56764 0.88812 0.0
H503 H 0.64623 0.55404 0.81841 0.0
H504 H 0.6654 0.58608 0.67315 0.0
H505 H 0.59898 0.56991 0.73551 0.0
H506 H 0.93594 0.68321 0.84071 0.0
H507 H 0.88993 0.66428 0.90448 0.0
H508 H 0.00771 0.67376 0.75789 0.0
H509 H 0.9559 0.66234 0.68891 0.0
C510 C 0.01475 0.39648 0.71137 0.0
C511 C 0.0017 0.37081 0.67481 0.0
C512 C -0.00467 0.33902 0.76501 0.0
C513 C -0.00135 0.36517 0.80074 0.0
N514 N -0.02572 0.41875 0.8068 0.0
N515 N 0.9545 0.31757 0.66904 0.0
C516 C -0.00469 0.39387 0.77333 0.0
C517 C -0.0148 0.34193 0.7021 0.0
N518 N 0.04774 0.42339 0.68679 0.0
N519 N 0.0045 0.31136 0.7914 0.0
H520 H 0.94715 0.31814 0.62316 0.0
H521 H 0.92842 0.29713 0.68777 0.0
H522 H 0.00433 0.30871 0.83749 0.0
H523 H 0.01724 0.29153 0.76775 0.0
H524 H 0.06764 0.44228 0.71199 0.0
H525 H 0.06725 0.42572 0.64169 0.0
H526 H 0.96318 0.44022 0.78879 0.0
H527 H 0.95371 0.41695 0.85166 0.0
C528 C 0.43796 0.89025 0.20069 0.0
C529 C 0.54216 0.90583 0.18946 0.0
C530 C 0.579 0.90834 0.29603 0.0
C531 C 0.48868 0.88731 0.30565 0.0
N532 N 0.32245 0.86109 0.27013 0.0
N533 N 0.68682 0.93941 0.22558 0.0
C534 C 0.41403 0.87955 0.25889 0.0
C535 C 0.60417 0.91824 0.23711 0.0
N536 N 0.35938 0.88746 0.15655 0.0
N537 N 0.64469 0.91723 0.34257 0.0
H538 H 0.70561 0.94703 0.18267 0.0
H539 H 0.73086 0.95115 0.25802 0.0
H540 H 0.62453 0.9116 0.38619 0.0
H541 H 0.71956 0.92979 0.33858 0.0
H542 H 0.27783 0.87846 0.16259 0.0
H543 H 0.37134 0.89732 0.11497 0.0
H544 H 0.27361 0.85111 0.23717 0.0
H545 H 0.29741 0.85493 0.31311 0.0
C546 C 0.49924 0.08963 0.19254 0.0
C547 C 0.38726 0.07998 0.17802 0.0
C548 C 0.34055 0.07482 0.2841 0.0
C549 C 0.44221 0.09078 0.29737 0.0
N550 N 0.624 0.11132 0.26648 0.0
N551 N 0.20604 0.05887 0.20852 0.0
C552 C 0.52407 0.09715 0.25222 0.0
C553 C 0.31022 0.07051 0.22353 0.0
N554 N 0.58248 0.09029 0.14966 0.0
N555 N 0.27295 0.06435 0.3295 0.0
H556 H 0.18356 0.05439 0.16471 0.0
H557 H 0.14041 0.05441 0.23875 0.0
H558 H 0.29442 0.06726 0.3739 0.0
H559 H 0.20124 0.05079 0.3238 0.0
H560 H 0.66813 0.09495 0.158 0.0
H561 H 0.56775 0.08288 0.10657 0.0
H562 H 0.68082 0.12019 0.2351 0.0
H563 H 0.6479 0.11516 0.31034 0.0
C564 C 0.44021 0.16363 0.7605 0.0
C565 C 0.48109 0.14423 0.80599 0.0
C566 C 0.52548 0.1062 0.7329 0.0
C567 C 0.48725 0.12528 0.686 0.0
N568 N 0.43927 0.17622 0.65561 0.0
N569 N 0.61632 0.10546 0.82865 0.0
C570 C 0.45376 0.15535 0.69966 0.0
C571 C 0.54267 0.11845 0.78977 0.0
N572 N 0.38504 0.18948 0.77608 0.0
N573 N 0.54051 0.07603 0.72422 0.0
H574 H 0.63415 0.11522 0.86952 0.0
H575 H 0.66901 0.08749 0.81684 0.0
H576 H 0.51825 0.06535 0.68481 0.0
H577 H 0.56138 0.06129 0.75871 0.0
H578 H 0.3405 0.20291 0.74609 0.0
H579 H 0.38121 0.19656 0.82016 0.0
H580 H 0.42548 0.199 0.66392 0.0
H581 H 0.45088 0.1715 0.61081 0.0
C582 C 0.51385 0.90086 0.7181 0.0
C583 C 0.50796 0.87283 0.68872 0.0
C584 C 0.5363 0.84668 0.78355 0.0
C585 C 0.52669 0.87479 0.81314 0.0
N586 N 0.47807 0.92751 0.80938 0.0
N587 N 0.4994 0.81855 0.6936 0.0
C588 C 0.50644 0.90153 0.78049 0.0
C589 C 0.51575 0.84548 0.72135 0.0
N590 N 0.52681 0.9269 0.68597 0.0
N591 N 0.56938 0.8215 0.814 0.0
H592 H 0.48788 0.81684 0.64792 0.0
H593 H 0.49081 0.79816 0.71638 0.0
H594 H 0.58329 0.82131 0.85961 0.0
H595 H 0.59021 0.80129 0.7933 0.0
H596 H 0.54127 0.94781 0.70537 0.0
H597 H 0.53516 0.92694 0.63982 0.0
H598 H 0.45345 0.94715 0.78743 0.0
H599 H 0.4673 0.92835 0.85539 0.0
loop_
_geom_bond_atom_site_label_1
_geom_bond_atom_site_label_2
_geom_bond_distance
_geom_bond_site_symmetry_2
_ccdc_geom_bond_type
Zn0 O6 1.920 1_655 S
Zn0 O12 1.898 . S
Zn0 O15 1.905 . S
Zn1 O9 1.905 . S
Zn1 O10 1.898 . S
Zn1 O18 1.920 . S
Zn2 O5 2.080 1_554 S
Zn2 O8 2.114 1_554 S
Zn2 O11 2.120 1_554 S
Zn2 O13 2.120 . S
Zn2 O14 2.114 1_455 S
Zn2 O17 2.080 . S
C3 O8 1.166 . S
C3 O9 1.182 . S
C4 O10 1.167 . S
C4 O11 1.299 . S
O5 Zn2 2.080 1_556 S
O5 C19 1.305 1_556 S
O6 Zn0 1.920 1_455 S
O6 C19 1.234 . S
C7 O12 1.167 1_455 S
C7 O13 1.299 . S
O8 Zn2 2.114 1_556 S
O8 C3 1.166 . S
O9 Zn1 1.905 . S
O9 C3 1.182 . S
O10 Zn1 1.898 . S
O10 C4 1.167 . S
O11 Zn2 2.120 1_556 S
O11 C4 1.299 . S
O12 Zn0 1.898 . S
O12 C7 1.167 1_655 S
O13 Zn2 2.120 . S
O13 C7 1.299 . S
O14 Zn2 2.114 1_655 S
O14 C16 1.166 . S
O15 Zn0 1.905 . S
O15 C16 1.182 . S
C16 O14 1.166 . S
C16 O15 1.182 . S
O17 Zn2 2.080 . S
O17 C20 1.305 1_554 S
O18 Zn1 1.920 . S
O18 C20 1.234 . S
C19 O5 1.305 1_554 S
C19 O6 1.234 . S
C20 O17 1.305 1_556 S
C20 O18 1.234 . S
Zn21 O27 1.920 . S
Zn21 O33 1.898 . S
Zn21 O36 1.905 . S
Zn22 O30 1.905 . S
Zn22 O31 1.898 . S
Zn22 O39 1.920 1_455 S
Zn23 O26 2.080 . S
Zn23 O29 2.114 1_655 S
Zn23 O32 2.120 . S
Zn23 O34 2.120 1_554 S
Zn23 O35 2.114 1_554 S
Zn23 O38 2.080 1_554 S
C24 O29 1.166 . S
C24 O30 1.182 . S
C25 O31 1.167 1_655 S
C25 O32 1.299 . S
O26 Zn23 2.080 . S
O26 C40 1.305 1_554 S
O27 Zn21 1.920 . S
O27 C40 1.234 . S
C28 O33 1.167 . S
C28 O34 1.299 . S
O29 Zn23 2.114 1_455 S
O29 C24 1.166 . S
O30 Zn22 1.905 . S
O30 C24 1.182 . S
O31 Zn22 1.898 . S
O31 C25 1.167 1_455 S
O32 Zn23 2.120 . S
O32 C25 1.299 . S
O33 Zn21 1.898 . S
O33 C28 1.167 . S
O34 Zn23 2.120 1_556 S
O34 C28 1.299 . S
O35 Zn23 2.114 1_556 S
O35 C37 1.166 . S
O36 Zn21 1.905 . S
O36 C37 1.182 . S
C37 O35 1.166 . S
C37 O36 1.182 . S
O38 Zn23 2.080 1_556 S
O38 C41 1.305 1_556 S
O39 Zn22 1.920 1_655 S
O39 C41 1.234 . S
C40 O26 1.305 1_556 S
C40 O27 1.234 . S
C41 O38 1.305 1_554 S
C41 O39 1.234 . S
Zn42 O48 1.920 . S
Zn42 O54 1.898 . S
Zn42 O57 1.905 . S
Zn43 O51 1.905 . S
Zn43 O52 1.898 . S
Zn43 O60 1.920 1_655 S
Zn44 O47 2.080 . S
Zn44 O50 2.114 1_455 S
Zn44 O53 2.120 . S
Zn44 O55 2.120 . S
Zn44 O56 2.114 . S
Zn44 O59 2.080 . S
C45 O50 1.166 . S
C45 O51 1.182 . S
C46 O52 1.167 1_455 S
C46 O53 1.299 . S
O47 Zn44 2.080 . S
O47 C61 1.305 . S
O48 Zn42 1.920 . S
O48 C61 1.234 . S
C49 O54 1.167 . S
C49 O55 1.299 . S
O50 Zn44 2.114 1_655 S
O50 C45 1.166 . S
O51 Zn43 1.905 . S
O51 C45 1.182 . S
O52 Zn43 1.898 . S
O52 C46 1.167 1_655 S
O53 Zn44 2.120 . S
O53 C46 1.299 . S
O54 Zn42 1.898 . S
O54 C49 1.167 . S
O55 Zn44 2.120 . S
O55 C49 1.299 . S
O56 Zn44 2.114 . S
O56 C58 1.166 . S
O57 Zn42 1.905 . S
O57 C58 1.182 . S
C58 O56 1.166 . S
C58 O57 1.182 . S
O59 Zn44 2.080 . S
O59 C62 1.305 . S
O60 Zn43 1.920 1_455 S
O60 C62 1.234 . S
C61 O47 1.305 . S
C61 O48 1.234 . S
C62 O59 1.305 . S
C62 O60 1.234 . S
Zn63 O69 1.920 1_455 S
Zn63 O75 1.898 . S
Zn63 O78 1.905 . S
Zn64 O72 1.905 . S
Zn64 O73 1.898 . S
Zn64 O81 1.920 . S
Zn65 O68 2.080 . S
Zn65 O71 2.114 . S
Zn65 O74 2.120 . S
Zn65 O76 2.120 . S
Zn65 O77 2.114 1_655 S
Zn65 O80 2.080 . S
C66 O71 1.166 . S
C66 O72 1.182 . S
C67 O73 1.167 . S
C67 O74 1.299 . S
O68 Zn65 2.080 . S
O68 C82 1.305 . S
O69 Zn63 1.920 1_655 S
O69 C82 1.234 . S
C70 O75 1.167 1_655 S
C70 O76 1.299 . S
O71 Zn65 2.114 . S
O71 C66 1.166 . S
O72 Zn64 1.905 . S
O72 C66 1.182 . S
O73 Zn64 1.898 . S
O73 C67 1.167 . S
O74 Zn65 2.120 . S
O74 C67 1.299 . S
O75 Zn63 1.898 . S
O75 C70 1.167 1_455 S
O76 Zn65 2.120 . S
O76 C70 1.299 . S
O77 Zn65 2.114 1_455 S
O77 C79 1.166 . S
O78 Zn63 1.905 . S
O78 C79 1.182 . S
C79 O77 1.166 . S
C79 O78 1.182 . S
O80 Zn65 2.080 . S
O80 C83 1.305 . S
O81 Zn64 1.920 . S
O81 C83 1.234 . S
C82 O68 1.305 . S
C82 O69 1.234 . S
C83 O80 1.305 . S
C83 O81 1.234 . S
Zn84 O90 1.920 . S
Zn84 O96 1.898 . S
Zn84 O99 1.905 . S
Zn85 O93 1.905 . S
Zn85 O94 1.898 . S
Zn85 O102 1.920 . S
Zn86 O89 2.080 1_554 S
Zn86 O92 2.114 1_554 S
Zn86 O95 2.120 1_554 S
Zn86 O97 2.120 . S
Zn86 O98 2.114 . S
Zn86 O101 2.080 . S
C87 O92 1.166 . S
C87 O93 1.182 . S
C88 O94 1.167 . S
C88 O95 1.299 . S
O89 Zn86 2.080 1_556 S
O89 C103 1.305 1_556 S
O90 Zn84 1.920 . S
O90 C103 1.234 . S
C91 O96 1.167 . S
C91 O97 1.299 . S
O92 Zn86 2.114 1_556 S
O92 C87 1.166 . S
O93 Zn85 1.905 . S
O93 C87 1.182 . S
O94 Zn85 1.898 . S
O94 C88 1.167 . S
O95 Zn86 2.120 1_556 S
O95 C88 1.299 . S
O96 Zn84 1.898 . S
O96 C91 1.167 . S
O97 Zn86 2.120 . S
O97 C91 1.299 . S
O98 Zn86 2.114 . S
O98 C100 1.166 . S
O99 Zn84 1.905 . S
O99 C100 1.182 . S
C100 O98 1.166 . S
C100 O99 1.182 . S
O101 Zn86 2.080 . S
O101 C104 1.305 1_554 S
O102 Zn85 1.920 . S
O102 C104 1.234 . S
C103 O89 1.305 1_554 S
C103 O90 1.234 . S
C104 O101 1.305 1_556 S
C104 O102 1.234 . S
Zn105 O111 1.920 . S
Zn105 O117 1.898 . S
Zn105 O120 1.905 . S
Zn106 O114 1.905 . S
Zn106 O115 1.898 . S
Zn106 O123 1.920 . S
Zn107 O110 2.080 . S
Zn107 O113 2.114 . S
Zn107 O116 2.120 . S
Zn107 O118 2.120 1_554 S
Zn107 O119 2.114 1_554 S
Zn107 O122 2.080 1_554 S
C108 O113 1.166 . S
C108 O114 1.182 . S
C109 O115 1.167 . S
C109 O116 1.299 . S
O110 Zn107 2.080 . S
O110 C124 1.305 1_554 S
O111 Zn105 1.920 . S
O111 C124 1.234 . S
C112 O117 1.167 . S
C112 O118 1.299 . S
O113 Zn107 2.114 . S
O113 C108 1.166 . S
O114 Zn106 1.905 . S
O114 C108 1.182 . S
O115 Zn106 1.898 . S
O115 C109 1.167 . S
O116 Zn107 2.120 . S
O116 C109 1.299 . S
O117 Zn105 1.898 . S
O117 C112 1.167 . S
O118 Zn107 2.120 1_556 S
O118 C112 1.299 . S
O119 Zn107 2.114 1_556 S
O119 C121 1.166 . S
O120 Zn105 1.905 . S
O120 C121 1.182 . S
C121 O119 1.166 . S
C121 O120 1.182 . S
O122 Zn107 2.080 1_556 S
O122 C125 1.305 1_556 S
O123 Zn106 1.920 . S
O123 C125 1.234 . S
C124 O110 1.305 1_556 S
C124 O111 1.234 . S
C125 O122 1.305 1_554 S
C125 O123 1.234 . S
Zn126 O132 1.920 . S
Zn126 O138 1.898 . S
Zn126 O141 1.905 . S
Zn127 O135 1.905 . S
Zn127 O136 1.898 . S
Zn127 O144 1.920 . S
Zn128 O131 2.080 . S
Zn128 O134 2.114 . S
Zn128 O137 2.120 . S
Zn128 O139 2.120 . S
Zn128 O140 2.114 . S
Zn128 O143 2.080 . S
C129 O134 1.166 . S
C129 O135 1.182 . S
C130 O136 1.167 . S
C130 O137 1.299 . S
O131 Zn128 2.080 . S
O131 C145 1.305 . S
O132 Zn126 1.920 . S
O132 C145 1.234 . S
C133 O138 1.167 . S
C133 O139 1.299 . S
O134 Zn128 2.114 . S
O134 C129 1.166 . S
O135 Zn127 1.905 . S
O135 C129 1.182 . S
O136 Zn127 1.898 . S
O136 C130 1.167 . S
O137 Zn128 2.120 . S
O137 C130 1.299 . S
O138 Zn126 1.898 . S
O138 C133 1.167 . S
O139 Zn128 2.120 . S
O139 C133 1.299 . S
O140 Zn128 2.114 . S
O140 C142 1.166 . S
O141 Zn126 1.905 . S
O141 C142 1.182 . S
C142 O140 1.166 . S
C142 O141 1.182 . S
O143 Zn128 2.080 . S
O143 C146 1.305 . S
O144 Zn127 1.920 . S
O144 C146 1.234 . S
C145 O131 1.305 . S
C145 O132 1.234 . S
C146 O143 1.305 . S
C146 O144 1.234 . S
Zn147 O153 1.920 . S
Zn147 O159 1.898 . S
Zn147 O162 1.905 . S
Zn148 O156 1.905 . S
Zn148 O157 1.898 . S
Zn148 O165 1.920 . S
Zn149 O152 2.080 . S
Zn149 O155 2.114 . S
Zn149 O158 2.120 . S
Zn149 O160 2.120 . S
Zn149 O161 2.114 . S
Zn149 O164 2.080 . S
C150 O155 1.166 . S
C150 O156 1.182 . S
C151 O157 1.167 . S
C151 O158 1.299 . S
O152 Zn149 2.080 . S
O152 C166 1.305 . S
O153 Zn147 1.920 . S
O153 C166 1.234 . S
C154 O159 1.167 . S
C154 O160 1.299 . S
O155 Zn149 2.114 . S
O155 C150 1.166 . S
O156 Zn148 1.905 . S
O156 C150 1.182 . S
O157 Zn148 1.898 . S
O157 C151 1.167 . S
O158 Zn149 2.120 . S
O158 C151 1.299 . S
O159 Zn147 1.898 . S
O159 C154 1.167 . S
O160 Zn149 2.120 . S
O160 C154 1.299 . S
O161 Zn149 2.114 . S
O161 C163 1.166 . S
O162 Zn147 1.905 . S
O162 C163 1.182 . S
C163 O161 1.166 . S
C163 O162 1.182 . S
O164 Zn149 2.080 . S
O164 C167 1.305 . S
O165 Zn148 1.920 . S
O165 C167 1.234 . S
C166 O152 1.305 . S
C166 O153 1.234 . S
C167 O164 1.305 . S
C167 O165 1.234 . S
C168 C169 1.363 1_554 S
C168 C174 1.379 . S
C168 N176 1.356 . S
C169 C168 1.363 1_556 S
C169 C175 1.363 . S
C170 C171 1.363 . S
C170 C175 1.379 . S
C170 N177 1.356 . S
C171 C170 1.363 . S
C171 C174 1.363 1_556 S
N172 C174 1.356 . S
N172 H184 0.984 . S
N172 H185 0.985 . S
N173 C175 1.356 . S
N173 H178 0.984 . S
N173 H179 0.985 . S
C174 C168 1.379 . S
C174 C171 1.363 1_554 S
C174 N172 1.356 . S
C175 C169 1.363 . S
C175 C170 1.379 . S
C175 N173 1.356 . S
N176 C168 1.356 . S
N176 H182 0.984 . S
N176 H183 0.984 . S
N177 C170 1.356 . S
N177 H180 0.984 . S
N177 H181 0.985 . S
H178 N173 0.984 . S
H179 N173 0.985 . S
H180 N177 0.984 . S
H181 N177 0.985 . S
H182 N176 0.984 . S
H183 N176 0.984 . S
H184 N172 0.984 . S
H185 N172 0.985 . S
C186 C187 1.363 . S
C186 C192 1.379 . S
C186 N194 1.356 . S
C187 C186 1.363 . S
C187 C193 1.363 1_556 S
C188 C189 1.363 1_554 S
C188 C193 1.379 . S
C188 N195 1.356 . S
C189 C188 1.363 1_556 S
C189 C192 1.363 . S
N190 C192 1.356 . S
N190 H202 0.984 . S
N190 H203 0.985 . S
N191 C193 1.356 . S
N191 H196 0.984 . S
N191 H197 0.985 . S
C192 C186 1.379 . S
C192 C189 1.363 . S
C192 N190 1.356 . S
C193 C187 1.363 1_554 S
C193 C188 1.379 . S
C193 N191 1.356 . S
N194 C186 1.356 . S
N194 H200 0.984 . S
N194 H201 0.984 . S
N195 C188 1.356 . S
N195 H198 0.984 . S
N195 H199 0.985 . S
H196 N191 0.984 . S
H197 N191 0.985 . S
H198 N195 0.984 . S
H199 N195 0.985 . S
H200 N194 0.984 . S
H201 N194 0.984 . S
H202 N190 0.984 . S
H203 N190 0.985 . S
C204 C205 1.363 . S
C204 C210 1.379 . S
C204 N212 1.356 . S
C205 C204 1.363 . S
C205 C211 1.363 . S
C206 C207 1.363 . S
C206 C211 1.379 . S
C206 N213 1.356 . S
C207 C206 1.363 . S
C207 C210 1.363 . S
N208 C210 1.356 . S
N208 H220 0.984 . S
N208 H221 0.985 . S
N209 C211 1.356 . S
N209 H214 0.984 . S
N209 H215 0.985 . S
C210 C204 1.379 . S
C210 C207 1.363 . S
C210 N208 1.356 . S
C211 C205 1.363 . S
C211 C206 1.379 . S
C211 N209 1.356 . S
N212 C204 1.356 . S
N212 H218 0.984 . S
N212 H219 0.984 . S
N213 C206 1.356 . S
N213 H216 0.984 . S
N213 H217 0.985 . S
H214 N209 0.984 . S
H215 N209 0.985 . S
H216 N213 0.984 . S
H217 N213 0.985 . S
H218 N212 0.984 . S
H219 N212 0.984 . S
H220 N208 0.984 . S
H221 N208 0.985 . S
C222 C223 1.363 . S
C222 C228 1.379 . S
C222 N230 1.356 . S
C223 C222 1.363 . S
C223 C229 1.363 . S
C224 C225 1.363 . S
C224 C229 1.379 . S
C224 N231 1.356 . S
C225 C224 1.363 . S
C225 C228 1.363 . S
N226 C228 1.356 . S
N226 H238 0.984 . S
N226 H239 0.985 . S
N227 C229 1.356 . S
N227 H232 0.984 . S
N227 H233 0.985 . S
C228 C222 1.379 . S
C228 C225 1.363 . S
C228 N226 1.356 . S
C229 C223 1.363 . S
C229 C224 1.379 . S
C229 N227 1.356 . S
N230 C222 1.356 . S
N230 H236 0.984 . S
N230 H237 0.984 . S
N231 C224 1.356 . S
N231 H234 0.984 . S
N231 H235 0.985 . S
H232 N227 0.984 . S
H233 N227 0.985 . S
H234 N231 0.984 . S
H235 N231 0.985 . S
H236 N230 0.984 . S
H237 N230 0.984 . S
H238 N226 0.984 . S
H239 N226 0.985 . S
C240 C241 1.363 1_454 S
C240 C246 1.379 . S
C240 N248 1.356 1_455 S
C241 C240 1.363 1_656 S
C241 C247 1.363 1_655 S
C242 C243 1.363 . S
C242 C247 1.379 . S
C242 N249 1.356 . S
C243 C242 1.363 . S
C243 C246 1.363 1_556 S
N244 C246 1.356 . S
N244 H256 0.984 . S
N244 H257 0.985 . S
N245 C247 1.356 1_655 S
N245 H250 0.984 . S
N245 H251 0.985 . S
C246 C240 1.379 . S
C246 C243 1.363 1_554 S
C246 N244 1.356 . S
C247 C241 1.363 1_455 S
C247 C242 1.379 . S
C247 N245 1.356 1_455 S
N248 C240 1.356 1_655 S
N248 H254 0.984 . S
N248 H255 0.984 . S
N249 C242 1.356 . S
N249 H252 0.984 . S
N249 H253 0.985 . S
H250 N245 0.984 . S
H251 N245 0.985 . S
H252 N249 0.984 . S
H253 N249 0.985 . S
H254 N248 0.984 . S
H255 N248 0.984 . S
H256 N244 0.984 . S
H257 N244 0.985 . S
C258 C259 1.363 1_654 S
C258 C264 1.379 . S
C258 N266 1.356 1_655 S
C259 C258 1.363 1_456 S
C259 C265 1.363 1_455 S
C260 C261 1.363 . S
C260 C265 1.379 . S
C260 N267 1.356 . S
C261 C260 1.363 . S
C261 C264 1.363 1_556 S
N262 C264 1.356 . S
N262 H274 0.984 . S
N262 H275 0.985 . S
N263 C265 1.356 1_455 S
N263 H268 0.984 . S
N263 H269 0.985 . S
C264 C258 1.379 . S
C264 C261 1.363 1_554 S
C264 N262 1.356 . S
C265 C259 1.363 1_655 S
C265 C260 1.379 . S
C265 N263 1.356 1_655 S
N266 C258 1.356 1_455 S
N266 H272 0.984 . S
N266 H273 0.984 . S
N267 C260 1.356 . S
N267 H270 0.984 . S
N267 H271 0.985 . S
H268 N263 0.984 . S
H269 N263 0.985 . S
H270 N267 0.984 . S
H271 N267 0.985 . S
H272 N266 0.984 . S
H273 N266 0.984 . S
H274 N262 0.984 . S
H275 N262 0.985 . S
C276 C277 1.363 . S
C276 C282 1.379 . S
C276 N284 1.356 . S
C277 C276 1.363 . S
C277 C283 1.363 . S
C278 C279 1.363 1_455 S
C278 C283 1.379 . S
C278 N285 1.356 1_455 S
C279 C278 1.363 1_655 S
C279 C282 1.363 1_655 S
N280 C282 1.356 1_655 S
N280 H292 0.984 . S
N280 H293 0.985 . S
N281 C283 1.356 . S
N281 H286 0.984 . S
N281 H287 0.985 . S
C282 C276 1.379 . S
C282 C279 1.363 1_455 S
C282 N280 1.356 1_455 S
C283 C277 1.363 . S
C283 C278 1.379 . S
C283 N281 1.356 . S
N284 C276 1.356 . S
N284 H290 0.984 . S
N284 H291 0.984 . S
N285 C278 1.356 1_655 S
N285 H288 0.984 . S
N285 H289 0.985 . S
H286 N281 0.984 . S
H287 N281 0.985 . S
H288 N285 0.984 . S
H289 N285 0.985 . S
H290 N284 0.984 . S
H291 N284 0.984 . S
H292 N280 0.984 . S
H293 N280 0.985 . S
C294 C295 1.363 . S
C294 C300 1.379 . S
C294 N302 1.356 . S
C295 C294 1.363 . S
C295 C301 1.363 . S
C296 C297 1.363 1_655 S
C296 C301 1.379 . S
C296 N303 1.356 1_655 S
C297 C296 1.363 1_455 S
C297 C300 1.363 1_455 S
N298 C300 1.356 1_455 S
N298 H310 0.984 . S
N298 H311 0.985 . S
N299 C301 1.356 . S
N299 H304 0.984 . S
N299 H305 0.985 . S
C300 C294 1.379 . S
C300 C297 1.363 1_655 S
C300 N298 1.356 1_655 S
C301 C295 1.363 . S
C301 C296 1.379 . S
C301 N299 1.356 . S
N302 C294 1.356 . S
N302 H308 0.984 . S
N302 H309 0.984 . S
N303 C296 1.356 1_455 S
N303 H306 0.984 . S
N303 H307 0.985 . S
H304 N299 0.984 . S
H305 N299 0.985 . S
H306 N303 0.984 . S
H307 N303 0.985 . S
H308 N302 0.984 . S
H309 N302 0.984 . S
H310 N298 0.984 . S
H311 N298 0.985 . S
C312 C313 1.363 1_455 S
C312 C318 1.379 . S
C312 N320 1.356 . S
C313 C312 1.363 1_655 S
C313 C319 1.363 1_554 S
C314 C315 1.363 1_656 S
C314 C319 1.379 . S
C314 N321 1.356 . S
C315 C314 1.363 1_454 S
C315 C318 1.363 . S
N316 C318 1.356 . S
N316 H328 0.984 . S
N316 H329 0.985 . S
N317 C319 1.356 . S
N317 H322 0.984 . S
N317 H323 0.985 . S
C318 C312 1.379 . S
C318 C315 1.363 . S
C318 N316 1.356 . S
C319 C313 1.363 1_556 S
C319 C314 1.379 . S
C319 N317 1.356 . S
N320 C312 1.356 . S
N320 H326 0.984 . S
N320 H327 0.984 . S
N321 C314 1.356 . S
N321 H324 0.984 . S
N321 H325 0.985 . S
H322 N317 0.984 . S
H323 N317 0.985 . S
H324 N321 0.984 . S
H325 N321 0.985 . S
H326 N320 0.984 . S
H327 N320 0.984 . S
H328 N316 0.984 . S
H329 N316 0.985 . S
C330 C331 1.363 1_455 S
C330 C336 1.379 . S
C330 N338 1.356 . S
C331 C330 1.363 1_655 S
C331 C337 1.363 . S
C332 C333 1.363 1_655 S
C332 C337 1.379 . S
C332 N339 1.356 . S
C333 C332 1.363 1_455 S
C333 C336 1.363 . S
N334 C336 1.356 . S
N334 H346 0.984 . S
N334 H347 0.985 . S
N335 C337 1.356 . S
N335 H340 0.984 . S
N335 H341 0.985 . S
C336 C330 1.379 . S
C336 C333 1.363 . S
C336 N334 1.356 . S
C337 C331 1.363 . S
C337 C332 1.379 . S
C337 N335 1.356 . S
N338 C330 1.356 . S
N338 H344 0.984 . S
N338 H345 0.984 . S
N339 C332 1.356 . S
N339 H342 0.984 . S
N339 H343 0.985 . S
H340 N335 0.984 . S
H341 N335 0.985 . S
H342 N339 0.984 . S
H343 N339 0.985 . S
H344 N338 0.984 . S
H345 N338 0.984 . S
H346 N334 0.984 . S
H347 N334 0.985 . S
C348 C349 1.363 . S
C348 C354 1.379 1_565 S
C348 N356 1.356 . S
C349 C348 1.363 . S
C349 C355 1.363 1_554 S
C350 C351 1.363 1_556 S
C350 C355 1.379 1_545 S
C350 N357 1.356 . S
C351 C350 1.363 1_554 S
C351 C354 1.363 . S
N352 C354 1.356 . S
N352 H364 0.984 . S
N352 H365 0.985 . S
N353 C355 1.356 . S
N353 H358 0.984 . S
N353 H359 0.985 . S
C354 C348 1.379 1_545 S
C354 C351 1.363 . S
C354 N352 1.356 . S
C355 C349 1.363 1_556 S
C355 C350 1.379 1_565 S
C355 N353 1.356 . S
N356 C348 1.356 . S
N356 H362 0.984 . S
N356 H363 0.984 . S
N357 C350 1.356 . S
N357 H360 0.984 . S
N357 H361 0.985 . S
H358 N353 0.984 . S
H359 N353 0.985 . S
H360 N357 0.984 . S
H361 N357 0.985 . S
H362 N356 0.984 . S
H363 N356 0.984 . S
H364 N352 0.984 . S
H365 N352 0.985 . S
C366 C367 1.363 . S
C366 C372 1.379 1_545 S
C366 N374 1.356 . S
C367 C366 1.363 . S
C367 C373 1.363 . S
C368 C369 1.363 . S
C368 C373 1.379 1_565 S
C368 N375 1.356 . S
C369 C368 1.363 . S
C369 C372 1.363 . S
N370 C372 1.356 . S
N370 H382 0.984 . S
N370 H383 0.985 . S
N371 C373 1.356 . S
N371 H376 0.984 . S
N371 H377 0.985 . S
C372 C366 1.379 1_565 S
C372 C369 1.363 . S
C372 N370 1.356 . S
C373 C367 1.363 . S
C373 C368 1.379 1_545 S
C373 N371 1.356 . S
N374 C366 1.356 . S
N374 H380 0.984 . S
N374 H381 0.984 . S
N375 C368 1.356 . S
N375 H378 0.984 . S
N375 H379 0.985 . S
H376 N371 0.984 . S
H377 N371 0.985 . S
H378 N375 0.984 . S
H379 N375 0.985 . S
H380 N374 0.984 . S
H381 N374 0.984 . S
H382 N370 0.984 . S
H383 N370 0.985 . S
C384 C385 1.363 1_556 S
C384 C390 1.379 . S
C384 N392 1.356 . S
C385 C384 1.363 1_554 S
C385 C391 1.363 . S
C386 C387 1.363 . S
C386 C391 1.379 . S
C386 N393 1.356 . S
C387 C386 1.363 . S
C387 C390 1.363 1_554 S
N388 C390 1.356 . S
N388 H400 0.984 . S
N388 H401 0.985 . S
N389 C391 1.356 . S
N389 H394 0.984 . S
N389 H395 0.985 . S
C390 C384 1.379 . S
C390 C387 1.363 1_556 S
C390 N388 1.356 . S
C391 C385 1.363 . S
C391 C386 1.379 . S
C391 N389 1.356 . S
N392 C384 1.356 . S
N392 H398 0.984 . S
N392 H399 0.984 . S
N393 C386 1.356 . S
N393 H396 0.984 . S
N393 H397 0.985 . S
H394 N389 0.984 . S
H395 N389 0.985 . S
H396 N393 0.984 . S
H397 N393 0.985 . S
H398 N392 0.984 . S
H399 N392 0.984 . S
H400 N388 0.984 . S
H401 N388 0.985 . S
C402 C403 1.363 1_556 S
C402 C408 1.379 . S
C402 N410 1.356 . S
C403 C402 1.363 1_554 S
C403 C409 1.363 . S
C404 C405 1.363 . S
C404 C409 1.379 . S
C404 N411 1.356 . S
C405 C404 1.363 . S
C405 C408 1.363 1_554 S
N406 C408 1.356 . S
N406 H418 0.984 . S
N406 H419 0.985 . S
N407 C409 1.356 . S
N407 H412 0.984 . S
N407 H413 0.985 . S
C408 C402 1.379 . S
C408 C405 1.363 1_556 S
C408 N406 1.356 . S
C409 C403 1.363 . S
C409 C404 1.379 . S
C409 N407 1.356 . S
N410 C402 1.356 . S
N410 H416 0.984 . S
N410 H417 0.984 . S
N411 C404 1.356 . S
N411 H414 0.984 . S
N411 H415 0.985 . S
H412 N407 0.984 . S
H413 N407 0.985 . S
H414 N411 0.984 . S
H415 N411 0.985 . S
H416 N410 0.984 . S
H417 N410 0.984 . S
H418 N406 0.984 . S
H419 N406 0.985 . S
C420 C421 1.363 . S
C420 C426 1.379 . S
C420 N428 1.356 . S
C421 C420 1.363 . S
C421 C427 1.363 . S
C422 C423 1.363 . S
C422 C427 1.379 . S
C422 N429 1.356 . S
C423 C422 1.363 . S
C423 C426 1.363 . S
N424 C426 1.356 . S
N424 H436 0.984 . S
N424 H437 0.985 . S
N425 C427 1.356 . S
N425 H430 0.984 . S
N425 H431 0.985 . S
C426 C420 1.379 . S
C426 C423 1.363 . S
C426 N424 1.356 . S
C427 C421 1.363 . S
C427 C422 1.379 . S
C427 N425 1.356 . S
N428 C420 1.356 . S
N428 H434 0.984 . S
N428 H435 0.984 . S
N429 C422 1.356 . S
N429 H432 0.984 . S
N429 H433 0.985 . S
H430 N425 0.984 . S
H431 N425 0.985 . S
H432 N429 0.984 . S
H433 N429 0.985 . S
H434 N428 0.984 . S
H435 N428 0.984 . S
H436 N424 0.984 . S
H437 N424 0.985 . S
C438 C439 1.363 . S
C438 C444 1.379 . S
C438 N446 1.356 . S
C439 C438 1.363 . S
C439 C445 1.363 . S
C440 C441 1.363 . S
C440 C445 1.379 . S
C440 N447 1.356 . S
C441 C440 1.363 . S
C441 C444 1.363 . S
N442 C444 1.356 . S
N442 H454 0.984 . S
N442 H455 0.985 . S
N443 C445 1.356 . S
N443 H448 0.984 . S
N443 H449 0.985 . S
C444 C438 1.379 . S
C444 C441 1.363 . S
C444 N442 1.356 . S
C445 C439 1.363 . S
C445 C440 1.379 . S
C445 N443 1.356 . S
N446 C438 1.356 . S
N446 H452 0.984 . S
N446 H453 0.984 . S
N447 C440 1.356 . S
N447 H450 0.984 . S
N447 H451 0.985 . S
H448 N443 0.984 . S
H449 N443 0.985 . S
H450 N447 0.984 . S
H451 N447 0.985 . S
H452 N446 0.984 . S
H453 N446 0.984 . S
H454 N442 0.984 . S
H455 N442 0.985 . S
C456 C457 1.363 1_655 S
C456 C462 1.379 . S
C456 N464 1.356 . S
C457 C456 1.363 1_455 S
C457 C463 1.363 . S
C458 C459 1.363 1_455 S
C458 C463 1.379 . S
C458 N465 1.356 . S
C459 C458 1.363 1_655 S
C459 C462 1.363 . S
N460 C462 1.356 . S
N460 H472 0.984 . S
N460 H473 0.985 . S
N461 C463 1.356 . S
N461 H466 0.984 . S
N461 H467 0.985 . S
C462 C456 1.379 . S
C462 C459 1.363 . S
C462 N460 1.356 . S
C463 C457 1.363 . S
C463 C458 1.379 . S
C463 N461 1.356 . S
N464 C456 1.356 . S
N464 H470 0.984 . S
N464 H471 0.984 . S
N465 C458 1.356 . S
N465 H468 0.984 . S
N465 H469 0.985 . S
H466 N461 0.984 . S
H467 N461 0.985 . S
H468 N465 0.984 . S
H469 N465 0.985 . S
H470 N464 0.984 . S
H471 N464 0.984 . S
H472 N460 0.984 . S
H473 N460 0.985 . S
C474 C475 1.363 1_455 S
C474 C480 1.379 . S
C474 N482 1.356 . S
C475 C474 1.363 1_655 S
C475 C481 1.363 . S
C476 C477 1.363 1_655 S
C476 C481 1.379 . S
C476 N483 1.356 . S
C477 C476 1.363 1_455 S
C477 C480 1.363 . S
N478 C480 1.356 . S
N478 H490 0.984 . S
N478 H491 0.985 . S
N479 C481 1.356 . S
N479 H484 0.984 . S
N479 H485 0.985 . S
C480 C474 1.379 . S
C480 C477 1.363 . S
C480 N478 1.356 . S
C481 C475 1.363 . S
C481 C476 1.379 . S
C481 N479 1.356 . S
N482 C474 1.356 . S
N482 H488 0.984 . S
N482 H489 0.984 . S
N483 C476 1.356 . S
N483 H486 0.984 . S
N483 H487 0.985 . S
H484 N479 0.984 . S
H485 N479 0.985 . S
H486 N483 0.984 . S
H487 N483 0.985 . S
H488 N482 0.984 . S
H489 N482 0.984 . S
H490 N478 0.984 . S
H491 N478 0.985 . S
C492 C493 1.363 . S
C492 C498 1.379 . S
C492 N500 1.356 . S
C493 C492 1.363 . S
C493 C499 1.363 1_655 S
C494 C495 1.363 . S
C494 C499 1.379 . S
C494 N501 1.356 . S
C495 C494 1.363 . S
C495 C498 1.363 1_455 S
N496 C498 1.356 . S
N496 H508 0.984 . S
N496 H509 0.985 . S
N497 C499 1.356 . S
N497 H502 0.984 . S
N497 H503 0.985 . S
C498 C492 1.379 . S
C498 C495 1.363 1_655 S
C498 N496 1.356 . S
C499 C493 1.363 1_455 S
C499 C494 1.379 . S
C499 N497 1.356 . S
N500 C492 1.356 . S
N500 H506 0.984 . S
N500 H507 0.984 . S
N501 C494 1.356 . S
N501 H504 0.984 . S
N501 H505 0.985 . S
H502 N497 0.984 . S
H503 N497 0.985 . S
H504 N501 0.984 . S
H505 N501 0.985 . S
H506 N500 0.984 . S
H507 N500 0.984 . S
H508 N496 0.984 . S
H509 N496 0.985 . S
C510 C511 1.363 1_455 S
C510 C516 1.379 . S
C510 N518 1.356 . S
C511 C510 1.363 1_655 S
C511 C517 1.363 . S
C512 C513 1.363 1_655 S
C512 C517 1.379 . S
C512 N519 1.356 . S
C513 C512 1.363 1_455 S
C513 C516 1.363 . S
N514 C516 1.356 . S
N514 H526 0.984 . S
N514 H527 0.985 . S
N515 C517 1.356 . S
N515 H520 0.984 . S
N515 H521 0.985 . S
C516 C510 1.379 . S
C516 C513 1.363 . S
C516 N514 1.356 . S
C517 C511 1.363 . S
C517 C512 1.379 . S
C517 N515 1.356 . S
N518 C510 1.356 . S
N518 H524 0.984 . S
N518 H525 0.984 . S
N519 C512 1.356 . S
N519 H522 0.984 . S
N519 H523 0.985 . S
H520 N515 0.984 . S
H521 N515 0.985 . S
H522 N519 0.984 . S
H523 N519 0.985 . S
H524 N518 0.984 . S
H525 N518 0.984 . S
H526 N514 0.984 . S
H527 N514 0.985 . S
C528 C529 1.363 . S
C528 C534 1.379 . S
C528 N536 1.356 . S
C529 C528 1.363 . S
C529 C535 1.363 . S
C530 C531 1.363 . S
C530 C535 1.379 . S
C530 N537 1.356 . S
C531 C530 1.363 . S
C531 C534 1.363 . S
N532 C534 1.356 . S
N532 H544 0.984 . S
N532 H545 0.985 . S
N533 C535 1.356 . S
N533 H538 0.984 . S
N533 H539 0.985 . S
C534 C528 1.379 . S
C534 C531 1.363 . S
C534 N532 1.356 . S
C535 C529 1.363 . S
C535 C530 1.379 . S
C535 N533 1.356 . S
N536 C528 1.356 . S
N536 H542 0.984 . S
N536 H543 0.984 . S
N537 C530 1.356 . S
N537 H540 0.984 . S
N537 H541 0.985 . S
H538 N533 0.984 . S
H539 N533 0.985 . S
H540 N537 0.984 . S
H541 N537 0.985 . S
H542 N536 0.984 . S
H543 N536 0.984 . S
H544 N532 0.984 . S
H545 N532 0.985 . S
C546 C547 1.363 . S
C546 C552 1.379 . S
C546 N554 1.356 . S
C547 C546 1.363 . S
C547 C553 1.363 . S
C548 C549 1.363 . S
C548 C553 1.379 . S
C548 N555 1.356 . S
C549 C548 1.363 . S
C549 C552 1.363 . S
N550 C552 1.356 . S
N550 H562 0.984 . S
N550 H563 0.985 . S
N551 C553 1.356 . S
N551 H556 0.984 . S
N551 H557 0.985 . S
C552 C546 1.379 . S
C552 C549 1.363 . S
C552 N550 1.356 . S
C553 C547 1.363 . S
C553 C548 1.379 . S
C553 N551 1.356 . S
N554 C546 1.356 . S
N554 H560 0.984 . S
N554 H561 0.984 . S
N555 C548 1.356 . S
N555 H558 0.984 . S
N555 H559 0.985 . S
H556 N551 0.984 . S
H557 N551 0.985 . S
H558 N555 0.984 . S
H559 N555 0.985 . S
H560 N554 0.984 . S
H561 N554 0.984 . S
H562 N550 0.984 . S
H563 N550 0.985 . S
C564 C565 1.363 . S
C564 C570 1.379 . S
C564 N572 1.356 . S
C565 C564 1.363 . S
C565 C571 1.363 . S
C566 C567 1.363 . S
C566 C571 1.379 . S
C566 N573 1.356 . S
C567 C566 1.363 . S
C567 C570 1.363 . S
N568 C570 1.356 . S
N568 H580 0.984 . S
N568 H581 0.985 . S
N569 C571 1.356 . S
N569 H574 0.984 . S
N569 H575 0.985 . S
C570 C564 1.379 . S
C570 C567 1.363 . S
C570 N568 1.356 . S
C571 C565 1.363 . S
C571 C566 1.379 . S
C571 N569 1.356 . S
N572 C564 1.356 . S
N572 H578 0.984 . S
N572 H579 0.984 . S
N573 C566 1.356 . S
N573 H576 0.984 . S
N573 H577 0.985 . S
H574 N569 0.984 . S
H575 N569 0.985 . S
H576 N573 0.984 . S
H577 N573 0.985 . S
H578 N572 0.984 . S
H579 N572 0.984 . S
H580 N568 0.984 . S
H581 N568 0.985 . S
C582 C583 1.363 . S
C582 C588 1.379 . S
C582 N590 1.356 . S
C583 C582 1.363 . S
C583 C589 1.363 . S
C584 C585 1.363 . S
C584 C589 1.379 . S
C584 N591 1.356 . S
C585 C584 1.363 . S
C585 C588 1.363 . S
N586 C588 1.356 . S
N586 H598 0.984 . S
N586 H599 0.985 . S
N587 C589 1.356 . S
N587 H592 0.984 . S
N587 H593 0.985 . S
C588 C582 1.379 . S
C588 C585 1.363 . S
C588 N586 1.356 . S
C589 C583 1.363 . S
C589 C584 1.379 . S
C589 N587 1.356 . S
N590 C582 1.356 . S
N590 H596 0.984 . S
N590 H597 0.984 . S
N591 C584 1.356 . S
N591 H594 0.984 . S
N591 H595 0.985 . S
H592 N587 0.984 . S
H593 N587 0.985 . S
H594 N591 0.984 . S
H595 N591 0.985 . S
H596 N590 0.984 . S
H597 N590 0.984 . S
H598 N586 0.984 . S
H599 N586 0.985 . S
C169 C20 1.340 . S
C171 C16 1.296 1_556 S
C187 C24 1.296 1_556 S
C189 C40 1.340 . S
C205 C45 1.296 . S
C207 C61 1.340 . S
C223 C83 1.340 . S
C225 C79 1.296 . S
C241 C104 1.340 . S
C243 C100 1.296 1_556 S
C259 C124 1.340 . S
C261 C108 1.296 1_556 S
C277 C129 1.296 . S
C279 C145 1.340 . S
C295 C163 1.296 . S
C297 C167 1.340 . S
C313 C37 1.442 1_554 S
C315 C3 1.442 1_554 S
C331 C66 1.442 . S
C333 C58 1.442 . S
C349 C87 1.442 1_554 S
C351 C121 1.442 1_554 S
C367 C142 1.442 . S
C369 C150 1.442 . S
C385 C19 1.414 . S
C387 C125 1.414 . S
C403 C103 1.414 . S
C405 C41 1.414 . S
C421 C62 1.414 . S
C423 C166 1.414 . S
C439 C82 1.414 . S
C441 C146 1.414 . S
C457 C7 1.318 . S
C459 C70 1.316 . S
C475 C25 1.318 . S
C477 C46 1.316 . S
C493 C28 1.344 . S
C495 C49 1.346 . S
C511 C67 1.344 . S
C513 C4 1.346 . S
C529 C91 1.318 . S
C531 C154 1.316 . S
C547 C109 1.318 . S
C549 C130 1.316 . S
C565 C112 1.344 . S
C567 C133 1.346 . S
C583 C151 1.344 . S
C585 C88 1.346 . S
