# Generated by pormake.
# Topology wfa, (4)-cn, num edge types: 1
# Building blocks:
#     Node 0, Type 0, BuildingBlock: QUQFOY_clean_sbu_1, # of connection points: 4
#     Node 1, Type 0, BuildingBlock: QUQFOY_clean_sbu_1, # of connection points: 4
#     Node 2, Type 0, BuildingBlock: QUQFOY_clean_sbu_1, # of connection points: 4
#     Node 3, Type 0, BuildingBlock: QUQFOY_clean_sbu_1, # of connection points: 4
#     Node 4, Type 0, BuildingBlock: QUQFOY_clean_sbu_1, # of connection points: 4
#     Node 5, Type 0, BuildingBlock: QUQFOY_clean_sbu_1, # of connection points: 4
#     Node 6, Type 0, BuildingBlock: QUQFOY_clean_sbu_1, # of connection points: 4
#     Node 7, Type 0, BuildingBlock: QUQFOY_clean_sbu_1, # of connection points: 4
#     Node 8, Type 0, BuildingBlock: QUQFOY_clean_sbu_1, # of connection points: 4
#     Node 9, Type 0, BuildingBlock: QUQFOY_clean_sbu_1, # of connection points: 4
#     Node 10, Type 0, BuildingBlock: QUQFOY_clean_sbu_1, # of connection points: 4
#     Node 11, Type 0, BuildingBlock: QUQFOY_clean_sbu_1, # of connection points: 4
#     Node 12, Type 0, BuildingBlock: QUQFOY_clean_sbu_1, # of connection points: 4
#     Node 13, Type 0, BuildingBlock: QUQFOY_clean_sbu_1, # of connection points: 4
#     Node 14, Type 0, BuildingBlock: QUQFOY_clean_sbu_1, # of connection points: 4
#     Node 15, Type 0, BuildingBlock: QUQFOY_clean_sbu_1, # of connection points: 4
#     Edge 16, Type (0, 0), BuildingBlock: UVAHIK_clean_linker_0, # of connection points: 2
#     Edge 17, Type (0, 0), BuildingBlock: UVAHIK_clean_linker_0, # of connection points: 2
#     Edge 18, Type (0, 0), BuildingBlock: UVAHIK_clean_linker_0, # of connection points: 2
#     Edge 19, Type (0, 0), BuildingBlock: UVAHIK_clean_linker_0, # of connection points: 2
#     Edge 20, Type (0, 0), BuildingBlock: UVAHIK_clean_linker_0, # of connection points: 2
#     Edge 21, Type (0, 0), BuildingBlock: UVAHIK_clean_linker_0, # of connection points: 2
#     Edge 22, Type (0, 0), BuildingBlock: UVAHIK_clean_linker_0, # of connection points: 2
#     Edge 23, Type (0, 0), BuildingBlock: UVAHIK_clean_linker_0, # of connection points: 2
#     Edge 24, Type (0, 0), BuildingBlock: UVAHIK_clean_linker_0, # of connection points: 2
#     Edge 25, Type (0, 0), BuildingBlock: UVAHIK_clean_linker_0, # of connection points: 2
#     Edge 26, Type (0, 0), BuildingBlock: UVAHIK_clean_linker_0, # of connection points: 2
#     Edge 27, Type (0, 0), BuildingBlock: UVAHIK_clean_linker_0, # of connection points: 2
#     Edge 28, Type (0, 0), BuildingBlock: UVAHIK_clean_linker_0, # of connection points: 2
#     Edge 29, Type (0, 0), BuildingBlock: UVAHIK_clean_linker_0, # of connection points: 2
#     Edge 30, Type (0, 0), BuildingBlock: UVAHIK_clean_linker_0, # of connection points: 2
#     Edge 31, Type (0, 0), BuildingBlock: UVAHIK_clean_linker_0, # of connection points: 2
#     Edge 32, Type (0, 0), BuildingBlock: UVAHIK_clean_linker_0, # of connection points: 2
#     Edge 33, Type (0, 0), BuildingBlock: UVAHIK_clean_linker_0, # of connection points: 2
#     Edge 34, Type (0, 0), BuildingBlock: UVAHIK_clean_linker_0, # of connection points: 2
#     Edge 35, Type (0, 0), BuildingBlock: UVAHIK_clean_linker_0, # of connection points: 2
#     Edge 36, Type (0, 0), BuildingBlock: UVAHIK_clean_linker_0, # of connection points: 2
#     Edge 37, Type (0, 0), BuildingBlock: UVAHIK_clean_linker_0, # of connection points: 2
#     Edge 38, Type (0, 0), BuildingBlock: UVAHIK_clean_linker_0, # of connection points: 2
#     Edge 39, Type (0, 0), BuildingBlock: UVAHIK_clean_linker_0, # of connection points: 2
#     Edge 40, Type (0, 0), BuildingBlock: UVAHIK_clean_linker_0, # of connection points: 2
#     Edge 41, Type (0, 0), BuildingBlock: UVAHIK_clean_linker_0, # of connection points: 2
#     Edge 42, Type (0, 0), BuildingBlock: UVAHIK_clean_linker_0, # of connection points: 2
#     Edge 43, Type (0, 0), BuildingBlock: UVAHIK_clean_linker_0, # of connection points: 2
#     Edge 44, Type (0, 0), BuildingBlock: UVAHIK_clean_linker_0, # of connection points: 2
#     Edge 45, Type (0, 0), BuildingBlock: UVAHIK_clean_linker_0, # of connection points: 2
#     Edge 46, Type (0, 0), BuildingBlock: UVAHIK_clean_linker_0, # of connection points: 2
#     Edge 47, Type (0, 0), BuildingBlock: UVAHIK_clean_linker_0, # of connection points: 2
# Relax obj value: 0.087
# Max RMSD: 0.151
# Mean RMSD: 0.151
data_MOF--net-wfa--node1-QUQFOY_clean_sbu_1--edge1-UVAHIK_clean_linker_0
_symmetry_space_group_name_H-M    P1
_symmetry_Int_Tables_number       1
_symmetry_cell_setting            triclinic
loop_
_symmetry_equiv_pos_as_xyz
'x, y, z'
_cell_length_a     65.448829
_cell_length_b     65.572817
_cell_length_c     30.93857
_cell_angle_alpha  89.99429
_cell_angle_beta   90.105324
_cell_angle_gamma 90.029137
loop_
_atom_site_label
_atom_site_type_symbol
_atom_site_fract_x
_atom_site_fract_y
_atom_site_fract_z
_atom_type_partial_charge
O0 O 0.69046 0.01659 0.08825 0.0
Cd1 Cd 0.68246 0.03624 0.03972 0.0
Cd2 Cd 0.64285 0.02667 0.07667 0.0
O3 O 0.66072 0.00911 0.11811 0.0
O4 O 0.70952 0.03962 0.01138 0.0
O5 O 0.68289 0.02653 0.97751 0.0
C6 C 0.70205 0.03125 0.97724 0.0
C7 C 0.6095 0.01649 0.05757 0.0
C8 C 0.6801 0.00751 0.11704 0.0
C9 C 0.65886 0.07062 0.07843 0.0
O10 O 0.64494 0.05761 0.08608 0.0
O11 O 0.67537 0.06547 0.05987 0.0
O12 O 0.61426 0.02132 0.09661 0.0
O13 O 0.62399 0.01634 0.0293 0.0
O14 O 0.48764 0.69338 0.06675 0.0
Cd15 Cd 0.47095 0.67858 0.02045 0.0
Cd16 Cd 0.48846 0.64537 0.0625 0.0
O17 O 0.50483 0.66778 0.09552 0.0
O18 O 0.46385 0.70079 0.97934 0.0
O19 O 0.48385 0.67493 0.96176 0.0
C20 C 0.47557 0.69214 0.95141 0.0
C21 C 0.50201 0.61342 0.04373 0.0
C22 C 0.50079 0.68676 0.0935 0.0
C23 C 0.44231 0.65231 0.06817 0.0
O24 O 0.45828 0.64276 0.07973 0.0
O25 O 0.44335 0.66719 0.04199 0.0
O26 O 0.49945 0.61869 0.08344 0.0
O27 O 0.49837 0.62696 0.01436 0.0
O28 O 0.82144 0.48664 0.07857 0.0
Cd29 Cd 0.83507 0.46924 0.03191 0.0
Cd30 Cd 0.86944 0.48232 0.08013 0.0
O31 O 0.84784 0.49923 0.1143 0.0
O32 O 0.81143 0.4632 0.99321 0.0
O33 O 0.83796 0.48133 0.97189 0.0
C34 C 0.82008 0.47395 0.96366 0.0
C35 C 0.90215 0.49429 0.06166 0.0
C36 C 0.8286 0.49765 0.10877 0.0
C37 C 0.85816 0.43723 0.07988 0.0
O38 O 0.86932 0.45166 0.09381 0.0
O39 O 0.8439 0.44061 0.05289 0.0
O40 O 0.89702 0.49106 0.10127 0.0
O41 O 0.88819 0.49205 0.03242 0.0
O42 O 0.01555 0.82002 0.08776 0.0
Cd43 Cd 0.03504 0.82923 0.03992 0.0
Cd44 Cd 0.02555 0.86743 0.07866 0.0
O45 O 0.00774 0.8493 0.11891 0.0
O46 O 0.03828 0.80319 0.00747 0.0
O47 O 0.02484 0.83076 0.97814 0.0
C48 C 0.02958 0.81171 0.97482 0.0
C49 C 0.01485 0.9001 0.05673 0.0
C50 C 0.00632 0.82996 0.11699 0.0
C51 C 0.06943 0.85191 0.0819 0.0
O52 O 0.05641 0.86569 0.09046 0.0
O53 O 0.06431 0.83599 0.06106 0.0
O54 O 0.01925 0.89609 0.0964 0.0
O55 O 0.01552 0.88522 0.0294 0.0
O56 O 0.19386 0.9857 0.41812 0.0
Cd57 Cd 0.17921 0.96887 0.46431 0.0
Cd58 Cd 0.14581 0.98419 0.42002 0.0
O59 O 0.16772 1.00108 0.38695 0.0
O60 O 0.2017 0.96241 0.50542 0.0
O61 O 0.17534 0.9817 0.52312 0.0
C62 C 0.19279 0.97386 0.53343 0.0
C63 C 0.11401 0.99752 0.44051 0.0
C64 C 0.18689 0.9981 0.39023 0.0
C65 C 0.15442 0.93859 0.41617 0.0
O66 O 0.14412 0.95385 0.40335 0.0
O67 O 0.16893 0.94079 0.44314 0.0
O68 O 0.11866 0.99466 0.40052 0.0
O69 O 0.12799 0.99404 0.46911 0.0
O70 O 0.5255 0.19149 0.42258 0.0
Cd71 Cd 0.54323 0.17961 0.47085 0.0
Cd72 Cd 0.52877 0.14358 0.42959 0.0
O73 O 0.51152 0.16412 0.39333 0.0
O74 O 0.54805 0.20434 0.50666 0.0
O75 O 0.53149 0.17735 0.53105 0.0
C76 C 0.53771 0.19584 0.53709 0.0
C77 C 0.51685 0.11075 0.44713 0.0
C78 C 0.51366 0.18341 0.39492 0.0
C79 C 0.57449 0.15456 0.42741 0.0
O80 O 0.55956 0.1433 0.41637 0.0
O81 O 0.57182 0.1701 0.45124 0.0
O82 O 0.52049 0.11605 0.40783 0.0
O83 O 0.51868 0.12457 0.47664 0.0
O84 O 0.32021 0.52113 0.42808 0.0
Cd85 Cd 0.3348 0.53798 0.47446 0.0
Cd86 Cd 0.36837 0.52187 0.4285 0.0
O87 O 0.34583 0.506 0.39447 0.0
O88 O 0.31189 0.54509 0.51398 0.0
O89 O 0.33778 0.52572 0.53418 0.0
C90 C 0.32034 0.53388 0.54311 0.0
C91 C 0.40064 0.50874 0.44706 0.0
C92 C 0.32673 0.50914 0.39899 0.0
C93 C 0.36022 0.56777 0.42666 0.0
O94 O 0.3702 0.55232 0.41384 0.0
O95 O 0.34549 0.5659 0.45305 0.0
O96 O 0.39542 0.5117 0.40738 0.0
O97 O 0.38689 0.51167 0.47634 0.0
O98 O 0.98987 0.31846 0.40725 0.0
Cd99 Cd 0.97282 0.33021 0.45675 0.0
Cd100 Cd 0.98373 0.3667 0.41585 0.0
O101 O 1.00021 0.34702 0.37628 0.0
O102 O 0.96846 0.30631 0.49541 0.0
O103 O 0.98616 0.33346 0.51534 0.0
C104 C 0.97942 0.31542 0.5241 0.0
C105 C 0.99587 0.39918 0.43563 0.0
C106 C 0.99973 0.3276 0.37771 0.0
C107 C 0.93905 0.35395 0.41605 0.0
O108 O 0.95278 0.36652 0.40462 0.0
O109 O 0.94352 0.33846 0.43886 0.0
O110 O 0.99135 0.39477 0.39621 0.0
O111 O 0.9947 0.38471 0.46385 0.0
O112 O 0.31641 0.98719 0.91932 0.0
Cd113 Cd 0.33149 0.97122 0.96633 0.0
Cd114 Cd 0.36439 0.98841 0.92406 0.0
O115 O 0.34195 1.00419 0.88982 0.0
O116 O 0.30936 0.96427 0.00764 0.0
O117 O 0.33509 0.98465 0.02454 0.0
C118 C 0.31796 0.97626 0.03519 0.0
C119 C 0.39598 1.00242 0.94447 0.0
C120 C 0.32295 1.00003 0.8919 0.0
C121 C 0.35794 0.94231 0.92008 0.0
O122 O 0.36743 0.95818 0.90786 0.0
O123 O 0.34302 0.94354 0.94611 0.0
O124 O 0.39124 0.99959 0.90449 0.0
O125 O 0.38208 0.99878 0.97308 0.0
O126 O 0.52103 0.31742 0.9209 0.0
Cd127 Cd 0.53909 0.32888 0.96917 0.0
Cd128 Cd 0.52667 0.36584 0.92863 0.0
O129 O 0.51 0.3458 0.89006 0.0
O130 O 0.54411 0.30452 0.00605 0.0
O131 O 0.52688 0.3314 0.02889 0.0
C132 C 0.53359 0.31318 0.03599 0.0
C133 C 0.51482 0.39876 0.9457 0.0
C134 C 0.51058 0.3264 0.89201 0.0
C135 C 0.57173 0.35355 0.92762 0.0
O136 O 0.55755 0.36585 0.91739 0.0
O137 O 0.56801 0.3376 0.94952 0.0
O138 O 0.51908 0.39353 0.90665 0.0
O139 O 0.51599 0.38484 0.97515 0.0
O140 O 0.19591 0.52796 0.93111 0.0
Cd141 Cd 0.18038 0.5433 0.97831 0.0
Cd142 Cd 0.14786 0.52506 0.93622 0.0
O143 O 0.17087 0.50974 0.9027 0.0
O144 O 0.20168 0.55029 0.02189 0.0
O145 O 0.17638 0.52878 0.03511 0.0
C146 C 0.19304 0.53754 0.04777 0.0
C147 C 0.1164 0.51058 0.95627 0.0
C148 C 0.18971 0.51468 0.90423 0.0
C149 C 0.15303 0.57133 0.9316 0.0
O150 O 0.14415 0.55511 0.91929 0.0
O151 O 0.16782 0.57064 0.95819 0.0
O152 O 0.12128 0.51317 0.91633 0.0
O153 O 0.13012 0.51466 0.98509 0.0
O154 O 0.99047 0.19065 0.90458 0.0
Cd155 Cd 0.97127 0.17923 0.95076 0.0
Cd156 Cd 0.98365 0.14321 0.90594 0.0
O157 O 1.00144 0.16333 0.87003 0.0
O158 O 0.96582 0.20495 0.98288 0.0
O159 O 0.98078 0.17848 0.0133 0.0
C160 C 0.97475 0.19718 0.01604 0.0
C161 C 0.99525 0.1109 0.92767 0.0
C162 C 1.00115 0.1826 0.87496 0.0
C163 C 0.93881 0.15604 0.90364 0.0
O164 O 0.95289 0.14385 0.89215 0.0
O165 O 0.94261 0.17106 0.92835 0.0
O166 O 0.99173 0.1151 0.88766 0.0
O167 O 0.9933 0.12549 0.95546 0.0
O168 O 0.82083 0.01828 0.58741 0.0
Cd169 Cd 0.82904 0.03697 0.53737 0.0
Cd170 Cd 0.86822 0.02887 0.57481 0.0
O171 O 0.85081 0.01118 0.61659 0.0
O172 O 0.80252 0.0392 0.50598 0.0
O173 O 0.83006 0.02582 0.47636 0.0
C174 C 0.81087 0.03021 0.47354 0.0
C175 C 0.90145 0.01869 0.55533 0.0
C176 C 0.83143 0.00955 0.61637 0.0
C177 C 0.85155 0.07239 0.57534 0.0
O178 O 0.86569 0.0598 0.58431 0.0
O179 O 0.8355 0.06664 0.55557 0.0
O180 O 0.89693 0.02377 0.59431 0.0
O181 O 0.88682 0.01846 0.52727 0.0
O182 O 0.48792 0.81604 0.56605 0.0
Cd183 Cd 0.47187 0.83086 0.51876 0.0
Cd184 Cd 0.48876 0.86408 0.56211 0.0
O185 O 0.50459 0.84165 0.59619 0.0
O186 O 0.46513 0.80857 0.47761 0.0
O187 O 0.48535 0.83436 0.46058 0.0
C188 C 0.47709 0.81715 0.45004 0.0
C189 C 0.50261 0.89603 0.54418 0.0
C190 C 0.50061 0.82266 0.59379 0.0
C191 C 0.44257 0.85707 0.5647 0.0
O192 O 0.45834 0.86667 0.57732 0.0
O193 O 0.44401 0.84219 0.53863 0.0
O194 O 0.49949 0.89076 0.58372 0.0
O195 O 0.49935 0.88249 0.5146 0.0
O196 O 0.69581 0.48259 0.57534 0.0
Cd197 Cd 0.68108 0.46682 0.52749 0.0
Cd198 Cd 0.6476 0.48362 0.57004 0.0
O199 O 0.67006 0.49941 0.60454 0.0
O200 O 0.70313 0.46022 0.48547 0.0
O201 O 0.67744 0.48092 0.47003 0.0
C202 C 0.69445 0.47252 0.45865 0.0
C203 C 0.61555 0.49705 0.55064 0.0
C204 C 0.68908 0.49529 0.60285 0.0
C205 C 0.65461 0.43753 0.57308 0.0
O206 O 0.64504 0.45329 0.58563 0.0
O207 O 0.66949 0.43898 0.54697 0.0
O208 O 0.62062 0.49427 0.59045 0.0
O209 O 0.62936 0.49381 0.52165 0.0
O210 O 0.01582 0.69186 0.58753 0.0
Cd211 Cd 0.03503 0.68257 0.53933 0.0
Cd212 Cd 0.02425 0.64411 0.57643 0.0
O213 O 0.00704 0.66252 0.61739 0.0
O214 O 0.03848 0.70845 0.5065 0.0
O215 O 0.02448 0.68094 0.47792 0.0
C216 C 0.02946 0.69993 0.47422 0.0
C217 C 0.01318 0.61127 0.55612 0.0
C218 C 0.00624 0.68192 0.61627 0.0
C219 C 0.06871 0.65859 0.57938 0.0
O220 O 0.0552 0.64517 0.58713 0.0
O221 O 0.06417 0.67506 0.55997 0.0
O222 O 0.01783 0.61564 0.59547 0.0
O223 O 0.01366 0.62592 0.52823 0.0
C224 C 0.60036 0.13081 0.3984 0.0
C225 C 0.59411 0.15096 0.4056 0.0
C226 C 0.61372 0.12629 0.36473 0.0
C227 C 0.64568 0.14546 0.27517 0.0
H228 H 0.61432 0.10558 0.21041 0.0
C229 C 0.6724 0.0973 0.12769 0.0
C230 C 0.65692 0.09063 0.0995 0.0
C231 C 0.66776 0.11085 0.16128 0.0
C232 C 0.62314 0.11697 0.22762 0.0
H233 H 0.5986 0.18246 0.38685 0.0
H234 H 0.62178 0.17449 0.32707 0.0
H235 H 0.60329 0.11531 0.28193 0.0
H236 H 0.62552 0.09505 0.07976 0.0
H237 H 0.61766 0.11939 0.13689 0.0
H238 H 0.66571 0.14674 0.22007 0.0
C239 C 0.61657 0.16224 0.34779 0.0
C240 C 0.61702 0.12226 0.26906 0.0
C241 C 0.60336 0.1668 0.38208 0.0
C242 C 0.63766 0.09991 0.1013 0.0
C243 C 0.63314 0.1137 0.13422 0.0
C244 C 0.65202 0.13992 0.2334 0.0
C245 C 0.62071 0.14183 0.33715 0.0
C246 C 0.62827 0.13637 0.29354 0.0
C247 C 0.64767 0.11798 0.16655 0.0
C248 C 0.64071 0.12564 0.20921 0.0
H249 H 0.59345 0.11836 0.41622 0.0
H250 H 0.61702 0.11045 0.3577 0.0
H251 H 0.65449 0.15653 0.29331 0.0
H252 H 0.68735 0.09022 0.12709 0.0
H253 H 0.67929 0.11392 0.1856 0.0
C254 C 0.34853 0.59557 0.37837 0.0
C255 C 0.36402 0.58711 0.40419 0.0
C256 C 0.35359 0.60824 0.34352 0.0
C257 C 0.39662 0.61033 0.26996 0.0
H258 H 0.36674 0.65307 0.21063 0.0
C259 C 0.41415 0.66308 0.11667 0.0
C260 C 0.42337 0.64777 0.09167 0.0
C261 C 0.40184 0.6578 0.15196 0.0
C262 C 0.37517 0.6411 0.22691 0.0
H263 H 0.39641 0.58717 0.41799 0.0
H264 H 0.40517 0.6102 0.359 0.0
H265 H 0.35688 0.64319 0.28447 0.0
H266 H 0.42501 0.61532 0.07986 0.0
H267 H 0.40267 0.60611 0.13972 0.0
H268 H 0.41501 0.60815 0.21356 0.0
C269 C 0.38923 0.60653 0.36434 0.0
C270 C 0.36956 0.63548 0.26908 0.0
C271 C 0.38424 0.59356 0.39844 0.0
C272 C 0.41804 0.62735 0.09878 0.0
C273 C 0.40547 0.62212 0.13335 0.0
C274 C 0.4021 0.61582 0.2282 0.0
C275 C 0.37417 0.61271 0.33458 0.0
C276 C 0.38035 0.62008 0.2911 0.0
C277 C 0.39851 0.63717 0.16218 0.0
C278 C 0.39141 0.63114 0.20594 0.0
H279 H 0.33285 0.59056 0.38195 0.0
H280 H 0.34163 0.61279 0.32129 0.0
H281 H 0.40498 0.59806 0.28539 0.0
H282 H 0.41828 0.67893 0.11201 0.0
H283 H 0.39667 0.66975 0.17348 0.0
C284 C 0.84226 0.40772 0.11769 0.0
C285 C 0.85987 0.41731 0.10156 0.0
C286 C 0.84391 0.39283 0.14994 0.0
C287 C 0.8798 0.35994 0.21068 0.0
H288 H 0.85554 0.3836 0.31343 0.0
C289 C 0.90974 0.3381 0.37715 0.0
C290 C 0.91889 0.35557 0.39504 0.0
C291 C 0.89488 0.34003 0.3448 0.0
C292 C 0.86201 0.37647 0.28499 0.0
H293 H 0.89293 0.41756 0.1029 0.0
H294 H 0.89588 0.39103 0.15776 0.0
H295 H 0.84465 0.39531 0.24201 0.0
H296 H 0.91812 0.38856 0.39711 0.0
H297 H 0.89172 0.39193 0.34196 0.0
H298 H 0.89819 0.34212 0.25367 0.0
C299 C 0.8808 0.39509 0.14606 0.0
C300 C 0.85572 0.38307 0.24412 0.0
C301 C 0.87915 0.41029 0.11469 0.0
C302 C 0.91126 0.37486 0.38387 0.0
C303 C 0.89612 0.37677 0.35232 0.0
C304 C 0.88586 0.35311 0.25152 0.0
C305 C 0.86321 0.38699 0.16557 0.0
C306 C 0.86532 0.37561 0.2067 0.0
C307 C 0.88864 0.35943 0.33076 0.0
C308 C 0.87778 0.36207 0.28907 0.0
H309 H 0.82721 0.41307 0.10844 0.0
H310 H 0.83013 0.3868 0.16453 0.0
H311 H 0.88742 0.35396 0.18232 0.0
H312 H 0.91549 0.32304 0.38491 0.0
H313 H 0.8893 0.32644 0.32873 0.0
C314 C 0.09715 0.83574 0.1252 0.0
C315 C 0.08938 0.85304 0.10398 0.0
C316 C 0.11175 0.83793 0.15802 0.0
C317 C 0.12086 0.85364 0.24939 0.0
H318 H 0.16484 0.8932 0.2544 0.0
C319 C 0.13149 0.91348 0.38053 0.0
C320 C 0.15122 0.91897 0.39397 0.0
C321 C 0.12871 0.89809 0.34994 0.0
C322 C 0.15294 0.88172 0.25359 0.0
H323 H 0.09231 0.88574 0.09667 0.0
H324 H 0.11825 0.88948 0.1527 0.0
H325 H 0.15351 0.88005 0.18436 0.0
H326 H 0.18345 0.91198 0.38811 0.0
H327 H 0.17858 0.88537 0.33329 0.0
H328 H 0.11905 0.85672 0.31827 0.0
C329 C 0.11299 0.87429 0.14456 0.0
C330 C 0.14641 0.87429 0.21351 0.0
C331 C 0.09811 0.87217 0.11251 0.0
C332 C 0.16806 0.90784 0.37861 0.0
C333 C 0.1653 0.89274 0.3471 0.0
C334 C 0.12717 0.86132 0.28938 0.0
C335 C 0.1191 0.85736 0.16927 0.0
C336 C 0.12976 0.86082 0.21094 0.0
C337 C 0.14564 0.88824 0.33148 0.0
C338 C 0.14271 0.87604 0.29166 0.0
H339 H 0.09053 0.82083 0.11952 0.0
H340 H 0.11627 0.82464 0.17653 0.0
H341 H 0.10785 0.84343 0.24838 0.0
H342 H 0.1183 0.92192 0.39175 0.0
H343 H 0.1134 0.89507 0.33818 0.0
C344 C 0.34721 0.91387 0.87236 0.0
C345 C 0.36251 0.92321 0.89736 0.0
C346 C 0.35256 0.90128 0.8376 0.0
C347 C 0.39509 0.90058 0.76247 0.0
H348 H 0.36678 0.85595 0.70601 0.0
C349 C 0.41748 0.88184 0.59276 0.0
C350 C 0.42331 0.86148 0.58707 0.0
C351 C 0.40457 0.88723 0.62667 0.0
C352 C 0.37477 0.86845 0.72146 0.0
H353 H 0.39498 0.92478 0.90986 0.0
H354 H 0.4043 0.9019 0.85104 0.0
H355 H 0.3569 0.86617 0.77957 0.0
H356 H 0.41882 0.83049 0.60916 0.0
H357 H 0.39672 0.83995 0.66954 0.0
H358 H 0.41315 0.90289 0.70565 0.0
C359 C 0.38826 0.90485 0.85691 0.0
C360 C 0.36914 0.87428 0.76348 0.0
C361 C 0.38296 0.91773 0.89091 0.0
C362 C 0.41429 0.84629 0.61273 0.0
C363 C 0.40169 0.85174 0.6474 0.0
C364 C 0.40061 0.89487 0.72088 0.0
C365 C 0.37325 0.89777 0.82793 0.0
C366 C 0.3794 0.89034 0.7845 0.0
C367 C 0.39785 0.87241 0.65632 0.0
C368 C 0.39052 0.87882 0.69966 0.0
H369 H 0.33134 0.9181 0.87653 0.0
H370 H 0.34064 0.89602 0.81598 0.0
H371 H 0.40301 0.91335 0.77711 0.0
H372 H 0.42429 0.89378 0.57331 0.0
H373 H 0.40136 0.90325 0.63195 0.0
C374 C 0.66576 0.40837 0.61859 0.0
C375 C 0.65015 0.4183 0.59554 0.0
C376 C 0.66089 0.39562 0.65345 0.0
C377 C 0.62082 0.39625 0.73346 0.0
H378 H 0.64639 0.34839 0.78342 0.0
C379 C 0.59966 0.376 0.9026 0.0
C380 C 0.5915 0.35631 0.90595 0.0
C381 C 0.6129 0.38085 0.86887 0.0
C382 C 0.63923 0.36182 0.76982 0.0
H383 H 0.61747 0.42072 0.58651 0.0
H384 H 0.60894 0.39776 0.64575 0.0
H385 H 0.65553 0.35921 0.70967 0.0
H386 H 0.59244 0.32565 0.88008 0.0
H387 H 0.61513 0.33426 0.82015 0.0
H388 H 0.60435 0.39901 0.79232 0.0
C389 C 0.6249 0.40027 0.6381 0.0
C390 C 0.64442 0.36797 0.72772 0.0
C391 C 0.62974 0.41324 0.60393 0.0
C392 C 0.59872 0.34092 0.87832 0.0
C393 C 0.61167 0.34588 0.84389 0.0
C394 C 0.61581 0.39028 0.77518 0.0
C395 C 0.64037 0.39258 0.66517 0.0
C396 C 0.63501 0.38512 0.709 0.0
C397 C 0.61768 0.36623 0.83719 0.0
C398 C 0.62489 0.37302 0.794 0.0
H399 H 0.68163 0.41225 0.61292 0.0
H400 H 0.67313 0.38986 0.67365 0.0
H401 H 0.61364 0.40982 0.72048 0.0
H402 H 0.5943 0.38809 0.9236 0.0
H403 H 0.61778 0.39655 0.86523 0.0
C404 C 0.09471 0.67113 0.63134 0.0
C405 C 0.08848 0.65624 0.60144 0.0
C406 C 0.10774 0.66586 0.66553 0.0
C407 C 0.11437 0.61967 0.72822 0.0
H408 H 0.15103 0.65159 0.79996 0.0
C409 C 0.16309 0.60148 0.88763 0.0
C410 C 0.14776 0.59029 0.90877 0.0
C411 C 0.15802 0.61435 0.85303 0.0
C412 C 0.1408 0.64257 0.78013 0.0
H413 H 0.09312 0.62526 0.5797 0.0
H414 H 0.11677 0.61637 0.63764 0.0
H415 H 0.1419 0.66381 0.72716 0.0
H416 H 0.11516 0.58562 0.91458 0.0
H417 H 0.10623 0.60868 0.85575 0.0
H418 H 0.11305 0.59851 0.78031 0.0
C419 C 0.11102 0.63184 0.63597 0.0
C420 C 0.13561 0.64952 0.73857 0.0
C421 C 0.09769 0.63696 0.60248 0.0
C422 C 0.12723 0.59406 0.89862 0.0
C423 C 0.12217 0.6071 0.86469 0.0
C424 C 0.11939 0.61288 0.76941 0.0
C425 C 0.11485 0.64572 0.66973 0.0
C426 C 0.1223 0.63809 0.71218 0.0
C427 C 0.13757 0.61622 0.83963 0.0
C428 C 0.13244 0.62431 0.79613 0.0
H429 H 0.08762 0.68606 0.6314 0.0
H430 H 0.11044 0.67694 0.69087 0.0
H431 H 0.1037 0.61067 0.70939 0.0
H432 H 0.17906 0.59864 0.89466 0.0
H433 H 0.1702 0.62124 0.83438 0.0
C434 C 0.90894 0.17158 0.86578 0.0
C435 C 0.91878 0.15416 0.88216 0.0
C436 C 0.89346 0.16961 0.83472 0.0
C437 C 0.85954 0.13281 0.77861 0.0
H438 H 0.87993 0.15735 0.67305 0.0
C439 C 0.83504 0.10076 0.61591 0.0
C440 C 0.85249 0.09268 0.59581 0.0
C441 C 0.83702 0.11588 0.64761 0.0
C442 C 0.87371 0.15076 0.70231 0.0
H443 H 0.91894 0.12115 0.88246 0.0
H444 H 0.89155 0.11767 0.82955 0.0
H445 H 0.89316 0.16875 0.74286 0.0
H446 H 0.88527 0.09563 0.58904 0.0
H447 H 0.8887 0.12234 0.64318 0.0
H448 H 0.8412 0.11376 0.73799 0.0
C449 C 0.89582 0.13283 0.84016 0.0
C450 C 0.88118 0.15735 0.74231 0.0
C451 C 0.91155 0.1348 0.87037 0.0
C452 C 0.87159 0.10162 0.60408 0.0
C453 C 0.87352 0.11696 0.63505 0.0
C454 C 0.85188 0.12639 0.73867 0.0
C455 C 0.88732 0.15019 0.82049 0.0
C456 C 0.87496 0.14767 0.78064 0.0
C457 C 0.85643 0.1234 0.65889 0.0
C458 C 0.8597 0.13455 0.70005 0.0
H459 H 0.91438 0.18669 0.87407 0.0
H460 H 0.88713 0.18321 0.82006 0.0
H461 H 0.85444 0.12516 0.8077 0.0
H462 H 0.82014 0.09403 0.61036 0.0
H463 H 0.82361 0.12066 0.66537 0.0
C464 C 0.70766 0.01867 0.90128 0.0
C465 C 0.71554 0.02625 0.94038 0.0
C466 C 0.72085 0.01331 0.86747 0.0
C467 C 0.77396 0.02183 0.82912 0.0
H468 H 0.76253 0.97572 0.75438 0.0
C469 C 0.82982 1.00116 0.69516 0.0
C470 C 0.82053 1.00105 0.65418 0.0
C471 C 0.8179 0.99943 0.73248 0.0
C472 C 0.76593 0.98858 0.77515 0.0
H473 H 0.74343 0.03379 0.97493 0.0
H474 H 0.76623 0.02406 0.91693 0.0
H475 H 0.7394 0.98351 0.81421 0.0
H476 H 0.7919 0.99656 0.62003 0.0
H477 H 0.77123 0.99335 0.68499 0.0
H478 H 0.80035 0.02701 0.79009 0.0
C479 C 0.74993 0.02272 0.91161 0.0
C480 C 0.75261 0.99317 0.80918 0.0
C481 C 0.73681 0.02825 0.94505 0.0
C482 C 0.79948 0.99687 0.65118 0.0
C483 C 0.78762 0.99498 0.68844 0.0
C484 C 0.78732 0.01714 0.79549 0.0
C485 C 0.74217 0.01527 0.87227 0.0
C486 C 0.75639 0.00996 0.83641 0.0
C487 C 0.79655 0.99734 0.72944 0.0
C488 C 0.7834 1.00058 0.7679 0.0
H489 H 0.69134 0.01692 0.89676 0.0
H490 H 0.71431 0.00788 0.83744 0.0
H491 H 0.77718 0.03513 0.8487 0.0
H492 H 0.84598 1.00433 0.6986 0.0
H493 H 0.82523 1.00095 0.76374 0.0
C494 C 0.5045 0.7872 0.62182 0.0
C495 C 0.50814 0.8082 0.62706 0.0
C496 C 0.50666 0.7738 0.65652 0.0
C497 C 0.50271 0.77533 0.77478 0.0
H498 H 0.51176 0.71714 0.7634 0.0
C499 C 0.49832 0.69776 0.8872 0.0
C500 C 0.48067 0.7028 0.91068 0.0
C501 C 0.50464 0.70993 0.85245 0.0
C502 C 0.50941 0.73337 0.76739 0.0
H503 H 0.51895 0.83124 0.67183 0.0
H504 H 0.52331 0.80768 0.73236 0.0
H505 H 0.52093 0.73986 0.70414 0.0
H506 H 0.45518 0.72382 0.91466 0.0
H507 H 0.46571 0.74449 0.85347 0.0
H508 H 0.49144 0.76895 0.83809 0.0
C509 C 0.51816 0.80169 0.7016 0.0
C510 C 0.51451 0.74641 0.73322 0.0
C511 C 0.51589 0.81518 0.66677 0.0
C512 C 0.46896 0.71963 0.89747 0.0
C513 C 0.47514 0.73163 0.86264 0.0
C514 C 0.49778 0.76235 0.80897 0.0
C515 C 0.51268 0.78099 0.6974 0.0
C516 C 0.51069 0.76751 0.73601 0.0
C517 C 0.49335 0.72729 0.84037 0.0
C518 C 0.50049 0.74113 0.80528 0.0
H519 H 0.49869 0.78123 0.59154 0.0
H520 H 0.50219 0.75805 0.65186 0.0
H521 H 0.49932 0.79141 0.77816 0.0
H522 H 0.50773 0.68495 0.89681 0.0
H523 H 0.51876 0.70614 0.83612 0.0
C524 C 0.81418 0.49578 0.898 0.0
C525 C 0.80889 0.47878 0.9233 0.0
C526 C 0.80181 0.50172 0.86313 0.0
C527 C 0.74889 0.49478 0.82058 0.0
H528 H 0.77171 0.51568 0.71398 0.0
C529 C 0.72447 0.49886 0.63205 0.0
C530 C 0.70344 0.50274 0.63652 0.0
C531 C 0.73775 0.5012 0.66701 0.0
C532 C 0.76506 0.50985 0.74351 0.0
H533 H 0.78713 0.4541 0.93062 0.0
H534 H 0.76615 0.46387 0.86922 0.0
H535 H 0.79433 0.50747 0.77409 0.0
H536 H 0.68023 0.51401 0.6803 0.0
H537 H 0.70358 0.51872 0.74125 0.0
H538 H 0.71981 0.49589 0.78936 0.0
C539 C 0.77934 0.47315 0.877 0.0
C540 C 0.77805 0.50533 0.77822 0.0
C541 C 0.79152 0.46738 0.91199 0.0
C542 C 0.69632 0.51078 0.6758 0.0
C543 C 0.70969 0.51324 0.7109 0.0
C544 C 0.73595 0.49909 0.78581 0.0
C545 C 0.78401 0.49067 0.85267 0.0
C546 C 0.77018 0.49725 0.81687 0.0
C547 C 0.73043 0.50766 0.70744 0.0
C548 C 0.74388 0.50623 0.74639 0.0
H549 H 0.8274 0.50496 0.90615 0.0
H550 H 0.80587 0.51533 0.84529 0.0
H551 H 0.74217 0.48911 0.8502 0.0
H552 H 0.73056 0.49281 0.60216 0.0
H553 H 0.75351 0.4966 0.66289 0.0
C554 C 0.02701 0.77821 0.93682 0.0
C555 C 0.02408 0.79945 0.93629 0.0
C556 C 0.02061 0.76616 0.90217 0.0
C557 C 0.00951 0.76754 0.78653 0.0
H558 H 0.9825 0.71594 0.80907 0.0
C559 C 0.99159 0.71398 0.64621 0.0
C560 C 0.99756 0.69362 0.65268 0.0
C561 C 0.98935 0.72719 0.68129 0.0
C562 C 0.99009 0.73025 0.80217 0.0
H563 H 0.01235 0.82473 0.89853 0.0
H564 H 1.00144 0.8036 0.83734 0.0
H565 H 0.99044 0.73886 0.86898 0.0
H566 H 1.00417 0.67068 0.70107 0.0
H567 H 1.00069 0.69375 0.76229 0.0
H568 H 0.01007 0.75871 0.72016 0.0
C569 C 0.00864 0.79634 0.86487 0.0
C570 C 0.99462 0.74338 0.83651 0.0
C571 C 0.01489 0.80843 0.89985 0.0
C572 C 0.99939 0.68625 0.69511 0.0
C573 C 0.99744 0.69955 0.73026 0.0
C574 C 1.00514 0.75435 0.75225 0.0
C575 C 0.01124 0.77504 0.86592 0.0
C576 C 1.0047 0.76201 0.82912 0.0
C577 C 0.99335 0.72042 0.7236 0.0
C578 C 0.99566 0.73536 0.75965 0.0
H579 H 0.03402 0.77076 0.96436 0.0
H580 H 0.02317 0.74985 0.90362 0.0
H581 H 0.01747 0.78168 0.77986 0.0
H582 H 0.98992 0.72003 0.61381 0.0
H583 H 0.98555 0.74298 0.67499 0.0
C584 C 0.2204 0.9677 0.58749 0.0
C585 C 0.20339 0.97914 0.57421 0.0
C586 C 0.23233 0.97404 0.6224 0.0
C587 C 0.23358 0.00828 0.71775 0.0
H588 H 0.29185 0.99885 0.70735 0.0
C589 C 0.31541 0.01538 0.81908 0.0
C590 C 0.30844 0.00752 0.85865 0.0
C591 C 0.3019 0.0176 0.78417 0.0
C592 C 0.2757 1.00205 0.71064 0.0
H593 H 0.18512 0.00591 0.58803 0.0
H594 H 0.20619 0.01723 0.64887 0.0
H595 H 0.26948 0.99078 0.64722 0.0
H596 H 0.28146 0.99785 0.89388 0.0
H597 H 0.25826 1.00126 0.83343 0.0
H598 H 0.23991 0.01981 0.78113 0.0
C599 C 0.21018 1.00319 0.63253 0.0
C600 C 0.26277 0.99702 0.67632 0.0
C601 C 0.19808 0.9967 0.5977 0.0
C602 C 0.28742 1.00373 0.8637 0.0
C603 C 0.274 0.00586 0.82892 0.0
C604 C 0.24657 0.01349 0.75205 0.0
C605 C 0.22773 0.99216 0.64468 0.0
C606 C 0.24149 0.99947 0.67987 0.0
C607 C 0.2812 0.01197 0.78816 0.0
C608 C 0.26775 0.0099 0.74941 0.0
H609 H 0.22479 0.95399 0.57031 0.0
H610 H 0.24533 0.9648 0.63162 0.0
H611 H 0.21729 0.01044 0.72164 0.0
H612 H 0.33148 0.01855 0.81417 0.0
H613 H 0.30789 0.02284 0.75351 0.0
C614 C 0.52191 0.19848 0.61102 0.0
C615 C 0.53184 0.20771 0.57582 0.0
C616 C 0.51517 0.21029 0.64596 0.0
C617 C 0.50016 0.2626 0.67458 0.0
H618 H 0.51612 0.24822 0.79127 0.0
C619 C 0.50336 0.32083 0.81368 0.0
C620 C 0.50231 0.31381 0.85647 0.0
C621 C 0.50165 0.30711 0.77921 0.0
C622 C 0.51101 0.25229 0.75911 0.0
H623 H 0.54255 0.23656 0.54985 0.0
H624 H 0.5307 0.25701 0.61039 0.0
H625 H 0.52405 0.22519 0.73202 0.0
H626 H 0.49633 0.28748 0.8968 0.0
H627 H 0.49223 0.26376 0.83682 0.0
H628 H 0.4872 0.28974 0.70138 0.0
C629 C 0.52805 0.2407 0.61095 0.0
C630 C 0.5157 0.23908 0.72511 0.0
C631 C 0.53502 0.22892 0.57647 0.0
C632 C 0.49739 0.29327 0.86408 0.0
C633 C 0.49531 0.27963 0.82967 0.0
C634 C 0.49522 0.27571 0.70864 0.0
C635 C 0.51794 0.23156 0.64591 0.0
C636 C 0.51079 0.24434 0.68242 0.0
C637 C 0.49853 0.28615 0.78689 0.0
C638 C 0.50103 0.27099 0.75129 0.0
H639 H 0.51918 0.18218 0.61139 0.0
H640 H 0.50744 0.20287 0.67261 0.0
H641 H 0.49594 0.26688 0.64195 0.0
H642 H 0.50734 0.33654 0.80685 0.0
H643 H 0.50432 0.31277 0.74684 0.0
C644 C 0.292 0.54086 0.59487 0.0
C645 C 0.30932 0.52938 0.58378 0.0
C646 C 0.27996 0.53536 0.63016 0.0
C647 C 0.24975 0.51379 0.68719 0.0
H648 H 0.27295 0.49492 0.79531 0.0
C649 C 0.19752 0.4984 0.83242 0.0
C650 C 0.20434 0.50735 0.87112 0.0
C651 C 0.211 0.49582 0.79766 0.0
C652 C 0.26619 0.50016 0.76532 0.0
H653 H 0.32791 0.50338 0.60176 0.0
H654 H 0.30667 0.49354 0.66332 0.0
H655 H 0.29542 0.50261 0.73471 0.0
H656 H 0.23106 0.51886 0.90491 0.0
H657 H 0.2542 0.51479 0.84469 0.0
H658 H 0.22069 0.51254 0.71828 0.0
C659 C 0.30253 0.50697 0.64493 0.0
C660 C 0.2791 0.50439 0.73039 0.0
C661 C 0.31472 0.51261 0.60967 0.0
C662 C 0.22521 0.51208 0.87545 0.0
C663 C 0.2386 0.50959 0.84082 0.0
C664 C 0.23689 0.50973 0.72213 0.0
C665 C 0.28476 0.51807 0.65511 0.0
C666 C 0.27107 0.51176 0.6912 0.0
C667 C 0.23153 0.50215 0.8009 0.0
C668 C 0.24496 0.50331 0.76202 0.0
H669 H 0.2875 0.55398 0.57579 0.0
H670 H 0.26676 0.54465 0.63771 0.0
H671 H 0.24295 0.51894 0.65718 0.0
H672 H 0.18157 0.4945 0.82806 0.0
H673 H 0.20511 0.48961 0.76768 0.0
C674 C 0.97179 0.28961 0.58091 0.0
C675 C 0.98482 0.30477 0.56459 0.0
C676 C 0.9775 0.27812 0.61695 0.0
C677 C 0.01948 0.25514 0.67074 0.0
H678 H 0.98519 0.25451 0.77283 0.0
C679 C 0.0126 0.19015 0.79916 0.0
C680 C 0.01013 0.19645 0.84228 0.0
C681 C 0.01486 0.20466 0.76618 0.0
C682 C 0.99506 0.25468 0.74476 0.0
H683 H 0.01404 0.31984 0.57296 0.0
H684 H 0.02432 0.29915 0.63569 0.0
H685 H 0.97744 0.27807 0.71388 0.0
H686 H 0.01066 0.22264 0.88518 0.0
H687 H 0.01451 0.24775 0.82783 0.0
H688 H 0.03646 0.2309 0.70087 0.0
C689 C 0.00959 0.29648 0.62073 0.0
C690 C 0.99056 0.26809 0.71107 0.0
C691 C 1.00364 0.30837 0.58521 0.0
C692 C 0.01223 0.21729 0.85222 0.0
C693 C 0.01437 0.23171 0.81941 0.0
C694 C 0.02375 0.24136 0.70421 0.0
C695 C 0.99655 0.28124 0.6367 0.0
C696 C 1.00262 0.26834 0.6737 0.0
C697 C 0.01466 0.22561 0.77597 0.0
C698 C 0.01151 0.24097 0.74145 0.0
H699 H 0.95722 0.2865 0.56559 0.0
H700 H 0.96723 0.26643 0.62878 0.0
H701 H 0.02885 0.255 0.64192 0.0
H702 H 0.01101 0.17423 0.79045 0.0
H703 H 0.01506 0.19957 0.73287 0.0
C704 C 0.22239 1.00339 0.36321 0.0
C705 C 0.20127 0.00645 0.35775 0.0
C706 C 0.23584 0.00633 0.32887 0.0
C707 C 0.26319 0.01519 0.25267 0.0
H708 H 0.24102 0.99205 0.14733 0.0
C709 C 0.31217 0.99929 0.09887 0.0
C710 C 0.30731 0.98146 0.07584 0.0
C711 C 0.29994 0.00564 0.13349 0.0
C712 C 0.24752 0.99844 0.17657 0.0
H713 H 0.17802 0.01717 0.31323 0.0
H714 H 0.20165 0.02288 0.2534 0.0
H715 H 0.21835 0.99954 0.20706 0.0
H716 H 0.28661 0.95567 0.07257 0.0
H717 H 0.26583 0.96628 0.13346 0.0
H718 H 0.2926 0.01284 0.22275 0.0
C719 C 0.20771 0.01756 0.28397 0.0
C720 C 0.23441 1.00314 0.21065 0.0
C721 C 0.19417 0.01449 0.31841 0.0
C722 C 0.29065 0.9696 0.08939 0.0
C723 C 0.27858 0.97582 0.12405 0.0
C724 C 0.27636 0.01033 0.21858 0.0
C725 C 0.22856 0.01256 0.2882 0.0
C726 C 0.24211 0.01108 0.24963 0.0
C727 C 0.2827 0.9942 0.14581 0.0
C728 C 0.26873 1.00134 0.18058 0.0
H729 H 0.22844 0.99741 0.39326 0.0
H730 H 0.25171 1.00222 0.33354 0.0
H731 H 0.26964 0.0216 0.28193 0.0
H732 H 0.32487 0.00881 0.08899 0.0
H733 H 0.30355 0.01988 0.14951 0.0
C734 C 0.50689 0.21807 0.36513 0.0
C735 C 0.50502 0.1968 0.36086 0.0
C736 C 0.50385 0.23088 0.32975 0.0
C737 C 0.50794 0.22831 0.21121 0.0
H738 H 0.49673 0.28616 0.22133 0.0
C739 C 0.51077 0.30657 0.09958 0.0
C740 C 0.52831 0.30174 0.07558 0.0
C741 C 0.50446 0.29396 0.13362 0.0
C742 C 0.49964 0.27001 0.21755 0.0
H743 H 0.49625 0.1725 0.31712 0.0
H744 H 0.49015 0.19499 0.25544 0.0
H745 H 0.48828 0.26346 0.28082 0.0
H746 H 0.55356 0.28056 0.06968 0.0
H747 H 0.54324 0.25925 0.12998 0.0
H748 H 0.51878 0.23471 0.14762 0.0
C749 C 0.49475 0.20171 0.28591 0.0
C750 C 0.495 0.25697 0.25199 0.0
C751 C 0.49799 0.1888 0.32142 0.0
C752 C 0.53986 0.28458 0.08735 0.0
C753 C 0.53377 0.2722 0.12166 0.0
C754 C 0.51227 0.24127 0.17661 0.0
C755 C 0.49859 0.22282 0.28912 0.0
C756 C 0.49974 0.23604 0.24988 0.0
C757 C 0.51572 0.2764 0.14466 0.0
C758 C 0.50887 0.26241 0.17983 0.0
H759 H 0.51207 0.22482 0.39518 0.0
H760 H 0.5071 0.24695 0.3338 0.0
H761 H 0.512 0.21237 0.2082 0.0
H762 H 0.50147 0.31962 0.09095 0.0
H763 H 0.49043 0.29766 0.15035 0.0
C764 C 0.2908 0.50223 0.37679 0.0
C765 C 0.31173 0.50176 0.3666 0.0
C766 C 0.27606 0.50132 0.34423 0.0
C767 C 0.26537 0.49139 0.22916 0.0
H768 H 0.23114 0.53953 0.23851 0.0
C769 C 0.20049 0.51259 0.10717 0.0
C770 C 0.20306 0.53208 0.08904 0.0
C771 C 0.2122 0.50655 0.14292 0.0
C772 C 0.24047 0.52595 0.23565 0.0
H773 H 0.33353 0.49786 0.31461 0.0
H774 H 0.30761 0.49606 0.25746 0.0
H775 H 0.25467 0.53096 0.29701 0.0
H776 H 0.2193 0.56077 0.09494 0.0
H777 H 0.23911 0.55051 0.1583 0.0
H778 H 0.25117 0.48665 0.16727 0.0
C779 C 0.3027 0.49724 0.29078 0.0
C780 C 0.25385 0.52096 0.26919 0.0
C781 C 0.31754 0.49821 0.32352 0.0
C782 C 0.21695 0.54567 0.1083 0.0
C783 C 0.22828 0.53981 0.14452 0.0
C784 C 0.25166 0.49621 0.1958 0.0
C785 C 0.28188 0.49983 0.30073 0.0
C786 C 0.26663 0.50378 0.26613 0.0
C787 C 0.2263 0.52009 0.1617 0.0
C788 C 0.23934 0.51373 0.19852 0.0
H789 H 0.2858 0.50471 0.40974 0.0
H790 H 0.26011 0.50296 0.35289 0.0
H791 H 0.27507 0.47809 0.22598 0.0
H792 H 0.19004 0.50173 0.09269 0.0
H793 H 0.21034 0.49129 0.15577 0.0
C794 C 0.97664 0.23126 0.05138 0.0
C795 C 0.97918 0.21003 0.05429 0.0
C796 C 0.98192 0.24391 0.08581 0.0
C797 C 0.01173 0.24548 0.18846 0.0
H798 H 0.97868 0.29365 0.2081 0.0
C799 C 0.00958 0.29412 0.34538 0.0
C800 C 0.00709 0.31532 0.34075 0.0
C801 C 0.0106 0.2815 0.30903 0.0
C802 C 0.98827 0.28044 0.20261 0.0
H803 H 0.98912 0.18539 0.09596 0.0
H804 H 0.99761 0.20749 0.1572 0.0
H805 H 0.96985 0.27056 0.14973 0.0
H806 H 1.00566 0.34008 0.29438 0.0
H807 H 0.00732 0.318 0.23089 0.0
H808 H 0.02953 0.25516 0.24319 0.0
C809 C 0.992 0.2144 0.1277 0.0
C810 C 0.98322 0.26714 0.16907 0.0
C811 C 0.98694 0.2017 0.09279 0.0
C812 C 0.00759 0.32382 0.29907 0.0
C813 C 0.00835 0.31117 0.26271 0.0
C814 C 0.01661 0.25869 0.22257 0.0
C815 C 0.9896 0.23572 0.12457 0.0
C816 C 0.99492 0.24952 0.16129 0.0
C817 C 0.00894 0.28985 0.26739 0.0
C818 C 1.00497 0.27637 0.22978 0.0
H819 H 0.97097 0.23825 0.02198 0.0
H820 H 0.98029 0.26022 0.0816 0.0
H821 H 0.02127 0.23223 0.18319 0.0
H822 H 0.00934 0.28712 0.3771 0.0
H823 H 0.01107 0.26513 0.31362 0.0
C824 C 0.71162 0.9917 0.14729 0.0
C825 C 0.69147 0.99845 0.15361 0.0
C826 C 0.72479 0.98912 0.18242 0.0
C827 C 0.72811 0.99035 0.30322 0.0
H828 H 0.78015 0.01649 0.28001 0.0
C829 C 0.77706 0.02712 0.43659 0.0
C830 C 0.79833 0.0242 0.43571 0.0
C831 C 0.7648 0.02052 0.40239 0.0
C832 C 0.76585 0.00885 0.28695 0.0
H833 H 0.66877 0.00603 0.20184 0.0
H834 H 0.69179 1.00194 0.26317 0.0
H835 H 0.75691 0.00926 0.2206 0.0
H836 H 0.82346 0.01218 0.39792 0.0
H837 H 0.80196 1.00086 0.33758 0.0
H838 H 0.73686 0.99084 0.36999 0.0
C839 C 0.69745 0.99836 0.2312 0.0
C840 C 0.7525 1.00459 0.25283 0.0
C841 C 0.68418 1.00067 0.19599 0.0
C842 C 0.80712 0.01472 0.39949 0.0
C843 C 0.79483 0.00824 0.36498 0.0
C844 C 0.74143 0.99475 0.3374 0.0
C845 C 0.7182 0.99354 0.22463 0.0
C846 C 0.73329 0.9956 0.26055 0.0
C847 C 0.7735 0.01093 0.36627 0.0
C848 C 0.76028 1.00439 0.3297 0.0
H849 H 0.7176 0.98971 0.11493 0.0
H850 H 0.74047 0.98477 0.17624 0.0
H851 H 0.71361 0.98315 0.31034 0.0
H852 H 0.76975 0.03435 0.46398 0.0
H853 H 0.74848 0.02316 0.40402 0.0
C854 C 0.50013 0.81153 0.38628 0.0
C855 C 0.4824 0.80646 0.40949 0.0
C856 C 0.50657 0.79937 0.35161 0.0
C857 C 0.51136 0.77597 0.26642 0.0
H858 H 0.50138 0.71791 0.27732 0.0
C859 C 0.5053 0.72221 0.1211 0.0
C860 C 0.50884 0.7012 0.12625 0.0
C861 C 0.5079 0.73562 0.15566 0.0
C862 C 0.50474 0.73399 0.27389 0.0
H863 H 0.45691 0.7854 0.4131 0.0
H864 H 0.46766 0.76473 0.35213 0.0
H865 H 0.49364 0.74034 0.33734 0.0
H866 H 0.52 0.67812 0.17054 0.0
H867 H 0.52511 0.70168 0.23081 0.0
H868 H 0.52266 0.76952 0.20297 0.0
C869 C 0.47705 0.77761 0.36142 0.0
C870 C 0.49991 0.74696 0.30815 0.0
C871 C 0.47075 0.78961 0.39613 0.0
C872 C 0.51699 0.69419 0.16558 0.0
C873 C 0.5197 0.70768 0.20027 0.0
C874 C 0.51636 0.76295 0.23217 0.0
C875 C 0.49532 0.78199 0.3394 0.0
C876 C 0.50254 0.76817 0.30439 0.0
C877 C 0.51427 0.7284 0.19628 0.0
C878 C 0.51256 0.74184 0.23499 0.0
H879 H 0.50949 0.82437 0.396 0.0
H880 H 0.52072 0.80319 0.33543 0.0
H881 H 0.51366 0.79221 0.26241 0.0
H882 H 0.49921 0.72819 0.09108 0.0
H883 H 0.50346 0.75138 0.15118 0.0
C884 C 0.71877 0.46416 0.39927 0.0
C885 C 0.70473 0.47781 0.41766 0.0
C886 C 0.73025 0.46982 0.36322 0.0
C887 C 0.75416 0.51274 0.31162 0.0
H888 H 0.75626 0.47807 0.2102 0.0
C889 C 0.81996 0.50858 0.18446 0.0
C890 C 0.81398 0.50554 0.14125 0.0
C891 C 0.80519 0.51004 0.21714 0.0
C892 C 0.75569 0.48805 0.23809 0.0
H893 H 0.69161 0.50806 0.41273 0.0
H894 H 0.71222 0.51818 0.34996 0.0
H895 H 0.73255 0.46998 0.26856 0.0
H896 H 0.78791 0.5041 0.0979 0.0
H897 H 0.76236 0.50662 0.15469 0.0
H898 H 0.77805 0.53029 0.28174 0.0
C899 C 0.71405 0.50302 0.36333 0.0
C900 C 0.74221 0.48333 0.27151 0.0
C901 C 0.70218 0.49717 0.3989 0.0
C902 C 0.79304 0.50614 0.13093 0.0
C903 C 0.77838 0.5075 0.16344 0.0
C904 C 0.76799 0.51726 0.27841 0.0
C905 C 0.72827 0.48941 0.34539 0.0
C906 C 0.7414 0.49553 0.30869 0.0
C907 C 0.78429 0.50846 0.207 0.0
C908 C 0.76892 0.50489 0.24138 0.0
H909 H 0.72109 0.44917 0.41316 0.0
H910 H 0.74117 0.45908 0.35002 0.0
H911 H 0.7539 0.52227 0.34022 0.0
H912 H 0.83595 0.50813 0.19348 0.0
H913 H 0.81016 0.51079 0.25052 0.0
C914 C 0.99917 0.82544 0.19566 0.0
C915 C 0.99741 0.8182 0.15311 0.0
C916 C 0.99701 0.81205 0.2306 0.0
C917 C 1.00438 0.75719 0.25193 0.0
H918 H 0.98983 0.77255 0.36882 0.0
C919 C 0.01445 0.70312 0.39953 0.0
C920 C 0.02383 0.71214 0.43571 0.0
C921 C 0.00806 0.71517 0.3646 0.0
C922 C 0.99395 0.76805 0.3363 0.0
H923 H 0.98963 0.79197 0.11381 0.0
H924 H 0.98492 0.76887 0.17465 0.0
H925 H 0.98184 0.79553 0.30906 0.0
H926 H 0.03398 0.74085 0.46338 0.0
H927 H 0.02288 0.76168 0.40274 0.0
H928 H 0.01672 0.72983 0.27936 0.0
C929 C 0.98882 0.78462 0.18118 0.0
C930 C 0.9894 0.78123 0.30205 0.0
C931 C 0.99127 0.79792 0.1463 0.0
C932 C 0.02683 0.73337 0.43604 0.0
C933 C 0.02028 0.74538 0.40146 0.0
C934 C 0.00876 0.74396 0.28612 0.0
C935 C 0.99278 0.79123 0.22362 0.0
C936 C 0.99495 0.77618 0.25949 0.0
C937 C 0.01071 0.73646 0.36548 0.0
C938 C 1.00404 0.74946 0.32877 0.0
H939 H 1.00406 0.84095 0.2019 0.0
H940 H 1.00023 0.81774 0.26274 0.0
H941 H 0.00928 0.75288 0.21981 0.0
H942 H 0.01187 0.68681 0.39837 0.0
H943 H 1.00072 0.70788 0.33726 0.0
C944 C 0.42351 0.00749 0.0004 0.0
C945 C 0.41734 0.00742 0.95684 0.0
C946 C 0.44423 0.00925 0.01139 0.0
C947 C 0.49548 0.99965 0.96572 0.0
H948 H 0.51463 0.03131 0.06346 0.0
C949 C 0.58171 0.01203 0.002 0.0
C950 C 0.58782 0.01287 0.04553 0.0
C951 C 0.56094 0.01098 0.99103 0.0
C952 C 0.50954 0.02215 0.03639 0.0
H953 H 0.42811 0.01007 0.89077 0.0
H954 H 0.46406 0.01334 0.90993 0.0
H955 H 0.47839 0.03136 0.04507 0.0
H956 H 0.57691 0.01241 0.11169 0.0
H957 H 0.5409 0.01008 0.09267 0.0
H958 H 0.52655 0.99027 0.9572 0.0
C959 C 0.45295 0.01168 0.93561 0.0
C960 C 0.48873 0.02224 0.02579 0.0
C961 C 0.43229 0.00999 0.92467 0.0
C962 C 0.57275 0.01191 0.0778 0.0
C963 C 0.55204 0.01077 0.06688 0.0
C964 C 0.51627 0.99949 0.97641 0.0
C965 C 0.45925 0.0109 0.97904 0.0
C966 C 0.48143 0.01102 0.99028 0.0
C967 C 0.5458 0.01067 0.02335 0.0
C968 C 0.5236 0.01073 0.01191 0.0
H969 H 0.41242 0.00544 0.02599 0.0
H970 H 0.44855 0.0085 0.04516 0.0
H971 H 0.49035 0.99054 0.9386 0.0
H972 H 0.59292 0.01287 0.97635 0.0
H973 H 0.55674 0.01109 0.95716 0.0
C974 C 0.50876 0.43493 0.92308 0.0
C975 C 0.51072 0.42045 0.95637 0.0
C976 C 0.50757 0.45575 0.93249 0.0
C977 C 0.49809 0.49291 0.021 0.0
H978 H 0.52874 0.52955 0.94697 0.0
C979 C 0.50968 0.57746 0.06568 0.0
C980 C 0.50671 0.59189 0.03261 0.0
C981 C 0.51109 0.55667 0.05613 0.0
C982 C 0.51995 0.51956 0.96774 0.0
H983 H 0.5123 0.41653 0.02585 0.0
H984 H 0.51037 0.45291 0.04236 0.0
H985 H 0.52822 0.49312 0.93126 0.0
H986 H 0.50373 0.59577 0.9633 0.0
H987 H 0.50626 0.55942 0.94658 0.0
H988 H 0.4899 0.51937 0.05759 0.0
C989 C 0.50956 0.44815 0.00889 0.0
C990 C 0.5196 0.49864 0.95869 0.0
C991 C 0.51068 0.42726 -0.00055 0.0
C992 C 0.50611 0.58508 0.98953 0.0
C993 C 0.50756 0.56423 0.97996 0.0
C994 C 0.49849 0.51382 0.03012 0.0
C995 C 0.50838 0.4627 0.97546 0.0
C996 C 0.50862 0.48502 0.98514 0.0
C997 C 0.5096 0.54972 0.01325 0.0
C998 C 0.50943 0.52742 0.00362 0.0
H999 H 0.50863 0.43023 0.88952 0.0
H1000 H 0.5062 0.46643 0.90595 0.0
H1001 H 0.48924 0.48297 0.04173 0.0
H1002 H 0.5103 0.58214 0.09923 0.0
H1003 H 0.51309 0.54598 0.0825 0.0
C1004 C 0.93036 0.4981 0.00702 0.0
C1005 C 0.92381 0.49847 0.05027 0.0
C1006 C 0.9512 0.49949 0.99694 0.0
C1007 C 1.00243 0.49117 0.04604 0.0
H1008 H 0.0217 0.52018 0.94489 0.0
C1009 C 0.08853 0.50614 0.01153 0.0
C1010 C 0.09502 0.50543 0.96825 0.0
C1011 C 0.06775 0.50429 0.02187 0.0
C1012 C 0.01657 0.51178 0.97299 0.0
H1013 H 0.93404 0.50144 0.11671 0.0
H1014 H 0.97017 0.50428 0.09914 0.0
H1015 H 0.98537 0.52015 0.96194 0.0
H1016 H 0.08476 0.50124 0.9021 0.0
H1017 H 0.04875 0.49773 0.92015 0.0
H1018 H 0.03369 0.4829 0.05717 0.0
C1019 C 0.95931 0.50244 0.07297 0.0
C1020 C 0.99569 0.51179 0.9828 0.0
C1021 C 0.93852 0.50101 0.08304 0.0
C1022 C 0.08034 0.50195 0.93579 0.0
C1023 C 0.05962 0.50013 0.9461 0.0
C1024 C 0.02333 0.4912 0.03627 0.0
C1025 C 0.966 0.50131 0.02985 0.0
C1026 C 0.98831 0.50149 0.01948 0.0
C1027 C 0.05297 0.50173 0.98916 0.0
C1028 C 0.03068 0.50148 -0.00044 0.0
H1029 H 0.91947 0.49604 0.98099 0.0
H1030 H 0.95574 0.4984 0.96338 0.0
H1031 H 0.99732 0.48275 0.07412 0.0
H1032 H 0.09939 0.50891 0.03732 0.0
H1033 H 0.06319 0.5057 0.05537 0.0
C1034 C 1.00127 0.0741 0.90998 0.0
C1035 C 0.99974 0.08963 0.94117 0.0
C1036 C 1.00328 0.05369 0.92237 0.0
C1037 C 0.01692 0.02003 0.01432 0.0
H1038 H 0.98468 0.98008 0.9517 0.0
C1039 C 0.00961 0.93704 0.07407 0.0
C1040 C 0.01068 0.92141 0.04303 0.0
C1041 C 0.00775 0.95744 0.06149 0.0
C1042 C 0.99397 0.99098 0.96925 0.0
H1043 H 0.99971 0.09584 0.00999 0.0
H1044 H 1.00319 0.06017 0.03168 0.0
H1045 H 0.98343 0.01584 0.93031 0.0
H1046 H 0.01012 0.91498 0.97432 0.0
H1047 H 0.007 0.95064 0.95227 0.0
H1048 H 0.0275 0.99518 0.05321 0.0
C1049 C 1.00296 0.06382 0.99754 0.0
C1050 C 0.99326 0.01152 0.95696 0.0
C1051 C 1.00093 0.08429 0.98512 0.0
C1052 C 0.00924 0.92663 0.99907 0.0
C1053 C 0.00741 0.94709 0.98644 0.0
C1054 C 0.01765 0.99949 0.02658 0.0
C1055 C 1.00382 0.04822 0.9663 0.0
C1056 C 1.00473 0.02632 0.97933 0.0
C1057 C 0.00696 0.96279 0.01751 0.0
C1058 C 0.00615 0.98468 0.00427 0.0
H1059 H 1.00048 0.07764 0.87582 0.0
H1060 H 1.00429 0.04215 0.89742 0.0
H1061 H 0.02618 0.03094 0.0319 0.0
H1062 H 0.01057 0.93358 0.10824 0.0
H1063 H 0.00701 0.96904 0.08635 0.0
C1064 C 0.07771 0.00527 0.42075 0.0
C1065 C 0.09274 1.00274 0.45288 0.0
C1066 C 0.05716 0.00762 0.43185 0.0
C1067 C 0.02226 0.02058 0.52172 0.0
H1068 H 0.98298 0.98903 0.45558 0.0
C1069 C 0.9382 0.01369 0.57529 0.0
C1070 C 0.923 0.01465 0.54316 0.0
C1071 C 0.9588 0.01184 0.56417 0.0
C1072 C 0.99368 0.99814 0.47407 0.0
H1073 H 0.09795 1.00145 0.52205 0.0
H1074 H 0.062 0.00564 0.54149 0.0
H1075 H 0.01909 0.98772 0.43662 0.0
H1076 H 0.91756 0.01396 0.47407 0.0
H1077 H 0.95358 0.01096 0.45453 0.0
H1078 H 0.99687 0.03111 0.55902 0.0
C1079 C 0.06617 0.00585 0.50763 0.0
C1080 C 0.01441 0.99739 0.46319 0.0
C1081 C 0.08678 1.00343 0.4965 0.0
C1082 C 0.92887 0.01316 0.49961 0.0
C1083 C 0.94955 0.01139 0.48844 0.0
C1084 C 1.00151 0.0214 0.5325 0.0
C1085 C 0.05106 0.00756 0.47539 0.0
C1086 C 0.02897 0.00859 0.48688 0.0
C1087 C 0.96482 0.011 0.5206 0.0
C1088 C 0.98693 0.01014 0.5089 0.0
H1089 H 0.08173 0.0049 0.38682 0.0
H1090 H 0.04598 0.00929 0.40623 0.0
H1091 H 0.03301 0.02959 0.54029 0.0
H1092 H 0.93422 0.01468 0.60919 0.0
H1093 H 0.97004 0.01113 0.58986 0.0
C1094 C 0.51043 0.9319 0.56659 0.0
C1095 C 0.50752 0.91755 0.53335 0.0
C1096 C 0.51204 0.95271 0.55724 0.0
C1097 C 0.52137 0.9899 0.46903 0.0
H1098 H 0.49101 0.02663 0.54331 0.0
C1099 C 0.51046 0.07461 0.42462 0.0
C1100 C 0.5127 0.08906 0.45788 0.0
C1101 C 0.50919 0.05379 0.43403 0.0
C1102 C 0.49976 0.01665 0.5225 0.0
H1103 H 0.50483 0.91382 0.46396 0.0
H1104 H 0.50766 0.95017 0.44757 0.0
H1105 H 0.49138 0.99021 0.55897 0.0
H1106 H 0.51472 0.09294 0.52733 0.0
H1107 H 0.51262 0.05656 0.54383 0.0
H1108 H 0.52978 0.01634 0.43259 0.0
C1109 C 0.50879 0.9453 0.48094 0.0
C1110 C 0.5 0.99572 0.53151 0.0
C1111 C 0.50716 0.92444 0.49032 0.0
C1112 C 0.51289 0.08223 0.50095 0.0
C1113 C 0.51166 0.06135 0.51039 0.0
C1114 C 0.52115 0.01083 0.46005 0.0
C1115 C 0.51078 0.95974 0.51439 0.0
C1116 C 0.51081 0.98207 0.50491 0.0
C1117 C 0.5102 0.04682 0.47697 0.0
C1118 C 0.51031 0.0245 0.48661 0.0
H1119 H 0.51086 0.92715 0.60011 0.0
H1120 H 0.514 0.96333 0.58373 0.0
H1121 H 0.53007 0.9799 0.44819 0.0
H1122 H 0.51016 0.07932 0.39107 0.0
H1123 H 0.50762 0.04312 0.40752 0.0
C1124 C 0.58733 0.50065 0.49567 0.0
C1125 C 0.59396 0.5015 0.5389 0.0
C1126 C 0.56646 0.50183 0.48551 0.0
C1127 C 0.51562 0.49292 0.53495 0.0
H1128 H 0.4953 0.52107 0.43351 0.0
C1129 C 0.42902 0.50507 0.50158 0.0
C1130 C 0.42229 0.50439 0.45841 0.0
C1131 C 0.44991 0.50391 0.51149 0.0
C1132 C 0.50072 0.51289 0.46168 0.0
H1133 H 0.58382 0.50521 0.60516 0.0
H1134 H 0.54764 0.50761 0.58744 0.0
H1135 H 0.53172 0.52192 0.45017 0.0
H1136 H 0.43228 0.50101 0.39197 0.0
H1137 H 0.4685 0.49859 0.40926 0.0
H1138 H 0.48464 0.48386 0.54646 0.0
C1139 C 0.55848 0.50559 0.56138 0.0
C1140 C 0.52165 0.51342 0.47128 0.0
C1141 C 0.57929 0.50442 0.57151 0.0
C1142 C 0.43689 0.50167 0.42559 0.0
C1143 C 0.45773 0.50049 0.43547 0.0
C1144 C 0.4947 0.49237 0.52534 0.0
C1145 C 0.55172 0.50386 0.51835 0.0
C1146 C 0.52939 0.50348 0.5081 0.0
C1147 C 0.46459 0.50203 0.47847 0.0
C1148 C 0.48694 0.50234 0.48856 0.0
H1149 H 0.59819 0.49829 0.46977 0.0
H1150 H 0.56185 0.50033 0.45204 0.0
H1151 H 0.52104 0.48475 0.56314 0.0
H1152 H 0.41823 0.50728 0.52765 0.0
H1153 H 0.45459 0.50528 0.54495 0.0
C1154 C 0.00751 0.5842 0.4996 0.0
C1155 C 0.00912 0.58981 0.54332 0.0
C1156 C 0.00597 0.5636 0.48778 0.0
C1157 C 0.01752 0.51177 0.5295 0.0
H1158 H 0.98297 0.4939 0.43497 0.0
C1159 C 1.0021 0.42629 0.49179 0.0
C1160 C 1.00046 0.42057 0.44812 0.0
C1161 C 1.00398 0.44688 0.50335 0.0
C1162 C 0.99291 0.49865 0.46112 0.0
H1163 H 0.00959 0.57817 0.60897 0.0
H1164 H 0.00655 0.54248 0.58847 0.0
H1165 H 0.98366 0.52985 0.45496 0.0
H1166 H 1.00034 0.43203 0.38232 0.0
H1167 H 1.00393 0.46774 0.4024 0.0
H1168 H 0.02674 0.48055 0.53571 0.0
C1169 C 0.00692 0.55389 0.56318 0.0
C1170 C 0.99328 0.5193 0.47262 0.0
C1171 C 0.00848 0.57442 0.57495 0.0
C1172 C 1.00147 0.43586 0.4163 0.0
C1173 C 1.00335 0.4564 0.42782 0.0
C1174 C 0.01714 0.49111 0.51803 0.0
C1175 C 0.006 0.54815 0.51942 0.0
C1176 C 1.00556 0.52614 0.50702 0.0
C1177 C 1.00424 0.46224 0.47151 0.0
C1178 C 1.00484 0.48427 0.48367 0.0
H1179 H 0.00807 0.59566 0.47441 0.0
H1180 H 1.00543 0.55977 0.45375 0.0
H1181 H 0.02746 0.51651 0.55567 0.0
H1182 H 1.00128 0.41492 0.51713 0.0
H1183 H 1.00451 0.45081 0.53733 0.0
loop_
_geom_bond_atom_site_label_1
_geom_bond_atom_site_label_2
_geom_bond_distance
_geom_bond_site_symmetry_2
_ccdc_geom_bond_type
O0 Cd1 2.223 . S
O0 C8 1.315 . S
Cd1 O0 2.223 . S
Cd1 O4 2.297 . S
Cd1 O5 2.439 1_554 S
Cd1 O11 2.240 . S
Cd2 O3 2.240 . S
Cd2 O10 2.223 . S
Cd2 O12 2.297 . S
Cd2 O13 2.439 . S
O3 Cd2 2.240 . S
O3 C8 1.279 . S
O4 Cd1 2.297 . S
O4 C6 1.247 1_554 S
O5 Cd1 2.439 1_556 S
O5 C6 1.208 . S
C6 O4 1.247 1_556 S
C6 O5 1.208 . S
C7 O12 1.247 . S
C7 O13 1.208 . S
C8 O0 1.315 . S
C8 O3 1.279 . S
C9 O10 1.315 . S
C9 O11 1.279 . S
O10 Cd2 2.223 . S
O10 C9 1.315 . S
O11 Cd1 2.240 . S
O11 C9 1.279 . S
O12 Cd2 2.297 . S
O12 C7 1.247 . S
O13 Cd2 2.439 . S
O13 C7 1.208 . S
O14 Cd15 2.223 . S
O14 C22 1.315 . S
Cd15 O14 2.223 . S
Cd15 O18 2.297 . S
Cd15 O19 2.439 1_554 S
Cd15 O25 2.240 . S
Cd16 O17 2.240 . S
Cd16 O24 2.223 . S
Cd16 O26 2.297 . S
Cd16 O27 2.439 . S
O17 Cd16 2.240 . S
O17 C22 1.279 . S
O18 Cd15 2.297 . S
O18 C20 1.247 1_554 S
O19 Cd15 2.439 1_556 S
O19 C20 1.208 . S
C20 O18 1.247 1_556 S
C20 O19 1.208 . S
C21 O26 1.247 . S
C21 O27 1.208 . S
C22 O14 1.315 . S
C22 O17 1.279 . S
C23 O24 1.315 . S
C23 O25 1.279 . S
O24 Cd16 2.223 . S
O24 C23 1.315 . S
O25 Cd15 2.240 . S
O25 C23 1.279 . S
O26 Cd16 2.297 . S
O26 C21 1.247 . S
O27 Cd16 2.439 . S
O27 C21 1.208 . S
O28 Cd29 2.223 . S
O28 C36 1.315 . S
Cd29 O28 2.223 . S
Cd29 O32 2.297 . S
Cd29 O33 2.439 1_554 S
Cd29 O39 2.240 . S
Cd30 O31 2.240 . S
Cd30 O38 2.223 . S
Cd30 O40 2.297 . S
Cd30 O41 2.439 . S
O31 Cd30 2.240 . S
O31 C36 1.279 . S
O32 Cd29 2.297 . S
O32 C34 1.247 1_554 S
O33 Cd29 2.439 1_556 S
O33 C34 1.208 . S
C34 O32 1.247 1_556 S
C34 O33 1.208 . S
C35 O40 1.247 . S
C35 O41 1.208 . S
C36 O28 1.315 . S
C36 O31 1.279 . S
C37 O38 1.315 . S
C37 O39 1.279 . S
O38 Cd30 2.223 . S
O38 C37 1.315 . S
O39 Cd29 2.240 . S
O39 C37 1.279 . S
O40 Cd30 2.297 . S
O40 C35 1.247 . S
O41 Cd30 2.439 . S
O41 C35 1.208 . S
O42 Cd43 2.223 . S
O42 C50 1.315 . S
Cd43 O42 2.223 . S
Cd43 O46 2.297 . S
Cd43 O47 2.439 1_554 S
Cd43 O53 2.240 . S
Cd44 O45 2.240 . S
Cd44 O52 2.223 . S
Cd44 O54 2.297 . S
Cd44 O55 2.439 . S
O45 Cd44 2.240 . S
O45 C50 1.279 . S
O46 Cd43 2.297 . S
O46 C48 1.247 1_554 S
O47 Cd43 2.439 1_556 S
O47 C48 1.208 . S
C48 O46 1.247 1_556 S
C48 O47 1.208 . S
C49 O54 1.247 . S
C49 O55 1.208 . S
C50 O42 1.315 . S
C50 O45 1.279 . S
C51 O52 1.315 . S
C51 O53 1.279 . S
O52 Cd44 2.223 . S
O52 C51 1.315 . S
O53 Cd43 2.240 . S
O53 C51 1.279 . S
O54 Cd44 2.297 . S
O54 C49 1.247 . S
O55 Cd44 2.439 . S
O55 C49 1.208 . S
O56 Cd57 2.223 . S
O56 C64 1.315 . S
Cd57 O56 2.223 . S
Cd57 O60 2.297 . S
Cd57 O61 2.439 . S
Cd57 O67 2.240 . S
Cd58 O59 2.240 . S
Cd58 O66 2.223 . S
Cd58 O68 2.297 . S
Cd58 O69 2.439 . S
O59 Cd58 2.240 . S
O59 C64 1.279 . S
O60 Cd57 2.297 . S
O60 C62 1.247 . S
O61 Cd57 2.439 . S
O61 C62 1.208 . S
C62 O60 1.247 . S
C62 O61 1.208 . S
C63 O68 1.247 . S
C63 O69 1.208 . S
C64 O56 1.315 . S
C64 O59 1.279 . S
C65 O66 1.315 . S
C65 O67 1.279 . S
O66 Cd58 2.223 . S
O66 C65 1.315 . S
O67 Cd57 2.240 . S
O67 C65 1.279 . S
O68 Cd58 2.297 . S
O68 C63 1.247 . S
O69 Cd58 2.439 . S
O69 C63 1.208 . S
O70 Cd71 2.223 . S
O70 C78 1.315 . S
Cd71 O70 2.223 . S
Cd71 O74 2.297 . S
Cd71 O75 2.439 . S
Cd71 O81 2.240 . S
Cd72 O73 2.240 . S
Cd72 O80 2.223 . S
Cd72 O82 2.297 . S
Cd72 O83 2.439 . S
O73 Cd72 2.240 . S
O73 C78 1.279 . S
O74 Cd71 2.297 . S
O74 C76 1.247 . S
O75 Cd71 2.439 . S
O75 C76 1.208 . S
C76 O74 1.247 . S
C76 O75 1.208 . S
C77 O82 1.247 . S
C77 O83 1.208 . S
C78 O70 1.315 . S
C78 O73 1.279 . S
C79 O80 1.315 . S
C79 O81 1.279 . S
O80 Cd72 2.223 . S
O80 C79 1.315 . S
O81 Cd71 2.240 . S
O81 C79 1.279 . S
O82 Cd72 2.297 . S
O82 C77 1.247 . S
O83 Cd72 2.439 . S
O83 C77 1.208 . S
O84 Cd85 2.223 . S
O84 C92 1.315 . S
Cd85 O84 2.223 . S
Cd85 O88 2.297 . S
Cd85 O89 2.439 . S
Cd85 O95 2.240 . S
Cd86 O87 2.240 . S
Cd86 O94 2.223 . S
Cd86 O96 2.297 . S
Cd86 O97 2.439 . S
O87 Cd86 2.240 . S
O87 C92 1.279 . S
O88 Cd85 2.297 . S
O88 C90 1.247 . S
O89 Cd85 2.439 . S
O89 C90 1.208 . S
C90 O88 1.247 . S
C90 O89 1.208 . S
C91 O96 1.247 . S
C91 O97 1.208 . S
C92 O84 1.315 . S
C92 O87 1.279 . S
C93 O94 1.315 . S
C93 O95 1.279 . S
O94 Cd86 2.223 . S
O94 C93 1.315 . S
O95 Cd85 2.240 . S
O95 C93 1.279 . S
O96 Cd86 2.297 . S
O96 C91 1.247 . S
O97 Cd86 2.439 . S
O97 C91 1.208 . S
O98 Cd99 2.223 . S
O98 C106 1.315 . S
Cd99 O98 2.223 . S
Cd99 O102 2.297 . S
Cd99 O103 2.439 . S
Cd99 O109 2.240 . S
Cd100 O101 2.240 . S
Cd100 O108 2.223 . S
Cd100 O110 2.297 . S
Cd100 O111 2.439 . S
O101 Cd100 2.240 . S
O101 C106 1.279 . S
O102 Cd99 2.297 . S
O102 C104 1.247 . S
O103 Cd99 2.439 . S
O103 C104 1.208 . S
C104 O102 1.247 . S
C104 O103 1.208 . S
C105 O110 1.247 . S
C105 O111 1.208 . S
C106 O98 1.315 . S
C106 O101 1.279 . S
C107 O108 1.315 . S
C107 O109 1.279 . S
O108 Cd100 2.223 . S
O108 C107 1.315 . S
O109 Cd99 2.240 . S
O109 C107 1.279 . S
O110 Cd100 2.297 . S
O110 C105 1.247 . S
O111 Cd100 2.439 . S
O111 C105 1.208 . S
O112 Cd113 2.223 . S
O112 C120 1.315 . S
Cd113 O112 2.223 . S
Cd113 O116 2.297 . S
Cd113 O117 2.439 1_556 S
Cd113 O123 2.240 . S
Cd114 O115 2.240 . S
Cd114 O122 2.223 . S
Cd114 O124 2.297 . S
Cd114 O125 2.439 . S
O115 Cd114 2.240 . S
O115 C120 1.279 . S
O116 Cd113 2.297 . S
O116 C118 1.247 1_556 S
O117 Cd113 2.439 1_554 S
O117 C118 1.208 . S
C118 O116 1.247 1_554 S
C118 O117 1.208 . S
C119 O124 1.247 . S
C119 O125 1.208 . S
C120 O112 1.315 . S
C120 O115 1.279 . S
C121 O122 1.315 . S
C121 O123 1.279 . S
O122 Cd114 2.223 . S
O122 C121 1.315 . S
O123 Cd113 2.240 . S
O123 C121 1.279 . S
O124 Cd114 2.297 . S
O124 C119 1.247 . S
O125 Cd114 2.439 . S
O125 C119 1.208 . S
O126 Cd127 2.223 . S
O126 C134 1.315 . S
Cd127 O126 2.223 . S
Cd127 O130 2.297 . S
Cd127 O131 2.439 1_556 S
Cd127 O137 2.240 . S
Cd128 O129 2.240 . S
Cd128 O136 2.223 . S
Cd128 O138 2.297 . S
Cd128 O139 2.439 . S
O129 Cd128 2.240 . S
O129 C134 1.279 . S
O130 Cd127 2.297 . S
O130 C132 1.247 1_556 S
O131 Cd127 2.439 1_554 S
O131 C132 1.208 . S
C132 O130 1.247 1_554 S
C132 O131 1.208 . S
C133 O138 1.247 . S
C133 O139 1.208 . S
C134 O126 1.315 . S
C134 O129 1.279 . S
C135 O136 1.315 . S
C135 O137 1.279 . S
O136 Cd128 2.223 . S
O136 C135 1.315 . S
O137 Cd127 2.240 . S
O137 C135 1.279 . S
O138 Cd128 2.297 . S
O138 C133 1.247 . S
O139 Cd128 2.439 . S
O139 C133 1.208 . S
O140 Cd141 2.223 . S
O140 C148 1.315 . S
Cd141 O140 2.223 . S
Cd141 O144 2.297 . S
Cd141 O145 2.439 1_556 S
Cd141 O151 2.240 . S
Cd142 O143 2.240 . S
Cd142 O150 2.223 . S
Cd142 O152 2.297 . S
Cd142 O153 2.439 . S
O143 Cd142 2.240 . S
O143 C148 1.279 . S
O144 Cd141 2.297 . S
O144 C146 1.247 1_556 S
O145 Cd141 2.439 1_554 S
O145 C146 1.208 . S
C146 O144 1.247 1_554 S
C146 O145 1.208 . S
C147 O152 1.247 . S
C147 O153 1.208 . S
C148 O140 1.315 . S
C148 O143 1.279 . S
C149 O150 1.315 . S
C149 O151 1.279 . S
O150 Cd142 2.223 . S
O150 C149 1.315 . S
O151 Cd141 2.240 . S
O151 C149 1.279 . S
O152 Cd142 2.297 . S
O152 C147 1.247 . S
O153 Cd142 2.439 . S
O153 C147 1.208 . S
O154 Cd155 2.223 . S
O154 C162 1.315 . S
Cd155 O154 2.223 . S
Cd155 O158 2.297 . S
Cd155 O159 2.439 1_556 S
Cd155 O165 2.240 . S
Cd156 O157 2.240 . S
Cd156 O164 2.223 . S
Cd156 O166 2.297 . S
Cd156 O167 2.439 . S
O157 Cd156 2.240 . S
O157 C162 1.279 . S
O158 Cd155 2.297 . S
O158 C160 1.247 1_556 S
O159 Cd155 2.439 1_554 S
O159 C160 1.208 . S
C160 O158 1.247 1_554 S
C160 O159 1.208 . S
C161 O166 1.247 . S
C161 O167 1.208 . S
C162 O154 1.315 . S
C162 O157 1.279 . S
C163 O164 1.315 . S
C163 O165 1.279 . S
O164 Cd156 2.223 . S
O164 C163 1.315 . S
O165 Cd155 2.240 . S
O165 C163 1.279 . S
O166 Cd156 2.297 . S
O166 C161 1.247 . S
O167 Cd156 2.439 . S
O167 C161 1.208 . S
O168 Cd169 2.223 . S
O168 C176 1.315 . S
Cd169 O168 2.223 . S
Cd169 O172 2.297 . S
Cd169 O173 2.439 . S
Cd169 O179 2.240 . S
Cd170 O171 2.240 . S
Cd170 O178 2.223 . S
Cd170 O180 2.297 . S
Cd170 O181 2.439 . S
O171 Cd170 2.240 . S
O171 C176 1.279 . S
O172 Cd169 2.297 . S
O172 C174 1.247 . S
O173 Cd169 2.439 . S
O173 C174 1.208 . S
C174 O172 1.247 . S
C174 O173 1.208 . S
C175 O180 1.247 . S
C175 O181 1.208 . S
C176 O168 1.315 . S
C176 O171 1.279 . S
C177 O178 1.315 . S
C177 O179 1.279 . S
O178 Cd170 2.223 . S
O178 C177 1.315 . S
O179 Cd169 2.240 . S
O179 C177 1.279 . S
O180 Cd170 2.297 . S
O180 C175 1.247 . S
O181 Cd170 2.439 . S
O181 C175 1.208 . S
O182 Cd183 2.223 . S
O182 C190 1.315 . S
Cd183 O182 2.223 . S
Cd183 O186 2.297 . S
Cd183 O187 2.439 . S
Cd183 O193 2.240 . S
Cd184 O185 2.240 . S
Cd184 O192 2.223 . S
Cd184 O194 2.297 . S
Cd184 O195 2.439 . S
O185 Cd184 2.240 . S
O185 C190 1.279 . S
O186 Cd183 2.297 . S
O186 C188 1.247 . S
O187 Cd183 2.439 . S
O187 C188 1.208 . S
C188 O186 1.247 . S
C188 O187 1.208 . S
C189 O194 1.247 . S
C189 O195 1.208 . S
C190 O182 1.315 . S
C190 O185 1.279 . S
C191 O192 1.315 . S
C191 O193 1.279 . S
O192 Cd184 2.223 . S
O192 C191 1.315 . S
O193 Cd183 2.240 . S
O193 C191 1.279 . S
O194 Cd184 2.297 . S
O194 C189 1.247 . S
O195 Cd184 2.439 . S
O195 C189 1.208 . S
O196 Cd197 2.223 . S
O196 C204 1.315 . S
Cd197 O196 2.223 . S
Cd197 O200 2.297 . S
Cd197 O201 2.439 . S
Cd197 O207 2.240 . S
Cd198 O199 2.240 . S
Cd198 O206 2.223 . S
Cd198 O208 2.297 . S
Cd198 O209 2.439 . S
O199 Cd198 2.240 . S
O199 C204 1.279 . S
O200 Cd197 2.297 . S
O200 C202 1.247 . S
O201 Cd197 2.439 . S
O201 C202 1.208 . S
C202 O200 1.247 . S
C202 O201 1.208 . S
C203 O208 1.247 . S
C203 O209 1.208 . S
C204 O196 1.315 . S
C204 O199 1.279 . S
C205 O206 1.315 . S
C205 O207 1.279 . S
O206 Cd198 2.223 . S
O206 C205 1.315 . S
O207 Cd197 2.240 . S
O207 C205 1.279 . S
O208 Cd198 2.297 . S
O208 C203 1.247 . S
O209 Cd198 2.439 . S
O209 C203 1.208 . S
O210 Cd211 2.223 . S
O210 C218 1.315 . S
Cd211 O210 2.223 . S
Cd211 O214 2.297 . S
Cd211 O215 2.439 . S
Cd211 O221 2.240 . S
Cd212 O213 2.240 . S
Cd212 O220 2.223 . S
Cd212 O222 2.297 . S
Cd212 O223 2.439 . S
O213 Cd212 2.240 . S
O213 C218 1.279 . S
O214 Cd211 2.297 . S
O214 C216 1.247 . S
O215 Cd211 2.439 . S
O215 C216 1.208 . S
C216 O214 1.247 . S
C216 O215 1.208 . S
C217 O222 1.247 . S
C217 O223 1.208 . S
C218 O210 1.315 . S
C218 O213 1.279 . S
C219 O220 1.315 . S
C219 O221 1.279 . S
O220 Cd212 2.223 . S
O220 C219 1.315 . S
O221 Cd211 2.240 . S
O221 C219 1.279 . S
O222 Cd212 2.297 . S
O222 C217 1.247 . S
O223 Cd212 2.439 . S
O223 C217 1.208 . S
C224 C225 1.349 . S
C224 C226 1.327 . S
C224 H249 0.950 . S
C225 C224 1.349 . S
C225 C241 1.349 . S
C226 C224 1.327 . S
C226 C245 1.429 . S
C226 H250 0.950 . S
C227 C244 1.574 . S
C227 C246 1.368 . S
C227 H251 0.949 . S
H228 C232 0.949 . S
C229 C230 1.349 . S
C229 C231 1.327 . S
C229 H252 0.950 . S
C230 C229 1.349 . S
C230 C242 1.349 . S
C231 C229 1.327 . S
C231 C247 1.429 . S
C231 H253 0.950 . S
C232 H228 0.949 . S
C232 C240 1.574 . S
C232 C248 1.368 . S
H233 C241 0.950 . S
H234 C239 0.950 . S
H235 C240 0.949 . S
H236 C242 0.950 . S
H237 C243 0.950 . S
H238 C244 0.949 . S
C239 H234 0.950 . S
C239 C241 1.327 . S
C239 C245 1.429 . S
C240 C232 1.574 . S
C240 H235 0.949 . S
C240 C246 1.368 . S
C241 C225 1.349 . S
C241 H233 0.950 . S
C241 C239 1.327 . S
C242 C230 1.349 . S
C242 H236 0.950 . S
C242 C243 1.327 . S
C243 H237 0.950 . S
C243 C242 1.327 . S
C243 C247 1.429 . S
C244 C227 1.574 . S
C244 H238 0.949 . S
C244 C248 1.368 . S
C245 C226 1.429 . S
C245 C239 1.429 . S
C245 C246 1.523 . S
C246 C227 1.368 . S
C246 C240 1.368 . S
C246 C245 1.523 . S
C247 C231 1.429 . S
C247 C243 1.429 . S
C247 C248 1.523 . S
C248 C232 1.368 . S
C248 C244 1.368 . S
C248 C247 1.523 . S
H249 C224 0.950 . S
H250 C226 0.950 . S
H251 C227 0.949 . S
H252 C229 0.950 . S
H253 C231 0.950 . S
C254 C255 1.349 . S
C254 C256 1.327 . S
C254 H279 0.950 . S
C255 C254 1.349 . S
C255 C271 1.349 . S
C256 C254 1.327 . S
C256 C275 1.429 . S
C256 H280 0.950 . S
C257 C274 1.574 . S
C257 C276 1.368 . S
C257 H281 0.949 . S
H258 C262 0.949 . S
C259 C260 1.349 . S
C259 C261 1.327 . S
C259 H282 0.950 . S
C260 C259 1.349 . S
C260 C272 1.349 . S
C261 C259 1.327 . S
C261 C277 1.429 . S
C261 H283 0.950 . S
C262 H258 0.949 . S
C262 C270 1.574 . S
C262 C278 1.368 . S
H263 C271 0.950 . S
H264 C269 0.950 . S
H265 C270 0.949 . S
H266 C272 0.950 . S
H267 C273 0.950 . S
H268 C274 0.949 . S
C269 H264 0.950 . S
C269 C271 1.327 . S
C269 C275 1.429 . S
C270 C262 1.574 . S
C270 H265 0.949 . S
C270 C276 1.368 . S
C271 C255 1.349 . S
C271 H263 0.950 . S
C271 C269 1.327 . S
C272 C260 1.349 . S
C272 H266 0.950 . S
C272 C273 1.327 . S
C273 H267 0.950 . S
C273 C272 1.327 . S
C273 C277 1.429 . S
C274 C257 1.574 . S
C274 H268 0.949 . S
C274 C278 1.368 . S
C275 C256 1.429 . S
C275 C269 1.429 . S
C275 C276 1.523 . S
C276 C257 1.368 . S
C276 C270 1.368 . S
C276 C275 1.523 . S
C277 C261 1.429 . S
C277 C273 1.429 . S
C277 C278 1.523 . S
C278 C262 1.368 . S
C278 C274 1.368 . S
C278 C277 1.523 . S
H279 C254 0.950 . S
H280 C256 0.950 . S
H281 C257 0.949 . S
H282 C259 0.950 . S
H283 C261 0.950 . S
C284 C285 1.349 . S
C284 C286 1.327 . S
C284 H309 0.950 . S
C285 C284 1.349 . S
C285 C301 1.349 . S
C286 C284 1.327 . S
C286 C305 1.429 . S
C286 H310 0.950 . S
C287 C304 1.574 . S
C287 C306 1.368 . S
C287 H311 0.949 . S
H288 C292 0.949 . S
C289 C290 1.349 . S
C289 C291 1.327 . S
C289 H312 0.950 . S
C290 C289 1.349 . S
C290 C302 1.349 . S
C291 C289 1.327 . S
C291 C307 1.429 . S
C291 H313 0.950 . S
C292 H288 0.949 . S
C292 C300 1.574 . S
C292 C308 1.368 . S
H293 C301 0.950 . S
H294 C299 0.950 . S
H295 C300 0.949 . S
H296 C302 0.950 . S
H297 C303 0.950 . S
H298 C304 0.949 . S
C299 H294 0.950 . S
C299 C301 1.327 . S
C299 C305 1.429 . S
C300 C292 1.574 . S
C300 H295 0.949 . S
C300 C306 1.368 . S
C301 C285 1.349 . S
C301 H293 0.950 . S
C301 C299 1.327 . S
C302 C290 1.349 . S
C302 H296 0.950 . S
C302 C303 1.327 . S
C303 H297 0.950 . S
C303 C302 1.327 . S
C303 C307 1.429 . S
C304 C287 1.574 . S
C304 H298 0.949 . S
C304 C308 1.368 . S
C305 C286 1.429 . S
C305 C299 1.429 . S
C305 C306 1.523 . S
C306 C287 1.368 . S
C306 C300 1.368 . S
C306 C305 1.523 . S
C307 C291 1.429 . S
C307 C303 1.429 . S
C307 C308 1.523 . S
C308 C292 1.368 . S
C308 C304 1.368 . S
C308 C307 1.523 . S
H309 C284 0.950 . S
H310 C286 0.950 . S
H311 C287 0.949 . S
H312 C289 0.950 . S
H313 C291 0.950 . S
C314 C315 1.349 . S
C314 C316 1.327 . S
C314 H339 0.950 . S
C315 C314 1.349 . S
C315 C331 1.349 . S
C316 C314 1.327 . S
C316 C335 1.429 . S
C316 H340 0.950 . S
C317 C334 1.574 . S
C317 C336 1.368 . S
C317 H341 0.949 . S
H318 C322 0.949 . S
C319 C320 1.349 . S
C319 C321 1.327 . S
C319 H342 0.950 . S
C320 C319 1.349 . S
C320 C332 1.349 . S
C321 C319 1.327 . S
C321 C337 1.429 . S
C321 H343 0.950 . S
C322 H318 0.949 . S
C322 C330 1.574 . S
C322 C338 1.368 . S
H323 C331 0.950 . S
H324 C329 0.950 . S
H325 C330 0.949 . S
H326 C332 0.950 . S
H327 C333 0.950 . S
H328 C334 0.949 . S
C329 H324 0.950 . S
C329 C331 1.327 . S
C329 C335 1.429 . S
C330 C322 1.574 . S
C330 H325 0.949 . S
C330 C336 1.368 . S
C331 C315 1.349 . S
C331 H323 0.950 . S
C331 C329 1.327 . S
C332 C320 1.349 . S
C332 H326 0.950 . S
C332 C333 1.327 . S
C333 H327 0.950 . S
C333 C332 1.327 . S
C333 C337 1.429 . S
C334 C317 1.574 . S
C334 H328 0.949 . S
C334 C338 1.368 . S
C335 C316 1.429 . S
C335 C329 1.429 . S
C335 C336 1.523 . S
C336 C317 1.368 . S
C336 C330 1.368 . S
C336 C335 1.523 . S
C337 C321 1.429 . S
C337 C333 1.429 . S
C337 C338 1.523 . S
C338 C322 1.368 . S
C338 C334 1.368 . S
C338 C337 1.523 . S
H339 C314 0.950 . S
H340 C316 0.950 . S
H341 C317 0.949 . S
H342 C319 0.950 . S
H343 C321 0.950 . S
C344 C345 1.349 . S
C344 C346 1.327 . S
C344 H369 0.950 . S
C345 C344 1.349 . S
C345 C361 1.349 . S
C346 C344 1.327 . S
C346 C365 1.429 . S
C346 H370 0.950 . S
C347 C364 1.574 . S
C347 C366 1.368 . S
C347 H371 0.949 . S
H348 C352 0.949 . S
C349 C350 1.349 . S
C349 C351 1.327 . S
C349 H372 0.950 . S
C350 C349 1.349 . S
C350 C362 1.349 . S
C351 C349 1.327 . S
C351 C367 1.429 . S
C351 H373 0.950 . S
C352 H348 0.949 . S
C352 C360 1.574 . S
C352 C368 1.368 . S
H353 C361 0.950 . S
H354 C359 0.950 . S
H355 C360 0.949 . S
H356 C362 0.950 . S
H357 C363 0.950 . S
H358 C364 0.949 . S
C359 H354 0.950 . S
C359 C361 1.327 . S
C359 C365 1.429 . S
C360 C352 1.574 . S
C360 H355 0.949 . S
C360 C366 1.368 . S
C361 C345 1.349 . S
C361 H353 0.950 . S
C361 C359 1.327 . S
C362 C350 1.349 . S
C362 H356 0.950 . S
C362 C363 1.327 . S
C363 H357 0.950 . S
C363 C362 1.327 . S
C363 C367 1.429 . S
C364 C347 1.574 . S
C364 H358 0.949 . S
C364 C368 1.368 . S
C365 C346 1.429 . S
C365 C359 1.429 . S
C365 C366 1.523 . S
C366 C347 1.368 . S
C366 C360 1.368 . S
C366 C365 1.523 . S
C367 C351 1.429 . S
C367 C363 1.429 . S
C367 C368 1.523 . S
C368 C352 1.368 . S
C368 C364 1.368 . S
C368 C367 1.523 . S
H369 C344 0.950 . S
H370 C346 0.950 . S
H371 C347 0.949 . S
H372 C349 0.950 . S
H373 C351 0.950 . S
C374 C375 1.349 . S
C374 C376 1.327 . S
C374 H399 0.950 . S
C375 C374 1.349 . S
C375 C391 1.349 . S
C376 C374 1.327 . S
C376 C395 1.429 . S
C376 H400 0.950 . S
C377 C394 1.574 . S
C377 C396 1.368 . S
C377 H401 0.949 . S
H378 C382 0.949 . S
C379 C380 1.349 . S
C379 C381 1.327 . S
C379 H402 0.950 . S
C380 C379 1.349 . S
C380 C392 1.349 . S
C381 C379 1.327 . S
C381 C397 1.429 . S
C381 H403 0.950 . S
C382 H378 0.949 . S
C382 C390 1.574 . S
C382 C398 1.368 . S
H383 C391 0.950 . S
H384 C389 0.950 . S
H385 C390 0.949 . S
H386 C392 0.950 . S
H387 C393 0.950 . S
H388 C394 0.949 . S
C389 H384 0.950 . S
C389 C391 1.327 . S
C389 C395 1.429 . S
C390 C382 1.574 . S
C390 H385 0.949 . S
C390 C396 1.368 . S
C391 C375 1.349 . S
C391 H383 0.950 . S
C391 C389 1.327 . S
C392 C380 1.349 . S
C392 H386 0.950 . S
C392 C393 1.327 . S
C393 H387 0.950 . S
C393 C392 1.327 . S
C393 C397 1.429 . S
C394 C377 1.574 . S
C394 H388 0.949 . S
C394 C398 1.368 . S
C395 C376 1.429 . S
C395 C389 1.429 . S
C395 C396 1.523 . S
C396 C377 1.368 . S
C396 C390 1.368 . S
C396 C395 1.523 . S
C397 C381 1.429 . S
C397 C393 1.429 . S
C397 C398 1.523 . S
C398 C382 1.368 . S
C398 C394 1.368 . S
C398 C397 1.523 . S
H399 C374 0.950 . S
H400 C376 0.950 . S
H401 C377 0.949 . S
H402 C379 0.950 . S
H403 C381 0.950 . S
C404 C405 1.349 . S
C404 C406 1.327 . S
C404 H429 0.950 . S
C405 C404 1.349 . S
C405 C421 1.349 . S
C406 C404 1.327 . S
C406 C425 1.429 . S
C406 H430 0.950 . S
C407 C424 1.574 . S
C407 C426 1.368 . S
C407 H431 0.949 . S
H408 C412 0.949 . S
C409 C410 1.349 . S
C409 C411 1.327 . S
C409 H432 0.950 . S
C410 C409 1.349 . S
C410 C422 1.349 . S
C411 C409 1.327 . S
C411 C427 1.429 . S
C411 H433 0.950 . S
C412 H408 0.949 . S
C412 C420 1.574 . S
C412 C428 1.368 . S
H413 C421 0.950 . S
H414 C419 0.950 . S
H415 C420 0.949 . S
H416 C422 0.950 . S
H417 C423 0.950 . S
H418 C424 0.949 . S
C419 H414 0.950 . S
C419 C421 1.327 . S
C419 C425 1.429 . S
C420 C412 1.574 . S
C420 H415 0.949 . S
C420 C426 1.368 . S
C421 C405 1.349 . S
C421 H413 0.950 . S
C421 C419 1.327 . S
C422 C410 1.349 . S
C422 H416 0.950 . S
C422 C423 1.327 . S
C423 H417 0.950 . S
C423 C422 1.327 . S
C423 C427 1.429 . S
C424 C407 1.574 . S
C424 H418 0.949 . S
C424 C428 1.368 . S
C425 C406 1.429 . S
C425 C419 1.429 . S
C425 C426 1.523 . S
C426 C407 1.368 . S
C426 C420 1.368 . S
C426 C425 1.523 . S
C427 C411 1.429 . S
C427 C423 1.429 . S
C427 C428 1.523 . S
C428 C412 1.368 . S
C428 C424 1.368 . S
C428 C427 1.523 . S
H429 C404 0.950 . S
H430 C406 0.950 . S
H431 C407 0.949 . S
H432 C409 0.950 . S
H433 C411 0.950 . S
C434 C435 1.349 . S
C434 C436 1.327 . S
C434 H459 0.950 . S
C435 C434 1.349 . S
C435 C451 1.349 . S
C436 C434 1.327 . S
C436 C455 1.429 . S
C436 H460 0.950 . S
C437 C454 1.574 . S
C437 C456 1.368 . S
C437 H461 0.949 . S
H438 C442 0.949 . S
C439 C440 1.349 . S
C439 C441 1.327 . S
C439 H462 0.950 . S
C440 C439 1.349 . S
C440 C452 1.349 . S
C441 C439 1.327 . S
C441 C457 1.429 . S
C441 H463 0.950 . S
C442 H438 0.949 . S
C442 C450 1.574 . S
C442 C458 1.368 . S
H443 C451 0.950 . S
H444 C449 0.950 . S
H445 C450 0.949 . S
H446 C452 0.950 . S
H447 C453 0.950 . S
H448 C454 0.949 . S
C449 H444 0.950 . S
C449 C451 1.327 . S
C449 C455 1.429 . S
C450 C442 1.574 . S
C450 H445 0.949 . S
C450 C456 1.368 . S
C451 C435 1.349 . S
C451 H443 0.950 . S
C451 C449 1.327 . S
C452 C440 1.349 . S
C452 H446 0.950 . S
C452 C453 1.327 . S
C453 H447 0.950 . S
C453 C452 1.327 . S
C453 C457 1.429 . S
C454 C437 1.574 . S
C454 H448 0.949 . S
C454 C458 1.368 . S
C455 C436 1.429 . S
C455 C449 1.429 . S
C455 C456 1.523 . S
C456 C437 1.368 . S
C456 C450 1.368 . S
C456 C455 1.523 . S
C457 C441 1.429 . S
C457 C453 1.429 . S
C457 C458 1.523 . S
C458 C442 1.368 . S
C458 C454 1.368 . S
C458 C457 1.523 . S
H459 C434 0.950 . S
H460 C436 0.950 . S
H461 C437 0.949 . S
H462 C439 0.950 . S
H463 C441 0.950 . S
C464 C465 1.349 . S
C464 C466 1.327 . S
C464 H489 0.950 . S
C465 C464 1.349 . S
C465 C481 1.349 . S
C466 C464 1.327 . S
C466 C485 1.429 . S
C466 H490 0.950 . S
C467 C484 1.574 . S
C467 C486 1.368 . S
C467 H491 0.949 . S
H468 C472 0.949 . S
C469 C470 1.349 . S
C469 C471 1.327 . S
C469 H492 0.950 . S
C470 C469 1.349 . S
C470 C482 1.349 . S
C471 C469 1.327 . S
C471 C487 1.429 . S
C471 H493 0.950 . S
C472 H468 0.949 . S
C472 C480 1.574 . S
C472 C488 1.368 . S
H473 C481 0.950 . S
H474 C479 0.950 . S
H475 C480 0.949 . S
H476 C482 0.950 . S
H477 C483 0.950 . S
H478 C484 0.949 . S
C479 H474 0.950 . S
C479 C481 1.327 . S
C479 C485 1.429 . S
C480 C472 1.574 . S
C480 H475 0.949 . S
C480 C486 1.368 . S
C481 C465 1.349 . S
C481 H473 0.950 . S
C481 C479 1.327 . S
C482 C470 1.349 . S
C482 H476 0.950 . S
C482 C483 1.327 . S
C483 H477 0.950 . S
C483 C482 1.327 . S
C483 C487 1.429 . S
C484 C467 1.574 . S
C484 H478 0.949 . S
C484 C488 1.368 . S
C485 C466 1.429 . S
C485 C479 1.429 . S
C485 C486 1.523 . S
C486 C467 1.368 . S
C486 C480 1.368 . S
C486 C485 1.523 . S
C487 C471 1.429 . S
C487 C483 1.429 . S
C487 C488 1.523 . S
C488 C472 1.368 . S
C488 C484 1.368 . S
C488 C487 1.523 . S
H489 C464 0.950 . S
H490 C466 0.950 . S
H491 C467 0.949 . S
H492 C469 0.950 . S
H493 C471 0.950 . S
C494 C495 1.349 . S
C494 C496 1.327 . S
C494 H519 0.950 . S
C495 C494 1.349 . S
C495 C511 1.349 . S
C496 C494 1.327 . S
C496 C515 1.429 . S
C496 H520 0.950 . S
C497 C514 1.574 . S
C497 C516 1.368 . S
C497 H521 0.949 . S
H498 C502 0.949 . S
C499 C500 1.349 . S
C499 C501 1.327 . S
C499 H522 0.950 . S
C500 C499 1.349 . S
C500 C512 1.349 . S
C501 C499 1.327 . S
C501 C517 1.429 . S
C501 H523 0.950 . S
C502 H498 0.949 . S
C502 C510 1.574 . S
C502 C518 1.368 . S
H503 C511 0.950 . S
H504 C509 0.950 . S
H505 C510 0.949 . S
H506 C512 0.950 . S
H507 C513 0.950 . S
H508 C514 0.949 . S
C509 H504 0.950 . S
C509 C511 1.327 . S
C509 C515 1.429 . S
C510 C502 1.574 . S
C510 H505 0.949 . S
C510 C516 1.368 . S
C511 C495 1.349 . S
C511 H503 0.950 . S
C511 C509 1.327 . S
C512 C500 1.349 . S
C512 H506 0.950 . S
C512 C513 1.327 . S
C513 H507 0.950 . S
C513 C512 1.327 . S
C513 C517 1.429 . S
C514 C497 1.574 . S
C514 H508 0.949 . S
C514 C518 1.368 . S
C515 C496 1.429 . S
C515 C509 1.429 . S
C515 C516 1.523 . S
C516 C497 1.368 . S
C516 C510 1.368 . S
C516 C515 1.523 . S
C517 C501 1.429 . S
C517 C513 1.429 . S
C517 C518 1.523 . S
C518 C502 1.368 . S
C518 C514 1.368 . S
C518 C517 1.523 . S
H519 C494 0.950 . S
H520 C496 0.950 . S
H521 C497 0.949 . S
H522 C499 0.950 . S
H523 C501 0.950 . S
C524 C525 1.349 . S
C524 C526 1.327 . S
C524 H549 0.950 . S
C525 C524 1.349 . S
C525 C541 1.349 . S
C526 C524 1.327 . S
C526 C545 1.429 . S
C526 H550 0.950 . S
C527 C544 1.574 . S
C527 C546 1.368 . S
C527 H551 0.949 . S
H528 C532 0.949 . S
C529 C530 1.349 . S
C529 C531 1.327 . S
C529 H552 0.950 . S
C530 C529 1.349 . S
C530 C542 1.349 . S
C531 C529 1.327 . S
C531 C547 1.429 . S
C531 H553 0.950 . S
C532 H528 0.949 . S
C532 C540 1.574 . S
C532 C548 1.368 . S
H533 C541 0.950 . S
H534 C539 0.950 . S
H535 C540 0.949 . S
H536 C542 0.950 . S
H537 C543 0.950 . S
H538 C544 0.949 . S
C539 H534 0.950 . S
C539 C541 1.327 . S
C539 C545 1.429 . S
C540 C532 1.574 . S
C540 H535 0.949 . S
C540 C546 1.368 . S
C541 C525 1.349 . S
C541 H533 0.950 . S
C541 C539 1.327 . S
C542 C530 1.349 . S
C542 H536 0.950 . S
C542 C543 1.327 . S
C543 H537 0.950 . S
C543 C542 1.327 . S
C543 C547 1.429 . S
C544 C527 1.574 . S
C544 H538 0.949 . S
C544 C548 1.368 . S
C545 C526 1.429 . S
C545 C539 1.429 . S
C545 C546 1.523 . S
C546 C527 1.368 . S
C546 C540 1.368 . S
C546 C545 1.523 . S
C547 C531 1.429 . S
C547 C543 1.429 . S
C547 C548 1.523 . S
C548 C532 1.368 . S
C548 C544 1.368 . S
C548 C547 1.523 . S
H549 C524 0.950 . S
H550 C526 0.950 . S
H551 C527 0.949 . S
H552 C529 0.950 . S
H553 C531 0.950 . S
C554 C555 1.349 . S
C554 C556 1.327 . S
C554 H579 0.950 . S
C555 C554 1.349 . S
C555 C571 1.349 . S
C556 C554 1.327 . S
C556 C575 1.429 . S
C556 H580 0.950 . S
C557 C574 1.574 . S
C557 C576 1.368 . S
C557 H581 0.949 . S
H558 C562 0.949 . S
C559 C560 1.349 . S
C559 C561 1.327 . S
C559 H582 0.950 . S
C560 C559 1.349 . S
C560 C572 1.349 . S
C561 C559 1.327 . S
C561 C577 1.429 . S
C561 H583 0.950 . S
C562 H558 0.949 . S
C562 C570 1.574 . S
C562 C578 1.368 . S
H563 C571 0.950 . S
H564 C569 0.950 . S
H565 C570 0.949 . S
H566 C572 0.950 . S
H567 C573 0.950 . S
H568 C574 0.949 . S
C569 H564 0.950 . S
C569 C571 1.327 . S
C569 C575 1.429 . S
C570 C562 1.574 . S
C570 H565 0.949 . S
C570 C576 1.368 . S
C571 C555 1.349 . S
C571 H563 0.950 . S
C571 C569 1.327 . S
C572 C560 1.349 . S
C572 H566 0.950 . S
C572 C573 1.327 . S
C573 H567 0.950 . S
C573 C572 1.327 . S
C573 C577 1.429 . S
C574 C557 1.574 . S
C574 H568 0.949 . S
C574 C578 1.368 . S
C575 C556 1.429 . S
C575 C569 1.429 . S
C575 C576 1.523 . S
C576 C557 1.368 . S
C576 C570 1.368 . S
C576 C575 1.523 . S
C577 C561 1.429 . S
C577 C573 1.429 . S
C577 C578 1.523 . S
C578 C562 1.368 . S
C578 C574 1.368 . S
C578 C577 1.523 . S
H579 C554 0.950 . S
H580 C556 0.950 . S
H581 C557 0.949 . S
H582 C559 0.950 . S
H583 C561 0.950 . S
C584 C585 1.349 . S
C584 C586 1.327 . S
C584 H609 0.950 . S
C585 C584 1.349 . S
C585 C601 1.349 . S
C586 C584 1.327 . S
C586 C605 1.429 . S
C586 H610 0.950 . S
C587 C604 1.574 . S
C587 C606 1.368 . S
C587 H611 0.949 . S
H588 C592 0.949 . S
C589 C590 1.349 . S
C589 C591 1.327 . S
C589 H612 0.950 1_565 S
C590 C589 1.349 . S
C590 C602 1.349 . S
C591 C589 1.327 . S
C591 C607 1.429 . S
C591 H613 0.950 1_565 S
C592 H588 0.949 . S
C592 C600 1.574 . S
C592 C608 1.368 . S
H593 C601 0.950 . S
H594 C599 0.950 . S
H595 C600 0.949 . S
H596 C602 0.950 . S
H597 C603 0.950 . S
H598 C604 0.946 1_545 S
C599 H594 0.950 . S
C599 C601 1.327 . S
C599 C605 1.429 . S
C600 C592 1.574 . S
C600 H595 0.949 . S
C600 C606 1.368 . S
C601 C585 1.349 . S
C601 H593 0.950 . S
C601 C599 1.327 . S
C602 C590 1.349 . S
C602 H596 0.950 . S
C602 C603 1.327 . S
C603 H597 0.950 . S
C603 C602 1.327 . S
C603 C607 1.429 . S
C604 C587 1.574 . S
C604 H598 0.946 1_565 S
C604 C608 1.368 . S
C605 C586 1.429 . S
C605 C599 1.429 . S
C605 C606 1.523 . S
C606 C587 1.368 . S
C606 C600 1.368 . S
C606 C605 1.523 . S
C607 C591 1.429 . S
C607 C603 1.429 . S
C607 C608 1.523 . S
C608 C592 1.368 . S
C608 C604 1.368 . S
C608 C607 1.523 . S
H609 C584 0.950 . S
H610 C586 0.950 . S
H611 C587 0.949 . S
H612 C589 0.950 1_545 S
H613 C591 0.950 1_545 S
C614 C615 1.349 . S
C614 C616 1.327 . S
C614 H639 0.950 . S
C615 C614 1.349 . S
C615 C631 1.349 . S
C616 C614 1.327 . S
C616 C635 1.429 . S
C616 H640 0.950 . S
C617 C634 1.574 . S
C617 C636 1.368 . S
C617 H641 0.949 . S
H618 C622 0.949 . S
C619 C620 1.349 . S
C619 C621 1.327 . S
C619 H642 0.950 . S
C620 C619 1.349 . S
C620 C632 1.349 . S
C621 C619 1.327 . S
C621 C637 1.429 . S
C621 H643 0.950 . S
C622 H618 0.949 . S
C622 C630 1.574 . S
C622 C638 1.368 . S
H623 C631 0.950 . S
H624 C629 0.950 . S
H625 C630 0.949 . S
H626 C632 0.950 . S
H627 C633 0.950 . S
H628 C634 0.949 . S
C629 H624 0.950 . S
C629 C631 1.327 . S
C629 C635 1.429 . S
C630 C622 1.574 . S
C630 H625 0.949 . S
C630 C636 1.368 . S
C631 C615 1.349 . S
C631 H623 0.950 . S
C631 C629 1.327 . S
C632 C620 1.349 . S
C632 H626 0.950 . S
C632 C633 1.327 . S
C633 H627 0.950 . S
C633 C632 1.327 . S
C633 C637 1.429 . S
C634 C617 1.574 . S
C634 H628 0.949 . S
C634 C638 1.368 . S
C635 C616 1.429 . S
C635 C629 1.429 . S
C635 C636 1.523 . S
C636 C617 1.368 . S
C636 C630 1.368 . S
C636 C635 1.523 . S
C637 C621 1.429 . S
C637 C633 1.429 . S
C637 C638 1.523 . S
C638 C622 1.368 . S
C638 C634 1.368 . S
C638 C637 1.523 . S
H639 C614 0.950 . S
H640 C616 0.950 . S
H641 C617 0.949 . S
H642 C619 0.950 . S
H643 C621 0.950 . S
C644 C645 1.349 . S
C644 C646 1.327 . S
C644 H669 0.950 . S
C645 C644 1.349 . S
C645 C661 1.349 . S
C646 C644 1.327 . S
C646 C665 1.429 . S
C646 H670 0.950 . S
C647 C664 1.574 . S
C647 C666 1.368 . S
C647 H671 0.949 . S
H648 C652 0.949 . S
C649 C650 1.349 . S
C649 C651 1.327 . S
C649 H672 0.950 . S
C650 C649 1.349 . S
C650 C662 1.349 . S
C651 C649 1.327 . S
C651 C667 1.429 . S
C651 H673 0.950 . S
C652 H648 0.949 . S
C652 C660 1.574 . S
C652 C668 1.368 . S
H653 C661 0.950 . S
H654 C659 0.950 . S
H655 C660 0.949 . S
H656 C662 0.950 . S
H657 C663 0.950 . S
H658 C664 0.949 . S
C659 H654 0.950 . S
C659 C661 1.327 . S
C659 C665 1.429 . S
C660 C652 1.574 . S
C660 H655 0.949 . S
C660 C666 1.368 . S
C661 C645 1.349 . S
C661 H653 0.950 . S
C661 C659 1.327 . S
C662 C650 1.349 . S
C662 H656 0.950 . S
C662 C663 1.327 . S
C663 H657 0.950 . S
C663 C662 1.327 . S
C663 C667 1.429 . S
C664 C647 1.574 . S
C664 H658 0.949 . S
C664 C668 1.368 . S
C665 C646 1.429 . S
C665 C659 1.429 . S
C665 C666 1.523 . S
C666 C647 1.368 . S
C666 C660 1.368 . S
C666 C665 1.523 . S
C667 C651 1.429 . S
C667 C663 1.429 . S
C667 C668 1.523 . S
C668 C652 1.368 . S
C668 C664 1.368 . S
C668 C667 1.523 . S
H669 C644 0.950 . S
H670 C646 0.950 . S
H671 C647 0.949 . S
H672 C649 0.950 . S
H673 C651 0.950 . S
C674 C675 1.349 . S
C674 C676 1.327 . S
C674 H699 0.950 . S
C675 C674 1.349 . S
C675 C691 1.349 . S
C676 C674 1.327 . S
C676 C695 1.429 . S
C676 H700 0.950 . S
C677 C694 1.574 . S
C677 C696 1.368 . S
C677 H701 0.949 . S
H678 C682 0.949 . S
C679 C680 1.349 . S
C679 C681 1.327 . S
C679 H702 0.950 . S
C680 C679 1.349 . S
C680 C692 1.349 . S
C681 C679 1.327 . S
C681 C697 1.429 . S
C681 H703 0.950 . S
C682 H678 0.949 . S
C682 C690 1.574 . S
C682 C698 1.368 . S
H683 C691 0.950 . S
H684 C689 0.950 . S
H685 C690 0.949 . S
H686 C692 0.950 . S
H687 C693 0.950 . S
H688 C694 0.949 . S
C689 H684 0.950 . S
C689 C691 1.327 . S
C689 C695 1.429 . S
C690 C682 1.574 . S
C690 H685 0.949 . S
C690 C696 1.368 . S
C691 C675 1.349 . S
C691 H683 0.950 . S
C691 C689 1.327 . S
C692 C680 1.349 . S
C692 H686 0.950 . S
C692 C693 1.327 . S
C693 H687 0.950 . S
C693 C692 1.327 . S
C693 C697 1.429 . S
C694 C677 1.574 . S
C694 H688 0.949 . S
C694 C698 1.368 . S
C695 C676 1.429 . S
C695 C689 1.429 . S
C695 C696 1.523 . S
C696 C677 1.368 . S
C696 C690 1.368 . S
C696 C695 1.523 . S
C697 C681 1.429 . S
C697 C693 1.429 . S
C697 C698 1.523 . S
C698 C682 1.368 . S
C698 C694 1.368 . S
C698 C697 1.523 . S
H699 C674 0.950 . S
H700 C676 0.950 . S
H701 C677 0.949 . S
H702 C679 0.950 . S
H703 C681 0.950 . S
C704 C705 1.349 . S
C704 C706 1.327 . S
C704 H729 0.950 . S
C705 C704 1.349 . S
C705 C721 1.349 . S
C706 C704 1.327 . S
C706 C725 1.429 . S
C706 H730 0.950 . S
C707 C724 1.574 . S
C707 C726 1.368 . S
C707 H731 0.949 . S
H708 C712 0.949 . S
C709 C710 1.349 . S
C709 C711 1.327 . S
C709 H732 0.950 . S
C710 C709 1.349 . S
C710 C722 1.349 . S
C711 C709 1.327 . S
C711 C727 1.429 . S
C711 H733 0.950 . S
C712 H708 0.949 . S
C712 C720 1.574 . S
C712 C728 1.368 . S
H713 C721 0.950 1_545 S
H714 C719 0.960 . S
H715 C720 0.949 . S
H716 C722 0.950 . S
H717 C723 0.950 . S
H718 C724 0.949 . S
C719 H714 0.960 . S
C719 C721 1.327 . S
C719 C725 1.429 . S
C720 C712 1.574 . S
C720 H715 0.949 . S
C720 C726 1.368 . S
C721 C705 1.349 . S
C721 H713 0.950 1_565 S
C721 C719 1.327 . S
C722 C710 1.349 . S
C722 H716 0.950 . S
C722 C723 1.327 . S
C723 H717 0.950 . S
C723 C722 1.327 . S
C723 C727 1.429 . S
C724 C707 1.574 . S
C724 H718 0.949 . S
C724 C728 1.368 . S
C725 C706 1.429 . S
C725 C719 1.429 . S
C725 C726 1.523 . S
C726 C707 1.368 . S
C726 C720 1.368 . S
C726 C725 1.523 . S
C727 C711 1.429 . S
C727 C723 1.429 . S
C727 C728 1.523 . S
C728 C712 1.368 . S
C728 C724 1.368 . S
C728 C727 1.523 . S
H729 C704 0.950 . S
H730 C706 0.950 . S
H731 C707 0.949 . S
H732 C709 0.950 . S
H733 C711 0.950 . S
C734 C735 1.349 . S
C734 C736 1.327 . S
C734 H759 0.950 . S
C735 C734 1.349 . S
C735 C751 1.349 . S
C736 C734 1.327 . S
C736 C755 1.429 . S
C736 H760 0.950 . S
C737 C754 1.574 . S
C737 C756 1.368 . S
C737 H761 0.949 . S
H738 C742 0.949 . S
C739 C740 1.349 . S
C739 C741 1.327 . S
C739 H762 0.950 . S
C740 C739 1.349 . S
C740 C752 1.349 . S
C741 C739 1.327 . S
C741 C757 1.429 . S
C741 H763 0.950 . S
C742 H738 0.949 . S
C742 C750 1.574 . S
C742 C758 1.368 . S
H743 C751 0.950 . S
H744 C749 0.950 . S
H745 C750 0.949 . S
H746 C752 0.950 . S
H747 C753 0.950 . S
H748 C754 0.949 . S
C749 H744 0.950 . S
C749 C751 1.327 . S
C749 C755 1.429 . S
C750 C742 1.574 . S
C750 H745 0.949 . S
C750 C756 1.368 . S
C751 C735 1.349 . S
C751 H743 0.950 . S
C751 C749 1.327 . S
C752 C740 1.349 . S
C752 H746 0.950 . S
C752 C753 1.327 . S
C753 H747 0.950 . S
C753 C752 1.327 . S
C753 C757 1.429 . S
C754 C737 1.574 . S
C754 H748 0.949 . S
C754 C758 1.368 . S
C755 C736 1.429 . S
C755 C749 1.429 . S
C755 C756 1.523 . S
C756 C737 1.368 . S
C756 C750 1.368 . S
C756 C755 1.523 . S
C757 C741 1.429 . S
C757 C753 1.429 . S
C757 C758 1.523 . S
C758 C742 1.368 . S
C758 C754 1.368 . S
C758 C757 1.523 . S
H759 C734 0.950 . S
H760 C736 0.950 . S
H761 C737 0.949 . S
H762 C739 0.950 . S
H763 C741 0.950 . S
C764 C765 1.349 . S
C764 C766 1.327 . S
C764 H789 0.950 . S
C765 C764 1.349 . S
C765 C781 1.349 . S
C766 C764 1.327 . S
C766 C785 1.429 . S
C766 H790 0.950 . S
C767 C784 1.574 . S
C767 C786 1.368 . S
C767 H791 0.949 . S
H768 C772 0.949 . S
C769 C770 1.349 . S
C769 C771 1.327 . S
C769 H792 0.950 . S
C770 C769 1.349 . S
C770 C782 1.349 . S
C771 C769 1.327 . S
C771 C787 1.429 . S
C771 H793 0.950 . S
C772 H768 0.949 . S
C772 C780 1.574 . S
C772 C788 1.368 . S
H773 C781 0.950 . S
H774 C779 0.950 . S
H775 C780 0.949 . S
H776 C782 0.950 . S
H777 C783 0.950 . S
H778 C784 0.949 . S
C779 H774 0.950 . S
C779 C781 1.327 . S
C779 C785 1.429 . S
C780 C772 1.574 . S
C780 H775 0.949 . S
C780 C786 1.368 . S
C781 C765 1.349 . S
C781 H773 0.950 . S
C781 C779 1.327 . S
C782 C770 1.349 . S
C782 H776 0.950 . S
C782 C783 1.327 . S
C783 H777 0.950 . S
C783 C782 1.327 . S
C783 C787 1.429 . S
C784 C767 1.574 . S
C784 H778 0.949 . S
C784 C788 1.368 . S
C785 C766 1.429 . S
C785 C779 1.429 . S
C785 C786 1.523 . S
C786 C767 1.368 . S
C786 C780 1.368 . S
C786 C785 1.523 . S
C787 C771 1.429 . S
C787 C783 1.429 . S
C787 C788 1.523 . S
C788 C772 1.368 . S
C788 C784 1.368 . S
C788 C787 1.523 . S
H789 C764 0.950 . S
H790 C766 0.950 . S
H791 C767 0.949 . S
H792 C769 0.950 . S
H793 C771 0.950 . S
C794 C795 1.349 . S
C794 C796 1.327 . S
C794 H819 0.950 . S
C795 C794 1.349 . S
C795 C811 1.349 . S
C796 C794 1.327 . S
C796 C815 1.429 . S
C796 H820 0.950 . S
C797 C814 1.574 . S
C797 C816 1.368 . S
C797 H821 0.949 . S
H798 C802 0.949 . S
C799 C800 1.349 . S
C799 C801 1.327 . S
C799 H822 0.950 . S
C800 C799 1.349 . S
C800 C812 1.349 . S
C801 C799 1.327 . S
C801 C817 1.429 . S
C801 H823 0.950 . S
C802 H798 0.949 . S
C802 C810 1.574 . S
C802 C818 1.368 . S
H803 C811 0.950 . S
H804 C809 0.950 . S
H805 C810 0.949 . S
H806 C812 0.950 . S
H807 C813 0.950 . S
H808 C814 0.949 . S
C809 H804 0.950 . S
C809 C811 1.327 . S
C809 C815 1.429 . S
C810 C802 1.574 . S
C810 H805 0.949 . S
C810 C816 1.368 . S
C811 C795 1.349 . S
C811 H803 0.950 . S
C811 C809 1.327 . S
C812 C800 1.349 . S
C812 H806 0.950 . S
C812 C813 1.327 . S
C813 H807 0.950 . S
C813 C812 1.327 . S
C813 C817 1.429 . S
C814 C797 1.574 . S
C814 H808 0.949 . S
C814 C818 1.368 . S
C815 C796 1.429 . S
C815 C809 1.429 . S
C815 C816 1.523 . S
C816 C797 1.368 . S
C816 C810 1.368 . S
C816 C815 1.523 . S
C817 C801 1.429 . S
C817 C813 1.429 . S
C817 C818 1.523 . S
C818 C802 1.368 . S
C818 C814 1.368 . S
C818 C817 1.523 . S
H819 C794 0.950 . S
H820 C796 0.950 . S
H821 C797 0.949 . S
H822 C799 0.950 . S
H823 C801 0.950 . S
C824 C825 1.349 . S
C824 C826 1.327 . S
C824 H849 0.950 . S
C825 C824 1.349 . S
C825 C841 1.349 . S
C826 C824 1.327 . S
C826 C845 1.429 . S
C826 H850 0.950 . S
C827 C844 1.574 . S
C827 C846 1.368 . S
C827 H851 0.949 . S
H828 C832 0.949 . S
C829 C830 1.349 . S
C829 C831 1.327 . S
C829 H852 0.950 . S
C830 C829 1.349 . S
C830 C842 1.349 . S
C831 C829 1.327 . S
C831 C847 1.429 . S
C831 H853 0.950 . S
C832 H828 0.949 . S
C832 C840 1.574 . S
C832 C848 1.368 . S
H833 C841 0.950 . S
H834 C839 0.950 . S
H835 C840 0.949 . S
H836 C842 0.950 . S
H837 C843 0.950 . S
H838 C844 0.949 . S
C839 H834 0.950 . S
C839 C841 1.327 . S
C839 C845 1.429 . S
C840 C832 1.574 . S
C840 H835 0.949 . S
C840 C846 1.368 . S
C841 C825 1.349 . S
C841 H833 0.950 . S
C841 C839 1.327 . S
C842 C830 1.349 . S
C842 H836 0.950 . S
C842 C843 1.327 . S
C843 H837 0.950 . S
C843 C842 1.327 . S
C843 C847 1.429 . S
C844 C827 1.574 . S
C844 H838 0.949 . S
C844 C848 1.368 . S
C845 C826 1.429 . S
C845 C839 1.429 . S
C845 C846 1.523 . S
C846 C827 1.368 . S
C846 C840 1.368 . S
C846 C845 1.523 . S
C847 C831 1.429 . S
C847 C843 1.429 . S
C847 C848 1.523 . S
C848 C832 1.368 . S
C848 C844 1.368 . S
C848 C847 1.523 . S
H849 C824 0.950 . S
H850 C826 0.950 . S
H851 C827 0.949 . S
H852 C829 0.950 . S
H853 C831 0.950 . S
C854 C855 1.349 . S
C854 C856 1.327 . S
C854 H879 0.950 . S
C855 C854 1.349 . S
C855 C871 1.349 . S
C856 C854 1.327 . S
C856 C875 1.429 . S
C856 H880 0.950 . S
C857 C874 1.574 . S
C857 C876 1.368 . S
C857 H881 0.949 . S
H858 C862 0.949 . S
C859 C860 1.349 . S
C859 C861 1.327 . S
C859 H882 0.950 . S
C860 C859 1.349 . S
C860 C872 1.349 . S
C861 C859 1.327 . S
C861 C877 1.429 . S
C861 H883 0.950 . S
C862 H858 0.949 . S
C862 C870 1.574 . S
C862 C878 1.368 . S
H863 C871 0.950 . S
H864 C869 0.950 . S
H865 C870 0.949 . S
H866 C872 0.950 . S
H867 C873 0.950 . S
H868 C874 0.949 . S
C869 H864 0.950 . S
C869 C871 1.327 . S
C869 C875 1.429 . S
C870 C862 1.574 . S
C870 H865 0.949 . S
C870 C876 1.368 . S
C871 C855 1.349 . S
C871 H863 0.950 . S
C871 C869 1.327 . S
C872 C860 1.349 . S
C872 H866 0.950 . S
C872 C873 1.327 . S
C873 H867 0.950 . S
C873 C872 1.327 . S
C873 C877 1.429 . S
C874 C857 1.574 . S
C874 H868 0.949 . S
C874 C878 1.368 . S
C875 C856 1.429 . S
C875 C869 1.429 . S
C875 C876 1.523 . S
C876 C857 1.368 . S
C876 C870 1.368 . S
C876 C875 1.523 . S
C877 C861 1.429 . S
C877 C873 1.429 . S
C877 C878 1.523 . S
C878 C862 1.368 . S
C878 C874 1.368 . S
C878 C877 1.523 . S
H879 C854 0.950 . S
H880 C856 0.950 . S
H881 C857 0.949 . S
H882 C859 0.950 . S
H883 C861 0.950 . S
C884 C885 1.349 . S
C884 C886 1.327 . S
C884 H909 0.950 . S
C885 C884 1.349 . S
C885 C901 1.349 . S
C886 C884 1.327 . S
C886 C905 1.429 . S
C886 H910 0.950 . S
C887 C904 1.574 . S
C887 C906 1.368 . S
C887 H911 0.949 . S
H888 C892 0.949 . S
C889 C890 1.349 . S
C889 C891 1.327 . S
C889 H912 0.950 . S
C890 C889 1.349 . S
C890 C902 1.349 . S
C891 C889 1.327 . S
C891 C907 1.429 . S
C891 H913 0.950 . S
C892 H888 0.949 . S
C892 C900 1.574 . S
C892 C908 1.368 . S
H893 C901 0.950 . S
H894 C899 0.950 . S
H895 C900 0.949 . S
H896 C902 0.950 . S
H897 C903 0.950 . S
H898 C904 0.949 . S
C899 H894 0.950 . S
C899 C901 1.327 . S
C899 C905 1.429 . S
C900 C892 1.574 . S
C900 H895 0.949 . S
C900 C906 1.368 . S
C901 C885 1.349 . S
C901 H893 0.950 . S
C901 C899 1.327 . S
C902 C890 1.349 . S
C902 H896 0.950 . S
C902 C903 1.327 . S
C903 H897 0.950 . S
C903 C902 1.327 . S
C903 C907 1.429 . S
C904 C887 1.574 . S
C904 H898 0.949 . S
C904 C908 1.368 . S
C905 C886 1.429 . S
C905 C899 1.429 . S
C905 C906 1.523 . S
C906 C887 1.368 . S
C906 C900 1.368 . S
C906 C905 1.523 . S
C907 C891 1.429 . S
C907 C903 1.429 . S
C907 C908 1.523 . S
C908 C892 1.368 . S
C908 C904 1.368 . S
C908 C907 1.523 . S
H909 C884 0.950 . S
H910 C886 0.950 . S
H911 C887 0.949 . S
H912 C889 0.950 . S
H913 C891 0.950 . S
C914 C915 1.349 . S
C914 C916 1.327 . S
C914 H939 0.950 . S
C915 C914 1.349 . S
C915 C931 1.349 . S
C916 C914 1.327 . S
C916 C935 1.429 . S
C916 H940 0.950 . S
C917 C934 1.574 . S
C917 C936 1.368 . S
C917 H941 0.949 . S
H918 C922 0.949 . S
C919 C920 1.349 . S
C919 C921 1.327 . S
C919 H942 0.950 . S
C920 C919 1.349 . S
C920 C932 1.349 . S
C921 C919 1.327 . S
C921 C937 1.429 . S
C921 H943 0.950 . S
C922 H918 0.949 . S
C922 C930 1.574 . S
C922 C938 1.368 . S
H923 C931 0.950 . S
H924 C929 0.950 . S
H925 C930 0.949 . S
H926 C932 0.950 . S
H927 C933 0.950 . S
H928 C934 0.949 . S
C929 H924 0.950 . S
C929 C931 1.327 . S
C929 C935 1.429 . S
C930 C922 1.574 . S
C930 H925 0.949 . S
C930 C936 1.368 . S
C931 C915 1.349 . S
C931 H923 0.950 . S
C931 C929 1.327 . S
C932 C920 1.349 . S
C932 H926 0.950 . S
C932 C933 1.327 . S
C933 H927 0.950 . S
C933 C932 1.327 . S
C933 C937 1.429 . S
C934 C917 1.574 . S
C934 H928 0.949 . S
C934 C938 1.368 . S
C935 C916 1.429 . S
C935 C929 1.429 . S
C935 C936 1.523 . S
C936 C917 1.368 . S
C936 C930 1.368 . S
C936 C935 1.523 . S
C937 C921 1.429 . S
C937 C933 1.429 . S
C937 C938 1.523 . S
C938 C922 1.368 . S
C938 C934 1.368 . S
C938 C937 1.523 . S
H939 C914 0.950 . S
H940 C916 0.950 . S
H941 C917 0.949 . S
H942 C919 0.950 . S
H943 C921 0.950 . S
C944 C945 1.349 1_554 S
C944 C946 1.327 . S
C944 H969 0.950 . S
C945 C944 1.349 1_556 S
C945 C961 1.349 1_565 S
C946 C944 1.327 . S
C946 C965 1.429 1_554 S
C946 H970 0.950 . S
C947 C964 1.574 . S
C947 C966 1.368 1_545 S
C947 H971 0.949 . S
H948 C952 0.949 . S
C949 C950 1.349 1_556 S
C949 C951 1.327 . S
C949 H972 0.950 . S
C950 C949 1.349 1_554 S
C950 C962 1.349 1_545 S
C951 C949 1.327 . S
C951 C967 1.429 1_556 S
C951 H973 0.950 . S
C952 H948 0.949 . S
C952 C960 1.574 . S
C952 C968 1.368 1_565 S
H953 C961 0.950 . S
H954 C959 0.950 . S
H955 C960 0.949 . S
H956 C962 0.950 . S
H957 C963 0.950 . S
H958 C964 0.949 . S
C959 H954 0.950 . S
C959 C961 1.327 . S
C959 C965 1.429 1_545 S
C960 C952 1.574 . S
C960 H955 0.949 . S
C960 C966 1.368 1_554 S
C961 C945 1.349 1_545 S
C961 H953 0.950 . S
C961 C959 1.327 . S
C962 C950 1.349 1_565 S
C962 H956 0.950 . S
C962 C963 1.327 . S
C963 H957 0.950 . S
C963 C962 1.327 . S
C963 C967 1.429 1_565 S
C964 C947 1.574 . S
C964 H958 0.949 . S
C964 C968 1.368 1_556 S
C965 C946 1.429 1_556 S
C965 C959 1.429 1_565 S
C965 C966 1.523 . S
C966 C947 1.368 1_565 S
C966 C960 1.368 1_556 S
C966 C965 1.523 . S
C967 C951 1.429 1_554 S
C967 C963 1.429 1_545 S
C967 C968 1.523 . S
C968 C952 1.368 1_545 S
C968 C964 1.368 1_554 S
C968 C967 1.523 . S
H969 C944 0.950 . S
H970 C946 0.950 . S
H971 C947 0.949 . S
H972 C949 0.950 . S
H973 C951 0.950 . S
C974 C975 1.349 . S
C974 C976 1.327 . S
C974 H999 0.950 . S
C975 C974 1.349 . S
C975 C991 1.349 1_556 S
C976 C974 1.327 . S
C976 C995 1.429 . S
C976 H1000 0.950 . S
C977 C994 1.574 . S
C977 C996 1.368 1_554 S
C977 H1001 0.949 . S
H978 C982 0.949 . S
C979 C980 1.349 . S
C979 C981 1.327 . S
C979 H1002 0.950 . S
C980 C979 1.349 . S
C980 C992 1.349 1_554 S
C981 C979 1.327 . S
C981 C997 1.429 . S
C981 H1003 0.950 . S
C982 H978 0.949 . S
C982 C990 1.574 . S
C982 C998 1.368 1_556 S
H983 C991 0.950 . S
H984 C989 0.950 . S
H985 C990 0.949 . S
H986 C992 0.950 . S
H987 C993 0.950 . S
H988 C994 0.949 . S
C989 H984 0.950 . S
C989 C991 1.327 . S
C989 C995 1.429 1_554 S
C990 C982 1.574 . S
C990 H985 0.949 . S
C990 C996 1.368 . S
C991 C975 1.349 1_554 S
C991 H983 0.950 . S
C991 C989 1.327 . S
C992 C980 1.349 1_556 S
C992 H986 0.950 . S
C992 C993 1.327 . S
C993 H987 0.950 . S
C993 C992 1.327 . S
C993 C997 1.429 1_556 S
C994 C977 1.574 . S
C994 H988 0.949 . S
C994 C998 1.368 . S
C995 C976 1.429 . S
C995 C989 1.429 1_556 S
C995 C996 1.523 . S
C996 C977 1.368 1_556 S
C996 C990 1.368 . S
C996 C995 1.523 . S
C997 C981 1.429 . S
C997 C993 1.429 1_554 S
C997 C998 1.523 . S
C998 C982 1.368 1_554 S
C998 C994 1.368 . S
C998 C997 1.523 . S
H999 C974 0.950 . S
H1000 C976 0.950 . S
H1001 C977 0.949 . S
H1002 C979 0.950 . S
H1003 C981 0.950 . S
C1004 C1005 1.349 1_556 S
C1004 C1006 1.327 . S
C1004 H1029 0.950 . S
C1005 C1004 1.349 1_554 S
C1005 C1021 1.349 . S
C1006 C1004 1.327 . S
C1006 C1025 1.429 1_556 S
C1006 H1030 0.950 . S
C1007 C1024 1.574 1_655 S
C1007 C1026 1.368 . S
C1007 H1031 0.949 . S
H1008 C1012 0.949 . S
C1009 C1010 1.349 1_554 S
C1009 C1011 1.327 . S
C1009 H1032 0.950 . S
C1010 C1009 1.349 1_556 S
C1010 C1022 1.349 . S
C1011 C1009 1.327 . S
C1011 C1027 1.429 1_554 S
C1011 H1033 0.950 . S
C1012 H1008 0.949 . S
C1012 C1020 1.574 1_455 S
C1012 C1028 1.368 . S
H1013 C1021 0.950 . S
H1014 C1019 0.950 . S
H1015 C1020 0.949 . S
H1016 C1022 0.950 . S
H1017 C1023 0.950 . S
H1018 C1024 0.949 . S
C1019 H1014 0.950 . S
C1019 C1021 1.327 . S
C1019 C1025 1.429 . S
C1020 C1012 1.574 1_655 S
C1020 H1015 0.949 . S
C1020 C1026 1.368 1_556 S
C1021 C1005 1.349 . S
C1021 H1013 0.950 . S
C1021 C1019 1.327 . S
C1022 C1010 1.349 . S
C1022 H1016 0.950 . S
C1022 C1023 1.327 . S
C1023 H1017 0.950 . S
C1023 C1022 1.327 . S
C1023 C1027 1.429 . S
C1024 C1007 1.574 1_455 S
C1024 H1018 0.949 . S
C1024 C1028 1.368 1_554 S
C1025 C1006 1.429 1_554 S
C1025 C1019 1.429 . S
C1025 C1026 1.523 . S
C1026 C1007 1.368 . S
C1026 C1020 1.368 1_554 S
C1026 C1025 1.523 . S
C1027 C1011 1.429 1_556 S
C1027 C1023 1.429 . S
C1027 C1028 1.523 . S
C1028 C1012 1.368 . S
C1028 C1024 1.368 1_556 S
C1028 C1027 1.523 . S
H1029 C1004 0.950 . S
H1030 C1006 0.950 . S
H1031 C1007 0.949 . S
H1032 C1009 0.950 . S
H1033 C1011 0.950 . S
C1034 C1035 1.349 1_455 S
C1034 C1036 1.327 . S
C1034 H1059 0.950 . S
C1035 C1034 1.349 1_655 S
C1035 C1051 1.349 1_556 S
C1036 C1034 1.327 . S
C1036 C1055 1.429 1_455 S
C1036 H1060 0.950 . S
C1037 C1054 1.574 1_545 S
C1037 C1056 1.368 1_554 S
C1037 H1061 0.949 . S
H1038 C1042 0.949 . S
C1039 C1040 1.349 1_655 S
C1039 C1041 1.327 . S
C1039 H1062 0.950 . S
C1040 C1039 1.349 1_455 S
C1040 C1052 1.349 1_554 S
C1041 C1039 1.327 . S
C1041 C1057 1.429 1_655 S
C1041 H1063 0.950 . S
C1042 H1038 0.949 . S
C1042 C1050 1.574 1_565 S
C1042 C1058 1.368 1_556 S
H1043 C1051 0.950 . S
H1044 C1049 0.950 . S
H1045 C1050 0.949 . S
H1046 C1052 0.950 . S
H1047 C1053 0.950 . S
H1048 C1054 0.949 . S
C1049 H1044 0.950 . S
C1049 C1051 1.327 . S
C1049 C1055 1.429 1_554 S
C1050 C1042 1.574 1_545 S
C1050 H1045 0.949 . S
C1050 C1056 1.368 1_455 S
C1051 C1035 1.349 1_554 S
C1051 H1043 0.950 . S
C1051 C1049 1.327 . S
C1052 C1040 1.349 1_556 S
C1052 H1046 0.950 . S
C1052 C1053 1.327 . S
C1053 H1047 0.950 . S
C1053 C1052 1.327 . S
C1053 C1057 1.429 1_556 S
C1054 C1037 1.574 1_565 S
C1054 H1048 0.949 . S
C1054 C1058 1.368 1_655 S
C1055 C1036 1.429 1_655 S
C1055 C1049 1.429 1_556 S
C1055 C1056 1.523 . S
C1056 C1037 1.368 1_556 S
C1056 C1050 1.368 1_655 S
C1056 C1055 1.523 . S
C1057 C1041 1.429 1_455 S
C1057 C1053 1.429 1_554 S
C1057 C1058 1.523 . S
C1058 C1042 1.368 1_554 S
C1058 C1054 1.368 1_455 S
C1058 C1057 1.523 . S
H1059 C1034 0.950 . S
H1060 C1036 0.950 . S
H1061 C1037 0.949 . S
H1062 C1039 0.950 . S
H1063 C1041 0.950 . S
C1064 C1065 1.349 1_545 S
C1064 C1066 1.327 . S
C1064 H1089 0.950 . S
C1065 C1064 1.349 1_565 S
C1065 C1081 1.349 . S
C1066 C1064 1.327 . S
C1066 C1085 1.429 1_545 S
C1066 H1090 0.950 . S
C1067 C1084 1.574 1_455 S
C1067 C1086 1.368 . S
C1067 H1091 0.949 . S
H1068 C1072 0.949 . S
C1069 C1070 1.349 1_565 S
C1069 C1071 1.327 . S
C1069 H1092 0.950 . S
C1070 C1069 1.349 1_545 S
C1070 C1082 1.349 . S
C1071 C1069 1.327 . S
C1071 C1087 1.429 1_565 S
C1071 H1093 0.950 . S
C1072 H1068 0.949 . S
C1072 C1080 1.574 1_655 S
C1072 C1088 1.368 . S
H1073 C1081 0.950 . S
H1074 C1079 0.950 . S
H1075 C1080 0.949 . S
H1076 C1082 0.950 . S
H1077 C1083 0.950 . S
H1078 C1084 0.949 . S
C1079 H1074 0.950 . S
C1079 C1081 1.327 . S
C1079 C1085 1.429 . S
C1080 C1072 1.574 1_455 S
C1080 H1075 0.949 . S
C1080 C1086 1.368 1_545 S
C1081 C1065 1.349 . S
C1081 H1073 0.950 . S
C1081 C1079 1.327 . S
C1082 C1070 1.349 . S
C1082 H1076 0.950 . S
C1082 C1083 1.327 . S
C1083 H1077 0.950 . S
C1083 C1082 1.327 . S
C1083 C1087 1.429 . S
C1084 C1067 1.574 1_655 S
C1084 H1078 0.949 . S
C1084 C1088 1.368 1_565 S
C1085 C1066 1.429 1_565 S
C1085 C1079 1.429 . S
C1085 C1086 1.523 . S
C1086 C1067 1.368 . S
C1086 C1080 1.368 1_565 S
C1086 C1085 1.523 . S
C1087 C1071 1.429 1_545 S
C1087 C1083 1.429 . S
C1087 C1088 1.523 . S
C1088 C1072 1.368 . S
C1088 C1084 1.368 1_545 S
C1088 C1087 1.523 . S
H1089 C1064 0.950 . S
H1090 C1066 0.950 . S
H1091 C1067 0.949 . S
H1092 C1069 0.950 . S
H1093 C1071 0.950 . S
C1094 C1095 1.349 . S
C1094 C1096 1.327 . S
C1094 H1119 0.950 . S
C1095 C1094 1.349 . S
C1095 C1111 1.349 . S
C1096 C1094 1.327 . S
C1096 C1115 1.429 . S
C1096 H1120 0.950 . S
C1097 C1114 1.574 1_565 S
C1097 C1116 1.368 . S
C1097 H1121 0.949 . S
H1098 C1102 0.949 . S
C1099 C1100 1.349 . S
C1099 C1101 1.327 . S
C1099 H1122 0.950 . S
C1100 C1099 1.349 . S
C1100 C1112 1.349 . S
C1101 C1099 1.327 . S
C1101 C1117 1.429 . S
C1101 H1123 0.950 . S
C1102 H1098 0.949 . S
C1102 C1110 1.574 1_545 S
C1102 C1118 1.368 . S
H1103 C1111 0.950 . S
H1104 C1109 0.950 . S
H1105 C1110 0.949 . S
H1106 C1112 0.950 . S
H1107 C1113 0.950 . S
H1108 C1114 0.949 . S
C1109 H1104 0.950 . S
C1109 C1111 1.327 . S
C1109 C1115 1.429 . S
C1110 C1102 1.574 1_565 S
C1110 H1105 0.949 . S
C1110 C1116 1.368 . S
C1111 C1095 1.349 . S
C1111 H1103 0.950 . S
C1111 C1109 1.327 . S
C1112 C1100 1.349 . S
C1112 H1106 0.950 . S
C1112 C1113 1.327 . S
C1113 H1107 0.950 . S
C1113 C1112 1.327 . S
C1113 C1117 1.429 . S
C1114 C1097 1.574 1_545 S
C1114 H1108 0.949 . S
C1114 C1118 1.368 . S
C1115 C1096 1.429 . S
C1115 C1109 1.429 . S
C1115 C1116 1.523 . S
C1116 C1097 1.368 . S
C1116 C1110 1.368 . S
C1116 C1115 1.523 . S
C1117 C1101 1.429 . S
C1117 C1113 1.429 . S
C1117 C1118 1.523 . S
C1118 C1102 1.368 . S
C1118 C1114 1.368 . S
C1118 C1117 1.523 . S
H1119 C1094 0.950 . S
H1120 C1096 0.950 . S
H1121 C1097 0.949 . S
H1122 C1099 0.950 . S
H1123 C1101 0.950 . S
C1124 C1125 1.349 . S
C1124 C1126 1.327 . S
C1124 H1149 0.950 . S
C1125 C1124 1.349 . S
C1125 C1141 1.349 . S
C1126 C1124 1.327 . S
C1126 C1145 1.429 . S
C1126 H1150 0.950 . S
C1127 C1144 1.574 . S
C1127 C1146 1.368 . S
C1127 H1151 0.949 . S
H1128 C1132 0.949 . S
C1129 C1130 1.349 . S
C1129 C1131 1.327 . S
C1129 H1152 0.950 . S
C1130 C1129 1.349 . S
C1130 C1142 1.349 . S
C1131 C1129 1.327 . S
C1131 C1147 1.429 . S
C1131 H1153 0.950 . S
C1132 H1128 0.949 . S
C1132 C1140 1.574 . S
C1132 C1148 1.368 . S
H1133 C1141 0.950 . S
H1134 C1139 0.950 . S
H1135 C1140 0.949 . S
H1136 C1142 0.950 . S
H1137 C1143 0.950 . S
H1138 C1144 0.949 . S
C1139 H1134 0.950 . S
C1139 C1141 1.327 . S
C1139 C1145 1.429 . S
C1140 C1132 1.574 . S
C1140 H1135 0.949 . S
C1140 C1146 1.368 . S
C1141 C1125 1.349 . S
C1141 H1133 0.950 . S
C1141 C1139 1.327 . S
C1142 C1130 1.349 . S
C1142 H1136 0.950 . S
C1142 C1143 1.327 . S
C1143 H1137 0.950 . S
C1143 C1142 1.327 . S
C1143 C1147 1.429 . S
C1144 C1127 1.574 . S
C1144 H1138 0.949 . S
C1144 C1148 1.368 . S
C1145 C1126 1.429 . S
C1145 C1139 1.429 . S
C1145 C1146 1.523 . S
C1146 C1127 1.368 . S
C1146 C1140 1.368 . S
C1146 C1145 1.523 . S
C1147 C1131 1.429 . S
C1147 C1143 1.429 . S
C1147 C1148 1.523 . S
C1148 C1132 1.368 . S
C1148 C1144 1.368 . S
C1148 C1147 1.523 . S
H1149 C1124 0.950 . S
H1150 C1126 0.950 . S
H1151 C1127 0.949 . S
H1152 C1129 0.950 . S
H1153 C1131 0.950 . S
C1154 C1155 1.349 . S
C1154 C1156 1.327 . S
C1154 H1179 0.950 . S
C1155 C1154 1.349 . S
C1155 C1171 1.349 1_455 S
C1156 C1154 1.327 . S
C1156 C1175 1.429 . S
C1156 H1180 0.950 . S
C1157 C1174 1.574 . S
C1157 C1176 1.368 1_655 S
C1157 H1181 0.949 . S
H1158 C1162 0.949 . S
C1159 C1160 1.349 . S
C1159 C1161 1.327 . S
C1159 H1182 0.950 . S
C1160 C1159 1.349 . S
C1160 C1172 1.349 1_655 S
C1161 C1159 1.327 . S
C1161 C1177 1.429 . S
C1161 H1183 0.950 . S
C1162 H1158 0.949 . S
C1162 C1170 1.574 . S
C1162 C1178 1.368 1_455 S
H1163 C1171 0.950 . S
H1164 C1169 0.950 . S
H1165 C1170 0.949 . S
H1166 C1172 0.950 . S
H1167 C1173 0.950 . S
H1168 C1174 0.949 . S
C1169 H1164 0.950 . S
C1169 C1171 1.327 . S
C1169 C1175 1.429 1_655 S
C1170 C1162 1.574 . S
C1170 H1165 0.949 . S
C1170 C1176 1.368 . S
C1171 C1155 1.349 1_655 S
C1171 H1163 0.950 . S
C1171 C1169 1.327 . S
C1172 C1160 1.349 1_455 S
C1172 H1166 0.950 . S
C1172 C1173 1.327 . S
C1173 H1167 0.950 . S
C1173 C1172 1.327 . S
C1173 C1177 1.429 1_455 S
C1174 C1157 1.574 . S
C1174 H1168 0.949 . S
C1174 C1178 1.368 . S
C1175 C1156 1.429 . S
C1175 C1169 1.429 1_455 S
C1175 C1176 1.523 . S
C1176 C1157 1.368 1_455 S
C1176 C1170 1.368 . S
C1176 C1175 1.523 . S
C1177 C1161 1.429 . S
C1177 C1173 1.429 1_655 S
C1177 C1178 1.523 . S
C1178 C1162 1.368 1_655 S
C1178 C1174 1.368 . S
C1178 C1177 1.523 . S
H1179 C1154 0.950 . S
H1180 C1156 0.950 . S
H1181 C1157 0.949 . S
H1182 C1159 0.950 . S
H1183 C1161 0.950 . S
C225 C79 0.402 . S
C230 C9 0.402 . S
C255 C93 0.402 . S
C260 C23 0.402 . S
C285 C37 0.402 . S
C290 C107 0.402 . S
C315 C51 0.402 . S
C320 C65 0.402 . S
C345 C121 0.402 . S
C350 C191 0.402 . S
C375 C205 0.402 . S
C380 C135 0.402 . S
C405 C219 0.402 . S
C410 C149 0.402 . S
C435 C163 0.402 . S
C440 C177 0.402 . S
C465 C6 1.595 . S
C470 C176 1.557 . S
C495 C190 1.557 . S
C500 C20 1.595 . S
C525 C34 1.595 . S
C530 C204 1.557 . S
C555 C48 1.595 . S
C560 C218 1.557 . S
C585 C62 1.595 . S
C590 C120 1.557 . S
C615 C76 1.595 . S
C620 C134 1.557 . S
C645 C90 1.595 . S
C650 C148 1.557 . S
C675 C104 1.595 . S
C680 C162 1.557 . S
C705 C64 1.557 . S
C710 C118 1.595 . S
C735 C78 1.557 . S
C740 C132 1.595 . S
C765 C92 1.557 . S
C770 C146 1.595 . S
C795 C160 1.595 . S
C800 C106 1.557 . S
C825 C8 1.557 . S
C830 C174 1.595 . S
C855 C188 1.595 . S
C860 C22 1.557 . S
C885 C202 1.595 . S
C890 C36 1.557 . S
C915 C50 1.557 . S
C920 C216 1.595 . S
C945 C119 1.481 . S
C950 C7 1.481 . S
C975 C133 1.481 . S
C980 C21 1.481 . S
C1005 C35 1.481 . S
C1010 C147 1.481 . S
C1035 C161 1.481 . S
C1040 C49 1.481 . S
C1065 C63 1.481 . S
C1070 C175 1.481 . S
C1095 C189 1.481 . S
C1100 C77 1.481 . S
C1125 C203 1.481 . S
C1130 C91 1.481 . S
C1155 C217 1.481 . S
C1160 C105 1.481 . S
