# Generated by pormake.
# Topology zfv, (5)-cn, num edge types: 1
# Building blocks:
#     Node 0, Type 0, BuildingBlock: XOMCOT_clean_sbu_0, # of connection points: 5
#     Node 1, Type 0, BuildingBlock: XOMCOT_clean_sbu_0, # of connection points: 5
#     Node 2, Type 0, BuildingBlock: XOMCOT_clean_sbu_0, # of connection points: 5
#     Node 3, Type 0, BuildingBlock: XOMCOT_clean_sbu_0, # of connection points: 5
#     Node 4, Type 0, BuildingBlock: XOMCOT_clean_sbu_0, # of connection points: 5
#     Node 5, Type 0, BuildingBlock: XOMCOT_clean_sbu_0, # of connection points: 5
#     Node 6, Type 0, BuildingBlock: XOMCOT_clean_sbu_0, # of connection points: 5
#     Node 7, Type 0, BuildingBlock: XOMCOT_clean_sbu_0, # of connection points: 5
#     Node 8, Type 0, BuildingBlock: XOMCOT_clean_sbu_0, # of connection points: 5
#     Node 9, Type 0, BuildingBlock: XOMCOT_clean_sbu_0, # of connection points: 5
#     Node 10, Type 0, BuildingBlock: XOMCOT_clean_sbu_0, # of connection points: 5
#     Node 11, Type 0, BuildingBlock: XOMCOT_clean_sbu_0, # of connection points: 5
#     Node 12, Type 0, BuildingBlock: XOMCOT_clean_sbu_0, # of connection points: 5
#     Node 13, Type 0, BuildingBlock: XOMCOT_clean_sbu_0, # of connection points: 5
#     Node 14, Type 0, BuildingBlock: XOMCOT_clean_sbu_0, # of connection points: 5
#     Node 15, Type 0, BuildingBlock: XOMCOT_clean_sbu_0, # of connection points: 5
#     Edge 16, Type (0, 0), None
#     Edge 17, Type (0, 0), None
#     Edge 18, Type (0, 0), None
#     Edge 19, Type (0, 0), None
#     Edge 20, Type (0, 0), None
#     Edge 21, Type (0, 0), None
#     Edge 22, Type (0, 0), None
#     Edge 23, Type (0, 0), None
#     Edge 24, Type (0, 0), None
#     Edge 25, Type (0, 0), None
#     Edge 26, Type (0, 0), None
#     Edge 27, Type (0, 0), None
#     Edge 28, Type (0, 0), None
#     Edge 29, Type (0, 0), None
#     Edge 30, Type (0, 0), None
#     Edge 31, Type (0, 0), None
#     Edge 32, Type (0, 0), None
#     Edge 33, Type (0, 0), None
#     Edge 34, Type (0, 0), None
#     Edge 35, Type (0, 0), None
#     Edge 36, Type (0, 0), None
#     Edge 37, Type (0, 0), None
#     Edge 38, Type (0, 0), None
#     Edge 39, Type (0, 0), None
#     Edge 40, Type (0, 0), None
#     Edge 41, Type (0, 0), None
#     Edge 42, Type (0, 0), None
#     Edge 43, Type (0, 0), None
#     Edge 44, Type (0, 0), None
#     Edge 45, Type (0, 0), None
#     Edge 46, Type (0, 0), None
#     Edge 47, Type (0, 0), None
#     Edge 48, Type (0, 0), None
#     Edge 49, Type (0, 0), None
#     Edge 50, Type (0, 0), None
#     Edge 51, Type (0, 0), None
#     Edge 52, Type (0, 0), None
#     Edge 53, Type (0, 0), None
#     Edge 54, Type (0, 0), None
#     Edge 55, Type (0, 0), None
# Relax obj value: 0.132
# Max RMSD: 0.132
# Mean RMSD: 0.132
data_MOF--net-zfv--node1-XOMCOT_clean_sbu_0--edge1-none
_symmetry_space_group_name_H-M    P1
_symmetry_Int_Tables_number       1
_symmetry_cell_setting            triclinic
loop_
_symmetry_equiv_pos_as_xyz
'x, y, z'
_cell_length_a     35.801539
_cell_length_b     38.402179
_cell_length_c     9.537629
_cell_angle_alpha  90.00055
_cell_angle_beta   89.995746
_cell_angle_gamma 90.001943
loop_
_atom_site_label
_atom_site_type_symbol
_atom_site_fract_x
_atom_site_fract_y
_atom_site_fract_z
_atom_type_partial_charge
Co0 Co 0.13784 0.56667 0.07942 0.0
C1 C 0.12725 0.56264 0.77097 0.0
C2 C 0.17562 0.59288 0.82478 0.0
C3 C 0.17414 0.59004 0.68127 0.0
N4 N 0.1462 0.57581 0.88143 0.0
N5 N 0.14398 0.5708 0.64851 0.0
H6 H 0.10249 0.54668 0.77999 0.0
H7 H 0.19768 0.60561 0.8824 0.0
C8 C 0.17858 0.63119 0.18337 0.0
O9 O 0.14874 0.64288 0.24802 0.0
N10 N 0.13021 0.55684 0.2792 0.0
C11 C 0.10481 0.53482 0.33639 0.0
C12 C 0.10629 0.53713 0.48032 0.0
C13 C 0.14808 0.5708 0.39071 0.0
N14 N 0.13339 0.55987 0.51311 0.0
C15 C 0.06359 0.59064 0.1341 0.0
C16 C 0.07306 0.65856 0.04867 0.0
C17 C 0.03914 0.64926 0.11453 0.0
C18 C 0.03437 0.61425 0.15185 0.0
C19 C 0.10114 0.63362 0.02866 0.0
N20 N 0.09743 0.6009 0.08261 0.0
H21 H 0.05864 0.56388 0.16124 0.0
H22 H 0.12674 0.64127 0.97705 0.0
H23 H 0.08587 0.51831 0.27844 0.0
H24 H 0.17158 0.58812 0.38439 0.0
O25 O 0.1081 0.52672 0.03237 0.0
O26 O 0.16968 0.52622 0.0647 0.0
O27 O 0.17861 0.60154 0.12355 0.0
C28 C 0.13921 0.50931 0.03447 0.0
H29 H 0.19433 0.60032 0.60774 0.0
H30 H 0.0889 0.52327 0.55435 0.0
H31 H 0.07867 0.68495 1.01544 0.0
H32 H 1.00819 0.60476 0.19367 0.0
Co33 Co 0.74741 0.75948 0.32874 0.0
C34 C 0.7583 0.75682 1.01881 0.0
C35 C 0.70402 0.7763 0.07242 0.0
C36 C 0.70779 0.77756 0.92845 0.0
N37 N 0.73588 0.76369 0.12953 0.0
N38 N 0.74195 0.76541 0.89642 0.0
H39 H 0.78594 0.74571 0.02603 0.0
H40 H 0.6794 0.78377 0.13062 0.0
C41 C 0.71247 0.82905 0.35688 0.0
O42 O 0.7455 0.84351 0.34402 0.0
N43 N 0.75911 0.75517 0.52784 0.0
C44 C 0.78075 0.72997 0.58483 0.0
C45 C 0.77914 0.73215 0.72835 0.0
C46 C 0.74453 0.77245 0.63884 0.0
N47 N 0.75609 0.7585 0.7614 0.0
C48 C 0.70656 0.69585 0.27035 0.0
C49 C 0.65433 0.70538 0.48145 0.0
C50 C 0.65152 0.67545 0.3983 0.0
C51 C 0.67813 0.67108 0.2901 0.0
C52 C 0.68214 0.72979 0.4553 0.0
N53 N 0.70822 0.72481 0.35255 0.0
H54 H 0.72706 0.69201 0.18849 0.0
H55 H 0.68251 0.75274 0.51993 0.0
H56 H 0.7953 0.70992 0.52717 0.0
H57 H 0.72448 0.79342 0.63081 0.0
O58 O 0.79043 0.73028 0.28639 0.0
O59 O 0.79171 0.7878 0.30285 0.0
O60 O 0.70901 0.79622 0.36448 0.0
C61 C 0.80989 0.75892 0.2832 0.0
H62 H 0.68678 0.78559 0.8535 0.0
H63 H 0.79179 0.71432 0.80224 0.0
H64 H 0.6356 0.71016 0.56824 0.0
H65 H 0.67704 0.64897 0.22 0.0
Co66 Co 0.52249 0.41475 0.57958 0.0
C67 C 0.53308 0.41879 0.27113 0.0
C68 C 0.48472 0.38855 0.32496 0.0
C69 C 0.4862 0.39139 0.18145 0.0
N70 N 0.51414 0.40562 0.3816 0.0
N71 N 0.51635 0.41062 0.14868 0.0
H72 H 0.55784 0.43475 0.28014 0.0
H73 H 0.46266 0.3758 0.38259 0.0
C74 C 0.48176 0.35023 0.68354 0.0
O75 O 0.5116 0.33854 0.74817 0.0
N76 N 0.53012 0.42459 0.77936 0.0
C77 C 0.55551 0.44661 0.83654 0.0
C78 C 0.55404 0.44431 0.98047 0.0
C79 C 0.51226 0.41063 0.89088 0.0
N80 N 0.52694 0.42156 1.01327 0.0
C81 C 0.59675 0.39079 0.63426 0.0
C82 C 0.58728 0.32287 0.54881 0.0
C83 C 0.62119 0.33216 0.61468 0.0
C84 C 0.62597 0.36718 0.652 0.0
C85 C 0.55919 0.34781 0.5288 0.0
N86 N 0.56291 0.38053 0.58276 0.0
H87 H 0.60169 0.41755 0.66141 0.0
H88 H 0.5336 0.34016 0.4772 0.0
H89 H 0.57445 0.46313 0.77858 0.0
H90 H 0.48876 0.39331 0.88458 0.0
O91 O 0.55223 0.45471 0.53252 0.0
O92 O 0.49066 0.4552 0.56487 0.0
O93 O 0.48172 0.37988 0.62373 0.0
C94 C 0.52112 0.47211 0.53463 0.0
H95 H 0.46601 0.3811 0.10794 0.0
H96 H 0.57143 0.45816 0.05449 0.0
H97 H 0.58167 0.29648 0.51558 0.0
H98 H 0.65214 0.37667 0.69383 0.0
Co99 Co 0.91292 0.22194 0.82877 0.0
C100 C 0.90203 0.2246 0.51885 0.0
C101 C 0.9563 0.20512 0.57243 0.0
C102 C 0.95254 0.20386 0.42846 0.0
N103 N 0.92445 0.21773 0.62955 0.0
N104 N 0.91838 0.21601 0.39645 0.0
H105 H 0.87439 0.23572 0.52608 0.0
H106 H 0.98092 0.19764 0.63061 0.0
C107 C 0.94786 0.15237 0.85698 0.0
O108 O 0.91483 0.13792 0.84424 0.0
N109 N 0.90122 0.22626 0.02788 0.0
C110 C 0.87958 0.25146 0.08488 0.0
C111 C 0.88119 0.24927 0.2284 0.0
C112 C 0.91579 0.20897 0.13887 0.0
N113 N 0.90423 0.22292 0.26144 0.0
C114 C 0.95377 0.28557 0.77034 0.0
C115 C 1.00599 0.27605 0.98144 0.0
C116 C 1.0088 0.30598 0.89827 0.0
C117 C 0.9822 0.31034 0.79007 0.0
C118 C 0.97819 0.25164 0.9553 0.0
N119 N 0.95211 0.25661 0.85256 0.0
H120 H 0.93327 0.28941 0.68849 0.0
H121 H 0.97781 0.22869 0.01994 0.0
H122 H 0.86503 0.27151 0.02722 0.0
H123 H 0.93584 0.188 0.13083 0.0
O124 O 0.86989 0.25114 0.78645 0.0
O125 O 0.86862 0.19362 0.80291 0.0
O126 O 0.95132 0.18521 0.86449 0.0
C127 C 0.85043 0.2225 0.78326 0.0
H128 H 0.97354 0.19582 0.3535 0.0
H129 H 0.86854 0.26711 0.30229 0.0
H130 H 1.02472 0.27128 0.06822 0.0
H131 H 0.98328 0.33245 0.71996 0.0
Co132 Co 0.13782 0.41479 0.95986 0.0
C133 C 0.12723 0.4188 0.2683 0.0
C134 C 0.17571 0.38873 0.21446 0.0
C135 C 0.17422 0.39157 0.35797 0.0
N136 N 0.14622 0.40569 0.15783 0.0
N137 N 0.14399 0.4107 0.39075 0.0
H138 H 0.10241 0.43467 0.25929 0.0
H139 H 0.19782 0.37607 0.1568 0.0
C140 C 0.17853 0.3503 0.85559 0.0
O141 O 0.14869 0.33867 0.79076 0.0
N142 N 0.13015 0.42459 0.76008 0.0
C143 C 0.10466 0.44651 0.70291 0.0
C144 C 0.10615 0.44422 0.55898 0.0
C145 C 0.14809 0.41072 0.64857 0.0
N146 N 0.13336 0.42159 0.52617 0.0
C147 C 0.06354 0.3908 0.90574 0.0
C148 C 0.07312 0.32286 0.99053 0.0
C149 C 0.03918 0.33214 0.92489 0.0
C150 C 0.03434 0.36718 0.88794 0.0
C151 C 0.10118 0.34781 1.01061 0.0
N152 N 0.09741 0.38055 0.95691 0.0
H153 H 0.05856 0.41758 0.87887 0.0
H154 H 0.1268 0.34017 0.06204 0.0
H155 H 0.08566 0.46296 0.76087 0.0
H156 H 0.17169 0.39351 0.65489 0.0
O157 O 0.1081 0.45475 1.00691 0.0
O158 O 0.16966 0.45525 0.97436 0.0
O159 O 0.17858 0.37991 0.91571 0.0
C160 C 0.1392 0.47216 1.00466 0.0
H161 H 0.19445 0.38136 0.43148 0.0
H162 H 0.0887 0.45801 0.48496 0.0
H163 H 0.07877 0.29645 0.02352 0.0
H164 H 1.00814 0.37666 0.84633 0.0
Co165 Co 0.91282 0.75943 0.21013 0.0
C166 C 0.90192 0.75678 0.52006 0.0
C167 C 0.9562 0.77628 0.46647 0.0
C168 C 0.95243 0.77754 0.61044 0.0
N169 N 0.92435 0.76366 0.40935 0.0
N170 N 0.91827 0.76538 0.64245 0.0
H171 H 0.87428 0.74565 0.51283 0.0
H172 H 0.98081 0.78375 0.40829 0.0
C173 C 0.94783 0.82898 0.18206 0.0
O174 O 0.91483 0.84346 0.19517 0.0
N175 N 0.90113 0.7551 1.01103 0.0
C176 C 0.87953 0.72988 0.95405 0.0
C177 C 0.88113 0.73207 0.81053 0.0
C178 C 0.91568 0.77241 0.90004 0.0
N179 N 0.90413 0.75845 0.77747 0.0
C180 C 0.9537 0.69583 0.26885 0.0
C181 C 1.00587 0.70529 0.05754 0.0
C182 C 1.00874 0.6754 0.14098 0.0
C183 C 0.98214 0.67107 0.24926 0.0
C184 C 0.97806 0.72969 0.08355 0.0
N185 N 0.952 0.72475 0.18641 0.0
H186 H 0.93321 0.69202 0.35079 0.0
H187 H 0.97766 0.7526 1.01875 0.0
H188 H 0.86501 0.70981 1.01172 0.0
H189 H 0.9357 0.7934 0.90806 0.0
O190 O 0.86978 0.73025 0.25248 0.0
O191 O 0.86854 0.78777 0.23594 0.0
O192 O 0.95125 0.79614 0.17433 0.0
C193 C 0.85034 0.75891 0.25563 0.0
H194 H 0.97342 0.78557 0.6854 0.0
H195 H 0.86849 0.71422 0.73664 0.0
H196 H 1.02459 0.71003 0.97067 0.0
H197 H 0.98326 0.649 0.31957 0.0
Co198 Co 0.5225 0.56664 0.46001 0.0
C199 C 0.5331 0.56262 0.76844 0.0
C200 C 0.48463 0.59271 0.71463 0.0
C201 C 0.48611 0.58987 0.85814 0.0
N202 N 0.51411 0.57574 0.65798 0.0
N203 N 0.51633 0.57072 0.8909 0.0
H204 H 0.55791 0.54674 0.75941 0.0
H205 H 0.46252 0.60538 0.65699 0.0
C206 C 0.48179 0.63112 0.35571 0.0
O207 O 0.51163 0.64274 0.29081 0.0
N208 N 0.53017 0.55684 0.26022 0.0
C209 C 0.55568 0.53492 0.20304 0.0
C210 C 0.55418 0.53722 0.0591 0.0
C211 C 0.51223 0.5707 0.14872 0.0
N212 N 0.52697 0.55983 0.02631 0.0
C213 C 0.59679 0.59062 0.40587 0.0
C214 C 0.5872 0.65858 0.49058 0.0
C215 C 0.62114 0.64929 0.42495 0.0
C216 C 0.62598 0.61425 0.38804 0.0
C217 C 0.55914 0.63362 0.51068 0.0
N218 N 0.56291 0.60088 0.45703 0.0
H219 H 0.60178 0.56384 0.37904 0.0
H220 H 0.53351 0.64126 0.56211 0.0
H221 H 0.57469 0.51848 0.26098 0.0
H222 H 0.48862 0.58789 0.15505 0.0
O223 O 0.55223 0.52668 0.50704 0.0
O224 O 0.49067 0.52618 0.47453 0.0
O225 O 0.48175 0.60152 0.41588 0.0
C226 C 0.52113 0.50927 0.5048 0.0
H227 H 0.46588 0.60008 0.93166 0.0
H228 H 0.57164 0.52343 0.98508 0.0
H229 H 0.58155 0.68499 0.52354 0.0
H230 H 0.65219 0.60477 0.34645 0.0
Co231 Co 0.7475 0.22199 0.71024 0.0
C232 C 0.7584 0.22465 0.02016 0.0
C233 C 0.70414 0.20513 0.96661 0.0
C234 C 0.70791 0.20387 0.11057 0.0
N235 N 0.73598 0.21776 0.90947 0.0
N236 N 0.74206 0.21604 0.14257 0.0
H237 H 0.78604 0.23578 1.01292 0.0
H238 H 0.67952 0.19765 0.90844 0.0
C239 C 0.7125 0.15244 0.68204 0.0
O240 O 0.74551 0.13796 0.69494 0.0
N241 N 0.7592 0.22632 0.51113 0.0
C242 C 0.7808 0.25154 0.45415 0.0
C243 C 0.7792 0.24935 0.31062 0.0
C244 C 0.74465 0.20901 0.40015 0.0
N245 N 0.7562 0.22297 0.27758 0.0
C246 C 0.70663 0.2856 0.76898 0.0
C247 C 0.65446 0.27614 0.55769 0.0
C248 C 0.6516 0.30602 0.64111 0.0
C249 C 0.67819 0.31036 0.74939 0.0
C250 C 0.68228 0.25174 0.58369 0.0
N251 N 0.70833 0.25668 0.68654 0.0
H252 H 0.72712 0.28941 0.85091 0.0
H253 H 0.68267 0.22882 0.51889 0.0
H254 H 0.79532 0.27161 0.51182 0.0
H255 H 0.72463 0.18802 0.40818 0.0
O256 O 0.79055 0.25117 0.75258 0.0
O257 O 0.79179 0.19365 0.73603 0.0
O258 O 0.70907 0.18528 0.67446 0.0
C259 C 0.80999 0.22251 0.75572 0.0
H260 H 0.68691 0.19583 0.18554 0.0
H261 H 0.79183 0.26721 0.23673 0.0
H262 H 0.63574 0.27139 0.47082 0.0
H263 H 0.67707 0.33243 0.8197 0.0
Co264 Co 0.41281 0.25945 0.71001 0.0
C265 C 0.4019 0.25681 0.01994 0.0
C266 C 0.45619 0.27627 0.96635 0.0
C267 C 0.45243 0.27753 0.11032 0.0
N268 N 0.42433 0.26367 0.90923 0.0
N269 N 0.41826 0.2654 0.14233 0.0
H270 H 0.37426 0.24571 1.01272 0.0
H271 H 0.48082 0.28372 0.90816 0.0
C272 C 0.44781 0.329 0.6822 0.0
O273 O 0.41481 0.34348 0.69563 0.0
N274 N 0.40112 0.25512 0.51091 0.0
C275 C 0.3795 0.22991 0.45392 0.0
C276 C 0.3811 0.2321 0.3104 0.0
C277 C 0.41567 0.27243 0.39992 0.0
N278 N 0.40412 0.25847 0.27735 0.0
C279 C 0.45368 0.19584 0.76867 0.0
C280 C 0.50587 0.20532 0.55744 0.0
C281 C 0.50873 0.17543 0.64081 0.0
C282 C 0.48213 0.17109 0.74907 0.0
C283 C 0.47805 0.22972 0.58345 0.0
N284 N 0.45199 0.22477 0.68628 0.0
H285 H 0.43319 0.19203 0.85059 0.0
H286 H 0.47766 0.25264 0.51868 0.0
H287 H 0.36497 0.20984 0.51159 0.0
H288 H 0.4357 0.29341 0.40795 0.0
O289 O 0.36977 0.23026 0.75236 0.0
O290 O 0.36852 0.28778 0.73582 0.0
O291 O 0.45123 0.29617 0.67422 0.0
C292 C 0.35032 0.25892 0.75551 0.0
H293 H 0.47343 0.28554 0.18527 0.0
H294 H 0.36846 0.21425 0.2365 0.0
H295 H 0.5246 0.21007 0.47059 0.0
H296 H 0.48324 0.14901 0.81934 0.0
Co297 Co 0.24753 0.72197 0.2099 0.0
C298 C 0.25844 0.72462 0.51982 0.0
C299 C 0.20415 0.70515 0.46626 0.0
C300 C 0.20792 0.70389 0.61023 0.0
N301 N 0.23601 0.71775 0.40912 0.0
N302 N 0.24208 0.71603 0.64222 0.0
H303 H 0.28608 0.73573 0.51258 0.0
H304 H 0.17953 0.69769 0.40808 0.0
C305 C 0.21253 0.65242 0.18202 0.0
O306 O 0.24553 0.63795 0.19533 0.0
N307 N 0.25922 0.7263 1.01079 0.0
C308 C 0.28084 0.75152 0.9538 0.0
C309 C 0.27923 0.74933 0.81027 0.0
C310 C 0.24467 0.709 0.89981 0.0
N311 N 0.25622 0.72295 0.77723 0.0
C312 C 0.20666 0.78558 0.26861 0.0
C313 C 0.15447 0.77611 0.05737 0.0
C314 C 0.15161 0.806 0.14077 0.0
C315 C 0.17821 0.81034 0.24902 0.0
C316 C 0.18229 0.75171 0.08337 0.0
N317 N 0.20835 0.75666 0.18619 0.0
H318 H 0.22715 0.7894 0.35052 0.0
H319 H 0.18268 0.72879 1.01859 0.0
H320 H 0.29536 0.77158 1.01146 0.0
H321 H 0.22464 0.68801 0.90784 0.0
O322 O 0.29057 0.75116 0.25223 0.0
O323 O 0.29182 0.69364 0.23568 0.0
O324 O 0.20911 0.68526 0.17412 0.0
C325 C 0.31002 0.7225 0.25536 0.0
H326 H 0.18691 0.69587 0.68519 0.0
H327 H 0.29187 0.76717 0.73637 0.0
H328 H 0.13575 0.77136 0.97053 0.0
H329 H 0.1771 0.83241 0.31931 0.0
Co330 Co 0.24739 0.25947 0.82861 0.0
C331 C 0.25828 0.2568 0.51869 0.0
C332 C 0.20401 0.2763 0.57229 0.0
C333 C 0.20778 0.27756 0.42832 0.0
N334 N 0.23586 0.26368 0.6294 0.0
N335 N 0.24194 0.2654 0.3963 0.0
H336 H 0.28592 0.24567 0.52591 0.0
H337 H 0.1794 0.28379 0.63049 0.0
C338 C 0.21245 0.32903 0.85693 0.0
O339 O 0.24548 0.34349 0.84425 0.0
N340 N 0.25909 0.25515 0.02772 0.0
C341 C 0.28072 0.22994 0.0847 0.0
C342 C 0.27911 0.23213 0.22822 0.0
C343 C 0.24452 0.27244 0.13871 0.0
N344 N 0.25608 0.25848 0.26128 0.0
C345 C 0.20654 0.19584 0.77017 0.0
C346 C 0.15433 0.20535 0.98133 0.0
C347 C 0.15151 0.17542 0.89813 0.0
C348 C 0.17811 0.17106 0.7899 0.0
C349 C 0.18213 0.22976 0.95519 0.0
N350 N 0.20821 0.22479 0.85241 0.0
H351 H 0.22704 0.192 0.68829 0.0
H352 H 0.18251 0.2527 0.01984 0.0
H353 H 0.29527 0.20989 0.02703 0.0
H354 H 0.22448 0.29341 0.1307 0.0
O355 O 0.29042 0.23027 0.78627 0.0
O356 O 0.29169 0.28779 0.80274 0.0
O357 O 0.20899 0.29619 0.86436 0.0
C358 C 0.30988 0.25892 0.78307 0.0
H359 H 0.18679 0.2856 0.35337 0.0
H360 H 0.29176 0.21429 0.3021 0.0
H361 H 0.1356 0.21012 0.06813 0.0
H362 H 0.17702 0.14896 0.71976 0.0
Co363 Co 0.41294 0.72196 0.32844 0.0
C364 C 0.40206 0.72465 1.01852 0.0
C365 C 0.45631 0.70509 0.07209 0.0
C366 C 0.45254 0.70383 0.92812 0.0
N367 N 0.42447 0.71775 0.12922 0.0
N368 N 0.4184 0.71603 0.89612 0.0
H369 H 0.37444 0.7358 0.02576 0.0
H370 H 0.48091 0.69758 0.13026 0.0
C371 C 0.44788 0.65239 0.35705 0.0
O372 O 0.41484 0.63794 0.34478 0.0
N373 N 0.40124 0.72628 0.52755 0.0
C374 C 0.37962 0.75149 0.58453 0.0
C375 C 0.38123 0.74931 0.72806 0.0
C376 C 0.41581 0.70899 0.63854 0.0
N377 N 0.40426 0.72295 0.76111 0.0
C378 C 0.4538 0.78559 0.26998 0.0
C379 C 0.506 0.77608 0.48115 0.0
C380 C 0.50882 0.80601 0.39796 0.0
C381 C 0.48222 0.81036 0.28972 0.0
C382 C 0.4782 0.75167 0.455 0.0
N383 N 0.45213 0.75664 0.35223 0.0
H384 H 0.4333 0.78942 0.1881 0.0
H385 H 0.47782 0.72872 0.51966 0.0
H386 H 0.36508 0.77154 0.52687 0.0
H387 H 0.43585 0.68801 0.63052 0.0
O388 O 0.36991 0.75115 0.28611 0.0
O389 O 0.36865 0.69363 0.30257 0.0
O390 O 0.45135 0.68523 0.36416 0.0
C391 C 0.35046 0.7225 0.28292 0.0
H392 H 0.47353 0.69577 0.85316 0.0
H393 H 0.36858 0.76715 0.80194 0.0
H394 H 0.52472 0.77131 0.56797 0.0
H395 H 0.48331 0.83247 0.21959 0.0
Co396 Co 0.63783 0.0667 0.57931 0.0
C397 C 0.62724 0.06266 0.27087 0.0
C398 C 0.67563 0.09286 0.32467 0.0
C399 C 0.67415 0.09002 0.18116 0.0
N400 N 0.6462 0.07582 0.38133 0.0
N401 N 0.64398 0.07081 0.1484 0.0
H402 H 0.60246 0.04673 0.27989 0.0
H403 H 0.69771 0.10558 0.3823 0.0
C404 C 0.67856 0.13121 0.68335 0.0
O405 O 0.64871 0.14288 0.74806 0.0
N406 N 0.63019 0.05687 0.77909 0.0
C407 C 0.60476 0.03488 0.83628 0.0
C408 C 0.60625 0.03718 0.98021 0.0
C409 C 0.64807 0.07081 0.8906 0.0
N410 N 0.63337 0.05989 1.013 0.0
C411 C 0.56357 0.09066 0.63383 0.0
C412 C 0.57306 0.15858 0.54858 0.0
C413 C 0.53913 0.14929 0.61435 0.0
C414 C 0.53435 0.11427 0.65157 0.0
C415 C 0.60114 0.13365 0.52857 0.0
N416 N 0.59741 0.10092 0.58244 0.0
H417 H 0.55861 0.06389 0.6609 0.0
H418 H 0.62675 0.1413 0.47702 0.0
H419 H 0.58581 0.01838 0.77833 0.0
H420 H 0.67161 0.08809 0.88428 0.0
O421 O 0.6081 0.02674 0.53226 0.0
O422 O 0.66967 0.02625 0.56464 0.0
O423 O 0.67859 0.10157 0.62344 0.0
C424 C 0.63921 0.00933 0.5344 0.0
H425 H 0.69435 0.10029 0.10764 0.0
H426 H 0.58883 0.02334 0.05424 0.0
H427 H 0.57868 0.18498 0.51541 0.0
H428 H 0.50816 0.10478 0.69333 0.0
Co429 Co 1.0225 0.91473 0.07935 0.0
C430 C 0.03309 0.91876 0.7709 0.0
C431 C 0.98471 0.88855 0.82473 0.0
C432 C 0.98619 0.89139 0.68122 0.0
N433 N 1.01414 0.9056 0.88137 0.0
N434 N 1.01636 0.91061 0.64845 0.0
H435 H 0.05786 0.9347 0.77991 0.0
H436 H 0.96264 0.87582 0.88236 0.0
C437 C 0.98177 0.85021 0.18336 0.0
O438 O 1.01162 0.83853 0.24802 0.0
N439 N 0.03014 0.92455 0.27913 0.0
C440 C 0.05555 0.94656 0.3363 0.0
C441 C 0.05407 0.94426 0.48024 0.0
C442 C 1.01227 0.91061 0.39064 0.0
N443 N 0.02696 0.92153 0.51304 0.0
C444 C 0.09677 0.89076 0.13389 0.0
C445 C 0.08729 0.82285 0.04855 0.0
C446 C 0.12121 0.83214 0.11434 0.0
C447 C 0.12599 0.86716 0.15161 0.0
C448 C 0.0592 0.84778 0.02856 0.0
N449 N 0.06292 0.8805 0.08247 0.0
H450 H 0.10171 0.91753 0.16099 0.0
H451 H 0.0336 0.84013 0.977 0.0
H452 H 0.0745 0.96307 0.27835 0.0
H453 H 0.98875 0.89331 0.38434 0.0
O454 O 0.05223 0.95469 0.03229 0.0
O455 O 0.99066 0.95518 0.06469 0.0
O456 O 0.98174 0.87985 0.1235 0.0
C457 C 1.02113 0.97209 0.03444 0.0
H458 H 0.966 0.88112 0.6077 0.0
H459 H 0.07148 0.9581 0.55426 0.0
H460 H 0.08167 0.79645 1.01535 0.0
H461 H 0.15217 0.87665 0.19338 0.0
Co462 Co 0.63784 0.91481 0.45971 0.0
C463 C 0.62725 0.91884 0.76816 0.0
C464 C 0.67568 0.8887 0.71432 0.0
C465 C 0.6742 0.89154 0.85783 0.0
N466 N 0.64622 0.9057 0.65769 0.0
N467 N 0.644 0.91071 0.89061 0.0
H468 H 0.60245 0.93474 0.75915 0.0
H469 H 0.69777 0.87601 0.65667 0.0
C470 C 0.67855 0.85032 0.35551 0.0
O471 O 0.64871 0.83868 0.29069 0.0
N472 N 0.63018 0.92462 0.25994 0.0
C473 C 0.60471 0.94657 0.20276 0.0
C474 C 0.6062 0.94427 0.05883 0.0
C475 C 0.6481 0.91073 0.14842 0.0
N476 N 0.63338 0.92162 0.02602 0.0
C477 C 0.56357 0.89082 0.40541 0.0
C478 C 0.57313 0.82288 0.49032 0.0
C479 C 0.53919 0.83217 0.42459 0.0
C480 C 0.53437 0.8672 0.38757 0.0
C481 C 0.60119 0.84784 0.51043 0.0
N482 N 0.59743 0.88057 0.45668 0.0
H483 H 0.55859 0.9176 0.37848 0.0
H484 H 0.6268 0.8402 0.56192 0.0
H485 H 0.58572 0.96304 0.26072 0.0
H486 H 0.67168 0.8935 0.15473 0.0
O487 O 0.6081 0.95477 0.50677 0.0
O488 O 0.66967 0.95527 0.47429 0.0
O489 O 0.6786 0.87994 0.41556 0.0
C490 C 0.63921 0.97218 0.50457 0.0
H491 H 0.69441 0.8813 0.93134 0.0
H492 H 0.58876 0.95808 0.98481 0.0
H493 H 0.57877 0.79648 0.52335 0.0
H494 H 0.50817 0.87668 0.34589 0.0
Co495 Co 1.02249 0.06661 0.95981 0.0
C496 C 0.03309 0.0626 0.26825 0.0
C497 C 0.98462 0.09269 0.21443 0.0
C498 C 0.98611 0.08985 0.35794 0.0
N499 N 1.0141 0.07572 0.15779 0.0
N500 N 1.01633 0.07071 0.39071 0.0
H501 H 0.0579 0.04672 0.25922 0.0
H502 H 0.96252 0.10536 0.15679 0.0
C503 C 0.98178 0.13111 0.85561 0.0
O504 O 1.01162 0.14274 0.79077 0.0
N505 N 0.03016 0.05681 0.76003 0.0
C506 C 0.05564 0.03487 0.70284 0.0
C507 C 0.05415 0.03717 0.55891 0.0
C508 C 1.01223 0.07069 0.64852 0.0
N509 N 0.02696 0.05981 0.52612 0.0
C510 C 0.09677 0.0906 0.90557 0.0
C511 C 0.0872 0.15855 0.99045 0.0
C512 C 0.12114 0.14926 0.92475 0.0
C513 C 0.12596 0.11423 0.88776 0.0
C514 C 0.05913 0.13359 1.01054 0.0
N515 N 0.0629 0.10086 0.95681 0.0
H516 H 0.10175 0.06383 0.87866 0.0
H517 H 0.03352 0.14123 0.06201 0.0
H518 H 0.07464 0.01842 0.76078 0.0
H519 H 0.98864 0.08791 0.65485 0.0
O520 O 0.05223 0.02666 1.00684 0.0
O521 O 0.99066 0.02615 0.97436 0.0
O522 O 0.98173 0.10149 0.91568 0.0
C523 C 1.02112 0.00925 1.00463 0.0
H524 H 0.96588 0.10007 0.43147 0.0
H525 H 0.0716 0.02337 0.48488 0.0
H526 H 0.08155 0.18495 0.02347 0.0
H527 H 0.15217 0.10475 0.8461 0.0
loop_
_geom_bond_atom_site_label_1
_geom_bond_atom_site_label_2
_geom_bond_distance
_geom_bond_site_symmetry_2
_ccdc_geom_bond_type
Co0 N4 2.148 1_554 S
Co0 N10 2.128 . S
Co0 N20 2.194 . S
Co0 O25 2.351 . S
Co0 O26 2.155 . S
Co0 O27 2.096 . S
C1 N4 1.301 . S
C1 N5 1.328 . S
C1 H6 0.930 . S
C2 C3 1.333 . S
C2 N4 1.317 . S
C2 H7 0.930 . S
C3 C2 1.333 . S
C3 N5 1.350 . S
C3 H29 0.931 . S
N4 Co0 2.148 1_556 S
N4 C1 1.301 . S
N4 C2 1.317 . S
N5 C1 1.328 . S
N5 C3 1.350 . S
H6 C1 0.930 . S
H7 C2 0.930 . S
C8 O9 1.224 . S
C8 O27 1.247 . S
O9 C8 1.224 . S
N10 Co0 2.128 . S
N10 C11 1.355 . S
N10 C13 1.311 . S
C11 N10 1.355 . S
C11 C12 1.363 . S
C11 H23 0.929 . S
C12 C11 1.363 . S
C12 N14 1.375 . S
C12 H30 0.931 . S
C13 N10 1.311 . S
C13 N14 1.347 . S
C13 H24 0.929 . S
N14 C12 1.375 . S
N14 C13 1.347 . S
C15 C18 1.365 1_455 S
C15 N20 1.328 . S
C15 H21 0.929 . S
C16 C17 1.362 1_455 S
C16 C19 1.378 . S
C16 H31 0.929 . S
C17 C16 1.362 1_655 S
C17 C18 1.366 . S
C18 C15 1.365 1_655 S
C18 C17 1.366 . S
C18 H32 0.930 . S
C19 C16 1.378 . S
C19 N20 1.315 . S
C19 H22 0.930 . S
N20 Co0 2.194 . S
N20 C15 1.328 . S
N20 C19 1.315 . S
H21 C15 0.929 . S
H22 C19 0.930 . S
H23 C11 0.929 . S
H24 C13 0.929 . S
O25 Co0 2.351 . S
O25 C28 1.244 . S
O26 Co0 2.155 . S
O26 C28 1.240 . S
O27 Co0 2.096 . S
O27 C8 1.247 . S
C28 O25 1.244 . S
C28 O26 1.240 . S
H29 C3 0.931 . S
H30 C12 0.931 . S
H31 C16 0.929 . S
H32 C18 0.930 . S
Co33 N37 2.148 . S
Co33 N43 2.128 . S
Co33 N53 2.194 . S
Co33 O58 2.351 . S
Co33 O59 2.155 . S
Co33 O60 2.096 . S
C34 N37 1.301 . S
C34 N38 1.328 1_554 S
C34 H39 0.930 . S
C35 C36 1.333 1_554 S
C35 N37 1.317 . S
C35 H40 0.930 . S
C36 C35 1.333 1_556 S
C36 N38 1.350 . S
C36 H62 0.931 . S
N37 Co33 2.148 . S
N37 C34 1.301 . S
N37 C35 1.317 . S
N38 C34 1.328 1_556 S
N38 C36 1.350 . S
H39 C34 0.930 . S
H40 C35 0.930 . S
C41 O42 1.224 . S
C41 O60 1.247 . S
O42 C41 1.224 . S
N43 Co33 2.128 . S
N43 C44 1.355 . S
N43 C46 1.311 . S
C44 N43 1.355 . S
C44 C45 1.363 . S
C44 H56 0.929 . S
C45 C44 1.363 . S
C45 N47 1.375 . S
C45 H63 0.931 . S
C46 N43 1.311 . S
C46 N47 1.347 . S
C46 H57 0.929 . S
N47 C45 1.375 . S
N47 C46 1.347 . S
C48 C51 1.365 . S
C48 N53 1.328 . S
C48 H54 0.929 . S
C49 C50 1.362 . S
C49 C52 1.378 . S
C49 H64 0.929 . S
C50 C49 1.362 . S
C50 C51 1.366 . S
C51 C48 1.365 . S
C51 C50 1.366 . S
C51 H65 0.930 . S
C52 C49 1.378 . S
C52 N53 1.315 . S
C52 H55 0.930 . S
N53 Co33 2.194 . S
N53 C48 1.328 . S
N53 C52 1.315 . S
H54 C48 0.929 . S
H55 C52 0.930 . S
H56 C44 0.929 . S
H57 C46 0.929 . S
O58 Co33 2.351 . S
O58 C61 1.244 . S
O59 Co33 2.155 . S
O59 C61 1.240 . S
O60 Co33 2.096 . S
O60 C41 1.247 . S
C61 O58 1.244 . S
C61 O59 1.240 . S
H62 C36 0.931 . S
H63 C45 0.931 . S
H64 C49 0.929 . S
H65 C51 0.930 . S
Co66 N70 2.148 . S
Co66 N76 2.128 . S
Co66 N86 2.194 . S
Co66 O91 2.351 . S
Co66 O92 2.155 . S
Co66 O93 2.096 . S
C67 N70 1.301 . S
C67 N71 1.328 . S
C67 H72 0.930 . S
C68 C69 1.333 . S
C68 N70 1.317 . S
C68 H73 0.930 . S
C69 C68 1.333 . S
C69 N71 1.350 . S
C69 H95 0.931 . S
N70 Co66 2.148 . S
N70 C67 1.301 . S
N70 C68 1.317 . S
N71 C67 1.328 . S
N71 C69 1.350 . S
H72 C67 0.930 . S
H73 C68 0.930 . S
C74 O75 1.224 . S
C74 O93 1.247 . S
O75 C74 1.224 . S
N76 Co66 2.128 . S
N76 C77 1.355 . S
N76 C79 1.311 . S
C77 N76 1.355 . S
C77 C78 1.363 . S
C77 H89 0.929 . S
C78 C77 1.363 . S
C78 N80 1.375 1_556 S
C78 H96 0.931 1_556 S
C79 N76 1.311 . S
C79 N80 1.347 1_556 S
C79 H90 0.929 . S
N80 C78 1.375 1_554 S
N80 C79 1.347 1_554 S
C81 C84 1.365 . S
C81 N86 1.328 . S
C81 H87 0.929 . S
C82 C83 1.362 . S
C82 C85 1.378 . S
C82 H97 0.929 . S
C83 C82 1.362 . S
C83 C84 1.366 . S
C84 C81 1.365 . S
C84 C83 1.366 . S
C84 H98 0.930 . S
C85 C82 1.378 . S
C85 N86 1.315 . S
C85 H88 0.930 . S
N86 Co66 2.194 . S
N86 C81 1.328 . S
N86 C85 1.315 . S
H87 C81 0.929 . S
H88 C85 0.930 . S
H89 C77 0.929 . S
H90 C79 0.929 . S
O91 Co66 2.351 . S
O91 C94 1.244 . S
O92 Co66 2.155 . S
O92 C94 1.240 . S
O93 Co66 2.096 . S
O93 C74 1.247 . S
C94 O91 1.244 . S
C94 O92 1.240 . S
H95 C69 0.931 . S
H96 C78 0.931 1_554 S
H97 C82 0.929 . S
H98 C84 0.930 . S
Co99 N103 2.148 . S
Co99 N109 2.128 1_556 S
Co99 N119 2.194 . S
Co99 O124 2.351 . S
Co99 O125 2.155 . S
Co99 O126 2.096 . S
C100 N103 1.301 . S
C100 N104 1.328 . S
C100 H105 0.930 . S
C101 C102 1.333 . S
C101 N103 1.317 . S
C101 H106 0.930 . S
C102 C101 1.333 . S
C102 N104 1.350 . S
C102 H128 0.931 . S
N103 Co99 2.148 . S
N103 C100 1.301 . S
N103 C101 1.317 . S
N104 C100 1.328 . S
N104 C102 1.350 . S
H105 C100 0.930 . S
H106 C101 0.930 . S
C107 O108 1.224 . S
C107 O126 1.247 . S
O108 C107 1.224 . S
N109 Co99 2.128 1_554 S
N109 C110 1.355 . S
N109 C112 1.311 . S
C110 N109 1.355 . S
C110 C111 1.363 . S
C110 H122 0.929 . S
C111 C110 1.363 . S
C111 N113 1.375 . S
C111 H129 0.931 . S
C112 N109 1.311 . S
C112 N113 1.347 . S
C112 H123 0.929 . S
N113 C111 1.375 . S
N113 C112 1.347 . S
C114 C117 1.365 . S
C114 N119 1.328 . S
C114 H120 0.929 . S
C115 C116 1.362 . S
C115 C118 1.378 . S
C115 H130 0.929 . S
C116 C115 1.362 . S
C116 C117 1.366 . S
C117 C114 1.365 . S
C117 C116 1.366 . S
C117 H131 0.930 . S
C118 C115 1.378 . S
C118 N119 1.315 . S
C118 H121 0.930 . S
N119 Co99 2.194 . S
N119 C114 1.328 . S
N119 C118 1.315 . S
H120 C114 0.929 . S
H121 C118 0.930 . S
H122 C110 0.929 . S
H123 C112 0.929 . S
O124 Co99 2.351 . S
O124 C127 1.244 . S
O125 Co99 2.155 . S
O125 C127 1.240 . S
O126 Co99 2.096 . S
O126 C107 1.247 . S
C127 O124 1.244 . S
C127 O125 1.240 . S
H128 C102 0.931 . S
H129 C111 0.931 . S
H130 C115 0.929 . S
H131 C117 0.930 . S
Co132 N136 2.148 1_556 S
Co132 N142 2.128 . S
Co132 N152 2.194 . S
Co132 O157 2.351 . S
Co132 O158 2.155 . S
Co132 O159 2.096 . S
C133 N136 1.301 . S
C133 N137 1.328 . S
C133 H138 0.930 . S
C134 C135 1.333 . S
C134 N136 1.317 . S
C134 H139 0.930 . S
C135 C134 1.333 . S
C135 N137 1.350 . S
C135 H161 0.931 . S
N136 Co132 2.148 1_554 S
N136 C133 1.301 . S
N136 C134 1.317 . S
N137 C133 1.328 . S
N137 C135 1.350 . S
H138 C133 0.930 . S
H139 C134 0.930 . S
C140 O141 1.224 . S
C140 O159 1.247 . S
O141 C140 1.224 . S
N142 Co132 2.128 . S
N142 C143 1.355 . S
N142 C145 1.311 . S
C143 N142 1.355 . S
C143 C144 1.363 . S
C143 H155 0.929 . S
C144 C143 1.363 . S
C144 N146 1.375 . S
C144 H162 0.931 . S
C145 N142 1.311 . S
C145 N146 1.347 . S
C145 H156 0.929 . S
N146 C144 1.375 . S
N146 C145 1.347 . S
C147 C150 1.365 1_455 S
C147 N152 1.328 . S
C147 H153 0.929 . S
C148 C149 1.362 1_455 S
C148 C151 1.378 . S
C148 H163 0.929 . S
C149 C148 1.362 1_655 S
C149 C150 1.366 . S
C150 C147 1.365 1_655 S
C150 C149 1.366 . S
C150 H164 0.930 . S
C151 C148 1.378 . S
C151 N152 1.315 . S
C151 H154 0.930 . S
N152 Co132 2.194 . S
N152 C147 1.328 . S
N152 C151 1.315 . S
H153 C147 0.929 . S
H154 C151 0.930 . S
H155 C143 0.929 . S
H156 C145 0.929 . S
O157 Co132 2.351 . S
O157 C160 1.244 . S
O158 Co132 2.155 . S
O158 C160 1.240 . S
O159 Co132 2.096 . S
O159 C140 1.247 . S
C160 O157 1.244 . S
C160 O158 1.240 . S
H161 C135 0.931 . S
H162 C144 0.931 . S
H163 C148 0.929 . S
H164 C150 0.930 . S
Co165 N169 2.148 . S
Co165 N175 2.128 1_554 S
Co165 N185 2.194 . S
Co165 O190 2.351 . S
Co165 O191 2.155 . S
Co165 O192 2.096 . S
C166 N169 1.301 . S
C166 N170 1.328 . S
C166 H171 0.930 . S
C167 C168 1.333 . S
C167 N169 1.317 . S
C167 H172 0.930 . S
C168 C167 1.333 . S
C168 N170 1.350 . S
C168 H194 0.931 . S
N169 Co165 2.148 . S
N169 C166 1.301 . S
N169 C167 1.317 . S
N170 C166 1.328 . S
N170 C168 1.350 . S
H171 C166 0.930 . S
H172 C167 0.930 . S
C173 O174 1.224 . S
C173 O192 1.247 . S
O174 C173 1.224 . S
N175 Co165 2.128 1_556 S
N175 C176 1.355 . S
N175 C178 1.311 . S
C176 N175 1.355 . S
C176 C177 1.363 . S
C176 H188 0.929 . S
C177 C176 1.363 . S
C177 N179 1.375 . S
C177 H195 0.931 . S
C178 N175 1.311 . S
C178 N179 1.347 . S
C178 H189 0.929 . S
N179 C177 1.375 . S
N179 C178 1.347 . S
C180 C183 1.365 . S
C180 N185 1.328 . S
C180 H186 0.929 . S
C181 C182 1.362 . S
C181 C184 1.378 . S
C181 H196 0.929 . S
C182 C181 1.362 . S
C182 C183 1.366 . S
C183 C180 1.365 . S
C183 C182 1.366 . S
C183 H197 0.930 . S
C184 C181 1.378 . S
C184 N185 1.315 . S
C184 H187 0.930 . S
N185 Co165 2.194 . S
N185 C180 1.328 . S
N185 C184 1.315 . S
H186 C180 0.929 . S
H187 C184 0.930 . S
H188 C176 0.929 . S
H189 C178 0.929 . S
O190 Co165 2.351 . S
O190 C193 1.244 . S
O191 Co165 2.155 . S
O191 C193 1.240 . S
O192 Co165 2.096 . S
O192 C173 1.247 . S
C193 O190 1.244 . S
C193 O191 1.240 . S
H194 C168 0.931 . S
H195 C177 0.931 . S
H196 C181 0.929 . S
H197 C183 0.930 . S
Co198 N202 2.148 . S
Co198 N208 2.128 . S
Co198 N218 2.194 . S
Co198 O223 2.351 . S
Co198 O224 2.155 . S
Co198 O225 2.096 . S
C199 N202 1.301 . S
C199 N203 1.328 . S
C199 H204 0.930 . S
C200 C201 1.333 . S
C200 N202 1.317 . S
C200 H205 0.930 . S
C201 C200 1.333 . S
C201 N203 1.350 . S
C201 H227 0.931 . S
N202 Co198 2.148 . S
N202 C199 1.301 . S
N202 C200 1.317 . S
N203 C199 1.328 . S
N203 C201 1.350 . S
H204 C199 0.930 . S
H205 C200 0.930 . S
C206 O207 1.224 . S
C206 O225 1.247 . S
O207 C206 1.224 . S
N208 Co198 2.128 . S
N208 C209 1.355 . S
N208 C211 1.311 . S
C209 N208 1.355 . S
C209 C210 1.363 . S
C209 H221 0.929 . S
C210 C209 1.363 . S
C210 N212 1.375 1_554 S
C210 H228 0.931 1_554 S
C211 N208 1.311 . S
C211 N212 1.347 1_554 S
C211 H222 0.929 . S
N212 C210 1.375 1_556 S
N212 C211 1.347 1_556 S
C213 C216 1.365 . S
C213 N218 1.328 . S
C213 H219 0.929 . S
C214 C215 1.362 . S
C214 C217 1.378 . S
C214 H229 0.929 . S
C215 C214 1.362 . S
C215 C216 1.366 . S
C216 C213 1.365 . S
C216 C215 1.366 . S
C216 H230 0.930 . S
C217 C214 1.378 . S
C217 N218 1.315 . S
C217 H220 0.930 . S
N218 Co198 2.194 . S
N218 C213 1.328 . S
N218 C217 1.315 . S
H219 C213 0.929 . S
H220 C217 0.930 . S
H221 C209 0.929 . S
H222 C211 0.929 . S
O223 Co198 2.351 . S
O223 C226 1.244 . S
O224 Co198 2.155 . S
O224 C226 1.240 . S
O225 Co198 2.096 . S
O225 C206 1.247 . S
C226 O223 1.244 . S
C226 O224 1.240 . S
H227 C201 0.931 . S
H228 C210 0.931 1_556 S
H229 C214 0.929 . S
H230 C216 0.930 . S
Co231 N235 2.148 . S
Co231 N241 2.128 . S
Co231 N251 2.194 . S
Co231 O256 2.351 . S
Co231 O257 2.155 . S
Co231 O258 2.096 . S
C232 N235 1.301 . S
C232 N236 1.328 1_556 S
C232 H237 0.930 . S
C233 C234 1.333 1_556 S
C233 N235 1.317 . S
C233 H238 0.930 . S
C234 C233 1.333 1_554 S
C234 N236 1.350 . S
C234 H260 0.931 . S
N235 Co231 2.148 . S
N235 C232 1.301 . S
N235 C233 1.317 . S
N236 C232 1.328 1_554 S
N236 C234 1.350 . S
H237 C232 0.930 . S
H238 C233 0.930 . S
C239 O240 1.224 . S
C239 O258 1.247 . S
O240 C239 1.224 . S
N241 Co231 2.128 . S
N241 C242 1.355 . S
N241 C244 1.311 . S
C242 N241 1.355 . S
C242 C243 1.363 . S
C242 H254 0.929 . S
C243 C242 1.363 . S
C243 N245 1.375 . S
C243 H261 0.931 . S
C244 N241 1.311 . S
C244 N245 1.347 . S
C244 H255 0.929 . S
N245 C243 1.375 . S
N245 C244 1.347 . S
C246 C249 1.365 . S
C246 N251 1.328 . S
C246 H252 0.929 . S
C247 C248 1.362 . S
C247 C250 1.378 . S
C247 H262 0.929 . S
C248 C247 1.362 . S
C248 C249 1.366 . S
C249 C246 1.365 . S
C249 C248 1.366 . S
C249 H263 0.930 . S
C250 C247 1.378 . S
C250 N251 1.315 . S
C250 H253 0.930 . S
N251 Co231 2.194 . S
N251 C246 1.328 . S
N251 C250 1.315 . S
H252 C246 0.929 . S
H253 C250 0.930 . S
H254 C242 0.929 . S
H255 C244 0.929 . S
O256 Co231 2.351 . S
O256 C259 1.244 . S
O257 Co231 2.155 . S
O257 C259 1.240 . S
O258 Co231 2.096 . S
O258 C239 1.247 . S
C259 O256 1.244 . S
C259 O257 1.240 . S
H260 C234 0.931 . S
H261 C243 0.931 . S
H262 C247 0.929 . S
H263 C249 0.930 . S
Co264 N268 2.148 . S
Co264 N274 2.128 . S
Co264 N284 2.194 . S
Co264 O289 2.351 . S
Co264 O290 2.155 . S
Co264 O291 2.096 . S
C265 N268 1.301 . S
C265 N269 1.328 1_556 S
C265 H270 0.930 . S
C266 C267 1.333 1_556 S
C266 N268 1.317 . S
C266 H271 0.930 . S
C267 C266 1.333 1_554 S
C267 N269 1.350 . S
C267 H293 0.931 . S
N268 Co264 2.148 . S
N268 C265 1.301 . S
N268 C266 1.317 . S
N269 C265 1.328 1_554 S
N269 C267 1.350 . S
H270 C265 0.930 . S
H271 C266 0.930 . S
C272 O273 1.224 . S
C272 O291 1.247 . S
O273 C272 1.224 . S
N274 Co264 2.128 . S
N274 C275 1.355 . S
N274 C277 1.311 . S
C275 N274 1.355 . S
C275 C276 1.363 . S
C275 H287 0.929 . S
C276 C275 1.363 . S
C276 N278 1.375 . S
C276 H294 0.931 . S
C277 N274 1.311 . S
C277 N278 1.347 . S
C277 H288 0.929 . S
N278 C276 1.375 . S
N278 C277 1.347 . S
C279 C282 1.365 . S
C279 N284 1.328 . S
C279 H285 0.929 . S
C280 C281 1.362 . S
C280 C283 1.378 . S
C280 H295 0.929 . S
C281 C280 1.362 . S
C281 C282 1.366 . S
C282 C279 1.365 . S
C282 C281 1.366 . S
C282 H296 0.930 . S
C283 C280 1.378 . S
C283 N284 1.315 . S
C283 H286 0.930 . S
N284 Co264 2.194 . S
N284 C279 1.328 . S
N284 C283 1.315 . S
H285 C279 0.929 . S
H286 C283 0.930 . S
H287 C275 0.929 . S
H288 C277 0.929 . S
O289 Co264 2.351 . S
O289 C292 1.244 . S
O290 Co264 2.155 . S
O290 C292 1.240 . S
O291 Co264 2.096 . S
O291 C272 1.247 . S
C292 O289 1.244 . S
C292 O290 1.240 . S
H293 C267 0.931 . S
H294 C276 0.931 . S
H295 C280 0.929 . S
H296 C282 0.930 . S
Co297 N301 2.148 . S
Co297 N307 2.128 1_554 S
Co297 N317 2.194 . S
Co297 O322 2.351 . S
Co297 O323 2.155 . S
Co297 O324 2.096 . S
C298 N301 1.301 . S
C298 N302 1.328 . S
C298 H303 0.930 . S
C299 C300 1.333 . S
C299 N301 1.317 . S
C299 H304 0.930 . S
C300 C299 1.333 . S
C300 N302 1.350 . S
C300 H326 0.931 . S
N301 Co297 2.148 . S
N301 C298 1.301 . S
N301 C299 1.317 . S
N302 C298 1.328 . S
N302 C300 1.350 . S
H303 C298 0.930 . S
H304 C299 0.930 . S
C305 O306 1.224 . S
C305 O324 1.247 . S
O306 C305 1.224 . S
N307 Co297 2.128 1_556 S
N307 C308 1.355 . S
N307 C310 1.311 . S
C308 N307 1.355 . S
C308 C309 1.363 . S
C308 H320 0.929 . S
C309 C308 1.363 . S
C309 N311 1.375 . S
C309 H327 0.931 . S
C310 N307 1.311 . S
C310 N311 1.347 . S
C310 H321 0.929 . S
N311 C309 1.375 . S
N311 C310 1.347 . S
C312 C315 1.365 . S
C312 N317 1.328 . S
C312 H318 0.929 . S
C313 C314 1.362 . S
C313 C316 1.378 . S
C313 H328 0.929 . S
C314 C313 1.362 . S
C314 C315 1.366 . S
C315 C312 1.365 . S
C315 C314 1.366 . S
C315 H329 0.930 . S
C316 C313 1.378 . S
C316 N317 1.315 . S
C316 H319 0.930 . S
N317 Co297 2.194 . S
N317 C312 1.328 . S
N317 C316 1.315 . S
H318 C312 0.929 . S
H319 C316 0.930 . S
H320 C308 0.929 . S
H321 C310 0.929 . S
O322 Co297 2.351 . S
O322 C325 1.244 . S
O323 Co297 2.155 . S
O323 C325 1.240 . S
O324 Co297 2.096 . S
O324 C305 1.247 . S
C325 O322 1.244 . S
C325 O323 1.240 . S
H326 C300 0.931 . S
H327 C309 0.931 . S
H328 C313 0.929 . S
H329 C315 0.930 . S
Co330 N334 2.148 . S
Co330 N340 2.128 1_556 S
Co330 N350 2.194 . S
Co330 O355 2.351 . S
Co330 O356 2.155 . S
Co330 O357 2.096 . S
C331 N334 1.301 . S
C331 N335 1.328 . S
C331 H336 0.930 . S
C332 C333 1.333 . S
C332 N334 1.317 . S
C332 H337 0.930 . S
C333 C332 1.333 . S
C333 N335 1.350 . S
C333 H359 0.931 . S
N334 Co330 2.148 . S
N334 C331 1.301 . S
N334 C332 1.317 . S
N335 C331 1.328 . S
N335 C333 1.350 . S
H336 C331 0.930 . S
H337 C332 0.930 . S
C338 O339 1.224 . S
C338 O357 1.247 . S
O339 C338 1.224 . S
N340 Co330 2.128 1_554 S
N340 C341 1.355 . S
N340 C343 1.311 . S
C341 N340 1.355 . S
C341 C342 1.363 . S
C341 H353 0.929 . S
C342 C341 1.363 . S
C342 N344 1.375 . S
C342 H360 0.931 . S
C343 N340 1.311 . S
C343 N344 1.347 . S
C343 H354 0.929 . S
N344 C342 1.375 . S
N344 C343 1.347 . S
C345 C348 1.365 . S
C345 N350 1.328 . S
C345 H351 0.929 . S
C346 C347 1.362 . S
C346 C349 1.378 . S
C346 H361 0.929 . S
C347 C346 1.362 . S
C347 C348 1.366 . S
C348 C345 1.365 . S
C348 C347 1.366 . S
C348 H362 0.930 . S
C349 C346 1.378 . S
C349 N350 1.315 . S
C349 H352 0.930 . S
N350 Co330 2.194 . S
N350 C345 1.328 . S
N350 C349 1.315 . S
H351 C345 0.929 . S
H352 C349 0.930 . S
H353 C341 0.929 . S
H354 C343 0.929 . S
O355 Co330 2.351 . S
O355 C358 1.244 . S
O356 Co330 2.155 . S
O356 C358 1.240 . S
O357 Co330 2.096 . S
O357 C338 1.247 . S
C358 O355 1.244 . S
C358 O356 1.240 . S
H359 C333 0.931 . S
H360 C342 0.931 . S
H361 C346 0.929 . S
H362 C348 0.930 . S
Co363 N367 2.148 . S
Co363 N373 2.128 . S
Co363 N383 2.194 . S
Co363 O388 2.351 . S
Co363 O389 2.155 . S
Co363 O390 2.096 . S
C364 N367 1.301 . S
C364 N368 1.328 1_554 S
C364 H369 0.930 . S
C365 C366 1.333 1_554 S
C365 N367 1.317 . S
C365 H370 0.930 . S
C366 C365 1.333 1_556 S
C366 N368 1.350 . S
C366 H392 0.931 . S
N367 Co363 2.148 . S
N367 C364 1.301 . S
N367 C365 1.317 . S
N368 C364 1.328 1_556 S
N368 C366 1.350 . S
H369 C364 0.930 . S
H370 C365 0.930 . S
C371 O372 1.224 . S
C371 O390 1.247 . S
O372 C371 1.224 . S
N373 Co363 2.128 . S
N373 C374 1.355 . S
N373 C376 1.311 . S
C374 N373 1.355 . S
C374 C375 1.363 . S
C374 H386 0.929 . S
C375 C374 1.363 . S
C375 N377 1.375 . S
C375 H393 0.931 . S
C376 N373 1.311 . S
C376 N377 1.347 . S
C376 H387 0.929 . S
N377 C375 1.375 . S
N377 C376 1.347 . S
C378 C381 1.365 . S
C378 N383 1.328 . S
C378 H384 0.929 . S
C379 C380 1.362 . S
C379 C382 1.378 . S
C379 H394 0.929 . S
C380 C379 1.362 . S
C380 C381 1.366 . S
C381 C378 1.365 . S
C381 C380 1.366 . S
C381 H395 0.930 . S
C382 C379 1.378 . S
C382 N383 1.315 . S
C382 H385 0.930 . S
N383 Co363 2.194 . S
N383 C378 1.328 . S
N383 C382 1.315 . S
H384 C378 0.929 . S
H385 C382 0.930 . S
H386 C374 0.929 . S
H387 C376 0.929 . S
O388 Co363 2.351 . S
O388 C391 1.244 . S
O389 Co363 2.155 . S
O389 C391 1.240 . S
O390 Co363 2.096 . S
O390 C371 1.247 . S
C391 O388 1.244 . S
C391 O389 1.240 . S
H392 C366 0.931 . S
H393 C375 0.931 . S
H394 C379 0.929 . S
H395 C381 0.930 . S
Co396 N400 2.148 . S
Co396 N406 2.128 . S
Co396 N416 2.194 . S
Co396 O421 2.351 . S
Co396 O422 2.155 . S
Co396 O423 2.096 . S
C397 N400 1.301 . S
C397 N401 1.328 . S
C397 H402 0.930 . S
C398 C399 1.333 . S
C398 N400 1.317 . S
C398 H403 0.930 . S
C399 C398 1.333 . S
C399 N401 1.350 . S
C399 H425 0.931 . S
N400 Co396 2.148 . S
N400 C397 1.301 . S
N400 C398 1.317 . S
N401 C397 1.328 . S
N401 C399 1.350 . S
H402 C397 0.930 . S
H403 C398 0.930 . S
C404 O405 1.224 . S
C404 O423 1.247 . S
O405 C404 1.224 . S
N406 Co396 2.128 . S
N406 C407 1.355 . S
N406 C409 1.311 . S
C407 N406 1.355 . S
C407 C408 1.363 . S
C407 H419 0.929 . S
C408 C407 1.363 . S
C408 N410 1.375 1_556 S
C408 H426 0.931 1_556 S
C409 N406 1.311 . S
C409 N410 1.347 1_556 S
C409 H420 0.929 . S
N410 C408 1.375 1_554 S
N410 C409 1.347 1_554 S
C411 C414 1.365 . S
C411 N416 1.328 . S
C411 H417 0.929 . S
C412 C413 1.362 . S
C412 C415 1.378 . S
C412 H427 0.929 . S
C413 C412 1.362 . S
C413 C414 1.366 . S
C414 C411 1.365 . S
C414 C413 1.366 . S
C414 H428 0.930 . S
C415 C412 1.378 . S
C415 N416 1.315 . S
C415 H418 0.930 . S
N416 Co396 2.194 . S
N416 C411 1.328 . S
N416 C415 1.315 . S
H417 C411 0.929 . S
H418 C415 0.930 . S
H419 C407 0.929 . S
H420 C409 0.929 . S
O421 Co396 2.351 . S
O421 C424 1.244 . S
O422 Co396 2.155 . S
O422 C424 1.240 . S
O423 Co396 2.096 . S
O423 C404 1.247 . S
C424 O421 1.244 . S
C424 O422 1.240 . S
H425 C399 0.931 . S
H426 C408 0.931 1_554 S
H427 C412 0.929 . S
H428 C414 0.930 . S
Co429 N433 2.148 1_554 S
Co429 N439 2.128 . S
Co429 N449 2.194 . S
Co429 O454 2.351 . S
Co429 O455 2.155 1_455 S
Co429 O456 2.096 1_455 S
C430 N433 1.301 . S
C430 N434 1.328 . S
C430 H435 0.930 . S
C431 C432 1.333 . S
C431 N433 1.317 1_655 S
C431 H436 0.930 . S
C432 C431 1.333 . S
C432 N434 1.350 1_655 S
C432 H458 0.931 . S
N433 Co429 2.148 1_556 S
N433 C430 1.301 . S
N433 C431 1.317 1_455 S
N434 C430 1.328 . S
N434 C432 1.350 1_455 S
H435 C430 0.930 . S
H436 C431 0.930 . S
C437 O438 1.224 . S
C437 O456 1.247 . S
O438 C437 1.224 . S
N439 Co429 2.128 . S
N439 C440 1.355 . S
N439 C442 1.312 . S
C440 N439 1.355 . S
C440 C441 1.363 . S
C440 H452 0.929 . S
C441 C440 1.363 . S
C441 N443 1.375 . S
C441 H459 0.931 . S
C442 N439 1.312 . S
C442 N443 1.348 . S
C442 H453 0.927 1_455 S
N443 C441 1.375 . S
N443 C442 1.348 . S
C444 C447 1.365 . S
C444 N449 1.328 . S
C444 H450 0.929 . S
C445 C446 1.362 . S
C445 C448 1.378 . S
C445 H460 0.929 . S
C446 C445 1.362 . S
C446 C447 1.366 . S
C447 C444 1.365 . S
C447 C446 1.366 . S
C447 H461 0.930 . S
C448 C445 1.378 . S
C448 N449 1.315 . S
C448 H451 0.930 . S
N449 Co429 2.194 . S
N449 C444 1.328 . S
N449 C448 1.315 . S
H450 C444 0.929 . S
H451 C448 0.930 . S
H452 C440 0.929 . S
H453 C442 0.927 1_655 S
O454 Co429 2.351 . S
O454 C457 1.244 . S
O455 Co429 2.155 1_655 S
O455 C457 1.240 1_655 S
O456 Co429 2.096 1_655 S
O456 C437 1.247 . S
C457 O454 1.244 . S
C457 O455 1.240 1_455 S
H458 C432 0.931 . S
H459 C441 0.931 . S
H460 C445 0.929 . S
H461 C447 0.930 . S
Co462 N466 2.148 . S
Co462 N472 2.128 . S
Co462 N482 2.194 . S
Co462 O487 2.351 . S
Co462 O488 2.155 . S
Co462 O489 2.096 . S
C463 N466 1.301 . S
C463 N467 1.328 . S
C463 H468 0.930 . S
C464 C465 1.333 . S
C464 N466 1.317 . S
C464 H469 0.930 . S
C465 C464 1.333 . S
C465 N467 1.350 . S
C465 H491 0.931 . S
N466 Co462 2.148 . S
N466 C463 1.301 . S
N466 C464 1.317 . S
N467 C463 1.328 . S
N467 C465 1.350 . S
H468 C463 0.930 . S
H469 C464 0.930 . S
C470 O471 1.224 . S
C470 O489 1.247 . S
O471 C470 1.224 . S
N472 Co462 2.128 . S
N472 C473 1.355 . S
N472 C475 1.311 . S
C473 N472 1.355 . S
C473 C474 1.363 . S
C473 H485 0.929 . S
C474 C473 1.363 . S
C474 N476 1.375 1_554 S
C474 H492 0.931 1_554 S
C475 N472 1.311 . S
C475 N476 1.347 1_554 S
C475 H486 0.929 . S
N476 C474 1.375 1_556 S
N476 C475 1.347 1_556 S
C477 C480 1.365 . S
C477 N482 1.328 . S
C477 H483 0.929 . S
C478 C479 1.362 . S
C478 C481 1.378 . S
C478 H493 0.929 . S
C479 C478 1.362 . S
C479 C480 1.366 . S
C480 C477 1.365 . S
C480 C479 1.366 . S
C480 H494 0.930 . S
C481 C478 1.378 . S
C481 N482 1.315 . S
C481 H484 0.930 . S
N482 Co462 2.194 . S
N482 C477 1.328 . S
N482 C481 1.315 . S
H483 C477 0.929 . S
H484 C481 0.930 . S
H485 C473 0.929 . S
H486 C475 0.929 . S
O487 Co462 2.351 . S
O487 C490 1.244 . S
O488 Co462 2.155 . S
O488 C490 1.240 . S
O489 Co462 2.096 . S
O489 C470 1.247 . S
C490 O487 1.244 . S
C490 O488 1.240 . S
H491 C465 0.931 . S
H492 C474 0.931 1_556 S
H493 C478 0.929 . S
H494 C480 0.930 . S
Co495 N499 2.148 1_556 S
Co495 N505 2.128 . S
Co495 N515 2.194 . S
Co495 O520 2.351 . S
Co495 O521 2.155 1_455 S
Co495 O522 2.096 1_455 S
C496 N499 1.301 . S
C496 N500 1.328 . S
C496 H501 0.930 . S
C497 C498 1.333 . S
C497 N499 1.317 1_655 S
C497 H502 0.930 . S
C498 C497 1.333 . S
C498 N500 1.350 1_655 S
C498 H524 0.931 . S
N499 Co495 2.148 1_554 S
N499 C496 1.301 . S
N499 C497 1.317 1_455 S
N500 C496 1.328 . S
N500 C498 1.350 1_455 S
H501 C496 0.930 . S
H502 C497 0.930 . S
C503 O504 1.224 . S
C503 O522 1.247 . S
O504 C503 1.224 . S
N505 Co495 2.128 . S
N505 C506 1.355 . S
N505 C508 1.312 . S
C506 N505 1.355 . S
C506 C507 1.363 . S
C506 H518 0.929 . S
C507 C506 1.363 . S
C507 N509 1.375 . S
C507 H525 0.931 . S
C508 N505 1.312 . S
C508 N509 1.348 . S
C508 H519 0.927 1_455 S
N509 C507 1.375 . S
N509 C508 1.348 . S
C510 C513 1.365 . S
C510 N515 1.328 . S
C510 H516 0.929 . S
C511 C512 1.362 . S
C511 C514 1.378 . S
C511 H526 0.929 . S
C512 C511 1.362 . S
C512 C513 1.366 . S
C513 C510 1.365 . S
C513 C512 1.366 . S
C513 H527 0.930 . S
C514 C511 1.378 . S
C514 N515 1.315 . S
C514 H517 0.930 . S
N515 Co495 2.194 . S
N515 C510 1.328 . S
N515 C514 1.315 . S
H516 C510 0.929 . S
H517 C514 0.930 . S
H518 C506 0.929 . S
H519 C508 0.927 1_655 S
O520 Co495 2.351 . S
O520 C523 1.244 . S
O521 Co495 2.155 1_655 S
O521 C523 1.240 1_655 S
O522 Co495 2.096 1_655 S
O522 C503 1.247 . S
C523 O520 1.244 . S
C523 O521 1.240 1_455 S
H524 C498 0.931 . S
H525 C507 0.931 . S
H526 C511 0.929 . S
H527 C513 0.930 . S
N5 N14 1.402 . S
N38 N47 1.402 . S
N71 N80 1.402 . S
N104 N113 1.402 . S
N137 N146 1.402 . S
N170 N179 1.402 . S
N203 N212 1.402 . S
N245 N236 1.402 . S
N278 N269 1.402 . S
N302 N311 1.402 . S
N335 N344 1.402 . S
N377 N368 1.402 . S
N410 N401 1.401 . S
N434 N443 1.402 . S
N476 N467 1.401 . S
N500 N509 1.402 . S
C28 C160 1.135 1_554 S
C193 C61 1.134 . S
C226 C94 1.134 . S
C127 C259 1.134 . S
C358 C292 1.134 . S
C325 C391 1.134 . S
C424 C490 1.134 1_545 S
C457 C523 1.135 1_564 S
C305 C8 1.677 . S
C470 C41 1.677 . S
C74 C272 1.677 . S
C503 C107 1.677 . S
C338 C140 1.677 . S
C437 C173 1.677 . S
C206 C371 1.677 . S
C239 C404 1.677 . S
C149 C116 1.748 . S
C413 C281 1.748 . S
C50 C215 1.748 . S
C446 C314 1.748 . S
C182 C17 1.748 . S
C347 C512 1.748 . S
C248 C83 1.748 . S
C479 C380 1.749 . S
