# Generated by pormake.
# Topology ukg, (4)-cn, num edge types: 1
# Building blocks:
#     Node 0, Type 0, BuildingBlock: QUQFOY_clean_sbu_1, # of connection points: 4
#     Node 1, Type 0, BuildingBlock: QUQFOY_clean_sbu_1, # of connection points: 4
#     Node 2, Type 0, BuildingBlock: QUQFOY_clean_sbu_1, # of connection points: 4
#     Node 3, Type 0, BuildingBlock: QUQFOY_clean_sbu_1, # of connection points: 4
#     Node 4, Type 0, BuildingBlock: QUQFOY_clean_sbu_1, # of connection points: 4
#     Node 5, Type 0, BuildingBlock: QUQFOY_clean_sbu_1, # of connection points: 4
#     Node 6, Type 0, BuildingBlock: QUQFOY_clean_sbu_1, # of connection points: 4
#     Node 7, Type 0, BuildingBlock: QUQFOY_clean_sbu_1, # of connection points: 4
#     Edge 8, Type (0, 0), BuildingBlock: TEMPAE_clean_linker_10, # of connection points: 2
#     Edge 9, Type (0, 0), BuildingBlock: TEMPAE_clean_linker_10, # of connection points: 2
#     Edge 10, Type (0, 0), BuildingBlock: TEMPAE_clean_linker_10, # of connection points: 2
#     Edge 11, Type (0, 0), BuildingBlock: TEMPAE_clean_linker_10, # of connection points: 2
#     Edge 12, Type (0, 0), BuildingBlock: TEMPAE_clean_linker_10, # of connection points: 2
#     Edge 13, Type (0, 0), BuildingBlock: TEMPAE_clean_linker_10, # of connection points: 2
#     Edge 14, Type (0, 0), BuildingBlock: TEMPAE_clean_linker_10, # of connection points: 2
#     Edge 15, Type (0, 0), BuildingBlock: TEMPAE_clean_linker_10, # of connection points: 2
#     Edge 16, Type (0, 0), BuildingBlock: TEMPAE_clean_linker_10, # of connection points: 2
#     Edge 17, Type (0, 0), BuildingBlock: TEMPAE_clean_linker_10, # of connection points: 2
#     Edge 18, Type (0, 0), BuildingBlock: TEMPAE_clean_linker_10, # of connection points: 2
#     Edge 19, Type (0, 0), BuildingBlock: TEMPAE_clean_linker_10, # of connection points: 2
#     Edge 20, Type (0, 0), BuildingBlock: TEMPAE_clean_linker_10, # of connection points: 2
#     Edge 21, Type (0, 0), BuildingBlock: TEMPAE_clean_linker_10, # of connection points: 2
#     Edge 22, Type (0, 0), BuildingBlock: TEMPAE_clean_linker_10, # of connection points: 2
#     Edge 23, Type (0, 0), BuildingBlock: TEMPAE_clean_linker_10, # of connection points: 2
# Relax obj value: 0.023
# Max RMSD: 0.118
# Mean RMSD: 0.118
data_MOF--net-ukg--node1-QUQFOY_clean_sbu_1--edge1-TEMPAE_clean_linker_10
_symmetry_space_group_name_H-M    P1
_symmetry_Int_Tables_number       1
_symmetry_cell_setting            triclinic
loop_
_symmetry_equiv_pos_as_xyz
'x, y, z'
_cell_length_a     32.539058
_cell_length_b     32.520578
_cell_length_c     38.249533
_cell_angle_alpha  90.013259
_cell_angle_beta   89.999638
_cell_angle_gamma 89.997462
loop_
_atom_site_label
_atom_site_type_symbol
_atom_site_fract_x
_atom_site_fract_y
_atom_site_fract_z
_atom_type_partial_charge
O0 O 0.95688 0.64231 0.18619 0.0
Cd1 Cd 0.98607 0.66868 0.14411 0.0
Cd2 Cd 0.04277 0.68502 0.19468 0.0
O3 O 0.00799 0.64441 0.2241 0.0
O4 O 0.96508 0.64119 0.10087 0.0
O5 O 0.02875 0.63365 0.12048 0.0
C6 C 1.00059 0.62378 0.09813 0.0
C7 C 0.11368 0.69215 0.20124 0.0
C8 C 0.97161 0.63354 0.21608 0.0
C9 C 0.99429 0.7559 0.16264 0.0
O10 O 0.0178 0.74195 0.18626 0.0
O11 O 0.97889 0.73193 0.13988 0.0
O12 O 0.08858 0.70174 0.22592 0.0
O13 O 0.09877 0.67463 0.1737 0.0
O14 O 0.36442 0.45279 0.68288 0.0
Cd15 Cd 0.33729 0.47479 0.63818 0.0
Cd16 Cd 0.31441 0.53499 0.68746 0.0
O17 O 0.35418 0.5034 0.72029 0.0
O18 O 0.36869 0.44588 0.60059 0.0
O19 O 0.36864 0.51356 0.60668 0.0
C20 C 0.38248 0.48125 0.59089 0.0
C21 C 0.30402 0.60576 0.69379 0.0
C22 C 0.3693 0.46834 0.71307 0.0
C23 C 0.24878 0.47949 0.65348 0.0
O24 O 0.25979 0.50673 0.67534 0.0
O25 O 0.27502 0.46216 0.6337 0.0
O26 O 0.2925 0.58001 0.71734 0.0
O27 O 0.32443 0.59166 0.66742 0.0
O28 O 0.55367 0.86984 0.18368 0.0
Cd29 Cd 0.53143 0.84248 0.13912 0.0
Cd30 Cd 0.47071 0.82132 0.1891 0.0
O31 O 0.50274 0.86158 0.22112 0.0
O32 O 0.56077 0.873 0.10126 0.0
O33 O 0.49313 0.87396 0.10733 0.0
C34 C 0.5256 0.88713 0.0914 0.0
C35 C 0.40047 0.80934 0.19705 0.0
C36 C 0.53813 0.87574 0.21374 0.0
C37 C 0.52554 0.75451 0.15555 0.0
O38 O 0.49878 0.76656 0.1774 0.0
O39 O 0.54306 0.77995 0.13515 0.0
O40 O 0.42714 0.79903 0.22024 0.0
O41 O 0.41322 0.82985 0.17025 0.0
O42 O 0.13974 0.05125 0.6878 0.0
Cd43 Cd 0.1661 0.02962 0.64257 0.0
Cd44 Cd 0.18926 0.96861 0.69097 0.0
O45 O 0.15131 1.00064 0.72492 0.0
O46 O 0.13472 0.05941 0.60546 0.0
O47 O 0.13421 0.99165 0.61074 0.0
C48 C 0.12064 0.02432 0.59532 0.0
C49 C 0.19882 0.89761 0.69652 0.0
C50 C 0.13596 0.03571 0.71811 0.0
C51 C 0.25487 0.02381 0.6569 0.0
O52 O 0.24394 0.9962 0.67841 0.0
O53 O 0.22846 0.04179 0.63771 0.0
O54 O 0.2112 0.92294 0.7201 0.0
O55 O 0.17798 0.91229 0.67064 0.0
O56 O 0.04791 0.37355 0.83063 0.0
Cd57 Cd 0.02838 0.34626 0.87617 0.0
Cd58 Cd 0.96712 0.32309 0.83134 0.0
O59 O 0.99444 0.36344 0.79633 0.0
O60 O 0.05871 0.37773 0.91292 0.0
O61 O 0.99085 0.37707 0.9091 0.0
C62 C 0.0237 0.39106 0.92393 0.0
C63 C 0.89654 0.31469 0.83741 0.0
C64 C 0.03007 0.37841 0.80136 0.0
C65 C 0.02497 0.25762 0.85984 0.0
O66 O 0.99695 0.26826 0.83858 0.0
O67 O 0.04169 0.28397 0.87994 0.0
O68 O 0.91493 0.30544 0.80868 0.0
O69 O 0.91763 0.33165 0.86211 0.0
O70 O 0.6348 0.546 0.3285 0.0
Cd71 Cd 0.66098 0.51835 0.37142 0.0
Cd72 Cd 0.67696 0.46089 0.32447 0.0
O73 O 0.6347 0.49195 0.29367 0.0
O74 O 0.63372 0.54075 0.41437 0.0
O75 O 0.62569 0.47665 0.39586 0.0
C76 C 0.61603 0.50542 0.4177 0.0
C77 C 0.68257 0.3905 0.33276 0.0
C78 C 0.62501 0.52924 0.29962 0.0
C79 C 0.74792 0.51081 0.3509 0.0
O80 O 0.73372 0.4875 0.32719 0.0
O81 O 0.72443 0.52481 0.37471 0.0
O82 O 0.68795 0.40655 0.30229 0.0
O83 O 0.67004 0.41391 0.35789 0.0
O84 O 0.46268 0.13824 0.82787 0.0
Cd85 Cd 0.49041 0.16457 0.87068 0.0
Cd86 Cd 0.54763 0.1814 0.82354 0.0
O87 O 0.51619 0.13957 0.7925 0.0
O88 O 0.46794 0.13729 0.91358 0.0
O89 O 0.53205 0.12928 0.89523 0.0
C90 C 0.50324 0.11962 0.917 0.0
C91 C 0.61826 0.18532 0.83132 0.0
C92 C 0.4792 0.12911 0.79874 0.0
C93 C 0.49759 0.25202 0.85087 0.0
O94 O 0.52133 0.23839 0.82721 0.0
O95 O 0.48343 0.22798 0.8742 0.0
O96 O 0.6019 0.19201 0.80115 0.0
O97 O 0.59486 0.17281 0.85645 0.0
O98 O 0.87119 0.96261 0.33159 0.0
Cd99 Cd 0.84414 0.99088 0.37382 0.0
Cd100 Cd 0.8294 0.04774 0.32613 0.0
O101 O 0.87291 0.01649 0.29665 0.0
O102 O 0.87036 0.96861 0.41726 0.0
O103 O 0.87934 0.03247 0.3985 0.0
C104 C 0.88837 1.00378 0.4206 0.0
C105 C 0.8239 0.11818 0.33409 0.0
C106 C 0.88223 0.9792 0.30298 0.0
C107 C 0.75765 0.99851 0.35197 0.0
O108 O 0.77245 0.02122 0.3281 0.0
O109 O 0.78061 0.98489 0.3763 0.0
O110 O 0.81923 0.102 0.30357 0.0
O111 O 0.83564 0.09483 0.35953 0.0
C112 C 0.9883 0.42684 0.97373 0.0
C113 C 0.02174 0.42384 0.9508 0.0
C114 C 0.98601 0.45885 0.99846 0.0
C115 C 0.01706 0.48947 0.99929 0.0
C116 C 0.05065 0.48669 0.97587 0.0
C117 C 0.05295 0.45354 0.95239 0.0
C118 C 0.95038 0.45988 0.02372 0.0
C119 C 0.08364 0.51934 0.97495 0.0
C120 C 0.98747 0.59264 0.03937 0.0
C121 C 0.00743 0.59109 0.07181 0.0
C122 C 0.99123 0.56028 0.01517 0.0
C123 C 0.01413 0.52476 0.02421 0.0
C124 C 0.03424 0.52305 0.05706 0.0
C125 C 0.03126 0.55656 0.08018 0.0
C126 C 0.97058 0.56409 0.97997 0.0
C127 C 0.05786 0.4853 0.06821 0.0
H128 H 0.9642 0.40387 0.97259 0.0
H129 H 0.07859 0.45164 0.93436 0.0
H130 H 0.96196 0.46165 0.05098 0.0
H131 H 0.93151 0.48773 0.01906 0.0
H132 H 0.93032 0.4324 0.02124 0.0
H133 H 0.10728 0.51311 0.95468 0.0
H134 H 0.06957 0.54979 0.9696 0.0
H135 H 0.09908 0.52145 1.00073 0.0
H136 H 0.96902 0.61932 0.03286 0.0
H137 H 0.04618 0.55501 0.10549 0.0
H138 H 0.94646 0.54021 0.97727 0.0
H139 H 0.9933 0.55891 0.95879 0.0
H140 H 0.95618 0.59473 0.97614 0.0
H141 H 0.03728 0.45808 0.0678 0.0
H142 H 0.07103 0.48849 0.09487 0.0
H143 H 0.08324 0.47913 0.04959 0.0
C144 C 0.44577 0.45322 0.563 0.0
C145 C 0.41569 0.48405 0.56451 0.0
C146 C 0.47916 0.45612 0.53986 0.0
C147 C 0.48177 0.48992 0.51663 0.0
C148 C 0.45086 0.52069 0.51745 0.0
C149 C 0.41862 0.51782 0.54192 0.0
C150 C 0.51213 0.42344 0.54081 0.0
C151 C 0.4517 0.55649 0.49235 0.0
C152 C 0.58474 0.51965 0.47626 0.0
C153 C 0.58319 0.49933 0.44398 0.0
C154 C 0.5524 0.51607 0.50049 0.0
C155 C 0.51691 0.49304 0.4916 0.0
C156 C 0.51514 0.47273 0.45885 0.0
C157 C 0.54864 0.47548 0.43573 0.0
C158 C 0.55626 0.53688 0.53563 0.0
C159 C 0.47743 0.44899 0.44782 0.0
H160 H 0.44391 0.42735 0.58081 0.0
H161 H 0.39536 0.54165 0.54301 0.0
H162 H 0.51412 0.40775 0.51513 0.0
H163 H 0.54248 0.43784 0.54587 0.0
H164 H 0.50629 0.39993 0.56129 0.0
H165 H 0.42422 0.57652 0.49503 0.0
H166 H 0.47955 0.57537 0.49694 0.0
H167 H 0.45329 0.54503 0.46505 0.0
H168 H 0.61145 0.53809 0.48267 0.0
H169 H 0.5471 0.46028 0.41053 0.0
H170 H 0.55143 0.51416 0.55688 0.0
H171 H 0.5322 0.5608 0.53841 0.0
H172 H 0.58679 0.55156 0.53928 0.0
H173 H 0.47167 0.42336 0.46629 0.0
H174 H 0.48039 0.43609 0.42104 0.0
H175 H 0.45008 0.46938 0.44861 0.0
C176 C 0.55464 0.94941 0.06259 0.0
C177 C 0.52323 0.91997 0.06465 0.0
C178 C 0.55212 0.98257 0.03916 0.0
C179 C 0.51808 0.98559 0.01624 0.0
C180 C 0.48677 0.95526 0.01757 0.0
C181 C 0.4893 0.92327 0.04229 0.0
C182 C 0.58542 0.01492 0.03956 0.0
C183 C 0.45069 0.95652 0.99278 0.0
C184 C 0.48945 0.08886 0.97581 0.0
C185 C 0.50925 0.08682 0.94333 0.0
C186 C 0.49289 0.05659 1.00012 0.0
C187 C 0.51519 0.02066 0.9911 0.0
C188 C 0.53495 0.01839 0.95814 0.0
C189 C 0.5324 0.05184 0.93494 0.0
C190 C 0.4727 0.06097 0.03546 0.0
C191 C 0.55785 0.98019 0.94698 0.0
H192 H 0.58066 0.94727 0.08021 0.0
H193 H 0.46504 0.90049 0.0438 0.0
H194 H 0.60066 0.01649 0.01367 0.0
H195 H 0.5717 0.04558 0.04469 0.0
H196 H 0.60918 0.00875 0.05974 0.0
H197 H 0.4303 0.92935 0.99574 0.0
H198 H 0.43229 0.98469 0.99746 0.0
H199 H 0.4618 0.95781 0.96537 0.0
H200 H 0.47154 0.11591 0.98231 0.0
H201 H 0.54717 0.04993 0.90958 0.0
H202 H 0.49566 0.05584 0.05648 0.0
H203 H 0.44842 0.03734 0.03859 0.0
H204 H 0.45863 0.09179 0.03918 0.0
H205 H 0.58361 0.97403 0.96521 0.0
H206 H 0.57042 0.98283 0.92007 0.0
H207 H 0.537 0.95321 0.94804 0.0
C208 C 0.91869 0.9897 0.47954 0.0
C209 C 0.92095 0.00967 0.44714 0.0
C210 C 0.95086 0.99288 0.50397 0.0
C211 C 0.98687 0.01514 0.49518 0.0
C212 C 0.98933 0.03514 0.46233 0.0
C213 C 0.95601 0.03281 0.439 0.0
C214 C 0.94628 0.97242 0.53918 0.0
C215 C 0.0276 0.05803 0.45142 0.0
C216 C 0.05824 0.0537 0.56694 0.0
C217 C 0.0876 0.02219 0.56874 0.0
C218 C 0.02504 0.05148 0.54354 0.0
C219 C 0.02189 0.01764 0.52038 0.0
C220 C 0.0521 0.9862 0.52149 0.0
C221 C 0.08415 0.98844 0.54616 0.0
C222 C 0.99283 0.08491 0.54417 0.0
C223 C 0.05068 0.95032 0.49647 0.0
H224 H 0.89159 0.97179 0.48586 0.0
H225 H 0.95809 0.04773 0.41371 0.0
H226 H 0.96977 0.94797 0.54219 0.0
H227 H 0.9515 0.99518 0.56035 0.0
H228 H 0.9154 0.95848 0.54276 0.0
H229 H 0.02506 0.07093 0.42461 0.0
H230 H 0.03385 0.08357 0.46988 0.0
H231 H 0.05449 0.03705 0.45233 0.0
H232 H 0.0605 0.07958 0.58471 0.0
H233 H 0.10687 0.9641 0.54746 0.0
H234 H 0.96212 0.07124 0.54914 0.0
H235 H 0.99136 0.10044 0.51839 0.0
H236 H 0.99906 0.10844 0.56455 0.0
H237 H 0.02239 0.93206 0.50096 0.0
H238 H 0.0777 0.92971 0.49937 0.0
H239 H 0.04955 0.96169 0.46913 0.0
C240 C 0.16831 0.73637 0.22698 0.0
C241 C 0.15702 0.70579 0.20292 0.0
C242 C 0.20762 0.75394 0.22643 0.0
C243 C 0.23679 0.73996 0.20173 0.0
C244 C 0.22611 0.7081 0.17812 0.0
C245 C 0.18613 0.69169 0.17872 0.0
C246 C 0.21757 0.78825 0.2517 0.0
C247 C 0.25678 0.69171 0.15199 0.0
C248 C 0.32664 0.80956 0.17801 0.0
C249 C 0.35776 0.794 0.1996 0.0
C250 C 0.28691 0.79255 0.17868 0.0
C251 C 0.27852 0.75865 0.20086 0.0
C252 C 0.30984 0.74294 0.22272 0.0
C253 C 0.34889 0.76108 0.2221 0.0
C254 C 0.25396 0.81073 0.15559 0.0
C255 C 0.30233 0.70646 0.24633 0.0
H256 H 0.14586 0.74781 0.24553 0.0
H257 H 0.17755 0.66813 0.16004 0.0
H258 H 0.2443 0.77964 0.26814 0.0
H259 H 0.22622 0.81636 0.237 0.0
H260 H 0.19132 0.79573 0.26914 0.0
H261 H 0.24424 0.66567 0.1365 0.0
H262 H 0.26603 0.71654 0.13374 0.0
H263 H 0.28496 0.68122 0.16568 0.0
H264 H 0.33336 0.83492 0.16055 0.0
H265 H 0.37292 0.74853 0.23858 0.0
H266 H 0.22727 0.8203 0.17171 0.0
H267 H 0.24283 0.78721 0.13684 0.0
H268 H 0.26513 0.83778 0.14062 0.0
H269 H 0.27744 0.71358 0.26519 0.0
H270 H 0.33023 0.69748 0.26122 0.0
H271 H 0.29203 0.67972 0.23057 0.0
C272 C 0.25924 0.66041 0.719 0.0
C273 C 0.29064 0.64922 0.69569 0.0
C274 C 0.24315 0.70039 0.71933 0.0
C275 C 0.25934 0.73022 0.69623 0.0
C276 C 0.29169 0.71945 0.67316 0.0
C277 C 0.30672 0.6789 0.67293 0.0
C278 C 0.20835 0.7105 0.74403 0.0
C279 C 0.31029 0.75071 0.64866 0.0
C280 C 0.19528 0.82487 0.67472 0.0
C281 C 0.21184 0.85401 0.69775 0.0
C282 C 0.21013 0.78426 0.67417 0.0
C283 C 0.24278 0.77287 0.69672 0.0
C284 C 0.25939 0.80213 0.72014 0.0
C285 C 0.24348 0.84218 0.72059 0.0
C286 C 0.19109 0.7536 0.64936 0.0
C287 C 0.29451 0.79137 0.74431 0.0
H288 H 0.24633 0.63756 0.73646 0.0
H289 H 0.33093 0.67042 0.65484 0.0
H290 H 0.21765 0.73563 0.76197 0.0
H291 H 0.18137 0.72161 0.729 0.0
H292 H 0.1988 0.68357 0.75994 0.0
H293 H 0.33591 0.73769 0.63297 0.0
H294 H 0.28643 0.76252 0.63055 0.0
H295 H 0.32205 0.77736 0.66378 0.0
H296 H 0.17088 0.83384 0.657 0.0
H297 H 0.25675 0.8646 0.73827 0.0
H298 H 0.17962 0.72657 0.66412 0.0
H299 H 0.21462 0.74228 0.63071 0.0
H300 H 0.16518 0.767 0.63425 0.0
H301 H 0.28545 0.76577 0.76184 0.0
H302 H 0.30428 0.81786 0.76065 0.0
H303 H 0.32128 0.78067 0.72881 0.0
C304 C 0.66967 0.22304 0.86688 0.0
C305 C 0.66096 0.19818 0.8379 0.0
C306 C 0.70778 0.24297 0.87005 0.0
C307 C 0.73835 0.23652 0.84428 0.0
C308 C 0.73046 0.20931 0.81609 0.0
C309 C 0.69145 0.19124 0.81279 0.0
C310 C 0.71438 0.27281 0.89977 0.0
C311 C 0.76277 0.20028 0.78882 0.0
C312 C 0.82146 0.31547 0.82485 0.0
C313 C 0.85471 0.29942 0.8435 0.0
C314 C 0.78271 0.29645 0.82639 0.0
C315 C 0.77787 0.25956 0.84577 0.0
C316 C 0.81147 0.24368 0.86504 0.0
C317 C 0.8494 0.26421 0.86404 0.0
C318 C 0.74732 0.31509 0.80639 0.0
C319 C 0.80808 0.20378 0.88501 0.0
H320 H 0.64568 0.22911 0.88589 0.0
H321 H 0.68452 0.17219 0.79028 0.0
H322 H 0.74299 0.26527 0.91415 0.0
H323 H 0.71808 0.30434 0.88911 0.0
H324 H 0.68833 0.27287 0.91855 0.0
H325 H 0.75342 0.17495 0.77102 0.0
H326 H 0.7685 0.22819 0.77289 0.0
H327 H 0.79223 0.19179 0.80155 0.0
H328 H 0.82598 0.34241 0.8086 0.0
H329 H 0.87562 0.25141 0.87775 0.0
H330 H 0.71984 0.31761 0.82344 0.0
H331 H 0.73903 0.2949 0.78411 0.0
H332 H 0.75489 0.34608 0.796 0.0
H333 H 0.78177 0.20486 0.9034 0.0
H334 H 0.83644 0.19669 0.9 0.0
H335 H 0.80217 0.17821 0.86644 0.0
C336 C 0.7287 0.34358 0.36509 0.0
C337 C 0.69809 0.34884 0.33974 0.0
C338 C 0.75086 0.30663 0.36739 0.0
C339 C 0.7409 0.2737 0.34471 0.0
C340 C 0.70814 0.27813 0.32053 0.0
C341 C 0.68785 0.31613 0.31768 0.0
C342 C 0.78661 0.30385 0.39245 0.0
C343 C 0.69538 0.24321 0.29689 0.0
C344 C 0.81847 0.19222 0.31789 0.0
C345 C 0.80858 0.16004 0.34063 0.0
C346 C 0.79829 0.2303 0.32036 0.0
C347 C 0.76599 0.23538 0.34489 0.0
C348 C 0.75645 0.20304 0.3683 0.0
C349 C 0.77851 0.166 0.36634 0.0
C350 C 0.81063 0.26461 0.29593 0.0
C351 C 0.72121 0.20651 0.39382 0.0
H352 H 0.73726 0.36938 0.38153 0.0
H353 H 0.66443 0.32051 0.29786 0.0
H354 H 0.78377 0.27622 0.40923 0.0
H355 H 0.81562 0.30068 0.37741 0.0
H356 H 0.78904 0.33141 0.40949 0.0
H357 H 0.6662 0.24989 0.28293 0.0
H358 H 0.71969 0.23748 0.27717 0.0
H359 H 0.6915 0.21451 0.31224 0.0
H360 H 0.84149 0.18732 0.29782 0.0
H361 H 0.77023 0.14063 0.38334 0.0
H362 H 0.81478 0.2937 0.31071 0.0
H363 H 0.78597 0.26985 0.27643 0.0
H364 H 0.83956 0.25757 0.28172 0.0
H365 H 0.72443 0.23456 0.41006 0.0
H366 H 0.7191 0.17939 0.41139 0.0
H367 H 0.69191 0.20935 0.37916 0.0
C368 C 0.79978 0.56719 0.35186 0.0
C369 C 0.79052 0.52554 0.34693 0.0
C370 C 0.83546 0.58431 0.33713 0.0
C371 C 0.86241 0.55891 0.31755 0.0
C372 C 0.8557 0.51594 0.31657 0.0
C373 C 0.81958 0.49981 0.33103 0.0
C374 C 0.84157 0.63025 0.33897 0.0
C375 C 0.88403 0.48756 0.2967 0.0
C376 C 0.90403 0.60376 0.23342 0.0
C377 C 0.94491 0.6128 0.24212 0.0
C378 C 0.87712 0.58656 0.2579 0.0
C379 C 0.89137 0.57772 0.29206 0.0
C380 C 0.93273 0.58613 0.30105 0.0
C381 C 0.95905 0.60374 0.27596 0.0
C382 C 0.83322 0.57805 0.24711 0.0
C383 C 0.949 0.57676 0.33712 0.0
H384 H 0.7773 0.58714 0.36412 0.0
H385 H 0.81262 0.46744 0.32758 0.0
H386 H 0.87445 0.63801 0.34273 0.0
H387 H 0.8315 0.64428 0.31394 0.0
H388 H 0.8234 0.64424 0.36049 0.0
H389 H 0.87956 0.45493 0.30443 0.0
H390 H 0.87765 0.4903 0.26829 0.0
H391 H 0.91666 0.49602 0.30099 0.0
H392 H 0.89268 0.61064 0.20743 0.0
H393 H 0.99057 0.61069 0.28296 0.0
H394 H 0.81169 0.59469 0.26461 0.0
H395 H 0.82652 0.54473 0.24959 0.0
H396 H 0.82687 0.58752 0.21973 0.0
H397 H 0.93205 0.59513 0.35684 0.0
H398 H 0.98232 0.58365 0.33956 0.0
H399 H 0.94392 0.54388 0.34351 0.0
C400 C 0.40115 0.40267 0.73264 0.0
C401 C 0.39053 0.44353 0.74019 0.0
C402 C 0.41908 0.37727 0.75787 0.0
C403 C 0.42726 0.39308 0.79165 0.0
C404 C 0.41724 0.43445 0.79952 0.0
C405 C 0.39871 0.45921 0.7737 0.0
C406 C 0.42908 0.33327 0.74824 0.0
C407 C 0.42603 0.45242 0.8351 0.0
C408 C 0.44044 0.30301 0.8525 0.0
C409 C 0.48215 0.29447 0.84715 0.0
C410 C 0.42242 0.33829 0.83781 0.0
C411 C 0.44699 0.36561 0.81786 0.0
C412 C 0.49007 0.35984 0.81667 0.0
C413 C 0.5071 0.32406 0.83105 0.0
C414 C 0.37639 0.34331 0.83987 0.0
C415 C 0.51761 0.38862 0.79644 0.0
H416 H 0.39487 0.39005 0.70696 0.0
H417 H 0.39059 0.49073 0.77977 0.0
H418 H 0.46262 0.32785 0.75072 0.0
H419 H 0.41332 0.31182 0.76637 0.0
H420 H 0.41971 0.32553 0.72109 0.0
H421 H 0.417 0.4853 0.83691 0.0
H422 H 0.40924 0.43489 0.85546 0.0
H423 H 0.45928 0.44972 0.84112 0.0
H424 H 0.42107 0.28018 0.86496 0.0
H425 H 0.53953 0.31772 0.8273 0.0
H426 H 0.36238 0.33198 0.81523 0.0
H427 H 0.36778 0.3761 0.84289 0.0
H428 H 0.36314 0.3255 0.86195 0.0
H429 H 0.51531 0.38143 0.76814 0.0
H430 H 0.55029 0.38537 0.8044 0.0
H431 H 0.50807 0.42108 0.8001 0.0
C432 C 0.54812 0.90522 0.27425 0.0
C433 C 0.5634 0.89681 0.24065 0.0
C434 C 0.5734 0.92316 0.29999 0.0
C435 C 0.61491 0.93229 0.29197 0.0
C436 C 0.63028 0.92404 0.25806 0.0
C437 C 0.60436 0.90675 0.2329 0.0
C438 C 0.55588 0.93209 0.33571 0.0
C439 C 0.67439 0.93316 0.24825 0.0
C440 C 0.68612 0.00992 0.33181 0.0
C441 C 0.71498 0.98404 0.3478 0.0
C442 C 0.64991 0.99397 0.31733 0.0
C443 C 0.64304 0.95101 0.3182 0.0
C444 C 0.66975 0.92551 0.33791 0.0
C445 C 0.70543 0.94248 0.35278 0.0
C446 C 0.62178 0.02248 0.29742 0.0
C447 C 0.66357 0.87958 0.33957 0.0
H448 H 0.51654 0.8976 0.28049 0.0
H449 H 0.61665 0.90035 0.20713 0.0
H450 H 0.57188 0.91316 0.35562 0.0
H451 H 0.56109 0.96479 0.3427 0.0
H452 H 0.52242 0.92552 0.33714 0.0
H453 H 0.68171 0.92386 0.221 0.0
H454 H 0.68058 0.96655 0.25094 0.0
H455 H 0.69561 0.91675 0.26617 0.0
H456 H 0.69329 0.04223 0.32834 0.0
H457 H 0.72775 0.92242 0.36512 0.0
H458 H 0.58912 0.01377 0.30117 0.0
H459 H 0.62871 0.02025 0.26907 0.0
H460 H 0.62596 0.055 0.3056 0.0
H461 H 0.63062 0.87181 0.34284 0.0
H462 H 0.68132 0.86553 0.36132 0.0
H463 H 0.67414 0.86561 0.31466 0.0
C464 C 0.01455 0.18363 0.84703 0.0
C465 C 0.0413 0.21549 0.8566 0.0
C466 C 0.02957 0.14722 0.83218 0.0
C467 C 0.07226 0.14311 0.82611 0.0
C468 C 0.09967 0.17307 0.83964 0.0
C469 C 0.08378 0.20897 0.85504 0.0
C470 C 0.99931 0.11558 0.81911 0.0
C471 C 0.14542 0.1698 0.83392 0.0
C472 C 0.11596 0.04791 0.78101 0.0
C473 C 0.1165 0.06085 0.74597 0.0
C474 C 0.101 0.07391 0.80761 0.0
C475 C 0.0868 0.11378 0.7989 0.0
C476 C 0.08643 0.12649 0.76349 0.0
C477 C 0.10097 0.09986 0.73759 0.0
C478 C 0.10131 0.05911 0.84499 0.0
C479 C 0.07139 0.16869 0.75287 0.0
H480 H 0.98162 0.18851 0.84861 0.0
H481 H 0.10451 0.23361 0.86238 0.0
H482 H 0.99451 0.11992 0.79062 0.0
H483 H 0.01117 0.08396 0.82317 0.0
H484 H 0.96906 0.11852 0.83235 0.0
H485 H 0.16277 0.19077 0.85148 0.0
H486 H 0.15622 0.13786 0.83822 0.0
H487 H 0.15262 0.17816 0.80646 0.0
H488 H 0.12794 0.01786 0.78778 0.0
H489 H 0.10102 0.11021 0.71065 0.0
H490 H 0.07133 0.06541 0.85773 0.0
H491 H 0.12516 0.07603 0.85989 0.0
H492 H 0.10794 0.02567 0.84687 0.0
H493 H 0.03888 0.17276 0.76087 0.0
H494 H 0.07356 0.17388 0.72422 0.0
H495 H 0.08971 0.19275 0.7663 0.0
C496 C 0.09227 0.41476 0.77936 0.0
C497 C 0.05344 0.3979 0.7724 0.0
C498 C 0.11804 0.42799 0.75233 0.0
C499 C 0.10461 0.42495 0.7172 0.0
C500 C 0.06464 0.40994 0.70993 0.0
C501 C 0.03954 0.39631 0.73765 0.0
C502 C 0.16032 0.44406 0.76149 0.0
C503 C 0.0489 0.40691 0.67292 0.0
C504 C 0.17479 0.49217 0.66436 0.0
C505 C 0.20622 0.46424 0.6563 0.0
C506 C 0.13821 0.47888 0.68013 0.0
C507 C 0.13359 0.43684 0.68877 0.0
C508 C 0.16299 0.40796 0.67662 0.0
C509 C 0.19901 0.42206 0.66021 0.0
C510 C 0.10705 0.51056 0.69145 0.0
C511 C 0.15913 0.36281 0.68501 0.0
H512 H 0.10327 0.41648 0.80607 0.0
H513 H 0.00962 0.38329 0.73197 0.0
H514 H 0.1842 0.4247 0.74891 0.0
H515 H 0.16412 0.47584 0.75148 0.0
H516 H 0.166 0.44434 0.79013 0.0
H517 H 0.01507 0.40239 0.67209 0.0
H518 H 0.0568 0.43494 0.6578 0.0
H519 H 0.06367 0.3804 0.6597 0.0
H520 H 0.18025 0.52485 0.66108 0.0
H521 H 0.22334 0.40043 0.65412 0.0
H522 H 0.11179 0.51789 0.7195 0.0
H523 H 0.07529 0.49866 0.68843 0.0
H524 H 0.11012 0.5395 0.67624 0.0
H525 H 0.16722 0.35775 0.71287 0.0
H526 H 0.17994 0.34378 0.66862 0.0
H527 H 0.12709 0.3521 0.68118 0.0
C528 C 0.60399 0.54146 0.23709 0.0
C529 C 0.60602 0.55496 0.27194 0.0
C530 C 0.59061 0.56797 0.21028 0.0
C531 C 0.5792 0.60884 0.2186 0.0
C532 C 0.57999 0.62209 0.25388 0.0
C533 C 0.59324 0.59503 0.28 0.0
C534 C 0.58985 0.55265 0.17305 0.0
C535 C 0.56767 0.66529 0.26408 0.0
C536 C 0.58166 0.70284 0.16082 0.0
C537 C 0.5396 0.71156 0.15877 0.0
C538 C 0.59546 0.66656 0.17703 0.0
C539 C 0.56638 0.63855 0.19104 0.0
C540 C 0.52402 0.64478 0.18464 0.0
C541 C 0.51113 0.68141 0.16877 0.0
C542 C 0.64094 0.66085 0.18295 0.0
C543 C 0.49196 0.61538 0.19837 0.0
H544 H 0.614 0.51061 0.23057 0.0
H545 H 0.59445 0.60574 0.30683 0.0
H546 H 0.56014 0.56033 0.16041 0.0
H547 H 0.6144 0.56814 0.15785 0.0
H548 H 0.59473 0.51889 0.17144 0.0
H549 H 0.5699 0.67063 0.29271 0.0
H550 H 0.58769 0.68791 0.2506 0.0
H551 H 0.53558 0.67143 0.25578 0.0
H552 H 0.60374 0.72617 0.15323 0.0
H553 H 0.47852 0.68803 0.16693 0.0
H554 H 0.64991 0.62825 0.17922 0.0
H555 H 0.64854 0.66946 0.21028 0.0
H556 H 0.65949 0.68036 0.16508 0.0
H557 H 0.50188 0.58301 0.19492 0.0
H558 H 0.46188 0.61975 0.18513 0.0
H559 H 0.48757 0.62078 0.22678 0.0
C560 C 0.46692 0.10747 0.73634 0.0
C561 C 0.45358 0.10963 0.77123 0.0
C562 C 0.44056 0.09323 0.70974 0.0
C563 C 0.4 0.08109 0.7183 0.0
C564 C 0.38691 0.08209 0.75361 0.0
C565 C 0.41381 0.09619 0.77953 0.0
C566 C 0.45571 0.09229 0.67246 0.0
C567 C 0.34403 0.06902 0.76408 0.0
C568 C 0.30558 0.08097 0.6611 0.0
C569 C 0.29761 0.03869 0.65957 0.0
C570 C 0.34175 0.09568 0.67687 0.0
C571 C 0.37042 0.06732 0.69097 0.0
C572 C 0.36496 0.02475 0.68499 0.0
C573 C 0.32844 0.01092 0.66953 0.0
C574 C 0.34665 0.14137 0.68228 0.0
C575 C 0.39511 0.99344 0.6988 0.0
H576 H 0.49753 0.11795 0.72962 0.0
H577 H 0.40322 0.09749 0.80638 0.0
H578 H 0.44838 0.06235 0.66004 0.0
H579 H 0.43985 0.11652 0.65715 0.0
H580 H 0.48938 0.0976 0.67072 0.0
H581 H 0.33879 0.07152 0.7927 0.0
H582 H 0.32096 0.08842 0.7505 0.0
H583 H 0.33852 0.03669 0.7561 0.0
H584 H 0.28178 0.10252 0.65348 0.0
H585 H 0.32246 0.97815 0.66803 0.0
H586 H 0.37903 0.15089 0.6783 0.0
H587 H 0.33809 0.14922 0.70957 0.0
H588 H 0.32667 0.1593 0.66432 0.0
H589 H 0.42723 1.00399 0.69509 0.0
H590 H 0.39126 0.96311 0.68581 0.0
H591 H 0.39002 0.98924 0.72727 0.0
C592 C 0.00821 0.82795 0.18003 0.0
C593 C 0.98078 0.79901 0.1661 0.0
C594 C 0.99388 0.86436 0.19537 0.0
C595 C 0.95106 0.87154 0.19732 0.0
C596 C 0.92368 0.84483 0.1795 0.0
C597 C 0.93897 0.80881 0.16384 0.0
C598 C 0.0243 0.89242 0.21323 0.0
C599 C 0.87782 0.85151 0.18068 0.0
C600 C 0.91318 0.91265 0.28417 0.0
C601 C 0.90291 0.95346 0.27616 0.0
C602 C 0.9289 0.88606 0.2587 0.0
C603 C 0.93494 0.90055 0.22416 0.0
C604 C 0.92581 0.94202 0.21596 0.0
C605 C 0.90975 0.96803 0.24207 0.0
C606 C 0.93845 0.84212 0.26877 0.0
C607 C 0.93219 0.95863 0.17953 0.0
H608 H 0.04066 0.82052 0.1815 0.0
H609 H 0.91768 0.78642 0.15319 0.0
H610 H 0.01571 0.92515 0.20963 0.0
H611 H 0.02431 0.88594 0.24171 0.0
H612 H 0.056 0.8877 0.20319 0.0
H613 H 0.86167 0.83328 0.16032 0.0
H614 H 0.86602 0.84191 0.20666 0.0
H615 H 0.87017 0.88447 0.17716 0.0
H616 H 0.90819 0.90104 0.3104 0.0
H617 H 0.90178 0.99947 0.23557 0.0
H618 H 0.97138 0.83539 0.2639 0.0
H619 H 0.92013 0.82064 0.25249 0.0
H620 H 0.93172 0.83571 0.29672 0.0
H621 H 0.96359 0.95127 0.17011 0.0
H622 H 0.92761 0.99244 0.17825 0.0
H623 H 0.91021 0.94374 0.16133 0.0
loop_
_geom_bond_atom_site_label_1
_geom_bond_atom_site_label_2
_geom_bond_distance
_geom_bond_site_symmetry_2
_ccdc_geom_bond_type
O0 Cd1 2.223 . S
O0 C8 1.315 . S
Cd1 O0 2.223 . S
Cd1 O4 2.297 . S
Cd1 O5 2.439 1_655 S
Cd1 O11 2.240 1_655 S
Cd2 O3 2.242 . S
Cd2 O10 2.223 . S
Cd2 O12 2.297 . S
Cd2 O13 2.439 . S
O3 Cd2 2.242 . S
O3 C8 1.276 1_455 S
O4 Cd1 2.297 . S
O4 C6 1.219 1_655 S
O5 Cd1 2.439 1_455 S
O5 C6 1.230 . S
C6 O4 1.219 1_455 S
C6 O5 1.230 . S
C7 O12 1.247 . S
C7 O13 1.208 . S
C8 O0 1.315 . S
C8 O3 1.276 1_655 S
C9 O10 1.315 1_655 S
C9 O11 1.279 1_655 S
O10 Cd2 2.223 . S
O10 C9 1.315 1_455 S
O11 Cd1 2.240 1_455 S
O11 C9 1.279 1_455 S
O12 Cd2 2.297 . S
O12 C7 1.247 . S
O13 Cd2 2.439 . S
O13 C7 1.208 . S
O14 Cd15 2.223 . S
O14 C22 1.315 . S
Cd15 O14 2.223 . S
Cd15 O18 2.297 . S
Cd15 O19 2.439 . S
Cd15 O25 2.240 . S
Cd16 O17 2.240 . S
Cd16 O24 2.223 . S
Cd16 O26 2.297 . S
Cd16 O27 2.439 . S
O17 Cd16 2.240 . S
O17 C22 1.279 . S
O18 Cd15 2.297 . S
O18 C20 1.247 . S
O19 Cd15 2.439 . S
O19 C20 1.208 . S
C20 O18 1.247 . S
C20 O19 1.208 . S
C21 O26 1.247 . S
C21 O27 1.208 . S
C22 O14 1.315 . S
C22 O17 1.279 . S
C23 O24 1.315 . S
C23 O25 1.279 . S
O24 Cd16 2.223 . S
O24 C23 1.315 . S
O25 Cd15 2.240 . S
O25 C23 1.279 . S
O26 Cd16 2.297 . S
O26 C21 1.247 . S
O27 Cd16 2.439 . S
O27 C21 1.208 . S
O28 Cd29 2.223 . S
O28 C36 1.315 . S
Cd29 O28 2.223 . S
Cd29 O32 2.297 . S
Cd29 O33 2.439 . S
Cd29 O39 2.240 . S
Cd30 O31 2.240 . S
Cd30 O38 2.223 . S
Cd30 O40 2.297 . S
Cd30 O41 2.439 . S
O31 Cd30 2.240 . S
O31 C36 1.279 . S
O32 Cd29 2.297 . S
O32 C34 1.247 . S
O33 Cd29 2.439 . S
O33 C34 1.208 . S
C34 O32 1.247 . S
C34 O33 1.208 . S
C35 O40 1.247 . S
C35 O41 1.208 . S
C36 O28 1.315 . S
C36 O31 1.279 . S
C37 O38 1.315 . S
C37 O39 1.279 . S
O38 Cd30 2.223 . S
O38 C37 1.315 . S
O39 Cd29 2.240 . S
O39 C37 1.279 . S
O40 Cd30 2.297 . S
O40 C35 1.247 . S
O41 Cd30 2.439 . S
O41 C35 1.208 . S
O42 Cd43 2.223 . S
O42 C50 1.315 . S
Cd43 O42 2.223 . S
Cd43 O46 2.297 . S
Cd43 O47 2.439 1_545 S
Cd43 O53 2.240 1_545 S
Cd44 O45 2.242 . S
Cd44 O52 2.223 . S
Cd44 O54 2.297 . S
Cd44 O55 2.439 . S
O45 Cd44 2.242 . S
O45 C50 1.276 1_565 S
O46 Cd43 2.297 . S
O46 C48 1.219 1_545 S
O47 Cd43 2.439 1_565 S
O47 C48 1.230 . S
C48 O46 1.219 1_565 S
C48 O47 1.230 . S
C49 O54 1.247 . S
C49 O55 1.208 . S
C50 O42 1.315 . S
C50 O45 1.276 1_545 S
C51 O52 1.315 1_545 S
C51 O53 1.279 1_545 S
O52 Cd44 2.223 . S
O52 C51 1.315 1_565 S
O53 Cd43 2.240 1_565 S
O53 C51 1.279 1_565 S
O54 Cd44 2.297 . S
O54 C49 1.247 . S
O55 Cd44 2.439 . S
O55 C49 1.208 . S
O56 Cd57 2.223 . S
O56 C64 1.315 . S
Cd57 O56 2.223 . S
Cd57 O60 2.297 . S
Cd57 O61 2.439 1_455 S
Cd57 O67 2.240 1_455 S
Cd58 O59 2.242 . S
Cd58 O66 2.223 . S
Cd58 O68 2.297 . S
Cd58 O69 2.439 . S
O59 Cd58 2.242 . S
O59 C64 1.276 1_655 S
O60 Cd57 2.297 . S
O60 C62 1.219 1_455 S
O61 Cd57 2.439 1_655 S
O61 C62 1.230 . S
C62 O60 1.219 1_655 S
C62 O61 1.230 . S
C63 O68 1.247 . S
C63 O69 1.208 . S
C64 O56 1.315 . S
C64 O59 1.276 1_455 S
C65 O66 1.315 1_455 S
C65 O67 1.279 1_455 S
O66 Cd58 2.223 . S
O66 C65 1.315 1_655 S
O67 Cd57 2.240 1_655 S
O67 C65 1.279 1_655 S
O68 Cd58 2.297 . S
O68 C63 1.247 . S
O69 Cd58 2.439 . S
O69 C63 1.208 . S
O70 Cd71 2.223 . S
O70 C78 1.315 . S
Cd71 O70 2.223 . S
Cd71 O74 2.297 . S
Cd71 O75 2.439 . S
Cd71 O81 2.240 . S
Cd72 O73 2.240 . S
Cd72 O80 2.223 . S
Cd72 O82 2.297 . S
Cd72 O83 2.439 . S
O73 Cd72 2.240 . S
O73 C78 1.279 . S
O74 Cd71 2.297 . S
O74 C76 1.247 . S
O75 Cd71 2.439 . S
O75 C76 1.208 . S
C76 O74 1.247 . S
C76 O75 1.208 . S
C77 O82 1.247 . S
C77 O83 1.208 . S
C78 O70 1.315 . S
C78 O73 1.279 . S
C79 O80 1.315 . S
C79 O81 1.279 . S
O80 Cd72 2.223 . S
O80 C79 1.315 . S
O81 Cd71 2.240 . S
O81 C79 1.279 . S
O82 Cd72 2.297 . S
O82 C77 1.247 . S
O83 Cd72 2.439 . S
O83 C77 1.208 . S
O84 Cd85 2.223 . S
O84 C92 1.315 . S
Cd85 O84 2.223 . S
Cd85 O88 2.297 . S
Cd85 O89 2.439 . S
Cd85 O95 2.240 . S
Cd86 O87 2.240 . S
Cd86 O94 2.223 . S
Cd86 O96 2.297 . S
Cd86 O97 2.439 . S
O87 Cd86 2.240 . S
O87 C92 1.279 . S
O88 Cd85 2.297 . S
O88 C90 1.247 . S
O89 Cd85 2.439 . S
O89 C90 1.208 . S
C90 O88 1.247 . S
C90 O89 1.208 . S
C91 O96 1.247 . S
C91 O97 1.208 . S
C92 O84 1.315 . S
C92 O87 1.279 . S
C93 O94 1.315 . S
C93 O95 1.279 . S
O94 Cd86 2.223 . S
O94 C93 1.315 . S
O95 Cd85 2.240 . S
O95 C93 1.279 . S
O96 Cd86 2.297 . S
O96 C91 1.247 . S
O97 Cd86 2.439 . S
O97 C91 1.208 . S
O98 Cd99 2.223 . S
O98 C106 1.315 . S
Cd99 O98 2.223 . S
Cd99 O102 2.297 . S
Cd99 O103 2.439 1_565 S
Cd99 O109 2.240 1_565 S
Cd100 O101 2.242 . S
Cd100 O108 2.223 . S
Cd100 O110 2.297 . S
Cd100 O111 2.439 . S
O101 Cd100 2.242 . S
O101 C106 1.276 1_545 S
O102 Cd99 2.297 . S
O102 C104 1.219 1_565 S
O103 Cd99 2.439 1_545 S
O103 C104 1.230 . S
C104 O102 1.219 1_545 S
C104 O103 1.230 . S
C105 O110 1.247 . S
C105 O111 1.208 . S
C106 O98 1.315 . S
C106 O101 1.276 1_565 S
C107 O108 1.315 1_565 S
C107 O109 1.279 1_565 S
O108 Cd100 2.223 . S
O108 C107 1.315 1_545 S
O109 Cd99 2.240 1_545 S
O109 C107 1.279 1_545 S
O110 Cd100 2.297 . S
O110 C105 1.247 . S
O111 Cd100 2.439 . S
O111 C105 1.208 . S
C112 C113 1.391 . S
C112 C114 1.394 . S
C112 H128 0.931 . S
C113 C112 1.391 . S
C113 C117 1.376 1_655 S
C114 C112 1.394 . S
C114 C115 1.369 1_655 S
C114 C118 1.531 1_556 S
C115 C114 1.369 1_455 S
C115 C116 1.410 . S
C115 C123 1.503 1_556 S
C116 C115 1.410 . S
C116 C117 1.392 . S
C116 C119 1.511 . S
C117 C113 1.376 1_455 S
C117 C116 1.392 . S
C117 H129 0.929 . S
C118 C114 1.531 1_554 S
C118 H130 0.960 . S
C118 H131 0.962 . S
C118 H132 0.960 . S
C119 C116 1.511 . S
C119 H133 0.961 . S
C119 H134 0.961 . S
C119 H135 0.961 . S
C120 C121 1.370 1_655 S
C120 C122 1.363 . S
C120 H136 0.931 . S
C121 C120 1.370 1_455 S
C121 C125 1.408 . S
C122 C120 1.363 . S
C122 C123 1.370 1_655 S
C122 C126 1.524 1_554 S
C123 C115 1.503 1_554 S
C123 C122 1.370 1_455 S
C123 C124 1.403 . S
C124 C123 1.403 . S
C124 C125 1.404 . S
C124 C127 1.539 . S
C125 C121 1.408 . S
C125 C124 1.404 . S
C125 H137 0.930 . S
C126 C122 1.524 1_556 S
C126 H138 0.956 . S
C126 H139 0.961 . S
C126 H140 0.961 . S
C127 C124 1.539 . S
C127 H141 0.958 . S
C127 H142 0.961 . S
C127 H143 0.960 . S
H128 C112 0.931 . S
H129 C117 0.929 . S
H130 C118 0.960 . S
H131 C118 0.962 . S
H132 C118 0.960 . S
H133 C119 0.961 . S
H134 C119 0.961 . S
H135 C119 0.961 . S
H136 C120 0.931 . S
H137 C125 0.930 . S
H138 C126 0.956 . S
H139 C126 0.961 . S
H140 C126 0.961 . S
H141 C127 0.958 . S
H142 C127 0.961 . S
H143 C127 0.960 . S
C144 C145 1.391 . S
C144 C146 1.394 . S
C144 H160 0.931 . S
C145 C144 1.391 . S
C145 C149 1.376 . S
C146 C144 1.394 . S
C146 C147 1.369 . S
C146 C150 1.531 . S
C147 C146 1.369 . S
C147 C148 1.410 . S
C147 C155 1.503 . S
C148 C147 1.410 . S
C148 C149 1.392 . S
C148 C151 1.511 . S
C149 C145 1.376 . S
C149 C148 1.392 . S
C149 H161 0.929 . S
C150 C146 1.531 . S
C150 H162 0.960 . S
C150 H163 0.962 . S
C150 H164 0.960 . S
C151 C148 1.511 . S
C151 H165 0.961 . S
C151 H166 0.961 . S
C151 H167 0.961 . S
C152 C153 1.370 . S
C152 C154 1.363 . S
C152 H168 0.931 . S
C153 C152 1.370 . S
C153 C157 1.408 . S
C154 C152 1.363 . S
C154 C155 1.370 . S
C154 C158 1.524 . S
C155 C147 1.503 . S
C155 C154 1.370 . S
C155 C156 1.403 . S
C156 C155 1.403 . S
C156 C157 1.404 . S
C156 C159 1.539 . S
C157 C153 1.408 . S
C157 C156 1.404 . S
C157 H169 0.930 . S
C158 C154 1.524 . S
C158 H170 0.956 . S
C158 H171 0.961 . S
C158 H172 0.961 . S
C159 C156 1.539 . S
C159 H173 0.958 . S
C159 H174 0.961 . S
C159 H175 0.960 . S
H160 C144 0.931 . S
H161 C149 0.929 . S
H162 C150 0.960 . S
H163 C150 0.962 . S
H164 C150 0.960 . S
H165 C151 0.961 . S
H166 C151 0.961 . S
H167 C151 0.961 . S
H168 C152 0.931 . S
H169 C157 0.930 . S
H170 C158 0.956 . S
H171 C158 0.961 . S
H172 C158 0.961 . S
H173 C159 0.958 . S
H174 C159 0.961 . S
H175 C159 0.960 . S
C176 C177 1.391 . S
C176 C178 1.394 . S
C176 H192 0.931 . S
C177 C176 1.391 . S
C177 C181 1.376 . S
C178 C176 1.394 . S
C178 C179 1.369 . S
C178 C182 1.531 . S
C179 C178 1.369 . S
C179 C180 1.410 . S
C179 C187 1.503 1_564 S
C180 C179 1.410 . S
C180 C181 1.392 . S
C180 C183 1.511 . S
C181 C177 1.376 . S
C181 C180 1.392 . S
C181 H193 0.929 . S
C182 C178 1.531 . S
C182 H194 0.960 1_554 S
C182 H195 0.962 1_565 S
C182 H196 0.960 . S
C183 C180 1.511 . S
C183 H197 0.961 . S
C183 H198 0.961 1_564 S
C183 H199 0.961 1_554 S
C184 C185 1.370 . S
C184 C186 1.363 . S
C184 H200 0.931 . S
C185 C184 1.370 . S
C185 C189 1.408 . S
C186 C184 1.363 . S
C186 C187 1.370 . S
C186 C190 1.524 1_556 S
C187 C179 1.503 1_546 S
C187 C186 1.370 . S
C187 C188 1.403 1_545 S
C188 C187 1.403 1_565 S
C188 C189 1.404 1_565 S
C188 C191 1.539 . S
C189 C185 1.408 . S
C189 C188 1.404 1_545 S
C189 H201 0.930 . S
C190 C186 1.524 1_554 S
C190 H202 0.956 . S
C190 H203 0.961 . S
C190 H204 0.961 . S
C191 C188 1.539 . S
C191 H205 0.958 . S
C191 H206 0.961 . S
C191 H207 0.960 . S
H192 C176 0.931 . S
H193 C181 0.929 . S
H194 C182 0.960 1_556 S
H195 C182 0.962 1_545 S
H196 C182 0.960 . S
H197 C183 0.961 . S
H198 C183 0.961 1_546 S
H199 C183 0.961 1_556 S
H200 C184 0.931 . S
H201 C189 0.930 . S
H202 C190 0.956 . S
H203 C190 0.961 . S
H204 C190 0.961 . S
H205 C191 0.958 . S
H206 C191 0.961 . S
H207 C191 0.960 . S
C208 C209 1.391 1_565 S
C208 C210 1.394 . S
C208 H224 0.931 . S
C209 C208 1.391 1_545 S
C209 C213 1.376 . S
C210 C208 1.394 . S
C210 C211 1.369 . S
C210 C214 1.531 . S
C211 C210 1.369 . S
C211 C212 1.410 1_665 S
C211 C219 1.503 1_655 S
C212 C211 1.410 1_445 S
C212 C213 1.392 1_455 S
C212 C215 1.511 . S
C213 C209 1.376 . S
C213 C212 1.392 1_655 S
C213 H225 0.929 . S
C214 C210 1.531 . S
C214 H226 0.960 . S
C214 H227 0.962 . S
C214 H228 0.960 . S
C215 C212 1.511 . S
C215 H229 0.961 . S
C215 H230 0.961 . S
C215 H231 0.961 1_545 S
C216 C217 1.370 1_545 S
C216 C218 1.363 . S
C216 H232 0.931 . S
C217 C216 1.370 1_565 S
C217 C221 1.408 . S
C218 C216 1.363 . S
C218 C219 1.370 1_545 S
C218 C222 1.516 1_455 S
C219 C211 1.503 1_455 S
C219 C218 1.370 1_565 S
C219 C220 1.403 . S
C220 C219 1.403 . S
C220 C221 1.404 . S
C220 C223 1.539 . S
C221 C217 1.408 . S
C221 C220 1.404 . S
C221 H233 0.930 . S
C222 C218 1.516 1_655 S
C222 H234 0.975 . S
C222 H235 0.957 1_655 S
C222 H236 0.954 1_655 S
C223 C220 1.539 . S
C223 H237 0.958 . S
C223 H238 0.961 . S
C223 H239 0.960 . S
H224 C208 0.931 . S
H225 C213 0.929 . S
H226 C214 0.960 . S
H227 C214 0.962 . S
H228 C214 0.960 . S
H229 C215 0.961 . S
H230 C215 0.961 . S
H231 C215 0.961 1_565 S
H232 C216 0.931 . S
H233 C221 0.930 . S
H234 C222 0.975 . S
H235 C222 0.957 1_455 S
H236 C222 0.954 1_455 S
H237 C223 0.958 . S
H238 C223 0.961 . S
H239 C223 0.960 . S
C240 C241 1.391 . S
C240 C242 1.394 . S
C240 H256 0.931 . S
C241 C240 1.391 . S
C241 C245 1.376 . S
C242 C240 1.394 . S
C242 C243 1.369 . S
C242 C246 1.531 . S
C243 C242 1.369 . S
C243 C244 1.410 . S
C243 C251 1.503 . S
C244 C243 1.410 . S
C244 C245 1.392 . S
C244 C247 1.511 . S
C245 C241 1.376 . S
C245 C244 1.392 . S
C245 H257 0.929 . S
C246 C242 1.531 . S
C246 H258 0.960 . S
C246 H259 0.962 . S
C246 H260 0.960 . S
C247 C244 1.511 . S
C247 H261 0.961 . S
C247 H262 0.961 . S
C247 H263 0.961 . S
C248 C249 1.370 . S
C248 C250 1.363 . S
C248 H264 0.931 . S
C249 C248 1.370 . S
C249 C253 1.408 . S
C250 C248 1.363 . S
C250 C251 1.370 . S
C250 C254 1.524 . S
C251 C243 1.503 . S
C251 C250 1.370 . S
C251 C252 1.403 . S
C252 C251 1.403 . S
C252 C253 1.404 . S
C252 C255 1.539 . S
C253 C249 1.408 . S
C253 C252 1.404 . S
C253 H265 0.930 . S
C254 C250 1.524 . S
C254 H266 0.956 . S
C254 H267 0.961 . S
C254 H268 0.961 . S
C255 C252 1.539 . S
C255 H269 0.958 . S
C255 H270 0.961 . S
C255 H271 0.960 . S
H256 C240 0.931 . S
H257 C245 0.929 . S
H258 C246 0.960 . S
H259 C246 0.962 . S
H260 C246 0.960 . S
H261 C247 0.961 . S
H262 C247 0.961 . S
H263 C247 0.961 . S
H264 C248 0.931 . S
H265 C253 0.930 . S
H266 C254 0.956 . S
H267 C254 0.961 . S
H268 C254 0.961 . S
H269 C255 0.958 . S
H270 C255 0.961 . S
H271 C255 0.960 . S
C272 C273 1.391 . S
C272 C274 1.394 . S
C272 H288 0.931 . S
C273 C272 1.391 . S
C273 C277 1.376 . S
C274 C272 1.394 . S
C274 C275 1.369 . S
C274 C278 1.531 . S
C275 C274 1.369 . S
C275 C276 1.410 . S
C275 C283 1.503 . S
C276 C275 1.410 . S
C276 C277 1.392 . S
C276 C279 1.511 . S
C277 C273 1.376 . S
C277 C276 1.392 . S
C277 H289 0.929 . S
C278 C274 1.531 . S
C278 H290 0.960 . S
C278 H291 0.962 . S
C278 H292 0.960 . S
C279 C276 1.511 . S
C279 H293 0.961 . S
C279 H294 0.961 . S
C279 H295 0.961 . S
C280 C281 1.370 . S
C280 C282 1.363 . S
C280 H296 0.931 . S
C281 C280 1.370 . S
C281 C285 1.408 . S
C282 C280 1.363 . S
C282 C283 1.370 . S
C282 C286 1.524 . S
C283 C275 1.503 . S
C283 C282 1.370 . S
C283 C284 1.403 . S
C284 C283 1.403 . S
C284 C285 1.404 . S
C284 C287 1.539 . S
C285 C281 1.408 . S
C285 C284 1.404 . S
C285 H297 0.930 . S
C286 C282 1.524 . S
C286 H298 0.956 . S
C286 H299 0.961 . S
C286 H300 0.961 . S
C287 C284 1.539 . S
C287 H301 0.958 . S
C287 H302 0.961 . S
C287 H303 0.960 . S
H288 C272 0.931 . S
H289 C277 0.929 . S
H290 C278 0.960 . S
H291 C278 0.962 . S
H292 C278 0.960 . S
H293 C279 0.961 . S
H294 C279 0.961 . S
H295 C279 0.961 . S
H296 C280 0.931 . S
H297 C285 0.930 . S
H298 C286 0.956 . S
H299 C286 0.961 . S
H300 C286 0.961 . S
H301 C287 0.958 . S
H302 C287 0.961 . S
H303 C287 0.960 . S
C304 C305 1.391 . S
C304 C306 1.394 . S
C304 H320 0.931 . S
C305 C304 1.391 . S
C305 C309 1.376 . S
C306 C304 1.394 . S
C306 C307 1.369 . S
C306 C310 1.531 . S
C307 C306 1.369 . S
C307 C308 1.410 . S
C307 C315 1.503 . S
C308 C307 1.410 . S
C308 C309 1.392 . S
C308 C311 1.511 . S
C309 C305 1.376 . S
C309 C308 1.392 . S
C309 H321 0.929 . S
C310 C306 1.531 . S
C310 H322 0.960 . S
C310 H323 0.962 . S
C310 H324 0.960 . S
C311 C308 1.511 . S
C311 H325 0.961 . S
C311 H326 0.961 . S
C311 H327 0.961 . S
C312 C313 1.370 . S
C312 C314 1.363 . S
C312 H328 0.931 . S
C313 C312 1.370 . S
C313 C317 1.408 . S
C314 C312 1.363 . S
C314 C315 1.370 . S
C314 C318 1.524 . S
C315 C307 1.503 . S
C315 C314 1.370 . S
C315 C316 1.403 . S
C316 C315 1.403 . S
C316 C317 1.404 . S
C316 C319 1.539 . S
C317 C313 1.408 . S
C317 C316 1.404 . S
C317 H329 0.930 . S
C318 C314 1.524 . S
C318 H330 0.956 . S
C318 H331 0.961 . S
C318 H332 0.961 . S
C319 C316 1.539 . S
C319 H333 0.958 . S
C319 H334 0.961 . S
C319 H335 0.960 . S
H320 C304 0.931 . S
H321 C309 0.929 . S
H322 C310 0.960 . S
H323 C310 0.962 . S
H324 C310 0.960 . S
H325 C311 0.961 . S
H326 C311 0.961 . S
H327 C311 0.961 . S
H328 C312 0.931 . S
H329 C317 0.930 . S
H330 C318 0.956 . S
H331 C318 0.961 . S
H332 C318 0.961 . S
H333 C319 0.958 . S
H334 C319 0.961 . S
H335 C319 0.960 . S
C336 C337 1.391 . S
C336 C338 1.394 . S
C336 H352 0.931 . S
C337 C336 1.391 . S
C337 C341 1.376 . S
C338 C336 1.394 . S
C338 C339 1.369 . S
C338 C342 1.531 . S
C339 C338 1.369 . S
C339 C340 1.410 . S
C339 C347 1.503 . S
C340 C339 1.410 . S
C340 C341 1.392 . S
C340 C343 1.511 . S
C341 C337 1.376 . S
C341 C340 1.392 . S
C341 H353 0.929 . S
C342 C338 1.531 . S
C342 H354 0.960 . S
C342 H355 0.962 . S
C342 H356 0.960 . S
C343 C340 1.511 . S
C343 H357 0.961 . S
C343 H358 0.961 . S
C343 H359 0.961 . S
C344 C345 1.370 . S
C344 C346 1.363 . S
C344 H360 0.931 . S
C345 C344 1.370 . S
C345 C349 1.408 . S
C346 C344 1.363 . S
C346 C347 1.370 . S
C346 C350 1.524 . S
C347 C339 1.503 . S
C347 C346 1.370 . S
C347 C348 1.403 . S
C348 C347 1.403 . S
C348 C349 1.404 . S
C348 C351 1.539 . S
C349 C345 1.408 . S
C349 C348 1.404 . S
C349 H361 0.930 . S
C350 C346 1.524 . S
C350 H362 0.956 . S
C350 H363 0.961 . S
C350 H364 0.961 . S
C351 C348 1.539 . S
C351 H365 0.958 . S
C351 H366 0.961 . S
C351 H367 0.960 . S
H352 C336 0.931 . S
H353 C341 0.929 . S
H354 C342 0.960 . S
H355 C342 0.962 . S
H356 C342 0.960 . S
H357 C343 0.961 . S
H358 C343 0.961 . S
H359 C343 0.961 . S
H360 C344 0.931 . S
H361 C349 0.930 . S
H362 C350 0.956 . S
H363 C350 0.961 . S
H364 C350 0.961 . S
H365 C351 0.958 . S
H366 C351 0.961 . S
H367 C351 0.960 . S
C368 C369 1.391 . S
C368 C370 1.394 . S
C368 H384 0.931 . S
C369 C368 1.391 . S
C369 C373 1.376 . S
C370 C368 1.394 . S
C370 C371 1.369 . S
C370 C374 1.531 . S
C371 C370 1.369 . S
C371 C372 1.410 . S
C371 C379 1.503 . S
C372 C371 1.410 . S
C372 C373 1.392 . S
C372 C375 1.511 . S
C373 C369 1.376 . S
C373 C372 1.392 . S
C373 H385 0.929 . S
C374 C370 1.531 . S
C374 H386 0.960 . S
C374 H387 0.962 . S
C374 H388 0.960 . S
C375 C372 1.511 . S
C375 H389 0.961 . S
C375 H390 0.961 . S
C375 H391 0.961 . S
C376 C377 1.370 . S
C376 C378 1.363 . S
C376 H392 0.931 . S
C377 C376 1.370 . S
C377 C381 1.408 . S
C378 C376 1.363 . S
C378 C379 1.370 . S
C378 C382 1.524 . S
C379 C371 1.503 . S
C379 C378 1.370 . S
C379 C380 1.403 . S
C380 C379 1.403 . S
C380 C381 1.404 . S
C380 C383 1.539 . S
C381 C377 1.408 . S
C381 C380 1.404 . S
C381 H393 0.930 . S
C382 C378 1.524 . S
C382 H394 0.956 . S
C382 H395 0.961 . S
C382 H396 0.961 . S
C383 C380 1.539 . S
C383 H397 0.958 . S
C383 H398 0.961 . S
C383 H399 0.960 . S
H384 C368 0.931 . S
H385 C373 0.929 . S
H386 C374 0.960 . S
H387 C374 0.962 . S
H388 C374 0.960 . S
H389 C375 0.961 . S
H390 C375 0.961 . S
H391 C375 0.961 . S
H392 C376 0.931 . S
H393 C381 0.930 . S
H394 C382 0.956 . S
H395 C382 0.961 . S
H396 C382 0.961 . S
H397 C383 0.958 . S
H398 C383 0.961 . S
H399 C383 0.960 . S
C400 C401 1.391 . S
C400 C402 1.394 . S
C400 H416 0.931 . S
C401 C400 1.391 . S
C401 C405 1.376 . S
C402 C400 1.394 . S
C402 C403 1.369 . S
C402 C406 1.531 . S
C403 C402 1.369 . S
C403 C404 1.410 . S
C403 C411 1.503 . S
C404 C403 1.410 . S
C404 C405 1.392 . S
C404 C407 1.511 . S
C405 C401 1.376 . S
C405 C404 1.392 . S
C405 H417 0.929 . S
C406 C402 1.531 . S
C406 H418 0.960 . S
C406 H419 0.962 . S
C406 H420 0.960 . S
C407 C404 1.511 . S
C407 H421 0.961 . S
C407 H422 0.961 . S
C407 H423 0.961 . S
C408 C409 1.370 . S
C408 C410 1.363 . S
C408 H424 0.931 . S
C409 C408 1.370 . S
C409 C413 1.408 . S
C410 C408 1.363 . S
C410 C411 1.370 . S
C410 C414 1.524 . S
C411 C403 1.503 . S
C411 C410 1.370 . S
C411 C412 1.403 . S
C412 C411 1.403 . S
C412 C413 1.404 . S
C412 C415 1.539 . S
C413 C409 1.408 . S
C413 C412 1.404 . S
C413 H425 0.930 . S
C414 C410 1.524 . S
C414 H426 0.956 . S
C414 H427 0.961 . S
C414 H428 0.961 . S
C415 C412 1.539 . S
C415 H429 0.958 . S
C415 H430 0.961 . S
C415 H431 0.960 . S
H416 C400 0.931 . S
H417 C405 0.929 . S
H418 C406 0.960 . S
H419 C406 0.962 . S
H420 C406 0.960 . S
H421 C407 0.961 . S
H422 C407 0.961 . S
H423 C407 0.961 . S
H424 C408 0.931 . S
H425 C413 0.930 . S
H426 C414 0.956 . S
H427 C414 0.961 . S
H428 C414 0.961 . S
H429 C415 0.958 . S
H430 C415 0.961 . S
H431 C415 0.960 . S
C432 C433 1.391 . S
C432 C434 1.394 . S
C432 H448 0.931 . S
C433 C432 1.391 . S
C433 C437 1.376 . S
C434 C432 1.394 . S
C434 C435 1.369 . S
C434 C438 1.531 . S
C435 C434 1.369 . S
C435 C436 1.410 . S
C435 C443 1.503 . S
C436 C435 1.410 . S
C436 C437 1.392 . S
C436 C439 1.511 . S
C437 C433 1.376 . S
C437 C436 1.392 . S
C437 H449 0.929 . S
C438 C434 1.531 . S
C438 H450 0.960 . S
C438 H451 0.962 1_565 S
C438 H452 0.960 . S
C439 C436 1.511 . S
C439 H453 0.961 . S
C439 H454 0.961 . S
C439 H455 0.961 . S
C440 C441 1.370 . S
C440 C442 1.363 . S
C440 H456 0.931 1_565 S
C441 C440 1.370 . S
C441 C445 1.408 . S
C442 C440 1.363 . S
C442 C443 1.370 . S
C442 C446 1.524 . S
C443 C435 1.503 . S
C443 C442 1.370 . S
C443 C444 1.403 . S
C444 C443 1.403 . S
C444 C445 1.404 . S
C444 C447 1.539 . S
C445 C441 1.408 . S
C445 C444 1.404 . S
C445 H457 0.930 . S
C446 C442 1.524 . S
C446 H458 0.969 . S
C446 H459 0.961 . S
C446 H460 0.961 1_565 S
C447 C444 1.539 . S
C447 H461 0.958 . S
C447 H462 0.961 . S
C447 H463 0.960 . S
H448 C432 0.931 . S
H449 C437 0.929 . S
H450 C438 0.960 . S
H451 C438 0.962 1_545 S
H452 C438 0.960 . S
H453 C439 0.961 . S
H454 C439 0.961 . S
H455 C439 0.961 . S
H456 C440 0.931 1_545 S
H457 C445 0.930 . S
H458 C446 0.969 . S
H459 C446 0.961 . S
H460 C446 0.961 1_545 S
H461 C447 0.958 . S
H462 C447 0.961 . S
H463 C447 0.960 . S
C464 C465 1.391 . S
C464 C466 1.394 . S
C464 H480 0.931 1_455 S
C465 C464 1.391 . S
C465 C469 1.376 . S
C466 C464 1.394 . S
C466 C467 1.369 . S
C466 C470 1.531 . S
C467 C466 1.369 . S
C467 C468 1.410 . S
C467 C475 1.503 . S
C468 C467 1.410 . S
C468 C469 1.392 . S
C468 C471 1.511 . S
C469 C465 1.376 . S
C469 C468 1.392 . S
C469 H481 0.929 . S
C470 C466 1.531 . S
C470 H482 0.960 . S
C470 H483 0.962 1_455 S
C470 H484 0.960 1_455 S
C471 C468 1.511 . S
C471 H485 0.961 . S
C471 H486 0.961 . S
C471 H487 0.961 . S
C472 C473 1.370 . S
C472 C474 1.363 . S
C472 H488 0.931 . S
C473 C472 1.370 . S
C473 C477 1.408 . S
C474 C472 1.363 . S
C474 C475 1.370 . S
C474 C478 1.524 . S
C475 C467 1.503 . S
C475 C474 1.370 . S
C475 C476 1.403 . S
C476 C475 1.403 . S
C476 C477 1.404 . S
C476 C479 1.539 . S
C477 C473 1.408 . S
C477 C476 1.404 . S
C477 H489 0.930 . S
C478 C474 1.524 . S
C478 H490 0.956 . S
C478 H491 0.961 . S
C478 H492 0.961 . S
C479 C476 1.539 . S
C479 H493 0.958 . S
C479 H494 0.961 . S
C479 H495 0.960 . S
H480 C464 0.931 1_655 S
H481 C469 0.929 . S
H482 C470 0.960 . S
H483 C470 0.962 1_655 S
H484 C470 0.960 1_655 S
H485 C471 0.961 . S
H486 C471 0.961 . S
H487 C471 0.961 . S
H488 C472 0.931 . S
H489 C477 0.930 . S
H490 C478 0.956 . S
H491 C478 0.961 . S
H492 C478 0.961 . S
H493 C479 0.958 . S
H494 C479 0.961 . S
H495 C479 0.960 . S
C496 C497 1.391 . S
C496 C498 1.394 . S
C496 H512 0.931 . S
C497 C496 1.391 . S
C497 C501 1.376 . S
C498 C496 1.394 . S
C498 C499 1.369 . S
C498 C502 1.531 . S
C499 C498 1.369 . S
C499 C500 1.410 . S
C499 C507 1.503 . S
C500 C499 1.410 . S
C500 C501 1.392 . S
C500 C503 1.511 . S
C501 C497 1.376 . S
C501 C500 1.392 . S
C501 H513 0.929 . S
C502 C498 1.531 . S
C502 H514 0.960 . S
C502 H515 0.962 . S
C502 H516 0.960 . S
C503 C500 1.511 . S
C503 H517 0.961 . S
C503 H518 0.961 . S
C503 H519 0.961 . S
C504 C505 1.370 . S
C504 C506 1.363 . S
C504 H520 0.931 . S
C505 C504 1.370 . S
C505 C509 1.408 . S
C506 C504 1.363 . S
C506 C507 1.370 . S
C506 C510 1.524 . S
C507 C499 1.503 . S
C507 C506 1.370 . S
C507 C508 1.403 . S
C508 C507 1.403 . S
C508 C509 1.404 . S
C508 C511 1.539 . S
C509 C505 1.408 . S
C509 C508 1.404 . S
C509 H521 0.930 . S
C510 C506 1.524 . S
C510 H522 0.956 . S
C510 H523 0.961 . S
C510 H524 0.961 . S
C511 C508 1.539 . S
C511 H525 0.958 . S
C511 H526 0.961 . S
C511 H527 0.960 . S
H512 C496 0.931 . S
H513 C501 0.929 . S
H514 C502 0.960 . S
H515 C502 0.962 . S
H516 C502 0.960 . S
H517 C503 0.961 . S
H518 C503 0.961 . S
H519 C503 0.961 . S
H520 C504 0.931 . S
H521 C509 0.930 . S
H522 C510 0.956 . S
H523 C510 0.961 . S
H524 C510 0.961 . S
H525 C511 0.958 . S
H526 C511 0.961 . S
H527 C511 0.960 . S
C528 C529 1.391 . S
C528 C530 1.394 . S
C528 H544 0.931 . S
C529 C528 1.391 . S
C529 C533 1.376 . S
C530 C528 1.394 . S
C530 C531 1.369 . S
C530 C534 1.531 . S
C531 C530 1.369 . S
C531 C532 1.410 . S
C531 C539 1.503 . S
C532 C531 1.410 . S
C532 C533 1.392 . S
C532 C535 1.511 . S
C533 C529 1.376 . S
C533 C532 1.392 . S
C533 H545 0.929 . S
C534 C530 1.531 . S
C534 H546 0.960 . S
C534 H547 0.962 . S
C534 H548 0.960 . S
C535 C532 1.511 . S
C535 H549 0.961 . S
C535 H550 0.961 . S
C535 H551 0.961 . S
C536 C537 1.370 . S
C536 C538 1.363 . S
C536 H552 0.931 . S
C537 C536 1.370 . S
C537 C541 1.408 . S
C538 C536 1.363 . S
C538 C539 1.370 . S
C538 C542 1.524 . S
C539 C531 1.503 . S
C539 C538 1.370 . S
C539 C540 1.403 . S
C540 C539 1.403 . S
C540 C541 1.404 . S
C540 C543 1.539 . S
C541 C537 1.408 . S
C541 C540 1.404 . S
C541 H553 0.930 . S
C542 C538 1.524 . S
C542 H554 0.956 . S
C542 H555 0.961 . S
C542 H556 0.961 . S
C543 C540 1.539 . S
C543 H557 0.958 . S
C543 H558 0.961 . S
C543 H559 0.960 . S
H544 C528 0.931 . S
H545 C533 0.929 . S
H546 C534 0.960 . S
H547 C534 0.962 . S
H548 C534 0.960 . S
H549 C535 0.961 . S
H550 C535 0.961 . S
H551 C535 0.961 . S
H552 C536 0.931 . S
H553 C541 0.930 . S
H554 C542 0.956 . S
H555 C542 0.961 . S
H556 C542 0.961 . S
H557 C543 0.958 . S
H558 C543 0.961 . S
H559 C543 0.960 . S
C560 C561 1.391 . S
C560 C562 1.394 . S
C560 H576 0.931 . S
C561 C560 1.391 . S
C561 C565 1.376 . S
C562 C560 1.394 . S
C562 C563 1.369 . S
C562 C566 1.531 . S
C563 C562 1.369 . S
C563 C564 1.410 . S
C563 C571 1.503 . S
C564 C563 1.410 . S
C564 C565 1.392 . S
C564 C567 1.511 . S
C565 C561 1.376 . S
C565 C564 1.392 . S
C565 H577 0.929 . S
C566 C562 1.531 . S
C566 H578 0.960 . S
C566 H579 0.962 . S
C566 H580 0.960 . S
C567 C564 1.511 . S
C567 H581 0.961 . S
C567 H582 0.961 . S
C567 H583 0.961 . S
C568 C569 1.370 . S
C568 C570 1.363 . S
C568 H584 0.931 . S
C569 C568 1.370 . S
C569 C573 1.408 1_545 S
C570 C568 1.363 . S
C570 C571 1.370 . S
C570 C574 1.524 . S
C571 C563 1.503 . S
C571 C570 1.370 . S
C571 C572 1.403 . S
C572 C571 1.403 . S
C572 C573 1.404 1_545 S
C572 C575 1.539 1_545 S
C573 C569 1.408 1_565 S
C573 C572 1.404 1_565 S
C573 H585 0.930 . S
C574 C570 1.524 . S
C574 H586 0.956 . S
C574 H587 0.961 . S
C574 H588 0.961 . S
C575 C572 1.539 1_565 S
C575 H589 0.958 . S
C575 H590 0.961 . S
C575 H591 0.960 . S
H576 C560 0.931 . S
H577 C565 0.929 . S
H578 C566 0.960 . S
H579 C566 0.962 . S
H580 C566 0.960 . S
H581 C567 0.961 . S
H582 C567 0.961 . S
H583 C567 0.961 . S
H584 C568 0.931 . S
H585 C573 0.930 . S
H586 C574 0.956 . S
H587 C574 0.961 . S
H588 C574 0.961 . S
H589 C575 0.958 . S
H590 C575 0.961 . S
H591 C575 0.960 . S
C592 C593 1.391 1_455 S
C592 C594 1.394 1_455 S
C592 H608 0.931 . S
C593 C592 1.391 1_655 S
C593 C597 1.376 . S
C594 C592 1.394 1_655 S
C594 C595 1.369 . S
C594 C598 1.531 1_655 S
C595 C594 1.369 . S
C595 C596 1.410 . S
C595 C603 1.503 . S
C596 C595 1.410 . S
C596 C597 1.392 . S
C596 C599 1.511 . S
C597 C593 1.376 . S
C597 C596 1.392 . S
C597 H609 0.929 . S
C598 C594 1.531 1_455 S
C598 H610 0.960 . S
C598 H611 0.962 . S
C598 H612 0.960 . S
C599 C596 1.511 . S
C599 H613 0.961 . S
C599 H614 0.961 . S
C599 H615 0.961 . S
C600 C601 1.370 . S
C600 C602 1.363 . S
C600 H616 0.931 . S
C601 C600 1.370 . S
C601 C605 1.408 . S
C602 C600 1.363 . S
C602 C603 1.370 . S
C602 C606 1.524 . S
C603 C595 1.503 . S
C603 C602 1.370 . S
C603 C604 1.403 . S
C604 C603 1.403 . S
C604 C605 1.404 . S
C604 C607 1.539 . S
C605 C601 1.408 . S
C605 C604 1.404 . S
C605 H617 0.930 . S
C606 C602 1.524 . S
C606 H618 0.956 . S
C606 H619 0.961 . S
C606 H620 0.961 . S
C607 C604 1.539 . S
C607 H621 0.958 . S
C607 H622 0.961 . S
C607 H623 0.960 . S
H608 C592 0.931 . S
H609 C597 0.929 . S
H610 C598 0.960 . S
H611 C598 0.962 . S
H612 C598 0.960 . S
H613 C599 0.961 . S
H614 C599 0.961 . S
H615 C599 0.961 . S
H616 C600 0.931 . S
H617 C605 0.930 . S
H618 C606 0.956 . S
H619 C606 0.961 . S
H620 C606 0.961 . S
H621 C607 0.958 . S
H622 C607 0.961 . S
H623 C607 0.960 . S
C113 C62 1.481 . S
C121 C6 1.508 . S
C145 C20 1.476 . S
C153 C76 1.505 . S
C177 C34 1.486 . S
C185 C90 1.500 . S
C209 C104 1.481 . S
C217 C48 1.507 . S
C241 C7 1.311 . S
C249 C35 1.321 . S
C273 C21 1.327 . S
C281 C49 1.321 . S
C305 C91 1.345 . S
C313 C63 1.328 . S
C337 C77 1.345 . S
C345 C105 1.329 . S
C369 C79 1.378 . S
C377 C8 1.337 . S
C401 C22 1.291 . S
C409 C93 1.347 . S
C433 C36 1.341 . S
C441 C107 1.369 . S
C465 C65 1.353 . S
C473 C50 1.310 . S
C497 C64 1.283 . S
C505 C23 1.358 . S
C529 C78 1.329 . S
C537 C37 1.348 . S
C561 C92 1.342 . S
C569 C51 1.350 . S
C593 C9 1.361 . S
C601 C106 1.340 . S
