# Generated by pormake.
# Topology crr, (4)-cn, num edge types: 1
# Building blocks:
#     Node 0, Type 0, BuildingBlock: MUDLON_clean_sbu_0, # of connection points: 4
#     Node 1, Type 0, BuildingBlock: MUDLON_clean_sbu_0, # of connection points: 4
#     Node 2, Type 0, BuildingBlock: MUDLON_clean_sbu_0, # of connection points: 4
#     Node 3, Type 0, BuildingBlock: MUDLON_clean_sbu_0, # of connection points: 4
#     Node 4, Type 0, BuildingBlock: MUDLON_clean_sbu_0, # of connection points: 4
#     Node 5, Type 0, BuildingBlock: MUDLON_clean_sbu_0, # of connection points: 4
#     Node 6, Type 0, BuildingBlock: MUDLON_clean_sbu_0, # of connection points: 4
#     Node 7, Type 0, BuildingBlock: MUDLON_clean_sbu_0, # of connection points: 4
#     Node 8, Type 0, BuildingBlock: MUDLON_clean_sbu_0, # of connection points: 4
#     Node 9, Type 0, BuildingBlock: MUDLON_clean_sbu_0, # of connection points: 4
#     Node 10, Type 0, BuildingBlock: MUDLON_clean_sbu_0, # of connection points: 4
#     Node 11, Type 0, BuildingBlock: MUDLON_clean_sbu_0, # of connection points: 4
#     Edge 12, Type (0, 0), BuildingBlock: MIFKUJ_clean_linker_0, # of connection points: 2
#     Edge 13, Type (0, 0), BuildingBlock: MIFKUJ_clean_linker_0, # of connection points: 2
#     Edge 14, Type (0, 0), BuildingBlock: MIFKUJ_clean_linker_0, # of connection points: 2
#     Edge 15, Type (0, 0), BuildingBlock: MIFKUJ_clean_linker_0, # of connection points: 2
#     Edge 16, Type (0, 0), BuildingBlock: MIFKUJ_clean_linker_0, # of connection points: 2
#     Edge 17, Type (0, 0), BuildingBlock: MIFKUJ_clean_linker_0, # of connection points: 2
#     Edge 18, Type (0, 0), BuildingBlock: MIFKUJ_clean_linker_0, # of connection points: 2
#     Edge 19, Type (0, 0), BuildingBlock: MIFKUJ_clean_linker_0, # of connection points: 2
#     Edge 20, Type (0, 0), BuildingBlock: MIFKUJ_clean_linker_0, # of connection points: 2
#     Edge 21, Type (0, 0), BuildingBlock: MIFKUJ_clean_linker_0, # of connection points: 2
#     Edge 22, Type (0, 0), BuildingBlock: MIFKUJ_clean_linker_0, # of connection points: 2
#     Edge 23, Type (0, 0), BuildingBlock: MIFKUJ_clean_linker_0, # of connection points: 2
#     Edge 24, Type (0, 0), BuildingBlock: MIFKUJ_clean_linker_0, # of connection points: 2
#     Edge 25, Type (0, 0), BuildingBlock: MIFKUJ_clean_linker_0, # of connection points: 2
#     Edge 26, Type (0, 0), BuildingBlock: MIFKUJ_clean_linker_0, # of connection points: 2
#     Edge 27, Type (0, 0), BuildingBlock: MIFKUJ_clean_linker_0, # of connection points: 2
#     Edge 28, Type (0, 0), BuildingBlock: MIFKUJ_clean_linker_0, # of connection points: 2
#     Edge 29, Type (0, 0), BuildingBlock: MIFKUJ_clean_linker_0, # of connection points: 2
#     Edge 30, Type (0, 0), BuildingBlock: MIFKUJ_clean_linker_0, # of connection points: 2
#     Edge 31, Type (0, 0), BuildingBlock: MIFKUJ_clean_linker_0, # of connection points: 2
#     Edge 32, Type (0, 0), BuildingBlock: MIFKUJ_clean_linker_0, # of connection points: 2
#     Edge 33, Type (0, 0), BuildingBlock: MIFKUJ_clean_linker_0, # of connection points: 2
#     Edge 34, Type (0, 0), BuildingBlock: MIFKUJ_clean_linker_0, # of connection points: 2
#     Edge 35, Type (0, 0), BuildingBlock: MIFKUJ_clean_linker_0, # of connection points: 2
# Relax obj value: 0.153
# Max RMSD: 0.151
# Mean RMSD: 0.144
data_MOF--net-crr--node1-MUDLON_clean_sbu_0--edge1-MIFKUJ_clean_linker_0
_symmetry_space_group_name_H-M    P1
_symmetry_Int_Tables_number       1
_symmetry_cell_setting            triclinic
loop_
_symmetry_equiv_pos_as_xyz
'x, y, z'
_cell_length_a     50.862228
_cell_length_b     50.972006
_cell_length_c     51.009856
_cell_angle_alpha  89.774304
_cell_angle_beta   89.970389
_cell_angle_gamma 90.132049
loop_
_atom_site_label
_atom_site_type_symbol
_atom_site_fract_x
_atom_site_fract_y
_atom_site_fract_z
_atom_type_partial_charge
Mg0 Mg 0.06412 0.33456 0.31538 0.0
C1 C 0.10005 0.29497 0.33878 0.0
O2 O 0.07682 0.2854 0.34485 0.0
C3 C 0.04823 0.38865 0.30075 0.0
O4 O 0.03216 0.3741 0.28678 0.0
C5 C 0.06891 0.30075 0.26674 0.0
O6 O 0.07483 0.28282 0.28432 0.0
O7 O 0.06068 0.32298 0.27446 0.0
O8 O 0.10131 0.31712 0.32725 0.0
O9 O 0.03429 0.32065 0.3431 0.0
C10 C 0.01713 0.33575 0.3531 0.0
O11 O 0.01508 0.35989 0.34427 0.0
O12 O 0.06494 0.3773 0.31547 0.0
Mg13 Mg 0.32958 0.9105 0.68563 0.0
C14 C 0.3388 0.88515 0.73366 0.0
O15 O 0.33244 0.90979 0.73769 0.0
C16 C 0.31233 0.91771 0.63067 0.0
O17 O 0.29224 0.92609 0.6444 0.0
C18 C 0.26737 0.92177 0.69843 0.0
O19 O 0.26742 0.94684 0.69237 0.0
O20 O 0.28837 0.90845 0.69671 0.0
O21 O 0.34134 0.87744 0.71005 0.0
O22 O 0.35626 0.94122 0.699 0.0
C23 C 0.3694 0.95499 0.68276 0.0
O24 O 0.36288 0.95452 0.65786 0.0
O25 O 0.33199 0.90813 0.64282 0.0
Mg26 Mg 0.95462 0.70411 0.31583 0.0
C27 C 0.95569 0.76248 0.32475 0.0
O28 O 0.94989 0.75412 0.34842 0.0
C29 C 0.00242 0.66557 0.31056 0.0
O30 O 0.01304 0.67855 0.33004 0.0
C31 C 0.92279 0.70655 0.26908 0.0
O32 O 0.94553 0.71749 0.26345 0.0
O33 O 0.9193 0.69753 0.29218 0.0
O34 O 0.96185 0.74575 0.30733 0.0
O35 O 0.95107 0.69871 0.35852 0.0
C36 C 0.97102 0.70536 0.37212 0.0
O37 O 0.99141 0.71576 0.36014 0.0
O38 O 0.9809 0.67363 0.30067 0.0
Mg39 Mg 0.68725 0.049 0.66857 0.0
C40 C 0.70075 0.03046 0.61555 0.0
O41 O 0.71686 0.01671 0.63028 0.0
C42 C 0.6755 0.087 0.70802 0.0
O43 O 0.67082 0.06403 0.71884 0.0
C44 C 0.64447 0.00996 0.69589 0.0
O45 O 0.66193 0.99802 0.71065 0.0
O46 O 0.65165 0.02796 0.68012 0.0
O47 O 0.68605 0.04743 0.62631 0.0
O48 O 0.72796 0.0407 0.67966 0.0
C49 C 0.73784 0.04589 0.70199 0.0
O50 O 0.72215 0.0485 0.72223 0.0
O51 O 0.68168 0.088 0.68393 0.0
Mg52 Mg 0.04968 0.6724 0.69304 0.0
C53 C 0.0365 0.61767 0.70236 0.0
O54 O 0.02105 0.63125 0.71786 0.0
C55 C 0.07127 0.72357 0.68952 0.0
O56 O 0.04605 0.726 0.69464 0.0
C57 C 0.99974 0.68801 0.65329 0.0
O58 O 0.98052 0.68646 0.67044 0.0
O59 O 0.02335 0.68367 0.66043 0.0
O60 O 0.05326 0.63002 0.68835 0.0
O61 O 0.04788 0.67758 0.73577 0.0
C62 C 0.04679 0.68059 0.76056 0.0
O63 O 0.02374 0.68516 0.77116 0.0
O64 O 0.0806 0.7006 0.68613 0.0
Mg65 Mg 0.70065 0.96073 0.297 0.0
C66 C 0.74858 0.932 0.29358 0.0
O67 O 0.7292 0.91526 0.29701 0.0
C68 C 0.66588 0.99998 0.27113 0.0
O69 O 0.66891 0.98315 0.25194 0.0
C70 C 0.67218 0.91233 0.27402 0.0
O71 O 0.66786 0.90534 0.29847 0.0
O72 O 0.68415 0.93365 0.26912 0.0
O73 O 0.7431 0.95636 0.2926 0.0
O74 O 0.69211 0.94995 0.33701 0.0
C75 C 0.67092 0.95747 0.34778 0.0
O76 O 0.65298 0.96913 0.33337 0.0
O77 O 0.6807 0.99797 0.29111 0.0
Mg78 Mg 0.92679 0.30144 0.6743 0.0
C79 C 0.94874 0.35332 0.68605 0.0
O80 O 0.92337 0.35727 0.68341 0.0
C81 C 0.92628 0.24813 0.70208 0.0
O82 O 0.92421 0.26268 0.72316 0.0
C83 C 0.93856 0.2929 0.61906 0.0
O84 O 0.95515 0.27798 0.63202 0.0
O85 O 0.92177 0.30604 0.63204 0.0
O86 O 0.95762 0.33006 0.68385 0.0
O87 O 0.89284 0.30919 0.69924 0.0
C88 C 0.89787 0.31652 0.72255 0.0
O89 O 0.92236 0.32138 0.72912 0.0
O90 O 0.93159 0.25916 0.68025 0.0
Mg91 Mg 0.34063 0.05995 0.33006 0.0
C92 C 0.33786 0.05742 0.27086 0.0
O93 O 0.36347 0.05551 0.2732 0.0
C94 C 0.31283 0.02421 0.37084 0.0
O95 O 0.2916 0.03703 0.36385 0.0
C96 C 0.29648 0.09618 0.33667 0.0
O97 O 0.28581 0.07533 0.32595 0.0
O98 O 0.32094 0.09591 0.34199 0.0
O99 O 0.32367 0.05472 0.29122 0.0
O100 O 0.38302 0.06439 0.32633 0.0
C101 C 0.39521 0.04357 0.32006 0.0
O102 O 0.38168 0.02183 0.31684 0.0
O103 O 0.33443 0.02901 0.35918 0.0
Mg104 Mg 0.30778 0.32186 0.07489 0.0
C105 C 0.34888 0.29755 0.03494 0.0
O106 O 0.3345 0.27615 0.03353 0.0
C107 C 0.25772 0.29117 0.07033 0.0
O108 O 0.27349 0.27213 0.07766 0.0
C109 C 0.29723 0.3765 0.06288 0.0
O110 O 0.28681 0.36312 0.0435 0.0
O111 O 0.30785 0.3639 0.08166 0.0
O112 O 0.3409 0.31685 0.04846 0.0
O113 O 0.31304 0.29729 0.10944 0.0
C114 C 0.33085 0.27983 0.1098 0.0
O115 O 0.34881 0.27998 0.09132 0.0
O116 O 0.26781 0.31284 0.06296 0.0
Mg117 Mg 0.32019 0.69519 0.96266 0.0
C118 C 0.26963 0.69506 0.93561 0.0
O119 O 0.264 0.69792 0.96059 0.0
C120 C 0.37643 0.70648 0.97471 0.0
O121 O 0.36438 0.71355 0.99634 0.0
C122 C 0.30315 0.75259 0.97812 0.0
O123 O 0.29502 0.76938 0.99583 0.0
O124 O 0.30814 0.72917 0.98555 0.0
O125 O 0.29373 0.69357 0.92897 0.0
O126 O 0.31256 0.65855 0.98335 0.0
C127 C 0.32456 0.65052 0.00371 0.0
O128 O 0.34247 0.66553 0.01457 0.0
O129 O 0.36275 0.69787 0.95567 0.0
Mg130 Mg 0.69754 0.69468 0.02558 0.0
C131 C 0.65941 0.70033 0.98005 0.0
O132 O 0.6663 0.676 0.97533 0.0
C133 C 0.74972 0.71686 0.04834 0.0
O134 O 0.73785 0.73968 0.04894 0.0
C135 C 0.71076 0.64155 0.00926 0.0
O136 O 0.73148 0.65523 0.00208 0.0
O137 O 0.69189 0.65311 0.02075 0.0
O138 O 0.67352 0.71394 0.99553 0.0
O139 O 0.68061 0.71098 0.06053 0.0
C140 C 0.67861 0.73575 0.05825 0.0
O141 O 0.68429 0.74668 0.03557 0.0
O142 O 0.73939 0.69804 0.03558 0.0
Mg143 Mg 0.66946 0.31329 0.94968 0.0
C144 C 0.72449 0.31296 0.93624 0.0
O145 O 0.71524 0.33543 0.92766 0.0
C146 C 0.62582 0.31206 0.98916 0.0
O147 O 0.63451 0.33609 0.99261 0.0
C148 C 0.66184 0.27523 0.91135 0.0
O149 O 0.66677 0.26364 0.93389 0.0
O150 O 0.65936 0.30003 0.91101 0.0
O151 O 0.70952 0.29818 0.94981 0.0
O152 O 0.67025 0.35552 0.95348 0.0
C153 C 0.6871 0.36497 0.96922 0.0
O154 O 0.70249 0.34899 0.98239 0.0
O155 O 0.6388 0.29672 0.97445 0.0
H156 H 0.15054 0.30507 0.3222 0.0
H157 H 0.1883 0.27535 0.32425 0.0
H158 H 0.14035 0.21737 0.36362 0.0
H159 H 0.10297 0.24702 0.36224 0.0
H160 H 0.18595 0.21782 0.38523 0.0
H161 H 0.15401 0.21508 0.29768 0.0
H162 H 0.14119 0.23051 0.25365 0.0
H163 H 0.22012 0.25707 0.23943 0.0
H164 H 0.23327 0.24235 0.28365 0.0
H165 H 0.24407 0.09721 0.34569 0.0
H166 H 0.21557 0.1356 0.34889 0.0
H167 H 0.2827 0.18649 0.33898 0.0
H168 H 0.31166 0.1479 0.3364 0.0
H169 H 0.23276 0.19345 0.30355 0.0
H170 H 0.26273 0.18898 0.39378 0.0
H171 H 0.27155 0.16507 0.43495 0.0
H172 H 0.19001 0.14377 0.44072 0.0
H173 H 0.18079 0.16722 0.39935 0.0
C174 C 0.14818 0.28613 0.33162 0.0
C175 C 0.12372 0.27841 0.34202 0.0
C176 C 0.16972 0.26908 0.33259 0.0
C177 C 0.16711 0.24397 0.34381 0.0
C178 C 0.14291 0.23662 0.35489 0.0
C179 C 0.12149 0.25363 0.35402 0.0
C180 C 0.18922 0.22494 0.34364 0.0
C181 C 0.19614 0.21259 0.36731 0.0
C182 C 0.20268 0.21804 0.32031 0.0
C183 C 0.19455 0.22797 0.29415 0.0
C184 C 0.16854 0.2246 0.28535 0.0
C185 C 0.16123 0.23314 0.26032 0.0
C186 C 0.17983 0.24476 0.24377 0.0
C187 C 0.20572 0.2481 0.25229 0.0
C188 C 0.21311 0.23971 0.27735 0.0
C189 C 0.25284 0.11657 0.34449 0.0
C190 C 0.28007 0.11962 0.34092 0.0
C191 C 0.23654 0.13844 0.34628 0.0
C192 C 0.24708 0.16377 0.34413 0.0
C193 C 0.27429 0.16701 0.3407 0.0
C194 C 0.29076 0.14504 0.33943 0.0
C195 C 0.22924 0.18661 0.34501 0.0
C196 C 0.22298 0.1994 0.32147 0.0
C197 C 0.21572 0.19329 0.36821 0.0
C198 C 0.22112 0.17972 0.39339 0.0
C199 C 0.24672 0.17906 0.40375 0.0
C200 C 0.25179 0.16561 0.42713 0.0
C201 C 0.23137 0.15286 0.44042 0.0
C202 C 0.20582 0.15364 0.4304 0.0
C203 C 0.20065 0.16705 0.40701 0.0
H204 H 0.23534 0.14242 0.4585 0.0
H205 H 0.17423 0.25099 0.22426 0.0
H206 H 0.26217 0.87177 0.71631 0.0
H207 H 0.22319 0.84415 0.71481 0.0
H208 H 0.17699 0.90988 0.6883 0.0
H209 H 0.21639 0.938 0.68932 0.0
H210 H 0.15222 0.87191 0.72803 0.0
H211 H 0.19264 0.87561 0.64321 0.0
H212 H 0.22914 0.87433 0.61142 0.0
H213 H 0.24734 0.79553 0.63523 0.0
H214 H 0.21129 0.79655 0.66755 0.0
H215 H 0.05587 0.77489 0.69028 0.0
H216 H 0.08375 0.81388 0.6925 0.0
H217 H 0.15265 0.76455 0.69306 0.0
H218 H 0.12491 0.72562 0.69013 0.0
H219 H 0.16048 0.8016 0.66158 0.0
H220 H 0.12475 0.79975 0.74983 0.0
H221 H 0.09011 0.80061 0.78391 0.0
H222 H 0.06411 0.8755 0.75528 0.0
H223 H 0.09832 0.87463 0.72093 0.0
C224 C 0.24371 0.88062 0.71051 0.0
C225 C 0.24251 0.90706 0.70249 0.0
C226 C 0.22143 0.86474 0.70971 0.0
C227 C 0.19741 0.87492 0.70104 0.0
C228 C 0.19548 0.90172 0.69493 0.0
C229 C 0.21797 0.91773 0.69556 0.0
C230 C 0.17532 0.85663 0.6963 0.0
C231 C 0.15361 0.85678 0.7132 0.0
C232 C 0.17747 0.83681 0.67714 0.0
C233 C 0.19942 0.83627 0.65798 0.0
C234 C 0.20463 0.85813 0.64189 0.0
C235 C 0.2252 0.85743 0.62373 0.0
C236 C 0.24058 0.83488 0.62134 0.0
C237 C 0.23543 0.813 0.63712 0.0
C238 C 0.21493 0.81363 0.65537 0.0
C239 C 0.077 0.77236 0.69085 0.0
C240 C 0.08825 0.74714 0.68992 0.0
C241 C 0.09291 0.79472 0.69241 0.0
C242 C 0.12035 0.79228 0.69347 0.0
C243 C 0.13152 0.76705 0.69238 0.0
C244 C 0.11567 0.74474 0.6906 0.0
C245 C 0.13782 0.81572 0.6943 0.0
C246 C 0.15868 0.81677 0.67633 0.0
C247 C 0.13482 0.83648 0.71258 0.0
C248 C 0.11369 0.83673 0.73259 0.0
C249 C 0.1113 0.81606 0.75067 0.0
C250 C 0.09186 0.81664 0.77004 0.0
C251 C 0.07482 0.83803 0.77166 0.0
C252 C 0.07724 0.85887 0.75393 0.0
C253 C 0.09664 0.85831 0.7345 0.0
H254 H 0.05982 0.83851 0.78671 0.0
H255 H 0.25646 0.83436 0.60723 0.0
H256 H 0.76319 0.8815 0.28677 0.0
H257 H 0.807 0.8629 0.28965 0.0
H258 H 0.83995 0.94013 0.30014 0.0
H259 H 0.79553 0.95927 0.29728 0.0
H260 H 0.87021 0.9016 0.26539 0.0
H261 H 0.8343 0.9114 0.35201 0.0
H262 H 0.79913 0.90842 0.38518 0.0
H263 H 0.79497 0.825 0.37446 0.0
H264 H 0.82981 0.82754 0.34089 0.0
H265 H 0.95411 0.80534 0.35617 0.0
H266 H 0.92908 0.84542 0.34835 0.0
H267 H 0.91199 0.81967 0.26968 0.0
H268 H 0.93775 0.77994 0.27718 0.0
H269 H 0.87928 0.84254 0.34239 0.0
H270 H 0.88986 0.86952 0.23176 0.0
H271 H 0.92482 0.87309 0.19841 0.0
H272 H 0.98225 0.88523 0.25885 0.0
H273 H 0.94761 0.8821 0.29254 0.0
C274 C 0.77967 0.89472 0.28941 0.0
C275 C 0.77582 0.92188 0.29218 0.0
C276 C 0.80475 0.88399 0.29093 0.0
C277 C 0.82662 0.9001 0.29533 0.0
C278 C 0.82323 0.92742 0.29669 0.0
C279 C 0.7979 0.93828 0.29514 0.0
C280 C 0.85225 0.88758 0.30097 0.0
C281 C 0.87251 0.88891 0.28234 0.0
C282 C 0.85524 0.87138 0.32331 0.0
C283 C 0.8346 0.86969 0.34385 0.0
C284 C 0.82578 0.89244 0.35661 0.0
C285 C 0.8059 0.89083 0.3755 0.0
C286 C 0.7948 0.86654 0.38191 0.0
C287 C 0.80359 0.8438 0.36949 0.0
C288 C 0.82343 0.84531 0.35055 0.0
C289 C 0.94588 0.80872 0.33686 0.0
C290 C 0.94773 0.78943 0.31736 0.0
C291 C 0.93148 0.83162 0.33243 0.0
C292 C 0.91839 0.83557 0.30851 0.0
C293 C 0.92213 0.81735 0.2882 0.0
C294 C 0.9369 0.79456 0.29252 0.0
C295 C 0.89747 0.85589 0.30649 0.0
C296 C 0.8777 0.85575 0.32574 0.0
C297 C 0.8952 0.87328 0.28486 0.0
C298 C 0.91613 0.8754 0.26469 0.0
C299 C 0.90992 0.87309 0.23793 0.0
C300 C 0.92969 0.875 0.21897 0.0
C301 C 0.95575 0.87933 0.22651 0.0
C302 C 0.96208 0.8818 0.25303 0.0
C303 C 0.94239 0.87991 0.27208 0.0
H304 H 0.97102 0.88079 0.21179 0.0
H305 H 0.77941 0.86533 0.39653 0.0
H306 H 0.91661 0.21681 0.74483 0.0
H307 H 0.89108 0.17591 0.74585 0.0
H308 H 0.88431 0.17817 0.6617 0.0
H309 H 0.91039 0.21852 0.66031 0.0
H310 H 0.83391 0.17789 0.70004 0.0
H311 H 0.91361 0.13391 0.67228 0.0
H312 H 0.96043 0.12209 0.67603 0.0
H313 H 0.94621 0.08867 0.75216 0.0
H314 H 0.89933 0.10071 0.749 0.0
H315 H 0.76886 0.062 0.66113 0.0
H316 H 0.80732 0.09061 0.66366 0.0
H317 H 0.8064 0.08469 0.74791 0.0
H318 H 0.76725 0.05657 0.74573 0.0
H319 H 0.86198 0.08537 0.7121 0.0
H320 H 0.78322 0.13189 0.7415 0.0
H321 H 0.73624 0.14335 0.73794 0.0
H322 H 0.74893 0.17218 0.65973 0.0
H323 H 0.79592 0.16043 0.66271 0.0
C324 C 0.91036 0.20821 0.72647 0.0
C325 C 0.9156 0.22097 0.70248 0.0
C326 C 0.89574 0.18488 0.72712 0.0
C327 C 0.88586 0.17409 0.70386 0.0
C328 C 0.89191 0.18615 0.67984 0.0
C329 C 0.90694 0.20917 0.67911 0.0
C330 C 0.86694 0.15195 0.70477 0.0
C331 C 0.84009 0.15767 0.70255 0.0
C332 C 0.87497 0.12566 0.70857 0.0
C333 C 0.90309 0.11858 0.71058 0.0
C334 C 0.92054 0.12437 0.68997 0.0
C335 C 0.94706 0.11754 0.69194 0.0
C336 C 0.95631 0.10473 0.71437 0.0
C337 C 0.93903 0.09866 0.73483 0.0
C338 C 0.91248 0.10547 0.73296 0.0
C339 C 0.7772 0.06607 0.68023 0.0
C340 C 0.76478 0.05713 0.70328 0.0
C341 C 0.79921 0.08249 0.68159 0.0
C342 C 0.80954 0.08984 0.70596 0.0
C343 C 0.79869 0.07915 0.72893 0.0
C344 C 0.77632 0.06311 0.72762 0.0
C345 C 0.82906 0.11141 0.70727 0.0
C346 C 0.85588 0.10563 0.70984 0.0
C347 C 0.82108 0.13776 0.70401 0.0
C348 C 0.79294 0.14496 0.70219 0.0
C349 C 0.7759 0.14038 0.72344 0.0
C350 C 0.7493 0.14698 0.72156 0.0
C351 C 0.73959 0.1584 0.69859 0.0
C352 C 0.75647 0.16328 0.67748 0.0
C353 C 0.78308 0.15666 0.67925 0.0
H354 H 0.71903 0.16359 0.69717 0.0
H355 H 0.97685 0.09944 0.71586 0.0
H356 H 0.2916 0.26901 0.14515 0.0
H357 H 0.28494 0.22827 0.16981 0.0
H358 H 0.35724 0.19748 0.13832 0.0
H359 H 0.36396 0.23795 0.11347 0.0
H360 H 0.31722 0.16203 0.13477 0.0
H361 H 0.35374 0.21961 0.201 0.0
H362 H 0.35523 0.25962 0.22799 0.0
H363 H 0.27856 0.24198 0.25874 0.0
H364 H 0.27649 0.202 0.23168 0.0
H365 H 0.36161 0.06565 0.2236 0.0
H366 H 0.35073 0.10006 0.19216 0.0
H367 H 0.27963 0.11691 0.235 0.0
H368 H 0.29046 0.08259 0.26669 0.0
H369 H 0.31017 0.15906 0.2317 0.0
H370 H 0.27641 0.09783 0.17129 0.0
H371 H 0.27424 0.05769 0.14461 0.0
H372 H 0.34373 0.08139 0.1029 0.0
H373 H 0.34659 0.12151 0.1296 0.0
C374 C 0.30629 0.25373 0.14377 0.0
C375 C 0.32838 0.25679 0.1274 0.0
C376 C 0.30239 0.23041 0.1578 0.0
C377 C 0.32057 0.20982 0.15584 0.0
C378 C 0.34287 0.21305 0.13996 0.0
C379 C 0.34679 0.23631 0.12594 0.0
C380 C 0.31651 0.18481 0.17024 0.0
C381 C 0.31586 0.16128 0.15599 0.0
C382 C 0.3136 0.18399 0.1978 0.0
C383 C 0.31483 0.208 0.21408 0.0
C384 C 0.33711 0.22438 0.21335 0.0
C385 C 0.33808 0.24703 0.2287 0.0
C386 C 0.31697 0.25338 0.24501 0.0
C387 C 0.29487 0.23706 0.24607 0.0
C388 C 0.2938 0.2144 0.23074 0.0
C389 C 0.34318 0.07602 0.22584 0.0
C390 C 0.32715 0.07165 0.24789 0.0
C391 C 0.33692 0.09569 0.20777 0.0
C392 C 0.31446 0.11124 0.21135 0.0
C393 C 0.29712 0.10523 0.23194 0.0
C394 C 0.3033 0.08545 0.24997 0.0
C395 C 0.31161 0.13606 0.19632 0.0
C396 C 0.311 0.15966 0.21044 0.0
C397 C 0.31323 0.13688 0.16865 0.0
C398 C 0.3118 0.11265 0.15262 0.0
C399 C 0.29138 0.09439 0.1566 0.0
C400 C 0.29 0.07165 0.14143 0.0
C401 C 0.30886 0.06697 0.1221 0.0
C402 C 0.32914 0.08504 0.11789 0.0
C403 C 0.33063 0.10781 0.13302 0.0
H404 H 0.30774 0.04936 0.11036 0.0
H405 H 0.31776 0.27092 0.25688 0.0
H406 H 0.21701 0.69787 0.94511 0.0
H407 H 0.18095 0.69235 0.91424 0.0
H408 H 0.23652 0.68075 0.85147 0.0
H409 H 0.27301 0.68664 0.88241 0.0
H410 H 0.19752 0.71233 0.83632 0.0
H411 H 0.20299 0.62906 0.87786 0.0
H412 H 0.20581 0.59832 0.91516 0.0
H413 H 0.13 0.62338 0.94222 0.0
H414 H 0.1269 0.65463 0.90529 0.0
H415 H 0.09825 0.67004 0.74644 0.0
H416 H 0.13712 0.6688 0.77499 0.0
H417 H 0.08845 0.6861 0.84188 0.0
H418 H 0.04967 0.68724 0.8137 0.0
H419 H 0.12573 0.6485 0.85369 0.0
H420 H 0.12139 0.73171 0.81039 0.0
H421 H 0.11974 0.76142 0.77266 0.0
H422 H 0.19691 0.73687 0.74896 0.0
H423 H 0.19816 0.70531 0.7857 0.0
C424 C 0.22168 0.69416 0.92474 0.0
C425 C 0.24797 0.69253 0.91627 0.0
C426 C 0.20095 0.69084 0.90711 0.0
C427 C 0.20594 0.68561 0.88059 0.0
C428 C 0.23217 0.68456 0.87189 0.0
C429 C 0.25301 0.68792 0.88958 0.0
C430 C 0.18367 0.68175 0.86198 0.0
C431 C 0.18212 0.69797 0.8398 0.0
C432 C 0.16326 0.66339 0.86682 0.0
C433 C 0.16479 0.64434 0.88887 0.0
C434 C 0.18698 0.62815 0.89185 0.0
C435 C 0.18863 0.61062 0.91292 0.0
C436 C 0.16812 0.60893 0.93108 0.0
C437 C 0.14588 0.62473 0.92815 0.0
C438 C 0.14415 0.64234 0.90712 0.0
C439 C 0.09578 0.67349 0.76723 0.0
C440 C 0.07072 0.67894 0.77762 0.0
C441 C 0.11805 0.67272 0.78357 0.0
C442 C 0.11582 0.6775 0.81064 0.0
C443 C 0.09076 0.68224 0.82114 0.0
C444 C 0.06856 0.68305 0.80487 0.0
C445 C 0.1396 0.67908 0.82786 0.0
C446 C 0.14134 0.66256 0.84994 0.0
C447 C 0.16042 0.69697 0.82277 0.0
C448 C 0.15964 0.71576 0.80055 0.0
C449 C 0.13781 0.73222 0.79688 0.0
C450 C 0.13698 0.74947 0.77563 0.0
C451 C 0.15831 0.75126 0.75843 0.0
C452 C 0.18037 0.73544 0.76225 0.0
C453 C 0.18104 0.71766 0.78317 0.0
H454 H 0.15785 0.76497 0.74223 0.0
H455 H 0.16943 0.59535 0.94739 0.0
H456 H 0.6834 0.78872 0.06031 0.0
H457 H 0.68029 0.81666 0.09873 0.0
H458 H 0.66167 0.7493 0.14675 0.0
H459 H 0.66497 0.72083 0.10816 0.0
H460 H 0.62902 0.79427 0.15487 0.0
H461 H 0.72028 0.77149 0.1504 0.0
H462 H 0.76339 0.76622 0.12896 0.0
H463 H 0.76686 0.84909 0.11389 0.0
H464 H 0.72352 0.85481 0.13479 0.0
H465 H 0.65425 0.86152 0.27661 0.0
H466 H 0.65167 0.83015 0.24037 0.0
H467 H 0.676 0.89065 0.18615 0.0
H468 H 0.67851 0.92201 0.22192 0.0
H469 H 0.70645 0.84643 0.18297 0.0
H470 H 0.61549 0.86962 0.18427 0.0
H471 H 0.57117 0.87596 0.20271 0.0
H472 H 0.56637 0.79387 0.22136 0.0
H473 H 0.61089 0.78711 0.20346 0.0
C474 C 0.67842 0.77976 0.07896 0.0
C475 C 0.6744 0.75255 0.08126 0.0
C476 C 0.67681 0.79578 0.10089 0.0
C477 C 0.67106 0.78491 0.12548 0.0
C478 C 0.66624 0.7579 0.12783 0.0
C479 C 0.6681 0.74174 0.10585 0.0
C480 C 0.67015 0.80204 0.14862 0.0
C481 C 0.64603 0.80531 0.16145 0.0
C482 C 0.69228 0.81689 0.15645 0.0
C483 C 0.71849 0.81354 0.14398 0.0
C484 C 0.7301 0.78857 0.14231 0.0
C485 C 0.75461 0.7855 0.13027 0.0
C486 C 0.76783 0.8073 0.12002 0.0
C487 C 0.75658 0.83222 0.12182 0.0
C488 C 0.73205 0.83538 0.13377 0.0
C489 C 0.6586 0.86823 0.2569 0.0
C490 C 0.66686 0.89415 0.25218 0.0
C491 C 0.65712 0.85031 0.23626 0.0
C492 C 0.66385 0.85812 0.21069 0.0
C493 C 0.67095 0.88424 0.2058 0.0
C494 C 0.67231 0.90212 0.2263 0.0
C495 C 0.66521 0.83881 0.18925 0.0
C496 C 0.68947 0.83517 0.17667 0.0
C497 C 0.64318 0.82379 0.18151 0.0
C498 C 0.6167 0.82794 0.1929 0.0
C499 C 0.60515 0.85299 0.19266 0.0
C500 C 0.57995 0.85664 0.20292 0.0
C501 C 0.566 0.83535 0.2133 0.0
C502 C 0.57723 0.81036 0.2134 0.0
C503 C 0.60245 0.80661 0.20321 0.0
H504 H 0.54646 0.83821 0.22117 0.0
H505 H 0.7868 0.80488 0.11072 0.0
H506 H 0.77134 0.33756 0.93338 0.0
H507 H 0.80359 0.33132 0.89852 0.0
H508 H 0.76242 0.26175 0.87338 0.0
H509 H 0.73039 0.26767 0.9088 0.0
H510 H 0.81524 0.25997 0.85955 0.0
H511 H 0.74308 0.31848 0.84875 0.0
H512 H 0.71303 0.35403 0.86174 0.0
H513 H 0.77746 0.40863 0.86212 0.0
H514 H 0.80799 0.37327 0.84956 0.0
H515 H 0.85428 0.28501 0.72509 0.0
H516 H 0.82491 0.27898 0.76294 0.0
H517 H 0.86712 0.33915 0.80476 0.0
H518 H 0.89672 0.34491 0.76735 0.0
H519 H 0.81004 0.34215 0.80713 0.0
H520 H 0.88209 0.28007 0.81829 0.0
H521 H 0.90955 0.24346 0.80275 0.0
H522 H 0.84124 0.19411 0.79765 0.0
H523 H 0.81329 0.2306 0.81279 0.0
C524 C 0.77001 0.32017 0.92128 0.0
C525 C 0.74848 0.30311 0.92368 0.0
C526 C 0.78827 0.31674 0.90119 0.0
C527 C 0.78477 0.29668 0.88271 0.0
C528 C 0.76521 0.27765 0.8871 0.0
C529 C 0.74709 0.28087 0.90754 0.0
C530 C 0.79829 0.29861 0.85694 0.0
C531 C 0.81389 0.2778 0.84796 0.0
C532 C 0.79619 0.3217 0.84149 0.0
C533 C 0.77784 0.34319 0.84841 0.0
C534 C 0.75085 0.33804 0.85172 0.0
C535 C 0.73374 0.35815 0.85902 0.0
C536 C 0.74334 0.38356 0.8628 0.0
C537 C 0.77006 0.38893 0.85921 0.0
C538 C 0.78728 0.36887 0.85198 0.0
C539 C 0.85692 0.29728 0.74218 0.0
C540 C 0.87767 0.31552 0.7433 0.0
C541 C 0.84032 0.29365 0.76381 0.0
C542 C 0.84404 0.30849 0.78665 0.0
C543 C 0.864 0.32749 0.78732 0.0
C544 C 0.88084 0.33078 0.76595 0.0
C545 C 0.8277 0.30398 0.81026 0.0
C546 C 0.81131 0.32428 0.81869 0.0
C547 C 0.8287 0.28025 0.82475 0.0
C548 C 0.84558 0.25812 0.81643 0.0
C549 C 0.87291 0.26146 0.81371 0.0
C550 C 0.88856 0.24073 0.80499 0.0
C551 C 0.87714 0.21649 0.79916 0.0
C552 C 0.85005 0.2129 0.80215 0.0
C553 C 0.8343 0.23359 0.81082 0.0
H554 H 0.88928 0.20048 0.79239 0.0
H555 H 0.73007 0.39911 0.86848 0.0
H556 H 0.33769 0.83088 0.7345 0.0
H557 H 0.33362 0.80262 0.77356 0.0
H558 H 0.3366 0.8711 0.82298 0.0
H559 H 0.3414 0.89893 0.78467 0.0
H560 H 0.36389 0.83495 0.84457 0.0
H561 H 0.27851 0.84023 0.80461 0.0
H562 H 0.24526 0.83475 0.76988 0.0
H563 H 0.25758 0.75144 0.7708 0.0
H564 H 0.29138 0.75649 0.80514 0.0
H565 H 0.28175 0.79611 0.9554 0.0
H566 H 0.28914 0.81311 0.91104 0.0
H567 H 0.33813 0.74663 0.89364 0.0
H568 H 0.33236 0.73064 0.93818 0.0
H569 H 0.2865 0.77627 0.85456 0.0
H570 H 0.37782 0.77658 0.89389 0.0
H571 H 0.40612 0.78631 0.93194 0.0
H572 H 0.3759 0.86489 0.93448 0.0
H573 H 0.34704 0.85536 0.89675 0.0
C574 C 0.33798 0.83974 0.75375 0.0
C575 C 0.33976 0.86713 0.75648 0.0
C576 C 0.3354 0.82364 0.77603 0.0
C577 C 0.33446 0.83476 0.80124 0.0
C578 C 0.33728 0.86198 0.80383 0.0
C579 C 0.33994 0.87793 0.7818 0.0
C580 C 0.32988 0.81865 0.8252 0.0
C581 C 0.34705 0.82198 0.8465 0.0
C582 C 0.30781 0.80178 0.82805 0.0
C583 C 0.28779 0.79878 0.80714 0.0
C584 C 0.27438 0.82077 0.79717 0.0
C585 C 0.2554 0.81775 0.77759 0.0
C586 C 0.24939 0.79278 0.76807 0.0
C587 C 0.26234 0.77078 0.77812 0.0
C588 C 0.28144 0.77372 0.79761 0.0
C589 C 0.29399 0.78495 0.94213 0.0
C590 C 0.30609 0.76151 0.95044 0.0
C591 C 0.29801 0.79464 0.91674 0.0
C592 C 0.31401 0.78097 0.8991 0.0
C593 C 0.3255 0.75731 0.90695 0.0
C594 C 0.3219 0.74793 0.93247 0.0
C595 C 0.32057 0.79267 0.87337 0.0
C596 C 0.30367 0.78871 0.85205 0.0
C597 C 0.34252 0.80937 0.87051 0.0
C598 C 0.36012 0.81517 0.8928 0.0
C599 C 0.37706 0.79583 0.90276 0.0
C600 C 0.39321 0.80132 0.92422 0.0
C601 C 0.39275 0.82618 0.93567 0.0
C602 C 0.37619 0.84562 0.92564 0.0
C603 C 0.35993 0.84018 0.90424 0.0
H604 H 0.40528 0.83041 0.95228 0.0
H605 H 0.23462 0.79046 0.75297 0.0
H606 H 0.78701 0.74998 0.06828 0.0
H607 H 0.81609 0.74186 0.10588 0.0
H608 H 0.78523 0.66337 0.11316 0.0
H609 H 0.75697 0.67091 0.07496 0.0
H610 H 0.78572 0.70086 0.16208 0.0
H611 H 0.83788 0.65816 0.09725 0.0
H612 H 0.86096 0.65301 0.05509 0.0
H613 H 0.90953 0.7197 0.07254 0.0
H614 H 0.88638 0.72555 0.11464 0.0
H615 H 0.88025 0.67287 0.26547 0.0
H616 H 0.84979 0.66865 0.22821 0.0
H617 H 0.88923 0.73276 0.18897 0.0
H618 H 0.91975 0.73653 0.22537 0.0
H619 H 0.8828 0.69404 0.15614 0.0
H620 H 0.8269 0.73845 0.21992 0.0
H621 H 0.80461 0.74174 0.26275 0.0
H622 H 0.76371 0.6695 0.24798 0.0
H623 H 0.78597 0.66568 0.20515 0.0
C624 C 0.78691 0.73081 0.0775 0.0
C625 C 0.77 0.711 0.0684 0.0
C626 C 0.80337 0.72624 0.09905 0.0
C627 C 0.80268 0.70204 0.11231 0.0
C628 C 0.78604 0.68214 0.10316 0.0
C629 C 0.77013 0.68643 0.08116 0.0
C630 C 0.81897 0.69799 0.1361 0.0
C631 C 0.80693 0.69895 0.16086 0.0
C632 C 0.84655 0.69554 0.13445 0.0
C633 C 0.86012 0.69253 0.10891 0.0
C634 C 0.8532 0.67198 0.09192 0.0
C635 C 0.86637 0.66886 0.06808 0.0
C636 C 0.88664 0.68607 0.0611 0.0
C637 C 0.89378 0.70642 0.07795 0.0
C638 C 0.88064 0.70965 0.1018 0.0
C639 C 0.88217 0.68617 0.24896 0.0
C640 C 0.90248 0.70493 0.2483 0.0
C641 C 0.86477 0.68377 0.22769 0.0
C642 C 0.8672 0.70039 0.20568 0.0
C643 C 0.88706 0.71951 0.2055 0.0
C644 C 0.90449 0.7217 0.22645 0.0
C645 C 0.84976 0.69795 0.18233 0.0
C646 C 0.86158 0.6957 0.15752 0.0
C647 C 0.82199 0.69907 0.18401 0.0
C648 C 0.80825 0.70167 0.20948 0.0
C649 C 0.81323 0.72322 0.22587 0.0
C650 C 0.8006 0.72519 0.25013 0.0
C651 C 0.78281 0.70581 0.25811 0.0
C652 C 0.77752 0.68448 0.24179 0.0
C653 C 0.79011 0.68242 0.21751 0.0
H654 H 0.77308 0.70734 0.27692 0.0
H655 H 0.89686 0.68359 0.04266 0.0
H656 H 0.68912 0.08864 0.75897 0.0
H657 H 0.68746 0.12609 0.78837 0.0
H658 H 0.66199 0.17566 0.72454 0.0
H659 H 0.6646 0.13801 0.69448 0.0
H660 H 0.69679 0.20093 0.76019 0.0
H661 H 0.61696 0.14936 0.76337 0.0
H662 H 0.59251 0.10773 0.76711 0.0
H663 H 0.62462 0.09496 0.84391 0.0
H664 H 0.64985 0.13619 0.84037 0.0
H665 H 0.65276 0.29166 0.86064 0.0
H666 H 0.65447 0.26459 0.82088 0.0
H667 H 0.67438 0.19701 0.86804 0.0
H668 H 0.67211 0.22338 0.90736 0.0
H669 H 0.6364 0.18564 0.8352 0.0
H670 H 0.72116 0.22956 0.83094 0.0
H671 H 0.75074 0.26798 0.82839 0.0
H672 H 0.71305 0.29308 0.75742 0.0
H673 H 0.68328 0.25479 0.75943 0.0
C674 C 0.68333 0.10755 0.75112 0.0
C675 C 0.67635 0.11043 0.72466 0.0
C676 C 0.6825 0.12892 0.7679 0.0
C677 C 0.67395 0.15341 0.75872 0.0
C678 C 0.66841 0.1568 0.73196 0.0
C679 C 0.66975 0.13536 0.71492 0.0
C680 C 0.66873 0.17449 0.7778 0.0
C681 C 0.68321 0.19791 0.77634 0.0
C682 C 0.65128 0.17023 0.79903 0.0
C683 C 0.63534 0.14588 0.80156 0.0
C684 C 0.61886 0.13765 0.78103 0.0
C685 C 0.60487 0.1141 0.78311 0.0
C686 C 0.60693 0.09873 0.80576 0.0
C687 C 0.62299 0.1069 0.82639 0.0
C688 C 0.63715 0.13037 0.82436 0.0
C689 C 0.65735 0.271 0.86242 0.0
C690 C 0.66204 0.2596 0.88712 0.0
C691 C 0.65852 0.25564 0.83974 0.0
C692 C 0.66461 0.22883 0.84156 0.0
C693 C 0.66947 0.21762 0.8662 0.0
C694 C 0.66813 0.23278 0.88871 0.0
C695 C 0.6652 0.21172 0.81825 0.0
C696 C 0.64962 0.18901 0.81881 0.0
C697 C 0.682 0.21646 0.79662 0.0
C698 C 0.69978 0.23952 0.79551 0.0
C699 C 0.71904 0.2434 0.81491 0.0
C700 C 0.73587 0.2651 0.81354 0.0
C701 C 0.73365 0.28303 0.7929 0.0
C702 C 0.7147 0.27921 0.77345 0.0
C703 C 0.69789 0.25749 0.77464 0.0
H704 H 0.7467 0.29983 0.79194 0.0
H705 H 0.59609 0.08049 0.80731 0.0
H706 H 0.22957 0.24905 0.08846 0.0
H707 H 0.18864 0.25051 0.11352 0.0
H708 H 0.18242 0.33352 0.0983 0.0
H709 H 0.22321 0.33227 0.07309 0.0
H710 H 0.18328 0.32171 0.15074 0.0
H711 H 0.1364 0.29406 0.0752 0.0
H712 H 0.12653 0.26679 0.03665 0.0
H713 H 0.11558 0.19952 0.08643 0.0
H714 H 0.1258 0.22631 0.12531 0.0
H715 H 0.07076 0.338 0.22797 0.0
H716 H 0.09487 0.33536 0.18664 0.0
H717 H 0.11237 0.25405 0.20202 0.0
H718 H 0.08849 0.25649 0.24359 0.0
H719 H 0.10259 0.26694 0.14671 0.0
H720 H 0.15385 0.29368 0.22115 0.0
H721 H 0.1645 0.32043 0.25981 0.0
H722 H 0.16792 0.38953 0.21146 0.0
H723 H 0.15693 0.36311 0.17249 0.0
C724 C 0.21908 0.26747 0.08972 0.0
C725 C 0.22988 0.29058 0.07901 0.0
C726 C 0.19564 0.26826 0.10405 0.0
C727 C 0.18259 0.29217 0.10796 0.0
C728 C 0.19224 0.31489 0.09561 0.0
C729 C 0.21553 0.31408 0.08107 0.0
C730 C 0.16118 0.29406 0.12766 0.0
C731 C 0.16536 0.31019 0.14951 0.0
C732 C 0.13819 0.27842 0.12647 0.0
C733 C 0.1321 0.26216 0.10317 0.0
C734 C 0.13214 0.27339 0.07793 0.0
C735 C 0.12643 0.25803 0.05601 0.0
C736 C 0.12049 0.23143 0.05908 0.0
C737 C 0.12021 0.22014 0.08409 0.0
C738 C 0.12593 0.23541 0.10608 0.0
C739 C 0.07908 0.31932 0.22229 0.0
C740 C 0.07795 0.29753 0.23928 0.0
C741 C 0.09287 0.31788 0.19863 0.0
C742 C 0.10557 0.29458 0.19142 0.0
C743 C 0.10262 0.27218 0.20721 0.0
C744 C 0.08904 0.27366 0.23102 0.0
C745 C 0.12477 0.29466 0.16954 0.0
C746 C 0.12032 0.27878 0.14756 0.0
C747 C 0.14766 0.31047 0.17056 0.0
C748 C 0.15428 0.32643 0.19395 0.0
C749 C 0.15668 0.31458 0.21878 0.0
C750 C 0.16281 0.32969 0.24075 0.0
C751 C 0.16681 0.35669 0.23811 0.0
C752 C 0.16476 0.36861 0.21348 0.0
C753 C 0.15859 0.35357 0.19144 0.0
H754 H 0.17157 0.36838 0.25514 0.0
H755 H 0.11605 0.21957 0.04209 0.0
H756 H 0.96833 0.26279 0.58681 0.0
H757 H 0.97685 0.26907 0.54026 0.0
H758 H 0.92428 0.33533 0.53903 0.0
H759 H 0.91528 0.32892 0.58598 0.0
H760 H 0.91934 0.30506 0.49461 0.0
H761 H 0.98905 0.34583 0.54203 0.0
H762 H 0.02448 0.34913 0.57483 0.0
H763 H 0.06615 0.28655 0.53713 0.0
H764 H 0.03075 0.28259 0.50433 0.0
H765 H 0.97712 0.36164 0.37785 0.0
H766 H 0.95867 0.35214 0.42119 0.0
H767 H 0.00707 0.28303 0.42699 0.0
H768 H 0.02554 0.29227 0.38365 0.0
H769 H 0.01281 0.31651 0.469 0.0
H770 H 0.94238 0.27645 0.42108 0.0
H771 H 0.90682 0.27423 0.38833 0.0
H772 H 0.86667 0.33742 0.42666 0.0
H773 H 0.9022 0.34027 0.45943 0.0
C774 C 0.95835 0.27861 0.57669 0.0
C775 C 0.9413 0.29553 0.59021 0.0
C776 C 0.96332 0.2822 0.55003 0.0
C777 C 0.95161 0.30297 0.53624 0.0
C778 C 0.93363 0.31925 0.54933 0.0
C779 C 0.92853 0.31558 0.57614 0.0
C780 C 0.95918 0.30808 0.50852 0.0
C781 C 0.93973 0.30796 0.48902 0.0
C782 C 0.98583 0.31147 0.50116 0.0
C783 C 0.00713 0.31375 0.52088 0.0
C784 C 0.00566 0.33262 0.54087 0.0
C785 C 0.02576 0.33463 0.55944 0.0
C786 C 0.04752 0.31802 0.5581 0.0
C787 C 0.04926 0.29938 0.53816 0.0
C788 C 0.0292 0.29726 0.51957 0.0
C789 C 0.98349 0.34414 0.38812 0.0
C790 C 0.00294 0.32781 0.37732 0.0
C791 C 0.97285 0.3387 0.41288 0.0
C792 C 0.98152 0.31691 0.42735 0.0
C793 C 1.00013 0.29998 0.41616 0.0
C794 C 0.01059 0.30525 0.39133 0.0
C795 C 0.97306 0.31305 0.45499 0.0
C796 C 0.99241 0.31359 0.47454 0.0
C797 C 0.94635 0.31029 0.46231 0.0
C798 C 0.9251 0.30877 0.44252 0.0
C799 C 0.92611 0.29006 0.42236 0.0
C800 C 0.90593 0.28864 0.40383 0.0
C801 C 0.88454 0.30573 0.40536 0.0
C802 C 0.88327 0.32423 0.42546 0.0
C803 C 0.90342 0.32574 0.44403 0.0
H804 H 0.86892 0.30458 0.39102 0.0
H805 H 0.06307 0.31962 0.57248 0.0
H806 H 0.27036 0.01015 0.40071 0.0
H807 H 0.2706 0.98703 0.44274 0.0
H808 H 0.35459 0.97716 0.43703 0.0
H809 H 0.3545 0.99986 0.3947 0.0
H810 H 0.33119 0.9339 0.45845 0.0
H811 H 0.32943 0.02728 0.47195 0.0
H812 H 0.31216 0.07206 0.46585 0.0
H813 H 0.23817 0.04836 0.499 0.0
H814 H 0.25488 0.00331 0.50495 0.0
H815 H 0.35448 0.91612 0.59679 0.0
H816 H 0.35496 0.92975 0.55058 0.0
H817 H 0.27141 0.94382 0.55388 0.0
H818 H 0.27085 0.93064 0.5998 0.0
H819 H 0.29586 0.98471 0.53333 0.0
H820 H 0.29739 0.89149 0.52036 0.0
H821 H 0.31423 0.84652 0.52608 0.0
H822 H 0.38809 0.86956 0.49217 0.0
H823 H 0.3718 0.9148 0.48659 0.0
C824 C 0.28885 0.00274 0.40817 0.0
C825 C 0.31246 0.00716 0.39447 0.0
C826 C 0.28896 0.98959 0.43226 0.0
C827 C 0.31269 0.98084 0.44327 0.0
C828 C 0.33608 0.98386 0.42896 0.0
C829 C 0.33598 0.99691 0.40478 0.0
C830 C 0.31332 0.9702 0.47042 0.0
C831 C 0.32373 0.94509 0.47489 0.0
C832 C 0.30327 0.98467 0.49182 0.0
C833 C 0.29333 0.01187 0.48867 0.0
C834 C 0.30943 0.03158 0.4778 0.0
C835 C 0.29974 0.05701 0.47438 0.0
C836 C 0.27406 0.06303 0.48197 0.0
C837 C 0.25805 0.04365 0.49309 0.0
C838 C 0.26762 0.01818 0.49652 0.0
C839 C 0.33618 0.92169 0.5875 0.0
C840 C 0.31266 0.92239 0.60199 0.0
C841 C 0.33646 0.92948 0.5611 0.0
C842 C 0.3132 0.93783 0.54873 0.0
C843 C 0.28962 0.93763 0.563 0.0
C844 C 0.28934 0.92999 0.58927 0.0
C845 C 0.3134 0.94818 0.52143 0.0
C846 C 0.30327 0.97341 0.51693 0.0
C847 C 0.32368 0.93379 0.50009 0.0
C848 C 0.33347 0.90659 0.50332 0.0
C849 C 0.3173 0.88702 0.51432 0.0
C850 C 0.32673 0.86147 0.5175 0.0
C851 C 0.35224 0.8552 0.50957 0.0
C852 C 0.36835 0.87446 0.49835 0.0
C853 C 0.35902 0.90005 0.49516 0.0
H854 H 0.35951 0.83541 0.51204 0.0
H855 H 0.26659 0.08273 0.47927 0.0
H856 H 0.95216 0.69759 0.62861 0.0
H857 H 0.94419 0.70276 0.58137 0.0
H858 H 0.02707 0.69324 0.56639 0.0
H859 H 0.03522 0.68873 0.61313 0.0
H860 H 0.00904 0.73075 0.5365 0.0
H861 H 0.98097 0.64243 0.55753 0.0
H862 H 0.95473 0.60883 0.58073 0.0
H863 H 0.88355 0.6439 0.55214 0.0
H864 H 0.90939 0.67789 0.52902 0.0
H865 H 0.01395 0.69936 0.40298 0.0
H866 H 0.01596 0.69745 0.45069 0.0
H867 H 0.93151 0.7046 0.45464 0.0
H868 H 0.92937 0.70516 0.40652 0.0
H869 H 0.94684 0.67173 0.49041 0.0
H870 H 0.97591 0.75819 0.46599 0.0
H871 H 0.00295 0.79032 0.44167 0.0
H872 H 0.07297 0.75825 0.47604 0.0
H873 H 0.04638 0.72571 0.50031 0.0
C874 C 0.96869 0.69675 0.61526 0.0
C875 C 0.99433 0.69259 0.62483 0.0
C876 C 0.96409 0.69958 0.5882 0.0
C877 C 0.98499 0.69806 0.57014 0.0
C878 C 0.01058 0.69452 0.57978 0.0
C879 C 0.01519 0.69185 0.60666 0.0
C880 C 0.98059 0.69972 0.54118 0.0
C881 C 0.99553 0.71772 0.52645 0.0
C882 C 0.96257 0.6832 0.52791 0.0
C883 C 0.94707 0.66286 0.54185 0.0
C884 C 0.95971 0.64308 0.55638 0.0
C885 C 0.94492 0.62395 0.56948 0.0
C886 C 0.91749 0.62428 0.56799 0.0
C887 C 0.90479 0.6437 0.55333 0.0
C888 C 0.9195 0.66289 0.54023 0.0
C889 C 0.99577 0.7004 0.41401 0.0
C890 C 0.97151 0.70262 0.40103 0.0
C891 C 0.99695 0.69951 0.44135 0.0
C892 C 0.97396 0.7017 0.45647 0.0
C893 C 0.94957 0.70311 0.4435 0.0
C894 C 0.94834 0.70342 0.41601 0.0
C895 C 0.97553 0.70253 0.48571 0.0
C896 C 0.9601 0.68501 0.50048 0.0
C897 C 0.99316 0.71948 0.49902 0.0
C898 C 0.00914 0.73943 0.48488 0.0
C899 C 0.99708 0.75794 0.4683 0.0
C900 C 0.01233 0.77621 0.45452 0.0
C901 C 0.03966 0.7763 0.45729 0.0
C902 C 0.0518 0.75817 0.47392 0.0
C903 C 0.03664 0.73983 0.48773 0.0
H904 H 0.05143 0.79045 0.44657 0.0
H905 H 0.90607 0.60945 0.57813 0.0
H906 H 0.66125 0.04542 0.58235 0.0
H907 H 0.6542 0.0308 0.53722 0.0
H908 H 0.72592 0.98591 0.5406 0.0
H909 H 0.73311 1.00034 0.58566 0.0
H910 H 0.72053 0.01389 0.49439 0.0
H911 H 0.66979 0.95497 0.54802 0.0
H912 H 0.63691 0.94328 0.58164 0.0
H913 H 0.5765 0.98077 0.53631 0.0
H914 H 0.60913 0.99304 0.50257 0.0
H915 H 0.70541 0.93666 0.38317 0.0
H916 H 0.70778 0.94626 0.42994 0.0
H917 H 0.63573 0.99039 0.42467 0.0
H918 H 0.63302 0.98072 0.37782 0.0
H919 H 0.64042 0.96285 0.47194 0.0
H920 H 0.69118 0.02246 0.41883 0.0
H921 H 0.72399 0.03425 0.38515 0.0
H922 H 0.78432 0.9958 0.42979 0.0
H923 H 0.75175 0.98344 0.46356 0.0
C924 C 0.67567 0.03267 0.57338 0.0
C925 C 0.69769 0.02394 0.58756 0.0
C926 C 0.67152 0.02421 0.54769 0.0
C927 C 0.68938 0.00704 0.53578 0.0
C928 C 0.71187 0.99909 0.54954 0.0
C929 C 0.71592 0.00733 0.57527 0.0
C930 C 0.68455 0.99703 0.50906 0.0
C931 C 0.70318 0.00247 0.48955 0.0
C932 C 0.66163 0.98259 0.50273 0.0
C933 C 0.64195 0.97516 0.52291 0.0
C934 C 0.64954 0.96092 0.54533 0.0
C935 C 0.63094 0.95415 0.56439 0.0
C936 C 0.60465 0.96134 0.56116 0.0
C937 C 0.59689 0.97526 0.53881 0.0
C938 C 0.61542 0.98211 0.51971 0.0
C939 C 0.68973 0.94791 0.39203 0.0
C940 C 0.66927 0.95834 0.37669 0.0
C941 C 0.69116 0.95342 0.41875 0.0
C942 C 0.67224 0.9695 0.43054 0.0
C943 C 0.6506 0.97807 0.41583 0.0
C944 C 0.64912 0.97255 0.38905 0.0
C945 C 0.67651 0.97956 0.45735 0.0
C946 C 0.65777 0.97424 0.47683 0.0
C947 C 0.69932 0.99418 0.4637 0.0
C948 C 0.71899 0.00181 0.44358 0.0
C949 C 0.71141 0.01636 0.42136 0.0
C950 C 0.72996 0.02316 0.40227 0.0
C951 C 0.75621 0.01572 0.40529 0.0
C952 C 0.76397 0.00152 0.42746 0.0
C953 C 0.74548 0.99463 0.44659 0.0
H954 H 0.77055 0.02101 0.39049 0.0
H955 H 0.59027 0.95608 0.57593 0.0
H956 H 0.42244 0.0093 0.28998 0.0
H957 H 0.46951 0.00854 0.2814 0.0
H958 H 0.47995 0.07708 0.32976 0.0
H959 H 0.43229 0.07866 0.33739 0.0
H960 H 0.51134 0.08067 0.28955 0.0
H961 H 0.49429 0.01358 0.35241 0.0
H962 H 0.47211 0.97497 0.37162 0.0
H963 H 0.49633 0.92813 0.30616 0.0
H964 H 0.51834 0.96656 0.28636 0.0
H965 H 0.64933 0.03209 0.31106 0.0
H966 H 0.60425 0.04726 0.31868 0.0
H967 H 0.58042 0.01514 0.2444 0.0
H968 H 0.62529 1.00048 0.23621 0.0
H969 H 0.55774 0.996 0.30194 0.0
H970 H 0.57191 0.06726 0.23852 0.0
H971 H 0.59518 0.10671 0.22259 0.0
H972 H 0.57819 0.14617 0.29485 0.0
H973 H 0.55516 0.10675 0.31135 0.0
C974 C 0.43473 0.02424 0.2988 0.0
C975 C 0.42375 0.04384 0.31465 0.0
C976 C 0.46169 0.02373 0.29395 0.0
C977 C 0.47845 0.04231 0.30551 0.0
C978 C 0.46746 0.0624 0.32078 0.0
C979 C 0.44028 0.06325 0.3252 0.0
C980 C 0.50739 0.04028 0.30181 0.0
C981 C 0.52149 0.06222 0.29262 0.0
C982 C 0.52083 0.01627 0.30587 0.0
C983 C 0.50781 0.99302 0.31782 0.0
C984 C 0.49476 0.99508 0.34204 0.0
C985 C 0.48222 0.97322 0.35304 0.0
C986 C 0.48277 0.94912 0.3401 0.0
C987 C 0.49591 0.94681 0.31616 0.0
C988 C 0.50845 0.96862 0.30505 0.0
C989 C 0.63472 0.02905 0.29592 0.0
C990 C 0.64092 0.01486 0.2731 0.0
C991 C 0.60899 0.03771 0.30035 0.0
C992 C 0.58915 0.03228 0.28208 0.0
C993 C 0.59559 0.01964 0.25861 0.0
C994 C 0.62129 0.01129 0.254 0.0
C995 C 0.56122 0.03605 0.28901 0.0
C996 C 0.54745 0.01442 0.29905 0.0
C997 C 0.5483 0.06036 0.28619 0.0
C998 C 0.56221 0.08394 0.27631 0.0
C999 C 0.57346 0.08422 0.25114 0.0
C1000 C 0.58651 0.1066 0.24197 0.0
C1001 C 0.58827 0.1289 0.25774 0.0
C1002 C 0.57689 0.12887 0.28268 0.0
C1003 C 0.56383 0.10652 0.29195 0.0
H1004 H 0.59837 0.14622 0.2506 0.0
H1005 H 0.47305 0.93222 0.34864 0.0
H1006 H 0.05281 0.5841 0.6635 0.0
H1007 H 0.04381 0.53682 0.66033 0.0
H1008 H 0.00292 0.53913 0.73437 0.0
H1009 H 0.0117 0.58607 0.7376 0.0
H1010 H 0.03483 0.49671 0.73164 0.0
H1011 H 0.96798 0.53704 0.67947 0.0
H1012 H 0.95013 0.56572 0.64476 0.0
H1013 H 0.99208 0.52191 0.58648 0.0
H1014 H 0.01039 0.49312 0.62094 0.0
H1015 H 0.94182 0.39104 0.72235 0.0
H1016 H 0.96478 0.43323 0.72531 0.0
H1017 H 0.01555 0.41066 0.6616 0.0
H1018 H 0.99313 0.36779 0.65927 0.0
H1019 H 0.98393 0.46133 0.65669 0.0
H1020 H 0.04577 0.41698 0.7121 0.0
H1021 H 0.05983 0.38885 0.7489 0.0
H1022 H 0.02284 0.44105 0.80345 0.0
H1023 H 0.00822 0.46931 0.76693 0.0
C1024 C 0.04216 0.57443 0.6792 0.0
C1025 C 0.03302 0.58882 0.70081 0.0
C1026 C 0.03688 0.54747 0.6773 0.0
C1027 C 0.0226 0.53443 0.69708 0.0
C1028 C 0.01404 0.5487 0.71892 0.0
C1029 C 0.01902 0.57559 0.72068 0.0
C1030 C 0.016 0.50604 0.69498 0.0
C1031 C 0.02366 0.489 0.71527 0.0
C1032 C 1.00165 0.49587 0.67352 0.0
C1033 C 0.99083 0.51317 0.65278 0.0
C1034 C 0.97359 0.53369 0.65927 0.0
C1035 C 0.96334 0.54991 0.63965 0.0
C1036 C 0.97005 0.5457 0.61344 0.0
C1037 C 0.98695 0.52519 0.6068 0.0
C1038 C 0.99725 0.50889 0.62636 0.0
C1039 C 0.95839 0.39481 0.70951 0.0
C1040 C 0.96593 0.37617 0.69078 0.0
C1041 C 0.97143 0.4189 0.71116 0.0
C1042 C 0.99181 0.42507 0.69365 0.0
C1043 C 0.99992 0.40619 0.67535 0.0
C1044 C 0.98729 0.3817 0.67417 0.0
C1045 C 0.00283 0.45207 0.6933 0.0
C1046 C 0.99567 0.46894 0.67272 0.0
C1047 C 0.0172 0.46218 0.71473 0.0
C1048 C 0.0257 0.44512 0.73675 0.0
C1049 C 0.04039 0.42231 0.73192 0.0
C1050 C 0.04852 0.40638 0.75274 0.0
C1051 C 0.04219 0.41312 0.77849 0.0
C1052 C 0.02772 0.43583 0.78349 0.0
C1053 C 0.01953 0.45183 0.76274 0.0
H1054 H 0.04853 0.40078 0.79459 0.0
H1055 H 0.96209 0.55828 0.59827 0.0
H1056 H 0.60409 0.03524 0.67155 0.0
H1057 H 0.55722 0.02682 0.67533 0.0
H1058 H 0.57242 0.96314 0.72907 0.0
H1059 H 0.61994 0.9714 0.72531 0.0
H1060 H 0.53571 0.94989 0.69215 0.0
H1061 H 0.54839 0.0198 0.75222 0.0
H1062 H 0.5639 0.06271 0.76818 0.0
H1063 H 0.51761 0.10182 0.70958 0.0
H1064 H 0.50211 0.05912 0.69299 0.0
H1065 H 0.39964 0.9405 0.72463 0.0
H1066 H 0.44593 0.95138 0.73203 0.0
H1067 H 0.44462 0.00398 0.6657 0.0
H1068 H 0.39843 0.99266 0.65764 0.0
H1069 H 0.47397 0.02177 0.71444 0.0
H1070 H 0.46642 0.95107 0.65146 0.0
H1071 H 0.44993 0.90812 0.63655 0.0
H1072 H 0.48642 0.87057 0.70263 0.0
H1073 H 0.50278 0.91342 0.71815 0.0
C1074 C 0.59764 0.01939 0.68423 0.0
C1075 C 0.61591 0.00402 0.6982 0.0
C1076 C 0.57071 0.01472 0.68648 0.0
C1077 C 0.56123 0.99464 0.7028 0.0
C1078 C 0.57931 0.97888 0.71648 0.0
C1079 C 0.60644 0.98363 0.71434 0.0
C1080 C 0.53241 0.99001 0.70487 0.0
C1081 C 0.52229 0.96547 0.69756 0.0
C1082 C 0.51477 0.01046 0.7115 0.0
C1083 C 0.52424 0.03621 0.72123 0.0
C1084 C 0.54171 0.03753 0.74257 0.0
C1085 C 0.55046 0.06183 0.75176 0.0
C1086 C 0.54176 0.08498 0.73987 0.0
C1087 C 0.52433 0.08387 0.71876 0.0
C1088 C 0.51553 0.05962 0.70947 0.0
C1089 C 0.40897 0.95488 0.71198 0.0
C1090 C 0.39538 0.96569 0.69047 0.0
C1091 C 0.43546 0.96097 0.71619 0.0
C1092 C 0.44867 0.97832 0.69931 0.0
C1093 C 0.43471 0.99055 0.67894 0.0
C1094 C 0.40836 0.98406 0.67437 0.0
C1095 C 0.47752 0.98189 0.70141 0.0
C1096 C 0.48754 0.00618 0.70942 0.0
C1097 C 0.49508 0.96124 0.69555 0.0
C1098 C 0.48551 0.93546 0.68614 0.0
C1099 C 0.4707 0.93368 0.66295 0.0
C1100 C 0.46142 0.90936 0.65435 0.0
C1101 C 0.46704 0.88664 0.66868 0.0
C1102 C 0.48203 0.88819 0.69158 0.0
C1103 C 0.49132 0.91249 0.70028 0.0
H1104 H 0.45984 0.86782 0.662 0.0
H1105 H 0.54844 0.10379 0.74706 0.0
H1106 H 0.98078 0.63009 0.27658 0.0
H1107 H 0.99227 0.58385 0.27192 0.0
H1108 H 0.05745 0.5942 0.32488 0.0
H1109 H 0.04612 0.64059 0.32976 0.0
H1110 H 0.06842 0.55943 0.28236 0.0
H1111 H 0.00355 0.57243 0.34978 0.0
H1112 H 0.96195 0.58926 0.36789 0.0
H1113 H 0.91839 0.5451 0.31097 0.0
H1114 H 0.9598 0.52832 0.29225 0.0
H1115 H 0.08038 0.4253 0.32382 0.0
H1116 H 0.07571 0.47316 0.32256 0.0
H1117 H 0.00642 0.4653 0.2745 0.0
H1118 H 0.01088 0.41766 0.27567 0.0
H1119 H 0.99865 0.49916 0.31461 0.0
H1120 H 0.06285 0.48529 0.24751 0.0
H1121 H 0.10414 0.46828 0.2289 0.0
H1122 H 0.14865 0.51342 0.2843 0.0
H1123 H 0.10756 0.53042 0.30351 0.0
C1124 C 0.9979 0.62274 0.28686 0.0
C1125 C 0.01232 0.63904 0.30383 0.0
C1126 C 0.00439 0.59625 0.2842 0.0
C1127 C 0.02546 0.58552 0.29837 0.0
C1128 C 0.04106 0.60209 0.31383 0.0
C1129 C 0.0345 0.6286 0.31663 0.0
C1130 C 0.02957 0.55668 0.29893 0.0
C1131 C 0.05332 0.54624 0.28967 0.0
C1132 C 0.0097 0.53946 0.30811 0.0
C1133 C 0.98477 0.54934 0.31946 0.0
C1134 C 0.98511 0.56648 0.341 0.0
C1135 C 0.96157 0.57598 0.35139 0.0
C1136 C 0.93754 0.56831 0.34055 0.0
C1137 C 0.93702 0.55106 0.31933 0.0
C1138 C 0.96052 0.54154 0.30882 0.0
C1139 C 0.06421 0.43378 0.31293 0.0
C1140 C 0.04602 0.41764 0.29984 0.0
C1141 C 0.06162 0.46113 0.31213 0.0
C1142 C 0.04079 0.47281 0.2983 0.0
C1143 C 0.02263 0.45672 0.28529 0.0
C1144 C 0.02528 0.42946 0.28594 0.0
C1145 C 0.03744 0.50177 0.29783 0.0
C1146 C 0.0138 0.51228 0.30724 0.0
C1147 C 0.05739 0.51896 0.28872 0.0
C1148 C 0.08213 0.50892 0.27712 0.0
C1149 C 0.08143 0.49143 0.25587 0.0
C1150 C 0.1048 0.48181 0.24519 0.0
C1151 C 0.129 0.48971 0.25546 0.0
C1152 C 0.12988 0.5073 0.27639 0.0
C1153 C 0.10656 0.51695 0.28717 0.0
H1154 H 0.14708 0.48225 0.24716 0.0
H1155 H 0.91933 0.57568 0.34863 0.0
H1156 H 0.27167 0.4078 0.02806 0.0
H1157 H 0.27651 0.45493 0.02179 0.0
H1158 H 0.33065 0.45827 0.08676 0.0
H1159 H 0.3256 0.41077 0.09347 0.0
H1160 H 0.29707 0.50013 0.08657 0.0
H1161 H 0.35422 0.45868 0.02524 0.0
H1162 H 0.36696 0.42777 0.99042 0.0
H1163 H 0.31083 0.46287 0.93822 0.0
H1164 H 0.29751 0.49379 0.97284 0.0
H1165 H 0.34789 0.62598 0.0456 0.0
H1166 H 0.34266 0.58018 0.05934 0.0
H1167 H 0.28578 0.56814 0.99785 0.0
H1168 H 0.2909 0.61374 0.98394 0.0
H1169 H 0.32407 0.53068 0.99806 0.0
H1170 H 0.26628 0.57139 0.06077 0.0
H1171 H 0.25467 0.60246 0.09583 0.0
H1172 H 0.31393 0.56903 0.14562 0.0
H1173 H 0.32613 0.53796 0.11071 0.0
C1174 C 0.28448 0.41851 0.0412 0.0
C1175 C 0.29845 0.40548 0.06113 0.0
C1176 C 0.28729 0.44548 0.03751 0.0
C1177 C 0.30434 0.46003 0.05346 0.0
C1178 C 0.31749 0.44736 0.07413 0.0
C1179 C 0.31459 0.42025 0.07794 0.0
C1180 C 0.30883 0.48828 0.04782 0.0
C1181 C 0.30338 0.50682 0.06736 0.0
C1182 C 0.31677 0.49701 0.02263 0.0
C1183 C 0.32471 0.47842 0.00173 0.0
C1184 C 0.34444 0.45968 0.0064 0.0
C1185 C 0.3518 0.44218 0.98669 0.0
C1186 C 0.33966 0.44332 0.96215 0.0
C1187 C 0.32019 0.462 0.95725 0.0
C1188 C 0.31276 0.47954 0.9769 0.0
C1189 C 0.33407 0.61367 0.03517 0.0
C1190 C 0.31991 0.62351 0.01359 0.0
C1191 C 0.33106 0.58751 0.0431 0.0
C1192 C 0.31381 0.57077 0.02962 0.0
C1193 C 0.29926 0.58071 0.00847 0.0
C1194 C 0.30217 0.60682 0.00059 0.0
C1195 C 0.31181 0.54256 0.03662 0.0
C1196 C 0.31786 0.524 0.01732 0.0
C1197 C 0.30463 0.53388 0.06204 0.0
C1198 C 0.2973 0.55254 0.08303 0.0
C1199 C 0.27699 0.57081 0.07911 0.0
C1200 C 0.27027 0.58839 0.09897 0.0
C1201 C 0.28361 0.58777 0.12291 0.0
C1202 C 0.30365 0.56951 0.12706 0.0
C1203 C 0.31045 0.5519 0.10725 0.0
H1204 H 0.27837 0.60139 0.13826 0.0
H1205 H 0.34539 0.42976 0.94691 0.0
H1206 H 0.40793 0.71128 0.9312 0.0
H1207 H 0.45607 0.71408 0.93004 0.0
H1208 H 0.45844 0.70586 0.01428 0.0
H1209 H 0.41056 0.70451 0.01555 0.0
H1210 H 0.492 0.74002 0.0018 0.0
H1211 H 0.47341 0.65386 0.96907 0.0
H1212 H 0.45192 0.62197 0.93977 0.0
H1213 H 0.48904 0.65807 0.8731 0.0
H1214 H 0.51053 0.69038 0.90202 0.0
H1215 H 0.6249 0.70375 0.01981 0.0
H1216 H 0.57717 0.70672 0.01727 0.0
H1217 H 0.58218 0.71429 0.93305 0.0
H1218 H 0.63019 0.70893 0.93564 0.0
H1219 H 0.54473 0.68328 0.94324 0.0
H1220 H 0.56629 0.7684 0.98131 0.0
H1221 H 0.58677 0.79736 0.01421 0.0
H1222 H 0.54323 0.75887 0.07546 0.0
H1223 H 0.52271 0.72956 0.043 0.0
C1224 C 0.41881 0.71004 0.94941 0.0
C1225 C 0.4055 0.70759 0.97344 0.0
C1226 C 0.44634 0.71153 0.94876 0.0
C1227 C 0.46111 0.70977 0.97205 0.0
C1228 C 0.44768 0.70736 0.99602 0.0
C1229 C 0.42024 0.70649 0.99672 0.0
C1230 C 0.49049 0.71051 0.97176 0.0
C1231 C 0.50351 0.72745 0.98911 0.0
C1232 C 0.50569 0.69444 0.95501 0.0
C1233 C 0.49338 0.67465 0.93766 0.0
C1234 C 0.47691 0.65504 0.94815 0.0
C1235 C 0.46473 0.6369 0.93162 0.0
C1236 C 0.46906 0.63804 0.90458 0.0
C1237 C 0.48569 0.65724 0.89405 0.0
C1238 C 0.4979 0.67544 0.9105 0.0
C1239 C 0.61581 0.7066 0.00081 0.0
C1240 C 0.63119 0.70673 0.97795 0.0
C1241 C 0.58844 0.70845 0.99933 0.0
C1242 C 0.57578 0.71158 0.97501 0.0
C1243 C 0.59131 0.71212 0.95211 0.0
C1244 C 0.61875 0.70934 0.95355 0.0
C1245 C 0.54639 0.71276 0.97343 0.0
C1246 C 0.53331 0.69612 0.95572 0.0
C1247 C 0.53108 0.72868 0.99035 0.0
C1248 C 0.54308 0.74672 0.00972 0.0
C1249 C 0.56115 0.7661 0.0018 0.0
C1250 C 0.57276 0.78256 0.02038 0.0
C1251 C 0.56634 0.77993 0.04691 0.0
C1252 C 0.5482 0.7609 0.05492 0.0
C1253 C 0.53653 0.7444 0.03643 0.0
H1254 H 0.5754 0.79265 0.06126 0.0
H1255 H 0.45957 0.62401 0.89181 0.0
H1256 H 0.73222 0.39118 0.98013 0.0
H1257 H 0.73829 0.43856 0.98384 0.0
H1258 H 0.65566 0.45022 0.96825 0.0
H1259 H 0.64993 0.40282 0.96296 0.0
H1260 H 0.68165 0.48595 0.94417 0.0
H1261 H 0.68399 0.45239 0.03254 0.0
H1262 H 0.69952 0.4242 0.06873 0.0
H1263 H 0.77744 0.45578 0.06032 0.0
H1264 H 0.76241 0.48395 0.02387 0.0
H1265 H 0.66696 0.61073 0.00631 0.0
H1266 H 0.66507 0.56379 0.99616 0.0
H1267 H 0.74955 0.56188 0.98925 0.0
H1268 H 0.75162 0.60887 0.99887 0.0
H1269 H 0.72518 0.52214 0.02326 0.0
H1270 H 0.72057 0.55786 0.936 0.0
H1271 H 0.7031 0.58696 0.90147 0.0
H1272 H 0.62667 0.55205 0.91024 0.0
H1273 H 0.64363 0.52294 0.94508 0.0
C1274 C 0.71538 0.40391 0.97752 0.0
C1275 C 0.69056 0.39348 0.97153 0.0
C1276 C 0.71883 0.43095 0.97973 0.0
C1277 C 0.69731 0.44795 0.97694 0.0
C1278 C 0.67255 0.4375 0.97055 0.0
C1279 C 0.66925 0.41047 0.96764 0.0
C1280 C 0.70051 0.47657 0.9809 0.0
C1281 C 0.69091 0.4938 0.96163 0.0
C1282 C 0.7131 0.48692 0.0034 0.0
C1283 C 0.72213 0.47007 0.02534 0.0
C1284 C 0.70447 0.45319 0.03831 0.0
C1285 C 0.71318 0.43724 0.05888 0.0
C1286 C 0.73947 0.43815 0.06678 0.0
C1287 C 0.75709 0.45507 0.05416 0.0
C1288 C 0.74849 0.47104 0.03357 0.0
C1289 C 0.68511 0.60028 0.00263 0.0
C1290 C 0.70943 0.61333 0.00346 0.0
C1291 C 0.68399 0.5736 0.9967 0.0
C1292 C 0.70718 0.5596 0.99189 0.0
C1293 C 0.73149 0.57251 0.99286 0.0
C1294 C 0.7326 0.59927 0.99833 0.0
C1295 C 0.70603 0.53121 0.98677 0.0
C1296 C 0.71604 0.51412 0.00581 0.0
C1297 C 0.69351 0.52103 0.96431 0.0
C1298 C 0.68331 0.5384 0.9433 0.0
C1299 C 0.69998 0.55655 0.93072 0.0
C1300 C 0.69019 0.573 0.91105 0.0
C1301 C 0.66377 0.5714 0.90371 0.0
C1302 C 0.64712 0.55328 0.91596 0.0
C1303 C 0.65682 0.53678 0.93564 0.0
H1304 H 0.65622 0.58416 0.88848 0.0
H1305 H 0.74617 0.42578 0.08271 0.0
H1306 H 0.3858 0.33526 0.04353 0.0
H1307 H 0.43218 0.3341 0.03296 0.0
H1308 H 0.42154 0.25999 0.99369 0.0
H1309 H 0.37471 0.26042 0.00543 0.0
H1310 H 0.46328 0.25753 0.02295 0.0
H1311 H 0.43402 0.31946 0.95931 0.0
H1312 H 0.41032 0.35819 0.94254 0.0
H1313 H 0.45637 0.40829 0.99212 0.0
H1314 H 0.48013 0.36984 0.00945 0.0
H1315 H 0.59639 0.26949 0.97419 0.0
H1316 H 0.54901 0.26353 0.97996 0.0
H1317 H 0.54597 0.33369 0.02687 0.0
H1318 H 0.59316 0.34002 0.02088 0.0
H1319 H 0.51072 0.3352 0.98787 0.0
H1320 H 0.53728 0.27177 0.05362 0.0
H1321 H 0.56088 0.23259 0.06949 0.0
H1322 H 0.51998 0.18488 0.01348 0.0
H1323 H 0.49636 0.22386 0.99706 0.0
C1324 C 0.39308 0.31879 0.03233 0.0
C1325 C 0.3764 0.29793 0.02527 0.0
C1326 C 0.41975 0.31825 0.02614 0.0
C1327 C 0.43041 0.2972 0.01208 0.0
C1328 C 0.41376 0.27652 0.00447 0.0
C1329 C 0.38698 0.27685 0.01105 0.0
C1330 C 0.45917 0.29645 0.00676 0.0
C1331 C 0.47358 0.27433 0.01476 0.0
C1332 C 0.47278 0.31846 0.99641 0.0
C1333 C 0.45875 0.34172 0.98579 0.0
C1334 C 0.43901 0.33872 0.96674 0.0
C1335 C 0.42557 0.36063 0.95712 0.0
C1336 C 0.4318 0.38568 0.96629 0.0
C1337 C 0.45156 0.38888 0.98503 0.0
C1338 C 0.46505 0.36703 0.99473 0.0
C1339 C 0.58575 0.28332 0.98624 0.0
C1340 C 0.59855 0.30534 0.99694 0.0
C1341 C 0.55863 0.27989 0.9895 0.0
C1342 C 0.54391 0.29824 0.00375 0.0
C1343 C 0.55691 0.3194 0.01563 0.0
C1344 C 0.58394 0.32291 0.0123 0.0
C1345 C 0.51477 0.29666 0.00479 0.0
C1346 C 0.50034 0.31833 0.99581 0.0
C1347 C 0.5012 0.27418 0.01397 0.0
C1348 C 0.51527 0.25076 0.02394 0.0
C1349 C 0.53348 0.25295 0.04456 0.0
C1350 C 0.54682 0.23078 0.05368 0.0
C1351 C 0.54199 0.20627 0.04245 0.0
C1352 C 0.52373 0.20388 0.02214 0.0
C1353 C 0.51034 0.226 0.01293 0.0
H1354 H 0.55234 0.18913 0.04954 0.0
H1355 H 0.42134 0.40261 0.95885 0.0
loop_
_geom_bond_atom_site_label_1
_geom_bond_atom_site_label_2
_geom_bond_distance
_geom_bond_site_symmetry_2
_ccdc_geom_bond_type
Mg0 O7 2.141 . S
Mg0 O8 2.048 . S
Mg0 O9 2.048 . S
Mg0 O12 2.141 . S
C1 O2 1.313 . S
C1 O8 1.195 . S
O2 C1 1.313 . S
C3 O4 1.245 . S
C3 O12 1.289 . S
O4 C3 1.245 . S
C5 O6 1.245 . S
C5 O7 1.289 . S
O6 C5 1.245 . S
O7 Mg0 2.141 . S
O7 C5 1.289 . S
O8 Mg0 2.048 . S
O8 C1 1.195 . S
O9 Mg0 2.048 . S
O9 C10 1.195 . S
C10 O9 1.195 . S
C10 O11 1.313 . S
O11 C10 1.313 . S
O12 Mg0 2.141 . S
O12 C3 1.289 . S
Mg13 O20 2.141 . S
Mg13 O21 2.048 . S
Mg13 O22 2.048 . S
Mg13 O25 2.141 . S
C14 O15 1.313 . S
C14 O21 1.195 . S
O15 C14 1.313 . S
C16 O17 1.245 . S
C16 O25 1.289 . S
O17 C16 1.245 . S
C18 O19 1.245 . S
C18 O20 1.289 . S
O19 C18 1.245 . S
O20 Mg13 2.141 . S
O20 C18 1.289 . S
O21 Mg13 2.048 . S
O21 C14 1.195 . S
O22 Mg13 2.048 . S
O22 C23 1.195 . S
C23 O22 1.195 . S
C23 O24 1.313 . S
O24 C23 1.313 . S
O25 Mg13 2.141 . S
O25 C16 1.289 . S
Mg26 O33 2.141 . S
Mg26 O34 2.048 . S
Mg26 O35 2.048 . S
Mg26 O38 2.141 . S
C27 O28 1.313 . S
C27 O34 1.195 . S
O28 C27 1.313 . S
C29 O30 1.245 . S
C29 O38 1.289 . S
O30 C29 1.245 . S
C31 O32 1.245 . S
C31 O33 1.289 . S
O32 C31 1.245 . S
O33 Mg26 2.141 . S
O33 C31 1.289 . S
O34 Mg26 2.048 . S
O34 C27 1.195 . S
O35 Mg26 2.048 . S
O35 C36 1.195 . S
C36 O35 1.195 . S
C36 O37 1.313 . S
O37 C36 1.313 . S
O38 Mg26 2.141 . S
O38 C29 1.289 . S
Mg39 O46 2.141 . S
Mg39 O47 2.048 . S
Mg39 O48 2.048 . S
Mg39 O51 2.141 . S
C40 O41 1.313 1_545 S
C40 O47 1.195 . S
O41 C40 1.313 1_565 S
C42 O43 1.245 . S
C42 O51 1.289 . S
O43 C42 1.245 . S
C44 O45 1.245 1_545 S
C44 O46 1.289 . S
O45 C44 1.245 1_565 S
O46 Mg39 2.141 . S
O46 C44 1.289 . S
O47 Mg39 2.048 . S
O47 C40 1.195 . S
O48 Mg39 2.048 . S
O48 C49 1.195 . S
C49 O48 1.195 . S
C49 O50 1.313 . S
O50 C49 1.313 . S
O51 Mg39 2.141 . S
O51 C42 1.289 . S
Mg52 O59 2.141 . S
Mg52 O60 2.048 . S
Mg52 O61 2.048 . S
Mg52 O64 2.141 . S
C53 O54 1.313 1_455 S
C53 O60 1.195 . S
O54 C53 1.313 1_655 S
C55 O56 1.245 . S
C55 O64 1.289 . S
O56 C55 1.245 . S
C57 O58 1.245 1_455 S
C57 O59 1.289 . S
O58 C57 1.245 1_655 S
O59 Mg52 2.141 . S
O59 C57 1.289 . S
O60 Mg52 2.048 . S
O60 C53 1.195 . S
O61 Mg52 2.048 . S
O61 C62 1.195 . S
C62 O61 1.195 . S
C62 O63 1.313 . S
O63 C62 1.313 . S
O64 Mg52 2.141 . S
O64 C55 1.289 . S
Mg65 O72 2.141 . S
Mg65 O73 2.048 . S
Mg65 O74 2.048 . S
Mg65 O77 2.141 . S
C66 O67 1.313 . S
C66 O73 1.195 . S
O67 C66 1.313 . S
C68 O69 1.245 . S
C68 O77 1.289 . S
O69 C68 1.245 . S
C70 O71 1.245 . S
C70 O72 1.289 . S
O71 C70 1.245 . S
O72 Mg65 2.141 . S
O72 C70 1.289 . S
O73 Mg65 2.048 . S
O73 C66 1.195 . S
O74 Mg65 2.048 . S
O74 C75 1.195 . S
C75 O74 1.195 . S
C75 O76 1.313 . S
O76 C75 1.313 . S
O77 Mg65 2.141 . S
O77 C68 1.289 . S
Mg78 O85 2.141 . S
Mg78 O86 2.048 . S
Mg78 O87 2.048 . S
Mg78 O90 2.141 . S
C79 O80 1.313 1_655 S
C79 O86 1.195 . S
O80 C79 1.313 1_455 S
C81 O82 1.245 . S
C81 O90 1.289 . S
O82 C81 1.245 . S
C83 O84 1.245 1_655 S
C83 O85 1.289 . S
O84 C83 1.245 1_455 S
O85 Mg78 2.141 . S
O85 C83 1.289 . S
O86 Mg78 2.048 . S
O86 C79 1.195 . S
O87 Mg78 2.048 . S
O87 C88 1.195 . S
C88 O87 1.195 . S
C88 O89 1.313 . S
O89 C88 1.313 . S
O90 Mg78 2.141 . S
O90 C81 1.289 . S
Mg91 O98 2.141 . S
Mg91 O99 2.048 . S
Mg91 O100 2.048 . S
Mg91 O103 2.141 . S
C92 O93 1.313 . S
C92 O99 1.195 . S
O93 C92 1.313 . S
C94 O95 1.245 . S
C94 O103 1.289 . S
O95 C94 1.245 . S
C96 O97 1.245 . S
C96 O98 1.289 . S
O97 C96 1.245 . S
O98 Mg91 2.141 . S
O98 C96 1.289 . S
O99 Mg91 2.048 . S
O99 C92 1.195 . S
O100 Mg91 2.048 . S
O100 C101 1.195 . S
C101 O100 1.195 . S
C101 O102 1.313 . S
O102 C101 1.313 . S
O103 Mg91 2.141 . S
O103 C94 1.289 . S
Mg104 O111 2.141 . S
Mg104 O112 2.048 . S
Mg104 O113 2.048 . S
Mg104 O116 2.141 . S
C105 O106 1.313 . S
C105 O112 1.195 . S
O106 C105 1.313 . S
C107 O108 1.245 . S
C107 O116 1.289 . S
O108 C107 1.245 . S
C109 O110 1.245 1_554 S
C109 O111 1.289 . S
O110 C109 1.245 1_556 S
O111 Mg104 2.141 . S
O111 C109 1.289 . S
O112 Mg104 2.048 . S
O112 C105 1.195 . S
O113 Mg104 2.048 . S
O113 C114 1.195 . S
C114 O113 1.195 . S
C114 O115 1.313 . S
O115 C114 1.313 . S
O116 Mg104 2.141 . S
O116 C107 1.289 . S
Mg117 O124 2.141 . S
Mg117 O125 2.048 . S
Mg117 O126 2.048 . S
Mg117 O129 2.141 . S
C118 O119 1.313 . S
C118 O125 1.195 . S
O119 C118 1.313 . S
C120 O121 1.245 . S
C120 O129 1.289 . S
O121 C120 1.245 . S
C122 O123 1.245 . S
C122 O124 1.289 . S
O123 C122 1.245 . S
O124 Mg117 2.141 . S
O124 C122 1.289 . S
O125 Mg117 2.048 . S
O125 C118 1.195 . S
O126 Mg117 2.048 . S
O126 C127 1.195 . S
C127 O126 1.195 . S
C127 O128 1.313 . S
O128 C127 1.313 . S
O129 Mg117 2.141 . S
O129 C120 1.289 . S
Mg130 O137 2.141 . S
Mg130 O138 2.048 . S
Mg130 O139 2.048 . S
Mg130 O142 2.141 . S
C131 O132 1.313 1_554 S
C131 O138 1.195 . S
O132 C131 1.313 1_556 S
C133 O134 1.245 . S
C133 O142 1.289 . S
O134 C133 1.245 . S
C135 O136 1.245 1_554 S
C135 O137 1.289 . S
O136 C135 1.245 1_556 S
O137 Mg130 2.141 . S
O137 C135 1.289 . S
O138 Mg130 2.048 . S
O138 C131 1.195 . S
O139 Mg130 2.048 . S
O139 C140 1.195 . S
C140 O139 1.195 . S
C140 O141 1.313 . S
O141 C140 1.313 . S
O142 Mg130 2.141 . S
O142 C133 1.289 . S
Mg143 O150 2.141 . S
Mg143 O151 2.048 . S
Mg143 O152 2.048 . S
Mg143 O155 2.141 . S
C144 O145 1.313 . S
C144 O151 1.195 . S
O145 C144 1.313 . S
C146 O147 1.215 1_556 S
C146 O155 1.289 . S
O147 C146 1.215 1_554 S
C148 O149 1.245 . S
C148 O150 1.289 . S
O149 C148 1.245 . S
O150 Mg143 2.141 . S
O150 C148 1.289 . S
O151 Mg143 2.048 . S
O151 C144 1.195 . S
O152 Mg143 2.048 . S
O152 C153 1.195 . S
C153 O152 1.195 . S
C153 O154 1.313 . S
O154 C153 1.313 . S
O155 Mg143 2.141 . S
O155 C146 1.289 . S
H156 C174 0.951 . S
H157 C176 0.951 . S
H158 C178 0.950 . S
H159 C179 0.950 . S
H160 C181 0.950 . S
H161 C184 0.950 . S
H162 C185 0.950 . S
H163 C187 0.950 . S
H164 C188 0.950 . S
H165 C189 0.951 . S
H166 C191 0.951 . S
H167 C193 0.950 . S
H168 C194 0.950 . S
H169 C196 0.950 . S
H170 C199 0.950 . S
H171 C200 0.950 . S
H172 C202 0.950 . S
H173 C203 0.950 . S
C174 H156 0.951 . S
C174 C175 1.366 . S
C174 C176 1.388 . S
C175 C174 1.366 . S
C175 C179 1.385 . S
C176 H157 0.951 . S
C176 C174 1.388 . S
C176 C177 1.366 . S
C177 C176 1.366 . S
C177 C178 1.414 . S
C177 C180 1.499 . S
C178 H158 0.950 . S
C178 C177 1.414 . S
C178 C179 1.374 . S
C179 H159 0.950 . S
C179 C175 1.385 . S
C179 C178 1.374 . S
C180 C177 1.499 . S
C180 C181 1.373 . S
C180 C182 1.389 . S
C181 H160 0.950 . S
C181 C180 1.373 . S
C181 C197 1.377 . S
C182 C180 1.389 . S
C182 C183 1.524 . S
C182 C196 1.377 . S
C183 C182 1.524 . S
C183 C184 1.397 . S
C183 C188 1.363 . S
C184 H161 0.950 . S
C184 C183 1.397 . S
C184 C185 1.334 . S
C185 H162 0.950 . S
C185 C184 1.334 . S
C185 C186 1.287 . S
C186 C185 1.287 . S
C186 C187 1.524 . S
C186 H205 0.913 . S
C187 H163 0.950 . S
C187 C186 1.524 . S
C187 C188 1.415 . S
C188 H164 0.950 . S
C188 C183 1.363 . S
C188 C187 1.415 . S
C189 H165 0.951 . S
C189 C190 1.366 . S
C189 C191 1.388 . S
C190 C189 1.366 . S
C190 C194 1.385 . S
C191 H166 0.951 . S
C191 C189 1.388 . S
C191 C192 1.366 . S
C192 C191 1.366 . S
C192 C193 1.414 . S
C192 C195 1.499 . S
C193 H167 0.950 . S
C193 C192 1.414 . S
C193 C194 1.374 . S
C194 H168 0.950 . S
C194 C190 1.385 . S
C194 C193 1.374 . S
C195 C192 1.499 . S
C195 C196 1.373 . S
C195 C197 1.389 . S
C196 H169 0.950 . S
C196 C182 1.377 . S
C196 C195 1.373 . S
C197 C181 1.377 . S
C197 C195 1.389 . S
C197 C198 1.524 . S
C198 C197 1.524 . S
C198 C199 1.397 . S
C198 C203 1.363 . S
C199 H170 0.950 . S
C199 C198 1.397 . S
C199 C200 1.334 . S
C200 H171 0.950 . S
C200 C199 1.334 . S
C200 C201 1.287 . S
C201 C200 1.287 . S
C201 C202 1.524 . S
C201 H204 0.999 . S
C202 H172 0.950 . S
C202 C201 1.524 . S
C202 C203 1.415 . S
C203 H173 0.950 . S
C203 C198 1.363 . S
C203 C202 1.415 . S
H204 C201 0.999 . S
H205 C186 0.913 . S
H206 C224 0.951 . S
H207 C226 0.951 . S
H208 C228 0.950 . S
H209 C229 0.950 . S
H210 C231 0.950 . S
H211 C234 0.950 . S
H212 C235 0.950 . S
H213 C237 0.950 . S
H214 C238 0.950 . S
H215 C239 0.951 . S
H216 C241 0.951 . S
H217 C243 0.950 . S
H218 C244 0.950 . S
H219 C246 0.950 . S
H220 C249 0.950 . S
H221 C250 0.950 . S
H222 C252 0.950 . S
H223 C253 0.950 . S
C224 H206 0.951 . S
C224 C225 1.366 . S
C224 C226 1.388 . S
C225 C224 1.366 . S
C225 C229 1.385 . S
C226 H207 0.951 . S
C226 C224 1.388 . S
C226 C227 1.366 . S
C227 C226 1.366 . S
C227 C228 1.414 . S
C227 C230 1.499 . S
C228 H208 0.950 . S
C228 C227 1.414 . S
C228 C229 1.374 . S
C229 H209 0.950 . S
C229 C225 1.385 . S
C229 C228 1.374 . S
C230 C227 1.499 . S
C230 C231 1.373 . S
C230 C232 1.389 . S
C231 H210 0.950 . S
C231 C230 1.373 . S
C231 C247 1.377 . S
C232 C230 1.389 . S
C232 C233 1.524 . S
C232 C246 1.377 . S
C233 C232 1.524 . S
C233 C234 1.397 . S
C233 C238 1.363 . S
C234 H211 0.950 . S
C234 C233 1.397 . S
C234 C235 1.334 . S
C235 H212 0.950 . S
C235 C234 1.334 . S
C235 C236 1.287 . S
C236 C235 1.287 . S
C236 C237 1.524 . S
C236 H255 0.913 . S
C237 H213 0.950 . S
C237 C236 1.524 . S
C237 C238 1.415 . S
C238 H214 0.950 . S
C238 C233 1.363 . S
C238 C237 1.415 . S
C239 H215 0.951 . S
C239 C240 1.366 . S
C239 C241 1.388 . S
C240 C239 1.366 . S
C240 C244 1.385 . S
C241 H216 0.951 . S
C241 C239 1.388 . S
C241 C242 1.366 . S
C242 C241 1.366 . S
C242 C243 1.414 . S
C242 C245 1.499 . S
C243 H217 0.950 . S
C243 C242 1.414 . S
C243 C244 1.374 . S
C244 H218 0.950 . S
C244 C240 1.385 . S
C244 C243 1.374 . S
C245 C242 1.499 . S
C245 C246 1.373 . S
C245 C247 1.389 . S
C246 H219 0.950 . S
C246 C232 1.377 . S
C246 C245 1.373 . S
C247 C231 1.377 . S
C247 C245 1.389 . S
C247 C248 1.524 . S
C248 C247 1.524 . S
C248 C249 1.397 . S
C248 C253 1.363 . S
C249 H220 0.950 . S
C249 C248 1.397 . S
C249 C250 1.334 . S
C250 H221 0.950 . S
C250 C249 1.334 . S
C250 C251 1.287 . S
C251 C250 1.287 . S
C251 C252 1.524 . S
C251 H254 0.999 . S
C252 H222 0.950 . S
C252 C251 1.524 . S
C252 C253 1.415 . S
C253 H223 0.950 . S
C253 C248 1.363 . S
C253 C252 1.415 . S
H254 C251 0.999 . S
H255 C236 0.913 . S
H256 C274 0.951 . S
H257 C276 0.951 . S
H258 C278 0.950 . S
H259 C279 0.950 . S
H260 C281 0.950 . S
H261 C284 0.950 . S
H262 C285 0.950 . S
H263 C287 0.950 . S
H264 C288 0.950 . S
H265 C289 0.951 . S
H266 C291 0.951 . S
H267 C293 0.950 . S
H268 C294 0.950 . S
H269 C296 0.950 . S
H270 C299 0.950 . S
H271 C300 0.950 . S
H272 C302 0.950 . S
H273 C303 0.950 . S
C274 H256 0.951 . S
C274 C275 1.366 . S
C274 C276 1.388 . S
C275 C274 1.366 . S
C275 C279 1.385 . S
C276 H257 0.951 . S
C276 C274 1.388 . S
C276 C277 1.366 . S
C277 C276 1.366 . S
C277 C278 1.414 . S
C277 C280 1.499 . S
C278 H258 0.950 . S
C278 C277 1.414 . S
C278 C279 1.374 . S
C279 H259 0.950 . S
C279 C275 1.385 . S
C279 C278 1.374 . S
C280 C277 1.499 . S
C280 C281 1.373 . S
C280 C282 1.389 . S
C281 H260 0.950 . S
C281 C280 1.373 . S
C281 C297 1.377 . S
C282 C280 1.389 . S
C282 C283 1.524 . S
C282 C296 1.377 . S
C283 C282 1.524 . S
C283 C284 1.397 . S
C283 C288 1.363 . S
C284 H261 0.950 . S
C284 C283 1.397 . S
C284 C285 1.334 . S
C285 H262 0.950 . S
C285 C284 1.334 . S
C285 C286 1.287 . S
C286 C285 1.287 . S
C286 C287 1.524 . S
C286 H305 0.913 . S
C287 H263 0.950 . S
C287 C286 1.524 . S
C287 C288 1.415 . S
C288 H264 0.950 . S
C288 C283 1.363 . S
C288 C287 1.415 . S
C289 H265 0.951 . S
C289 C290 1.366 . S
C289 C291 1.388 . S
C290 C289 1.366 . S
C290 C294 1.385 . S
C291 H266 0.951 . S
C291 C289 1.388 . S
C291 C292 1.366 . S
C292 C291 1.366 . S
C292 C293 1.414 . S
C292 C295 1.499 . S
C293 H267 0.950 . S
C293 C292 1.414 . S
C293 C294 1.374 . S
C294 H268 0.950 . S
C294 C290 1.385 . S
C294 C293 1.374 . S
C295 C292 1.499 . S
C295 C296 1.373 . S
C295 C297 1.389 . S
C296 H269 0.950 . S
C296 C282 1.377 . S
C296 C295 1.373 . S
C297 C281 1.377 . S
C297 C295 1.389 . S
C297 C298 1.524 . S
C298 C297 1.524 . S
C298 C299 1.397 . S
C298 C303 1.363 . S
C299 H270 0.950 . S
C299 C298 1.397 . S
C299 C300 1.334 . S
C300 H271 0.950 . S
C300 C299 1.334 . S
C300 C301 1.287 . S
C301 C300 1.287 . S
C301 C302 1.524 . S
C301 H304 0.999 . S
C302 H272 0.950 . S
C302 C301 1.524 . S
C302 C303 1.415 . S
C303 H273 0.950 . S
C303 C298 1.363 . S
C303 C302 1.415 . S
H304 C301 0.999 . S
H305 C286 0.913 . S
H306 C324 0.951 . S
H307 C326 0.951 . S
H308 C328 0.950 . S
H309 C329 0.950 . S
H310 C331 0.950 . S
H311 C334 0.950 . S
H312 C335 0.950 . S
H313 C337 0.950 . S
H314 C338 0.950 . S
H315 C339 0.951 . S
H316 C341 0.951 . S
H317 C343 0.950 . S
H318 C344 0.950 . S
H319 C346 0.950 . S
H320 C349 0.950 . S
H321 C350 0.950 . S
H322 C352 0.950 . S
H323 C353 0.950 . S
C324 H306 0.951 . S
C324 C325 1.366 . S
C324 C326 1.388 . S
C325 C324 1.366 . S
C325 C329 1.385 . S
C326 H307 0.951 . S
C326 C324 1.388 . S
C326 C327 1.366 . S
C327 C326 1.366 . S
C327 C328 1.414 . S
C327 C330 1.499 . S
C328 H308 0.950 . S
C328 C327 1.414 . S
C328 C329 1.374 . S
C329 H309 0.950 . S
C329 C325 1.385 . S
C329 C328 1.374 . S
C330 C327 1.499 . S
C330 C331 1.373 . S
C330 C332 1.389 . S
C331 H310 0.950 . S
C331 C330 1.373 . S
C331 C347 1.377 . S
C332 C330 1.389 . S
C332 C333 1.524 . S
C332 C346 1.377 . S
C333 C332 1.524 . S
C333 C334 1.397 . S
C333 C338 1.363 . S
C334 H311 0.950 . S
C334 C333 1.397 . S
C334 C335 1.334 . S
C335 H312 0.950 . S
C335 C334 1.334 . S
C335 C336 1.287 . S
C336 C335 1.287 . S
C336 C337 1.524 . S
C336 H355 0.913 . S
C337 H313 0.950 . S
C337 C336 1.524 . S
C337 C338 1.415 . S
C338 H314 0.950 . S
C338 C333 1.363 . S
C338 C337 1.415 . S
C339 H315 0.951 . S
C339 C340 1.366 . S
C339 C341 1.388 . S
C340 C339 1.366 . S
C340 C344 1.385 . S
C341 H316 0.951 . S
C341 C339 1.388 . S
C341 C342 1.366 . S
C342 C341 1.366 . S
C342 C343 1.414 . S
C342 C345 1.499 . S
C343 H317 0.950 . S
C343 C342 1.414 . S
C343 C344 1.374 . S
C344 H318 0.950 . S
C344 C340 1.385 . S
C344 C343 1.374 . S
C345 C342 1.499 . S
C345 C346 1.373 . S
C345 C347 1.389 . S
C346 H319 0.950 . S
C346 C332 1.377 . S
C346 C345 1.373 . S
C347 C331 1.377 . S
C347 C345 1.389 . S
C347 C348 1.524 . S
C348 C347 1.524 . S
C348 C349 1.397 . S
C348 C353 1.363 . S
C349 H320 0.950 . S
C349 C348 1.397 . S
C349 C350 1.334 . S
C350 H321 0.950 . S
C350 C349 1.334 . S
C350 C351 1.287 . S
C351 C350 1.287 . S
C351 C352 1.524 . S
C351 H354 0.999 . S
C352 H322 0.950 . S
C352 C351 1.524 . S
C352 C353 1.415 . S
C353 H323 0.950 . S
C353 C348 1.363 . S
C353 C352 1.415 . S
H354 C351 0.999 . S
H355 C336 0.913 . S
H356 C374 0.951 . S
H357 C376 0.951 . S
H358 C378 0.950 . S
H359 C379 0.950 . S
H360 C381 0.950 . S
H361 C384 0.950 . S
H362 C385 0.950 . S
H363 C387 0.950 . S
H364 C388 0.950 . S
H365 C389 0.951 . S
H366 C391 0.951 . S
H367 C393 0.950 . S
H368 C394 0.950 . S
H369 C396 0.950 . S
H370 C399 0.950 . S
H371 C400 0.950 . S
H372 C402 0.950 . S
H373 C403 0.950 . S
C374 H356 0.951 . S
C374 C375 1.366 . S
C374 C376 1.388 . S
C375 C374 1.366 . S
C375 C379 1.385 . S
C376 H357 0.951 . S
C376 C374 1.388 . S
C376 C377 1.366 . S
C377 C376 1.366 . S
C377 C378 1.414 . S
C377 C380 1.499 . S
C378 H358 0.950 . S
C378 C377 1.414 . S
C378 C379 1.374 . S
C379 H359 0.950 . S
C379 C375 1.385 . S
C379 C378 1.374 . S
C380 C377 1.499 . S
C380 C381 1.373 . S
C380 C382 1.389 . S
C381 H360 0.950 . S
C381 C380 1.373 . S
C381 C397 1.377 . S
C382 C380 1.389 . S
C382 C383 1.524 . S
C382 C396 1.377 . S
C383 C382 1.524 . S
C383 C384 1.397 . S
C383 C388 1.363 . S
C384 H361 0.950 . S
C384 C383 1.397 . S
C384 C385 1.334 . S
C385 H362 0.950 . S
C385 C384 1.334 . S
C385 C386 1.287 . S
C386 C385 1.287 . S
C386 C387 1.524 . S
C386 H405 0.913 . S
C387 H363 0.950 . S
C387 C386 1.524 . S
C387 C388 1.415 . S
C388 H364 0.950 . S
C388 C383 1.363 . S
C388 C387 1.415 . S
C389 H365 0.951 . S
C389 C390 1.366 . S
C389 C391 1.388 . S
C390 C389 1.366 . S
C390 C394 1.385 . S
C391 H366 0.951 . S
C391 C389 1.388 . S
C391 C392 1.366 . S
C392 C391 1.366 . S
C392 C393 1.414 . S
C392 C395 1.499 . S
C393 H367 0.950 . S
C393 C392 1.414 . S
C393 C394 1.374 . S
C394 H368 0.950 . S
C394 C390 1.385 . S
C394 C393 1.374 . S
C395 C392 1.499 . S
C395 C396 1.373 . S
C395 C397 1.389 . S
C396 H369 0.950 . S
C396 C382 1.377 . S
C396 C395 1.373 . S
C397 C381 1.377 . S
C397 C395 1.389 . S
C397 C398 1.524 . S
C398 C397 1.524 . S
C398 C399 1.397 . S
C398 C403 1.363 . S
C399 H370 0.950 . S
C399 C398 1.397 . S
C399 C400 1.334 . S
C400 H371 0.950 . S
C400 C399 1.334 . S
C400 C401 1.287 . S
C401 C400 1.287 . S
C401 C402 1.524 . S
C401 H404 0.999 . S
C402 H372 0.950 . S
C402 C401 1.524 . S
C402 C403 1.415 . S
C403 H373 0.950 . S
C403 C398 1.363 . S
C403 C402 1.415 . S
H404 C401 0.999 . S
H405 C386 0.913 . S
H406 C424 0.951 . S
H407 C426 0.951 . S
H408 C428 0.950 . S
H409 C429 0.950 . S
H410 C431 0.950 . S
H411 C434 0.950 . S
H412 C435 0.950 . S
H413 C437 0.950 . S
H414 C438 0.950 . S
H415 C439 0.951 . S
H416 C441 0.951 . S
H417 C443 0.950 . S
H418 C444 0.950 . S
H419 C446 0.950 . S
H420 C449 0.950 . S
H421 C450 0.950 . S
H422 C452 0.950 . S
H423 C453 0.950 . S
C424 H406 0.951 . S
C424 C425 1.366 . S
C424 C426 1.388 . S
C425 C424 1.366 . S
C425 C429 1.385 . S
C426 H407 0.951 . S
C426 C424 1.388 . S
C426 C427 1.366 . S
C427 C426 1.366 . S
C427 C428 1.414 . S
C427 C430 1.499 . S
C428 H408 0.950 . S
C428 C427 1.414 . S
C428 C429 1.374 . S
C429 H409 0.950 . S
C429 C425 1.385 . S
C429 C428 1.374 . S
C430 C427 1.499 . S
C430 C431 1.373 . S
C430 C432 1.389 . S
C431 H410 0.950 . S
C431 C430 1.373 . S
C431 C447 1.377 . S
C432 C430 1.389 . S
C432 C433 1.524 . S
C432 C446 1.377 . S
C433 C432 1.524 . S
C433 C434 1.397 . S
C433 C438 1.363 . S
C434 H411 0.950 . S
C434 C433 1.397 . S
C434 C435 1.334 . S
C435 H412 0.950 . S
C435 C434 1.334 . S
C435 C436 1.287 . S
C436 C435 1.287 . S
C436 C437 1.524 . S
C436 H455 0.913 . S
C437 H413 0.950 . S
C437 C436 1.524 . S
C437 C438 1.415 . S
C438 H414 0.950 . S
C438 C433 1.363 . S
C438 C437 1.415 . S
C439 H415 0.951 . S
C439 C440 1.366 . S
C439 C441 1.388 . S
C440 C439 1.366 . S
C440 C444 1.385 . S
C441 H416 0.951 . S
C441 C439 1.388 . S
C441 C442 1.366 . S
C442 C441 1.366 . S
C442 C443 1.414 . S
C442 C445 1.499 . S
C443 H417 0.950 . S
C443 C442 1.414 . S
C443 C444 1.374 . S
C444 H418 0.950 . S
C444 C440 1.385 . S
C444 C443 1.374 . S
C445 C442 1.499 . S
C445 C446 1.373 . S
C445 C447 1.389 . S
C446 H419 0.950 . S
C446 C432 1.377 . S
C446 C445 1.373 . S
C447 C431 1.377 . S
C447 C445 1.389 . S
C447 C448 1.524 . S
C448 C447 1.524 . S
C448 C449 1.397 . S
C448 C453 1.363 . S
C449 H420 0.950 . S
C449 C448 1.397 . S
C449 C450 1.334 . S
C450 H421 0.950 . S
C450 C449 1.334 . S
C450 C451 1.287 . S
C451 C450 1.287 . S
C451 C452 1.524 . S
C451 H454 0.999 . S
C452 H422 0.950 . S
C452 C451 1.524 . S
C452 C453 1.415 . S
C453 H423 0.950 . S
C453 C448 1.363 . S
C453 C452 1.415 . S
H454 C451 0.999 . S
H455 C436 0.913 . S
H456 C474 0.951 . S
H457 C476 0.951 . S
H458 C478 0.950 . S
H459 C479 0.950 . S
H460 C481 0.950 . S
H461 C484 0.950 . S
H462 C485 0.950 . S
H463 C487 0.950 . S
H464 C488 0.950 . S
H465 C489 0.951 . S
H466 C491 0.951 . S
H467 C493 0.950 . S
H468 C494 0.950 . S
H469 C496 0.950 . S
H470 C499 0.950 . S
H471 C500 0.950 . S
H472 C502 0.950 . S
H473 C503 0.950 . S
C474 H456 0.951 . S
C474 C475 1.366 . S
C474 C476 1.388 . S
C475 C474 1.366 . S
C475 C479 1.385 . S
C476 H457 0.951 . S
C476 C474 1.388 . S
C476 C477 1.366 . S
C477 C476 1.366 . S
C477 C478 1.414 . S
C477 C480 1.499 . S
C478 H458 0.950 . S
C478 C477 1.414 . S
C478 C479 1.374 . S
C479 H459 0.950 . S
C479 C475 1.385 . S
C479 C478 1.374 . S
C480 C477 1.499 . S
C480 C481 1.373 . S
C480 C482 1.389 . S
C481 H460 0.950 . S
C481 C480 1.373 . S
C481 C497 1.377 . S
C482 C480 1.389 . S
C482 C483 1.524 . S
C482 C496 1.377 . S
C483 C482 1.524 . S
C483 C484 1.397 . S
C483 C488 1.363 . S
C484 H461 0.950 . S
C484 C483 1.397 . S
C484 C485 1.334 . S
C485 H462 0.950 . S
C485 C484 1.334 . S
C485 C486 1.287 . S
C486 C485 1.287 . S
C486 C487 1.524 . S
C486 H505 0.913 . S
C487 H463 0.950 . S
C487 C486 1.524 . S
C487 C488 1.415 . S
C488 H464 0.950 . S
C488 C483 1.363 . S
C488 C487 1.415 . S
C489 H465 0.951 . S
C489 C490 1.366 . S
C489 C491 1.388 . S
C490 C489 1.366 . S
C490 C494 1.385 . S
C491 H466 0.951 . S
C491 C489 1.388 . S
C491 C492 1.366 . S
C492 C491 1.366 . S
C492 C493 1.414 . S
C492 C495 1.499 . S
C493 H467 0.950 . S
C493 C492 1.414 . S
C493 C494 1.374 . S
C494 H468 0.950 . S
C494 C490 1.385 . S
C494 C493 1.374 . S
C495 C492 1.499 . S
C495 C496 1.373 . S
C495 C497 1.389 . S
C496 H469 0.950 . S
C496 C482 1.377 . S
C496 C495 1.373 . S
C497 C481 1.377 . S
C497 C495 1.389 . S
C497 C498 1.524 . S
C498 C497 1.524 . S
C498 C499 1.397 . S
C498 C503 1.363 . S
C499 H470 0.950 . S
C499 C498 1.397 . S
C499 C500 1.334 . S
C500 H471 0.950 . S
C500 C499 1.334 . S
C500 C501 1.287 . S
C501 C500 1.287 . S
C501 C502 1.524 . S
C501 H504 0.999 . S
C502 H472 0.950 . S
C502 C501 1.524 . S
C502 C503 1.415 . S
C503 H473 0.950 . S
C503 C498 1.363 . S
C503 C502 1.415 . S
H504 C501 0.999 . S
H505 C486 0.913 . S
H506 C524 0.951 . S
H507 C526 0.951 . S
H508 C528 0.950 . S
H509 C529 0.950 . S
H510 C531 0.950 . S
H511 C534 0.950 . S
H512 C535 0.950 . S
H513 C537 0.950 . S
H514 C538 0.950 . S
H515 C539 0.951 . S
H516 C541 0.951 . S
H517 C543 0.950 . S
H518 C544 0.950 . S
H519 C546 0.950 . S
H520 C549 0.950 . S
H521 C550 0.950 . S
H522 C552 0.950 . S
H523 C553 0.950 . S
C524 H506 0.951 . S
C524 C525 1.366 . S
C524 C526 1.388 . S
C525 C524 1.366 . S
C525 C529 1.385 . S
C526 H507 0.951 . S
C526 C524 1.388 . S
C526 C527 1.366 . S
C527 C526 1.366 . S
C527 C528 1.414 . S
C527 C530 1.499 . S
C528 H508 0.950 . S
C528 C527 1.414 . S
C528 C529 1.374 . S
C529 H509 0.950 . S
C529 C525 1.385 . S
C529 C528 1.374 . S
C530 C527 1.499 . S
C530 C531 1.373 . S
C530 C532 1.389 . S
C531 H510 0.950 . S
C531 C530 1.373 . S
C531 C547 1.377 . S
C532 C530 1.389 . S
C532 C533 1.524 . S
C532 C546 1.377 . S
C533 C532 1.524 . S
C533 C534 1.397 . S
C533 C538 1.363 . S
C534 H511 0.950 . S
C534 C533 1.397 . S
C534 C535 1.334 . S
C535 H512 0.950 . S
C535 C534 1.334 . S
C535 C536 1.287 . S
C536 C535 1.287 . S
C536 C537 1.524 . S
C536 H555 0.913 . S
C537 H513 0.950 . S
C537 C536 1.524 . S
C537 C538 1.415 . S
C538 H514 0.950 . S
C538 C533 1.363 . S
C538 C537 1.415 . S
C539 H515 0.951 . S
C539 C540 1.366 . S
C539 C541 1.388 . S
C540 C539 1.366 . S
C540 C544 1.385 . S
C541 H516 0.951 . S
C541 C539 1.388 . S
C541 C542 1.366 . S
C542 C541 1.366 . S
C542 C543 1.414 . S
C542 C545 1.499 . S
C543 H517 0.950 . S
C543 C542 1.414 . S
C543 C544 1.374 . S
C544 H518 0.950 . S
C544 C540 1.385 . S
C544 C543 1.374 . S
C545 C542 1.499 . S
C545 C546 1.373 . S
C545 C547 1.389 . S
C546 H519 0.950 . S
C546 C532 1.377 . S
C546 C545 1.373 . S
C547 C531 1.377 . S
C547 C545 1.389 . S
C547 C548 1.524 . S
C548 C547 1.524 . S
C548 C549 1.397 . S
C548 C553 1.363 . S
C549 H520 0.950 . S
C549 C548 1.397 . S
C549 C550 1.334 . S
C550 H521 0.950 . S
C550 C549 1.334 . S
C550 C551 1.287 . S
C551 C550 1.287 . S
C551 C552 1.524 . S
C551 H554 0.999 . S
C552 H522 0.950 . S
C552 C551 1.524 . S
C552 C553 1.415 . S
C553 H523 0.950 . S
C553 C548 1.363 . S
C553 C552 1.415 . S
H554 C551 0.999 . S
H555 C536 0.913 . S
H556 C574 0.951 . S
H557 C576 0.951 . S
H558 C578 0.950 . S
H559 C579 0.950 . S
H560 C581 0.950 . S
H561 C584 0.950 . S
H562 C585 0.950 . S
H563 C587 0.950 . S
H564 C588 0.950 . S
H565 C589 0.951 . S
H566 C591 0.951 . S
H567 C593 0.950 . S
H568 C594 0.950 . S
H569 C596 0.950 . S
H570 C599 0.950 . S
H571 C600 0.950 . S
H572 C602 0.950 . S
H573 C603 0.950 . S
C574 H556 0.951 . S
C574 C575 1.366 . S
C574 C576 1.388 . S
C575 C574 1.366 . S
C575 C579 1.385 . S
C576 H557 0.951 . S
C576 C574 1.388 . S
C576 C577 1.366 . S
C577 C576 1.366 . S
C577 C578 1.414 . S
C577 C580 1.499 . S
C578 H558 0.950 . S
C578 C577 1.414 . S
C578 C579 1.374 . S
C579 H559 0.950 . S
C579 C575 1.385 . S
C579 C578 1.374 . S
C580 C577 1.499 . S
C580 C581 1.373 . S
C580 C582 1.389 . S
C581 H560 0.950 . S
C581 C580 1.373 . S
C581 C597 1.377 . S
C582 C580 1.389 . S
C582 C583 1.524 . S
C582 C596 1.377 . S
C583 C582 1.524 . S
C583 C584 1.397 . S
C583 C588 1.363 . S
C584 H561 0.950 . S
C584 C583 1.397 . S
C584 C585 1.334 . S
C585 H562 0.950 . S
C585 C584 1.334 . S
C585 C586 1.287 . S
C586 C585 1.287 . S
C586 C587 1.524 . S
C586 H605 0.913 . S
C587 H563 0.950 . S
C587 C586 1.524 . S
C587 C588 1.415 . S
C588 H564 0.950 . S
C588 C583 1.363 . S
C588 C587 1.415 . S
C589 H565 0.951 . S
C589 C590 1.366 . S
C589 C591 1.388 . S
C590 C589 1.366 . S
C590 C594 1.385 . S
C591 H566 0.951 . S
C591 C589 1.388 . S
C591 C592 1.366 . S
C592 C591 1.366 . S
C592 C593 1.414 . S
C592 C595 1.499 . S
C593 H567 0.950 . S
C593 C592 1.414 . S
C593 C594 1.374 . S
C594 H568 0.950 . S
C594 C590 1.385 . S
C594 C593 1.374 . S
C595 C592 1.499 . S
C595 C596 1.373 . S
C595 C597 1.389 . S
C596 H569 0.950 . S
C596 C582 1.377 . S
C596 C595 1.373 . S
C597 C581 1.377 . S
C597 C595 1.389 . S
C597 C598 1.524 . S
C598 C597 1.524 . S
C598 C599 1.397 . S
C598 C603 1.363 . S
C599 H570 0.950 . S
C599 C598 1.397 . S
C599 C600 1.334 . S
C600 H571 0.950 . S
C600 C599 1.334 . S
C600 C601 1.287 . S
C601 C600 1.287 . S
C601 C602 1.524 . S
C601 H604 0.999 . S
C602 H572 0.950 . S
C602 C601 1.524 . S
C602 C603 1.415 . S
C603 H573 0.950 . S
C603 C598 1.363 . S
C603 C602 1.415 . S
H604 C601 0.999 . S
H605 C586 0.913 . S
H606 C624 0.951 . S
H607 C626 0.951 . S
H608 C628 0.950 . S
H609 C629 0.950 . S
H610 C631 0.950 . S
H611 C634 0.950 . S
H612 C635 0.950 . S
H613 C637 0.950 . S
H614 C638 0.950 . S
H615 C639 0.951 . S
H616 C641 0.951 . S
H617 C643 0.950 . S
H618 C644 0.950 . S
H619 C646 0.950 . S
H620 C649 0.950 . S
H621 C650 0.950 . S
H622 C652 0.950 . S
H623 C653 0.950 . S
C624 H606 0.951 . S
C624 C625 1.366 . S
C624 C626 1.388 . S
C625 C624 1.366 . S
C625 C629 1.385 . S
C626 H607 0.951 . S
C626 C624 1.388 . S
C626 C627 1.366 . S
C627 C626 1.366 . S
C627 C628 1.414 . S
C627 C630 1.499 . S
C628 H608 0.950 . S
C628 C627 1.414 . S
C628 C629 1.374 . S
C629 H609 0.950 . S
C629 C625 1.385 . S
C629 C628 1.374 . S
C630 C627 1.499 . S
C630 C631 1.373 . S
C630 C632 1.389 . S
C631 H610 0.950 . S
C631 C630 1.373 . S
C631 C647 1.377 . S
C632 C630 1.389 . S
C632 C633 1.524 . S
C632 C646 1.377 . S
C633 C632 1.524 . S
C633 C634 1.397 . S
C633 C638 1.363 . S
C634 H611 0.950 . S
C634 C633 1.397 . S
C634 C635 1.334 . S
C635 H612 0.950 . S
C635 C634 1.334 . S
C635 C636 1.287 . S
C636 C635 1.287 . S
C636 C637 1.524 . S
C636 H655 0.913 . S
C637 H613 0.950 . S
C637 C636 1.524 . S
C637 C638 1.415 . S
C638 H614 0.950 . S
C638 C633 1.363 . S
C638 C637 1.415 . S
C639 H615 0.951 . S
C639 C640 1.366 . S
C639 C641 1.388 . S
C640 C639 1.366 . S
C640 C644 1.385 . S
C641 H616 0.951 . S
C641 C639 1.388 . S
C641 C642 1.366 . S
C642 C641 1.366 . S
C642 C643 1.414 . S
C642 C645 1.499 . S
C643 H617 0.950 . S
C643 C642 1.414 . S
C643 C644 1.374 . S
C644 H618 0.950 . S
C644 C640 1.385 . S
C644 C643 1.374 . S
C645 C642 1.499 . S
C645 C646 1.373 . S
C645 C647 1.389 . S
C646 H619 0.950 . S
C646 C632 1.377 . S
C646 C645 1.373 . S
C647 C631 1.377 . S
C647 C645 1.389 . S
C647 C648 1.524 . S
C648 C647 1.524 . S
C648 C649 1.397 . S
C648 C653 1.363 . S
C649 H620 0.950 . S
C649 C648 1.397 . S
C649 C650 1.334 . S
C650 H621 0.950 . S
C650 C649 1.334 . S
C650 C651 1.287 . S
C651 C650 1.287 . S
C651 C652 1.524 . S
C651 H654 0.999 . S
C652 H622 0.950 . S
C652 C651 1.524 . S
C652 C653 1.415 . S
C653 H623 0.950 . S
C653 C648 1.363 . S
C653 C652 1.415 . S
H654 C651 0.999 . S
H655 C636 0.913 . S
H656 C674 0.951 . S
H657 C676 0.951 . S
H658 C678 0.950 . S
H659 C679 0.950 . S
H660 C681 0.950 . S
H661 C684 0.950 . S
H662 C685 0.950 . S
H663 C687 0.950 . S
H664 C688 0.950 . S
H665 C689 0.951 . S
H666 C691 0.951 . S
H667 C693 0.950 . S
H668 C694 0.950 . S
H669 C696 0.950 . S
H670 C699 0.950 . S
H671 C700 0.950 . S
H672 C702 0.950 . S
H673 C703 0.950 . S
C674 H656 0.951 . S
C674 C675 1.366 . S
C674 C676 1.388 . S
C675 C674 1.366 . S
C675 C679 1.385 . S
C676 H657 0.951 . S
C676 C674 1.388 . S
C676 C677 1.366 . S
C677 C676 1.366 . S
C677 C678 1.414 . S
C677 C680 1.499 . S
C678 H658 0.950 . S
C678 C677 1.414 . S
C678 C679 1.374 . S
C679 H659 0.950 . S
C679 C675 1.385 . S
C679 C678 1.374 . S
C680 C677 1.499 . S
C680 C681 1.373 . S
C680 C682 1.389 . S
C681 H660 0.950 . S
C681 C680 1.373 . S
C681 C697 1.377 . S
C682 C680 1.389 . S
C682 C683 1.524 . S
C682 C696 1.377 . S
C683 C682 1.524 . S
C683 C684 1.397 . S
C683 C688 1.363 . S
C684 H661 0.950 . S
C684 C683 1.397 . S
C684 C685 1.334 . S
C685 H662 0.950 . S
C685 C684 1.334 . S
C685 C686 1.287 . S
C686 C685 1.287 . S
C686 C687 1.524 . S
C686 H705 0.913 . S
C687 H663 0.950 . S
C687 C686 1.524 . S
C687 C688 1.415 . S
C688 H664 0.950 . S
C688 C683 1.363 . S
C688 C687 1.415 . S
C689 H665 0.951 . S
C689 C690 1.366 . S
C689 C691 1.388 . S
C690 C689 1.366 . S
C690 C694 1.385 . S
C691 H666 0.951 . S
C691 C689 1.388 . S
C691 C692 1.366 . S
C692 C691 1.366 . S
C692 C693 1.414 . S
C692 C695 1.499 . S
C693 H667 0.950 . S
C693 C692 1.414 . S
C693 C694 1.374 . S
C694 H668 0.950 . S
C694 C690 1.385 . S
C694 C693 1.374 . S
C695 C692 1.499 . S
C695 C696 1.373 . S
C695 C697 1.389 . S
C696 H669 0.950 . S
C696 C682 1.377 . S
C696 C695 1.373 . S
C697 C681 1.377 . S
C697 C695 1.389 . S
C697 C698 1.524 . S
C698 C697 1.524 . S
C698 C699 1.397 . S
C698 C703 1.363 . S
C699 H670 0.950 . S
C699 C698 1.397 . S
C699 C700 1.334 . S
C700 H671 0.950 . S
C700 C699 1.334 . S
C700 C701 1.287 . S
C701 C700 1.287 . S
C701 C702 1.524 . S
C701 H704 0.999 . S
C702 H672 0.950 . S
C702 C701 1.524 . S
C702 C703 1.415 . S
C703 H673 0.950 . S
C703 C698 1.363 . S
C703 C702 1.415 . S
H704 C701 0.999 . S
H705 C686 0.913 . S
H706 C724 0.951 . S
H707 C726 0.951 . S
H708 C728 0.950 . S
H709 C729 0.950 . S
H710 C731 0.950 . S
H711 C734 0.950 . S
H712 C735 0.950 . S
H713 C737 0.950 . S
H714 C738 0.950 . S
H715 C739 0.951 . S
H716 C741 0.951 . S
H717 C743 0.950 . S
H718 C744 0.950 . S
H719 C746 0.950 . S
H720 C749 0.950 . S
H721 C750 0.950 . S
H722 C752 0.950 . S
H723 C753 0.950 . S
C724 H706 0.951 . S
C724 C725 1.366 . S
C724 C726 1.388 . S
C725 C724 1.366 . S
C725 C729 1.385 . S
C726 H707 0.951 . S
C726 C724 1.388 . S
C726 C727 1.366 . S
C727 C726 1.366 . S
C727 C728 1.414 . S
C727 C730 1.499 . S
C728 H708 0.950 . S
C728 C727 1.414 . S
C728 C729 1.374 . S
C729 H709 0.950 . S
C729 C725 1.385 . S
C729 C728 1.374 . S
C730 C727 1.499 . S
C730 C731 1.373 . S
C730 C732 1.389 . S
C731 H710 0.950 . S
C731 C730 1.373 . S
C731 C747 1.377 . S
C732 C730 1.389 . S
C732 C733 1.524 . S
C732 C746 1.377 . S
C733 C732 1.524 . S
C733 C734 1.397 . S
C733 C738 1.363 . S
C734 H711 0.950 . S
C734 C733 1.397 . S
C734 C735 1.334 . S
C735 H712 0.950 . S
C735 C734 1.334 . S
C735 C736 1.287 . S
C736 C735 1.287 . S
C736 C737 1.524 . S
C736 H755 0.913 . S
C737 H713 0.950 . S
C737 C736 1.524 . S
C737 C738 1.415 . S
C738 H714 0.950 . S
C738 C733 1.363 . S
C738 C737 1.415 . S
C739 H715 0.951 . S
C739 C740 1.366 . S
C739 C741 1.388 . S
C740 C739 1.366 . S
C740 C744 1.385 . S
C741 H716 0.951 . S
C741 C739 1.388 . S
C741 C742 1.366 . S
C742 C741 1.366 . S
C742 C743 1.414 . S
C742 C745 1.499 . S
C743 H717 0.950 . S
C743 C742 1.414 . S
C743 C744 1.374 . S
C744 H718 0.950 . S
C744 C740 1.385 . S
C744 C743 1.374 . S
C745 C742 1.499 . S
C745 C746 1.373 . S
C745 C747 1.389 . S
C746 H719 0.950 . S
C746 C732 1.377 . S
C746 C745 1.373 . S
C747 C731 1.377 . S
C747 C745 1.389 . S
C747 C748 1.524 . S
C748 C747 1.524 . S
C748 C749 1.397 . S
C748 C753 1.363 . S
C749 H720 0.950 . S
C749 C748 1.397 . S
C749 C750 1.334 . S
C750 H721 0.950 . S
C750 C749 1.334 . S
C750 C751 1.287 . S
C751 C750 1.287 . S
C751 C752 1.524 . S
C751 H754 0.999 . S
C752 H722 0.950 . S
C752 C751 1.524 . S
C752 C753 1.415 . S
C753 H723 0.950 . S
C753 C748 1.363 . S
C753 C752 1.415 . S
H754 C751 0.999 . S
H755 C736 0.913 . S
H756 C774 0.951 . S
H757 C776 0.951 . S
H758 C778 0.950 . S
H759 C779 0.950 . S
H760 C781 0.950 . S
H761 C784 0.950 . S
H762 C785 0.950 . S
H763 C787 0.950 . S
H764 C788 0.950 . S
H765 C789 0.951 . S
H766 C791 0.951 . S
H767 C793 0.950 . S
H768 C794 0.950 . S
H769 C796 0.950 . S
H770 C799 0.950 . S
H771 C800 0.950 . S
H772 C802 0.950 . S
H773 C803 0.950 . S
C774 H756 0.951 . S
C774 C775 1.366 1_455 S
C774 C776 1.388 . S
C775 C774 1.366 1_655 S
C775 C779 1.385 . S
C776 H757 0.951 . S
C776 C774 1.388 . S
C776 C777 1.366 . S
C777 C776 1.366 . S
C777 C778 1.414 1_455 S
C777 C780 1.499 . S
C778 H758 0.950 . S
C778 C777 1.414 1_655 S
C778 C779 1.374 . S
C779 H759 0.950 . S
C779 C775 1.385 . S
C779 C778 1.374 . S
C780 C777 1.499 . S
C780 C781 1.373 1_455 S
C780 C782 1.389 . S
C781 H760 0.950 . S
C781 C780 1.373 1_655 S
C781 C797 1.377 . S
C782 C780 1.389 . S
C782 C783 1.524 . S
C782 C796 1.377 . S
C783 C782 1.524 . S
C783 C784 1.397 . S
C783 C788 1.363 . S
C784 H761 0.950 . S
C784 C783 1.397 . S
C784 C785 1.334 . S
C785 H762 0.950 . S
C785 C784 1.334 . S
C785 C786 1.287 . S
C786 C785 1.287 . S
C786 C787 1.524 . S
C786 H805 0.913 . S
C787 H763 0.950 . S
C787 C786 1.524 . S
C787 C788 1.415 . S
C788 H764 0.950 . S
C788 C783 1.363 . S
C788 C787 1.415 . S
C789 H765 0.951 . S
C789 C790 1.366 1_655 S
C789 C791 1.388 . S
C790 C789 1.366 1_455 S
C790 C794 1.385 . S
C791 H766 0.951 . S
C791 C789 1.388 . S
C791 C792 1.366 1_655 S
C792 C791 1.366 1_455 S
C792 C793 1.414 . S
C792 C795 1.499 . S
C793 H767 0.950 . S
C793 C792 1.414 . S
C793 C794 1.374 . S
C794 H768 0.950 . S
C794 C790 1.385 . S
C794 C793 1.374 . S
C795 C792 1.499 . S
C795 C796 1.373 . S
C795 C797 1.389 1_455 S
C796 H769 0.950 . S
C796 C782 1.377 . S
C796 C795 1.373 . S
C797 C781 1.377 . S
C797 C795 1.389 1_655 S
C797 C798 1.524 . S
C798 C797 1.524 . S
C798 C799 1.397 . S
C798 C803 1.363 . S
C799 H770 0.950 . S
C799 C798 1.397 . S
C799 C800 1.334 . S
C800 H771 0.950 . S
C800 C799 1.334 . S
C800 C801 1.287 . S
C801 C800 1.287 . S
C801 C802 1.524 . S
C801 H804 0.999 . S
C802 H772 0.950 . S
C802 C801 1.524 . S
C802 C803 1.415 . S
C803 H773 0.950 . S
C803 C798 1.363 . S
C803 C802 1.415 . S
H804 C801 0.999 . S
H805 C786 0.913 . S
H806 C824 0.951 . S
H807 C826 0.951 . S
H808 C828 0.950 . S
H809 C829 0.950 . S
H810 C831 0.950 . S
H811 C834 0.950 . S
H812 C835 0.950 . S
H813 C837 0.950 . S
H814 C838 0.950 . S
H815 C839 0.951 . S
H816 C841 0.951 . S
H817 C843 0.950 . S
H818 C844 0.950 . S
H819 C846 0.950 . S
H820 C849 0.950 . S
H821 C850 0.950 . S
H822 C852 0.950 . S
H823 C853 0.950 . S
C824 H806 0.951 . S
C824 C825 1.366 . S
C824 C826 1.388 . S
C825 C824 1.366 . S
C825 C829 1.385 . S
C826 H807 0.951 . S
C826 C824 1.388 . S
C826 C827 1.366 . S
C827 C826 1.366 . S
C827 C828 1.414 . S
C827 C830 1.499 . S
C828 H808 0.950 . S
C828 C827 1.414 . S
C828 C829 1.374 . S
C829 H809 0.950 . S
C829 C825 1.385 . S
C829 C828 1.374 . S
C830 C827 1.499 . S
C830 C831 1.373 1_545 S
C830 C832 1.389 . S
C831 H810 0.950 . S
C831 C830 1.373 1_565 S
C831 C847 1.377 . S
C832 C830 1.389 . S
C832 C833 1.524 . S
C832 C846 1.377 . S
C833 C832 1.524 . S
C833 C834 1.397 . S
C833 C838 1.363 . S
C834 H811 0.950 . S
C834 C833 1.397 . S
C834 C835 1.334 . S
C835 H812 0.950 . S
C835 C834 1.334 . S
C835 C836 1.287 . S
C836 C835 1.287 . S
C836 C837 1.524 . S
C836 H855 0.913 . S
C837 H813 0.950 . S
C837 C836 1.524 . S
C837 C838 1.415 . S
C838 H814 0.950 . S
C838 C833 1.363 . S
C838 C837 1.415 . S
C839 H815 0.951 . S
C839 C840 1.366 . S
C839 C841 1.388 . S
C840 C839 1.366 . S
C840 C844 1.385 . S
C841 H816 0.951 . S
C841 C839 1.388 . S
C841 C842 1.366 . S
C842 C841 1.366 . S
C842 C843 1.414 . S
C842 C845 1.499 . S
C843 H817 0.950 . S
C843 C842 1.414 . S
C843 C844 1.374 . S
C844 H818 0.950 . S
C844 C840 1.385 . S
C844 C843 1.374 . S
C845 C842 1.499 . S
C845 C846 1.373 1_565 S
C845 C847 1.389 . S
C846 H819 0.950 . S
C846 C832 1.377 . S
C846 C845 1.373 1_545 S
C847 C831 1.377 . S
C847 C845 1.389 . S
C847 C848 1.524 . S
C848 C847 1.524 . S
C848 C849 1.397 . S
C848 C853 1.363 . S
C849 H820 0.950 . S
C849 C848 1.397 . S
C849 C850 1.334 . S
C850 H821 0.950 . S
C850 C849 1.334 . S
C850 C851 1.287 . S
C851 C850 1.287 . S
C851 C852 1.524 . S
C851 H854 0.999 . S
C852 H822 0.950 . S
C852 C851 1.524 . S
C852 C853 1.415 . S
C853 H823 0.950 . S
C853 C848 1.363 . S
C853 C852 1.415 . S
H854 C851 0.999 . S
H855 C836 0.913 . S
H856 C874 0.951 . S
H857 C876 0.951 . S
H858 C878 0.950 . S
H859 C879 0.950 . S
H860 C881 0.950 . S
H861 C884 0.950 . S
H862 C885 0.950 . S
H863 C887 0.950 . S
H864 C888 0.950 . S
H865 C889 0.938 1_455 S
H866 C891 0.951 . S
H867 C893 0.950 . S
H868 C894 0.950 . S
H869 C896 0.950 . S
H870 C899 0.950 . S
H871 C900 0.950 . S
H872 C902 0.950 . S
H873 C903 0.950 . S
C874 H856 0.951 . S
C874 C875 1.366 . S
C874 C876 1.388 . S
C875 C874 1.366 . S
C875 C879 1.385 1_655 S
C876 H857 0.951 . S
C876 C874 1.388 . S
C876 C877 1.366 . S
C877 C876 1.366 . S
C877 C878 1.414 1_655 S
C877 C880 1.499 . S
C878 H858 0.950 . S
C878 C877 1.414 1_455 S
C878 C879 1.374 . S
C879 H859 0.950 . S
C879 C875 1.385 1_455 S
C879 C878 1.374 . S
C880 C877 1.499 . S
C880 C881 1.373 1_655 S
C880 C882 1.389 . S
C881 H860 0.950 . S
C881 C880 1.373 1_455 S
C881 C897 1.377 . S
C882 C880 1.389 . S
C882 C883 1.524 . S
C882 C896 1.377 . S
C883 C882 1.524 . S
C883 C884 1.397 . S
C883 C888 1.363 . S
C884 H861 0.950 . S
C884 C883 1.397 . S
C884 C885 1.334 . S
C885 H862 0.950 . S
C885 C884 1.334 . S
C885 C886 1.287 . S
C886 C885 1.287 . S
C886 C887 1.524 . S
C886 H905 0.913 . S
C887 H863 0.950 . S
C887 C886 1.524 . S
C887 C888 1.415 . S
C888 H864 0.950 . S
C888 C883 1.363 . S
C888 C887 1.415 . S
C889 H865 0.938 1_655 S
C889 C890 1.381 . S
C889 C891 1.386 1_655 S
C890 C889 1.381 . S
C890 C894 1.385 . S
C891 H866 0.951 . S
C891 C889 1.386 1_455 S
C891 C892 1.366 1_455 S
C892 C891 1.366 1_655 S
C892 C893 1.414 . S
C892 C895 1.499 . S
C893 H867 0.950 . S
C893 C892 1.414 . S
C893 C894 1.374 . S
C894 H868 0.950 . S
C894 C890 1.385 . S
C894 C893 1.374 . S
C895 C892 1.499 . S
C895 C896 1.373 . S
C895 C897 1.389 1_655 S
C896 H869 0.950 . S
C896 C882 1.377 . S
C896 C895 1.373 . S
C897 C881 1.377 . S
C897 C895 1.389 1_455 S
C897 C898 1.524 . S
C898 C897 1.524 . S
C898 C899 1.397 . S
C898 C903 1.363 . S
C899 H870 0.950 . S
C899 C898 1.397 . S
C899 C900 1.334 . S
C900 H871 0.950 . S
C900 C899 1.334 . S
C900 C901 1.287 . S
C901 C900 1.287 . S
C901 C902 1.524 . S
C901 H904 0.999 . S
C902 H872 0.950 . S
C902 C901 1.524 . S
C902 C903 1.415 . S
C903 H873 0.950 . S
C903 C898 1.363 . S
C903 C902 1.415 . S
H904 C901 0.999 . S
H905 C886 0.913 . S
H906 C924 0.951 . S
H907 C926 0.951 . S
H908 C928 0.950 . S
H909 C929 0.950 . S
H910 C931 0.950 . S
H911 C934 0.950 . S
H912 C935 0.950 . S
H913 C937 0.950 . S
H914 C938 0.950 . S
H915 C939 0.951 . S
H916 C941 0.951 . S
H917 C943 0.960 . S
H918 C944 0.944 1_545 S
H919 C946 0.950 . S
H920 C949 0.950 . S
H921 C950 0.950 . S
H922 C952 0.950 . S
H923 C953 0.950 . S
C924 H906 0.951 . S
C924 C925 1.370 . S
C924 C926 1.388 . S
C925 C924 1.370 . S
C925 C929 1.379 1_545 S
C926 H907 0.951 . S
C926 C924 1.388 . S
C926 C927 1.366 1_545 S
C927 C926 1.366 1_565 S
C927 C928 1.414 . S
C927 C930 1.499 . S
C928 H908 0.950 . S
C928 C927 1.414 . S
C928 C929 1.374 . S
C929 H909 0.950 . S
C929 C925 1.379 1_565 S
C929 C928 1.374 . S
C930 C927 1.499 . S
C930 C931 1.373 1_565 S
C930 C932 1.389 . S
C931 H910 0.950 . S
C931 C930 1.373 1_545 S
C931 C947 1.377 . S
C932 C930 1.389 . S
C932 C933 1.524 . S
C932 C946 1.377 . S
C933 C932 1.524 . S
C933 C934 1.397 . S
C933 C938 1.363 . S
C934 H911 0.950 . S
C934 C933 1.397 . S
C934 C935 1.334 . S
C935 H912 0.950 . S
C935 C934 1.334 . S
C935 C936 1.287 . S
C936 C935 1.287 . S
C936 C937 1.524 . S
C936 H955 0.913 . S
C937 H913 0.950 . S
C937 C936 1.524 . S
C937 C938 1.415 . S
C938 H914 0.950 . S
C938 C933 1.363 . S
C938 C937 1.415 . S
C939 H915 0.951 . S
C939 C940 1.366 . S
C939 C941 1.388 . S
C940 C939 1.366 . S
C940 C944 1.392 . S
C941 H916 0.951 . S
C941 C939 1.388 . S
C941 C942 1.366 . S
C942 C941 1.366 . S
C942 C943 1.407 1_565 S
C942 C945 1.499 . S
C943 H917 0.960 . S
C943 C942 1.407 1_545 S
C943 C944 1.372 1_545 S
C944 H918 0.944 1_565 S
C944 C940 1.392 . S
C944 C943 1.372 1_565 S
C945 C942 1.499 . S
C945 C946 1.373 . S
C945 C947 1.389 1_565 S
C946 H919 0.950 . S
C946 C932 1.377 . S
C946 C945 1.373 . S
C947 C931 1.377 . S
C947 C945 1.389 1_545 S
C947 C948 1.524 . S
C948 C947 1.524 . S
C948 C949 1.397 . S
C948 C953 1.363 . S
C949 H920 0.950 . S
C949 C948 1.397 . S
C949 C950 1.334 . S
C950 H921 0.950 . S
C950 C949 1.334 . S
C950 C951 1.287 . S
C951 C950 1.287 . S
C951 C952 1.524 . S
C951 H954 0.999 . S
C952 H922 0.950 . S
C952 C951 1.524 . S
C952 C953 1.415 . S
C953 H923 0.950 . S
C953 C948 1.363 . S
C953 C952 1.415 . S
H954 C951 0.999 . S
H955 C936 0.913 . S
H956 C974 0.951 1_565 S
H957 C976 0.948 1_565 S
H958 C978 0.950 . S
H959 C979 0.950 . S
H960 C981 0.950 . S
H961 C984 0.950 . S
H962 C985 0.950 . S
H963 C987 0.950 . S
H964 C988 0.950 . S
H965 C989 0.951 . S
H966 C991 0.951 . S
H967 C993 0.950 . S
H968 C994 0.950 . S
H969 C996 0.950 . S
H970 C999 0.950 . S
H971 C1000 0.950 . S
H972 C1002 0.950 . S
H973 C1003 0.950 . S
C974 H956 0.951 1_545 S
C974 C975 1.366 . S
C974 C976 1.388 . S
C975 C974 1.366 . S
C975 C979 1.385 . S
C976 H957 0.948 1_545 S
C976 C974 1.388 . S
C976 C977 1.367 . S
C977 C976 1.367 . S
C977 C978 1.414 . S
C977 C980 1.499 . S
C978 H958 0.950 . S
C978 C977 1.414 . S
C978 C979 1.374 . S
C979 H959 0.950 . S
C979 C975 1.385 . S
C979 C978 1.374 . S
C980 C977 1.499 . S
C980 C981 1.373 . S
C980 C982 1.389 1_545 S
C981 H960 0.950 . S
C981 C980 1.373 . S
C981 C997 1.377 . S
C982 C980 1.389 1_565 S
C982 C983 1.524 . S
C982 C996 1.377 . S
C983 C982 1.524 . S
C983 C984 1.397 . S
C983 C988 1.363 . S
C984 H961 0.950 . S
C984 C983 1.397 . S
C984 C985 1.334 . S
C985 H962 0.950 . S
C985 C984 1.334 . S
C985 C986 1.287 . S
C986 C985 1.287 . S
C986 C987 1.524 . S
C986 H1005 0.913 . S
C987 H963 0.950 . S
C987 C986 1.524 . S
C987 C988 1.415 . S
C988 H964 0.950 . S
C988 C983 1.363 . S
C988 C987 1.415 . S
C989 H965 0.951 . S
C989 C990 1.366 1_545 S
C989 C991 1.388 . S
C990 C989 1.366 1_565 S
C990 C994 1.385 . S
C991 H966 0.951 . S
C991 C989 1.388 . S
C991 C992 1.366 . S
C992 C991 1.366 . S
C992 C993 1.414 1_545 S
C992 C995 1.499 . S
C993 H967 0.950 . S
C993 C992 1.414 1_565 S
C993 C994 1.374 . S
C994 H968 0.950 . S
C994 C990 1.385 . S
C994 C993 1.374 . S
C995 C992 1.499 . S
C995 C996 1.373 1_545 S
C995 C997 1.389 . S
C996 H969 0.950 . S
C996 C982 1.377 . S
C996 C995 1.373 1_565 S
C997 C981 1.377 . S
C997 C995 1.389 . S
C997 C998 1.524 . S
C998 C997 1.524 . S
C998 C999 1.397 . S
C998 C1003 1.363 . S
C999 H970 0.950 . S
C999 C998 1.397 . S
C999 C1000 1.334 . S
C1000 H971 0.950 . S
C1000 C999 1.334 . S
C1000 C1001 1.287 . S
C1001 C1000 1.287 . S
C1001 C1002 1.524 . S
C1001 H1004 0.999 . S
C1002 H972 0.950 . S
C1002 C1001 1.524 . S
C1002 C1003 1.415 . S
C1003 H973 0.950 . S
C1003 C998 1.363 . S
C1003 C1002 1.415 . S
H1004 C1001 0.999 . S
H1005 C986 0.913 . S
H1006 C1024 0.951 . S
H1007 C1026 0.951 . S
H1008 C1028 0.950 . S
H1009 C1029 0.950 . S
H1010 C1031 0.950 . S
H1011 C1034 0.950 . S
H1012 C1035 0.950 . S
H1013 C1037 0.950 . S
H1014 C1038 0.950 . S
H1015 C1039 0.951 . S
H1016 C1041 0.951 . S
H1017 C1043 0.947 1_455 S
H1018 C1044 0.945 1_455 S
H1019 C1046 0.950 . S
H1020 C1049 0.950 . S
H1021 C1050 0.950 . S
H1022 C1052 0.950 . S
H1023 C1053 0.950 . S
C1024 H1006 0.951 . S
C1024 C1025 1.366 . S
C1024 C1026 1.388 . S
C1025 C1024 1.366 . S
C1025 C1029 1.385 1_455 S
C1026 H1007 0.951 . S
C1026 C1024 1.388 . S
C1026 C1027 1.358 1_455 S
C1027 C1026 1.358 1_655 S
C1027 C1028 1.419 . S
C1027 C1030 1.501 . S
C1028 H1008 0.950 . S
C1028 C1027 1.419 . S
C1028 C1029 1.374 . S
C1029 H1009 0.950 . S
C1029 C1025 1.385 1_655 S
C1029 C1028 1.374 . S
C1030 C1027 1.501 . S
C1030 C1031 1.373 1_655 S
C1030 C1032 1.389 . S
C1031 H1010 0.950 . S
C1031 C1030 1.373 1_455 S
C1031 C1047 1.377 . S
C1032 C1030 1.389 . S
C1032 C1033 1.524 . S
C1032 C1046 1.377 . S
C1033 C1032 1.524 . S
C1033 C1034 1.397 . S
C1033 C1038 1.363 . S
C1034 H1011 0.950 . S
C1034 C1033 1.397 . S
C1034 C1035 1.334 . S
C1035 H1012 0.950 . S
C1035 C1034 1.334 . S
C1035 C1036 1.287 . S
C1036 C1035 1.287 . S
C1036 C1037 1.524 . S
C1036 H1055 0.913 . S
C1037 H1013 0.950 . S
C1037 C1036 1.524 . S
C1037 C1038 1.415 . S
C1038 H1014 0.950 . S
C1038 C1033 1.363 . S
C1038 C1037 1.415 . S
C1039 H1015 0.951 . S
C1039 C1040 1.366 . S
C1039 C1041 1.388 . S
C1040 C1039 1.366 . S
C1040 C1044 1.385 . S
C1041 H1016 0.951 . S
C1041 C1039 1.388 . S
C1041 C1042 1.366 . S
C1042 C1041 1.366 . S
C1042 C1043 1.416 . S
C1042 C1045 1.499 . S
C1043 H1017 0.947 1_655 S
C1043 C1042 1.416 . S
C1043 C1044 1.375 . S
C1044 H1018 0.945 1_655 S
C1044 C1040 1.385 . S
C1044 C1043 1.375 . S
C1045 C1042 1.499 . S
C1045 C1046 1.373 . S
C1045 C1047 1.389 1_655 S
C1046 H1019 0.950 . S
C1046 C1032 1.377 . S
C1046 C1045 1.373 . S
C1047 C1031 1.377 . S
C1047 C1045 1.389 1_455 S
C1047 C1048 1.524 . S
C1048 C1047 1.524 . S
C1048 C1049 1.397 . S
C1048 C1053 1.363 . S
C1049 H1020 0.950 . S
C1049 C1048 1.397 . S
C1049 C1050 1.334 . S
C1050 H1021 0.950 . S
C1050 C1049 1.334 . S
C1050 C1051 1.287 . S
C1051 C1050 1.287 . S
C1051 C1052 1.524 . S
C1051 H1054 0.999 . S
C1052 H1022 0.950 . S
C1052 C1051 1.524 . S
C1052 C1053 1.415 . S
C1053 H1023 0.950 . S
C1053 C1048 1.363 . S
C1053 C1052 1.415 . S
H1054 C1051 0.999 . S
H1055 C1036 0.913 . S
H1056 C1074 0.951 . S
H1057 C1076 0.951 . S
H1058 C1078 0.950 . S
H1059 C1079 0.950 . S
H1060 C1081 0.950 . S
H1061 C1084 0.950 . S
H1062 C1085 0.950 . S
H1063 C1087 0.950 . S
H1064 C1088 0.950 . S
H1065 C1089 0.951 . S
H1066 C1091 0.951 . S
H1067 C1093 0.950 . S
H1068 C1094 0.950 . S
H1069 C1096 0.950 . S
H1070 C1099 0.950 . S
H1071 C1100 0.950 . S
H1072 C1102 0.950 . S
H1073 C1103 0.950 . S
C1074 H1056 0.951 . S
C1074 C1075 1.366 1_545 S
C1074 C1076 1.388 . S
C1075 C1074 1.366 1_565 S
C1075 C1079 1.385 . S
C1076 H1057 0.951 . S
C1076 C1074 1.388 . S
C1076 C1077 1.366 1_545 S
C1077 C1076 1.366 1_565 S
C1077 C1078 1.414 . S
C1077 C1080 1.499 . S
C1078 H1058 0.950 . S
C1078 C1077 1.414 . S
C1078 C1079 1.374 . S
C1079 H1059 0.950 . S
C1079 C1075 1.385 . S
C1079 C1078 1.374 . S
C1080 C1077 1.499 . S
C1080 C1081 1.373 . S
C1080 C1082 1.389 1_565 S
C1081 H1060 0.950 . S
C1081 C1080 1.373 . S
C1081 C1097 1.377 . S
C1082 C1080 1.389 1_545 S
C1082 C1083 1.524 . S
C1082 C1096 1.377 . S
C1083 C1082 1.524 . S
C1083 C1084 1.397 . S
C1083 C1088 1.363 . S
C1084 H1061 0.950 . S
C1084 C1083 1.397 . S
C1084 C1085 1.334 . S
C1085 H1062 0.950 . S
C1085 C1084 1.334 . S
C1085 C1086 1.287 . S
C1086 C1085 1.287 . S
C1086 C1087 1.524 . S
C1086 H1105 0.913 . S
C1087 H1063 0.950 . S
C1087 C1086 1.524 . S
C1087 C1088 1.415 . S
C1088 H1064 0.950 . S
C1088 C1083 1.363 . S
C1088 C1087 1.415 . S
C1089 H1065 0.951 . S
C1089 C1090 1.366 . S
C1089 C1091 1.388 . S
C1090 C1089 1.366 . S
C1090 C1094 1.385 1_565 S
C1091 H1066 0.951 . S
C1091 C1089 1.388 . S
C1091 C1092 1.366 . S
C1092 C1091 1.366 . S
C1092 C1093 1.414 1_565 S
C1092 C1095 1.499 . S
C1093 H1067 0.950 . S
C1093 C1092 1.414 1_545 S
C1093 C1094 1.374 . S
C1094 H1068 0.950 . S
C1094 C1090 1.385 1_545 S
C1094 C1093 1.374 . S
C1095 C1092 1.499 . S
C1095 C1096 1.373 1_565 S
C1095 C1097 1.389 . S
C1096 H1069 0.950 . S
C1096 C1082 1.377 . S
C1096 C1095 1.373 1_545 S
C1097 C1081 1.377 . S
C1097 C1095 1.389 . S
C1097 C1098 1.524 . S
C1098 C1097 1.524 . S
C1098 C1099 1.397 . S
C1098 C1103 1.363 . S
C1099 H1070 0.950 . S
C1099 C1098 1.397 . S
C1099 C1100 1.334 . S
C1100 H1071 0.950 . S
C1100 C1099 1.334 . S
C1100 C1101 1.287 . S
C1101 C1100 1.287 . S
C1101 C1102 1.524 . S
C1101 H1104 0.999 . S
C1102 H1072 0.950 . S
C1102 C1101 1.524 . S
C1102 C1103 1.415 . S
C1103 H1073 0.950 . S
C1103 C1098 1.363 . S
C1103 C1102 1.415 . S
H1104 C1101 0.999 . S
H1105 C1086 0.913 . S
H1106 C1124 0.951 . S
H1107 C1126 0.951 . S
H1108 C1128 0.950 . S
H1109 C1129 0.950 . S
H1110 C1131 0.950 . S
H1111 C1134 0.950 . S
H1112 C1135 0.950 . S
H1113 C1137 0.950 . S
H1114 C1138 0.950 . S
H1115 C1139 0.951 . S
H1116 C1141 0.951 . S
H1117 C1143 0.950 . S
H1118 C1144 0.950 . S
H1119 C1146 0.950 . S
H1120 C1149 0.950 . S
H1121 C1150 0.950 . S
H1122 C1152 0.950 . S
H1123 C1153 0.950 . S
C1124 H1106 0.951 . S
C1124 C1125 1.366 . S
C1124 C1126 1.388 . S
C1125 C1124 1.366 . S
C1125 C1129 1.385 1_655 S
C1126 H1107 0.951 . S
C1126 C1124 1.388 . S
C1126 C1127 1.366 . S
C1127 C1126 1.366 . S
C1127 C1128 1.414 1_655 S
C1127 C1130 1.499 . S
C1128 H1108 0.950 . S
C1128 C1127 1.414 1_455 S
C1128 C1129 1.374 . S
C1129 H1109 0.950 . S
C1129 C1125 1.385 1_455 S
C1129 C1128 1.374 . S
C1130 C1127 1.499 . S
C1130 C1131 1.373 1_655 S
C1130 C1132 1.389 . S
C1131 H1110 0.950 . S
C1131 C1130 1.373 1_455 S
C1131 C1147 1.377 . S
C1132 C1130 1.389 . S
C1132 C1133 1.524 . S
C1132 C1146 1.377 . S
C1133 C1132 1.524 . S
C1133 C1134 1.397 . S
C1133 C1138 1.363 . S
C1134 H1111 0.950 . S
C1134 C1133 1.397 . S
C1134 C1135 1.334 . S
C1135 H1112 0.950 . S
C1135 C1134 1.334 . S
C1135 C1136 1.287 . S
C1136 C1135 1.287 . S
C1136 C1137 1.524 . S
C1136 H1155 0.913 . S
C1137 H1113 0.950 . S
C1137 C1136 1.524 . S
C1137 C1138 1.415 . S
C1138 H1114 0.950 . S
C1138 C1133 1.363 . S
C1138 C1137 1.415 . S
C1139 H1115 0.951 . S
C1139 C1140 1.366 . S
C1139 C1141 1.388 . S
C1140 C1139 1.366 . S
C1140 C1144 1.385 1_455 S
C1141 H1116 0.951 . S
C1141 C1139 1.388 . S
C1141 C1142 1.366 . S
C1142 C1141 1.366 . S
C1142 C1143 1.414 1_455 S
C1142 C1145 1.504 . S
C1143 H1117 0.950 . S
C1143 C1142 1.414 1_655 S
C1143 C1144 1.374 . S
C1144 H1118 0.950 . S
C1144 C1140 1.385 1_655 S
C1144 C1143 1.374 . S
C1145 C1142 1.504 . S
C1145 C1146 1.344 1_455 S
C1145 C1147 1.414 . S
C1146 H1119 0.950 . S
C1146 C1132 1.377 . S
C1146 C1145 1.344 1_655 S
C1147 C1131 1.377 . S
C1147 C1145 1.414 . S
C1147 C1148 1.524 . S
C1148 C1147 1.524 . S
C1148 C1149 1.397 . S
C1148 C1153 1.363 . S
C1149 H1120 0.950 . S
C1149 C1148 1.397 . S
C1149 C1150 1.334 . S
C1150 H1121 0.950 . S
C1150 C1149 1.334 . S
C1150 C1151 1.287 . S
C1151 C1150 1.287 . S
C1151 C1152 1.524 . S
C1151 H1154 0.999 . S
C1152 H1122 0.950 . S
C1152 C1151 1.524 . S
C1152 C1153 1.415 . S
C1153 H1123 0.950 . S
C1153 C1148 1.363 . S
C1153 C1152 1.415 . S
H1154 C1151 0.999 . S
H1155 C1136 0.913 . S
H1156 C1174 0.951 . S
H1157 C1176 0.951 . S
H1158 C1178 0.950 . S
H1159 C1179 0.950 . S
H1160 C1181 0.950 . S
H1161 C1184 0.950 . S
H1162 C1185 0.950 . S
H1163 C1187 0.950 . S
H1164 C1188 0.950 . S
H1165 C1189 0.951 . S
H1166 C1191 0.951 . S
H1167 C1193 0.950 . S
H1168 C1194 0.950 . S
H1169 C1196 0.950 . S
H1170 C1199 0.950 . S
H1171 C1200 0.950 . S
H1172 C1202 0.950 . S
H1173 C1203 0.950 . S
C1174 H1156 0.951 . S
C1174 C1175 1.366 1_556 S
C1174 C1176 1.388 . S
C1175 C1174 1.366 1_554 S
C1175 C1179 1.385 . S
C1176 H1157 0.951 . S
C1176 C1174 1.388 . S
C1176 C1177 1.366 1_556 S
C1177 C1176 1.366 1_554 S
C1177 C1178 1.414 . S
C1177 C1180 1.499 1_554 S
C1178 H1158 0.950 . S
C1178 C1177 1.414 . S
C1178 C1179 1.374 . S
C1179 H1159 0.950 . S
C1179 C1175 1.385 . S
C1179 C1178 1.374 . S
C1180 C1177 1.499 1_556 S
C1180 C1181 1.373 1_556 S
C1180 C1182 1.389 . S
C1181 H1160 0.950 . S
C1181 C1180 1.373 1_554 S
C1181 C1197 1.377 . S
C1182 C1180 1.389 . S
C1182 C1183 1.524 . S
C1182 C1196 1.377 . S
C1183 C1182 1.524 . S
C1183 C1184 1.397 . S
C1183 C1188 1.363 . S
C1184 H1161 0.950 . S
C1184 C1183 1.397 . S
C1184 C1185 1.334 . S
C1185 H1162 0.950 . S
C1185 C1184 1.334 . S
C1185 C1186 1.287 . S
C1186 C1185 1.287 . S
C1186 C1187 1.524 . S
C1186 H1205 0.913 . S
C1187 H1163 0.950 . S
C1187 C1186 1.524 . S
C1187 C1188 1.415 . S
C1188 H1164 0.950 . S
C1188 C1183 1.363 . S
C1188 C1187 1.415 . S
C1189 H1165 0.951 . S
C1189 C1190 1.366 1_554 S
C1189 C1191 1.388 . S
C1190 C1189 1.366 1_556 S
C1190 C1194 1.385 . S
C1191 H1166 0.951 . S
C1191 C1189 1.388 . S
C1191 C1192 1.366 1_554 S
C1192 C1191 1.366 1_556 S
C1192 C1193 1.414 . S
C1192 C1195 1.499 . S
C1193 H1167 0.950 . S
C1193 C1192 1.414 . S
C1193 C1194 1.374 . S
C1194 H1168 0.950 . S
C1194 C1190 1.385 . S
C1194 C1193 1.374 . S
C1195 C1192 1.499 . S
C1195 C1196 1.373 . S
C1195 C1197 1.389 1_556 S
C1196 H1169 0.950 . S
C1196 C1182 1.377 . S
C1196 C1195 1.373 . S
C1197 C1181 1.377 . S
C1197 C1195 1.389 1_554 S
C1197 C1198 1.524 . S
C1198 C1197 1.524 . S
C1198 C1199 1.397 . S
C1198 C1203 1.363 . S
C1199 H1170 0.950 . S
C1199 C1198 1.397 . S
C1199 C1200 1.334 . S
C1200 H1171 0.950 . S
C1200 C1199 1.334 . S
C1200 C1201 1.287 . S
C1201 C1200 1.287 . S
C1201 C1202 1.524 . S
C1201 H1204 0.999 . S
C1202 H1172 0.950 . S
C1202 C1201 1.524 . S
C1202 C1203 1.415 . S
C1203 H1173 0.950 . S
C1203 C1198 1.363 . S
C1203 C1202 1.415 . S
H1204 C1201 0.999 . S
H1205 C1186 0.913 . S
H1206 C1224 0.951 . S
H1207 C1226 0.951 . S
H1208 C1228 0.950 . S
H1209 C1229 0.950 . S
H1210 C1231 0.950 . S
H1211 C1234 0.950 . S
H1212 C1235 0.950 . S
H1213 C1237 0.950 . S
H1214 C1238 0.950 . S
H1215 C1239 0.951 . S
H1216 C1241 0.951 . S
H1217 C1243 0.950 . S
H1218 C1244 0.950 . S
H1219 C1246 0.950 . S
H1220 C1249 0.950 . S
H1221 C1250 0.950 . S
H1222 C1252 0.950 . S
H1223 C1253 0.950 . S
C1224 H1206 0.951 . S
C1224 C1225 1.366 . S
C1224 C1226 1.388 . S
C1225 C1224 1.366 . S
C1225 C1229 1.385 1_556 S
C1226 H1207 0.951 . S
C1226 C1224 1.388 . S
C1226 C1227 1.366 . S
C1227 C1226 1.366 . S
C1227 C1228 1.414 1_556 S
C1227 C1230 1.499 . S
C1228 H1208 0.950 . S
C1228 C1227 1.414 1_554 S
C1228 C1229 1.374 . S
C1229 H1209 0.950 . S
C1229 C1225 1.385 1_554 S
C1229 C1228 1.374 . S
C1230 C1227 1.499 . S
C1230 C1231 1.373 1_556 S
C1230 C1232 1.389 . S
C1231 H1210 0.950 . S
C1231 C1230 1.373 1_554 S
C1231 C1247 1.377 . S
C1232 C1230 1.389 . S
C1232 C1233 1.524 . S
C1232 C1246 1.377 . S
C1233 C1232 1.524 . S
C1233 C1234 1.397 . S
C1233 C1238 1.363 . S
C1234 H1211 0.950 . S
C1234 C1233 1.397 . S
C1234 C1235 1.334 . S
C1235 H1212 0.950 . S
C1235 C1234 1.334 . S
C1235 C1236 1.287 . S
C1236 C1235 1.287 . S
C1236 C1237 1.524 . S
C1236 H1255 0.913 . S
C1237 H1213 0.950 . S
C1237 C1236 1.524 . S
C1237 C1238 1.415 . S
C1238 H1214 0.950 . S
C1238 C1233 1.363 . S
C1238 C1237 1.415 . S
C1239 H1215 0.951 . S
C1239 C1240 1.366 . S
C1239 C1241 1.388 . S
C1240 C1239 1.366 . S
C1240 C1244 1.385 1_554 S
C1241 H1216 0.951 . S
C1241 C1239 1.388 . S
C1241 C1242 1.366 . S
C1242 C1241 1.366 . S
C1242 C1243 1.414 1_554 S
C1242 C1245 1.499 1_554 S
C1243 H1217 0.950 . S
C1243 C1242 1.414 1_556 S
C1243 C1244 1.374 . S
C1244 H1218 0.950 . S
C1244 C1240 1.385 1_556 S
C1244 C1243 1.374 . S
C1245 C1242 1.499 1_556 S
C1245 C1246 1.373 . S
C1245 C1247 1.389 1_556 S
C1246 H1219 0.950 . S
C1246 C1232 1.377 . S
C1246 C1245 1.373 . S
C1247 C1231 1.377 . S
C1247 C1245 1.389 1_554 S
C1247 C1248 1.524 . S
C1248 C1247 1.524 . S
C1248 C1249 1.397 . S
C1248 C1253 1.363 . S
C1249 H1220 0.950 . S
C1249 C1248 1.397 . S
C1249 C1250 1.334 . S
C1250 H1221 0.950 . S
C1250 C1249 1.334 . S
C1250 C1251 1.287 . S
C1251 C1250 1.287 . S
C1251 C1252 1.524 . S
C1251 H1254 0.999 . S
C1252 H1222 0.950 . S
C1252 C1251 1.524 . S
C1252 C1253 1.415 . S
C1253 H1223 0.950 . S
C1253 C1248 1.363 . S
C1253 C1252 1.415 . S
H1254 C1251 0.999 . S
H1255 C1236 0.913 . S
H1256 C1274 0.951 . S
H1257 C1276 0.951 . S
H1258 C1278 0.950 . S
H1259 C1279 0.950 . S
H1260 C1281 0.950 . S
H1261 C1284 0.950 . S
H1262 C1285 0.950 . S
H1263 C1287 0.950 . S
H1264 C1288 0.950 . S
H1265 C1289 0.951 . S
H1266 C1291 0.951 . S
H1267 C1293 0.951 . S
H1268 C1294 0.950 . S
H1269 C1296 0.950 . S
H1270 C1299 0.950 . S
H1271 C1300 0.950 . S
H1272 C1302 0.950 . S
H1273 C1303 0.950 . S
C1274 H1256 0.951 . S
C1274 C1275 1.366 . S
C1274 C1276 1.388 . S
C1275 C1274 1.366 . S
C1275 C1279 1.385 . S
C1276 H1257 0.951 . S
C1276 C1274 1.388 . S
C1276 C1277 1.366 . S
C1277 C1276 1.366 . S
C1277 C1278 1.414 . S
C1277 C1280 1.499 . S
C1278 H1258 0.950 . S
C1278 C1277 1.414 . S
C1278 C1279 1.374 . S
C1279 H1259 0.950 . S
C1279 C1275 1.385 . S
C1279 C1278 1.374 . S
C1280 C1277 1.499 . S
C1280 C1281 1.373 . S
C1280 C1282 1.389 1_556 S
C1281 H1260 0.950 . S
C1281 C1280 1.373 . S
C1281 C1297 1.377 . S
C1282 C1280 1.389 1_554 S
C1282 C1283 1.524 . S
C1282 C1296 1.377 . S
C1283 C1282 1.524 . S
C1283 C1284 1.397 . S
C1283 C1288 1.363 . S
C1284 H1261 0.950 . S
C1284 C1283 1.397 . S
C1284 C1285 1.334 . S
C1285 H1262 0.950 . S
C1285 C1284 1.334 . S
C1285 C1286 1.287 . S
C1286 C1285 1.287 . S
C1286 C1287 1.524 . S
C1286 H1305 0.913 . S
C1287 H1263 0.950 . S
C1287 C1286 1.524 . S
C1287 C1288 1.415 . S
C1288 H1264 0.950 . S
C1288 C1283 1.363 . S
C1288 C1287 1.415 . S
C1289 H1265 0.951 . S
C1289 C1290 1.366 . S
C1289 C1291 1.388 . S
C1290 C1289 1.366 . S
C1290 C1294 1.385 . S
C1291 H1266 0.951 . S
C1291 C1289 1.388 . S
C1291 C1292 1.367 . S
C1292 C1291 1.367 . S
C1292 C1293 1.415 . S
C1292 C1295 1.497 1_554 S
C1293 H1267 0.951 . S
C1293 C1292 1.415 . S
C1293 C1294 1.374 . S
C1294 H1268 0.950 . S
C1294 C1290 1.385 . S
C1294 C1293 1.374 . S
C1295 C1292 1.497 1_556 S
C1295 C1296 1.373 1_556 S
C1295 C1297 1.389 . S
C1296 H1269 0.950 . S
C1296 C1282 1.377 . S
C1296 C1295 1.373 1_554 S
C1297 C1281 1.377 . S
C1297 C1295 1.389 . S
C1297 C1298 1.524 . S
C1298 C1297 1.524 . S
C1298 C1299 1.397 . S
C1298 C1303 1.363 . S
C1299 H1270 0.950 . S
C1299 C1298 1.397 . S
C1299 C1300 1.334 . S
C1300 H1271 0.950 . S
C1300 C1299 1.334 . S
C1300 C1301 1.287 . S
C1301 C1300 1.287 . S
C1301 C1302 1.524 . S
C1301 H1304 0.999 . S
C1302 H1272 0.950 . S
C1302 C1301 1.524 . S
C1302 C1303 1.415 . S
C1303 H1273 0.950 . S
C1303 C1298 1.363 . S
C1303 C1302 1.415 . S
H1304 C1301 0.999 . S
H1305 C1286 0.913 . S
H1306 C1324 0.951 . S
H1307 C1326 0.951 . S
H1308 C1328 0.950 . S
H1309 C1329 0.950 . S
H1310 C1331 0.950 . S
H1311 C1334 0.950 . S
H1312 C1335 0.950 . S
H1313 C1337 0.950 . S
H1314 C1338 0.950 . S
H1315 C1339 0.951 . S
H1316 C1341 0.951 . S
H1317 C1343 0.950 . S
H1318 C1344 0.950 . S
H1319 C1346 0.950 . S
H1320 C1349 0.950 . S
H1321 C1350 0.950 . S
H1322 C1352 0.950 . S
H1323 C1353 0.950 . S
C1324 H1306 0.951 . S
C1324 C1325 1.366 . S
C1324 C1326 1.388 . S
C1325 C1324 1.366 . S
C1325 C1329 1.385 1_554 S
C1326 H1307 0.951 . S
C1326 C1324 1.388 . S
C1326 C1327 1.366 . S
C1327 C1326 1.366 . S
C1327 C1328 1.414 1_554 S
C1327 C1330 1.502 . S
C1328 H1308 0.950 . S
C1328 C1327 1.414 1_556 S
C1328 C1329 1.374 . S
C1329 H1309 0.950 . S
C1329 C1325 1.385 1_556 S
C1329 C1328 1.374 . S
C1330 C1327 1.502 . S
C1330 C1331 1.375 . S
C1330 C1332 1.387 1_554 S
C1331 H1310 0.950 . S
C1331 C1330 1.375 . S
C1331 C1347 1.377 . S
C1332 C1330 1.387 1_556 S
C1332 C1333 1.524 . S
C1332 C1346 1.377 . S
C1333 C1332 1.524 . S
C1333 C1334 1.397 . S
C1333 C1338 1.363 1_556 S
C1334 H1311 0.950 . S
C1334 C1333 1.397 . S
C1334 C1335 1.334 . S
C1335 H1312 0.950 . S
C1335 C1334 1.334 . S
C1335 C1336 1.287 . S
C1336 C1335 1.287 . S
C1336 C1337 1.524 1_556 S
C1336 H1355 0.913 . S
C1337 H1313 0.950 . S
C1337 C1336 1.524 1_554 S
C1337 C1338 1.415 . S
C1338 H1314 0.950 . S
C1338 C1333 1.363 1_554 S
C1338 C1337 1.415 . S
C1339 H1315 0.951 . S
C1339 C1340 1.366 . S
C1339 C1341 1.388 . S
C1340 C1339 1.366 . S
C1340 C1344 1.385 1_556 S
C1341 H1316 0.951 . S
C1341 C1339 1.388 . S
C1341 C1342 1.366 . S
C1342 C1341 1.366 . S
C1342 C1343 1.414 1_556 S
C1342 C1345 1.505 . S
C1343 H1317 0.950 . S
C1343 C1342 1.414 1_554 S
C1343 C1344 1.374 . S
C1344 H1318 0.950 . S
C1344 C1340 1.385 1_554 S
C1344 C1343 1.374 . S
C1345 C1342 1.505 . S
C1345 C1346 1.376 . S
C1345 C1347 1.386 1_556 S
C1346 H1319 0.950 . S
C1346 C1332 1.377 . S
C1346 C1345 1.376 . S
C1347 C1331 1.377 . S
C1347 C1345 1.386 1_554 S
C1347 C1348 1.524 . S
C1348 C1347 1.524 . S
C1348 C1349 1.397 . S
C1348 C1353 1.363 1_554 S
C1349 H1320 0.950 . S
C1349 C1348 1.397 . S
C1349 C1350 1.334 . S
C1350 H1321 0.950 . S
C1350 C1349 1.334 . S
C1350 C1351 1.287 . S
C1351 C1350 1.287 . S
C1351 C1352 1.524 1_554 S
C1351 H1354 0.999 . S
C1352 H1322 0.950 . S
C1352 C1351 1.524 1_556 S
C1352 C1353 1.415 . S
C1353 H1323 0.950 . S
C1353 C1348 1.363 1_556 S
C1353 C1352 1.415 . S
H1354 C1351 0.999 . S
H1355 C1336 0.913 . S
C175 C1 0.946 . S
C190 C96 0.946 . S
C225 C18 1.258 . S
C240 C55 1.261 . S
C275 C66 1.016 . S
C290 C27 1.036 . S
C325 C81 1.329 . S
C340 C49 1.329 . S
C375 C114 1.013 . S
C390 C92 1.016 . S
C425 C118 1.224 . S
C440 C62 1.218 . S
C475 C140 1.319 . S
C490 C70 1.270 . S
C525 C144 1.170 . S
C540 C88 1.171 . S
C575 C14 0.968 . S
C590 C122 0.967 . S
C625 C133 1.092 . S
C640 C31 1.097 . S
C675 C42 1.268 . S
C690 C148 1.272 . S
C725 C107 1.112 . S
C740 C5 1.111 . S
C775 C83 1.686 . S
C790 C10 1.682 . S
C825 C94 1.552 . S
C840 C16 1.553 . S
C875 C57 1.690 1_655 S
C890 C36 1.691 . S
C925 C40 1.827 . S
C940 C75 1.761 . S
C975 C101 1.736 . S
C990 C68 1.666 . S
C1025 C53 1.726 . S
C1040 C79 1.726 . S
C1075 C44 1.635 1_565 S
C1090 C23 1.630 . S
C1125 C29 1.645 . S
C1140 C3 1.646 . S
C1175 C109 1.833 . S
C1190 C127 1.828 . S
C1225 C120 1.689 . S
C1240 C131 1.679 . S
C1275 C153 1.531 . S
C1290 C135 1.535 . S
C1325 C105 1.675 . S
C1340 C146 1.680 . S
