# Generated by pormake.
# Topology mmt, (4)-cn, num edge types: 1
# Building blocks:
#     Node 0, Type 0, BuildingBlock: KUFVIS_clean_sbu_0, # of connection points: 4
#     Node 1, Type 0, BuildingBlock: KUFVIS_clean_sbu_0, # of connection points: 4
#     Node 2, Type 0, BuildingBlock: KUFVIS_clean_sbu_0, # of connection points: 4
#     Node 3, Type 0, BuildingBlock: KUFVIS_clean_sbu_0, # of connection points: 4
#     Node 4, Type 0, BuildingBlock: KUFVIS_clean_sbu_0, # of connection points: 4
#     Node 5, Type 0, BuildingBlock: KUFVIS_clean_sbu_0, # of connection points: 4
#     Node 6, Type 0, BuildingBlock: KUFVIS_clean_sbu_0, # of connection points: 4
#     Node 7, Type 0, BuildingBlock: KUFVIS_clean_sbu_0, # of connection points: 4
#     Edge 8, Type (0, 0), BuildingBlock: AJUNOK_clean_linker_0, # of connection points: 2
#     Edge 9, Type (0, 0), BuildingBlock: AJUNOK_clean_linker_0, # of connection points: 2
#     Edge 10, Type (0, 0), BuildingBlock: AJUNOK_clean_linker_0, # of connection points: 2
#     Edge 11, Type (0, 0), BuildingBlock: AJUNOK_clean_linker_0, # of connection points: 2
#     Edge 12, Type (0, 0), BuildingBlock: AJUNOK_clean_linker_0, # of connection points: 2
#     Edge 13, Type (0, 0), BuildingBlock: AJUNOK_clean_linker_0, # of connection points: 2
#     Edge 14, Type (0, 0), BuildingBlock: AJUNOK_clean_linker_0, # of connection points: 2
#     Edge 15, Type (0, 0), BuildingBlock: AJUNOK_clean_linker_0, # of connection points: 2
#     Edge 16, Type (0, 0), BuildingBlock: AJUNOK_clean_linker_0, # of connection points: 2
#     Edge 17, Type (0, 0), BuildingBlock: AJUNOK_clean_linker_0, # of connection points: 2
#     Edge 18, Type (0, 0), BuildingBlock: AJUNOK_clean_linker_0, # of connection points: 2
#     Edge 19, Type (0, 0), BuildingBlock: AJUNOK_clean_linker_0, # of connection points: 2
#     Edge 20, Type (0, 0), BuildingBlock: AJUNOK_clean_linker_0, # of connection points: 2
#     Edge 21, Type (0, 0), BuildingBlock: AJUNOK_clean_linker_0, # of connection points: 2
#     Edge 22, Type (0, 0), BuildingBlock: AJUNOK_clean_linker_0, # of connection points: 2
#     Edge 23, Type (0, 0), BuildingBlock: AJUNOK_clean_linker_0, # of connection points: 2
# Relax obj value: 0.033
# Max RMSD: 0.059
# Mean RMSD: 0.059
data_MOF--net-mmt--node1-KUFVIS_clean_sbu_0--edge1-AJUNOK_clean_linker_0
_symmetry_space_group_name_H-M    P1
_symmetry_Int_Tables_number       1
_symmetry_cell_setting            triclinic
loop_
_symmetry_equiv_pos_as_xyz
'x, y, z'
_cell_length_a     16.219177
_cell_length_b     26.65035
_cell_length_c     32.274634
_cell_angle_alpha  89.93174
_cell_angle_beta   90.017125
_cell_angle_gamma 89.996133
loop_
_atom_site_label
_atom_site_type_symbol
_atom_site_fract_x
_atom_site_fract_y
_atom_site_fract_z
_atom_type_partial_charge
Mn0 Mn 0.10494 0.57618 0.36509 0.0
Mn1 Mn 0.07885 0.63752 0.27439 0.0
C2 C 0.01327 0.54584 0.31644 0.0
C3 C 0.06583 0.56207 0.43382 0.0
C4 C 0.22562 0.57066 0.29266 0.0
O5 O 0.15887 0.64423 0.37641 0.0
O6 O 0.1302 0.68336 0.3159 0.0
C7 C 0.95125 0.70949 0.30203 0.0
N8 N 0.97609 0.67261 0.27569 0.0
C9 C 0.84538 0.67358 0.24036 0.0
C10 C 0.81853 0.71168 0.26702 0.0
C11 C 0.87171 0.72977 0.29797 0.0
C12 C 0.92543 0.65502 0.24574 0.0
H13 H 0.99163 0.72299 0.32615 0.0
C14 C 0.16066 0.68257 0.35258 0.0
O15 O 0.13807 0.54873 0.42027 0.0
O16 O 0.0195 0.5868 0.40827 0.0
N17 N 0.02999 0.59785 0.23148 0.0
C18 C 0.06334 0.55874 0.21008 0.0
C19 C 0.01721 0.53553 0.17865 0.0
C20 C 0.9376 0.55295 0.16936 0.0
C21 C 0.90507 0.59373 0.19138 0.0
C22 C 0.95429 0.61573 0.22206 0.0
H23 H 0.12432 0.54501 0.2172 0.0
O24 O 0.04224 0.51667 0.34507 0.0
O25 O 0.0378 0.59231 0.31749 0.0
O26 O 0.20369 0.55662 0.32883 0.0
O27 O 0.18467 0.60112 0.27004 0.0
C28 C 0.82496 0.61258 0.18481 0.0
C29 C 0.79504 0.65237 0.20937 0.0
H30 H 0.7568 0.72679 0.26433 0.0
H31 H 0.8512 0.75899 0.31882 0.0
H32 H 0.04271 0.50401 0.16187 0.0
H33 H 0.90175 0.53449 0.14551 0.0
H34 H 0.78531 0.59614 0.16148 0.0
H35 H 0.73281 0.66594 0.20454 0.0
Mn36 Mn 0.40977 0.96735 0.36376 0.0
Mn37 Mn 0.44027 0.90615 0.27352 0.0
C38 C 0.50261 0.9983 0.31584 0.0
C39 C 0.44757 0.98118 0.43274 0.0
C40 C 0.29116 0.97166 0.29056 0.0
O41 O 0.35631 0.89899 0.37461 0.0
O42 O 0.3899 0.85975 0.3149 0.0
C43 C 0.56993 0.83608 0.30228 0.0
N44 N 0.54426 0.87245 0.27556 0.0
C45 C 0.67578 0.87317 0.24102 0.0
C46 C 0.70348 0.83559 0.26806 0.0
C47 C 0.65032 0.81692 0.2988 0.0
C48 C 0.59494 0.89064 0.24586 0.0
H49 H 0.52957 0.82216 0.32628 0.0
C50 C 0.3569 0.86044 0.35103 0.0
O51 O 0.37543 0.9945 0.41895 0.0
O52 O 0.49427 0.95671 0.4073 0.0
N53 N 0.48868 0.94639 0.23078 0.0
C54 C 0.45431 0.98486 0.20892 0.0
C55 C 0.50018 1.00848 0.17758 0.0
C56 C 0.58063 0.99212 0.16884 0.0
C57 C 0.61423 0.95197 0.19132 0.0
C58 C 0.56521 0.92948 0.22187 0.0
H59 H 0.39266 0.99774 0.21558 0.0
O60 O 0.47244 0.02728 0.34421 0.0
O61 O 0.47853 0.95178 0.31676 0.0
O62 O 0.31197 0.98641 0.3267 0.0
O63 O 0.33325 0.9412 0.26851 0.0
C64 C 0.69513 0.93417 0.18528 0.0
C65 C 0.72599 0.89492 0.21021 0.0
H66 H 0.76584 0.82136 0.26582 0.0
H67 H 0.6715 0.78812 0.31994 0.0
H68 H 0.47382 0.03948 0.16041 0.0
H69 H 0.61625 1.0109 0.14505 0.0
H70 H 0.73465 0.95101 0.16205 0.0
H71 H 0.78881 0.88219 0.20581 0.0
Mn72 Mn 0.60574 0.46644 0.15953 0.0
Mn73 Mn 0.57835 0.40319 0.24916 0.0
C74 C 0.51352 0.49587 0.20832 0.0
C75 C 0.56701 0.48147 0.09086 0.0
C76 C 0.72619 0.46975 0.23192 0.0
O77 O 0.66007 0.39854 0.1477 0.0
O78 O 0.62737 0.35766 0.20687 0.0
C79 C 0.44785 0.33378 0.22054 0.0
N80 N 0.47439 0.36949 0.24758 0.0
C81 C 0.34381 0.36965 0.283 0.0
C82 C 0.31526 0.33269 0.25568 0.0
C83 C 0.36749 0.31469 0.2243 0.0
C84 C 0.42457 0.38713 0.27784 0.0
H85 H 0.48748 0.32038 0.19606 0.0
C86 C 0.65979 0.35935 0.17064 0.0
O87 O 0.63911 0.4948 0.10464 0.0
O88 O 0.52077 0.45627 0.1161 0.0
N89 N 0.53128 0.44258 0.29274 0.0
C90 C 0.56632 0.48062 0.31476 0.0
C91 C 0.52139 0.50364 0.3467 0.0
C92 C 0.44117 0.48716 0.35581 0.0
C93 C 0.40687 0.44746 0.33314 0.0
C94 C 0.45502 0.42551 0.30202 0.0
H95 H 0.62779 0.49363 0.30779 0.0
O96 O 0.54242 0.52557 0.18006 0.0
O97 O 0.53834 0.44952 0.20673 0.0
O98 O 0.70373 0.48552 0.19633 0.0
O99 O 0.68553 0.43822 0.2537 0.0
C100 C 0.3261 0.42961 0.33953 0.0
C101 C 0.29449 0.39085 0.31438 0.0
H102 H 0.25293 0.31845 0.25816 0.0
H103 H 0.34563 0.28648 0.20286 0.0
H104 H 0.54828 0.5343 0.36402 0.0
H105 H 0.40625 0.50551 0.38006 0.0
H106 H 0.28724 0.44605 0.36319 0.0
H107 H 0.23176 0.37811 0.31905 0.0
Mn108 Mn 0.90818 0.0744 0.15784 0.0
Mn109 Mn 0.94082 0.139 0.24635 0.0
C110 C 1.00248 0.04535 0.20581 0.0
C111 C 0.94133 0.05734 0.08884 0.0
C112 C 0.79137 0.07301 0.23177 0.0
O113 O 0.85432 0.1424 0.1458 0.0
O114 O 0.88997 0.18414 0.2041 0.0
C115 C 0.07053 0.20785 0.21577 0.0
N116 N 0.04499 0.17235 0.24328 0.0
C117 C 0.17676 0.17259 0.27762 0.0
C118 C 0.20435 0.20924 0.24973 0.0
C119 C 0.15098 0.22703 0.21871 0.0
C120 C 0.09583 0.15509 0.27332 0.0
H121 H 0.03 0.22105 0.19159 0.0
C122 C 0.85615 0.18195 0.1682 0.0
O123 O 0.8701 0.04518 0.1043 0.0
O124 O 0.99039 0.08271 0.11263 0.0
N125 N 0.98951 0.10002 0.28982 0.0
C126 C 0.95526 0.06224 0.31253 0.0
C127 C 1.00134 0.03953 0.34426 0.0
C128 C 0.08189 0.05608 0.35251 0.0
C129 C 0.11539 0.0955 0.32915 0.0
C130 C 0.06616 0.1171 0.29823 0.0
H131 H 0.89354 0.04917 0.30624 0.0
O132 O 0.97155 1.0153 0.1784 0.0
O133 O 0.97844 0.09187 0.2039 0.0
O134 O 0.81197 0.05666 0.19615 0.0
O135 O 0.83348 0.10457 0.2527 0.0
C136 C 0.1964 0.11337 0.33464 0.0
C137 C 0.22716 0.15178 0.3088 0.0
H138 H 0.26677 0.22342 0.25155 0.0
H139 H 0.17205 0.25517 0.19694 0.0
H140 H 0.97509 1.00906 0.3621 0.0
H141 H 0.11768 0.03798 0.37661 0.0
H142 H 0.23608 0.0972 0.35813 0.0
H143 H 0.29007 0.16455 0.3128 0.0
Mn144 Mn 0.91126 0.46636 0.66038 0.0
Mn145 Mn 0.951 0.40226 0.74856 0.0
C146 C 1.0047 0.49733 0.70789 0.0
C147 C 0.94288 0.48414 0.59128 0.0
C148 C 0.79821 0.46615 0.736 0.0
O149 O 0.86123 0.39747 0.6483 0.0
O150 O 0.89756 0.3573 0.70719 0.0
C151 C 0.07988 0.33646 0.71308 0.0
N152 N 0.05582 0.37028 0.74228 0.0
C153 C 0.19235 0.37294 0.77151 0.0
C154 C 0.21846 0.33816 0.7418 0.0
C155 C 0.16199 0.31973 0.71251 0.0
C156 C 0.10987 0.38835 0.77049 0.0
H157 H 0.03703 0.32297 0.69005 0.0
C158 C 0.8634 0.35845 0.67136 0.0
O159 O 0.87112 0.49501 0.6068 0.0
O160 O 0.99333 0.45981 0.61507 0.0
N161 N 1.00288 0.44046 0.79154 0.0
C162 C 0.9685 0.47493 0.81742 0.0
C163 C 0.01694 0.49733 0.84836 0.0
C164 C 0.09992 0.48334 0.8529 0.0
C165 C 0.13316 0.44638 0.82694 0.0
C166 C 0.08149 0.425 0.79696 0.0
H167 H 0.90451 0.48498 0.81465 0.0
O168 O 0.97134 0.52685 0.68077 0.0
O169 O 0.98355 0.45036 0.70591 0.0
O170 O 0.81504 0.48129 0.69944 0.0
O171 O 0.84372 0.43641 0.75719 0.0
C172 C 0.21585 0.43045 0.82922 0.0
C173 C 0.24558 0.39399 0.80132 0.0
H174 H 0.28208 0.32598 0.74088 0.0
H175 H 0.18195 0.29307 0.68932 0.0
H176 H 0.9904 0.52535 0.86861 0.0
H177 H 0.13744 0.50112 0.87646 0.0
H178 H 0.25743 0.44659 0.85185 0.0
H179 H 0.3097 0.38275 0.80281 0.0
Mn180 Mn 0.60757 0.07535 0.65876 0.0
Mn181 Mn 0.57805 0.13959 0.74782 0.0
C182 C 0.51328 0.04725 0.70711 0.0
C183 C 0.57324 0.05835 0.58987 0.0
C184 C 0.72397 0.07095 0.73303 0.0
O185 O 0.66277 0.14281 0.64636 0.0
O186 O 0.63367 0.18326 0.70614 0.0
C187 C 0.45477 0.21172 0.71575 0.0
N188 N 0.47656 0.17572 0.74363 0.0
C189 C 0.34338 0.17951 0.77637 0.0
C190 C 0.31977 0.21684 0.74818 0.0
C191 C 0.37561 0.23293 0.71765 0.0
C192 C 0.42293 0.1596 0.77283 0.0
H193 H 0.49717 0.22369 0.69199 0.0
C194 C 0.66512 0.18152 0.66972 0.0
O195 O 0.64434 0.0457 0.60522 0.0
O196 O 0.52488 0.08414 0.61372 0.0
N197 N 0.52485 0.10232 0.79099 0.0
C198 C 0.55677 0.06546 0.81549 0.0
C199 C 0.5081 0.04444 0.84703 0.0
C200 C 0.42755 0.06209 0.85348 0.0
C201 C 0.39694 0.10117 0.82876 0.0
C202 C 0.44865 0.12093 0.79805 0.0
H203 H 0.61889 0.05227 0.81105 0.0
O204 O 0.54313 1.01683 0.67969 0.0
O205 O 0.53844 0.09351 0.70508 0.0
O206 O 0.70404 0.05688 0.69666 0.0
O207 O 0.68223 0.10183 0.75487 0.0
C208 C 0.31697 0.12106 0.8332 0.0
C209 C 0.29013 0.16013 0.80695 0.0
H210 H 0.2583 0.23255 0.74923 0.0
H211 H 0.35747 0.26129 0.69542 0.0
H212 H 0.5326 1.01467 0.86625 0.0
H213 H 0.38987 0.0455 0.87758 0.0
H214 H 0.27536 0.10627 0.85646 0.0
H215 H 0.2281 0.17465 0.81025 0.0
Mn216 Mn 0.41211 0.57396 0.86368 0.0
Mn217 Mn 0.44966 0.63347 0.77317 0.0
C218 C 0.50626 0.54131 0.81717 0.0
C219 C 0.44398 0.5589 0.93318 0.0
C220 C 0.29707 0.57085 0.789 0.0
O221 O 0.36196 0.64346 0.87352 0.0
O222 O 0.39791 0.68083 0.81325 0.0
C223 C 0.57916 0.70286 0.803 0.0
N224 N 0.55433 0.66617 0.77647 0.0
C225 C 0.68747 0.66421 0.74357 0.0
C226 C 0.71431 0.7021 0.77042 0.0
C227 C 0.66001 0.72145 0.80033 0.0
C228 C 0.60635 0.64705 0.74779 0.0
H229 H 0.5378 0.71744 0.82627 0.0
C230 C 0.36397 0.6814 0.84918 0.0
O231 O 0.37217 0.54759 0.91795 0.0
O232 O 0.49441 0.58242 0.90881 0.0
N233 N 0.49966 0.59217 0.73165 0.0
C234 C 0.46514 0.5544 0.70911 0.0
C235 C 0.51196 0.5303 0.67842 0.0
C236 C 0.59353 0.54554 0.67097 0.0
C237 C 0.62722 0.5851 0.69403 0.0
C238 C 0.57726 0.60806 0.7239 0.0
H239 H 0.40251 0.54257 0.71463 0.0
O240 O 0.47286 0.51278 0.84499 0.0
O241 O 0.48402 0.58816 0.81758 0.0
O242 O 0.31514 0.55695 0.82569 0.0
O243 O 0.34211 0.59948 0.76674 0.0
C244 C 0.70874 0.60225 0.68888 0.0
C245 C 0.73893 0.64169 0.71372 0.0
H246 H 0.7771 0.71572 0.76887 0.0
H247 H 0.68063 0.75033 0.82148 0.0
H248 H 0.48539 0.49989 0.66068 0.0
H249 H 0.62978 0.5265 0.64759 0.0
H250 H 0.74902 0.58498 0.66623 0.0
H251 H 0.80212 0.65403 0.70995 0.0
Mn252 Mn 0.10582 0.9642 0.86361 0.0
Mn253 Mn 0.0794 0.90378 0.77255 0.0
C254 C 0.01328 0.99428 0.81522 0.0
C255 C 0.06685 0.97851 0.93231 0.0
C256 C 0.22373 0.97253 0.78995 0.0
O257 O 0.16013 0.89631 0.87504 0.0
O258 O 0.13734 0.8595 0.81304 0.0
C259 C 0.95976 0.82816 0.80268 0.0
N260 N 0.97945 0.86594 0.77601 0.0
C261 C 0.84553 0.86209 0.74401 0.0
C262 C 0.82386 0.82326 0.77115 0.0
C263 C 0.88119 0.80613 0.80059 0.0
C264 C 0.92452 0.88274 0.74767 0.0
H265 H 1.0034 0.8153 0.82559 0.0
C266 C 0.16614 0.85934 0.85004 0.0
O267 O 0.13904 0.99191 0.9187 0.0
O268 O 0.02072 0.95353 0.90691 0.0
N269 N 0.02431 0.94174 0.73039 0.0
C270 C 0.05475 0.97961 0.7065 0.0
C271 C 1.00477 1.00124 0.67576 0.0
C272 C 0.92444 0.98315 0.66943 0.0
C273 C 0.89547 0.94296 0.69341 0.0
C274 C 0.94845 0.92265 0.72334 0.0
H275 H 0.11671 0.99308 0.71079 0.0
O276 O 0.04265 0.02361 0.84355 0.0
O277 O 0.0382 0.9479 0.81624 0.0
O278 O 0.20427 0.98379 0.82711 0.0
O279 O 0.18164 0.94348 0.76661 0.0
C280 C 0.81595 0.92243 0.68893 0.0
C281 C 0.7909 0.8821 0.7143 0.0
H282 H 0.76278 0.80707 0.77003 0.0
H283 H 0.86463 0.77631 0.82181 0.0
H284 H 0.02808 0.03182 0.65704 0.0
H285 H 0.88575 1.00019 0.64595 0.0
H286 H 0.77337 0.93762 0.66629 0.0
H287 H 0.72926 0.86701 0.71095 0.0
C288 C 0.29768 0.50532 0.25163 0.0
C289 C 0.30137 0.54968 0.27496 0.0
C290 C 0.36768 0.48723 0.23098 0.0
C291 C 0.44348 0.5126 0.23365 0.0
H292 H 0.24 0.48514 0.24861 0.0
H293 H 0.36214 0.45375 0.21217 0.0
S294 S 0.4837 0.63131 0.28961 0.0
N295 N 0.38544 0.61919 0.29874 0.0
N296 N 0.51731 0.58509 0.25999 0.0
C297 C 0.44747 0.55725 0.25649 0.0
C298 C 0.37633 0.57564 0.27744 0.0
C299 C 0.14892 0.05374 0.22759 0.0
C300 C 0.0731 0.02849 0.23074 0.0
C301 C 0.21904 0.03592 0.24833 0.0
C302 C 0.21551 0.99189 0.27218 0.0
H303 H 0.15429 0.08703 0.20849 0.0
H304 H 0.27662 0.05617 0.24514 0.0
S305 S 0.03356 0.91016 0.28758 0.0
N306 N 0.99962 0.95614 0.25772 0.0
N307 N 0.13188 0.92238 0.29653 0.0
C308 C 0.1407 0.9658 0.2749 0.0
C309 C 0.06938 0.98398 0.2539 0.0
C310 C 0.79835 0.53595 0.27191 0.0
C311 C 0.80165 0.49042 0.25015 0.0
C312 C 0.86809 0.55441 0.29257 0.0
C313 C 0.94344 0.5284 0.29123 0.0
H314 H 0.7411 0.5568 0.27372 0.0
H315 H 0.86271 0.58877 0.31026 0.0
S316 S 0.98237 0.40657 0.23976 0.0
N317 N 0.88457 0.41892 0.22955 0.0
N318 N 0.0163 0.45404 0.2679 0.0
C319 C 0.94699 0.48256 0.26998 0.0
C320 C 0.87595 0.46362 0.24923 0.0
C321 C 0.71925 1.00846 0.27368 0.0
C322 C 0.71606 0.05322 0.25079 0.0
C323 C 0.649 0.99027 0.29405 0.0
C324 C 0.57336 1.01582 0.29137 0.0
H325 H 0.7766 0.98784 0.27633 0.0
H326 H 0.65407 0.95635 0.31242 0.0
S327 S 0.53455 0.13568 0.23657 0.0
N328 N 0.63285 0.12349 0.22759 0.0
N329 N 0.50034 0.08906 0.26568 0.0
C330 C 0.56998 0.06103 0.26915 0.0
C331 C 0.64147 0.07962 0.24857 0.0
C332 C 0.57623 0.48097 0.7697 0.0
C333 C 0.57998 0.52366 0.79516 0.0
C334 C 0.64723 0.4628 0.74984 0.0
C335 C 0.72392 0.48616 0.75586 0.0
H336 H 0.51798 0.462 0.76475 0.0
H337 H 0.64233 0.4302 0.72996 0.0
S338 S 0.76813 0.59407 0.82446 0.0
N339 N 0.66769 0.58517 0.82892 0.0
N340 N 0.80058 0.55183 0.79082 0.0
C341 C 0.72875 0.5278 0.78221 0.0
C342 C 0.65682 0.54621 0.80233 0.0
C343 C 0.87481 0.07276 0.74672 0.0
C344 C 0.7981 0.04912 0.75171 0.0
C345 C 0.94526 0.05411 0.76675 0.0
C346 C 0.94097 1.01075 0.79148 0.0
H347 H 0.88 0.10626 0.72784 0.0
H348 H 1.00339 0.07361 0.76291 0.0
S349 S 0.75253 0.93875 0.81753 0.0
N350 N 0.72073 0.98212 0.7846 0.0
N351 N 0.85275 0.94771 0.82301 0.0
C352 C 0.8642 0.98752 0.79728 0.0
C353 C 0.79275 1.00644 0.77695 0.0
C354 C 0.22484 0.50998 0.74385 0.0
C355 C 0.22114 0.55156 0.7704 0.0
C356 C 0.15363 0.49197 0.72436 0.0
C357 C 0.07676 0.51478 0.73122 0.0
H358 H 0.28306 0.49134 0.73807 0.0
H359 H 0.15878 0.46026 0.70353 0.0
S360 S 0.03583 0.6263 0.79633 0.0
N361 N 0.13581 0.61605 0.80169 0.0
N362 N 1.00162 0.58244 0.7645 0.0
C363 C 0.07269 0.55707 0.75694 0.0
C364 C 0.14506 0.5752 0.777 0.0
C365 C 0.37514 0.97184 0.77808 0.0
C366 C 0.29824 0.99498 0.77217 0.0
C367 C 0.44554 0.98966 0.75751 0.0
C368 C 0.44102 0.03171 0.7313 0.0
H369 H 0.38039 0.93909 0.79783 0.0
H370 H 0.50374 0.97044 0.76199 0.0
S371 S 0.2523 0.10212 0.70285 0.0
N372 N 0.22067 0.06027 0.73712 0.0
N373 N 0.35259 0.0931 0.69776 0.0
C374 C 0.36418 0.05457 0.72476 0.0
C375 C 0.29278 0.03647 0.74561 0.0
C376 C 0.08222 0.51301 0.49957 0.0
C377 C 0.03382 0.5447 0.47459 0.0
C378 C 0.05134 0.49272 0.53656 0.0
C379 C 0.97062 0.50316 0.55024 0.0
H380 H 0.14442 0.50329 0.49038 0.0
H381 H 0.09164 0.46885 0.55469 0.0
S382 S 0.81823 0.58416 0.49634 0.0
N383 N 0.90056 0.5857 0.46631 0.0
N384 N 0.84284 0.54759 0.53575 0.0
C385 C 0.9214 0.53481 0.52559 0.0
C386 C 0.95292 0.55561 0.48789 0.0
C387 C 0.4321 0.03065 0.49843 0.0
C388 C 0.47955 0.99832 0.47357 0.0
C389 C 0.4637 0.05077 0.53535 0.0
C390 C 0.54418 0.03953 0.54901 0.0
H391 H 0.37022 0.04102 0.48913 0.0
H392 H 0.42425 0.07514 0.55344 0.0
S393 S 0.69396 0.9565 0.49549 0.0
N394 N 0.61148 0.95572 0.46556 0.0
N395 N 0.67055 0.99359 0.53466 0.0
C396 C 0.59232 1.0072 0.5245 0.0
C397 C 0.56009 0.98655 0.48696 0.0
C398 C 0.58365 0.53043 0.02497 0.0
C399 C 0.53497 0.49915 0.05017 0.0
C400 C 0.55278 0.55064 0.98791 0.0
C401 C 0.47177 0.54058 0.97444 0.0
H402 H 0.64613 0.53975 0.03399 0.0
H403 H 0.59332 0.57403 0.9695 0.0
S404 S 0.31836 0.46112 0.02915 0.0
N405 N 0.40099 0.4592 0.05896 0.0
N406 N 0.34327 0.49723 0.98952 0.0
C407 C 0.42219 0.50952 0.99941 0.0
C408 C 0.45371 0.48877 0.03712 0.0
C409 C 0.08251 0.02796 0.99791 0.0
C410 C 0.03443 0.99619 0.97288 0.0
C411 C 0.05101 0.04852 0.03466 0.0
C412 C 0.97 0.03827 0.048 0.0
H413 H 0.14491 0.0375 0.98894 0.0
H414 H 0.09105 0.07237 0.0529 0.0
S415 S 0.81811 0.95741 0.9937 0.0
N416 N 0.90106 0.95549 0.96415 0.0
N417 N 0.8422 0.9941 0.03304 0.0
C418 C 0.92109 1.0066 0.02326 0.0
C419 C 0.95322 0.98554 0.98585 0.0
C420 C 0.29709 0.72372 0.35824 0.0
C421 C 0.21144 0.72627 0.36435 0.0
C422 C 0.34547 0.76737 0.35708 0.0
C423 C 0.31019 0.81502 0.36321 0.0
H424 H 0.32592 0.68811 0.35131 0.0
H425 H 0.41017 0.76403 0.3492 0.0
S426 S 0.09005 0.84109 0.38545 0.0
N427 N 0.09412 0.77954 0.3796 0.0
N428 N 0.1855 0.86159 0.37948 0.0
C429 C 0.22569 0.81761 0.37281 0.0
C430 C 0.17607 0.7732 0.37279 0.0
C431 C 0.71972 0.22291 0.16086 0.0
C432 C 0.80573 0.22573 0.15609 0.0
C433 C 0.6712 0.26652 0.1623 0.0
C434 C 0.70674 0.31437 0.1577 0.0
H435 H 0.69062 0.18706 0.16681 0.0
H436 H 0.60615 0.26293 0.16932 0.0
S437 S 0.92791 0.34135 0.1392 0.0
N438 N 0.92367 0.27962 0.14364 0.0
N439 N 0.83209 0.36156 0.14423 0.0
C440 C 0.79168 0.31733 0.14933 0.0
C441 C 0.84138 0.27298 0.14912 0.0
C442 C 0.8023 0.22183 0.66436 0.0
C443 C 0.71679 0.22474 0.65772 0.0
C444 C 0.85116 0.26533 0.66549 0.0
C445 C 0.81643 0.31314 0.6592 0.0
H446 H 0.83055 0.18613 0.67196 0.0
H447 H 0.9157 0.26176 0.67363 0.0
S448 S 0.59638 0.34037 0.63767 0.0
N449 N 0.60005 0.27869 0.64272 0.0
N450 N 0.69208 0.36038 0.6436 0.0
C451 C 0.73197 0.31613 0.64963 0.0
C452 C 0.68199 0.27191 0.64932 0.0
C453 C 0.35144 0.77473 0.84938 0.0
C454 C 0.31826 0.7277 0.86023 0.0
C455 C 0.30293 0.81831 0.85003 0.0
C456 C 0.21921 0.81641 0.86106 0.0
H457 H 0.41427 0.77746 0.83821 0.0
H458 H 0.32966 0.85319 0.83913 0.0
S459 S 0.10322 0.70351 0.89389 0.0
N460 N 0.19734 0.68256 0.88465 0.0
N461 N 0.1058 0.76453 0.88479 0.0
C462 C 0.18612 0.7703 0.8739 0.0
C463 C 0.23588 0.72592 0.87391 0.0
loop_
_geom_bond_atom_site_label_1
_geom_bond_atom_site_label_2
_geom_bond_distance
_geom_bond_site_symmetry_2
_ccdc_geom_bond_type
Mn0 O5 2.095 . S
Mn0 O15 2.162 . S
Mn0 O16 2.297 . S
Mn0 O24 2.385 . S
Mn0 O25 2.209 . S
Mn0 O26 2.094 . S
Mn1 O6 2.121 . S
Mn1 N8 2.257 . S
Mn1 N17 2.282 . S
Mn1 O25 2.215 . S
Mn1 O27 2.117 . S
C2 O24 1.234 . S
C2 O25 1.283 . S
C3 O15 1.281 . S
C3 O16 1.236 . S
C4 O26 1.240 . S
C4 O27 1.264 . S
O5 Mn0 2.095 . S
O5 C14 1.250 . S
O6 Mn1 2.121 . S
O6 C14 1.258 . S
C7 N8 1.326 . S
C7 C11 1.460 1_455 S
C7 H13 0.929 . S
N8 Mn1 2.257 . S
N8 C7 1.326 . S
N8 C12 1.362 . S
C9 C10 1.258 . S
C9 C12 1.431 1_655 S
C9 C29 1.449 . S
C10 C9 1.258 . S
C10 C11 1.477 . S
C10 H30 0.931 . S
C11 C7 1.460 1_655 S
C11 C10 1.477 . S
C11 H31 0.930 . S
C12 N8 1.362 . S
C12 C9 1.431 1_455 S
C12 C22 1.476 . S
H13 C7 0.929 . S
C14 O5 1.250 . S
C14 O6 1.258 . S
O15 Mn0 2.162 . S
O15 C3 1.281 . S
O16 Mn0 2.297 . S
O16 C3 1.236 . S
N17 Mn1 2.282 . S
N17 C18 1.328 . S
N17 C22 1.318 . S
C18 N17 1.328 . S
C18 C19 1.457 . S
C18 H23 0.929 . S
C19 C18 1.457 . S
C19 C20 1.291 . S
C19 H32 0.931 . S
C20 C19 1.291 . S
C20 C21 1.373 . S
C20 H33 0.929 . S
C21 C20 1.373 . S
C21 C22 1.396 . S
C21 C28 1.403 1_455 S
C22 C12 1.476 . S
C22 N17 1.318 . S
C22 C21 1.396 . S
H23 C18 0.929 . S
O24 Mn0 2.385 . S
O24 C2 1.234 . S
O25 Mn0 2.209 . S
O25 Mn1 2.215 . S
O25 C2 1.283 . S
O26 Mn0 2.094 . S
O26 C4 1.240 . S
O27 Mn1 2.117 . S
O27 C4 1.264 . S
C28 C21 1.403 1_655 S
C28 C29 1.399 . S
C28 H34 0.929 . S
C29 C9 1.449 . S
C29 C28 1.399 . S
C29 H35 0.930 . S
H30 C10 0.931 . S
H31 C11 0.930 . S
H32 C19 0.931 . S
H33 C20 0.929 . S
H34 C28 0.929 . S
H35 C29 0.930 . S
Mn36 O41 2.095 . S
Mn36 O51 2.162 . S
Mn36 O52 2.297 . S
Mn36 O60 2.385 1_565 S
Mn36 O61 2.209 . S
Mn36 O62 2.094 . S
Mn37 O42 2.121 . S
Mn37 N44 2.257 . S
Mn37 N53 2.282 . S
Mn37 O61 2.215 . S
Mn37 O63 2.117 . S
C38 O60 1.234 1_565 S
C38 O61 1.283 . S
C39 O51 1.281 . S
C39 O52 1.236 . S
C40 O62 1.240 . S
C40 O63 1.264 . S
O41 Mn36 2.095 . S
O41 C50 1.250 . S
O42 Mn37 2.121 . S
O42 C50 1.258 . S
C43 N44 1.326 . S
C43 C47 1.460 . S
C43 H49 0.929 . S
N44 Mn37 2.257 . S
N44 C43 1.326 . S
N44 C48 1.362 . S
C45 C46 1.258 . S
C45 C48 1.431 . S
C45 C65 1.449 . S
C46 C45 1.258 . S
C46 C47 1.477 . S
C46 H66 0.931 . S
C47 C43 1.460 . S
C47 C46 1.477 . S
C47 H67 0.930 . S
C48 N44 1.362 . S
C48 C45 1.431 . S
C48 C58 1.476 . S
H49 C43 0.929 . S
C50 O41 1.250 . S
C50 O42 1.258 . S
O51 Mn36 2.162 . S
O51 C39 1.281 . S
O52 Mn36 2.297 . S
O52 C39 1.236 . S
N53 Mn37 2.282 . S
N53 C54 1.328 . S
N53 C58 1.318 . S
C54 N53 1.328 . S
C54 C55 1.457 1_565 S
C54 H59 0.923 1_565 S
C55 C54 1.457 1_545 S
C55 C56 1.291 1_545 S
C55 H68 0.931 . S
C56 C55 1.291 1_565 S
C56 C57 1.373 . S
C56 H69 0.929 1_565 S
C57 C56 1.373 . S
C57 C58 1.396 . S
C57 C64 1.403 . S
C58 C48 1.476 . S
C58 N53 1.318 . S
C58 C57 1.396 . S
H59 C54 0.923 1_545 S
O60 Mn36 2.385 1_545 S
O60 C38 1.234 1_545 S
O61 Mn36 2.209 . S
O61 Mn37 2.215 . S
O61 C38 1.283 . S
O62 Mn36 2.094 . S
O62 C40 1.240 . S
O63 Mn37 2.117 . S
O63 C40 1.264 . S
C64 C57 1.403 . S
C64 C65 1.399 . S
C64 H70 0.929 . S
C65 C45 1.449 . S
C65 C64 1.399 . S
C65 H71 0.930 . S
H66 C46 0.931 . S
H67 C47 0.930 . S
H68 C55 0.931 . S
H69 C56 0.929 1_545 S
H70 C64 0.929 . S
H71 C65 0.930 . S
Mn72 O77 2.095 . S
Mn72 O87 2.162 . S
Mn72 O88 2.297 . S
Mn72 O96 2.385 . S
Mn72 O97 2.209 . S
Mn72 O98 2.094 . S
Mn73 O78 2.121 . S
Mn73 N80 2.257 . S
Mn73 N89 2.282 . S
Mn73 O97 2.215 . S
Mn73 O99 2.117 . S
C74 O96 1.234 . S
C74 O97 1.283 . S
C75 O87 1.281 . S
C75 O88 1.236 . S
C76 O98 1.240 . S
C76 O99 1.264 . S
O77 Mn72 2.095 . S
O77 C86 1.250 . S
O78 Mn73 2.121 . S
O78 C86 1.258 . S
C79 N80 1.326 . S
C79 C83 1.460 . S
C79 H85 0.929 . S
N80 Mn73 2.257 . S
N80 C79 1.326 . S
N80 C84 1.362 . S
C81 C82 1.258 . S
C81 C84 1.431 . S
C81 C101 1.449 . S
C82 C81 1.258 . S
C82 C83 1.477 . S
C82 H102 0.931 . S
C83 C79 1.460 . S
C83 C82 1.477 . S
C83 H103 0.930 . S
C84 N80 1.362 . S
C84 C81 1.431 . S
C84 C94 1.476 . S
H85 C79 0.929 . S
C86 O77 1.250 . S
C86 O78 1.258 . S
O87 Mn72 2.162 . S
O87 C75 1.281 . S
O88 Mn72 2.297 . S
O88 C75 1.236 . S
N89 Mn73 2.282 . S
N89 C90 1.328 . S
N89 C94 1.318 . S
C90 N89 1.328 . S
C90 C91 1.457 . S
C90 H95 0.929 . S
C91 C90 1.457 . S
C91 C92 1.291 . S
C91 H104 0.931 . S
C92 C91 1.291 . S
C92 C93 1.373 . S
C92 H105 0.929 . S
C93 C92 1.373 . S
C93 C94 1.396 . S
C93 C100 1.403 . S
C94 C84 1.476 . S
C94 N89 1.318 . S
C94 C93 1.396 . S
H95 C90 0.929 . S
O96 Mn72 2.385 . S
O96 C74 1.234 . S
O97 Mn72 2.209 . S
O97 Mn73 2.215 . S
O97 C74 1.283 . S
O98 Mn72 2.094 . S
O98 C76 1.240 . S
O99 Mn73 2.117 . S
O99 C76 1.264 . S
C100 C93 1.403 . S
C100 C101 1.399 . S
C100 H106 0.929 . S
C101 C81 1.449 . S
C101 C100 1.399 . S
C101 H107 0.930 . S
H102 C82 0.931 . S
H103 C83 0.930 . S
H104 C91 0.931 . S
H105 C92 0.929 . S
H106 C100 0.929 . S
H107 C101 0.930 . S
Mn108 O113 2.095 . S
Mn108 O123 2.162 . S
Mn108 O124 2.297 . S
Mn108 O132 2.385 1_545 S
Mn108 O133 2.209 . S
Mn108 O134 2.094 . S
Mn109 O114 2.121 . S
Mn109 N116 2.257 . S
Mn109 N125 2.282 . S
Mn109 O133 2.215 . S
Mn109 O135 2.117 . S
C110 O132 1.234 1_545 S
C110 O133 1.283 . S
C111 O123 1.281 . S
C111 O124 1.236 . S
C112 O134 1.240 . S
C112 O135 1.264 . S
O113 Mn108 2.095 . S
O113 C122 1.250 . S
O114 Mn109 2.121 . S
O114 C122 1.258 . S
C115 N116 1.326 . S
C115 C119 1.460 1_655 S
C115 H121 0.929 . S
N116 Mn109 2.257 . S
N116 C115 1.326 . S
N116 C120 1.362 . S
C117 C118 1.258 . S
C117 C120 1.431 1_455 S
C117 C137 1.449 . S
C118 C117 1.258 . S
C118 C119 1.477 . S
C118 H138 0.931 . S
C119 C115 1.460 1_455 S
C119 C118 1.477 . S
C119 H139 0.930 . S
C120 N116 1.362 . S
C120 C117 1.431 1_655 S
C120 C130 1.476 . S
H121 C115 0.929 . S
C122 O113 1.250 . S
C122 O114 1.258 . S
O123 Mn108 2.162 . S
O123 C111 1.281 . S
O124 Mn108 2.297 . S
O124 C111 1.236 . S
N125 Mn109 2.282 . S
N125 C126 1.328 . S
N125 C130 1.318 . S
C126 N125 1.328 . S
C126 C127 1.457 1_545 S
C126 H131 0.923 1_545 S
C127 C126 1.457 1_565 S
C127 C128 1.291 1_565 S
C127 H140 0.931 . S
C128 C127 1.291 1_545 S
C128 C129 1.373 . S
C128 H141 0.929 1_545 S
C129 C128 1.373 . S
C129 C130 1.396 . S
C129 C136 1.403 1_655 S
C130 C120 1.476 . S
C130 N125 1.318 . S
C130 C129 1.396 . S
H131 C126 0.923 1_565 S
O132 Mn108 2.385 1_565 S
O132 C110 1.234 1_565 S
O133 Mn108 2.209 . S
O133 Mn109 2.215 . S
O133 C110 1.283 . S
O134 Mn108 2.094 . S
O134 C112 1.240 . S
O135 Mn109 2.117 . S
O135 C112 1.264 . S
C136 C129 1.403 1_455 S
C136 C137 1.399 . S
C136 H142 0.929 . S
C137 C117 1.449 . S
C137 C136 1.399 . S
C137 H143 0.930 . S
H138 C118 0.931 . S
H139 C119 0.930 . S
H140 C127 0.931 . S
H141 C128 0.929 1_565 S
H142 C136 0.929 . S
H143 C137 0.930 . S
Mn144 O149 2.095 . S
Mn144 O159 2.162 . S
Mn144 O160 2.297 . S
Mn144 O168 2.385 . S
Mn144 O169 2.209 . S
Mn144 O170 2.094 . S
Mn145 O150 2.121 . S
Mn145 N152 2.257 . S
Mn145 N161 2.282 . S
Mn145 O169 2.215 . S
Mn145 O171 2.117 . S
C146 O168 1.234 . S
C146 O169 1.283 . S
C147 O159 1.281 . S
C147 O160 1.236 . S
C148 O170 1.240 . S
C148 O171 1.264 . S
O149 Mn144 2.095 . S
O149 C158 1.250 . S
O150 Mn145 2.121 . S
O150 C158 1.258 . S
C151 N152 1.326 . S
C151 C155 1.460 1_655 S
C151 H157 0.929 . S
N152 Mn145 2.257 . S
N152 C151 1.326 . S
N152 C156 1.362 . S
C153 C154 1.258 . S
C153 C156 1.431 1_455 S
C153 C173 1.449 . S
C154 C153 1.258 . S
C154 C155 1.477 . S
C154 H174 0.931 . S
C155 C151 1.460 1_455 S
C155 C154 1.477 . S
C155 H175 0.930 . S
C156 N152 1.362 . S
C156 C153 1.431 1_655 S
C156 C166 1.476 . S
H157 C151 0.929 . S
C158 O149 1.250 . S
C158 O150 1.258 . S
O159 Mn144 2.162 . S
O159 C147 1.281 . S
O160 Mn144 2.297 . S
O160 C147 1.236 . S
N161 Mn145 2.282 . S
N161 C162 1.328 . S
N161 C166 1.318 . S
C162 N161 1.328 . S
C162 C163 1.457 . S
C162 H167 0.929 . S
C163 C162 1.457 . S
C163 C164 1.291 . S
C163 H176 0.931 . S
C164 C163 1.291 . S
C164 C165 1.373 . S
C164 H177 0.929 . S
C165 C164 1.373 . S
C165 C166 1.396 . S
C165 C172 1.403 1_655 S
C166 C156 1.476 . S
C166 N161 1.318 . S
C166 C165 1.396 . S
H167 C162 0.929 . S
O168 Mn144 2.385 . S
O168 C146 1.234 . S
O169 Mn144 2.209 . S
O169 Mn145 2.215 . S
O169 C146 1.283 . S
O170 Mn144 2.094 . S
O170 C148 1.240 . S
O171 Mn145 2.117 . S
O171 C148 1.264 . S
C172 C165 1.403 1_455 S
C172 C173 1.399 . S
C172 H178 0.929 . S
C173 C153 1.449 . S
C173 C172 1.399 . S
C173 H179 0.930 . S
H174 C154 0.931 . S
H175 C155 0.930 . S
H176 C163 0.931 . S
H177 C164 0.929 . S
H178 C172 0.929 . S
H179 C173 0.930 . S
Mn180 O185 2.095 . S
Mn180 O195 2.162 . S
Mn180 O196 2.297 . S
Mn180 O204 2.385 1_545 S
Mn180 O205 2.209 . S
Mn180 O206 2.094 . S
Mn181 O186 2.121 . S
Mn181 N188 2.257 . S
Mn181 N197 2.282 . S
Mn181 O205 2.215 . S
Mn181 O207 2.117 . S
C182 O204 1.234 1_545 S
C182 O205 1.283 . S
C183 O195 1.281 . S
C183 O196 1.236 . S
C184 O206 1.240 . S
C184 O207 1.264 . S
O185 Mn180 2.095 . S
O185 C194 1.250 . S
O186 Mn181 2.121 . S
O186 C194 1.258 . S
C187 N188 1.326 . S
C187 C191 1.460 . S
C187 H193 0.929 . S
N188 Mn181 2.257 . S
N188 C187 1.326 . S
N188 C192 1.362 . S
C189 C190 1.258 . S
C189 C192 1.431 . S
C189 C209 1.449 . S
C190 C189 1.258 . S
C190 C191 1.477 . S
C190 H210 0.931 . S
C191 C187 1.460 . S
C191 C190 1.477 . S
C191 H211 0.930 . S
C192 N188 1.362 . S
C192 C189 1.431 . S
C192 C202 1.476 . S
H193 C187 0.929 . S
C194 O185 1.250 . S
C194 O186 1.258 . S
O195 Mn180 2.162 . S
O195 C183 1.281 . S
O196 Mn180 2.297 . S
O196 C183 1.236 . S
N197 Mn181 2.282 . S
N197 C198 1.328 . S
N197 C202 1.318 . S
C198 N197 1.328 . S
C198 C199 1.457 1_545 S
C198 H203 0.923 1_545 S
C199 C198 1.457 1_565 S
C199 C200 1.291 1_565 S
C199 H212 0.931 . S
C200 C199 1.291 1_545 S
C200 C201 1.373 . S
C200 H213 0.929 1_545 S
C201 C200 1.373 . S
C201 C202 1.396 . S
C201 C208 1.403 . S
C202 C192 1.476 . S
C202 N197 1.318 . S
C202 C201 1.396 . S
H203 C198 0.923 1_565 S
O204 Mn180 2.385 1_565 S
O204 C182 1.234 1_565 S
O205 Mn180 2.209 . S
O205 Mn181 2.215 . S
O205 C182 1.283 . S
O206 Mn180 2.094 . S
O206 C184 1.240 . S
O207 Mn181 2.117 . S
O207 C184 1.264 . S
C208 C201 1.403 . S
C208 C209 1.399 . S
C208 H214 0.929 . S
C209 C189 1.449 . S
C209 C208 1.399 . S
C209 H215 0.930 . S
H210 C190 0.931 . S
H211 C191 0.930 . S
H212 C199 0.931 . S
H213 C200 0.929 1_565 S
H214 C208 0.929 . S
H215 C209 0.930 . S
Mn216 O221 2.095 . S
Mn216 O231 2.162 . S
Mn216 O232 2.297 . S
Mn216 O240 2.385 . S
Mn216 O241 2.209 . S
Mn216 O242 2.094 . S
Mn217 O222 2.121 . S
Mn217 N224 2.257 . S
Mn217 N233 2.282 . S
Mn217 O241 2.215 . S
Mn217 O243 2.117 . S
C218 O240 1.234 . S
C218 O241 1.283 . S
C219 O231 1.281 . S
C219 O232 1.236 . S
C220 O242 1.240 . S
C220 O243 1.264 . S
O221 Mn216 2.095 . S
O221 C230 1.250 . S
O222 Mn217 2.121 . S
O222 C230 1.258 . S
C223 N224 1.326 . S
C223 C227 1.460 . S
C223 H229 0.929 . S
N224 Mn217 2.257 . S
N224 C223 1.326 . S
N224 C228 1.362 . S
C225 C226 1.258 . S
C225 C228 1.431 . S
C225 C245 1.449 . S
C226 C225 1.258 . S
C226 C227 1.477 . S
C226 H246 0.931 . S
C227 C223 1.460 . S
C227 C226 1.477 . S
C227 H247 0.930 . S
C228 N224 1.362 . S
C228 C225 1.431 . S
C228 C238 1.476 . S
H229 C223 0.929 . S
C230 O221 1.250 . S
C230 O222 1.258 . S
O231 Mn216 2.162 . S
O231 C219 1.281 . S
O232 Mn216 2.297 . S
O232 C219 1.236 . S
N233 Mn217 2.282 . S
N233 C234 1.328 . S
N233 C238 1.318 . S
C234 N233 1.328 . S
C234 C235 1.457 . S
C234 H239 0.929 . S
C235 C234 1.457 . S
C235 C236 1.291 . S
C235 H248 0.931 . S
C236 C235 1.291 . S
C236 C237 1.373 . S
C236 H249 0.929 . S
C237 C236 1.373 . S
C237 C238 1.396 . S
C237 C244 1.403 . S
C238 C228 1.476 . S
C238 N233 1.318 . S
C238 C237 1.396 . S
H239 C234 0.929 . S
O240 Mn216 2.385 . S
O240 C218 1.234 . S
O241 Mn216 2.209 . S
O241 Mn217 2.215 . S
O241 C218 1.283 . S
O242 Mn216 2.094 . S
O242 C220 1.240 . S
O243 Mn217 2.117 . S
O243 C220 1.264 . S
C244 C237 1.403 . S
C244 C245 1.399 . S
C244 H250 0.929 . S
C245 C225 1.449 . S
C245 C244 1.399 . S
C245 H251 0.930 . S
H246 C226 0.931 . S
H247 C227 0.930 . S
H248 C235 0.931 . S
H249 C236 0.929 . S
H250 C244 0.929 . S
H251 C245 0.930 . S
Mn252 O257 2.095 . S
Mn252 O267 2.162 . S
Mn252 O268 2.297 . S
Mn252 O276 2.385 1_565 S
Mn252 O277 2.209 . S
Mn252 O278 2.094 . S
Mn253 O258 2.121 . S
Mn253 N260 2.257 . S
Mn253 N269 2.282 . S
Mn253 O277 2.215 . S
Mn253 O279 2.117 . S
C254 O276 1.234 1_565 S
C254 O277 1.283 . S
C255 O267 1.281 . S
C255 O268 1.236 . S
C256 O278 1.240 . S
C256 O279 1.264 . S
O257 Mn252 2.095 . S
O257 C266 1.250 . S
O258 Mn253 2.121 . S
O258 C266 1.258 . S
C259 N260 1.326 . S
C259 C263 1.460 1_455 S
C259 H265 0.929 . S
N260 Mn253 2.257 . S
N260 C259 1.326 . S
N260 C264 1.362 . S
C261 C262 1.258 . S
C261 C264 1.431 1_655 S
C261 C281 1.449 . S
C262 C261 1.258 . S
C262 C263 1.477 . S
C262 H282 0.931 . S
C263 C259 1.460 1_655 S
C263 C262 1.477 . S
C263 H283 0.930 . S
C264 N260 1.362 . S
C264 C261 1.431 1_455 S
C264 C274 1.476 . S
H265 C259 0.929 . S
C266 O257 1.250 . S
C266 O258 1.258 . S
O267 Mn252 2.162 . S
O267 C255 1.281 . S
O268 Mn252 2.297 . S
O268 C255 1.236 . S
N269 Mn253 2.282 . S
N269 C270 1.328 . S
N269 C274 1.318 . S
C270 N269 1.328 . S
C270 C271 1.457 1_565 S
C270 H275 0.923 1_565 S
C271 C270 1.457 1_545 S
C271 C272 1.291 1_545 S
C271 H284 0.931 . S
C272 C271 1.291 1_565 S
C272 C273 1.373 . S
C272 H285 0.929 1_565 S
C273 C272 1.373 . S
C273 C274 1.396 . S
C273 C280 1.403 1_455 S
C274 C264 1.476 . S
C274 N269 1.318 . S
C274 C273 1.396 . S
H275 C270 0.923 1_545 S
O276 Mn252 2.385 1_545 S
O276 C254 1.234 1_545 S
O277 Mn252 2.209 . S
O277 Mn253 2.215 . S
O277 C254 1.283 . S
O278 Mn252 2.094 . S
O278 C256 1.240 . S
O279 Mn253 2.117 . S
O279 C256 1.264 . S
C280 C273 1.403 1_655 S
C280 C281 1.399 . S
C280 H286 0.929 . S
C281 C261 1.449 . S
C281 C280 1.399 . S
C281 H287 0.930 . S
H282 C262 0.931 . S
H283 C263 0.930 . S
H284 C271 0.931 . S
H285 C272 0.929 1_545 S
H286 C280 0.929 . S
H287 C281 0.930 . S
C288 C289 1.369 . S
C288 C290 1.419 . S
C288 H292 0.930 . S
C289 C288 1.369 . S
C289 C298 1.429 . S
C290 C288 1.419 . S
C290 C291 1.363 . S
C290 H293 0.929 . S
C291 C290 1.363 . S
C291 C297 1.428 . S
H292 C288 0.930 . S
H293 C290 0.929 . S
S294 N295 1.613 . S
S294 N296 1.610 . S
N295 S294 1.613 . S
N295 C298 1.350 . S
N296 S294 1.610 . S
N296 C297 1.351 . S
C297 C291 1.428 . S
C297 N296 1.351 . S
C297 C298 1.434 . S
C298 C289 1.429 . S
C298 N295 1.350 . S
C298 C297 1.434 . S
C299 C300 1.369 . S
C299 C301 1.419 . S
C299 H303 0.930 . S
C300 C299 1.369 . S
C300 C309 1.429 1_545 S
C301 C299 1.419 . S
C301 C302 1.363 1_545 S
C301 H304 0.929 . S
C302 C301 1.363 1_565 S
C302 C308 1.428 . S
H303 C299 0.930 . S
H304 C301 0.929 . S
S305 N306 1.613 . S
S305 N307 1.610 . S
N306 S305 1.613 . S
N306 C309 1.350 . S
N307 S305 1.610 . S
N307 C308 1.351 . S
C308 C302 1.428 . S
C308 N307 1.351 . S
C308 C309 1.434 . S
C309 C300 1.429 1_565 S
C309 N306 1.350 . S
C309 C308 1.434 . S
C310 C311 1.369 . S
C310 C312 1.419 . S
C310 H314 0.930 . S
C311 C310 1.369 . S
C311 C320 1.429 . S
C312 C310 1.419 . S
C312 C313 1.363 . S
C312 H315 0.929 . S
C313 C312 1.363 . S
C313 C319 1.428 . S
H314 C310 0.930 . S
H315 C312 0.929 . S
S316 N317 1.613 . S
S316 N318 1.610 . S
N317 S316 1.613 . S
N317 C320 1.350 . S
N318 S316 1.610 . S
N318 C319 1.351 . S
C319 C313 1.428 . S
C319 N318 1.351 . S
C319 C320 1.434 . S
C320 C311 1.429 . S
C320 N317 1.350 . S
C320 C319 1.434 . S
C321 C322 1.369 1_565 S
C321 C323 1.419 . S
C321 H325 0.930 . S
C322 C321 1.369 1_545 S
C322 C331 1.429 . S
C323 C321 1.419 . S
C323 C324 1.363 . S
C323 H326 0.929 . S
C324 C323 1.363 . S
C324 C330 1.428 . S
H325 C321 0.930 . S
H326 C323 0.929 . S
S327 N328 1.613 . S
S327 N329 1.610 1_545 S
N328 S327 1.613 . S
N328 C331 1.350 . S
N329 S327 1.610 1_565 S
N329 C330 1.351 . S
C330 C324 1.428 . S
C330 N329 1.351 . S
C330 C331 1.434 1_565 S
C331 C322 1.429 . S
C331 N328 1.350 . S
C331 C330 1.434 1_545 S
C332 C333 1.369 . S
C332 C334 1.419 . S
C332 H336 0.930 . S
C333 C332 1.369 . S
C333 C342 1.429 . S
C334 C332 1.419 . S
C334 C335 1.363 . S
C334 H337 0.929 . S
C335 C334 1.363 . S
C335 C341 1.428 . S
H336 C332 0.930 . S
H337 C334 0.929 . S
S338 N339 1.613 . S
S338 N340 1.610 . S
N339 S338 1.613 . S
N339 C342 1.350 . S
N340 S338 1.610 . S
N340 C341 1.351 . S
C341 C335 1.428 . S
C341 N340 1.351 . S
C341 C342 1.434 . S
C342 C333 1.429 . S
C342 N339 1.350 . S
C342 C341 1.434 . S
C343 C344 1.369 1_565 S
C343 C345 1.419 . S
C343 H347 0.930 . S
C344 C343 1.369 1_545 S
C344 C353 1.429 . S
C345 C343 1.419 . S
C345 C346 1.363 . S
C345 H348 0.929 1_655 S
C346 C345 1.363 . S
C346 C352 1.418 1_565 S
H347 C343 0.930 . S
H348 C345 0.929 1_455 S
S349 N350 1.613 . S
S349 N351 1.610 . S
N350 S349 1.613 . S
N350 C353 1.350 . S
N351 S349 1.610 . S
N351 C352 1.357 . S
C352 C346 1.418 1_545 S
C352 N351 1.357 . S
C352 C353 1.441 . S
C353 C344 1.429 . S
C353 N350 1.350 . S
C353 C352 1.441 . S
C354 C355 1.369 . S
C354 C356 1.419 . S
C354 H358 0.930 . S
C355 C354 1.369 . S
C355 C364 1.429 . S
C356 C354 1.419 . S
C356 C357 1.363 . S
C356 H359 0.929 . S
C357 C356 1.363 . S
C357 C363 1.428 . S
H358 C354 0.930 . S
H359 C356 0.929 . S
S360 N361 1.613 1_655 S
S360 N362 1.610 . S
N361 S360 1.613 1_455 S
N361 C364 1.350 . S
N362 S360 1.610 . S
N362 C363 1.351 1_655 S
C363 C357 1.428 . S
C363 N362 1.351 1_455 S
C363 C364 1.434 . S
C364 C355 1.429 . S
C364 N361 1.350 . S
C364 C363 1.434 . S
C365 C366 1.369 . S
C365 C367 1.419 . S
C365 H369 0.930 . S
C366 C365 1.369 . S
C366 C375 1.429 1_565 S
C367 C365 1.419 . S
C367 C368 1.363 1_565 S
C367 H370 0.929 . S
C368 C367 1.363 1_545 S
C368 C374 1.428 . S
H369 C365 0.930 . S
H370 C367 0.929 . S
S371 N372 1.613 . S
S371 N373 1.610 . S
N372 S371 1.613 . S
N372 C375 1.350 . S
N373 S371 1.610 . S
N373 C374 1.351 . S
C374 C368 1.428 . S
C374 N373 1.351 . S
C374 C375 1.434 . S
C375 C366 1.429 1_545 S
C375 N372 1.350 . S
C375 C374 1.434 . S
C376 C377 1.369 . S
C376 C378 1.419 . S
C376 H380 0.930 . S
C377 C376 1.369 . S
C377 C386 1.429 1_455 S
C378 C376 1.419 . S
C378 C379 1.363 1_455 S
C378 H381 0.929 . S
C379 C378 1.363 1_655 S
C379 C385 1.428 . S
H380 C376 0.930 . S
H381 C378 0.929 . S
S382 N383 1.613 . S
S382 N384 1.610 . S
N383 S382 1.613 . S
N383 C386 1.350 . S
N384 S382 1.610 . S
N384 C385 1.351 . S
C385 C379 1.428 . S
C385 N384 1.351 . S
C385 C386 1.434 . S
C386 C377 1.429 1_655 S
C386 N383 1.350 . S
C386 C385 1.434 . S
C387 C388 1.369 1_545 S
C387 C389 1.419 . S
C387 H391 0.930 . S
C388 C387 1.369 1_565 S
C388 C397 1.429 . S
C389 C387 1.419 . S
C389 C390 1.363 . S
C389 H392 0.929 . S
C390 C389 1.363 . S
C390 C396 1.428 1_545 S
H391 C387 0.930 . S
H392 C389 0.929 . S
S393 N394 1.613 . S
S393 N395 1.610 . S
N394 S393 1.613 . S
N394 C397 1.350 . S
N395 S393 1.610 . S
N395 C396 1.351 . S
C396 C390 1.428 1_565 S
C396 N395 1.351 . S
C396 C397 1.434 . S
C397 C388 1.429 . S
C397 N394 1.350 . S
C397 C396 1.434 . S
C398 C399 1.369 . S
C398 C400 1.419 1_554 S
C398 H402 0.930 . S
C399 C398 1.369 . S
C399 C408 1.429 . S
C400 C398 1.419 1_556 S
C400 C401 1.363 . S
C400 H403 0.929 . S
C401 C400 1.363 . S
C401 C407 1.428 . S
H402 C398 0.930 . S
H403 C400 0.929 . S
S404 N405 1.613 1_556 S
S404 N406 1.610 . S
N405 S404 1.613 1_554 S
N405 C408 1.350 . S
N406 S404 1.610 . S
N406 C407 1.351 . S
C407 C401 1.428 . S
C407 N406 1.351 . S
C407 C408 1.434 1_556 S
C408 C399 1.429 . S
C408 N405 1.350 . S
C408 C407 1.434 1_554 S
C409 C410 1.369 1_545 S
C409 C411 1.419 1_556 S
C409 H413 0.930 . S
C410 C409 1.369 1_565 S
C410 C419 1.429 1_455 S
C411 C409 1.419 1_554 S
C411 C412 1.363 1_455 S
C411 H414 0.929 . S
C412 C411 1.363 1_655 S
C412 C418 1.428 1_545 S
H413 C409 0.930 . S
H414 C411 0.929 . S
S415 N416 1.613 . S
S415 N417 1.610 1_556 S
N416 S415 1.613 . S
N416 C419 1.350 . S
N417 S415 1.610 1_554 S
N417 C418 1.351 . S
C418 C412 1.428 1_565 S
C418 N417 1.351 . S
C418 C419 1.434 1_554 S
C419 C410 1.429 1_655 S
C419 N416 1.350 . S
C419 C418 1.434 1_556 S
C420 C421 1.369 . S
C420 C422 1.419 . S
C420 H424 0.930 . S
C421 C420 1.369 . S
C421 C430 1.429 . S
C422 C420 1.419 . S
C422 C423 1.363 . S
C422 H425 0.929 . S
C423 C422 1.363 . S
C423 C429 1.428 . S
H424 C420 0.930 . S
H425 C422 0.929 . S
S426 N427 1.613 . S
S426 N428 1.610 . S
N427 S426 1.613 . S
N427 C430 1.350 . S
N428 S426 1.610 . S
N428 C429 1.351 . S
C429 C423 1.428 . S
C429 N428 1.351 . S
C429 C430 1.434 . S
C430 C421 1.429 . S
C430 N427 1.350 . S
C430 C429 1.434 . S
C431 C432 1.369 . S
C431 C433 1.419 . S
C431 H435 0.930 . S
C432 C431 1.369 . S
C432 C441 1.429 . S
C433 C431 1.419 . S
C433 C434 1.363 . S
C433 H436 0.929 . S
C434 C433 1.363 . S
C434 C440 1.428 . S
H435 C431 0.930 . S
H436 C433 0.929 . S
S437 N438 1.613 . S
S437 N439 1.610 . S
N438 S437 1.613 . S
N438 C441 1.350 . S
N439 S437 1.610 . S
N439 C440 1.351 . S
C440 C434 1.428 . S
C440 N439 1.351 . S
C440 C441 1.434 . S
C441 C432 1.429 . S
C441 N438 1.350 . S
C441 C440 1.434 . S
C442 C443 1.369 . S
C442 C444 1.419 . S
C442 H446 0.930 . S
C443 C442 1.369 . S
C443 C452 1.429 . S
C444 C442 1.419 . S
C444 C445 1.363 . S
C444 H447 0.929 . S
C445 C444 1.363 . S
C445 C451 1.428 . S
H446 C442 0.930 . S
H447 C444 0.929 . S
S448 N449 1.613 . S
S448 N450 1.610 . S
N449 S448 1.613 . S
N449 C452 1.350 . S
N450 S448 1.610 . S
N450 C451 1.351 . S
C451 C445 1.428 . S
C451 N450 1.351 . S
C451 C452 1.434 . S
C452 C443 1.429 . S
C452 N449 1.350 . S
C452 C451 1.434 . S
C453 C454 1.369 . S
C453 C455 1.419 . S
C453 H457 0.930 . S
C454 C453 1.369 . S
C454 C463 1.429 . S
C455 C453 1.419 . S
C455 C456 1.363 . S
C455 H458 0.929 . S
C456 C455 1.363 . S
C456 C462 1.428 . S
H457 C453 0.930 . S
H458 C455 0.929 . S
S459 N460 1.613 . S
S459 N461 1.610 . S
N460 S459 1.613 . S
N460 C463 1.350 . S
N461 S459 1.610 . S
N461 C462 1.351 . S
C462 C456 1.428 . S
C462 N461 1.351 . S
C462 C463 1.434 . S
C463 C454 1.429 . S
C463 N460 1.350 . S
C463 C462 1.434 . S
C289 C4 1.375 . S
C291 C74 1.389 . S
C300 C110 1.389 1_455 S
C302 C40 1.373 . S
C311 C76 1.371 . S
C313 C2 1.391 1_655 S
C322 C112 1.376 . S
C324 C38 1.390 . S
C333 C218 1.393 . S
C335 C148 1.373 . S
C344 C184 1.371 . S
C346 C254 1.391 1_655 S
C355 C220 1.377 . S
C357 C146 1.389 1_455 S
C366 C256 1.378 . S
C368 C182 1.391 . S
C377 C3 1.527 . S
C379 C147 1.528 . S
C388 C39 1.528 . S
C390 C183 1.527 . S
C399 C75 1.529 . S
C401 C219 1.527 . S
C410 C255 1.527 . S
C412 C111 1.528 . S
C421 C14 1.447 . S
C423 C50 1.445 . S
C432 C122 1.452 . S
C434 C86 1.450 . S
C443 C194 1.447 . S
C445 C158 1.444 . S
C454 C230 1.451 . S
C456 C266 1.451 . S
