# Generated by pormake.
# Topology reo, (8)-cn, num edge types: 1
# Building blocks:
#     Node 0, Type 0, BuildingBlock: EBIMEJ_clean_sbu_0, # of connection points: 8
#     Node 1, Type 0, BuildingBlock: EBIMEJ_clean_sbu_0, # of connection points: 8
#     Node 2, Type 0, BuildingBlock: EBIMEJ_clean_sbu_0, # of connection points: 8
#     Edge 3, Type (0, 0), BuildingBlock: TEMPAE_clean_linker_10, # of connection points: 2
#     Edge 4, Type (0, 0), BuildingBlock: TEMPAE_clean_linker_10, # of connection points: 2
#     Edge 5, Type (0, 0), BuildingBlock: TEMPAE_clean_linker_10, # of connection points: 2
#     Edge 6, Type (0, 0), BuildingBlock: TEMPAE_clean_linker_10, # of connection points: 2
#     Edge 7, Type (0, 0), BuildingBlock: TEMPAE_clean_linker_10, # of connection points: 2
#     Edge 8, Type (0, 0), BuildingBlock: TEMPAE_clean_linker_10, # of connection points: 2
#     Edge 9, Type (0, 0), BuildingBlock: TEMPAE_clean_linker_10, # of connection points: 2
#     Edge 10, Type (0, 0), BuildingBlock: TEMPAE_clean_linker_10, # of connection points: 2
#     Edge 11, Type (0, 0), BuildingBlock: TEMPAE_clean_linker_10, # of connection points: 2
#     Edge 12, Type (0, 0), BuildingBlock: TEMPAE_clean_linker_10, # of connection points: 2
#     Edge 13, Type (0, 0), BuildingBlock: TEMPAE_clean_linker_10, # of connection points: 2
#     Edge 14, Type (0, 0), BuildingBlock: TEMPAE_clean_linker_10, # of connection points: 2
# Relax obj value: 0.145
# Max RMSD: 0.257
# Mean RMSD: 0.248
data_MOF--net-reo--node1-EBIMEJ_clean_sbu_0--edge1-TEMPAE_clean_linker_10
_symmetry_space_group_name_H-M    P1
_symmetry_Int_Tables_number       1
_symmetry_cell_setting            triclinic
loop_
_symmetry_equiv_pos_as_xyz
'x, y, z'
_cell_length_a     24.62581
_cell_length_b     24.919334
_cell_length_c     25.043469
_cell_angle_alpha  91.658921
_cell_angle_beta   91.556396
_cell_angle_gamma 100.85104
loop_
_atom_site_label
_atom_site_type_symbol
_atom_site_fract_x
_atom_site_fract_y
_atom_site_fract_z
_atom_type_partial_charge
Co0 Co 1.008 1.01768 0.39043 0.0
Co1 Co 0.00988 0.07716 0.50334 0.0
Co2 Co 1.00939 0.95483 0.49717 0.0
H3 H 0.99902 0.99328 0.45164 0.0
O4 O 0.97488 1.0132 0.45915 0.0
H5 H 0.021 0.03899 0.54882 0.0
O6 O 0.04476 1.01875 0.54131 0.0
Co7 Co 0.01225 1.01511 0.61049 0.0
O8 O 0.01872 0.0962 0.63097 0.0
O9 O 0.04275 0.13895 0.5547 0.0
O10 O 0.98767 0.93335 0.61904 0.0
O11 O 0.02927 0.90081 0.54983 0.0
O12 O 0.98078 0.03078 0.31467 0.0
O13 O 0.9282 0.02638 0.37916 0.0
O14 O 0.93818 0.99249 0.57385 0.0
O15 O 0.93764 0.07271 0.54151 0.0
C16 C 0.98689 0.89334 0.39473 0.0
C17 C 0.01342 0.13708 0.40625 0.0
C18 C 0.08204 0.02012 0.68256 0.0
C19 C 0.11081 0.99026 0.42963 0.0
C20 C 0.03653 0.13969 0.60555 0.0
C21 C 1.00744 0.89498 0.59605 0.0
C22 C 0.93315 0.03353 0.33009 0.0
C23 C 0.91292 0.03126 0.56585 0.0
O24 O 1.005 0.93731 0.37019 0.0
O25 O 0.97727 0.89361 0.44498 0.0
O26 O 0.98902 0.13071 0.45113 0.0
O27 O 0.03596 0.0994 0.38567 0.0
O28 O 0.03495 0.99013 0.68377 0.0
O29 O 0.08823 0.04804 0.64167 0.0
O30 O 0.08887 0.02276 0.40196 0.0
O31 O 0.08345 0.95819 0.46258 0.0
Co32 Co 0.61718 0.04403 0.95609 0.0
Co33 Co 0.50063 0.07662 0.99537 0.0
Co34 Co 0.52411 0.96176 0.01151 0.0
H35 H 0.55801 1.00801 0.97836 0.0
O36 O 0.53723 0.023 0.95747 0.0
H37 H 0.46629 0.03111 0.0287 0.0
O38 O 0.48632 1.01519 0.04943 0.0
Co39 Co 0.40556 0.99752 0.05038 0.0
O40 O 0.37767 0.06874 0.04729 0.0
O41 O 0.45593 0.12755 0.03095 0.0
O42 O 0.41786 0.92598 0.01808 0.0
O43 O 0.4891 0.9005 0.05626 0.0
O44 O 0.67618 0.08586 0.90826 0.0
O45 O 0.62467 1.01424 0.87989 0.0
O46 O 0.38209 0.9813 0.97435 0.0
O47 O 0.43733 0.05409 0.94249 0.0
C48 C 0.62398 0.92568 0.97142 0.0
C49 C 0.58416 0.15432 0.94343 0.0
C50 C 0.35731 0.98637 0.13612 0.0
C51 C 0.62203 0.02999 0.07145 0.0
C52 C 0.40424 0.1174 0.04202 0.0
C53 C 0.43687 0.89271 0.04748 0.0
C54 C 0.66328 0.05261 0.86931 0.0
C55 C 0.397 1.01366 0.93715 0.0
O56 O 0.64815 0.97558 0.96882 0.0
O57 O 0.57131 0.91249 0.97714 0.0
O58 O 0.53222 0.1374 0.94866 0.0
O59 O 0.62057 0.12534 0.95339 0.0
O60 O 0.33582 0.99851 0.09324 0.0
O61 O 0.40633 0.98067 0.13044 0.0
O62 O 0.63405 0.06266 0.03372 0.0
O63 O 0.58538 0.98633 0.06594 0.0
Co64 Co 0.98507 0.62537 1.00421 0.0
Co65 Co 0.99698 0.50796 0.06035 0.0
Co66 Co 0.02454 0.52507 0.9438 0.0
H67 H 0.99713 0.56395 0.98128 0.0
O68 O 0.97093 0.54546 0.99892 0.0
H69 H 0.0247 0.46931 0.02312 0.0
O70 O 0.0508 0.4877 1.00527 0.0
Co71 Co 0.03686 0.40748 1.00171 0.0
O72 O 0.01424 0.38234 0.07561 0.0
O73 O 0.01925 0.46263 0.12013 0.0
O74 O 0.03121 0.40126 0.92037 0.0
O75 O 0.06505 0.48559 0.89168 0.0
O76 O 0.9216 0.64945 0.96008 0.0
O77 O 0.93883 0.67863 0.03784 0.0
O78 O 0.95449 0.38615 0.99127 0.0
O79 O 0.92849 0.45183 0.04221 0.0
C80 C 1.00698 0.62303 0.88583 0.0
C81 C 0.95893 0.59678 0.11998 0.0
C82 C 0.11776 0.35937 0.00707 0.0
C83 C 0.10304 0.61565 1.00167 0.0
C84 C 0.01494 0.41039 0.11922 0.0
C85 C 0.05134 0.43346 0.88387 0.0
C86 C 0.90811 0.67883 0.99707 0.0
C87 C 0.91747 0.4084 0.01241 0.0
O88 O 1.00838 0.65028 0.93015 0.0
O89 O 1.00227 0.57065 0.88407 0.0
O90 O 0.95494 0.54493 0.11286 0.0
O91 O 0.97614 0.63146 0.08456 0.0
O92 O 0.07601 0.34493 0.97642 0.0
O93 O 0.11366 0.40124 0.0346 0.0
O94 O 0.06502 0.63122 0.02816 0.0
O95 O 0.09249 0.58243 0.96114 0.0
C96 C 0.97465 0.32766 0.16884 0.0
C97 C 1.00878 0.37964 0.16951 0.0
C98 C 0.97201 0.29431 0.21336 0.0
C99 C 1.00532 0.31265 0.25975 0.0
C100 C 0.03808 0.36614 0.26159 0.0
C101 C 0.03897 0.39928 0.21662 0.0
C102 C 0.93575 0.23811 0.20947 0.0
C103 C 0.0747 0.38713 0.30986 0.0
C104 C 0.97764 0.22278 0.38177 0.0
C105 C 0.01499 0.18722 0.37447 0.0
C106 C 0.9754 0.26554 0.34622 0.0
C107 C 0.01134 0.27291 0.30248 0.0
C108 C 0.05066 0.23861 0.2966 0.0
C109 C 0.05203 0.19664 0.33246 0.0
C110 C 0.93299 0.30127 0.35406 0.0
C111 C 0.08979 0.24443 0.25074 0.0
H112 H 0.95054 0.3125 0.1328 0.0
H113 H 0.06548 0.43932 0.21737 0.0
H114 H 0.96207 0.20657 0.20751 0.0
H115 H 0.91048 0.2307 0.24546 0.0
H116 H 0.90755 0.23257 0.17353 0.0
H117 H 0.09226 0.43147 0.30798 0.0
H118 H 0.05129 0.37987 0.34701 0.0
H119 H 0.1094 0.36454 0.31247 0.0
H120 H 0.94876 0.21594 0.41387 0.0
H121 H 0.08158 0.16998 0.32646 0.0
H122 H 0.90109 0.29257 0.32121 0.0
H123 H 0.95266 0.34504 0.3524 0.0
H124 H 0.9122 0.29437 0.39275 0.0
H125 H 0.0659 0.2342 0.2124 0.0
H126 H 0.12059 0.21725 0.25399 0.0
H127 H 0.11226 0.28729 0.249 0.0
C128 C 0.89333 0.04508 0.23988 0.0
C129 C 0.88783 0.04392 0.29527 0.0
C130 C 0.84828 0.04984 0.20629 0.0
C131 C 0.79713 0.05389 0.22907 0.0
C132 C 0.7925 0.0562 0.28513 0.0
C133 C 0.83802 0.05091 0.31768 0.0
C134 C 0.85453 0.04735 0.14648 0.0
C135 C 0.73876 0.06139 0.31062 0.0
C136 C 0.68918 0.08979 0.13365 0.0
C137 C 0.65933 0.03764 0.1188 0.0
C138 C 0.73276 0.09622 0.17177 0.0
C139 C 0.74712 0.04921 0.19425 0.0
C140 C 0.71549 0.99673 0.18116 0.0
C141 C 0.67137 0.99166 0.144 0.0
C142 C 0.76507 0.15284 0.18586 0.0
C143 C 0.73038 0.94558 0.20375 0.0
H144 H 0.93217 0.04029 0.22273 0.0
H145 H 0.83411 0.05087 0.3607 0.0
H146 H 0.82909 1.00885 0.12935 0.0
H147 H 0.8393 0.08174 0.12776 0.0
H148 H 0.89817 0.04887 0.13544 0.0
H149 H 0.74402 0.06948 0.35449 0.0
H150 H 0.72125 0.09484 0.29259 0.0
H151 H 0.70813 0.02295 0.30317 0.0
H152 H 0.67968 0.12535 0.11411 0.0
H153 H 0.64877 0.95126 0.132 0.0
H154 H 0.80681 0.15767 0.16895 0.0
H155 H 0.77084 0.15903 0.22985 0.0
H156 H 0.74432 0.18529 0.17006 0.0
H157 H 0.77188 0.94091 0.19032 0.0
H158 H 0.70018 0.90814 0.19099 0.0
H159 H 0.73253 0.94872 0.24805 0.0
C160 C 1.00484 0.83976 0.31347 0.0
C161 C 0.97937 0.84084 0.36292 0.0
C162 C 0.9972 0.79214 0.28083 0.0
C163 C 0.96288 0.74383 0.29757 0.0
C164 C 0.93815 0.74393 0.34807 0.0
C165 C 0.94689 0.79242 0.38034 0.0
C166 C 0.02517 0.79404 0.22773 0.0
C167 C 0.90141 0.69325 0.3673 0.0
C168 C 0.90915 0.65421 0.17575 0.0
C169 C 0.94817 0.62013 0.17254 0.0
C170 C 0.90973 0.69088 0.21953 0.0
C171 C 0.95149 0.69469 0.26032 0.0
C172 C 0.98831 0.65722 0.2592 0.0
C173 C 0.98596 0.62006 0.21534 0.0
C174 C 0.86904 0.72922 0.21914 0.0
C175 C 0.03392 0.66013 0.30125 0.0
H176 H 0.0309 0.87652 0.29987 0.0
H177 H 0.92729 0.79271 0.41854 0.0
H178 H 0.04997 0.76131 0.22459 0.0
H179 H 0.99347 0.78669 0.19466 0.0
H180 H 0.05287 0.83397 0.22193 0.0
H181 H 0.88771 0.69897 0.40864 0.0
H182 H 0.8643 0.6821 0.34024 0.0
H183 H 0.92347 0.65833 0.36612 0.0
H184 H 0.88037 0.65467 0.14229 0.0
H185 H 0.01693 0.5945 0.21228 0.0
H186 H 0.88962 0.76944 0.20472 0.0
H187 H 0.85456 0.73589 0.25992 0.0
H188 H 0.83254 0.71337 0.19228 0.0
H189 H 0.06714 0.69573 0.29411 0.0
H190 H 0.05231 0.62268 0.30029 0.0
H191 H 0.01845 0.66607 0.34175 0.0
C192 C 0.27425 0.9897 0.1894 0.0
C193 C 0.32848 0.98052 0.18709 0.0
C194 C 0.24648 0.98611 0.2376 0.0
C195 C 0.27368 0.97301 0.28473 0.0
C196 C 0.32816 0.96273 0.2825 0.0
C197 C 0.35503 0.96664 0.23356 0.0
C198 C 0.18828 0.99739 0.23817 0.0
C199 C 0.35826 0.94856 0.33188 0.0
C200 C 0.20567 0.0265 0.40207 0.0
C201 C 0.16468 0.9811 0.41183 0.0
C202 C 0.24642 0.02276 0.36491 0.0
C203 C 0.24504 0.97268 0.33623 0.0
C204 C 0.20769 0.92524 0.3507 0.0
C205 C 0.16804 0.92997 0.38891 0.0
C206 C 0.28617 0.07411 0.35155 0.0
C207 C 0.20459 0.8711 0.32104 0.0
H208 H 0.25361 1.00036 0.15353 0.0
H209 H 0.39698 0.95935 0.23178 0.0
H210 H 0.1598 0.96213 0.25431 0.0
H211 H 0.1871 0.03355 0.26472 0.0
H212 H 0.17251 1.0053 0.19773 0.0
H213 H 0.39946 0.93912 0.32292 0.0
H214 H 0.36402 0.98324 0.36157 0.0
H215 H 0.33329 0.91279 0.35079 0.0
H216 H 0.20268 0.06608 0.41968 0.0
H217 H 0.1357 0.89504 0.39586 0.0
H218 H 0.27135 0.09057 0.31429 0.0
H219 H 0.32798 0.06541 0.34452 0.0
H220 H 0.28942 0.10617 0.38387 0.0
H221 H 0.18133 0.87155 0.28251 0.0
H222 H 0.18286 0.83658 0.34418 0.0
H223 H 0.24645 0.86377 0.31189 0.0
C224 C 0.96186 0.82857 0.66148 0.0
C225 C 1.0052 0.84386 0.62635 0.0
C226 C 0.96224 0.7865 0.69763 0.0
C227 C 1.00755 0.75894 0.69968 0.0
C228 C 0.05027 0.7723 0.66255 0.0
C229 C 0.04842 0.81433 0.62605 0.0
C230 C 0.91547 0.77384 0.73584 0.0
C231 C 0.09965 0.74455 0.66358 0.0
C232 C 0.03566 0.71084 0.83906 0.0
C233 C 0.0113 0.65502 0.83589 0.0
C234 C 0.03704 0.74404 0.7945 0.0
C235 C 0.01286 0.72152 0.74491 0.0
C236 C 0.98975 0.66476 0.74074 0.0
C237 C 0.98959 0.63208 0.78613 0.0
C238 C 0.06271 0.80396 0.80126 0.0
C239 C 0.9632 0.63903 0.68887 0.0
H240 H 0.92806 0.85088 0.66188 0.0
H241 H 0.08234 0.82613 0.59951 0.0
H242 H 0.89976 0.72911 0.73632 0.0
H243 H 0.93083 0.78763 0.77697 0.0
H244 H 0.88051 0.79437 0.7253 0.0
H245 H 0.12569 0.75425 0.62832 0.0
H246 H 0.12544 0.7581 0.70027 0.0
H247 H 0.08616 0.69956 0.66488 0.0
H248 H 0.05334 0.72908 0.87697 0.0
H249 H 0.97067 0.58912 0.78309 0.0
H250 H 0.03013 0.829 0.79712 0.0
H251 H 0.09293 0.81609 0.76971 0.0
H252 H 0.08414 0.81397 0.8409 0.0
H253 H 0.92537 0.65562 0.67961 0.0
H254 H 0.9516 0.59383 0.6905 0.0
H255 H 0.99164 0.64946 0.65554 0.0
C256 C 0.31628 0.04812 0.90676 0.0
C257 C 0.35537 1.01574 0.89587 0.0
C258 C 0.27056 0.04646 0.8725 0.0
C259 C 0.26524 1.01291 0.82554 0.0
C260 C 0.30529 0.98061 0.81389 0.0
C261 C 0.35005 0.98185 0.84998 0.0
C262 C 0.22782 0.08011 0.88705 0.0
C263 C 0.30042 0.94462 0.76383 0.0
C264 C 0.12259 0.97961 0.75994 0.0
C265 C 0.12731 1.01925 0.72109 0.0
C266 C 0.16769 0.97642 0.79408 0.0
C267 C 0.21828 1.01328 0.78822 0.0
C268 C 0.22298 0.0535 0.74918 0.0
C269 C 0.17719 0.05615 0.71614 0.0
C270 C 0.16112 0.93361 0.83609 0.0
C271 C 0.27621 0.09391 0.74252 0.0
H272 H 0.32064 0.07346 0.94319 0.0
H273 H 0.38034 0.95627 0.84276 0.0
H274 H 0.23108 0.1154 0.86054 0.0
H275 H 0.18537 0.05564 0.88158 0.0
H276 H 0.23357 0.09568 0.92918 0.0
H277 H 0.33578 0.92302 0.7602 0.0
H278 H 0.26152 0.91379 0.7638 0.0
H279 H 0.29833 0.96957 0.72809 0.0
H280 H 0.08403 0.95076 0.76321 0.0
H281 H 0.18067 0.08685 0.68597 0.0
H282 H 0.18077 0.9507 0.87486 0.0
H283 H 0.18177 0.89976 0.82309 0.0
H284 H 0.1169 0.91648 0.84256 0.0
H285 H 0.28622 0.12024 0.77928 0.0
H286 H 0.27372 0.12058 0.7081 0.0
H287 H 0.31091 0.0719 0.73665 0.0
C288 C 0.10109 0.40994 0.80238 0.0
C289 C 0.052 0.40763 0.82992 0.0
C290 C 0.10357 0.37374 0.75838 0.0
C291 C 0.05584 0.33472 0.74179 0.0
C292 C 1.00525 0.33559 0.76708 0.0
C293 C 1.00411 0.37174 0.81083 0.0
C294 C 0.15821 0.37443 0.73244 0.0
C295 C 0.95314 0.29524 0.75094 0.0
C296 C 0.04251 0.24186 0.61585 0.0
C297 C 0.04928 0.19211 0.63749 0.0
C298 C 0.04728 0.28971 0.64866 0.0
C299 C 0.05977 0.28782 0.70417 0.0
C300 C 0.06988 0.23836 0.72532 0.0
C301 C 0.06422 0.1913 0.69192 0.0
C302 C 0.036 0.34142 0.62451 0.0
C303 C 0.08378 0.2342 0.78402 0.0
H304 H 0.13831 0.43718 0.81744 0.0
H305 H 0.96608 0.36989 0.83216 0.0
H306 H 0.17587 0.33907 0.74582 0.0
H307 H 0.15258 0.3704 0.68831 0.0
H308 H 0.18845 0.4125 0.7431 0.0
H309 H 0.91599 0.30576 0.76978 0.0
H310 H 0.94632 0.29344 0.70692 0.0
H311 H 0.9574 0.25376 0.76323 0.0
H312 H 0.03083 0.24281 0.57389 0.0
H313 H 0.07028 0.15323 0.70889 0.0
H314 H 0.06844 0.37685 0.63775 0.0
H315 H 0.99591 0.34972 0.63848 0.0
H316 H 0.03403 0.33844 0.58012 0.0
H317 H 0.11821 0.26773 0.79734 0.0
H318 H 0.09573 0.19453 0.79312 0.0
H319 H 0.04737 0.23848 0.80782 0.0
C320 C 0.67928 1.014 0.77951 0.0
C321 C 0.69184 0.05664 0.81817 0.0
C322 C 0.70987 1.01443 0.73308 0.0
C323 C 0.75398 0.05862 0.7252 0.0
C324 C 0.76462 0.10339 0.76261 0.0
C325 C 0.73339 0.10181 0.8088 0.0
C326 C 0.69746 0.96575 0.69437 0.0
C327 C 0.81141 0.15118 0.75581 0.0
C328 C 0.87572 1.01904 0.65635 0.0
C329 C 0.87059 0.03845 0.60472 0.0
C330 C 0.83871 0.02654 0.69582 0.0
C331 C 0.79445 0.05329 0.68336 0.0
C332 C 0.78877 0.07315 0.63138 0.0
C333 C 0.82758 0.06616 0.59263 0.0
C334 C 0.8472 1.0057 0.75099 0.0
C335 C 0.74148 0.10114 0.61672 0.0
H336 H 0.64692 0.97916 0.78652 0.0
H337 H 0.74275 0.13516 0.83841 0.0
H338 H 0.69624 0.97931 0.65263 0.0
H339 H 0.73085 0.94158 0.69779 0.0
H340 H 0.65751 0.93853 0.70228 0.0
H341 H 0.80889 0.1861 0.78367 0.0
H342 H 0.85148 0.13815 0.76366 0.0
H343 H 0.81143 0.16537 0.71424 0.0
H344 H 0.90973 0.9988 0.66651 0.0
H345 H 0.82391 0.08155 0.55291 0.0
H346 H 0.81097 0.9743 0.7609 0.0
H347 H 0.85085 0.03962 0.78135 0.0
H348 H 0.8849 0.98738 0.75442 0.0
H349 H 0.70158 0.07265 0.62134 0.0
H350 H 0.74342 0.11515 0.57499 0.0
H351 H 0.74171 0.13688 0.64423 0.0
C352 C 0.16574 0.28313 0.97873 0.0
C353 C 0.16489 0.32958 0.01145 0.0
C354 C 0.20858 0.25304 0.9838 0.0
C355 C 0.25189 0.26929 0.02285 0.0
C356 C 0.25192 0.31703 0.05515 0.0
C357 C 0.20857 0.34653 0.04907 0.0
C358 C 0.20614 0.20259 0.94853 0.0
C359 C 0.2971 0.33623 0.09707 0.0
C360 C 0.32241 0.15508 0.07277 0.0
C361 C 0.37106 0.16189 0.04358 0.0
C362 C 0.28461 0.19075 0.06778 0.0
C363 C 0.29485 0.23435 0.03208 0.0
C364 C 0.34476 0.24258 1.00369 0.0
C365 C 0.3824 0.20656 0.01003 0.0
C366 C 0.23252 0.18036 0.09937 0.0
C367 C 0.35712 0.28783 0.96457 0.0
H368 H 0.13233 0.2697 0.94946 0.0
H369 H 0.20846 0.38248 0.07446 0.0
H370 H 0.24729 0.20119 0.9322 0.0
H371 H 0.19397 0.16596 0.97276 0.0
H372 H 0.17557 0.20037 0.91468 0.0
H373 H 0.29306 0.37568 0.1169 0.0
H374 H 0.29588 0.30505 0.12798 0.0
H375 H 0.33822 0.34115 0.07882 0.0
H376 H 0.31304 0.12066 0.09868 0.0
H377 H 0.4192 0.21165 0.98649 0.0
H378 H 0.19598 0.16887 0.07166 0.0
H379 H 0.22777 0.21811 0.1219 0.0
H380 H 0.23236 0.14713 0.12805 0.0
H381 H 0.32627 0.27995 0.93075 0.0
H382 H 0.39913 0.29133 0.94832 0.0
H383 H 0.35354 0.32754 0.98398 0.0
C384 C 0.19808 0.65939 0.97685 0.0
C385 C 0.16091 0.64051 0.01643 0.0
C386 C 0.24979 0.69209 0.99051 0.0
C387 C 0.26525 0.70453 0.04514 0.0
C388 C 0.22995 0.68071 0.08524 0.0
C389 C 0.17761 0.64997 0.0704 0.0
C390 C 0.2853 0.71775 0.94634 0.0
C391 C 0.24557 0.69107 0.14382 0.0
C392 C 0.41 0.79153 0.06311 0.0
C393 C 0.39707 0.84391 0.06277 0.0
C394 C 0.36731 0.74481 0.06209 0.0
C395 C 0.3112 0.75125 0.05925 0.0
C396 C 0.29863 0.80423 0.06366 0.0
C397 C 0.34165 0.84953 0.06632 0.0
C398 C 0.38219 0.68884 0.06054 0.0
C399 C 0.23974 0.81376 0.06023 0.0
H400 H 0.18506 0.65209 0.93513 0.0
H401 H 0.14906 0.6346 0.10109 0.0
H402 H 0.28497 0.76225 0.94636 0.0
H403 H 0.32878 0.71296 0.95294 0.0
H404 H 0.27033 0.69966 0.90633 0.0
H405 H 0.22135 0.65954 0.16873 0.0
H406 H 0.29033 0.69174 0.15124 0.0
H407 H 0.23708 0.73148 0.15699 0.0
H408 H 0.45276 0.78693 0.06054 0.0
H409 H 0.33145 0.88996 0.0666 0.0
H410 H 0.37844 0.67221 0.01877 0.0
H411 H 0.35359 0.66023 0.08478 0.0
H412 H 0.42534 0.69027 0.07552 0.0
H413 H 0.22083 0.79935 0.02038 0.0
H414 H 0.23729 0.8576 0.06615 0.0
H415 H 0.21441 0.79028 0.09067 0.0
C416 C 0.64573 0.22502 0.89663 0.0
C417 C 0.60645 0.21221 0.93592 0.0
C418 C 0.6902 0.26895 0.90468 0.0
C419 C 0.69541 0.2999 0.9535 0.0
C420 C 0.65133 0.29208 0.98939 0.0
C421 C 0.60673 0.24836 0.97976 0.0
C422 C 0.73549 0.27666 0.86461 0.0
C423 C 0.6551 0.32403 0.04189 0.0
C424 C 0.84239 0.32686 0.01039 0.0
C425 C 0.85942 0.38252 1.00173 0.0
C426 C 0.78827 0.30025 0.99685 0.0
C427 C 0.751 0.32979 0.9722 0.0
C428 C 0.76802 0.38632 0.96379 0.0
C429 C 0.82204 0.41232 0.97949 0.0
C430 C 0.77148 0.24016 0.00789 0.0
C431 C 0.73015 0.41864 0.93618 0.0
H432 H 0.6456 0.19664 0.86292 0.0
H433 H 0.5766 0.23795 0.01042 0.0
H434 H 0.75351 0.3206 0.86083 0.0
H435 H 0.76909 0.25571 0.87828 0.0
H436 H 0.72003 0.25891 0.82459 0.0
H437 H 0.61371 0.32203 0.05915 0.0
H438 H 0.6814 0.30644 0.07072 0.0
H439 H 0.67444 0.36748 0.03724 0.0
H440 H 0.87159 0.30415 0.02776 0.0
H441 H 0.83585 0.45536 0.97228 0.0
H442 H 0.76325 0.21606 0.96962 0.0
H443 H 0.73277 0.23281 0.03048 0.0
H444 H 0.80393 0.22454 0.03118 0.0
H445 H 0.72315 0.40416 0.89379 0.0
H446 H 0.74766 0.46314 0.93729 0.0
H447 H 0.68919 0.41209 0.95481 0.0
C448 C 0.84378 0.73434 0.03884 0.0
C449 C 0.86166 0.70951 0.9932 0.0
C450 C 0.80071 0.76443 0.03548 0.0
C451 C 0.77508 0.77059 0.98515 0.0
C452 C 0.79237 0.74469 0.93912 0.0
C453 C 0.83507 0.7143 0.94374 0.0
C454 C 0.7837 0.79095 0.0857 0.0
C455 C 0.76709 0.75069 0.88455 0.0
C456 C 0.64045 0.82811 0.97992 0.0
C457 C 0.66056 0.88375 0.97158 0.0
C458 C 0.67688 0.79051 0.98388 0.0
C459 C 0.73484 0.80888 0.97981 0.0
C460 C 0.75506 0.86477 0.97085 0.0
C461 C 0.71802 0.90106 0.96661 0.0
C462 C 0.65348 0.73124 0.99313 0.0
C463 C 0.81629 0.8867 0.96659 0.0
H464 H 0.86374 0.73057 0.07729 0.0
H465 H 0.84853 0.69525 0.90826 0.0
H466 H 0.79352 0.83609 0.08298 0.0
H467 H 0.73835 0.77915 0.09011 0.0
H468 H 0.80493 0.77943 0.12212 0.0
H469 H 0.7821 0.72497 0.85333 0.0
H470 H 0.72135 0.7394 0.88531 0.0
H471 H 0.77746 0.79402 0.87311 0.0
H472 H 0.59643 0.81405 0.98412 0.0
H473 H 0.73471 0.94374 0.96022 0.0
H474 H 0.67048 0.71911 0.03147 0.0
H475 H 0.66608 0.70501 0.96099 0.0
H476 H 0.6076 0.72301 0.9943 0.0
H477 H 0.8385 0.87971 1.00414 0.0
H478 H 0.82542 0.93115 0.95902 0.0
H479 H 0.83322 0.86465 0.93377 0.0
loop_
_geom_bond_atom_site_label_1
_geom_bond_atom_site_label_2
_geom_bond_distance
_geom_bond_site_symmetry_2
_ccdc_geom_bond_type
Co0 H3 2.400 . S
Co0 O4 2.009 . S
Co0 O12 2.114 1_565 S
Co0 O13 2.315 . S
Co0 O24 2.053 . S
Co0 O27 2.094 1_565 S
Co0 O30 2.122 1_665 S
Co1 O4 2.126 1_545 S
Co1 H5 2.388 1_655 S
Co1 O6 2.053 1_655 S
Co1 O9 2.047 1_655 S
Co1 O15 2.113 . S
Co1 O26 2.063 . S
Co2 H3 2.388 1_455 S
Co2 O4 2.053 1_455 S
Co2 O6 2.126 1_565 S
Co2 O11 2.063 . S
Co2 O25 2.047 1_455 S
Co2 O31 2.113 . S
H3 Co0 2.400 . S
H3 Co2 2.388 1_655 S
H3 O4 0.760 . S
O4 Co0 2.009 . S
O4 Co1 2.126 1_565 S
O4 Co2 2.053 1_655 S
O4 H3 0.760 . S
H5 Co1 2.388 1_455 S
H5 O6 0.760 . S
H5 Co7 2.400 . S
O6 Co1 2.053 1_455 S
O6 Co2 2.126 1_545 S
O6 H5 0.760 . S
O6 Co7 2.009 . S
Co7 H5 2.400 . S
Co7 O6 2.009 . S
Co7 O8 2.053 . S
Co7 O10 2.094 1_545 S
Co7 O14 2.122 1_445 S
Co7 O28 2.114 1_545 S
Co7 O29 2.315 . S
O8 Co7 2.053 . S
O8 C20 1.259 . S
O9 Co1 2.047 1_455 S
O9 C20 1.257 . S
O10 Co7 2.094 1_565 S
O10 C21 1.253 . S
O11 Co2 2.063 . S
O11 C21 1.268 . S
O12 Co0 2.114 1_545 S
O12 C22 1.287 1_545 S
O13 Co0 2.315 . S
O13 C22 1.255 . S
O14 Co7 2.122 1_665 S
O14 C23 1.272 1_565 S
O15 Co1 2.113 . S
O15 C23 1.245 . S
C16 O24 1.259 . S
C16 O25 1.257 . S
C17 O26 1.268 . S
C17 O27 1.253 . S
C18 O28 1.281 1_545 S
C18 O29 1.252 . S
C19 O30 1.272 1_565 S
C19 O31 1.245 . S
C20 O8 1.259 . S
C20 O9 1.257 . S
C21 O10 1.253 . S
C21 O11 1.268 . S
C22 O12 1.287 1_565 S
C22 O13 1.255 . S
C23 O14 1.272 1_545 S
C23 O15 1.245 . S
O24 Co0 2.053 . S
O24 C16 1.259 . S
O25 Co2 2.047 1_655 S
O25 C16 1.257 . S
O26 Co1 2.063 . S
O26 C17 1.268 . S
O27 Co0 2.094 1_545 S
O27 C17 1.253 . S
O28 Co7 2.114 1_565 S
O28 C18 1.281 1_565 S
O29 Co7 2.315 . S
O29 C18 1.252 . S
O30 Co0 2.122 1_445 S
O30 C19 1.272 1_545 S
O31 Co2 2.113 . S
O31 C19 1.245 . S
Co32 H35 2.400 1_545 S
Co32 O36 2.011 1_545 S
Co32 O44 2.115 . S
Co32 O45 2.315 . S
Co32 O56 2.053 1_545 S
Co32 O59 2.094 . S
Co32 O62 2.122 1_556 S
Co33 O36 2.112 1_545 S
Co33 H37 2.388 1_556 S
Co33 O38 2.068 1_556 S
Co33 O41 2.047 1_556 S
Co33 O47 2.113 . S
Co33 O58 2.063 . S
Co34 H35 2.388 1_554 S
Co34 O36 2.064 1_554 S
Co34 O38 2.108 1_565 S
Co34 O43 2.063 . S
Co34 O57 2.047 1_554 S
Co34 O63 2.113 . S
H35 Co32 2.400 1_565 S
H35 Co34 2.388 1_556 S
H35 O36 0.761 . S
O36 Co32 2.011 1_565 S
O36 Co33 2.112 1_565 S
O36 Co34 2.064 1_556 S
O36 H35 0.761 . S
H37 Co33 2.388 1_554 S
H37 O38 0.762 . S
H37 Co39 2.400 1_545 S
O38 Co33 2.068 1_554 S
O38 Co34 2.108 1_545 S
O38 H37 0.762 . S
O38 Co39 2.012 1_545 S
Co39 H37 2.400 1_565 S
Co39 O38 2.012 1_565 S
Co39 O40 2.053 1_565 S
Co39 O42 2.094 . S
Co39 O46 2.122 1_554 S
Co39 O60 2.115 . S
Co39 O61 2.315 . S
O40 Co39 2.053 1_545 S
O40 C52 1.259 . S
O41 Co33 2.047 1_554 S
O41 C52 1.257 . S
O42 Co39 2.094 . S
O42 C53 1.253 . S
O43 Co34 2.063 . S
O43 C53 1.268 . S
O44 Co32 2.115 . S
O44 C54 1.281 . S
O45 Co32 2.315 . S
O45 C54 1.252 . S
O46 Co39 2.122 1_556 S
O46 C55 1.272 1_565 S
O47 Co33 2.113 . S
O47 C55 1.245 . S
C48 O56 1.259 . S
C48 O57 1.257 . S
C49 O58 1.268 . S
C49 O59 1.253 . S
C50 O60 1.281 . S
C50 O61 1.252 . S
C51 O62 1.272 1_565 S
C51 O63 1.245 . S
C52 O40 1.259 . S
C52 O41 1.257 . S
C53 O42 1.253 . S
C53 O43 1.268 . S
C54 O44 1.281 . S
C54 O45 1.252 . S
C55 O46 1.272 1_545 S
C55 O47 1.245 . S
O56 Co32 2.053 1_565 S
O56 C48 1.259 . S
O57 Co34 2.047 1_556 S
O57 C48 1.257 . S
O58 Co33 2.063 . S
O58 C49 1.268 . S
O59 Co32 2.094 . S
O59 C49 1.253 . S
O60 Co39 2.115 . S
O60 C50 1.281 . S
O61 Co39 2.315 . S
O61 C50 1.252 . S
O62 Co32 2.122 1_554 S
O62 C51 1.272 1_545 S
O63 Co34 2.113 . S
O63 C51 1.245 . S
Co64 H67 2.399 1_554 S
Co64 O68 2.009 1_554 S
Co64 O76 2.116 . S
Co64 O77 2.317 . S
Co64 O88 2.033 1_554 S
Co64 O91 2.114 . S
Co64 O94 2.123 1_655 S
Co65 O68 2.126 1_554 S
Co65 H69 2.388 1_655 S
Co65 O70 2.053 1_655 S
Co65 O73 2.047 1_655 S
Co65 O79 2.113 . S
Co65 O90 2.063 . S
Co66 H67 2.388 1_455 S
Co66 O68 2.053 1_455 S
Co66 O70 2.126 1_556 S
Co66 O75 2.063 . S
Co66 O89 2.047 1_455 S
Co66 O95 2.113 . S
H67 Co64 2.399 1_556 S
H67 Co66 2.388 1_655 S
H67 O68 0.760 . S
O68 Co64 2.009 1_556 S
O68 Co65 2.126 1_556 S
O68 Co66 2.053 1_655 S
O68 H67 0.760 . S
H69 Co65 2.388 1_455 S
H69 O70 0.760 . S
H69 Co71 2.400 1_554 S
O70 Co65 2.053 1_455 S
O70 Co66 2.126 1_554 S
O70 H69 0.760 . S
O70 Co71 2.009 1_554 S
Co71 H69 2.400 1_556 S
Co71 O70 2.009 1_556 S
Co71 O72 2.038 1_556 S
Co71 O74 2.108 . S
Co71 O78 2.123 1_455 S
Co71 O92 2.116 . S
Co71 O93 2.316 . S
O72 Co71 2.038 1_554 S
O72 C84 1.259 . S
O73 Co65 2.047 1_455 S
O73 C84 1.257 . S
O74 Co71 2.108 . S
O74 C85 1.253 . S
O75 Co66 2.063 . S
O75 C85 1.268 . S
O76 Co64 2.116 . S
O76 C86 1.281 . S
O77 Co64 2.317 . S
O77 C86 1.252 . S
O78 Co71 2.123 1_655 S
O78 C87 1.272 1_556 S
O79 Co65 2.113 . S
O79 C87 1.245 . S
C80 O88 1.259 . S
C80 O89 1.257 . S
C81 O90 1.268 . S
C81 O91 1.253 . S
C82 O92 1.281 . S
C82 O93 1.252 . S
C83 O94 1.272 1_556 S
C83 O95 1.245 . S
C84 O72 1.259 . S
C84 O73 1.257 . S
C85 O74 1.253 . S
C85 O75 1.268 . S
C86 O76 1.281 . S
C86 O77 1.252 . S
C87 O78 1.272 1_554 S
C87 O79 1.245 . S
O88 Co64 2.033 1_556 S
O88 C80 1.259 . S
O89 Co66 2.047 1_655 S
O89 C80 1.257 . S
O90 Co65 2.063 . S
O90 C81 1.268 . S
O91 Co64 2.114 . S
O91 C81 1.253 . S
O92 Co71 2.116 . S
O92 C82 1.281 . S
O93 Co71 2.316 . S
O93 C82 1.252 . S
O94 Co64 2.123 1_455 S
O94 C83 1.272 1_554 S
O95 Co66 2.113 . S
O95 C83 1.245 . S
C96 C97 1.391 1_655 S
C96 C98 1.394 . S
C96 H112 0.931 . S
C97 C96 1.391 1_455 S
C97 C101 1.376 . S
C98 C96 1.394 . S
C98 C99 1.369 . S
C98 C102 1.531 . S
C99 C98 1.369 . S
C99 C100 1.410 1_655 S
C99 C107 1.503 . S
C100 C99 1.410 1_455 S
C100 C101 1.392 . S
C100 C103 1.511 . S
C101 C97 1.376 . S
C101 C100 1.392 . S
C101 H113 0.929 . S
C102 C98 1.531 . S
C102 H114 0.960 . S
C102 H115 0.962 . S
C102 H116 0.960 . S
C103 C100 1.511 . S
C103 H117 0.961 . S
C103 H118 0.961 . S
C103 H119 0.961 . S
C104 C105 1.370 . S
C104 C106 1.363 . S
C104 H120 0.931 . S
C105 C104 1.370 . S
C105 C109 1.408 . S
C106 C104 1.363 . S
C106 C107 1.370 . S
C106 C110 1.524 . S
C107 C99 1.503 . S
C107 C106 1.370 . S
C107 C108 1.403 . S
C108 C107 1.403 . S
C108 C109 1.404 . S
C108 C111 1.539 1_655 S
C109 C105 1.408 . S
C109 C108 1.404 . S
C109 H121 0.930 . S
C110 C106 1.524 . S
C110 H122 0.956 . S
C110 H123 0.961 . S
C110 H124 0.961 . S
C111 C108 1.539 1_455 S
C111 H125 0.958 1_455 S
C111 H126 0.961 . S
C111 H127 0.960 . S
H112 C96 0.931 . S
H113 C101 0.929 . S
H114 C102 0.960 . S
H115 C102 0.962 . S
H116 C102 0.960 . S
H117 C103 0.961 . S
H118 C103 0.961 . S
H119 C103 0.961 . S
H120 C104 0.931 . S
H121 C109 0.930 . S
H122 C110 0.956 . S
H123 C110 0.961 . S
H124 C110 0.961 . S
H125 C111 0.958 1_655 S
H126 C111 0.961 . S
H127 C111 0.960 . S
C128 C129 1.398 . S
C128 C130 1.394 . S
C128 H144 0.931 . S
C129 C128 1.398 . S
C129 C133 1.370 1_545 S
C130 C128 1.394 . S
C130 C131 1.369 1_545 S
C130 C134 1.531 . S
C131 C130 1.369 1_565 S
C131 C132 1.410 . S
C131 C139 1.503 . S
C132 C131 1.410 . S
C132 C133 1.392 . S
C132 C135 1.511 . S
C133 C129 1.370 1_565 S
C133 C132 1.392 . S
C133 H145 0.929 . S
C134 C130 1.531 . S
C134 H146 0.960 . S
C134 H147 0.962 . S
C134 H148 0.960 . S
C135 C132 1.511 . S
C135 H149 0.961 . S
C135 H150 0.961 . S
C135 H151 0.961 . S
C136 C137 1.370 1_545 S
C136 C138 1.363 . S
C136 H152 0.931 . S
C137 C136 1.370 1_565 S
C137 C141 1.408 . S
C138 C136 1.363 . S
C138 C139 1.370 1_545 S
C138 C142 1.524 . S
C139 C131 1.503 . S
C139 C138 1.370 1_565 S
C139 C140 1.403 . S
C140 C139 1.403 . S
C140 C141 1.404 . S
C140 C143 1.539 . S
C141 C137 1.408 . S
C141 C140 1.404 . S
C141 H153 0.930 . S
C142 C138 1.524 . S
C142 H154 0.956 . S
C142 H155 0.961 . S
C142 H156 0.961 . S
C143 C140 1.539 . S
C143 H157 0.958 . S
C143 H158 0.961 . S
C143 H159 0.960 . S
H144 C128 0.931 . S
H145 C133 0.929 . S
H146 C134 0.960 . S
H147 C134 0.962 . S
H148 C134 0.960 . S
H149 C135 0.961 . S
H150 C135 0.961 . S
H151 C135 0.961 . S
H152 C136 0.931 . S
H153 C141 0.930 . S
H154 C142 0.956 . S
H155 C142 0.961 . S
H156 C142 0.961 . S
H157 C143 0.958 . S
H158 C143 0.961 . S
H159 C143 0.960 . S
C160 C161 1.391 . S
C160 C162 1.394 . S
C160 H176 0.931 . S
C161 C160 1.391 . S
C161 C165 1.376 . S
C162 C160 1.394 . S
C162 C163 1.369 . S
C162 C166 1.531 . S
C163 C162 1.369 . S
C163 C164 1.410 . S
C163 C171 1.503 . S
C164 C163 1.410 . S
C164 C165 1.392 . S
C164 C167 1.511 . S
C165 C161 1.376 . S
C165 C164 1.392 . S
C165 H177 0.929 . S
C166 C162 1.531 . S
C166 H178 0.960 1_655 S
C166 H179 0.962 . S
C166 H180 0.960 1_655 S
C167 C164 1.511 . S
C167 H181 0.961 . S
C167 H182 0.961 . S
C167 H183 0.961 . S
C168 C169 1.370 . S
C168 C170 1.363 . S
C168 H184 0.931 . S
C169 C168 1.370 . S
C169 C173 1.397 1_655 S
C170 C168 1.363 . S
C170 C171 1.370 . S
C170 C174 1.524 . S
C171 C163 1.503 . S
C171 C170 1.370 . S
C171 C172 1.403 1_655 S
C172 C171 1.403 1_455 S
C172 C173 1.402 . S
C172 C175 1.539 . S
C173 C169 1.397 1_455 S
C173 C172 1.402 . S
C173 H185 0.942 . S
C174 C170 1.524 . S
C174 H186 0.956 . S
C174 H187 0.961 . S
C174 H188 0.961 . S
C175 C172 1.539 . S
C175 H189 0.958 . S
C175 H190 0.961 . S
C175 H191 0.960 . S
H176 C160 0.931 . S
H177 C165 0.929 . S
H178 C166 0.960 1_455 S
H179 C166 0.962 . S
H180 C166 0.960 1_455 S
H181 C167 0.961 . S
H182 C167 0.961 . S
H183 C167 0.961 . S
H184 C168 0.931 . S
H185 C173 0.942 . S
H186 C174 0.956 . S
H187 C174 0.961 . S
H188 C174 0.961 . S
H189 C175 0.958 . S
H190 C175 0.961 . S
H191 C175 0.960 . S
C192 C193 1.391 . S
C192 C194 1.394 . S
C192 H208 0.931 . S
C193 C192 1.391 . S
C193 C197 1.376 . S
C194 C192 1.394 . S
C194 C195 1.369 . S
C194 C198 1.531 . S
C195 C194 1.369 . S
C195 C196 1.410 . S
C195 C203 1.503 . S
C196 C195 1.410 . S
C196 C197 1.392 . S
C196 C199 1.511 . S
C197 C193 1.376 . S
C197 C196 1.392 . S
C197 H209 0.929 . S
C198 C194 1.531 . S
C198 H210 0.960 . S
C198 H211 0.962 1_565 S
C198 H212 0.960 . S
C199 C196 1.511 . S
C199 H213 0.961 . S
C199 H214 0.961 . S
C199 H215 0.961 . S
C200 C201 1.370 1_545 S
C200 C202 1.363 . S
C200 H216 0.931 . S
C201 C200 1.370 1_565 S
C201 C205 1.408 . S
C202 C200 1.363 . S
C202 C203 1.370 1_545 S
C202 C206 1.524 . S
C203 C195 1.503 . S
C203 C202 1.370 1_565 S
C203 C204 1.403 . S
C204 C203 1.403 . S
C204 C205 1.404 . S
C204 C207 1.539 . S
C205 C201 1.408 . S
C205 C204 1.404 . S
C205 H217 0.930 . S
C206 C202 1.524 . S
C206 H218 0.956 . S
C206 H219 0.961 . S
C206 H220 0.961 . S
C207 C204 1.539 . S
C207 H221 0.958 . S
C207 H222 0.961 . S
C207 H223 0.960 . S
H208 C192 0.931 . S
H209 C197 0.929 . S
H210 C198 0.960 . S
H211 C198 0.962 1_545 S
H212 C198 0.960 . S
H213 C199 0.961 . S
H214 C199 0.961 . S
H215 C199 0.961 . S
H216 C200 0.931 . S
H217 C205 0.930 . S
H218 C206 0.956 . S
H219 C206 0.961 . S
H220 C206 0.961 . S
H221 C207 0.958 . S
H222 C207 0.961 . S
H223 C207 0.960 . S
C224 C225 1.391 1_655 S
C224 C226 1.394 . S
C224 H240 0.931 . S
C225 C224 1.391 1_455 S
C225 C229 1.376 . S
C226 C224 1.394 . S
C226 C227 1.369 1_655 S
C226 C230 1.531 . S
C227 C226 1.369 1_455 S
C227 C228 1.410 . S
C227 C235 1.503 . S
C228 C227 1.410 . S
C228 C229 1.392 . S
C228 C231 1.511 . S
C229 C225 1.376 . S
C229 C228 1.392 . S
C229 H241 0.929 . S
C230 C226 1.531 . S
C230 H242 0.960 . S
C230 H243 0.962 . S
C230 H244 0.960 . S
C231 C228 1.511 . S
C231 H245 0.961 . S
C231 H246 0.961 . S
C231 H247 0.961 . S
C232 C233 1.370 1_455 S
C232 C234 1.363 . S
C232 H248 0.931 . S
C233 C232 1.370 1_655 S
C233 C237 1.408 . S
C234 C232 1.363 . S
C234 C235 1.370 . S
C234 C238 1.524 . S
C235 C227 1.503 . S
C235 C234 1.370 . S
C235 C236 1.403 1_455 S
C236 C235 1.403 1_655 S
C236 C237 1.404 . S
C236 C239 1.539 . S
C237 C233 1.408 . S
C237 C236 1.404 . S
C237 H249 0.930 . S
C238 C234 1.524 . S
C238 H250 0.956 . S
C238 H251 0.961 . S
C238 H252 0.961 . S
C239 C236 1.539 . S
C239 H253 0.958 . S
C239 H254 0.961 . S
C239 H255 0.960 1_655 S
H240 C224 0.931 . S
H241 C229 0.929 . S
H242 C230 0.960 . S
H243 C230 0.962 . S
H244 C230 0.960 . S
H245 C231 0.961 . S
H246 C231 0.961 . S
H247 C231 0.961 . S
H248 C232 0.931 . S
H249 C237 0.930 . S
H250 C238 0.956 . S
H251 C238 0.961 . S
H252 C238 0.961 . S
H253 C239 0.958 . S
H254 C239 0.961 . S
H255 C239 0.960 1_455 S
C256 C257 1.391 . S
C256 C258 1.394 . S
C256 H272 0.931 . S
C257 C256 1.391 . S
C257 C261 1.376 1_545 S
C258 C256 1.394 . S
C258 C259 1.369 . S
C258 C262 1.531 . S
C259 C258 1.369 . S
C259 C260 1.410 1_545 S
C259 C267 1.503 . S
C260 C259 1.410 1_565 S
C260 C261 1.392 . S
C260 C263 1.511 . S
C261 C257 1.376 1_565 S
C261 C260 1.392 . S
C261 H273 0.929 . S
C262 C258 1.531 . S
C262 H274 0.960 . S
C262 H275 0.962 . S
C262 H276 0.960 . S
C263 C260 1.511 . S
C263 H277 0.961 . S
C263 H278 0.961 . S
C263 H279 0.961 . S
C264 C265 1.370 . S
C264 C266 1.363 . S
C264 H280 0.931 . S
C265 C264 1.370 . S
C265 C269 1.408 1_565 S
C266 C264 1.363 . S
C266 C267 1.370 1_565 S
C266 C270 1.524 . S
C267 C259 1.503 . S
C267 C266 1.370 1_545 S
C267 C268 1.403 . S
C268 C267 1.403 . S
C268 C269 1.404 . S
C268 C271 1.539 . S
C269 C265 1.408 1_545 S
C269 C268 1.404 . S
C269 H281 0.930 . S
C270 C266 1.524 . S
C270 H282 0.956 . S
C270 H283 0.961 . S
C270 H284 0.961 . S
C271 C268 1.539 . S
C271 H285 0.958 . S
C271 H286 0.961 . S
C271 H287 0.960 . S
H272 C256 0.931 . S
H273 C261 0.929 . S
H274 C262 0.960 . S
H275 C262 0.962 . S
H276 C262 0.960 . S
H277 C263 0.961 . S
H278 C263 0.961 . S
H279 C263 0.961 . S
H280 C264 0.931 . S
H281 C269 0.930 . S
H282 C270 0.956 . S
H283 C270 0.961 . S
H284 C270 0.961 . S
H285 C271 0.958 . S
H286 C271 0.961 . S
H287 C271 0.960 . S
C288 C289 1.391 . S
C288 C290 1.394 . S
C288 H304 0.931 . S
C289 C288 1.391 . S
C289 C293 1.376 . S
C290 C288 1.394 . S
C290 C291 1.369 . S
C290 C294 1.531 . S
C291 C290 1.369 . S
C291 C292 1.410 . S
C291 C299 1.503 . S
C292 C291 1.410 . S
C292 C293 1.392 . S
C292 C295 1.511 1_455 S
C293 C289 1.376 . S
C293 C292 1.392 . S
C293 H305 0.929 1_455 S
C294 C290 1.531 . S
C294 H306 0.960 . S
C294 H307 0.962 . S
C294 H308 0.960 . S
C295 C292 1.511 1_655 S
C295 H309 0.961 . S
C295 H310 0.961 . S
C295 H311 0.961 . S
C296 C297 1.370 . S
C296 C298 1.363 . S
C296 H312 0.931 1_455 S
C297 C296 1.370 . S
C297 C301 1.408 . S
C298 C296 1.363 . S
C298 C299 1.370 . S
C298 C302 1.524 1_455 S
C299 C291 1.503 . S
C299 C298 1.370 . S
C299 C300 1.403 . S
C300 C299 1.403 . S
C300 C301 1.404 . S
C300 C303 1.539 . S
C301 C297 1.408 . S
C301 C300 1.404 . S
C301 H313 0.930 . S
C302 C298 1.524 1_655 S
C302 H314 0.956 1_655 S
C302 H315 0.961 . S
C302 H316 0.961 . S
C303 C300 1.539 . S
C303 H317 0.958 . S
C303 H318 0.961 . S
C303 H319 0.960 . S
H304 C288 0.931 . S
H305 C293 0.929 1_655 S
H306 C294 0.960 . S
H307 C294 0.962 . S
H308 C294 0.960 . S
H309 C295 0.961 . S
H310 C295 0.961 . S
H311 C295 0.961 . S
H312 C296 0.931 1_655 S
H313 C301 0.930 . S
H314 C302 0.956 1_455 S
H315 C302 0.961 . S
H316 C302 0.961 . S
H317 C303 0.958 . S
H318 C303 0.961 . S
H319 C303 0.960 . S
C320 C321 1.391 1_565 S
C320 C322 1.394 . S
C320 H336 0.931 . S
C321 C320 1.391 1_545 S
C321 C325 1.376 . S
C322 C320 1.394 . S
C322 C323 1.369 1_565 S
C322 C326 1.531 . S
C323 C322 1.369 1_545 S
C323 C324 1.410 . S
C323 C331 1.503 . S
C324 C323 1.410 . S
C324 C325 1.392 . S
C324 C327 1.511 . S
C325 C321 1.376 . S
C325 C324 1.392 . S
C325 H337 0.929 . S
C326 C322 1.531 . S
C326 H338 0.960 . S
C326 H339 0.962 . S
C326 H340 0.960 . S
C327 C324 1.511 . S
C327 H341 0.961 . S
C327 H342 0.961 . S
C327 H343 0.961 . S
C328 C329 1.370 . S
C328 C330 1.363 . S
C328 H344 0.931 . S
C329 C328 1.370 . S
C329 C333 1.408 . S
C330 C328 1.363 . S
C330 C331 1.370 . S
C330 C334 1.524 . S
C331 C323 1.503 . S
C331 C330 1.370 . S
C331 C332 1.403 . S
C332 C331 1.403 . S
C332 C333 1.404 . S
C332 C335 1.539 . S
C333 C329 1.408 . S
C333 C332 1.404 . S
C333 H345 0.930 . S
C334 C330 1.524 . S
C334 H346 0.956 1_545 S
C334 H347 0.961 . S
C334 H348 0.961 . S
C335 C332 1.539 . S
C335 H349 0.958 1_545 S
C335 H350 0.961 . S
C335 H351 0.960 . S
H336 C320 0.931 . S
H337 C325 0.929 . S
H338 C326 0.960 . S
H339 C326 0.962 . S
H340 C326 0.960 . S
H341 C327 0.961 . S
H342 C327 0.961 . S
H343 C327 0.961 . S
H344 C328 0.931 . S
H345 C333 0.930 . S
H346 C334 0.956 1_565 S
H347 C334 0.961 . S
H348 C334 0.961 . S
H349 C335 0.958 1_565 S
H350 C335 0.961 . S
H351 C335 0.960 . S
C352 C353 1.391 . S
C352 C354 1.394 . S
C352 H368 0.931 . S
C353 C352 1.391 . S
C353 C357 1.376 . S
C354 C352 1.394 . S
C354 C355 1.369 . S
C354 C358 1.531 . S
C355 C354 1.369 . S
C355 C356 1.410 1_556 S
C355 C363 1.503 . S
C356 C355 1.410 1_554 S
C356 C357 1.392 1_554 S
C356 C359 1.511 . S
C357 C353 1.376 . S
C357 C356 1.392 1_556 S
C357 H369 0.929 1_556 S
C358 C354 1.531 . S
C358 H370 0.960 . S
C358 H371 0.962 . S
C358 H372 0.960 . S
C359 C356 1.511 . S
C359 H373 0.961 . S
C359 H374 0.961 . S
C359 H375 0.961 1_554 S
C360 C361 1.370 . S
C360 C362 1.363 . S
C360 H376 0.931 . S
C361 C360 1.370 . S
C361 C365 1.408 1_554 S
C362 C360 1.363 . S
C362 C363 1.370 1_554 S
C362 C366 1.524 . S
C363 C355 1.503 . S
C363 C362 1.370 1_556 S
C363 C364 1.403 . S
C364 C363 1.403 . S
C364 C365 1.404 . S
C364 C367 1.539 . S
C365 C361 1.408 1_556 S
C365 C364 1.404 . S
C365 H377 0.930 . S
C366 C362 1.524 . S
C366 H378 0.956 . S
C366 H379 0.961 . S
C366 H380 0.961 . S
C367 C364 1.539 . S
C367 H381 0.958 . S
C367 H382 0.961 . S
C367 H383 0.960 . S
H368 C352 0.931 . S
H369 C357 0.929 1_554 S
H370 C358 0.960 . S
H371 C358 0.962 . S
H372 C358 0.960 . S
H373 C359 0.961 . S
H374 C359 0.961 . S
H375 C359 0.961 1_556 S
H376 C360 0.931 . S
H377 C365 0.930 . S
H378 C366 0.956 . S
H379 C366 0.961 . S
H380 C366 0.961 . S
H381 C367 0.958 . S
H382 C367 0.961 . S
H383 C367 0.960 . S
C384 C385 1.391 . S
C384 C386 1.394 . S
C384 H400 0.931 . S
C385 C384 1.391 . S
C385 C389 1.376 1_556 S
C386 C384 1.394 . S
C386 C387 1.369 1_556 S
C386 C390 1.531 . S
C387 C386 1.369 1_554 S
C387 C388 1.410 . S
C387 C395 1.503 . S
C388 C387 1.410 . S
C388 C389 1.392 . S
C388 C391 1.511 . S
C389 C385 1.376 1_554 S
C389 C388 1.392 . S
C389 H401 0.929 . S
C390 C386 1.531 . S
C390 H402 0.960 . S
C390 H403 0.962 . S
C390 H404 0.960 . S
C391 C388 1.511 . S
C391 H405 0.961 . S
C391 H406 0.961 . S
C391 H407 0.961 . S
C392 C393 1.370 . S
C392 C394 1.363 . S
C392 H408 0.931 . S
C393 C392 1.370 . S
C393 C397 1.408 . S
C394 C392 1.363 . S
C394 C395 1.370 . S
C394 C398 1.524 . S
C395 C387 1.503 . S
C395 C394 1.370 . S
C395 C396 1.403 . S
C396 C395 1.403 . S
C396 C397 1.404 . S
C396 C399 1.539 . S
C397 C393 1.408 . S
C397 C396 1.404 . S
C397 H409 0.930 . S
C398 C394 1.524 . S
C398 H410 0.956 1_554 S
C398 H411 0.961 . S
C398 H412 0.961 . S
C399 C396 1.539 . S
C399 H413 0.958 . S
C399 H414 0.961 . S
C399 H415 0.960 . S
H400 C384 0.931 . S
H401 C389 0.929 . S
H402 C390 0.960 . S
H403 C390 0.962 . S
H404 C390 0.960 . S
H405 C391 0.961 . S
H406 C391 0.961 . S
H407 C391 0.961 . S
H408 C392 0.931 . S
H409 C397 0.930 . S
H410 C398 0.956 1_556 S
H411 C398 0.961 . S
H412 C398 0.961 . S
H413 C399 0.958 . S
H414 C399 0.961 . S
H415 C399 0.960 . S
C416 C417 1.391 . S
C416 C418 1.394 . S
C416 H432 0.931 . S
C417 C416 1.391 . S
C417 C421 1.376 . S
C418 C416 1.394 . S
C418 C419 1.369 . S
C418 C422 1.531 . S
C419 C418 1.369 . S
C419 C420 1.410 . S
C419 C427 1.503 . S
C420 C419 1.410 . S
C420 C421 1.392 . S
C420 C423 1.511 1_556 S
C421 C417 1.376 . S
C421 C420 1.392 . S
C421 H433 0.929 . S
C422 C418 1.531 . S
C422 H434 0.960 . S
C422 H435 0.962 . S
C422 H436 0.960 . S
C423 C420 1.511 1_554 S
C423 H437 0.961 . S
C423 H438 0.961 . S
C423 H439 0.961 1_554 S
C424 C425 1.370 . S
C424 C426 1.363 . S
C424 H440 0.931 . S
C425 C424 1.370 . S
C425 C429 1.408 1_554 S
C426 C424 1.363 . S
C426 C427 1.370 1_554 S
C426 C430 1.524 . S
C427 C419 1.503 . S
C427 C426 1.370 1_556 S
C427 C428 1.403 . S
C428 C427 1.403 . S
C428 C429 1.404 . S
C428 C431 1.539 . S
C429 C425 1.408 1_556 S
C429 C428 1.404 . S
C429 H441 0.930 . S
C430 C426 1.524 . S
C430 H442 0.956 . S
C430 H443 0.961 . S
C430 H444 0.961 . S
C431 C428 1.539 . S
C431 H445 0.958 . S
C431 H446 0.961 . S
C431 H447 0.960 . S
H432 C416 0.931 . S
H433 C421 0.929 . S
H434 C422 0.960 . S
H435 C422 0.962 . S
H436 C422 0.960 . S
H437 C423 0.961 . S
H438 C423 0.961 . S
H439 C423 0.961 1_556 S
H440 C424 0.931 . S
H441 C429 0.930 . S
H442 C430 0.956 . S
H443 C430 0.961 . S
H444 C430 0.961 . S
H445 C431 0.958 . S
H446 C431 0.961 . S
H447 C431 0.960 . S
C448 C449 1.391 . S
C448 C450 1.394 . S
C448 H464 0.931 . S
C449 C448 1.391 . S
C449 C453 1.376 1_554 S
C450 C448 1.394 . S
C450 C451 1.369 . S
C450 C454 1.531 . S
C451 C450 1.369 . S
C451 C452 1.410 1_554 S
C451 C459 1.503 1_554 S
C452 C451 1.410 1_556 S
C452 C453 1.392 . S
C452 C455 1.511 . S
C453 C449 1.376 1_556 S
C453 C452 1.392 . S
C453 H465 0.929 . S
C454 C450 1.531 . S
C454 H466 0.960 . S
C454 H467 0.962 . S
C454 H468 0.960 . S
C455 C452 1.511 . S
C455 H469 0.961 . S
C455 H470 0.961 . S
C455 H471 0.961 . S
C456 C457 1.370 . S
C456 C458 1.363 . S
C456 H472 0.931 . S
C457 C456 1.370 . S
C457 C461 1.408 . S
C458 C456 1.363 . S
C458 C459 1.370 . S
C458 C462 1.524 . S
C459 C451 1.503 1_556 S
C459 C458 1.370 . S
C459 C460 1.403 . S
C460 C459 1.403 . S
C460 C461 1.404 . S
C460 C463 1.539 . S
C461 C457 1.408 . S
C461 C460 1.404 . S
C461 H473 0.930 . S
C462 C458 1.524 . S
C462 H474 0.956 1_556 S
C462 H475 0.961 . S
C462 H476 0.961 . S
C463 C460 1.539 . S
C463 H477 0.939 1_556 S
C463 H478 0.974 . S
C463 H479 0.967 . S
H464 C448 0.931 . S
H465 C453 0.929 . S
H466 C454 0.960 . S
H467 C454 0.962 . S
H468 C454 0.960 . S
H469 C455 0.961 . S
H470 C455 0.961 . S
H471 C455 0.961 . S
H472 C456 0.931 . S
H473 C461 0.930 . S
H474 C462 0.956 1_554 S
H475 C462 0.961 . S
H476 C462 0.961 . S
H477 C463 0.939 1_554 S
H478 C463 0.974 . S
H479 C463 0.967 . S
C97 C84 2.075 . S
C105 C17 2.006 . S
C129 C22 1.011 1_545 S
C137 C51 0.994 . S
C161 C16 1.573 . S
C169 C81 1.528 . S
C193 C50 1.555 . S
C201 C19 1.473 . S
C225 C21 2.022 . S
C233 C80 2.097 . S
C257 C55 1.039 . S
C265 C18 1.013 1_565 S
C289 C85 1.529 . S
C297 C20 1.574 . S
C321 C54 1.509 . S
C329 C23 1.501 . S
C353 C82 2.018 . S
C361 C52 2.001 . S
C385 C83 1.008 . S
C393 C53 1.025 . S
C417 C49 1.080 . S
C425 C87 1.053 . S
C449 C86 2.019 . S
C457 C48 1.998 . S
