# Generated by pormake.
# Topology wkd, (5)-cn, num edge types: 1
# Building blocks:
#     Node 0, Type 0, BuildingBlock: XOMCOT_clean_sbu_0, # of connection points: 5
#     Node 1, Type 0, BuildingBlock: XOMCOT_clean_sbu_0, # of connection points: 5
#     Node 2, Type 0, BuildingBlock: XOMCOT_clean_sbu_0, # of connection points: 5
#     Node 3, Type 0, BuildingBlock: XOMCOT_clean_sbu_0, # of connection points: 5
#     Node 4, Type 0, BuildingBlock: XOMCOT_clean_sbu_0, # of connection points: 5
#     Node 5, Type 0, BuildingBlock: XOMCOT_clean_sbu_0, # of connection points: 5
#     Node 6, Type 0, BuildingBlock: XOMCOT_clean_sbu_0, # of connection points: 5
#     Node 7, Type 0, BuildingBlock: XOMCOT_clean_sbu_0, # of connection points: 5
#     Node 8, Type 0, BuildingBlock: XOMCOT_clean_sbu_0, # of connection points: 5
#     Node 9, Type 0, BuildingBlock: XOMCOT_clean_sbu_0, # of connection points: 5
#     Node 10, Type 0, BuildingBlock: XOMCOT_clean_sbu_0, # of connection points: 5
#     Node 11, Type 0, BuildingBlock: XOMCOT_clean_sbu_0, # of connection points: 5
#     Edge 12, Type (0, 0), BuildingBlock: AJUNOK_clean_linker_0, # of connection points: 2
#     Edge 13, Type (0, 0), BuildingBlock: AJUNOK_clean_linker_0, # of connection points: 2
#     Edge 14, Type (0, 0), BuildingBlock: AJUNOK_clean_linker_0, # of connection points: 2
#     Edge 15, Type (0, 0), BuildingBlock: AJUNOK_clean_linker_0, # of connection points: 2
#     Edge 16, Type (0, 0), BuildingBlock: AJUNOK_clean_linker_0, # of connection points: 2
#     Edge 17, Type (0, 0), BuildingBlock: AJUNOK_clean_linker_0, # of connection points: 2
#     Edge 18, Type (0, 0), BuildingBlock: AJUNOK_clean_linker_0, # of connection points: 2
#     Edge 19, Type (0, 0), BuildingBlock: AJUNOK_clean_linker_0, # of connection points: 2
#     Edge 20, Type (0, 0), BuildingBlock: AJUNOK_clean_linker_0, # of connection points: 2
#     Edge 21, Type (0, 0), BuildingBlock: AJUNOK_clean_linker_0, # of connection points: 2
#     Edge 22, Type (0, 0), BuildingBlock: AJUNOK_clean_linker_0, # of connection points: 2
#     Edge 23, Type (0, 0), BuildingBlock: AJUNOK_clean_linker_0, # of connection points: 2
#     Edge 24, Type (0, 0), BuildingBlock: AJUNOK_clean_linker_0, # of connection points: 2
#     Edge 25, Type (0, 0), BuildingBlock: AJUNOK_clean_linker_0, # of connection points: 2
#     Edge 26, Type (0, 0), BuildingBlock: AJUNOK_clean_linker_0, # of connection points: 2
#     Edge 27, Type (0, 0), BuildingBlock: AJUNOK_clean_linker_0, # of connection points: 2
#     Edge 28, Type (0, 0), BuildingBlock: AJUNOK_clean_linker_0, # of connection points: 2
#     Edge 29, Type (0, 0), BuildingBlock: AJUNOK_clean_linker_0, # of connection points: 2
#     Edge 30, Type (0, 0), BuildingBlock: AJUNOK_clean_linker_0, # of connection points: 2
#     Edge 31, Type (0, 0), BuildingBlock: AJUNOK_clean_linker_0, # of connection points: 2
#     Edge 32, Type (0, 0), BuildingBlock: AJUNOK_clean_linker_0, # of connection points: 2
#     Edge 33, Type (0, 0), BuildingBlock: AJUNOK_clean_linker_0, # of connection points: 2
#     Edge 34, Type (0, 0), BuildingBlock: AJUNOK_clean_linker_0, # of connection points: 2
#     Edge 35, Type (0, 0), BuildingBlock: AJUNOK_clean_linker_0, # of connection points: 2
#     Edge 36, Type (0, 0), BuildingBlock: AJUNOK_clean_linker_0, # of connection points: 2
#     Edge 37, Type (0, 0), BuildingBlock: AJUNOK_clean_linker_0, # of connection points: 2
#     Edge 38, Type (0, 0), BuildingBlock: AJUNOK_clean_linker_0, # of connection points: 2
#     Edge 39, Type (0, 0), BuildingBlock: AJUNOK_clean_linker_0, # of connection points: 2
#     Edge 40, Type (0, 0), BuildingBlock: AJUNOK_clean_linker_0, # of connection points: 2
#     Edge 41, Type (0, 0), BuildingBlock: AJUNOK_clean_linker_0, # of connection points: 2
# Relax obj value: 0.125
# Max RMSD: 0.194
# Mean RMSD: 0.192
data_MOF--net-wkd--node1-XOMCOT_clean_sbu_0--edge1-AJUNOK_clean_linker_0
_symmetry_space_group_name_H-M    P1
_symmetry_Int_Tables_number       1
_symmetry_cell_setting            triclinic
loop_
_symmetry_equiv_pos_as_xyz
'x, y, z'
_cell_length_a     19.331603
_cell_length_b     19.298935
_cell_length_c     82.544002
_cell_angle_alpha  89.944738
_cell_angle_beta   90.115251
_cell_angle_gamma 119.2657
loop_
_atom_site_label
_atom_site_type_symbol
_atom_site_fract_x
_atom_site_fract_y
_atom_site_fract_z
_atom_type_partial_charge
Co0 Co 0.97543 0.29371 0.05813 0.0
C1 C 0.91956 0.39266 0.03989 0.0
C2 C 0.91987 0.30138 0.02516 0.0
C3 C 0.89558 0.34444 1.01579 0.0
N4 N 0.93525 0.33147 0.04034 0.0
N5 N 0.89598 0.40205 0.02504 0.0
H6 H 0.92538 0.43018 0.05004 0.0
H7 H 0.92856 0.25328 0.0209 0.0
C8 C 0.93669 0.13594 0.04261 0.0
O9 O 1.00273 0.14119 0.04796 0.0
N10 N 1.01014 0.2524 0.0762 0.0
C11 C 0.07215 0.29545 0.0861 0.0
C12 C 0.08225 0.24469 0.09634 0.0
C13 C 0.98139 0.17612 0.08111 0.0
N14 N 1.02578 0.16941 0.09311 0.0
C15 C 0.10039 0.38778 0.03576 0.0
C16 C 0.19966 0.32598 0.04172 0.0
C17 C 0.22315 0.38812 0.03062 0.0
C18 C 0.17249 0.41898 0.02774 0.0
C19 C 0.12564 0.29518 0.04934 0.0
N20 N 0.07427 0.32338 0.04587 0.0
H21 H 0.06904 0.42054 0.03447 0.0
H22 H 0.1131 0.25144 0.05859 0.0
H23 H 0.11026 0.35905 0.08537 0.0
H24 H 0.93154 0.12611 0.07549 0.0
O25 O 1.0168 0.39347 0.069 0.0
O26 O 0.89457 0.29572 0.07239 0.0
O27 O 0.91375 0.18447 0.04743 0.0
C28 C 0.94856 0.36878 0.07581 0.0
H29 H 0.88093 0.33554 1.00303 0.0
H30 H 0.12959 0.26184 0.1051 0.0
H31 H 0.23922 0.30324 0.0449 0.0
H32 H 0.19078 0.47083 0.02012 0.0
Co33 Co 0.69422 0.94971 0.22757 0.0
C34 C 0.54762 0.92846 0.2098 0.0
C35 C 0.55661 0.82229 0.2117 0.0
C36 C 0.48656 0.80367 0.20406 0.0
N37 N 0.59629 0.90088 0.21499 0.0
N38 N 0.48122 0.87029 0.20296 0.0
H39 H 0.558 0.98818 0.21122 0.0
H40 H 0.5769 0.78085 0.2149 0.0
C41 C 0.73033 0.87827 0.19911 0.0
O42 O 0.6967 0.91064 0.19039 0.0
N43 N 0.79075 0.99456 0.24042 0.0
C44 C 0.83014 0.06942 0.24614 0.0
C45 C 0.90176 0.08286 0.25242 0.0
C46 C 0.83855 0.96299 0.2435 0.0
N47 N 0.90697 1.01603 0.25078 0.0
C48 C 0.71549 0.09193 0.2127 0.0
C49 C 0.85092 0.1291 0.19521 0.0
C50 C 0.8157 0.1773 0.19383 0.0
C51 C 0.7483 0.15892 0.20295 0.0
C52 C 0.81522 0.06131 0.20514 0.0
N53 N 0.74545 0.04094 0.21301 0.0
H54 H 0.66691 0.08279 0.22037 0.0
H55 H 0.84429 0.02608 0.20662 0.0
H56 H 0.80974 0.1124 0.24515 0.0
H57 H 0.82544 0.90402 0.2398 0.0
O58 O 0.64891 0.99418 0.24207 0.0
O59 O 0.63456 0.87386 0.24489 0.0
O60 O 0.7342 0.88707 0.21455 0.0
C61 C 0.61717 0.92775 0.24989 0.0
H62 H 0.44229 0.74562 0.19981 0.0
H63 H 0.94746 0.13814 0.2575 0.0
H64 H 0.90497 0.14356 0.18873 0.0
H65 H 0.72172 0.19705 0.20271 0.0
Co66 Co 0.77634 0.67691 0.39365 0.0
C67 C 0.64038 0.54736 0.37598 0.0
C68 C 0.75305 0.56414 0.36774 0.0
C69 C 0.69432 0.50415 0.35886 0.0
N70 N 0.71947 0.59202 0.3783 0.0
N71 N 0.62385 0.49367 0.36406 0.0
H72 H 0.59619 0.55383 0.38283 0.0
H73 H 0.81588 0.58489 0.3667 0.0
C74 C 0.90852 0.79014 0.37227 0.0
O75 O 0.89282 0.8463 0.37673 0.0
N76 N 0.83611 0.76174 0.40956 0.0
C77 C 0.80751 0.7761 0.42335 0.0
C78 C 0.8677 0.83917 0.43144 0.0
C79 C 0.91506 0.81447 0.41011 0.0
N80 N 0.93515 0.86404 0.42298 0.0
C81 C 0.69292 0.76542 0.39209 0.0
C82 C 0.68522 0.76993 0.35868 0.0
C83 C 0.64224 0.79647 0.36797 0.0
C84 C 0.64783 0.79544 0.38486 0.0
C85 C 0.72986 0.74035 0.36642 0.0
N86 N 0.73351 0.73827 0.38298 0.0
H87 H 0.69045 0.75936 0.40503 0.0
H88 H 0.75818 0.7153 0.35906 0.0
H89 H 0.74694 0.74285 0.4275 0.0
H90 H 0.95818 0.81545 0.40172 0.0
O91 O 0.69196 0.62314 0.40891 0.0
O92 O 0.79496 0.60277 0.40672 0.0
O93 O 0.87105 0.72072 0.3785 0.0
C94 C 0.72741 0.58445 0.41364 0.0
H95 H 0.70243 0.46891 0.34964 0.0
H96 H 0.86209 0.86543 0.4426 0.0
H97 H 0.68087 0.76783 0.34558 0.0
H98 H 0.61484 0.81469 0.39248 0.0
Co99 Co 0.12059 0.7554 0.55976 0.0
C100 C 0.17434 0.6482 0.54411 0.0
C101 C 0.15541 0.7217 0.52716 0.0
C102 C 0.18093 0.67716 0.51877 0.0
N103 N 0.15238 0.7049 0.54311 0.0
N104 N 0.19306 0.6314 0.52942 0.0
H105 H 0.17658 0.61952 0.55515 0.0
H106 H 0.13911 0.76293 0.52184 0.0
C107 C 0.16148 0.91467 0.54294 0.0
O108 O 0.11477 0.92895 0.55208 0.0
N109 N 0.08939 0.80715 0.57633 0.0
C110 C 1.01919 0.77355 0.58411 0.0
C111 C 1.01541 0.82988 0.59376 0.0
C112 C 0.12885 0.88277 0.582 0.0
N113 N 0.08385 0.89884 0.59225 0.0
C114 C 0.98062 0.63172 0.54612 0.0
C115 C 0.90177 0.71449 0.53868 0.0
C116 C 0.86524 0.6331 0.53544 0.0
C117 C 0.90541 0.59167 0.53926 0.0
C118 C 0.97729 0.75235 0.54582 0.0
N119 N 1.0169 0.71147 0.54914 0.0
H120 H 1.00949 0.59778 0.5493 0.0
H121 H 1.00058 0.81273 0.54934 0.0
H122 H 0.97227 0.71318 0.58226 0.0
H123 H 0.1873 0.92664 0.57793 0.0
O124 O 0.09218 0.66802 0.5744 0.0
O125 O 0.21228 0.77268 0.57309 0.0
O126 O 0.17046 0.85392 0.54524 0.0
C127 C 0.1645 0.70396 0.57967 0.0
H128 H 0.18927 0.67763 0.50579 0.0
H129 H 0.96419 0.82225 0.60052 0.0
H130 H 0.87113 0.74775 0.53628 0.0
H131 H 0.87838 0.52833 0.53709 0.0
Co132 Co 0.38033 0.10319 0.72723 0.0
C133 C 0.51263 0.12336 0.70559 0.0
C134 C 0.48588 0.21889 0.70395 0.0
C135 C 0.55331 0.23935 0.69522 0.0
N136 N 0.46036 0.14651 0.71052 0.0
N137 N 0.57039 0.17975 0.69632 0.0
H138 H 0.51236 0.0701 0.70981 0.0
H139 H 0.4611 0.2572 0.70645 0.0
C140 C 0.25013 0.11672 0.71061 0.0
O141 O 0.20258 0.04322 0.71525 0.0
N142 N 0.29989 0.06483 0.74452 0.0
C143 C 0.28477 1.00889 0.75592 0.0
C144 C 0.22066 0.99816 0.76509 0.0
C145 C 0.24825 0.09155 0.74799 0.0
N146 N 0.19748 0.05002 0.76003 0.0
C147 C 0.30746 0.93499 0.72203 0.0
C148 C 0.27101 0.93436 0.68964 0.0
C149 C 0.25113 0.86187 0.69724 0.0
C150 C 0.27045 0.86327 0.71364 0.0
C151 C 0.30917 1.0053 0.69851 0.0
N152 N 0.32355 1.00473 0.71475 0.0
H153 H 0.32657 0.93433 0.7342 0.0
H154 H 0.32729 0.06079 0.69226 0.0
H155 H 0.31821 0.97824 0.75777 0.0
H156 H 0.24617 0.13938 0.74162 0.0
O157 O 0.44664 0.07327 0.73946 0.0
O158 O 0.45247 0.19035 0.74147 0.0
O159 O 0.32242 0.15233 0.71539 0.0
C160 C 0.48099 0.14387 0.74565 0.0
H161 H 0.59015 0.29597 0.68938 0.0
H162 H 0.19306 0.95538 0.77475 0.0
H163 H 0.25818 0.93659 0.67694 0.0
H164 H 0.26011 0.80954 0.71983 0.0
Co165 Co 0.29462 0.37251 0.89384 0.0
C166 C 0.41121 0.51629 0.87576 0.0
C167 C 0.29037 0.48974 0.87247 0.0
C168 C 0.33892 0.56145 0.86529 0.0
N169 N 0.33532 0.46117 0.87899 0.0
N170 N 0.41455 0.57823 0.86745 0.0
H171 H 0.46254 0.51374 0.88026 0.0
H172 H 0.22692 0.46314 0.87384 0.0
C173 C 0.15797 0.24816 0.87553 0.0
O174 O 0.18562 0.20085 0.87997 0.0
N175 N 0.24895 0.28397 0.90942 0.0
C176 C 0.28619 0.25885 0.91982 0.0
C177 C 0.23051 0.1937 0.92823 0.0
C178 C 0.17068 0.2368 0.91276 0.0
N179 N 0.15788 0.17973 0.92373 0.0
C180 C 0.39406 0.30376 0.88721 0.0
C181 C 0.3659 0.2823 0.8543 0.0
C182 C 0.41745 0.25938 0.86147 0.0
C183 C 0.43141 0.27084 0.87813 0.0
C184 C 0.32919 0.31483 0.86392 0.0
N185 N 0.34059 0.32186 0.88036 0.0
H186 H 0.41205 0.31863 0.89957 0.0
H187 H 0.29227 0.33521 0.8581 0.0
H188 H 0.34925 0.28634 0.92173 0.0
H189 H 0.12345 0.24236 0.90696 0.0
O190 O 0.38501 0.43 0.90753 0.0
O191 O 0.27488 0.43798 0.90943 0.0
O192 O 0.19205 0.32 0.88072 0.0
C193 C 0.34714 0.46138 0.9145 0.0
H194 H 0.32045 0.60025 0.85954 0.0
H195 H 0.24243 0.1592 0.93703 0.0
H196 H 0.35502 0.27634 0.84136 0.0
H197 H 0.47412 0.25809 0.88401 0.0
Co198 Co 0.77045 0.10631 0.80765 0.0
C199 C 0.65204 0.13213 0.82592 0.0
C200 C 0.77216 0.22484 0.82956 0.0
C201 C 0.72242 0.24765 0.83667 0.0
N202 N 0.72839 0.15257 0.82283 0.0
N203 N 0.64728 0.18975 0.83429 0.0
H204 H 0.60139 0.07945 0.82117 0.0
H205 H 0.8356 0.26128 0.82835 0.0
C206 C 0.90679 0.1181 0.82668 0.0
O207 O 0.88074 0.04346 0.82266 0.0
N208 N 0.81726 0.06501 0.79175 0.0
C209 C 0.7802 1.01036 0.78 0.0
C210 C 0.83536 0.99893 0.77157 0.0
C211 C 0.89557 0.09032 0.78926 0.0
N212 N 0.90797 0.04915 0.77743 0.0
C213 C 0.67796 0.93823 0.81358 0.0
C214 C 0.69563 0.94496 0.84686 0.0
C215 C 0.64732 0.87124 0.8395 0.0
C216 C 0.63936 0.8685 0.82263 0.0
C217 C 0.73343 1.01355 0.83732 0.0
N218 N 0.72615 1.00955 0.82079 0.0
H219 H 0.66511 0.93481 0.80088 0.0
H220 H 0.76768 0.07022 0.84328 0.0
H221 H 0.71755 0.98158 0.77732 0.0
H222 H 0.94312 0.13752 0.796 0.0
O223 O 0.67908 0.07572 0.7941 0.0
O224 O 0.789 0.19219 0.79258 0.0
O225 O 0.87279 0.15529 0.82079 0.0
C226 C 0.7162 0.1458 0.7877 0.0
H227 H 0.73969 0.30418 0.84244 0.0
H228 H 0.82312 0.95743 0.76173 0.0
H229 H 0.70276 0.94989 0.8599 0.0
H230 H 0.6001 0.81334 0.8165 0.0
Co231 Co 0.69199 0.75859 0.97393 0.0
C232 C 0.57349 0.63299 0.99544 0.0
C233 C 0.59274 0.74912 1.00163 0.0
C234 C 0.53457 0.69457 1.01154 0.0
N235 N 0.6175 0.71065 0.99158 0.0
N236 N 0.52251 0.62189 1.00759 0.0
H237 H 0.57655 0.58547 0.98917 0.0
H238 H 0.6122 0.81196 1.00123 0.0
C239 C 0.81242 0.90321 0.99134 0.0
O240 O 0.86519 0.8831 0.98669 0.0
N241 N 0.7659 0.80977 0.95571 0.0
C242 C 0.77383 0.77386 0.94233 0.0
C243 C 0.83528 0.82875 0.93301 0.0
C244 C 0.81937 0.88784 0.95345 0.0
N245 N 0.86419 0.90045 0.94006 0.0
C246 C 0.78693 0.68288 0.97546 0.0
C247 C 0.80054 0.68434 1.00881 0.0
C248 C 0.8217 0.63656 0.99964 0.0
C249 C 0.81734 0.63854 0.98277 0.0
C250 C 0.77042 0.72843 1.00096 0.0
N251 N 0.76233 0.72615 0.98443 0.0
H252 H 0.77682 0.67599 0.96266 0.0
H253 H 0.74888 0.76028 1.00828 0.0
H254 H 0.73876 0.71134 0.93955 0.0
H255 H 0.8269 0.93522 0.9614 0.0
O256 O 0.63439 0.66313 0.96164 0.0
O257 O 0.60594 0.76064 0.96127 0.0
O258 O 0.74049 0.86317 0.98641 0.0
C259 C 0.58737 0.68855 0.95672 0.0
H260 H 0.49954 0.70656 0.02015 0.0
H261 H 0.85796 0.81666 0.92202 0.0
H262 H 0.80218 0.68349 0.02192 0.0
H263 H 0.83287 0.6021 0.97529 0.0
Co264 Co 0.9601 0.67901 0.14027 0.0
C265 C 0.93302 0.53061 0.15776 0.0
C266 C 0.83122 0.54722 0.15698 0.0
C267 C 0.80863 0.47381 0.16344 0.0
N268 N 0.9095 0.5839 0.1536 0.0
N269 N 0.87259 0.46363 0.16393 0.0
H270 H 0.99037 0.53673 0.15528 0.0
H271 H 0.79196 0.57051 0.15404 0.0
C272 C 0.89195 0.72415 0.1681 0.0
O273 O 0.92391 0.6924 0.17751 0.0
N274 N 1.00689 0.77277 0.12656 0.0
C275 C 0.07568 0.80141 0.11841 0.0
C276 C 0.0905 0.8709 0.1108 0.0
C277 C 0.98072 0.82527 0.12379 0.0
N278 N 1.03089 0.88616 0.11418 0.0
C279 C 0.10199 0.69884 0.15493 0.0
C280 C 0.14735 0.84134 0.17051 0.0
C281 C 0.19667 0.80713 0.17131 0.0
C282 C 0.17311 0.73519 0.16339 0.0
C283 C 0.07608 0.80285 0.16168 0.0
N284 N 0.0526 0.73065 0.15451 0.0
H285 H 0.08927 0.64684 0.14802 0.0
H286 H 0.04134 0.83243 0.16022 0.0
H287 H 0.11331 0.77446 0.11824 0.0
H288 H 0.92769 0.82053 0.12916 0.0
O289 O 1.00033 0.62772 0.12626 0.0
O290 O 0.88223 0.61821 0.12332 0.0
O291 O 0.90087 0.72447 0.15271 0.0
C292 C 0.93378 0.59739 0.1185 0.0
H293 H 0.7492 0.42996 0.167 0.0
H294 H 0.14178 0.90777 0.10343 0.0
H295 H 0.165 0.89826 0.17614 0.0
H296 H 0.21052 0.70783 0.16343 0.0
Co297 Co 0.30991 0.96713 0.30974 0.0
C298 C 0.40715 0.90632 0.32728 0.0
C299 C 0.3251 0.91967 0.34264 0.0
C300 C 0.36715 0.89417 0.35194 0.0
N301 N 0.34974 0.92738 0.32713 0.0
N302 N 0.4189 0.88605 0.34231 0.0
H303 H 0.43956 0.90518 0.31677 0.0
H304 H 0.28092 0.93389 0.34703 0.0
C305 C 0.13438 0.89979 0.32013 0.0
O306 O 0.11955 0.94441 0.31038 0.0
N307 N 0.26957 1.007 0.29244 0.0
C308 C 0.30147 0.08398 0.28831 0.0
C309 C 0.25187 0.09244 0.27755 0.0
C310 C 0.20326 0.96887 0.28319 0.0
N311 N 0.18864 1.02038 0.27449 0.0
C312 C 0.41153 0.09947 0.32869 0.0
C313 C 0.31226 0.1622 0.33434 0.0
C314 C 0.39086 0.20314 0.33976 0.0
C315 C 0.44009 0.17034 0.33713 0.0
C316 C 0.28527 0.08989 0.32608 0.0
N317 N 0.33524 0.05991 0.32315 0.0
H318 H 0.45194 0.0772 0.32619 0.0
H319 H 0.22616 0.0614 0.32132 0.0
H320 H 0.35495 0.13165 0.29353 0.0
H321 H 0.16446 0.90535 0.28366 0.0
O322 O 0.40947 1.01195 0.29867 0.0
O323 O 0.31318 0.8894 0.29472 0.0
O324 O 0.20198 0.90287 0.3204 0.0
C325 C 0.38585 0.9445 0.29151 0.0
H326 H 0.36148 0.88421 0.36489 0.0
H327 H 0.25946 0.14876 0.27329 0.0
H328 H 0.27329 0.18719 0.33592 0.0
H329 H 0.50159 0.20126 0.34098 0.0
Co330 Co 0.39645 0.28474 0.47382 0.0
C331 C 0.52188 0.40182 0.49583 0.0
C332 C 0.4994 0.28223 0.4994 0.0
C333 C 0.55888 0.33111 0.50972 0.0
N334 N 0.47537 0.32611 0.49084 0.0
N335 N 0.57323 0.40611 0.50745 0.0
H336 H 0.51901 0.45241 0.49094 0.0
H337 H 0.47745 0.21933 0.49784 0.0
C338 C 0.27238 0.13995 0.49029 0.0
O339 O 0.22232 0.16416 0.48589 0.0
N340 N 0.31837 0.23916 0.45615 0.0
C341 C 0.30574 0.27694 0.44364 0.0
C342 C 0.24563 0.22196 0.43398 0.0
C343 C 0.26951 0.16103 0.45298 0.0
N344 N 0.22246 0.14888 0.43997 0.0
C345 C 0.30983 0.36836 0.47815 0.0
C346 C 0.29891 0.35668 0.51154 0.0
C347 C 0.27913 0.4087 0.50357 0.0
C348 C 0.28189 0.41178 0.48666 0.0
C349 C 0.3263 0.31344 0.50248 0.0
N350 N 0.33274 0.32051 0.48594 0.0
H351 H 0.31898 0.37898 0.46539 0.0
H352 H 0.34676 0.27795 0.50888 0.0
H353 H 0.33794 0.34021 0.44147 0.0
H354 H 0.26864 0.11293 0.45981 0.0
O355 O 0.45584 0.38097 0.46196 0.0
O356 O 0.47555 0.27773 0.45989 0.0
O357 O 0.34471 0.17847 0.4856 0.0
C358 C 0.49732 0.35131 0.45592 0.0
H359 H 0.59187 0.31351 0.51777 0.0
H360 H 0.21959 0.23534 0.42366 0.0
H361 H 0.29804 0.35329 0.52464 0.0
H362 H 0.26718 0.45152 0.48009 0.0
Co363 Co 0.11384 0.36729 0.64188 0.0
C364 C 0.12108 0.49866 0.6623 0.0
C365 C 0.22087 0.47963 0.66546 0.0
C366 C 0.23581 0.54721 0.67367 0.0
N367 N 0.14923 0.44912 0.6583 0.0
N368 N 0.17352 0.55933 0.6716 0.0
H369 H 0.06628 0.49331 0.6577 0.0
H370 H 0.26256 0.45831 0.66366 0.0
C371 C 0.12806 0.2431 0.66061 0.0
O372 O 0.05578 0.19427 0.65552 0.0
N373 N 0.08506 0.28589 0.6249 0.0
C374 C 0.03894 0.27258 0.61166 0.0
C375 C 1.03656 0.21057 0.60282 0.0
C376 C 0.11409 0.23484 0.62312 0.0
N377 N 0.08293 0.1861 0.61025 0.0
C378 C 0.94376 0.27755 0.645 0.0
C379 C 0.94004 0.26852 0.67843 0.0
C380 C 0.86835 0.23834 0.6699 0.0
C381 C 0.87081 0.24227 0.65297 0.0
C382 C 1.01182 0.30271 0.66998 0.0
N383 N 1.01333 0.30648 0.6534 0.0
H384 H 0.94386 0.28546 0.63213 0.0
H385 H 0.06647 0.32788 0.67683 0.0
H386 H 1.00924 0.30575 0.60845 0.0
H387 H 0.15908 0.23407 0.63075 0.0
O388 O 0.08054 0.4276 0.62862 0.0
O389 O 0.20174 0.44383 0.62816 0.0
O390 O 0.16431 0.3147 0.65526 0.0
C391 C 0.15233 0.4677 0.62326 0.0
H392 H 0.29083 0.58796 0.67963 0.0
H393 H 1.00232 0.18463 0.59193 0.0
H394 H 0.94069 0.26801 0.69156 0.0
H395 H 0.81701 0.22286 0.64596 0.0
C396 C 0.78952 0.96684 1.0159 0.0
C397 C 0.83778 0.97065 1.00275 0.0
C398 C 0.81984 1.02309 0.02857 0.0
C399 C 0.89919 0.08434 0.0284 0.0
H400 H 0.7297 0.91764 1.0169 0.0
H401 H 0.78253 1.01615 0.0389 0.0
S402 S 0.0449 0.1285 0.99543 0.0
N403 N 0.96518 0.04686 0.98943 0.0
N404 N 1.02179 0.15146 1.01312 0.0
C405 C 0.94581 0.09176 1.0148 0.0
C406 C 0.9152 0.03518 1.00199 0.0
C407 C 0.84863 0.77027 0.19255 0.0
C408 C 0.84845 0.76198 0.17558 0.0
C409 C 0.80972 0.80694 0.20004 0.0
C410 C 0.76865 0.83692 0.1909 0.0
H411 H 0.87979 0.74894 0.20022 0.0
H412 H 0.81259 0.81234 0.21311 0.0
S413 S 0.74773 0.82823 0.14601 0.0
N414 N 0.80175 0.78531 0.14986 0.0
N415 N 0.72898 0.85423 0.1638 0.0
C416 C 0.76715 0.82823 0.17389 0.0
C417 C 0.80689 0.79087 0.16628 0.0
C418 C 0.04624 0.86951 0.36194 0.0
C419 C 0.96831 0.80781 0.35959 0.0
C420 C 0.10133 0.89568 0.34924 0.0
C421 C 0.07968 0.86176 0.33373 0.0
H422 H 0.06415 0.89888 0.37356 0.0
H423 H 0.15997 0.94549 0.35136 0.0
S424 S 0.88381 0.69687 0.32146 0.0
N425 N 0.8732 0.71105 0.34083 0.0
N426 N 0.97628 0.76218 0.31678 0.0
C427 C 1.00267 0.79873 0.33132 0.0
C428 C 0.94704 0.77101 0.34434 0.0
C429 C 0.29949 0.06726 0.51261 0.0
C430 C 0.24548 0.0727 0.50186 0.0
C431 C 0.27274 1.01248 0.52551 0.0
C432 C 0.19133 0.96176 0.528 0.0
H433 H 0.36239 0.10831 0.51161 0.0
H434 H 0.31554 1.01272 0.53403 0.0
S435 S 1.02676 0.9428 0.50194 0.0
N436 N 0.1073 1.01512 0.49359 0.0
N437 N 0.05782 0.91355 0.51783 0.0
C438 C 0.13739 0.96293 0.51678 0.0
C439 C 0.16428 1.01803 0.50369 0.0
C440 C 0.14773 0.10545 0.69078 0.0
C441 C 0.22146 0.1532 0.69829 0.0
C442 C 0.11964 0.13512 0.67849 0.0
C443 C 0.16365 0.2142 0.67308 0.0
H444 H 0.11112 0.04387 0.69425 0.0
H445 H 0.06229 0.09511 0.67327 0.0
S446 S 0.36032 0.365 0.68884 0.0
N447 N 0.33803 0.28441 0.69953 0.0
N448 N 0.28519 0.3402 0.6763 0.0
C449 C 0.23764 0.263 0.68045 0.0
C450 C 0.26645 0.23258 0.69307 0.0
C451 C 0.99908 0.10799 0.84645 0.0
C452 C 0.97144 0.15529 0.83893 0.0
C453 C 0.05768 0.13857 0.85843 0.0
C454 C 0.09208 0.21822 0.86351 0.0
H455 H 0.97513 0.04611 0.84317 0.0
H456 H 0.07635 0.09884 0.86365 0.0
S457 S 0.04103 0.36799 0.84777 0.0
N458 N 0.98304 0.2865 0.83748 0.0
N459 N 0.09349 0.34413 0.86009 0.0
C460 C 0.06489 0.26651 0.8562 0.0
C461 C 1.00472 0.23512 0.84389 0.0
C462 C 0.09584 0.09833 0.10254 0.0
C463 C 1.02422 0.09774 0.09901 0.0
C464 C 0.09708 0.02954 0.1076 0.0
C465 C 1.0268 0.95652 0.10942 0.0
H466 H 0.15198 0.1522 0.10106 0.0
H467 H 0.15398 0.03382 0.11015 0.0
S468 S 0.8229 0.92257 0.10213 0.0
N469 N 0.88056 1.01787 0.09816 0.0
N470 N 0.88293 0.88806 0.10735 0.0
C471 C 0.95444 0.95497 0.10614 0.0
C472 C 0.95318 0.02543 0.10095 0.0
C473 C 0.05129 0.06634 0.24991 0.0
C474 C 0.97544 1.00775 0.25477 0.0
C475 C 0.11988 0.06586 0.25537 0.0
C476 C 0.1163 1.00806 0.26638 0.0
H477 H 0.05762 0.11411 0.24206 0.0
H478 H 0.17656 0.11333 0.25134 0.0
S479 S 0.92953 0.83687 0.2816 0.0
N480 N 0.89914 0.88645 0.26998 0.0
N481 N 1.02737 0.88587 0.28075 0.0
C482 C 0.03986 0.94615 0.27058 0.0
C483 C 0.96976 0.94615 0.26471 0.0
C484 C 0.10765 1.01854 0.447 0.0
C485 C 0.15442 0.07451 0.43515 0.0
C486 C 1.03734 0.9492 0.44289 0.0
C487 C 1.01122 0.93215 0.42673 0.0
H488 H 0.12403 0.02975 0.45965 0.0
H489 H 1.00254 0.90892 0.45248 0.0
S490 S 0.11318 0.05726 0.39099 0.0
N491 N 0.17087 0.10617 0.40643 0.0
N492 N 1.03824 0.97665 0.39876 0.0
C493 C 0.05835 0.98643 0.41469 0.0
C494 C 0.12986 0.05738 0.41889 0.0
C495 C 0.10042 0.10157 0.58983 0.0
C496 C 0.09179 0.11788 0.60609 0.0
C497 C 0.10296 0.03226 0.58548 0.0
C498 C 0.09523 0.97566 0.59716 0.0
H499 H 0.10417 0.14227 0.58039 0.0
H500 H 0.10726 1.02124 0.5728 0.0
S501 S 0.07193 0.98985 0.64135 0.0
N502 N 0.07738 0.07196 0.63396 0.0
N503 N 0.07979 0.94114 0.62565 0.0
C504 C 0.08776 0.99177 0.61345 0.0
C505 C 0.0868 0.06299 0.61794 0.0
C506 C 0.05461 0.98041 0.76687 0.0
C507 C 0.12627 0.05187 0.76479 0.0
C508 C 0.98376 0.98023 0.77079 0.0
C509 C 0.98171 0.05149 0.77312 0.0
H510 H 0.05301 0.92405 0.76514 0.0
H511 H 0.93016 0.92373 0.77222 0.0
S512 S 0.15313 0.25475 0.76937 0.0
N513 N 0.19074 0.19593 0.76545 0.0
N514 N 0.05793 0.19558 0.77307 0.0
C515 C 0.05306 0.12342 0.77126 0.0
C516 C 0.1251 0.12361 0.767 0.0
C517 C 1.00403 0.96664 0.93117 0.0
C518 C 0.93656 0.97176 0.93577 0.0
C519 C 0.07602 0.03482 0.92748 0.0
C520 C 0.08327 0.11096 0.92791 0.0
H521 H 1.00151 0.90938 0.93072 0.0
H522 H 0.12634 0.02792 0.92404 0.0
S523 S 0.92472 0.15733 0.93905 0.0
N524 N 0.88191 0.05959 0.94058 0.0
N525 N 1.01699 0.18769 0.93329 0.0
C526 C 1.01628 0.11713 0.93233 0.0
C527 C 0.94313 0.04764 0.93639 0.0
C528 C 0.4436 0.52615 0.02868 0.0
C529 C 0.45439 0.54919 1.01234 0.0
C530 C 0.36969 0.46692 0.03433 0.0
C531 C 0.30419 0.4302 0.0238 0.0
H532 H 0.49134 0.55757 0.03727 0.0
H533 H 0.36216 0.45467 0.04721 0.0
S534 S 0.30362 0.46721 0.97976 0.0
N535 N 0.39529 0.52894 0.98564 0.0
N536 N 0.2566 0.41684 0.9961 0.0
C537 C 0.31594 0.44928 1.00724 0.0
C538 C 0.39104 0.50921 1.00154 0.0
C539 C 0.81221 0.31851 0.1632 0.0
C540 C 0.87251 0.39217 0.1688 0.0
C541 C 0.79974 0.2475 0.1703 0.0
C542 C 0.84703 0.24789 0.18329 0.0
H543 H 0.7717 0.31626 0.15387 0.0
H544 H 0.7491 0.19231 0.16644 0.0
S545 S 1.01657 0.4248 0.2015 0.0
N546 N 0.98378 0.46129 0.18715 0.0
N547 N 0.95967 0.32725 0.20074 0.0
C548 C 0.91108 0.32066 0.18823 0.0
C549 C 0.92407 0.39313 0.1809 0.0
C550 C 0.45311 0.80419 0.3599 0.0
C551 C 0.47456 0.86103 0.3475 0.0
C552 C 0.50743 0.78306 0.36619 0.0
C553 C 0.58561 0.81789 0.36035 0.0
H554 H 0.39372 0.77602 0.36485 0.0
H555 H 0.48803 0.73911 0.37577 0.0
S556 S 0.67223 0.96995 0.32802 0.0
N557 N 0.57969 0.9519 0.32957 0.0
N558 N 0.68191 0.91144 0.34137 0.0
C559 C 0.60763 0.87348 0.3477 0.0
C560 C 0.55212 0.89525 0.34128 0.0
C561 C 0.72535 0.52728 0.53834 0.0
C562 C 0.78379 0.5886 0.52895 0.0
C563 C 0.65329 0.4715 0.53146 0.0
C564 C 0.6372 0.47482 0.51495 0.0
H565 H 0.73736 0.51975 0.55085 0.0
H566 H 0.61156 0.42247 0.53885 0.0
S567 S 0.7684 0.6279 0.48554 0.0
N568 N 0.8191 0.65349 0.5027 0.0
N569 N 0.68324 0.54771 0.48967 0.0
C570 C 0.69279 0.53919 0.50571 0.0
C571 C 0.76641 0.59634 0.51275 0.0
C572 C 0.13818 0.63982 0.68911 0.0
C573 C 0.17545 0.6329 0.67516 0.0
C574 C 0.15838 0.71483 0.69548 0.0
C575 C 0.21722 0.78531 0.68818 0.0
H576 H 0.09747 0.58699 0.69572 0.0
H577 H 0.13103 0.71754 0.70673 0.0
S578 S 0.32555 0.79683 0.65028 0.0
N579 N 0.26734 0.70078 0.65332 0.0
N580 N 0.30726 0.84196 0.66531 0.0
C581 C 0.25037 0.77859 0.67348 0.0
C582 C 0.22914 0.70224 0.667 0.0
C583 C 0.46979 0.16489 0.85701 0.0
C584 C 0.46375 0.23139 0.85179 0.0
C585 C 0.52595 0.14712 0.85025 0.0
C586 C 0.57812 0.19569 0.83819 0.0
H587 H 0.43353 0.12874 0.86694 0.0
H588 H 0.53233 0.09858 0.85522 0.0
S589 S 0.58217 0.37137 0.81916 0.0
N590 N 0.51117 0.34191 0.83286 0.0
N591 N 0.61643 0.30811 0.82028 0.0
C592 C 0.56935 0.2589 0.83214 0.0
C593 C 0.51206 0.2768 0.83889 0.0
C594 C 0.59383 0.72561 0.84477 0.0
C595 C 0.59823 0.79832 0.84915 0.0
C596 C 0.53728 0.65355 0.85175 0.0
C597 C 0.48294 0.65198 0.86318 0.0
H598 H 0.63221 0.72415 0.83539 0.0
H599 H 0.53265 0.59839 0.84748 0.0
S600 S 0.47319 0.82504 0.87983 0.0
N601 N 0.54612 0.86379 0.86652 0.0
N602 N 0.44046 0.72838 0.87957 0.0
C603 C 0.4896 0.72422 0.86834 0.0
C604 C 0.5472 0.79747 0.86137 0.0
C605 C 0.81411 0.44063 1.00859 0.0
C606 C 0.87586 0.46125 0.01981 0.0
C607 C 0.79614 0.49758 1.00248 0.0
C608 C 0.83934 0.57756 1.00733 0.0
H609 H 0.77954 0.37986 1.00445 0.0
H610 H 0.74828 0.47895 0.99378 0.0
S611 S 1.00771 0.6631 0.03615 0.0
N612 N 0.98105 0.56772 0.03541 0.0
N613 N 0.94634 0.67484 0.02396 0.0
C614 C 0.90022 0.599 0.01877 0.0
C615 C 0.91879 0.54085 0.02499 0.0
C616 C 0.41281 0.87549 0.17848 0.0
C617 C 0.41751 0.87604 0.19542 0.0
C618 C 0.34255 0.86076 0.17067 0.0
C619 C 0.27455 0.84551 0.1796 0.0
H620 H 0.46223 0.88142 0.17129 0.0
H621 H 0.33963 0.85582 0.15758 0.0
S622 S 0.2595 0.84673 0.22432 0.0
N623 N 0.35147 0.86595 0.22093 0.0
N624 N 0.21841 0.83764 0.20629 0.0
C625 C 0.2804 0.8514 0.19656 0.0
C626 C 0.35223 0.86658 0.20448 0.0
C627 C 0.5344 0.41956 0.34184 0.0
C628 C 0.54839 0.43163 0.35857 0.0
C629 C 0.47461 0.34724 0.33578 0.0
C630 C 0.42742 0.28447 0.34628 0.0
H631 H 0.57426 0.46414 0.33339 0.0
H632 H 0.47042 0.33769 0.32279 0.0
S633 S 0.43257 0.2902 0.39111 0.0
N634 N 0.50395 0.37893 0.38559 0.0
N635 N 0.39205 0.24165 0.37414 0.0
C636 C 0.43571 0.29826 0.36304 0.0
C637 C 0.49618 0.37246 0.36923 0.0
C638 C 0.17815 0.49653 0.52943 0.0
C639 C 0.22191 0.57764 0.52543 0.0
C640 C 0.19898 0.44156 0.52303 0.0
C641 C 0.26418 0.46663 0.51252 0.0
H642 H 0.12533 0.47519 0.53679 0.0
H643 H 0.16181 0.37897 0.52564 0.0
S644 S 0.40462 0.67431 0.5007 0.0
N645 N 0.33782 0.6812 0.51199 0.0
N646 N 0.37765 0.57889 0.50014 0.0
C647 C 0.31126 0.54831 0.50946 0.0
C648 C 0.2899 0.60361 0.51586 0.0
C649 C 0.71582 0.25393 0.69588 0.0
C650 C 0.64464 0.18581 0.69162 0.0
C651 C 0.78855 0.26773 0.68956 0.0
C652 C 0.79264 0.21443 0.67852 0.0
H653 H 0.71473 0.29801 0.70383 0.0
H654 H 0.84136 0.32268 0.69267 0.0
S655 S 0.62361 1.02389 0.66459 0.0
N656 N 0.58275 0.06179 0.67673 0.0
N657 N 0.71971 0.0879 0.66451 0.0
C658 C 0.72219 0.14418 0.67473 0.0
C659 C 0.6481 0.1297 0.6814 0.0
C660 C 0.86774 0.4592 0.10689 0.0
C661 C 0.9209 0.54118 0.1052 0.0
C662 C 0.87366 0.40274 0.09689 0.0
C663 C 0.9339 0.42674 0.08514 0.0
H664 H 0.82502 0.43835 0.11668 0.0
H665 H 0.8339 0.34013 0.09898 0.0
S666 S 0.08265 0.63588 0.07521 0.0
N667 N 1.03081 0.64356 0.09025 0.0
N668 N 0.04297 0.53988 0.0716 0.0
C669 C 0.98417 0.50923 0.08286 0.0
C670 C 0.97746 0.56576 0.09286 0.0
C671 C 0.4785 0.86313 0.26103 0.0
C672 C 0.56027 0.91629 0.26295 0.0
C673 C 0.42148 0.86987 0.27065 0.0
C674 C 0.4446 0.93087 0.28225 0.0
H675 H 0.45829 0.81964 0.25136 0.0
H676 H 0.35913 0.82979 0.26842 0.0
S677 S 0.65268 0.07993 0.29273 0.0
N678 N 0.66142 0.02731 0.27795 0.0
N679 N 0.55657 0.0406 0.29594 0.0
C680 C 0.52677 0.98132 0.28475 0.0
C681 C 0.58393 0.97392 0.27511 0.0
C682 C 0.60734 0.48657 0.45046 0.0
C683 C 0.56967 0.40507 0.44658 0.0
C684 C 0.6653 0.54385 0.44045 0.0
C685 C 0.68887 0.52242 0.42614 0.0
H686 H 0.58877 0.50708 0.46094 0.0
H687 H 0.68811 0.60598 0.44342 0.0
S688 S 0.61619 0.31716 0.41121 0.0
N689 N 0.56575 0.30525 0.42811 0.0
N690 N 0.67528 0.41389 0.40909 0.0
C691 C 0.65655 0.44098 0.42264 0.0
C692 C 0.59688 0.38197 0.43294 0.0
C693 C 0.22553 0.62121 0.58901 0.0
C694 C 0.18689 0.66535 0.59264 0.0
C695 C 0.22011 0.56062 0.59952 0.0
C696 C 0.17514 0.54199 0.61386 0.0
H697 H 0.25529 0.62946 0.5775 0.0
H698 H 0.24616 0.52461 0.59582 0.0
S699 S 0.07456 0.64975 0.62995 0.0
N700 N 0.11158 0.69306 0.61242 0.0
N701 N 0.10067 0.58058 0.63196 0.0
C702 C 0.14236 0.59068 0.61812 0.0
C703 C 0.14847 0.65202 0.60758 0.0
C704 C 0.54946 0.17783 0.77264 0.0
C705 C 0.55279 0.1691 0.75581 0.0
C706 C 0.6079 0.17817 0.78293 0.0
C707 C 0.67213 0.17107 0.77673 0.0
H708 H 0.49834 0.17794 0.77797 0.0
H709 H 0.5999 0.17868 0.7959 0.0
S710 S 0.71143 0.15367 0.73354 0.0
N711 N 0.62851 0.15863 0.73341 0.0
N712 N 0.73803 0.16025 0.75275 0.0
C713 C 0.67892 0.16791 0.75992 0.0
C714 C 0.61922 0.16665 0.74947 0.0
C715 C 0.47831 0.65689 0.93582 0.0
C716 C 0.51356 0.63218 0.94784 0.0
C717 C 0.4168 0.60066 0.92579 0.0
C718 C 0.38741 0.51833 0.92785 0.0
H719 H 0.50192 0.7196 0.93341 0.0
H720 H 0.39633 0.62178 0.91569 0.0
S721 S 0.45215 0.42246 0.95864 0.0
N722 N 0.50915 0.51852 0.96174 0.0
N723 N 0.39284 0.41544 0.9436 0.0
C724 C 0.4179 0.49347 0.94058 0.0
C725 C 0.4811 0.54966 0.95038 0.0
loop_
_geom_bond_atom_site_label_1
_geom_bond_atom_site_label_2
_geom_bond_distance
_geom_bond_site_symmetry_2
_ccdc_geom_bond_type
Co0 N4 2.148 . S
Co0 N10 2.128 1_655 S
Co0 N20 2.194 1_655 S
Co0 O25 2.351 1_655 S
Co0 O26 2.155 . S
Co0 O27 2.096 . S
C1 N4 1.301 . S
C1 N5 1.328 . S
C1 H6 0.930 . S
C2 C3 1.333 . S
C2 N4 1.317 . S
C2 H7 0.930 . S
C3 C2 1.333 . S
C3 N5 1.350 . S
C3 H29 0.931 1_554 S
N4 Co0 2.148 . S
N4 C1 1.301 . S
N4 C2 1.317 . S
N5 C1 1.328 . S
N5 C3 1.350 . S
H6 C1 0.930 . S
H7 C2 0.930 . S
C8 O9 1.224 . S
C8 O27 1.247 . S
O9 C8 1.224 . S
N10 Co0 2.128 1_455 S
N10 C11 1.355 . S
N10 C13 1.311 1_455 S
C11 N10 1.355 . S
C11 C12 1.363 . S
C11 H23 0.929 . S
C12 C11 1.363 . S
C12 N14 1.375 . S
C12 H30 0.931 . S
C13 N10 1.311 1_655 S
C13 N14 1.347 1_655 S
C13 H24 0.929 . S
N14 C12 1.375 . S
N14 C13 1.347 1_455 S
C15 C18 1.365 . S
C15 N20 1.328 . S
C15 H21 0.929 . S
C16 C17 1.362 . S
C16 C19 1.378 . S
C16 H31 0.972 . S
C17 C16 1.362 . S
C17 C18 1.366 . S
C18 C15 1.365 . S
C18 C17 1.366 . S
C18 H32 0.930 . S
C19 C16 1.378 . S
C19 N20 1.315 . S
C19 H22 0.930 . S
N20 Co0 2.194 1_455 S
N20 C15 1.328 . S
N20 C19 1.315 . S
H21 C15 0.929 . S
H22 C19 0.930 . S
H23 C11 0.929 . S
H24 C13 0.929 . S
O25 Co0 2.351 1_455 S
O25 C28 1.244 1_455 S
O26 Co0 2.155 . S
O26 C28 1.240 . S
O27 Co0 2.096 . S
O27 C8 1.247 . S
C28 O25 1.244 1_655 S
C28 O26 1.240 . S
H29 C3 0.931 1_556 S
H30 C12 0.931 . S
H31 C16 0.972 . S
H32 C18 0.930 . S
Co33 N37 2.148 . S
Co33 N43 2.128 1_565 S
Co33 N53 2.194 1_565 S
Co33 O58 2.351 1_565 S
Co33 O59 2.155 . S
Co33 O60 2.096 . S
C34 N37 1.301 . S
C34 N38 1.328 . S
C34 H39 0.930 . S
C35 C36 1.333 . S
C35 N37 1.317 . S
C35 H40 0.930 . S
C36 C35 1.333 . S
C36 N38 1.350 . S
C36 H62 0.931 . S
N37 Co33 2.148 . S
N37 C34 1.301 . S
N37 C35 1.317 . S
N38 C34 1.328 . S
N38 C36 1.350 . S
H39 C34 0.930 . S
H40 C35 0.930 . S
C41 O42 1.224 . S
C41 O60 1.247 . S
O42 C41 1.224 . S
N43 Co33 2.128 1_545 S
N43 C44 1.355 . S
N43 C46 1.311 1_545 S
C44 N43 1.355 . S
C44 C45 1.363 . S
C44 H56 0.929 . S
C45 C44 1.363 . S
C45 N47 1.375 . S
C45 H63 0.931 . S
C46 N43 1.311 1_565 S
C46 N47 1.347 1_565 S
C46 H57 0.929 . S
N47 C45 1.375 . S
N47 C46 1.347 1_545 S
C48 C51 1.365 . S
C48 N53 1.328 . S
C48 H54 0.929 . S
C49 C50 1.362 . S
C49 C52 1.378 . S
C49 H64 0.929 . S
C50 C49 1.362 . S
C50 C51 1.366 . S
C51 C48 1.365 . S
C51 C50 1.366 . S
C51 H65 0.930 . S
C52 C49 1.378 . S
C52 N53 1.315 . S
C52 H55 0.930 . S
N53 Co33 2.194 1_545 S
N53 C48 1.328 . S
N53 C52 1.315 . S
H54 C48 0.929 . S
H55 C52 0.930 . S
H56 C44 0.929 . S
H57 C46 0.929 . S
O58 Co33 2.351 1_545 S
O58 C61 1.244 1_545 S
O59 Co33 2.155 . S
O59 C61 1.240 . S
O60 Co33 2.096 . S
O60 C41 1.247 . S
C61 O58 1.244 1_565 S
C61 O59 1.240 . S
H62 C36 0.931 . S
H63 C45 0.931 . S
H64 C49 0.929 . S
H65 C51 0.930 . S
Co66 N70 2.148 . S
Co66 N76 2.128 . S
Co66 N86 2.194 . S
Co66 O91 2.351 . S
Co66 O92 2.155 . S
Co66 O93 2.096 . S
C67 N70 1.301 . S
C67 N71 1.328 . S
C67 H72 0.930 . S
C68 C69 1.333 . S
C68 N70 1.317 . S
C68 H73 0.930 . S
C69 C68 1.333 . S
C69 N71 1.350 . S
C69 H95 0.931 . S
N70 Co66 2.148 . S
N70 C67 1.301 . S
N70 C68 1.317 . S
N71 C67 1.328 . S
N71 C69 1.350 . S
H72 C67 0.930 . S
H73 C68 0.930 . S
C74 O75 1.224 . S
C74 O93 1.247 . S
O75 C74 1.224 . S
N76 Co66 2.128 . S
N76 C77 1.355 . S
N76 C79 1.311 . S
C77 N76 1.355 . S
C77 C78 1.363 . S
C77 H89 0.929 . S
C78 C77 1.363 . S
C78 N80 1.375 . S
C78 H96 0.931 . S
C79 N76 1.311 . S
C79 N80 1.347 . S
C79 H90 0.929 . S
N80 C78 1.375 . S
N80 C79 1.347 . S
C81 C84 1.365 . S
C81 N86 1.328 . S
C81 H87 0.929 . S
C82 C83 1.362 . S
C82 C85 1.378 . S
C82 H97 0.929 . S
C83 C82 1.362 . S
C83 C84 1.366 . S
C84 C81 1.365 . S
C84 C83 1.366 . S
C84 H98 0.930 . S
C85 C82 1.378 . S
C85 N86 1.315 . S
C85 H88 0.930 . S
N86 Co66 2.194 . S
N86 C81 1.328 . S
N86 C85 1.315 . S
H87 C81 0.929 . S
H88 C85 0.930 . S
H89 C77 0.929 . S
H90 C79 0.929 . S
O91 Co66 2.351 . S
O91 C94 1.244 . S
O92 Co66 2.155 . S
O92 C94 1.240 . S
O93 Co66 2.096 . S
O93 C74 1.247 . S
C94 O91 1.244 . S
C94 O92 1.240 . S
H95 C69 0.931 . S
H96 C78 0.931 . S
H97 C82 0.929 . S
H98 C84 0.930 . S
Co99 N103 2.148 . S
Co99 N109 2.128 1_455 S
Co99 N119 2.194 1_455 S
Co99 O124 2.351 1_455 S
Co99 O125 2.155 . S
Co99 O126 2.096 . S
C100 N103 1.301 . S
C100 N104 1.328 . S
C100 H105 0.930 . S
C101 C102 1.333 . S
C101 N103 1.317 . S
C101 H106 0.930 . S
C102 C101 1.333 . S
C102 N104 1.350 . S
C102 H128 0.931 . S
N103 Co99 2.148 . S
N103 C100 1.301 . S
N103 C101 1.317 . S
N104 C100 1.328 . S
N104 C102 1.350 . S
H105 C100 0.930 . S
H106 C101 0.930 . S
C107 O108 1.224 . S
C107 O126 1.247 . S
O108 C107 1.224 . S
N109 Co99 2.128 1_655 S
N109 C110 1.355 . S
N109 C112 1.311 1_655 S
C110 N109 1.355 . S
C110 C111 1.363 . S
C110 H122 0.929 . S
C111 C110 1.363 . S
C111 N113 1.375 . S
C111 H129 0.931 . S
C112 N109 1.311 1_455 S
C112 N113 1.347 1_455 S
C112 H123 0.929 . S
N113 C111 1.375 . S
N113 C112 1.347 1_655 S
C114 C117 1.365 . S
C114 N119 1.328 . S
C114 H120 0.929 . S
C115 C116 1.362 . S
C115 C118 1.378 . S
C115 H130 0.929 . S
C116 C115 1.362 . S
C116 C117 1.366 . S
C117 C114 1.365 . S
C117 C116 1.366 . S
C117 H131 0.930 . S
C118 C115 1.378 . S
C118 N119 1.315 . S
C118 H121 0.930 . S
N119 Co99 2.194 1_655 S
N119 C114 1.328 . S
N119 C118 1.315 . S
H120 C114 0.929 . S
H121 C118 0.930 . S
H122 C110 0.929 . S
H123 C112 0.929 . S
O124 Co99 2.351 1_655 S
O124 C127 1.244 1_655 S
O125 Co99 2.155 . S
O125 C127 1.240 . S
O126 Co99 2.096 . S
O126 C107 1.247 . S
C127 O124 1.244 1_455 S
C127 O125 1.240 . S
H128 C102 0.931 . S
H129 C111 0.931 . S
H130 C115 0.929 . S
H131 C117 0.930 . S
Co132 N136 2.148 . S
Co132 N142 2.128 1_545 S
Co132 N152 2.194 1_545 S
Co132 O157 2.351 1_545 S
Co132 O158 2.155 . S
Co132 O159 2.096 . S
C133 N136 1.301 . S
C133 N137 1.328 . S
C133 H138 0.930 . S
C134 C135 1.333 . S
C134 N136 1.317 . S
C134 H139 0.930 . S
C135 C134 1.333 . S
C135 N137 1.350 . S
C135 H161 0.931 . S
N136 Co132 2.148 . S
N136 C133 1.301 . S
N136 C134 1.317 . S
N137 C133 1.328 . S
N137 C135 1.350 . S
H138 C133 0.930 . S
H139 C134 0.930 . S
C140 O141 1.224 . S
C140 O159 1.247 . S
O141 C140 1.224 . S
N142 Co132 2.128 1_565 S
N142 C143 1.355 . S
N142 C145 1.311 1_565 S
C143 N142 1.355 . S
C143 C144 1.363 . S
C143 H155 0.929 . S
C144 C143 1.363 . S
C144 N146 1.375 . S
C144 H162 0.931 . S
C145 N142 1.311 1_545 S
C145 N146 1.347 1_545 S
C145 H156 0.929 . S
N146 C144 1.375 . S
N146 C145 1.347 1_565 S
C147 C150 1.365 . S
C147 N152 1.328 . S
C147 H153 0.929 . S
C148 C149 1.362 . S
C148 C151 1.378 . S
C148 H163 0.929 . S
C149 C148 1.362 . S
C149 C150 1.366 . S
C150 C147 1.365 . S
C150 C149 1.366 . S
C150 H164 0.930 . S
C151 C148 1.378 . S
C151 N152 1.315 . S
C151 H154 0.930 . S
N152 Co132 2.194 1_565 S
N152 C147 1.328 . S
N152 C151 1.315 . S
H153 C147 0.929 . S
H154 C151 0.930 . S
H155 C143 0.929 . S
H156 C145 0.929 . S
O157 Co132 2.351 1_565 S
O157 C160 1.244 1_565 S
O158 Co132 2.155 . S
O158 C160 1.240 . S
O159 Co132 2.096 . S
O159 C140 1.247 . S
C160 O157 1.244 1_545 S
C160 O158 1.240 . S
H161 C135 0.931 . S
H162 C144 0.931 . S
H163 C148 0.929 . S
H164 C150 0.930 . S
Co165 N169 2.148 . S
Co165 N175 2.128 . S
Co165 N185 2.194 . S
Co165 O190 2.351 . S
Co165 O191 2.155 . S
Co165 O192 2.096 . S
C166 N169 1.301 . S
C166 N170 1.328 . S
C166 H171 0.930 . S
C167 C168 1.333 . S
C167 N169 1.317 . S
C167 H172 0.930 . S
C168 C167 1.333 . S
C168 N170 1.350 . S
C168 H194 0.931 . S
N169 Co165 2.148 . S
N169 C166 1.301 . S
N169 C167 1.317 . S
N170 C166 1.328 . S
N170 C168 1.350 . S
H171 C166 0.930 . S
H172 C167 0.930 . S
C173 O174 1.224 . S
C173 O192 1.247 . S
O174 C173 1.224 . S
N175 Co165 2.128 . S
N175 C176 1.355 . S
N175 C178 1.311 . S
C176 N175 1.355 . S
C176 C177 1.363 . S
C176 H188 0.929 . S
C177 C176 1.363 . S
C177 N179 1.375 . S
C177 H195 0.931 . S
C178 N175 1.311 . S
C178 N179 1.347 . S
C178 H189 0.929 . S
N179 C177 1.375 . S
N179 C178 1.347 . S
C180 C183 1.365 . S
C180 N185 1.328 . S
C180 H186 0.929 . S
C181 C182 1.362 . S
C181 C184 1.378 . S
C181 H196 0.929 . S
C182 C181 1.362 . S
C182 C183 1.366 . S
C183 C180 1.365 . S
C183 C182 1.366 . S
C183 H197 0.930 . S
C184 C181 1.378 . S
C184 N185 1.315 . S
C184 H187 0.930 . S
N185 Co165 2.194 . S
N185 C180 1.328 . S
N185 C184 1.315 . S
H186 C180 0.929 . S
H187 C184 0.930 . S
H188 C176 0.929 . S
H189 C178 0.929 . S
O190 Co165 2.351 . S
O190 C193 1.244 . S
O191 Co165 2.155 . S
O191 C193 1.240 . S
O192 Co165 2.096 . S
O192 C173 1.247 . S
C193 O190 1.244 . S
C193 O191 1.240 . S
H194 C168 0.931 . S
H195 C177 0.931 . S
H196 C181 0.929 . S
H197 C183 0.930 . S
Co198 N202 2.148 . S
Co198 N208 2.128 1_545 S
Co198 N218 2.194 1_545 S
Co198 O223 2.351 1_545 S
Co198 O224 2.155 . S
Co198 O225 2.096 . S
C199 N202 1.301 . S
C199 N203 1.328 . S
C199 H204 0.930 . S
C200 C201 1.333 . S
C200 N202 1.317 . S
C200 H205 0.930 . S
C201 C200 1.333 . S
C201 N203 1.350 . S
C201 H227 0.931 . S
N202 Co198 2.148 . S
N202 C199 1.301 . S
N202 C200 1.317 . S
N203 C199 1.328 . S
N203 C201 1.350 . S
H204 C199 0.930 . S
H205 C200 0.930 . S
C206 O207 1.224 . S
C206 O225 1.247 . S
O207 C206 1.224 . S
N208 Co198 2.128 1_565 S
N208 C209 1.355 . S
N208 C211 1.311 1_565 S
C209 N208 1.355 . S
C209 C210 1.363 . S
C209 H221 0.929 . S
C210 C209 1.363 . S
C210 N212 1.375 . S
C210 H228 0.931 . S
C211 N208 1.311 1_545 S
C211 N212 1.347 1_545 S
C211 H222 0.929 . S
N212 C210 1.375 . S
N212 C211 1.347 1_565 S
C213 C216 1.365 . S
C213 N218 1.328 . S
C213 H219 0.929 . S
C214 C215 1.362 . S
C214 C217 1.378 . S
C214 H229 0.929 . S
C215 C214 1.362 . S
C215 C216 1.366 . S
C216 C213 1.365 . S
C216 C215 1.366 . S
C216 H230 0.930 . S
C217 C214 1.378 . S
C217 N218 1.315 . S
C217 H220 0.930 . S
N218 Co198 2.194 1_565 S
N218 C213 1.328 . S
N218 C217 1.315 . S
H219 C213 0.929 . S
H220 C217 0.930 . S
H221 C209 0.929 . S
H222 C211 0.929 . S
O223 Co198 2.351 1_565 S
O223 C226 1.244 1_565 S
O224 Co198 2.155 . S
O224 C226 1.240 . S
O225 Co198 2.096 . S
O225 C206 1.247 . S
C226 O223 1.244 1_545 S
C226 O224 1.240 . S
H227 C201 0.931 . S
H228 C210 0.931 . S
H229 C214 0.929 . S
H230 C216 0.930 . S
Co231 N235 2.148 . S
Co231 N241 2.128 . S
Co231 N251 2.194 . S
Co231 O256 2.351 . S
Co231 O257 2.155 . S
Co231 O258 2.096 . S
C232 N235 1.301 . S
C232 N236 1.328 . S
C232 H237 0.930 . S
C233 C234 1.333 . S
C233 N235 1.317 . S
C233 H238 0.930 . S
C234 C233 1.333 . S
C234 N236 1.350 . S
C234 H260 0.931 1_556 S
N235 Co231 2.148 . S
N235 C232 1.301 . S
N235 C233 1.317 . S
N236 C232 1.328 . S
N236 C234 1.350 . S
H237 C232 0.930 . S
H238 C233 0.930 . S
C239 O240 1.224 . S
C239 O258 1.247 . S
O240 C239 1.224 . S
N241 Co231 2.128 . S
N241 C242 1.355 . S
N241 C244 1.311 . S
C242 N241 1.355 . S
C242 C243 1.363 . S
C242 H254 0.929 . S
C243 C242 1.363 . S
C243 N245 1.375 . S
C243 H261 0.931 . S
C244 N241 1.311 . S
C244 N245 1.347 . S
C244 H255 0.929 . S
N245 C243 1.375 . S
N245 C244 1.347 . S
C246 C249 1.365 . S
C246 N251 1.328 . S
C246 H252 0.929 . S
C247 C248 1.362 . S
C247 C250 1.378 . S
C247 H262 0.929 . S
C248 C247 1.362 . S
C248 C249 1.366 . S
C249 C246 1.365 . S
C249 C248 1.366 . S
C249 H263 0.930 . S
C250 C247 1.378 . S
C250 N251 1.315 . S
C250 H253 0.930 . S
N251 Co231 2.194 . S
N251 C246 1.328 . S
N251 C250 1.315 . S
H252 C246 0.929 . S
H253 C250 0.930 . S
H254 C242 0.929 . S
H255 C244 0.929 . S
O256 Co231 2.351 . S
O256 C259 1.244 . S
O257 Co231 2.155 . S
O257 C259 1.240 . S
O258 Co231 2.096 . S
O258 C239 1.247 . S
C259 O256 1.244 . S
C259 O257 1.240 . S
H260 C234 0.931 1_554 S
H261 C243 0.931 . S
H262 C247 0.929 . S
H263 C249 0.930 . S
Co264 N268 2.148 . S
Co264 N274 2.128 1_655 S
Co264 N284 2.194 1_655 S
Co264 O289 2.351 1_655 S
Co264 O290 2.155 . S
Co264 O291 2.096 . S
C265 N268 1.301 . S
C265 N269 1.328 . S
C265 H270 0.930 . S
C266 C267 1.333 . S
C266 N268 1.317 . S
C266 H271 0.930 . S
C267 C266 1.333 . S
C267 N269 1.350 . S
C267 H293 0.931 . S
N268 Co264 2.148 . S
N268 C265 1.301 . S
N268 C266 1.317 . S
N269 C265 1.328 . S
N269 C267 1.350 . S
H270 C265 0.930 . S
H271 C266 0.930 . S
C272 O273 1.224 . S
C272 O291 1.247 . S
O273 C272 1.224 . S
N274 Co264 2.128 1_455 S
N274 C275 1.355 . S
N274 C277 1.311 1_455 S
C275 N274 1.355 . S
C275 C276 1.363 . S
C275 H287 0.929 . S
C276 C275 1.363 . S
C276 N278 1.375 . S
C276 H294 0.931 . S
C277 N274 1.311 1_655 S
C277 N278 1.347 1_655 S
C277 H288 0.929 . S
N278 C276 1.375 . S
N278 C277 1.347 1_455 S
C279 C282 1.365 . S
C279 N284 1.328 . S
C279 H285 0.929 . S
C280 C281 1.362 . S
C280 C283 1.378 . S
C280 H295 0.929 . S
C281 C280 1.362 . S
C281 C282 1.366 . S
C282 C279 1.365 . S
C282 C281 1.366 . S
C282 H296 0.930 . S
C283 C280 1.378 . S
C283 N284 1.315 . S
C283 H286 0.930 . S
N284 Co264 2.194 1_455 S
N284 C279 1.328 . S
N284 C283 1.315 . S
H285 C279 0.929 . S
H286 C283 0.930 . S
H287 C275 0.929 . S
H288 C277 0.929 . S
O289 Co264 2.351 1_455 S
O289 C292 1.244 1_455 S
O290 Co264 2.155 . S
O290 C292 1.240 . S
O291 Co264 2.096 . S
O291 C272 1.247 . S
C292 O289 1.244 1_655 S
C292 O290 1.240 . S
H293 C267 0.931 . S
H294 C276 0.931 . S
H295 C280 0.929 . S
H296 C282 0.930 . S
Co297 N301 2.148 . S
Co297 N307 2.128 1_565 S
Co297 N317 2.194 1_565 S
Co297 O322 2.351 1_565 S
Co297 O323 2.155 . S
Co297 O324 2.096 . S
C298 N301 1.301 . S
C298 N302 1.328 . S
C298 H303 0.930 . S
C299 C300 1.333 . S
C299 N301 1.317 . S
C299 H304 0.930 . S
C300 C299 1.333 . S
C300 N302 1.350 . S
C300 H326 0.931 . S
N301 Co297 2.148 . S
N301 C298 1.301 . S
N301 C299 1.317 . S
N302 C298 1.328 . S
N302 C300 1.350 . S
H303 C298 0.930 . S
H304 C299 0.930 . S
C305 O306 1.224 . S
C305 O324 1.247 . S
O306 C305 1.224 . S
N307 Co297 2.128 1_545 S
N307 C308 1.355 . S
N307 C310 1.311 1_545 S
C308 N307 1.355 . S
C308 C309 1.363 . S
C308 H320 0.929 . S
C309 C308 1.363 . S
C309 N311 1.375 . S
C309 H327 0.931 . S
C310 N307 1.311 1_565 S
C310 N311 1.347 1_565 S
C310 H321 0.929 . S
N311 C309 1.375 . S
N311 C310 1.347 1_545 S
C312 C315 1.365 . S
C312 N317 1.328 . S
C312 H318 0.929 . S
C313 C314 1.362 . S
C313 C316 1.378 . S
C313 H328 0.929 . S
C314 C313 1.362 . S
C314 C315 1.366 . S
C315 C312 1.365 . S
C315 C314 1.366 . S
C315 H329 0.930 . S
C316 C313 1.378 . S
C316 N317 1.315 . S
C316 H319 0.930 . S
N317 Co297 2.194 1_545 S
N317 C312 1.328 . S
N317 C316 1.315 . S
H318 C312 0.929 . S
H319 C316 0.930 . S
H320 C308 0.929 . S
H321 C310 0.929 . S
O322 Co297 2.351 1_545 S
O322 C325 1.244 1_545 S
O323 Co297 2.155 . S
O323 C325 1.240 . S
O324 Co297 2.096 . S
O324 C305 1.247 . S
C325 O322 1.244 1_565 S
C325 O323 1.240 . S
H326 C300 0.931 . S
H327 C309 0.931 . S
H328 C313 0.929 . S
H329 C315 0.930 . S
Co330 N334 2.148 . S
Co330 N340 2.128 . S
Co330 N350 2.194 . S
Co330 O355 2.351 . S
Co330 O356 2.155 . S
Co330 O357 2.096 . S
C331 N334 1.301 . S
C331 N335 1.328 . S
C331 H336 0.930 . S
C332 C333 1.333 . S
C332 N334 1.317 . S
C332 H337 0.930 . S
C333 C332 1.333 . S
C333 N335 1.350 . S
C333 H359 0.931 . S
N334 Co330 2.148 . S
N334 C331 1.301 . S
N334 C332 1.317 . S
N335 C331 1.328 . S
N335 C333 1.350 . S
H336 C331 0.930 . S
H337 C332 0.930 . S
C338 O339 1.224 . S
C338 O357 1.247 . S
O339 C338 1.224 . S
N340 Co330 2.128 . S
N340 C341 1.355 . S
N340 C343 1.311 . S
C341 N340 1.355 . S
C341 C342 1.363 . S
C341 H353 0.929 . S
C342 C341 1.363 . S
C342 N344 1.375 . S
C342 H360 0.931 . S
C343 N340 1.311 . S
C343 N344 1.347 . S
C343 H354 0.929 . S
N344 C342 1.375 . S
N344 C343 1.347 . S
C345 C348 1.365 . S
C345 N350 1.328 . S
C345 H351 0.929 . S
C346 C347 1.362 . S
C346 C349 1.378 . S
C346 H361 0.929 . S
C347 C346 1.362 . S
C347 C348 1.366 . S
C348 C345 1.365 . S
C348 C347 1.366 . S
C348 H362 0.930 . S
C349 C346 1.378 . S
C349 N350 1.315 . S
C349 H352 0.930 . S
N350 Co330 2.194 . S
N350 C345 1.328 . S
N350 C349 1.315 . S
H351 C345 0.929 . S
H352 C349 0.930 . S
H353 C341 0.929 . S
H354 C343 0.929 . S
O355 Co330 2.351 . S
O355 C358 1.244 . S
O356 Co330 2.155 . S
O356 C358 1.240 . S
O357 Co330 2.096 . S
O357 C338 1.247 . S
C358 O355 1.244 . S
C358 O356 1.240 . S
H359 C333 0.931 . S
H360 C342 0.931 . S
H361 C346 0.929 . S
H362 C348 0.930 . S
Co363 N367 2.148 . S
Co363 N373 2.128 1_455 S
Co363 N383 2.194 1_455 S
Co363 O388 2.351 1_455 S
Co363 O389 2.155 . S
Co363 O390 2.096 . S
C364 N367 1.301 . S
C364 N368 1.328 . S
C364 H369 0.930 . S
C365 C366 1.333 . S
C365 N367 1.317 . S
C365 H370 0.930 . S
C366 C365 1.333 . S
C366 N368 1.350 . S
C366 H392 0.931 . S
N367 Co363 2.148 . S
N367 C364 1.301 . S
N367 C365 1.317 . S
N368 C364 1.328 . S
N368 C366 1.350 . S
H369 C364 0.930 . S
H370 C365 0.930 . S
C371 O372 1.224 . S
C371 O390 1.247 . S
O372 C371 1.224 . S
N373 Co363 2.128 1_655 S
N373 C374 1.355 . S
N373 C376 1.311 1_655 S
C374 N373 1.355 . S
C374 C375 1.363 . S
C374 H386 0.929 . S
C375 C374 1.363 . S
C375 N377 1.375 . S
C375 H393 0.931 . S
C376 N373 1.311 1_455 S
C376 N377 1.347 1_455 S
C376 H387 0.929 . S
N377 C375 1.375 . S
N377 C376 1.347 1_655 S
C378 C381 1.365 . S
C378 N383 1.328 . S
C378 H384 0.929 . S
C379 C380 1.362 . S
C379 C382 1.378 . S
C379 H394 0.929 . S
C380 C379 1.362 . S
C380 C381 1.366 . S
C381 C378 1.365 . S
C381 C380 1.366 . S
C381 H395 0.930 . S
C382 C379 1.378 . S
C382 N383 1.315 . S
C382 H385 0.930 . S
N383 Co363 2.194 1_655 S
N383 C378 1.328 . S
N383 C382 1.315 . S
H384 C378 0.929 . S
H385 C382 0.930 . S
H386 C374 0.929 . S
H387 C376 0.929 . S
O388 Co363 2.351 1_655 S
O388 C391 1.244 1_655 S
O389 Co363 2.155 . S
O389 C391 1.240 . S
O390 Co363 2.096 . S
O390 C371 1.247 . S
C391 O388 1.244 1_455 S
C391 O389 1.240 . S
H392 C366 0.931 . S
H393 C375 0.931 . S
H394 C379 0.929 . S
H395 C381 0.930 . S
C396 C397 1.369 1_554 S
C396 C398 1.419 1_565 S
C396 H400 0.930 . S
C397 C396 1.369 1_556 S
C397 C406 1.429 1_565 S
C398 C396 1.419 1_545 S
C398 C399 1.363 . S
C398 H401 0.929 . S
C399 C398 1.363 . S
C399 C405 1.428 1_554 S
H400 C396 0.930 . S
H401 C398 0.929 . S
S402 N403 1.613 . S
S402 N404 1.610 . S
N403 S402 1.613 . S
N403 C406 1.350 . S
N404 S402 1.610 . S
N404 C405 1.351 . S
C405 C399 1.428 1_556 S
C405 N404 1.351 . S
C405 C406 1.434 . S
C406 C397 1.429 1_545 S
C406 N403 1.350 . S
C406 C405 1.434 . S
C407 C408 1.369 . S
C407 C409 1.419 . S
C407 H411 0.930 . S
C408 C407 1.369 . S
C408 C417 1.429 . S
C409 C407 1.419 . S
C409 C410 1.363 . S
C409 H412 0.929 . S
C410 C409 1.363 . S
C410 C416 1.428 . S
H411 C407 0.930 . S
H412 C409 0.929 . S
S413 N414 1.613 . S
S413 N415 1.610 . S
N414 S413 1.613 . S
N414 C417 1.350 . S
N415 S413 1.610 . S
N415 C416 1.351 . S
C416 C410 1.428 . S
C416 N415 1.351 . S
C416 C417 1.434 . S
C417 C408 1.429 . S
C417 N414 1.350 . S
C417 C416 1.434 . S
C418 C419 1.369 1_455 S
C418 C420 1.419 . S
C418 H422 0.930 . S
C419 C418 1.369 1_655 S
C419 C428 1.429 . S
C420 C418 1.419 . S
C420 C421 1.363 . S
C420 H423 0.929 . S
C421 C420 1.363 . S
C421 C427 1.428 . S
H422 C418 0.930 . S
H423 C420 0.929 . S
S424 N425 1.613 . S
S424 N426 1.610 . S
N425 S424 1.613 . S
N425 C428 1.350 . S
N426 S424 1.610 . S
N426 C427 1.351 1_655 S
C427 C421 1.428 . S
C427 N426 1.351 1_455 S
C427 C428 1.434 1_455 S
C428 C419 1.429 . S
C428 N425 1.350 . S
C428 C427 1.434 1_655 S
C429 C430 1.369 . S
C429 C431 1.419 1_545 S
C429 H433 0.930 . S
C430 C429 1.369 . S
C430 C439 1.429 1_545 S
C431 C429 1.419 1_565 S
C431 C432 1.363 . S
C431 H434 0.929 1_565 S
C432 C431 1.363 . S
C432 C438 1.428 . S
H433 C429 0.930 . S
H434 C431 0.929 1_545 S
S435 N436 1.613 . S
S435 N437 1.610 . S
N436 S435 1.613 . S
N436 C439 1.350 . S
N437 S435 1.610 . S
N437 C438 1.351 . S
C438 C432 1.428 . S
C438 N437 1.351 . S
C438 C439 1.434 . S
C439 C430 1.429 1_565 S
C439 N436 1.350 . S
C439 C438 1.434 . S
C440 C441 1.369 . S
C440 C442 1.419 . S
C440 H444 0.930 . S
C441 C440 1.369 . S
C441 C450 1.429 . S
C442 C440 1.419 . S
C442 C443 1.363 . S
C442 H445 0.929 . S
C443 C442 1.363 . S
C443 C449 1.428 . S
H444 C440 0.930 . S
H445 C442 0.929 . S
S446 N447 1.613 . S
S446 N448 1.610 . S
N447 S446 1.613 . S
N447 C450 1.350 . S
N448 S446 1.610 . S
N448 C449 1.351 . S
C449 C443 1.428 . S
C449 N448 1.351 . S
C449 C450 1.434 . S
C450 C441 1.429 . S
C450 N447 1.350 . S
C450 C449 1.434 . S
C451 C452 1.369 . S
C451 C453 1.419 . S
C451 H455 0.930 . S
C452 C451 1.369 . S
C452 C461 1.429 . S
C453 C451 1.419 . S
C453 C454 1.363 1_655 S
C453 H456 0.936 . S
C454 C453 1.363 1_455 S
C454 C460 1.428 . S
H455 C451 0.930 . S
H456 C453 0.936 . S
S457 N458 1.613 1_455 S
S457 N459 1.610 . S
N458 S457 1.613 1_655 S
N458 C461 1.350 . S
N459 S457 1.610 . S
N459 C460 1.351 . S
C460 C454 1.428 . S
C460 N459 1.351 . S
C460 C461 1.434 1_455 S
C461 C452 1.429 . S
C461 N458 1.350 . S
C461 C460 1.434 1_655 S
C462 C463 1.369 . S
C462 C464 1.419 1_545 S
C462 H466 0.930 . S
C463 C462 1.369 . S
C463 C472 1.429 1_455 S
C464 C462 1.419 1_565 S
C464 C465 1.363 . S
C464 H467 0.929 . S
C465 C464 1.363 . S
C465 C471 1.428 1_465 S
H466 C462 0.930 . S
H467 C464 0.929 . S
S468 N469 1.613 . S
S468 N470 1.610 . S
N469 S468 1.613 . S
N469 C472 1.350 . S
N470 S468 1.610 . S
N470 C471 1.351 . S
C471 C465 1.428 1_645 S
C471 N470 1.351 . S
C471 C472 1.434 . S
C472 C463 1.429 1_655 S
C472 N469 1.350 . S
C472 C471 1.434 . S
C473 C474 1.369 1_455 S
C473 C475 1.419 . S
C473 H477 0.930 . S
C474 C473 1.369 1_655 S
C474 C483 1.429 . S
C475 C473 1.419 . S
C475 C476 1.363 . S
C475 H478 0.929 . S
C476 C475 1.363 . S
C476 C482 1.428 . S
H477 C473 0.930 . S
H478 C475 0.929 . S
S479 N480 1.613 . S
S479 N481 1.610 . S
N480 S479 1.613 . S
N480 C483 1.350 1_565 S
N481 S479 1.610 . S
N481 C482 1.351 1_665 S
C482 C476 1.428 . S
C482 N481 1.351 1_445 S
C482 C483 1.434 1_455 S
C483 C474 1.429 . S
C483 N480 1.350 1_545 S
C483 C482 1.434 1_655 S
C484 C485 1.369 1_655 S
C484 C486 1.419 1_545 S
C484 H488 0.930 . S
C485 C484 1.369 1_455 S
C485 C494 1.429 . S
C486 C484 1.419 1_565 S
C486 C487 1.363 . S
C486 H489 0.929 . S
C487 C486 1.363 . S
C487 C493 1.428 1_655 S
H488 C484 0.930 . S
H489 C486 0.929 . S
S490 N491 1.613 1_565 S
S490 N492 1.610 . S
N491 S490 1.613 1_545 S
N491 C494 1.350 . S
N492 S490 1.610 . S
N492 C493 1.351 . S
C493 C487 1.428 1_455 S
C493 N492 1.351 . S
C493 C494 1.434 1_565 S
C494 C485 1.429 . S
C494 N491 1.350 . S
C494 C493 1.434 1_545 S
C495 C496 1.369 . S
C495 C497 1.419 1_545 S
C495 H499 0.930 . S
C496 C495 1.369 . S
C496 C505 1.429 1_545 S
C497 C495 1.419 1_565 S
C497 C498 1.363 . S
C497 H500 0.929 . S
C498 C497 1.363 . S
C498 C504 1.428 . S
H499 C495 0.930 . S
H500 C497 0.929 . S
S501 N502 1.613 . S
S501 N503 1.610 . S
N502 S501 1.613 . S
N502 C505 1.350 1_455 S
N503 S501 1.610 . S
N503 C504 1.351 1_455 S
C504 C498 1.428 . S
C504 N503 1.351 1_655 S
C504 C505 1.434 . S
C505 C496 1.429 1_565 S
C505 N502 1.350 1_655 S
C505 C504 1.434 . S
C506 C507 1.369 1_655 S
C506 C508 1.419 . S
C506 H510 0.930 . S
C507 C506 1.369 1_455 S
C507 C516 1.429 1_565 S
C508 C506 1.419 . S
C508 C509 1.363 . S
C508 H511 0.929 . S
C509 C508 1.363 . S
C509 C515 1.428 1_565 S
H510 C506 0.930 . S
H511 C508 0.929 . S
S512 N513 1.613 . S
S512 N514 1.610 1_455 S
N513 S512 1.613 . S
N513 C516 1.350 . S
N514 S512 1.610 1_655 S
N514 C515 1.351 . S
C515 C509 1.428 1_545 S
C515 N514 1.351 . S
C515 C516 1.434 1_655 S
C516 C507 1.429 1_545 S
C516 N513 1.350 . S
C516 C515 1.434 1_455 S
C517 C518 1.360 1_455 S
C517 C519 1.422 . S
C517 H521 0.935 . S
C518 C517 1.360 1_655 S
C518 C527 1.429 1_565 S
C519 C517 1.422 . S
C519 C520 1.363 1_565 S
C519 H522 0.929 . S
C520 C519 1.363 1_545 S
C520 C526 1.440 . S
H521 C517 0.935 . S
H522 C519 0.929 . S
S523 N524 1.613 . S
S523 N525 1.610 . S
N524 S523 1.613 . S
N524 C527 1.350 . S
N525 S523 1.610 . S
N525 C526 1.343 1_655 S
C526 C520 1.440 . S
C526 N525 1.343 1_455 S
C526 C527 1.429 1_455 S
C527 C518 1.429 1_545 S
C527 N524 1.350 . S
C527 C526 1.429 1_655 S
C528 C529 1.369 1_554 S
C528 C530 1.419 . S
C528 H532 0.930 . S
C529 C528 1.369 1_556 S
C529 C538 1.429 . S
C530 C528 1.419 . S
C530 C531 1.363 . S
C530 H533 0.929 . S
C531 C530 1.363 . S
C531 C537 1.428 1_554 S
H532 C528 0.930 . S
H533 C530 0.929 . S
S534 N535 1.613 . S
S534 N536 1.610 . S
N535 S534 1.613 . S
N535 C538 1.350 . S
N536 S534 1.610 . S
N536 C537 1.351 . S
C537 C531 1.428 1_556 S
C537 N536 1.351 . S
C537 C538 1.434 . S
C538 C529 1.429 . S
C538 N535 1.350 . S
C538 C537 1.434 . S
C539 C540 1.369 . S
C539 C541 1.419 . S
C539 H543 0.930 . S
C540 C539 1.369 . S
C540 C549 1.429 . S
C541 C539 1.419 . S
C541 C542 1.363 . S
C541 H544 0.929 . S
C542 C541 1.363 . S
C542 C548 1.428 . S
H543 C539 0.930 . S
H544 C541 0.929 . S
S545 N546 1.613 . S
S545 N547 1.610 . S
N546 S545 1.613 . S
N546 C549 1.350 . S
N547 S545 1.610 . S
N547 C548 1.351 . S
C548 C542 1.428 . S
C548 N547 1.351 . S
C548 C549 1.434 . S
C549 C540 1.429 . S
C549 N546 1.350 . S
C549 C548 1.434 . S
C550 C551 1.369 . S
C550 C552 1.419 . S
C550 H554 0.930 . S
C551 C550 1.369 . S
C551 C560 1.429 . S
C552 C550 1.419 . S
C552 C553 1.363 . S
C552 H555 0.929 . S
C553 C552 1.363 . S
C553 C559 1.428 . S
H554 C550 0.930 . S
H555 C552 0.929 . S
S556 N557 1.613 . S
S556 N558 1.610 1_545 S
N557 S556 1.613 . S
N557 C560 1.350 1_545 S
N558 S556 1.610 1_565 S
N558 C559 1.351 . S
C559 C553 1.428 . S
C559 N558 1.351 . S
C559 C560 1.434 . S
C560 C551 1.429 . S
C560 N557 1.350 1_565 S
C560 C559 1.434 . S
C561 C562 1.369 . S
C561 C563 1.419 . S
C561 H565 0.930 . S
C562 C561 1.369 . S
C562 C571 1.429 . S
C563 C561 1.419 . S
C563 C564 1.363 . S
C563 H566 0.929 . S
C564 C563 1.363 . S
C564 C570 1.428 . S
H565 C561 0.930 . S
H566 C563 0.929 . S
S567 N568 1.613 . S
S567 N569 1.610 . S
N568 S567 1.613 . S
N568 C571 1.350 . S
N569 S567 1.610 . S
N569 C570 1.351 . S
C570 C564 1.428 . S
C570 N569 1.351 . S
C570 C571 1.434 . S
C571 C562 1.429 . S
C571 N568 1.350 . S
C571 C570 1.434 . S
C572 C573 1.369 . S
C572 C574 1.419 . S
C572 H576 0.930 . S
C573 C572 1.369 . S
C573 C582 1.429 . S
C574 C572 1.419 . S
C574 C575 1.363 . S
C574 H577 0.929 . S
C575 C574 1.363 . S
C575 C581 1.428 . S
H576 C572 0.930 . S
H577 C574 0.929 . S
S578 N579 1.613 . S
S578 N580 1.610 . S
N579 S578 1.613 . S
N579 C582 1.350 . S
N580 S578 1.610 . S
N580 C581 1.351 . S
C581 C575 1.428 . S
C581 N580 1.351 . S
C581 C582 1.434 . S
C582 C573 1.429 . S
C582 N579 1.350 . S
C582 C581 1.434 . S
C583 C584 1.369 . S
C583 C585 1.419 . S
C583 H587 0.930 . S
C584 C583 1.369 . S
C584 C593 1.429 . S
C585 C583 1.419 . S
C585 C586 1.363 . S
C585 H588 0.929 . S
C586 C585 1.363 . S
C586 C592 1.428 . S
H587 C583 0.930 . S
H588 C585 0.929 . S
S589 N590 1.613 . S
S589 N591 1.610 . S
N590 S589 1.613 . S
N590 C593 1.350 . S
N591 S589 1.610 . S
N591 C592 1.351 . S
C592 C586 1.428 . S
C592 N591 1.351 . S
C592 C593 1.434 . S
C593 C584 1.429 . S
C593 N590 1.350 . S
C593 C592 1.434 . S
C594 C595 1.369 . S
C594 C596 1.419 . S
C594 H598 0.930 . S
C595 C594 1.369 . S
C595 C604 1.429 . S
C596 C594 1.419 . S
C596 C597 1.363 . S
C596 H599 0.929 . S
C597 C596 1.363 . S
C597 C603 1.428 . S
H598 C594 0.930 . S
H599 C596 0.929 . S
S600 N601 1.613 . S
S600 N602 1.610 . S
N601 S600 1.613 . S
N601 C604 1.350 . S
N602 S600 1.610 . S
N602 C603 1.351 . S
C603 C597 1.428 . S
C603 N602 1.351 . S
C603 C604 1.434 . S
C604 C595 1.429 . S
C604 N601 1.350 . S
C604 C603 1.434 . S
C605 C606 1.369 1_556 S
C605 C607 1.419 . S
C605 H609 0.930 . S
C606 C605 1.369 1_554 S
C606 C615 1.429 . S
C607 C605 1.419 . S
C607 C608 1.363 . S
C607 H610 0.929 . S
C608 C607 1.363 . S
C608 C614 1.428 1_556 S
H609 C605 0.930 . S
H610 C607 0.929 . S
S611 N612 1.613 1_455 S
S611 N613 1.610 1_455 S
N612 S611 1.613 1_655 S
N612 C615 1.350 . S
N613 S611 1.610 1_655 S
N613 C614 1.351 . S
C614 C608 1.428 1_554 S
C614 N613 1.351 . S
C614 C615 1.434 . S
C615 C606 1.429 . S
C615 N612 1.350 . S
C615 C614 1.434 . S
C616 C617 1.369 . S
C616 C618 1.419 . S
C616 H620 0.930 . S
C617 C616 1.369 . S
C617 C626 1.429 . S
C618 C616 1.419 . S
C618 C619 1.363 . S
C618 H621 0.929 . S
C619 C618 1.363 . S
C619 C625 1.428 . S
H620 C616 0.930 . S
H621 C618 0.929 . S
S622 N623 1.613 . S
S622 N624 1.610 . S
N623 S622 1.613 . S
N623 C626 1.350 . S
N624 S622 1.610 . S
N624 C625 1.351 . S
C625 C619 1.428 . S
C625 N624 1.351 . S
C625 C626 1.434 . S
C626 C617 1.429 . S
C626 N623 1.350 . S
C626 C625 1.434 . S
C627 C628 1.369 . S
C627 C629 1.419 . S
C627 H631 0.930 . S
C628 C627 1.369 . S
C628 C637 1.429 . S
C629 C627 1.419 . S
C629 C630 1.363 . S
C629 H632 0.929 . S
C630 C629 1.363 . S
C630 C636 1.428 . S
H631 C627 0.930 . S
H632 C629 0.929 . S
S633 N634 1.613 . S
S633 N635 1.610 . S
N634 S633 1.613 . S
N634 C637 1.350 . S
N635 S633 1.610 . S
N635 C636 1.351 . S
C636 C630 1.428 . S
C636 N635 1.351 . S
C636 C637 1.434 . S
C637 C628 1.429 . S
C637 N634 1.350 . S
C637 C636 1.434 . S
C638 C639 1.369 . S
C638 C640 1.419 . S
C638 H642 0.930 . S
C639 C638 1.369 . S
C639 C648 1.429 . S
C640 C638 1.419 . S
C640 C641 1.363 . S
C640 H643 0.929 . S
C641 C640 1.363 . S
C641 C647 1.428 . S
H642 C638 0.930 . S
H643 C640 0.929 . S
S644 N645 1.613 . S
S644 N646 1.610 . S
N645 S644 1.613 . S
N645 C648 1.350 . S
N646 S644 1.610 . S
N646 C647 1.351 . S
C647 C641 1.428 . S
C647 N646 1.351 . S
C647 C648 1.434 . S
C648 C639 1.429 . S
C648 N645 1.350 . S
C648 C647 1.434 . S
C649 C650 1.369 . S
C649 C651 1.419 . S
C649 H653 0.930 . S
C650 C649 1.369 . S
C650 C659 1.429 . S
C651 C649 1.419 . S
C651 C652 1.363 . S
C651 H654 0.929 . S
C652 C651 1.363 . S
C652 C658 1.428 . S
H653 C649 0.930 . S
H654 C651 0.929 . S
S655 N656 1.613 . S
S655 N657 1.610 . S
N656 S655 1.613 . S
N656 C659 1.350 . S
N657 S655 1.610 . S
N657 C658 1.351 . S
C658 C652 1.428 . S
C658 N657 1.351 . S
C658 C659 1.434 . S
C659 C650 1.429 . S
C659 N656 1.350 . S
C659 C658 1.434 . S
C660 C661 1.369 . S
C660 C662 1.419 . S
C660 H664 0.930 . S
C661 C660 1.369 . S
C661 C670 1.429 1_655 S
C662 C660 1.419 . S
C662 C663 1.363 . S
C662 H665 0.929 . S
C663 C662 1.363 . S
C663 C669 1.428 1_655 S
H664 C660 0.930 . S
H665 C662 0.929 . S
S666 N667 1.613 . S
S666 N668 1.610 . S
N667 S666 1.613 . S
N667 C670 1.350 . S
N668 S666 1.610 . S
N668 C669 1.351 . S
C669 C663 1.428 1_455 S
C669 N668 1.351 . S
C669 C670 1.434 . S
C670 C661 1.429 1_455 S
C670 N667 1.350 . S
C670 C669 1.434 . S
C671 C672 1.369 . S
C671 C673 1.419 . S
C671 H675 0.930 . S
C672 C671 1.369 . S
C672 C681 1.429 . S
C673 C671 1.419 . S
C673 C674 1.363 . S
C673 H676 0.929 . S
C674 C673 1.363 . S
C674 C680 1.428 . S
H675 C671 0.930 . S
H676 C673 0.929 . S
S677 N678 1.613 1_545 S
S677 N679 1.612 1_545 S
N678 S677 1.613 1_565 S
N678 C681 1.350 . S
N679 S677 1.612 1_565 S
N679 C680 1.352 . S
C680 C674 1.428 . S
C680 N679 1.352 . S
C680 C681 1.434 . S
C681 C672 1.429 . S
C681 N678 1.350 . S
C681 C680 1.434 . S
C682 C683 1.369 . S
C682 C684 1.419 . S
C682 H686 0.930 . S
C683 C682 1.369 . S
C683 C692 1.429 . S
C684 C682 1.419 . S
C684 C685 1.363 . S
C684 H687 0.929 . S
C685 C684 1.363 . S
C685 C691 1.428 . S
H686 C682 0.930 . S
H687 C684 0.929 . S
S688 N689 1.613 . S
S688 N690 1.610 . S
N689 S688 1.613 . S
N689 C692 1.350 . S
N690 S688 1.610 . S
N690 C691 1.351 . S
C691 C685 1.428 . S
C691 N690 1.351 . S
C691 C692 1.434 . S
C692 C683 1.429 . S
C692 N689 1.350 . S
C692 C691 1.434 . S
C693 C694 1.369 . S
C693 C695 1.419 . S
C693 H697 0.930 . S
C694 C693 1.369 . S
C694 C703 1.429 1_455 S
C695 C693 1.419 . S
C695 C696 1.363 . S
C695 H698 0.929 . S
C696 C695 1.363 . S
C696 C702 1.428 1_455 S
H697 C693 0.930 . S
H698 C695 0.929 . S
S699 N700 1.613 . S
S699 N701 1.610 . S
N700 S699 1.613 . S
N700 C703 1.350 . S
N701 S699 1.610 . S
N701 C702 1.351 . S
C702 C696 1.428 1_655 S
C702 N701 1.351 . S
C702 C703 1.434 . S
C703 C694 1.429 1_655 S
C703 N700 1.350 . S
C703 C702 1.434 . S
C704 C705 1.369 . S
C704 C706 1.419 . S
C704 H708 0.930 . S
C705 C704 1.369 . S
C705 C714 1.429 . S
C706 C704 1.419 . S
C706 C707 1.363 . S
C706 H709 0.929 . S
C707 C706 1.363 . S
C707 C713 1.437 . S
H708 C704 0.930 . S
H709 C706 0.929 . S
S710 N711 1.613 . S
S710 N712 1.610 . S
N711 S710 1.613 . S
N711 C714 1.350 1_565 S
N712 S710 1.610 . S
N712 C713 1.336 1_565 S
C713 C707 1.437 . S
C713 N712 1.336 1_545 S
C713 C714 1.440 . S
C714 C705 1.429 . S
C714 N711 1.350 1_545 S
C714 C713 1.440 . S
C715 C716 1.369 . S
C715 C717 1.419 . S
C715 H719 0.930 . S
C716 C715 1.369 . S
C716 C725 1.429 . S
C717 C715 1.419 . S
C717 C718 1.363 . S
C717 H720 0.929 . S
C718 C717 1.363 . S
C718 C724 1.428 . S
H719 C715 0.930 . S
H720 C717 0.929 . S
S721 N722 1.613 . S
S721 N723 1.610 . S
N722 S721 1.613 . S
N722 C725 1.350 . S
N723 S721 1.610 . S
N723 C724 1.351 . S
C724 C718 1.428 . S
C724 N723 1.351 . S
C724 C725 1.434 . S
C725 C716 1.429 . S
C725 N722 1.350 . S
C725 C724 1.434 . S
C397 C239 1.711 . S
C399 C8 1.724 . S
C408 C272 1.636 . S
C410 C41 1.640 . S
C419 C74 1.713 . S
C421 C305 1.729 . S
C430 C338 1.713 . S
C432 C107 1.724 . S
C441 C140 1.642 . S
C443 C371 1.641 . S
C452 C206 1.729 . S
C454 C173 1.712 . S
C463 N14 1.730 . S
C465 N278 1.734 . S
C474 N47 1.729 . S
C476 N311 1.735 . S
C485 N344 1.654 . S
C487 N80 1.658 . S
C496 N377 1.734 . S
C498 N113 1.732 . S
C507 N146 1.732 . S
C509 N212 1.734 . S
C518 N245 1.656 . S
C520 N179 1.657 . S
C529 N236 1.071 . S
C531 C17 1.083 . S
C540 N269 1.188 . S
C542 C50 1.208 . S
C551 N302 1.241 . S
C553 C83 1.269 . S
C562 C116 1.089 . S
C564 N335 1.077 . S
C573 N368 1.188 . S
C575 C149 1.207 . S
C584 C182 1.267 . S
C586 N203 1.241 . S
C595 C215 1.086 . S
C597 N170 1.074 . S
C606 N5 1.240 . S
C608 C248 1.268 . S
C617 N38 1.190 . S
C619 C281 1.208 . S
C628 N71 1.077 . S
C630 C314 1.086 . S
C639 N104 1.232 . S
C641 C347 1.267 . S
C650 N137 1.188 . S
C652 C380 1.208 . S
C661 C292 1.597 . S
C663 C28 1.596 . S
C672 C61 1.598 . S
C674 C325 1.597 . S
C683 C358 1.734 . S
C685 C94 1.735 . S
C694 C127 1.598 . S
C696 C391 1.595 . S
C705 C160 1.595 . S
C707 C226 1.597 . S
C716 C259 1.732 . S
C718 C193 1.734 . S
