# Generated by pormake.
# Topology bcs, (6)-cn, num edge types: 1
# Building blocks:
#     Node 0, Type 0, BuildingBlock: JUFBIX_clean_sbu_0, # of connection points: 6
#     Node 1, Type 0, BuildingBlock: JUFBIX_clean_sbu_0, # of connection points: 6
#     Node 2, Type 0, BuildingBlock: JUFBIX_clean_sbu_0, # of connection points: 6
#     Node 3, Type 0, BuildingBlock: JUFBIX_clean_sbu_0, # of connection points: 6
#     Node 4, Type 0, BuildingBlock: JUFBIX_clean_sbu_0, # of connection points: 6
#     Node 5, Type 0, BuildingBlock: JUFBIX_clean_sbu_0, # of connection points: 6
#     Node 6, Type 0, BuildingBlock: JUFBIX_clean_sbu_0, # of connection points: 6
#     Node 7, Type 0, BuildingBlock: JUFBIX_clean_sbu_0, # of connection points: 6
#     Node 8, Type 0, BuildingBlock: JUFBIX_clean_sbu_0, # of connection points: 6
#     Node 9, Type 0, BuildingBlock: JUFBIX_clean_sbu_0, # of connection points: 6
#     Node 10, Type 0, BuildingBlock: JUFBIX_clean_sbu_0, # of connection points: 6
#     Node 11, Type 0, BuildingBlock: JUFBIX_clean_sbu_0, # of connection points: 6
#     Node 12, Type 0, BuildingBlock: JUFBIX_clean_sbu_0, # of connection points: 6
#     Node 13, Type 0, BuildingBlock: JUFBIX_clean_sbu_0, # of connection points: 6
#     Node 14, Type 0, BuildingBlock: JUFBIX_clean_sbu_0, # of connection points: 6
#     Node 15, Type 0, BuildingBlock: JUFBIX_clean_sbu_0, # of connection points: 6
#     Edge 16, Type (0, 0), BuildingBlock: ZUJKAS_clean_linker_0, # of connection points: 2
#     Edge 17, Type (0, 0), BuildingBlock: ZUJKAS_clean_linker_0, # of connection points: 2
#     Edge 18, Type (0, 0), BuildingBlock: ZUJKAS_clean_linker_0, # of connection points: 2
#     Edge 19, Type (0, 0), BuildingBlock: ZUJKAS_clean_linker_0, # of connection points: 2
#     Edge 20, Type (0, 0), BuildingBlock: ZUJKAS_clean_linker_0, # of connection points: 2
#     Edge 21, Type (0, 0), BuildingBlock: ZUJKAS_clean_linker_0, # of connection points: 2
#     Edge 22, Type (0, 0), BuildingBlock: ZUJKAS_clean_linker_0, # of connection points: 2
#     Edge 23, Type (0, 0), BuildingBlock: ZUJKAS_clean_linker_0, # of connection points: 2
#     Edge 24, Type (0, 0), BuildingBlock: ZUJKAS_clean_linker_0, # of connection points: 2
#     Edge 25, Type (0, 0), BuildingBlock: ZUJKAS_clean_linker_0, # of connection points: 2
#     Edge 26, Type (0, 0), BuildingBlock: ZUJKAS_clean_linker_0, # of connection points: 2
#     Edge 27, Type (0, 0), BuildingBlock: ZUJKAS_clean_linker_0, # of connection points: 2
#     Edge 28, Type (0, 0), BuildingBlock: ZUJKAS_clean_linker_0, # of connection points: 2
#     Edge 29, Type (0, 0), BuildingBlock: ZUJKAS_clean_linker_0, # of connection points: 2
#     Edge 30, Type (0, 0), BuildingBlock: ZUJKAS_clean_linker_0, # of connection points: 2
#     Edge 31, Type (0, 0), BuildingBlock: ZUJKAS_clean_linker_0, # of connection points: 2
#     Edge 32, Type (0, 0), BuildingBlock: ZUJKAS_clean_linker_0, # of connection points: 2
#     Edge 33, Type (0, 0), BuildingBlock: ZUJKAS_clean_linker_0, # of connection points: 2
#     Edge 34, Type (0, 0), BuildingBlock: ZUJKAS_clean_linker_0, # of connection points: 2
#     Edge 35, Type (0, 0), BuildingBlock: ZUJKAS_clean_linker_0, # of connection points: 2
#     Edge 36, Type (0, 0), BuildingBlock: ZUJKAS_clean_linker_0, # of connection points: 2
#     Edge 37, Type (0, 0), BuildingBlock: ZUJKAS_clean_linker_0, # of connection points: 2
#     Edge 38, Type (0, 0), BuildingBlock: ZUJKAS_clean_linker_0, # of connection points: 2
#     Edge 39, Type (0, 0), BuildingBlock: ZUJKAS_clean_linker_0, # of connection points: 2
#     Edge 40, Type (0, 0), BuildingBlock: ZUJKAS_clean_linker_0, # of connection points: 2
#     Edge 41, Type (0, 0), BuildingBlock: ZUJKAS_clean_linker_0, # of connection points: 2
#     Edge 42, Type (0, 0), BuildingBlock: ZUJKAS_clean_linker_0, # of connection points: 2
#     Edge 43, Type (0, 0), BuildingBlock: ZUJKAS_clean_linker_0, # of connection points: 2
#     Edge 44, Type (0, 0), BuildingBlock: ZUJKAS_clean_linker_0, # of connection points: 2
#     Edge 45, Type (0, 0), BuildingBlock: ZUJKAS_clean_linker_0, # of connection points: 2
#     Edge 46, Type (0, 0), BuildingBlock: ZUJKAS_clean_linker_0, # of connection points: 2
#     Edge 47, Type (0, 0), BuildingBlock: ZUJKAS_clean_linker_0, # of connection points: 2
#     Edge 48, Type (0, 0), BuildingBlock: ZUJKAS_clean_linker_0, # of connection points: 2
#     Edge 49, Type (0, 0), BuildingBlock: ZUJKAS_clean_linker_0, # of connection points: 2
#     Edge 50, Type (0, 0), BuildingBlock: ZUJKAS_clean_linker_0, # of connection points: 2
#     Edge 51, Type (0, 0), BuildingBlock: ZUJKAS_clean_linker_0, # of connection points: 2
#     Edge 52, Type (0, 0), BuildingBlock: ZUJKAS_clean_linker_0, # of connection points: 2
#     Edge 53, Type (0, 0), BuildingBlock: ZUJKAS_clean_linker_0, # of connection points: 2
#     Edge 54, Type (0, 0), BuildingBlock: ZUJKAS_clean_linker_0, # of connection points: 2
#     Edge 55, Type (0, 0), BuildingBlock: ZUJKAS_clean_linker_0, # of connection points: 2
#     Edge 56, Type (0, 0), BuildingBlock: ZUJKAS_clean_linker_0, # of connection points: 2
#     Edge 57, Type (0, 0), BuildingBlock: ZUJKAS_clean_linker_0, # of connection points: 2
#     Edge 58, Type (0, 0), BuildingBlock: ZUJKAS_clean_linker_0, # of connection points: 2
#     Edge 59, Type (0, 0), BuildingBlock: ZUJKAS_clean_linker_0, # of connection points: 2
#     Edge 60, Type (0, 0), BuildingBlock: ZUJKAS_clean_linker_0, # of connection points: 2
#     Edge 61, Type (0, 0), BuildingBlock: ZUJKAS_clean_linker_0, # of connection points: 2
#     Edge 62, Type (0, 0), BuildingBlock: ZUJKAS_clean_linker_0, # of connection points: 2
#     Edge 63, Type (0, 0), BuildingBlock: ZUJKAS_clean_linker_0, # of connection points: 2
# Relax obj value: 0.364
# Max RMSD: 0.286
# Mean RMSD: 0.241
data_MOF--net-bcs--node1-JUFBIX_clean_sbu_0--edge1-ZUJKAS_clean_linker_0
_symmetry_space_group_name_H-M    P1
_symmetry_Int_Tables_number       1
_symmetry_cell_setting            triclinic
loop_
_symmetry_equiv_pos_as_xyz
'x, y, z'
_cell_length_a     45.244584
_cell_length_b     47.341925
_cell_length_c     46.399244
_cell_angle_alpha  97.01382
_cell_angle_beta   96.57611
_cell_angle_gamma 89.59505
loop_
_atom_site_label
_atom_site_type_symbol
_atom_site_fract_x
_atom_site_fract_y
_atom_site_fract_z
_atom_type_partial_charge
Co0 Co 0.98921 0.99146 1.00267 0.0
C1 C 0.98113 0.04015 0.04383 0.0
Co2 Co 0.02439 0.02423 0.00586 0.0
C3 C 0.95057 0.95433 0.02676 0.0
C4 C 0.94361 0.94888 0.98003 0.0
N5 N 0.95983 0.96387 1.00289 0.0
N6 N 0.92926 0.93389 0.0198 0.0
C7 C 0.92489 0.93048 0.99029 0.0
H8 H 0.95974 0.962 0.04887 0.0
H9 H 0.94532 0.95115 0.95736 0.0
C10 C 0.03258 0.97559 0.9647 0.0
N11 N 0.05378 0.05177 1.00553 0.0
C12 C 0.06238 0.0616 0.98153 0.0
C13 C 0.07073 0.06632 0.02819 0.0
N14 N 0.08399 0.08175 0.98819 0.0
C15 C 0.08929 0.08468 0.01764 0.0
C16 C 0.04024 0.98204 0.0434 0.0
O17 O 0.00773 0.96763 0.97187 0.0
O18 O 0.04303 0.99977 0.97645 0.0
O19 O 0.04912 1.00568 0.0364 0.0
O20 O 0.01468 0.97272 0.0317 0.0
O21 O 1.00523 0.04861 0.03556 0.0
H22 H 0.06952 0.06389 0.05091 0.0
H23 H 0.05306 0.05383 0.95949 0.0
O24 O 0.9713 0.01542 0.03315 0.0
O25 O 0.96385 0.01075 0.9733 0.0
O26 O 0.99952 0.04214 0.97566 0.0
C27 C 0.97337 0.03355 0.96506 0.0
H28 H 0.90904 0.91598 0.97694 0.0
H29 H 0.10508 0.0994 0.03078 0.0
Co30 Co 0.27606 0.76057 0.242 0.0
C31 C 0.27433 0.79678 0.29478 0.0
Co32 Co 0.23791 0.7541 0.26652 0.0
C33 C 0.31191 0.78114 0.20016 0.0
C34 C 0.3383 0.76335 0.23463 0.0
N35 N 0.3098 0.76781 0.22408 0.0
N36 N 0.34049 0.78514 0.19552 0.0
C37 C 0.35707 0.77378 0.21715 0.0
H38 H 0.29293 0.78839 0.18673 0.0
H39 H 0.34528 0.7543 0.25457 0.0
C40 C 0.23966 0.71789 0.21373 0.0
N41 N 0.20395 0.74666 0.284 0.0
C42 C 0.20119 0.73234 0.30714 0.0
C43 C 0.17571 0.74982 0.27185 0.0
N44 N 0.17248 0.72617 0.30939 0.0
C45 C 0.15645 0.73729 0.28732 0.0
C46 C 0.22625 0.79432 0.22469 0.0
O47 O 0.26378 0.73079 0.21176 0.0
O48 O 0.22556 0.72499 0.23566 0.0
O49 O 0.21566 0.78264 0.24474 0.0
O50 O 0.25276 0.78777 0.21967 0.0
O51 O 0.2507 0.78324 0.29723 0.0
H52 H 0.1694 0.75884 0.25175 0.0
H53 H 0.21982 0.72468 0.32075 0.0
O54 O 0.28794 0.79032 0.27236 0.0
O55 O 0.29874 0.73302 0.26473 0.0
O56 O 0.26075 0.72598 0.28802 0.0
C57 C 0.28773 0.72044 0.28394 0.0
H58 H 0.38112 0.77435 0.22106 0.0
H59 H 0.13258 0.73522 0.2819 0.0
Co60 Co 0.51848 0.97868 0.52931 0.0
C61 C 0.56988 0.01072 0.53009 0.0
Co62 Co 0.51453 0.01037 0.49829 0.0
C63 C 0.52184 0.9235 0.54929 0.0
C64 C 0.53044 0.95716 0.58442 0.0
N65 N 0.52246 0.95209 0.55538 0.0
N66 N 0.52988 0.91045 0.57323 0.0
C67 C 0.53499 0.93167 0.59544 0.0
H68 H 0.51702 0.91252 0.52742 0.0
H69 H 0.53461 0.97803 0.59654 0.0
C70 C 0.46311 0.97824 0.49722 0.0
N71 N 0.511 0.03713 0.4727 0.0
C72 C 0.49052 0.05781 0.47178 0.0
C73 C 0.5285 0.0413 0.45191 0.0
N74 N 0.49456 0.07486 0.45139 0.0
C75 C 0.51828 0.0645 0.43858 0.0
C76 C 0.53221 0.95819 0.47398 0.0
O77 O 0.47883 0.96635 0.51677 0.0
O78 O 0.4741 0.99897 0.48686 0.0
O79 O 0.52581 0.98329 0.46875 0.0
O80 O 0.53174 0.95178 0.49969 0.0
O81 O 0.55462 0.02143 0.50949 0.0
H82 H 0.54764 0.02853 0.44703 0.0
H83 H 0.47281 0.0602 0.48571 0.0
O84 O 0.55838 0.99127 0.54193 0.0
O85 O 0.50511 1.00557 0.55837 0.0
O86 O 0.50323 0.03774 0.5282 0.0
C87 C 0.5006 0.03107 0.55342 0.0
H88 H 0.54384 0.92918 0.61765 0.0
H89 H 0.52781 0.07337 0.42126 0.0
Co90 Co 0.24633 0.27399 0.75834 0.0
C91 C 0.29416 0.28088 0.80142 0.0
Co92 Co 0.27782 0.23864 0.75589 0.0
C93 C 0.19064 0.30297 0.75923 0.0
C94 C 0.22724 0.33181 0.76114 0.0
N95 N 0.22041 0.30397 0.75952 0.0
N96 N 0.17851 0.32915 0.76093 0.0
C97 C 0.20155 0.34734 0.76206 0.0
H98 H 0.17827 0.28336 0.7584 0.0
H99 H 0.24955 0.34028 0.7624 0.0
C100 C 0.22998 0.23162 0.7129 0.0
N101 N 0.30395 0.20883 0.75451 0.0
C102 C 0.33341 0.21034 0.75299 0.0
C103 C 0.29771 0.18087 0.7527 0.0
N104 N 0.34592 0.18437 0.74959 0.0
C105 C 0.32344 0.16577 0.74961 0.0
C106 C 0.23282 0.23132 0.79127 0.0
O107 O 0.22258 0.25565 0.72519 0.0
O108 O 0.25363 0.21995 0.72309 0.0
O109 O 0.25604 0.22035 0.78163 0.0
O110 O 0.22411 0.25523 0.78367 0.0
O111 O 0.30191 0.25723 0.78859 0.0
H112 H 0.27566 0.17202 0.75227 0.0
H113 H 0.34515 0.23021 0.75329 0.0
O114 O 0.27019 0.29234 0.79167 0.0
O115 O 0.26839 0.29251 0.73318 0.0
O116 O 0.29957 0.25717 0.72991 0.0
C117 C 0.29113 0.28132 0.72285 0.0
H118 H 0.20026 0.37033 0.76506 0.0
H119 H 0.3249 0.14283 0.7456 0.0
Co120 Co 0.02554 0.99894 0.48574 0.0
C121 C 0.03512 0.05418 0.51322 0.0
Co122 Co 0.99464 0.01237 0.5181 0.0
C123 C 0.06231 1.00547 0.44127 0.0
C124 C 0.06326 0.96243 0.45089 0.0
N125 N 0.05133 0.98813 0.45841 0.0
N126 N 0.08076 0.99186 0.42351 0.0
C127 C 0.08133 0.96464 0.4292 0.0
H128 H 0.05661 0.02774 0.44158 0.0
H129 H 0.05921 0.9434 0.46063 0.0
C130 C 0.98443 0.95743 0.49064 0.0
N131 N 0.96883 0.02353 0.54536 0.0
C132 C 0.96534 0.0109 0.56922 0.0
C133 C 0.94909 0.04508 0.54576 0.0
N134 N 0.94426 0.02356 0.58444 0.0
C135 C 0.93362 0.04492 0.56968 0.0
C136 C 0.9737 0.02239 0.46233 0.0
O137 O 1.00619 0.96314 0.47724 0.0
O138 O 0.97639 0.97577 0.51055 0.0
O139 O 0.96751 0.02447 0.48848 0.0
O140 O 0.99878 0.01267 0.45637 0.0
O141 O 0.01249 0.04871 0.52542 0.0
H142 H 0.94581 0.05967 0.52949 0.0
H143 H 0.97725 0.99204 0.5748 0.0
O144 O 0.04473 0.03525 0.49482 0.0
O145 O 0.05209 0.98515 0.51484 0.0
O146 O 0.02242 1.00006 0.54762 0.0
C147 C 0.04668 0.98865 0.54127 0.0
H148 H 0.09428 0.94781 0.4189 0.0
H149 H 0.91584 0.0591 0.57563 0.0
Co150 Co 0.26528 0.74306 0.77876 0.0
C151 C 0.30432 0.78773 0.77991 0.0
Co152 Co 0.25597 0.76742 0.74167 0.0
C153 C 0.27667 0.69478 0.81033 0.0
C154 C 0.27688 0.73415 0.83854 0.0
N155 N 0.27298 0.72302 0.81019 0.0
N156 N 0.28298 0.68786 0.83768 0.0
C157 C 0.28305 0.71258 0.8555 0.0
H158 H 0.27583 0.67974 0.79069 0.0
H159 H 0.27586 0.75658 0.84633 0.0
C160 C 0.21711 0.72268 0.74028 0.0
N161 N 0.2484 0.7882 0.71092 0.0
C162 C 0.24573 0.81667 0.71332 0.0
C163 C 0.24301 0.77929 0.68211 0.0
N164 N 0.23831 0.82608 0.68725 0.0
C165 C 0.23672 0.8026 0.66745 0.0
C166 C 0.2958 0.72213 0.73023 0.0
O167 O 0.23238 0.71891 0.76419 0.0
O168 O 0.22388 0.74287 0.72654 0.0
O169 O 0.28247 0.74304 0.7197 0.0
O170 O 0.29148 0.71783 0.7561 0.0
O171 O 0.2882 0.7919 0.75667 0.0
H172 H 0.24266 0.75725 0.67255 0.0
H173 H 0.24853 0.83015 0.73403 0.0
O174 O 0.29817 0.76716 0.79337 0.0
O175 O 0.23922 0.76826 0.80103 0.0
O176 O 0.22902 0.79196 0.76378 0.0
C177 C 0.22518 0.78848 0.78991 0.0
H178 H 0.28766 0.71497 0.87908 0.0
H179 H 0.22988 0.80208 0.64426 0.0
Co180 Co 0.48785 0.02317 0.00684 0.0
C181 C 0.52402 0.03525 0.05896 0.0
Co182 Co 0.5277 0.99646 0.01032 0.0
C183 C 0.43597 0.04887 0.02655 0.0
C184 C 0.43985 0.05706 0.98282 0.0
N185 N 0.45343 0.04399 1.00493 0.0
N186 N 0.41203 0.0646 0.0191 0.0
C187 C 0.41427 0.06979 0.99149 0.0
H188 H 0.44075 0.04074 0.04738 0.0
H189 H 0.44809 0.0574 0.96188 0.0
C190 C 0.49139 0.98426 0.95823 0.0
N191 N 0.5622 0.97573 0.01208 0.0
C192 C 0.57949 0.97137 0.99028 0.0
C193 C 0.57639 0.96286 0.03405 0.0
N194 N 0.60393 0.95623 0.99748 0.0
C195 C 0.60222 0.95083 0.0251 0.0
C196 C 0.48117 0.97242 0.03158 0.0
O197 O 0.47563 1.00393 0.96954 0.0
O198 O 0.51542 0.97735 0.9725 0.0
O199 O 0.50812 0.96833 0.0271 0.0
O200 O 0.46833 0.9949 0.02433 0.0
O201 O 0.53958 0.01525 0.04795 0.0
H202 H 0.56853 0.96236 0.05514 0.0
H203 H 0.57436 0.97965 0.96956 0.0
O204 O 0.5004 0.04269 0.04438 0.0
O205 O 0.50734 0.05106 0.98946 0.0
O206 O 0.54737 0.02497 0.99346 0.0
C207 C 0.53448 0.04717 0.9856 0.0
H208 H 0.39898 0.08241 0.97876 0.0
H209 H 0.61813 0.93868 0.03771 0.0
Co210 Co 0.24645 0.25729 0.27424 0.0
C211 C 0.25084 0.31083 0.3056 0.0
Co212 Co 0.2873 0.28046 0.26955 0.0
C213 C 0.20998 0.20994 0.27999 0.0
C214 C 0.18396 0.24756 0.27651 0.0
N215 N 0.21209 0.23784 0.27731 0.0
N216 N 0.18168 0.20171 0.28087 0.0
C217 C 0.16518 0.22536 0.27884 0.0
H218 H 0.22902 0.19603 0.28177 0.0
H219 H 0.17755 0.26931 0.27426 0.0
C220 C 0.28285 0.22721 0.23774 0.0
N221 N 0.32173 0.29972 0.26644 0.0
C222 C 0.32388 0.32684 0.2609 0.0
C223 C 0.34998 0.2904 0.26987 0.0
N224 N 0.35235 0.33497 0.26071 0.0
C225 C 0.36889 0.31203 0.2663 0.0
C226 C 0.29263 0.24872 0.31594 0.0
O227 O 0.25839 0.22643 0.24852 0.0
O228 O 0.29968 0.2489 0.24482 0.0
O229 O 0.30602 0.26567 0.30263 0.0
O230 O 0.26602 0.2412 0.30672 0.0
O231 O 0.27485 0.31184 0.2941 0.0
H232 H 0.35638 0.26927 0.27471 0.0
H233 H 0.30474 0.34015 0.25654 0.0
O234 O 0.23463 0.28857 0.29986 0.0
O235 O 0.22721 0.27324 0.24186 0.0
O236 O 0.26821 0.29537 0.23636 0.0
C237 C 0.24112 0.28918 0.22782 0.0
H238 H 0.14128 0.22652 0.27885 0.0
H239 H 0.3929 0.31092 0.2678 0.0
Co240 Co 0.52258 0.49595 0.98673 0.0
C241 C 0.52793 0.55279 0.00628 0.0
Co242 Co 0.49395 0.5089 0.02133 0.0
C243 C 0.54713 0.49373 0.93246 0.0
C244 C 0.56649 0.46223 0.95803 0.0
N245 N 0.54621 0.48329 0.95804 0.0
N246 N 0.5672 0.48019 0.91652 0.0
C247 C 0.57974 0.4605 0.93257 0.0
H248 H 0.53412 0.51172 0.92612 0.0
H249 H 0.57166 0.44931 0.97561 0.0
C250 C 0.48884 0.45201 1.00183 0.0
N251 N 0.47041 0.52148 0.05007 0.0
C252 C 0.46702 0.50904 0.07406 0.0
C253 C 0.45355 0.54508 0.05225 0.0
N254 N 0.44876 0.52387 0.09128 0.0
C255 C 0.4401 0.54657 0.07756 0.0
C256 C 0.46588 0.51022 0.96553 0.0
O257 O 0.50839 0.45827 0.986 0.0
O258 O 0.47965 0.47128 0.02013 0.0
O259 O 0.46254 0.51508 0.99244 0.0
O260 O 0.49094 0.50232 0.95781 0.0
O261 O 0.50847 0.54654 0.02222 0.0
H262 H 0.45128 0.56024 0.03648 0.0
H263 H 0.47744 0.48913 0.07847 0.0
O264 O 0.53678 0.53358 0.9877 0.0
O265 O 0.55397 0.49021 0.01566 0.0
O266 O 0.52551 0.50246 0.05033 0.0
C267 C 0.5507 0.4951 0.04258 0.0
H268 H 0.59741 0.44624 0.92649 0.0
H269 H 0.4253 0.56313 0.0853 0.0
Co270 Co 0.76199 0.25108 0.26786 0.0
C271 C 0.79741 0.29686 0.26368 0.0
Co272 Co 0.74782 0.27244 0.22951 0.0
C273 C 0.77666 0.204 0.29797 0.0
C274 C 0.78202 0.24249 0.32751 0.0
N275 N 0.77329 0.23233 0.29946 0.0
N276 N 0.78784 0.19584 0.32374 0.0
C277 C 0.79108 0.21999 0.34257 0.0
H278 H 0.7718 0.1897 0.27795 0.0
H279 H 0.78291 0.2648 0.3361 0.0
C280 C 0.71217 0.2269 0.23401 0.0
N281 N 0.73673 0.29055 0.19734 0.0
C282 C 0.73442 0.31877 0.19632 0.0
C283 C 0.73086 0.27856 0.16942 0.0
N284 N 0.72741 0.325 0.16879 0.0
C285 C 0.72509 0.29971 0.15178 0.0
C286 C 0.78959 0.22858 0.21802 0.0
O287 O 0.73 0.22519 0.25685 0.0
O288 O 0.71608 0.24624 0.21814 0.0
O289 O 0.774 0.24778 0.20664 0.0
O290 O 0.78763 0.22618 0.24477 0.0
O291 O 0.77942 0.29892 0.24099 0.0
H292 H 0.73113 0.25594 0.16233 0.0
H293 H 0.73764 0.33437 0.21552 0.0
O294 O 0.79397 0.27692 0.27897 0.0
O295 O 0.7366 0.27595 0.2909 0.0
O296 O 0.7216 0.29701 0.2525 0.0
C297 C 0.72036 0.29474 0.27949 0.0
H298 H 0.80089 0.22153 0.36511 0.0
H299 H 0.71998 0.29664 0.12825 0.0
Co300 Co 0.98332 0.52591 0.50542 0.0
C301 C 0.02559 0.53525 0.55342 0.0
Co302 Co 0.02029 0.49551 0.50455 0.0
C303 C 0.92351 0.5453 0.50891 0.0
C304 C 0.9539 0.57991 0.51 0.0
N305 N 0.95215 0.55128 0.50652 0.0
N306 N 0.90745 0.56898 0.51493 0.0
C307 C 0.92652 0.59083 0.51516 0.0
H308 H 0.91508 0.52389 0.50813 0.0
H309 H 0.97424 0.59205 0.51105 0.0
C310 C 0.97805 0.48622 0.45648 0.0
N311 N 0.05131 0.47019 0.50371 0.0
C312 C 0.08034 0.47622 0.50351 0.0
C313 C 0.04959 0.44157 0.5006 0.0
N314 N 0.09686 0.4525 0.49971 0.0
C315 C 0.07751 0.43064 0.49812 0.0
C316 C 0.97389 0.47747 0.53195 0.0
O317 O 0.96615 0.50821 0.46869 0.0
O318 O 1.0018 0.47652 0.46891 0.0
O319 O 0.99988 0.47134 0.52559 0.0
O320 O 0.96216 0.50039 0.52475 0.0
O321 O 0.03861 0.51461 0.54009 0.0
H322 H 0.02914 0.42943 0.4987 0.0
H323 H 0.08892 0.49766 0.50489 0.0
O324 O 1.00061 0.54355 0.54221 0.0
O325 O 1.00487 0.5511 0.48632 0.0
O326 O 0.04063 0.51988 0.48332 0.0
C327 C 0.02997 0.54386 0.47815 0.0
H328 H 0.92195 0.61305 0.52148 0.0
H329 H 0.08264 0.40833 0.49324 0.0
Co330 Co 0.73323 0.77516 0.24998 0.0
C331 C 0.7803 0.78556 0.29315 0.0
Co332 Co 0.7664 0.74121 0.24877 0.0
C333 C 0.67552 0.7986 0.25119 0.0
C334 C 0.70824 0.83132 0.25281 0.0
N335 N 0.70472 0.8029 0.2502 0.0
N336 N 0.66051 0.82319 0.2555 0.0
C337 C 0.68113 0.84387 0.25616 0.0
H338 H 0.66595 0.77763 0.25041 0.0
H339 H 0.7294 0.84217 0.25408 0.0
C340 C 0.71948 0.73071 0.20553 0.0
N341 N 0.79471 0.71318 0.24885 0.0
C342 C 0.82377 0.71596 0.24588 0.0
C343 C 0.79096 0.6855 0.25186 0.0
N344 N 0.83831 0.6911 0.24669 0.0
C345 C 0.81777 0.67187 0.25055 0.0
C346 C 0.72229 0.73245 0.28435 0.0
O347 O 0.71073 0.75444 0.21733 0.0
O348 O 0.74383 0.72045 0.21605 0.0
O349 O 0.74579 0.72217 0.27479 0.0
O350 O 0.71261 0.75579 0.27619 0.0
O351 O 0.78893 0.76183 0.28127 0.0
H352 H 0.76995 0.67566 0.25397 0.0
H353 H 0.83399 0.7357 0.24246 0.0
O354 O 0.75592 0.79589 0.28277 0.0
O355 O 0.7538 0.79443 0.22409 0.0
O356 O 0.78696 0.76061 0.22262 0.0
C357 C 0.77738 0.7841 0.21462 0.0
H358 H 0.67764 0.86647 0.26122 0.0
H359 H 0.82145 0.64925 0.25056 0.0
Co360 Co 0.77484 0.26099 0.7432 0.0
C361 C 0.76944 0.29711 0.7947 0.0
Co362 Co 0.73585 0.25231 0.76569 0.0
C363 C 0.81017 0.28412 0.70274 0.0
C364 C 0.83726 0.2656 0.73624 0.0
N365 N 0.80859 0.26974 0.72602 0.0
N366 N 0.83852 0.28919 0.69823 0.0
C367 C 0.85561 0.27736 0.71918 0.0
H368 H 0.79095 0.29132 0.68961 0.0
H369 H 0.84463 0.2558 0.75563 0.0
C370 C 0.74156 0.21595 0.71436 0.0
N371 N 0.70211 0.24363 0.78269 0.0
C372 C 0.7002 0.23223 0.80779 0.0
C373 C 0.6737 0.24481 0.77036 0.0
N374 N 0.67178 0.22623 0.81148 0.0
C375 C 0.65511 0.23431 0.78798 0.0
C376 C 0.72357 0.29216 0.72375 0.0
O377 O 0.7645 0.23083 0.71281 0.0
O378 O 0.7262 0.22202 0.73554 0.0
O379 O 0.71226 0.27895 0.74234 0.0
O380 O 0.75093 0.28758 0.72071 0.0
O381 O 0.74607 0.2827 0.79593 0.0
H382 H 0.66688 0.25165 0.74922 0.0
H383 H 0.71932 0.22781 0.82276 0.0
O384 O 0.78479 0.29088 0.77354 0.0
O385 O 0.79821 0.2342 0.7663 0.0
O386 O 0.75982 0.22591 0.78855 0.0
C387 C 0.78713 0.22123 0.7852 0.0
H388 H 0.87966 0.27844 0.7229 0.0
H389 H 0.63128 0.23143 0.78302 0.0
Co390 Co 0.73575 0.73989 0.7603 0.0
C391 C 0.73614 0.79752 0.78154 0.0
Co392 Co 0.77365 0.76423 0.75 0.0
C393 C 0.69973 0.69415 0.77284 0.0
C394 C 0.67412 0.73107 0.76442 0.0
N395 N 0.70222 0.72124 0.76723 0.0
N396 N 0.67112 0.68657 0.77328 0.0
C397 C 0.65494 0.70979 0.76813 0.0
H398 H 0.71844 0.67995 0.77541 0.0
H399 H 0.66792 0.75211 0.75914 0.0
C400 C 0.77336 0.70643 0.72909 0.0
N401 N 0.80699 0.78305 0.74287 0.0
C402 C 0.80878 0.80976 0.73597 0.0
C403 C 0.83524 0.77365 0.7454 0.0
N404 N 0.83709 0.81756 0.73428 0.0
C405 C 0.85381 0.7948 0.7401 0.0
C406 C 0.78201 0.74246 0.80354 0.0
O407 O 0.74968 0.70594 0.74119 0.0
O408 O 0.78761 0.72972 0.73076 0.0
O409 O 0.79368 0.75649 0.78609 0.0
O410 O 0.75613 0.73183 0.79639 0.0
O411 O 0.75971 0.79826 0.76928 0.0
H412 H 0.84193 0.75288 0.75115 0.0
H413 H 0.78969 0.82345 0.73302 0.0
O414 O 0.72192 0.77421 0.77954 0.0
O415 O 0.71575 0.74767 0.72431 0.0
O416 O 0.75317 0.77234 0.71389 0.0
C417 C 0.72725 0.76179 0.70686 0.0
H418 H 0.63096 0.71127 0.76701 0.0
H419 H 0.87772 0.79341 0.74032 0.0
Co420 Co 0.48915 0.4912 0.50317 0.0
C421 C 0.48189 0.53935 0.54499 0.0
Co422 Co 0.52429 0.52392 0.5057 0.0
C423 C 0.45206 0.4534 0.52789 0.0
C424 C 0.44337 0.44851 0.48125 0.0
N425 N 0.46012 0.46344 0.50379 0.0
N426 N 0.43103 0.43267 0.52142 0.0
C427 C 0.42554 0.42962 0.49197 0.0
H428 H 0.46198 0.46085 0.54981 0.0
H429 H 0.4442 0.45106 0.45851 0.0
C430 C 0.53164 0.47576 0.46399 0.0
N431 N 0.55336 0.55166 0.50491 0.0
C432 C 0.56106 0.56173 0.48067 0.0
C433 C 0.57072 0.56628 0.52722 0.0
N434 N 0.58247 0.5821 0.48682 0.0
C435 C 0.58862 0.58491 0.51621 0.0
C436 C 0.54085 0.48171 0.54306 0.0
O437 O 0.50741 0.46743 0.47214 0.0
O438 O 0.54204 0.50006 0.47536 0.0
O439 O 0.55 0.50487 0.5352 0.0
O440 O 0.51489 0.4728 0.53224 0.0
O441 O 0.50592 0.54781 0.53653 0.0
H442 H 0.57022 0.56372 0.55001 0.0
H443 H 0.55118 0.55398 0.45881 0.0
O444 O 0.47156 0.51496 0.53378 0.0
O445 O 0.46336 0.51027 0.4739 0.0
O446 O 0.49851 0.54221 0.47639 0.0
C447 C 0.47247 0.53332 0.46581 0.0
H448 H 0.4096 0.41496 0.47897 0.0
H449 H 0.60451 0.59975 0.52901 0.0
Co450 Co 1.0057 0.49634 0.00872 0.0
C451 C 0.05301 0.5338 0.00926 0.0
Co452 Co 0.99578 0.53046 0.98112 0.0
C453 C 0.03932 0.45215 0.03259 0.0
C454 C 0.99839 0.45857 0.0514 0.0
N455 N 0.01446 0.4679 0.03169 0.0
N456 N 0.03971 0.43343 0.05227 0.0
C457 C 0.01391 0.43735 0.06415 0.0
H458 H 0.05685 0.45461 0.01906 0.0
H459 H 0.97708 0.46703 0.05651 0.0
C460 C 0.94833 0.49343 0.98119 0.0
N461 N 0.98678 0.55872 0.95756 0.0
C462 C 0.98516 0.58704 0.96538 0.0
C463 C 0.97802 0.55489 0.92858 0.0
N464 N 0.97548 0.601 0.94246 0.0
C465 C 0.97114 0.58077 0.91926 0.0
C466 C 0.01665 0.4815 0.95176 0.0
O467 O 0.96635 0.48225 0.99948 0.0
O468 O 0.95673 0.51492 0.97021 0.0
O469 O 0.0094 0.50705 0.94912 0.0
O470 O 0.01677 0.47251 0.97637 0.0
O471 O 0.03458 0.54593 0.99205 0.0
H472 H 0.97541 0.53446 0.91527 0.0
H473 H 0.99006 0.59713 0.98762 0.0
O474 O 0.04527 0.51092 0.01821 0.0
O475 O 0.99467 0.51979 0.04095 0.0
O476 O 0.9824 0.5536 0.01365 0.0
C477 C 0.98513 0.5447 0.03857 0.0
H478 H 1.00715 0.42644 0.08153 0.0
H479 H 0.96172 0.58413 0.89743 0.0
H480 H 0.24695 0.18089 0.81268 0.0
H481 H 0.22038 0.15627 0.84534 0.0
H482 H 0.15467 0.22264 0.84755 0.0
H483 H 0.18147 0.24774 0.81515 0.0
H484 H 0.17193 0.20781 0.90207 0.0
H485 H 0.14412 0.11034 0.82512 0.0
H486 H 0.18323 0.11826 0.83063 0.0
H487 H 0.15785 0.14234 0.81357 0.0
C488 C 0.22679 0.19028 0.81998 0.0
C489 C 0.21635 0.21632 0.81109 0.0
C490 C 0.21147 0.17602 0.83857 0.0
C491 C 0.18513 0.18723 0.84859 0.0
C492 C 0.17481 0.2134 0.84003 0.0
H493 H 0.06164 0.0916 0.93323 0.0
H494 H 0.08546 0.11775 0.89974 0.0
C495 C 0.19016 0.22773 0.82144 0.0
C496 C 0.16883 0.17198 0.86848 0.0
H497 H 0.13656 0.10816 0.87481 0.0
C498 C 0.16408 0.18607 0.89602 0.0
C499 C 0.15811 0.14371 0.86058 0.0
C500 C 0.16079 0.12785 0.83076 0.0
C501 C 0.14963 0.17253 0.91601 0.0
C502 C 0.14005 0.14384 0.90858 0.0
C503 C 0.14416 0.13 0.88077 0.0
C504 C 0.12559 0.12787 0.92922 0.0
C505 C 0.14435 0.18931 0.94473 0.0
C506 C 0.14025 0.12433 0.95693 0.0
C507 C 0.12666 0.10931 0.97619 0.0
C508 C 0.09812 0.09713 0.96816 0.0
C509 C 0.08368 0.10035 0.94019 0.0
C510 C 0.09727 0.11547 0.92099 0.0
H511 H 0.14492 0.2126 0.94357 0.0
H512 H 0.12258 0.18369 0.95145 0.0
H513 H 0.16214 0.18443 0.9619 0.0
H514 H 0.16242 0.13295 0.96361 0.0
H515 H 0.13877 0.10689 0.99722 0.0
H516 H 0.09009 0.99805 0.08339 0.0
H517 H 0.12092 0.9686 0.11486 0.0
H518 H 0.06695 0.89526 0.07883 0.0
H519 H 0.03512 0.92502 0.04903 0.0
H520 H 0.07942 0.88792 0.12996 0.0
H521 H 0.1883 0.92006 0.10177 0.0
H522 H 0.16938 0.95013 0.11811 0.0
H523 H 0.15398 0.9316 0.08335 0.0
C524 C 0.08472 0.97565 0.08216 0.0
C525 C 0.05978 0.96426 0.06331 0.0
C526 C 0.10281 0.95846 0.10008 0.0
C527 C 0.09744 0.92886 0.09925 0.0
C528 C 0.07231 0.91769 0.08048 0.0
H529 H 0.23465 0.81159 0.17108 0.0
H530 H 0.20369 0.84273 0.14175 0.0
C531 C 0.05388 0.93495 0.06314 0.0
C532 C 0.11703 0.90963 0.11806 0.0
H533 H 0.18944 0.89332 0.14203 0.0
C534 C 0.1035 0.88921 0.13227 0.0
C535 C 0.14879 0.91011 0.12136 0.0
C536 C 0.16597 0.92892 0.10508 0.0
C537 C 0.12008 0.87 0.14913 0.0
C538 C 0.15179 0.87154 0.15374 0.0
C539 C 0.16537 0.89182 0.13938 0.0
C540 C 0.17119 0.85206 0.17241 0.0
C541 C 0.10299 0.84739 0.16066 0.0
C542 C 0.16443 0.84643 0.20023 0.0
C543 C 0.18193 0.82782 0.21686 0.0
C544 C 0.20768 0.81468 0.20698 0.0
C545 C 0.21513 0.82106 0.17971 0.0
C546 C 0.19723 0.83916 0.16277 0.0
H547 H 0.08136 0.84254 0.14706 0.0
H548 H 0.11575 0.82732 0.16119 0.0
H549 H 0.09805 0.85521 0.18312 0.0
H550 H 0.14562 0.85662 0.20947 0.0
H551 H 0.17541 0.824 0.23779 0.0
H552 H 0.42853 0.99209 0.44868 0.0
H553 H 0.38759 0.9641 0.4205 0.0
H554 H 0.39181 0.90671 0.48623 0.0
H555 H 0.43321 0.93427 0.5143 0.0
H556 H 0.39755 0.87934 0.43311 0.0
H557 H 0.30005 0.95022 0.42438 0.0
H558 H 0.33278 0.96612 0.4146 0.0
H559 H 0.33183 0.95816 0.45144 0.0
C560 C 0.42022 0.974 0.4576 0.0
C561 C 0.43433 0.9653 0.48365 0.0
C562 C 0.39662 0.95807 0.4415 0.0
C563 C 0.38644 0.93338 0.45132 0.0
C564 C 0.39924 0.92573 0.47826 0.0
H565 H 0.25396 0.81443 0.3477 0.0
H566 H 0.27843 0.84804 0.38775 0.0
C567 C 0.42291 0.94154 0.49431 0.0
C568 C 0.3658 0.91344 0.4316 0.0
H569 H 0.29954 0.90925 0.38766 0.0
C570 C 0.3759 0.88578 0.42361 0.0
C571 C 0.33747 0.92173 0.41924 0.0
C572 C 0.32475 0.9506 0.42808 0.0
C573 C 0.35911 0.86668 0.40269 0.0
C574 C 0.33164 0.87554 0.38909 0.0
C575 C 0.32078 0.90267 0.39796 0.0
C576 C 0.31514 0.85735 0.36432 0.0
C577 C 0.3712 0.83731 0.39477 0.0
C578 C 0.32737 0.85208 0.33778 0.0
C579 C 0.31355 0.83305 0.31499 0.0
C580 C 0.28714 0.81884 0.31824 0.0
C581 C 0.2743 0.82496 0.34452 0.0
C582 C 0.2882 0.84416 0.36739 0.0
H583 H 0.3887 0.8315 0.41181 0.0
H584 H 0.35315 0.82107 0.39159 0.0
H585 H 0.38119 0.83673 0.37395 0.0
H586 H 0.34802 0.86229 0.33493 0.0
H587 H 0.32401 0.82902 0.29504 0.0
H588 H 0.3828 0.21893 0.72672 0.0
H589 H 0.42503 0.20363 0.70097 0.0
H590 H 0.41704 0.11919 0.72514 0.0
H591 H 0.37555 0.13456 0.75231 0.0
H592 H 0.4772 0.1363 0.71857 0.0
H593 H 0.39348 0.15383 0.62442 0.0
H594 H 0.40372 0.18407 0.65094 0.0
H595 H 0.38355 0.15495 0.66106 0.0
C596 C 0.39053 0.19738 0.72765 0.0
C597 C 0.37494 0.17765 0.74078 0.0
C598 C 0.41474 0.18869 0.71276 0.0
C599 C 0.42346 0.16015 0.71052 0.0
C600 C 0.41033 0.14128 0.72641 0.0
H601 H 0.48868 0.02307 0.6081 0.0
H602 H 0.47705 0.0593 0.6471 0.0
C603 C 0.38633 0.15001 0.74158 0.0
C604 C 0.44173 0.14852 0.6876 0.0
H605 H 0.43602 0.12872 0.61407 0.0
C606 C 0.46861 0.1351 0.69564 0.0
C607 C 0.43037 0.14712 0.65773 0.0
C608 C 0.40114 0.16057 0.64786 0.0
C609 C 0.48379 0.11909 0.67457 0.0
C610 C 0.47128 0.11606 0.64498 0.0
C611 C 0.4455 0.13108 0.6368 0.0
C612 C 0.48203 0.09479 0.62264 0.0
C613 C 0.51262 0.10503 0.68429 0.0
C614 C 0.48787 0.10267 0.59565 0.0
C615 C 0.49381 0.08192 0.57304 0.0
C616 C 0.49401 0.05298 0.57712 0.0
C617 C 0.48866 0.04521 0.60432 0.0
C618 C 0.48249 0.06593 0.6268 0.0
H619 H 0.5245 0.11751 0.704 0.0
H620 H 0.50775 0.08365 0.69015 0.0
H621 H 0.52753 0.10251 0.66674 0.0
H622 H 0.48721 0.12482 0.5919 0.0
H623 H 0.49808 0.08857 0.55236 0.0
H624 H 0.09705 0.95825 0.53435 0.0
H625 H 0.13468 0.94569 0.57246 0.0
H626 H 0.08577 0.9901 0.63849 0.0
H627 H 0.04738 1.00224 0.60036 0.0
H628 H 0.17081 0.97973 0.61701 0.0
H629 H 0.09292 0.9094 0.66116 0.0
H630 H 0.08354 0.92287 0.62659 0.0
H631 H 0.08294 0.9461 0.66012 0.0
C632 C 0.09423 0.96533 0.55697 0.0
C633 C 0.06912 0.9809 0.56443 0.0
C634 C 0.11586 0.95835 0.57868 0.0
C635 C 0.11288 0.96692 0.6082 0.0
C636 C 0.08822 0.98305 0.6158 0.0
H637 H 0.21597 0.86597 0.72598 0.0
H638 H 0.19188 0.91009 0.71504 0.0
C639 C 0.06633 0.98986 0.59403 0.0
C640 C 0.13481 0.95686 0.63058 0.0
H641 H 0.14349 0.90514 0.67564 0.0
C642 C 0.16488 0.96392 0.63046 0.0
C643 C 0.12687 0.93658 0.64834 0.0
C644 C 0.09488 0.92807 0.64912 0.0
C645 C 0.18743 0.94935 0.64572 0.0
C646 C 0.17951 0.92713 0.6611 0.0
C647 C 0.14943 0.92215 0.66365 0.0
C648 C 0.20102 0.90541 0.66999 0.0
C649 C 0.21945 0.95685 0.64401 0.0
C650 C 0.21498 0.88862 0.64847 0.0
C651 C 0.2289 0.86335 0.65465 0.0
C652 C 0.22883 0.85433 0.68235 0.0
C653 C 0.21669 0.87227 0.70445 0.0
C654 C 0.20284 0.89757 0.69827 0.0
H655 H 0.22188 0.9798 0.64179 0.0
H656 H 0.23406 0.95184 0.66361 0.0
H657 H 0.22711 0.94448 0.62438 0.0
H658 H 0.21327 0.89396 0.6263 0.0
H659 H 0.23846 0.85022 0.63736 0.0
H660 H 0.34132 0.78642 0.83047 0.0
H661 H 0.37931 0.82162 0.85214 0.0
H662 H 0.36158 0.86823 0.77788 0.0
H663 H 0.32349 0.83316 0.75587 0.0
H664 H 0.42807 0.8597 0.80559 0.0
H665 H 0.34571 0.90588 0.87832 0.0
H666 H 0.35016 0.86786 0.87519 0.0
H667 H 0.3348 0.88424 0.84397 0.0
C668 C 0.34577 0.80391 0.81852 0.0
C669 C 0.3292 0.80724 0.79165 0.0
C670 C 0.36753 0.82388 0.83087 0.0
C671 C 0.37302 0.84734 0.81651 0.0
C672 C 0.35761 0.85007 0.78909 0.0
H673 H 0.44824 0.9999 0.91762 0.0
H674 H 0.42285 0.96927 0.87617 0.0
C675 C 0.33578 0.83014 0.77671 0.0
C676 C 0.39235 0.87058 0.83175 0.0
H677 H 0.3949 0.92335 0.88869 0.0
C678 C 0.4209 0.87388 0.82361 0.0
C679 C 0.38249 0.88913 0.8548 0.0
C680 C 0.35155 0.88688 0.86358 0.0
C681 C 0.44045 0.8949 0.8389 0.0
C682 C 0.43103 0.91261 0.86288 0.0
C683 C 0.40205 0.9098 0.87021 0.0
C684 C 0.45111 0.93291 0.88235 0.0
C685 C 0.47092 0.89787 0.82939 0.0
C686 C 0.47615 0.92292 0.89873 0.0
C687 C 0.49085 0.94046 0.92232 0.0
C688 C 0.48028 0.96799 0.93008 0.0
C689 C 0.4566 0.97862 0.91231 0.0
C690 C 0.44218 0.96122 0.88857 0.0
H691 H 0.47123 0.8896 0.80596 0.0
H692 H 0.47848 0.92043 0.8329 0.0
H693 H 0.48704 0.88533 0.84243 0.0
H694 H 0.48303 0.90098 0.89468 0.0
H695 H 0.50908 0.93176 0.93566 0.0
H696 H 0.41935 0.07405 0.07807 0.0
H697 H 0.38322 0.09302 0.10984 0.0
H698 H 0.31854 0.09882 0.03495 0.0
H699 H 0.35493 0.07926 1.00256 0.0
H700 H 0.32528 0.14829 0.07138 0.0
H701 H 0.30982 0.06115 0.13683 0.0
H702 H 0.34873 0.0669 0.13554 0.0
H703 H 0.32508 0.05537 0.10226 0.0
C704 C 0.39726 0.07855 0.06823 0.0
C705 C 0.38998 0.07491 0.03773 0.0
C706 C 0.37651 0.08931 0.08651 0.0
C707 C 0.34795 0.09657 0.0748 0.0
C708 C 0.34037 0.09288 0.04438 0.0
H709 H 0.24932 0.18034 0.21433 0.0
H710 H 0.25839 0.14658 0.17192 0.0
C711 C 0.36123 0.082 0.02595 0.0
C712 C 0.32795 0.1114 0.09456 0.0
H713 H 0.30629 0.10962 0.16232 0.0
C714 C 0.32027 0.13958 0.09085 0.0
C715 C 0.32086 0.09986 0.11965 0.0
C716 C 0.32628 0.06903 0.1236 0.0
C717 C 0.3086 0.1574 0.11305 0.0
C718 C 0.30512 0.14679 0.13966 0.0
C719 C 0.30974 0.11785 0.14213 0.0
C720 C 0.29998 0.16609 0.16599 0.0
C721 C 0.30147 0.1878 0.10839 0.0
C722 C 0.32102 0.18739 0.17724 0.0
C723 C 0.31605 0.20658 0.2014 0.0
C724 C 0.28998 0.20467 0.21482 0.0
C725 C 0.26959 0.18242 0.20436 0.0
C726 C 0.27461 0.1632 0.18011 0.0
H727 H 0.29586 0.1899 0.0848 0.0
H728 H 0.28258 0.19587 0.12031 0.0
H729 H 0.32124 0.20142 0.11662 0.0
H730 H 0.34115 0.18941 0.16703 0.0
H731 H 0.33227 0.22334 0.20905 0.0
H732 H 0.10455 0.04438 0.43178 0.0
H733 H 0.12681 0.06861 0.39608 0.0
H734 H 0.11596 0.99274 0.334 0.0
H735 H 0.0931 0.96828 0.36997 0.0
H736 H 0.1775 0.05286 0.36384 0.0
H737 H 0.06904 0.05786 0.29414 0.0
H738 H 0.07067 0.05024 0.33147 0.0
H739 H 0.08249 0.02402 0.30399 0.0
C740 C 0.10698 0.03282 0.41057 0.0
C741 C 0.09676 1.00465 0.4034 0.0
C742 C 0.1199 0.04658 0.3903 0.0
C743 C 0.12274 0.0325 0.3624 0.0
C744 C 0.11371 1.00395 0.35542 0.0
H745 H 0.20656 0.1512 0.26336 0.0
H746 H 0.19323 0.10441 0.27563 0.0
C747 C 0.10087 0.99001 0.37593 0.0
C748 C 0.1335 0.049 0.34066 0.0
H749 H 0.10702 0.08874 0.28687 0.0
C750 C 0.16248 0.06015 0.34637 0.0
C751 C 0.11362 0.05845 0.31811 0.0
C752 C 0.08215 0.04719 0.31141 0.0
C753 C 0.17143 0.08222 0.33167 0.0
C754 C 0.15087 0.09301 0.31044 0.0
C755 C 0.12264 0.08033 0.30316 0.0
C756 C 0.15663 0.12005 0.29913 0.0
C757 C 0.20191 0.09538 0.34071 0.0
C758 C 0.13966 0.14403 0.30724 0.0
C759 C 0.14716 0.1707 0.30025 0.0
C760 C 0.17184 0.17384 0.2851 0.0
C761 C 0.18784 0.1495 0.27565 0.0
C762 C 0.18022 0.12278 0.28253 0.0
H763 H 0.21345 0.08704 0.36034 0.0
H764 H 0.21585 0.09065 0.32256 0.0
H765 H 0.20024 0.11887 0.34544 0.0
H766 H 0.12138 0.14233 0.32012 0.0
H767 H 0.13451 0.18901 0.30792 0.0
H768 H 0.82508 0.18453 0.23555 0.0
H769 H 0.8577 0.15345 0.20731 0.0
H770 H 0.83325 0.19758 0.13231 0.0
H771 H 0.80013 0.22843 0.16035 0.0
H772 H 0.8346 0.14194 0.11492 0.0
H773 H 0.93917 0.16865 0.18681 0.0
H774 H 0.91096 0.15535 0.20588 0.0
H775 H 0.90545 0.18856 0.19085 0.0
C776 C 0.82666 0.18781 0.21307 0.0
C777 C 0.80983 0.20939 0.20052 0.0
C778 C 0.84567 0.17 0.19686 0.0
C779 C 0.84884 0.17318 0.16751 0.0
C780 C 0.83169 0.19447 0.15483 0.0
H781 H 0.99184 0.09646 0.06752 0.0
H782 H 0.96038 0.12818 0.09682 0.0
C783 C 0.81265 0.21228 0.17102 0.0
C784 C 0.86929 0.15406 0.14989 0.0
H785 H 0.94097 0.1292 0.14993 0.0
C786 C 0.85786 0.13929 0.12269 0.0
C787 C 0.90001 0.15054 0.15931 0.0
C788 C 0.91475 0.16682 0.18715 0.0
C789 C 0.8757 0.12108 0.1053 0.0
C790 C 0.90613 0.1167 0.11524 0.0
C791 C 0.91774 0.13193 0.14213 0.0
C792 C 0.92616 0.09676 0.09799 0.0
C793 C 0.86174 0.10721 0.07594 0.0
C794 C 0.91834 0.06797 0.08911 0.0
C795 C 0.9364 0.04971 0.0723 0.0
C796 C 0.96322 0.05939 0.06385 0.0
C797 C 0.97151 0.08799 0.07345 0.0
C798 C 0.95338 0.10629 0.0903 0.0
H799 H 0.84188 0.11906 0.06771 0.0
H800 H 0.87782 0.10584 0.05946 0.0
H801 H 0.8544 0.08534 0.07811 0.0
H802 H 0.89811 0.05946 0.09518 0.0
H803 H 0.92908 0.02792 0.06563 0.0
H804 H 0.02267 0.60107 0.47745 0.0
H805 H 0.0497 0.6328 0.45173 0.0
H806 H 0.10108 0.56184 0.41769 0.0
H807 H 0.07514 0.53026 0.44462 0.0
H808 H 0.13574 0.6066 0.43264 0.0
H809 H 0.03444 0.63987 0.36698 0.0
H810 H 0.03243 0.6482 0.40542 0.0
H811 H 0.03391 0.61158 0.38959 0.0
C812 C 0.03972 0.59223 0.46446 0.0
C813 C 0.04653 0.56311 0.46277 0.0
C814 C 0.05505 0.61037 0.44961 0.0
C815 C 0.07691 0.59964 0.43207 0.0
C816 C 0.08419 0.57064 0.4309 0.0
H817 H 0.13228 0.68417 0.29256 0.0
H818 H 0.11152 0.65298 0.32342 0.0
C819 C 0.06928 0.55258 0.44622 0.0
C820 C 0.09202 0.61852 0.41478 0.0
H821 H 0.07875 0.66553 0.36465 0.0
C822 C 0.12328 0.6194 0.41766 0.0
C823 C 0.07583 0.63494 0.39488 0.0
C824 C 0.04233 0.6334 0.38877 0.0
C825 C 0.13876 0.63621 0.40126 0.0
C826 C 0.12253 0.65342 0.38217 0.0
C827 C 0.09128 0.65258 0.37943 0.0
C828 C 0.13711 0.67139 0.36356 0.0
C829 C 0.17226 0.63455 0.4039 0.0
C830 C 0.15876 0.69204 0.37564 0.0
C831 C 0.17112 0.70956 0.35777 0.0
C832 C 0.16137 0.70726 0.32774 0.0
C833 C 0.13987 0.68659 0.31573 0.0
C834 C 0.12804 0.66876 0.33337 0.0
H835 H 0.18043 0.61456 0.41227 0.0
H836 H 0.18068 0.63572 0.38252 0.0
H837 H 0.18186 0.65263 0.41958 0.0
H838 H 0.16563 0.69508 0.39894 0.0
H839 H 0.18752 0.72551 0.36747 0.0
H840 H 0.5464 0.87329 0.52829 0.0
H841 H 0.57278 0.82884 0.53294 0.0
H842 H 0.56251 0.83805 0.62497 0.0
H843 H 0.5344 0.88124 0.62003 0.0
H844 H 0.62387 0.82855 0.56088 0.0
H845 H 0.55877 0.75485 0.61034 0.0
H846 H 0.54123 0.78387 0.59313 0.0
H847 H 0.5556 0.7887 0.63144 0.0
C848 C 0.5485 0.86525 0.54925 0.0
C849 C 0.53883 0.88126 0.57403 0.0
C850 C 0.56379 0.83978 0.55187 0.0
C851 C 0.56971 0.82995 0.57926 0.0
C852 C 0.55777 0.84466 0.6034 0.0
H853 H 0.72286 0.80976 0.67994 0.0
H854 H 0.68652 0.81854 0.63898 0.0
C855 C 0.54213 0.8698 0.6007 0.0
C856 C 0.59297 0.80834 0.58432 0.0
H857 H 0.61241 0.7604 0.63187 0.0
C858 C 0.62113 0.81286 0.57557 0.0
C859 C 0.58955 0.78698 0.60247 0.0
C860 C 0.55947 0.77818 0.60949 0.0
C861 C 0.64645 0.79946 0.58772 0.0
C862 C 0.6436 0.78208 0.60996 0.0
C863 C 0.61499 0.77454 0.61559 0.0
C864 C 0.66938 0.77521 0.63063 0.0
C865 C 0.67605 0.80516 0.57749 0.0
C866 C 0.67191 0.74805 0.63986 0.0
C867 C 0.69183 0.74344 0.66403 0.0
C868 C 0.71003 0.76571 0.67893 0.0
C869 C 0.70919 0.79226 0.66853 0.0
C870 C 0.68863 0.79713 0.64486 0.0
H871 H 0.67335 0.80642 0.55357 0.0
H872 H 0.68485 0.82608 0.58839 0.0
H873 H 0.69255 0.78841 0.5823 0.0
H874 H 0.65739 0.73081 0.62933 0.0
H875 H 0.69235 0.72269 0.67169 0.0
H876 H 0.5037 0.40574 0.96537 0.0
H877 H 0.46899 0.36938 0.93965 0.0
H878 H 0.40146 0.40096 0.99341 0.0
H879 H 0.43598 0.43743 0.01944 0.0
H880 H 0.41259 0.32959 0.96465 0.0
H881 H 0.39054 0.4186 0.89664 0.0
H882 H 0.42783 0.41278 0.91305 0.0
H883 H 0.39988 0.42546 0.93572 0.0
C884 C 0.48189 0.40426 0.97259 0.0
C885 C 0.47238 0.42482 0.99404 0.0
C886 C 0.46212 0.38342 0.95789 0.0
C887 C 0.43273 0.38283 0.96454 0.0
C888 C 0.42417 0.40116 0.98813 0.0
H889 H 0.28143 0.32837 0.83754 0.0
H890 H 0.31286 0.35155 0.88013 0.0
C891 C 0.44396 0.42198 1.00296 0.0
C892 C 0.40991 0.3675 0.94327 0.0
H893 H 0.36638 0.37513 0.87976 0.0
C894 C 0.40225 0.33946 0.94616 0.0
C895 C 0.39642 0.38075 0.91946 0.0
C896 C 0.40389 0.41108 0.91582 0.0
C897 C 0.38155 0.32403 0.92531 0.0
C898 C 0.36886 0.33695 0.90084 0.0
C899 C 0.37613 0.36526 0.8985 0.0
C900 C 0.34884 0.32137 0.87671 0.0
C901 C 0.37332 0.29419 0.92981 0.0
C902 C 0.35871 0.29682 0.86058 0.0
C903 C 0.34078 0.28349 0.83631 0.0
C904 C 0.31279 0.2947 0.82748 0.0
C905 C 0.3029 0.31925 0.84373 0.0
C906 C 0.32078 0.33246 0.86812 0.0
H907 H 0.37732 0.29089 0.95324 0.0
H908 H 0.3496 0.28937 0.92181 0.0
H909 H 0.38729 0.27882 0.91748 0.0
H910 H 0.38062 0.28836 0.86629 0.0
H911 H 0.34912 0.26468 0.82416 0.0
H912 H 0.83309 0.76862 0.31999 0.0
H913 H 0.86491 0.79469 0.36034 0.0
H914 H 0.80143 0.86305 0.36437 0.0
H915 H 0.76946 0.83722 0.32358 0.0
H916 H 0.85844 0.88114 0.36179 0.0
H917 H 0.85762 0.80955 0.44768 0.0
H918 H 0.86679 0.7916 0.41353 0.0
H919 H 0.83046 0.80685 0.41572 0.0
C920 C 0.82569 0.78908 0.32961 0.0
C921 C 0.79875 0.80089 0.31853 0.0
C922 C 0.84381 0.80382 0.35288 0.0
C923 C 0.83528 0.83055 0.36569 0.0
C924 C 0.80825 0.8423 0.35493 0.0
H925 H 0.9309 0.9435 0.50757 0.0
H926 H 0.89413 0.90981 0.48008 0.0
C927 C 0.79006 0.82755 0.33161 0.0
C928 C 0.85588 0.84724 0.38844 0.0
H929 H 0.89651 0.8449 0.45493 0.0
C930 C 0.86648 0.87336 0.38229 0.0
C931 C 0.86622 0.8371 0.41525 0.0
C932 C 0.85447 0.80986 0.42362 0.0
C933 C 0.88791 0.88916 0.40175 0.0
C934 C 0.89925 0.87837 0.42787 0.0
C935 C 0.88799 0.85279 0.43463 0.0
C936 C 0.92309 0.89368 0.44799 0.0
C937 C 0.89859 0.91718 0.39415 0.0
C938 C 0.95188 0.89457 0.43975 0.0
C939 C 0.97293 0.9137 0.45534 0.0
C940 C 0.96542 0.93233 0.47937 0.0
C941 C 0.93736 0.92953 0.48911 0.0
C942 C 0.9163 0.91032 0.47345 0.0
H943 H 0.88391 0.92489 0.3759 0.0
H944 H 0.89971 0.93369 0.41345 0.0
H945 H 0.92133 0.91455 0.38749 0.0
H946 H 0.95747 0.88168 0.42019 0.0
H947 H 0.99439 0.91518 0.44738 0.0
H948 H 0.42998 0.52678 0.56665 0.0
H949 H 0.40027 0.55724 0.59847 0.0
H950 H 0.46406 0.62525 0.60343 0.0
H951 H 0.49425 0.59459 0.57166 0.0
H952 H 0.44489 0.6223 0.65724 0.0
H953 H 0.34594 0.62056 0.57513 0.0
H954 H 0.35768 0.58563 0.5825 0.0
H955 H 0.38161 0.60747 0.56586 0.0
C956 C 0.43791 0.54818 0.57448 0.0
C957 C 0.46475 0.558 0.56619 0.0
C958 C 0.42059 0.56582 0.59265 0.0
C959 C 0.42923 0.59408 0.60319 0.0
C960 C 0.45647 0.60373 0.59566 0.0
H961 H 0.30861 0.72557 0.67406 0.0
H962 H 0.34105 0.6954 0.64479 0.0
C963 C 0.47385 0.58606 0.57738 0.0
C964 C 0.40989 0.61334 0.62187 0.0
H965 H 0.3393 0.64046 0.62348 0.0
C966 C 0.42182 0.62624 0.64974 0.0
C967 C 0.3797 0.61918 0.61237 0.0
C968 C 0.3655 0.60774 0.58223 0.0
C969 C 0.40458 0.644 0.66824 0.0
C970 C 0.3741 0.64906 0.65912 0.0
C971 C 0.36238 0.63659 0.63101 0.0
C972 C 0.35427 0.66778 0.6778 0.0
C973 C 0.41956 0.65777 0.69721 0.0
C974 C 0.35007 0.66264 0.70642 0.0
C975 C 0.33133 0.68008 0.7234 0.0
C976 C 0.31596 0.70324 0.71234 0.0
C977 C 0.31998 0.70815 0.68362 0.0
C978 C 0.33864 0.69072 0.66668 0.0
H979 H 0.44412 0.6586 0.69741 0.0
H980 H 0.41135 0.67974 0.70245 0.0
H981 H 0.41458 0.6451 0.71469 0.0
H982 H 0.361 0.64484 0.71562 0.0
H983 H 0.32882 0.6753 0.74523 0.0
H984 H 0.59271 0.04507 0.97496 0.0
H985 H 0.61912 0.0778 0.94983 0.0
H986 H 0.5396 0.12783 0.93808 0.0
H987 H 0.5131 0.09546 0.96363 0.0
H988 H 0.60594 0.08955 0.89347 0.0
H989 H 0.60193 0.18856 0.97014 0.0
H990 H 0.59381 0.15396 0.98004 0.0
H991 H 0.56608 0.17241 0.95862 0.0
C992 C 0.58088 0.0632 0.96732 0.0
C993 C 0.55078 0.0677 0.97141 0.0
C994 C 0.59604 0.08188 0.95293 0.0
C995 C 0.5815 0.10551 0.94245 0.0
C996 C 0.55149 0.11012 0.94658 0.0
H997 H 0.6175 0.23034 0.83082 0.0
H998 H 0.59769 0.20118 0.86425 0.0
C999 C 0.5363 0.09148 0.96103 0.0
C1000 C 0.59725 0.12435 0.92574 0.0
H1001 H 0.61661 0.19358 0.9232 0.0
C1002 C 0.60856 0.11225 0.90013 0.0
C1003 C 0.60063 0.15397 0.93446 0.0
C1004 C 0.59023 0.16799 0.96247 0.0
C1005 C 0.62232 0.12906 0.8825 0.0
C1006 C 0.62528 0.15874 0.89097 0.0
C1007 C 0.61434 0.17081 0.91678 0.0
C1008 C 0.63835 0.17773 0.8725 0.0
C1009 C 0.63263 0.11506 0.85442 0.0
C1010 C 0.66806 0.17478 0.86665 0.0
C1011 C 0.67944 0.19136 0.8474 0.0
C1012 C 0.66128 0.21123 0.83367 0.0
C1013 C 0.63191 0.21491 0.8406 0.0
C1014 C 0.6206 0.19839 0.85986 0.0
H1015 H 0.62298 0.09338 0.84798 0.0
H1016 H 0.62655 0.12807 0.8363 0.0
H1017 H 0.65722 0.11312 0.85737 0.0
H1018 H 0.68229 0.15927 0.87657 0.0
H1019 H 0.70208 0.18785 0.84249 0.0
H1020 H 0.03641 0.38545 0.07822 0.0
H1021 H 0.07818 0.35775 0.09762 0.0
H1022 H 0.13938 0.41119 0.06382 0.0
H1023 H 0.09808 0.43976 0.0455 0.0
H1024 H 0.12657 0.32808 0.07192 0.0
H1025 H 0.16334 0.42163 0.15288 0.0
H1026 H 0.1273 0.41998 0.13163 0.0
H1027 H 0.15997 0.42702 0.11498 0.0
C1028 C 0.05872 0.39134 0.0749 0.0
C1029 C 0.06385 0.41512 0.06072 0.0
C1030 C 0.08251 0.37529 0.08568 0.0
C1031 C 0.11174 0.38275 0.08239 0.0
C1032 C 0.11691 0.40538 0.06679 0.0
H1033 H 0.26371 0.3247 0.19339 0.0
H1034 H 0.23705 0.34497 0.15184 0.0
C1035 C 0.09318 0.42155 0.05616 0.0
C1036 C 0.13672 0.3685 0.0978 0.0
H1037 H 0.18864 0.37895 0.15738 0.0
C1038 C 0.1405 0.3392 0.09035 0.0
C1039 C 0.15487 0.38325 0.12166 0.0
C1040 C 0.15118 0.41466 0.13101 0.0
C1041 C 0.1613 0.32396 0.107 0.0
C1042 C 0.1782 0.33843 0.13185 0.0
C1043 C 0.17563 0.36799 0.13823 0.0
C1044 C 0.1956 0.32315 0.15381 0.0
C1045 C 0.16447 0.29243 0.09828 0.0
C1046 C 0.18101 0.30427 0.16857 0.0
C1047 C 0.19603 0.29282 0.1923 0.0
C1048 C 0.22586 0.30026 0.20183 0.0
C1049 C 0.24068 0.31866 0.18658 0.0
C1050 C 0.22559 0.33012 0.16278 0.0
H1051 H 0.15852 0.28674 0.07437 0.0
H1052 H 0.1875 0.28522 0.10437 0.0
H1053 H 0.14906 0.28072 0.10963 0.0
H1054 H 0.15763 0.29927 0.16249 0.0
H1055 H 0.18401 0.27868 0.20358 0.0
H1056 H 0.53092 0.4955 0.87115 0.0
H1057 H 0.54585 0.51985 0.83146 0.0
H1058 H 0.63814 0.50952 0.86377 0.0
H1059 H 0.62312 0.48438 0.90277 0.0
H1060 H 0.57292 0.56908 0.84683 0.0
H1061 H 0.64375 0.50183 0.77745 0.0
H1062 H 0.6199 0.48707 0.80059 0.0
H1063 H 0.65611 0.50113 0.81546 0.0
C1064 C 0.55436 0.49762 0.86904 0.0
C1065 C 0.57593 0.48842 0.89 0.0
C1066 C 0.56288 0.51137 0.84637 0.0
C1067 C 0.59311 0.51642 0.84456 0.0
C1068 C 0.61472 0.50528 0.86424 0.0
H1069 H 0.69934 0.64851 0.80556 0.0
H1070 H 0.67875 0.60394 0.81659 0.0
C1071 C 0.60616 0.49109 0.88665 0.0
C1072 C 0.6017 0.53808 0.82658 0.0
H1073 H 0.65165 0.55304 0.78064 0.0
C1074 C 0.58958 0.56535 0.83175 0.0
C1075 C 0.62364 0.53326 0.80718 0.0
C1076 C 0.63635 0.50413 0.79963 0.0
C1077 C 0.59992 0.58832 0.81938 0.0
C1078 C 0.62275 0.58378 0.80099 0.0
C1079 C 0.63414 0.55634 0.7948 0.0
C1080 C 0.63661 0.60795 0.79026 0.0
C1081 C 0.58753 0.61758 0.82744 0.0
C1082 C 0.61994 0.62441 0.77123 0.0
C1083 C 0.63155 0.64994 0.7651 0.0
C1084 C 0.66009 0.65924 0.77773 0.0
C1085 C 0.67734 0.64185 0.79548 0.0
C1086 C 0.66565 0.61639 0.80172 0.0
H1087 H 0.57381 0.61816 0.84588 0.0
H1088 H 0.60579 0.63349 0.83357 0.0
H1089 H 0.57328 0.62407 0.8083 0.0
H1090 H 0.59758 0.61798 0.76196 0.0
H1091 H 0.61805 0.66258 0.75079 0.0
H1092 H 0.69302 0.33731 0.12053 0.0
H1093 H 0.68077 0.38412 0.10682 0.0
H1094 H 0.73631 0.42307 0.18287 0.0
H1095 H 0.74915 0.37579 0.19672 0.0
H1096 H 0.68086 0.44598 0.17809 0.0
H1097 H 0.72476 0.44353 0.07249 0.0
H1098 H 0.70586 0.4105 0.07287 0.0
H1099 H 0.73817 0.41988 0.09883 0.0
C1100 C 0.70334 0.35567 0.13399 0.0
C1101 C 0.72206 0.35274 0.15971 0.0
C1102 C 0.69641 0.3825 0.12606 0.0
C1103 C 0.7082 0.40704 0.14349 0.0
C1104 C 0.7273 0.40434 0.16898 0.0
H1105 H 0.60486 0.5183 0.0418 0.0
H1106 H 0.64999 0.51165 0.07467 0.0
C1107 C 0.73435 0.37734 0.17695 0.0
C1108 C 0.69722 0.43502 0.13629 0.0
H1109 H 0.67475 0.46532 0.07499 0.0
C1110 C 0.68031 0.45105 0.15586 0.0
C1111 C 0.69757 0.44259 0.10785 0.0
C1112 C 0.71793 0.42835 0.087 0.0
C1113 C 0.66014 0.47143 0.14615 0.0
C1114 C 0.65631 0.47486 0.11609 0.0
C1115 C 0.67675 0.46216 0.09789 0.0
C1116 C 0.62836 0.48596 0.10182 0.0
C1117 C 0.64195 0.48768 0.16782 0.0
C1118 C 0.60087 0.4748 0.10682 0.0
C1119 C 0.57502 0.47921 0.08851 0.0
C1120 C 0.57655 0.49391 0.06436 0.0
C1121 C 0.6035 0.50639 0.06014 0.0
C1122 C 0.62917 0.50278 0.07899 0.0
H1123 H 0.65602 0.49395 0.18884 0.0
H1124 H 0.63201 0.50711 0.15962 0.0
H1125 H 0.62391 0.47373 0.17248 0.0
H1126 H 0.59962 0.46093 0.12353 0.0
H1127 H 0.55433 0.46949 0.09203 0.0
H1128 H 0.93844 0.50792 0.4162 0.0
H1129 H 0.91176 0.48201 0.37208 0.0
H1130 H 0.95789 0.40511 0.39094 0.0
H1131 H 0.9856 0.43115 0.43418 0.0
H1132 H 0.95079 0.40874 0.33318 0.0
H1133 H 0.84354 0.43092 0.3794 0.0
H1134 H 0.86361 0.46196 0.37385 0.0
H1135 H 0.87897 0.43958 0.40041 0.0
C1136 C 0.94306 0.48555 0.41071 0.0
C1137 C 0.96373 0.47139 0.42876 0.0
C1138 C 0.92776 0.47078 0.3856 0.0
C1139 C 0.93232 0.44151 0.37867 0.0
C1140 C 0.95397 0.42769 0.39595 0.0
H1141 H 0.84681 0.29247 0.30218 0.0
H1142 H 0.88215 0.33037 0.32301 0.0
C1143 C 0.9697 0.44255 0.4207 0.0
C1144 C 0.91323 0.42458 0.35485 0.0
H1145 H 0.8417 0.40148 0.33493 0.0
C1146 C 0.92688 0.40744 0.33331 0.0
C1147 C 0.88201 0.42288 0.35513 0.0
C1148 C 0.86613 0.4396 0.37854 0.0
C1149 C 0.91028 0.38775 0.31283 0.0
C1150 C 0.87939 0.38545 0.31388 0.0
C1151 C 0.86546 0.40364 0.33422 0.0
C1152 C 0.86164 0.36179 0.2971 0.0
C1153 C 0.92587 0.36882 0.29087 0.0
C1154 C 0.83876 0.36701 0.27544 0.0
C1155 C 0.81865 0.34535 0.26333 0.0
C1156 C 0.82086 0.31844 0.2733 0.0
C1157 C 0.84452 0.31304 0.29421 0.0
C1158 C 0.86483 0.33456 0.30594 0.0
H1159 H 0.94826 0.37723 0.28866 0.0
H1160 H 0.92859 0.34735 0.29808 0.0
H1161 H 0.91241 0.36645 0.26912 0.0
H1162 H 0.83583 0.38808 0.26872 0.0
H1163 H 0.80055 0.35009 0.24728 0.0
H1164 H 0.63668 0.60839 0.49455 0.0
H1165 H 0.65872 0.63476 0.46014 0.0
H1166 H 0.58071 0.61791 0.39792 0.0
H1167 H 0.55846 0.59152 0.43221 0.0
H1168 H 0.63141 0.6088 0.37196 0.0
H1169 H 0.63885 0.71395 0.43946 0.0
H1170 H 0.65702 0.68623 0.45783 0.0
H1171 H 0.61735 0.68479 0.44811 0.0
C1172 C 0.62398 0.61051 0.47372 0.0
C1173 C 0.59563 0.59777 0.46638 0.0
C1174 C 0.63666 0.62572 0.454 0.0
C1175 C 0.62125 0.62885 0.42651 0.0
C1176 C 0.59308 0.61594 0.41899 0.0
H1177 H 0.67097 0.74797 0.3087 0.0
H1178 H 0.64565 0.72289 0.34222 0.0
C1179 C 0.58041 0.60068 0.43865 0.0
C1180 C 0.63478 0.64485 0.4053 0.0
H1181 H 0.66472 0.70926 0.3972 0.0
C1182 C 0.63857 0.6308 0.37748 0.0
C1183 C 0.64377 0.67375 0.41216 0.0
C1184 C 0.6388 0.69069 0.44089 0.0
C1185 C 0.65163 0.64453 0.35675 0.0
C1186 C 0.66176 0.67306 0.36406 0.0
C1187 C 0.65732 0.68734 0.3916 0.0
C1188 C 0.67717 0.68833 0.34354 0.0
C1189 C 0.65404 0.62842 0.32699 0.0
C1190 C 0.70359 0.6776 0.33331 0.0
C1191 C 0.71808 0.69185 0.3141 0.0
C1192 C 0.70667 0.7174 0.30477 0.0
C1193 C 0.68038 0.72833 0.31531 0.0
C1194 C 0.66588 0.71401 0.33455 0.0
H1195 H 0.63783 0.61048 0.32193 0.0
H1196 H 0.65023 0.64262 0.30958 0.0
H1197 H 0.6767 0.61939 0.32652 0.0
H1198 H 0.71322 0.65824 0.34038 0.0
H1199 H 0.73835 0.68286 0.30666 0.0
H1200 H 0.81661 0.33265 0.79595 0.0
H1201 H 0.83648 0.36841 0.83552 0.0
H1202 H 0.76606 0.3503 0.88586 0.0
H1203 H 0.74572 0.31406 0.84608 0.0
H1204 H 0.78504 0.41459 0.88145 0.0
H1205 H 0.87348 0.34047 0.91781 0.0
H1206 H 0.86701 0.34164 0.87898 0.0
H1207 H 0.83841 0.32828 0.89763 0.0
C1208 C 0.80509 0.33631 0.81528 0.0
C1209 C 0.7797 0.3203 0.81796 0.0
C1210 C 0.81648 0.35682 0.83783 0.0
C1211 C 0.80279 0.36178 0.86353 0.0
C1212 C 0.77684 0.34668 0.86607 0.0
H1213 H 0.92023 0.4529 1.00541 0.0
H1214 H 0.87791 0.42324 0.98258 0.0
C1215 C 0.76534 0.32601 0.8434 0.0
C1216 C 0.81715 0.38157 0.88809 0.0
H1217 H 0.88158 0.38968 0.93406 0.0
C1218 C 0.80584 0.40912 0.8935 0.0
C1219 C 0.84399 0.37413 0.90394 0.0
C1220 C 0.85642 0.34445 0.89957 0.0
C1221 C 0.8218 0.43004 0.91322 0.0
C1222 C 0.84991 0.4232 0.92732 0.0
C1223 C 0.86012 0.39507 0.92322 0.0
C1224 C 0.87066 0.44505 0.94402 0.0
C1225 C 0.80866 0.45934 0.91829 0.0
C1226 C 0.88008 0.46779 0.93041 0.0
C1227 C 0.90409 0.48497 0.94356 0.0
C1228 C 0.91947 0.47935 0.9703 0.0
C1229 C 0.90893 0.45765 0.9847 0.0
C1230 C 0.88471 0.44071 0.9717 0.0
H1231 H 0.78395 0.45833 0.91532 0.0
H1232 H 0.81617 0.47002 0.94055 0.0
H1233 H 0.8157 0.47252 0.90204 0.0
H1234 H 0.87017 0.47116 0.90874 0.0
H1235 H 0.91179 0.50141 0.93183 0.0
H1236 H 0.8279 0.76766 0.18936 0.0
H1237 H 0.85402 0.79292 0.15667 0.0
H1238 H 0.78983 0.86053 0.16225 0.0
H1239 H 0.76332 0.83522 0.19451 0.0
H1240 H 0.80121 0.84546 0.10622 0.0
H1241 H 0.90786 0.86218 0.17796 0.0
H1242 H 0.89647 0.82553 0.17027 0.0
H1243 H 0.87438 0.85052 0.19085 0.0
C1244 C 0.81934 0.78794 0.18371 0.0
C1245 C 0.79348 0.79938 0.19472 0.0
C1246 C 0.83447 0.80249 0.16513 0.0
C1247 C 0.82428 0.82896 0.15727 0.0
C1248 C 0.7983 0.84025 0.16802 0.0
H1249 H 0.92258 0.95122 0.07696 0.0
H1250 H 0.8971 0.92585 0.10994 0.0
C1251 C 0.78314 0.82572 0.18654 0.0
C1252 C 0.84018 0.84462 0.1374 0.0
H1253 H 0.90741 0.87377 0.12948 0.0
C1254 C 0.82443 0.85167 0.11137 0.0
C1255 C 0.8704 0.85317 0.14417 0.0
C1256 C 0.88824 0.84774 0.17245 0.0
C1257 C 0.83805 0.86656 0.09184 0.0
C1258 C 0.86852 0.87429 0.09815 0.0
C1259 C 0.88417 0.86764 0.1244 0.0
C1260 C 0.88444 0.88954 0.07797 0.0
C1261 C 0.81941 0.87439 0.06491 0.0
C1262 C 0.88636 0.87752 0.04902 0.0
C1263 C 0.90101 0.89199 0.03006 0.0
C1264 C 0.91439 0.91882 0.03958 0.0
C1265 C 0.91285 0.93058 0.06878 0.0
C1266 C 0.89814 0.91609 0.08772 0.0
H1267 H 0.79527 0.87413 0.06736 0.0
H1268 H 0.82552 0.89583 0.06003 0.0
H1269 H 0.82324 0.85869 0.04593 0.0
H1270 H 0.87671 0.85677 0.04108 0.0
H1271 H 0.90215 0.88188 0.00802 0.0
H1272 H 0.84828 0.21301 0.79058 0.0
H1273 H 0.87845 0.18123 0.82004 0.0
H1274 H 0.79927 0.15168 0.8506 0.0
H1275 H 0.76902 0.18369 0.82148 0.0
H1276 H 0.88494 0.1782 0.88226 0.0
H1277 H 0.83986 0.07614 0.82273 0.0
H1278 H 0.83505 0.10943 0.8075 0.0
H1279 H 0.81257 0.10124 0.83491 0.0
C1280 C 0.83712 0.19974 0.80345 0.0
C1281 C 0.80585 0.2012 0.80322 0.0
C1282 C 0.85457 0.18144 0.8205 0.0
C1283 C 0.84153 0.16335 0.83765 0.0
C1284 C 0.81029 0.16477 0.83745 0.0
H1285 H 0.91222 0.0303 0.94776 0.0
H1286 H 0.88113 0.06135 0.91818 0.0
C1287 C 0.79286 0.18337 0.82073 0.0
C1288 C 0.86053 0.14364 0.85599 0.0
H1289 H 0.87308 0.07328 0.86539 0.0
C1290 C 0.88233 0.15525 0.87839 0.0
C1291 C 0.8574 0.11349 0.85168 0.0
C1292 C 0.83515 0.09916 0.82779 0.0
C1293 C 0.90026 0.13808 0.89655 0.0
C1294 C 0.89767 0.10777 0.89187 0.0
C1295 C 0.87571 0.09621 0.86945 0.0
C1296 C 0.91723 0.08792 0.90983 0.0
C1297 C 0.92099 0.15302 0.92144 0.0
C1298 C 0.94851 0.09122 0.91505 0.0
C1299 C 0.96638 0.07355 0.93241 0.0
C1300 C 0.95402 0.05117 0.94483 0.0
C1301 C 0.9229 0.04708 0.93875 0.0
C1302 C 0.90493 0.06506 0.92166 0.0
H1303 H 0.91306 0.17478 0.92842 0.0
H1304 H 0.92326 0.14102 0.94068 0.0
H1305 H 0.94327 0.15524 0.91412 0.0
H1306 H 0.95939 0.10754 0.90559 0.0
H1307 H 0.99014 0.07751 0.9361 0.0
H1308 H 0.70469 0.17225 0.71943 0.0
H1309 H 0.68715 0.13332 0.68205 0.0
H1310 H 0.73953 0.16572 0.62123 0.0
H1311 H 0.7578 0.20478 0.65888 0.0
H1312 H 0.66858 0.15496 0.60807 0.0
H1313 H 0.73895 0.06419 0.63901 0.0
H1314 H 0.72633 0.08834 0.66813 0.0
H1315 H 0.75206 0.10068 0.64571 0.0
C1316 C 0.71276 0.17101 0.69821 0.0
C1317 C 0.73251 0.19166 0.69202 0.0
C1318 C 0.70285 0.14865 0.67698 0.0
C1319 C 0.71229 0.14662 0.6491 0.0
C1320 C 0.73231 0.16688 0.64281 0.0
H1321 H 0.60643 0.04324 0.50441 0.0
H1322 H 0.64733 0.07387 0.52917 0.0
C1323 C 0.74264 0.18914 0.66426 0.0
C1324 C 0.69873 0.12473 0.62611 0.0
H1325 H 0.69506 0.05292 0.60636 0.0
C1326 C 0.67468 0.13269 0.6071 0.0
C1327 C 0.70666 0.09581 0.62543 0.0
C1328 C 0.73252 0.08656 0.64551 0.0
C1329 C 0.65711 0.11221 0.58848 0.0
C1330 C 0.66453 0.08302 0.58823 0.0
C1331 C 0.68951 0.07525 0.6064 0.0
C1332 C 0.64471 0.0603 0.5717 0.0
C1333 C 0.62961 0.12198 0.57085 0.0
C1334 C 0.63139 0.04082 0.58686 0.0
C1335 C 0.60857 0.02276 0.57261 0.0
C1336 C 0.59849 0.02415 0.54303 0.0
C1337 C 0.61351 0.04197 0.52733 0.0
C1338 C 0.63671 0.05965 0.54149 0.0
H1339 H 0.62355 0.14415 0.57868 0.0
H1340 H 0.63377 0.12133 0.54767 0.0
H1341 H 0.61031 0.1079 0.57179 0.0
H1342 H 0.63735 0.04079 0.61015 0.0
H1343 H 0.59741 0.00926 0.5853 0.0
H1344 H 0.53918 0.96649 0.41828 0.0
H1345 H 0.54463 0.93051 0.37718 0.0
H1346 H 0.54081 0.86434 0.43293 0.0
H1347 H 0.53587 0.90049 0.47465 0.0
H1348 H 0.58676 0.85833 0.40177 0.0
H1349 H 0.48694 0.8758 0.32668 0.0
H1350 H 0.50549 0.90908 0.33926 0.0
H1351 H 0.49032 0.8893 0.36508 0.0
C1352 C 0.53939 0.94429 0.42185 0.0
C1353 C 0.53719 0.9363 0.4497 0.0
C1354 C 0.54199 0.92372 0.3982 0.0
C1355 C 0.54206 0.89474 0.4018 0.0
C1356 C 0.54018 0.88661 0.42964 0.0
H1357 H 0.62679 0.78257 0.2742 0.0
H1358 H 0.58713 0.79193 0.30484 0.0
C1359 C 0.5377 0.90727 0.45345 0.0
C1360 C 0.54803 0.87359 0.3771 0.0
H1361 H 0.53127 0.85925 0.30322 0.0
C1362 C 0.57411 0.85764 0.38036 0.0
C1363 C 0.53125 0.87257 0.34932 0.0
C1364 C 0.50176 0.8874 0.345 0.0
C1365 C 0.58577 0.84334 0.35603 0.0
C1366 C 0.57052 0.84477 0.32782 0.0
C1367 C 0.54294 0.8584 0.32486 0.0
C1368 C 0.58579 0.83705 0.30162 0.0
C1369 C 0.61572 0.8292 0.36053 0.0
C1370 C 0.59606 0.85894 0.28745 0.0
C1371 C 0.61868 0.85371 0.26951 0.0
C1372 C 0.63165 0.82662 0.2659 0.0
C1373 C 0.61821 0.80396 0.27689 0.0
C1374 C 0.59535 0.80917 0.29454 0.0
H1375 H 0.62599 0.83291 0.3836 0.0
H1376 H 0.6131 0.80589 0.35432 0.0
H1377 H 0.63128 0.83722 0.34649 0.0
H1378 H 0.58854 0.88059 0.29235 0.0
H1379 H 0.62746 0.87142 0.2604 0.0
H1380 H 0.79488 0.17343 0.37495 0.0
H1381 H 0.82061 0.12922 0.38411 0.0
H1382 H 0.83101 0.11089 0.29252 0.0
H1383 H 0.8063 0.15523 0.28324 0.0
H1384 H 0.81324 0.06782 0.35655 0.0
H1385 H 0.91672 0.12319 0.33774 0.0
H1386 H 0.88319 0.14269 0.34403 0.0
H1387 H 0.88537 0.12086 0.30992 0.0
C1388 C 0.80236 0.15984 0.35675 0.0
C1389 C 0.79887 0.16806 0.32852 0.0
C1390 C 0.81669 0.13449 0.36192 0.0
C1391 C 0.82771 0.11708 0.33894 0.0
C1392 C 0.82258 0.12418 0.31044 0.0
H1393 H 0.9773 0.0161 0.40341 0.0
H1394 H 0.93976 0.02945 0.36515 0.0
C1395 C 0.80832 0.14953 0.30524 0.0
C1396 C 0.84816 0.09401 0.34585 0.0
H1397 H 0.92226 0.08258 0.36147 0.0
C1398 C 0.83708 0.07051 0.35697 0.0
C1399 C 0.87915 0.09747 0.34577 0.0
C1400 C 0.89203 0.1224 0.33383 0.0
C1401 C 0.85648 0.05155 0.37031 0.0
C1402 C 0.88744 0.05691 0.3732 0.0
C1403 C 0.89847 0.07868 0.35938 0.0
C1404 C 0.90809 0.04449 0.39506 0.0
C1405 C 0.84361 0.02685 0.38252 0.0
C1406 C 0.90274 0.04882 0.42445 0.0
C1407 C 0.92405 0.04146 0.44623 0.0
C1408 C 0.9513 0.02993 0.43906 0.0
C1409 C 0.95654 0.02516 0.40957 0.0
C1410 C 0.93506 0.03248 0.3877 0.0
H1411 H 0.82299 0.01875 0.36874 0.0
H1412 H 0.85972 0.00913 0.384 0.0
H1413 H 0.83753 0.03412 0.40471 0.0
H1414 H 0.88255 0.05903 0.43073 0.0
H1415 H 0.91935 0.04537 0.46874 0.0
H1416 H 0.66367 0.23075 0.19411 0.0
H1417 H 0.62498 0.19465 0.17775 0.0
H1418 H 0.66665 0.14035 0.23849 0.0
H1419 H 0.70529 0.17649 0.25537 0.0
H1420 H 0.65868 0.11996 0.17384 0.0
H1421 H 0.55545 0.15981 0.21879 0.0
H1422 H 0.57756 0.18564 0.20522 0.0
H1423 H 0.59229 0.16934 0.23671 0.0
C1424 C 0.66433 0.21132 0.20432 0.0
C1425 C 0.68758 0.20628 0.2258 0.0
C1426 C 0.64208 0.19091 0.19519 0.0
C1427 C 0.64289 0.16517 0.20729 0.0
C1428 C 0.66555 0.16036 0.22932 0.0
H1429 H 0.5571 0.01501 0.10455 0.0
H1430 H 0.58232 0.04319 0.14807 0.0
C1431 C 0.68762 0.18092 0.23875 0.0
C1432 C 0.62287 0.14183 0.19352 0.0
H1433 H 0.54964 0.1232 0.17829 0.0
C1434 C 0.63489 0.12016 0.1752 0.0
C1435 C 0.59198 0.14264 0.19537 0.0
C1436 C 0.57843 0.16548 0.21523 0.0
C1437 C 0.61654 0.1002 0.15694 0.0
C1438 C 0.58536 0.10138 0.15804 0.0
C1439 C 0.57352 0.12224 0.17763 0.0
C1440 C 0.56475 0.08346 0.13645 0.0
C1441 C 0.63066 0.07953 0.13514 0.0
C1442 C 0.54457 0.09652 0.11699 0.0
C1443 C 0.52946 0.08038 0.09268 0.0
C1444 C 0.53481 0.0511 0.08732 0.0
C1445 C 0.55312 0.0377 0.10803 0.0
C1446 C 0.56758 0.05375 0.13277 0.0
H1447 H 0.65378 0.08587 0.1328 0.0
H1448 H 0.63155 0.05814 0.14263 0.0
H1449 H 0.61753 0.07791 0.11326 0.0
H1450 H 0.54192 0.11942 0.11956 0.0
H1451 H 0.51531 0.09112 0.07704 0.0
H1452 H 0.76834 0.84628 0.80092 0.0
H1453 H 0.75886 0.88197 0.84172 0.0
H1454 H 0.67645 0.83948 0.8487 0.0
H1455 H 0.68566 0.80378 0.80828 0.0
H1456 H 0.70785 0.91888 0.85209 0.0
H1457 H 0.72741 0.83931 0.92998 0.0
H1458 H 0.73993 0.83451 0.89409 0.0
H1459 H 0.70201 0.8265 0.89856 0.0
C1460 C 0.74791 0.84489 0.81078 0.0
C1461 C 0.72788 0.82205 0.80167 0.0
C1462 C 0.74266 0.86518 0.83413 0.0
C1463 C 0.71742 0.86276 0.84855 0.0
C1464 C 0.69643 0.8412 0.83816 0.0
H1465 H 0.59602 0.94626 0.93864 0.0
H1466 H 0.63279 0.93018 0.90639 0.0
C1467 C 0.70162 0.82096 0.81495 0.0
C1468 C 0.71286 0.88197 0.87508 0.0
H1469 H 0.69623 0.87919 0.94439 0.0
C1470 C 0.70605 0.91052 0.87258 0.0
C1471 C 0.71158 0.87122 0.90202 0.0
C1472 C 0.72096 0.84127 0.90648 0.0
C1473 C 0.69471 0.92776 0.89547 0.0
C1474 C 0.68961 0.91577 0.92096 0.0
C1475 C 0.69969 0.88824 0.92464 0.0
C1476 C 0.66897 0.92893 0.94105 0.0
C1477 C 0.68678 0.95814 0.89151 0.0
C1478 C 0.67683 0.93277 0.97144 0.0
C1479 C 0.65558 0.94192 0.99015 0.0
C1480 C 0.62619 0.94713 0.97866 0.0
C1481 C 0.61858 0.94321 0.94822 0.0
C1482 C 0.63969 0.93415 0.92967 0.0
H1483 H 0.70223 0.96717 0.87799 0.0
H1484 H 0.66401 0.95874 0.87982 0.0
H1485 H 0.68742 0.97177 0.91283 0.0
H1486 H 0.69923 0.92832 0.98064 0.0
H1487 H 0.66209 0.94491 0.01351 0.0
H1488 H 0.97735 1.00694 0.63104 0.0
H1489 H 0.95958 0.98026 0.66781 0.0
H1490 H 0.86916 0.98931 0.62915 0.0
H1491 H 0.88695 0.01691 0.593 0.0
H1492 H 0.8744 0.98916 0.6905 0.0
H1493 H 0.93424 0.89912 0.63478 0.0
H1494 H 0.95752 0.92904 0.64995 0.0
H1495 H 0.92892 0.93268 0.62037 0.0
C1496 C 0.95365 1.00383 0.63102 0.0
C1497 C 0.93345 0.01349 0.60916 0.0
C1498 C 0.94354 0.98862 0.65188 0.0
C1499 C 0.91317 0.98224 0.65063 0.0
C1500 C 0.89271 0.99395 0.63034 0.0
H1501 H 0.80572 0.85472 0.70284 0.0
H1502 H 0.8244 0.89832 0.68801 0.0
C1503 C 0.90282 0.00966 0.60977 0.0
C1504 C 0.90326 0.96033 0.66754 0.0
H1505 H 0.9098 0.88963 0.67454 0.0
C1506 C 0.88224 0.96743 0.68722 0.0
C1507 C 0.91334 0.93194 0.66288 0.0
C1508 C 0.93452 0.92259 0.64067 0.0
C1509 C 0.87106 0.94674 0.70246 0.0
C1510 C 0.88112 0.91842 0.69763 0.0
C1511 C 0.90245 0.91149 0.67835 0.0
C1512 C 0.86858 0.89494 0.71064 0.0
C1513 C 0.84861 0.95523 0.72351 0.0
C1514 C 0.88728 0.87866 0.72826 0.0
C1515 C 0.87671 0.85369 0.73672 0.0
C1516 C 0.84731 0.84443 0.72747 0.0
C1517 C 0.82835 0.86136 0.71062 0.0
C1518 C 0.83894 0.88638 0.70222 0.0
H1519 H 0.84888 0.97857 0.7303 0.0
H1520 H 0.82601 0.94909 0.71273 0.0
H1521 H 0.85287 0.9441 0.74329 0.0
H1522 H 0.91031 0.88489 0.73477 0.0
H1523 H 0.89171 0.84145 0.75015 0.0
H1524 H 0.21897 0.79281 0.84886 0.0
H1525 H 0.18613 0.82379 0.87681 0.0
H1526 H 0.15079 0.85815 0.79822 0.0
H1527 H 0.18469 0.82808 0.77044 0.0
H1528 H 0.15539 0.89965 0.83865 0.0
H1529 H 0.10195 0.81524 0.8869 0.0
H1530 H 0.14136 0.81564 0.897 0.0
H1531 H 0.12657 0.8072 0.85915 0.0
C1532 C 0.20415 0.80686 0.8374 0.0
C1533 C 0.2046 0.80754 0.80712 0.0
C1534 C 0.18495 0.82454 0.8535 0.0
C1535 C 0.16486 0.84318 0.8399 0.0
C1536 C 0.1656 0.84409 0.80966 0.0
H1537 H 0.01663 0.92412 0.93072 0.0
H1538 H 0.0472 0.89311 0.89972 0.0
C1539 C 0.18511 0.82669 0.79361 0.0
C1540 C 0.14389 0.86221 0.85711 0.0
H1541 H 0.09413 0.86291 0.90804 0.0
C1542 C 0.14194 0.89139 0.85366 0.0
C1543 C 0.12541 0.85198 0.87653 0.0
C1544 C 0.12364 0.82076 0.87988 0.0
C1545 C 0.12306 0.91029 0.8691 0.0
C1546 C 0.10592 0.90039 0.88981 0.0
C1547 C 0.10732 0.87109 0.89276 0.0
C1548 C 0.08663 0.91989 0.9085 0.0
C1549 C 0.12115 0.94061 0.86218 0.0
C1550 C 0.09801 0.94554 0.92447 0.0
C1551 C 0.0803 0.96358 0.94184 0.0
C1552 C 0.05056 0.95652 0.94461 0.0
C1553 C 0.03922 0.93062 0.92912 0.0
C1554 C 0.0569 0.91268 0.91136 0.0
H1555 H 0.12648 0.94218 0.83964 0.0
H1556 H 0.09866 0.94956 0.86432 0.0
H1557 H 0.13767 0.95387 0.87746 0.0
H1558 H 0.12095 0.95156 0.92397 0.0
H1559 H 0.09028 0.98296 0.95367 0.0
H1560 H 0.91875 0.48507 0.55066 0.0
H1561 H 0.89213 0.45301 0.57651 0.0
H1562 H 0.96534 0.39425 0.57436 0.0
H1563 H 0.99197 0.42595 0.54824 0.0
H1564 H 0.90931 0.36809 0.55837 0.0
H1565 H 0.91206 0.44032 0.66254 0.0
H1566 H 0.89662 0.45546 0.6305 0.0
H1567 H 0.93525 0.44591 0.63455 0.0
C1568 C 0.92921 0.46534 0.5557 0.0
C1569 C 0.95757 0.45815 0.54752 0.0
C1570 C 0.91402 0.44711 0.57061 0.0
C1571 C 0.92694 0.42144 0.5777 0.0
C1572 C 0.95502 0.41403 0.5692 0.0
H1573 H 0.89005 0.2838 0.67377 0.0
H1574 H 0.90934 0.31563 0.64244 0.0
C1575 C 0.97024 0.43222 0.55434 0.0
C1576 C 0.91124 0.40212 0.59387 0.0
H1577 H 0.88521 0.3972 0.65936 0.0
C1578 C 0.90399 0.37445 0.58043 0.0
C1579 C 0.9043 0.41051 0.62263 0.0
C1580 C 0.91264 0.43957 0.63859 0.0
C1581 C 0.89 0.35492 0.59502 0.0
C1582 C 0.88343 0.36319 0.62389 0.0
C1583 C 0.89021 0.39099 0.63716 0.0
C1584 C 0.87079 0.34295 0.64126 0.0
C1585 C 0.88219 0.32563 0.57942 0.0
C1586 C 0.84279 0.34783 0.65107 0.0
C1587 C 0.83172 0.32966 0.669 0.0
C1588 C 0.84868 0.30651 0.67776 0.0
C1589 C 0.87657 0.30152 0.66755 0.0
C1590 C 0.8875 0.31955 0.64946 0.0
H1591 H 0.88201 0.32488 0.55537 0.0
H1592 H 0.89897 0.31023 0.58719 0.0
H1593 H 0.86005 0.31867 0.58419 0.0
H1594 H 0.82967 0.36591 0.64515 0.0
H1595 H 0.81037 0.33434 0.67681 0.0
H1596 H 0.48017 0.09184 0.3983 0.0
H1597 H 0.44632 0.13026 0.38645 0.0
H1598 H 0.43494 0.15059 0.47776 0.0
H1599 H 0.46837 0.11168 0.48956 0.0
H1600 H 0.3828 0.14682 0.44512 0.0
H1601 H 0.45714 0.21494 0.39686 0.0
H1602 H 0.45808 0.17914 0.37928 0.0
H1603 H 0.47111 0.18686 0.41765 0.0
C1604 C 0.47086 0.10487 0.41583 0.0
C1605 C 0.47674 0.09887 0.44476 0.0
C1606 C 0.45166 0.12686 0.40912 0.0
C1607 C 0.43858 0.14358 0.43133 0.0
C1608 C 0.44493 0.138 0.46036 0.0
H1609 H 0.33372 0.27616 0.35639 0.0
H1610 H 0.36631 0.25527 0.39375 0.0
C1611 C 0.46387 0.11577 0.46703 0.0
C1612 C 0.41649 0.1653 0.42369 0.0
H1613 H 0.40441 0.2181 0.38035 0.0
C1614 C 0.38761 0.16289 0.4315 0.0
C1615 C 0.42298 0.18676 0.40669 0.0
C1616 C 0.45413 0.19227 0.39997 0.0
C1617 C 0.36447 0.17994 0.42074 0.0
C1618 C 0.37033 0.19915 0.401 0.0
C1619 C 0.39971 0.20307 0.39513 0.0
C1620 C 0.34635 0.21324 0.38373 0.0
C1621 C 0.334 0.17674 0.43022 0.0
C1622 C 0.32355 0.19684 0.36648 0.0
C1623 C 0.30447 0.20896 0.34564 0.0
C1624 C 0.30862 0.23733 0.34119 0.0
C1625 C 0.33038 0.2541 0.35936 0.0
C1626 C 0.34891 0.24222 0.38069 0.0
H1627 H 0.33572 0.17119 0.45294 0.0
H1628 H 0.32079 0.19651 0.42908 0.0
H1629 H 0.32189 0.15909 0.41582 0.0
H1630 H 0.32166 0.17426 0.36775 0.0
H1631 H 0.28792 0.19564 0.33166 0.0
H1632 H 0.58131 0.56666 0.98926 0.0
H1633 H 0.616 0.60302 0.01527 0.0
H1634 H 0.54835 0.63545 0.06849 0.0
H1635 H 0.51346 0.59918 0.04279 0.0
H1636 H 0.60289 0.6753 0.0431 0.0
H1637 H 0.62901 0.58751 0.11191 0.0
H1638 H 0.62034 0.58008 0.07279 0.0
H1639 H 0.5916 0.59172 0.09491 0.0
C1640 C 0.57336 0.58225 0.00564 0.0
C1641 C 0.54477 0.57976 0.01431 0.0
C1642 C 0.59326 0.60297 0.02049 0.0
C1643 C 0.58468 0.62158 0.04387 0.0
C1644 C 0.55524 0.62119 0.05042 0.0
H1645 H 0.66372 0.74388 0.18218 0.0
H1646 H 0.63337 0.71813 0.14051 0.0
C1647 C 0.53537 0.60044 0.03571 0.0
C1648 C 0.60738 0.63759 0.06474 0.0
H1649 H 0.65182 0.63178 0.12819 0.0
C1650 C 0.61385 0.66585 0.06161 0.0
C1651 C 0.6217 0.62491 0.08858 0.0
C1652 C 0.61551 0.59438 0.09248 0.0
C1653 C 0.63408 0.68209 0.08225 0.0
C1654 C 0.64748 0.66979 0.10686 0.0
C1655 C 0.64152 0.64121 0.10939 0.0
C1656 C 0.66668 0.68636 0.131 0.0
C1657 C 0.64102 0.71215 0.07739 0.0
C1658 C 0.69522 0.67661 0.14009 0.0
C1659 C 0.71248 0.69102 0.16427 0.0
C1660 C 0.70148 0.71545 0.1798 0.0
C1661 C 0.67294 0.72523 0.17056 0.0
C1662 C 0.65565 0.7107 0.14654 0.0
H1663 H 0.63708 0.71503 0.05385 0.0
H1664 H 0.62621 0.72703 0.08925 0.0
H1665 H 0.66446 0.71804 0.08562 0.0
H1666 H 0.70406 0.6577 0.12857 0.0
H1667 H 0.73439 0.68298 0.17082 0.0
H1668 H 0.18038 0.25248 0.6835 0.0
H1669 H 0.14717 0.2274 0.64326 0.0
H1670 H 0.20306 0.15335 0.64455 0.0
H1671 H 0.23652 0.17818 0.68472 0.0
H1672 H 0.163 0.19435 0.58405 0.0
H1673 H 0.11458 0.1322 0.662 0.0
H1674 H 0.13353 0.16582 0.67362 0.0
H1675 H 0.15453 0.13434 0.6646 0.0
C1676 C 0.18578 0.23094 0.67506 0.0
C1677 C 0.21095 0.21721 0.68744 0.0
C1678 C 0.16688 0.21676 0.652 0.0
C1679 C 0.17277 0.18863 0.64111 0.0
C1680 C 0.19828 0.17512 0.65277 0.0
H1681 H 0.09167 0.06679 0.50309 0.0
H1682 H 0.1241 0.10415 0.53074 0.0
C1683 C 0.21728 0.18931 0.67573 0.0
C1684 C 0.15103 0.17258 0.6192 0.0
H1685 H 0.09856 0.1202 0.61196 0.0
C1686 C 0.14878 0.17818 0.59002 0.0
C1687 C 0.13243 0.15182 0.62733 0.0
C1688 C 0.13359 0.14567 0.6586 0.0
C1689 C 0.12857 0.16297 0.5685 0.0
C1690 C 0.11044 0.14173 0.57656 0.0
C1691 C 0.11245 0.13658 0.60587 0.0
C1692 C 0.08973 0.1237 0.55516 0.0
C1693 C 0.12661 0.16978 0.53744 0.0
C1694 C 0.05951 0.12285 0.55914 0.0
C1695 C 0.04101 0.10143 0.5436 0.0
C1696 C 0.05249 0.08041 0.52388 0.0
C1697 C 0.08217 0.0827 0.51812 0.0
C1698 C 0.10073 0.10412 0.53382 0.0
H1699 H 0.13631 0.19104 0.5362 0.0
H1700 H 0.13917 0.1536 0.52446 0.0
H1701 H 0.10314 0.16919 0.52727 0.0
H1702 H 0.05065 0.13778 0.57554 0.0
H1703 H 0.01819 0.10037 0.54836 0.0
H1704 H 0.67591 0.33114 0.26091 0.0
H1705 H 0.64278 0.36062 0.2901 0.0
H1706 H 0.68615 0.33128 0.36849 0.0
H1707 H 0.71845 0.30088 0.33922 0.0
H1708 H 0.63031 0.33363 0.37375 0.0
H1709 H 0.65643 0.43584 0.33608 0.0
H1710 H 0.64171 0.41033 0.30626 0.0
H1711 H 0.67692 0.4039 0.32675 0.0
C1712 C 0.67855 0.331 0.28438 0.0
C1713 C 0.70024 0.31352 0.29748 0.0
C1714 C 0.6596 0.34822 0.30127 0.0
C1715 C 0.66199 0.34912 0.332 0.0
C1716 C 0.68352 0.33143 0.34502 0.0
H1717 H 0.58765 0.48493 0.4492 0.0
H1718 H 0.61753 0.4541 0.418 0.0
C1719 C 0.70221 0.31396 0.32813 0.0
C1720 C 0.64193 0.36785 0.35052 0.0
H1721 H 0.61539 0.43589 0.36378 0.0
C1722 C 0.62721 0.35601 0.3715 0.0
C1723 C 0.63778 0.39739 0.34842 0.0
C1724 C 0.65428 0.4127 0.3284 0.0
C1725 C 0.60876 0.37239 0.38988 0.0
C1726 C 0.60369 0.40167 0.38698 0.0
C1727 C 0.61857 0.41353 0.36614 0.0
C1728 C 0.5844 0.42068 0.4061 0.0
C1729 C 0.59581 0.35813 0.413 0.0
C1730 C 0.5551 0.41303 0.41005 0.0
C1731 C 0.53785 0.43073 0.42844 0.0
C1732 C 0.54903 0.45703 0.44309 0.0
C1733 C 0.57797 0.46498 0.43844 0.0
C1734 C 0.59526 0.4472 0.42039 0.0
H1735 H 0.60887 0.33915 0.41845 0.0
H1736 H 0.59508 0.37296 0.43337 0.0
H1737 H 0.57281 0.35085 0.40469 0.0
H1738 H 0.54535 0.39334 0.39881 0.0
H1739 H 0.5157 0.42376 0.43115 0.0
H1740 H 0.42414 0.97587 0.04608 0.0
H1741 H 0.39853 0.9427 0.07151 0.0
H1742 H 0.47584 0.8889 0.07432 0.0
H1743 H 0.50179 0.92207 0.04926 0.0
H1744 H 0.38502 0.8843 0.05662 0.0
H1745 H 0.4605 0.904 0.16017 0.0
H1746 H 0.45966 0.9269 0.13171 0.0
H1747 H 0.47923 0.89368 0.12848 0.0
C1748 C 0.43571 0.95695 0.05205 0.0
C1749 C 0.46512 0.95173 0.04581 0.0
C1750 C 0.421 0.93801 0.06655 0.0
C1751 C 0.43543 0.91357 0.07521 0.0
C1752 C 0.46449 0.90792 0.06835 0.0
H1753 H 0.39291 0.77799 0.17287 0.0
H1754 H 0.41431 0.80846 0.14164 0.0
C1755 C 0.47924 0.92685 0.05389 0.0
C1756 C 0.42024 0.89414 0.09169 0.0
H1757 H 0.42576 0.86616 0.1565 0.0
C1758 C 0.39382 0.88038 0.07851 0.0
C1759 C 0.43172 0.88917 0.12028 0.0
C1760 C 0.45918 0.90439 0.13616 0.0
C1761 C 0.37898 0.86123 0.0929 0.0
C1762 C 0.39066 0.85605 0.12137 0.0
C1763 C 0.41693 0.87001 0.1346 0.0
C1764 C 0.37622 0.8362 0.138 0.0
C1765 C 0.35134 0.84618 0.07727 0.0
C1766 C 0.34753 0.84146 0.14609 0.0
C1767 C 0.33523 0.82405 0.16404 0.0
C1768 C 0.35154 0.80121 0.17444 0.0
C1769 C 0.37993 0.79559 0.16557 0.0
C1770 C 0.39215 0.81293 0.14763 0.0
H1771 H 0.34957 0.84695 0.05329 0.0
H1772 H 0.35101 0.82358 0.08141 0.0
H1773 H 0.33145 0.85674 0.08551 0.0
H1774 H 0.33505 0.85963 0.13941 0.0
H1775 H 0.31351 0.82924 0.17076 0.0
H1776 H 0.97254 0.63302 0.89811 0.0
H1777 H 0.94405 0.67614 0.89455 0.0
H1778 H 0.92871 0.67922 0.98505 0.0
H1779 H 0.95578 0.63468 0.98809 0.0
H1780 H 0.87897 0.68077 0.95529 0.0
H1781 H 0.94523 0.75883 0.91364 0.0
H1782 H 0.95086 0.72619 0.89129 0.0
H1783 H 0.9627 0.72937 0.93016 0.0
C1784 C 0.96364 0.64317 0.91744 0.0
C1785 C 0.9658 0.63005 0.9431 0.0
C1786 C 0.94779 0.66828 0.9156 0.0
C1787 C 0.93435 0.68127 0.93963 0.0
C1788 C 0.93893 0.66967 0.96623 0.0
H1789 H 0.81389 0.78329 0.83945 0.0
H1790 H 0.84643 0.77748 0.88417 0.0
C1791 C 0.95455 0.64422 0.96797 0.0
C1792 C 0.91091 0.70275 0.93461 0.0
H1793 H 0.89303 0.75106 0.88714 0.0
C1794 C 0.8822 0.69696 0.94128 0.0
C1795 C 0.91484 0.72492 0.91756 0.0
C1796 C 0.94524 0.73531 0.91317 0.0
C1797 C 0.85713 0.70956 0.92763 0.0
C1798 C 0.86091 0.72732 0.90591 0.0
C1799 C 0.88976 0.73648 0.90282 0.0
C1800 C 0.8364 0.73264 0.88311 0.0
C1801 C 0.82688 0.7025 0.9356 0.0
C1802 C 0.81911 0.70966 0.86803 0.0
C1803 C 0.79986 0.71321 0.843 0.0
C1804 C 0.79851 0.73949 0.83206 0.0
C1805 C 0.8149 0.76272 0.84751 0.0
C1806 C 0.83341 0.75942 0.87305 0.0
H1807 H 0.82791 0.70162 0.95951 0.0
H1808 H 0.8099 0.71835 0.92928 0.0
H1809 H 0.8198 0.6811 0.92456 0.0
H1810 H 0.82173 0.6885 0.87448 0.0
H1811 H 0.78756 0.69501 0.8312 0.0
H1812 H 0.39714 0.53787 0.11396 0.0
H1813 H 0.37881 0.51903 0.15544 0.0
H1814 H 0.46009 0.47178 0.16899 0.0
H1815 H 0.47902 0.49154 0.12874 0.0
H1816 H 0.3678 0.46451 0.15478 0.0
H1817 H 0.44739 0.49714 0.25186 0.0
H1818 H 0.44609 0.5144 0.2191 0.0
H1819 H 0.46711 0.48219 0.22234 0.0
C1820 C 0.41148 0.52421 0.12638 0.0
C1821 C 0.43938 0.51589 0.11779 0.0
C1822 C 0.40095 0.51342 0.15004 0.0
C1823 C 0.41821 0.49427 0.16557 0.0
C1824 C 0.44663 0.48706 0.15787 0.0
H1825 H 0.4034 0.34527 0.23825 0.0
H1826 H 0.41752 0.38946 0.22119 0.0
C1827 C 0.45721 0.49794 0.13441 0.0
C1828 C 0.40507 0.47825 0.18648 0.0
H1829 H 0.42217 0.4512 0.25121 0.0
C1830 C 0.37915 0.46227 0.17626 0.0
C1831 C 0.41988 0.47536 0.21453 0.0
C1832 C 0.44648 0.49348 0.22766 0.0
C1833 C 0.36906 0.44178 0.19226 0.0
C1834 C 0.38527 0.43735 0.21918 0.0
C1835 C 0.41 0.45459 0.23039 0.0
C1836 C 0.3788 0.41266 0.23394 0.0
C1837 C 0.34237 0.42361 0.17935 0.0
C1838 C 0.3528 0.41151 0.24747 0.0
C1839 C 0.3447 0.3863 0.25738 0.0
C1840 C 0.36244 0.36184 0.25375 0.0
C1841 C 0.3893 0.36366 0.24155 0.0
C1842 C 0.39741 0.38889 0.23175 0.0
H1843 H 0.33385 0.42817 0.15699 0.0
H1844 H 0.34815 0.4007 0.17844 0.0
H1845 H 0.32422 0.42755 0.1935 0.0
H1846 H 0.33833 0.4298 0.24948 0.0
H1847 H 0.32424 0.38583 0.26731 0.0
H1848 H 0.46457 0.54206 0.92091 0.0
H1849 H 0.42032 0.55518 0.89014 0.0
H1850 H 0.36711 0.49756 0.92852 0.0
H1851 H 0.41114 0.48629 0.96106 0.0
H1852 H 0.37766 0.53257 0.85077 0.0
H1853 H 0.32821 0.57003 0.95345 0.0
H1854 H 0.36576 0.55723 0.95421 0.0
H1855 H 0.33491 0.5326 0.94649 0.0
C1856 C 0.44343 0.53205 0.92244 0.0
C1857 C 0.44076 0.51389 0.94363 0.0
C1858 C 0.4182 0.53933 0.90478 0.0
C1859 C 0.39018 0.52799 0.90765 0.0
C1860 C 0.38824 0.50739 0.92672 0.0
H1861 H 0.26367 0.63612 0.81058 0.0
H1862 H 0.28068 0.58949 0.82397 0.0
C1863 C 0.4133 0.5009 0.94514 0.0
C1864 C 0.36322 0.54094 0.8936 0.0
H1865 H 0.30757 0.58666 0.91091 0.0
C1866 C 0.36181 0.5439 0.86371 0.0
C1867 C 0.34231 0.5554 0.91054 0.0
C1868 C 0.34283 0.55388 0.94295 0.0
C1869 C 0.34261 0.5636 0.85117 0.0
C1870 C 0.32376 0.57992 0.86889 0.0
C1871 C 0.32236 0.57416 0.89762 0.0
C1872 C 0.31129 0.60718 0.86095 0.0
C1873 C 0.34478 0.56884 0.82005 0.0
C1874 C 0.32237 0.63235 0.87769 0.0
C1875 C 0.31258 0.65867 0.87034 0.0
C1876 C 0.2916 0.66047 0.84595 0.0
C1877 C 0.28011 0.63526 0.82932 0.0
C1878 C 0.28978 0.6087 0.8369 0.0
H1879 H 0.36226 0.55571 0.81002 0.0
H1880 H 0.32314 0.56366 0.80666 0.0
H1881 H 0.3498 0.59162 0.81919 0.0
H1882 H 0.3392 0.63163 0.89619 0.0
H1883 H 0.32221 0.67766 0.88326 0.0
H1884 H 0.99941 0.56689 0.59661 0.0
H1885 H 0.02454 0.59583 0.63974 0.0
H1886 H 0.10969 0.56808 0.61363 0.0
H1887 H 0.08473 0.538 0.57166 0.0
H1888 H 0.11123 0.57266 0.67094 0.0
H1889 H 0.06064 0.67036 0.63119 0.0
H1890 H 0.03464 0.64501 0.63961 0.0
H1891 H 0.0564 0.63602 0.6097 0.0
C1892 C 0.02348 0.56677 0.60039 0.0
C1893 C 0.04021 0.55057 0.58071 0.0
C1894 C 0.03779 0.58338 0.6249 0.0
C1895 C 0.06898 0.5847 0.62947 0.0
C1896 C 0.08558 0.56745 0.61052 0.0
H1897 H 0.19197 0.7146 0.68397 0.0
H1898 H 0.15275 0.68096 0.66255 0.0
C1899 C 0.07132 0.55034 0.58647 0.0
C1900 C 0.0848 0.6054 0.65243 0.0
H1901 H 0.09644 0.67661 0.67183 0.0
C1902 C 0.10783 0.59542 0.67144 0.0
C1903 C 0.08024 0.63507 0.65293 0.0
C1904 C 0.05683 0.64735 0.63215 0.0
C1905 C 0.1278 0.61425 0.68943 0.0
C1906 C 0.12379 0.64389 0.6892 0.0
C1907 C 0.09941 0.65385 0.67186 0.0
C1908 C 0.14672 0.66483 0.70325 0.0
C1909 C 0.15414 0.60218 0.70683 0.0
C1910 C 0.1562 0.66713 0.73333 0.0
C1911 C 0.17916 0.68601 0.74555 0.0
C1912 C 0.19238 0.70329 0.72794 0.0
C1913 C 0.18214 0.7016 0.69808 0.0
C1914 C 0.15968 0.68242 0.68584 0.0
H1915 H 0.15715 0.57915 0.69983 0.0
H1916 H 0.17495 0.6136 0.70459 0.0
H1917 H 0.15066 0.60474 0.73028 0.0
H1918 H 0.146 0.65426 0.74728 0.0
H1919 H 0.18648 0.68716 0.76873 0.0
H1920 H 0.33982 0.26336 0.69501 0.0
H1921 H 0.36473 0.28799 0.66085 0.0
H1922 H 0.30354 0.35778 0.6708 0.0
H1923 H 0.27833 0.33324 0.70447 0.0
H1924 H 0.31045 0.3417 0.61357 0.0
H1925 H 0.42116 0.35601 0.6788 0.0
H1926 H 0.40824 0.31977 0.67179 0.0
H1927 H 0.38856 0.34551 0.69405 0.0
C1928 C 0.33175 0.28402 0.69004 0.0
C1929 C 0.30705 0.29629 0.70261 0.0
C1930 C 0.34615 0.29818 0.6706 0.0
C1931 C 0.33633 0.325 0.66345 0.0
C1932 C 0.31166 0.33719 0.67595 0.0
H1933 H 0.42713 0.44874 0.57935 0.0
H1934 H 0.40445 0.42211 0.61318 0.0
C1935 C 0.29726 0.32309 0.6953 0.0
C1936 C 0.35107 0.34019 0.64243 0.0
H1937 H 0.41721 0.36901 0.63074 0.0
C1938 C 0.33381 0.34763 0.61734 0.0
C1939 C 0.38148 0.34833 0.64743 0.0
C1940 C 0.40094 0.34227 0.67459 0.0
C1941 C 0.34607 0.36271 0.59714 0.0
C1942 C 0.37664 0.37027 0.60177 0.0
C1943 C 0.39386 0.36305 0.62698 0.0
C1944 C 0.39097 0.38617 0.58105 0.0
C1945 C 0.32592 0.37103 0.57135 0.0
C1946 C 0.39142 0.37478 0.55168 0.0
C1947 C 0.40448 0.38996 0.53221 0.0
C1948 C 0.41765 0.4169 0.54162 0.0
C1949 C 0.41753 0.42804 0.57121 0.0
C1950 C 0.40443 0.41283 0.59065 0.0
H1951 H 0.3021 0.37038 0.57501 0.0
H1952 H 0.33136 0.39275 0.56675 0.0
H1953 H 0.32895 0.35588 0.55171 0.0
H1954 H 0.38183 0.35399 0.54381 0.0
H1955 H 0.40456 0.38034 0.50985 0.0
H1956 H 0.19287 0.68258 0.21541 0.0
H1957 H 0.16861 0.64909 0.17591 0.0
H1958 H 0.23226 0.6699 0.1192 0.0
H1959 H 0.25717 0.70338 0.15901 0.0
H1960 H 0.14262 0.66448 0.12355 0.0
H1961 H 0.22917 0.58227 0.10552 0.0
H1962 H 0.23081 0.60733 0.13831 0.0
H1963 H 0.24058 0.6185 0.105 0.0
C1964 C 0.20203 0.67984 0.19468 0.0
C1965 C 0.22693 0.69574 0.19034 0.0
C1966 C 0.1881 0.66065 0.17211 0.0
C1967 C 0.19869 0.65686 0.14465 0.0
C1968 C 0.22401 0.67213 0.14035 0.0
H1969 H 0.07632 0.58294 0.99535 0.0
H1970 H 0.11587 0.61245 0.02428 0.0
C1971 C 0.23813 0.69134 0.16308 0.0
C1972 C 0.1816 0.63852 0.12025 0.0
H1973 H 0.18428 0.577 0.07367 0.0
C1974 C 0.15179 0.64545 0.11249 0.0
C1975 C 0.1936 0.61363 0.10603 0.0
C1976 C 0.22522 0.60474 0.11419 0.0
C1977 C 0.13341 0.62794 0.09137 0.0
C1978 C 0.14536 0.60306 0.07702 0.0
C1979 C 0.17532 0.59626 0.08445 0.0
C1980 C 0.12619 0.58292 0.05604 0.0
C1981 C 0.101 0.63563 0.08553 0.0
C1982 C 0.12027 0.55574 0.06322 0.0
C1983 C 0.0979 0.53866 0.04655 0.0
C1984 C 0.08099 0.54856 0.02246 0.0
C1985 C 0.08871 0.5748 0.01393 0.0
C1986 C 0.11122 0.59176 0.03051 0.0
H1987 H 0.09403 0.65182 0.10283 0.0
H1988 H 0.09721 0.64457 0.06441 0.0
H1989 H 0.08653 0.61653 0.08404 0.0
H1990 H 0.13169 0.54845 0.08275 0.0
H1991 H 0.09265 0.51851 0.05367 0.0
H1992 H 0.66236 0.3008 0.71746 0.0
H1993 H 0.633 0.33266 0.68754 0.0
H1994 H 0.71356 0.36304 0.66009 0.0
H1995 H 0.7427 0.33035 0.68885 0.0
H1996 H 0.62595 0.38596 0.68636 0.0
H1997 H 0.67016 0.35118 0.5819 0.0
H1998 H 0.67887 0.33269 0.61347 0.0
H1999 H 0.69937 0.36429 0.60953 0.0
C2000 C 0.67392 0.31408 0.7049 0.0
C2001 C 0.70521 0.31242 0.70569 0.0
C2002 C 0.65695 0.33256 0.68763 0.0
C2003 C 0.67042 0.35033 0.67038 0.0
C2004 C 0.70182 0.34917 0.67185 0.0
H2005 H 0.60192 0.4855 0.56123 0.0
H2006 H 0.63279 0.4549 0.59177 0.0
C2007 C 0.71875 0.33044 0.68879 0.0
C2008 C 0.65183 0.37029 0.65169 0.0
H2009 H 0.64145 0.39359 0.58357 0.0
C2010 C 0.62943 0.38728 0.66383 0.0
C2011 C 0.65559 0.3727 0.62194 0.0
C2012 C 0.67706 0.35403 0.60585 0.0
C2013 C 0.61161 0.40632 0.64779 0.0
C2014 C 0.61571 0.40896 0.61829 0.0
C2015 C 0.63811 0.39214 0.60611 0.0
C2016 C 0.59656 0.42833 0.59965 0.0
C2017 C 0.58874 0.42399 0.66289 0.0
C2018 C 0.56555 0.42408 0.5932 0.0
C2019 C 0.54782 0.44148 0.57541 0.0
C2020 C 0.56018 0.46419 0.56342 0.0
C2021 C 0.59122 0.46861 0.57005 0.0
C2022 C 0.60906 0.45087 0.58756 0.0
H2023 H 0.59307 0.42504 0.68705 0.0
H2024 H 0.58827 0.446 0.65685 0.0
H2025 H 0.5664 0.4143 0.65593 0.0
H2026 H 0.55494 0.40683 0.60154 0.0
H2027 H 0.52419 0.43696 0.57091 0.0
H2028 H 0.87653 0.65197 0.26643 0.0
H2029 H 0.91869 0.6323 0.2421 0.0
H2030 H 0.90627 0.69525 0.18198 0.0
H2031 H 0.86495 0.71523 0.20659 0.0
H2032 H 0.90281 0.60919 0.18818 0.0
H2033 H 0.99442 0.68465 0.18512 0.0
H2034 H 0.96838 0.69007 0.21202 0.0
H2035 H 0.95917 0.7008 0.17613 0.0
C2036 C 0.88366 0.6622 0.24874 0.0
C2037 C 0.86727 0.68472 0.23802 0.0
C2038 C 0.90781 0.65113 0.23501 0.0
C2039 C 0.91562 0.66229 0.21021 0.0
C2040 C 0.90116 0.68665 0.20143 0.0
H2041 H 0.95926 0.59738 0.04206 0.0
H2042 H 0.94755 0.62678 0.0866 0.0
C2043 C 0.8773 0.69795 0.21541 0.0
C2044 C 0.93269 0.64474 0.18948 0.0
H2045 H 0.98542 0.64807 0.14293 0.0
C2046 C 0.92143 0.61742 0.17888 0.0
C2047 C 0.95662 0.65569 0.17703 0.0
C2048 C 0.97049 0.68433 0.18842 0.0
C2049 C 0.9323 0.60137 0.15514 0.0
C2050 C 0.95537 0.61278 0.14194 0.0
C2051 C 0.96755 0.63959 0.15312 0.0
C2052 C 0.96608 0.59723 0.1158 0.0
C2053 C 0.91797 0.57291 0.14342 0.0
C2054 C 0.9807 0.5713 0.11782 0.0
C2055 C 0.98691 0.55436 0.09261 0.0
C2056 C 0.97885 0.56324 0.06496 0.0
C2057 C 0.9654 0.58989 0.06307 0.0
C2058 C 0.95897 0.60678 0.08841 0.0
H2059 H 0.89679 0.56972 0.15262 0.0
H2060 H 0.91337 0.57083 0.11922 0.0
H2061 H 0.93339 0.55563 0.14923 0.0
H2062 H 0.98647 0.56378 0.13887 0.0
H2063 H 0.99777 0.53415 0.09484 0.0
H2064 H 0.88215 0.52819 0.54118 0.0
H2065 H 0.84395 0.53604 0.57386 0.0
H2066 H 0.83259 0.62181 0.55225 0.0
H2067 H 0.86981 0.6137 0.51832 0.0
H2068 H 0.85738 0.5731 0.62015 0.0
H2069 H 0.74947 0.60427 0.56634 0.0
H2070 H 0.77692 0.58541 0.54611 0.0
H2071 H 0.77851 0.62367 0.55411 0.0
C2072 C 0.87069 0.54833 0.54219 0.0
C2073 C 0.87973 0.57066 0.5276 0.0
C2074 C 0.84877 0.55276 0.56106 0.0
C2075 C 0.83547 0.57951 0.56565 0.0
C2076 C 0.84218 0.60082 0.54881 0.0
H2077 H 0.82552 0.69813 0.70534 0.0
H2078 H 0.8372 0.65941 0.66877 0.0
C2079 C 0.8639 0.59632 0.52973 0.0
C2080 C 0.8203 0.58735 0.59205 0.0
H2081 H 0.76408 0.62875 0.61617 0.0
C2082 C 0.83643 0.58443 0.61926 0.0
C2083 C 0.79282 0.60179 0.59108 0.0
C2084 C 0.77335 0.60365 0.56276 0.0
C2085 C 0.8274 0.59813 0.64522 0.0
C2086 C 0.80187 0.61539 0.64381 0.0
C2087 C 0.78401 0.61586 0.61707 0.0
C2088 C 0.79601 0.63635 0.66866 0.0
C2089 C 0.84622 0.59539 0.67374 0.0
C2090 C 0.76907 0.63603 0.68078 0.0
C2091 C 0.76238 0.65811 0.70181 0.0
C2092 C 0.78235 0.68105 0.71055 0.0
C2093 C 0.80973 0.68075 0.69906 0.0
C2094 C 0.81649 0.65857 0.67829 0.0
H2095 H 0.85846 0.57492 0.67274 0.0
H2096 H 0.86289 0.61291 0.67824 0.0
H2097 H 0.83242 0.59677 0.69218 0.0
H2098 H 0.75295 0.61913 0.67339 0.0
H2099 H 0.74101 0.65785 0.71019 0.0
H2100 H 0.48854 0.57773 0.43701 0.0
H2101 H 0.45712 0.60738 0.40625 0.0
H2102 H 0.37993 0.55926 0.41787 0.0
H2103 H 0.41139 0.52918 0.44839 0.0
H2104 H 0.4175 0.59253 0.35243 0.0
H2105 H 0.35456 0.64308 0.44062 0.0
H2106 H 0.38934 0.62496 0.44818 0.0
H2107 H 0.35573 0.60483 0.43642 0.0
C2108 C 0.46489 0.57322 0.43301 0.0
C2109 C 0.45286 0.55068 0.44551 0.0
C2110 C 0.44677 0.59038 0.41524 0.0
C2111 C 0.41569 0.58622 0.40962 0.0
C2112 C 0.40361 0.56357 0.42188 0.0
H2113 H 0.26973 0.68357 0.32105 0.0
H2114 H 0.29984 0.65117 0.3497 0.0
C2115 C 0.42181 0.54608 0.43932 0.0
C2116 C 0.39626 0.60538 0.39098 0.0
H2117 H 0.33989 0.65464 0.39312 0.0
C2118 C 0.40058 0.60611 0.36145 0.0
C2119 C 0.37373 0.62324 0.40211 0.0
C2120 C 0.36804 0.62431 0.43361 0.0
C2121 C 0.38307 0.62336 0.34301 0.0
C2122 C 0.36091 0.64184 0.35427 0.0
C2123 C 0.35659 0.64095 0.38388 0.0
C2124 C 0.34209 0.66198 0.33599 0.0
C2125 C 0.38796 0.6205 0.31117 0.0
C2126 C 0.35497 0.67984 0.31842 0.0
C2127 C 0.3375 0.6982 0.30146 0.0
C2128 C 0.30635 0.70014 0.30176 0.0
C2129 C 0.29349 0.68284 0.31984 0.0
C2130 C 0.31093 0.66417 0.3365 0.0
H2131 H 0.39712 0.5993 0.30399 0.0
H2132 H 0.36698 0.62347 0.29698 0.0
H2133 H 0.40439 0.63677 0.30791 0.0
H2134 H 0.37882 0.68002 0.31801 0.0
H2135 H 0.34864 0.71129 0.28839 0.0
H2136 H 0.13951 0.2975 0.78416 0.0
H2137 H 0.09551 0.31533 0.8057 0.0
H2138 H 0.10629 0.39609 0.77392 0.0
H2139 H 0.14966 0.37802 0.75115 0.0
H2140 H 0.11014 0.359 0.84852 0.0
H2141 H 0.01622 0.39145 0.77269 0.0
H2142 H 0.04356 0.3657 0.76122 0.0
H2143 H 0.05155 0.40321 0.76437 0.0
C2144 C 0.13185 0.31859 0.78049 0.0
C2145 C 0.14868 0.33667 0.76666 0.0
C2146 C 0.10656 0.32873 0.79283 0.0
C2147 C 0.09774 0.35703 0.79152 0.0
C2148 C 0.11247 0.37405 0.7749 0.0
H2149 H 0.03419 0.49503 0.90069 0.0
H2150 H 0.04873 0.4618 0.86002 0.0
C2151 C 0.13765 0.36386 0.76237 0.0
C2152 C 0.07914 0.37078 0.81325 0.0
H2153 H 0.02111 0.41619 0.82199 0.0
C2154 C 0.09021 0.37091 0.84276 0.0
C2155 C 0.05356 0.38669 0.80557 0.0
C2156 C 0.04037 0.38657 0.77421 0.0
C2157 C 0.07741 0.38777 0.86481 0.0
C2158 C 0.05224 0.40431 0.85714 0.0
C2159 C 0.0404 0.40341 0.82771 0.0
C2160 C 0.03941 0.42399 0.87946 0.0
C2161 C 0.09213 0.38899 0.89588 0.0
C2162 C 0.0287 0.4136 0.90333 0.0
C2163 C 0.0212 0.43242 0.92679 0.0
C2164 C 0.0236 0.46194 0.92638 0.0
C2165 C 0.03249 0.47235 0.90163 0.0
C2166 C 0.04053 0.45345 0.87835 0.0
H2167 H 0.11512 0.38045 0.89688 0.0
H2168 H 0.09313 0.41117 0.90697 0.0
H2169 H 0.07905 0.37597 0.90827 0.0
H2170 H 0.0271 0.39091 0.90424 0.0
H2171 H 0.01373 0.42385 0.94534 0.0
H2172 H 0.19839 0.31858 0.32895 0.0
H2173 H 0.18577 0.35713 0.36531 0.0
H2174 H 0.27202 0.39561 0.36611 0.0
H2175 H 0.28493 0.35708 0.3295 0.0
H2176 H 0.25354 0.38782 0.42329 0.0
H2177 H 0.16946 0.44243 0.35397 0.0
H2178 H 0.16432 0.4045 0.34906 0.0
H2179 H 0.19757 0.41953 0.33909 0.0
C2180 C 0.2146 0.33534 0.33664 0.0
C2181 C 0.2426 0.33484 0.32637 0.0
C2182 C 0.20732 0.35738 0.35729 0.0
C2183 C 0.2279 0.37924 0.36803 0.0
C2184 C 0.25585 0.37895 0.35783 0.0
H2185 H 0.12701 0.4925 0.47685 0.0
H2186 H 0.1708 0.48405 0.45133 0.0
C2187 C 0.2631 0.35699 0.33694 0.0
C2188 C 0.22017 0.40142 0.39098 0.0
H2189 H 0.16381 0.44676 0.40549 0.0
C2190 C 0.23445 0.40142 0.41945 0.0
C2191 C 0.19591 0.41966 0.3857 0.0
C2192 C 0.18111 0.42181 0.35522 0.0
C2193 C 0.22288 0.41694 0.4433 0.0
C2194 C 0.19622 0.43227 0.43833 0.0
C2195 C 0.18408 0.43477 0.40949 0.0
C2196 C 0.17727 0.44098 0.46178 0.0
C2197 C 0.23845 0.41558 0.47361 0.0
C2198 C 0.16742 0.42019 0.47768 0.0
C2199 C 0.14252 0.42506 0.49266 0.0
C2200 C 0.12664 0.45058 0.4915 0.0
C2201 C 0.13846 0.4725 0.47819 0.0
C2202 C 0.16359 0.46772 0.46348 0.0
H2203 H 0.26295 0.4147 0.47323 0.0
H2204 H 0.23302 0.43416 0.48908 0.0
H2205 H 0.23158 0.39582 0.48175 0.0
H2206 H 0.1772 0.39919 0.47637 0.0
H2207 H 0.13447 0.40803 0.50333 0.0
loop_
_geom_bond_atom_site_label_1
_geom_bond_atom_site_label_2
_geom_bond_distance
_geom_bond_site_symmetry_2
_ccdc_geom_bond_type
Co0 N5 2.057 . S
Co0 O17 2.021 1_554 S
Co0 O20 2.062 1_655 S
Co0 O24 2.117 1_565 S
Co0 O25 2.020 1_554 S
C1 O21 1.259 1_655 S
C1 O24 1.258 . S
Co2 N11 2.057 . S
Co2 O18 2.117 1_545 S
Co2 O19 2.020 1_556 S
Co2 O21 2.021 1_556 S
Co2 O26 2.062 1_455 S
C3 N5 1.316 . S
C3 N6 1.347 . S
C3 H8 0.931 . S
C4 N5 1.375 . S
C4 C7 1.350 . S
C4 H9 0.930 . S
N5 Co0 2.057 . S
N5 C3 1.316 . S
N5 C4 1.375 . S
N6 C3 1.347 . S
N6 C7 1.373 . S
C7 C4 1.350 . S
C7 N6 1.373 . S
C7 H28 0.931 . S
H8 C3 0.931 . S
H9 C4 0.930 . S
C10 O17 1.259 1_455 S
C10 O18 1.258 . S
N11 Co2 2.057 . S
N11 C12 1.316 . S
N11 C13 1.375 . S
C12 N11 1.316 . S
C12 N14 1.347 . S
C12 H23 0.931 . S
C13 N11 1.375 . S
C13 C15 1.350 . S
C13 H22 0.930 . S
N14 C12 1.347 . S
N14 C15 1.373 . S
C15 C13 1.350 . S
C15 N14 1.373 . S
C15 H29 0.931 . S
C16 O19 1.256 1_565 S
C16 O20 1.255 . S
O17 Co0 2.021 1_556 S
O17 C10 1.259 1_655 S
O18 Co2 2.117 1_565 S
O18 C10 1.258 . S
O19 Co2 2.020 1_554 S
O19 C16 1.256 1_545 S
O20 Co0 2.062 1_455 S
O20 C16 1.255 . S
O21 C1 1.259 1_455 S
O21 Co2 2.021 1_554 S
H22 C13 0.930 . S
H23 C12 0.931 . S
O24 Co0 2.117 1_545 S
O24 C1 1.258 . S
O25 Co0 2.020 1_556 S
O25 C27 1.256 1_565 S
O26 Co2 2.062 1_655 S
O26 C27 1.255 . S
C27 O25 1.256 1_545 S
C27 O26 1.255 . S
H28 C7 0.931 . S
H29 C15 0.931 . S
Co30 N35 2.057 . S
Co30 O47 2.021 . S
Co30 O50 2.062 . S
Co30 O54 2.117 . S
Co30 O55 2.020 . S
C31 O51 1.259 . S
C31 O54 1.258 . S
Co32 N41 2.057 . S
Co32 O48 2.117 . S
Co32 O49 2.020 . S
Co32 O51 2.021 . S
Co32 O56 2.062 . S
C33 N35 1.316 . S
C33 N36 1.347 . S
C33 H38 0.931 . S
C34 N35 1.375 . S
C34 C37 1.350 . S
C34 H39 0.930 . S
N35 Co30 2.057 . S
N35 C33 1.316 . S
N35 C34 1.375 . S
N36 C33 1.347 . S
N36 C37 1.373 . S
C37 C34 1.350 . S
C37 N36 1.373 . S
C37 H58 0.931 . S
H38 C33 0.931 . S
H39 C34 0.930 . S
C40 O47 1.259 . S
C40 O48 1.258 . S
N41 Co32 2.057 . S
N41 C42 1.316 . S
N41 C43 1.375 . S
C42 N41 1.316 . S
C42 N44 1.347 . S
C42 H53 0.931 . S
C43 N41 1.375 . S
C43 C45 1.350 . S
C43 H52 0.930 . S
N44 C42 1.347 . S
N44 C45 1.373 . S
C45 C43 1.350 . S
C45 N44 1.373 . S
C45 H59 0.931 . S
C46 O49 1.256 . S
C46 O50 1.255 . S
O47 Co30 2.021 . S
O47 C40 1.259 . S
O48 Co32 2.117 . S
O48 C40 1.258 . S
O49 Co32 2.020 . S
O49 C46 1.256 . S
O50 Co30 2.062 . S
O50 C46 1.255 . S
O51 C31 1.259 . S
O51 Co32 2.021 . S
H52 C43 0.930 . S
H53 C42 0.931 . S
O54 Co30 2.117 . S
O54 C31 1.258 . S
O55 Co30 2.020 . S
O55 C57 1.256 . S
O56 Co32 2.062 . S
O56 C57 1.255 . S
C57 O55 1.256 . S
C57 O56 1.255 . S
H58 C37 0.931 . S
H59 C45 0.931 . S
Co60 N65 2.057 . S
Co60 O77 2.021 . S
Co60 O80 2.062 . S
Co60 O84 2.117 1_565 S
Co60 O85 2.020 1_565 S
C61 O81 1.259 . S
C61 O84 1.258 . S
Co62 N71 2.057 . S
Co62 O78 2.117 1_545 S
Co62 O79 2.020 1_545 S
Co62 O81 2.021 . S
Co62 O86 2.062 . S
C63 N65 1.316 . S
C63 N66 1.347 . S
C63 H68 0.931 . S
C64 N65 1.375 . S
C64 C67 1.350 . S
C64 H69 0.930 . S
N65 Co60 2.057 . S
N65 C63 1.316 . S
N65 C64 1.375 . S
N66 C63 1.347 . S
N66 C67 1.373 . S
C67 C64 1.350 . S
C67 N66 1.373 . S
C67 H88 0.931 . S
H68 C63 0.931 . S
H69 C64 0.930 . S
C70 O77 1.259 . S
C70 O78 1.258 . S
N71 Co62 2.057 . S
N71 C72 1.316 . S
N71 C73 1.375 . S
C72 N71 1.316 . S
C72 N74 1.347 . S
C72 H83 0.931 . S
C73 N71 1.375 . S
C73 C75 1.350 . S
C73 H82 0.930 . S
N74 C72 1.347 . S
N74 C75 1.373 . S
C75 C73 1.350 . S
C75 N74 1.373 . S
C75 H89 0.931 . S
C76 O79 1.256 . S
C76 O80 1.255 . S
O77 Co60 2.021 . S
O77 C70 1.259 . S
O78 Co62 2.117 1_565 S
O78 C70 1.258 . S
O79 Co62 2.020 1_565 S
O79 C76 1.256 . S
O80 Co60 2.062 . S
O80 C76 1.255 . S
O81 C61 1.259 . S
O81 Co62 2.021 . S
H82 C73 0.930 . S
H83 C72 0.931 . S
O84 Co60 2.117 1_545 S
O84 C61 1.258 . S
O85 Co60 2.020 1_545 S
O85 C87 1.256 . S
O86 Co62 2.062 . S
O86 C87 1.255 . S
C87 O85 1.256 . S
C87 O86 1.255 . S
H88 C67 0.931 . S
H89 C75 0.931 . S
Co90 N95 2.057 . S
Co90 O107 2.021 . S
Co90 O110 2.062 . S
Co90 O114 2.117 . S
Co90 O115 2.020 . S
C91 O111 1.259 . S
C91 O114 1.258 . S
Co92 N101 2.057 . S
Co92 O108 2.117 . S
Co92 O109 2.020 . S
Co92 O111 2.021 . S
Co92 O116 2.062 . S
C93 N95 1.316 . S
C93 N96 1.347 . S
C93 H98 0.931 . S
C94 N95 1.375 . S
C94 C97 1.350 . S
C94 H99 0.930 . S
N95 Co90 2.057 . S
N95 C93 1.316 . S
N95 C94 1.375 . S
N96 C93 1.347 . S
N96 C97 1.373 . S
C97 C94 1.350 . S
C97 N96 1.373 . S
C97 H118 0.931 . S
H98 C93 0.931 . S
H99 C94 0.930 . S
C100 O107 1.259 . S
C100 O108 1.258 . S
N101 Co92 2.057 . S
N101 C102 1.316 . S
N101 C103 1.375 . S
C102 N101 1.316 . S
C102 N104 1.347 . S
C102 H113 0.931 . S
C103 N101 1.375 . S
C103 C105 1.350 . S
C103 H112 0.930 . S
N104 C102 1.347 . S
N104 C105 1.373 . S
C105 C103 1.350 . S
C105 N104 1.373 . S
C105 H119 0.931 . S
C106 O109 1.256 . S
C106 O110 1.255 . S
O107 Co90 2.021 . S
O107 C100 1.259 . S
O108 Co92 2.117 . S
O108 C100 1.258 . S
O109 Co92 2.020 . S
O109 C106 1.256 . S
O110 Co90 2.062 . S
O110 C106 1.255 . S
O111 C91 1.259 . S
O111 Co92 2.021 . S
H112 C103 0.930 . S
H113 C102 0.931 . S
O114 Co90 2.117 . S
O114 C91 1.258 . S
O115 Co90 2.020 . S
O115 C117 1.256 . S
O116 Co92 2.062 . S
O116 C117 1.255 . S
C117 O115 1.256 . S
C117 O116 1.255 . S
H118 C97 0.931 . S
H119 C105 0.931 . S
Co120 N125 2.057 . S
Co120 O137 2.009 1_445 S
Co120 O140 2.062 1_455 S
Co120 O144 2.117 . S
Co120 O145 2.020 1_545 S
C121 O141 1.259 . S
C121 O144 1.258 . S
Co122 N131 2.057 . S
Co122 O138 2.117 . S
Co122 O139 2.020 1_565 S
Co122 O141 2.021 1_665 S
Co122 O146 2.062 1_655 S
C123 N125 1.316 . S
C123 N126 1.347 . S
C123 H128 0.931 . S
C124 N125 1.375 . S
C124 C127 1.350 . S
C124 H129 0.930 . S
N125 Co120 2.057 . S
N125 C123 1.316 . S
N125 C124 1.375 . S
N126 C123 1.347 . S
N126 C127 1.373 . S
C127 C124 1.350 . S
C127 N126 1.373 . S
C127 H148 0.931 . S
H128 C123 0.931 . S
H129 C124 0.930 . S
C130 O137 1.286 . S
C130 O138 1.258 . S
N131 Co122 2.057 . S
N131 C132 1.316 . S
N131 C133 1.375 . S
C132 N131 1.316 . S
C132 N134 1.347 . S
C132 H143 0.931 . S
C133 N131 1.375 . S
C133 C135 1.350 . S
C133 H142 0.930 . S
N134 C132 1.347 . S
N134 C135 1.373 . S
C135 C133 1.350 . S
C135 N134 1.373 . S
C135 H149 0.931 . S
C136 O139 1.256 . S
C136 O140 1.255 . S
O137 Co120 2.009 1_665 S
O137 C130 1.286 . S
O138 Co122 2.117 . S
O138 C130 1.258 . S
O139 Co122 2.020 1_545 S
O139 C136 1.256 . S
O140 Co120 2.062 1_655 S
O140 C136 1.255 . S
O141 C121 1.259 . S
O141 Co122 2.021 1_445 S
H142 C133 0.930 . S
H143 C132 0.931 . S
O144 Co120 2.117 . S
O144 C121 1.258 . S
O145 Co120 2.020 1_565 S
O145 C147 1.256 . S
O146 Co122 2.062 1_455 S
O146 C147 1.255 . S
C147 O145 1.256 . S
C147 O146 1.255 . S
H148 C127 0.931 . S
H149 C135 0.931 . S
Co150 N155 2.057 . S
Co150 O167 2.021 . S
Co150 O170 2.062 . S
Co150 O174 2.117 . S
Co150 O175 2.020 . S
C151 O171 1.259 . S
C151 O174 1.258 . S
Co152 N161 2.057 . S
Co152 O168 2.117 . S
Co152 O169 2.020 . S
Co152 O171 2.021 . S
Co152 O176 2.062 . S
C153 N155 1.316 . S
C153 N156 1.347 . S
C153 H158 0.931 . S
C154 N155 1.375 . S
C154 C157 1.350 . S
C154 H159 0.930 . S
N155 Co150 2.057 . S
N155 C153 1.316 . S
N155 C154 1.375 . S
N156 C153 1.347 . S
N156 C157 1.373 . S
C157 C154 1.350 . S
C157 N156 1.373 . S
C157 H178 0.931 . S
H158 C153 0.931 . S
H159 C154 0.930 . S
C160 O167 1.259 . S
C160 O168 1.258 . S
N161 Co152 2.057 . S
N161 C162 1.316 . S
N161 C163 1.375 . S
C162 N161 1.316 . S
C162 N164 1.347 . S
C162 H173 0.931 . S
C163 N161 1.375 . S
C163 C165 1.350 . S
C163 H172 0.930 . S
N164 C162 1.347 . S
N164 C165 1.373 . S
C165 C163 1.350 . S
C165 N164 1.373 . S
C165 H179 0.931 . S
C166 O169 1.256 . S
C166 O170 1.255 . S
O167 Co150 2.021 . S
O167 C160 1.259 . S
O168 Co152 2.117 . S
O168 C160 1.258 . S
O169 Co152 2.020 . S
O169 C166 1.256 . S
O170 Co150 2.062 . S
O170 C166 1.255 . S
O171 C151 1.259 . S
O171 Co152 2.021 . S
H172 C163 0.930 . S
H173 C162 0.931 . S
O174 Co150 2.117 . S
O174 C151 1.258 . S
O175 Co150 2.020 . S
O175 C177 1.256 . S
O176 Co152 2.062 . S
O176 C177 1.255 . S
C177 O175 1.256 . S
C177 O176 1.255 . S
H178 C157 0.931 . S
H179 C165 0.931 . S
Co180 N185 2.057 . S
Co180 O197 2.011 1_544 S
Co180 O200 2.062 1_545 S
Co180 O204 2.117 . S
Co180 O205 2.020 1_554 S
C181 O201 1.287 . S
C181 O204 1.258 . S
Co182 N191 2.057 . S
Co182 O198 2.117 . S
Co182 O199 2.020 1_556 S
Co182 O201 2.007 1_566 S
Co182 O206 2.062 1_565 S
C183 N185 1.316 . S
C183 N186 1.347 . S
C183 H188 0.931 . S
C184 N185 1.375 . S
C184 C187 1.350 . S
C184 H189 0.930 . S
N185 Co180 2.057 . S
N185 C183 1.316 . S
N185 C184 1.375 . S
N186 C183 1.347 . S
N186 C187 1.373 . S
C187 C184 1.350 . S
C187 N186 1.373 . S
C187 H208 0.931 . S
H188 C183 0.931 . S
H189 C184 0.930 . S
C190 O197 1.280 . S
C190 O198 1.258 . S
N191 Co182 2.057 . S
N191 C192 1.316 . S
N191 C193 1.375 . S
C192 N191 1.316 . S
C192 N194 1.347 . S
C192 H203 0.931 . S
C193 N191 1.375 . S
C193 C195 1.350 . S
C193 H202 0.930 . S
N194 C192 1.347 . S
N194 C195 1.373 . S
C195 C193 1.350 . S
C195 N194 1.373 . S
C195 H209 0.931 . S
C196 O199 1.256 . S
C196 O200 1.255 . S
O197 Co180 2.011 1_566 S
O197 C190 1.280 . S
O198 Co182 2.117 . S
O198 C190 1.258 . S
O199 Co182 2.020 1_554 S
O199 C196 1.256 . S
O200 Co180 2.062 1_565 S
O200 C196 1.255 . S
O201 C181 1.287 . S
O201 Co182 2.007 1_544 S
H202 C193 0.930 . S
H203 C192 0.931 . S
O204 Co180 2.117 . S
O204 C181 1.258 . S
O205 Co180 2.020 1_556 S
O205 C207 1.256 . S
O206 Co182 2.062 1_545 S
O206 C207 1.255 . S
C207 O205 1.256 . S
C207 O206 1.255 . S
H208 C187 0.931 . S
H209 C195 0.931 . S
Co210 N215 2.057 . S
Co210 O227 2.021 . S
Co210 O230 2.062 . S
Co210 O234 2.117 . S
Co210 O235 2.020 . S
C211 O231 1.259 . S
C211 O234 1.258 . S
Co212 N221 2.057 . S
Co212 O228 2.117 . S
Co212 O229 2.020 . S
Co212 O231 2.021 . S
Co212 O236 2.062 . S
C213 N215 1.316 . S
C213 N216 1.347 . S
C213 H218 0.931 . S
C214 N215 1.375 . S
C214 C217 1.350 . S
C214 H219 0.930 . S
N215 Co210 2.057 . S
N215 C213 1.316 . S
N215 C214 1.375 . S
N216 C213 1.347 . S
N216 C217 1.373 . S
C217 C214 1.350 . S
C217 N216 1.373 . S
C217 H238 0.931 . S
H218 C213 0.931 . S
H219 C214 0.930 . S
C220 O227 1.259 . S
C220 O228 1.258 . S
N221 Co212 2.057 . S
N221 C222 1.316 . S
N221 C223 1.375 . S
C222 N221 1.316 . S
C222 N224 1.347 . S
C222 H233 0.931 . S
C223 N221 1.375 . S
C223 C225 1.350 . S
C223 H232 0.930 . S
N224 C222 1.347 . S
N224 C225 1.373 . S
C225 C223 1.350 . S
C225 N224 1.373 . S
C225 H239 0.931 . S
C226 O229 1.256 . S
C226 O230 1.255 . S
O227 Co210 2.021 . S
O227 C220 1.259 . S
O228 Co212 2.117 . S
O228 C220 1.258 . S
O229 Co212 2.020 . S
O229 C226 1.256 . S
O230 Co210 2.062 . S
O230 C226 1.255 . S
O231 C211 1.259 . S
O231 Co212 2.021 . S
H232 C223 0.930 . S
H233 C222 0.931 . S
O234 Co210 2.117 . S
O234 C211 1.258 . S
O235 Co210 2.020 . S
O235 C237 1.256 . S
O236 Co212 2.062 . S
O236 C237 1.255 . S
C237 O235 1.256 . S
C237 O236 1.255 . S
H238 C217 0.931 . S
H239 C225 0.931 . S
Co240 N245 2.057 . S
Co240 O257 2.021 . S
Co240 O260 2.062 . S
Co240 O264 2.117 1_556 S
Co240 O265 2.012 1_556 S
C241 O261 1.259 . S
C241 O264 1.258 . S
Co242 N251 2.057 . S
Co242 O258 2.117 1_554 S
Co242 O259 2.017 1_554 S
Co242 O261 2.021 . S
Co242 O266 2.062 . S
C243 N245 1.316 . S
C243 N246 1.347 . S
C243 H248 0.931 . S
C244 N245 1.375 . S
C244 C247 1.350 . S
C244 H249 0.930 . S
N245 Co240 2.057 . S
N245 C243 1.316 . S
N245 C244 1.375 . S
N246 C243 1.347 . S
N246 C247 1.373 . S
C247 C244 1.350 . S
C247 N246 1.373 . S
C247 H268 0.931 . S
H248 C243 0.931 . S
H249 C244 0.930 . S
C250 O257 1.259 . S
C250 O258 1.258 . S
N251 Co242 2.057 . S
N251 C252 1.316 . S
N251 C253 1.375 . S
C252 N251 1.316 . S
C252 N254 1.347 . S
C252 H263 0.931 . S
C253 N251 1.375 . S
C253 C255 1.350 . S
C253 H262 0.930 . S
N254 C252 1.347 . S
N254 C255 1.373 . S
C255 C253 1.350 . S
C255 N254 1.373 . S
C255 H269 0.931 . S
C256 O259 1.260 . S
C256 O260 1.255 . S
O257 Co240 2.021 . S
O257 C250 1.259 . S
O258 Co242 2.117 1_556 S
O258 C250 1.258 . S
O259 Co242 2.017 1_556 S
O259 C256 1.260 . S
O260 Co240 2.062 . S
O260 C256 1.255 . S
O261 C241 1.259 . S
O261 Co242 2.021 . S
H262 C253 0.930 . S
H263 C252 0.931 . S
O264 Co240 2.117 1_554 S
O264 C241 1.258 . S
O265 Co240 2.012 1_554 S
O265 C267 1.268 . S
O266 Co242 2.062 . S
O266 C267 1.255 . S
C267 O265 1.268 . S
C267 O266 1.255 . S
H268 C247 0.931 . S
H269 C255 0.931 . S
Co270 N275 2.057 . S
Co270 O287 2.021 . S
Co270 O290 2.062 . S
Co270 O294 2.117 . S
Co270 O295 2.020 . S
C271 O291 1.259 . S
C271 O294 1.258 . S
Co272 N281 2.057 . S
Co272 O288 2.117 . S
Co272 O289 2.020 . S
Co272 O291 2.021 . S
Co272 O296 2.062 . S
C273 N275 1.316 . S
C273 N276 1.347 . S
C273 H278 0.931 . S
C274 N275 1.375 . S
C274 C277 1.350 . S
C274 H279 0.930 . S
N275 Co270 2.057 . S
N275 C273 1.316 . S
N275 C274 1.375 . S
N276 C273 1.347 . S
N276 C277 1.373 . S
C277 C274 1.350 . S
C277 N276 1.373 . S
C277 H298 0.931 . S
H278 C273 0.931 . S
H279 C274 0.930 . S
C280 O287 1.259 . S
C280 O288 1.258 . S
N281 Co272 2.057 . S
N281 C282 1.316 . S
N281 C283 1.375 . S
C282 N281 1.316 . S
C282 N284 1.347 . S
C282 H293 0.931 . S
C283 N281 1.375 . S
C283 C285 1.350 . S
C283 H292 0.930 . S
N284 C282 1.347 . S
N284 C285 1.373 . S
C285 C283 1.350 . S
C285 N284 1.373 . S
C285 H299 0.931 . S
C286 O289 1.256 . S
C286 O290 1.255 . S
O287 Co270 2.021 . S
O287 C280 1.259 . S
O288 Co272 2.117 . S
O288 C280 1.258 . S
O289 Co272 2.020 . S
O289 C286 1.256 . S
O290 Co270 2.062 . S
O290 C286 1.255 . S
O291 C271 1.259 . S
O291 Co272 2.021 . S
H292 C283 0.930 . S
H293 C282 0.931 . S
O294 Co270 2.117 . S
O294 C271 1.258 . S
O295 Co270 2.020 . S
O295 C297 1.256 . S
O296 Co272 2.062 . S
O296 C297 1.255 . S
C297 O295 1.256 . S
C297 O296 1.255 . S
H298 C277 0.931 . S
H299 C285 0.931 . S
Co300 N305 2.057 . S
Co300 O317 2.021 . S
Co300 O320 2.062 . S
Co300 O324 2.117 1_655 S
Co300 O325 2.020 . S
C301 O321 1.259 . S
C301 O324 1.258 . S
Co302 N311 2.057 . S
Co302 O318 2.117 1_455 S
Co302 O319 2.020 . S
Co302 O321 2.021 . S
Co302 O326 2.062 . S
C303 N305 1.316 . S
C303 N306 1.347 . S
C303 H308 0.931 . S
C304 N305 1.375 . S
C304 C307 1.350 . S
C304 H309 0.930 . S
N305 Co300 2.057 . S
N305 C303 1.316 . S
N305 C304 1.375 . S
N306 C303 1.347 . S
N306 C307 1.373 . S
C307 C304 1.350 . S
C307 N306 1.373 . S
C307 H328 0.931 . S
H308 C303 0.931 . S
H309 C304 0.930 . S
C310 O317 1.259 . S
C310 O318 1.258 . S
N311 Co302 2.057 . S
N311 C312 1.316 . S
N311 C313 1.375 . S
C312 N311 1.316 . S
C312 N314 1.347 . S
C312 H323 0.931 . S
C313 N311 1.375 . S
C313 C315 1.350 . S
C313 H322 0.930 . S
N314 C312 1.347 . S
N314 C315 1.373 . S
C315 C313 1.350 . S
C315 N314 1.373 . S
C315 H329 0.931 . S
C316 O319 1.256 1_655 S
C316 O320 1.255 . S
O317 Co300 2.021 . S
O317 C310 1.259 . S
O318 Co302 2.117 1_655 S
O318 C310 1.258 . S
O319 Co302 2.020 . S
O319 C316 1.256 1_455 S
O320 Co300 2.062 . S
O320 C316 1.255 . S
O321 C301 1.259 . S
O321 Co302 2.021 . S
H322 C313 0.930 . S
H323 C312 0.931 . S
O324 Co300 2.117 1_455 S
O324 C301 1.258 . S
O325 Co300 2.020 . S
O325 C327 1.256 1_655 S
O326 Co302 2.062 . S
O326 C327 1.255 . S
C327 O325 1.256 1_455 S
C327 O326 1.255 . S
H328 C307 0.931 . S
H329 C315 0.931 . S
Co330 N335 2.057 . S
Co330 O347 2.021 . S
Co330 O350 2.062 . S
Co330 O354 2.117 . S
Co330 O355 2.020 . S
C331 O351 1.259 . S
C331 O354 1.258 . S
Co332 N341 2.057 . S
Co332 O348 2.117 . S
Co332 O349 2.020 . S
Co332 O351 2.021 . S
Co332 O356 2.062 . S
C333 N335 1.316 . S
C333 N336 1.347 . S
C333 H338 0.931 . S
C334 N335 1.375 . S
C334 C337 1.350 . S
C334 H339 0.930 . S
N335 Co330 2.057 . S
N335 C333 1.316 . S
N335 C334 1.375 . S
N336 C333 1.347 . S
N336 C337 1.373 . S
C337 C334 1.350 . S
C337 N336 1.373 . S
C337 H358 0.931 . S
H338 C333 0.931 . S
H339 C334 0.930 . S
C340 O347 1.259 . S
C340 O348 1.258 . S
N341 Co332 2.057 . S
N341 C342 1.316 . S
N341 C343 1.375 . S
C342 N341 1.316 . S
C342 N344 1.347 . S
C342 H353 0.931 . S
C343 N341 1.375 . S
C343 C345 1.350 . S
C343 H352 0.930 . S
N344 C342 1.347 . S
N344 C345 1.373 . S
C345 C343 1.350 . S
C345 N344 1.373 . S
C345 H359 0.931 . S
C346 O349 1.256 . S
C346 O350 1.255 . S
O347 Co330 2.021 . S
O347 C340 1.259 . S
O348 Co332 2.117 . S
O348 C340 1.258 . S
O349 Co332 2.020 . S
O349 C346 1.256 . S
O350 Co330 2.062 . S
O350 C346 1.255 . S
O351 C331 1.259 . S
O351 Co332 2.021 . S
H352 C343 0.930 . S
H353 C342 0.931 . S
O354 Co330 2.117 . S
O354 C331 1.258 . S
O355 Co330 2.020 . S
O355 C357 1.256 . S
O356 Co332 2.062 . S
O356 C357 1.255 . S
C357 O355 1.256 . S
C357 O356 1.255 . S
H358 C337 0.931 . S
H359 C345 0.931 . S
Co360 N365 2.057 . S
Co360 O377 2.021 . S
Co360 O380 2.062 . S
Co360 O384 2.117 . S
Co360 O385 2.020 . S
C361 O381 1.259 . S
C361 O384 1.258 . S
Co362 N371 2.057 . S
Co362 O378 2.117 . S
Co362 O379 2.020 . S
Co362 O381 2.021 . S
Co362 O386 2.062 . S
C363 N365 1.316 . S
C363 N366 1.347 . S
C363 H368 0.931 . S
C364 N365 1.375 . S
C364 C367 1.350 . S
C364 H369 0.930 . S
N365 Co360 2.057 . S
N365 C363 1.316 . S
N365 C364 1.375 . S
N366 C363 1.347 . S
N366 C367 1.373 . S
C367 C364 1.350 . S
C367 N366 1.373 . S
C367 H388 0.931 . S
H368 C363 0.931 . S
H369 C364 0.930 . S
C370 O377 1.259 . S
C370 O378 1.258 . S
N371 Co362 2.057 . S
N371 C372 1.316 . S
N371 C373 1.375 . S
C372 N371 1.316 . S
C372 N374 1.347 . S
C372 H383 0.931 . S
C373 N371 1.375 . S
C373 C375 1.350 . S
C373 H382 0.930 . S
N374 C372 1.347 . S
N374 C375 1.373 . S
C375 C373 1.350 . S
C375 N374 1.373 . S
C375 H389 0.931 . S
C376 O379 1.256 . S
C376 O380 1.255 . S
O377 Co360 2.021 . S
O377 C370 1.259 . S
O378 Co362 2.117 . S
O378 C370 1.258 . S
O379 Co362 2.020 . S
O379 C376 1.256 . S
O380 Co360 2.062 . S
O380 C376 1.255 . S
O381 C361 1.259 . S
O381 Co362 2.021 . S
H382 C373 0.930 . S
H383 C372 0.931 . S
O384 Co360 2.117 . S
O384 C361 1.258 . S
O385 Co360 2.020 . S
O385 C387 1.256 . S
O386 Co362 2.062 . S
O386 C387 1.255 . S
C387 O385 1.256 . S
C387 O386 1.255 . S
H388 C367 0.931 . S
H389 C375 0.931 . S
Co390 N395 2.057 . S
Co390 O407 2.021 . S
Co390 O410 2.062 . S
Co390 O414 2.117 . S
Co390 O415 2.020 . S
C391 O411 1.259 . S
C391 O414 1.258 . S
Co392 N401 2.057 . S
Co392 O408 2.117 . S
Co392 O409 2.020 . S
Co392 O411 2.021 . S
Co392 O416 2.062 . S
C393 N395 1.316 . S
C393 N396 1.347 . S
C393 H398 0.931 . S
C394 N395 1.375 . S
C394 C397 1.350 . S
C394 H399 0.930 . S
N395 Co390 2.057 . S
N395 C393 1.316 . S
N395 C394 1.375 . S
N396 C393 1.347 . S
N396 C397 1.373 . S
C397 C394 1.350 . S
C397 N396 1.373 . S
C397 H418 0.931 . S
H398 C393 0.931 . S
H399 C394 0.930 . S
C400 O407 1.259 . S
C400 O408 1.258 . S
N401 Co392 2.057 . S
N401 C402 1.316 . S
N401 C403 1.375 . S
C402 N401 1.316 . S
C402 N404 1.347 . S
C402 H413 0.931 . S
C403 N401 1.375 . S
C403 C405 1.350 . S
C403 H412 0.930 . S
N404 C402 1.347 . S
N404 C405 1.373 . S
C405 C403 1.350 . S
C405 N404 1.373 . S
C405 H419 0.931 . S
C406 O409 1.256 . S
C406 O410 1.255 . S
O407 Co390 2.021 . S
O407 C400 1.259 . S
O408 Co392 2.117 . S
O408 C400 1.258 . S
O409 Co392 2.020 . S
O409 C406 1.256 . S
O410 Co390 2.062 . S
O410 C406 1.255 . S
O411 C391 1.259 . S
O411 Co392 2.021 . S
H412 C403 0.930 . S
H413 C402 0.931 . S
O414 Co390 2.117 . S
O414 C391 1.258 . S
O415 Co390 2.020 . S
O415 C417 1.256 . S
O416 Co392 2.062 . S
O416 C417 1.255 . S
C417 O415 1.256 . S
C417 O416 1.255 . S
H418 C397 0.931 . S
H419 C405 0.931 . S
Co420 N425 2.057 . S
Co420 O437 2.021 . S
Co420 O440 2.062 . S
Co420 O444 2.117 . S
Co420 O445 2.020 . S
C421 O441 1.259 . S
C421 O444 1.258 . S
Co422 N431 2.057 . S
Co422 O438 2.117 . S
Co422 O439 2.020 . S
Co422 O441 2.021 . S
Co422 O446 2.062 . S
C423 N425 1.316 . S
C423 N426 1.347 . S
C423 H428 0.931 . S
C424 N425 1.375 . S
C424 C427 1.350 . S
C424 H429 0.930 . S
N425 Co420 2.057 . S
N425 C423 1.316 . S
N425 C424 1.375 . S
N426 C423 1.347 . S
N426 C427 1.373 . S
C427 C424 1.350 . S
C427 N426 1.373 . S
C427 H448 0.931 . S
H428 C423 0.931 . S
H429 C424 0.930 . S
C430 O437 1.259 . S
C430 O438 1.258 . S
N431 Co422 2.057 . S
N431 C432 1.316 . S
N431 C433 1.375 . S
C432 N431 1.316 . S
C432 N434 1.347 . S
C432 H443 0.931 . S
C433 N431 1.375 . S
C433 C435 1.350 . S
C433 H442 0.930 . S
N434 C432 1.347 . S
N434 C435 1.373 . S
C435 C433 1.350 . S
C435 N434 1.373 . S
C435 H449 0.931 . S
C436 O439 1.256 . S
C436 O440 1.255 . S
O437 Co420 2.021 . S
O437 C430 1.259 . S
O438 Co422 2.117 . S
O438 C430 1.258 . S
O439 Co422 2.020 . S
O439 C436 1.256 . S
O440 Co420 2.062 . S
O440 C436 1.255 . S
O441 C421 1.259 . S
O441 Co422 2.021 . S
H442 C433 0.930 . S
H443 C432 0.931 . S
O444 Co420 2.117 . S
O444 C421 1.258 . S
O445 Co420 2.020 . S
O445 C447 1.256 . S
O446 Co422 2.062 . S
O446 C447 1.255 . S
C447 O445 1.256 . S
C447 O446 1.255 . S
H448 C427 0.931 . S
H449 C435 0.931 . S
Co450 N455 2.057 . S
Co450 O467 2.021 1_454 S
Co450 O470 2.062 1_554 S
Co450 O474 2.117 . S
Co450 O475 2.020 1_455 S
C451 O471 1.259 . S
C451 O474 1.258 . S
Co452 N461 2.057 . S
Co452 O468 2.117 . S
Co452 O469 2.020 1_655 S
Co452 O471 2.021 1_656 S
Co452 O476 2.062 1_556 S
C453 N455 1.316 . S
C453 N456 1.347 . S
C453 H458 0.931 . S
C454 N455 1.375 . S
C454 C457 1.350 . S
C454 H459 0.930 . S
N455 Co450 2.057 . S
N455 C453 1.316 . S
N455 C454 1.375 . S
N456 C453 1.347 . S
N456 C457 1.373 . S
C457 C454 1.350 . S
C457 N456 1.373 . S
C457 H478 0.931 . S
H458 C453 0.931 . S
H459 C454 0.930 . S
C460 O467 1.259 . S
C460 O468 1.258 . S
N461 Co452 2.057 . S
N461 C462 1.316 . S
N461 C463 1.375 . S
C462 N461 1.316 . S
C462 N464 1.347 . S
C462 H473 0.931 . S
C463 N461 1.375 . S
C463 C465 1.350 . S
C463 H472 0.930 . S
N464 C462 1.347 . S
N464 C465 1.373 . S
C465 C463 1.350 . S
C465 N464 1.373 . S
C465 H479 0.931 . S
C466 O469 1.256 . S
C466 O470 1.255 . S
O467 Co450 2.021 1_656 S
O467 C460 1.259 . S
O468 Co452 2.117 . S
O468 C460 1.258 . S
O469 Co452 2.020 1_455 S
O469 C466 1.256 . S
O470 Co450 2.062 1_556 S
O470 C466 1.255 . S
O471 C451 1.259 . S
O471 Co452 2.021 1_454 S
H472 C463 0.930 . S
H473 C462 0.931 . S
O474 Co450 2.117 . S
O474 C451 1.258 . S
O475 Co450 2.020 1_655 S
O475 C477 1.256 . S
O476 Co452 2.062 1_554 S
O476 C477 1.255 . S
C477 O475 1.256 . S
C477 O476 1.255 . S
H478 C457 0.931 . S
H479 C465 0.931 . S
H480 C488 0.929 . S
H481 C490 0.930 . S
H482 C492 0.930 . S
H483 C495 0.929 . S
H484 C498 0.930 . S
H485 C500 0.960 . S
H486 C500 0.960 . S
H487 C500 0.960 . S
C488 H480 0.929 . S
C488 C489 1.377 . S
C488 C490 1.384 . S
C489 C488 1.377 . S
C489 C495 1.390 . S
C490 H481 0.930 . S
C490 C488 1.384 . S
C490 C491 1.372 . S
C491 C490 1.372 . S
C491 C492 1.400 . S
C491 C496 1.490 . S
C492 H482 0.930 . S
C492 C491 1.400 . S
C492 C495 1.386 . S
H493 C509 0.930 . S
H494 C510 0.931 . S
C495 H483 0.929 . S
C495 C489 1.390 . S
C495 C492 1.386 . S
C496 C491 1.490 . S
C496 C498 1.395 . S
C496 C499 1.403 . S
H497 C503 0.930 . S
C498 H484 0.930 . S
C498 C496 1.395 . S
C498 C501 1.403 . S
C499 C496 1.403 . S
C499 C500 1.524 . S
C499 C503 1.400 . S
C500 H485 0.960 . S
C500 H486 0.960 . S
C500 H487 0.960 . S
C500 C499 1.524 . S
C501 C498 1.403 . S
C501 C502 1.392 . S
C501 C505 1.495 . S
C502 C501 1.392 . S
C502 C503 1.385 . S
C502 C504 1.478 . S
C503 H497 0.930 . S
C503 C499 1.400 . S
C503 C502 1.385 . S
C504 C502 1.478 . S
C504 C506 1.381 . S
C504 C510 1.383 . S
C505 C501 1.495 . S
C505 H511 0.959 . S
C505 H512 0.961 . S
C505 H513 0.960 . S
C506 C504 1.381 . S
C506 C507 1.394 . S
C506 H514 0.930 . S
C507 C506 1.394 . S
C507 C508 1.383 . S
C507 H515 0.929 . S
C508 C507 1.383 . S
C508 C509 1.377 . S
C509 H493 0.930 . S
C509 C508 1.377 . S
C509 C510 1.379 . S
C510 H494 0.931 . S
C510 C504 1.383 . S
C510 C509 1.379 . S
H511 C505 0.959 . S
H512 C505 0.961 . S
H513 C505 0.960 . S
H514 C506 0.930 . S
H515 C507 0.929 . S
H516 C524 0.929 . S
H517 C526 0.930 . S
H518 C528 0.930 . S
H519 C531 0.929 . S
H520 C534 0.930 . S
H521 C536 0.960 . S
H522 C536 0.960 . S
H523 C536 0.960 . S
C524 H516 0.929 . S
C524 C525 1.377 . S
C524 C526 1.384 . S
C525 C524 1.377 . S
C525 C531 1.390 . S
C526 H517 0.930 . S
C526 C524 1.384 . S
C526 C527 1.372 . S
C527 C526 1.372 . S
C527 C528 1.400 . S
C527 C532 1.490 . S
C528 H518 0.930 . S
C528 C527 1.400 . S
C528 C531 1.386 . S
H529 C545 0.930 . S
H530 C546 0.931 . S
C531 H519 0.929 . S
C531 C525 1.390 . S
C531 C528 1.386 . S
C532 C527 1.490 . S
C532 C534 1.395 . S
C532 C535 1.403 . S
H533 C539 0.930 . S
C534 H520 0.930 . S
C534 C532 1.395 . S
C534 C537 1.403 . S
C535 C532 1.403 . S
C535 C536 1.524 . S
C535 C539 1.400 . S
C536 H521 0.960 . S
C536 H522 0.960 . S
C536 H523 0.960 . S
C536 C535 1.524 . S
C537 C534 1.403 . S
C537 C538 1.392 . S
C537 C541 1.495 . S
C538 C537 1.392 . S
C538 C539 1.385 . S
C538 C540 1.478 . S
C539 H533 0.930 . S
C539 C535 1.400 . S
C539 C538 1.385 . S
C540 C538 1.478 . S
C540 C542 1.381 . S
C540 C546 1.383 . S
C541 C537 1.495 . S
C541 H547 0.959 . S
C541 H548 0.961 . S
C541 H549 0.960 . S
C542 C540 1.381 . S
C542 C543 1.394 . S
C542 H550 0.930 . S
C543 C542 1.394 . S
C543 C544 1.383 . S
C543 H551 0.929 . S
C544 C543 1.383 . S
C544 C545 1.377 . S
C545 H529 0.930 . S
C545 C544 1.377 . S
C545 C546 1.379 . S
C546 H530 0.931 . S
C546 C540 1.383 . S
C546 C545 1.379 . S
H547 C541 0.959 . S
H548 C541 0.961 . S
H549 C541 0.960 . S
H550 C542 0.930 . S
H551 C543 0.929 . S
H552 C560 0.929 . S
H553 C562 0.930 . S
H554 C564 0.930 . S
H555 C567 0.929 . S
H556 C570 0.930 . S
H557 C572 0.960 . S
H558 C572 0.960 . S
H559 C572 0.960 . S
C560 H552 0.929 . S
C560 C561 1.377 . S
C560 C562 1.384 . S
C561 C560 1.377 . S
C561 C567 1.390 . S
C562 H553 0.930 . S
C562 C560 1.384 . S
C562 C563 1.372 . S
C563 C562 1.372 . S
C563 C564 1.400 . S
C563 C568 1.490 . S
C564 H554 0.930 . S
C564 C563 1.400 . S
C564 C567 1.386 . S
H565 C581 0.930 . S
H566 C582 0.931 . S
C567 H555 0.929 . S
C567 C561 1.390 . S
C567 C564 1.386 . S
C568 C563 1.490 . S
C568 C570 1.395 . S
C568 C571 1.403 . S
H569 C575 0.930 . S
C570 H556 0.930 . S
C570 C568 1.395 . S
C570 C573 1.403 . S
C571 C568 1.403 . S
C571 C572 1.524 . S
C571 C575 1.400 . S
C572 H557 0.960 . S
C572 H558 0.960 . S
C572 H559 0.960 . S
C572 C571 1.524 . S
C573 C570 1.403 . S
C573 C574 1.392 . S
C573 C577 1.495 . S
C574 C573 1.392 . S
C574 C575 1.385 . S
C574 C576 1.478 . S
C575 H569 0.930 . S
C575 C571 1.400 . S
C575 C574 1.385 . S
C576 C574 1.478 . S
C576 C578 1.381 . S
C576 C582 1.383 . S
C577 C573 1.495 . S
C577 H583 0.959 . S
C577 H584 0.961 . S
C577 H585 0.960 . S
C578 C576 1.381 . S
C578 C579 1.394 . S
C578 H586 0.930 . S
C579 C578 1.394 . S
C579 C580 1.383 . S
C579 H587 0.929 . S
C580 C579 1.383 . S
C580 C581 1.377 . S
C581 H565 0.930 . S
C581 C580 1.377 . S
C581 C582 1.379 . S
C582 H566 0.931 . S
C582 C576 1.383 . S
C582 C581 1.379 . S
H583 C577 0.959 . S
H584 C577 0.961 . S
H585 C577 0.960 . S
H586 C578 0.930 . S
H587 C579 0.929 . S
H588 C596 0.929 . S
H589 C598 0.930 . S
H590 C600 0.930 . S
H591 C603 0.929 . S
H592 C606 0.930 . S
H593 C608 0.960 . S
H594 C608 0.960 . S
H595 C608 0.960 . S
C596 H588 0.929 . S
C596 C597 1.377 . S
C596 C598 1.384 . S
C597 C596 1.377 . S
C597 C603 1.390 . S
C598 H589 0.930 . S
C598 C596 1.384 . S
C598 C599 1.372 . S
C599 C598 1.372 . S
C599 C600 1.400 . S
C599 C604 1.490 . S
C600 H590 0.930 . S
C600 C599 1.400 . S
C600 C603 1.386 . S
H601 C617 0.930 . S
H602 C618 0.931 . S
C603 H591 0.929 . S
C603 C597 1.390 . S
C603 C600 1.386 . S
C604 C599 1.490 . S
C604 C606 1.395 . S
C604 C607 1.403 . S
H605 C611 0.930 . S
C606 H592 0.930 . S
C606 C604 1.395 . S
C606 C609 1.403 . S
C607 C604 1.403 . S
C607 C608 1.524 . S
C607 C611 1.400 . S
C608 H593 0.960 . S
C608 H594 0.960 . S
C608 H595 0.960 . S
C608 C607 1.524 . S
C609 C606 1.403 . S
C609 C610 1.392 . S
C609 C613 1.495 . S
C610 C609 1.392 . S
C610 C611 1.385 . S
C610 C612 1.478 . S
C611 H605 0.930 . S
C611 C607 1.400 . S
C611 C610 1.385 . S
C612 C610 1.478 . S
C612 C614 1.381 . S
C612 C618 1.383 . S
C613 C609 1.495 . S
C613 H619 0.959 . S
C613 H620 0.961 . S
C613 H621 0.960 . S
C614 C612 1.381 . S
C614 C615 1.394 . S
C614 H622 0.930 . S
C615 C614 1.394 . S
C615 C616 1.383 . S
C615 H623 0.929 . S
C616 C615 1.383 . S
C616 C617 1.377 . S
C617 H601 0.930 . S
C617 C616 1.377 . S
C617 C618 1.379 . S
C618 H602 0.931 . S
C618 C612 1.383 . S
C618 C617 1.379 . S
H619 C613 0.959 . S
H620 C613 0.961 . S
H621 C613 0.960 . S
H622 C614 0.930 . S
H623 C615 0.929 . S
H624 C632 0.929 . S
H625 C634 0.930 . S
H626 C636 0.930 . S
H627 C639 0.929 . S
H628 C642 0.930 . S
H629 C644 0.960 . S
H630 C644 0.960 . S
H631 C644 0.960 . S
C632 H624 0.929 . S
C632 C633 1.377 . S
C632 C634 1.384 . S
C633 C632 1.377 . S
C633 C639 1.390 . S
C634 H625 0.930 . S
C634 C632 1.384 . S
C634 C635 1.372 . S
C635 C634 1.372 . S
C635 C636 1.400 . S
C635 C640 1.490 . S
C636 H626 0.930 . S
C636 C635 1.400 . S
C636 C639 1.386 . S
H637 C653 0.930 . S
H638 C654 0.931 . S
C639 H627 0.929 . S
C639 C633 1.390 . S
C639 C636 1.386 . S
C640 C635 1.490 . S
C640 C642 1.395 . S
C640 C643 1.403 . S
H641 C647 0.930 . S
C642 H628 0.930 . S
C642 C640 1.395 . S
C642 C645 1.403 . S
C643 C640 1.403 . S
C643 C644 1.524 . S
C643 C647 1.400 . S
C644 H629 0.960 . S
C644 H630 0.960 . S
C644 H631 0.960 . S
C644 C643 1.524 . S
C645 C642 1.403 . S
C645 C646 1.392 . S
C645 C649 1.495 . S
C646 C645 1.392 . S
C646 C647 1.385 . S
C646 C648 1.478 . S
C647 H641 0.930 . S
C647 C643 1.400 . S
C647 C646 1.385 . S
C648 C646 1.478 . S
C648 C650 1.381 . S
C648 C654 1.383 . S
C649 C645 1.495 . S
C649 H655 0.959 . S
C649 H656 0.961 . S
C649 H657 0.960 . S
C650 C648 1.381 . S
C650 C651 1.394 . S
C650 H658 0.930 . S
C651 C650 1.394 . S
C651 C652 1.383 . S
C651 H659 0.929 . S
C652 C651 1.383 . S
C652 C653 1.377 . S
C653 H637 0.930 . S
C653 C652 1.377 . S
C653 C654 1.379 . S
C654 H638 0.931 . S
C654 C648 1.383 . S
C654 C653 1.379 . S
H655 C649 0.959 . S
H656 C649 0.961 . S
H657 C649 0.960 . S
H658 C650 0.930 . S
H659 C651 0.929 . S
H660 C668 0.929 . S
H661 C670 0.930 . S
H662 C672 0.930 . S
H663 C675 0.929 . S
H664 C678 0.930 . S
H665 C680 0.960 . S
H666 C680 0.960 . S
H667 C680 0.960 . S
C668 H660 0.929 . S
C668 C669 1.377 . S
C668 C670 1.384 . S
C669 C668 1.377 . S
C669 C675 1.390 . S
C670 H661 0.930 . S
C670 C668 1.384 . S
C670 C671 1.372 . S
C671 C670 1.372 . S
C671 C672 1.400 . S
C671 C676 1.490 . S
C672 H662 0.930 . S
C672 C671 1.400 . S
C672 C675 1.386 . S
H673 C689 0.930 . S
H674 C690 0.931 . S
C675 H663 0.929 . S
C675 C669 1.390 . S
C675 C672 1.386 . S
C676 C671 1.490 . S
C676 C678 1.395 . S
C676 C679 1.403 . S
H677 C683 0.930 . S
C678 H664 0.930 . S
C678 C676 1.395 . S
C678 C681 1.403 . S
C679 C676 1.403 . S
C679 C680 1.524 . S
C679 C683 1.400 . S
C680 H665 0.960 . S
C680 H666 0.960 . S
C680 H667 0.960 . S
C680 C679 1.524 . S
C681 C678 1.403 . S
C681 C682 1.392 . S
C681 C685 1.495 . S
C682 C681 1.392 . S
C682 C683 1.385 . S
C682 C684 1.478 . S
C683 H677 0.930 . S
C683 C679 1.400 . S
C683 C682 1.385 . S
C684 C682 1.478 . S
C684 C686 1.381 . S
C684 C690 1.383 . S
C685 C681 1.495 . S
C685 H691 0.959 . S
C685 H692 0.961 . S
C685 H693 0.960 . S
C686 C684 1.381 . S
C686 C687 1.394 . S
C686 H694 0.930 . S
C687 C686 1.394 . S
C687 C688 1.383 . S
C687 H695 0.929 . S
C688 C687 1.383 . S
C688 C689 1.377 . S
C689 H673 0.930 . S
C689 C688 1.377 . S
C689 C690 1.379 . S
C690 H674 0.931 . S
C690 C684 1.383 . S
C690 C689 1.379 . S
H691 C685 0.959 . S
H692 C685 0.961 . S
H693 C685 0.960 . S
H694 C686 0.930 . S
H695 C687 0.929 . S
H696 C704 0.929 . S
H697 C706 0.930 . S
H698 C708 0.930 . S
H699 C711 0.929 . S
H700 C714 0.930 . S
H701 C716 0.960 . S
H702 C716 0.960 . S
H703 C716 0.960 . S
C704 H696 0.929 . S
C704 C705 1.377 . S
C704 C706 1.384 . S
C705 C704 1.377 . S
C705 C711 1.390 . S
C706 H697 0.930 . S
C706 C704 1.384 . S
C706 C707 1.372 . S
C707 C706 1.372 . S
C707 C708 1.400 . S
C707 C712 1.490 . S
C708 H698 0.930 . S
C708 C707 1.400 . S
C708 C711 1.386 . S
H709 C725 0.930 . S
H710 C726 0.931 . S
C711 H699 0.929 . S
C711 C705 1.390 . S
C711 C708 1.386 . S
C712 C707 1.490 . S
C712 C714 1.395 . S
C712 C715 1.403 . S
H713 C719 0.930 . S
C714 H700 0.930 . S
C714 C712 1.395 . S
C714 C717 1.403 . S
C715 C712 1.403 . S
C715 C716 1.524 . S
C715 C719 1.400 . S
C716 H701 0.960 . S
C716 H702 0.960 . S
C716 H703 0.960 . S
C716 C715 1.524 . S
C717 C714 1.403 . S
C717 C718 1.392 . S
C717 C721 1.495 . S
C718 C717 1.392 . S
C718 C719 1.385 . S
C718 C720 1.478 . S
C719 H713 0.930 . S
C719 C715 1.400 . S
C719 C718 1.385 . S
C720 C718 1.478 . S
C720 C722 1.381 . S
C720 C726 1.383 . S
C721 C717 1.495 . S
C721 H727 0.959 . S
C721 H728 0.961 . S
C721 H729 0.960 . S
C722 C720 1.381 . S
C722 C723 1.394 . S
C722 H730 0.930 . S
C723 C722 1.394 . S
C723 C724 1.383 . S
C723 H731 0.929 . S
C724 C723 1.383 . S
C724 C725 1.377 . S
C725 H709 0.930 . S
C725 C724 1.377 . S
C725 C726 1.379 . S
C726 H710 0.931 . S
C726 C720 1.383 . S
C726 C725 1.379 . S
H727 C721 0.959 . S
H728 C721 0.961 . S
H729 C721 0.960 . S
H730 C722 0.930 . S
H731 C723 0.929 . S
H732 C740 0.929 . S
H733 C742 0.930 . S
H734 C744 0.930 . S
H735 C747 0.929 . S
H736 C750 0.930 . S
H737 C752 0.960 . S
H738 C752 0.960 . S
H739 C752 0.960 . S
C740 H732 0.929 . S
C740 C741 1.377 . S
C740 C742 1.384 . S
C741 C740 1.377 . S
C741 C747 1.390 . S
C742 H733 0.930 . S
C742 C740 1.384 . S
C742 C743 1.372 . S
C743 C742 1.372 . S
C743 C744 1.400 . S
C743 C748 1.490 . S
C744 H734 0.930 . S
C744 C743 1.400 . S
C744 C747 1.386 . S
H745 C761 0.930 . S
H746 C762 0.931 . S
C747 H735 0.929 . S
C747 C741 1.390 . S
C747 C744 1.386 . S
C748 C743 1.490 . S
C748 C750 1.395 . S
C748 C751 1.403 . S
H749 C755 0.930 . S
C750 H736 0.930 . S
C750 C748 1.395 . S
C750 C753 1.403 . S
C751 C748 1.403 . S
C751 C752 1.524 . S
C751 C755 1.400 . S
C752 H737 0.960 . S
C752 H738 0.960 . S
C752 H739 0.960 . S
C752 C751 1.524 . S
C753 C750 1.403 . S
C753 C754 1.392 . S
C753 C757 1.495 . S
C754 C753 1.392 . S
C754 C755 1.385 . S
C754 C756 1.478 . S
C755 H749 0.930 . S
C755 C751 1.400 . S
C755 C754 1.385 . S
C756 C754 1.478 . S
C756 C758 1.381 . S
C756 C762 1.383 . S
C757 C753 1.495 . S
C757 H763 0.959 . S
C757 H764 0.961 . S
C757 H765 0.960 . S
C758 C756 1.381 . S
C758 C759 1.394 . S
C758 H766 0.930 . S
C759 C758 1.394 . S
C759 C760 1.383 . S
C759 H767 0.929 . S
C760 C759 1.383 . S
C760 C761 1.377 . S
C761 H745 0.930 . S
C761 C760 1.377 . S
C761 C762 1.379 . S
C762 H746 0.931 . S
C762 C756 1.383 . S
C762 C761 1.379 . S
H763 C757 0.959 . S
H764 C757 0.961 . S
H765 C757 0.960 . S
H766 C758 0.930 . S
H767 C759 0.929 . S
H768 C776 0.929 . S
H769 C778 0.930 . S
H770 C780 0.930 . S
H771 C783 0.929 . S
H772 C786 0.930 . S
H773 C788 0.960 . S
H774 C788 0.960 . S
H775 C788 0.960 . S
C776 H768 0.929 . S
C776 C777 1.377 . S
C776 C778 1.384 . S
C777 C776 1.377 . S
C777 C783 1.390 . S
C778 H769 0.930 . S
C778 C776 1.384 . S
C778 C779 1.372 . S
C779 C778 1.372 . S
C779 C780 1.400 . S
C779 C784 1.490 . S
C780 H770 0.930 . S
C780 C779 1.400 . S
C780 C783 1.386 . S
H781 C797 0.930 . S
H782 C798 0.931 . S
C783 H771 0.929 . S
C783 C777 1.390 . S
C783 C780 1.386 . S
C784 C779 1.490 . S
C784 C786 1.395 . S
C784 C787 1.403 . S
H785 C791 0.930 . S
C786 H772 0.930 . S
C786 C784 1.395 . S
C786 C789 1.403 . S
C787 C784 1.403 . S
C787 C788 1.524 . S
C787 C791 1.400 . S
C788 H773 0.960 . S
C788 H774 0.960 . S
C788 H775 0.960 . S
C788 C787 1.524 . S
C789 C786 1.403 . S
C789 C790 1.392 . S
C789 C793 1.495 . S
C790 C789 1.392 . S
C790 C791 1.385 . S
C790 C792 1.478 . S
C791 H785 0.930 . S
C791 C787 1.400 . S
C791 C790 1.385 . S
C792 C790 1.478 . S
C792 C794 1.381 . S
C792 C798 1.383 . S
C793 C789 1.495 . S
C793 H799 0.959 . S
C793 H800 0.961 . S
C793 H801 0.960 . S
C794 C792 1.381 . S
C794 C795 1.394 . S
C794 H802 0.930 . S
C795 C794 1.394 . S
C795 C796 1.383 . S
C795 H803 0.929 . S
C796 C795 1.383 . S
C796 C797 1.377 . S
C797 H781 0.930 . S
C797 C796 1.377 . S
C797 C798 1.379 . S
C798 H782 0.931 . S
C798 C792 1.383 . S
C798 C797 1.379 . S
H799 C793 0.959 . S
H800 C793 0.961 . S
H801 C793 0.960 . S
H802 C794 0.930 . S
H803 C795 0.929 . S
H804 C812 0.929 . S
H805 C814 0.930 . S
H806 C816 0.930 . S
H807 C819 0.929 . S
H808 C822 0.930 . S
H809 C824 0.960 . S
H810 C824 0.960 . S
H811 C824 0.960 . S
C812 H804 0.929 . S
C812 C813 1.377 . S
C812 C814 1.384 . S
C813 C812 1.377 . S
C813 C819 1.390 . S
C814 H805 0.930 . S
C814 C812 1.384 . S
C814 C815 1.372 . S
C815 C814 1.372 . S
C815 C816 1.400 . S
C815 C820 1.490 . S
C816 H806 0.930 . S
C816 C815 1.400 . S
C816 C819 1.386 . S
H817 C833 0.930 . S
H818 C834 0.931 . S
C819 H807 0.929 . S
C819 C813 1.390 . S
C819 C816 1.386 . S
C820 C815 1.490 . S
C820 C822 1.395 . S
C820 C823 1.403 . S
H821 C827 0.930 . S
C822 H808 0.930 . S
C822 C820 1.395 . S
C822 C825 1.403 . S
C823 C820 1.403 . S
C823 C824 1.524 . S
C823 C827 1.400 . S
C824 H809 0.960 . S
C824 H810 0.960 . S
C824 H811 0.960 . S
C824 C823 1.524 . S
C825 C822 1.403 . S
C825 C826 1.392 . S
C825 C829 1.495 . S
C826 C825 1.392 . S
C826 C827 1.385 . S
C826 C828 1.478 . S
C827 H821 0.930 . S
C827 C823 1.400 . S
C827 C826 1.385 . S
C828 C826 1.478 . S
C828 C830 1.381 . S
C828 C834 1.383 . S
C829 C825 1.495 . S
C829 H835 0.959 . S
C829 H836 0.961 . S
C829 H837 0.960 . S
C830 C828 1.381 . S
C830 C831 1.394 . S
C830 H838 0.930 . S
C831 C830 1.394 . S
C831 C832 1.383 . S
C831 H839 0.929 . S
C832 C831 1.383 . S
C832 C833 1.377 . S
C833 H817 0.930 . S
C833 C832 1.377 . S
C833 C834 1.379 . S
C834 H818 0.931 . S
C834 C828 1.383 . S
C834 C833 1.379 . S
H835 C829 0.959 . S
H836 C829 0.961 . S
H837 C829 0.960 . S
H838 C830 0.930 . S
H839 C831 0.929 . S
H840 C848 0.929 . S
H841 C850 0.930 . S
H842 C852 0.930 . S
H843 C855 0.929 . S
H844 C858 0.930 . S
H845 C860 0.960 . S
H846 C860 0.960 . S
H847 C860 0.960 . S
C848 H840 0.929 . S
C848 C849 1.377 . S
C848 C850 1.384 . S
C849 C848 1.377 . S
C849 C855 1.390 . S
C850 H841 0.930 . S
C850 C848 1.384 . S
C850 C851 1.372 . S
C851 C850 1.372 . S
C851 C852 1.400 . S
C851 C856 1.490 . S
C852 H842 0.930 . S
C852 C851 1.400 . S
C852 C855 1.386 . S
H853 C869 0.930 . S
H854 C870 0.931 . S
C855 H843 0.929 . S
C855 C849 1.390 . S
C855 C852 1.386 . S
C856 C851 1.490 . S
C856 C858 1.395 . S
C856 C859 1.403 . S
H857 C863 0.930 . S
C858 H844 0.930 . S
C858 C856 1.395 . S
C858 C861 1.403 . S
C859 C856 1.403 . S
C859 C860 1.524 . S
C859 C863 1.400 . S
C860 H845 0.960 . S
C860 H846 0.960 . S
C860 H847 0.960 . S
C860 C859 1.524 . S
C861 C858 1.403 . S
C861 C862 1.392 . S
C861 C865 1.495 . S
C862 C861 1.392 . S
C862 C863 1.385 . S
C862 C864 1.478 . S
C863 H857 0.930 . S
C863 C859 1.400 . S
C863 C862 1.385 . S
C864 C862 1.478 . S
C864 C866 1.381 . S
C864 C870 1.383 . S
C865 C861 1.495 . S
C865 H871 0.959 . S
C865 H872 0.961 . S
C865 H873 0.960 . S
C866 C864 1.381 . S
C866 C867 1.394 . S
C866 H874 0.930 . S
C867 C866 1.394 . S
C867 C868 1.383 . S
C867 H875 0.929 . S
C868 C867 1.383 . S
C868 C869 1.377 . S
C869 H853 0.930 . S
C869 C868 1.377 . S
C869 C870 1.379 . S
C870 H854 0.931 . S
C870 C864 1.383 . S
C870 C869 1.379 . S
H871 C865 0.959 . S
H872 C865 0.961 . S
H873 C865 0.960 . S
H874 C866 0.930 . S
H875 C867 0.929 . S
H876 C884 0.929 . S
H877 C886 0.930 . S
H878 C888 0.930 . S
H879 C891 0.929 . S
H880 C894 0.930 . S
H881 C896 0.960 . S
H882 C896 0.960 . S
H883 C896 0.960 . S
C884 H876 0.929 . S
C884 C885 1.377 . S
C884 C886 1.384 . S
C885 C884 1.377 . S
C885 C891 1.390 . S
C886 H877 0.930 . S
C886 C884 1.384 . S
C886 C887 1.372 . S
C887 C886 1.372 . S
C887 C888 1.400 . S
C887 C892 1.490 . S
C888 H878 0.930 . S
C888 C887 1.400 . S
C888 C891 1.386 . S
H889 C905 0.930 . S
H890 C906 0.931 . S
C891 H879 0.929 . S
C891 C885 1.390 . S
C891 C888 1.386 . S
C892 C887 1.490 . S
C892 C894 1.395 . S
C892 C895 1.403 . S
H893 C899 0.930 . S
C894 H880 0.930 . S
C894 C892 1.395 . S
C894 C897 1.403 . S
C895 C892 1.403 . S
C895 C896 1.524 . S
C895 C899 1.400 . S
C896 H881 0.960 . S
C896 H882 0.960 . S
C896 H883 0.960 . S
C896 C895 1.524 . S
C897 C894 1.403 . S
C897 C898 1.392 . S
C897 C901 1.495 . S
C898 C897 1.392 . S
C898 C899 1.385 . S
C898 C900 1.478 . S
C899 H893 0.930 . S
C899 C895 1.400 . S
C899 C898 1.385 . S
C900 C898 1.478 . S
C900 C902 1.381 . S
C900 C906 1.383 . S
C901 C897 1.495 . S
C901 H907 0.959 . S
C901 H908 0.961 . S
C901 H909 0.960 . S
C902 C900 1.381 . S
C902 C903 1.394 . S
C902 H910 0.930 . S
C903 C902 1.394 . S
C903 C904 1.383 . S
C903 H911 0.929 . S
C904 C903 1.383 . S
C904 C905 1.377 . S
C905 H889 0.930 . S
C905 C904 1.377 . S
C905 C906 1.379 . S
C906 H890 0.931 . S
C906 C900 1.383 . S
C906 C905 1.379 . S
H907 C901 0.959 . S
H908 C901 0.961 . S
H909 C901 0.960 . S
H910 C902 0.930 . S
H911 C903 0.929 . S
H912 C920 0.929 . S
H913 C922 0.930 . S
H914 C924 0.930 . S
H915 C927 0.929 . S
H916 C930 0.930 . S
H917 C932 0.960 . S
H918 C932 0.960 . S
H919 C932 0.960 . S
C920 H912 0.929 . S
C920 C921 1.377 . S
C920 C922 1.384 . S
C921 C920 1.377 . S
C921 C927 1.390 . S
C922 H913 0.930 . S
C922 C920 1.384 . S
C922 C923 1.372 . S
C923 C922 1.372 . S
C923 C924 1.400 . S
C923 C928 1.490 . S
C924 H914 0.930 . S
C924 C923 1.400 . S
C924 C927 1.386 . S
H925 C941 0.930 . S
H926 C942 0.931 . S
C927 H915 0.929 . S
C927 C921 1.390 . S
C927 C924 1.386 . S
C928 C923 1.490 . S
C928 C930 1.395 . S
C928 C931 1.403 . S
H929 C935 0.930 . S
C930 H916 0.930 . S
C930 C928 1.395 . S
C930 C933 1.403 . S
C931 C928 1.403 . S
C931 C932 1.524 . S
C931 C935 1.400 . S
C932 H917 0.960 . S
C932 H918 0.960 . S
C932 H919 0.960 . S
C932 C931 1.524 . S
C933 C930 1.403 . S
C933 C934 1.392 . S
C933 C937 1.495 . S
C934 C933 1.392 . S
C934 C935 1.385 . S
C934 C936 1.478 . S
C935 H929 0.930 . S
C935 C931 1.400 . S
C935 C934 1.385 . S
C936 C934 1.478 . S
C936 C938 1.381 . S
C936 C942 1.383 . S
C937 C933 1.495 . S
C937 H943 0.959 . S
C937 H944 0.961 . S
C937 H945 0.960 . S
C938 C936 1.381 . S
C938 C939 1.394 . S
C938 H946 0.930 . S
C939 C938 1.394 . S
C939 C940 1.383 . S
C939 H947 0.929 . S
C940 C939 1.383 . S
C940 C941 1.377 . S
C941 H925 0.930 . S
C941 C940 1.377 . S
C941 C942 1.379 . S
C942 H926 0.931 . S
C942 C936 1.383 . S
C942 C941 1.379 . S
H943 C937 0.959 . S
H944 C937 0.961 . S
H945 C937 0.960 . S
H946 C938 0.930 . S
H947 C939 0.929 . S
H948 C956 0.929 . S
H949 C958 0.930 . S
H950 C960 0.930 . S
H951 C963 0.929 . S
H952 C966 0.930 . S
H953 C968 0.960 . S
H954 C968 0.960 . S
H955 C968 0.960 . S
C956 H948 0.929 . S
C956 C957 1.377 . S
C956 C958 1.384 . S
C957 C956 1.377 . S
C957 C963 1.390 . S
C958 H949 0.930 . S
C958 C956 1.384 . S
C958 C959 1.372 . S
C959 C958 1.372 . S
C959 C960 1.400 . S
C959 C964 1.490 . S
C960 H950 0.930 . S
C960 C959 1.400 . S
C960 C963 1.386 . S
H961 C977 0.930 . S
H962 C978 0.931 . S
C963 H951 0.929 . S
C963 C957 1.390 . S
C963 C960 1.386 . S
C964 C959 1.490 . S
C964 C966 1.395 . S
C964 C967 1.403 . S
H965 C971 0.930 . S
C966 H952 0.930 . S
C966 C964 1.395 . S
C966 C969 1.403 . S
C967 C964 1.403 . S
C967 C968 1.524 . S
C967 C971 1.400 . S
C968 H953 0.960 . S
C968 H954 0.960 . S
C968 H955 0.960 . S
C968 C967 1.524 . S
C969 C966 1.403 . S
C969 C970 1.392 . S
C969 C973 1.495 . S
C970 C969 1.392 . S
C970 C971 1.385 . S
C970 C972 1.478 . S
C971 H965 0.930 . S
C971 C967 1.400 . S
C971 C970 1.385 . S
C972 C970 1.478 . S
C972 C974 1.381 . S
C972 C978 1.383 . S
C973 C969 1.495 . S
C973 H979 0.959 . S
C973 H980 0.961 . S
C973 H981 0.960 . S
C974 C972 1.381 . S
C974 C975 1.394 . S
C974 H982 0.930 . S
C975 C974 1.394 . S
C975 C976 1.383 . S
C975 H983 0.929 . S
C976 C975 1.383 . S
C976 C977 1.377 . S
C977 H961 0.930 . S
C977 C976 1.377 . S
C977 C978 1.379 . S
C978 H962 0.931 . S
C978 C972 1.383 . S
C978 C977 1.379 . S
H979 C973 0.959 . S
H980 C973 0.961 . S
H981 C973 0.960 . S
H982 C974 0.930 . S
H983 C975 0.929 . S
H984 C992 0.929 . S
H985 C994 0.930 . S
H986 C996 0.930 . S
H987 C999 0.929 . S
H988 C1002 0.930 . S
H989 C1004 0.960 . S
H990 C1004 0.960 . S
H991 C1004 0.960 . S
C992 H984 0.929 . S
C992 C993 1.377 . S
C992 C994 1.384 . S
C993 C992 1.377 . S
C993 C999 1.390 . S
C994 H985 0.930 . S
C994 C992 1.384 . S
C994 C995 1.372 . S
C995 C994 1.372 . S
C995 C996 1.400 . S
C995 C1000 1.490 . S
C996 H986 0.930 . S
C996 C995 1.400 . S
C996 C999 1.386 . S
H997 C1013 0.930 . S
H998 C1014 0.931 . S
C999 H987 0.929 . S
C999 C993 1.390 . S
C999 C996 1.386 . S
C1000 C995 1.490 . S
C1000 C1002 1.395 . S
C1000 C1003 1.403 . S
H1001 C1007 0.930 . S
C1002 H988 0.930 . S
C1002 C1000 1.395 . S
C1002 C1005 1.403 . S
C1003 C1000 1.403 . S
C1003 C1004 1.524 . S
C1003 C1007 1.400 . S
C1004 H989 0.960 . S
C1004 H990 0.960 . S
C1004 H991 0.960 . S
C1004 C1003 1.524 . S
C1005 C1002 1.403 . S
C1005 C1006 1.392 . S
C1005 C1009 1.495 . S
C1006 C1005 1.392 . S
C1006 C1007 1.385 . S
C1006 C1008 1.478 . S
C1007 H1001 0.930 . S
C1007 C1003 1.400 . S
C1007 C1006 1.385 . S
C1008 C1006 1.478 . S
C1008 C1010 1.381 . S
C1008 C1014 1.383 . S
C1009 C1005 1.495 . S
C1009 H1015 0.959 . S
C1009 H1016 0.961 . S
C1009 H1017 0.960 . S
C1010 C1008 1.381 . S
C1010 C1011 1.394 . S
C1010 H1018 0.930 . S
C1011 C1010 1.394 . S
C1011 C1012 1.383 . S
C1011 H1019 0.929 . S
C1012 C1011 1.383 . S
C1012 C1013 1.377 . S
C1013 H997 0.930 . S
C1013 C1012 1.377 . S
C1013 C1014 1.379 . S
C1014 H998 0.931 . S
C1014 C1008 1.383 . S
C1014 C1013 1.379 . S
H1015 C1009 0.959 . S
H1016 C1009 0.961 . S
H1017 C1009 0.960 . S
H1018 C1010 0.930 . S
H1019 C1011 0.929 . S
H1020 C1028 0.929 . S
H1021 C1030 0.930 . S
H1022 C1032 0.930 . S
H1023 C1035 0.929 . S
H1024 C1038 0.930 . S
H1025 C1040 0.960 . S
H1026 C1040 0.960 . S
H1027 C1040 0.960 . S
C1028 H1020 0.929 . S
C1028 C1029 1.377 . S
C1028 C1030 1.384 . S
C1029 C1028 1.377 . S
C1029 C1035 1.390 . S
C1030 H1021 0.930 . S
C1030 C1028 1.384 . S
C1030 C1031 1.372 . S
C1031 C1030 1.372 . S
C1031 C1032 1.400 . S
C1031 C1036 1.490 . S
C1032 H1022 0.930 . S
C1032 C1031 1.400 . S
C1032 C1035 1.386 . S
H1033 C1049 0.930 . S
H1034 C1050 0.931 . S
C1035 H1023 0.929 . S
C1035 C1029 1.390 . S
C1035 C1032 1.386 . S
C1036 C1031 1.490 . S
C1036 C1038 1.395 . S
C1036 C1039 1.403 . S
H1037 C1043 0.930 . S
C1038 H1024 0.930 . S
C1038 C1036 1.395 . S
C1038 C1041 1.403 . S
C1039 C1036 1.403 . S
C1039 C1040 1.524 . S
C1039 C1043 1.400 . S
C1040 H1025 0.960 . S
C1040 H1026 0.960 . S
C1040 H1027 0.960 . S
C1040 C1039 1.524 . S
C1041 C1038 1.403 . S
C1041 C1042 1.392 . S
C1041 C1045 1.495 . S
C1042 C1041 1.392 . S
C1042 C1043 1.385 . S
C1042 C1044 1.478 . S
C1043 H1037 0.930 . S
C1043 C1039 1.400 . S
C1043 C1042 1.385 . S
C1044 C1042 1.478 . S
C1044 C1046 1.381 . S
C1044 C1050 1.383 . S
C1045 C1041 1.495 . S
C1045 H1051 0.959 . S
C1045 H1052 0.961 . S
C1045 H1053 0.960 . S
C1046 C1044 1.381 . S
C1046 C1047 1.394 . S
C1046 H1054 0.930 . S
C1047 C1046 1.394 . S
C1047 C1048 1.383 . S
C1047 H1055 0.929 . S
C1048 C1047 1.383 . S
C1048 C1049 1.377 . S
C1049 H1033 0.930 . S
C1049 C1048 1.377 . S
C1049 C1050 1.379 . S
C1050 H1034 0.931 . S
C1050 C1044 1.383 . S
C1050 C1049 1.379 . S
H1051 C1045 0.959 . S
H1052 C1045 0.961 . S
H1053 C1045 0.960 . S
H1054 C1046 0.930 . S
H1055 C1047 0.929 . S
H1056 C1064 0.929 . S
H1057 C1066 0.930 . S
H1058 C1068 0.930 . S
H1059 C1071 0.929 . S
H1060 C1074 0.930 . S
H1061 C1076 0.960 . S
H1062 C1076 0.960 . S
H1063 C1076 0.960 . S
C1064 H1056 0.929 . S
C1064 C1065 1.377 . S
C1064 C1066 1.384 . S
C1065 C1064 1.377 . S
C1065 C1071 1.390 . S
C1066 H1057 0.930 . S
C1066 C1064 1.384 . S
C1066 C1067 1.372 . S
C1067 C1066 1.372 . S
C1067 C1068 1.400 . S
C1067 C1072 1.490 . S
C1068 H1058 0.930 . S
C1068 C1067 1.400 . S
C1068 C1071 1.386 . S
H1069 C1085 0.930 . S
H1070 C1086 0.931 . S
C1071 H1059 0.929 . S
C1071 C1065 1.390 . S
C1071 C1068 1.386 . S
C1072 C1067 1.490 . S
C1072 C1074 1.395 . S
C1072 C1075 1.403 . S
H1073 C1079 0.930 . S
C1074 H1060 0.930 . S
C1074 C1072 1.395 . S
C1074 C1077 1.403 . S
C1075 C1072 1.403 . S
C1075 C1076 1.524 . S
C1075 C1079 1.400 . S
C1076 H1061 0.960 . S
C1076 H1062 0.960 . S
C1076 H1063 0.960 . S
C1076 C1075 1.524 . S
C1077 C1074 1.403 . S
C1077 C1078 1.392 . S
C1077 C1081 1.495 . S
C1078 C1077 1.392 . S
C1078 C1079 1.385 . S
C1078 C1080 1.478 . S
C1079 H1073 0.930 . S
C1079 C1075 1.400 . S
C1079 C1078 1.385 . S
C1080 C1078 1.478 . S
C1080 C1082 1.381 . S
C1080 C1086 1.383 . S
C1081 C1077 1.495 . S
C1081 H1087 0.959 . S
C1081 H1088 0.961 . S
C1081 H1089 0.960 . S
C1082 C1080 1.381 . S
C1082 C1083 1.394 . S
C1082 H1090 0.930 . S
C1083 C1082 1.394 . S
C1083 C1084 1.383 . S
C1083 H1091 0.929 . S
C1084 C1083 1.383 . S
C1084 C1085 1.377 . S
C1085 H1069 0.930 . S
C1085 C1084 1.377 . S
C1085 C1086 1.379 . S
C1086 H1070 0.931 . S
C1086 C1080 1.383 . S
C1086 C1085 1.379 . S
H1087 C1081 0.959 . S
H1088 C1081 0.961 . S
H1089 C1081 0.960 . S
H1090 C1082 0.930 . S
H1091 C1083 0.929 . S
H1092 C1100 0.929 . S
H1093 C1102 0.930 . S
H1094 C1104 0.930 . S
H1095 C1107 0.929 . S
H1096 C1110 0.930 . S
H1097 C1112 0.960 . S
H1098 C1112 0.960 . S
H1099 C1112 0.960 . S
C1100 H1092 0.929 . S
C1100 C1101 1.377 . S
C1100 C1102 1.384 . S
C1101 C1100 1.377 . S
C1101 C1107 1.390 . S
C1102 H1093 0.930 . S
C1102 C1100 1.384 . S
C1102 C1103 1.372 . S
C1103 C1102 1.372 . S
C1103 C1104 1.400 . S
C1103 C1108 1.490 . S
C1104 H1094 0.930 . S
C1104 C1103 1.400 . S
C1104 C1107 1.386 . S
H1105 C1121 0.930 . S
H1106 C1122 0.931 . S
C1107 H1095 0.929 . S
C1107 C1101 1.390 . S
C1107 C1104 1.386 . S
C1108 C1103 1.490 . S
C1108 C1110 1.395 . S
C1108 C1111 1.403 . S
H1109 C1115 0.930 . S
C1110 H1096 0.930 . S
C1110 C1108 1.395 . S
C1110 C1113 1.403 . S
C1111 C1108 1.403 . S
C1111 C1112 1.524 . S
C1111 C1115 1.400 . S
C1112 H1097 0.960 . S
C1112 H1098 0.960 . S
C1112 H1099 0.960 . S
C1112 C1111 1.524 . S
C1113 C1110 1.403 . S
C1113 C1114 1.392 . S
C1113 C1117 1.495 . S
C1114 C1113 1.392 . S
C1114 C1115 1.385 . S
C1114 C1116 1.478 . S
C1115 H1109 0.930 . S
C1115 C1111 1.400 . S
C1115 C1114 1.385 . S
C1116 C1114 1.478 . S
C1116 C1118 1.381 . S
C1116 C1122 1.383 . S
C1117 C1113 1.495 . S
C1117 H1123 0.959 . S
C1117 H1124 0.961 . S
C1117 H1125 0.960 . S
C1118 C1116 1.381 . S
C1118 C1119 1.394 . S
C1118 H1126 0.930 . S
C1119 C1118 1.394 . S
C1119 C1120 1.383 . S
C1119 H1127 0.929 . S
C1120 C1119 1.383 . S
C1120 C1121 1.377 . S
C1121 H1105 0.930 . S
C1121 C1120 1.377 . S
C1121 C1122 1.379 . S
C1122 H1106 0.931 . S
C1122 C1116 1.383 . S
C1122 C1121 1.379 . S
H1123 C1117 0.959 . S
H1124 C1117 0.961 . S
H1125 C1117 0.960 . S
H1126 C1118 0.930 . S
H1127 C1119 0.929 . S
H1128 C1136 0.929 . S
H1129 C1138 0.930 . S
H1130 C1140 0.930 . S
H1131 C1143 0.929 . S
H1132 C1146 0.930 . S
H1133 C1148 0.960 . S
H1134 C1148 0.960 . S
H1135 C1148 0.960 . S
C1136 H1128 0.929 . S
C1136 C1137 1.377 . S
C1136 C1138 1.384 . S
C1137 C1136 1.377 . S
C1137 C1143 1.390 . S
C1138 H1129 0.930 . S
C1138 C1136 1.384 . S
C1138 C1139 1.372 . S
C1139 C1138 1.372 . S
C1139 C1140 1.400 . S
C1139 C1144 1.490 . S
C1140 H1130 0.930 . S
C1140 C1139 1.400 . S
C1140 C1143 1.386 . S
H1141 C1157 0.930 . S
H1142 C1158 0.931 . S
C1143 H1131 0.929 . S
C1143 C1137 1.390 . S
C1143 C1140 1.386 . S
C1144 C1139 1.490 . S
C1144 C1146 1.395 . S
C1144 C1147 1.403 . S
H1145 C1151 0.930 . S
C1146 H1132 0.930 . S
C1146 C1144 1.395 . S
C1146 C1149 1.403 . S
C1147 C1144 1.403 . S
C1147 C1148 1.524 . S
C1147 C1151 1.400 . S
C1148 H1133 0.960 . S
C1148 H1134 0.960 . S
C1148 H1135 0.960 . S
C1148 C1147 1.524 . S
C1149 C1146 1.403 . S
C1149 C1150 1.392 . S
C1149 C1153 1.495 . S
C1150 C1149 1.392 . S
C1150 C1151 1.385 . S
C1150 C1152 1.478 . S
C1151 H1145 0.930 . S
C1151 C1147 1.400 . S
C1151 C1150 1.385 . S
C1152 C1150 1.478 . S
C1152 C1154 1.381 . S
C1152 C1158 1.383 . S
C1153 C1149 1.495 . S
C1153 H1159 0.959 . S
C1153 H1160 0.961 . S
C1153 H1161 0.960 . S
C1154 C1152 1.381 . S
C1154 C1155 1.394 . S
C1154 H1162 0.930 . S
C1155 C1154 1.394 . S
C1155 C1156 1.383 . S
C1155 H1163 0.929 . S
C1156 C1155 1.383 . S
C1156 C1157 1.377 . S
C1157 H1141 0.930 . S
C1157 C1156 1.377 . S
C1157 C1158 1.379 . S
C1158 H1142 0.931 . S
C1158 C1152 1.383 . S
C1158 C1157 1.379 . S
H1159 C1153 0.959 . S
H1160 C1153 0.961 . S
H1161 C1153 0.960 . S
H1162 C1154 0.930 . S
H1163 C1155 0.929 . S
H1164 C1172 0.929 . S
H1165 C1174 0.930 . S
H1166 C1176 0.930 . S
H1167 C1179 0.929 . S
H1168 C1182 0.930 . S
H1169 C1184 0.960 . S
H1170 C1184 0.960 . S
H1171 C1184 0.960 . S
C1172 H1164 0.929 . S
C1172 C1173 1.377 . S
C1172 C1174 1.384 . S
C1173 C1172 1.377 . S
C1173 C1179 1.390 . S
C1174 H1165 0.930 . S
C1174 C1172 1.384 . S
C1174 C1175 1.372 . S
C1175 C1174 1.372 . S
C1175 C1176 1.400 . S
C1175 C1180 1.490 . S
C1176 H1166 0.930 . S
C1176 C1175 1.400 . S
C1176 C1179 1.386 . S
H1177 C1193 0.930 . S
H1178 C1194 0.931 . S
C1179 H1167 0.929 . S
C1179 C1173 1.390 . S
C1179 C1176 1.386 . S
C1180 C1175 1.490 . S
C1180 C1182 1.395 . S
C1180 C1183 1.403 . S
H1181 C1187 0.930 . S
C1182 H1168 0.930 . S
C1182 C1180 1.395 . S
C1182 C1185 1.403 . S
C1183 C1180 1.403 . S
C1183 C1184 1.524 . S
C1183 C1187 1.400 . S
C1184 H1169 0.960 . S
C1184 H1170 0.960 . S
C1184 H1171 0.960 . S
C1184 C1183 1.524 . S
C1185 C1182 1.403 . S
C1185 C1186 1.392 . S
C1185 C1189 1.495 . S
C1186 C1185 1.392 . S
C1186 C1187 1.385 . S
C1186 C1188 1.478 . S
C1187 H1181 0.930 . S
C1187 C1183 1.400 . S
C1187 C1186 1.385 . S
C1188 C1186 1.478 . S
C1188 C1190 1.381 . S
C1188 C1194 1.383 . S
C1189 C1185 1.495 . S
C1189 H1195 0.959 . S
C1189 H1196 0.961 . S
C1189 H1197 0.960 . S
C1190 C1188 1.381 . S
C1190 C1191 1.394 . S
C1190 H1198 0.930 . S
C1191 C1190 1.394 . S
C1191 C1192 1.383 . S
C1191 H1199 0.929 . S
C1192 C1191 1.383 . S
C1192 C1193 1.377 . S
C1193 H1177 0.930 . S
C1193 C1192 1.377 . S
C1193 C1194 1.379 . S
C1194 H1178 0.931 . S
C1194 C1188 1.383 . S
C1194 C1193 1.379 . S
H1195 C1189 0.959 . S
H1196 C1189 0.961 . S
H1197 C1189 0.960 . S
H1198 C1190 0.930 . S
H1199 C1191 0.929 . S
H1200 C1208 0.929 . S
H1201 C1210 0.930 . S
H1202 C1212 0.930 . S
H1203 C1215 0.929 . S
H1204 C1218 0.930 . S
H1205 C1220 0.960 . S
H1206 C1220 0.960 . S
H1207 C1220 0.960 . S
C1208 H1200 0.929 . S
C1208 C1209 1.377 . S
C1208 C1210 1.384 . S
C1209 C1208 1.377 . S
C1209 C1215 1.390 . S
C1210 H1201 0.930 . S
C1210 C1208 1.384 . S
C1210 C1211 1.372 . S
C1211 C1210 1.372 . S
C1211 C1212 1.400 . S
C1211 C1216 1.490 . S
C1212 H1202 0.930 . S
C1212 C1211 1.400 . S
C1212 C1215 1.386 . S
H1213 C1229 0.930 . S
H1214 C1230 0.931 . S
C1215 H1203 0.929 . S
C1215 C1209 1.390 . S
C1215 C1212 1.386 . S
C1216 C1211 1.490 . S
C1216 C1218 1.395 . S
C1216 C1219 1.403 . S
H1217 C1223 0.930 . S
C1218 H1204 0.930 . S
C1218 C1216 1.395 . S
C1218 C1221 1.403 . S
C1219 C1216 1.403 . S
C1219 C1220 1.524 . S
C1219 C1223 1.400 . S
C1220 H1205 0.960 . S
C1220 H1206 0.960 . S
C1220 H1207 0.960 . S
C1220 C1219 1.524 . S
C1221 C1218 1.403 . S
C1221 C1222 1.392 . S
C1221 C1225 1.495 . S
C1222 C1221 1.392 . S
C1222 C1223 1.385 . S
C1222 C1224 1.478 . S
C1223 H1217 0.930 . S
C1223 C1219 1.400 . S
C1223 C1222 1.385 . S
C1224 C1222 1.478 . S
C1224 C1226 1.381 . S
C1224 C1230 1.383 . S
C1225 C1221 1.495 . S
C1225 H1231 0.959 . S
C1225 H1232 0.961 . S
C1225 H1233 0.960 . S
C1226 C1224 1.381 . S
C1226 C1227 1.394 . S
C1226 H1234 0.930 . S
C1227 C1226 1.394 . S
C1227 C1228 1.383 . S
C1227 H1235 0.929 . S
C1228 C1227 1.383 . S
C1228 C1229 1.377 . S
C1229 H1213 0.930 . S
C1229 C1228 1.377 . S
C1229 C1230 1.379 . S
C1230 H1214 0.931 . S
C1230 C1224 1.383 . S
C1230 C1229 1.379 . S
H1231 C1225 0.959 . S
H1232 C1225 0.961 . S
H1233 C1225 0.960 . S
H1234 C1226 0.930 . S
H1235 C1227 0.929 . S
H1236 C1244 0.929 . S
H1237 C1246 0.930 . S
H1238 C1248 0.930 . S
H1239 C1251 0.929 . S
H1240 C1254 0.930 . S
H1241 C1256 0.960 . S
H1242 C1256 0.960 . S
H1243 C1256 0.960 . S
C1244 H1236 0.929 . S
C1244 C1245 1.377 . S
C1244 C1246 1.384 . S
C1245 C1244 1.377 . S
C1245 C1251 1.390 . S
C1246 H1237 0.930 . S
C1246 C1244 1.384 . S
C1246 C1247 1.372 . S
C1247 C1246 1.372 . S
C1247 C1248 1.400 . S
C1247 C1252 1.490 . S
C1248 H1238 0.930 . S
C1248 C1247 1.400 . S
C1248 C1251 1.386 . S
H1249 C1265 0.930 . S
H1250 C1266 0.931 . S
C1251 H1239 0.929 . S
C1251 C1245 1.390 . S
C1251 C1248 1.386 . S
C1252 C1247 1.490 . S
C1252 C1254 1.395 . S
C1252 C1255 1.403 . S
H1253 C1259 0.930 . S
C1254 H1240 0.930 . S
C1254 C1252 1.395 . S
C1254 C1257 1.403 . S
C1255 C1252 1.403 . S
C1255 C1256 1.524 . S
C1255 C1259 1.400 . S
C1256 H1241 0.960 . S
C1256 H1242 0.960 . S
C1256 H1243 0.960 . S
C1256 C1255 1.524 . S
C1257 C1254 1.403 . S
C1257 C1258 1.392 . S
C1257 C1261 1.495 . S
C1258 C1257 1.392 . S
C1258 C1259 1.385 . S
C1258 C1260 1.478 . S
C1259 H1253 0.930 . S
C1259 C1255 1.400 . S
C1259 C1258 1.385 . S
C1260 C1258 1.478 . S
C1260 C1262 1.381 . S
C1260 C1266 1.383 . S
C1261 C1257 1.495 . S
C1261 H1267 0.959 . S
C1261 H1268 0.961 . S
C1261 H1269 0.960 . S
C1262 C1260 1.381 . S
C1262 C1263 1.394 . S
C1262 H1270 0.930 . S
C1263 C1262 1.394 . S
C1263 C1264 1.383 . S
C1263 H1271 0.929 . S
C1264 C1263 1.383 . S
C1264 C1265 1.377 . S
C1265 H1249 0.930 . S
C1265 C1264 1.377 . S
C1265 C1266 1.379 . S
C1266 H1250 0.931 . S
C1266 C1260 1.383 . S
C1266 C1265 1.379 . S
H1267 C1261 0.959 . S
H1268 C1261 0.961 . S
H1269 C1261 0.960 . S
H1270 C1262 0.930 . S
H1271 C1263 0.929 . S
H1272 C1280 0.929 . S
H1273 C1282 0.930 . S
H1274 C1284 0.930 . S
H1275 C1287 0.929 . S
H1276 C1290 0.930 . S
H1277 C1292 0.960 . S
H1278 C1292 0.960 . S
H1279 C1292 0.960 . S
C1280 H1272 0.929 . S
C1280 C1281 1.377 . S
C1280 C1282 1.384 . S
C1281 C1280 1.377 . S
C1281 C1287 1.390 . S
C1282 H1273 0.930 . S
C1282 C1280 1.384 . S
C1282 C1283 1.372 . S
C1283 C1282 1.372 . S
C1283 C1284 1.400 . S
C1283 C1288 1.490 . S
C1284 H1274 0.930 . S
C1284 C1283 1.400 . S
C1284 C1287 1.386 . S
H1285 C1301 0.930 . S
H1286 C1302 0.931 . S
C1287 H1275 0.929 . S
C1287 C1281 1.390 . S
C1287 C1284 1.386 . S
C1288 C1283 1.490 . S
C1288 C1290 1.395 . S
C1288 C1291 1.403 . S
H1289 C1295 0.930 . S
C1290 H1276 0.930 . S
C1290 C1288 1.395 . S
C1290 C1293 1.403 . S
C1291 C1288 1.403 . S
C1291 C1292 1.524 . S
C1291 C1295 1.400 . S
C1292 H1277 0.960 . S
C1292 H1278 0.960 . S
C1292 H1279 0.960 . S
C1292 C1291 1.524 . S
C1293 C1290 1.403 . S
C1293 C1294 1.392 . S
C1293 C1297 1.495 . S
C1294 C1293 1.392 . S
C1294 C1295 1.385 . S
C1294 C1296 1.478 . S
C1295 H1289 0.930 . S
C1295 C1291 1.400 . S
C1295 C1294 1.385 . S
C1296 C1294 1.478 . S
C1296 C1298 1.381 . S
C1296 C1302 1.383 . S
C1297 C1293 1.495 . S
C1297 H1303 0.959 . S
C1297 H1304 0.961 . S
C1297 H1305 0.960 . S
C1298 C1296 1.381 . S
C1298 C1299 1.394 . S
C1298 H1306 0.930 . S
C1299 C1298 1.394 . S
C1299 C1300 1.383 . S
C1299 H1307 0.929 . S
C1300 C1299 1.383 . S
C1300 C1301 1.377 . S
C1301 H1285 0.930 . S
C1301 C1300 1.377 . S
C1301 C1302 1.379 . S
C1302 H1286 0.931 . S
C1302 C1296 1.383 . S
C1302 C1301 1.379 . S
H1303 C1297 0.959 . S
H1304 C1297 0.961 . S
H1305 C1297 0.960 . S
H1306 C1298 0.930 . S
H1307 C1299 0.929 . S
H1308 C1316 0.929 . S
H1309 C1318 0.930 . S
H1310 C1320 0.930 . S
H1311 C1323 0.929 . S
H1312 C1326 0.930 . S
H1313 C1328 0.960 . S
H1314 C1328 0.960 . S
H1315 C1328 0.960 . S
C1316 H1308 0.929 . S
C1316 C1317 1.377 . S
C1316 C1318 1.384 . S
C1317 C1316 1.377 . S
C1317 C1323 1.390 . S
C1318 H1309 0.930 . S
C1318 C1316 1.384 . S
C1318 C1319 1.372 . S
C1319 C1318 1.372 . S
C1319 C1320 1.400 . S
C1319 C1324 1.490 . S
C1320 H1310 0.930 . S
C1320 C1319 1.400 . S
C1320 C1323 1.386 . S
H1321 C1337 0.930 . S
H1322 C1338 0.931 . S
C1323 H1311 0.929 . S
C1323 C1317 1.390 . S
C1323 C1320 1.386 . S
C1324 C1319 1.490 . S
C1324 C1326 1.395 . S
C1324 C1327 1.403 . S
H1325 C1331 0.930 . S
C1326 H1312 0.930 . S
C1326 C1324 1.395 . S
C1326 C1329 1.403 . S
C1327 C1324 1.403 . S
C1327 C1328 1.524 . S
C1327 C1331 1.400 . S
C1328 H1313 0.960 . S
C1328 H1314 0.960 . S
C1328 H1315 0.960 . S
C1328 C1327 1.524 . S
C1329 C1326 1.403 . S
C1329 C1330 1.392 . S
C1329 C1333 1.495 . S
C1330 C1329 1.392 . S
C1330 C1331 1.385 . S
C1330 C1332 1.478 . S
C1331 H1325 0.930 . S
C1331 C1327 1.400 . S
C1331 C1330 1.385 . S
C1332 C1330 1.478 . S
C1332 C1334 1.381 . S
C1332 C1338 1.383 . S
C1333 C1329 1.495 . S
C1333 H1339 0.959 . S
C1333 H1340 0.961 . S
C1333 H1341 0.960 . S
C1334 C1332 1.381 . S
C1334 C1335 1.394 . S
C1334 H1342 0.930 . S
C1335 C1334 1.394 . S
C1335 C1336 1.383 . S
C1335 H1343 0.929 . S
C1336 C1335 1.383 . S
C1336 C1337 1.377 . S
C1337 H1321 0.930 . S
C1337 C1336 1.377 . S
C1337 C1338 1.379 . S
C1338 H1322 0.931 . S
C1338 C1332 1.383 . S
C1338 C1337 1.379 . S
H1339 C1333 0.959 . S
H1340 C1333 0.961 . S
H1341 C1333 0.960 . S
H1342 C1334 0.930 . S
H1343 C1335 0.929 . S
H1344 C1352 0.929 . S
H1345 C1354 0.930 . S
H1346 C1356 0.930 . S
H1347 C1359 0.929 . S
H1348 C1362 0.930 . S
H1349 C1364 0.960 . S
H1350 C1364 0.960 . S
H1351 C1364 0.960 . S
C1352 H1344 0.929 . S
C1352 C1353 1.377 . S
C1352 C1354 1.384 . S
C1353 C1352 1.377 . S
C1353 C1359 1.390 . S
C1354 H1345 0.930 . S
C1354 C1352 1.384 . S
C1354 C1355 1.372 . S
C1355 C1354 1.372 . S
C1355 C1356 1.400 . S
C1355 C1360 1.490 . S
C1356 H1346 0.930 . S
C1356 C1355 1.400 . S
C1356 C1359 1.386 . S
H1357 C1373 0.930 . S
H1358 C1374 0.931 . S
C1359 H1347 0.929 . S
C1359 C1353 1.390 . S
C1359 C1356 1.386 . S
C1360 C1355 1.490 . S
C1360 C1362 1.395 . S
C1360 C1363 1.403 . S
H1361 C1367 0.930 . S
C1362 H1348 0.930 . S
C1362 C1360 1.395 . S
C1362 C1365 1.403 . S
C1363 C1360 1.403 . S
C1363 C1364 1.524 . S
C1363 C1367 1.400 . S
C1364 H1349 0.960 . S
C1364 H1350 0.960 . S
C1364 H1351 0.960 . S
C1364 C1363 1.524 . S
C1365 C1362 1.403 . S
C1365 C1366 1.392 . S
C1365 C1369 1.495 . S
C1366 C1365 1.392 . S
C1366 C1367 1.385 . S
C1366 C1368 1.478 . S
C1367 H1361 0.930 . S
C1367 C1363 1.400 . S
C1367 C1366 1.385 . S
C1368 C1366 1.478 . S
C1368 C1370 1.381 . S
C1368 C1374 1.383 . S
C1369 C1365 1.495 . S
C1369 H1375 0.959 . S
C1369 H1376 0.961 . S
C1369 H1377 0.960 . S
C1370 C1368 1.381 . S
C1370 C1371 1.394 . S
C1370 H1378 0.930 . S
C1371 C1370 1.394 . S
C1371 C1372 1.383 . S
C1371 H1379 0.929 . S
C1372 C1371 1.383 . S
C1372 C1373 1.377 . S
C1373 H1357 0.930 . S
C1373 C1372 1.377 . S
C1373 C1374 1.379 . S
C1374 H1358 0.931 . S
C1374 C1368 1.383 . S
C1374 C1373 1.379 . S
H1375 C1369 0.959 . S
H1376 C1369 0.961 . S
H1377 C1369 0.960 . S
H1378 C1370 0.930 . S
H1379 C1371 0.929 . S
H1380 C1388 0.929 . S
H1381 C1390 0.930 . S
H1382 C1392 0.930 . S
H1383 C1395 0.929 . S
H1384 C1398 0.930 . S
H1385 C1400 0.960 . S
H1386 C1400 0.960 . S
H1387 C1400 0.960 . S
C1388 H1380 0.929 . S
C1388 C1389 1.377 . S
C1388 C1390 1.384 . S
C1389 C1388 1.377 . S
C1389 C1395 1.390 . S
C1390 H1381 0.930 . S
C1390 C1388 1.384 . S
C1390 C1391 1.372 . S
C1391 C1390 1.372 . S
C1391 C1392 1.400 . S
C1391 C1396 1.490 . S
C1392 H1382 0.930 . S
C1392 C1391 1.400 . S
C1392 C1395 1.386 . S
H1393 C1409 0.930 . S
H1394 C1410 0.931 . S
C1395 H1383 0.929 . S
C1395 C1389 1.390 . S
C1395 C1392 1.386 . S
C1396 C1391 1.490 . S
C1396 C1398 1.395 . S
C1396 C1399 1.403 . S
H1397 C1403 0.930 . S
C1398 H1384 0.930 . S
C1398 C1396 1.395 . S
C1398 C1401 1.403 . S
C1399 C1396 1.403 . S
C1399 C1400 1.524 . S
C1399 C1403 1.400 . S
C1400 H1385 0.960 . S
C1400 H1386 0.960 . S
C1400 H1387 0.960 . S
C1400 C1399 1.524 . S
C1401 C1398 1.403 . S
C1401 C1402 1.392 . S
C1401 C1405 1.495 . S
C1402 C1401 1.392 . S
C1402 C1403 1.385 . S
C1402 C1404 1.478 . S
C1403 H1397 0.930 . S
C1403 C1399 1.400 . S
C1403 C1402 1.385 . S
C1404 C1402 1.478 . S
C1404 C1406 1.381 . S
C1404 C1410 1.383 . S
C1405 C1401 1.495 . S
C1405 H1411 0.959 . S
C1405 H1412 0.961 . S
C1405 H1413 0.960 . S
C1406 C1404 1.381 . S
C1406 C1407 1.394 . S
C1406 H1414 0.930 . S
C1407 C1406 1.394 . S
C1407 C1408 1.383 . S
C1407 H1415 0.929 . S
C1408 C1407 1.383 . S
C1408 C1409 1.377 . S
C1409 H1393 0.930 . S
C1409 C1408 1.377 . S
C1409 C1410 1.379 . S
C1410 H1394 0.931 . S
C1410 C1404 1.383 . S
C1410 C1409 1.379 . S
H1411 C1405 0.959 . S
H1412 C1405 0.961 . S
H1413 C1405 0.960 . S
H1414 C1406 0.930 . S
H1415 C1407 0.929 . S
H1416 C1424 0.929 . S
H1417 C1426 0.930 . S
H1418 C1428 0.930 . S
H1419 C1431 0.929 . S
H1420 C1434 0.930 . S
H1421 C1436 0.960 . S
H1422 C1436 0.960 . S
H1423 C1436 0.960 . S
C1424 H1416 0.929 . S
C1424 C1425 1.377 . S
C1424 C1426 1.384 . S
C1425 C1424 1.377 . S
C1425 C1431 1.390 . S
C1426 H1417 0.930 . S
C1426 C1424 1.384 . S
C1426 C1427 1.372 . S
C1427 C1426 1.372 . S
C1427 C1428 1.400 . S
C1427 C1432 1.490 . S
C1428 H1418 0.930 . S
C1428 C1427 1.400 . S
C1428 C1431 1.386 . S
H1429 C1445 0.930 . S
H1430 C1446 0.931 . S
C1431 H1419 0.929 . S
C1431 C1425 1.390 . S
C1431 C1428 1.386 . S
C1432 C1427 1.490 . S
C1432 C1434 1.395 . S
C1432 C1435 1.403 . S
H1433 C1439 0.930 . S
C1434 H1420 0.930 . S
C1434 C1432 1.395 . S
C1434 C1437 1.403 . S
C1435 C1432 1.403 . S
C1435 C1436 1.524 . S
C1435 C1439 1.400 . S
C1436 H1421 0.960 . S
C1436 H1422 0.960 . S
C1436 H1423 0.960 . S
C1436 C1435 1.524 . S
C1437 C1434 1.403 . S
C1437 C1438 1.392 . S
C1437 C1441 1.495 . S
C1438 C1437 1.392 . S
C1438 C1439 1.385 . S
C1438 C1440 1.478 . S
C1439 H1433 0.930 . S
C1439 C1435 1.400 . S
C1439 C1438 1.385 . S
C1440 C1438 1.478 . S
C1440 C1442 1.381 . S
C1440 C1446 1.383 . S
C1441 C1437 1.495 . S
C1441 H1447 0.959 . S
C1441 H1448 0.961 . S
C1441 H1449 0.960 . S
C1442 C1440 1.381 . S
C1442 C1443 1.394 . S
C1442 H1450 0.930 . S
C1443 C1442 1.394 . S
C1443 C1444 1.383 . S
C1443 H1451 0.929 . S
C1444 C1443 1.383 . S
C1444 C1445 1.377 . S
C1445 H1429 0.930 . S
C1445 C1444 1.377 . S
C1445 C1446 1.379 . S
C1446 H1430 0.931 . S
C1446 C1440 1.383 . S
C1446 C1445 1.379 . S
H1447 C1441 0.959 . S
H1448 C1441 0.961 . S
H1449 C1441 0.960 . S
H1450 C1442 0.930 . S
H1451 C1443 0.929 . S
H1452 C1460 0.929 . S
H1453 C1462 0.930 . S
H1454 C1464 0.930 . S
H1455 C1467 0.929 . S
H1456 C1470 0.930 . S
H1457 C1472 0.960 . S
H1458 C1472 0.960 . S
H1459 C1472 0.960 . S
C1460 H1452 0.929 . S
C1460 C1461 1.377 . S
C1460 C1462 1.384 . S
C1461 C1460 1.377 . S
C1461 C1467 1.390 . S
C1462 H1453 0.930 . S
C1462 C1460 1.384 . S
C1462 C1463 1.372 . S
C1463 C1462 1.372 . S
C1463 C1464 1.400 . S
C1463 C1468 1.490 . S
C1464 H1454 0.930 . S
C1464 C1463 1.400 . S
C1464 C1467 1.386 . S
H1465 C1481 0.930 . S
H1466 C1482 0.931 . S
C1467 H1455 0.929 . S
C1467 C1461 1.390 . S
C1467 C1464 1.386 . S
C1468 C1463 1.490 . S
C1468 C1470 1.395 . S
C1468 C1471 1.403 . S
H1469 C1475 0.930 . S
C1470 H1456 0.930 . S
C1470 C1468 1.395 . S
C1470 C1473 1.403 . S
C1471 C1468 1.403 . S
C1471 C1472 1.524 . S
C1471 C1475 1.400 . S
C1472 H1457 0.960 . S
C1472 H1458 0.960 . S
C1472 H1459 0.960 . S
C1472 C1471 1.524 . S
C1473 C1470 1.403 . S
C1473 C1474 1.392 . S
C1473 C1477 1.495 . S
C1474 C1473 1.392 . S
C1474 C1475 1.385 . S
C1474 C1476 1.478 . S
C1475 H1469 0.930 . S
C1475 C1471 1.400 . S
C1475 C1474 1.385 . S
C1476 C1474 1.478 . S
C1476 C1478 1.381 . S
C1476 C1482 1.383 . S
C1477 C1473 1.495 . S
C1477 H1483 0.959 . S
C1477 H1484 0.961 . S
C1477 H1485 0.960 . S
C1478 C1476 1.381 . S
C1478 C1479 1.394 . S
C1478 H1486 0.930 . S
C1479 C1478 1.394 . S
C1479 C1480 1.383 . S
C1479 H1487 0.929 . S
C1480 C1479 1.383 . S
C1480 C1481 1.377 . S
C1481 H1465 0.930 . S
C1481 C1480 1.377 . S
C1481 C1482 1.379 . S
C1482 H1466 0.931 . S
C1482 C1476 1.383 . S
C1482 C1481 1.379 . S
H1483 C1477 0.959 . S
H1484 C1477 0.961 . S
H1485 C1477 0.960 . S
H1486 C1478 0.930 . S
H1487 C1479 0.929 . S
H1488 C1496 0.929 . S
H1489 C1498 0.930 . S
H1490 C1500 0.930 . S
H1491 C1503 0.929 . S
H1492 C1506 0.930 . S
H1493 C1508 0.960 . S
H1494 C1508 0.960 . S
H1495 C1508 0.960 . S
C1496 H1488 0.929 . S
C1496 C1497 1.377 . S
C1496 C1498 1.384 . S
C1497 C1496 1.377 . S
C1497 C1503 1.390 . S
C1498 H1489 0.930 . S
C1498 C1496 1.384 . S
C1498 C1499 1.372 . S
C1499 C1498 1.372 . S
C1499 C1500 1.400 . S
C1499 C1504 1.490 . S
C1500 H1490 0.930 . S
C1500 C1499 1.400 . S
C1500 C1503 1.386 . S
H1501 C1517 0.930 . S
H1502 C1518 0.931 . S
C1503 H1491 0.929 . S
C1503 C1497 1.390 . S
C1503 C1500 1.386 . S
C1504 C1499 1.490 . S
C1504 C1506 1.395 . S
C1504 C1507 1.403 . S
H1505 C1511 0.930 . S
C1506 H1492 0.930 . S
C1506 C1504 1.395 . S
C1506 C1509 1.403 . S
C1507 C1504 1.403 . S
C1507 C1508 1.524 . S
C1507 C1511 1.400 . S
C1508 H1493 0.960 . S
C1508 H1494 0.960 . S
C1508 H1495 0.960 . S
C1508 C1507 1.524 . S
C1509 C1506 1.403 . S
C1509 C1510 1.392 . S
C1509 C1513 1.495 . S
C1510 C1509 1.392 . S
C1510 C1511 1.385 . S
C1510 C1512 1.478 . S
C1511 H1505 0.930 . S
C1511 C1507 1.400 . S
C1511 C1510 1.385 . S
C1512 C1510 1.478 . S
C1512 C1514 1.381 . S
C1512 C1518 1.383 . S
C1513 C1509 1.495 . S
C1513 H1519 0.959 . S
C1513 H1520 0.961 . S
C1513 H1521 0.960 . S
C1514 C1512 1.381 . S
C1514 C1515 1.394 . S
C1514 H1522 0.930 . S
C1515 C1514 1.394 . S
C1515 C1516 1.383 . S
C1515 H1523 0.929 . S
C1516 C1515 1.383 . S
C1516 C1517 1.377 . S
C1517 H1501 0.930 . S
C1517 C1516 1.377 . S
C1517 C1518 1.379 . S
C1518 H1502 0.931 . S
C1518 C1512 1.383 . S
C1518 C1517 1.379 . S
H1519 C1513 0.959 . S
H1520 C1513 0.961 . S
H1521 C1513 0.960 . S
H1522 C1514 0.930 . S
H1523 C1515 0.929 . S
H1524 C1532 0.929 . S
H1525 C1534 0.930 . S
H1526 C1536 0.930 . S
H1527 C1539 0.929 . S
H1528 C1542 0.930 . S
H1529 C1544 0.960 . S
H1530 C1544 0.960 . S
H1531 C1544 0.960 . S
C1532 H1524 0.929 . S
C1532 C1533 1.377 . S
C1532 C1534 1.384 . S
C1533 C1532 1.377 . S
C1533 C1539 1.390 . S
C1534 H1525 0.930 . S
C1534 C1532 1.384 . S
C1534 C1535 1.372 . S
C1535 C1534 1.372 . S
C1535 C1536 1.400 . S
C1535 C1540 1.490 . S
C1536 H1526 0.930 . S
C1536 C1535 1.400 . S
C1536 C1539 1.386 . S
H1537 C1553 0.930 . S
H1538 C1554 0.931 . S
C1539 H1527 0.929 . S
C1539 C1533 1.390 . S
C1539 C1536 1.386 . S
C1540 C1535 1.490 . S
C1540 C1542 1.395 . S
C1540 C1543 1.403 . S
H1541 C1547 0.930 . S
C1542 H1528 0.930 . S
C1542 C1540 1.395 . S
C1542 C1545 1.403 . S
C1543 C1540 1.403 . S
C1543 C1544 1.524 . S
C1543 C1547 1.400 . S
C1544 H1529 0.960 . S
C1544 H1530 0.960 . S
C1544 H1531 0.960 . S
C1544 C1543 1.524 . S
C1545 C1542 1.403 . S
C1545 C1546 1.392 . S
C1545 C1549 1.495 . S
C1546 C1545 1.392 . S
C1546 C1547 1.385 . S
C1546 C1548 1.478 . S
C1547 H1541 0.930 . S
C1547 C1543 1.400 . S
C1547 C1546 1.385 . S
C1548 C1546 1.478 . S
C1548 C1550 1.381 . S
C1548 C1554 1.383 . S
C1549 C1545 1.495 . S
C1549 H1555 0.959 . S
C1549 H1556 0.961 . S
C1549 H1557 0.960 . S
C1550 C1548 1.381 . S
C1550 C1551 1.394 . S
C1550 H1558 0.930 . S
C1551 C1550 1.394 . S
C1551 C1552 1.383 . S
C1551 H1559 0.929 . S
C1552 C1551 1.383 . S
C1552 C1553 1.377 . S
C1553 H1537 0.930 . S
C1553 C1552 1.377 . S
C1553 C1554 1.379 . S
C1554 H1538 0.931 . S
C1554 C1548 1.383 . S
C1554 C1553 1.379 . S
H1555 C1549 0.959 . S
H1556 C1549 0.961 . S
H1557 C1549 0.960 . S
H1558 C1550 0.930 . S
H1559 C1551 0.929 . S
H1560 C1568 0.929 . S
H1561 C1570 0.930 . S
H1562 C1572 0.930 . S
H1563 C1575 0.929 . S
H1564 C1578 0.930 . S
H1565 C1580 0.960 . S
H1566 C1580 0.960 . S
H1567 C1580 0.960 . S
C1568 H1560 0.929 . S
C1568 C1569 1.377 . S
C1568 C1570 1.384 . S
C1569 C1568 1.377 . S
C1569 C1575 1.390 . S
C1570 H1561 0.930 . S
C1570 C1568 1.384 . S
C1570 C1571 1.372 . S
C1571 C1570 1.372 . S
C1571 C1572 1.400 . S
C1571 C1576 1.490 . S
C1572 H1562 0.930 . S
C1572 C1571 1.400 . S
C1572 C1575 1.386 . S
H1573 C1589 0.930 . S
H1574 C1590 0.931 . S
C1575 H1563 0.929 . S
C1575 C1569 1.390 . S
C1575 C1572 1.386 . S
C1576 C1571 1.490 . S
C1576 C1578 1.395 . S
C1576 C1579 1.403 . S
H1577 C1583 0.930 . S
C1578 H1564 0.930 . S
C1578 C1576 1.395 . S
C1578 C1581 1.403 . S
C1579 C1576 1.403 . S
C1579 C1580 1.524 . S
C1579 C1583 1.400 . S
C1580 H1565 0.960 . S
C1580 H1566 0.960 . S
C1580 H1567 0.960 . S
C1580 C1579 1.524 . S
C1581 C1578 1.403 . S
C1581 C1582 1.392 . S
C1581 C1585 1.495 . S
C1582 C1581 1.392 . S
C1582 C1583 1.385 . S
C1582 C1584 1.478 . S
C1583 H1577 0.930 . S
C1583 C1579 1.400 . S
C1583 C1582 1.385 . S
C1584 C1582 1.478 . S
C1584 C1586 1.381 . S
C1584 C1590 1.383 . S
C1585 C1581 1.495 . S
C1585 H1591 0.959 . S
C1585 H1592 0.961 . S
C1585 H1593 0.960 . S
C1586 C1584 1.381 . S
C1586 C1587 1.394 . S
C1586 H1594 0.930 . S
C1587 C1586 1.394 . S
C1587 C1588 1.383 . S
C1587 H1595 0.929 . S
C1588 C1587 1.383 . S
C1588 C1589 1.377 . S
C1589 H1573 0.930 . S
C1589 C1588 1.377 . S
C1589 C1590 1.379 . S
C1590 H1574 0.931 . S
C1590 C1584 1.383 . S
C1590 C1589 1.379 . S
H1591 C1585 0.959 . S
H1592 C1585 0.961 . S
H1593 C1585 0.960 . S
H1594 C1586 0.930 . S
H1595 C1587 0.929 . S
H1596 C1604 0.929 . S
H1597 C1606 0.930 . S
H1598 C1608 0.930 . S
H1599 C1611 0.929 . S
H1600 C1614 0.930 . S
H1601 C1616 0.960 . S
H1602 C1616 0.960 . S
H1603 C1616 0.960 . S
C1604 H1596 0.929 . S
C1604 C1605 1.377 . S
C1604 C1606 1.384 . S
C1605 C1604 1.377 . S
C1605 C1611 1.390 . S
C1606 H1597 0.930 . S
C1606 C1604 1.384 . S
C1606 C1607 1.372 . S
C1607 C1606 1.372 . S
C1607 C1608 1.400 . S
C1607 C1612 1.490 . S
C1608 H1598 0.930 . S
C1608 C1607 1.400 . S
C1608 C1611 1.386 . S
H1609 C1625 0.930 . S
H1610 C1626 0.931 . S
C1611 H1599 0.929 . S
C1611 C1605 1.390 . S
C1611 C1608 1.386 . S
C1612 C1607 1.490 . S
C1612 C1614 1.395 . S
C1612 C1615 1.403 . S
H1613 C1619 0.930 . S
C1614 H1600 0.930 . S
C1614 C1612 1.395 . S
C1614 C1617 1.403 . S
C1615 C1612 1.403 . S
C1615 C1616 1.524 . S
C1615 C1619 1.400 . S
C1616 H1601 0.960 . S
C1616 H1602 0.960 . S
C1616 H1603 0.960 . S
C1616 C1615 1.524 . S
C1617 C1614 1.403 . S
C1617 C1618 1.392 . S
C1617 C1621 1.495 . S
C1618 C1617 1.392 . S
C1618 C1619 1.385 . S
C1618 C1620 1.478 . S
C1619 H1613 0.930 . S
C1619 C1615 1.400 . S
C1619 C1618 1.385 . S
C1620 C1618 1.478 . S
C1620 C1622 1.381 . S
C1620 C1626 1.383 . S
C1621 C1617 1.495 . S
C1621 H1627 0.959 . S
C1621 H1628 0.961 . S
C1621 H1629 0.960 . S
C1622 C1620 1.381 . S
C1622 C1623 1.394 . S
C1622 H1630 0.930 . S
C1623 C1622 1.394 . S
C1623 C1624 1.383 . S
C1623 H1631 0.929 . S
C1624 C1623 1.383 . S
C1624 C1625 1.377 . S
C1625 H1609 0.930 . S
C1625 C1624 1.377 . S
C1625 C1626 1.379 . S
C1626 H1610 0.931 . S
C1626 C1620 1.383 . S
C1626 C1625 1.379 . S
H1627 C1621 0.959 . S
H1628 C1621 0.961 . S
H1629 C1621 0.960 . S
H1630 C1622 0.930 . S
H1631 C1623 0.929 . S
H1632 C1640 0.929 . S
H1633 C1642 0.930 . S
H1634 C1644 0.930 . S
H1635 C1647 0.929 . S
H1636 C1650 0.930 . S
H1637 C1652 0.960 . S
H1638 C1652 0.960 . S
H1639 C1652 0.960 . S
C1640 H1632 0.929 . S
C1640 C1641 1.377 . S
C1640 C1642 1.384 . S
C1641 C1640 1.377 . S
C1641 C1647 1.390 . S
C1642 H1633 0.930 . S
C1642 C1640 1.384 . S
C1642 C1643 1.372 . S
C1643 C1642 1.372 . S
C1643 C1644 1.400 . S
C1643 C1648 1.490 . S
C1644 H1634 0.930 . S
C1644 C1643 1.400 . S
C1644 C1647 1.386 . S
H1645 C1661 0.930 . S
H1646 C1662 0.931 . S
C1647 H1635 0.929 . S
C1647 C1641 1.390 . S
C1647 C1644 1.386 . S
C1648 C1643 1.490 . S
C1648 C1650 1.395 . S
C1648 C1651 1.403 . S
H1649 C1655 0.930 . S
C1650 H1636 0.930 . S
C1650 C1648 1.395 . S
C1650 C1653 1.403 . S
C1651 C1648 1.403 . S
C1651 C1652 1.524 . S
C1651 C1655 1.400 . S
C1652 H1637 0.960 . S
C1652 H1638 0.960 . S
C1652 H1639 0.960 . S
C1652 C1651 1.524 . S
C1653 C1650 1.403 . S
C1653 C1654 1.392 . S
C1653 C1657 1.495 . S
C1654 C1653 1.392 . S
C1654 C1655 1.385 . S
C1654 C1656 1.478 . S
C1655 H1649 0.930 . S
C1655 C1651 1.400 . S
C1655 C1654 1.385 . S
C1656 C1654 1.478 . S
C1656 C1658 1.381 . S
C1656 C1662 1.383 . S
C1657 C1653 1.495 . S
C1657 H1663 0.959 . S
C1657 H1664 0.961 . S
C1657 H1665 0.960 . S
C1658 C1656 1.381 . S
C1658 C1659 1.394 . S
C1658 H1666 0.930 . S
C1659 C1658 1.394 . S
C1659 C1660 1.383 . S
C1659 H1667 0.929 . S
C1660 C1659 1.383 . S
C1660 C1661 1.377 . S
C1661 H1645 0.930 . S
C1661 C1660 1.377 . S
C1661 C1662 1.379 . S
C1662 H1646 0.931 . S
C1662 C1656 1.383 . S
C1662 C1661 1.379 . S
H1663 C1657 0.959 . S
H1664 C1657 0.961 . S
H1665 C1657 0.960 . S
H1666 C1658 0.930 . S
H1667 C1659 0.929 . S
H1668 C1676 0.929 . S
H1669 C1678 0.930 . S
H1670 C1680 0.930 . S
H1671 C1683 0.929 . S
H1672 C1686 0.930 . S
H1673 C1688 0.960 . S
H1674 C1688 0.960 . S
H1675 C1688 0.960 . S
C1676 H1668 0.929 . S
C1676 C1677 1.377 . S
C1676 C1678 1.384 . S
C1677 C1676 1.377 . S
C1677 C1683 1.390 . S
C1678 H1669 0.930 . S
C1678 C1676 1.384 . S
C1678 C1679 1.372 . S
C1679 C1678 1.372 . S
C1679 C1680 1.400 . S
C1679 C1684 1.490 . S
C1680 H1670 0.930 . S
C1680 C1679 1.400 . S
C1680 C1683 1.386 . S
H1681 C1697 0.930 . S
H1682 C1698 0.931 . S
C1683 H1671 0.929 . S
C1683 C1677 1.390 . S
C1683 C1680 1.386 . S
C1684 C1679 1.490 . S
C1684 C1686 1.395 . S
C1684 C1687 1.403 . S
H1685 C1691 0.930 . S
C1686 H1672 0.930 . S
C1686 C1684 1.395 . S
C1686 C1689 1.403 . S
C1687 C1684 1.403 . S
C1687 C1688 1.524 . S
C1687 C1691 1.400 . S
C1688 H1673 0.960 . S
C1688 H1674 0.960 . S
C1688 H1675 0.960 . S
C1688 C1687 1.524 . S
C1689 C1686 1.403 . S
C1689 C1690 1.392 . S
C1689 C1693 1.495 . S
C1690 C1689 1.392 . S
C1690 C1691 1.385 . S
C1690 C1692 1.478 . S
C1691 H1685 0.930 . S
C1691 C1687 1.400 . S
C1691 C1690 1.385 . S
C1692 C1690 1.478 . S
C1692 C1694 1.381 . S
C1692 C1698 1.383 . S
C1693 C1689 1.495 . S
C1693 H1699 0.959 . S
C1693 H1700 0.961 . S
C1693 H1701 0.960 . S
C1694 C1692 1.381 . S
C1694 C1695 1.394 . S
C1694 H1702 0.930 . S
C1695 C1694 1.394 . S
C1695 C1696 1.383 . S
C1695 H1703 0.929 . S
C1696 C1695 1.383 . S
C1696 C1697 1.377 . S
C1697 H1681 0.930 . S
C1697 C1696 1.377 . S
C1697 C1698 1.379 . S
C1698 H1682 0.931 . S
C1698 C1692 1.383 . S
C1698 C1697 1.379 . S
H1699 C1693 0.959 . S
H1700 C1693 0.961 . S
H1701 C1693 0.960 . S
H1702 C1694 0.930 . S
H1703 C1695 0.929 . S
H1704 C1712 0.929 . S
H1705 C1714 0.930 . S
H1706 C1716 0.930 . S
H1707 C1719 0.929 . S
H1708 C1722 0.930 . S
H1709 C1724 0.960 . S
H1710 C1724 0.960 . S
H1711 C1724 0.960 . S
C1712 H1704 0.929 . S
C1712 C1713 1.377 . S
C1712 C1714 1.384 . S
C1713 C1712 1.377 . S
C1713 C1719 1.390 . S
C1714 H1705 0.930 . S
C1714 C1712 1.384 . S
C1714 C1715 1.372 . S
C1715 C1714 1.372 . S
C1715 C1716 1.400 . S
C1715 C1720 1.490 . S
C1716 H1706 0.930 . S
C1716 C1715 1.400 . S
C1716 C1719 1.386 . S
H1717 C1733 0.930 . S
H1718 C1734 0.931 . S
C1719 H1707 0.929 . S
C1719 C1713 1.390 . S
C1719 C1716 1.386 . S
C1720 C1715 1.490 . S
C1720 C1722 1.395 . S
C1720 C1723 1.403 . S
H1721 C1727 0.930 . S
C1722 H1708 0.930 . S
C1722 C1720 1.395 . S
C1722 C1725 1.403 . S
C1723 C1720 1.403 . S
C1723 C1724 1.524 . S
C1723 C1727 1.400 . S
C1724 H1709 0.960 . S
C1724 H1710 0.960 . S
C1724 H1711 0.960 . S
C1724 C1723 1.524 . S
C1725 C1722 1.403 . S
C1725 C1726 1.392 . S
C1725 C1729 1.495 . S
C1726 C1725 1.392 . S
C1726 C1727 1.385 . S
C1726 C1728 1.478 . S
C1727 H1721 0.930 . S
C1727 C1723 1.400 . S
C1727 C1726 1.385 . S
C1728 C1726 1.478 . S
C1728 C1730 1.381 . S
C1728 C1734 1.383 . S
C1729 C1725 1.495 . S
C1729 H1735 0.959 . S
C1729 H1736 0.961 . S
C1729 H1737 0.960 . S
C1730 C1728 1.381 . S
C1730 C1731 1.394 . S
C1730 H1738 0.930 . S
C1731 C1730 1.394 . S
C1731 C1732 1.383 . S
C1731 H1739 0.929 . S
C1732 C1731 1.383 . S
C1732 C1733 1.377 . S
C1733 H1717 0.930 . S
C1733 C1732 1.377 . S
C1733 C1734 1.379 . S
C1734 H1718 0.931 . S
C1734 C1728 1.383 . S
C1734 C1733 1.379 . S
H1735 C1729 0.959 . S
H1736 C1729 0.961 . S
H1737 C1729 0.960 . S
H1738 C1730 0.930 . S
H1739 C1731 0.929 . S
H1740 C1748 0.929 . S
H1741 C1750 0.930 . S
H1742 C1752 0.930 . S
H1743 C1755 0.929 . S
H1744 C1758 0.930 . S
H1745 C1760 0.960 . S
H1746 C1760 0.960 . S
H1747 C1760 0.960 . S
C1748 H1740 0.929 . S
C1748 C1749 1.377 . S
C1748 C1750 1.384 . S
C1749 C1748 1.377 . S
C1749 C1755 1.390 . S
C1750 H1741 0.930 . S
C1750 C1748 1.384 . S
C1750 C1751 1.372 . S
C1751 C1750 1.372 . S
C1751 C1752 1.400 . S
C1751 C1756 1.490 . S
C1752 H1742 0.930 . S
C1752 C1751 1.400 . S
C1752 C1755 1.386 . S
H1753 C1769 0.930 . S
H1754 C1770 0.931 . S
C1755 H1743 0.929 . S
C1755 C1749 1.390 . S
C1755 C1752 1.386 . S
C1756 C1751 1.490 . S
C1756 C1758 1.395 . S
C1756 C1759 1.403 . S
H1757 C1763 0.930 . S
C1758 H1744 0.930 . S
C1758 C1756 1.395 . S
C1758 C1761 1.403 . S
C1759 C1756 1.403 . S
C1759 C1760 1.524 . S
C1759 C1763 1.400 . S
C1760 H1745 0.960 . S
C1760 H1746 0.960 . S
C1760 H1747 0.960 . S
C1760 C1759 1.524 . S
C1761 C1758 1.403 . S
C1761 C1762 1.392 . S
C1761 C1765 1.495 . S
C1762 C1761 1.392 . S
C1762 C1763 1.385 . S
C1762 C1764 1.478 . S
C1763 H1757 0.930 . S
C1763 C1759 1.400 . S
C1763 C1762 1.385 . S
C1764 C1762 1.478 . S
C1764 C1766 1.381 . S
C1764 C1770 1.383 . S
C1765 C1761 1.495 . S
C1765 H1771 0.959 . S
C1765 H1772 0.961 . S
C1765 H1773 0.960 . S
C1766 C1764 1.381 . S
C1766 C1767 1.394 . S
C1766 H1774 0.930 . S
C1767 C1766 1.394 . S
C1767 C1768 1.383 . S
C1767 H1775 0.929 . S
C1768 C1767 1.383 . S
C1768 C1769 1.377 . S
C1769 H1753 0.930 . S
C1769 C1768 1.377 . S
C1769 C1770 1.379 . S
C1770 H1754 0.931 . S
C1770 C1764 1.383 . S
C1770 C1769 1.379 . S
H1771 C1765 0.959 . S
H1772 C1765 0.961 . S
H1773 C1765 0.960 . S
H1774 C1766 0.930 . S
H1775 C1767 0.929 . S
H1776 C1784 0.929 . S
H1777 C1786 0.930 . S
H1778 C1788 0.930 . S
H1779 C1791 0.929 . S
H1780 C1794 0.930 . S
H1781 C1796 0.960 . S
H1782 C1796 0.960 . S
H1783 C1796 0.960 . S
C1784 H1776 0.929 . S
C1784 C1785 1.377 . S
C1784 C1786 1.384 . S
C1785 C1784 1.377 . S
C1785 C1791 1.390 . S
C1786 H1777 0.930 . S
C1786 C1784 1.384 . S
C1786 C1787 1.372 . S
C1787 C1786 1.372 . S
C1787 C1788 1.400 . S
C1787 C1792 1.490 . S
C1788 H1778 0.930 . S
C1788 C1787 1.400 . S
C1788 C1791 1.386 . S
H1789 C1805 0.930 . S
H1790 C1806 0.931 . S
C1791 H1779 0.929 . S
C1791 C1785 1.390 . S
C1791 C1788 1.386 . S
C1792 C1787 1.490 . S
C1792 C1794 1.395 . S
C1792 C1795 1.403 . S
H1793 C1799 0.930 . S
C1794 H1780 0.930 . S
C1794 C1792 1.395 . S
C1794 C1797 1.403 . S
C1795 C1792 1.403 . S
C1795 C1796 1.524 . S
C1795 C1799 1.400 . S
C1796 H1781 0.960 . S
C1796 H1782 0.960 . S
C1796 H1783 0.960 . S
C1796 C1795 1.524 . S
C1797 C1794 1.403 . S
C1797 C1798 1.392 . S
C1797 C1801 1.495 . S
C1798 C1797 1.392 . S
C1798 C1799 1.385 . S
C1798 C1800 1.478 . S
C1799 H1793 0.930 . S
C1799 C1795 1.400 . S
C1799 C1798 1.385 . S
C1800 C1798 1.478 . S
C1800 C1802 1.381 . S
C1800 C1806 1.383 . S
C1801 C1797 1.495 . S
C1801 H1807 0.959 . S
C1801 H1808 0.961 . S
C1801 H1809 0.960 . S
C1802 C1800 1.381 . S
C1802 C1803 1.394 . S
C1802 H1810 0.930 . S
C1803 C1802 1.394 . S
C1803 C1804 1.383 . S
C1803 H1811 0.929 . S
C1804 C1803 1.383 . S
C1804 C1805 1.377 . S
C1805 H1789 0.930 . S
C1805 C1804 1.377 . S
C1805 C1806 1.379 . S
C1806 H1790 0.931 . S
C1806 C1800 1.383 . S
C1806 C1805 1.379 . S
H1807 C1801 0.959 . S
H1808 C1801 0.961 . S
H1809 C1801 0.960 . S
H1810 C1802 0.930 . S
H1811 C1803 0.929 . S
H1812 C1820 0.929 . S
H1813 C1822 0.930 . S
H1814 C1824 0.930 . S
H1815 C1827 0.929 . S
H1816 C1830 0.930 . S
H1817 C1832 0.960 . S
H1818 C1832 0.960 . S
H1819 C1832 0.960 . S
C1820 H1812 0.929 . S
C1820 C1821 1.377 . S
C1820 C1822 1.384 . S
C1821 C1820 1.377 . S
C1821 C1827 1.390 . S
C1822 H1813 0.930 . S
C1822 C1820 1.384 . S
C1822 C1823 1.372 . S
C1823 C1822 1.372 . S
C1823 C1824 1.400 . S
C1823 C1828 1.490 . S
C1824 H1814 0.930 . S
C1824 C1823 1.400 . S
C1824 C1827 1.386 . S
H1825 C1841 0.930 . S
H1826 C1842 0.931 . S
C1827 H1815 0.929 . S
C1827 C1821 1.390 . S
C1827 C1824 1.386 . S
C1828 C1823 1.490 . S
C1828 C1830 1.395 . S
C1828 C1831 1.403 . S
H1829 C1835 0.930 . S
C1830 H1816 0.930 . S
C1830 C1828 1.395 . S
C1830 C1833 1.403 . S
C1831 C1828 1.403 . S
C1831 C1832 1.524 . S
C1831 C1835 1.400 . S
C1832 H1817 0.960 . S
C1832 H1818 0.960 . S
C1832 H1819 0.960 . S
C1832 C1831 1.524 . S
C1833 C1830 1.403 . S
C1833 C1834 1.392 . S
C1833 C1837 1.495 . S
C1834 C1833 1.392 . S
C1834 C1835 1.385 . S
C1834 C1836 1.478 . S
C1835 H1829 0.930 . S
C1835 C1831 1.400 . S
C1835 C1834 1.385 . S
C1836 C1834 1.478 . S
C1836 C1838 1.381 . S
C1836 C1842 1.383 . S
C1837 C1833 1.495 . S
C1837 H1843 0.959 . S
C1837 H1844 0.961 . S
C1837 H1845 0.960 . S
C1838 C1836 1.381 . S
C1838 C1839 1.394 . S
C1838 H1846 0.930 . S
C1839 C1838 1.394 . S
C1839 C1840 1.383 . S
C1839 H1847 0.929 . S
C1840 C1839 1.383 . S
C1840 C1841 1.377 . S
C1841 H1825 0.930 . S
C1841 C1840 1.377 . S
C1841 C1842 1.379 . S
C1842 H1826 0.931 . S
C1842 C1836 1.383 . S
C1842 C1841 1.379 . S
H1843 C1837 0.959 . S
H1844 C1837 0.961 . S
H1845 C1837 0.960 . S
H1846 C1838 0.930 . S
H1847 C1839 0.929 . S
H1848 C1856 0.929 . S
H1849 C1858 0.930 . S
H1850 C1860 0.930 . S
H1851 C1863 0.929 . S
H1852 C1866 0.930 . S
H1853 C1868 0.960 . S
H1854 C1868 0.960 . S
H1855 C1868 0.960 . S
C1856 H1848 0.929 . S
C1856 C1857 1.377 . S
C1856 C1858 1.384 . S
C1857 C1856 1.377 . S
C1857 C1863 1.390 . S
C1858 H1849 0.930 . S
C1858 C1856 1.384 . S
C1858 C1859 1.372 . S
C1859 C1858 1.372 . S
C1859 C1860 1.400 . S
C1859 C1864 1.490 . S
C1860 H1850 0.930 . S
C1860 C1859 1.400 . S
C1860 C1863 1.386 . S
H1861 C1877 0.930 . S
H1862 C1878 0.931 . S
C1863 H1851 0.929 . S
C1863 C1857 1.390 . S
C1863 C1860 1.386 . S
C1864 C1859 1.490 . S
C1864 C1866 1.395 . S
C1864 C1867 1.403 . S
H1865 C1871 0.930 . S
C1866 H1852 0.930 . S
C1866 C1864 1.395 . S
C1866 C1869 1.403 . S
C1867 C1864 1.403 . S
C1867 C1868 1.524 . S
C1867 C1871 1.400 . S
C1868 H1853 0.960 . S
C1868 H1854 0.960 . S
C1868 H1855 0.960 . S
C1868 C1867 1.524 . S
C1869 C1866 1.403 . S
C1869 C1870 1.392 . S
C1869 C1873 1.495 . S
C1870 C1869 1.392 . S
C1870 C1871 1.385 . S
C1870 C1872 1.478 . S
C1871 H1865 0.930 . S
C1871 C1867 1.400 . S
C1871 C1870 1.385 . S
C1872 C1870 1.478 . S
C1872 C1874 1.381 . S
C1872 C1878 1.383 . S
C1873 C1869 1.495 . S
C1873 H1879 0.959 . S
C1873 H1880 0.961 . S
C1873 H1881 0.960 . S
C1874 C1872 1.381 . S
C1874 C1875 1.394 . S
C1874 H1882 0.930 . S
C1875 C1874 1.394 . S
C1875 C1876 1.383 . S
C1875 H1883 0.929 . S
C1876 C1875 1.383 . S
C1876 C1877 1.377 . S
C1877 H1861 0.930 . S
C1877 C1876 1.377 . S
C1877 C1878 1.379 . S
C1878 H1862 0.931 . S
C1878 C1872 1.383 . S
C1878 C1877 1.379 . S
H1879 C1873 0.959 . S
H1880 C1873 0.961 . S
H1881 C1873 0.960 . S
H1882 C1874 0.930 . S
H1883 C1875 0.929 . S
H1884 C1892 0.929 . S
H1885 C1894 0.930 . S
H1886 C1896 0.930 . S
H1887 C1899 0.929 . S
H1888 C1902 0.930 . S
H1889 C1904 0.960 . S
H1890 C1904 0.960 . S
H1891 C1904 0.960 . S
C1892 H1884 0.929 . S
C1892 C1893 1.377 . S
C1892 C1894 1.384 . S
C1893 C1892 1.377 . S
C1893 C1899 1.390 . S
C1894 H1885 0.930 . S
C1894 C1892 1.384 . S
C1894 C1895 1.372 . S
C1895 C1894 1.372 . S
C1895 C1896 1.400 . S
C1895 C1900 1.490 . S
C1896 H1886 0.930 . S
C1896 C1895 1.400 . S
C1896 C1899 1.386 . S
H1897 C1913 0.930 . S
H1898 C1914 0.931 . S
C1899 H1887 0.929 . S
C1899 C1893 1.390 . S
C1899 C1896 1.386 . S
C1900 C1895 1.490 . S
C1900 C1902 1.395 . S
C1900 C1903 1.403 . S
H1901 C1907 0.930 . S
C1902 H1888 0.930 . S
C1902 C1900 1.395 . S
C1902 C1905 1.403 . S
C1903 C1900 1.403 . S
C1903 C1904 1.524 . S
C1903 C1907 1.400 . S
C1904 H1889 0.960 . S
C1904 H1890 0.960 . S
C1904 H1891 0.960 . S
C1904 C1903 1.524 . S
C1905 C1902 1.403 . S
C1905 C1906 1.392 . S
C1905 C1909 1.495 . S
C1906 C1905 1.392 . S
C1906 C1907 1.385 . S
C1906 C1908 1.478 . S
C1907 H1901 0.930 . S
C1907 C1903 1.400 . S
C1907 C1906 1.385 . S
C1908 C1906 1.478 . S
C1908 C1910 1.381 . S
C1908 C1914 1.383 . S
C1909 C1905 1.495 . S
C1909 H1915 0.959 . S
C1909 H1916 0.961 . S
C1909 H1917 0.960 . S
C1910 C1908 1.381 . S
C1910 C1911 1.394 . S
C1910 H1918 0.930 . S
C1911 C1910 1.394 . S
C1911 C1912 1.383 . S
C1911 H1919 0.929 . S
C1912 C1911 1.383 . S
C1912 C1913 1.377 . S
C1913 H1897 0.930 . S
C1913 C1912 1.377 . S
C1913 C1914 1.379 . S
C1914 H1898 0.931 . S
C1914 C1908 1.383 . S
C1914 C1913 1.379 . S
H1915 C1909 0.959 . S
H1916 C1909 0.961 . S
H1917 C1909 0.960 . S
H1918 C1910 0.930 . S
H1919 C1911 0.929 . S
H1920 C1928 0.929 . S
H1921 C1930 0.930 . S
H1922 C1932 0.930 . S
H1923 C1935 0.929 . S
H1924 C1938 0.930 . S
H1925 C1940 0.960 . S
H1926 C1940 0.960 . S
H1927 C1940 0.960 . S
C1928 H1920 0.929 . S
C1928 C1929 1.377 . S
C1928 C1930 1.384 . S
C1929 C1928 1.377 . S
C1929 C1935 1.390 . S
C1930 H1921 0.930 . S
C1930 C1928 1.384 . S
C1930 C1931 1.372 . S
C1931 C1930 1.372 . S
C1931 C1932 1.400 . S
C1931 C1936 1.490 . S
C1932 H1922 0.930 . S
C1932 C1931 1.400 . S
C1932 C1935 1.386 . S
H1933 C1949 0.930 . S
H1934 C1950 0.931 . S
C1935 H1923 0.929 . S
C1935 C1929 1.390 . S
C1935 C1932 1.386 . S
C1936 C1931 1.490 . S
C1936 C1938 1.395 . S
C1936 C1939 1.403 . S
H1937 C1943 0.930 . S
C1938 H1924 0.930 . S
C1938 C1936 1.395 . S
C1938 C1941 1.403 . S
C1939 C1936 1.403 . S
C1939 C1940 1.524 . S
C1939 C1943 1.400 . S
C1940 H1925 0.960 . S
C1940 H1926 0.960 . S
C1940 H1927 0.960 . S
C1940 C1939 1.524 . S
C1941 C1938 1.403 . S
C1941 C1942 1.392 . S
C1941 C1945 1.495 . S
C1942 C1941 1.392 . S
C1942 C1943 1.385 . S
C1942 C1944 1.478 . S
C1943 H1937 0.930 . S
C1943 C1939 1.400 . S
C1943 C1942 1.385 . S
C1944 C1942 1.478 . S
C1944 C1946 1.381 . S
C1944 C1950 1.383 . S
C1945 C1941 1.495 . S
C1945 H1951 0.959 . S
C1945 H1952 0.961 . S
C1945 H1953 0.960 . S
C1946 C1944 1.381 . S
C1946 C1947 1.394 . S
C1946 H1954 0.930 . S
C1947 C1946 1.394 . S
C1947 C1948 1.383 . S
C1947 H1955 0.929 . S
C1948 C1947 1.383 . S
C1948 C1949 1.377 . S
C1949 H1933 0.930 . S
C1949 C1948 1.377 . S
C1949 C1950 1.379 . S
C1950 H1934 0.931 . S
C1950 C1944 1.383 . S
C1950 C1949 1.379 . S
H1951 C1945 0.959 . S
H1952 C1945 0.961 . S
H1953 C1945 0.960 . S
H1954 C1946 0.930 . S
H1955 C1947 0.929 . S
H1956 C1964 0.929 . S
H1957 C1966 0.930 . S
H1958 C1968 0.930 . S
H1959 C1971 0.929 . S
H1960 C1974 0.930 . S
H1961 C1976 0.960 . S
H1962 C1976 0.960 . S
H1963 C1976 0.960 . S
C1964 H1956 0.929 . S
C1964 C1965 1.377 . S
C1964 C1966 1.384 . S
C1965 C1964 1.377 . S
C1965 C1971 1.390 . S
C1966 H1957 0.930 . S
C1966 C1964 1.384 . S
C1966 C1967 1.372 . S
C1967 C1966 1.372 . S
C1967 C1968 1.400 . S
C1967 C1972 1.490 . S
C1968 H1958 0.930 . S
C1968 C1967 1.400 . S
C1968 C1971 1.386 . S
H1969 C1985 0.930 . S
H1970 C1986 0.931 . S
C1971 H1959 0.929 . S
C1971 C1965 1.390 . S
C1971 C1968 1.386 . S
C1972 C1967 1.490 . S
C1972 C1974 1.395 . S
C1972 C1975 1.403 . S
H1973 C1979 0.930 . S
C1974 H1960 0.930 . S
C1974 C1972 1.395 . S
C1974 C1977 1.403 . S
C1975 C1972 1.403 . S
C1975 C1976 1.524 . S
C1975 C1979 1.400 . S
C1976 H1961 0.960 . S
C1976 H1962 0.960 . S
C1976 H1963 0.960 . S
C1976 C1975 1.524 . S
C1977 C1974 1.403 . S
C1977 C1978 1.392 . S
C1977 C1981 1.495 . S
C1978 C1977 1.392 . S
C1978 C1979 1.385 . S
C1978 C1980 1.478 . S
C1979 H1973 0.930 . S
C1979 C1975 1.400 . S
C1979 C1978 1.385 . S
C1980 C1978 1.478 . S
C1980 C1982 1.381 . S
C1980 C1986 1.383 . S
C1981 C1977 1.495 . S
C1981 H1987 0.959 . S
C1981 H1988 0.961 . S
C1981 H1989 0.960 . S
C1982 C1980 1.381 . S
C1982 C1983 1.394 . S
C1982 H1990 0.930 . S
C1983 C1982 1.394 . S
C1983 C1984 1.383 . S
C1983 H1991 0.929 . S
C1984 C1983 1.383 . S
C1984 C1985 1.377 . S
C1985 H1969 0.930 . S
C1985 C1984 1.377 . S
C1985 C1986 1.379 . S
C1986 H1970 0.931 . S
C1986 C1980 1.383 . S
C1986 C1985 1.379 . S
H1987 C1981 0.959 . S
H1988 C1981 0.961 . S
H1989 C1981 0.960 . S
H1990 C1982 0.930 . S
H1991 C1983 0.929 . S
H1992 C2000 0.929 . S
H1993 C2002 0.930 . S
H1994 C2004 0.930 . S
H1995 C2007 0.929 . S
H1996 C2010 0.930 . S
H1997 C2012 0.960 . S
H1998 C2012 0.960 . S
H1999 C2012 0.960 . S
C2000 H1992 0.929 . S
C2000 C2001 1.377 . S
C2000 C2002 1.384 . S
C2001 C2000 1.377 . S
C2001 C2007 1.390 . S
C2002 H1993 0.930 . S
C2002 C2000 1.384 . S
C2002 C2003 1.372 . S
C2003 C2002 1.372 . S
C2003 C2004 1.400 . S
C2003 C2008 1.490 . S
C2004 H1994 0.930 . S
C2004 C2003 1.400 . S
C2004 C2007 1.386 . S
H2005 C2021 0.930 . S
H2006 C2022 0.931 . S
C2007 H1995 0.929 . S
C2007 C2001 1.390 . S
C2007 C2004 1.386 . S
C2008 C2003 1.490 . S
C2008 C2010 1.395 . S
C2008 C2011 1.403 . S
H2009 C2015 0.930 . S
C2010 H1996 0.930 . S
C2010 C2008 1.395 . S
C2010 C2013 1.403 . S
C2011 C2008 1.403 . S
C2011 C2012 1.524 . S
C2011 C2015 1.400 . S
C2012 H1997 0.960 . S
C2012 H1998 0.960 . S
C2012 H1999 0.960 . S
C2012 C2011 1.524 . S
C2013 C2010 1.403 . S
C2013 C2014 1.392 . S
C2013 C2017 1.495 . S
C2014 C2013 1.392 . S
C2014 C2015 1.385 . S
C2014 C2016 1.478 . S
C2015 H2009 0.930 . S
C2015 C2011 1.400 . S
C2015 C2014 1.385 . S
C2016 C2014 1.478 . S
C2016 C2018 1.381 . S
C2016 C2022 1.383 . S
C2017 C2013 1.495 . S
C2017 H2023 0.959 . S
C2017 H2024 0.961 . S
C2017 H2025 0.960 . S
C2018 C2016 1.381 . S
C2018 C2019 1.394 . S
C2018 H2026 0.930 . S
C2019 C2018 1.394 . S
C2019 C2020 1.383 . S
C2019 H2027 0.929 . S
C2020 C2019 1.383 . S
C2020 C2021 1.377 . S
C2021 H2005 0.930 . S
C2021 C2020 1.377 . S
C2021 C2022 1.379 . S
C2022 H2006 0.931 . S
C2022 C2016 1.383 . S
C2022 C2021 1.379 . S
H2023 C2017 0.959 . S
H2024 C2017 0.961 . S
H2025 C2017 0.960 . S
H2026 C2018 0.930 . S
H2027 C2019 0.929 . S
H2028 C2036 0.929 . S
H2029 C2038 0.930 . S
H2030 C2040 0.930 . S
H2031 C2043 0.929 . S
H2032 C2046 0.930 . S
H2033 C2048 0.960 . S
H2034 C2048 0.960 . S
H2035 C2048 0.960 . S
C2036 H2028 0.929 . S
C2036 C2037 1.377 . S
C2036 C2038 1.384 . S
C2037 C2036 1.377 . S
C2037 C2043 1.390 . S
C2038 H2029 0.930 . S
C2038 C2036 1.384 . S
C2038 C2039 1.372 . S
C2039 C2038 1.372 . S
C2039 C2040 1.400 . S
C2039 C2044 1.490 . S
C2040 H2030 0.930 . S
C2040 C2039 1.400 . S
C2040 C2043 1.386 . S
H2041 C2057 0.930 . S
H2042 C2058 0.931 . S
C2043 H2031 0.929 . S
C2043 C2037 1.390 . S
C2043 C2040 1.386 . S
C2044 C2039 1.490 . S
C2044 C2046 1.395 . S
C2044 C2047 1.403 . S
H2045 C2051 0.930 . S
C2046 H2032 0.930 . S
C2046 C2044 1.395 . S
C2046 C2049 1.403 . S
C2047 C2044 1.403 . S
C2047 C2048 1.524 . S
C2047 C2051 1.400 . S
C2048 H2033 0.960 . S
C2048 H2034 0.960 . S
C2048 H2035 0.960 . S
C2048 C2047 1.524 . S
C2049 C2046 1.403 . S
C2049 C2050 1.392 . S
C2049 C2053 1.495 . S
C2050 C2049 1.392 . S
C2050 C2051 1.385 . S
C2050 C2052 1.478 . S
C2051 H2045 0.930 . S
C2051 C2047 1.400 . S
C2051 C2050 1.385 . S
C2052 C2050 1.478 . S
C2052 C2054 1.381 . S
C2052 C2058 1.383 . S
C2053 C2049 1.495 . S
C2053 H2059 0.959 . S
C2053 H2060 0.961 . S
C2053 H2061 0.960 . S
C2054 C2052 1.381 . S
C2054 C2055 1.394 . S
C2054 H2062 0.930 . S
C2055 C2054 1.394 . S
C2055 C2056 1.383 . S
C2055 H2063 0.929 . S
C2056 C2055 1.383 . S
C2056 C2057 1.377 . S
C2057 H2041 0.930 . S
C2057 C2056 1.377 . S
C2057 C2058 1.379 . S
C2058 H2042 0.931 . S
C2058 C2052 1.383 . S
C2058 C2057 1.379 . S
H2059 C2053 0.959 . S
H2060 C2053 0.961 . S
H2061 C2053 0.960 . S
H2062 C2054 0.930 . S
H2063 C2055 0.929 . S
H2064 C2072 0.929 . S
H2065 C2074 0.930 . S
H2066 C2076 0.930 . S
H2067 C2079 0.929 . S
H2068 C2082 0.930 . S
H2069 C2084 0.960 . S
H2070 C2084 0.960 . S
H2071 C2084 0.960 . S
C2072 H2064 0.929 . S
C2072 C2073 1.377 . S
C2072 C2074 1.384 . S
C2073 C2072 1.377 . S
C2073 C2079 1.390 . S
C2074 H2065 0.930 . S
C2074 C2072 1.384 . S
C2074 C2075 1.372 . S
C2075 C2074 1.372 . S
C2075 C2076 1.400 . S
C2075 C2080 1.490 . S
C2076 H2066 0.930 . S
C2076 C2075 1.400 . S
C2076 C2079 1.386 . S
H2077 C2093 0.930 . S
H2078 C2094 0.931 . S
C2079 H2067 0.929 . S
C2079 C2073 1.390 . S
C2079 C2076 1.386 . S
C2080 C2075 1.490 . S
C2080 C2082 1.395 . S
C2080 C2083 1.403 . S
H2081 C2087 0.930 . S
C2082 H2068 0.930 . S
C2082 C2080 1.395 . S
C2082 C2085 1.403 . S
C2083 C2080 1.403 . S
C2083 C2084 1.524 . S
C2083 C2087 1.400 . S
C2084 H2069 0.960 . S
C2084 H2070 0.960 . S
C2084 H2071 0.960 . S
C2084 C2083 1.524 . S
C2085 C2082 1.403 . S
C2085 C2086 1.392 . S
C2085 C2089 1.495 . S
C2086 C2085 1.392 . S
C2086 C2087 1.385 . S
C2086 C2088 1.478 . S
C2087 H2081 0.930 . S
C2087 C2083 1.400 . S
C2087 C2086 1.385 . S
C2088 C2086 1.478 . S
C2088 C2090 1.381 . S
C2088 C2094 1.383 . S
C2089 C2085 1.495 . S
C2089 H2095 0.959 . S
C2089 H2096 0.961 . S
C2089 H2097 0.960 . S
C2090 C2088 1.381 . S
C2090 C2091 1.394 . S
C2090 H2098 0.930 . S
C2091 C2090 1.394 . S
C2091 C2092 1.383 . S
C2091 H2099 0.929 . S
C2092 C2091 1.383 . S
C2092 C2093 1.377 . S
C2093 H2077 0.930 . S
C2093 C2092 1.377 . S
C2093 C2094 1.379 . S
C2094 H2078 0.931 . S
C2094 C2088 1.383 . S
C2094 C2093 1.379 . S
H2095 C2089 0.959 . S
H2096 C2089 0.961 . S
H2097 C2089 0.960 . S
H2098 C2090 0.930 . S
H2099 C2091 0.929 . S
H2100 C2108 0.929 . S
H2101 C2110 0.930 . S
H2102 C2112 0.930 . S
H2103 C2115 0.929 . S
H2104 C2118 0.930 . S
H2105 C2120 0.960 . S
H2106 C2120 0.960 . S
H2107 C2120 0.960 . S
C2108 H2100 0.929 . S
C2108 C2109 1.377 . S
C2108 C2110 1.384 . S
C2109 C2108 1.377 . S
C2109 C2115 1.390 . S
C2110 H2101 0.930 . S
C2110 C2108 1.384 . S
C2110 C2111 1.372 . S
C2111 C2110 1.372 . S
C2111 C2112 1.400 . S
C2111 C2116 1.490 . S
C2112 H2102 0.930 . S
C2112 C2111 1.400 . S
C2112 C2115 1.386 . S
H2113 C2129 0.930 . S
H2114 C2130 0.931 . S
C2115 H2103 0.929 . S
C2115 C2109 1.390 . S
C2115 C2112 1.386 . S
C2116 C2111 1.490 . S
C2116 C2118 1.395 . S
C2116 C2119 1.403 . S
H2117 C2123 0.930 . S
C2118 H2104 0.930 . S
C2118 C2116 1.395 . S
C2118 C2121 1.403 . S
C2119 C2116 1.403 . S
C2119 C2120 1.524 . S
C2119 C2123 1.400 . S
C2120 H2105 0.960 . S
C2120 H2106 0.960 . S
C2120 H2107 0.960 . S
C2120 C2119 1.524 . S
C2121 C2118 1.403 . S
C2121 C2122 1.392 . S
C2121 C2125 1.495 . S
C2122 C2121 1.392 . S
C2122 C2123 1.385 . S
C2122 C2124 1.478 . S
C2123 H2117 0.930 . S
C2123 C2119 1.400 . S
C2123 C2122 1.385 . S
C2124 C2122 1.478 . S
C2124 C2126 1.381 . S
C2124 C2130 1.383 . S
C2125 C2121 1.495 . S
C2125 H2131 0.959 . S
C2125 H2132 0.961 . S
C2125 H2133 0.960 . S
C2126 C2124 1.381 . S
C2126 C2127 1.394 . S
C2126 H2134 0.930 . S
C2127 C2126 1.394 . S
C2127 C2128 1.383 . S
C2127 H2135 0.929 . S
C2128 C2127 1.383 . S
C2128 C2129 1.377 . S
C2129 H2113 0.930 . S
C2129 C2128 1.377 . S
C2129 C2130 1.379 . S
C2130 H2114 0.931 . S
C2130 C2124 1.383 . S
C2130 C2129 1.379 . S
H2131 C2125 0.959 . S
H2132 C2125 0.961 . S
H2133 C2125 0.960 . S
H2134 C2126 0.930 . S
H2135 C2127 0.929 . S
H2136 C2144 0.929 . S
H2137 C2146 0.930 . S
H2138 C2148 0.930 . S
H2139 C2151 0.929 . S
H2140 C2154 0.930 . S
H2141 C2156 0.960 . S
H2142 C2156 0.960 . S
H2143 C2156 0.960 . S
C2144 H2136 0.929 . S
C2144 C2145 1.377 . S
C2144 C2146 1.384 . S
C2145 C2144 1.377 . S
C2145 C2151 1.390 . S
C2146 H2137 0.930 . S
C2146 C2144 1.384 . S
C2146 C2147 1.372 . S
C2147 C2146 1.372 . S
C2147 C2148 1.400 . S
C2147 C2152 1.490 . S
C2148 H2138 0.930 . S
C2148 C2147 1.400 . S
C2148 C2151 1.386 . S
H2149 C2165 0.930 . S
H2150 C2166 0.931 . S
C2151 H2139 0.929 . S
C2151 C2145 1.390 . S
C2151 C2148 1.386 . S
C2152 C2147 1.490 . S
C2152 C2154 1.395 . S
C2152 C2155 1.403 . S
H2153 C2159 0.930 . S
C2154 H2140 0.930 . S
C2154 C2152 1.395 . S
C2154 C2157 1.403 . S
C2155 C2152 1.403 . S
C2155 C2156 1.524 . S
C2155 C2159 1.400 . S
C2156 H2141 0.960 . S
C2156 H2142 0.960 . S
C2156 H2143 0.960 . S
C2156 C2155 1.524 . S
C2157 C2154 1.403 . S
C2157 C2158 1.392 . S
C2157 C2161 1.495 . S
C2158 C2157 1.392 . S
C2158 C2159 1.385 . S
C2158 C2160 1.478 . S
C2159 H2153 0.930 . S
C2159 C2155 1.400 . S
C2159 C2158 1.385 . S
C2160 C2158 1.478 . S
C2160 C2162 1.381 . S
C2160 C2166 1.383 . S
C2161 C2157 1.495 . S
C2161 H2167 0.959 . S
C2161 H2168 0.961 . S
C2161 H2169 0.960 . S
C2162 C2160 1.381 . S
C2162 C2163 1.394 . S
C2162 H2170 0.930 . S
C2163 C2162 1.394 . S
C2163 C2164 1.383 . S
C2163 H2171 0.929 . S
C2164 C2163 1.383 . S
C2164 C2165 1.377 . S
C2165 H2149 0.930 . S
C2165 C2164 1.377 . S
C2165 C2166 1.379 . S
C2166 H2150 0.931 . S
C2166 C2160 1.383 . S
C2166 C2165 1.379 . S
H2167 C2161 0.959 . S
H2168 C2161 0.961 . S
H2169 C2161 0.960 . S
H2170 C2162 0.930 . S
H2171 C2163 0.929 . S
H2172 C2180 0.929 . S
H2173 C2182 0.930 . S
H2174 C2184 0.930 . S
H2175 C2187 0.929 . S
H2176 C2190 0.930 . S
H2177 C2192 0.960 . S
H2178 C2192 0.960 . S
H2179 C2192 0.960 . S
C2180 H2172 0.929 . S
C2180 C2181 1.377 . S
C2180 C2182 1.384 . S
C2181 C2180 1.377 . S
C2181 C2187 1.390 . S
C2182 H2173 0.930 . S
C2182 C2180 1.384 . S
C2182 C2183 1.372 . S
C2183 C2182 1.372 . S
C2183 C2184 1.400 . S
C2183 C2188 1.490 . S
C2184 H2174 0.930 . S
C2184 C2183 1.400 . S
C2184 C2187 1.386 . S
H2185 C2201 0.930 . S
H2186 C2202 0.931 . S
C2187 H2175 0.929 . S
C2187 C2181 1.390 . S
C2187 C2184 1.386 . S
C2188 C2183 1.490 . S
C2188 C2190 1.395 . S
C2188 C2191 1.403 . S
H2189 C2195 0.930 . S
C2190 H2176 0.930 . S
C2190 C2188 1.395 . S
C2190 C2193 1.403 . S
C2191 C2188 1.403 . S
C2191 C2192 1.524 . S
C2191 C2195 1.400 . S
C2192 H2177 0.960 . S
C2192 H2178 0.960 . S
C2192 H2179 0.960 . S
C2192 C2191 1.524 . S
C2193 C2190 1.403 . S
C2193 C2194 1.392 . S
C2193 C2197 1.495 . S
C2194 C2193 1.392 . S
C2194 C2195 1.385 . S
C2194 C2196 1.478 . S
C2195 H2189 0.930 . S
C2195 C2191 1.400 . S
C2195 C2194 1.385 . S
C2196 C2194 1.478 . S
C2196 C2198 1.381 . S
C2196 C2202 1.383 . S
C2197 C2193 1.495 . S
C2197 H2203 0.959 . S
C2197 H2204 0.961 . S
C2197 H2205 0.960 . S
C2198 C2196 1.381 . S
C2198 C2199 1.394 . S
C2198 H2206 0.930 . S
C2199 C2198 1.394 . S
C2199 C2200 1.383 . S
C2199 H2207 0.929 . S
C2200 C2199 1.383 . S
C2200 C2201 1.377 . S
C2201 H2185 0.930 . S
C2201 C2200 1.377 . S
C2201 C2202 1.379 . S
C2202 H2186 0.931 . S
C2202 C2196 1.383 . S
C2202 C2201 1.379 . S
H2203 C2197 0.959 . S
H2204 C2197 0.961 . S
H2205 C2197 0.960 . S
H2206 C2198 0.930 . S
H2207 C2199 0.929 . S
C489 C106 1.483 . S
C508 N14 1.396 . S
C525 C16 2.181 . S
C544 C46 2.190 . S
C561 C70 0.958 . S
C580 C31 0.949 . S
C597 N104 0.657 . S
C616 C87 0.610 . S
C633 C147 0.761 . S
C652 N164 0.795 . S
C669 C151 0.967 . S
C688 C190 0.974 . S
C705 N186 0.646 . S
C724 C220 0.596 . S
C741 N126 0.371 . S
C760 N216 0.415 . S
C777 C286 1.998 . S
C796 C1 1.987 . S
C813 C327 1.451 . S
C832 N44 1.388 . S
C849 N66 0.773 . S
C868 C417 0.760 . S
C885 C250 0.981 . S
C904 C91 0.986 . S
C921 C331 0.979 . S
C940 C130 0.984 . S
C957 C421 1.999 . S
C976 C166 1.994 . S
C993 C207 1.449 . S
C1012 N374 1.362 . S
C1029 N456 0.759 . S
C1048 C237 0.785 . S
C1065 N246 0.396 . S
C1084 N396 0.322 . S
C1101 N284 0.746 . S
C1120 C267 0.745 . S
C1137 C310 0.967 . S
C1156 C271 0.971 . S
C1173 N434 1.399 . S
C1192 C346 1.490 . S
C1209 C361 0.959 . S
C1228 C460 0.968 . S
C1245 C357 1.481 . S
C1264 N6 1.380 . S
C1281 C387 2.190 . S
C1300 C27 2.167 . S
C1317 C370 0.959 . S
C1336 C61 0.954 . S
C1353 C76 0.622 . S
C1372 N336 0.614 . S
C1389 N276 0.743 . S
C1408 C136 0.765 . S
C1425 C280 0.967 . S
C1444 C181 0.963 . S
C1461 C391 0.617 . S
C1480 N194 0.689 . S
C1497 N134 0.377 . S
C1516 N404 0.526 . S
C1533 C177 2.000 . S
C1552 C10 1.992 . S
C1569 C316 1.450 . S
C1588 N366 1.410 . S
C1605 N74 0.754 . S
C1624 C226 0.772 . S
C1641 C241 0.981 . S
C1660 C340 0.980 . S
C1677 C100 0.977 . S
C1696 C121 0.966 . S
C1713 C297 1.998 . S
C1732 C430 2.002 . S
C1749 C196 1.451 . S
C1768 N36 1.408 . S
C1785 N464 0.760 . S
C1804 C406 0.762 . S
C1821 N254 0.382 . S
C1840 N224 0.330 . S
C1857 C256 0.762 . S
C1876 N156 0.738 . S
C1893 C301 0.965 . S
C1912 C160 0.959 . S
C1929 C117 1.481 . S
C1948 N426 1.365 . S
C1965 C40 0.959 . S
C1984 C451 0.952 . S
C2001 C376 2.189 . S
C2020 C436 2.183 . S
C2037 N344 0.662 . S
C2056 C477 0.654 . S
C2073 N306 0.652 . S
C2092 C400 0.610 . S
C2109 C447 2.176 . S
C2128 C57 2.191 . S
C2145 N96 0.664 . S
C2164 C466 0.636 . S
C2181 C211 0.618 . S
C2200 N314 0.641 . S
