# Generated by pormake.
# Topology unb, (4)-cn, num edge types: 1
# Building blocks:
#     Node 0, Type 0, BuildingBlock: UXUYUI_clean_sbu_0, # of connection points: 4
#     Node 1, Type 0, BuildingBlock: UXUYUI_clean_sbu_0, # of connection points: 4
#     Node 2, Type 0, BuildingBlock: UXUYUI_clean_sbu_0, # of connection points: 4
#     Node 3, Type 0, BuildingBlock: UXUYUI_clean_sbu_0, # of connection points: 4
#     Node 4, Type 0, BuildingBlock: UXUYUI_clean_sbu_0, # of connection points: 4
#     Node 5, Type 0, BuildingBlock: UXUYUI_clean_sbu_0, # of connection points: 4
#     Node 6, Type 0, BuildingBlock: UXUYUI_clean_sbu_0, # of connection points: 4
#     Node 7, Type 0, BuildingBlock: UXUYUI_clean_sbu_0, # of connection points: 4
#     Node 8, Type 0, BuildingBlock: UXUYUI_clean_sbu_0, # of connection points: 4
#     Node 9, Type 0, BuildingBlock: UXUYUI_clean_sbu_0, # of connection points: 4
#     Node 10, Type 0, BuildingBlock: UXUYUI_clean_sbu_0, # of connection points: 4
#     Node 11, Type 0, BuildingBlock: UXUYUI_clean_sbu_0, # of connection points: 4
#     Node 12, Type 0, BuildingBlock: UXUYUI_clean_sbu_0, # of connection points: 4
#     Node 13, Type 0, BuildingBlock: UXUYUI_clean_sbu_0, # of connection points: 4
#     Node 14, Type 0, BuildingBlock: UXUYUI_clean_sbu_0, # of connection points: 4
#     Node 15, Type 0, BuildingBlock: UXUYUI_clean_sbu_0, # of connection points: 4
#     Node 16, Type 0, BuildingBlock: UXUYUI_clean_sbu_0, # of connection points: 4
#     Node 17, Type 0, BuildingBlock: UXUYUI_clean_sbu_0, # of connection points: 4
#     Edge 18, Type (0, 0), BuildingBlock: UVAHIK_clean_linker_0, # of connection points: 2
#     Edge 19, Type (0, 0), BuildingBlock: UVAHIK_clean_linker_0, # of connection points: 2
#     Edge 20, Type (0, 0), BuildingBlock: UVAHIK_clean_linker_0, # of connection points: 2
#     Edge 21, Type (0, 0), BuildingBlock: UVAHIK_clean_linker_0, # of connection points: 2
#     Edge 22, Type (0, 0), BuildingBlock: UVAHIK_clean_linker_0, # of connection points: 2
#     Edge 23, Type (0, 0), BuildingBlock: UVAHIK_clean_linker_0, # of connection points: 2
#     Edge 24, Type (0, 0), BuildingBlock: UVAHIK_clean_linker_0, # of connection points: 2
#     Edge 25, Type (0, 0), BuildingBlock: UVAHIK_clean_linker_0, # of connection points: 2
#     Edge 26, Type (0, 0), BuildingBlock: UVAHIK_clean_linker_0, # of connection points: 2
#     Edge 27, Type (0, 0), BuildingBlock: UVAHIK_clean_linker_0, # of connection points: 2
#     Edge 28, Type (0, 0), BuildingBlock: UVAHIK_clean_linker_0, # of connection points: 2
#     Edge 29, Type (0, 0), BuildingBlock: UVAHIK_clean_linker_0, # of connection points: 2
#     Edge 30, Type (0, 0), BuildingBlock: UVAHIK_clean_linker_0, # of connection points: 2
#     Edge 31, Type (0, 0), BuildingBlock: UVAHIK_clean_linker_0, # of connection points: 2
#     Edge 32, Type (0, 0), BuildingBlock: UVAHIK_clean_linker_0, # of connection points: 2
#     Edge 33, Type (0, 0), BuildingBlock: UVAHIK_clean_linker_0, # of connection points: 2
#     Edge 34, Type (0, 0), BuildingBlock: UVAHIK_clean_linker_0, # of connection points: 2
#     Edge 35, Type (0, 0), BuildingBlock: UVAHIK_clean_linker_0, # of connection points: 2
#     Edge 36, Type (0, 0), BuildingBlock: UVAHIK_clean_linker_0, # of connection points: 2
#     Edge 37, Type (0, 0), BuildingBlock: UVAHIK_clean_linker_0, # of connection points: 2
#     Edge 38, Type (0, 0), BuildingBlock: UVAHIK_clean_linker_0, # of connection points: 2
#     Edge 39, Type (0, 0), BuildingBlock: UVAHIK_clean_linker_0, # of connection points: 2
#     Edge 40, Type (0, 0), BuildingBlock: UVAHIK_clean_linker_0, # of connection points: 2
#     Edge 41, Type (0, 0), BuildingBlock: UVAHIK_clean_linker_0, # of connection points: 2
#     Edge 42, Type (0, 0), BuildingBlock: UVAHIK_clean_linker_0, # of connection points: 2
#     Edge 43, Type (0, 0), BuildingBlock: UVAHIK_clean_linker_0, # of connection points: 2
#     Edge 44, Type (0, 0), BuildingBlock: UVAHIK_clean_linker_0, # of connection points: 2
#     Edge 45, Type (0, 0), BuildingBlock: UVAHIK_clean_linker_0, # of connection points: 2
#     Edge 46, Type (0, 0), BuildingBlock: UVAHIK_clean_linker_0, # of connection points: 2
#     Edge 47, Type (0, 0), BuildingBlock: UVAHIK_clean_linker_0, # of connection points: 2
#     Edge 48, Type (0, 0), BuildingBlock: UVAHIK_clean_linker_0, # of connection points: 2
#     Edge 49, Type (0, 0), BuildingBlock: UVAHIK_clean_linker_0, # of connection points: 2
#     Edge 50, Type (0, 0), BuildingBlock: UVAHIK_clean_linker_0, # of connection points: 2
#     Edge 51, Type (0, 0), BuildingBlock: UVAHIK_clean_linker_0, # of connection points: 2
#     Edge 52, Type (0, 0), BuildingBlock: UVAHIK_clean_linker_0, # of connection points: 2
#     Edge 53, Type (0, 0), BuildingBlock: UVAHIK_clean_linker_0, # of connection points: 2
# Relax obj value: 0.067
# Max RMSD: 0.057
# Mean RMSD: 0.057
data_MOF--net-unb--node1-UXUYUI_clean_sbu_0--edge1-UVAHIK_clean_linker_0
_symmetry_space_group_name_H-M    P1
_symmetry_Int_Tables_number       1
_symmetry_cell_setting            triclinic
loop_
_symmetry_equiv_pos_as_xyz
'x, y, z'
_cell_length_a     118.49048
_cell_length_b     118.47632
_cell_length_c     41.802831
_cell_angle_alpha  89.974624
_cell_angle_beta   90.005801
_cell_angle_gamma 119.97887
loop_
_atom_site_label
_atom_site_type_symbol
_atom_site_fract_x
_atom_site_fract_y
_atom_site_fract_z
_atom_type_partial_charge
Li0 Li 0.13687 0.26356 0.11635 0.0
Li1 Li 0.1402 0.24864 0.07996 0.0
Li2 Li 0.13896 0.26677 0.05939 0.0
Li3 Li 0.11935 0.24833 0.07783 0.0
C4 C 0.16274 0.27895 0.08139 0.0
N5 N 0.18375 0.30257 0.06331 0.0
C6 C 0.17238 0.27931 0.06145 0.0
C7 C 0.16383 0.29061 0.09227 0.0
C8 C 0.18291 0.29135 0.05252 0.0
C9 C 0.17452 0.30245 0.08286 0.0
C10 C 0.13003 0.23912 0.14213 0.0
C11 C 0.12371 0.22419 0.18656 0.0
N12 N 0.13636 0.23003 0.19616 0.0
C13 C 0.14297 0.24498 0.15242 0.0
C14 C 0.12031 0.22865 0.15931 0.0
C15 C 0.14597 0.24024 0.1798 0.0
C16 C 0.13179 0.27409 0.17256 0.0
N17 N 0.14089 0.27241 0.1568 0.0
C18 C 0.15731 0.28621 0.19421 0.0
C19 C 0.15338 0.27802 0.16753 0.0
C20 C 0.14828 0.28857 0.21027 0.0
C21 C 0.13529 0.28214 0.1996 0.0
H22 H 0.12194 0.26959 0.16342 0.0
H23 H 0.16044 0.27655 0.15462 0.0
C24 C 0.15577 0.24189 0.04524 0.0
N25 N 0.14844 0.23845 0.0723 0.0
C26 C 0.16192 0.23505 0.03551 0.0
C27 C 0.15267 0.22094 0.08133 0.0
C28 C 0.14666 0.22808 0.09018 0.0
C29 C 0.16047 0.22442 0.05366 0.0
H30 H 0.1566 0.24984 0.03076 0.0
H31 H 0.14044 0.22517 0.11099 0.0
C32 C 0.12199 0.27536 0.07665 0.0
N33 N 0.11491 0.29282 0.05374 0.0
C34 C 0.11591 0.27332 0.04688 0.0
C35 C 0.12446 0.28627 0.0948 0.0
C36 C 0.11241 0.28227 0.03569 0.0
C37 C 0.1208 0.29498 0.0828 0.0
C38 C 0.12495 0.23693 0.02775 0.0
C39 C 0.12521 0.23581 0.99451 0.0
C40 C 0.11896 0.22566 0.04657 0.0
C41 C 0.11949 0.22344 0.98064 0.0
C42 C 0.11336 0.21347 0.03179 0.0
N43 N 0.11374 0.21262 0.99941 0.0
C44 C 0.14873 0.27596 0.9983 0.0
C45 C 0.14774 0.29191 0.03043 0.0
C46 C 0.15344 0.28456 0.97248 0.0
N47 N 0.14582 0.27968 0.0264 0.0
C48 C 0.15233 0.3008 0.00517 0.0
C49 C 0.15515 0.29711 0.97566 0.0
H50 H 0.14734 0.26626 0.99593 0.0
H51 H 0.14576 0.29483 0.05322 0.0
C52 C 0.09192 0.23214 0.0924 0.0
N53 N 0.10102 0.23817 0.06911 0.0
C54 C 0.07864 0.22513 0.08452 0.0
C55 C 0.08443 0.23056 0.02899 0.0
C56 C 0.0975 0.23748 0.03791 0.0
C57 C 0.07473 0.22434 0.05238 0.0
H58 H 0.09496 0.23287 0.11708 0.0
H59 H 0.10486 0.24237 0.01977 0.0
O60 O 0.15221 0.26727 0.08993 0.0
O61 O 0.12679 0.24363 0.11557 0.0
O62 O 0.12558 0.26679 0.08797 0.0
O63 O 0.1306 0.24903 0.04156 0.0
H64 H 0.17176 0.27041 0.05295 0.0
H65 H 0.15635 0.29054 0.10726 0.0
H66 H 0.19042 0.29176 0.03701 0.0
H67 H 0.17543 0.31155 0.09091 0.0
H68 H 0.11629 0.21609 0.20009 0.0
H69 H 0.15063 0.25299 0.13926 0.0
H70 H 0.11025 0.22403 0.15164 0.0
H71 H 0.15595 0.24466 0.18799 0.0
H72 H 0.16738 0.29082 0.20188 0.0
H73 H 0.12803 0.28375 0.21116 0.0
H74 H 0.16752 0.23789 0.01355 0.0
H75 H 0.15125 0.21281 0.09607 0.0
H76 H 0.11414 0.26507 0.0323 0.0
H77 H 0.12925 0.28804 0.11779 0.0
H78 H 0.10777 0.28086 0.01261 0.0
H79 H 0.12268 0.30348 0.09654 0.0
H80 H 0.12977 0.24441 0.97955 0.0
H81 H 0.11862 0.22626 0.07229 0.0
H82 H 0.11963 0.22244 0.95494 0.0
H83 H 0.10871 0.20469 0.04608 0.0
H84 H 0.15547 0.28133 0.95008 0.0
H85 H 0.15375 0.31048 0.00875 0.0
H86 H 0.07152 0.2206 0.10344 0.0
H87 H 0.08199 0.23004 0.00387 0.0
Li88 Li 0.76347 0.89299 0.08341 0.0
Li89 Li 0.74702 0.87516 0.11985 0.0
Li90 Li 0.76205 0.87138 0.08178 0.0
Li91 Li 0.74479 0.87446 0.06266 0.0
C92 C 0.77496 0.89112 0.14308 0.0
N93 N 0.79137 0.90628 0.19164 0.0
C94 C 0.77073 0.89698 0.16539 0.0
C95 C 0.7875 0.89284 0.14569 0.0
C96 C 0.77918 0.90464 0.1897 0.0
C97 C 0.79566 0.90059 0.17034 0.0
C98 C 0.73714 0.89171 0.07968 0.0
C99 C 0.71768 0.89337 0.08175 0.0
N100 N 0.72089 0.89965 0.05308 0.0
C101 C 0.74026 0.8982 0.05029 0.0
C102 C 0.72576 0.88928 0.0956 0.0
C103 C 0.73191 0.90212 0.03721 0.0
C104 C 0.7764 0.91556 0.04584 0.0
N105 N 0.7746 0.91159 0.07692 0.0
C106 C 0.78742 0.93379 0.09427 0.0
C107 C 0.77986 0.92044 0.10108 0.0
C108 C 0.78963 0.93802 0.0623 0.0
C109 C 0.78401 0.9287 0.03798 0.0
H110 H 0.77175 0.90855 0.02691 0.0
H111 H 0.77809 0.91724 0.12562 0.0
C112 C 0.73312 0.85802 0.17059 0.0
N113 N 0.73759 0.87033 0.15951 0.0
C114 C 0.7247 0.8534 0.19689 0.0
C115 C 0.72607 0.87439 0.20083 0.0
C116 C 0.73433 0.87855 0.1742 0.0
C117 C 0.72094 0.86157 0.21214 0.0
H118 H 0.73575 0.85163 0.15829 0.0
H119 H 0.73784 0.88823 0.16468 0.0
C120 C 0.7748 0.88775 0.03187 0.0
N121 N 0.79929 0.89848 0.00461 0.0
C122 C 0.77619 0.88818 0.99859 0.0
C123 C 0.78589 0.89281 0.05121 0.0
C124 C 0.78864 0.89364 0.98528 0.0
C125 C 0.79817 0.89819 0.03701 0.0
C126 C 0.73215 0.84995 0.07903 0.0
C127 C 0.73303 0.84266 0.05388 0.0
C128 C 0.71993 0.84682 0.09112 0.0
C129 C 0.72162 0.83241 0.04099 0.0
C130 C 0.70875 0.83648 0.07763 0.0
N131 N 0.70982 0.82956 0.05303 0.0
C132 C 0.77785 0.85971 0.097 0.0
C133 C 0.77088 0.8583 0.04331 0.0
C134 C 0.78452 0.8531 0.08916 0.0
N135 N 0.77123 0.86218 0.07406 0.0
C136 C 0.77747 0.85181 0.0344 0.0
C137 C 0.7844 0.84904 0.05741 0.0
H138 H 0.77793 0.86285 0.12133 0.0
H139 H 0.76552 0.86036 0.02553 0.0
C140 C 0.71967 0.86609 0.03389 0.0
N141 N 0.73208 0.8686 0.02921 0.0
C142 C 0.71083 0.86183 0.00852 0.0
C143 C 0.72752 0.8623 0.97438 0.0
C144 C 0.73607 0.86667 1.00029 0.0
C145 C 0.71475 0.8599 0.9783 0.0
H146 H 0.71657 0.86724 0.05735 0.0
H147 H 0.74587 0.86842 0.99744 0.0
O148 O 0.76675 0.88337 0.11945 0.0
O149 O 0.74514 0.88772 0.09277 0.0
O150 O 0.76261 0.88236 0.0452 0.0
O151 O 0.74319 0.86023 0.09142 0.0
H152 H 0.76112 0.89582 0.1636 0.0
H153 H 0.79088 0.88822 0.12895 0.0
H154 H 0.77605 0.90932 0.20697 0.0
H155 H 0.80539 0.90204 0.17258 0.0
H156 H 0.70882 0.89151 0.09374 0.0
H157 H 0.7489 0.89997 0.03742 0.0
H158 H 0.72312 0.88416 0.11821 0.0
H159 H 0.73417 0.90708 0.01438 0.0
H160 H 0.79153 0.9407 0.11374 0.0
H161 H 0.7852 0.93157 0.01304 0.0
H162 H 0.72106 0.84349 0.20498 0.0
H163 H 0.72332 0.88097 0.21167 0.0
H164 H 0.76774 0.88438 0.98316 0.0
H165 H 0.78505 0.89266 0.07688 0.0
H166 H 0.78984 0.89403 0.95958 0.0
H167 H 0.80682 0.90214 0.05176 0.0
H168 H 0.74241 0.84497 0.04419 0.0
H169 H 0.71907 0.85246 0.11033 0.0
H170 H 0.72215 0.82674 0.02137 0.0
H171 H 0.69923 0.83401 0.08659 0.0
H172 H 0.78959 0.85107 0.10783 0.0
H173 H 0.77726 0.84916 0.00953 0.0
H174 H 0.70098 0.85986 0.01261 0.0
H175 H 0.73093 0.86095 0.95143 0.0
Li176 Li 0.13536 0.87476 0.11542 0.0
Li177 Li 0.11751 0.8713 0.08206 0.0
Li178 Li 0.13687 0.87339 0.05763 0.0
Li179 Li 0.13698 0.89254 0.0814 0.0
C180 C 0.12842 0.85037 0.08952 0.0
N181 N 0.13579 0.8317 0.0947 0.0
C182 C 0.11907 0.83715 0.08782 0.0
C183 C 0.14154 0.8541 0.09377 0.0
C184 C 0.12298 0.82786 0.09051 0.0
C185 C 0.14506 0.84451 0.09637 0.0
C186 C 0.11708 0.87928 0.14474 0.0
C187 C 0.10852 0.883 0.19344 0.0
N188 N 0.10126 0.86991 0.19808 0.0
C189 C 0.10952 0.86586 0.14997 0.0
C190 C 0.11658 0.88793 0.16662 0.0
C191 C 0.10159 0.86132 0.17708 0.0
C192 C 0.1518 0.87918 0.16955 0.0
N193 N 0.1405 0.87034 0.15513 0.0
C194 C 0.13773 0.85397 0.193 0.0
C195 C 0.13331 0.85802 0.16683 0.0
C196 C 0.14955 0.86276 0.20776 0.0
C197 C 0.15648 0.87561 0.19622 0.0
H198 H 0.15736 0.88891 0.15979 0.0
H199 H 0.12431 0.85115 0.15521 0.0
C200 C 0.09408 0.85123 0.05773 0.0
N201 N 0.09897 0.86213 0.07609 0.0
C202 C 0.08098 0.84472 0.04873 0.0
C203 C 0.0781 0.86066 0.07809 0.0
C204 C 0.09125 0.86682 0.08678 0.0
C205 C 0.07284 0.84953 0.0585 0.0
H206 H 0.1005 0.84785 0.04916 0.0
H207 H 0.09542 0.8756 0.10106 0.0
C208 C 0.16137 0.89542 0.07258 0.0
N209 N 0.18425 0.91334 0.04296 0.0
C210 C 0.16115 0.89942 0.04122 0.0
C211 C 0.17322 0.90054 0.08887 0.0
C212 C 0.17282 0.90849 0.02668 0.0
C213 C 0.18468 0.90958 0.07347 0.0
C214 C 0.11727 0.88275 0.02863 0.0
C215 C 0.11205 0.87592 1.00016 0.0
C216 C 0.11216 0.8901 0.04184 0.0
C217 C 0.10172 0.87647 0.98554 0.0
C218 C 0.10186 0.89042 0.02646 0.0
N219 N 0.09688 0.88363 0.99889 0.0
C220 C 0.13447 0.85959 1.00143 0.0
C221 C 0.15579 0.86987 0.0231 0.0
C222 C 0.1384 0.85488 0.97569 0.0
N223 N 0.14321 0.86718 0.02404 0.0
C224 C 0.16015 0.86536 0.9978 0.0
C225 C 0.15144 0.85787 0.97346 0.0
H226 H 0.12442 0.85718 0.00347 0.0
H227 H 0.16246 0.87546 0.04202 0.0
C228 C 0.15237 0.91962 0.09835 0.0
N229 N 0.14474 0.91106 0.07538 0.0
C230 C 0.15896 0.93306 0.09224 0.0
C231 C 0.14952 0.92858 0.03931 0.0
C232 C 0.14337 0.9153 0.04617 0.0
C233 C 0.15751 0.93765 0.06238 0.0
H234 H 0.15358 0.916 0.12111 0.0
H235 H 0.13781 0.90838 0.0277 0.0
O236 O 0.12467 0.85954 0.08677 0.0
O237 O 0.12496 0.88402 0.11844 0.0
O238 O 0.15005 0.88673 0.08761 0.0
O239 O 0.12714 0.88207 0.04391 0.0
H240 H 0.10888 0.83411 0.08449 0.0
H241 H 0.14893 0.86427 0.0952 0.0
H242 H 0.11584 0.81759 0.08927 0.0
H243 H 0.15517 0.84726 0.09972 0.0
H244 H 0.10804 0.88959 0.21058 0.0
H245 H 0.10972 0.859 0.13329 0.0
H246 H 0.12237 0.89835 0.16289 0.0
H247 H 0.0957 0.85096 0.18141 0.0
H248 H 0.13202 0.84403 0.20142 0.0
H249 H 0.16566 0.88266 0.20691 0.0
H250 H 0.07739 0.83628 0.03328 0.0
H251 H 0.07213 0.86464 0.08632 0.0
H252 H 0.15208 0.89557 0.0282 0.0
H253 H 0.17356 0.89756 0.11317 0.0
H254 H 0.17279 0.91168 1.00244 0.0
H255 H 0.19393 0.91362 0.08579 0.0
H256 H 0.1159 0.87026 0.98941 0.0
H257 H 0.11598 0.89533 0.06406 0.0
H258 H 0.09756 0.87119 0.96357 0.0
H259 H 0.09776 0.89599 0.03655 0.0
H260 H 0.13134 0.84913 0.95749 0.0
H261 H 0.1702 0.86761 0.99749 0.0
H262 H 0.16512 0.93978 0.11055 0.0
H263 H 0.1484 0.93171 0.01576 0.0
Li264 Li 0.25101 0.11505 0.92423 0.0
Li265 Li 0.26836 0.13494 0.94885 0.0
Li266 Li 0.24916 0.13447 0.92547 0.0
Li267 Li 0.26601 0.13411 0.89142 0.0
C268 C 0.24309 0.11478 0.98334 0.0
N269 N 0.22928 0.09409 0.02454 0.0
C270 C 0.24953 0.11223 0.00785 0.0
C271 C 0.22961 0.10683 0.97986 0.0
C272 C 0.24237 0.10173 0.02845 0.0
C273 C 0.22281 0.0964 1.00088 0.0
C274 C 0.27786 0.12035 0.90049 0.0
C275 C 0.2984 0.12708 0.8743 0.0
N276 N 0.29319 0.11519 0.86006 0.0
C277 C 0.2727 0.1082 0.8856 0.0
C278 C 0.29082 0.12987 0.89486 0.0
C279 C 0.28061 0.10578 0.86527 0.0
C280 C 0.23009 0.08854 0.91639 0.0
N281 N 0.24197 0.0965 0.92952 0.0
C282 C 0.24098 0.07872 0.95898 0.0
C283 C 0.24759 0.0918 0.9499 0.0
C284 C 0.2285 0.07024 0.9466 0.0
C285 C 0.22318 0.0753 0.92452 0.0
H286 H 0.22583 0.09252 0.90028 0.0
H287 H 0.25702 0.09839 0.96014 0.0
C288 C 0.27664 0.14601 0.00967 0.0
N289 N 0.28009 0.14142 0.9839 0.0
C290 C 0.28483 0.15073 0.03623 0.0
C291 C 0.30002 0.14601 0.00905 0.0
C292 C 0.29147 0.14127 0.98314 0.0
C293 C 0.2967 0.15076 0.03608 0.0
H294 H 0.26748 0.14594 0.0096 0.0
H295 H 0.29388 0.1374 0.96253 0.0
C296 C 0.23758 0.12444 0.87138 0.0
N297 N 0.21942 0.12848 0.83986 0.0
C298 C 0.24134 0.13293 0.84528 0.0
C299 C 0.22459 0.11794 0.88136 0.0
C300 C 0.232 0.13485 0.82966 0.0
C301 C 0.21555 0.12014 0.86515 0.0
C302 C 0.2759 0.15912 0.93663 0.0
C303 C 0.27082 0.16506 0.95624 0.0
C304 C 0.28938 0.16424 0.9351 0.0
C305 C 0.27933 0.17603 0.97407 0.0
C306 C 0.29756 0.1752 0.95337 0.0
N307 N 0.29241 0.18082 0.97231 0.0
C308 C 0.23012 0.13794 0.95755 0.0
C309 C 0.23849 0.15086 0.91091 0.0
C310 C 0.22271 0.1438 0.96465 0.0
N311 N 0.23782 0.14153 0.93111 0.0
C312 C 0.23126 0.15702 0.91714 0.0
C313 C 0.22332 0.1536 0.94454 0.0
H314 H 0.23006 0.13085 0.97385 0.0
H315 H 0.24493 0.15377 0.89044 0.0
C316 C 0.27469 0.13131 0.82923 0.0
N317 N 0.27581 0.13995 0.85217 0.0
C318 C 0.28311 0.13548 0.80286 0.0
C319 C 0.29312 0.15747 0.82318 0.0
C320 C 0.28456 0.15287 0.84915 0.0
C321 C 0.29269 0.1487 0.79989 0.0
H322 H 0.26758 0.12109 0.83201 0.0
H323 H 0.28509 0.15961 0.86726 0.0
O324 O 0.24996 0.12483 0.96244 0.0
O325 O 0.27023 0.12295 0.92022 0.0
O326 O 0.24662 0.12263 0.88734 0.0
O327 O 0.26771 0.14817 0.91961 0.0
H328 H 0.25996 0.11816 0.01071 0.0
H329 H 0.22448 0.10854 0.96076 0.0
H330 H 0.24724 0.09961 0.04742 0.0
H331 H 0.2124 0.09011 0.99828 0.0
H332 H 0.30841 0.13439 0.86952 0.0
H333 H 0.26267 0.10075 0.88946 0.0
H334 H 0.29492 0.1394 0.90574 0.0
H335 H 0.27674 0.09644 0.85352 0.0
H336 H 0.24546 0.07545 0.97646 0.0
H337 H 0.21371 0.06915 0.91385 0.0
H338 H 0.28198 0.1544 0.05655 0.0
H339 H 0.30901 0.14572 0.00822 0.0
H340 H 0.25137 0.13807 0.83733 0.0
H341 H 0.22155 0.11139 0.90164 0.0
H342 H 0.23477 0.14143 0.8095 0.0
H343 H 0.20548 0.11524 0.87273 0.0
H344 H 0.26042 0.16119 0.95797 0.0
H345 H 0.29348 0.15965 0.92045 0.0
H346 H 0.27553 0.1807 0.98943 0.0
H347 H 0.308 0.1792 0.95261 0.0
H348 H 0.21697 0.14104 0.98637 0.0
H349 H 0.23199 0.16447 0.90089 0.0
H350 H 0.28242 0.12833 0.78563 0.0
H351 H 0.30008 0.16779 0.82154 0.0
Li352 Li 0.89582 0.13643 0.92575 0.0
Li353 Li 0.87672 0.13565 0.94664 0.0
Li354 Li 0.87465 0.11607 0.92549 0.0
Li355 Li 0.87771 0.13446 0.88949 0.0
C356 C 0.89096 0.11962 0.97562 0.0
N357 N 0.90252 0.10646 1.00182 0.0
C358 C 0.89167 0.1187 0.00882 0.0
C359 C 0.89615 0.11385 0.95575 0.0
C360 C 0.89755 0.11201 0.02159 0.0
C361 C 0.90194 0.10724 0.96946 0.0
C362 C 0.89314 0.16111 0.92734 0.0
C363 C 0.89323 0.18135 0.92009 0.0
N364 N 0.89996 0.18587 0.94792 0.0
C365 C 0.90011 0.16597 0.95579 0.0
C366 C 0.88969 0.16886 0.90926 0.0
C367 C 0.90344 0.1785 0.96583 0.0
C368 C 0.92296 0.14665 0.90891 0.0
N369 N 0.91421 0.14424 0.93272 0.0
C370 C 0.93124 0.15294 0.97177 0.0
C371 C 0.91813 0.14736 0.96362 0.0
C372 C 0.94053 0.15555 0.94787 0.0
C373 C 0.93629 0.15242 0.91599 0.0
H374 H 0.91961 0.14411 0.8845 0.0
H375 H 0.91104 0.14551 0.9821 0.0
C376 C 0.86785 0.1349 0.0087 0.0
N377 N 0.87059 0.14181 0.98104 0.0
C378 C 0.86314 0.13843 0.03518 0.0
C379 C 0.86402 0.15607 0.00418 0.0
C380 C 0.86863 0.15214 0.97824 0.0
C381 C 0.86123 0.14919 0.03319 0.0
H382 H 0.86917 0.12652 0.01003 0.0
H383 H 0.87046 0.15726 0.9558 0.0
C384 C 0.88373 0.11623 0.86234 0.0
N385 N 0.87643 0.10029 0.80915 0.0
C386 C 0.871 0.11061 0.85063 0.0
C387 C 0.89274 0.11375 0.84702 0.0
C388 C 0.8675 0.10259 0.82369 0.0
C389 C 0.88886 0.10565 0.82017 0.0
C390 C 0.85236 0.12348 0.92979 0.0
C391 C 0.84387 0.11385 0.95102 0.0
C392 C 0.85024 0.13374 0.92174 0.0
C393 C 0.83348 0.11471 0.96411 0.0
C394 C 0.83972 0.13423 0.93529 0.0
N395 N 0.83163 0.1248 0.95605 0.0
C396 C 0.86126 0.09438 0.96386 0.0
C397 C 0.86527 0.08837 0.91296 0.0
C398 C 0.85515 0.08147 0.9742 0.0
N399 N 0.86614 0.09762 0.93371 0.0
C400 C 0.85908 0.07525 0.92222 0.0
C401 C 0.8539 0.07162 0.95328 0.0
H402 H 0.86227 0.10192 0.98014 0.0
H403 H 0.86942 0.09108 0.88933 0.0
C404 C 0.8826 0.14903 0.83132 0.0
N405 N 0.87324 0.13957 0.84997 0.0
C406 C 0.8791 0.15384 0.80475 0.0
C407 C 0.85646 0.13892 0.81686 0.0
C408 C 0.86039 0.13426 0.84274 0.0
C409 C 0.86585 0.14898 0.79779 0.0
H410 H 0.89275 0.15314 0.83768 0.0
H411 H 0.85312 0.12664 0.85766 0.0
O412 O 0.88517 0.12615 0.9629 0.0
O413 O 0.88975 0.14887 0.91706 0.0
O414 O 0.88746 0.12425 0.88843 0.0
O415 O 0.86276 0.12297 0.91724 0.0
H416 H 0.88774 0.12314 0.02456 0.0
H417 H 0.89573 0.11443 0.93003 0.0
H418 H 0.89817 0.11122 0.04724 0.0
H419 H 0.90599 0.10272 0.95436 0.0
H420 H 0.89059 0.18744 0.90641 0.0
H421 H 0.90273 0.16006 0.9702 0.0
H422 H 0.88427 0.16522 0.88722 0.0
H423 H 0.90877 0.18236 0.9879 0.0
H424 H 0.9341 0.1554 0.99654 0.0
H425 H 0.94317 0.15426 0.89686 0.0
H426 H 0.86085 0.13266 0.05682 0.0
H427 H 0.86276 0.16446 1.00155 0.0
H428 H 0.86385 0.11229 0.86239 0.0
H429 H 0.90264 0.11805 0.85581 0.0
H430 H 0.85768 0.09815 0.81441 0.0
H431 H 0.89573 0.10363 0.80808 0.0
H432 H 0.8453 0.10582 0.95739 0.0
H433 H 0.85683 0.1414 0.90578 0.0
H434 H 0.82687 0.10735 0.98067 0.0
H435 H 0.83804 0.14217 0.92948 0.0
H436 H 0.85165 0.07929 0.9986 0.0
H437 H 0.8583 0.06804 0.9051 0.0
H438 H 0.88662 0.16163 0.79061 0.0
H439 H 0.84616 0.13481 0.81201 0.0
Li440 Li 0.87506 0.76127 0.92438 0.0
Li441 Li 0.87785 0.74322 0.94406 0.0
Li442 Li 0.89567 0.76133 0.92032 0.0
Li443 Li 0.87772 0.7452 0.88624 0.0
C444 C 0.89459 0.77032 0.98001 0.0
N445 N 0.91182 0.78872 0.02256 0.0
C446 C 0.90184 0.76721 1.00092 0.0
C447 C 0.896 0.78275 0.98102 0.0
C448 C 0.91054 0.77666 0.02215 0.0
C449 C 0.90478 0.79193 1.00264 0.0
C450 C 0.85296 0.73139 0.92955 0.0
C451 C 0.83842 0.70815 0.93153 0.0
N452 N 0.83224 0.70975 0.95706 0.0
C453 C 0.84643 0.73281 0.95569 0.0
C454 C 0.84892 0.71897 0.91728 0.0
C455 C 0.836 0.72175 0.96931 0.0
C456 C 0.86314 0.77682 0.91009 0.0
N457 N 0.86624 0.77071 0.93309 0.0
C458 C 0.85698 0.77782 0.97365 0.0
C459 C 0.86319 0.77099 0.96431 0.0
C460 C 0.8537 0.78432 0.95059 0.0
C461 C 0.85676 0.78368 0.91836 0.0
H462 H 0.86566 0.77641 0.88541 0.0
H463 H 0.86569 0.76596 0.98207 0.0
C464 C 0.86812 0.71814 0.97416 0.0
N465 N 0.87219 0.73098 0.97866 0.0
C466 C 0.86402 0.70957 1.00009 0.0
C467 C 0.8679 0.72748 0.03472 0.0
C468 C 0.87198 0.7357 0.00814 0.0
C469 C 0.86393 0.71424 0.03094 0.0
H470 H 0.86793 0.71448 0.95042 0.0
H471 H 0.87484 0.74584 0.01101 0.0
C472 C 0.89658 0.77545 0.8716 0.0
N473 N 0.91826 0.79669 0.84596 0.0
C474 C 0.90472 0.77361 0.85069 0.0
C475 C 0.89939 0.78806 0.87935 0.0
C476 C 0.91566 0.78449 0.83803 0.0
C477 C 0.91041 0.79869 0.86614 0.0
C478 C 0.89281 0.73363 0.92375 0.0
C479 C 0.90056 0.73614 0.95098 0.0
C480 C 0.88783 0.72163 0.9082 0.0
C481 C 0.90306 0.72654 0.96247 0.0
C482 C 0.89057 0.71228 0.92041 0.0
N483 N 0.89805 0.7149 0.94709 0.0
C484 C 0.92004 0.78499 0.93256 0.0
C485 C 0.92181 0.76672 0.9173 0.0
C486 C 0.93335 0.79207 0.93967 0.0
N487 N 0.91443 0.77236 0.92291 0.0
C488 C 0.93516 0.77346 0.9238 0.0
C489 C 0.94106 0.78618 0.93621 0.0
H490 H 0.91416 0.7895 0.93578 0.0
H491 H 0.91727 0.75682 0.90859 0.0
C492 C 0.85994 0.73102 0.83652 0.0
N493 N 0.87236 0.73566 0.84693 0.0
C494 C 0.85525 0.72263 0.81019 0.0
C495 C 0.87635 0.72433 0.80505 0.0
C496 C 0.88064 0.7327 0.83145 0.0
C497 C 0.8634 0.71896 0.79437 0.0
H498 H 0.85355 0.73352 0.84929 0.0
H499 H 0.89045 0.73648 0.84035 0.0
O500 O 0.88594 0.76115 0.95921 0.0
O501 O 0.86341 0.74207 0.9164 0.0
O502 O 0.88602 0.76494 0.88485 0.0
O503 O 0.89026 0.74293 0.91214 0.0
H504 H 0.90072 0.75758 1.0009 0.0
H505 H 0.89059 0.78541 0.96483 0.0
H506 H 0.91624 0.77439 0.03839 0.0
H507 H 0.90604 0.80162 0.00348 0.0
H508 H 0.83524 0.69847 0.92243 0.0
H509 H 0.84948 0.74235 0.96556 0.0
H510 H 0.85398 0.71767 0.89734 0.0
H511 H 0.8309 0.7227 0.98967 0.0
H512 H 0.85464 0.7779 0.99867 0.0
H513 H 0.85443 0.7886 0.89987 0.0
H514 H 0.86106 0.69944 0.99603 0.0
H515 H 0.86768 0.73145 0.0579 0.0
H516 H 0.90267 0.76388 0.84461 0.0
H517 H 0.8932 0.78961 0.89566 0.0
H518 H 0.9221 0.78323 0.82196 0.0
H519 H 0.91276 0.80851 0.87204 0.0
H520 H 0.9046 0.74542 0.96307 0.0
H521 H 0.88176 0.71948 0.88721 0.0
H522 H 0.90899 0.72834 0.9836 0.0
H523 H 0.88671 0.70292 0.90875 0.0
H524 H 0.93738 0.80184 0.94906 0.0
H525 H 0.94074 0.76863 0.91966 0.0
H526 H 0.84528 0.71894 0.80255 0.0
H527 H 0.88297 0.72171 0.79392 0.0
Li528 Li 0.80673 0.5818 0.41237 0.0
Li529 Li 0.80365 0.597 0.44801 0.0
Li530 Li 0.78588 0.58149 0.41072 0.0
Li531 Li 0.80535 0.59972 0.3909 0.0
C532 C 0.79721 0.57302 0.47519 0.0
N533 N 0.80426 0.56481 0.52962 0.0
C534 C 0.81037 0.57817 0.48285 0.0
C535 C 0.78765 0.5637 0.49518 0.0
C536 C 0.81373 0.5739 0.51048 0.0
C537 C 0.79141 0.55967 0.5226 0.0
C538 C 0.82924 0.61258 0.41465 0.0
C539 C 0.84023 0.636 0.41929 0.0
N540 N 0.8502 0.63692 0.4012 0.0
C541 C 0.83962 0.61376 0.39623 0.0
C542 C 0.82955 0.62379 0.42634 0.0
C543 C 0.85011 0.62615 0.38964 0.0
C544 C 0.82351 0.57596 0.3802 0.0
N545 N 0.81499 0.57164 0.40508 0.0
C546 C 0.8181 0.55331 0.41211 0.0
C547 C 0.81209 0.56046 0.42091 0.0
C548 C 0.82713 0.5577 0.38678 0.0
C549 C 0.82979 0.5692 0.3708 0.0
H550 H 0.82517 0.58452 0.3671 0.0
H551 H 0.80495 0.55695 0.43991 0.0
C552 C 0.79947 0.60908 0.50235 0.0
N553 N 0.80795 0.60605 0.48824 0.0
C554 C 0.80329 0.6173 0.52908 0.0
C555 C 0.82431 0.61867 0.52704 0.0
C556 C 0.82009 0.61045 0.50041 0.0
C557 C 0.81598 0.62245 0.54139 0.0
H558 H 0.78989 0.60552 0.49208 0.0
H559 H 0.8267 0.60798 0.48868 0.0
C560 C 0.79099 0.56948 0.36126 0.0
N561 N 0.77938 0.5448 0.33478 0.0
C562 C 0.79085 0.56792 0.32809 0.0
C563 C 0.78519 0.55845 0.38095 0.0
C564 C 0.78493 0.55537 0.31517 0.0
C565 C 0.77938 0.54608 0.36711 0.0
C566 C 0.789 0.60876 0.40697 0.0
C567 C 0.78269 0.60625 0.37741 0.0
C568 C 0.79213 0.62024 0.42338 0.0
C569 C 0.77966 0.61531 0.36464 0.0
C570 C 0.78892 0.62905 0.40983 0.0
N571 N 0.78281 0.62643 0.38099 0.0
C572 C 0.75874 0.56527 0.42742 0.0
C573 C 0.7635 0.56982 0.37231 0.0
C574 C 0.74539 0.55778 0.42066 0.0
N575 N 0.76747 0.57109 0.40328 0.0
C576 C 0.75034 0.56237 0.36448 0.0
C577 C 0.74106 0.55619 0.38875 0.0
H578 H 0.76214 0.56645 0.45187 0.0
H579 H 0.77058 0.57463 0.35351 0.0
C580 C 0.81398 0.60785 0.32869 0.0
N581 N 0.81209 0.61226 0.35705 0.0
C582 C 0.81853 0.61606 0.30215 0.0
C583 C 0.81954 0.6334 0.33469 0.0
C584 C 0.81493 0.62482 0.36059 0.0
C585 C 0.82127 0.629 0.3049 0.0
H586 H 0.81198 0.59793 0.32672 0.0
H587 H 0.81359 0.62822 0.38344 0.0
O588 O 0.79363 0.5771 0.4484 0.0
O589 O 0.81877 0.60054 0.42101 0.0
O590 O 0.7968 0.58176 0.37415 0.0
O591 O 0.79213 0.60005 0.4198 0.0
H592 H 0.81791 0.58531 0.46754 0.0
H593 H 0.77742 0.55963 0.48955 0.0
H594 H 0.82387 0.57779 0.51668 0.0
H595 H 0.78411 0.55246 0.5383 0.0
H596 H 0.84055 0.64475 0.428 0.0
H597 H 0.83962 0.60523 0.38715 0.0
H598 H 0.82151 0.62311 0.44012 0.0
H599 H 0.85819 0.6272 0.37535 0.0
H600 H 0.81573 0.54446 0.42499 0.0
H601 H 0.83641 0.57276 0.35062 0.0
H602 H 0.79656 0.62001 0.53914 0.0
H603 H 0.83409 0.6222 0.53596 0.0
H604 H 0.7952 0.57631 0.31241 0.0
H605 H 0.78512 0.55938 0.40662 0.0
H606 H 0.78475 0.55404 0.28954 0.0
H607 H 0.77488 0.53748 0.38208 0.0
H608 H 0.78038 0.59752 0.3642 0.0
H609 H 0.79711 0.62239 0.44617 0.0
H610 H 0.77485 0.61353 0.34169 0.0
H611 H 0.79132 0.63799 0.42221 0.0
H612 H 0.73855 0.55314 0.44009 0.0
H613 H 0.74745 0.5616 0.33964 0.0
H614 H 0.81997 0.61235 0.27977 0.0
H615 H 0.8215 0.64329 0.33782 0.0
Li616 Li 0.43031 0.22667 0.41753 0.0
Li617 Li 0.41431 0.20902 0.45253 0.0
Li618 Li 0.43001 0.20593 0.41401 0.0
Li619 Li 0.41194 0.20879 0.39476 0.0
C620 C 0.4446 0.22776 0.46613 0.0
N621 N 0.46594 0.24949 0.49128 0.0
C622 C 0.44284 0.23606 0.48665 0.0
C623 C 0.45719 0.23043 0.45853 0.0
C624 C 0.45377 0.24702 0.49906 0.0
C625 C 0.46786 0.24148 0.47149 0.0
C626 C 0.4027 0.22411 0.4153 0.0
C627 C 0.38164 0.22244 0.42042 0.0
N628 N 0.38395 0.22954 0.39317 0.0
C629 C 0.40489 0.23147 0.38748 0.0
C630 C 0.39101 0.2196 0.43204 0.0
C631 C 0.39528 0.23408 0.37662 0.0
C632 C 0.45415 0.25086 0.40469 0.0
N633 N 0.44148 0.24539 0.41401 0.0
C634 C 0.44274 0.26618 0.41164 0.0
C635 C 0.43589 0.25287 0.4187 0.0
C636 C 0.45554 0.27192 0.39986 0.0
C637 C 0.46137 0.26414 0.39732 0.0
H638 H 0.45858 0.24487 0.40199 0.0
H639 H 0.42598 0.24847 0.42715 0.0
C640 C 0.39974 0.19145 0.50233 0.0
N641 N 0.405 0.20399 0.4922 0.0
C642 C 0.39145 0.18707 0.52888 0.0
C643 C 0.39455 0.20872 0.53489 0.0
C644 C 0.40278 0.21268 0.5082 0.0
C645 C 0.38855 0.19569 0.54527 0.0
H646 H 0.4016 0.18472 0.48904 0.0
H647 H 0.40707 0.22259 0.49959 0.0
C648 C 0.43886 0.22508 0.35775 0.0
N649 N 0.45716 0.24192 0.31444 0.0
C650 C 0.43572 0.2322 0.33649 0.0
C651 C 0.45125 0.22639 0.35671 0.0
C652 C 0.44513 0.24071 0.31487 0.0
C653 C 0.46038 0.23498 0.3347 0.0
C654 C 0.39986 0.18407 0.41051 0.0
C655 C 0.40084 0.1768 0.38546 0.0
C656 C 0.38759 0.18083 0.42251 0.0
C657 C 0.3895 0.16643 0.37267 0.0
C658 C 0.37648 0.17038 0.40911 0.0
N659 N 0.37766 0.16346 0.38465 0.0
C660 C 0.4461 0.19448 0.42726 0.0
C661 C 0.43867 0.19318 0.37404 0.0
C662 C 0.45276 0.18794 0.41856 0.0
N663 N 0.43926 0.19696 0.40497 0.0
C664 C 0.44518 0.18669 0.36431 0.0
C665 C 0.45235 0.18394 0.38664 0.0
H666 H 0.44638 0.19757 0.45174 0.0
H667 H 0.43322 0.19535 0.35677 0.0
C668 C 0.38686 0.19961 0.36488 0.0
N669 N 0.39954 0.20298 0.36051 0.0
C670 C 0.37823 0.1954 0.33909 0.0
C671 C 0.39569 0.19762 0.30499 0.0
C672 C 0.404 0.20191 0.33137 0.0
C673 C 0.38262 0.1944 0.30856 0.0
H674 H 0.38337 0.20006 0.3884 0.0
H675 H 0.41401 0.20425 0.32866 0.0
O676 O 0.43405 0.21716 0.45316 0.0
O677 O 0.41202 0.22148 0.42636 0.0
O678 O 0.42975 0.21663 0.37896 0.0
O679 O 0.41082 0.19446 0.42281 0.0
H680 H 0.43314 0.23412 0.49262 0.0
H681 H 0.45868 0.22412 0.44252 0.0
H682 H 0.45257 0.25359 0.51482 0.0
H683 H 0.47766 0.24373 0.4657 0.0
H684 H 0.37252 0.21895 0.43302 0.0
H685 H 0.41393 0.23512 0.37443 0.0
H686 H 0.3891 0.21384 0.45352 0.0
H687 H 0.39684 0.23972 0.35505 0.0
H688 H 0.43796 0.27186 0.41487 0.0
H689 H 0.47122 0.26812 0.38845 0.0
H690 H 0.38697 0.17692 0.5357 0.0
H691 H 0.39279 0.21577 0.54701 0.0
H692 H 0.42611 0.23113 0.33654 0.0
H693 H 0.4539 0.22103 0.3731 0.0
H694 H 0.44285 0.24631 0.29836 0.0
H695 H 0.47004 0.23618 0.33382 0.0
H696 H 0.41025 0.17921 0.37582 0.0
H697 H 0.38664 0.18648 0.44155 0.0
H698 H 0.39011 0.16076 0.35316 0.0
H699 H 0.36692 0.16782 0.41801 0.0
H700 H 0.45804 0.18593 0.43669 0.0
H701 H 0.44476 0.18405 0.33936 0.0
H702 H 0.36827 0.19307 0.34305 0.0
H703 H 0.39945 0.19668 0.28215 0.0
Li704 Li 0.80431 0.20886 0.45045 0.0
Li705 Li 0.78531 0.20543 0.41657 0.0
Li706 Li 0.80464 0.20751 0.39151 0.0
Li707 Li 0.80556 0.2259 0.41579 0.0
C708 C 0.79217 0.18307 0.40889 0.0
N709 N 0.79173 0.16192 0.37971 0.0
C710 C 0.78095 0.17376 0.39316 0.0
C711 C 0.80313 0.18154 0.41008 0.0
C712 C 0.78093 0.16315 0.37849 0.0
C713 C 0.80273 0.17081 0.3951 0.0
C714 C 0.78603 0.21368 0.47997 0.0
C715 C 0.77515 0.21743 0.52397 0.0
N716 N 0.77031 0.20488 0.53359 0.0
C717 C 0.78095 0.20081 0.49029 0.0
C718 C 0.78312 0.22207 0.49695 0.0
C719 C 0.77303 0.19655 0.51746 0.0
C720 C 0.81657 0.2132 0.51236 0.0
N721 N 0.80972 0.2042 0.4894 0.0
C722 C 0.81162 0.18783 0.51853 0.0
C723 C 0.80691 0.19163 0.49252 0.0
C724 C 0.8191 0.19698 0.54203 0.0
C725 C 0.82133 0.20976 0.53915 0.0
H726 H 0.8185 0.22309 0.50965 0.0
H727 H 0.80109 0.18452 0.47465 0.0
C728 C 0.7634 0.19196 0.37943 0.0
N729 N 0.76677 0.19673 0.40962 0.0
C730 C 0.75042 0.18562 0.3697 0.0
C731 C 0.74438 0.18902 0.42245 0.0
C732 C 0.75758 0.1955 0.43106 0.0
C733 C 0.74061 0.18393 0.39134 0.0
H734 H 0.77088 0.19315 0.3627 0.0
H735 H 0.7604 0.19954 0.45478 0.0
C736 C 0.82977 0.23118 0.41593 0.0
N737 N 0.85224 0.25487 0.4071 0.0
C738 C 0.8345 0.23553 0.38508 0.0
C739 C 0.8365 0.23885 0.4423 0.0
C740 C 0.84587 0.24754 0.38111 0.0
C741 C 0.84784 0.2508 0.43733 0.0
C742 C 0.78802 0.22152 0.36666 0.0
C743 C 0.7862 0.22156 0.33365 0.0
C744 C 0.78278 0.22709 0.38705 0.0
C745 C 0.77917 0.22719 0.32153 0.0
C746 C 0.77582 0.23263 0.374 0.0
N747 N 0.77417 0.23257 0.34179 0.0
C748 C 0.80168 0.19562 0.33194 0.0
C749 C 0.82231 0.20289 0.35601 0.0
C750 C 0.8052 0.19079 0.3057 0.0
N751 N 0.81021 0.2015 0.35632 0.0
C752 C 0.82628 0.19828 0.33016 0.0
C753 C 0.81767 0.19213 0.30451 0.0
H754 H 0.79208 0.19457 0.3331 0.0
H755 H 0.82884 0.20753 0.37593 0.0
C756 C 0.81692 0.25315 0.43349 0.0
N757 N 0.81343 0.24441 0.40916 0.0
C758 C 0.82311 0.26655 0.42687 0.0
C759 C 0.82178 0.26158 0.37048 0.0
C760 C 0.81586 0.2484 0.37815 0.0
C761 C 0.82551 0.27086 0.39494 0.0
H762 H 0.81503 0.24974 0.45798 0.0
H763 H 0.81341 0.24133 0.35925 0.0
O764 O 0.7925 0.19371 0.42271 0.0
O765 O 0.79393 0.21821 0.45367 0.0
O766 O 0.81846 0.21961 0.42025 0.0
O767 O 0.79481 0.21592 0.37873 0.0
H768 H 0.77233 0.17467 0.39231 0.0
H769 H 0.81195 0.18872 0.42192 0.0
H770 H 0.77232 0.1559 0.36613 0.0
H771 H 0.81119 0.16959 0.39556 0.0
H772 H 0.77281 0.22382 0.53732 0.0
H773 H 0.78298 0.19412 0.47744 0.0
H774 H 0.787 0.23206 0.48928 0.0
H775 H 0.76903 0.18662 0.52569 0.0
H776 H 0.80945 0.17782 0.52023 0.0
H777 H 0.82701 0.21709 0.55688 0.0
H778 H 0.74816 0.18222 0.34524 0.0
H779 H 0.73722 0.18791 0.44012 0.0
H780 H 0.82931 0.22982 0.36436 0.0
H781 H 0.83295 0.23566 0.46631 0.0
H782 H 0.84959 0.25107 0.35736 0.0
H783 H 0.85311 0.25687 0.45751 0.0
H784 H 0.79016 0.21725 0.31758 0.0
H785 H 0.78405 0.22714 0.41266 0.0
H786 H 0.77768 0.22729 0.29603 0.0
H787 H 0.77171 0.23697 0.38949 0.0
H788 H 0.79819 0.18593 0.28675 0.0
H789 H 0.83603 0.19966 0.3301 0.0
H790 H 0.82589 0.27344 0.4464 0.0
H791 H 0.8237 0.26451 0.34561 0.0
Li792 Li 0.91744 0.4488 0.25858 0.0
Li793 Li 0.93525 0.46983 0.2784 0.0
Li794 Li 0.91644 0.4689 0.25498 0.0
Li795 Li 0.93239 0.46773 0.22036 0.0
C796 C 0.90901 0.45635 0.31867 0.0
N797 N 0.89233 0.44919 0.37051 0.0
C798 C 0.91282 0.4639 0.34652 0.0
C799 C 0.89676 0.44507 0.31738 0.0
C800 C 0.90423 0.46014 0.37241 0.0
C801 C 0.88846 0.44165 0.34377 0.0
C802 C 0.94803 0.45825 0.26065 0.0
C803 C 0.97148 0.47036 0.26373 0.0
N804 N 0.97115 0.4614 0.28462 0.0
C805 C 0.94791 0.44912 0.28203 0.0
C806 C 0.9599 0.46894 0.25131 0.0
C807 C 0.95971 0.4509 0.29392 0.0
C808 C 0.90075 0.42135 0.24625 0.0
N809 N 0.90864 0.43058 0.26762 0.0
C810 C 0.90396 0.41432 0.30741 0.0
C811 C 0.91042 0.42731 0.29761 0.0
C812 C 0.89564 0.40448 0.28607 0.0
C813 C 0.89414 0.40816 0.255 0.0
H814 H 0.89951 0.42423 0.22254 0.0
H815 H 0.91668 0.43487 0.31418 0.0
C816 C 0.95878 0.48836 0.30974 0.0
N817 N 0.94769 0.47659 0.31201 0.0
C818 C 0.96769 0.49294 0.33498 0.0
C819 C 0.95373 0.47308 0.36395 0.0
C820 C 0.94508 0.46892 0.33827 0.0
C821 C 0.96519 0.48527 0.36256 0.0
H822 H 0.96077 0.49413 0.28826 0.0
H823 H 0.93625 0.45953 0.33917 0.0
C824 C 0.90211 0.45578 0.20779 0.0
N825 N 0.88053 0.45649 0.18559 0.0
C826 C 0.90355 0.46506 0.18508 0.0
C827 C 0.8897 0.4468 0.21909 0.0
C828 C 0.89251 0.46528 0.17418 0.0
C829 C 0.87891 0.44733 0.20759 0.0
C830 C 0.93884 0.49418 0.2616 0.0
C831 C 0.93366 0.49479 0.29113 0.0
C832 C 0.94801 0.50568 0.24655 0.0
C833 C 0.93772 0.50692 0.30516 0.0
C834 C 0.95185 0.51763 0.26137 0.0
N835 N 0.94666 0.518 0.29012 0.0
C836 C 0.89379 0.46986 0.27595 0.0
C837 C 0.90856 0.48784 0.24462 0.0
C838 C 0.88646 0.47585 0.28248 0.0
N839 N 0.9049 0.47608 0.25832 0.0
C840 C 0.90149 0.49419 0.25043 0.0
C841 C 0.89045 0.48836 0.27036 0.0
H842 H 0.8907 0.46034 0.28556 0.0
H843 H 0.9172 0.49249 0.22986 0.0
C844 C 0.94777 0.46567 0.17139 0.0
N845 N 0.94188 0.47243 0.18098 0.0
C846 C 0.95613 0.46985 0.14498 0.0
C847 C 0.95186 0.48762 0.13805 0.0
C848 C 0.94366 0.48315 0.16479 0.0
C849 C 0.95844 0.48109 0.12805 0.0
H850 H 0.94632 0.45727 0.18495 0.0
H851 H 0.93895 0.48842 0.17311 0.0
O852 O 0.91743 0.45969 0.29336 0.0
O853 O 0.93658 0.45694 0.24957 0.0
O854 O 0.91283 0.45571 0.21955 0.0
O855 O 0.93506 0.48242 0.24741 0.0
H856 H 0.92234 0.47252 0.34829 0.0
H857 H 0.89361 0.43913 0.29605 0.0
H858 H 0.90705 0.46591 0.39406 0.0
H859 H 0.87893 0.433 0.34298 0.0
H860 H 0.98074 0.47864 0.25689 0.0
H861 H 0.93881 0.44081 0.28954 0.0
H862 H 0.96014 0.47618 0.23508 0.0
H863 H 0.95977 0.44395 0.3106 0.0
H864 H 0.90526 0.41207 0.33176 0.0
H865 H 0.88799 0.40095 0.23755 0.0
H866 H 0.97652 0.5023 0.33276 0.0
H867 H 0.95137 0.4669 0.38486 0.0
H868 H 0.91312 0.47212 0.17628 0.0
H869 H 0.88845 0.43959 0.23679 0.0
H870 H 0.89348 0.47246 0.15676 0.0
H871 H 0.86925 0.4405 0.21624 0.0
H872 H 0.92649 0.48601 0.30292 0.0
H873 H 0.95214 0.50536 0.22369 0.0
H874 H 0.93376 0.50753 0.32799 0.0
H875 H 0.95894 0.52661 0.25002 0.0
H876 H 0.87803 0.4709 0.29791 0.0
H877 H 0.90476 0.50366 0.23978 0.0
H878 H 0.96109 0.46458 0.13868 0.0
H879 H 0.95313 0.49619 0.12558 0.0
Li880 Li 0.56232 0.46868 0.26085 0.0
Li881 Li 0.54176 0.46736 0.28149 0.0
Li882 Li 0.54099 0.44878 0.25528 0.0
Li883 Li 0.54421 0.46726 0.22454 0.0
C884 C 0.54758 0.44793 0.31591 0.0
N885 N 0.54082 0.42712 0.35655 0.0
C886 C 0.53619 0.44292 0.33411 0.0
C887 C 0.55558 0.44242 0.31848 0.0
C888 C 0.53293 0.43238 0.3545 0.0
C889 C 0.55198 0.43189 0.33914 0.0
C890 C 0.55786 0.49202 0.27203 0.0
C891 C 0.55088 0.50706 0.28879 0.0
N892 N 0.56135 0.51294 0.30866 0.0
C893 C 0.56857 0.49826 0.2925 0.0
C894 C 0.54897 0.4965 0.27001 0.0
C895 C 0.57016 0.50881 0.31085 0.0
C896 C 0.58972 0.48267 0.24693 0.0
N897 N 0.58048 0.47615 0.26962 0.0
C898 C 0.59686 0.48109 0.30924 0.0
C899 C 0.58379 0.47531 0.30029 0.0
C900 C 0.60667 0.48797 0.28648 0.0
C901 C 0.60297 0.48871 0.25491 0.0
H902 H 0.58681 0.4833 0.22278 0.0
H903 H 0.57626 0.47037 0.31806 0.0
C904 C 0.52386 0.47221 0.31601 0.0
N905 N 0.5356 0.47279 0.31687 0.0
C906 C 0.51964 0.47643 0.34218 0.0
C907 C 0.53953 0.48144 0.36987 0.0
C908 C 0.54339 0.4772 0.3431 0.0
C909 C 0.52751 0.48114 0.36962 0.0
H910 H 0.51778 0.46849 0.29505 0.0
H911 H 0.55262 0.4774 0.34318 0.0
C912 C 0.55533 0.44833 0.20594 0.0
N913 N 0.55693 0.42858 0.17502 0.0
C914 C 0.54494 0.43933 0.18725 0.0
C915 C 0.56658 0.44737 0.20874 0.0
C916 C 0.54592 0.42938 0.17188 0.0
C917 C 0.56719 0.4373 0.19294 0.0
C918 C 0.51883 0.45335 0.23051 0.0
C919 C 0.51229 0.4418 0.21289 0.0
C920 C 0.51537 0.46296 0.22673 0.0
C921 C 0.50237 0.44005 0.19188 0.0
C922 C 0.50542 0.46085 0.2054 0.0
N923 N 0.49918 0.44953 0.18858 0.0
C924 C 0.52007 0.42401 0.27059 0.0
C925 C 0.53931 0.4235 0.25842 0.0
C926 C 0.51374 0.4109 0.27952 0.0
N927 N 0.53263 0.43006 0.26025 0.0
C928 C 0.53335 0.41035 0.26707 0.0
C929 C 0.52042 0.40389 0.27818 0.0
H930 H 0.51512 0.42953 0.27329 0.0
H931 H 0.54946 0.42857 0.2517 0.0
C932 C 0.54507 0.48662 0.18315 0.0
N933 N 0.54087 0.47366 0.18515 0.0
C934 C 0.54153 0.49162 0.15719 0.0
C935 C 0.52978 0.46995 0.13498 0.0
C936 C 0.53368 0.46539 0.16124 0.0
C937 C 0.53349 0.48322 0.13293 0.0
H938 H 0.55099 0.49308 0.20204 0.0
H939 H 0.53053 0.45515 0.16309 0.0
O940 O 0.55073 0.45798 0.29508 0.0
O941 O 0.55593 0.48143 0.25457 0.0
O942 O 0.5546 0.45816 0.22111 0.0
O943 O 0.52863 0.45529 0.25112 0.0
H944 H 0.52983 0.447 0.33217 0.0
H945 H 0.56435 0.44609 0.30424 0.0
H946 H 0.5241 0.42834 0.36857 0.0
H947 H 0.55801 0.42746 0.3412 0.0
H948 H 0.54402 0.51056 0.28766 0.0
H949 H 0.57554 0.49493 0.29443 0.0
H950 H 0.54057 0.49174 0.25448 0.0
H951 H 0.57837 0.51368 0.32691 0.0
H952 H 0.59925 0.48048 0.33395 0.0
H953 H 0.61022 0.49386 0.2366 0.0
H954 H 0.51037 0.47613 0.34075 0.0
H955 H 0.54581 0.48476 0.39066 0.0
H956 H 0.53616 0.43991 0.18497 0.0
H957 H 0.57471 0.45429 0.22309 0.0
H958 H 0.53792 0.42228 0.15751 0.0
H959 H 0.57581 0.4364 0.19497 0.0
H960 H 0.51495 0.43433 0.21505 0.0
H961 H 0.52046 0.47206 0.23964 0.0
H962 H 0.49727 0.43118 0.17805 0.0
H963 H 0.50271 0.46824 0.20209 0.0
H964 H 0.50388 0.40646 0.28867 0.0
H965 H 0.5389 0.40537 0.26562 0.0
H966 H 0.54497 0.50198 0.15635 0.0
H967 H 0.52353 0.46303 0.11712 0.0
Li968 Li 0.54128 0.09395 0.25824 0.0
Li969 Li 0.54267 0.07607 0.27951 0.0
Li970 Li 0.56182 0.09381 0.25629 0.0
Li971 Li 0.54305 0.07837 0.22221 0.0
C972 C 0.55884 0.10644 0.30736 0.0
N973 N 0.57231 0.13113 0.3335 0.0
C974 C 0.56053 0.10803 0.34046 0.0
C975 C 0.56402 0.11742 0.28753 0.0
C976 C 0.56736 0.12059 0.35322 0.0
C977 C 0.57079 0.12981 0.30122 0.0
C978 C 0.51732 0.07172 0.26766 0.0
C979 C 0.49396 0.06222 0.26786 0.0
N980 N 0.4944 0.06514 0.29945 0.0
C981 C 0.51753 0.0746 0.30015 0.0
C982 C 0.50544 0.06545 0.25137 0.0
C983 C 0.50585 0.07121 0.31579 0.0
C984 C 0.52921 0.10914 0.24111 0.0
N985 N 0.53324 0.10441 0.26554 0.0
C986 C 0.52562 0.11399 0.30407 0.0
C987 C 0.53145 0.10663 0.29656 0.0
C988 C 0.52138 0.11905 0.27951 0.0
C989 C 0.52315 0.11648 0.2476 0.0
H990 H 0.53065 0.10717 0.21663 0.0
H991 H 0.53443 0.10258 0.31569 0.0
C992 C 0.54445 0.06767 0.34074 0.0
N993 N 0.53721 0.06384 0.31355 0.0
C994 C 0.54072 0.05939 0.36716 0.0
C995 C 0.52234 0.04325 0.33676 0.0
C996 C 0.52637 0.0519 0.31098 0.0
C997 C 0.52949 0.04704 0.36541 0.0
H998 H 0.55308 0.07719 0.34189 0.0
H999 H 0.52081 0.04914 0.28901 0.0
C1000 C 0.56052 0.10211 0.19324 0.0
N1001 N 0.57529 0.1099 0.13798 0.0
C1002 C 0.56755 0.09607 0.18388 0.0
C1003 C 0.56099 0.1121 0.17449 0.0
C1004 C 0.57495 0.10015 0.15586 0.0
C1005 C 0.56852 0.11591 0.14664 0.0
C1006 C 0.55417 0.06368 0.25853 0.0
C1007 C 0.56362 0.06396 0.27903 0.0
C1008 C 0.5437 0.05171 0.2489 0.0
C1009 C 0.56239 0.05223 0.28976 0.0
C1010 C 0.54283 0.04019 0.26013 0.0
N1011 N 0.55211 0.04069 0.28019 0.0
C1012 C 0.58373 0.10129 0.29247 0.0
C1013 C 0.58939 0.11294 0.2436 0.0
C1014 C 0.59668 0.10788 0.30248 0.0
N1015 N 0.58031 0.10381 0.26345 0.0
C1016 C 0.60256 0.11965 0.25247 0.0
C1017 C 0.6064 0.11714 0.28231 0.0
H1018 H 0.57629 0.09424 0.30818 0.0
H1019 H 0.58649 0.11513 0.22103 0.0
C1020 C 0.52631 0.06616 0.16887 0.0
N1021 N 0.53771 0.06872 0.18286 0.0
C1022 C 0.52157 0.05791 0.14223 0.0
C1023 C 0.54055 0.05537 0.1444 0.0
C1024 C 0.54489 0.06361 0.171 0.0
C1025 C 0.52865 0.05226 0.12984 0.0
H1026 H 0.52075 0.07029 0.17884 0.0
H1027 H 0.55381 0.06559 0.18284 0.0
O1028 O 0.55224 0.09415 0.29464 0.0
O1029 O 0.52863 0.07497 0.25171 0.0
O1030 O 0.553 0.09816 0.22024 0.0
O1031 O 0.555 0.07505 0.24843 0.0
H1032 H 0.55659 0.09964 0.35614 0.0
H1033 H 0.56286 0.11643 0.26188 0.0
H1034 H 0.56874 0.12196 0.3788 0.0
H1035 H 0.57485 0.13839 0.28617 0.0
H1036 H 0.48469 0.05738 0.25553 0.0
H1037 H 0.52662 0.07942 0.31321 0.0
H1038 H 0.5051 0.06312 0.22623 0.0
H1039 H 0.50588 0.07341 0.34092 0.0
H1040 H 0.52421 0.11549 0.32898 0.0
H1041 H 0.52002 0.12022 0.22795 0.0
H1042 H 0.54658 0.0626 0.3887 0.0
H1043 H 0.51358 0.03384 0.33458 0.0
H1044 H 0.56744 0.08844 0.19826 0.0
H1045 H 0.55557 0.11684 0.18138 0.0
H1046 H 0.58047 0.09558 0.14839 0.0
H1047 H 0.56898 0.12364 0.1319 0.0
H1048 H 0.57179 0.07312 0.28667 0.0
H1049 H 0.5362 0.05131 0.23342 0.0
H1050 H 0.56961 0.0523 0.30574 0.0
H1051 H 0.53474 0.03086 0.25306 0.0
H1052 H 0.59898 0.10584 0.32608 0.0
H1053 H 0.60964 0.12664 0.23597 0.0
H1054 H 0.51242 0.05591 0.13161 0.0
H1055 H 0.54625 0.05112 0.13606 0.0
Li1056 Li 0.4696 0.93033 0.78313 0.0
Li1057 Li 0.47131 0.9141 0.74656 0.0
Li1058 Li 0.47105 0.93266 0.72599 0.0
Li1059 Li 0.45098 0.91521 0.74503 0.0
C1060 C 0.49592 0.94235 0.7448 0.0
N1061 N 0.51957 0.96207 0.72231 0.0
C1062 C 0.50136 0.94056 0.71694 0.0
C1063 C 0.50256 0.95418 0.76127 0.0
C1064 C 0.5133 0.95064 0.70591 0.0
C1065 C 0.5145 0.96402 0.74952 0.0
C1066 C 0.45885 0.90309 0.80696 0.0
C1067 C 0.44877 0.88335 0.83828 0.0
N1068 N 0.45964 0.88819 0.85683 0.0
C1069 C 0.46991 0.90786 0.8263 0.0
C1070 C 0.44818 0.89074 0.81297 0.0
C1071 C 0.47013 0.90019 0.85142 0.0
C1072 C 0.46576 0.94335 0.83542 0.0
N1073 N 0.47397 0.9395 0.82334 0.0
C1074 C 0.48966 0.95137 0.86417 0.0
C1075 C 0.48564 0.94316 0.83748 0.0
C1076 C 0.48164 0.95596 0.87645 0.0
C1077 C 0.46942 0.95161 0.86203 0.0
H1078 H 0.4566 0.94043 0.82356 0.0
H1079 H 0.49207 0.94009 0.82736 0.0
C1080 C 0.48296 0.90366 0.70851 0.0
N1081 N 0.4786 0.90292 0.73897 0.0
C1082 C 0.48847 0.89622 0.69889 0.0
C1083 C 0.48492 0.88715 0.75208 0.0
C1084 C 0.47942 0.8948 0.76071 0.0
C1085 C 0.48953 0.88779 0.72073 0.0
H1086 H 0.4821 0.91004 0.69145 0.0
H1087 H 0.47579 0.89413 0.78466 0.0
C1088 C 0.45893 0.94504 0.74309 0.0
N1089 N 0.46044 0.96742 0.71858 0.0
C1090 C 0.45112 0.94429 0.7172 0.0
C1091 C 0.46744 0.95716 0.75666 0.0
C1092 C 0.45206 0.95572 0.70509 0.0
C1093 C 0.46807 0.96836 0.74392 0.0
C1094 C 0.45502 0.9025 0.69575 0.0
C1095 C 0.45521 0.90081 0.66268 0.0
C1096 C 0.44833 0.89157 0.71544 0.0
C1097 C 0.44864 0.88824 0.64988 0.0
C1098 C 0.44187 0.87916 0.70173 0.0
N1099 N 0.44215 0.87777 0.66951 0.0
C1100 C 0.4864 0.95807 0.69655 0.0
C1101 C 0.47254 0.94061 0.66254 0.0
C1102 C 0.49085 0.96667 0.67067 0.0
N1103 N 0.47758 0.94524 0.69198 0.0
C1104 C 0.47662 0.94886 0.63606 0.0
C1105 C 0.48602 0.96207 0.63983 0.0
H1106 H 0.48995 0.96168 0.72025 0.0
H1107 H 0.46521 0.9305 0.65967 0.0
C1108 C 0.42355 0.8987 0.75971 0.0
N1109 N 0.43261 0.90579 0.7371 0.0
C1110 C 0.41029 0.89182 0.75169 0.0
C1111 C 0.41601 0.89972 0.69748 0.0
C1112 C 0.42908 0.90642 0.7065 0.0
C1113 C 0.40636 0.89229 0.72015 0.0
H1114 H 0.42662 0.89837 0.7839 0.0
H1115 H 0.43649 0.91206 0.68894 0.0
O1116 O 0.48425 0.93256 0.75605 0.0
O1117 O 0.45836 0.91052 0.78255 0.0
O1118 O 0.45834 0.93399 0.75488 0.0
O1119 O 0.46154 0.9148 0.70857 0.0
H1120 H 0.49636 0.93156 0.70371 0.0
H1121 H 0.49845 0.95589 0.78252 0.0
H1122 H 0.51756 0.94939 0.68427 0.0
H1123 H 0.51969 0.97324 0.76195 0.0
H1124 H 0.44059 0.87377 0.8432 0.0
H1125 H 0.47834 0.91725 0.82152 0.0
H1126 H 0.43952 0.8869 0.79825 0.0
H1127 H 0.47866 0.90374 0.86648 0.0
H1128 H 0.49906 0.95426 0.87472 0.0
H1129 H 0.46295 0.95498 0.87033 0.0
H1130 H 0.49203 0.89721 0.6746 0.0
H1131 H 0.48539 0.88067 0.76964 0.0
H1132 H 0.4445 0.93501 0.70637 0.0
H1133 H 0.47367 0.95794 0.77647 0.0
H1134 H 0.44613 0.9553 0.68492 0.0
H1135 H 0.47468 0.97781 0.75404 0.0
H1136 H 0.46044 0.9091 0.64701 0.0
H1137 H 0.44809 0.89259 0.74101 0.0
H1138 H 0.44871 0.88681 0.62435 0.0
H1139 H 0.43664 0.87065 0.71673 0.0
H1140 H 0.49812 0.97677 0.67478 0.0
H1141 H 0.47234 0.94495 0.61293 0.0
H1142 H 0.40319 0.88631 0.77004 0.0
H1143 H 0.41352 0.9002 0.67278 0.0
Li1144 Li 0.09746 0.56019 0.74781 0.0
Li1145 Li 0.08083 0.54288 0.78198 0.0
Li1146 Li 0.0961 0.53919 0.74903 0.0
Li1147 Li 0.07851 0.54136 0.72434 0.0
C1148 C 0.10915 0.56231 0.80099 0.0
N1149 N 0.12693 0.58541 0.8299 0.0
C1150 C 0.10513 0.56765 0.82519 0.0
C1151 C 0.12221 0.56868 0.79153 0.0
C1152 C 0.11427 0.57934 0.83952 0.0
C1153 C 0.13105 0.58036 0.80642 0.0
C1154 C 0.07001 0.5572 0.73777 0.0
C1155 C 0.04782 0.55069 0.72388 0.0
N1156 N 0.05221 0.56124 0.70433 0.0
C1157 C 0.07431 0.56798 0.71754 0.0
C1158 C 0.05665 0.54849 0.74102 0.0
C1159 C 0.06515 0.56986 0.70087 0.0
C1160 C 0.11833 0.58328 0.72096 0.0
N1161 N 0.10848 0.57869 0.74268 0.0
C1162 C 0.11243 0.60029 0.75229 0.0
C1163 C 0.10555 0.58691 0.75868 0.0
C1164 C 0.12249 0.60526 0.72948 0.0
C1165 C 0.12557 0.5966 0.71418 0.0
H1166 H 0.12031 0.57659 0.70808 0.0
H1167 H 0.09758 0.58299 0.7756 0.0
C1168 C 0.07193 0.53069 0.84323 0.0
N1169 N 0.07111 0.53877 0.8214 0.0
C1170 C 0.06366 0.52641 0.86987 0.0
C1171 C 0.05456 0.53961 0.85241 0.0
C1172 C 0.06287 0.5435 0.82592 0.0
C1173 C 0.05469 0.53073 0.87448 0.0
H1174 H 0.07873 0.52726 0.83948 0.0
H1175 H 0.06255 0.55011 0.80861 0.0
C1176 C 0.10352 0.54645 0.68951 0.0
N1177 N 0.11667 0.53896 0.64774 0.0
C1178 C 0.09681 0.53765 0.66484 0.0
C1179 C 0.11694 0.55145 0.69288 0.0
C1180 C 0.10363 0.534 0.64396 0.0
C1181 C 0.1234 0.54753 0.67156 0.0
C1182 C 0.0692 0.51716 0.77204 0.0
C1183 C 0.07432 0.51007 0.78658 0.0
C1184 C 0.05616 0.51355 0.77717 0.0
C1185 C 0.0663 0.49947 0.80611 0.0
C1186 C 0.04847 0.50291 0.79694 0.0
N1187 N 0.05366 0.49615 0.81087 0.0
C1188 C 0.11713 0.53369 0.75724 0.0
C1189 C 0.09961 0.51936 0.72392 0.0
C1190 C 0.12401 0.52729 0.74949 0.0
N1191 N 0.10525 0.52975 0.74403 0.0
C1192 C 0.10615 0.51276 0.71535 0.0
C1193 C 0.11861 0.51676 0.72786 0.0
H1194 H 0.12141 0.542 0.77313 0.0
H1195 H 0.09019 0.5165 0.7136 0.0
C1196 C 0.06935 0.54417 0.66454 0.0
N1197 N 0.06664 0.53584 0.68948 0.0
C1198 C 0.06105 0.54045 0.63814 0.0
C1199 C 0.04739 0.51961 0.66351 0.0
C1200 C 0.05596 0.52374 0.68942 0.0
C1201 C 0.04991 0.528 0.63735 0.0
H1202 H 0.07806 0.55366 0.66504 0.0
H1203 H 0.05414 0.51725 0.70934 0.0
O1204 O 0.10027 0.5511 0.78601 0.0
O1205 O 0.07882 0.55501 0.75373 0.0
O1206 O 0.09696 0.54993 0.71066 0.0
O1207 O 0.07693 0.52765 0.75308 0.0
H1208 H 0.09503 0.56287 0.83262 0.0
H1209 H 0.12544 0.56475 0.77257 0.0
H1210 H 0.1113 0.58361 0.85821 0.0
H1211 H 0.14117 0.58545 0.79921 0.0
H1212 H 0.03746 0.54399 0.72602 0.0
H1213 H 0.08459 0.57472 0.71434 0.0
H1214 H 0.05315 0.54001 0.75626 0.0
H1215 H 0.06835 0.57812 0.68502 0.0
H1216 H 0.10979 0.60666 0.76472 0.0
H1217 H 0.13313 0.59999 0.69613 0.0
H1218 H 0.06424 0.51972 0.88658 0.0
H1219 H 0.04779 0.54319 0.85497 0.0
H1220 H 0.08642 0.53353 0.66203 0.0
H1221 H 0.12226 0.55801 0.71226 0.0
H1222 H 0.09855 0.52717 0.62484 0.0
H1223 H 0.13375 0.55122 0.67411 0.0
H1224 H 0.0844 0.51277 0.78312 0.0
H1225 H 0.05206 0.51901 0.76643 0.0
H1226 H 0.07014 0.49392 0.8176 0.0
H1227 H 0.03839 0.50007 0.80131 0.0
H1228 H 0.13348 0.53062 0.76013 0.0
H1229 H 0.10164 0.50489 0.69821 0.0
H1230 H 0.06349 0.54715 0.61828 0.0
H1231 H 0.03886 0.50997 0.66402 0.0
Li1232 Li 0.47011 0.54111 0.78481 0.0
Li1233 Li 0.45175 0.53827 0.74828 0.0
Li1234 Li 0.47129 0.54036 0.72761 0.0
Li1235 Li 0.47229 0.5596 0.74841 0.0
C1236 C 0.45848 0.51586 0.7431 0.0
N1237 N 0.45874 0.49502 0.71419 0.0
C1238 C 0.4495 0.50883 0.71903 0.0
C1239 C 0.46755 0.51225 0.7526 0.0
C1240 C 0.44981 0.49834 0.70465 0.0
C1241 C 0.46752 0.50168 0.73768 0.0
C1242 C 0.45174 0.54912 0.80985 0.0
C1243 C 0.43988 0.55661 0.84195 0.0
N1244 N 0.43515 0.54563 0.86006 0.0
C1245 C 0.44679 0.53792 0.82881 0.0
C1246 C 0.44831 0.55857 0.8165 0.0
C1247 C 0.43841 0.53634 0.85408 0.0
C1248 C 0.48531 0.54586 0.84148 0.0
N1249 N 0.47515 0.53662 0.8243 0.0
C1250 C 0.47328 0.51993 0.85987 0.0
C1251 C 0.46901 0.52388 0.83323 0.0
C1252 C 0.48397 0.52918 0.8778 0.0
C1253 C 0.48987 0.54235 0.86848 0.0
H1254 H 0.49007 0.55592 0.83378 0.0
H1255 H 0.46097 0.5167 0.81913 0.0
C1256 C 0.42992 0.52671 0.70905 0.0
N1257 N 0.43317 0.52944 0.74042 0.0
C1258 C 0.41693 0.52034 0.6994 0.0
C1259 C 0.41056 0.519 0.75469 0.0
C1260 C 0.42378 0.52572 0.76322 0.0
C1261 C 0.40694 0.51619 0.72228 0.0
H1262 H 0.43747 0.5294 0.69129 0.0
H1263 H 0.42643 0.52775 0.78807 0.0
C1264 C 0.49665 0.55709 0.74488 0.0
N1265 N 0.52099 0.56466 0.71993 0.0
C1266 C 0.50042 0.56368 0.71565 0.0
C1267 C 0.50527 0.55441 0.76154 0.0
C1268 C 0.51276 0.5674 0.7034 0.0
C1269 C 0.51754 0.55831 0.7485 0.0
C1270 C 0.45566 0.55507 0.69848 0.0
C1271 C 0.45517 0.55634 0.66533 0.0
C1272 C 0.44965 0.55995 0.71854 0.0
C1273 C 0.44867 0.56247 0.6528 0.0
C1274 C 0.44325 0.56601 0.70508 0.0
N1275 N 0.4429 0.56714 0.67277 0.0
C1276 C 0.47152 0.53227 0.66498 0.0
C1277 C 0.48745 0.53157 0.69788 0.0
C1278 C 0.47536 0.52763 0.63893 0.0
N1279 N 0.47763 0.53422 0.69365 0.0
C1280 C 0.4917 0.52704 0.67238 0.0
C1281 C 0.48562 0.52503 0.64244 0.0
H1282 H 0.46358 0.53423 0.66245 0.0
H1283 H 0.49189 0.53278 0.72112 0.0
C1284 C 0.48388 0.58658 0.76774 0.0
N1285 N 0.48035 0.57813 0.74272 0.0
C1286 C 0.48999 0.60005 0.76214 0.0
C1287 C 0.48844 0.59577 0.70534 0.0
C1288 C 0.4827 0.58251 0.71199 0.0
C1289 C 0.49219 0.60471 0.73054 0.0
H1290 H 0.48203 0.58287 0.79197 0.0
H1291 H 0.48021 0.57571 0.69247 0.0
O1292 O 0.45853 0.52635 0.75692 0.0
O1293 O 0.46015 0.551 0.78535 0.0
O1294 O 0.48459 0.55327 0.75719 0.0
O1295 O 0.46202 0.54907 0.71096 0.0
H1296 H 0.44244 0.5115 0.71133 0.0
H1297 H 0.47471 0.5177 0.77082 0.0
H1298 H 0.44297 0.49287 0.68586 0.0
H1299 H 0.47455 0.49884 0.74463 0.0
H1300 H 0.43712 0.56384 0.84735 0.0
H1301 H 0.4492 0.53044 0.82371 0.0
H1302 H 0.45215 0.56734 0.80219 0.0
H1303 H 0.43445 0.52769 0.86884 0.0
H1304 H 0.4685 0.50966 0.86565 0.0
H1305 H 0.498 0.54988 0.88174 0.0
H1306 H 0.41484 0.51876 0.67408 0.0
H1307 H 0.40331 0.51584 0.77343 0.0
H1308 H 0.4938 0.56569 0.70232 0.0
H1309 H 0.50248 0.54929 0.78418 0.0
H1310 H 0.51578 0.57242 0.68069 0.0
H1311 H 0.5243 0.55626 0.76105 0.0
H1312 H 0.4598 0.55267 0.64944 0.0
H1313 H 0.44988 0.55908 0.74417 0.0
H1314 H 0.44823 0.56352 0.6272 0.0
H1315 H 0.43856 0.56982 0.72034 0.0
H1316 H 0.47045 0.52625 0.61619 0.0
H1317 H 0.4995 0.52492 0.67617 0.0
H1318 H 0.49284 0.60672 0.78215 0.0
H1319 H 0.49018 0.59905 0.68069 0.0
Li1320 Li 0.60173 0.80249 0.61636 0.0
Li1321 Li 0.58429 0.78221 0.59321 0.0
Li1322 Li 0.59888 0.80102 0.55904 0.0
Li1323 Li 0.58216 0.80152 0.59375 0.0
C1324 C 0.61119 0.78752 0.56932 0.0
N1325 N 0.62673 0.78198 0.5307 0.0
C1326 C 0.60627 0.77507 0.5563 0.0
C1327 C 0.62403 0.79714 0.56277 0.0
C1328 C 0.61428 0.77246 0.53684 0.0
C1329 C 0.63172 0.79415 0.54315 0.0
C1330 C 0.57656 0.78257 0.65246 0.0
C1331 C 0.55619 0.76455 0.67078 0.0
N1332 N 0.56259 0.76248 0.69506 0.0
C1333 C 0.58293 0.78028 0.67765 0.0
C1334 C 0.56308 0.77467 0.64905 0.0
C1335 C 0.57569 0.77008 0.69893 0.0
C1336 C 0.61045 0.81411 0.67654 0.0
N1337 N 0.61373 0.80936 0.65078 0.0
C1338 C 0.63371 0.81389 0.67555 0.0
C1339 C 0.62508 0.80916 0.6498 0.0
C1340 C 0.63054 0.81873 0.70273 0.0
C1341 C 0.61874 0.81886 0.70292 0.0
H1342 H 0.60127 0.81401 0.67673 0.0
H1343 H 0.62739 0.80523 0.62916 0.0
C1344 C 0.56377 0.75558 0.58532 0.0
N1345 N 0.57537 0.76373 0.59948 0.0
C1346 C 0.5569 0.74236 0.59369 0.0
C1347 C 0.57412 0.74623 0.63071 0.0
C1348 C 0.58074 0.75926 0.6212 0.0
C1349 C 0.56193 0.73753 0.6172 0.0
H1350 H 0.55971 0.75938 0.56808 0.0
H1351 H 0.58998 0.76599 0.63212 0.0
C1352 C 0.60897 0.82647 0.6025 0.0
N1353 N 0.62588 0.84863 0.63614 0.0
C1354 C 0.60411 0.83252 0.62243 0.0
C1355 C 0.62243 0.83172 0.59956 0.0
C1356 C 0.61282 0.84372 0.63925 0.0
C1357 C 0.63082 0.84292 0.61682 0.0
C1358 C 0.57023 0.79075 0.53987 0.0
C1359 C 0.57373 0.79879 0.51293 0.0
C1360 C 0.55728 0.78418 0.55017 0.0
C1361 C 0.56418 0.80021 0.49681 0.0
C1362 C 0.54802 0.78588 0.53344 0.0
N1363 N 0.55164 0.79379 0.50734 0.0
C1364 C 0.60805 0.79781 0.49793 0.0
C1365 C 0.61617 0.81962 0.51446 0.0
C1366 C 0.61644 0.80197 0.47149 0.0
N1367 N 0.60838 0.80661 0.51932 0.0
C1368 C 0.62456 0.82422 0.48816 0.0
C1369 C 0.62507 0.81537 0.4666 0.0
H1370 H 0.60166 0.78751 0.50207 0.0
H1371 H 0.61607 0.82646 0.53138 0.0
C1372 C 0.56429 0.8057 0.62864 0.0
N1373 N 0.57064 0.80834 0.60015 0.0
C1374 C 0.55669 0.81128 0.6364 0.0
C1375 C 0.56228 0.82231 0.58536 0.0
C1376 C 0.56982 0.81651 0.5786 0.0
C1377 C 0.55565 0.81979 0.61475 0.0
H1378 H 0.56545 0.7996 0.64592 0.0
H1379 H 0.57525 0.81877 0.55647 0.0
O1380 O 0.60347 0.79028 0.58829 0.0
O1381 O 0.58352 0.79233 0.63093 0.0
O1382 O 0.6006 0.81529 0.58653 0.0
O1383 O 0.57946 0.78936 0.5562 0.0
H1384 H 0.59635 0.76752 0.56095 0.0
H1385 H 0.62795 0.80689 0.57223 0.0
H1386 H 0.61059 0.76287 0.52654 0.0
H1387 H 0.64163 0.80153 0.53768 0.0
H1388 H 0.54577 0.75831 0.66828 0.0
H1389 H 0.59337 0.7862 0.6805 0.0
H1390 H 0.55801 0.77625 0.62956 0.0
H1391 H 0.5805 0.76816 0.71843 0.0
H1392 H 0.64277 0.81375 0.67414 0.0
H1393 H 0.61578 0.8223 0.7235 0.0
H1394 H 0.54769 0.73606 0.58202 0.0
H1395 H 0.57838 0.74318 0.64929 0.0
H1396 H 0.59373 0.82856 0.62515 0.0
H1397 H 0.62635 0.82708 0.58449 0.0
H1398 H 0.6092 0.84848 0.65487 0.0
H1399 H 0.64125 0.84703 0.61495 0.0
H1400 H 0.58372 0.80395 0.50469 0.0
H1401 H 0.55443 0.77795 0.57102 0.0
H1402 H 0.56675 0.80644 0.47599 0.0
H1403 H 0.53797 0.78093 0.54123 0.0
H1404 H 0.61646 0.79472 0.45581 0.0
H1405 H 0.63069 0.83464 0.48502 0.0
H1406 H 0.55206 0.80928 0.65965 0.0
H1407 H 0.56174 0.82876 0.56787 0.0
Li1408 Li 0.22793 0.80229 0.58869 0.0
Li1409 Li 0.20768 0.80136 0.61051 0.0
Li1410 Li 0.2065 0.78236 0.58536 0.0
Li1411 Li 0.20933 0.80047 0.55325 0.0
C1412 C 0.21435 0.78229 0.64503 0.0
N1413 N 0.20899 0.76191 0.68596 0.0
C1414 C 0.20377 0.77765 0.66601 0.0
C1415 C 0.22226 0.77665 0.64499 0.0
C1416 C 0.20122 0.76732 0.68649 0.0
C1417 C 0.21937 0.76633 0.66584 0.0
C1418 C 0.22363 0.82602 0.59746 0.0
C1419 C 0.21681 0.84143 0.61175 0.0
N1420 N 0.22769 0.84804 0.63 0.0
C1421 C 0.23479 0.83301 0.6162 0.0
C1422 C 0.2146 0.8303 0.59503 0.0
C1423 C 0.23665 0.84411 0.63251 0.0
C1424 C 0.2553 0.81559 0.57325 0.0
N1425 N 0.24617 0.80982 0.59658 0.0
C1426 C 0.26274 0.81564 0.63618 0.0
C1427 C 0.24963 0.80976 0.62755 0.0
C1428 C 0.27245 0.82177 0.61278 0.0
C1429 C 0.26859 0.82168 0.58089 0.0
H1430 H 0.25227 0.8156 0.54884 0.0
H1431 H 0.24219 0.80537 0.64575 0.0
C1432 C 0.18951 0.80504 0.6469 0.0
N1433 N 0.2019 0.80723 0.64572 0.0
C1434 C 0.18533 0.80923 0.67322 0.0
C1435 C 0.2067 0.81769 0.69672 0.0
C1436 C 0.21045 0.8133 0.67001 0.0
C1437 C 0.19398 0.81565 0.6986 0.0
H1438 H 0.18283 0.7999 0.62763 0.0
H1439 H 0.22019 0.81473 0.66857 0.0
C1440 C 0.21989 0.78138 0.53381 0.0
N1441 N 0.22051 0.7615 0.50088 0.0
C1442 C 0.20909 0.77253 0.51598 0.0
C1443 C 0.23104 0.78019 0.53476 0.0
C1444 C 0.20958 0.76252 0.49957 0.0
C1445 C 0.23115 0.77006 0.51795 0.0
C1446 C 0.18377 0.78651 0.56273 0.0
C1447 C 0.1767 0.77456 0.54698 0.0
C1448 C 0.18012 0.79599 0.55915 0.0
C1449 C 0.16612 0.77231 0.52781 0.0
C1450 C 0.1695 0.79338 0.53969 0.0
N1451 N 0.16277 0.78169 0.52457 0.0
C1452 C 0.18603 0.75819 0.60537 0.0
C1453 C 0.2041 0.75665 0.58704 0.0
C1454 C 0.17967 0.74517 0.61508 0.0
N1455 N 0.19803 0.7637 0.59166 0.0
C1456 C 0.19803 0.74354 0.59606 0.0
C1457 C 0.18568 0.73763 0.61071 0.0
H1458 H 0.18159 0.76409 0.60998 0.0
H1459 H 0.21386 0.76128 0.57754 0.0
C1460 C 0.21076 0.81949 0.5096 0.0
N1461 N 0.20547 0.80642 0.51381 0.0
C1462 C 0.20718 0.82436 0.48337 0.0
C1463 C 0.19297 0.80225 0.46576 0.0
C1464 C 0.19703 0.79783 0.49198 0.0
C1465 C 0.19795 0.81568 0.46144 0.0
H1466 H 0.21756 0.82617 0.52699 0.0
H1467 H 0.1931 0.7875 0.49537 0.0
O1468 O 0.21677 0.79212 0.62412 0.0
O1469 O 0.22148 0.81496 0.58191 0.0
O1470 O 0.21964 0.79127 0.54997 0.0
O1471 O 0.1942 0.78892 0.58152 0.0
H1472 H 0.19752 0.78188 0.66618 0.0
H1473 H 0.23041 0.78007 0.62867 0.0
H1474 H 0.19301 0.76357 0.70272 0.0
H1475 H 0.22535 0.76179 0.66591 0.0
H1476 H 0.20985 0.84479 0.61026 0.0
H1477 H 0.24189 0.82986 0.61833 0.0
H1478 H 0.20592 0.82501 0.58063 0.0
H1479 H 0.24521 0.84957 0.64723 0.0
H1480 H 0.26523 0.81568 0.66112 0.0
H1481 H 0.27574 0.82623 0.56206 0.0
H1482 H 0.17536 0.80723 0.67394 0.0
H1483 H 0.21372 0.82269 0.71558 0.0
H1484 H 0.20037 0.77329 0.51518 0.0
H1485 H 0.23948 0.78699 0.54844 0.0
H1486 H 0.20126 0.75554 0.48583 0.0
H1487 H 0.2397 0.76898 0.51852 0.0
H1488 H 0.17945 0.76715 0.54916 0.0
H1489 H 0.18552 0.80532 0.57094 0.0
H1490 H 0.1606 0.76313 0.51539 0.0
H1491 H 0.16663 0.80066 0.53654 0.0
H1492 H 0.17034 0.74124 0.62699 0.0
H1493 H 0.20307 0.73816 0.59198 0.0
H1494 H 0.21124 0.83478 0.4809 0.0
H1495 H 0.18596 0.79525 0.44913 0.0
Li1496 Li 0.20825 0.42898 0.58974 0.0
Li1497 Li 0.20917 0.40992 0.61275 0.0
Li1498 Li 0.22805 0.42716 0.58585 0.0
Li1499 Li 0.20935 0.41164 0.55522 0.0
C1500 C 0.22908 0.43619 0.64462 0.0
N1501 N 0.25026 0.45173 0.68291 0.0
C1502 C 0.2325 0.43068 0.66971 0.0
C1503 C 0.23639 0.44961 0.63909 0.0
C1504 C 0.24325 0.43871 0.6888 0.0
C1505 C 0.24708 0.4573 0.65868 0.0
C1506 C 0.18463 0.40121 0.60187 0.0
C1507 C 0.16945 0.37921 0.61838 0.0
N1508 N 0.16353 0.38382 0.63805 0.0
C1509 C 0.17838 0.40573 0.62219 0.0
C1510 C 0.18012 0.38784 0.59984 0.0
C1511 C 0.16773 0.39678 0.64029 0.0
C1512 C 0.19092 0.43865 0.57699 0.0
N1513 N 0.20065 0.43974 0.59632 0.0
C1514 C 0.19837 0.45474 0.63023 0.0
C1515 C 0.20443 0.44758 0.62252 0.0
C1516 C 0.18812 0.45365 0.61114 0.0
C1517 C 0.18445 0.44553 0.58408 0.0
H1518 H 0.18795 0.43218 0.55659 0.0
H1519 H 0.21189 0.44799 0.63807 0.0
C1520 C 0.20448 0.38752 0.64786 0.0
N1521 N 0.20355 0.39849 0.64845 0.0
C1522 C 0.20042 0.37914 0.67412 0.0
C1523 C 0.19471 0.39361 0.70128 0.0
C1524 C 0.19882 0.40168 0.67441 0.0
C1525 C 0.1955 0.38215 0.70139 0.0
H1526 H 0.2084 0.3853 0.62706 0.0
H1527 H 0.19835 0.41056 0.67428 0.0
C1528 C 0.22796 0.44188 0.53462 0.0
N1529 N 0.24595 0.46366 0.50145 0.0
C1530 C 0.23556 0.44072 0.51073 0.0
C1531 C 0.22944 0.45409 0.54156 0.0
C1532 C 0.24463 0.45186 0.49426 0.0
C1533 C 0.2386 0.46499 0.52453 0.0
C1534 C 0.22389 0.40064 0.56379 0.0
C1535 C 0.23592 0.40609 0.54821 0.0
C1536 C 0.21477 0.38746 0.55936 0.0
C1537 C 0.23864 0.39822 0.52848 0.0
C1538 C 0.21785 0.37993 0.53937 0.0
N1539 N 0.22962 0.38542 0.52449 0.0
C1540 C 0.25111 0.43041 0.61059 0.0
C1541 C 0.25516 0.44878 0.57967 0.0
C1542 C 0.26409 0.43651 0.62043 0.0
N1543 N 0.24682 0.43661 0.59092 0.0
C1544 C 0.26834 0.45514 0.58827 0.0
C1545 C 0.27298 0.44912 0.60942 0.0
H1546 H 0.24426 0.42085 0.61977 0.0
H1547 H 0.25163 0.4538 0.56491 0.0
C1548 C 0.18996 0.39335 0.51341 0.0
N1549 N 0.20302 0.40149 0.51644 0.0
C1550 C 0.18495 0.38469 0.48766 0.0
C1551 C 0.20686 0.39321 0.46787 0.0
C1552 C 0.21143 0.4018 0.49383 0.0
C1553 C 0.19344 0.38431 0.46471 0.0
H1554 H 0.18342 0.39341 0.53129 0.0
H1555 H 0.22176 0.40839 0.4965 0.0
O1556 O 0.21881 0.42844 0.62512 0.0
O1557 O 0.19531 0.40984 0.58465 0.0
O1558 O 0.21888 0.43109 0.55063 0.0
O1559 O 0.22102 0.40818 0.58316 0.0
H1560 H 0.22704 0.4203 0.67414 0.0
H1561 H 0.23399 0.454 0.61947 0.0
H1562 H 0.24605 0.43457 0.70819 0.0
H1563 H 0.25289 0.46768 0.6545 0.0
H1564 H 0.16592 0.36885 0.61722 0.0
H1565 H 0.1818 0.41604 0.62424 0.0
H1566 H 0.18493 0.38419 0.58449 0.0
H1567 H 0.16283 0.40014 0.65623 0.0
H1568 H 0.20135 0.46068 0.65163 0.0
H1569 H 0.1766 0.44443 0.56871 0.0
H1570 H 0.20106 0.37034 0.67295 0.0
H1571 H 0.19119 0.39644 0.72193 0.0
H1572 H 0.23455 0.43135 0.50514 0.0
H1573 H 0.22359 0.45513 0.55992 0.0
H1574 H 0.25063 0.45112 0.4758 0.0
H1575 H 0.23989 0.47451 0.52967 0.0
H1576 H 0.24304 0.41629 0.55098 0.0
H1577 H 0.20532 0.38312 0.57077 0.0
H1578 H 0.2479 0.40231 0.51621 0.0
H1579 H 0.21085 0.36974 0.53557 0.0
H1580 H 0.26694 0.43149 0.63737 0.0
H1581 H 0.27474 0.46475 0.57862 0.0
H1582 H 0.17451 0.37831 0.48593 0.0
H1583 H 0.21385 0.39326 0.45111 0.0
C1584 C 0.17779 0.36187 0.44344 0.0
C1585 C 0.18838 0.3745 0.43825 0.0
C1586 C 0.17315 0.35259 0.41892 0.0
C1587 C 0.1742 0.34921 0.33035 0.0
H1588 H 0.1618 0.31297 0.35107 0.0
C1589 C 0.16416 0.31028 0.23398 0.0
C1590 C 0.1526 0.29821 0.23686 0.0
C1591 C 0.16821 0.3195 0.25855 0.0
C1592 C 0.16512 0.32303 0.34495 0.0
H1593 H 0.20227 0.38717 0.40262 0.0
H1594 H 0.19456 0.37089 0.36042 0.0
H1595 H 0.16963 0.3292 0.39365 0.0
H1596 H 0.13627 0.28634 0.268 0.0
H1597 H 0.14342 0.30245 0.31117 0.0
H1598 H 0.16993 0.34301 0.28151 0.0
C1599 C 0.18963 0.36822 0.38331 0.0
C1600 C 0.16958 0.33236 0.36938 0.0
C1601 C 0.1942 0.37754 0.40776 0.0
C1602 C 0.1452 0.29557 0.26501 0.0
C1603 C 0.14934 0.30475 0.2898 0.0
C1604 C 0.16985 0.3399 0.30591 0.0
C1605 C 0.17904 0.35559 0.38851 0.0
C1606 C 0.1742 0.3456 0.36245 0.0
C1607 C 0.16087 0.31685 0.28678 0.0
C1608 C 0.16527 0.3267 0.31291 0.0
H1609 H 0.17315 0.35904 0.46666 0.0
H1610 H 0.16487 0.34306 0.42384 0.0
H1611 H 0.17741 0.35923 0.32403 0.0
H1612 H 0.17001 0.31269 0.21246 0.0
H1613 H 0.17719 0.32868 0.25558 0.0
C1614 C 0.64728 0.83105 0.44419 0.0
C1615 C 0.63482 0.82007 0.43996 0.0
C1616 C 0.65651 0.83542 0.41957 0.0
C1617 C 0.65992 0.83264 0.33154 0.0
H1618 H 0.69647 0.8475 0.35298 0.0
C1619 C 0.6999 0.84436 0.2364 0.0
C1620 C 0.7113 0.8566 0.23877 0.0
C1621 C 0.69059 0.83983 0.26087 0.0
C1622 C 0.68631 0.84346 0.34663 0.0
H1623 H 0.62241 0.80518 0.40591 0.0
H1624 H 0.63864 0.81245 0.36358 0.0
H1625 H 0.68021 0.83954 0.39548 0.0
H1626 H 0.72192 0.87358 0.26895 0.0
H1627 H 0.70571 0.86559 0.3119 0.0
H1628 H 0.66609 0.83634 0.28256 0.0
C1629 C 0.6412 0.81788 0.38577 0.0
C1630 C 0.67695 0.83893 0.37102 0.0
C1631 C 0.63191 0.81358 0.41032 0.0
C1632 C 0.71322 0.86414 0.26636 0.0
C1633 C 0.70398 0.85953 0.29103 0.0
C1634 C 0.66926 0.83703 0.30715 0.0
C1635 C 0.65365 0.82888 0.39002 0.0
C1636 C 0.66361 0.83351 0.36388 0.0
C1637 C 0.69252 0.84735 0.28848 0.0
C1638 C 0.68257 0.84255 0.31442 0.0
H1639 H 0.65004 0.83622 0.46675 0.0
H1640 H 0.66588 0.84404 0.42374 0.0
H1641 H 0.6498 0.82876 0.325 0.0
H1642 H 0.69807 0.83837 0.21532 0.0
H1643 H 0.68191 0.83037 0.25829 0.0
C1644 C 0.17981 0.81527 0.42954 0.0
C1645 C 0.19324 0.82059 0.43486 0.0
C1646 C 0.17531 0.82018 0.40527 0.0
C1647 C 0.18423 0.83694 0.32825 0.0
H1648 H 0.15788 0.8463 0.34706 0.0
C1649 C 0.1555 0.84687 0.23064 0.0
C1650 C 0.15484 0.85832 0.23411 0.0
C1651 C 0.16055 0.84264 0.25517 0.0
C1652 C 0.16527 0.84376 0.34151 0.0
H1653 H 0.21248 0.83507 0.41864 0.0
H1654 H 0.20461 0.84344 0.3756 0.0
H1655 H 0.16594 0.83802 0.38985 0.0
H1656 H 0.15883 0.87428 0.26604 0.0
H1657 H 0.16738 0.8667 0.30941 0.0
H1658 H 0.18336 0.84243 0.27978 0.0
C1659 C 0.19758 0.83555 0.39045 0.0
C1660 C 0.16981 0.83895 0.36591 0.0
C1661 C 0.20208 0.83081 0.41513 0.0
C1662 C 0.15927 0.86544 0.26272 0.0
C1663 C 0.16409 0.86107 0.28754 0.0
C1664 C 0.17951 0.84152 0.30373 0.0
C1665 C 0.18415 0.83035 0.38542 0.0
C1666 C 0.17936 0.83551 0.35955 0.0
C1667 C 0.16483 0.84966 0.28394 0.0
C1668 C 0.16999 0.845 0.31011 0.0
H1669 H 0.17277 0.80746 0.44457 0.0
H1670 H 0.16491 0.81593 0.40181 0.0
H1671 H 0.19154 0.8343 0.32264 0.0
H1672 H 0.15226 0.84124 0.20875 0.0
H1673 H 0.16094 0.83378 0.25181 0.0
C1674 C 0.37841 0.18178 0.59427 0.0
C1675 C 0.37894 0.19098 0.5721 0.0
C1676 C 0.3691 0.17707 0.61877 0.0
C1677 C 0.33723 0.17362 0.64176 0.0
H1678 H 0.34662 0.16779 0.72648 0.0
C1679 C 0.29887 0.14825 0.74224 0.0
C1680 C 0.30244 0.15331 0.77338 0.0
C1681 C 0.30811 0.15261 0.71756 0.0
C1682 C 0.34384 0.16944 0.70303 0.0
H1683 H 0.36992 0.20232 0.5584 0.0
H1684 H 0.35395 0.19436 0.60147 0.0
H1685 H 0.36296 0.17617 0.68423 0.0
H1686 H 0.31869 0.16678 0.80291 0.0
H1687 H 0.33465 0.17458 0.75991 0.0
H1688 H 0.31819 0.16719 0.66078 0.0
C1689 C 0.36064 0.19067 0.59972 0.0
C1690 C 0.35319 0.17411 0.67865 0.0
C1691 C 0.36994 0.19538 0.57524 0.0
C1692 C 0.31551 0.1628 0.77917 0.0
C1693 C 0.32473 0.16715 0.75454 0.0
C1694 C 0.32788 0.16896 0.66615 0.0
C1695 C 0.36005 0.18141 0.62176 0.0
C1696 C 0.35003 0.17631 0.64769 0.0
C1697 C 0.32117 0.16212 0.72338 0.0
C1698 C 0.33106 0.16684 0.69716 0.0
H1699 H 0.38524 0.17825 0.5928 0.0
H1700 H 0.36888 0.16986 0.63509 0.0
H1701 H 0.33439 0.17504 0.61814 0.0
H1702 H 0.28888 0.14101 0.73681 0.0
H1703 H 0.30503 0.14842 0.69396 0.0
C1704 C 0.82327 0.19598 0.60073 0.0
C1705 C 0.82474 0.19317 0.56886 0.0
C1706 C 0.82811 0.1918 0.6259 0.0
C1707 C 0.85243 0.1824 0.64585 0.0
H1708 H 0.82902 0.16251 0.71478 0.0
C1709 C 0.86672 0.15604 0.74065 0.0
C1710 C 0.86175 0.15469 0.77176 0.0
C1711 C 0.86249 0.1611 0.7161 0.0
C1712 C 0.83582 0.16825 0.69614 0.0
H1713 H 0.83278 0.18416 0.53829 0.0
H1714 H 0.84147 0.17711 0.58219 0.0
H1715 H 0.82145 0.1712 0.67239 0.0
H1716 H 0.84885 0.158 0.80193 0.0
H1717 H 0.84188 0.16734 0.75976 0.0
H1718 H 0.86694 0.17983 0.66977 0.0
C1719 C 0.83647 0.18243 0.58772 0.0
C1720 C 0.83141 0.17318 0.67173 0.0
C1721 C 0.83142 0.18638 0.56264 0.0
C1722 C 0.85269 0.15876 0.77802 0.0
C1723 C 0.84864 0.16404 0.75369 0.0
C1724 C 0.85692 0.17768 0.67056 0.0
C1725 C 0.83475 0.18497 0.61963 0.0
C1726 C 0.83964 0.18023 0.64622 0.0
C1727 C 0.85335 0.16517 0.72223 0.0
C1728 C 0.84866 0.17045 0.69602 0.0
H1729 H 0.81811 0.20115 0.6062 0.0
H1730 H 0.82671 0.19395 0.65028 0.0
H1731 H 0.85902 0.1879 0.62658 0.0
H1732 H 0.87366 0.15289 0.73516 0.0
H1733 H 0.86621 0.16156 0.6922 0.0
C1734 C 0.86614 0.71051 0.74119 0.0
C1735 C 0.85831 0.70923 0.76779 0.0
C1736 C 0.86145 0.70117 0.71677 0.0
C1737 C 0.83616 0.6669 0.69982 0.0
H1738 H 0.84445 0.67765 0.6113 0.0
C1739 C 0.8126 0.63091 0.59387 0.0
C1740 C 0.82073 0.63217 0.56795 0.0
C1741 C 0.81707 0.64024 0.61836 0.0
C1742 C 0.84215 0.67446 0.63591 0.0
H1743 H 0.83938 0.69696 0.78947 0.0
H1744 H 0.83111 0.6809 0.74663 0.0
H1745 H 0.85243 0.69405 0.65343 0.0
H1746 H 0.83991 0.6444 0.54742 0.0
H1747 H 0.84774 0.66045 0.59027 0.0
H1748 H 0.82586 0.6473 0.68224 0.0
C1749 C 0.84095 0.68906 0.74478 0.0
C1750 C 0.84674 0.68388 0.66012 0.0
C1751 C 0.84564 0.69839 0.76919 0.0
C1752 C 0.83342 0.64299 0.5672 0.0
C1753 C 0.83787 0.65231 0.5916 0.0
C1754 C 0.83155 0.65748 0.6756 0.0
C1755 C 0.8488 0.69029 0.71827 0.0
C1756 C 0.84383 0.68024 0.69242 0.0
C1757 C 0.82975 0.65109 0.61748 0.0
C1758 C 0.83451 0.66113 0.64332 0.0
H1759 H 0.87591 0.71877 0.73912 0.0
H1760 H 0.86783 0.70239 0.69691 0.0
H1761 H 0.83388 0.6637 0.72443 0.0
H1762 H 0.8028 0.62267 0.59536 0.0
H1763 H 0.8105 0.63903 0.63777 0.0
C1764 C 0.97605 0.49969 0.09631 0.0
C1765 C 0.968 0.48619 0.10103 0.0
C1766 C 0.98532 0.5045 0.07174 0.0
C1767 C 0.9947 0.49473 0.99581 0.0
H1768 H 0.02796 0.5259 0.01119 0.0
C1769 C 0.03844 0.51236 0.90892 0.0
C1770 C 0.04523 0.52573 0.9015 0.0
C1771 C 0.0291 0.50754 0.93334 0.0
C1772 C 0.01868 0.51725 0.00643 0.0
H1773 H 0.96334 0.4672 0.08278 0.0
H1774 H 0.97977 0.47554 0.04089 0.0
H1775 H 0.0115 0.51747 0.05323 0.0
H1776 H 0.04769 0.54454 0.91443 0.0
H1777 H 0.03143 0.53614 0.95718 0.0
H1778 H 1.00205 0.49443 0.94914 0.0
C1779 C 0.97879 0.48246 0.05584 0.0
C1780 C 0.0092 0.51241 0.03052 0.0
C1781 C 0.96945 0.47765 0.08026 0.0
C1782 C 0.04258 0.53419 0.91942 0.0
C1783 C 0.03334 0.52938 0.94406 0.0
C1784 C 1.00424 0.4995 0.97184 0.0
C1785 C 0.98691 0.49596 0.05128 0.0
C1786 C 0.99705 0.5011 0.02555 0.0
C1787 C 0.02641 0.51599 0.95116 0.0
C1788 C 0.01633 0.51084 0.97683 0.0
H1789 H 0.9754 0.50662 0.11198 0.0
H1790 H 0.99123 0.51495 0.06878 0.0
H1791 H 0.98542 0.48614 0.99077 0.0
H1792 H 0.04016 0.50557 0.89537 0.0
H1793 H 0.02402 0.49719 0.93838 0.0
C1794 C 0.52568 0.49811 0.11199 0.0
C1795 C 0.52873 0.48821 0.10633 0.0
C1796 C 0.52108 0.50272 0.08731 0.0
C1797 C 0.50437 0.49351 0.00951 0.0
H1798 H 0.51802 0.53066 0.99932 0.0
C1799 C 0.48069 0.51456 0.92508 0.0
C1800 C 0.48914 0.52501 0.90524 0.0
C1801 C 0.48558 0.51021 0.9497 0.0
C1802 C 0.51415 0.52026 1.00178 0.0
H1803 H 0.52936 0.47554 0.06973 0.0
H1804 H 0.52106 0.48342 0.02691 0.0
H1805 H 0.5266 0.52275 0.04157 0.0
H1806 H 0.50949 0.53905 0.89616 0.0
H1807 H 0.51796 0.53164 0.93955 0.0
H1808 H 0.49191 0.49101 0.96973 0.0
C1809 C 0.52222 0.48756 0.05061 0.0
C1810 C 0.51899 0.51573 0.02613 0.0
C1811 C 0.52695 0.48302 0.07523 0.0
C1812 C 0.50263 0.53114 0.91119 0.0
C1813 C 0.50751 0.52686 0.93602 0.0
C1814 C 0.49943 0.49804 0.98537 0.0
C1815 C 0.51925 0.49748 0.05635 0.0
C1816 C 0.51417 0.5023 0.03026 0.0
C1817 C 0.49906 0.51627 0.95538 0.0
C1818 C 0.50427 0.51147 0.98119 0.0
H1819 H 0.52661 0.50216 0.13568 0.0
H1820 H 0.51869 0.51023 0.09265 0.0
H1821 H 0.50039 0.48311 0.01221 0.0
H1822 H 0.47024 0.50974 0.92173 0.0
H1823 H 0.47879 0.50216 0.96452 0.0
C1824 C 0.53183 0.04289 0.07874 0.0
C1825 C 0.52346 0.0428 0.10274 0.0
C1826 C 0.52707 0.03366 0.0541 0.0
C1827 C 0.4997 1.00091 0.03389 0.0
H1828 H 0.51218 0.01095 0.94703 0.0
C1829 C 0.47763 0.96522 0.92685 0.0
C1830 C 0.48626 0.96568 0.90306 0.0
C1831 C 0.48196 0.97459 0.95121 0.0
C1832 C 0.50869 0.00793 0.97121 0.0
H1833 H 0.50346 0.03284 0.11948 0.0
H1834 H 0.49512 0.01688 0.07626 0.0
H1835 H 0.52005 0.0274 0.98904 0.0
H1836 H 0.50625 0.97657 0.88631 0.0
H1837 H 0.51384 0.99262 0.92907 0.0
H1838 H 0.48841 0.98141 0.01613 0.0
C1839 C 0.50541 0.02404 0.07665 0.0
C1840 C 0.51321 0.01739 0.99533 0.0
C1841 C 0.51017 0.03331 0.10124 0.0
C1842 C 0.49934 0.97575 0.90441 0.0
C1843 C 0.50367 0.9851 0.92874 0.0
C1844 C 0.4952 0.99144 0.00978 0.0
C1845 C 0.51381 0.02405 0.05283 0.0
C1846 C 0.50881 0.014 0.02701 0.0
C1847 C 0.49504 0.98469 0.95242 0.0
C1848 C 0.49967 0.9948 0.97811 0.0
H1849 H 0.5421 0.05013 0.07896 0.0
H1850 H 0.53384 0.0339 0.03635 0.0
H1851 H 0.49624 0.9979 0.0581 0.0
H1852 H 0.46752 0.95756 0.92678 0.0
H1853 H 0.475 0.97402 0.96883 0.0
C1854 C 0.15348 0.31343 0.94084 0.0
C1855 C 0.15964 0.30623 0.94817 0.0
C1856 C 0.15746 0.32176 0.91442 0.0
C1857 C 0.17536 0.32819 0.83786 0.0
H1858 H 0.17627 0.36133 0.84265 0.0
C1859 C 0.19846 0.36746 0.73956 0.0
C1860 C 0.19137 0.37349 0.72988 0.0
C1861 C 0.19459 0.35929 0.76627 0.0
C1862 C 0.17595 0.35205 0.8409 0.0
H1863 H 0.17497 0.30234 0.93412 0.0
H1864 H 0.18207 0.31705 0.88828 0.0
H1865 H 0.16975 0.34715 0.88948 0.0
H1866 H 0.17455 0.37551 0.7406 0.0
H1867 H 0.16792 0.36139 0.78756 0.0
H1868 H 0.18172 0.3332 0.78936 0.0
C1869 C 0.17397 0.31604 0.90247 0.0
C1870 C 0.1722 0.34391 0.86769 0.0
C1871 C 0.16994 0.30764 0.92877 0.0
C1872 C 0.18035 0.37119 0.74767 0.0
C1873 C 0.17653 0.36309 0.77453 0.0
C1874 C 0.17919 0.33636 0.81116 0.0
C1875 C 0.16773 0.32315 0.89487 0.0
C1876 C 0.17184 0.33187 0.86648 0.0
C1877 C 0.18359 0.35703 0.78404 0.0
C1878 C 0.17951 0.34837 0.8124 0.0
H1879 H 0.14539 0.31239 0.95513 0.0
H1880 H 0.15229 0.32691 0.90898 0.0
H1881 H 0.17496 0.31888 0.83589 0.0
H1882 H 0.20714 0.3692 0.7268 0.0
H1883 H 0.20032 0.3549 0.77333 0.0
C1884 C 0.64109 0.83412 0.74884 0.0
C1885 C 0.63932 0.82329 0.731 0.0
C1886 C 0.64916 0.83822 0.77575 0.0
C1887 C 0.67658 0.83692 0.81258 0.0
H1888 H 0.66457 0.84467 0.89141 0.0
C1889 C 0.70471 0.84558 0.93056 0.0
C1890 C 0.70562 0.85543 0.95089 0.0
C1891 C 0.69643 0.84165 0.90408 0.0
C1892 C 0.66815 0.84271 0.86948 0.0
H1893 H 0.64453 0.80817 0.72789 0.0
H1894 H 0.6588 0.8155 0.77442 0.0
H1895 H 0.65067 0.83814 0.84407 0.0
H1896 H 0.6986 0.8689 0.95956 0.0
H1897 H 0.68428 0.86221 0.91298 0.0
H1898 H 0.69412 0.84164 0.83764 0.0
C1899 C 0.65401 0.82087 0.76737 0.0
C1900 C 0.66017 0.83895 0.8424 0.0
C1901 C 0.64587 0.8167 0.74064 0.0
C1902 C 0.69798 0.86119 0.94445 0.0
C1903 C 0.68977 0.85733 0.9178 0.0
C1904 C 0.6846 0.84077 0.83955 0.0
C1905 C 0.65572 0.83164 0.78523 0.0
C1906 C 0.66429 0.83595 0.81375 0.0
C1907 C 0.68895 0.84756 0.89718 0.0
C1908 C 0.68045 0.84364 0.8684 0.0
H1909 H 0.63635 0.83954 0.74182 0.0
H1910 H 0.65043 0.84666 0.78889 0.0
H1911 H 0.68008 0.83484 0.79066 0.0
H1912 H 0.71034 0.84085 0.93525 0.0
H1913 H 0.69583 0.83391 0.88912 0.0
C1914 C 0.16811 0.86155 0.93156 0.0
C1915 C 0.15595 0.85331 0.94578 0.0
C1916 C 0.17227 0.85738 0.90516 0.0
C1917 C 0.15997 0.83373 0.83903 0.0
H1918 H 0.19583 0.8415 0.83346 0.0
C1919 C 0.18168 0.82558 0.72359 0.0
C1920 C 0.18969 0.82003 0.72706 0.0
C1921 C 0.17758 0.8296 0.7504 0.0
C1922 C 0.18577 0.83919 0.83476 0.0
H1923 H 0.13875 0.83409 0.94376 0.0
H1924 H 0.146 0.82683 0.89756 0.0
H1925 H 0.18859 0.84833 0.88051 0.0
H1926 H 0.1995 0.81419 0.76152 0.0
H1927 H 0.1924 0.82128 0.80826 0.0
H1928 H 0.15711 0.82445 0.79346 0.0
C1929 C 0.15223 0.8366 0.90662 0.0
C1930 C 0.18166 0.84321 0.86155 0.0
C1931 C 0.14808 0.84076 0.93307 0.0
C1932 C 0.19352 0.81862 0.75796 0.0
C1933 C 0.18944 0.82267 0.78475 0.0
C1934 C 0.1641 0.82975 0.81219 0.0
C1935 C 0.16436 0.84487 0.89233 0.0
C1936 C 0.16871 0.84052 0.86398 0.0
C1937 C 0.18142 0.82819 0.78127 0.0
C1938 C 0.17704 0.83243 0.80977 0.0
H1939 H 0.17432 0.87135 0.94044 0.0
H1940 H 0.18159 0.86405 0.8944 0.0
H1941 H 0.14997 0.83162 0.84006 0.0
H1942 H 0.17872 0.82698 0.7001 0.0
H1943 H 0.17155 0.83399 0.74692 0.0
C1944 C 0.36053 0.18023 0.28405 0.0
C1945 C 0.37366 0.18999 0.28062 0.0
C1946 C 0.35213 0.17611 0.25774 0.0
C1947 C 0.35185 0.1742 0.17042 0.0
H1948 H 0.31775 0.17105 0.17713 0.0
C1949 C 0.31891 0.16389 0.06016 0.0
C1950 C 0.30547 0.15552 0.06417 0.0
C1951 C 0.3272 0.16826 0.08665 0.0
C1952 C 0.32716 0.1717 0.17495 0.0
H1953 H 0.38815 0.20321 0.24675 0.0
H1954 H 0.37355 0.19577 0.20078 0.0
H1955 H 0.33221 0.17813 0.22343 0.0
H1956 H 0.29014 0.14502 0.09891 0.0
H1957 H 0.30461 0.15241 0.14515 0.0
H1958 H 0.34678 0.16754 0.12224 0.0
C1959 C 0.36982 0.19129 0.22386 0.0
C1960 C 0.33545 0.17579 0.20145 0.0
C1961 C 0.37818 0.1955 0.2502 0.0
C1962 C 0.30046 0.15161 0.09518 0.0
C1963 C 0.30875 0.15587 0.12165 0.0
C1964 C 0.34352 0.16998 0.144 0.0
C1965 C 0.35672 0.18157 0.22738 0.0
C1966 C 0.34788 0.17712 0.1994 0.0
C1967 C 0.32223 0.16425 0.11773 0.0
C1968 C 0.33108 0.16872 0.1459 0.0
H1969 H 0.35676 0.1756 0.30696 0.0
H1970 H 0.34211 0.16849 0.26102 0.0
H1971 H 0.36133 0.17499 0.16832 0.0
H1972 H 0.32301 0.16718 0.03653 0.0
H1973 H 0.33749 0.17489 0.08275 0.0
C1974 C 0.86063 0.15271 0.09224 0.0
C1975 C 0.85635 0.15321 0.06116 0.0
C1976 C 0.85611 0.15658 0.11853 0.0
C1977 C 0.84228 0.17706 0.14068 0.0
H1978 H 0.83131 0.15609 0.21787 0.0
C1979 C 0.81812 0.18862 0.24543 0.0
C1980 C 0.82172 0.18724 0.2766 0.0
C1981 C 0.82205 0.18418 0.21913 0.0
C1982 C 0.83448 0.16214 0.19664 0.0
H1983 H 0.84374 0.15792 0.03349 0.0
H1984 H 0.83604 0.16487 0.0794 0.0
H1985 H 0.83882 0.14892 0.17198 0.0
H1986 H 0.83211 0.1799 0.30457 0.0
H1987 H 0.83933 0.17254 0.25864 0.0
H1988 H 0.83817 0.1904 0.16536 0.0
C1989 C 0.84298 0.16159 0.08329 0.0
C1990 C 0.83876 0.15801 0.17036 0.0
C1991 C 0.84742 0.15764 0.05702 0.0
C1992 C 0.82931 0.18127 0.28086 0.0
C1993 C 0.8333 0.17688 0.25454 0.0
C1994 C 0.83809 0.18124 0.16702 0.0
C1995 C 0.84729 0.1611 0.1143 0.0
C1996 C 0.84268 0.16543 0.14212 0.0
C1997 C 0.82974 0.17831 0.22335 0.0
C1998 C 0.83414 0.17382 0.19531 0.0
H1999 H 0.86765 0.14955 0.09625 0.0
H2000 H 0.85972 0.15626 0.14213 0.0
H2001 H 0.84543 0.18306 0.11936 0.0
H2002 H 0.81241 0.19331 0.24125 0.0
H2003 H 0.819 0.18528 0.19548 0.0
C2004 C 0.86615 0.70963 0.0885 0.0
C2005 C 0.85967 0.70536 0.05901 0.0
C2006 C 0.86207 0.70136 0.11504 0.0
C2007 C 0.84388 0.66681 0.13796 0.0
H2008 H 0.84109 0.6802 0.22043 0.0
C2009 C 0.81995 0.63327 0.24671 0.0
C2010 C 0.8258 0.63779 0.27676 0.0
C2011 C 0.82415 0.64152 0.22016 0.0
C2012 C 0.84198 0.67635 0.19767 0.0
H2013 H 0.84371 0.68907 0.03443 0.0
H2014 H 0.83669 0.6746 0.08073 0.0
H2015 H 0.84835 0.69457 0.17396 0.0
H2016 H 0.84074 0.65447 0.30248 0.0
H2017 H 0.84817 0.66888 0.25605 0.0
H2018 H 0.8376 0.64861 0.16163 0.0
C2019 C 0.84501 0.68431 0.08316 0.0
C2020 C 0.84612 0.68458 0.17105 0.0
C2021 C 0.84905 0.6926 0.05664 0.0
C2022 C 0.83594 0.65075 0.2797 0.0
C2023 C 0.84018 0.65901 0.25312 0.0
C2024 C 0.83979 0.65859 0.1646 0.0
C2025 C 0.85145 0.68863 0.11266 0.0
C2026 C 0.84709 0.67989 0.14091 0.0
C2027 C 0.83432 0.65449 0.22303 0.0
C2028 C 0.83877 0.66326 0.19476 0.0
H2029 H 0.8745 0.71932 0.09101 0.0
H2030 H 0.86734 0.70489 0.13734 0.0
H2031 H 0.84471 0.66297 0.11512 0.0
H2032 H 0.81198 0.62338 0.24381 0.0
H2033 H 0.81928 0.6378 0.19748 0.0
C2034 C 0.97745 0.48138 0.40598 0.0
C2035 C 0.9744 0.48993 0.38988 0.0
C2036 C 0.98578 0.48564 0.43236 0.0
C2037 C 0.01104 0.51535 0.47272 0.0
H2038 H 1.00218 0.4924 0.54607 0.0
C2039 C 0.038 0.53231 0.59364 0.0
C2040 C 0.04113 0.52369 0.60913 0.0
C2041 C 0.02988 0.52828 0.56682 0.0
C2042 C 1.00486 0.49887 0.52566 0.0
H2043 H 0.97771 0.50965 0.38881 0.0
H2044 H 0.99222 0.51709 0.43502 0.0
H2045 H 0.98811 0.48524 0.49913 0.0
H2046 H 0.03832 0.50414 0.60826 0.0
H2047 H 0.0241 0.4971 0.5616 0.0
H2048 H 0.02777 0.529 0.49939 0.0
C2049 C 0.98832 0.50714 0.42695 0.0
C2050 C 0.9968 0.49477 0.49874 0.0
C2051 C 0.98 0.50288 0.40049 0.0
C2052 C 0.03592 0.51095 0.59724 0.0
C2053 C 0.02779 0.50692 0.57047 0.0
C2054 C 0.01908 0.51947 0.49969 0.0
C2055 C 0.99124 0.49854 0.44331 0.0
C2056 C 0.99982 0.50295 0.47192 0.0
C2057 C 0.02469 0.51554 0.55494 0.0
C2058 C 0.01609 0.51125 0.52642 0.0
H2059 H 0.97345 0.4714 0.39803 0.0
H2060 H 0.98803 0.47884 0.44406 0.0
H2061 H 0.01373 0.52182 0.45229 0.0
H2062 H 0.04171 0.54213 0.60248 0.0
H2063 H 0.02752 0.53509 0.55563 0.0
C2064 C 0.48078 0.51032 0.59518 0.0
C2065 C 0.48995 0.52025 0.61498 0.0
C2066 C 0.48485 0.50594 0.569 0.0
C2067 C 0.51374 0.50583 0.53519 0.0
H2068 H 0.4939 0.49742 0.45635 0.0
C2069 C 0.53221 0.49649 0.41569 0.0
C2070 C 0.5232 0.48563 0.39786 0.0
C2071 C 0.52817 0.50064 0.44237 0.0
C2072 C 0.49947 0.49963 0.4783 0.0
H2073 H 0.51054 0.53346 0.62283 0.0
H2074 H 0.51767 0.526 0.57679 0.0
H2075 H 0.48687 0.50486 0.50258 0.0
H2076 H 0.50288 0.47053 0.39448 0.0
H2077 H 0.49582 0.47796 0.4407 0.0
H2078 H 0.52646 0.50079 0.51055 0.0
C2079 C 0.50735 0.52138 0.58183 0.0
C2080 C 0.49543 0.50385 0.50483 0.0
C2081 C 0.50327 0.52568 0.60817 0.0
C2082 C 0.51004 0.47907 0.40729 0.0
C2083 C 0.50599 0.48329 0.43382 0.0
C2084 C 0.51783 0.5017 0.50855 0.0
C2085 C 0.49818 0.51147 0.56188 0.0
C2086 C 0.5025 0.50698 0.53364 0.0
C2087 C 0.51502 0.4941 0.45166 0.0
C2088 C 0.51072 0.49853 0.47987 0.0
H2089 H 0.47045 0.50584 0.60015 0.0
H2090 H 0.47754 0.49813 0.55453 0.0
H2091 H 0.5193 0.50794 0.55712 0.0
H2092 H 0.54237 0.50192 0.4088 0.0
H2093 H 0.53531 0.50911 0.45546 0.0
C2094 C 0.49332 0.98387 0.61424 0.0
C2095 C 0.49071 0.97095 0.61173 0.0
C2096 C 0.49766 0.99215 0.5877 0.0
C2097 C 0.49766 0.99189 0.50003 0.0
H2098 H 0.5268 0.02707 0.50817 0.0
C2099 C 0.5211 0.025 0.39021 0.0
C2100 C 0.52514 0.03828 0.39357 0.0
C2101 C 0.51702 0.01678 0.41686 0.0
C2102 C 0.51854 0.01734 0.50555 0.0
H2103 H 0.4909 0.95671 0.57938 0.0
H2104 H 0.49822 0.97109 0.533 0.0
H2105 H 0.51933 0.0128 0.55482 0.0
H2106 H 0.52783 0.05333 0.42724 0.0
H2107 H 0.52048 0.03897 0.47366 0.0
H2108 H 0.49669 0.99642 0.45096 0.0
C2109 C 0.49679 0.97476 0.55547 0.0
C2110 C 0.51429 0.00917 0.53228 0.0
C2111 C 0.49256 0.96652 0.58205 0.0
C2112 C 0.52495 0.04317 0.42404 0.0
C2113 C 0.52077 0.03494 0.45063 0.0
C2114 C 0.50184 1.00008 0.47336 0.0
C2115 C 0.49938 0.98765 0.55803 0.0
C2116 C 0.50383 0.99635 0.52976 0.0
C2117 C 0.51678 0.02165 0.4474 0.0
C2118 C 0.51234 0.01291 0.47577 0.0
H2119 H 0.49181 0.98755 0.63658 0.0
H2120 H 0.49945 1.00201 0.59023 0.0
H2121 H 0.48946 0.9821 0.49751 0.0
H2122 H 0.5213 0.02102 0.36703 0.0
H2123 H 0.51422 0.00665 0.41357 0.0
C2124 C 0.17946 0.22339 0.02995 0.0
C2125 C 0.16686 0.21692 0.04323 0.0
C2126 C 0.1853 0.21639 0.01893 0.0
C2127 C 0.18384 0.18455 0.02562 0.0
H2128 H 0.20304 0.19495 0.94574 0.0
C2129 C 0.20363 0.15382 0.96634 0.0
C2130 C 0.21622 0.1606 0.95316 0.0
C2131 C 0.1973 0.1605 0.97637 0.0
C2132 C 0.19784 0.19199 0.96825 0.0
H2133 H 0.15057 0.19793 0.05533 0.0
H2134 H 0.1608 0.18571 0.03629 0.0
H2135 H 0.19274 0.20694 0.96573 0.0
H2136 H 0.23201 0.17976 0.94013 0.0
H2137 H 0.22099 0.1914 0.95758 0.0
H2138 H 0.189 0.16964 0.02827 0.0
C2139 C 0.16621 0.19624 0.03468 0.0
C2140 C 0.19193 0.19887 0.97973 0.0
C2141 C 0.16034 0.20325 0.04566 0.0
C2142 C 0.22223 0.1742 0.9497 0.0
C2143 C 0.21591 0.18088 0.95977 0.0
C2144 C 0.18977 0.17767 0.01417 0.0
C2145 C 0.17872 0.20271 0.02096 0.0
C2146 C 0.18489 0.19527 0.00861 0.0
C2147 C 0.2034 0.17414 0.97351 0.0
C2148 C 0.19688 0.18132 0.98537 0.0
H2149 H 0.18487 0.23392 0.02822 0.0
H2150 H 0.19504 0.22171 0.00906 0.0
H2151 H 0.17865 0.18161 0.04816 0.0
H2152 H 0.19863 0.14333 0.96892 0.0
H2153 H 0.18758 0.15496 0.98628 0.0
C2154 C 0.83674 0.05287 0.98541 0.0
C2155 C 0.84737 0.05775 0.96412 0.0
C2156 C 0.83092 0.04005 0.99664 0.0
C2157 C 0.82601 0.0077 0.97762 0.0
H2158 H 0.81889 1.00097 0.06829 0.0
C2159 C 0.8068 0.95622 0.02949 0.0
C2160 C 0.79741 0.95206 0.05391 0.0
C2161 C 0.81343 0.96923 0.01965 0.0
C2162 C 0.82064 1.00262 0.04285 0.0
H2163 H 0.86011 0.05277 0.93796 0.0
H2164 H 0.84967 0.03029 0.9569 0.0
H2165 H 0.82906 0.02328 0.04831 0.0
H2166 H 0.78772 0.95832 0.08745 0.0
H2167 H 0.79904 0.98101 0.06985 0.0
H2168 H 0.81731 0.9871 0.97181 0.0
C2169 C 0.8459 0.03646 0.96487 0.0
C2170 C 0.82651 0.01543 0.03143 0.0
C2171 C 0.85183 0.04934 0.95391 0.0
C2172 C 0.795 0.96128 0.06879 0.0
C2173 C 0.80153 0.97429 0.05869 0.0
C2174 C 0.82 0.99488 0.98895 0.0
C2175 C 0.83545 0.03171 0.98657 0.0
C2176 C 0.82928 0.01811 0.9987 0.0
C2177 C 0.81073 0.97843 0.0337 0.0
C2178 C 0.81725 0.99215 0.02175 0.0
H2179 H 0.83281 0.05891 0.9933 0.0
H2180 H 0.82274 0.03661 0.01293 0.0
H2181 H 0.82786 0.00945 0.95221 0.0
H2182 H 0.80897 0.94935 0.01786 0.0
H2183 H 0.82066 0.97207 1.00093 0.0
C2184 C 0.96018 0.78592 0.96171 0.0
C2185 C 0.95494 0.79298 0.94695 0.0
C2186 C 0.973 0.79225 0.97296 0.0
C2187 C 0.99924 0.8241 1.00055 0.0
H2188 H 0.0213 0.80909 0.9857 0.0
C2189 C 0.05386 0.85081 0.0358 0.0
C2190 C 0.05911 0.84324 0.04719 0.0
C2191 C 0.04118 0.84487 0.0235 0.0
C2192 C 0.01523 0.81334 0.99049 0.0
H2193 H 0.95933 0.81232 0.93211 0.0
H2194 H 0.98166 0.82337 0.95228 0.0
H2195 H 0.9993 0.79844 0.96389 0.0
H2196 H 0.05501 0.82349 0.05552 0.0
H2197 H 0.03284 0.81312 0.03473 0.0
H2198 H 0.01507 0.83888 0.02761 0.0
C2199 C 0.97575 0.81291 0.95524 0.0
C2200 C 1.00262 0.80724 0.97785 0.0
C2201 C 0.96293 0.80656 0.94371 0.0
C2202 C 0.05131 0.82959 0.04654 0.0
C2203 C 0.03861 0.82366 0.03447 0.0
C2204 C 0.01183 0.83016 0.01341 0.0
C2205 C 0.98092 0.80583 0.97003 0.0
C2206 C 0.99446 0.81253 0.98279 0.0
C2207 C 0.0334 0.83121 0.02248 0.0
C2208 C 0.02 0.82483 0.00864 0.0
H2209 H 0.95428 0.77551 0.96536 0.0
H2210 H 0.97662 0.78653 0.98467 0.0
H2211 H 0.99313 0.82833 0.00513 0.0
H2212 H 0.05969 0.86135 0.03553 0.0
H2213 H 0.03761 0.85102 0.01409 0.0
C2214 C 0.85149 0.79982 0.9874 0.0
C2215 C 0.84712 0.79166 0.96043 0.0
C2216 C 0.845 0.8063 0.99769 0.0
C2217 C 0.8209 0.81596 0.9716 0.0
H2218 H 0.81776 0.81971 0.06283 0.0
C2219 C 0.7863 0.83229 0.02432 0.0
C2220 C 0.79147 0.84206 0.04796 0.0
C2221 C 0.7932 0.82625 0.01399 0.0
C2222 C 0.81865 0.81883 0.03728 0.0
H2223 H 0.83254 0.78391 0.92303 0.0
H2224 H 0.82099 0.79495 0.9413 0.0
H2225 H 0.8295 0.80901 0.04369 0.0
H2226 H 0.80797 0.85292 0.07957 0.0
H2227 H 0.81985 0.84209 0.06205 0.0
H2228 H 0.80976 0.82553 0.96537 0.0
C2229 C 0.82962 0.79662 0.95418 0.0
C2230 C 0.82543 0.81274 0.02624 0.0
C2231 C 0.83621 0.79025 0.9437 0.0
C2232 C 0.80359 0.84534 0.06163 0.0
C2233 C 0.81043 0.83918 0.0515 0.0
C2234 C 0.81401 0.82192 0.98267 0.0
C2235 C 0.83387 0.80468 0.98147 0.0
C2236 C 0.82667 0.81123 0.99322 0.0
C2237 C 0.80538 0.82968 0.02729 0.0
C2238 C 0.81281 0.82343 0.01563 0.0
H2239 H 0.85999 0.80126 1.00052 0.0
H2240 H 0.84877 0.81263 0.01831 0.0
H2241 H 0.82183 0.81521 0.94603 0.0
H2242 H 0.77686 0.82925 0.01375 0.0
H2243 H 0.78894 0.8188 0.99571 0.0
C2244 C 0.17813 0.95926 0.0585 0.0
C2245 C 0.16458 0.95174 0.05441 0.0
C2246 C 0.18495 0.9722 0.04783 0.0
C2247 C 0.18139 0.99497 0.99234 0.0
H2248 H 0.21263 0.02106 0.03514 0.0
C2249 C 0.20737 0.05011 0.96153 0.0
C2250 C 0.22099 0.0564 0.95766 0.0
C2251 C 0.20042 0.03734 0.97325 0.0
C2252 C 0.20396 0.01384 0.02285 0.0
H2253 H 0.14746 0.95198 0.03736 0.0
H2254 H 0.15919 0.97465 0.02005 0.0
H2255 H 0.20053 0.99909 0.05726 0.0
H2256 H 0.23784 0.05384 0.96242 0.0
H2257 H 0.22574 0.03178 0.98379 0.0
H2258 H 0.18472 0.00991 0.95842 0.0
C2259 C 0.1647 0.97051 0.03034 0.0
C2260 C 0.19703 1.00121 0.03543 0.0
C2261 C 0.15793 0.95754 0.04052 0.0
C2262 C 0.22742 0.04949 0.96564 0.0
C2263 C 0.22049 0.0368 0.97781 0.0
C2264 C 0.18822 0.00764 0.98007 0.0
C2265 C 0.17835 0.97798 0.03323 0.0
C2266 C 0.18565 0.99156 0.0203 0.0
C2267 C 0.20693 0.03061 0.98183 0.0
C2268 C 0.19961 0.01719 0.99509 0.0
H2269 H 0.18351 0.95497 0.0688 0.0
H2270 H 0.19546 0.9775 0.05014 0.0
H2271 H 0.17288 0.9878 0.97948 0.0
H2272 H 0.20206 0.05513 0.95629 0.0
H2273 H 0.18998 0.03284 0.97636 0.0
C2274 C 0.95835 0.15724 0.98347 0.0
C2275 C 0.95454 0.16165 0.95658 0.0
C2276 C 0.97136 0.16354 0.99333 0.0
C2277 C 1.00515 0.18711 0.9667 0.0
H2278 H 0.01207 0.19116 0.05792 0.0
C2279 C 0.0562 0.22195 0.01808 0.0
C2280 C 0.06071 0.21718 0.04292 0.0
C2281 C 0.04326 0.21496 0.00781 0.0
C2282 C 0.0103 0.19 0.03239 0.0
H2283 H 0.96143 0.17603 0.91868 0.0
H2284 H 0.98414 0.18722 0.93613 0.0
H2285 H 0.98963 0.17936 0.03886 0.0
H2286 H 0.05491 0.20133 0.07676 0.0
H2287 H 0.03222 0.18926 0.05917 0.0
H2288 H 0.02585 0.19802 0.96037 0.0
C2289 C 0.97712 0.17873 0.94933 0.0
C2290 C 0.99743 0.18319 0.0214 0.0
C2291 C 0.9641 0.17233 0.9393 0.0
C2292 C 0.05179 0.20539 0.05781 0.0
C2293 C 0.03878 0.19843 0.04766 0.0
C2294 C 0.01801 0.19401 0.97772 0.0
C2295 C 0.98091 0.17451 0.97673 0.0
C2296 C 0.99466 0.18165 0.98838 0.0
C2297 C 0.03442 0.20308 0.02228 0.0
C2298 C 0.02073 0.19556 0.01068 0.0
H2299 H 0.95124 0.1489 0.997 0.0
H2300 H 0.97392 0.1598 0.01404 0.0
H2301 H 1.00345 0.18595 0.94116 0.0
H2302 H 0.06267 0.23115 0.00654 0.0
H2303 H 0.04015 0.21894 0.98864 0.0
C2304 C 0.82635 0.53664 0.37302 0.0
C2305 C 0.83354 0.55026 0.37632 0.0
C2306 C 0.83228 0.52978 0.36132 0.0
C2307 C 0.86118 0.53468 0.3149 0.0
H2308 H 0.852 0.50064 0.34847 0.0
C2309 C 0.89055 0.50894 0.28596 0.0
C2310 C 0.88352 0.49546 0.27979 0.0
C2311 C 0.8842 0.5155 0.29669 0.0
C2312 C 0.85457 0.51008 0.3386 0.0
H2313 H 0.85271 0.56729 0.37107 0.0
H2314 H 0.86308 0.55536 0.35127 0.0
H2315 H 0.84157 0.51226 0.37022 0.0
H2316 H 0.86413 0.47845 0.27924 0.0
H2317 H 0.85311 0.48989 0.29839 0.0
H2318 H 0.87432 0.53255 0.28363 0.0
C2319 C 0.85278 0.54997 0.35685 0.0
C2320 C 0.84858 0.51675 0.35105 0.0
C2321 C 0.84685 0.55682 0.36834 0.0
C2322 C 0.86992 0.48877 0.28424 0.0
C2323 C 0.86358 0.49533 0.2952 0.0
C2324 C 0.86722 0.52805 0.30261 0.0
C2325 C 0.84555 0.53637 0.35282 0.0
C2326 C 0.85183 0.52916 0.33944 0.0
C2327 C 0.87066 0.50876 0.30175 0.0
C2328 C 0.86401 0.51568 0.31435 0.0
H2329 H 0.81605 0.53131 0.3786 0.0
H2330 H 0.82635 0.51934 0.35819 0.0
H2331 H 0.86375 0.54409 0.30486 0.0
H2332 H 0.90105 0.5144 0.28343 0.0
H2333 H 0.88997 0.52582 0.3019 0.0
C2334 C 0.52119 0.38577 0.30784 0.0
C2335 C 0.51411 0.39016 0.28978 0.0
C2336 C 0.51512 0.37305 0.31992 0.0
C2337 C 0.48268 0.3456 0.34135 0.0
H2338 H 0.5 0.32518 0.33897 0.0
C2339 C 0.45575 0.29074 0.37162 0.0
C2340 C 0.46248 0.28574 0.38885 0.0
C2341 C 0.46223 0.30356 0.36028 0.0
C2342 C 0.49509 0.3308 0.34023 0.0
H2343 H 0.49512 0.38443 0.26964 0.0
H2344 H 0.48454 0.3623 0.2908 0.0
H2345 H 0.51097 0.34727 0.3173 0.0
H2346 H 0.48133 0.29042 0.40798 0.0
H2347 H 0.49266 0.31284 0.38832 0.0
H2348 H 0.46684 0.3292 0.36433 0.0
C2349 C 0.49476 0.36876 0.296 0.0
C2350 C 0.50138 0.34347 0.32774 0.0
C2351 C 0.50083 0.38145 0.28384 0.0
C2352 C 0.47588 0.29392 0.39452 0.0
C2353 C 0.48237 0.30677 0.38319 0.0
C2354 C 0.47642 0.33296 0.3539 0.0
C2355 C 0.5018 0.36442 0.31437 0.0
C2356 C 0.49522 0.35099 0.32798 0.0
C2357 C 0.47563 0.31175 0.36587 0.0
C2358 C 0.4825 0.32536 0.35335 0.0
H2359 H 0.53137 0.39226 0.31339 0.0
H2360 H 0.52079 0.37009 0.33431 0.0
H2361 H 0.47775 0.3512 0.34248 0.0
H2362 H 0.44549 0.28466 0.3662 0.0
H2363 H 0.45676 0.30696 0.34653 0.0
C2364 C 0.62886 0.13714 0.28409 0.0
C2365 C 0.62035 0.12407 0.29265 0.0
C2366 C 0.64184 0.14363 0.29455 0.0
C2367 C 0.66726 0.13742 0.3298 0.0
H2368 H 0.68436 0.17429 0.34931 0.0
C2369 C 0.72205 0.1665 0.35937 0.0
C2370 C 0.72664 0.1769 0.38124 0.0
C2371 C 0.70915 0.16021 0.34876 0.0
C2372 C 0.6797 0.16395 0.34442 0.0
H2373 H 0.6191 0.10757 0.31849 0.0
H2374 H 0.64127 0.119 0.33805 0.0
H2375 H 0.66187 0.16311 0.33106 0.0
H2376 H 0.72095 0.18865 0.40932 0.0
H2377 H 0.69829 0.17723 0.39219 0.0
H2378 H 0.6848 0.13806 0.34466 0.0
C2379 C 0.63809 0.12422 0.32263 0.0
C2380 C 0.66682 0.15756 0.33335 0.0
C2381 C 0.62522 0.11769 0.31181 0.0
C2382 C 0.71781 0.18062 0.39273 0.0
C2383 C 0.70481 0.17418 0.38245 0.0
C2384 C 0.68004 0.14375 0.34131 0.0
C2385 C 0.64663 0.13728 0.31415 0.0
C2386 C 0.66041 0.14419 0.32579 0.0
C2387 C 0.70031 0.16393 0.36013 0.0
C2388 C 0.68651 0.15713 0.34862 0.0
H2389 H 0.62549 0.14246 0.26969 0.0
H2390 H 0.64811 0.15361 0.28705 0.0
H2391 H 0.6628 0.12718 0.32381 0.0
H2392 H 0.72842 0.16313 0.35036 0.0
H2393 H 0.70619 0.15252 0.33123 0.0
C2394 C 0.52016 0.1362 0.31197 0.0
C2395 C 0.51499 0.12675 0.28767 0.0
C2396 C 0.51365 0.14272 0.32175 0.0
C2397 C 0.48766 0.15001 0.29828 0.0
H2398 H 0.48722 0.15634 0.38918 0.0
C2399 C 0.45393 0.16706 0.35337 0.0
C2400 C 0.45941 0.17707 0.37636 0.0
C2401 C 0.46075 0.16101 0.3425 0.0
C2402 C 0.48735 0.15476 0.3637 0.0
H2403 H 0.49905 0.11691 0.25415 0.0
H2404 H 0.48756 0.12816 0.27146 0.0
H2405 H 0.49905 0.14583 0.36962 0.0
H2406 H 0.47642 0.18843 0.40606 0.0
H2407 H 0.48825 0.17772 0.38741 0.0
H2408 H 0.47577 0.1588 0.29254 0.0
C2409 C 0.49676 0.13069 0.28268 0.0
C2410 C 0.49417 0.14876 0.35242 0.0
C2411 C 0.50334 0.12423 0.27273 0.0
C2412 C 0.47181 0.18066 0.38868 0.0
C2413 C 0.47861 0.17455 0.37791 0.0
C2414 C 0.48077 0.15595 0.3096 0.0
C2415 C 0.50175 0.1399 0.30765 0.0
C2416 C 0.49446 0.14633 0.31953 0.0
C2417 C 0.47321 0.16472 0.35449 0.0
C2418 C 0.48054 0.15841 0.34245 0.0
H2419 H 0.52923 0.13851 0.3236 0.0
H2420 H 0.51797 0.14996 0.34047 0.0
H2421 H 0.4878 0.14848 0.27278 0.0
H2422 H 0.44429 0.16383 0.34381 0.0
H2423 H 0.45621 0.15331 0.32488 0.0
C2424 C 0.82693 0.28926 0.36231 0.0
C2425 C 0.83203 0.28492 0.38666 0.0
C2426 C 0.83355 0.30226 0.35243 0.0
C2427 C 0.86022 0.33543 0.37529 0.0
H2428 H 0.85969 0.34221 0.28466 0.0
C2429 C 0.89426 0.38573 0.31787 0.0
C2430 C 0.88846 0.39057 0.29657 0.0
C2431 C 0.88733 0.37289 0.32901 0.0
C2432 C 0.85984 0.34048 0.31007 0.0
H2433 H 0.84796 0.29083 0.42006 0.0
H2434 H 0.85974 0.31353 0.40238 0.0
H2435 H 0.84774 0.3199 0.30441 0.0
H2436 H 0.87076 0.38547 0.27023 0.0
H2437 H 0.85883 0.36298 0.28907 0.0
H2438 H 0.87261 0.35606 0.38062 0.0
C2439 C 0.85048 0.30696 0.39131 0.0
C2440 C 0.85294 0.32768 0.32148 0.0
C2441 C 0.84375 0.29394 0.40146 0.0
C2442 C 0.87564 0.38209 0.2862 0.0
C2443 C 0.86876 0.36919 0.2971 0.0
C2444 C 0.86724 0.34822 0.36379 0.0
C2445 C 0.84554 0.31126 0.36635 0.0
C2446 C 0.85297 0.32496 0.35429 0.0
C2447 C 0.87449 0.36449 0.31886 0.0
C2448 C 0.86709 0.35089 0.33106 0.0
H2449 H 0.81782 0.28254 0.35075 0.0
H2450 H 0.82925 0.30524 0.33376 0.0
H2451 H 0.86033 0.33378 0.40073 0.0
H2452 H 0.9042 0.39184 0.32589 0.0
H2453 H 0.89209 0.36949 0.34535 0.0
C2454 C 0.62941 0.50728 0.28575 0.0
C2455 C 0.62063 0.49454 0.29608 0.0
C2456 C 0.64237 0.5137 0.29622 0.0
C2457 C 0.66778 0.50784 0.33022 0.0
H2458 H 0.68381 0.54396 0.35684 0.0
C2459 C 0.72303 0.53978 0.35406 0.0
C2460 C 0.727 0.54827 0.38044 0.0
C2461 C 0.70995 0.53287 0.34488 0.0
C2462 C 0.67944 0.53385 0.34972 0.0
H2463 H 0.6187 0.47843 0.32484 0.0
H2464 H 0.64127 0.48961 0.34314 0.0
H2465 H 0.66128 0.53267 0.33804 0.0
H2466 H 0.72029 0.55605 0.4181 0.0
H2467 H 0.69735 0.54392 0.40213 0.0
H2468 H 0.68591 0.50899 0.34202 0.0
C2469 C 0.63815 0.49465 0.32693 0.0
C2470 C 0.66658 0.52743 0.3386 0.0
C2471 C 0.62518 0.48829 0.31665 0.0
C2472 C 0.71753 0.54952 0.3978 0.0
C2473 C 0.70442 0.54268 0.38844 0.0
C2474 C 0.68066 0.51429 0.34113 0.0
C2475 C 0.64688 0.50747 0.31705 0.0
C2476 C 0.66059 0.51434 0.32869 0.0
C2477 C 0.70049 0.53434 0.36174 0.0
C2478 C 0.68666 0.52737 0.35099 0.0
H2479 H 0.62619 0.51242 0.27013 0.0
H2480 H 0.64888 0.52352 0.28791 0.0
H2481 H 0.66349 0.49779 0.32256 0.0
H2482 H 0.73008 0.5385 0.34037 0.0
H2483 H 0.70728 0.52661 0.32407 0.0
C2484 C 0.53648 0.81966 0.64117 0.0
C2485 C 0.54814 0.82635 0.62362 0.0
C2486 C 0.52986 0.82603 0.65134 0.0
C2487 C 0.52634 0.85483 0.63583 0.0
H2488 H 0.51252 0.84862 0.72219 0.0
C2489 C 0.49309 0.87428 0.6799 0.0
C2490 C 0.4955 0.87987 0.71062 0.0
C2491 C 0.49924 0.86749 0.66954 0.0
C2492 C 0.51638 0.85052 0.69808 0.0
H2493 H 0.56189 0.84505 0.60287 0.0
H2494 H 0.55026 0.85611 0.62029 0.0
H2495 H 0.52388 0.8375 0.70315 0.0
H2496 H 0.50622 0.8825 0.75466 0.0
H2497 H 0.5169 0.87055 0.73663 0.0
H2498 H 0.51899 0.86799 0.63088 0.0
C2499 C 0.54619 0.84588 0.62598 0.0
C2500 C 0.52277 0.84404 0.68704 0.0
C2501 C 0.55285 0.83952 0.6159 0.0
C2502 C 0.50401 0.87821 0.731 0.0
C2503 C 0.51015 0.87137 0.72064 0.0
C2504 C 0.51989 0.86127 0.64681 0.0
C2505 C 0.53469 0.83925 0.64411 0.0
C2506 C 0.52783 0.84611 0.65578 0.0
C2507 C 0.50795 0.86605 0.68964 0.0
C2508 C 0.51482 0.85919 0.67807 0.0
H2509 H 0.53243 0.80945 0.64708 0.0
H2510 H 0.5209 0.82056 0.66474 0.0
H2511 H 0.53003 0.85659 0.61156 0.0
H2512 H 0.48639 0.87513 0.66378 0.0
H2513 H 0.49711 0.8633 0.64577 0.0
C2514 C 0.18682 0.71879 0.6356 0.0
C2515 C 0.17933 0.72389 0.62254 0.0
C2516 C 0.18084 0.70606 0.64752 0.0
C2517 C 0.15005 0.68028 0.68092 0.0
H2518 H 0.16303 0.65715 0.65776 0.0
C2519 C 0.1221 0.62549 0.71354 0.0
C2520 C 0.12927 0.61925 0.72021 0.0
C2521 C 0.12834 0.63838 0.70257 0.0
C2522 C 0.15939 0.66352 0.66499 0.0
H2523 H 0.15958 0.71928 0.61133 0.0
H2524 H 0.14919 0.69722 0.63294 0.0
H2525 H 0.1737 0.6793 0.63671 0.0
H2526 H 0.14866 0.62177 0.72164 0.0
H2527 H 0.15965 0.64436 0.70354 0.0
H2528 H 0.13592 0.66469 0.70974 0.0
C2529 C 0.15971 0.70316 0.634 0.0
C2530 C 0.16549 0.67621 0.65274 0.0
C2531 C 0.16569 0.71584 0.6217 0.0
C2532 C 0.14286 0.62628 0.71638 0.0
C2533 C 0.14914 0.63922 0.70579 0.0
C2534 C 0.14404 0.66764 0.69351 0.0
C2535 C 0.16721 0.69814 0.64709 0.0
C2536 C 0.16084 0.6847 0.66042 0.0
C2537 C 0.14196 0.64542 0.69833 0.0
C2538 C 0.14858 0.65904 0.6856 0.0
H2539 H 0.19732 0.72473 0.63732 0.0
H2540 H 0.18687 0.7025 0.65778 0.0
H2541 H 0.14636 0.68666 0.68762 0.0
H2542 H 0.11158 0.62027 0.71579 0.0
H2543 H 0.12242 0.64267 0.69659 0.0
C2544 C 0.38911 0.50089 0.68483 0.0
C2545 C 0.39293 0.5089 0.71218 0.0
C2546 C 0.37619 0.49449 0.6744 0.0
C2547 C 0.34445 0.49385 0.68526 0.0
H2548 H 0.33153 0.46167 0.63774 0.0
C2549 C 0.29389 0.46966 0.62408 0.0
C2550 C 0.28684 0.456 0.62074 0.0
C2551 C 0.30674 0.47603 0.63528 0.0
C2552 C 0.33481 0.47052 0.65142 0.0
H2553 H 0.38574 0.51609 0.75028 0.0
H2554 H 0.36312 0.50417 0.73355 0.0
H2555 H 0.35333 0.47213 0.65921 0.0
H2556 H 0.28818 0.43848 0.62644 0.0
H2557 H 0.30996 0.44936 0.64817 0.0
H2558 H 0.32558 0.49171 0.67938 0.0
C2559 C 0.37024 0.50327 0.71928 0.0
C2560 C 0.34754 0.47674 0.66326 0.0
C2561 C 0.38327 0.50995 0.7293 0.0
C2562 C 0.29307 0.44895 0.62912 0.0
C2563 C 0.30579 0.45529 0.64108 0.0
C2564 C 0.33159 0.48744 0.67411 0.0
C2565 C 0.3665 0.49551 0.69146 0.0
C2566 C 0.35265 0.48859 0.68005 0.0
C2567 C 0.31288 0.46895 0.64425 0.0
C2568 C 0.32658 0.47572 0.65673 0.0
H2569 H 0.39608 0.49948 0.67126 0.0
H2570 H 0.3739 0.48886 0.65257 0.0
H2571 H 0.34797 0.50303 0.69762 0.0
H2572 H 0.28947 0.4755 0.6185 0.0
H2573 H 0.31185 0.48656 0.63669 0.0
C2574 C 0.18783 0.47353 0.63093 0.0
C2575 C 0.181 0.46051 0.62049 0.0
C2576 C 0.18112 0.47973 0.64173 0.0
C2577 C 0.14998 0.47277 0.67731 0.0
H2578 H 0.16017 0.50802 0.65147 0.0
C2579 C 0.11949 0.49677 0.71115 0.0
C2580 C 0.126 0.51024 0.71746 0.0
C2581 C 0.12627 0.49077 0.69958 0.0
C2582 C 0.1573 0.49825 0.65938 0.0
H2583 H 0.16177 0.44382 0.61305 0.0
H2584 H 0.15004 0.45465 0.63199 0.0
H2585 H 0.17179 0.49754 0.63006 0.0
H2586 H 0.1449 0.52789 0.7167 0.0
H2587 H 0.15679 0.51735 0.69787 0.0
H2588 H 0.1357 0.47349 0.70713 0.0
C2589 C 0.1606 0.46005 0.63182 0.0
C2590 C 0.16394 0.49223 0.64694 0.0
C2591 C 0.1673 0.45389 0.62067 0.0
C2592 C 0.13955 0.51748 0.71251 0.0
C2593 C 0.14636 0.51145 0.70117 0.0
C2594 C 0.14343 0.47883 0.69 0.0
C2595 C 0.16743 0.47301 0.64269 0.0
C2596 C 0.16033 0.4794 0.65568 0.0
C2597 C 0.13979 0.49803 0.69424 0.0
C2598 C 0.14696 0.49165 0.68115 0.0
H2599 H 0.19838 0.47891 0.63091 0.0
H2600 H 0.18667 0.4897 0.65011 0.0
H2601 H 0.1471 0.46295 0.6849 0.0
H2602 H 0.1091 0.49081 0.71507 0.0
H2603 H 0.12082 0.48045 0.69423 0.0
C2604 C 0.51142 0.62729 0.73308 0.0
C2605 C 0.49857 0.6188 0.72329 0.0
C2606 C 0.51798 0.64028 0.72278 0.0
C2607 C 0.51609 0.66176 0.65971 0.0
H2608 H 0.5434 0.68922 0.71039 0.0
C2609 C 0.54068 0.71702 0.62955 0.0
C2610 C 0.5544 0.72369 0.62841 0.0
C2611 C 0.53369 0.70424 0.64118 0.0
C2612 C 0.53581 0.68162 0.69598 0.0
H2613 H 0.48227 0.61723 0.69636 0.0
H2614 H 0.49333 0.64001 0.67988 0.0
H2615 H 0.53121 0.6672 0.73215 0.0
H2616 H 0.57139 0.72174 0.63801 0.0
H2617 H 0.55916 0.69973 0.65957 0.0
H2618 H 0.5205 0.67643 0.62406 0.0
C2619 C 0.49864 0.63665 0.69436 0.0
C2620 C 0.52885 0.66895 0.70833 0.0
C2621 C 0.49221 0.62362 0.70409 0.0
C2622 C 0.56088 0.71714 0.63913 0.0
C2623 C 0.55389 0.70447 0.65136 0.0
C2624 C 0.52287 0.67448 0.6477 0.0
C2625 C 0.51174 0.64513 0.7029 0.0
C2626 C 0.51893 0.65879 0.69029 0.0
C2627 C 0.54024 0.69791 0.65253 0.0
C2628 C 0.53285 0.6845 0.66561 0.0
H2629 H 0.51656 0.62372 0.74757 0.0
H2630 H 0.52808 0.64636 0.72956 0.0
H2631 H 0.50878 0.65424 0.64463 0.0
H2632 H 0.53528 0.72173 0.62219 0.0
H2633 H 0.52315 0.6994 0.64202 0.0
C2634 C 0.29098 0.82292 0.64473 0.0
C2635 C 0.28646 0.82851 0.62205 0.0
C2636 C 0.30395 0.82956 0.65497 0.0
C2637 C 0.33682 0.85682 0.63374 0.0
H2638 H 0.34393 0.85542 0.72379 0.0
C2639 C 0.38745 0.89061 0.68881 0.0
C2640 C 0.39236 0.88506 0.71057 0.0
C2641 C 0.37452 0.88363 0.67835 0.0
C2642 C 0.34213 0.8558 0.69852 0.0
H2643 H 0.29212 0.84548 0.59224 0.0
H2644 H 0.31473 0.85712 0.61019 0.0
H2645 H 0.32157 0.84336 0.70429 0.0
H2646 H 0.38737 0.86779 0.73864 0.0
H2647 H 0.36476 0.85563 0.72058 0.0
H2648 H 0.35739 0.86936 0.62806 0.0
C2649 C 0.30829 0.84749 0.61974 0.0
C2650 C 0.3293 0.84887 0.68729 0.0
C2651 C 0.29531 0.84082 0.60941 0.0
C2652 C 0.3839 0.87243 0.72217 0.0
C2653 C 0.37093 0.86545 0.71176 0.0
C2654 C 0.34965 0.86379 0.64499 0.0
C2655 C 0.31276 0.842 0.64288 0.0
C2656 C 0.32646 0.84929 0.65475 0.0
C2657 C 0.36613 0.87092 0.68946 0.0
C2658 C 0.35247 0.86339 0.67753 0.0
H2659 H 0.28448 0.81336 0.65458 0.0
H2660 H 0.30709 0.8249 0.6723 0.0
H2661 H 0.33506 0.85721 0.60846 0.0
H2662 H 0.39359 0.90041 0.67986 0.0
H2663 H 0.37108 0.88824 0.66168 0.0
loop_
_geom_bond_atom_site_label_1
_geom_bond_atom_site_label_2
_geom_bond_distance
_geom_bond_site_symmetry_2
_ccdc_geom_bond_type
Li0 N17 1.990 . S
Li0 O60 1.956 . S
Li0 O61 1.970 . S
Li0 O62 1.961 . S
Li1 N25 1.990 . S
Li1 O60 1.970 . S
Li1 O61 1.956 . S
Li1 O63 1.961 . S
Li2 N47 1.990 1_554 S
Li2 O60 1.961 . S
Li2 O62 1.956 . S
Li2 O63 1.970 . S
Li3 N53 1.990 . S
Li3 O61 1.961 . S
Li3 O62 1.970 . S
Li3 O63 1.956 . S
C4 C6 1.348 . S
C4 C7 1.356 . S
C4 O60 1.325 . S
N5 C8 1.314 . S
N5 C9 1.279 . S
C6 C4 1.348 . S
C6 C8 1.353 . S
C6 H64 0.929 . S
C7 C4 1.356 . S
C7 C9 1.358 . S
C7 H65 0.930 . S
C8 N5 1.314 . S
C8 C6 1.353 . S
C8 H66 0.930 . S
C9 N5 1.279 . S
C9 C7 1.358 . S
C9 H67 0.930 . S
C10 C13 1.348 . S
C10 C14 1.356 . S
C10 O61 1.325 . S
C11 N12 1.279 . S
C11 C14 1.358 . S
C11 H68 0.930 . S
N12 C11 1.279 . S
N12 C15 1.314 . S
C13 C10 1.348 . S
C13 C15 1.353 . S
C13 H69 0.929 . S
C14 C10 1.356 . S
C14 C11 1.358 . S
C14 H70 0.930 . S
C15 N12 1.314 . S
C15 C13 1.353 . S
C15 H71 0.930 . S
C16 N17 1.314 . S
C16 C21 1.353 . S
C16 H22 0.930 . S
N17 Li0 1.990 . S
N17 C16 1.314 . S
N17 C19 1.279 . S
C18 C19 1.358 . S
C18 C20 1.356 . S
C18 H72 0.930 . S
C19 N17 1.279 . S
C19 C18 1.358 . S
C19 H23 0.930 . S
C20 C18 1.356 . S
C20 C21 1.348 . S
C21 C16 1.353 . S
C21 C20 1.348 . S
C21 H73 0.929 . S
H22 C16 0.930 . S
H23 C19 0.930 . S
C24 N25 1.314 . S
C24 C26 1.353 . S
C24 H30 0.930 . S
N25 Li1 1.990 . S
N25 C24 1.314 . S
N25 C28 1.279 . S
C26 C24 1.353 . S
C26 C29 1.348 . S
C26 H74 0.929 . S
C27 C28 1.358 . S
C27 C29 1.356 . S
C27 H75 0.930 . S
C28 N25 1.279 . S
C28 C27 1.358 . S
C28 H31 0.930 . S
C29 C26 1.348 . S
C29 C27 1.356 . S
H30 C24 0.930 . S
H31 C28 0.930 . S
C32 C34 1.348 . S
C32 C35 1.356 . S
C32 O62 1.325 . S
N33 C36 1.314 . S
N33 C37 1.279 . S
C34 C32 1.348 . S
C34 C36 1.353 . S
C34 H76 0.929 . S
C35 C32 1.356 . S
C35 C37 1.358 . S
C35 H77 0.930 . S
C36 N33 1.314 . S
C36 C34 1.353 . S
C36 H78 0.930 . S
C37 N33 1.279 . S
C37 C35 1.358 . S
C37 H79 0.930 . S
C38 C39 1.348 . S
C38 C40 1.356 . S
C38 O63 1.325 1_556 S
C39 C38 1.348 . S
C39 C41 1.353 . S
C39 H80 0.929 . S
C40 C38 1.356 . S
C40 C42 1.358 . S
C40 H81 0.930 1_556 S
C41 C39 1.353 . S
C41 N43 1.314 . S
C41 H82 0.930 . S
C42 C40 1.358 . S
C42 N43 1.279 . S
C42 H83 0.930 . S
N43 C41 1.314 . S
N43 C42 1.279 . S
C44 C46 1.353 . S
C44 N47 1.314 . S
C44 H50 0.930 . S
C45 N47 1.279 . S
C45 C48 1.358 . S
C45 H51 0.930 . S
C46 C44 1.353 . S
C46 C49 1.348 . S
C46 H84 0.929 . S
N47 Li2 1.990 1_556 S
N47 C44 1.314 . S
N47 C45 1.279 . S
C48 C45 1.358 . S
C48 C49 1.356 . S
C48 H85 0.930 . S
C49 C46 1.348 . S
C49 C48 1.356 . S
H50 C44 0.930 . S
H51 C45 0.930 . S
C52 N53 1.314 . S
C52 C54 1.353 . S
C52 H58 0.930 . S
N53 Li3 1.990 . S
N53 C52 1.314 . S
N53 C56 1.279 . S
C54 C52 1.353 . S
C54 C57 1.348 . S
C54 H86 0.929 . S
C55 C56 1.358 . S
C55 C57 1.356 . S
C55 H87 0.930 . S
C56 N53 1.279 . S
C56 C55 1.358 . S
C56 H59 0.930 . S
C57 C54 1.348 . S
C57 C55 1.356 . S
H58 C52 0.930 . S
H59 C56 0.930 . S
O60 Li0 1.956 . S
O60 Li1 1.970 . S
O60 Li2 1.961 . S
O60 C4 1.325 . S
O61 Li0 1.970 . S
O61 Li1 1.956 . S
O61 Li3 1.961 . S
O61 C10 1.325 . S
O62 Li0 1.961 . S
O62 Li2 1.956 . S
O62 Li3 1.970 . S
O62 C32 1.325 . S
O63 Li1 1.961 . S
O63 Li2 1.970 . S
O63 Li3 1.956 . S
O63 C38 1.325 1_554 S
H64 C6 0.929 . S
H65 C7 0.930 . S
H66 C8 0.930 . S
H67 C9 0.930 . S
H68 C11 0.930 . S
H69 C13 0.929 . S
H70 C14 0.930 . S
H71 C15 0.930 . S
H72 C18 0.930 . S
H73 C21 0.929 . S
H74 C26 0.929 . S
H75 C27 0.930 . S
H76 C34 0.929 . S
H77 C35 0.930 . S
H78 C36 0.930 . S
H79 C37 0.930 . S
H80 C39 0.929 . S
H81 C40 0.930 1_554 S
H82 C41 0.930 . S
H83 C42 0.930 . S
H84 C46 0.929 . S
H85 C48 0.930 . S
H86 C54 0.929 . S
H87 C55 0.930 . S
Li88 N105 1.990 . S
Li88 O148 1.956 . S
Li88 O149 1.970 . S
Li88 O150 1.961 . S
Li89 N113 1.990 . S
Li89 O148 1.970 . S
Li89 O149 1.956 . S
Li89 O151 1.961 . S
Li90 N135 1.990 . S
Li90 O148 1.961 . S
Li90 O150 1.956 . S
Li90 O151 1.970 . S
Li91 N141 1.990 1_554 S
Li91 O149 1.961 . S
Li91 O150 1.970 . S
Li91 O151 1.956 . S
C92 C94 1.348 . S
C92 C95 1.356 . S
C92 O148 1.325 . S
N93 C96 1.314 . S
N93 C97 1.279 . S
C94 C92 1.348 . S
C94 C96 1.353 . S
C94 H152 0.929 . S
C95 C92 1.356 . S
C95 C97 1.358 . S
C95 H153 0.930 . S
C96 N93 1.314 . S
C96 C94 1.353 . S
C96 H154 0.930 . S
C97 N93 1.279 . S
C97 C95 1.358 . S
C97 H155 0.930 . S
C98 C101 1.348 . S
C98 C102 1.356 . S
C98 O149 1.325 . S
C99 N100 1.279 . S
C99 C102 1.358 . S
C99 H156 0.930 . S
N100 C99 1.279 . S
N100 C103 1.314 . S
C101 C98 1.348 . S
C101 C103 1.353 . S
C101 H157 0.929 . S
C102 C98 1.356 . S
C102 C99 1.358 . S
C102 H158 0.930 . S
C103 N100 1.314 . S
C103 C101 1.353 . S
C103 H159 0.930 . S
C104 N105 1.314 . S
C104 C109 1.353 . S
C104 H110 0.930 . S
N105 Li88 1.990 . S
N105 C104 1.314 . S
N105 C107 1.279 . S
C106 C107 1.358 . S
C106 C108 1.356 . S
C106 H160 0.930 . S
C107 N105 1.279 . S
C107 C106 1.358 . S
C107 H111 0.930 . S
C108 C106 1.356 . S
C108 C109 1.348 . S
C109 C104 1.353 . S
C109 C108 1.348 . S
C109 H161 0.929 . S
H110 C104 0.930 . S
H111 C107 0.930 . S
C112 N113 1.314 . S
C112 C114 1.353 . S
C112 H118 0.930 . S
N113 Li89 1.990 . S
N113 C112 1.314 . S
N113 C116 1.279 . S
C114 C112 1.353 . S
C114 C117 1.348 . S
C114 H162 0.929 . S
C115 C116 1.358 . S
C115 C117 1.356 . S
C115 H163 0.930 . S
C116 N113 1.279 . S
C116 C115 1.358 . S
C116 H119 0.930 . S
C117 C114 1.348 . S
C117 C115 1.356 . S
H118 C112 0.930 . S
H119 C116 0.930 . S
C120 C122 1.348 . S
C120 C123 1.356 . S
C120 O150 1.325 1_556 S
N121 C124 1.314 . S
N121 C125 1.279 . S
C122 C120 1.348 . S
C122 C124 1.353 . S
C122 H164 0.929 . S
C123 C120 1.356 . S
C123 C125 1.358 . S
C123 H165 0.930 1_556 S
C124 N121 1.314 . S
C124 C122 1.353 . S
C124 H166 0.930 . S
C125 N121 1.279 . S
C125 C123 1.358 . S
C125 H167 0.930 . S
C126 C127 1.348 . S
C126 C128 1.356 . S
C126 O151 1.325 . S
C127 C126 1.348 . S
C127 C129 1.353 . S
C127 H168 0.929 . S
C128 C126 1.356 . S
C128 C130 1.358 . S
C128 H169 0.930 . S
C129 C127 1.353 . S
C129 N131 1.314 . S
C129 H170 0.930 . S
C130 C128 1.358 . S
C130 N131 1.279 . S
C130 H171 0.930 . S
N131 C129 1.314 . S
N131 C130 1.279 . S
C132 C134 1.353 . S
C132 N135 1.314 . S
C132 H138 0.930 . S
C133 N135 1.279 . S
C133 C136 1.358 . S
C133 H139 0.930 . S
C134 C132 1.353 . S
C134 C137 1.348 . S
C134 H172 0.929 . S
N135 Li90 1.990 . S
N135 C132 1.314 . S
N135 C133 1.279 . S
C136 C133 1.358 . S
C136 C137 1.356 . S
C136 H173 0.930 . S
C137 C134 1.348 . S
C137 C136 1.356 . S
H138 C132 0.930 . S
H139 C133 0.930 . S
C140 N141 1.314 . S
C140 C142 1.353 . S
C140 H146 0.930 . S
N141 Li91 1.990 1_556 S
N141 C140 1.314 . S
N141 C144 1.279 . S
C142 C140 1.353 . S
C142 C145 1.348 . S
C142 H174 0.929 . S
C143 C144 1.358 . S
C143 C145 1.356 . S
C143 H175 0.930 . S
C144 N141 1.279 . S
C144 C143 1.358 . S
C144 H147 0.930 . S
C145 C142 1.348 . S
C145 C143 1.356 . S
H146 C140 0.930 . S
H147 C144 0.930 . S
O148 Li88 1.956 . S
O148 Li89 1.970 . S
O148 Li90 1.961 . S
O148 C92 1.325 . S
O149 Li88 1.970 . S
O149 Li89 1.956 . S
O149 Li91 1.961 . S
O149 C98 1.325 . S
O150 Li88 1.961 . S
O150 Li90 1.956 . S
O150 Li91 1.970 . S
O150 C120 1.325 1_554 S
O151 Li89 1.961 . S
O151 Li90 1.970 . S
O151 Li91 1.956 . S
O151 C126 1.325 . S
H152 C94 0.929 . S
H153 C95 0.930 . S
H154 C96 0.930 . S
H155 C97 0.930 . S
H156 C99 0.930 . S
H157 C101 0.929 . S
H158 C102 0.930 . S
H159 C103 0.930 . S
H160 C106 0.930 . S
H161 C109 0.929 . S
H162 C114 0.929 . S
H163 C115 0.930 . S
H164 C122 0.929 . S
H165 C123 0.930 1_554 S
H166 C124 0.930 . S
H167 C125 0.930 . S
H168 C127 0.929 . S
H169 C128 0.930 . S
H170 C129 0.930 . S
H171 C130 0.930 . S
H172 C134 0.929 . S
H173 C136 0.930 . S
H174 C142 0.929 . S
H175 C143 0.930 . S
Li176 N193 1.990 . S
Li176 O236 1.956 . S
Li176 O237 1.970 . S
Li176 O238 1.961 . S
Li177 N201 1.990 . S
Li177 O236 1.970 . S
Li177 O237 1.956 . S
Li177 O239 1.961 . S
Li178 N223 1.990 1_554 S
Li178 O236 1.961 . S
Li178 O238 1.956 . S
Li178 O239 1.970 . S
Li179 N229 1.990 . S
Li179 O237 1.961 . S
Li179 O238 1.970 . S
Li179 O239 1.956 . S
C180 C182 1.348 . S
C180 C183 1.356 . S
C180 O236 1.325 . S
N181 C184 1.314 . S
N181 C185 1.279 . S
C182 C180 1.348 . S
C182 C184 1.353 . S
C182 H240 0.929 . S
C183 C180 1.356 . S
C183 C185 1.358 . S
C183 H241 0.930 . S
C184 N181 1.314 . S
C184 C182 1.353 . S
C184 H242 0.930 . S
C185 N181 1.279 . S
C185 C183 1.358 . S
C185 H243 0.930 . S
C186 C189 1.348 . S
C186 C190 1.356 . S
C186 O237 1.325 . S
C187 N188 1.279 . S
C187 C190 1.358 . S
C187 H244 0.930 . S
N188 C187 1.279 . S
N188 C191 1.314 . S
C189 C186 1.348 . S
C189 C191 1.353 . S
C189 H245 0.929 . S
C190 C186 1.356 . S
C190 C187 1.358 . S
C190 H246 0.930 . S
C191 N188 1.314 . S
C191 C189 1.353 . S
C191 H247 0.930 . S
C192 N193 1.314 . S
C192 C197 1.353 . S
C192 H198 0.930 . S
N193 Li176 1.990 . S
N193 C192 1.314 . S
N193 C195 1.279 . S
C194 C195 1.358 . S
C194 C196 1.356 . S
C194 H248 0.930 . S
C195 N193 1.279 . S
C195 C194 1.358 . S
C195 H199 0.930 . S
C196 C194 1.356 . S
C196 C197 1.348 . S
C197 C192 1.353 . S
C197 C196 1.348 . S
C197 H249 0.929 . S
H198 C192 0.930 . S
H199 C195 0.930 . S
C200 N201 1.314 . S
C200 C202 1.353 . S
C200 H206 0.930 . S
N201 Li177 1.990 . S
N201 C200 1.314 . S
N201 C204 1.279 . S
C202 C200 1.353 . S
C202 C205 1.348 . S
C202 H250 0.929 . S
C203 C204 1.358 . S
C203 C205 1.356 . S
C203 H251 0.930 . S
C204 N201 1.279 . S
C204 C203 1.358 . S
C204 H207 0.930 . S
C205 C202 1.348 . S
C205 C203 1.356 . S
H206 C200 0.930 . S
H207 C204 0.930 . S
C208 C210 1.348 . S
C208 C211 1.356 . S
C208 O238 1.325 . S
N209 C212 1.314 . S
N209 C213 1.279 . S
C210 C208 1.348 . S
C210 C212 1.353 . S
C210 H252 0.929 . S
C211 C208 1.356 . S
C211 C213 1.358 . S
C211 H253 0.930 . S
C212 N209 1.314 . S
C212 C210 1.353 . S
C212 H254 0.930 . S
C213 N209 1.279 . S
C213 C211 1.358 . S
C213 H255 0.930 . S
C214 C215 1.348 . S
C214 C216 1.356 . S
C214 O239 1.325 1_556 S
C215 C214 1.348 . S
C215 C217 1.353 . S
C215 H256 0.929 . S
C216 C214 1.356 . S
C216 C218 1.358 . S
C216 H257 0.930 1_556 S
C217 C215 1.353 . S
C217 N219 1.314 . S
C217 H258 0.930 . S
C218 C216 1.358 . S
C218 N219 1.279 . S
C218 H259 0.930 . S
N219 C217 1.314 . S
N219 C218 1.279 . S
C220 C222 1.353 . S
C220 N223 1.314 . S
C220 H226 0.930 . S
C221 N223 1.279 . S
C221 C224 1.358 . S
C221 H227 0.930 . S
C222 C220 1.353 . S
C222 C225 1.348 . S
C222 H260 0.929 . S
N223 Li178 1.990 1_556 S
N223 C220 1.314 . S
N223 C221 1.279 . S
C224 C221 1.358 . S
C224 C225 1.356 . S
C224 H261 0.930 . S
C225 C222 1.348 . S
C225 C224 1.356 . S
H226 C220 0.930 . S
H227 C221 0.930 . S
C228 N229 1.314 . S
C228 C230 1.353 . S
C228 H234 0.930 . S
N229 Li179 1.990 . S
N229 C228 1.314 . S
N229 C232 1.279 . S
C230 C228 1.353 . S
C230 C233 1.348 . S
C230 H262 0.929 . S
C231 C232 1.358 . S
C231 C233 1.356 . S
C231 H263 0.930 . S
C232 N229 1.279 . S
C232 C231 1.358 . S
C232 H235 0.930 . S
C233 C230 1.348 . S
C233 C231 1.356 . S
H234 C228 0.930 . S
H235 C232 0.930 . S
O236 Li176 1.956 . S
O236 Li177 1.970 . S
O236 Li178 1.961 . S
O236 C180 1.325 . S
O237 Li176 1.970 . S
O237 Li177 1.956 . S
O237 Li179 1.961 . S
O237 C186 1.325 . S
O238 Li176 1.961 . S
O238 Li178 1.956 . S
O238 Li179 1.970 . S
O238 C208 1.325 . S
O239 Li177 1.961 . S
O239 Li178 1.970 . S
O239 Li179 1.956 . S
O239 C214 1.325 1_554 S
H240 C182 0.929 . S
H241 C183 0.930 . S
H242 C184 0.930 . S
H243 C185 0.930 . S
H244 C187 0.930 . S
H245 C189 0.929 . S
H246 C190 0.930 . S
H247 C191 0.930 . S
H248 C194 0.930 . S
H249 C197 0.929 . S
H250 C202 0.929 . S
H251 C203 0.930 . S
H252 C210 0.929 . S
H253 C211 0.930 . S
H254 C212 0.930 . S
H255 C213 0.930 . S
H256 C215 0.929 . S
H257 C216 0.930 1_554 S
H258 C217 0.930 . S
H259 C218 0.930 . S
H260 C222 0.929 . S
H261 C224 0.930 . S
H262 C230 0.929 . S
H263 C231 0.930 . S
Li264 N281 1.990 . S
Li264 O324 1.956 . S
Li264 O325 1.970 . S
Li264 O326 1.961 . S
Li265 N289 1.990 1_556 S
Li265 O324 1.970 . S
Li265 O325 1.956 . S
Li265 O327 1.961 . S
Li266 N311 1.990 . S
Li266 O324 1.961 . S
Li266 O326 1.956 . S
Li266 O327 1.970 . S
Li267 N317 1.990 . S
Li267 O325 1.961 . S
Li267 O326 1.970 . S
Li267 O327 1.956 . S
C268 C270 1.348 . S
C268 C271 1.356 . S
C268 O324 1.325 1_554 S
N269 C272 1.314 . S
N269 C273 1.279 . S
C270 C268 1.348 . S
C270 C272 1.353 . S
C270 H328 0.929 . S
C271 C268 1.356 . S
C271 C273 1.358 . S
C271 H329 0.930 1_554 S
C272 N269 1.314 . S
C272 C270 1.353 . S
C272 H330 0.930 . S
C273 N269 1.279 . S
C273 C271 1.358 . S
C273 H331 0.930 . S
C274 C277 1.348 . S
C274 C278 1.356 . S
C274 O325 1.325 . S
C275 N276 1.279 . S
C275 C278 1.358 . S
C275 H332 0.930 . S
N276 C275 1.279 . S
N276 C279 1.314 . S
C277 C274 1.348 . S
C277 C279 1.353 . S
C277 H333 0.929 . S
C278 C274 1.356 . S
C278 C275 1.358 . S
C278 H334 0.930 . S
C279 N276 1.314 . S
C279 C277 1.353 . S
C279 H335 0.930 . S
C280 N281 1.314 . S
C280 C285 1.353 . S
C280 H286 0.930 . S
N281 Li264 1.990 . S
N281 C280 1.314 . S
N281 C283 1.279 . S
C282 C283 1.358 . S
C282 C284 1.356 . S
C282 H336 0.930 . S
C283 N281 1.279 . S
C283 C282 1.358 . S
C283 H287 0.930 . S
C284 C282 1.356 . S
C284 C285 1.348 . S
C285 C280 1.353 . S
C285 C284 1.348 . S
C285 H337 0.929 . S
H286 C280 0.930 . S
H287 C283 0.930 . S
C288 N289 1.314 . S
C288 C290 1.353 . S
C288 H294 0.930 . S
N289 Li265 1.990 1_554 S
N289 C288 1.314 . S
N289 C292 1.279 . S
C290 C288 1.353 . S
C290 C293 1.348 . S
C290 H338 0.929 . S
C291 C292 1.358 . S
C291 C293 1.356 . S
C291 H339 0.930 . S
C292 N289 1.279 . S
C292 C291 1.358 . S
C292 H295 0.930 . S
C293 C290 1.348 . S
C293 C291 1.356 . S
H294 C288 0.930 . S
H295 C292 0.930 . S
C296 C298 1.348 . S
C296 C299 1.356 . S
C296 O326 1.325 . S
N297 C300 1.314 . S
N297 C301 1.279 . S
C298 C296 1.348 . S
C298 C300 1.353 . S
C298 H340 0.929 . S
C299 C296 1.356 . S
C299 C301 1.358 . S
C299 H341 0.930 . S
C300 N297 1.314 . S
C300 C298 1.353 . S
C300 H342 0.930 . S
C301 N297 1.279 . S
C301 C299 1.358 . S
C301 H343 0.930 . S
C302 C303 1.348 . S
C302 C304 1.356 . S
C302 O327 1.325 . S
C303 C302 1.348 . S
C303 C305 1.353 . S
C303 H344 0.929 . S
C304 C302 1.356 . S
C304 C306 1.358 . S
C304 H345 0.930 . S
C305 C303 1.353 . S
C305 N307 1.314 . S
C305 H346 0.930 . S
C306 C304 1.358 . S
C306 N307 1.279 . S
C306 H347 0.930 . S
N307 C305 1.314 . S
N307 C306 1.279 . S
C308 C310 1.353 . S
C308 N311 1.314 . S
C308 H314 0.930 . S
C309 N311 1.279 . S
C309 C312 1.358 . S
C309 H315 0.930 . S
C310 C308 1.353 . S
C310 C313 1.348 . S
C310 H348 0.929 . S
N311 Li266 1.990 . S
N311 C308 1.314 . S
N311 C309 1.279 . S
C312 C309 1.358 . S
C312 C313 1.356 . S
C312 H349 0.930 . S
C313 C310 1.348 . S
C313 C312 1.356 . S
H314 C308 0.930 . S
H315 C309 0.930 . S
C316 N317 1.314 . S
C316 C318 1.353 . S
C316 H322 0.930 . S
N317 Li267 1.990 . S
N317 C316 1.314 . S
N317 C320 1.279 . S
C318 C316 1.353 . S
C318 C321 1.348 . S
C318 H350 0.929 . S
C319 C320 1.358 . S
C319 C321 1.356 . S
C319 H351 0.930 . S
C320 N317 1.279 . S
C320 C319 1.358 . S
C320 H323 0.930 . S
C321 C318 1.348 . S
C321 C319 1.356 . S
H322 C316 0.930 . S
H323 C320 0.930 . S
O324 Li264 1.956 . S
O324 Li265 1.970 . S
O324 Li266 1.961 . S
O324 C268 1.325 1_556 S
O325 Li264 1.970 . S
O325 Li265 1.956 . S
O325 Li267 1.961 . S
O325 C274 1.325 . S
O326 Li264 1.961 . S
O326 Li266 1.956 . S
O326 Li267 1.970 . S
O326 C296 1.325 . S
O327 Li265 1.961 . S
O327 Li266 1.970 . S
O327 Li267 1.956 . S
O327 C302 1.325 . S
H328 C270 0.929 . S
H329 C271 0.930 1_556 S
H330 C272 0.930 . S
H331 C273 0.930 . S
H332 C275 0.930 . S
H333 C277 0.929 . S
H334 C278 0.930 . S
H335 C279 0.930 . S
H336 C282 0.930 . S
H337 C285 0.929 . S
H338 C290 0.929 . S
H339 C291 0.930 . S
H340 C298 0.929 . S
H341 C299 0.930 . S
H342 C300 0.930 . S
H343 C301 0.930 . S
H344 C303 0.929 . S
H345 C304 0.930 . S
H346 C305 0.930 . S
H347 C306 0.930 . S
H348 C310 0.929 . S
H349 C312 0.930 . S
H350 C318 0.929 . S
H351 C319 0.930 . S
Li352 N369 1.990 . S
Li352 O412 1.956 . S
Li352 O413 1.970 . S
Li352 O414 1.961 . S
Li353 N377 1.990 1_556 S
Li353 O412 1.970 . S
Li353 O413 1.956 . S
Li353 O415 1.961 . S
Li354 N399 1.990 . S
Li354 O412 1.961 . S
Li354 O414 1.956 . S
Li354 O415 1.970 . S
Li355 N405 1.990 . S
Li355 O413 1.961 . S
Li355 O414 1.970 . S
Li355 O415 1.956 . S
C356 C358 1.348 . S
C356 C359 1.356 . S
C356 O412 1.325 1_554 S
N357 C360 1.314 . S
N357 C361 1.279 . S
C358 C356 1.348 . S
C358 C360 1.353 . S
C358 H416 0.929 . S
C359 C356 1.356 . S
C359 C361 1.358 . S
C359 H417 0.930 1_554 S
C360 N357 1.314 . S
C360 C358 1.353 . S
C360 H418 0.930 . S
C361 N357 1.279 . S
C361 C359 1.358 . S
C361 H419 0.930 . S
C362 C365 1.348 . S
C362 C366 1.356 . S
C362 O413 1.325 . S
C363 N364 1.279 . S
C363 C366 1.358 . S
C363 H420 0.930 . S
N364 C363 1.279 . S
N364 C367 1.314 . S
C365 C362 1.348 . S
C365 C367 1.353 . S
C365 H421 0.929 . S
C366 C362 1.356 . S
C366 C363 1.358 . S
C366 H422 0.930 . S
C367 N364 1.314 . S
C367 C365 1.353 . S
C367 H423 0.930 . S
C368 N369 1.314 . S
C368 C373 1.353 . S
C368 H374 0.930 . S
N369 Li352 1.990 . S
N369 C368 1.314 . S
N369 C371 1.279 . S
C370 C371 1.358 . S
C370 C372 1.356 . S
C370 H424 0.930 . S
C371 N369 1.279 . S
C371 C370 1.358 . S
C371 H375 0.930 . S
C372 C370 1.356 . S
C372 C373 1.348 . S
C373 C368 1.353 . S
C373 C372 1.348 . S
C373 H425 0.929 . S
H374 C368 0.930 . S
H375 C371 0.930 . S
C376 N377 1.314 . S
C376 C378 1.353 . S
C376 H382 0.930 . S
N377 Li353 1.990 1_554 S
N377 C376 1.314 . S
N377 C380 1.279 . S
C378 C376 1.353 . S
C378 C381 1.348 . S
C378 H426 0.929 . S
C379 C380 1.358 . S
C379 C381 1.356 . S
C379 H427 0.930 . S
C380 N377 1.279 . S
C380 C379 1.358 . S
C380 H383 0.930 . S
C381 C378 1.348 . S
C381 C379 1.356 . S
H382 C376 0.930 . S
H383 C380 0.930 . S
C384 C386 1.348 . S
C384 C387 1.356 . S
C384 O414 1.325 . S
N385 C388 1.314 . S
N385 C389 1.279 . S
C386 C384 1.348 . S
C386 C388 1.353 . S
C386 H428 0.929 . S
C387 C384 1.356 . S
C387 C389 1.358 . S
C387 H429 0.930 . S
C388 N385 1.314 . S
C388 C386 1.353 . S
C388 H430 0.930 . S
C389 N385 1.279 . S
C389 C387 1.358 . S
C389 H431 0.930 . S
C390 C391 1.348 . S
C390 C392 1.356 . S
C390 O415 1.325 . S
C391 C390 1.348 . S
C391 C393 1.353 . S
C391 H432 0.929 . S
C392 C390 1.356 . S
C392 C394 1.358 . S
C392 H433 0.930 . S
C393 C391 1.353 . S
C393 N395 1.314 . S
C393 H434 0.930 . S
C394 C392 1.358 . S
C394 N395 1.279 . S
C394 H435 0.930 . S
N395 C393 1.314 . S
N395 C394 1.279 . S
C396 C398 1.353 . S
C396 N399 1.314 . S
C396 H402 0.930 . S
C397 N399 1.279 . S
C397 C400 1.358 . S
C397 H403 0.930 . S
C398 C396 1.353 . S
C398 C401 1.348 . S
C398 H436 0.929 . S
N399 Li354 1.990 . S
N399 C396 1.314 . S
N399 C397 1.279 . S
C400 C397 1.358 . S
C400 C401 1.356 . S
C400 H437 0.930 . S
C401 C398 1.348 . S
C401 C400 1.356 . S
H402 C396 0.930 . S
H403 C397 0.930 . S
C404 N405 1.314 . S
C404 C406 1.353 . S
C404 H410 0.930 . S
N405 Li355 1.990 . S
N405 C404 1.314 . S
N405 C408 1.279 . S
C406 C404 1.353 . S
C406 C409 1.348 . S
C406 H438 0.929 . S
C407 C408 1.358 . S
C407 C409 1.356 . S
C407 H439 0.930 . S
C408 N405 1.279 . S
C408 C407 1.358 . S
C408 H411 0.930 . S
C409 C406 1.348 . S
C409 C407 1.356 . S
H410 C404 0.930 . S
H411 C408 0.930 . S
O412 Li352 1.956 . S
O412 Li353 1.970 . S
O412 Li354 1.961 . S
O412 C356 1.325 1_556 S
O413 Li352 1.970 . S
O413 Li353 1.956 . S
O413 Li355 1.961 . S
O413 C362 1.325 . S
O414 Li352 1.961 . S
O414 Li354 1.956 . S
O414 Li355 1.970 . S
O414 C384 1.325 . S
O415 Li353 1.961 . S
O415 Li354 1.970 . S
O415 Li355 1.956 . S
O415 C390 1.325 . S
H416 C358 0.929 . S
H417 C359 0.930 1_556 S
H418 C360 0.930 . S
H419 C361 0.930 . S
H420 C363 0.930 . S
H421 C365 0.929 . S
H422 C366 0.930 . S
H423 C367 0.930 . S
H424 C370 0.930 . S
H425 C373 0.929 . S
H426 C378 0.929 . S
H427 C379 0.930 . S
H428 C386 0.929 . S
H429 C387 0.930 . S
H430 C388 0.930 . S
H431 C389 0.930 . S
H432 C391 0.929 . S
H433 C392 0.930 . S
H434 C393 0.930 . S
H435 C394 0.930 . S
H436 C398 0.929 . S
H437 C400 0.930 . S
H438 C406 0.929 . S
H439 C407 0.930 . S
Li440 N457 1.990 . S
Li440 O500 1.956 . S
Li440 O501 1.970 . S
Li440 O502 1.961 . S
Li441 N465 1.990 1_556 S
Li441 O500 1.970 . S
Li441 O501 1.956 . S
Li441 O503 1.961 . S
Li442 N487 1.990 . S
Li442 O500 1.961 . S
Li442 O502 1.956 . S
Li442 O503 1.970 . S
Li443 N493 1.990 . S
Li443 O501 1.961 . S
Li443 O502 1.970 . S
Li443 O503 1.956 . S
C444 C446 1.348 . S
C444 C447 1.356 . S
C444 O500 1.325 1_554 S
N445 C448 1.314 . S
N445 C449 1.279 . S
C446 C444 1.348 . S
C446 C448 1.353 . S
C446 H504 0.929 . S
C447 C444 1.356 . S
C447 C449 1.358 . S
C447 H505 0.930 1_554 S
C448 N445 1.314 . S
C448 C446 1.353 . S
C448 H506 0.930 . S
C449 N445 1.279 . S
C449 C447 1.358 . S
C449 H507 0.930 . S
C450 C453 1.348 . S
C450 C454 1.356 . S
C450 O501 1.325 . S
C451 N452 1.279 . S
C451 C454 1.358 . S
C451 H508 0.930 . S
N452 C451 1.279 . S
N452 C455 1.314 . S
C453 C450 1.348 . S
C453 C455 1.353 . S
C453 H509 0.929 . S
C454 C450 1.356 . S
C454 C451 1.358 . S
C454 H510 0.930 . S
C455 N452 1.314 . S
C455 C453 1.353 . S
C455 H511 0.930 . S
C456 N457 1.314 . S
C456 C461 1.353 . S
C456 H462 0.930 . S
N457 Li440 1.990 . S
N457 C456 1.314 . S
N457 C459 1.279 . S
C458 C459 1.358 . S
C458 C460 1.356 . S
C458 H512 0.930 . S
C459 N457 1.279 . S
C459 C458 1.358 . S
C459 H463 0.930 . S
C460 C458 1.356 . S
C460 C461 1.348 . S
C461 C456 1.353 . S
C461 C460 1.348 . S
C461 H513 0.929 . S
H462 C456 0.930 . S
H463 C459 0.930 . S
C464 N465 1.314 . S
C464 C466 1.353 . S
C464 H470 0.930 . S
N465 Li441 1.990 1_554 S
N465 C464 1.314 . S
N465 C468 1.279 . S
C466 C464 1.353 . S
C466 C469 1.348 . S
C466 H514 0.929 . S
C467 C468 1.358 . S
C467 C469 1.356 . S
C467 H515 0.930 . S
C468 N465 1.279 . S
C468 C467 1.358 . S
C468 H471 0.930 . S
C469 C466 1.348 . S
C469 C467 1.356 . S
H470 C464 0.930 . S
H471 C468 0.930 . S
C472 C474 1.348 . S
C472 C475 1.356 . S
C472 O502 1.325 . S
N473 C476 1.314 . S
N473 C477 1.279 . S
C474 C472 1.348 . S
C474 C476 1.353 . S
C474 H516 0.929 . S
C475 C472 1.356 . S
C475 C477 1.358 . S
C475 H517 0.930 . S
C476 N473 1.314 . S
C476 C474 1.353 . S
C476 H518 0.930 . S
C477 N473 1.279 . S
C477 C475 1.358 . S
C477 H519 0.930 . S
C478 C479 1.348 . S
C478 C480 1.356 . S
C478 O503 1.325 . S
C479 C478 1.348 . S
C479 C481 1.353 . S
C479 H520 0.929 . S
C480 C478 1.356 . S
C480 C482 1.358 . S
C480 H521 0.930 . S
C481 C479 1.353 . S
C481 N483 1.314 . S
C481 H522 0.930 . S
C482 C480 1.358 . S
C482 N483 1.279 . S
C482 H523 0.930 . S
N483 C481 1.314 . S
N483 C482 1.279 . S
C484 C486 1.353 . S
C484 N487 1.314 . S
C484 H490 0.930 . S
C485 N487 1.279 . S
C485 C488 1.358 . S
C485 H491 0.930 . S
C486 C484 1.353 . S
C486 C489 1.348 . S
C486 H524 0.929 . S
N487 Li442 1.990 . S
N487 C484 1.314 . S
N487 C485 1.279 . S
C488 C485 1.358 . S
C488 C489 1.356 . S
C488 H525 0.930 . S
C489 C486 1.348 . S
C489 C488 1.356 . S
H490 C484 0.930 . S
H491 C485 0.930 . S
C492 N493 1.314 . S
C492 C494 1.353 . S
C492 H498 0.930 . S
N493 Li443 1.990 . S
N493 C492 1.314 . S
N493 C496 1.279 . S
C494 C492 1.353 . S
C494 C497 1.348 . S
C494 H526 0.929 . S
C495 C496 1.358 . S
C495 C497 1.356 . S
C495 H527 0.930 . S
C496 N493 1.279 . S
C496 C495 1.358 . S
C496 H499 0.930 . S
C497 C494 1.348 . S
C497 C495 1.356 . S
H498 C492 0.930 . S
H499 C496 0.930 . S
O500 Li440 1.956 . S
O500 Li441 1.970 . S
O500 Li442 1.961 . S
O500 C444 1.325 1_556 S
O501 Li440 1.970 . S
O501 Li441 1.956 . S
O501 Li443 1.961 . S
O501 C450 1.325 . S
O502 Li440 1.961 . S
O502 Li442 1.956 . S
O502 Li443 1.970 . S
O502 C472 1.325 . S
O503 Li441 1.961 . S
O503 Li442 1.970 . S
O503 Li443 1.956 . S
O503 C478 1.325 . S
H504 C446 0.929 . S
H505 C447 0.930 1_556 S
H506 C448 0.930 . S
H507 C449 0.930 . S
H508 C451 0.930 . S
H509 C453 0.929 . S
H510 C454 0.930 . S
H511 C455 0.930 . S
H512 C458 0.930 . S
H513 C461 0.929 . S
H514 C466 0.929 . S
H515 C467 0.930 . S
H516 C474 0.929 . S
H517 C475 0.930 . S
H518 C476 0.930 . S
H519 C477 0.930 . S
H520 C479 0.929 . S
H521 C480 0.930 . S
H522 C481 0.930 . S
H523 C482 0.930 . S
H524 C486 0.929 . S
H525 C488 0.930 . S
H526 C494 0.929 . S
H527 C495 0.930 . S
Li528 N545 1.990 . S
Li528 O588 1.956 . S
Li528 O589 1.970 . S
Li528 O590 1.961 . S
Li529 N553 1.990 . S
Li529 O588 1.970 . S
Li529 O589 1.956 . S
Li529 O591 1.961 . S
Li530 N575 1.990 . S
Li530 O588 1.961 . S
Li530 O590 1.956 . S
Li530 O591 1.970 . S
Li531 N581 1.990 . S
Li531 O589 1.961 . S
Li531 O590 1.970 . S
Li531 O591 1.956 . S
C532 C534 1.348 . S
C532 C535 1.356 . S
C532 O588 1.325 . S
N533 C536 1.314 . S
N533 C537 1.279 . S
C534 C532 1.348 . S
C534 C536 1.353 . S
C534 H592 0.929 . S
C535 C532 1.356 . S
C535 C537 1.358 . S
C535 H593 0.930 . S
C536 N533 1.314 . S
C536 C534 1.353 . S
C536 H594 0.930 . S
C537 N533 1.279 . S
C537 C535 1.358 . S
C537 H595 0.930 . S
C538 C541 1.348 . S
C538 C542 1.356 . S
C538 O589 1.325 . S
C539 N540 1.279 . S
C539 C542 1.358 . S
C539 H596 0.930 . S
N540 C539 1.279 . S
N540 C543 1.314 . S
C541 C538 1.348 . S
C541 C543 1.353 . S
C541 H597 0.929 . S
C542 C538 1.356 . S
C542 C539 1.358 . S
C542 H598 0.930 . S
C543 N540 1.314 . S
C543 C541 1.353 . S
C543 H599 0.930 . S
C544 N545 1.314 . S
C544 C549 1.353 . S
C544 H550 0.930 . S
N545 Li528 1.990 . S
N545 C544 1.314 . S
N545 C547 1.279 . S
C546 C547 1.358 . S
C546 C548 1.356 . S
C546 H600 0.930 . S
C547 N545 1.279 . S
C547 C546 1.358 . S
C547 H551 0.930 . S
C548 C546 1.356 . S
C548 C549 1.348 . S
C549 C544 1.353 . S
C549 C548 1.348 . S
C549 H601 0.929 . S
H550 C544 0.930 . S
H551 C547 0.930 . S
C552 N553 1.314 . S
C552 C554 1.353 . S
C552 H558 0.930 . S
N553 Li529 1.990 . S
N553 C552 1.314 . S
N553 C556 1.279 . S
C554 C552 1.353 . S
C554 C557 1.348 . S
C554 H602 0.929 . S
C555 C556 1.358 . S
C555 C557 1.356 . S
C555 H603 0.930 . S
C556 N553 1.279 . S
C556 C555 1.358 . S
C556 H559 0.930 . S
C557 C554 1.348 . S
C557 C555 1.356 . S
H558 C552 0.930 . S
H559 C556 0.930 . S
C560 C562 1.348 . S
C560 C563 1.356 . S
C560 O590 1.325 . S
N561 C564 1.314 . S
N561 C565 1.279 . S
C562 C560 1.348 . S
C562 C564 1.353 . S
C562 H604 0.929 . S
C563 C560 1.356 . S
C563 C565 1.358 . S
C563 H605 0.930 . S
C564 N561 1.314 . S
C564 C562 1.353 . S
C564 H606 0.930 . S
C565 N561 1.279 . S
C565 C563 1.358 . S
C565 H607 0.930 . S
C566 C567 1.348 . S
C566 C568 1.356 . S
C566 O591 1.325 . S
C567 C566 1.348 . S
C567 C569 1.353 . S
C567 H608 0.929 . S
C568 C566 1.356 . S
C568 C570 1.358 . S
C568 H609 0.930 . S
C569 C567 1.353 . S
C569 N571 1.314 . S
C569 H610 0.930 . S
C570 C568 1.358 . S
C570 N571 1.279 . S
C570 H611 0.930 . S
N571 C569 1.314 . S
N571 C570 1.279 . S
C572 C574 1.353 . S
C572 N575 1.314 . S
C572 H578 0.930 . S
C573 N575 1.279 . S
C573 C576 1.358 . S
C573 H579 0.930 . S
C574 C572 1.353 . S
C574 C577 1.348 . S
C574 H612 0.929 . S
N575 Li530 1.990 . S
N575 C572 1.314 . S
N575 C573 1.279 . S
C576 C573 1.358 . S
C576 C577 1.356 . S
C576 H613 0.930 . S
C577 C574 1.348 . S
C577 C576 1.356 . S
H578 C572 0.930 . S
H579 C573 0.930 . S
C580 N581 1.314 . S
C580 C582 1.353 . S
C580 H586 0.930 . S
N581 Li531 1.990 . S
N581 C580 1.314 . S
N581 C584 1.279 . S
C582 C580 1.353 . S
C582 C585 1.348 . S
C582 H614 0.929 . S
C583 C584 1.358 . S
C583 C585 1.356 . S
C583 H615 0.930 . S
C584 N581 1.279 . S
C584 C583 1.358 . S
C584 H587 0.930 . S
C585 C582 1.348 . S
C585 C583 1.356 . S
H586 C580 0.930 . S
H587 C584 0.930 . S
O588 Li528 1.956 . S
O588 Li529 1.970 . S
O588 Li530 1.961 . S
O588 C532 1.325 . S
O589 Li528 1.970 . S
O589 Li529 1.956 . S
O589 Li531 1.961 . S
O589 C538 1.325 . S
O590 Li528 1.961 . S
O590 Li530 1.956 . S
O590 Li531 1.970 . S
O590 C560 1.325 . S
O591 Li529 1.961 . S
O591 Li530 1.970 . S
O591 Li531 1.956 . S
O591 C566 1.325 . S
H592 C534 0.929 . S
H593 C535 0.930 . S
H594 C536 0.930 . S
H595 C537 0.930 . S
H596 C539 0.930 . S
H597 C541 0.929 . S
H598 C542 0.930 . S
H599 C543 0.930 . S
H600 C546 0.930 . S
H601 C549 0.929 . S
H602 C554 0.929 . S
H603 C555 0.930 . S
H604 C562 0.929 . S
H605 C563 0.930 . S
H606 C564 0.930 . S
H607 C565 0.930 . S
H608 C567 0.929 . S
H609 C568 0.930 . S
H610 C569 0.930 . S
H611 C570 0.930 . S
H612 C574 0.929 . S
H613 C576 0.930 . S
H614 C582 0.929 . S
H615 C583 0.930 . S
Li616 N633 1.990 . S
Li616 O676 1.956 . S
Li616 O677 1.970 . S
Li616 O678 1.961 . S
Li617 N641 1.990 . S
Li617 O676 1.970 . S
Li617 O677 1.956 . S
Li617 O679 1.961 . S
Li618 N663 1.990 . S
Li618 O676 1.961 . S
Li618 O678 1.956 . S
Li618 O679 1.970 . S
Li619 N669 1.990 . S
Li619 O677 1.961 . S
Li619 O678 1.970 . S
Li619 O679 1.956 . S
C620 C622 1.348 . S
C620 C623 1.356 . S
C620 O676 1.325 . S
N621 C624 1.314 . S
N621 C625 1.279 . S
C622 C620 1.348 . S
C622 C624 1.353 . S
C622 H680 0.929 . S
C623 C620 1.356 . S
C623 C625 1.358 . S
C623 H681 0.930 . S
C624 N621 1.314 . S
C624 C622 1.353 . S
C624 H682 0.930 . S
C625 N621 1.279 . S
C625 C623 1.358 . S
C625 H683 0.930 . S
C626 C629 1.348 . S
C626 C630 1.356 . S
C626 O677 1.325 . S
C627 N628 1.279 . S
C627 C630 1.358 . S
C627 H684 0.930 . S
N628 C627 1.279 . S
N628 C631 1.314 . S
C629 C626 1.348 . S
C629 C631 1.353 . S
C629 H685 0.929 . S
C630 C626 1.356 . S
C630 C627 1.358 . S
C630 H686 0.930 . S
C631 N628 1.314 . S
C631 C629 1.353 . S
C631 H687 0.930 . S
C632 N633 1.314 . S
C632 C637 1.353 . S
C632 H638 0.930 . S
N633 Li616 1.990 . S
N633 C632 1.314 . S
N633 C635 1.279 . S
C634 C635 1.358 . S
C634 C636 1.356 . S
C634 H688 0.930 . S
C635 N633 1.279 . S
C635 C634 1.358 . S
C635 H639 0.930 . S
C636 C634 1.356 . S
C636 C637 1.348 . S
C637 C632 1.353 . S
C637 C636 1.348 . S
C637 H689 0.929 . S
H638 C632 0.930 . S
H639 C635 0.930 . S
C640 N641 1.314 . S
C640 C642 1.353 . S
C640 H646 0.930 . S
N641 Li617 1.990 . S
N641 C640 1.314 . S
N641 C644 1.279 . S
C642 C640 1.353 . S
C642 C645 1.348 . S
C642 H690 0.929 . S
C643 C644 1.358 . S
C643 C645 1.356 . S
C643 H691 0.930 . S
C644 N641 1.279 . S
C644 C643 1.358 . S
C644 H647 0.930 . S
C645 C642 1.348 . S
C645 C643 1.356 . S
H646 C640 0.930 . S
H647 C644 0.930 . S
C648 C650 1.348 . S
C648 C651 1.356 . S
C648 O678 1.325 . S
N649 C652 1.314 . S
N649 C653 1.279 . S
C650 C648 1.348 . S
C650 C652 1.353 . S
C650 H692 0.929 . S
C651 C648 1.356 . S
C651 C653 1.358 . S
C651 H693 0.930 . S
C652 N649 1.314 . S
C652 C650 1.353 . S
C652 H694 0.930 . S
C653 N649 1.279 . S
C653 C651 1.358 . S
C653 H695 0.930 . S
C654 C655 1.348 . S
C654 C656 1.356 . S
C654 O679 1.325 . S
C655 C654 1.348 . S
C655 C657 1.353 . S
C655 H696 0.929 . S
C656 C654 1.356 . S
C656 C658 1.358 . S
C656 H697 0.930 . S
C657 C655 1.353 . S
C657 N659 1.314 . S
C657 H698 0.930 . S
C658 C656 1.358 . S
C658 N659 1.279 . S
C658 H699 0.930 . S
N659 C657 1.314 . S
N659 C658 1.279 . S
C660 C662 1.353 . S
C660 N663 1.314 . S
C660 H666 0.930 . S
C661 N663 1.279 . S
C661 C664 1.358 . S
C661 H667 0.930 . S
C662 C660 1.353 . S
C662 C665 1.348 . S
C662 H700 0.929 . S
N663 Li618 1.990 . S
N663 C660 1.314 . S
N663 C661 1.279 . S
C664 C661 1.358 . S
C664 C665 1.356 . S
C664 H701 0.930 . S
C665 C662 1.348 . S
C665 C664 1.356 . S
H666 C660 0.930 . S
H667 C661 0.930 . S
C668 N669 1.314 . S
C668 C670 1.353 . S
C668 H674 0.930 . S
N669 Li619 1.990 . S
N669 C668 1.314 . S
N669 C672 1.279 . S
C670 C668 1.353 . S
C670 C673 1.348 . S
C670 H702 0.929 . S
C671 C672 1.358 . S
C671 C673 1.356 . S
C671 H703 0.930 . S
C672 N669 1.279 . S
C672 C671 1.358 . S
C672 H675 0.930 . S
C673 C670 1.348 . S
C673 C671 1.356 . S
H674 C668 0.930 . S
H675 C672 0.930 . S
O676 Li616 1.956 . S
O676 Li617 1.970 . S
O676 Li618 1.961 . S
O676 C620 1.325 . S
O677 Li616 1.970 . S
O677 Li617 1.956 . S
O677 Li619 1.961 . S
O677 C626 1.325 . S
O678 Li616 1.961 . S
O678 Li618 1.956 . S
O678 Li619 1.970 . S
O678 C648 1.325 . S
O679 Li617 1.961 . S
O679 Li618 1.970 . S
O679 Li619 1.956 . S
O679 C654 1.325 . S
H680 C622 0.929 . S
H681 C623 0.930 . S
H682 C624 0.930 . S
H683 C625 0.930 . S
H684 C627 0.930 . S
H685 C629 0.929 . S
H686 C630 0.930 . S
H687 C631 0.930 . S
H688 C634 0.930 . S
H689 C637 0.929 . S
H690 C642 0.929 . S
H691 C643 0.930 . S
H692 C650 0.929 . S
H693 C651 0.930 . S
H694 C652 0.930 . S
H695 C653 0.930 . S
H696 C655 0.929 . S
H697 C656 0.930 . S
H698 C657 0.930 . S
H699 C658 0.930 . S
H700 C662 0.929 . S
H701 C664 0.930 . S
H702 C670 0.929 . S
H703 C671 0.930 . S
Li704 N721 1.990 . S
Li704 O764 1.956 . S
Li704 O765 1.970 . S
Li704 O766 1.961 . S
Li705 N729 1.990 . S
Li705 O764 1.970 . S
Li705 O765 1.956 . S
Li705 O767 1.961 . S
Li706 N751 1.990 . S
Li706 O764 1.961 . S
Li706 O766 1.956 . S
Li706 O767 1.970 . S
Li707 N757 1.990 . S
Li707 O765 1.961 . S
Li707 O766 1.970 . S
Li707 O767 1.956 . S
C708 C710 1.348 . S
C708 C711 1.356 . S
C708 O764 1.325 . S
N709 C712 1.314 . S
N709 C713 1.279 . S
C710 C708 1.348 . S
C710 C712 1.353 . S
C710 H768 0.929 . S
C711 C708 1.356 . S
C711 C713 1.358 . S
C711 H769 0.930 . S
C712 N709 1.314 . S
C712 C710 1.353 . S
C712 H770 0.930 . S
C713 N709 1.279 . S
C713 C711 1.358 . S
C713 H771 0.930 . S
C714 C717 1.348 . S
C714 C718 1.356 . S
C714 O765 1.325 . S
C715 N716 1.279 . S
C715 C718 1.358 . S
C715 H772 0.930 . S
N716 C715 1.279 . S
N716 C719 1.314 . S
C717 C714 1.348 . S
C717 C719 1.353 . S
C717 H773 0.929 . S
C718 C714 1.356 . S
C718 C715 1.358 . S
C718 H774 0.930 . S
C719 N716 1.314 . S
C719 C717 1.353 . S
C719 H775 0.930 . S
C720 N721 1.314 . S
C720 C725 1.353 . S
C720 H726 0.930 . S
N721 Li704 1.990 . S
N721 C720 1.314 . S
N721 C723 1.279 . S
C722 C723 1.358 . S
C722 C724 1.356 . S
C722 H776 0.930 . S
C723 N721 1.279 . S
C723 C722 1.358 . S
C723 H727 0.930 . S
C724 C722 1.356 . S
C724 C725 1.348 . S
C725 C720 1.353 . S
C725 C724 1.348 . S
C725 H777 0.929 . S
H726 C720 0.930 . S
H727 C723 0.930 . S
C728 N729 1.314 . S
C728 C730 1.353 . S
C728 H734 0.930 . S
N729 Li705 1.990 . S
N729 C728 1.314 . S
N729 C732 1.279 . S
C730 C728 1.353 . S
C730 C733 1.348 . S
C730 H778 0.929 . S
C731 C732 1.358 . S
C731 C733 1.356 . S
C731 H779 0.930 . S
C732 N729 1.279 . S
C732 C731 1.358 . S
C732 H735 0.930 . S
C733 C730 1.348 . S
C733 C731 1.356 . S
H734 C728 0.930 . S
H735 C732 0.930 . S
C736 C738 1.348 . S
C736 C739 1.356 . S
C736 O766 1.325 . S
N737 C740 1.314 . S
N737 C741 1.279 . S
C738 C736 1.348 . S
C738 C740 1.353 . S
C738 H780 0.929 . S
C739 C736 1.356 . S
C739 C741 1.358 . S
C739 H781 0.930 . S
C740 N737 1.314 . S
C740 C738 1.353 . S
C740 H782 0.930 . S
C741 N737 1.279 . S
C741 C739 1.358 . S
C741 H783 0.930 . S
C742 C743 1.348 . S
C742 C744 1.356 . S
C742 O767 1.325 . S
C743 C742 1.348 . S
C743 C745 1.353 . S
C743 H784 0.929 . S
C744 C742 1.356 . S
C744 C746 1.358 . S
C744 H785 0.930 . S
C745 C743 1.353 . S
C745 N747 1.314 . S
C745 H786 0.930 . S
C746 C744 1.358 . S
C746 N747 1.279 . S
C746 H787 0.930 . S
N747 C745 1.314 . S
N747 C746 1.279 . S
C748 C750 1.353 . S
C748 N751 1.314 . S
C748 H754 0.930 . S
C749 N751 1.279 . S
C749 C752 1.358 . S
C749 H755 0.930 . S
C750 C748 1.353 . S
C750 C753 1.348 . S
C750 H788 0.929 . S
N751 Li706 1.990 . S
N751 C748 1.314 . S
N751 C749 1.279 . S
C752 C749 1.358 . S
C752 C753 1.356 . S
C752 H789 0.930 . S
C753 C750 1.348 . S
C753 C752 1.356 . S
H754 C748 0.930 . S
H755 C749 0.930 . S
C756 N757 1.314 . S
C756 C758 1.353 . S
C756 H762 0.930 . S
N757 Li707 1.990 . S
N757 C756 1.314 . S
N757 C760 1.279 . S
C758 C756 1.353 . S
C758 C761 1.348 . S
C758 H790 0.929 . S
C759 C760 1.358 . S
C759 C761 1.356 . S
C759 H791 0.930 . S
C760 N757 1.279 . S
C760 C759 1.358 . S
C760 H763 0.930 . S
C761 C758 1.348 . S
C761 C759 1.356 . S
H762 C756 0.930 . S
H763 C760 0.930 . S
O764 Li704 1.956 . S
O764 Li705 1.970 . S
O764 Li706 1.961 . S
O764 C708 1.325 . S
O765 Li704 1.970 . S
O765 Li705 1.956 . S
O765 Li707 1.961 . S
O765 C714 1.325 . S
O766 Li704 1.961 . S
O766 Li706 1.956 . S
O766 Li707 1.970 . S
O766 C736 1.325 . S
O767 Li705 1.961 . S
O767 Li706 1.970 . S
O767 Li707 1.956 . S
O767 C742 1.325 . S
H768 C710 0.929 . S
H769 C711 0.930 . S
H770 C712 0.930 . S
H771 C713 0.930 . S
H772 C715 0.930 . S
H773 C717 0.929 . S
H774 C718 0.930 . S
H775 C719 0.930 . S
H776 C722 0.930 . S
H777 C725 0.929 . S
H778 C730 0.929 . S
H779 C731 0.930 . S
H780 C738 0.929 . S
H781 C739 0.930 . S
H782 C740 0.930 . S
H783 C741 0.930 . S
H784 C743 0.929 . S
H785 C744 0.930 . S
H786 C745 0.930 . S
H787 C746 0.930 . S
H788 C750 0.929 . S
H789 C752 0.930 . S
H790 C758 0.929 . S
H791 C759 0.930 . S
Li792 N809 1.990 . S
Li792 O852 1.956 . S
Li792 O853 1.970 . S
Li792 O854 1.961 . S
Li793 N817 1.990 . S
Li793 O852 1.970 . S
Li793 O853 1.956 . S
Li793 O855 1.961 . S
Li794 N839 1.990 . S
Li794 O852 1.961 . S
Li794 O854 1.956 . S
Li794 O855 1.970 . S
Li795 N845 1.990 . S
Li795 O853 1.961 . S
Li795 O854 1.970 . S
Li795 O855 1.956 . S
C796 C798 1.348 . S
C796 C799 1.356 . S
C796 O852 1.325 . S
N797 C800 1.314 . S
N797 C801 1.279 . S
C798 C796 1.348 . S
C798 C800 1.353 . S
C798 H856 0.929 . S
C799 C796 1.356 . S
C799 C801 1.358 . S
C799 H857 0.930 . S
C800 N797 1.314 . S
C800 C798 1.353 . S
C800 H858 0.930 . S
C801 N797 1.279 . S
C801 C799 1.358 . S
C801 H859 0.930 . S
C802 C805 1.348 . S
C802 C806 1.356 . S
C802 O853 1.325 . S
C803 N804 1.279 . S
C803 C806 1.358 . S
C803 H860 0.930 . S
N804 C803 1.279 . S
N804 C807 1.314 . S
C805 C802 1.348 . S
C805 C807 1.353 . S
C805 H861 0.929 . S
C806 C802 1.356 . S
C806 C803 1.358 . S
C806 H862 0.930 . S
C807 N804 1.314 . S
C807 C805 1.353 . S
C807 H863 0.930 . S
C808 N809 1.314 . S
C808 C813 1.353 . S
C808 H814 0.930 . S
N809 Li792 1.990 . S
N809 C808 1.314 . S
N809 C811 1.279 . S
C810 C811 1.358 . S
C810 C812 1.356 . S
C810 H864 0.930 . S
C811 N809 1.279 . S
C811 C810 1.358 . S
C811 H815 0.930 . S
C812 C810 1.356 . S
C812 C813 1.348 . S
C813 C808 1.353 . S
C813 C812 1.348 . S
C813 H865 0.929 . S
H814 C808 0.930 . S
H815 C811 0.930 . S
C816 N817 1.314 . S
C816 C818 1.353 . S
C816 H822 0.930 . S
N817 Li793 1.990 . S
N817 C816 1.314 . S
N817 C820 1.279 . S
C818 C816 1.353 . S
C818 C821 1.348 . S
C818 H866 0.929 . S
C819 C820 1.358 . S
C819 C821 1.356 . S
C819 H867 0.930 . S
C820 N817 1.279 . S
C820 C819 1.358 . S
C820 H823 0.930 . S
C821 C818 1.348 . S
C821 C819 1.356 . S
H822 C816 0.930 . S
H823 C820 0.930 . S
C824 C826 1.348 . S
C824 C827 1.356 . S
C824 O854 1.325 . S
N825 C828 1.314 . S
N825 C829 1.279 . S
C826 C824 1.348 . S
C826 C828 1.353 . S
C826 H868 0.929 . S
C827 C824 1.356 . S
C827 C829 1.358 . S
C827 H869 0.930 . S
C828 N825 1.314 . S
C828 C826 1.353 . S
C828 H870 0.930 . S
C829 N825 1.279 . S
C829 C827 1.358 . S
C829 H871 0.930 . S
C830 C831 1.348 . S
C830 C832 1.356 . S
C830 O855 1.325 . S
C831 C830 1.348 . S
C831 C833 1.353 . S
C831 H872 0.929 . S
C832 C830 1.356 . S
C832 C834 1.358 . S
C832 H873 0.930 . S
C833 C831 1.353 . S
C833 N835 1.314 . S
C833 H874 0.930 . S
C834 C832 1.358 . S
C834 N835 1.279 . S
C834 H875 0.930 . S
N835 C833 1.314 . S
N835 C834 1.279 . S
C836 C838 1.353 . S
C836 N839 1.314 . S
C836 H842 0.930 . S
C837 N839 1.279 . S
C837 C840 1.358 . S
C837 H843 0.930 . S
C838 C836 1.353 . S
C838 C841 1.348 . S
C838 H876 0.929 . S
N839 Li794 1.990 . S
N839 C836 1.314 . S
N839 C837 1.279 . S
C840 C837 1.358 . S
C840 C841 1.356 . S
C840 H877 0.930 . S
C841 C838 1.348 . S
C841 C840 1.356 . S
H842 C836 0.930 . S
H843 C837 0.930 . S
C844 N845 1.314 . S
C844 C846 1.353 . S
C844 H850 0.930 . S
N845 Li795 1.990 . S
N845 C844 1.314 . S
N845 C848 1.279 . S
C846 C844 1.353 . S
C846 C849 1.348 . S
C846 H878 0.929 . S
C847 C848 1.358 . S
C847 C849 1.356 . S
C847 H879 0.930 . S
C848 N845 1.279 . S
C848 C847 1.358 . S
C848 H851 0.930 . S
C849 C846 1.348 . S
C849 C847 1.356 . S
H850 C844 0.930 . S
H851 C848 0.930 . S
O852 Li792 1.956 . S
O852 Li793 1.970 . S
O852 Li794 1.961 . S
O852 C796 1.325 . S
O853 Li792 1.970 . S
O853 Li793 1.956 . S
O853 Li795 1.961 . S
O853 C802 1.325 . S
O854 Li792 1.961 . S
O854 Li794 1.956 . S
O854 Li795 1.970 . S
O854 C824 1.325 . S
O855 Li793 1.961 . S
O855 Li794 1.970 . S
O855 Li795 1.956 . S
O855 C830 1.325 . S
H856 C798 0.929 . S
H857 C799 0.930 . S
H858 C800 0.930 . S
H859 C801 0.930 . S
H860 C803 0.930 . S
H861 C805 0.929 . S
H862 C806 0.930 . S
H863 C807 0.930 . S
H864 C810 0.930 . S
H865 C813 0.929 . S
H866 C818 0.929 . S
H867 C819 0.930 . S
H868 C826 0.929 . S
H869 C827 0.930 . S
H870 C828 0.930 . S
H871 C829 0.930 . S
H872 C831 0.929 . S
H873 C832 0.930 . S
H874 C833 0.930 . S
H875 C834 0.930 . S
H876 C838 0.929 . S
H877 C840 0.930 . S
H878 C846 0.929 . S
H879 C847 0.930 . S
Li880 N897 1.990 . S
Li880 O940 1.956 . S
Li880 O941 1.970 . S
Li880 O942 1.961 . S
Li881 N905 1.990 . S
Li881 O940 1.970 . S
Li881 O941 1.956 . S
Li881 O943 1.961 . S
Li882 N927 1.990 . S
Li882 O940 1.961 . S
Li882 O942 1.956 . S
Li882 O943 1.970 . S
Li883 N933 1.990 . S
Li883 O941 1.961 . S
Li883 O942 1.970 . S
Li883 O943 1.956 . S
C884 C886 1.348 . S
C884 C887 1.356 . S
C884 O940 1.325 . S
N885 C888 1.314 . S
N885 C889 1.279 . S
C886 C884 1.348 . S
C886 C888 1.353 . S
C886 H944 0.929 . S
C887 C884 1.356 . S
C887 C889 1.358 . S
C887 H945 0.930 . S
C888 N885 1.314 . S
C888 C886 1.353 . S
C888 H946 0.930 . S
C889 N885 1.279 . S
C889 C887 1.358 . S
C889 H947 0.930 . S
C890 C893 1.348 . S
C890 C894 1.356 . S
C890 O941 1.325 . S
C891 N892 1.279 . S
C891 C894 1.358 . S
C891 H948 0.930 . S
N892 C891 1.279 . S
N892 C895 1.314 . S
C893 C890 1.348 . S
C893 C895 1.353 . S
C893 H949 0.929 . S
C894 C890 1.356 . S
C894 C891 1.358 . S
C894 H950 0.930 . S
C895 N892 1.314 . S
C895 C893 1.353 . S
C895 H951 0.930 . S
C896 N897 1.314 . S
C896 C901 1.353 . S
C896 H902 0.930 . S
N897 Li880 1.990 . S
N897 C896 1.314 . S
N897 C899 1.279 . S
C898 C899 1.358 . S
C898 C900 1.356 . S
C898 H952 0.930 . S
C899 N897 1.279 . S
C899 C898 1.358 . S
C899 H903 0.930 . S
C900 C898 1.356 . S
C900 C901 1.348 . S
C901 C896 1.353 . S
C901 C900 1.348 . S
C901 H953 0.929 . S
H902 C896 0.930 . S
H903 C899 0.930 . S
C904 N905 1.314 . S
C904 C906 1.353 . S
C904 H910 0.930 . S
N905 Li881 1.990 . S
N905 C904 1.314 . S
N905 C908 1.279 . S
C906 C904 1.353 . S
C906 C909 1.348 . S
C906 H954 0.929 . S
C907 C908 1.358 . S
C907 C909 1.356 . S
C907 H955 0.930 . S
C908 N905 1.279 . S
C908 C907 1.358 . S
C908 H911 0.930 . S
C909 C906 1.348 . S
C909 C907 1.356 . S
H910 C904 0.930 . S
H911 C908 0.930 . S
C912 C914 1.348 . S
C912 C915 1.356 . S
C912 O942 1.325 . S
N913 C916 1.314 . S
N913 C917 1.279 . S
C914 C912 1.348 . S
C914 C916 1.353 . S
C914 H956 0.929 . S
C915 C912 1.356 . S
C915 C917 1.358 . S
C915 H957 0.930 . S
C916 N913 1.314 . S
C916 C914 1.353 . S
C916 H958 0.930 . S
C917 N913 1.279 . S
C917 C915 1.358 . S
C917 H959 0.930 . S
C918 C919 1.348 . S
C918 C920 1.356 . S
C918 O943 1.325 . S
C919 C918 1.348 . S
C919 C921 1.353 . S
C919 H960 0.929 . S
C920 C918 1.356 . S
C920 C922 1.358 . S
C920 H961 0.930 . S
C921 C919 1.353 . S
C921 N923 1.314 . S
C921 H962 0.930 . S
C922 C920 1.358 . S
C922 N923 1.279 . S
C922 H963 0.930 . S
N923 C921 1.314 . S
N923 C922 1.279 . S
C924 C926 1.353 . S
C924 N927 1.314 . S
C924 H930 0.930 . S
C925 N927 1.279 . S
C925 C928 1.358 . S
C925 H931 0.930 . S
C926 C924 1.353 . S
C926 C929 1.348 . S
C926 H964 0.929 . S
N927 Li882 1.990 . S
N927 C924 1.314 . S
N927 C925 1.279 . S
C928 C925 1.358 . S
C928 C929 1.356 . S
C928 H965 0.930 . S
C929 C926 1.348 . S
C929 C928 1.356 . S
H930 C924 0.930 . S
H931 C925 0.930 . S
C932 N933 1.314 . S
C932 C934 1.353 . S
C932 H938 0.930 . S
N933 Li883 1.990 . S
N933 C932 1.314 . S
N933 C936 1.279 . S
C934 C932 1.353 . S
C934 C937 1.348 . S
C934 H966 0.929 . S
C935 C936 1.358 . S
C935 C937 1.356 . S
C935 H967 0.930 . S
C936 N933 1.279 . S
C936 C935 1.358 . S
C936 H939 0.930 . S
C937 C934 1.348 . S
C937 C935 1.356 . S
H938 C932 0.930 . S
H939 C936 0.930 . S
O940 Li880 1.956 . S
O940 Li881 1.970 . S
O940 Li882 1.961 . S
O940 C884 1.325 . S
O941 Li880 1.970 . S
O941 Li881 1.956 . S
O941 Li883 1.961 . S
O941 C890 1.325 . S
O942 Li880 1.961 . S
O942 Li882 1.956 . S
O942 Li883 1.970 . S
O942 C912 1.325 . S
O943 Li881 1.961 . S
O943 Li882 1.970 . S
O943 Li883 1.956 . S
O943 C918 1.325 . S
H944 C886 0.929 . S
H945 C887 0.930 . S
H946 C888 0.930 . S
H947 C889 0.930 . S
H948 C891 0.930 . S
H949 C893 0.929 . S
H950 C894 0.930 . S
H951 C895 0.930 . S
H952 C898 0.930 . S
H953 C901 0.929 . S
H954 C906 0.929 . S
H955 C907 0.930 . S
H956 C914 0.929 . S
H957 C915 0.930 . S
H958 C916 0.930 . S
H959 C917 0.930 . S
H960 C919 0.929 . S
H961 C920 0.930 . S
H962 C921 0.930 . S
H963 C922 0.930 . S
H964 C926 0.929 . S
H965 C928 0.930 . S
H966 C934 0.929 . S
H967 C935 0.930 . S
Li968 N985 1.990 . S
Li968 O1028 1.956 . S
Li968 O1029 1.970 . S
Li968 O1030 1.961 . S
Li969 N993 1.990 . S
Li969 O1028 1.970 . S
Li969 O1029 1.956 . S
Li969 O1031 1.961 . S
Li970 N1015 1.990 . S
Li970 O1028 1.961 . S
Li970 O1030 1.956 . S
Li970 O1031 1.970 . S
Li971 N1021 1.990 . S
Li971 O1029 1.961 . S
Li971 O1030 1.970 . S
Li971 O1031 1.956 . S
C972 C974 1.348 . S
C972 C975 1.356 . S
C972 O1028 1.325 . S
N973 C976 1.314 . S
N973 C977 1.279 . S
C974 C972 1.348 . S
C974 C976 1.353 . S
C974 H1032 0.929 . S
C975 C972 1.356 . S
C975 C977 1.358 . S
C975 H1033 0.930 . S
C976 N973 1.314 . S
C976 C974 1.353 . S
C976 H1034 0.930 . S
C977 N973 1.279 . S
C977 C975 1.358 . S
C977 H1035 0.930 . S
C978 C981 1.348 . S
C978 C982 1.356 . S
C978 O1029 1.325 . S
C979 N980 1.279 . S
C979 C982 1.358 . S
C979 H1036 0.930 . S
N980 C979 1.279 . S
N980 C983 1.314 . S
C981 C978 1.348 . S
C981 C983 1.353 . S
C981 H1037 0.929 . S
C982 C978 1.356 . S
C982 C979 1.358 . S
C982 H1038 0.930 . S
C983 N980 1.314 . S
C983 C981 1.353 . S
C983 H1039 0.930 . S
C984 N985 1.314 . S
C984 C989 1.353 . S
C984 H990 0.930 . S
N985 Li968 1.990 . S
N985 C984 1.314 . S
N985 C987 1.279 . S
C986 C987 1.358 . S
C986 C988 1.356 . S
C986 H1040 0.930 . S
C987 N985 1.279 . S
C987 C986 1.358 . S
C987 H991 0.930 . S
C988 C986 1.356 . S
C988 C989 1.348 . S
C989 C984 1.353 . S
C989 C988 1.348 . S
C989 H1041 0.929 . S
H990 C984 0.930 . S
H991 C987 0.930 . S
C992 N993 1.314 . S
C992 C994 1.353 . S
C992 H998 0.930 . S
N993 Li969 1.990 . S
N993 C992 1.314 . S
N993 C996 1.279 . S
C994 C992 1.353 . S
C994 C997 1.348 . S
C994 H1042 0.929 . S
C995 C996 1.358 . S
C995 C997 1.356 . S
C995 H1043 0.930 . S
C996 N993 1.279 . S
C996 C995 1.358 . S
C996 H999 0.930 . S
C997 C994 1.348 . S
C997 C995 1.356 . S
H998 C992 0.930 . S
H999 C996 0.930 . S
C1000 C1002 1.348 . S
C1000 C1003 1.356 . S
C1000 O1030 1.325 . S
N1001 C1004 1.314 . S
N1001 C1005 1.279 . S
C1002 C1000 1.348 . S
C1002 C1004 1.353 . S
C1002 H1044 0.929 . S
C1003 C1000 1.356 . S
C1003 C1005 1.358 . S
C1003 H1045 0.930 . S
C1004 N1001 1.314 . S
C1004 C1002 1.353 . S
C1004 H1046 0.930 . S
C1005 N1001 1.279 . S
C1005 C1003 1.358 . S
C1005 H1047 0.930 . S
C1006 C1007 1.348 . S
C1006 C1008 1.356 . S
C1006 O1031 1.325 . S
C1007 C1006 1.348 . S
C1007 C1009 1.353 . S
C1007 H1048 0.929 . S
C1008 C1006 1.356 . S
C1008 C1010 1.358 . S
C1008 H1049 0.930 . S
C1009 C1007 1.353 . S
C1009 N1011 1.314 . S
C1009 H1050 0.930 . S
C1010 C1008 1.358 . S
C1010 N1011 1.279 . S
C1010 H1051 0.930 . S
N1011 C1009 1.314 . S
N1011 C1010 1.279 . S
C1012 C1014 1.353 . S
C1012 N1015 1.314 . S
C1012 H1018 0.930 . S
C1013 N1015 1.279 . S
C1013 C1016 1.358 . S
C1013 H1019 0.930 . S
C1014 C1012 1.353 . S
C1014 C1017 1.348 . S
C1014 H1052 0.929 . S
N1015 Li970 1.990 . S
N1015 C1012 1.314 . S
N1015 C1013 1.279 . S
C1016 C1013 1.358 . S
C1016 C1017 1.356 . S
C1016 H1053 0.930 . S
C1017 C1014 1.348 . S
C1017 C1016 1.356 . S
H1018 C1012 0.930 . S
H1019 C1013 0.930 . S
C1020 N1021 1.314 . S
C1020 C1022 1.353 . S
C1020 H1026 0.930 . S
N1021 Li971 1.990 . S
N1021 C1020 1.314 . S
N1021 C1024 1.279 . S
C1022 C1020 1.353 . S
C1022 C1025 1.348 . S
C1022 H1054 0.929 . S
C1023 C1024 1.358 . S
C1023 C1025 1.356 . S
C1023 H1055 0.930 . S
C1024 N1021 1.279 . S
C1024 C1023 1.358 . S
C1024 H1027 0.930 . S
C1025 C1022 1.348 . S
C1025 C1023 1.356 . S
H1026 C1020 0.930 . S
H1027 C1024 0.930 . S
O1028 Li968 1.956 . S
O1028 Li969 1.970 . S
O1028 Li970 1.961 . S
O1028 C972 1.325 . S
O1029 Li968 1.970 . S
O1029 Li969 1.956 . S
O1029 Li971 1.961 . S
O1029 C978 1.325 . S
O1030 Li968 1.961 . S
O1030 Li970 1.956 . S
O1030 Li971 1.970 . S
O1030 C1000 1.325 . S
O1031 Li969 1.961 . S
O1031 Li970 1.970 . S
O1031 Li971 1.956 . S
O1031 C1006 1.325 . S
H1032 C974 0.929 . S
H1033 C975 0.930 . S
H1034 C976 0.930 . S
H1035 C977 0.930 . S
H1036 C979 0.930 . S
H1037 C981 0.929 . S
H1038 C982 0.930 . S
H1039 C983 0.930 . S
H1040 C986 0.930 . S
H1041 C989 0.929 . S
H1042 C994 0.929 . S
H1043 C995 0.930 . S
H1044 C1002 0.929 . S
H1045 C1003 0.930 . S
H1046 C1004 0.930 . S
H1047 C1005 0.930 . S
H1048 C1007 0.929 . S
H1049 C1008 0.930 . S
H1050 C1009 0.930 . S
H1051 C1010 0.930 . S
H1052 C1014 0.929 . S
H1053 C1016 0.930 . S
H1054 C1022 0.929 . S
H1055 C1023 0.930 . S
Li1056 N1073 1.990 . S
Li1056 O1116 1.956 . S
Li1056 O1117 1.970 . S
Li1056 O1118 1.961 . S
Li1057 N1081 1.990 . S
Li1057 O1116 1.970 . S
Li1057 O1117 1.956 . S
Li1057 O1119 1.961 . S
Li1058 N1103 1.990 . S
Li1058 O1116 1.961 . S
Li1058 O1118 1.956 . S
Li1058 O1119 1.970 . S
Li1059 N1109 1.990 . S
Li1059 O1117 1.961 . S
Li1059 O1118 1.970 . S
Li1059 O1119 1.956 . S
C1060 C1062 1.348 . S
C1060 C1063 1.356 . S
C1060 O1116 1.325 . S
N1061 C1064 1.314 . S
N1061 C1065 1.279 . S
C1062 C1060 1.348 . S
C1062 C1064 1.353 . S
C1062 H1120 0.929 . S
C1063 C1060 1.356 . S
C1063 C1065 1.358 . S
C1063 H1121 0.930 . S
C1064 N1061 1.314 . S
C1064 C1062 1.353 . S
C1064 H1122 0.930 . S
C1065 N1061 1.279 . S
C1065 C1063 1.358 . S
C1065 H1123 0.930 . S
C1066 C1069 1.348 . S
C1066 C1070 1.356 . S
C1066 O1117 1.325 . S
C1067 N1068 1.279 . S
C1067 C1070 1.358 . S
C1067 H1124 0.930 . S
N1068 C1067 1.279 . S
N1068 C1071 1.314 . S
C1069 C1066 1.348 . S
C1069 C1071 1.353 . S
C1069 H1125 0.929 . S
C1070 C1066 1.356 . S
C1070 C1067 1.358 . S
C1070 H1126 0.930 . S
C1071 N1068 1.314 . S
C1071 C1069 1.353 . S
C1071 H1127 0.930 . S
C1072 N1073 1.314 . S
C1072 C1077 1.353 . S
C1072 H1078 0.930 . S
N1073 Li1056 1.990 . S
N1073 C1072 1.314 . S
N1073 C1075 1.279 . S
C1074 C1075 1.358 . S
C1074 C1076 1.356 . S
C1074 H1128 0.930 . S
C1075 N1073 1.279 . S
C1075 C1074 1.358 . S
C1075 H1079 0.930 . S
C1076 C1074 1.356 . S
C1076 C1077 1.348 . S
C1077 C1072 1.353 . S
C1077 C1076 1.348 . S
C1077 H1129 0.929 . S
H1078 C1072 0.930 . S
H1079 C1075 0.930 . S
C1080 N1081 1.314 . S
C1080 C1082 1.353 . S
C1080 H1086 0.930 . S
N1081 Li1057 1.990 . S
N1081 C1080 1.314 . S
N1081 C1084 1.279 . S
C1082 C1080 1.353 . S
C1082 C1085 1.348 . S
C1082 H1130 0.929 . S
C1083 C1084 1.358 . S
C1083 C1085 1.356 . S
C1083 H1131 0.930 . S
C1084 N1081 1.279 . S
C1084 C1083 1.358 . S
C1084 H1087 0.930 . S
C1085 C1082 1.348 . S
C1085 C1083 1.356 . S
H1086 C1080 0.930 . S
H1087 C1084 0.930 . S
C1088 C1090 1.348 . S
C1088 C1091 1.356 . S
C1088 O1118 1.325 . S
N1089 C1092 1.314 . S
N1089 C1093 1.279 . S
C1090 C1088 1.348 . S
C1090 C1092 1.353 . S
C1090 H1132 0.929 . S
C1091 C1088 1.356 . S
C1091 C1093 1.358 . S
C1091 H1133 0.930 . S
C1092 N1089 1.314 . S
C1092 C1090 1.353 . S
C1092 H1134 0.930 . S
C1093 N1089 1.279 . S
C1093 C1091 1.358 . S
C1093 H1135 0.930 . S
C1094 C1095 1.348 . S
C1094 C1096 1.356 . S
C1094 O1119 1.325 . S
C1095 C1094 1.348 . S
C1095 C1097 1.353 . S
C1095 H1136 0.929 . S
C1096 C1094 1.356 . S
C1096 C1098 1.358 . S
C1096 H1137 0.930 . S
C1097 C1095 1.353 . S
C1097 N1099 1.314 . S
C1097 H1138 0.930 . S
C1098 C1096 1.358 . S
C1098 N1099 1.279 . S
C1098 H1139 0.930 . S
N1099 C1097 1.314 . S
N1099 C1098 1.279 . S
C1100 C1102 1.353 . S
C1100 N1103 1.314 . S
C1100 H1106 0.930 . S
C1101 N1103 1.279 . S
C1101 C1104 1.358 . S
C1101 H1107 0.930 . S
C1102 C1100 1.353 . S
C1102 C1105 1.348 . S
C1102 H1140 0.929 . S
N1103 Li1058 1.990 . S
N1103 C1100 1.314 . S
N1103 C1101 1.279 . S
C1104 C1101 1.358 . S
C1104 C1105 1.356 . S
C1104 H1141 0.930 . S
C1105 C1102 1.348 . S
C1105 C1104 1.356 . S
H1106 C1100 0.930 . S
H1107 C1101 0.930 . S
C1108 N1109 1.314 . S
C1108 C1110 1.353 . S
C1108 H1114 0.930 . S
N1109 Li1059 1.990 . S
N1109 C1108 1.314 . S
N1109 C1112 1.279 . S
C1110 C1108 1.353 . S
C1110 C1113 1.348 . S
C1110 H1142 0.929 . S
C1111 C1112 1.358 . S
C1111 C1113 1.356 . S
C1111 H1143 0.930 . S
C1112 N1109 1.279 . S
C1112 C1111 1.358 . S
C1112 H1115 0.930 . S
C1113 C1110 1.348 . S
C1113 C1111 1.356 . S
H1114 C1108 0.930 . S
H1115 C1112 0.930 . S
O1116 Li1056 1.956 . S
O1116 Li1057 1.970 . S
O1116 Li1058 1.961 . S
O1116 C1060 1.325 . S
O1117 Li1056 1.970 . S
O1117 Li1057 1.956 . S
O1117 Li1059 1.961 . S
O1117 C1066 1.325 . S
O1118 Li1056 1.961 . S
O1118 Li1058 1.956 . S
O1118 Li1059 1.970 . S
O1118 C1088 1.325 . S
O1119 Li1057 1.961 . S
O1119 Li1058 1.970 . S
O1119 Li1059 1.956 . S
O1119 C1094 1.325 . S
H1120 C1062 0.929 . S
H1121 C1063 0.930 . S
H1122 C1064 0.930 . S
H1123 C1065 0.930 . S
H1124 C1067 0.930 . S
H1125 C1069 0.929 . S
H1126 C1070 0.930 . S
H1127 C1071 0.930 . S
H1128 C1074 0.930 . S
H1129 C1077 0.929 . S
H1130 C1082 0.929 . S
H1131 C1083 0.930 . S
H1132 C1090 0.929 . S
H1133 C1091 0.930 . S
H1134 C1092 0.930 . S
H1135 C1093 0.930 . S
H1136 C1095 0.929 . S
H1137 C1096 0.930 . S
H1138 C1097 0.930 . S
H1139 C1098 0.930 . S
H1140 C1102 0.929 . S
H1141 C1104 0.930 . S
H1142 C1110 0.929 . S
H1143 C1111 0.930 . S
Li1144 N1161 1.990 . S
Li1144 O1204 1.956 . S
Li1144 O1205 1.970 . S
Li1144 O1206 1.961 . S
Li1145 N1169 1.990 . S
Li1145 O1204 1.970 . S
Li1145 O1205 1.956 . S
Li1145 O1207 1.961 . S
Li1146 N1191 1.990 . S
Li1146 O1204 1.961 . S
Li1146 O1206 1.956 . S
Li1146 O1207 1.970 . S
Li1147 N1197 1.990 . S
Li1147 O1205 1.961 . S
Li1147 O1206 1.970 . S
Li1147 O1207 1.956 . S
C1148 C1150 1.348 . S
C1148 C1151 1.356 . S
C1148 O1204 1.325 . S
N1149 C1152 1.314 . S
N1149 C1153 1.279 . S
C1150 C1148 1.348 . S
C1150 C1152 1.353 . S
C1150 H1208 0.929 . S
C1151 C1148 1.356 . S
C1151 C1153 1.358 . S
C1151 H1209 0.930 . S
C1152 N1149 1.314 . S
C1152 C1150 1.353 . S
C1152 H1210 0.930 . S
C1153 N1149 1.279 . S
C1153 C1151 1.358 . S
C1153 H1211 0.930 . S
C1154 C1157 1.348 . S
C1154 C1158 1.356 . S
C1154 O1205 1.325 . S
C1155 N1156 1.279 . S
C1155 C1158 1.358 . S
C1155 H1212 0.930 . S
N1156 C1155 1.279 . S
N1156 C1159 1.314 . S
C1157 C1154 1.348 . S
C1157 C1159 1.353 . S
C1157 H1213 0.929 . S
C1158 C1154 1.356 . S
C1158 C1155 1.358 . S
C1158 H1214 0.930 . S
C1159 N1156 1.314 . S
C1159 C1157 1.353 . S
C1159 H1215 0.930 . S
C1160 N1161 1.314 . S
C1160 C1165 1.353 . S
C1160 H1166 0.930 . S
N1161 Li1144 1.990 . S
N1161 C1160 1.314 . S
N1161 C1163 1.279 . S
C1162 C1163 1.358 . S
C1162 C1164 1.356 . S
C1162 H1216 0.930 . S
C1163 N1161 1.279 . S
C1163 C1162 1.358 . S
C1163 H1167 0.930 . S
C1164 C1162 1.356 . S
C1164 C1165 1.348 . S
C1165 C1160 1.353 . S
C1165 C1164 1.348 . S
C1165 H1217 0.929 . S
H1166 C1160 0.930 . S
H1167 C1163 0.930 . S
C1168 N1169 1.314 . S
C1168 C1170 1.353 . S
C1168 H1174 0.930 . S
N1169 Li1145 1.990 . S
N1169 C1168 1.314 . S
N1169 C1172 1.279 . S
C1170 C1168 1.353 . S
C1170 C1173 1.348 . S
C1170 H1218 0.929 . S
C1171 C1172 1.358 . S
C1171 C1173 1.356 . S
C1171 H1219 0.930 . S
C1172 N1169 1.279 . S
C1172 C1171 1.358 . S
C1172 H1175 0.930 . S
C1173 C1170 1.348 . S
C1173 C1171 1.356 . S
H1174 C1168 0.930 . S
H1175 C1172 0.930 . S
C1176 C1178 1.348 . S
C1176 C1179 1.356 . S
C1176 O1206 1.325 . S
N1177 C1180 1.314 . S
N1177 C1181 1.279 . S
C1178 C1176 1.348 . S
C1178 C1180 1.353 . S
C1178 H1220 0.929 . S
C1179 C1176 1.356 . S
C1179 C1181 1.358 . S
C1179 H1221 0.930 . S
C1180 N1177 1.314 . S
C1180 C1178 1.353 . S
C1180 H1222 0.930 . S
C1181 N1177 1.279 . S
C1181 C1179 1.358 . S
C1181 H1223 0.930 . S
C1182 C1183 1.348 . S
C1182 C1184 1.356 . S
C1182 O1207 1.325 . S
C1183 C1182 1.348 . S
C1183 C1185 1.353 . S
C1183 H1224 0.929 . S
C1184 C1182 1.356 . S
C1184 C1186 1.358 . S
C1184 H1225 0.930 . S
C1185 C1183 1.353 . S
C1185 N1187 1.314 . S
C1185 H1226 0.930 . S
C1186 C1184 1.358 . S
C1186 N1187 1.279 . S
C1186 H1227 0.930 . S
N1187 C1185 1.314 . S
N1187 C1186 1.279 . S
C1188 C1190 1.353 . S
C1188 N1191 1.314 . S
C1188 H1194 0.930 . S
C1189 N1191 1.279 . S
C1189 C1192 1.358 . S
C1189 H1195 0.930 . S
C1190 C1188 1.353 . S
C1190 C1193 1.348 . S
C1190 H1228 0.929 . S
N1191 Li1146 1.990 . S
N1191 C1188 1.314 . S
N1191 C1189 1.279 . S
C1192 C1189 1.358 . S
C1192 C1193 1.356 . S
C1192 H1229 0.930 . S
C1193 C1190 1.348 . S
C1193 C1192 1.356 . S
H1194 C1188 0.930 . S
H1195 C1189 0.930 . S
C1196 N1197 1.314 . S
C1196 C1198 1.353 . S
C1196 H1202 0.930 . S
N1197 Li1147 1.990 . S
N1197 C1196 1.314 . S
N1197 C1200 1.279 . S
C1198 C1196 1.353 . S
C1198 C1201 1.348 . S
C1198 H1230 0.929 . S
C1199 C1200 1.358 . S
C1199 C1201 1.356 . S
C1199 H1231 0.930 . S
C1200 N1197 1.279 . S
C1200 C1199 1.358 . S
C1200 H1203 0.930 . S
C1201 C1198 1.348 . S
C1201 C1199 1.356 . S
H1202 C1196 0.930 . S
H1203 C1200 0.930 . S
O1204 Li1144 1.956 . S
O1204 Li1145 1.970 . S
O1204 Li1146 1.961 . S
O1204 C1148 1.325 . S
O1205 Li1144 1.970 . S
O1205 Li1145 1.956 . S
O1205 Li1147 1.961 . S
O1205 C1154 1.325 . S
O1206 Li1144 1.961 . S
O1206 Li1146 1.956 . S
O1206 Li1147 1.970 . S
O1206 C1176 1.325 . S
O1207 Li1145 1.961 . S
O1207 Li1146 1.970 . S
O1207 Li1147 1.956 . S
O1207 C1182 1.325 . S
H1208 C1150 0.929 . S
H1209 C1151 0.930 . S
H1210 C1152 0.930 . S
H1211 C1153 0.930 . S
H1212 C1155 0.930 . S
H1213 C1157 0.929 . S
H1214 C1158 0.930 . S
H1215 C1159 0.930 . S
H1216 C1162 0.930 . S
H1217 C1165 0.929 . S
H1218 C1170 0.929 . S
H1219 C1171 0.930 . S
H1220 C1178 0.929 . S
H1221 C1179 0.930 . S
H1222 C1180 0.930 . S
H1223 C1181 0.930 . S
H1224 C1183 0.929 . S
H1225 C1184 0.930 . S
H1226 C1185 0.930 . S
H1227 C1186 0.930 . S
H1228 C1190 0.929 . S
H1229 C1192 0.930 . S
H1230 C1198 0.929 . S
H1231 C1199 0.930 . S
Li1232 N1249 1.990 . S
Li1232 O1292 1.956 . S
Li1232 O1293 1.970 . S
Li1232 O1294 1.961 . S
Li1233 N1257 1.990 . S
Li1233 O1292 1.970 . S
Li1233 O1293 1.956 . S
Li1233 O1295 1.961 . S
Li1234 N1279 1.990 . S
Li1234 O1292 1.961 . S
Li1234 O1294 1.956 . S
Li1234 O1295 1.970 . S
Li1235 N1285 1.990 . S
Li1235 O1293 1.961 . S
Li1235 O1294 1.970 . S
Li1235 O1295 1.956 . S
C1236 C1238 1.348 . S
C1236 C1239 1.356 . S
C1236 O1292 1.325 . S
N1237 C1240 1.314 . S
N1237 C1241 1.279 . S
C1238 C1236 1.348 . S
C1238 C1240 1.353 . S
C1238 H1296 0.929 . S
C1239 C1236 1.356 . S
C1239 C1241 1.358 . S
C1239 H1297 0.930 . S
C1240 N1237 1.314 . S
C1240 C1238 1.353 . S
C1240 H1298 0.930 . S
C1241 N1237 1.279 . S
C1241 C1239 1.358 . S
C1241 H1299 0.930 . S
C1242 C1245 1.348 . S
C1242 C1246 1.356 . S
C1242 O1293 1.325 . S
C1243 N1244 1.279 . S
C1243 C1246 1.358 . S
C1243 H1300 0.930 . S
N1244 C1243 1.279 . S
N1244 C1247 1.314 . S
C1245 C1242 1.348 . S
C1245 C1247 1.353 . S
C1245 H1301 0.929 . S
C1246 C1242 1.356 . S
C1246 C1243 1.358 . S
C1246 H1302 0.930 . S
C1247 N1244 1.314 . S
C1247 C1245 1.353 . S
C1247 H1303 0.930 . S
C1248 N1249 1.314 . S
C1248 C1253 1.353 . S
C1248 H1254 0.930 . S
N1249 Li1232 1.990 . S
N1249 C1248 1.314 . S
N1249 C1251 1.279 . S
C1250 C1251 1.358 . S
C1250 C1252 1.356 . S
C1250 H1304 0.930 . S
C1251 N1249 1.279 . S
C1251 C1250 1.358 . S
C1251 H1255 0.930 . S
C1252 C1250 1.356 . S
C1252 C1253 1.348 . S
C1253 C1248 1.353 . S
C1253 C1252 1.348 . S
C1253 H1305 0.929 . S
H1254 C1248 0.930 . S
H1255 C1251 0.930 . S
C1256 N1257 1.314 . S
C1256 C1258 1.353 . S
C1256 H1262 0.930 . S
N1257 Li1233 1.990 . S
N1257 C1256 1.314 . S
N1257 C1260 1.279 . S
C1258 C1256 1.353 . S
C1258 C1261 1.348 . S
C1258 H1306 0.929 . S
C1259 C1260 1.358 . S
C1259 C1261 1.356 . S
C1259 H1307 0.930 . S
C1260 N1257 1.279 . S
C1260 C1259 1.358 . S
C1260 H1263 0.930 . S
C1261 C1258 1.348 . S
C1261 C1259 1.356 . S
H1262 C1256 0.930 . S
H1263 C1260 0.930 . S
C1264 C1266 1.348 . S
C1264 C1267 1.356 . S
C1264 O1294 1.325 . S
N1265 C1268 1.314 . S
N1265 C1269 1.279 . S
C1266 C1264 1.348 . S
C1266 C1268 1.353 . S
C1266 H1308 0.929 . S
C1267 C1264 1.356 . S
C1267 C1269 1.358 . S
C1267 H1309 0.930 . S
C1268 N1265 1.314 . S
C1268 C1266 1.353 . S
C1268 H1310 0.930 . S
C1269 N1265 1.279 . S
C1269 C1267 1.358 . S
C1269 H1311 0.930 . S
C1270 C1271 1.348 . S
C1270 C1272 1.356 . S
C1270 O1295 1.325 . S
C1271 C1270 1.348 . S
C1271 C1273 1.353 . S
C1271 H1312 0.929 . S
C1272 C1270 1.356 . S
C1272 C1274 1.358 . S
C1272 H1313 0.930 . S
C1273 C1271 1.353 . S
C1273 N1275 1.314 . S
C1273 H1314 0.930 . S
C1274 C1272 1.358 . S
C1274 N1275 1.279 . S
C1274 H1315 0.930 . S
N1275 C1273 1.314 . S
N1275 C1274 1.279 . S
C1276 C1278 1.353 . S
C1276 N1279 1.314 . S
C1276 H1282 0.930 . S
C1277 N1279 1.279 . S
C1277 C1280 1.358 . S
C1277 H1283 0.930 . S
C1278 C1276 1.353 . S
C1278 C1281 1.348 . S
C1278 H1316 0.929 . S
N1279 Li1234 1.990 . S
N1279 C1276 1.314 . S
N1279 C1277 1.279 . S
C1280 C1277 1.358 . S
C1280 C1281 1.356 . S
C1280 H1317 0.930 . S
C1281 C1278 1.348 . S
C1281 C1280 1.356 . S
H1282 C1276 0.930 . S
H1283 C1277 0.930 . S
C1284 N1285 1.314 . S
C1284 C1286 1.353 . S
C1284 H1290 0.930 . S
N1285 Li1235 1.990 . S
N1285 C1284 1.314 . S
N1285 C1288 1.279 . S
C1286 C1284 1.353 . S
C1286 C1289 1.348 . S
C1286 H1318 0.929 . S
C1287 C1288 1.358 . S
C1287 C1289 1.356 . S
C1287 H1319 0.930 . S
C1288 N1285 1.279 . S
C1288 C1287 1.358 . S
C1288 H1291 0.930 . S
C1289 C1286 1.348 . S
C1289 C1287 1.356 . S
H1290 C1284 0.930 . S
H1291 C1288 0.930 . S
O1292 Li1232 1.956 . S
O1292 Li1233 1.970 . S
O1292 Li1234 1.961 . S
O1292 C1236 1.325 . S
O1293 Li1232 1.970 . S
O1293 Li1233 1.956 . S
O1293 Li1235 1.961 . S
O1293 C1242 1.325 . S
O1294 Li1232 1.961 . S
O1294 Li1234 1.956 . S
O1294 Li1235 1.970 . S
O1294 C1264 1.325 . S
O1295 Li1233 1.961 . S
O1295 Li1234 1.970 . S
O1295 Li1235 1.956 . S
O1295 C1270 1.325 . S
H1296 C1238 0.929 . S
H1297 C1239 0.930 . S
H1298 C1240 0.930 . S
H1299 C1241 0.930 . S
H1300 C1243 0.930 . S
H1301 C1245 0.929 . S
H1302 C1246 0.930 . S
H1303 C1247 0.930 . S
H1304 C1250 0.930 . S
H1305 C1253 0.929 . S
H1306 C1258 0.929 . S
H1307 C1259 0.930 . S
H1308 C1266 0.929 . S
H1309 C1267 0.930 . S
H1310 C1268 0.930 . S
H1311 C1269 0.930 . S
H1312 C1271 0.929 . S
H1313 C1272 0.930 . S
H1314 C1273 0.930 . S
H1315 C1274 0.930 . S
H1316 C1278 0.929 . S
H1317 C1280 0.930 . S
H1318 C1286 0.929 . S
H1319 C1287 0.930 . S
Li1320 N1337 1.990 . S
Li1320 O1380 1.956 . S
Li1320 O1381 1.970 . S
Li1320 O1382 1.961 . S
Li1321 N1345 1.990 . S
Li1321 O1380 1.970 . S
Li1321 O1381 1.956 . S
Li1321 O1383 1.961 . S
Li1322 N1367 1.990 . S
Li1322 O1380 1.961 . S
Li1322 O1382 1.956 . S
Li1322 O1383 1.970 . S
Li1323 N1373 1.990 . S
Li1323 O1381 1.961 . S
Li1323 O1382 1.970 . S
Li1323 O1383 1.956 . S
C1324 C1326 1.348 . S
C1324 C1327 1.356 . S
C1324 O1380 1.325 . S
N1325 C1328 1.314 . S
N1325 C1329 1.279 . S
C1326 C1324 1.348 . S
C1326 C1328 1.353 . S
C1326 H1384 0.929 . S
C1327 C1324 1.356 . S
C1327 C1329 1.358 . S
C1327 H1385 0.930 . S
C1328 N1325 1.314 . S
C1328 C1326 1.353 . S
C1328 H1386 0.930 . S
C1329 N1325 1.279 . S
C1329 C1327 1.358 . S
C1329 H1387 0.930 . S
C1330 C1333 1.348 . S
C1330 C1334 1.356 . S
C1330 O1381 1.325 . S
C1331 N1332 1.279 . S
C1331 C1334 1.358 . S
C1331 H1388 0.930 . S
N1332 C1331 1.279 . S
N1332 C1335 1.314 . S
C1333 C1330 1.348 . S
C1333 C1335 1.353 . S
C1333 H1389 0.929 . S
C1334 C1330 1.356 . S
C1334 C1331 1.358 . S
C1334 H1390 0.930 . S
C1335 N1332 1.314 . S
C1335 C1333 1.353 . S
C1335 H1391 0.930 . S
C1336 N1337 1.314 . S
C1336 C1341 1.353 . S
C1336 H1342 0.930 . S
N1337 Li1320 1.990 . S
N1337 C1336 1.314 . S
N1337 C1339 1.279 . S
C1338 C1339 1.358 . S
C1338 C1340 1.356 . S
C1338 H1392 0.930 . S
C1339 N1337 1.279 . S
C1339 C1338 1.358 . S
C1339 H1343 0.930 . S
C1340 C1338 1.356 . S
C1340 C1341 1.348 . S
C1341 C1336 1.353 . S
C1341 C1340 1.348 . S
C1341 H1393 0.929 . S
H1342 C1336 0.930 . S
H1343 C1339 0.930 . S
C1344 N1345 1.314 . S
C1344 C1346 1.353 . S
C1344 H1350 0.930 . S
N1345 Li1321 1.990 . S
N1345 C1344 1.314 . S
N1345 C1348 1.279 . S
C1346 C1344 1.353 . S
C1346 C1349 1.348 . S
C1346 H1394 0.929 . S
C1347 C1348 1.358 . S
C1347 C1349 1.356 . S
C1347 H1395 0.930 . S
C1348 N1345 1.279 . S
C1348 C1347 1.358 . S
C1348 H1351 0.930 . S
C1349 C1346 1.348 . S
C1349 C1347 1.356 . S
H1350 C1344 0.930 . S
H1351 C1348 0.930 . S
C1352 C1354 1.348 . S
C1352 C1355 1.356 . S
C1352 O1382 1.325 . S
N1353 C1356 1.314 . S
N1353 C1357 1.279 . S
C1354 C1352 1.348 . S
C1354 C1356 1.353 . S
C1354 H1396 0.929 . S
C1355 C1352 1.356 . S
C1355 C1357 1.358 . S
C1355 H1397 0.930 . S
C1356 N1353 1.314 . S
C1356 C1354 1.353 . S
C1356 H1398 0.930 . S
C1357 N1353 1.279 . S
C1357 C1355 1.358 . S
C1357 H1399 0.930 . S
C1358 C1359 1.348 . S
C1358 C1360 1.356 . S
C1358 O1383 1.325 . S
C1359 C1358 1.348 . S
C1359 C1361 1.353 . S
C1359 H1400 0.929 . S
C1360 C1358 1.356 . S
C1360 C1362 1.358 . S
C1360 H1401 0.930 . S
C1361 C1359 1.353 . S
C1361 N1363 1.314 . S
C1361 H1402 0.930 . S
C1362 C1360 1.358 . S
C1362 N1363 1.279 . S
C1362 H1403 0.930 . S
N1363 C1361 1.314 . S
N1363 C1362 1.279 . S
C1364 C1366 1.353 . S
C1364 N1367 1.314 . S
C1364 H1370 0.930 . S
C1365 N1367 1.279 . S
C1365 C1368 1.358 . S
C1365 H1371 0.930 . S
C1366 C1364 1.353 . S
C1366 C1369 1.348 . S
C1366 H1404 0.929 . S
N1367 Li1322 1.990 . S
N1367 C1364 1.314 . S
N1367 C1365 1.279 . S
C1368 C1365 1.358 . S
C1368 C1369 1.356 . S
C1368 H1405 0.930 . S
C1369 C1366 1.348 . S
C1369 C1368 1.356 . S
H1370 C1364 0.930 . S
H1371 C1365 0.930 . S
C1372 N1373 1.314 . S
C1372 C1374 1.353 . S
C1372 H1378 0.930 . S
N1373 Li1323 1.990 . S
N1373 C1372 1.314 . S
N1373 C1376 1.279 . S
C1374 C1372 1.353 . S
C1374 C1377 1.348 . S
C1374 H1406 0.929 . S
C1375 C1376 1.358 . S
C1375 C1377 1.356 . S
C1375 H1407 0.930 . S
C1376 N1373 1.279 . S
C1376 C1375 1.358 . S
C1376 H1379 0.930 . S
C1377 C1374 1.348 . S
C1377 C1375 1.356 . S
H1378 C1372 0.930 . S
H1379 C1376 0.930 . S
O1380 Li1320 1.956 . S
O1380 Li1321 1.970 . S
O1380 Li1322 1.961 . S
O1380 C1324 1.325 . S
O1381 Li1320 1.970 . S
O1381 Li1321 1.956 . S
O1381 Li1323 1.961 . S
O1381 C1330 1.325 . S
O1382 Li1320 1.961 . S
O1382 Li1322 1.956 . S
O1382 Li1323 1.970 . S
O1382 C1352 1.325 . S
O1383 Li1321 1.961 . S
O1383 Li1322 1.970 . S
O1383 Li1323 1.956 . S
O1383 C1358 1.325 . S
H1384 C1326 0.929 . S
H1385 C1327 0.930 . S
H1386 C1328 0.930 . S
H1387 C1329 0.930 . S
H1388 C1331 0.930 . S
H1389 C1333 0.929 . S
H1390 C1334 0.930 . S
H1391 C1335 0.930 . S
H1392 C1338 0.930 . S
H1393 C1341 0.929 . S
H1394 C1346 0.929 . S
H1395 C1347 0.930 . S
H1396 C1354 0.929 . S
H1397 C1355 0.930 . S
H1398 C1356 0.930 . S
H1399 C1357 0.930 . S
H1400 C1359 0.929 . S
H1401 C1360 0.930 . S
H1402 C1361 0.930 . S
H1403 C1362 0.930 . S
H1404 C1366 0.929 . S
H1405 C1368 0.930 . S
H1406 C1374 0.929 . S
H1407 C1375 0.930 . S
Li1408 N1425 1.990 . S
Li1408 O1468 1.956 . S
Li1408 O1469 1.970 . S
Li1408 O1470 1.961 . S
Li1409 N1433 1.990 . S
Li1409 O1468 1.970 . S
Li1409 O1469 1.956 . S
Li1409 O1471 1.961 . S
Li1410 N1455 1.990 . S
Li1410 O1468 1.961 . S
Li1410 O1470 1.956 . S
Li1410 O1471 1.970 . S
Li1411 N1461 1.990 . S
Li1411 O1469 1.961 . S
Li1411 O1470 1.970 . S
Li1411 O1471 1.956 . S
C1412 C1414 1.348 . S
C1412 C1415 1.356 . S
C1412 O1468 1.325 . S
N1413 C1416 1.314 . S
N1413 C1417 1.279 . S
C1414 C1412 1.348 . S
C1414 C1416 1.353 . S
C1414 H1472 0.929 . S
C1415 C1412 1.356 . S
C1415 C1417 1.358 . S
C1415 H1473 0.930 . S
C1416 N1413 1.314 . S
C1416 C1414 1.353 . S
C1416 H1474 0.930 . S
C1417 N1413 1.279 . S
C1417 C1415 1.358 . S
C1417 H1475 0.930 . S
C1418 C1421 1.348 . S
C1418 C1422 1.356 . S
C1418 O1469 1.325 . S
C1419 N1420 1.279 . S
C1419 C1422 1.358 . S
C1419 H1476 0.930 . S
N1420 C1419 1.279 . S
N1420 C1423 1.314 . S
C1421 C1418 1.348 . S
C1421 C1423 1.353 . S
C1421 H1477 0.929 . S
C1422 C1418 1.356 . S
C1422 C1419 1.358 . S
C1422 H1478 0.930 . S
C1423 N1420 1.314 . S
C1423 C1421 1.353 . S
C1423 H1479 0.930 . S
C1424 N1425 1.314 . S
C1424 C1429 1.353 . S
C1424 H1430 0.930 . S
N1425 Li1408 1.990 . S
N1425 C1424 1.314 . S
N1425 C1427 1.279 . S
C1426 C1427 1.358 . S
C1426 C1428 1.356 . S
C1426 H1480 0.930 . S
C1427 N1425 1.279 . S
C1427 C1426 1.358 . S
C1427 H1431 0.930 . S
C1428 C1426 1.356 . S
C1428 C1429 1.348 . S
C1429 C1424 1.353 . S
C1429 C1428 1.348 . S
C1429 H1481 0.929 . S
H1430 C1424 0.930 . S
H1431 C1427 0.930 . S
C1432 N1433 1.314 . S
C1432 C1434 1.353 . S
C1432 H1438 0.930 . S
N1433 Li1409 1.990 . S
N1433 C1432 1.314 . S
N1433 C1436 1.279 . S
C1434 C1432 1.353 . S
C1434 C1437 1.348 . S
C1434 H1482 0.929 . S
C1435 C1436 1.358 . S
C1435 C1437 1.356 . S
C1435 H1483 0.930 . S
C1436 N1433 1.279 . S
C1436 C1435 1.358 . S
C1436 H1439 0.930 . S
C1437 C1434 1.348 . S
C1437 C1435 1.356 . S
H1438 C1432 0.930 . S
H1439 C1436 0.930 . S
C1440 C1442 1.348 . S
C1440 C1443 1.356 . S
C1440 O1470 1.325 . S
N1441 C1444 1.314 . S
N1441 C1445 1.279 . S
C1442 C1440 1.348 . S
C1442 C1444 1.353 . S
C1442 H1484 0.929 . S
C1443 C1440 1.356 . S
C1443 C1445 1.358 . S
C1443 H1485 0.930 . S
C1444 N1441 1.314 . S
C1444 C1442 1.353 . S
C1444 H1486 0.930 . S
C1445 N1441 1.279 . S
C1445 C1443 1.358 . S
C1445 H1487 0.930 . S
C1446 C1447 1.348 . S
C1446 C1448 1.356 . S
C1446 O1471 1.325 . S
C1447 C1446 1.348 . S
C1447 C1449 1.353 . S
C1447 H1488 0.929 . S
C1448 C1446 1.356 . S
C1448 C1450 1.358 . S
C1448 H1489 0.930 . S
C1449 C1447 1.353 . S
C1449 N1451 1.314 . S
C1449 H1490 0.930 . S
C1450 C1448 1.358 . S
C1450 N1451 1.279 . S
C1450 H1491 0.930 . S
N1451 C1449 1.314 . S
N1451 C1450 1.279 . S
C1452 C1454 1.353 . S
C1452 N1455 1.314 . S
C1452 H1458 0.930 . S
C1453 N1455 1.279 . S
C1453 C1456 1.358 . S
C1453 H1459 0.930 . S
C1454 C1452 1.353 . S
C1454 C1457 1.348 . S
C1454 H1492 0.929 . S
N1455 Li1410 1.990 . S
N1455 C1452 1.314 . S
N1455 C1453 1.279 . S
C1456 C1453 1.358 . S
C1456 C1457 1.356 . S
C1456 H1493 0.930 . S
C1457 C1454 1.348 . S
C1457 C1456 1.356 . S
H1458 C1452 0.930 . S
H1459 C1453 0.930 . S
C1460 N1461 1.314 . S
C1460 C1462 1.353 . S
C1460 H1466 0.930 . S
N1461 Li1411 1.990 . S
N1461 C1460 1.314 . S
N1461 C1464 1.279 . S
C1462 C1460 1.353 . S
C1462 C1465 1.348 . S
C1462 H1494 0.929 . S
C1463 C1464 1.358 . S
C1463 C1465 1.356 . S
C1463 H1495 0.930 . S
C1464 N1461 1.279 . S
C1464 C1463 1.358 . S
C1464 H1467 0.930 . S
C1465 C1462 1.348 . S
C1465 C1463 1.356 . S
H1466 C1460 0.930 . S
H1467 C1464 0.930 . S
O1468 Li1408 1.956 . S
O1468 Li1409 1.970 . S
O1468 Li1410 1.961 . S
O1468 C1412 1.325 . S
O1469 Li1408 1.970 . S
O1469 Li1409 1.956 . S
O1469 Li1411 1.961 . S
O1469 C1418 1.325 . S
O1470 Li1408 1.961 . S
O1470 Li1410 1.956 . S
O1470 Li1411 1.970 . S
O1470 C1440 1.325 . S
O1471 Li1409 1.961 . S
O1471 Li1410 1.970 . S
O1471 Li1411 1.956 . S
O1471 C1446 1.325 . S
H1472 C1414 0.929 . S
H1473 C1415 0.930 . S
H1474 C1416 0.930 . S
H1475 C1417 0.930 . S
H1476 C1419 0.930 . S
H1477 C1421 0.929 . S
H1478 C1422 0.930 . S
H1479 C1423 0.930 . S
H1480 C1426 0.930 . S
H1481 C1429 0.929 . S
H1482 C1434 0.929 . S
H1483 C1435 0.930 . S
H1484 C1442 0.929 . S
H1485 C1443 0.930 . S
H1486 C1444 0.930 . S
H1487 C1445 0.930 . S
H1488 C1447 0.929 . S
H1489 C1448 0.930 . S
H1490 C1449 0.930 . S
H1491 C1450 0.930 . S
H1492 C1454 0.929 . S
H1493 C1456 0.930 . S
H1494 C1462 0.929 . S
H1495 C1463 0.930 . S
Li1496 N1513 1.990 . S
Li1496 O1556 1.956 . S
Li1496 O1557 1.970 . S
Li1496 O1558 1.961 . S
Li1497 N1521 1.990 . S
Li1497 O1556 1.970 . S
Li1497 O1557 1.956 . S
Li1497 O1559 1.961 . S
Li1498 N1543 1.990 . S
Li1498 O1556 1.961 . S
Li1498 O1558 1.956 . S
Li1498 O1559 1.970 . S
Li1499 N1549 1.990 . S
Li1499 O1557 1.961 . S
Li1499 O1558 1.970 . S
Li1499 O1559 1.956 . S
C1500 C1502 1.348 . S
C1500 C1503 1.356 . S
C1500 O1556 1.325 . S
N1501 C1504 1.314 . S
N1501 C1505 1.279 . S
C1502 C1500 1.348 . S
C1502 C1504 1.353 . S
C1502 H1560 0.929 . S
C1503 C1500 1.356 . S
C1503 C1505 1.358 . S
C1503 H1561 0.930 . S
C1504 N1501 1.314 . S
C1504 C1502 1.353 . S
C1504 H1562 0.930 . S
C1505 N1501 1.279 . S
C1505 C1503 1.358 . S
C1505 H1563 0.930 . S
C1506 C1509 1.348 . S
C1506 C1510 1.356 . S
C1506 O1557 1.325 . S
C1507 N1508 1.279 . S
C1507 C1510 1.358 . S
C1507 H1564 0.930 . S
N1508 C1507 1.279 . S
N1508 C1511 1.314 . S
C1509 C1506 1.348 . S
C1509 C1511 1.353 . S
C1509 H1565 0.929 . S
C1510 C1506 1.356 . S
C1510 C1507 1.358 . S
C1510 H1566 0.930 . S
C1511 N1508 1.314 . S
C1511 C1509 1.353 . S
C1511 H1567 0.930 . S
C1512 N1513 1.314 . S
C1512 C1517 1.353 . S
C1512 H1518 0.930 . S
N1513 Li1496 1.990 . S
N1513 C1512 1.314 . S
N1513 C1515 1.279 . S
C1514 C1515 1.358 . S
C1514 C1516 1.356 . S
C1514 H1568 0.930 . S
C1515 N1513 1.279 . S
C1515 C1514 1.358 . S
C1515 H1519 0.930 . S
C1516 C1514 1.356 . S
C1516 C1517 1.348 . S
C1517 C1512 1.353 . S
C1517 C1516 1.348 . S
C1517 H1569 0.929 . S
H1518 C1512 0.930 . S
H1519 C1515 0.930 . S
C1520 N1521 1.314 . S
C1520 C1522 1.353 . S
C1520 H1526 0.930 . S
N1521 Li1497 1.990 . S
N1521 C1520 1.314 . S
N1521 C1524 1.279 . S
C1522 C1520 1.353 . S
C1522 C1525 1.348 . S
C1522 H1570 0.929 . S
C1523 C1524 1.358 . S
C1523 C1525 1.356 . S
C1523 H1571 0.930 . S
C1524 N1521 1.279 . S
C1524 C1523 1.358 . S
C1524 H1527 0.930 . S
C1525 C1522 1.348 . S
C1525 C1523 1.356 . S
H1526 C1520 0.930 . S
H1527 C1524 0.930 . S
C1528 C1530 1.348 . S
C1528 C1531 1.356 . S
C1528 O1558 1.325 . S
N1529 C1532 1.314 . S
N1529 C1533 1.279 . S
C1530 C1528 1.348 . S
C1530 C1532 1.353 . S
C1530 H1572 0.929 . S
C1531 C1528 1.356 . S
C1531 C1533 1.358 . S
C1531 H1573 0.930 . S
C1532 N1529 1.314 . S
C1532 C1530 1.353 . S
C1532 H1574 0.930 . S
C1533 N1529 1.279 . S
C1533 C1531 1.358 . S
C1533 H1575 0.930 . S
C1534 C1535 1.348 . S
C1534 C1536 1.356 . S
C1534 O1559 1.325 . S
C1535 C1534 1.348 . S
C1535 C1537 1.353 . S
C1535 H1576 0.929 . S
C1536 C1534 1.356 . S
C1536 C1538 1.358 . S
C1536 H1577 0.930 . S
C1537 C1535 1.353 . S
C1537 N1539 1.314 . S
C1537 H1578 0.930 . S
C1538 C1536 1.358 . S
C1538 N1539 1.279 . S
C1538 H1579 0.930 . S
N1539 C1537 1.314 . S
N1539 C1538 1.279 . S
C1540 C1542 1.353 . S
C1540 N1543 1.314 . S
C1540 H1546 0.930 . S
C1541 N1543 1.279 . S
C1541 C1544 1.358 . S
C1541 H1547 0.930 . S
C1542 C1540 1.353 . S
C1542 C1545 1.348 . S
C1542 H1580 0.929 . S
N1543 Li1498 1.990 . S
N1543 C1540 1.314 . S
N1543 C1541 1.279 . S
C1544 C1541 1.358 . S
C1544 C1545 1.356 . S
C1544 H1581 0.930 . S
C1545 C1542 1.348 . S
C1545 C1544 1.356 . S
H1546 C1540 0.930 . S
H1547 C1541 0.930 . S
C1548 N1549 1.314 . S
C1548 C1550 1.353 . S
C1548 H1554 0.930 . S
N1549 Li1499 1.990 . S
N1549 C1548 1.314 . S
N1549 C1552 1.279 . S
C1550 C1548 1.353 . S
C1550 C1553 1.348 . S
C1550 H1582 0.929 . S
C1551 C1552 1.358 . S
C1551 C1553 1.356 . S
C1551 H1583 0.930 . S
C1552 N1549 1.279 . S
C1552 C1551 1.358 . S
C1552 H1555 0.930 . S
C1553 C1550 1.348 . S
C1553 C1551 1.356 . S
H1554 C1548 0.930 . S
H1555 C1552 0.930 . S
O1556 Li1496 1.956 . S
O1556 Li1497 1.970 . S
O1556 Li1498 1.961 . S
O1556 C1500 1.325 . S
O1557 Li1496 1.970 . S
O1557 Li1497 1.956 . S
O1557 Li1499 1.961 . S
O1557 C1506 1.325 . S
O1558 Li1496 1.961 . S
O1558 Li1498 1.956 . S
O1558 Li1499 1.970 . S
O1558 C1528 1.325 . S
O1559 Li1497 1.961 . S
O1559 Li1498 1.970 . S
O1559 Li1499 1.956 . S
O1559 C1534 1.325 . S
H1560 C1502 0.929 . S
H1561 C1503 0.930 . S
H1562 C1504 0.930 . S
H1563 C1505 0.930 . S
H1564 C1507 0.930 . S
H1565 C1509 0.929 . S
H1566 C1510 0.930 . S
H1567 C1511 0.930 . S
H1568 C1514 0.930 . S
H1569 C1517 0.929 . S
H1570 C1522 0.929 . S
H1571 C1523 0.930 . S
H1572 C1530 0.929 . S
H1573 C1531 0.930 . S
H1574 C1532 0.930 . S
H1575 C1533 0.930 . S
H1576 C1535 0.929 . S
H1577 C1536 0.930 . S
H1578 C1537 0.930 . S
H1579 C1538 0.930 . S
H1580 C1542 0.929 . S
H1581 C1544 0.930 . S
H1582 C1550 0.929 . S
H1583 C1551 0.930 . S
C1584 C1585 1.349 . S
C1584 C1586 1.327 . S
C1584 H1609 0.950 . S
C1585 C1584 1.349 . S
C1585 C1601 1.349 . S
C1586 C1584 1.327 . S
C1586 C1605 1.429 . S
C1586 H1610 0.950 . S
C1587 C1604 1.574 . S
C1587 C1606 1.368 . S
C1587 H1611 0.949 . S
H1588 C1592 0.949 . S
C1589 C1590 1.349 . S
C1589 C1591 1.327 . S
C1589 H1612 0.950 . S
C1590 C1589 1.349 . S
C1590 C1602 1.349 . S
C1591 C1589 1.327 . S
C1591 C1607 1.429 . S
C1591 H1613 0.950 . S
C1592 H1588 0.949 . S
C1592 C1600 1.574 . S
C1592 C1608 1.368 . S
H1593 C1601 0.950 . S
H1594 C1599 0.950 . S
H1595 C1600 0.949 . S
H1596 C1602 0.950 . S
H1597 C1603 0.950 . S
H1598 C1604 0.949 . S
C1599 H1594 0.950 . S
C1599 C1601 1.327 . S
C1599 C1605 1.429 . S
C1600 C1592 1.574 . S
C1600 H1595 0.949 . S
C1600 C1606 1.368 . S
C1601 C1585 1.349 . S
C1601 H1593 0.950 . S
C1601 C1599 1.327 . S
C1602 C1590 1.349 . S
C1602 H1596 0.950 . S
C1602 C1603 1.327 . S
C1603 H1597 0.950 . S
C1603 C1602 1.327 . S
C1603 C1607 1.429 . S
C1604 C1587 1.574 . S
C1604 H1598 0.949 . S
C1604 C1608 1.368 . S
C1605 C1586 1.429 . S
C1605 C1599 1.429 . S
C1605 C1606 1.523 . S
C1606 C1587 1.368 . S
C1606 C1600 1.368 . S
C1606 C1605 1.523 . S
C1607 C1591 1.429 . S
C1607 C1603 1.429 . S
C1607 C1608 1.523 . S
C1608 C1592 1.368 . S
C1608 C1604 1.368 . S
C1608 C1607 1.523 . S
H1609 C1584 0.950 . S
H1610 C1586 0.950 . S
H1611 C1587 0.949 . S
H1612 C1589 0.950 . S
H1613 C1591 0.950 . S
C1614 C1615 1.349 . S
C1614 C1616 1.327 . S
C1614 H1639 0.950 . S
C1615 C1614 1.349 . S
C1615 C1631 1.349 . S
C1616 C1614 1.327 . S
C1616 C1635 1.429 . S
C1616 H1640 0.950 . S
C1617 C1634 1.574 . S
C1617 C1636 1.368 . S
C1617 H1641 0.949 . S
H1618 C1622 0.949 . S
C1619 C1620 1.349 . S
C1619 C1621 1.327 . S
C1619 H1642 0.950 . S
C1620 C1619 1.349 . S
C1620 C1632 1.349 . S
C1621 C1619 1.327 . S
C1621 C1637 1.429 . S
C1621 H1643 0.950 . S
C1622 H1618 0.949 . S
C1622 C1630 1.574 . S
C1622 C1638 1.368 . S
H1623 C1631 0.950 . S
H1624 C1629 0.950 . S
H1625 C1630 0.949 . S
H1626 C1632 0.950 . S
H1627 C1633 0.950 . S
H1628 C1634 0.949 . S
C1629 H1624 0.950 . S
C1629 C1631 1.327 . S
C1629 C1635 1.429 . S
C1630 C1622 1.574 . S
C1630 H1625 0.949 . S
C1630 C1636 1.368 . S
C1631 C1615 1.349 . S
C1631 H1623 0.950 . S
C1631 C1629 1.327 . S
C1632 C1620 1.349 . S
C1632 H1626 0.950 . S
C1632 C1633 1.327 . S
C1633 H1627 0.950 . S
C1633 C1632 1.327 . S
C1633 C1637 1.429 . S
C1634 C1617 1.574 . S
C1634 H1628 0.949 . S
C1634 C1638 1.368 . S
C1635 C1616 1.429 . S
C1635 C1629 1.429 . S
C1635 C1636 1.523 . S
C1636 C1617 1.368 . S
C1636 C1630 1.368 . S
C1636 C1635 1.523 . S
C1637 C1621 1.429 . S
C1637 C1633 1.429 . S
C1637 C1638 1.523 . S
C1638 C1622 1.368 . S
C1638 C1634 1.368 . S
C1638 C1637 1.523 . S
H1639 C1614 0.950 . S
H1640 C1616 0.950 . S
H1641 C1617 0.949 . S
H1642 C1619 0.950 . S
H1643 C1621 0.950 . S
C1644 C1645 1.349 . S
C1644 C1646 1.327 . S
C1644 H1669 0.950 . S
C1645 C1644 1.349 . S
C1645 C1661 1.349 . S
C1646 C1644 1.327 . S
C1646 C1665 1.429 . S
C1646 H1670 0.950 . S
C1647 C1664 1.574 . S
C1647 C1666 1.368 . S
C1647 H1671 0.949 . S
H1648 C1652 0.949 . S
C1649 C1650 1.349 . S
C1649 C1651 1.327 . S
C1649 H1672 0.950 . S
C1650 C1649 1.349 . S
C1650 C1662 1.349 . S
C1651 C1649 1.327 . S
C1651 C1667 1.429 . S
C1651 H1673 0.950 . S
C1652 H1648 0.949 . S
C1652 C1660 1.574 . S
C1652 C1668 1.368 . S
H1653 C1661 0.950 . S
H1654 C1659 0.950 . S
H1655 C1660 0.949 . S
H1656 C1662 0.950 . S
H1657 C1663 0.950 . S
H1658 C1664 0.949 . S
C1659 H1654 0.950 . S
C1659 C1661 1.327 . S
C1659 C1665 1.429 . S
C1660 C1652 1.574 . S
C1660 H1655 0.949 . S
C1660 C1666 1.368 . S
C1661 C1645 1.349 . S
C1661 H1653 0.950 . S
C1661 C1659 1.327 . S
C1662 C1650 1.349 . S
C1662 H1656 0.950 . S
C1662 C1663 1.327 . S
C1663 H1657 0.950 . S
C1663 C1662 1.327 . S
C1663 C1667 1.429 . S
C1664 C1647 1.574 . S
C1664 H1658 0.949 . S
C1664 C1668 1.368 . S
C1665 C1646 1.429 . S
C1665 C1659 1.429 . S
C1665 C1666 1.523 . S
C1666 C1647 1.368 . S
C1666 C1660 1.368 . S
C1666 C1665 1.523 . S
C1667 C1651 1.429 . S
C1667 C1663 1.429 . S
C1667 C1668 1.523 . S
C1668 C1652 1.368 . S
C1668 C1664 1.368 . S
C1668 C1667 1.523 . S
H1669 C1644 0.950 . S
H1670 C1646 0.950 . S
H1671 C1647 0.949 . S
H1672 C1649 0.950 . S
H1673 C1651 0.950 . S
C1674 C1675 1.349 . S
C1674 C1676 1.327 . S
C1674 H1699 0.950 . S
C1675 C1674 1.349 . S
C1675 C1691 1.349 . S
C1676 C1674 1.327 . S
C1676 C1695 1.429 . S
C1676 H1700 0.950 . S
C1677 C1694 1.574 . S
C1677 C1696 1.368 . S
C1677 H1701 0.949 . S
H1678 C1682 0.949 . S
C1679 C1680 1.349 . S
C1679 C1681 1.327 . S
C1679 H1702 0.950 . S
C1680 C1679 1.349 . S
C1680 C1692 1.349 . S
C1681 C1679 1.327 . S
C1681 C1697 1.429 . S
C1681 H1703 0.950 . S
C1682 H1678 0.949 . S
C1682 C1690 1.574 . S
C1682 C1698 1.368 . S
H1683 C1691 0.950 . S
H1684 C1689 0.950 . S
H1685 C1690 0.949 . S
H1686 C1692 0.950 . S
H1687 C1693 0.950 . S
H1688 C1694 0.949 . S
C1689 H1684 0.950 . S
C1689 C1691 1.327 . S
C1689 C1695 1.429 . S
C1690 C1682 1.574 . S
C1690 H1685 0.949 . S
C1690 C1696 1.368 . S
C1691 C1675 1.349 . S
C1691 H1683 0.950 . S
C1691 C1689 1.327 . S
C1692 C1680 1.349 . S
C1692 H1686 0.950 . S
C1692 C1693 1.327 . S
C1693 H1687 0.950 . S
C1693 C1692 1.327 . S
C1693 C1697 1.429 . S
C1694 C1677 1.574 . S
C1694 H1688 0.949 . S
C1694 C1698 1.368 . S
C1695 C1676 1.429 . S
C1695 C1689 1.429 . S
C1695 C1696 1.523 . S
C1696 C1677 1.368 . S
C1696 C1690 1.368 . S
C1696 C1695 1.523 . S
C1697 C1681 1.429 . S
C1697 C1693 1.429 . S
C1697 C1698 1.523 . S
C1698 C1682 1.368 . S
C1698 C1694 1.368 . S
C1698 C1697 1.523 . S
H1699 C1674 0.950 . S
H1700 C1676 0.950 . S
H1701 C1677 0.949 . S
H1702 C1679 0.950 . S
H1703 C1681 0.950 . S
C1704 C1705 1.349 . S
C1704 C1706 1.327 . S
C1704 H1729 0.950 . S
C1705 C1704 1.349 . S
C1705 C1721 1.349 . S
C1706 C1704 1.327 . S
C1706 C1725 1.429 . S
C1706 H1730 0.950 . S
C1707 C1724 1.574 . S
C1707 C1726 1.368 . S
C1707 H1731 0.949 . S
H1708 C1712 0.949 . S
C1709 C1710 1.349 . S
C1709 C1711 1.327 . S
C1709 H1732 0.950 . S
C1710 C1709 1.349 . S
C1710 C1722 1.349 . S
C1711 C1709 1.327 . S
C1711 C1727 1.429 . S
C1711 H1733 0.950 . S
C1712 H1708 0.949 . S
C1712 C1720 1.574 . S
C1712 C1728 1.368 . S
H1713 C1721 0.950 . S
H1714 C1719 0.950 . S
H1715 C1720 0.949 . S
H1716 C1722 0.950 . S
H1717 C1723 0.950 . S
H1718 C1724 0.949 . S
C1719 H1714 0.950 . S
C1719 C1721 1.327 . S
C1719 C1725 1.429 . S
C1720 C1712 1.574 . S
C1720 H1715 0.949 . S
C1720 C1726 1.368 . S
C1721 C1705 1.349 . S
C1721 H1713 0.950 . S
C1721 C1719 1.327 . S
C1722 C1710 1.349 . S
C1722 H1716 0.950 . S
C1722 C1723 1.327 . S
C1723 H1717 0.950 . S
C1723 C1722 1.327 . S
C1723 C1727 1.429 . S
C1724 C1707 1.574 . S
C1724 H1718 0.949 . S
C1724 C1728 1.368 . S
C1725 C1706 1.429 . S
C1725 C1719 1.429 . S
C1725 C1726 1.523 . S
C1726 C1707 1.368 . S
C1726 C1720 1.368 . S
C1726 C1725 1.523 . S
C1727 C1711 1.429 . S
C1727 C1723 1.429 . S
C1727 C1728 1.523 . S
C1728 C1712 1.368 . S
C1728 C1724 1.368 . S
C1728 C1727 1.523 . S
H1729 C1704 0.950 . S
H1730 C1706 0.950 . S
H1731 C1707 0.949 . S
H1732 C1709 0.950 . S
H1733 C1711 0.950 . S
C1734 C1735 1.349 . S
C1734 C1736 1.327 . S
C1734 H1759 0.950 . S
C1735 C1734 1.349 . S
C1735 C1751 1.349 . S
C1736 C1734 1.327 . S
C1736 C1755 1.429 . S
C1736 H1760 0.950 . S
C1737 C1754 1.574 . S
C1737 C1756 1.368 . S
C1737 H1761 0.949 . S
H1738 C1742 0.949 . S
C1739 C1740 1.349 . S
C1739 C1741 1.327 . S
C1739 H1762 0.950 . S
C1740 C1739 1.349 . S
C1740 C1752 1.349 . S
C1741 C1739 1.327 . S
C1741 C1757 1.429 . S
C1741 H1763 0.950 . S
C1742 H1738 0.949 . S
C1742 C1750 1.574 . S
C1742 C1758 1.368 . S
H1743 C1751 0.950 . S
H1744 C1749 0.950 . S
H1745 C1750 0.949 . S
H1746 C1752 0.950 . S
H1747 C1753 0.950 . S
H1748 C1754 0.949 . S
C1749 H1744 0.950 . S
C1749 C1751 1.327 . S
C1749 C1755 1.429 . S
C1750 C1742 1.574 . S
C1750 H1745 0.949 . S
C1750 C1756 1.368 . S
C1751 C1735 1.349 . S
C1751 H1743 0.950 . S
C1751 C1749 1.327 . S
C1752 C1740 1.349 . S
C1752 H1746 0.950 . S
C1752 C1753 1.327 . S
C1753 H1747 0.950 . S
C1753 C1752 1.327 . S
C1753 C1757 1.429 . S
C1754 C1737 1.574 . S
C1754 H1748 0.949 . S
C1754 C1758 1.368 . S
C1755 C1736 1.429 . S
C1755 C1749 1.429 . S
C1755 C1756 1.523 . S
C1756 C1737 1.368 . S
C1756 C1750 1.368 . S
C1756 C1755 1.523 . S
C1757 C1741 1.429 . S
C1757 C1753 1.429 . S
C1757 C1758 1.523 . S
C1758 C1742 1.368 . S
C1758 C1754 1.368 . S
C1758 C1757 1.523 . S
H1759 C1734 0.950 . S
H1760 C1736 0.950 . S
H1761 C1737 0.949 . S
H1762 C1739 0.950 . S
H1763 C1741 0.950 . S
C1764 C1765 1.349 . S
C1764 C1766 1.327 . S
C1764 H1789 0.950 . S
C1765 C1764 1.349 . S
C1765 C1781 1.349 . S
C1766 C1764 1.327 . S
C1766 C1785 1.429 . S
C1766 H1790 0.950 . S
C1767 C1784 1.574 . S
C1767 C1786 1.368 1_556 S
C1767 H1791 0.949 . S
H1768 C1772 0.949 . S
C1769 C1770 1.349 . S
C1769 C1771 1.327 . S
C1769 H1792 0.950 . S
C1770 C1769 1.349 . S
C1770 C1782 1.349 . S
C1771 C1769 1.327 . S
C1771 C1787 1.429 . S
C1771 H1793 0.950 . S
C1772 H1768 0.949 . S
C1772 C1780 1.574 . S
C1772 C1788 1.368 1_554 S
H1773 C1781 0.950 . S
H1774 C1779 0.950 . S
H1775 C1780 0.949 . S
H1776 C1782 0.950 . S
H1777 C1783 0.950 . S
H1778 C1784 0.949 . S
C1779 H1774 0.950 . S
C1779 C1781 1.327 . S
C1779 C1785 1.429 . S
C1780 C1772 1.574 . S
C1780 H1775 0.949 . S
C1780 C1786 1.368 1_455 S
C1781 C1765 1.349 . S
C1781 H1773 0.950 . S
C1781 C1779 1.327 . S
C1782 C1770 1.349 . S
C1782 H1776 0.950 . S
C1782 C1783 1.327 . S
C1783 H1777 0.950 . S
C1783 C1782 1.327 . S
C1783 C1787 1.429 . S
C1784 C1767 1.574 . S
C1784 H1778 0.949 . S
C1784 C1788 1.368 1_655 S
C1785 C1766 1.429 . S
C1785 C1779 1.429 . S
C1785 C1786 1.523 . S
C1786 C1767 1.368 1_554 S
C1786 C1780 1.368 1_655 S
C1786 C1785 1.523 . S
C1787 C1771 1.429 . S
C1787 C1783 1.429 . S
C1787 C1788 1.523 . S
C1788 C1772 1.368 1_556 S
C1788 C1784 1.368 1_455 S
C1788 C1787 1.523 . S
H1789 C1764 0.950 . S
H1790 C1766 0.950 . S
H1791 C1767 0.949 . S
H1792 C1769 0.950 . S
H1793 C1771 0.950 . S
C1794 C1795 1.349 . S
C1794 C1796 1.327 . S
C1794 H1819 0.950 . S
C1795 C1794 1.349 . S
C1795 C1811 1.349 . S
C1796 C1794 1.327 . S
C1796 C1815 1.429 . S
C1796 H1820 0.950 . S
C1797 C1814 1.574 1_554 S
C1797 C1816 1.368 . S
C1797 H1821 0.949 . S
H1798 C1802 0.949 . S
C1799 C1800 1.349 . S
C1799 C1801 1.327 . S
C1799 H1822 0.950 . S
C1800 C1799 1.349 . S
C1800 C1812 1.349 . S
C1801 C1799 1.327 . S
C1801 C1817 1.429 . S
C1801 H1823 0.950 . S
C1802 H1798 0.949 . S
C1802 C1810 1.574 1_556 S
C1802 C1818 1.368 . S
H1803 C1811 0.950 . S
H1804 C1809 0.950 . S
H1805 C1810 0.949 . S
H1806 C1812 0.950 . S
H1807 C1813 0.950 . S
H1808 C1814 0.949 . S
C1809 H1804 0.950 . S
C1809 C1811 1.327 . S
C1809 C1815 1.429 . S
C1810 C1802 1.574 1_554 S
C1810 H1805 0.949 . S
C1810 C1816 1.368 . S
C1811 C1795 1.349 . S
C1811 H1803 0.950 . S
C1811 C1809 1.327 . S
C1812 C1800 1.349 . S
C1812 H1806 0.950 . S
C1812 C1813 1.327 . S
C1813 H1807 0.950 . S
C1813 C1812 1.327 . S
C1813 C1817 1.429 . S
C1814 C1797 1.574 1_556 S
C1814 H1808 0.949 . S
C1814 C1818 1.368 . S
C1815 C1796 1.429 . S
C1815 C1809 1.429 . S
C1815 C1816 1.523 . S
C1816 C1797 1.368 . S
C1816 C1810 1.368 . S
C1816 C1815 1.523 . S
C1817 C1801 1.429 . S
C1817 C1813 1.429 . S
C1817 C1818 1.523 . S
C1818 C1802 1.368 . S
C1818 C1814 1.368 . S
C1818 C1817 1.523 . S
H1819 C1794 0.950 . S
H1820 C1796 0.950 . S
H1821 C1797 0.949 . S
H1822 C1799 0.950 . S
H1823 C1801 0.950 . S
C1824 C1825 1.349 . S
C1824 C1826 1.327 . S
C1824 H1849 0.950 . S
C1825 C1824 1.349 . S
C1825 C1841 1.349 . S
C1826 C1824 1.327 . S
C1826 C1845 1.429 . S
C1826 H1850 0.950 . S
C1827 C1844 1.574 . S
C1827 C1846 1.368 1_565 S
C1827 H1851 0.949 . S
H1828 C1832 0.949 . S
C1829 C1830 1.349 . S
C1829 C1831 1.327 . S
C1829 H1852 0.950 . S
C1830 C1829 1.349 . S
C1830 C1842 1.349 . S
C1831 C1829 1.327 . S
C1831 C1847 1.429 . S
C1831 H1853 0.950 . S
C1832 H1828 0.949 . S
C1832 C1840 1.574 . S
C1832 C1848 1.368 1_545 S
H1833 C1841 0.950 . S
H1834 C1839 0.950 . S
H1835 C1840 0.949 . S
H1836 C1842 0.950 . S
H1837 C1843 0.950 . S
H1838 C1844 0.949 . S
C1839 H1834 0.950 . S
C1839 C1841 1.327 . S
C1839 C1845 1.429 . S
C1840 C1832 1.574 . S
C1840 H1835 0.949 . S
C1840 C1846 1.368 1_556 S
C1841 C1825 1.349 . S
C1841 H1833 0.950 . S
C1841 C1839 1.327 . S
C1842 C1830 1.349 . S
C1842 H1836 0.950 . S
C1842 C1843 1.327 . S
C1843 H1837 0.950 . S
C1843 C1842 1.327 . S
C1843 C1847 1.429 . S
C1844 C1827 1.574 . S
C1844 H1838 0.949 . S
C1844 C1848 1.368 1_554 S
C1845 C1826 1.429 . S
C1845 C1839 1.429 . S
C1845 C1846 1.523 . S
C1846 C1827 1.368 1_545 S
C1846 C1840 1.368 1_554 S
C1846 C1845 1.523 . S
C1847 C1831 1.429 . S
C1847 C1843 1.429 . S
C1847 C1848 1.523 . S
C1848 C1832 1.368 1_565 S
C1848 C1844 1.368 1_556 S
C1848 C1847 1.523 . S
H1849 C1824 0.950 . S
H1850 C1826 0.950 . S
H1851 C1827 0.949 . S
H1852 C1829 0.950 . S
H1853 C1831 0.950 . S
C1854 C1855 1.349 . S
C1854 C1856 1.327 . S
C1854 H1879 0.950 . S
C1855 C1854 1.349 . S
C1855 C1871 1.349 . S
C1856 C1854 1.327 . S
C1856 C1875 1.429 . S
C1856 H1880 0.950 . S
C1857 C1874 1.574 . S
C1857 C1876 1.368 . S
C1857 H1881 0.949 . S
H1858 C1862 0.949 . S
C1859 C1860 1.349 . S
C1859 C1861 1.327 . S
C1859 H1882 0.950 . S
C1860 C1859 1.349 . S
C1860 C1872 1.349 . S
C1861 C1859 1.327 . S
C1861 C1877 1.429 . S
C1861 H1883 0.950 . S
C1862 H1858 0.949 . S
C1862 C1870 1.574 . S
C1862 C1878 1.368 . S
H1863 C1871 0.950 . S
H1864 C1869 0.950 . S
H1865 C1870 0.949 . S
H1866 C1872 0.950 . S
H1867 C1873 0.950 . S
H1868 C1874 0.949 . S
C1869 H1864 0.950 . S
C1869 C1871 1.327 . S
C1869 C1875 1.429 . S
C1870 C1862 1.574 . S
C1870 H1865 0.949 . S
C1870 C1876 1.368 . S
C1871 C1855 1.349 . S
C1871 H1863 0.950 . S
C1871 C1869 1.327 . S
C1872 C1860 1.349 . S
C1872 H1866 0.950 . S
C1872 C1873 1.327 . S
C1873 H1867 0.950 . S
C1873 C1872 1.327 . S
C1873 C1877 1.429 . S
C1874 C1857 1.574 . S
C1874 H1868 0.949 . S
C1874 C1878 1.368 . S
C1875 C1856 1.429 . S
C1875 C1869 1.429 . S
C1875 C1876 1.523 . S
C1876 C1857 1.368 . S
C1876 C1870 1.368 . S
C1876 C1875 1.523 . S
C1877 C1861 1.429 . S
C1877 C1873 1.429 . S
C1877 C1878 1.523 . S
C1878 C1862 1.368 . S
C1878 C1874 1.368 . S
C1878 C1877 1.523 . S
H1879 C1854 0.950 . S
H1880 C1856 0.950 . S
H1881 C1857 0.949 . S
H1882 C1859 0.950 . S
H1883 C1861 0.950 . S
C1884 C1885 1.349 . S
C1884 C1886 1.327 . S
C1884 H1909 0.950 . S
C1885 C1884 1.349 . S
C1885 C1901 1.349 . S
C1886 C1884 1.327 . S
C1886 C1905 1.429 . S
C1886 H1910 0.950 . S
C1887 C1904 1.574 . S
C1887 C1906 1.368 . S
C1887 H1911 0.949 . S
H1888 C1892 0.949 . S
C1889 C1890 1.349 . S
C1889 C1891 1.327 . S
C1889 H1912 0.950 . S
C1890 C1889 1.349 . S
C1890 C1902 1.349 . S
C1891 C1889 1.327 . S
C1891 C1907 1.429 . S
C1891 H1913 0.950 . S
C1892 H1888 0.949 . S
C1892 C1900 1.574 . S
C1892 C1908 1.368 . S
H1893 C1901 0.950 . S
H1894 C1899 0.950 . S
H1895 C1900 0.949 . S
H1896 C1902 0.950 . S
H1897 C1903 0.950 . S
H1898 C1904 0.949 . S
C1899 H1894 0.950 . S
C1899 C1901 1.327 . S
C1899 C1905 1.429 . S
C1900 C1892 1.574 . S
C1900 H1895 0.949 . S
C1900 C1906 1.368 . S
C1901 C1885 1.349 . S
C1901 H1893 0.950 . S
C1901 C1899 1.327 . S
C1902 C1890 1.349 . S
C1902 H1896 0.950 . S
C1902 C1903 1.327 . S
C1903 H1897 0.950 . S
C1903 C1902 1.327 . S
C1903 C1907 1.429 . S
C1904 C1887 1.574 . S
C1904 H1898 0.949 . S
C1904 C1908 1.368 . S
C1905 C1886 1.429 . S
C1905 C1899 1.429 . S
C1905 C1906 1.523 . S
C1906 C1887 1.368 . S
C1906 C1900 1.368 . S
C1906 C1905 1.523 . S
C1907 C1891 1.429 . S
C1907 C1903 1.429 . S
C1907 C1908 1.523 . S
C1908 C1892 1.368 . S
C1908 C1904 1.368 . S
C1908 C1907 1.523 . S
H1909 C1884 0.950 . S
H1910 C1886 0.950 . S
H1911 C1887 0.949 . S
H1912 C1889 0.950 . S
H1913 C1891 0.950 . S
C1914 C1915 1.349 . S
C1914 C1916 1.327 . S
C1914 H1939 0.950 . S
C1915 C1914 1.349 . S
C1915 C1931 1.349 . S
C1916 C1914 1.327 . S
C1916 C1935 1.429 . S
C1916 H1940 0.950 . S
C1917 C1934 1.574 . S
C1917 C1936 1.368 . S
C1917 H1941 0.949 . S
H1918 C1922 0.949 . S
C1919 C1920 1.349 . S
C1919 C1921 1.327 . S
C1919 H1942 0.950 . S
C1920 C1919 1.349 . S
C1920 C1932 1.349 . S
C1921 C1919 1.327 . S
C1921 C1937 1.429 . S
C1921 H1943 0.950 . S
C1922 H1918 0.949 . S
C1922 C1930 1.574 . S
C1922 C1938 1.368 . S
H1923 C1931 0.950 . S
H1924 C1929 0.950 . S
H1925 C1930 0.949 . S
H1926 C1932 0.950 . S
H1927 C1933 0.950 . S
H1928 C1934 0.949 . S
C1929 H1924 0.950 . S
C1929 C1931 1.327 . S
C1929 C1935 1.429 . S
C1930 C1922 1.574 . S
C1930 H1925 0.949 . S
C1930 C1936 1.368 . S
C1931 C1915 1.349 . S
C1931 H1923 0.950 . S
C1931 C1929 1.327 . S
C1932 C1920 1.349 . S
C1932 H1926 0.950 . S
C1932 C1933 1.327 . S
C1933 H1927 0.950 . S
C1933 C1932 1.327 . S
C1933 C1937 1.429 . S
C1934 C1917 1.574 . S
C1934 H1928 0.949 . S
C1934 C1938 1.368 . S
C1935 C1916 1.429 . S
C1935 C1929 1.429 . S
C1935 C1936 1.523 . S
C1936 C1917 1.368 . S
C1936 C1930 1.368 . S
C1936 C1935 1.523 . S
C1937 C1921 1.429 . S
C1937 C1933 1.429 . S
C1937 C1938 1.523 . S
C1938 C1922 1.368 . S
C1938 C1934 1.368 . S
C1938 C1937 1.523 . S
H1939 C1914 0.950 . S
H1940 C1916 0.950 . S
H1941 C1917 0.949 . S
H1942 C1919 0.950 . S
H1943 C1921 0.950 . S
C1944 C1945 1.349 . S
C1944 C1946 1.327 . S
C1944 H1969 0.950 . S
C1945 C1944 1.349 . S
C1945 C1961 1.349 . S
C1946 C1944 1.327 . S
C1946 C1965 1.429 . S
C1946 H1970 0.950 . S
C1947 C1964 1.574 . S
C1947 C1966 1.368 . S
C1947 H1971 0.949 . S
H1948 C1952 0.949 . S
C1949 C1950 1.349 . S
C1949 C1951 1.327 . S
C1949 H1972 0.950 . S
C1950 C1949 1.349 . S
C1950 C1962 1.349 . S
C1951 C1949 1.327 . S
C1951 C1967 1.429 . S
C1951 H1973 0.950 . S
C1952 H1948 0.949 . S
C1952 C1960 1.574 . S
C1952 C1968 1.368 . S
H1953 C1961 0.950 . S
H1954 C1959 0.950 . S
H1955 C1960 0.949 . S
H1956 C1962 0.950 . S
H1957 C1963 0.950 . S
H1958 C1964 0.949 . S
C1959 H1954 0.950 . S
C1959 C1961 1.327 . S
C1959 C1965 1.429 . S
C1960 C1952 1.574 . S
C1960 H1955 0.949 . S
C1960 C1966 1.368 . S
C1961 C1945 1.349 . S
C1961 H1953 0.950 . S
C1961 C1959 1.327 . S
C1962 C1950 1.349 . S
C1962 H1956 0.950 . S
C1962 C1963 1.327 . S
C1963 H1957 0.950 . S
C1963 C1962 1.327 . S
C1963 C1967 1.429 . S
C1964 C1947 1.574 . S
C1964 H1958 0.949 . S
C1964 C1968 1.368 . S
C1965 C1946 1.429 . S
C1965 C1959 1.429 . S
C1965 C1966 1.523 . S
C1966 C1947 1.368 . S
C1966 C1960 1.368 . S
C1966 C1965 1.523 . S
C1967 C1951 1.429 . S
C1967 C1963 1.429 . S
C1967 C1968 1.523 . S
C1968 C1952 1.368 . S
C1968 C1964 1.368 . S
C1968 C1967 1.523 . S
H1969 C1944 0.950 . S
H1970 C1946 0.950 . S
H1971 C1947 0.949 . S
H1972 C1949 0.950 . S
H1973 C1951 0.950 . S
C1974 C1975 1.349 . S
C1974 C1976 1.327 . S
C1974 H1999 0.950 . S
C1975 C1974 1.349 . S
C1975 C1991 1.349 . S
C1976 C1974 1.327 . S
C1976 C1995 1.429 . S
C1976 H2000 0.950 . S
C1977 C1994 1.574 . S
C1977 C1996 1.368 . S
C1977 H2001 0.949 . S
H1978 C1982 0.949 . S
C1979 C1980 1.349 . S
C1979 C1981 1.327 . S
C1979 H2002 0.950 . S
C1980 C1979 1.349 . S
C1980 C1992 1.349 . S
C1981 C1979 1.327 . S
C1981 C1997 1.429 . S
C1981 H2003 0.950 . S
C1982 H1978 0.949 . S
C1982 C1990 1.574 . S
C1982 C1998 1.368 . S
H1983 C1991 0.950 . S
H1984 C1989 0.950 . S
H1985 C1990 0.949 . S
H1986 C1992 0.950 . S
H1987 C1993 0.950 . S
H1988 C1994 0.949 . S
C1989 H1984 0.950 . S
C1989 C1991 1.327 . S
C1989 C1995 1.429 . S
C1990 C1982 1.574 . S
C1990 H1985 0.949 . S
C1990 C1996 1.368 . S
C1991 C1975 1.349 . S
C1991 H1983 0.950 . S
C1991 C1989 1.327 . S
C1992 C1980 1.349 . S
C1992 H1986 0.950 . S
C1992 C1993 1.327 . S
C1993 H1987 0.950 . S
C1993 C1992 1.327 . S
C1993 C1997 1.429 . S
C1994 C1977 1.574 . S
C1994 H1988 0.949 . S
C1994 C1998 1.368 . S
C1995 C1976 1.429 . S
C1995 C1989 1.429 . S
C1995 C1996 1.523 . S
C1996 C1977 1.368 . S
C1996 C1990 1.368 . S
C1996 C1995 1.523 . S
C1997 C1981 1.429 . S
C1997 C1993 1.429 . S
C1997 C1998 1.523 . S
C1998 C1982 1.368 . S
C1998 C1994 1.368 . S
C1998 C1997 1.523 . S
H1999 C1974 0.950 . S
H2000 C1976 0.950 . S
H2001 C1977 0.949 . S
H2002 C1979 0.950 . S
H2003 C1981 0.950 . S
C2004 C2005 1.349 . S
C2004 C2006 1.327 . S
C2004 H2029 0.950 . S
C2005 C2004 1.349 . S
C2005 C2021 1.349 . S
C2006 C2004 1.327 . S
C2006 C2025 1.429 . S
C2006 H2030 0.950 . S
C2007 C2024 1.574 . S
C2007 C2026 1.368 . S
C2007 H2031 0.949 . S
H2008 C2012 0.949 . S
C2009 C2010 1.349 . S
C2009 C2011 1.327 . S
C2009 H2032 0.950 . S
C2010 C2009 1.349 . S
C2010 C2022 1.349 . S
C2011 C2009 1.327 . S
C2011 C2027 1.429 . S
C2011 H2033 0.950 . S
C2012 H2008 0.949 . S
C2012 C2020 1.574 . S
C2012 C2028 1.368 . S
H2013 C2021 0.950 . S
H2014 C2019 0.950 . S
H2015 C2020 0.949 . S
H2016 C2022 0.950 . S
H2017 C2023 0.950 . S
H2018 C2024 0.949 . S
C2019 H2014 0.950 . S
C2019 C2021 1.327 . S
C2019 C2025 1.429 . S
C2020 C2012 1.574 . S
C2020 H2015 0.949 . S
C2020 C2026 1.368 . S
C2021 C2005 1.349 . S
C2021 H2013 0.950 . S
C2021 C2019 1.327 . S
C2022 C2010 1.349 . S
C2022 H2016 0.950 . S
C2022 C2023 1.327 . S
C2023 H2017 0.950 . S
C2023 C2022 1.327 . S
C2023 C2027 1.429 . S
C2024 C2007 1.574 . S
C2024 H2018 0.949 . S
C2024 C2028 1.368 . S
C2025 C2006 1.429 . S
C2025 C2019 1.429 . S
C2025 C2026 1.523 . S
C2026 C2007 1.368 . S
C2026 C2020 1.368 . S
C2026 C2025 1.523 . S
C2027 C2011 1.429 . S
C2027 C2023 1.429 . S
C2027 C2028 1.523 . S
C2028 C2012 1.368 . S
C2028 C2024 1.368 . S
C2028 C2027 1.523 . S
H2029 C2004 0.950 . S
H2030 C2006 0.950 . S
H2031 C2007 0.949 . S
H2032 C2009 0.950 . S
H2033 C2011 0.950 . S
C2034 C2035 1.349 . S
C2034 C2036 1.327 . S
C2034 H2059 0.950 . S
C2035 C2034 1.349 . S
C2035 C2051 1.349 . S
C2036 C2034 1.327 . S
C2036 C2055 1.429 . S
C2036 H2060 0.950 . S
C2037 C2054 1.574 1_655 S
C2037 C2056 1.368 . S
C2037 H2061 0.949 . S
H2038 C2042 0.949 . S
C2039 C2040 1.349 . S
C2039 C2041 1.327 . S
C2039 H2062 0.950 . S
C2040 C2039 1.349 . S
C2040 C2052 1.349 . S
C2041 C2039 1.327 . S
C2041 C2057 1.429 . S
C2041 H2063 0.950 . S
C2042 H2038 0.949 . S
C2042 C2050 1.574 1_455 S
C2042 C2058 1.368 . S
H2043 C2051 0.950 . S
H2044 C2049 0.950 . S
H2045 C2050 0.949 . S
H2046 C2052 0.950 . S
H2047 C2053 0.950 . S
H2048 C2054 0.949 . S
C2049 H2044 0.950 . S
C2049 C2051 1.327 . S
C2049 C2055 1.429 . S
C2050 C2042 1.574 1_655 S
C2050 H2045 0.949 . S
C2050 C2056 1.368 . S
C2051 C2035 1.349 . S
C2051 H2043 0.950 . S
C2051 C2049 1.327 . S
C2052 C2040 1.349 . S
C2052 H2046 0.950 . S
C2052 C2053 1.327 . S
C2053 H2047 0.950 . S
C2053 C2052 1.327 . S
C2053 C2057 1.429 . S
C2054 C2037 1.574 1_455 S
C2054 H2048 0.949 . S
C2054 C2058 1.368 . S
C2055 C2036 1.429 . S
C2055 C2049 1.429 . S
C2055 C2056 1.523 . S
C2056 C2037 1.368 . S
C2056 C2050 1.368 . S
C2056 C2055 1.523 . S
C2057 C2041 1.429 . S
C2057 C2053 1.429 . S
C2057 C2058 1.523 . S
C2058 C2042 1.368 . S
C2058 C2054 1.368 . S
C2058 C2057 1.523 . S
H2059 C2034 0.950 . S
H2060 C2036 0.950 . S
H2061 C2037 0.949 . S
H2062 C2039 0.950 . S
H2063 C2041 0.950 . S
C2064 C2065 1.349 . S
C2064 C2066 1.327 . S
C2064 H2089 0.950 . S
C2065 C2064 1.349 . S
C2065 C2081 1.349 . S
C2066 C2064 1.327 . S
C2066 C2085 1.429 . S
C2066 H2090 0.950 . S
C2067 C2084 1.574 . S
C2067 C2086 1.368 . S
C2067 H2091 0.949 . S
H2068 C2072 0.949 . S
C2069 C2070 1.349 . S
C2069 C2071 1.327 . S
C2069 H2092 0.950 . S
C2070 C2069 1.349 . S
C2070 C2082 1.349 . S
C2071 C2069 1.327 . S
C2071 C2087 1.429 . S
C2071 H2093 0.950 . S
C2072 H2068 0.949 . S
C2072 C2080 1.574 . S
C2072 C2088 1.368 . S
H2073 C2081 0.950 . S
H2074 C2079 0.950 . S
H2075 C2080 0.949 . S
H2076 C2082 0.950 . S
H2077 C2083 0.950 . S
H2078 C2084 0.949 . S
C2079 H2074 0.950 . S
C2079 C2081 1.327 . S
C2079 C2085 1.429 . S
C2080 C2072 1.574 . S
C2080 H2075 0.949 . S
C2080 C2086 1.368 . S
C2081 C2065 1.349 . S
C2081 H2073 0.950 . S
C2081 C2079 1.327 . S
C2082 C2070 1.349 . S
C2082 H2076 0.950 . S
C2082 C2083 1.327 . S
C2083 H2077 0.950 . S
C2083 C2082 1.327 . S
C2083 C2087 1.429 . S
C2084 C2067 1.574 . S
C2084 H2078 0.949 . S
C2084 C2088 1.368 . S
C2085 C2066 1.429 . S
C2085 C2079 1.429 . S
C2085 C2086 1.523 . S
C2086 C2067 1.368 . S
C2086 C2080 1.368 . S
C2086 C2085 1.523 . S
C2087 C2071 1.429 . S
C2087 C2083 1.429 . S
C2087 C2088 1.523 . S
C2088 C2072 1.368 . S
C2088 C2084 1.368 . S
C2088 C2087 1.523 . S
H2089 C2064 0.950 . S
H2090 C2066 0.950 . S
H2091 C2067 0.949 . S
H2092 C2069 0.950 . S
H2093 C2071 0.950 . S
C2094 C2095 1.349 . S
C2094 C2096 1.327 . S
C2094 H2119 0.950 . S
C2095 C2094 1.349 . S
C2095 C2111 1.349 . S
C2096 C2094 1.327 . S
C2096 C2115 1.429 . S
C2096 H2120 0.950 . S
C2097 C2114 1.574 . S
C2097 C2116 1.368 . S
C2097 H2121 0.949 . S
H2098 C2102 0.949 . S
C2099 C2100 1.349 . S
C2099 C2101 1.327 . S
C2099 H2122 0.950 . S
C2100 C2099 1.349 . S
C2100 C2112 1.349 . S
C2101 C2099 1.327 . S
C2101 C2117 1.429 . S
C2101 H2123 0.950 . S
C2102 H2098 0.949 . S
C2102 C2110 1.574 . S
C2102 C2118 1.368 . S
H2103 C2111 0.950 . S
H2104 C2109 0.950 . S
H2105 C2110 0.949 . S
H2106 C2112 0.950 . S
H2107 C2113 0.950 . S
H2108 C2114 0.949 . S
C2109 H2104 0.950 . S
C2109 C2111 1.327 . S
C2109 C2115 1.429 . S
C2110 C2102 1.574 . S
C2110 H2105 0.949 . S
C2110 C2116 1.368 1_545 S
C2111 C2095 1.349 . S
C2111 H2103 0.950 . S
C2111 C2109 1.327 . S
C2112 C2100 1.349 . S
C2112 H2106 0.950 . S
C2112 C2113 1.327 . S
C2113 H2107 0.950 . S
C2113 C2112 1.327 . S
C2113 C2117 1.429 . S
C2114 C2097 1.574 . S
C2114 H2108 0.949 . S
C2114 C2118 1.368 1_565 S
C2115 C2096 1.429 . S
C2115 C2109 1.429 . S
C2115 C2116 1.523 . S
C2116 C2097 1.368 . S
C2116 C2110 1.368 1_565 S
C2116 C2115 1.523 . S
C2117 C2101 1.429 . S
C2117 C2113 1.429 . S
C2117 C2118 1.523 . S
C2118 C2102 1.368 . S
C2118 C2114 1.368 1_545 S
C2118 C2117 1.523 . S
H2119 C2094 0.950 . S
H2120 C2096 0.950 . S
H2121 C2097 0.949 . S
H2122 C2099 0.950 . S
H2123 C2101 0.950 . S
C2124 C2125 1.349 . S
C2124 C2126 1.327 . S
C2124 H2149 0.950 . S
C2125 C2124 1.349 . S
C2125 C2141 1.349 . S
C2126 C2124 1.327 . S
C2126 C2145 1.429 . S
C2126 H2150 0.950 1_554 S
C2127 C2144 1.574 . S
C2127 C2146 1.368 . S
C2127 H2151 0.949 . S
H2128 C2132 0.949 . S
C2129 C2130 1.349 . S
C2129 C2131 1.327 . S
C2129 H2152 0.950 . S
C2130 C2129 1.349 . S
C2130 C2142 1.349 . S
C2131 C2129 1.327 . S
C2131 C2147 1.429 . S
C2131 H2153 0.950 1_556 S
C2132 H2128 0.949 . S
C2132 C2140 1.574 . S
C2132 C2148 1.368 . S
H2133 C2141 0.950 . S
H2134 C2139 0.950 . S
H2135 C2140 0.949 . S
H2136 C2142 0.950 . S
H2137 C2143 0.950 . S
H2138 C2144 0.949 . S
C2139 H2134 0.950 . S
C2139 C2141 1.327 . S
C2139 C2145 1.429 . S
C2140 C2132 1.574 . S
C2140 H2135 0.949 . S
C2140 C2146 1.368 1_556 S
C2141 C2125 1.349 . S
C2141 H2133 0.950 . S
C2141 C2139 1.327 . S
C2142 C2130 1.349 . S
C2142 H2136 0.950 . S
C2142 C2143 1.327 . S
C2143 H2137 0.950 . S
C2143 C2142 1.327 . S
C2143 C2147 1.429 . S
C2144 C2127 1.574 . S
C2144 H2138 0.949 . S
C2144 C2148 1.368 1_554 S
C2145 C2126 1.429 . S
C2145 C2139 1.429 . S
C2145 C2146 1.523 . S
C2146 C2127 1.368 . S
C2146 C2140 1.368 1_554 S
C2146 C2145 1.523 . S
C2147 C2131 1.429 . S
C2147 C2143 1.429 . S
C2147 C2148 1.523 . S
C2148 C2132 1.368 . S
C2148 C2144 1.368 1_556 S
C2148 C2147 1.523 . S
H2149 C2124 0.950 . S
H2150 C2126 0.950 1_556 S
H2151 C2127 0.949 . S
H2152 C2129 0.950 . S
H2153 C2131 0.950 1_554 S
C2154 C2155 1.349 . S
C2154 C2156 1.327 . S
C2154 H2179 0.950 . S
C2155 C2154 1.349 . S
C2155 C2171 1.349 . S
C2156 C2154 1.327 . S
C2156 C2175 1.429 . S
C2156 H2180 0.950 1_556 S
C2157 C2174 1.574 1_545 S
C2157 C2176 1.368 . S
C2157 H2181 0.949 . S
H2158 C2162 0.949 . S
C2159 C2160 1.349 . S
C2159 C2161 1.327 . S
C2159 H2182 0.950 . S
C2160 C2159 1.349 . S
C2160 C2172 1.349 . S
C2161 C2159 1.327 . S
C2161 C2177 1.429 . S
C2161 H2183 0.950 1_554 S
C2162 H2158 0.949 . S
C2162 C2170 1.574 1_565 S
C2162 C2178 1.368 . S
H2163 C2171 0.950 . S
H2164 C2169 0.950 . S
H2165 C2170 0.949 . S
H2166 C2172 0.950 . S
H2167 C2173 0.950 . S
H2168 C2174 0.949 . S
C2169 H2164 0.950 . S
C2169 C2171 1.327 . S
C2169 C2175 1.429 . S
C2170 C2162 1.574 1_545 S
C2170 H2165 0.949 . S
C2170 C2176 1.368 1_554 S
C2171 C2155 1.349 . S
C2171 H2163 0.950 . S
C2171 C2169 1.327 . S
C2172 C2160 1.349 . S
C2172 H2166 0.950 . S
C2172 C2173 1.327 . S
C2173 H2167 0.950 . S
C2173 C2172 1.327 . S
C2173 C2177 1.429 . S
C2174 C2157 1.574 1_565 S
C2174 H2168 0.949 . S
C2174 C2178 1.368 1_556 S
C2175 C2156 1.429 . S
C2175 C2169 1.429 . S
C2175 C2176 1.523 . S
C2176 C2157 1.368 . S
C2176 C2170 1.368 1_556 S
C2176 C2175 1.523 . S
C2177 C2161 1.429 . S
C2177 C2173 1.429 . S
C2177 C2178 1.523 . S
C2178 C2162 1.368 . S
C2178 C2174 1.368 1_554 S
C2178 C2177 1.523 . S
H2179 C2154 0.950 . S
H2180 C2156 0.950 1_554 S
H2181 C2157 0.949 . S
H2182 C2159 0.950 . S
H2183 C2161 0.950 1_556 S
C2184 C2185 1.349 . S
C2184 C2186 1.327 . S
C2184 H2209 0.950 . S
C2185 C2184 1.349 . S
C2185 C2201 1.349 . S
C2186 C2184 1.327 . S
C2186 C2205 1.429 . S
C2186 H2210 0.950 . S
C2187 C2204 1.574 1_655 S
C2187 C2206 1.368 1_554 S
C2187 H2211 0.949 . S
H2188 C2192 0.949 . S
C2189 C2190 1.349 . S
C2189 C2191 1.327 . S
C2189 H2212 0.950 . S
C2190 C2189 1.349 . S
C2190 C2202 1.349 . S
C2191 C2189 1.327 . S
C2191 C2207 1.429 . S
C2191 H2213 0.950 . S
C2192 H2188 0.949 . S
C2192 C2200 1.574 1_455 S
C2192 C2208 1.368 1_556 S
H2193 C2201 0.950 . S
H2194 C2199 0.950 1_554 S
H2195 C2200 0.949 . S
H2196 C2202 0.950 . S
H2197 C2203 0.950 1_556 S
H2198 C2204 0.949 . S
C2199 H2194 0.950 1_556 S
C2199 C2201 1.327 . S
C2199 C2205 1.429 . S
C2200 C2192 1.574 1_655 S
C2200 H2195 0.949 . S
C2200 C2206 1.368 . S
C2201 C2185 1.349 . S
C2201 H2193 0.950 . S
C2201 C2199 1.327 . S
C2202 C2190 1.349 . S
C2202 H2196 0.950 . S
C2202 C2203 1.327 . S
C2203 H2197 0.950 1_554 S
C2203 C2202 1.327 . S
C2203 C2207 1.429 . S
C2204 C2187 1.574 1_455 S
C2204 H2198 0.949 . S
C2204 C2208 1.368 . S
C2205 C2186 1.429 . S
C2205 C2199 1.429 . S
C2205 C2206 1.523 . S
C2206 C2187 1.368 1_556 S
C2206 C2200 1.368 . S
C2206 C2205 1.523 . S
C2207 C2191 1.429 . S
C2207 C2203 1.429 . S
C2207 C2208 1.523 . S
C2208 C2192 1.368 1_554 S
C2208 C2204 1.368 . S
C2208 C2207 1.523 . S
H2209 C2184 0.950 . S
H2210 C2186 0.950 . S
H2211 C2187 0.949 . S
H2212 C2189 0.950 . S
H2213 C2191 0.950 . S
C2214 C2215 1.349 . S
C2214 C2216 1.325 1_556 S
C2214 H2239 0.950 1_556 S
C2215 C2214 1.349 . S
C2215 C2231 1.349 . S
C2216 C2214 1.325 1_554 S
C2216 C2235 1.424 1_554 S
C2216 H2240 0.957 . S
C2217 C2234 1.574 . S
C2217 C2236 1.368 . S
C2217 H2241 0.949 . S
H2218 C2222 0.949 . S
C2219 C2220 1.349 . S
C2219 C2221 1.325 1_554 S
C2219 H2242 0.950 1_554 S
C2220 C2219 1.349 . S
C2220 C2232 1.349 . S
C2221 C2219 1.325 1_556 S
C2221 C2237 1.424 1_556 S
C2221 H2243 0.957 . S
C2222 H2218 0.949 . S
C2222 C2230 1.574 . S
C2222 C2238 1.368 . S
H2223 C2231 0.950 . S
H2224 C2229 0.950 . S
H2225 C2230 0.949 . S
H2226 C2232 0.950 . S
H2227 C2233 0.950 . S
H2228 C2234 0.949 . S
C2229 H2224 0.950 . S
C2229 C2231 1.327 . S
C2229 C2235 1.429 . S
C2230 C2222 1.574 . S
C2230 H2225 0.949 . S
C2230 C2236 1.368 1_554 S
C2231 C2215 1.349 . S
C2231 H2223 0.950 . S
C2231 C2229 1.327 . S
C2232 C2220 1.349 . S
C2232 H2226 0.950 . S
C2232 C2233 1.327 . S
C2233 H2227 0.950 . S
C2233 C2232 1.327 . S
C2233 C2237 1.429 . S
C2234 C2217 1.574 . S
C2234 H2228 0.949 . S
C2234 C2238 1.368 1_556 S
C2235 C2216 1.424 1_556 S
C2235 C2229 1.429 . S
C2235 C2236 1.523 . S
C2236 C2217 1.368 . S
C2236 C2230 1.368 1_556 S
C2236 C2235 1.523 . S
C2237 C2221 1.424 1_554 S
C2237 C2233 1.429 . S
C2237 C2238 1.523 . S
C2238 C2222 1.368 . S
C2238 C2234 1.368 1_554 S
C2238 C2237 1.523 . S
H2239 C2214 0.950 1_554 S
H2240 C2216 0.957 . S
H2241 C2217 0.949 . S
H2242 C2219 0.950 1_556 S
H2243 C2221 0.957 . S
C2244 C2245 1.349 . S
C2244 C2246 1.327 . S
C2244 H2269 0.950 . S
C2245 C2244 1.349 . S
C2245 C2261 1.349 . S
C2246 C2244 1.327 . S
C2246 C2265 1.429 . S
C2246 H2270 0.950 . S
C2247 C2264 1.574 1_565 S
C2247 C2266 1.368 1_556 S
C2247 H2271 0.949 . S
H2248 C2252 0.949 . S
C2249 C2250 1.349 . S
C2249 C2251 1.327 . S
C2249 H2272 0.950 . S
C2250 C2249 1.349 . S
C2250 C2262 1.349 . S
C2251 C2249 1.327 . S
C2251 C2267 1.429 . S
C2251 H2273 0.950 . S
C2252 H2248 0.949 . S
C2252 C2260 1.574 1_545 S
C2252 C2268 1.368 1_554 S
H2253 C2261 0.941 1_556 S
H2254 C2259 0.950 1_556 S
H2255 C2260 0.949 . S
H2256 C2262 0.941 1_554 S
H2257 C2263 0.950 1_554 S
H2258 C2264 0.949 . S
C2259 H2254 0.950 1_554 S
C2259 C2261 1.327 . S
C2259 C2265 1.429 . S
C2260 C2252 1.574 1_565 S
C2260 H2255 0.949 . S
C2260 C2266 1.368 . S
C2261 C2245 1.349 . S
C2261 H2253 0.941 1_554 S
C2261 C2259 1.327 . S
C2262 C2250 1.349 . S
C2262 H2256 0.941 1_556 S
C2262 C2263 1.327 . S
C2263 H2257 0.950 1_556 S
C2263 C2262 1.327 . S
C2263 C2267 1.429 . S
C2264 C2247 1.574 1_545 S
C2264 H2258 0.949 . S
C2264 C2268 1.368 . S
C2265 C2246 1.429 . S
C2265 C2259 1.429 . S
C2265 C2266 1.523 . S
C2266 C2247 1.368 1_554 S
C2266 C2260 1.368 . S
C2266 C2265 1.523 . S
C2267 C2251 1.429 . S
C2267 C2263 1.429 . S
C2267 C2268 1.523 . S
C2268 C2252 1.368 1_556 S
C2268 C2264 1.368 . S
C2268 C2267 1.523 . S
H2269 C2244 0.950 . S
H2270 C2246 0.950 . S
H2271 C2247 0.949 . S
H2272 C2249 0.950 . S
H2273 C2251 0.950 . S
C2274 C2275 1.349 . S
C2274 C2276 1.327 . S
C2274 H2299 0.950 1_556 S
C2275 C2274 1.349 . S
C2275 C2291 1.349 . S
C2276 C2274 1.327 . S
C2276 C2295 1.429 . S
C2276 H2300 0.950 1_556 S
C2277 C2294 1.574 1_655 S
C2277 C2296 1.368 . S
C2277 H2301 0.949 . S
H2278 C2282 0.949 . S
C2279 C2280 1.349 . S
C2279 C2281 1.327 . S
C2279 H2302 0.950 1_554 S
C2280 C2279 1.349 . S
C2280 C2292 1.349 . S
C2281 C2279 1.327 . S
C2281 C2297 1.429 . S
C2281 H2303 0.950 1_554 S
C2282 H2278 0.949 . S
C2282 C2290 1.574 1_455 S
C2282 C2298 1.368 . S
H2283 C2291 0.950 . S
H2284 C2289 0.950 . S
H2285 C2290 0.949 . S
H2286 C2292 0.950 . S
H2287 C2293 0.950 . S
H2288 C2294 0.949 . S
C2289 H2284 0.950 . S
C2289 C2291 1.327 . S
C2289 C2295 1.429 . S
C2290 C2282 1.574 1_655 S
C2290 H2285 0.949 . S
C2290 C2296 1.368 1_554 S
C2291 C2275 1.349 . S
C2291 H2283 0.950 . S
C2291 C2289 1.327 . S
C2292 C2280 1.349 . S
C2292 H2286 0.950 . S
C2292 C2293 1.327 . S
C2293 H2287 0.950 . S
C2293 C2292 1.327 . S
C2293 C2297 1.429 . S
C2294 C2277 1.574 1_455 S
C2294 H2288 0.949 . S
C2294 C2298 1.368 1_556 S
C2295 C2276 1.429 . S
C2295 C2289 1.429 . S
C2295 C2296 1.523 . S
C2296 C2277 1.368 . S
C2296 C2290 1.368 1_556 S
C2296 C2295 1.523 . S
C2297 C2281 1.429 . S
C2297 C2293 1.429 . S
C2297 C2298 1.523 . S
C2298 C2282 1.368 . S
C2298 C2294 1.368 1_554 S
C2298 C2297 1.523 . S
H2299 C2274 0.950 1_554 S
H2300 C2276 0.950 1_554 S
H2301 C2277 0.949 . S
H2302 C2279 0.950 1_556 S
H2303 C2281 0.950 1_556 S
C2304 C2305 1.349 . S
C2304 C2306 1.327 . S
C2304 H2329 0.950 . S
C2305 C2304 1.349 . S
C2305 C2321 1.349 . S
C2306 C2304 1.327 . S
C2306 C2325 1.429 . S
C2306 H2330 0.950 . S
C2307 C2324 1.574 . S
C2307 C2326 1.368 . S
C2307 H2331 0.949 . S
H2308 C2312 0.949 . S
C2309 C2310 1.349 . S
C2309 C2311 1.327 . S
C2309 H2332 0.950 . S
C2310 C2309 1.349 . S
C2310 C2322 1.349 . S
C2311 C2309 1.327 . S
C2311 C2327 1.429 . S
C2311 H2333 0.950 . S
C2312 H2308 0.949 . S
C2312 C2320 1.574 . S
C2312 C2328 1.368 . S
H2313 C2321 0.950 . S
H2314 C2319 0.950 . S
H2315 C2320 0.949 . S
H2316 C2322 0.950 . S
H2317 C2323 0.950 . S
H2318 C2324 0.949 . S
C2319 H2314 0.950 . S
C2319 C2321 1.327 . S
C2319 C2325 1.429 . S
C2320 C2312 1.574 . S
C2320 H2315 0.949 . S
C2320 C2326 1.368 . S
C2321 C2305 1.349 . S
C2321 H2313 0.950 . S
C2321 C2319 1.327 . S
C2322 C2310 1.349 . S
C2322 H2316 0.950 . S
C2322 C2323 1.327 . S
C2323 H2317 0.950 . S
C2323 C2322 1.327 . S
C2323 C2327 1.429 . S
C2324 C2307 1.574 . S
C2324 H2318 0.949 . S
C2324 C2328 1.368 . S
C2325 C2306 1.429 . S
C2325 C2319 1.429 . S
C2325 C2326 1.523 . S
C2326 C2307 1.368 . S
C2326 C2320 1.368 . S
C2326 C2325 1.523 . S
C2327 C2311 1.429 . S
C2327 C2323 1.429 . S
C2327 C2328 1.523 . S
C2328 C2312 1.368 . S
C2328 C2324 1.368 . S
C2328 C2327 1.523 . S
H2329 C2304 0.950 . S
H2330 C2306 0.950 . S
H2331 C2307 0.949 . S
H2332 C2309 0.950 . S
H2333 C2311 0.950 . S
C2334 C2335 1.349 . S
C2334 C2336 1.327 . S
C2334 H2359 0.950 . S
C2335 C2334 1.349 . S
C2335 C2351 1.349 . S
C2336 C2334 1.327 . S
C2336 C2355 1.429 . S
C2336 H2360 0.950 . S
C2337 C2354 1.574 . S
C2337 C2356 1.368 . S
C2337 H2361 0.949 . S
H2338 C2342 0.949 . S
C2339 C2340 1.349 . S
C2339 C2341 1.327 . S
C2339 H2362 0.950 . S
C2340 C2339 1.349 . S
C2340 C2352 1.349 . S
C2341 C2339 1.327 . S
C2341 C2357 1.429 . S
C2341 H2363 0.950 . S
C2342 H2338 0.949 . S
C2342 C2350 1.574 . S
C2342 C2358 1.368 . S
H2343 C2351 0.950 . S
H2344 C2349 0.950 . S
H2345 C2350 0.949 . S
H2346 C2352 0.950 . S
H2347 C2353 0.950 . S
H2348 C2354 0.949 . S
C2349 H2344 0.950 . S
C2349 C2351 1.327 . S
C2349 C2355 1.429 . S
C2350 C2342 1.574 . S
C2350 H2345 0.949 . S
C2350 C2356 1.368 . S
C2351 C2335 1.349 . S
C2351 H2343 0.950 . S
C2351 C2349 1.327 . S
C2352 C2340 1.349 . S
C2352 H2346 0.950 . S
C2352 C2353 1.327 . S
C2353 H2347 0.950 . S
C2353 C2352 1.327 . S
C2353 C2357 1.429 . S
C2354 C2337 1.574 . S
C2354 H2348 0.949 . S
C2354 C2358 1.368 . S
C2355 C2336 1.429 . S
C2355 C2349 1.429 . S
C2355 C2356 1.523 . S
C2356 C2337 1.368 . S
C2356 C2350 1.368 . S
C2356 C2355 1.523 . S
C2357 C2341 1.429 . S
C2357 C2353 1.429 . S
C2357 C2358 1.523 . S
C2358 C2342 1.368 . S
C2358 C2354 1.368 . S
C2358 C2357 1.523 . S
H2359 C2334 0.950 . S
H2360 C2336 0.950 . S
H2361 C2337 0.949 . S
H2362 C2339 0.950 . S
H2363 C2341 0.950 . S
C2364 C2365 1.349 . S
C2364 C2366 1.327 . S
C2364 H2389 0.950 . S
C2365 C2364 1.349 . S
C2365 C2381 1.349 . S
C2366 C2364 1.327 . S
C2366 C2385 1.429 . S
C2366 H2390 0.950 . S
C2367 C2384 1.574 . S
C2367 C2386 1.368 . S
C2367 H2391 0.949 . S
H2368 C2372 0.949 . S
C2369 C2370 1.349 . S
C2369 C2371 1.327 . S
C2369 H2392 0.950 . S
C2370 C2369 1.349 . S
C2370 C2382 1.349 . S
C2371 C2369 1.327 . S
C2371 C2387 1.429 . S
C2371 H2393 0.950 . S
C2372 H2368 0.949 . S
C2372 C2380 1.574 . S
C2372 C2388 1.368 . S
H2373 C2381 0.950 . S
H2374 C2379 0.950 . S
H2375 C2380 0.949 . S
H2376 C2382 0.950 . S
H2377 C2383 0.950 . S
H2378 C2384 0.949 . S
C2379 H2374 0.950 . S
C2379 C2381 1.327 . S
C2379 C2385 1.429 . S
C2380 C2372 1.574 . S
C2380 H2375 0.949 . S
C2380 C2386 1.368 . S
C2381 C2365 1.349 . S
C2381 H2373 0.950 . S
C2381 C2379 1.327 . S
C2382 C2370 1.349 . S
C2382 H2376 0.950 . S
C2382 C2383 1.327 . S
C2383 H2377 0.950 . S
C2383 C2382 1.327 . S
C2383 C2387 1.429 . S
C2384 C2367 1.574 . S
C2384 H2378 0.949 . S
C2384 C2388 1.368 . S
C2385 C2366 1.429 . S
C2385 C2379 1.429 . S
C2385 C2386 1.523 . S
C2386 C2367 1.368 . S
C2386 C2380 1.368 . S
C2386 C2385 1.523 . S
C2387 C2371 1.429 . S
C2387 C2383 1.429 . S
C2387 C2388 1.523 . S
C2388 C2372 1.368 . S
C2388 C2384 1.368 . S
C2388 C2387 1.523 . S
H2389 C2364 0.950 . S
H2390 C2366 0.950 . S
H2391 C2367 0.949 . S
H2392 C2369 0.950 . S
H2393 C2371 0.950 . S
C2394 C2395 1.349 . S
C2394 C2396 1.327 . S
C2394 H2419 0.950 . S
C2395 C2394 1.349 . S
C2395 C2411 1.349 . S
C2396 C2394 1.327 . S
C2396 C2415 1.429 . S
C2396 H2420 0.950 . S
C2397 C2414 1.574 . S
C2397 C2416 1.368 . S
C2397 H2421 0.949 . S
H2398 C2402 0.949 . S
C2399 C2400 1.349 . S
C2399 C2401 1.327 . S
C2399 H2422 0.950 . S
C2400 C2399 1.349 . S
C2400 C2412 1.349 . S
C2401 C2399 1.327 . S
C2401 C2417 1.429 . S
C2401 H2423 0.950 . S
C2402 H2398 0.949 . S
C2402 C2410 1.574 . S
C2402 C2418 1.368 . S
H2403 C2411 0.950 . S
H2404 C2409 0.950 . S
H2405 C2410 0.949 . S
H2406 C2412 0.950 . S
H2407 C2413 0.950 . S
H2408 C2414 0.949 . S
C2409 H2404 0.950 . S
C2409 C2411 1.327 . S
C2409 C2415 1.429 . S
C2410 C2402 1.574 . S
C2410 H2405 0.949 . S
C2410 C2416 1.368 . S
C2411 C2395 1.349 . S
C2411 H2403 0.950 . S
C2411 C2409 1.327 . S
C2412 C2400 1.349 . S
C2412 H2406 0.950 . S
C2412 C2413 1.327 . S
C2413 H2407 0.950 . S
C2413 C2412 1.327 . S
C2413 C2417 1.429 . S
C2414 C2397 1.574 . S
C2414 H2408 0.949 . S
C2414 C2418 1.368 . S
C2415 C2396 1.429 . S
C2415 C2409 1.429 . S
C2415 C2416 1.523 . S
C2416 C2397 1.368 . S
C2416 C2410 1.368 . S
C2416 C2415 1.523 . S
C2417 C2401 1.429 . S
C2417 C2413 1.429 . S
C2417 C2418 1.523 . S
C2418 C2402 1.368 . S
C2418 C2414 1.368 . S
C2418 C2417 1.523 . S
H2419 C2394 0.950 . S
H2420 C2396 0.950 . S
H2421 C2397 0.949 . S
H2422 C2399 0.950 . S
H2423 C2401 0.950 . S
C2424 C2425 1.349 . S
C2424 C2426 1.327 . S
C2424 H2449 0.950 . S
C2425 C2424 1.349 . S
C2425 C2441 1.349 . S
C2426 C2424 1.327 . S
C2426 C2445 1.429 . S
C2426 H2450 0.950 . S
C2427 C2444 1.574 . S
C2427 C2446 1.368 . S
C2427 H2451 0.949 . S
H2428 C2432 0.949 . S
C2429 C2430 1.349 . S
C2429 C2431 1.327 . S
C2429 H2452 0.950 . S
C2430 C2429 1.349 . S
C2430 C2442 1.349 . S
C2431 C2429 1.327 . S
C2431 C2447 1.429 . S
C2431 H2453 0.950 . S
C2432 H2428 0.949 . S
C2432 C2440 1.574 . S
C2432 C2448 1.368 . S
H2433 C2441 0.950 . S
H2434 C2439 0.950 . S
H2435 C2440 0.949 . S
H2436 C2442 0.950 . S
H2437 C2443 0.950 . S
H2438 C2444 0.949 . S
C2439 H2434 0.950 . S
C2439 C2441 1.327 . S
C2439 C2445 1.429 . S
C2440 C2432 1.574 . S
C2440 H2435 0.949 . S
C2440 C2446 1.368 . S
C2441 C2425 1.349 . S
C2441 H2433 0.950 . S
C2441 C2439 1.327 . S
C2442 C2430 1.349 . S
C2442 H2436 0.950 . S
C2442 C2443 1.327 . S
C2443 H2437 0.950 . S
C2443 C2442 1.327 . S
C2443 C2447 1.429 . S
C2444 C2427 1.574 . S
C2444 H2438 0.949 . S
C2444 C2448 1.368 . S
C2445 C2426 1.429 . S
C2445 C2439 1.429 . S
C2445 C2446 1.523 . S
C2446 C2427 1.368 . S
C2446 C2440 1.368 . S
C2446 C2445 1.523 . S
C2447 C2431 1.429 . S
C2447 C2443 1.429 . S
C2447 C2448 1.523 . S
C2448 C2432 1.368 . S
C2448 C2444 1.368 . S
C2448 C2447 1.523 . S
H2449 C2424 0.950 . S
H2450 C2426 0.950 . S
H2451 C2427 0.949 . S
H2452 C2429 0.950 . S
H2453 C2431 0.950 . S
C2454 C2455 1.349 . S
C2454 C2456 1.327 . S
C2454 H2479 0.950 . S
C2455 C2454 1.349 . S
C2455 C2471 1.349 . S
C2456 C2454 1.327 . S
C2456 C2475 1.429 . S
C2456 H2480 0.950 . S
C2457 C2474 1.574 . S
C2457 C2476 1.368 . S
C2457 H2481 0.949 . S
H2458 C2462 0.949 . S
C2459 C2460 1.349 . S
C2459 C2461 1.327 . S
C2459 H2482 0.950 . S
C2460 C2459 1.349 . S
C2460 C2472 1.349 . S
C2461 C2459 1.327 . S
C2461 C2477 1.429 . S
C2461 H2483 0.950 . S
C2462 H2458 0.949 . S
C2462 C2470 1.574 . S
C2462 C2478 1.368 . S
H2463 C2471 0.950 . S
H2464 C2469 0.950 . S
H2465 C2470 0.949 . S
H2466 C2472 0.950 . S
H2467 C2473 0.950 . S
H2468 C2474 0.949 . S
C2469 H2464 0.950 . S
C2469 C2471 1.327 . S
C2469 C2475 1.429 . S
C2470 C2462 1.574 . S
C2470 H2465 0.949 . S
C2470 C2476 1.368 . S
C2471 C2455 1.349 . S
C2471 H2463 0.950 . S
C2471 C2469 1.327 . S
C2472 C2460 1.349 . S
C2472 H2466 0.950 . S
C2472 C2473 1.327 . S
C2473 H2467 0.950 . S
C2473 C2472 1.327 . S
C2473 C2477 1.429 . S
C2474 C2457 1.574 . S
C2474 H2468 0.949 . S
C2474 C2478 1.368 . S
C2475 C2456 1.429 . S
C2475 C2469 1.429 . S
C2475 C2476 1.523 . S
C2476 C2457 1.368 . S
C2476 C2470 1.368 . S
C2476 C2475 1.523 . S
C2477 C2461 1.429 . S
C2477 C2473 1.429 . S
C2477 C2478 1.523 . S
C2478 C2462 1.368 . S
C2478 C2474 1.368 . S
C2478 C2477 1.523 . S
H2479 C2454 0.950 . S
H2480 C2456 0.950 . S
H2481 C2457 0.949 . S
H2482 C2459 0.950 . S
H2483 C2461 0.950 . S
C2484 C2485 1.349 . S
C2484 C2486 1.327 . S
C2484 H2509 0.950 . S
C2485 C2484 1.349 . S
C2485 C2501 1.349 . S
C2486 C2484 1.327 . S
C2486 C2505 1.429 . S
C2486 H2510 0.950 . S
C2487 C2504 1.574 . S
C2487 C2506 1.368 . S
C2487 H2511 0.949 . S
H2488 C2492 0.949 . S
C2489 C2490 1.349 . S
C2489 C2491 1.327 . S
C2489 H2512 0.950 . S
C2490 C2489 1.349 . S
C2490 C2502 1.349 . S
C2491 C2489 1.327 . S
C2491 C2507 1.429 . S
C2491 H2513 0.950 . S
C2492 H2488 0.949 . S
C2492 C2500 1.574 . S
C2492 C2508 1.368 . S
H2493 C2501 0.950 . S
H2494 C2499 0.950 . S
H2495 C2500 0.949 . S
H2496 C2502 0.950 . S
H2497 C2503 0.950 . S
H2498 C2504 0.949 . S
C2499 H2494 0.950 . S
C2499 C2501 1.327 . S
C2499 C2505 1.429 . S
C2500 C2492 1.574 . S
C2500 H2495 0.949 . S
C2500 C2506 1.368 . S
C2501 C2485 1.349 . S
C2501 H2493 0.950 . S
C2501 C2499 1.327 . S
C2502 C2490 1.349 . S
C2502 H2496 0.950 . S
C2502 C2503 1.327 . S
C2503 H2497 0.950 . S
C2503 C2502 1.327 . S
C2503 C2507 1.429 . S
C2504 C2487 1.574 . S
C2504 H2498 0.949 . S
C2504 C2508 1.368 . S
C2505 C2486 1.429 . S
C2505 C2499 1.429 . S
C2505 C2506 1.523 . S
C2506 C2487 1.368 . S
C2506 C2500 1.368 . S
C2506 C2505 1.523 . S
C2507 C2491 1.429 . S
C2507 C2503 1.429 . S
C2507 C2508 1.523 . S
C2508 C2492 1.368 . S
C2508 C2504 1.368 . S
C2508 C2507 1.523 . S
H2509 C2484 0.950 . S
H2510 C2486 0.950 . S
H2511 C2487 0.949 . S
H2512 C2489 0.950 . S
H2513 C2491 0.950 . S
C2514 C2515 1.349 . S
C2514 C2516 1.327 . S
C2514 H2539 0.950 . S
C2515 C2514 1.349 . S
C2515 C2531 1.349 . S
C2516 C2514 1.327 . S
C2516 C2535 1.429 . S
C2516 H2540 0.950 . S
C2517 C2534 1.574 . S
C2517 C2536 1.368 . S
C2517 H2541 0.949 . S
H2518 C2522 0.949 . S
C2519 C2520 1.349 . S
C2519 C2521 1.327 . S
C2519 H2542 0.950 . S
C2520 C2519 1.349 . S
C2520 C2532 1.349 . S
C2521 C2519 1.327 . S
C2521 C2537 1.429 . S
C2521 H2543 0.950 . S
C2522 H2518 0.949 . S
C2522 C2530 1.574 . S
C2522 C2538 1.368 . S
H2523 C2531 0.950 . S
H2524 C2529 0.950 . S
H2525 C2530 0.949 . S
H2526 C2532 0.950 . S
H2527 C2533 0.950 . S
H2528 C2534 0.949 . S
C2529 H2524 0.950 . S
C2529 C2531 1.327 . S
C2529 C2535 1.429 . S
C2530 C2522 1.574 . S
C2530 H2525 0.949 . S
C2530 C2536 1.368 . S
C2531 C2515 1.349 . S
C2531 H2523 0.950 . S
C2531 C2529 1.327 . S
C2532 C2520 1.349 . S
C2532 H2526 0.950 . S
C2532 C2533 1.327 . S
C2533 H2527 0.950 . S
C2533 C2532 1.327 . S
C2533 C2537 1.429 . S
C2534 C2517 1.574 . S
C2534 H2528 0.949 . S
C2534 C2538 1.368 . S
C2535 C2516 1.429 . S
C2535 C2529 1.429 . S
C2535 C2536 1.523 . S
C2536 C2517 1.368 . S
C2536 C2530 1.368 . S
C2536 C2535 1.523 . S
C2537 C2521 1.429 . S
C2537 C2533 1.429 . S
C2537 C2538 1.523 . S
C2538 C2522 1.368 . S
C2538 C2534 1.368 . S
C2538 C2537 1.523 . S
H2539 C2514 0.950 . S
H2540 C2516 0.950 . S
H2541 C2517 0.949 . S
H2542 C2519 0.950 . S
H2543 C2521 0.950 . S
C2544 C2545 1.349 . S
C2544 C2546 1.327 . S
C2544 H2569 0.950 . S
C2545 C2544 1.349 . S
C2545 C2561 1.349 . S
C2546 C2544 1.327 . S
C2546 C2565 1.429 . S
C2546 H2570 0.950 . S
C2547 C2564 1.574 . S
C2547 C2566 1.368 . S
C2547 H2571 0.949 . S
H2548 C2552 0.949 . S
C2549 C2550 1.349 . S
C2549 C2551 1.327 . S
C2549 H2572 0.950 . S
C2550 C2549 1.349 . S
C2550 C2562 1.349 . S
C2551 C2549 1.327 . S
C2551 C2567 1.429 . S
C2551 H2573 0.950 . S
C2552 H2548 0.949 . S
C2552 C2560 1.574 . S
C2552 C2568 1.368 . S
H2553 C2561 0.950 . S
H2554 C2559 0.950 . S
H2555 C2560 0.949 . S
H2556 C2562 0.950 . S
H2557 C2563 0.950 . S
H2558 C2564 0.949 . S
C2559 H2554 0.950 . S
C2559 C2561 1.327 . S
C2559 C2565 1.429 . S
C2560 C2552 1.574 . S
C2560 H2555 0.949 . S
C2560 C2566 1.368 . S
C2561 C2545 1.349 . S
C2561 H2553 0.950 . S
C2561 C2559 1.327 . S
C2562 C2550 1.349 . S
C2562 H2556 0.950 . S
C2562 C2563 1.327 . S
C2563 H2557 0.950 . S
C2563 C2562 1.327 . S
C2563 C2567 1.429 . S
C2564 C2547 1.574 . S
C2564 H2558 0.949 . S
C2564 C2568 1.368 . S
C2565 C2546 1.429 . S
C2565 C2559 1.429 . S
C2565 C2566 1.523 . S
C2566 C2547 1.368 . S
C2566 C2560 1.368 . S
C2566 C2565 1.523 . S
C2567 C2551 1.429 . S
C2567 C2563 1.429 . S
C2567 C2568 1.523 . S
C2568 C2552 1.368 . S
C2568 C2564 1.368 . S
C2568 C2567 1.523 . S
H2569 C2544 0.950 . S
H2570 C2546 0.950 . S
H2571 C2547 0.949 . S
H2572 C2549 0.950 . S
H2573 C2551 0.950 . S
C2574 C2575 1.349 . S
C2574 C2576 1.327 . S
C2574 H2599 0.950 . S
C2575 C2574 1.349 . S
C2575 C2591 1.349 . S
C2576 C2574 1.327 . S
C2576 C2595 1.429 . S
C2576 H2600 0.950 . S
C2577 C2594 1.574 . S
C2577 C2596 1.368 . S
C2577 H2601 0.949 . S
H2578 C2582 0.949 . S
C2579 C2580 1.349 . S
C2579 C2581 1.327 . S
C2579 H2602 0.950 . S
C2580 C2579 1.349 . S
C2580 C2592 1.349 . S
C2581 C2579 1.327 . S
C2581 C2597 1.429 . S
C2581 H2603 0.950 . S
C2582 H2578 0.949 . S
C2582 C2590 1.574 . S
C2582 C2598 1.368 . S
H2583 C2591 0.950 . S
H2584 C2589 0.950 . S
H2585 C2590 0.949 . S
H2586 C2592 0.950 . S
H2587 C2593 0.950 . S
H2588 C2594 0.949 . S
C2589 H2584 0.950 . S
C2589 C2591 1.327 . S
C2589 C2595 1.429 . S
C2590 C2582 1.574 . S
C2590 H2585 0.949 . S
C2590 C2596 1.368 . S
C2591 C2575 1.349 . S
C2591 H2583 0.950 . S
C2591 C2589 1.327 . S
C2592 C2580 1.349 . S
C2592 H2586 0.950 . S
C2592 C2593 1.327 . S
C2593 H2587 0.950 . S
C2593 C2592 1.327 . S
C2593 C2597 1.429 . S
C2594 C2577 1.574 . S
C2594 H2588 0.949 . S
C2594 C2598 1.368 . S
C2595 C2576 1.429 . S
C2595 C2589 1.429 . S
C2595 C2596 1.523 . S
C2596 C2577 1.368 . S
C2596 C2590 1.368 . S
C2596 C2595 1.523 . S
C2597 C2581 1.429 . S
C2597 C2593 1.429 . S
C2597 C2598 1.523 . S
C2598 C2582 1.368 . S
C2598 C2594 1.368 . S
C2598 C2597 1.523 . S
H2599 C2574 0.950 . S
H2600 C2576 0.950 . S
H2601 C2577 0.949 . S
H2602 C2579 0.950 . S
H2603 C2581 0.950 . S
C2604 C2605 1.349 . S
C2604 C2606 1.327 . S
C2604 H2629 0.950 . S
C2605 C2604 1.349 . S
C2605 C2621 1.349 . S
C2606 C2604 1.327 . S
C2606 C2625 1.429 . S
C2606 H2630 0.950 . S
C2607 C2624 1.574 . S
C2607 C2626 1.368 . S
C2607 H2631 0.949 . S
H2608 C2612 0.949 . S
C2609 C2610 1.349 . S
C2609 C2611 1.327 . S
C2609 H2632 0.950 . S
C2610 C2609 1.349 . S
C2610 C2622 1.349 . S
C2611 C2609 1.327 . S
C2611 C2627 1.429 . S
C2611 H2633 0.950 . S
C2612 H2608 0.949 . S
C2612 C2620 1.574 . S
C2612 C2628 1.368 . S
H2613 C2621 0.950 . S
H2614 C2619 0.950 . S
H2615 C2620 0.949 . S
H2616 C2622 0.950 . S
H2617 C2623 0.950 . S
H2618 C2624 0.949 . S
C2619 H2614 0.950 . S
C2619 C2621 1.327 . S
C2619 C2625 1.429 . S
C2620 C2612 1.574 . S
C2620 H2615 0.949 . S
C2620 C2626 1.368 . S
C2621 C2605 1.349 . S
C2621 H2613 0.950 . S
C2621 C2619 1.327 . S
C2622 C2610 1.349 . S
C2622 H2616 0.950 . S
C2622 C2623 1.327 . S
C2623 H2617 0.950 . S
C2623 C2622 1.327 . S
C2623 C2627 1.429 . S
C2624 C2607 1.574 . S
C2624 H2618 0.949 . S
C2624 C2628 1.368 . S
C2625 C2606 1.429 . S
C2625 C2619 1.429 . S
C2625 C2626 1.523 . S
C2626 C2607 1.368 . S
C2626 C2620 1.368 . S
C2626 C2625 1.523 . S
C2627 C2611 1.429 . S
C2627 C2623 1.429 . S
C2627 C2628 1.523 . S
C2628 C2612 1.368 . S
C2628 C2624 1.368 . S
C2628 C2627 1.523 . S
H2629 C2604 0.950 . S
H2630 C2606 0.950 . S
H2631 C2607 0.949 . S
H2632 C2609 0.950 . S
H2633 C2611 0.950 . S
C2634 C2635 1.349 . S
C2634 C2636 1.327 . S
C2634 H2659 0.950 . S
C2635 C2634 1.349 . S
C2635 C2651 1.349 . S
C2636 C2634 1.327 . S
C2636 C2655 1.429 . S
C2636 H2660 0.950 . S
C2637 C2654 1.574 . S
C2637 C2656 1.368 . S
C2637 H2661 0.949 . S
H2638 C2642 0.949 . S
C2639 C2640 1.349 . S
C2639 C2641 1.327 . S
C2639 H2662 0.950 . S
C2640 C2639 1.349 . S
C2640 C2652 1.349 . S
C2641 C2639 1.327 . S
C2641 C2657 1.429 . S
C2641 H2663 0.950 . S
C2642 H2638 0.949 . S
C2642 C2650 1.574 . S
C2642 C2658 1.368 . S
H2643 C2651 0.950 . S
H2644 C2649 0.950 . S
H2645 C2650 0.949 . S
H2646 C2652 0.950 . S
H2647 C2653 0.950 . S
H2648 C2654 0.949 . S
C2649 H2644 0.950 . S
C2649 C2651 1.327 . S
C2649 C2655 1.429 . S
C2650 C2642 1.574 . S
C2650 H2645 0.949 . S
C2650 C2656 1.368 . S
C2651 C2635 1.349 . S
C2651 H2643 0.950 . S
C2651 C2649 1.327 . S
C2652 C2640 1.349 . S
C2652 H2646 0.950 . S
C2652 C2653 1.327 . S
C2653 H2647 0.950 . S
C2653 C2652 1.327 . S
C2653 C2657 1.429 . S
C2654 C2637 1.574 . S
C2654 H2648 0.949 . S
C2654 C2658 1.368 . S
C2655 C2636 1.429 . S
C2655 C2649 1.429 . S
C2655 C2656 1.523 . S
C2656 C2637 1.368 . S
C2656 C2650 1.368 . S
C2656 C2655 1.523 . S
C2657 C2641 1.429 . S
C2657 C2653 1.429 . S
C2657 C2658 1.523 . S
C2658 C2642 1.368 . S
C2658 C2654 1.368 . S
C2658 C2657 1.523 . S
H2659 C2634 0.950 . S
H2660 C2636 0.950 . S
H2661 C2637 0.949 . S
H2662 C2639 0.950 . S
H2663 C2641 0.950 . S
C1585 C1553 2.181 . S
C1590 C20 2.181 . S
C1615 C1369 2.181 . S
C1620 C117 2.181 . S
C1645 C1465 2.182 . S
C1650 C196 2.182 . S
C1675 C645 2.181 . S
C1680 C321 2.181 . S
C1705 C724 2.182 . S
C1710 C409 2.182 . S
C1735 C497 2.181 . S
C1740 C557 2.181 . S
C1765 C849 2.181 . S
C1770 C1173 2.181 . S
C1795 C937 2.182 . S
C1800 C1252 2.182 . S
C1825 C1025 2.181 . S
C1830 C1076 2.181 . S
C1855 C49 0.394 . S
C1860 C1525 0.394 . S
C1885 C1340 0.394 . S
C1890 C145 0.394 . S
C1915 C225 0.394 . S
C1920 C1437 0.394 . S
C1945 C673 0.394 . S
C1950 C293 0.394 . S
C1975 C381 0.394 . S
C1980 C753 0.394 . S
C2005 C469 0.394 . S
C2010 C585 0.394 . S
C2035 C821 0.394 . S
C2040 C1201 0.394 . S
C2065 C1281 0.394 . S
C2070 C909 0.394 . S
C2095 C1105 0.394 . S
C2100 C997 0.394 . S
C2125 C29 1.489 . S
C2130 C313 1.489 . S
C2155 C401 1.489 . S
C2160 C108 1.489 . S
C2185 C489 1.489 . S
C2190 C205 1.489 . S
C2215 C460 1.489 . S
C2220 C137 1.489 . S
C2245 C233 1.490 . S
C2250 C284 1.490 . S
C2275 C372 1.490 . S
C2280 C57 1.490 . S
C2305 C548 1.489 . S
C2310 C841 1.489 . S
C2335 C929 1.489 . S
C2340 C636 1.489 . S
C2365 C1017 1.489 . S
C2370 C733 1.489 . S
C2395 C988 1.490 . S
C2400 C665 1.490 . S
C2425 C761 1.490 . S
C2430 C812 1.490 . S
C2455 C900 1.490 . S
C2460 C577 1.490 . S
C2485 C1377 1.489 . S
C2490 C1085 1.489 . S
C2515 C1457 1.489 . S
C2520 C1164 1.489 . S
C2545 C1261 1.489 . S
C2550 C1545 1.489 . S
C2575 C1516 1.490 . S
C2580 C1193 1.490 . S
C2605 C1289 1.490 . S
C2610 C1349 1.490 . S
C2635 C1428 1.490 . S
C2640 C1113 1.490 . S
