# Generated by pormake.
# Topology umu, (4)-cn, num edge types: 1
# Building blocks:
#     Node 0, Type 0, BuildingBlock: TATPOV_clean_sbu_0, # of connection points: 4
#     Node 1, Type 0, BuildingBlock: TATPOV_clean_sbu_0, # of connection points: 4
#     Node 2, Type 0, BuildingBlock: TATPOV_clean_sbu_0, # of connection points: 4
#     Node 3, Type 0, BuildingBlock: TATPOV_clean_sbu_0, # of connection points: 4
#     Node 4, Type 0, BuildingBlock: TATPOV_clean_sbu_0, # of connection points: 4
#     Node 5, Type 0, BuildingBlock: TATPOV_clean_sbu_0, # of connection points: 4
#     Node 6, Type 0, BuildingBlock: TATPOV_clean_sbu_0, # of connection points: 4
#     Node 7, Type 0, BuildingBlock: TATPOV_clean_sbu_0, # of connection points: 4
#     Node 8, Type 0, BuildingBlock: TATPOV_clean_sbu_0, # of connection points: 4
#     Node 9, Type 0, BuildingBlock: TATPOV_clean_sbu_0, # of connection points: 4
#     Node 10, Type 0, BuildingBlock: TATPOV_clean_sbu_0, # of connection points: 4
#     Node 11, Type 0, BuildingBlock: TATPOV_clean_sbu_0, # of connection points: 4
#     Node 12, Type 0, BuildingBlock: TATPOV_clean_sbu_0, # of connection points: 4
#     Node 13, Type 0, BuildingBlock: TATPOV_clean_sbu_0, # of connection points: 4
#     Node 14, Type 0, BuildingBlock: TATPOV_clean_sbu_0, # of connection points: 4
#     Node 15, Type 0, BuildingBlock: TATPOV_clean_sbu_0, # of connection points: 4
#     Node 16, Type 0, BuildingBlock: TATPOV_clean_sbu_0, # of connection points: 4
#     Node 17, Type 0, BuildingBlock: TATPOV_clean_sbu_0, # of connection points: 4
#     Node 18, Type 0, BuildingBlock: TATPOV_clean_sbu_0, # of connection points: 4
#     Node 19, Type 0, BuildingBlock: TATPOV_clean_sbu_0, # of connection points: 4
#     Node 20, Type 0, BuildingBlock: TATPOV_clean_sbu_0, # of connection points: 4
#     Node 21, Type 0, BuildingBlock: TATPOV_clean_sbu_0, # of connection points: 4
#     Node 22, Type 0, BuildingBlock: TATPOV_clean_sbu_0, # of connection points: 4
#     Node 23, Type 0, BuildingBlock: TATPOV_clean_sbu_0, # of connection points: 4
#     Node 24, Type 0, BuildingBlock: TATPOV_clean_sbu_0, # of connection points: 4
#     Node 25, Type 0, BuildingBlock: TATPOV_clean_sbu_0, # of connection points: 4
#     Node 26, Type 0, BuildingBlock: TATPOV_clean_sbu_0, # of connection points: 4
#     Node 27, Type 0, BuildingBlock: TATPOV_clean_sbu_0, # of connection points: 4
#     Node 28, Type 0, BuildingBlock: TATPOV_clean_sbu_0, # of connection points: 4
#     Node 29, Type 0, BuildingBlock: TATPOV_clean_sbu_0, # of connection points: 4
#     Node 30, Type 0, BuildingBlock: TATPOV_clean_sbu_0, # of connection points: 4
#     Node 31, Type 0, BuildingBlock: TATPOV_clean_sbu_0, # of connection points: 4
#     Edge 32, Type (0, 0), BuildingBlock: XIVTED_clean_linker_0, # of connection points: 2
#     Edge 33, Type (0, 0), BuildingBlock: XIVTED_clean_linker_0, # of connection points: 2
#     Edge 34, Type (0, 0), BuildingBlock: XIVTED_clean_linker_0, # of connection points: 2
#     Edge 35, Type (0, 0), BuildingBlock: XIVTED_clean_linker_0, # of connection points: 2
#     Edge 36, Type (0, 0), BuildingBlock: XIVTED_clean_linker_0, # of connection points: 2
#     Edge 37, Type (0, 0), BuildingBlock: XIVTED_clean_linker_0, # of connection points: 2
#     Edge 38, Type (0, 0), BuildingBlock: XIVTED_clean_linker_0, # of connection points: 2
#     Edge 39, Type (0, 0), BuildingBlock: XIVTED_clean_linker_0, # of connection points: 2
#     Edge 40, Type (0, 0), BuildingBlock: XIVTED_clean_linker_0, # of connection points: 2
#     Edge 41, Type (0, 0), BuildingBlock: XIVTED_clean_linker_0, # of connection points: 2
#     Edge 42, Type (0, 0), BuildingBlock: XIVTED_clean_linker_0, # of connection points: 2
#     Edge 43, Type (0, 0), BuildingBlock: XIVTED_clean_linker_0, # of connection points: 2
#     Edge 44, Type (0, 0), BuildingBlock: XIVTED_clean_linker_0, # of connection points: 2
#     Edge 45, Type (0, 0), BuildingBlock: XIVTED_clean_linker_0, # of connection points: 2
#     Edge 46, Type (0, 0), BuildingBlock: XIVTED_clean_linker_0, # of connection points: 2
#     Edge 47, Type (0, 0), BuildingBlock: XIVTED_clean_linker_0, # of connection points: 2
#     Edge 48, Type (0, 0), BuildingBlock: XIVTED_clean_linker_0, # of connection points: 2
#     Edge 49, Type (0, 0), BuildingBlock: XIVTED_clean_linker_0, # of connection points: 2
#     Edge 50, Type (0, 0), BuildingBlock: XIVTED_clean_linker_0, # of connection points: 2
#     Edge 51, Type (0, 0), BuildingBlock: XIVTED_clean_linker_0, # of connection points: 2
#     Edge 52, Type (0, 0), BuildingBlock: XIVTED_clean_linker_0, # of connection points: 2
#     Edge 53, Type (0, 0), BuildingBlock: XIVTED_clean_linker_0, # of connection points: 2
#     Edge 54, Type (0, 0), BuildingBlock: XIVTED_clean_linker_0, # of connection points: 2
#     Edge 55, Type (0, 0), BuildingBlock: XIVTED_clean_linker_0, # of connection points: 2
#     Edge 56, Type (0, 0), BuildingBlock: XIVTED_clean_linker_0, # of connection points: 2
#     Edge 57, Type (0, 0), BuildingBlock: XIVTED_clean_linker_0, # of connection points: 2
#     Edge 58, Type (0, 0), BuildingBlock: XIVTED_clean_linker_0, # of connection points: 2
#     Edge 59, Type (0, 0), BuildingBlock: XIVTED_clean_linker_0, # of connection points: 2
#     Edge 60, Type (0, 0), BuildingBlock: XIVTED_clean_linker_0, # of connection points: 2
#     Edge 61, Type (0, 0), BuildingBlock: XIVTED_clean_linker_0, # of connection points: 2
#     Edge 62, Type (0, 0), BuildingBlock: XIVTED_clean_linker_0, # of connection points: 2
#     Edge 63, Type (0, 0), BuildingBlock: XIVTED_clean_linker_0, # of connection points: 2
#     Edge 64, Type (0, 0), BuildingBlock: XIVTED_clean_linker_0, # of connection points: 2
#     Edge 65, Type (0, 0), BuildingBlock: XIVTED_clean_linker_0, # of connection points: 2
#     Edge 66, Type (0, 0), BuildingBlock: XIVTED_clean_linker_0, # of connection points: 2
#     Edge 67, Type (0, 0), BuildingBlock: XIVTED_clean_linker_0, # of connection points: 2
#     Edge 68, Type (0, 0), BuildingBlock: XIVTED_clean_linker_0, # of connection points: 2
#     Edge 69, Type (0, 0), BuildingBlock: XIVTED_clean_linker_0, # of connection points: 2
#     Edge 70, Type (0, 0), BuildingBlock: XIVTED_clean_linker_0, # of connection points: 2
#     Edge 71, Type (0, 0), BuildingBlock: XIVTED_clean_linker_0, # of connection points: 2
#     Edge 72, Type (0, 0), BuildingBlock: XIVTED_clean_linker_0, # of connection points: 2
#     Edge 73, Type (0, 0), BuildingBlock: XIVTED_clean_linker_0, # of connection points: 2
#     Edge 74, Type (0, 0), BuildingBlock: XIVTED_clean_linker_0, # of connection points: 2
#     Edge 75, Type (0, 0), BuildingBlock: XIVTED_clean_linker_0, # of connection points: 2
#     Edge 76, Type (0, 0), BuildingBlock: XIVTED_clean_linker_0, # of connection points: 2
#     Edge 77, Type (0, 0), BuildingBlock: XIVTED_clean_linker_0, # of connection points: 2
#     Edge 78, Type (0, 0), BuildingBlock: XIVTED_clean_linker_0, # of connection points: 2
#     Edge 79, Type (0, 0), BuildingBlock: XIVTED_clean_linker_0, # of connection points: 2
#     Edge 80, Type (0, 0), BuildingBlock: XIVTED_clean_linker_0, # of connection points: 2
#     Edge 81, Type (0, 0), BuildingBlock: XIVTED_clean_linker_0, # of connection points: 2
#     Edge 82, Type (0, 0), BuildingBlock: XIVTED_clean_linker_0, # of connection points: 2
#     Edge 83, Type (0, 0), BuildingBlock: XIVTED_clean_linker_0, # of connection points: 2
#     Edge 84, Type (0, 0), BuildingBlock: XIVTED_clean_linker_0, # of connection points: 2
#     Edge 85, Type (0, 0), BuildingBlock: XIVTED_clean_linker_0, # of connection points: 2
#     Edge 86, Type (0, 0), BuildingBlock: XIVTED_clean_linker_0, # of connection points: 2
#     Edge 87, Type (0, 0), BuildingBlock: XIVTED_clean_linker_0, # of connection points: 2
#     Edge 88, Type (0, 0), BuildingBlock: XIVTED_clean_linker_0, # of connection points: 2
#     Edge 89, Type (0, 0), BuildingBlock: XIVTED_clean_linker_0, # of connection points: 2
#     Edge 90, Type (0, 0), BuildingBlock: XIVTED_clean_linker_0, # of connection points: 2
#     Edge 91, Type (0, 0), BuildingBlock: XIVTED_clean_linker_0, # of connection points: 2
#     Edge 92, Type (0, 0), BuildingBlock: XIVTED_clean_linker_0, # of connection points: 2
#     Edge 93, Type (0, 0), BuildingBlock: XIVTED_clean_linker_0, # of connection points: 2
#     Edge 94, Type (0, 0), BuildingBlock: XIVTED_clean_linker_0, # of connection points: 2
#     Edge 95, Type (0, 0), BuildingBlock: XIVTED_clean_linker_0, # of connection points: 2
# Relax obj value: 0.144
# Max RMSD: 0.105
# Mean RMSD: 0.105
data_MOF--net-umu--node1-TATPOV_clean_sbu_0--edge1-XIVTED_clean_linker_0
_symmetry_space_group_name_H-M    P1
_symmetry_Int_Tables_number       1
_symmetry_cell_setting            triclinic
loop_
_symmetry_equiv_pos_as_xyz
'x, y, z'
_cell_length_a     84.807075
_cell_length_b     84.687284
_cell_length_c     24.672289
_cell_angle_alpha  89.984501
_cell_angle_beta   89.990761
_cell_angle_gamma 89.998395
loop_
_atom_site_label
_atom_site_type_symbol
_atom_site_fract_x
_atom_site_fract_y
_atom_site_fract_z
_atom_type_partial_charge
Zn0 Zn 0.22632 0.18295 0.09938 0.0
Zn1 Zn 0.20229 0.16616 0.0656 0.0
O2 O 0.21276 0.15157 0.12388 0.0
O3 O 0.23478 0.16457 0.13981 0.0
O4 O 0.18541 0.15242 0.03197 0.0
O5 O 0.23478 0.18662 0.02498 0.0
O6 O 0.21593 0.17053 -0.00169 0.0
C7 C 0.22632 0.15243 0.14619 0.0
C8 C 0.19657 0.19778 0.12164 0.0
O9 O 0.19112 0.18645 0.09318 0.0
O10 O 0.2111 0.19826 0.1334 0.0
C11 C 0.17083 0.1518 0.04375 0.0
O12 O 0.1653 0.16067 0.08308 0.0
C13 C 0.228 0.17896 0.98772 0.0
Zn14 Zn 0.07528 0.9745 0.32764 0.0
Zn15 Zn 0.09188 0.95162 0.29939 0.0
O16 O 0.10565 0.96224 0.35936 0.0
O17 O 0.09363 0.98521 0.36216 0.0
O18 O 0.1052 0.93359 0.27101 0.0
O19 O 0.06942 0.98066 0.25217 0.0
O20 O 0.08935 0.96532 0.23058 0.0
C21 C 0.10516 0.97657 0.37534 0.0
C22 C 0.06039 0.94648 0.35727 0.0
O23 O 0.07091 0.94106 0.32527 0.0
O24 O 0.06078 0.96083 0.37124 0.0
C25 C 0.10042 0.92604 0.22957 0.0
O26 O 0.08666 0.92967 0.20853 0.0
C27 C 0.07909 0.97561 0.21729 0.0
Zn28 Zn 0.27694 0.82082 0.578 0.0
Zn29 Zn 0.30216 0.83637 0.54737 0.0
O30 O 0.29155 0.85161 0.60337 0.0
O31 O 0.26876 0.83971 0.6162 0.0
O32 O 0.32069 0.84851 0.51616 0.0
O33 O 0.26937 0.81738 0.50249 0.0
O34 O 0.28907 0.83275 0.4782 0.0
C35 C 0.27768 0.85147 0.62344 0.0
C36 C 0.30542 0.80468 0.60608 0.0
O37 O 0.31174 0.81561 0.57789 0.0
O38 O 0.29075 0.80489 0.61548 0.0
C39 C 0.32603 0.86145 0.53482 0.0
O40 O 0.31996 0.86729 0.5795 0.0
C41 C 0.27678 0.82484 0.46616 0.0
Zn42 Zn 0.43425 0.0306 0.84554 0.0
Zn43 Zn 0.41899 0.05597 0.81319 0.0
O44 O 0.40357 0.04607 0.87012 0.0
O45 O 0.41526 0.02324 0.88514 0.0
O46 O 0.40729 0.07443 0.77967 0.0
O47 O 0.43731 0.02235 0.77058 0.0
O48 O 0.42247 0.04234 0.74519 0.0
C49 C 0.40362 0.03235 0.89163 0.0
C50 C 0.45079 0.05919 0.87079 0.0
O51 O 0.4398 0.06551 0.84293 0.0
O52 O 0.4505 0.04453 0.88083 0.0
C53 C 0.39454 0.08046 0.79714 0.0
O54 O 0.38842 0.07522 0.84263 0.0
C55 C 0.43005 0.02978 0.73384 0.0
Zn56 Zn 0.23054 0.82296 0.98073 0.0
Zn57 Zn 0.20578 0.83867 0.01412 0.0
O58 O 0.21557 0.85371 0.95586 0.0
O59 O 0.23818 0.84171 0.94046 0.0
O60 O 0.1883 0.8516 0.04787 0.0
O61 O 0.23922 0.81965 0.05486 0.0
O62 O 0.21965 0.83487 0.08138 0.0
C63 C 0.22919 0.85345 0.93386 0.0
C64 C 0.20146 0.80688 0.95775 0.0
O65 O 0.19545 0.81798 0.98597 0.0
O66 O 0.21604 0.80699 0.94662 0.0
C67 C 0.17416 0.85312 0.03168 0.0
O68 O 0.16958 0.84574 0.98756 0.0
C69 C 0.2321 0.82704 0.09203 0.0
Zn70 Zn 0.43118 0.98236 0.24929 0.0
Zn71 Zn 0.41378 0.95866 0.28354 0.0
O72 O 0.39936 0.96921 0.22507 0.0
O73 O 0.4129 0.99089 0.20852 0.0
O74 O 0.40003 0.94208 0.31872 0.0
O75 O 0.43489 0.99105 0.32335 0.0
O76 O 0.41849 0.97248 0.35014 0.0
C77 C 0.40058 0.98271 0.20238 0.0
C78 C 0.44517 0.95207 0.22759 0.0
O79 O 0.43365 0.94691 0.25574 0.0
O80 O 0.44613 0.96661 0.21614 0.0
C81 C 0.39819 0.9277 0.3053 0.0
O82 O 0.40553 0.92218 0.26241 0.0
C83 C 0.42706 0.98446 0.3606 0.0
Zn84 Zn 0.27287 0.18175 0.4996 0.0
Zn85 Zn 0.29782 0.16659 0.53642 0.0
O86 O 0.28859 0.1507 0.47996 0.0
O87 O 0.26591 0.16226 0.46173 0.0
O88 O 0.31496 0.15447 0.57513 0.0
O89 O 0.26372 0.18586 0.57278 0.0
O90 O 0.28349 0.17129 0.60168 0.0
C91 C 0.27507 0.15057 0.45723 0.0
C92 C 0.30226 0.19751 0.47537 0.0
O93 O 0.30828 0.18676 0.50515 0.0
O94 O 0.28767 0.1973 0.46441 0.0
C95 C 0.3285 0.1502 0.55864 0.0
O96 O 0.33298 0.15377 0.50915 0.0
C97 C 0.27091 0.17904 0.61106 0.0
Zn98 Zn 0.07553 0.02836 0.74333 0.0
Zn99 Zn 0.09192 0.05156 0.77161 0.0
O100 O 0.10578 0.04126 0.71121 0.0
O101 O 0.09394 0.01819 0.70728 0.0
O102 O 0.10498 0.06972 0.80033 0.0
O103 O 0.0702 0.02182 0.81883 0.0
O104 O 0.08966 0.03777 0.84031 0.0
C105 C 0.10537 0.027 0.69444 0.0
C106 C 0.06015 0.05634 0.71508 0.0
O107 O 0.07082 0.0619 0.74616 0.0
O108 O 0.06055 0.04196 0.70142 0.0
C109 C 0.09972 0.07753 0.84053 0.0
O110 O 0.0857 0.07405 0.8598 0.0
C111 C 0.07975 0.02714 0.85362 0.0
Zn112 Zn 0.77629 0.82461 0.99241 0.0
Zn113 Zn 0.7996 0.84272 0.02016 0.0
O114 O 0.78718 0.85625 0.96347 0.0
O115 O 0.76572 0.84198 0.9527 0.0
O116 O 0.81684 0.85755 0.04459 0.0
O117 O 0.7696 0.8211 0.06882 0.0
O118 O 0.78756 0.83867 0.09144 0.0
C119 C 0.77334 0.85454 0.94404 0.0
C120 C 0.80596 0.81101 0.96488 0.0
O121 O 0.8112 0.82272 0.99194 0.0
O122 O 0.79134 0.80977 0.95553 0.0
C123 C 0.82618 0.85398 0.08303 0.0
O124 O 0.82508 0.83997 0.10564 0.0
C125 C 0.77623 0.82954 0.10441 0.0
Zn126 Zn 0.93451 0.02674 0.73946 0.0
Zn127 Zn 0.9187 0.05164 0.77028 0.0
O128 O 0.90383 0.04124 0.71289 0.0
O129 O 0.91598 0.0186 0.69931 0.0
O130 O 0.90598 0.07017 0.79812 0.0
O131 O 0.93738 0.01881 0.81478 0.0
O132 O 0.92196 0.03841 0.8397 0.0
C133 C 0.9042 0.02746 0.69197 0.0
C134 C 0.9507 0.05537 0.71419 0.0
O135 O 0.93955 0.06149 0.74181 0.0
O136 O 0.95066 0.04073 0.70396 0.0
C137 C 0.89403 0.06716 0.82755 0.0
O138 O 0.89037 0.05235 0.83718 0.0
C139 C 0.92978 0.02601 0.85125 0.0
Zn140 Zn 0.72317 0.18799 0.49088 0.0
Zn141 Zn 0.69979 0.17169 0.52151 0.0
O142 O 0.70941 0.15783 0.46009 0.0
O143 O 0.73248 0.16947 0.45265 0.0
O144 O 0.68178 0.15849 0.55073 0.0
O145 O 0.73068 0.19269 0.56586 0.0
O146 O 0.71415 0.17386 0.58884 0.0
C147 C 0.72342 0.1581 0.44128 0.0
C148 C 0.69486 0.2037 0.46658 0.0
O149 O 0.68943 0.19291 0.49751 0.0
O150 O 0.70915 0.20331 0.45194 0.0
C151 C 0.68526 0.14645 0.57916 0.0
O152 O 0.70019 0.14291 0.58656 0.0
C153 C 0.72529 0.1833 0.60109 0.0
Zn154 Zn 0.57025 0.97595 0.23986 0.0
Zn155 Zn 0.58564 0.95258 0.27834 0.0
O156 O 0.60037 0.9598 0.21551 0.0
O157 O 0.58956 0.98302 0.2004 0.0
O158 O 0.59753 0.93543 0.31787 0.0
O159 O 0.56562 0.98568 0.31197 0.0
O160 O 0.58361 0.96888 0.34 0.0
C161 C 0.60065 0.97331 0.19269 0.0
C162 C 0.55387 0.94733 0.22281 0.0
O163 O 0.56439 0.94224 0.25539 0.0
O164 O 0.55464 0.96131 0.20498 0.0
C165 C 0.60567 0.92434 0.29737 0.0
O166 O 0.60663 0.92305 0.24441 0.0
C167 C 0.57469 0.98072 0.34883 0.0
Zn168 Zn 0.77919 0.18452 0.07194 0.0
Zn169 Zn 0.80063 0.16588 0.04635 0.0
O170 O 0.7883 0.15365 0.10629 0.0
O171 O 0.76645 0.16756 0.10694 0.0
O172 O 0.8173 0.15031 0.02272 0.0
O173 O 0.77422 0.19045 -0.00445 0.0
O174 O 0.78794 0.16921 0.97565 0.0
C175 C 0.77402 0.15543 0.12143 0.0
C176 C 0.8083 0.19703 0.10259 0.0
O177 O 0.81296 0.18594 0.07143 0.0
O178 O 0.79391 0.19792 0.11562 0.0
C179 C 0.82736 0.1537 0.98627 0.0
O180 O 0.82735 0.16795 0.96524 0.0
C181 C 0.77869 0.18031 0.96128 0.0
Zn182 Zn 0.57168 0.02858 0.82453 0.0
Zn183 Zn 0.59021 0.05095 0.80455 0.0
O184 O 0.60265 0.0375 0.8609 0.0
O185 O 0.58894 0.01552 0.85666 0.0
O186 O 0.60541 0.06827 0.78371 0.0
O187 O 0.56591 0.02528 0.74673 0.0
O188 O 0.58687 0.03983 0.73104 0.0
C189 C 0.601 0.02292 0.87276 0.0
C190 C 0.55912 0.05708 0.86292 0.0
O191 O 0.5702 0.06254 0.83335 0.0
O192 O 0.5582 0.04239 0.87155 0.0
C193 C 0.60161 0.07824 0.74743 0.0
O194 O 0.58739 0.07764 0.72637 0.0
C195 C 0.57596 0.03078 0.71396 0.0
Zn196 Zn 0.72865 0.8236 0.5886 0.0
Zn197 Zn 0.70278 0.83751 0.55257 0.0
O198 O 0.71089 0.85355 0.61044 0.0
O199 O 0.73412 0.84317 0.62872 0.0
O200 O 0.68438 0.84825 0.51583 0.0
O201 O 0.73806 0.82105 0.51494 0.0
O202 O 0.71747 0.83461 0.48701 0.0
C203 C 0.72429 0.85429 0.63377 0.0
C204 C 0.70047 0.80571 0.61041 0.0
O205 O 0.6939 0.81637 0.58171 0.0
O206 O 0.71499 0.80667 0.62185 0.0
C207 C 0.67537 0.85863 0.53644 0.0
O208 O 0.67729 0.86271 0.58739 0.0
C209 C 0.73058 0.82784 0.47727 0.0
Zn210 Zn 0.93531 0.97853 0.33471 0.0
Zn211 Zn 0.91912 0.95372 0.30366 0.0
O212 O 0.90438 0.96421 0.36119 0.0
O213 O 0.9169 0.9866 0.3758 0.0
O214 O 0.90615 0.93541 0.27538 0.0
O215 O 0.93794 0.98664 0.25943 0.0
O216 O 0.92249 0.96705 0.23458 0.0
C217 C 0.90497 0.9779 0.38272 0.0
C218 C 0.95124 0.94957 0.35865 0.0
O219 O 0.93987 0.94359 0.33172 0.0
O220 O 0.95145 0.96422 0.36876 0.0
C221 C 0.89448 0.93866 0.24495 0.0
O222 O 0.89125 0.95355 0.23477 0.0
C223 C 0.93029 0.97947 0.22302 0.0
Zn224 Zn 0.7317 0.68272 0.56936 0.0
Zn225 Zn 0.70911 0.66502 0.54615 0.0
O226 O 0.72161 0.65196 0.60354 0.0
O227 O 0.74397 0.66505 0.60218 0.0
O228 O 0.69133 0.65052 0.52348 0.0
O229 O 0.73597 0.68866 0.49247 0.0
O230 O 0.72103 0.66817 0.47385 0.0
C231 C 0.73609 0.65315 0.61707 0.0
C232 C 0.70364 0.69637 0.60495 0.0
O233 O 0.69814 0.68549 0.57458 0.0
O234 O 0.71822 0.69672 0.61549 0.0
C235 C 0.67888 0.65572 0.50092 0.0
O236 O 0.67718 0.67101 0.49413 0.0
C237 C 0.73057 0.6789 0.45852 0.0
Zn238 Zn 0.56979 0.47191 0.869 0.0
Zn239 Zn 0.58682 0.45034 0.83049 0.0
O240 O 0.60015 0.45837 0.89609 0.0
O241 O 0.58775 0.48077 0.91095 0.0
O242 O 0.60058 0.43365 0.79579 0.0
O243 O 0.56499 0.48144 0.7969 0.0
O244 O 0.58463 0.46665 0.76854 0.0
C245 C 0.59935 0.47176 0.91958 0.0
C246 C 0.55472 0.44278 0.88111 0.0
O247 O 0.56572 0.4388 0.84853 0.0
O248 O 0.5548 0.45638 0.90222 0.0
C249 C 0.59662 0.42769 0.75045 0.0
O250 O 0.58323 0.43204 0.72823 0.0
C251 C 0.57466 0.47766 0.76018 0.0
Zn252 Zn 0.77925 0.31987 0.09182 0.0
Zn253 Zn 0.80286 0.33707 0.05836 0.0
O254 O 0.79242 0.35142 0.11732 0.0
O255 O 0.77076 0.33791 0.1339 0.0
O256 O 0.82043 0.35057 0.02798 0.0
O257 O 0.77068 0.31692 0.01716 0.0
O258 O 0.78892 0.33376 0.99097 0.0
C259 C 0.77897 0.35022 0.1402 0.0
C260 C 0.80874 0.30495 0.11228 0.0
O261 O 0.81393 0.31649 0.08422 0.0
O262 O 0.79428 0.30426 0.12479 0.0
C263 C 0.82796 0.346 0.98621 0.0
O264 O 0.82462 0.33216 0.96509 0.0
C265 C 0.77691 0.32527 0.98044 0.0
Zn266 Zn 0.9356 0.52777 0.33607 0.0
Zn267 Zn 0.91847 0.55014 0.30059 0.0
O268 O 0.90452 0.5411 0.36277 0.0
O269 O 0.91701 0.51858 0.37443 0.0
O270 O 0.90485 0.56646 0.26356 0.0
O271 O 0.94108 0.51928 0.26282 0.0
O272 O 0.92163 0.53469 0.23698 0.0
C273 C 0.90524 0.52733 0.38359 0.0
C274 C 0.94989 0.55729 0.35583 0.0
O275 O 0.93901 0.56185 0.32369 0.0
O276 O 0.95002 0.54319 0.3728 0.0
C277 C 0.90313 0.581 0.27492 0.0
O278 O 0.91058 0.587 0.31681 0.0
C279 C 0.93155 0.5238 0.22665 0.0
Zn280 Zn 0.7286 0.32737 0.49875 0.0
Zn281 Zn 0.70454 0.34422 0.53107 0.0
O282 O 0.71509 0.35875 0.47279 0.0
O283 O 0.73721 0.34573 0.45861 0.0
O284 O 0.68727 0.35763 0.56383 0.0
O285 O 0.73685 0.32371 0.57327 0.0
O286 O 0.71803 0.33994 0.59905 0.0
C287 C 0.72877 0.35783 0.45133 0.0
C288 C 0.69898 0.31264 0.47448 0.0
O289 O 0.69345 0.324 0.50258 0.0
O290 O 0.71358 0.31204 0.46384 0.0
C291 C 0.67332 0.35944 0.54603 0.0
O292 O 0.6691 0.35235 0.50097 0.0
C293 C 0.73004 0.33149 0.61015 0.0
Zn294 Zn 0.93389 0.47369 0.75109 0.0
Zn295 Zn 0.91647 0.4508 0.77593 0.0
O296 O 0.90324 0.46248 0.71704 0.0
O297 O 0.91582 0.48517 0.71731 0.0
O298 O 0.90212 0.43353 0.80363 0.0
O299 O 0.93976 0.47888 0.82749 0.0
O300 O 0.91959 0.46355 0.84631 0.0
C301 C 0.90414 0.47694 0.70278 0.0
C302 C 0.94772 0.44514 0.71814 0.0
O303 O 0.93697 0.43964 0.74902 0.0
O304 O 0.9479 0.45969 0.70661 0.0
C305 C 0.90184 0.41909 0.78953 0.0
O306 O 0.91142 0.41413 0.75131 0.0
C307 C 0.93 0.47347 0.8614 0.0
Zn308 Zn 0.78457 0.68585 0.98517 0.0
Zn309 Zn 0.80826 0.67035 0.01786 0.0
O310 O 0.7994 0.65611 0.9559 0.0
O311 O 0.77595 0.6669 0.94756 0.0
O312 O 0.82652 0.65827 0.05133 0.0
O313 O 0.7766 0.69067 0.05947 0.0
O314 O 0.79329 0.6721 0.08366 0.0
C315 C 0.78544 0.65584 0.93669 0.0
C316 C 0.81246 0.70229 0.96166 0.0
O317 O 0.81802 0.69184 0.99367 0.0
O318 O 0.7983 0.70138 0.94597 0.0
C319 C 0.8309 0.64453 0.03689 0.0
O320 O 0.82392 0.6377 -0.00441 0.0
C321 C 0.78191 0.68136 0.09507 0.0
Zn322 Zn 0.56759 0.52862 0.29037 0.0
Zn323 Zn 0.58659 0.55131 0.30804 0.0
O324 O 0.59873 0.53766 0.25166 0.0
O325 O 0.58461 0.5159 0.25514 0.0
O326 O 0.60203 0.56862 0.32741 0.0
O327 O 0.56311 0.52508 0.3689 0.0
O328 O 0.58376 0.54031 0.38208 0.0
C329 C 0.59677 0.52317 0.23916 0.0
C330 C 0.55485 0.55724 0.25257 0.0
O331 O 0.56645 0.56281 0.27933 0.0
O332 O 0.5534 0.5425 0.24634 0.0
C333 C 0.5977 0.58157 0.34881 0.0
O334 O 0.58259 0.58427 0.35604 0.0
C335 C 0.57332 0.53089 0.40042 0.0
Zn336 Zn 0.27397 0.32301 0.47905 0.0
Zn337 Zn 0.29873 0.33883 0.5126 0.0
O338 O 0.289 0.35376 0.45397 0.0
O339 O 0.26646 0.34169 0.43795 0.0
O340 O 0.31646 0.35165 0.54515 0.0
O341 O 0.26533 0.32009 0.5536 0.0
O342 O 0.28489 0.33534 0.58008 0.0
C343 C 0.27544 0.35343 0.43152 0.0
C344 C 0.30304 0.30684 0.4574 0.0
O345 O 0.30896 0.31802 0.48542 0.0
O346 O 0.28851 0.3069 0.44574 0.0
C347 C 0.33026 0.3534 0.52597 0.0
O348 O 0.334 0.34646 0.48012 0.0
C349 C 0.27241 0.32754 0.5907 0.0
Zn350 Zn 0.43064 0.52594 0.22614 0.0
Zn351 Zn 0.41449 0.55057 0.26104 0.0
O352 O 0.39994 0.54135 0.20039 0.0
O353 O 0.41241 0.51917 0.18154 0.0
O354 O 0.40154 0.56806 0.29477 0.0
O355 O 0.43251 0.51641 0.29986 0.0
O356 O 0.41744 0.53604 0.32713 0.0
C357 C 0.40061 0.52811 0.17576 0.0
C358 C 0.44706 0.55527 0.21008 0.0
O359 O 0.4355 0.561 0.2367 0.0
O360 O 0.4472 0.54078 0.19743 0.0
C361 C 0.39969 0.582 0.2767 0.0
O362 O 0.40658 0.58611 0.23114 0.0
C363 C 0.42488 0.52329 0.33702 0.0
Zn364 Zn 0.23056 0.68074 0.9819 0.0
Zn365 Zn 0.2055 0.66536 0.0163 0.0
O366 O 0.21498 0.64994 0.95882 0.0
O367 O 0.23768 0.66166 0.94208 0.0
O368 O 0.18769 0.65296 0.05023 0.0
O369 O 0.2393 0.68384 0.05624 0.0
O370 O 0.21954 0.66892 0.08317 0.0
C371 C 0.22855 0.64998 0.93647 0.0
C372 C 0.2016 0.69709 0.95895 0.0
O373 O 0.19551 0.68611 0.98749 0.0
O374 O 0.21617 0.69685 0.94775 0.0
C375 C 0.17451 0.64955 0.02872 0.0
O376 O 0.17144 0.65442 0.97927 0.0
C377 C 0.23215 0.67653 0.09354 0.0
Zn378 Zn 0.07232 0.47729 0.73326 0.0
Zn379 Zn 0.08877 0.45269 0.76424 0.0
O380 O 0.10327 0.46302 0.70552 0.0
O381 O 0.09054 0.48531 0.69109 0.0
O382 O 0.10172 0.43448 0.79319 0.0
O383 O 0.06997 0.48555 0.80847 0.0
O384 O 0.08591 0.46629 0.83282 0.0
C385 C 0.10249 0.47667 0.68371 0.0
C386 C 0.05641 0.44828 0.71097 0.0
O387 O 0.06789 0.44244 0.7377 0.0
O388 O 0.0561 0.46289 0.70025 0.0
C389 C 0.09739 0.42752 0.83644 0.0
O390 O 0.08415 0.43185 0.85977 0.0
C391 C 0.078 0.47862 0.8445 0.0
Zn392 Zn 0.27654 0.67875 0.58122 0.0
Zn393 Zn 0.30136 0.6633 0.5494 0.0
O394 O 0.29113 0.64818 0.60662 0.0
O395 O 0.26834 0.66 0.62013 0.0
O396 O 0.31973 0.65065 0.51998 0.0
O397 O 0.26859 0.68226 0.50636 0.0
O398 O 0.28802 0.66677 0.48043 0.0
C399 C 0.27733 0.64831 0.62732 0.0
C400 C 0.305 0.69505 0.6072 0.0
O401 O 0.31116 0.68412 0.57862 0.0
O402 O 0.2904 0.69475 0.61787 0.0
C403 C 0.32679 0.65513 0.47714 0.0
O404 O 0.32256 0.66849 0.45426 0.0
C405 C 0.27571 0.6748 0.46939 0.0
Zn406 Zn 0.07407 0.52769 0.32569 0.0
Zn407 Zn 0.09065 0.55201 0.29421 0.0
O408 O 0.1051 0.54159 0.35298 0.0
O409 O 0.0923 0.51931 0.36686 0.0
O410 O 0.10375 0.57005 0.26474 0.0
O411 O 0.07118 0.51947 0.25072 0.0
O412 O 0.08746 0.53838 0.2258 0.0
C413 C 0.10428 0.52789 0.37444 0.0
C414 C 0.0586 0.55683 0.34894 0.0
O415 O 0.06995 0.56252 0.32122 0.0
O416 O 0.05823 0.54225 0.36001 0.0
C417 C 0.09938 0.57697 0.22146 0.0
O418 O 0.08606 0.57269 0.19856 0.0
C419 C 0.07926 0.52621 0.21441 0.0
Zn420 Zn 0.22643 0.32202 0.07582 0.0
Zn421 Zn 0.20164 0.33802 0.04448 0.0
O422 O 0.21212 0.35309 0.10106 0.0
O423 O 0.23471 0.34083 0.11443 0.0
O424 O 0.18396 0.35101 0.01245 0.0
O425 O 0.23433 0.31839 0.00075 0.0
O426 O 0.21491 0.33403 0.97589 0.0
C427 C 0.22594 0.35271 0.12155 0.0
C428 C 0.19732 0.30657 0.10306 0.0
O429 O 0.19125 0.31763 0.07481 0.0
O430 O 0.212 0.30644 0.11244 0.0
C431 C 0.17046 0.35366 0.03288 0.0
O432 O 0.16689 0.34758 0.08031 0.0
C433 C 0.22711 0.32594 0.96419 0.0
Zn434 Zn 0.43167 0.47541 0.81885 0.0
Zn435 Zn 0.41463 0.45118 0.78994 0.0
O436 O 0.40034 0.46251 0.84713 0.0
O437 O 0.41355 0.48466 0.85858 0.0
O438 O 0.4011 0.43322 0.76232 0.0
O439 O 0.43491 0.48276 0.74298 0.0
O440 O 0.41816 0.46407 0.72004 0.0
C441 C 0.4014 0.4764 0.86695 0.0
C442 C 0.44641 0.44617 0.84613 0.0
O443 O 0.43501 0.44044 0.81879 0.0
O444 O 0.44708 0.46086 0.85534 0.0
C445 C 0.40533 0.42573 0.72004 0.0
O446 O 0.41883 0.42933 0.69703 0.0
C447 C 0.42668 0.4759 0.70735 0.0
H448 H 0.09181 0.09643 0.92641 0.0
H449 H 0.17829 0.13332 0.9564 0.0
H450 H 0.13031 0.08589 0.81783 0.0
H451 H 0.13919 0.14628 0.05926 0.0
H452 H 0.16081 0.11604 0.90506 0.0
H453 H 0.10879 0.11497 0.97479 0.0
C454 C 0.10381 0.09806 0.91251 0.0
C455 C 0.10964 0.08953 0.86799 0.0
C456 C 0.15602 0.12267 0.93879 0.0
C457 C 0.12921 0.11073 0.92358 0.0
C458 C 0.16602 0.13254 0.96829 0.0
C459 C 0.16023 0.14127 0.01242 0.0
C460 C 0.14008 0.12142 0.95348 0.0
C461 C 0.14419 0.13977 0.02564 0.0
C462 C 0.11351 0.10866 0.94025 0.0
C463 C 0.1253 0.09218 0.85191 0.0
N464 N 0.13469 0.13001 -0.00361 0.0
N465 N 0.13455 0.10248 0.87981 0.0
H466 H 0.09382 0.90821 0.13976 0.0
H467 H 0.17978 0.86925 0.12587 0.0
H468 H 0.13038 0.91685 0.2578 0.0
H469 H 0.1432 0.86002 0.00842 0.0
H470 H 0.16158 0.88611 0.17592 0.0
H471 H 0.11136 0.88986 0.09286 0.0
C472 C 0.10551 0.9062 0.15605 0.0
C473 C 0.11064 0.91415 0.20278 0.0
C474 C 0.1575 0.88039 0.13927 0.0
C475 C 0.13084 0.89315 0.14894 0.0
C476 C 0.16791 0.87075 0.11055 0.0
C477 C 0.16305 0.86321 0.06265 0.0
C478 C 0.14207 0.88259 0.12008 0.0
C479 C 0.14748 0.8656 0.04503 0.0
C480 C 0.11553 0.89571 0.12913 0.0
C481 C 0.12592 0.91102 0.22191 0.0
N482 N 0.13757 0.8751 0.07366 0.0
N483 N 0.13548 0.90083 0.19482 0.0
H484 H 0.38986 0.89674 0.28707 0.0
H485 H 0.33865 0.89032 0.55953 0.0
H486 H 0.38362 0.93492 0.40102 0.0
H487 H 0.34044 0.85344 0.43893 0.0
H488 H 0.35679 0.906 0.50472 0.0
H489 H 0.37321 0.87999 0.34438 0.0
C490 C 0.38501 0.90161 0.32408 0.0
C491 C 0.38812 0.9173 0.33909 0.0
C492 C 0.35326 0.89445 0.49027 0.0
C493 C 0.36912 0.89816 0.40499 0.0
C494 C 0.34293 0.88546 0.52169 0.0
C495 C 0.33794 0.87055 0.50378 0.0
C496 C 0.35871 0.88853 0.44046 0.0
C497 C 0.34393 0.86488 0.45433 0.0
C498 C 0.3755 0.89203 0.35679 0.0
C499 C 0.38152 0.92294 0.3876 0.0
N500 N 0.35395 0.8739 0.42433 0.0
N501 N 0.37236 0.91339 0.4187 0.0
H502 H 0.40281 0.09241 0.69765 0.0
H503 H 0.32278 0.1416 0.66364 0.0
H504 H 0.36658 0.09526 0.82021 0.0
H505 H 0.35791 0.13782 0.53764 0.0
H506 H 0.33948 0.12587 0.72308 0.0
H507 H 0.38744 0.1103 0.64055 0.0
C508 C 0.39168 0.09687 0.71278 0.0
C509 C 0.38595 0.09224 0.76382 0.0
C510 C 0.34358 0.1285 0.68251 0.0
C511 C 0.36826 0.11271 0.69836 0.0
C512 C 0.33403 0.13749 0.6484 0.0
C513 C 0.33889 0.141 0.59532 0.0
C514 C 0.35816 0.12289 0.66361 0.0
C515 C 0.35365 0.13538 0.57814 0.0
C516 C 0.38289 0.10707 0.68003 0.0
C517 C 0.37145 0.09844 0.78116 0.0
N518 N 0.36274 0.12656 0.61213 0.0
N519 N 0.3631 0.10828 0.74844 0.0
H520 H 0.84845 0.8502 0.16274 0.0
H521 H 0.87101 0.9419 0.17003 0.0
H522 H 0.82921 0.88499 0.05324 0.0
H523 H 0.8959 0.9066 0.2629 0.0
H524 H 0.85514 0.92112 0.12892 0.0
H525 H 0.86562 0.87053 0.20138 0.0
C526 C 0.84788 0.86208 0.14661 0.0
C527 C 0.83733 0.86589 0.10472 0.0
C528 C 0.86408 0.91788 0.1582 0.0
C529 C 0.85687 0.88923 0.14909 0.0
C530 C 0.87314 0.92977 0.18188 0.0
C531 C 0.88481 0.92601 0.22011 0.0
C532 C 0.86659 0.90207 0.17297 0.0
C533 C 0.88704 0.91005 0.23362 0.0
C534 C 0.85769 0.87368 0.16872 0.0
C535 C 0.83713 0.88149 0.08546 0.0
N536 N 0.87798 0.89867 0.21021 0.0
N537 N 0.84668 0.89258 0.10797 0.0
H538 H 0.86937 0.0644 0.89818 0.0
H539 H 0.85111 0.15704 0.91155 0.0
H540 H 0.89697 0.09924 0.81257 0.0
H541 H 0.82815 0.12226 0.01226 0.0
H542 H 0.8678 0.13621 0.87366 0.0
H543 H 0.8538 0.08555 0.93849 0.0
C544 C 0.87217 0.07651 0.88777 0.0
C545 C 0.8845 0.08003 0.85181 0.0
C546 C 0.85916 0.13316 0.90421 0.0
C547 C 0.86665 0.10439 0.89806 0.0
C548 C 0.84961 0.14505 0.92589 0.0
C549 C 0.83816 0.1414 0.9651 0.0
C550 C 0.85718 0.11748 0.92157 0.0
C551 C 0.8368 0.12564 0.98215 0.0
C552 C 0.86328 0.0886 0.91098 0.0
C553 C 0.88757 0.09597 0.84005 0.0
N554 N 0.84612 0.11428 0.96011 0.0
N555 N 0.87867 0.10756 0.863 0.0
H556 H 0.6891 0.12209 0.65053 0.0
H557 H 0.59723 0.10172 0.67236 0.0
H558 H 0.65307 0.14874 0.56739 0.0
H559 H 0.63304 0.08021 0.7724 0.0
H560 H 0.61735 0.11886 0.6325 0.0
H561 H 0.66864 0.10628 0.69378 0.0
C562 C 0.67688 0.12462 0.64125 0.0
C563 C 0.67282 0.13676 0.60511 0.0
C564 C 0.62078 0.11045 0.66338 0.0
C565 C 0.64925 0.11863 0.65476 0.0
C566 C 0.6093 0.10066 0.68621 0.0
C567 C 0.61345 0.08946 0.72572 0.0
C568 C 0.63657 0.10898 0.67987 0.0
C569 C 0.62928 0.08865 0.74207 0.0
C570 C 0.66518 0.1156 0.66618 0.0
C571 C 0.65675 0.1395 0.59494 0.0
N572 N 0.64026 0.09819 0.71887 0.0
N573 N 0.64555 0.13047 0.61949 0.0
H574 H 0.60689 0.92459 0.40825 0.0
H575 H 0.66968 0.85422 0.42814 0.0
H576 H 0.62489 0.89954 0.26897 0.0
H577 H 0.65456 0.882 0.56536 0.0
H578 H 0.65172 0.86918 0.3703 0.0
H579 H 0.62264 0.90765 0.46707 0.0
C580 C 0.6141 0.91548 0.38996 0.0
C581 C 0.61461 0.91356 0.33342 0.0
C582 C 0.65227 0.87196 0.41309 0.0
C583 C 0.63275 0.89408 0.40087 0.0
C584 C 0.66251 0.8634 0.44626 0.0
C585 C 0.66371 0.8669 0.50177 0.0
C586 C 0.64311 0.88413 0.43548 0.0
C587 C 0.65409 0.87891 0.52282 0.0
C588 C 0.62312 0.90581 0.42367 0.0
C589 C 0.62416 0.9015 0.31224 0.0
N590 N 0.64425 0.88713 0.48963 0.0
N591 N 0.63289 0.89226 0.34596 0.0
H592 H 0.6812 0.62363 0.489 0.0
H593 H 0.59298 0.61202 0.38275 0.0
H594 H 0.64914 0.66257 0.46442 0.0
H595 H 0.62947 0.57702 0.36169 0.0
H596 H 0.61263 0.63018 0.42018 0.0
H597 H 0.6615 0.60572 0.45081 0.0
C598 C 0.66999 0.62841 0.47583 0.0
C599 C 0.66683 0.64464 0.47988 0.0
C600 C 0.61633 0.61854 0.40714 0.0
C601 C 0.64422 0.62418 0.43616 0.0
C602 C 0.60512 0.60817 0.38582 0.0
C603 C 0.60958 0.59297 0.369 0.0
C604 C 0.63207 0.61363 0.41238 0.0
C605 C 0.6255 0.58863 0.37393 0.0
C606 C 0.65878 0.61819 0.45377 0.0
C607 C 0.65211 0.65016 0.46194 0.0
N608 N 0.63614 0.59886 0.39548 0.0
N609 N 0.64133 0.63994 0.44103 0.0
H610 H 0.59172 0.41289 0.65313 0.0
H611 H 0.67789 0.37427 0.64337 0.0
H612 H 0.62611 0.41772 0.78104 0.0
H613 H 0.64275 0.36694 0.51929 0.0
H614 H 0.65904 0.39025 0.69403 0.0
H615 H 0.6101 0.39596 0.60368 0.0
C616 C 0.60311 0.41034 0.67098 0.0
C617 C 0.60737 0.41678 0.72135 0.0
C618 C 0.65542 0.38514 0.65576 0.0
C619 C 0.62853 0.39743 0.66466 0.0
C620 C 0.66621 0.37603 0.62667 0.0
C621 C 0.66193 0.36925 0.57684 0.0
C622 C 0.64021 0.38759 0.63495 0.0
C623 C 0.64659 0.37193 0.55747 0.0
C624 C 0.61361 0.40068 0.64264 0.0
C625 C 0.6223 0.41304 0.74237 0.0
N626 N 0.6363 0.38091 0.58651 0.0
N627 N 0.63234 0.40367 0.71387 0.0
H628 H 0.89702 0.38756 0.76865 0.0
H629 H 0.83596 0.37632 0.01393 0.0
H630 H 0.88234 0.42519 0.8754 0.0
H631 H 0.84634 0.33977 0.89731 0.0
H632 H 0.85415 0.3939 0.96652 0.0
H633 H 0.87956 0.36945 0.81755 0.0
C634 C 0.89013 0.39203 0.80228 0.0
C635 C 0.89115 0.40794 0.81782 0.0
C636 C 0.85248 0.38203 0.95132 0.0
C637 C 0.8712 0.38725 0.87416 0.0
C638 C 0.84212 0.37195 0.97851 0.0
C639 C 0.83957 0.35654 0.95954 0.0
C640 C 0.86042 0.37667 0.90482 0.0
C641 C 0.8479 0.35156 0.91336 0.0
C642 C 0.88016 0.38168 0.8302 0.0
C643 C 0.88194 0.41304 0.86181 0.0
N644 N 0.85793 0.3616 0.88756 0.0
N645 N 0.87239 0.40274 0.8884 0.0
H646 H 0.84262 0.61493 0.01815 0.0
H647 H 0.89513 0.61227 0.28831 0.0
H648 H 0.84618 0.65407 0.12954 0.0
H649 H 0.88821 0.57259 0.1811 0.0
H650 H 0.87844 0.62835 0.22885 0.0
H651 H 0.86075 0.59992 0.07496 0.0
C652 C 0.84727 0.62042 0.05441 0.0
C653 C 0.84279 0.63578 0.06914 0.0
C654 C 0.8806 0.61612 0.21839 0.0
C655 C 0.86357 0.61856 0.13481 0.0
C656 C 0.89013 0.60693 0.25233 0.0
C657 C 0.89306 0.59102 0.23984 0.0
C658 C 0.87401 0.60937 0.17153 0.0
C659 C 0.88625 0.58476 0.19259 0.0
C660 C 0.85762 0.61181 0.08698 0.0
C661 C 0.84928 0.64226 0.11661 0.0
N662 N 0.87708 0.59393 0.16028 0.0
N663 N 0.85929 0.6336 0.14786 0.0
H664 H 0.36069 0.36052 0.49652 0.0
H665 H 0.37606 0.41613 0.75431 0.0
H666 H 0.32636 0.36886 0.62253 0.0
H667 H 0.41028 0.40861 0.62737 0.0
H668 H 0.35816 0.39788 0.70851 0.0
H669 H 0.37943 0.37726 0.54541 0.0
C670 C 0.35709 0.36584 0.53447 0.0
C671 C 0.34189 0.3633 0.55529 0.0
C672 C 0.36961 0.40017 0.69075 0.0
C673 C 0.3633 0.38248 0.61156 0.0
C674 C 0.37986 0.41058 0.71697 0.0
C675 C 0.3947 0.41396 0.69461 0.0
C676 C 0.37419 0.39308 0.64171 0.0
C677 C 0.39896 0.40639 0.6461 0.0
C678 C 0.3678 0.3754 0.5624 0.0
C679 C 0.33792 0.3705 0.60476 0.0
N680 N 0.38874 0.39636 0.6212 0.0
N681 N 0.34853 0.37976 0.63108 0.0
H682 H 0.33738 0.62607 0.51038 0.0
H683 H 0.39211 0.61253 0.24925 0.0
H684 H 0.3433 0.66069 0.38353 0.0
H685 H 0.38456 0.57744 0.37354 0.0
H686 H 0.3753 0.63084 0.29975 0.0
H687 H 0.3558 0.60867 0.46309 0.0
C688 C 0.34262 0.63007 0.47275 0.0
C689 C 0.33872 0.64486 0.45085 0.0
C690 C 0.37735 0.61914 0.31601 0.0
C691 C 0.35981 0.62492 0.39623 0.0
C692 C 0.38696 0.60867 0.28716 0.0
C693 C 0.38973 0.59339 0.30701 0.0
C694 C 0.37047 0.61431 0.36514 0.0
C695 C 0.38273 0.58908 0.35649 0.0
C696 C 0.35312 0.6201 0.44567 0.0
C697 C 0.34591 0.64938 0.40192 0.0
N698 N 0.37343 0.59946 0.38372 0.0
N699 N 0.35605 0.63944 0.3762 0.0
H700 H 0.0943 0.59258 0.12577 0.0
H701 H 0.17749 0.63736 0.13102 0.0
H702 H 0.12793 0.58842 0.25635 0.0
H703 H 0.14523 0.63944 -0.00414 0.0
H704 H 0.15877 0.62068 0.1796 0.0
H705 H 0.11202 0.61102 0.08006 0.0
C706 C 0.10537 0.5956 0.14504 0.0
C707 C 0.10964 0.58887 0.19497 0.0
C708 C 0.15575 0.6248 0.13937 0.0
C709 C 0.13004 0.60999 0.14259 0.0
C710 C 0.16645 0.63434 0.11152 0.0
C711 C 0.16297 0.63978 0.05907 0.0
C712 C 0.14143 0.62061 0.11476 0.0
C713 C 0.14844 0.6355 0.0361 0.0
C714 C 0.11551 0.60612 0.1188 0.0
C715 C 0.12415 0.59326 0.21788 0.0
N716 N 0.13822 0.62614 0.06403 0.0
N717 N 0.13383 0.6035 0.19145 0.0
H718 H 0.12592 0.41621 0.80105 0.0
H719 H 0.14068 0.36264 0.06439 0.0
H720 H 0.0923 0.41155 0.93147 0.0
H721 H 0.17416 0.36768 0.93369 0.0
H722 H 0.12236 0.37975 0.01506 0.0
H723 H 0.14326 0.39756 0.8475 0.0
C724 C 0.12214 0.41121 0.83931 0.0
C725 C 0.10764 0.41552 0.86243 0.0
C726 C 0.1337 0.37707 -0.00286 0.0
C727 C 0.12751 0.39417 0.91609 0.0
C728 C 0.14418 0.3673 0.02531 0.0
C729 C 0.15902 0.36374 0.00331 0.0
C730 C 0.1381 0.38334 0.94656 0.0
C731 C 0.16288 0.37012 0.95241 0.0
C732 C 0.13207 0.40056 0.86589 0.0
C733 C 0.10338 0.40862 0.91213 0.0
N734 N 0.15251 0.37961 0.92591 0.0
N735 N 0.11328 0.39835 0.93736 0.0
H736 H 0.25785 0.1867 0.95674 0.0
H737 H 0.24055 0.18511 0.64114 0.0
H738 H 0.21261 0.17254 0.89287 0.0
H739 H 0.28657 0.17447 0.70649 0.0
H740 H 0.22989 0.18544 0.73336 0.0
H741 H 0.26841 0.18715 0.86447 0.0
C742 C 0.25013 0.18376 0.92326 0.0
C743 C 0.23435 0.17954 0.93228 0.0
C744 C 0.24231 0.18305 0.72732 0.0
C745 C 0.2463 0.18021 0.82716 0.0
C746 C 0.24842 0.18294 0.67492 0.0
C747 C 0.26446 0.17973 0.66636 0.0
C748 C 0.25238 0.18024 0.77131 0.0
C749 C 0.27412 0.17691 0.71143 0.0
C750 C 0.25618 0.18396 0.87081 0.0
C751 C 0.22487 0.17577 0.88756 0.0
N752 N 0.26795 0.17733 0.76216 0.0
N753 N 0.23097 0.17629 0.83671 0.0
H754 H 0.05411 0.98863 0.16462 0.0
H755 H 0.10422 0.0258 0.92573 0.0
H756 H 0.10365 0.97829 0.14607 0.0
H757 H 0.05531 0.01294 0.90578 0.0
H758 H 0.10422 0.01264 0.01448 0.0
H759 H 0.05429 1.00159 0.07601 0.0
C760 C 0.06501 0.98905 0.14172 0.0
C761 C 0.07888 0.98238 0.16241 0.0
C762 C 0.09352 0.01276 0.99051 0.0
C763 C 0.07922 0.99741 0.06203 0.0
C764 C 0.09347 0.02035 0.94029 0.0
C765 C 0.07975 0.0204 0.90856 0.0
C766 C 0.07967 0.00553 0.00929 0.0
C767 C 0.06615 0.01309 0.92896 0.0
C768 C 0.06509 0.99641 0.0913 0.0
C769 C 0.09269 0.98321 0.13122 0.0
N770 N 0.06642 0.00601 0.97826 0.0
N771 N 0.09256 0.99077 0.08263 0.0
H772 H 0.21644 0.83276 0.18684 0.0
H773 H 0.29277 0.83142 0.37247 0.0
H774 H 0.26232 0.82087 0.12287 0.0
H775 H 0.24677 0.81866 0.4334 0.0
H776 H 0.28187 0.83202 0.28037 0.0
H777 H 0.22751 0.83216 0.27859 0.0
C778 C 0.22883 0.83006 0.19214 0.0
C779 C 0.23849 0.82679 0.14743 0.0
C780 C 0.27423 0.82905 0.31405 0.0
C781 C 0.25117 0.8263 0.25151 0.0
C782 C 0.2804 0.82875 0.36643 0.0
C783 C 0.27065 0.82492 0.41039 0.0
C784 C 0.25816 0.82584 0.30605 0.0
C785 C 0.25471 0.82154 0.4005 0.0
C786 C 0.2351 0.82967 0.24433 0.0
C787 C 0.25446 0.82334 0.15639 0.0
N788 N 0.24892 0.8222 0.34933 0.0
N789 N 0.26036 0.82329 0.2075 0.0
H790 H 0.42435 0.04578 0.63952 0.0
H791 H 0.42051 0.96921 0.45556 0.0
H792 H 0.43529 0.99944 0.70215 0.0
H793 H 0.43477 0.0144 0.39107 0.0
H794 H 0.42143 0.9804 0.54713 0.0
H795 H 0.42375 0.0347 0.54767 0.0
C796 C 0.42661 0.0333 0.6339 0.0
C797 C 0.42993 0.0235 0.67827 0.0
C798 C 0.42438 0.98781 0.5128 0.0
C799 C 0.42901 0.01082 0.57418 0.0
C800 C 0.4238 0.98147 0.46071 0.0
C801 C 0.42762 0.9909 0.4159 0.0
C802 C 0.42848 0.00373 0.51977 0.0
C803 C 0.43185 0.00672 0.42468 0.0
C804 C 0.42633 0.02702 0.58166 0.0
C805 C 0.4328 0.00741 0.66891 0.0
N806 N 0.43204 0.0127 0.47569 0.0
N807 N 0.43215 1.00153 0.61785 0.0
H808 H 0.79144 0.83808 0.19803 0.0
H809 H 0.71492 0.83216 0.38179 0.0
H810 H 0.74701 0.82057 0.13729 0.0
H811 H 0.76142 0.82446 0.44796 0.0
H812 H 0.72637 0.83272 0.29068 0.0
H813 H 0.78042 0.83777 0.29019 0.0
C814 C 0.7794 0.83419 0.20412 0.0
C815 C 0.77012 0.82928 0.16022 0.0
C816 C 0.73402 0.83089 0.32526 0.0
C817 C 0.75749 0.82917 0.26445 0.0
C818 C 0.72753 0.83063 0.3771 0.0
C819 C 0.73725 0.82818 0.42225 0.0
C820 C 0.75035 0.82903 0.3188 0.0
C821 C 0.75351 0.82624 0.41404 0.0
C822 C 0.77317 0.83397 0.2565 0.0
C823 C 0.75459 0.82433 0.17013 0.0
N824 N 0.7596 0.82681 0.3632 0.0
N825 N 0.74872 0.82452 0.22119 0.0
H826 H 0.92319 0.04144 0.94613 0.0
H827 H 0.92338 0.9641 0.12834 0.0
H828 H 0.93558 0.99569 0.88173 0.0
H829 H 0.93613 0.00978 0.19247 0.0
H830 H 0.92281 0.97559 0.03702 0.0
H831 H 0.92289 0.02999 0.03757 0.0
C832 C 0.92581 0.02901 0.95126 0.0
C833 C 0.92953 0.01951 0.90656 0.0
C834 C 0.92574 0.98303 0.07124 0.0
C835 C 0.92894 0.00639 0.0101 0.0
C836 C 0.92603 0.97652 0.12317 0.0
C837 C 0.92993 0.986 0.16777 0.0
C838 C 0.92902 0.99916 0.06433 0.0
C839 C 0.93324 1.00204 0.15901 0.0
C840 C 0.92568 0.02252 0.00324 0.0
C841 C 0.93281 0.00346 0.91526 0.0
N842 N 0.93261 0.00816 0.10825 0.0
N843 N 0.93235 0.99737 0.96606 0.0
H844 H 0.76851 0.20628 0.90685 0.0
H845 H 0.72558 0.15877 0.67332 0.0
H846 H 0.77379 0.1558 0.89104 0.0
H847 H 0.74187 0.20664 0.65112 0.0
H848 H 0.73957 0.1578 0.76036 0.0
H849 H 0.75541 0.20699 0.81863 0.0
C850 C 0.76699 0.19536 0.88455 0.0
C851 C 0.77223 0.18096 0.90601 0.0
C852 C 0.74004 0.16848 0.73626 0.0
C853 C 0.75701 0.18166 0.80601 0.0
C854 C 0.73197 0.1691 0.68702 0.0
C855 C 0.73261 0.18281 0.65515 0.0
C856 C 0.74849 0.18176 0.75398 0.0
C857 C 0.74115 0.19583 0.67443 0.0
C858 C 0.75955 0.19579 0.83434 0.0
C859 C 0.77 0.16715 0.87558 0.0
N860 N 0.74869 0.19502 0.72282 0.0
N861 N 0.76236 0.16781 0.82721 0.0
H862 H 0.55026 0.02193 0.65541 0.0
H863 H 0.59872 0.98108 0.42254 0.0
H864 H 0.6007 0.02773 0.64388 0.0
H865 H 0.55177 0.999 0.39436 0.0
H866 H 0.59929 0.99515 0.50937 0.0
H867 H 0.55005 0.0108 0.56387 0.0
C868 C 0.56126 0.02097 0.63335 0.0
C869 C 0.57553 0.02571 0.65701 0.0
C870 C 0.58892 0.99602 0.48392 0.0
C871 C 0.5754 0.01273 0.55334 0.0
C872 C 0.58853 0.98792 0.43474 0.0
C873 C 0.57516 0.98887 0.40146 0.0
C874 C 0.57572 0.0048 0.50025 0.0
C875 C 0.56231 0.99799 0.41887 0.0
C876 C 0.56113 0.01467 0.58125 0.0
C877 C 0.58946 0.02427 0.62682 0.0
N878 N 0.56284 0.00549 0.46744 0.0
N879 N 0.5891 0.01766 0.57666 0.0
H880 H 0.74035 0.70476 0.40271 0.0
H881 H 0.78158 0.65691 0.16754 0.0
H882 H 0.7342 0.65437 0.38759 0.0
H883 H 0.76491 0.70459 0.1441 0.0
H884 H 0.76766 0.65605 0.25475 0.0
H885 H 0.75247 0.7053 0.31277 0.0
C886 C 0.74145 0.69383 0.38017 0.0
C887 C 0.73629 0.67949 0.40233 0.0
C888 C 0.76707 0.66666 0.23029 0.0
C889 C 0.75041 0.68 0.30046 0.0
C890 C 0.77509 0.66721 0.18095 0.0
C891 C 0.77438 0.68085 0.14878 0.0
C892 C 0.75861 0.67994 0.24783 0.0
C893 C 0.76572 0.69384 0.16769 0.0
C894 C 0.74834 0.69416 0.329 0.0
C895 C 0.73796 0.66567 0.37161 0.0
N896 N 0.75825 0.69311 0.21625 0.0
N897 N 0.7451 0.66621 0.32232 0.0
H898 H 0.59894 0.52859 0.46725 0.0
H899 H 0.55042 0.49464 0.71745 0.0
H900 H 0.54867 0.52084 0.46178 0.0
H901 H 0.5985 0.48061 0.68588 0.0
H902 H 0.5503 0.50946 0.63248 0.0
H903 H 0.59962 0.51638 0.55758 0.0
C904 C 0.58803 0.52457 0.48548 0.0
C905 C 0.57373 0.52562 0.45717 0.0
C906 C 0.56087 0.50314 0.64427 0.0
C907 C 0.57444 0.51181 0.55964 0.0
C908 C 0.56096 0.4947 0.69265 0.0
C909 C 0.57447 0.48632 0.70844 0.0
C910 C 0.57446 0.50344 0.61196 0.0
C911 C 0.58781 0.48681 0.67482 0.0
C912 C 0.58845 0.51751 0.5366 0.0
C913 C 0.55994 0.52013 0.48223 0.0
N914 N 0.5875 0.49532 0.62811 0.0
N915 N 0.56063 0.51347 0.53215 0.0
H916 H 0.71459 0.3385 0.70449 0.0
H917 H 0.74688 0.317 0.95348 0.0
H918 H 0.75969 0.32333 0.64208 0.0
H919 H 0.79023 0.33473 0.88464 0.0
H920 H 0.73449 0.3188 0.86433 0.0
H921 H 0.72531 0.33704 0.79662 0.0
C922 C 0.72672 0.33484 0.71022 0.0
C923 C 0.73624 0.33088 0.66582 0.0
C924 C 0.74666 0.32244 0.86895 0.0
C925 C 0.74848 0.32916 0.7704 0.0
C926 C 0.7538 0.32125 0.91956 0.0
C927 C 0.76959 0.32579 0.92636 0.0
C928 C 0.75544 0.32802 0.82479 0.0
C929 C 0.778 0.33122 0.8811 0.0
C930 C 0.73277 0.33389 0.76267 0.0
C931 C 0.75191 0.3263 0.67535 0.0
N932 N 0.77084 0.33205 0.83192 0.0
N933 N 0.75759 0.32568 0.72669 0.0
H934 H 0.95597 0.50837 0.17808 0.0
H935 H 0.90546 0.47497 0.93294 0.0
H936 H 0.90726 0.52148 0.15449 0.0
H937 H 0.95504 0.48552 0.91675 0.0
H938 H 0.90579 0.48691 0.02356 0.0
H939 H 0.95567 0.49501 0.09003 0.0
C940 C 0.94522 0.50841 0.15436 0.0
C941 C 0.93164 0.51608 0.17326 0.0
C942 C 0.91657 0.48651 8e-05 0.0
C943 C 0.93116 0.50063 0.07364 0.0
C944 C 0.91643 0.47963 0.94874 0.0
C945 C 0.93023 0.47935 0.91746 0.0
C946 C 0.93068 0.49281 0.02042 0.0
C947 C 0.94413 0.48562 0.93955 0.0
C948 C 0.94508 0.50083 0.10427 0.0
C949 C 0.91802 0.51581 0.14104 0.0
N950 N 0.94402 0.49205 0.9899 0.0
N951 N 0.91808 0.50808 0.09282 0.0
H952 H 0.28797 0.33325 0.68574 0.0
H953 H 0.21136 0.33261 0.87013 0.0
H954 H 0.2421 0.32162 0.62116 0.0
H955 H 0.25713 0.31943 0.93203 0.0
H956 H 0.22242 0.33306 0.77825 0.0
H957 H 0.27676 0.33277 0.77735 0.0
C958 C 0.27555 0.33064 0.69088 0.0
C959 C 0.26594 0.3274 0.64603 0.0
C960 C 0.22998 0.33003 0.81208 0.0
C961 C 0.25311 0.32705 0.74995 0.0
C962 C 0.22371 0.32981 0.86434 0.0
C963 C 0.23335 0.32592 0.90853 0.0
C964 C 0.24603 0.32667 0.8044 0.0
C965 C 0.24927 0.32238 0.89895 0.0
C966 C 0.26921 0.33031 0.74299 0.0
C967 C 0.24993 0.32406 0.65479 0.0
N968 N 0.25516 0.32296 0.84788 0.0
N969 N 0.24397 0.32408 0.70581 0.0
H970 H 0.41923 0.53828 0.43308 0.0
H971 H 0.41861 0.46066 0.6134 0.0
H972 H 0.4297 0.49252 0.36492 0.0
H973 H 0.43373 0.50582 0.67575 0.0
H974 H 0.41769 0.47214 0.52197 0.0
H975 H 0.41935 0.52644 0.52375 0.0
C976 C 0.42148 0.52575 0.43723 0.0
C977 C 0.42456 0.51636 0.39168 0.0
C978 C 0.42123 0.47946 0.55584 0.0
C979 C 0.42451 0.50281 0.49454 0.0
C980 C 0.42172 0.47296 0.6078 0.0
C981 C 0.42634 0.48231 0.65194 0.0
C982 C 0.42502 0.49546 0.54854 0.0
C983 C 0.43025 0.49818 0.64268 0.0
C984 C 0.42161 0.51904 0.4888 0.0
C985 C 0.42742 0.50018 0.39916 0.0
N986 N 0.42938 0.5043 0.59201 0.0
N987 N 0.42724 0.49387 0.44972 0.0
H988 H 0.24562 0.68142 0.43884 0.0
H989 H 0.26256 0.68228 0.12355 0.0
H990 H 0.29122 0.66878 0.37419 0.0
H991 H 0.21678 0.67051 0.18868 0.0
H992 H 0.27345 0.68163 0.2154 0.0
H993 H 0.23497 0.68175 0.34688 0.0
C994 C 0.2534 0.67878 0.40523 0.0
C995 C 0.26933 0.67508 0.41396 0.0
C996 C 0.26104 0.67917 0.2094 0.0
C997 C 0.25723 0.67556 0.30905 0.0
C998 C 0.25479 0.67964 0.15722 0.0
C999 C 0.23874 0.67646 0.14869 0.0
C1000 C 0.25109 0.67583 0.25327 0.0
C1001 C 0.22922 0.67298 0.19359 0.0
C1002 C 0.24729 0.67888 0.35293 0.0
C1003 C 0.27887 0.67163 0.36907 0.0
N1004 N 0.23553 0.67288 0.24415 0.0
N1005 N 0.27269 0.67208 0.31828 0.0
H1006 H 0.08623 0.54124 0.11915 0.0
H1007 H 0.08501 0.46345 0.93943 0.0
H1008 H 0.07311 0.49587 0.18513 0.0
H1009 H 0.07256 0.50908 0.87411 0.0
H1010 H 0.08586 0.47516 0.0304 0.0
H1011 H 0.08644 0.52951 0.02814 0.0
C1012 C 0.08345 0.52883 0.11444 0.0
C1013 C 0.07955 0.51951 0.15944 0.0
C1014 C 0.08294 0.48255 -0.00402 0.0
C1015 C 0.08003 0.50609 0.05643 0.0
C1016 C 0.0825 0.47591 0.94427 0.0
C1017 C 0.0786 0.48531 0.89947 0.0
C1018 C 0.07982 0.49872 0.00244 0.0
C1019 C 0.07546 0.5014 0.90776 0.0
C1020 C 0.08352 0.52218 0.06272 0.0
C1021 C 0.07603 0.50349 0.15133 0.0
N1022 N 0.07623 0.50764 0.9583 0.0
N1023 N 0.07645 0.49724 0.10075 0.0
H1024 H 0.19655 0.21491 0.2145 0.0
H1025 H 0.17484 0.29068 0.04484 0.0
H1026 H 0.17594 0.21326 0.05503 0.0
H1027 H 0.19964 0.29026 0.19723 0.0
H1028 H 0.16673 0.26321 0.06084 0.0
H1029 H 0.18875 0.24253 0.22228 0.0
C1030 C 0.18989 0.22026 0.18183 0.0
C1031 C 0.18706 0.21192 0.1338 0.0
C1032 C 0.17353 0.2693 0.09156 0.0
C1033 C 0.17875 0.24375 0.14119 0.0
C1034 C 0.17804 0.28501 0.08263 0.0
C1035 C 0.18812 0.29258 0.11944 0.0
C1036 C 0.17913 0.26127 0.13765 0.0
C1037 C 0.19205 0.28471 0.16751 0.0
C1038 C 0.18553 0.23608 0.18604 0.0
C1039 C 0.17837 0.21935 0.09268 0.0
N1040 N 0.18777 0.26943 0.17482 0.0
N1041 N 0.17492 0.23502 0.09662 0.0
H1042 H 0.04473 0.94635 0.45307 0.0
H1043 H 0.96575 0.92672 0.29778 0.0
H1044 H 0.04323 0.92682 0.29193 0.0
H1045 H 0.96939 0.95203 0.44878 0.0
H1046 H 0.99326 0.91814 0.30818 0.0
H1047 H 0.01708 0.9393 0.46548 0.0
C1048 C 0.03867 0.94008 0.42093 0.0
C1049 C 0.04615 0.93736 0.37116 0.0
C1050 C 0.98788 0.92516 0.33984 0.0
C1051 C 0.0143 0.92988 0.38404 0.0
C1052 C 0.97215 0.92996 0.33411 0.0
C1053 C 0.96544 0.9403 0.3721 0.0
C1054 C 0.9968 0.93071 0.38397 0.0
C1055 C 0.97424 0.94425 0.4182 0.0
C1056 C 0.02284 0.93616 0.42782 0.0
C1057 C 0.03782 0.92917 0.33086 0.0
N1058 N 0.98951 0.93966 0.42242 0.0
N1059 N 0.02217 0.92611 0.33756 0.0
H1060 H 0.30328 0.78842 0.70046 0.0
H1061 H 0.32756 0.7105 0.54777 0.0
H1062 H 0.32679 0.78806 0.54565 0.0
H1063 H 0.30189 0.71268 0.69837 0.0
H1064 H 0.33512 0.73827 0.55951 0.0
H1065 H 0.31081 0.76092 0.71401 0.0
C1066 C 0.31047 0.78264 0.67003 0.0
C1067 C 0.31425 0.79039 0.6216 0.0
C1068 C 0.32824 0.73253 0.59081 0.0
C1069 C 0.32233 0.75868 0.63555 0.0
C1070 C 0.32403 0.71664 0.58432 0.0
C1071 C 0.31386 0.70943 0.62173 0.0
C1072 C 0.32222 0.74113 0.63503 0.0
C1073 C 0.30954 0.71792 0.66815 0.0
C1074 C 0.3147 0.76689 0.67756 0.0
C1075 C 0.32361 0.78243 0.5835 0.0
N1076 N 0.31351 0.73337 0.67302 0.0
N1077 N 0.32696 0.76683 0.59056 0.0
H1078 H 0.46601 0.08194 0.81153 0.0
H1079 H 0.54408 0.05655 0.95982 0.0
H1080 H 0.46872 0.0558 0.96114 0.0
H1081 H 0.5431 0.07904 0.80324 0.0
H1082 H 0.51702 0.06513 0.97563 0.0
H1083 H 0.49382 0.08938 0.82217 0.0
C1084 C 0.47229 0.07829 0.84767 0.0
C1085 C 0.46521 0.068 0.88504 0.0
C1086 C 0.52279 0.06859 0.93832 0.0
C1087 C 0.49693 0.07625 0.89711 0.0
C1088 C 0.5383 0.06379 0.92953 0.0
C1089 C 0.54569 0.06693 0.87992 0.0
C1090 C 0.51446 0.07614 0.89643 0.0
C1091 C 0.53774 0.07635 0.84198 0.0
C1092 C 0.48819 0.08243 0.85353 0.0
C1093 C 0.47385 0.06353 0.93095 0.0
N1094 N 0.52234 0.08024 0.85031 0.0
N1095 N 0.48931 0.06745 0.93521 0.0
H1096 H 0.17956 0.79136 0.01976 0.0
H1097 H 0.20285 0.71348 0.86464 0.0
H1098 H 0.20371 0.78929 0.86625 0.0
H1099 H 0.18086 0.71371 0.02205 0.0
H1100 H 0.19512 0.74096 0.85208 0.0
H1101 H 0.17215 0.7635 0.00918 0.0
C1102 C 0.18275 0.78522 0.98285 0.0
C1103 C 0.19247 0.7925 0.94419 0.0
C1104 C 0.19161 0.73497 0.88894 0.0
C1105 C 0.1843 0.7607 0.9322 0.0
C1106 C 0.19596 0.71923 0.89592 0.0
C1107 C 0.19265 0.71144 0.94469 0.0
C1108 C 0.18434 0.74314 0.93179 0.0
C1109 C 0.18366 0.71937 0.98389 0.0
C1110 C 0.17864 0.76928 0.97703 0.0
C1111 C 0.1964 0.78401 0.89736 0.0
N1112 N 0.18018 0.73496 0.97726 0.0
N1113 N 0.19254 0.76851 0.89311 0.0
H1114 H 0.45941 0.92985 0.29168 0.0
H1115 H 0.53765 0.94593 0.1282 0.0
H1116 H 0.46247 0.95222 0.13515 0.0
H1117 H 0.53673 0.92904 0.29293 0.0
H1118 H 0.50993 0.93885 0.11853 0.0
H1119 H 0.48668 0.92058 0.28117 0.0
C1120 C 0.4656 0.93225 0.25417 0.0
C1121 C 0.45884 0.94201 0.21453 0.0
C1122 C 0.51583 0.93629 0.15647 0.0
C1123 C 0.48995 0.9317 0.20256 0.0
C1124 C 0.53169 0.94026 0.16184 0.0
C1125 C 0.53936 0.9383 0.21168 0.0
C1126 C 0.50744 0.93076 0.20178 0.0
C1127 C 0.53117 0.93082 0.2539 0.0
C1128 C 0.48121 0.92708 0.24837 0.0
C1129 C 0.46738 0.9449 0.16695 0.0
N1130 N 0.51549 0.92772 0.24854 0.0
N1131 N 0.48255 0.94 0.16267 0.0
H1132 H 0.32451 0.21365 0.53393 0.0
H1133 H 0.30194 0.28933 0.36543 0.0
H1134 H 0.29993 0.21378 0.38108 0.0
H1135 H 0.32385 0.29113 0.52285 0.0
H1136 H 0.30955 0.26167 0.3574 0.0
H1137 H 0.33235 0.24118 0.51803 0.0
C1138 C 0.3213 0.21928 0.49609 0.0
C1139 C 0.31135 0.21159 0.45913 0.0
C1140 C 0.31307 0.26815 0.39325 0.0
C1141 C 0.32002 0.243 0.44105 0.0
C1142 C 0.3088 0.28398 0.39762 0.0
C1143 C 0.31208 0.2924 0.44516 0.0
C1144 C 0.32023 0.26053 0.43749 0.0
C1145 C 0.32105 0.28498 0.48561 0.0
C1146 C 0.32566 0.23503 0.4872 0.0
C1147 C 0.30741 0.21941 0.41095 0.0
N1148 N 0.32443 0.2693 0.48157 0.0
N1149 N 0.31153 0.23475 0.40373 0.0
H1150 H 0.96737 0.05397 0.62054 0.0
H1151 H 0.04426 0.07767 0.77843 0.0
H1152 H 0.96684 0.07653 0.77702 0.0
H1153 H 0.04304 0.05487 0.62233 0.0
H1154 H 0.01645 0.08497 0.7672 0.0
H1155 H 0.99472 0.06208 0.60855 0.0
C1156 C 0.97293 0.06106 0.65171 0.0
C1157 C 0.96496 0.06443 0.70007 0.0
C1158 C 0.0224 0.0788 0.73466 0.0
C1159 C 0.99652 0.07316 0.6879 0.0
C1160 C 0.03832 0.07475 0.74088 0.0
C1161 C 0.04581 0.06541 0.70164 0.0
C1162 C 0.01406 0.07344 0.68892 0.0
C1163 C 0.03758 0.06186 0.65394 0.0
C1164 C 0.98859 0.06563 0.64507 0.0
C1165 C 0.97264 0.07367 0.73917 0.0
N1166 N 0.02209 0.06562 0.64935 0.0
N1167 N 0.98817 0.07735 0.73294 0.0
H1168 H 0.81271 0.71834 0.86656 0.0
H1169 H 0.82902 0.79725 0.02651 0.0
H1170 H 0.83115 0.71984 0.02919 0.0
H1171 H 0.80513 0.79352 0.87292 0.0
H1172 H 0.83863 0.77008 0.01542 0.0
H1173 H 0.81921 0.74621 0.85551 0.0
C1174 C 0.8186 0.72447 0.89938 0.0
C1175 C 0.82118 0.71691 0.94912 0.0
C1176 C 0.83172 0.77539 0.98334 0.0
C1177 C 0.82804 0.74898 0.93773 0.0
C1178 C 0.82635 0.79094 0.98945 0.0
C1179 C 0.81609 0.79747 0.95089 0.0
C1180 C 0.82679 0.76648 0.93829 0.0
C1181 C 0.81285 0.78879 0.90389 0.0
C1182 C 0.82223 0.74041 0.89324 0.0
C1183 C 0.82891 0.72531 0.99028 0.0
N1184 N 0.81797 0.77367 0.89932 0.0
N1185 N 0.83167 0.74106 0.98426 0.0
H1186 H 0.69445 0.22011 0.37222 0.0
H1187 H 0.67636 0.29799 0.53581 0.0
H1188 H 0.6756 0.22051 0.53438 0.0
H1189 H 0.70028 0.29543 0.38194 0.0
H1190 H 0.66737 0.27065 0.52344 0.0
H1191 H 0.68743 0.24788 0.36245 0.0
C1192 C 0.68835 0.22596 0.40517 0.0
C1193 C 0.68581 0.21813 0.45442 0.0
C1194 C 0.67416 0.27625 0.49161 0.0
C1195 C 0.67836 0.25011 0.44457 0.0
C1196 C 0.67918 0.29188 0.49847 0.0
C1197 C 0.68928 0.29881 0.46019 0.0
C1198 C 0.67926 0.26764 0.44609 0.0
C1199 C 0.6927 0.29039 0.41276 0.0
C1200 C 0.68443 0.24186 0.39978 0.0
C1201 C 0.67782 0.22619 0.49581 0.0
N1202 N 0.68792 0.27518 0.40746 0.0
N1203 N 0.67477 0.24191 0.49056 0.0
H1204 H 0.81009 0.28833 0.20607 0.0
H1205 H 0.82948 0.21235 0.03744 0.0
H1206 H 0.82878 0.28944 0.04378 0.0
H1207 H 0.80935 0.21297 0.19777 0.0
H1208 H 0.83796 0.23981 0.04989 0.0
H1209 H 0.81873 0.261 0.21497 0.0
C1210 C 0.8165 0.28292 0.17291 0.0
C1211 C 0.81856 0.29101 0.12392 0.0
C1212 C 0.83217 0.23378 0.08308 0.0
C1213 C 0.82781 0.25947 0.13262 0.0
C1214 C 0.82747 0.21805 0.07615 0.0
C1215 C 0.81848 0.21055 0.11635 0.0
C1216 C 0.82781 0.24192 0.13048 0.0
C1217 C 0.81606 0.21846 0.16551 0.0
C1218 C 0.82135 0.26727 0.17778 0.0
C1219 C 0.82694 0.28353 0.08218 0.0
N1220 N 0.82042 0.23379 0.1708 0.0
N1221 N 0.83086 0.26799 0.08684 0.0
H1222 H 0.6807 0.71137 0.54608 0.0
H1223 H 0.70309 0.78889 0.70355 0.0
H1224 H 0.70562 0.71323 0.69815 0.0
H1225 H 0.67962 0.7888 0.54866 0.0
H1226 H 0.69603 0.76121 0.71566 0.0
H1227 H 0.6724 0.73886 0.55942 0.0
C1228 C 0.68388 0.71736 0.5833 0.0
C1229 C 0.69409 0.71019 0.62065 0.0
C1230 C 0.69207 0.76727 0.67948 0.0
C1231 C 0.68493 0.74157 0.63572 0.0
C1232 C 0.69605 0.78311 0.67273 0.0
C1233 C 0.69214 0.79101 0.6247 0.0
C1234 C 0.68456 0.75912 0.63709 0.0
C1235 C 0.68293 0.78305 0.58618 0.0
C1236 C 0.67926 0.7331 0.5907 0.0
C1237 C 0.69796 0.71846 0.66798 0.0
N1238 N 0.67981 0.76738 0.59248 0.0
N1239 N 0.69362 0.73379 0.67369 0.0
H1240 H 0.53662 0.43959 0.9712 0.0
H1241 H 0.46228 0.42426 0.78549 0.0
H1242 H 0.53957 0.42514 0.80405 0.0
H1243 H 0.46199 0.44687 0.94189 0.0
H1244 H 0.48937 0.41521 0.80271 0.0
H1245 H 0.50882 0.43224 0.97218 0.0
C1246 C 0.53151 0.43436 0.93518 0.0
C1247 C 0.54028 0.43323 0.88721 0.0
C1248 C 0.48318 0.42171 0.83395 0.0
C1249 C 0.50831 0.42539 0.88728 0.0
C1250 C 0.4677 0.42676 0.82431 0.0
C1251 C 0.46005 0.43647 0.86214 0.0
C1252 C 0.49089 0.42637 0.88183 0.0
C1253 C 0.46759 0.43955 0.9115 0.0
C1254 C 0.5156 0.43026 0.9356 0.0
C1255 C 0.53314 0.42629 0.84177 0.0
N1256 N 0.48266 0.43471 0.9196 0.0
N1257 N 0.51741 0.42304 0.84239 0.0
H1258 H 0.96504 0.57759 0.28671 0.0
H1259 H 0.04269 0.55726 0.44415 0.0
H1260 H 0.96717 0.55836 0.44827 0.0
H1261 H 0.04227 0.57708 0.28336 0.0
H1262 H 0.01548 0.56579 0.45671 0.0
H1263 H 0.99278 0.58548 0.2946 0.0
C1264 C 0.97116 0.57562 0.32466 0.0
C1265 C 0.96396 0.56704 0.36654 0.0
C1266 C 0.02138 0.56867 0.41905 0.0
C1267 C 0.99565 0.57572 0.37552 0.0
C1268 C 0.03696 0.56387 0.41209 0.0
C1269 C 0.0446 0.56634 0.3625 0.0
C1270 C 0.01319 0.57548 0.37535 0.0
C1271 C 0.03672 0.57495 0.3222 0.0
C1272 C 0.98704 0.58 0.329 0.0
C1273 C 0.97241 0.56471 0.41469 0.0
N1274 N 0.02125 0.57882 0.32888 0.0
N1275 N 0.98787 0.56873 0.41747 0.0
H1276 H 0.96276 0.4449 0.62122 0.0
H1277 H 0.04222 0.42546 0.77296 0.0
H1278 H 0.96488 0.42507 0.78186 0.0
H1279 H 0.038 0.4504 0.62137 0.0
H1280 H 0.01475 0.41666 0.76367 0.0
H1281 H 0.9903 0.43771 0.60716 0.0
C1282 C 0.96892 0.43851 0.65285 0.0
C1283 C 0.96167 0.43575 0.70298 0.0
C1284 C 0.02 0.42365 0.73164 0.0
C1285 C 0.99341 0.42816 0.68832 0.0
C1286 C 0.0357 0.42857 0.73674 0.0
C1287 C 0.04223 0.43888 0.69827 0.0
C1288 C 0.01092 0.42905 0.68766 0.0
C1289 C 0.03329 0.44266 0.65233 0.0
C1290 C 0.98469 0.43452 0.64505 0.0
C1291 C 0.97012 0.42744 0.74266 0.0
N1292 N 0.01804 0.43796 0.64872 0.0
N1293 N 0.98573 0.42434 0.73511 0.0
H1294 H 0.46671 0.55322 0.12372 0.0
H1295 H 0.54476 0.56241 0.14974 0.0
H1296 H 0.46081 0.57742 0.27589 0.0
H1297 H 0.53434 0.57343 0.3162 0.0
H1298 H 0.51811 0.57027 0.1245 0.0
H1299 H 0.494 0.56137 0.12124 0.0
C1300 C 0.4711 0.56078 0.15578 0.0
C1301 C 0.46157 0.56448 0.20036 0.0
C1302 C 0.52151 0.57107 0.16661 0.0
C1303 C 0.49321 0.57385 0.19873 0.0
C1304 C 0.5369 0.56692 0.18072 0.0
C1305 C 0.54163 0.56721 0.23504 0.0
C1306 C 0.51056 0.57472 0.2077 0.0
C1307 C 0.53108 0.57308 0.27379 0.0
C1308 C 0.48682 0.56554 0.15445 0.0
C1309 C 0.46781 0.57429 0.2408 0.0
N1310 N 0.51588 0.57621 0.25961 0.0
N1311 N 0.48337 0.57827 0.23979 0.0
H1312 H 0.21018 0.1364 0.22539 0.0
H1313 H 0.24778 0.13409 0.46032 0.0
H1314 H 0.25608 0.14119 0.15264 0.0
H1315 H 0.29057 0.13934 0.36838 0.0
H1316 H 0.23477 0.12325 0.38119 0.0
H1317 H 0.22233 0.12445 0.3048 0.0
C1318 C 0.22279 0.1344 0.22552 0.0
C1319 C 0.23222 0.14022 0.1835 0.0
C1320 C 0.24707 0.12637 0.37778 0.0
C1321 C 0.2465 0.12719 0.2751 0.0
C1322 C 0.25459 0.13235 0.42364 0.0
C1323 C 0.27012 0.13792 0.42027 0.0
C1324 C 0.25504 0.12653 0.32778 0.0
C1325 C 0.2785 0.13532 0.37233 0.0
C1326 C 0.22988 0.12774 0.27141 0.0
C1327 C 0.24847 0.13724 0.18518 0.0
N1328 N 0.27071 0.13027 0.3274 0.0
N1329 N 0.25512 0.13129 0.23075 0.0
H1330 H 0.11965 0.96119 0.45952 0.0
H1331 H 0.11919 0.04271 0.60964 0.0
H1332 H 0.11577 0.0067 0.38246 0.0
H1333 H 0.11665 0.99714 0.68692 0.0
H1334 H 0.12937 0.02996 0.52764 0.0
H1335 H 0.12997 0.97415 0.5409 0.0
C1336 C 0.12157 0.97383 0.45898 0.0
C1337 C 0.11645 0.98297 0.41506 0.0
C1338 C 0.12708 0.0228 0.56315 0.0
C1339 C 0.12786 0.99788 0.50787 0.0
C1340 C 0.12139 0.03011 0.61008 0.0
C1341 C 0.11668 0.02087 0.65429 0.0
C1342 C 0.12792 0.00619 0.56079 0.0
C1343 C 0.11978 0.0046 0.65293 0.0
C1344 C 0.12735 0.98127 0.50555 0.0
C1345 C 0.11921 0.9993 0.41625 0.0
N1346 N 0.12485 0.99772 0.60646 0.0
N1347 N 0.12438 0.00629 0.46241 0.0
H1348 H 0.21276 0.86712 0.85062 0.0
H1349 H 0.29369 0.86668 0.70463 0.0
H1350 H 0.25805 0.86693 0.92959 0.0
H1351 H 0.24839 0.86408 0.62619 0.0
H1352 H 0.28101 0.87867 0.7838 0.0
H1353 H 0.2252 0.87801 0.76917 0.0
C1354 C 0.22519 0.87006 0.8516 0.0
C1355 C 0.23453 0.86574 0.89596 0.0
C1356 C 0.2739 0.876 0.74853 0.0
C1357 C 0.24891 0.87762 0.803 0.0
C1358 C 0.28119 0.86926 0.7032 0.0
C1359 C 0.27195 0.86397 0.65986 0.0
C1360 C 0.25732 0.87718 0.75025 0.0
C1361 C 0.25582 0.86763 0.65975 0.0
C1362 C 0.23236 0.87615 0.80496 0.0
C1363 C 0.25057 0.86977 0.89539 0.0
N1364 N 0.24893 0.87362 0.70486 0.0
N1365 N 0.25735 0.87509 0.84908 0.0
H1366 H 0.38944 0.04873 0.9741 0.0
H1367 H 0.38605 0.96723 0.1187 0.0
H1368 H 0.39007 0.00347 0.89447 0.0
H1369 H 0.38883 0.01235 0.19869 0.0
H1370 H 0.37574 0.98044 0.03774 0.0
H1371 H 0.37752 0.03626 0.05387 0.0
C1372 C 0.38642 0.03631 0.97257 0.0
C1373 C 0.39109 0.02699 0.92858 0.0
C1374 C 0.37805 0.98741 0.07366 0.0
C1375 C 0.37798 0.01258 0.01961 0.0
C1376 C 0.3838 0.97982 0.12002 0.0
C1377 C 0.38864 0.98882 0.16457 0.0
C1378 C 0.37741 0.00404 0.07216 0.0
C1379 C 0.38553 0.00508 0.16438 0.0
C1380 C 0.37973 0.02913 0.01824 0.0
C1381 C 0.38694 0.01095 0.92842 0.0
N1382 N 0.3805 0.01225 0.11836 0.0
N1383 N 0.38099 0.00416 0.9738 0.0
H1384 H 0.7875 0.87185 0.86358 0.0
H1385 H 0.70665 0.86604 0.7173 0.0
H1386 H 0.7427 0.8634 0.94069 0.0
H1387 H 0.75172 0.87049 0.63833 0.0
H1388 H 0.71814 0.87723 0.79981 0.0
H1389 H 0.77362 0.88322 0.78564 0.0
C1390 C 0.77479 0.87297 0.86497 0.0
C1391 C 0.76616 0.86627 0.90752 0.0
C1392 C 0.7254 0.87634 0.76383 0.0
C1393 C 0.75022 0.87884 0.81866 0.0
C1394 C 0.71876 0.8701 0.71656 0.0
C1395 C 0.72841 0.86698 0.67182 0.0
C1396 C 0.74177 0.87917 0.76599 0.0
C1397 C 0.74403 0.87241 0.67277 0.0
C1398 C 0.76683 0.87938 0.8204 0.0
C1399 C 0.74972 0.86806 0.90768 0.0
N1400 N 0.75037 0.87784 0.71965 0.0
N1401 N 0.74225 0.87382 0.86332 0.0
H1402 H 0.88992 0.04348 0.60892 0.0
H1403 H 0.89019 0.96201 0.46511 0.0
H1404 H 0.8913 0.99828 0.68888 0.0
H1405 H 0.89247 0.00723 0.38551 0.0
H1406 H 0.87855 0.97486 0.54462 0.0
H1407 H 0.87874 0.0307 0.52858 0.0
C1408 C 0.88721 0.03099 0.61037 0.0
C1409 C 0.89194 0.02179 0.6546 0.0
C1410 C 0.88107 0.98192 0.50904 0.0
C1411 C 0.87969 0.00704 0.56295 0.0
C1412 C 0.88759 0.97453 0.46354 0.0
C1413 C 0.89267 0.9837 0.41971 0.0
C1414 C 0.87988 0.99852 0.51041 0.0
C1415 C 0.88905 0.99986 0.41942 0.0
C1416 C 0.88094 0.02364 0.56439 0.0
C1417 C 0.88816 0.00567 0.6547 0.0
N1418 N 0.88325 0.00684 0.46466 0.0
N1419 N 0.88265 0.99871 0.609 0.0
H1420 H 0.78807 0.13927 0.20475 0.0
H1421 H 0.70692 0.14493 0.35727 0.0
H1422 H 0.74299 0.14803 0.12989 0.0
H1423 H 0.75275 0.14571 0.43264 0.0
H1424 H 0.71897 0.13415 0.27483 0.0
H1425 H 0.77441 0.12975 0.28599 0.0
C1426 C 0.77532 0.13862 0.20467 0.0
C1427 C 0.7666 0.14487 0.16146 0.0
C1428 C 0.72631 0.13617 0.31007 0.0
C1429 C 0.75096 0.13429 0.25398 0.0
C1430 C 0.71941 0.14221 0.3572 0.0
C1431 C 0.72897 0.14657 0.40095 0.0
C1432 C 0.74283 0.13462 0.30713 0.0
C1433 C 0.74507 0.14283 0.39901 0.0
C1434 C 0.76751 0.13327 0.25111 0.0
C1435 C 0.75011 0.1437 0.16316 0.0
N1436 N 0.75157 0.13739 0.35239 0.0
N1437 N 0.7428 0.13888 0.20918 0.0
H1438 H 0.61723 1.00052 0.18614 0.0
H1439 H 0.60822 0.99167 0.87603 0.0
H1440 H 0.60988 0.95619 0.10455 0.0
H1441 H 0.61758 0.03571 0.95746 0.0
H1442 H 0.61845 0.9774 0.95429 0.0
H1443 H 0.62737 0.0118 0.10215 0.0
C1444 C 0.61839 0.99298 0.15087 0.0
C1445 C 0.61249 0.97752 0.1517 0.0
C1446 C 0.6187 0.99019 0.9547 0.0
C1447 C 0.62331 0.99052 0.05488 0.0
C1448 C 0.61286 0.99835 0.90994 0.0
C1449 C 0.61165 0.01487 0.91109 0.0
C1450 C 0.62294 0.99862 0.00146 0.0
C1451 C 0.61808 0.02295 0.95539 0.0
C1452 C 0.62407 0.99945 0.10275 0.0
C1453 C 0.61424 0.96821 0.10526 0.0
N1454 N 0.62303 0.01473 -0.00042 0.0
N1455 N 0.61904 0.975 0.0581 0.0
H1456 H 0.80254 0.6433 0.85292 0.0
H1457 H 0.72193 0.6367 0.69957 0.0
H1458 H 0.75665 0.64227 0.92779 0.0
H1459 H 0.76707 0.64535 0.62491 0.0
H1460 H 0.73551 0.62694 0.78051 0.0
H1461 H 0.79098 0.63228 0.7701 0.0
C1462 C 0.79017 0.64013 0.85265 0.0
C1463 C 0.78041 0.64408 0.89637 0.0
C1464 C 0.74245 0.6305 0.74574 0.0
C1465 C 0.76707 0.63186 0.80207 0.0
C1466 C 0.73468 0.63598 0.69943 0.0
C1467 C 0.74343 0.64231 0.65643 0.0
C1468 C 0.75901 0.6315 0.74877 0.0
C1469 C 0.75992 0.641 0.65807 0.0
C1470 C 0.78353 0.63395 0.80529 0.0
C1471 C 0.76446 0.63974 0.89418 0.0
N1472 N 0.7672 0.63611 0.70405 0.0
N1473 N 0.7582 0.6342 0.84733 0.0
H1474 H 0.60372 0.49188 0.23645 0.0
H1475 H 0.6147 0.49964 0.92667 0.0
H1476 H 0.61359 0.53575 0.15459 0.0
H1477 H 0.60834 0.45535 0.00958 0.0
H1478 H 0.62375 0.51158 0.01103 0.0
H1479 H 0.61439 0.47745 0.15929 0.0
C1480 C 0.60853 0.49848 0.20264 0.0
C1481 C 0.60739 0.515 0.20106 0.0
C1482 C 0.62091 0.49912 0.01071 0.0
C1483 C 0.61923 0.49856 0.11193 0.0
C1484 C 0.61585 0.49228 0.96239 0.0
C1485 C 0.61057 0.4766 0.9617 0.0
C1486 C 0.62013 0.49032 0.05888 0.0
C1487 C 0.61225 0.46752 0.00873 0.0
C1488 C 0.61464 0.49023 0.15854 0.0
C1489 C 0.61405 0.52299 0.15696 0.0
N1490 N 0.61643 0.47465 0.05599 0.0
N1491 N 0.61928 0.51468 0.11336 0.0
H1492 H 0.7575 0.37159 0.45119 0.0
H1493 H 0.79489 0.3684 0.21483 0.0
H1494 H 0.71394 0.36977 0.362 0.0
H1495 H 0.74869 0.35972 0.14875 0.0
H1496 H 0.78272 0.38181 0.29187 0.0
H1497 H 0.77111 0.38034 0.37039 0.0
C1498 C 0.75069 0.37374 0.41476 0.0
C1499 C 0.73469 0.36963 0.41269 0.0
C1500 C 0.77514 0.37716 0.26053 0.0
C1501 C 0.75029 0.37898 0.31852 0.0
C1502 C 0.78219 0.3697 0.216 0.0
C1503 C 0.77272 0.36248 0.17671 0.0
C1504 C 0.75855 0.37707 0.26571 0.0
C1505 C 0.75636 0.3647 0.17939 0.0
C1506 C 0.75852 0.37864 0.36801 0.0
C1507 C 0.72634 0.37267 0.36498 0.0
N1508 N 0.74979 0.37148 0.2237 0.0
N1509 N 0.73435 0.37669 0.31923 0.0
H1510 H 0.89387 0.50726 0.69923 0.0
H1511 H 0.89173 0.49843 0.38772 0.0
H1512 H 0.89 0.46276 0.61565 0.0
H1513 H 0.89327 0.54307 0.47114 0.0
H1514 H 0.88119 0.48602 0.46921 0.0
H1515 H 0.88386 0.52075 0.61901 0.0
C1516 C 0.89041 0.50028 0.66439 0.0
C1517 C 0.89313 0.48395 0.66334 0.0
C1518 C 0.88333 0.49863 0.46948 0.0
C1519 C 0.8822 0.49933 0.57077 0.0
C1520 C 0.88927 0.50572 0.42281 0.0
C1521 C 0.89362 0.52169 0.42335 0.0
C1522 C 0.88226 0.50748 0.51744 0.0
C1523 C 0.89016 0.53068 0.46942 0.0
C1524 C 0.88473 0.50799 0.61849 0.0
C1525 C 0.88827 0.47541 0.61773 0.0
N1526 N 0.88512 0.52334 0.51533 0.0
N1527 N 0.88347 0.48327 0.57254 0.0
H1528 H 0.25466 0.36653 0.11974 0.0
H1529 H 0.24732 0.36841 0.43192 0.0
H1530 H 0.21088 0.36608 0.20817 0.0
H1531 H 0.29104 0.36543 0.34374 0.0
H1532 H 0.23455 0.37942 0.3518 0.0
H1533 H 0.26783 0.37794 0.19839 0.0
C1534 C 0.2477 0.36944 0.15521 0.0
C1535 C 0.23177 0.36507 0.1582 0.0
C1536 C 0.24706 0.3769 0.35027 0.0
C1537 C 0.24686 0.37748 0.24898 0.0
C1538 C 0.25438 0.37071 0.39615 0.0
C1539 C 0.27013 0.36575 0.39377 0.0
C1540 C 0.25548 0.37764 0.30136 0.0
C1541 C 0.27881 0.369 0.34687 0.0
C1542 C 0.25524 0.37588 0.20023 0.0
C1543 C 0.22323 0.36916 0.20462 0.0
N1544 N 0.27124 0.3743 0.30179 0.0
N1545 N 0.23099 0.37469 0.24897 0.0
H1546 H 0.38883 0.50569 0.86345 0.0
H1547 H 0.3848 0.50047 0.17679 0.0
H1548 H 0.38761 0.46242 0.95506 0.0
H1549 H 0.38995 0.54352 0.08568 0.0
H1550 H 0.37423 0.48745 0.09642 0.0
H1551 H 0.37774 0.51975 0.94085 0.0
C1552 C 0.38564 0.49905 0.89938 0.0
C1553 C 0.3894 0.48298 0.90357 0.0
C1554 C 0.37712 0.49989 0.09424 0.0
C1555 C 0.37733 0.49906 0.99292 0.0
C1556 C 0.38304 0.50736 0.14026 0.0
C1557 C 0.38845 0.52298 0.13729 0.0
C1558 C 0.37708 0.50802 0.04466 0.0
C1559 C 0.38596 0.53142 0.08933 0.0
C1560 C 0.37938 0.5071 0.94368 0.0
C1561 C 0.38498 0.47486 0.95057 0.0
N1562 N 0.38089 0.52369 0.04426 0.0
N1563 N 0.37961 0.4831 0.99418 0.0
H1564 H 0.25657 0.63483 0.93835 0.0
H1565 H 0.24894 0.6338 0.62634 0.0
H1566 H 0.21286 0.63731 0.85002 0.0
H1567 H 0.29272 0.63568 0.71452 0.0
H1568 H 0.23596 0.62284 0.70615 0.0
H1569 H 0.26924 0.62295 0.85951 0.0
C1570 C 0.24949 0.63225 0.90288 0.0
C1571 C 0.23378 0.63732 0.89995 0.0
C1572 C 0.24853 0.6251 0.70771 0.0
C1573 C 0.24831 0.62441 0.80897 0.0
C1574 C 0.25596 0.63127 0.66201 0.0
C1575 C 0.2718 0.63595 0.66456 0.0
C1576 C 0.25693 0.62409 0.75659 0.0
C1577 C 0.28043 0.63236 0.71129 0.0
C1578 C 0.25675 0.62555 0.85774 0.0
C1579 C 0.22506 0.63368 0.8535 0.0
N1580 N 0.27275 0.62709 0.75622 0.0
N1581 N 0.23258 0.62788 0.80905 0.0
H1582 H 0.11812 0.54336 0.45951 0.0
H1583 H 0.11686 0.46113 0.59968 0.0
H1584 H 0.11685 0.49859 0.37685 0.0
H1585 H 0.11505 0.50597 0.68182 0.0
H1586 H 0.12839 0.47429 0.52054 0.0
H1587 H 0.12865 0.53006 0.53996 0.0
C1588 C 0.12074 0.53085 0.45754 0.0
C1589 C 0.11626 0.52194 0.41236 0.0
C1590 C 0.12599 0.48119 0.55657 0.0
C1591 C 0.12774 0.50659 0.50413 0.0
C1592 C 0.11953 0.47362 0.60185 0.0
C1593 C 0.11465 0.4826 0.64641 0.0
C1594 C 0.12733 0.49779 0.55615 0.0
C1595 C 0.11834 0.49874 0.64742 0.0
C1596 C 0.12662 0.5232 0.50359 0.0
C1597 C 0.11985 0.50577 0.41167 0.0
N1598 N 0.12409 0.5059 0.60242 0.0
N1599 N 0.12499 0.49853 0.45739 0.0
loop_
_geom_bond_atom_site_label_1
_geom_bond_atom_site_label_2
_geom_bond_distance
_geom_bond_site_symmetry_2
_ccdc_geom_bond_type
Zn0 O3 2.031 . S
Zn0 O5 2.049 1_554 S
Zn0 O10 2.067 . S
Zn1 O2 1.962 . S
Zn1 O4 1.986 1_554 S
Zn1 O6 1.996 1_554 S
Zn1 O9 1.943 . S
O2 Zn1 1.962 . S
O2 C7 1.254 . S
O3 Zn0 2.031 . S
O3 C7 1.269 . S
O4 Zn1 1.986 1_556 S
O4 C11 1.262 1_556 S
O5 Zn0 2.049 1_556 S
O5 C13 1.260 . S
O6 Zn1 1.996 1_556 S
O6 C13 1.257 . S
C7 O2 1.254 . S
C7 O3 1.269 . S
C8 O9 1.249 . S
C8 O10 1.270 . S
O9 Zn1 1.943 . S
O9 C8 1.249 . S
O10 Zn0 2.067 . S
O10 C8 1.270 . S
C11 O4 1.262 1_554 S
C11 O12 1.232 . S
O12 C11 1.232 . S
C13 O5 1.260 . S
C13 O6 1.257 . S
Zn14 O17 2.031 . S
Zn14 O19 2.049 . S
Zn14 O24 2.067 . S
Zn15 O16 1.962 . S
Zn15 O18 1.986 . S
Zn15 O20 1.996 . S
Zn15 O23 1.943 . S
O16 Zn15 1.962 . S
O16 C21 1.254 . S
O17 Zn14 2.031 . S
O17 C21 1.269 . S
O18 Zn15 1.986 . S
O18 C25 1.262 . S
O19 Zn14 2.049 . S
O19 C27 1.260 . S
O20 Zn15 1.996 . S
O20 C27 1.257 . S
C21 O16 1.254 . S
C21 O17 1.269 . S
C22 O23 1.249 . S
C22 O24 1.270 . S
O23 Zn15 1.943 . S
O23 C22 1.249 . S
O24 Zn14 2.067 . S
O24 C22 1.270 . S
C25 O18 1.262 . S
C25 O26 1.232 . S
O26 C25 1.232 . S
C27 O19 1.260 . S
C27 O20 1.257 . S
Zn28 O31 2.031 . S
Zn28 O33 2.049 . S
Zn28 O38 2.067 . S
Zn29 O30 1.962 . S
Zn29 O32 1.986 . S
Zn29 O34 1.996 . S
Zn29 O37 1.943 . S
O30 Zn29 1.962 . S
O30 C35 1.254 . S
O31 Zn28 2.031 . S
O31 C35 1.269 . S
O32 Zn29 1.986 . S
O32 C39 1.262 . S
O33 Zn28 2.049 . S
O33 C41 1.260 . S
O34 Zn29 1.996 . S
O34 C41 1.257 . S
C35 O30 1.254 . S
C35 O31 1.269 . S
C36 O37 1.249 . S
C36 O38 1.270 . S
O37 Zn29 1.943 . S
O37 C36 1.249 . S
O38 Zn28 2.067 . S
O38 C36 1.270 . S
C39 O32 1.262 . S
C39 O40 1.232 . S
O40 C39 1.232 . S
C41 O33 1.260 . S
C41 O34 1.257 . S
Zn42 O45 2.031 . S
Zn42 O47 2.049 . S
Zn42 O52 2.067 . S
Zn43 O44 1.962 . S
Zn43 O46 1.986 . S
Zn43 O48 1.996 . S
Zn43 O51 1.943 . S
O44 Zn43 1.962 . S
O44 C49 1.254 . S
O45 Zn42 2.031 . S
O45 C49 1.269 . S
O46 Zn43 1.986 . S
O46 C53 1.262 . S
O47 Zn42 2.049 . S
O47 C55 1.260 . S
O48 Zn43 1.996 . S
O48 C55 1.257 . S
C49 O44 1.254 . S
C49 O45 1.269 . S
C50 O51 1.249 . S
C50 O52 1.270 . S
O51 Zn43 1.943 . S
O51 C50 1.249 . S
O52 Zn42 2.067 . S
O52 C50 1.270 . S
C53 O46 1.262 . S
C53 O54 1.232 . S
O54 C53 1.232 . S
C55 O47 1.260 . S
C55 O48 1.257 . S
Zn56 O59 2.031 1_554 S
Zn56 O61 2.049 . S
Zn56 O66 2.067 . S
Zn57 O58 1.962 1_554 S
Zn57 O60 1.986 . S
Zn57 O62 1.996 . S
Zn57 O65 1.943 . S
O58 Zn57 1.962 1_556 S
O58 C63 1.254 . S
O59 Zn56 2.031 1_556 S
O59 C63 1.269 . S
O60 Zn57 1.986 . S
O60 C67 1.262 . S
O61 Zn56 2.049 . S
O61 C69 1.260 . S
O62 Zn57 1.996 . S
O62 C69 1.257 . S
C63 O58 1.254 . S
C63 O59 1.269 . S
C64 O65 1.249 . S
C64 O66 1.270 . S
O65 Zn57 1.943 . S
O65 C64 1.249 . S
O66 Zn56 2.067 . S
O66 C64 1.270 . S
C67 O60 1.262 . S
C67 O68 1.232 . S
O68 C67 1.232 . S
C69 O61 1.260 . S
C69 O62 1.257 . S
Zn70 O73 2.031 . S
Zn70 O75 2.049 . S
Zn70 O80 2.067 . S
Zn71 O72 1.962 . S
Zn71 O74 1.986 . S
Zn71 O76 1.996 . S
Zn71 O79 1.943 . S
O72 Zn71 1.962 . S
O72 C77 1.254 . S
O73 Zn70 2.031 . S
O73 C77 1.269 . S
O74 Zn71 1.986 . S
O74 C81 1.262 . S
O75 Zn70 2.049 . S
O75 C83 1.260 . S
O76 Zn71 1.996 . S
O76 C83 1.257 . S
C77 O72 1.254 . S
C77 O73 1.269 . S
C78 O79 1.249 . S
C78 O80 1.270 . S
O79 Zn71 1.943 . S
O79 C78 1.249 . S
O80 Zn70 2.067 . S
O80 C78 1.270 . S
C81 O74 1.262 . S
C81 O82 1.232 . S
O82 C81 1.232 . S
C83 O75 1.260 . S
C83 O76 1.257 . S
Zn84 O87 2.031 . S
Zn84 O89 2.049 . S
Zn84 O94 2.067 . S
Zn85 O86 1.962 . S
Zn85 O88 1.986 . S
Zn85 O90 1.996 . S
Zn85 O93 1.943 . S
O86 Zn85 1.962 . S
O86 C91 1.254 . S
O87 Zn84 2.031 . S
O87 C91 1.269 . S
O88 Zn85 1.986 . S
O88 C95 1.262 . S
O89 Zn84 2.049 . S
O89 C97 1.260 . S
O90 Zn85 1.996 . S
O90 C97 1.257 . S
C91 O86 1.254 . S
C91 O87 1.269 . S
C92 O93 1.249 . S
C92 O94 1.270 . S
O93 Zn85 1.943 . S
O93 C92 1.249 . S
O94 Zn84 2.067 . S
O94 C92 1.270 . S
C95 O88 1.262 . S
C95 O96 1.232 . S
O96 C95 1.232 . S
C97 O89 1.260 . S
C97 O90 1.257 . S
Zn98 O101 2.031 . S
Zn98 O103 2.049 . S
Zn98 O108 2.067 . S
Zn99 O100 1.962 . S
Zn99 O102 1.986 . S
Zn99 O104 1.996 . S
Zn99 O107 1.943 . S
O100 Zn99 1.962 . S
O100 C105 1.254 . S
O101 Zn98 2.031 . S
O101 C105 1.269 . S
O102 Zn99 1.986 . S
O102 C109 1.262 . S
O103 Zn98 2.049 . S
O103 C111 1.260 . S
O104 Zn99 1.996 . S
O104 C111 1.257 . S
C105 O100 1.254 . S
C105 O101 1.269 . S
C106 O107 1.249 . S
C106 O108 1.270 . S
O107 Zn99 1.943 . S
O107 C106 1.249 . S
O108 Zn98 2.067 . S
O108 C106 1.270 . S
C109 O102 1.262 . S
C109 O110 1.232 . S
O110 C109 1.232 . S
C111 O103 1.260 . S
C111 O104 1.257 . S
Zn112 O115 2.031 1_554 S
Zn112 O117 2.049 . S
Zn112 O122 2.067 . S
Zn113 O114 1.962 1_554 S
Zn113 O116 1.986 . S
Zn113 O118 1.996 . S
Zn113 O121 1.943 . S
O114 Zn113 1.962 1_556 S
O114 C119 1.254 . S
O115 Zn112 2.031 1_556 S
O115 C119 1.269 . S
O116 Zn113 1.986 . S
O116 C123 1.262 . S
O117 Zn112 2.049 . S
O117 C125 1.260 . S
O118 Zn113 1.996 . S
O118 C125 1.257 . S
C119 O114 1.254 . S
C119 O115 1.269 . S
C120 O121 1.249 . S
C120 O122 1.270 . S
O121 Zn113 1.943 . S
O121 C120 1.249 . S
O122 Zn112 2.067 . S
O122 C120 1.270 . S
C123 O116 1.262 . S
C123 O124 1.232 . S
O124 C123 1.232 . S
C125 O117 1.260 . S
C125 O118 1.257 . S
Zn126 O129 2.031 . S
Zn126 O131 2.049 . S
Zn126 O136 2.067 . S
Zn127 O128 1.962 . S
Zn127 O130 1.986 . S
Zn127 O132 1.996 . S
Zn127 O135 1.943 . S
O128 Zn127 1.962 . S
O128 C133 1.254 . S
O129 Zn126 2.031 . S
O129 C133 1.269 . S
O130 Zn127 1.986 . S
O130 C137 1.262 . S
O131 Zn126 2.049 . S
O131 C139 1.260 . S
O132 Zn127 1.996 . S
O132 C139 1.257 . S
C133 O128 1.254 . S
C133 O129 1.269 . S
C134 O135 1.249 . S
C134 O136 1.270 . S
O135 Zn127 1.943 . S
O135 C134 1.249 . S
O136 Zn126 2.067 . S
O136 C134 1.270 . S
C137 O130 1.262 . S
C137 O138 1.232 . S
O138 C137 1.232 . S
C139 O131 1.260 . S
C139 O132 1.257 . S
Zn140 O143 2.031 . S
Zn140 O145 2.049 . S
Zn140 O150 2.067 . S
Zn141 O142 1.962 . S
Zn141 O144 1.986 . S
Zn141 O146 1.996 . S
Zn141 O149 1.943 . S
O142 Zn141 1.962 . S
O142 C147 1.254 . S
O143 Zn140 2.031 . S
O143 C147 1.269 . S
O144 Zn141 1.986 . S
O144 C151 1.262 . S
O145 Zn140 2.049 . S
O145 C153 1.260 . S
O146 Zn141 1.996 . S
O146 C153 1.257 . S
C147 O142 1.254 . S
C147 O143 1.269 . S
C148 O149 1.249 . S
C148 O150 1.270 . S
O149 Zn141 1.943 . S
O149 C148 1.249 . S
O150 Zn140 2.067 . S
O150 C148 1.270 . S
C151 O144 1.262 . S
C151 O152 1.232 . S
O152 C151 1.232 . S
C153 O145 1.260 . S
C153 O146 1.257 . S
Zn154 O157 2.031 . S
Zn154 O159 2.049 . S
Zn154 O164 2.067 . S
Zn155 O156 1.962 . S
Zn155 O158 1.986 . S
Zn155 O160 1.996 . S
Zn155 O163 1.943 . S
O156 Zn155 1.962 . S
O156 C161 1.254 . S
O157 Zn154 2.031 . S
O157 C161 1.269 . S
O158 Zn155 1.986 . S
O158 C165 1.262 . S
O159 Zn154 2.049 . S
O159 C167 1.260 . S
O160 Zn155 1.996 . S
O160 C167 1.257 . S
C161 O156 1.254 . S
C161 O157 1.269 . S
C162 O163 1.249 . S
C162 O164 1.270 . S
O163 Zn155 1.943 . S
O163 C162 1.249 . S
O164 Zn154 2.067 . S
O164 C162 1.270 . S
C165 O158 1.262 . S
C165 O166 1.232 . S
O166 C165 1.232 . S
C167 O159 1.260 . S
C167 O160 1.257 . S
Zn168 O171 2.031 . S
Zn168 O173 2.049 1_554 S
Zn168 O178 2.067 . S
Zn169 O170 1.962 . S
Zn169 O172 1.986 1_554 S
Zn169 O174 1.996 1_554 S
Zn169 O177 1.943 . S
O170 Zn169 1.962 . S
O170 C175 1.254 . S
O171 Zn168 2.031 . S
O171 C175 1.269 . S
O172 Zn169 1.986 1_556 S
O172 C179 1.262 1_556 S
O173 Zn168 2.049 1_556 S
O173 C181 1.260 . S
O174 Zn169 1.996 1_556 S
O174 C181 1.257 . S
C175 O170 1.254 . S
C175 O171 1.269 . S
C176 O177 1.249 . S
C176 O178 1.270 . S
O177 Zn169 1.943 . S
O177 C176 1.249 . S
O178 Zn168 2.067 . S
O178 C176 1.270 . S
C179 O172 1.262 1_554 S
C179 O180 1.232 . S
O180 C179 1.232 . S
C181 O173 1.260 . S
C181 O174 1.257 . S
Zn182 O185 2.031 . S
Zn182 O187 2.049 . S
Zn182 O192 2.067 . S
Zn183 O184 1.962 . S
Zn183 O186 1.986 . S
Zn183 O188 1.996 . S
Zn183 O191 1.943 . S
O184 Zn183 1.962 . S
O184 C189 1.254 . S
O185 Zn182 2.031 . S
O185 C189 1.269 . S
O186 Zn183 1.986 . S
O186 C193 1.262 . S
O187 Zn182 2.049 . S
O187 C195 1.260 . S
O188 Zn183 1.996 . S
O188 C195 1.257 . S
C189 O184 1.254 . S
C189 O185 1.269 . S
C190 O191 1.249 . S
C190 O192 1.270 . S
O191 Zn183 1.943 . S
O191 C190 1.249 . S
O192 Zn182 2.067 . S
O192 C190 1.270 . S
C193 O186 1.262 . S
C193 O194 1.232 . S
O194 C193 1.232 . S
C195 O187 1.260 . S
C195 O188 1.257 . S
Zn196 O199 2.031 . S
Zn196 O201 2.049 . S
Zn196 O206 2.067 . S
Zn197 O198 1.962 . S
Zn197 O200 1.986 . S
Zn197 O202 1.996 . S
Zn197 O205 1.943 . S
O198 Zn197 1.962 . S
O198 C203 1.254 . S
O199 Zn196 2.031 . S
O199 C203 1.269 . S
O200 Zn197 1.986 . S
O200 C207 1.262 . S
O201 Zn196 2.049 . S
O201 C209 1.260 . S
O202 Zn197 1.996 . S
O202 C209 1.257 . S
C203 O198 1.254 . S
C203 O199 1.269 . S
C204 O205 1.249 . S
C204 O206 1.270 . S
O205 Zn197 1.943 . S
O205 C204 1.249 . S
O206 Zn196 2.067 . S
O206 C204 1.270 . S
C207 O200 1.262 . S
C207 O208 1.232 . S
O208 C207 1.232 . S
C209 O201 1.260 . S
C209 O202 1.257 . S
Zn210 O213 2.031 . S
Zn210 O215 2.049 . S
Zn210 O220 2.067 . S
Zn211 O212 1.962 . S
Zn211 O214 1.986 . S
Zn211 O216 1.996 . S
Zn211 O219 1.943 . S
O212 Zn211 1.962 . S
O212 C217 1.254 . S
O213 Zn210 2.031 . S
O213 C217 1.269 . S
O214 Zn211 1.986 . S
O214 C221 1.262 . S
O215 Zn210 2.049 . S
O215 C223 1.260 . S
O216 Zn211 1.996 . S
O216 C223 1.257 . S
C217 O212 1.254 . S
C217 O213 1.269 . S
C218 O219 1.249 . S
C218 O220 1.270 . S
O219 Zn211 1.943 . S
O219 C218 1.249 . S
O220 Zn210 2.067 . S
O220 C218 1.270 . S
C221 O214 1.262 . S
C221 O222 1.232 . S
O222 C221 1.232 . S
C223 O215 1.260 . S
C223 O216 1.257 . S
Zn224 O227 2.031 . S
Zn224 O229 2.049 . S
Zn224 O234 2.067 . S
Zn225 O226 1.962 . S
Zn225 O228 1.986 . S
Zn225 O230 1.996 . S
Zn225 O233 1.943 . S
O226 Zn225 1.962 . S
O226 C231 1.254 . S
O227 Zn224 2.031 . S
O227 C231 1.269 . S
O228 Zn225 1.986 . S
O228 C235 1.262 . S
O229 Zn224 2.049 . S
O229 C237 1.260 . S
O230 Zn225 1.996 . S
O230 C237 1.257 . S
C231 O226 1.254 . S
C231 O227 1.269 . S
C232 O233 1.249 . S
C232 O234 1.270 . S
O233 Zn225 1.943 . S
O233 C232 1.249 . S
O234 Zn224 2.067 . S
O234 C232 1.270 . S
C235 O228 1.262 . S
C235 O236 1.232 . S
O236 C235 1.232 . S
C237 O229 1.260 . S
C237 O230 1.257 . S
Zn238 O241 2.031 . S
Zn238 O243 2.049 . S
Zn238 O248 2.067 . S
Zn239 O240 1.962 . S
Zn239 O242 1.986 . S
Zn239 O244 1.996 . S
Zn239 O247 1.943 . S
O240 Zn239 1.962 . S
O240 C245 1.254 . S
O241 Zn238 2.031 . S
O241 C245 1.269 . S
O242 Zn239 1.986 . S
O242 C249 1.262 . S
O243 Zn238 2.049 . S
O243 C251 1.260 . S
O244 Zn239 1.996 . S
O244 C251 1.257 . S
C245 O240 1.254 . S
C245 O241 1.269 . S
C246 O247 1.249 . S
C246 O248 1.270 . S
O247 Zn239 1.943 . S
O247 C246 1.249 . S
O248 Zn238 2.067 . S
O248 C246 1.270 . S
C249 O242 1.262 . S
C249 O250 1.232 . S
O250 C249 1.232 . S
C251 O243 1.260 . S
C251 O244 1.257 . S
Zn252 O255 2.031 . S
Zn252 O257 2.049 1_554 S
Zn252 O262 2.067 . S
Zn253 O254 1.962 . S
Zn253 O256 1.986 1_554 S
Zn253 O258 1.996 1_554 S
Zn253 O261 1.943 . S
O254 Zn253 1.962 . S
O254 C259 1.254 . S
O255 Zn252 2.031 . S
O255 C259 1.269 . S
O256 Zn253 1.986 1_556 S
O256 C263 1.262 1_556 S
O257 Zn252 2.049 1_556 S
O257 C265 1.260 . S
O258 Zn253 1.996 1_556 S
O258 C265 1.257 . S
C259 O254 1.254 . S
C259 O255 1.269 . S
C260 O261 1.249 . S
C260 O262 1.270 . S
O261 Zn253 1.943 . S
O261 C260 1.249 . S
O262 Zn252 2.067 . S
O262 C260 1.270 . S
C263 O256 1.262 1_554 S
C263 O264 1.232 . S
O264 C263 1.232 . S
C265 O257 1.260 . S
C265 O258 1.257 . S
Zn266 O269 2.031 . S
Zn266 O271 2.049 . S
Zn266 O276 2.067 . S
Zn267 O268 1.962 . S
Zn267 O270 1.986 . S
Zn267 O272 1.996 . S
Zn267 O275 1.943 . S
O268 Zn267 1.962 . S
O268 C273 1.254 . S
O269 Zn266 2.031 . S
O269 C273 1.269 . S
O270 Zn267 1.986 . S
O270 C277 1.262 . S
O271 Zn266 2.049 . S
O271 C279 1.260 . S
O272 Zn267 1.996 . S
O272 C279 1.257 . S
C273 O268 1.254 . S
C273 O269 1.269 . S
C274 O275 1.249 . S
C274 O276 1.270 . S
O275 Zn267 1.943 . S
O275 C274 1.249 . S
O276 Zn266 2.067 . S
O276 C274 1.270 . S
C277 O270 1.262 . S
C277 O278 1.232 . S
O278 C277 1.232 . S
C279 O271 1.260 . S
C279 O272 1.257 . S
Zn280 O283 2.031 . S
Zn280 O285 2.049 . S
Zn280 O290 2.067 . S
Zn281 O282 1.962 . S
Zn281 O284 1.986 . S
Zn281 O286 1.996 . S
Zn281 O289 1.943 . S
O282 Zn281 1.962 . S
O282 C287 1.254 . S
O283 Zn280 2.031 . S
O283 C287 1.269 . S
O284 Zn281 1.986 . S
O284 C291 1.262 . S
O285 Zn280 2.049 . S
O285 C293 1.260 . S
O286 Zn281 1.996 . S
O286 C293 1.257 . S
C287 O282 1.254 . S
C287 O283 1.269 . S
C288 O289 1.249 . S
C288 O290 1.270 . S
O289 Zn281 1.943 . S
O289 C288 1.249 . S
O290 Zn280 2.067 . S
O290 C288 1.270 . S
C291 O284 1.262 . S
C291 O292 1.232 . S
O292 C291 1.232 . S
C293 O285 1.260 . S
C293 O286 1.257 . S
Zn294 O297 2.031 . S
Zn294 O299 2.049 . S
Zn294 O304 2.067 . S
Zn295 O296 1.962 . S
Zn295 O298 1.986 . S
Zn295 O300 1.996 . S
Zn295 O303 1.943 . S
O296 Zn295 1.962 . S
O296 C301 1.254 . S
O297 Zn294 2.031 . S
O297 C301 1.269 . S
O298 Zn295 1.986 . S
O298 C305 1.262 . S
O299 Zn294 2.049 . S
O299 C307 1.260 . S
O300 Zn295 1.996 . S
O300 C307 1.257 . S
C301 O296 1.254 . S
C301 O297 1.269 . S
C302 O303 1.249 . S
C302 O304 1.270 . S
O303 Zn295 1.943 . S
O303 C302 1.249 . S
O304 Zn294 2.067 . S
O304 C302 1.270 . S
C305 O298 1.262 . S
C305 O306 1.232 . S
O306 C305 1.232 . S
C307 O299 1.260 . S
C307 O300 1.257 . S
Zn308 O311 2.031 1_554 S
Zn308 O313 2.049 . S
Zn308 O318 2.067 . S
Zn309 O310 1.962 1_554 S
Zn309 O312 1.986 . S
Zn309 O314 1.996 . S
Zn309 O317 1.943 . S
O310 Zn309 1.962 1_556 S
O310 C315 1.254 . S
O311 Zn308 2.031 1_556 S
O311 C315 1.269 . S
O312 Zn309 1.986 . S
O312 C319 1.262 . S
O313 Zn308 2.049 . S
O313 C321 1.260 . S
O314 Zn309 1.996 . S
O314 C321 1.257 . S
C315 O310 1.254 . S
C315 O311 1.269 . S
C316 O317 1.249 . S
C316 O318 1.270 . S
O317 Zn309 1.943 . S
O317 C316 1.249 . S
O318 Zn308 2.067 . S
O318 C316 1.270 . S
C319 O312 1.262 . S
C319 O320 1.232 . S
O320 C319 1.232 . S
C321 O313 1.260 . S
C321 O314 1.257 . S
Zn322 O325 2.031 . S
Zn322 O327 2.049 . S
Zn322 O332 2.067 . S
Zn323 O324 1.962 . S
Zn323 O326 1.986 . S
Zn323 O328 1.996 . S
Zn323 O331 1.943 . S
O324 Zn323 1.962 . S
O324 C329 1.254 . S
O325 Zn322 2.031 . S
O325 C329 1.269 . S
O326 Zn323 1.986 . S
O326 C333 1.262 . S
O327 Zn322 2.049 . S
O327 C335 1.260 . S
O328 Zn323 1.996 . S
O328 C335 1.257 . S
C329 O324 1.254 . S
C329 O325 1.269 . S
C330 O331 1.249 . S
C330 O332 1.270 . S
O331 Zn323 1.943 . S
O331 C330 1.249 . S
O332 Zn322 2.067 . S
O332 C330 1.270 . S
C333 O326 1.262 . S
C333 O334 1.232 . S
O334 C333 1.232 . S
C335 O327 1.260 . S
C335 O328 1.257 . S
Zn336 O339 2.031 . S
Zn336 O341 2.049 . S
Zn336 O346 2.067 . S
Zn337 O338 1.962 . S
Zn337 O340 1.986 . S
Zn337 O342 1.996 . S
Zn337 O345 1.943 . S
O338 Zn337 1.962 . S
O338 C343 1.254 . S
O339 Zn336 2.031 . S
O339 C343 1.269 . S
O340 Zn337 1.986 . S
O340 C347 1.262 . S
O341 Zn336 2.049 . S
O341 C349 1.260 . S
O342 Zn337 1.996 . S
O342 C349 1.257 . S
C343 O338 1.254 . S
C343 O339 1.269 . S
C344 O345 1.249 . S
C344 O346 1.270 . S
O345 Zn337 1.943 . S
O345 C344 1.249 . S
O346 Zn336 2.067 . S
O346 C344 1.270 . S
C347 O340 1.262 . S
C347 O348 1.232 . S
O348 C347 1.232 . S
C349 O341 1.260 . S
C349 O342 1.257 . S
Zn350 O353 2.031 . S
Zn350 O355 2.049 . S
Zn350 O360 2.067 . S
Zn351 O352 1.962 . S
Zn351 O354 1.986 . S
Zn351 O356 1.996 . S
Zn351 O359 1.943 . S
O352 Zn351 1.962 . S
O352 C357 1.254 . S
O353 Zn350 2.031 . S
O353 C357 1.269 . S
O354 Zn351 1.986 . S
O354 C361 1.262 . S
O355 Zn350 2.049 . S
O355 C363 1.260 . S
O356 Zn351 1.996 . S
O356 C363 1.257 . S
C357 O352 1.254 . S
C357 O353 1.269 . S
C358 O359 1.249 . S
C358 O360 1.270 . S
O359 Zn351 1.943 . S
O359 C358 1.249 . S
O360 Zn350 2.067 . S
O360 C358 1.270 . S
C361 O354 1.262 . S
C361 O362 1.232 . S
O362 C361 1.232 . S
C363 O355 1.260 . S
C363 O356 1.257 . S
Zn364 O367 2.031 1_554 S
Zn364 O369 2.049 . S
Zn364 O374 2.067 . S
Zn365 O366 1.962 1_554 S
Zn365 O368 1.986 . S
Zn365 O370 1.996 . S
Zn365 O373 1.943 . S
O366 Zn365 1.962 1_556 S
O366 C371 1.254 . S
O367 Zn364 2.031 1_556 S
O367 C371 1.269 . S
O368 Zn365 1.986 . S
O368 C375 1.262 . S
O369 Zn364 2.049 . S
O369 C377 1.260 . S
O370 Zn365 1.996 . S
O370 C377 1.257 . S
C371 O366 1.254 . S
C371 O367 1.269 . S
C372 O373 1.249 . S
C372 O374 1.270 . S
O373 Zn365 1.943 . S
O373 C372 1.249 . S
O374 Zn364 2.067 . S
O374 C372 1.270 . S
C375 O368 1.262 . S
C375 O376 1.232 . S
O376 C375 1.232 . S
C377 O369 1.260 . S
C377 O370 1.257 . S
Zn378 O381 2.031 . S
Zn378 O383 2.049 . S
Zn378 O388 2.067 . S
Zn379 O380 1.962 . S
Zn379 O382 1.986 . S
Zn379 O384 1.996 . S
Zn379 O387 1.943 . S
O380 Zn379 1.962 . S
O380 C385 1.254 . S
O381 Zn378 2.031 . S
O381 C385 1.269 . S
O382 Zn379 1.986 . S
O382 C389 1.262 . S
O383 Zn378 2.049 . S
O383 C391 1.260 . S
O384 Zn379 1.996 . S
O384 C391 1.257 . S
C385 O380 1.254 . S
C385 O381 1.269 . S
C386 O387 1.249 . S
C386 O388 1.270 . S
O387 Zn379 1.943 . S
O387 C386 1.249 . S
O388 Zn378 2.067 . S
O388 C386 1.270 . S
C389 O382 1.262 . S
C389 O390 1.232 . S
O390 C389 1.232 . S
C391 O383 1.260 . S
C391 O384 1.257 . S
Zn392 O395 2.031 . S
Zn392 O397 2.049 . S
Zn392 O402 2.067 . S
Zn393 O394 1.962 . S
Zn393 O396 1.986 . S
Zn393 O398 1.996 . S
Zn393 O401 1.943 . S
O394 Zn393 1.962 . S
O394 C399 1.254 . S
O395 Zn392 2.031 . S
O395 C399 1.269 . S
O396 Zn393 1.986 . S
O396 C403 1.262 . S
O397 Zn392 2.049 . S
O397 C405 1.260 . S
O398 Zn393 1.996 . S
O398 C405 1.257 . S
C399 O394 1.254 . S
C399 O395 1.269 . S
C400 O401 1.249 . S
C400 O402 1.270 . S
O401 Zn393 1.943 . S
O401 C400 1.249 . S
O402 Zn392 2.067 . S
O402 C400 1.270 . S
C403 O396 1.262 . S
C403 O404 1.232 . S
O404 C403 1.232 . S
C405 O397 1.260 . S
C405 O398 1.257 . S
Zn406 O409 2.031 . S
Zn406 O411 2.049 . S
Zn406 O416 2.067 . S
Zn407 O408 1.962 . S
Zn407 O410 1.986 . S
Zn407 O412 1.996 . S
Zn407 O415 1.943 . S
O408 Zn407 1.962 . S
O408 C413 1.254 . S
O409 Zn406 2.031 . S
O409 C413 1.269 . S
O410 Zn407 1.986 . S
O410 C417 1.262 . S
O411 Zn406 2.049 . S
O411 C419 1.260 . S
O412 Zn407 1.996 . S
O412 C419 1.257 . S
C413 O408 1.254 . S
C413 O409 1.269 . S
C414 O415 1.249 . S
C414 O416 1.270 . S
O415 Zn407 1.943 . S
O415 C414 1.249 . S
O416 Zn406 2.067 . S
O416 C414 1.270 . S
C417 O410 1.262 . S
C417 O418 1.232 . S
O418 C417 1.232 . S
C419 O411 1.260 . S
C419 O412 1.257 . S
Zn420 O423 2.031 . S
Zn420 O425 2.049 1_554 S
Zn420 O430 2.067 . S
Zn421 O422 1.962 . S
Zn421 O424 1.986 1_554 S
Zn421 O426 1.996 1_554 S
Zn421 O429 1.943 . S
O422 Zn421 1.962 . S
O422 C427 1.254 . S
O423 Zn420 2.031 . S
O423 C427 1.269 . S
O424 Zn421 1.986 1_556 S
O424 C431 1.262 1_556 S
O425 Zn420 2.049 1_556 S
O425 C433 1.260 . S
O426 Zn421 1.996 1_556 S
O426 C433 1.257 . S
C427 O422 1.254 . S
C427 O423 1.269 . S
C428 O429 1.249 . S
C428 O430 1.270 . S
O429 Zn421 1.943 . S
O429 C428 1.249 . S
O430 Zn420 2.067 . S
O430 C428 1.270 . S
C431 O424 1.262 1_554 S
C431 O432 1.232 . S
O432 C431 1.232 . S
C433 O425 1.260 . S
C433 O426 1.257 . S
Zn434 O437 2.031 . S
Zn434 O439 2.049 . S
Zn434 O444 2.067 . S
Zn435 O436 1.962 . S
Zn435 O438 1.986 . S
Zn435 O440 1.996 . S
Zn435 O443 1.943 . S
O436 Zn435 1.962 . S
O436 C441 1.254 . S
O437 Zn434 2.031 . S
O437 C441 1.269 . S
O438 Zn435 1.986 . S
O438 C445 1.262 . S
O439 Zn434 2.049 . S
O439 C447 1.260 . S
O440 Zn435 1.996 . S
O440 C447 1.257 . S
C441 O436 1.254 . S
C441 O437 1.269 . S
C442 O443 1.249 . S
C442 O444 1.270 . S
O443 Zn435 1.943 . S
O443 C442 1.249 . S
O444 Zn434 2.067 . S
O444 C442 1.270 . S
C445 O438 1.262 . S
C445 O446 1.232 . S
O446 C445 1.232 . S
C447 O439 1.260 . S
C447 O440 1.257 . S
H448 C454 0.930 . S
H449 C458 0.930 . S
H450 C463 0.929 . S
H451 C461 0.929 . S
H452 C456 0.929 . S
H453 C462 0.929 . S
C454 H448 0.930 . S
C454 C455 1.367 . S
C454 C462 1.378 . S
C455 C454 1.367 . S
C455 C463 1.433 . S
C456 H452 0.929 . S
C456 C458 1.378 . S
C456 C460 1.350 . S
C457 C460 1.463 . S
C457 C462 1.350 . S
C457 N465 1.427 . S
C458 H449 0.930 . S
C458 C456 1.378 . S
C458 C459 1.367 . S
C459 C458 1.367 . S
C459 C461 1.433 . S
C460 C456 1.350 . S
C460 C457 1.463 . S
C460 N464 1.427 . S
C461 H451 0.929 . S
C461 C459 1.433 . S
C461 N464 1.384 . S
C462 H453 0.929 . S
C462 C454 1.378 . S
C462 C457 1.350 . S
C463 H450 0.929 . S
C463 C455 1.433 . S
C463 N465 1.384 . S
N464 C460 1.427 . S
N464 C461 1.384 . S
N465 C457 1.427 . S
N465 C463 1.384 . S
H466 C472 0.930 . S
H467 C476 0.930 . S
H468 C481 0.929 . S
H469 C479 0.929 . S
H470 C474 0.929 . S
H471 C480 0.929 . S
C472 H466 0.930 . S
C472 C473 1.367 . S
C472 C480 1.378 . S
C473 C472 1.367 . S
C473 C481 1.433 . S
C474 H470 0.929 . S
C474 C476 1.378 . S
C474 C478 1.350 . S
C475 C478 1.463 . S
C475 C480 1.350 . S
C475 N483 1.427 . S
C476 H467 0.930 . S
C476 C474 1.378 . S
C476 C477 1.367 . S
C477 C476 1.367 . S
C477 C479 1.433 . S
C478 C474 1.350 . S
C478 C475 1.463 . S
C478 N482 1.427 . S
C479 H469 0.929 . S
C479 C477 1.433 . S
C479 N482 1.384 . S
C480 H471 0.929 . S
C480 C472 1.378 . S
C480 C475 1.350 . S
C481 H468 0.929 . S
C481 C473 1.433 . S
C481 N483 1.384 . S
N482 C478 1.427 . S
N482 C479 1.384 . S
N483 C475 1.427 . S
N483 C481 1.384 . S
H484 C490 0.930 . S
H485 C494 0.930 . S
H486 C499 0.929 . S
H487 C497 0.929 . S
H488 C492 0.929 . S
H489 C498 0.929 . S
C490 H484 0.930 . S
C490 C491 1.367 . S
C490 C498 1.378 . S
C491 C490 1.367 . S
C491 C499 1.433 . S
C492 H488 0.929 . S
C492 C494 1.378 . S
C492 C496 1.350 . S
C493 C496 1.463 . S
C493 C498 1.350 . S
C493 N501 1.427 . S
C494 H485 0.930 . S
C494 C492 1.378 . S
C494 C495 1.367 . S
C495 C494 1.367 . S
C495 C497 1.433 . S
C496 C492 1.350 . S
C496 C493 1.463 . S
C496 N500 1.427 . S
C497 H487 0.929 . S
C497 C495 1.433 . S
C497 N500 1.384 . S
C498 H489 0.929 . S
C498 C490 1.378 . S
C498 C493 1.350 . S
C499 H486 0.929 . S
C499 C491 1.433 . S
C499 N501 1.384 . S
N500 C496 1.427 . S
N500 C497 1.384 . S
N501 C493 1.427 . S
N501 C499 1.384 . S
H502 C508 0.930 . S
H503 C512 0.930 . S
H504 C517 0.929 . S
H505 C515 0.929 . S
H506 C510 0.929 . S
H507 C516 0.929 . S
C508 H502 0.930 . S
C508 C509 1.367 . S
C508 C516 1.378 . S
C509 C508 1.367 . S
C509 C517 1.433 . S
C510 H506 0.929 . S
C510 C512 1.378 . S
C510 C514 1.350 . S
C511 C514 1.463 . S
C511 C516 1.350 . S
C511 N519 1.427 . S
C512 H503 0.930 . S
C512 C510 1.378 . S
C512 C513 1.367 . S
C513 C512 1.367 . S
C513 C515 1.433 . S
C514 C510 1.350 . S
C514 C511 1.463 . S
C514 N518 1.427 . S
C515 H505 0.929 . S
C515 C513 1.433 . S
C515 N518 1.384 . S
C516 H507 0.929 . S
C516 C508 1.378 . S
C516 C511 1.350 . S
C517 H504 0.929 . S
C517 C509 1.433 . S
C517 N519 1.384 . S
N518 C514 1.427 . S
N518 C515 1.384 . S
N519 C511 1.427 . S
N519 C517 1.384 . S
H520 C526 0.930 . S
H521 C530 0.930 . S
H522 C535 0.929 . S
H523 C533 0.929 . S
H524 C528 0.929 . S
H525 C534 0.929 . S
C526 H520 0.930 . S
C526 C527 1.367 . S
C526 C534 1.378 . S
C527 C526 1.367 . S
C527 C535 1.433 . S
C528 H524 0.929 . S
C528 C530 1.378 . S
C528 C532 1.350 . S
C529 C532 1.463 . S
C529 C534 1.350 . S
C529 N537 1.427 . S
C530 H521 0.930 . S
C530 C528 1.378 . S
C530 C531 1.367 . S
C531 C530 1.367 . S
C531 C533 1.433 . S
C532 C528 1.350 . S
C532 C529 1.463 . S
C532 N536 1.427 . S
C533 H523 0.929 . S
C533 C531 1.433 . S
C533 N536 1.384 . S
C534 H525 0.929 . S
C534 C526 1.378 . S
C534 C529 1.350 . S
C535 H522 0.929 . S
C535 C527 1.433 . S
C535 N537 1.384 . S
N536 C532 1.427 . S
N536 C533 1.384 . S
N537 C529 1.427 . S
N537 C535 1.384 . S
H538 C544 0.930 . S
H539 C548 0.930 . S
H540 C553 0.929 . S
H541 C551 0.929 . S
H542 C546 0.929 1_554 S
H543 C552 0.929 . S
C544 H538 0.930 . S
C544 C545 1.367 . S
C544 C552 1.378 . S
C545 C544 1.367 . S
C545 C553 1.433 . S
C546 H542 0.929 1_556 S
C546 C548 1.378 1_556 S
C546 C550 1.350 . S
C547 C550 1.463 . S
C547 C552 1.350 . S
C547 N555 1.427 . S
C548 H539 0.930 . S
C548 C546 1.378 1_554 S
C548 C549 1.367 1_554 S
C549 C548 1.367 1_556 S
C549 C551 1.433 . S
C550 C546 1.350 . S
C550 C547 1.463 . S
C550 N554 1.427 . S
C551 H541 0.929 . S
C551 C549 1.433 . S
C551 N554 1.384 . S
C552 H543 0.929 . S
C552 C544 1.378 . S
C552 C547 1.350 . S
C553 H540 0.929 . S
C553 C545 1.433 . S
C553 N555 1.384 . S
N554 C550 1.427 . S
N554 C551 1.384 . S
N555 C547 1.427 . S
N555 C553 1.384 . S
H556 C562 0.930 . S
H557 C566 0.930 . S
H558 C571 0.929 . S
H559 C569 0.929 . S
H560 C564 0.929 . S
H561 C570 0.929 . S
C562 H556 0.930 . S
C562 C563 1.367 . S
C562 C570 1.378 . S
C563 C562 1.367 . S
C563 C571 1.433 . S
C564 H560 0.929 . S
C564 C566 1.378 . S
C564 C568 1.350 . S
C565 C568 1.463 . S
C565 C570 1.350 . S
C565 N573 1.427 . S
C566 H557 0.930 . S
C566 C564 1.378 . S
C566 C567 1.367 . S
C567 C566 1.367 . S
C567 C569 1.433 . S
C568 C564 1.350 . S
C568 C565 1.463 . S
C568 N572 1.427 . S
C569 H559 0.929 . S
C569 C567 1.433 . S
C569 N572 1.384 . S
C570 H561 0.929 . S
C570 C562 1.378 . S
C570 C565 1.350 . S
C571 H558 0.929 . S
C571 C563 1.433 . S
C571 N573 1.384 . S
N572 C568 1.427 . S
N572 C569 1.384 . S
N573 C565 1.427 . S
N573 C571 1.384 . S
H574 C580 0.930 . S
H575 C584 0.930 . S
H576 C589 0.929 . S
H577 C587 0.929 . S
H578 C582 0.929 . S
H579 C588 0.929 . S
C580 H574 0.930 . S
C580 C581 1.367 . S
C580 C588 1.378 . S
C581 C580 1.367 . S
C581 C589 1.433 . S
C582 H578 0.929 . S
C582 C584 1.378 . S
C582 C586 1.350 . S
C583 C586 1.463 . S
C583 C588 1.350 . S
C583 N591 1.427 . S
C584 H575 0.930 . S
C584 C582 1.378 . S
C584 C585 1.367 . S
C585 C584 1.367 . S
C585 C587 1.433 . S
C586 C582 1.350 . S
C586 C583 1.463 . S
C586 N590 1.427 . S
C587 H577 0.929 . S
C587 C585 1.433 . S
C587 N590 1.384 . S
C588 H579 0.929 . S
C588 C580 1.378 . S
C588 C583 1.350 . S
C589 H576 0.929 . S
C589 C581 1.433 . S
C589 N591 1.384 . S
N590 C586 1.427 . S
N590 C587 1.384 . S
N591 C583 1.427 . S
N591 C589 1.384 . S
H592 C598 0.930 . S
H593 C602 0.930 . S
H594 C607 0.929 . S
H595 C605 0.929 . S
H596 C600 0.929 . S
H597 C606 0.929 . S
C598 H592 0.930 . S
C598 C599 1.367 . S
C598 C606 1.378 . S
C599 C598 1.367 . S
C599 C607 1.433 . S
C600 H596 0.929 . S
C600 C602 1.378 . S
C600 C604 1.350 . S
C601 C604 1.463 . S
C601 C606 1.350 . S
C601 N609 1.427 . S
C602 H593 0.930 . S
C602 C600 1.378 . S
C602 C603 1.367 . S
C603 C602 1.367 . S
C603 C605 1.433 . S
C604 C600 1.350 . S
C604 C601 1.463 . S
C604 N608 1.427 . S
C605 H595 0.929 . S
C605 C603 1.433 . S
C605 N608 1.384 . S
C606 H597 0.929 . S
C606 C598 1.378 . S
C606 C601 1.350 . S
C607 H594 0.929 . S
C607 C599 1.433 . S
C607 N609 1.384 . S
N608 C604 1.427 . S
N608 C605 1.384 . S
N609 C601 1.427 . S
N609 C607 1.384 . S
H610 C616 0.930 . S
H611 C620 0.930 . S
H612 C625 0.929 . S
H613 C623 0.929 . S
H614 C618 0.929 . S
H615 C624 0.929 . S
C616 H610 0.930 . S
C616 C617 1.367 . S
C616 C624 1.378 . S
C617 C616 1.367 . S
C617 C625 1.433 . S
C618 H614 0.929 . S
C618 C620 1.378 . S
C618 C622 1.350 . S
C619 C622 1.463 . S
C619 C624 1.350 . S
C619 N627 1.427 . S
C620 H611 0.930 . S
C620 C618 1.378 . S
C620 C621 1.367 . S
C621 C620 1.367 . S
C621 C623 1.433 . S
C622 C618 1.350 . S
C622 C619 1.463 . S
C622 N626 1.427 . S
C623 H613 0.929 . S
C623 C621 1.433 . S
C623 N626 1.384 . S
C624 H615 0.929 . S
C624 C616 1.378 . S
C624 C619 1.350 . S
C625 H612 0.929 . S
C625 C617 1.433 . S
C625 N627 1.384 . S
N626 C622 1.427 . S
N626 C623 1.384 . S
N627 C619 1.427 . S
N627 C625 1.384 . S
H628 C634 0.930 . S
H629 C638 0.930 1_554 S
H630 C643 0.929 . S
H631 C641 0.929 . S
H632 C636 0.929 . S
H633 C642 0.929 . S
C634 H628 0.930 . S
C634 C635 1.367 . S
C634 C642 1.378 . S
C635 C634 1.367 . S
C635 C643 1.433 . S
C636 H632 0.929 . S
C636 C638 1.378 . S
C636 C640 1.350 . S
C637 C640 1.463 . S
C637 C642 1.350 . S
C637 N645 1.427 . S
C638 H629 0.930 1_556 S
C638 C636 1.378 . S
C638 C639 1.367 . S
C639 C638 1.367 . S
C639 C641 1.433 . S
C640 C636 1.350 . S
C640 C637 1.463 . S
C640 N644 1.427 . S
C641 H631 0.929 . S
C641 C639 1.433 . S
C641 N644 1.384 . S
C642 H633 0.929 . S
C642 C634 1.378 . S
C642 C637 1.350 . S
C643 H630 0.929 . S
C643 C635 1.433 . S
C643 N645 1.384 . S
N644 C640 1.427 . S
N644 C641 1.384 . S
N645 C637 1.427 . S
N645 C643 1.384 . S
H646 C652 0.930 . S
H647 C656 0.930 . S
H648 C661 0.929 . S
H649 C659 0.929 . S
H650 C654 0.929 . S
H651 C660 0.929 . S
C652 H646 0.930 . S
C652 C653 1.367 . S
C652 C660 1.378 . S
C653 C652 1.367 . S
C653 C661 1.433 . S
C654 H650 0.929 . S
C654 C656 1.378 . S
C654 C658 1.350 . S
C655 C658 1.463 . S
C655 C660 1.350 . S
C655 N663 1.427 . S
C656 H647 0.930 . S
C656 C654 1.378 . S
C656 C657 1.367 . S
C657 C656 1.367 . S
C657 C659 1.433 . S
C658 C654 1.350 . S
C658 C655 1.463 . S
C658 N662 1.427 . S
C659 H649 0.929 . S
C659 C657 1.433 . S
C659 N662 1.384 . S
C660 H651 0.929 . S
C660 C652 1.378 . S
C660 C655 1.350 . S
C661 H648 0.929 . S
C661 C653 1.433 . S
C661 N663 1.384 . S
N662 C658 1.427 . S
N662 C659 1.384 . S
N663 C655 1.427 . S
N663 C661 1.384 . S
H664 C670 0.930 . S
H665 C674 0.930 . S
H666 C679 0.929 . S
H667 C677 0.929 . S
H668 C672 0.929 . S
H669 C678 0.929 . S
C670 H664 0.930 . S
C670 C671 1.367 . S
C670 C678 1.378 . S
C671 C670 1.367 . S
C671 C679 1.433 . S
C672 H668 0.929 . S
C672 C674 1.378 . S
C672 C676 1.350 . S
C673 C676 1.463 . S
C673 C678 1.350 . S
C673 N681 1.427 . S
C674 H665 0.930 . S
C674 C672 1.378 . S
C674 C675 1.367 . S
C675 C674 1.367 . S
C675 C677 1.433 . S
C676 C672 1.350 . S
C676 C673 1.463 . S
C676 N680 1.427 . S
C677 H667 0.929 . S
C677 C675 1.433 . S
C677 N680 1.384 . S
C678 H669 0.929 . S
C678 C670 1.378 . S
C678 C673 1.350 . S
C679 H666 0.929 . S
C679 C671 1.433 . S
C679 N681 1.384 . S
N680 C676 1.427 . S
N680 C677 1.384 . S
N681 C673 1.427 . S
N681 C679 1.384 . S
H682 C688 0.930 . S
H683 C692 0.930 . S
H684 C697 0.929 . S
H685 C695 0.929 . S
H686 C690 0.929 . S
H687 C696 0.929 . S
C688 H682 0.930 . S
C688 C689 1.367 . S
C688 C696 1.378 . S
C689 C688 1.367 . S
C689 C697 1.433 . S
C690 H686 0.929 . S
C690 C692 1.378 . S
C690 C694 1.350 . S
C691 C694 1.463 . S
C691 C696 1.350 . S
C691 N699 1.427 . S
C692 H683 0.930 . S
C692 C690 1.378 . S
C692 C693 1.367 . S
C693 C692 1.367 . S
C693 C695 1.433 . S
C694 C690 1.350 . S
C694 C691 1.463 . S
C694 N698 1.427 . S
C695 H685 0.929 . S
C695 C693 1.433 . S
C695 N698 1.384 . S
C696 H687 0.929 . S
C696 C688 1.378 . S
C696 C691 1.350 . S
C697 H684 0.929 . S
C697 C689 1.433 . S
C697 N699 1.384 . S
N698 C694 1.427 . S
N698 C695 1.384 . S
N699 C691 1.427 . S
N699 C697 1.384 . S
H700 C706 0.930 . S
H701 C710 0.930 . S
H702 C715 0.929 . S
H703 C713 0.929 . S
H704 C708 0.929 . S
H705 C714 0.929 . S
C706 H700 0.930 . S
C706 C707 1.367 . S
C706 C714 1.378 . S
C707 C706 1.367 . S
C707 C715 1.433 . S
C708 H704 0.929 . S
C708 C710 1.378 . S
C708 C712 1.350 . S
C709 C712 1.463 . S
C709 C714 1.350 . S
C709 N717 1.427 . S
C710 H701 0.930 . S
C710 C708 1.378 . S
C710 C711 1.367 . S
C711 C710 1.367 . S
C711 C713 1.433 . S
C712 C708 1.350 . S
C712 C709 1.463 . S
C712 N716 1.427 . S
C713 H703 0.929 . S
C713 C711 1.433 . S
C713 N716 1.384 . S
C714 H705 0.929 . S
C714 C706 1.378 . S
C714 C709 1.350 . S
C715 H702 0.929 . S
C715 C707 1.433 . S
C715 N717 1.384 . S
N716 C712 1.427 . S
N716 C713 1.384 . S
N717 C709 1.427 . S
N717 C715 1.384 . S
H718 C724 0.930 . S
H719 C728 0.930 . S
H720 C733 0.929 . S
H721 C731 0.929 . S
H722 C726 0.929 . S
H723 C732 0.929 . S
C724 H718 0.930 . S
C724 C725 1.367 . S
C724 C732 1.378 . S
C725 C724 1.367 . S
C725 C733 1.433 . S
C726 H722 0.929 . S
C726 C728 1.378 . S
C726 C730 1.350 . S
C727 C730 1.463 . S
C727 C732 1.350 . S
C727 N735 1.427 . S
C728 H719 0.930 . S
C728 C726 1.378 . S
C728 C729 1.367 . S
C729 C728 1.367 . S
C729 C731 1.433 . S
C730 C726 1.350 . S
C730 C727 1.463 . S
C730 N734 1.427 . S
C731 H721 0.929 . S
C731 C729 1.433 . S
C731 N734 1.384 . S
C732 H723 0.929 . S
C732 C724 1.378 . S
C732 C727 1.350 . S
C733 H720 0.929 . S
C733 C725 1.433 . S
C733 N735 1.384 . S
N734 C730 1.427 . S
N734 C731 1.384 . S
N735 C727 1.427 . S
N735 C733 1.384 . S
H736 C742 0.930 . S
H737 C746 0.930 . S
H738 C751 0.929 . S
H739 C749 0.929 . S
H740 C744 0.929 . S
H741 C750 0.929 . S
C742 H736 0.930 . S
C742 C743 1.367 . S
C742 C750 1.378 . S
C743 C742 1.367 . S
C743 C751 1.433 . S
C744 H740 0.929 . S
C744 C746 1.378 . S
C744 C748 1.350 . S
C745 C748 1.463 . S
C745 C750 1.350 . S
C745 N753 1.427 . S
C746 H737 0.930 . S
C746 C744 1.378 . S
C746 C747 1.367 . S
C747 C746 1.367 . S
C747 C749 1.433 . S
C748 C744 1.350 . S
C748 C745 1.463 . S
C748 N752 1.427 . S
C749 H739 0.929 . S
C749 C747 1.433 . S
C749 N752 1.384 . S
C750 H741 0.929 . S
C750 C742 1.378 . S
C750 C745 1.350 . S
C751 H738 0.929 . S
C751 C743 1.433 . S
C751 N753 1.384 . S
N752 C748 1.427 . S
N752 C749 1.384 . S
N753 C745 1.427 . S
N753 C751 1.384 . S
H754 C760 0.930 . S
H755 C764 0.930 . S
H756 C769 0.929 . S
H757 C767 0.929 . S
H758 C762 0.929 . S
H759 C768 0.929 . S
C760 H754 0.930 . S
C760 C761 1.367 . S
C760 C768 1.378 . S
C761 C760 1.367 . S
C761 C769 1.433 . S
C762 H758 0.929 . S
C762 C764 1.378 1_554 S
C762 C766 1.350 . S
C763 C766 1.463 1_565 S
C763 C768 1.350 . S
C763 N771 1.427 . S
C764 H755 0.930 . S
C764 C762 1.378 1_556 S
C764 C765 1.367 . S
C765 C764 1.367 . S
C765 C767 1.433 . S
C766 C762 1.350 . S
C766 C763 1.463 1_545 S
C766 N770 1.427 1_554 S
C767 H757 0.929 . S
C767 C765 1.433 . S
C767 N770 1.384 . S
C768 H759 0.929 . S
C768 C760 1.378 . S
C768 C763 1.350 . S
C769 H756 0.929 . S
C769 C761 1.433 . S
C769 N771 1.384 . S
N770 C766 1.427 1_556 S
N770 C767 1.384 . S
N771 C763 1.427 . S
N771 C769 1.384 . S
H772 C778 0.930 . S
H773 C782 0.930 . S
H774 C787 0.929 . S
H775 C785 0.929 . S
H776 C780 0.929 . S
H777 C786 0.929 . S
C778 H772 0.930 . S
C778 C779 1.367 . S
C778 C786 1.378 . S
C779 C778 1.367 . S
C779 C787 1.433 . S
C780 H776 0.929 . S
C780 C782 1.378 . S
C780 C784 1.350 . S
C781 C784 1.463 . S
C781 C786 1.350 . S
C781 N789 1.427 . S
C782 H773 0.930 . S
C782 C780 1.378 . S
C782 C783 1.367 . S
C783 C782 1.367 . S
C783 C785 1.433 . S
C784 C780 1.350 . S
C784 C781 1.463 . S
C784 N788 1.427 . S
C785 H775 0.929 . S
C785 C783 1.433 . S
C785 N788 1.384 . S
C786 H777 0.929 . S
C786 C778 1.378 . S
C786 C781 1.350 . S
C787 H774 0.929 . S
C787 C779 1.433 . S
C787 N789 1.384 . S
N788 C784 1.427 . S
N788 C785 1.384 . S
N789 C781 1.427 . S
N789 C787 1.384 . S
H790 C796 0.930 . S
H791 C800 0.930 . S
H792 C805 0.929 . S
H793 C803 0.929 . S
H794 C798 0.929 . S
H795 C804 0.929 . S
C796 H790 0.930 . S
C796 C797 1.367 . S
C796 C804 1.378 . S
C797 C796 1.367 . S
C797 C805 1.433 . S
C798 H794 0.929 . S
C798 C800 1.378 . S
C798 C802 1.350 . S
C799 C802 1.463 1_545 S
C799 C804 1.350 . S
C799 N807 1.427 1_545 S
C800 H791 0.930 . S
C800 C798 1.378 . S
C800 C801 1.367 . S
C801 C800 1.367 . S
C801 C803 1.433 . S
C802 C798 1.350 . S
C802 C799 1.463 1_565 S
C802 N806 1.427 1_565 S
C803 H793 0.929 . S
C803 C801 1.433 . S
C803 N806 1.384 1_565 S
C804 H795 0.929 . S
C804 C796 1.378 . S
C804 C799 1.350 . S
C805 H792 0.929 . S
C805 C797 1.433 . S
C805 N807 1.384 1_545 S
N806 C802 1.427 1_545 S
N806 C803 1.384 1_545 S
N807 C799 1.427 1_565 S
N807 C805 1.384 1_565 S
H808 C814 0.930 . S
H809 C818 0.930 . S
H810 C823 0.929 . S
H811 C821 0.929 . S
H812 C816 0.929 . S
H813 C822 0.929 . S
C814 H808 0.930 . S
C814 C815 1.367 . S
C814 C822 1.378 . S
C815 C814 1.367 . S
C815 C823 1.433 . S
C816 H812 0.929 . S
C816 C818 1.378 . S
C816 C820 1.350 . S
C817 C820 1.463 . S
C817 C822 1.350 . S
C817 N825 1.427 . S
C818 H809 0.930 . S
C818 C816 1.378 . S
C818 C819 1.367 . S
C819 C818 1.367 . S
C819 C821 1.433 . S
C820 C816 1.350 . S
C820 C817 1.463 . S
C820 N824 1.427 . S
C821 H811 0.929 . S
C821 C819 1.433 . S
C821 N824 1.384 . S
C822 H813 0.929 . S
C822 C814 1.378 . S
C822 C817 1.350 . S
C823 H810 0.929 . S
C823 C815 1.433 . S
C823 N825 1.384 . S
N824 C820 1.427 . S
N824 C821 1.384 . S
N825 C817 1.427 . S
N825 C823 1.384 . S
H826 C832 0.930 . S
H827 C836 0.930 . S
H828 C841 0.929 . S
H829 C839 0.929 . S
H830 C834 0.929 . S
H831 C840 0.929 . S
C832 H826 0.930 . S
C832 C833 1.367 . S
C832 C840 1.378 1_556 S
C833 C832 1.367 . S
C833 C841 1.433 . S
C834 H830 0.929 . S
C834 C836 1.378 . S
C834 C838 1.350 . S
C835 C838 1.463 1_545 S
C835 C840 1.350 . S
C835 N843 1.431 1_554 S
C836 H827 0.930 . S
C836 C834 1.378 . S
C836 C837 1.367 . S
C837 C836 1.367 . S
C837 C839 1.433 . S
C838 C834 1.350 . S
C838 C835 1.463 1_565 S
C838 N842 1.431 . S
C839 H829 0.929 . S
C839 C837 1.433 . S
C839 N842 1.390 . S
C840 H831 0.929 . S
C840 C832 1.378 1_554 S
C840 C835 1.350 . S
C841 H828 0.929 . S
C841 C833 1.433 . S
C841 N843 1.390 . S
N842 C838 1.431 . S
N842 C839 1.390 . S
N843 C835 1.431 1_556 S
N843 C841 1.390 . S
H844 C850 0.930 . S
H845 C854 0.930 . S
H846 C859 0.929 . S
H847 C857 0.929 . S
H848 C852 0.929 . S
H849 C858 0.929 . S
C850 H844 0.930 . S
C850 C851 1.367 . S
C850 C858 1.378 . S
C851 C850 1.367 . S
C851 C859 1.433 . S
C852 H848 0.929 . S
C852 C854 1.378 . S
C852 C856 1.350 . S
C853 C856 1.463 . S
C853 C858 1.350 . S
C853 N861 1.427 . S
C854 H845 0.930 . S
C854 C852 1.378 . S
C854 C855 1.367 . S
C855 C854 1.367 . S
C855 C857 1.433 . S
C856 C852 1.350 . S
C856 C853 1.463 . S
C856 N860 1.427 . S
C857 H847 0.929 . S
C857 C855 1.433 . S
C857 N860 1.384 . S
C858 H849 0.929 . S
C858 C850 1.378 . S
C858 C853 1.350 . S
C859 H846 0.929 . S
C859 C851 1.433 . S
C859 N861 1.384 . S
N860 C856 1.427 . S
N860 C857 1.384 . S
N861 C853 1.427 . S
N861 C859 1.384 . S
H862 C868 0.930 . S
H863 C872 0.930 . S
H864 C877 0.929 . S
H865 C875 0.929 . S
H866 C870 0.929 . S
H867 C876 0.929 . S
C868 H862 0.930 . S
C868 C869 1.367 . S
C868 C876 1.378 . S
C869 C868 1.367 . S
C869 C877 1.433 . S
C870 H866 0.929 . S
C870 C872 1.378 . S
C870 C874 1.350 . S
C871 C874 1.463 1_545 S
C871 C876 1.350 . S
C871 N879 1.427 . S
C872 H863 0.930 . S
C872 C870 1.378 . S
C872 C873 1.367 . S
C873 C872 1.367 . S
C873 C875 1.433 . S
C874 C870 1.350 . S
C874 C871 1.463 1_565 S
C874 N878 1.427 . S
C875 H865 0.929 . S
C875 C873 1.433 . S
C875 N878 1.384 . S
C876 H867 0.929 . S
C876 C868 1.378 . S
C876 C871 1.350 . S
C877 H864 0.929 . S
C877 C869 1.433 . S
C877 N879 1.384 . S
N878 C874 1.427 . S
N878 C875 1.384 . S
N879 C871 1.427 . S
N879 C877 1.384 . S
H880 C886 0.930 . S
H881 C890 0.930 . S
H882 C895 0.929 . S
H883 C893 0.929 . S
H884 C888 0.929 . S
H885 C894 0.929 . S
C886 H880 0.930 . S
C886 C887 1.367 . S
C886 C894 1.378 . S
C887 C886 1.367 . S
C887 C895 1.433 . S
C888 H884 0.929 . S
C888 C890 1.378 . S
C888 C892 1.350 . S
C889 C892 1.463 . S
C889 C894 1.350 . S
C889 N897 1.427 . S
C890 H881 0.930 . S
C890 C888 1.378 . S
C890 C891 1.367 . S
C891 C890 1.367 . S
C891 C893 1.433 . S
C892 C888 1.350 . S
C892 C889 1.463 . S
C892 N896 1.427 . S
C893 H883 0.929 . S
C893 C891 1.433 . S
C893 N896 1.384 . S
C894 H885 0.929 . S
C894 C886 1.378 . S
C894 C889 1.350 . S
C895 H882 0.929 . S
C895 C887 1.433 . S
C895 N897 1.384 . S
N896 C892 1.427 . S
N896 C893 1.384 . S
N897 C889 1.427 . S
N897 C895 1.384 . S
H898 C904 0.930 . S
H899 C908 0.930 . S
H900 C913 0.929 . S
H901 C911 0.929 . S
H902 C906 0.929 . S
H903 C912 0.929 . S
C904 H898 0.930 . S
C904 C905 1.367 . S
C904 C912 1.378 . S
C905 C904 1.367 . S
C905 C913 1.433 . S
C906 H902 0.929 . S
C906 C908 1.378 . S
C906 C910 1.350 . S
C907 C910 1.463 . S
C907 C912 1.350 . S
C907 N915 1.427 . S
C908 H899 0.930 . S
C908 C906 1.378 . S
C908 C909 1.367 . S
C909 C908 1.367 . S
C909 C911 1.433 . S
C910 C906 1.350 . S
C910 C907 1.463 . S
C910 N914 1.427 . S
C911 H901 0.929 . S
C911 C909 1.433 . S
C911 N914 1.384 . S
C912 H903 0.929 . S
C912 C904 1.378 . S
C912 C907 1.350 . S
C913 H900 0.929 . S
C913 C905 1.433 . S
C913 N915 1.384 . S
N914 C910 1.427 . S
N914 C911 1.384 . S
N915 C907 1.427 . S
N915 C913 1.384 . S
H916 C922 0.930 . S
H917 C926 0.930 . S
H918 C931 0.929 . S
H919 C929 0.929 . S
H920 C924 0.929 . S
H921 C930 0.929 . S
C922 H916 0.930 . S
C922 C923 1.367 . S
C922 C930 1.378 . S
C923 C922 1.367 . S
C923 C931 1.433 . S
C924 H920 0.929 . S
C924 C926 1.378 . S
C924 C928 1.350 . S
C925 C928 1.463 . S
C925 C930 1.350 . S
C925 N933 1.427 . S
C926 H917 0.930 . S
C926 C924 1.378 . S
C926 C927 1.367 . S
C927 C926 1.367 . S
C927 C929 1.433 . S
C928 C924 1.350 . S
C928 C925 1.463 . S
C928 N932 1.427 . S
C929 H919 0.929 . S
C929 C927 1.433 . S
C929 N932 1.384 . S
C930 H921 0.929 . S
C930 C922 1.378 . S
C930 C925 1.350 . S
C931 H918 0.929 . S
C931 C923 1.433 . S
C931 N933 1.384 . S
N932 C928 1.427 . S
N932 C929 1.384 . S
N933 C925 1.427 . S
N933 C931 1.384 . S
H934 C940 0.930 . S
H935 C944 0.930 . S
H936 C949 0.929 . S
H937 C947 0.929 . S
H938 C942 0.929 . S
H939 C948 0.929 . S
C940 H934 0.930 . S
C940 C941 1.367 . S
C940 C948 1.378 . S
C941 C940 1.367 . S
C941 C949 1.433 . S
C942 H938 0.929 . S
C942 C944 1.378 . S
C942 C946 1.350 1_556 S
C943 C946 1.463 . S
C943 C948 1.350 . S
C943 N951 1.427 . S
C944 H935 0.930 . S
C944 C942 1.378 . S
C944 C945 1.367 . S
C945 C944 1.367 . S
C945 C947 1.433 . S
C946 C942 1.350 1_554 S
C946 C943 1.463 . S
C946 N950 1.427 . S
C947 H937 0.929 . S
C947 C945 1.433 . S
C947 N950 1.384 1_556 S
C948 H939 0.929 . S
C948 C940 1.378 . S
C948 C943 1.350 . S
C949 H936 0.929 . S
C949 C941 1.433 . S
C949 N951 1.384 . S
N950 C946 1.427 . S
N950 C947 1.384 1_554 S
N951 C943 1.427 . S
N951 C949 1.384 . S
H952 C958 0.930 . S
H953 C962 0.930 . S
H954 C967 0.929 . S
H955 C965 0.929 . S
H956 C960 0.929 . S
H957 C966 0.929 . S
C958 H952 0.930 . S
C958 C959 1.367 . S
C958 C966 1.378 . S
C959 C958 1.367 . S
C959 C967 1.433 . S
C960 H956 0.929 . S
C960 C962 1.378 . S
C960 C964 1.350 . S
C961 C964 1.463 . S
C961 C966 1.350 . S
C961 N969 1.427 . S
C962 H953 0.930 . S
C962 C960 1.378 . S
C962 C963 1.367 . S
C963 C962 1.367 . S
C963 C965 1.433 . S
C964 C960 1.350 . S
C964 C961 1.463 . S
C964 N968 1.427 . S
C965 H955 0.929 . S
C965 C963 1.433 . S
C965 N968 1.384 . S
C966 H957 0.929 . S
C966 C958 1.378 . S
C966 C961 1.350 . S
C967 H954 0.929 . S
C967 C959 1.433 . S
C967 N969 1.384 . S
N968 C964 1.427 . S
N968 C965 1.384 . S
N969 C961 1.427 . S
N969 C967 1.384 . S
H970 C976 0.930 . S
H971 C980 0.930 . S
H972 C985 0.929 . S
H973 C983 0.929 . S
H974 C978 0.929 . S
H975 C984 0.929 . S
C976 H970 0.930 . S
C976 C977 1.367 . S
C976 C984 1.378 . S
C977 C976 1.367 . S
C977 C985 1.433 . S
C978 H974 0.929 . S
C978 C980 1.378 . S
C978 C982 1.350 . S
C979 C982 1.463 . S
C979 C984 1.350 . S
C979 N987 1.427 . S
C980 H971 0.930 . S
C980 C978 1.378 . S
C980 C981 1.367 . S
C981 C980 1.367 . S
C981 C983 1.433 . S
C982 C978 1.350 . S
C982 C979 1.463 . S
C982 N986 1.427 . S
C983 H973 0.929 . S
C983 C981 1.433 . S
C983 N986 1.384 . S
C984 H975 0.929 . S
C984 C976 1.378 . S
C984 C979 1.350 . S
C985 H972 0.929 . S
C985 C977 1.433 . S
C985 N987 1.384 . S
N986 C982 1.427 . S
N986 C983 1.384 . S
N987 C979 1.427 . S
N987 C985 1.384 . S
H988 C994 0.930 . S
H989 C998 0.930 . S
H990 C1003 0.929 . S
H991 C1001 0.929 . S
H992 C996 0.929 . S
H993 C1002 0.929 . S
C994 H988 0.930 . S
C994 C995 1.367 . S
C994 C1002 1.378 . S
C995 C994 1.367 . S
C995 C1003 1.433 . S
C996 H992 0.929 . S
C996 C998 1.378 . S
C996 C1000 1.350 . S
C997 C1000 1.463 . S
C997 C1002 1.350 . S
C997 N1005 1.427 . S
C998 H989 0.930 . S
C998 C996 1.378 . S
C998 C999 1.367 . S
C999 C998 1.367 . S
C999 C1001 1.433 . S
C1000 C996 1.350 . S
C1000 C997 1.463 . S
C1000 N1004 1.427 . S
C1001 H991 0.929 . S
C1001 C999 1.433 . S
C1001 N1004 1.384 . S
C1002 H993 0.929 . S
C1002 C994 1.378 . S
C1002 C997 1.350 . S
C1003 H990 0.929 . S
C1003 C995 1.433 . S
C1003 N1005 1.384 . S
N1004 C1000 1.427 . S
N1004 C1001 1.384 . S
N1005 C997 1.427 . S
N1005 C1003 1.384 . S
H1006 C1012 0.930 . S
H1007 C1016 0.930 . S
H1008 C1021 0.929 . S
H1009 C1019 0.929 . S
H1010 C1014 0.929 . S
H1011 C1020 0.929 . S
C1012 H1006 0.930 . S
C1012 C1013 1.367 . S
C1012 C1020 1.378 . S
C1013 C1012 1.367 . S
C1013 C1021 1.433 . S
C1014 H1010 0.929 . S
C1014 C1016 1.378 1_554 S
C1014 C1018 1.350 . S
C1015 C1018 1.463 . S
C1015 C1020 1.350 . S
C1015 N1023 1.427 . S
C1016 H1007 0.930 . S
C1016 C1014 1.378 1_556 S
C1016 C1017 1.367 . S
C1017 C1016 1.367 . S
C1017 C1019 1.433 . S
C1018 C1014 1.350 . S
C1018 C1015 1.463 . S
C1018 N1022 1.427 1_554 S
C1019 H1009 0.929 . S
C1019 C1017 1.433 . S
C1019 N1022 1.384 . S
C1020 H1011 0.929 . S
C1020 C1012 1.378 . S
C1020 C1015 1.350 . S
C1021 H1008 0.929 . S
C1021 C1013 1.433 . S
C1021 N1023 1.384 . S
N1022 C1018 1.427 1_556 S
N1022 C1019 1.384 . S
N1023 C1015 1.427 . S
N1023 C1021 1.384 . S
H1024 C1030 0.930 . S
H1025 C1034 0.930 . S
H1026 C1039 0.929 . S
H1027 C1037 0.929 . S
H1028 C1032 0.929 . S
H1029 C1038 0.929 . S
C1030 H1024 0.930 . S
C1030 C1031 1.367 . S
C1030 C1038 1.378 . S
C1031 C1030 1.367 . S
C1031 C1039 1.433 1_554 S
C1032 H1028 0.929 . S
C1032 C1034 1.378 . S
C1032 C1036 1.350 1_556 S
C1033 C1036 1.463 . S
C1033 C1038 1.350 . S
C1033 N1041 1.427 1_554 S
C1034 H1025 0.930 . S
C1034 C1032 1.378 . S
C1034 C1035 1.367 1_556 S
C1035 C1034 1.367 1_554 S
C1035 C1037 1.433 . S
C1036 C1032 1.350 1_554 S
C1036 C1033 1.463 . S
C1036 N1040 1.427 . S
C1037 H1027 0.929 . S
C1037 C1035 1.433 . S
C1037 N1040 1.384 . S
C1038 H1029 0.929 . S
C1038 C1030 1.378 . S
C1038 C1033 1.350 . S
C1039 H1026 0.929 . S
C1039 C1031 1.433 1_556 S
C1039 N1041 1.384 . S
N1040 C1036 1.427 . S
N1040 C1037 1.384 . S
N1041 C1033 1.427 1_556 S
N1041 C1039 1.384 . S
H1042 C1048 0.930 . S
H1043 C1052 0.930 . S
H1044 C1057 0.929 . S
H1045 C1055 0.929 . S
H1046 C1050 0.929 . S
H1047 C1056 0.929 . S
C1048 H1042 0.930 . S
C1048 C1049 1.367 . S
C1048 C1056 1.378 . S
C1049 C1048 1.367 . S
C1049 C1057 1.433 . S
C1050 H1046 0.929 . S
C1050 C1052 1.378 . S
C1050 C1054 1.350 . S
C1051 C1054 1.463 1_455 S
C1051 C1056 1.350 . S
C1051 N1059 1.427 . S
C1052 H1043 0.930 . S
C1052 C1050 1.378 . S
C1052 C1053 1.367 . S
C1053 C1052 1.367 . S
C1053 C1055 1.433 . S
C1054 C1050 1.350 . S
C1054 C1051 1.463 1_655 S
C1054 N1058 1.427 . S
C1055 H1045 0.929 . S
C1055 C1053 1.433 . S
C1055 N1058 1.384 . S
C1056 H1047 0.929 . S
C1056 C1048 1.378 . S
C1056 C1051 1.350 . S
C1057 H1044 0.929 . S
C1057 C1049 1.433 . S
C1057 N1059 1.384 . S
N1058 C1054 1.427 . S
N1058 C1055 1.384 . S
N1059 C1051 1.427 . S
N1059 C1057 1.384 . S
H1060 C1066 0.930 . S
H1061 C1070 0.930 . S
H1062 C1075 0.929 . S
H1063 C1073 0.929 . S
H1064 C1068 0.929 . S
H1065 C1074 0.929 . S
C1066 H1060 0.930 . S
C1066 C1067 1.367 . S
C1066 C1074 1.378 . S
C1067 C1066 1.367 . S
C1067 C1075 1.433 . S
C1068 H1064 0.929 . S
C1068 C1070 1.378 . S
C1068 C1072 1.350 . S
C1069 C1072 1.463 . S
C1069 C1074 1.350 . S
C1069 N1077 1.427 . S
C1070 H1061 0.930 . S
C1070 C1068 1.378 . S
C1070 C1071 1.367 . S
C1071 C1070 1.367 . S
C1071 C1073 1.433 . S
C1072 C1068 1.350 . S
C1072 C1069 1.463 . S
C1072 N1076 1.427 . S
C1073 H1063 0.929 . S
C1073 C1071 1.433 . S
C1073 N1076 1.384 . S
C1074 H1065 0.929 . S
C1074 C1066 1.378 . S
C1074 C1069 1.350 . S
C1075 H1062 0.929 . S
C1075 C1067 1.433 . S
C1075 N1077 1.384 . S
N1076 C1072 1.427 . S
N1076 C1073 1.384 . S
N1077 C1069 1.427 . S
N1077 C1075 1.384 . S
H1078 C1084 0.930 . S
H1079 C1088 0.930 . S
H1080 C1093 0.929 . S
H1081 C1091 0.929 . S
H1082 C1086 0.929 . S
H1083 C1092 0.929 . S
C1084 H1078 0.930 . S
C1084 C1085 1.367 . S
C1084 C1092 1.378 . S
C1085 C1084 1.367 . S
C1085 C1093 1.433 . S
C1086 H1082 0.929 . S
C1086 C1088 1.378 . S
C1086 C1090 1.350 . S
C1087 C1090 1.463 . S
C1087 C1092 1.350 . S
C1087 N1095 1.427 . S
C1088 H1079 0.930 . S
C1088 C1086 1.378 . S
C1088 C1089 1.367 . S
C1089 C1088 1.367 . S
C1089 C1091 1.433 . S
C1090 C1086 1.350 . S
C1090 C1087 1.463 . S
C1090 N1094 1.427 . S
C1091 H1081 0.929 . S
C1091 C1089 1.433 . S
C1091 N1094 1.384 . S
C1092 H1083 0.929 . S
C1092 C1084 1.378 . S
C1092 C1087 1.350 . S
C1093 H1080 0.929 . S
C1093 C1085 1.433 . S
C1093 N1095 1.384 . S
N1094 C1090 1.427 . S
N1094 C1091 1.384 . S
N1095 C1087 1.427 . S
N1095 C1093 1.384 . S
H1096 C1102 0.930 . S
H1097 C1106 0.930 1_556 S
H1098 C1111 0.929 1_556 S
H1099 C1109 0.929 . S
H1100 C1104 0.929 1_556 S
H1101 C1110 0.929 . S
C1102 H1096 0.930 . S
C1102 C1103 1.367 . S
C1102 C1110 1.378 . S
C1103 C1102 1.367 . S
C1103 C1111 1.433 . S
C1104 H1100 0.929 1_554 S
C1104 C1106 1.378 . S
C1104 C1108 1.350 . S
C1105 C1108 1.463 . S
C1105 C1110 1.350 . S
C1105 N1113 1.427 . S
C1106 H1097 0.930 1_554 S
C1106 C1104 1.378 . S
C1106 C1107 1.367 . S
C1107 C1106 1.367 . S
C1107 C1109 1.433 . S
C1108 C1104 1.350 . S
C1108 C1105 1.463 . S
C1108 N1112 1.427 . S
C1109 H1099 0.929 . S
C1109 C1107 1.433 . S
C1109 N1112 1.384 . S
C1110 H1101 0.929 . S
C1110 C1102 1.378 . S
C1110 C1105 1.350 . S
C1111 H1098 0.929 1_554 S
C1111 C1103 1.433 . S
C1111 N1113 1.384 . S
N1112 C1108 1.427 . S
N1112 C1109 1.384 . S
N1113 C1105 1.427 . S
N1113 C1111 1.384 . S
H1114 C1120 0.930 . S
H1115 C1124 0.930 . S
H1116 C1129 0.929 . S
H1117 C1127 0.929 . S
H1118 C1122 0.929 . S
H1119 C1128 0.929 . S
C1120 H1114 0.930 . S
C1120 C1121 1.367 . S
C1120 C1128 1.378 . S
C1121 C1120 1.367 . S
C1121 C1129 1.433 . S
C1122 H1118 0.929 . S
C1122 C1124 1.378 . S
C1122 C1126 1.350 . S
C1123 C1126 1.463 . S
C1123 C1128 1.350 . S
C1123 N1131 1.427 . S
C1124 H1115 0.930 . S
C1124 C1122 1.378 . S
C1124 C1125 1.367 . S
C1125 C1124 1.367 . S
C1125 C1127 1.433 . S
C1126 C1122 1.350 . S
C1126 C1123 1.463 . S
C1126 N1130 1.427 . S
C1127 H1117 0.929 . S
C1127 C1125 1.433 . S
C1127 N1130 1.384 . S
C1128 H1119 0.929 . S
C1128 C1120 1.378 . S
C1128 C1123 1.350 . S
C1129 H1116 0.929 . S
C1129 C1121 1.433 . S
C1129 N1131 1.384 . S
N1130 C1126 1.427 . S
N1130 C1127 1.384 . S
N1131 C1123 1.427 . S
N1131 C1129 1.384 . S
H1132 C1138 0.930 . S
H1133 C1142 0.930 . S
H1134 C1147 0.929 . S
H1135 C1145 0.929 . S
H1136 C1140 0.929 . S
H1137 C1146 0.929 . S
C1138 H1132 0.930 . S
C1138 C1139 1.367 . S
C1138 C1146 1.378 . S
C1139 C1138 1.367 . S
C1139 C1147 1.433 . S
C1140 H1136 0.929 . S
C1140 C1142 1.378 . S
C1140 C1144 1.350 . S
C1141 C1144 1.463 . S
C1141 C1146 1.350 . S
C1141 N1149 1.427 . S
C1142 H1133 0.930 . S
C1142 C1140 1.378 . S
C1142 C1143 1.367 . S
C1143 C1142 1.367 . S
C1143 C1145 1.433 . S
C1144 C1140 1.350 . S
C1144 C1141 1.463 . S
C1144 N1148 1.427 . S
C1145 H1135 0.929 . S
C1145 C1143 1.433 . S
C1145 N1148 1.384 . S
C1146 H1137 0.929 . S
C1146 C1138 1.378 . S
C1146 C1141 1.350 . S
C1147 H1134 0.929 . S
C1147 C1139 1.433 . S
C1147 N1149 1.384 . S
N1148 C1144 1.427 . S
N1148 C1145 1.384 . S
N1149 C1141 1.427 . S
N1149 C1147 1.384 . S
H1150 C1156 0.930 . S
H1151 C1160 0.930 . S
H1152 C1165 0.929 . S
H1153 C1163 0.929 . S
H1154 C1158 0.929 . S
H1155 C1164 0.929 . S
C1156 H1150 0.930 . S
C1156 C1157 1.367 . S
C1156 C1164 1.378 . S
C1157 C1156 1.367 . S
C1157 C1165 1.433 . S
C1158 H1154 0.929 . S
C1158 C1160 1.378 . S
C1158 C1162 1.350 . S
C1159 C1162 1.463 1_655 S
C1159 C1164 1.350 . S
C1159 N1167 1.427 . S
C1160 H1151 0.930 . S
C1160 C1158 1.378 . S
C1160 C1161 1.367 . S
C1161 C1160 1.367 . S
C1161 C1163 1.433 . S
C1162 C1158 1.350 . S
C1162 C1159 1.463 1_455 S
C1162 N1166 1.427 . S
C1163 H1153 0.929 . S
C1163 C1161 1.433 . S
C1163 N1166 1.384 . S
C1164 H1155 0.929 . S
C1164 C1156 1.378 . S
C1164 C1159 1.350 . S
C1165 H1152 0.929 . S
C1165 C1157 1.433 . S
C1165 N1167 1.384 . S
N1166 C1162 1.427 . S
N1166 C1163 1.384 . S
N1167 C1159 1.427 . S
N1167 C1165 1.384 . S
H1168 C1174 0.930 1_556 S
H1169 C1178 0.930 . S
H1170 C1183 0.929 . S
H1171 C1181 0.929 1_556 S
H1172 C1176 0.929 . S
H1173 C1182 0.929 1_556 S
C1174 H1168 0.930 1_554 S
C1174 C1175 1.367 . S
C1174 C1182 1.378 . S
C1175 C1174 1.367 . S
C1175 C1183 1.433 . S
C1176 H1172 0.929 . S
C1176 C1178 1.378 . S
C1176 C1180 1.350 . S
C1177 C1180 1.463 . S
C1177 C1182 1.350 . S
C1177 N1185 1.427 . S
C1178 H1169 0.930 . S
C1178 C1176 1.378 . S
C1178 C1179 1.367 . S
C1179 C1178 1.367 . S
C1179 C1181 1.433 . S
C1180 C1176 1.350 . S
C1180 C1177 1.463 . S
C1180 N1184 1.427 . S
C1181 H1171 0.929 1_554 S
C1181 C1179 1.433 . S
C1181 N1184 1.384 . S
C1182 H1173 0.929 1_554 S
C1182 C1174 1.378 . S
C1182 C1177 1.350 . S
C1183 H1170 0.929 . S
C1183 C1175 1.433 . S
C1183 N1185 1.384 . S
N1184 C1180 1.427 . S
N1184 C1181 1.384 . S
N1185 C1177 1.427 . S
N1185 C1183 1.384 . S
H1186 C1192 0.930 . S
H1187 C1196 0.930 . S
H1188 C1201 0.929 . S
H1189 C1199 0.929 . S
H1190 C1194 0.929 . S
H1191 C1200 0.929 . S
C1192 H1186 0.930 . S
C1192 C1193 1.367 . S
C1192 C1200 1.378 . S
C1193 C1192 1.367 . S
C1193 C1201 1.433 . S
C1194 H1190 0.929 . S
C1194 C1196 1.378 . S
C1194 C1198 1.350 . S
C1195 C1198 1.463 . S
C1195 C1200 1.350 . S
C1195 N1203 1.427 . S
C1196 H1187 0.930 . S
C1196 C1194 1.378 . S
C1196 C1197 1.367 . S
C1197 C1196 1.367 . S
C1197 C1199 1.433 . S
C1198 C1194 1.350 . S
C1198 C1195 1.463 . S
C1198 N1202 1.427 . S
C1199 H1189 0.929 . S
C1199 C1197 1.433 . S
C1199 N1202 1.384 . S
C1200 H1191 0.929 . S
C1200 C1192 1.378 . S
C1200 C1195 1.350 . S
C1201 H1188 0.929 . S
C1201 C1193 1.433 . S
C1201 N1203 1.384 . S
N1202 C1198 1.427 . S
N1202 C1199 1.384 . S
N1203 C1195 1.427 . S
N1203 C1201 1.384 . S
H1204 C1210 0.930 . S
H1205 C1214 0.930 . S
H1206 C1219 0.929 . S
H1207 C1217 0.929 . S
H1208 C1212 0.929 . S
H1209 C1218 0.929 . S
C1210 H1204 0.930 . S
C1210 C1211 1.367 . S
C1210 C1218 1.378 . S
C1211 C1210 1.367 . S
C1211 C1219 1.433 1_554 S
C1212 H1208 0.929 . S
C1212 C1214 1.378 . S
C1212 C1216 1.350 1_556 S
C1213 C1216 1.463 . S
C1213 C1218 1.350 . S
C1213 N1221 1.427 1_554 S
C1214 H1205 0.930 . S
C1214 C1212 1.378 . S
C1214 C1215 1.367 1_556 S
C1215 C1214 1.367 1_554 S
C1215 C1217 1.433 . S
C1216 C1212 1.350 1_554 S
C1216 C1213 1.463 . S
C1216 N1220 1.427 . S
C1217 H1207 0.929 . S
C1217 C1215 1.433 . S
C1217 N1220 1.384 . S
C1218 H1209 0.929 . S
C1218 C1210 1.378 . S
C1218 C1213 1.350 . S
C1219 H1206 0.929 . S
C1219 C1211 1.433 1_556 S
C1219 N1221 1.384 . S
N1220 C1216 1.427 . S
N1220 C1217 1.384 . S
N1221 C1213 1.427 1_556 S
N1221 C1219 1.384 . S
H1222 C1228 0.930 . S
H1223 C1232 0.930 . S
H1224 C1237 0.929 . S
H1225 C1235 0.929 . S
H1226 C1230 0.929 . S
H1227 C1236 0.929 . S
C1228 H1222 0.930 . S
C1228 C1229 1.367 . S
C1228 C1236 1.378 . S
C1229 C1228 1.367 . S
C1229 C1237 1.433 . S
C1230 H1226 0.929 . S
C1230 C1232 1.378 . S
C1230 C1234 1.350 . S
C1231 C1234 1.463 . S
C1231 C1236 1.350 . S
C1231 N1239 1.427 . S
C1232 H1223 0.930 . S
C1232 C1230 1.378 . S
C1232 C1233 1.367 . S
C1233 C1232 1.367 . S
C1233 C1235 1.433 . S
C1234 C1230 1.350 . S
C1234 C1231 1.463 . S
C1234 N1238 1.427 . S
C1235 H1225 0.929 . S
C1235 C1233 1.433 . S
C1235 N1238 1.384 . S
C1236 H1227 0.929 . S
C1236 C1228 1.378 . S
C1236 C1231 1.350 . S
C1237 H1224 0.929 . S
C1237 C1229 1.433 . S
C1237 N1239 1.384 . S
N1238 C1234 1.427 . S
N1238 C1235 1.384 . S
N1239 C1231 1.427 . S
N1239 C1237 1.384 . S
H1240 C1246 0.930 . S
H1241 C1250 0.930 . S
H1242 C1255 0.929 . S
H1243 C1253 0.929 . S
H1244 C1248 0.929 . S
H1245 C1254 0.929 . S
C1246 H1240 0.930 . S
C1246 C1247 1.367 . S
C1246 C1254 1.378 . S
C1247 C1246 1.367 . S
C1247 C1255 1.433 . S
C1248 H1244 0.929 . S
C1248 C1250 1.378 . S
C1248 C1252 1.350 . S
C1249 C1252 1.463 . S
C1249 C1254 1.350 . S
C1249 N1257 1.427 . S
C1250 H1241 0.930 . S
C1250 C1248 1.378 . S
C1250 C1251 1.367 . S
C1251 C1250 1.367 . S
C1251 C1253 1.433 . S
C1252 C1248 1.350 . S
C1252 C1249 1.463 . S
C1252 N1256 1.427 . S
C1253 H1243 0.929 . S
C1253 C1251 1.433 . S
C1253 N1256 1.384 . S
C1254 H1245 0.929 . S
C1254 C1246 1.378 . S
C1254 C1249 1.350 . S
C1255 H1242 0.929 . S
C1255 C1247 1.433 . S
C1255 N1257 1.384 . S
N1256 C1252 1.427 . S
N1256 C1253 1.384 . S
N1257 C1249 1.427 . S
N1257 C1255 1.384 . S
H1258 C1264 0.930 . S
H1259 C1268 0.930 . S
H1260 C1273 0.929 . S
H1261 C1271 0.929 . S
H1262 C1266 0.929 . S
H1263 C1272 0.929 . S
C1264 H1258 0.930 . S
C1264 C1265 1.367 . S
C1264 C1272 1.378 . S
C1265 C1264 1.367 . S
C1265 C1273 1.433 . S
C1266 H1262 0.929 . S
C1266 C1268 1.378 . S
C1266 C1270 1.350 . S
C1267 C1270 1.463 1_655 S
C1267 C1272 1.350 . S
C1267 N1275 1.427 . S
C1268 H1259 0.930 . S
C1268 C1266 1.378 . S
C1268 C1269 1.367 . S
C1269 C1268 1.367 . S
C1269 C1271 1.433 . S
C1270 C1266 1.350 . S
C1270 C1267 1.463 1_455 S
C1270 N1274 1.427 . S
C1271 H1261 0.929 . S
C1271 C1269 1.433 . S
C1271 N1274 1.384 . S
C1272 H1263 0.929 . S
C1272 C1264 1.378 . S
C1272 C1267 1.350 . S
C1273 H1260 0.929 . S
C1273 C1265 1.433 . S
C1273 N1275 1.384 . S
N1274 C1270 1.427 . S
N1274 C1271 1.384 . S
N1275 C1267 1.427 . S
N1275 C1273 1.384 . S
H1276 C1282 0.930 . S
H1277 C1286 0.930 . S
H1278 C1291 0.929 . S
H1279 C1289 0.929 . S
H1280 C1284 0.929 . S
H1281 C1290 0.929 . S
C1282 H1276 0.930 . S
C1282 C1283 1.367 . S
C1282 C1290 1.378 . S
C1283 C1282 1.367 . S
C1283 C1291 1.433 . S
C1284 H1280 0.929 . S
C1284 C1286 1.378 . S
C1284 C1288 1.350 . S
C1285 C1288 1.463 1_655 S
C1285 C1290 1.350 . S
C1285 N1293 1.427 . S
C1286 H1277 0.930 . S
C1286 C1284 1.378 . S
C1286 C1287 1.367 . S
C1287 C1286 1.367 . S
C1287 C1289 1.433 . S
C1288 C1284 1.350 . S
C1288 C1285 1.463 1_455 S
C1288 N1292 1.427 . S
C1289 H1279 0.929 . S
C1289 C1287 1.433 . S
C1289 N1292 1.384 . S
C1290 H1281 0.929 . S
C1290 C1282 1.378 . S
C1290 C1285 1.350 . S
C1291 H1278 0.929 . S
C1291 C1283 1.433 . S
C1291 N1293 1.384 . S
N1292 C1288 1.427 . S
N1292 C1289 1.384 . S
N1293 C1285 1.427 . S
N1293 C1291 1.384 . S
H1294 C1300 0.930 . S
H1295 C1304 0.930 . S
H1296 C1309 0.929 . S
H1297 C1307 0.929 . S
H1298 C1302 0.929 . S
H1299 C1308 0.929 . S
C1300 H1294 0.930 . S
C1300 C1301 1.367 . S
C1300 C1308 1.378 . S
C1301 C1300 1.367 . S
C1301 C1309 1.433 . S
C1302 H1298 0.929 . S
C1302 C1304 1.378 . S
C1302 C1306 1.350 . S
C1303 C1306 1.463 . S
C1303 C1308 1.350 . S
C1303 N1311 1.427 . S
C1304 H1295 0.930 . S
C1304 C1302 1.378 . S
C1304 C1305 1.367 . S
C1305 C1304 1.367 . S
C1305 C1307 1.433 . S
C1306 C1302 1.350 . S
C1306 C1303 1.463 . S
C1306 N1310 1.427 . S
C1307 H1297 0.929 . S
C1307 C1305 1.433 . S
C1307 N1310 1.384 . S
C1308 H1299 0.929 . S
C1308 C1300 1.378 . S
C1308 C1303 1.350 . S
C1309 H1296 0.929 . S
C1309 C1301 1.433 . S
C1309 N1311 1.384 . S
N1310 C1306 1.427 . S
N1310 C1307 1.384 . S
N1311 C1303 1.427 . S
N1311 C1309 1.384 . S
H1312 C1318 0.930 . S
H1313 C1322 0.930 . S
H1314 C1327 0.929 . S
H1315 C1325 0.929 . S
H1316 C1320 0.929 . S
H1317 C1326 0.929 . S
C1318 H1312 0.930 . S
C1318 C1319 1.367 . S
C1318 C1326 1.378 . S
C1319 C1318 1.367 . S
C1319 C1327 1.433 . S
C1320 H1316 0.929 . S
C1320 C1322 1.378 . S
C1320 C1324 1.350 . S
C1321 C1324 1.463 . S
C1321 C1326 1.350 . S
C1321 N1329 1.427 . S
C1322 H1313 0.930 . S
C1322 C1320 1.378 . S
C1322 C1323 1.367 . S
C1323 C1322 1.367 . S
C1323 C1325 1.433 . S
C1324 C1320 1.350 . S
C1324 C1321 1.463 . S
C1324 N1328 1.427 . S
C1325 H1315 0.929 . S
C1325 C1323 1.433 . S
C1325 N1328 1.384 . S
C1326 H1317 0.929 . S
C1326 C1318 1.378 . S
C1326 C1321 1.350 . S
C1327 H1314 0.929 . S
C1327 C1319 1.433 . S
C1327 N1329 1.384 . S
N1328 C1324 1.427 . S
N1328 C1325 1.384 . S
N1329 C1321 1.427 . S
N1329 C1327 1.384 . S
H1330 C1336 0.930 . S
H1331 C1340 0.930 . S
H1332 C1345 0.929 . S
H1333 C1343 0.929 . S
H1334 C1338 0.929 . S
H1335 C1344 0.929 . S
C1336 H1330 0.930 . S
C1336 C1337 1.367 . S
C1336 C1344 1.378 . S
C1337 C1336 1.367 . S
C1337 C1345 1.433 . S
C1338 H1334 0.929 . S
C1338 C1340 1.378 . S
C1338 C1342 1.350 . S
C1339 C1342 1.463 1_565 S
C1339 C1344 1.350 . S
C1339 N1347 1.444 . S
C1340 H1331 0.930 . S
C1340 C1338 1.378 . S
C1340 C1341 1.367 . S
C1341 C1340 1.367 . S
C1341 C1343 1.433 . S
C1342 C1338 1.350 . S
C1342 C1339 1.463 1_545 S
C1342 N1346 1.444 . S
C1343 H1333 0.929 . S
C1343 C1341 1.433 . S
C1343 N1346 1.417 . S
C1344 H1335 0.929 . S
C1344 C1336 1.378 . S
C1344 C1339 1.350 . S
C1345 H1332 0.929 . S
C1345 C1337 1.433 . S
C1345 N1347 1.417 . S
N1346 C1342 1.444 . S
N1346 C1343 1.417 . S
N1347 C1339 1.444 . S
N1347 C1345 1.417 . S
H1348 C1354 0.930 . S
H1349 C1358 0.930 . S
H1350 C1363 0.929 . S
H1351 C1361 0.929 . S
H1352 C1356 0.929 . S
H1353 C1362 0.929 . S
C1354 H1348 0.930 . S
C1354 C1355 1.367 . S
C1354 C1362 1.378 . S
C1355 C1354 1.367 . S
C1355 C1363 1.433 . S
C1356 H1352 0.929 . S
C1356 C1358 1.378 . S
C1356 C1360 1.350 . S
C1357 C1360 1.463 . S
C1357 C1362 1.350 . S
C1357 N1365 1.427 . S
C1358 H1349 0.930 . S
C1358 C1356 1.378 . S
C1358 C1359 1.367 . S
C1359 C1358 1.367 . S
C1359 C1361 1.433 . S
C1360 C1356 1.350 . S
C1360 C1357 1.463 . S
C1360 N1364 1.427 . S
C1361 H1351 0.929 . S
C1361 C1359 1.433 . S
C1361 N1364 1.384 . S
C1362 H1353 0.929 . S
C1362 C1354 1.378 . S
C1362 C1357 1.350 . S
C1363 H1350 0.929 . S
C1363 C1355 1.433 . S
C1363 N1365 1.384 . S
N1364 C1360 1.427 . S
N1364 C1361 1.384 . S
N1365 C1357 1.427 . S
N1365 C1363 1.384 . S
H1366 C1372 0.930 . S
H1367 C1376 0.930 . S
H1368 C1381 0.929 . S
H1369 C1379 0.929 . S
H1370 C1374 0.929 . S
H1371 C1380 0.929 . S
C1372 H1366 0.930 . S
C1372 C1373 1.367 . S
C1372 C1380 1.378 1_556 S
C1373 C1372 1.367 . S
C1373 C1381 1.433 . S
C1374 H1370 0.929 . S
C1374 C1376 1.378 . S
C1374 C1378 1.350 . S
C1375 C1378 1.463 1_545 S
C1375 C1380 1.350 . S
C1375 N1383 1.407 1_544 S
C1376 H1367 0.930 . S
C1376 C1374 1.378 . S
C1376 C1377 1.367 . S
C1377 C1376 1.367 . S
C1377 C1379 1.433 . S
C1378 C1374 1.350 . S
C1378 C1375 1.463 1_565 S
C1378 N1382 1.407 1_565 S
C1379 H1369 0.929 . S
C1379 C1377 1.433 . S
C1379 N1382 1.351 1_565 S
C1380 H1371 0.929 . S
C1380 C1372 1.378 1_554 S
C1380 C1375 1.350 . S
C1381 H1368 0.929 . S
C1381 C1373 1.433 . S
C1381 N1383 1.351 1_545 S
N1382 C1378 1.407 1_545 S
N1382 C1379 1.351 1_545 S
N1383 C1375 1.407 1_566 S
N1383 C1381 1.351 1_565 S
H1384 C1390 0.930 . S
H1385 C1394 0.930 . S
H1386 C1399 0.929 . S
H1387 C1397 0.929 . S
H1388 C1392 0.929 . S
H1389 C1398 0.929 . S
C1390 H1384 0.930 . S
C1390 C1391 1.367 . S
C1390 C1398 1.378 . S
C1391 C1390 1.367 . S
C1391 C1399 1.433 . S
C1392 H1388 0.929 . S
C1392 C1394 1.378 . S
C1392 C1396 1.350 . S
C1393 C1396 1.463 . S
C1393 C1398 1.350 . S
C1393 N1401 1.427 . S
C1394 H1385 0.930 . S
C1394 C1392 1.378 . S
C1394 C1395 1.367 . S
C1395 C1394 1.367 . S
C1395 C1397 1.433 . S
C1396 C1392 1.350 . S
C1396 C1393 1.463 . S
C1396 N1400 1.427 . S
C1397 H1387 0.929 . S
C1397 C1395 1.433 . S
C1397 N1400 1.384 . S
C1398 H1389 0.929 . S
C1398 C1390 1.378 . S
C1398 C1393 1.350 . S
C1399 H1386 0.929 . S
C1399 C1391 1.433 . S
C1399 N1401 1.384 . S
N1400 C1396 1.427 . S
N1400 C1397 1.384 . S
N1401 C1393 1.427 . S
N1401 C1399 1.384 . S
H1402 C1408 0.930 . S
H1403 C1412 0.930 . S
H1404 C1417 0.929 . S
H1405 C1415 0.929 . S
H1406 C1410 0.929 . S
H1407 C1416 0.929 . S
C1408 H1402 0.930 . S
C1408 C1409 1.367 . S
C1408 C1416 1.378 . S
C1409 C1408 1.367 . S
C1409 C1417 1.433 . S
C1410 H1406 0.929 . S
C1410 C1412 1.378 . S
C1410 C1414 1.350 . S
C1411 C1414 1.463 1_545 S
C1411 C1416 1.350 . S
C1411 N1419 1.427 1_545 S
C1412 H1403 0.930 . S
C1412 C1410 1.378 . S
C1412 C1413 1.367 . S
C1413 C1412 1.367 . S
C1413 C1415 1.433 . S
C1414 C1410 1.350 . S
C1414 C1411 1.463 1_565 S
C1414 N1418 1.427 1_565 S
C1415 H1405 0.929 . S
C1415 C1413 1.433 . S
C1415 N1418 1.384 1_565 S
C1416 H1407 0.929 . S
C1416 C1408 1.378 . S
C1416 C1411 1.350 . S
C1417 H1404 0.929 . S
C1417 C1409 1.433 . S
C1417 N1419 1.384 1_545 S
N1418 C1414 1.427 1_545 S
N1418 C1415 1.384 1_545 S
N1419 C1411 1.427 1_565 S
N1419 C1417 1.384 1_565 S
H1420 C1426 0.930 . S
H1421 C1430 0.930 . S
H1422 C1435 0.929 . S
H1423 C1433 0.929 . S
H1424 C1428 0.929 . S
H1425 C1434 0.929 . S
C1426 H1420 0.930 . S
C1426 C1427 1.367 . S
C1426 C1434 1.378 . S
C1427 C1426 1.367 . S
C1427 C1435 1.433 . S
C1428 H1424 0.929 . S
C1428 C1430 1.378 . S
C1428 C1432 1.350 . S
C1429 C1432 1.463 . S
C1429 C1434 1.350 . S
C1429 N1437 1.427 . S
C1430 H1421 0.930 . S
C1430 C1428 1.378 . S
C1430 C1431 1.367 . S
C1431 C1430 1.367 . S
C1431 C1433 1.433 . S
C1432 C1428 1.350 . S
C1432 C1429 1.463 . S
C1432 N1436 1.427 . S
C1433 H1423 0.929 . S
C1433 C1431 1.433 . S
C1433 N1436 1.384 . S
C1434 H1425 0.929 . S
C1434 C1426 1.378 . S
C1434 C1429 1.350 . S
C1435 H1422 0.929 . S
C1435 C1427 1.433 . S
C1435 N1437 1.384 . S
N1436 C1432 1.427 . S
N1436 C1433 1.384 . S
N1437 C1429 1.427 . S
N1437 C1435 1.384 . S
H1438 C1444 0.930 . S
H1439 C1448 0.930 . S
H1440 C1453 0.929 . S
H1441 C1451 0.929 . S
H1442 C1446 0.929 1_565 S
H1443 C1452 0.929 1_545 S
C1444 H1438 0.930 . S
C1444 C1445 1.367 . S
C1444 C1452 1.378 . S
C1445 C1444 1.367 . S
C1445 C1453 1.433 . S
C1446 H1442 0.929 1_545 S
C1446 C1448 1.378 . S
C1446 C1450 1.350 1_556 S
C1447 C1450 1.463 1_565 S
C1447 C1452 1.350 . S
C1447 N1455 1.427 . S
C1448 H1439 0.930 . S
C1448 C1446 1.378 . S
C1448 C1449 1.367 . S
C1449 C1448 1.367 . S
C1449 C1451 1.433 . S
C1450 C1446 1.350 1_554 S
C1450 C1447 1.463 1_545 S
C1450 N1454 1.427 . S
C1451 H1441 0.929 . S
C1451 C1449 1.433 . S
C1451 N1454 1.384 1_556 S
C1452 H1443 0.929 1_565 S
C1452 C1444 1.378 . S
C1452 C1447 1.350 . S
C1453 H1440 0.929 . S
C1453 C1445 1.433 . S
C1453 N1455 1.384 . S
N1454 C1450 1.427 . S
N1454 C1451 1.384 1_554 S
N1455 C1447 1.427 . S
N1455 C1453 1.384 . S
H1456 C1462 0.930 . S
H1457 C1466 0.930 . S
H1458 C1471 0.929 . S
H1459 C1469 0.929 . S
H1460 C1464 0.929 . S
H1461 C1470 0.929 . S
C1462 H1456 0.930 . S
C1462 C1463 1.367 . S
C1462 C1470 1.378 . S
C1463 C1462 1.367 . S
C1463 C1471 1.433 . S
C1464 H1460 0.929 . S
C1464 C1466 1.378 . S
C1464 C1468 1.350 . S
C1465 C1468 1.463 . S
C1465 C1470 1.350 . S
C1465 N1473 1.427 . S
C1466 H1457 0.930 . S
C1466 C1464 1.378 . S
C1466 C1467 1.367 . S
C1467 C1466 1.367 . S
C1467 C1469 1.433 . S
C1468 C1464 1.350 . S
C1468 C1465 1.463 . S
C1468 N1472 1.427 . S
C1469 H1459 0.929 . S
C1469 C1467 1.433 . S
C1469 N1472 1.384 . S
C1470 H1461 0.929 . S
C1470 C1462 1.378 . S
C1470 C1465 1.350 . S
C1471 H1458 0.929 . S
C1471 C1463 1.433 . S
C1471 N1473 1.384 . S
N1472 C1468 1.427 . S
N1472 C1469 1.384 . S
N1473 C1465 1.427 . S
N1473 C1471 1.384 . S
H1474 C1480 0.930 . S
H1475 C1484 0.930 . S
H1476 C1489 0.929 . S
H1477 C1487 0.929 . S
H1478 C1482 0.929 . S
H1479 C1488 0.929 . S
C1480 H1474 0.930 . S
C1480 C1481 1.367 . S
C1480 C1488 1.378 . S
C1481 C1480 1.367 . S
C1481 C1489 1.433 . S
C1482 H1478 0.929 . S
C1482 C1484 1.378 . S
C1482 C1486 1.350 1_556 S
C1483 C1486 1.463 . S
C1483 C1488 1.350 . S
C1483 N1491 1.427 . S
C1484 H1475 0.930 . S
C1484 C1482 1.378 . S
C1484 C1485 1.367 . S
C1485 C1484 1.367 . S
C1485 C1487 1.433 . S
C1486 C1482 1.350 1_554 S
C1486 C1483 1.463 . S
C1486 N1490 1.427 . S
C1487 H1477 0.929 . S
C1487 C1485 1.433 . S
C1487 N1490 1.384 1_556 S
C1488 H1479 0.929 . S
C1488 C1480 1.378 . S
C1488 C1483 1.350 . S
C1489 H1476 0.929 . S
C1489 C1481 1.433 . S
C1489 N1491 1.384 . S
N1490 C1486 1.427 . S
N1490 C1487 1.384 1_554 S
N1491 C1483 1.427 . S
N1491 C1489 1.384 . S
H1492 C1498 0.930 . S
H1493 C1502 0.930 . S
H1494 C1507 0.929 . S
H1495 C1505 0.929 . S
H1496 C1500 0.929 . S
H1497 C1506 0.929 . S
C1498 H1492 0.930 . S
C1498 C1499 1.367 . S
C1498 C1506 1.378 . S
C1499 C1498 1.367 . S
C1499 C1507 1.433 . S
C1500 H1496 0.929 . S
C1500 C1502 1.378 . S
C1500 C1504 1.350 . S
C1501 C1504 1.463 . S
C1501 C1506 1.350 . S
C1501 N1509 1.427 . S
C1502 H1493 0.930 . S
C1502 C1500 1.378 . S
C1502 C1503 1.367 . S
C1503 C1502 1.367 . S
C1503 C1505 1.433 . S
C1504 C1500 1.350 . S
C1504 C1501 1.463 . S
C1504 N1508 1.427 . S
C1505 H1495 0.929 . S
C1505 C1503 1.433 . S
C1505 N1508 1.384 . S
C1506 H1497 0.929 . S
C1506 C1498 1.378 . S
C1506 C1501 1.350 . S
C1507 H1494 0.929 . S
C1507 C1499 1.433 . S
C1507 N1509 1.384 . S
N1508 C1504 1.427 . S
N1508 C1505 1.384 . S
N1509 C1501 1.427 . S
N1509 C1507 1.384 . S
H1510 C1516 0.930 . S
H1511 C1520 0.930 . S
H1512 C1525 0.929 . S
H1513 C1523 0.929 . S
H1514 C1518 0.929 . S
H1515 C1524 0.929 . S
C1516 H1510 0.930 . S
C1516 C1517 1.367 . S
C1516 C1524 1.378 . S
C1517 C1516 1.367 . S
C1517 C1525 1.433 . S
C1518 H1514 0.929 . S
C1518 C1520 1.378 . S
C1518 C1522 1.350 . S
C1519 C1522 1.463 . S
C1519 C1524 1.350 . S
C1519 N1527 1.427 . S
C1520 H1511 0.930 . S
C1520 C1518 1.378 . S
C1520 C1521 1.367 . S
C1521 C1520 1.367 . S
C1521 C1523 1.433 . S
C1522 C1518 1.350 . S
C1522 C1519 1.463 . S
C1522 N1526 1.427 . S
C1523 H1513 0.929 . S
C1523 C1521 1.433 . S
C1523 N1526 1.384 . S
C1524 H1515 0.929 . S
C1524 C1516 1.378 . S
C1524 C1519 1.350 . S
C1525 H1512 0.929 . S
C1525 C1517 1.433 . S
C1525 N1527 1.384 . S
N1526 C1522 1.427 . S
N1526 C1523 1.384 . S
N1527 C1519 1.427 . S
N1527 C1525 1.384 . S
H1528 C1534 0.930 . S
H1529 C1538 0.930 . S
H1530 C1543 0.929 . S
H1531 C1541 0.929 . S
H1532 C1536 0.929 . S
H1533 C1542 0.929 . S
C1534 H1528 0.930 . S
C1534 C1535 1.367 . S
C1534 C1542 1.378 . S
C1535 C1534 1.367 . S
C1535 C1543 1.433 . S
C1536 H1532 0.929 . S
C1536 C1538 1.378 . S
C1536 C1540 1.350 . S
C1537 C1540 1.463 . S
C1537 C1542 1.350 . S
C1537 N1545 1.427 . S
C1538 H1529 0.930 . S
C1538 C1536 1.378 . S
C1538 C1539 1.367 . S
C1539 C1538 1.367 . S
C1539 C1541 1.433 . S
C1540 C1536 1.350 . S
C1540 C1537 1.463 . S
C1540 N1544 1.427 . S
C1541 H1531 0.929 . S
C1541 C1539 1.433 . S
C1541 N1544 1.384 . S
C1542 H1533 0.929 . S
C1542 C1534 1.378 . S
C1542 C1537 1.350 . S
C1543 H1530 0.929 . S
C1543 C1535 1.433 . S
C1543 N1545 1.384 . S
N1544 C1540 1.427 . S
N1544 C1541 1.384 . S
N1545 C1537 1.427 . S
N1545 C1543 1.384 . S
H1546 C1552 0.930 . S
H1547 C1556 0.930 . S
H1548 C1561 0.929 . S
H1549 C1559 0.929 . S
H1550 C1554 0.929 . S
H1551 C1560 0.929 . S
C1552 H1546 0.930 . S
C1552 C1553 1.367 . S
C1552 C1560 1.378 . S
C1553 C1552 1.367 . S
C1553 C1561 1.433 . S
C1554 H1550 0.929 . S
C1554 C1556 1.378 . S
C1554 C1558 1.350 . S
C1555 C1558 1.463 . S
C1555 C1560 1.350 1_554 S
C1555 N1563 1.427 . S
C1556 H1547 0.930 . S
C1556 C1554 1.378 . S
C1556 C1557 1.367 . S
C1557 C1556 1.367 . S
C1557 C1559 1.433 . S
C1558 C1554 1.350 . S
C1558 C1555 1.463 . S
C1558 N1562 1.427 . S
C1559 H1549 0.929 . S
C1559 C1557 1.433 . S
C1559 N1562 1.384 . S
C1560 H1551 0.929 . S
C1560 C1552 1.378 . S
C1560 C1555 1.350 1_556 S
C1561 H1548 0.929 . S
C1561 C1553 1.433 . S
C1561 N1563 1.384 1_556 S
N1562 C1558 1.427 . S
N1562 C1559 1.384 . S
N1563 C1555 1.427 . S
N1563 C1561 1.384 1_554 S
H1564 C1570 0.930 . S
H1565 C1574 0.930 . S
H1566 C1579 0.929 . S
H1567 C1577 0.929 . S
H1568 C1572 0.929 . S
H1569 C1578 0.929 . S
C1570 H1564 0.930 . S
C1570 C1571 1.367 . S
C1570 C1578 1.378 . S
C1571 C1570 1.367 . S
C1571 C1579 1.433 . S
C1572 H1568 0.929 . S
C1572 C1574 1.378 . S
C1572 C1576 1.350 . S
C1573 C1576 1.463 . S
C1573 C1578 1.350 . S
C1573 N1581 1.427 . S
C1574 H1565 0.930 . S
C1574 C1572 1.378 . S
C1574 C1575 1.367 . S
C1575 C1574 1.367 . S
C1575 C1577 1.433 . S
C1576 C1572 1.350 . S
C1576 C1573 1.463 . S
C1576 N1580 1.427 . S
C1577 H1567 0.929 . S
C1577 C1575 1.433 . S
C1577 N1580 1.384 . S
C1578 H1569 0.929 . S
C1578 C1570 1.378 . S
C1578 C1573 1.350 . S
C1579 H1566 0.929 . S
C1579 C1571 1.433 . S
C1579 N1581 1.384 . S
N1580 C1576 1.427 . S
N1580 C1577 1.384 . S
N1581 C1573 1.427 . S
N1581 C1579 1.384 . S
H1582 C1588 0.930 . S
H1583 C1592 0.930 . S
H1584 C1597 0.929 . S
H1585 C1595 0.929 . S
H1586 C1590 0.929 . S
H1587 C1596 0.929 . S
C1588 H1582 0.930 . S
C1588 C1589 1.367 . S
C1588 C1596 1.378 . S
C1589 C1588 1.367 . S
C1589 C1597 1.433 . S
C1590 H1586 0.929 . S
C1590 C1592 1.378 . S
C1590 C1594 1.350 . S
C1591 C1594 1.463 . S
C1591 C1596 1.350 . S
C1591 N1599 1.427 . S
C1592 H1583 0.930 . S
C1592 C1590 1.378 . S
C1592 C1593 1.367 . S
C1593 C1592 1.367 . S
C1593 C1595 1.433 . S
C1594 C1590 1.350 . S
C1594 C1591 1.463 . S
C1594 N1598 1.427 . S
C1595 H1585 0.929 . S
C1595 C1593 1.433 . S
C1595 N1598 1.384 . S
C1596 H1587 0.929 . S
C1596 C1588 1.378 . S
C1596 C1591 1.350 . S
C1597 H1584 0.929 . S
C1597 C1589 1.433 . S
C1597 N1599 1.384 . S
N1598 C1594 1.427 . S
N1598 C1595 1.384 . S
N1599 C1591 1.427 . S
N1599 C1597 1.384 . S
C455 C109 1.395 . S
C459 C11 1.390 1_556 S
C473 C25 1.394 . S
C477 C67 1.390 . S
C491 C81 1.397 . S
C495 C39 1.396 . S
C509 C53 1.390 . S
C513 C95 1.390 . S
C527 C123 1.396 . S
C531 C221 1.397 . S
C545 C137 1.397 . S
C549 C179 1.396 1_556 S
C563 C151 1.395 . S
C567 C193 1.397 . S
C581 C165 1.390 . S
C585 C207 1.390 . S
C599 C235 1.390 . S
C603 C333 1.390 . S
C617 C249 1.392 . S
C621 C291 1.389 . S
C635 C305 1.397 . S
C639 C263 1.392 1_556 S
C653 C319 1.395 . S
C657 C277 1.397 . S
C671 C347 1.396 . S
C675 C445 1.391 . S
C689 C403 1.389 . S
C693 C361 1.391 . S
C707 C417 1.395 . S
C711 C375 1.390 . S
C725 C389 1.391 . S
C729 C431 1.396 1_556 S
C743 C13 0.820 . S
C747 C97 0.830 . S
C761 C27 0.836 . S
C765 C111 0.853 . S
C779 C69 0.853 . S
C783 C41 0.838 . S
C797 C55 0.846 . S
C801 C83 0.853 . S
C815 C125 0.845 . S
C819 C209 0.853 . S
C833 C139 0.853 . S
C837 C223 0.841 . S
C851 C181 0.823 . S
C855 C153 0.842 . S
C869 C195 0.830 . S
C873 C167 0.849 . S
C887 C237 0.828 . S
C891 C321 0.848 . S
C905 C335 0.827 . S
C909 C251 0.821 . S
C923 C293 0.847 . S
C927 C265 0.827 . S
C941 C279 0.821 . S
C945 C307 0.838 . S
C959 C349 0.850 . S
C963 C433 0.851 . S
C977 C363 0.854 . S
C981 C447 0.843 . S
C995 C405 0.836 . S
C999 C377 0.821 . S
C1013 C419 0.844 . S
C1017 C391 0.853 . S
C1031 C8 1.251 . S
C1035 C428 1.246 . S
C1049 C22 1.257 . S
C1053 C218 1.239 . S
C1067 C36 1.254 . S
C1071 C400 1.243 . S
C1085 C50 1.258 . S
C1089 C190 1.239 . S
C1103 C64 1.248 . S
C1107 C372 1.249 . S
C1121 C78 1.244 . S
C1125 C162 1.252 . S
C1139 C92 1.252 . S
C1143 C344 1.245 . S
C1157 C134 1.244 . S
C1161 C106 1.253 . S
C1175 C316 1.249 . S
C1179 C120 1.248 . S
C1193 C148 1.257 . S
C1197 C288 1.239 . S
C1211 C260 1.248 . S
C1215 C176 1.249 . S
C1229 C232 1.247 . S
C1233 C204 1.250 . S
C1247 C246 1.258 . S
C1251 C442 1.238 . S
C1265 C274 1.256 . S
C1269 C414 1.241 . S
C1283 C302 1.255 . S
C1287 C386 1.242 . S
C1301 C358 1.238 . S
C1305 C330 1.259 . S
C1319 C7 1.673 . S
C1323 C91 1.678 . S
C1337 C21 1.681 . S
C1341 C105 1.678 . S
C1355 C63 1.681 . S
C1359 C35 1.678 . S
C1373 C49 1.681 . S
C1377 C77 1.679 . S
C1391 C119 1.681 . S
C1395 C203 1.677 . S
C1409 C133 1.680 . S
C1413 C217 1.681 . S
C1427 C175 1.680 . S
C1431 C147 1.676 . S
C1445 C161 1.674 . S
C1449 C189 1.670 . S
C1463 C315 1.675 . S
C1467 C231 1.680 . S
C1481 C329 1.670 . S
C1485 C245 1.673 . S
C1499 C287 1.678 . S
C1503 C259 1.673 . S
C1517 C301 1.670 . S
C1521 C273 1.674 . S
C1535 C427 1.669 . S
C1539 C343 1.672 . S
C1553 C441 1.673 . S
C1557 C357 1.670 . S
C1571 C371 1.672 . S
C1575 C399 1.677 . S
C1589 C413 1.681 . S
C1593 C385 1.681 . S
