# Generated by pormake.
# Topology ukp, (4)-cn, num edge types: 1
# Building blocks:
#     Node 0, Type 0, BuildingBlock: ESEHIV_clean_sbu_0, # of connection points: 4
#     Node 1, Type 0, BuildingBlock: ESEHIV_clean_sbu_0, # of connection points: 4
#     Node 2, Type 0, BuildingBlock: ESEHIV_clean_sbu_0, # of connection points: 4
#     Node 3, Type 0, BuildingBlock: ESEHIV_clean_sbu_0, # of connection points: 4
#     Node 4, Type 0, BuildingBlock: ESEHIV_clean_sbu_0, # of connection points: 4
#     Node 5, Type 0, BuildingBlock: ESEHIV_clean_sbu_0, # of connection points: 4
#     Node 6, Type 0, BuildingBlock: ESEHIV_clean_sbu_0, # of connection points: 4
#     Node 7, Type 0, BuildingBlock: ESEHIV_clean_sbu_0, # of connection points: 4
#     Node 8, Type 0, BuildingBlock: ESEHIV_clean_sbu_0, # of connection points: 4
#     Node 9, Type 0, BuildingBlock: ESEHIV_clean_sbu_0, # of connection points: 4
#     Node 10, Type 0, BuildingBlock: ESEHIV_clean_sbu_0, # of connection points: 4
#     Node 11, Type 0, BuildingBlock: ESEHIV_clean_sbu_0, # of connection points: 4
#     Node 12, Type 0, BuildingBlock: ESEHIV_clean_sbu_0, # of connection points: 4
#     Node 13, Type 0, BuildingBlock: ESEHIV_clean_sbu_0, # of connection points: 4
#     Node 14, Type 0, BuildingBlock: ESEHIV_clean_sbu_0, # of connection points: 4
#     Node 15, Type 0, BuildingBlock: ESEHIV_clean_sbu_0, # of connection points: 4
#     Node 16, Type 0, BuildingBlock: ESEHIV_clean_sbu_0, # of connection points: 4
#     Node 17, Type 0, BuildingBlock: ESEHIV_clean_sbu_0, # of connection points: 4
#     Node 18, Type 0, BuildingBlock: ESEHIV_clean_sbu_0, # of connection points: 4
#     Node 19, Type 0, BuildingBlock: ESEHIV_clean_sbu_0, # of connection points: 4
#     Node 20, Type 0, BuildingBlock: ESEHIV_clean_sbu_0, # of connection points: 4
#     Node 21, Type 0, BuildingBlock: ESEHIV_clean_sbu_0, # of connection points: 4
#     Node 22, Type 0, BuildingBlock: ESEHIV_clean_sbu_0, # of connection points: 4
#     Node 23, Type 0, BuildingBlock: ESEHIV_clean_sbu_0, # of connection points: 4
#     Node 24, Type 0, BuildingBlock: ESEHIV_clean_sbu_0, # of connection points: 4
#     Node 25, Type 0, BuildingBlock: ESEHIV_clean_sbu_0, # of connection points: 4
#     Node 26, Type 0, BuildingBlock: ESEHIV_clean_sbu_0, # of connection points: 4
#     Node 27, Type 0, BuildingBlock: ESEHIV_clean_sbu_0, # of connection points: 4
#     Node 28, Type 0, BuildingBlock: ESEHIV_clean_sbu_0, # of connection points: 4
#     Node 29, Type 0, BuildingBlock: ESEHIV_clean_sbu_0, # of connection points: 4
#     Node 30, Type 0, BuildingBlock: ESEHIV_clean_sbu_0, # of connection points: 4
#     Node 31, Type 0, BuildingBlock: ESEHIV_clean_sbu_0, # of connection points: 4
#     Node 32, Type 0, BuildingBlock: ESEHIV_clean_sbu_0, # of connection points: 4
#     Node 33, Type 0, BuildingBlock: ESEHIV_clean_sbu_0, # of connection points: 4
#     Node 34, Type 0, BuildingBlock: ESEHIV_clean_sbu_0, # of connection points: 4
#     Node 35, Type 0, BuildingBlock: ESEHIV_clean_sbu_0, # of connection points: 4
#     Node 36, Type 0, BuildingBlock: ESEHIV_clean_sbu_0, # of connection points: 4
#     Node 37, Type 0, BuildingBlock: ESEHIV_clean_sbu_0, # of connection points: 4
#     Node 38, Type 0, BuildingBlock: ESEHIV_clean_sbu_0, # of connection points: 4
#     Node 39, Type 0, BuildingBlock: ESEHIV_clean_sbu_0, # of connection points: 4
#     Node 40, Type 0, BuildingBlock: ESEHIV_clean_sbu_0, # of connection points: 4
#     Node 41, Type 0, BuildingBlock: ESEHIV_clean_sbu_0, # of connection points: 4
#     Node 42, Type 0, BuildingBlock: ESEHIV_clean_sbu_0, # of connection points: 4
#     Node 43, Type 0, BuildingBlock: ESEHIV_clean_sbu_0, # of connection points: 4
#     Node 44, Type 0, BuildingBlock: ESEHIV_clean_sbu_0, # of connection points: 4
#     Node 45, Type 0, BuildingBlock: ESEHIV_clean_sbu_0, # of connection points: 4
#     Node 46, Type 0, BuildingBlock: ESEHIV_clean_sbu_0, # of connection points: 4
#     Node 47, Type 0, BuildingBlock: ESEHIV_clean_sbu_0, # of connection points: 4
#     Edge 48, Type (0, 0), BuildingBlock: CIFDUS_clean_linker_0, # of connection points: 2
#     Edge 49, Type (0, 0), BuildingBlock: CIFDUS_clean_linker_0, # of connection points: 2
#     Edge 50, Type (0, 0), BuildingBlock: CIFDUS_clean_linker_0, # of connection points: 2
#     Edge 51, Type (0, 0), BuildingBlock: CIFDUS_clean_linker_0, # of connection points: 2
#     Edge 52, Type (0, 0), BuildingBlock: CIFDUS_clean_linker_0, # of connection points: 2
#     Edge 53, Type (0, 0), BuildingBlock: CIFDUS_clean_linker_0, # of connection points: 2
#     Edge 54, Type (0, 0), BuildingBlock: CIFDUS_clean_linker_0, # of connection points: 2
#     Edge 55, Type (0, 0), BuildingBlock: CIFDUS_clean_linker_0, # of connection points: 2
#     Edge 56, Type (0, 0), BuildingBlock: CIFDUS_clean_linker_0, # of connection points: 2
#     Edge 57, Type (0, 0), BuildingBlock: CIFDUS_clean_linker_0, # of connection points: 2
#     Edge 58, Type (0, 0), BuildingBlock: CIFDUS_clean_linker_0, # of connection points: 2
#     Edge 59, Type (0, 0), BuildingBlock: CIFDUS_clean_linker_0, # of connection points: 2
#     Edge 60, Type (0, 0), BuildingBlock: CIFDUS_clean_linker_0, # of connection points: 2
#     Edge 61, Type (0, 0), BuildingBlock: CIFDUS_clean_linker_0, # of connection points: 2
#     Edge 62, Type (0, 0), BuildingBlock: CIFDUS_clean_linker_0, # of connection points: 2
#     Edge 63, Type (0, 0), BuildingBlock: CIFDUS_clean_linker_0, # of connection points: 2
#     Edge 64, Type (0, 0), BuildingBlock: CIFDUS_clean_linker_0, # of connection points: 2
#     Edge 65, Type (0, 0), BuildingBlock: CIFDUS_clean_linker_0, # of connection points: 2
#     Edge 66, Type (0, 0), BuildingBlock: CIFDUS_clean_linker_0, # of connection points: 2
#     Edge 67, Type (0, 0), BuildingBlock: CIFDUS_clean_linker_0, # of connection points: 2
#     Edge 68, Type (0, 0), BuildingBlock: CIFDUS_clean_linker_0, # of connection points: 2
#     Edge 69, Type (0, 0), BuildingBlock: CIFDUS_clean_linker_0, # of connection points: 2
#     Edge 70, Type (0, 0), BuildingBlock: CIFDUS_clean_linker_0, # of connection points: 2
#     Edge 71, Type (0, 0), BuildingBlock: CIFDUS_clean_linker_0, # of connection points: 2
#     Edge 72, Type (0, 0), BuildingBlock: CIFDUS_clean_linker_0, # of connection points: 2
#     Edge 73, Type (0, 0), BuildingBlock: CIFDUS_clean_linker_0, # of connection points: 2
#     Edge 74, Type (0, 0), BuildingBlock: CIFDUS_clean_linker_0, # of connection points: 2
#     Edge 75, Type (0, 0), BuildingBlock: CIFDUS_clean_linker_0, # of connection points: 2
#     Edge 76, Type (0, 0), BuildingBlock: CIFDUS_clean_linker_0, # of connection points: 2
#     Edge 77, Type (0, 0), BuildingBlock: CIFDUS_clean_linker_0, # of connection points: 2
#     Edge 78, Type (0, 0), BuildingBlock: CIFDUS_clean_linker_0, # of connection points: 2
#     Edge 79, Type (0, 0), BuildingBlock: CIFDUS_clean_linker_0, # of connection points: 2
#     Edge 80, Type (0, 0), BuildingBlock: CIFDUS_clean_linker_0, # of connection points: 2
#     Edge 81, Type (0, 0), BuildingBlock: CIFDUS_clean_linker_0, # of connection points: 2
#     Edge 82, Type (0, 0), BuildingBlock: CIFDUS_clean_linker_0, # of connection points: 2
#     Edge 83, Type (0, 0), BuildingBlock: CIFDUS_clean_linker_0, # of connection points: 2
#     Edge 84, Type (0, 0), BuildingBlock: CIFDUS_clean_linker_0, # of connection points: 2
#     Edge 85, Type (0, 0), BuildingBlock: CIFDUS_clean_linker_0, # of connection points: 2
#     Edge 86, Type (0, 0), BuildingBlock: CIFDUS_clean_linker_0, # of connection points: 2
#     Edge 87, Type (0, 0), BuildingBlock: CIFDUS_clean_linker_0, # of connection points: 2
#     Edge 88, Type (0, 0), BuildingBlock: CIFDUS_clean_linker_0, # of connection points: 2
#     Edge 89, Type (0, 0), BuildingBlock: CIFDUS_clean_linker_0, # of connection points: 2
#     Edge 90, Type (0, 0), BuildingBlock: CIFDUS_clean_linker_0, # of connection points: 2
#     Edge 91, Type (0, 0), BuildingBlock: CIFDUS_clean_linker_0, # of connection points: 2
#     Edge 92, Type (0, 0), BuildingBlock: CIFDUS_clean_linker_0, # of connection points: 2
#     Edge 93, Type (0, 0), BuildingBlock: CIFDUS_clean_linker_0, # of connection points: 2
#     Edge 94, Type (0, 0), BuildingBlock: CIFDUS_clean_linker_0, # of connection points: 2
#     Edge 95, Type (0, 0), BuildingBlock: CIFDUS_clean_linker_0, # of connection points: 2
#     Edge 96, Type (0, 0), BuildingBlock: CIFDUS_clean_linker_0, # of connection points: 2
#     Edge 97, Type (0, 0), BuildingBlock: CIFDUS_clean_linker_0, # of connection points: 2
#     Edge 98, Type (0, 0), BuildingBlock: CIFDUS_clean_linker_0, # of connection points: 2
#     Edge 99, Type (0, 0), BuildingBlock: CIFDUS_clean_linker_0, # of connection points: 2
#     Edge 100, Type (0, 0), BuildingBlock: CIFDUS_clean_linker_0, # of connection points: 2
#     Edge 101, Type (0, 0), BuildingBlock: CIFDUS_clean_linker_0, # of connection points: 2
#     Edge 102, Type (0, 0), BuildingBlock: CIFDUS_clean_linker_0, # of connection points: 2
#     Edge 103, Type (0, 0), BuildingBlock: CIFDUS_clean_linker_0, # of connection points: 2
#     Edge 104, Type (0, 0), BuildingBlock: CIFDUS_clean_linker_0, # of connection points: 2
#     Edge 105, Type (0, 0), BuildingBlock: CIFDUS_clean_linker_0, # of connection points: 2
#     Edge 106, Type (0, 0), BuildingBlock: CIFDUS_clean_linker_0, # of connection points: 2
#     Edge 107, Type (0, 0), BuildingBlock: CIFDUS_clean_linker_0, # of connection points: 2
#     Edge 108, Type (0, 0), BuildingBlock: CIFDUS_clean_linker_0, # of connection points: 2
#     Edge 109, Type (0, 0), BuildingBlock: CIFDUS_clean_linker_0, # of connection points: 2
#     Edge 110, Type (0, 0), BuildingBlock: CIFDUS_clean_linker_0, # of connection points: 2
#     Edge 111, Type (0, 0), BuildingBlock: CIFDUS_clean_linker_0, # of connection points: 2
#     Edge 112, Type (0, 0), BuildingBlock: CIFDUS_clean_linker_0, # of connection points: 2
#     Edge 113, Type (0, 0), BuildingBlock: CIFDUS_clean_linker_0, # of connection points: 2
#     Edge 114, Type (0, 0), BuildingBlock: CIFDUS_clean_linker_0, # of connection points: 2
#     Edge 115, Type (0, 0), BuildingBlock: CIFDUS_clean_linker_0, # of connection points: 2
#     Edge 116, Type (0, 0), BuildingBlock: CIFDUS_clean_linker_0, # of connection points: 2
#     Edge 117, Type (0, 0), BuildingBlock: CIFDUS_clean_linker_0, # of connection points: 2
#     Edge 118, Type (0, 0), BuildingBlock: CIFDUS_clean_linker_0, # of connection points: 2
#     Edge 119, Type (0, 0), BuildingBlock: CIFDUS_clean_linker_0, # of connection points: 2
#     Edge 120, Type (0, 0), BuildingBlock: CIFDUS_clean_linker_0, # of connection points: 2
#     Edge 121, Type (0, 0), BuildingBlock: CIFDUS_clean_linker_0, # of connection points: 2
#     Edge 122, Type (0, 0), BuildingBlock: CIFDUS_clean_linker_0, # of connection points: 2
#     Edge 123, Type (0, 0), BuildingBlock: CIFDUS_clean_linker_0, # of connection points: 2
#     Edge 124, Type (0, 0), BuildingBlock: CIFDUS_clean_linker_0, # of connection points: 2
#     Edge 125, Type (0, 0), BuildingBlock: CIFDUS_clean_linker_0, # of connection points: 2
#     Edge 126, Type (0, 0), BuildingBlock: CIFDUS_clean_linker_0, # of connection points: 2
#     Edge 127, Type (0, 0), BuildingBlock: CIFDUS_clean_linker_0, # of connection points: 2
#     Edge 128, Type (0, 0), BuildingBlock: CIFDUS_clean_linker_0, # of connection points: 2
#     Edge 129, Type (0, 0), BuildingBlock: CIFDUS_clean_linker_0, # of connection points: 2
#     Edge 130, Type (0, 0), BuildingBlock: CIFDUS_clean_linker_0, # of connection points: 2
#     Edge 131, Type (0, 0), BuildingBlock: CIFDUS_clean_linker_0, # of connection points: 2
#     Edge 132, Type (0, 0), BuildingBlock: CIFDUS_clean_linker_0, # of connection points: 2
#     Edge 133, Type (0, 0), BuildingBlock: CIFDUS_clean_linker_0, # of connection points: 2
#     Edge 134, Type (0, 0), BuildingBlock: CIFDUS_clean_linker_0, # of connection points: 2
#     Edge 135, Type (0, 0), BuildingBlock: CIFDUS_clean_linker_0, # of connection points: 2
#     Edge 136, Type (0, 0), BuildingBlock: CIFDUS_clean_linker_0, # of connection points: 2
#     Edge 137, Type (0, 0), BuildingBlock: CIFDUS_clean_linker_0, # of connection points: 2
#     Edge 138, Type (0, 0), BuildingBlock: CIFDUS_clean_linker_0, # of connection points: 2
#     Edge 139, Type (0, 0), BuildingBlock: CIFDUS_clean_linker_0, # of connection points: 2
#     Edge 140, Type (0, 0), BuildingBlock: CIFDUS_clean_linker_0, # of connection points: 2
#     Edge 141, Type (0, 0), BuildingBlock: CIFDUS_clean_linker_0, # of connection points: 2
#     Edge 142, Type (0, 0), BuildingBlock: CIFDUS_clean_linker_0, # of connection points: 2
#     Edge 143, Type (0, 0), BuildingBlock: CIFDUS_clean_linker_0, # of connection points: 2
# Relax obj value: 0.101
# Max RMSD: 0.156
# Mean RMSD: 0.156
data_MOF--net-ukp--node1-ESEHIV_clean_sbu_0--edge1-CIFDUS_clean_linker_0
_symmetry_space_group_name_H-M    P1
_symmetry_Int_Tables_number       1
_symmetry_cell_setting            triclinic
loop_
_symmetry_equiv_pos_as_xyz
'x, y, z'
_cell_length_a     61.55818
_cell_length_b     61.526731
_cell_length_c     61.688815
_cell_angle_alpha  90.111083
_cell_angle_beta   90.072894
_cell_angle_gamma 90.067213
loop_
_atom_site_label
_atom_site_type_symbol
_atom_site_fract_x
_atom_site_fract_y
_atom_site_fract_z
_atom_type_partial_charge
Cu0 Cu 0.20879 0.29218 0.39709 0.0
N1 N 0.20082 0.30577 0.37112 0.0
N2 N 0.20398 0.32664 0.34163 0.0
C3 C 0.21452 0.31465 0.3566 0.0
C4 C 0.18271 0.32472 0.34652 0.0
C5 C 0.18082 0.31191 0.3648 0.0
O6 O 0.2343 0.27402 0.39056 0.0
C7 C 0.22141 0.33354 0.41387 0.0
O8 O 0.2313 0.33531 0.39515 0.0
H9 H 0.232 0.31322 0.35759 0.0
H10 H 0.16603 0.30831 0.37355 0.0
N11 N 0.18631 0.2733 0.40565 0.0
N12 N 0.16168 0.25451 0.42485 0.0
C13 C 0.17578 0.27148 0.42483 0.0
C14 C 0.17846 0.25713 0.39322 0.0
C15 C 0.16337 0.24555 0.40493 0.0
C16 C 0.25352 0.28077 0.38678 0.0
O17 O 0.25819 0.30132 0.39002 0.0
H18 H 0.17887 0.28191 0.43864 0.0
H19 H 0.18367 0.25379 0.37681 0.0
O20 O 0.21229 0.31553 0.41871 0.0
H21 H 0.1696 0.33306 0.33831 0.0
H22 H 0.15431 0.23159 0.3992 0.0
Cu23 Cu 0.97656 0.97271 0.65592 0.0
N24 N 0.96679 0.96404 0.62854 0.0
N25 N 0.95106 0.96635 0.59589 0.0
C26 C 0.95921 0.9774 0.61301 0.0
C27 C 0.95393 0.94514 0.60079 0.0
C28 C 0.96356 0.94378 0.62098 0.0
O29 O 0.98584 1.0031 0.65256 0.0
C30 C 0.9329 0.97018 0.6709 0.0
O31 O 0.92815 0.97767 0.65155 0.0
H32 H 0.95929 0.99491 0.61449 0.0
H33 H 0.9673 0.92909 0.62983 0.0
N34 N 1.00007 0.95509 0.66444 0.0
N35 N 0.02037 0.93007 0.68166 0.0
C36 C 1.00072 0.93999 0.68034 0.0
C37 C 0.01988 0.95468 0.65534 0.0
C38 C 0.03239 0.93937 0.66586 0.0
C39 C 0.97262 0.01906 0.65226 0.0
O40 O 0.95224 1.01566 0.65745 0.0
H41 H 0.98704 0.93648 0.69077 0.0
H42 H 0.02482 0.9647 0.64182 0.0
O43 O 0.95277 0.96813 0.67637 0.0
H44 H 0.94871 0.93156 0.5909 0.0
H45 H 0.04894 0.93516 0.66178 0.0
Cu46 Cu 0.28235 0.72905 0.90923 0.0
N47 N 0.29357 0.722 0.88184 0.0
N48 N 0.29435 0.708 0.84827 0.0
C49 C 0.28177 0.71521 0.86469 0.0
C50 C 0.31498 0.71076 0.85525 0.0
C51 C 0.31444 0.71931 0.87599 0.0
O52 O 0.25105 0.73392 0.90505 0.0
C53 C 0.29065 0.68549 0.92311 0.0
O54 O 0.28644 0.68031 0.90287 0.0
H55 H 0.26423 0.71503 0.86446 0.0
H56 H 0.32823 0.72237 0.88645 0.0
N57 N 0.29558 0.7544 0.92034 0.0
N58 N 0.31906 0.77684 0.9372 0.0
C59 C 0.31555 0.75654 0.92927 0.0
C60 C 0.28618 0.774 0.92266 0.0
C61 C 0.30055 0.78782 0.93299 0.0
C62 C 0.23812 0.71844 0.90018 0.0
O63 O 0.24533 0.69839 0.90084 0.0
H64 H 0.32704 0.74329 0.9304 0.0
H65 H 0.26985 0.77787 0.91746 0.0
O66 O 0.28899 0.70526 0.92915 0.0
H67 H 0.32942 0.70597 0.84647 0.0
H68 H 0.29761 0.80471 0.9369 0.0
Cu69 Cu 0.53717 0.05512 0.15012 0.0
N70 N 0.55248 0.05873 0.12414 0.0
N71 N 0.57094 0.0485 0.09457 0.0
C72 C 0.56031 0.04197 0.11253 0.0
C73 C 0.56987 0.07044 0.09498 0.0
C74 C 0.55842 0.07671 0.11327 0.0
O75 O 0.5211 0.0276 0.14665 0.0
C76 C 0.57797 0.04914 0.17206 0.0
O77 O 0.58295 0.03671 0.15548 0.0
H78 H 0.55846 0.02522 0.1175 0.0
H79 H 0.55468 0.09315 0.11826 0.0
N80 N 0.51704 0.07763 0.15496 0.0
N81 N 0.49625 0.1017 0.17275 0.0
C82 C 0.5124 0.08686 0.17428 0.0
C83 C 0.50346 0.08709 0.1407 0.0
C84 C 0.49059 0.10186 0.15162 0.0
C85 C 0.51036 0.02588 0.12896 0.0
O86 O 0.51004 0.04255 0.1157 0.0
H87 H 0.52053 0.08255 0.18923 0.0
H88 H 0.50294 0.08358 0.12353 0.0
O89 O 0.55868 0.05656 0.17363 0.0
H90 H 0.57656 0.08119 0.08283 0.0
H91 H 0.47836 0.11226 0.14447 0.0
Cu92 Cu 0.21706 0.74468 0.14021 0.0
N93 N 0.20798 0.72936 0.16481 0.0
N94 N 0.2082 0.70813 0.19423 0.0
C95 C 0.2204 0.71898 0.17958 0.0
C96 C 0.1874 0.71178 0.18838 0.0
C97 C 0.18733 0.72466 0.17016 0.0
O98 O 0.24557 0.75731 0.14649 0.0
C99 C 0.23094 0.70725 0.11907 0.0
O100 O 0.24569 0.7082 0.13447 0.0
H101 H 0.23798 0.71932 0.17954 0.0
H102 H 0.17319 0.72985 0.16113 0.0
N103 N 0.19662 0.76646 0.13365 0.0
N104 N 0.17503 0.78991 0.11612 0.0
C105 C 0.19185 0.77583 0.1144 0.0
C106 C 0.18254 0.77517 0.1479 0.0
C107 C 0.1692 0.78948 0.13717 0.0
C108 C 0.2472 0.77262 0.16037 0.0
O109 O 0.22942 0.78022 0.16936 0.0
H110 H 0.20013 0.77203 0.0994 0.0
H111 H 0.18192 0.77124 0.16496 0.0
O112 O 0.21771 0.72301 0.1172 0.0
H113 H 0.17324 0.70515 0.1964 0.0
H114 H 0.15626 0.79899 0.14433 0.0
Cu115 Cu 0.55219 0.97036 0.38121 0.0
N116 N 0.56026 0.95999 0.40841 0.0
N117 N 0.5758 0.95987 0.44122 0.0
C118 C 0.57201 0.97135 0.42297 0.0
C119 C 0.56597 0.94048 0.43792 0.0
C120 C 0.55645 0.94058 0.41762 0.0
O121 O 0.54134 0.99942 0.38698 0.0
C122 C 0.58211 0.96791 0.34429 0.0
O123 O 0.56542 0.96602 0.33114 0.0
H124 H 0.57734 0.9879 0.42029 0.0
H125 H 0.54745 0.92747 0.4101 0.0
N126 N 0.52946 0.95352 0.36941 0.0
N127 N 0.50894 0.93087 0.34943 0.0
C128 C 0.52938 0.93771 0.35413 0.0
C129 C 0.50847 0.95638 0.37473 0.0
C130 C 0.49583 0.94259 0.36247 0.0
C131 C 0.52803 1.00976 0.37507 0.0
O132 O 0.52276 1.00184 0.35598 0.0
H133 H 0.54391 0.93159 0.3464 0.0
H134 H 0.50273 0.96795 0.38663 0.0
O135 O 0.579 0.97041 0.36452 0.0
H136 H 0.56578 0.92708 0.44926 0.0
H137 H 0.47833 0.94113 0.36333 0.0
Cu138 Cu 0.31791 0.3071 0.62392 0.0
N139 N 0.32319 0.32183 0.64975 0.0
N140 N 0.31383 0.3404 0.67941 0.0
C141 C 0.30866 0.32395 0.66588 0.0
C142 C 0.33241 0.34894 0.67156 0.0
C143 C 0.33813 0.33745 0.6532 0.0
O144 O 0.29333 0.28794 0.62958 0.0
C145 C 0.32461 0.3358 0.58805 0.0
O146 O 0.34014 0.32239 0.58226 0.0
H147 H 0.29349 0.31504 0.66648 0.0
H148 H 0.35118 0.34138 0.64215 0.0
N149 N 0.34207 0.29058 0.61566 0.0
N150 N 0.36289 0.26636 0.59828 0.0
C151 C 0.34292 0.27539 0.5999 0.0
C152 C 0.36206 0.29109 0.62444 0.0
C153 C 0.37493 0.27623 0.61377 0.0
C154 C 0.29675 0.27226 0.64264 0.0
O155 O 0.31657 0.26924 0.64995 0.0
H156 H 0.32921 0.27135 0.58967 0.0
H157 H 0.3669 0.30143 0.63779 0.0
O158 O 0.31203 0.33062 0.60359 0.0
H159 H 0.34059 0.36317 0.67795 0.0
H160 H 0.39176 0.27275 0.61744 0.0
Cu161 Cu 0.98487 0.07591 0.88478 0.0
N162 N 0.97848 0.08085 0.91401 0.0
N163 N 0.9645 0.0733 0.94667 0.0
C164 C 0.96227 0.07108 0.92498 0.0
C165 C 0.98259 0.08549 0.94934 0.0
C166 C 0.99122 0.09003 0.92919 0.0
O167 O 1.00311 0.05019 0.88436 0.0
C168 C 0.95251 0.08032 0.85168 0.0
O169 O 0.96811 0.08921 0.8402 0.0
H170 H 0.94984 0.0614 0.91716 0.0
H171 H 1.00651 0.09804 0.92592 0.0
N172 N 1.00079 0.09909 0.87304 0.0
N173 N 0.02606 0.11746 0.85434 0.0
C174 C 0.01882 0.09768 0.8607 0.0
C175 C 0.99645 0.12044 0.87462 0.0
C176 C 1.01196 0.1318 0.86312 0.0
C177 C 0.99737 0.03322 0.89461 0.0
O178 O 0.97737 0.03175 0.90182 0.0
H179 H 0.02622 0.08239 0.8562 0.0
H180 H 0.9829 0.12724 0.88348 0.0
O181 O 0.95698 0.07243 0.87021 0.0
H182 H 0.99005 0.08946 0.96475 0.0
H183 H 1.0129 0.1493 0.86163 0.0
Cu184 Cu 0.40552 0.22708 0.29097 0.0
N185 N 0.37813 0.21672 0.29931 0.0
N186 N 0.34762 0.22342 0.31821 0.0
C187 C 0.36226 0.23111 0.30381 0.0
C188 C 0.35415 0.20289 0.32237 0.0
C189 C 0.37309 0.19889 0.31089 0.0
O190 O 0.39973 0.25598 0.2792 0.0
C191 C 0.43267 0.20993 0.32221 0.0
O192 O 0.42972 0.19286 0.30974 0.0
H193 H 0.36289 0.24782 0.29848 0.0
H194 H 0.38374 0.18508 0.31302 0.0
N195 N 0.42181 0.21157 0.27014 0.0
N196 N 0.43843 0.18769 0.24826 0.0
C197 C 0.42031 0.192 0.26006 0.0
C198 C 0.44121 0.21965 0.26418 0.0
C199 C 0.45143 0.20512 0.25084 0.0
C200 C 0.39549 0.25773 0.25903 0.0
O201 O 0.39706 0.24052 0.24651 0.0
H202 H 0.40682 0.18088 0.26201 0.0
H203 H 0.44771 0.23503 0.26975 0.0
O204 O 0.42324 0.22771 0.31734 0.0
H205 H 0.34721 0.19244 0.33465 0.0
H206 H 0.46734 0.20712 0.24363 0.0
Cu207 Cu 0.06547 0.14345 0.54728 0.0
N208 N 0.04013 0.14087 0.56378 0.0
N209 N 0.02002 0.11953 0.58546 0.0
C210 C 0.04006 0.12713 0.58077 0.0
C211 C 1.00674 0.12943 0.57109 0.0
C212 C 0.01922 0.14238 0.55757 0.0
O213 O 0.06253 0.11827 0.52802 0.0
C214 C 0.08755 0.15905 0.58195 0.0
O215 O 0.07323 0.17434 0.57791 0.0
H216 H 0.05485 0.12095 0.58794 0.0
H217 H 1.0138 0.15006 0.54276 0.0
N218 N 0.06918 0.16927 0.53123 0.0
N219 N 0.08563 0.19293 0.50893 0.0
C220 C 0.08692 0.17356 0.51915 0.0
C221 C 0.05629 0.18679 0.52895 0.0
C222 C 0.06643 0.20144 0.5152 0.0
C223 C 0.06016 0.11975 0.50753 0.0
O224 O 0.06559 0.13784 0.49771 0.0
H225 H 0.1004 0.16238 0.51755 0.0
H226 H 0.04054 0.18866 0.53648 0.0
O227 O 0.0884 0.14276 0.56911 0.0
H228 H 0.98968 0.12573 0.56891 0.0
H229 H 0.05984 0.21675 0.50963 0.0
Cu230 Cu 0.12205 0.81357 0.79613 0.0
N231 N 0.12033 0.78826 0.81274 0.0
N232 N 0.13584 0.76593 0.83701 0.0
C233 C 0.13286 0.78666 0.83055 0.0
C234 C 0.12435 0.75389 0.82261 0.0
C235 C 0.11492 0.76772 0.80755 0.0
O236 O 0.14733 0.80755 0.77781 0.0
C237 C 0.10696 0.83748 0.82963 0.0
O238 O 0.08992 0.82635 0.82316 0.0
H239 H 0.14178 0.80038 0.83703 0.0
H240 H 0.1066 0.76296 0.79283 0.0
N241 N 0.09779 0.82072 0.77872 0.0
N242 N 0.07682 0.84059 0.75639 0.0
C243 C 0.09607 0.83912 0.76697 0.0
C244 C 0.07894 0.81007 0.77557 0.0
C245 C 0.066 0.82227 0.76184 0.0
C246 C 0.14368 0.79626 0.76079 0.0
O247 O 0.12344 0.79266 0.75505 0.0
H248 H 0.10868 0.85138 0.76654 0.0
H249 H 0.07488 0.79458 0.78278 0.0
O250 O 0.12448 0.83587 0.81865 0.0
H251 H 0.12396 0.73633 0.82201 0.0
H252 H 0.04998 0.81779 0.75613 0.0
Cu253 Cu 0.45746 0.86987 0.03855 0.0
N254 N 0.44693 0.89555 0.05124 0.0
N255 N 0.45145 0.92671 0.06964 0.0
C256 C 0.45866 0.914 0.05331 0.0
C257 C 0.43443 0.91598 0.07822 0.0
C258 C 0.43167 0.89677 0.06684 0.0
O259 O 0.4864 0.877 0.02728 0.0
C260 C 0.46847 0.85276 0.07945 0.0
O261 O 0.48146 0.86971 0.08014 0.0
H262 H 0.47361 0.91702 0.04464 0.0
H263 H 0.42075 0.88367 0.07107 0.0
N264 N 0.44052 0.85823 0.01559 0.0
N265 N 0.41519 0.84073 0.99576 0.0
C266 C 0.4196 0.85131 0.01465 0.0
C267 C 0.44939 0.8517 0.99673 0.0
C268 C 0.43395 0.84119 0.98453 0.0
C269 C 0.48723 0.89007 1.01124 0.0
O270 O 0.46889 0.89732 1.00306 0.0
H271 H 0.40819 0.85306 0.02788 0.0
H272 H 0.46629 0.85366 0.99242 0.0
O273 O 0.45795 0.84887 0.06208 0.0
H274 H 0.42542 0.92109 0.0924 0.0
H275 H 0.43649 0.83414 0.96864 0.0
Cu276 Cu 0.41275 0.80844 0.23242 0.0
N277 N 0.38527 0.8213 0.23047 0.0
N278 N 0.3505 0.8237 0.21981 0.0
C279 C 0.37089 0.81763 0.21436 0.0
C280 C 0.35239 0.83217 0.23997 0.0
C281 C 0.37378 0.83056 0.24652 0.0
O282 O 0.4078 0.77885 0.2427 0.0
C283 C 0.44639 0.81483 0.20111 0.0
O284 O 0.45891 0.81737 0.21818 0.0
H285 H 0.37511 0.80926 0.19952 0.0
H286 H 0.38013 0.8342 0.26248 0.0
N287 N 0.43045 0.82135 0.2538 0.0
N288 N 0.44977 0.84368 0.27525 0.0
C289 C 0.43454 0.84226 0.25934 0.0
C290 C 0.4433 0.80937 0.26675 0.0
C291 C 0.45515 0.82297 0.27989 0.0
C292 C 0.39286 0.76629 0.23577 0.0
O293 O 0.38202 0.77161 0.21825 0.0
H294 H 0.42689 0.85607 0.25164 0.0
H295 H 0.44413 0.79182 0.26647 0.0
O296 O 0.42646 0.80989 0.20382 0.0
H297 H 0.33901 0.83748 0.25003 0.0
H298 H 0.46666 0.81793 0.29217 0.0
Cu299 Cu 0.46464 0.1574 0.47775 0.0
N300 N 0.45985 0.13142 0.46263 0.0
N301 N 0.46786 0.10144 0.44368 0.0
C302 C 0.47452 0.11557 0.45911 0.0
C303 C 0.44806 0.10852 0.43748 0.0
C304 C 0.44319 0.12702 0.44917 0.0
O305 O 0.48974 0.15359 0.49668 0.0
C306 C 0.4753 0.17713 0.4378 0.0
O307 O 0.48614 0.15903 0.43467 0.0
H308 H 0.49043 0.11527 0.46653 0.0
H309 H 0.4291 0.1373 0.44708 0.0
N310 N 0.44103 0.16395 0.49554 0.0
N311 N 0.42031 0.18218 0.51918 0.0
C312 C 0.43892 0.18211 0.50755 0.0
C313 C 0.42318 0.15202 0.49962 0.0
C314 C 0.41034 0.16324 0.51417 0.0
C315 C 0.50916 0.15019 0.49051 0.0
O316 O 0.51391 0.1516 0.46982 0.0
H317 H 0.45083 0.19505 0.50759 0.0
H318 H 0.41985 0.1362 0.4927 0.0
O319 O 0.46663 0.1805 0.45623 0.0
H320 H 0.43814 0.10133 0.42487 0.0
H321 H 0.3951 0.15762 0.52087 0.0
Cu322 Cu 0.15578 0.1987 0.73725 0.0
N323 N 0.18404 0.19275 0.7279 0.0
N324 N 0.2155 0.19834 0.71063 0.0
C325 C 0.19639 0.20704 0.71688 0.0
C326 C 0.21515 0.1777 0.71805 0.0
C327 C 0.19566 0.17425 0.72857 0.0
O328 O 0.15701 0.22753 0.75037 0.0
C329 C 0.13872 0.18079 0.69937 0.0
O330 O 0.15059 0.16429 0.70582 0.0
H331 H 0.19132 0.22353 0.7135 0.0
H332 H 0.19013 0.15914 0.73558 0.0
N333 N 0.14523 0.17883 0.75783 0.0
N334 N 0.12212 0.16215 0.78054 0.0
C335 C 0.12434 0.17652 0.76407 0.0
C336 C 0.15666 0.16554 0.77084 0.0
C337 C 0.1425 0.15519 0.78474 0.0
C338 C 0.16953 0.22997 0.76669 0.0
O339 O 0.17983 0.21288 0.77424 0.0
H340 H 0.11111 0.18553 0.75683 0.0
H341 H 0.17415 0.16409 0.77085 0.0
O342 O 0.13777 0.19772 0.71131 0.0
H343 H 0.22779 0.16575 0.71554 0.0
H344 H 0.14705 0.14411 0.79756 0.0
Cu345 Cu 0.09084 0.89867 0.98735 0.0
N346 N 0.09166 0.92696 0.9766 0.0
N347 N 0.07732 0.95602 0.9602 0.0
C348 C 0.07359 0.93869 0.97304 0.0
C349 C 0.09876 0.95524 0.95561 0.0
C350 C 0.10753 0.93718 0.96564 0.0
O351 O 0.06333 0.89693 1.00308 0.0
C352 C 0.07678 0.88176 0.94768 0.0
O353 O 0.05926 0.89288 0.95262 0.0
H354 H 0.05763 0.93338 0.97811 0.0
H355 H 0.12388 0.93108 0.96367 0.0
N356 N 0.11467 0.89245 1.00537 0.0
N357 N 0.13792 0.87466 0.02697 0.0
C358 C 0.11823 0.87431 0.01717 0.0
C359 C 0.13261 0.9047 1.00799 0.0
C360 C 0.14696 0.89378 0.02121 0.0
C361 C 0.06146 0.90812 0.02041 0.0
O362 O 0.0788 0.9178 0.02827 0.0
H363 H 0.10688 0.86089 0.01806 0.0
H364 H 0.13521 0.9204 1.00063 0.0
O365 O 0.09206 0.88053 0.96152 0.0
H366 H 0.10732 0.96624 0.94495 0.0
H367 H 0.16279 0.89953 0.0263 0.0
Cu368 Cu 0.28392 0.40929 0.22044 0.0
N369 N 0.29893 0.38364 0.21415 0.0
N370 N 0.31971 0.35424 0.21944 0.0
C371 C 0.30823 0.37041 0.22885 0.0
C372 C 0.31719 0.35734 0.19788 0.0
C373 C 0.30441 0.37549 0.19469 0.0
O374 O 0.2672 0.40365 0.2466 0.0
C375 C 0.32443 0.43068 0.22881 0.0
O376 O 0.32985 0.41258 0.23864 0.0
H377 H 0.30738 0.37324 0.24611 0.0
H378 H 0.29984 0.38253 0.1793 0.0
N379 N 0.26441 0.41603 0.19813 0.0
N380 N 0.24578 0.43555 0.17373 0.0
C381 C 0.26154 0.43572 0.18906 0.0
C382 C 0.24996 0.40287 0.1883 0.0
C383 C 0.23846 0.41484 0.17325 0.0
C384 C 0.27515 0.40293 0.26562 0.0
O385 O 0.29529 0.40926 0.26877 0.0
H386 H 0.27069 0.44995 0.19391 0.0
H387 H 0.24795 0.38577 0.19186 0.0
O388 O 0.30507 0.43296 0.22183 0.0
H389 H 0.32418 0.34737 0.18523 0.0
H390 H 0.22595 0.40864 0.16255 0.0
Cu391 Cu 0.79643 0.1404 0.82787 0.0
N392 N 0.80653 0.1681 0.83581 0.0
N393 N 0.8203 0.20167 0.83307 0.0
C394 C 0.81157 0.18462 0.82234 0.0
C395 C 0.82057 0.19578 0.85412 0.0
C396 C 0.81226 0.17501 0.85573 0.0
O397 O 0.77832 0.14408 0.80209 0.0
C398 C 0.8392 0.12898 0.81525 0.0
O399 O 0.83917 0.1487 0.8072 0.0
H400 H 0.80936 0.18396 0.80494 0.0
H401 H 0.81108 0.16537 0.87032 0.0
N402 N 0.77841 0.12906 0.84977 0.0
N403 N 0.75656 0.10657 0.86845 0.0
C404 C 0.77089 0.10853 0.85185 0.0
C405 C 0.76843 0.14049 0.86546 0.0
C406 C 0.7551 0.12674 0.877 0.0
C407 C 0.78516 0.14705 0.78285 0.0
O408 O 0.80602 0.14553 0.77882 0.0
H409 H 0.77557 0.09544 0.84111 0.0
H410 H 0.77007 0.15782 0.86786 0.0
O411 O 0.82198 0.12168 0.82414 0.0
H412 H 0.8271 0.20546 0.86728 0.0
H413 H 0.74444 0.13156 0.89008 0.0
Cu414 Cu 0.15838 0.56309 0.0555 0.0
N415 N 0.1313 0.56679 0.06843 0.0
N416 N 0.09656 0.5774 0.06981 0.0
C417 C 0.11472 0.57607 0.05768 0.0
C418 C 0.10199 0.56847 0.08909 0.0
C419 C 0.12353 0.56203 0.08823 0.0
O420 O 0.15164 0.55056 0.02713 0.0
C421 C 0.17938 0.59929 0.07178 0.0
O422 O 0.17846 0.58708 0.0892 0.0
H423 H 0.11595 0.58139 0.04102 0.0
H424 H 0.13279 0.5545 0.10108 0.0
N425 N 0.17806 0.54525 0.07066 0.0
N426 N 0.19535 0.52186 0.09255 0.0
C427 C 0.1758 0.52975 0.08605 0.0
C428 C 0.19958 0.54694 0.06732 0.0
C429 C 0.2102 0.53265 0.08062 0.0
C430 C 0.16081 0.53384 0.01911 0.0
O431 O 0.17794 0.52564 0.02877 0.0
H432 H 0.1603 0.52461 0.09252 0.0
H433 H 0.20702 0.55793 0.05585 0.0
O434 O 0.1713 0.59212 0.05411 0.0
H435 H 0.09126 0.56688 0.10288 0.0
H436 H 0.2276 0.5302 0.08118 0.0
Cu437 Cu 0.73178 0.90218 0.31263 0.0
N438 N 0.71745 0.87562 0.31599 0.0
N439 N 0.69915 0.84652 0.30393 0.0
C440 C 0.71529 0.86089 0.29998 0.0
C441 C 0.6912 0.8522 0.32354 0.0
C442 C 0.70239 0.87026 0.33084 0.0
O443 O 0.75133 0.89815 0.28812 0.0
C444 C 0.69206 0.9197 0.29758 0.0
O445 O 0.6918 0.90207 0.28554 0.0
H446 H 0.7243 0.86182 0.28498 0.0
H447 H 0.69846 0.87994 0.34495 0.0
N448 N 0.74849 0.90917 0.33712 0.0
N449 N 0.77392 0.92467 0.3582 0.0
C450 C 0.7655 0.92301 0.33796 0.0
C451 C 0.74605 0.90177 0.35748 0.0
C452 C 0.76165 0.91128 0.37048 0.0
C453 C 0.74735 0.90243 0.26834 0.0
O454 O 0.7296 0.91309 0.26329 0.0
H455 H 0.77137 0.93187 0.324 0.0
H456 H 0.73384 0.89022 0.36253 0.0
O457 O 0.70879 0.9238 0.30911 0.0
H458 H 0.67712 0.84505 0.33122 0.0
H459 H 0.76396 0.90825 0.38761 0.0
Cu460 Cu 0.89923 0.98444 0.0765 0.0
N461 N 0.92543 0.97104 0.08459 0.0
N462 N 0.95801 0.95497 0.08242 0.0
C463 C 0.94207 0.96537 0.07147 0.0
C464 C 0.9511 0.95405 0.10315 0.0
C465 C 0.93096 0.96376 0.10439 0.0
O466 O 0.90514 1.00185 0.05072 0.0
C467 C 0.88239 0.94365 0.06269 0.0
O468 O 0.90105 0.94196 0.05251 0.0
H469 H 0.94247 0.96879 0.05427 0.0
H470 H 0.92088 0.96509 0.11867 0.0
N471 N 0.88873 1.00274 0.09873 0.0
N472 N 0.8666 0.02426 0.11819 0.0
C473 C 0.86884 1.01192 0.1001 0.0
C474 C 0.89946 1.00961 0.1165 0.0
C475 C 0.88591 0.02278 0.1285 0.0
C476 C 0.91691 0.01869 0.05356 0.0
O477 O 0.92352 0.02334 0.07329 0.0
H478 H 0.85625 1.00947 0.08808 0.0
H479 H 0.91613 1.00564 0.12032 0.0
O480 O 0.87787 0.96138 0.07236 0.0
H481 H 0.95979 0.94647 0.11639 0.0
H482 H 0.89018 0.03106 0.1434 0.0
Cu483 Cu 0.23508 0.64614 0.70201 0.0
N484 N 0.22372 0.67316 0.69364 0.0
N485 N 0.20761 0.7058 0.69518 0.0
C486 C 0.21621 0.68917 0.70666 0.0
C487 C 0.21002 0.70003 0.67418 0.0
C488 C 0.21992 0.67997 0.6733 0.0
O489 O 0.24723 0.65015 0.73101 0.0
C490 C 0.19192 0.62806 0.70326 0.0
O491 O 0.18604 0.64753 0.70975 0.0
H492 H 0.21607 0.68816 0.72417 0.0
H493 H 0.22358 0.6707 0.65884 0.0
N494 N 0.25744 0.63776 0.68288 0.0
N495 N 0.28096 0.61737 0.66382 0.0
C496 C 0.26506 0.61752 0.67903 0.0
C497 C 0.26898 0.65085 0.66977 0.0
C498 C 0.2834 0.63838 0.658 0.0
C499 C 0.23559 0.65046 0.74805 0.0
O500 O 0.21484 0.64572 0.7465 0.0
H501 H 0.25886 0.60317 0.68706 0.0
H502 H 0.26709 0.66829 0.66886 0.0
O503 O 0.21202 0.62412 0.70011 0.0
H504 H 0.20463 0.70944 0.66038 0.0
H505 H 0.29508 0.64442 0.64638 0.0
Cu506 Cu 0.15047 0.47572 0.45976 0.0
N507 N 0.12364 0.46198 0.45515 0.0
N508 N 0.0938 0.44256 0.46272 0.0
C509 C 0.10907 0.45634 0.47045 0.0
C510 C 0.09867 0.43986 0.44155 0.0
C511 C 0.11712 0.45175 0.43697 0.0
O512 O 0.14717 0.49558 0.48432 0.0
C513 C 0.16724 0.43471 0.4724 0.0
O514 O 0.1492 0.43375 0.48366 0.0
H515 H 0.11027 0.46134 0.48719 0.0
H516 H 0.12596 0.45182 0.42183 0.0
N517 N 0.15729 0.49307 0.43567 0.0
N518 N 0.17476 0.51584 0.41331 0.0
C519 C 0.17668 0.50171 0.43002 0.0
C520 C 0.14275 0.50196 0.42202 0.0
C521 C 0.15343 0.51596 0.40826 0.0
C522 C 0.14336 0.49034 0.50391 0.0
O523 O 0.14445 0.46985 0.50966 0.0
H524 H 0.19167 0.49854 0.43864 0.0
H525 H 0.12543 0.49905 0.42258 0.0
O526 O 0.17195 0.45234 0.46257 0.0
H527 H 0.09038 0.42895 0.43051 0.0
H528 H 0.14601 0.52577 0.39573 0.0
Cu529 Cu 0.36774 0.54122 0.97562 0.0
N530 N 0.39397 0.55462 0.96809 0.0
N531 N 0.42522 0.57281 0.97245 0.0
C532 C 0.40957 0.56086 0.98211 0.0
C533 C 0.41924 0.57398 0.9514 0.0
C534 C 0.39995 0.56276 0.94878 0.0
O535 O 0.37177 0.52848 1.00419 0.0
C536 C 0.34712 0.58267 0.977 0.0
O537 O 0.36527 0.58922 0.98614 0.0
H538 H 0.40889 0.55762 0.9993 0.0
H539 H 0.39054 0.56131 0.93402 0.0
N540 N 0.36133 0.51793 0.95712 0.0
N541 N 0.34379 0.49654 0.93348 0.0
C542 C 0.34701 0.51714 0.94053 0.0
C543 C 0.3674 0.49721 0.96051 0.0
C544 C 0.35663 0.484 0.94599 0.0
C545 C 0.37439 0.53846 0.02208 0.0
O546 O 0.37158 0.55961 0.02287 0.0
H547 H 0.33835 0.53119 0.93448 0.0
H548 H 0.37825 0.492 0.97329 0.0
O549 O 0.34452 0.56253 0.9729 0.0
H550 H 0.42797 0.58259 0.93884 0.0
H551 H 0.35793 0.46648 0.94486 0.0
Cu552 Cu 0.70062 0.78763 0.89958 0.0
N553 N 0.69955 0.80326 0.87352 0.0
N554 N 0.71162 0.82224 0.84498 0.0
C555 C 0.71615 0.8066 0.85968 0.0
C556 C 0.69116 0.82867 0.84956 0.0
C557 C 0.68383 0.81703 0.8672 0.0
O558 O 0.72593 0.76855 0.89827 0.0
C559 C 0.70993 0.82736 0.92097 0.0
O560 O 0.723 0.83028 0.90443 0.0
H561 H 0.73158 0.79838 0.86095 0.0
H562 H 0.66864 0.81939 0.87567 0.0
N563 N 0.67605 0.76975 0.90207 0.0
N564 N 0.65301 0.74411 0.91378 0.0
C565 C 0.67095 0.756 0.91837 0.0
C566 C 0.66076 0.76652 0.8868 0.0
C567 C 0.64658 0.75075 0.89394 0.0
C568 C 0.74559 0.7749 0.89712 0.0
O569 O 0.7501 0.79554 0.9001 0.0
H570 H 0.68071 0.75411 0.93285 0.0
H571 H 0.66031 0.77463 0.87127 0.0
O572 O 0.70006 0.80922 0.9229 0.0
H573 H 0.68257 0.84179 0.84166 0.0
H574 H 0.63274 0.74446 0.88507 0.0
Cu575 Cu 0.474 0.46491 0.16127 0.0
N576 N 0.45956 0.45872 0.13515 0.0
N577 N 0.44008 0.46404 0.10491 0.0
C578 C 0.4512 0.47348 0.12132 0.0
C579 C 0.4419 0.44246 0.10835 0.0
C580 C 0.45388 0.43924 0.12696 0.0
O581 O 0.494 0.48876 0.15523 0.0
C582 C 0.43305 0.47775 0.18 0.0
O583 O 0.42833 0.48586 0.16092 0.0
H584 H 0.45294 0.49084 0.12352 0.0
H585 H 0.45772 0.42374 0.13419 0.0
N586 N 0.48897 0.44031 0.17136 0.0
N587 N 0.51258 0.4189 0.189 0.0
C588 C 0.5092 0.43862 0.17978 0.0
C589 C 0.47936 0.42112 0.17549 0.0
C590 C 0.49383 0.40789 0.18614 0.0
C591 C 0.48778 0.50847 0.15449 0.0
O592 O 0.46795 0.51328 0.16068 0.0
H593 H 0.52071 0.45192 0.18023 0.0
H594 H 0.46255 0.41739 0.17201 0.0
O595 O 0.45214 0.47053 0.18353 0.0
H596 H 0.43449 0.42985 0.09856 0.0
H597 H 0.49059 0.39155 0.19175 0.0
Cu598 Cu 0.82351 0.23097 0.39145 0.0
N599 N 0.83031 0.21872 0.3644 0.0
N600 N 0.82679 0.20062 0.333 0.0
C601 C 0.8164 0.20904 0.3504 0.0
C602 C 0.84801 0.20524 0.33624 0.0
C603 C 0.85013 0.21626 0.35562 0.0
O604 O 0.79443 0.24359 0.38896 0.0
C605 C 0.82104 0.18829 0.41002 0.0
O606 O 0.80992 0.18308 0.39258 0.0
H607 H 0.79904 0.20814 0.35299 0.0
H608 H 0.86512 0.22171 0.36301 0.0
N609 N 0.84358 0.25273 0.39964 0.0
N610 N 0.8634 0.27485 0.42098 0.0
C611 C 0.84795 0.25914 0.42013 0.0
C612 C 0.85673 0.26479 0.38703 0.0
C613 C 0.86889 0.27844 0.4001 0.0
C614 C 0.7928 0.2618 0.37925 0.0
O615 O 0.81057 0.27139 0.37242 0.0
H616 H 0.83991 0.2523 0.43414 0.0
H617 H 0.85754 0.26363 0.36956 0.0
O618 O 0.82642 0.20806 0.41309 0.0
H619 H 0.86117 0.20055 0.3256 0.0
H620 H 0.88126 0.28966 0.39463 0.0
Cu621 Cu 0.04339 0.56982 0.64466 0.0
N622 N 0.05764 0.57314 0.61793 0.0
N623 N 0.07755 0.56127 0.58987 0.0
C624 C 0.06099 0.55697 0.60356 0.0
C625 C 0.08436 0.58143 0.5953 0.0
C626 C 0.07213 0.58865 0.61265 0.0
O627 O 0.02521 0.54368 0.64283 0.0
C628 C 0.08558 0.56522 0.66394 0.0
O629 O 0.09053 0.55412 0.64642 0.0
H630 H 0.05247 0.54165 0.60409 0.0
H631 H 0.07511 0.60317 0.62213 0.0
N632 N 0.02489 0.59322 0.65089 0.0
N633 N 1.0012 0.61383 0.6694 0.0
C634 C 1.01126 0.59432 0.66797 0.0
C635 C 0.02346 0.61269 0.64111 0.0
C636 C 1.00887 0.62542 0.65247 0.0
C637 C 0.03213 0.52449 0.63931 0.0
O638 O 0.05313 0.52075 0.64009 0.0
H639 H 1.00933 0.58123 0.6795 0.0
H640 H 0.03263 0.61743 0.62694 0.0
O641 O 0.06584 0.57066 0.66716 0.0
H642 H 0.09848 0.58952 0.58865 0.0
H643 H 1.00426 0.64191 0.6485 0.0
Cu644 Cu 0.7166 0.23312 0.62714 0.0
N645 N 0.71239 0.21973 0.65402 0.0
N646 N 0.72255 0.20178 0.68391 0.0
C647 C 0.72851 0.21591 0.66827 0.0
C648 C 0.70163 0.19681 0.6795 0.0
C649 C 0.69547 0.20776 0.66094 0.0
O650 O 0.74346 0.2497 0.63027 0.0
C651 C 0.72976 0.19279 0.60976 0.0
O652 O 0.74302 0.19301 0.62646 0.0
H653 H 0.74473 0.2224 0.66636 0.0
H654 H 0.68029 0.20589 0.65228 0.0
N655 N 0.6933 0.25147 0.61976 0.0
N656 N 0.67236 0.27509 0.60157 0.0
C657 C 0.69173 0.26468 0.60236 0.0
C658 C 0.67435 0.25368 0.63037 0.0
C659 C 0.66142 0.26816 0.61922 0.0
C660 C 0.74294 0.26633 0.64263 0.0
O661 O 0.72413 0.27257 0.65051 0.0
H662 H 0.70444 0.26634 0.59037 0.0
H663 H 0.67018 0.24536 0.64521 0.0
O664 O 0.71821 0.20955 0.606 0.0
H665 H 0.69196 0.18493 0.68811 0.0
H666 H 0.64534 0.27342 0.62396 0.0
Cu667 Cu 0.0494 0.46417 0.88032 0.0
N668 N 0.0655 0.46078 0.90584 0.0
N669 N 0.0861 0.47097 0.93404 0.0
C670 C 0.06997 0.47665 0.92029 0.0
C671 C 0.09174 0.45059 0.92815 0.0
C672 C 0.07913 0.44443 0.9107 0.0
O673 O 0.02956 0.4883 0.8856 0.0
C674 C 0.08742 0.48084 0.86097 0.0
O675 O 0.08737 0.49373 0.87796 0.0
H676 H 0.06285 0.4927 0.91946 0.0
H677 H 0.08081 0.42967 0.9013 0.0
N678 N 0.03336 0.43887 0.87408 0.0
N679 N 1.01219 0.41441 0.85717 0.0
C680 C 0.02054 0.4348 0.85672 0.0
C681 C 0.0329 0.42054 0.88594 0.0
C682 C 0.01998 0.40547 0.87556 0.0
C683 C 0.03192 0.50781 0.87922 0.0
O684 O 0.04774 0.51259 0.86579 0.0
H685 H 0.01769 0.4464 0.84386 0.0
H686 H 0.04134 0.41826 0.90113 0.0
O687 O 0.07119 0.46835 0.85774 0.0
H688 H 0.10468 0.44111 0.93532 0.0
H689 H 0.01633 0.38925 0.8813 0.0
Cu690 Cu 0.82526 0.80421 0.13143 0.0
N691 N 0.83002 0.81512 0.15954 0.0
N692 N 0.82328 0.832 0.19103 0.0
C693 C 0.81489 0.82462 0.17218 0.0
C694 C 0.84447 0.82644 0.19053 0.0
C695 C 0.84857 0.81603 0.17111 0.0
O696 O 0.79965 0.78546 0.13356 0.0
C697 C 0.81529 0.84738 0.11581 0.0
O698 O 0.80387 0.84967 0.1336 0.0
H699 H 0.79799 0.82613 0.16762 0.0
H700 H 0.86408 0.80981 0.16584 0.0
N701 N 0.84919 0.78783 0.12193 0.0
N702 N 0.86959 0.76383 0.10352 0.0
C703 C 0.84932 0.76919 0.11029 0.0
C704 C 0.86998 0.79451 0.12238 0.0
C705 C 0.88257 0.77974 0.11131 0.0
C706 C 0.78022 0.79249 0.13431 0.0
O707 O 0.77651 0.81309 0.13025 0.0
H708 H 0.8347 0.7604 0.10597 0.0
H709 H 0.87552 0.80965 0.1294 0.0
O710 O 0.82361 0.82892 0.1114 0.0
H711 H 0.85628 0.83013 0.20302 0.0
H712 H 0.89993 0.78095 0.10891 0.0
Cu713 Cu 0.48712 0.57287 0.37909 0.0
N714 N 0.47237 0.58119 0.40427 0.0
N715 N 0.45217 0.57721 0.43418 0.0
C716 C 0.46384 0.56711 0.41861 0.0
C717 C 0.45368 0.59861 0.42957 0.0
C718 C 0.46605 0.60101 0.41101 0.0
O719 O 0.50032 0.54496 0.38599 0.0
C720 C 0.4475 0.56206 0.358 0.0
O721 O 0.44397 0.5504 0.37545 0.0
H722 H 0.46594 0.54969 0.41737 0.0
H723 H 0.46967 0.61604 0.40269 0.0
N724 N 0.50865 0.59315 0.37153 0.0
N725 N 0.53336 0.61132 0.35187 0.0
C726 C 0.51756 0.59597 0.35175 0.0
C727 C 0.51904 0.60725 0.38461 0.0
C728 C 0.53422 0.61849 0.37256 0.0
C729 C 0.51769 0.53752 0.37766 0.0
O730 O 0.52681 0.54794 0.36149 0.0
H731 H 0.51262 0.58678 0.3376 0.0
H732 H 0.51605 0.60896 0.40181 0.0
O733 O 0.46573 0.57162 0.35583 0.0
H734 H 0.4458 0.61155 0.43849 0.0
H735 H 0.54548 0.63052 0.37876 0.0
Cu736 Cu 0.89603 0.71137 0.79913 0.0
N737 N 0.86911 0.70623 0.81223 0.0
N738 N 0.84028 0.7153 0.83245 0.0
C739 C 0.85533 0.72217 0.81807 0.0
C740 C 0.84453 0.69398 0.8354 0.0
C741 C 0.86245 0.68849 0.82307 0.0
O742 O 0.89266 0.73869 0.78349 0.0
C743 C 0.91269 0.72649 0.83844 0.0
O744 O 0.89814 0.74171 0.83505 0.0
H745 H 0.85734 0.73887 0.81299 0.0
H746 H 0.87106 0.67319 0.82345 0.0
N747 N 0.90388 0.68886 0.77998 0.0
N748 N 0.92192 0.66931 0.75504 0.0
C749 C 0.92163 0.68772 0.76716 0.0
C750 C 0.89252 0.67065 0.77574 0.0
C751 C 0.90356 0.65859 0.76048 0.0
C752 C 0.88058 0.73845 0.76668 0.0
O753 O 0.87289 0.71972 0.75984 0.0
H754 H 0.93408 0.70014 0.76683 0.0
H755 H 0.87707 0.66656 0.78299 0.0
O756 O 0.91631 0.71277 0.82339 0.0
H757 H 0.83644 0.68352 0.84695 0.0
H758 H 0.89815 0.64335 0.75355 0.0
Cu759 Cu 0.56254 0.63745 0.04471 0.0
N760 N 0.56853 0.61109 0.05848 0.0
N761 N 0.5633 0.5819 0.07951 0.0
C762 C 0.5543 0.59986 0.0707 0.0
C763 C 0.58406 0.58183 0.0724 0.0
C764 C 0.58726 0.59991 0.05951 0.0
O765 O 0.53298 0.63449 0.03384 0.0
C766 C 0.55549 0.66134 0.08363 0.0
O767 O 0.53807 0.64918 0.08567 0.0
H768 H 0.53758 0.60479 0.07295 0.0
H769 H 0.60222 0.60471 0.05168 0.0
N770 N 0.58175 0.64249 0.02167 0.0
N771 N 0.60194 0.65991 0.99695 0.0
C772 C 0.59039 0.6617 0.01552 0.0
C773 C 0.58816 0.62805 1.0066 0.0
C774 C 0.60058 0.63871 0.99135 0.0
C775 C 0.52646 0.64134 0.0155 0.0
O776 O 0.53919 0.65395 1.00396 0.0
H777 H 0.58749 0.67683 0.02401 0.0
H778 H 0.58365 0.61106 1.00645 0.0
O779 O 0.56675 0.65993 0.0664 0.0
H780 H 0.59623 0.56986 0.07656 0.0
H781 H 0.6079 0.63144 0.97714 0.0
Cu782 Cu 0.63517 0.31851 0.29933 0.0
N783 N 0.66304 0.32718 0.30874 0.0
N784 N 0.69535 0.32654 0.32564 0.0
C785 C 0.6747 0.31906 0.32545 0.0
C786 C 0.69648 0.34054 0.30886 0.0
C787 C 0.67663 0.34092 0.29856 0.0
O788 O 0.63721 0.28974 0.28559 0.0
C789 C 0.61609 0.30805 0.34053 0.0
O790 O 0.62953 0.2915 0.34062 0.0
H791 H 0.66843 0.30731 0.33682 0.0
H792 H 0.67276 0.34996 0.28408 0.0
N793 N 0.62538 0.3374 0.27745 0.0
N794 N 0.60397 0.35806 0.2564 0.0
C795 C 0.60595 0.34741 0.27555 0.0
C796 C 0.63587 0.34163 0.25881 0.0
C797 C 0.62287 0.35444 0.24593 0.0
C798 C 0.65055 0.27504 0.29144 0.0
O799 O 0.6617 0.27765 0.30936 0.0
H800 H 0.59335 0.34645 0.28774 0.0
H801 H 0.65157 0.33507 0.25449 0.0
O802 O 0.61531 0.32034 0.32395 0.0
H803 H 0.71098 0.34894 0.30354 0.0
H804 H 0.62663 0.35972 0.22964 0.0
Cu805 Cu 0.97138 0.37137 0.55217 0.0
N806 N 0.96058 0.39931 0.55811 0.0
N807 N 0.96881 0.43084 0.57491 0.0
C808 C 0.97456 0.41617 0.55958 0.0
C809 C 0.94962 0.42349 0.58256 0.0
C810 C 0.94468 0.40407 0.57232 0.0
O811 O 0.99871 0.37574 0.53701 0.0
C812 C 0.95782 0.34953 0.58916 0.0
O813 O 0.93965 0.3493 0.578 0.0
H814 H 0.99005 0.41628 0.55143 0.0
H815 H 0.93217 0.3928 0.57729 0.0
N816 N 0.9545 0.3521 0.53514 0.0
N817 N 0.93291 0.3343 0.51163 0.0
C818 C 0.93961 0.35408 0.51902 0.0
C819 C 0.9575 0.33057 0.53741 0.0
C820 C 0.94426 0.31967 0.52325 0.0
C821 C 0.01634 0.38144 0.54619 0.0
O822 O 0.01723 0.38209 0.56746 0.0
H823 H 0.93391 0.36949 0.5128 0.0
H824 H 0.96887 0.32328 0.54861 0.0
O825 O 0.97473 0.35814 0.58084 0.0
H826 H 0.94114 0.43011 0.59643 0.0
H827 H 0.94357 0.3022 0.52118 0.0
Cu828 Cu 0.89232 0.32815 0.73801 0.0
N829 N 0.86682 0.3354 0.72306 0.0
N830 N 0.8361 0.33223 0.70384 0.0
C831 C 0.85206 0.32158 0.71449 0.0
C832 C 0.84108 0.35352 0.70574 0.0
C833 C 0.8601 0.3554 0.7174 0.0
O834 O 0.8867 0.30082 0.75299 0.0
C835 C 0.91294 0.31024 0.70204 0.0
O836 O 0.89793 0.29534 0.70501 0.0
H837 H 0.85295 0.30409 0.71611 0.0
H838 H 0.86862 0.37031 0.72121 0.0
N839 N 0.89966 0.35036 0.75779 0.0
N840 N 0.91809 0.37345 0.77919 0.0
C841 C 0.91929 0.35574 0.76613 0.0
C842 C 0.88569 0.36498 0.76609 0.0
C843 C 0.89696 0.37922 0.77915 0.0
C844 C 0.87317 0.3005 0.76861 0.0
O845 O 0.86445 0.31888 0.77505 0.0
H846 H 0.93416 0.34715 0.76239 0.0
H847 H 0.86843 0.36528 0.76284 0.0
O848 O 0.91462 0.3255 0.71588 0.0
H849 H 0.83184 0.36677 0.6988 0.0
H850 H 0.89008 0.39266 0.78816 0.0
Cu851 Cu 0.96236 0.64471 0.98261 0.0
N852 N 0.95535 0.61773 0.97048 0.0
N853 N 0.9598 0.58712 0.95137 0.0
C854 C 0.96936 0.60525 0.95926 0.0
C855 C 0.9389 0.58826 0.95788 0.0
C856 C 0.93615 0.60728 0.96949 0.0
O857 O 0.99051 0.64107 0.9967 0.0
C858 C 0.94718 0.67483 0.95129 0.0
O859 O 0.92899 0.67352 0.9623 0.0
H860 H 0.98629 0.60943 0.95695 0.0
H861 H 0.92111 0.61325 0.97627 0.0
N862 N 0.94187 0.65368 1.00349 0.0
N863 N 0.92321 0.67447 0.02697 0.0
C864 C 0.93837 0.674 1.01103 0.0
C865 C 0.92867 0.64084 0.01521 0.0
C866 C 0.91714 0.65354 0.02957 0.0
C867 C 0.99214 0.62709 1.01185 0.0
O868 O 0.97466 0.61643 0.01786 0.0
H869 H 0.94688 0.6881 1.00492 0.0
H870 H 0.92792 0.62333 1.01391 0.0
O871 O 0.96388 0.66465 0.95804 0.0
H872 H 0.92639 0.57648 0.95403 0.0
H873 H 0.90573 0.6476 0.04149 0.0
Cu874 Cu 0.64162 0.70635 0.22451 0.0
N875 N 0.67105 0.70443 0.2166 0.0
N876 N 0.70266 0.71281 0.20052 0.0
C877 C 0.68091 0.71592 0.2008 0.0
C878 C 0.70652 0.6986 0.21677 0.0
C879 C 0.68705 0.69353 0.22666 0.0
O880 O 0.63951 0.73208 0.24263 0.0
C881 C 0.62975 0.6957 0.18235 0.0
O882 O 0.64697 0.6833 0.18438 0.0
H883 H 0.67222 0.72654 0.18988 0.0
H884 H 0.68482 0.68323 0.24067 0.0
N885 N 0.63263 0.68239 0.24099 0.0
N886 N 0.61412 0.66238 0.2651 0.0
C887 C 0.61839 0.68261 0.25761 0.0
C888 C 0.63758 0.66135 0.23783 0.0
C889 C 0.62623 0.64898 0.25265 0.0
C890 C 0.64542 0.75061 0.23567 0.0
O891 O 0.64964 0.7529 0.21493 0.0
H892 H 0.61085 0.6973 0.26365 0.0
H893 H 0.64845 0.6554 0.2254 0.0
O894 O 0.62389 0.70756 0.19825 0.0
H895 H 0.72236 0.69293 0.22183 0.0
H896 H 0.62693 0.63147 0.25415 0.0
Cu897 Cu 0.56944 0.38563 0.4811 0.0
N898 N 0.57554 0.41246 0.46813 0.0
N899 N 0.56914 0.44324 0.44987 0.0
C900 C 0.56087 0.42798 0.46328 0.0
C901 C 0.58995 0.4372 0.44645 0.0
C902 C 0.59379 0.41819 0.45763 0.0
O903 O 0.54321 0.38983 0.49851 0.0
C904 C 0.55958 0.36985 0.43899 0.0
O905 O 0.54967 0.38865 0.4372 0.0
H906 H 0.54398 0.42708 0.46804 0.0
H907 H 0.60845 0.40854 0.45708 0.0
N908 N 0.59231 0.37736 0.49959 0.0
N909 N 0.61306 0.35796 0.52241 0.0
C910 C 0.59441 0.35858 0.51072 0.0
C911 C 0.61014 0.38903 0.50452 0.0
C912 C 0.62295 0.37715 0.51848 0.0
C913 C 0.52381 0.38906 0.49136 0.0
O914 O 0.52034 0.38259 0.47137 0.0
H915 H 0.58255 0.34559 0.5101 0.0
H916 H 0.61354 0.40519 0.49855 0.0
O917 O 0.56753 0.36447 0.45732 0.0
H918 H 0.6014 0.44545 0.43601 0.0
H919 H 0.63815 0.38247 0.52558 0.0
Cu920 Cu 0.78703 0.88888 0.70462 0.0
N921 N 0.80268 0.86356 0.69791 0.0
N922 N 0.82178 0.83274 0.70078 0.0
C923 C 0.81097 0.84852 0.71153 0.0
C924 C 0.82018 0.83801 0.67962 0.0
C925 C 0.80854 0.85705 0.67793 0.0
O926 O 0.77001 0.88406 0.73077 0.0
C927 C 0.82653 0.91141 0.71315 0.0
O928 O 0.8323 0.8933 0.72279 0.0
H929 H 0.80896 0.84894 0.72892 0.0
H930 H 0.80467 0.86565 0.66314 0.0
N931 N 0.76689 0.89435 0.68245 0.0
N932 N 0.74186 0.91069 0.66176 0.0
C933 C 0.75803 0.91351 0.67639 0.0
C934 C 0.75604 0.87905 0.67119 0.0
C935 C 0.74062 0.88904 0.65848 0.0
C936 C 0.77719 0.87997 0.74968 0.0
O937 O 0.79818 0.88081 0.75342 0.0
H938 H 0.76249 0.92902 0.68343 0.0
H939 H 0.7586 0.86174 0.67281 0.0
O940 O 0.80726 0.9132 0.70582 0.0
H941 H 0.8272 0.8289 0.66633 0.0
H942 H 0.72897 0.88097 0.64804 0.0
Cu943 Cu 0.29583 0.62183 0.31423 0.0
N944 N 0.3113 0.64791 0.3164 0.0
N945 N 0.3296 0.67704 0.30461 0.0
C946 C 0.31543 0.66107 0.29949 0.0
C947 C 0.33453 0.67381 0.32571 0.0
C948 C 0.32323 0.65578 0.33293 0.0
O949 O 0.28002 0.62445 0.28686 0.0
C950 C 0.33568 0.60017 0.30659 0.0
O951 O 0.33918 0.61635 0.29317 0.0
H952 H 0.30915 0.65815 0.28335 0.0
H953 H 0.32429 0.64844 0.34881 0.0
N954 N 0.27644 0.61849 0.33752 0.0
N955 N 0.25117 0.60473 0.35973 0.0
C956 C 0.26472 0.6007 0.34295 0.0
C957 C 0.27024 0.6341 0.35151 0.0
C958 C 0.25457 0.62573 0.36508 0.0
C959 C 0.26435 0.63802 0.2867 0.0
O960 O 0.25835 0.64688 0.30513 0.0
H961 H 0.26546 0.58543 0.33424 0.0
H962 H 0.27623 0.65063 0.35139 0.0
O963 O 0.31714 0.5985 0.3156 0.0
H964 H 0.34577 0.6835 0.33516 0.0
H965 H 0.24605 0.63448 0.37771 0.0
Cu966 Cu 0.65543 0.05149 0.56409 0.0
N967 N 0.62925 0.06663 0.56688 0.0
N968 N 0.60138 0.08717 0.55572 0.0
C969 C 0.61674 0.07257 0.55 0.0
C970 C 0.60415 0.09019 0.57725 0.0
C971 C 0.62145 0.0776 0.58405 0.0
O972 O 0.6527 0.03492 0.53721 0.0
C973 C 0.67631 0.09022 0.55162 0.0
O974 O 0.66117 0.09018 0.5366 0.0
H975 H 0.61966 0.06707 0.5336 0.0
H976 H 0.62867 0.07751 0.60005 0.0
N977 N 0.65997 0.03248 0.58746 0.0
N978 N 0.67512 1.00762 0.60927 0.0
C979 C 0.6781 0.02105 0.59217 0.0
C980 C 0.64514 0.02619 0.60218 0.0
C981 C 0.65438 1.01086 0.61558 0.0
C982 C 0.63843 0.01987 0.53712 0.0
O983 O 0.62816 1.01552 0.55526 0.0
H984 H 0.69292 0.02201 0.58279 0.0
H985 H 0.62857 0.03198 0.60279 0.0
O986 O 0.67804 0.07372 0.56397 0.0
H987 H 0.59527 0.10168 0.58714 0.0
H988 H 0.64642 1.00265 0.62889 0.0
Cu989 Cu 0.22953 0.39893 0.81044 0.0
N990 N 0.22478 0.37183 0.823 0.0
N991 N 0.21436 0.33699 0.82442 0.0
C992 C 0.21591 0.35504 0.81212 0.0
C993 C 0.22265 0.34275 0.84392 0.0
C994 C 0.22902 0.36431 0.84301 0.0
O995 O 0.23894 0.39175 0.78138 0.0
C996 C 0.19828 0.43359 0.81559 0.0
O997 O 0.2148 0.44621 0.8205 0.0
H998 H 0.21121 0.35599 0.79524 0.0
H999 H 0.23632 0.37375 0.85592 0.0
N1000 N 0.25204 0.41477 0.82393 0.0
N1001 N 0.27291 0.43403 0.84677 0.0
C1002 C 0.25449 0.42212 0.8445 0.0
C1003 C 0.26968 0.42199 0.81324 0.0
C1004 C 0.28243 0.43388 0.82714 0.0
C1005 C 0.24352 0.40478 0.7661 0.0
O1006 O 0.24034 0.42573 0.76876 0.0
H1007 H 0.24292 0.41915 0.85736 0.0
H1008 H 0.27322 0.41877 0.79641 0.0
O1009 O 0.20171 0.41388 0.81035 0.0
H1010 H 0.22399 0.33222 0.85788 0.0
H1011 H 0.29779 0.44151 0.82323 0.0
Cu1012 Cu 0.38545 0.48851 0.56327 0.0
N1013 N 0.41353 0.47827 0.56931 0.0
N1014 N 0.44444 0.45942 0.56516 0.0
C1015 C 0.42278 0.46002 0.5614 0.0
C1016 C 0.44877 0.4778 0.5764 0.0
C1017 C 0.42976 0.48937 0.57886 0.0
O1018 O 0.38767 0.50578 0.53655 0.0
C1019 C 0.36271 0.4512 0.54507 0.0
O1020 O 0.37009 0.45722 0.52608 0.0
H1021 H 0.41395 0.44808 0.55197 0.0
H1022 H 0.42812 0.5054 0.58589 0.0
N1023 N 0.37563 0.50582 0.5865 0.0
N1024 N 0.35695 0.52959 0.60695 0.0
C1025 C 0.36122 0.52241 0.58657 0.0
C1026 C 0.38063 0.50249 0.60746 0.0
C1027 C 0.36925 0.51705 0.62005 0.0
C1028 C 0.3988 0.49865 0.5206 0.0
O1029 O 0.4074 0.4792 0.52172 0.0
H1030 H 0.35358 0.52865 0.57206 0.0
H1031 H 0.39159 0.49003 0.61322 0.0
O1032 O 0.36651 0.46293 0.56169 0.0
H1033 H 0.46478 0.48332 0.58118 0.0
H1034 H 0.37006 0.51834 0.63753 0.0
Cu1035 Cu 0.72918 0.11888 0.21548 0.0
N1036 N 0.71557 0.14588 0.21215 0.0
N1037 N 0.70064 0.1773 0.22288 0.0
C1038 C 0.71333 0.1603 0.22841 0.0
C1039 C 0.69454 0.17333 0.2022 0.0
C1040 C 0.70374 0.15388 0.19564 0.0
O1041 O 0.74564 0.12181 0.2426 0.0
C1042 C 0.68691 0.09992 0.22104 0.0
O1043 O 0.68231 0.11812 0.2312 0.0
H1044 H 0.71995 0.15771 0.24444 0.0
H1045 H 0.70128 0.14578 0.18026 0.0
N1046 N 0.74844 0.11282 0.19252 0.0
N1047 N 0.77432 0.09658 0.17261 0.0
C1048 C 0.76386 0.09722 0.19193 0.0
C1049 C 0.7492 0.12241 0.17295 0.0
C1050 C 0.76508 0.11246 0.16068 0.0
C1051 C 0.76168 0.135 0.24198 0.0
O1052 O 0.76709 0.14341 0.22318 0.0
H1053 H 0.76706 0.08633 0.20531 0.0
H1054 H 0.7389 0.13568 0.1679 0.0
O1055 O 0.70642 0.09652 0.21491 0.0
H1056 H 0.68396 0.18352 0.19258 0.0
H1057 H 0.76962 0.11681 0.14431 0.0
Cu1058 Cu 0.64529 0.97594 0.95852 0.0
N1059 N 0.61643 0.96927 0.95153 0.0
N1060 N 0.58309 0.95466 0.9534 0.0
C1061 C 0.60406 0.95316 0.95982 0.0
C1062 C 0.58242 0.97234 0.94042 0.0
C1063 C 0.60291 0.98129 0.93937 0.0
O1064 O 0.64406 0.99332 0.98488 0.0
C1065 C 0.68112 0.94693 0.95923 0.0
O1066 O 0.69258 0.96473 0.95642 0.0
H1067 H 0.61027 0.94089 0.97072 0.0
H1068 H 0.60748 0.99606 0.93104 0.0
N1069 N 0.65797 0.99204 0.93592 0.0
N1070 N 0.67843 1.01577 0.91724 0.0
C1071 C 0.67207 1.00886 0.93713 0.0
C1072 C 0.6553 0.98821 0.91463 0.0
C1073 C 0.66777 1.00276 0.90311 0.0
C1074 C 0.63479 0.9854 1.00152 0.0
O1075 O 0.6294 0.96474 1.0014 0.0
H1076 H 0.67785 1.01554 0.95232 0.0
H1077 H 0.645 0.9756 0.90795 0.0
O1078 O 0.66067 0.94849 0.96179 0.0
H1079 H 0.56797 0.97901 0.933 0.0
H1080 H 0.66866 1.00377 0.88563 0.0
Cu1081 Cu 0.89514 0.03832 0.45532 0.0
N1082 N 0.92336 0.04882 0.45067 0.0
N1083 N 0.95694 0.0609 0.45835 0.0
C1084 C 0.93914 0.05036 0.46578 0.0
C1085 C 0.95209 0.06597 0.43757 0.0
C1086 C 0.93142 0.05854 0.43292 0.0
O1087 O 0.89544 0.02435 0.48356 0.0
C1088 C 0.87844 0.08199 0.4564 0.0
O1089 O 0.89749 0.08735 0.46444 0.0
H1090 H 0.93728 0.04429 0.4821 0.0
H1091 H 0.92255 0.06083 0.41796 0.0
N1092 N 0.88739 0.01752 0.43448 0.0
N1093 N 0.86675 0.99448 0.41515 0.0
C1094 C 0.86761 1.00835 0.43219 0.0
C1095 C 0.89954 1.0092 0.41838 0.0
C1096 C 0.88687 0.99501 0.40643 0.0
C1097 C 0.89616 0.03492 0.50129 0.0
O1098 O 0.894 0.05615 0.50088 0.0
H1099 H 0.854 1.01217 0.44261 0.0
H1100 H 0.91638 1.01325 0.41547 0.0
O1101 O 0.87423 0.06204 0.45267 0.0
H1102 H 0.96223 0.07532 0.42673 0.0
H1103 H 0.89217 0.98565 0.39254 0.0
H1104 H 0.09689 0.23501 0.50185 0.0
H1105 H 0.10793 0.16952 0.47951 0.0
H1106 H 0.13278 0.18284 0.45179 0.0
H1107 H 0.15111 0.21297 0.43343 0.0
H1108 H 0.1415 0.27862 0.45577 0.0
H1109 H 0.11667 0.26549 0.484 0.0
C1110 C 0.10474 0.22373 0.49087 0.0
C1111 C 0.10054 0.20126 0.49281 0.0
C1112 C 0.11935 0.23154 0.47499 0.0
C1113 C 0.11103 0.18681 0.47858 0.0
C1114 C 0.12519 0.19444 0.46263 0.0
C1115 C 0.14352 0.22444 0.44441 0.0
C1116 C 0.14802 0.24679 0.44232 0.0
C1117 C 0.12943 0.21674 0.46063 0.0
C1118 C 0.1384 0.26135 0.45705 0.0
C1119 C 0.1241 0.25383 0.47312 0.0
H1120 H 0.03525 0.85177 0.74619 0.0
H1121 H 0.10215 0.86892 0.73409 0.0
H1122 H 0.09055 0.89834 0.71046 0.0
H1123 H 0.0616 0.91931 0.69301 0.0
H1124 H 0.9946 0.90181 0.70393 0.0
H1125 H 1.00608 0.87268 0.7282 0.0
C1126 C 0.04733 0.8618 0.73829 0.0
C1127 C 0.06964 0.85797 0.74216 0.0
C1128 C 0.04052 0.8788 0.72448 0.0
C1129 C 0.08492 0.87149 0.73185 0.0
C1130 C 0.07828 0.88834 0.71815 0.0
C1131 C 0.04942 0.90907 0.70047 0.0
C1132 C 0.02717 0.91295 0.6964 0.0
C1133 C 0.05614 0.89215 0.71432 0.0
C1134 C 1.01179 0.89956 0.70677 0.0
C1135 C 0.01837 0.88272 0.72061 0.0
H1136 H 0.41164 0.80516 0.9703 0.0
H1137 H 0.37371 0.85237 1.00535 0.0
H1138 H 0.34021 0.83635 0.99072 0.0
H1139 H 0.32186 0.80981 0.96653 0.0
H1140 H 0.36041 0.763 0.93143 0.0
H1141 H 0.39345 0.77798 0.94748 0.0
C1142 C 0.39607 0.81205 0.9747 0.0
C1143 C 0.39528 0.8302 0.98874 0.0
C1144 C 0.37695 0.80281 0.96614 0.0
C1145 C 0.37485 0.83844 0.99468 0.0
C1146 C 0.35569 0.82934 0.98618 0.0
C1147 C 0.33747 0.80292 0.96231 0.0
C1148 C 0.33851 0.78528 0.94759 0.0
C1149 C 0.35655 0.81169 0.97164 0.0
C1150 C 0.35897 0.77638 0.94275 0.0
C1151 C 0.37794 0.78504 0.95186 0.0
H1152 H 0.47671 0.16724 0.24828 0.0
H1153 H 0.41301 0.166 0.21954 0.0
H1154 H 0.4251 0.13817 0.19352 0.0
H1155 H 0.45502 0.11649 0.17716 0.0
H1156 H 0.5185 0.11804 0.20678 0.0
H1157 H 0.50537 0.14339 0.23426 0.0
C1158 C 0.46542 0.16063 0.23647 0.0
C1159 C 0.44405 0.16872 0.23568 0.0
C1160 C 0.47257 0.14487 0.22161 0.0
C1161 C 0.42947 0.1599 0.22052 0.0
C1162 C 0.43648 0.14417 0.20554 0.0
C1163 C 0.46592 0.12236 0.18968 0.0
C1164 C 0.4878 0.11549 0.18977 0.0
C1165 C 0.45817 0.13692 0.2056 0.0
C1166 C 0.50162 0.12293 0.20636 0.0
C1167 C 0.49413 0.13752 0.22204 0.0
H1168 H 0.19491 0.81147 0.08364 0.0
H1169 H 0.13224 0.79754 0.11129 0.0
H1170 H 0.11479 0.82166 0.08508 0.0
H1171 H 0.11754 0.84845 0.0555 0.0
H1172 H 0.18041 0.8639 0.02906 0.0
H1173 H 0.19755 0.83766 0.05336 0.0
C1174 C 0.17742 0.81354 0.08366 0.0
C1175 C 0.16488 0.80276 0.09937 0.0
C1176 C 0.16754 0.8279 0.06883 0.0
C1177 C 0.14224 0.8058 0.09946 0.0
C1178 C 0.13225 0.81958 0.08446 0.0
C1179 C 0.13494 0.84585 0.05491 0.0
C1180 C 0.14767 0.85818 0.04053 0.0
C1181 C 0.14475 0.83098 0.06926 0.0
C1182 C 0.17027 0.85482 0.04015 0.0
C1183 C 0.18008 0.83974 0.054 0.0
H1184 H 0.47089 0.92897 0.32749 0.0
H1185 H 0.53161 0.89532 0.3368 0.0
H1186 H 0.51905 0.86586 0.31324 0.0
H1187 H 0.49004 0.84866 0.29179 0.0
H1188 H 0.42908 0.88186 0.28279 0.0
H1189 H 0.44255 0.91263 0.30425 0.0
C1190 C 0.48137 0.91518 0.32442 0.0
C1191 C 0.50213 0.9143 0.33417 0.0
C1192 C 0.47398 0.89823 0.3109 0.0
C1193 C 0.51566 0.89651 0.32951 0.0
C1194 C 0.50841 0.87959 0.31612 0.0
C1195 C 0.47967 0.86261 0.29453 0.0
C1196 C 0.45843 0.8628 0.2859 0.0
C1197 C 0.48749 0.88012 0.30702 0.0
C1198 C 0.44546 0.88129 0.28915 0.0
C1199 C 0.45313 0.89882 0.30156 0.0
H1200 H 0.40398 0.25844 0.58503 0.0
H1201 H 0.33776 0.23664 0.57728 0.0
H1202 H 0.34967 0.20874 0.5518 0.0
H1203 H 0.37894 0.19039 0.53172 0.0
H1204 H 0.44524 0.21153 0.54074 0.0
H1205 H 0.4332 0.2397 0.5657 0.0
C1206 C 0.39212 0.24748 0.578 0.0
C1207 C 0.36996 0.24976 0.5832 0.0
C1208 C 0.3991 0.23131 0.56348 0.0
C1209 C 0.35487 0.23555 0.57347 0.0
C1210 C 0.36169 0.21945 0.55895 0.0
C1211 C 0.39081 0.201 0.53927 0.0
C1212 C 0.41301 0.19876 0.53416 0.0
C1213 C 0.38378 0.21716 0.55384 0.0
C1214 C 0.42804 0.21297 0.54397 0.0
C1215 C 0.42118 0.22906 0.55842 0.0
H1216 H 0.11441 0.12551 0.8036 0.0
H1217 H 0.08532 0.18626 0.78428 0.0
H1218 H 0.05279 0.17753 0.80504 0.0
H1219 H 0.03275 0.15304 0.82936 0.0
H1220 H 0.06225 0.09276 0.84948 0.0
H1221 H 0.09433 0.10095 0.82779 0.0
C1222 C 0.10105 0.13694 0.804 0.0
C1223 C 0.10252 0.15658 0.79231 0.0
C1224 C 0.08237 0.13191 0.81618 0.0
C1225 C 0.08472 0.17093 0.79282 0.0
C1226 C 0.0661 0.16601 0.80485 0.0
C1227 C 0.04623 0.14174 0.82917 0.0
C1228 C 0.04495 0.12229 0.84118 0.0
C1229 C 0.06477 0.14661 0.81671 0.0
C1230 C 0.06254 0.10772 0.8403 0.0
C1231 C 0.08101 0.11246 0.82796 0.0
H1232 H 0.20681 0.44059 0.15351 0.0
H1233 H 0.26916 0.47136 0.16335 0.0
H1234 H 0.25822 0.50145 0.14036 0.0
H1235 H 0.23172 0.5186 0.11654 0.0
H1236 H 0.16983 0.48786 0.10483 0.0
H1237 H 0.17969 0.45839 0.12969 0.0
C1238 C 0.21806 0.45379 0.15054 0.0
C1239 C 0.23886 0.45354 0.16028 0.0
C1240 C 0.21172 0.47113 0.137 0.0
C1241 C 0.253 0.47109 0.15644 0.0
C1242 C 0.2468 0.48832 0.14313 0.0
C1243 C 0.22039 0.5054 0.11924 0.0
C1244 C 0.20015 0.50536 0.10853 0.0
C1245 C 0.22631 0.48843 0.13321 0.0
C1246 C 0.18547 0.48839 0.11285 0.0
C1247 C 0.19119 0.47144 0.12696 0.0
H1248 H 0.73697 0.0992 0.90717 0.0
H1249 H 0.74748 0.07077 0.84401 0.0
H1250 H 0.72494 0.03977 0.85392 0.0
H1251 H 0.70125 0.02117 0.88 0.0
H1252 H 0.6894 0.05034 0.94257 0.0
H1253 H 0.71343 0.08048 0.93334 0.0
C1254 C 0.73427 0.08636 0.89545 0.0
C1255 C 0.74399 0.08761 0.87474 0.0
C1256 C 0.72097 0.06861 0.90115 0.0
C1257 C 0.74052 0.07037 0.86009 0.0
C1258 C 0.72745 0.05262 0.86571 0.0
C1259 C 0.70371 0.03415 0.89162 0.0
C1260 C 0.69326 0.03335 0.91198 0.0
C1261 C 0.71741 0.05166 0.88611 0.0
C1262 C 0.69723 0.05025 0.92688 0.0
C1263 C 0.71093 0.06764 0.92155 0.0
H1264 H 0.78159 0.9402 0.39857 0.0
H1265 H 0.80774 0.93881 0.33373 0.0
H1266 H 0.83878 0.96052 0.34559 0.0
H1267 H 0.85875 0.97976 0.37448 0.0
H1268 H 0.83283 0.98048 0.43943 0.0
H1269 H 0.80159 0.9592 0.42742 0.0
C1270 C 0.79414 0.94445 0.38704 0.0
C1271 C 0.79221 0.93775 0.36524 0.0
C1272 C 0.81206 0.9569 0.394 0.0
C1273 C 0.80855 0.94386 0.35052 0.0
C1274 C 0.82643 0.95621 0.35733 0.0
C1275 C 0.84639 0.97513 0.38607 0.0
C1276 C 0.84827 0.98181 0.40788 0.0
C1277 C 0.8284 0.96278 0.37905 0.0
C1278 C 0.83179 0.97588 0.42252 0.0
C1279 C 0.81392 0.96357 0.41568 0.0
H1280 H 0.85539 0.03561 0.15912 0.0
H1281 H 0.8356 0.04192 0.09233 0.0
H1282 H 0.80495 0.06457 0.10333 0.0
H1283 H 0.78413 0.08333 0.13187 0.0
H1284 H 0.80413 0.07726 0.19861 0.0
H1285 H 0.83422 0.05384 0.18769 0.0
C1286 C 0.84447 0.04202 0.14692 0.0
C1287 C 0.84798 0.03705 0.12486 0.0
C1288 C 0.82685 0.05513 0.15338 0.0
C1289 C 0.8333 0.04523 0.1094 0.0
C1290 C 0.8158 0.05833 0.11569 0.0
C1291 C 0.79513 0.07702 0.14404 0.0
C1292 C 0.79181 0.08222 0.16608 0.0
C1293 C 0.81248 0.06351 0.13762 0.0
C1294 C 0.80607 0.07345 0.1816 0.0
C1295 C 0.8234 0.06012 0.17533 0.0
H1296 H 0.30001 0.61293 0.62444 0.0
H1297 H 0.29001 0.58006 0.68533 0.0
H1298 H 0.31217 0.54963 0.67279 0.0
H1299 H 0.33529 0.53272 0.64498 0.0
H1300 H 0.34553 0.56548 0.58411 0.0
H1301 H 0.32236 0.59545 0.59613 0.0
C1302 C 0.30274 0.59917 0.63503 0.0
C1303 C 0.29336 0.59895 0.65592 0.0
C1304 C 0.31558 0.58165 0.62769 0.0
C1305 C 0.2968 0.58069 0.66917 0.0
C1306 C 0.30961 0.5633 0.66203 0.0
C1307 C 0.33258 0.54646 0.63435 0.0
C1308 C 0.34238 0.54683 0.61367 0.0
C1309 C 0.31923 0.56367 0.64141 0.0
C1310 C 0.33818 0.56462 0.60001 0.0
C1311 C 0.32499 0.58185 0.60695 0.0
H1312 H 0.2559 0.56272 0.37163 0.0
H1313 H 0.20977 0.61518 0.36838 0.0
H1314 H 0.18178 0.59208 0.38446 0.0
H1315 H 0.17046 0.55714 0.39989 0.0
H1316 H 0.21668 0.50499 0.40555 0.0
H1317 H 0.24465 0.52765 0.38839 0.0
C1318 C 0.23966 0.56893 0.37437 0.0
C1319 C 0.23483 0.59058 0.36876 0.0
C1320 C 0.22374 0.55564 0.38419 0.0
C1321 C 0.21384 0.59862 0.37266 0.0
C1322 C 0.19785 0.58541 0.38182 0.0
C1323 C 0.18662 0.55069 0.39724 0.0
C1324 C 0.19144 0.52934 0.40381 0.0
C1325 C 0.20262 0.56393 0.38772 0.0
C1326 C 0.21261 0.52139 0.4007 0.0
C1327 C 0.22855 0.53432 0.3908 0.0
H1328 H 0.3189 0.46047 0.93372 0.0
H1329 H 0.33625 0.51617 0.89521 0.0
H1330 H 0.31428 0.50229 0.86505 0.0
H1331 H 0.29222 0.47303 0.84887 0.0
H1332 H 0.27377 0.41783 0.88749 0.0
H1333 H 0.29376 0.43284 0.91859 0.0
C1334 C 0.31776 0.46955 0.91872 0.0
C1335 C 0.32938 0.48918 0.91653 0.0
C1336 C 0.30489 0.46156 0.90158 0.0
C1337 C 0.32745 0.50106 0.89723 0.0
C1338 C 0.31497 0.49308 0.87999 0.0
C1339 C 0.29244 0.46443 0.86419 0.0
C1340 C 0.28174 0.44427 0.86589 0.0
C1341 C 0.30392 0.47319 0.88187 0.0
C1342 C 0.2818 0.4334 0.88588 0.0
C1343 C 0.29338 0.44191 0.90355 0.0
H1344 H 0.60678 0.66232 0.9536 0.0
H1345 H 0.62058 0.6965 1.01308 0.0
H1346 H 0.63834 0.72563 0.99264 0.0
H1347 H 0.64978 0.74157 0.95749 0.0
H1348 H 0.6348 0.70736 0.89828 0.0
H1349 H 0.61788 0.67809 0.91887 0.0
C1350 C 0.61385 0.67602 0.96213 0.0
C1351 C 0.61243 0.67712 0.98488 0.0
C1352 C 0.62384 0.69278 0.95025 0.0
C1353 C 0.6213 0.69529 0.99559 0.0
C1354 C 0.63155 0.71191 0.9839 0.0
C1355 C 0.64293 0.72762 0.94917 0.0
C1356 C 0.64352 0.72671 0.92635 0.0
C1357 C 0.63291 0.71086 0.96118 0.0
C1358 C 0.63434 0.70862 0.91578 0.0
C1359 C 0.62473 0.69181 0.92756 0.0
H1360 H 0.60325 0.39021 0.22651 0.0
H1361 H 0.56173 0.35032 0.26634 0.0
H1362 H 0.5297 0.36647 0.24956 0.0
H1363 H 0.5134 0.39058 0.22238 0.0
H1364 H 0.55459 0.43018 0.18202 0.0
H1365 H 0.5868 0.41556 0.20022 0.0
C1366 C 0.58721 0.385 0.23151 0.0
C1367 C 0.58503 0.36889 0.24763 0.0
C1368 C 0.56877 0.39428 0.22162 0.0
C1369 C 0.56402 0.36274 0.25417 0.0
C1370 C 0.54564 0.37188 0.24444 0.0
C1371 C 0.52941 0.39595 0.21745 0.0
C1372 C 0.53154 0.41129 0.20061 0.0
C1373 C 0.54782 0.38743 0.22795 0.0
C1374 C 0.55245 0.41846 0.19492 0.0
C1375 C 0.57088 0.41001 0.20526 0.0
H1376 H 0.90632 0.29978 0.51009 0.0
H1377 H 0.92626 0.3561 0.47383 0.0
H1378 H 0.90539 0.34314 0.44234 0.0
H1379 H 0.88372 0.31409 0.42437 0.0
H1380 H 0.86538 0.25736 0.46121 0.0
H1381 H 0.88335 0.27215 0.4931 0.0
C1382 C 0.90604 0.30929 0.49532 0.0
C1383 C 0.91807 0.32877 0.49425 0.0
C1384 C 0.8944 0.30153 0.47729 0.0
C1385 C 0.91711 0.34113 0.47514 0.0
C1386 C 0.90533 0.33358 0.45708 0.0
C1387 C 0.88366 0.30494 0.43935 0.0
C1388 C 0.87317 0.28448 0.44016 0.0
C1389 C 0.89431 0.31351 0.4578 0.0
C1390 C 0.87302 0.27315 0.45996 0.0
C1391 C 0.88344 0.28156 0.47827 0.0
H1392 H 0.9309 0.62827 0.742 0.0
H1393 H 0.94936 0.69516 0.73207 0.0
H1394 H 0.97571 0.68392 0.70468 0.0
H1395 H 0.99331 0.65503 0.68311 0.0
H1396 H 0.97415 0.58828 0.69282 0.0
H1397 H 0.94831 0.59955 0.72056 0.0
C1398 C 0.94052 0.64046 0.73376 0.0
C1399 C 0.93796 0.6626 0.73917 0.0
C1400 C 0.9556 0.63388 0.7179 0.0
C1401 C 0.95102 0.67802 0.72851 0.0
C1402 C 0.96604 0.6716 0.71269 0.0
C1403 C 0.98337 0.64295 0.69115 0.0
C1404 C 0.9858 0.62077 0.68577 0.0
C1405 C 0.96842 0.64957 0.70717 0.0
C1406 C 0.97294 0.60538 0.69671 0.0
C1407 C 0.95802 0.61184 0.71255 0.0
H1408 H 0.65472 0.34832 0.53257 0.0
H1409 H 0.58848 0.329 0.54467 0.0
H1410 H 0.60105 0.3012 0.56998 0.0
H1411 H 0.63083 0.28293 0.58944 0.0
H1412 H 0.69706 0.30239 0.57748 0.0
H1413 H 0.68455 0.32948 0.55139 0.0
C1414 C 0.64301 0.33812 0.54081 0.0
C1415 C 0.62062 0.34091 0.53672 0.0
C1416 C 0.65037 0.32214 0.55541 0.0
C1417 C 0.60576 0.32717 0.54729 0.0
C1418 C 0.61295 0.31132 0.5619 0.0
C1419 C 0.64254 0.29316 0.58123 0.0
C1420 C 0.66491 0.29062 0.58558 0.0
C1421 C 0.63521 0.30876 0.56621 0.0
C1422 C 0.67981 0.3038 0.57439 0.0
C1423 C 0.67264 0.31941 0.55953 0.0
H1424 H 0.95289 0.35493 0.79851 0.0
H1425 H 0.92196 0.41652 0.7865 0.0
H1426 H 0.94921 0.43504 0.80868 0.0
H1427 H 0.98083 0.43356 0.83322 0.0
H1428 H 1.01106 0.37183 0.84632 0.0
H1429 H 0.98536 0.35363 0.82212 0.0
C1430 C 0.95234 0.37242 0.80053 0.0
C1431 C 0.93535 0.38429 0.79092 0.0
C1432 C 0.96791 0.38296 0.81369 0.0
C1433 C 0.9347 0.40696 0.79392 0.0
C1434 C 0.95032 0.41758 0.80657 0.0
C1435 C 0.98195 0.41618 0.83054 0.0
C1436 C 0.99782 0.4041 0.84168 0.0
C1437 C 0.96685 0.40574 0.8168 0.0
C1438 C 0.99885 0.3815 0.83821 0.0
C1439 C 0.98418 0.37108 0.82428 0.0
H1440 H 0.90545 0.76118 0.07816 0.0
H1441 H 0.84832 0.7255 0.09759 0.0
H1442 H 0.85951 0.6949 0.07494 0.0
H1443 H 0.88585 0.67799 0.05013 0.0
H1444 H 0.94372 0.71335 0.03215 0.0
H1445 H 0.9318 0.74428 0.05369 0.0
C1446 C 0.89548 0.74668 0.07772 0.0
C1447 C 0.87605 0.74577 0.08982 0.0
C1448 C 0.90213 0.72902 0.06481 0.0
C1449 C 0.86322 0.72687 0.08843 0.0
C1450 C 0.86969 0.70926 0.07552 0.0
C1451 C 0.89601 0.69234 0.05101 0.0
C1452 C 0.91578 0.69308 0.03941 0.0
C1453 C 0.88918 0.7101 0.06373 0.0
C1454 C 0.92837 0.71217 0.04056 0.0
C1455 C 0.92161 0.72991 0.05306 0.0
H1456 H 0.55389 0.64993 0.34667 0.0
H1457 H 0.5444 0.58722 0.31667 0.0
H1458 H 0.56839 0.5976 0.287 0.0
H1459 H 0.59253 0.62429 0.26965 0.0
H1460 H 0.60245 0.68683 0.2998 0.0
H1461 H 0.57794 0.67671 0.32921 0.0
C1462 C 0.55715 0.63847 0.33373 0.0
C1463 C 0.54724 0.61778 0.33404 0.0
C1464 C 0.5711 0.64452 0.31667 0.0
C1465 C 0.55148 0.60333 0.31685 0.0
C1466 C 0.56536 0.60921 0.29988 0.0
C1467 C 0.58949 0.63567 0.28272 0.0
C1468 C 0.59946 0.65632 0.28243 0.0
C1469 C 0.57534 0.62972 0.29965 0.0
C1470 C 0.59492 0.67094 0.2994 0.0
C1471 C 0.58095 0.66511 0.31632 0.0
H1472 H 0.7518 0.95079 0.64677 0.0
H1473 H 0.69859 0.90662 0.65767 0.0
H1474 H 0.67308 0.93297 0.64264 0.0
H1475 H 0.66582 0.96831 0.62585 0.0
H1476 H 0.71877 1.01223 0.61299 0.0
H1477 H 0.74445 0.98636 0.62903 0.0
C1478 C 0.7346 0.9471 0.64593 0.0
C1479 C 0.72707 0.9268 0.65333 0.0
C1480 C 0.72 0.96224 0.63678 0.0
C1481 C 0.70477 0.92205 0.65192 0.0
C1482 C 0.69018 0.93713 0.64337 0.0
C1483 C 0.68296 0.97229 0.62671 0.0
C1484 C 0.69034 0.99225 0.61837 0.0
C1485 C 0.6976 0.95723 0.63567 0.0
C1486 C 0.71269 0.99694 0.61919 0.0
C1487 C 0.72735 0.98218 0.62846 0.0
H1488 H 0.23505 0.38396 0.26334 0.0
H1489 H 0.28853 0.39571 0.30722 0.0
H1490 H 0.27107 0.3732 0.33466 0.0
H1491 H 0.24147 0.34889 0.3457 0.0
H1492 H 0.18796 0.33695 0.30214 0.0
H1493 H 0.20453 0.3609 0.27509 0.0
C1494 C 0.2428 0.38181 0.27899 0.0
C1495 C 0.26316 0.3915 0.28312 0.0
C1496 C 0.23276 0.36864 0.29469 0.0
C1497 C 0.2729 0.38849 0.30353 0.0
C1498 C 0.26297 0.37552 0.31923 0.0
C1499 C 0.23353 0.35137 0.33022 0.0
C1500 C 0.21365 0.3409 0.32579 0.0
C1501 C 0.2431 0.36522 0.31486 0.0
C1502 C 0.20327 0.3448 0.30589 0.0
C1503 C 0.21276 0.35846 0.29044 0.0
H1504 H 0.9121 0.99381 0.50576 0.0
H1505 H 0.89645 0.05158 0.54235 0.0
H1506 H 0.91158 0.03516 0.57505 0.0
H1507 H 0.93054 1.00508 0.5929 0.0
H1508 H 0.94752 0.94788 0.55609 0.0
H1509 H 0.93034 0.96332 0.52392 0.0
C1510 C 0.91173 1.00273 0.52094 0.0
C1511 C 0.90311 0.02393 0.52155 0.0
C1512 C 0.92082 0.99334 0.53963 0.0
C1513 C 0.90296 0.03526 0.54136 0.0
C1514 C 0.91168 0.0259 0.56008 0.0
C1515 C 0.93069 0.99602 0.57784 0.0
C1516 C 0.94052 0.97536 0.57698 0.0
C1517 C 0.92096 1.0051 0.55933 0.0
C1518 C 0.94 0.96372 0.55733 0.0
C1519 C 0.93024 0.97259 0.53887 0.0
H1520 H 0.25667 0.68631 0.84174 0.0
H1521 H 0.31581 0.7061 0.8099 0.0
H1522 H 0.3035 0.68887 0.77629 0.0
H1523 H 0.27528 0.66922 0.75555 0.0
H1524 H 0.21588 0.65037 0.78761 0.0
H1525 H 0.22893 0.66632 0.82142 0.0
C1526 C 0.26683 0.68711 0.82744 0.0
C1527 C 0.28711 0.69772 0.8284 0.0
C1528 C 0.2596 0.67726 0.80814 0.0
C1529 C 0.3002 0.69799 0.80973 0.0
C1530 C 0.29312 0.68819 0.79045 0.0
C1531 C 0.26527 0.66841 0.76998 0.0
C1532 C 0.24459 0.65857 0.76895 0.0
C1533 C 0.27279 0.67785 0.78943 0.0
C1534 C 0.23183 0.65782 0.78784 0.0
C1535 C 0.23927 0.66699 0.80722 0.0
H1536 H 0.60421 0.97582 0.03143 0.0
H1537 H 0.64651 0.02761 1.01049 0.0
H1538 H 0.63053 0.05194 0.03765 0.0
H1539 H 0.60381 0.05858 0.06695 0.0
H1540 H 0.56034 1.00674 0.08557 0.0
H1541 H 0.57757 0.98245 0.0598 0.0
C1542 C 0.61016 0.99235 0.03292 0.0
C1543 C 0.62666 0.9998 0.01904 0.0
C1544 C 0.60058 1.00633 0.04814 0.0
C1545 C 0.63389 0.02141 0.02103 0.0
C1546 C 0.6247 0.03536 0.03651 0.0
C1547 C 0.59801 0.04204 0.06527 0.0
C1548 C 0.58091 0.03456 0.07851 0.0
C1549 C 0.60785 0.02805 0.05003 0.0
C1550 C 0.57375 1.01294 0.07609 0.0
C1551 C 0.58352 0.99899 0.0612 0.0
H1552 H 0.24385 0.68242 0.19645 0.0
H1553 H 0.18869 0.70507 0.23307 0.0
H1554 H 0.20035 0.6838 0.2643 0.0
H1555 H 0.22682 0.66007 0.28177 0.0
H1556 H 0.28214 0.63674 0.24581 0.0
H1557 H 0.26969 0.65662 0.21369 0.0
C1558 C 0.23449 0.68272 0.21132 0.0
C1559 C 0.21547 0.69542 0.21248 0.0
C1560 C 0.24122 0.67019 0.22926 0.0
C1561 C 0.20328 0.69536 0.23172 0.0
C1562 C 0.20997 0.68323 0.2496 0.0
C1563 C 0.23606 0.6591 0.26684 0.0
C1564 C 0.2554 0.64695 0.26622 0.0
C1565 C 0.22894 0.6707 0.2486 0.0
C1566 C 0.2671 0.64581 0.24669 0.0
C1567 C 0.26009 0.65736 0.22838 0.0
H1568 H 0.61141 0.98529 0.53321 0.0
H1569 H 0.64877 0.03066 0.49514 0.0
H1570 H 0.63319 1.01545 0.46184 0.0
H1571 H 0.60741 0.99051 0.44374 0.0
H1572 H 0.56969 0.94589 0.48236 0.0
H1573 H 0.58716 0.95942 0.51519 0.0
C1574 C 0.61632 0.99179 0.51764 0.0
C1575 C 0.63118 1.0092 0.51673 0.0
C1576 C 0.60715 0.98313 0.49863 0.0
C1577 C 0.63743 0.01725 0.49635 0.0
C1578 C 0.62842 1.00862 0.4773 0.0
C1579 C 0.60294 0.98379 0.45933 0.0
C1580 C 0.58707 0.96725 0.46048 0.0
C1581 C 0.61298 0.9918 0.47827 0.0
C1582 C 0.58189 0.95846 0.48086 0.0
C1583 C 0.59181 0.9663 0.49971 0.0
H1584 H 0.30663 0.38264 0.68844 0.0
H1585 H 0.28988 0.31746 0.70768 0.0
H1586 H 0.26547 0.33173 0.73555 0.0
H1587 H 0.24952 0.36263 0.75475 0.0
H1588 H 0.26561 0.42806 0.73532 0.0
H1589 H 0.28943 0.41382 0.70694 0.0
C1590 C 0.29779 0.37163 0.69892 0.0
C1591 C 0.3002 0.34904 0.69626 0.0
C1592 C 0.28353 0.37998 0.71464 0.0
C1593 C 0.28827 0.33489 0.70954 0.0
C1594 C 0.27433 0.34304 0.72541 0.0
C1595 C 0.2581 0.37383 0.74423 0.0
C1596 C 0.25583 0.3964 0.74723 0.0
C1597 C 0.27185 0.36555 0.7281 0.0
C1598 C 0.26698 0.41062 0.73333 0.0
C1599 C 0.28073 0.40249 0.71719 0.0
H1600 H 0.91569 1.00955 1.00998 0.0
H1601 H 0.93528 0.05876 0.05602 0.0
H1602 H 0.95064 0.08053 0.02691 0.0
H1603 H 0.96023 0.08499 0.98863 0.0
H1604 H 0.94205 0.03533 0.94257 0.0
H1605 H 0.92423 1.01476 0.97118 0.0
C1606 C 0.92311 0.02514 1.01359 0.0
C1607 C 0.92439 0.0324 0.03522 0.0
C1608 C 0.93225 0.03759 0.99671 0.0
C1609 C 0.93417 0.05263 0.03958 0.0
C1610 C 0.94299 0.06516 0.02292 0.0
C1611 C 0.95239 0.06968 0.98482 0.0
C1612 C 0.95259 0.06186 0.96337 0.0
C1613 C 0.94244 0.05766 1.00147 0.0
C1614 C 0.942 0.04205 0.95878 0.0
C1615 C 0.9319 0.0301 0.97523 0.0
H1616 H 0.3104 0.20983 0.33769 0.0
H1617 H 0.35061 0.26644 0.3275 0.0
H1618 H 0.3256 0.28853 0.34829 0.0
H1619 H 0.29222 0.29239 0.36915 0.0
H1620 H 0.25101 0.23664 0.37957 0.0
H1621 H 0.27655 0.21375 0.35941 0.0
C1622 C 0.31367 0.22698 0.34007 0.0
C1623 C 0.33232 0.23636 0.3306 0.0
C1624 C 0.2991 0.23984 0.35231 0.0
C1625 C 0.33623 0.25869 0.33393 0.0
C1626 C 0.32199 0.27142 0.3461 0.0
C1627 C 0.28884 0.27519 0.36723 0.0
C1628 C 0.2697 0.26631 0.37602 0.0
C1629 C 0.30337 0.26222 0.35531 0.0
C1630 C 0.26562 0.24398 0.37308 0.0
C1631 C 0.28021 0.23086 0.36147 0.0
H1632 H 1.0121 0.03077 0.6355 0.0
H1633 H 0.94751 0.05534 0.64709 0.0
H1634 H 0.95649 0.0888 0.62791 0.0
H1635 H 0.98224 0.11064 0.60613 0.0
H1636 H 0.04657 0.08547 0.59443 0.0
H1637 H 0.03818 0.05315 0.61534 0.0
C1638 C 1.00004 0.04353 0.63409 0.0
C1639 C 0.97913 0.04038 0.64276 0.0
C1640 C 1.00524 0.06278 0.62285 0.0
C1641 C 0.96375 0.05718 0.64063 0.0
C1642 C 0.96884 0.07637 0.62956 0.0
C1643 C 0.99441 0.0981 0.60823 0.0
C1644 C 1.01506 0.10077 0.59877 0.0
C1645 C 0.98944 0.07925 0.62029 0.0
C1646 C 0.03068 0.0843 0.60179 0.0
C1647 C 0.02585 0.06559 0.61366 0.0
H1648 H 0.15612 0.72666 0.83917 0.0
H1649 H 0.15201 0.78912 0.87089 0.0
H1650 H 0.18295 0.77993 0.89366 0.0
H1651 H 0.21311 0.75517 0.90291 0.0
H1652 H 0.21578 0.69194 0.87269 0.0
H1653 H 0.18348 0.70032 0.85142 0.0
C1654 C 0.16163 0.73815 0.8513 0.0
C1655 C 0.15187 0.75883 0.85276 0.0
C1656 C 0.1794 0.73266 0.86467 0.0
C1657 C 0.15946 0.77335 0.86879 0.0
C1658 C 0.17718 0.76807 0.88198 0.0
C1659 C 0.20645 0.74315 0.89187 0.0
C1660 C 0.21698 0.723 0.8894 0.0
C1661 C 0.18763 0.74798 0.87973 0.0
C1662 C 0.20801 0.70755 0.87507 0.0
C1663 C 0.18955 0.71236 0.86277 0.0
H1664 H 0.5007 1.01397 0.08804 0.0
H1665 H 0.49554 0.99179 0.15409 0.0
H1666 H 0.47581 0.95928 0.14164 0.0
H1667 H 0.45977 0.93729 0.11153 0.0
H1668 H 0.46726 0.95938 0.04573 0.0
H1669 H 0.48622 0.99194 0.05848 0.0
C1670 C 0.49523 1.00209 0.09981 0.0
C1671 C 0.49941 1.00544 0.12203 0.0
C1672 C 0.48422 0.98347 0.0925 0.0
C1673 C 0.49254 0.98962 0.13692 0.0
C1674 C 0.48119 0.97109 0.12978 0.0
C1675 C 0.4654 0.94939 0.10009 0.0
C1676 C 0.46191 0.94613 0.07769 0.0
C1677 C 0.47681 0.96789 0.10758 0.0
C1678 C 0.46972 0.96163 0.06298 0.0
C1679 C 0.48055 0.9802 0.07028 0.0
H1680 H 0.34371 0.79132 0.19046 0.0
H1681 H 0.31168 0.844 0.22386 0.0
H1682 H 0.27705 0.83325 0.20781 0.0
H1683 H 0.2555 0.80794 0.18568 0.0
H1684 H 0.28747 0.7556 0.15176 0.0
H1685 H 0.32252 0.76746 0.16634 0.0
C1686 C 0.32931 0.80077 0.19397 0.0
C1687 C 0.33046 0.81846 0.20856 0.0
C1688 C 0.30935 0.79449 0.18462 0.0
C1689 C 0.31135 0.83016 0.21301 0.0
C1690 C 0.2915 0.82405 0.20376 0.0
C1691 C 0.27013 0.79917 0.18134 0.0
C1692 C 0.26876 0.7808 0.16771 0.0
C1693 C 0.29024 0.80606 0.18981 0.0
C1694 C 0.28798 0.76978 0.16218 0.0
C1695 C 0.30805 0.77653 0.17058 0.0
H1696 H 0.53101 0.02637 0.41591 0.0
H1697 H 0.49814 0.03566 0.35476 0.0
H1698 H 0.47638 0.06478 0.3707 0.0
H1699 H 0.46609 0.08705 0.40226 0.0
H1700 H 0.49864 0.07722 0.46341 0.0
H1701 H 0.52113 0.04888 0.44718 0.0
C1702 C 0.51923 0.03486 0.40596 0.0
C1703 C 0.51626 0.02878 0.38412 0.0
C1704 C 0.50658 0.0514 0.41529 0.0
C1705 C 0.50083 0.03998 0.37158 0.0
C1706 C 0.48829 0.05659 0.38072 0.0
C1707 C 0.47792 0.07855 0.4121 0.0
C1708 C 0.48057 0.08421 0.43409 0.0
C1709 C 0.49085 0.06227 0.40262 0.0
C1710 C 0.49634 0.0733 0.44645 0.0
C1711 C 0.50919 0.05706 0.43718 0.0
H1712 H 0.21112 0.23074 0.68133 0.0
H1713 H 0.2585 0.18964 0.71247 0.0
H1714 H 0.28767 0.20807 0.69302 0.0
H1715 H 0.2999 0.23683 0.66852 0.0
H1716 H 0.25285 0.27842 0.63749 0.0
H1717 H 0.22336 0.25879 0.65552 0.0
C1718 C 0.22783 0.22589 0.68395 0.0
C1719 C 0.23258 0.20888 0.6985 0.0
C1720 C 0.24458 0.23663 0.67271 0.0
C1721 C 0.25433 0.20253 0.7013 0.0
C1722 C 0.27104 0.21314 0.69025 0.0
C1723 C 0.28319 0.24156 0.66555 0.0
C1724 C 0.27863 0.25917 0.65172 0.0
C1725 C 0.26637 0.23032 0.67607 0.0
C1726 C 0.25685 0.26493 0.648 0.0
C1727 C 0.23998 0.25376 0.6584 0.0
H1728 H 0.07945 0.97826 0.92226 0.0
H1729 H 0.03793 0.96538 0.97714 0.0
H1730 H 1.00894 0.98644 0.96057 0.0
H1731 H 0.99539 1.0089 0.93092 0.0
H1732 H 0.03728 0.02434 0.8771 0.0
H1733 H 0.06611 1.00184 0.89281 0.0
C1734 C 0.0642 0.98026 0.93075 0.0
C1735 C 0.06093 0.97001 0.95091 0.0
C1736 C 0.04756 0.99269 0.92121 0.0
C1737 C 0.04086 0.9727 0.96148 0.0
C1738 C 0.02424 0.98482 0.95203 0.0
C1739 C 1.01071 1.0071 0.92243 0.0
C1740 C 1.0141 0.01801 0.90272 0.0
C1741 C 0.02736 0.99477 0.93187 0.0
C1742 C 0.03423 0.01593 0.89221 0.0
C1743 C 0.05074 1.00317 0.90125 0.0
H1744 H 0.35288 0.33097 0.20232 0.0
H1745 H 0.3164 0.34068 0.26129 0.0
H1746 H 0.3386 0.31364 0.27964 0.0
H1747 H 0.36712 0.2855 0.27849 0.0
H1748 H 0.40137 0.27386 0.21868 0.0
H1749 H 0.38144 0.30337 0.20122 0.0
C1750 C 0.34959 0.32713 0.21912 0.0
C1751 C 0.33284 0.33801 0.23025 0.0
C1752 C 0.36219 0.31122 0.22954 0.0
C1753 C 0.32925 0.3329 0.25222 0.0
C1754 C 0.34193 0.3173 0.26279 0.0
C1755 C 0.3705 0.28976 0.26178 0.0
C1756 C 0.38583 0.2777 0.24993 0.0
C1757 C 0.35836 0.30624 0.25158 0.0
C1758 C 0.38972 0.28303 0.22814 0.0
C1759 C 0.37824 0.29981 0.21812 0.0
H1760 H 0.84256 0.206 0.79569 0.0
H1761 H 0.81756 0.24181 0.85029 0.0
H1762 H 0.83218 0.27561 0.83536 0.0
H1763 H 0.85161 0.29503 0.80657 0.0
H1764 H 0.87805 0.25924 0.75251 0.0
H1765 H 0.86349 0.22539 0.76744 0.0
C1766 C 0.84022 0.22126 0.80418 0.0
C1767 C 0.82883 0.22149 0.82398 0.0
C1768 C 0.84903 0.24058 0.79566 0.0
C1769 C 0.82629 0.24126 0.83508 0.0
C1770 C 0.83462 0.26057 0.82652 0.0
C1771 C 0.85427 0.27982 0.79807 0.0
C1772 C 0.86585 0.27971 0.7784 0.0
C1773 C 0.84599 0.26043 0.80682 0.0
C1774 C 0.86929 0.2598 0.76772 0.0
C1775 C 0.86086 0.24044 0.7762 0.0
H1776 H 0.99997 0.59962 0.0455 0.0
H1777 H 0.03245 0.64211 1.0003 0.0
H1778 H 0.06767 0.6311 0.01498 0.0
H1779 H 0.08925 0.60838 0.03968 0.0
H1780 H 0.05677 0.56554 0.08446 0.0
H1781 H 0.02152 0.57801 0.07115 0.0
C1782 C 1.01472 0.60659 0.03889 0.0
C1783 C 1.0135 0.62161 0.0217 0.0
C1784 C 0.03493 0.60012 0.04736 0.0
C1785 C 0.03285 0.63052 1.01349 0.0
C1786 C 0.05302 0.62419 0.02186 0.0
C1787 C 0.07449 0.60168 0.04648 0.0
C1788 C 0.07574 0.58585 0.06295 0.0
C1789 C 0.05426 0.6088 0.0386 0.0
C1790 C 0.05636 0.57779 0.0719 0.0
C1791 C 0.03617 0.58483 0.06418 0.0
H1792 H 0.66593 0.78863 0.22675 0.0
H1793 H 0.63919 0.75146 0.27967 0.0
H1794 H 0.65337 0.77805 0.3056 0.0
H1795 H 0.67515 0.81086 0.31332 0.0
H1796 H 0.70162 0.84765 0.25995 0.0
H1797 H 0.68617 0.82198 0.23431 0.0
C1798 C 0.66293 0.78644 0.24393 0.0
C1799 C 0.6515 0.76804 0.2512 0.0
C1800 C 0.67146 0.80155 0.25877 0.0
C1801 C 0.64791 0.76547 0.27357 0.0
C1802 C 0.65612 0.78062 0.28844 0.0
C1803 C 0.67741 0.81336 0.29609 0.0
C1804 C 0.68987 0.83112 0.28877 0.0
C1805 C 0.66822 0.79856 0.28124 0.0
C1806 C 0.69267 0.83395 0.26629 0.0
C1807 C 0.6836 0.81935 0.25149 0.0
H1808 H 0.05288 0.92492 0.06017 0.0
H1809 H 0.02134 0.90365 1.00136 0.0
H1810 H 0.98637 0.91663 0.01518 0.0
H1811 H 0.9649 0.93548 0.04365 0.0
H1812 H 0.99677 0.95558 0.10261 0.0
H1813 H 0.03138 0.94173 0.08909 0.0
C1814 C 0.03833 0.92292 0.05042 0.0
C1815 C 0.03979 0.91333 0.02973 0.0
C1816 C 0.01831 0.93043 0.05846 0.0
C1817 C 0.02071 0.9108 0.0174 0.0
C1818 C 1.00071 0.91839 0.02524 0.0
C1819 C 0.97947 0.93687 0.05343 0.0
C1820 C 0.9783 0.94668 0.07407 0.0
C1821 C 0.99935 0.92851 0.04564 0.0
C1822 C 0.99723 0.94803 0.08675 0.0
C1823 C 0.01703 0.94014 0.079 0.0
H1824 H 0.21454 0.72748 0.73298 0.0
H1825 H 0.17379 0.72602 0.67603 0.0
H1826 H 0.15219 0.75584 0.69032 0.0
H1827 H 0.14285 0.78034 0.72006 0.0
H1828 H 0.18275 0.78236 0.7775 0.0
H1829 H 0.20686 0.75473 0.76187 0.0
C1830 C 0.20098 0.73377 0.72371 0.0
C1831 C 0.1958 0.72437 0.70345 0.0
C1832 C 0.18849 0.75111 0.73208 0.0
C1833 C 0.17833 0.73296 0.69151 0.0
C1834 C 0.16586 0.75001 0.69973 0.0
C1835 C 0.15705 0.77503 0.72903 0.0
C1836 C 0.16095 0.78338 0.74994 0.0
C1837 C 0.17057 0.75897 0.72011 0.0
C1838 C 0.17947 0.77638 0.76129 0.0
C1839 C 0.19312 0.76038 0.75245 0.0
H1840 H 0.01604 0.39011 0.50286 0.0
H1841 H 0.05617 0.39556 0.56007 0.0
H1842 H 0.0837 0.41506 0.53925 0.0
H1843 H 0.09598 0.43134 0.50505 0.0
H1844 H 0.05543 0.42677 0.44814 0.0
H1845 H 0.0285 0.40606 0.46861 0.0
C1846 C 0.0309 0.39534 0.51077 0.0
C1847 C 0.034 0.39128 0.53304 0.0
C1848 C 0.04653 0.40686 0.49878 0.0
C1849 C 0.05333 0.39837 0.54297 0.0
C1850 C 0.06906 0.40962 0.53109 0.0
C1851 C 0.08115 0.42607 0.49715 0.0
C1852 C 0.0777 0.43079 0.47506 0.0
C1853 C 0.06571 0.41419 0.50905 0.0
C1854 C 0.05857 0.4233 0.46504 0.0
C1855 C 0.04314 0.41149 0.47677 0.0
H1856 H 0.44656 0.60907 0.95943 0.0
H1857 H 0.44519 0.56016 1.00948 0.0
H1858 H 0.4752 0.57809 0.02808 0.0
H1859 H 0.50258 0.60698 0.02974 0.0
H1860 H 0.5052 0.65516 0.97906 0.0
H1861 H 0.474 0.63821 0.96118 0.0
C1862 C 0.45293 0.60219 0.97428 0.0
C1863 C 0.44348 0.58324 0.98298 0.0
C1864 C 0.47039 0.61253 0.98488 0.0
C1865 C 0.45185 0.57484 1.00248 0.0
C1866 C 0.46912 0.58505 1.01313 0.0
C1867 C 0.4962 0.61396 0.01492 0.0
C1868 C 0.50622 0.63239 1.00582 0.0
C1869 C 0.47853 0.60389 1.00449 0.0
C1870 C 0.49782 0.64102 0.98646 0.0
C1871 C 0.48001 0.63128 0.97617 0.0
H1872 H 0.70119 0.8439 0.80833 0.0
H1873 H 0.75576 0.82292 0.84698 0.0
H1874 H 0.78074 0.83967 0.82143 0.0
H1875 H 0.78734 0.86006 0.78784 0.0
H1876 H 0.73284 0.88105 0.74912 0.0
H1877 H 0.70773 0.86501 0.77519 0.0
C1878 C 0.71853 0.84312 0.81129 0.0
C1879 C 0.72643 0.83197 0.82959 0.0
C1880 C 0.73291 0.85298 0.79656 0.0
C1881 C 0.74906 0.83097 0.83291 0.0
C1882 C 0.76344 0.84075 0.81837 0.0
C1883 C 0.76997 0.86134 0.7852 0.0
C1884 C 0.76204 0.87181 0.76653 0.0
C1885 C 0.75557 0.85178 0.80011 0.0
C1886 C 0.73944 0.8731 0.76332 0.0
C1887 C 0.72504 0.86387 0.77821 0.0
H1888 H 0.42178 0.50407 0.10632 0.0
H1889 H 0.43047 0.44796 0.06515 0.0
H1890 H 0.40946 0.46544 0.03657 0.0
H1891 H 0.38969 0.497 0.02273 0.0
H1892 H 0.38194 0.55379 0.06317 0.0
H1893 H 0.40151 0.53567 0.09254 0.0
C1894 C 0.41928 0.49572 0.09105 0.0
C1895 C 0.42782 0.47468 0.08796 0.0
C1896 C 0.40725 0.50596 0.07455 0.0
C1897 C 0.42397 0.46402 0.06813 0.0
C1898 C 0.412 0.47405 0.05171 0.0
C1899 C 0.39204 0.50539 0.03803 0.0
C1900 C 0.38427 0.52677 0.0407 0.0
C1901 C 0.40362 0.49503 0.05471 0.0
C1902 C 0.38767 0.53735 0.06064 0.0
C1903 C 0.39895 0.52702 0.07743 0.0
H1904 H 0.79126 0.17432 0.33266 0.0
H1905 H 0.84148 0.201 0.29187 0.0
H1906 H 0.82652 0.18185 0.26062 0.0
H1907 H 0.79877 0.15851 0.24448 0.0
H1908 H 0.74815 0.13137 0.28445 0.0
H1909 H 0.76374 0.14946 0.31638 0.0
C1910 C 0.79883 0.176 0.31691 0.0
C1911 C 0.8175 0.18917 0.31467 0.0
C1912 C 0.79014 0.16475 0.29886 0.0
C1913 C 0.82728 0.19087 0.29416 0.0
C1914 C 0.81868 0.17996 0.27623 0.0
C1915 C 0.79117 0.15636 0.26019 0.0
C1916 C 0.77226 0.14357 0.26199 0.0
C1917 C 0.80011 0.16693 0.27836 0.0
C1918 C 0.76278 0.14097 0.28256 0.0
C1919 C 0.77162 0.15146 0.30081 0.0
H1920 H 0.102 0.56991 0.55442 0.0
H1921 H 0.07877 0.51743 0.5946 0.0
H1922 H 0.09798 0.49124 0.57227 0.0
H1923 H 0.1211 0.48283 0.54114 0.0
H1924 H 0.14411 0.53472 0.5002 0.0
H1925 H 0.12578 0.56142 0.52323 0.0
C1926 C 0.10121 0.55276 0.55831 0.0
C1927 C 0.08866 0.54579 0.57609 0.0
C1928 C 0.11249 0.5376 0.54538 0.0
C1929 C 0.08778 0.52341 0.58079 0.0
C1930 C 0.09901 0.50833 0.56814 0.0
C1931 C 0.12237 0.49999 0.53738 0.0
C1932 C 0.13411 0.50673 0.51902 0.0
C1933 C 0.11139 0.51521 0.55039 0.0
C1934 C 0.13525 0.52906 0.51426 0.0
C1935 C 0.12469 0.54435 0.52738 0.0
H1936 H 0.71087 0.18458 0.72253 0.0
H1937 H 0.76607 0.1957 0.68091 0.0
H1938 H 0.78997 0.17897 0.70743 0.0
H1939 H 0.79558 0.16173 0.74266 0.0
H1940 H 0.74079 0.1505 0.78477 0.0
H1941 H 0.71642 0.16625 0.75771 0.0
C1942 C 0.7281 0.18321 0.71922 0.0
C1943 C 0.73658 0.19169 0.69978 0.0
C1944 C 0.74188 0.17339 0.73459 0.0
C1945 C 0.75903 0.18986 0.69586 0.0
C1946 C 0.77276 0.18007 0.71097 0.0
C1947 C 0.77829 0.16251 0.74589 0.0
C1948 C 0.77008 0.15489 0.76576 0.0
C1949 C 0.76441 0.17188 0.73042 0.0
C1950 C 0.7476 0.15621 0.76963 0.0
C1951 C 0.73363 0.16529 0.75418 0.0
H1952 H 0.12803 0.46874 0.94693 0.0
H1953 H 0.06875 0.50491 0.95603 0.0
H1954 H 0.08709 0.52879 0.98197 0.0
H1955 H 0.11968 0.53857 1.00311 0.0
H1956 H 0.17858 0.50152 0.9946 0.0
H1957 H 0.16067 0.47888 0.9674 0.0
C1958 C 0.11902 0.48168 0.95473 0.0
C1959 C 0.09694 0.48486 0.9496 0.0
C1960 C 0.12965 0.4953 0.96968 0.0
C1961 C 0.08575 0.50212 0.95955 0.0
C1962 C 0.09623 0.51576 0.97444 0.0
C1963 C 0.12869 0.52572 0.99511 0.0
C1964 C 0.15049 0.5218 1.00092 0.0
C1965 C 0.11817 0.51246 0.9797 0.0
C1966 C 0.16181 0.50492 0.9905 0.0
C1967 C 0.15155 0.49189 0.97497 0.0
H1968 H 0.78342 0.87716 0.27327 0.0
H1969 H 0.74166 0.9051 0.22444 0.0
H1970 H 0.7616 0.8858 0.19618 0.0
H1971 H 0.79005 0.85993 0.18537 0.0
H1972 H 0.83171 0.83193 0.23408 0.0
H1973 H 0.81273 0.85238 0.26231 0.0
C1974 C 0.77878 0.87922 0.25643 0.0
C1975 C 0.76097 0.89257 0.25106 0.0
C1976 C 0.79022 0.86793 0.24023 0.0
C1977 C 0.75526 0.89499 0.22912 0.0
C1978 C 0.76661 0.88387 0.21291 0.0
C1979 C 0.79487 0.85818 0.20218 0.0
C1980 C 0.81216 0.84425 0.20762 0.0
C1981 C 0.78391 0.87006 0.2183 0.0
C1982 C 0.81853 0.84258 0.22944 0.0
C1983 C 0.80763 0.85423 0.24559 0.0
H1984 H 0.4076 0.54228 0.51925 0.0
H1985 H 0.40252 0.4849 0.4793 0.0
H1986 H 0.41734 0.50469 0.44846 0.0
H1987 H 0.43449 0.53715 0.43365 0.0
H1988 H 0.44199 0.59427 0.47356 0.0
H1989 H 0.42328 0.57595 0.50342 0.0
C1990 C 0.40929 0.53434 0.50363 0.0
C1991 C 0.40391 0.51219 0.50149 0.0
C1992 C 0.41854 0.54568 0.48603 0.0
C1993 C 0.40654 0.50194 0.4813 0.0
C1994 C 0.41511 0.51321 0.46369 0.0
C1995 C 0.43218 0.5456 0.4489 0.0
C1996 C 0.43999 0.56697 0.45141 0.0
C1997 C 0.42173 0.53488 0.46603 0.0
C1998 C 0.43618 0.57783 0.47113 0.0
C1999 C 0.42554 0.56732 0.48826 0.0
H2000 H 0.78559 0.78574 0.88197 0.0
H2001 H 0.74298 0.7308 0.89124 0.0
H2002 H 0.76875 0.7073 0.87227 0.0
H2003 H 0.80258 0.70279 0.85123 0.0
H2004 H 0.84466 0.75817 0.84198 0.0
H2005 H 0.81976 0.78099 0.86236 0.0
C2006 C 0.78203 0.76856 0.88014 0.0
C2007 C 0.76235 0.76008 0.8881 0.0
C2008 C 0.79669 0.75523 0.86883 0.0
C2009 C 0.758 0.73779 0.88533 0.0
C2010 C 0.77269 0.72434 0.87438 0.0
C2011 C 0.80637 0.71981 0.85381 0.0
C2012 C 0.8254 0.72869 0.84473 0.0
C2013 C 0.79196 0.73295 0.86575 0.0
C2014 C 0.82995 0.75087 0.8482 0.0
C2015 C 0.81579 0.76396 0.8601 0.0
H2016 H 0.52553 0.50268 0.13184 0.0
H2017 H 0.4804 0.55215 0.15259 0.0
H2018 H 0.5002 0.57936 0.13175 0.0
H2019 H 0.52927 0.58889 0.10628 0.0
H2020 H 0.57385 0.5394 0.0846 0.0
H2021 H 0.55552 0.51258 0.10731 0.0
C2022 C 0.52017 0.51946 0.13203 0.0
C2023 C 0.50142 0.52528 0.14379 0.0
C2024 C 0.53148 0.53506 0.11971 0.0
C2025 C 0.49471 0.54713 0.14371 0.0
C2026 C 0.506 0.56273 0.13171 0.0
C2027 C 0.53492 0.57223 0.10638 0.0
C2028 C 0.55287 0.56622 0.09354 0.0
C2029 C 0.52418 0.55682 0.11936 0.0
C2030 C 0.56021 0.54459 0.09436 0.0
C2031 C 0.54965 0.52918 0.1073 0.0
H2032 H 0.69963 0.28692 0.34456 0.0
H2033 H 0.73208 0.34848 0.33565 0.0
H2034 H 0.76463 0.33414 0.35299 0.0
H2035 H 0.78484 0.30345 0.36799 0.0
H2036 H 0.75286 0.2418 0.3774 0.0
H2037 H 0.71898 0.257 0.36303 0.0
C2038 C 0.71362 0.29737 0.3468 0.0
C2039 C 0.7134 0.31875 0.3385 0.0
C2040 C 0.73242 0.28897 0.35681 0.0
C2041 C 0.73188 0.3319 0.34145 0.0
C2042 C 0.7505 0.32372 0.35145 0.0
C2043 C 0.77041 0.29336 0.36712 0.0
C2044 C 0.77145 0.27145 0.37357 0.0
C2045 C 0.75112 0.30215 0.35872 0.0
C2046 C 0.75251 0.25871 0.37257 0.0
C2047 C 0.73317 0.26738 0.36423 0.0
H2048 H 0.04283 0.48808 0.61663 0.0
H2049 H 0.98757 0.52386 0.64049 0.0
H2050 H 0.96297 0.49827 0.62243 0.0
H2051 H 0.95716 0.46605 0.5989 0.0
H2052 H 1.0131 0.43105 0.5751 0.0
H2053 H 0.03711 0.45615 0.59359 0.0
C2054 C 0.0254 0.49016 0.61816 0.0
C2055 C 0.01712 0.50781 0.63013 0.0
C2056 C 1.01135 0.47567 0.60734 0.0
C2057 C 0.99445 0.51038 0.63151 0.0
C2058 C 0.98035 0.49579 0.62109 0.0
C2059 C 0.97459 0.4639 0.59777 0.0
C2060 C 0.98304 0.44664 0.58524 0.0
C2061 C 0.9886 0.47844 0.60876 0.0
C2062 C 1.00581 0.44429 0.58401 0.0
C2063 C 0.01972 0.45858 0.59487 0.0
H2064 H 0.83433 0.29481 0.68079 0.0
H2065 H 0.79588 0.34926 0.7022 0.0
H2066 H 0.76394 0.33422 0.68406 0.0
H2067 H 0.74661 0.30515 0.66312 0.0
H2068 H 0.78472 0.25077 0.64077 0.0
H2069 H 0.81712 0.26628 0.658 0.0
C2070 C 0.81891 0.30328 0.68152 0.0
C2071 C 0.81744 0.32309 0.69293 0.0
C2072 C 0.8006 0.29461 0.67077 0.0
C2073 C 0.79746 0.33409 0.69343 0.0
C2074 C 0.77918 0.32546 0.6831 0.0
C2075 C 0.76203 0.29673 0.66184 0.0
C2076 C 0.76318 0.27678 0.6507 0.0
C2077 C 0.78053 0.30571 0.67181 0.0
C2078 C 0.78336 0.26621 0.64913 0.0
C2079 C 0.80188 0.275 0.65912 0.0
H2080 H 0.99154 0.59211 0.92176 0.0
H2081 H 0.95046 0.54421 0.95196 0.0
H2082 H 0.96836 0.51534 0.93132 0.0
H2083 H 0.99684 0.50359 0.90593 0.0
H2084 H 0.03761 0.55171 0.87533 0.0
H2085 H 0.01863 0.58057 0.89477 0.0
C2086 C 0.98658 0.57534 0.92386 0.0
C2087 C 0.96983 0.57028 0.93853 0.0
C2088 C 0.99686 0.55886 0.91183 0.0
C2089 C 0.96324 0.54852 0.94072 0.0
C2090 C 0.97353 0.53201 0.92898 0.0
C2091 C 1.00147 0.5204 0.90335 0.0
C2092 C 0.01875 0.52539 0.88923 0.0
C2093 C 0.9905 0.53697 0.91463 0.0
C2094 C 0.0244 0.54732 0.88605 0.0
C2095 C 1.01361 0.56387 0.89725 0.0
H2096 H 0.69791 0.75099 0.17904 0.0
H2097 H 0.74369 0.69937 0.19137 0.0
H2098 H 0.77137 0.71875 0.17078 0.0
H2099 H 0.78326 0.75127 0.15074 0.0
H2100 H 0.73724 0.80268 0.13834 0.0
H2101 H 0.70896 0.78218 0.15698 0.0
C2102 C 0.71378 0.74371 0.17699 0.0
C2103 C 0.71859 0.72369 0.18703 0.0
C2104 C 0.72968 0.75494 0.16501 0.0
C2105 C 0.7395 0.71486 0.18426 0.0
C2106 C 0.75537 0.7259 0.17233 0.0
C2107 C 0.76697 0.75789 0.15184 0.0
C2108 C 0.7625 0.77859 0.14316 0.0
C2109 C 0.75075 0.7461 0.16286 0.0
C2110 C 0.74126 0.78684 0.14485 0.0
C2111 C 0.72504 0.77515 0.15561 0.0
H2112 H 0.50777 0.51741 0.41578 0.0
H2113 H 0.55299 0.51537 0.36238 0.0
H2114 H 0.57297 0.48607 0.38008 0.0
H2115 H 0.57798 0.46143 0.41093 0.0
H2116 H 0.53338 0.46408 0.46477 0.0
H2117 H 0.51275 0.49263 0.44661 0.0
C2118 C 0.52189 0.51045 0.4079 0.0
C2119 C 0.52881 0.51862 0.38772 0.0
C2120 C 0.5335 0.49377 0.4183 0.0
C2121 C 0.54725 0.50945 0.37788 0.0
C2122 C 0.55874 0.49271 0.38802 0.0
C2123 C 0.56392 0.46839 0.41885 0.0
C2124 C 0.55736 0.46058 0.4393 0.0
C2125 C 0.55214 0.48488 0.40833 0.0
C2126 C 0.53875 0.46958 0.44901 0.0
C2127 C 0.52696 0.48598 0.43864 0.0
H2128 H 0.84375 0.83035 0.73869 0.0
H2129 H 0.82395 0.79277 0.68301 0.0
H2130 H 0.84148 0.76056 0.69803 0.0
H2131 H 0.86133 0.74271 0.72742 0.0
H2132 H 0.88204 0.77998 0.78304 0.0
H2133 H 0.8655 0.81268 0.76757 0.0
C2134 C 0.84325 0.81507 0.72994 0.0
C2135 C 0.83245 0.81393 0.7098 0.0
C2136 C 0.85361 0.79659 0.73861 0.0
C2137 C 0.83224 0.79411 0.69844 0.0
C2138 C 0.84221 0.77567 0.70706 0.0
C2139 C 0.86239 0.75801 0.73612 0.0
C2140 C 0.87286 0.75885 0.75641 0.0
C2141 C 0.85284 0.77669 0.72716 0.0
C2142 C 0.87419 0.77887 0.76735 0.0
C2143 C 0.8646 0.79756 0.75857 0.0
H2144 H 0.36895 0.69664 0.30718 0.0
H2145 H 0.31048 0.69333 0.26866 0.0
H2146 H 0.32569 0.71926 0.243 0.0
H2147 H 0.35506 0.74371 0.23196 0.0
H2148 H 0.41315 0.74829 0.27097 0.0
H2149 H 0.39867 0.72101 0.29586 0.0
C2150 C 0.35946 0.70173 0.29329 0.0
C2151 C 0.33857 0.69296 0.28992 0.0
C2152 C 0.3683 0.7168 0.27857 0.0
C2153 C 0.32667 0.69955 0.27158 0.0
C2154 C 0.33534 0.71446 0.2569 0.0
C2155 C 0.36472 0.73857 0.24574 0.0
C2156 C 0.38522 0.74802 0.2495 0.0
C2157 C 0.35612 0.7232 0.26023 0.0
C2158 C 0.39734 0.74127 0.26762 0.0
C2159 C 0.38903 0.72573 0.28193 0.0
H2160 H 0.54916 0.13367 0.48151 0.0
H2161 H 0.50517 0.14605 0.53453 0.0
H2162 H 0.52997 0.12785 0.55953 0.0
H2163 H 0.56339 0.10678 0.56602 0.0
H2164 H 0.60719 0.09474 0.51274 0.0
H2165 H 0.58309 0.11406 0.48826 0.0
C2166 C 0.54507 0.13264 0.49857 0.0
C2167 C 0.52528 0.14125 0.50606 0.0
C2168 C 0.55925 0.12187 0.51283 0.0
C2169 C 0.52027 0.13959 0.52825 0.0
C2170 C 0.53442 0.1291 0.54258 0.0
C2171 C 0.56777 0.10853 0.54912 0.0
C2172 C 0.58705 0.09898 0.54134 0.0
C2173 C 0.55384 0.1199 0.535 0.0
C2174 C 0.5923 0.10137 0.51925 0.0
C2175 C 0.57858 0.11264 0.50518 0.0
H2176 H 0.18547 0.32832 0.79239 0.0
H2177 H 0.22568 0.29776 0.84089 0.0
H2178 H 0.2143 0.262 0.828 0.0
H2179 H 0.1945 0.23937 0.80185 0.0
H2180 H 0.15484 0.26968 0.75273 0.0
H2181 H 0.16458 0.30557 0.76691 0.0
C2182 C 0.19186 0.31387 0.8001 0.0
C2183 C 0.20659 0.31586 0.81754 0.0
C2184 C 0.1854 0.29328 0.79244 0.0
C2185 C 0.21424 0.29684 0.82759 0.0
C2186 C 0.20783 0.27634 0.82012 0.0
C2187 C 0.18786 0.25379 0.79426 0.0
C2188 C 0.17402 0.25177 0.77614 0.0
C2189 C 0.19363 0.27436 0.80241 0.0
C2190 C 0.16552 0.27071 0.76667 0.0
C2191 C 0.17113 0.29126 0.77474 0.0
H2192 H 0.44016 0.43503 0.52869 0.0
H2193 H 0.48473 0.45048 0.58054 0.0
H2194 H 0.51293 0.42886 0.563 0.0
H2195 H 0.52574 0.40754 0.53172 0.0
H2196 H 0.48099 0.39212 0.47996 0.0
H2197 H 0.45204 0.41134 0.49894 0.0
C2198 C 0.45585 0.43337 0.53645 0.0
C2199 C 0.46024 0.44463 0.55592 0.0
C2200 C 0.47208 0.42092 0.52622 0.0
C2201 C 0.48091 0.44236 0.56543 0.0
C2202 C 0.49707 0.42991 0.55543 0.0
C2203 C 0.50959 0.40813 0.52469 0.0
C2204 C 0.50568 0.39845 0.50431 0.0
C2205 C 0.49298 0.41944 0.53561 0.0
C2206 C 0.48459 0.39943 0.49555 0.0
C2207 C 0.46798 0.4105 0.50638 0.0
H2208 H 0.68538 0.24846 0.2941 0.0
H2209 H 0.6281 0.26051 0.2556 0.0
H2210 H 0.63861 0.23128 0.23065 0.0
H2211 H 0.66442 0.2024 0.21976 0.0
H2212 H 0.72248 0.19247 0.25783 0.0
H2213 H 0.71123 0.22073 0.28293 0.0
C2214 C 0.67502 0.24463 0.28037 0.0
C2215 C 0.65586 0.25657 0.27686 0.0
C2216 C 0.68137 0.2282 0.26593 0.0
C2217 C 0.64288 0.25152 0.25876 0.0
C2218 C 0.64893 0.23485 0.24445 0.0
C2219 C 0.67471 0.20654 0.2334 0.0
C2220 C 0.69421 0.19502 0.23692 0.0
C2221 C 0.66824 0.22315 0.2478 0.0
C2222 C 0.70721 0.20063 0.25486 0.0
C2223 C 0.70084 0.21692 0.26923 0.0
H2224 H 0.49374 0.90952 0.97257 0.0
H2225 H 0.52758 0.88989 0.03055 0.0
H2226 H 0.56082 0.90744 0.01733 0.0
H2227 H 0.57944 0.93053 0.99021 0.0
H2228 H 0.54509 0.94903 0.93203 0.0
H2229 H 0.51288 0.92992 0.94455 0.0
C2230 C 0.50842 0.90893 0.9823 0.0
C2231 C 0.5081 0.89853 1.0026 0.0
C2232 C 0.52736 0.91906 0.97463 0.0
C2233 C 0.52736 0.89774 0.01485 0.0
C2234 C 0.54635 0.90788 1.00732 0.0
C2235 C 0.56506 0.93012 0.98008 0.0
C2236 C 0.56476 0.94158 0.96025 0.0
C2237 C 0.54645 0.91888 0.98735 0.0
C2238 C 0.54578 0.94087 0.94753 0.0
C2239 C 0.52732 0.9298 0.95463 0.0
H2240 H 0.02687 0.09595 0.52416 0.0
H2241 H 0.06032 0.11011 0.46445 0.0
H2242 H 0.03197 0.09129 0.44388 0.0
H2243 H 0.99592 0.07421 0.4426 0.0
H2244 H 0.96121 0.06286 0.50236 0.0
H2245 H 0.99183 0.07679 0.52299 0.0
C2246 C 0.02827 0.09438 0.5067 0.0
C2247 C 0.04578 0.1043 0.49586 0.0
C2248 C 1.01145 0.08429 0.49489 0.0
C2249 C 0.04707 0.10252 0.47318 0.0
C2250 C 0.03077 0.0919 0.46139 0.0
C2251 C 0.99494 0.07475 0.46012 0.0
C2252 C 0.97593 0.06757 0.47068 0.0
C2253 C 1.01252 0.08334 0.47202 0.0
C2254 C 0.97544 0.06806 0.49353 0.0
C2255 C 0.99301 0.07618 0.50546 0.0
H2256 H 0.20248 0.42874 0.44596 0.0
H2257 H 0.15848 0.39421 0.4881 0.0
H2258 H 0.173 0.35962 0.47555 0.0
H2259 H 0.195 0.33897 0.44929 0.0
H2260 H 0.239 0.3736 0.40722 0.0
H2261 H 0.22791 0.408 0.42324 0.0
C2262 C 0.19635 0.41368 0.45272 0.0
C2263 C 0.17916 0.4142 0.46772 0.0
C2264 C 0.20464 0.39368 0.44527 0.0
C2265 C 0.17156 0.39443 0.47637 0.0
C2266 C 0.17981 0.37453 0.46916 0.0
C2267 C 0.2025 0.35399 0.44394 0.0
C2268 C 0.21758 0.3536 0.42681 0.0
C2269 C 0.19588 0.37392 0.45309 0.0
C2270 C 0.22716 0.37331 0.42019 0.0
C2271 C 0.22079 0.39309 0.42931 0.0
H2272 H 0.88952 0.97698 0.66684 0.0
H2273 H 0.93674 0.94264 0.70552 0.0
H2274 H 0.90757 0.92296 0.72385 0.0
H2275 H 0.86899 0.91252 0.7258 0.0
H2276 H 0.82193 0.94681 0.68681 0.0
H2277 H 0.85067 0.96964 0.67195 0.0
C2278 C 0.89343 0.96542 0.6795 0.0
C2279 C 0.91531 0.9611 0.68458 0.0
C2280 C 0.8766 0.95401 0.68983 0.0
C2281 C 0.92007 0.94626 0.70123 0.0
C2282 C 0.90338 0.9349 0.71165 0.0
C2283 C 0.86495 0.92521 0.71431 0.0
C2284 C 0.84332 0.92769 0.70723 0.0
C2285 C 0.88163 0.93818 0.70562 0.0
C2286 C 0.8384 0.9444 0.69249 0.0
C2287 C 0.85487 0.95743 0.68389 0.0
H2288 H 0.28633 0.64169 0.91987 0.0
H2289 H 0.3153 0.6918 0.9595 0.0
H2290 H 0.33408 0.6642 0.98095 0.0
H2291 H 0.34485 0.62598 0.98626 0.0
H2292 H 0.31509 0.57594 0.94704 0.0
H2293 H 0.29387 0.60331 0.92787 0.0
C2294 C 0.29656 0.64656 0.93336 0.0
C2295 C 0.29959 0.66878 0.93792 0.0
C2296 C 0.30725 0.6306 0.94567 0.0
C2297 C 0.31268 0.67482 0.95563 0.0
C2298 C 0.32352 0.65903 0.96785 0.0
C2299 C 0.33349 0.62103 0.97373 0.0
C2300 C 0.33177 0.59892 0.96798 0.0
C2301 C 0.32131 0.6369 0.96271 0.0
C2302 C 0.3168 0.5928 0.95183 0.0
C2303 C 0.30472 0.60848 0.94075 0.0
H2304 H 0.64346 0.10381 0.22932 0.0
H2305 H 0.68978 0.06348 0.19555 0.0
H2306 H 0.6601 0.04289 0.17906 0.0
H2307 H 0.62107 0.03854 0.17148 0.0
H2308 H 0.57475 0.07931 0.2047 0.0
H2309 H 0.60431 0.09724 0.22425 0.0
C2310 C 0.64713 0.09032 0.21859 0.0
C2311 C 0.66895 0.08539 0.2136 0.0
C2312 C 0.62992 0.07866 0.20891 0.0
C2313 C 0.67323 0.06776 0.1997 0.0
C2314 C 0.65622 0.05598 0.19017 0.0
C2315 C 0.61735 0.05112 0.18322 0.0
C2316 C 0.59561 0.05762 0.18641 0.0
C2317 C 0.6345 0.06162 0.19424 0.0
C2318 C 0.59125 0.07394 0.20181 0.0
C2319 C 0.60819 0.08431 0.21296 0.0
H2320 H 0.20072 0.69813 0.08739 0.0
H2321 H 0.25211 0.66901 0.12521 0.0
H2322 H 0.24182 0.63319 0.11208 0.0
H2323 H 0.21566 0.60964 0.09355 0.0
H2324 H 0.16483 0.63774 0.05468 0.0
H2325 H 0.17758 0.6744 0.06426 0.0
C2326 C 0.20992 0.68399 0.09244 0.0
C2327 C 0.22696 0.68634 0.1076 0.0
C2328 C 0.2039 0.66321 0.08478 0.0
C2329 C 0.23881 0.66781 0.11375 0.0
C2330 C 0.2329 0.64722 0.10631 0.0
C2331 C 0.20764 0.62383 0.08686 0.0
C2332 C 0.18926 0.62111 0.07362 0.0
C2333 C 0.21508 0.64467 0.0924 0.0
C2334 C 0.17908 0.63951 0.06484 0.0
C2335 C 0.18628 0.66043 0.07047 0.0
H2336 H 0.68136 0.94681 0.33095 0.0
H2337 H 0.65636 0.91959 0.27142 0.0
H2338 H 0.6204 0.9342 0.27945 0.0
H2339 H 0.59511 0.9511 0.30535 0.0
H2340 H 0.6199 0.97667 0.36572 0.0
H2341 H 0.65671 0.96651 0.35532 0.0
C2342 C 0.66817 0.94448 0.3195 0.0
C2343 C 0.67157 0.93201 0.30066 0.0
C2344 C 0.64733 0.95242 0.32451 0.0
C2345 C 0.6542 0.92902 0.2861 0.0
C2346 C 0.63358 0.93731 0.29072 0.0
C2347 C 0.6086 0.9548 0.31607 0.0
C2348 C 0.60464 0.96447 0.33638 0.0
C2349 C 0.62978 0.94848 0.31019 0.0
C2350 C 0.62238 0.96906 0.35007 0.0
C2351 C 0.6435 0.96324 0.34415 0.0
H2352 H 0.33626 0.43681 0.57751 0.0
H2353 H 0.36828 0.41598 0.51888 0.0
H2354 H 0.35752 0.37846 0.52588 0.0
H2355 H 0.34229 0.35104 0.55063 0.0
H2356 H 0.30907 0.37193 0.60856 0.0
H2357 H 0.31666 0.40983 0.59968 0.0
C2358 C 0.3406 0.42409 0.56612 0.0
C2359 C 0.35327 0.42918 0.54784 0.0
C2360 C 0.33419 0.40249 0.57015 0.0
C2361 C 0.35855 0.41255 0.53309 0.0
C2362 C 0.35248 0.39104 0.53713 0.0
C2363 C 0.33635 0.36392 0.56108 0.0
C2364 C 0.32529 0.35861 0.58031 0.0
C2365 C 0.34077 0.38574 0.55588 0.0
C2366 C 0.31755 0.3755 0.59361 0.0
C2367 C 0.32205 0.39722 0.58864 0.0
H2368 H 0.93707 0.10079 0.81579 0.0
H2369 H 0.91595 0.06617 0.87279 0.0
H2370 H 0.87826 0.07579 0.86495 0.0
H2371 H 0.8518 0.09786 0.84434 0.0
H2372 H 0.87372 0.1338 0.7885 0.0
H2373 H 0.91036 0.11965 0.79331 0.0
C2374 C 0.92423 0.09502 0.82633 0.0
C2375 C 0.92945 0.08298 0.84499 0.0
C2376 C 0.90262 0.10101 0.82202 0.0
C2377 C 0.91249 0.07559 0.85838 0.0
C2378 C 0.89088 0.08115 0.85395 0.0
C2379 C 0.8645 0.10217 0.83296 0.0
C2380 C 0.86006 0.117 0.81618 0.0
C2381 C 0.88581 0.09441 0.83617 0.0
C2382 C 0.87674 0.12257 0.80166 0.0
C2383 C 0.89774 0.11452 0.80442 0.0
H2384 H 0.49061 0.17364 0.39684 0.0
H2385 H 0.44564 0.21051 0.43585 0.0
H2386 H 0.43025 0.22683 0.40311 0.0
H2387 H 0.42608 0.22636 0.363 0.0
H2388 H 0.46981 0.1872 0.32488 0.0
H2389 H 0.48926 0.17629 0.35751 0.0
C2390 C 0.47771 0.18555 0.39828 0.0
C2391 C 0.46912 0.19057 0.41879 0.0
C2392 C 0.46854 0.19435 0.37941 0.0
C2393 C 0.45253 0.20622 0.42027 0.0
C2394 C 0.44361 0.21549 0.40152 0.0
C2395 C 0.44022 0.21593 0.3619 0.0
C2396 C 0.44649 0.2075 0.34163 0.0
C2397 C 0.45095 0.20907 0.38093 0.0
C2398 C 0.46465 0.19377 0.34035 0.0
C2399 C 0.47574 0.18747 0.359 0.0
H2400 H 0.08732 0.19161 0.61149 0.0
H2401 H 0.11579 0.12877 0.59887 0.0
H2402 H 0.13404 0.12998 0.63421 0.0
H2403 H 0.14104 0.14858 0.66901 0.0
H2404 H 0.11198 0.21126 0.68128 0.0
H2405 H 0.09461 0.21027 0.64569 0.0
C2406 C 0.09759 0.17816 0.61633 0.0
C2407 C 0.10016 0.16009 0.60248 0.0
C2408 C 0.10776 0.17887 0.63669 0.0
C2409 C 0.11358 0.14289 0.60914 0.0
C2410 C 0.12393 0.14355 0.62939 0.0
C2411 C 0.13086 0.16202 0.66395 0.0
C2412 C 0.12776 0.17996 0.67792 0.0
C2413 C 0.12096 0.16138 0.64338 0.0
C2414 C 0.11462 0.19725 0.67097 0.0
C2415 C 0.10471 0.19671 0.65058 0.0
H2416 H 0.11458 0.87278 0.92592 0.0
H2417 H 0.04477 0.87179 0.91916 0.0
H2418 H 0.04826 0.85968 0.8817 0.0
H2419 H 0.07075 0.84903 0.85108 0.0
H2420 H 0.14059 0.84988 0.85665 0.0
H2421 H 0.13751 0.86294 0.89419 0.0
C2422 C 0.10016 0.86969 0.91628 0.0
C2423 C 0.0794 0.87296 0.92543 0.0
C2424 C 0.10229 0.86307 0.89447 0.0
C2425 C 0.0609 0.86931 0.9126 0.0
C2426 C 0.06287 0.86246 0.89112 0.0
C2427 C 0.08537 0.85222 0.8604 0.0
C2428 C 0.10588 0.84847 0.85105 0.0
C2429 C 0.08344 0.85935 0.88191 0.0
C2430 C 0.12461 0.85284 0.86337 0.0
C2431 C 0.12283 0.86008 0.8849 0.0
H2432 H 0.49101 0.85312 0.1174 0.0
H2433 H 0.43379 0.82598 0.08723 0.0
H2434 H 0.42233 0.81082 0.12198 0.0
H2435 H 0.42709 0.80778 0.16163 0.0
H2436 H 0.48485 0.83441 0.19134 0.0
H2437 H 0.4975 0.84708 0.15618 0.0
C2438 C 0.47616 0.84366 0.11835 0.0
C2439 C 0.46323 0.84086 0.09972 0.0
C2440 C 0.46963 0.835 0.1384 0.0
C2441 C 0.44412 0.82839 0.10126 0.0
C2442 C 0.43746 0.8198 0.12119 0.0
C2443 C 0.44254 0.81617 0.16038 0.0
C2444 C 0.45485 0.82029 0.17922 0.0
C2445 C 0.44985 0.8234 0.13998 0.0
C2446 C 0.47495 0.83102 0.17721 0.0
C2447 C 0.48222 0.83836 0.15706 0.0
H2448 H 0.39017 0.48837 0.17659 0.0
H2449 H 0.43571 0.45457 0.21775 0.0
H2450 H 0.40573 0.43917 0.23847 0.0
H2451 H 0.36676 0.43122 0.24161 0.0
H2452 H 0.32119 0.46433 0.19996 0.0
H2453 H 0.35097 0.48425 0.18303 0.0
C2454 C 0.39359 0.47798 0.19035 0.0
C2455 C 0.41522 0.47239 0.19532 0.0
C2456 C 0.37622 0.46883 0.20202 0.0
C2457 C 0.41927 0.45907 0.21339 0.0
C2458 C 0.4021 0.45013 0.22522 0.0
C2459 C 0.36327 0.44309 0.2291 0.0
C2460 C 0.34176 0.44598 0.22186 0.0
C2461 C 0.38052 0.45426 0.21917 0.0
C2462 C 0.33756 0.46164 0.20581 0.0
C2463 C 0.35462 0.47298 0.19601 0.0
H2464 H 0.84459 0.94049 0.08563 0.0
H2465 H 0.88996 0.90226 0.04834 0.0
H2466 H 0.87152 0.86899 0.05945 0.0
H2467 H 0.84528 0.85049 0.08322 0.0
H2468 H 0.80044 0.88882 0.12106 0.0
H2469 H 0.81571 0.92211 0.10605 0.0
C2470 C 0.85025 0.92492 0.07962 0.0
C2471 C 0.86885 0.92396 0.06638 0.0
C2472 C 0.83975 0.90575 0.08633 0.0
C2473 C 0.8758 0.90358 0.05867 0.0
C2474 C 0.8653 0.88447 0.06508 0.0
C2475 C 0.83854 0.86609 0.08788 0.0
C2476 C 0.82188 0.86707 0.10349 0.0
C2477 C 0.84766 0.88531 0.07943 0.0
C2478 C 0.81337 0.8875 0.10924 0.0
C2479 C 0.82215 0.90662 0.10071 0.0
H2480 H 0.14896 0.62846 0.71397 0.0
H2481 H 0.19677 0.591 0.67908 0.0
H2482 H 0.16825 0.56683 0.66554 0.0
H2483 H 0.12936 0.55845 0.66081 0.0
H2484 H 0.08165 0.59586 0.69596 0.0
H2485 H 0.11049 0.61761 0.71238 0.0
C2486 C 0.1532 0.61487 0.70359 0.0
C2487 C 0.175 0.61175 0.69737 0.0
C2488 C 0.13668 0.60101 0.69583 0.0
C2489 C 0.18016 0.59387 0.68411 0.0
C2490 C 0.16382 0.58006 0.67628 0.0
C2491 C 0.12525 0.57111 0.67234 0.0
C2492 C 0.10325 0.57557 0.67692 0.0
C2493 C 0.14196 0.58376 0.68163 0.0
C2494 C 0.09835 0.59201 0.69203 0.0
C2495 C 0.11487 0.60459 0.70137 0.0
H2496 H 0.66282 0.90673 0.96482 0.0
H2497 H 0.72237 0.93843 0.94559 0.0
H2498 H 0.73748 0.90363 0.93434 0.0
H2499 H 0.73232 0.86497 0.92607 0.0
H2500 H 0.67305 0.83289 0.94522 0.0
H2501 H 0.65952 0.86691 0.96072 0.0
C2502 C 0.67923 0.90599 0.95847 0.0
C2503 C 0.69128 0.9253 0.95578 0.0
C2504 C 0.68786 0.88583 0.95191 0.0
C2505 C 0.71261 0.92394 0.94774 0.0
C2506 C 0.72128 0.904 0.94122 0.0
C2507 C 0.71659 0.86532 0.93397 0.0
C2508 C 0.70363 0.84646 0.93425 0.0
C2509 C 0.70883 0.88496 0.94264 0.0
C2510 C 0.68339 0.84714 0.94477 0.0
C2511 C 0.67556 0.86666 0.9535 0.0
H2512 H 0.81316 0.14462 0.40829 0.0
H2513 H 0.85104 0.19284 0.4425 0.0
H2514 H 0.87109 0.16419 0.46105 0.0
H2515 H 0.88026 0.12547 0.46505 0.0
H2516 H 0.84226 0.07724 0.43103 0.0
H2517 H 0.81987 0.10581 0.41515 0.0
C2518 C 0.82559 0.1489 0.42003 0.0
C2519 C 0.83068 0.17093 0.42376 0.0
C2520 C 0.83722 0.13229 0.43059 0.0
C2521 C 0.84676 0.17608 0.43919 0.0
C2522 C 0.85835 0.15967 0.44977 0.0
C2523 C 0.86693 0.12117 0.45435 0.0
C2524 C 0.86316 0.0992 0.44909 0.0
C2525 C 0.8541 0.13772 0.44519 0.0
C2526 C 0.84564 0.09398 0.43535 0.0
C2527 C 0.83284 0.11034 0.42618 0.0
H2528 H 0.70474 0.18622 0.57363 0.0
H2529 H 0.74469 0.15237 0.62014 0.0
H2530 H 0.73322 0.11756 0.60506 0.0
H2531 H 0.70898 0.09655 0.58111 0.0
H2532 H 0.66942 0.1304 0.53427 0.0
H2533 H 0.68379 0.16513 0.54684 0.0
C2534 C 0.71119 0.17125 0.58027 0.0
C2535 C 0.72537 0.17201 0.59818 0.0
C2536 C 0.70448 0.15116 0.57154 0.0
C2537 C 0.7337 0.15238 0.60642 0.0
C2538 C 0.72707 0.13238 0.59785 0.0
C2539 C 0.70375 0.11149 0.57341 0.0
C2540 C 0.68793 0.11077 0.55692 0.0
C2541 C 0.71203 0.13154 0.58078 0.0
C2542 C 0.6815 0.13035 0.54704 0.0
C2543 C 0.68965 0.15031 0.55429 0.0
H2544 H 0.09859 0.44683 0.83477 0.0
H2545 H 0.12286 0.5074 0.86065 0.0
H2546 H 0.15909 0.49907 0.84697 0.0
H2547 H 0.18473 0.47276 0.83142 0.0
H2548 H 0.16069 0.41157 0.80677 0.0
H2549 H 0.12366 0.42206 0.81604 0.0
C2550 C 0.11168 0.45844 0.837 0.0
C2551 C 0.108 0.47765 0.84887 0.0
C2552 C 0.13267 0.4533 0.82956 0.0
C2553 C 0.12523 0.49243 0.85169 0.0
C2554 C 0.14601 0.48764 0.84395 0.0
C2555 C 0.17138 0.46183 0.82779 0.0
C2556 C 0.17561 0.44129 0.81864 0.0
C2557 C 0.15007 0.46782 0.83347 0.0
C2558 C 0.15801 0.4274 0.81397 0.0
C2559 C 0.13677 0.43338 0.81929 0.0
H2560 H 0.37836 0.60404 0.29556 0.0
H2561 H 0.33493 0.56706 0.33621 0.0
H2562 H 0.36596 0.55011 0.35413 0.0
H2563 H 0.40526 0.54898 0.36112 0.0
H2564 H 0.44859 0.58701 0.32132 0.0
H2565 H 0.41779 0.60012 0.30013 0.0
C2566 C 0.37563 0.59199 0.30807 0.0
C2567 C 0.35427 0.58705 0.31464 0.0
C2568 C 0.39357 0.58262 0.31865 0.0
C2569 C 0.35114 0.57131 0.33087 0.0
C2570 C 0.3689 0.56166 0.34121 0.0
C2571 C 0.40805 0.55987 0.3476 0.0
C2572 C 0.42926 0.56717 0.34303 0.0
C2573 C 0.39019 0.56768 0.33568 0.0
C2574 C 0.43248 0.58121 0.32535 0.0
C2575 C 0.41483 0.58878 0.31323 0.0
H2576 H 0.92272 0.709 0.93841 0.0
H2577 H 0.97088 0.66368 0.9155 0.0
H2578 H 0.96584 0.67679 0.87836 0.0
H2579 H 0.94481 0.69862 0.85192 0.0
H2580 H 0.8978 0.74493 0.87566 0.0
H2581 H 0.90554 0.73417 0.91278 0.0
C2582 C 0.93236 0.70225 0.92532 0.0
C2583 C 0.94699 0.68528 0.92965 0.0
C2584 C 0.92948 0.70996 0.90407 0.0
C2585 C 0.95955 0.67682 0.9126 0.0
C2586 C 0.95656 0.68421 0.89132 0.0
C2587 C 0.93654 0.70661 0.86524 0.0
C2588 C 0.92055 0.72239 0.86087 0.0
C2589 C 0.94115 0.7004 0.88677 0.0
C2590 C 0.91014 0.7327 0.8784 0.0
C2591 C 0.91447 0.72648 0.89973 0.0
H2592 H 0.59612 0.67789 0.08827 0.0
H2593 H 0.53545 0.67014 0.12236 0.0
H2594 H 0.55247 0.68334 0.15577 0.0
H2595 H 0.58591 0.69266 0.17632 0.0
H2596 H 0.64687 0.69666 0.14226 0.0
H2597 H 0.62847 0.68965 0.10787 0.0
C2598 C 0.58645 0.67946 0.10287 0.0
C2599 C 0.56455 0.67289 0.10279 0.0
C2600 C 0.59652 0.68627 0.12216 0.0
C2601 C 0.55237 0.67499 0.12196 0.0
C2602 C 0.56212 0.68246 0.14112 0.0
C2603 C 0.59498 0.69249 0.16125 0.0
C2604 C 0.61766 0.6952 0.1617 0.0
C2605 C 0.58437 0.68751 0.14158 0.0
C2606 C 0.62939 0.69458 0.14222 0.0
C2607 C 0.61889 0.69051 0.12258 0.0
H2608 H 0.58362 0.33782 0.34502 0.0
H2609 H 0.6225 0.29245 0.38153 0.0
H2610 H 0.60698 0.30609 0.41533 0.0
H2611 H 0.58495 0.3334 0.43478 0.0
H2612 H 0.54595 0.37843 0.39788 0.0
H2613 H 0.55871 0.36227 0.36421 0.0
C2614 C 0.58852 0.33072 0.36034 0.0
C2615 C 0.6044 0.31429 0.36067 0.0
C2616 C 0.57957 0.33867 0.37978 0.0
C2617 C 0.61035 0.30515 0.38072 0.0
C2618 C 0.60154 0.31301 0.40012 0.0
C2619 C 0.57895 0.33943 0.41939 0.0
C2620 C 0.56469 0.35732 0.41898 0.0
C2621 C 0.5865 0.33013 0.39989 0.0
C2622 C 0.55705 0.36482 0.39881 0.0
C2623 C 0.5644 0.35563 0.37946 0.0
H2624 H 0.94442 0.33926 0.68936 0.0
H2625 H 0.90684 0.28433 0.66679 0.0
H2626 H 0.91978 0.29021 0.63006 0.0
H2627 H 0.93765 0.31373 0.60355 0.0
H2628 H 0.97593 0.36824 0.62522 0.0
H2629 H 0.96718 0.35958 0.66308 0.0
C2630 C 0.93939 0.32833 0.67648 0.0
C2631 C 0.92432 0.31161 0.68086 0.0
C2632 C 0.94692 0.33181 0.65518 0.0
C2633 C 0.91821 0.29747 0.66397 0.0
C2634 C 0.92556 0.30083 0.64287 0.0
C2635 C 0.94449 0.32338 0.61664 0.0
C2636 C 0.95727 0.34163 0.61173 0.0
C2637 C 0.9393 0.31837 0.63818 0.0
C2638 C 0.96617 0.354 0.6287 0.0
C2639 C 0.96098 0.34917 0.6503 0.0
loop_
_geom_bond_atom_site_label_1
_geom_bond_atom_site_label_2
_geom_bond_distance
_geom_bond_site_symmetry_2
_ccdc_geom_bond_type
Cu0 N1 1.999 . S
Cu0 O6 1.974 . S
Cu0 N11 1.985 . S
Cu0 O20 1.959 . S
N1 Cu0 1.999 . S
N1 C3 1.263 . S
N1 C5 1.389 . S
N2 C3 1.358 . S
N2 C4 1.400 . S
C3 N1 1.263 . S
C3 N2 1.358 . S
C3 H9 0.930 . S
C4 N2 1.400 . S
C4 C5 1.351 . S
C4 H21 0.930 . S
C5 N1 1.389 . S
C5 C4 1.351 . S
C5 H10 0.930 . S
O6 Cu0 1.974 . S
O6 C16 1.282 . S
C7 O8 1.261 . S
C7 O20 1.251 . S
O8 C7 1.261 . S
H9 C3 0.930 . S
H10 C5 0.930 . S
N11 Cu0 1.985 . S
N11 C13 1.335 . S
N11 C14 1.390 . S
N12 C13 1.345 . S
N12 C15 1.336 . S
C13 N11 1.335 . S
C13 N12 1.345 . S
C13 H18 0.930 . S
C14 N11 1.390 . S
C14 C15 1.346 . S
C14 H19 0.930 . S
C15 N12 1.336 . S
C15 C14 1.346 . S
C15 H22 0.929 . S
C16 O6 1.282 . S
C16 O17 1.216 . S
O17 C16 1.216 . S
H18 C13 0.930 . S
H19 C14 0.930 . S
O20 Cu0 1.959 . S
O20 C7 1.251 . S
H21 C4 0.930 . S
H22 C15 0.929 . S
Cu23 N24 1.999 . S
Cu23 O29 1.974 . S
Cu23 N34 1.985 . S
Cu23 O43 1.959 . S
N24 Cu23 1.999 . S
N24 C26 1.263 . S
N24 C28 1.389 . S
N25 C26 1.358 . S
N25 C27 1.400 . S
C26 N24 1.263 . S
C26 N25 1.358 . S
C26 H32 0.930 . S
C27 N25 1.400 . S
C27 C28 1.351 . S
C27 H44 0.930 . S
C28 N24 1.389 . S
C28 C27 1.351 . S
C28 H33 0.930 . S
O29 Cu23 1.974 . S
O29 C39 1.282 . S
C30 O31 1.261 . S
C30 O43 1.251 . S
O31 C30 1.261 . S
H32 C26 0.930 . S
H33 C28 0.930 . S
N34 Cu23 1.985 . S
N34 C36 1.335 . S
N34 C37 1.376 1_655 S
N35 C36 1.345 . S
N35 C38 1.336 1_655 S
C36 N34 1.335 . S
C36 N35 1.345 . S
C36 H41 0.930 . S
C37 N34 1.376 1_455 S
C37 C38 1.354 . S
C37 H42 0.936 . S
C38 N35 1.336 1_455 S
C38 C37 1.354 . S
C38 H45 0.929 . S
C39 O29 1.282 . S
C39 O40 1.216 . S
O40 C39 1.216 . S
H41 C36 0.930 . S
H42 C37 0.936 . S
O43 Cu23 1.959 . S
O43 C30 1.251 . S
H44 C27 0.930 . S
H45 C38 0.929 . S
Cu46 N47 1.999 . S
Cu46 O52 1.974 . S
Cu46 N57 1.985 . S
Cu46 O66 1.959 . S
N47 Cu46 1.999 . S
N47 C49 1.263 . S
N47 C51 1.389 . S
N48 C49 1.358 . S
N48 C50 1.400 . S
C49 N47 1.263 . S
C49 N48 1.358 . S
C49 H55 0.930 . S
C50 N48 1.400 . S
C50 C51 1.351 . S
C50 H67 0.930 . S
C51 N47 1.389 . S
C51 C50 1.351 . S
C51 H56 0.930 . S
O52 Cu46 1.974 . S
O52 C62 1.282 . S
C53 O54 1.261 . S
C53 O66 1.251 . S
O54 C53 1.261 . S
H55 C49 0.930 . S
H56 C51 0.930 . S
N57 Cu46 1.985 . S
N57 C59 1.335 . S
N57 C60 1.390 . S
N58 C59 1.345 . S
N58 C61 1.336 . S
C59 N57 1.335 . S
C59 N58 1.345 . S
C59 H64 0.930 . S
C60 N57 1.390 . S
C60 C61 1.346 . S
C60 H65 0.930 . S
C61 N58 1.336 . S
C61 C60 1.346 . S
C61 H68 0.929 . S
C62 O52 1.282 . S
C62 O63 1.216 . S
O63 C62 1.216 . S
H64 C59 0.930 . S
H65 C60 0.930 . S
O66 Cu46 1.959 . S
O66 C53 1.251 . S
H67 C50 0.930 . S
H68 C61 0.929 . S
Cu69 N70 1.999 . S
Cu69 O75 1.974 . S
Cu69 N80 1.985 . S
Cu69 O89 1.959 . S
N70 Cu69 1.999 . S
N70 C72 1.263 . S
N70 C74 1.389 . S
N71 C72 1.358 . S
N71 C73 1.400 . S
C72 N70 1.263 . S
C72 N71 1.358 . S
C72 H78 0.930 . S
C73 N71 1.400 . S
C73 C74 1.351 . S
C73 H90 0.930 . S
C74 N70 1.389 . S
C74 C73 1.351 . S
C74 H79 0.930 . S
O75 Cu69 1.974 . S
O75 C85 1.282 . S
C76 O77 1.261 . S
C76 O89 1.251 . S
O77 C76 1.261 . S
H78 C72 0.930 . S
H79 C74 0.930 . S
N80 Cu69 1.985 . S
N80 C82 1.335 . S
N80 C83 1.390 . S
N81 C82 1.345 . S
N81 C84 1.336 . S
C82 N80 1.335 . S
C82 N81 1.345 . S
C82 H87 0.930 . S
C83 N80 1.390 . S
C83 C84 1.346 . S
C83 H88 0.930 . S
C84 N81 1.336 . S
C84 C83 1.346 . S
C84 H91 0.929 . S
C85 O75 1.282 . S
C85 O86 1.216 . S
O86 C85 1.216 . S
H87 C82 0.930 . S
H88 C83 0.930 . S
O89 Cu69 1.959 . S
O89 C76 1.251 . S
H90 C73 0.930 . S
H91 C84 0.929 . S
Cu92 N93 1.999 . S
Cu92 O98 1.974 . S
Cu92 N103 1.985 . S
Cu92 O112 1.959 . S
N93 Cu92 1.999 . S
N93 C95 1.263 . S
N93 C97 1.389 . S
N94 C95 1.358 . S
N94 C96 1.400 . S
C95 N93 1.263 . S
C95 N94 1.358 . S
C95 H101 0.930 . S
C96 N94 1.400 . S
C96 C97 1.351 . S
C96 H113 0.930 . S
C97 N93 1.389 . S
C97 C96 1.351 . S
C97 H102 0.930 . S
O98 Cu92 1.974 . S
O98 C108 1.282 . S
C99 O100 1.261 . S
C99 O112 1.251 . S
O100 C99 1.261 . S
H101 C95 0.930 . S
H102 C97 0.930 . S
N103 Cu92 1.985 . S
N103 C105 1.335 . S
N103 C106 1.390 . S
N104 C105 1.345 . S
N104 C107 1.336 . S
C105 N103 1.335 . S
C105 N104 1.345 . S
C105 H110 0.930 . S
C106 N103 1.390 . S
C106 C107 1.346 . S
C106 H111 0.930 . S
C107 N104 1.336 . S
C107 C106 1.346 . S
C107 H114 0.929 . S
C108 O98 1.282 . S
C108 O109 1.216 . S
O109 C108 1.216 . S
H110 C105 0.930 . S
H111 C106 0.930 . S
O112 Cu92 1.959 . S
O112 C99 1.251 . S
H113 C96 0.930 . S
H114 C107 0.929 . S
Cu115 N116 1.999 . S
Cu115 O121 1.974 . S
Cu115 N126 1.985 . S
Cu115 O135 1.959 . S
N116 Cu115 1.999 . S
N116 C118 1.263 . S
N116 C120 1.389 . S
N117 C118 1.358 . S
N117 C119 1.400 . S
C118 N116 1.263 . S
C118 N117 1.358 . S
C118 H124 0.930 . S
C119 N117 1.400 . S
C119 C120 1.351 . S
C119 H136 0.930 . S
C120 N116 1.389 . S
C120 C119 1.351 . S
C120 H125 0.930 . S
O121 Cu115 1.974 . S
O121 C131 1.282 . S
C122 O123 1.261 . S
C122 O135 1.251 . S
O123 C122 1.261 . S
H124 C118 0.930 . S
H125 C120 0.930 . S
N126 Cu115 1.985 . S
N126 C128 1.335 . S
N126 C129 1.390 . S
N127 C128 1.345 . S
N127 C130 1.336 . S
C128 N126 1.335 . S
C128 N127 1.345 . S
C128 H133 0.930 . S
C129 N126 1.390 . S
C129 C130 1.346 . S
C129 H134 0.930 . S
C130 N127 1.336 . S
C130 C129 1.346 . S
C130 H137 0.929 . S
C131 O121 1.282 . S
C131 O132 1.216 . S
O132 C131 1.216 . S
H133 C128 0.930 . S
H134 C129 0.930 . S
O135 Cu115 1.959 . S
O135 C122 1.251 . S
H136 C119 0.930 . S
H137 C130 0.929 . S
Cu138 N139 1.999 . S
Cu138 O144 1.974 . S
Cu138 N149 1.985 . S
Cu138 O158 1.959 . S
N139 Cu138 1.999 . S
N139 C141 1.263 . S
N139 C143 1.389 . S
N140 C141 1.358 . S
N140 C142 1.400 . S
C141 N139 1.263 . S
C141 N140 1.358 . S
C141 H147 0.930 . S
C142 N140 1.400 . S
C142 C143 1.351 . S
C142 H159 0.930 . S
C143 N139 1.389 . S
C143 C142 1.351 . S
C143 H148 0.930 . S
O144 Cu138 1.974 . S
O144 C154 1.282 . S
C145 O146 1.261 . S
C145 O158 1.251 . S
O146 C145 1.261 . S
H147 C141 0.930 . S
H148 C143 0.930 . S
N149 Cu138 1.985 . S
N149 C151 1.335 . S
N149 C152 1.390 . S
N150 C151 1.345 . S
N150 C153 1.336 . S
C151 N149 1.335 . S
C151 N150 1.345 . S
C151 H156 0.930 . S
C152 N149 1.390 . S
C152 C153 1.346 . S
C152 H157 0.930 . S
C153 N150 1.336 . S
C153 C152 1.346 . S
C153 H160 0.929 . S
C154 O144 1.282 . S
C154 O155 1.216 . S
O155 C154 1.216 . S
H156 C151 0.930 . S
H157 C152 0.930 . S
O158 Cu138 1.959 . S
O158 C145 1.251 . S
H159 C142 0.930 . S
H160 C153 0.929 . S
Cu161 N162 1.999 . S
Cu161 O167 1.974 . S
Cu161 N172 1.985 . S
Cu161 O181 1.959 . S
N162 Cu161 1.999 . S
N162 C164 1.263 . S
N162 C166 1.389 . S
N163 C164 1.358 . S
N163 C165 1.400 . S
C164 N162 1.263 . S
C164 N163 1.358 . S
C164 H170 0.930 . S
C165 N163 1.400 . S
C165 C166 1.351 . S
C165 H182 0.930 . S
C166 N162 1.389 . S
C166 C165 1.351 . S
C166 H171 0.930 . S
O167 Cu161 1.974 . S
O167 C177 1.282 . S
C168 O169 1.261 . S
C168 O181 1.251 . S
O169 C168 1.261 . S
H170 C164 0.930 . S
H171 C166 0.930 . S
N172 Cu161 1.985 . S
N172 C174 1.335 . S
N172 C175 1.376 1_655 S
N173 C174 1.345 . S
N173 C176 1.336 1_655 S
C174 N172 1.335 . S
C174 N173 1.345 . S
C174 H179 0.930 . S
C175 N172 1.376 1_455 S
C175 C176 1.354 . S
C175 H180 0.936 . S
C176 N173 1.336 1_455 S
C176 C175 1.354 . S
C176 H183 0.929 . S
C177 O167 1.282 . S
C177 O178 1.216 . S
O178 C177 1.216 . S
H179 C174 0.930 . S
H180 C175 0.936 . S
O181 Cu161 1.959 . S
O181 C168 1.251 . S
H182 C165 0.930 . S
H183 C176 0.929 . S
Cu184 N185 1.999 . S
Cu184 O190 1.974 . S
Cu184 N195 1.985 . S
Cu184 O204 1.959 . S
N185 Cu184 1.999 . S
N185 C187 1.263 . S
N185 C189 1.389 . S
N186 C187 1.358 . S
N186 C188 1.400 . S
C187 N185 1.263 . S
C187 N186 1.358 . S
C187 H193 0.930 . S
C188 N186 1.400 . S
C188 C189 1.351 . S
C188 H205 0.930 . S
C189 N185 1.389 . S
C189 C188 1.351 . S
C189 H194 0.930 . S
O190 Cu184 1.974 . S
O190 C200 1.282 . S
C191 O192 1.261 . S
C191 O204 1.251 . S
O192 C191 1.261 . S
H193 C187 0.930 . S
H194 C189 0.930 . S
N195 Cu184 1.985 . S
N195 C197 1.335 . S
N195 C198 1.390 . S
N196 C197 1.345 . S
N196 C199 1.336 . S
C197 N195 1.335 . S
C197 N196 1.345 . S
C197 H202 0.930 . S
C198 N195 1.390 . S
C198 C199 1.346 . S
C198 H203 0.930 . S
C199 N196 1.336 . S
C199 C198 1.346 . S
C199 H206 0.929 . S
C200 O190 1.282 . S
C200 O201 1.216 . S
O201 C200 1.216 . S
H202 C197 0.930 . S
H203 C198 0.930 . S
O204 Cu184 1.959 . S
O204 C191 1.251 . S
H205 C188 0.930 . S
H206 C199 0.929 . S
Cu207 N208 1.999 . S
Cu207 O213 1.974 . S
Cu207 N218 1.985 . S
Cu207 O227 1.959 . S
N208 Cu207 1.999 . S
N208 C210 1.263 . S
N208 C212 1.389 . S
N209 C210 1.358 . S
N209 C211 1.400 . S
C210 N208 1.263 . S
C210 N209 1.358 . S
C210 H216 0.930 . S
C211 N209 1.400 . S
C211 C212 1.351 . S
C211 H228 0.930 . S
C212 N208 1.389 . S
C212 C211 1.351 . S
C212 H217 0.930 . S
O213 Cu207 1.974 . S
O213 C223 1.282 . S
C214 O215 1.261 . S
C214 O227 1.251 . S
O215 C214 1.261 . S
H216 C210 0.930 . S
H217 C212 0.930 . S
N218 Cu207 1.985 . S
N218 C220 1.335 . S
N218 C221 1.390 . S
N219 C220 1.345 . S
N219 C222 1.336 . S
C220 N218 1.335 . S
C220 N219 1.345 . S
C220 H225 0.930 . S
C221 N218 1.390 . S
C221 C222 1.346 . S
C221 H226 0.930 . S
C222 N219 1.336 . S
C222 C221 1.346 . S
C222 H229 0.929 . S
C223 O213 1.282 . S
C223 O224 1.216 . S
O224 C223 1.216 . S
H225 C220 0.930 . S
H226 C221 0.930 . S
O227 Cu207 1.959 . S
O227 C214 1.251 . S
H228 C211 0.930 . S
H229 C222 0.929 . S
Cu230 N231 1.999 . S
Cu230 O236 1.974 . S
Cu230 N241 1.985 . S
Cu230 O250 1.959 . S
N231 Cu230 1.999 . S
N231 C233 1.263 . S
N231 C235 1.389 . S
N232 C233 1.358 . S
N232 C234 1.400 . S
C233 N231 1.263 . S
C233 N232 1.358 . S
C233 H239 0.930 . S
C234 N232 1.400 . S
C234 C235 1.351 . S
C234 H251 0.930 . S
C235 N231 1.389 . S
C235 C234 1.351 . S
C235 H240 0.930 . S
O236 Cu230 1.974 . S
O236 C246 1.282 . S
C237 O238 1.261 . S
C237 O250 1.251 . S
O238 C237 1.261 . S
H239 C233 0.930 . S
H240 C235 0.930 . S
N241 Cu230 1.985 . S
N241 C243 1.335 . S
N241 C244 1.390 . S
N242 C243 1.345 . S
N242 C245 1.336 . S
C243 N241 1.335 . S
C243 N242 1.345 . S
C243 H248 0.930 . S
C244 N241 1.390 . S
C244 C245 1.346 . S
C244 H249 0.930 . S
C245 N242 1.336 . S
C245 C244 1.346 . S
C245 H252 0.929 . S
C246 O236 1.282 . S
C246 O247 1.216 . S
O247 C246 1.216 . S
H248 C243 0.930 . S
H249 C244 0.930 . S
O250 Cu230 1.959 . S
O250 C237 1.251 . S
H251 C234 0.930 . S
H252 C245 0.929 . S
Cu253 N254 1.999 . S
Cu253 O259 1.974 . S
Cu253 N264 1.985 . S
Cu253 O273 1.959 . S
N254 Cu253 1.999 . S
N254 C256 1.263 . S
N254 C258 1.389 . S
N255 C256 1.358 . S
N255 C257 1.400 . S
C256 N254 1.263 . S
C256 N255 1.358 . S
C256 H262 0.930 . S
C257 N255 1.400 . S
C257 C258 1.351 . S
C257 H274 0.930 . S
C258 N254 1.389 . S
C258 C257 1.351 . S
C258 H263 0.930 . S
O259 Cu253 1.974 . S
O259 C269 1.282 . S
C260 O261 1.261 . S
C260 O273 1.251 . S
O261 C260 1.261 . S
H262 C256 0.930 . S
H263 C258 0.930 . S
N264 Cu253 1.985 . S
N264 C266 1.335 . S
N264 C267 1.376 1_554 S
N265 C266 1.345 . S
N265 C268 1.336 1_554 S
C266 N264 1.335 . S
C266 N265 1.345 . S
C266 H271 0.930 . S
C267 N264 1.376 1_556 S
C267 C268 1.354 . S
C267 H272 0.936 . S
C268 N265 1.336 1_556 S
C268 C267 1.354 . S
C268 H275 0.929 . S
C269 O259 1.282 . S
C269 O270 1.216 . S
O270 C269 1.216 . S
H271 C266 0.930 . S
H272 C267 0.936 . S
O273 Cu253 1.959 . S
O273 C260 1.251 . S
H274 C257 0.930 . S
H275 C268 0.929 . S
Cu276 N277 1.999 . S
Cu276 O282 1.974 . S
Cu276 N287 1.985 . S
Cu276 O296 1.959 . S
N277 Cu276 1.999 . S
N277 C279 1.263 . S
N277 C281 1.389 . S
N278 C279 1.358 . S
N278 C280 1.400 . S
C279 N277 1.263 . S
C279 N278 1.358 . S
C279 H285 0.930 . S
C280 N278 1.400 . S
C280 C281 1.351 . S
C280 H297 0.930 . S
C281 N277 1.389 . S
C281 C280 1.351 . S
C281 H286 0.930 . S
O282 Cu276 1.974 . S
O282 C292 1.282 . S
C283 O284 1.261 . S
C283 O296 1.251 . S
O284 C283 1.261 . S
H285 C279 0.930 . S
H286 C281 0.930 . S
N287 Cu276 1.985 . S
N287 C289 1.335 . S
N287 C290 1.390 . S
N288 C289 1.345 . S
N288 C291 1.336 . S
C289 N287 1.335 . S
C289 N288 1.345 . S
C289 H294 0.930 . S
C290 N287 1.390 . S
C290 C291 1.346 . S
C290 H295 0.930 . S
C291 N288 1.336 . S
C291 C290 1.346 . S
C291 H298 0.929 . S
C292 O282 1.282 . S
C292 O293 1.216 . S
O293 C292 1.216 . S
H294 C289 0.930 . S
H295 C290 0.930 . S
O296 Cu276 1.959 . S
O296 C283 1.251 . S
H297 C280 0.930 . S
H298 C291 0.929 . S
Cu299 N300 1.999 . S
Cu299 O305 1.974 . S
Cu299 N310 1.985 . S
Cu299 O319 1.959 . S
N300 Cu299 1.999 . S
N300 C302 1.263 . S
N300 C304 1.389 . S
N301 C302 1.358 . S
N301 C303 1.400 . S
C302 N300 1.263 . S
C302 N301 1.358 . S
C302 H308 0.930 . S
C303 N301 1.400 . S
C303 C304 1.351 . S
C303 H320 0.930 . S
C304 N300 1.389 . S
C304 C303 1.351 . S
C304 H309 0.930 . S
O305 Cu299 1.974 . S
O305 C315 1.282 . S
C306 O307 1.261 . S
C306 O319 1.251 . S
O307 C306 1.261 . S
H308 C302 0.930 . S
H309 C304 0.930 . S
N310 Cu299 1.985 . S
N310 C312 1.335 . S
N310 C313 1.390 . S
N311 C312 1.345 . S
N311 C314 1.336 . S
C312 N310 1.335 . S
C312 N311 1.345 . S
C312 H317 0.930 . S
C313 N310 1.390 . S
C313 C314 1.346 . S
C313 H318 0.930 . S
C314 N311 1.336 . S
C314 C313 1.346 . S
C314 H321 0.929 . S
C315 O305 1.282 . S
C315 O316 1.216 . S
O316 C315 1.216 . S
H317 C312 0.930 . S
H318 C313 0.930 . S
O319 Cu299 1.959 . S
O319 C306 1.251 . S
H320 C303 0.930 . S
H321 C314 0.929 . S
Cu322 N323 1.999 . S
Cu322 O328 1.974 . S
Cu322 N333 1.985 . S
Cu322 O342 1.959 . S
N323 Cu322 1.999 . S
N323 C325 1.263 . S
N323 C327 1.389 . S
N324 C325 1.358 . S
N324 C326 1.400 . S
C325 N323 1.263 . S
C325 N324 1.358 . S
C325 H331 0.930 . S
C326 N324 1.400 . S
C326 C327 1.351 . S
C326 H343 0.930 . S
C327 N323 1.389 . S
C327 C326 1.351 . S
C327 H332 0.930 . S
O328 Cu322 1.974 . S
O328 C338 1.282 . S
C329 O330 1.261 . S
C329 O342 1.251 . S
O330 C329 1.261 . S
H331 C325 0.930 . S
H332 C327 0.930 . S
N333 Cu322 1.985 . S
N333 C335 1.335 . S
N333 C336 1.390 . S
N334 C335 1.345 . S
N334 C337 1.336 . S
C335 N333 1.335 . S
C335 N334 1.345 . S
C335 H340 0.930 . S
C336 N333 1.390 . S
C336 C337 1.346 . S
C336 H341 0.930 . S
C337 N334 1.336 . S
C337 C336 1.346 . S
C337 H344 0.929 . S
C338 O328 1.282 . S
C338 O339 1.216 . S
O339 C338 1.216 . S
H340 C335 0.930 . S
H341 C336 0.930 . S
O342 Cu322 1.959 . S
O342 C329 1.251 . S
H343 C326 0.930 . S
H344 C337 0.929 . S
Cu345 N346 1.999 . S
Cu345 O351 1.974 . S
Cu345 N356 1.985 . S
Cu345 O365 1.959 . S
N346 Cu345 1.999 . S
N346 C348 1.263 . S
N346 C350 1.389 . S
N347 C348 1.358 . S
N347 C349 1.400 . S
C348 N346 1.263 . S
C348 N347 1.358 . S
C348 H354 0.930 . S
C349 N347 1.400 . S
C349 C350 1.351 . S
C349 H366 0.930 . S
C350 N346 1.389 . S
C350 C349 1.351 . S
C350 H355 0.930 . S
O351 Cu345 1.974 . S
O351 C361 1.282 . S
C352 O353 1.261 . S
C352 O365 1.251 . S
O353 C352 1.261 . S
H354 C348 0.930 . S
H355 C350 0.930 . S
N356 Cu345 1.985 . S
N356 C358 1.335 . S
N356 C359 1.376 1_556 S
N357 C358 1.345 . S
N357 C360 1.336 1_556 S
C358 N356 1.335 . S
C358 N357 1.345 . S
C358 H363 0.930 . S
C359 N356 1.376 1_554 S
C359 C360 1.354 . S
C359 H364 0.936 . S
C360 N357 1.336 1_554 S
C360 C359 1.354 . S
C360 H367 0.929 . S
C361 O351 1.282 . S
C361 O362 1.216 . S
O362 C361 1.216 . S
H363 C358 0.930 . S
H364 C359 0.936 . S
O365 Cu345 1.959 . S
O365 C352 1.251 . S
H366 C349 0.930 . S
H367 C360 0.929 . S
Cu368 N369 1.999 . S
Cu368 O374 1.974 . S
Cu368 N379 1.985 . S
Cu368 O388 1.959 . S
N369 Cu368 1.999 . S
N369 C371 1.263 . S
N369 C373 1.389 . S
N370 C371 1.358 . S
N370 C372 1.400 . S
C371 N369 1.263 . S
C371 N370 1.358 . S
C371 H377 0.930 . S
C372 N370 1.400 . S
C372 C373 1.351 . S
C372 H389 0.930 . S
C373 N369 1.389 . S
C373 C372 1.351 . S
C373 H378 0.930 . S
O374 Cu368 1.974 . S
O374 C384 1.282 . S
C375 O376 1.261 . S
C375 O388 1.251 . S
O376 C375 1.261 . S
H377 C371 0.930 . S
H378 C373 0.930 . S
N379 Cu368 1.985 . S
N379 C381 1.335 . S
N379 C382 1.390 . S
N380 C381 1.345 . S
N380 C383 1.336 . S
C381 N379 1.335 . S
C381 N380 1.345 . S
C381 H386 0.930 . S
C382 N379 1.390 . S
C382 C383 1.346 . S
C382 H387 0.930 . S
C383 N380 1.336 . S
C383 C382 1.346 . S
C383 H390 0.929 . S
C384 O374 1.282 . S
C384 O385 1.216 . S
O385 C384 1.216 . S
H386 C381 0.930 . S
H387 C382 0.930 . S
O388 Cu368 1.959 . S
O388 C375 1.251 . S
H389 C372 0.930 . S
H390 C383 0.929 . S
Cu391 N392 1.999 . S
Cu391 O397 1.974 . S
Cu391 N402 1.985 . S
Cu391 O411 1.959 . S
N392 Cu391 1.999 . S
N392 C394 1.263 . S
N392 C396 1.389 . S
N393 C394 1.358 . S
N393 C395 1.400 . S
C394 N392 1.263 . S
C394 N393 1.358 . S
C394 H400 0.930 . S
C395 N393 1.400 . S
C395 C396 1.351 . S
C395 H412 0.930 . S
C396 N392 1.389 . S
C396 C395 1.351 . S
C396 H401 0.930 . S
O397 Cu391 1.974 . S
O397 C407 1.282 . S
C398 O399 1.261 . S
C398 O411 1.251 . S
O399 C398 1.261 . S
H400 C394 0.930 . S
H401 C396 0.930 . S
N402 Cu391 1.985 . S
N402 C404 1.335 . S
N402 C405 1.390 . S
N403 C404 1.345 . S
N403 C406 1.336 . S
C404 N402 1.335 . S
C404 N403 1.345 . S
C404 H409 0.930 . S
C405 N402 1.390 . S
C405 C406 1.346 . S
C405 H410 0.930 . S
C406 N403 1.336 . S
C406 C405 1.346 . S
C406 H413 0.929 . S
C407 O397 1.282 . S
C407 O408 1.216 . S
O408 C407 1.216 . S
H409 C404 0.930 . S
H410 C405 0.930 . S
O411 Cu391 1.959 . S
O411 C398 1.251 . S
H412 C395 0.930 . S
H413 C406 0.929 . S
Cu414 N415 1.999 . S
Cu414 O420 1.974 . S
Cu414 N425 1.985 . S
Cu414 O434 1.959 . S
N415 Cu414 1.999 . S
N415 C417 1.263 . S
N415 C419 1.389 . S
N416 C417 1.358 . S
N416 C418 1.400 . S
C417 N415 1.263 . S
C417 N416 1.358 . S
C417 H423 0.930 . S
C418 N416 1.400 . S
C418 C419 1.351 . S
C418 H435 0.930 . S
C419 N415 1.389 . S
C419 C418 1.351 . S
C419 H424 0.930 . S
O420 Cu414 1.974 . S
O420 C430 1.282 . S
C421 O422 1.261 . S
C421 O434 1.251 . S
O422 C421 1.261 . S
H423 C417 0.930 . S
H424 C419 0.930 . S
N425 Cu414 1.985 . S
N425 C427 1.335 . S
N425 C428 1.390 . S
N426 C427 1.345 . S
N426 C429 1.336 . S
C427 N425 1.335 . S
C427 N426 1.345 . S
C427 H432 0.930 . S
C428 N425 1.390 . S
C428 C429 1.346 . S
C428 H433 0.930 . S
C429 N426 1.336 . S
C429 C428 1.346 . S
C429 H436 0.929 . S
C430 O420 1.282 . S
C430 O431 1.216 . S
O431 C430 1.216 . S
H432 C427 0.930 . S
H433 C428 0.930 . S
O434 Cu414 1.959 . S
O434 C421 1.251 . S
H435 C418 0.930 . S
H436 C429 0.929 . S
Cu437 N438 1.999 . S
Cu437 O443 1.974 . S
Cu437 N448 1.985 . S
Cu437 O457 1.959 . S
N438 Cu437 1.999 . S
N438 C440 1.263 . S
N438 C442 1.389 . S
N439 C440 1.358 . S
N439 C441 1.400 . S
C440 N438 1.263 . S
C440 N439 1.358 . S
C440 H446 0.930 . S
C441 N439 1.400 . S
C441 C442 1.351 . S
C441 H458 0.930 . S
C442 N438 1.389 . S
C442 C441 1.351 . S
C442 H447 0.930 . S
O443 Cu437 1.974 . S
O443 C453 1.282 . S
C444 O445 1.261 . S
C444 O457 1.251 . S
O445 C444 1.261 . S
H446 C440 0.930 . S
H447 C442 0.930 . S
N448 Cu437 1.985 . S
N448 C450 1.335 . S
N448 C451 1.390 . S
N449 C450 1.345 . S
N449 C452 1.336 . S
C450 N448 1.335 . S
C450 N449 1.345 . S
C450 H455 0.930 . S
C451 N448 1.390 . S
C451 C452 1.346 . S
C451 H456 0.930 . S
C452 N449 1.336 . S
C452 C451 1.346 . S
C452 H459 0.929 . S
C453 O443 1.282 . S
C453 O454 1.216 . S
O454 C453 1.216 . S
H455 C450 0.930 . S
H456 C451 0.930 . S
O457 Cu437 1.959 . S
O457 C444 1.251 . S
H458 C441 0.930 . S
H459 C452 0.929 . S
Cu460 N461 1.999 . S
Cu460 O466 1.974 . S
Cu460 N471 1.985 . S
Cu460 O480 1.959 . S
N461 Cu460 1.999 . S
N461 C463 1.263 . S
N461 C465 1.389 . S
N462 C463 1.358 . S
N462 C464 1.400 . S
C463 N461 1.263 . S
C463 N462 1.358 . S
C463 H469 0.930 . S
C464 N462 1.400 . S
C464 C465 1.351 . S
C464 H481 0.930 . S
C465 N461 1.389 . S
C465 C464 1.351 . S
C465 H470 0.930 . S
O466 Cu460 1.974 . S
O466 C476 1.282 . S
C467 O468 1.261 . S
C467 O480 1.251 . S
O468 C467 1.261 . S
H469 C463 0.930 . S
H470 C465 0.930 . S
N471 Cu460 1.985 . S
N471 C473 1.335 . S
N471 C474 1.376 1_565 S
N472 C473 1.345 . S
N472 C475 1.336 1_565 S
C473 N471 1.335 . S
C473 N472 1.345 . S
C473 H478 0.930 . S
C474 N471 1.376 1_545 S
C474 C475 1.354 . S
C474 H479 0.936 . S
C475 N472 1.336 1_545 S
C475 C474 1.354 . S
C475 H482 0.929 . S
C476 O466 1.282 . S
C476 O477 1.216 . S
O477 C476 1.216 . S
H478 C473 0.930 . S
H479 C474 0.936 . S
O480 Cu460 1.959 . S
O480 C467 1.251 . S
H481 C464 0.930 . S
H482 C475 0.929 . S
Cu483 N484 1.999 . S
Cu483 O489 1.974 . S
Cu483 N494 1.985 . S
Cu483 O503 1.959 . S
N484 Cu483 1.999 . S
N484 C486 1.263 . S
N484 C488 1.389 . S
N485 C486 1.358 . S
N485 C487 1.400 . S
C486 N484 1.263 . S
C486 N485 1.358 . S
C486 H492 0.930 . S
C487 N485 1.400 . S
C487 C488 1.351 . S
C487 H504 0.930 . S
C488 N484 1.389 . S
C488 C487 1.351 . S
C488 H493 0.930 . S
O489 Cu483 1.974 . S
O489 C499 1.282 . S
C490 O491 1.261 . S
C490 O503 1.251 . S
O491 C490 1.261 . S
H492 C486 0.930 . S
H493 C488 0.930 . S
N494 Cu483 1.985 . S
N494 C496 1.335 . S
N494 C497 1.390 . S
N495 C496 1.345 . S
N495 C498 1.336 . S
C496 N494 1.335 . S
C496 N495 1.345 . S
C496 H501 0.930 . S
C497 N494 1.390 . S
C497 C498 1.346 . S
C497 H502 0.930 . S
C498 N495 1.336 . S
C498 C497 1.346 . S
C498 H505 0.929 . S
C499 O489 1.282 . S
C499 O500 1.216 . S
O500 C499 1.216 . S
H501 C496 0.930 . S
H502 C497 0.930 . S
O503 Cu483 1.959 . S
O503 C490 1.251 . S
H504 C487 0.930 . S
H505 C498 0.929 . S
Cu506 N507 1.999 . S
Cu506 O512 1.974 . S
Cu506 N517 1.985 . S
Cu506 O526 1.959 . S
N507 Cu506 1.999 . S
N507 C509 1.263 . S
N507 C511 1.389 . S
N508 C509 1.358 . S
N508 C510 1.400 . S
C509 N507 1.263 . S
C509 N508 1.358 . S
C509 H515 0.930 . S
C510 N508 1.400 . S
C510 C511 1.351 . S
C510 H527 0.930 . S
C511 N507 1.389 . S
C511 C510 1.351 . S
C511 H516 0.930 . S
O512 Cu506 1.974 . S
O512 C522 1.282 . S
C513 O514 1.261 . S
C513 O526 1.251 . S
O514 C513 1.261 . S
H515 C509 0.930 . S
H516 C511 0.930 . S
N517 Cu506 1.985 . S
N517 C519 1.335 . S
N517 C520 1.390 . S
N518 C519 1.345 . S
N518 C521 1.336 . S
C519 N517 1.335 . S
C519 N518 1.345 . S
C519 H524 0.930 . S
C520 N517 1.390 . S
C520 C521 1.346 . S
C520 H525 0.930 . S
C521 N518 1.336 . S
C521 C520 1.346 . S
C521 H528 0.929 . S
C522 O512 1.282 . S
C522 O523 1.216 . S
O523 C522 1.216 . S
H524 C519 0.930 . S
H525 C520 0.930 . S
O526 Cu506 1.959 . S
O526 C513 1.251 . S
H527 C510 0.930 . S
H528 C521 0.929 . S
Cu529 N530 1.999 . S
Cu529 O535 1.974 . S
Cu529 N540 1.985 . S
Cu529 O549 1.959 . S
N530 Cu529 1.999 . S
N530 C532 1.263 . S
N530 C534 1.389 . S
N531 C532 1.358 . S
N531 C533 1.400 . S
C532 N530 1.263 . S
C532 N531 1.358 . S
C532 H538 0.930 . S
C533 N531 1.400 . S
C533 C534 1.351 . S
C533 H550 0.930 . S
C534 N530 1.389 . S
C534 C533 1.351 . S
C534 H539 0.930 . S
O535 Cu529 1.974 . S
O535 C545 1.282 . S
C536 O537 1.261 . S
C536 O549 1.251 . S
O537 C536 1.261 . S
H538 C532 0.930 . S
H539 C534 0.930 . S
N540 Cu529 1.985 . S
N540 C542 1.335 . S
N540 C543 1.390 . S
N541 C542 1.345 . S
N541 C544 1.336 . S
C542 N540 1.335 . S
C542 N541 1.345 . S
C542 H547 0.930 . S
C543 N540 1.390 . S
C543 C544 1.346 . S
C543 H548 0.930 . S
C544 N541 1.336 . S
C544 C543 1.346 . S
C544 H551 0.929 . S
C545 O535 1.282 . S
C545 O546 1.216 . S
O546 C545 1.216 . S
H547 C542 0.930 . S
H548 C543 0.930 . S
O549 Cu529 1.959 . S
O549 C536 1.251 . S
H550 C533 0.930 . S
H551 C544 0.929 . S
Cu552 N553 1.999 . S
Cu552 O558 1.974 . S
Cu552 N563 1.985 . S
Cu552 O572 1.959 . S
N553 Cu552 1.999 . S
N553 C555 1.263 . S
N553 C557 1.389 . S
N554 C555 1.358 . S
N554 C556 1.400 . S
C555 N553 1.263 . S
C555 N554 1.358 . S
C555 H561 0.930 . S
C556 N554 1.400 . S
C556 C557 1.351 . S
C556 H573 0.930 . S
C557 N553 1.389 . S
C557 C556 1.351 . S
C557 H562 0.930 . S
O558 Cu552 1.974 . S
O558 C568 1.282 . S
C559 O560 1.261 . S
C559 O572 1.251 . S
O560 C559 1.261 . S
H561 C555 0.930 . S
H562 C557 0.930 . S
N563 Cu552 1.985 . S
N563 C565 1.335 . S
N563 C566 1.390 . S
N564 C565 1.345 . S
N564 C567 1.336 . S
C565 N563 1.335 . S
C565 N564 1.345 . S
C565 H570 0.930 . S
C566 N563 1.390 . S
C566 C567 1.346 . S
C566 H571 0.930 . S
C567 N564 1.336 . S
C567 C566 1.346 . S
C567 H574 0.929 . S
C568 O558 1.282 . S
C568 O569 1.216 . S
O569 C568 1.216 . S
H570 C565 0.930 . S
H571 C566 0.930 . S
O572 Cu552 1.959 . S
O572 C559 1.251 . S
H573 C556 0.930 . S
H574 C567 0.929 . S
Cu575 N576 1.999 . S
Cu575 O581 1.974 . S
Cu575 N586 1.985 . S
Cu575 O595 1.959 . S
N576 Cu575 1.999 . S
N576 C578 1.263 . S
N576 C580 1.389 . S
N577 C578 1.358 . S
N577 C579 1.400 . S
C578 N576 1.263 . S
C578 N577 1.358 . S
C578 H584 0.930 . S
C579 N577 1.400 . S
C579 C580 1.351 . S
C579 H596 0.930 . S
C580 N576 1.389 . S
C580 C579 1.351 . S
C580 H585 0.930 . S
O581 Cu575 1.974 . S
O581 C591 1.282 . S
C582 O583 1.261 . S
C582 O595 1.251 . S
O583 C582 1.261 . S
H584 C578 0.930 . S
H585 C580 0.930 . S
N586 Cu575 1.985 . S
N586 C588 1.335 . S
N586 C589 1.390 . S
N587 C588 1.345 . S
N587 C590 1.336 . S
C588 N586 1.335 . S
C588 N587 1.345 . S
C588 H593 0.930 . S
C589 N586 1.390 . S
C589 C590 1.346 . S
C589 H594 0.930 . S
C590 N587 1.336 . S
C590 C589 1.346 . S
C590 H597 0.929 . S
C591 O581 1.282 . S
C591 O592 1.216 . S
O592 C591 1.216 . S
H593 C588 0.930 . S
H594 C589 0.930 . S
O595 Cu575 1.959 . S
O595 C582 1.251 . S
H596 C579 0.930 . S
H597 C590 0.929 . S
Cu598 N599 1.999 . S
Cu598 O604 1.974 . S
Cu598 N609 1.985 . S
Cu598 O618 1.959 . S
N599 Cu598 1.999 . S
N599 C601 1.263 . S
N599 C603 1.389 . S
N600 C601 1.358 . S
N600 C602 1.400 . S
C601 N599 1.263 . S
C601 N600 1.358 . S
C601 H607 0.930 . S
C602 N600 1.400 . S
C602 C603 1.351 . S
C602 H619 0.930 . S
C603 N599 1.389 . S
C603 C602 1.351 . S
C603 H608 0.930 . S
O604 Cu598 1.974 . S
O604 C614 1.282 . S
C605 O606 1.261 . S
C605 O618 1.251 . S
O606 C605 1.261 . S
H607 C601 0.930 . S
H608 C603 0.930 . S
N609 Cu598 1.985 . S
N609 C611 1.335 . S
N609 C612 1.390 . S
N610 C611 1.345 . S
N610 C613 1.336 . S
C611 N609 1.335 . S
C611 N610 1.345 . S
C611 H616 0.930 . S
C612 N609 1.390 . S
C612 C613 1.346 . S
C612 H617 0.930 . S
C613 N610 1.336 . S
C613 C612 1.346 . S
C613 H620 0.929 . S
C614 O604 1.282 . S
C614 O615 1.216 . S
O615 C614 1.216 . S
H616 C611 0.930 . S
H617 C612 0.930 . S
O618 Cu598 1.959 . S
O618 C605 1.251 . S
H619 C602 0.930 . S
H620 C613 0.929 . S
Cu621 N622 1.999 . S
Cu621 O627 1.974 . S
Cu621 N632 1.985 . S
Cu621 O641 1.959 . S
N622 Cu621 1.999 . S
N622 C624 1.263 . S
N622 C626 1.389 . S
N623 C624 1.358 . S
N623 C625 1.400 . S
C624 N622 1.263 . S
C624 N623 1.358 . S
C624 H630 0.930 . S
C625 N623 1.400 . S
C625 C626 1.351 . S
C625 H642 0.930 . S
C626 N622 1.389 . S
C626 C625 1.351 . S
C626 H631 0.930 . S
O627 Cu621 1.974 . S
O627 C637 1.282 . S
C628 O629 1.261 . S
C628 O641 1.251 . S
O629 C628 1.261 . S
H630 C624 0.930 . S
H631 C626 0.930 . S
N632 Cu621 1.985 . S
N632 C634 1.335 . S
N632 C635 1.376 1_455 S
N633 C634 1.345 . S
N633 C636 1.336 1_455 S
C634 N632 1.335 . S
C634 N633 1.345 . S
C634 H639 0.930 . S
C635 N632 1.376 1_655 S
C635 C636 1.354 . S
C635 H640 0.936 . S
C636 N633 1.336 1_655 S
C636 C635 1.354 . S
C636 H643 0.929 . S
C637 O627 1.282 . S
C637 O638 1.216 . S
O638 C637 1.216 . S
H639 C634 0.930 . S
H640 C635 0.936 . S
O641 Cu621 1.959 . S
O641 C628 1.251 . S
H642 C625 0.930 . S
H643 C636 0.929 . S
Cu644 N645 1.999 . S
Cu644 O650 1.974 . S
Cu644 N655 1.985 . S
Cu644 O664 1.959 . S
N645 Cu644 1.999 . S
N645 C647 1.263 . S
N645 C649 1.389 . S
N646 C647 1.358 . S
N646 C648 1.400 . S
C647 N645 1.263 . S
C647 N646 1.358 . S
C647 H653 0.930 . S
C648 N646 1.400 . S
C648 C649 1.351 . S
C648 H665 0.930 . S
C649 N645 1.389 . S
C649 C648 1.351 . S
C649 H654 0.930 . S
O650 Cu644 1.974 . S
O650 C660 1.282 . S
C651 O652 1.261 . S
C651 O664 1.251 . S
O652 C651 1.261 . S
H653 C647 0.930 . S
H654 C649 0.930 . S
N655 Cu644 1.985 . S
N655 C657 1.335 . S
N655 C658 1.390 . S
N656 C657 1.345 . S
N656 C659 1.336 . S
C657 N655 1.335 . S
C657 N656 1.345 . S
C657 H662 0.930 . S
C658 N655 1.390 . S
C658 C659 1.346 . S
C658 H663 0.930 . S
C659 N656 1.336 . S
C659 C658 1.346 . S
C659 H666 0.929 . S
C660 O650 1.282 . S
C660 O661 1.216 . S
O661 C660 1.216 . S
H662 C657 0.930 . S
H663 C658 0.930 . S
O664 Cu644 1.959 . S
O664 C651 1.251 . S
H665 C648 0.930 . S
H666 C659 0.929 . S
Cu667 N668 1.999 . S
Cu667 O673 1.974 . S
Cu667 N678 1.985 . S
Cu667 O687 1.959 . S
N668 Cu667 1.999 . S
N668 C670 1.263 . S
N668 C672 1.389 . S
N669 C670 1.358 . S
N669 C671 1.400 . S
C670 N668 1.263 . S
C670 N669 1.358 . S
C670 H676 0.930 . S
C671 N669 1.400 . S
C671 C672 1.351 . S
C671 H688 0.930 . S
C672 N668 1.389 . S
C672 C671 1.351 . S
C672 H677 0.930 . S
O673 Cu667 1.974 . S
O673 C683 1.282 . S
C674 O675 1.261 . S
C674 O687 1.251 . S
O675 C674 1.261 . S
H676 C670 0.930 . S
H677 C672 0.930 . S
N678 Cu667 1.985 . S
N678 C680 1.335 . S
N678 C681 1.376 1_455 S
N679 C680 1.345 . S
N679 C682 1.336 1_455 S
C680 N678 1.335 . S
C680 N679 1.345 . S
C680 H685 0.930 . S
C681 N678 1.376 1_655 S
C681 C682 1.354 . S
C681 H686 0.936 . S
C682 N679 1.336 1_655 S
C682 C681 1.354 . S
C682 H689 0.929 . S
C683 O673 1.282 . S
C683 O684 1.216 . S
O684 C683 1.216 . S
H685 C680 0.930 . S
H686 C681 0.936 . S
O687 Cu667 1.959 . S
O687 C674 1.251 . S
H688 C671 0.930 . S
H689 C682 0.929 . S
Cu690 N691 1.999 . S
Cu690 O696 1.974 . S
Cu690 N701 1.985 . S
Cu690 O710 1.959 . S
N691 Cu690 1.999 . S
N691 C693 1.263 . S
N691 C695 1.389 . S
N692 C693 1.358 . S
N692 C694 1.400 . S
C693 N691 1.263 . S
C693 N692 1.358 . S
C693 H699 0.930 . S
C694 N692 1.400 . S
C694 C695 1.351 . S
C694 H711 0.930 . S
C695 N691 1.389 . S
C695 C694 1.351 . S
C695 H700 0.930 . S
O696 Cu690 1.974 . S
O696 C706 1.282 . S
C697 O698 1.261 . S
C697 O710 1.251 . S
O698 C697 1.261 . S
H699 C693 0.930 . S
H700 C695 0.930 . S
N701 Cu690 1.985 . S
N701 C703 1.335 . S
N701 C704 1.390 . S
N702 C703 1.345 . S
N702 C705 1.336 . S
C703 N701 1.335 . S
C703 N702 1.345 . S
C703 H708 0.930 . S
C704 N701 1.390 . S
C704 C705 1.346 . S
C704 H709 0.930 . S
C705 N702 1.336 . S
C705 C704 1.346 . S
C705 H712 0.929 . S
C706 O696 1.282 . S
C706 O707 1.216 . S
O707 C706 1.216 . S
H708 C703 0.930 . S
H709 C704 0.930 . S
O710 Cu690 1.959 . S
O710 C697 1.251 . S
H711 C694 0.930 . S
H712 C705 0.929 . S
Cu713 N714 1.999 . S
Cu713 O719 1.974 . S
Cu713 N724 1.985 . S
Cu713 O733 1.959 . S
N714 Cu713 1.999 . S
N714 C716 1.263 . S
N714 C718 1.389 . S
N715 C716 1.358 . S
N715 C717 1.400 . S
C716 N714 1.263 . S
C716 N715 1.358 . S
C716 H722 0.930 . S
C717 N715 1.400 . S
C717 C718 1.351 . S
C717 H734 0.930 . S
C718 N714 1.389 . S
C718 C717 1.351 . S
C718 H723 0.930 . S
O719 Cu713 1.974 . S
O719 C729 1.282 . S
C720 O721 1.261 . S
C720 O733 1.251 . S
O721 C720 1.261 . S
H722 C716 0.930 . S
H723 C718 0.930 . S
N724 Cu713 1.985 . S
N724 C726 1.335 . S
N724 C727 1.390 . S
N725 C726 1.345 . S
N725 C728 1.336 . S
C726 N724 1.335 . S
C726 N725 1.345 . S
C726 H731 0.930 . S
C727 N724 1.390 . S
C727 C728 1.346 . S
C727 H732 0.930 . S
C728 N725 1.336 . S
C728 C727 1.346 . S
C728 H735 0.929 . S
C729 O719 1.282 . S
C729 O730 1.216 . S
O730 C729 1.216 . S
H731 C726 0.930 . S
H732 C727 0.930 . S
O733 Cu713 1.959 . S
O733 C720 1.251 . S
H734 C717 0.930 . S
H735 C728 0.929 . S
Cu736 N737 1.999 . S
Cu736 O742 1.974 . S
Cu736 N747 1.985 . S
Cu736 O756 1.959 . S
N737 Cu736 1.999 . S
N737 C739 1.263 . S
N737 C741 1.389 . S
N738 C739 1.358 . S
N738 C740 1.400 . S
C739 N737 1.263 . S
C739 N738 1.358 . S
C739 H745 0.930 . S
C740 N738 1.400 . S
C740 C741 1.351 . S
C740 H757 0.930 . S
C741 N737 1.389 . S
C741 C740 1.351 . S
C741 H746 0.930 . S
O742 Cu736 1.974 . S
O742 C752 1.282 . S
C743 O744 1.261 . S
C743 O756 1.251 . S
O744 C743 1.261 . S
H745 C739 0.930 . S
H746 C741 0.930 . S
N747 Cu736 1.985 . S
N747 C749 1.335 . S
N747 C750 1.390 . S
N748 C749 1.345 . S
N748 C751 1.336 . S
C749 N747 1.335 . S
C749 N748 1.345 . S
C749 H754 0.930 . S
C750 N747 1.390 . S
C750 C751 1.346 . S
C750 H755 0.930 . S
C751 N748 1.336 . S
C751 C750 1.346 . S
C751 H758 0.929 . S
C752 O742 1.282 . S
C752 O753 1.216 . S
O753 C752 1.216 . S
H754 C749 0.930 . S
H755 C750 0.930 . S
O756 Cu736 1.959 . S
O756 C743 1.251 . S
H757 C740 0.930 . S
H758 C751 0.929 . S
Cu759 N760 1.999 . S
Cu759 O765 1.974 . S
Cu759 N770 1.985 . S
Cu759 O779 1.959 . S
N760 Cu759 1.999 . S
N760 C762 1.263 . S
N760 C764 1.389 . S
N761 C762 1.358 . S
N761 C763 1.400 . S
C762 N760 1.263 . S
C762 N761 1.358 . S
C762 H768 0.930 . S
C763 N761 1.400 . S
C763 C764 1.351 . S
C763 H780 0.930 . S
C764 N760 1.389 . S
C764 C763 1.351 . S
C764 H769 0.930 . S
O765 Cu759 1.974 . S
O765 C775 1.282 . S
C766 O767 1.261 . S
C766 O779 1.251 . S
O767 C766 1.261 . S
H768 C762 0.930 . S
H769 C764 0.930 . S
N770 Cu759 1.985 . S
N770 C772 1.335 . S
N770 C773 1.376 1_554 S
N771 C772 1.345 . S
N771 C774 1.336 1_554 S
C772 N770 1.335 . S
C772 N771 1.345 . S
C772 H777 0.930 . S
C773 N770 1.376 1_556 S
C773 C774 1.354 . S
C773 H778 0.936 . S
C774 N771 1.336 1_556 S
C774 C773 1.354 . S
C774 H781 0.929 . S
C775 O765 1.282 . S
C775 O776 1.216 . S
O776 C775 1.216 . S
H777 C772 0.930 . S
H778 C773 0.936 . S
O779 Cu759 1.959 . S
O779 C766 1.251 . S
H780 C763 0.930 . S
H781 C774 0.929 . S
Cu782 N783 1.999 . S
Cu782 O788 1.974 . S
Cu782 N793 1.985 . S
Cu782 O802 1.959 . S
N783 Cu782 1.999 . S
N783 C785 1.263 . S
N783 C787 1.389 . S
N784 C785 1.358 . S
N784 C786 1.400 . S
C785 N783 1.263 . S
C785 N784 1.358 . S
C785 H791 0.930 . S
C786 N784 1.400 . S
C786 C787 1.351 . S
C786 H803 0.930 . S
C787 N783 1.389 . S
C787 C786 1.351 . S
C787 H792 0.930 . S
O788 Cu782 1.974 . S
O788 C798 1.282 . S
C789 O790 1.261 . S
C789 O802 1.251 . S
O790 C789 1.261 . S
H791 C785 0.930 . S
H792 C787 0.930 . S
N793 Cu782 1.985 . S
N793 C795 1.335 . S
N793 C796 1.390 . S
N794 C795 1.345 . S
N794 C797 1.336 . S
C795 N793 1.335 . S
C795 N794 1.345 . S
C795 H800 0.930 . S
C796 N793 1.390 . S
C796 C797 1.346 . S
C796 H801 0.930 . S
C797 N794 1.336 . S
C797 C796 1.346 . S
C797 H804 0.929 . S
C798 O788 1.282 . S
C798 O799 1.216 . S
O799 C798 1.216 . S
H800 C795 0.930 . S
H801 C796 0.930 . S
O802 Cu782 1.959 . S
O802 C789 1.251 . S
H803 C786 0.930 . S
H804 C797 0.929 . S
Cu805 N806 1.999 . S
Cu805 O811 1.974 . S
Cu805 N816 1.985 . S
Cu805 O825 1.959 . S
N806 Cu805 1.999 . S
N806 C808 1.263 . S
N806 C810 1.389 . S
N807 C808 1.358 . S
N807 C809 1.400 . S
C808 N806 1.263 . S
C808 N807 1.358 . S
C808 H814 0.930 . S
C809 N807 1.400 . S
C809 C810 1.351 . S
C809 H826 0.930 . S
C810 N806 1.389 . S
C810 C809 1.351 . S
C810 H815 0.930 . S
O811 Cu805 1.974 . S
O811 C821 1.282 . S
C812 O813 1.261 . S
C812 O825 1.251 . S
O813 C812 1.261 . S
H814 C808 0.930 . S
H815 C810 0.930 . S
N816 Cu805 1.985 . S
N816 C818 1.335 . S
N816 C819 1.390 . S
N817 C818 1.345 . S
N817 C820 1.336 . S
C818 N816 1.335 . S
C818 N817 1.345 . S
C818 H823 0.930 . S
C819 N816 1.390 . S
C819 C820 1.346 . S
C819 H824 0.930 . S
C820 N817 1.336 . S
C820 C819 1.346 . S
C820 H827 0.929 . S
C821 O811 1.282 . S
C821 O822 1.216 . S
O822 C821 1.216 . S
H823 C818 0.930 . S
H824 C819 0.930 . S
O825 Cu805 1.959 . S
O825 C812 1.251 . S
H826 C809 0.930 . S
H827 C820 0.929 . S
Cu828 N829 1.999 . S
Cu828 O834 1.974 . S
Cu828 N839 1.985 . S
Cu828 O848 1.959 . S
N829 Cu828 1.999 . S
N829 C831 1.263 . S
N829 C833 1.389 . S
N830 C831 1.358 . S
N830 C832 1.400 . S
C831 N829 1.263 . S
C831 N830 1.358 . S
C831 H837 0.930 . S
C832 N830 1.400 . S
C832 C833 1.351 . S
C832 H849 0.930 . S
C833 N829 1.389 . S
C833 C832 1.351 . S
C833 H838 0.930 . S
O834 Cu828 1.974 . S
O834 C844 1.282 . S
C835 O836 1.261 . S
C835 O848 1.251 . S
O836 C835 1.261 . S
H837 C831 0.930 . S
H838 C833 0.930 . S
N839 Cu828 1.985 . S
N839 C841 1.335 . S
N839 C842 1.390 . S
N840 C841 1.345 . S
N840 C843 1.336 . S
C841 N839 1.335 . S
C841 N840 1.345 . S
C841 H846 0.930 . S
C842 N839 1.390 . S
C842 C843 1.346 . S
C842 H847 0.930 . S
C843 N840 1.336 . S
C843 C842 1.346 . S
C843 H850 0.929 . S
C844 O834 1.282 . S
C844 O845 1.216 . S
O845 C844 1.216 . S
H846 C841 0.930 . S
H847 C842 0.930 . S
O848 Cu828 1.959 . S
O848 C835 1.251 . S
H849 C832 0.930 . S
H850 C843 0.929 . S
Cu851 N852 1.999 . S
Cu851 O857 1.974 . S
Cu851 N862 1.985 . S
Cu851 O871 1.959 . S
N852 Cu851 1.999 . S
N852 C854 1.263 . S
N852 C856 1.389 . S
N853 C854 1.358 . S
N853 C855 1.400 . S
C854 N852 1.263 . S
C854 N853 1.358 . S
C854 H860 0.930 . S
C855 N853 1.400 . S
C855 C856 1.351 . S
C855 H872 0.930 . S
C856 N852 1.389 . S
C856 C855 1.351 . S
C856 H861 0.930 . S
O857 Cu851 1.974 . S
O857 C867 1.282 . S
C858 O859 1.261 . S
C858 O871 1.251 . S
O859 C858 1.261 . S
H860 C854 0.930 . S
H861 C856 0.930 . S
N862 Cu851 1.985 . S
N862 C864 1.335 . S
N862 C865 1.376 1_556 S
N863 C864 1.345 . S
N863 C866 1.336 1_556 S
C864 N862 1.335 . S
C864 N863 1.345 . S
C864 H869 0.930 . S
C865 N862 1.376 1_554 S
C865 C866 1.354 . S
C865 H870 0.936 . S
C866 N863 1.336 1_554 S
C866 C865 1.354 . S
C866 H873 0.929 . S
C867 O857 1.282 . S
C867 O868 1.216 . S
O868 C867 1.216 . S
H869 C864 0.930 . S
H870 C865 0.936 . S
O871 Cu851 1.959 . S
O871 C858 1.251 . S
H872 C855 0.930 . S
H873 C866 0.929 . S
Cu874 N875 1.999 . S
Cu874 O880 1.974 . S
Cu874 N885 1.985 . S
Cu874 O894 1.959 . S
N875 Cu874 1.999 . S
N875 C877 1.263 . S
N875 C879 1.389 . S
N876 C877 1.358 . S
N876 C878 1.400 . S
C877 N875 1.263 . S
C877 N876 1.358 . S
C877 H883 0.930 . S
C878 N876 1.400 . S
C878 C879 1.351 . S
C878 H895 0.930 . S
C879 N875 1.389 . S
C879 C878 1.351 . S
C879 H884 0.930 . S
O880 Cu874 1.974 . S
O880 C890 1.282 . S
C881 O882 1.261 . S
C881 O894 1.251 . S
O882 C881 1.261 . S
H883 C877 0.930 . S
H884 C879 0.930 . S
N885 Cu874 1.985 . S
N885 C887 1.335 . S
N885 C888 1.390 . S
N886 C887 1.345 . S
N886 C889 1.336 . S
C887 N885 1.335 . S
C887 N886 1.345 . S
C887 H892 0.930 . S
C888 N885 1.390 . S
C888 C889 1.346 . S
C888 H893 0.930 . S
C889 N886 1.336 . S
C889 C888 1.346 . S
C889 H896 0.929 . S
C890 O880 1.282 . S
C890 O891 1.216 . S
O891 C890 1.216 . S
H892 C887 0.930 . S
H893 C888 0.930 . S
O894 Cu874 1.959 . S
O894 C881 1.251 . S
H895 C878 0.930 . S
H896 C889 0.929 . S
Cu897 N898 1.999 . S
Cu897 O903 1.974 . S
Cu897 N908 1.985 . S
Cu897 O917 1.959 . S
N898 Cu897 1.999 . S
N898 C900 1.263 . S
N898 C902 1.389 . S
N899 C900 1.358 . S
N899 C901 1.400 . S
C900 N898 1.263 . S
C900 N899 1.358 . S
C900 H906 0.930 . S
C901 N899 1.400 . S
C901 C902 1.351 . S
C901 H918 0.930 . S
C902 N898 1.389 . S
C902 C901 1.351 . S
C902 H907 0.930 . S
O903 Cu897 1.974 . S
O903 C913 1.282 . S
C904 O905 1.261 . S
C904 O917 1.251 . S
O905 C904 1.261 . S
H906 C900 0.930 . S
H907 C902 0.930 . S
N908 Cu897 1.985 . S
N908 C910 1.335 . S
N908 C911 1.390 . S
N909 C910 1.345 . S
N909 C912 1.336 . S
C910 N908 1.335 . S
C910 N909 1.345 . S
C910 H915 0.930 . S
C911 N908 1.390 . S
C911 C912 1.346 . S
C911 H916 0.930 . S
C912 N909 1.336 . S
C912 C911 1.346 . S
C912 H919 0.929 . S
C913 O903 1.282 . S
C913 O914 1.216 . S
O914 C913 1.216 . S
H915 C910 0.930 . S
H916 C911 0.930 . S
O917 Cu897 1.959 . S
O917 C904 1.251 . S
H918 C901 0.930 . S
H919 C912 0.929 . S
Cu920 N921 1.999 . S
Cu920 O926 1.974 . S
Cu920 N931 1.985 . S
Cu920 O940 1.959 . S
N921 Cu920 1.999 . S
N921 C923 1.263 . S
N921 C925 1.389 . S
N922 C923 1.358 . S
N922 C924 1.400 . S
C923 N921 1.263 . S
C923 N922 1.358 . S
C923 H929 0.930 . S
C924 N922 1.400 . S
C924 C925 1.351 . S
C924 H941 0.930 . S
C925 N921 1.389 . S
C925 C924 1.351 . S
C925 H930 0.930 . S
O926 Cu920 1.974 . S
O926 C936 1.282 . S
C927 O928 1.261 . S
C927 O940 1.251 . S
O928 C927 1.261 . S
H929 C923 0.930 . S
H930 C925 0.930 . S
N931 Cu920 1.985 . S
N931 C933 1.335 . S
N931 C934 1.390 . S
N932 C933 1.345 . S
N932 C935 1.336 . S
C933 N931 1.335 . S
C933 N932 1.345 . S
C933 H938 0.930 . S
C934 N931 1.390 . S
C934 C935 1.346 . S
C934 H939 0.930 . S
C935 N932 1.336 . S
C935 C934 1.346 . S
C935 H942 0.929 . S
C936 O926 1.282 . S
C936 O937 1.216 . S
O937 C936 1.216 . S
H938 C933 0.930 . S
H939 C934 0.930 . S
O940 Cu920 1.959 . S
O940 C927 1.251 . S
H941 C924 0.930 . S
H942 C935 0.929 . S
Cu943 N944 1.999 . S
Cu943 O949 1.974 . S
Cu943 N954 1.985 . S
Cu943 O963 1.959 . S
N944 Cu943 1.999 . S
N944 C946 1.263 . S
N944 C948 1.389 . S
N945 C946 1.358 . S
N945 C947 1.400 . S
C946 N944 1.263 . S
C946 N945 1.358 . S
C946 H952 0.930 . S
C947 N945 1.400 . S
C947 C948 1.351 . S
C947 H964 0.930 . S
C948 N944 1.389 . S
C948 C947 1.351 . S
C948 H953 0.930 . S
O949 Cu943 1.974 . S
O949 C959 1.282 . S
C950 O951 1.261 . S
C950 O963 1.251 . S
O951 C950 1.261 . S
H952 C946 0.930 . S
H953 C948 0.930 . S
N954 Cu943 1.985 . S
N954 C956 1.335 . S
N954 C957 1.390 . S
N955 C956 1.345 . S
N955 C958 1.336 . S
C956 N954 1.335 . S
C956 N955 1.345 . S
C956 H961 0.930 . S
C957 N954 1.390 . S
C957 C958 1.346 . S
C957 H962 0.930 . S
C958 N955 1.336 . S
C958 C957 1.346 . S
C958 H965 0.929 . S
C959 O949 1.282 . S
C959 O960 1.216 . S
O960 C959 1.216 . S
H961 C956 0.930 . S
H962 C957 0.930 . S
O963 Cu943 1.959 . S
O963 C950 1.251 . S
H964 C947 0.930 . S
H965 C958 0.929 . S
Cu966 N967 1.999 . S
Cu966 O972 1.974 . S
Cu966 N977 1.985 . S
Cu966 O986 1.959 . S
N967 Cu966 1.999 . S
N967 C969 1.263 . S
N967 C971 1.389 . S
N968 C969 1.358 . S
N968 C970 1.400 . S
C969 N967 1.263 . S
C969 N968 1.358 . S
C969 H975 0.930 . S
C970 N968 1.400 . S
C970 C971 1.351 . S
C970 H987 0.930 . S
C971 N967 1.389 . S
C971 C970 1.351 . S
C971 H976 0.930 . S
O972 Cu966 1.974 . S
O972 C982 1.282 . S
C973 O974 1.261 . S
C973 O986 1.251 . S
O974 C973 1.261 . S
H975 C969 0.930 . S
H976 C971 0.930 . S
N977 Cu966 1.985 . S
N977 C979 1.335 . S
N977 C980 1.376 1_545 S
N978 C979 1.345 . S
N978 C981 1.336 1_545 S
C979 N977 1.335 . S
C979 N978 1.345 . S
C979 H984 0.930 . S
C980 N977 1.376 1_565 S
C980 C981 1.354 . S
C980 H985 0.936 . S
C981 N978 1.336 1_565 S
C981 C980 1.354 . S
C981 H988 0.929 . S
C982 O972 1.282 . S
C982 O983 1.216 . S
O983 C982 1.216 . S
H984 C979 0.930 . S
H985 C980 0.936 . S
O986 Cu966 1.959 . S
O986 C973 1.251 . S
H987 C970 0.930 . S
H988 C981 0.929 . S
Cu989 N990 1.999 . S
Cu989 O995 1.974 . S
Cu989 N1000 1.985 . S
Cu989 O1009 1.959 . S
N990 Cu989 1.999 . S
N990 C992 1.263 . S
N990 C994 1.389 . S
N991 C992 1.358 . S
N991 C993 1.400 . S
C992 N990 1.263 . S
C992 N991 1.358 . S
C992 H998 0.930 . S
C993 N991 1.400 . S
C993 C994 1.351 . S
C993 H1010 0.930 . S
C994 N990 1.389 . S
C994 C993 1.351 . S
C994 H999 0.930 . S
O995 Cu989 1.974 . S
O995 C1005 1.282 . S
C996 O997 1.261 . S
C996 O1009 1.251 . S
O997 C996 1.261 . S
H998 C992 0.930 . S
H999 C994 0.930 . S
N1000 Cu989 1.985 . S
N1000 C1002 1.335 . S
N1000 C1003 1.390 . S
N1001 C1002 1.345 . S
N1001 C1004 1.336 . S
C1002 N1000 1.335 . S
C1002 N1001 1.345 . S
C1002 H1007 0.930 . S
C1003 N1000 1.390 . S
C1003 C1004 1.346 . S
C1003 H1008 0.930 . S
C1004 N1001 1.336 . S
C1004 C1003 1.346 . S
C1004 H1011 0.929 . S
C1005 O995 1.282 . S
C1005 O1006 1.216 . S
O1006 C1005 1.216 . S
H1007 C1002 0.930 . S
H1008 C1003 0.930 . S
O1009 Cu989 1.959 . S
O1009 C996 1.251 . S
H1010 C993 0.930 . S
H1011 C1004 0.929 . S
Cu1012 N1013 1.999 . S
Cu1012 O1018 1.974 . S
Cu1012 N1023 1.985 . S
Cu1012 O1032 1.959 . S
N1013 Cu1012 1.999 . S
N1013 C1015 1.263 . S
N1013 C1017 1.389 . S
N1014 C1015 1.358 . S
N1014 C1016 1.400 . S
C1015 N1013 1.263 . S
C1015 N1014 1.358 . S
C1015 H1021 0.930 . S
C1016 N1014 1.400 . S
C1016 C1017 1.351 . S
C1016 H1033 0.930 . S
C1017 N1013 1.389 . S
C1017 C1016 1.351 . S
C1017 H1022 0.930 . S
O1018 Cu1012 1.974 . S
O1018 C1028 1.282 . S
C1019 O1020 1.261 . S
C1019 O1032 1.251 . S
O1020 C1019 1.261 . S
H1021 C1015 0.930 . S
H1022 C1017 0.930 . S
N1023 Cu1012 1.985 . S
N1023 C1025 1.335 . S
N1023 C1026 1.390 . S
N1024 C1025 1.345 . S
N1024 C1027 1.336 . S
C1025 N1023 1.335 . S
C1025 N1024 1.345 . S
C1025 H1030 0.930 . S
C1026 N1023 1.390 . S
C1026 C1027 1.346 . S
C1026 H1031 0.930 . S
C1027 N1024 1.336 . S
C1027 C1026 1.346 . S
C1027 H1034 0.929 . S
C1028 O1018 1.282 . S
C1028 O1029 1.216 . S
O1029 C1028 1.216 . S
H1030 C1025 0.930 . S
H1031 C1026 0.930 . S
O1032 Cu1012 1.959 . S
O1032 C1019 1.251 . S
H1033 C1016 0.930 . S
H1034 C1027 0.929 . S
Cu1035 N1036 1.999 . S
Cu1035 O1041 1.974 . S
Cu1035 N1046 1.985 . S
Cu1035 O1055 1.959 . S
N1036 Cu1035 1.999 . S
N1036 C1038 1.263 . S
N1036 C1040 1.389 . S
N1037 C1038 1.358 . S
N1037 C1039 1.400 . S
C1038 N1036 1.263 . S
C1038 N1037 1.358 . S
C1038 H1044 0.930 . S
C1039 N1037 1.400 . S
C1039 C1040 1.351 . S
C1039 H1056 0.930 . S
C1040 N1036 1.389 . S
C1040 C1039 1.351 . S
C1040 H1045 0.930 . S
O1041 Cu1035 1.974 . S
O1041 C1051 1.282 . S
C1042 O1043 1.261 . S
C1042 O1055 1.251 . S
O1043 C1042 1.261 . S
H1044 C1038 0.930 . S
H1045 C1040 0.930 . S
N1046 Cu1035 1.985 . S
N1046 C1048 1.335 . S
N1046 C1049 1.390 . S
N1047 C1048 1.345 . S
N1047 C1050 1.336 . S
C1048 N1046 1.335 . S
C1048 N1047 1.345 . S
C1048 H1053 0.930 . S
C1049 N1046 1.390 . S
C1049 C1050 1.346 . S
C1049 H1054 0.930 . S
C1050 N1047 1.336 . S
C1050 C1049 1.346 . S
C1050 H1057 0.929 . S
C1051 O1041 1.282 . S
C1051 O1052 1.216 . S
O1052 C1051 1.216 . S
H1053 C1048 0.930 . S
H1054 C1049 0.930 . S
O1055 Cu1035 1.959 . S
O1055 C1042 1.251 . S
H1056 C1039 0.930 . S
H1057 C1050 0.929 . S
Cu1058 N1059 1.999 . S
Cu1058 O1064 1.974 . S
Cu1058 N1069 1.985 . S
Cu1058 O1078 1.959 . S
N1059 Cu1058 1.999 . S
N1059 C1061 1.263 . S
N1059 C1063 1.389 . S
N1060 C1061 1.358 . S
N1060 C1062 1.400 . S
C1061 N1059 1.263 . S
C1061 N1060 1.358 . S
C1061 H1067 0.930 . S
C1062 N1060 1.400 . S
C1062 C1063 1.351 . S
C1062 H1079 0.930 . S
C1063 N1059 1.389 . S
C1063 C1062 1.351 . S
C1063 H1068 0.930 . S
O1064 Cu1058 1.974 . S
O1064 C1074 1.282 . S
C1065 O1066 1.261 . S
C1065 O1078 1.251 . S
O1066 C1065 1.261 . S
H1067 C1061 0.930 . S
H1068 C1063 0.930 . S
N1069 Cu1058 1.985 . S
N1069 C1071 1.335 . S
N1069 C1072 1.376 1_565 S
N1070 C1071 1.345 . S
N1070 C1073 1.336 1_565 S
C1071 N1069 1.335 . S
C1071 N1070 1.345 . S
C1071 H1076 0.930 . S
C1072 N1069 1.376 1_545 S
C1072 C1073 1.354 . S
C1072 H1077 0.936 . S
C1073 N1070 1.336 1_545 S
C1073 C1072 1.354 . S
C1073 H1080 0.929 . S
C1074 O1064 1.282 . S
C1074 O1075 1.216 . S
O1075 C1074 1.216 . S
H1076 C1071 0.930 . S
H1077 C1072 0.936 . S
O1078 Cu1058 1.959 . S
O1078 C1065 1.251 . S
H1079 C1062 0.930 . S
H1080 C1073 0.929 . S
Cu1081 N1082 1.999 . S
Cu1081 O1087 1.974 . S
Cu1081 N1092 1.985 . S
Cu1081 O1101 1.959 . S
N1082 Cu1081 1.999 . S
N1082 C1084 1.263 . S
N1082 C1086 1.389 . S
N1083 C1084 1.358 . S
N1083 C1085 1.400 . S
C1084 N1082 1.263 . S
C1084 N1083 1.358 . S
C1084 H1090 0.930 . S
C1085 N1083 1.400 . S
C1085 C1086 1.351 . S
C1085 H1102 0.930 . S
C1086 N1082 1.389 . S
C1086 C1085 1.351 . S
C1086 H1091 0.930 . S
O1087 Cu1081 1.974 . S
O1087 C1097 1.282 . S
C1088 O1089 1.261 . S
C1088 O1101 1.251 . S
O1089 C1088 1.261 . S
H1090 C1084 0.930 . S
H1091 C1086 0.930 . S
N1092 Cu1081 1.985 . S
N1092 C1094 1.335 . S
N1092 C1095 1.376 1_545 S
N1093 C1094 1.345 . S
N1093 C1096 1.336 1_545 S
C1094 N1092 1.335 . S
C1094 N1093 1.345 . S
C1094 H1099 0.930 . S
C1095 N1092 1.376 1_565 S
C1095 C1096 1.354 . S
C1095 H1100 0.936 . S
C1096 N1093 1.336 1_565 S
C1096 C1095 1.354 . S
C1096 H1103 0.929 . S
C1097 O1087 1.282 . S
C1097 O1098 1.216 . S
O1098 C1097 1.216 . S
H1099 C1094 0.930 . S
H1100 C1095 0.936 . S
O1101 Cu1081 1.959 . S
O1101 C1088 1.251 . S
H1102 C1085 0.930 . S
H1103 C1096 0.929 . S
H1104 C1110 0.930 . S
H1105 C1113 0.930 . S
H1106 C1114 0.930 . S
H1107 C1115 0.930 . S
H1108 C1118 0.930 . S
H1109 C1119 0.930 . S
C1110 H1104 0.930 . S
C1110 C1111 1.355 . S
C1110 C1112 1.415 . S
C1111 C1110 1.355 . S
C1111 C1113 1.419 . S
C1112 C1110 1.415 . S
C1112 C1117 1.425 . S
C1112 C1119 1.409 . S
C1113 H1105 0.930 . S
C1113 C1111 1.419 . S
C1113 C1114 1.362 . S
C1114 H1106 0.930 . S
C1114 C1113 1.362 . S
C1114 C1117 1.409 . S
C1115 H1107 0.930 . S
C1115 C1116 1.355 . S
C1115 C1117 1.415 . S
C1116 C1115 1.355 . S
C1116 C1118 1.419 . S
C1117 C1112 1.425 . S
C1117 C1114 1.409 . S
C1117 C1115 1.415 . S
C1118 H1108 0.930 . S
C1118 C1116 1.419 . S
C1118 C1119 1.362 . S
C1119 H1109 0.930 . S
C1119 C1112 1.409 . S
C1119 C1118 1.362 . S
H1120 C1126 0.930 . S
H1121 C1129 0.930 . S
H1122 C1130 0.930 . S
H1123 C1131 0.930 . S
H1124 C1134 0.930 1_655 S
H1125 C1135 0.930 . S
C1126 H1120 0.930 . S
C1126 C1127 1.355 . S
C1126 C1128 1.415 . S
C1127 C1126 1.355 . S
C1127 C1129 1.419 . S
C1128 C1126 1.415 . S
C1128 C1133 1.425 . S
C1128 C1135 1.409 . S
C1129 H1121 0.930 . S
C1129 C1127 1.419 . S
C1129 C1130 1.362 . S
C1130 H1122 0.930 . S
C1130 C1129 1.362 . S
C1130 C1133 1.409 . S
C1131 H1123 0.930 . S
C1131 C1132 1.355 . S
C1131 C1133 1.415 . S
C1132 C1131 1.355 . S
C1132 C1134 1.419 . S
C1133 C1128 1.425 . S
C1133 C1130 1.409 . S
C1133 C1131 1.415 . S
C1134 H1124 0.930 1_455 S
C1134 C1132 1.419 . S
C1134 C1135 1.362 . S
C1135 H1125 0.930 . S
C1135 C1128 1.409 . S
C1135 C1134 1.362 . S
H1136 C1142 0.930 1_554 S
H1137 C1145 0.930 . S
H1138 C1146 0.930 . S
H1139 C1147 0.930 . S
H1140 C1150 0.930 . S
H1141 C1151 0.930 . S
C1142 H1136 0.930 1_556 S
C1142 C1143 1.355 . S
C1142 C1144 1.415 . S
C1143 C1142 1.355 . S
C1143 C1145 1.419 . S
C1144 C1142 1.415 . S
C1144 C1149 1.425 . S
C1144 C1151 1.409 . S
C1145 H1137 0.930 . S
C1145 C1143 1.419 . S
C1145 C1146 1.362 . S
C1146 H1138 0.930 . S
C1146 C1145 1.362 . S
C1146 C1149 1.409 . S
C1147 H1139 0.930 . S
C1147 C1148 1.355 . S
C1147 C1149 1.415 . S
C1148 C1147 1.355 . S
C1148 C1150 1.419 . S
C1149 C1144 1.425 . S
C1149 C1146 1.409 . S
C1149 C1147 1.415 . S
C1150 H1140 0.930 . S
C1150 C1148 1.419 . S
C1150 C1151 1.362 . S
C1151 H1141 0.930 . S
C1151 C1144 1.409 . S
C1151 C1150 1.362 . S
H1152 C1158 0.930 . S
H1153 C1161 0.930 . S
H1154 C1162 0.930 . S
H1155 C1163 0.930 . S
H1156 C1166 0.930 . S
H1157 C1167 0.930 . S
C1158 H1152 0.930 . S
C1158 C1159 1.355 . S
C1158 C1160 1.415 . S
C1159 C1158 1.355 . S
C1159 C1161 1.419 . S
C1160 C1158 1.415 . S
C1160 C1165 1.425 . S
C1160 C1167 1.409 . S
C1161 H1153 0.930 . S
C1161 C1159 1.419 . S
C1161 C1162 1.362 . S
C1162 H1154 0.930 . S
C1162 C1161 1.362 . S
C1162 C1165 1.409 . S
C1163 H1155 0.930 . S
C1163 C1164 1.355 . S
C1163 C1165 1.415 . S
C1164 C1163 1.355 . S
C1164 C1166 1.419 . S
C1165 C1160 1.425 . S
C1165 C1162 1.409 . S
C1165 C1163 1.415 . S
C1166 H1156 0.930 . S
C1166 C1164 1.419 . S
C1166 C1167 1.362 . S
C1167 H1157 0.930 . S
C1167 C1160 1.409 . S
C1167 C1166 1.362 . S
H1168 C1174 0.930 . S
H1169 C1177 0.930 . S
H1170 C1178 0.930 . S
H1171 C1179 0.930 . S
H1172 C1182 0.930 1_556 S
H1173 C1183 0.930 . S
C1174 H1168 0.930 . S
C1174 C1175 1.355 . S
C1174 C1176 1.415 . S
C1175 C1174 1.355 . S
C1175 C1177 1.419 . S
C1176 C1174 1.415 . S
C1176 C1181 1.425 . S
C1176 C1183 1.409 . S
C1177 H1169 0.930 . S
C1177 C1175 1.419 . S
C1177 C1178 1.362 . S
C1178 H1170 0.930 . S
C1178 C1177 1.362 . S
C1178 C1181 1.409 . S
C1179 H1171 0.930 . S
C1179 C1180 1.355 . S
C1179 C1181 1.415 . S
C1180 C1179 1.355 . S
C1180 C1182 1.419 . S
C1181 C1176 1.425 . S
C1181 C1178 1.409 . S
C1181 C1179 1.415 . S
C1182 H1172 0.930 1_554 S
C1182 C1180 1.419 . S
C1182 C1183 1.362 . S
C1183 H1173 0.930 . S
C1183 C1176 1.409 . S
C1183 C1182 1.362 . S
H1184 C1190 0.930 . S
H1185 C1193 0.930 . S
H1186 C1194 0.930 . S
H1187 C1195 0.930 . S
H1188 C1198 0.930 . S
H1189 C1199 0.930 . S
C1190 H1184 0.930 . S
C1190 C1191 1.355 . S
C1190 C1192 1.415 . S
C1191 C1190 1.355 . S
C1191 C1193 1.419 . S
C1192 C1190 1.415 . S
C1192 C1197 1.425 . S
C1192 C1199 1.409 . S
C1193 H1185 0.930 . S
C1193 C1191 1.419 . S
C1193 C1194 1.362 . S
C1194 H1186 0.930 . S
C1194 C1193 1.362 . S
C1194 C1197 1.409 . S
C1195 H1187 0.930 . S
C1195 C1196 1.355 . S
C1195 C1197 1.415 . S
C1196 C1195 1.355 . S
C1196 C1198 1.419 . S
C1197 C1192 1.425 . S
C1197 C1194 1.409 . S
C1197 C1195 1.415 . S
C1198 H1188 0.930 . S
C1198 C1196 1.419 . S
C1198 C1199 1.362 . S
C1199 H1189 0.930 . S
C1199 C1192 1.409 . S
C1199 C1198 1.362 . S
H1200 C1206 0.930 . S
H1201 C1209 0.930 . S
H1202 C1210 0.930 . S
H1203 C1211 0.930 . S
H1204 C1214 0.930 . S
H1205 C1215 0.930 . S
C1206 H1200 0.930 . S
C1206 C1207 1.355 . S
C1206 C1208 1.415 . S
C1207 C1206 1.355 . S
C1207 C1209 1.419 . S
C1208 C1206 1.415 . S
C1208 C1213 1.425 . S
C1208 C1215 1.409 . S
C1209 H1201 0.930 . S
C1209 C1207 1.419 . S
C1209 C1210 1.362 . S
C1210 H1202 0.930 . S
C1210 C1209 1.362 . S
C1210 C1213 1.409 . S
C1211 H1203 0.930 . S
C1211 C1212 1.355 . S
C1211 C1213 1.415 . S
C1212 C1211 1.355 . S
C1212 C1214 1.419 . S
C1213 C1208 1.425 . S
C1213 C1210 1.409 . S
C1213 C1211 1.415 . S
C1214 H1204 0.930 . S
C1214 C1212 1.419 . S
C1214 C1215 1.362 . S
C1215 H1205 0.930 . S
C1215 C1208 1.409 . S
C1215 C1214 1.362 . S
H1216 C1222 0.930 . S
H1217 C1225 0.930 . S
H1218 C1226 0.930 . S
H1219 C1227 0.930 . S
H1220 C1230 0.930 . S
H1221 C1231 0.930 . S
C1222 H1216 0.930 . S
C1222 C1223 1.355 . S
C1222 C1224 1.415 . S
C1223 C1222 1.355 . S
C1223 C1225 1.419 . S
C1224 C1222 1.415 . S
C1224 C1229 1.425 . S
C1224 C1231 1.409 . S
C1225 H1217 0.930 . S
C1225 C1223 1.419 . S
C1225 C1226 1.362 . S
C1226 H1218 0.930 . S
C1226 C1225 1.362 . S
C1226 C1229 1.409 . S
C1227 H1219 0.930 . S
C1227 C1228 1.355 . S
C1227 C1229 1.415 . S
C1228 C1227 1.355 . S
C1228 C1230 1.419 . S
C1229 C1224 1.425 . S
C1229 C1226 1.409 . S
C1229 C1227 1.415 . S
C1230 H1220 0.930 . S
C1230 C1228 1.419 . S
C1230 C1231 1.362 . S
C1231 H1221 0.930 . S
C1231 C1224 1.409 . S
C1231 C1230 1.362 . S
H1232 C1238 0.930 . S
H1233 C1241 0.930 . S
H1234 C1242 0.930 . S
H1235 C1243 0.930 . S
H1236 C1246 0.930 . S
H1237 C1247 0.930 . S
C1238 H1232 0.930 . S
C1238 C1239 1.355 . S
C1238 C1240 1.415 . S
C1239 C1238 1.355 . S
C1239 C1241 1.419 . S
C1240 C1238 1.415 . S
C1240 C1245 1.425 . S
C1240 C1247 1.409 . S
C1241 H1233 0.930 . S
C1241 C1239 1.419 . S
C1241 C1242 1.362 . S
C1242 H1234 0.930 . S
C1242 C1241 1.362 . S
C1242 C1245 1.409 . S
C1243 H1235 0.930 . S
C1243 C1244 1.355 . S
C1243 C1245 1.415 . S
C1244 C1243 1.355 . S
C1244 C1246 1.419 . S
C1245 C1240 1.425 . S
C1245 C1242 1.409 . S
C1245 C1243 1.415 . S
C1246 H1236 0.930 . S
C1246 C1244 1.419 . S
C1246 C1247 1.362 . S
C1247 H1237 0.930 . S
C1247 C1240 1.409 . S
C1247 C1246 1.362 . S
H1248 C1254 0.930 . S
H1249 C1257 0.930 . S
H1250 C1258 0.930 . S
H1251 C1259 0.930 1_565 S
H1252 C1262 0.930 . S
H1253 C1263 0.930 . S
C1254 H1248 0.930 . S
C1254 C1255 1.355 . S
C1254 C1256 1.415 . S
C1255 C1254 1.355 . S
C1255 C1257 1.419 . S
C1256 C1254 1.415 . S
C1256 C1261 1.425 . S
C1256 C1263 1.409 . S
C1257 H1249 0.930 . S
C1257 C1255 1.419 . S
C1257 C1258 1.362 . S
C1258 H1250 0.930 . S
C1258 C1257 1.362 . S
C1258 C1261 1.409 . S
C1259 H1251 0.930 1_545 S
C1259 C1260 1.355 . S
C1259 C1261 1.415 . S
C1260 C1259 1.355 . S
C1260 C1262 1.419 . S
C1261 C1256 1.425 . S
C1261 C1258 1.409 . S
C1261 C1259 1.415 . S
C1262 H1252 0.930 . S
C1262 C1260 1.419 . S
C1262 C1263 1.362 . S
C1263 H1253 0.930 . S
C1263 C1256 1.409 . S
C1263 C1262 1.362 . S
H1264 C1270 0.930 . S
H1265 C1273 0.930 . S
H1266 C1274 0.930 . S
H1267 C1275 0.930 . S
H1268 C1278 0.930 . S
H1269 C1279 0.930 . S
C1270 H1264 0.930 . S
C1270 C1271 1.355 . S
C1270 C1272 1.415 . S
C1271 C1270 1.355 . S
C1271 C1273 1.419 . S
C1272 C1270 1.415 . S
C1272 C1277 1.425 . S
C1272 C1279 1.409 . S
C1273 H1265 0.930 . S
C1273 C1271 1.419 . S
C1273 C1274 1.362 . S
C1274 H1266 0.930 . S
C1274 C1273 1.362 . S
C1274 C1277 1.409 . S
C1275 H1267 0.930 . S
C1275 C1276 1.355 . S
C1275 C1277 1.415 . S
C1276 C1275 1.355 . S
C1276 C1278 1.419 . S
C1277 C1272 1.425 . S
C1277 C1274 1.409 . S
C1277 C1275 1.415 . S
C1278 H1268 0.930 . S
C1278 C1276 1.419 . S
C1278 C1279 1.362 . S
C1279 H1269 0.930 . S
C1279 C1272 1.409 . S
C1279 C1278 1.362 . S
H1280 C1286 0.930 . S
H1281 C1289 0.930 1_565 S
H1282 C1290 0.930 . S
H1283 C1291 0.930 . S
H1284 C1294 0.930 . S
H1285 C1295 0.930 . S
C1286 H1280 0.930 . S
C1286 C1287 1.355 . S
C1286 C1288 1.415 . S
C1287 C1286 1.355 . S
C1287 C1289 1.419 . S
C1288 C1286 1.415 . S
C1288 C1293 1.425 . S
C1288 C1295 1.409 . S
C1289 H1281 0.930 1_545 S
C1289 C1287 1.419 . S
C1289 C1290 1.362 . S
C1290 H1282 0.930 . S
C1290 C1289 1.362 . S
C1290 C1293 1.409 . S
C1291 H1283 0.930 . S
C1291 C1292 1.355 . S
C1291 C1293 1.415 . S
C1292 C1291 1.355 . S
C1292 C1294 1.419 . S
C1293 C1288 1.425 . S
C1293 C1290 1.409 . S
C1293 C1291 1.415 . S
C1294 H1284 0.930 . S
C1294 C1292 1.419 . S
C1294 C1295 1.362 . S
C1295 H1285 0.930 . S
C1295 C1288 1.409 . S
C1295 C1294 1.362 . S
H1296 C1302 0.930 . S
H1297 C1305 0.930 . S
H1298 C1306 0.930 . S
H1299 C1307 0.930 . S
H1300 C1310 0.930 . S
H1301 C1311 0.930 . S
C1302 H1296 0.930 . S
C1302 C1303 1.355 . S
C1302 C1304 1.415 . S
C1303 C1302 1.355 . S
C1303 C1305 1.419 . S
C1304 C1302 1.415 . S
C1304 C1309 1.425 . S
C1304 C1311 1.409 . S
C1305 H1297 0.930 . S
C1305 C1303 1.419 . S
C1305 C1306 1.362 . S
C1306 H1298 0.930 . S
C1306 C1305 1.362 . S
C1306 C1309 1.409 . S
C1307 H1299 0.930 . S
C1307 C1308 1.355 . S
C1307 C1309 1.415 . S
C1308 C1307 1.355 . S
C1308 C1310 1.419 . S
C1309 C1304 1.425 . S
C1309 C1306 1.409 . S
C1309 C1307 1.415 . S
C1310 H1300 0.930 . S
C1310 C1308 1.419 . S
C1310 C1311 1.362 . S
C1311 H1301 0.930 . S
C1311 C1304 1.409 . S
C1311 C1310 1.362 . S
H1312 C1318 0.930 . S
H1313 C1321 0.930 . S
H1314 C1322 0.930 . S
H1315 C1323 0.930 . S
H1316 C1326 0.930 . S
H1317 C1327 0.930 . S
C1318 H1312 0.930 . S
C1318 C1319 1.355 . S
C1318 C1320 1.415 . S
C1319 C1318 1.355 . S
C1319 C1321 1.419 . S
C1320 C1318 1.415 . S
C1320 C1325 1.425 . S
C1320 C1327 1.409 . S
C1321 H1313 0.930 . S
C1321 C1319 1.419 . S
C1321 C1322 1.362 . S
C1322 H1314 0.930 . S
C1322 C1321 1.362 . S
C1322 C1325 1.409 . S
C1323 H1315 0.930 . S
C1323 C1324 1.355 . S
C1323 C1325 1.415 . S
C1324 C1323 1.355 . S
C1324 C1326 1.419 . S
C1325 C1320 1.425 . S
C1325 C1322 1.409 . S
C1325 C1323 1.415 . S
C1326 H1316 0.930 . S
C1326 C1324 1.419 . S
C1326 C1327 1.362 . S
C1327 H1317 0.930 . S
C1327 C1320 1.409 . S
C1327 C1326 1.362 . S
H1328 C1334 0.930 . S
H1329 C1337 0.930 . S
H1330 C1338 0.930 . S
H1331 C1339 0.930 . S
H1332 C1342 0.930 . S
H1333 C1343 0.930 . S
C1334 H1328 0.930 . S
C1334 C1335 1.355 . S
C1334 C1336 1.415 . S
C1335 C1334 1.355 . S
C1335 C1337 1.419 . S
C1336 C1334 1.415 . S
C1336 C1341 1.425 . S
C1336 C1343 1.409 . S
C1337 H1329 0.930 . S
C1337 C1335 1.419 . S
C1337 C1338 1.362 . S
C1338 H1330 0.930 . S
C1338 C1337 1.362 . S
C1338 C1341 1.409 . S
C1339 H1331 0.930 . S
C1339 C1340 1.355 . S
C1339 C1341 1.415 . S
C1340 C1339 1.355 . S
C1340 C1342 1.419 . S
C1341 C1336 1.425 . S
C1341 C1338 1.409 . S
C1341 C1339 1.415 . S
C1342 H1332 0.930 . S
C1342 C1340 1.419 . S
C1342 C1343 1.362 . S
C1343 H1333 0.930 . S
C1343 C1336 1.409 . S
C1343 C1342 1.362 . S
H1344 C1350 0.930 . S
H1345 C1353 0.930 . S
H1346 C1354 0.930 . S
H1347 C1355 0.930 . S
H1348 C1358 0.930 . S
H1349 C1359 0.930 . S
C1350 H1344 0.930 . S
C1350 C1351 1.355 . S
C1350 C1352 1.415 . S
C1351 C1350 1.355 . S
C1351 C1353 1.419 . S
C1352 C1350 1.415 . S
C1352 C1357 1.425 . S
C1352 C1359 1.409 . S
C1353 H1345 0.930 . S
C1353 C1351 1.419 . S
C1353 C1354 1.362 . S
C1354 H1346 0.930 . S
C1354 C1353 1.362 . S
C1354 C1357 1.409 . S
C1355 H1347 0.930 . S
C1355 C1356 1.355 . S
C1355 C1357 1.415 . S
C1356 C1355 1.355 . S
C1356 C1358 1.419 . S
C1357 C1352 1.425 . S
C1357 C1354 1.409 . S
C1357 C1355 1.415 . S
C1358 H1348 0.930 . S
C1358 C1356 1.419 . S
C1358 C1359 1.362 . S
C1359 H1349 0.930 . S
C1359 C1352 1.409 . S
C1359 C1358 1.362 . S
H1360 C1366 0.930 . S
H1361 C1369 0.930 . S
H1362 C1370 0.930 . S
H1363 C1371 0.930 . S
H1364 C1374 0.930 . S
H1365 C1375 0.930 . S
C1366 H1360 0.930 . S
C1366 C1367 1.355 . S
C1366 C1368 1.415 . S
C1367 C1366 1.355 . S
C1367 C1369 1.419 . S
C1368 C1366 1.415 . S
C1368 C1373 1.425 . S
C1368 C1375 1.409 . S
C1369 H1361 0.930 . S
C1369 C1367 1.419 . S
C1369 C1370 1.362 . S
C1370 H1362 0.930 . S
C1370 C1369 1.362 . S
C1370 C1373 1.409 . S
C1371 H1363 0.930 . S
C1371 C1372 1.355 . S
C1371 C1373 1.415 . S
C1372 C1371 1.355 . S
C1372 C1374 1.419 . S
C1373 C1368 1.425 . S
C1373 C1370 1.409 . S
C1373 C1371 1.415 . S
C1374 H1364 0.930 . S
C1374 C1372 1.419 . S
C1374 C1375 1.362 . S
C1375 H1365 0.930 . S
C1375 C1368 1.409 . S
C1375 C1374 1.362 . S
H1376 C1382 0.930 . S
H1377 C1385 0.930 . S
H1378 C1386 0.930 . S
H1379 C1387 0.930 . S
H1380 C1390 0.930 . S
H1381 C1391 0.930 . S
C1382 H1376 0.930 . S
C1382 C1383 1.355 . S
C1382 C1384 1.415 . S
C1383 C1382 1.355 . S
C1383 C1385 1.419 . S
C1384 C1382 1.415 . S
C1384 C1389 1.425 . S
C1384 C1391 1.409 . S
C1385 H1377 0.930 . S
C1385 C1383 1.419 . S
C1385 C1386 1.362 . S
C1386 H1378 0.930 . S
C1386 C1385 1.362 . S
C1386 C1389 1.409 . S
C1387 H1379 0.930 . S
C1387 C1388 1.355 . S
C1387 C1389 1.415 . S
C1388 C1387 1.355 . S
C1388 C1390 1.419 . S
C1389 C1384 1.425 . S
C1389 C1386 1.409 . S
C1389 C1387 1.415 . S
C1390 H1380 0.930 . S
C1390 C1388 1.419 . S
C1390 C1391 1.362 . S
C1391 H1381 0.930 . S
C1391 C1384 1.409 . S
C1391 C1390 1.362 . S
H1392 C1398 0.930 . S
H1393 C1401 0.930 . S
H1394 C1402 0.930 . S
H1395 C1403 0.930 . S
H1396 C1406 0.930 1_455 S
H1397 C1407 0.930 . S
C1398 H1392 0.930 . S
C1398 C1399 1.355 . S
C1398 C1400 1.415 . S
C1399 C1398 1.355 . S
C1399 C1401 1.419 . S
C1400 C1398 1.415 . S
C1400 C1405 1.425 . S
C1400 C1407 1.409 . S
C1401 H1393 0.930 . S
C1401 C1399 1.419 . S
C1401 C1402 1.362 . S
C1402 H1394 0.930 . S
C1402 C1401 1.362 . S
C1402 C1405 1.409 . S
C1403 H1395 0.930 . S
C1403 C1404 1.355 . S
C1403 C1405 1.415 . S
C1404 C1403 1.355 . S
C1404 C1406 1.419 . S
C1405 C1400 1.425 . S
C1405 C1402 1.409 . S
C1405 C1403 1.415 . S
C1406 H1396 0.930 1_655 S
C1406 C1404 1.419 . S
C1406 C1407 1.362 . S
C1407 H1397 0.930 . S
C1407 C1400 1.409 . S
C1407 C1406 1.362 . S
H1408 C1414 0.930 . S
H1409 C1417 0.930 . S
H1410 C1418 0.930 . S
H1411 C1419 0.930 . S
H1412 C1422 0.930 . S
H1413 C1423 0.930 . S
C1414 H1408 0.930 . S
C1414 C1415 1.355 . S
C1414 C1416 1.415 . S
C1415 C1414 1.355 . S
C1415 C1417 1.419 . S
C1416 C1414 1.415 . S
C1416 C1421 1.425 . S
C1416 C1423 1.409 . S
C1417 H1409 0.930 . S
C1417 C1415 1.419 . S
C1417 C1418 1.362 . S
C1418 H1410 0.930 . S
C1418 C1417 1.362 . S
C1418 C1421 1.409 . S
C1419 H1411 0.930 . S
C1419 C1420 1.355 . S
C1419 C1421 1.415 . S
C1420 C1419 1.355 . S
C1420 C1422 1.419 . S
C1421 C1416 1.425 . S
C1421 C1418 1.409 . S
C1421 C1419 1.415 . S
C1422 H1412 0.930 . S
C1422 C1420 1.419 . S
C1422 C1423 1.362 . S
C1423 H1413 0.930 . S
C1423 C1416 1.409 . S
C1423 C1422 1.362 . S
H1424 C1430 0.930 . S
H1425 C1433 0.930 . S
H1426 C1434 0.930 . S
H1427 C1435 0.930 . S
H1428 C1438 0.920 1_455 S
H1429 C1439 0.930 . S
C1430 H1424 0.930 . S
C1430 C1431 1.355 . S
C1430 C1432 1.415 . S
C1431 C1430 1.355 . S
C1431 C1433 1.419 . S
C1432 C1430 1.415 . S
C1432 C1437 1.425 . S
C1432 C1439 1.409 . S
C1433 H1425 0.930 . S
C1433 C1431 1.419 . S
C1433 C1434 1.362 . S
C1434 H1426 0.930 . S
C1434 C1433 1.362 . S
C1434 C1437 1.409 . S
C1435 H1427 0.930 . S
C1435 C1436 1.355 . S
C1435 C1437 1.415 . S
C1436 C1435 1.355 . S
C1436 C1438 1.424 . S
C1437 C1432 1.425 . S
C1437 C1434 1.409 . S
C1437 C1435 1.415 . S
C1438 H1428 0.920 1_655 S
C1438 C1436 1.424 . S
C1438 C1439 1.367 . S
C1439 H1429 0.930 . S
C1439 C1432 1.409 . S
C1439 C1438 1.367 . S
H1440 C1446 0.930 . S
H1441 C1449 0.930 . S
H1442 C1450 0.930 . S
H1443 C1451 0.930 . S
H1444 C1454 0.887 1_556 S
H1445 C1455 0.930 . S
C1446 H1440 0.930 . S
C1446 C1447 1.355 . S
C1446 C1448 1.415 . S
C1447 C1446 1.355 . S
C1447 C1449 1.419 . S
C1448 C1446 1.415 . S
C1448 C1453 1.425 . S
C1448 C1455 1.409 . S
C1449 H1441 0.930 . S
C1449 C1447 1.419 . S
C1449 C1450 1.362 . S
C1450 H1442 0.930 . S
C1450 C1449 1.362 . S
C1450 C1453 1.409 . S
C1451 H1443 0.930 . S
C1451 C1452 1.355 . S
C1451 C1453 1.415 . S
C1452 C1451 1.355 . S
C1452 C1454 1.441 . S
C1453 C1448 1.425 . S
C1453 C1450 1.409 . S
C1453 C1451 1.415 . S
C1454 H1444 0.887 1_554 S
C1454 C1452 1.441 . S
C1454 C1455 1.383 . S
C1455 H1445 0.930 . S
C1455 C1448 1.409 . S
C1455 C1454 1.383 . S
H1456 C1462 0.930 . S
H1457 C1465 0.930 . S
H1458 C1466 0.930 . S
H1459 C1467 0.930 . S
H1460 C1470 0.930 . S
H1461 C1471 0.930 . S
C1462 H1456 0.930 . S
C1462 C1463 1.355 . S
C1462 C1464 1.415 . S
C1463 C1462 1.355 . S
C1463 C1465 1.419 . S
C1464 C1462 1.415 . S
C1464 C1469 1.425 . S
C1464 C1471 1.409 . S
C1465 H1457 0.930 . S
C1465 C1463 1.419 . S
C1465 C1466 1.362 . S
C1466 H1458 0.930 . S
C1466 C1465 1.362 . S
C1466 C1469 1.409 . S
C1467 H1459 0.930 . S
C1467 C1468 1.355 . S
C1467 C1469 1.415 . S
C1468 C1467 1.355 . S
C1468 C1470 1.419 . S
C1469 C1464 1.425 . S
C1469 C1466 1.409 . S
C1469 C1467 1.415 . S
C1470 H1460 0.930 . S
C1470 C1468 1.419 . S
C1470 C1471 1.362 . S
C1471 H1461 0.930 . S
C1471 C1464 1.409 . S
C1471 C1470 1.362 . S
H1472 C1478 0.930 . S
H1473 C1481 0.930 . S
H1474 C1482 0.930 . S
H1475 C1483 0.930 . S
H1476 C1486 0.898 1_545 S
H1477 C1487 0.930 . S
C1478 H1472 0.930 . S
C1478 C1479 1.355 . S
C1478 C1480 1.415 . S
C1479 C1478 1.355 . S
C1479 C1481 1.419 . S
C1480 C1478 1.415 . S
C1480 C1485 1.425 . S
C1480 C1487 1.409 . S
C1481 H1473 0.930 . S
C1481 C1479 1.419 . S
C1481 C1482 1.362 . S
C1482 H1474 0.930 . S
C1482 C1481 1.362 . S
C1482 C1485 1.409 . S
C1483 H1475 0.930 . S
C1483 C1484 1.355 . S
C1483 C1485 1.415 . S
C1484 C1483 1.355 . S
C1484 C1486 1.436 . S
C1485 C1480 1.425 . S
C1485 C1482 1.409 . S
C1485 C1483 1.415 . S
C1486 H1476 0.898 1_565 S
C1486 C1484 1.436 . S
C1486 C1487 1.378 . S
C1487 H1477 0.930 . S
C1487 C1480 1.409 . S
C1487 C1486 1.378 . S
H1488 C1494 0.930 . S
H1489 C1497 0.930 . S
H1490 C1498 0.930 . S
H1491 C1499 0.930 . S
H1492 C1502 0.930 . S
H1493 C1503 0.930 . S
C1494 H1488 0.930 . S
C1494 C1495 1.355 . S
C1494 C1496 1.415 . S
C1495 C1494 1.355 . S
C1495 C1497 1.419 . S
C1496 C1494 1.415 . S
C1496 C1501 1.425 . S
C1496 C1503 1.409 . S
C1497 H1489 0.930 . S
C1497 C1495 1.419 . S
C1497 C1498 1.362 . S
C1498 H1490 0.930 . S
C1498 C1497 1.362 . S
C1498 C1501 1.409 . S
C1499 H1491 0.930 . S
C1499 C1500 1.355 . S
C1499 C1501 1.415 . S
C1500 C1499 1.355 . S
C1500 C1502 1.419 . S
C1501 C1496 1.425 . S
C1501 C1498 1.409 . S
C1501 C1499 1.415 . S
C1502 H1492 0.930 . S
C1502 C1500 1.419 . S
C1502 C1503 1.362 . S
C1503 H1493 0.930 . S
C1503 C1496 1.409 . S
C1503 C1502 1.362 . S
H1504 C1510 0.930 . S
H1505 C1513 0.930 . S
H1506 C1514 0.930 . S
H1507 C1515 0.930 . S
H1508 C1518 0.930 . S
H1509 C1519 0.930 . S
C1510 H1504 0.930 . S
C1510 C1511 1.355 1_565 S
C1510 C1512 1.415 . S
C1511 C1510 1.355 1_545 S
C1511 C1513 1.419 . S
C1512 C1510 1.415 . S
C1512 C1517 1.425 . S
C1512 C1519 1.409 . S
C1513 H1505 0.930 . S
C1513 C1511 1.419 . S
C1513 C1514 1.362 . S
C1514 H1506 0.930 . S
C1514 C1513 1.362 . S
C1514 C1517 1.409 1_545 S
C1515 H1507 0.930 . S
C1515 C1516 1.355 . S
C1515 C1517 1.415 . S
C1516 C1515 1.355 . S
C1516 C1518 1.419 . S
C1517 C1512 1.425 . S
C1517 C1514 1.409 1_565 S
C1517 C1515 1.415 . S
C1518 H1508 0.930 . S
C1518 C1516 1.419 . S
C1518 C1519 1.362 . S
C1519 H1509 0.930 . S
C1519 C1512 1.409 . S
C1519 C1518 1.362 . S
H1520 C1526 0.930 . S
H1521 C1529 0.930 . S
H1522 C1530 0.930 . S
H1523 C1531 0.930 . S
H1524 C1534 0.930 . S
H1525 C1535 0.930 . S
C1526 H1520 0.930 . S
C1526 C1527 1.355 . S
C1526 C1528 1.415 . S
C1527 C1526 1.355 . S
C1527 C1529 1.419 . S
C1528 C1526 1.415 . S
C1528 C1533 1.425 . S
C1528 C1535 1.409 . S
C1529 H1521 0.930 . S
C1529 C1527 1.419 . S
C1529 C1530 1.362 . S
C1530 H1522 0.930 . S
C1530 C1529 1.362 . S
C1530 C1533 1.409 . S
C1531 H1523 0.930 . S
C1531 C1532 1.355 . S
C1531 C1533 1.415 . S
C1532 C1531 1.355 . S
C1532 C1534 1.419 . S
C1533 C1528 1.425 . S
C1533 C1530 1.409 . S
C1533 C1531 1.415 . S
C1534 H1524 0.930 . S
C1534 C1532 1.419 . S
C1534 C1535 1.362 . S
C1535 H1525 0.930 . S
C1535 C1528 1.409 . S
C1535 C1534 1.362 . S
H1536 C1542 0.930 . S
H1537 C1545 0.930 . S
H1538 C1546 0.930 . S
H1539 C1547 0.930 . S
H1540 C1550 0.930 . S
H1541 C1551 0.965 . S
C1542 H1536 0.930 . S
C1542 C1543 1.355 1_554 S
C1542 C1544 1.415 1_565 S
C1543 C1542 1.355 1_556 S
C1543 C1545 1.419 1_565 S
C1544 C1542 1.415 1_545 S
C1544 C1549 1.425 . S
C1544 C1551 1.400 1_545 S
C1545 H1537 0.930 . S
C1545 C1543 1.419 1_545 S
C1545 C1546 1.362 . S
C1546 H1538 0.930 . S
C1546 C1545 1.362 . S
C1546 C1549 1.409 1_556 S
C1547 H1539 0.930 . S
C1547 C1548 1.355 . S
C1547 C1549 1.415 . S
C1548 C1547 1.355 . S
C1548 C1550 1.419 . S
C1549 C1544 1.425 . S
C1549 C1546 1.409 1_554 S
C1549 C1547 1.415 . S
C1550 H1540 0.930 . S
C1550 C1548 1.419 . S
C1550 C1551 1.339 1_545 S
C1551 H1541 0.965 . S
C1551 C1544 1.400 1_565 S
C1551 C1550 1.339 1_565 S
H1552 C1558 0.930 . S
H1553 C1561 0.930 . S
H1554 C1562 0.930 . S
H1555 C1563 0.930 . S
H1556 C1566 0.930 . S
H1557 C1567 0.930 . S
C1558 H1552 0.930 . S
C1558 C1559 1.355 . S
C1558 C1560 1.415 . S
C1559 C1558 1.355 . S
C1559 C1561 1.419 . S
C1560 C1558 1.415 . S
C1560 C1565 1.425 . S
C1560 C1567 1.409 . S
C1561 H1553 0.930 . S
C1561 C1559 1.419 . S
C1561 C1562 1.362 . S
C1562 H1554 0.930 . S
C1562 C1561 1.362 . S
C1562 C1565 1.409 . S
C1563 H1555 0.930 . S
C1563 C1564 1.355 . S
C1563 C1565 1.415 . S
C1564 C1563 1.355 . S
C1564 C1566 1.419 . S
C1565 C1560 1.425 . S
C1565 C1562 1.409 . S
C1565 C1563 1.415 . S
C1566 H1556 0.930 . S
C1566 C1564 1.419 . S
C1566 C1567 1.362 . S
C1567 H1557 0.930 . S
C1567 C1560 1.409 . S
C1567 C1566 1.362 . S
H1568 C1574 0.930 . S
H1569 C1577 0.930 . S
H1570 C1578 0.931 1_545 S
H1571 C1579 0.930 . S
H1572 C1582 0.930 . S
H1573 C1583 0.930 . S
C1574 H1568 0.930 . S
C1574 C1575 1.355 1_565 S
C1574 C1576 1.415 . S
C1575 C1574 1.355 1_545 S
C1575 C1577 1.419 . S
C1576 C1574 1.415 . S
C1576 C1581 1.425 . S
C1576 C1583 1.409 . S
C1577 H1569 0.930 . S
C1577 C1575 1.419 . S
C1577 C1578 1.362 1_545 S
C1578 H1570 0.931 1_565 S
C1578 C1577 1.362 1_565 S
C1578 C1581 1.409 . S
C1579 H1571 0.930 . S
C1579 C1580 1.355 . S
C1579 C1581 1.415 . S
C1580 C1579 1.355 . S
C1580 C1582 1.419 . S
C1581 C1576 1.425 . S
C1581 C1578 1.409 . S
C1581 C1579 1.415 . S
C1582 H1572 0.930 . S
C1582 C1580 1.419 . S
C1582 C1583 1.362 . S
C1583 H1573 0.930 . S
C1583 C1576 1.409 . S
C1583 C1582 1.362 . S
H1584 C1590 0.930 . S
H1585 C1593 0.930 . S
H1586 C1594 0.930 . S
H1587 C1595 0.930 . S
H1588 C1598 0.930 . S
H1589 C1599 0.930 . S
C1590 H1584 0.930 . S
C1590 C1591 1.355 . S
C1590 C1592 1.415 . S
C1591 C1590 1.355 . S
C1591 C1593 1.419 . S
C1592 C1590 1.415 . S
C1592 C1597 1.425 . S
C1592 C1599 1.409 . S
C1593 H1585 0.930 . S
C1593 C1591 1.419 . S
C1593 C1594 1.362 . S
C1594 H1586 0.930 . S
C1594 C1593 1.362 . S
C1594 C1597 1.409 . S
C1595 H1587 0.930 . S
C1595 C1596 1.355 . S
C1595 C1597 1.415 . S
C1596 C1595 1.355 . S
C1596 C1598 1.419 . S
C1597 C1592 1.425 . S
C1597 C1594 1.409 . S
C1597 C1595 1.415 . S
C1598 H1588 0.930 . S
C1598 C1596 1.419 . S
C1598 C1599 1.362 . S
C1599 H1589 0.930 . S
C1599 C1592 1.409 . S
C1599 C1598 1.362 . S
H1600 C1606 0.930 . S
H1601 C1609 0.930 . S
H1602 C1610 0.930 . S
H1603 C1611 0.930 . S
H1604 C1614 0.930 . S
H1605 C1615 0.945 . S
C1606 H1600 0.930 . S
C1606 C1607 1.355 . S
C1606 C1608 1.415 1_564 S
C1607 C1606 1.355 . S
C1607 C1609 1.419 1_565 S
C1608 C1606 1.415 1_546 S
C1608 C1613 1.425 . S
C1608 C1615 1.409 . S
C1609 H1601 0.930 . S
C1609 C1607 1.419 1_545 S
C1609 C1610 1.362 1_554 S
C1610 H1602 0.930 . S
C1610 C1609 1.362 1_556 S
C1610 C1613 1.409 . S
C1611 H1603 0.930 . S
C1611 C1612 1.355 . S
C1611 C1613 1.415 . S
C1612 C1611 1.355 . S
C1612 C1614 1.419 . S
C1613 C1608 1.425 . S
C1613 C1610 1.409 . S
C1613 C1611 1.415 . S
C1614 H1604 0.930 . S
C1614 C1612 1.419 . S
C1614 C1615 1.362 . S
C1615 H1605 0.945 . S
C1615 C1608 1.409 . S
C1615 C1614 1.362 . S
H1616 C1622 0.930 . S
H1617 C1625 0.930 . S
H1618 C1626 0.930 . S
H1619 C1627 0.930 . S
H1620 C1630 0.930 . S
H1621 C1631 0.930 . S
C1622 H1616 0.930 . S
C1622 C1623 1.355 . S
C1622 C1624 1.415 . S
C1623 C1622 1.355 . S
C1623 C1625 1.419 . S
C1624 C1622 1.415 . S
C1624 C1629 1.425 . S
C1624 C1631 1.409 . S
C1625 H1617 0.930 . S
C1625 C1623 1.419 . S
C1625 C1626 1.362 . S
C1626 H1618 0.930 . S
C1626 C1625 1.362 . S
C1626 C1629 1.409 . S
C1627 H1619 0.930 . S
C1627 C1628 1.355 . S
C1627 C1629 1.415 . S
C1628 C1627 1.355 . S
C1628 C1630 1.419 . S
C1629 C1624 1.425 . S
C1629 C1626 1.409 . S
C1629 C1627 1.415 . S
C1630 H1620 0.930 . S
C1630 C1628 1.419 . S
C1630 C1631 1.362 . S
C1631 H1621 0.930 . S
C1631 C1624 1.409 . S
C1631 C1630 1.362 . S
H1632 C1638 0.930 . S
H1633 C1641 0.930 1_565 S
H1634 C1642 0.930 . S
H1635 C1643 0.930 1_655 S
H1636 C1646 0.930 . S
H1637 C1647 0.930 . S
C1638 H1632 0.930 . S
C1638 C1639 1.355 1_455 S
C1638 C1640 1.415 1_565 S
C1639 C1638 1.355 1_655 S
C1639 C1641 1.419 1_565 S
C1640 C1638 1.415 1_545 S
C1640 C1645 1.425 . S
C1640 C1647 1.409 . S
C1641 H1633 0.930 1_545 S
C1641 C1639 1.419 1_545 S
C1641 C1642 1.362 . S
C1642 H1634 0.930 . S
C1642 C1641 1.362 . S
C1642 C1645 1.409 1_655 S
C1643 H1635 0.930 1_455 S
C1643 C1644 1.355 . S
C1643 C1645 1.415 . S
C1644 C1643 1.355 . S
C1644 C1646 1.419 . S
C1645 C1640 1.425 . S
C1645 C1642 1.409 1_455 S
C1645 C1643 1.415 . S
C1646 H1636 0.930 . S
C1646 C1644 1.419 . S
C1646 C1647 1.362 . S
C1647 H1637 0.930 . S
C1647 C1640 1.409 . S
C1647 C1646 1.362 . S
H1648 C1654 0.930 . S
H1649 C1657 0.930 . S
H1650 C1658 0.930 . S
H1651 C1659 0.930 . S
H1652 C1662 0.930 . S
H1653 C1663 0.930 . S
C1654 H1648 0.930 . S
C1654 C1655 1.355 . S
C1654 C1656 1.415 . S
C1655 C1654 1.355 . S
C1655 C1657 1.419 . S
C1656 C1654 1.415 . S
C1656 C1661 1.425 . S
C1656 C1663 1.409 . S
C1657 H1649 0.930 . S
C1657 C1655 1.419 . S
C1657 C1658 1.362 . S
C1658 H1650 0.930 . S
C1658 C1657 1.362 . S
C1658 C1661 1.409 . S
C1659 H1651 0.930 . S
C1659 C1660 1.355 . S
C1659 C1661 1.415 . S
C1660 C1659 1.355 . S
C1660 C1662 1.419 . S
C1661 C1656 1.425 . S
C1661 C1658 1.409 . S
C1661 C1659 1.415 . S
C1662 H1652 0.930 . S
C1662 C1660 1.419 . S
C1662 C1663 1.362 . S
C1663 H1653 0.930 . S
C1663 C1656 1.409 . S
C1663 C1662 1.362 . S
H1664 C1670 0.930 . S
H1665 C1673 0.930 1_545 S
H1666 C1674 0.930 . S
H1667 C1675 0.930 . S
H1668 C1678 0.930 . S
H1669 C1679 0.930 . S
C1670 H1664 0.930 . S
C1670 C1671 1.355 . S
C1670 C1672 1.415 1_545 S
C1671 C1670 1.355 . S
C1671 C1673 1.419 1_545 S
C1672 C1670 1.415 1_565 S
C1672 C1677 1.425 . S
C1672 C1679 1.409 . S
C1673 H1665 0.930 1_565 S
C1673 C1671 1.419 1_565 S
C1673 C1674 1.362 . S
C1674 H1666 0.930 . S
C1674 C1673 1.362 . S
C1674 C1677 1.409 . S
C1675 H1667 0.930 . S
C1675 C1676 1.355 . S
C1675 C1677 1.415 . S
C1676 C1675 1.355 . S
C1676 C1678 1.419 . S
C1677 C1672 1.425 . S
C1677 C1674 1.409 . S
C1677 C1675 1.415 . S
C1678 H1668 0.930 . S
C1678 C1676 1.419 . S
C1678 C1679 1.362 . S
C1679 H1669 0.930 . S
C1679 C1672 1.409 . S
C1679 C1678 1.362 . S
H1680 C1686 0.930 . S
H1681 C1689 0.930 . S
H1682 C1690 0.930 . S
H1683 C1691 0.930 . S
H1684 C1694 0.930 . S
H1685 C1695 0.930 . S
C1686 H1680 0.930 . S
C1686 C1687 1.355 . S
C1686 C1688 1.415 . S
C1687 C1686 1.355 . S
C1687 C1689 1.419 . S
C1688 C1686 1.415 . S
C1688 C1693 1.425 . S
C1688 C1695 1.409 . S
C1689 H1681 0.930 . S
C1689 C1687 1.419 . S
C1689 C1690 1.362 . S
C1690 H1682 0.930 . S
C1690 C1689 1.362 . S
C1690 C1693 1.409 . S
C1691 H1683 0.930 . S
C1691 C1692 1.355 . S
C1691 C1693 1.415 . S
C1692 C1691 1.355 . S
C1692 C1694 1.419 . S
C1693 C1688 1.425 . S
C1693 C1690 1.409 . S
C1693 C1691 1.415 . S
C1694 H1684 0.930 . S
C1694 C1692 1.419 . S
C1694 C1695 1.362 . S
C1695 H1685 0.930 . S
C1695 C1688 1.409 . S
C1695 C1694 1.362 . S
H1696 C1702 0.930 . S
H1697 C1705 0.930 . S
H1698 C1706 0.930 . S
H1699 C1707 0.930 . S
H1700 C1710 0.930 . S
H1701 C1711 0.930 . S
C1702 H1696 0.930 . S
C1702 C1703 1.355 . S
C1702 C1704 1.415 1_565 S
C1703 C1702 1.355 . S
C1703 C1705 1.419 . S
C1704 C1702 1.415 1_545 S
C1704 C1709 1.425 . S
C1704 C1711 1.409 . S
C1705 H1697 0.930 . S
C1705 C1703 1.419 . S
C1705 C1706 1.362 1_565 S
C1706 H1698 0.930 . S
C1706 C1705 1.362 1_545 S
C1706 C1709 1.409 . S
C1707 H1699 0.930 . S
C1707 C1708 1.355 . S
C1707 C1709 1.415 . S
C1708 C1707 1.355 . S
C1708 C1710 1.419 . S
C1709 C1704 1.425 . S
C1709 C1706 1.409 . S
C1709 C1707 1.415 . S
C1710 H1700 0.930 . S
C1710 C1708 1.419 . S
C1710 C1711 1.362 . S
C1711 H1701 0.930 . S
C1711 C1704 1.409 . S
C1711 C1710 1.362 . S
H1712 C1718 0.930 . S
H1713 C1721 0.930 . S
H1714 C1722 0.930 . S
H1715 C1723 0.930 . S
H1716 C1726 0.930 . S
H1717 C1727 0.930 . S
C1718 H1712 0.930 . S
C1718 C1719 1.355 . S
C1718 C1720 1.415 . S
C1719 C1718 1.355 . S
C1719 C1721 1.419 . S
C1720 C1718 1.415 . S
C1720 C1725 1.425 . S
C1720 C1727 1.409 . S
C1721 H1713 0.930 . S
C1721 C1719 1.419 . S
C1721 C1722 1.362 . S
C1722 H1714 0.930 . S
C1722 C1721 1.362 . S
C1722 C1725 1.409 . S
C1723 H1715 0.930 . S
C1723 C1724 1.355 . S
C1723 C1725 1.415 . S
C1724 C1723 1.355 . S
C1724 C1726 1.419 . S
C1725 C1720 1.425 . S
C1725 C1722 1.409 . S
C1725 C1723 1.415 . S
C1726 H1716 0.930 . S
C1726 C1724 1.419 . S
C1726 C1727 1.362 . S
C1727 H1717 0.930 . S
C1727 C1720 1.409 . S
C1727 C1726 1.362 . S
H1728 C1734 0.930 . S
H1729 C1737 0.930 1_655 S
H1730 C1738 0.930 . S
H1731 C1739 0.930 . S
H1732 C1742 0.930 . S
H1733 C1743 0.930 . S
C1734 H1728 0.930 . S
C1734 C1735 1.355 . S
C1734 C1736 1.415 . S
C1735 C1734 1.355 . S
C1735 C1737 1.419 . S
C1736 C1734 1.415 . S
C1736 C1741 1.463 . S
C1736 C1743 1.409 . S
C1737 H1729 0.930 1_455 S
C1737 C1735 1.419 . S
C1737 C1738 1.362 1_455 S
C1738 H1730 0.930 . S
C1738 C1737 1.362 1_655 S
C1738 C1741 1.393 1_655 S
C1739 H1731 0.930 . S
C1739 C1740 1.377 1_565 S
C1739 C1741 1.395 1_655 S
C1740 C1739 1.377 1_545 S
C1740 C1742 1.373 1_655 S
C1741 C1736 1.463 . S
C1741 C1738 1.393 1_455 S
C1741 C1739 1.395 1_455 S
C1742 H1732 0.930 . S
C1742 C1740 1.373 1_455 S
C1742 C1743 1.362 1_545 S
C1743 H1733 0.930 . S
C1743 C1736 1.409 . S
C1743 C1742 1.362 1_565 S
H1744 C1750 0.930 . S
H1745 C1753 0.930 . S
H1746 C1754 0.930 . S
H1747 C1755 0.930 . S
H1748 C1758 0.930 . S
H1749 C1759 0.930 . S
C1750 H1744 0.930 . S
C1750 C1751 1.355 . S
C1750 C1752 1.415 . S
C1751 C1750 1.355 . S
C1751 C1753 1.419 . S
C1752 C1750 1.415 . S
C1752 C1757 1.425 . S
C1752 C1759 1.409 . S
C1753 H1745 0.930 . S
C1753 C1751 1.419 . S
C1753 C1754 1.362 . S
C1754 H1746 0.930 . S
C1754 C1753 1.362 . S
C1754 C1757 1.409 . S
C1755 H1747 0.930 . S
C1755 C1756 1.355 . S
C1755 C1757 1.415 . S
C1756 C1755 1.355 . S
C1756 C1758 1.419 . S
C1757 C1752 1.425 . S
C1757 C1754 1.409 . S
C1757 C1755 1.415 . S
C1758 H1748 0.930 . S
C1758 C1756 1.419 . S
C1758 C1759 1.362 . S
C1759 H1749 0.930 . S
C1759 C1752 1.409 . S
C1759 C1758 1.362 . S
H1760 C1766 0.930 . S
H1761 C1769 0.930 . S
H1762 C1770 0.930 . S
H1763 C1771 0.930 . S
H1764 C1774 0.930 . S
H1765 C1775 0.930 . S
C1766 H1760 0.930 . S
C1766 C1767 1.355 . S
C1766 C1768 1.415 . S
C1767 C1766 1.355 . S
C1767 C1769 1.419 . S
C1768 C1766 1.415 . S
C1768 C1773 1.425 . S
C1768 C1775 1.409 . S
C1769 H1761 0.930 . S
C1769 C1767 1.419 . S
C1769 C1770 1.362 . S
C1770 H1762 0.930 . S
C1770 C1769 1.362 . S
C1770 C1773 1.409 . S
C1771 H1763 0.930 . S
C1771 C1772 1.355 . S
C1771 C1773 1.415 . S
C1772 C1771 1.355 . S
C1772 C1774 1.419 . S
C1773 C1768 1.425 . S
C1773 C1770 1.409 . S
C1773 C1771 1.415 . S
C1774 H1764 0.930 . S
C1774 C1772 1.419 . S
C1774 C1775 1.362 . S
C1775 H1765 0.930 . S
C1775 C1768 1.409 . S
C1775 C1774 1.362 . S
H1776 C1782 0.930 1_556 S
H1777 C1785 0.930 . S
H1778 C1786 0.930 . S
H1779 C1787 0.930 . S
H1780 C1790 0.930 . S
H1781 C1791 0.930 . S
C1782 H1776 0.930 1_554 S
C1782 C1783 1.355 1_454 S
C1782 C1784 1.415 . S
C1783 C1782 1.355 1_656 S
C1783 C1785 1.419 . S
C1784 C1782 1.415 . S
C1784 C1789 1.425 . S
C1784 C1791 1.409 . S
C1785 H1777 0.930 . S
C1785 C1783 1.419 . S
C1785 C1786 1.362 1_656 S
C1786 H1778 0.930 . S
C1786 C1785 1.362 1_454 S
C1786 C1789 1.409 . S
C1787 H1779 0.930 . S
C1787 C1788 1.355 . S
C1787 C1789 1.415 . S
C1788 C1787 1.355 . S
C1788 C1790 1.419 . S
C1789 C1784 1.425 . S
C1789 C1786 1.409 . S
C1789 C1787 1.415 . S
C1790 H1780 0.930 . S
C1790 C1788 1.419 . S
C1790 C1791 1.362 . S
C1791 H1781 0.930 . S
C1791 C1784 1.409 . S
C1791 C1790 1.362 . S
H1792 C1798 0.930 . S
H1793 C1801 0.930 . S
H1794 C1802 0.930 . S
H1795 C1803 0.930 . S
H1796 C1806 0.930 . S
H1797 C1807 0.930 . S
C1798 H1792 0.930 . S
C1798 C1799 1.355 . S
C1798 C1800 1.415 . S
C1799 C1798 1.355 . S
C1799 C1801 1.419 . S
C1800 C1798 1.415 . S
C1800 C1805 1.425 . S
C1800 C1807 1.409 . S
C1801 H1793 0.930 . S
C1801 C1799 1.419 . S
C1801 C1802 1.362 . S
C1802 H1794 0.930 . S
C1802 C1801 1.362 . S
C1802 C1805 1.409 . S
C1803 H1795 0.930 . S
C1803 C1804 1.355 . S
C1803 C1805 1.415 . S
C1804 C1803 1.355 . S
C1804 C1806 1.419 . S
C1805 C1800 1.425 . S
C1805 C1802 1.409 . S
C1805 C1803 1.415 . S
C1806 H1796 0.930 . S
C1806 C1804 1.419 . S
C1806 C1807 1.362 . S
C1807 H1797 0.930 . S
C1807 C1800 1.409 . S
C1807 C1806 1.362 . S
H1808 C1814 0.930 . S
H1809 C1817 0.930 . S
H1810 C1818 0.930 . S
H1811 C1819 0.930 . S
H1812 C1822 0.930 . S
H1813 C1823 0.930 . S
C1814 H1808 0.930 . S
C1814 C1815 1.356 1_554 S
C1814 C1816 1.413 1_455 S
C1815 C1814 1.356 1_556 S
C1815 C1817 1.419 . S
C1816 C1814 1.413 1_655 S
C1816 C1821 1.425 . S
C1816 C1823 1.409 . S
C1817 H1809 0.930 . S
C1817 C1815 1.419 . S
C1817 C1818 1.362 1_455 S
C1818 H1810 0.930 . S
C1818 C1817 1.362 1_655 S
C1818 C1821 1.409 1_556 S
C1819 H1811 0.930 . S
C1819 C1820 1.355 . S
C1819 C1821 1.415 . S
C1820 C1819 1.355 . S
C1820 C1822 1.419 . S
C1821 C1816 1.425 . S
C1821 C1818 1.409 1_554 S
C1821 C1819 1.415 . S
C1822 H1812 0.930 . S
C1822 C1820 1.419 . S
C1822 C1823 1.362 . S
C1823 H1813 0.930 . S
C1823 C1816 1.409 . S
C1823 C1822 1.362 . S
H1824 C1830 0.930 . S
H1825 C1833 0.930 . S
H1826 C1834 0.930 . S
H1827 C1835 0.930 . S
H1828 C1838 0.930 . S
H1829 C1839 0.930 . S
C1830 H1824 0.930 . S
C1830 C1831 1.355 . S
C1830 C1832 1.415 . S
C1831 C1830 1.355 . S
C1831 C1833 1.419 . S
C1832 C1830 1.415 . S
C1832 C1837 1.425 . S
C1832 C1839 1.409 . S
C1833 H1825 0.930 . S
C1833 C1831 1.419 . S
C1833 C1834 1.362 . S
C1834 H1826 0.930 . S
C1834 C1833 1.362 . S
C1834 C1837 1.409 . S
C1835 H1827 0.930 . S
C1835 C1836 1.355 . S
C1835 C1837 1.415 . S
C1836 C1835 1.355 . S
C1836 C1838 1.419 . S
C1837 C1832 1.425 . S
C1837 C1834 1.409 . S
C1837 C1835 1.415 . S
C1838 H1828 0.930 . S
C1838 C1836 1.419 . S
C1838 C1839 1.362 . S
C1839 H1829 0.930 . S
C1839 C1832 1.409 . S
C1839 C1838 1.362 . S
H1840 C1846 0.930 . S
H1841 C1849 0.918 1_655 S
H1842 C1850 0.930 . S
H1843 C1851 0.930 . S
H1844 C1854 0.930 . S
H1845 C1855 0.930 . S
C1846 H1840 0.930 . S
C1846 C1847 1.355 . S
C1846 C1848 1.415 1_655 S
C1847 C1846 1.355 . S
C1847 C1849 1.394 1_655 S
C1848 C1846 1.415 1_455 S
C1848 C1853 1.425 . S
C1848 C1855 1.409 . S
C1849 H1841 0.918 1_455 S
C1849 C1847 1.394 1_455 S
C1849 C1850 1.401 . S
C1850 H1842 0.930 . S
C1850 C1849 1.401 . S
C1850 C1853 1.409 . S
C1851 H1843 0.930 . S
C1851 C1852 1.355 . S
C1851 C1853 1.415 . S
C1852 C1851 1.355 . S
C1852 C1854 1.419 . S
C1853 C1848 1.425 . S
C1853 C1850 1.409 . S
C1853 C1851 1.415 . S
C1854 H1844 0.930 . S
C1854 C1852 1.419 . S
C1854 C1855 1.362 . S
C1855 H1845 0.930 . S
C1855 C1848 1.409 . S
C1855 C1854 1.362 . S
H1856 C1862 0.930 . S
H1857 C1865 0.930 . S
H1858 C1866 0.930 . S
H1859 C1867 0.930 . S
H1860 C1870 0.930 . S
H1861 C1871 0.933 . S
C1862 H1856 0.930 . S
C1862 C1863 1.355 . S
C1862 C1864 1.415 . S
C1863 C1862 1.355 . S
C1863 C1865 1.419 . S
C1864 C1862 1.415 . S
C1864 C1869 1.425 . S
C1864 C1871 1.401 1_556 S
C1865 H1857 0.930 . S
C1865 C1863 1.419 . S
C1865 C1866 1.362 . S
C1866 H1858 0.930 . S
C1866 C1865 1.362 . S
C1866 C1869 1.409 . S
C1867 H1859 0.930 . S
C1867 C1868 1.355 1_556 S
C1867 C1869 1.415 . S
C1868 C1867 1.355 1_554 S
C1868 C1870 1.419 . S
C1869 C1864 1.425 . S
C1869 C1866 1.409 . S
C1869 C1867 1.415 . S
C1870 H1860 0.930 . S
C1870 C1868 1.419 . S
C1870 C1871 1.367 . S
C1871 H1861 0.933 . S
C1871 C1864 1.401 1_554 S
C1871 C1870 1.367 . S
H1872 C1878 0.930 . S
H1873 C1881 0.930 . S
H1874 C1882 0.930 . S
H1875 C1883 0.930 . S
H1876 C1886 0.930 . S
H1877 C1887 0.930 . S
C1878 H1872 0.930 . S
C1878 C1879 1.355 . S
C1878 C1880 1.415 . S
C1879 C1878 1.355 . S
C1879 C1881 1.419 . S
C1880 C1878 1.415 . S
C1880 C1885 1.425 . S
C1880 C1887 1.409 . S
C1881 H1873 0.930 . S
C1881 C1879 1.419 . S
C1881 C1882 1.362 . S
C1882 H1874 0.930 . S
C1882 C1881 1.362 . S
C1882 C1885 1.409 . S
C1883 H1875 0.930 . S
C1883 C1884 1.355 . S
C1883 C1885 1.415 . S
C1884 C1883 1.355 . S
C1884 C1886 1.419 . S
C1885 C1880 1.425 . S
C1885 C1882 1.409 . S
C1885 C1883 1.415 . S
C1886 H1876 0.930 . S
C1886 C1884 1.419 . S
C1886 C1887 1.362 . S
C1887 H1877 0.930 . S
C1887 C1880 1.409 . S
C1887 C1886 1.362 . S
H1888 C1894 0.930 . S
H1889 C1897 0.930 . S
H1890 C1898 0.930 . S
H1891 C1899 0.930 . S
H1892 C1902 0.930 . S
H1893 C1903 0.930 . S
C1894 H1888 0.930 . S
C1894 C1895 1.355 . S
C1894 C1896 1.415 . S
C1895 C1894 1.355 . S
C1895 C1897 1.419 . S
C1896 C1894 1.415 . S
C1896 C1901 1.425 . S
C1896 C1903 1.409 . S
C1897 H1889 0.930 . S
C1897 C1895 1.419 . S
C1897 C1898 1.362 . S
C1898 H1890 0.930 . S
C1898 C1897 1.362 . S
C1898 C1901 1.409 . S
C1899 H1891 0.930 . S
C1899 C1900 1.355 . S
C1899 C1901 1.415 1_556 S
C1900 C1899 1.355 . S
C1900 C1902 1.419 . S
C1901 C1896 1.425 . S
C1901 C1898 1.409 . S
C1901 C1899 1.415 1_554 S
C1902 H1892 0.930 . S
C1902 C1900 1.419 . S
C1902 C1903 1.362 1_556 S
C1903 H1893 0.930 . S
C1903 C1896 1.409 . S
C1903 C1902 1.362 1_554 S
H1904 C1910 0.930 . S
H1905 C1913 0.930 . S
H1906 C1914 0.930 . S
H1907 C1915 0.930 . S
H1908 C1918 0.930 . S
H1909 C1919 0.930 . S
C1910 H1904 0.930 . S
C1910 C1911 1.355 . S
C1910 C1912 1.415 . S
C1911 C1910 1.355 . S
C1911 C1913 1.419 . S
C1912 C1910 1.415 . S
C1912 C1917 1.425 . S
C1912 C1919 1.409 . S
C1913 H1905 0.930 . S
C1913 C1911 1.419 . S
C1913 C1914 1.362 . S
C1914 H1906 0.930 . S
C1914 C1913 1.362 . S
C1914 C1917 1.409 . S
C1915 H1907 0.930 . S
C1915 C1916 1.355 . S
C1915 C1917 1.415 . S
C1916 C1915 1.355 . S
C1916 C1918 1.419 . S
C1917 C1912 1.425 . S
C1917 C1914 1.409 . S
C1917 C1915 1.415 . S
C1918 H1908 0.930 . S
C1918 C1916 1.419 . S
C1918 C1919 1.362 . S
C1919 H1909 0.930 . S
C1919 C1912 1.409 . S
C1919 C1918 1.362 . S
H1920 C1926 0.930 . S
H1921 C1929 0.930 . S
H1922 C1930 0.930 . S
H1923 C1931 0.930 . S
H1924 C1934 0.930 . S
H1925 C1935 0.930 . S
C1926 H1920 0.930 . S
C1926 C1927 1.355 . S
C1926 C1928 1.415 . S
C1927 C1926 1.355 . S
C1927 C1929 1.419 . S
C1928 C1926 1.415 . S
C1928 C1933 1.425 . S
C1928 C1935 1.409 . S
C1929 H1921 0.930 . S
C1929 C1927 1.419 . S
C1929 C1930 1.362 . S
C1930 H1922 0.930 . S
C1930 C1929 1.362 . S
C1930 C1933 1.409 . S
C1931 H1923 0.930 . S
C1931 C1932 1.355 . S
C1931 C1933 1.415 . S
C1932 C1931 1.355 . S
C1932 C1934 1.419 . S
C1933 C1928 1.425 . S
C1933 C1930 1.409 . S
C1933 C1931 1.415 . S
C1934 H1924 0.930 . S
C1934 C1932 1.419 . S
C1934 C1935 1.362 . S
C1935 H1925 0.930 . S
C1935 C1928 1.409 . S
C1935 C1934 1.362 . S
H1936 C1942 0.930 . S
H1937 C1945 0.930 . S
H1938 C1946 0.930 . S
H1939 C1947 0.930 . S
H1940 C1950 0.930 . S
H1941 C1951 0.930 . S
C1942 H1936 0.930 . S
C1942 C1943 1.355 . S
C1942 C1944 1.415 . S
C1943 C1942 1.355 . S
C1943 C1945 1.419 . S
C1944 C1942 1.415 . S
C1944 C1949 1.425 . S
C1944 C1951 1.409 . S
C1945 H1937 0.930 . S
C1945 C1943 1.419 . S
C1945 C1946 1.362 . S
C1946 H1938 0.930 . S
C1946 C1945 1.362 . S
C1946 C1949 1.409 . S
C1947 H1939 0.930 . S
C1947 C1948 1.355 . S
C1947 C1949 1.415 . S
C1948 C1947 1.355 . S
C1948 C1950 1.419 . S
C1949 C1944 1.425 . S
C1949 C1946 1.409 . S
C1949 C1947 1.415 . S
C1950 H1940 0.930 . S
C1950 C1948 1.419 . S
C1950 C1951 1.362 . S
C1951 H1941 0.930 . S
C1951 C1944 1.409 . S
C1951 C1950 1.362 . S
H1952 C1958 0.930 . S
H1953 C1961 0.930 . S
H1954 C1962 0.930 . S
H1955 C1963 0.930 . S
H1956 C1966 0.941 . S
H1957 C1967 0.930 . S
C1958 H1952 0.930 . S
C1958 C1959 1.355 . S
C1958 C1960 1.415 . S
C1959 C1958 1.355 . S
C1959 C1961 1.419 . S
C1960 C1958 1.415 . S
C1960 C1965 1.425 . S
C1960 C1967 1.409 . S
C1961 H1953 0.930 . S
C1961 C1959 1.419 . S
C1961 C1962 1.362 . S
C1962 H1954 0.930 . S
C1962 C1961 1.362 . S
C1962 C1965 1.409 . S
C1963 H1955 0.930 . S
C1963 C1964 1.355 . S
C1963 C1965 1.415 1_554 S
C1964 C1963 1.355 . S
C1964 C1966 1.436 . S
C1965 C1960 1.425 . S
C1965 C1962 1.409 . S
C1965 C1963 1.415 1_556 S
C1966 H1956 0.941 . S
C1966 C1964 1.436 . S
C1966 C1967 1.335 1_554 S
C1967 H1957 0.930 . S
C1967 C1960 1.409 . S
C1967 C1966 1.335 1_556 S
H1968 C1974 0.930 . S
H1969 C1977 0.930 . S
H1970 C1978 0.930 . S
H1971 C1979 0.930 . S
H1972 C1982 0.930 . S
H1973 C1983 0.930 . S
C1974 H1968 0.930 . S
C1974 C1975 1.355 . S
C1974 C1976 1.415 . S
C1975 C1974 1.355 . S
C1975 C1977 1.419 . S
C1976 C1974 1.415 . S
C1976 C1981 1.425 . S
C1976 C1983 1.409 . S
C1977 H1969 0.930 . S
C1977 C1975 1.419 . S
C1977 C1978 1.362 . S
C1978 H1970 0.930 . S
C1978 C1977 1.362 . S
C1978 C1981 1.409 . S
C1979 H1971 0.930 . S
C1979 C1980 1.355 . S
C1979 C1981 1.415 . S
C1980 C1979 1.355 . S
C1980 C1982 1.419 . S
C1981 C1976 1.425 . S
C1981 C1978 1.409 . S
C1981 C1979 1.415 . S
C1982 H1972 0.930 . S
C1982 C1980 1.419 . S
C1982 C1983 1.362 . S
C1983 H1973 0.930 . S
C1983 C1976 1.409 . S
C1983 C1982 1.362 . S
H1984 C1990 0.930 . S
H1985 C1993 0.930 . S
H1986 C1994 0.930 . S
H1987 C1995 0.930 . S
H1988 C1998 0.930 . S
H1989 C1999 0.930 . S
C1990 H1984 0.930 . S
C1990 C1991 1.355 . S
C1990 C1992 1.415 . S
C1991 C1990 1.355 . S
C1991 C1993 1.419 . S
C1992 C1990 1.415 . S
C1992 C1997 1.425 . S
C1992 C1999 1.409 . S
C1993 H1985 0.930 . S
C1993 C1991 1.419 . S
C1993 C1994 1.362 . S
C1994 H1986 0.930 . S
C1994 C1993 1.362 . S
C1994 C1997 1.409 . S
C1995 H1987 0.930 . S
C1995 C1996 1.355 . S
C1995 C1997 1.415 . S
C1996 C1995 1.355 . S
C1996 C1998 1.419 . S
C1997 C1992 1.425 . S
C1997 C1994 1.409 . S
C1997 C1995 1.415 . S
C1998 H1988 0.930 . S
C1998 C1996 1.419 . S
C1998 C1999 1.362 . S
C1999 H1989 0.930 . S
C1999 C1992 1.409 . S
C1999 C1998 1.362 . S
H2000 C2006 0.930 . S
H2001 C2009 0.930 . S
H2002 C2010 0.930 . S
H2003 C2011 0.930 . S
H2004 C2014 0.930 . S
H2005 C2015 0.930 . S
C2006 H2000 0.930 . S
C2006 C2007 1.355 . S
C2006 C2008 1.415 . S
C2007 C2006 1.355 . S
C2007 C2009 1.419 . S
C2008 C2006 1.415 . S
C2008 C2013 1.425 . S
C2008 C2015 1.409 . S
C2009 H2001 0.930 . S
C2009 C2007 1.419 . S
C2009 C2010 1.362 . S
C2010 H2002 0.930 . S
C2010 C2009 1.362 . S
C2010 C2013 1.409 . S
C2011 H2003 0.930 . S
C2011 C2012 1.355 . S
C2011 C2013 1.415 . S
C2012 C2011 1.355 . S
C2012 C2014 1.419 . S
C2013 C2008 1.425 . S
C2013 C2010 1.409 . S
C2013 C2011 1.415 . S
C2014 H2004 0.930 . S
C2014 C2012 1.419 . S
C2014 C2015 1.362 . S
C2015 H2005 0.930 . S
C2015 C2008 1.409 . S
C2015 C2014 1.362 . S
H2016 C2022 0.930 . S
H2017 C2025 0.930 . S
H2018 C2026 0.930 . S
H2019 C2027 0.930 . S
H2020 C2030 0.930 . S
H2021 C2031 0.930 . S
C2022 H2016 0.930 . S
C2022 C2023 1.355 . S
C2022 C2024 1.415 . S
C2023 C2022 1.355 . S
C2023 C2025 1.419 . S
C2024 C2022 1.415 . S
C2024 C2029 1.425 . S
C2024 C2031 1.409 . S
C2025 H2017 0.930 . S
C2025 C2023 1.419 . S
C2025 C2026 1.362 . S
C2026 H2018 0.930 . S
C2026 C2025 1.362 . S
C2026 C2029 1.409 . S
C2027 H2019 0.930 . S
C2027 C2028 1.355 . S
C2027 C2029 1.415 . S
C2028 C2027 1.355 . S
C2028 C2030 1.419 . S
C2029 C2024 1.425 . S
C2029 C2026 1.409 . S
C2029 C2027 1.415 . S
C2030 H2020 0.930 . S
C2030 C2028 1.419 . S
C2030 C2031 1.362 . S
C2031 H2021 0.930 . S
C2031 C2024 1.409 . S
C2031 C2030 1.362 . S
H2032 C2038 0.930 . S
H2033 C2041 0.930 . S
H2034 C2042 0.930 . S
H2035 C2043 0.930 . S
H2036 C2046 0.930 . S
H2037 C2047 0.930 . S
C2038 H2032 0.930 . S
C2038 C2039 1.355 . S
C2038 C2040 1.415 . S
C2039 C2038 1.355 . S
C2039 C2041 1.419 . S
C2040 C2038 1.415 . S
C2040 C2045 1.425 . S
C2040 C2047 1.409 . S
C2041 H2033 0.930 . S
C2041 C2039 1.419 . S
C2041 C2042 1.362 . S
C2042 H2034 0.930 . S
C2042 C2041 1.362 . S
C2042 C2045 1.409 . S
C2043 H2035 0.930 . S
C2043 C2044 1.355 . S
C2043 C2045 1.415 . S
C2044 C2043 1.355 . S
C2044 C2046 1.419 . S
C2045 C2040 1.425 . S
C2045 C2042 1.409 . S
C2045 C2043 1.415 . S
C2046 H2036 0.930 . S
C2046 C2044 1.419 . S
C2046 C2047 1.362 . S
C2047 H2037 0.930 . S
C2047 C2040 1.409 . S
C2047 C2046 1.362 . S
H2048 C2054 0.930 . S
H2049 C2057 0.930 . S
H2050 C2058 0.930 . S
H2051 C2059 0.930 . S
H2052 C2062 0.948 . S
H2053 C2063 0.930 . S
C2054 H2048 0.930 . S
C2054 C2055 1.355 . S
C2054 C2056 1.415 1_455 S
C2055 C2054 1.355 . S
C2055 C2057 1.419 1_455 S
C2056 C2054 1.415 1_655 S
C2056 C2061 1.425 . S
C2056 C2063 1.409 1_655 S
C2057 H2049 0.930 . S
C2057 C2055 1.419 1_655 S
C2057 C2058 1.362 . S
C2058 H2050 0.930 . S
C2058 C2057 1.362 . S
C2058 C2061 1.409 . S
C2059 H2051 0.930 . S
C2059 C2060 1.355 . S
C2059 C2061 1.415 . S
C2060 C2059 1.355 . S
C2060 C2062 1.419 . S
C2061 C2056 1.425 . S
C2061 C2058 1.409 . S
C2061 C2059 1.415 . S
C2062 H2052 0.948 . S
C2062 C2060 1.419 . S
C2062 C2063 1.362 1_655 S
C2063 H2053 0.930 . S
C2063 C2056 1.409 1_455 S
C2063 C2062 1.362 1_455 S
H2064 C2070 0.930 . S
H2065 C2073 0.930 . S
H2066 C2074 0.930 . S
H2067 C2075 0.930 . S
H2068 C2078 0.930 . S
H2069 C2079 0.930 . S
C2070 H2064 0.930 . S
C2070 C2071 1.355 . S
C2070 C2072 1.415 . S
C2071 C2070 1.355 . S
C2071 C2073 1.419 . S
C2072 C2070 1.415 . S
C2072 C2077 1.425 . S
C2072 C2079 1.409 . S
C2073 H2065 0.930 . S
C2073 C2071 1.419 . S
C2073 C2074 1.362 . S
C2074 H2066 0.930 . S
C2074 C2073 1.362 . S
C2074 C2077 1.409 . S
C2075 H2067 0.930 . S
C2075 C2076 1.355 . S
C2075 C2077 1.415 . S
C2076 C2075 1.355 . S
C2076 C2078 1.419 . S
C2077 C2072 1.425 . S
C2077 C2074 1.409 . S
C2077 C2075 1.415 . S
C2078 H2068 0.930 . S
C2078 C2076 1.419 . S
C2078 C2079 1.362 . S
C2079 H2069 0.930 . S
C2079 C2072 1.409 . S
C2079 C2078 1.362 . S
H2080 C2086 0.930 . S
H2081 C2089 0.930 . S
H2082 C2090 0.930 . S
H2083 C2091 0.930 . S
H2084 C2094 0.930 . S
H2085 C2095 0.930 . S
C2086 H2080 0.930 . S
C2086 C2087 1.355 . S
C2086 C2088 1.415 . S
C2087 C2086 1.355 . S
C2087 C2089 1.419 . S
C2088 C2086 1.415 . S
C2088 C2093 1.425 . S
C2088 C2095 1.409 1_655 S
C2089 H2081 0.930 . S
C2089 C2087 1.419 . S
C2089 C2090 1.362 . S
C2090 H2082 0.930 . S
C2090 C2089 1.362 . S
C2090 C2093 1.409 . S
C2091 H2083 0.930 . S
C2091 C2092 1.355 1_655 S
C2091 C2093 1.415 . S
C2092 C2091 1.355 1_455 S
C2092 C2094 1.419 . S
C2093 C2088 1.425 . S
C2093 C2090 1.409 . S
C2093 C2091 1.415 . S
C2094 H2084 0.930 . S
C2094 C2092 1.419 . S
C2094 C2095 1.362 . S
C2095 H2085 0.930 . S
C2095 C2088 1.409 1_455 S
C2095 C2094 1.362 . S
H2096 C2102 0.930 . S
H2097 C2105 0.930 . S
H2098 C2106 0.930 . S
H2099 C2107 0.930 . S
H2100 C2110 0.930 . S
H2101 C2111 0.930 . S
C2102 H2096 0.930 . S
C2102 C2103 1.355 . S
C2102 C2104 1.415 . S
C2103 C2102 1.355 . S
C2103 C2105 1.419 . S
C2104 C2102 1.415 . S
C2104 C2109 1.425 . S
C2104 C2111 1.409 . S
C2105 H2097 0.930 . S
C2105 C2103 1.419 . S
C2105 C2106 1.362 . S
C2106 H2098 0.930 . S
C2106 C2105 1.362 . S
C2106 C2109 1.409 . S
C2107 H2099 0.930 . S
C2107 C2108 1.355 . S
C2107 C2109 1.415 . S
C2108 C2107 1.355 . S
C2108 C2110 1.419 . S
C2109 C2104 1.425 . S
C2109 C2106 1.409 . S
C2109 C2107 1.415 . S
C2110 H2100 0.930 . S
C2110 C2108 1.419 . S
C2110 C2111 1.362 . S
C2111 H2101 0.930 . S
C2111 C2104 1.409 . S
C2111 C2110 1.362 . S
H2112 C2118 0.930 . S
H2113 C2121 0.930 . S
H2114 C2122 0.930 . S
H2115 C2123 0.930 . S
H2116 C2126 0.930 . S
H2117 C2127 0.930 . S
C2118 H2112 0.930 . S
C2118 C2119 1.355 . S
C2118 C2120 1.415 . S
C2119 C2118 1.355 . S
C2119 C2121 1.419 . S
C2120 C2118 1.415 . S
C2120 C2125 1.425 . S
C2120 C2127 1.409 . S
C2121 H2113 0.930 . S
C2121 C2119 1.419 . S
C2121 C2122 1.362 . S
C2122 H2114 0.930 . S
C2122 C2121 1.362 . S
C2122 C2125 1.409 . S
C2123 H2115 0.930 . S
C2123 C2124 1.355 . S
C2123 C2125 1.415 . S
C2124 C2123 1.355 . S
C2124 C2126 1.419 . S
C2125 C2120 1.425 . S
C2125 C2122 1.409 . S
C2125 C2123 1.415 . S
C2126 H2116 0.930 . S
C2126 C2124 1.419 . S
C2126 C2127 1.362 . S
C2127 H2117 0.930 . S
C2127 C2120 1.409 . S
C2127 C2126 1.362 . S
H2128 C2134 0.930 . S
H2129 C2137 0.930 . S
H2130 C2138 0.930 . S
H2131 C2139 0.930 . S
H2132 C2142 0.930 . S
H2133 C2143 0.930 . S
C2134 H2128 0.930 . S
C2134 C2135 1.355 . S
C2134 C2136 1.415 . S
C2135 C2134 1.355 . S
C2135 C2137 1.419 . S
C2136 C2134 1.415 . S
C2136 C2141 1.425 . S
C2136 C2143 1.409 . S
C2137 H2129 0.930 . S
C2137 C2135 1.419 . S
C2137 C2138 1.362 . S
C2138 H2130 0.930 . S
C2138 C2137 1.362 . S
C2138 C2141 1.409 . S
C2139 H2131 0.930 . S
C2139 C2140 1.355 . S
C2139 C2141 1.415 . S
C2140 C2139 1.355 . S
C2140 C2142 1.419 . S
C2141 C2136 1.425 . S
C2141 C2138 1.409 . S
C2141 C2139 1.415 . S
C2142 H2132 0.930 . S
C2142 C2140 1.419 . S
C2142 C2143 1.362 . S
C2143 H2133 0.930 . S
C2143 C2136 1.409 . S
C2143 C2142 1.362 . S
H2144 C2150 0.930 . S
H2145 C2153 0.930 . S
H2146 C2154 0.930 . S
H2147 C2155 0.930 . S
H2148 C2158 0.930 . S
H2149 C2159 0.930 . S
C2150 H2144 0.930 . S
C2150 C2151 1.355 . S
C2150 C2152 1.415 . S
C2151 C2150 1.355 . S
C2151 C2153 1.419 . S
C2152 C2150 1.415 . S
C2152 C2157 1.425 . S
C2152 C2159 1.409 . S
C2153 H2145 0.930 . S
C2153 C2151 1.419 . S
C2153 C2154 1.362 . S
C2154 H2146 0.930 . S
C2154 C2153 1.362 . S
C2154 C2157 1.409 . S
C2155 H2147 0.930 . S
C2155 C2156 1.355 . S
C2155 C2157 1.415 . S
C2156 C2155 1.355 . S
C2156 C2158 1.419 . S
C2157 C2152 1.425 . S
C2157 C2154 1.409 . S
C2157 C2155 1.415 . S
C2158 H2148 0.930 . S
C2158 C2156 1.419 . S
C2158 C2159 1.362 . S
C2159 H2149 0.930 . S
C2159 C2152 1.409 . S
C2159 C2158 1.362 . S
H2160 C2166 0.930 . S
H2161 C2169 0.930 . S
H2162 C2170 0.930 . S
H2163 C2171 0.930 . S
H2164 C2174 0.930 . S
H2165 C2175 0.930 . S
C2166 H2160 0.930 . S
C2166 C2167 1.355 . S
C2166 C2168 1.415 . S
C2167 C2166 1.355 . S
C2167 C2169 1.419 . S
C2168 C2166 1.415 . S
C2168 C2173 1.425 . S
C2168 C2175 1.409 . S
C2169 H2161 0.930 . S
C2169 C2167 1.419 . S
C2169 C2170 1.362 . S
C2170 H2162 0.930 . S
C2170 C2169 1.362 . S
C2170 C2173 1.409 . S
C2171 H2163 0.930 . S
C2171 C2172 1.355 . S
C2171 C2173 1.415 . S
C2172 C2171 1.355 . S
C2172 C2174 1.419 . S
C2173 C2168 1.425 . S
C2173 C2170 1.409 . S
C2173 C2171 1.415 . S
C2174 H2164 0.930 . S
C2174 C2172 1.419 . S
C2174 C2175 1.362 . S
C2175 H2165 0.930 . S
C2175 C2168 1.409 . S
C2175 C2174 1.362 . S
H2176 C2182 0.930 . S
H2177 C2185 0.930 . S
H2178 C2186 0.930 . S
H2179 C2187 0.930 . S
H2180 C2190 0.930 . S
H2181 C2191 0.930 . S
C2182 H2176 0.930 . S
C2182 C2183 1.355 . S
C2182 C2184 1.415 . S
C2183 C2182 1.355 . S
C2183 C2185 1.419 . S
C2184 C2182 1.415 . S
C2184 C2189 1.425 . S
C2184 C2191 1.409 . S
C2185 H2177 0.930 . S
C2185 C2183 1.419 . S
C2185 C2186 1.362 . S
C2186 H2178 0.930 . S
C2186 C2185 1.362 . S
C2186 C2189 1.409 . S
C2187 H2179 0.930 . S
C2187 C2188 1.355 . S
C2187 C2189 1.415 . S
C2188 C2187 1.355 . S
C2188 C2190 1.419 . S
C2189 C2184 1.425 . S
C2189 C2186 1.409 . S
C2189 C2187 1.415 . S
C2190 H2180 0.930 . S
C2190 C2188 1.419 . S
C2190 C2191 1.362 . S
C2191 H2181 0.930 . S
C2191 C2184 1.409 . S
C2191 C2190 1.362 . S
H2192 C2198 0.930 . S
H2193 C2201 0.930 . S
H2194 C2202 0.930 . S
H2195 C2203 0.930 . S
H2196 C2206 0.930 . S
H2197 C2207 0.930 . S
C2198 H2192 0.930 . S
C2198 C2199 1.355 . S
C2198 C2200 1.415 . S
C2199 C2198 1.355 . S
C2199 C2201 1.419 . S
C2200 C2198 1.415 . S
C2200 C2205 1.425 . S
C2200 C2207 1.409 . S
C2201 H2193 0.930 . S
C2201 C2199 1.419 . S
C2201 C2202 1.362 . S
C2202 H2194 0.930 . S
C2202 C2201 1.362 . S
C2202 C2205 1.409 . S
C2203 H2195 0.930 . S
C2203 C2204 1.355 . S
C2203 C2205 1.415 . S
C2204 C2203 1.355 . S
C2204 C2206 1.419 . S
C2205 C2200 1.425 . S
C2205 C2202 1.409 . S
C2205 C2203 1.415 . S
C2206 H2196 0.930 . S
C2206 C2204 1.419 . S
C2206 C2207 1.362 . S
C2207 H2197 0.930 . S
C2207 C2200 1.409 . S
C2207 C2206 1.362 . S
H2208 C2214 0.930 . S
H2209 C2217 0.930 . S
H2210 C2218 0.930 . S
H2211 C2219 0.930 . S
H2212 C2222 0.930 . S
H2213 C2223 0.930 . S
C2214 H2208 0.930 . S
C2214 C2215 1.355 . S
C2214 C2216 1.415 . S
C2215 C2214 1.355 . S
C2215 C2217 1.419 . S
C2216 C2214 1.415 . S
C2216 C2221 1.425 . S
C2216 C2223 1.409 . S
C2217 H2209 0.930 . S
C2217 C2215 1.419 . S
C2217 C2218 1.362 . S
C2218 H2210 0.930 . S
C2218 C2217 1.362 . S
C2218 C2221 1.409 . S
C2219 H2211 0.930 . S
C2219 C2220 1.355 . S
C2219 C2221 1.415 . S
C2220 C2219 1.355 . S
C2220 C2222 1.419 . S
C2221 C2216 1.425 . S
C2221 C2218 1.409 . S
C2221 C2219 1.415 . S
C2222 H2212 0.930 . S
C2222 C2220 1.419 . S
C2222 C2223 1.362 . S
C2223 H2213 0.930 . S
C2223 C2216 1.409 . S
C2223 C2222 1.362 . S
H2224 C2230 0.930 1_554 S
H2225 C2233 0.924 1_554 S
H2226 C2234 0.930 . S
H2227 C2235 0.930 . S
H2228 C2238 0.930 . S
H2229 C2239 0.930 . S
C2230 H2224 0.930 1_556 S
C2230 C2231 1.355 1_556 S
C2230 C2232 1.415 . S
C2231 C2230 1.355 1_554 S
C2231 C2233 1.414 1_554 S
C2232 C2230 1.415 . S
C2232 C2237 1.425 . S
C2232 C2239 1.409 . S
C2233 H2225 0.924 1_556 S
C2233 C2231 1.414 1_556 S
C2233 C2234 1.375 . S
C2234 H2226 0.930 . S
C2234 C2233 1.375 . S
C2234 C2237 1.409 . S
C2235 H2227 0.930 . S
C2235 C2236 1.355 . S
C2235 C2237 1.415 . S
C2236 C2235 1.355 . S
C2236 C2238 1.419 . S
C2237 C2232 1.425 . S
C2237 C2234 1.409 . S
C2237 C2235 1.415 . S
C2238 H2228 0.930 . S
C2238 C2236 1.419 . S
C2238 C2239 1.362 . S
C2239 H2229 0.930 . S
C2239 C2232 1.409 . S
C2239 C2238 1.362 . S
H2240 C2246 0.930 . S
H2241 C2249 0.930 . S
H2242 C2250 0.930 . S
H2243 C2251 0.930 . S
H2244 C2254 0.930 . S
H2245 C2255 0.930 . S
C2246 H2240 0.930 . S
C2246 C2247 1.355 1_655 S
C2246 C2248 1.415 . S
C2247 C2246 1.355 1_455 S
C2247 C2249 1.419 . S
C2248 C2246 1.415 . S
C2248 C2253 1.425 . S
C2248 C2255 1.409 . S
C2249 H2241 0.930 . S
C2249 C2247 1.419 . S
C2249 C2250 1.362 . S
C2250 H2242 0.930 . S
C2250 C2249 1.362 . S
C2250 C2253 1.409 1_455 S
C2251 H2243 0.930 . S
C2251 C2252 1.355 . S
C2251 C2253 1.415 . S
C2252 C2251 1.355 . S
C2252 C2254 1.419 . S
C2253 C2248 1.425 . S
C2253 C2250 1.409 1_655 S
C2253 C2251 1.415 . S
C2254 H2244 0.930 . S
C2254 C2252 1.419 . S
C2254 C2255 1.362 . S
C2255 H2245 0.930 . S
C2255 C2248 1.409 . S
C2255 C2254 1.362 . S
H2256 C2262 0.930 . S
H2257 C2265 0.930 . S
H2258 C2266 0.930 . S
H2259 C2267 0.930 . S
H2260 C2270 0.930 . S
H2261 C2271 0.930 . S
C2262 H2256 0.930 . S
C2262 C2263 1.355 . S
C2262 C2264 1.415 . S
C2263 C2262 1.355 . S
C2263 C2265 1.419 . S
C2264 C2262 1.415 . S
C2264 C2269 1.425 . S
C2264 C2271 1.409 . S
C2265 H2257 0.930 . S
C2265 C2263 1.419 . S
C2265 C2266 1.362 . S
C2266 H2258 0.930 . S
C2266 C2265 1.362 . S
C2266 C2269 1.409 . S
C2267 H2259 0.930 . S
C2267 C2268 1.355 . S
C2267 C2269 1.415 . S
C2268 C2267 1.355 . S
C2268 C2270 1.419 . S
C2269 C2264 1.425 . S
C2269 C2266 1.409 . S
C2269 C2267 1.415 . S
C2270 H2260 0.930 . S
C2270 C2268 1.419 . S
C2270 C2271 1.362 . S
C2271 H2261 0.930 . S
C2271 C2264 1.409 . S
C2271 C2270 1.362 . S
H2272 C2278 0.930 . S
H2273 C2281 0.930 . S
H2274 C2282 0.930 . S
H2275 C2283 0.930 . S
H2276 C2286 0.930 . S
H2277 C2287 0.930 . S
C2278 H2272 0.930 . S
C2278 C2279 1.355 . S
C2278 C2280 1.415 . S
C2279 C2278 1.355 . S
C2279 C2281 1.419 . S
C2280 C2278 1.415 . S
C2280 C2285 1.425 . S
C2280 C2287 1.409 . S
C2281 H2273 0.930 . S
C2281 C2279 1.419 . S
C2281 C2282 1.362 . S
C2282 H2274 0.930 . S
C2282 C2281 1.362 . S
C2282 C2285 1.409 . S
C2283 H2275 0.930 . S
C2283 C2284 1.355 . S
C2283 C2285 1.415 . S
C2284 C2283 1.355 . S
C2284 C2286 1.419 . S
C2285 C2280 1.425 . S
C2285 C2282 1.409 . S
C2285 C2283 1.415 . S
C2286 H2276 0.930 . S
C2286 C2284 1.419 . S
C2286 C2287 1.362 . S
C2287 H2277 0.930 . S
C2287 C2280 1.409 . S
C2287 C2286 1.362 . S
H2288 C2294 0.930 . S
H2289 C2297 0.930 . S
H2290 C2298 0.930 . S
H2291 C2299 0.930 . S
H2292 C2302 0.930 . S
H2293 C2303 0.930 . S
C2294 H2288 0.930 . S
C2294 C2295 1.355 . S
C2294 C2296 1.415 . S
C2295 C2294 1.355 . S
C2295 C2297 1.419 . S
C2296 C2294 1.415 . S
C2296 C2301 1.425 . S
C2296 C2303 1.409 . S
C2297 H2289 0.930 . S
C2297 C2295 1.419 . S
C2297 C2298 1.362 . S
C2298 H2290 0.930 . S
C2298 C2297 1.362 . S
C2298 C2301 1.409 . S
C2299 H2291 0.930 . S
C2299 C2300 1.355 . S
C2299 C2301 1.415 . S
C2300 C2299 1.355 . S
C2300 C2302 1.419 . S
C2301 C2296 1.425 . S
C2301 C2298 1.409 . S
C2301 C2299 1.415 . S
C2302 H2292 0.930 . S
C2302 C2300 1.419 . S
C2302 C2303 1.362 . S
C2303 H2293 0.930 . S
C2303 C2296 1.409 . S
C2303 C2302 1.362 . S
H2304 C2310 0.930 . S
H2305 C2313 0.930 . S
H2306 C2314 0.930 . S
H2307 C2315 0.930 . S
H2308 C2318 0.930 . S
H2309 C2319 0.930 . S
C2310 H2304 0.930 . S
C2310 C2311 1.355 . S
C2310 C2312 1.415 . S
C2311 C2310 1.355 . S
C2311 C2313 1.419 . S
C2312 C2310 1.415 . S
C2312 C2317 1.425 . S
C2312 C2319 1.409 . S
C2313 H2305 0.930 . S
C2313 C2311 1.419 . S
C2313 C2314 1.362 . S
C2314 H2306 0.930 . S
C2314 C2313 1.362 . S
C2314 C2317 1.409 . S
C2315 H2307 0.930 . S
C2315 C2316 1.355 . S
C2315 C2317 1.415 . S
C2316 C2315 1.355 . S
C2316 C2318 1.419 . S
C2317 C2312 1.425 . S
C2317 C2314 1.409 . S
C2317 C2315 1.415 . S
C2318 H2308 0.930 . S
C2318 C2316 1.419 . S
C2318 C2319 1.362 . S
C2319 H2309 0.930 . S
C2319 C2312 1.409 . S
C2319 C2318 1.362 . S
H2320 C2326 0.930 . S
H2321 C2329 0.930 . S
H2322 C2330 0.930 . S
H2323 C2331 0.930 . S
H2324 C2334 0.930 . S
H2325 C2335 0.930 . S
C2326 H2320 0.930 . S
C2326 C2327 1.355 . S
C2326 C2328 1.415 . S
C2327 C2326 1.355 . S
C2327 C2329 1.419 . S
C2328 C2326 1.415 . S
C2328 C2333 1.425 . S
C2328 C2335 1.409 . S
C2329 H2321 0.930 . S
C2329 C2327 1.419 . S
C2329 C2330 1.362 . S
C2330 H2322 0.930 . S
C2330 C2329 1.362 . S
C2330 C2333 1.409 . S
C2331 H2323 0.930 . S
C2331 C2332 1.355 . S
C2331 C2333 1.415 . S
C2332 C2331 1.355 . S
C2332 C2334 1.419 . S
C2333 C2328 1.425 . S
C2333 C2330 1.409 . S
C2333 C2331 1.415 . S
C2334 H2324 0.930 . S
C2334 C2332 1.419 . S
C2334 C2335 1.362 . S
C2335 H2325 0.930 . S
C2335 C2328 1.409 . S
C2335 C2334 1.362 . S
H2336 C2342 0.930 . S
H2337 C2345 0.930 . S
H2338 C2346 0.930 . S
H2339 C2347 0.930 . S
H2340 C2350 0.930 . S
H2341 C2351 0.930 . S
C2342 H2336 0.930 . S
C2342 C2343 1.355 . S
C2342 C2344 1.415 . S
C2343 C2342 1.355 . S
C2343 C2345 1.419 . S
C2344 C2342 1.415 . S
C2344 C2349 1.425 . S
C2344 C2351 1.409 . S
C2345 H2337 0.930 . S
C2345 C2343 1.419 . S
C2345 C2346 1.362 . S
C2346 H2338 0.930 . S
C2346 C2345 1.362 . S
C2346 C2349 1.409 . S
C2347 H2339 0.930 . S
C2347 C2348 1.355 . S
C2347 C2349 1.415 . S
C2348 C2347 1.355 . S
C2348 C2350 1.419 . S
C2349 C2344 1.425 . S
C2349 C2346 1.409 . S
C2349 C2347 1.415 . S
C2350 H2340 0.930 . S
C2350 C2348 1.419 . S
C2350 C2351 1.362 . S
C2351 H2341 0.930 . S
C2351 C2344 1.409 . S
C2351 C2350 1.362 . S
H2352 C2358 0.930 . S
H2353 C2361 0.930 . S
H2354 C2362 0.930 . S
H2355 C2363 0.930 . S
H2356 C2366 0.930 . S
H2357 C2367 0.930 . S
C2358 H2352 0.930 . S
C2358 C2359 1.355 . S
C2358 C2360 1.415 . S
C2359 C2358 1.355 . S
C2359 C2361 1.419 . S
C2360 C2358 1.415 . S
C2360 C2365 1.425 . S
C2360 C2367 1.409 . S
C2361 H2353 0.930 . S
C2361 C2359 1.419 . S
C2361 C2362 1.362 . S
C2362 H2354 0.930 . S
C2362 C2361 1.362 . S
C2362 C2365 1.409 . S
C2363 H2355 0.930 . S
C2363 C2364 1.355 . S
C2363 C2365 1.415 . S
C2364 C2363 1.355 . S
C2364 C2366 1.419 . S
C2365 C2360 1.425 . S
C2365 C2362 1.409 . S
C2365 C2363 1.415 . S
C2366 H2356 0.930 . S
C2366 C2364 1.419 . S
C2366 C2367 1.362 . S
C2367 H2357 0.930 . S
C2367 C2360 1.409 . S
C2367 C2366 1.362 . S
H2368 C2374 0.930 . S
H2369 C2377 0.930 . S
H2370 C2378 0.930 . S
H2371 C2379 0.930 . S
H2372 C2382 0.930 . S
H2373 C2383 0.930 . S
C2374 H2368 0.930 . S
C2374 C2375 1.355 . S
C2374 C2376 1.415 . S
C2375 C2374 1.355 . S
C2375 C2377 1.419 . S
C2376 C2374 1.415 . S
C2376 C2381 1.425 . S
C2376 C2383 1.409 . S
C2377 H2369 0.930 . S
C2377 C2375 1.419 . S
C2377 C2378 1.362 . S
C2378 H2370 0.930 . S
C2378 C2377 1.362 . S
C2378 C2381 1.409 . S
C2379 H2371 0.930 . S
C2379 C2380 1.355 . S
C2379 C2381 1.415 . S
C2380 C2379 1.355 . S
C2380 C2382 1.419 . S
C2381 C2376 1.425 . S
C2381 C2378 1.409 . S
C2381 C2379 1.415 . S
C2382 H2372 0.930 . S
C2382 C2380 1.419 . S
C2382 C2383 1.362 . S
C2383 H2373 0.930 . S
C2383 C2376 1.409 . S
C2383 C2382 1.362 . S
H2384 C2390 0.930 . S
H2385 C2393 0.930 . S
H2386 C2394 0.930 . S
H2387 C2395 0.930 . S
H2388 C2398 0.930 . S
H2389 C2399 0.930 . S
C2390 H2384 0.930 . S
C2390 C2391 1.355 . S
C2390 C2392 1.415 . S
C2391 C2390 1.355 . S
C2391 C2393 1.419 . S
C2392 C2390 1.415 . S
C2392 C2397 1.425 . S
C2392 C2399 1.409 . S
C2393 H2385 0.930 . S
C2393 C2391 1.419 . S
C2393 C2394 1.362 . S
C2394 H2386 0.930 . S
C2394 C2393 1.362 . S
C2394 C2397 1.409 . S
C2395 H2387 0.930 . S
C2395 C2396 1.355 . S
C2395 C2397 1.415 . S
C2396 C2395 1.355 . S
C2396 C2398 1.419 . S
C2397 C2392 1.425 . S
C2397 C2394 1.409 . S
C2397 C2395 1.415 . S
C2398 H2388 0.930 . S
C2398 C2396 1.419 . S
C2398 C2399 1.362 . S
C2399 H2389 0.930 . S
C2399 C2392 1.409 . S
C2399 C2398 1.362 . S
H2400 C2406 0.930 . S
H2401 C2409 0.930 . S
H2402 C2410 0.930 . S
H2403 C2411 0.930 . S
H2404 C2414 0.930 . S
H2405 C2415 0.930 . S
C2406 H2400 0.930 . S
C2406 C2407 1.355 . S
C2406 C2408 1.415 . S
C2407 C2406 1.355 . S
C2407 C2409 1.419 . S
C2408 C2406 1.415 . S
C2408 C2413 1.425 . S
C2408 C2415 1.409 . S
C2409 H2401 0.930 . S
C2409 C2407 1.419 . S
C2409 C2410 1.362 . S
C2410 H2402 0.930 . S
C2410 C2409 1.362 . S
C2410 C2413 1.409 . S
C2411 H2403 0.930 . S
C2411 C2412 1.355 . S
C2411 C2413 1.415 . S
C2412 C2411 1.355 . S
C2412 C2414 1.419 . S
C2413 C2408 1.425 . S
C2413 C2410 1.409 . S
C2413 C2411 1.415 . S
C2414 H2404 0.930 . S
C2414 C2412 1.419 . S
C2414 C2415 1.362 . S
C2415 H2405 0.930 . S
C2415 C2408 1.409 . S
C2415 C2414 1.362 . S
H2416 C2422 0.930 . S
H2417 C2425 0.930 . S
H2418 C2426 0.930 . S
H2419 C2427 0.930 . S
H2420 C2430 0.930 . S
H2421 C2431 0.930 . S
C2422 H2416 0.930 . S
C2422 C2423 1.355 . S
C2422 C2424 1.415 . S
C2423 C2422 1.355 . S
C2423 C2425 1.419 . S
C2424 C2422 1.415 . S
C2424 C2429 1.425 . S
C2424 C2431 1.409 . S
C2425 H2417 0.930 . S
C2425 C2423 1.419 . S
C2425 C2426 1.362 . S
C2426 H2418 0.930 . S
C2426 C2425 1.362 . S
C2426 C2429 1.409 . S
C2427 H2419 0.930 . S
C2427 C2428 1.355 . S
C2427 C2429 1.415 . S
C2428 C2427 1.355 . S
C2428 C2430 1.419 . S
C2429 C2424 1.425 . S
C2429 C2426 1.409 . S
C2429 C2427 1.415 . S
C2430 H2420 0.930 . S
C2430 C2428 1.419 . S
C2430 C2431 1.362 . S
C2431 H2421 0.930 . S
C2431 C2424 1.409 . S
C2431 C2430 1.362 . S
H2432 C2438 0.930 . S
H2433 C2441 0.930 . S
H2434 C2442 0.930 . S
H2435 C2443 0.930 . S
H2436 C2446 0.930 . S
H2437 C2447 0.930 . S
C2438 H2432 0.930 . S
C2438 C2439 1.355 . S
C2438 C2440 1.415 . S
C2439 C2438 1.355 . S
C2439 C2441 1.419 . S
C2440 C2438 1.415 . S
C2440 C2445 1.425 . S
C2440 C2447 1.409 . S
C2441 H2433 0.930 . S
C2441 C2439 1.419 . S
C2441 C2442 1.362 . S
C2442 H2434 0.930 . S
C2442 C2441 1.362 . S
C2442 C2445 1.409 . S
C2443 H2435 0.930 . S
C2443 C2444 1.355 . S
C2443 C2445 1.415 . S
C2444 C2443 1.355 . S
C2444 C2446 1.419 . S
C2445 C2440 1.425 . S
C2445 C2442 1.409 . S
C2445 C2443 1.415 . S
C2446 H2436 0.930 . S
C2446 C2444 1.419 . S
C2446 C2447 1.362 . S
C2447 H2437 0.930 . S
C2447 C2440 1.409 . S
C2447 C2446 1.362 . S
H2448 C2454 0.930 . S
H2449 C2457 0.930 . S
H2450 C2458 0.930 . S
H2451 C2459 0.930 . S
H2452 C2462 0.930 . S
H2453 C2463 0.930 . S
C2454 H2448 0.930 . S
C2454 C2455 1.355 . S
C2454 C2456 1.415 . S
C2455 C2454 1.355 . S
C2455 C2457 1.419 . S
C2456 C2454 1.415 . S
C2456 C2461 1.425 . S
C2456 C2463 1.409 . S
C2457 H2449 0.930 . S
C2457 C2455 1.419 . S
C2457 C2458 1.362 . S
C2458 H2450 0.930 . S
C2458 C2457 1.362 . S
C2458 C2461 1.409 . S
C2459 H2451 0.930 . S
C2459 C2460 1.355 . S
C2459 C2461 1.415 . S
C2460 C2459 1.355 . S
C2460 C2462 1.419 . S
C2461 C2456 1.425 . S
C2461 C2458 1.409 . S
C2461 C2459 1.415 . S
C2462 H2452 0.930 . S
C2462 C2460 1.419 . S
C2462 C2463 1.362 . S
C2463 H2453 0.930 . S
C2463 C2456 1.409 . S
C2463 C2462 1.362 . S
H2464 C2470 0.930 . S
H2465 C2473 0.930 . S
H2466 C2474 0.930 . S
H2467 C2475 0.930 . S
H2468 C2478 0.930 . S
H2469 C2479 0.930 . S
C2470 H2464 0.930 . S
C2470 C2471 1.355 . S
C2470 C2472 1.415 . S
C2471 C2470 1.355 . S
C2471 C2473 1.419 . S
C2472 C2470 1.415 . S
C2472 C2477 1.425 . S
C2472 C2479 1.409 . S
C2473 H2465 0.930 . S
C2473 C2471 1.419 . S
C2473 C2474 1.362 . S
C2474 H2466 0.930 . S
C2474 C2473 1.362 . S
C2474 C2477 1.409 . S
C2475 H2467 0.930 . S
C2475 C2476 1.355 . S
C2475 C2477 1.415 . S
C2476 C2475 1.355 . S
C2476 C2478 1.419 . S
C2477 C2472 1.425 . S
C2477 C2474 1.409 . S
C2477 C2475 1.415 . S
C2478 H2468 0.930 . S
C2478 C2476 1.419 . S
C2478 C2479 1.362 . S
C2479 H2469 0.930 . S
C2479 C2472 1.409 . S
C2479 C2478 1.362 . S
H2480 C2486 0.930 . S
H2481 C2489 0.930 . S
H2482 C2490 0.930 . S
H2483 C2491 0.930 . S
H2484 C2494 0.930 . S
H2485 C2495 0.930 . S
C2486 H2480 0.930 . S
C2486 C2487 1.355 . S
C2486 C2488 1.415 . S
C2487 C2486 1.355 . S
C2487 C2489 1.419 . S
C2488 C2486 1.415 . S
C2488 C2493 1.425 . S
C2488 C2495 1.409 . S
C2489 H2481 0.930 . S
C2489 C2487 1.419 . S
C2489 C2490 1.362 . S
C2490 H2482 0.930 . S
C2490 C2489 1.362 . S
C2490 C2493 1.409 . S
C2491 H2483 0.930 . S
C2491 C2492 1.355 . S
C2491 C2493 1.415 . S
C2492 C2491 1.355 . S
C2492 C2494 1.419 . S
C2493 C2488 1.425 . S
C2493 C2490 1.409 . S
C2493 C2491 1.415 . S
C2494 H2484 0.930 . S
C2494 C2492 1.419 . S
C2494 C2495 1.362 . S
C2495 H2485 0.930 . S
C2495 C2488 1.409 . S
C2495 C2494 1.362 . S
H2496 C2502 0.930 . S
H2497 C2505 0.930 . S
H2498 C2506 0.930 . S
H2499 C2507 0.930 . S
H2500 C2510 0.930 . S
H2501 C2511 0.930 . S
C2502 H2496 0.930 . S
C2502 C2503 1.355 . S
C2502 C2504 1.415 . S
C2503 C2502 1.355 . S
C2503 C2505 1.419 . S
C2504 C2502 1.415 . S
C2504 C2509 1.425 . S
C2504 C2511 1.409 . S
C2505 H2497 0.930 . S
C2505 C2503 1.419 . S
C2505 C2506 1.362 . S
C2506 H2498 0.930 . S
C2506 C2505 1.362 . S
C2506 C2509 1.409 . S
C2507 H2499 0.930 . S
C2507 C2508 1.355 . S
C2507 C2509 1.415 . S
C2508 C2507 1.355 . S
C2508 C2510 1.419 . S
C2509 C2504 1.425 . S
C2509 C2506 1.409 . S
C2509 C2507 1.415 . S
C2510 H2500 0.930 . S
C2510 C2508 1.419 . S
C2510 C2511 1.362 . S
C2511 H2501 0.930 . S
C2511 C2504 1.409 . S
C2511 C2510 1.362 . S
H2512 C2518 0.930 . S
H2513 C2521 0.930 . S
H2514 C2522 0.930 . S
H2515 C2523 0.930 . S
H2516 C2526 0.930 . S
H2517 C2527 0.930 . S
C2518 H2512 0.930 . S
C2518 C2519 1.355 . S
C2518 C2520 1.415 . S
C2519 C2518 1.355 . S
C2519 C2521 1.419 . S
C2520 C2518 1.415 . S
C2520 C2525 1.425 . S
C2520 C2527 1.409 . S
C2521 H2513 0.930 . S
C2521 C2519 1.419 . S
C2521 C2522 1.362 . S
C2522 H2514 0.930 . S
C2522 C2521 1.362 . S
C2522 C2525 1.409 . S
C2523 H2515 0.930 . S
C2523 C2524 1.355 . S
C2523 C2525 1.415 . S
C2524 C2523 1.355 . S
C2524 C2526 1.419 . S
C2525 C2520 1.425 . S
C2525 C2522 1.409 . S
C2525 C2523 1.415 . S
C2526 H2516 0.930 . S
C2526 C2524 1.419 . S
C2526 C2527 1.362 . S
C2527 H2517 0.930 . S
C2527 C2520 1.409 . S
C2527 C2526 1.362 . S
H2528 C2534 0.930 . S
H2529 C2537 0.930 . S
H2530 C2538 0.930 . S
H2531 C2539 0.930 . S
H2532 C2542 0.930 . S
H2533 C2543 0.930 . S
C2534 H2528 0.930 . S
C2534 C2535 1.355 . S
C2534 C2536 1.415 . S
C2535 C2534 1.355 . S
C2535 C2537 1.419 . S
C2536 C2534 1.415 . S
C2536 C2541 1.425 . S
C2536 C2543 1.409 . S
C2537 H2529 0.930 . S
C2537 C2535 1.419 . S
C2537 C2538 1.362 . S
C2538 H2530 0.930 . S
C2538 C2537 1.362 . S
C2538 C2541 1.409 . S
C2539 H2531 0.930 . S
C2539 C2540 1.355 . S
C2539 C2541 1.415 . S
C2540 C2539 1.355 . S
C2540 C2542 1.419 . S
C2541 C2536 1.425 . S
C2541 C2538 1.409 . S
C2541 C2539 1.415 . S
C2542 H2532 0.930 . S
C2542 C2540 1.419 . S
C2542 C2543 1.362 . S
C2543 H2533 0.930 . S
C2543 C2536 1.409 . S
C2543 C2542 1.362 . S
H2544 C2550 0.930 . S
H2545 C2553 0.930 . S
H2546 C2554 0.930 . S
H2547 C2555 0.930 . S
H2548 C2558 0.930 . S
H2549 C2559 0.930 . S
C2550 H2544 0.930 . S
C2550 C2551 1.355 . S
C2550 C2552 1.415 . S
C2551 C2550 1.355 . S
C2551 C2553 1.419 . S
C2552 C2550 1.415 . S
C2552 C2557 1.425 . S
C2552 C2559 1.409 . S
C2553 H2545 0.930 . S
C2553 C2551 1.419 . S
C2553 C2554 1.362 . S
C2554 H2546 0.930 . S
C2554 C2553 1.362 . S
C2554 C2557 1.409 . S
C2555 H2547 0.930 . S
C2555 C2556 1.355 . S
C2555 C2557 1.415 . S
C2556 C2555 1.355 . S
C2556 C2558 1.419 . S
C2557 C2552 1.425 . S
C2557 C2554 1.409 . S
C2557 C2555 1.415 . S
C2558 H2548 0.930 . S
C2558 C2556 1.419 . S
C2558 C2559 1.362 . S
C2559 H2549 0.930 . S
C2559 C2552 1.409 . S
C2559 C2558 1.362 . S
H2560 C2566 0.930 . S
H2561 C2569 0.930 . S
H2562 C2570 0.930 . S
H2563 C2571 0.930 . S
H2564 C2574 0.930 . S
H2565 C2575 0.930 . S
C2566 H2560 0.930 . S
C2566 C2567 1.355 . S
C2566 C2568 1.415 . S
C2567 C2566 1.355 . S
C2567 C2569 1.419 . S
C2568 C2566 1.415 . S
C2568 C2573 1.425 . S
C2568 C2575 1.409 . S
C2569 H2561 0.930 . S
C2569 C2567 1.419 . S
C2569 C2570 1.362 . S
C2570 H2562 0.930 . S
C2570 C2569 1.362 . S
C2570 C2573 1.409 . S
C2571 H2563 0.930 . S
C2571 C2572 1.355 . S
C2571 C2573 1.415 . S
C2572 C2571 1.355 . S
C2572 C2574 1.419 . S
C2573 C2568 1.425 . S
C2573 C2570 1.409 . S
C2573 C2571 1.415 . S
C2574 H2564 0.930 . S
C2574 C2572 1.419 . S
C2574 C2575 1.362 . S
C2575 H2565 0.930 . S
C2575 C2568 1.409 . S
C2575 C2574 1.362 . S
H2576 C2582 0.930 . S
H2577 C2585 0.930 . S
H2578 C2586 0.930 . S
H2579 C2587 0.930 . S
H2580 C2590 0.930 . S
H2581 C2591 0.930 . S
C2582 H2576 0.930 . S
C2582 C2583 1.355 . S
C2582 C2584 1.415 . S
C2583 C2582 1.355 . S
C2583 C2585 1.419 . S
C2584 C2582 1.415 . S
C2584 C2589 1.425 . S
C2584 C2591 1.409 . S
C2585 H2577 0.930 . S
C2585 C2583 1.419 . S
C2585 C2586 1.362 . S
C2586 H2578 0.930 . S
C2586 C2585 1.362 . S
C2586 C2589 1.409 . S
C2587 H2579 0.930 . S
C2587 C2588 1.355 . S
C2587 C2589 1.415 . S
C2588 C2587 1.355 . S
C2588 C2590 1.419 . S
C2589 C2584 1.425 . S
C2589 C2586 1.409 . S
C2589 C2587 1.415 . S
C2590 H2580 0.930 . S
C2590 C2588 1.419 . S
C2590 C2591 1.362 . S
C2591 H2581 0.930 . S
C2591 C2584 1.409 . S
C2591 C2590 1.362 . S
H2592 C2598 0.930 . S
H2593 C2601 0.930 . S
H2594 C2602 0.930 . S
H2595 C2603 0.930 . S
H2596 C2606 0.930 . S
H2597 C2607 0.930 . S
C2598 H2592 0.930 . S
C2598 C2599 1.355 . S
C2598 C2600 1.415 . S
C2599 C2598 1.355 . S
C2599 C2601 1.419 . S
C2600 C2598 1.415 . S
C2600 C2605 1.425 . S
C2600 C2607 1.409 . S
C2601 H2593 0.930 . S
C2601 C2599 1.419 . S
C2601 C2602 1.362 . S
C2602 H2594 0.930 . S
C2602 C2601 1.362 . S
C2602 C2605 1.409 . S
C2603 H2595 0.930 . S
C2603 C2604 1.355 . S
C2603 C2605 1.415 . S
C2604 C2603 1.355 . S
C2604 C2606 1.419 . S
C2605 C2600 1.425 . S
C2605 C2602 1.409 . S
C2605 C2603 1.415 . S
C2606 H2596 0.930 . S
C2606 C2604 1.419 . S
C2606 C2607 1.362 . S
C2607 H2597 0.930 . S
C2607 C2600 1.409 . S
C2607 C2606 1.362 . S
H2608 C2614 0.930 . S
H2609 C2617 0.930 . S
H2610 C2618 0.930 . S
H2611 C2619 0.930 . S
H2612 C2622 0.930 . S
H2613 C2623 0.930 . S
C2614 H2608 0.930 . S
C2614 C2615 1.355 . S
C2614 C2616 1.415 . S
C2615 C2614 1.355 . S
C2615 C2617 1.419 . S
C2616 C2614 1.415 . S
C2616 C2621 1.425 . S
C2616 C2623 1.409 . S
C2617 H2609 0.930 . S
C2617 C2615 1.419 . S
C2617 C2618 1.362 . S
C2618 H2610 0.930 . S
C2618 C2617 1.362 . S
C2618 C2621 1.409 . S
C2619 H2611 0.930 . S
C2619 C2620 1.355 . S
C2619 C2621 1.415 . S
C2620 C2619 1.355 . S
C2620 C2622 1.419 . S
C2621 C2616 1.425 . S
C2621 C2618 1.409 . S
C2621 C2619 1.415 . S
C2622 H2612 0.930 . S
C2622 C2620 1.419 . S
C2622 C2623 1.362 . S
C2623 H2613 0.930 . S
C2623 C2616 1.409 . S
C2623 C2622 1.362 . S
H2624 C2630 0.930 . S
H2625 C2633 0.930 . S
H2626 C2634 0.930 . S
H2627 C2635 0.930 . S
H2628 C2638 0.930 . S
H2629 C2639 0.930 . S
C2630 H2624 0.930 . S
C2630 C2631 1.355 . S
C2630 C2632 1.415 . S
C2631 C2630 1.355 . S
C2631 C2633 1.419 . S
C2632 C2630 1.415 . S
C2632 C2637 1.425 . S
C2632 C2639 1.409 . S
C2633 H2625 0.930 . S
C2633 C2631 1.419 . S
C2633 C2634 1.362 . S
C2634 H2626 0.930 . S
C2634 C2633 1.362 . S
C2634 C2637 1.409 . S
C2635 H2627 0.930 . S
C2635 C2636 1.355 . S
C2635 C2637 1.415 . S
C2636 C2635 1.355 . S
C2636 C2638 1.419 . S
C2637 C2632 1.425 . S
C2637 C2634 1.409 . S
C2637 C2635 1.415 . S
C2638 H2628 0.930 . S
C2638 C2636 1.419 . S
C2638 C2639 1.362 . S
C2639 H2629 0.930 . S
C2639 C2632 1.409 . S
C2639 C2638 1.362 . S
C1111 N219 2.034 . S
C1116 N12 2.070 . S
C1127 N242 2.025 . S
C1132 N35 2.056 1_455 S
C1143 N265 2.024 1_556 S
C1148 N58 2.047 . S
C1159 N196 2.025 . S
C1164 N81 2.041 . S
C1175 N104 2.050 . S
C1180 N357 2.075 1_554 S
C1191 N127 2.075 . S
C1196 N288 2.053 . S
C1207 N150 2.047 . S
C1212 N311 2.024 . S
C1223 N334 2.075 . S
C1228 N173 2.051 1_455 S
C1239 N380 2.059 . S
C1244 N426 2.074 . S
C1255 N403 2.070 . S
C1260 N1070 2.035 1_545 S
C1271 N449 2.032 . S
C1276 N1093 2.030 1_565 S
C1287 N472 2.068 1_545 S
C1292 N1047 2.033 . S
C1303 N495 2.052 . S
C1308 N1024 2.024 . S
C1319 N955 2.040 . S
C1324 N518 2.073 . S
C1335 N541 2.059 . S
C1340 N1001 2.074 . S
C1351 N771 2.053 1_556 S
C1356 N564 2.075 . S
C1367 N794 2.075 . S
C1372 N587 2.045 . S
C1383 N817 2.026 . S
C1388 N610 2.059 . S
C1399 N748 2.024 . S
C1404 N633 2.045 1_655 S
C1415 N909 2.050 . S
C1420 N656 2.024 . S
C1431 N840 2.036 . S
C1436 N679 2.071 1_655 S
C1447 N702 2.029 . S
C1452 N863 2.065 1_554 S
C1463 N725 2.069 . S
C1468 N886 2.067 . S
C1479 N932 2.030 . S
C1484 N978 2.065 1_565 S
C1495 C384 1.079 . S
C1500 N2 1.056 . S
C1511 C1097 1.070 . S
C1516 N25 1.080 . S
C1527 N48 1.055 . S
C1532 C499 1.072 . S
C1543 C1074 1.151 . S
C1548 N71 1.131 . S
C1559 N94 1.114 . S
C1564 C959 1.143 . S
C1575 C982 1.121 . S
C1580 N117 1.086 . S
C1591 N140 1.076 . S
C1596 C1005 1.068 . S
C1607 C476 1.105 . S
C1612 N163 1.127 . S
C1623 N186 1.151 . S
C1628 C16 1.142 . S
C1639 C39 1.068 . S
C1644 N209 1.058 . S
C1655 N232 1.056 . S
C1660 C62 1.081 . S
C1671 C85 1.085 . S
C1676 N255 1.105 . S
C1687 N278 1.126 . S
C1692 C108 1.149 . S
C1703 C131 1.102 . S
C1708 N301 1.124 . S
C1719 N324 1.132 . S
C1724 C154 1.152 . S
C1735 N347 1.145 . S
C1740 C177 1.159 . S
C1751 N370 1.076 . S
C1756 C200 1.068 . S
C1767 N393 1.099 . S
C1772 C844 1.132 . S
C1783 C867 1.131 . S
C1788 N416 1.098 . S
C1799 C890 1.154 . S
C1804 N439 1.142 . S
C1815 C361 1.106 . S
C1820 N462 1.072 . S
C1831 N485 1.112 . S
C1836 C246 1.142 . S
C1847 C821 1.071 . S
C1852 N508 1.056 . S
C1863 N531 1.068 . S
C1868 C775 1.066 . S
C1879 N554 1.145 . S
C1884 C936 1.129 . S
C1895 N577 1.069 . S
C1900 C545 1.102 . S
C1911 N600 1.104 . S
C1916 C1051 1.136 . S
C1927 N623 1.138 . S
C1932 C522 1.153 . S
C1943 N646 1.141 . S
C1948 C407 1.122 . S
C1959 N669 1.086 . S
C1964 C430 1.073 . S
C1975 C453 1.069 . S
C1980 N692 1.076 . S
C1991 C1028 1.082 . S
C1996 N715 1.056 . S
C2007 C568 1.152 . S
C2012 N738 1.133 . S
C2023 C591 1.077 . S
C2028 N761 1.055 . S
C2039 N784 1.086 . S
C2044 C614 1.121 . S
C2055 C637 1.154 . S
C2060 N807 1.140 . S
C2071 N830 1.101 . S
C2076 C660 1.134 . S
C2087 N853 1.057 . S
C2092 C683 1.070 . S
C2103 N876 1.056 . S
C2108 C706 1.071 . S
C2119 C729 1.085 . S
C2124 N899 1.105 . S
C2135 N922 1.089 . S
C2140 C752 1.124 . S
C2151 N945 1.151 . S
C2156 C292 1.150 . S
C2167 C315 1.139 . S
C2172 N968 1.150 . S
C2183 N991 1.127 . S
C2188 C338 1.150 . S
C2199 N1014 1.060 . S
C2204 C913 1.067 . S
C2215 C798 1.148 . S
C2220 N1037 1.123 . S
C2231 C269 1.133 . S
C2236 N1060 1.099 . S
C2247 C223 1.150 . S
C2252 N1083 1.128 . S
C2263 C513 1.392 . S
C2268 C7 1.387 . S
C2279 C30 1.471 . S
C2284 C927 1.472 . S
C2295 C53 1.466 . S
C2300 C536 1.473 . S
C2311 C1042 1.456 . S
C2316 C76 1.470 . S
C2327 C99 1.387 . S
C2332 C421 1.391 . S
C2343 C444 1.388 . S
C2348 C122 1.388 . S
C2359 C1019 1.391 . S
C2364 C145 1.405 . S
C2375 C168 1.431 . S
C2380 C398 1.410 . S
C2391 C306 1.463 . S
C2396 C191 1.446 . S
C2407 C214 1.454 . S
C2412 C329 1.434 . S
C2423 C352 1.434 . S
C2428 C237 1.455 . S
C2439 C260 1.466 . S
C2444 C283 1.449 . S
C2455 C582 1.395 . S
C2460 C375 1.413 . S
C2471 C467 1.393 . S
C2476 C697 1.387 . S
C2487 C490 1.449 . S
C2492 C628 1.465 . S
C2503 C1065 1.404 . S
C2508 C559 1.425 . S
C2519 C605 1.460 . S
C2524 C1088 1.471 . S
C2535 C651 1.403 . S
C2540 C973 1.390 . S
C2551 C674 1.387 . S
C2556 C996 1.392 . S
C2567 C950 1.462 . S
C2572 C720 1.444 . S
C2583 C858 1.412 . S
C2588 C743 1.395 . S
C2599 C766 1.394 . S
C2604 C881 1.411 . S
C2615 C789 1.392 . S
C2620 C904 1.387 . S
C2631 C835 1.406 . S
C2636 C812 1.427 . S
