# Generated by pormake.
# Topology uog, (4)-cn, num edge types: 1
# Building blocks:
#     Node 0, Type 0, BuildingBlock: ICAMEG_clean_sbu_1, # of connection points: 4
#     Node 1, Type 0, BuildingBlock: ICAMEG_clean_sbu_1, # of connection points: 4
#     Node 2, Type 0, BuildingBlock: ICAMEG_clean_sbu_1, # of connection points: 4
#     Node 3, Type 0, BuildingBlock: ICAMEG_clean_sbu_1, # of connection points: 4
#     Node 4, Type 0, BuildingBlock: ICAMEG_clean_sbu_1, # of connection points: 4
#     Node 5, Type 0, BuildingBlock: ICAMEG_clean_sbu_1, # of connection points: 4
#     Edge 6, Type (0, 0), None
#     Edge 7, Type (0, 0), None
#     Edge 8, Type (0, 0), None
#     Edge 9, Type (0, 0), None
#     Edge 10, Type (0, 0), None
#     Edge 11, Type (0, 0), None
#     Edge 12, Type (0, 0), None
#     Edge 13, Type (0, 0), None
#     Edge 14, Type (0, 0), None
#     Edge 15, Type (0, 0), None
#     Edge 16, Type (0, 0), None
#     Edge 17, Type (0, 0), None
# Relax obj value: 0.073
# Max RMSD: 0.119
# Mean RMSD: 0.119
data_MOF--net-uog--node1-ICAMEG_clean_sbu_1--edge1-none
_symmetry_space_group_name_H-M    P1
_symmetry_Int_Tables_number       1
_symmetry_cell_setting            triclinic
loop_
_symmetry_equiv_pos_as_xyz
'x, y, z'
_cell_length_a     14.508532
_cell_length_b     14.508692
_cell_length_c     21.117949
_cell_angle_alpha  89.999999
_cell_angle_beta   90.000064
_cell_angle_gamma 119.9992
loop_
_atom_site_label
_atom_site_type_symbol
_atom_site_fract_x
_atom_site_fract_y
_atom_site_fract_z
_atom_type_partial_charge
Co0 Co 0.6966 0.41088 0.16714 0.0
Co1 Co 0.45752 0.22694 0.22338 0.0
O2 O 0.57777 0.27051 0.16949 0.0
C3 C 0.63225 0.34104 0.03241 0.0
O4 O 0.54406 0.34286 0.04231 0.0
C5 C 0.51188 0.05533 0.24021 0.0
O6 O 0.60636 0.12914 0.25862 0.0
O7 O 0.55562 0.26875 0.29861 0.0
O8 O 0.68839 0.42566 0.26284 0.0
H9 H 0.25669 0.2073 0.42083 0.0
H10 H 0.70557 0.21882 0.12482 0.0
O11 O 0.70763 0.38432 0.07304 0.0
H12 H 0.95781 0.37604 0.30245 0.0
H13 H 0.03882 0.70025 0.07518 0.0
H14 H 0.75175 0.6115 0.22894 0.0
H15 H 0.88339 0.47627 0.25044 0.0
H16 H 0.89783 0.5141 0.09123 0.0
O17 O 0.441 0.07944 0.22531 0.0
H18 H 0.41108 0.28883 0.34866 0.0
H19 H 0.23827 0.0433 0.21482 0.0
H20 H 0.89385 0.79865 0.2168 0.0
H21 H 0.7729 0.11392 0.17843 0.0
H22 H 0.03603 0.84388 0.13999 0.0
H23 H 0.89654 0.19038 0.26904 0.0
O24 O 0.59845 0.47333 0.15264 0.0
H25 H 0.3723 0.10482 0.99962 0.0
H26 H 0.29059 0.26946 0.1776 0.0
H27 H 0.20881 0.2597 0.0728 0.0
H28 H 0.25133 0.17864 0.98321 0.0
H29 H 0.44577 0.1115 0.10508 0.0
H30 H 0.07922 0.96827 0.2824 0.0
H31 H 0.08889 0.05149 0.38675 0.0
O32 O 0.46919 0.37539 0.22241 0.0
C33 C 0.64725 0.35248 0.30559 0.0
C34 C 0.25191 0.17291 0.37496 0.0
C35 C 0.15182 0.03831 0.29738 0.0
N36 N 0.33313 0.17267 0.27683 0.0
C37 C 0.33897 0.21815 0.33412 0.0
C38 C 0.24196 0.08225 0.25899 0.0
C39 C 0.15709 0.08466 0.35572 0.0
C40 C 0.76344 0.2552 0.16235 0.0
N41 N 0.78896 0.3531 0.18523 0.0
C42 C 0.80103 0.19493 0.19262 0.0
C43 C 0.86948 0.23759 0.24416 0.0
C44 C 0.90389 0.34167 0.26281 0.0
C45 C 0.86305 0.39887 0.23229 0.0
C46 C 0.97618 0.68165 0.10918 0.0
C47 C 0.81636 0.63067 0.19674 0.0
C48 C 0.89637 0.57635 0.11854 0.0
N49 N 0.81682 0.55274 0.16114 0.0
C50 C 0.8954 0.73647 0.18931 0.0
C51 C 0.97452 0.76199 0.14468 0.0
C52 C 0.51746 0.45787 0.18618 0.0
C53 C 0.35227 0.14018 0.03829 0.0
C54 C 0.3053 0.23103 0.13881 0.0
C55 C 0.26015 0.22641 0.07976 0.0
C56 C 0.28495 0.18167 0.0291 0.0
N57 N 0.37181 0.19125 0.14738 0.0
C58 C 0.39253 0.14263 0.0986 0.0
Co59 Co 0.28517 0.69686 0.50047 0.0
Co60 Co 0.23004 0.45778 0.55671 0.0
O61 O 0.30671 0.57803 0.50283 0.0
C62 C 0.29067 0.63252 0.36575 0.0
O63 O 0.20066 0.54433 0.37564 0.0
C64 C 0.456 0.51214 0.57354 0.0
O65 O 0.47667 0.60662 0.59195 0.0
O66 O 0.28632 0.55588 0.63195 0.0
O67 O 0.26218 0.68865 0.59618 0.0
H68 H 0.04884 0.25696 0.75417 0.0
H69 H 0.4862 0.70583 0.45815 0.0
O70 O 0.32277 0.70789 0.40637 0.0
H71 H 0.58121 0.95807 0.63579 0.0
H72 H 0.33802 0.03909 0.40851 0.0
H73 H 0.1397 0.75201 0.56227 0.0
H74 H 0.40656 0.88365 0.58377 0.0
H75 H 0.38318 0.8981 0.42457 0.0
O76 O 0.36101 0.44126 0.55864 0.0
H77 H 0.12171 0.41134 0.682 0.0
H78 H 0.19443 0.23854 0.54816 0.0
H79 H 0.09465 0.89411 0.55013 0.0
H80 H 0.65843 0.77316 0.51176 0.0
H81 H 0.1916 0.0363 0.47333 0.0
H82 H 0.7056 0.8968 0.60237 0.0
O83 O 0.12457 0.59871 0.48597 0.0
H84 H 0.26694 0.37257 0.33296 0.0
H85 H 0.02059 0.29086 0.51094 0.0
H86 H 0.94857 0.20908 0.40614 0.0
H87 H 0.07215 0.2516 0.31655 0.0
H88 H 0.33373 0.44604 0.43842 0.0
H89 H 0.11041 0.07949 0.61574 0.0
H90 H 0.03685 0.08915 0.72008 0.0
O91 O 0.09326 0.46946 0.55574 0.0
C92 C 0.29422 0.64751 0.63892 0.0
C93 C 0.07845 0.25217 0.7083 0.0
C94 C 0.11297 0.15208 0.63072 0.0
N95 N 0.15991 0.33339 0.61016 0.0
C96 C 0.12027 0.33924 0.66745 0.0
C97 C 0.15917 0.24223 0.59232 0.0
C98 C 0.07189 0.15735 0.68905 0.0
C99 C 0.5077 0.7637 0.49568 0.0
N100 N 0.43531 0.78922 0.51856 0.0
C101 C 0.60555 0.80129 0.52596 0.0
C102 C 0.63135 0.86975 0.57749 0.0
C103 C 0.56167 0.90415 0.59615 0.0
C104 C 0.46363 0.86331 0.56562 0.0
C105 C 0.29398 0.97645 0.44251 0.0
C106 C 0.18514 0.81662 0.53007 0.0
C107 C 0.31946 0.89663 0.45187 0.0
N108 N 0.26353 0.81708 0.49448 0.0
C109 C 0.15837 0.89566 0.52264 0.0
C110 C 0.21198 0.97479 0.47802 0.0
C111 C 0.05904 0.51772 0.51951 0.0
C112 C 0.21154 0.35253 0.37163 0.0
C113 C 0.07373 0.30556 0.47215 0.0
C114 C 0.03319 0.26041 0.41309 0.0
C115 C 0.10274 0.28522 0.36243 0.0
N116 N 0.18002 0.37207 0.48072 0.0
C117 C 0.24935 0.39279 0.43193 0.0
Co118 Co 0.58776 0.28543 0.8338 0.0
Co119 Co 0.77171 0.2303 0.89005 0.0
O120 O 0.72813 0.30697 0.83616 0.0
C121 C 0.65761 0.29093 0.69908 0.0
O122 O 0.65578 0.20092 0.70897 0.0
C123 C 0.94332 0.45626 0.90687 0.0
O124 O 0.8695 0.47693 0.92529 0.0
O125 O 0.72989 0.28658 0.96528 0.0
O126 O 0.57298 0.26244 0.92951 0.0
H127 H 0.79135 0.04911 0.0875 0.0
H128 H 0.77982 0.48646 0.79149 0.0
O129 O 0.61432 0.32303 0.73971 0.0
H130 H 0.6226 0.58147 0.96912 0.0
H131 H 0.29838 0.33828 0.74185 0.0
H132 H 0.38715 0.13997 0.8956 0.0
H133 H 0.52237 0.40682 0.91711 0.0
H134 H 0.48454 0.38344 0.7579 0.0
O135 O 0.91921 0.36128 0.89197 0.0
H136 H 0.70982 0.12197 1.01533 0.0
H137 H 0.95536 0.1947 0.88149 0.0
H138 H 0.19999 0.09491 0.88347 0.0
H139 H 0.88472 0.65869 0.84509 0.0
H140 H 0.15476 0.19187 0.80666 0.0
H141 H 0.80826 0.70586 0.93571 0.0
O142 O 0.52531 0.12483 0.81931 0.0
H143 H 0.89382 0.26719 0.66629 0.0
H144 H 0.7292 0.02085 0.84427 0.0
H145 H 0.73895 0.94883 0.73947 0.0
H146 H 0.82 0.0724 0.64988 0.0
H147 H 0.88714 0.33398 0.77175 0.0
H148 H 0.03039 0.11068 0.94907 0.0
H149 H 0.94716 0.03712 0.05342 0.0
O150 O 0.62326 0.09352 0.88908 0.0
C151 C 0.64617 0.29448 0.97225 0.0
C152 C 0.82574 0.07872 0.04163 0.0
C153 C 0.96035 0.11324 0.96405 0.0
N154 N 0.82598 0.16018 0.94349 0.0
C155 C 0.7805 0.12054 1.00079 0.0
C156 C 0.9164 0.15943 0.92565 0.0
C157 C 0.914 0.07215 0.02238 0.0
C158 C 0.74344 0.50795 0.82901 0.0
N159 N 0.64554 0.43557 0.85189 0.0
C160 C 0.80371 0.60581 0.85929 0.0
C161 C 0.76105 0.63161 0.91083 0.0
C162 C 0.65697 0.56193 0.92948 0.0
C163 C 0.59977 0.46389 0.89895 0.0
C164 C 0.31698 0.29424 0.77585 0.0
C165 C 0.36797 0.18541 0.86341 0.0
C166 C 0.42228 0.31973 0.78521 0.0
N167 N 0.4459 0.26379 0.82781 0.0
C168 C 0.26217 0.15864 0.85598 0.0
C169 C 0.23665 0.21225 0.81135 0.0
C170 C 0.54078 0.0593 0.85284 0.0
C171 C 0.85846 0.2118 0.70496 0.0
C172 C 0.76763 0.07399 0.80548 0.0
C173 C 0.77224 0.03345 0.74643 0.0
C174 C 0.81697 0.103 0.69577 0.0
N175 N 0.8074 0.18028 0.81405 0.0
C176 C 0.85601 0.24961 0.76526 0.0
Co177 Co 0.30179 0.58803 0.16714 0.0
Co178 Co 0.54087 0.77197 0.22338 0.0
O179 O 0.42061 0.7284 0.16949 0.0
C180 C 0.36613 0.65787 0.03241 0.0
O181 O 0.45432 0.65605 0.04231 0.0
C182 C 0.48651 0.94358 0.2402 0.0
O183 O 0.39202 0.86977 0.25862 0.0
O184 O 0.44276 0.73016 0.29861 0.0
O185 O 0.31 0.57325 0.26284 0.0
H186 H 0.7417 0.79161 0.42083 0.0
H187 H 0.29282 0.78009 0.12482 0.0
O188 O 0.29075 0.61459 0.07304 0.0
H189 H 0.04058 0.62287 0.30245 0.0
H190 H 0.95956 0.29865 0.07518 0.0
H191 H 0.24663 0.38742 0.22894 0.0
H192 H 0.115 0.52264 0.25044 0.0
H193 H 0.10055 0.48481 0.09123 0.0
O194 O 0.55738 0.91947 0.22531 0.0
H195 H 0.58731 0.71009 0.34866 0.0
H196 H 0.76011 0.95561 0.21482 0.0
H197 H 0.10454 0.20026 0.2168 0.0
H198 H 0.22549 0.88499 0.17843 0.0
H199 H 0.96235 0.15503 0.13999 0.0
H200 H 0.10185 0.80853 0.26904 0.0
O201 O 0.39993 0.52558 0.15264 0.0
H202 H 0.62608 0.89409 0.99962 0.0
H203 H 0.70779 0.72945 0.1776 0.0
H204 H 0.78957 0.73921 0.0728 0.0
H205 H 0.74705 0.82027 0.98321 0.0
H206 H 0.55261 0.88741 0.10509 0.0
H207 H 0.91917 0.03064 0.2824 0.0
H208 H 0.9095 0.94742 0.38675 0.0
O209 O 0.52919 0.62352 0.22241 0.0
C210 C 0.35114 0.64643 0.30559 0.0
C211 C 0.74648 0.826 0.37496 0.0
C212 C 0.84657 0.96061 0.29738 0.0
N213 N 0.66526 0.82624 0.27683 0.0
C214 C 0.65942 0.78076 0.33412 0.0
C215 C 0.75642 0.91666 0.25899 0.0
C216 C 0.8413 0.91425 0.35572 0.0
C217 C 0.23494 0.74371 0.16235 0.0
N218 N 0.20942 0.64581 0.18523 0.0
C219 C 0.19736 0.80398 0.19262 0.0
C220 C 0.1289 0.76132 0.24416 0.0
C221 C 0.0945 0.65724 0.26281 0.0
C222 C 0.13533 0.60004 0.23229 0.0
C223 C 0.0222 0.31726 0.10918 0.0
C224 C 0.18202 0.36825 0.19674 0.0
C225 C 0.10202 0.42256 0.11854 0.0
N226 N 0.18156 0.44617 0.16114 0.0
C227 C 0.10299 0.26244 0.18931 0.0
C228 C 0.02386 0.23692 0.14468 0.0
C229 C 0.48093 0.54104 0.18618 0.0
C230 C 0.64612 0.85873 0.03829 0.0
C231 C 0.69309 0.76789 0.13881 0.0
C232 C 0.73824 0.7725 0.07976 0.0
C233 C 0.71343 0.81724 0.0291 0.0
N234 N 0.62658 0.80766 0.14738 0.0
C235 C 0.60586 0.85628 0.0986 0.0
Co236 Co 0.71322 0.30205 0.50047 0.0
Co237 Co 0.76835 0.54113 0.55671 0.0
O238 O 0.69167 0.42088 0.50283 0.0
C239 C 0.70772 0.36639 0.36575 0.0
O240 O 0.79773 0.45458 0.37564 0.0
C241 C 0.54238 0.48677 0.57354 0.0
O242 O 0.52172 0.39229 0.59195 0.0
O243 O 0.71206 0.44303 0.63195 0.0
O244 O 0.73621 0.31026 0.59618 0.0
H245 H 0.94954 0.74196 0.75417 0.0
H246 H 0.51218 0.29308 0.45816 0.0
O247 O 0.67562 0.29102 0.40637 0.0
H248 H 0.41717 0.04084 0.63579 0.0
H249 H 0.66037 0.95982 0.40851 0.0
H250 H 0.85868 0.2469 0.56227 0.0
H251 H 0.59182 0.11526 0.58377 0.0
H252 H 0.6152 0.10082 0.42457 0.0
O253 O 0.63737 0.55765 0.55864 0.0
H254 H 0.87668 0.58757 0.682 0.0
H255 H 0.80395 0.76037 0.54816 0.0
H256 H 0.90374 0.1048 0.55013 0.0
H257 H 0.33995 0.22575 0.51176 0.0
H258 H 0.80678 0.96261 0.47333 0.0
H259 H 0.29278 0.10211 0.60237 0.0
O260 O 0.87382 0.4002 0.48597 0.0
H261 H 0.73144 0.62634 0.33296 0.0
H262 H 0.97779 0.70806 0.51094 0.0
H263 H 0.04981 0.78983 0.40614 0.0
H264 H 0.92623 0.74731 0.31655 0.0
H265 H 0.66466 0.55287 0.43842 0.0
H266 H 0.88797 0.91943 0.61573 0.0
H267 H 0.96153 0.90976 0.72008 0.0
O268 O 0.90513 0.52945 0.55574 0.0
C269 C 0.70416 0.3514 0.63892 0.0
C270 C 0.91993 0.74674 0.7083 0.0
C271 C 0.88541 0.84683 0.63072 0.0
N272 N 0.83847 0.66552 0.61016 0.0
C273 C 0.87811 0.65968 0.66745 0.0
C274 C 0.83921 0.75668 0.59232 0.0
C275 C 0.9265 0.84156 0.68905 0.0
C276 C 0.49069 0.23521 0.49568 0.0
N277 N 0.56308 0.20969 0.51856 0.0
C278 C 0.39283 0.19762 0.52596 0.0
C279 C 0.36704 0.12917 0.57749 0.0
C280 C 0.43671 0.09476 0.59615 0.0
C281 C 0.53475 0.1356 0.56562 0.0
C282 C 0.7044 0.02246 0.44251 0.0
C283 C 0.81324 0.18229 0.53007 0.0
C284 C 0.67892 0.10228 0.45187 0.0
N285 N 0.73486 0.18183 0.49448 0.0
C286 C 0.84001 0.10325 0.52264 0.0
C287 C 0.7864 0.02412 0.47802 0.0
C288 C 0.93934 0.4812 0.51951 0.0
C289 C 0.78684 0.64638 0.37163 0.0
C290 C 0.92465 0.69335 0.47215 0.0
C291 C 0.96519 0.7385 0.41309 0.0
C292 C 0.89564 0.71369 0.36243 0.0
N293 N 0.81837 0.62684 0.48072 0.0
C294 C 0.74903 0.60612 0.43193 0.0
Co295 Co 0.41062 0.71348 0.8338 0.0
Co296 Co 0.22667 0.76861 0.89005 0.0
O297 O 0.27025 0.69193 0.83616 0.0
C298 C 0.34078 0.70798 0.69908 0.0
O299 O 0.3426 0.79799 0.70897 0.0
C300 C 0.05507 0.54264 0.90687 0.0
O301 O 0.12888 0.52198 0.92529 0.0
O302 O 0.26849 0.71233 0.96528 0.0
O303 O 0.4254 0.73647 0.92951 0.0
H304 H 0.20704 0.9498 0.0875 0.0
H305 H 0.21856 0.51245 0.79149 0.0
O306 O 0.38406 0.67588 0.73971 0.0
H307 H 0.37579 0.41744 0.96912 0.0
H308 H 0.7 0.66063 0.74185 0.0
H309 H 0.61124 0.85894 0.8956 0.0
H310 H 0.47602 0.59209 0.91711 0.0
H311 H 0.51385 0.61547 0.7579 0.0
O312 O 0.07918 0.63763 0.89197 0.0
H313 H 0.28856 0.87694 1.01533 0.0
H314 H 0.04302 0.80421 0.88149 0.0
H315 H 0.79839 0.904 0.88347 0.0
H316 H 0.11366 0.34022 0.84509 0.0
H317 H 0.84362 0.80704 0.80666 0.0
H318 H 0.19013 0.29305 0.93571 0.0
O319 O 0.47307 0.87408 0.81931 0.0
H320 H 0.10456 0.73172 0.66629 0.0
H321 H 0.26918 0.97805 0.84427 0.0
H322 H 0.25943 0.05008 0.73947 0.0
H323 H 0.17838 0.92651 0.64988 0.0
H324 H 0.11124 0.66492 0.77175 0.0
H325 H 0.96799 0.88823 0.94907 0.0
H326 H 0.05122 0.96179 0.05342 0.0
O327 O 0.37513 0.90539 0.88908 0.0
C328 C 0.35222 0.70443 0.97225 0.0
C329 C 0.17264 0.92019 0.04163 0.0
C330 C 0.03803 0.88567 0.96405 0.0
N331 N 0.1724 0.83873 0.94349 0.0
C332 C 0.21789 0.87837 1.00079 0.0
C333 C 0.08198 0.83947 0.92565 0.0
C334 C 0.08439 0.92676 0.02238 0.0
C335 C 0.25494 0.49096 0.82901 0.0
N336 N 0.35285 0.56334 0.85189 0.0
C337 C 0.19467 0.3931 0.85929 0.0
C338 C 0.23733 0.3673 0.91083 0.0
C339 C 0.34141 0.43698 0.92948 0.0
C340 C 0.39861 0.53502 0.89895 0.0
C341 C 0.6814 0.70467 0.77585 0.0
C342 C 0.63041 0.8135 0.86341 0.0
C343 C 0.5761 0.67918 0.78521 0.0
N344 N 0.55249 0.73512 0.82781 0.0
C345 C 0.73622 0.84027 0.85598 0.0
C346 C 0.76173 0.78666 0.81135 0.0
C347 C 0.4576 0.93961 0.85284 0.0
C348 C 0.13992 0.78711 0.70496 0.0
C349 C 0.23075 0.92491 0.80548 0.0
C350 C 0.22615 0.96546 0.74643 0.0
C351 C 0.18141 0.89591 0.69577 0.0
N352 N 0.19098 0.81863 0.81405 0.0
C353 C 0.14237 0.7493 0.76526 0.0
loop_
_geom_bond_atom_site_label_1
_geom_bond_atom_site_label_2
_geom_bond_distance
_geom_bond_site_symmetry_2
_ccdc_geom_bond_type
Co0 O2 2.143 . S
Co0 O8 2.074 . S
Co0 O11 2.093 . S
Co0 O24 2.097 . S
Co0 N41 2.151 . S
Co0 N49 2.214 . S
Co1 O2 2.160 . S
Co1 O7 2.058 . S
Co1 O17 2.057 . S
Co1 O32 2.037 . S
Co1 N36 2.145 . S
Co1 N57 2.257 . S
O2 Co0 2.143 . S
O2 Co1 2.160 . S
C3 O4 1.278 . S
C3 O11 1.224 . S
O4 C3 1.278 . S
C5 O6 1.245 . S
C5 O17 1.232 . S
O6 C5 1.245 . S
O7 Co1 2.058 . S
O7 C33 1.269 . S
O8 Co0 2.074 . S
O8 C33 1.257 . S
H9 C34 0.930 . S
H10 C40 0.930 . S
O11 Co0 2.093 . S
O11 C3 1.224 . S
H12 C44 0.929 . S
H13 C46 0.930 . S
H14 C47 0.930 . S
H15 C45 0.929 . S
H16 C48 0.928 . S
O17 Co1 2.057 . S
O17 C5 1.232 . S
H18 C37 0.929 . S
H19 C38 0.929 . S
H20 C50 0.931 . S
H21 C42 0.929 . S
H22 C51 0.930 1_455 S
H23 C43 0.931 . S
O24 Co0 2.097 . S
O24 C52 1.214 . S
H25 C53 0.915 1_556 S
H26 C54 0.929 . S
H27 C55 0.930 . S
H28 C56 0.929 1_556 S
H29 C58 0.930 . S
H30 C35 0.930 1_565 S
H31 C39 0.930 . S
O32 Co1 2.037 . S
O32 C52 1.234 . S
C33 O7 1.269 . S
C33 O8 1.257 . S
C34 H9 0.930 . S
C34 C37 1.388 . S
C34 C39 1.418 . S
C35 H30 0.930 1_545 S
C35 C38 1.404 . S
C35 C39 1.353 . S
N36 Co1 2.145 . S
N36 C37 1.397 . S
N36 C38 1.334 . S
C37 H18 0.929 . S
C37 C34 1.388 . S
C37 N36 1.397 . S
C38 H19 0.929 . S
C38 C35 1.404 . S
C38 N36 1.334 . S
C39 H31 0.930 . S
C39 C34 1.418 . S
C39 C35 1.353 . S
C40 H10 0.930 . S
C40 N41 1.330 . S
C40 C42 1.446 . S
N41 Co0 2.151 . S
N41 C40 1.330 . S
N41 C45 1.418 . S
C42 H21 0.929 . S
C42 C40 1.446 . S
C42 C43 1.332 1_655 S
C43 H23 0.931 . S
C43 C42 1.332 1_455 S
C43 C44 1.267 . S
C44 H12 0.929 . S
C44 C43 1.267 . S
C44 C45 1.251 1_455 S
C45 H15 0.929 . S
C45 N41 1.418 . S
C45 C44 1.251 1_655 S
C46 H13 0.930 . S
C46 C48 1.406 1_455 S
C46 C51 1.261 1_455 S
C47 H14 0.930 . S
C47 N49 1.325 . S
C47 C50 1.357 . S
C48 H16 0.928 . S
C48 C46 1.406 1_655 S
C48 N49 1.261 . S
N49 Co0 2.214 . S
N49 C47 1.325 . S
N49 C48 1.261 . S
C50 H20 0.931 . S
C50 C47 1.357 . S
C50 C51 1.312 . S
C51 H22 0.930 1_655 S
C51 C46 1.261 1_655 S
C51 C50 1.312 . S
C52 O24 1.214 . S
C52 O32 1.234 . S
C53 H25 0.915 1_554 S
C53 C56 1.391 . S
C53 C58 1.391 . S
C54 H26 0.929 . S
C54 C55 1.390 . S
C54 N57 1.391 . S
C55 H27 0.930 . S
C55 C54 1.390 . S
C55 C56 1.392 . S
C56 H28 0.929 1_554 S
C56 C53 1.391 . S
C56 C55 1.392 . S
N57 Co1 2.257 . S
N57 C54 1.391 . S
N57 C58 1.388 . S
C58 H29 0.930 . S
C58 C53 1.391 . S
C58 N57 1.388 . S
Co59 O61 2.143 . S
Co59 O67 2.074 . S
Co59 O70 2.093 . S
Co59 O83 2.097 . S
Co59 N100 2.151 . S
Co59 N108 2.214 . S
Co60 O61 2.160 . S
Co60 O66 2.058 . S
Co60 O76 2.057 . S
Co60 O91 2.037 . S
Co60 N95 2.145 . S
Co60 N116 2.257 . S
O61 Co59 2.143 . S
O61 Co60 2.160 . S
C62 O63 1.278 . S
C62 O70 1.224 . S
O63 C62 1.278 . S
C64 O65 1.245 . S
C64 O76 1.232 . S
O65 C64 1.245 . S
O66 Co60 2.058 . S
O66 C92 1.269 . S
O67 Co59 2.074 . S
O67 C92 1.257 . S
H68 C93 0.930 1_655 S
H69 C99 0.930 . S
O70 Co59 2.093 . S
O70 C62 1.224 . S
H71 C103 0.929 . S
H72 C105 0.930 . S
H73 C106 0.930 . S
H74 C104 0.929 . S
H75 C107 0.928 . S
O76 Co60 2.057 . S
O76 C64 1.232 . S
H77 C96 0.929 . S
H78 C97 0.929 . S
H79 C109 0.931 . S
H80 C101 0.929 . S
H81 C110 0.930 1_545 S
H82 C102 0.931 . S
O83 Co59 2.097 . S
O83 C111 1.214 . S
H84 C112 0.929 . S
H85 C113 0.929 . S
H86 C114 0.930 1_655 S
H87 C115 0.929 . S
H88 C117 0.930 . S
H89 C94 0.930 . S
H90 C98 0.930 . S
O91 Co60 2.037 . S
O91 C111 1.234 . S
C92 O66 1.269 . S
C92 O67 1.257 . S
C93 H68 0.930 1_455 S
C93 C96 1.388 . S
C93 C98 1.418 . S
C94 H89 0.930 . S
C94 C97 1.404 . S
C94 C98 1.353 . S
N95 Co60 2.145 . S
N95 C96 1.397 . S
N95 C97 1.334 . S
C96 H77 0.929 . S
C96 C93 1.388 . S
C96 N95 1.397 . S
C97 H78 0.929 . S
C97 C94 1.404 . S
C97 N95 1.334 . S
C98 H90 0.930 . S
C98 C93 1.418 . S
C98 C94 1.353 . S
C99 H69 0.930 . S
C99 N100 1.330 . S
C99 C101 1.446 . S
N100 Co59 2.151 . S
N100 C99 1.330 . S
N100 C104 1.418 . S
C101 H80 0.929 . S
C101 C99 1.446 . S
C101 C102 1.332 1_565 S
C102 H82 0.931 . S
C102 C101 1.332 1_545 S
C102 C103 1.267 . S
C103 H71 0.929 . S
C103 C102 1.267 . S
C103 C104 1.251 1_545 S
C104 H74 0.929 . S
C104 N100 1.418 . S
C104 C103 1.251 1_565 S
C105 H72 0.930 . S
C105 C107 1.406 1_545 S
C105 C110 1.261 1_545 S
C106 H73 0.930 . S
C106 N108 1.325 . S
C106 C109 1.357 . S
C107 H75 0.928 . S
C107 C105 1.406 1_565 S
C107 N108 1.261 . S
N108 Co59 2.214 . S
N108 C106 1.325 . S
N108 C107 1.261 . S
C109 H79 0.931 . S
C109 C106 1.357 . S
C109 C110 1.312 . S
C110 H81 0.930 1_565 S
C110 C105 1.261 1_565 S
C110 C109 1.312 . S
C111 O83 1.214 . S
C111 O91 1.234 . S
C112 H84 0.929 . S
C112 C115 1.391 . S
C112 C117 1.391 . S
C113 H85 0.929 . S
C113 C114 1.390 . S
C113 N116 1.391 . S
C114 H86 0.930 1_455 S
C114 C113 1.390 . S
C114 C115 1.392 . S
C115 H87 0.929 . S
C115 C112 1.391 . S
C115 C114 1.392 . S
N116 Co60 2.257 . S
N116 C113 1.391 . S
N116 C117 1.388 . S
C117 H88 0.930 . S
C117 C112 1.391 . S
C117 N116 1.388 . S
Co118 O120 2.143 . S
Co118 O126 2.074 . S
Co118 O129 2.093 . S
Co118 O142 2.097 . S
Co118 N159 2.151 . S
Co118 N167 2.214 . S
Co119 O120 2.160 . S
Co119 O125 2.058 . S
Co119 O135 2.057 . S
Co119 O150 2.037 . S
Co119 N154 2.145 . S
Co119 N175 2.257 . S
O120 Co118 2.143 . S
O120 Co119 2.160 . S
C121 O122 1.278 . S
C121 O129 1.224 . S
O122 C121 1.278 . S
C123 O124 1.245 . S
C123 O135 1.232 . S
O124 C123 1.245 . S
O125 Co119 2.058 . S
O125 C151 1.269 . S
O126 Co118 2.074 . S
O126 C151 1.257 . S
H127 C152 0.930 1_565 S
H128 C158 0.930 . S
O129 Co118 2.093 . S
O129 C121 1.224 . S
H130 C162 0.929 . S
H131 C164 0.930 . S
H132 C165 0.930 . S
H133 C163 0.929 . S
H134 C166 0.928 . S
O135 Co119 2.057 . S
O135 C123 1.232 . S
H136 C155 0.929 . S
H137 C156 0.929 . S
H138 C168 0.931 . S
H139 C160 0.929 . S
H140 C169 0.930 . S
H141 C161 0.931 . S
O142 Co118 2.097 . S
O142 C170 1.214 . S
H143 C171 0.929 . S
H144 C172 0.929 . S
H145 C173 0.930 1_565 S
H146 C174 0.929 . S
H147 C176 0.930 . S
H148 C153 0.930 1_455 S
H149 C157 0.930 . S
O150 Co119 2.037 . S
O150 C170 1.234 . S
C151 O125 1.269 . S
C151 O126 1.257 . S
C152 H127 0.930 1_545 S
C152 C155 1.388 1_554 S
C152 C157 1.418 . S
C153 H148 0.930 1_655 S
C153 C156 1.404 . S
C153 C157 1.353 1_556 S
N154 Co119 2.145 . S
N154 C155 1.397 . S
N154 C156 1.334 . S
C155 H136 0.929 . S
C155 C152 1.388 1_556 S
C155 N154 1.397 . S
C156 H137 0.929 . S
C156 C153 1.404 . S
C156 N154 1.334 . S
C157 H149 0.930 . S
C157 C152 1.418 . S
C157 C153 1.353 1_554 S
C158 H128 0.930 . S
C158 N159 1.330 . S
C158 C160 1.446 . S
N159 Co118 2.151 . S
N159 C158 1.330 . S
N159 C163 1.418 . S
C160 H139 0.929 . S
C160 C158 1.446 . S
C160 C161 1.332 . S
C161 H141 0.931 . S
C161 C160 1.332 . S
C161 C162 1.267 . S
C162 H130 0.929 . S
C162 C161 1.267 . S
C162 C163 1.251 . S
C163 H133 0.929 . S
C163 N159 1.418 . S
C163 C162 1.251 . S
C164 H131 0.930 . S
C164 C166 1.406 . S
C164 C169 1.261 . S
C165 H132 0.930 . S
C165 N167 1.325 . S
C165 C168 1.357 . S
C166 H134 0.928 . S
C166 C164 1.406 . S
C166 N167 1.261 . S
N167 Co118 2.214 . S
N167 C165 1.325 . S
N167 C166 1.261 . S
C168 H138 0.931 . S
C168 C165 1.357 . S
C168 C169 1.312 . S
C169 H140 0.930 . S
C169 C164 1.261 . S
C169 C168 1.312 . S
C170 O142 1.214 . S
C170 O150 1.234 . S
C171 H143 0.929 . S
C171 C174 1.391 . S
C171 C176 1.391 . S
C172 H144 0.929 . S
C172 C173 1.390 . S
C172 N175 1.391 . S
C173 H145 0.930 1_545 S
C173 C172 1.390 . S
C173 C174 1.392 . S
C174 H146 0.929 . S
C174 C171 1.391 . S
C174 C173 1.392 . S
N175 Co119 2.257 . S
N175 C172 1.391 . S
N175 C176 1.388 . S
C176 H147 0.930 . S
C176 C171 1.391 . S
C176 N175 1.388 . S
Co177 O179 2.143 . S
Co177 O185 2.074 . S
Co177 O188 2.093 . S
Co177 O201 2.097 . S
Co177 N218 2.151 . S
Co177 N226 2.214 . S
Co178 O179 2.160 . S
Co178 O184 2.058 . S
Co178 O194 2.057 . S
Co178 O209 2.037 . S
Co178 N213 2.145 . S
Co178 N234 2.257 . S
O179 Co177 2.143 . S
O179 Co178 2.160 . S
C180 O181 1.278 . S
C180 O188 1.224 . S
O181 C180 1.278 . S
C182 O183 1.245 . S
C182 O194 1.232 . S
O183 C182 1.245 . S
O184 Co178 2.058 . S
O184 C210 1.269 . S
O185 Co177 2.074 . S
O185 C210 1.257 . S
H186 C211 0.930 . S
H187 C217 0.930 . S
O188 Co177 2.093 . S
O188 C180 1.224 . S
H189 C221 0.929 . S
H190 C223 0.930 . S
H191 C224 0.930 . S
H192 C222 0.929 . S
H193 C225 0.928 . S
O194 Co178 2.057 . S
O194 C182 1.232 . S
H195 C214 0.929 . S
H196 C215 0.929 . S
H197 C227 0.931 . S
H198 C219 0.929 . S
H199 C228 0.930 1_655 S
H200 C220 0.931 . S
O201 Co177 2.097 . S
O201 C229 1.214 . S
H202 C230 0.915 1_556 S
H203 C231 0.929 . S
H204 C232 0.930 . S
H205 C233 0.929 1_556 S
H206 C235 0.930 . S
H207 C212 0.930 1_545 S
H208 C216 0.930 . S
O209 Co178 2.037 . S
O209 C229 1.234 . S
C210 O184 1.269 . S
C210 O185 1.257 . S
C211 H186 0.930 . S
C211 C214 1.388 . S
C211 C216 1.418 . S
C212 H207 0.930 1_565 S
C212 C215 1.404 . S
C212 C216 1.353 . S
N213 Co178 2.145 . S
N213 C214 1.397 . S
N213 C215 1.334 . S
C214 H195 0.929 . S
C214 C211 1.388 . S
C214 N213 1.397 . S
C215 H196 0.929 . S
C215 C212 1.404 . S
C215 N213 1.334 . S
C216 H208 0.930 . S
C216 C211 1.418 . S
C216 C212 1.353 . S
C217 H187 0.930 . S
C217 N218 1.330 . S
C217 C219 1.446 . S
N218 Co177 2.151 . S
N218 C217 1.330 . S
N218 C222 1.418 . S
C219 H198 0.929 . S
C219 C217 1.446 . S
C219 C220 1.332 1_455 S
C220 H200 0.931 . S
C220 C219 1.332 1_655 S
C220 C221 1.267 . S
C221 H189 0.929 . S
C221 C220 1.267 . S
C221 C222 1.251 1_655 S
C222 H192 0.929 . S
C222 N218 1.418 . S
C222 C221 1.251 1_455 S
C223 H190 0.930 . S
C223 C225 1.406 1_655 S
C223 C228 1.261 1_655 S
C224 H191 0.930 . S
C224 N226 1.325 . S
C224 C227 1.357 . S
C225 H193 0.928 . S
C225 C223 1.406 1_455 S
C225 N226 1.261 . S
N226 Co177 2.214 . S
N226 C224 1.325 . S
N226 C225 1.261 . S
C227 H197 0.931 . S
C227 C224 1.357 . S
C227 C228 1.312 . S
C228 H199 0.930 1_455 S
C228 C223 1.261 1_455 S
C228 C227 1.312 . S
C229 O201 1.214 . S
C229 O209 1.234 . S
C230 H202 0.915 1_554 S
C230 C233 1.391 . S
C230 C235 1.391 . S
C231 H203 0.929 . S
C231 C232 1.390 . S
C231 N234 1.391 . S
C232 H204 0.930 . S
C232 C231 1.390 . S
C232 C233 1.392 . S
C233 H205 0.929 1_554 S
C233 C230 1.391 . S
C233 C232 1.392 . S
N234 Co178 2.257 . S
N234 C231 1.391 . S
N234 C235 1.388 . S
C235 H206 0.930 . S
C235 C230 1.391 . S
C235 N234 1.388 . S
Co236 O238 2.143 . S
Co236 O244 2.074 . S
Co236 O247 2.093 . S
Co236 O260 2.097 . S
Co236 N277 2.151 . S
Co236 N285 2.214 . S
Co237 O238 2.160 . S
Co237 O243 2.058 . S
Co237 O253 2.057 . S
Co237 O268 2.037 . S
Co237 N272 2.145 . S
Co237 N293 2.257 . S
O238 Co236 2.143 . S
O238 Co237 2.160 . S
C239 O240 1.278 . S
C239 O247 1.224 . S
O240 C239 1.278 . S
C241 O242 1.245 . S
C241 O253 1.232 . S
O242 C241 1.245 . S
O243 Co237 2.058 . S
O243 C269 1.269 . S
O244 Co236 2.074 . S
O244 C269 1.257 . S
H245 C270 0.930 1_455 S
H246 C276 0.930 . S
O247 Co236 2.093 . S
O247 C239 1.224 . S
H248 C280 0.929 . S
H249 C282 0.930 . S
H250 C283 0.930 . S
H251 C281 0.929 . S
H252 C284 0.928 . S
O253 Co237 2.057 . S
O253 C241 1.232 . S
H254 C273 0.929 . S
H255 C274 0.929 . S
H256 C286 0.931 . S
H257 C278 0.929 . S
H258 C287 0.930 1_565 S
H259 C279 0.931 . S
O260 Co236 2.097 . S
O260 C288 1.214 . S
H261 C289 0.929 . S
H262 C290 0.929 . S
H263 C291 0.930 1_455 S
H264 C292 0.929 . S
H265 C294 0.930 . S
H266 C271 0.930 . S
H267 C275 0.930 . S
O268 Co237 2.037 . S
O268 C288 1.234 . S
C269 O243 1.269 . S
C269 O244 1.257 . S
C270 H245 0.930 1_655 S
C270 C273 1.388 . S
C270 C275 1.418 . S
C271 H266 0.930 . S
C271 C274 1.404 . S
C271 C275 1.353 . S
N272 Co237 2.145 . S
N272 C273 1.397 . S
N272 C274 1.334 . S
C273 H254 0.929 . S
C273 C270 1.388 . S
C273 N272 1.397 . S
C274 H255 0.929 . S
C274 C271 1.404 . S
C274 N272 1.334 . S
C275 H267 0.930 . S
C275 C270 1.418 . S
C275 C271 1.353 . S
C276 H246 0.930 . S
C276 N277 1.330 . S
C276 C278 1.446 . S
N277 Co236 2.151 . S
N277 C276 1.330 . S
N277 C281 1.418 . S
C278 H257 0.929 . S
C278 C276 1.446 . S
C278 C279 1.332 1_545 S
C279 H259 0.931 . S
C279 C278 1.332 1_565 S
C279 C280 1.267 . S
C280 H248 0.929 . S
C280 C279 1.267 . S
C280 C281 1.251 1_565 S
C281 H251 0.929 . S
C281 N277 1.418 . S
C281 C280 1.251 1_545 S
C282 H249 0.930 . S
C282 C284 1.406 1_565 S
C282 C287 1.261 1_565 S
C283 H250 0.930 . S
C283 N285 1.325 . S
C283 C286 1.357 . S
C284 H252 0.928 . S
C284 C282 1.406 1_545 S
C284 N285 1.261 . S
N285 Co236 2.214 . S
N285 C283 1.325 . S
N285 C284 1.261 . S
C286 H256 0.931 . S
C286 C283 1.357 . S
C286 C287 1.312 . S
C287 H258 0.930 1_545 S
C287 C282 1.261 1_545 S
C287 C286 1.312 . S
C288 O260 1.214 . S
C288 O268 1.234 . S
C289 H261 0.929 . S
C289 C292 1.391 . S
C289 C294 1.391 . S
C290 H262 0.929 . S
C290 C291 1.390 . S
C290 N293 1.391 . S
C291 H263 0.930 1_655 S
C291 C290 1.390 . S
C291 C292 1.392 . S
C292 H264 0.929 . S
C292 C289 1.391 . S
C292 C291 1.392 . S
N293 Co237 2.257 . S
N293 C290 1.391 . S
N293 C294 1.388 . S
C294 H265 0.930 . S
C294 C289 1.391 . S
C294 N293 1.388 . S
Co295 O297 2.143 . S
Co295 O303 2.074 . S
Co295 O306 2.093 . S
Co295 O319 2.097 . S
Co295 N336 2.151 . S
Co295 N344 2.214 . S
Co296 O297 2.160 . S
Co296 O302 2.058 . S
Co296 O312 2.057 . S
Co296 O327 2.037 . S
Co296 N331 2.145 . S
Co296 N352 2.257 . S
O297 Co295 2.143 . S
O297 Co296 2.160 . S
C298 O299 1.278 . S
C298 O306 1.224 . S
O299 C298 1.278 . S
C300 O301 1.245 . S
C300 O312 1.232 . S
O301 C300 1.245 . S
O302 Co296 2.058 . S
O302 C328 1.269 . S
O303 Co295 2.074 . S
O303 C328 1.257 . S
H304 C329 0.930 1_545 S
H305 C335 0.930 . S
O306 Co295 2.093 . S
O306 C298 1.224 . S
H307 C339 0.929 . S
H308 C341 0.930 . S
H309 C342 0.930 . S
H310 C340 0.929 . S
H311 C343 0.928 . S
O312 Co296 2.057 . S
O312 C300 1.232 . S
H313 C332 0.929 . S
H314 C333 0.929 . S
H315 C345 0.931 . S
H316 C337 0.929 . S
H317 C346 0.930 . S
H318 C338 0.931 . S
O319 Co295 2.097 . S
O319 C347 1.214 . S
H320 C348 0.929 . S
H321 C349 0.929 . S
H322 C350 0.930 1_545 S
H323 C351 0.929 . S
H324 C353 0.930 . S
H325 C330 0.930 1_655 S
H326 C334 0.930 . S
O327 Co296 2.037 . S
O327 C347 1.234 . S
C328 O302 1.269 . S
C328 O303 1.257 . S
C329 H304 0.930 1_565 S
C329 C332 1.388 1_554 S
C329 C334 1.418 . S
C330 H325 0.930 1_455 S
C330 C333 1.404 . S
C330 C334 1.353 1_556 S
N331 Co296 2.145 . S
N331 C332 1.397 . S
N331 C333 1.334 . S
C332 H313 0.929 . S
C332 C329 1.388 1_556 S
C332 N331 1.397 . S
C333 H314 0.929 . S
C333 C330 1.404 . S
C333 N331 1.334 . S
C334 H326 0.930 . S
C334 C329 1.418 . S
C334 C330 1.353 1_554 S
C335 H305 0.930 . S
C335 N336 1.330 . S
C335 C337 1.446 . S
N336 Co295 2.151 . S
N336 C335 1.330 . S
N336 C340 1.418 . S
C337 H316 0.929 . S
C337 C335 1.446 . S
C337 C338 1.332 . S
C338 H318 0.931 . S
C338 C337 1.332 . S
C338 C339 1.267 . S
C339 H307 0.929 . S
C339 C338 1.267 . S
C339 C340 1.251 . S
C340 H310 0.929 . S
C340 N336 1.418 . S
C340 C339 1.251 . S
C341 H308 0.930 . S
C341 C343 1.406 . S
C341 C346 1.261 . S
C342 H309 0.930 . S
C342 N344 1.325 . S
C342 C345 1.357 . S
C343 H311 0.928 . S
C343 C341 1.406 . S
C343 N344 1.261 . S
N344 Co295 2.214 . S
N344 C342 1.325 . S
N344 C343 1.261 . S
C345 H315 0.931 . S
C345 C342 1.357 . S
C345 C346 1.312 . S
C346 H317 0.930 . S
C346 C341 1.261 . S
C346 C345 1.312 . S
C347 O319 1.214 . S
C347 O327 1.234 . S
C348 H320 0.929 . S
C348 C351 1.391 . S
C348 C353 1.391 . S
C349 H321 0.929 . S
C349 C350 1.390 . S
C349 N352 1.391 . S
C350 H322 0.930 1_565 S
C350 C349 1.390 . S
C350 C351 1.392 . S
C351 H323 0.929 . S
C351 C348 1.391 . S
C351 C350 1.392 . S
N352 Co296 2.257 . S
N352 C349 1.391 . S
N352 C353 1.388 . S
C353 H324 0.930 . S
C353 C348 1.391 . S
C353 N352 1.388 . S
C5 C182 1.153 1_545 S
C64 C241 1.153 . S
C123 C300 1.153 1_655 S
C111 C288 1.982 1_455 S
C347 C170 1.982 1_565 S
C229 C52 1.982 . S
C151 C3 1.836 1_556 S
C210 C62 1.836 . S
C121 C269 1.836 . S
C328 C180 1.836 1_556 S
C239 C33 1.836 . S
C298 C92 1.836 . S
