# Generated by pormake.
# Topology wkj, (6)-cn, num edge types: 1
# Building blocks:
#     Node 0, Type 0, BuildingBlock: KUMBUR_clean_sbu_1, # of connection points: 6
#     Node 1, Type 0, BuildingBlock: KUMBUR_clean_sbu_1, # of connection points: 6
#     Node 2, Type 0, BuildingBlock: KUMBUR_clean_sbu_1, # of connection points: 6
#     Node 3, Type 0, BuildingBlock: KUMBUR_clean_sbu_1, # of connection points: 6
#     Node 4, Type 0, BuildingBlock: KUMBUR_clean_sbu_1, # of connection points: 6
#     Node 5, Type 0, BuildingBlock: KUMBUR_clean_sbu_1, # of connection points: 6
#     Node 6, Type 0, BuildingBlock: KUMBUR_clean_sbu_1, # of connection points: 6
#     Node 7, Type 0, BuildingBlock: KUMBUR_clean_sbu_1, # of connection points: 6
#     Node 8, Type 0, BuildingBlock: KUMBUR_clean_sbu_1, # of connection points: 6
#     Node 9, Type 0, BuildingBlock: KUMBUR_clean_sbu_1, # of connection points: 6
#     Node 10, Type 0, BuildingBlock: KUMBUR_clean_sbu_1, # of connection points: 6
#     Node 11, Type 0, BuildingBlock: KUMBUR_clean_sbu_1, # of connection points: 6
#     Edge 12, Type (0, 0), BuildingBlock: OJICUG_clean_linker_0, # of connection points: 2
#     Edge 13, Type (0, 0), BuildingBlock: OJICUG_clean_linker_0, # of connection points: 2
#     Edge 14, Type (0, 0), BuildingBlock: OJICUG_clean_linker_0, # of connection points: 2
#     Edge 15, Type (0, 0), BuildingBlock: OJICUG_clean_linker_0, # of connection points: 2
#     Edge 16, Type (0, 0), BuildingBlock: OJICUG_clean_linker_0, # of connection points: 2
#     Edge 17, Type (0, 0), BuildingBlock: OJICUG_clean_linker_0, # of connection points: 2
#     Edge 18, Type (0, 0), BuildingBlock: OJICUG_clean_linker_0, # of connection points: 2
#     Edge 19, Type (0, 0), BuildingBlock: OJICUG_clean_linker_0, # of connection points: 2
#     Edge 20, Type (0, 0), BuildingBlock: OJICUG_clean_linker_0, # of connection points: 2
#     Edge 21, Type (0, 0), BuildingBlock: OJICUG_clean_linker_0, # of connection points: 2
#     Edge 22, Type (0, 0), BuildingBlock: OJICUG_clean_linker_0, # of connection points: 2
#     Edge 23, Type (0, 0), BuildingBlock: OJICUG_clean_linker_0, # of connection points: 2
#     Edge 24, Type (0, 0), BuildingBlock: OJICUG_clean_linker_0, # of connection points: 2
#     Edge 25, Type (0, 0), BuildingBlock: OJICUG_clean_linker_0, # of connection points: 2
#     Edge 26, Type (0, 0), BuildingBlock: OJICUG_clean_linker_0, # of connection points: 2
#     Edge 27, Type (0, 0), BuildingBlock: OJICUG_clean_linker_0, # of connection points: 2
#     Edge 28, Type (0, 0), BuildingBlock: OJICUG_clean_linker_0, # of connection points: 2
#     Edge 29, Type (0, 0), BuildingBlock: OJICUG_clean_linker_0, # of connection points: 2
#     Edge 30, Type (0, 0), BuildingBlock: OJICUG_clean_linker_0, # of connection points: 2
#     Edge 31, Type (0, 0), BuildingBlock: OJICUG_clean_linker_0, # of connection points: 2
#     Edge 32, Type (0, 0), BuildingBlock: OJICUG_clean_linker_0, # of connection points: 2
#     Edge 33, Type (0, 0), BuildingBlock: OJICUG_clean_linker_0, # of connection points: 2
#     Edge 34, Type (0, 0), BuildingBlock: OJICUG_clean_linker_0, # of connection points: 2
#     Edge 35, Type (0, 0), BuildingBlock: OJICUG_clean_linker_0, # of connection points: 2
#     Edge 36, Type (0, 0), BuildingBlock: OJICUG_clean_linker_0, # of connection points: 2
#     Edge 37, Type (0, 0), BuildingBlock: OJICUG_clean_linker_0, # of connection points: 2
#     Edge 38, Type (0, 0), BuildingBlock: OJICUG_clean_linker_0, # of connection points: 2
#     Edge 39, Type (0, 0), BuildingBlock: OJICUG_clean_linker_0, # of connection points: 2
#     Edge 40, Type (0, 0), BuildingBlock: OJICUG_clean_linker_0, # of connection points: 2
#     Edge 41, Type (0, 0), BuildingBlock: OJICUG_clean_linker_0, # of connection points: 2
#     Edge 42, Type (0, 0), BuildingBlock: OJICUG_clean_linker_0, # of connection points: 2
#     Edge 43, Type (0, 0), BuildingBlock: OJICUG_clean_linker_0, # of connection points: 2
#     Edge 44, Type (0, 0), BuildingBlock: OJICUG_clean_linker_0, # of connection points: 2
#     Edge 45, Type (0, 0), BuildingBlock: OJICUG_clean_linker_0, # of connection points: 2
#     Edge 46, Type (0, 0), BuildingBlock: OJICUG_clean_linker_0, # of connection points: 2
#     Edge 47, Type (0, 0), BuildingBlock: OJICUG_clean_linker_0, # of connection points: 2
# Relax obj value: 0.919
# Max RMSD: 0.198
# Mean RMSD: 0.198
data_MOF--net-wkj--node1-KUMBUR_clean_sbu_1--edge1-OJICUG_clean_linker_0
_symmetry_space_group_name_H-M    P1
_symmetry_Int_Tables_number       1
_symmetry_cell_setting            triclinic
loop_
_symmetry_equiv_pos_as_xyz
'x, y, z'
_cell_length_a     38.930406
_cell_length_b     38.968232
_cell_length_c     21.079947
_cell_angle_alpha  89.895457
_cell_angle_beta   90.042931
_cell_angle_gamma 119.95992
loop_
_atom_site_label
_atom_site_type_symbol
_atom_site_fract_x
_atom_site_fract_y
_atom_site_fract_z
_atom_type_partial_charge
Tb0 Tb 0.53989 0.1242 0.36662 0.0
C1 C 0.36196 0.05775 0.30924 0.0
N2 N 0.39098 0.09078 0.33808 0.0
C3 C 0.37188 0.13095 0.27805 0.0
C4 C 0.33952 0.06059 0.25904 0.0
C5 C 0.39279 0.12628 0.32821 0.0
C6 C 0.34616 0.0981 0.24173 0.0
C7 C 0.31926 0.98637 0.31036 0.0
C8 C 0.35155 0.02101 0.33534 0.0
C9 C 0.29935 -0.01116 0.25646 0.0
C10 C 0.30942 0.02591 0.23088 0.0
Tb11 Tb 0.42579 0.07925 0.4146 0.0
N12 N 0.37129 0.01979 0.38814 0.0
C13 C 0.30663 0.95058 0.34219 0.0
C14 C 0.35741 0.98535 0.42148 0.0
C15 C 0.32493 0.9503 0.3989 0.0
H16 H 0.41036 0.151 0.35913 0.0
H17 H 0.31332 0.923 0.42536 0.0
H18 H 0.55887 0.07783 0.25224 0.0
H19 H 0.63862 0.22258 0.54739 0.0
H20 H 0.37073 0.98507 0.46612 0.0
H21 H 0.28156 0.92336 0.32509 0.0
H22 H 0.58194 0.19662 0.4737 0.0
H23 H 0.37505 0.15965 0.26816 0.0
H24 H 0.27488 0.96241 0.23604 0.0
H25 H 0.29241 0.02749 0.19142 0.0
H26 H 0.60705 0.05537 0.23243 0.0
H27 H 0.32952 0.10161 0.20352 0.0
H28 H 0.68258 0.19375 0.54853 0.0
N29 N 0.58112 0.09997 0.34448 0.0
C30 C 0.61147 0.11023 0.38598 0.0
C31 C 0.60789 0.06982 0.27648 0.0
C32 C 0.64003 0.09864 0.37589 0.0
C33 C 0.58049 0.08236 0.28818 0.0
C34 C 0.63712 0.07702 0.32129 0.0
N35 N 0.59184 0.15139 0.4365 0.0
C36 C 0.60062 0.18345 0.47414 0.0
C37 C 0.65029 0.15146 0.47407 0.0
C38 C 0.61689 0.13674 0.4339 0.0
C39 C 0.65727 0.1817 0.51687 0.0
C40 C 0.63268 0.19823 0.51611 0.0
H41 H 0.65862 0.06778 0.31151 0.0
H42 H 0.69485 0.10382 0.41008 0.0
H43 H 0.70289 0.14845 0.49765 0.0
O44 O 0.53081 0.15471 0.29088 0.0
O45 O 0.5348 0.11491 0.4761 0.0
O46 O 0.46834 0.09273 0.50684 0.0
O47 O 0.58931 0.16715 0.31624 0.0
O48 O 0.52353 0.16735 0.40312 0.0
O49 O 0.46343 0.13386 0.35879 0.0
O50 O 0.37121 0.06926 0.44734 0.0
O51 O 0.43067 0.04991 0.31902 0.0
O52 O 0.49841 0.0736 0.29399 0.0
O53 O 0.42463 0.11603 0.48802 0.0
O54 O 0.43815 0.03426 0.44844 0.0
O55 O 0.48413 0.07952 0.39316 0.0
C56 C 0.50729 0.10439 0.52305 0.0
C57 C 0.58305 0.22126 0.27978 0.0
C58 C 0.58965 0.27775 0.21949 0.0
C59 C 0.6111 0.30318 0.26931 0.0
C60 C 0.60506 0.24709 0.3293 0.0
C61 C 0.61884 0.28778 0.32405 0.0
C62 C 0.57552 0.23689 0.22523 0.0
C63 C 0.49195 0.16763 0.3816 0.0
C64 C 0.56858 0.17827 0.28272 0.0
C65 C 0.67223 0.11166 0.41774 0.0
C66 C 0.67707 0.13755 0.46727 0.0
C67 C 0.45861 0.04923 0.28076 0.0
C68 C 0.36722 0.0818 0.55364 0.0
C69 C 0.3244 0.02544 0.62138 0.0
C70 C 0.31986 0.05153 0.6622 0.0
C71 C 0.36327 0.10746 0.59548 0.0
C72 C 0.34821 0.04122 0.56742 0.0
C73 C 0.33972 0.09229 0.64973 0.0
C74 C 0.47189 0.04605 0.42247 0.0
C75 C 0.38602 0.09582 0.49137 0.0
H76 H 0.62184 0.33464 0.26592 0.0
H77 H 0.61157 0.23592 0.37191 0.0
H78 H 0.63553 0.30741 0.36256 0.0
H79 H 0.55848 0.21712 0.18693 0.0
H80 H 0.30171 0.04078 0.70441 0.0
H81 H 0.37731 0.13887 0.58523 0.0
H82 H 0.35055 0.02153 0.53401 0.0
H83 H 0.33636 0.11211 0.68176 0.0
Tb84 Tb 0.41565 0.54398 0.72337 0.0
C85 C 0.30502 0.35886 0.71589 0.0
N86 N 0.30142 0.39036 0.69842 0.0
C87 C 0.26811 0.35673 0.60286 0.0
C88 C 0.29202 0.32562 0.67615 0.0
C89 C 0.28163 0.38909 0.64401 0.0
C90 C 0.27386 0.3251 0.61855 0.0
C91 C 0.32331 0.32689 0.79666 0.0
C92 C 0.32001 0.35942 0.77519 0.0
C93 C 0.31251 0.29447 0.75612 0.0
C94 C 0.29671 0.29375 0.69598 0.0
Tb95 Tb 0.32877 0.44406 0.76447 0.0
N96 N 0.32941 0.39107 0.81293 0.0
C97 C 0.33658 0.32761 0.85853 0.0
C98 C 0.3399 0.39056 0.87492 0.0
C99 C 0.34436 0.35935 0.89809 0.0
H100 H 0.27732 0.41355 0.6314 0.0
H101 H 0.35423 0.36005 0.94629 0.0
H102 H 0.48554 0.52765 0.79283 0.0
H103 H 0.40354 0.67482 0.71471 0.0
H104 H 0.3467 0.41507 0.90624 0.0
H105 H 0.34012 0.3035 0.87653 0.0
H106 H 0.38157 0.60505 0.69685 0.0
H107 H 0.25335 0.35625 0.55906 0.0
H108 H 0.31529 0.2694 0.77144 0.0
H109 H 0.28745 0.26813 0.66581 0.0
H110 H 0.53194 0.55651 0.88146 0.0
H111 H 0.26322 0.30001 0.58681 0.0
H112 H 0.46211 0.71525 0.78388 0.0
N113 N 0.47077 0.57318 0.7889 0.0
C114 C 0.48199 0.61061 0.80848 0.0
C115 C 0.5181 0.57208 0.8611 0.0
C116 C 0.51298 0.63084 0.85268 0.0
C117 C 0.4904 0.55498 0.81202 0.0
C118 C 0.53025 0.6106 0.88043 0.0
N119 N 0.42797 0.60565 0.75102 0.0
C120 C 0.40661 0.62186 0.72748 0.0
C121 C 0.47267 0.6673 0.80243 0.0
C122 C 0.4607 0.62781 0.78688 0.0
C123 C 0.45211 0.68445 0.77571 0.0
C124 C 0.41904 0.66171 0.73766 0.0
H125 H 0.55311 0.62447 0.91627 0.0
H126 H 0.54809 0.68587 0.90359 0.0
H127 H 0.51426 0.71879 0.85641 0.0
O128 O 0.40754 0.55796 0.63098 0.0
O129 O 0.40542 0.54825 0.82753 0.0
O130 O 0.36036 0.48344 0.85693 0.0
O131 O 0.46652 0.58387 0.67211 0.0
O132 O 0.35449 0.53756 0.72633 0.0
O133 O 0.32303 0.4776 0.68512 0.0
O134 O 0.26951 0.40419 0.78726 0.0
O135 O 0.35987 0.43796 0.67131 0.0
O136 O 0.41633 0.49853 0.65343 0.0
O137 O 0.29314 0.46645 0.80056 0.0
O138 O 0.37965 0.4612 0.81864 0.0
O139 O 0.42512 0.49413 0.74265 0.0
C140 C 0.38692 0.52212 0.87364 0.0
C141 C 0.45369 0.62472 0.60405 0.0
C142 C 0.42823 0.66791 0.5706 0.0
C143 C 0.46686 0.70057 0.57262 0.0
C144 C 0.492 0.65781 0.60786 0.0
C145 C 0.49852 0.69546 0.59155 0.0
C146 C 0.42256 0.63009 0.58321 0.0
C147 C 0.32293 0.51058 0.69585 0.0
C148 C 0.44515 0.58497 0.62512 0.0
C149 C 0.5244 0.66988 0.86986 0.0
C150 C 0.50488 0.68845 0.84352 0.0
C151 C 0.39291 0.46045 0.63548 0.0
C152 C 0.2433 0.42286 0.87064 0.0
C153 C 0.23706 0.39251 0.97364 0.0
C154 C 0.19984 0.38933 0.98194 0.0
C155 C 0.20645 0.42046 0.87916 0.0
C156 C 0.25917 0.41095 0.91936 0.0
C157 C 0.1851 0.40434 0.93537 0.0
C158 C 0.41082 0.46808 0.78894 0.0
C159 C 0.26249 0.43141 0.80835 0.0
H160 H 0.47288 0.72979 0.55923 0.0
H161 H 0.51675 0.65459 0.62359 0.0
H162 H 0.52818 0.72079 0.59377 0.0
H163 H 0.39316 0.60454 0.57825 0.0
H164 H 0.18199 0.37455 1.02327 0.0
H165 H 0.19363 0.42957 0.84169 0.0
H166 H 0.28725 0.41238 0.91205 0.0
H167 H 0.15635 0.40187 0.94157 0.0
Tb168 Tb 0.83863 0.40708 1.04909 0.0
C169 C 0.88638 0.27783 1.01773 0.0
N170 N 0.8606 0.28148 1.05695 0.0
C171 C 0.8136 0.21217 1.04429 0.0
C172 C 0.87507 0.24194 0.98571 0.0
C173 C 0.82608 0.24839 1.07471 0.0
C174 C 0.83763 0.20928 0.99803 0.0
C175 C 0.95336 0.30509 0.97655 0.0
C176 C 0.9255 0.30869 1.01456 0.0
C177 C 0.94121 0.2706 0.9406 0.0
C178 C 0.90223 0.23902 0.94547 0.0
Tb179 Tb 0.88561 0.34197 1.10483 0.0
N180 N 0.93661 0.34151 1.0509 0.0
C181 C -0.00715 0.33585 0.97689 0.0
C182 C 0.97549 0.37093 1.05299 0.0
C183 C 0.004 0.36873 1.01572 0.0
H184 H 0.80748 0.25019 1.11105 0.0
H185 H 0.03444 0.39273 1.0162 0.0
H186 H 0.89227 0.48246 0.9521 0.0
H187 H 0.72231 0.38796 0.21178 0.0
H188 H -0.01622 0.39735 1.0793 0.0
H189 H 0.01503 0.33427 0.948 0.0
H190 H 0.75657 0.36523 1.14065 0.0
H191 H 0.78544 0.18654 1.05656 0.0
H192 H 0.96209 0.26751 0.9106 0.0
H193 H 0.8938 0.21192 0.91967 0.0
H194 H 0.91308 0.55372 0.94649 0.0
H195 H 0.82795 0.18116 0.9747 0.0
H196 H 0.74738 0.45956 0.22582 0.0
N197 N 0.86167 0.47346 1.03963 0.0
C198 C 0.84625 0.48876 1.08136 0.0
C199 C 0.89552 0.53597 0.98572 0.0
C200 C 0.85755 0.52924 1.07981 0.0
C201 C 0.8837 0.49572 0.98933 0.0
C202 C 0.88335 0.55305 1.03209 0.0
N203 N 0.80229 0.42353 1.11522 0.0
C204 C 0.76835 0.39661 1.14594 0.0
C205 C 0.79625 0.47715 1.16038 0.0
C206 C 0.8154 0.46294 1.12025 0.0
C207 C 0.76297 0.44982 0.19469 0.0
C208 C 0.74866 0.40938 0.18672 0.0
H209 H 0.89175 0.58394 1.02796 0.0
H210 H 0.84918 0.5751 1.12262 0.0
H211 H 0.79583 0.52948 0.19401 0.0
O212 O 0.80765 0.3668 0.9758 0.0
O213 O 0.84539 0.41357 1.15941 0.0
O214 O 0.86889 0.37114 0.19299 0.0
O215 O 0.80932 0.4229 0.98107 0.0
O216 O 0.79292 0.34518 1.07765 0.0
O217 O 0.82926 0.31722 1.04845 0.0
O218 O 0.91558 0.3171 1.14955 0.0
O219 O 0.9141 0.3734 1.00609 0.0
O220 O 0.8919 0.41806 0.97933 0.0
O221 O 0.85808 0.30452 0.1838 0.0
O222 O 0.93003 0.40025 1.13472 0.0
O223 O 0.88486 0.39945 1.07775 0.0
C224 C 0.85661 0.39804 0.20785 0.0
C225 C 0.75271 0.36931 0.93141 0.0
C226 C 0.70012 0.31591 0.86912 0.0
C227 C 0.67853 0.33595 0.87041 0.0
C228 C 0.73009 0.38829 0.93414 0.0
C229 C 0.69309 0.37147 0.90408 0.0
C230 C 0.73716 0.33302 0.89981 0.0
C231 C 0.79427 0.31268 1.064 0.0
C232 C 0.79462 0.38901 0.95201 0.0
C233 C 0.84039 0.54397 1.12256 0.0
C234 C 0.80988 0.51796 1.16299 0.0
C235 C 0.91599 0.40211 0.96642 0.0
C236 C 0.90145 0.29759 0.25667 0.0
C237 C 0.95513 0.30693 0.32689 0.0
C238 C 0.92723 0.28364 0.37323 0.0
C239 C 0.87383 0.27502 0.30381 0.0
C240 C 0.94203 0.31397 0.26915 0.0
C241 C 0.88677 0.26834 0.36201 0.0
C242 C 0.91724 0.42138 1.10908 0.0
C243 C 0.88803 0.29862 0.19184 0.0
H244 H 0.65064 0.32427 0.84527 0.0
H245 H 0.74146 0.41664 0.95751 0.0
H246 H 0.6762 0.38665 0.90522 0.0
H247 H 0.75546 0.31939 0.89536 0.0
H248 H 0.93674 0.27772 0.41817 0.0
H249 H 0.84231 0.26153 0.29488 0.0
H250 H 0.96373 0.33104 0.23295 0.0
H251 H 0.86537 0.25063 0.39802 0.0
Tb252 Tb 0.44668 0.86834 0.39546 0.0
C253 C 0.63193 0.95877 0.37479 0.0
N254 N 0.60166 0.9215 0.36373 0.0
C255 C 0.63501 0.91768 0.27026 0.0
C256 C 0.66443 0.97742 0.33291 0.0
C257 C 0.60384 0.9001 0.31387 0.0
C258 C 0.66515 0.95672 0.27927 0.0
C259 C 0.66381 0.01435 0.44676 0.0
C260 C 0.63157 0.97692 0.43077 0.0
C261 C 0.69592 0.03344 0.40464 0.0
C262 C 0.69603 0.01523 0.34751 0.0
Tb263 Tb 0.55112 0.89605 0.43695 0.0
N264 N 0.6013 0.95628 0.472 0.0
C265 C 0.66351 0.03073 0.5056 0.0
C266 C 0.6026 0.97089 0.53156 0.0
C267 C 0.63268 0.00891 0.54812 0.0
H268 H 0.58123 0.86973 0.30635 0.0
H269 H 0.63277 0.0208 0.59454 0.0
H270 H 0.41582 0.93091 0.4376 0.0
H271 H 0.43356 0.75521 0.56479 0.0
H272 H 0.57995 0.9535 0.56615 0.0
H273 H 0.6875 0.0596 0.51942 0.0
H274 H 0.46937 0.80914 0.48944 0.0
H275 H 0.63591 0.90096 0.22998 0.0
H276 H 0.72136 0.0618 0.41656 0.0
H277 H 0.72132 0.03002 0.31604 0.0
H278 H 0.35863 0.92592 0.49795 0.0
H279 H 0.68953 0.97008 0.24584 0.0
H280 H 0.36355 0.73123 0.58876 0.0
N281 N 0.39639 0.86959 0.44826 0.0
C282 C 0.37043 0.83481 0.47716 0.0
C283 C 0.3605 0.89985 0.48839 0.0
C284 C 0.33622 0.83045 0.50749 0.0
C285 C 0.39318 0.90268 0.45623 0.0
C286 C 0.33063 0.86314 0.51018 0.0
N287 N 0.41986 0.81667 0.46826 0.0
C288 C 0.43851 0.79887 0.49745 0.0
C289 C 0.36102 0.77555 0.53023 0.0
C290 C 0.38268 0.80723 0.48774 0.0
C291 C 0.37882 0.75493 0.55461 0.0
C292 C 0.41833 0.76809 0.54069 0.0
H293 H 0.30517 0.86121 0.53419 0.0
H294 H 0.28499 0.79168 0.56422 0.0
H295 H 0.30816 0.74462 0.58678 0.0
O296 O 0.42395 0.83552 0.3121 0.0
O297 O 0.45008 0.8808 0.50055 0.0
O298 O 0.51009 0.88602 0.52949 0.0
O299 O 0.39816 0.86847 0.3503 0.0
O300 O 0.45731 0.81803 0.37885 0.0
O301 O 0.52427 0.84564 0.37118 0.0
O302 O 0.60043 0.89423 0.47194 0.0
O303 O 0.55024 0.92358 0.33635 0.0
O304 O 0.48776 0.91562 0.32166 0.0
O305 O 0.54213 0.84383 0.48281 0.0
O306 O 0.5307 0.93006 0.48057 0.0
O307 O 0.48921 0.9312 0.40583 0.0
C308 C 0.47385 0.88191 0.54687 0.0
C309 C 0.35402 0.80397 0.31059 0.0
C310 C 0.31532 0.73356 0.2844 0.0
C311 C 0.28151 0.7315 0.31138 0.0
C312 C 0.31996 0.80162 0.33801 0.0
C313 C 0.28406 0.76548 0.33872 0.0
C314 C 0.35106 0.76985 0.28377 0.0
C315 C 0.48874 0.81451 0.36861 0.0
C316 C 0.39331 0.84068 0.31146 0.0
C317 C 0.31176 0.7958 0.54172 0.0
C318 C 0.32454 0.76868 0.55388 0.0
C319 C 0.5255 0.93111 0.30051 0.0
C320 C 0.58816 0.8591 0.56805 0.0
C321 C 0.62899 0.89296 0.66136 0.0
C322 C 0.60245 0.8607 0.69917 0.0
C323 C 0.56233 0.82728 0.6068 0.0
C324 C 0.62223 0.89088 0.59543 0.0
C325 C 0.56978 0.82795 0.67181 0.0
C326 C 0.51827 0.94875 0.44715 0.0
C327 C 0.5793 0.86026 0.4998 0.0
H328 H 0.25349 0.70396 0.3112 0.0
H329 H 0.3211 0.82744 0.35932 0.0
H330 H 0.25814 0.7638 0.36056 0.0
H331 H 0.37698 0.7715 0.26164 0.0
H332 H 0.60597 0.86122 0.75016 0.0
H333 H 0.53616 0.80217 0.58703 0.0
H334 H 0.6431 0.91475 0.56533 0.0
H335 H 0.54946 0.80346 0.70147 0.0
Tb336 Tb 0.55906 0.4332 0.72478 0.0
C337 C 0.67237 0.60577 0.65909 0.0
N338 N 0.67559 0.57798 0.69396 0.0
C339 C 0.73556 0.59392 0.63793 0.0
C340 C 0.69865 0.62601 0.60864 0.0
C341 C 0.70928 0.57538 0.68838 0.0
C342 C 0.72965 0.61858 0.5969 0.0
C343 C 0.64014 0.64475 0.6421 0.0
C344 C 0.64418 0.61587 0.67648 0.0
C345 C 0.66475 0.66321 0.58958 0.0
C346 C 0.69402 0.65396 0.57301 0.0
Tb347 Tb 0.627 0.5461 0.76995 0.0
N348 N 0.61993 0.59642 0.72648 0.0
C349 C 0.61152 0.65421 0.66163 0.0
C350 C 0.59361 0.60725 0.7476 0.0
C351 C 0.58857 0.6358 0.71524 0.0
H352 H 0.71566 0.55848 0.72219 0.0
H353 H 0.56706 0.64363 0.73177 0.0
H354 H 0.5496 0.36614 0.82634 0.0
H355 H 0.64157 0.47943 0.50248 0.0
H356 H 0.57698 0.59425 0.78964 0.0
H357 H 0.60741 0.67616 0.63642 0.0
H358 H 0.61237 0.4892 0.5985 0.0
H359 H 0.7606 0.58954 0.63086 0.0
H360 H 0.66187 0.6852 0.56219 0.0
H361 H 0.71355 0.66927 0.53348 0.0
H362 H 0.55192 0.30427 0.82515 0.0
H363 H 0.75032 0.63325 0.55836 0.0
H364 H 0.64129 0.41647 0.48567 0.0
N365 N 0.57041 0.38173 0.73171 0.0
C366 C 0.58219 0.37153 0.67827 0.0
C367 C 0.56123 0.32309 0.78367 0.0
C368 C 0.58448 0.33666 0.67523 0.0
C369 C 0.56011 0.35835 0.7844 0.0
C370 C 0.57347 0.31208 0.72878 0.0
N371 N 0.5914 0.43079 0.63451 0.0
C372 C 0.60971 0.46071 0.59107 0.0
C373 C 0.61071 0.39056 0.57378 0.0
C374 C 0.59374 0.39736 0.62788 0.0
C375 C 0.62748 0.42024 0.52765 0.0
C376 C 0.62748 0.45571 0.53683 0.0
H377 H 0.57441 0.28476 0.72829 0.0
H378 H 0.59873 0.30053 0.61507 0.0
H379 H 0.62344 0.34867 0.52677 0.0
O380 O 0.50577 0.38977 0.68344 0.0
O381 O 0.56099 0.43696 0.8338 0.0
O382 O 0.60107 0.50388 0.86355 0.0
O383 O 0.50922 0.4001 0.78322 0.0
O384 O 0.61912 0.44557 0.75407 0.0
O385 O 0.64577 0.50779 0.71676 0.0
O386 O 0.65767 0.6022 0.80955 0.0
O387 O 0.59055 0.54127 0.67624 0.0
O388 O 0.55131 0.47414 0.64634 0.0
O389 O 0.67442 0.55879 0.83367 0.0
O390 O 0.5695 0.53071 0.80928 0.0
O391 O 0.57028 0.48786 0.75013 0.0
C392 C 0.5762 0.46448 0.88029 0.0
C393 C 0.46675 0.33432 0.75187 0.0
C394 C 0.44721 0.26646 0.72104 0.0
C395 C 0.42176 0.25195 0.77346 0.0
C396 C 0.4414 0.31936 0.80458 0.0
C397 C 0.41958 0.27845 0.81582 0.0
C398 C 0.47063 0.3078 0.71219 0.0
C399 C 0.65131 0.47876 0.7378 0.0
C400 C 0.48769 0.37732 0.73764 0.0
C401 C 0.59787 0.3278 0.61919 0.0
C402 C 0.61153 0.355 0.56874 0.0
C403 C 0.56417 0.5139 0.63491 0.0
C404 C 0.69335 0.61403 0.90487 0.0
C405 C 0.69532 0.66456 0.97655 0.0
C406 C 0.7299 0.66802 1.00433 0.0
C407 C 0.72732 0.61766 0.93403 0.0
C408 C 0.67646 0.63604 0.92848 0.0
C409 C 0.74508 0.64407 0.98417 0.0
C410 C 0.54812 0.49759 0.78162 0.0
C411 C 0.68153 0.59494 0.84213 0.0
H412 H 0.40272 0.22037 0.78023 0.0
H413 H 0.43802 0.33926 0.83647 0.0
H414 H 0.39975 0.26721 0.85613 0.0
H415 H 0.49018 0.31944 0.67173 0.0
H416 H 0.74608 0.68976 1.0406 0.0
H417 H 0.7412 0.60148 0.91607 0.0
H418 H 0.6493 0.63179 0.90731 0.0
H419 H 0.77177 0.64726 1.0057 0.0
Tb420 Tb 0.10878 0.55993 1.0623 0.0
C421 C 0.01711 0.65612 1.06734 0.0
N422 N 0.05236 0.66311 1.04386 0.0
C423 C 0.04245 0.69301 0.95103 0.0
C424 C -0.00783 0.66581 1.03267 0.0
C425 C 0.06627 0.68313 0.98775 0.0
C426 C 0.00493 0.68372 0.97313 0.0
C427 C 0.97241 0.63597 1.15667 0.0
C428 C 0.00776 0.64203 1.1283 0.0
C429 C 0.94612 0.64337 1.12143 0.0
C430 C 0.95615 0.65859 1.0596 0.0
Tb431 Tb 0.08736 0.6418 1.10361 0.0
N432 N 0.03486 0.63707 1.16123 0.0
C433 C 0.96527 0.62391 0.22008 0.0
C434 C 0.02985 0.62945 0.22508 0.0
C435 C -0.00548 0.6215 0.25486 0.0
H436 H 0.09515 0.69005 0.97039 0.0
H437 H -0.01018 0.61339 0.30452 0.0
H438 H 0.02253 0.48032 1.1082 0.0
H439 H 0.26158 0.60257 1.11483 0.0
H440 H 0.05241 0.62794 0.25277 0.0
H441 H 0.93781 0.61743 0.24292 0.0
H442 H 0.20887 0.60885 1.06258 0.0
H443 H 0.053 0.70766 0.90572 0.0
H444 H 0.91867 0.63868 1.14225 0.0
H445 H 0.93628 0.66541 1.03359 0.0
H446 H 0.00255 0.42243 1.17694 0.0
H447 H -0.01341 0.69152 0.94479 0.0
H448 H 0.24481 0.54366 0.18087 0.0
N449 N 0.08463 0.502 1.119 0.0
C450 C 0.11261 0.4946 1.14414 0.0
C451 C 0.03351 0.44206 1.16622 0.0
C452 C 0.10183 0.45961 1.17858 0.0
C453 C 0.04527 0.47585 1.12893 0.0
C454 C 0.06169 0.43298 0.18839 0.0
N455 N 0.16157 0.55712 1.10569 0.0
C456 C 0.20053 0.58439 1.0945 0.0
C457 C 0.18191 0.51728 1.16546 0.0
C458 C 0.15224 0.52323 1.13792 0.0
C459 C 0.22146 0.54683 1.15884 0.0
C460 C 0.23088 0.58026 1.12238 0.0
H461 H 0.05221 0.40562 0.21368 0.0
H462 H 0.12352 0.42629 0.23083 0.0
H463 H 0.19374 0.47694 0.21959 0.0
O464 O 0.13877 0.56868 0.97599 0.0
O465 O 0.1137 0.564 1.16948 0.0
O466 O 0.10063 0.61409 0.19688 0.0
O467 O 0.1008 0.50962 1.01247 0.0
O468 O 0.15852 0.62374 1.06644 0.0
O469 O 0.12624 0.65055 1.02251 0.0
O470 O 0.10383 0.70121 1.11557 0.0
O471 O 0.05186 0.60977 1.01028 0.0
O472 O 0.06344 0.55825 0.9876 0.0
O473 O 0.14393 0.68118 1.14269 0.0
O474 O 0.05537 0.58956 1.1561 0.0
O475 O 0.04813 0.54682 1.07821 0.0
C476 C 0.10992 0.5855 0.21502 0.0
C477 C 0.16177 0.52295 0.96574 0.0
C478 C 0.23204 0.55162 0.94152 0.0
C479 C 0.23338 0.52146 0.97556 0.0
C480 C 0.16284 0.49193 0.99842 0.0
C481 C 0.19846 0.49114 1.00275 0.0
C482 C 0.19577 0.55075 0.93416 0.0
C483 C 0.16055 0.65361 1.03379 0.0
C484 C 0.12855 0.53117 0.97195 0.0
C485 C 0.13132 0.45316 0.20466 0.0
C486 C 0.17128 0.48205 0.19847 0.0
C487 C 0.04514 0.57899 0.97169 0.0
C488 C 0.1414 0.72972 0.20678 0.0
C489 C 0.11064 0.74106 0.29874 0.0
C490 C 0.14745 0.76003 0.32963 0.0
C491 C 0.17835 0.74946 0.23722 0.0
C492 C 0.10812 0.72696 0.23722 0.0
C493 C 0.18136 0.76504 0.29819 0.0
C494 C 0.03419 0.55732 1.12643 0.0
C495 C 0.13655 0.71027 1.14492 0.0
H496 H 0.26116 0.52188 0.98229 0.0
H497 H 0.13688 0.46945 1.023 0.0
H498 H 0.19936 0.46794 1.02973 0.0
H499 H 0.195 0.57448 0.90857 0.0
H500 H 0.14978 0.77033 0.37799 0.0
H501 H 0.20457 0.75228 0.21438 0.0
H502 H 0.07932 0.71174 0.21456 0.0
H503 H 0.20981 0.78012 0.32177 0.0
Tb504 Tb 0.84881 0.43078 0.65591 0.0
C505 C 0.89752 0.60491 0.70949 0.0
N506 N 0.86788 0.57555 0.67455 0.0
C507 C 0.8213 0.59177 0.7206 0.0
C508 C 0.88957 0.62727 0.75369 0.0
C509 C 0.83098 0.5715 0.67584 0.0
C510 C 0.85064 0.6195 0.76018 0.0
C511 C 0.96723 0.64154 0.73847 0.0
C512 C 0.93607 0.61249 0.7014 0.0
C513 C 0.95935 0.66388 0.78212 0.0
C514 C 0.92061 0.65671 0.78981 0.0
Tb515 Tb 0.88756 0.54409 0.603 0.0
N516 N 0.94205 0.58822 0.66195 0.0
C517 C 0.00505 0.64604 0.73274 0.0
C518 C 0.97884 0.59191 0.65808 0.0
C519 C 0.01076 0.62087 0.69277 0.0
H520 H 0.80934 0.55406 0.64074 0.0
H521 H 0.03959 0.62315 0.68972 0.0
H522 H 0.89171 0.3871 0.57482 0.0
H523 H 0.69124 0.36892 0.70566 0.0
H524 H -0.01688 0.57107 0.63161 0.0
H525 H 0.02967 0.66788 0.76059 0.0
H526 H 0.76173 0.40283 0.73397 0.0
H527 H 0.79145 0.58672 0.72371 0.0
H528 H -0.01712 0.68623 0.81109 0.0
H529 H 0.91493 0.674 0.82403 0.0
H530 H 0.87133 0.33343 0.49777 0.0
H531 H 0.84318 0.63563 0.79409 0.0
H532 H 0.6689 0.32966 0.60696 0.0
N533 N 0.83487 0.38279 0.58024 0.0
C534 C 0.79609 0.36137 0.56251 0.0
C535 C 0.84996 0.34127 0.51503 0.0
C536 C 0.78357 0.33111 0.51653 0.0
C537 C 0.86141 0.37183 0.55908 0.0
C538 C 0.8112 0.32161 0.49224 0.0
N539 N 0.78078 0.39366 0.6435 0.0
C540 C 0.75307 0.3899 0.68736 0.0
C541 C 0.72789 0.34469 0.57844 0.0
C542 C 0.76856 0.36814 0.59346 0.0
C543 C 0.70018 0.34738 0.61687 0.0
C544 C 0.71272 0.36931 0.67263 0.0
H545 H 0.8026 0.29829 0.45745 0.0
H546 H 0.73354 0.28708 0.46253 0.0
H547 H 0.68476 0.29922 0.51644 0.0
O548 O 0.83092 0.39735 0.74004 0.0
O549 O 0.85469 0.43623 0.54457 0.0
O550 O 0.87107 0.50068 0.51167 0.0
O551 O 0.87734 0.39913 0.68305 0.0
O552 O 0.81648 0.46027 0.696 0.0
O553 O 0.82243 0.50094 0.61327 0.0
O554 O 0.92449 0.59776 0.55806 0.0
O555 O 0.90729 0.53681 0.70767 0.0
O556 O 0.90001 0.47423 0.72418 0.0
O557 O 0.86164 0.57098 0.54799 0.0
O558 O 0.93048 0.5312 0.56261 0.0
O559 O 0.89141 0.48663 0.62557 0.0
C560 C 0.86139 0.46224 0.49621 0.0
C561 C 0.8296 0.33652 0.72227 0.0
C562 C 0.76618 0.27428 0.72365 0.0
C563 C 0.78553 0.25354 0.70659 0.0
C564 C 0.8486 0.31545 0.70416 0.0
C565 C 0.82661 0.27421 0.6963 0.0
C566 C 0.78849 0.31556 0.73176 0.0
C567 C 0.80291 0.48061 0.66436 0.0
C568 C 0.85175 0.38034 0.72748 0.0
C569 C 0.74358 0.31 0.49837 0.0
C570 C 0.71582 0.317 0.52894 0.0
C571 C 0.91709 0.51305 0.74173 0.0
C572 C 0.90302 0.61682 0.46774 0.0
C573 C 0.95109 0.66218 0.3905 0.0
C574 C 0.92014 0.65163 0.3467 0.0
C575 C 0.87248 0.60598 0.42326 0.0
C576 C 0.94168 0.64586 0.45159 0.0
C577 C 0.88109 0.62371 0.36317 0.0
C578 C 0.92278 0.49918 0.59084 0.0
C579 C 0.89588 0.60092 0.53282 0.0
H580 H 0.76907 0.22159 0.70208 0.0
H581 H 0.88029 0.33084 0.69579 0.0
H582 H 0.84155 0.25821 0.68274 0.0
H583 H 0.77358 0.33128 0.74722 0.0
H584 H 0.92611 0.66394 0.29927 0.0
H585 H 0.84216 0.58426 0.43498 0.0
H586 H 0.96489 0.65558 0.48702 0.0
H587 H 0.85751 0.61539 0.32892 0.0
Tb588 Tb 0.41014 0.849 0.97666 0.0
C589 C 0.30487 0.94619 0.93733 0.0
N590 N 0.30592 0.91607 0.96761 0.0
C591 C 0.26647 0.91957 1.05215 0.0
C592 C 0.28479 0.96458 0.96327 0.0
C593 C 0.2866 0.90214 1.02406 0.0
C594 C 0.26568 0.95106 1.02176 0.0
C595 C 0.32251 -0.01158 0.84498 0.0
C596 C 0.32332 0.95782 0.87941 0.0
C597 C 0.30312 0.00746 0.87066 0.0
C598 C 0.28422 -0.00449 0.92976 0.0
Tb599 Tb 0.34065 0.89024 0.91975 0.0
N600 N 0.34186 0.93883 0.8566 0.0
C601 C 0.34218 -0.00036 0.78671 0.0
C602 C 0.35952 0.94852 0.79813 0.0
C603 C 0.36086 0.97967 0.76327 0.0
H604 H 0.28694 0.87782 1.048 0.0
H605 H 0.37674 -0.01142 0.71873 0.0
H606 H 0.50961 0.89665 0.9416 0.0
H607 H 0.33654 0.6885 0.98863 0.0
H608 H 0.37379 0.93326 0.77876 0.0
H609 H 0.34419 0.02436 0.76054 0.0
H610 H 0.35685 0.75512 1.02947 0.0
H611 H 0.25157 0.90868 1.09719 0.0
H612 H 0.30251 0.03132 0.84516 0.0
H613 H 0.26912 0.0102 0.94895 0.0
H614 H 0.55115 0.88803 0.86358 0.0
H615 H 0.25001 0.96445 1.0435 0.0
H616 H 0.35417 0.68051 0.87864 0.0
N617 N 0.45622 0.84552 0.91201 0.0
C618 C 0.44119 0.81176 0.8768 0.0
C619 C 0.51993 0.86753 0.86467 0.0
C620 C 0.46336 0.80747 0.82795 0.0
C621 C 0.49595 0.87233 0.90897 0.0
C622 C 0.50328 0.83617 0.8217 0.0
N623 N 0.38635 0.7846 0.94516 0.0
C624 C 0.36474 0.7518 0.98208 0.0
C625 C 0.39076 0.74365 0.86414 0.0
C626 C 0.40433 0.7807 0.89287 0.0
C627 C 0.36353 0.70981 0.89714 0.0
C628 C 0.35298 0.71404 0.9587 0.0
H629 H 0.52184 0.83338 0.78623 0.0
H630 H 0.46064 0.77101 0.74861 0.0
H631 H 0.39613 0.71403 0.78219 0.0
O632 O 0.40269 0.82967 1.07067 0.0
O633 O 0.42432 0.86754 0.87165 0.0
O634 O 0.37488 0.88045 0.83406 0.0
O635 O 0.46072 0.85736 1.02716 0.0
O636 O 0.34509 0.80525 0.97353 0.0
O637 O 0.31968 0.84491 0.99777 0.0
O638 O 0.28143 0.86413 0.8918 0.0
O639 O 0.36674 0.91722 1.02074 0.0
O640 O 0.41509 0.89938 1.04591 0.0
O641 O 0.31656 0.83632 0.86981 0.0
O642 O 0.39851 0.94046 0.9004 0.0
O643 O 0.40013 0.89415 0.94951 0.0
C644 C 0.40601 0.87416 0.82256 0.0
C645 C 0.43894 0.79704 1.08513 0.0
C646 C 0.39945 0.72841 1.12106 0.0
C647 C 0.42364 0.71811 1.08654 0.0
C648 C 0.46292 0.78637 1.04999 0.0
C649 C 0.45561 0.74725 1.05166 0.0
C650 C 0.40872 0.76811 1.12297 0.0
C651 C 0.31465 0.80867 0.99269 0.0
C652 C 0.43837 0.83431 1.07281 0.0
C653 C 0.44533 0.77363 0.78959 0.0
C654 C 0.40877 0.74141 0.80813 0.0
C655 C 0.3966 0.92083 1.05946 0.0
C656 C 0.2708 0.83275 0.79269 0.0
C657 C 0.26366 0.86378 0.69722 0.0
C658 C 0.25537 0.82994 0.66214 0.0
C659 C 0.26256 0.79902 0.75742 0.0
C660 C 0.26992 0.86436 0.76249 0.0
C661 C 0.25402 0.79731 0.6926 0.0
C662 C 0.42115 0.92905 0.92449 0.0
C663 C 0.28345 0.8366 0.85934 0.0
H664 H 0.4175 0.68778 1.08576 0.0
H665 H 0.48616 0.80765 1.01936 0.0
H666 H 0.4739 0.73919 1.02398 0.0
H667 H 0.38979 0.7758 1.14987 0.0
H668 H 0.25074 0.82912 0.61139 0.0
H669 H 0.26362 0.77452 0.77965 0.0
H670 H 0.27666 0.89082 0.78881 0.0
H671 H 0.2477 0.7712 0.66562 0.0
Tb672 Tb 0.54174 0.41463 0.32179 0.0
C673 C 0.3697 0.28785 0.37598 0.0
N674 N 0.39732 0.28761 0.33639 0.0
C675 C 0.3787 0.22203 0.3731 0.0
C676 C 0.34737 0.25614 0.41818 0.0
C677 C 0.3991 0.25358 0.33097 0.0
C678 C 0.35324 0.2236 0.41778 0.0
C679 C 0.33508 0.32119 0.41416 0.0
C680 C 0.36319 0.31973 0.37369 0.0
C681 C 0.31301 0.28974 0.45613 0.0
C682 C 0.31929 0.25741 0.4584 0.0
Tb683 Tb 0.42855 0.34129 0.26872 0.0
N684 N 0.38705 0.35092 0.33541 0.0
C685 C 0.33112 0.35493 0.41317 0.0
C686 C 0.384 0.3844 0.33611 0.0
C687 C 0.35599 0.38682 0.37447 0.0
H688 H 0.41403 0.24933 0.29197 0.0
H689 H 0.35423 0.41367 0.37529 0.0
H690 H 0.57377 0.49918 0.39818 0.0
H691 H 0.61983 0.37046 1.1584 0.0
H692 H 0.40472 0.4101 0.30995 0.0
H693 H 0.31001 0.35723 0.44379 0.0
H694 H 0.56634 0.35984 0.23311 0.0
H695 H 0.3815 0.19587 0.36958 0.0
H696 H 0.29137 0.29039 0.4876 0.0
H697 H 0.30205 0.23336 0.49111 0.0
H698 H 0.63083 0.56798 0.39487 0.0
H699 H 0.33693 0.1988 0.44966 0.0
H700 H 0.6757 0.4374 1.13949 0.0
N701 N 0.59322 0.47948 0.32064 0.0
C702 C 0.62335 0.48835 0.27968 0.0
C703 C 0.62876 0.54604 0.36131 0.0
C704 C 0.65655 0.52688 0.27571 0.0
C705 C 0.59647 0.50739 0.36298 0.0
C706 C 0.65873 0.55595 0.31682 0.0
N707 N 0.59116 0.42094 0.25452 0.0
C708 C 0.59064 0.38934 0.2254 0.0
C709 C 0.65369 0.46515 0.20393 0.0
C710 C 0.6223 0.45796 0.24532 0.0
C711 C 0.65229 0.43317 1.17189 0.0
C712 C 0.62073 0.39514 0.18288 0.0
H713 H 0.68419 0.58555 0.31638 0.0
H714 H 0.71285 0.56412 0.22891 0.0
H715 H 0.71013 0.5099 1.16527 0.0
O716 O 0.55034 0.37513 0.37795 0.0
O717 O 0.53978 0.41776 0.21197 0.0
O718 O 0.47478 0.36938 1.17921 0.0
O719 O 0.56743 0.43395 0.41158 0.0
O720 O 0.52364 0.35078 0.32626 0.0
O721 O 0.46603 0.31294 0.26817 0.0
O722 O 0.3749 0.32996 0.22954 0.0
O723 O 0.4397 0.36576 0.37608 0.0
O724 O 0.49797 0.4266 0.38249 0.0
O725 O 0.39745 0.29138 0.20842 0.0
O726 O 0.44051 0.3966 0.22987 0.0
O727 O 0.48573 0.40133 0.2913 0.0
C728 C 0.51351 0.39859 1.16419 0.0
C729 C 0.53119 0.38031 0.48144 0.0
C730 C 0.47941 0.32027 0.53189 0.0
C731 C 0.46531 0.34322 0.56157 0.0
C732 C 0.51837 0.40285 0.51532 0.0
C733 C 0.4855 0.38425 0.55472 0.0
C734 C 0.51294 0.33936 0.49299 0.0
C735 C 0.49614 0.31647 0.30244 0.0
C736 C 0.55862 0.39802 0.42746 0.0
C737 C 0.68733 0.53464 0.23308 0.0
C738 C 0.68583 0.50379 0.19701 0.0
C739 C 0.46066 0.40194 0.40509 0.0
C740 C 0.35281 0.29512 1.13389 0.0
C741 C 0.31084 0.30726 1.06215 0.0
C742 C 0.31173 0.2805 1.01856 0.0
C743 C 0.35385 0.26875 1.08965 0.0
C744 C 0.33138 0.31433 1.11942 0.0
C745 C 0.33353 0.26171 1.03207 0.0
C746 C 0.47354 0.42023 0.25553 0.0
C747 C 0.36908 0.29905 0.19828 0.0
H748 H 0.44024 0.32992 0.59363 0.0
H749 H 0.5324 0.43464 0.50913 0.0
H750 H 0.4756 0.40183 0.5802 0.0
H751 H 0.52441 0.32219 0.47148 0.0
H752 H 0.296 0.27452 0.97392 0.0
H753 H 0.36953 0.25297 1.10011 0.0
H754 H 0.32941 0.334 1.15373 0.0
H755 H 0.33425 0.24125 0.99817 0.0
Tb756 Tb 0.11052 0.54896 0.65026 0.0
C757 C 0.02693 0.36737 0.66352 0.0
N758 N 0.06387 0.39684 0.67838 0.0
C759 C 0.06135 0.36396 0.77616 0.0
C760 C 0.00455 0.33621 0.70614 0.0
C761 C 0.08223 0.39449 0.7323 0.0
C762 C 0.02204 0.33514 0.76364 0.0
C763 C 0.97462 0.33782 0.58563 0.0
C764 C 0.01251 0.36807 0.60426 0.0
C765 C 0.95088 0.30785 0.62914 0.0
C766 C 0.96594 0.30691 0.68926 0.0
Tb767 Tb 0.09284 0.44888 0.60862 0.0
N768 N 0.03675 0.39724 0.56369 0.0
C769 C 0.96216 0.33825 0.52359 0.0
C770 C 0.02639 0.39511 0.50107 0.0
C771 C -0.01155 0.36662 0.48082 0.0
H772 H 0.11237 0.41702 0.74264 0.0
H773 H 0.97931 0.3669 0.43251 0.0
H774 H 0.02396 0.54007 0.59866 0.0
H775 H 0.26029 0.67257 0.64017 0.0
H776 H 0.04656 0.41678 0.46737 0.0
H777 H 0.93281 0.31622 0.50787 0.0
H778 H 0.20813 0.60537 0.66816 0.0
H779 H 0.07547 0.36287 0.81977 0.0
H780 H 0.92139 0.28467 0.6161 0.0
H781 H 0.94787 0.28301 0.7217 0.0
H782 H 0.00438 0.57668 0.5264 0.0
H783 H 0.00586 0.3117 0.79784 0.0
H784 H 0.24278 0.71694 0.58121 0.0
N785 N 0.08545 0.58367 0.59775 0.0
C786 C 0.11265 0.62082 0.57821 0.0
C787 C 0.03484 0.58959 0.54177 0.0
C788 C 0.10157 0.64444 0.54262 0.0
C789 C 0.04653 0.56839 0.58141 0.0
C790 C 0.06218 0.62814 0.52402 0.0
N791 N 0.16187 0.61007 0.62236 0.0
C792 C 0.20029 0.62352 0.64012 0.0
C793 C 0.18102 0.67352 0.57502 0.0
C794 C 0.15202 0.63468 0.59203 0.0
C795 C 0.22025 0.68706 0.59239 0.0
C796 C 0.23002 0.66206 0.62535 0.0
H797 H 0.05272 0.64503 0.4958 0.0
H798 H 0.12223 0.70162 0.49787 0.0
H799 H 0.19192 0.72764 0.52815 0.0
O800 O 0.13365 0.55423 0.74144 0.0
O801 O 0.11936 0.55399 0.54391 0.0
O802 O 0.10484 0.49033 0.51559 0.0
O803 O 0.1082 0.59034 0.71146 0.0
O804 O 0.16316 0.53945 0.63784 0.0
O805 O 0.13523 0.48145 0.6848 0.0
O806 O 0.10599 0.40412 0.58822 0.0
O807 O 0.0563 0.44483 0.70173 0.0
O808 O 0.05904 0.50478 0.71669 0.0
O809 O 0.14913 0.46465 0.57058 0.0
O810 O 0.06099 0.46652 0.55022 0.0
O811 O 0.05118 0.50099 0.62672 0.0
C812 C 0.11445 0.52849 0.49792 0.0
C813 C 0.16487 0.62079 0.77836 0.0
C814 C 0.2327 0.65201 0.81931 0.0
C815 C 0.233 0.68799 0.82549 0.0
C816 C 0.16577 0.65714 0.78399 0.0
C817 C 0.19968 0.6905 0.80741 0.0
C818 C 0.19845 0.61873 0.79611 0.0
C819 C 0.16833 0.5134 0.67036 0.0
C820 C 0.1293 0.58485 0.75439 0.0
C821 C 0.13032 0.68301 0.52483 0.0
C822 C 0.16997 0.69772 0.54171 0.0
C823 C 0.0444 0.46671 0.73599 0.0
C824 C 0.14625 0.41758 0.49814 0.0
C825 C 0.11685 0.38359 0.39943 0.0
C826 C 0.15358 0.40504 0.36886 0.0
C827 C 0.18333 0.4384 0.46808 0.0
C828 C 0.11375 0.3891 0.46395 0.0
C829 C 0.18701 0.43164 0.40376 0.0
C830 C 0.03988 0.47952 0.57491 0.0
C831 C 0.14001 0.42806 0.56245 0.0
H832 H 0.25844 0.71365 0.84568 0.0
H833 H 0.14023 0.65969 0.77089 0.0
H834 H 0.19974 0.71813 0.81281 0.0
H835 H 0.19747 0.59047 0.79393 0.0
H836 H 0.15615 0.40182 0.31835 0.0
H837 H 0.20898 0.46054 0.49371 0.0
H838 H 0.08483 0.37302 0.48616 0.0
H839 H 0.21546 0.44812 0.38041 0.0
Tb840 Tb 0.54804 0.10774 0.97108 0.0
C841 C 0.64234 0.00628 0.93862 0.0
N842 N 0.64999 0.0415 0.96297 0.0
C843 C 0.68903 0.03543 1.04585 0.0
C844 C 0.65659 0.98336 0.96824 0.0
C845 C 0.67485 0.05735 1.01392 0.0
C846 C 0.67938 -0.00204 1.02341 0.0
C847 C 0.61711 0.96007 0.85131 0.0
C848 C 0.62292 -0.00514 0.88121 0.0
C849 C 0.62959 0.93606 0.88186 0.0
C850 C 0.64923 0.94765 0.94029 0.0
Tb851 Tb 0.62886 0.07707 0.90532 0.0
N852 N 0.61242 0.01944 0.85251 0.0
C853 C 0.59992 0.95098 0.79092 0.0
C854 C 0.59744 0.0116 0.79217 0.0
C855 C 0.59026 0.97698 0.76108 0.0
H856 H 0.68279 0.08663 1.03067 0.0
H857 H 0.57787 0.97069 0.71371 0.0
H858 H 0.45631 0.03483 0.93202 0.0
H859 H 0.62681 0.26376 0.91455 0.0
H860 H 0.59118 0.03194 0.76713 0.0
H861 H 0.59455 0.92433 0.76655 0.0
H862 H 0.62033 0.20432 0.959 0.0
H863 H 0.70767 0.04758 1.08728 0.0
H864 H 0.62498 0.90894 0.85999 0.0
H865 H 0.65969 0.92944 0.96243 0.0
H866 H 0.40007 0.02922 0.87502 0.0
H867 H 0.69083 0.98123 1.04764 0.0
H868 H 0.57447 0.26217 0.84726 0.0
N869 N 0.49416 0.0964 0.91117 0.0
C870 C 0.49654 0.12909 0.88325 0.0
C871 C 0.42703 0.05733 0.87538 0.0
C872 C 0.46413 0.12687 0.84961 0.0
C873 C 0.45979 0.06068 0.90752 0.0
C874 C 0.42905 0.09037 0.84599 0.0
N875 N 0.56299 0.1657 0.91976 0.0
C876 C 0.59677 0.20122 0.92928 0.0
C877 C 0.53537 0.1992 0.85939 0.0
C878 C 0.53199 0.16477 0.88765 0.0
C879 C 0.57062 0.23496 0.86724 0.0
C880 C 0.60084 0.23597 0.90365 0.0
H881 H 0.40335 0.08748 0.8212 0.0
H882 H 0.4431 0.15989 0.79493 0.0
H883 H 0.5054 0.22333 0.80391 0.0
O884 O 0.55113 0.14434 1.04623 0.0
O885 O 0.55167 0.10871 0.85807 0.0
O886 O 0.59462 0.08695 0.81981 0.0
O887 O 0.49573 0.09401 1.02165 0.0
O888 O 0.61206 0.14716 1.0032 0.0
O889 O 0.6578 0.1366 0.94728 0.0
O890 O 0.69041 0.11685 0.91116 0.0
O891 O 0.60292 0.04809 1.00725 0.0
O892 O 0.55655 0.06644 1.04403 0.0
O893 O 0.66141 0.0942 0.82081 0.0
O894 O 0.57791 0.07547 0.92285 0.0
O895 O 0.51894 0.04516 0.95594 0.0
C896 C 0.56748 0.0991 0.80792 0.0
C897 C 0.49645 0.15445 1.03937 0.0
C898 C 0.5097 0.22264 1.03081 0.0
C899 C 0.47184 0.20884 1.00502 0.0
C900 C 0.45843 0.14094 1.01389 0.0
C901 C 0.4464 0.1681 0.99647 0.0
C902 C 0.52128 0.19509 1.04831 0.0
C903 C 0.64931 0.15804 0.98579 0.0
C904 C 0.5128 0.12779 1.05052 0.0
C905 C 0.46769 0.16103 0.82087 0.0
C906 C 0.50321 0.19712 0.82582 0.0
C907 C 0.57628 0.04588 1.0529 0.0
C908 C 0.7209 0.09332 0.83931 0.0
C909 C 0.72777 0.0391 0.79413 0.0
C910 C 0.76213 0.05118 0.83046 0.0
C911 C 0.75574 0.10542 0.8744 0.0
C912 C 0.70799 0.06087 0.798 0.0
C913 C 0.77635 0.0846 0.86954 0.0
C914 C 0.54493 0.04252 0.92343 0.0
C915 C 0.69506 0.11051 0.85165 0.0
H916 H 0.46174 0.22938 0.99296 0.0
H917 H 0.43846 0.10965 1.00597 0.0
H918 H 0.41721 0.15749 0.97645 0.0
H919 H 0.54995 0.20532 1.07026 0.0
H920 H 0.77796 0.03493 0.82851 0.0
H921 H 0.76632 0.13016 0.90689 0.0
H922 H 0.681 0.05092 0.77104 0.0
H923 H 0.80293 0.09384 0.89733 0.0
Tb924 Tb 0.42458 0.56139 0.30318 0.0
C925 C 0.61335 0.65183 0.28929 0.0
N926 N 0.58638 0.65956 0.31596 0.0
C927 C 0.62829 0.687 0.40732 0.0
C928 C 0.64856 0.66032 0.32107 0.0
C929 C 0.59412 0.67861 0.37317 0.0
C930 C 0.6554 0.67728 0.38155 0.0
C931 C 0.6353 0.63276 0.19559 0.0
C932 C 0.6069 0.63853 0.22789 0.0
C933 C 0.66959 0.63905 0.22776 0.0
C934 C 0.67632 0.65304 0.29041 0.0
Tb935 Tb 0.52869 0.64028 0.26111 0.0
N936 N 0.57428 0.63463 0.19827 0.0
C937 C 0.62922 0.62266 1.13131 0.0
C938 C 0.57031 0.62852 1.13392 0.0
C939 C 0.59703 0.62146 1.09998 0.0
H940 H 0.57306 0.6859 0.39339 0.0
H941 H 0.59303 0.61554 1.04956 0.0
H942 H 0.41545 0.47316 0.28379 0.0
H943 H 0.36161 0.6293 1.14795 0.0
H944 H 0.54598 0.62816 1.10872 0.0
H945 H 0.6502 0.61772 1.10479 0.0
H946 H 0.41112 0.63086 0.21878 0.0
H947 H 0.6337 0.70096 0.45341 0.0
H948 H 0.69167 0.6345 0.204 0.0
H949 H 0.7035 0.65913 0.31406 0.0
H950 H 0.36859 0.4101 0.22822 0.0
H951 H 0.68199 0.68407 0.40781 0.0
H952 H 0.30324 0.5668 1.11818 0.0
N953 N 0.38199 0.50084 0.26074 0.0
C954 C 0.35023 0.49795 0.22849 0.0
C955 C 0.36249 0.43415 0.23153 0.0
C956 C 0.32181 0.46182 0.20085 0.0
C957 C 0.38904 0.46991 0.26136 0.0
C958 C 0.32789 0.4295 0.2041 0.0
N959 N 0.38087 0.56779 0.23504 0.0
C960 C 0.38512 0.60253 0.21079 0.0
C961 C 0.31984 0.53117 1.17502 0.0
C962 C 0.34924 0.53251 0.21605 0.0
C963 C 0.32395 0.56663 1.15234 0.0
C964 C 0.35701 0.60219 1.16925 0.0
H965 H 0.3073 0.40154 0.18214 0.0
H966 H 0.26777 0.43226 1.14542 0.0
H967 H 0.26614 0.49314 1.12243 0.0
O968 O 0.40975 0.57786 0.38853 0.0
O969 O 0.42627 0.55884 0.19679 0.0
O970 O 0.48621 0.61372 1.16917 0.0
O971 O 0.37491 0.518 0.35436 0.0
O972 O 0.44041 0.6249 0.30633 0.0
O973 O 0.50044 0.64771 0.34469 0.0
O974 O 0.57062 0.70036 0.25256 0.0
O975 O 0.52981 0.6075 0.35586 0.0
O976 O 0.46638 0.55567 0.37734 0.0
O977 O 0.51107 0.67912 0.22078 0.0
O978 O 0.50869 0.5888 0.20976 0.0
O979 O 0.46992 0.54489 0.2859 0.0
C980 C 0.44968 0.5825 1.15144 0.0
C981 C 0.34096 0.54857 0.40148 0.0
C982 C 0.31593 0.59095 0.44025 0.0
C983 C 0.28152 0.56993 0.4039 0.0
C984 C 0.30612 0.52713 0.36557 0.0
C985 C 0.27641 0.5376 0.36742 0.0
C986 C 0.34448 0.57903 0.44048 0.0
C987 C 0.47078 0.65358 0.33585 0.0
C988 C 0.37651 0.54434 0.39392 0.0
C989 C 0.29021 0.45994 1.166 0.0
C990 C 0.28927 0.49461 1.15297 0.0
C991 C 0.50525 0.57668 0.39452 0.0
C992 C 0.56353 0.72745 1.15777 0.0
C993 C 0.60925 0.73881 1.07004 0.0
C994 C 0.593 0.75864 1.03669 0.0
C995 C 0.5477 0.74742 1.12418 0.0
C996 C 0.5946 0.72411 1.13071 0.0
C997 C 0.5627 0.76326 1.06406 0.0
C998 C 0.49397 0.55529 0.23675 0.0
C999 C 0.54742 0.7086 0.21985 0.0
H1000 H 0.25926 0.57885 0.40284 0.0
H1001 H 0.30223 0.50316 0.33501 0.0
H1002 H 0.24996 0.52141 0.33889 0.0
H1003 H 0.37136 0.59579 0.46799 0.0
H1004 H 0.60354 0.77046 0.98969 0.0
H1005 H 0.52373 0.75048 1.14412 0.0
H1006 H 0.60659 0.70847 1.15635 0.0
H1007 H 0.55044 0.77867 1.03817 0.0
C1008 C 0.52156 0.24318 0.38731 0.0
C1009 C 0.49645 0.20669 0.35745 0.0
H1010 H 0.54507 0.30609 0.38862 0.0
C1011 C 0.47639 0.20827 0.30257 0.0
H1012 H 0.53958 0.24424 0.42726 0.0
C1013 C 0.47712 0.24347 0.28358 0.0
C1014 C 0.49926 0.27939 0.31701 0.0
H1015 H 0.45995 0.18213 0.27374 0.0
H1016 H 0.46064 0.24254 0.24162 0.0
C1017 C 0.52385 0.27886 0.36612 0.0
C1018 C 0.24621 0.47753 0.68575 0.0
C1019 C 0.2839 0.51247 0.68837 0.0
H1020 H 0.18248 0.45023 0.68234 0.0
C1021 C 0.28287 0.54834 0.68372 0.0
H1022 H 0.24441 0.44894 0.688 0.0
C1023 C 0.24647 0.54901 0.67599 0.0
C1024 C 0.20871 0.51394 0.67582 0.0
H1025 H 0.31041 0.57624 0.68504 0.0
H1026 H 0.24813 0.57738 0.67111 0.0
C1027 C 0.20995 0.47828 0.68178 0.0
C1028 C 0.71765 0.26131 1.07029 0.0
C1029 C 0.75585 0.27405 1.04412 0.0
H1030 H 0.65509 0.21646 1.07426 0.0
C1031 C 0.75724 0.24839 0.99809 0.0
H1032 H 0.71423 0.27974 1.10519 0.0
C1033 C 0.72363 0.21143 0.9819 0.0
C1034 C 0.68541 0.19804 1.00819 0.0
H1035 H 0.78482 0.25692 0.97373 0.0
H1036 H 0.72778 0.19374 0.94655 0.0
C1037 C 0.68333 0.22438 1.05266 0.0
C1038 C 0.51248 0.72873 0.35745 0.0
C1039 C 0.47543 0.69488 0.34386 0.0
H1040 H 0.54596 0.79173 0.37414 0.0
C1041 C 0.44302 0.70135 0.33708 0.0
H1042 H 0.53848 0.72573 0.36329 0.0
C1043 C 0.44722 0.73965 0.34392 0.0
C1044 C 0.48428 0.77354 0.35696 0.0
H1045 H 0.41398 0.67631 0.32764 0.0
H1046 H 0.42119 0.7427 0.33967 0.0
C1047 C 0.51685 0.76708 0.3633 0.0
C1048 C 0.70925 0.4651 0.76123 0.0
C1049 C 0.68907 0.47725 0.71874 0.0
H1050 H 0.76013 0.45806 0.78005 0.0
C1051 C 0.70631 0.4889 0.65769 0.0
H1052 H 0.69768 0.45586 0.80873 0.0
C1053 C 0.74146 0.48842 0.64004 0.0
C1054 C 0.7628 0.47795 0.68312 0.0
H1055 H 0.6926 0.49866 0.62292 0.0
H1056 H 0.75253 0.49732 0.59222 0.0
C1057 C 0.74543 0.46613 0.74434 0.0
C1058 C 0.23721 0.7638 0.98401 0.0
C1059 C 0.2743 0.77034 1.00694 0.0
H1060 H 0.17403 0.7237 0.97282 0.0
C1061 C 0.27248 0.73796 1.04076 0.0
H1062 H 0.23596 0.78718 0.9583 0.0
C1063 C 0.23663 0.70099 1.04905 0.0
C1064 C 0.19978 0.6939 1.02455 0.0
H1065 H 0.29891 0.74151 1.06288 0.0
H1066 H 0.23794 0.67789 1.0755 0.0
C1067 C 0.20113 0.7267 0.99231 0.0
C1068 C 0.57644 0.27976 1.04846 0.0
C1069 C 0.53511 0.26407 1.05197 0.0
H1070 H 0.62763 0.29436 1.10528 0.0
C1071 C 0.52026 0.2759 1.10278 0.0
H1072 H 0.58916 0.27318 1.00794 0.0
C1073 C 0.54292 0.28976 1.1579 0.0
C1074 C 0.57987 0.29188 1.16119 0.0
H1075 H 0.489 0.26656 1.10548 0.0
H1076 H 0.52915 0.29247 0.20014 0.0
C1077 C 0.59855 0.29167 1.10449 0.0
C1078 C 0.35939 0.66172 0.44876 0.0
C1079 C 0.32644 0.62799 0.47417 0.0
H1080 H 0.42149 0.70168 0.46215 0.0
C1081 C 0.3227 0.62493 0.54035 0.0
H1082 H 0.36236 0.66526 0.39807 0.0
C1083 C 0.35651 0.64647 0.57776 0.0
C1084 C 0.39346 0.6704 0.54814 0.0
H1085 H 0.29683 0.60027 0.56173 0.0
H1086 H 0.35519 0.63837 0.62717 0.0
C1087 C 0.39369 0.68214 0.48538 0.0
C1088 C 0.68351 0.28395 0.76307 0.0
C1089 C 0.68857 0.28077 0.82823 0.0
H1090 H 0.7042 0.27954 0.67117 0.0
C1091 C 0.69855 0.25246 0.84829 0.0
H1092 H 0.67268 0.30295 0.74599 0.0
C1093 C 0.71678 0.23914 0.80565 0.0
C1094 C 0.72419 0.25424 0.74364 0.0
H1095 H 0.69994 0.2475 0.89834 0.0
H1096 H 0.73248 0.22496 0.82458 0.0
C1097 C 0.70102 0.26992 0.72008 0.0
C1098 C 0.32717 0.69446 1.14007 0.0
C1099 C 0.36433 0.69942 1.15696 0.0
H1100 H 0.27815 0.69981 1.17339 0.0
C1101 C 0.37046 0.69266 0.21988 0.0
H1102 H 0.32071 0.69738 1.0913 0.0
C1103 C 0.34482 0.69185 0.2669 0.0
C1104 C 0.31481 0.70024 0.25049 0.0
H1105 H 0.39846 0.69538 0.23323 0.0
H1106 H 0.35434 0.69493 0.31556 0.0
C1107 C 0.30223 0.69503 0.18723 0.0
C1108 C 0.48963 0.26826 0.58043 0.0
C1109 C 0.46328 0.27838 0.5515 0.0
H1110 H 0.50193 0.24834 0.66748 0.0
C1111 C 0.42288 0.25585 0.56753 0.0
H1112 H 0.52047 0.28276 0.56647 0.0
C1113 C 0.41241 0.2353 0.62521 0.0
C1114 C 0.44305 0.24074 0.66656 0.0
H1115 H 0.40115 0.26076 0.5433 0.0
H1116 H 0.38301 0.22567 0.64368 0.0
C1117 C 0.4788 0.24796 0.63842 0.0
C1118 C 0.27498 0.58974 0.85406 0.0
C1119 C 0.26762 0.58777 0.91947 0.0
H1120 H 0.27149 0.61621 0.76706 0.0
C1121 C 0.27313 0.62229 0.94962 0.0
H1122 H 0.27301 0.56439 0.82959 0.0
C1123 C 0.26837 0.64997 0.91415 0.0
C1124 C 0.26348 0.64531 0.84829 0.0
H1125 H 0.27022 0.62264 1.00063 0.0
H1126 H 0.26228 0.67066 0.93898 0.0
C1127 C 0.27337 0.61916 0.81815 0.0
C1128 C 0.42985 -0.00436 1.10649 0.0
C1129 C 0.4128 0.95369 1.11653 0.0
H1130 H 0.45735 0.05622 1.14354 0.0
C1131 C 0.41164 0.94479 0.18297 0.0
H1132 H 0.43224 0.00601 1.05813 0.0
C1133 C 0.42537 0.9745 0.2337 0.0
C1134 C 0.44361 0.01655 0.22356 0.0
H1135 H 0.39919 0.91405 0.19662 0.0
H1136 H 0.42226 0.96407 0.28215 0.0
C1137 C 0.44486 0.02547 1.15712 0.0
C1138 C 0.4528 0.45586 0.47779 0.0
C1139 C 0.44154 0.4155 0.46391 0.0
H1140 H 0.44561 0.49954 0.53268 0.0
C1141 C 0.41102 0.3894 0.50806 0.0
H1142 H 0.4742 0.47839 0.44662 0.0
C1143 C 0.39528 0.40244 0.56112 0.0
C1144 C 0.40759 0.44323 0.57554 0.0
H1145 H 0.39966 0.35792 0.50309 0.0
H1146 H 0.37326 0.3798 0.59166 0.0
C1147 C 0.43637 0.46863 0.52952 0.0
C1148 C 0.0207 0.45178 0.86206 0.0
C1149 C 0.01124 0.44762 0.79509 0.0
H1150 H 0.00298 0.44331 0.96249 0.0
C1151 C 0.96843 0.42588 0.78816 0.0
H1152 H 0.05176 0.46704 0.87491 0.0
C1153 C 0.93926 0.41287 0.84053 0.0
C1154 C 0.9488 0.41826 0.9072 0.0
H1155 H 0.95633 0.41928 0.74104 0.0
H1156 H 0.9082 0.39762 0.82791 0.0
C1157 C -0.00856 0.43778 0.91459 0.0
C1158 C 0.521 0.982 0.21515 0.0
C1159 C 0.54027 0.96074 0.23701 0.0
H1160 H 0.51552 0.02254 1.14926 0.0
C1161 C 0.57296 0.96915 0.19488 0.0
H1162 H 0.49647 0.979 0.24312 0.0
C1163 C 0.58418 -0.00507 1.13771 0.0
C1164 C 0.56481 0.01644 1.11642 0.0
H1165 H 0.59026 0.9551 0.20541 0.0
H1166 H 0.60898 -0.0019 1.11 0.0
C1167 C 0.53258 0.0082 1.15911 0.0
C1168 C 0.52437 0.54821 0.57737 0.0
C1169 C 0.54878 0.52987 0.57335 0.0
H1170 H 0.49247 0.57538 0.53275 0.0
C1171 C 0.56086 0.53131 0.50824 0.0
H1172 H 0.51412 0.55056 0.624 0.0
C1173 C 0.54863 0.54721 0.45403 0.0
C1174 C 0.52197 0.56274 0.45706 0.0
H1175 H 0.58122 0.52066 0.49908 0.0
H1176 H 0.56024 0.54732 0.40785 0.0
C1177 C 0.5116 0.56334 0.52278 0.0
C1178 C 0.00667 0.53302 0.86807 0.0
C1179 C 0.01284 0.56395 0.91177 0.0
H1180 H 0.97697 0.49568 0.78542 0.0
C1181 C -0.01332 0.57892 0.89488 0.0
H1182 H 0.02599 0.52085 0.87313 0.0
C1183 C 0.95735 0.56373 0.84232 0.0
C1184 C 0.94998 0.53123 0.80073 0.0
H1185 H -0.01164 0.60283 0.9232 0.0
H1186 H 0.93949 0.57757 0.83533 0.0
C1187 C 0.97725 0.51772 0.81623 0.0
C1188 C 0.51907 0.0266 0.39064 0.0
C1189 C 0.4972 0.03088 0.43874 0.0
H1190 H 0.55717 0.00519 0.36454 0.0
C1191 C 0.49845 0.01869 0.50076 0.0
H1192 H 0.51481 0.03101 0.34185 0.0
C1193 C 0.51859 -0.00163 0.51174 0.0
C1194 C 0.53503 -0.01024 0.45951 0.0
H1195 H 0.48124 0.02161 0.53855 0.0
H1196 H 0.51403 0.98275 0.55633 0.0
C1197 C 0.54302 0.01115 0.40389 0.0
C1198 C 0.45094 0.45574 0.86062 0.0
C1199 C 0.42843 0.4445 0.80487 0.0
H1200 H 0.51057 0.48455 0.8954 0.0
C1201 C 0.44137 0.43289 0.75234 0.0
H1202 H 0.43979 0.46226 0.90332 0.0
C1203 C 0.48162 0.45049 0.74442 0.0
C1204 C 0.50696 0.47101 0.79495 0.0
H1205 H 0.42253 0.42074 0.71104 0.0
H1206 H 0.49206 0.45004 0.69767 0.0
C1207 C 0.49139 0.46991 0.8553 0.0
C1208 C 0.94241 0.48868 1.07468 0.0
C1209 C 0.93273 0.46217 1.12465 0.0
H1210 H 0.97887 0.54719 1.0426 0.0
C1211 C 0.94828 0.4756 0.18542 0.0
H1212 H 0.93513 0.47874 1.0267 0.0
C1213 C 0.97894 0.51428 0.19213 0.0
C1214 C -0.0075 0.53785 1.13777 0.0
H1215 H 0.94144 0.45509 0.2245 0.0
H1216 H -0.0035 0.52265 0.23519 0.0
C1217 C 0.96927 0.52795 1.08362 0.0
C1218 C -0.01131 0.47398 0.50479 0.0
C1219 C -0.0008 0.45912 0.55696 0.0
H1220 H 0.95264 0.49813 0.47541 0.0
C1221 C 0.97355 0.44197 0.60737 0.0
H1222 H 0.00824 0.4861 0.46419 0.0
C1223 C 0.94764 0.45532 0.61914 0.0
C1224 C 0.94034 0.47608 0.5723 0.0
H1225 H -0.01854 0.42861 0.64539 0.0
H1226 H 0.93867 0.45456 0.66726 0.0
C1227 C 0.95803 0.48199 0.5123 0.0
C1228 C 0.4895 0.94923 0.95376 0.0
C1229 C 0.46233 0.94728 0.90882 0.0
H1230 H 0.54972 0.98 0.98205 0.0
C1231 C 0.47536 0.96715 0.85076 0.0
H1232 H 0.4804 0.93228 0.99715 0.0
C1233 C 0.51498 -0.00482 0.84413 0.0
C1234 C 0.53873 0.00543 0.89837 0.0
H1235 H 0.45466 0.96422 0.81386 0.0
H1236 H 0.5234 0.0151 0.80394 0.0
C1237 C 0.52919 0.97643 0.94479 0.0
C1238 C 0.53246 0.52636 0.26404 0.0
C1239 C 0.51138 0.53298 0.21771 0.0
H1240 H 0.52911 0.48048 0.31827 0.0
C1241 C 0.49403 0.50731 1.16676 0.0
H1242 H 0.54719 0.54768 0.30161 0.0
C1243 C 0.48757 0.46937 1.17328 0.0
C1244 C 0.49793 0.45917 0.23111 0.0
H1245 H 0.47901 0.51378 1.12925 0.0
H1246 H 0.46866 0.44704 1.13927 0.0
C1247 C 0.52346 0.48808 0.27286 0.0
C1248 C 0.30854 0.92119 0.63155 0.0
C1249 C 0.27338 0.90145 0.66638 0.0
H1250 H 0.35302 0.97554 0.5927 0.0
C1251 C 0.25336 0.92167 0.68336 0.0
H1252 H 0.3256 0.90685 0.62126 0.0
C1253 C 0.26894 0.96153 0.66687 0.0
C1254 C 0.30529 0.98205 0.63428 0.0
H1255 H 0.22662 0.90707 0.71173 0.0
H1256 H 0.25299 0.97637 0.68111 0.0
C1257 C 0.32434 0.96092 0.61569 0.0
C1258 C 0.30796 0.36975 1.05685 0.0
C1259 C 0.28914 0.32853 1.0483 0.0
H1260 H 0.30514 0.42263 1.04147 0.0
C1261 C 0.25007 0.30818 1.02545 0.0
H1262 H 0.33816 0.38616 1.07419 0.0
C1263 C 0.23092 0.32903 1.0082 0.0
C1264 C 0.25078 0.37048 1.01286 0.0
H1265 H 0.23483 0.27635 1.0192 0.0
H1266 H 0.20183 0.31311 0.98655 0.0
C1267 C 0.289 0.39058 1.03898 0.0
C1268 C 0.02325 0.36511 0.32425 0.0
C1269 C -0.0019 0.32486 0.33814 0.0
H1270 H 0.0818 0.41498 0.33077 0.0
C1271 C 0.01419 0.30263 0.36355 0.0
H1272 H 0.01127 0.38309 0.30652 0.0
C1273 C 0.05469 0.32092 0.37707 0.0
C1274 C 0.07946 0.36149 0.36482 0.0
H1275 H -0.00468 0.27152 0.37456 0.0
H1276 H 0.06624 0.30412 0.40081 0.0
C1277 C 0.06361 0.38323 0.33722 0.0
C1278 C 0.70395 0.96638 0.77991 0.0
C1279 C 0.71012 0.00253 0.75498 0.0
H1280 H 0.67391 0.90317 0.76979 0.0
C1281 C 0.69425 0.00258 0.6953 0.0
H1282 H 0.71584 0.9654 0.82592 0.0
C1283 C 0.66987 0.96718 0.66395 0.0
C1284 C 0.6607 0.9305 0.69073 0.0
H1285 H 0.69898 0.02999 0.6742 0.0
H1286 H 0.65639 0.96869 0.6203 0.0
C1287 C 0.67942 0.93066 0.7481 0.0
C1288 C 0.63434 0.71667 0.97793 0.0
C1289 C 0.63836 0.72918 1.04119 0.0
H1290 H 0.65036 0.68863 0.90674 0.0
C1291 C 0.66639 0.72628 1.07964 0.0
H1292 H 0.61374 0.71913 0.94641 0.0
C1293 C 0.68584 0.70663 1.05822 0.0
C1294 C 0.67894 0.69047 0.99676 0.0
H1295 H 0.67152 0.73698 1.12805 0.0
H1296 H 0.70425 0.70219 1.09181 0.0
C1297 C 0.65477 0.69807 0.95573 0.0
C1298 C 0.06105 0.69895 0.37796 0.0
C1299 C 0.07319 0.72883 0.33234 0.0
H1300 H 0.01256 0.65295 0.4281 0.0
C1301 C 0.04568 0.73892 0.30832 0.0
H1302 H 0.0813 0.68945 0.39477 0.0
C1303 C 0.00616 0.71853 0.32867 0.0
C1304 C -0.0065 0.68723 0.3724 0.0
H1305 H 0.05438 0.76123 0.2716 0.0
H1306 H -0.01457 0.72648 0.30882 0.0
C1307 C 0.02161 0.67809 0.39705 0.0
C1308 C 0.50089 0.10033 0.65467 0.0
C1309 C 0.52185 0.10287 0.59681 0.0
H1310 H 0.49642 0.09751 0.75841 0.0
C1311 C 0.55858 0.10381 0.61219 0.0
H1312 H 0.47263 0.09918 0.65043 0.0
C1313 C 0.57253 0.10222 0.67677 0.0
C1314 C 0.55199 0.10042 0.73472 0.0
H1315 H 0.5773 0.10538 0.57307 0.0
H1316 H 0.60055 0.10283 0.68093 0.0
C1317 C 0.51528 0.09955 0.71938 0.0
C1318 C 0.43115 0.57759 0.96046 0.0
C1319 C 0.40172 0.53726 0.94571 0.0
H1320 H 0.46941 0.62313 1.02868 0.0
C1321 C 0.38934 0.51308 1.00143 0.0
H1322 H 0.44201 0.5989 0.92233 0.0
C1323 C 0.40473 0.52783 1.06487 0.0
C1324 C 0.43476 0.568 1.07934 0.0
H1325 H 0.36738 0.48207 0.99635 0.0
H1326 H 0.3929 0.50675 1.10351 0.0
C1327 C 0.4473 0.59215 1.02365 0.0
C1328 C 0.84844 0.4449 0.29939 0.0
C1329 C 0.85771 0.41434 0.28197 0.0
H1330 H 0.84202 0.48304 0.36989 0.0
C1331 C 0.86921 0.40168 0.33864 0.0
H1332 H 0.8398 0.4578 0.26154 0.0
C1333 C 0.8706 0.41697 0.40354 0.0
C1334 C 0.86067 0.44692 0.4214 0.0
H1335 H 0.87782 0.37938 0.33322 0.0
H1336 H 0.88115 0.40555 0.44059 0.0
C1337 C 0.84997 0.46027 0.36449 0.0
C1338 C 0.41951 0.87559 0.63141 0.0
C1339 C 0.45828 0.88097 0.61881 0.0
H1340 H 0.37334 0.86906 0.69743 0.0
C1341 C 0.47964 0.88558 0.67641 0.0
H1342 H 0.40088 0.87272 0.59163 0.0
C1343 C 0.4634 0.88441 0.73953 0.0
C1344 C 0.42409 0.87758 0.75187 0.0
H1345 H 0.50958 0.89066 0.67317 0.0
H1346 H 0.48264 0.88998 0.77956 0.0
C1347 C 0.40317 0.87379 0.6943 0.0
C1348 C 0.57879 0.46861 1.01234 0.0
C1349 C 0.56077 0.44848 0.95386 0.0
H1350 H 0.58089 0.47083 1.11633 0.0
C1351 C 0.52585 0.41072 0.96819 0.0
H1352 H 0.60529 0.49738 1.00901 0.0
C1353 C 0.51065 0.39515 1.03236 0.0
C1354 C 0.52903 0.41495 1.09084 0.0
H1355 H 0.50913 0.3924 0.92847 0.0
H1356 H 0.48394 0.36654 1.03569 0.0
C1357 C 0.56412 0.4526 1.07657 0.0
C1358 C 0.11479 0.57951 0.40948 0.0
C1359 C 0.11392 0.54289 0.4249 0.0
H1360 H 0.11382 0.6211 0.34005 0.0
C1361 C 0.11149 0.52148 0.36834 0.0
H1362 H 0.11642 0.59836 0.44824 0.0
C1363 C 0.11061 0.53546 0.30404 0.0
C1364 C 0.11132 0.57195 0.28841 0.0
H1365 H 0.11035 0.49328 0.37332 0.0
H1366 H 0.10886 0.51654 0.26558 0.0
C1367 C 0.11323 0.59316 0.34506 0.0
loop_
_geom_bond_atom_site_label_1
_geom_bond_atom_site_label_2
_geom_bond_distance
_geom_bond_site_symmetry_2
_ccdc_geom_bond_type
Tb0 N29 2.617 . S
Tb0 N35 2.572 . S
Tb0 O44 2.465 . S
Tb0 O45 2.387 . S
Tb0 O47 2.428 . S
Tb0 O48 2.308 . S
Tb0 O52 2.349 . S
Tb0 O55 2.393 . S
Tb0 C64 2.802 . S
C1 N2 1.379 . S
C1 C4 1.416 . S
C1 C8 1.424 . S
N2 C1 1.379 . S
N2 C5 1.334 . S
N2 Tb11 2.617 . S
C3 C5 1.390 . S
C3 C6 1.339 . S
C3 H23 0.930 . S
C4 C1 1.416 . S
C4 C6 1.416 . S
C4 C10 1.448 . S
C5 N2 1.334 . S
C5 C3 1.390 . S
C5 H16 0.930 . S
C6 C3 1.339 . S
C6 C4 1.416 . S
C6 H27 0.930 . S
C7 C8 1.413 . S
C7 C9 1.427 . S
C7 C13 1.416 1_545 S
C8 C1 1.424 . S
C8 C7 1.413 . S
C8 N12 1.361 . S
C9 C7 1.427 . S
C9 C10 1.328 . S
C9 H24 0.929 1_545 S
C10 C4 1.448 . S
C10 C9 1.328 . S
C10 H25 0.930 . S
Tb11 N2 2.617 . S
Tb11 N12 2.572 . S
Tb11 O46 2.349 . S
Tb11 O49 2.393 . S
Tb11 O50 2.465 . S
Tb11 O51 2.387 . S
Tb11 O53 2.428 . S
Tb11 O54 2.308 . S
Tb11 C75 2.802 . S
N12 C8 1.361 . S
N12 Tb11 2.572 . S
N12 C14 1.340 . S
C13 C7 1.416 1_565 S
C13 C15 1.332 . S
C13 H21 0.931 . S
C14 N12 1.340 . S
C14 C15 1.407 1_545 S
C14 H20 0.930 . S
C15 C13 1.332 . S
C15 C14 1.407 1_565 S
C15 H17 0.929 . S
H16 C5 0.930 . S
H17 C15 0.929 . S
H18 C33 0.930 . S
H19 C40 0.929 . S
H20 C14 0.930 . S
H21 C13 0.931 . S
H22 C36 0.930 . S
H23 C3 0.930 . S
H24 C9 0.929 1_565 S
H25 C10 0.930 . S
H26 C31 0.930 . S
H27 C6 0.930 . S
H28 C39 0.931 . S
N29 Tb0 2.617 . S
N29 C30 1.379 . S
N29 C33 1.334 . S
C30 N29 1.379 . S
C30 C32 1.416 . S
C30 C38 1.424 . S
C31 H26 0.930 . S
C31 C33 1.390 . S
C31 C34 1.339 . S
C32 C30 1.416 . S
C32 C34 1.416 . S
C32 C65 1.448 . S
C33 H18 0.930 . S
C33 N29 1.334 . S
C33 C31 1.390 . S
C34 C31 1.339 . S
C34 C32 1.416 . S
C34 H41 0.930 . S
N35 Tb0 2.572 . S
N35 C36 1.340 . S
N35 C38 1.361 . S
C36 H22 0.930 . S
C36 N35 1.340 . S
C36 C40 1.407 . S
C37 C38 1.413 . S
C37 C39 1.416 . S
C37 C66 1.427 . S
C38 C30 1.424 . S
C38 N35 1.361 . S
C38 C37 1.413 . S
C39 H28 0.931 . S
C39 C37 1.416 . S
C39 C40 1.332 . S
C40 H19 0.929 . S
C40 C36 1.407 . S
C40 C39 1.332 . S
H41 C34 0.930 . S
H42 C65 0.930 . S
H43 C66 0.929 . S
O44 Tb0 2.465 . S
O44 C64 1.264 . S
O45 Tb0 2.387 . S
O45 C56 1.264 . S
O46 Tb11 2.349 . S
O46 C56 1.243 . S
O47 Tb0 2.428 . S
O47 C64 1.256 . S
O48 Tb0 2.308 . S
O48 C63 1.266 . S
O49 Tb11 2.393 . S
O49 C63 1.248 . S
O50 Tb11 2.465 . S
O50 C75 1.264 . S
O51 Tb11 2.387 . S
O51 C67 1.264 . S
O52 Tb0 2.349 . S
O52 C67 1.243 . S
O53 Tb11 2.428 . S
O53 C75 1.256 . S
O54 Tb11 2.308 . S
O54 C74 1.266 . S
O55 Tb0 2.393 . S
O55 C74 1.248 . S
C56 O45 1.264 . S
C56 O46 1.243 . S
C57 C60 1.399 . S
C57 C62 1.383 . S
C57 C64 1.496 . S
C58 C59 1.399 1_554 S
C58 C62 1.389 . S
C59 C58 1.399 1_556 S
C59 C61 1.380 1_556 S
C59 H76 0.929 . S
C60 C57 1.399 . S
C60 C61 1.392 . S
C60 H77 0.929 . S
C61 C59 1.380 1_554 S
C61 C60 1.392 . S
C61 H78 0.929 . S
C62 C57 1.383 . S
C62 C58 1.389 . S
C62 H79 0.931 . S
C63 O48 1.266 . S
C63 O49 1.248 . S
C64 Tb0 2.802 . S
C64 O44 1.264 . S
C64 O47 1.256 . S
C64 C57 1.496 . S
C65 C32 1.448 . S
C65 H42 0.930 . S
C65 C66 1.328 . S
C66 C37 1.427 . S
C66 H43 0.929 . S
C66 C65 1.328 . S
C67 O51 1.264 . S
C67 O52 1.243 . S
C68 C71 1.399 . S
C68 C72 1.383 . S
C68 C75 1.496 . S
C69 C70 1.399 . S
C69 C72 1.389 . S
C70 C69 1.399 . S
C70 C73 1.380 . S
C70 H80 0.929 . S
C71 C68 1.399 . S
C71 C73 1.392 . S
C71 H81 0.929 . S
C72 C68 1.383 . S
C72 C69 1.389 . S
C72 H82 0.931 . S
C73 C70 1.380 . S
C73 C71 1.392 . S
C73 H83 0.929 . S
C74 O54 1.266 . S
C74 O55 1.248 . S
C75 Tb11 2.802 . S
C75 O50 1.264 . S
C75 O53 1.256 . S
C75 C68 1.496 . S
H76 C59 0.929 . S
H77 C60 0.929 . S
H78 C61 0.929 . S
H79 C62 0.931 . S
H80 C70 0.929 . S
H81 C71 0.929 . S
H82 C72 0.931 . S
H83 C73 0.929 . S
Tb84 N113 2.617 . S
Tb84 N119 2.572 . S
Tb84 O128 2.465 . S
Tb84 O129 2.387 . S
Tb84 O131 2.428 . S
Tb84 O132 2.308 . S
Tb84 O136 2.349 . S
Tb84 O139 2.393 . S
Tb84 C148 2.802 . S
C85 N86 1.379 . S
C85 C88 1.416 . S
C85 C92 1.424 . S
N86 C85 1.379 . S
N86 C89 1.334 . S
N86 Tb95 2.617 . S
C87 C89 1.390 . S
C87 C90 1.339 . S
C87 H107 0.930 . S
C88 C85 1.416 . S
C88 C90 1.416 . S
C88 C94 1.448 . S
C89 N86 1.334 . S
C89 C87 1.390 . S
C89 H100 0.930 . S
C90 C87 1.339 . S
C90 C88 1.416 . S
C90 H111 0.930 . S
C91 C92 1.413 . S
C91 C93 1.427 . S
C91 C97 1.416 . S
C92 C85 1.424 . S
C92 C91 1.413 . S
C92 N96 1.361 . S
C93 C91 1.427 . S
C93 C94 1.328 . S
C93 H108 0.929 . S
C94 C88 1.448 . S
C94 C93 1.328 . S
C94 H109 0.930 . S
Tb95 N86 2.617 . S
Tb95 N96 2.572 . S
Tb95 O130 2.349 . S
Tb95 O133 2.393 . S
Tb95 O134 2.465 . S
Tb95 O135 2.387 . S
Tb95 O137 2.428 . S
Tb95 O138 2.308 . S
Tb95 C159 2.802 . S
N96 C92 1.361 . S
N96 Tb95 2.572 . S
N96 C98 1.340 . S
C97 C91 1.416 . S
C97 C99 1.332 . S
C97 H105 0.931 . S
C98 N96 1.340 . S
C98 C99 1.407 . S
C98 H104 0.930 . S
C99 C97 1.332 . S
C99 C98 1.407 . S
C99 H101 0.929 . S
H100 C89 0.930 . S
H101 C99 0.929 . S
H102 C117 0.930 . S
H103 C124 0.929 . S
H104 C98 0.930 . S
H105 C97 0.931 . S
H106 C120 0.930 . S
H107 C87 0.930 . S
H108 C93 0.929 . S
H109 C94 0.930 . S
H110 C115 0.930 . S
H111 C90 0.930 . S
H112 C123 0.931 . S
N113 Tb84 2.617 . S
N113 C114 1.379 . S
N113 C117 1.334 . S
C114 N113 1.379 . S
C114 C116 1.416 . S
C114 C122 1.424 . S
C115 H110 0.930 . S
C115 C117 1.390 . S
C115 C118 1.339 . S
C116 C114 1.416 . S
C116 C118 1.416 . S
C116 C149 1.448 . S
C117 H102 0.930 . S
C117 N113 1.334 . S
C117 C115 1.390 . S
C118 C115 1.339 . S
C118 C116 1.416 . S
C118 H125 0.930 . S
N119 Tb84 2.572 . S
N119 C120 1.340 . S
N119 C122 1.361 . S
C120 H106 0.930 . S
C120 N119 1.340 . S
C120 C124 1.407 . S
C121 C122 1.413 . S
C121 C123 1.416 . S
C121 C150 1.427 . S
C122 C114 1.424 . S
C122 N119 1.361 . S
C122 C121 1.413 . S
C123 H112 0.931 . S
C123 C121 1.416 . S
C123 C124 1.332 . S
C124 H103 0.929 . S
C124 C120 1.407 . S
C124 C123 1.332 . S
H125 C118 0.930 . S
H126 C149 0.930 . S
H127 C150 0.929 . S
O128 Tb84 2.465 . S
O128 C148 1.264 . S
O129 Tb84 2.387 . S
O129 C140 1.264 . S
O130 Tb95 2.349 . S
O130 C140 1.243 . S
O131 Tb84 2.428 . S
O131 C148 1.256 . S
O132 Tb84 2.308 . S
O132 C147 1.266 . S
O133 Tb95 2.393 . S
O133 C147 1.248 . S
O134 Tb95 2.465 . S
O134 C159 1.264 . S
O135 Tb95 2.387 . S
O135 C151 1.264 . S
O136 Tb84 2.349 . S
O136 C151 1.243 . S
O137 Tb95 2.428 . S
O137 C159 1.256 . S
O138 Tb95 2.308 . S
O138 C158 1.266 . S
O139 Tb84 2.393 . S
O139 C158 1.248 . S
C140 O129 1.264 . S
C140 O130 1.243 . S
C141 C144 1.399 . S
C141 C146 1.383 . S
C141 C148 1.496 . S
C142 C143 1.399 . S
C142 C146 1.389 . S
C143 C142 1.399 . S
C143 C145 1.380 . S
C143 H160 0.929 . S
C144 C141 1.399 . S
C144 C145 1.392 . S
C144 H161 0.929 . S
C145 C143 1.380 . S
C145 C144 1.392 . S
C145 H162 0.929 . S
C146 C141 1.383 . S
C146 C142 1.389 . S
C146 H163 0.931 . S
C147 O132 1.266 . S
C147 O133 1.248 . S
C148 Tb84 2.802 . S
C148 O128 1.264 . S
C148 O131 1.256 . S
C148 C141 1.496 . S
C149 C116 1.448 . S
C149 H126 0.930 . S
C149 C150 1.328 . S
C150 C121 1.427 . S
C150 H127 0.929 . S
C150 C149 1.328 . S
C151 O135 1.264 . S
C151 O136 1.243 . S
C152 C155 1.399 . S
C152 C156 1.383 . S
C152 C159 1.496 . S
C153 C154 1.399 . S
C153 C156 1.389 . S
C154 C153 1.399 . S
C154 C157 1.380 . S
C154 H164 0.929 . S
C155 C152 1.399 . S
C155 C157 1.392 . S
C155 H165 0.929 . S
C156 C152 1.383 . S
C156 C153 1.389 . S
C156 H166 0.931 . S
C157 C154 1.380 . S
C157 C155 1.392 . S
C157 H167 0.929 . S
C158 O138 1.266 . S
C158 O139 1.248 . S
C159 Tb95 2.802 . S
C159 O134 1.264 . S
C159 O137 1.256 . S
C159 C152 1.496 . S
H160 C143 0.929 . S
H161 C144 0.929 . S
H162 C145 0.929 . S
H163 C146 0.931 . S
H164 C154 0.929 . S
H165 C155 0.929 . S
H166 C156 0.931 . S
H167 C157 0.929 . S
Tb168 N197 2.617 . S
Tb168 N203 2.572 . S
Tb168 O212 2.465 . S
Tb168 O213 2.387 . S
Tb168 O215 2.428 . S
Tb168 O216 2.308 . S
Tb168 O220 2.349 . S
Tb168 O223 2.393 . S
Tb168 C232 2.802 . S
C169 N170 1.379 . S
C169 C172 1.416 . S
C169 C176 1.424 . S
N170 C169 1.379 . S
N170 C173 1.334 . S
N170 Tb179 2.617 . S
C171 C173 1.390 . S
C171 C174 1.339 . S
C171 H191 0.930 . S
C172 C169 1.416 . S
C172 C174 1.416 . S
C172 C178 1.448 . S
C173 N170 1.334 . S
C173 C171 1.390 . S
C173 H184 0.930 . S
C174 C171 1.339 . S
C174 C172 1.416 . S
C174 H195 0.930 . S
C175 C176 1.413 . S
C175 C177 1.427 . S
C175 C181 1.416 1_655 S
C176 C169 1.424 . S
C176 C175 1.413 . S
C176 N180 1.361 . S
C177 C175 1.427 . S
C177 C178 1.328 . S
C177 H192 0.929 1_655 S
C178 C172 1.448 . S
C178 C177 1.328 . S
C178 H193 0.930 . S
Tb179 N170 2.617 . S
Tb179 N180 2.572 . S
Tb179 O214 2.349 . S
Tb179 O217 2.393 . S
Tb179 O218 2.465 1_556 S
Tb179 O219 2.387 . S
Tb179 O221 2.428 1_556 S
Tb179 O222 2.308 . S
Tb179 C243 2.802 1_556 S
N180 C176 1.361 . S
N180 Tb179 2.572 . S
N180 C182 1.340 . S
C181 C175 1.416 1_455 S
C181 C183 1.332 . S
C181 H189 0.931 . S
C182 N180 1.340 . S
C182 C183 1.407 1_655 S
C182 H188 0.930 . S
C183 C181 1.332 . S
C183 C182 1.407 1_455 S
C183 H185 0.929 . S
H184 C173 0.930 . S
H185 C183 0.929 . S
H186 C201 0.930 . S
H187 C208 0.929 . S
H188 C182 0.930 . S
H189 C181 0.931 . S
H190 C204 0.930 . S
H191 C171 0.930 . S
H192 C177 0.929 1_455 S
H193 C178 0.930 . S
H194 C199 0.930 . S
H195 C174 0.930 . S
H196 C207 0.931 . S
N197 Tb168 2.617 . S
N197 C198 1.379 . S
N197 C201 1.334 . S
C198 N197 1.379 . S
C198 C200 1.416 . S
C198 C206 1.424 . S
C199 H194 0.930 . S
C199 C201 1.390 . S
C199 C202 1.339 . S
C200 C198 1.416 . S
C200 C202 1.416 . S
C200 C233 1.448 . S
C201 H186 0.930 . S
C201 N197 1.334 . S
C201 C199 1.390 . S
C202 C199 1.339 . S
C202 C200 1.416 . S
C202 H209 0.930 . S
N203 Tb168 2.572 . S
N203 C204 1.340 . S
N203 C206 1.361 . S
C204 H190 0.930 . S
C204 N203 1.340 . S
C204 C208 1.407 . S
C205 C206 1.413 . S
C205 C207 1.416 . S
C205 C234 1.427 . S
C206 C198 1.424 . S
C206 N203 1.361 . S
C206 C205 1.413 . S
C207 H196 0.931 . S
C207 C205 1.416 . S
C207 C208 1.332 . S
C208 H187 0.929 . S
C208 C204 1.407 . S
C208 C207 1.332 . S
H209 C202 0.930 . S
H210 C233 0.930 . S
H211 C234 0.929 . S
O212 Tb168 2.465 . S
O212 C232 1.264 . S
O213 Tb168 2.387 . S
O213 C224 1.264 . S
O214 Tb179 2.349 . S
O214 C224 1.243 . S
O215 Tb168 2.428 . S
O215 C232 1.256 . S
O216 Tb168 2.308 . S
O216 C231 1.266 . S
O217 Tb179 2.393 . S
O217 C231 1.248 . S
O218 Tb179 2.465 1_554 S
O218 C243 1.264 . S
O219 Tb179 2.387 . S
O219 C235 1.264 . S
O220 Tb168 2.349 . S
O220 C235 1.243 . S
O221 Tb179 2.428 1_554 S
O221 C243 1.256 . S
O222 Tb179 2.308 . S
O222 C242 1.266 . S
O223 Tb168 2.393 . S
O223 C242 1.248 . S
C224 O213 1.264 . S
C224 O214 1.243 . S
C225 C228 1.399 . S
C225 C230 1.383 . S
C225 C232 1.496 . S
C226 C227 1.399 . S
C226 C230 1.389 . S
C227 C226 1.399 . S
C227 C229 1.380 . S
C227 H244 0.929 . S
C228 C225 1.399 . S
C228 C229 1.392 . S
C228 H245 0.929 . S
C229 C227 1.380 . S
C229 C228 1.392 . S
C229 H246 0.929 . S
C230 C225 1.383 . S
C230 C226 1.389 . S
C230 H247 0.931 . S
C231 O216 1.266 . S
C231 O217 1.248 . S
C232 Tb168 2.802 . S
C232 O212 1.264 . S
C232 O215 1.256 . S
C232 C225 1.496 . S
C233 C200 1.448 . S
C233 H210 0.930 . S
C233 C234 1.328 . S
C234 C205 1.427 . S
C234 H211 0.929 . S
C234 C233 1.328 . S
C235 O219 1.264 . S
C235 O220 1.243 . S
C236 C239 1.399 . S
C236 C240 1.383 . S
C236 C243 1.496 . S
C237 C238 1.399 . S
C237 C240 1.389 . S
C238 C237 1.399 . S
C238 C241 1.380 . S
C238 H248 0.929 . S
C239 C236 1.399 . S
C239 C241 1.392 . S
C239 H249 0.929 . S
C240 C236 1.383 . S
C240 C237 1.389 . S
C240 H250 0.931 . S
C241 C238 1.380 . S
C241 C239 1.392 . S
C241 H251 0.929 . S
C242 O222 1.266 . S
C242 O223 1.248 . S
C243 Tb179 2.802 1_554 S
C243 O218 1.264 . S
C243 O221 1.256 . S
C243 C236 1.496 . S
H244 C227 0.929 . S
H245 C228 0.929 . S
H246 C229 0.929 . S
H247 C230 0.931 . S
H248 C238 0.929 . S
H249 C239 0.929 . S
H250 C240 0.931 . S
H251 C241 0.929 . S
Tb252 N281 2.617 . S
Tb252 N287 2.572 . S
Tb252 O296 2.465 . S
Tb252 O297 2.387 . S
Tb252 O299 2.428 . S
Tb252 O300 2.308 . S
Tb252 O304 2.349 . S
Tb252 O307 2.393 . S
Tb252 C316 2.802 . S
C253 N254 1.379 . S
C253 C256 1.416 . S
C253 C260 1.424 . S
N254 C253 1.379 . S
N254 C257 1.334 . S
N254 Tb263 2.617 . S
C255 C257 1.390 . S
C255 C258 1.339 . S
C255 H275 0.930 . S
C256 C253 1.416 . S
C256 C258 1.416 . S
C256 C262 1.448 . S
C257 N254 1.334 . S
C257 C255 1.390 . S
C257 H268 0.930 . S
C258 C255 1.339 . S
C258 C256 1.416 . S
C258 H279 0.930 . S
C259 C260 1.413 . S
C259 C261 1.427 . S
C259 C265 1.416 1_565 S
C260 C253 1.424 . S
C260 C259 1.413 . S
C260 N264 1.361 . S
C261 C259 1.427 . S
C261 C262 1.328 . S
C261 H276 0.929 1_565 S
C262 C256 1.448 . S
C262 C261 1.328 . S
C262 H277 0.930 . S
Tb263 N254 2.617 . S
Tb263 N264 2.572 . S
Tb263 O298 2.349 . S
Tb263 O301 2.393 . S
Tb263 O302 2.465 . S
Tb263 O303 2.387 . S
Tb263 O305 2.428 . S
Tb263 O306 2.308 . S
Tb263 C327 2.802 . S
N264 C260 1.361 . S
N264 Tb263 2.572 . S
N264 C266 1.340 . S
C265 C259 1.416 1_545 S
C265 C267 1.332 . S
C265 H273 0.931 . S
C266 N264 1.340 . S
C266 C267 1.407 1_565 S
C266 H272 0.930 . S
C267 C265 1.332 . S
C267 C266 1.407 1_545 S
C267 H269 0.929 . S
H268 C257 0.930 . S
H269 C267 0.929 . S
H270 C285 0.930 . S
H271 C292 0.929 . S
H272 C266 0.930 . S
H273 C265 0.931 . S
H274 C288 0.930 . S
H275 C255 0.930 . S
H276 C261 0.929 1_545 S
H277 C262 0.930 . S
H278 C283 0.930 . S
H279 C258 0.930 . S
H280 C291 0.931 . S
N281 Tb252 2.617 . S
N281 C282 1.379 . S
N281 C285 1.334 . S
C282 N281 1.379 . S
C282 C284 1.416 . S
C282 C290 1.424 . S
C283 H278 0.930 . S
C283 C285 1.390 . S
C283 C286 1.339 . S
C284 C282 1.416 . S
C284 C286 1.416 . S
C284 C317 1.448 . S
C285 H270 0.930 . S
C285 N281 1.334 . S
C285 C283 1.390 . S
C286 C283 1.339 . S
C286 C284 1.416 . S
C286 H293 0.930 . S
N287 Tb252 2.572 . S
N287 C288 1.340 . S
N287 C290 1.361 . S
C288 H274 0.930 . S
C288 N287 1.340 . S
C288 C292 1.407 . S
C289 C290 1.413 . S
C289 C291 1.416 . S
C289 C318 1.427 . S
C290 C282 1.424 . S
C290 N287 1.361 . S
C290 C289 1.413 . S
C291 H280 0.931 . S
C291 C289 1.416 . S
C291 C292 1.332 . S
C292 H271 0.929 . S
C292 C288 1.407 . S
C292 C291 1.332 . S
H293 C286 0.930 . S
H294 C317 0.930 . S
H295 C318 0.929 . S
O296 Tb252 2.465 . S
O296 C316 1.264 . S
O297 Tb252 2.387 . S
O297 C308 1.264 . S
O298 Tb263 2.349 . S
O298 C308 1.243 . S
O299 Tb252 2.428 . S
O299 C316 1.256 . S
O300 Tb252 2.308 . S
O300 C315 1.266 . S
O301 Tb263 2.393 . S
O301 C315 1.248 . S
O302 Tb263 2.465 . S
O302 C327 1.264 . S
O303 Tb263 2.387 . S
O303 C319 1.264 . S
O304 Tb252 2.349 . S
O304 C319 1.243 . S
O305 Tb263 2.428 . S
O305 C327 1.256 . S
O306 Tb263 2.308 . S
O306 C326 1.266 . S
O307 Tb252 2.393 . S
O307 C326 1.248 . S
C308 O297 1.264 . S
C308 O298 1.243 . S
C309 C312 1.399 . S
C309 C314 1.383 . S
C309 C316 1.496 . S
C310 C311 1.399 1_554 S
C310 C314 1.389 . S
C311 C310 1.399 1_556 S
C311 C313 1.380 1_556 S
C311 H328 0.929 . S
C312 C309 1.399 . S
C312 C313 1.392 . S
C312 H329 0.929 . S
C313 C311 1.380 1_554 S
C313 C312 1.392 . S
C313 H330 0.929 . S
C314 C309 1.383 . S
C314 C310 1.389 . S
C314 H331 0.931 . S
C315 O300 1.266 . S
C315 O301 1.248 . S
C316 Tb252 2.802 . S
C316 O296 1.264 . S
C316 O299 1.256 . S
C316 C309 1.496 . S
C317 C284 1.448 . S
C317 H294 0.930 . S
C317 C318 1.328 . S
C318 C289 1.427 . S
C318 H295 0.929 . S
C318 C317 1.328 . S
C319 O303 1.264 . S
C319 O304 1.243 . S
C320 C323 1.399 . S
C320 C324 1.383 . S
C320 C327 1.496 . S
C321 C322 1.399 . S
C321 C324 1.389 . S
C322 C321 1.399 . S
C322 C325 1.380 . S
C322 H332 0.929 . S
C323 C320 1.399 . S
C323 C325 1.392 . S
C323 H333 0.929 . S
C324 C320 1.383 . S
C324 C321 1.389 . S
C324 H334 0.931 . S
C325 C322 1.380 . S
C325 C323 1.392 . S
C325 H335 0.929 . S
C326 O306 1.266 . S
C326 O307 1.248 . S
C327 Tb263 2.802 . S
C327 O302 1.264 . S
C327 O305 1.256 . S
C327 C320 1.496 . S
H328 C311 0.929 . S
H329 C312 0.929 . S
H330 C313 0.929 . S
H331 C314 0.931 . S
H332 C322 0.929 . S
H333 C323 0.929 . S
H334 C324 0.931 . S
H335 C325 0.929 . S
Tb336 N365 2.617 . S
Tb336 N371 2.572 . S
Tb336 O380 2.465 . S
Tb336 O381 2.387 . S
Tb336 O383 2.428 . S
Tb336 O384 2.308 . S
Tb336 O388 2.349 . S
Tb336 O391 2.393 . S
Tb336 C400 2.802 . S
C337 N338 1.379 . S
C337 C340 1.416 . S
C337 C344 1.424 . S
N338 C337 1.379 . S
N338 C341 1.334 . S
N338 Tb347 2.617 . S
C339 C341 1.390 . S
C339 C342 1.339 . S
C339 H359 0.930 . S
C340 C337 1.416 . S
C340 C342 1.416 . S
C340 C346 1.448 . S
C341 N338 1.334 . S
C341 C339 1.390 . S
C341 H352 0.930 . S
C342 C339 1.339 . S
C342 C340 1.416 . S
C342 H363 0.930 . S
C343 C344 1.413 . S
C343 C345 1.427 . S
C343 C349 1.416 . S
C344 C337 1.424 . S
C344 C343 1.413 . S
C344 N348 1.361 . S
C345 C343 1.427 . S
C345 C346 1.328 . S
C345 H360 0.929 . S
C346 C340 1.448 . S
C346 C345 1.328 . S
C346 H361 0.930 . S
Tb347 N338 2.617 . S
Tb347 N348 2.572 . S
Tb347 O382 2.349 . S
Tb347 O385 2.393 . S
Tb347 O386 2.465 . S
Tb347 O387 2.387 . S
Tb347 O389 2.428 . S
Tb347 O390 2.308 . S
Tb347 C411 2.802 . S
N348 C344 1.361 . S
N348 Tb347 2.572 . S
N348 C350 1.340 . S
C349 C343 1.416 . S
C349 C351 1.332 . S
C349 H357 0.931 . S
C350 N348 1.340 . S
C350 C351 1.407 . S
C350 H356 0.930 . S
C351 C349 1.332 . S
C351 C350 1.407 . S
C351 H353 0.929 . S
H352 C341 0.930 . S
H353 C351 0.929 . S
H354 C369 0.930 . S
H355 C376 0.929 . S
H356 C350 0.930 . S
H357 C349 0.931 . S
H358 C372 0.930 . S
H359 C339 0.930 . S
H360 C345 0.929 . S
H361 C346 0.930 . S
H362 C367 0.930 . S
H363 C342 0.930 . S
H364 C375 0.931 . S
N365 Tb336 2.617 . S
N365 C366 1.379 . S
N365 C369 1.334 . S
C366 N365 1.379 . S
C366 C368 1.416 . S
C366 C374 1.424 . S
C367 H362 0.930 . S
C367 C369 1.390 . S
C367 C370 1.339 . S
C368 C366 1.416 . S
C368 C370 1.416 . S
C368 C401 1.448 . S
C369 H354 0.930 . S
C369 N365 1.334 . S
C369 C367 1.390 . S
C370 C367 1.339 . S
C370 C368 1.416 . S
C370 H377 0.930 . S
N371 Tb336 2.572 . S
N371 C372 1.340 . S
N371 C374 1.361 . S
C372 H358 0.930 . S
C372 N371 1.340 . S
C372 C376 1.407 . S
C373 C374 1.413 . S
C373 C375 1.416 . S
C373 C402 1.427 . S
C374 C366 1.424 . S
C374 N371 1.361 . S
C374 C373 1.413 . S
C375 H364 0.931 . S
C375 C373 1.416 . S
C375 C376 1.332 . S
C376 H355 0.929 . S
C376 C372 1.407 . S
C376 C375 1.332 . S
H377 C370 0.930 . S
H378 C401 0.930 . S
H379 C402 0.929 . S
O380 Tb336 2.465 . S
O380 C400 1.264 . S
O381 Tb336 2.387 . S
O381 C392 1.264 . S
O382 Tb347 2.349 . S
O382 C392 1.243 . S
O383 Tb336 2.428 . S
O383 C400 1.256 . S
O384 Tb336 2.308 . S
O384 C399 1.266 . S
O385 Tb347 2.393 . S
O385 C399 1.248 . S
O386 Tb347 2.465 . S
O386 C411 1.264 . S
O387 Tb347 2.387 . S
O387 C403 1.264 . S
O388 Tb336 2.349 . S
O388 C403 1.243 . S
O389 Tb347 2.428 . S
O389 C411 1.256 . S
O390 Tb347 2.308 . S
O390 C410 1.266 . S
O391 Tb336 2.393 . S
O391 C410 1.248 . S
C392 O381 1.264 . S
C392 O382 1.243 . S
C393 C396 1.399 . S
C393 C398 1.383 . S
C393 C400 1.496 . S
C394 C395 1.399 . S
C394 C398 1.389 . S
C395 C394 1.399 . S
C395 C397 1.380 . S
C395 H412 0.929 . S
C396 C393 1.399 . S
C396 C397 1.392 . S
C396 H413 0.929 . S
C397 C395 1.380 . S
C397 C396 1.392 . S
C397 H414 0.929 . S
C398 C393 1.383 . S
C398 C394 1.389 . S
C398 H415 0.931 . S
C399 O384 1.266 . S
C399 O385 1.248 . S
C400 Tb336 2.802 . S
C400 O380 1.264 . S
C400 O383 1.256 . S
C400 C393 1.496 . S
C401 C368 1.448 . S
C401 H378 0.930 . S
C401 C402 1.328 . S
C402 C373 1.427 . S
C402 H379 0.929 . S
C402 C401 1.328 . S
C403 O387 1.264 . S
C403 O388 1.243 . S
C404 C407 1.399 . S
C404 C408 1.383 . S
C404 C411 1.496 . S
C405 C406 1.399 . S
C405 C408 1.389 . S
C406 C405 1.399 . S
C406 C409 1.380 . S
C406 H416 0.929 . S
C407 C404 1.399 . S
C407 C409 1.392 . S
C407 H417 0.929 . S
C408 C404 1.383 . S
C408 C405 1.389 . S
C408 H418 0.931 . S
C409 C406 1.380 . S
C409 C407 1.392 . S
C409 H419 0.929 . S
C410 O390 1.266 . S
C410 O391 1.248 . S
C411 Tb347 2.802 . S
C411 O386 1.264 . S
C411 O389 1.256 . S
C411 C404 1.496 . S
H412 C395 0.929 . S
H413 C396 0.929 . S
H414 C397 0.929 . S
H415 C398 0.931 . S
H416 C406 0.929 . S
H417 C407 0.929 . S
H418 C408 0.931 . S
H419 C409 0.929 . S
Tb420 N449 2.617 . S
Tb420 N455 2.572 . S
Tb420 O464 2.465 . S
Tb420 O465 2.387 . S
Tb420 O467 2.428 . S
Tb420 O468 2.308 . S
Tb420 O472 2.349 . S
Tb420 O475 2.393 . S
Tb420 C484 2.802 . S
C421 N422 1.379 . S
C421 C424 1.416 . S
C421 C428 1.424 . S
N422 C421 1.379 . S
N422 C425 1.334 . S
N422 Tb431 2.617 . S
C423 C425 1.390 . S
C423 C426 1.339 . S
C423 H443 0.930 . S
C424 C421 1.416 . S
C424 C426 1.416 . S
C424 C430 1.448 . S
C425 N422 1.334 . S
C425 C423 1.390 . S
C425 H436 0.930 . S
C426 C423 1.339 . S
C426 C424 1.416 . S
C426 H447 0.930 . S
C427 C428 1.413 . S
C427 C429 1.427 . S
C427 C433 1.416 1_455 S
C428 C421 1.424 . S
C428 C427 1.413 . S
C428 N432 1.361 . S
C429 C427 1.427 . S
C429 C430 1.328 . S
C429 H444 0.929 1_455 S
C430 C424 1.448 . S
C430 C429 1.328 . S
C430 H445 0.930 . S
Tb431 N422 2.617 . S
Tb431 N432 2.572 . S
Tb431 O466 2.349 . S
Tb431 O469 2.393 . S
Tb431 O470 2.465 1_556 S
Tb431 O471 2.387 . S
Tb431 O473 2.428 1_556 S
Tb431 O474 2.308 . S
Tb431 C495 2.802 1_556 S
N432 C428 1.361 . S
N432 Tb431 2.572 . S
N432 C434 1.340 . S
C433 C427 1.416 1_655 S
C433 C435 1.332 . S
C433 H441 0.931 . S
C434 N432 1.340 . S
C434 C435 1.407 1_455 S
C434 H440 0.930 . S
C435 C433 1.332 . S
C435 C434 1.407 1_655 S
C435 H437 0.929 . S
H436 C425 0.930 . S
H437 C435 0.929 . S
H438 C453 0.930 . S
H439 C460 0.929 . S
H440 C434 0.930 . S
H441 C433 0.931 . S
H442 C456 0.930 . S
H443 C423 0.930 . S
H444 C429 0.929 1_655 S
H445 C430 0.930 . S
H446 C451 0.930 . S
H447 C426 0.930 . S
H448 C459 0.931 . S
N449 Tb420 2.617 . S
N449 C450 1.379 . S
N449 C453 1.334 . S
C450 N449 1.379 . S
C450 C452 1.416 . S
C450 C458 1.424 . S
C451 H446 0.930 . S
C451 C453 1.390 . S
C451 C454 1.339 . S
C452 C450 1.416 . S
C452 C454 1.416 . S
C452 C485 1.448 . S
C453 H438 0.930 . S
C453 N449 1.334 . S
C453 C451 1.390 . S
C454 C451 1.339 . S
C454 C452 1.416 . S
C454 H461 0.930 . S
N455 Tb420 2.572 . S
N455 C456 1.340 . S
N455 C458 1.361 . S
C456 H442 0.930 . S
C456 N455 1.340 . S
C456 C460 1.407 . S
C457 C458 1.413 . S
C457 C459 1.416 . S
C457 C486 1.427 . S
C458 C450 1.424 . S
C458 N455 1.361 . S
C458 C457 1.413 . S
C459 H448 0.931 . S
C459 C457 1.416 . S
C459 C460 1.332 . S
C460 H439 0.929 . S
C460 C456 1.407 . S
C460 C459 1.332 . S
H461 C454 0.930 . S
H462 C485 0.930 . S
H463 C486 0.929 . S
O464 Tb420 2.465 . S
O464 C484 1.264 . S
O465 Tb420 2.387 . S
O465 C476 1.264 . S
O466 Tb431 2.349 . S
O466 C476 1.243 . S
O467 Tb420 2.428 . S
O467 C484 1.256 . S
O468 Tb420 2.308 . S
O468 C483 1.266 . S
O469 Tb431 2.393 . S
O469 C483 1.248 . S
O470 Tb431 2.465 1_554 S
O470 C495 1.264 . S
O471 Tb431 2.387 . S
O471 C487 1.264 . S
O472 Tb420 2.349 . S
O472 C487 1.243 . S
O473 Tb431 2.428 1_554 S
O473 C495 1.256 . S
O474 Tb431 2.308 . S
O474 C494 1.266 . S
O475 Tb420 2.393 . S
O475 C494 1.248 . S
C476 O465 1.264 . S
C476 O466 1.243 . S
C477 C480 1.399 . S
C477 C482 1.383 . S
C477 C484 1.496 . S
C478 C479 1.399 . S
C478 C482 1.389 . S
C479 C478 1.399 . S
C479 C481 1.380 . S
C479 H496 0.929 . S
C480 C477 1.399 . S
C480 C481 1.392 . S
C480 H497 0.929 . S
C481 C479 1.380 . S
C481 C480 1.392 . S
C481 H498 0.929 . S
C482 C477 1.383 . S
C482 C478 1.389 . S
C482 H499 0.931 . S
C483 O468 1.266 . S
C483 O469 1.248 . S
C484 Tb420 2.802 . S
C484 O464 1.264 . S
C484 O467 1.256 . S
C484 C477 1.496 . S
C485 C452 1.448 . S
C485 H462 0.930 . S
C485 C486 1.328 . S
C486 C457 1.427 . S
C486 H463 0.929 . S
C486 C485 1.328 . S
C487 O471 1.264 . S
C487 O472 1.243 . S
C488 C491 1.399 . S
C488 C492 1.383 . S
C488 C495 1.496 . S
C489 C490 1.399 . S
C489 C492 1.389 . S
C490 C489 1.399 . S
C490 C493 1.380 . S
C490 H500 0.929 . S
C491 C488 1.399 . S
C491 C493 1.392 . S
C491 H501 0.929 . S
C492 C488 1.383 . S
C492 C489 1.389 . S
C492 H502 0.931 . S
C493 C490 1.380 . S
C493 C491 1.392 . S
C493 H503 0.929 . S
C494 O474 1.266 . S
C494 O475 1.248 . S
C495 Tb431 2.802 1_554 S
C495 O470 1.264 . S
C495 O473 1.256 . S
C495 C488 1.496 . S
H496 C479 0.929 . S
H497 C480 0.929 . S
H498 C481 0.929 . S
H499 C482 0.931 . S
H500 C490 0.929 . S
H501 C491 0.929 . S
H502 C492 0.931 . S
H503 C493 0.929 . S
Tb504 N533 2.617 . S
Tb504 N539 2.572 . S
Tb504 O548 2.465 . S
Tb504 O549 2.387 . S
Tb504 O551 2.428 . S
Tb504 O552 2.308 . S
Tb504 O556 2.349 . S
Tb504 O559 2.393 . S
Tb504 C568 2.802 . S
C505 N506 1.379 . S
C505 C508 1.416 . S
C505 C512 1.424 . S
N506 C505 1.379 . S
N506 C509 1.334 . S
N506 Tb515 2.617 . S
C507 C509 1.390 . S
C507 C510 1.339 . S
C507 H527 0.930 . S
C508 C505 1.416 . S
C508 C510 1.416 . S
C508 C514 1.448 . S
C509 N506 1.334 . S
C509 C507 1.390 . S
C509 H520 0.930 . S
C510 C507 1.339 . S
C510 C508 1.416 . S
C510 H531 0.930 . S
C511 C512 1.413 . S
C511 C513 1.427 . S
C511 C517 1.416 1_655 S
C512 C505 1.424 . S
C512 C511 1.413 . S
C512 N516 1.361 . S
C513 C511 1.427 . S
C513 C514 1.328 . S
C513 H528 0.929 1_655 S
C514 C508 1.448 . S
C514 C513 1.328 . S
C514 H529 0.930 . S
Tb515 N506 2.617 . S
Tb515 N516 2.572 . S
Tb515 O550 2.349 . S
Tb515 O553 2.393 . S
Tb515 O554 2.465 . S
Tb515 O555 2.387 . S
Tb515 O557 2.428 . S
Tb515 O558 2.308 . S
Tb515 C579 2.802 . S
N516 C512 1.361 . S
N516 Tb515 2.572 . S
N516 C518 1.340 . S
C517 C511 1.416 1_455 S
C517 C519 1.332 . S
C517 H525 0.931 . S
C518 N516 1.340 . S
C518 C519 1.407 1_655 S
C518 H524 0.930 . S
C519 C517 1.332 . S
C519 C518 1.407 1_455 S
C519 H521 0.929 . S
H520 C509 0.930 . S
H521 C519 0.929 . S
H522 C537 0.930 . S
H523 C544 0.929 . S
H524 C518 0.930 . S
H525 C517 0.931 . S
H526 C540 0.930 . S
H527 C507 0.930 . S
H528 C513 0.929 1_455 S
H529 C514 0.930 . S
H530 C535 0.930 . S
H531 C510 0.930 . S
H532 C543 0.931 . S
N533 Tb504 2.617 . S
N533 C534 1.379 . S
N533 C537 1.334 . S
C534 N533 1.379 . S
C534 C536 1.416 . S
C534 C542 1.424 . S
C535 H530 0.930 . S
C535 C537 1.390 . S
C535 C538 1.339 . S
C536 C534 1.416 . S
C536 C538 1.416 . S
C536 C569 1.448 . S
C537 H522 0.930 . S
C537 N533 1.334 . S
C537 C535 1.390 . S
C538 C535 1.339 . S
C538 C536 1.416 . S
C538 H545 0.930 . S
N539 Tb504 2.572 . S
N539 C540 1.340 . S
N539 C542 1.361 . S
C540 H526 0.930 . S
C540 N539 1.340 . S
C540 C544 1.407 . S
C541 C542 1.413 . S
C541 C543 1.416 . S
C541 C570 1.427 . S
C542 C534 1.424 . S
C542 N539 1.361 . S
C542 C541 1.413 . S
C543 H532 0.931 . S
C543 C541 1.416 . S
C543 C544 1.332 . S
C544 H523 0.929 . S
C544 C540 1.407 . S
C544 C543 1.332 . S
H545 C538 0.930 . S
H546 C569 0.930 . S
H547 C570 0.929 . S
O548 Tb504 2.465 . S
O548 C568 1.264 . S
O549 Tb504 2.387 . S
O549 C560 1.264 . S
O550 Tb515 2.349 . S
O550 C560 1.243 . S
O551 Tb504 2.428 . S
O551 C568 1.256 . S
O552 Tb504 2.308 . S
O552 C567 1.266 . S
O553 Tb515 2.393 . S
O553 C567 1.248 . S
O554 Tb515 2.465 . S
O554 C579 1.264 . S
O555 Tb515 2.387 . S
O555 C571 1.264 . S
O556 Tb504 2.349 . S
O556 C571 1.243 . S
O557 Tb515 2.428 . S
O557 C579 1.256 . S
O558 Tb515 2.308 . S
O558 C578 1.266 . S
O559 Tb504 2.393 . S
O559 C578 1.248 . S
C560 O549 1.264 . S
C560 O550 1.243 . S
C561 C564 1.399 . S
C561 C566 1.383 . S
C561 C568 1.496 . S
C562 C563 1.399 . S
C562 C566 1.389 . S
C563 C562 1.399 . S
C563 C565 1.380 . S
C563 H580 0.929 . S
C564 C561 1.399 . S
C564 C565 1.392 . S
C564 H581 0.929 . S
C565 C563 1.380 . S
C565 C564 1.392 . S
C565 H582 0.929 . S
C566 C561 1.383 . S
C566 C562 1.389 . S
C566 H583 0.931 . S
C567 O552 1.266 . S
C567 O553 1.248 . S
C568 Tb504 2.802 . S
C568 O548 1.264 . S
C568 O551 1.256 . S
C568 C561 1.496 . S
C569 C536 1.448 . S
C569 H546 0.930 . S
C569 C570 1.328 . S
C570 C541 1.427 . S
C570 H547 0.929 . S
C570 C569 1.328 . S
C571 O555 1.264 . S
C571 O556 1.243 . S
C572 C575 1.399 . S
C572 C576 1.383 . S
C572 C579 1.496 . S
C573 C574 1.399 . S
C573 C576 1.389 . S
C574 C573 1.399 . S
C574 C577 1.380 . S
C574 H584 0.929 . S
C575 C572 1.399 . S
C575 C577 1.392 . S
C575 H585 0.929 . S
C576 C572 1.383 . S
C576 C573 1.389 . S
C576 H586 0.931 . S
C577 C574 1.380 . S
C577 C575 1.392 . S
C577 H587 0.929 . S
C578 O558 1.266 . S
C578 O559 1.248 . S
C579 Tb515 2.802 . S
C579 O554 1.264 . S
C579 O557 1.256 . S
C579 C572 1.496 . S
H580 C563 0.929 . S
H581 C564 0.929 . S
H582 C565 0.929 . S
H583 C566 0.931 . S
H584 C574 0.929 . S
H585 C575 0.929 . S
H586 C576 0.931 . S
H587 C577 0.929 . S
Tb588 N617 2.617 . S
Tb588 N623 2.572 . S
Tb588 O632 2.465 . S
Tb588 O633 2.387 . S
Tb588 O635 2.428 . S
Tb588 O636 2.308 . S
Tb588 O640 2.349 . S
Tb588 O643 2.393 . S
Tb588 C652 2.802 . S
C589 N590 1.379 . S
C589 C592 1.416 . S
C589 C596 1.424 . S
N590 C589 1.379 . S
N590 C593 1.334 . S
N590 Tb599 2.617 . S
C591 C593 1.390 . S
C591 C594 1.339 . S
C591 H611 0.930 . S
C592 C589 1.416 . S
C592 C594 1.416 . S
C592 C598 1.448 . S
C593 N590 1.334 . S
C593 C591 1.390 . S
C593 H604 0.930 . S
C594 C591 1.339 . S
C594 C592 1.416 . S
C594 H615 0.930 . S
C595 C596 1.413 . S
C595 C597 1.427 . S
C595 C601 1.416 1_565 S
C596 C589 1.424 . S
C596 C595 1.413 . S
C596 N600 1.361 . S
C597 C595 1.427 . S
C597 C598 1.328 . S
C597 H612 0.929 1_565 S
C598 C592 1.448 . S
C598 C597 1.328 . S
C598 H613 0.930 . S
Tb599 N590 2.617 . S
Tb599 N600 2.572 . S
Tb599 O634 2.349 . S
Tb599 O637 2.393 . S
Tb599 O638 2.465 . S
Tb599 O639 2.387 . S
Tb599 O641 2.428 . S
Tb599 O642 2.308 . S
Tb599 C663 2.802 . S
N600 C596 1.361 . S
N600 Tb599 2.572 . S
N600 C602 1.340 . S
C601 C595 1.416 1_545 S
C601 C603 1.332 . S
C601 H609 0.931 . S
C602 N600 1.340 . S
C602 C603 1.407 1_565 S
C602 H608 0.930 . S
C603 C601 1.332 . S
C603 C602 1.407 1_545 S
C603 H605 0.929 . S
H604 C593 0.930 . S
H605 C603 0.929 . S
H606 C621 0.930 . S
H607 C628 0.929 . S
H608 C602 0.930 . S
H609 C601 0.931 . S
H610 C624 0.930 . S
H611 C591 0.930 . S
H612 C597 0.929 1_545 S
H613 C598 0.930 . S
H614 C619 0.930 . S
H615 C594 0.930 . S
H616 C627 0.931 . S
N617 Tb588 2.617 . S
N617 C618 1.379 . S
N617 C621 1.334 . S
C618 N617 1.379 . S
C618 C620 1.416 . S
C618 C626 1.424 . S
C619 H614 0.930 . S
C619 C621 1.390 . S
C619 C622 1.339 . S
C620 C618 1.416 . S
C620 C622 1.416 . S
C620 C653 1.448 . S
C621 H606 0.930 . S
C621 N617 1.334 . S
C621 C619 1.390 . S
C622 C619 1.339 . S
C622 C620 1.416 . S
C622 H629 0.930 . S
N623 Tb588 2.572 . S
N623 C624 1.340 . S
N623 C626 1.361 . S
C624 H610 0.930 . S
C624 N623 1.340 . S
C624 C628 1.407 . S
C625 C626 1.413 . S
C625 C627 1.416 . S
C625 C654 1.427 . S
C626 C618 1.424 . S
C626 N623 1.361 . S
C626 C625 1.413 . S
C627 H616 0.931 . S
C627 C625 1.416 . S
C627 C628 1.332 . S
C628 H607 0.929 . S
C628 C624 1.407 . S
C628 C627 1.332 . S
H629 C622 0.930 . S
H630 C653 0.930 . S
H631 C654 0.929 . S
O632 Tb588 2.465 . S
O632 C652 1.264 . S
O633 Tb588 2.387 . S
O633 C644 1.264 . S
O634 Tb599 2.349 . S
O634 C644 1.243 . S
O635 Tb588 2.428 . S
O635 C652 1.256 . S
O636 Tb588 2.308 . S
O636 C651 1.266 . S
O637 Tb599 2.393 . S
O637 C651 1.248 . S
O638 Tb599 2.465 . S
O638 C663 1.264 . S
O639 Tb599 2.387 . S
O639 C655 1.264 . S
O640 Tb588 2.349 . S
O640 C655 1.243 . S
O641 Tb599 2.428 . S
O641 C663 1.256 . S
O642 Tb599 2.308 . S
O642 C662 1.266 . S
O643 Tb588 2.393 . S
O643 C662 1.248 . S
C644 O633 1.264 . S
C644 O634 1.243 . S
C645 C648 1.399 . S
C645 C650 1.383 . S
C645 C652 1.496 . S
C646 C647 1.399 1_556 S
C646 C650 1.389 . S
C647 C646 1.399 1_554 S
C647 C649 1.380 1_554 S
C647 H664 0.929 . S
C648 C645 1.399 . S
C648 C649 1.392 . S
C648 H665 0.929 . S
C649 C647 1.380 1_556 S
C649 C648 1.392 . S
C649 H666 0.929 . S
C650 C645 1.383 . S
C650 C646 1.389 . S
C650 H667 0.931 . S
C651 O636 1.266 . S
C651 O637 1.248 . S
C652 Tb588 2.802 . S
C652 O632 1.264 . S
C652 O635 1.256 . S
C652 C645 1.496 . S
C653 C620 1.448 . S
C653 H630 0.930 . S
C653 C654 1.328 . S
C654 C625 1.427 . S
C654 H631 0.929 . S
C654 C653 1.328 . S
C655 O639 1.264 . S
C655 O640 1.243 . S
C656 C659 1.399 . S
C656 C660 1.383 . S
C656 C663 1.496 . S
C657 C658 1.399 . S
C657 C660 1.389 . S
C658 C657 1.399 . S
C658 C661 1.380 . S
C658 H668 0.929 . S
C659 C656 1.399 . S
C659 C661 1.392 . S
C659 H669 0.929 . S
C660 C656 1.383 . S
C660 C657 1.389 . S
C660 H670 0.931 . S
C661 C658 1.380 . S
C661 C659 1.392 . S
C661 H671 0.929 . S
C662 O642 1.266 . S
C662 O643 1.248 . S
C663 Tb599 2.802 . S
C663 O638 1.264 . S
C663 O641 1.256 . S
C663 C656 1.496 . S
H664 C647 0.929 . S
H665 C648 0.929 . S
H666 C649 0.929 . S
H667 C650 0.931 . S
H668 C658 0.929 . S
H669 C659 0.929 . S
H670 C660 0.931 . S
H671 C661 0.929 . S
Tb672 N701 2.617 . S
Tb672 N707 2.572 . S
Tb672 O716 2.465 . S
Tb672 O717 2.387 . S
Tb672 O719 2.428 . S
Tb672 O720 2.308 . S
Tb672 O724 2.349 . S
Tb672 O727 2.393 . S
Tb672 C736 2.802 . S
C673 N674 1.379 . S
C673 C676 1.416 . S
C673 C680 1.424 . S
N674 C673 1.379 . S
N674 C677 1.334 . S
N674 Tb683 2.617 . S
C675 C677 1.390 . S
C675 C678 1.339 . S
C675 H695 0.930 . S
C676 C673 1.416 . S
C676 C678 1.416 . S
C676 C682 1.448 . S
C677 N674 1.334 . S
C677 C675 1.390 . S
C677 H688 0.930 . S
C678 C675 1.339 . S
C678 C676 1.416 . S
C678 H699 0.930 . S
C679 C680 1.413 . S
C679 C681 1.427 . S
C679 C685 1.416 . S
C680 C673 1.424 . S
C680 C679 1.413 . S
C680 N684 1.361 . S
C681 C679 1.427 . S
C681 C682 1.328 . S
C681 H696 0.929 . S
C682 C676 1.448 . S
C682 C681 1.328 . S
C682 H697 0.930 . S
Tb683 N674 2.617 . S
Tb683 N684 2.572 . S
Tb683 O718 2.349 . S
Tb683 O721 2.393 . S
Tb683 O722 2.465 1_554 S
Tb683 O723 2.387 . S
Tb683 O725 2.428 1_554 S
Tb683 O726 2.308 . S
Tb683 C747 2.802 1_554 S
N684 C680 1.361 . S
N684 Tb683 2.572 . S
N684 C686 1.340 . S
C685 C679 1.416 . S
C685 C687 1.332 . S
C685 H693 0.931 . S
C686 N684 1.340 . S
C686 C687 1.407 . S
C686 H692 0.930 . S
C687 C685 1.332 . S
C687 C686 1.407 . S
C687 H689 0.929 . S
H688 C677 0.930 . S
H689 C687 0.929 . S
H690 C705 0.930 . S
H691 C712 0.929 . S
H692 C686 0.930 . S
H693 C685 0.931 . S
H694 C708 0.930 . S
H695 C675 0.930 . S
H696 C681 0.929 . S
H697 C682 0.930 . S
H698 C703 0.930 . S
H699 C678 0.930 . S
H700 C711 0.931 . S
N701 Tb672 2.617 . S
N701 C702 1.379 . S
N701 C705 1.334 . S
C702 N701 1.379 . S
C702 C704 1.416 . S
C702 C710 1.424 . S
C703 H698 0.930 . S
C703 C705 1.390 . S
C703 C706 1.339 . S
C704 C702 1.416 . S
C704 C706 1.416 . S
C704 C737 1.448 . S
C705 H690 0.930 . S
C705 N701 1.334 . S
C705 C703 1.390 . S
C706 C703 1.339 . S
C706 C704 1.416 . S
C706 H713 0.930 . S
N707 Tb672 2.572 . S
N707 C708 1.340 . S
N707 C710 1.361 . S
C708 H694 0.930 . S
C708 N707 1.340 . S
C708 C712 1.407 . S
C709 C710 1.413 . S
C709 C711 1.416 . S
C709 C738 1.427 . S
C710 C702 1.424 . S
C710 N707 1.361 . S
C710 C709 1.413 . S
C711 H700 0.931 . S
C711 C709 1.416 . S
C711 C712 1.332 . S
C712 H691 0.929 . S
C712 C708 1.407 . S
C712 C711 1.332 . S
H713 C706 0.930 . S
H714 C737 0.930 . S
H715 C738 0.929 . S
O716 Tb672 2.465 . S
O716 C736 1.264 . S
O717 Tb672 2.387 . S
O717 C728 1.264 . S
O718 Tb683 2.349 . S
O718 C728 1.243 . S
O719 Tb672 2.428 . S
O719 C736 1.256 . S
O720 Tb672 2.308 . S
O720 C735 1.266 . S
O721 Tb683 2.393 . S
O721 C735 1.248 . S
O722 Tb683 2.465 1_556 S
O722 C747 1.264 . S
O723 Tb683 2.387 . S
O723 C739 1.264 . S
O724 Tb672 2.349 . S
O724 C739 1.243 . S
O725 Tb683 2.428 1_556 S
O725 C747 1.256 . S
O726 Tb683 2.308 . S
O726 C746 1.266 . S
O727 Tb672 2.393 . S
O727 C746 1.248 . S
C728 O717 1.264 . S
C728 O718 1.243 . S
C729 C732 1.399 . S
C729 C734 1.383 . S
C729 C736 1.496 . S
C730 C731 1.399 . S
C730 C734 1.389 . S
C731 C730 1.399 . S
C731 C733 1.380 . S
C731 H748 0.929 . S
C732 C729 1.399 . S
C732 C733 1.392 . S
C732 H749 0.929 . S
C733 C731 1.380 . S
C733 C732 1.392 . S
C733 H750 0.929 . S
C734 C729 1.383 . S
C734 C730 1.389 . S
C734 H751 0.931 . S
C735 O720 1.266 . S
C735 O721 1.248 . S
C736 Tb672 2.802 . S
C736 O716 1.264 . S
C736 O719 1.256 . S
C736 C729 1.496 . S
C737 C704 1.448 . S
C737 H714 0.930 . S
C737 C738 1.328 . S
C738 C709 1.427 . S
C738 H715 0.929 . S
C738 C737 1.328 . S
C739 O723 1.264 . S
C739 O724 1.243 . S
C740 C743 1.399 . S
C740 C744 1.383 . S
C740 C747 1.496 . S
C741 C742 1.399 . S
C741 C744 1.389 . S
C742 C741 1.399 . S
C742 C745 1.380 . S
C742 H752 0.929 . S
C743 C740 1.399 . S
C743 C745 1.392 . S
C743 H753 0.929 . S
C744 C740 1.383 . S
C744 C741 1.389 . S
C744 H754 0.931 . S
C745 C742 1.380 . S
C745 C743 1.392 . S
C745 H755 0.929 . S
C746 O726 1.266 . S
C746 O727 1.248 . S
C747 Tb683 2.802 1_556 S
C747 O722 1.264 . S
C747 O725 1.256 . S
C747 C740 1.496 . S
H748 C731 0.929 . S
H749 C732 0.929 . S
H750 C733 0.929 . S
H751 C734 0.931 . S
H752 C742 0.929 . S
H753 C743 0.929 . S
H754 C744 0.931 . S
H755 C745 0.929 . S
Tb756 N785 2.617 . S
Tb756 N791 2.572 . S
Tb756 O800 2.465 . S
Tb756 O801 2.387 . S
Tb756 O803 2.428 . S
Tb756 O804 2.308 . S
Tb756 O808 2.349 . S
Tb756 O811 2.393 . S
Tb756 C820 2.802 . S
C757 N758 1.379 . S
C757 C760 1.416 . S
C757 C764 1.424 . S
N758 C757 1.379 . S
N758 C761 1.334 . S
N758 Tb767 2.617 . S
C759 C761 1.390 . S
C759 C762 1.339 . S
C759 H779 0.930 . S
C760 C757 1.416 . S
C760 C762 1.416 . S
C760 C766 1.448 . S
C761 N758 1.334 . S
C761 C759 1.390 . S
C761 H772 0.930 . S
C762 C759 1.339 . S
C762 C760 1.416 . S
C762 H783 0.930 . S
C763 C764 1.413 . S
C763 C765 1.427 . S
C763 C769 1.416 1_455 S
C764 C757 1.424 . S
C764 C763 1.413 . S
C764 N768 1.361 . S
C765 C763 1.427 . S
C765 C766 1.328 . S
C765 H780 0.929 1_455 S
C766 C760 1.448 . S
C766 C765 1.328 . S
C766 H781 0.930 . S
Tb767 N758 2.617 . S
Tb767 N768 2.572 . S
Tb767 O802 2.349 . S
Tb767 O805 2.393 . S
Tb767 O806 2.465 . S
Tb767 O807 2.387 . S
Tb767 O809 2.428 . S
Tb767 O810 2.308 . S
Tb767 C831 2.802 . S
N768 C764 1.361 . S
N768 Tb767 2.572 . S
N768 C770 1.340 . S
C769 C763 1.416 1_655 S
C769 C771 1.332 . S
C769 H777 0.931 . S
C770 N768 1.340 . S
C770 C771 1.407 1_455 S
C770 H776 0.930 . S
C771 C769 1.332 . S
C771 C770 1.407 1_655 S
C771 H773 0.929 . S
H772 C761 0.930 . S
H773 C771 0.929 . S
H774 C789 0.930 . S
H775 C796 0.929 . S
H776 C770 0.930 . S
H777 C769 0.931 . S
H778 C792 0.930 . S
H779 C759 0.930 . S
H780 C765 0.929 1_655 S
H781 C766 0.930 . S
H782 C787 0.930 . S
H783 C762 0.930 . S
H784 C795 0.931 . S
N785 Tb756 2.617 . S
N785 C786 1.379 . S
N785 C789 1.334 . S
C786 N785 1.379 . S
C786 C788 1.416 . S
C786 C794 1.424 . S
C787 H782 0.930 . S
C787 C789 1.390 . S
C787 C790 1.339 . S
C788 C786 1.416 . S
C788 C790 1.416 . S
C788 C821 1.448 . S
C789 H774 0.930 . S
C789 N785 1.334 . S
C789 C787 1.390 . S
C790 C787 1.339 . S
C790 C788 1.416 . S
C790 H797 0.930 . S
N791 Tb756 2.572 . S
N791 C792 1.340 . S
N791 C794 1.361 . S
C792 H778 0.930 . S
C792 N791 1.340 . S
C792 C796 1.407 . S
C793 C794 1.413 . S
C793 C795 1.416 . S
C793 C822 1.427 . S
C794 C786 1.424 . S
C794 N791 1.361 . S
C794 C793 1.413 . S
C795 H784 0.931 . S
C795 C793 1.416 . S
C795 C796 1.332 . S
C796 H775 0.929 . S
C796 C792 1.407 . S
C796 C795 1.332 . S
H797 C790 0.930 . S
H798 C821 0.930 . S
H799 C822 0.929 . S
O800 Tb756 2.465 . S
O800 C820 1.264 . S
O801 Tb756 2.387 . S
O801 C812 1.264 . S
O802 Tb767 2.349 . S
O802 C812 1.243 . S
O803 Tb756 2.428 . S
O803 C820 1.256 . S
O804 Tb756 2.308 . S
O804 C819 1.266 . S
O805 Tb767 2.393 . S
O805 C819 1.248 . S
O806 Tb767 2.465 . S
O806 C831 1.264 . S
O807 Tb767 2.387 . S
O807 C823 1.264 . S
O808 Tb756 2.349 . S
O808 C823 1.243 . S
O809 Tb767 2.428 . S
O809 C831 1.256 . S
O810 Tb767 2.308 . S
O810 C830 1.266 . S
O811 Tb756 2.393 . S
O811 C830 1.248 . S
C812 O801 1.264 . S
C812 O802 1.243 . S
C813 C816 1.399 . S
C813 C818 1.383 . S
C813 C820 1.496 . S
C814 C815 1.399 . S
C814 C818 1.389 . S
C815 C814 1.399 . S
C815 C817 1.380 . S
C815 H832 0.929 . S
C816 C813 1.399 . S
C816 C817 1.392 . S
C816 H833 0.929 . S
C817 C815 1.380 . S
C817 C816 1.392 . S
C817 H834 0.929 . S
C818 C813 1.383 . S
C818 C814 1.389 . S
C818 H835 0.931 . S
C819 O804 1.266 . S
C819 O805 1.248 . S
C820 Tb756 2.802 . S
C820 O800 1.264 . S
C820 O803 1.256 . S
C820 C813 1.496 . S
C821 C788 1.448 . S
C821 H798 0.930 . S
C821 C822 1.328 . S
C822 C793 1.427 . S
C822 H799 0.929 . S
C822 C821 1.328 . S
C823 O807 1.264 . S
C823 O808 1.243 . S
C824 C827 1.399 . S
C824 C828 1.383 . S
C824 C831 1.496 . S
C825 C826 1.399 . S
C825 C828 1.389 . S
C826 C825 1.399 . S
C826 C829 1.380 . S
C826 H836 0.929 . S
C827 C824 1.399 . S
C827 C829 1.392 . S
C827 H837 0.929 . S
C828 C824 1.383 . S
C828 C825 1.389 . S
C828 H838 0.931 . S
C829 C826 1.380 . S
C829 C827 1.392 . S
C829 H839 0.929 . S
C830 O810 1.266 . S
C830 O811 1.248 . S
C831 Tb767 2.802 . S
C831 O806 1.264 . S
C831 O809 1.256 . S
C831 C824 1.496 . S
H832 C815 0.929 . S
H833 C816 0.929 . S
H834 C817 0.929 . S
H835 C818 0.931 . S
H836 C826 0.929 . S
H837 C827 0.929 . S
H838 C828 0.931 . S
H839 C829 0.929 . S
Tb840 N869 2.617 . S
Tb840 N875 2.572 . S
Tb840 O884 2.465 . S
Tb840 O885 2.387 . S
Tb840 O887 2.428 . S
Tb840 O888 2.308 . S
Tb840 O892 2.349 . S
Tb840 O895 2.393 . S
Tb840 C904 2.802 . S
C841 N842 1.379 . S
C841 C844 1.416 . S
C841 C848 1.424 . S
N842 C841 1.379 . S
N842 C845 1.334 . S
N842 Tb851 2.617 . S
C843 C845 1.390 . S
C843 C846 1.339 . S
C843 H863 0.930 . S
C844 C841 1.416 . S
C844 C846 1.416 . S
C844 C850 1.448 . S
C845 N842 1.334 . S
C845 C843 1.390 . S
C845 H856 0.930 . S
C846 C843 1.339 . S
C846 C844 1.416 . S
C846 H867 0.930 . S
C847 C848 1.413 . S
C847 C849 1.427 . S
C847 C853 1.416 1_545 S
C848 C841 1.424 . S
C848 C847 1.413 . S
C848 N852 1.361 . S
C849 C847 1.427 . S
C849 C850 1.328 . S
C849 H864 0.929 1_545 S
C850 C844 1.448 . S
C850 C849 1.328 . S
C850 H865 0.930 . S
Tb851 N842 2.617 . S
Tb851 N852 2.572 . S
Tb851 O886 2.349 . S
Tb851 O889 2.393 . S
Tb851 O890 2.465 . S
Tb851 O891 2.387 . S
Tb851 O893 2.428 . S
Tb851 O894 2.308 . S
Tb851 C915 2.802 . S
N852 C848 1.361 . S
N852 Tb851 2.572 . S
N852 C854 1.340 . S
C853 C847 1.416 1_565 S
C853 C855 1.332 . S
C853 H861 0.931 . S
C854 N852 1.340 . S
C854 C855 1.407 1_545 S
C854 H860 0.930 . S
C855 C853 1.332 . S
C855 C854 1.407 1_565 S
C855 H857 0.929 . S
H856 C845 0.930 . S
H857 C855 0.929 . S
H858 C873 0.930 . S
H859 C880 0.929 . S
H860 C854 0.930 . S
H861 C853 0.931 . S
H862 C876 0.930 . S
H863 C843 0.930 . S
H864 C849 0.929 1_565 S
H865 C850 0.930 . S
H866 C871 0.930 . S
H867 C846 0.930 . S
H868 C879 0.931 . S
N869 Tb840 2.617 . S
N869 C870 1.379 . S
N869 C873 1.334 . S
C870 N869 1.379 . S
C870 C872 1.416 . S
C870 C878 1.424 . S
C871 H866 0.930 . S
C871 C873 1.390 . S
C871 C874 1.339 . S
C872 C870 1.416 . S
C872 C874 1.416 . S
C872 C905 1.448 . S
C873 H858 0.930 . S
C873 N869 1.334 . S
C873 C871 1.390 . S
C874 C871 1.339 . S
C874 C872 1.416 . S
C874 H881 0.930 . S
N875 Tb840 2.572 . S
N875 C876 1.340 . S
N875 C878 1.361 . S
C876 H862 0.930 . S
C876 N875 1.340 . S
C876 C880 1.407 . S
C877 C878 1.413 . S
C877 C879 1.416 . S
C877 C906 1.427 . S
C878 C870 1.424 . S
C878 N875 1.361 . S
C878 C877 1.413 . S
C879 H868 0.931 . S
C879 C877 1.416 . S
C879 C880 1.332 . S
C880 H859 0.929 . S
C880 C876 1.407 . S
C880 C879 1.332 . S
H881 C874 0.930 . S
H882 C905 0.930 . S
H883 C906 0.929 . S
O884 Tb840 2.465 . S
O884 C904 1.264 . S
O885 Tb840 2.387 . S
O885 C896 1.264 . S
O886 Tb851 2.349 . S
O886 C896 1.243 . S
O887 Tb840 2.428 . S
O887 C904 1.256 . S
O888 Tb840 2.308 . S
O888 C903 1.266 . S
O889 Tb851 2.393 . S
O889 C903 1.248 . S
O890 Tb851 2.465 . S
O890 C915 1.264 . S
O891 Tb851 2.387 . S
O891 C907 1.264 . S
O892 Tb840 2.349 . S
O892 C907 1.243 . S
O893 Tb851 2.428 . S
O893 C915 1.256 . S
O894 Tb851 2.308 . S
O894 C914 1.266 . S
O895 Tb840 2.393 . S
O895 C914 1.248 . S
C896 O885 1.264 . S
C896 O886 1.243 . S
C897 C900 1.399 . S
C897 C902 1.383 . S
C897 C904 1.496 . S
C898 C899 1.399 1_556 S
C898 C902 1.389 . S
C899 C898 1.399 1_554 S
C899 C901 1.380 1_554 S
C899 H916 0.929 . S
C900 C897 1.399 . S
C900 C901 1.392 . S
C900 H917 0.929 . S
C901 C899 1.380 1_556 S
C901 C900 1.392 . S
C901 H918 0.929 . S
C902 C897 1.383 . S
C902 C898 1.389 . S
C902 H919 0.931 . S
C903 O888 1.266 . S
C903 O889 1.248 . S
C904 Tb840 2.802 . S
C904 O884 1.264 . S
C904 O887 1.256 . S
C904 C897 1.496 . S
C905 C872 1.448 . S
C905 H882 0.930 . S
C905 C906 1.328 . S
C906 C877 1.427 . S
C906 H883 0.929 . S
C906 C905 1.328 . S
C907 O891 1.264 . S
C907 O892 1.243 . S
C908 C911 1.399 . S
C908 C912 1.383 . S
C908 C915 1.496 . S
C909 C910 1.399 . S
C909 C912 1.389 . S
C910 C909 1.399 . S
C910 C913 1.380 . S
C910 H920 0.929 . S
C911 C908 1.399 . S
C911 C913 1.392 . S
C911 H921 0.929 . S
C912 C908 1.383 . S
C912 C909 1.389 . S
C912 H922 0.931 . S
C913 C910 1.380 . S
C913 C911 1.392 . S
C913 H923 0.929 . S
C914 O894 1.266 . S
C914 O895 1.248 . S
C915 Tb851 2.802 . S
C915 O890 1.264 . S
C915 O893 1.256 . S
C915 C908 1.496 . S
H916 C899 0.929 . S
H917 C900 0.929 . S
H918 C901 0.929 . S
H919 C902 0.931 . S
H920 C910 0.929 . S
H921 C911 0.929 . S
H922 C912 0.931 . S
H923 C913 0.929 . S
Tb924 N953 2.617 . S
Tb924 N959 2.572 . S
Tb924 O968 2.465 . S
Tb924 O969 2.387 . S
Tb924 O971 2.428 . S
Tb924 O972 2.308 . S
Tb924 O976 2.349 . S
Tb924 O979 2.393 . S
Tb924 C988 2.802 . S
C925 N926 1.379 . S
C925 C928 1.416 . S
C925 C932 1.424 . S
N926 C925 1.379 . S
N926 C929 1.334 . S
N926 Tb935 2.617 . S
C927 C929 1.390 . S
C927 C930 1.339 . S
C927 H947 0.930 . S
C928 C925 1.416 . S
C928 C930 1.416 . S
C928 C934 1.448 . S
C929 N926 1.334 . S
C929 C927 1.390 . S
C929 H940 0.930 . S
C930 C927 1.339 . S
C930 C928 1.416 . S
C930 H951 0.930 . S
C931 C932 1.413 . S
C931 C933 1.427 . S
C931 C937 1.416 . S
C932 C925 1.424 . S
C932 C931 1.413 . S
C932 N936 1.361 . S
C933 C931 1.427 . S
C933 C934 1.328 . S
C933 H948 0.929 . S
C934 C928 1.448 . S
C934 C933 1.328 . S
C934 H949 0.930 . S
Tb935 N926 2.617 . S
Tb935 N936 2.572 . S
Tb935 O970 2.349 . S
Tb935 O973 2.393 . S
Tb935 O974 2.465 1_554 S
Tb935 O975 2.387 . S
Tb935 O977 2.428 1_554 S
Tb935 O978 2.308 . S
Tb935 C999 2.802 1_554 S
N936 C932 1.361 . S
N936 Tb935 2.572 . S
N936 C938 1.340 . S
C937 C931 1.416 . S
C937 C939 1.332 . S
C937 H945 0.931 . S
C938 N936 1.340 . S
C938 C939 1.407 . S
C938 H944 0.930 . S
C939 C937 1.332 . S
C939 C938 1.407 . S
C939 H941 0.929 . S
H940 C929 0.930 . S
H941 C939 0.929 . S
H942 C957 0.930 . S
H943 C964 0.929 . S
H944 C938 0.930 . S
H945 C937 0.931 . S
H946 C960 0.930 . S
H947 C927 0.930 . S
H948 C933 0.929 . S
H949 C934 0.930 . S
H950 C955 0.930 . S
H951 C930 0.930 . S
H952 C963 0.931 . S
N953 Tb924 2.617 . S
N953 C954 1.379 . S
N953 C957 1.334 . S
C954 N953 1.379 . S
C954 C956 1.416 . S
C954 C962 1.424 . S
C955 H950 0.930 . S
C955 C957 1.390 . S
C955 C958 1.339 . S
C956 C954 1.416 . S
C956 C958 1.416 . S
C956 C989 1.448 . S
C957 H942 0.930 . S
C957 N953 1.334 . S
C957 C955 1.390 . S
C958 C955 1.339 . S
C958 C956 1.416 . S
C958 H965 0.930 . S
N959 Tb924 2.572 . S
N959 C960 1.340 . S
N959 C962 1.361 . S
C960 H946 0.930 . S
C960 N959 1.340 . S
C960 C964 1.407 . S
C961 C962 1.413 . S
C961 C963 1.416 . S
C961 C990 1.427 . S
C962 C954 1.424 . S
C962 N959 1.361 . S
C962 C961 1.413 . S
C963 H952 0.931 . S
C963 C961 1.416 . S
C963 C964 1.332 . S
C964 H943 0.929 . S
C964 C960 1.407 . S
C964 C963 1.332 . S
H965 C958 0.930 . S
H966 C989 0.930 . S
H967 C990 0.929 . S
O968 Tb924 2.465 . S
O968 C988 1.264 . S
O969 Tb924 2.387 . S
O969 C980 1.264 . S
O970 Tb935 2.349 . S
O970 C980 1.243 . S
O971 Tb924 2.428 . S
O971 C988 1.256 . S
O972 Tb924 2.308 . S
O972 C987 1.266 . S
O973 Tb935 2.393 . S
O973 C987 1.248 . S
O974 Tb935 2.465 1_556 S
O974 C999 1.264 . S
O975 Tb935 2.387 . S
O975 C991 1.264 . S
O976 Tb924 2.349 . S
O976 C991 1.243 . S
O977 Tb935 2.428 1_556 S
O977 C999 1.256 . S
O978 Tb935 2.308 . S
O978 C998 1.266 . S
O979 Tb924 2.393 . S
O979 C998 1.248 . S
C980 O969 1.264 . S
C980 O970 1.243 . S
C981 C984 1.399 . S
C981 C986 1.383 . S
C981 C988 1.496 . S
C982 C983 1.399 . S
C982 C986 1.389 . S
C983 C982 1.399 . S
C983 C985 1.380 . S
C983 H1000 0.929 . S
C984 C981 1.399 . S
C984 C985 1.392 . S
C984 H1001 0.929 . S
C985 C983 1.380 . S
C985 C984 1.392 . S
C985 H1002 0.929 . S
C986 C981 1.383 . S
C986 C982 1.389 . S
C986 H1003 0.931 . S
C987 O972 1.266 . S
C987 O973 1.248 . S
C988 Tb924 2.802 . S
C988 O968 1.264 . S
C988 O971 1.256 . S
C988 C981 1.496 . S
C989 C956 1.448 . S
C989 H966 0.930 . S
C989 C990 1.328 . S
C990 C961 1.427 . S
C990 H967 0.929 . S
C990 C989 1.328 . S
C991 O975 1.264 . S
C991 O976 1.243 . S
C992 C995 1.399 . S
C992 C996 1.383 . S
C992 C999 1.496 . S
C993 C994 1.399 . S
C993 C996 1.389 . S
C994 C993 1.399 . S
C994 C997 1.380 . S
C994 H1004 0.929 . S
C995 C992 1.399 . S
C995 C997 1.392 . S
C995 H1005 0.929 . S
C996 C992 1.383 . S
C996 C993 1.389 . S
C996 H1006 0.931 . S
C997 C994 1.380 . S
C997 C995 1.392 . S
C997 H1007 0.929 . S
C998 O978 1.266 . S
C998 O979 1.248 . S
C999 Tb935 2.802 1_556 S
C999 O974 1.264 . S
C999 O977 1.256 . S
C999 C992 1.496 . S
H1000 C983 0.929 . S
H1001 C984 0.929 . S
H1002 C985 0.929 . S
H1003 C986 0.931 . S
H1004 C994 0.929 . S
H1005 C995 0.929 . S
H1006 C996 0.931 . S
H1007 C997 0.929 . S
C1008 C1009 1.387 . S
C1008 H1012 0.950 . S
C1008 C1017 1.390 . S
C1009 C1008 1.387 . S
C1009 C1011 1.387 . S
H1010 C1017 0.950 . S
C1011 C1009 1.387 . S
C1011 C1013 1.390 . S
C1011 H1015 0.950 . S
H1012 C1008 0.950 . S
C1013 C1011 1.390 . S
C1013 C1014 1.387 . S
C1013 H1016 0.950 . S
C1014 C1013 1.387 . S
C1014 C1017 1.387 . S
H1015 C1011 0.950 . S
H1016 C1013 0.950 . S
C1017 C1008 1.390 . S
C1017 H1010 0.950 . S
C1017 C1014 1.387 . S
C1018 C1019 1.387 . S
C1018 H1022 0.950 . S
C1018 C1027 1.390 . S
C1019 C1018 1.387 . S
C1019 C1021 1.387 . S
H1020 C1027 0.950 . S
C1021 C1019 1.387 . S
C1021 C1023 1.390 . S
C1021 H1025 0.950 . S
H1022 C1018 0.950 . S
C1023 C1021 1.390 . S
C1023 C1024 1.387 . S
C1023 H1026 0.950 . S
C1024 C1023 1.387 . S
C1024 C1027 1.387 . S
H1025 C1021 0.950 . S
H1026 C1023 0.950 . S
C1027 C1018 1.390 . S
C1027 H1020 0.950 . S
C1027 C1024 1.387 . S
C1028 C1029 1.387 . S
C1028 H1032 0.950 . S
C1028 C1037 1.390 . S
C1029 C1028 1.387 . S
C1029 C1031 1.387 . S
H1030 C1037 0.950 . S
C1031 C1029 1.387 . S
C1031 C1033 1.390 . S
C1031 H1035 0.950 . S
H1032 C1028 0.950 . S
C1033 C1031 1.390 . S
C1033 C1034 1.387 . S
C1033 H1036 0.950 . S
C1034 C1033 1.387 . S
C1034 C1037 1.387 . S
H1035 C1031 0.950 . S
H1036 C1033 0.950 . S
C1037 C1028 1.390 . S
C1037 H1030 0.950 . S
C1037 C1034 1.387 . S
C1038 C1039 1.387 . S
C1038 H1042 0.950 . S
C1038 C1047 1.390 . S
C1039 C1038 1.387 . S
C1039 C1041 1.387 . S
H1040 C1047 0.950 . S
C1041 C1039 1.387 . S
C1041 C1043 1.390 . S
C1041 H1045 0.950 . S
H1042 C1038 0.950 . S
C1043 C1041 1.390 . S
C1043 C1044 1.387 . S
C1043 H1046 0.950 . S
C1044 C1043 1.387 . S
C1044 C1047 1.387 . S
H1045 C1041 0.950 . S
H1046 C1043 0.950 . S
C1047 C1038 1.390 . S
C1047 H1040 0.950 . S
C1047 C1044 1.387 . S
C1048 C1049 1.387 . S
C1048 H1052 0.950 . S
C1048 C1057 1.390 . S
C1049 C1048 1.387 . S
C1049 C1051 1.387 . S
H1050 C1057 0.950 . S
C1051 C1049 1.387 . S
C1051 C1053 1.390 . S
C1051 H1055 0.950 . S
H1052 C1048 0.950 . S
C1053 C1051 1.390 . S
C1053 C1054 1.387 . S
C1053 H1056 0.950 . S
C1054 C1053 1.387 . S
C1054 C1057 1.387 . S
H1055 C1051 0.950 . S
H1056 C1053 0.950 . S
C1057 C1048 1.390 . S
C1057 H1050 0.950 . S
C1057 C1054 1.387 . S
C1058 C1059 1.387 . S
C1058 H1062 0.950 . S
C1058 C1067 1.390 . S
C1059 C1058 1.387 . S
C1059 C1061 1.387 . S
H1060 C1067 0.950 . S
C1061 C1059 1.387 . S
C1061 C1063 1.390 . S
C1061 H1065 0.950 . S
H1062 C1058 0.950 . S
C1063 C1061 1.390 . S
C1063 C1064 1.387 . S
C1063 H1066 0.950 . S
C1064 C1063 1.387 . S
C1064 C1067 1.387 . S
H1065 C1061 0.950 . S
H1066 C1063 0.950 . S
C1067 C1058 1.390 . S
C1067 H1060 0.950 . S
C1067 C1064 1.387 . S
C1068 C1069 1.387 . S
C1068 H1072 0.950 . S
C1068 C1077 1.390 1_554 S
C1069 C1068 1.387 . S
C1069 C1071 1.387 . S
H1070 C1077 0.950 . S
C1071 C1069 1.387 . S
C1071 C1073 1.390 1_554 S
C1071 H1075 0.950 . S
H1072 C1068 0.950 . S
C1073 C1071 1.390 1_556 S
C1073 C1074 1.387 . S
C1073 H1076 0.950 . S
C1074 C1073 1.387 . S
C1074 C1077 1.387 . S
H1075 C1071 0.950 . S
H1076 C1073 0.950 . S
C1077 C1068 1.390 1_556 S
C1077 H1070 0.950 . S
C1077 C1074 1.387 . S
C1078 C1079 1.387 . S
C1078 H1082 0.950 . S
C1078 C1087 1.390 . S
C1079 C1078 1.387 . S
C1079 C1081 1.387 . S
H1080 C1087 0.950 . S
C1081 C1079 1.387 . S
C1081 C1083 1.390 . S
C1081 H1085 0.950 . S
H1082 C1078 0.950 . S
C1083 C1081 1.390 . S
C1083 C1084 1.387 . S
C1083 H1086 0.950 . S
C1084 C1083 1.387 . S
C1084 C1087 1.387 . S
H1085 C1081 0.950 . S
H1086 C1083 0.950 . S
C1087 C1078 1.390 . S
C1087 H1080 0.950 . S
C1087 C1084 1.387 . S
C1088 C1089 1.387 . S
C1088 H1092 0.950 . S
C1088 C1097 1.390 . S
C1089 C1088 1.387 . S
C1089 C1091 1.387 . S
H1090 C1097 0.950 . S
C1091 C1089 1.387 . S
C1091 C1093 1.390 . S
C1091 H1095 0.950 . S
H1092 C1088 0.950 . S
C1093 C1091 1.390 . S
C1093 C1094 1.387 . S
C1093 H1096 0.950 . S
C1094 C1093 1.387 . S
C1094 C1097 1.387 . S
H1095 C1091 0.950 . S
H1096 C1093 0.950 . S
C1097 C1088 1.390 . S
C1097 H1090 0.950 . S
C1097 C1094 1.387 . S
C1098 C1099 1.387 . S
C1098 H1102 0.950 . S
C1098 C1107 1.390 1_554 S
C1099 C1098 1.387 . S
C1099 C1101 1.387 . S
H1100 C1107 0.950 . S
C1101 C1099 1.387 . S
C1101 C1103 1.390 1_554 S
C1101 H1105 0.950 . S
H1102 C1098 0.950 . S
C1103 C1101 1.390 1_556 S
C1103 C1104 1.387 . S
C1103 H1106 0.950 . S
C1104 C1103 1.387 . S
C1104 C1107 1.387 . S
H1105 C1101 0.950 . S
H1106 C1103 0.950 . S
C1107 C1098 1.390 1_556 S
C1107 H1100 0.950 . S
C1107 C1104 1.387 . S
C1108 C1109 1.387 . S
C1108 H1112 0.950 . S
C1108 C1117 1.390 . S
C1109 C1108 1.387 . S
C1109 C1111 1.387 . S
H1110 C1117 0.950 . S
C1111 C1109 1.387 . S
C1111 C1113 1.390 . S
C1111 H1115 0.950 . S
H1112 C1108 0.950 . S
C1113 C1111 1.390 . S
C1113 C1114 1.387 . S
C1113 H1116 0.950 . S
C1114 C1113 1.387 . S
C1114 C1117 1.387 . S
H1115 C1111 0.950 . S
H1116 C1113 0.950 . S
C1117 C1108 1.390 . S
C1117 H1110 0.950 . S
C1117 C1114 1.387 . S
C1118 C1119 1.387 . S
C1118 H1122 0.950 . S
C1118 C1127 1.390 . S
C1119 C1118 1.387 . S
C1119 C1121 1.387 . S
H1120 C1127 0.950 . S
C1121 C1119 1.387 . S
C1121 C1123 1.390 . S
C1121 H1125 0.950 . S
H1122 C1118 0.950 . S
C1123 C1121 1.390 . S
C1123 C1124 1.387 . S
C1123 H1126 0.950 . S
C1124 C1123 1.387 . S
C1124 C1127 1.387 . S
H1125 C1121 0.950 . S
H1126 C1123 0.950 . S
C1127 C1118 1.390 . S
C1127 H1120 0.950 . S
C1127 C1124 1.387 . S
C1128 C1129 1.387 . S
C1128 H1132 0.950 . S
C1128 C1137 1.390 1_566 S
C1129 C1128 1.387 . S
C1129 C1131 1.387 . S
H1130 C1137 0.950 . S
C1131 C1129 1.387 . S
C1131 C1133 1.390 1_566 S
C1131 H1135 0.950 . S
H1132 C1128 0.950 . S
C1133 C1131 1.390 1_544 S
C1133 C1134 1.387 . S
C1133 H1136 0.950 . S
C1134 C1133 1.387 . S
C1134 C1137 1.387 . S
H1135 C1131 0.950 . S
H1136 C1133 0.950 . S
C1137 C1128 1.390 1_544 S
C1137 H1130 0.950 . S
C1137 C1134 1.387 . S
C1138 C1139 1.387 . S
C1138 H1142 0.950 . S
C1138 C1147 1.390 . S
C1139 C1138 1.387 . S
C1139 C1141 1.387 . S
H1140 C1147 0.950 . S
C1141 C1139 1.387 . S
C1141 C1143 1.390 . S
C1141 H1145 0.950 . S
H1142 C1138 0.950 . S
C1143 C1141 1.390 . S
C1143 C1144 1.387 . S
C1143 H1146 0.950 . S
C1144 C1143 1.387 . S
C1144 C1147 1.387 . S
H1145 C1141 0.950 . S
H1146 C1143 0.950 . S
C1147 C1138 1.390 . S
C1147 H1140 0.950 . S
C1147 C1144 1.387 . S
C1148 C1149 1.387 1_655 S
C1148 H1152 0.950 . S
C1148 C1157 1.390 . S
C1149 C1148 1.387 1_455 S
C1149 C1151 1.387 . S
H1150 C1157 0.950 . S
C1151 C1149 1.387 . S
C1151 C1153 1.390 . S
C1151 H1155 0.950 . S
H1152 C1148 0.950 . S
C1153 C1151 1.390 . S
C1153 C1154 1.387 1_455 S
C1153 H1156 0.950 . S
C1154 C1153 1.387 1_655 S
C1154 C1157 1.387 . S
H1155 C1151 0.950 . S
H1156 C1153 0.950 . S
C1157 C1148 1.390 . S
C1157 H1150 0.950 . S
C1157 C1154 1.387 . S
C1158 C1159 1.387 . S
C1158 H1162 0.950 . S
C1158 C1167 1.390 1_564 S
C1159 C1158 1.387 . S
C1159 C1161 1.387 . S
H1160 C1167 0.950 . S
C1161 C1159 1.387 . S
C1161 C1163 1.390 1_564 S
C1161 H1165 0.950 . S
H1162 C1158 0.950 . S
C1163 C1161 1.390 1_546 S
C1163 C1164 1.387 . S
C1163 H1166 0.950 . S
C1164 C1163 1.387 . S
C1164 C1167 1.387 . S
H1165 C1161 0.950 . S
H1166 C1163 0.950 . S
C1167 C1158 1.390 1_546 S
C1167 H1160 0.950 . S
C1167 C1164 1.387 . S
C1168 C1169 1.387 . S
C1168 H1172 0.950 . S
C1168 C1177 1.390 . S
C1169 C1168 1.387 . S
C1169 C1171 1.387 . S
H1170 C1177 0.950 . S
C1171 C1169 1.387 . S
C1171 C1173 1.390 . S
C1171 H1175 0.950 . S
H1172 C1168 0.950 . S
C1173 C1171 1.390 . S
C1173 C1174 1.387 . S
C1173 H1176 0.950 . S
C1174 C1173 1.387 . S
C1174 C1177 1.387 . S
H1175 C1171 0.950 . S
H1176 C1173 0.950 . S
C1177 C1168 1.390 . S
C1177 H1170 0.950 . S
C1177 C1174 1.387 . S
C1178 C1179 1.387 . S
C1178 H1182 0.950 . S
C1178 C1187 1.390 1_455 S
C1179 C1178 1.387 . S
C1179 C1181 1.387 . S
H1180 C1187 0.950 . S
C1181 C1179 1.387 . S
C1181 C1183 1.390 1_455 S
C1181 H1185 0.950 . S
H1182 C1178 0.950 . S
C1183 C1181 1.390 1_655 S
C1183 C1184 1.387 . S
C1183 H1186 0.950 . S
C1184 C1183 1.387 . S
C1184 C1187 1.387 . S
H1185 C1181 0.950 . S
H1186 C1183 0.950 . S
C1187 C1178 1.390 1_655 S
C1187 H1180 0.950 . S
C1187 C1184 1.387 . S
C1188 C1189 1.387 . S
C1188 H1192 0.950 . S
C1188 C1197 1.390 1_545 S
C1189 C1188 1.387 . S
C1189 C1191 1.387 . S
H1190 C1197 0.950 . S
C1191 C1189 1.387 . S
C1191 C1193 1.390 1_545 S
C1191 H1195 0.950 . S
H1192 C1188 0.950 . S
C1193 C1191 1.390 1_565 S
C1193 C1194 1.387 . S
C1193 H1196 0.950 . S
C1194 C1193 1.387 . S
C1194 C1197 1.387 . S
H1195 C1191 0.950 . S
H1196 C1193 0.950 . S
C1197 C1188 1.390 1_565 S
C1197 H1190 0.950 . S
C1197 C1194 1.387 . S
C1198 C1199 1.387 . S
C1198 H1202 0.950 . S
C1198 C1207 1.390 . S
C1199 C1198 1.387 . S
C1199 C1201 1.387 . S
H1200 C1207 0.950 . S
C1201 C1199 1.387 . S
C1201 C1203 1.390 . S
C1201 H1205 0.950 . S
H1202 C1198 0.950 . S
C1203 C1201 1.390 . S
C1203 C1204 1.387 . S
C1203 H1206 0.950 . S
C1204 C1203 1.387 . S
C1204 C1207 1.387 . S
H1205 C1201 0.950 . S
H1206 C1203 0.950 . S
C1207 C1198 1.390 . S
C1207 H1200 0.950 . S
C1207 C1204 1.387 . S
C1208 C1209 1.387 . S
C1208 H1212 0.950 . S
C1208 C1217 1.390 1_655 S
C1209 C1208 1.387 . S
C1209 C1211 1.387 . S
H1210 C1217 0.950 . S
C1211 C1209 1.387 . S
C1211 C1213 1.390 1_655 S
C1211 H1215 0.950 1_556 S
H1212 C1208 0.950 . S
C1213 C1211 1.390 1_455 S
C1213 C1214 1.387 . S
C1213 H1216 0.950 1_556 S
C1214 C1213 1.387 . S
C1214 C1217 1.387 . S
H1215 C1211 0.950 1_554 S
H1216 C1213 0.950 1_554 S
C1217 C1208 1.390 1_455 S
C1217 H1210 0.950 . S
C1217 C1214 1.387 . S
C1218 C1219 1.387 . S
C1218 H1222 0.950 . S
C1218 C1227 1.390 1_455 S
C1219 C1218 1.387 . S
C1219 C1221 1.387 . S
H1220 C1227 0.950 . S
C1221 C1219 1.387 . S
C1221 C1223 1.390 1_455 S
C1221 H1225 0.950 . S
H1222 C1218 0.950 . S
C1223 C1221 1.390 1_655 S
C1223 C1224 1.387 . S
C1223 H1226 0.950 . S
C1224 C1223 1.387 . S
C1224 C1227 1.387 . S
H1225 C1221 0.950 . S
H1226 C1223 0.950 . S
C1227 C1218 1.390 1_655 S
C1227 H1220 0.950 . S
C1227 C1224 1.387 . S
C1228 C1229 1.387 . S
C1228 H1232 0.950 . S
C1228 C1237 1.390 1_565 S
C1229 C1228 1.387 . S
C1229 C1231 1.387 . S
H1230 C1237 0.950 . S
C1231 C1229 1.387 . S
C1231 C1233 1.390 1_565 S
C1231 H1235 0.950 . S
H1232 C1228 0.950 . S
C1233 C1231 1.390 1_545 S
C1233 C1234 1.387 . S
C1233 H1236 0.950 . S
C1234 C1233 1.387 . S
C1234 C1237 1.387 . S
H1235 C1231 0.950 . S
H1236 C1233 0.950 . S
C1237 C1228 1.390 1_545 S
C1237 H1230 0.950 . S
C1237 C1234 1.387 . S
C1238 C1239 1.387 . S
C1238 H1242 0.950 . S
C1238 C1247 1.390 . S
C1239 C1238 1.387 . S
C1239 C1241 1.387 . S
H1240 C1247 0.950 . S
C1241 C1239 1.387 . S
C1241 C1243 1.390 . S
C1241 H1245 0.950 1_554 S
H1242 C1238 0.950 . S
C1243 C1241 1.390 . S
C1243 C1244 1.387 . S
C1243 H1246 0.950 1_554 S
C1244 C1243 1.387 . S
C1244 C1247 1.387 . S
H1245 C1241 0.950 1_556 S
H1246 C1243 0.950 1_556 S
C1247 C1238 1.390 . S
C1247 H1240 0.950 . S
C1247 C1244 1.387 . S
C1248 C1249 1.387 . S
C1248 H1252 0.950 . S
C1248 C1257 1.390 1_565 S
C1249 C1248 1.387 . S
C1249 C1251 1.387 . S
H1250 C1257 0.950 . S
C1251 C1249 1.387 . S
C1251 C1253 1.390 1_565 S
C1251 H1255 0.950 . S
H1252 C1248 0.950 . S
C1253 C1251 1.390 1_545 S
C1253 C1254 1.387 . S
C1253 H1256 0.950 . S
C1254 C1253 1.387 . S
C1254 C1257 1.387 . S
H1255 C1251 0.950 . S
H1256 C1253 0.950 . S
C1257 C1248 1.390 1_545 S
C1257 H1250 0.950 . S
C1257 C1254 1.387 . S
C1258 C1259 1.387 . S
C1258 H1262 0.950 . S
C1258 C1267 1.390 . S
C1259 C1258 1.387 . S
C1259 C1261 1.387 . S
H1260 C1267 0.950 . S
C1261 C1259 1.387 . S
C1261 C1263 1.390 . S
C1261 H1265 0.950 . S
H1262 C1258 0.950 . S
C1263 C1261 1.390 . S
C1263 C1264 1.387 . S
C1263 H1266 0.950 . S
C1264 C1263 1.387 . S
C1264 C1267 1.387 . S
H1265 C1261 0.950 . S
H1266 C1263 0.950 . S
C1267 C1258 1.390 . S
C1267 H1260 0.950 . S
C1267 C1264 1.387 . S
C1268 C1269 1.387 . S
C1268 H1272 0.950 . S
C1268 C1277 1.390 1_655 S
C1269 C1268 1.387 . S
C1269 C1271 1.387 . S
H1270 C1277 0.950 . S
C1271 C1269 1.387 . S
C1271 C1273 1.390 1_655 S
C1271 H1275 0.950 . S
H1272 C1268 0.950 . S
C1273 C1271 1.390 1_455 S
C1273 C1274 1.387 . S
C1273 H1276 0.950 . S
C1274 C1273 1.387 . S
C1274 C1277 1.387 . S
H1275 C1271 0.950 . S
H1276 C1273 0.950 . S
C1277 C1268 1.390 1_455 S
C1277 H1270 0.950 . S
C1277 C1274 1.387 . S
C1278 C1279 1.387 . S
C1278 H1282 0.950 . S
C1278 C1287 1.390 1_545 S
C1279 C1278 1.387 . S
C1279 C1281 1.387 . S
H1280 C1287 0.950 . S
C1281 C1279 1.387 . S
C1281 C1283 1.390 1_545 S
C1281 H1285 0.950 . S
H1282 C1278 0.950 . S
C1283 C1281 1.390 1_565 S
C1283 C1284 1.387 . S
C1283 H1286 0.950 . S
C1284 C1283 1.387 . S
C1284 C1287 1.387 . S
H1285 C1281 0.950 . S
H1286 C1283 0.950 . S
C1287 C1278 1.390 1_565 S
C1287 H1280 0.950 . S
C1287 C1284 1.387 . S
C1288 C1289 1.387 . S
C1288 H1292 0.950 . S
C1288 C1297 1.390 . S
C1289 C1288 1.387 . S
C1289 C1291 1.387 . S
H1290 C1297 0.950 . S
C1291 C1289 1.387 . S
C1291 C1293 1.390 . S
C1291 H1295 0.950 . S
H1292 C1288 0.950 . S
C1293 C1291 1.390 . S
C1293 C1294 1.387 . S
C1293 H1296 0.950 . S
C1294 C1293 1.387 . S
C1294 C1297 1.387 . S
H1295 C1291 0.950 . S
H1296 C1293 0.950 . S
C1297 C1288 1.390 . S
C1297 H1290 0.950 . S
C1297 C1294 1.387 . S
C1298 C1299 1.387 . S
C1298 H1302 0.950 . S
C1298 C1307 1.390 1_455 S
C1299 C1298 1.387 . S
C1299 C1301 1.387 . S
H1300 C1307 0.950 . S
C1301 C1299 1.387 . S
C1301 C1303 1.390 1_455 S
C1301 H1305 0.950 . S
H1302 C1298 0.950 . S
C1303 C1301 1.390 1_655 S
C1303 C1304 1.387 . S
C1303 H1306 0.950 . S
C1304 C1303 1.387 . S
C1304 C1307 1.387 . S
H1305 C1301 0.950 . S
H1306 C1303 0.950 . S
C1307 C1298 1.390 1_655 S
C1307 H1300 0.950 . S
C1307 C1304 1.387 . S
C1308 C1309 1.387 . S
C1308 H1312 0.950 . S
C1308 C1317 1.390 . S
C1309 C1308 1.387 . S
C1309 C1311 1.387 . S
H1310 C1317 0.950 . S
C1311 C1309 1.387 . S
C1311 C1313 1.390 . S
C1311 H1315 0.950 . S
H1312 C1308 0.950 . S
C1313 C1311 1.390 . S
C1313 C1314 1.387 . S
C1313 H1316 0.950 . S
C1314 C1313 1.387 . S
C1314 C1317 1.387 . S
H1315 C1311 0.950 . S
H1316 C1313 0.950 . S
C1317 C1308 1.390 . S
C1317 H1310 0.950 . S
C1317 C1314 1.387 . S
C1318 C1319 1.387 . S
C1318 H1322 0.950 . S
C1318 C1327 1.390 . S
C1319 C1318 1.387 . S
C1319 C1321 1.387 . S
H1320 C1327 0.950 . S
C1321 C1319 1.387 . S
C1321 C1323 1.390 . S
C1321 H1325 0.950 . S
H1322 C1318 0.950 . S
C1323 C1321 1.390 . S
C1323 C1324 1.387 . S
C1323 H1326 0.950 . S
C1324 C1323 1.387 . S
C1324 C1327 1.387 . S
H1325 C1321 0.950 . S
H1326 C1323 0.950 . S
C1327 C1318 1.390 . S
C1327 H1320 0.950 . S
C1327 C1324 1.387 . S
C1328 C1329 1.387 . S
C1328 H1332 0.950 . S
C1328 C1337 1.390 . S
C1329 C1328 1.387 . S
C1329 C1331 1.387 . S
H1330 C1337 0.950 . S
C1331 C1329 1.387 . S
C1331 C1333 1.390 . S
C1331 H1335 0.950 . S
H1332 C1328 0.950 . S
C1333 C1331 1.390 . S
C1333 C1334 1.387 . S
C1333 H1336 0.950 . S
C1334 C1333 1.387 . S
C1334 C1337 1.387 . S
H1335 C1331 0.950 . S
H1336 C1333 0.950 . S
C1337 C1328 1.390 . S
C1337 H1330 0.950 . S
C1337 C1334 1.387 . S
C1338 C1339 1.387 . S
C1338 H1342 0.950 . S
C1338 C1347 1.390 . S
C1339 C1338 1.387 . S
C1339 C1341 1.387 . S
H1340 C1347 0.950 . S
C1341 C1339 1.387 . S
C1341 C1343 1.390 . S
C1341 H1345 0.950 . S
H1342 C1338 0.950 . S
C1343 C1341 1.390 . S
C1343 C1344 1.387 . S
C1343 H1346 0.950 . S
C1344 C1343 1.387 . S
C1344 C1347 1.387 . S
H1345 C1341 0.950 . S
H1346 C1343 0.950 . S
C1347 C1338 1.390 . S
C1347 H1340 0.950 . S
C1347 C1344 1.387 . S
C1348 C1349 1.387 . S
C1348 H1352 0.950 . S
C1348 C1357 1.390 . S
C1349 C1348 1.387 . S
C1349 C1351 1.387 . S
H1350 C1357 0.950 . S
C1351 C1349 1.387 . S
C1351 C1353 1.390 . S
C1351 H1355 0.950 . S
H1352 C1348 0.950 . S
C1353 C1351 1.390 . S
C1353 C1354 1.387 . S
C1353 H1356 0.950 . S
C1354 C1353 1.387 . S
C1354 C1357 1.387 . S
H1355 C1351 0.950 . S
H1356 C1353 0.950 . S
C1357 C1348 1.390 . S
C1357 H1350 0.950 . S
C1357 C1354 1.387 . S
C1358 C1359 1.387 . S
C1358 H1362 0.950 . S
C1358 C1367 1.390 . S
C1359 C1358 1.387 . S
C1359 C1361 1.387 . S
H1360 C1367 0.950 . S
C1361 C1359 1.387 . S
C1361 C1363 1.390 . S
C1361 H1365 0.950 . S
H1362 C1358 0.950 . S
C1363 C1361 1.390 . S
C1363 C1364 1.387 . S
C1363 H1366 0.950 . S
C1364 C1363 1.387 . S
C1364 C1367 1.387 . S
H1365 C1361 0.950 . S
H1366 C1363 0.950 . S
C1367 C1358 1.390 . S
C1367 H1360 0.950 . S
C1367 C1364 1.387 . S
C1009 C63 1.285 . S
C1014 C735 1.286 . S
C1019 C147 1.285 . S
C1024 C819 1.285 . S
C1029 C231 1.285 . S
C1034 C903 1.285 . S
C1039 C987 1.286 . S
C1044 C315 1.287 . S
C1049 C399 1.288 . S
C1054 C567 1.288 . S
C1059 C651 1.287 . S
C1064 C483 1.287 . S
C1069 C898 1.769 1_554 S
C1074 C58 1.770 1_556 S
C1079 C982 1.767 . S
C1084 C142 1.770 . S
C1089 C226 1.767 . S
C1094 C562 1.770 . S
C1099 C646 1.769 1_554 S
C1104 C310 1.770 1_556 S
C1109 C730 1.770 . S
C1114 C394 1.767 . S
C1119 C478 1.770 . S
C1124 C814 1.767 . S
C1129 C655 4.499 . S
C1134 C67 4.499 . S
C1139 C739 4.499 . S
C1144 C151 4.499 . S
C1149 C823 4.499 . S
C1154 C235 4.499 . S
C1159 C319 4.499 . S
C1164 C907 4.499 . S
C1169 C403 4.499 . S
C1174 C991 4.499 . S
C1179 C487 4.499 . S
C1184 C571 4.499 . S
C1189 C74 1.219 . S
C1194 C326 1.219 . S
C1199 C158 1.218 . S
C1204 C410 1.218 . S
C1209 C242 1.219 . S
C1214 C494 1.219 . S
C1219 C830 1.218 . S
C1224 C578 1.218 . S
C1229 C662 1.219 . S
C1234 C914 1.219 . S
C1239 C998 1.219 . S
C1244 C746 1.219 . S
C1249 C657 0.685 . S
C1254 C69 0.686 . S
C1259 C741 0.687 . S
C1264 C153 0.685 . S
C1269 C237 0.691 . S
C1274 C825 0.686 . S
C1279 C909 0.694 . S
C1284 C321 0.694 . S
C1289 C993 0.692 . S
C1294 C405 0.687 . S
C1299 C489 0.691 . S
C1304 C573 0.686 . S
C1309 C56 3.813 . S
C1314 C896 3.813 . S
C1319 C140 3.813 . S
C1324 C980 3.813 1_556 S
C1329 C224 3.813 1_554 S
C1334 C560 3.814 . S
C1339 C308 3.813 . S
C1344 C644 3.813 . S
C1349 C392 3.813 . S
C1354 C728 3.813 1_556 S
C1359 C812 3.813 . S
C1364 C476 3.814 1_554 S
