# Generated by pormake.
# Topology cag, (4)-cn, num edge types: 1
# Building blocks:
#     Node 0, Type 0, BuildingBlock: KUFVIS_clean_sbu_0, # of connection points: 4
#     Node 1, Type 0, BuildingBlock: KUFVIS_clean_sbu_0, # of connection points: 4
#     Node 2, Type 0, BuildingBlock: KUFVIS_clean_sbu_0, # of connection points: 4
#     Node 3, Type 0, BuildingBlock: KUFVIS_clean_sbu_0, # of connection points: 4
#     Node 4, Type 0, BuildingBlock: KUFVIS_clean_sbu_0, # of connection points: 4
#     Node 5, Type 0, BuildingBlock: KUFVIS_clean_sbu_0, # of connection points: 4
#     Node 6, Type 0, BuildingBlock: KUFVIS_clean_sbu_0, # of connection points: 4
#     Node 7, Type 0, BuildingBlock: KUFVIS_clean_sbu_0, # of connection points: 4
#     Node 8, Type 0, BuildingBlock: KUFVIS_clean_sbu_0, # of connection points: 4
#     Node 9, Type 0, BuildingBlock: KUFVIS_clean_sbu_0, # of connection points: 4
#     Node 10, Type 0, BuildingBlock: KUFVIS_clean_sbu_0, # of connection points: 4
#     Node 11, Type 0, BuildingBlock: KUFVIS_clean_sbu_0, # of connection points: 4
#     Node 12, Type 0, BuildingBlock: KUFVIS_clean_sbu_0, # of connection points: 4
#     Node 13, Type 0, BuildingBlock: KUFVIS_clean_sbu_0, # of connection points: 4
#     Node 14, Type 0, BuildingBlock: KUFVIS_clean_sbu_0, # of connection points: 4
#     Node 15, Type 0, BuildingBlock: KUFVIS_clean_sbu_0, # of connection points: 4
#     Edge 16, Type (0, 0), BuildingBlock: ZUJKAS_clean_linker_0, # of connection points: 2
#     Edge 17, Type (0, 0), BuildingBlock: ZUJKAS_clean_linker_0, # of connection points: 2
#     Edge 18, Type (0, 0), BuildingBlock: ZUJKAS_clean_linker_0, # of connection points: 2
#     Edge 19, Type (0, 0), BuildingBlock: ZUJKAS_clean_linker_0, # of connection points: 2
#     Edge 20, Type (0, 0), BuildingBlock: ZUJKAS_clean_linker_0, # of connection points: 2
#     Edge 21, Type (0, 0), BuildingBlock: ZUJKAS_clean_linker_0, # of connection points: 2
#     Edge 22, Type (0, 0), BuildingBlock: ZUJKAS_clean_linker_0, # of connection points: 2
#     Edge 23, Type (0, 0), BuildingBlock: ZUJKAS_clean_linker_0, # of connection points: 2
#     Edge 24, Type (0, 0), BuildingBlock: ZUJKAS_clean_linker_0, # of connection points: 2
#     Edge 25, Type (0, 0), BuildingBlock: ZUJKAS_clean_linker_0, # of connection points: 2
#     Edge 26, Type (0, 0), BuildingBlock: ZUJKAS_clean_linker_0, # of connection points: 2
#     Edge 27, Type (0, 0), BuildingBlock: ZUJKAS_clean_linker_0, # of connection points: 2
#     Edge 28, Type (0, 0), BuildingBlock: ZUJKAS_clean_linker_0, # of connection points: 2
#     Edge 29, Type (0, 0), BuildingBlock: ZUJKAS_clean_linker_0, # of connection points: 2
#     Edge 30, Type (0, 0), BuildingBlock: ZUJKAS_clean_linker_0, # of connection points: 2
#     Edge 31, Type (0, 0), BuildingBlock: ZUJKAS_clean_linker_0, # of connection points: 2
#     Edge 32, Type (0, 0), BuildingBlock: ZUJKAS_clean_linker_0, # of connection points: 2
#     Edge 33, Type (0, 0), BuildingBlock: ZUJKAS_clean_linker_0, # of connection points: 2
#     Edge 34, Type (0, 0), BuildingBlock: ZUJKAS_clean_linker_0, # of connection points: 2
#     Edge 35, Type (0, 0), BuildingBlock: ZUJKAS_clean_linker_0, # of connection points: 2
#     Edge 36, Type (0, 0), BuildingBlock: ZUJKAS_clean_linker_0, # of connection points: 2
#     Edge 37, Type (0, 0), BuildingBlock: ZUJKAS_clean_linker_0, # of connection points: 2
#     Edge 38, Type (0, 0), BuildingBlock: ZUJKAS_clean_linker_0, # of connection points: 2
#     Edge 39, Type (0, 0), BuildingBlock: ZUJKAS_clean_linker_0, # of connection points: 2
#     Edge 40, Type (0, 0), BuildingBlock: ZUJKAS_clean_linker_0, # of connection points: 2
#     Edge 41, Type (0, 0), BuildingBlock: ZUJKAS_clean_linker_0, # of connection points: 2
#     Edge 42, Type (0, 0), BuildingBlock: ZUJKAS_clean_linker_0, # of connection points: 2
#     Edge 43, Type (0, 0), BuildingBlock: ZUJKAS_clean_linker_0, # of connection points: 2
#     Edge 44, Type (0, 0), BuildingBlock: ZUJKAS_clean_linker_0, # of connection points: 2
#     Edge 45, Type (0, 0), BuildingBlock: ZUJKAS_clean_linker_0, # of connection points: 2
#     Edge 46, Type (0, 0), BuildingBlock: ZUJKAS_clean_linker_0, # of connection points: 2
#     Edge 47, Type (0, 0), BuildingBlock: ZUJKAS_clean_linker_0, # of connection points: 2
# Relax obj value: 0.082
# Max RMSD: 0.119
# Mean RMSD: 0.116
data_MOF--net-cag--node1-KUFVIS_clean_sbu_0--edge1-ZUJKAS_clean_linker_0
_symmetry_space_group_name_H-M    P1
_symmetry_Int_Tables_number       1
_symmetry_cell_setting            triclinic
loop_
_symmetry_equiv_pos_as_xyz
'x, y, z'
_cell_length_a     54.048305
_cell_length_b     64.46946
_cell_length_c     53.520063
_cell_angle_alpha  89.997172
_cell_angle_beta   89.990011
_cell_angle_gamma 89.948652
loop_
_atom_site_label
_atom_site_type_symbol
_atom_site_fract_x
_atom_site_fract_y
_atom_site_fract_z
_atom_type_partial_charge
Mn0 Mn 0.34386 0.13956 0.09805 0.0
Mn1 Mn 0.37432 0.17314 0.13553 0.0
C2 C 0.3851 0.14755 0.09066 0.0
C3 C 0.33159 0.10641 0.08533 0.0
C4 C 0.3372 0.18693 0.09651 0.0
O5 O 0.32235 0.13963 0.12968 0.0
O6 O 0.3448 0.16191 0.15301 0.0
C7 C 0.39116 0.14352 0.17429 0.0
N8 N 0.39647 0.1582 0.1568 0.0
C9 C 0.43995 0.15642 0.16631 0.0
C10 C 0.43493 0.14134 0.18449 0.0
C11 C 0.41043 0.13483 0.18845 0.0
C12 C 0.41999 0.16451 0.15277 0.0
H13 H 0.37236 0.13847 0.17739 0.0
C14 C 0.32637 0.14963 0.14998 0.0
O15 O 0.31942 0.12288 0.07879 0.0
O16 O 0.34995 0.10905 0.10066 0.0
N17 N 0.40348 0.18486 0.12097 0.0
C18 C 0.40532 0.19876 0.10187 0.0
C19 C 0.42862 0.20668 0.09534 0.0
C20 C 0.44975 0.20033 0.10856 0.0
C21 C 0.44742 0.18595 0.12808 0.0
C22 C 0.42367 0.17876 0.13392 0.0
H23 H 0.38913 0.2038 0.09173 0.0
O24 O 0.37109 0.14111 0.07257 0.0
O25 O 0.37444 0.14963 0.11224 0.0
O26 O 0.33199 0.16876 0.08879 0.0
O27 O 0.35263 0.19034 0.11408 0.0
C28 C 0.46773 0.17833 0.1418 0.0
C29 C 0.46401 0.1635 0.16082 0.0
H30 H 0.44974 0.13456 0.19541 0.0
H31 H 0.40642 0.12315 0.20239 0.0
H32 H 0.43029 0.21771 0.08019 0.0
H33 H 0.46766 0.20658 0.10353 0.0
H34 H 0.48632 0.18357 0.13766 0.0
H35 H 0.47982 0.15753 0.17098 0.0
Mn36 Mn 0.16398 0.88722 0.5966 0.0
Mn37 Mn 0.13525 0.8511 0.63225 0.0
C38 C 0.12216 0.88064 0.59094 0.0
C39 C 0.17626 0.92093 0.58604 0.0
C40 C 0.16978 0.8401 0.58973 0.0
O41 O 0.18699 0.88499 0.62689 0.0
O42 O 0.16598 0.86091 0.649 0.0
C43 C 0.12139 0.87632 0.67636 0.0
N44 N 0.11483 0.86339 0.65736 0.0
C45 C 0.07269 0.86207 0.67184 0.0
C46 C 0.07903 0.8753 0.69163 0.0
C47 C 0.10347 0.88248 0.69386 0.0
C48 C 0.09141 0.85622 0.65517 0.0
H49 H 0.14016 0.88185 0.67818 0.0
C50 C 0.18409 0.87358 0.64628 0.0
O51 O 0.18773 0.90473 0.57757 0.0
O52 O 0.1587 0.91763 0.60214 0.0
N53 N 0.10508 0.84072 0.61841 0.0
C54 C 0.10141 0.83036 0.59654 0.0
C55 C 0.07755 0.82343 0.59039 0.0
C56 C 0.05777 0.82711 0.60685 0.0
C57 C 0.06201 0.83779 0.62927 0.0
C58 C 0.0862 0.84429 0.63443 0.0
H59 H 0.11656 0.82756 0.58381 0.0
O60 O 0.13562 0.88769 0.57273 0.0
O61 O 0.13377 0.87664 0.61174 0.0
O62 O 0.17505 0.85867 0.58367 0.0
O63 O 0.1551 0.83573 0.60754 0.0
C64 C 0.04303 0.84295 0.64622 0.0
C65 C 0.04838 0.85504 0.66753 0.0
H66 H 0.06521 0.88027 0.70502 0.0
H67 H 0.10847 0.89276 0.70902 0.0
H68 H 0.07439 0.81533 0.57298 0.0
H69 H 0.03934 0.82194 0.60191 0.0
H70 H 0.02414 0.83814 0.64273 0.0
H71 H 0.03352 0.8593 0.68011 0.0
Mn72 Mn 0.34391 0.88864 0.9238 0.0
Mn73 Mn 0.37447 0.85407 0.88765 0.0
C74 C 0.38512 0.88072 0.93161 0.0
C75 C 0.33154 0.92207 0.93542 0.0
C76 C 0.33725 0.84136 0.92705 0.0
O77 O 0.32245 0.88781 0.89212 0.0
O78 O 0.34497 0.86487 0.86977 0.0
C79 C 0.39135 0.88275 0.84792 0.0
N80 N 0.39663 0.86846 0.86588 0.0
C81 C 0.44011 0.86984 0.85625 0.0
C82 C 0.43512 0.88451 0.83758 0.0
C83 C 0.41064 0.89103 0.83345 0.0
C84 C 0.42014 0.86216 0.8701 0.0
H85 H 0.37257 0.88779 0.84467 0.0
C86 C 0.3265 0.8772 0.87227 0.0
O87 O 0.31938 0.90574 0.9424 0.0
O88 O 0.34996 0.9191 0.92022 0.0
N89 N 0.40359 0.84263 0.9026 0.0
C90 C 0.40538 0.82907 0.92206 0.0
C91 C 0.42864 0.82108 0.9287 0.0
C92 C 0.44976 0.82701 0.91521 0.0
C93 C 0.44749 0.84107 0.89535 0.0
C94 C 0.42379 0.84834 0.88941 0.0
H95 H 0.38918 0.82432 0.93238 0.0
O96 O 0.37106 0.88766 0.9494 0.0
O97 O 0.37455 0.87816 0.91007 0.0
O98 O 0.33202 0.85973 0.93404 0.0
O99 O 0.35274 0.83745 0.90968 0.0
C100 C 0.46781 0.84827 0.88133 0.0
C101 C 0.46414 0.86273 0.86189 0.0
H102 H 0.44994 0.89097 0.8264 0.0
H103 H 0.40665 0.90241 0.81913 0.0
H104 H 0.43026 0.8103 0.94411 0.0
H105 H 0.46762 0.82066 0.92028 0.0
H106 H 0.48638 0.84297 0.88553 0.0
H107 H 0.47995 0.86838 0.85148 0.0
Mn108 Mn 0.16058 0.13949 0.42392 0.0
Mn109 Mn 0.13194 0.17286 0.38462 0.0
C110 C 0.11899 0.14746 0.42931 0.0
C111 C 0.17262 0.10652 0.43775 0.0
C112 C 0.16621 0.18701 0.42587 0.0
O113 O 0.18371 0.13928 0.3935 0.0
O114 O 0.16298 0.1622 0.36951 0.0
C115 C 0.11908 0.14297 0.34464 0.0
N116 N 0.11204 0.1577 0.36144 0.0
C117 C 0.06978 0.15606 0.34741 0.0
C118 C 0.07661 0.14094 0.32988 0.0
C119 C 0.10135 0.13433 0.32854 0.0
C120 C 0.08826 0.16411 0.36295 0.0
H121 H 0.13808 0.13785 0.34352 0.0
C122 C 0.1811 0.14977 0.37335 0.0
O123 O 0.18424 0.12316 0.4446 0.0
O124 O 0.15493 0.10888 0.42156 0.0
N125 N 0.10143 0.18424 0.3965 0.0
C126 C 0.09765 0.19808 0.41536 0.0
C127 C 0.07386 0.20622 0.41926 0.0
C128 C 0.05427 0.20014 0.40366 0.0
C129 C 0.05853 0.18566 0.38461 0.0
C130 C 0.0827 0.17832 0.38137 0.0
H131 H 0.11271 0.20299 0.42722 0.0
O132 O 0.13234 0.14123 0.44802 0.0
O133 O 0.13045 0.14934 0.40806 0.0
O134 O 0.17177 0.16885 0.43342 0.0
O135 O 0.15135 0.19032 0.4078 0.0
C136 C 0.03971 0.17809 0.36885 0.0
C137 C 0.04531 0.16322 0.35035 0.0
H138 H 0.06298 0.13419 0.31747 0.0
H139 H 0.10674 0.12261 0.31512 0.0
H140 H 0.07065 0.21727 0.43413 0.0
H141 H 0.03598 0.20658 0.40658 0.0
H142 H 0.02081 0.1834 0.37102 0.0
H143 H 0.03062 0.15729 0.33858 0.0
Mn144 Mn 0.6916 0.8796 0.93386 0.0
Mn145 Mn 0.6701 0.83147 0.92178 0.0
C146 C 0.65017 0.87437 0.92396 0.0
C147 C 0.70039 0.90856 0.95878 0.0
C148 C 0.69936 0.85618 0.88425 0.0
O149 O 0.71821 0.86128 0.95005 0.0
O150 O 0.70271 0.83018 0.93874 0.0
C151 C 0.66247 0.81796 0.97414 0.0
N152 N 0.65346 0.82106 0.95066 0.0
C153 C 0.61451 0.80547 0.96156 0.0
C154 C 0.62337 0.80207 0.98584 0.0
C155 C 0.6474 0.80848 0.9922 0.0
C156 C 0.63022 0.81533 0.9445 0.0
H157 H 0.68104 0.82259 0.97901 0.0
C158 C 0.71923 0.84145 0.94919 0.0
O159 O 0.71171 0.90513 0.93785 0.0
O160 O 0.68484 0.89444 0.96615 0.0
N161 N 0.63859 0.83003 0.9057 0.0
C162 C 0.63245 0.83543 0.88188 0.0
C163 C 0.60881 0.83055 0.87273 0.0
C164 C 0.59199 0.81977 0.88794 0.0
C165 C 0.59879 0.81431 0.91237 0.0
C166 C 0.62242 0.8199 0.9206 0.0
H167 H 0.64553 0.8433 0.86994 0.0
O168 O 0.66076 0.89208 0.91967 0.0
O169 O 0.6642 0.86001 0.93348 0.0
O170 O 0.70339 0.8714 0.89884 0.0
O171 O 0.68646 0.84051 0.89063 0.0
C172 C 0.58309 0.80351 0.92887 0.0
C173 C 0.59078 0.79937 0.95355 0.0
H174 H 0.61189 0.79456 0.99975 0.0
H175 H 0.65437 0.80592 0.0109 0.0
H176 H 0.60369 0.83484 0.85387 0.0
H177 H 0.57388 0.81583 0.88071 0.0
H178 H 0.56487 0.79858 0.92288 0.0
H179 H 0.57832 0.79146 0.96621 0.0
Mn180 Mn 0.81128 0.14149 0.43379 0.0
Mn181 Mn 0.83891 0.1875 0.42237 0.0
C182 C 0.8531 0.14314 0.42388 0.0
C183 C 0.7996 0.11354 0.45903 0.0
C184 C 0.80517 0.16637 0.38516 0.0
O185 O 0.78728 0.16213 0.45019 0.0
O186 O 0.8078 0.19176 0.4414 0.0
C187 C 0.85175 0.19905 0.47434 0.0
N188 N 0.85884 0.1952 0.45036 0.0
C189 C 0.90111 0.20393 0.45971 0.0
C190 C 0.89426 0.20805 0.48449 0.0
C191 C 0.86949 0.2055 0.49186 0.0
C192 C 0.88266 0.19738 0.44315 0.0
H193 H 0.83271 0.19724 0.48004 0.0
C194 C 0.7896 0.18191 0.45118 0.0
O195 O 0.78824 0.11775 0.43831 0.0
O196 O 0.81676 0.1264 0.46599 0.0
N197 N 0.86941 0.18546 0.40437 0.0
C198 C 0.87319 0.17981 0.38013 0.0
C199 C 0.89715 0.18082 0.37005 0.0
C200 C 0.91687 0.1879 0.38485 0.0
C201 C 0.91245 0.19382 0.40966 0.0
C202 C 0.88824 0.19232 0.41876 0.0
H203 H 0.85807 0.17451 0.36861 0.0
O204 O 0.84057 0.12637 0.41949 0.0
O205 O 0.8407 0.15851 0.43324 0.0
O206 O 0.80037 0.15078 0.39892 0.0
O207 O 0.81942 0.18105 0.39207 0.0
C208 C 0.93114 0.20108 0.42575 0.0
C209 C 0.92553 0.20598 0.45082 0.0
H210 H 0.90787 0.2131 0.49804 0.0
H211 H 0.86407 0.2086 0.51096 0.0
H212 H 0.9004 0.17622 0.35088 0.0
H213 H 0.93532 0.18867 0.37701 0.0
H214 H 0.95001 0.20259 0.41917 0.0
H215 H 0.94017 0.21115 0.46314 0.0
Mn216 Mn 0.69162 0.14397 0.08874 0.0
Mn217 Mn 0.67125 0.19286 0.0985 0.0
C218 C 0.6503 0.15026 0.09836 0.0
C219 C 0.69985 0.11426 0.06489 0.0
C220 C 0.70012 0.1689 0.13712 0.0
O221 O 0.71866 0.16128 0.07178 0.0
O222 O 0.70369 0.193 0.0812 0.0
C223 C 0.66347 0.20487 0.04565 0.0
N224 N 0.65459 0.20264 0.06931 0.0
C225 C 0.61596 0.21867 0.0581 0.0
C226 C 0.62468 0.22118 0.03361 0.0
C227 C 0.64849 0.21411 0.02732 0.0
C228 C 0.63156 0.20902 0.07544 0.0
H229 H 0.68189 0.19975 0.04083 0.0
C230 C 0.72001 0.18109 0.07141 0.0
O231 O 0.71113 0.11797 0.08577 0.0
O232 O 0.68457 0.12842 0.05703 0.0
N233 N 0.63993 0.19536 0.11479 0.0
C234 C 0.63387 0.1908 0.13888 0.0
C235 C 0.61046 0.19642 0.14804 0.0
C236 C 0.59379 0.20708 0.13251 0.0
C237 C 0.60048 0.21164 0.10779 0.0
C238 C 0.62389 0.20535 0.0996 0.0
H239 H 0.64687 0.18304 0.15104 0.0
O240 O 0.66045 0.13249 0.1034 0.0
O241 O 0.66468 0.16406 0.08824 0.0
O242 O 0.70359 0.15303 0.12341 0.0
O243 O 0.68769 0.1846 0.12991 0.0
C244 C 0.5849 0.22224 0.09097 0.0
C245 C 0.59247 0.22547 0.06605 0.0
H246 H 0.61327 0.22849 0.01949 0.0
H247 H 0.65536 0.21599 1.00846 0.0
H248 H 0.60541 0.19282 0.16711 0.0
H249 H 0.57585 0.2116 0.13973 0.0
H250 H 0.56687 0.22769 0.09691 0.0
H251 H 0.58009 0.23324 0.05316 0.0
Mn252 Mn 0.81189 0.88092 0.58586 0.0
Mn253 Mn 0.84098 0.83649 0.60261 0.0
C254 C 0.85373 0.88141 0.5955 0.0
C255 C 0.7993 0.90673 0.5579 0.0
C256 C 0.80623 0.85976 0.63698 0.0
O257 O 0.78894 0.85861 0.57163 0.0
O258 O 0.81018 0.83013 0.58371 0.0
C259 C 0.85475 0.81975 0.55298 0.0
N260 N 0.86136 0.82587 0.5764 0.0
C261 C 0.90355 0.81524 0.56965 0.0
C262 C 0.89716 0.80873 0.5455 0.0
C263 C 0.87267 0.81104 0.53712 0.0
C264 C 0.88483 0.82353 0.58475 0.0
H265 H 0.83594 0.82146 0.54648 0.0
C266 C 0.7919 0.83891 0.5726 0.0
O267 O 0.78792 0.90357 0.57886 0.0
O268 O 0.81696 0.89386 0.55224 0.0
N269 N 0.8712 0.84051 0.62056 0.0
C270 C 0.87488 0.85001 0.64298 0.0
C271 C 0.89878 0.85056 0.65326 0.0
C272 C 0.91857 0.84122 0.64047 0.0
C273 C 0.91431 0.83151 0.61742 0.0
C274 C 0.89008 0.8314 0.60813 0.0
H275 H 0.85973 0.85726 0.65283 0.0
O276 O 0.84015 0.89785 0.59845 0.0
O277 O 0.84223 0.86473 0.58812 0.0
O278 O 0.80088 0.87413 0.62162 0.0
O279 O 0.82115 0.84513 0.63168 0.0
C280 C 0.93329 0.82263 0.60287 0.0
C281 C 0.9279 0.81445 0.57903 0.0
H282 H 0.91097 0.80222 0.5331 0.0
H283 H 0.86763 0.80615 0.51846 0.0
H284 H 0.90196 0.85821 0.67096 0.0
H285 H 0.93702 0.84187 0.64833 0.0
H286 H 0.9522 0.82248 0.60957 0.0
H287 H 0.94276 0.80811 0.56778 0.0
Mn288 Mn 0.84616 0.63565 0.09491 0.0
Mn289 Mn 0.87638 0.67102 0.13031 0.0
C290 C 0.88792 0.64193 0.08819 0.0
C291 C 0.83368 0.602 0.08407 0.0
C292 C 0.84116 0.68294 0.08876 0.0
O293 O 0.82395 0.63763 0.12584 0.0
O294 O 0.84559 0.66166 0.14739 0.0
C295 C 0.89007 0.64509 0.17389 0.0
N296 N 0.89676 0.65808 0.15499 0.0
C297 C 0.93918 0.65814 0.16869 0.0
C298 C 0.93271 0.64485 0.18838 0.0
C299 C 0.90806 0.63828 0.19095 0.0
C300 C 0.92039 0.66468 0.15249 0.0
H301 H 0.87116 0.63999 0.17594 0.0
C302 C 0.82731 0.64909 0.14511 0.0
O303 O 0.82194 0.61828 0.07614 0.0
O304 O 0.8515 0.6052 0.09986 0.0
N305 N 0.90667 0.68092 0.11621 0.0
C306 C 0.91032 0.69153 0.09451 0.0
C307 C 0.93429 0.69803 0.08812 0.0
C308 C 0.95421 0.69363 0.10414 0.0
C309 C 0.94999 0.68266 0.12636 0.0
C310 C 0.92567 0.67669 0.13182 0.0
H311 H 0.89508 0.69486 0.08209 0.0
O312 O 0.87382 0.63536 0.07024 0.0
O313 O 0.87695 0.64573 0.1094 0.0
O314 O 0.83493 0.66452 0.0829 0.0
O315 O 0.85669 0.6869 0.10597 0.0
C316 C 0.96907 0.67681 0.14286 0.0
C317 C 0.96366 0.66458 0.16403 0.0
H318 H 0.94658 0.63936 0.20142 0.0
H319 H 0.90296 0.62794 0.20602 0.0
H320 H 0.93743 0.70636 0.07085 0.0
H321 H 0.97271 0.69849 0.09901 0.0
H322 H 0.98805 0.68121 0.13912 0.0
H323 H 0.97857 0.65978 0.17626 0.0
Mn324 Mn 0.66085 0.38486 0.59833 0.0
Mn325 Mn 0.63218 0.35116 0.63719 0.0
C326 C 0.61937 0.37661 0.59253 0.0
C327 C 0.67264 0.41798 0.58477 0.0
C328 C 0.66733 0.33743 0.59637 0.0
O329 O 0.68362 0.38516 0.62908 0.0
O330 O 0.66254 0.36239 0.65292 0.0
C331 C 0.6177 0.38072 0.67699 0.0
N332 N 0.6114 0.36594 0.65997 0.0
C333 C 0.56886 0.36672 0.67322 0.0
C334 C 0.57491 0.3819 0.69096 0.0
C335 C 0.59943 0.38897 0.69279 0.0
C336 C 0.58786 0.35909 0.65798 0.0
H337 H 0.63653 0.38617 0.67852 0.0
C338 C 0.68059 0.37492 0.64937 0.0
O339 O 0.68451 0.40143 0.57797 0.0
O340 O 0.65481 0.41545 0.60076 0.0
N341 N 0.60224 0.33931 0.62462 0.0
C342 C 0.59924 0.32543 0.60566 0.0
C343 C 0.57579 0.31681 0.60133 0.0
C344 C 0.55574 0.32246 0.61658 0.0
C345 C 0.55919 0.33702 0.6357 0.0
C346 C 0.58305 0.34484 0.6394 0.0
H347 H 0.61466 0.32083 0.59408 0.0
O348 O 0.63279 0.38301 0.57396 0.0
O349 O 0.6307 0.37471 0.61382 0.0
O350 O 0.6725 0.35564 0.58872 0.0
O351 O 0.65251 0.334 0.61445 0.0
C352 C 0.53985 0.34417 0.65113 0.0
C353 C 0.54466 0.35909 0.6698 0.0
H354 H 0.56086 0.38832 0.70315 0.0
H355 H 0.60422 0.40072 0.70638 0.0
H356 H 0.57321 0.3057 0.58639 0.0
H357 H 0.53773 0.31562 0.61334 0.0
H358 H 0.52117 0.33848 0.64861 0.0
H359 H 0.52959 0.36468 0.68132 0.0
Mn360 Mn 0.8465 0.38221 0.92169 0.0
Mn361 Mn 0.86951 0.34853 0.87923 0.0
C362 C 0.88814 0.3728 0.92249 0.0
C363 C 0.8368 0.41523 0.93738 0.0
C364 C 0.83925 0.33478 0.9236 0.0
O365 O 0.82058 0.38382 0.89371 0.0
O366 O 0.83735 0.35995 0.86802 0.0
C367 C 0.87836 0.37831 0.83802 0.0
N368 N 0.88689 0.36335 0.85381 0.0
C369 C 0.92606 0.36206 0.83256 0.0
C370 C 0.91772 0.37743 0.81604 0.0
C371 C 0.89383 0.38571 0.81891 0.0
C372 C 0.91001 0.35562 0.85155 0.0
H373 H 0.85986 0.38445 0.83987 0.0
C374 C 0.82049 0.37311 0.87357 0.0
O375 O 0.8255 0.39867 0.94497 0.0
O376 O 0.85305 0.41281 0.91971 0.0
N377 N 0.90079 0.33635 0.88711 0.0
C378 C 0.90643 0.32245 0.90542 0.0
C379 C 0.92987 0.31304 0.90562 0.0
C380 C 0.94698 0.31764 0.88665 0.0
C381 C 0.94071 0.33197 0.86797 0.0
C382 C 0.91729 0.34116 0.86905 0.0
H383 H 0.89307 0.31846 0.91964 0.0
O384 O 0.87701 0.37906 0.94263 0.0
O385 O 0.87453 0.37177 0.90252 0.0
O386 O 0.83481 0.35302 0.93162 0.0
O387 O 0.85249 0.33128 0.90437 0.0
C388 C 0.95672 0.33745 0.84826 0.0
C389 C 0.94957 0.35272 0.83081 0.0
H390 H 0.92949 0.38299 0.80109 0.0
H391 H 0.88725 0.39757 0.80624 0.0
H392 H 0.93459 0.30203 0.92011 0.0
H393 H 0.96493 0.31015 0.88668 0.0
H394 H 0.97477 0.33027 0.84661 0.0
H395 H 0.96228 0.35714 0.8161 0.0
Mn396 Mn 0.66422 0.63569 0.42161 0.0
Mn397 Mn 0.63607 0.67053 0.38384 0.0
C398 C 0.62276 0.64404 0.42742 0.0
C399 C 0.67567 0.60223 0.43424 0.0
C400 C 0.67057 0.68306 0.42564 0.0
O401 O 0.68736 0.63609 0.39115 0.0
O402 O 0.66699 0.66004 0.36835 0.0
C403 C 0.62287 0.64191 0.34263 0.0
N404 N 0.616 0.65624 0.36001 0.0
C405 C 0.57377 0.65544 0.34582 0.0
C406 C 0.58041 0.64075 0.3277 0.0
C407 C 0.60505 0.63391 0.32616 0.0
C408 C 0.59232 0.66283 0.36174 0.0
H409 H 0.64179 0.63663 0.34135 0.0
C410 C 0.68494 0.64732 0.37155 0.0
O411 O 0.68761 0.61854 0.44163 0.0
O412 O 0.65805 0.6052 0.41812 0.0
N413 N 0.6057 0.68188 0.39611 0.0
C414 C 0.60211 0.69531 0.41543 0.0
C415 C 0.57847 0.7037 0.4195 0.0
C416 C 0.55884 0.69827 0.40361 0.0
C417 C 0.56289 0.68417 0.3841 0.0
C418 C 0.58692 0.67659 0.3807 0.0
H419 H 0.61721 0.69975 0.4275 0.0
O420 O 0.63602 0.6371 0.44583 0.0
O421 O 0.63421 0.64635 0.40624 0.0
O422 O 0.67592 0.66462 0.4323 0.0
O423 O 0.65568 0.68708 0.40779 0.0
C424 C 0.544 0.67727 0.36799 0.0
C425 C 0.54941 0.66282 0.34895 0.0
H426 H 0.56671 0.63452 0.31498 0.0
H427 H 0.6103 0.62252 0.31228 0.0
H428 H 0.57541 0.71444 0.43473 0.0
H429 H 0.54067 0.70491 0.40665 0.0
H430 H 0.52519 0.68279 0.37027 0.0
H431 H 0.53467 0.6574 0.3369 0.0
Mn432 Mn 0.19476 0.38337 0.93246 0.0
Mn433 Mn 0.16446 0.33852 0.92106 0.0
C434 C 0.15321 0.38364 0.92147 0.0
C435 C 0.2076 0.41083 0.95783 0.0
C436 C 0.20059 0.35767 0.88448 0.0
O437 O 0.217 0.3618 0.94962 0.0
O438 O 0.19448 0.33311 0.94142 0.0
C439 C 0.14879 0.32864 0.97274 0.0
N440 N 0.14294 0.33224 0.94838 0.0
C441 C 0.0997 0.32627 0.95636 0.0
C442 C 0.10528 0.32241 0.98153 0.0
C443 C 0.12992 0.32367 0.98976 0.0
C444 C 0.11927 0.33118 0.94029 0.0
H445 H 0.16771 0.32958 0.97914 0.0
C446 C 0.21317 0.34222 0.95128 0.0
O447 O 0.21918 0.40605 0.93741 0.0
O448 O 0.18948 0.39879 0.96443 0.0
N449 N 0.13488 0.34163 0.90178 0.0
C450 C 0.13249 0.34676 0.8772 0.0
C451 C 0.10898 0.34642 0.86605 0.0
C452 C 0.08822 0.34069 0.88024 0.0
C453 C 0.09111 0.33558 0.90553 0.0
C454 C 0.11503 0.33599 0.91555 0.0
H455 H 0.1484 0.35102 0.86614 0.0
O456 O 0.16695 0.39977 0.91731 0.0
O457 O 0.16428 0.36775 0.93128 0.0
O458 O 0.20582 0.37335 0.89794 0.0
O459 O 0.18552 0.34358 0.89142 0.0
C460 C 0.07118 0.33026 0.92125 0.0
C461 C 0.07546 0.32571 0.94668 0.0
H462 H 0.09078 0.31861 0.99472 0.0
H463 H 0.13435 0.32078 1.00917 0.0
H464 H 0.10688 0.35046 0.84654 0.0
H465 H 0.07016 0.3403 0.8715 0.0
H466 H 0.05246 0.32986 0.91405 0.0
H467 H 0.05994 0.32194 0.95866 0.0
Mn468 Mn 0.315 0.64182 0.43232 0.0
Mn469 Mn 0.34361 0.6868 0.41783 0.0
C470 C 0.35684 0.64235 0.42239 0.0
C471 C 0.30263 0.61533 0.45942 0.0
C472 C 0.30954 0.66441 0.38203 0.0
O473 O 0.29138 0.66358 0.44711 0.0
O474 O 0.31255 0.69244 0.43643 0.0
C475 C 0.35661 0.7005 0.46899 0.0
N476 N 0.36366 0.69543 0.44533 0.0
C477 C 0.40616 0.70361 0.45435 0.0
C478 C 0.39934 0.70899 0.47878 0.0
C479 C 0.37447 0.70734 0.48616 0.0
C480 C 0.38758 0.69675 0.43813 0.0
H481 H 0.33749 0.69936 0.47469 0.0
C482 C 0.2941 0.68334 0.44675 0.0
O483 O 0.29141 0.61871 0.43841 0.0
O484 O 0.32006 0.62823 0.46555 0.0
N485 N 0.3741 0.68345 0.40009 0.0
C486 C 0.37778 0.6768 0.3762 0.0
C487 C 0.40179 0.67691 0.36616 0.0
C488 C 0.42167 0.68412 0.38063 0.0
C489 C 0.41737 0.69111 0.40505 0.0
C490 C 0.39309 0.69052 0.41412 0.0
H491 H 0.36253 0.67138 0.36493 0.0
O492 O 0.34397 0.62558 0.41921 0.0
O493 O 0.34477 0.65833 0.43065 0.0
O494 O 0.30443 0.64956 0.39683 0.0
O495 O 0.32401 0.67924 0.38796 0.0
C496 C 0.43624 0.69858 0.42079 0.0
C497 C 0.43068 0.7047 0.44548 0.0
H498 H 0.41306 0.71433 0.49206 0.0
H499 H 0.36907 0.71141 0.505 0.0
H500 H 0.40494 0.6715 0.34728 0.0
H501 H 0.44017 0.68418 0.37283 0.0
H502 H 0.45518 0.69937 0.41423 0.0
H503 H 0.44544 0.71006 0.45754 0.0
Mn504 Mn 0.19549 0.64201 0.08448 0.0
Mn505 Mn 0.16491 0.68557 0.10163 0.0
C506 C 0.15368 0.64039 0.09407 0.0
C507 C 0.20902 0.61676 0.05625 0.0
C508 C 0.20035 0.66288 0.13582 0.0
O509 O 0.21769 0.66491 0.07049 0.0
O510 O 0.19555 0.69281 0.08289 0.0
C511 C 0.15079 0.70235 0.05212 0.0
N512 N 0.14428 0.69587 0.07543 0.0
C513 C 0.10169 0.70515 0.06841 0.0
C514 C 0.10797 0.71201 0.04437 0.0
C515 C 0.13262 0.71057 0.03618 0.0
C516 C 0.12065 0.6974 0.0836 0.0
H517 H 0.1697 0.70127 0.04574 0.0
C518 C 0.2141 0.68453 0.07167 0.0
O519 O 0.22025 0.62001 0.07728 0.0
O520 O 0.19091 0.62922 0.05071 0.0
N521 N 0.13476 0.68064 0.11938 0.0
C522 C 0.13135 0.67098 0.14175 0.0
C523 C 0.10743 0.66969 0.15188 0.0
C524 C 0.08732 0.6784 0.13896 0.0
C525 C 0.0913 0.68825 0.11595 0.0
C526 C 0.11557 0.68918 0.10685 0.0
H527 H 0.14675 0.66419 0.15169 0.0
O528 O 0.16788 0.62431 0.09691 0.0
O529 O 0.16459 0.65741 0.08684 0.0
O530 O 0.2062 0.64879 0.12027 0.0
O531 O 0.18493 0.67719 0.13071 0.0
C532 C 0.07204 0.69656 0.10129 0.0
C533 C 0.07723 0.70504 0.07756 0.0
H534 H 0.09396 0.71813 0.0319 0.0
H535 H 0.13758 0.71574 0.01761 0.0
H536 H 0.10448 0.66194 0.16957 0.0
H537 H 0.06887 0.67719 0.14672 0.0
H538 H 0.05308 0.69608 0.10785 0.0
H539 H 0.06219 0.71094 0.06623 0.0
Mn540 Mn 0.31175 0.38191 0.58807 0.0
Mn541 Mn 0.33936 0.33584 0.59942 0.0
C542 C 0.3535 0.38021 0.59827 0.0
C543 C 0.30037 0.40977 0.56253 0.0
C544 C 0.30517 0.35683 0.63645 0.0
O545 O 0.28784 0.36129 0.57156 0.0
O546 O 0.30857 0.33165 0.57989 0.0
C547 C 0.35307 0.32455 0.54759 0.0
N548 N 0.35976 0.32831 0.5717 0.0
C549 C 0.40223 0.31974 0.56294 0.0
C550 C 0.39578 0.31571 0.53803 0.0
C551 C 0.37111 0.31822 0.53031 0.0
C552 C 0.38349 0.32616 0.57926 0.0
H553 H 0.3341 0.32634 0.54162 0.0
C554 C 0.29032 0.34154 0.57022 0.0
O555 O 0.28881 0.40575 0.58321 0.0
O556 O 0.31754 0.3968 0.55584 0.0
N557 N 0.36956 0.33787 0.61791 0.0
C558 C 0.37295 0.34344 0.64223 0.0
C559 C 0.39675 0.34248 0.65267 0.0
C560 C 0.41674 0.33554 0.63812 0.0
C561 C 0.41275 0.32969 0.61321 0.0
C562 C 0.38866 0.33113 0.60376 0.0
H563 H 0.35761 0.34865 0.65355 0.0
O564 O 0.34095 0.39701 0.60254 0.0
O565 O 0.34116 0.36487 0.58882 0.0
O566 O 0.30062 0.37263 0.62291 0.0
O567 O 0.31936 0.34212 0.62943 0.0
C568 C 0.43174 0.3226 0.59735 0.0
C569 C 0.42652 0.31775 0.57218 0.0
H570 H 0.40963 0.31077 0.52466 0.0
H571 H 0.36601 0.3152 0.5111 0.0
H572 H 0.39968 0.34702 0.67191 0.0
H573 H 0.43508 0.33481 0.64623 0.0
H574 H 0.45052 0.32115 0.6042 0.0
H575 H 0.44139 0.31269 0.56005 0.0
H576 H 0.34654 0.22847 0.10361 0.0
H577 H 0.32757 0.25794 0.08195 0.0
H578 H 0.28261 0.21591 0.03888 0.0
H579 H 0.30118 0.18642 0.06045 0.0
H580 H 0.32669 0.26691 0.03005 0.0
H581 H 0.23196 0.2569 0.06763 0.0
H582 H 0.25863 0.24448 0.08141 0.0
H583 H 0.24428 0.23362 0.05405 0.0
C584 C 0.33247 0.22546 0.08967 0.0
C585 C 0.32531 0.20499 0.08395 0.0
C586 C 0.32171 0.24236 0.07725 0.0
C587 C 0.30343 0.23916 0.05904 0.0
C588 C 0.29635 0.21878 0.0532 0.0
H589 H 0.21585 0.30006 0.95104 0.0
H590 H 0.23976 0.27762 0.97834 0.0
C591 C 0.3071 0.2019 0.06551 0.0
C592 C 0.29197 0.25696 0.04568 0.0
H593 H 0.23599 0.27859 0.03161 0.0
C594 C 0.30692 0.26971 0.03065 0.0
C595 C 0.26619 0.26069 0.04665 0.0
C596 C 0.24934 0.24834 0.0635 0.0
C597 C 0.29654 0.28531 0.01548 0.0
C598 C 0.27063 0.28834 0.0156 0.0
C599 C 0.25586 0.27618 0.03144 0.0
C600 C 0.25803 0.30262 0.99788 0.0
C601 C 0.31315 0.29777 0.99854 0.0
C602 C 0.26066 0.32428 0.99945 0.0
C603 C 0.24689 0.33737 0.98368 0.0
C604 C 0.23018 0.32895 0.96623 0.0
C605 C 0.22833 0.30721 0.96432 0.0
C606 C 0.24201 0.29426 0.97996 0.0
H607 H 0.33234 0.29159 0.99812 0.0
H608 H 0.30569 0.29789 0.97921 0.0
H609 H 0.31381 0.31406 1.0052 0.0
H610 H 0.27274 0.33107 0.01336 0.0
H611 H 0.24867 0.35401 0.98575 0.0
H612 H 0.26028 0.67316 0.48351 0.0
H613 H 0.2342 0.69725 0.5076 0.0
H614 H 0.26179 0.7484 0.46386 0.0
H615 H 0.28735 0.72474 0.43975 0.0
H616 H 0.25131 0.73059 0.53642 0.0
H617 H 0.18776 0.75918 0.46311 0.0
H618 H 0.20593 0.73585 0.4594 0.0
H619 H 0.21958 0.76089 0.45381 0.0
C620 C 0.26036 0.68948 0.47871 0.0
C621 C 0.27594 0.69697 0.45968 0.0
C622 C 0.24555 0.70324 0.49256 0.0
C623 C 0.24579 0.72463 0.48732 0.0
C624 C 0.26085 0.73197 0.46794 0.0
H625 H 0.20068 0.842 0.5489 0.0
H626 H 0.21799 0.81301 0.52502 0.0
C627 C 0.27564 0.71835 0.45426 0.0
C628 C 0.23192 0.7397 0.50306 0.0
H629 H 0.19185 0.78066 0.4996 0.0
C630 C 0.23797 0.74131 0.5285 0.0
C631 C 0.21463 0.75378 0.49267 0.0
C632 C 0.2064 0.75223 0.4658 0.0
C633 C 0.22806 0.75717 0.54353 0.0
C634 C 0.21139 0.77165 0.53292 0.0
C635 C 0.20479 0.76968 0.50766 0.0
C636 C 0.2009 0.78916 0.54759 0.0
C637 C 0.23627 0.75883 0.57041 0.0
C638 C 0.18535 0.78539 0.56807 0.0
C639 C 0.17541 0.80191 0.58176 0.0
C640 C 0.18074 0.82262 0.57524 0.0
C641 C 0.19623 0.82631 0.55457 0.0
C642 C 0.20612 0.80975 0.54085 0.0
H643 H 0.25313 0.74946 0.57414 0.0
H644 H 0.24007 0.77522 0.57548 0.0
H645 H 0.22128 0.75307 0.58275 0.0
H646 H 0.18071 0.76965 0.57335 0.0
H647 H 0.16344 0.79838 0.59742 0.0
H648 H 0.34563 0.79958 0.9207 0.0
H649 H 0.32651 0.77076 0.9434 0.0
H650 H 0.28337 0.81416 0.98653 0.0
H651 H 0.30204 0.843 0.96387 0.0
H652 H 0.32668 0.76241 0.99506 0.0
H653 H 0.23113 0.77386 0.9602 0.0
H654 H 0.25764 0.78581 0.94559 0.0
H655 H 0.24433 0.79695 0.97334 0.0
C656 C 0.33192 0.80303 0.93486 0.0
C657 C 0.32528 0.82369 0.94027 0.0
C658 C 0.32108 0.78651 0.94788 0.0
C659 C 0.30325 0.79028 0.96641 0.0
C660 C 0.29672 0.81085 0.97196 0.0
H661 H 0.21557 0.7268 0.07436 0.0
H662 H 0.23916 0.75065 0.04843 0.0
C663 C 0.30753 0.82735 0.95902 0.0
C664 C 0.29174 0.77285 0.98038 0.0
H665 H 0.23579 0.75188 0.99578 0.0
C666 C 0.30684 0.75991 0.99502 0.0
C667 C 0.26587 0.76954 0.98017 0.0
C668 C 0.2488 0.78214 0.96379 0.0
C669 C 0.29661 0.74438 0.01036 0.0
C670 C 0.27066 0.7416 0.0108 0.0
C671 C 0.25568 0.75412 0.99555 0.0
C672 C 0.25835 0.72666 0.02789 0.0
C673 C 0.3135 0.73162 0.02671 0.0
C674 C 0.26159 0.70514 0.02527 0.0
C675 C 0.24806 0.6913 0.04022 0.0
C676 C 0.23095 0.69878 0.05792 0.0
C677 C 0.22845 0.72038 0.06092 0.0
C678 C 0.24192 0.73411 0.04606 0.0
H679 H 0.33246 0.73821 0.02764 0.0
H680 H 0.30594 0.7305 0.04596 0.0
H681 H 0.31482 0.71566 0.01904 0.0
H682 H 0.27393 0.69903 0.01112 0.0
H683 H 0.25036 0.67479 0.03726 0.0
H684 H 0.28427 0.2997 0.57231 0.0
H685 H 0.25806 0.27794 0.5465 0.0
H686 H 0.22844 0.33218 0.51004 0.0
H687 H 0.25523 0.35441 0.53584 0.0
H688 H 0.2067 0.27677 0.54089 0.0
H689 H 0.25408 0.29637 0.45151 0.0
H690 H 0.26725 0.30273 0.48154 0.0
H691 H 0.24182 0.31759 0.4695 0.0
C692 C 0.27217 0.30717 0.55891 0.0
C693 C 0.27208 0.32889 0.55605 0.0
C694 C 0.2571 0.29462 0.54418 0.0
C695 C 0.24155 0.30336 0.52608 0.0
C696 C 0.24064 0.32507 0.52363 0.0
H697 H 0.15843 0.2285 0.41664 0.0
H698 H 0.17433 0.25815 0.44029 0.0
C699 C 0.25578 0.33777 0.53853 0.0
C700 C 0.22696 0.28929 0.50972 0.0
H701 H 0.22396 0.27016 0.4502 0.0
C702 C 0.21024 0.27551 0.521 0.0
C703 C 0.23155 0.28766 0.48375 0.0
C704 C 0.24974 0.30174 0.47074 0.0
C705 C 0.19861 0.25975 0.50722 0.0
C706 C 0.20413 0.25747 0.48152 0.0
C707 C 0.2199 0.27185 0.46994 0.0
C708 C 0.19481 0.23955 0.4668 0.0
C709 C 0.18074 0.24549 0.5204 0.0
C710 C 0.20149 0.21925 0.47351 0.0
C711 C 0.19253 0.20226 0.46002 0.0
C712 C 0.17673 0.20517 0.4394 0.0
C713 C 0.17051 0.2256 0.43241 0.0
C714 C 0.17956 0.24261 0.44591 0.0
H715 H 0.17311 0.25276 0.53758 0.0
H716 H 0.16515 0.24111 0.50796 0.0
H717 H 0.19059 0.2311 0.52599 0.0
H718 H 0.21366 0.21653 0.48924 0.0
H719 H 0.19786 0.18683 0.46595 0.0
H720 H 0.85638 0.72343 0.08942 0.0
H721 H 0.83885 0.75288 0.06679 0.0
H722 H 0.78413 0.71278 0.03377 0.0
H723 H 0.8016 0.68304 0.05631 0.0
H724 H 0.83222 0.75685 0.0126 0.0
H725 H 0.74435 0.76209 0.06625 0.0
H726 H 0.7713 0.74864 0.07797 0.0
H727 H 0.75222 0.73677 0.05455 0.0
C728 C 0.84055 0.72079 0.07743 0.0
C729 C 0.83034 0.70079 0.07483 0.0
C730 C 0.83061 0.73769 0.06445 0.0
C731 C 0.81006 0.73507 0.0488 0.0
C732 C 0.79983 0.71517 0.046 0.0
H733 H 0.74249 0.8066 0.93359 0.0
H734 H 0.76785 0.78308 0.95861 0.0
C735 C 0.80991 0.69818 0.05883 0.0
C736 C 0.79955 0.75314 0.03518 0.0
H737 H 0.74778 0.78333 0.03023 0.0
C738 C 0.81382 0.76273 0.01654 0.0
C739 C 0.7757 0.76098 0.0406 0.0
C740 C 0.75999 0.75176 0.06106 0.0
C741 C 0.80449 0.77949 1.00257 0.0
C742 C 0.78029 0.78684 1.00738 0.0
C743 C 0.76636 0.77771 0.02659 0.0
C744 C 0.76826 0.80274 0.99134 0.0
C745 C 0.82048 0.78912 0.98261 0.0
C746 C 0.76046 0.82187 1.00125 0.0
C747 C 0.74619 0.83556 0.98677 0.0
C748 C 0.7391 0.83006 0.96239 0.0
C749 C 0.74784 0.8113 0.95226 0.0
C750 C 0.76234 0.79784 0.96654 0.0
H751 H 0.84036 0.78538 0.98539 0.0
H752 H 0.81479 0.78304 0.96409 0.0
H753 H 0.8182 0.80624 0.98233 0.0
H754 H 0.76469 0.82586 0.02043 0.0
H755 H 0.73934 0.84973 0.99519 0.0
H756 H 0.78168 0.22339 0.44676 0.0
H757 H 0.75614 0.24561 0.47283 0.0
H758 H 0.73032 0.19221 0.5137 0.0
H759 H 0.75642 0.16958 0.48763 0.0
H760 H 0.70533 0.24642 0.48186 0.0
H761 H 0.75876 0.23017 0.56868 0.0
H762 H 0.77004 0.22301 0.53813 0.0
H763 H 0.74589 0.20818 0.55263 0.0
C764 C 0.7705 0.21622 0.46117 0.0
C765 C 0.77133 0.19465 0.46522 0.0
C766 C 0.75583 0.22902 0.47605 0.0
C767 C 0.74162 0.22067 0.49549 0.0
C768 C 0.74149 0.19904 0.49906 0.0
H769 H 0.66163 0.29593 0.60685 0.0
H770 H 0.67764 0.26632 0.58316 0.0
C771 C 0.75622 0.1861 0.484 0.0
C772 C 0.72775 0.23503 0.51216 0.0
H773 H 0.72763 0.25556 0.57109 0.0
C774 C 0.71 0.24824 0.50145 0.0
C775 C 0.73386 0.23744 0.53773 0.0
C776 C 0.75328 0.22409 0.55006 0.0
C777 C 0.6987 0.2641 0.51538 0.0
C778 C 0.70557 0.26707 0.54064 0.0
C779 C 0.7225 0.25332 0.55169 0.0
C780 C 0.69631 0.285 0.55542 0.0
C781 C 0.67965 0.2777 0.50286 0.0
C782 C 0.70196 0.30534 0.54802 0.0
C783 C 0.69296 0.32232 0.56154 0.0
C784 C 0.67812 0.31934 0.58287 0.0
C785 C 0.67295 0.29888 0.59054 0.0
C786 C 0.68207 0.28189 0.57701 0.0
H787 H 0.67151 0.27003 0.48619 0.0
H788 H 0.66451 0.2818 0.516 0.0
H789 H 0.68862 0.29228 0.4966 0.0
H790 H 0.71333 0.3081 0.53168 0.0
H791 H 0.69743 0.33778 0.55506 0.0
H792 H 0.8074 0.33514 0.96361 0.0
H793 H 0.79129 0.30543 0.98687 0.0
H794 H 0.83145 0.26377 0.93866 0.0
H795 H 0.84785 0.29333 0.91533 0.0
H796 H 0.76291 0.27162 0.96844 0.0
H797 H 0.85204 0.24531 0.00972 0.0
H798 H 0.84809 0.27081 0.99632 0.0
H799 H 0.85171 0.24863 0.97637 0.0
C800 C 0.81289 0.31969 0.95792 0.0
C801 C 0.82901 0.31672 0.93756 0.0
C802 C 0.80362 0.3027 0.97125 0.0
C803 C 0.8104 0.28239 0.96471 0.0
C804 C 0.82629 0.27931 0.94431 0.0
H805 H 0.74128 0.16948 0.02691 0.0
H806 H 0.76615 0.19186 0.9993 0.0
C807 C 0.83552 0.29628 0.93089 0.0
C808 C 0.80038 0.2645 0.97903 0.0
H809 H 0.81662 0.22521 0.01882 0.0
C810 C 0.77468 0.26136 0.97925 0.0
C811 C 0.81578 0.25114 0.99319 0.0
C812 C 0.84344 0.25413 0.99415 0.0
C813 C 0.76396 0.24543 0.9935 0.0
C814 C 0.77929 0.23232 1.00795 0.0
C815 C 0.805 0.23516 1.00745 0.0
C816 C 0.76838 0.21722 0.02566 0.0
C817 C 0.7362 0.243 0.99371 0.0
C818 C 0.76224 0.22385 0.04979 0.0
C819 C 0.74807 0.21124 0.06541 0.0
C820 C 0.73991 0.19165 0.0573 0.0
C821 C 0.74759 0.18437 0.03377 0.0
C822 C 0.76163 0.19717 0.01796 0.0
H823 H 0.7269 0.25377 0.9805 0.0
H824 H 0.73116 0.22683 0.98873 0.0
H825 H 0.72905 0.24603 0.01283 0.0
H826 H 0.76725 0.23928 0.05603 0.0
H827 H 0.74242 0.21727 0.08343 0.0
H828 H 0.78836 0.79677 0.57596 0.0
H829 H 0.76365 0.77345 0.55043 0.0
H830 H 0.73114 0.82578 0.51249 0.0
H831 H 0.75625 0.84949 0.53789 0.0
H832 H 0.71248 0.76981 0.54389 0.0
H833 H 0.75992 0.7907 0.45507 0.0
H834 H 0.77205 0.79791 0.48527 0.0
H835 H 0.74626 0.81177 0.47224 0.0
C836 C 0.77588 0.80346 0.56233 0.0
C837 C 0.7745 0.8251 0.5589 0.0
C838 C 0.7617 0.79003 0.54774 0.0
C839 C 0.74585 0.79782 0.52926 0.0
C840 C 0.74361 0.81941 0.52634 0.0
H841 H 0.6634 0.72486 0.4183 0.0
H842 H 0.67985 0.75358 0.44314 0.0
C843 C 0.75781 0.83295 0.54104 0.0
C844 C 0.73231 0.78305 0.51288 0.0
H845 H 0.72942 0.76474 0.45299 0.0
C846 C 0.71603 0.76881 0.52398 0.0
C847 C 0.73696 0.78175 0.48688 0.0
C848 C 0.75487 0.79621 0.47407 0.0
C849 C 0.70457 0.75313 0.5099 0.0
C850 C 0.70985 0.7514 0.48408 0.0
C851 C 0.72548 0.76605 0.47279 0.0
C852 C 0.70014 0.73398 0.46875 0.0
C853 C 0.68692 0.73852 0.52282 0.0
C854 C 0.70649 0.71342 0.47457 0.0
C855 C 0.6972 0.69695 0.46039 0.0
C856 C 0.6814 0.70066 0.43995 0.0
C857 C 0.67547 0.72135 0.43388 0.0
C858 C 0.68484 0.73783 0.44808 0.0
H859 H 0.67952 0.74534 0.54037 0.0
H860 H 0.67116 0.73445 0.51046 0.0
H861 H 0.69686 0.72402 0.52772 0.0
H862 H 0.7187 0.7101 0.49011 0.0
H863 H 0.7023 0.68129 0.46561 0.0
H864 H 0.3599 0.07125 0.08758 0.0
H865 H 0.356 0.04014 0.0617 0.0
H866 H 0.28898 0.06453 0.02927 0.0
H867 H 0.29311 0.09592 0.05462 0.0
H868 H 0.32144 1.01015 0.05596 0.0
H869 H 0.33077 0.05463 0.96773 0.0
H870 H 0.33647 0.06604 0.99795 0.0
H871 H 0.30529 0.06286 0.98683 0.0
C872 C 0.34414 0.06988 0.0752 0.0
C873 C 0.32694 0.08616 0.07301 0.0
C874 C 0.34197 0.05209 0.06034 0.0
C875 C 0.32256 0.0502 0.04303 0.0
C876 C 0.30452 0.06588 0.04194 0.0
H877 H 0.29262 0.93324 0.96518 0.0
H878 H 0.2885 0.96484 0.99015 0.0
C879 C 0.30678 0.08374 0.05664 0.0
C880 C 0.32168 0.03213 0.02571 0.0
H881 H 0.3221 0.01878 0.96385 0.0
C882 C 0.32152 0.01204 0.03582 0.0
C883 C 0.32221 0.03457 0.99939 0.0
C884 C 0.32394 0.05567 0.98728 0.0
C885 C 0.32181 0.99436 0.02042 0.0
C886 C 0.32166 0.99681 0.9941 0.0
C887 C 0.32189 0.0169 0.98398 0.0
C888 C 0.32248 0.97871 0.97681 0.0
C889 C 0.32312 0.97326 0.03256 0.0
C890 C 0.34212 0.97651 0.95981 0.0
C891 C 0.34429 0.9586 0.94515 0.0
C892 C 0.32687 0.94251 0.94725 0.0
C893 C 0.30647 0.94527 0.96324 0.0
C894 C 0.30421 0.96325 0.97773 0.0
H895 H 0.32971 0.97423 0.05219 0.0
H896 H 0.30437 0.96625 0.03279 0.0
H897 H 0.33565 0.96275 0.02205 0.0
H898 H 0.35635 0.9883 0.95858 0.0
H899 H 0.36025 0.95697 0.93306 0.0
H900 H 0.14723 0.95561 0.59001 0.0
H901 H 0.15009 0.98734 0.56504 0.0
H902 H 0.21761 0.96497 0.53155 0.0
H903 H 0.21447 0.93297 0.55589 0.0
H904 H 0.18318 0.01832 0.55932 0.0
H905 H 0.17531 0.9745 0.47054 0.0
H906 H 0.1703 0.9626 0.50061 0.0
H907 H 0.20125 0.96671 0.48924 0.0
C908 C 0.16291 0.95758 0.57763 0.0
C909 C 0.18049 0.94167 0.57477 0.0
C910 C 0.16448 0.97572 0.56328 0.0
C911 C 0.18369 0.97832 0.54585 0.0
C912 C 0.20219 0.96307 0.54426 0.0
H913 H 0.21057 0.09647 0.46933 0.0
H914 H 0.21485 0.06511 0.49471 0.0
C915 C 0.2005 0.94486 0.55841 0.0
C916 C 0.18381 0.99661 0.52879 0.0
H917 H 0.18324 1.01051 0.4671 0.0
C918 C 0.18323 0.01662 0.53916 0.0
C919 C 0.18342 0.99441 0.50244 0.0
C920 C 0.18235 0.97341 0.49001 0.0
C921 C 0.18242 0.03442 0.52398 0.0
C922 C 0.18282 0.03223 0.49762 0.0
C923 C 0.18326 0.01223 0.48726 0.0
C924 C 0.1817 0.05046 0.48049 0.0
C925 C 0.18033 0.05537 0.53639 0.0
C926 C 0.16248 0.0522 0.46292 0.0
C927 C 0.16026 0.06996 0.44801 0.0
C928 C 0.1772 0.08639 0.45041 0.0
C929 C 0.19711 0.08418 0.46714 0.0
C930 C 0.19944 0.06633 0.48187 0.0
H931 H 0.17339 0.05406 0.55587 0.0
H932 H 0.19889 0.0627 0.5371 0.0
H933 H 0.16774 0.06577 0.52581 0.0
H934 H 0.14868 0.0401 0.46132 0.0
H935 H 0.14468 0.07117 0.43536 0.0
H936 H 0.67951 0.92117 1.0032 0.0
H937 H 0.68106 0.95594 0.02177 0.0
H938 H 0.7279 0.97666 0.96148 0.0
H939 H 0.72719 0.94198 0.94345 0.0
H940 H 0.74358 0.9924 1.00374 0.0
H941 H 0.64233 1.00506 0.99762 0.0
H942 H 0.65042 0.98291 0.01619 0.0
H943 H 0.65739 0.98311 0.9833 0.0
C944 C 0.69036 0.93309 0.99409 0.0
C945 C 0.70314 0.92878 0.97179 0.0
C946 C 0.69101 0.95304 1.00456 0.0
C947 C 0.70408 0.96915 0.9927 0.0
C948 C 0.71754 0.96461 0.97094 0.0
H949 H 0.67978 0.10151 0.02023 0.0
H950 H 0.68204 0.06677 1.00159 0.0
C951 C 0.71712 0.94469 0.96065 0.0
C952 C 0.70379 0.99078 1.00264 0.0
H953 H 0.66548 0.03075 0.01913 0.0
C954 C 0.72647 1.00077 1.00705 0.0
C955 C 0.68152 1.00197 1.00647 0.0
C956 C 0.65655 0.99281 1.00041 0.0
C957 C 0.72753 0.02143 0.01543 0.0
C958 C 0.70526 0.0323 0.02032 0.0
C959 C 0.68257 0.02242 0.01559 0.0
C960 C 0.70504 0.05375 0.03079 0.0
C961 C 0.75257 0.03149 0.01835 0.0
C962 C 0.71721 0.0581 0.05336 0.0
C963 C 0.71624 0.07796 0.0638 0.0
C964 C 0.70268 0.09391 0.05219 0.0
C965 C 0.69052 0.08962 0.02955 0.0
C966 C 0.69171 0.06973 0.01896 0.0
H967 H 0.76664 0.02394 1.00624 0.0
H968 H 0.75187 0.04826 0.0137 0.0
H969 H 0.7588 0.02981 0.038 0.0
H970 H 0.72702 0.04598 0.06328 0.0
H971 H 0.72557 0.0806 0.08142 0.0
H972 H 0.82796 0.09572 0.49559 0.0
H973 H 0.82498 0.06022 0.51155 0.0
H974 H 0.75901 0.05049 0.46778 0.0
H975 H 0.76226 0.08574 0.45124 0.0
H976 H 0.7909 0.03856 0.5374 0.0
H977 H 0.80225 1.00357 0.44349 0.0
H978 H 0.8071 0.03082 0.44931 0.0
H979 H 0.77625 0.02081 0.44554 0.0
C980 C 0.81262 0.08612 0.48962 0.0
C981 C 0.79546 0.0935 0.47198 0.0
C982 C 0.81099 0.06578 0.49869 0.0
C983 C 0.79215 0.05245 0.49034 0.0
C984 C 0.77414 0.06023 0.47391 0.0
H985 H 0.76056 0.93369 0.56228 0.0
H986 H 0.75732 0.96852 0.54449 0.0
C987 C 0.77589 0.08048 0.46467 0.0
C988 C 0.79171 0.03035 0.49844 0.0
H989 H 0.79251 0.98048 0.47659 0.0
C990 C 0.79124 0.02587 0.5241 0.0
C991 C 0.79262 0.01374 0.4811 0.0
C992 C 0.79484 0.01742 0.45334 0.0
C993 C 0.79142 1.00532 0.5329 0.0
C994 C 0.7914 0.9887 0.51554 0.0
C995 C 0.79214 0.99318 0.48988 0.0
C996 C 0.79161 0.96662 0.52373 0.0
C997 C 0.79237 1.00166 0.56074 0.0
C998 C 0.81107 0.9534 0.51665 0.0
C999 C 0.81272 0.93327 0.52641 0.0
C1000 C 0.79494 0.92604 0.5435 0.0
C1001 C 0.77466 0.93885 0.54931 0.0
C1002 C 0.77291 0.95887 0.53936 0.0
H1003 H 0.79917 0.01554 0.57093 0.0
H1004 H 0.77347 0.99816 0.56765 0.0
H1005 H 0.80456 0.98832 0.56536 0.0
H1006 H 0.8256 0.95895 0.50442 0.0
H1007 H 0.82861 0.92383 0.52161 0.0
H1008 H 0.80026 0.42536 0.97043 0.0
H1009 H 0.7961 0.45719 0.99489 0.0
H1010 H 0.86102 0.48216 0.95899 0.0
H1011 H 0.86484 0.45056 0.93391 0.0
H1012 H 0.82681 0.47237 0.02869 0.0
H1013 H 0.81528 0.53095 0.95402 0.0
H1014 H 0.81305 0.50347 0.94805 0.0
H1015 H 0.84286 0.51582 0.95003 0.0
C1016 C 0.81341 0.43778 0.9674 0.0
C1017 C 0.83281 0.43545 0.95009 0.0
C1018 C 0.81106 0.45596 0.98149 0.0
C1019 C 0.82807 0.47226 0.97869 0.0
C1020 C 0.84728 0.47009 0.96113 0.0
H1021 H 0.8621 0.56708 0.08877 0.0
H1022 H 0.85916 0.53514 0.06437 0.0
C1023 C 0.8495 0.45195 0.94683 0.0
C1024 C 0.8265 0.4909 0.99518 0.0
H1025 H 0.8247 0.5439 0.99475 0.0
C1026 C 0.82616 0.48801 0.02123 0.0
C1027 C 0.82526 0.51135 0.98558 0.0
C1028 C 0.82387 0.51561 0.95789 0.0
C1029 C 0.82517 0.5049 0.03785 0.0
C1030 C 0.82516 0.52537 0.02825 0.0
C1031 C 0.82494 0.52826 1.00221 0.0
C1032 C 0.82575 0.54404 0.04475 0.0
C1033 C 0.82375 0.50057 0.06552 0.0
C1034 C 0.80806 0.55986 0.04191 0.0
C1035 C 0.80987 0.57828 0.05569 0.0
C1036 C 0.82942 0.5813 0.07266 0.0
C1037 C 0.84662 0.56517 0.07614 0.0
C1038 C 0.84492 0.54682 0.0622 0.0
H1039 H 0.81586 0.48496 0.06928 0.0
H1040 H 0.84267 0.50093 0.07353 0.0
H1041 H 0.81228 0.51233 0.0753 0.0
H1042 H 0.79311 0.55815 0.02859 0.0
H1043 H 0.79638 0.59041 0.05245 0.0
H1044 H 0.71042 0.42804 0.55307 0.0
H1045 H 0.71489 0.45959 0.52811 0.0
H1046 H 0.64889 0.48467 0.56192 0.0
H1047 H 0.64468 0.45337 0.5874 0.0
H1048 H 0.68384 0.47375 0.49326 0.0
H1049 H 0.69432 0.53387 0.56628 0.0
H1050 H 0.697 0.50653 0.573 0.0
H1051 H 0.66699 0.51853 0.57061 0.0
C1052 C 0.69714 0.44045 0.5556 0.0
C1053 C 0.67726 0.43821 0.57235 0.0
C1054 C 0.69966 0.45846 0.54121 0.0
C1055 C 0.68237 0.47466 0.54322 0.0
C1056 C 0.66281 0.47266 0.56038 0.0
H1057 H 0.64702 0.56732 0.43086 0.0
H1058 H 0.65022 0.53581 0.45611 0.0
C1059 C 0.66038 0.45469 0.57492 0.0
C1060 C 0.68389 0.49295 0.52621 0.0
H1061 H 0.6848 0.54594 0.52515 0.0
C1062 C 0.68426 0.48954 0.50026 0.0
C1063 C 0.68477 0.51358 0.53524 0.0
C1064 C 0.68601 0.51838 0.5628 0.0
C1065 C 0.6849 0.50611 0.48317 0.0
C1066 C 0.68458 0.52675 0.49219 0.0
C1067 C 0.68481 0.53016 0.51814 0.0
C1068 C 0.68377 0.54508 0.47519 0.0
C1069 C 0.68626 0.50128 0.45561 0.0
C1070 C 0.70146 0.56092 0.47745 0.0
C1071 C 0.69952 0.57905 0.46318 0.0
C1072 C 0.67982 0.58178 0.44631 0.0
C1073 C 0.66259 0.56562 0.44343 0.0
C1074 C 0.66444 0.54753 0.45785 0.0
H1075 H 0.69416 0.48561 0.45222 0.0
H1076 H 0.66732 0.50154 0.44764 0.0
H1077 H 0.69767 0.51288 0.44551 0.0
H1078 H 0.71653 0.55944 0.49067 0.0
H1079 H 0.71307 0.59121 0.46595 0.0
H1080 H 0.24822 0.59037 0.06107 0.0
H1081 H 0.25274 0.55588 0.04267 0.0
H1082 H 0.18506 0.56484 1.00135 0.0
H1083 H 0.18077 0.59958 0.01921 0.0
H1084 H 0.22167 0.52435 0.04997 0.0
H1085 H 0.22838 0.53947 0.94841 0.0
H1086 H 0.23204 0.55972 0.9714 0.0
H1087 H 0.20162 0.55136 0.96214 0.0
C1088 C 0.23464 0.58522 0.04755 0.0
C1089 C 0.21416 0.59775 0.04155 0.0
C1090 C 0.23719 0.56544 0.03714 0.0
C1091 C 0.21933 0.55773 0.02051 0.0
C1092 C 0.19938 0.57055 0.01371 0.0
H1093 H 0.18044 0.42921 0.9949 0.0
H1094 H 0.18512 0.4644 0.01123 0.0
C1095 C 0.19692 0.59044 0.02398 0.0
C1096 C 0.22043 0.53572 0.01212 0.0
H1097 H 0.21887 0.50462 0.96049 0.0
C1098 C 0.22131 0.52006 0.03038 0.0
C1099 C 0.22022 0.53005 0.98658 0.0
C1100 C 0.22077 0.54604 0.96601 0.0
C1101 C 0.22137 0.49894 0.02384 0.0
C1102 C 0.21996 0.49327 0.99835 0.0
C1103 C 0.21972 0.50893 0.98006 0.0
C1104 C 0.21833 0.47124 0.99015 0.0
C1105 C 0.22322 0.48295 0.04435 0.0
C1106 C 0.23537 0.46329 0.97282 0.0
C1107 C 0.23262 0.44322 0.96329 0.0
C1108 C 0.21271 0.43066 0.97088 0.0
C1109 C 0.19614 0.43837 0.98889 0.0
C1110 C 0.19883 0.45851 0.9983 0.0
H1111 H 0.23182 0.48953 0.06146 0.0
H1112 H 0.20436 0.47759 0.04936 0.0
H1113 H 0.23422 0.4693 0.03827 0.0
H1114 H 0.25055 0.4728 0.96623 0.0
H1115 H 0.24566 0.43779 0.94938 0.0
H1116 H 0.33124 0.59827 0.4963 0.0
H1117 H 0.3277 0.56336 0.51397 0.0
H1118 H 0.26035 0.55361 0.47241 0.0
H1119 H 0.26418 0.58822 0.45412 0.0
H1120 H 0.29408 0.54267 0.54151 0.0
H1121 H 0.30193 0.50566 0.44836 0.0
H1122 H 0.30742 0.53295 0.4532 0.0
H1123 H 0.2763 0.52325 0.45067 0.0
C1124 C 0.31547 0.58881 0.49122 0.0
C1125 C 0.29811 0.59595 0.47362 0.0
C1126 C 0.31351 0.56881 0.50126 0.0
C1127 C 0.29413 0.5556 0.49399 0.0
C1128 C 0.27589 0.56324 0.47772 0.0
H1129 H 0.26322 0.43798 0.56971 0.0
H1130 H 0.2602 0.47297 0.55225 0.0
C1131 C 0.27797 0.58313 0.46747 0.0
C1132 C 0.2935 0.53368 0.5028 0.0
H1133 H 0.2928 0.48341 0.48239 0.0
C1134 C 0.29378 0.52972 0.52859 0.0
C1135 C 0.2936 0.51672 0.48593 0.0
C1136 C 0.29505 0.5198 0.45801 0.0
C1137 C 0.29394 0.50934 0.53798 0.0
C1138 C 0.29313 0.49239 0.52112 0.0
C1139 C 0.29306 0.49636 0.49533 0.0
C1140 C 0.29342 0.47044 0.52985 0.0
C1141 C 0.29577 0.50622 0.56587 0.0
C1142 C 0.31221 0.45687 0.52192 0.0
C1143 C 0.31369 0.43669 0.53148 0.0
C1144 C 0.29643 0.42969 0.54924 0.0
C1145 C 0.27692 0.44294 0.5562 0.0
C1146 C 0.27532 0.46305 0.54644 0.0
H1147 H 0.30317 0.52021 0.5754 0.0
H1148 H 0.27706 0.50313 0.57352 0.0
H1149 H 0.30787 0.49282 0.57046 0.0
H1150 H 0.32628 0.46214 0.50897 0.0
H1151 H 0.32898 0.42691 0.52577 0.0
H1152 H 0.62182 0.16688 0.06167 0.0
H1153 H 0.57667 0.16644 0.05841 0.0
H1154 H 0.57207 0.13521 0.12953 0.0
H1155 H 0.61743 0.13584 0.13288 0.0
H1156 H 0.54423 0.11615 0.09134 0.0
H1157 H 0.52425 0.20064 0.09505 0.0
H1158 H 0.54823 0.19301 0.07366 0.0
H1159 H 0.5525 0.18941 0.10676 0.0
C1160 C 0.61112 0.16058 0.077 0.0
C1161 C 0.62303 0.15206 0.09795 0.0
C1162 C 0.58532 0.1602 0.07505 0.0
C1163 C 0.57091 0.15107 0.0939 0.0
C1164 C 0.5828 0.14247 0.11484 0.0
H1165 H 0.41644 0.12693 0.12101 0.0
H1166 H 0.46157 0.12608 0.11921 0.0
C1167 C 0.60865 0.1429 0.1168 0.0
C1168 C 0.54358 0.14954 0.09113 0.0
H1169 H 0.49125 0.1787 0.0849 0.0
C1170 C 0.53259 0.12982 0.0901 0.0
C1171 C 0.52839 0.16734 0.08918 0.0
C1172 C 0.53882 0.18886 0.09137 0.0
C1173 C 0.50687 0.12749 0.08718 0.0
C1174 C 0.4917 0.14537 0.08567 0.0
C1175 C 0.50279 0.16501 0.08614 0.0
C1176 C 0.46422 0.14431 0.08531 0.0
C1177 C 0.49635 0.10588 0.08525 0.0
C1178 C 0.45053 0.15513 0.06711 0.0
C1179 C 0.42465 0.15598 0.06847 0.0
C1180 C 0.41221 0.14642 0.08835 0.0
C1181 C 0.42577 0.13491 0.10589 0.0
C1182 C 0.45154 0.13409 0.1046 0.0
H1183 H 0.51026 0.0948 0.07777 0.0
H1184 H 0.49099 0.10045 0.10417 0.0
H1185 H 0.47974 0.10549 0.07306 0.0
H1186 H 0.4599 0.1632 0.05211 0.0
H1187 H 0.41445 0.16462 0.05449 0.0
H1188 H 0.88487 0.86068 0.56475 0.0
H1189 H 0.92931 0.85995 0.56587 0.0
H1190 H 0.92787 0.91464 0.61282 0.0
H1191 H 0.88345 0.91042 0.6179 0.0
H1192 H 0.96417 0.87224 0.5544 0.0
H1193 H 0.97911 0.89529 0.65172 0.0
H1194 H 0.94858 0.88948 0.64092 0.0
H1195 H 0.96116 0.91557 0.63819 0.0
C1196 C 0.89434 0.87111 0.5773 0.0
C1197 C 0.88095 0.88353 0.59386 0.0
C1198 C 0.92012 0.87159 0.57701 0.0
C1199 C 0.93334 0.88647 0.591 0.0
C1200 C 0.91926 0.90138 0.60417 0.0
H1201 H 0.09223 0.88071 0.54957 0.0
H1202 H 0.04773 0.88624 0.5483 0.0
C1203 C 0.89352 0.89938 0.60651 0.0
C1204 C 0.96136 0.88657 0.59098 0.0
H1205 H 0.01165 0.90357 0.62311 0.0
C1206 C 0.97418 0.87804 0.57041 0.0
C1207 C 0.97586 0.89394 0.6113 0.0
C1208 C 0.96538 0.89876 0.63683 0.0
C1209 C 1.00002 0.87559 0.57033 0.0
C1210 C 0.01449 0.88589 0.58873 0.0
C1211 C 1.00166 0.89547 0.60861 0.0
C1212 C 0.0425 0.88606 0.58867 0.0
C1213 C 0.01061 0.86052 0.55152 0.0
C1214 C 0.05584 0.88781 0.61125 0.0
C1215 C 0.08162 0.8875 0.61145 0.0
C1216 C 0.09493 0.88281 0.58981 0.0
C1217 C 0.08224 0.88256 0.56697 0.0
C1218 C 0.05647 0.88512 0.56635 0.0
H1219 H 0.99703 0.84813 0.547 0.0
H1220 H 0.0146 0.86875 0.53377 0.0
H1221 H 0.02756 0.85277 0.55859 0.0
H1222 H 0.04673 0.88917 0.62912 0.0
H1223 H 0.09115 0.89058 0.62878 0.0
H1224 H 0.41409 0.86413 0.96842 0.0
H1225 H 0.45954 0.86511 0.97096 0.0
H1226 H 0.462 0.90093 0.90288 0.0
H1227 H 0.41686 0.90046 0.90084 0.0
H1228 H 0.49066 0.84861 0.93824 0.0
H1229 H 0.51111 0.93231 0.94402 0.0
H1230 H 0.48044 0.92205 0.94906 0.0
H1231 H 0.49163 0.92657 0.91782 0.0
C1232 C 0.42446 0.87239 0.95426 0.0
C1233 C 0.41223 0.88168 0.93404 0.0
C1234 C 0.45034 0.87301 0.95571 0.0
C1235 C 0.46424 0.88334 0.93728 0.0
C1236 C 0.45179 0.89331 0.91766 0.0
H1237 H 0.61764 0.89016 0.88997 0.0
H1238 H 0.57231 0.89155 0.89344 0.0
C1239 C 0.42602 0.8927 0.91624 0.0
C1240 C 0.4917 0.88191 0.93701 0.0
H1241 H 0.54473 0.91034 0.93093 0.0
C1242 C 0.50244 0.86212 0.93678 0.0
C1243 C 0.50718 0.89956 0.93523 0.0
C1244 C 0.497 0.92131 0.93681 0.0
C1245 C 0.52796 0.85939 0.93359 0.0
C1246 C 0.54349 0.87695 0.93145 0.0
C1247 C 0.53286 0.89684 0.93233 0.0
C1248 C 0.5708 0.87501 0.9286 0.0
C1249 C 0.5379 0.8377 0.93122 0.0
C1250 C 0.58502 0.86524 0.94715 0.0
C1251 C 0.6108 0.86434 0.94508 0.0
C1252 C 0.62287 0.87309 0.92438 0.0
C1253 C 0.6087 0.88293 0.90585 0.0
C1254 C 0.58287 0.8838 0.90789 0.0
H1255 H 0.52305 0.8262 0.92749 0.0
H1256 H 0.55151 0.83701 0.91577 0.0
H1257 H 0.54726 0.83325 0.94887 0.0
H1258 H 0.57627 0.85887 0.96365 0.0
H1259 H 0.62136 0.85748 0.96016 0.0
H1260 H 0.08722 0.13092 0.39572 0.0
H1261 H 0.04216 0.13003 0.39759 0.0
H1262 H 0.0447 0.15647 0.47169 0.0
H1263 H 0.08979 0.15969 0.46829 0.0
H1264 H 0.01162 0.11087 0.42351 0.0
H1265 H 0.99489 0.19367 0.44514 0.0
H1266 H 0.02569 0.18384 0.44087 0.0
H1267 H 0.01033 0.18086 0.47043 0.0
C1268 C 0.07801 0.13745 0.41187 0.0
C1269 C 0.09175 0.14674 0.43105 0.0
C1270 C 0.05225 0.1365 0.41324 0.0
C1271 C 0.03967 0.14388 0.43444 0.0
C1272 C 0.05366 0.15165 0.45457 0.0
H1273 H 0.88089 0.15309 0.46395 0.0
H1274 H 0.92586 0.15124 0.46818 0.0
C1275 C 0.07946 0.15332 0.45275 0.0
C1276 C 0.01206 0.14286 0.43536 0.0
H1277 H 0.96004 0.1713 0.44666 0.0
C1278 C 1.00039 0.12426 0.42821 0.0
C1279 C 0.99712 0.16005 0.44217 0.0
C1280 C 0.00769 0.18074 0.44986 0.0
C1281 C 0.97448 0.12253 0.4271 0.0
C1282 C 0.95968 0.13998 0.43298 0.0
C1283 C 0.97128 0.15818 0.44127 0.0
C1284 C 0.93221 0.13992 0.4306 0.0
C1285 C 0.96334 0.10185 0.42025 0.0
C1286 C 0.92061 0.13425 0.40805 0.0
C1287 C 0.89479 0.13502 0.40578 0.0
C1288 C 0.88028 0.14228 0.42566 0.0
C1289 C 0.8918 0.14787 0.44816 0.0
C1290 C 0.91748 0.14673 0.45061 0.0
H1291 H 0.97608 0.08887 0.42484 0.0
H1292 H 0.94551 0.09923 0.43007 0.0
H1293 H 0.95993 0.10141 0.39981 0.0
H1294 H 0.93151 0.12955 0.39206 0.0
H1295 H 0.88621 0.1305 0.38832 0.0
H1296 H 0.12496 0.61029 0.11555 0.0
H1297 H 0.08136 0.60352 0.10816 0.0
H1298 H 0.0776 0.6591 0.06279 0.0
H1299 H 0.1221 0.66085 0.06345 0.0
H1300 H 0.04345 0.61224 0.11756 0.0
H1301 H 0.03324 0.63453 0.02049 0.0
H1302 H 0.06363 0.63223 0.03361 0.0
H1303 H 0.04728 0.65695 0.0337 0.0
C1304 C 0.11467 0.62074 0.10358 0.0
C1305 C 0.12663 0.63734 0.0917 0.0
C1306 C 0.0894 0.61709 0.09954 0.0
C1307 C 0.07505 0.6307 0.08466 0.0
C1308 C 0.08741 0.64742 0.07325 0.0
H1309 H 0.91947 0.63136 0.12536 0.0
H1310 H 0.96398 0.63026 0.12407 0.0
C1311 C 0.11299 0.64954 0.07509 0.0
C1312 C 0.04738 0.62808 0.08205 0.0
H1313 H 0.99831 0.64443 0.04739 0.0
C1314 C 0.03395 0.6186 0.10151 0.0
C1315 C 0.03373 0.63511 0.06093 0.0
C1316 C 0.04539 0.63991 0.03593 0.0
C1317 C 0.00808 0.6166 0.10068 0.0
C1318 C 0.9944 0.62769 0.08229 0.0
C1319 C 0.00784 0.63653 0.06241 0.0
C1320 C 0.9667 0.6307 0.08348 0.0
C1321 C 0.99651 0.60139 0.11869 0.0
C1322 C 0.9524 0.63389 0.06165 0.0
C1323 C 0.92706 0.63848 0.06316 0.0
C1324 C 0.91501 0.63879 0.08637 0.0
C1325 C 0.92862 0.63363 0.10767 0.0
C1326 C 0.95423 0.63139 0.10656 0.0
H1327 H 0.00882 0.58774 0.12136 0.0
H1328 H 0.99443 0.60875 0.13732 0.0
H1329 H 0.97838 0.59557 0.11197 0.0
H1330 H 0.96054 0.63288 0.04324 0.0
H1331 H 0.9168 0.64134 0.04611 0.0
H1332 H 0.58756 0.39306 0.62612 0.0
H1333 H 0.54251 0.39378 0.62437 0.0
H1334 H 0.54506 0.36744 0.55022 0.0
H1335 H 0.59021 0.36439 0.55349 0.0
H1336 H 0.51177 0.41285 0.59862 0.0
H1337 H 0.49567 0.32999 0.57706 0.0
H1338 H 0.52639 0.33999 0.58116 0.0
H1339 H 0.51087 0.34286 0.55168 0.0
C1340 C 0.57837 0.38653 0.60997 0.0
C1341 C 0.59214 0.37731 0.59074 0.0
C1342 C 0.55261 0.38738 0.60868 0.0
C1343 C 0.54003 0.37998 0.58751 0.0
C1344 C 0.55404 0.37229 0.56732 0.0
H1345 H 0.38139 0.37045 0.55821 0.0
H1346 H 0.42635 0.37235 0.55407 0.0
C1347 C 0.57985 0.37072 0.56906 0.0
C1348 C 0.51243 0.38088 0.58671 0.0
H1349 H 0.46061 0.35219 0.57569 0.0
C1350 C 0.50062 0.39942 0.59395 0.0
C1351 C 0.4976 0.36362 0.57999 0.0
C1352 C 0.50832 0.34298 0.57225 0.0
C1353 C 0.47471 0.40102 0.59522 0.0
C1354 C 0.46005 0.38352 0.58936 0.0
C1355 C 0.47176 0.36537 0.58102 0.0
C1356 C 0.43258 0.38348 0.59174 0.0
C1357 C 0.46341 0.42163 0.6022 0.0
C1358 C 0.42093 0.38901 0.61432 0.0
C1359 C 0.39511 0.38821 0.61655 0.0
C1360 C 0.38068 0.38105 0.59658 0.0
C1361 C 0.39225 0.37558 0.57406 0.0
C1362 C 0.41792 0.37675 0.57166 0.0
H1363 H 0.47606 0.43468 0.59771 0.0
H1364 H 0.44558 0.42423 0.59238 0.0
H1365 H 0.45997 0.42195 0.62263 0.0
H1366 H 0.43179 0.39365 0.63036 0.0
H1367 H 0.38648 0.39263 0.63403 0.0
H1368 H 0.12302 0.39864 0.8847 0.0
H1369 H 0.07756 0.40059 0.8855 0.0
H1370 H 0.07747 0.37537 0.96021 0.0
H1371 H 0.12263 0.37416 0.95966 0.0
H1372 H 0.04733 0.36885 0.88877 0.0
H1373 H 0.02735 0.42026 0.96873 0.0
H1374 H 0.05786 0.41812 0.95522 0.0
H1375 H 0.04725 0.39927 0.97764 0.0
C1376 C 0.11316 0.3938 0.90133 0.0
C1377 C 0.12607 0.38564 0.92181 0.0
C1378 C 0.08728 0.39495 0.90184 0.0
C1379 C 0.07402 0.38837 0.92305 0.0
C1380 C 0.08715 0.38103 0.94388 0.0
H1381 H 0.92066 0.35826 0.95743 0.0
H1382 H 0.96599 0.36174 0.95715 0.0
C1383 C 0.11294 0.37995 0.94337 0.0
C1384 C 0.04656 0.38698 0.92245 0.0
H1385 H 0.9938 0.39859 0.95489 0.0
C1386 C 0.03569 0.37545 0.90318 0.0
C1387 C 0.03123 0.39565 0.94123 0.0
C1388 C 0.04152 0.40919 0.96172 0.0
C1389 C 0.0102 0.37159 0.90265 0.0
C1390 C 0.99482 0.38004 0.92145 0.0
C1391 C 0.00557 0.39194 0.94056 0.0
C1392 C 0.96751 0.37708 0.9212 0.0
C1393 C 1.00013 0.35772 0.88254 0.0
C1394 C 0.95331 0.38455 0.90116 0.0
C1395 C 0.92756 0.3825 0.9013 0.0
C1396 C 0.91547 0.37277 0.92135 0.0
C1397 C 0.92961 0.36542 0.9415 0.0
C1398 C 0.95544 0.36749 0.9414 0.0
H1399 H 0.0149 0.34859 0.87316 0.0
H1400 H 0.98649 0.34682 0.89065 0.0
H1401 H 0.99079 0.36735 0.86819 0.0
H1402 H 0.96207 0.39251 0.8857 0.0
H1403 H 0.91703 0.38917 0.88607 0.0
H1404 H 0.59055 0.62875 0.3934 0.0
H1405 H 0.54547 0.62828 0.3955 0.0
H1406 H 0.54875 0.65334 0.47026 0.0
H1407 H 0.59392 0.65595 0.46682 0.0
H1408 H 0.51499 0.60867 0.42186 0.0
H1409 H 0.49939 0.69151 0.44401 0.0
H1410 H 0.53006 0.68134 0.43989 0.0
H1411 H 0.51446 0.67836 0.46928 0.0
C1412 C 0.58153 0.63502 0.4098 0.0
C1413 C 0.59551 0.6437 0.42922 0.0
C1414 C 0.55576 0.63433 0.41127 0.0
C1415 C 0.5434 0.64143 0.43274 0.0
C1416 C 0.55759 0.64868 0.453 0.0
H1417 H 0.38479 0.65301 0.46205 0.0
H1418 H 0.42969 0.65062 0.46641 0.0
C1419 C 0.58341 0.65002 0.45114 0.0
C1420 C 0.5158 0.64061 0.4338 0.0
H1421 H 0.46417 0.6695 0.44526 0.0
C1422 C 0.5039 0.62212 0.42665 0.0
C1423 C 0.50108 0.65789 0.44077 0.0
C1424 C 0.51194 0.67841 0.44871 0.0
C1425 C 0.47797 0.62058 0.4257 0.0
C1426 C 0.46338 0.63815 0.43159 0.0
C1427 C 0.47522 0.65626 0.43986 0.0
C1428 C 0.43588 0.63834 0.42923 0.0
C1429 C 0.46663 0.59992 0.41907 0.0
C1430 C 0.42416 0.63228 0.40689 0.0
C1431 C 0.39835 0.63324 0.40462 0.0
C1432 C 0.38399 0.64118 0.42422 0.0
C1433 C 0.3956 0.64722 0.44649 0.0
C1434 C 0.42126 0.6458 0.449 0.0
H1435 H 0.47919 0.58689 0.42399 0.0
H1436 H 0.4487 0.59753 0.42878 0.0
H1437 H 0.46343 0.59927 0.39861 0.0
H1438 H 0.43495 0.62713 0.39102 0.0
H1439 H 0.38969 0.62839 0.38733 0.0
H1440 H 0.32439 0.17319 0.1922 0.0
H1441 H 0.30035 0.1673 0.22984 0.0
H1442 H 0.26707 0.11328 0.19637 0.0
H1443 H 0.29112 0.11922 0.158 0.0
H1444 H 0.23316 0.13769 0.22115 0.0
H1445 H 0.31344 0.12359 0.28267 0.0
H1446 H 0.3166 0.14757 0.26601 0.0
H1447 H 0.3159 0.12346 0.24901 0.0
C1448 C 0.31201 0.16 0.19266 0.0
C1449 C 0.30992 0.14657 0.17199 0.0
C1450 C 0.29839 0.15656 0.2144 0.0
C1451 C 0.28245 0.1395 0.21628 0.0
C1452 C 0.27955 0.12639 0.19547 0.0
H1453 H 0.21334 0.11726 0.36432 0.0
H1454 H 0.23795 0.11141 0.32625 0.0
C1455 C 0.29321 0.12987 0.1735 0.0
C1456 C 0.26838 0.13608 0.23984 0.0
H1457 H 0.27559 0.13405 0.30329 0.0
C1458 C 0.24244 0.13652 0.23907 0.0
C1459 C 0.28039 0.1341 0.26327 0.0
C1460 C 0.30812 0.13192 0.2653 0.0
C1461 C 0.22831 0.13647 0.26112 0.0
C1462 C 0.24044 0.13639 0.2846 0.0
C1463 C 0.26628 0.13449 0.28535 0.0
C1464 C 0.22672 0.14001 0.30832 0.0
C1465 C 0.20047 0.13689 0.25904 0.0
C1466 C 0.21313 0.15836 0.31133 0.0
C1467 C 0.19922 0.16174 0.33289 0.0
C1468 C 0.19869 0.14694 0.35224 0.0
C1469 C 0.21334 0.12898 0.34982 0.0
C1470 C 0.22728 0.12556 0.32802 0.0
H1471 H 0.19416 0.13002 0.24111 0.0
H1472 H 0.19164 0.12835 0.2747 0.0
H1473 H 0.194 0.15323 0.25958 0.0
H1474 H 0.21303 0.17005 0.29678 0.0
H1475 H 0.18848 0.1759 0.33417 0.0
H1476 H 0.32424 0.85192 0.83159 0.0
H1477 H 0.30027 0.85643 0.79363 0.0
H1478 H 0.26731 0.91193 0.82385 0.0
H1479 H 0.29134 0.90744 0.86255 0.0
H1480 H 0.23328 0.88627 0.7999 0.0
H1481 H 0.3145 0.89867 0.73902 0.0
H1482 H 0.3174 0.87532 0.75702 0.0
H1483 H 0.31635 0.90004 0.77267 0.0
C1484 C 0.31194 0.86516 0.83035 0.0
C1485 C 0.30997 0.87945 0.85017 0.0
C1486 C 0.29834 0.86777 0.80845 0.0
C1487 C 0.28253 0.88484 0.80555 0.0
C1488 C 0.27969 0.89879 0.82556 0.0
H1489 H 0.21712 0.9052 0.65603 0.0
H1490 H 0.24079 0.91073 0.69464 0.0
C1491 C 0.29334 0.89615 0.8477 0.0
C1492 C 0.26875 0.8875 0.78168 0.0
H1493 H 0.27694 0.88805 0.71833 0.0
C1494 C 0.24281 0.887 0.78209 0.0
C1495 C 0.28112 0.88887 0.75839 0.0
C1496 C 0.30887 0.89099 0.75671 0.0
C1497 C 0.229 0.88653 0.75982 0.0
C1498 C 0.24149 0.88614 0.73653 0.0
C1499 C 0.26735 0.88797 0.73613 0.0
C1500 C 0.22813 0.88259 0.71258 0.0
C1501 C 0.20114 0.88623 0.7615 0.0
C1502 C 0.21397 0.86456 0.70942 0.0
C1503 C 0.20053 0.86135 0.68749 0.0
C1504 C 0.2011 0.87598 0.66795 0.0
C1505 C 0.21627 0.89359 0.67063 0.0
C1506 C 0.2297 0.89684 0.69275 0.0
H1507 H 0.19457 0.89337 0.7792 0.0
H1508 H 0.19257 0.89459 0.74556 0.0
H1509 H 0.19463 0.86991 0.76119 0.0
H1510 H 0.21309 0.853 0.72408 0.0
H1511 H 0.18932 0.84748 0.68606 0.0
H1512 H 0.69519 0.82707 0.847 0.0
H1513 H 0.71321 0.82816 0.80509 0.0
H1514 H 0.74518 0.88792 0.82116 0.0
H1515 H 0.72762 0.88689 0.86318 0.0
H1516 H 0.70639 0.85667 0.76673 0.0
H1517 H 0.80467 0.85459 0.79661 0.0
H1518 H 0.77949 0.84859 0.81755 0.0
H1519 H 0.78697 0.87514 0.81057 0.0
C1520 C 0.70614 0.84042 0.84172 0.0
C1521 C 0.71008 0.85681 0.85865 0.0
C1522 C 0.71638 0.84103 0.8177 0.0
C1523 C 0.73086 0.85797 0.81011 0.0
C1524 C 0.73451 0.87449 0.82677 0.0
H1525 H 0.77323 0.88798 0.65652 0.0
H1526 H 0.75462 0.8879 0.69822 0.0
C1527 C 0.72432 0.8739 0.85079 0.0
C1528 C 0.74195 0.85843 0.7847 0.0
H1529 H 0.7971 0.86104 0.75364 0.0
C1530 C 0.72622 0.85759 0.76384 0.0
C1531 C 0.76785 0.8594 0.78097 0.0
C1532 C 0.78578 0.85929 0.80258 0.0
C1533 C 0.73567 0.85792 0.73936 0.0
C1534 C 0.76153 0.85945 0.73564 0.0
C1535 C 0.77727 0.86008 0.75651 0.0
C1536 C 0.77277 0.85969 0.71028 0.0
C1537 C 0.71791 0.85616 0.71772 0.0
C1538 C 0.78964 0.84416 0.70338 0.0
C1539 C 0.80045 0.84423 0.67965 0.0
C1540 C 0.79472 0.8599 0.66225 0.0
C1541 C 0.77798 0.87559 0.66933 0.0
C1542 C 0.76719 0.87551 0.69313 0.0
H1543 H 0.69969 0.84991 0.72368 0.0
H1544 H 0.7148 0.87177 0.70958 0.0
H1545 H 0.72555 0.84598 0.70286 0.0
H1546 H 0.79432 0.83186 0.71634 0.0
H1547 H 0.81331 0.83193 0.675 0.0
H1548 H 0.77279 0.13887 0.36373 0.0
H1549 H 0.75532 0.13991 0.32166 0.0
H1550 H 0.79431 0.1969 0.30688 0.0
H1551 H 0.8122 0.19591 0.34883 0.0
H1552 H 0.7258 0.16999 0.29913 0.0
H1553 H 0.81434 0.16001 0.24788 0.0
H1554 H 0.81147 0.1551 0.28096 0.0
H1555 H 0.81408 0.18125 0.26961 0.0
C1556 C 0.77774 0.15164 0.35158 0.0
C1557 C 0.79404 0.16727 0.35975 0.0
C1558 C 0.76768 0.15221 0.32751 0.0
C1559 C 0.77377 0.16832 0.31099 0.0
C1560 C 0.78972 0.18411 0.31914 0.0
H1561 H 0.69567 0.19905 0.17312 0.0
H1562 H 0.71331 0.19912 0.21517 0.0
C1563 C 0.79981 0.18357 0.34323 0.0
C1564 C 0.76319 0.16864 0.28536 0.0
H1565 H 0.77879 0.16742 0.2235 0.0
C1566 C 0.73737 0.16943 0.28258 0.0
C1567 C 0.7783 0.16763 0.2638 0.0
C1568 C 0.80608 0.16576 0.26559 0.0
C1569 C 0.72627 0.16946 0.25883 0.0
C1570 C 0.74141 0.16899 0.23726 0.0
C1571 C 0.76721 0.16797 0.24004 0.0
C1572 C 0.73082 0.16908 0.21163 0.0
C1573 C 0.6984 0.16957 0.25706 0.0
C1574 C 0.73528 0.15239 0.19541 0.0
C1575 C 0.72535 0.15232 0.17126 0.0
C1576 C 0.71084 0.16905 0.16274 0.0
C1577 C 0.70666 0.18587 0.179 0.0
C1578 C 0.7166 0.18589 0.20315 0.0
H1579 H 0.68962 0.16469 0.27488 0.0
H1580 H 0.69198 0.18552 0.25272 0.0
H1581 H 0.69194 0.15913 0.24191 0.0
H1582 H 0.74629 0.13929 0.20152 0.0
H1583 H 0.72905 0.13912 0.15931 0.0
H1584 H 0.717 0.61504 0.36062 0.0
H1585 H 0.74179 0.61074 0.32237 0.0
H1586 H 0.7171 0.67055 0.29632 0.0
H1587 H 0.69244 0.6749 0.33391 0.0
H1588 H 0.71121 0.6391 0.26093 0.0
H1589 H 0.8064 0.6398 0.30062 0.0
H1590 H 0.78493 0.62158 0.31392 0.0
H1591 H 0.7799 0.64889 0.31802 0.0
C1592 C 0.71722 0.6274 0.34692 0.0
C1593 C 0.70263 0.64527 0.35037 0.0
C1594 C 0.73136 0.62491 0.32505 0.0
C1595 C 0.73127 0.64033 0.30643 0.0
C1596 C 0.71734 0.65838 0.31029 0.0
H1597 H 0.82424 0.67471 0.18559 0.0
H1598 H 0.8003 0.66988 0.22364 0.0
C1599 C 0.70326 0.66084 0.33192 0.0
C1600 C 0.74485 0.63781 0.28241 0.0
H1601 H 0.80281 0.63709 0.25696 0.0
C1602 C 0.73125 0.6384 0.26003 0.0
C1603 C 0.77097 0.63703 0.28128 0.0
C1604 C 0.78654 0.63692 0.30467 0.0
C1605 C 0.74303 0.63896 0.23661 0.0
C1606 C 0.76917 0.6386 0.23547 0.0
C1607 C 0.78276 0.6373 0.25784 0.0
C1608 C 0.78286 0.64142 0.21156 0.0
C1609 C 0.72742 0.64096 0.21335 0.0
C1610 C 0.78083 0.62716 0.19178 0.0
C1611 C 0.79446 0.62996 0.16968 0.0
C1612 C 0.81054 0.647 0.16706 0.0
C1613 C 0.81213 0.66138 0.18683 0.0
C1614 C 0.7985 0.6586 0.20874 0.0
H1615 H 0.70798 0.64522 0.21775 0.0
H1616 H 0.73523 0.65284 0.20058 0.0
H1617 H 0.72725 0.6259 0.20332 0.0
H1618 H 0.76913 0.61362 0.19363 0.0
H1619 H 0.79296 0.61846 0.15501 0.0
H1620 H 0.6833 0.35175 0.69179 0.0
H1621 H 0.70657 0.35876 0.72959 0.0
H1622 H 0.73934 0.41254 0.69513 0.0
H1623 H 0.7157 0.4057 0.65663 0.0
H1624 H 0.77318 0.38552 0.72263 0.0
H1625 H 0.69113 0.40671 0.77903 0.0
H1626 H 0.68711 0.38289 0.76212 0.0
H1627 H 0.69095 0.40681 0.74526 0.0
C1628 C 0.69544 0.3651 0.692 0.0
C1629 C 0.69737 0.37828 0.67107 0.0
C1630 C 0.70864 0.36914 0.71381 0.0
C1631 C 0.72416 0.38646 0.71544 0.0
C1632 C 0.72714 0.39923 0.69435 0.0
H1633 H 0.79492 0.40918 0.86301 0.0
H1634 H 0.771 0.41643 0.82476 0.0
C1635 C 0.71375 0.39523 0.67233 0.0
C1636 C 0.73742 0.39053 0.73925 0.0
H1637 H 0.72713 0.39539 0.80205 0.0
C1638 C 0.76319 0.38817 0.73992 0.0
C1639 C 0.72443 0.39423 0.76182 0.0
C1640 C 0.69689 0.39802 0.76207 0.0
C1641 C 0.77606 0.38787 0.76274 0.0
C1642 C 0.76276 0.38977 0.78544 0.0
C1643 C 0.73726 0.3937 0.78467 0.0
C1644 C 0.77468 0.38538 0.80987 0.0
C1645 C 0.80372 0.38472 0.76246 0.0
C1646 C 0.78348 0.36533 0.81468 0.0
C1647 C 0.79682 0.36114 0.83639 0.0
C1648 C 0.80164 0.37689 0.85392 0.0
C1649 C 0.79138 0.39669 0.84996 0.0
C1650 C 0.77793 0.4009 0.82803 0.0
H1651 H 0.8119 0.3894 0.74428 0.0
H1652 H 0.81276 0.39369 0.77764 0.0
H1653 H 0.80786 0.36803 0.76543 0.0
H1654 H 0.78069 0.35302 0.8012 0.0
H1655 H 0.80425 0.34567 0.83895 0.0
H1656 H 0.31062 0.32615 0.67163 0.0
H1657 H 0.29232 0.32452 0.71335 0.0
H1658 H 0.25632 0.3833 0.70081 0.0
H1659 H 0.27416 0.38497 0.65893 0.0
H1660 H 0.29804 0.35137 0.75283 0.0
H1661 H 0.19937 0.3472 0.72506 0.0
H1662 H 0.22433 0.34299 0.70321 0.0
H1663 H 0.21542 0.36892 0.71177 0.0
C1664 C 0.29866 0.33869 0.6776 0.0
C1665 C 0.29379 0.35564 0.66174 0.0
C1666 C 0.28824 0.33773 0.70152 0.0
C1667 C 0.27263 0.35363 0.71009 0.0
C1668 C 0.26785 0.37063 0.69442 0.0
H1669 H 0.23392 0.38418 0.8627 0.0
H1670 H 0.25163 0.38217 0.82082 0.0
C1671 C 0.27822 0.3716 0.67049 0.0
C1672 C 0.26203 0.35276 0.73571 0.0
H1673 H 0.20755 0.35376 0.76811 0.0
C1674 C 0.27825 0.35177 0.75617 0.0
C1675 C 0.23619 0.35299 0.74006 0.0
C1676 C 0.21778 0.35288 0.71887 0.0
C1677 C 0.26937 0.35153 0.78085 0.0
C1678 C 0.24357 0.35266 0.78523 0.0
C1679 C 0.22733 0.35311 0.76476 0.0
C1680 C 0.23307 0.35362 0.81088 0.0
C1681 C 0.28771 0.34985 0.80201 0.0
C1682 C 0.2163 0.33847 0.8191 0.0
C1683 C 0.20597 0.33962 0.84306 0.0
C1684 C 0.21209 0.35604 0.85928 0.0
C1685 C 0.22887 0.37123 0.85088 0.0
C1686 C 0.23916 0.37006 0.82694 0.0
H1687 H 0.30563 0.34326 0.79561 0.0
H1688 H 0.29135 0.36555 0.80966 0.0
H1689 H 0.28037 0.34 0.81733 0.0
H1690 H 0.21122 0.32572 0.80697 0.0
H1691 H 0.19304 0.3277 0.84877 0.0
H1692 H 0.27926 0.63487 0.36147 0.0
H1693 H 0.26162 0.6342 0.3195 0.0
H1694 H 0.29637 0.69279 0.30295 0.0
H1695 H 0.31454 0.69346 0.34477 0.0
H1696 H 0.22982 0.66121 0.297 0.0
H1697 H 0.31786 0.65736 0.24396 0.0
H1698 H 0.31632 0.65298 0.27723 0.0
H1699 H 0.31612 0.67897 0.26504 0.0
C1700 C 0.28327 0.64763 0.34894 0.0
C1701 C 0.29845 0.6642 0.35659 0.0
C1702 C 0.27313 0.6472 0.32491 0.0
C1703 C 0.27796 0.66327 0.30792 0.0
C1704 C 0.29282 0.67997 0.31553 0.0
H1705 H 0.19351 0.69077 0.17387 0.0
H1706 H 0.21225 0.69049 0.21533 0.0
C1707 C 0.30306 0.6804 0.33956 0.0
C1708 C 0.26693 0.66272 0.28247 0.0
H1709 H 0.28128 0.66323 0.22028 0.0
C1710 C 0.24108 0.66159 0.28022 0.0
C1711 C 0.28164 0.6629 0.26058 0.0
C1712 C 0.30953 0.66291 0.26173 0.0
C1713 C 0.22952 0.661 0.25673 0.0
C1714 C 0.24417 0.66196 0.23483 0.0
C1715 C 0.27005 0.66271 0.23706 0.0
C1716 C 0.233 0.6622 0.20945 0.0
C1717 C 0.20172 0.65899 0.25559 0.0
C1718 C 0.23895 0.64669 0.19203 0.0
C1719 C 0.22842 0.64687 0.16813 0.0
C1720 C 0.21177 0.66265 0.16111 0.0
C1721 C 0.20611 0.67829 0.17858 0.0
C1722 C 0.2167 0.67811 0.20242 0.0
H1723 H 0.19405 0.65262 0.27326 0.0
H1724 H 0.19345 0.67456 0.25261 0.0
H1725 H 0.19597 0.64881 0.23991 0.0
H1726 H 0.2516 0.63432 0.19701 0.0
H1727 H 0.23328 0.6346 0.1552 0.0
loop_
_geom_bond_atom_site_label_1
_geom_bond_atom_site_label_2
_geom_bond_distance
_geom_bond_site_symmetry_2
_ccdc_geom_bond_type
Mn0 O5 2.095 . S
Mn0 O15 2.162 . S
Mn0 O16 2.297 . S
Mn0 O24 2.385 . S
Mn0 O25 2.209 . S
Mn0 O26 2.094 . S
Mn1 O6 2.121 . S
Mn1 N8 2.257 . S
Mn1 N17 2.282 . S
Mn1 O25 2.215 . S
Mn1 O27 2.117 . S
C2 O24 1.234 . S
C2 O25 1.283 . S
C3 O15 1.281 . S
C3 O16 1.236 . S
C4 O26 1.240 . S
C4 O27 1.264 . S
O5 Mn0 2.095 . S
O5 C14 1.250 . S
O6 Mn1 2.121 . S
O6 C14 1.258 . S
C7 N8 1.326 . S
C7 C11 1.460 . S
C7 H13 0.929 . S
N8 Mn1 2.257 . S
N8 C7 1.326 . S
N8 C12 1.362 . S
C9 C10 1.258 . S
C9 C12 1.431 . S
C9 C29 1.449 . S
C10 C9 1.258 . S
C10 C11 1.477 . S
C10 H30 0.931 . S
C11 C7 1.460 . S
C11 C10 1.477 . S
C11 H31 0.930 . S
C12 N8 1.362 . S
C12 C9 1.431 . S
C12 C22 1.476 . S
H13 C7 0.929 . S
C14 O5 1.250 . S
C14 O6 1.258 . S
O15 Mn0 2.162 . S
O15 C3 1.281 . S
O16 Mn0 2.297 . S
O16 C3 1.236 . S
N17 Mn1 2.282 . S
N17 C18 1.328 . S
N17 C22 1.318 . S
C18 N17 1.328 . S
C18 C19 1.457 . S
C18 H23 0.929 . S
C19 C18 1.457 . S
C19 C20 1.291 . S
C19 H32 0.931 . S
C20 C19 1.291 . S
C20 C21 1.373 . S
C20 H33 0.929 . S
C21 C20 1.373 . S
C21 C22 1.396 . S
C21 C28 1.403 . S
C22 C12 1.476 . S
C22 N17 1.318 . S
C22 C21 1.396 . S
H23 C18 0.929 . S
O24 Mn0 2.385 . S
O24 C2 1.234 . S
O25 Mn0 2.209 . S
O25 Mn1 2.215 . S
O25 C2 1.283 . S
O26 Mn0 2.094 . S
O26 C4 1.240 . S
O27 Mn1 2.117 . S
O27 C4 1.264 . S
C28 C21 1.403 . S
C28 C29 1.399 . S
C28 H34 0.929 . S
C29 C9 1.449 . S
C29 C28 1.399 . S
C29 H35 0.930 . S
H30 C10 0.931 . S
H31 C11 0.930 . S
H32 C19 0.931 . S
H33 C20 0.929 . S
H34 C28 0.929 . S
H35 C29 0.930 . S
Mn36 O41 2.095 . S
Mn36 O51 2.162 . S
Mn36 O52 2.297 . S
Mn36 O60 2.385 . S
Mn36 O61 2.209 . S
Mn36 O62 2.094 . S
Mn37 O42 2.121 . S
Mn37 N44 2.257 . S
Mn37 N53 2.282 . S
Mn37 O61 2.215 . S
Mn37 O63 2.117 . S
C38 O60 1.234 . S
C38 O61 1.283 . S
C39 O51 1.281 . S
C39 O52 1.236 . S
C40 O62 1.240 . S
C40 O63 1.264 . S
O41 Mn36 2.095 . S
O41 C50 1.250 . S
O42 Mn37 2.121 . S
O42 C50 1.258 . S
C43 N44 1.326 . S
C43 C47 1.460 . S
C43 H49 0.929 . S
N44 Mn37 2.257 . S
N44 C43 1.326 . S
N44 C48 1.362 . S
C45 C46 1.258 . S
C45 C48 1.431 . S
C45 C65 1.449 . S
C46 C45 1.258 . S
C46 C47 1.477 . S
C46 H66 0.931 . S
C47 C43 1.460 . S
C47 C46 1.477 . S
C47 H67 0.930 . S
C48 N44 1.362 . S
C48 C45 1.431 . S
C48 C58 1.476 . S
H49 C43 0.929 . S
C50 O41 1.250 . S
C50 O42 1.258 . S
O51 Mn36 2.162 . S
O51 C39 1.281 . S
O52 Mn36 2.297 . S
O52 C39 1.236 . S
N53 Mn37 2.282 . S
N53 C54 1.328 . S
N53 C58 1.318 . S
C54 N53 1.328 . S
C54 C55 1.457 . S
C54 H59 0.929 . S
C55 C54 1.457 . S
C55 C56 1.291 . S
C55 H68 0.931 . S
C56 C55 1.291 . S
C56 C57 1.373 . S
C56 H69 0.929 . S
C57 C56 1.373 . S
C57 C58 1.396 . S
C57 C64 1.403 . S
C58 C48 1.476 . S
C58 N53 1.318 . S
C58 C57 1.396 . S
H59 C54 0.929 . S
O60 Mn36 2.385 . S
O60 C38 1.234 . S
O61 Mn36 2.209 . S
O61 Mn37 2.215 . S
O61 C38 1.283 . S
O62 Mn36 2.094 . S
O62 C40 1.240 . S
O63 Mn37 2.117 . S
O63 C40 1.264 . S
C64 C57 1.403 . S
C64 C65 1.399 . S
C64 H70 0.929 . S
C65 C45 1.449 . S
C65 C64 1.399 . S
C65 H71 0.930 . S
H66 C46 0.931 . S
H67 C47 0.930 . S
H68 C55 0.931 . S
H69 C56 0.929 . S
H70 C64 0.929 . S
H71 C65 0.930 . S
Mn72 O77 2.095 . S
Mn72 O87 2.162 . S
Mn72 O88 2.297 . S
Mn72 O96 2.385 . S
Mn72 O97 2.209 . S
Mn72 O98 2.094 . S
Mn73 O78 2.121 . S
Mn73 N80 2.257 . S
Mn73 N89 2.282 . S
Mn73 O97 2.215 . S
Mn73 O99 2.117 . S
C74 O96 1.234 . S
C74 O97 1.283 . S
C75 O87 1.281 . S
C75 O88 1.236 . S
C76 O98 1.240 . S
C76 O99 1.264 . S
O77 Mn72 2.095 . S
O77 C86 1.250 . S
O78 Mn73 2.121 . S
O78 C86 1.258 . S
C79 N80 1.326 . S
C79 C83 1.460 . S
C79 H85 0.929 . S
N80 Mn73 2.257 . S
N80 C79 1.326 . S
N80 C84 1.362 . S
C81 C82 1.258 . S
C81 C84 1.431 . S
C81 C101 1.449 . S
C82 C81 1.258 . S
C82 C83 1.477 . S
C82 H102 0.931 . S
C83 C79 1.460 . S
C83 C82 1.477 . S
C83 H103 0.930 . S
C84 N80 1.362 . S
C84 C81 1.431 . S
C84 C94 1.476 . S
H85 C79 0.929 . S
C86 O77 1.250 . S
C86 O78 1.258 . S
O87 Mn72 2.162 . S
O87 C75 1.281 . S
O88 Mn72 2.297 . S
O88 C75 1.236 . S
N89 Mn73 2.282 . S
N89 C90 1.328 . S
N89 C94 1.318 . S
C90 N89 1.328 . S
C90 C91 1.457 . S
C90 H95 0.929 . S
C91 C90 1.457 . S
C91 C92 1.291 . S
C91 H104 0.931 . S
C92 C91 1.291 . S
C92 C93 1.373 . S
C92 H105 0.929 . S
C93 C92 1.373 . S
C93 C94 1.396 . S
C93 C100 1.403 . S
C94 C84 1.476 . S
C94 N89 1.318 . S
C94 C93 1.396 . S
H95 C90 0.929 . S
O96 Mn72 2.385 . S
O96 C74 1.234 . S
O97 Mn72 2.209 . S
O97 Mn73 2.215 . S
O97 C74 1.283 . S
O98 Mn72 2.094 . S
O98 C76 1.240 . S
O99 Mn73 2.117 . S
O99 C76 1.264 . S
C100 C93 1.403 . S
C100 C101 1.399 . S
C100 H106 0.929 . S
C101 C81 1.449 . S
C101 C100 1.399 . S
C101 H107 0.930 . S
H102 C82 0.931 . S
H103 C83 0.930 . S
H104 C91 0.931 . S
H105 C92 0.929 . S
H106 C100 0.929 . S
H107 C101 0.930 . S
Mn108 O113 2.095 . S
Mn108 O123 2.162 . S
Mn108 O124 2.297 . S
Mn108 O132 2.385 . S
Mn108 O133 2.209 . S
Mn108 O134 2.094 . S
Mn109 O114 2.121 . S
Mn109 N116 2.257 . S
Mn109 N125 2.282 . S
Mn109 O133 2.215 . S
Mn109 O135 2.117 . S
C110 O132 1.234 . S
C110 O133 1.283 . S
C111 O123 1.281 . S
C111 O124 1.236 . S
C112 O134 1.240 . S
C112 O135 1.264 . S
O113 Mn108 2.095 . S
O113 C122 1.250 . S
O114 Mn109 2.121 . S
O114 C122 1.258 . S
C115 N116 1.326 . S
C115 C119 1.460 . S
C115 H121 0.929 . S
N116 Mn109 2.257 . S
N116 C115 1.326 . S
N116 C120 1.362 . S
C117 C118 1.258 . S
C117 C120 1.431 . S
C117 C137 1.449 . S
C118 C117 1.258 . S
C118 C119 1.477 . S
C118 H138 0.931 . S
C119 C115 1.460 . S
C119 C118 1.477 . S
C119 H139 0.930 . S
C120 N116 1.362 . S
C120 C117 1.431 . S
C120 C130 1.476 . S
H121 C115 0.929 . S
C122 O113 1.250 . S
C122 O114 1.258 . S
O123 Mn108 2.162 . S
O123 C111 1.281 . S
O124 Mn108 2.297 . S
O124 C111 1.236 . S
N125 Mn109 2.282 . S
N125 C126 1.328 . S
N125 C130 1.318 . S
C126 N125 1.328 . S
C126 C127 1.457 . S
C126 H131 0.929 . S
C127 C126 1.457 . S
C127 C128 1.291 . S
C127 H140 0.931 . S
C128 C127 1.291 . S
C128 C129 1.373 . S
C128 H141 0.929 . S
C129 C128 1.373 . S
C129 C130 1.396 . S
C129 C136 1.403 . S
C130 C120 1.476 . S
C130 N125 1.318 . S
C130 C129 1.396 . S
H131 C126 0.929 . S
O132 Mn108 2.385 . S
O132 C110 1.234 . S
O133 Mn108 2.209 . S
O133 Mn109 2.215 . S
O133 C110 1.283 . S
O134 Mn108 2.094 . S
O134 C112 1.240 . S
O135 Mn109 2.117 . S
O135 C112 1.264 . S
C136 C129 1.403 . S
C136 C137 1.399 . S
C136 H142 0.929 . S
C137 C117 1.449 . S
C137 C136 1.399 . S
C137 H143 0.930 . S
H138 C118 0.931 . S
H139 C119 0.930 . S
H140 C127 0.931 . S
H141 C128 0.929 . S
H142 C136 0.929 . S
H143 C137 0.930 . S
Mn144 O149 2.095 . S
Mn144 O159 2.162 . S
Mn144 O160 2.297 . S
Mn144 O168 2.385 . S
Mn144 O169 2.209 . S
Mn144 O170 2.094 . S
Mn145 O150 2.121 . S
Mn145 N152 2.257 . S
Mn145 N161 2.282 . S
Mn145 O169 2.215 . S
Mn145 O171 2.117 . S
C146 O168 1.234 . S
C146 O169 1.283 . S
C147 O159 1.281 . S
C147 O160 1.236 . S
C148 O170 1.240 . S
C148 O171 1.264 . S
O149 Mn144 2.095 . S
O149 C158 1.250 . S
O150 Mn145 2.121 . S
O150 C158 1.258 . S
C151 N152 1.326 . S
C151 C155 1.460 . S
C151 H157 0.929 . S
N152 Mn145 2.257 . S
N152 C151 1.326 . S
N152 C156 1.362 . S
C153 C154 1.258 . S
C153 C156 1.431 . S
C153 C173 1.449 . S
C154 C153 1.258 . S
C154 C155 1.477 . S
C154 H174 0.931 . S
C155 C151 1.460 . S
C155 C154 1.477 . S
C155 H175 0.930 . S
C156 N152 1.362 . S
C156 C153 1.431 . S
C156 C166 1.476 . S
H157 C151 0.929 . S
C158 O149 1.250 . S
C158 O150 1.258 . S
O159 Mn144 2.162 . S
O159 C147 1.281 . S
O160 Mn144 2.297 . S
O160 C147 1.236 . S
N161 Mn145 2.282 . S
N161 C162 1.328 . S
N161 C166 1.318 . S
C162 N161 1.328 . S
C162 C163 1.457 . S
C162 H167 0.929 . S
C163 C162 1.457 . S
C163 C164 1.291 . S
C163 H176 0.931 . S
C164 C163 1.291 . S
C164 C165 1.373 . S
C164 H177 0.929 . S
C165 C164 1.373 . S
C165 C166 1.396 . S
C165 C172 1.403 . S
C166 C156 1.476 . S
C166 N161 1.318 . S
C166 C165 1.396 . S
H167 C162 0.929 . S
O168 Mn144 2.385 . S
O168 C146 1.234 . S
O169 Mn144 2.209 . S
O169 Mn145 2.215 . S
O169 C146 1.283 . S
O170 Mn144 2.094 . S
O170 C148 1.240 . S
O171 Mn145 2.117 . S
O171 C148 1.264 . S
C172 C165 1.403 . S
C172 C173 1.399 . S
C172 H178 0.929 . S
C173 C153 1.449 . S
C173 C172 1.399 . S
C173 H179 0.930 . S
H174 C154 0.931 . S
H175 C155 0.930 . S
H176 C163 0.931 . S
H177 C164 0.929 . S
H178 C172 0.929 . S
H179 C173 0.930 . S
Mn180 O185 2.095 . S
Mn180 O195 2.162 . S
Mn180 O196 2.297 . S
Mn180 O204 2.385 . S
Mn180 O205 2.209 . S
Mn180 O206 2.094 . S
Mn181 O186 2.121 . S
Mn181 N188 2.257 . S
Mn181 N197 2.282 . S
Mn181 O205 2.215 . S
Mn181 O207 2.117 . S
C182 O204 1.234 . S
C182 O205 1.283 . S
C183 O195 1.281 . S
C183 O196 1.236 . S
C184 O206 1.240 . S
C184 O207 1.264 . S
O185 Mn180 2.095 . S
O185 C194 1.250 . S
O186 Mn181 2.121 . S
O186 C194 1.258 . S
C187 N188 1.326 . S
C187 C191 1.460 . S
C187 H193 0.929 . S
N188 Mn181 2.257 . S
N188 C187 1.326 . S
N188 C192 1.362 . S
C189 C190 1.258 . S
C189 C192 1.431 . S
C189 C209 1.449 . S
C190 C189 1.258 . S
C190 C191 1.477 . S
C190 H210 0.931 . S
C191 C187 1.460 . S
C191 C190 1.477 . S
C191 H211 0.930 . S
C192 N188 1.362 . S
C192 C189 1.431 . S
C192 C202 1.476 . S
H193 C187 0.929 . S
C194 O185 1.250 . S
C194 O186 1.258 . S
O195 Mn180 2.162 . S
O195 C183 1.281 . S
O196 Mn180 2.297 . S
O196 C183 1.236 . S
N197 Mn181 2.282 . S
N197 C198 1.328 . S
N197 C202 1.318 . S
C198 N197 1.328 . S
C198 C199 1.457 . S
C198 H203 0.929 . S
C199 C198 1.457 . S
C199 C200 1.291 . S
C199 H212 0.931 . S
C200 C199 1.291 . S
C200 C201 1.373 . S
C200 H213 0.929 . S
C201 C200 1.373 . S
C201 C202 1.396 . S
C201 C208 1.403 . S
C202 C192 1.476 . S
C202 N197 1.318 . S
C202 C201 1.396 . S
H203 C198 0.929 . S
O204 Mn180 2.385 . S
O204 C182 1.234 . S
O205 Mn180 2.209 . S
O205 Mn181 2.215 . S
O205 C182 1.283 . S
O206 Mn180 2.094 . S
O206 C184 1.240 . S
O207 Mn181 2.117 . S
O207 C184 1.264 . S
C208 C201 1.403 . S
C208 C209 1.399 . S
C208 H214 0.929 . S
C209 C189 1.449 . S
C209 C208 1.399 . S
C209 H215 0.930 . S
H210 C190 0.931 . S
H211 C191 0.930 . S
H212 C199 0.931 . S
H213 C200 0.929 . S
H214 C208 0.929 . S
H215 C209 0.930 . S
Mn216 O221 2.095 . S
Mn216 O231 2.162 . S
Mn216 O232 2.297 . S
Mn216 O240 2.385 . S
Mn216 O241 2.209 . S
Mn216 O242 2.094 . S
Mn217 O222 2.121 . S
Mn217 N224 2.257 . S
Mn217 N233 2.282 . S
Mn217 O241 2.215 . S
Mn217 O243 2.117 . S
C218 O240 1.234 . S
C218 O241 1.283 . S
C219 O231 1.281 . S
C219 O232 1.236 . S
C220 O242 1.240 . S
C220 O243 1.264 . S
O221 Mn216 2.095 . S
O221 C230 1.250 . S
O222 Mn217 2.121 . S
O222 C230 1.258 . S
C223 N224 1.326 . S
C223 C227 1.460 . S
C223 H229 0.929 . S
N224 Mn217 2.257 . S
N224 C223 1.326 . S
N224 C228 1.362 . S
C225 C226 1.258 . S
C225 C228 1.431 . S
C225 C245 1.449 . S
C226 C225 1.258 . S
C226 C227 1.477 . S
C226 H246 0.931 . S
C227 C223 1.460 . S
C227 C226 1.477 . S
C227 H247 0.930 . S
C228 N224 1.362 . S
C228 C225 1.431 . S
C228 C238 1.476 . S
H229 C223 0.929 . S
C230 O221 1.250 . S
C230 O222 1.258 . S
O231 Mn216 2.162 . S
O231 C219 1.281 . S
O232 Mn216 2.297 . S
O232 C219 1.236 . S
N233 Mn217 2.282 . S
N233 C234 1.328 . S
N233 C238 1.318 . S
C234 N233 1.328 . S
C234 C235 1.457 . S
C234 H239 0.929 . S
C235 C234 1.457 . S
C235 C236 1.291 . S
C235 H248 0.931 . S
C236 C235 1.291 . S
C236 C237 1.373 . S
C236 H249 0.929 . S
C237 C236 1.373 . S
C237 C238 1.396 . S
C237 C244 1.403 . S
C238 C228 1.476 . S
C238 N233 1.318 . S
C238 C237 1.396 . S
H239 C234 0.929 . S
O240 Mn216 2.385 . S
O240 C218 1.234 . S
O241 Mn216 2.209 . S
O241 Mn217 2.215 . S
O241 C218 1.283 . S
O242 Mn216 2.094 . S
O242 C220 1.240 . S
O243 Mn217 2.117 . S
O243 C220 1.264 . S
C244 C237 1.403 . S
C244 C245 1.399 . S
C244 H250 0.929 . S
C245 C225 1.449 . S
C245 C244 1.399 . S
C245 H251 0.930 . S
H246 C226 0.931 . S
H247 C227 0.930 . S
H248 C235 0.931 . S
H249 C236 0.929 . S
H250 C244 0.929 . S
H251 C245 0.930 . S
Mn252 O257 2.095 . S
Mn252 O267 2.162 . S
Mn252 O268 2.297 . S
Mn252 O276 2.385 . S
Mn252 O277 2.209 . S
Mn252 O278 2.094 . S
Mn253 O258 2.121 . S
Mn253 N260 2.257 . S
Mn253 N269 2.282 . S
Mn253 O277 2.215 . S
Mn253 O279 2.117 . S
C254 O276 1.234 . S
C254 O277 1.283 . S
C255 O267 1.281 . S
C255 O268 1.236 . S
C256 O278 1.240 . S
C256 O279 1.264 . S
O257 Mn252 2.095 . S
O257 C266 1.250 . S
O258 Mn253 2.121 . S
O258 C266 1.258 . S
C259 N260 1.326 . S
C259 C263 1.460 . S
C259 H265 0.929 . S
N260 Mn253 2.257 . S
N260 C259 1.326 . S
N260 C264 1.362 . S
C261 C262 1.258 . S
C261 C264 1.431 . S
C261 C281 1.449 . S
C262 C261 1.258 . S
C262 C263 1.477 . S
C262 H282 0.931 . S
C263 C259 1.460 . S
C263 C262 1.477 . S
C263 H283 0.930 . S
C264 N260 1.362 . S
C264 C261 1.431 . S
C264 C274 1.476 . S
H265 C259 0.929 . S
C266 O257 1.250 . S
C266 O258 1.258 . S
O267 Mn252 2.162 . S
O267 C255 1.281 . S
O268 Mn252 2.297 . S
O268 C255 1.236 . S
N269 Mn253 2.282 . S
N269 C270 1.328 . S
N269 C274 1.318 . S
C270 N269 1.328 . S
C270 C271 1.457 . S
C270 H275 0.929 . S
C271 C270 1.457 . S
C271 C272 1.291 . S
C271 H284 0.931 . S
C272 C271 1.291 . S
C272 C273 1.373 . S
C272 H285 0.929 . S
C273 C272 1.373 . S
C273 C274 1.396 . S
C273 C280 1.403 . S
C274 C264 1.476 . S
C274 N269 1.318 . S
C274 C273 1.396 . S
H275 C270 0.929 . S
O276 Mn252 2.385 . S
O276 C254 1.234 . S
O277 Mn252 2.209 . S
O277 Mn253 2.215 . S
O277 C254 1.283 . S
O278 Mn252 2.094 . S
O278 C256 1.240 . S
O279 Mn253 2.117 . S
O279 C256 1.264 . S
C280 C273 1.403 . S
C280 C281 1.399 . S
C280 H286 0.929 . S
C281 C261 1.449 . S
C281 C280 1.399 . S
C281 H287 0.930 . S
H282 C262 0.931 . S
H283 C263 0.930 . S
H284 C271 0.931 . S
H285 C272 0.929 . S
H286 C280 0.929 . S
H287 C281 0.930 . S
Mn288 O293 2.095 . S
Mn288 O303 2.162 . S
Mn288 O304 2.297 . S
Mn288 O312 2.385 . S
Mn288 O313 2.209 . S
Mn288 O314 2.094 . S
Mn289 O294 2.121 . S
Mn289 N296 2.257 . S
Mn289 N305 2.282 . S
Mn289 O313 2.215 . S
Mn289 O315 2.117 . S
C290 O312 1.234 . S
C290 O313 1.283 . S
C291 O303 1.281 . S
C291 O304 1.236 . S
C292 O314 1.240 . S
C292 O315 1.264 . S
O293 Mn288 2.095 . S
O293 C302 1.250 . S
O294 Mn289 2.121 . S
O294 C302 1.258 . S
C295 N296 1.326 . S
C295 C299 1.460 . S
C295 H301 0.929 . S
N296 Mn289 2.257 . S
N296 C295 1.326 . S
N296 C300 1.362 . S
C297 C298 1.258 . S
C297 C300 1.431 . S
C297 C317 1.449 . S
C298 C297 1.258 . S
C298 C299 1.477 . S
C298 H318 0.931 . S
C299 C295 1.460 . S
C299 C298 1.477 . S
C299 H319 0.930 . S
C300 N296 1.362 . S
C300 C297 1.431 . S
C300 C310 1.476 . S
H301 C295 0.929 . S
C302 O293 1.250 . S
C302 O294 1.258 . S
O303 Mn288 2.162 . S
O303 C291 1.281 . S
O304 Mn288 2.297 . S
O304 C291 1.236 . S
N305 Mn289 2.282 . S
N305 C306 1.328 . S
N305 C310 1.318 . S
C306 N305 1.328 . S
C306 C307 1.457 . S
C306 H311 0.929 . S
C307 C306 1.457 . S
C307 C308 1.291 . S
C307 H320 0.931 . S
C308 C307 1.291 . S
C308 C309 1.373 . S
C308 H321 0.929 . S
C309 C308 1.373 . S
C309 C310 1.396 . S
C309 C316 1.403 . S
C310 C300 1.476 . S
C310 N305 1.318 . S
C310 C309 1.396 . S
H311 C306 0.929 . S
O312 Mn288 2.385 . S
O312 C290 1.234 . S
O313 Mn288 2.209 . S
O313 Mn289 2.215 . S
O313 C290 1.283 . S
O314 Mn288 2.094 . S
O314 C292 1.240 . S
O315 Mn289 2.117 . S
O315 C292 1.264 . S
C316 C309 1.403 . S
C316 C317 1.399 . S
C316 H322 0.929 . S
C317 C297 1.449 . S
C317 C316 1.399 . S
C317 H323 0.930 . S
H318 C298 0.931 . S
H319 C299 0.930 . S
H320 C307 0.931 . S
H321 C308 0.929 . S
H322 C316 0.929 . S
H323 C317 0.930 . S
Mn324 O329 2.095 . S
Mn324 O339 2.162 . S
Mn324 O340 2.297 . S
Mn324 O348 2.385 . S
Mn324 O349 2.209 . S
Mn324 O350 2.094 . S
Mn325 O330 2.121 . S
Mn325 N332 2.257 . S
Mn325 N341 2.282 . S
Mn325 O349 2.215 . S
Mn325 O351 2.117 . S
C326 O348 1.234 . S
C326 O349 1.283 . S
C327 O339 1.281 . S
C327 O340 1.236 . S
C328 O350 1.240 . S
C328 O351 1.264 . S
O329 Mn324 2.095 . S
O329 C338 1.250 . S
O330 Mn325 2.121 . S
O330 C338 1.258 . S
C331 N332 1.326 . S
C331 C335 1.460 . S
C331 H337 0.929 . S
N332 Mn325 2.257 . S
N332 C331 1.326 . S
N332 C336 1.362 . S
C333 C334 1.258 . S
C333 C336 1.431 . S
C333 C353 1.449 . S
C334 C333 1.258 . S
C334 C335 1.477 . S
C334 H354 0.931 . S
C335 C331 1.460 . S
C335 C334 1.477 . S
C335 H355 0.930 . S
C336 N332 1.362 . S
C336 C333 1.431 . S
C336 C346 1.476 . S
H337 C331 0.929 . S
C338 O329 1.250 . S
C338 O330 1.258 . S
O339 Mn324 2.162 . S
O339 C327 1.281 . S
O340 Mn324 2.297 . S
O340 C327 1.236 . S
N341 Mn325 2.282 . S
N341 C342 1.328 . S
N341 C346 1.318 . S
C342 N341 1.328 . S
C342 C343 1.457 . S
C342 H347 0.929 . S
C343 C342 1.457 . S
C343 C344 1.291 . S
C343 H356 0.931 . S
C344 C343 1.291 . S
C344 C345 1.373 . S
C344 H357 0.929 . S
C345 C344 1.373 . S
C345 C346 1.396 . S
C345 C352 1.403 . S
C346 C336 1.476 . S
C346 N341 1.318 . S
C346 C345 1.396 . S
H347 C342 0.929 . S
O348 Mn324 2.385 . S
O348 C326 1.234 . S
O349 Mn324 2.209 . S
O349 Mn325 2.215 . S
O349 C326 1.283 . S
O350 Mn324 2.094 . S
O350 C328 1.240 . S
O351 Mn325 2.117 . S
O351 C328 1.264 . S
C352 C345 1.403 . S
C352 C353 1.399 . S
C352 H358 0.929 . S
C353 C333 1.449 . S
C353 C352 1.399 . S
C353 H359 0.930 . S
H354 C334 0.931 . S
H355 C335 0.930 . S
H356 C343 0.931 . S
H357 C344 0.929 . S
H358 C352 0.929 . S
H359 C353 0.930 . S
Mn360 O365 2.095 . S
Mn360 O375 2.162 . S
Mn360 O376 2.297 . S
Mn360 O384 2.385 . S
Mn360 O385 2.209 . S
Mn360 O386 2.094 . S
Mn361 O366 2.121 . S
Mn361 N368 2.257 . S
Mn361 N377 2.282 . S
Mn361 O385 2.215 . S
Mn361 O387 2.117 . S
C362 O384 1.234 . S
C362 O385 1.283 . S
C363 O375 1.281 . S
C363 O376 1.236 . S
C364 O386 1.240 . S
C364 O387 1.264 . S
O365 Mn360 2.095 . S
O365 C374 1.250 . S
O366 Mn361 2.121 . S
O366 C374 1.258 . S
C367 N368 1.326 . S
C367 C371 1.460 . S
C367 H373 0.929 . S
N368 Mn361 2.257 . S
N368 C367 1.326 . S
N368 C372 1.362 . S
C369 C370 1.258 . S
C369 C372 1.431 . S
C369 C389 1.449 . S
C370 C369 1.258 . S
C370 C371 1.477 . S
C370 H390 0.931 . S
C371 C367 1.460 . S
C371 C370 1.477 . S
C371 H391 0.930 . S
C372 N368 1.362 . S
C372 C369 1.431 . S
C372 C382 1.476 . S
H373 C367 0.929 . S
C374 O365 1.250 . S
C374 O366 1.258 . S
O375 Mn360 2.162 . S
O375 C363 1.281 . S
O376 Mn360 2.297 . S
O376 C363 1.236 . S
N377 Mn361 2.282 . S
N377 C378 1.328 . S
N377 C382 1.318 . S
C378 N377 1.328 . S
C378 C379 1.457 . S
C378 H383 0.929 . S
C379 C378 1.457 . S
C379 C380 1.291 . S
C379 H392 0.931 . S
C380 C379 1.291 . S
C380 C381 1.373 . S
C380 H393 0.929 . S
C381 C380 1.373 . S
C381 C382 1.396 . S
C381 C388 1.403 . S
C382 C372 1.476 . S
C382 N377 1.318 . S
C382 C381 1.396 . S
H383 C378 0.929 . S
O384 Mn360 2.385 . S
O384 C362 1.234 . S
O385 Mn360 2.209 . S
O385 Mn361 2.215 . S
O385 C362 1.283 . S
O386 Mn360 2.094 . S
O386 C364 1.240 . S
O387 Mn361 2.117 . S
O387 C364 1.264 . S
C388 C381 1.403 . S
C388 C389 1.399 . S
C388 H394 0.929 . S
C389 C369 1.449 . S
C389 C388 1.399 . S
C389 H395 0.930 . S
H390 C370 0.931 . S
H391 C371 0.930 . S
H392 C379 0.931 . S
H393 C380 0.929 . S
H394 C388 0.929 . S
H395 C389 0.930 . S
Mn396 O401 2.095 . S
Mn396 O411 2.162 . S
Mn396 O412 2.297 . S
Mn396 O420 2.385 . S
Mn396 O421 2.209 . S
Mn396 O422 2.094 . S
Mn397 O402 2.121 . S
Mn397 N404 2.257 . S
Mn397 N413 2.282 . S
Mn397 O421 2.215 . S
Mn397 O423 2.117 . S
C398 O420 1.234 . S
C398 O421 1.283 . S
C399 O411 1.281 . S
C399 O412 1.236 . S
C400 O422 1.240 . S
C400 O423 1.264 . S
O401 Mn396 2.095 . S
O401 C410 1.250 . S
O402 Mn397 2.121 . S
O402 C410 1.258 . S
C403 N404 1.326 . S
C403 C407 1.460 . S
C403 H409 0.929 . S
N404 Mn397 2.257 . S
N404 C403 1.326 . S
N404 C408 1.362 . S
C405 C406 1.258 . S
C405 C408 1.431 . S
C405 C425 1.449 . S
C406 C405 1.258 . S
C406 C407 1.477 . S
C406 H426 0.931 . S
C407 C403 1.460 . S
C407 C406 1.477 . S
C407 H427 0.930 . S
C408 N404 1.362 . S
C408 C405 1.431 . S
C408 C418 1.476 . S
H409 C403 0.929 . S
C410 O401 1.250 . S
C410 O402 1.258 . S
O411 Mn396 2.162 . S
O411 C399 1.281 . S
O412 Mn396 2.297 . S
O412 C399 1.236 . S
N413 Mn397 2.282 . S
N413 C414 1.328 . S
N413 C418 1.318 . S
C414 N413 1.328 . S
C414 C415 1.457 . S
C414 H419 0.929 . S
C415 C414 1.457 . S
C415 C416 1.291 . S
C415 H428 0.931 . S
C416 C415 1.291 . S
C416 C417 1.373 . S
C416 H429 0.929 . S
C417 C416 1.373 . S
C417 C418 1.396 . S
C417 C424 1.403 . S
C418 C408 1.476 . S
C418 N413 1.318 . S
C418 C417 1.396 . S
H419 C414 0.929 . S
O420 Mn396 2.385 . S
O420 C398 1.234 . S
O421 Mn396 2.209 . S
O421 Mn397 2.215 . S
O421 C398 1.283 . S
O422 Mn396 2.094 . S
O422 C400 1.240 . S
O423 Mn397 2.117 . S
O423 C400 1.264 . S
C424 C417 1.403 . S
C424 C425 1.399 . S
C424 H430 0.929 . S
C425 C405 1.449 . S
C425 C424 1.399 . S
C425 H431 0.930 . S
H426 C406 0.931 . S
H427 C407 0.930 . S
H428 C415 0.931 . S
H429 C416 0.929 . S
H430 C424 0.929 . S
H431 C425 0.930 . S
Mn432 O437 2.095 . S
Mn432 O447 2.162 . S
Mn432 O448 2.297 . S
Mn432 O456 2.385 . S
Mn432 O457 2.209 . S
Mn432 O458 2.094 . S
Mn433 O438 2.121 . S
Mn433 N440 2.257 . S
Mn433 N449 2.282 . S
Mn433 O457 2.215 . S
Mn433 O459 2.117 . S
C434 O456 1.234 . S
C434 O457 1.283 . S
C435 O447 1.281 . S
C435 O448 1.236 . S
C436 O458 1.240 . S
C436 O459 1.264 . S
O437 Mn432 2.095 . S
O437 C446 1.250 . S
O438 Mn433 2.121 . S
O438 C446 1.258 . S
C439 N440 1.326 . S
C439 C443 1.460 . S
C439 H445 0.929 . S
N440 Mn433 2.257 . S
N440 C439 1.326 . S
N440 C444 1.362 . S
C441 C442 1.258 . S
C441 C444 1.431 . S
C441 C461 1.449 . S
C442 C441 1.258 . S
C442 C443 1.477 . S
C442 H462 0.931 . S
C443 C439 1.460 . S
C443 C442 1.477 . S
C443 H463 0.930 . S
C444 N440 1.362 . S
C444 C441 1.431 . S
C444 C454 1.476 . S
H445 C439 0.929 . S
C446 O437 1.250 . S
C446 O438 1.258 . S
O447 Mn432 2.162 . S
O447 C435 1.281 . S
O448 Mn432 2.297 . S
O448 C435 1.236 . S
N449 Mn433 2.282 . S
N449 C450 1.328 . S
N449 C454 1.318 . S
C450 N449 1.328 . S
C450 C451 1.457 . S
C450 H455 0.929 . S
C451 C450 1.457 . S
C451 C452 1.291 . S
C451 H464 0.931 . S
C452 C451 1.291 . S
C452 C453 1.373 . S
C452 H465 0.929 . S
C453 C452 1.373 . S
C453 C454 1.396 . S
C453 C460 1.403 . S
C454 C444 1.476 . S
C454 N449 1.318 . S
C454 C453 1.396 . S
H455 C450 0.929 . S
O456 Mn432 2.385 . S
O456 C434 1.234 . S
O457 Mn432 2.209 . S
O457 Mn433 2.215 . S
O457 C434 1.283 . S
O458 Mn432 2.094 . S
O458 C436 1.240 . S
O459 Mn433 2.117 . S
O459 C436 1.264 . S
C460 C453 1.403 . S
C460 C461 1.399 . S
C460 H466 0.929 . S
C461 C441 1.449 . S
C461 C460 1.399 . S
C461 H467 0.930 . S
H462 C442 0.931 . S
H463 C443 0.930 . S
H464 C451 0.931 . S
H465 C452 0.929 . S
H466 C460 0.929 . S
H467 C461 0.930 . S
Mn468 O473 2.095 . S
Mn468 O483 2.162 . S
Mn468 O484 2.297 . S
Mn468 O492 2.385 . S
Mn468 O493 2.209 . S
Mn468 O494 2.094 . S
Mn469 O474 2.121 . S
Mn469 N476 2.257 . S
Mn469 N485 2.282 . S
Mn469 O493 2.215 . S
Mn469 O495 2.117 . S
C470 O492 1.234 . S
C470 O493 1.283 . S
C471 O483 1.281 . S
C471 O484 1.236 . S
C472 O494 1.240 . S
C472 O495 1.264 . S
O473 Mn468 2.095 . S
O473 C482 1.250 . S
O474 Mn469 2.121 . S
O474 C482 1.258 . S
C475 N476 1.326 . S
C475 C479 1.460 . S
C475 H481 0.929 . S
N476 Mn469 2.257 . S
N476 C475 1.326 . S
N476 C480 1.362 . S
C477 C478 1.258 . S
C477 C480 1.431 . S
C477 C497 1.449 . S
C478 C477 1.258 . S
C478 C479 1.477 . S
C478 H498 0.931 . S
C479 C475 1.460 . S
C479 C478 1.477 . S
C479 H499 0.930 . S
C480 N476 1.362 . S
C480 C477 1.431 . S
C480 C490 1.476 . S
H481 C475 0.929 . S
C482 O473 1.250 . S
C482 O474 1.258 . S
O483 Mn468 2.162 . S
O483 C471 1.281 . S
O484 Mn468 2.297 . S
O484 C471 1.236 . S
N485 Mn469 2.282 . S
N485 C486 1.328 . S
N485 C490 1.318 . S
C486 N485 1.328 . S
C486 C487 1.457 . S
C486 H491 0.929 . S
C487 C486 1.457 . S
C487 C488 1.291 . S
C487 H500 0.931 . S
C488 C487 1.291 . S
C488 C489 1.373 . S
C488 H501 0.929 . S
C489 C488 1.373 . S
C489 C490 1.396 . S
C489 C496 1.403 . S
C490 C480 1.476 . S
C490 N485 1.318 . S
C490 C489 1.396 . S
H491 C486 0.929 . S
O492 Mn468 2.385 . S
O492 C470 1.234 . S
O493 Mn468 2.209 . S
O493 Mn469 2.215 . S
O493 C470 1.283 . S
O494 Mn468 2.094 . S
O494 C472 1.240 . S
O495 Mn469 2.117 . S
O495 C472 1.264 . S
C496 C489 1.403 . S
C496 C497 1.399 . S
C496 H502 0.929 . S
C497 C477 1.449 . S
C497 C496 1.399 . S
C497 H503 0.930 . S
H498 C478 0.931 . S
H499 C479 0.930 . S
H500 C487 0.931 . S
H501 C488 0.929 . S
H502 C496 0.929 . S
H503 C497 0.930 . S
Mn504 O509 2.095 . S
Mn504 O519 2.162 . S
Mn504 O520 2.297 . S
Mn504 O528 2.385 . S
Mn504 O529 2.209 . S
Mn504 O530 2.094 . S
Mn505 O510 2.121 . S
Mn505 N512 2.257 . S
Mn505 N521 2.282 . S
Mn505 O529 2.215 . S
Mn505 O531 2.117 . S
C506 O528 1.234 . S
C506 O529 1.283 . S
C507 O519 1.281 . S
C507 O520 1.236 . S
C508 O530 1.240 . S
C508 O531 1.264 . S
O509 Mn504 2.095 . S
O509 C518 1.250 . S
O510 Mn505 2.121 . S
O510 C518 1.258 . S
C511 N512 1.326 . S
C511 C515 1.460 . S
C511 H517 0.929 . S
N512 Mn505 2.257 . S
N512 C511 1.326 . S
N512 C516 1.362 . S
C513 C514 1.258 . S
C513 C516 1.431 . S
C513 C533 1.449 . S
C514 C513 1.258 . S
C514 C515 1.477 . S
C514 H534 0.931 . S
C515 C511 1.460 . S
C515 C514 1.477 . S
C515 H535 0.930 . S
C516 N512 1.362 . S
C516 C513 1.431 . S
C516 C526 1.476 . S
H517 C511 0.929 . S
C518 O509 1.250 . S
C518 O510 1.258 . S
O519 Mn504 2.162 . S
O519 C507 1.281 . S
O520 Mn504 2.297 . S
O520 C507 1.236 . S
N521 Mn505 2.282 . S
N521 C522 1.328 . S
N521 C526 1.318 . S
C522 N521 1.328 . S
C522 C523 1.457 . S
C522 H527 0.929 . S
C523 C522 1.457 . S
C523 C524 1.291 . S
C523 H536 0.931 . S
C524 C523 1.291 . S
C524 C525 1.373 . S
C524 H537 0.929 . S
C525 C524 1.373 . S
C525 C526 1.396 . S
C525 C532 1.403 . S
C526 C516 1.476 . S
C526 N521 1.318 . S
C526 C525 1.396 . S
H527 C522 0.929 . S
O528 Mn504 2.385 . S
O528 C506 1.234 . S
O529 Mn504 2.209 . S
O529 Mn505 2.215 . S
O529 C506 1.283 . S
O530 Mn504 2.094 . S
O530 C508 1.240 . S
O531 Mn505 2.117 . S
O531 C508 1.264 . S
C532 C525 1.403 . S
C532 C533 1.399 . S
C532 H538 0.929 . S
C533 C513 1.449 . S
C533 C532 1.399 . S
C533 H539 0.930 . S
H534 C514 0.931 . S
H535 C515 0.930 . S
H536 C523 0.931 . S
H537 C524 0.929 . S
H538 C532 0.929 . S
H539 C533 0.930 . S
Mn540 O545 2.095 . S
Mn540 O555 2.162 . S
Mn540 O556 2.297 . S
Mn540 O564 2.385 . S
Mn540 O565 2.209 . S
Mn540 O566 2.094 . S
Mn541 O546 2.121 . S
Mn541 N548 2.257 . S
Mn541 N557 2.282 . S
Mn541 O565 2.215 . S
Mn541 O567 2.117 . S
C542 O564 1.234 . S
C542 O565 1.283 . S
C543 O555 1.281 . S
C543 O556 1.236 . S
C544 O566 1.240 . S
C544 O567 1.264 . S
O545 Mn540 2.095 . S
O545 C554 1.250 . S
O546 Mn541 2.121 . S
O546 C554 1.258 . S
C547 N548 1.326 . S
C547 C551 1.460 . S
C547 H553 0.929 . S
N548 Mn541 2.257 . S
N548 C547 1.326 . S
N548 C552 1.362 . S
C549 C550 1.258 . S
C549 C552 1.431 . S
C549 C569 1.449 . S
C550 C549 1.258 . S
C550 C551 1.477 . S
C550 H570 0.931 . S
C551 C547 1.460 . S
C551 C550 1.477 . S
C551 H571 0.930 . S
C552 N548 1.362 . S
C552 C549 1.431 . S
C552 C562 1.476 . S
H553 C547 0.929 . S
C554 O545 1.250 . S
C554 O546 1.258 . S
O555 Mn540 2.162 . S
O555 C543 1.281 . S
O556 Mn540 2.297 . S
O556 C543 1.236 . S
N557 Mn541 2.282 . S
N557 C558 1.328 . S
N557 C562 1.318 . S
C558 N557 1.328 . S
C558 C559 1.457 . S
C558 H563 0.929 . S
C559 C558 1.457 . S
C559 C560 1.291 . S
C559 H572 0.931 . S
C560 C559 1.291 . S
C560 C561 1.373 . S
C560 H573 0.929 . S
C561 C560 1.373 . S
C561 C562 1.396 . S
C561 C568 1.403 . S
C562 C552 1.476 . S
C562 N557 1.318 . S
C562 C561 1.396 . S
H563 C558 0.929 . S
O564 Mn540 2.385 . S
O564 C542 1.234 . S
O565 Mn540 2.209 . S
O565 Mn541 2.215 . S
O565 C542 1.283 . S
O566 Mn540 2.094 . S
O566 C544 1.240 . S
O567 Mn541 2.117 . S
O567 C544 1.264 . S
C568 C561 1.403 . S
C568 C569 1.399 . S
C568 H574 0.929 . S
C569 C549 1.449 . S
C569 C568 1.399 . S
C569 H575 0.930 . S
H570 C550 0.931 . S
H571 C551 0.930 . S
H572 C559 0.931 . S
H573 C560 0.929 . S
H574 C568 0.929 . S
H575 C569 0.930 . S
H576 C584 0.929 . S
H577 C586 0.930 . S
H578 C588 0.930 . S
H579 C591 0.929 . S
H580 C594 0.930 . S
H581 C596 0.960 . S
H582 C596 0.960 . S
H583 C596 0.960 . S
C584 H576 0.929 . S
C584 C585 1.377 . S
C584 C586 1.384 . S
C585 C584 1.377 . S
C585 C591 1.390 . S
C586 H577 0.930 . S
C586 C584 1.384 . S
C586 C587 1.372 . S
C587 C586 1.372 . S
C587 C588 1.400 . S
C587 C592 1.490 . S
C588 H578 0.930 . S
C588 C587 1.400 . S
C588 C591 1.386 . S
H589 C605 0.930 . S
H590 C606 0.931 . S
C591 H579 0.929 . S
C591 C585 1.390 . S
C591 C588 1.386 . S
C592 C587 1.490 . S
C592 C594 1.395 . S
C592 C595 1.403 1_554 S
H593 C599 0.930 . S
C594 H580 0.930 . S
C594 C592 1.395 . S
C594 C597 1.403 . S
C595 C592 1.403 1_556 S
C595 C596 1.524 . S
C595 C599 1.400 . S
C596 H581 0.960 . S
C596 H582 0.960 . S
C596 H583 0.960 . S
C596 C595 1.524 . S
C597 C594 1.403 . S
C597 C598 1.392 1_554 S
C597 C601 1.495 . S
C598 C597 1.392 1_556 S
C598 C599 1.385 . S
C598 C600 1.478 . S
C599 H593 0.930 . S
C599 C595 1.400 . S
C599 C598 1.385 . S
C600 C598 1.478 . S
C600 C602 1.381 . S
C600 C606 1.383 . S
C601 C597 1.495 . S
C601 H607 0.959 . S
C601 H608 0.961 . S
C601 H609 0.960 . S
C602 C600 1.381 . S
C602 C603 1.394 . S
C602 H610 0.930 1_556 S
C603 C602 1.394 . S
C603 C604 1.383 . S
C603 H611 0.929 . S
C604 C603 1.383 . S
C604 C605 1.377 . S
C605 H589 0.930 . S
C605 C604 1.377 . S
C605 C606 1.379 . S
C606 H590 0.931 . S
C606 C600 1.383 . S
C606 C605 1.379 . S
H607 C601 0.959 . S
H608 C601 0.961 . S
H609 C601 0.960 . S
H610 C602 0.930 1_554 S
H611 C603 0.929 . S
H612 C620 0.929 . S
H613 C622 0.930 . S
H614 C624 0.930 . S
H615 C627 0.929 . S
H616 C630 0.930 . S
H617 C632 0.960 . S
H618 C632 0.960 . S
H619 C632 0.960 . S
C620 H612 0.929 . S
C620 C621 1.377 . S
C620 C622 1.384 . S
C621 C620 1.377 . S
C621 C627 1.390 . S
C622 H613 0.930 . S
C622 C620 1.384 . S
C622 C623 1.372 . S
C623 C622 1.372 . S
C623 C624 1.400 . S
C623 C628 1.490 . S
C624 H614 0.930 . S
C624 C623 1.400 . S
C624 C627 1.386 . S
H625 C641 0.930 . S
H626 C642 0.931 . S
C627 H615 0.929 . S
C627 C621 1.390 . S
C627 C624 1.386 . S
C628 C623 1.490 . S
C628 C630 1.395 . S
C628 C631 1.403 . S
H629 C635 0.930 . S
C630 H616 0.930 . S
C630 C628 1.395 . S
C630 C633 1.403 . S
C631 C628 1.403 . S
C631 C632 1.524 . S
C631 C635 1.400 . S
C632 H617 0.960 . S
C632 H618 0.960 . S
C632 H619 0.960 . S
C632 C631 1.524 . S
C633 C630 1.403 . S
C633 C634 1.392 . S
C633 C637 1.495 . S
C634 C633 1.392 . S
C634 C635 1.385 . S
C634 C636 1.478 . S
C635 H629 0.930 . S
C635 C631 1.400 . S
C635 C634 1.385 . S
C636 C634 1.478 . S
C636 C638 1.381 . S
C636 C642 1.383 . S
C637 C633 1.495 . S
C637 H643 0.959 . S
C637 H644 0.961 . S
C637 H645 0.960 . S
C638 C636 1.381 . S
C638 C639 1.394 . S
C638 H646 0.930 . S
C639 C638 1.394 . S
C639 C640 1.383 . S
C639 H647 0.929 . S
C640 C639 1.383 . S
C640 C641 1.377 . S
C641 H625 0.930 . S
C641 C640 1.377 . S
C641 C642 1.379 . S
C642 H626 0.931 . S
C642 C636 1.383 . S
C642 C641 1.379 . S
H643 C637 0.959 . S
H644 C637 0.961 . S
H645 C637 0.960 . S
H646 C638 0.930 . S
H647 C639 0.929 . S
H648 C656 0.929 . S
H649 C658 0.930 . S
H650 C660 0.930 . S
H651 C663 0.929 . S
H652 C666 0.930 . S
H653 C668 0.960 . S
H654 C668 0.960 . S
H655 C668 0.960 . S
C656 H648 0.929 . S
C656 C657 1.377 . S
C656 C658 1.384 . S
C657 C656 1.377 . S
C657 C663 1.390 . S
C658 H649 0.930 . S
C658 C656 1.384 . S
C658 C659 1.372 . S
C659 C658 1.372 . S
C659 C660 1.400 . S
C659 C664 1.490 . S
C660 H650 0.930 . S
C660 C659 1.400 . S
C660 C663 1.386 . S
H661 C677 0.930 . S
H662 C678 0.931 . S
C663 H651 0.929 . S
C663 C657 1.390 . S
C663 C660 1.386 . S
C664 C659 1.490 . S
C664 C666 1.395 . S
C664 C667 1.403 . S
H665 C671 0.933 . S
C666 H652 0.930 . S
C666 C664 1.395 . S
C666 C669 1.387 1_556 S
C667 C664 1.403 . S
C667 C668 1.524 . S
C667 C671 1.395 1_556 S
C668 H653 0.960 . S
C668 H654 0.960 . S
C668 H655 0.960 . S
C668 C667 1.524 . S
C669 C666 1.387 1_554 S
C669 C670 1.401 . S
C669 C673 1.504 . S
C670 C669 1.401 . S
C670 C671 1.387 . S
C670 C672 1.478 . S
C671 H665 0.933 . S
C671 C667 1.395 1_554 S
C671 C670 1.387 . S
C672 C670 1.478 . S
C672 C674 1.381 . S
C672 C678 1.383 . S
C673 C669 1.504 . S
C673 H679 0.959 . S
C673 H680 0.961 . S
C673 H681 0.972 . S
C674 C672 1.381 . S
C674 C675 1.394 . S
C674 H682 0.930 1_554 S
C675 C674 1.394 . S
C675 C676 1.383 . S
C675 H683 0.929 . S
C676 C675 1.383 . S
C676 C677 1.377 . S
C677 H661 0.930 . S
C677 C676 1.377 . S
C677 C678 1.379 . S
C678 H662 0.931 . S
C678 C672 1.383 . S
C678 C677 1.379 . S
H679 C673 0.959 . S
H680 C673 0.961 . S
H681 C673 0.972 . S
H682 C674 0.930 1_556 S
H683 C675 0.929 . S
H684 C692 0.929 . S
H685 C694 0.930 . S
H686 C696 0.930 . S
H687 C699 0.929 . S
H688 C702 0.930 . S
H689 C704 0.960 . S
H690 C704 0.960 . S
H691 C704 0.960 . S
C692 H684 0.929 . S
C692 C693 1.377 . S
C692 C694 1.384 . S
C693 C692 1.377 . S
C693 C699 1.390 . S
C694 H685 0.930 . S
C694 C692 1.384 . S
C694 C695 1.372 . S
C695 C694 1.372 . S
C695 C696 1.400 . S
C695 C700 1.490 . S
C696 H686 0.930 . S
C696 C695 1.400 . S
C696 C699 1.386 . S
H697 C713 0.930 . S
H698 C714 0.931 . S
C699 H687 0.929 . S
C699 C693 1.390 . S
C699 C696 1.386 . S
C700 C695 1.490 . S
C700 C702 1.395 . S
C700 C703 1.403 . S
H701 C707 0.930 . S
C702 H688 0.930 . S
C702 C700 1.395 . S
C702 C705 1.403 . S
C703 C700 1.403 . S
C703 C704 1.524 . S
C703 C707 1.400 . S
C704 H689 0.960 . S
C704 H690 0.960 . S
C704 H691 0.960 . S
C704 C703 1.524 . S
C705 C702 1.403 . S
C705 C706 1.392 . S
C705 C709 1.495 . S
C706 C705 1.392 . S
C706 C707 1.385 . S
C706 C708 1.478 . S
C707 H701 0.930 . S
C707 C703 1.400 . S
C707 C706 1.385 . S
C708 C706 1.478 . S
C708 C710 1.381 . S
C708 C714 1.383 . S
C709 C705 1.495 . S
C709 H715 0.959 . S
C709 H716 0.961 . S
C709 H717 0.960 . S
C710 C708 1.381 . S
C710 C711 1.394 . S
C710 H718 0.930 . S
C711 C710 1.394 . S
C711 C712 1.383 . S
C711 H719 0.929 . S
C712 C711 1.383 . S
C712 C713 1.377 . S
C713 H697 0.930 . S
C713 C712 1.377 . S
C713 C714 1.379 . S
C714 H698 0.931 . S
C714 C708 1.383 . S
C714 C713 1.379 . S
H715 C709 0.959 . S
H716 C709 0.961 . S
H717 C709 0.960 . S
H718 C710 0.930 . S
H719 C711 0.929 . S
H720 C728 0.929 . S
H721 C730 0.930 . S
H722 C732 0.930 . S
H723 C735 0.929 . S
H724 C738 0.930 . S
H725 C740 0.960 . S
H726 C740 0.960 . S
H727 C740 0.960 . S
C728 H720 0.929 . S
C728 C729 1.377 . S
C728 C730 1.384 . S
C729 C728 1.377 . S
C729 C735 1.390 . S
C730 H721 0.930 . S
C730 C728 1.384 . S
C730 C731 1.372 . S
C731 C730 1.372 . S
C731 C732 1.400 . S
C731 C736 1.490 . S
C732 H722 0.930 . S
C732 C731 1.400 . S
C732 C735 1.386 . S
H733 C749 0.930 . S
H734 C750 0.931 . S
C735 H723 0.929 . S
C735 C729 1.390 . S
C735 C732 1.386 . S
C736 C731 1.490 . S
C736 C738 1.395 1_554 S
C736 C739 1.403 . S
H737 C743 0.930 . S
C738 H724 0.930 . S
C738 C736 1.395 1_556 S
C738 C741 1.403 . S
C739 C736 1.403 . S
C739 C740 1.524 . S
C739 C743 1.400 . S
C740 H725 0.960 . S
C740 H726 0.960 . S
C740 H727 0.960 . S
C740 C739 1.524 . S
C741 C738 1.403 . S
C741 C742 1.392 . S
C741 C745 1.495 . S
C742 C741 1.392 . S
C742 C743 1.385 1_556 S
C742 C744 1.478 . S
C743 H737 0.930 . S
C743 C739 1.400 . S
C743 C742 1.385 1_554 S
C744 C742 1.478 . S
C744 C746 1.381 . S
C744 C750 1.383 . S
C745 C741 1.495 . S
C745 H751 0.959 . S
C745 H752 0.961 . S
C745 H753 0.960 . S
C746 C744 1.381 . S
C746 C747 1.394 . S
C746 H754 0.930 . S
C747 C746 1.394 . S
C747 C748 1.383 . S
C747 H755 0.929 . S
C748 C747 1.383 . S
C748 C749 1.377 . S
C749 H733 0.930 . S
C749 C748 1.377 . S
C749 C750 1.379 . S
C750 H734 0.931 . S
C750 C744 1.383 . S
C750 C749 1.379 . S
H751 C745 0.959 . S
H752 C745 0.961 . S
H753 C745 0.960 . S
H754 C746 0.930 . S
H755 C747 0.929 . S
H756 C764 0.929 . S
H757 C766 0.930 . S
H758 C768 0.930 . S
H759 C771 0.929 . S
H760 C774 0.930 . S
H761 C776 0.960 . S
H762 C776 0.960 . S
H763 C776 0.960 . S
C764 H756 0.929 . S
C764 C765 1.377 . S
C764 C766 1.384 . S
C765 C764 1.377 . S
C765 C771 1.390 . S
C766 H757 0.930 . S
C766 C764 1.384 . S
C766 C767 1.372 . S
C767 C766 1.372 . S
C767 C768 1.400 . S
C767 C772 1.490 . S
C768 H758 0.930 . S
C768 C767 1.400 . S
C768 C771 1.386 . S
H769 C785 0.930 . S
H770 C786 0.931 . S
C771 H759 0.929 . S
C771 C765 1.390 . S
C771 C768 1.386 . S
C772 C767 1.490 . S
C772 C774 1.395 . S
C772 C775 1.403 . S
H773 C779 0.930 . S
C774 H760 0.930 . S
C774 C772 1.395 . S
C774 C777 1.403 . S
C775 C772 1.403 . S
C775 C776 1.524 . S
C775 C779 1.400 . S
C776 H761 0.960 . S
C776 H762 0.960 . S
C776 H763 0.960 . S
C776 C775 1.524 . S
C777 C774 1.403 . S
C777 C778 1.392 . S
C777 C781 1.495 . S
C778 C777 1.392 . S
C778 C779 1.385 . S
C778 C780 1.478 . S
C779 H773 0.930 . S
C779 C775 1.400 . S
C779 C778 1.385 . S
C780 C778 1.478 . S
C780 C782 1.381 . S
C780 C786 1.383 . S
C781 C777 1.495 . S
C781 H787 0.959 . S
C781 H788 0.961 . S
C781 H789 0.960 . S
C782 C780 1.381 . S
C782 C783 1.394 . S
C782 H790 0.930 . S
C783 C782 1.394 . S
C783 C784 1.383 . S
C783 H791 0.929 . S
C784 C783 1.383 . S
C784 C785 1.377 . S
C785 H769 0.930 . S
C785 C784 1.377 . S
C785 C786 1.379 . S
C786 H770 0.931 . S
C786 C780 1.383 . S
C786 C785 1.379 . S
H787 C781 0.959 . S
H788 C781 0.961 . S
H789 C781 0.960 . S
H790 C782 0.930 . S
H791 C783 0.929 . S
H792 C800 0.929 . S
H793 C802 0.930 . S
H794 C804 0.930 . S
H795 C807 0.929 . S
H796 C810 0.930 . S
H797 C812 0.960 . S
H798 C812 0.960 . S
H799 C812 0.960 . S
C800 H792 0.929 . S
C800 C801 1.377 . S
C800 C802 1.384 . S
C801 C800 1.377 . S
C801 C807 1.390 . S
C802 H793 0.930 . S
C802 C800 1.384 . S
C802 C803 1.372 . S
C803 C802 1.372 . S
C803 C804 1.400 . S
C803 C808 1.490 . S
C804 H794 0.930 . S
C804 C803 1.400 . S
C804 C807 1.386 . S
H805 C821 0.930 . S
H806 C822 0.931 1_556 S
C807 H795 0.929 . S
C807 C801 1.390 . S
C807 C804 1.386 . S
C808 C803 1.490 . S
C808 C810 1.395 . S
C808 C811 1.403 . S
H809 C815 0.939 . S
C810 H796 0.930 . S
C810 C808 1.395 . S
C810 C813 1.403 1_556 S
C811 C808 1.403 . S
C811 C812 1.524 . S
C811 C815 1.380 1_556 S
C812 H797 0.960 . S
C812 H798 0.960 . S
C812 H799 0.960 . S
C812 C811 1.524 . S
C813 C810 1.403 1_554 S
C813 C814 1.392 . S
C813 C817 1.495 . S
C814 C813 1.392 . S
C814 C815 1.399 . S
C814 C816 1.478 . S
C815 H809 0.939 . S
C815 C811 1.380 1_554 S
C815 C814 1.399 . S
C816 C814 1.478 . S
C816 C818 1.381 . S
C816 C822 1.383 . S
C817 C813 1.495 . S
C817 H823 0.959 . S
C817 H824 0.961 . S
C817 H825 0.960 . S
C818 C816 1.381 . S
C818 C819 1.394 . S
C818 H826 0.930 . S
C819 C818 1.394 . S
C819 C820 1.383 . S
C819 H827 0.929 . S
C820 C819 1.383 . S
C820 C821 1.377 . S
C821 H805 0.930 . S
C821 C820 1.377 . S
C821 C822 1.379 . S
C822 H806 0.931 1_554 S
C822 C816 1.383 . S
C822 C821 1.379 . S
H823 C817 0.959 . S
H824 C817 0.961 . S
H825 C817 0.960 . S
H826 C818 0.930 . S
H827 C819 0.929 . S
H828 C836 0.929 . S
H829 C838 0.930 . S
H830 C840 0.930 . S
H831 C843 0.929 . S
H832 C846 0.930 . S
H833 C848 0.960 . S
H834 C848 0.960 . S
H835 C848 0.960 . S
C836 H828 0.929 . S
C836 C837 1.377 . S
C836 C838 1.384 . S
C837 C836 1.377 . S
C837 C843 1.390 . S
C838 H829 0.930 . S
C838 C836 1.384 . S
C838 C839 1.372 . S
C839 C838 1.372 . S
C839 C840 1.400 . S
C839 C844 1.490 . S
C840 H830 0.930 . S
C840 C839 1.400 . S
C840 C843 1.386 . S
H841 C857 0.930 . S
H842 C858 0.931 . S
C843 H831 0.929 . S
C843 C837 1.390 . S
C843 C840 1.386 . S
C844 C839 1.490 . S
C844 C846 1.395 . S
C844 C847 1.403 . S
H845 C851 0.930 . S
C846 H832 0.930 . S
C846 C844 1.395 . S
C846 C849 1.403 . S
C847 C844 1.403 . S
C847 C848 1.524 . S
C847 C851 1.400 . S
C848 H833 0.960 . S
C848 H834 0.960 . S
C848 H835 0.960 . S
C848 C847 1.524 . S
C849 C846 1.403 . S
C849 C850 1.392 . S
C849 C853 1.495 . S
C850 C849 1.392 . S
C850 C851 1.385 . S
C850 C852 1.478 . S
C851 H845 0.930 . S
C851 C847 1.400 . S
C851 C850 1.385 . S
C852 C850 1.478 . S
C852 C854 1.381 . S
C852 C858 1.383 . S
C853 C849 1.495 . S
C853 H859 0.959 . S
C853 H860 0.961 . S
C853 H861 0.960 . S
C854 C852 1.381 . S
C854 C855 1.394 . S
C854 H862 0.930 . S
C855 C854 1.394 . S
C855 C856 1.383 . S
C855 H863 0.929 . S
C856 C855 1.383 . S
C856 C857 1.377 . S
C857 H841 0.930 . S
C857 C856 1.377 . S
C857 C858 1.379 . S
C858 H842 0.931 . S
C858 C852 1.383 . S
C858 C857 1.379 . S
H859 C853 0.959 . S
H860 C853 0.961 . S
H861 C853 0.960 . S
H862 C854 0.930 . S
H863 C855 0.929 . S
H864 C872 0.929 . S
H865 C874 0.930 . S
H866 C876 0.930 . S
H867 C879 0.929 . S
H868 C882 0.930 . S
H869 C884 0.960 . S
H870 C884 0.960 . S
H871 C884 0.960 . S
C872 H864 0.929 . S
C872 C873 1.377 . S
C872 C874 1.384 . S
C873 C872 1.377 . S
C873 C879 1.390 . S
C874 H865 0.930 . S
C874 C872 1.384 . S
C874 C875 1.372 . S
C875 C874 1.372 . S
C875 C876 1.400 . S
C875 C880 1.490 . S
C876 H866 0.930 . S
C876 C875 1.400 . S
C876 C879 1.386 . S
H877 C893 0.930 . S
H878 C894 0.931 . S
C879 H867 0.929 . S
C879 C873 1.390 . S
C879 C876 1.386 . S
C880 C875 1.490 . S
C880 C882 1.395 1_545 S
C880 C883 1.403 1_554 S
H881 C887 0.930 . S
C882 H868 0.930 . S
C882 C880 1.395 1_565 S
C882 C885 1.403 . S
C883 C880 1.403 1_556 S
C883 C884 1.524 . S
C883 C887 1.400 1_545 S
C884 H869 0.960 . S
C884 H870 0.960 . S
C884 H871 0.960 . S
C884 C883 1.524 . S
C885 C882 1.403 . S
C885 C886 1.392 1_554 S
C885 C889 1.495 . S
C886 C885 1.392 1_556 S
C886 C887 1.385 . S
C886 C888 1.478 . S
C887 H881 0.930 . S
C887 C883 1.400 1_565 S
C887 C886 1.385 . S
C888 C886 1.478 . S
C888 C890 1.381 . S
C888 C894 1.383 . S
C889 C885 1.495 . S
C889 H895 0.959 . S
C889 H896 0.961 . S
C889 H897 0.960 . S
C890 C888 1.381 . S
C890 C891 1.394 . S
C890 H898 0.930 . S
C891 C890 1.394 . S
C891 C892 1.383 . S
C891 H899 0.929 . S
C892 C891 1.383 . S
C892 C893 1.377 . S
C893 H877 0.930 . S
C893 C892 1.377 . S
C893 C894 1.379 . S
C894 H878 0.931 . S
C894 C888 1.383 . S
C894 C893 1.379 . S
H895 C889 0.959 . S
H896 C889 0.961 . S
H897 C889 0.960 . S
H898 C890 0.930 . S
H899 C891 0.929 . S
H900 C908 0.929 . S
H901 C910 0.930 . S
H902 C912 0.930 . S
H903 C915 0.929 . S
H904 C918 0.932 . S
H905 C920 0.960 . S
H906 C920 0.960 . S
H907 C920 0.960 . S
C908 H900 0.929 . S
C908 C909 1.377 . S
C908 C910 1.384 . S
C909 C908 1.377 . S
C909 C915 1.390 . S
C910 H901 0.930 . S
C910 C908 1.384 . S
C910 C911 1.372 . S
C911 C910 1.372 . S
C911 C912 1.400 . S
C911 C916 1.490 . S
C912 H902 0.930 . S
C912 C911 1.400 . S
C912 C915 1.386 . S
H913 C929 0.930 . S
H914 C930 0.931 . S
C915 H903 0.929 . S
C915 C909 1.390 . S
C915 C912 1.386 . S
C916 C911 1.490 . S
C916 C918 1.395 1_565 S
C916 C919 1.403 . S
H917 C923 0.930 . S
C918 H904 0.932 . S
C918 C916 1.395 1_545 S
C918 C921 1.403 . S
C919 C916 1.403 . S
C919 C920 1.524 . S
C919 C923 1.400 1_565 S
C920 H905 0.960 . S
C920 H906 0.960 . S
C920 H907 0.960 . S
C920 C919 1.524 . S
C921 C918 1.403 . S
C921 C922 1.392 . S
C921 C925 1.495 . S
C922 C921 1.392 . S
C922 C923 1.385 . S
C922 C924 1.478 . S
C923 H917 0.930 . S
C923 C919 1.400 1_545 S
C923 C922 1.385 . S
C924 C922 1.478 . S
C924 C926 1.381 . S
C924 C930 1.383 . S
C925 C921 1.495 . S
C925 H931 0.959 . S
C925 H932 0.961 . S
C925 H933 0.960 . S
C926 C924 1.381 . S
C926 C927 1.394 . S
C926 H934 0.930 . S
C927 C926 1.394 . S
C927 C928 1.383 . S
C927 H935 0.929 . S
C928 C927 1.383 . S
C928 C929 1.377 . S
C929 H913 0.930 . S
C929 C928 1.377 . S
C929 C930 1.379 . S
C930 H914 0.931 . S
C930 C924 1.383 . S
C930 C929 1.379 . S
H931 C925 0.959 . S
H932 C925 0.961 . S
H933 C925 0.960 . S
H934 C926 0.930 . S
H935 C927 0.929 . S
H936 C944 0.929 . S
H937 C946 0.930 1_554 S
H938 C948 0.930 . S
H939 C951 0.929 . S
H940 C954 0.930 . S
H941 C956 0.960 1_545 S
H942 C956 0.960 . S
H943 C956 0.960 . S
C944 H936 0.929 . S
C944 C945 1.377 . S
C944 C946 1.384 . S
C945 C944 1.377 . S
C945 C951 1.390 . S
C946 H937 0.930 1_556 S
C946 C944 1.384 . S
C946 C947 1.372 . S
C947 C946 1.372 . S
C947 C948 1.400 . S
C947 C952 1.490 . S
C948 H938 0.930 . S
C948 C947 1.400 . S
C948 C951 1.386 . S
H949 C965 0.930 . S
H950 C966 0.931 1_556 S
C951 H939 0.929 . S
C951 C945 1.390 . S
C951 C948 1.386 . S
C952 C947 1.490 . S
C952 C954 1.395 1_556 S
C952 C955 1.403 . S
H953 C959 0.930 . S
C954 H940 0.930 . S
C954 C952 1.395 1_554 S
C954 C957 1.403 1_565 S
C955 C952 1.403 . S
C955 C956 1.524 . S
C955 C959 1.400 1_565 S
C956 H941 0.960 1_565 S
C956 H942 0.960 . S
C956 H943 0.960 . S
C956 C955 1.524 . S
C957 C954 1.403 1_545 S
C957 C958 1.392 . S
C957 C961 1.495 . S
C958 C957 1.392 . S
C958 C959 1.385 1_554 S
C958 C960 1.478 . S
C959 H953 0.930 . S
C959 C955 1.400 1_545 S
C959 C958 1.385 1_556 S
C960 C958 1.478 . S
C960 C962 1.381 . S
C960 C966 1.383 . S
C961 C957 1.495 . S
C961 H967 0.959 1_545 S
C961 H968 0.961 . S
C961 H969 0.960 . S
C962 C960 1.381 . S
C962 C963 1.394 . S
C962 H970 0.930 . S
C963 C962 1.394 . S
C963 C964 1.383 . S
C963 H971 0.929 . S
C964 C963 1.383 . S
C964 C965 1.377 . S
C965 H949 0.930 . S
C965 C964 1.377 . S
C965 C966 1.379 . S
C966 H950 0.931 1_554 S
C966 C960 1.383 . S
C966 C965 1.379 . S
H967 C961 0.959 1_565 S
H968 C961 0.961 . S
H969 C961 0.960 . S
H970 C962 0.930 . S
H971 C963 0.929 . S
H972 C980 0.929 . S
H973 C982 0.930 . S
H974 C984 0.930 . S
H975 C987 0.929 . S
H976 C990 0.930 . S
H977 C992 0.960 1_565 S
H978 C992 0.960 . S
H979 C992 0.960 . S
C980 H972 0.929 . S
C980 C981 1.377 . S
C980 C982 1.384 . S
C981 C980 1.377 . S
C981 C987 1.390 . S
C982 H973 0.930 . S
C982 C980 1.384 . S
C982 C983 1.372 . S
C983 C982 1.372 . S
C983 C984 1.400 . S
C983 C988 1.490 . S
C984 H974 0.930 . S
C984 C983 1.400 . S
C984 C987 1.386 . S
H985 C1001 0.930 . S
H986 C1002 0.931 . S
C987 H975 0.929 . S
C987 C981 1.390 . S
C987 C984 1.386 . S
C988 C983 1.490 . S
C988 C990 1.395 . S
C988 C991 1.403 . S
H989 C995 0.930 . S
C990 H976 0.930 . S
C990 C988 1.395 . S
C990 C993 1.403 1_545 S
C991 C988 1.403 . S
C991 C992 1.524 . S
C991 C995 1.400 1_545 S
C992 H977 0.960 1_545 S
C992 H978 0.960 . S
C992 H979 0.960 . S
C992 C991 1.524 . S
C993 C990 1.403 1_565 S
C993 C994 1.392 . S
C993 C997 1.495 . S
C994 C993 1.392 . S
C994 C995 1.385 . S
C994 C996 1.478 . S
C995 H989 0.930 . S
C995 C991 1.400 1_565 S
C995 C994 1.385 . S
C996 C994 1.478 . S
C996 C998 1.381 . S
C996 C1002 1.383 . S
C997 C993 1.495 . S
C997 H1003 0.959 1_565 S
C997 H1004 0.961 . S
C997 H1005 0.960 . S
C998 C996 1.381 . S
C998 C999 1.394 . S
C998 H1006 0.930 . S
C999 C998 1.394 . S
C999 C1000 1.383 . S
C999 H1007 0.929 . S
C1000 C999 1.383 . S
C1000 C1001 1.377 . S
C1001 H985 0.930 . S
C1001 C1000 1.377 . S
C1001 C1002 1.379 . S
C1002 H986 0.931 . S
C1002 C996 1.383 . S
C1002 C1001 1.379 . S
H1003 C997 0.959 1_545 S
H1004 C997 0.961 . S
H1005 C997 0.960 . S
H1006 C998 0.930 . S
H1007 C999 0.929 . S
H1008 C1016 0.929 . S
H1009 C1018 0.930 . S
H1010 C1020 0.930 . S
H1011 C1023 0.929 . S
H1012 C1026 0.930 1_556 S
H1013 C1028 0.960 . S
H1014 C1028 0.960 . S
H1015 C1028 0.960 . S
C1016 H1008 0.929 . S
C1016 C1017 1.377 . S
C1016 C1018 1.384 . S
C1017 C1016 1.377 . S
C1017 C1023 1.390 . S
C1018 H1009 0.930 . S
C1018 C1016 1.384 . S
C1018 C1019 1.372 . S
C1019 C1018 1.372 . S
C1019 C1020 1.400 . S
C1019 C1024 1.490 . S
C1020 H1010 0.930 . S
C1020 C1019 1.400 . S
C1020 C1023 1.386 . S
H1021 C1037 0.930 . S
H1022 C1038 0.931 . S
C1023 H1011 0.929 . S
C1023 C1017 1.390 . S
C1023 C1020 1.386 . S
C1024 C1019 1.490 . S
C1024 C1026 1.394 1_556 S
C1024 C1027 1.403 . S
H1025 C1031 0.932 . S
C1026 H1012 0.930 1_554 S
C1026 C1024 1.394 1_554 S
C1026 C1029 1.404 . S
C1027 C1024 1.403 . S
C1027 C1028 1.524 . S
C1027 C1031 1.376 1_556 S
C1028 H1013 0.960 . S
C1028 H1014 0.960 . S
C1028 H1015 0.960 . S
C1028 C1027 1.524 . S
C1029 C1026 1.404 . S
C1029 C1030 1.392 . S
C1029 C1033 1.495 . S
C1030 C1029 1.392 . S
C1030 C1031 1.409 . S
C1030 C1032 1.478 . S
C1031 H1025 0.932 . S
C1031 C1027 1.376 1_554 S
C1031 C1030 1.409 . S
C1032 C1030 1.478 . S
C1032 C1034 1.381 . S
C1032 C1038 1.383 . S
C1033 C1029 1.495 . S
C1033 H1039 0.959 . S
C1033 H1040 0.961 . S
C1033 H1041 0.960 . S
C1034 C1032 1.381 . S
C1034 C1035 1.394 . S
C1034 H1042 0.930 . S
C1035 C1034 1.394 . S
C1035 C1036 1.383 . S
C1035 H1043 0.929 . S
C1036 C1035 1.383 . S
C1036 C1037 1.377 . S
C1037 H1021 0.930 . S
C1037 C1036 1.377 . S
C1037 C1038 1.379 . S
C1038 H1022 0.931 . S
C1038 C1032 1.383 . S
C1038 C1037 1.379 . S
H1039 C1033 0.959 . S
H1040 C1033 0.961 . S
H1041 C1033 0.960 . S
H1042 C1034 0.930 . S
H1043 C1035 0.929 . S
H1044 C1052 0.929 . S
H1045 C1054 0.930 . S
H1046 C1056 0.930 . S
H1047 C1059 0.929 . S
H1048 C1062 0.930 . S
H1049 C1064 0.960 . S
H1050 C1064 0.960 . S
H1051 C1064 0.960 . S
C1052 H1044 0.929 . S
C1052 C1053 1.377 . S
C1052 C1054 1.384 . S
C1053 C1052 1.377 . S
C1053 C1059 1.390 . S
C1054 H1045 0.930 . S
C1054 C1052 1.384 . S
C1054 C1055 1.372 . S
C1055 C1054 1.372 . S
C1055 C1056 1.400 . S
C1055 C1060 1.490 . S
C1056 H1046 0.930 . S
C1056 C1055 1.400 . S
C1056 C1059 1.386 . S
H1057 C1073 0.930 . S
H1058 C1074 0.931 . S
C1059 H1047 0.929 . S
C1059 C1053 1.390 . S
C1059 C1056 1.386 . S
C1060 C1055 1.490 . S
C1060 C1062 1.395 . S
C1060 C1063 1.403 . S
H1061 C1067 0.930 . S
C1062 H1048 0.930 . S
C1062 C1060 1.395 . S
C1062 C1065 1.403 . S
C1063 C1060 1.403 . S
C1063 C1064 1.524 . S
C1063 C1067 1.400 . S
C1064 H1049 0.960 . S
C1064 H1050 0.960 . S
C1064 H1051 0.960 . S
C1064 C1063 1.524 . S
C1065 C1062 1.403 . S
C1065 C1066 1.392 . S
C1065 C1069 1.495 . S
C1066 C1065 1.392 . S
C1066 C1067 1.385 . S
C1066 C1068 1.478 . S
C1067 H1061 0.930 . S
C1067 C1063 1.400 . S
C1067 C1066 1.385 . S
C1068 C1066 1.478 . S
C1068 C1070 1.381 . S
C1068 C1074 1.383 . S
C1069 C1065 1.495 . S
C1069 H1075 0.959 . S
C1069 H1076 0.961 . S
C1069 H1077 0.960 . S
C1070 C1068 1.381 . S
C1070 C1071 1.394 . S
C1070 H1078 0.930 . S
C1071 C1070 1.394 . S
C1071 C1072 1.383 . S
C1071 H1079 0.929 . S
C1072 C1071 1.383 . S
C1072 C1073 1.377 . S
C1073 H1057 0.930 . S
C1073 C1072 1.377 . S
C1073 C1074 1.379 . S
C1074 H1058 0.931 . S
C1074 C1068 1.383 . S
C1074 C1073 1.379 . S
H1075 C1069 0.959 . S
H1076 C1069 0.961 . S
H1077 C1069 0.960 . S
H1078 C1070 0.930 . S
H1079 C1071 0.929 . S
H1080 C1088 0.929 . S
H1081 C1090 0.930 . S
H1082 C1092 0.930 . S
H1083 C1095 0.929 . S
H1084 C1098 0.930 . S
H1085 C1100 0.960 . S
H1086 C1100 0.960 . S
H1087 C1100 0.960 . S
C1088 H1080 0.929 . S
C1088 C1089 1.377 . S
C1088 C1090 1.384 . S
C1089 C1088 1.377 . S
C1089 C1095 1.390 . S
C1090 H1081 0.930 . S
C1090 C1088 1.384 . S
C1090 C1091 1.372 . S
C1091 C1090 1.372 . S
C1091 C1092 1.400 . S
C1091 C1096 1.490 . S
C1092 H1082 0.930 . S
C1092 C1091 1.400 . S
C1092 C1095 1.386 . S
H1093 C1109 0.930 . S
H1094 C1110 0.931 . S
C1095 H1083 0.929 . S
C1095 C1089 1.390 . S
C1095 C1092 1.386 . S
C1096 C1091 1.490 . S
C1096 C1098 1.395 . S
C1096 C1099 1.403 1_554 S
H1097 C1103 0.930 . S
C1098 H1084 0.930 . S
C1098 C1096 1.395 . S
C1098 C1101 1.403 . S
C1099 C1096 1.403 1_556 S
C1099 C1100 1.524 . S
C1099 C1103 1.400 . S
C1100 H1085 0.960 . S
C1100 H1086 0.960 . S
C1100 H1087 0.960 . S
C1100 C1099 1.524 . S
C1101 C1098 1.403 . S
C1101 C1102 1.392 1_554 S
C1101 C1105 1.495 . S
C1102 C1101 1.392 1_556 S
C1102 C1103 1.385 . S
C1102 C1104 1.478 . S
C1103 H1097 0.930 . S
C1103 C1099 1.400 . S
C1103 C1102 1.385 . S
C1104 C1102 1.478 . S
C1104 C1106 1.381 . S
C1104 C1110 1.383 . S
C1105 C1101 1.495 . S
C1105 H1111 0.959 . S
C1105 H1112 0.961 . S
C1105 H1113 0.960 . S
C1106 C1104 1.381 . S
C1106 C1107 1.394 . S
C1106 H1114 0.930 . S
C1107 C1106 1.394 . S
C1107 C1108 1.383 . S
C1107 H1115 0.929 . S
C1108 C1107 1.383 . S
C1108 C1109 1.377 . S
C1109 H1093 0.930 . S
C1109 C1108 1.377 . S
C1109 C1110 1.379 . S
C1110 H1094 0.931 . S
C1110 C1104 1.383 . S
C1110 C1109 1.379 . S
H1111 C1105 0.959 . S
H1112 C1105 0.961 . S
H1113 C1105 0.960 . S
H1114 C1106 0.930 . S
H1115 C1107 0.929 . S
H1116 C1124 0.929 . S
H1117 C1126 0.930 . S
H1118 C1128 0.930 . S
H1119 C1131 0.929 . S
H1120 C1134 0.930 . S
H1121 C1136 0.960 . S
H1122 C1136 0.960 . S
H1123 C1136 0.960 . S
C1124 H1116 0.929 . S
C1124 C1125 1.377 . S
C1124 C1126 1.384 . S
C1125 C1124 1.377 . S
C1125 C1131 1.390 . S
C1126 H1117 0.930 . S
C1126 C1124 1.384 . S
C1126 C1127 1.372 . S
C1127 C1126 1.372 . S
C1127 C1128 1.400 . S
C1127 C1132 1.490 . S
C1128 H1118 0.930 . S
C1128 C1127 1.400 . S
C1128 C1131 1.386 . S
H1129 C1145 0.930 . S
H1130 C1146 0.931 . S
C1131 H1119 0.929 . S
C1131 C1125 1.390 . S
C1131 C1128 1.386 . S
C1132 C1127 1.490 . S
C1132 C1134 1.395 . S
C1132 C1135 1.403 . S
H1133 C1139 0.930 . S
C1134 H1120 0.930 . S
C1134 C1132 1.395 . S
C1134 C1137 1.403 . S
C1135 C1132 1.403 . S
C1135 C1136 1.524 . S
C1135 C1139 1.400 . S
C1136 H1121 0.960 . S
C1136 H1122 0.960 . S
C1136 H1123 0.960 . S
C1136 C1135 1.524 . S
C1137 C1134 1.403 . S
C1137 C1138 1.392 . S
C1137 C1141 1.495 . S
C1138 C1137 1.392 . S
C1138 C1139 1.385 . S
C1138 C1140 1.478 . S
C1139 H1133 0.930 . S
C1139 C1135 1.400 . S
C1139 C1138 1.385 . S
C1140 C1138 1.478 . S
C1140 C1142 1.381 . S
C1140 C1146 1.383 . S
C1141 C1137 1.495 . S
C1141 H1147 0.959 . S
C1141 H1148 0.961 . S
C1141 H1149 0.960 . S
C1142 C1140 1.381 . S
C1142 C1143 1.394 . S
C1142 H1150 0.930 . S
C1143 C1142 1.394 . S
C1143 C1144 1.383 . S
C1143 H1151 0.929 . S
C1144 C1143 1.383 . S
C1144 C1145 1.377 . S
C1145 H1129 0.930 . S
C1145 C1144 1.377 . S
C1145 C1146 1.379 . S
C1146 H1130 0.931 . S
C1146 C1140 1.383 . S
C1146 C1145 1.379 . S
H1147 C1141 0.959 . S
H1148 C1141 0.961 . S
H1149 C1141 0.960 . S
H1150 C1142 0.930 . S
H1151 C1143 0.929 . S
H1152 C1160 0.929 . S
H1153 C1162 0.930 . S
H1154 C1164 0.930 . S
H1155 C1167 0.929 . S
H1156 C1170 0.930 . S
H1157 C1172 0.960 . S
H1158 C1172 0.960 . S
H1159 C1172 0.960 . S
C1160 H1152 0.929 . S
C1160 C1161 1.377 . S
C1160 C1162 1.384 . S
C1161 C1160 1.377 . S
C1161 C1167 1.390 . S
C1162 H1153 0.930 . S
C1162 C1160 1.384 . S
C1162 C1163 1.372 . S
C1163 C1162 1.372 . S
C1163 C1164 1.400 . S
C1163 C1168 1.490 . S
C1164 H1154 0.930 . S
C1164 C1163 1.400 . S
C1164 C1167 1.386 . S
H1165 C1181 0.930 . S
H1166 C1182 0.931 . S
C1167 H1155 0.929 . S
C1167 C1161 1.390 . S
C1167 C1164 1.386 . S
C1168 C1163 1.490 . S
C1168 C1170 1.395 . S
C1168 C1171 1.403 . S
H1169 C1175 0.930 . S
C1170 H1156 0.930 . S
C1170 C1168 1.395 . S
C1170 C1173 1.403 . S
C1171 C1168 1.403 . S
C1171 C1172 1.524 . S
C1171 C1175 1.400 . S
C1172 H1157 0.960 . S
C1172 H1158 0.960 . S
C1172 H1159 0.960 . S
C1172 C1171 1.524 . S
C1173 C1170 1.403 . S
C1173 C1174 1.392 . S
C1173 C1177 1.495 . S
C1174 C1173 1.392 . S
C1174 C1175 1.385 . S
C1174 C1176 1.478 . S
C1175 H1169 0.930 . S
C1175 C1171 1.400 . S
C1175 C1174 1.385 . S
C1176 C1174 1.478 . S
C1176 C1178 1.381 . S
C1176 C1182 1.383 . S
C1177 C1173 1.495 . S
C1177 H1183 0.959 . S
C1177 H1184 0.961 . S
C1177 H1185 0.960 . S
C1178 C1176 1.381 . S
C1178 C1179 1.394 . S
C1178 H1186 0.930 . S
C1179 C1178 1.394 . S
C1179 C1180 1.383 . S
C1179 H1187 0.929 . S
C1180 C1179 1.383 . S
C1180 C1181 1.377 . S
C1181 H1165 0.930 . S
C1181 C1180 1.377 . S
C1181 C1182 1.379 . S
C1182 H1166 0.931 . S
C1182 C1176 1.383 . S
C1182 C1181 1.379 . S
H1183 C1177 0.959 . S
H1184 C1177 0.961 . S
H1185 C1177 0.960 . S
H1186 C1178 0.930 . S
H1187 C1179 0.929 . S
H1188 C1196 0.929 . S
H1189 C1198 0.930 . S
H1190 C1200 0.930 . S
H1191 C1203 0.929 . S
H1192 C1206 0.930 . S
H1193 C1208 0.960 . S
H1194 C1208 0.960 . S
H1195 C1208 0.960 . S
C1196 H1188 0.929 . S
C1196 C1197 1.377 . S
C1196 C1198 1.384 . S
C1197 C1196 1.377 . S
C1197 C1203 1.390 . S
C1198 H1189 0.930 . S
C1198 C1196 1.384 . S
C1198 C1199 1.372 . S
C1199 C1198 1.372 . S
C1199 C1200 1.400 . S
C1199 C1204 1.490 . S
C1200 H1190 0.930 . S
C1200 C1199 1.400 . S
C1200 C1203 1.386 . S
H1201 C1217 0.930 . S
H1202 C1218 0.931 . S
C1203 H1191 0.929 . S
C1203 C1197 1.390 . S
C1203 C1200 1.386 . S
C1204 C1199 1.490 . S
C1204 C1206 1.395 . S
C1204 C1207 1.403 . S
H1205 C1211 0.948 . S
C1206 H1192 0.930 . S
C1206 C1204 1.395 . S
C1206 C1209 1.403 . S
C1207 C1204 1.403 . S
C1207 C1208 1.524 . S
C1207 C1211 1.370 1_655 S
C1208 H1193 0.960 . S
C1208 H1194 0.960 . S
C1208 H1195 0.960 . S
C1208 C1207 1.524 . S
C1209 C1206 1.403 . S
C1209 C1210 1.392 1_655 S
C1209 C1213 1.495 1_655 S
C1210 C1209 1.392 1_455 S
C1210 C1211 1.399 . S
C1210 C1212 1.478 . S
C1211 H1205 0.948 . S
C1211 C1207 1.370 1_455 S
C1211 C1210 1.399 . S
C1212 C1210 1.478 . S
C1212 C1214 1.381 . S
C1212 C1218 1.383 . S
C1213 C1209 1.495 1_455 S
C1213 H1219 0.959 1_455 S
C1213 H1220 0.961 . S
C1213 H1221 0.960 . S
C1214 C1212 1.381 . S
C1214 C1215 1.394 . S
C1214 H1222 0.930 . S
C1215 C1214 1.394 . S
C1215 C1216 1.383 . S
C1215 H1223 0.929 . S
C1216 C1215 1.383 . S
C1216 C1217 1.377 . S
C1217 H1201 0.930 . S
C1217 C1216 1.377 . S
C1217 C1218 1.379 . S
C1218 H1202 0.931 . S
C1218 C1212 1.383 . S
C1218 C1217 1.379 . S
H1219 C1213 0.959 1_655 S
H1220 C1213 0.961 . S
H1221 C1213 0.960 . S
H1222 C1214 0.930 . S
H1223 C1215 0.929 . S
H1224 C1232 0.929 . S
H1225 C1234 0.930 . S
H1226 C1236 0.930 . S
H1227 C1239 0.929 . S
H1228 C1242 0.930 . S
H1229 C1244 0.960 . S
H1230 C1244 0.960 . S
H1231 C1244 0.960 . S
C1232 H1224 0.929 . S
C1232 C1233 1.377 . S
C1232 C1234 1.384 . S
C1233 C1232 1.377 . S
C1233 C1239 1.390 . S
C1234 H1225 0.930 . S
C1234 C1232 1.384 . S
C1234 C1235 1.372 . S
C1235 C1234 1.372 . S
C1235 C1236 1.400 . S
C1235 C1240 1.490 . S
C1236 H1226 0.930 . S
C1236 C1235 1.400 . S
C1236 C1239 1.386 . S
H1237 C1253 0.930 . S
H1238 C1254 0.931 . S
C1239 H1227 0.929 . S
C1239 C1233 1.390 . S
C1239 C1236 1.386 . S
C1240 C1235 1.490 . S
C1240 C1242 1.395 . S
C1240 C1243 1.403 . S
H1241 C1247 0.930 . S
C1242 H1228 0.930 . S
C1242 C1240 1.395 . S
C1242 C1245 1.403 . S
C1243 C1240 1.403 . S
C1243 C1244 1.524 . S
C1243 C1247 1.400 . S
C1244 H1229 0.960 . S
C1244 H1230 0.960 . S
C1244 H1231 0.960 . S
C1244 C1243 1.524 . S
C1245 C1242 1.403 . S
C1245 C1246 1.392 . S
C1245 C1249 1.495 . S
C1246 C1245 1.392 . S
C1246 C1247 1.385 . S
C1246 C1248 1.478 . S
C1247 H1241 0.930 . S
C1247 C1243 1.400 . S
C1247 C1246 1.385 . S
C1248 C1246 1.478 . S
C1248 C1250 1.381 . S
C1248 C1254 1.383 . S
C1249 C1245 1.495 . S
C1249 H1255 0.959 . S
C1249 H1256 0.961 . S
C1249 H1257 0.960 . S
C1250 C1248 1.381 . S
C1250 C1251 1.394 . S
C1250 H1258 0.930 . S
C1251 C1250 1.394 . S
C1251 C1252 1.383 . S
C1251 H1259 0.929 . S
C1252 C1251 1.383 . S
C1252 C1253 1.377 . S
C1253 H1237 0.930 . S
C1253 C1252 1.377 . S
C1253 C1254 1.379 . S
C1254 H1238 0.931 . S
C1254 C1248 1.383 . S
C1254 C1253 1.379 . S
H1255 C1249 0.959 . S
H1256 C1249 0.961 . S
H1257 C1249 0.960 . S
H1258 C1250 0.930 . S
H1259 C1251 0.929 . S
H1260 C1268 0.929 . S
H1261 C1270 0.930 . S
H1262 C1272 0.930 . S
H1263 C1275 0.929 . S
H1264 C1278 0.935 . S
H1265 C1280 0.960 1_655 S
H1266 C1280 0.960 . S
H1267 C1280 0.960 . S
C1268 H1260 0.929 . S
C1268 C1269 1.377 . S
C1268 C1270 1.384 . S
C1269 C1268 1.377 . S
C1269 C1275 1.390 . S
C1270 H1261 0.930 . S
C1270 C1268 1.384 . S
C1270 C1271 1.372 . S
C1271 C1270 1.372 . S
C1271 C1272 1.400 . S
C1271 C1276 1.490 . S
C1272 H1262 0.930 . S
C1272 C1271 1.400 . S
C1272 C1275 1.386 . S
H1273 C1289 0.930 . S
H1274 C1290 0.931 . S
C1275 H1263 0.929 . S
C1275 C1269 1.390 . S
C1275 C1272 1.386 . S
C1276 C1271 1.490 . S
C1276 C1278 1.398 . S
C1276 C1279 1.403 1_455 S
H1277 C1283 0.930 . S
C1278 H1264 0.935 . S
C1278 C1276 1.398 . S
C1278 C1281 1.395 1_455 S
C1279 C1276 1.403 1_655 S
C1279 C1280 1.524 1_655 S
C1279 C1283 1.400 . S
C1280 H1265 0.960 1_455 S
C1280 H1266 0.960 . S
C1280 H1267 0.960 . S
C1280 C1279 1.524 1_455 S
C1281 C1278 1.395 1_655 S
C1281 C1282 1.392 . S
C1281 C1285 1.495 . S
C1282 C1281 1.392 . S
C1282 C1283 1.385 . S
C1282 C1284 1.478 . S
C1283 H1277 0.930 . S
C1283 C1279 1.400 . S
C1283 C1282 1.385 . S
C1284 C1282 1.478 . S
C1284 C1286 1.381 . S
C1284 C1290 1.383 . S
C1285 C1281 1.495 . S
C1285 H1291 0.959 . S
C1285 H1292 0.961 . S
C1285 H1293 0.960 . S
C1286 C1284 1.381 . S
C1286 C1287 1.394 . S
C1286 H1294 0.930 . S
C1287 C1286 1.394 . S
C1287 C1288 1.383 . S
C1287 H1295 0.929 . S
C1288 C1287 1.383 . S
C1288 C1289 1.377 . S
C1289 H1273 0.930 . S
C1289 C1288 1.377 . S
C1289 C1290 1.379 . S
C1290 H1274 0.931 . S
C1290 C1284 1.383 . S
C1290 C1289 1.379 . S
H1291 C1285 0.959 . S
H1292 C1285 0.961 . S
H1293 C1285 0.960 . S
H1294 C1286 0.930 . S
H1295 C1287 0.929 . S
H1296 C1304 0.929 . S
H1297 C1306 0.930 . S
H1298 C1308 0.930 . S
H1299 C1311 0.929 . S
H1300 C1314 0.930 . S
H1301 C1316 0.960 . S
H1302 C1316 0.960 . S
H1303 C1316 0.960 . S
C1304 H1296 0.929 . S
C1304 C1305 1.377 . S
C1304 C1306 1.384 . S
C1305 C1304 1.377 . S
C1305 C1311 1.390 . S
C1306 H1297 0.930 . S
C1306 C1304 1.384 . S
C1306 C1307 1.372 . S
C1307 C1306 1.372 . S
C1307 C1308 1.400 . S
C1307 C1312 1.490 . S
C1308 H1298 0.930 . S
C1308 C1307 1.400 . S
C1308 C1311 1.386 . S
H1309 C1325 0.930 . S
H1310 C1326 0.931 . S
C1311 H1299 0.929 . S
C1311 C1305 1.390 . S
C1311 C1308 1.386 . S
C1312 C1307 1.490 . S
C1312 C1314 1.395 . S
C1312 C1315 1.403 . S
H1313 C1319 0.928 1_655 S
C1314 H1300 0.930 . S
C1314 C1312 1.395 . S
C1314 C1317 1.403 . S
C1315 C1312 1.403 . S
C1315 C1316 1.524 . S
C1315 C1319 1.404 . S
C1316 H1301 0.960 . S
C1316 H1302 0.960 . S
C1316 H1303 0.960 . S
C1316 C1315 1.524 . S
C1317 C1314 1.403 . S
C1317 C1318 1.392 1_455 S
C1317 C1321 1.495 1_455 S
C1318 C1317 1.392 1_655 S
C1318 C1319 1.383 1_655 S
C1318 C1320 1.478 . S
C1319 H1313 0.928 1_455 S
C1319 C1315 1.404 . S
C1319 C1318 1.383 1_455 S
C1320 C1318 1.478 . S
C1320 C1322 1.381 . S
C1320 C1326 1.383 . S
C1321 C1317 1.495 1_655 S
C1321 H1327 0.959 1_655 S
C1321 H1328 0.961 . S
C1321 H1329 0.960 . S
C1322 C1320 1.381 . S
C1322 C1323 1.394 . S
C1322 H1330 0.930 . S
C1323 C1322 1.394 . S
C1323 C1324 1.383 . S
C1323 H1331 0.929 . S
C1324 C1323 1.383 . S
C1324 C1325 1.377 . S
C1325 H1309 0.930 . S
C1325 C1324 1.377 . S
C1325 C1326 1.379 . S
C1326 H1310 0.931 . S
C1326 C1320 1.383 . S
C1326 C1325 1.379 . S
H1327 C1321 0.959 1_455 S
H1328 C1321 0.961 . S
H1329 C1321 0.960 . S
H1330 C1322 0.930 . S
H1331 C1323 0.929 . S
H1332 C1340 0.929 . S
H1333 C1342 0.930 . S
H1334 C1344 0.930 . S
H1335 C1347 0.929 . S
H1336 C1350 0.930 . S
H1337 C1352 0.960 . S
H1338 C1352 0.960 . S
H1339 C1352 0.960 . S
C1340 H1332 0.929 . S
C1340 C1341 1.377 . S
C1340 C1342 1.384 . S
C1341 C1340 1.377 . S
C1341 C1347 1.390 . S
C1342 H1333 0.930 . S
C1342 C1340 1.384 . S
C1342 C1343 1.372 . S
C1343 C1342 1.372 . S
C1343 C1344 1.400 . S
C1343 C1348 1.490 . S
C1344 H1334 0.930 . S
C1344 C1343 1.400 . S
C1344 C1347 1.386 . S
H1345 C1361 0.930 . S
H1346 C1362 0.931 . S
C1347 H1335 0.929 . S
C1347 C1341 1.390 . S
C1347 C1344 1.386 . S
C1348 C1343 1.490 . S
C1348 C1350 1.395 . S
C1348 C1351 1.403 . S
H1349 C1355 0.930 . S
C1350 H1336 0.930 . S
C1350 C1348 1.395 . S
C1350 C1353 1.403 . S
C1351 C1348 1.403 . S
C1351 C1352 1.524 . S
C1351 C1355 1.400 . S
C1352 H1337 0.960 . S
C1352 H1338 0.960 . S
C1352 H1339 0.960 . S
C1352 C1351 1.524 . S
C1353 C1350 1.403 . S
C1353 C1354 1.392 . S
C1353 C1357 1.495 . S
C1354 C1353 1.392 . S
C1354 C1355 1.385 . S
C1354 C1356 1.478 . S
C1355 H1349 0.930 . S
C1355 C1351 1.400 . S
C1355 C1354 1.385 . S
C1356 C1354 1.478 . S
C1356 C1358 1.381 . S
C1356 C1362 1.383 . S
C1357 C1353 1.495 . S
C1357 H1363 0.959 . S
C1357 H1364 0.961 . S
C1357 H1365 0.960 . S
C1358 C1356 1.381 . S
C1358 C1359 1.394 . S
C1358 H1366 0.930 . S
C1359 C1358 1.394 . S
C1359 C1360 1.383 . S
C1359 H1367 0.929 . S
C1360 C1359 1.383 . S
C1360 C1361 1.377 . S
C1361 H1345 0.930 . S
C1361 C1360 1.377 . S
C1361 C1362 1.379 . S
C1362 H1346 0.931 . S
C1362 C1356 1.383 . S
C1362 C1361 1.379 . S
H1363 C1357 0.959 . S
H1364 C1357 0.961 . S
H1365 C1357 0.960 . S
H1366 C1358 0.930 . S
H1367 C1359 0.929 . S
H1368 C1376 0.929 . S
H1369 C1378 0.930 . S
H1370 C1380 0.930 . S
H1371 C1383 0.929 . S
H1372 C1386 0.930 . S
H1373 C1388 0.960 . S
H1374 C1388 0.960 . S
H1375 C1388 0.960 . S
C1376 H1368 0.929 . S
C1376 C1377 1.377 . S
C1376 C1378 1.384 . S
C1377 C1376 1.377 . S
C1377 C1383 1.390 . S
C1378 H1369 0.930 . S
C1378 C1376 1.384 . S
C1378 C1379 1.372 . S
C1379 C1378 1.372 . S
C1379 C1380 1.400 . S
C1379 C1384 1.490 . S
C1380 H1370 0.930 . S
C1380 C1379 1.400 . S
C1380 C1383 1.386 . S
H1381 C1397 0.930 . S
H1382 C1398 0.931 . S
C1383 H1371 0.929 . S
C1383 C1377 1.390 . S
C1383 C1380 1.386 . S
C1384 C1379 1.490 . S
C1384 C1386 1.395 . S
C1384 C1387 1.403 . S
H1385 C1391 0.947 . S
C1386 H1372 0.930 . S
C1386 C1384 1.395 . S
C1386 C1389 1.403 . S
C1387 C1384 1.403 . S
C1387 C1388 1.524 . S
C1387 C1391 1.372 1_455 S
C1388 H1373 0.960 . S
C1388 H1374 0.960 . S
C1388 H1375 0.960 . S
C1388 C1387 1.524 . S
C1389 C1386 1.403 . S
C1389 C1390 1.392 1_455 S
C1389 C1393 1.495 1_455 S
C1390 C1389 1.392 1_655 S
C1390 C1391 1.398 . S
C1390 C1392 1.478 . S
C1391 H1385 0.947 . S
C1391 C1387 1.372 1_655 S
C1391 C1390 1.398 . S
C1392 C1390 1.478 . S
C1392 C1394 1.381 . S
C1392 C1398 1.383 . S
C1393 C1389 1.495 1_655 S
C1393 H1399 0.959 1_655 S
C1393 H1400 0.961 . S
C1393 H1401 0.960 . S
C1394 C1392 1.381 . S
C1394 C1395 1.394 . S
C1394 H1402 0.930 . S
C1395 C1394 1.394 . S
C1395 C1396 1.383 . S
C1395 H1403 0.929 . S
C1396 C1395 1.383 . S
C1396 C1397 1.377 . S
C1397 H1381 0.930 . S
C1397 C1396 1.377 . S
C1397 C1398 1.379 . S
C1398 H1382 0.931 . S
C1398 C1392 1.383 . S
C1398 C1397 1.379 . S
H1399 C1393 0.959 1_455 S
H1400 C1393 0.961 . S
H1401 C1393 0.960 . S
H1402 C1394 0.930 . S
H1403 C1395 0.929 . S
H1404 C1412 0.929 . S
H1405 C1414 0.930 . S
H1406 C1416 0.930 . S
H1407 C1419 0.929 . S
H1408 C1422 0.930 . S
H1409 C1424 0.960 . S
H1410 C1424 0.960 . S
H1411 C1424 0.960 . S
C1412 H1404 0.929 . S
C1412 C1413 1.377 . S
C1412 C1414 1.384 . S
C1413 C1412 1.377 . S
C1413 C1419 1.390 . S
C1414 H1405 0.930 . S
C1414 C1412 1.384 . S
C1414 C1415 1.372 . S
C1415 C1414 1.372 . S
C1415 C1416 1.400 . S
C1415 C1420 1.490 . S
C1416 H1406 0.930 . S
C1416 C1415 1.400 . S
C1416 C1419 1.386 . S
H1417 C1433 0.930 . S
H1418 C1434 0.931 . S
C1419 H1407 0.929 . S
C1419 C1413 1.390 . S
C1419 C1416 1.386 . S
C1420 C1415 1.490 . S
C1420 C1422 1.395 . S
C1420 C1423 1.403 . S
H1421 C1427 0.930 . S
C1422 H1408 0.930 . S
C1422 C1420 1.395 . S
C1422 C1425 1.403 . S
C1423 C1420 1.403 . S
C1423 C1424 1.524 . S
C1423 C1427 1.400 . S
C1424 H1409 0.960 . S
C1424 H1410 0.960 . S
C1424 H1411 0.960 . S
C1424 C1423 1.524 . S
C1425 C1422 1.403 . S
C1425 C1426 1.392 . S
C1425 C1429 1.495 . S
C1426 C1425 1.392 . S
C1426 C1427 1.385 . S
C1426 C1428 1.478 . S
C1427 H1421 0.930 . S
C1427 C1423 1.400 . S
C1427 C1426 1.385 . S
C1428 C1426 1.478 . S
C1428 C1430 1.381 . S
C1428 C1434 1.383 . S
C1429 C1425 1.495 . S
C1429 H1435 0.959 . S
C1429 H1436 0.961 . S
C1429 H1437 0.960 . S
C1430 C1428 1.381 . S
C1430 C1431 1.394 . S
C1430 H1438 0.930 . S
C1431 C1430 1.394 . S
C1431 C1432 1.383 . S
C1431 H1439 0.929 . S
C1432 C1431 1.383 . S
C1432 C1433 1.377 . S
C1433 H1417 0.930 . S
C1433 C1432 1.377 . S
C1433 C1434 1.379 . S
C1434 H1418 0.931 . S
C1434 C1428 1.383 . S
C1434 C1433 1.379 . S
H1435 C1429 0.959 . S
H1436 C1429 0.961 . S
H1437 C1429 0.960 . S
H1438 C1430 0.930 . S
H1439 C1431 0.929 . S
H1440 C1448 0.929 . S
H1441 C1450 0.930 . S
H1442 C1452 0.930 . S
H1443 C1455 0.929 . S
H1444 C1458 0.930 . S
H1445 C1460 0.960 . S
H1446 C1460 0.960 . S
H1447 C1460 0.960 . S
C1448 H1440 0.929 . S
C1448 C1449 1.377 . S
C1448 C1450 1.384 . S
C1449 C1448 1.377 . S
C1449 C1455 1.390 . S
C1450 H1441 0.930 . S
C1450 C1448 1.384 . S
C1450 C1451 1.372 . S
C1451 C1450 1.372 . S
C1451 C1452 1.400 . S
C1451 C1456 1.490 . S
C1452 H1442 0.930 . S
C1452 C1451 1.400 . S
C1452 C1455 1.386 . S
H1453 C1469 0.930 . S
H1454 C1470 0.931 . S
C1455 H1443 0.929 . S
C1455 C1449 1.390 . S
C1455 C1452 1.386 . S
C1456 C1451 1.490 . S
C1456 C1458 1.395 . S
C1456 C1459 1.403 . S
H1457 C1463 0.930 . S
C1458 H1444 0.930 . S
C1458 C1456 1.395 . S
C1458 C1461 1.403 . S
C1459 C1456 1.403 . S
C1459 C1460 1.524 . S
C1459 C1463 1.400 . S
C1460 H1445 0.960 . S
C1460 H1446 0.960 . S
C1460 H1447 0.960 . S
C1460 C1459 1.524 . S
C1461 C1458 1.403 . S
C1461 C1462 1.392 . S
C1461 C1465 1.495 . S
C1462 C1461 1.392 . S
C1462 C1463 1.385 . S
C1462 C1464 1.478 . S
C1463 H1457 0.930 . S
C1463 C1459 1.400 . S
C1463 C1462 1.385 . S
C1464 C1462 1.478 . S
C1464 C1466 1.381 . S
C1464 C1470 1.383 . S
C1465 C1461 1.495 . S
C1465 H1471 0.959 . S
C1465 H1472 0.961 . S
C1465 H1473 0.960 . S
C1466 C1464 1.381 . S
C1466 C1467 1.394 . S
C1466 H1474 0.930 . S
C1467 C1466 1.394 . S
C1467 C1468 1.383 . S
C1467 H1475 0.929 . S
C1468 C1467 1.383 . S
C1468 C1469 1.377 . S
C1469 H1453 0.930 . S
C1469 C1468 1.377 . S
C1469 C1470 1.379 . S
C1470 H1454 0.931 . S
C1470 C1464 1.383 . S
C1470 C1469 1.379 . S
H1471 C1465 0.959 . S
H1472 C1465 0.961 . S
H1473 C1465 0.960 . S
H1474 C1466 0.930 . S
H1475 C1467 0.929 . S
H1476 C1484 0.929 . S
H1477 C1486 0.930 . S
H1478 C1488 0.930 . S
H1479 C1491 0.929 . S
H1480 C1494 0.930 . S
H1481 C1496 0.960 . S
H1482 C1496 0.960 . S
H1483 C1496 0.960 . S
C1484 H1476 0.929 . S
C1484 C1485 1.377 . S
C1484 C1486 1.384 . S
C1485 C1484 1.377 . S
C1485 C1491 1.390 . S
C1486 H1477 0.930 . S
C1486 C1484 1.384 . S
C1486 C1487 1.372 . S
C1487 C1486 1.372 . S
C1487 C1488 1.400 . S
C1487 C1492 1.490 . S
C1488 H1478 0.930 . S
C1488 C1487 1.400 . S
C1488 C1491 1.386 . S
H1489 C1505 0.930 . S
H1490 C1506 0.931 . S
C1491 H1479 0.929 . S
C1491 C1485 1.390 . S
C1491 C1488 1.386 . S
C1492 C1487 1.490 . S
C1492 C1494 1.395 . S
C1492 C1495 1.403 . S
H1493 C1499 0.930 . S
C1494 H1480 0.930 . S
C1494 C1492 1.395 . S
C1494 C1497 1.403 . S
C1495 C1492 1.403 . S
C1495 C1496 1.524 . S
C1495 C1499 1.400 . S
C1496 H1481 0.960 . S
C1496 H1482 0.960 . S
C1496 H1483 0.960 . S
C1496 C1495 1.524 . S
C1497 C1494 1.403 . S
C1497 C1498 1.392 . S
C1497 C1501 1.495 . S
C1498 C1497 1.392 . S
C1498 C1499 1.385 . S
C1498 C1500 1.478 . S
C1499 H1493 0.930 . S
C1499 C1495 1.400 . S
C1499 C1498 1.385 . S
C1500 C1498 1.478 . S
C1500 C1502 1.381 . S
C1500 C1506 1.383 . S
C1501 C1497 1.495 . S
C1501 H1507 0.959 . S
C1501 H1508 0.961 . S
C1501 H1509 0.960 . S
C1502 C1500 1.381 . S
C1502 C1503 1.394 . S
C1502 H1510 0.930 . S
C1503 C1502 1.394 . S
C1503 C1504 1.383 . S
C1503 H1511 0.929 . S
C1504 C1503 1.383 . S
C1504 C1505 1.377 . S
C1505 H1489 0.930 . S
C1505 C1504 1.377 . S
C1505 C1506 1.379 . S
C1506 H1490 0.931 . S
C1506 C1500 1.383 . S
C1506 C1505 1.379 . S
H1507 C1501 0.959 . S
H1508 C1501 0.961 . S
H1509 C1501 0.960 . S
H1510 C1502 0.930 . S
H1511 C1503 0.929 . S
H1512 C1520 0.929 . S
H1513 C1522 0.930 . S
H1514 C1524 0.930 . S
H1515 C1527 0.929 . S
H1516 C1530 0.930 . S
H1517 C1532 0.960 . S
H1518 C1532 0.960 . S
H1519 C1532 0.960 . S
C1520 H1512 0.929 . S
C1520 C1521 1.377 . S
C1520 C1522 1.384 . S
C1521 C1520 1.377 . S
C1521 C1527 1.390 . S
C1522 H1513 0.930 . S
C1522 C1520 1.384 . S
C1522 C1523 1.372 . S
C1523 C1522 1.372 . S
C1523 C1524 1.400 . S
C1523 C1528 1.490 . S
C1524 H1514 0.930 . S
C1524 C1523 1.400 . S
C1524 C1527 1.386 . S
H1525 C1541 0.930 . S
H1526 C1542 0.931 . S
C1527 H1515 0.929 . S
C1527 C1521 1.390 . S
C1527 C1524 1.386 . S
C1528 C1523 1.490 . S
C1528 C1530 1.395 . S
C1528 C1531 1.403 . S
H1529 C1535 0.930 . S
C1530 H1516 0.930 . S
C1530 C1528 1.395 . S
C1530 C1533 1.403 . S
C1531 C1528 1.403 . S
C1531 C1532 1.524 . S
C1531 C1535 1.400 . S
C1532 H1517 0.960 . S
C1532 H1518 0.960 . S
C1532 H1519 0.960 . S
C1532 C1531 1.524 . S
C1533 C1530 1.403 . S
C1533 C1534 1.392 . S
C1533 C1537 1.495 . S
C1534 C1533 1.392 . S
C1534 C1535 1.385 . S
C1534 C1536 1.478 . S
C1535 H1529 0.930 . S
C1535 C1531 1.400 . S
C1535 C1534 1.385 . S
C1536 C1534 1.478 . S
C1536 C1538 1.381 . S
C1536 C1542 1.383 . S
C1537 C1533 1.495 . S
C1537 H1543 0.959 . S
C1537 H1544 0.961 . S
C1537 H1545 0.960 . S
C1538 C1536 1.381 . S
C1538 C1539 1.394 . S
C1538 H1546 0.930 . S
C1539 C1538 1.394 . S
C1539 C1540 1.383 . S
C1539 H1547 0.929 . S
C1540 C1539 1.383 . S
C1540 C1541 1.377 . S
C1541 H1525 0.930 . S
C1541 C1540 1.377 . S
C1541 C1542 1.379 . S
C1542 H1526 0.931 . S
C1542 C1536 1.383 . S
C1542 C1541 1.379 . S
H1543 C1537 0.959 . S
H1544 C1537 0.961 . S
H1545 C1537 0.960 . S
H1546 C1538 0.930 . S
H1547 C1539 0.929 . S
H1548 C1556 0.929 . S
H1549 C1558 0.930 . S
H1550 C1560 0.930 . S
H1551 C1563 0.929 . S
H1552 C1566 0.930 . S
H1553 C1568 0.960 . S
H1554 C1568 0.960 . S
H1555 C1568 0.960 . S
C1556 H1548 0.929 . S
C1556 C1557 1.377 . S
C1556 C1558 1.384 . S
C1557 C1556 1.377 . S
C1557 C1563 1.390 . S
C1558 H1549 0.930 . S
C1558 C1556 1.384 . S
C1558 C1559 1.372 . S
C1559 C1558 1.372 . S
C1559 C1560 1.400 . S
C1559 C1564 1.490 . S
C1560 H1550 0.930 . S
C1560 C1559 1.400 . S
C1560 C1563 1.386 . S
H1561 C1577 0.930 . S
H1562 C1578 0.931 . S
C1563 H1551 0.929 . S
C1563 C1557 1.390 . S
C1563 C1560 1.386 . S
C1564 C1559 1.490 . S
C1564 C1566 1.395 . S
C1564 C1567 1.403 . S
H1565 C1571 0.930 . S
C1566 H1552 0.930 . S
C1566 C1564 1.395 . S
C1566 C1569 1.403 . S
C1567 C1564 1.403 . S
C1567 C1568 1.524 . S
C1567 C1571 1.400 . S
C1568 H1553 0.960 . S
C1568 H1554 0.960 . S
C1568 H1555 0.960 . S
C1568 C1567 1.524 . S
C1569 C1566 1.403 . S
C1569 C1570 1.392 . S
C1569 C1573 1.495 . S
C1570 C1569 1.392 . S
C1570 C1571 1.385 . S
C1570 C1572 1.478 . S
C1571 H1565 0.930 . S
C1571 C1567 1.400 . S
C1571 C1570 1.385 . S
C1572 C1570 1.478 . S
C1572 C1574 1.381 . S
C1572 C1578 1.383 . S
C1573 C1569 1.495 . S
C1573 H1579 0.959 . S
C1573 H1580 0.961 . S
C1573 H1581 0.960 . S
C1574 C1572 1.381 . S
C1574 C1575 1.394 . S
C1574 H1582 0.930 . S
C1575 C1574 1.394 . S
C1575 C1576 1.383 . S
C1575 H1583 0.929 . S
C1576 C1575 1.383 . S
C1576 C1577 1.377 . S
C1577 H1561 0.930 . S
C1577 C1576 1.377 . S
C1577 C1578 1.379 . S
C1578 H1562 0.931 . S
C1578 C1572 1.383 . S
C1578 C1577 1.379 . S
H1579 C1573 0.959 . S
H1580 C1573 0.961 . S
H1581 C1573 0.960 . S
H1582 C1574 0.930 . S
H1583 C1575 0.929 . S
H1584 C1592 0.929 . S
H1585 C1594 0.930 . S
H1586 C1596 0.930 . S
H1587 C1599 0.929 . S
H1588 C1602 0.930 . S
H1589 C1604 0.960 . S
H1590 C1604 0.960 . S
H1591 C1604 0.960 . S
C1592 H1584 0.929 . S
C1592 C1593 1.377 . S
C1592 C1594 1.384 . S
C1593 C1592 1.377 . S
C1593 C1599 1.390 . S
C1594 H1585 0.930 . S
C1594 C1592 1.384 . S
C1594 C1595 1.372 . S
C1595 C1594 1.372 . S
C1595 C1596 1.400 . S
C1595 C1600 1.490 . S
C1596 H1586 0.930 . S
C1596 C1595 1.400 . S
C1596 C1599 1.386 . S
H1597 C1613 0.930 . S
H1598 C1614 0.931 . S
C1599 H1587 0.929 . S
C1599 C1593 1.390 . S
C1599 C1596 1.386 . S
C1600 C1595 1.490 . S
C1600 C1602 1.395 . S
C1600 C1603 1.403 . S
H1601 C1607 0.930 . S
C1602 H1588 0.930 . S
C1602 C1600 1.395 . S
C1602 C1605 1.403 . S
C1603 C1600 1.403 . S
C1603 C1604 1.524 . S
C1603 C1607 1.400 . S
C1604 H1589 0.960 . S
C1604 H1590 0.960 . S
C1604 H1591 0.960 . S
C1604 C1603 1.524 . S
C1605 C1602 1.403 . S
C1605 C1606 1.392 . S
C1605 C1609 1.495 . S
C1606 C1605 1.392 . S
C1606 C1607 1.385 . S
C1606 C1608 1.478 . S
C1607 H1601 0.930 . S
C1607 C1603 1.400 . S
C1607 C1606 1.385 . S
C1608 C1606 1.478 . S
C1608 C1610 1.381 . S
C1608 C1614 1.383 . S
C1609 C1605 1.495 . S
C1609 H1615 0.959 . S
C1609 H1616 0.961 . S
C1609 H1617 0.960 . S
C1610 C1608 1.381 . S
C1610 C1611 1.394 . S
C1610 H1618 0.930 . S
C1611 C1610 1.394 . S
C1611 C1612 1.383 . S
C1611 H1619 0.929 . S
C1612 C1611 1.383 . S
C1612 C1613 1.377 . S
C1613 H1597 0.930 . S
C1613 C1612 1.377 . S
C1613 C1614 1.379 . S
C1614 H1598 0.931 . S
C1614 C1608 1.383 . S
C1614 C1613 1.379 . S
H1615 C1609 0.959 . S
H1616 C1609 0.961 . S
H1617 C1609 0.960 . S
H1618 C1610 0.930 . S
H1619 C1611 0.929 . S
H1620 C1628 0.929 . S
H1621 C1630 0.930 . S
H1622 C1632 0.930 . S
H1623 C1635 0.929 . S
H1624 C1638 0.930 . S
H1625 C1640 0.960 . S
H1626 C1640 0.960 . S
H1627 C1640 0.960 . S
C1628 H1620 0.929 . S
C1628 C1629 1.377 . S
C1628 C1630 1.384 . S
C1629 C1628 1.377 . S
C1629 C1635 1.390 . S
C1630 H1621 0.930 . S
C1630 C1628 1.384 . S
C1630 C1631 1.372 . S
C1631 C1630 1.372 . S
C1631 C1632 1.400 . S
C1631 C1636 1.490 . S
C1632 H1622 0.930 . S
C1632 C1631 1.400 . S
C1632 C1635 1.386 . S
H1633 C1649 0.930 . S
H1634 C1650 0.931 . S
C1635 H1623 0.929 . S
C1635 C1629 1.390 . S
C1635 C1632 1.386 . S
C1636 C1631 1.490 . S
C1636 C1638 1.395 . S
C1636 C1639 1.403 . S
H1637 C1643 0.930 . S
C1638 H1624 0.930 . S
C1638 C1636 1.395 . S
C1638 C1641 1.403 . S
C1639 C1636 1.403 . S
C1639 C1640 1.524 . S
C1639 C1643 1.400 . S
C1640 H1625 0.960 . S
C1640 H1626 0.960 . S
C1640 H1627 0.960 . S
C1640 C1639 1.524 . S
C1641 C1638 1.403 . S
C1641 C1642 1.392 . S
C1641 C1645 1.495 . S
C1642 C1641 1.392 . S
C1642 C1643 1.385 . S
C1642 C1644 1.478 . S
C1643 H1637 0.930 . S
C1643 C1639 1.400 . S
C1643 C1642 1.385 . S
C1644 C1642 1.478 . S
C1644 C1646 1.381 . S
C1644 C1650 1.383 . S
C1645 C1641 1.495 . S
C1645 H1651 0.959 . S
C1645 H1652 0.961 . S
C1645 H1653 0.960 . S
C1646 C1644 1.381 . S
C1646 C1647 1.394 . S
C1646 H1654 0.930 . S
C1647 C1646 1.394 . S
C1647 C1648 1.383 . S
C1647 H1655 0.929 . S
C1648 C1647 1.383 . S
C1648 C1649 1.377 . S
C1649 H1633 0.930 . S
C1649 C1648 1.377 . S
C1649 C1650 1.379 . S
C1650 H1634 0.931 . S
C1650 C1644 1.383 . S
C1650 C1649 1.379 . S
H1651 C1645 0.959 . S
H1652 C1645 0.961 . S
H1653 C1645 0.960 . S
H1654 C1646 0.930 . S
H1655 C1647 0.929 . S
H1656 C1664 0.929 . S
H1657 C1666 0.930 . S
H1658 C1668 0.930 . S
H1659 C1671 0.929 . S
H1660 C1674 0.930 . S
H1661 C1676 0.960 . S
H1662 C1676 0.960 . S
H1663 C1676 0.960 . S
C1664 H1656 0.929 . S
C1664 C1665 1.377 . S
C1664 C1666 1.384 . S
C1665 C1664 1.377 . S
C1665 C1671 1.390 . S
C1666 H1657 0.930 . S
C1666 C1664 1.384 . S
C1666 C1667 1.372 . S
C1667 C1666 1.372 . S
C1667 C1668 1.400 . S
C1667 C1672 1.490 . S
C1668 H1658 0.930 . S
C1668 C1667 1.400 . S
C1668 C1671 1.386 . S
H1669 C1685 0.930 . S
H1670 C1686 0.931 . S
C1671 H1659 0.929 . S
C1671 C1665 1.390 . S
C1671 C1668 1.386 . S
C1672 C1667 1.490 . S
C1672 C1674 1.395 . S
C1672 C1675 1.403 . S
H1673 C1679 0.930 . S
C1674 H1660 0.930 . S
C1674 C1672 1.395 . S
C1674 C1677 1.403 . S
C1675 C1672 1.403 . S
C1675 C1676 1.524 . S
C1675 C1679 1.400 . S
C1676 H1661 0.960 . S
C1676 H1662 0.960 . S
C1676 H1663 0.960 . S
C1676 C1675 1.524 . S
C1677 C1674 1.403 . S
C1677 C1678 1.392 . S
C1677 C1681 1.495 . S
C1678 C1677 1.392 . S
C1678 C1679 1.385 . S
C1678 C1680 1.478 . S
C1679 H1673 0.930 . S
C1679 C1675 1.400 . S
C1679 C1678 1.385 . S
C1680 C1678 1.478 . S
C1680 C1682 1.381 . S
C1680 C1686 1.383 . S
C1681 C1677 1.495 . S
C1681 H1687 0.959 . S
C1681 H1688 0.961 . S
C1681 H1689 0.960 . S
C1682 C1680 1.381 . S
C1682 C1683 1.394 . S
C1682 H1690 0.930 . S
C1683 C1682 1.394 . S
C1683 C1684 1.383 . S
C1683 H1691 0.929 . S
C1684 C1683 1.383 . S
C1684 C1685 1.377 . S
C1685 H1669 0.930 . S
C1685 C1684 1.377 . S
C1685 C1686 1.379 . S
C1686 H1670 0.931 . S
C1686 C1680 1.383 . S
C1686 C1685 1.379 . S
H1687 C1681 0.959 . S
H1688 C1681 0.961 . S
H1689 C1681 0.960 . S
H1690 C1682 0.930 . S
H1691 C1683 0.929 . S
H1692 C1700 0.929 . S
H1693 C1702 0.930 . S
H1694 C1704 0.930 . S
H1695 C1707 0.929 . S
H1696 C1710 0.930 . S
H1697 C1712 0.960 . S
H1698 C1712 0.960 . S
H1699 C1712 0.960 . S
C1700 H1692 0.929 . S
C1700 C1701 1.377 . S
C1700 C1702 1.384 . S
C1701 C1700 1.377 . S
C1701 C1707 1.390 . S
C1702 H1693 0.930 . S
C1702 C1700 1.384 . S
C1702 C1703 1.372 . S
C1703 C1702 1.372 . S
C1703 C1704 1.400 . S
C1703 C1708 1.490 . S
C1704 H1694 0.930 . S
C1704 C1703 1.400 . S
C1704 C1707 1.386 . S
H1705 C1721 0.930 . S
H1706 C1722 0.931 . S
C1707 H1695 0.929 . S
C1707 C1701 1.390 . S
C1707 C1704 1.386 . S
C1708 C1703 1.490 . S
C1708 C1710 1.395 . S
C1708 C1711 1.403 . S
H1709 C1715 0.930 . S
C1710 H1696 0.930 . S
C1710 C1708 1.395 . S
C1710 C1713 1.403 . S
C1711 C1708 1.403 . S
C1711 C1712 1.524 . S
C1711 C1715 1.400 . S
C1712 H1697 0.960 . S
C1712 H1698 0.960 . S
C1712 H1699 0.960 . S
C1712 C1711 1.524 . S
C1713 C1710 1.403 . S
C1713 C1714 1.392 . S
C1713 C1717 1.495 . S
C1714 C1713 1.392 . S
C1714 C1715 1.385 . S
C1714 C1716 1.478 . S
C1715 H1709 0.930 . S
C1715 C1711 1.400 . S
C1715 C1714 1.385 . S
C1716 C1714 1.478 . S
C1716 C1718 1.381 . S
C1716 C1722 1.383 . S
C1717 C1713 1.495 . S
C1717 H1723 0.959 . S
C1717 H1724 0.961 . S
C1717 H1725 0.960 . S
C1718 C1716 1.381 . S
C1718 C1719 1.394 . S
C1718 H1726 0.930 . S
C1719 C1718 1.394 . S
C1719 C1720 1.383 . S
C1719 H1727 0.929 . S
C1720 C1719 1.383 . S
C1720 C1721 1.377 . S
C1721 H1705 0.930 . S
C1721 C1720 1.377 . S
C1721 C1722 1.379 . S
C1722 H1706 0.931 . S
C1722 C1716 1.383 . S
C1722 C1721 1.379 . S
H1723 C1717 0.959 . S
H1724 C1717 0.961 . S
H1725 C1717 0.960 . S
H1726 C1718 0.930 . S
H1727 C1719 0.929 . S
C585 C4 1.479 . S
C604 C446 1.443 . S
C621 C482 1.422 . S
C640 C40 1.477 . S
C657 C76 1.479 . S
C676 C518 1.431 . S
C693 C554 1.420 . S
C712 C112 1.478 . S
C729 C292 1.478 . S
C748 C158 1.405 . S
C765 C194 1.412 . S
C784 C328 1.474 . S
C801 C364 1.478 . S
C820 C230 1.393 . S
C837 C266 1.414 . S
C856 C400 1.475 . S
C873 C3 1.605 . S
C892 C75 1.592 . S
C909 C39 1.605 . S
C928 C111 1.592 . S
C945 C147 1.439 . S
C964 C219 1.424 . S
C981 C183 1.436 . S
C1000 C255 1.422 . S
C1017 C363 1.608 . S
C1036 C291 1.607 . S
C1053 C327 1.608 . S
C1072 C399 1.605 . S
C1089 C507 1.441 . S
C1108 C435 1.448 . S
C1125 C471 1.438 . S
C1144 C543 1.422 . S
C1161 C218 1.466 . S
C1180 C2 1.455 . S
C1197 C254 1.466 . S
C1216 C38 1.457 . S
C1233 C74 1.459 . S
C1252 C146 1.470 . S
C1269 C110 1.463 . S
C1288 C182 1.454 . S
C1305 C506 1.465 . S
C1324 C290 1.459 . S
C1341 C326 1.464 . S
C1360 C542 1.453 . S
C1377 C434 1.464 . S
C1396 C362 1.469 . S
C1413 C398 1.464 . S
C1432 C470 1.453 . S
C1449 C14 1.676 . S
C1468 C122 1.676 . S
C1485 C86 1.679 . S
C1504 C50 1.654 . S
C1521 C148 1.182 . S
C1540 C256 1.183 . S
C1557 C184 1.181 . S
C1576 C220 1.173 . S
C1593 C410 1.686 . S
C1612 C302 1.692 . S
C1629 C338 1.678 . S
C1648 C374 1.655 . S
C1665 C544 1.181 . S
C1684 C436 1.185 . S
C1701 C472 1.180 . S
C1720 C508 1.176 . S
