# Generated by pormake.
# Topology xfz, (5)-cn, num edge types: 1
# Building blocks:
#     Node 0, Type 0, BuildingBlock: BEQFEK_clean_sbu_0, # of connection points: 5
#     Node 1, Type 0, BuildingBlock: BEQFEK_clean_sbu_0, # of connection points: 5
#     Node 2, Type 0, BuildingBlock: BEQFEK_clean_sbu_0, # of connection points: 5
#     Node 3, Type 0, BuildingBlock: BEQFEK_clean_sbu_0, # of connection points: 5
#     Node 4, Type 0, BuildingBlock: BEQFEK_clean_sbu_0, # of connection points: 5
#     Node 5, Type 0, BuildingBlock: BEQFEK_clean_sbu_0, # of connection points: 5
#     Node 6, Type 0, BuildingBlock: BEQFEK_clean_sbu_0, # of connection points: 5
#     Node 7, Type 0, BuildingBlock: BEQFEK_clean_sbu_0, # of connection points: 5
#     Node 8, Type 0, BuildingBlock: BEQFEK_clean_sbu_0, # of connection points: 5
#     Node 9, Type 0, BuildingBlock: BEQFEK_clean_sbu_0, # of connection points: 5
#     Node 10, Type 0, BuildingBlock: BEQFEK_clean_sbu_0, # of connection points: 5
#     Node 11, Type 0, BuildingBlock: BEQFEK_clean_sbu_0, # of connection points: 5
#     Node 12, Type 0, BuildingBlock: BEQFEK_clean_sbu_0, # of connection points: 5
#     Node 13, Type 0, BuildingBlock: BEQFEK_clean_sbu_0, # of connection points: 5
#     Node 14, Type 0, BuildingBlock: BEQFEK_clean_sbu_0, # of connection points: 5
#     Node 15, Type 0, BuildingBlock: BEQFEK_clean_sbu_0, # of connection points: 5
#     Edge 16, Type (0, 0), None
#     Edge 17, Type (0, 0), None
#     Edge 18, Type (0, 0), None
#     Edge 19, Type (0, 0), None
#     Edge 20, Type (0, 0), None
#     Edge 21, Type (0, 0), None
#     Edge 22, Type (0, 0), None
#     Edge 23, Type (0, 0), None
#     Edge 24, Type (0, 0), None
#     Edge 25, Type (0, 0), None
#     Edge 26, Type (0, 0), None
#     Edge 27, Type (0, 0), None
#     Edge 28, Type (0, 0), None
#     Edge 29, Type (0, 0), None
#     Edge 30, Type (0, 0), None
#     Edge 31, Type (0, 0), None
#     Edge 32, Type (0, 0), None
#     Edge 33, Type (0, 0), None
#     Edge 34, Type (0, 0), None
#     Edge 35, Type (0, 0), None
#     Edge 36, Type (0, 0), None
#     Edge 37, Type (0, 0), None
#     Edge 38, Type (0, 0), None
#     Edge 39, Type (0, 0), None
#     Edge 40, Type (0, 0), None
#     Edge 41, Type (0, 0), None
#     Edge 42, Type (0, 0), None
#     Edge 43, Type (0, 0), None
#     Edge 44, Type (0, 0), None
#     Edge 45, Type (0, 0), None
#     Edge 46, Type (0, 0), None
#     Edge 47, Type (0, 0), None
#     Edge 48, Type (0, 0), None
#     Edge 49, Type (0, 0), None
#     Edge 50, Type (0, 0), None
#     Edge 51, Type (0, 0), None
#     Edge 52, Type (0, 0), None
#     Edge 53, Type (0, 0), None
#     Edge 54, Type (0, 0), None
#     Edge 55, Type (0, 0), None
# Relax obj value: 0.489
# Max RMSD: 0.213
# Mean RMSD: 0.213
data_MOF--net-xfz--node1-BEQFEK_clean_sbu_0--edge1-none
_symmetry_space_group_name_H-M    P1
_symmetry_Int_Tables_number       1
_symmetry_cell_setting            triclinic
loop_
_symmetry_equiv_pos_as_xyz
'x, y, z'
_cell_length_a     24.692945
_cell_length_b     24.692466
_cell_length_c     23.160132
_cell_angle_alpha  90.006832
_cell_angle_beta   89.994255
_cell_angle_gamma 90.000927
loop_
_atom_site_label
_atom_site_type_symbol
_atom_site_fract_x
_atom_site_fract_y
_atom_site_fract_z
_atom_type_partial_charge
Co0 Co 0.15578 0.56427 0.38759 0.0
Co1 Co 0.247 0.51008 0.32672 0.0
C2 C 0.14515 0.45032 0.32788 0.0
O3 O 0.12628 0.49387 0.34984 0.0
O4 O 0.19616 0.44654 0.32155 0.0
C5 C 0.0787 0.54777 0.46534 0.0
O6 O 0.10005 0.49921 0.46182 0.0
C7 C 0.33814 0.43492 0.30594 0.0
C8 C 0.39378 0.48285 0.25189 0.0
C9 C 0.38854 0.4328 0.27865 0.0
N10 N 0.31495 0.48344 0.29515 0.0
N11 N 0.34831 0.51159 0.26218 0.0
C12 C 0.31458 0.3944 0.34689 0.0
H13 H 0.28521 0.41418 0.37631 0.0
H14 H 0.34695 0.37444 0.37242 0.0
H15 H 0.2921 0.36324 0.32216 0.0
C16 C 0.23429 0.58794 0.47637 0.0
N17 N 0.2224 0.56659 0.42461 0.0
N18 N 0.26021 0.53326 0.40799 0.0
C19 C 0.29436 0.52737 0.45408 0.0
C20 C 0.27841 0.56154 0.50017 0.0
C21 C 0.19893 0.62777 0.50671 0.0
H22 H 0.17897 0.65499 0.47507 0.0
H23 H 0.1677 0.60511 0.53036 0.0
H24 H 0.22264 0.65203 0.53816 0.0
O25 O 0.15511 0.61753 0.33013 0.0
O26 O 0.20986 0.57193 0.27166 0.0
H27 H 0.36047 0.48478 0.41497 0.0
H28 H 0.36821 0.49749 0.49173 0.0
C29 C 0.33911 0.4868 0.45701 0.0
H30 H 0.32183 0.44636 0.46677 0.0
H31 H 0.34081 0.55106 0.24817 0.0
O32 O 0.10291 0.58696 0.44207 0.0
C33 C 0.17609 0.61127 0.28101 0.0
Co34 Co 0.56429 0.94384 0.67622 0.0
Co35 Co 0.51004 0.85268 0.73708 0.0
C36 C 0.45035 0.95452 0.73595 0.0
O37 O 0.49393 0.97335 0.71403 0.0
O38 O 0.44651 0.90351 0.74225 0.0
C39 C 0.54775 1.02089 0.59848 0.0
O40 O 0.49919 0.99954 0.60206 0.0
C41 C 0.43489 0.76153 0.75788 0.0
C42 C 0.48283 0.70591 0.81192 0.0
C43 C 0.43278 0.71114 0.78518 0.0
N44 N 0.48341 0.78473 0.76867 0.0
N45 N 0.51156 0.75138 0.80163 0.0
C46 C 0.39436 0.78508 0.71694 0.0
H47 H 0.41413 0.81445 0.68753 0.0
H48 H 0.3744 0.7527 0.69141 0.0
H49 H 0.3632 0.80756 0.74168 0.0
C50 C 0.58791 0.86531 0.58743 0.0
N51 N 0.56658 0.87722 0.63919 0.0
N52 N 0.53321 0.83943 0.6558 0.0
C53 C 0.5273 0.80529 0.6097 0.0
C54 C 0.56147 0.82122 0.56362 0.0
C55 C 0.62776 0.90065 0.55709 0.0
H56 H 0.65497 0.92063 0.58873 0.0
H57 H 0.60513 0.93187 0.53341 0.0
H58 H 0.65204 0.87691 0.52567 0.0
O59 O 0.61758 0.9445 0.73364 0.0
O60 O 0.57189 0.88986 0.79213 0.0
H61 H 0.48466 0.7392 0.64879 0.0
H62 H 0.49735 0.73147 0.57202 0.0
C63 C 0.48669 0.76057 0.60677 0.0
H64 H 0.44626 0.77789 0.59702 0.0
H65 H 0.55104 0.75889 0.81563 0.0
O66 O 0.58695 0.9967 0.62172 0.0
C67 C 0.61127 0.92359 0.78278 0.0
Co68 Co 0.94387 0.53544 0.38764 0.0
Co69 Co 0.85268 0.58962 0.32674 0.0
C70 C 0.9545 0.64935 0.32787 0.0
O71 O 0.97334 0.6058 0.34985 0.0
O72 O 0.90351 0.65316 0.32154 0.0
C73 C 1.02089 0.55209 0.46542 0.0
O74 O 0.9996 0.60068 0.46181 0.0
C75 C 0.76152 0.66473 0.30593 0.0
C76 C 0.70591 0.61676 0.2519 0.0
C77 C 0.71112 0.66682 0.27864 0.0
N78 N 0.78473 0.61621 0.29515 0.0
N79 N 0.75139 0.58804 0.26219 0.0
C80 C 0.78506 0.70527 0.34687 0.0
H81 H 0.81444 0.68552 0.37628 0.0
H82 H 0.75268 0.72524 0.37239 0.0
H83 H 0.80753 0.73643 0.32213 0.0
C84 C 0.8653 0.51174 0.47636 0.0
N85 N 0.87722 0.53309 0.42461 0.0
N86 N 0.83943 0.56646 0.40801 0.0
C87 C 0.80528 0.57236 0.45411 0.0
C88 C 0.8212 0.53817 0.50018 0.0
C89 C 0.90064 0.47189 0.50668 0.0
H90 H 0.92068 0.44474 0.47503 0.0
H91 H 0.9318 0.49453 0.53045 0.0
H92 H 0.87688 0.44756 0.53803 0.0
O93 O 0.94462 0.48216 0.33019 0.0
O94 O 0.88986 0.52774 0.27172 0.0
H95 H 0.73919 0.61499 0.41504 0.0
H96 H 0.73147 0.60231 0.49181 0.0
C97 C 0.76057 0.61297 0.45706 0.0
H98 H 0.77788 0.6534 0.46681 0.0
H99 H 0.7589 0.54856 0.24819 0.0
O100 O 0.9967 0.51286 0.44221 0.0
C101 C 0.92365 0.48842 0.28106 0.0
Co102 Co 0.53547 0.15575 0.67616 0.0
Co103 Co 0.58958 0.247 0.73707 0.0
C104 C 0.64938 0.14517 0.7359 0.0
O105 O 0.60587 0.12628 0.71389 0.0
O106 O 0.65312 0.19617 0.74229 0.0
C107 C 0.55207 0.0787 0.59837 0.0
O108 O 0.60065 0.1 0.60191 0.0
C109 C 0.6647 0.33816 0.75786 0.0
C110 C 0.61675 0.39379 0.81191 0.0
C111 C 0.6668 0.38856 0.78516 0.0
N112 N 0.61618 0.31495 0.76866 0.0
N113 N 0.58802 0.34831 0.80162 0.0
C114 C 0.70523 0.31461 0.71691 0.0
H115 H 0.68547 0.28524 0.68749 0.0
H116 H 0.7252 0.34699 0.69139 0.0
H117 H 0.73639 0.29213 0.74164 0.0
C118 C 0.51172 0.2343 0.58746 0.0
N119 N 0.53308 0.2224 0.6392 0.0
N120 N 0.56642 0.26022 0.65581 0.0
C121 C 0.57229 0.29437 0.60972 0.0
C122 C 0.53811 0.27843 0.56365 0.0
C123 C 0.47189 0.19893 0.55712 0.0
H124 H 0.44473 0.17891 0.58877 0.0
H125 H 0.49456 0.16776 0.53339 0.0
H126 H 0.44757 0.22266 0.52575 0.0
O127 O 0.48223 0.15498 0.73366 0.0
O128 O 0.5277 0.20986 0.7921 0.0
H129 H 0.61487 0.3605 0.64882 0.0
H130 H 0.60216 0.36823 0.57206 0.0
C131 C 0.61285 0.33913 0.60679 0.0
H132 H 0.65329 0.32186 0.59702 0.0
H133 H 0.54855 0.3408 0.81563 0.0
O134 O 0.51286 0.10291 0.62161 0.0
C135 C 0.48842 0.17602 0.78276 0.0
Co136 Co 0.15627 0.53778 0.67587 0.0
Co137 Co 0.24682 0.59321 0.7378 0.0
C138 C 0.1443 0.65163 0.73678 0.0
O139 O 0.12619 0.60812 0.71382 0.0
O140 O 0.19519 0.65593 0.74422 0.0
C141 C 0.0787 0.55268 0.59825 0.0
O142 O 0.09876 0.60177 0.60209 0.0
C143 C 0.33615 0.6677 0.77449 0.0
C144 C 0.40613 0.6123 0.77313 0.0
C145 C 0.39253 0.66646 0.7791 0.0
N146 N 0.31781 0.61691 0.7646 0.0
N147 N 0.3601 0.58411 0.76445 0.0
C148 C 0.29988 0.71545 0.7832 0.0
H149 H 0.264 0.70322 0.80886 0.0
H150 H 0.28555 0.73034 0.74066 0.0
H151 H 0.32119 0.74834 0.80656 0.0
C152 C 0.23582 0.51823 0.58664 0.0
N153 N 0.22291 0.5371 0.63917 0.0
N154 N 0.25846 0.57239 0.65648 0.0
C155 C 0.29165 0.58254 0.61067 0.0
C156 C 0.2781 0.54833 0.56368 0.0
C157 C 0.20229 0.4778 0.55489 0.0
H158 H 0.18305 0.44914 0.58558 0.0
H159 H 0.17047 0.49987 0.53156 0.0
H160 H 0.22716 0.45519 0.52308 0.0
O161 O 0.15644 0.4845 0.73334 0.0
O162 O 0.21111 0.52986 0.79214 0.0
H163 H 0.36657 0.61738 0.63729 0.0
H164 H 0.34607 0.63606 0.56502 0.0
C165 C 0.33152 0.62806 0.60957 0.0
H166 H 0.31271 0.66507 0.628 0.0
H167 H 0.35781 0.54266 0.75586 0.0
O168 O 0.10403 0.51402 0.62115 0.0
C169 C 0.17767 0.49029 0.78239 0.0
Co170 Co 0.53781 0.94338 0.38793 0.0
Co171 Co 0.59318 0.85277 0.326 0.0
C172 C 0.65166 0.95531 0.32706 0.0
O173 O 0.60818 0.97345 0.35004 0.0
O174 O 0.6559 0.90441 0.31958 0.0
C175 C 0.55266 1.02098 0.46556 0.0
O176 O 0.60175 1.00092 0.46179 0.0
C177 C 0.66767 0.76344 0.28931 0.0
C178 C 0.61228 0.69345 0.2907 0.0
C179 C 0.66644 0.70706 0.28472 0.0
N180 N 0.61688 0.78178 0.29922 0.0
N181 N 0.58409 0.73948 0.29938 0.0
C182 C 0.71541 0.79972 0.28059 0.0
H183 H 0.70317 0.83559 0.25492 0.0
H184 H 0.73031 0.81407 0.32312 0.0
H185 H 0.74831 0.77841 0.25723 0.0
C186 C 0.5182 0.86384 0.47716 0.0
N187 N 0.5371 0.87674 0.42463 0.0
N188 N 0.57235 0.84116 0.40732 0.0
C189 C 0.58247 0.80796 0.45312 0.0
C190 C 0.54827 0.82153 0.50011 0.0
C191 C 0.47779 0.8974 0.5089 0.0
H192 H 0.44912 0.91662 0.47822 0.0
H193 H 0.49989 0.92924 0.53219 0.0
H194 H 0.4552 0.87256 0.54075 0.0
O195 O 0.48455 0.94322 0.33043 0.0
O196 O 0.52983 0.88844 0.27165 0.0
H197 H 0.61718 0.73295 0.42659 0.0
H198 H 0.63601 0.75358 0.49877 0.0
C199 C 0.62795 0.76805 0.45421 0.0
H200 H 0.66495 0.78678 0.43567 0.0
H201 H 0.54265 0.74177 0.30798 0.0
O202 O 0.51402 0.99563 0.44264 0.0
C203 C 0.4903 0.92192 0.28139 0.0
Co204 Co 0.94342 0.56173 0.67582 0.0
Co205 Co 0.85277 0.50644 0.73778 0.0
C206 C 0.9553 0.44791 0.73672 0.0
O207 O 0.97346 0.49135 0.71369 0.0
O208 O 0.90441 0.44371 0.74425 0.0
C209 C 1.02098 0.54679 0.59816 0.0
O210 O 1.00098 0.49767 0.60195 0.0
C211 C 0.76343 0.43198 0.77448 0.0
C212 C 0.69345 0.48739 0.77309 0.0
C213 C 0.70704 0.43323 0.77908 0.0
N214 N 0.78178 0.48277 0.76457 0.0
N215 N 0.73949 0.51557 0.7644 0.0
C216 C 0.79969 0.38424 0.7832 0.0
H217 H 0.83556 0.39647 0.80888 0.0
H218 H 0.81404 0.36933 0.74067 0.0
H219 H 0.77836 0.35134 0.80656 0.0
C220 C 0.86384 0.58142 0.58666 0.0
N221 N 0.87675 0.5625 0.63917 0.0
N222 N 0.84116 0.52726 0.65647 0.0
C223 C 0.80796 0.51715 0.61067 0.0
C224 C 0.82153 0.55137 0.56369 0.0
C225 C 0.89741 0.62182 0.55492 0.0
H226 H 0.9167 0.65044 0.58562 0.0
H227 H 0.92919 0.59972 0.53155 0.0
H228 H 0.87255 0.64448 0.52315 0.0
O229 O 0.94334 0.61497 0.73336 0.0
O230 O 0.88844 0.56982 0.79211 0.0
H231 H 0.73293 0.48247 0.63719 0.0
H232 H 0.75355 0.46364 0.565 0.0
C233 C 0.76803 0.47169 0.60957 0.0
H234 H 0.78674 0.43468 0.6281 0.0
H235 H 0.74179 0.55701 0.75581 0.0
O236 O 0.99565 0.58545 0.62106 0.0
C237 C 0.92198 0.60929 0.78237 0.0
Co238 Co 0.56176 0.15624 0.38799 0.0
Co239 Co 0.50641 0.24683 0.32603 0.0
C240 C 0.44795 0.14431 0.32705 0.0
O241 O 0.49142 0.12619 0.35005 0.0
O242 O 0.44368 0.1952 0.31957 0.0
C243 C 0.54676 0.07869 0.46563 0.0
O244 O 0.49765 0.09869 0.46178 0.0
C245 C 0.43196 0.33617 0.28933 0.0
C246 C 0.48737 0.40614 0.2907 0.0
C247 C 0.43321 0.39255 0.28473 0.0
N248 N 0.48274 0.31782 0.29923 0.0
N249 N 0.51555 0.36011 0.29938 0.0
C250 C 0.3842 0.29991 0.28062 0.0
H251 H 0.39643 0.26403 0.25495 0.0
H252 H 0.3693 0.28558 0.32316 0.0
H253 H 0.35131 0.32123 0.25727 0.0
C254 C 0.5814 0.23583 0.47716 0.0
N255 N 0.5625 0.22291 0.42464 0.0
N256 N 0.52722 0.25847 0.40735 0.0
C257 C 0.51708 0.29166 0.45316 0.0
C258 C 0.5513 0.27812 0.50013 0.0
C259 C 0.62182 0.2023 0.50889 0.0
H260 H 0.65043 0.18298 0.47819 0.0
H261 H 0.59974 0.17053 0.53231 0.0
H262 H 0.64449 0.22719 0.54063 0.0
O263 O 0.61504 0.15633 0.33049 0.0
O264 O 0.56978 0.21112 0.27171 0.0
H265 H 0.48226 0.36659 0.42654 0.0
H266 H 0.4636 0.34611 0.49883 0.0
C267 C 0.47158 0.33154 0.45428 0.0
H268 H 0.43456 0.31275 0.43587 0.0
H269 H 0.55699 0.3578 0.30797 0.0
O270 O 0.58545 0.10402 0.44277 0.0
C271 C 0.6093 0.17762 0.28146 0.0
Co272 Co 0.65577 0.06423 0.88761 0.0
Co273 Co 0.74701 1.01007 0.82671 0.0
C274 C 0.64518 0.9503 0.82791 0.0
O275 O 0.62626 0.99382 0.84988 0.0
O276 O 0.69618 0.94653 0.82151 0.0
C277 C 0.5787 1.04776 0.96537 0.0
O278 O 0.60003 0.99919 0.96185 0.0
C279 C 0.83816 0.93493 0.80592 0.0
C280 C 0.8938 0.98287 0.75189 0.0
C281 C 0.88856 0.93282 0.77864 0.0
N282 N 0.81496 0.98345 0.79514 0.0
N283 N 0.84832 1.0116 0.76217 0.0
C284 C 0.8146 0.89441 0.84687 0.0
H285 H 0.78523 0.91418 0.87629 0.0
H286 H 0.84697 0.87444 0.87239 0.0
H287 H 0.79212 0.86325 0.82214 0.0
C288 C 0.7343 0.08792 0.97636 0.0
N289 N 0.72239 0.06657 0.92461 0.0
N290 N 0.76022 1.03324 0.90799 0.0
C291 C 0.79437 1.02736 0.95408 0.0
C292 C 0.77842 0.06153 1.00017 0.0
C293 C 0.69894 0.12776 1.0067 0.0
H294 H 0.67897 0.15497 0.97506 0.0
H295 H 0.66772 0.10511 1.03037 0.0
H296 H 0.72266 0.15204 0.03813 0.0
O297 O 0.65507 0.11747 0.83013 0.0
O298 O 0.70987 0.07193 0.77166 0.0
H299 H 0.86049 0.98478 0.91497 0.0
H300 H 0.86823 0.99749 0.99173 0.0
C301 C 0.83912 0.9868 0.957 0.0
H302 H 0.82185 0.94636 0.96676 0.0
H303 H 0.84082 0.05108 0.74817 0.0
O304 O 0.60292 0.08694 0.94209 0.0
C305 C 0.67607 0.11124 0.78102 0.0
Co306 Co 0.06426 0.44385 0.1762 0.0
Co307 Co 1.01004 0.35266 0.23708 0.0
C308 C 0.95033 0.45449 0.23592 0.0
O309 O 0.99389 0.47337 0.21399 0.0
O310 O 0.9465 0.40349 0.24228 0.0
C311 C 1.04774 0.52089 0.09845 0.0
O312 O 0.99917 0.49956 0.10203 0.0
C313 C 0.9349 0.26151 0.2579 0.0
C314 C 0.98285 0.20589 0.31192 0.0
C315 C 0.9328 0.21112 0.28519 0.0
N316 N 0.98342 0.28472 0.26868 0.0
N317 N 1.01158 0.25136 0.30163 0.0
C318 C 0.89437 0.28506 0.21696 0.0
H319 H 0.91413 0.31443 0.18754 0.0
H320 H 0.8744 0.25268 0.19143 0.0
H321 H 0.86321 0.30754 0.2417 0.0
C322 C 0.0879 0.36531 0.08743 0.0
N323 N 0.06656 0.37722 0.13919 0.0
N324 N 1.0332 0.33942 0.1558 0.0
C325 C 1.02729 0.30528 0.1097 0.0
C326 C 0.06147 0.32121 0.06362 0.0
C327 C 0.12776 0.40064 0.0571 0.0
H328 H 0.15495 0.42062 0.08875 0.0
H329 H 0.10513 0.43185 0.03339 0.0
H330 H 0.15204 0.37689 1.0257 0.0
O331 O 0.11753 0.44453 0.23363 0.0
O332 O 0.07189 0.38985 0.29213 0.0
H333 H 0.98466 0.23918 0.14879 0.0
H334 H 0.99735 0.23146 0.07202 0.0
C335 C 0.98669 0.26056 0.10677 0.0
H336 H 0.94626 0.27786 0.09703 0.0
H337 H 0.05106 0.25887 0.31563 0.0
O338 O 0.08694 0.49668 0.1217 0.0
C339 C 0.11124 0.4236 0.28276 0.0
Co340 Co 0.44387 1.03548 0.88766 0.0
Co341 Co 0.35266 0.08962 0.82674 0.0
C342 C 0.45447 0.14938 0.82791 0.0
O343 O 0.47336 0.10586 0.84989 0.0
O344 O 0.40348 0.15317 0.8215 0.0
C345 C 0.52089 0.0521 0.96544 0.0
O346 O 0.49962 0.1007 0.96184 0.0
C347 C 0.26149 0.16472 0.80592 0.0
C348 C 0.20588 0.11674 0.7519 0.0
C349 C 0.2111 0.1668 0.77863 0.0
N350 N 0.28471 0.1162 0.79514 0.0
N351 N 0.25137 0.08803 0.76219 0.0
C352 C 0.28504 0.20527 0.84685 0.0
H353 H 0.31441 0.18552 0.87627 0.0
H354 H 0.25265 0.22523 0.87238 0.0
H355 H 0.30751 0.23643 0.82211 0.0
C356 C 0.3653 1.01176 0.97636 0.0
N357 N 0.37722 1.03312 0.92461 0.0
N358 N 0.33942 0.06648 0.90801 0.0
C359 C 0.30527 0.07237 0.95411 0.0
C360 C 0.3212 1.03818 1.00018 0.0
C361 C 0.40063 0.9719 1.00668 0.0
H362 H 0.42069 0.94476 0.97502 0.0
H363 H 0.43178 0.99453 1.03047 0.0
H364 H 0.37687 0.94755 0.038 0.0
O365 O 0.44464 0.98222 0.8302 0.0
O366 O 0.38984 1.02774 0.77172 0.0
H367 H 0.23917 0.11499 0.91504 0.0
H368 H 0.23146 0.10231 0.99181 0.0
C369 C 0.26055 0.11297 0.95706 0.0
H370 H 0.27786 0.1534 0.9668 0.0
H371 H 0.25888 1.04854 0.74819 0.0
O372 O 0.49668 1.01288 0.94223 0.0
C373 C 0.42366 0.98845 0.78108 0.0
Co374 Co 1.03552 0.65574 0.17614 0.0
Co375 Co 0.08959 0.74702 0.23708 0.0
C376 C 0.14941 0.6452 0.23587 0.0
O377 O 0.10592 0.62626 0.21385 0.0
O378 O 0.15313 0.69619 0.24233 0.0
C379 C 0.05208 0.5787 0.09835 0.0
O380 O 0.10068 0.59998 0.10188 0.0
C381 C 0.16469 0.83818 0.25788 0.0
C382 C 0.11673 0.89381 0.31191 0.0
C383 C 0.16678 0.88858 0.28517 0.0
N384 N 0.11617 0.81497 0.26866 0.0
N385 N 0.08801 0.84833 0.30163 0.0
C386 C 0.20522 0.81463 0.21693 0.0
H387 H 0.18546 0.78526 0.18751 0.0
H388 H 0.22519 0.84701 0.19141 0.0
H389 H 0.23638 0.79215 0.24166 0.0
C390 C 1.01174 0.73431 0.08746 0.0
N391 N 1.03311 0.7224 0.1392 0.0
N392 N 0.06644 0.76022 0.15581 0.0
C393 C 0.0723 0.79438 0.10972 0.0
C394 C 1.03812 0.77843 0.06365 0.0
C395 C 0.9719 0.69894 0.05713 0.0
H396 H 0.94475 0.6789 0.08879 0.0
H397 H 0.99456 0.66778 0.03338 0.0
H398 H 0.94757 0.72268 1.02578 0.0
O399 O 0.98229 0.65495 0.23365 0.0
O400 O 1.0277 0.70988 0.2921 0.0
H401 H 0.11487 0.86051 0.14882 0.0
H402 H 0.10216 0.86824 0.07206 0.0
C403 C 0.11286 0.83914 0.10679 0.0
H404 H 0.1533 0.82188 0.09702 0.0
H405 H 1.04853 0.84082 0.31563 0.0
O406 O 1.01288 0.60292 0.12159 0.0
C407 C 0.98845 0.67601 0.28274 0.0
Co408 Co 0.65626 1.03783 0.17585 0.0
Co409 Co 0.74684 0.09322 0.23781 0.0
C410 C 0.64433 0.15166 0.23674 0.0
O411 O 0.62616 0.10818 0.21377 0.0
O412 O 0.69521 0.15594 0.24425 0.0
C413 C 0.5787 0.05269 0.09823 0.0
O414 O 0.59874 0.10179 0.10205 0.0
C415 C 0.83617 0.16768 0.27451 0.0
C416 C 0.90615 0.11228 0.27312 0.0
C417 C 0.89256 0.16644 0.27911 0.0
N418 N 0.81783 0.1169 0.2646 0.0
N419 N 0.86012 0.08409 0.26443 0.0
C420 C 0.79991 0.21543 0.28324 0.0
H421 H 0.76403 0.2032 0.30891 0.0
H422 H 0.78557 0.23033 0.24071 0.0
H423 H 0.82122 0.24832 0.3066 0.0
C424 C 0.73582 1.01824 0.08664 0.0
N425 N 0.72291 1.03713 0.13917 0.0
N426 N 0.75847 0.0724 0.15648 0.0
C427 C 0.79166 0.08255 0.11067 0.0
C428 C 0.77811 1.04833 0.06368 0.0
C429 C 0.7023 0.9778 0.0549 0.0
H430 H 0.68304 0.94915 0.08559 0.0
H431 H 0.67049 0.99987 1.03154 0.0
H432 H 0.72718 0.95518 1.02311 0.0
O433 O 0.65641 0.98455 0.23332 0.0
O434 O 0.71113 1.02986 0.29214 0.0
H435 H 0.8666 0.11735 0.13727 0.0
H436 H 0.84608 0.13606 0.06501 0.0
C437 C 0.83154 0.12805 0.10957 0.0
H438 H 0.81276 0.16506 0.12802 0.0
H439 H 0.85782 1.04265 0.25583 0.0
O440 O 0.60404 1.01404 0.12112 0.0
C441 C 0.67767 0.99032 0.28237 0.0
Co442 Co 1.03785 0.44339 0.88795 0.0
Co443 Co 0.09319 0.35276 0.82599 0.0
C444 C 0.15168 0.45528 0.8271 0.0
O445 O 0.10823 0.47348 0.85009 0.0
O446 O 0.15591 0.40439 0.81955 0.0
C447 C 0.05266 0.52098 0.96559 0.0
O448 O 0.10176 0.50094 0.96182 0.0
C449 C 0.16766 0.26342 0.78929 0.0
C450 C 0.11226 0.19343 0.79071 0.0
C451 C 0.16642 0.20704 0.78471 0.0
N452 N 0.11687 0.28176 0.79921 0.0
N453 N 0.08407 0.23947 0.79939 0.0
C454 C 0.21539 0.29969 0.78055 0.0
H455 H 0.20315 0.33556 0.75487 0.0
H456 H 0.2303 0.31405 0.82307 0.0
H457 H 0.24829 0.27838 0.75719 0.0
C458 C 1.01821 0.36383 0.97716 0.0
N459 N 1.03712 0.37674 0.92463 0.0
N460 N 0.07236 0.34115 0.90732 0.0
C461 C 0.08248 0.30795 0.95312 0.0
C462 C 1.04827 0.32152 1.00011 0.0
C463 C 0.97779 0.39739 1.0089 0.0
H464 H 0.94913 0.41662 0.97821 0.0
H465 H 0.99988 0.42922 0.03221 0.0
H466 H 0.95519 0.37254 0.04072 0.0
O467 O 0.9846 0.44325 0.83044 0.0
O468 O 1.02983 0.38843 0.77165 0.0
H469 H 0.11716 0.23292 0.92661 0.0
H470 H 0.13601 0.25357 0.99877 0.0
C471 C 0.12794 0.26803 0.95421 0.0
H472 H 0.16494 0.28674 0.93565 0.0
H473 H 1.04264 0.24176 0.808 0.0
O474 O 1.01403 0.49562 0.94267 0.0
C475 C 0.99033 0.42193 0.78141 0.0
Co476 Co 0.44343 0.06168 0.1758 0.0
Co477 Co 0.35276 1.00643 0.23779 0.0
C478 C 0.45527 0.94788 0.23669 0.0
O479 O 0.47349 0.9913 0.21364 0.0
O480 O 0.40439 0.9437 0.24428 0.0
C481 C 0.52099 1.04677 0.09813 0.0
O482 O 0.501 0.99765 0.10192 0.0
C483 C 0.26341 0.932 0.2745 0.0
C484 C 0.19344 0.98741 0.27308 0.0
C485 C 0.20703 0.93325 0.27909 0.0
N486 N 0.28176 0.98278 0.26458 0.0
N487 N 0.23948 1.01559 0.26439 0.0
C488 C 0.29966 0.88425 0.28325 0.0
H489 H 0.33553 0.89649 0.30893 0.0
H490 H 0.31403 0.86934 0.24072 0.0
H491 H 0.27834 0.85137 0.3066 0.0
C492 C 0.36384 0.08141 0.08666 0.0
N493 N 0.37676 0.06248 0.13917 0.0
N494 N 0.34116 1.02724 0.15647 0.0
C495 C 0.30795 1.01715 0.11067 0.0
C496 C 0.32152 0.05137 0.0637 0.0
C497 C 0.3974 0.12182 0.05493 0.0
H498 H 0.41671 0.15043 0.08563 0.0
H499 H 0.42917 0.09972 1.03153 0.0
H500 H 0.37254 0.14449 1.02318 0.0
O501 O 0.44338 0.11491 0.23335 0.0
O502 O 0.38843 0.06981 0.2921 0.0
H503 H 0.2329 0.9825 0.13717 0.0
H504 H 0.25354 0.96364 0.065 0.0
C505 C 0.268 0.9717 0.10957 0.0
H506 H 0.28669 0.93469 0.12812 0.0
H507 H 0.24178 0.05702 0.25578 0.0
O508 O 0.49564 0.08543 0.12103 0.0
C509 C 0.422 0.10926 0.28235 0.0
Co510 Co 0.06171 0.65623 0.88801 0.0
Co511 Co 1.0064 0.74684 0.82602 0.0
C512 C 0.94792 0.64434 0.82709 0.0
O513 O 0.99136 0.62616 0.8501 0.0
O514 O 0.94367 0.69522 0.81954 0.0
C515 C 1.04675 0.57869 0.96566 0.0
O516 O 0.99763 0.59867 0.96181 0.0
C517 C 0.93197 0.83619 0.78931 0.0
C518 C 0.98739 0.90616 0.79071 0.0
C519 C 0.93323 0.89258 0.78472 0.0
N520 N 0.98275 0.81784 0.79922 0.0
N521 N 1.01556 0.86012 0.7994 0.0
C522 C 0.88422 0.79994 0.78058 0.0
H523 H 0.89645 0.76406 0.7549 0.0
H524 H 0.86931 0.78559 0.82311 0.0
H525 H 0.85133 0.82126 0.75723 0.0
C526 C 0.08138 0.73583 0.97716 0.0
N527 N 0.06247 0.72291 0.92464 0.0
N528 N 1.0272 0.75847 0.90735 0.0
C529 C 1.01708 0.79167 0.95316 0.0
C530 C 0.0513 0.77813 1.00013 0.0
C531 C 0.12182 0.7023 1.00888 0.0
H532 H 0.15041 0.68297 0.97818 0.0
H533 H 0.09974 0.67055 0.03233 0.0
H534 H 0.1445 0.7272 0.0406 0.0
O535 O 0.11497 0.6563 0.8305 0.0
O536 O 0.06978 0.71113 0.77172 0.0
H537 H 0.98229 0.86663 0.92657 0.0
H538 H 0.9636 0.84612 0.99883 0.0
C539 C 0.97159 0.83157 0.95428 0.0
H540 H 0.93457 0.81279 0.93585 0.0
H541 H 0.057 0.85782 0.808 0.0
O542 O 0.08542 0.60403 0.94279 0.0
C543 C 0.10926 0.67761 0.78147 0.0
loop_
_geom_bond_atom_site_label_1
_geom_bond_atom_site_label_2
_geom_bond_distance
_geom_bond_site_symmetry_2
_ccdc_geom_bond_type
Co0 O3 1.970 . S
Co0 N17 1.989 . S
Co0 O25 1.967 . S
Co0 O32 1.920 . S
Co1 O4 1.966 . S
Co1 N10 2.022 . S
Co1 N18 1.993 . S
Co1 O26 1.941 . S
C2 O3 1.258 . S
C2 O4 1.263 . S
O3 Co0 1.970 . S
O3 C2 1.258 . S
O4 Co1 1.966 . S
O4 C2 1.263 . S
C5 O6 1.235 . S
C5 O32 1.289 1_655 S
O6 C5 1.235 . S
C7 C9 1.400 . S
C7 N10 1.351 . S
C7 C12 1.501 . S
C8 C9 1.387 . S
C8 N11 1.341 . S
C9 C7 1.400 . S
C9 C8 1.387 . S
N10 Co1 2.022 . S
N10 C7 1.351 . S
N10 N11 1.365 . S
N11 C8 1.341 . S
N11 N10 1.365 . S
N11 H31 0.862 . S
C12 C7 1.501 . S
C12 H13 0.961 . S
C12 H14 0.961 . S
C12 H15 0.960 . S
H13 C12 0.961 . S
H14 C12 0.961 . S
H15 C12 0.960 . S
C16 N17 1.342 . S
C16 C20 1.401 . S
C16 C21 1.499 . S
N17 Co0 1.989 . S
N17 C16 1.342 . S
N17 N18 1.388 . S
N18 Co1 1.993 . S
N18 N17 1.388 . S
N18 C19 1.346 . S
C19 N18 1.346 . S
C19 C20 1.396 . S
C19 C29 1.510 . S
C20 C16 1.401 . S
C20 C19 1.396 . S
C21 C16 1.499 . S
C21 H22 0.959 . S
C21 H23 0.960 . S
C21 H24 0.961 . S
H22 C21 0.959 . S
H23 C21 0.960 . S
H24 C21 0.961 . S
O25 Co0 1.967 . S
O25 C33 1.258 . S
O26 Co1 1.941 . S
O26 C33 1.266 . S
H27 C29 0.959 . S
H28 C29 0.961 . S
C29 C19 1.510 . S
C29 H27 0.959 . S
C29 H28 0.961 . S
C29 H30 0.960 . S
H30 C29 0.960 . S
H31 N11 0.862 . S
O32 Co0 1.920 . S
O32 C5 1.289 1_455 S
C33 O25 1.258 . S
C33 O26 1.266 . S
Co34 O37 1.970 . S
Co34 N51 1.989 . S
Co34 O59 1.967 . S
Co34 O66 1.920 . S
Co35 O38 1.966 . S
Co35 N44 2.022 . S
Co35 N52 1.993 . S
Co35 O60 1.941 . S
C36 O37 1.258 . S
C36 O38 1.263 . S
O37 Co34 1.970 . S
O37 C36 1.258 . S
O38 Co35 1.966 . S
O38 C36 1.263 . S
C39 O40 1.235 . S
C39 O66 1.289 1_545 S
O40 C39 1.235 . S
C41 C43 1.400 . S
C41 N44 1.351 . S
C41 C46 1.501 . S
C42 C43 1.387 . S
C42 N45 1.341 . S
C43 C41 1.400 . S
C43 C42 1.387 . S
N44 Co35 2.022 . S
N44 C41 1.351 . S
N44 N45 1.365 . S
N45 C42 1.341 . S
N45 N44 1.365 . S
N45 H65 0.862 . S
C46 C41 1.501 . S
C46 H47 0.961 . S
C46 H48 0.961 . S
C46 H49 0.960 . S
H47 C46 0.961 . S
H48 C46 0.961 . S
H49 C46 0.960 . S
C50 N51 1.342 . S
C50 C54 1.401 . S
C50 C55 1.499 . S
N51 Co34 1.989 . S
N51 C50 1.342 . S
N51 N52 1.388 . S
N52 Co35 1.993 . S
N52 N51 1.388 . S
N52 C53 1.346 . S
C53 N52 1.346 . S
C53 C54 1.396 . S
C53 C63 1.510 . S
C54 C50 1.401 . S
C54 C53 1.396 . S
C55 C50 1.499 . S
C55 H56 0.959 . S
C55 H57 0.960 . S
C55 H58 0.961 . S
H56 C55 0.959 . S
H57 C55 0.960 . S
H58 C55 0.961 . S
O59 Co34 1.967 . S
O59 C67 1.258 . S
O60 Co35 1.941 . S
O60 C67 1.266 . S
H61 C63 0.959 . S
H62 C63 0.961 . S
C63 C53 1.510 . S
C63 H61 0.959 . S
C63 H62 0.961 . S
C63 H64 0.960 . S
H64 C63 0.960 . S
H65 N45 0.862 . S
O66 Co34 1.920 . S
O66 C39 1.289 1_565 S
C67 O59 1.258 . S
C67 O60 1.266 . S
Co68 O71 1.970 . S
Co68 N85 1.989 . S
Co68 O93 1.967 . S
Co68 O100 1.920 . S
Co69 O72 1.966 . S
Co69 N78 2.022 . S
Co69 N86 1.993 . S
Co69 O94 1.941 . S
C70 O71 1.258 . S
C70 O72 1.263 . S
O71 Co68 1.970 . S
O71 C70 1.258 . S
O72 Co69 1.966 . S
O72 C70 1.263 . S
C73 O74 1.235 . S
C73 O100 1.289 1_455 S
O74 C73 1.235 . S
C75 C77 1.400 . S
C75 N78 1.351 . S
C75 C80 1.501 . S
C76 C77 1.387 . S
C76 N79 1.341 . S
C77 C75 1.400 . S
C77 C76 1.387 . S
N78 Co69 2.022 . S
N78 C75 1.351 . S
N78 N79 1.365 . S
N79 C76 1.341 . S
N79 N78 1.365 . S
N79 H99 0.862 . S
C80 C75 1.501 . S
C80 H81 0.961 . S
C80 H82 0.961 . S
C80 H83 0.960 . S
H81 C80 0.961 . S
H82 C80 0.961 . S
H83 C80 0.960 . S
C84 N85 1.342 . S
C84 C88 1.401 . S
C84 C89 1.499 . S
N85 Co68 1.989 . S
N85 C84 1.342 . S
N85 N86 1.388 . S
N86 Co69 1.993 . S
N86 N85 1.388 . S
N86 C87 1.346 . S
C87 N86 1.346 . S
C87 C88 1.396 . S
C87 C97 1.510 . S
C88 C84 1.401 . S
C88 C87 1.396 . S
C89 C84 1.499 . S
C89 H90 0.959 . S
C89 H91 0.960 . S
C89 H92 0.961 . S
H90 C89 0.959 . S
H91 C89 0.960 . S
H92 C89 0.961 . S
O93 Co68 1.967 . S
O93 C101 1.258 . S
O94 Co69 1.941 . S
O94 C101 1.266 . S
H95 C97 0.959 . S
H96 C97 0.961 . S
C97 C87 1.510 . S
C97 H95 0.959 . S
C97 H96 0.961 . S
C97 H98 0.960 . S
H98 C97 0.960 . S
H99 N79 0.862 . S
O100 Co68 1.920 . S
O100 C73 1.289 1_655 S
C101 O93 1.258 . S
C101 O94 1.266 . S
Co102 O105 1.970 . S
Co102 N119 1.989 . S
Co102 O127 1.967 . S
Co102 O134 1.920 . S
Co103 O106 1.966 . S
Co103 N112 2.022 . S
Co103 N120 1.993 . S
Co103 O128 1.941 . S
C104 O105 1.258 . S
C104 O106 1.263 . S
O105 Co102 1.970 . S
O105 C104 1.258 . S
O106 Co103 1.966 . S
O106 C104 1.263 . S
C107 O108 1.235 . S
C107 O134 1.289 1_565 S
O108 C107 1.235 . S
C109 C111 1.400 . S
C109 N112 1.351 . S
C109 C114 1.501 . S
C110 C111 1.387 . S
C110 N113 1.341 . S
C111 C109 1.400 . S
C111 C110 1.387 . S
N112 Co103 2.022 . S
N112 C109 1.351 . S
N112 N113 1.365 . S
N113 C110 1.341 . S
N113 N112 1.365 . S
N113 H133 0.862 . S
C114 C109 1.501 . S
C114 H115 0.961 . S
C114 H116 0.961 . S
C114 H117 0.960 . S
H115 C114 0.961 . S
H116 C114 0.961 . S
H117 C114 0.960 . S
C118 N119 1.342 . S
C118 C122 1.401 . S
C118 C123 1.499 . S
N119 Co102 1.989 . S
N119 C118 1.342 . S
N119 N120 1.388 . S
N120 Co103 1.993 . S
N120 N119 1.388 . S
N120 C121 1.346 . S
C121 N120 1.346 . S
C121 C122 1.396 . S
C121 C131 1.510 . S
C122 C118 1.401 . S
C122 C121 1.396 . S
C123 C118 1.499 . S
C123 H124 0.959 . S
C123 H125 0.960 . S
C123 H126 0.961 . S
H124 C123 0.959 . S
H125 C123 0.960 . S
H126 C123 0.961 . S
O127 Co102 1.967 . S
O127 C135 1.258 . S
O128 Co103 1.941 . S
O128 C135 1.266 . S
H129 C131 0.959 . S
H130 C131 0.961 . S
C131 C121 1.510 . S
C131 H129 0.959 . S
C131 H130 0.961 . S
C131 H132 0.960 . S
H132 C131 0.960 . S
H133 N113 0.862 . S
O134 Co102 1.920 . S
O134 C107 1.289 1_545 S
C135 O127 1.258 . S
C135 O128 1.266 . S
Co136 O139 1.970 . S
Co136 N153 1.989 . S
Co136 O161 1.967 . S
Co136 O168 1.920 . S
Co137 O140 1.966 . S
Co137 N146 2.022 . S
Co137 N154 1.993 . S
Co137 O162 1.941 . S
C138 O139 1.258 . S
C138 O140 1.263 . S
O139 Co136 1.970 . S
O139 C138 1.258 . S
O140 Co137 1.966 . S
O140 C138 1.263 . S
C141 O142 1.235 . S
C141 O168 1.289 1_655 S
O142 C141 1.235 . S
C143 C145 1.400 . S
C143 N146 1.351 . S
C143 C148 1.501 . S
C144 C145 1.387 . S
C144 N147 1.341 . S
C145 C143 1.400 . S
C145 C144 1.387 . S
N146 Co137 2.022 . S
N146 C143 1.351 . S
N146 N147 1.365 . S
N147 C144 1.341 . S
N147 N146 1.365 . S
N147 H167 0.862 . S
C148 C143 1.501 . S
C148 H149 0.961 . S
C148 H150 0.961 . S
C148 H151 0.960 . S
H149 C148 0.961 . S
H150 C148 0.961 . S
H151 C148 0.960 . S
C152 N153 1.342 . S
C152 C156 1.401 . S
C152 C157 1.499 . S
N153 Co136 1.989 . S
N153 C152 1.342 . S
N153 N154 1.388 . S
N154 Co137 1.993 . S
N154 N153 1.388 . S
N154 C155 1.346 . S
C155 N154 1.346 . S
C155 C156 1.396 . S
C155 C165 1.510 . S
C156 C152 1.401 . S
C156 C155 1.396 . S
C157 C152 1.499 . S
C157 H158 0.959 . S
C157 H159 0.960 . S
C157 H160 0.961 . S
H158 C157 0.959 . S
H159 C157 0.960 . S
H160 C157 0.961 . S
O161 Co136 1.967 . S
O161 C169 1.258 . S
O162 Co137 1.941 . S
O162 C169 1.266 . S
H163 C165 0.959 . S
H164 C165 0.961 . S
C165 C155 1.510 . S
C165 H163 0.959 . S
C165 H164 0.961 . S
C165 H166 0.960 . S
H166 C165 0.960 . S
H167 N147 0.862 . S
O168 Co136 1.920 . S
O168 C141 1.289 1_455 S
C169 O161 1.258 . S
C169 O162 1.266 . S
Co170 O173 1.970 . S
Co170 N187 1.989 . S
Co170 O195 1.967 . S
Co170 O202 1.920 . S
Co171 O174 1.966 . S
Co171 N180 2.022 . S
Co171 N188 1.993 . S
Co171 O196 1.941 . S
C172 O173 1.258 . S
C172 O174 1.263 . S
O173 Co170 1.970 . S
O173 C172 1.258 . S
O174 Co171 1.966 . S
O174 C172 1.263 . S
C175 O176 1.235 . S
C175 O202 1.289 1_545 S
O176 C175 1.235 . S
C177 C179 1.400 . S
C177 N180 1.351 . S
C177 C182 1.501 . S
C178 C179 1.387 . S
C178 N181 1.341 . S
C179 C177 1.400 . S
C179 C178 1.387 . S
N180 Co171 2.022 . S
N180 C177 1.351 . S
N180 N181 1.365 . S
N181 C178 1.341 . S
N181 N180 1.365 . S
N181 H201 0.862 . S
C182 C177 1.501 . S
C182 H183 0.961 . S
C182 H184 0.961 . S
C182 H185 0.960 . S
H183 C182 0.961 . S
H184 C182 0.961 . S
H185 C182 0.960 . S
C186 N187 1.342 . S
C186 C190 1.401 . S
C186 C191 1.499 . S
N187 Co170 1.989 . S
N187 C186 1.342 . S
N187 N188 1.388 . S
N188 Co171 1.993 . S
N188 N187 1.388 . S
N188 C189 1.346 . S
C189 N188 1.346 . S
C189 C190 1.396 . S
C189 C199 1.510 . S
C190 C186 1.401 . S
C190 C189 1.396 . S
C191 C186 1.499 . S
C191 H192 0.959 . S
C191 H193 0.960 . S
C191 H194 0.961 . S
H192 C191 0.959 . S
H193 C191 0.960 . S
H194 C191 0.961 . S
O195 Co170 1.967 . S
O195 C203 1.258 . S
O196 Co171 1.941 . S
O196 C203 1.266 . S
H197 C199 0.959 . S
H198 C199 0.961 . S
C199 C189 1.510 . S
C199 H197 0.959 . S
C199 H198 0.961 . S
C199 H200 0.960 . S
H200 C199 0.960 . S
H201 N181 0.862 . S
O202 Co170 1.920 . S
O202 C175 1.289 1_565 S
C203 O195 1.258 . S
C203 O196 1.266 . S
Co204 O207 1.970 . S
Co204 N221 1.989 . S
Co204 O229 1.967 . S
Co204 O236 1.920 . S
Co205 O208 1.966 . S
Co205 N214 2.022 . S
Co205 N222 1.993 . S
Co205 O230 1.941 . S
C206 O207 1.258 . S
C206 O208 1.263 . S
O207 Co204 1.970 . S
O207 C206 1.258 . S
O208 Co205 1.966 . S
O208 C206 1.263 . S
C209 O210 1.235 . S
C209 O236 1.289 1_455 S
O210 C209 1.235 . S
C211 C213 1.400 . S
C211 N214 1.351 . S
C211 C216 1.501 . S
C212 C213 1.387 . S
C212 N215 1.341 . S
C213 C211 1.400 . S
C213 C212 1.387 . S
N214 Co205 2.022 . S
N214 C211 1.351 . S
N214 N215 1.365 . S
N215 C212 1.341 . S
N215 N214 1.365 . S
N215 H235 0.862 . S
C216 C211 1.501 . S
C216 H217 0.961 . S
C216 H218 0.961 . S
C216 H219 0.960 . S
H217 C216 0.961 . S
H218 C216 0.961 . S
H219 C216 0.960 . S
C220 N221 1.342 . S
C220 C224 1.401 . S
C220 C225 1.499 . S
N221 Co204 1.989 . S
N221 C220 1.342 . S
N221 N222 1.388 . S
N222 Co205 1.993 . S
N222 N221 1.388 . S
N222 C223 1.346 . S
C223 N222 1.346 . S
C223 C224 1.396 . S
C223 C233 1.510 . S
C224 C220 1.401 . S
C224 C223 1.396 . S
C225 C220 1.499 . S
C225 H226 0.959 . S
C225 H227 0.960 . S
C225 H228 0.961 . S
H226 C225 0.959 . S
H227 C225 0.960 . S
H228 C225 0.961 . S
O229 Co204 1.967 . S
O229 C237 1.258 . S
O230 Co205 1.941 . S
O230 C237 1.266 . S
H231 C233 0.959 . S
H232 C233 0.961 . S
C233 C223 1.510 . S
C233 H231 0.959 . S
C233 H232 0.961 . S
C233 H234 0.960 . S
H234 C233 0.960 . S
H235 N215 0.862 . S
O236 Co204 1.920 . S
O236 C209 1.289 1_655 S
C237 O229 1.258 . S
C237 O230 1.266 . S
Co238 O241 1.970 . S
Co238 N255 1.989 . S
Co238 O263 1.967 . S
Co238 O270 1.920 . S
Co239 O242 1.966 . S
Co239 N248 2.022 . S
Co239 N256 1.993 . S
Co239 O264 1.941 . S
C240 O241 1.258 . S
C240 O242 1.263 . S
O241 Co238 1.970 . S
O241 C240 1.258 . S
O242 Co239 1.966 . S
O242 C240 1.263 . S
C243 O244 1.235 . S
C243 O270 1.289 1_565 S
O244 C243 1.235 . S
C245 C247 1.400 . S
C245 N248 1.351 . S
C245 C250 1.501 . S
C246 C247 1.387 . S
C246 N249 1.341 . S
C247 C245 1.400 . S
C247 C246 1.387 . S
N248 Co239 2.022 . S
N248 C245 1.351 . S
N248 N249 1.365 . S
N249 C246 1.341 . S
N249 N248 1.365 . S
N249 H269 0.862 . S
C250 C245 1.501 . S
C250 H251 0.961 . S
C250 H252 0.961 . S
C250 H253 0.960 . S
H251 C250 0.961 . S
H252 C250 0.961 . S
H253 C250 0.960 . S
C254 N255 1.342 . S
C254 C258 1.401 . S
C254 C259 1.499 . S
N255 Co238 1.989 . S
N255 C254 1.342 . S
N255 N256 1.388 . S
N256 Co239 1.993 . S
N256 N255 1.388 . S
N256 C257 1.346 . S
C257 N256 1.346 . S
C257 C258 1.396 . S
C257 C267 1.510 . S
C258 C254 1.401 . S
C258 C257 1.396 . S
C259 C254 1.499 . S
C259 H260 0.959 . S
C259 H261 0.960 . S
C259 H262 0.961 . S
H260 C259 0.959 . S
H261 C259 0.960 . S
H262 C259 0.961 . S
O263 Co238 1.967 . S
O263 C271 1.258 . S
O264 Co239 1.941 . S
O264 C271 1.266 . S
H265 C267 0.959 . S
H266 C267 0.961 . S
C267 C257 1.510 . S
C267 H265 0.959 . S
C267 H266 0.961 . S
C267 H268 0.960 . S
H268 C267 0.960 . S
H269 N249 0.862 . S
O270 Co238 1.920 . S
O270 C243 1.289 1_545 S
C271 O263 1.258 . S
C271 O264 1.266 . S
Co272 O275 1.970 . S
Co272 N289 1.989 . S
Co272 O297 1.967 1_565 S
Co272 O304 1.920 1_565 S
Co273 O276 1.966 . S
Co273 N282 2.022 . S
Co273 N290 1.993 . S
Co273 O298 1.941 1_565 S
C274 O275 1.258 . S
C274 O276 1.263 . S
O275 Co272 1.970 . S
O275 C274 1.258 . S
O276 Co273 1.966 . S
O276 C274 1.263 . S
C277 O278 1.235 1_545 S
C277 O304 1.289 . S
O278 C277 1.235 1_565 S
C279 C281 1.400 . S
C279 N282 1.351 . S
C279 C284 1.501 . S
C280 C281 1.387 . S
C280 N283 1.341 . S
C281 C279 1.400 . S
C281 C280 1.387 . S
N282 Co273 2.022 . S
N282 C279 1.351 . S
N282 N283 1.365 . S
N283 C280 1.341 . S
N283 N282 1.365 . S
N283 H303 0.862 . S
C284 C279 1.501 . S
C284 H285 0.961 . S
C284 H286 0.961 . S
C284 H287 0.960 . S
H285 C284 0.961 . S
H286 C284 0.961 . S
H287 C284 0.960 . S
C288 N289 1.338 1_545 S
C288 C292 1.397 1_545 S
C288 C293 1.506 . S
N289 Co272 1.989 . S
N289 C288 1.338 1_565 S
N289 N290 1.388 . S
N290 Co273 1.993 . S
N290 N289 1.388 . S
N290 C291 1.346 . S
C291 N290 1.346 . S
C291 C292 1.396 . S
C291 C301 1.510 . S
C292 C288 1.397 1_565 S
C292 C291 1.396 . S
C293 C288 1.506 . S
C293 H294 0.959 . S
C293 H295 0.960 . S
C293 H296 0.961 . S
H294 C293 0.959 . S
H295 C293 0.960 . S
H296 C293 0.961 . S
O297 Co272 1.967 1_545 S
O297 C305 1.258 . S
O298 Co273 1.941 1_545 S
O298 C305 1.266 . S
H299 C301 0.959 . S
H300 C301 0.961 . S
C301 C291 1.510 . S
C301 H299 0.959 . S
C301 H300 0.961 . S
C301 H302 0.960 . S
H302 C301 0.960 . S
H303 N283 0.862 . S
O304 Co272 1.920 1_545 S
O304 C277 1.289 . S
C305 O297 1.258 . S
C305 O298 1.266 . S
Co306 O309 1.970 . S
Co306 N323 1.989 . S
Co306 O331 1.967 1_655 S
Co306 O338 1.920 1_655 S
Co307 O310 1.966 . S
Co307 N316 2.022 . S
Co307 N324 1.993 . S
Co307 O332 1.941 1_655 S
C308 O309 1.258 . S
C308 O310 1.263 . S
O309 Co306 1.970 . S
O309 C308 1.258 . S
O310 Co307 1.966 . S
O310 C308 1.263 . S
C311 O312 1.235 1_455 S
C311 O338 1.289 . S
O312 C311 1.235 1_655 S
C313 C315 1.400 . S
C313 N316 1.351 . S
C313 C318 1.501 . S
C314 C315 1.387 . S
C314 N317 1.341 . S
C315 C313 1.400 . S
C315 C314 1.387 . S
N316 Co307 2.022 . S
N316 C313 1.351 . S
N316 N317 1.365 . S
N317 C314 1.341 . S
N317 N316 1.365 . S
N317 H337 0.862 . S
C318 C313 1.501 . S
C318 H319 0.961 . S
C318 H320 0.961 . S
C318 H321 0.960 . S
H319 C318 0.961 . S
H320 C318 0.961 . S
H321 C318 0.960 . S
C322 N323 1.338 1_455 S
C322 C326 1.397 1_455 S
C322 C327 1.506 . S
N323 Co306 1.989 . S
N323 C322 1.338 1_655 S
N323 N324 1.388 . S
N324 Co307 1.993 . S
N324 N323 1.388 . S
N324 C325 1.346 . S
C325 N324 1.346 . S
C325 C326 1.396 . S
C325 C335 1.510 . S
C326 C322 1.397 1_655 S
C326 C325 1.396 . S
C327 C322 1.506 . S
C327 H328 0.959 . S
C327 H329 0.960 . S
C327 H330 0.961 . S
H328 C327 0.959 . S
H329 C327 0.960 . S
H330 C327 0.961 . S
O331 Co306 1.967 1_455 S
O331 C339 1.258 . S
O332 Co307 1.941 1_455 S
O332 C339 1.266 . S
H333 C335 0.959 . S
H334 C335 0.961 . S
C335 C325 1.510 . S
C335 H333 0.959 . S
C335 H334 0.961 . S
C335 H336 0.960 . S
H336 C335 0.960 . S
H337 N317 0.862 . S
O338 Co306 1.920 1_455 S
O338 C311 1.289 . S
C339 O331 1.258 . S
C339 O332 1.266 . S
Co340 O343 1.970 . S
Co340 N357 1.989 . S
Co340 O365 1.967 1_545 S
Co340 O372 1.920 1_545 S
Co341 O344 1.966 . S
Co341 N350 2.022 . S
Co341 N358 1.993 . S
Co341 O366 1.941 1_545 S
C342 O343 1.258 . S
C342 O344 1.263 . S
O343 Co340 1.970 . S
O343 C342 1.258 . S
O344 Co341 1.966 . S
O344 C342 1.263 . S
C345 O346 1.235 1_565 S
C345 O372 1.289 . S
O346 C345 1.235 1_545 S
C347 C349 1.400 . S
C347 N350 1.351 . S
C347 C352 1.501 . S
C348 C349 1.387 . S
C348 N351 1.341 . S
C349 C347 1.400 . S
C349 C348 1.387 . S
N350 Co341 2.022 . S
N350 C347 1.351 . S
N350 N351 1.365 . S
N351 C348 1.341 . S
N351 N350 1.365 . S
N351 H371 0.862 . S
C352 C347 1.501 . S
C352 H353 0.961 . S
C352 H354 0.961 . S
C352 H355 0.960 . S
H353 C352 0.961 . S
H354 C352 0.961 . S
H355 C352 0.960 . S
C356 N357 1.338 1_565 S
C356 C360 1.397 1_565 S
C356 C361 1.506 . S
N357 Co340 1.989 . S
N357 C356 1.338 1_545 S
N357 N358 1.388 . S
N358 Co341 1.993 . S
N358 N357 1.388 . S
N358 C359 1.346 . S
C359 N358 1.346 . S
C359 C360 1.396 . S
C359 C369 1.510 . S
C360 C356 1.397 1_545 S
C360 C359 1.396 . S
C361 C356 1.506 . S
C361 H362 0.959 . S
C361 H363 0.960 . S
C361 H364 0.961 . S
H362 C361 0.959 . S
H363 C361 0.960 . S
H364 C361 0.961 . S
O365 Co340 1.967 1_565 S
O365 C373 1.258 . S
O366 Co341 1.941 1_565 S
O366 C373 1.266 . S
H367 C369 0.959 . S
H368 C369 0.961 . S
C369 C359 1.510 . S
C369 H367 0.959 . S
C369 H368 0.961 . S
C369 H370 0.960 . S
H370 C369 0.960 . S
H371 N351 0.862 . S
O372 Co340 1.920 1_565 S
O372 C345 1.289 . S
C373 O365 1.258 . S
C373 O366 1.266 . S
Co374 O377 1.970 . S
Co374 N391 1.989 . S
Co374 O399 1.967 1_455 S
Co374 O406 1.920 1_455 S
Co375 O378 1.966 . S
Co375 N384 2.022 . S
Co375 N392 1.993 . S
Co375 O400 1.941 1_455 S
C376 O377 1.258 . S
C376 O378 1.263 . S
O377 Co374 1.970 . S
O377 C376 1.258 . S
O378 Co375 1.966 . S
O378 C376 1.263 . S
C379 O380 1.235 1_655 S
C379 O406 1.289 . S
O380 C379 1.235 1_455 S
C381 C383 1.400 . S
C381 N384 1.351 . S
C381 C386 1.501 . S
C382 C383 1.387 . S
C382 N385 1.341 . S
C383 C381 1.400 . S
C383 C382 1.387 . S
N384 Co375 2.022 . S
N384 C381 1.351 . S
N384 N385 1.365 . S
N385 C382 1.341 . S
N385 N384 1.365 . S
N385 H405 0.862 . S
C386 C381 1.501 . S
C386 H387 0.961 . S
C386 H388 0.961 . S
C386 H389 0.960 . S
H387 C386 0.961 . S
H388 C386 0.961 . S
H389 C386 0.960 . S
C390 N391 1.338 1_655 S
C390 C394 1.397 1_655 S
C390 C395 1.506 . S
N391 Co374 1.989 . S
N391 C390 1.338 1_455 S
N391 N392 1.388 . S
N392 Co375 1.993 . S
N392 N391 1.388 . S
N392 C393 1.346 . S
C393 N392 1.346 . S
C393 C394 1.396 . S
C393 C403 1.510 . S
C394 C390 1.397 1_455 S
C394 C393 1.396 . S
C395 C390 1.506 . S
C395 H396 0.959 . S
C395 H397 0.960 . S
C395 H398 0.961 . S
H396 C395 0.959 . S
H397 C395 0.960 . S
H398 C395 0.961 . S
O399 Co374 1.967 1_655 S
O399 C407 1.258 . S
O400 Co375 1.941 1_655 S
O400 C407 1.266 . S
H401 C403 0.959 . S
H402 C403 0.961 . S
C403 C393 1.510 . S
C403 H401 0.959 . S
C403 H402 0.961 . S
C403 H404 0.960 . S
H404 C403 0.960 . S
H405 N385 0.862 . S
O406 Co374 1.920 1_655 S
O406 C379 1.289 . S
C407 O399 1.258 . S
C407 O400 1.266 . S
Co408 O411 1.970 . S
Co408 N425 1.989 . S
Co408 O433 1.967 1_545 S
Co408 O440 1.920 1_545 S
Co409 O412 1.966 . S
Co409 N418 2.022 . S
Co409 N426 1.993 . S
Co409 O434 1.941 1_545 S
C410 O411 1.258 . S
C410 O412 1.263 . S
O411 Co408 1.970 . S
O411 C410 1.258 . S
O412 Co409 1.966 . S
O412 C410 1.263 . S
C413 O414 1.235 1_565 S
C413 O440 1.289 . S
O414 C413 1.235 1_545 S
C415 C417 1.400 . S
C415 N418 1.351 . S
C415 C420 1.501 . S
C416 C417 1.387 . S
C416 N419 1.341 . S
C417 C415 1.400 . S
C417 C416 1.387 . S
N418 Co409 2.022 . S
N418 C415 1.351 . S
N418 N419 1.365 . S
N419 C416 1.341 . S
N419 N418 1.365 . S
N419 H439 0.862 . S
C420 C415 1.501 . S
C420 H421 0.961 . S
C420 H422 0.961 . S
C420 H423 0.960 . S
H421 C420 0.961 . S
H422 C420 0.961 . S
H423 C420 0.960 . S
C424 N425 1.338 1_565 S
C424 C428 1.397 1_565 S
C424 C429 1.506 . S
N425 Co408 1.989 . S
N425 C424 1.338 1_545 S
N425 N426 1.388 . S
N426 Co409 1.993 . S
N426 N425 1.388 . S
N426 C427 1.346 . S
C427 N426 1.346 . S
C427 C428 1.396 . S
C427 C437 1.510 . S
C428 C424 1.397 1_545 S
C428 C427 1.396 . S
C429 C424 1.506 . S
C429 H430 0.959 . S
C429 H431 0.960 . S
C429 H432 0.961 . S
H430 C429 0.959 . S
H431 C429 0.960 . S
H432 C429 0.961 . S
O433 Co408 1.967 1_565 S
O433 C441 1.258 . S
O434 Co409 1.941 1_565 S
O434 C441 1.266 . S
H435 C437 0.959 . S
H436 C437 0.961 . S
C437 C427 1.510 . S
C437 H435 0.959 . S
C437 H436 0.961 . S
C437 H438 0.960 . S
H438 C437 0.960 . S
H439 N419 0.862 . S
O440 Co408 1.920 1_565 S
O440 C413 1.289 . S
C441 O433 1.258 . S
C441 O434 1.266 . S
Co442 O445 1.970 . S
Co442 N459 1.989 . S
Co442 O467 1.967 1_455 S
Co442 O474 1.920 1_455 S
Co443 O446 1.966 . S
Co443 N452 2.022 . S
Co443 N460 1.993 . S
Co443 O468 1.941 1_455 S
C444 O445 1.258 . S
C444 O446 1.263 . S
O445 Co442 1.970 . S
O445 C444 1.258 . S
O446 Co443 1.966 . S
O446 C444 1.263 . S
C447 O448 1.235 1_655 S
C447 O474 1.289 . S
O448 C447 1.235 1_455 S
C449 C451 1.400 . S
C449 N452 1.351 . S
C449 C454 1.501 . S
C450 C451 1.387 . S
C450 N453 1.341 . S
C451 C449 1.400 . S
C451 C450 1.387 . S
N452 Co443 2.022 . S
N452 C449 1.351 . S
N452 N453 1.365 . S
N453 C450 1.341 . S
N453 N452 1.365 . S
N453 H473 0.862 . S
C454 C449 1.501 . S
C454 H455 0.961 . S
C454 H456 0.961 . S
C454 H457 0.960 . S
H455 C454 0.961 . S
H456 C454 0.961 . S
H457 C454 0.960 . S
C458 N459 1.338 1_655 S
C458 C462 1.397 1_655 S
C458 C463 1.506 . S
N459 Co442 1.989 . S
N459 C458 1.338 1_455 S
N459 N460 1.388 . S
N460 Co443 1.993 . S
N460 N459 1.388 . S
N460 C461 1.346 . S
C461 N460 1.346 . S
C461 C462 1.396 . S
C461 C471 1.510 . S
C462 C458 1.397 1_455 S
C462 C461 1.396 . S
C463 C458 1.506 . S
C463 H464 0.959 . S
C463 H465 0.960 . S
C463 H466 0.961 . S
H464 C463 0.959 . S
H465 C463 0.960 . S
H466 C463 0.961 . S
O467 Co442 1.967 1_655 S
O467 C475 1.258 . S
O468 Co443 1.941 1_655 S
O468 C475 1.266 . S
H469 C471 0.959 . S
H470 C471 0.961 . S
C471 C461 1.510 . S
C471 H469 0.959 . S
C471 H470 0.961 . S
C471 H472 0.960 . S
H472 C471 0.960 . S
H473 N453 0.862 . S
O474 Co442 1.920 1_655 S
O474 C447 1.289 . S
C475 O467 1.258 . S
C475 O468 1.266 . S
Co476 O479 1.970 . S
Co476 N493 1.989 . S
Co476 O501 1.967 1_565 S
Co476 O508 1.920 1_565 S
Co477 O480 1.966 . S
Co477 N486 2.022 . S
Co477 N494 1.993 . S
Co477 O502 1.941 1_565 S
C478 O479 1.258 . S
C478 O480 1.263 . S
O479 Co476 1.970 . S
O479 C478 1.258 . S
O480 Co477 1.966 . S
O480 C478 1.263 . S
C481 O482 1.235 1_545 S
C481 O508 1.289 . S
O482 C481 1.235 1_565 S
C483 C485 1.400 . S
C483 N486 1.351 . S
C483 C488 1.501 . S
C484 C485 1.387 . S
C484 N487 1.341 . S
C485 C483 1.400 . S
C485 C484 1.387 . S
N486 Co477 2.022 . S
N486 C483 1.351 . S
N486 N487 1.365 . S
N487 C484 1.341 . S
N487 N486 1.365 . S
N487 H507 0.862 . S
C488 C483 1.501 . S
C488 H489 0.961 . S
C488 H490 0.961 . S
C488 H491 0.960 . S
H489 C488 0.961 . S
H490 C488 0.961 . S
H491 C488 0.960 . S
C492 N493 1.338 1_545 S
C492 C496 1.397 1_545 S
C492 C497 1.506 . S
N493 Co476 1.989 . S
N493 C492 1.338 1_565 S
N493 N494 1.388 . S
N494 Co477 1.993 . S
N494 N493 1.388 . S
N494 C495 1.346 . S
C495 N494 1.346 . S
C495 C496 1.396 . S
C495 C505 1.510 . S
C496 C492 1.397 1_565 S
C496 C495 1.396 . S
C497 C492 1.506 . S
C497 H498 0.959 . S
C497 H499 0.960 . S
C497 H500 0.961 . S
H498 C497 0.959 . S
H499 C497 0.960 . S
H500 C497 0.961 . S
O501 Co476 1.967 1_545 S
O501 C509 1.258 . S
O502 Co477 1.941 1_545 S
O502 C509 1.266 . S
H503 C505 0.959 . S
H504 C505 0.961 . S
C505 C495 1.510 . S
C505 H503 0.959 . S
C505 H504 0.961 . S
C505 H506 0.960 . S
H506 C505 0.960 . S
H507 N487 0.862 . S
O508 Co476 1.920 1_545 S
O508 C481 1.289 . S
C509 O501 1.258 . S
C509 O502 1.266 . S
Co510 O513 1.970 . S
Co510 N527 1.989 . S
Co510 O535 1.967 1_655 S
Co510 O542 1.920 1_655 S
Co511 O514 1.966 . S
Co511 N520 2.022 . S
Co511 N528 1.993 . S
Co511 O536 1.941 1_655 S
C512 O513 1.258 . S
C512 O514 1.263 . S
O513 Co510 1.970 . S
O513 C512 1.258 . S
O514 Co511 1.966 . S
O514 C512 1.263 . S
C515 O516 1.235 1_455 S
C515 O542 1.289 . S
O516 C515 1.235 1_655 S
C517 C519 1.400 . S
C517 N520 1.351 . S
C517 C522 1.501 . S
C518 C519 1.387 . S
C518 N521 1.341 . S
C519 C517 1.400 . S
C519 C518 1.387 . S
N520 Co511 2.022 . S
N520 C517 1.351 . S
N520 N521 1.365 . S
N521 C518 1.341 . S
N521 N520 1.365 . S
N521 H541 0.862 . S
C522 C517 1.501 . S
C522 H523 0.961 . S
C522 H524 0.961 . S
C522 H525 0.960 . S
H523 C522 0.961 . S
H524 C522 0.961 . S
H525 C522 0.960 . S
C526 N527 1.338 1_455 S
C526 C530 1.397 1_455 S
C526 C531 1.506 . S
N527 Co510 1.989 . S
N527 C526 1.338 1_655 S
N527 N528 1.388 . S
N528 Co511 1.993 . S
N528 N527 1.388 . S
N528 C529 1.346 . S
C529 N528 1.346 . S
C529 C530 1.396 . S
C529 C539 1.510 . S
C530 C526 1.397 1_655 S
C530 C529 1.396 . S
C531 C526 1.506 . S
C531 H532 0.959 . S
C531 H533 0.960 . S
C531 H534 0.961 . S
H532 C531 0.959 . S
H533 C531 0.960 . S
H534 C531 0.961 . S
O535 Co510 1.967 1_455 S
O535 C543 1.258 . S
O536 Co511 1.941 1_455 S
O536 C543 1.266 . S
H537 C539 0.959 . S
H538 C539 0.961 . S
C539 C529 1.510 . S
C539 H537 0.959 . S
C539 H538 0.961 . S
C539 H540 0.960 . S
H540 C539 0.960 . S
H541 N521 0.862 . S
O542 Co510 1.920 1_455 S
O542 C515 1.289 . S
C543 O535 1.258 . S
C543 O536 1.266 . S
C73 C5 0.646 1_455 S
C107 C39 0.646 1_565 S
C209 C141 0.646 1_455 S
C175 C243 0.646 1_545 S
C277 C345 0.646 1_545 S
C311 C379 0.646 1_455 S
C481 C413 0.646 1_545 S
C515 C447 0.646 1_455 S
C9 C247 1.627 . S
C145 C43 1.627 . S
C179 C77 1.627 . S
C213 C111 1.627 . S
C519 C281 1.627 . S
C417 C315 1.627 . S
C451 C349 1.627 . S
C485 C383 1.627 . S
C33 C376 2.607 . S
C67 C274 2.607 . S
C101 C308 2.607 . S
C342 C135 2.607 . S
C169 C444 2.607 . S
C203 C478 2.607 . S
C237 C512 2.607 . S
C271 C410 2.607 . S
C104 C305 2.607 . S
C2 C339 2.607 . S
C36 C373 2.607 . S
C407 C70 2.607 . S
C441 C172 2.607 . S
C475 C206 2.607 . S
C509 C240 2.607 . S
C543 C138 2.607 . S
C156 C20 1.916 . S
C190 C54 1.916 . S
C88 C224 1.916 . S
C258 C122 1.916 . S
C292 C428 1.916 1_566 S
C462 C326 1.916 1_456 S
C496 C360 1.916 1_564 S
C530 C394 1.916 1_656 S
